# Generated by pormake.
# Topology wkj, (6)-cn, num edge types: 1
# Building blocks:
#     Node 0, Type 0, BuildingBlock: GEDQOX_clean_sbu_0, # of connection points: 6
#     Node 1, Type 0, BuildingBlock: GEDQOX_clean_sbu_0, # of connection points: 6
#     Node 2, Type 0, BuildingBlock: GEDQOX_clean_sbu_0, # of connection points: 6
#     Node 3, Type 0, BuildingBlock: GEDQOX_clean_sbu_0, # of connection points: 6
#     Node 4, Type 0, BuildingBlock: GEDQOX_clean_sbu_0, # of connection points: 6
#     Node 5, Type 0, BuildingBlock: GEDQOX_clean_sbu_0, # of connection points: 6
#     Node 6, Type 0, BuildingBlock: GEDQOX_clean_sbu_0, # of connection points: 6
#     Node 7, Type 0, BuildingBlock: GEDQOX_clean_sbu_0, # of connection points: 6
#     Node 8, Type 0, BuildingBlock: GEDQOX_clean_sbu_0, # of connection points: 6
#     Node 9, Type 0, BuildingBlock: GEDQOX_clean_sbu_0, # of connection points: 6
#     Node 10, Type 0, BuildingBlock: GEDQOX_clean_sbu_0, # of connection points: 6
#     Node 11, Type 0, BuildingBlock: GEDQOX_clean_sbu_0, # of connection points: 6
#     Edge 12, Type (0, 0), BuildingBlock: XUDNAN_clean_linker_2, # of connection points: 2
#     Edge 13, Type (0, 0), BuildingBlock: XUDNAN_clean_linker_2, # of connection points: 2
#     Edge 14, Type (0, 0), BuildingBlock: XUDNAN_clean_linker_2, # of connection points: 2
#     Edge 15, Type (0, 0), BuildingBlock: XUDNAN_clean_linker_2, # of connection points: 2
#     Edge 16, Type (0, 0), BuildingBlock: XUDNAN_clean_linker_2, # of connection points: 2
#     Edge 17, Type (0, 0), BuildingBlock: XUDNAN_clean_linker_2, # of connection points: 2
#     Edge 18, Type (0, 0), BuildingBlock: XUDNAN_clean_linker_2, # of connection points: 2
#     Edge 19, Type (0, 0), BuildingBlock: XUDNAN_clean_linker_2, # of connection points: 2
#     Edge 20, Type (0, 0), BuildingBlock: XUDNAN_clean_linker_2, # of connection points: 2
#     Edge 21, Type (0, 0), BuildingBlock: XUDNAN_clean_linker_2, # of connection points: 2
#     Edge 22, Type (0, 0), BuildingBlock: XUDNAN_clean_linker_2, # of connection points: 2
#     Edge 23, Type (0, 0), BuildingBlock: XUDNAN_clean_linker_2, # of connection points: 2
#     Edge 24, Type (0, 0), BuildingBlock: XUDNAN_clean_linker_2, # of connection points: 2
#     Edge 25, Type (0, 0), BuildingBlock: XUDNAN_clean_linker_2, # of connection points: 2
#     Edge 26, Type (0, 0), BuildingBlock: XUDNAN_clean_linker_2, # of connection points: 2
#     Edge 27, Type (0, 0), BuildingBlock: XUDNAN_clean_linker_2, # of connection points: 2
#     Edge 28, Type (0, 0), BuildingBlock: XUDNAN_clean_linker_2, # of connection points: 2
#     Edge 29, Type (0, 0), BuildingBlock: XUDNAN_clean_linker_2, # of connection points: 2
#     Edge 30, Type (0, 0), BuildingBlock: XUDNAN_clean_linker_2, # of connection points: 2
#     Edge 31, Type (0, 0), BuildingBlock: XUDNAN_clean_linker_2, # of connection points: 2
#     Edge 32, Type (0, 0), BuildingBlock: XUDNAN_clean_linker_2, # of connection points: 2
#     Edge 33, Type (0, 0), BuildingBlock: XUDNAN_clean_linker_2, # of connection points: 2
#     Edge 34, Type (0, 0), BuildingBlock: XUDNAN_clean_linker_2, # of connection points: 2
#     Edge 35, Type (0, 0), BuildingBlock: XUDNAN_clean_linker_2, # of connection points: 2
#     Edge 36, Type (0, 0), BuildingBlock: XUDNAN_clean_linker_2, # of connection points: 2
#     Edge 37, Type (0, 0), BuildingBlock: XUDNAN_clean_linker_2, # of connection points: 2
#     Edge 38, Type (0, 0), BuildingBlock: XUDNAN_clean_linker_2, # of connection points: 2
#     Edge 39, Type (0, 0), BuildingBlock: XUDNAN_clean_linker_2, # of connection points: 2
#     Edge 40, Type (0, 0), BuildingBlock: XUDNAN_clean_linker_2, # of connection points: 2
#     Edge 41, Type (0, 0), BuildingBlock: XUDNAN_clean_linker_2, # of connection points: 2
#     Edge 42, Type (0, 0), BuildingBlock: XUDNAN_clean_linker_2, # of connection points: 2
#     Edge 43, Type (0, 0), BuildingBlock: XUDNAN_clean_linker_2, # of connection points: 2
#     Edge 44, Type (0, 0), BuildingBlock: XUDNAN_clean_linker_2, # of connection points: 2
#     Edge 45, Type (0, 0), BuildingBlock: XUDNAN_clean_linker_2, # of connection points: 2
#     Edge 46, Type (0, 0), BuildingBlock: XUDNAN_clean_linker_2, # of connection points: 2
#     Edge 47, Type (0, 0), BuildingBlock: XUDNAN_clean_linker_2, # of connection points: 2
# Relax obj value: 0.721
# Max RMSD: 0.169
# Mean RMSD: 0.169
data_MOF--net-wkj--node1-GEDQOX_clean_sbu_0--edge1-XUDNAN_clean_linker_2
_symmetry_space_group_name_H-M    P1
_symmetry_Int_Tables_number       1
_symmetry_cell_setting            triclinic
loop_
_symmetry_equiv_pos_as_xyz
'x, y, z'
_cell_length_a     49.331409
_cell_length_b     49.377572
_cell_length_c     30.495147
_cell_angle_alpha  90.048186
_cell_angle_beta   90.494452
_cell_angle_gamma 120.12851
loop_
_atom_site_label
_atom_site_type_symbol
_atom_site_fract_x
_atom_site_fract_y
_atom_site_fract_z
_atom_type_partial_charge
Nd0 Nd 0.48273 0.08351 0.38911 0.0
Nd1 Nd 0.41912 0.04777 0.36991 0.0
C2 C 0.54054 0.11417 0.42126 0.0
C3 C 0.56308 0.14743 0.4287 0.0
C4 C 0.58577 0.15574 0.46165 0.0
C5 C 0.60025 0.18576 0.4798 0.0
C6 C 0.59187 0.20778 0.46553 0.0
C7 C 0.57221 0.20055 0.42852 0.0
C8 C 0.55784 0.17048 0.41026 0.0
C9 C 0.46068 0.12377 0.36157 0.0
C10 C 0.43589 0.03804 0.47605 0.0
C11 C 0.36006 0.02676 0.3462 0.0
C12 C 0.33695 0.02434 0.31367 0.0
C13 C 0.30621 0.01368 0.32746 0.0
C14 C 0.28195 0.00424 0.29672 0.0
C15 C 0.28822 0.00545 0.25174 0.0
C16 C 0.31955 0.01867 0.23805 0.0
C17 C 0.34377 0.02797 0.26887 0.0
C18 C 0.44418 0.01081 0.37844 0.0
C19 C 0.47391 0.06712 0.28364 0.0
O20 O 0.5155 0.10317 0.44542 0.0
O21 O 0.53411 0.10458 0.38064 0.0
O22 O 0.48735 0.12653 0.35277 0.0
O23 O 0.44601 0.10035 0.38741 0.0
O24 O 0.46467 0.05447 0.45845 0.0
O25 O 0.41274 0.03453 0.44868 0.0
O26 O 0.37695 0.05327 0.36697 0.0
O27 O 0.37542 0.01231 0.33742 0.0
O28 O 0.41831 0.00391 0.39812 0.0
O29 O 0.45562 0.03625 0.35837 0.0
O30 O 0.44354 0.05663 0.29556 0.0
O31 O 0.49458 0.07654 0.31649 0.0
H32 H 0.59007 0.13822 0.47626 0.0
H33 H 0.61509 0.19026 0.50843 0.0
H34 H 0.56558 0.21708 0.41649 0.0
H35 H 0.54065 0.1646 0.3844 0.0
H36 H 0.30063 0.01076 0.36205 0.0
H37 H 0.2581 -0.00569 0.30811 0.0
H38 H 0.32509 0.01953 0.20361 0.0
H39 H 0.36742 0.03609 0.25774 0.0
Nd40 Nd 0.37828 0.47256 0.7245 0.0
Nd41 Nd 0.34 0.41922 0.70509 0.0
C42 C 0.41248 0.52941 0.75859 0.0
C43 C 0.40575 0.55419 0.77056 0.0
C44 C 0.42375 0.5756 0.80344 0.0
C45 C 0.41336 0.59424 0.82303 0.0
C46 C 0.38463 0.59168 0.8101 0.0
C47 C 0.36819 0.57225 0.77419 0.0
C48 C 0.3786 0.5535 0.75472 0.0
C49 C 0.31895 0.46699 0.70016 0.0
C50 C 0.36745 0.42615 0.81129 0.0
C51 C 0.2908 0.36906 0.67023 0.0
C52 C 0.27075 0.35992 0.63081 0.0
C53 C 0.26154 0.37981 0.61124 0.0
C54 C 0.24577 0.37182 0.57071 0.0
C55 C 0.23958 0.34413 0.5487 0.0
C56 C 0.24784 0.32383 0.56969 0.0
C57 C 0.26301 0.33156 0.61033 0.0
C58 C 0.38837 0.4114 0.71842 0.0
C59 C 0.39023 0.47051 0.62376 0.0
O60 O 0.39793 0.50407 0.78208 0.0
O61 O 0.41216 0.52337 0.71689 0.0
O62 O 0.34539 0.48443 0.68125 0.0
O63 O 0.32395 0.45144 0.72882 0.0
O64 O 0.38663 0.45352 0.79288 0.0
O65 O 0.34319 0.40742 0.78436 0.0
O66 O 0.28846 0.38752 0.69859 0.0
O67 O 0.31972 0.37643 0.66375 0.0
O68 O 0.36168 0.39424 0.73702 0.0
O69 O 0.39088 0.43572 0.69931 0.0
O70 O 0.3613 0.44562 0.63192 0.0
O71 O 0.4061 0.48396 0.65979 0.0
H72 H 0.44464 0.57626 0.81623 0.0
H73 H 0.42649 0.60845 0.851 0.0
H74 H 0.34617 0.56992 0.7632 0.0
H75 H 0.36435 0.53704 0.72931 0.0
H76 H 0.2675 0.40197 0.62638 0.0
H77 H 0.2395 0.38789 0.55596 0.0
H78 H 0.24444 0.30274 0.55375 0.0
H79 H 0.27011 0.31602 0.62482 0.0
Nd80 Nd 0.88687 0.3903 1.0583 0.0
Nd81 Nd 0.93343 0.37948 1.02273 0.0
C82 C 0.84805 0.4102 1.0818 0.0
C83 C 0.8158 0.3968 1.09727 0.0
C84 C 0.80705 0.41656 1.11768 0.0
C85 C 0.77929 0.40403 0.14129 0.0
C86 C 0.75981 0.37136 0.14521 0.0
C87 C 0.76742 0.35164 1.12142 0.0
C88 C 0.79534 0.36429 1.09776 0.0
C89 C 0.85873 0.32614 1.03531 0.0
C90 C 0.94149 0.39652 0.13534 0.0
C91 C 0.96163 0.34652 1.01252 0.0
C92 C 0.96246 0.32184 0.98701 0.0
C93 C 0.95182 0.31575 0.94349 0.0
C94 C 0.95722 0.29552 0.9179 0.0
C95 C 0.97327 0.28102 0.93553 0.0
C96 C -0.01828 0.28546 0.98017 0.0
C97 C 0.97638 0.30579 1.00569 0.0
C98 C 0.95445 0.44113 1.02782 0.0
C99 C 0.90349 0.40701 0.94722 0.0
O100 O 0.86716 0.4075 1.10878 0.0
O101 O 0.85202 0.40479 1.04122 0.0
O102 O 0.85378 0.33695 1.07131 0.0
O103 O 0.87969 0.34928 1.01392 0.0
O104 O 0.91446 0.39655 0.12873 0.0
O105 O 0.95319 0.39097 1.09881 0.0
O106 O 0.93762 0.33792 1.03834 0.0
O107 O 0.97059 0.37327 0.99286 0.0
O108 O 0.96497 0.42921 0.99897 0.0
O109 O 0.93847 0.42113 1.05663 0.0
O110 O 0.91988 0.39204 0.95167 0.0
O111 O 0.89072 0.41044 0.98428 0.0
H112 H 0.82272 0.44169 1.11805 0.0
H113 H 0.77471 0.42006 0.15964 0.0
H114 H 0.75285 0.32643 1.12341 0.0
H115 H 0.80182 0.34867 1.08214 0.0
H116 H 0.94083 0.32783 0.9287 0.0
H117 H 0.95082 0.29314 0.88346 0.0
H118 H -0.0061 0.27449 0.99473 0.0
H119 H -0.01554 0.3101 1.0395 0.0
Nd120 Nd 0.5137 0.90394 0.39127 0.0
Nd121 Nd 0.56633 0.91472 0.37641 0.0
C122 C 0.45753 0.8836 0.42506 0.0
C123 C 0.43326 0.85233 0.43927 0.0
C124 C 0.44182 0.83017 0.45096 0.0
C125 C 0.42101 0.80324 0.47356 0.0
C126 C 0.39085 0.7975 0.48431 0.0
C127 C 0.38124 0.81811 0.4678 0.0
C128 C 0.40246 0.84556 0.44602 0.0
C129 C 0.51614 0.84759 0.37087 0.0
C130 C 0.55922 0.94001 0.47896 0.0
C131 C 0.61251 0.90653 0.34858 0.0
C132 C 0.61431 0.88483 0.31764 0.0
C133 C 0.58912 0.86696 0.28908 0.0
C134 C 0.59277 0.85097 0.25409 0.0
C135 C 0.62187 0.85293 0.24685 0.0
C136 C 0.64576 0.86777 0.27875 0.0
C137 C 0.64206 0.88386 0.3138 0.0
C138 C 0.58042 0.97294 0.3871 0.0
C139 C 0.51719 0.91353 0.28935 0.0
O140 O 0.48337 0.8957 0.4483 0.0
O141 O 0.46279 0.88769 0.38306 0.0
O142 O 0.50063 0.85801 0.3495 0.0
O143 O 0.53109 0.86789 0.40036 0.0
O144 O 0.53324 0.93477 0.45822 0.0
O145 O 0.57574 0.93021 0.45518 0.0
O146 O 0.59703 0.89413 0.38434 0.0
O147 O 0.6056 0.92649 0.33129 0.0
O148 O 0.59758 0.96234 0.40299 0.0
O149 O 0.55442 0.95263 0.36855 0.0
O150 O 0.54161 0.90965 0.3019 0.0
O151 O 0.50232 0.91695 0.32254 0.0
H152 H 0.46545 0.8348 0.44549 0.0
H153 H 0.42981 0.78847 0.4856 0.0
H154 H 0.35793 0.81409 0.47394 0.0
H155 H 0.3953 0.8622 0.43652 0.0
H156 H 0.56735 0.86717 0.29202 0.0
H157 H 0.5738 0.83995 0.23036 0.0
H158 H 0.66824 0.86925 0.2745 0.0
H159 H 0.66153 0.89715 0.33617 0.0
Nd160 Nd 0.58769 0.4852 0.72942 0.0
Nd161 Nd 0.59252 0.54101 0.69827 0.0
C162 C 0.57458 0.42793 0.75223 0.0
C163 C 0.59122 0.4162 0.77917 0.0
C164 C 0.61739 0.43729 0.8041 0.0
C165 C 0.63007 0.42632 0.83568 0.0
C166 C 0.61691 0.39396 0.84281 0.0
C167 C 0.59235 0.37291 0.81491 0.0
C168 C 0.57943 0.38398 0.78354 0.0
C169 C 0.65015 0.52411 0.70278 0.0
C170 C 0.58093 0.5304 0.81113 0.0
C171 C 0.62088 0.60238 0.68997 0.0
C172 C 0.64427 0.63015 0.6664 0.0
C173 C 0.67488 0.63604 0.65946 0.0
C174 C 0.69649 0.66301 0.63722 0.0
C175 C 0.68776 0.68436 0.6214 0.0
C176 C 0.65732 0.67865 0.62982 0.0
C177 C 0.63591 0.65192 0.65219 0.0
C178 C 0.53211 0.4967 0.70531 0.0
C179 C 0.56564 0.48499 0.62052 0.0
O180 O 0.56487 0.44427 0.7735 0.0
O181 O 0.58752 0.44086 0.71524 0.0
O182 O 0.64169 0.50916 0.73972 0.0
O183 O 0.62562 0.52124 0.68364 0.0
O184 O 0.58549 0.5062 0.80187 0.0
O185 O 0.58191 0.54713 0.7757 0.0
O186 O 0.63118 0.58811 0.7156 0.0
O187 O 0.59463 0.58328 0.66939 0.0
O188 O 0.54148 0.51948 0.67716 0.0
O189 O 0.55367 0.50198 0.73259 0.0
O190 O 0.57862 0.51613 0.62635 0.0
O191 O 0.5649 0.46865 0.65637 0.0
H192 H 0.62681 0.46229 0.80108 0.0
H193 H 0.64858 0.4434 0.85669 0.0
H194 H 0.58197 0.34786 0.81893 0.0
H195 H 0.55934 0.3674 0.76422 0.0
H196 H 0.68199 0.61969 0.67064 0.0
H197 H 0.71974 0.66672 0.63138 0.0
H198 H 0.64935 0.69399 0.61726 0.0
H199 H 0.61251 0.64795 0.6577 0.0
Nd200 Nd 0.07675 0.59611 1.05636 0.0
Nd201 Nd 0.06931 0.63902 1.04128 0.0
C202 C 0.09287 0.5573 1.09212 0.0
C203 C 0.12278 0.55803 1.09783 0.0
C204 C 0.12409 0.53521 1.12345 0.0
C205 C 0.15294 0.54018 0.13923 0.0
C206 C 0.18073 0.56826 0.12995 0.0
C207 C 0.17955 0.58948 1.10043 0.0
C208 C 0.15074 0.58439 1.08448 0.0
C209 C 0.13505 0.65041 1.02912 0.0
C210 C 0.04288 0.60923 0.14322 0.0
C211 C 0.07138 0.69045 1.01136 0.0
C212 C 0.04599 0.69414 0.99206 0.0
C213 C 0.02383 0.67067 0.96432 0.0
C214 C -0.00116 0.6729 0.94729 0.0
C215 C -0.00509 0.69844 0.95809 0.0
C216 C 0.01704 0.72194 0.98619 0.0
C217 C 0.04239 0.71974 1.00315 0.0
C218 C 0.00918 0.59352 1.04211 0.0
C219 C 0.06775 0.59132 0.95295 0.0
O220 O 0.09092 0.57899 1.11404 0.0
O221 O 0.08178 0.55383 1.0522 0.0
O222 O 0.12091 0.62271 1.01219 0.0
O223 O 0.11746 0.64975 1.06005 0.0
O224 O 0.04403 0.58652 1.12127 0.0
O225 O 0.05695 0.63615 1.12038 0.0
O226 O 0.08004 0.67383 0.9886 0.0
O227 O 0.06847 0.6832 1.05266 0.0
O228 O 0.01946 0.61993 1.06174 0.0
O229 O 0.03084 0.58978 1.02605 0.0
O230 O 0.07074 0.61904 0.96604 0.0
O231 O 0.06548 0.57306 0.98595 0.0
H232 H 0.10271 0.5148 0.13419 0.0
H233 H 0.15306 0.52361 0.16237 0.0
H234 H 0.2006 0.61132 1.09292 0.0
H235 H 0.15016 0.6023 1.06478 0.0
H236 H 0.02586 0.65051 0.95554 0.0
H237 H -0.01699 0.65481 0.92467 0.0
H238 H 0.01473 0.74192 0.99508 0.0
H239 H 0.05905 0.73788 1.02503 0.0
Nd240 Nd 0.88071 0.50246 0.53582 0.0
Nd241 Nd 0.91074 0.56365 0.56459 0.0
C242 C 0.85501 0.44668 0.49717 0.0
C243 C 0.82505 0.42284 0.47805 0.0
C244 C 0.82554 0.4028 0.44614 0.0
C245 C 0.79883 0.38382 0.42114 0.0
C246 C 0.77077 0.38425 0.42774 0.0
C247 C 0.76985 0.40293 0.46205 0.0
C248 C 0.79691 0.4223 0.48682 0.0
C249 C 0.83679 0.51953 0.56779 0.0
C250 C 0.92339 0.5563 0.45445 0.0
C251 C 0.92263 0.61812 0.59775 0.0
C252 C 0.91248 0.63212 0.63148 0.0
C253 C 0.88417 0.61459 0.65382 0.0
C254 C 0.87714 0.62786 0.68944 0.0
C255 C 0.89849 0.6587 0.70334 0.0
C256 C 0.9259 0.67651 0.67884 0.0
C257 C 0.93274 0.66334 0.64329 0.0
C258 C 0.95512 0.55001 0.54083 0.0
C259 C 0.89875 0.50706 0.6415 0.0
O260 O 0.86908 0.47311 0.4761 0.0
O261 O 0.85677 0.45051 0.53961 0.0
O262 O 0.83679 0.49395 0.57617 0.0
O263 O 0.85964 0.53544 0.542 0.0
O264 O 0.90504 0.52603 0.46504 0.0
O265 O 0.9269 0.57635 0.48724 0.0
O266 O 0.90352 0.60445 0.56463 0.0
O267 O 0.93622 0.60279 0.61166 0.0
O268 O 0.95884 0.5779 0.53934 0.0
O269 O 0.93007 0.53118 0.56042 0.0
O270 O 0.90129 0.53526 0.63419 0.0
O271 O 0.89509 0.49017 0.6054 0.0
H272 H 0.84719 0.40318 0.4387 0.0
H273 H 0.80111 0.37061 0.39454 0.0
H274 H 0.74869 0.40369 0.46845 0.0
H275 H 0.79622 0.43782 0.51134 0.0
H276 H 0.86815 0.59041 0.64478 0.0
H277 H 0.85571 0.61355 0.70726 0.0
H278 H 0.94333 0.70002 0.68879 0.0
H279 H 0.95467 0.67715 0.62626 0.0
Nd280 Nd 0.39288 0.88441 0.87573 0.0
Nd281 Nd 0.36506 0.90846 0.90264 0.0
C282 C 0.42132 0.85273 0.85412 0.0
C283 C 0.409 0.82096 0.83643 0.0
C284 C 0.37672 0.7994 0.83829 0.0
C285 C 0.36291 0.77434 0.8087 0.0
C286 C 0.38132 0.77038 0.77732 0.0
C287 C 0.41411 0.7895 0.7796 0.0
C288 C 0.42785 0.81485 0.80878 0.0
C289 C 0.32926 0.83735 0.8962 0.0
C290 C 0.38606 0.92248 0.79028 0.0
C291 C 0.31501 0.91464 0.91034 0.0
C292 C 0.28713 0.90562 0.9366 0.0
C293 C 0.26694 0.91653 0.92416 0.0
C294 C 0.24446 0.91476 0.95327 0.0
C295 C 0.24209 0.90216 0.99528 0.0
C296 C 0.26014 0.88818 1.00574 0.0
C297 C 0.28268 0.89001 0.97655 0.0
C298 C 0.41809 0.96016 0.89671 0.0
C299 C 0.41178 0.904 0.98041 0.0
O300 O 0.41788 0.87147 0.82768 0.0
O301 O 0.4141 0.85532 0.89429 0.0
O302 O 0.34126 0.84338 0.85716 0.0
O303 O 0.34922 0.85864 0.92058 0.0
O304 O 0.39921 0.9061 0.80346 0.0
O305 O 0.3694 0.92557 0.82311 0.0
O306 O 0.31538 0.89297 0.88618 0.0
O307 O 0.34193 0.9332 0.92937 0.0
O308 O 0.40268 0.95194 0.9332 0.0
O309 O 0.41048 0.93758 0.86965 0.0
O310 O 0.38519 0.90511 0.97572 0.0
O311 O 0.42278 0.90069 0.94236 0.0
H312 H 0.36178 0.80357 0.85967 0.0
H313 H 0.33759 0.75997 0.80746 0.0
H314 H 0.42879 0.78718 0.75543 0.0
H315 H 0.45277 0.83133 0.80672 0.0
H316 H 0.27003 0.92845 0.89319 0.0
H317 H 0.23075 0.92555 0.94439 0.0
H318 H 0.25903 0.87856 1.03803 0.0
H319 H 0.29807 0.88132 0.98642 0.0
Nd320 Nd 0.46373 0.3732 0.21506 0.0
Nd321 Nd 0.41159 0.33335 0.22837 0.0
C322 C 0.52076 0.40851 0.1833 0.0
C323 C 0.5469 0.40343 0.17333 0.0
C324 C 0.57374 0.42731 0.1535 0.0
C325 C 0.59511 0.42054 0.13367 0.0
C326 C 0.58964 0.38969 0.13306 0.0
C327 C 0.56432 0.36653 0.15683 0.0
C328 C 0.54306 0.37336 0.17684 0.0
C329 C 0.45982 0.31414 0.23749 0.0
C330 C 0.42081 0.36425 1.1249 0.0
C331 C 0.36102 0.28372 0.25972 0.0
C332 C 0.32865 0.27671 0.26658 0.0
C333 C 0.31438 0.26381 0.30662 0.0
C334 C 0.2881 0.26525 0.31976 0.0
C335 C 0.27563 0.27969 0.29299 0.0
C336 C 0.28806 0.28961 0.25087 0.0
C337 C 0.31443 0.2882 0.23779 0.0
C338 C 0.39797 0.37739 0.21269 0.0
C339 C 0.45962 0.38268 0.31517 0.0
O340 O 0.4958 0.39225 0.15896 0.0
O341 O 0.51415 0.40881 0.22457 0.0
O342 O 0.47512 0.34017 0.25891 0.0
O343 O 0.44529 0.31919 0.20718 0.0
O344 O 0.44652 0.384 0.14699 0.0
O345 O 0.40264 0.33813 0.14827 0.0
O346 O 0.38182 0.30643 0.2841 0.0
O347 O 0.37037 0.28543 0.21945 0.0
O348 O 0.38075 0.34895 0.19978 0.0
O349 O 0.42371 0.38383 0.23262 0.0
O350 O 0.43568 0.35404 0.30293 0.0
O351 O 0.47451 0.40031 0.28165 0.0
H352 H 0.57696 0.4506 0.15042 0.0
H353 H 0.61415 0.43881 1.11518 0.0
H354 H 0.55959 0.3426 0.15692 0.0
H355 H 0.52239 0.35463 0.19207 0.0
H356 H 0.32508 0.25498 0.32936 0.0
H357 H 0.27951 0.25767 0.35262 0.0
H358 H 0.27874 0.30043 0.22925 0.0
H359 H 0.32487 0.29806 0.20648 0.0
Nd360 Nd 0.1005 0.50437 0.53547 0.0
Nd361 Nd 0.05725 0.4441 0.56372 0.0
C362 C 0.13848 0.55847 0.49721 0.0
C363 C 0.1673 0.56859 0.47229 0.0
C364 C 0.17297 0.54598 0.45366 0.0
C365 C 0.19719 0.5547 0.42392 0.0
C366 C 0.21671 0.58639 0.41262 0.0
C367 C 0.21286 0.60923 0.43511 0.0
C368 C 0.18807 0.60033 0.46433 0.0
C369 C 0.13336 0.47726 0.5744 0.0
C370 C 0.05521 0.45256 0.45177 0.0
C371 C 0.03128 0.38607 0.59297 0.0
C372 C 0.03699 0.36509 0.62043 0.0
C373 C 0.02259 0.33338 0.60864 0.0
C374 C 0.02562 0.31221 0.63554 0.0
C375 C 0.04305 0.32245 0.67478 0.0
C376 C 0.05911 0.35468 0.68503 0.0
C377 C 0.05613 0.37589 0.65797 0.0
C378 C 0.0271 0.47282 0.52993 0.0
C379 C 0.07592 0.50261 0.6394 0.0
O380 O 0.11313 0.53619 0.47866 0.0
O381 O 0.13999 0.55362 0.53888 0.0
O382 O 0.14007 0.5059 0.57805 0.0
O383 O 0.10951 0.46291 0.54858 0.0
O384 O 0.07935 0.48091 0.46316 0.0
O385 O 0.04275 0.43255 0.48549 0.0
O386 O 0.04761 0.39554 0.55711 0.0
O387 O 0.02791 0.4079 0.6123 0.0
O388 O 0.01515 0.4427 0.53057 0.0
O389 O 0.05119 0.48579 0.55418 0.0
O390 O 0.0657 0.4718 0.63408 0.0
O391 O 0.08679 0.51992 0.60289 0.0
H392 H 0.15741 0.52131 0.46003 0.0
H393 H 0.19878 0.53616 0.4074 0.0
H394 H 0.22789 0.63389 0.42837 0.0
H395 H 0.18435 0.61813 0.47918 0.0
H396 H 0.00815 0.32482 0.57927 0.0
H397 H 0.01315 0.2876 0.62671 0.0
H398 H 0.07237 0.36329 0.71535 0.0
H399 H 0.06784 0.40043 0.66713 0.0
Nd400 Nd 0.60895 0.10548 0.87657 0.0
Nd401 Nd 0.61562 0.05633 0.90381 0.0
C402 C 0.60611 0.15347 0.84459 0.0
C403 C 0.60056 0.17189 0.81187 0.0
C404 C 0.5745 0.15868 0.78349 0.0
C405 C 0.57135 0.17731 0.75153 0.0
C406 C 0.59425 0.2092 0.74768 0.0
C407 C 0.61952 0.22241 0.77742 0.0
C408 C 0.62259 0.20391 0.80924 0.0
C409 C 0.66505 0.12911 0.92515 0.0
C410 C 0.60881 0.05568 0.79258 0.0
C411 C 0.63645 0.01744 0.92102 0.0
C412 C 0.63605 -0.00803 0.94607 0.0
C413 C 0.60846 0.96813 0.96466 0.0
C414 C 0.60847 0.94279 0.9851 0.0
C415 C 0.63603 0.94094 0.98707 0.0
C416 C 0.66352 0.96491 0.96823 0.0
C417 C 0.66349 -0.00981 0.94793 0.0
C418 C 0.55496 0.04163 0.8841 0.0
C419 C 0.58371 0.08006 0.98197 0.0
O420 O 0.58235 0.13006 0.86425 0.0
O421 O 0.63052 0.14994 0.83988 0.0
O422 O 0.64178 0.13289 0.93458 0.0
O423 O 0.65601 0.10835 0.89448 0.0
O424 O 0.60404 0.0798 0.80302 0.0
O425 O 0.61677 0.04437 0.82714 0.0
O426 O 0.64889 0.04538 0.9387 0.0
O427 O 0.61241 0.01049 0.89557 0.0
O428 O 0.56218 0.03312 0.9207 0.0
O429 O 0.57887 0.0561 0.86202 0.0
O430 O 0.59818 0.06364 0.97446 0.0
O431 O 0.5821 0.09615 0.94715 0.0
H432 H 0.55717 0.134 0.78526 0.0
H433 H 0.55187 0.16645 0.72853 0.0
H434 H 0.63741 0.24689 0.77519 0.0
H435 H 0.64267 0.21451 0.83131 0.0
H436 H 0.58699 0.96905 0.96321 0.0
H437 H 0.58709 0.92501 1.00013 0.0
H438 H 0.68505 0.96408 0.96909 0.0
H439 H 0.68486 0.0082 0.93311 0.0
Nd440 Nd 0.48282 0.5914 0.21412 0.0
Nd441 Nd 0.54512 0.61173 0.2373 0.0
C442 C 0.42565 0.56765 0.18032 0.0
C443 C 0.41138 0.57913 0.14831 0.0
C444 C 0.42847 0.59642 1.11197 0.0
C445 C 0.41495 0.60714 1.08144 0.0
C446 C 0.38413 0.60133 1.08685 0.0
C447 C 0.3674 0.58481 1.12414 0.0
C448 C 0.38094 0.57376 0.15459 0.0
C449 C 0.50997 0.65374 0.24473 0.0
C450 C 0.53121 0.59157 0.12873 0.0
C451 C 0.60473 0.6437 0.26208 0.0
C452 C 0.62712 0.66911 0.29051 0.0
C453 C 0.65921 0.68188 0.28295 0.0
C454 C 0.68125 0.70456 0.31132 0.0
C455 C 0.67145 0.71477 0.3477 0.0
C456 C 0.63918 0.70329 0.35353 0.0
C457 C 0.61713 0.68054 0.32508 0.0
C458 C 0.5102 0.54906 0.22361 0.0
C459 C 0.48954 0.57678 0.32049 0.0
O460 O 0.44655 0.56126 0.16531 0.0
O461 O 0.43416 0.58277 0.21748 0.0
O462 O 0.48137 0.63182 0.24931 0.0
O463 O 0.52413 0.64339 0.22031 0.0
O464 O 0.50269 0.58684 0.14051 0.0
O465 O 0.55247 0.60238 0.16144 0.0
O466 O 0.59304 0.65191 0.22962 0.0
O467 O 0.58411 0.61763 0.2807 0.0
O468 O 0.53722 0.56506 0.20495 0.0
O469 O 0.5041 0.56645 0.24531 0.0
O470 O 0.52022 0.59632 0.31044 0.0
O471 O 0.46968 0.56805 0.28616 0.0
H472 H 0.45218 0.60124 1.1067 0.0
H473 H 0.42839 0.61895 1.05267 0.0
H474 H 0.34372 0.58003 0.12945 0.0
H475 H 0.36758 0.56082 0.18287 0.0
H476 H 0.66722 0.67354 0.25589 0.0
H477 H 0.70592 0.71301 0.3061 0.0
H478 H 0.63089 0.71031 0.38169 0.0
H479 H 0.59236 0.67108 0.33098 0.0
H480 H 0.50154 0.18708 0.3457 0.0
H481 H 0.40246 0.11847 0.34292 0.0
H482 H 0.39161 0.15822 0.31001 0.0
H483 H 0.49225 0.25437 0.37547 0.0
H484 H 0.52499 0.28159 0.34295 0.0
H485 H 0.52449 0.24773 0.36597 0.0
H486 H 0.5322 0.23137 0.28869 0.0
H487 H 0.53237 0.26497 0.26533 0.0
H488 H 0.50494 0.22623 0.24529 0.0
H489 H 0.39278 0.20643 0.26905 0.0
H490 H 0.40423 0.25739 0.23781 0.0
H491 H 0.50182 0.29724 0.27496 0.0
C492 C 0.47739 0.18039 0.33887 0.0
C493 C 0.45283 0.14904 0.34764 0.0
C494 C 0.42178 0.14193 0.33754 0.0
C495 C 0.41546 0.16456 0.31827 0.0
C496 C 0.44026 0.19497 0.30956 0.0
C497 C 0.47062 0.20302 0.32066 0.0
C498 C 0.49314 0.2375 0.30932 0.0
C499 C 0.5097 0.25642 0.3509 0.0
C500 C 0.51709 0.24017 0.27514 0.0
C501 C 0.47099 0.24783 0.28987 0.0
C502 C 0.44061 0.22272 0.28938 0.0
C503 C 0.41648 0.2261 0.27027 0.0
C504 C 0.42326 0.2554 0.25221 0.0
C505 C 0.45388 0.28211 0.25385 0.0
C506 C 0.47799 0.2778 0.27327 0.0
H507 H 0.30571 0.50617 0.64821 0.0
H508 H 0.25887 0.41833 0.71812 0.0
H509 H 0.20764 0.40911 0.68988 0.0
H510 H 0.24616 0.52748 0.67223 0.0
H511 H 0.25025 0.54655 0.62033 0.0
H512 H 0.28305 0.54504 0.644 0.0
H513 H 0.28786 0.51923 0.57294 0.0
H514 H 0.25482 0.52033 0.54927 0.0
H515 H 0.25442 0.4837 0.55285 0.0
H516 H 0.1593 0.40857 0.64896 0.0
H517 H 0.12152 0.42082 0.61211 0.0
H518 H 0.19863 0.5116 0.57606 0.0
C519 C 0.28471 0.48494 0.6577 0.0
C520 C 0.2871 0.46272 0.68521 0.0
C521 C 0.25845 0.43568 0.69695 0.0
C522 C 0.22892 0.43019 0.68079 0.0
C523 C 0.22747 0.45228 0.65338 0.0
C524 C 0.25477 0.47955 0.64287 0.0
C525 C 0.24678 0.50065 0.61535 0.0
C526 C 0.25718 0.53178 0.63941 0.0
C527 C 0.26188 0.50631 0.56991 0.0
C528 C 0.21093 0.48112 0.61161 0.0
C529 C 0.20015 0.45293 0.633 0.0
C530 C 0.16786 0.43079 0.63256 0.0
C531 C 0.14632 0.4378 0.61101 0.0
C532 C 0.15652 0.4671 0.59042 0.0
C533 C 0.18959 0.48882 0.59099 0.0
H534 H 0.7952 0.28604 1.05707 0.0
H535 H 0.86487 0.29486 0.96389 0.0
H536 H 0.82521 0.24539 0.92781 0.0
H537 H 0.75294 0.20077 1.06653 0.0
H538 H 0.71486 0.19737 1.06908 0.0
H539 H 0.74901 0.23251 1.08855 0.0
H540 H 0.73595 0.2657 1.0364 0.0
H541 H 0.7017 0.23067 1.01691 0.0
H542 H 0.73074 0.25662 0.97859 0.0
H543 H 0.77517 0.19196 0.90089 0.0
H544 H 0.72247 0.14608 0.88474 0.0
H545 H 0.6845 0.17314 0.9927 0.0
C546 C 0.80235 0.2775 1.02932 0.0
C547 C 0.83397 0.2949 1.01409 0.0
C548 C 0.84135 0.2825 0.97689 0.0
C549 C 0.81871 0.2541 0.95602 0.0
C550 C 0.78789 0.23767 0.97177 0.0
C551 C 0.77972 0.24927 1.00752 0.0
C552 C 0.74473 0.22805 1.01699 0.0
C553 C 0.74012 0.21384 1.06303 0.0
C554 C 0.72725 0.24635 1.01193 0.0
C555 C 0.73438 0.20263 0.98143 0.0
C556 C 0.75964 0.20832 0.95576 0.0
C557 C 0.75549 0.18767 0.92108 0.0
C558 C 0.72522 0.16126 0.91212 0.0
C559 C 0.69862 0.15513 0.93722 0.0
C560 C 0.70392 0.17649 0.97259 0.0
H561 H 0.47689 0.68597 0.24003 0.0
H562 H 0.56507 0.69775 0.28765 0.0
H563 H 0.57603 0.74699 0.3254 0.0
H564 H 0.50764 0.77134 0.22025 0.0
H565 H 0.47114 0.76878 0.23512 0.0
H566 H 0.47115 0.73534 0.21138 0.0
H567 H 0.44046 0.70205 0.27801 0.0
H568 H 0.44079 0.7355 0.30225 0.0
H569 H 0.4563 0.71485 0.3325 0.0
H570 H 0.57354 0.79357 0.36702 0.0
H571 H 0.56293 0.83441 0.39507 0.0
H572 H 0.47983 0.79711 0.31281 0.0
C573 C 0.49898 0.69926 0.25744 0.0
C574 C 0.5203 0.68746 0.25978 0.0
C575 C 0.54851 0.70592 0.28397 0.0
C576 C 0.55475 0.73404 0.30613 0.0
C577 C 0.53298 0.74455 0.30369 0.0
C578 C 0.50601 0.72799 0.27866 0.0
C579 C 0.48669 0.74459 0.28002 0.0
C580 C 0.48399 0.75566 0.23395 0.0
C581 C 0.45413 0.72295 0.29933 0.0
C582 C 0.50631 0.77264 0.31055 0.0
C583 C 0.53276 0.77198 0.32445 0.0
C584 C 0.55318 0.79431 0.35516 0.0
C585 C 0.54693 0.81777 0.37115 0.0
C586 C 0.52088 0.82023 0.356 0.0
C587 C 0.50031 0.79679 0.3251 0.0
H588 H 0.68716 0.4955 0.71512 0.0
H589 H 0.68054 0.56325 0.6325 0.0
H590 H 0.72702 0.57087 0.59119 0.0
H591 H 0.77276 0.53254 0.71822 0.0
H592 H 0.77277 0.49609 0.71523 0.0
H593 H 0.74018 0.49725 0.73953 0.0
H594 H 0.7021 0.45411 0.6858 0.0
H595 H 0.73457 0.45283 0.66137 0.0
H596 H 0.70855 0.4598 0.62761 0.0
H597 H 0.77771 0.57198 0.55845 0.0
H598 H 0.82085 0.56294 0.53584 0.0
H599 H 0.79266 0.49138 0.63509 0.0
C600 C 0.69557 0.51223 0.6886 0.0
C601 C 0.67966 0.52911 0.67806 0.0
C602 C 0.69176 0.55009 0.6421 0.0
C603 C 0.71848 0.5546 0.61823 0.0
C604 C 0.73344 0.53763 0.62941 0.0
C605 C 0.72201 0.51652 0.66363 0.0
C606 C 0.74134 0.50002 0.66782 0.0
C607 C 0.75773 0.50688 0.71289 0.0
C608 C 0.72039 0.46458 0.6602 0.0
C609 C 0.76547 0.51502 0.63097 0.0
C610 C 0.76084 0.53704 0.60948 0.0
C611 C 0.78097 0.55449 0.57517 0.0
C612 C 0.80576 0.54923 0.56237 0.0
C613 C 0.81074 0.52619 0.58284 0.0
C614 C 0.78989 0.50903 0.61793 0.0
H615 H 0.29656 0.82184 0.97818 0.0
H616 H 0.29158 0.78446 0.84778 0.0
H617 H 0.24337 0.73587 0.86811 0.0
H618 H 0.26733 0.74788 1.03751 0.0
H619 H 0.24423 0.7552 1.07608 0.0
H620 H 0.27849 0.78754 1.05218 0.0
H621 H 0.24503 0.81093 1.02452 0.0
H622 H 0.21066 0.77869 1.04842 0.0
H623 H 0.21082 0.78731 0.99097 0.0
H624 H 0.19582 0.68972 0.90228 0.0
H625 H 0.15234 0.65042 0.94552 0.0
H626 H 0.18271 0.71432 1.05674 0.0
C627 C 0.28532 0.80344 0.9538 0.0
C628 C 0.29874 0.80774 0.91072 0.0
C629 C 0.28254 0.78259 0.88056 0.0
C630 C 0.25484 0.75456 0.89203 0.0
C631 C 0.24242 0.75109 0.93422 0.0
C632 C 0.25697 0.77491 0.96477 0.0
C633 C 0.23793 0.76464 1.00776 0.0
C634 C 0.25821 0.76378 1.04564 0.0
C635 C 0.22537 0.78671 1.01857 0.0
C636 C 0.2107 0.73131 0.99678 0.0
C637 C 0.21421 0.72434 0.95394 0.0
C638 C 0.19304 0.69523 0.9357 0.0
C639 C 0.16803 0.6727 0.9611 0.0
C640 C 0.16291 0.67822 1.00534 0.0
C641 C 0.18499 0.70863 1.02321 0.0
H642 H 0.59397 0.11728 1.06356 0.0
H643 H 0.52667 0.02827 1.00534 0.0
H644 H 0.49221 0.01721 1.06911 0.0
H645 H 0.58182 0.08466 0.17738 0.0
H646 H 0.5876 0.11983 0.20386 0.0
H647 H 0.60643 0.12222 0.15241 0.0
H648 H 0.5812 0.15234 1.11886 0.0
H649 H 0.56223 0.1499 0.17019 0.0
H650 H 0.53925 0.13541 1.12049 0.0
H651 H 0.46075 0.01665 0.1428 0.0
H652 H 0.44299 0.0226 0.2162 0.0
H653 H 0.53183 0.10779 0.23655 0.0
C654 C 0.57187 0.09546 1.06364 0.0
C655 C 0.56347 0.07446 1.02581 0.0
C656 C 0.5343 0.0459 1.03088 0.0
C657 C 0.51416 0.03917 1.06809 0.0
C658 C 0.52273 0.06033 1.10365 0.0
C659 C 0.55154 0.08769 1.10221 0.0
C660 C 0.55611 0.10524 0.14674 0.0
C661 C 0.58471 0.10819 0.17156 0.0
C662 C 0.55995 0.13767 0.13858 0.0
C663 C 0.52548 0.08421 0.17284 0.0
C664 C 0.5063 0.05854 0.14684 0.0
C665 C 0.47632 0.03662 0.16294 0.0
C666 C 0.46602 0.04036 0.20552 0.0
C667 C 0.48508 0.06566 0.23471 0.0
C668 C 0.51572 0.08785 0.21675 0.0
H669 H 0.42696 0.53606 0.35877 0.0
H670 H 0.52527 0.58216 0.39524 0.0
H671 H 0.51059 0.55966 0.46946 0.0
H672 H 0.39818 0.54586 0.46662 0.0
H673 H 0.3628 0.50816 0.46589 0.0
H674 H 0.38039 0.52732 0.41503 0.0
H675 H 0.38239 0.47871 0.39013 0.0
H676 H 0.36528 0.45933 0.44105 0.0
H677 H 0.40222 0.46392 0.42385 0.0
H678 H 0.48491 0.53114 0.54438 0.0
H679 H 0.45323 0.50332 0.60814 0.0
H680 H 0.36844 0.4729 0.53097 0.0
C681 C 0.44567 0.54162 0.38214 0.0
C682 C 0.47815 0.56192 0.36847 0.0
C683 C 0.5006 0.5675 0.40232 0.0
C684 C 0.49224 0.55442 0.44557 0.0
C685 C 0.46061 0.5349 0.45752 0.0
C686 C 0.4375 0.52854 0.42659 0.0
C687 C 0.40514 0.50686 0.44886 0.0
C688 C 0.38544 0.523 0.44909 0.0
C689 C 0.3877 0.47532 0.42452 0.0
C690 C 0.41343 0.50212 0.49692 0.0
C691 C 0.44584 0.51866 0.50054 0.0
C692 C 0.45963 0.51845 0.54099 0.0
C693 C 0.44086 0.50207 0.57802 0.0
C694 C 0.40726 0.48468 0.57754 0.0
C695 C 0.39367 0.48496 0.53473 0.0
H696 H 0.92251 0.40723 0.85352 0.0
H697 H 0.87666 0.44409 0.93467 0.0
H698 H 0.87257 0.47256 0.87123 0.0
H699 H 0.96464 0.47662 0.77985 0.0
H700 H 0.95806 0.45358 0.73096 0.0
H701 H 0.95957 0.43787 0.78374 0.0
H702 H 0.90473 0.38991 0.76717 0.0
H703 H 0.9033 0.40657 0.71517 0.0
H704 H 0.8725 0.39609 0.75436 0.0
H705 H 0.87564 0.50186 0.79551 0.0
H706 H 0.87936 0.52105 0.71971 0.0
H707 H 0.91696 0.46263 0.67845 0.0
C708 C 0.91148 0.42118 0.85839 0.0
C709 C 0.9005 0.42284 0.90228 0.0
C710 C 0.88594 0.44165 0.90383 0.0
C711 C 0.88344 0.4584 0.86696 0.0
C712 C 0.89459 0.45656 0.8253 0.0
C713 C 0.90784 0.43778 0.82051 0.0
C714 C 0.91632 0.43886 0.77088 0.0
C715 C 0.95177 0.45249 0.76608 0.0
C716 C 0.89815 0.40589 0.75069 0.0
C717 C 0.90609 0.46103 0.74882 0.0
C718 C 0.89413 0.47138 0.78149 0.0
C719 C 0.88467 0.49319 0.77026 0.0
C720 C 0.887 0.50434 0.72606 0.0
C721 C 0.89814 0.49403 0.69024 0.0
C722 C 0.9078 0.47153 0.70317 0.0
H723 H 0.40415 0.91461 1.07633 0.0
H724 H 0.46358 0.89706 0.99108 0.0
H725 H 0.49466 0.8979 1.05495 0.0
H726 H 0.46903 0.96777 0.15375 0.0
H727 H 0.44569 0.95407 0.20254 0.0
H728 H 0.4273 0.95231 0.15041 0.0
H729 H 0.38981 0.89309 0.16033 0.0
H730 H 0.4081 0.89471 0.2125 0.0
H731 H 0.40577 0.86786 0.17056 0.0
H732 H 0.52198 0.90001 0.13288 0.0
H733 H 0.53987 0.90346 0.20993 0.0
H734 H 0.4659 0.92037 0.25138 0.0
C735 C 0.42366 0.91091 1.07059 0.0
C736 C 0.43019 0.90561 1.02556 0.0
C737 C 0.45672 0.90118 1.02289 0.0
C738 C 0.47506 0.9016 1.06003 0.0
C739 C 0.4681 0.9067 1.1029 0.0
C740 C 0.44292 0.91145 1.10843 0.0
C741 C 0.44105 0.91676 0.15872 0.0
C742 C 0.44602 0.94967 0.16685 0.0
C743 C 0.40927 0.89162 0.1766 0.0
C744 C 0.46837 0.91377 0.18034 0.0
C745 C 0.48374 0.90808 0.14709 0.0
C746 C 0.50967 0.90451 0.15848 0.0
C747 C 0.52001 0.90659 0.20341 0.0
C748 C 0.50525 0.91231 0.23952 0.0
C749 C 0.47862 0.91597 0.22632 0.0
H750 H 0.49552 0.44484 0.35694 0.0
H751 H 0.45419 0.34671 0.38945 0.0
H752 H 0.47638 0.36173 0.46459 0.0
H753 H 0.5672 0.47552 0.42339 0.0
H754 H 0.56745 0.51022 0.44241 0.0
H755 H 0.54882 0.49243 0.39083 0.0
H756 H 0.49739 0.48828 0.41706 0.0
H757 H 0.51585 0.50606 0.46872 0.0
H758 H 0.48032 0.46855 0.46774 0.0
H759 H 0.50753 0.38856 0.53992 0.0
H760 H 0.53632 0.42119 0.60371 0.0
H761 H 0.55552 0.50431 0.53122 0.0
C762 C 0.49077 0.42623 0.37974 0.0
C763 C 0.47221 0.39371 0.36458 0.0
C764 C 0.46749 0.37138 0.39773 0.0
C765 C 0.48047 0.37997 0.44145 0.0
C766 C 0.49847 0.41169 0.45478 0.0
C767 C 0.50305 0.43459 0.42485 0.0
C768 C 0.52226 0.46704 0.44868 0.0
C769 C 0.55327 0.48754 0.42489 0.0
C770 C 0.50281 0.48347 0.45063 0.0
C771 C 0.52859 0.45913 0.496 0.0
C772 C 0.51466 0.42684 0.4983 0.0
C773 C 0.51793 0.4137 0.5376 0.0
C774 C 0.53489 0.43299 0.57464 0.0
C775 C 0.54911 0.46641 0.57553 0.0
C776 C 0.5455 0.47925 0.53405 0.0
H777 H 0.06147 0.53424 0.91197 0.0
H778 H 0.07672 0.62552 0.8754 0.0
H779 H 0.08002 0.61318 0.79759 0.0
H780 H 0.11397 0.53003 0.82881 0.0
H781 H 0.08915 0.48882 0.81749 0.0
H782 H 0.08813 0.50448 0.8705 0.0
H783 H 0.02885 0.48117 0.8618 0.0
H784 H 0.02914 0.46608 0.80799 0.0
H785 H 0.01352 0.49185 0.8154 0.0
H786 H 0.08328 0.59056 0.71822 0.0
H787 H 0.08404 0.56188 0.65258 0.0
H788 H 0.06506 0.48236 0.73365 0.0
C789 C 0.06544 0.55187 0.88784 0.0
C790 C 0.06869 0.5816 0.90266 0.0
C791 C 0.07391 0.60284 0.86764 0.0
C792 C 0.07592 0.59583 0.82226 0.0
C793 C 0.07271 0.56683 0.80923 0.0
C794 C 0.06743 0.54502 0.84137 0.0
C795 C 0.06458 0.5154 0.81804 0.0
C796 C 0.09049 0.5093 0.83472 0.0
C797 C 0.0321 0.48688 0.8263 0.0
C798 C 0.06895 0.52364 0.76807 0.0
C799 C 0.07386 0.55374 0.76418 0.0
C800 C 0.07924 0.56703 0.72197 0.0
C801 C 0.07967 0.55009 0.68382 0.0
C802 C 0.07453 0.51885 0.68487 0.0
C803 C 0.06896 0.50578 0.72918 0.0
H804 H 0.25125 0.95953 1.01257 0.0
H805 H 0.20343 0.86442 1.06053 0.0
H806 H 0.19481 0.88308 0.13127 0.0
H807 H 0.29637 -0.01074 1.09373 0.0
H808 H 0.29818 0.02658 1.09754 0.0
H809 H 0.28816 0.006 1.04641 0.0
H810 H 0.23626 0.00704 1.04275 0.0
H811 H 0.24637 0.02826 1.09407 0.0
H812 H 0.20945 -0.00767 1.08799 0.0
H813 H 0.20606 0.91183 0.2004 0.0
H814 H 0.23835 0.94655 0.26038 0.0
H815 H 0.28158 0.02421 0.17011 0.0
C816 C 0.23711 0.94245 1.03699 0.0
C817 C 0.22752 0.91054 1.03103 0.0
C818 C 0.21054 0.88892 1.06438 0.0
C819 C 0.20543 0.89938 1.10456 0.0
C820 C 0.2175 0.93149 1.1108 0.0
C821 C 0.23272 0.95275 1.07753 0.0
C822 C 0.25028 0.98606 1.09491 0.0
C823 C 0.28528 0.00288 1.08245 0.0
C824 C 0.23464 0.00451 1.07899 0.0
C825 C 0.24572 0.97998 0.14361 0.0
C826 C 0.2253 0.94859 0.152 0.0
C827 C 0.22121 0.93656 0.1943 0.0
C828 C 0.23969 0.95654 0.22832 0.0
C829 C 0.26241 -0.01192 0.21969 0.0
C830 C 0.2641 0.00025 0.1774 0.0
H831 H 0.22682 0.24718 0.3494 0.0
H832 H 0.27918 0.33635 0.28362 0.0
H833 H 0.25838 0.35964 0.33443 0.0
H834 H 0.15941 0.26153 0.39369 0.0
H835 H 0.15906 0.2421 0.44386 0.0
H836 H 0.16612 0.22887 0.39231 0.0
H837 H 0.21773 0.23504 0.42416 0.0
H838 H 0.21118 0.24857 0.47517 0.0
H839 H 0.24708 0.27251 0.44601 0.0
H840 H 0.2505 0.37773 0.40452 0.0
H841 H 0.2539 0.3876 0.48351 0.0
H842 H 0.20302 0.28751 0.50708 0.0
C843 C 0.23255 0.27118 0.34449 0.0
C844 C 0.25467 0.28987 0.31263 0.0
C845 C 0.26189 0.32127 0.30719 0.0
C846 C 0.25017 0.33482 0.33616 0.0
C847 C 0.23084 0.31661 0.37005 0.0
C848 C 0.22124 0.28509 0.37362 0.0
C849 C 0.20589 0.27231 0.41748 0.0
C850 C 0.17051 0.24988 0.41146 0.0
C851 C 0.22144 0.25623 0.44211 0.0
C852 C 0.21221 0.30231 0.44003 0.0
C853 C 0.22545 0.32739 0.41156 0.0
C854 C 0.23896 0.35818 0.42674 0.0
C855 C 0.24071 0.3636 0.47205 0.0
C856 C 0.22897 0.33832 0.50191 0.0
C857 C 0.21253 0.30736 0.48522 0.0
H858 H -0.01059 0.2713 0.69922 0.0
H859 H 0.08869 0.3238 0.72866 0.0
H860 H 0.07919 0.2972 0.79974 0.0
H861 H 0.96535 0.28418 0.78307 0.0
H862 H 0.93062 0.24717 0.79408 0.0
H863 H 0.94521 0.256 0.73966 0.0
H864 H 0.94891 0.20565 0.73677 0.0
H865 H 0.93384 0.19635 0.79176 0.0
H866 H 0.97037 0.19835 0.77874 0.0
H867 H 0.05914 0.28421 0.87287 0.0
H868 H 0.03217 0.28896 0.93667 0.0
H869 H 0.94411 0.24291 0.86513 0.0
C870 C 0.00928 0.27551 0.71947 0.0
C871 C 0.03969 0.29952 0.70868 0.0
C872 C 0.06516 0.30545 0.73645 0.0
C873 C 0.05993 0.29016 0.77678 0.0
C874 C 0.02912 0.26888 0.78875 0.0
C875 C 0.00414 0.26087 0.76023 0.0
C876 C 0.97313 0.24403 0.78399 0.0
C877 C 0.95248 0.25881 0.77469 0.0
C878 C 0.95554 0.20901 0.77212 0.0
C879 C -0.01519 0.24893 0.831 0.0
C880 C 0.017 0.26123 0.83297 0.0
C881 C 0.03389 0.27358 0.87189 0.0
C882 C 0.01826 0.27615 0.90831 0.0
C883 C -0.01395 0.26663 0.90544 0.0
C884 C 0.96878 0.25038 0.86775 0.0
H885 H 0.67481 0.89051 0.20242 0.0
H886 H 0.58494 0.80552 0.18844 0.0
H887 H 0.58744 0.81254 1.10843 0.0
H888 H 0.66057 0.93311 0.1462 0.0
H889 H 0.69708 0.95679 1.11824 0.0
H890 H 0.69695 0.93859 0.16878 0.0
H891 H 0.72331 0.91045 0.1326 0.0
H892 H 0.7246 0.92948 1.08156 0.0
H893 H 0.70655 0.88746 1.08348 0.0
H894 H 0.58874 0.83871 1.03958 0.0
H895 H 0.59196 0.87821 0.98711 0.0
H896 H 0.68083 0.94686 1.04482 0.0
C897 C 0.65675 0.87212 0.18237 0.0
C898 C 0.62947 0.84779 0.20167 0.0
C899 C 0.60594 0.82458 0.17433 0.0
C900 C 0.60725 0.82838 0.12872 0.0
C901 C 0.63262 0.85504 1.11101 0.0
C902 C 0.65766 0.876 0.13695 0.0
C903 C 0.67858 0.90602 1.11251 0.0
C904 C 0.68348 0.93527 0.13793 0.0
C905 C 0.71012 0.90848 1.10189 0.0
C906 C 0.65919 0.9004 1.0713 0.0
C907 C 0.63348 0.87041 1.07008 0.0
C908 C 0.60939 0.86178 1.03925 0.0
C909 C 0.61118 0.88447 1.00993 0.0
C910 C 0.63674 0.91552 1.01191 0.0
C911 C 0.66152 0.92306 1.04178 0.0
H912 H 0.72282 0.68067 0.55622 0.0
H913 H 0.69613 0.74368 0.61445 0.0
H914 H 0.70929 0.77374 0.54615 0.0
H915 H 0.78381 0.74495 0.47014 0.0
H916 H 0.77206 0.71338 0.43127 0.0
H917 H 0.77616 0.70712 0.48865 0.0
H918 H 0.71955 0.66017 0.48799 0.0
H919 H 0.71511 0.6664 0.43157 0.0
H920 H 0.68777 0.66607 0.47081 0.0
H921 H 0.70078 0.77992 0.46941 0.0
H922 H 0.67739 0.76479 0.39542 0.0
H923 H 0.71307 0.7011 0.38356 0.0
C924 C 0.72191 0.70209 0.55558 0.0
C925 C 0.70777 0.70938 0.59008 0.0
C926 C 0.70631 0.73725 0.58795 0.0
C927 C 0.71408 0.7547 0.54928 0.0
C928 C 0.72419 0.74456 0.51354 0.0
C929 C 0.72958 0.71963 0.51699 0.0
C930 C 0.73394 0.70911 0.47223 0.0
C931 C 0.76856 0.71927 0.46516 0.0
C932 C 0.71278 0.67339 0.46531 0.0
C933 C 0.7243 0.72779 0.44328 0.0
C934 C 0.72046 0.7494 0.46744 0.0
C935 C 0.70505 0.76421 0.44975 0.0
C936 C 0.69159 0.75534 0.40777 0.0
C937 C 0.69371 0.73195 0.38393 0.0
C938 C 0.71206 0.71975 0.40074 0.0
H939 H 0.93539 0.65149 0.9405 0.0
H940 H -0.00284 0.75125 0.92485 0.0
H941 H 0.96127 0.75221 0.86941 0.0
H942 H 0.93218 0.6355 0.84011 0.0
H943 H 0.89214 0.60393 0.83531 0.0
H944 H 0.91157 0.61267 0.88733 0.0
H945 H 0.86748 0.61976 0.92097 0.0
H946 H 0.84779 0.61101 0.86834 0.0
H947 H 0.85737 0.64683 0.89665 0.0
H948 H 0.93091 0.74086 0.80141 0.0
H949 H 0.91512 0.71905 0.72702 0.0
H950 H 0.87751 0.62546 0.77896 0.0
C951 C 0.94064 0.67372 0.92652 0.0
C952 C 0.96922 0.70116 0.93657 0.0
C953 C 0.97527 0.72991 0.91814 0.0
C954 C 0.95485 0.73064 0.88646 0.0
C955 C 0.92855 0.70246 0.87351 0.0
C956 C 0.92124 0.67442 0.89344 0.0
C957 C 0.89751 0.64663 0.86651 0.0
C958 C 0.9091 0.62341 0.8567 0.0
C959 C 0.86564 0.6301 0.88949 0.0
C960 C 0.89594 0.66322 0.82567 0.0
C961 C 0.91212 0.6954 0.83162 0.0
C962 C 0.91772 0.71573 0.79671 0.0
C963 C 0.9089 0.70311 0.75437 0.0
C964 C 0.89574 0.67054 0.74704 0.0
C965 C 0.88709 0.65036 0.7835 0.0
H966 H 0.47441 -0.00199 0.31798 0.0
H967 H 0.45996 -0.00444 0.45726 0.0
H968 H 0.51712 0.02009 0.47025 0.0
H969 H 0.52581 0.97768 0.30964 0.0
H970 H 0.55066 0.00536 0.26881 0.0
H971 H 0.51065 -0.00471 0.27248 0.0
H972 H 0.52864 0.05314 0.28012 0.0
H973 H 0.56934 0.06414 0.27956 0.0
H974 H 0.55438 0.07652 0.32422 0.0
H975 H 0.57207 0.03992 0.46876 0.0
H976 H 0.59897 0.01042 0.45884 0.0
H977 H 0.5868 0.00976 0.31946 0.0
C978 C 0.48351 0.00187 0.35129 0.0
C979 C 0.46387 -0.00242 0.38673 0.0
C980 C 0.47549 0.00094 0.42978 0.0
C981 C 0.50787 0.01624 0.43711 0.0
C982 C 0.52759 0.0269 0.40071 0.0
C983 C 0.51562 0.01878 0.35853 0.0
C984 C 0.54084 0.02675 0.3255 0.0
C985 C 0.53146 -0.00038 0.29231 0.0
C986 C 0.54876 0.05699 0.30103 0.0
C987 C 0.56725 0.03265 0.3568 0.0
C988 C 0.56074 0.03793 0.39968 0.0
C989 C 0.57699 0.03552 0.43581 0.0
C990 C 0.59256 0.01888 0.43003 0.0
C991 C 0.59148 0.00617 0.38847 0.0
C992 C 0.58555 0.01878 0.35128 0.0
H993 H 0.41283 0.38177 0.76261 0.0
H994 H 0.38761 0.39579 0.63314 0.0
H995 H 0.41946 0.37558 0.60156 0.0
H996 H 0.46438 0.41027 0.7866 0.0
H997 H 0.49176 0.39694 0.79568 0.0
H998 H 0.45046 0.36985 0.80017 0.0
H999 H 0.45921 0.33471 0.7457 0.0
H1000 H 0.49985 0.36448 0.74034 0.0
H1001 H 0.47531 0.34908 0.69241 0.0
H1002 H 0.46865 0.42443 0.60106 0.0
H1003 H 0.50063 0.47782 0.62747 0.0
H1004 H 0.5149 0.44412 0.75096 0.0
C1005 C 0.41479 0.3803 0.72748 0.0
C1006 C 0.40208 0.39398 0.70002 0.0
C1007 C 0.40054 0.38874 0.65464 0.0
C1008 C 0.41777 0.37622 0.63688 0.0
C1009 C 0.44092 0.3764 0.66393 0.0
C1010 C 0.43582 0.3719 0.7094 0.0
C1011 C 0.46679 0.38162 0.73226 0.0
C1012 C 0.46837 0.39026 0.78152 0.0
C1013 C 0.47579 0.35598 0.72725 0.0
C1014 C 0.48672 0.40879 0.70288 0.0
C1015 C 0.47278 0.40329 0.66128 0.0
C1016 C 0.47973 0.42832 0.63305 0.0
C1017 C 0.49701 0.4588 0.64886 0.0
C1018 C 0.51001 0.46462 0.69135 0.0
C1019 C 0.50567 0.43957 0.71782 0.0
H1020 H 0.9198 0.46029 1.07208 0.0
H1021 H 0.97003 0.47347 0.9513 0.0
H1022 H 0.95166 0.50791 0.92442 0.0
H1023 H 0.86351 0.49542 1.00883 0.0
H1024 H 0.86274 0.51094 1.06193 0.0
H1025 H 0.85566 0.47153 1.05654 0.0
H1026 H 0.89682 0.48451 1.11483 0.0
H1027 H 0.90747 0.52495 1.11829 0.0
H1028 H 0.93688 0.51445 1.10657 0.0
H1029 H 0.94694 0.55385 0.92098 0.0
H1030 H -0.00405 0.59287 0.95566 0.0
H1031 H 0.95393 0.56591 1.08268 0.0
C1032 C 0.92591 0.46994 1.03943 0.0
C1033 C 0.94629 0.46452 1.01387 0.0
C1034 C 0.95478 0.47778 0.97187 0.0
C1035 C 0.94337 0.49652 0.95572 0.0
C1036 C 0.92418 0.50295 0.98226 0.0
C1037 C 0.91495 0.48924 1.02335 0.0
C1038 C 0.90502 0.50793 1.0509 0.0
C1039 C 0.86971 0.49579 1.04407 0.0
C1040 C 0.9121 0.50804 1.10055 0.0
C1041 C 0.92413 0.539 1.02775 0.0
C1042 C 0.92575 0.53331 0.98285 0.0
C1043 C 0.94763 0.55713 0.95617 0.0
C1044 C 0.97571 0.57891 0.9759 0.0
C1045 C 0.97835 0.57952 1.02175 0.0
C1046 C 0.95146 0.56353 1.04737 0.0
H1047 H 0.06225 0.53321 0.50495 0.0
H1048 H -0.0131 0.44338 0.46232 0.0
H1049 H 0.97962 0.46723 0.39702 0.0
H1050 H 0.05386 0.57461 0.51868 0.0
H1051 H 0.06604 0.60923 0.48656 0.0
H1052 H 0.08777 0.589 0.48406 0.0
H1053 H 0.08091 0.58867 0.39991 0.0
H1054 H 0.05687 0.60647 0.40542 0.0
H1055 H 0.04248 0.57052 0.37538 0.0
H1056 H 0.94591 0.48303 0.42995 0.0
H1057 H 0.92872 0.4939 0.49863 0.0
H1058 H 0.01047 0.58612 0.50285 0.0
C1059 C 0.04458 0.51909 0.48076 0.0
C1060 C 0.02401 0.48728 0.4897 0.0
C1061 C 0.0019 0.46833 0.45763 0.0
C1062 C -0.00146 0.48171 0.41952 0.0
C1063 C 0.0113 0.5141 0.41989 0.0
C1064 C 0.03864 0.53312 0.44439 0.0
C1065 C 0.04306 0.56567 0.44754 0.0
C1066 C 0.06383 0.58569 0.48663 0.0
C1067 C 0.05654 0.5838 0.40451 0.0
C1068 C 0.00885 0.55566 0.451 0.0
C1069 C -0.00929 0.52644 0.4306 0.0
C1070 C 0.96012 0.50586 0.44497 0.0
C1071 C 0.95069 0.51162 0.48494 0.0
C1072 C 0.96844 0.54084 0.50538 0.0
C1073 C -0.00334 0.56363 0.48672 0.0
H1074 H 0.43492 0.98267 0.81385 0.0
H1075 H 0.41288 0.00586 0.93981 0.0
H1076 H 0.43487 0.05991 0.91716 0.0
H1077 H 0.48248 0.0057 0.78169 0.0
H1078 H 0.50009 0.03587 0.74127 0.0
H1079 H 0.45836 0.01037 0.74104 0.0
H1080 H 0.45317 0.05928 0.74021 0.0
H1081 H 0.49523 0.08373 0.74349 0.0
H1082 H 0.47098 0.08851 0.78262 0.0
H1083 H 0.48979 0.07712 0.93351 0.0
H1084 H 0.52477 0.05695 0.94643 0.0
H1085 H 0.53308 0.0481 0.80763 0.0
C1086 C 0.43443 -0.00043 0.83577 0.0
C1087 C 0.42579 -0.00885 0.87978 0.0
C1088 C 0.42237 0.01227 0.90713 0.0
C1089 C 0.43375 0.04293 0.89363 0.0
C1090 C 0.45296 0.05277 0.85686 0.0
C1091 C 0.44773 0.03128 0.82316 0.0
C1092 C 0.4753 0.04623 0.79241 0.0
C1093 C 0.47929 0.02306 0.76258 0.0
C1094 C 0.47354 0.0709 0.76313 0.0
C1095 C 0.50014 0.06224 0.82737 0.0
C1096 C 0.48712 0.06932 0.86322 0.0
C1097 C 0.49967 0.07176 0.90551 0.0
C1098 C 0.51913 0.05939 0.91316 0.0
C1099 C 0.53083 0.05025 0.87802 0.0
C1100 C 0.52347 0.05453 0.83491 0.0
H1101 H 0.46751 0.51113 0.27691 0.0
H1102 H 0.49227 0.5236 0.14005 0.0
H1103 H 0.43672 0.4867 1.12032 0.0
H1104 H 0.42851 0.45475 0.3017 0.0
H1105 H 0.39182 0.44764 0.32459 0.0
H1106 H 0.42541 0.48621 0.32603 0.0
H1107 H 0.39771 0.51034 0.287 0.0
H1108 H 0.36219 0.47274 0.28788 0.0
H1109 H 0.37586 0.49376 0.23717 0.0
H1110 H 0.38478 0.44051 1.11837 0.0
H1111 H 0.38138 0.39054 0.13465 0.0
H1112 H 0.38525 0.40864 0.27262 0.0
C1113 C 0.46077 0.50641 0.24259 0.0
C1114 C 0.48358 0.51969 0.21 0.0
C1115 C 0.47496 0.51304 0.16556 0.0
C1116 C 0.44329 0.49369 0.15417 0.0
C1117 C 0.42066 0.48317 0.1874 0.0
C1118 C 0.42941 0.49079 0.23094 0.0
C1119 C 0.4027 0.47168 0.26095 0.0
C1120 C 0.41274 0.46456 0.30587 0.0
C1121 C 0.38348 0.48807 0.26858 0.0
C1122 C 0.3852 0.44406 0.23046 0.0
C1123 C 0.39038 0.45438 0.18655 0.0
C1124 C 0.38285 0.43307 0.15215 0.0
C1125 C 0.382 0.40516 0.16146 0.0
C1126 C 0.38694 0.39904 0.20482 0.0
C1127 C 0.38367 0.41549 0.23942 0.0
H1128 H 0.35704 0.9496 0.72624 0.0
H1129 H 0.43757 0.93705 0.73888 0.0
H1130 H 0.45704 0.9634 0.6683 0.0
H1131 H 0.34873 0.93531 0.60382 0.0
H1132 H 0.33664 0.96346 0.59189 0.0
H1133 H 0.32865 0.94481 0.6448 0.0
H1134 H 0.35713 -0.0012 0.68249 0.0
H1135 H 0.36531 0.01764 0.62969 0.0
H1136 H 0.39692 0.02652 0.66771 0.0
H1137 H 0.47282 -0.00171 0.59352 0.0
H1138 H 0.4767 0.02526 0.52415 0.0
H1139 H 0.38394 0.01167 0.54473 0.0
C1140 C 0.37897 0.95236 0.71478 0.0
C1141 C 0.39533 0.94023 0.74231 0.0
C1142 C 0.42356 0.94508 0.72192 0.0
C1143 C 0.4353 0.96067 0.6805 0.0
C1144 C 0.41923 0.97235 0.65532 0.0
C1145 C 0.39102 0.96766 0.67139 0.0
C1146 C 0.37765 0.98094 0.63528 0.0
C1147 C 0.34601 0.95457 0.61793 0.0
C1148 C 0.374 0.00754 0.65496 0.0
C1149 C 0.40246 -0.0061 0.59713 0.0
C1150 C 0.42663 -0.01085 0.61054 0.0
C1151 C 0.4532 0.00085 0.58322 0.0
C1152 C 0.45523 0.01661 0.54238 0.0
C1153 C 0.43077 0.02111 0.52439 0.0
C1154 C 0.40366 0.00903 0.5542 0.0
H1155 H 0.36959 0.33417 1.05325 0.0
H1156 H 0.45607 0.42036 1.0824 0.0
H1157 H 0.45109 0.44235 1.01287 0.0
H1158 H 0.38291 0.33578 0.9314 0.0
H1159 H 0.34266 0.32128 0.91538 0.0
H1160 H 0.35177 0.31092 0.96798 0.0
H1161 H 0.32019 0.33246 1.00629 0.0
H1162 H 0.31103 0.3429 0.95379 0.0
H1163 H 0.32958 0.37219 0.9962 0.0
H1164 H 0.43755 0.45799 0.93571 0.0
H1165 H 0.4182 0.46416 0.86428 0.0
H1166 H 0.33912 0.36973 0.87356 0.0
C1167 C 0.38778 0.35769 1.04538 0.0
C1168 C 0.41392 0.37468 1.07688 0.0
C1169 C 0.43595 0.40555 1.06189 0.0
C1170 C 0.43324 0.41875 1.02115 0.0
C1171 C 0.40799 0.4018 0.99176 0.0
C1172 C 0.38547 0.37168 1.00317 0.0
C1173 C 0.36081 0.35903 0.96418 0.0
C1174 C 0.35942 0.33 0.94352 0.0
C1175 C 0.32846 0.35114 0.98112 0.0
C1176 C 0.37283 0.38637 0.92963 0.0
C1177 C 0.40027 0.41077 0.94708 0.0
C1178 C 0.41608 0.43861 0.92262 0.0
C1179 C 0.40447 0.44198 0.8807 0.0
C1180 C 0.37643 0.41815 0.85963 0.0
C1181 C 0.36053 0.3894 0.88618 0.0
H1182 H 0.92608 0.38106 0.2316 0.0
H1183 H 0.0056 0.4368 0.1485 0.0
H1184 H 0.03996 0.45582 0.21413 0.0
H1185 H 0.95227 0.43536 0.32771 0.0
H1186 H 0.93986 0.40562 0.36926 0.0
H1187 H 0.92009 0.39651 0.31667 0.0
H1188 H 0.93082 0.35124 0.30539 0.0
H1189 H 0.95015 0.35959 0.35825 0.0
H1190 H 0.97039 0.35852 0.30994 0.0
H1191 H 0.06844 0.47299 0.2955 0.0
H1192 H 0.08567 0.47985 0.37305 0.0
H1193 H -0.00796 0.40876 0.40984 0.0
C1194 C 0.95071 0.3974 0.22662 0.0
C1195 C 0.96174 0.40709 0.18143 0.0
C1196 C -0.00507 0.42826 0.18013 0.0
C1197 C 0.01521 0.43955 0.21844 0.0
C1198 C 0.00377 0.4297 0.26138 0.0
C1199 C 0.97207 0.40843 0.26556 0.0
C1200 C 0.96634 0.40047 0.31584 0.0
C1201 C 0.94324 0.41002 0.33344 0.0
C1202 C 0.95364 0.36535 0.32278 0.0
C1203 C -0.00077 0.42024 0.33919 0.0
C1204 C 0.02032 0.43749 0.30675 0.0
C1205 C 0.05158 0.45881 0.32008 0.0
C1206 C 0.06153 0.46263 0.36559 0.0
C1207 C 0.0416 0.44504 0.40113 0.0
C1208 C 0.00937 0.42299 0.38584 0.0
H1209 H 0.56614 0.04267 0.71272 0.0
H1210 H 0.64124 0.02817 0.75824 0.0
H1211 H 0.6376 0.0004 0.6893 0.0
H1212 H 0.52127 0.96481 0.6581 0.0
H1213 H 0.50765 0.97727 0.6116 0.0
H1214 H 0.51627 -0.00157 0.66291 0.0
H1215 H 0.55477 0.04971 0.62533 0.0
H1216 H 0.54586 0.02934 0.57339 0.0
H1217 H 0.58589 0.05149 0.5926 0.0
H1218 H 0.6263 0.97208 0.60872 0.0
H1219 H 0.60776 0.94715 0.53588 0.0
H1220 H 0.53685 0.97428 0.53634 0.0
C1221 C 0.58239 0.03424 0.7084 0.0
C1222 C 0.60499 0.03957 0.74407 0.0
C1223 C 0.62406 0.02605 0.73408 0.0
C1224 C 0.62206 0.00967 0.69377 0.0
C1225 C 0.60009 0.00499 0.66025 0.0
C1226 C 0.58025 0.01681 0.66735 0.0
C1227 C 0.5577 0.0069 0.62613 0.0
C1228 C 0.52368 0.98561 0.64054 0.0
C1229 C 0.56124 0.0361 0.603 0.0
C1230 C 0.56808 -0.01159 0.5948 0.0
C1231 C 0.59285 -0.01216 0.61553 0.0
C1232 C 0.60677 0.9727 0.59333 0.0
C1233 C 0.5958 0.95815 0.55065 0.0
C1234 C 0.57009 0.95724 0.5271 0.0
C1235 C 0.55632 0.97328 0.55122 0.0
H1236 H 0.51168 0.5887 1.03189 0.0
H1237 H 0.57229 0.56966 1.11369 0.0
H1238 H 0.58902 0.55279 1.04835 0.0
H1239 H 0.4903 0.52396 0.94974 0.0
H1240 H 0.49183 0.54643 0.90233 0.0
H1241 H 0.48282 0.55596 0.95535 0.0
H1242 H 0.52833 0.61257 0.94793 0.0
H1243 H 0.53743 0.60317 0.89487 0.0
H1244 H 0.56722 0.61963 0.93715 0.0
H1245 H 0.59932 0.53397 0.96846 0.0
H1246 H 0.60471 0.52244 0.89118 0.0
H1247 H 0.54336 0.55725 0.85161 0.0
C1248 C 0.52843 0.58092 1.03673 0.0
C1249 C 0.53984 0.58105 1.08181 0.0
C1250 C 0.56223 0.57056 1.08241 0.0
C1251 C 0.57216 0.56053 1.0442 0.0
C1252 C 0.56082 0.56081 1.0015 0.0
C1253 C 0.53957 0.57128 0.99743 0.0
C1254 C 0.53227 0.57034 0.94673 0.0
C1255 C 0.49721 0.54786 0.93801 0.0
C1256 C 0.54185 0.6034 0.93071 0.0
C1257 C 0.55239 0.55795 0.92316 0.0
C1258 C 0.56822 0.55209 0.95608 0.0
C1259 C 0.58701 0.53919 0.94335 0.0
C1260 C 0.59005 0.53246 0.89794 0.0
C1261 C 0.57543 0.53872 0.86153 0.0
C1262 C 0.55601 0.55204 0.87616 0.0
H1263 H -0.00048 0.55366 0.19958 0.0
H1264 H 0.04616 0.65487 0.20233 0.0
H1265 H 0.0232 0.65245 0.27494 0.0
H1266 H 0.92631 0.54106 0.25524 0.0
H1267 H 0.92012 0.50731 0.28602 0.0
H1268 H 0.94052 0.51632 0.23453 0.0
H1269 H -0.01324 0.5161 0.27284 0.0
H1270 H 0.96723 0.50798 0.32498 0.0
H1271 H 0.00573 0.54167 0.31898 0.0
H1272 H -0.0065 0.63889 0.35547 0.0
H1273 H 0.96268 0.61747 0.4229 0.0
H1274 H 0.93036 0.52367 0.3743 0.0
C1275 C 0.0053 0.57566 0.21508 0.0
C1276 C 0.02627 0.60503 0.19161 0.0
C1277 C 0.03126 0.63197 0.21627 0.0
C1278 C 0.01785 0.63073 0.25896 0.0
C1279 C -0.00215 0.60206 0.28047 0.0
C1280 C -0.00863 0.57475 0.25876 0.0
C1281 C 0.96818 0.54687 0.28911 0.0
C1282 C 0.93692 0.52666 0.26477 0.0
C1283 C -0.01718 0.52694 0.30224 0.0
C1284 C 0.96287 0.56236 0.33107 0.0
C1285 C 0.98052 0.59444 0.32505 0.0
C1286 C 0.97981 0.61374 0.35906 0.0
C1287 C 0.96156 0.60096 0.39857 0.0
C1288 C 0.94234 0.56814 0.4075 0.0
C1289 C 0.94374 0.54887 0.37132 0.0
H1290 H 0.64405 0.24681 0.51373 0.0
H1291 H 0.54812 0.2231 0.48929 0.0
H1292 H 0.54542 0.24122 0.56265 0.0
H1293 H 0.63425 0.21253 0.59886 0.0
H1294 H 0.66795 0.23856 0.63188 0.0
H1295 H 0.66993 0.242 0.57367 0.0
H1296 H 0.68494 0.30013 0.57891 0.0
H1297 H 0.68379 0.2972 0.63791 0.0
H1298 H 0.66088 0.31108 0.60973 0.0
H1299 H 0.54306 0.23495 0.64117 0.0
H1300 H 0.54537 0.2146 0.71411 0.0
H1301 H 0.64251 0.24244 0.69322 0.0
C1302 C 0.62332 0.24753 0.52317 0.0
C1303 C 0.59622 0.23296 0.49638 0.0
C1304 C 0.56933 0.23417 0.50911 0.0
C1305 C 0.56751 0.24435 0.55119 0.0
C1306 C 0.59295 0.25382 0.57976 0.0
C1307 C 0.62107 0.25695 0.5657 0.0
C1308 C 0.64213 0.2604 0.60437 0.0
C1309 C 0.65416 0.23694 0.60203 0.0
C1310 C 0.66955 0.29422 0.60794 0.0
C1311 C 0.61946 0.25314 0.64165 0.0
C1312 C 0.59175 0.25095 0.62715 0.0
C1313 C 0.5651 0.23808 0.65345 0.0
C1314 C 0.56643 0.22621 0.69466 0.0
C1315 C 0.59425 0.2274 0.7092 0.0
C1316 C 0.62134 0.24232 0.68323 0.0
H1317 H 0.41155 0.64719 0.85529 0.0
H1318 H 0.32329 0.56144 0.83484 0.0
H1319 H 0.30445 0.56914 0.90477 0.0
H1320 H 0.42673 0.63337 0.94579 0.0
H1321 H 0.44311 0.67047 0.97413 0.0
H1322 H 0.44342 0.66963 0.91573 0.0
H1323 H 0.41354 0.70013 0.91187 0.0
H1324 H 0.41348 0.70149 0.97101 0.0
H1325 H 0.37715 0.68588 0.94063 0.0
H1326 H 0.30494 0.57006 0.98328 0.0
H1327 H 0.32362 0.56648 1.05637 0.0
H1328 H 0.41053 0.65298 1.03425 0.0
C1329 C 0.38764 0.63112 0.86474 0.0
C1330 C 0.36922 0.60353 0.84006 0.0
C1331 C 0.33795 0.58293 0.85284 0.0
C1332 C 0.32699 0.58713 0.89295 0.0
C1333 C 0.34736 0.6122 0.91976 0.0
C1334 C 0.3768 0.63471 0.90546 0.0
C1335 C 0.39694 0.65479 0.94345 0.0
C1336 C 0.42938 0.65709 0.94484 0.0
C1337 C 0.40046 0.68751 0.94163 0.0
C1338 C 0.3766 0.63638 0.98165 0.0
C1339 C 0.34732 0.61308 0.96736 0.0
C1340 C 0.3272 0.58894 0.99513 0.0
C1341 C 0.33806 0.58706 1.03696 0.0
C1342 C 0.36884 0.60924 1.05076 0.0
C1343 C 0.38704 0.63554 1.02416 0.0
H1344 H 0.74883 0.32444 0.20164 0.0
H1345 H 0.71957 0.39163 0.17137 0.0
H1346 H 0.69981 0.38686 0.24629 0.0
H1347 H 0.68358 0.28009 0.29527 0.0
H1348 H 0.71211 0.27447 0.32497 0.0
H1349 H 0.7101 0.27171 0.2659 0.0
H1350 H 0.76899 0.31315 0.26264 0.0
H1351 H 0.77117 0.31658 0.32092 0.0
H1352 H 0.78283 0.35097 0.28803 0.0
H1353 H 0.7061 0.39334 0.32531 0.0
H1354 H 0.73307 0.40635 0.39641 0.0
H1355 H 0.75172 0.32997 0.38114 0.0
C1356 C 0.73622 0.33641 0.2098 0.0
C1357 C 0.73631 0.35883 0.18096 0.0
C1358 C 0.72028 0.37468 0.19317 0.0
C1359 C 0.70871 0.37189 0.23572 0.0
C1360 C 0.71238 0.35236 0.26526 0.0
C1361 C 0.72452 0.33371 0.25226 0.0
C1362 C 0.73179 0.31955 0.2916 0.0
C1363 C 0.70796 0.28437 0.29461 0.0
C1364 C 0.76569 0.32551 0.29071 0.0
C1365 C 0.72706 0.33735 0.3284 0.0
C1366 C 0.71443 0.35504 0.31279 0.0
C1367 C 0.71463 0.37859 0.33838 0.0
C1368 C 0.73007 0.38584 0.37918 0.0
C1369 C 0.74508 0.36949 0.39425 0.0
C1370 C 0.74089 0.34318 0.37016 0.0
H1371 H 0.35274 0.80122 0.54599 0.0
H1372 H 0.3885 0.74133 0.50324 0.0
H1373 H 0.37591 0.71573 0.57518 0.0
H1374 H 0.38312 0.81964 0.63945 0.0
H1375 H 0.35142 0.81809 0.67045 0.0
H1376 H 0.3528 0.82399 0.61259 0.0
H1377 H 0.29744 0.77551 0.60302 0.0
H1378 H 0.29552 0.76961 0.66154 0.0
H1379 H 0.28921 0.73826 0.62488 0.0
H1380 H 0.37888 0.71217 0.65608 0.0
H1381 H 0.38939 0.72569 0.73491 0.0
H1382 H 0.34452 0.78143 0.7244 0.0
C1383 C 0.35617 0.78143 0.55035 0.0
C1384 C 0.3726 0.77416 0.51907 0.0
C1385 C 0.37699 0.7483 0.52705 0.0
C1386 C 0.36949 0.73322 0.56778 0.0
C1387 C 0.35618 0.74316 0.59952 0.0
C1388 C 0.34818 0.76575 0.59049 0.0
C1389 C 0.33831 0.77559 0.6316 0.0
C1390 C 0.3576 0.8114 0.63892 0.0
C1391 C 0.30302 0.76404 0.63017 0.0
C1392 C 0.34577 0.75803 0.66577 0.0
C1393 C 0.35534 0.73879 0.64672 0.0
C1394 C 0.36989 0.72576 0.67154 0.0
C1395 C 0.37585 0.73355 0.71628 0.0
C1396 C 0.36686 0.7538 0.73573 0.0
C1397 C 0.35023 0.76471 0.7106 0.0
H1398 H 0.5767 0.3463 0.89534 0.0
H1399 H 0.67436 0.41817 0.88495 0.0
H1400 H 0.68196 0.41273 0.9636 0.0
H1401 H 0.55987 0.37009 0.97974 0.0
H1402 H 0.53461 0.33366 1.00706 0.0
H1403 H 0.53949 0.33386 0.94914 0.0
H1404 H 0.55778 0.29325 0.95635 0.0
H1405 H 0.55253 0.29255 1.0149 0.0
H1406 H 0.58972 0.30082 0.993 0.0
H1407 H 0.67419 0.41394 1.04313 0.0
H1408 H 0.65248 0.4184 1.11366 0.0
H1409 H 0.56106 0.34297 1.07399 0.0
C1410 C 0.60019 0.35944 0.9088 0.0
C1411 C 0.62474 0.38299 0.884 0.0
C1412 C 0.65496 0.40034 0.9034 0.0
C1413 C 0.65959 0.39716 0.9481 0.0
C1414 C 0.63405 0.37581 0.97271 0.0
C1415 C 0.60511 0.35636 0.95331 0.0
C1416 C 0.5801 0.33952 0.98747 0.0
C1417 C 0.55195 0.34467 0.98043 0.0
C1418 C 0.56942 0.30445 0.98796 0.0
C1419 C 0.59851 0.35558 1.02869 0.0
C1420 C 0.6299 0.37558 1.01985 0.0
C1421 C 0.65004 0.39741 1.05092 0.0
C1422 C 0.63754 0.39991 1.09089 0.0
C1423 C 0.60521 0.38069 1.09939 0.0
C1424 C 0.58607 0.35712 1.06895 0.0
H1425 H 0.22819 0.63243 0.35355 0.0
H1426 H 0.24766 0.5574 0.37827 0.0
H1427 H 0.25773 0.5557 0.29991 0.0
H1428 H 0.18505 0.60657 0.27383 0.0
H1429 H 0.19833 0.64068 0.23974 0.0
H1430 H 0.2059 0.64547 0.29726 0.0
H1431 H 0.26537 0.68008 0.2839 0.0
H1432 H 0.25797 0.67585 0.22554 0.0
H1433 H 0.28527 0.66588 0.24972 0.0
H1434 H 0.24254 0.54656 0.22207 0.0
H1435 H 0.21129 0.53669 0.15415 0.0
H1436 H 0.20835 0.62161 0.17651 0.0
C1437 C 0.23666 0.61708 0.34326 0.0
C1438 C 0.23593 0.59431 0.37203 0.0
C1439 C 0.24684 0.57439 0.35671 0.0
C1440 C 0.25306 0.57353 0.31214 0.0
C1441 C 0.2498 0.59378 0.28358 0.0
C1442 C 0.24339 0.61637 0.29893 0.0
C1443 C 0.23578 0.63168 0.2615 0.0
C1444 C 0.20441 0.63095 0.26853 0.0
C1445 C 0.26271 0.66536 0.25477 0.0
C1446 C 0.23391 0.61081 0.22384 0.0
C1447 C 0.24326 0.58981 0.23672 0.0
C1448 C 0.23671 0.5638 0.21079 0.0
C1449 C 0.21884 0.55824 0.17226 0.0
C1450 C 0.20802 0.57877 0.15987 0.0
C1451 C 0.21746 0.60631 0.18449 0.0
loop_
_geom_bond_atom_site_label_1
_geom_bond_atom_site_label_2
_geom_bond_distance
_geom_bond_site_symmetry_2
_ccdc_geom_bond_type
Nd0 C2 2.836 . S
Nd0 O20 2.500 . S
Nd0 O21 2.492 . S
Nd0 O22 2.487 . S
Nd0 O23 2.682 . S
Nd0 O24 2.410 . S
Nd0 O29 2.414 . S
Nd0 O31 2.424 . S
Nd1 C11 2.836 . S
Nd1 O23 2.414 . S
Nd1 O25 2.424 . S
Nd1 O26 2.500 . S
Nd1 O27 2.492 . S
Nd1 O28 2.487 . S
Nd1 O29 2.682 . S
Nd1 O30 2.410 . S
C2 Nd0 2.836 . S
C2 C3 1.498 . S
C2 O20 1.258 . S
C2 O21 1.239 . S
C3 C2 1.498 . S
C3 C4 1.366 . S
C3 C8 1.407 . S
C4 C3 1.366 . S
C4 C5 1.392 . S
C4 H32 0.930 . S
C5 C4 1.392 . S
C5 C6 1.398 . S
C5 H33 0.929 . S
C6 C5 1.398 . S
C6 C7 1.352 . S
C7 C6 1.352 . S
C7 C8 1.384 . S
C7 H34 0.930 . S
C8 C3 1.407 . S
C8 C7 1.384 . S
C8 H35 0.929 . S
C9 O22 1.241 . S
C9 O23 1.273 . S
C10 O24 1.251 . S
C10 O25 1.268 . S
C11 Nd1 2.836 . S
C11 C12 1.498 . S
C11 O26 1.258 . S
C11 O27 1.239 . S
C12 C11 1.498 . S
C12 C13 1.366 . S
C12 C17 1.407 . S
C13 C12 1.366 . S
C13 C14 1.392 . S
C13 H36 0.930 . S
C14 C13 1.392 . S
C14 C15 1.398 . S
C14 H37 0.929 . S
C15 C14 1.398 . S
C15 C16 1.352 . S
C16 C15 1.352 . S
C16 C17 1.384 . S
C16 H38 0.930 1_545 S
C17 C12 1.407 . S
C17 C16 1.384 . S
C17 H39 0.915 1_545 S
C18 O28 1.241 . S
C18 O29 1.273 . S
C19 O30 1.251 . S
C19 O31 1.268 . S
O20 Nd0 2.500 . S
O20 C2 1.258 . S
O21 Nd0 2.492 . S
O21 C2 1.239 . S
O22 Nd0 2.487 . S
O22 C9 1.241 . S
O23 Nd0 2.682 . S
O23 Nd1 2.414 . S
O23 C9 1.273 . S
O24 Nd0 2.410 . S
O24 C10 1.251 . S
O25 Nd1 2.424 . S
O25 C10 1.268 . S
O26 Nd1 2.500 . S
O26 C11 1.258 . S
O27 Nd1 2.492 . S
O27 C11 1.239 . S
O28 Nd1 2.487 . S
O28 C18 1.241 . S
O29 Nd0 2.414 . S
O29 Nd1 2.682 . S
O29 C18 1.273 . S
O30 Nd1 2.410 . S
O30 C19 1.251 . S
O31 Nd0 2.424 . S
O31 C19 1.268 . S
H32 C4 0.930 . S
H33 C5 0.929 . S
H34 C7 0.930 . S
H35 C8 0.929 . S
H36 C13 0.930 . S
H37 C14 0.929 . S
H38 C16 0.930 1_565 S
H39 C17 0.915 1_565 S
Nd40 C42 2.836 . S
Nd40 O60 2.500 . S
Nd40 O61 2.492 . S
Nd40 O62 2.487 . S
Nd40 O63 2.682 . S
Nd40 O64 2.410 . S
Nd40 O69 2.414 . S
Nd40 O71 2.424 . S
Nd41 C51 2.836 . S
Nd41 O63 2.414 . S
Nd41 O65 2.424 . S
Nd41 O66 2.500 . S
Nd41 O67 2.492 . S
Nd41 O68 2.487 . S
Nd41 O69 2.682 . S
Nd41 O70 2.410 . S
C42 Nd40 2.836 . S
C42 C43 1.498 . S
C42 O60 1.258 . S
C42 O61 1.239 . S
C43 C42 1.498 . S
C43 C44 1.366 . S
C43 C48 1.407 . S
C44 C43 1.366 . S
C44 C45 1.392 . S
C44 H72 0.930 . S
C45 C44 1.392 . S
C45 C46 1.398 . S
C45 H73 0.929 . S
C46 C45 1.398 . S
C46 C47 1.352 . S
C47 C46 1.352 . S
C47 C48 1.384 . S
C47 H74 0.930 . S
C48 C43 1.407 . S
C48 C47 1.384 . S
C48 H75 0.929 . S
C49 O62 1.241 . S
C49 O63 1.273 . S
C50 O64 1.251 . S
C50 O65 1.268 . S
C51 Nd41 2.836 . S
C51 C52 1.498 . S
C51 O66 1.258 . S
C51 O67 1.239 . S
C52 C51 1.498 . S
C52 C53 1.366 . S
C52 C57 1.407 . S
C53 C52 1.366 . S
C53 C54 1.392 . S
C53 H76 0.930 . S
C54 C53 1.392 . S
C54 C55 1.398 . S
C54 H77 0.929 . S
C55 C54 1.398 . S
C55 C56 1.352 . S
C56 C55 1.352 . S
C56 C57 1.384 . S
C56 H78 0.930 . S
C57 C52 1.407 . S
C57 C56 1.384 . S
C57 H79 0.929 . S
C58 O68 1.241 . S
C58 O69 1.273 . S
C59 O70 1.251 . S
C59 O71 1.268 . S
O60 Nd40 2.500 . S
O60 C42 1.258 . S
O61 Nd40 2.492 . S
O61 C42 1.239 . S
O62 Nd40 2.487 . S
O62 C49 1.241 . S
O63 Nd40 2.682 . S
O63 Nd41 2.414 . S
O63 C49 1.273 . S
O64 Nd40 2.410 . S
O64 C50 1.251 . S
O65 Nd41 2.424 . S
O65 C50 1.268 . S
O66 Nd41 2.500 . S
O66 C51 1.258 . S
O67 Nd41 2.492 . S
O67 C51 1.239 . S
O68 Nd41 2.487 . S
O68 C58 1.241 . S
O69 Nd40 2.414 . S
O69 Nd41 2.682 . S
O69 C58 1.273 . S
O70 Nd41 2.410 . S
O70 C59 1.251 . S
O71 Nd40 2.424 . S
O71 C59 1.268 . S
H72 C44 0.930 . S
H73 C45 0.929 . S
H74 C47 0.930 . S
H75 C48 0.929 . S
H76 C53 0.930 . S
H77 C54 0.929 . S
H78 C56 0.930 . S
H79 C57 0.929 . S
Nd80 C82 2.836 1_556 S
Nd80 O100 2.500 . S
Nd80 O101 2.492 . S
Nd80 O102 2.487 . S
Nd80 O103 2.682 . S
Nd80 O104 2.410 . S
Nd80 O109 2.414 . S
Nd80 O111 2.424 . S
Nd81 C91 2.836 . S
Nd81 O103 2.414 . S
Nd81 O105 2.424 . S
Nd81 O106 2.500 . S
Nd81 O107 2.492 . S
Nd81 O108 2.487 . S
Nd81 O109 2.682 . S
Nd81 O110 2.410 . S
C82 Nd80 2.836 1_554 S
C82 C83 1.498 . S
C82 O100 1.258 1_554 S
C82 O101 1.239 1_554 S
C83 C82 1.498 . S
C83 C84 1.366 . S
C83 C88 1.407 . S
C84 C83 1.366 . S
C84 C85 1.392 . S
C84 H112 0.930 . S
C85 C84 1.392 . S
C85 C86 1.398 . S
C85 H113 0.929 . S
C86 C85 1.398 . S
C86 C87 1.352 . S
C87 C86 1.352 . S
C87 C88 1.384 . S
C87 H114 0.930 . S
C88 C83 1.407 . S
C88 C87 1.384 . S
C88 H115 0.929 . S
C89 O102 1.241 . S
C89 O103 1.273 . S
C90 O104 1.251 . S
C90 O105 1.268 . S
C91 Nd81 2.836 . S
C91 C92 1.498 . S
C91 O106 1.258 . S
C91 O107 1.239 . S
C92 C91 1.498 . S
C92 C93 1.366 . S
C92 C97 1.407 . S
C93 C92 1.366 . S
C93 C94 1.392 . S
C93 H116 0.930 . S
C94 C93 1.392 . S
C94 C95 1.398 . S
C94 H117 0.929 . S
C95 C94 1.398 . S
C95 C96 1.352 . S
C96 C95 1.352 . S
C96 C97 1.384 . S
C96 H118 0.930 1_655 S
C97 C92 1.407 . S
C97 C96 1.384 . S
C97 H119 0.922 1_655 S
C98 O108 1.241 . S
C98 O109 1.273 . S
C99 O110 1.251 . S
C99 O111 1.268 . S
O100 Nd80 2.500 . S
O100 C82 1.258 1_556 S
O101 Nd80 2.492 . S
O101 C82 1.239 1_556 S
O102 Nd80 2.487 . S
O102 C89 1.241 . S
O103 Nd80 2.682 . S
O103 Nd81 2.414 . S
O103 C89 1.273 . S
O104 Nd80 2.410 . S
O104 C90 1.251 . S
O105 Nd81 2.424 . S
O105 C90 1.268 . S
O106 Nd81 2.500 . S
O106 C91 1.258 . S
O107 Nd81 2.492 . S
O107 C91 1.239 . S
O108 Nd81 2.487 . S
O108 C98 1.241 . S
O109 Nd80 2.414 . S
O109 Nd81 2.682 . S
O109 C98 1.273 . S
O110 Nd81 2.410 . S
O110 C99 1.251 . S
O111 Nd80 2.424 . S
O111 C99 1.268 . S
H112 C84 0.930 . S
H113 C85 0.929 . S
H114 C87 0.930 . S
H115 C88 0.929 . S
H116 C93 0.930 . S
H117 C94 0.929 . S
H118 C96 0.930 1_455 S
H119 C97 0.922 1_455 S
Nd120 C122 2.836 . S
Nd120 O140 2.500 . S
Nd120 O141 2.492 . S
Nd120 O142 2.487 . S
Nd120 O143 2.682 . S
Nd120 O144 2.410 . S
Nd120 O149 2.414 . S
Nd120 O151 2.424 . S
Nd121 C131 2.836 . S
Nd121 O143 2.414 . S
Nd121 O145 2.424 . S
Nd121 O146 2.500 . S
Nd121 O147 2.492 . S
Nd121 O148 2.487 . S
Nd121 O149 2.682 . S
Nd121 O150 2.410 . S
C122 Nd120 2.836 . S
C122 C123 1.498 . S
C122 O140 1.258 . S
C122 O141 1.239 . S
C123 C122 1.498 . S
C123 C124 1.366 . S
C123 C128 1.407 . S
C124 C123 1.366 . S
C124 C125 1.392 . S
C124 H152 0.930 . S
C125 C124 1.392 . S
C125 C126 1.398 . S
C125 H153 0.929 . S
C126 C125 1.398 . S
C126 C127 1.352 . S
C127 C126 1.352 . S
C127 C128 1.384 . S
C127 H154 0.930 . S
C128 C123 1.407 . S
C128 C127 1.384 . S
C128 H155 0.929 . S
C129 O142 1.241 . S
C129 O143 1.273 . S
C130 O144 1.251 . S
C130 O145 1.268 . S
C131 Nd121 2.836 . S
C131 C132 1.498 . S
C131 O146 1.258 . S
C131 O147 1.239 . S
C132 C131 1.498 . S
C132 C133 1.366 . S
C132 C137 1.407 . S
C133 C132 1.366 . S
C133 C134 1.392 . S
C133 H156 0.930 . S
C134 C133 1.392 . S
C134 C135 1.398 . S
C134 H157 0.929 . S
C135 C134 1.398 . S
C135 C136 1.352 . S
C136 C135 1.352 . S
C136 C137 1.384 . S
C136 H158 0.930 1_565 S
C137 C132 1.407 . S
C137 C136 1.384 . S
C137 H159 0.915 1_565 S
C138 O148 1.241 . S
C138 O149 1.273 . S
C139 O150 1.251 . S
C139 O151 1.268 . S
O140 Nd120 2.500 . S
O140 C122 1.258 . S
O141 Nd120 2.492 . S
O141 C122 1.239 . S
O142 Nd120 2.487 . S
O142 C129 1.241 . S
O143 Nd120 2.682 . S
O143 Nd121 2.414 . S
O143 C129 1.273 . S
O144 Nd120 2.410 . S
O144 C130 1.251 . S
O145 Nd121 2.424 . S
O145 C130 1.268 . S
O146 Nd121 2.500 . S
O146 C131 1.258 . S
O147 Nd121 2.492 . S
O147 C131 1.239 . S
O148 Nd121 2.487 . S
O148 C138 1.241 . S
O149 Nd120 2.414 . S
O149 Nd121 2.682 . S
O149 C138 1.273 . S
O150 Nd121 2.410 . S
O150 C139 1.251 . S
O151 Nd120 2.424 . S
O151 C139 1.268 . S
H152 C124 0.930 . S
H153 C125 0.929 . S
H154 C127 0.930 . S
H155 C128 0.929 . S
H156 C133 0.930 . S
H157 C134 0.929 . S
H158 C136 0.930 1_545 S
H159 C137 0.915 1_545 S
Nd160 C162 2.836 . S
Nd160 O180 2.500 . S
Nd160 O181 2.492 . S
Nd160 O182 2.487 . S
Nd160 O183 2.682 . S
Nd160 O184 2.410 . S
Nd160 O189 2.414 . S
Nd160 O191 2.424 . S
Nd161 C171 2.836 . S
Nd161 O183 2.414 . S
Nd161 O185 2.424 . S
Nd161 O186 2.500 . S
Nd161 O187 2.492 . S
Nd161 O188 2.487 . S
Nd161 O189 2.682 . S
Nd161 O190 2.410 . S
C162 Nd160 2.836 . S
C162 C163 1.498 . S
C162 O180 1.258 . S
C162 O181 1.239 . S
C163 C162 1.498 . S
C163 C164 1.366 . S
C163 C168 1.407 . S
C164 C163 1.366 . S
C164 C165 1.392 . S
C164 H192 0.930 . S
C165 C164 1.392 . S
C165 C166 1.398 . S
C165 H193 0.929 . S
C166 C165 1.398 . S
C166 C167 1.352 . S
C167 C166 1.352 . S
C167 C168 1.384 . S
C167 H194 0.930 . S
C168 C163 1.407 . S
C168 C167 1.384 . S
C168 H195 0.929 . S
C169 O182 1.241 . S
C169 O183 1.273 . S
C170 O184 1.251 . S
C170 O185 1.268 . S
C171 Nd161 2.836 . S
C171 C172 1.498 . S
C171 O186 1.258 . S
C171 O187 1.239 . S
C172 C171 1.498 . S
C172 C173 1.366 . S
C172 C177 1.407 . S
C173 C172 1.366 . S
C173 C174 1.392 . S
C173 H196 0.930 . S
C174 C173 1.392 . S
C174 C175 1.398 . S
C174 H197 0.929 . S
C175 C174 1.398 . S
C175 C176 1.352 . S
C176 C175 1.352 . S
C176 C177 1.384 . S
C176 H198 0.930 . S
C177 C172 1.407 . S
C177 C176 1.384 . S
C177 H199 0.929 . S
C178 O188 1.241 . S
C178 O189 1.273 . S
C179 O190 1.251 . S
C179 O191 1.268 . S
O180 Nd160 2.500 . S
O180 C162 1.258 . S
O181 Nd160 2.492 . S
O181 C162 1.239 . S
O182 Nd160 2.487 . S
O182 C169 1.241 . S
O183 Nd160 2.682 . S
O183 Nd161 2.414 . S
O183 C169 1.273 . S
O184 Nd160 2.410 . S
O184 C170 1.251 . S
O185 Nd161 2.424 . S
O185 C170 1.268 . S
O186 Nd161 2.500 . S
O186 C171 1.258 . S
O187 Nd161 2.492 . S
O187 C171 1.239 . S
O188 Nd161 2.487 . S
O188 C178 1.241 . S
O189 Nd160 2.414 . S
O189 Nd161 2.682 . S
O189 C178 1.273 . S
O190 Nd161 2.410 . S
O190 C179 1.251 . S
O191 Nd160 2.424 . S
O191 C179 1.268 . S
H192 C164 0.930 . S
H193 C165 0.929 . S
H194 C167 0.930 . S
H195 C168 0.929 . S
H196 C173 0.930 . S
H197 C174 0.929 . S
H198 C176 0.930 . S
H199 C177 0.929 . S
Nd200 C202 2.836 1_556 S
Nd200 O220 2.500 . S
Nd200 O221 2.492 . S
Nd200 O222 2.487 . S
Nd200 O223 2.682 . S
Nd200 O224 2.410 . S
Nd200 O229 2.414 . S
Nd200 O231 2.424 . S
Nd201 C211 2.836 . S
Nd201 O223 2.414 . S
Nd201 O225 2.424 . S
Nd201 O226 2.500 . S
Nd201 O227 2.492 . S
Nd201 O228 2.487 . S
Nd201 O229 2.682 . S
Nd201 O230 2.410 . S
C202 Nd200 2.836 1_554 S
C202 C203 1.498 . S
C202 O220 1.258 1_554 S
C202 O221 1.239 1_554 S
C203 C202 1.498 . S
C203 C204 1.366 . S
C203 C208 1.407 . S
C204 C203 1.366 . S
C204 C205 1.392 . S
C204 H232 0.930 . S
C205 C204 1.392 . S
C205 C206 1.398 . S
C205 H233 0.929 . S
C206 C205 1.398 . S
C206 C207 1.352 . S
C207 C206 1.352 . S
C207 C208 1.384 . S
C207 H234 0.930 . S
C208 C203 1.407 . S
C208 C207 1.384 . S
C208 H235 0.929 . S
C209 O222 1.241 . S
C209 O223 1.273 . S
C210 O224 1.251 . S
C210 O225 1.268 . S
C211 Nd201 2.836 . S
C211 C212 1.498 . S
C211 O226 1.258 . S
C211 O227 1.239 . S
C212 C211 1.498 . S
C212 C213 1.366 . S
C212 C217 1.407 . S
C213 C212 1.366 . S
C213 C214 1.392 . S
C213 H236 0.930 . S
C214 C213 1.392 . S
C214 C215 1.398 . S
C214 H237 0.929 . S
C215 C214 1.398 . S
C215 C216 1.352 . S
C216 C215 1.352 . S
C216 C217 1.384 . S
C216 H238 0.930 1_455 S
C217 C212 1.407 . S
C217 C216 1.384 . S
C217 H239 0.922 1_455 S
C218 O228 1.241 . S
C218 O229 1.273 . S
C219 O230 1.251 . S
C219 O231 1.268 . S
O220 Nd200 2.500 . S
O220 C202 1.258 1_556 S
O221 Nd200 2.492 . S
O221 C202 1.239 1_556 S
O222 Nd200 2.487 . S
O222 C209 1.241 . S
O223 Nd200 2.682 . S
O223 Nd201 2.414 . S
O223 C209 1.273 . S
O224 Nd200 2.410 . S
O224 C210 1.251 . S
O225 Nd201 2.424 . S
O225 C210 1.268 . S
O226 Nd201 2.500 . S
O226 C211 1.258 . S
O227 Nd201 2.492 . S
O227 C211 1.239 . S
O228 Nd201 2.487 . S
O228 C218 1.241 . S
O229 Nd200 2.414 . S
O229 Nd201 2.682 . S
O229 C218 1.273 . S
O230 Nd201 2.410 . S
O230 C219 1.251 . S
O231 Nd200 2.424 . S
O231 C219 1.268 . S
H232 C204 0.930 . S
H233 C205 0.929 . S
H234 C207 0.930 . S
H235 C208 0.929 . S
H236 C213 0.930 . S
H237 C214 0.929 . S
H238 C216 0.930 1_655 S
H239 C217 0.922 1_655 S
Nd240 C242 2.836 . S
Nd240 O260 2.500 . S
Nd240 O261 2.492 . S
Nd240 O262 2.487 . S
Nd240 O263 2.682 . S
Nd240 O264 2.410 . S
Nd240 O269 2.414 . S
Nd240 O271 2.424 . S
Nd241 C251 2.836 . S
Nd241 O263 2.414 . S
Nd241 O265 2.424 . S
Nd241 O266 2.500 . S
Nd241 O267 2.492 . S
Nd241 O268 2.487 . S
Nd241 O269 2.682 . S
Nd241 O270 2.410 . S
C242 Nd240 2.836 . S
C242 C243 1.498 . S
C242 O260 1.258 . S
C242 O261 1.239 . S
C243 C242 1.498 . S
C243 C244 1.366 . S
C243 C248 1.407 . S
C244 C243 1.366 . S
C244 C245 1.392 . S
C244 H272 0.930 . S
C245 C244 1.392 . S
C245 C246 1.398 . S
C245 H273 0.929 . S
C246 C245 1.398 . S
C246 C247 1.352 . S
C247 C246 1.352 . S
C247 C248 1.384 . S
C247 H274 0.930 . S
C248 C243 1.407 . S
C248 C247 1.384 . S
C248 H275 0.929 . S
C249 O262 1.241 . S
C249 O263 1.273 . S
C250 O264 1.251 . S
C250 O265 1.268 . S
C251 Nd241 2.836 . S
C251 C252 1.498 . S
C251 O266 1.258 . S
C251 O267 1.239 . S
C252 C251 1.498 . S
C252 C253 1.366 . S
C252 C257 1.407 . S
C253 C252 1.366 . S
C253 C254 1.392 . S
C253 H276 0.930 . S
C254 C253 1.392 . S
C254 C255 1.398 . S
C254 H277 0.929 . S
C255 C254 1.398 . S
C255 C256 1.352 . S
C256 C255 1.352 . S
C256 C257 1.384 . S
C256 H278 0.930 1_655 S
C257 C252 1.407 . S
C257 C256 1.384 . S
C257 H279 0.915 1_655 S
C258 O268 1.241 . S
C258 O269 1.273 . S
C259 O270 1.251 . S
C259 O271 1.268 . S
O260 Nd240 2.500 . S
O260 C242 1.258 . S
O261 Nd240 2.492 . S
O261 C242 1.239 . S
O262 Nd240 2.487 . S
O262 C249 1.241 . S
O263 Nd240 2.682 . S
O263 Nd241 2.414 . S
O263 C249 1.273 . S
O264 Nd240 2.410 . S
O264 C250 1.251 . S
O265 Nd241 2.424 . S
O265 C250 1.268 . S
O266 Nd241 2.500 . S
O266 C251 1.258 . S
O267 Nd241 2.492 . S
O267 C251 1.239 . S
O268 Nd241 2.487 . S
O268 C258 1.241 . S
O269 Nd240 2.414 . S
O269 Nd241 2.682 . S
O269 C258 1.273 . S
O270 Nd241 2.410 . S
O270 C259 1.251 . S
O271 Nd240 2.424 . S
O271 C259 1.268 . S
H272 C244 0.930 . S
H273 C245 0.929 . S
H274 C247 0.930 . S
H275 C248 0.929 . S
H276 C253 0.930 . S
H277 C254 0.929 . S
H278 C256 0.930 1_455 S
H279 C257 0.915 1_455 S
Nd280 C282 2.836 . S
Nd280 O300 2.500 . S
Nd280 O301 2.492 . S
Nd280 O302 2.487 . S
Nd280 O303 2.682 . S
Nd280 O304 2.410 . S
Nd280 O309 2.414 . S
Nd280 O311 2.424 . S
Nd281 C291 2.836 . S
Nd281 O303 2.414 . S
Nd281 O305 2.424 . S
Nd281 O306 2.500 . S
Nd281 O307 2.492 . S
Nd281 O308 2.487 . S
Nd281 O309 2.682 . S
Nd281 O310 2.410 . S
C282 Nd280 2.836 . S
C282 C283 1.498 . S
C282 O300 1.258 . S
C282 O301 1.239 . S
C283 C282 1.498 . S
C283 C284 1.366 . S
C283 C288 1.407 . S
C284 C283 1.366 . S
C284 C285 1.392 . S
C284 H312 0.930 . S
C285 C284 1.392 . S
C285 C286 1.398 . S
C285 H313 0.929 . S
C286 C285 1.398 . S
C286 C287 1.352 . S
C287 C286 1.352 . S
C287 C288 1.384 . S
C287 H314 0.930 . S
C288 C283 1.407 . S
C288 C287 1.384 . S
C288 H315 0.929 . S
C289 O302 1.241 . S
C289 O303 1.273 . S
C290 O304 1.251 . S
C290 O305 1.268 . S
C291 Nd281 2.836 . S
C291 C292 1.498 . S
C291 O306 1.258 . S
C291 O307 1.239 . S
C292 C291 1.498 . S
C292 C293 1.366 . S
C292 C297 1.407 . S
C293 C292 1.366 . S
C293 C294 1.392 . S
C293 H316 0.930 . S
C294 C293 1.392 . S
C294 C295 1.398 . S
C294 H317 0.929 . S
C295 C294 1.398 . S
C295 C296 1.352 . S
C296 C295 1.352 . S
C296 C297 1.384 . S
C296 H318 0.930 1_565 S
C297 C292 1.407 . S
C297 C296 1.384 . S
C297 H319 0.922 1_565 S
C298 O308 1.241 . S
C298 O309 1.273 . S
C299 O310 1.251 . S
C299 O311 1.268 . S
O300 Nd280 2.500 . S
O300 C282 1.258 . S
O301 Nd280 2.492 . S
O301 C282 1.239 . S
O302 Nd280 2.487 . S
O302 C289 1.241 . S
O303 Nd280 2.682 . S
O303 Nd281 2.414 . S
O303 C289 1.273 . S
O304 Nd280 2.410 . S
O304 C290 1.251 . S
O305 Nd281 2.424 . S
O305 C290 1.268 . S
O306 Nd281 2.500 . S
O306 C291 1.258 . S
O307 Nd281 2.492 . S
O307 C291 1.239 . S
O308 Nd281 2.487 . S
O308 C298 1.241 . S
O309 Nd280 2.414 . S
O309 Nd281 2.682 . S
O309 C298 1.273 . S
O310 Nd281 2.410 . S
O310 C299 1.251 . S
O311 Nd280 2.424 . S
O311 C299 1.268 . S
H312 C284 0.930 . S
H313 C285 0.929 . S
H314 C287 0.930 . S
H315 C288 0.929 . S
H316 C293 0.930 . S
H317 C294 0.929 . S
H318 C296 0.930 1_545 S
H319 C297 0.922 1_545 S
Nd320 C322 2.836 1_554 S
Nd320 O340 2.500 . S
Nd320 O341 2.492 . S
Nd320 O342 2.487 . S
Nd320 O343 2.682 . S
Nd320 O344 2.410 . S
Nd320 O349 2.414 . S
Nd320 O351 2.424 . S
Nd321 C331 2.836 . S
Nd321 O343 2.414 . S
Nd321 O345 2.424 . S
Nd321 O346 2.500 . S
Nd321 O347 2.492 . S
Nd321 O348 2.487 . S
Nd321 O349 2.682 . S
Nd321 O350 2.410 . S
C322 Nd320 2.836 1_556 S
C322 C323 1.498 . S
C322 O340 1.258 1_556 S
C322 O341 1.239 1_556 S
C323 C322 1.498 . S
C323 C324 1.366 . S
C323 C328 1.407 . S
C324 C323 1.366 . S
C324 C325 1.392 . S
C324 H352 0.930 . S
C325 C324 1.392 . S
C325 C326 1.398 . S
C325 H353 0.929 . S
C326 C325 1.398 . S
C326 C327 1.352 . S
C327 C326 1.352 . S
C327 C328 1.384 . S
C327 H354 0.930 . S
C328 C323 1.407 . S
C328 C327 1.384 . S
C328 H355 0.929 . S
C329 O342 1.241 . S
C329 O343 1.273 . S
C330 O344 1.251 . S
C330 O345 1.268 . S
C331 Nd321 2.836 . S
C331 C332 1.498 . S
C331 O346 1.258 . S
C331 O347 1.239 . S
C332 C331 1.498 . S
C332 C333 1.366 . S
C332 C337 1.407 . S
C333 C332 1.366 . S
C333 C334 1.392 . S
C333 H356 0.930 . S
C334 C333 1.392 . S
C334 C335 1.398 . S
C334 H357 0.929 . S
C335 C334 1.398 . S
C335 C336 1.352 . S
C336 C335 1.352 . S
C336 C337 1.384 . S
C336 H358 0.930 . S
C337 C332 1.407 . S
C337 C336 1.384 . S
C337 H359 0.929 . S
C338 O348 1.241 . S
C338 O349 1.273 . S
C339 O350 1.251 . S
C339 O351 1.268 . S
O340 Nd320 2.500 . S
O340 C322 1.258 1_554 S
O341 Nd320 2.492 . S
O341 C322 1.239 1_554 S
O342 Nd320 2.487 . S
O342 C329 1.241 . S
O343 Nd320 2.682 . S
O343 Nd321 2.414 . S
O343 C329 1.273 . S
O344 Nd320 2.410 . S
O344 C330 1.251 . S
O345 Nd321 2.424 . S
O345 C330 1.268 . S
O346 Nd321 2.500 . S
O346 C331 1.258 . S
O347 Nd321 2.492 . S
O347 C331 1.239 . S
O348 Nd321 2.487 . S
O348 C338 1.241 . S
O349 Nd320 2.414 . S
O349 Nd321 2.682 . S
O349 C338 1.273 . S
O350 Nd321 2.410 . S
O350 C339 1.251 . S
O351 Nd320 2.424 . S
O351 C339 1.268 . S
H352 C324 0.930 . S
H353 C325 0.929 . S
H354 C327 0.930 . S
H355 C328 0.929 . S
H356 C333 0.930 . S
H357 C334 0.929 . S
H358 C336 0.930 . S
H359 C337 0.929 . S
Nd360 C362 2.836 . S
Nd360 O380 2.500 . S
Nd360 O381 2.492 . S
Nd360 O382 2.487 . S
Nd360 O383 2.682 . S
Nd360 O384 2.410 . S
Nd360 O389 2.414 . S
Nd360 O391 2.424 . S
Nd361 C371 2.836 . S
Nd361 O383 2.414 . S
Nd361 O385 2.424 . S
Nd361 O386 2.500 . S
Nd361 O387 2.492 . S
Nd361 O388 2.487 . S
Nd361 O389 2.682 . S
Nd361 O390 2.410 . S
C362 Nd360 2.836 . S
C362 C363 1.498 . S
C362 O380 1.258 . S
C362 O381 1.239 . S
C363 C362 1.498 . S
C363 C364 1.366 . S
C363 C368 1.407 . S
C364 C363 1.366 . S
C364 C365 1.392 . S
C364 H392 0.930 . S
C365 C364 1.392 . S
C365 C366 1.398 . S
C365 H393 0.929 . S
C366 C365 1.398 . S
C366 C367 1.352 . S
C367 C366 1.352 . S
C367 C368 1.384 . S
C367 H394 0.930 . S
C368 C363 1.407 . S
C368 C367 1.384 . S
C368 H395 0.929 . S
C369 O382 1.241 . S
C369 O383 1.273 . S
C370 O384 1.251 . S
C370 O385 1.268 . S
C371 Nd361 2.836 . S
C371 C372 1.498 . S
C371 O386 1.258 . S
C371 O387 1.239 . S
C372 C371 1.498 . S
C372 C373 1.366 . S
C372 C377 1.407 . S
C373 C372 1.366 . S
C373 C374 1.392 . S
C373 H396 0.930 . S
C374 C373 1.392 . S
C374 C375 1.398 . S
C374 H397 0.929 . S
C375 C374 1.398 . S
C375 C376 1.352 . S
C376 C375 1.352 . S
C376 C377 1.384 . S
C376 H398 0.930 1_455 S
C377 C372 1.407 . S
C377 C376 1.384 . S
C377 H399 0.915 1_455 S
C378 O388 1.241 . S
C378 O389 1.273 . S
C379 O390 1.251 . S
C379 O391 1.268 . S
O380 Nd360 2.500 . S
O380 C362 1.258 . S
O381 Nd360 2.492 . S
O381 C362 1.239 . S
O382 Nd360 2.487 . S
O382 C369 1.241 . S
O383 Nd360 2.682 . S
O383 Nd361 2.414 . S
O383 C369 1.273 . S
O384 Nd360 2.410 . S
O384 C370 1.251 . S
O385 Nd361 2.424 . S
O385 C370 1.268 . S
O386 Nd361 2.500 . S
O386 C371 1.258 . S
O387 Nd361 2.492 . S
O387 C371 1.239 . S
O388 Nd361 2.487 . S
O388 C378 1.241 . S
O389 Nd360 2.414 . S
O389 Nd361 2.682 . S
O389 C378 1.273 . S
O390 Nd361 2.410 . S
O390 C379 1.251 . S
O391 Nd360 2.424 . S
O391 C379 1.268 . S
H392 C364 0.930 . S
H393 C365 0.929 . S
H394 C367 0.930 . S
H395 C368 0.929 . S
H396 C373 0.930 . S
H397 C374 0.929 . S
H398 C376 0.930 1_655 S
H399 C377 0.915 1_655 S
Nd400 C402 2.836 . S
Nd400 O420 2.500 . S
Nd400 O421 2.492 . S
Nd400 O422 2.487 . S
Nd400 O423 2.682 . S
Nd400 O424 2.410 . S
Nd400 O429 2.414 . S
Nd400 O431 2.424 . S
Nd401 C411 2.836 . S
Nd401 O423 2.414 . S
Nd401 O425 2.424 . S
Nd401 O426 2.500 . S
Nd401 O427 2.492 . S
Nd401 O428 2.487 . S
Nd401 O429 2.682 . S
Nd401 O430 2.410 . S
C402 Nd400 2.836 . S
C402 C403 1.498 . S
C402 O420 1.258 . S
C402 O421 1.239 . S
C403 C402 1.498 . S
C403 C404 1.366 . S
C403 C408 1.407 . S
C404 C403 1.366 . S
C404 C405 1.392 . S
C404 H432 0.930 . S
C405 C404 1.392 . S
C405 C406 1.398 . S
C405 H433 0.929 . S
C406 C405 1.398 . S
C406 C407 1.352 . S
C407 C406 1.352 . S
C407 C408 1.384 . S
C407 H434 0.930 . S
C408 C403 1.407 . S
C408 C407 1.384 . S
C408 H435 0.929 . S
C409 O422 1.241 . S
C409 O423 1.273 . S
C410 O424 1.251 . S
C410 O425 1.268 . S
C411 Nd401 2.836 . S
C411 C412 1.498 . S
C411 O426 1.258 . S
C411 O427 1.239 . S
C412 C411 1.498 . S
C412 C413 1.366 . S
C412 C417 1.407 . S
C413 C412 1.366 . S
C413 C414 1.392 . S
C413 H436 0.930 . S
C414 C413 1.392 . S
C414 C415 1.398 . S
C414 H437 0.929 . S
C415 C414 1.398 . S
C415 C416 1.352 . S
C416 C415 1.352 . S
C416 C417 1.384 . S
C416 H438 0.930 1_545 S
C417 C412 1.407 . S
C417 C416 1.384 . S
C417 H439 0.922 1_545 S
C418 O428 1.241 . S
C418 O429 1.273 . S
C419 O430 1.251 . S
C419 O431 1.268 . S
O420 Nd400 2.500 . S
O420 C402 1.258 . S
O421 Nd400 2.492 . S
O421 C402 1.239 . S
O422 Nd400 2.487 . S
O422 C409 1.241 . S
O423 Nd400 2.682 . S
O423 Nd401 2.414 . S
O423 C409 1.273 . S
O424 Nd400 2.410 . S
O424 C410 1.251 . S
O425 Nd401 2.424 . S
O425 C410 1.268 . S
O426 Nd401 2.500 . S
O426 C411 1.258 . S
O427 Nd401 2.492 . S
O427 C411 1.239 . S
O428 Nd401 2.487 . S
O428 C418 1.241 . S
O429 Nd400 2.414 . S
O429 Nd401 2.682 . S
O429 C418 1.273 . S
O430 Nd401 2.410 . S
O430 C419 1.251 . S
O431 Nd400 2.424 . S
O431 C419 1.268 . S
H432 C404 0.930 . S
H433 C405 0.929 . S
H434 C407 0.930 . S
H435 C408 0.929 . S
H436 C413 0.930 . S
H437 C414 0.929 . S
H438 C416 0.930 1_565 S
H439 C417 0.922 1_565 S
Nd440 C442 2.836 1_554 S
Nd440 O460 2.500 . S
Nd440 O461 2.492 . S
Nd440 O462 2.487 . S
Nd440 O463 2.682 . S
Nd440 O464 2.410 . S
Nd440 O469 2.414 . S
Nd440 O471 2.424 . S
Nd441 C451 2.836 . S
Nd441 O463 2.414 . S
Nd441 O465 2.424 . S
Nd441 O466 2.500 . S
Nd441 O467 2.492 . S
Nd441 O468 2.487 . S
Nd441 O469 2.682 . S
Nd441 O470 2.410 . S
C442 Nd440 2.836 1_556 S
C442 C443 1.498 . S
C442 O460 1.258 1_556 S
C442 O461 1.239 1_556 S
C443 C442 1.498 . S
C443 C444 1.366 . S
C443 C448 1.407 . S
C444 C443 1.366 . S
C444 C445 1.392 . S
C444 H472 0.930 . S
C445 C444 1.392 . S
C445 C446 1.398 . S
C445 H473 0.929 . S
C446 C445 1.398 . S
C446 C447 1.352 . S
C447 C446 1.352 . S
C447 C448 1.384 . S
C447 H474 0.930 . S
C448 C443 1.407 . S
C448 C447 1.384 . S
C448 H475 0.929 . S
C449 O462 1.241 . S
C449 O463 1.273 . S
C450 O464 1.251 . S
C450 O465 1.268 . S
C451 Nd441 2.836 . S
C451 C452 1.498 . S
C451 O466 1.258 . S
C451 O467 1.239 . S
C452 C451 1.498 . S
C452 C453 1.366 . S
C452 C457 1.407 . S
C453 C452 1.366 . S
C453 C454 1.392 . S
C453 H476 0.930 . S
C454 C453 1.392 . S
C454 C455 1.398 . S
C454 H477 0.929 . S
C455 C454 1.398 . S
C455 C456 1.352 . S
C456 C455 1.352 . S
C456 C457 1.384 . S
C456 H478 0.930 . S
C457 C452 1.407 . S
C457 C456 1.384 . S
C457 H479 0.929 . S
C458 O468 1.241 . S
C458 O469 1.273 . S
C459 O470 1.251 . S
C459 O471 1.268 . S
O460 Nd440 2.500 . S
O460 C442 1.258 1_554 S
O461 Nd440 2.492 . S
O461 C442 1.239 1_554 S
O462 Nd440 2.487 . S
O462 C449 1.241 . S
O463 Nd440 2.682 . S
O463 Nd441 2.414 . S
O463 C449 1.273 . S
O464 Nd440 2.410 . S
O464 C450 1.251 . S
O465 Nd441 2.424 . S
O465 C450 1.268 . S
O466 Nd441 2.500 . S
O466 C451 1.258 . S
O467 Nd441 2.492 . S
O467 C451 1.239 . S
O468 Nd441 2.487 . S
O468 C458 1.241 . S
O469 Nd440 2.414 . S
O469 Nd441 2.682 . S
O469 C458 1.273 . S
O470 Nd441 2.410 . S
O470 C459 1.251 . S
O471 Nd440 2.424 . S
O471 C459 1.268 . S
H472 C444 0.930 . S
H473 C445 0.929 . S
H474 C447 0.930 . S
H475 C448 0.929 . S
H476 C453 0.930 . S
H477 C454 0.929 . S
H478 C456 0.930 . S
H479 C457 0.929 . S
H480 C492 0.930 . S
H481 C494 0.930 . S
H482 C495 0.930 . S
H483 C499 0.959 . S
H484 C499 0.959 . S
H485 C499 0.961 . S
H486 C500 0.960 . S
H487 C500 0.961 . S
H488 C500 0.959 . S
H489 C503 0.929 . S
H490 C504 0.931 . S
H491 C506 0.930 . S
C492 H480 0.930 . S
C492 C493 1.399 . S
C492 C497 1.399 . S
C493 C492 1.399 . S
C493 C494 1.376 . S
C494 H481 0.930 . S
C494 C493 1.376 . S
C494 C495 1.388 . S
C495 H482 0.930 . S
C495 C494 1.388 . S
C495 C496 1.390 . S
C496 C495 1.390 . S
C496 C497 1.394 . S
C496 C502 1.465 . S
C497 C492 1.399 . S
C497 C496 1.394 . S
C497 C498 1.516 . S
C498 C497 1.516 . S
C498 C499 1.502 . S
C498 C500 1.561 . S
C498 C501 1.526 . S
C499 H483 0.959 . S
C499 H484 0.959 . S
C499 H485 0.961 . S
C499 C498 1.502 . S
C500 H486 0.960 . S
C500 H487 0.961 . S
C500 H488 0.959 . S
C500 C498 1.561 . S
C501 C498 1.526 . S
C501 C502 1.396 . S
C501 C506 1.390 . S
C502 C496 1.465 . S
C502 C501 1.396 . S
C502 C503 1.399 . S
C503 H489 0.929 . S
C503 C502 1.399 . S
C503 C504 1.385 . S
C504 H490 0.931 . S
C504 C503 1.385 . S
C504 C505 1.389 . S
C505 C504 1.389 . S
C505 C506 1.387 . S
C506 H491 0.930 . S
C506 C501 1.390 . S
C506 C505 1.387 . S
H507 C519 0.930 . S
H508 C521 0.930 . S
H509 C522 0.930 . S
H510 C526 0.959 . S
H511 C526 0.959 . S
H512 C526 0.961 . S
H513 C527 0.960 . S
H514 C527 0.961 . S
H515 C527 0.959 . S
H516 C530 0.929 . S
H517 C531 0.931 . S
H518 C533 0.930 . S
C519 H507 0.930 . S
C519 C520 1.399 . S
C519 C524 1.399 . S
C520 C519 1.399 . S
C520 C521 1.376 . S
C521 H508 0.930 . S
C521 C520 1.376 . S
C521 C522 1.388 . S
C522 H509 0.930 . S
C522 C521 1.388 . S
C522 C523 1.390 . S
C523 C522 1.390 . S
C523 C524 1.394 . S
C523 C529 1.465 . S
C524 C519 1.399 . S
C524 C523 1.394 . S
C524 C525 1.516 . S
C525 C524 1.516 . S
C525 C526 1.502 . S
C525 C527 1.561 . S
C525 C528 1.526 . S
C526 H510 0.959 . S
C526 H511 0.959 . S
C526 H512 0.961 . S
C526 C525 1.502 . S
C527 H513 0.960 . S
C527 H514 0.961 . S
C527 H515 0.959 . S
C527 C525 1.561 . S
C528 C525 1.526 . S
C528 C529 1.396 . S
C528 C533 1.390 . S
C529 C523 1.465 . S
C529 C528 1.396 . S
C529 C530 1.399 . S
C530 H516 0.929 . S
C530 C529 1.399 . S
C530 C531 1.385 . S
C531 H517 0.931 . S
C531 C530 1.385 . S
C531 C532 1.389 . S
C532 C531 1.389 . S
C532 C533 1.387 . S
C533 H518 0.930 . S
C533 C528 1.390 . S
C533 C532 1.387 . S
H534 C546 0.930 . S
H535 C548 0.930 . S
H536 C549 0.930 . S
H537 C553 0.959 . S
H538 C553 0.959 . S
H539 C553 0.961 . S
H540 C554 0.960 . S
H541 C554 0.961 . S
H542 C554 0.959 . S
H543 C557 0.929 . S
H544 C558 0.931 . S
H545 C560 0.930 . S
C546 H534 0.930 . S
C546 C547 1.399 . S
C546 C551 1.399 . S
C547 C546 1.399 . S
C547 C548 1.376 . S
C548 H535 0.930 . S
C548 C547 1.376 . S
C548 C549 1.388 . S
C549 H536 0.930 . S
C549 C548 1.388 . S
C549 C550 1.390 . S
C550 C549 1.390 . S
C550 C551 1.394 . S
C550 C556 1.465 . S
C551 C546 1.399 . S
C551 C550 1.394 . S
C551 C552 1.516 . S
C552 C551 1.516 . S
C552 C553 1.502 . S
C552 C554 1.561 . S
C552 C555 1.526 . S
C553 H537 0.959 . S
C553 H538 0.959 . S
C553 H539 0.961 . S
C553 C552 1.502 . S
C554 H540 0.960 . S
C554 H541 0.961 . S
C554 H542 0.959 . S
C554 C552 1.561 . S
C555 C552 1.526 . S
C555 C556 1.396 . S
C555 C560 1.390 . S
C556 C550 1.465 . S
C556 C555 1.396 . S
C556 C557 1.399 . S
C557 H543 0.929 . S
C557 C556 1.399 . S
C557 C558 1.385 . S
C558 H544 0.931 . S
C558 C557 1.385 . S
C558 C559 1.389 . S
C559 C558 1.389 . S
C559 C560 1.387 . S
C560 H545 0.930 . S
C560 C555 1.390 . S
C560 C559 1.387 . S
H561 C573 0.930 . S
H562 C575 0.930 . S
H563 C576 0.930 . S
H564 C580 0.959 . S
H565 C580 0.959 . S
H566 C580 0.961 . S
H567 C581 0.960 . S
H568 C581 0.961 . S
H569 C581 0.959 . S
H570 C584 0.929 . S
H571 C585 0.931 . S
H572 C587 0.930 . S
C573 H561 0.930 . S
C573 C574 1.399 . S
C573 C578 1.399 . S
C574 C573 1.399 . S
C574 C575 1.376 . S
C575 H562 0.930 . S
C575 C574 1.376 . S
C575 C576 1.388 . S
C576 H563 0.930 . S
C576 C575 1.388 . S
C576 C577 1.390 . S
C577 C576 1.390 . S
C577 C578 1.394 . S
C577 C583 1.465 . S
C578 C573 1.399 . S
C578 C577 1.394 . S
C578 C579 1.516 . S
C579 C578 1.516 . S
C579 C580 1.502 . S
C579 C581 1.561 . S
C579 C582 1.526 . S
C580 H564 0.959 . S
C580 H565 0.959 . S
C580 H566 0.961 . S
C580 C579 1.502 . S
C581 H567 0.960 . S
C581 H568 0.961 . S
C581 H569 0.959 . S
C581 C579 1.561 . S
C582 C579 1.526 . S
C582 C583 1.396 . S
C582 C587 1.390 . S
C583 C577 1.465 . S
C583 C582 1.396 . S
C583 C584 1.399 . S
C584 H570 0.929 . S
C584 C583 1.399 . S
C584 C585 1.385 . S
C585 H571 0.931 . S
C585 C584 1.385 . S
C585 C586 1.389 . S
C586 C585 1.389 . S
C586 C587 1.387 . S
C587 H572 0.930 . S
C587 C582 1.390 . S
C587 C586 1.387 . S
H588 C600 0.930 . S
H589 C602 0.930 . S
H590 C603 0.930 . S
H591 C607 0.959 . S
H592 C607 0.959 . S
H593 C607 0.961 . S
H594 C608 0.960 . S
H595 C608 0.961 . S
H596 C608 0.959 . S
H597 C611 0.929 . S
H598 C612 0.931 . S
H599 C614 0.930 . S
C600 H588 0.930 . S
C600 C601 1.399 . S
C600 C605 1.399 . S
C601 C600 1.399 . S
C601 C602 1.376 . S
C602 H589 0.930 . S
C602 C601 1.376 . S
C602 C603 1.388 . S
C603 H590 0.930 . S
C603 C602 1.388 . S
C603 C604 1.390 . S
C604 C603 1.390 . S
C604 C605 1.394 . S
C604 C610 1.465 . S
C605 C600 1.399 . S
C605 C604 1.394 . S
C605 C606 1.516 . S
C606 C605 1.516 . S
C606 C607 1.502 . S
C606 C608 1.561 . S
C606 C609 1.526 . S
C607 H591 0.959 . S
C607 H592 0.959 . S
C607 H593 0.961 . S
C607 C606 1.502 . S
C608 H594 0.960 . S
C608 H595 0.961 . S
C608 H596 0.959 . S
C608 C606 1.561 . S
C609 C606 1.526 . S
C609 C610 1.396 . S
C609 C614 1.390 . S
C610 C604 1.465 . S
C610 C609 1.396 . S
C610 C611 1.399 . S
C611 H597 0.929 . S
C611 C610 1.399 . S
C611 C612 1.385 . S
C612 H598 0.931 . S
C612 C611 1.385 . S
C612 C613 1.389 . S
C613 C612 1.389 . S
C613 C614 1.387 . S
C614 H599 0.930 . S
C614 C609 1.390 . S
C614 C613 1.387 . S
H615 C627 0.930 . S
H616 C629 0.930 . S
H617 C630 0.930 . S
H618 C634 0.959 . S
H619 C634 0.959 . S
H620 C634 0.961 . S
H621 C635 0.960 . S
H622 C635 0.961 . S
H623 C635 0.959 . S
H624 C638 0.929 . S
H625 C639 0.931 . S
H626 C641 0.930 . S
C627 H615 0.930 . S
C627 C628 1.399 . S
C627 C632 1.399 . S
C628 C627 1.399 . S
C628 C629 1.376 . S
C629 H616 0.930 . S
C629 C628 1.376 . S
C629 C630 1.388 . S
C630 H617 0.930 . S
C630 C629 1.388 . S
C630 C631 1.390 . S
C631 C630 1.390 . S
C631 C632 1.394 . S
C631 C637 1.465 . S
C632 C627 1.399 . S
C632 C631 1.394 . S
C632 C633 1.516 . S
C633 C632 1.516 . S
C633 C634 1.502 . S
C633 C635 1.561 . S
C633 C636 1.526 . S
C634 H618 0.959 . S
C634 H619 0.959 . S
C634 H620 0.961 . S
C634 C633 1.502 . S
C635 H621 0.960 . S
C635 H622 0.961 . S
C635 H623 0.959 . S
C635 C633 1.561 . S
C636 C633 1.526 . S
C636 C637 1.396 . S
C636 C641 1.390 . S
C637 C631 1.465 . S
C637 C636 1.396 . S
C637 C638 1.399 . S
C638 H624 0.929 . S
C638 C637 1.399 . S
C638 C639 1.385 . S
C639 H625 0.931 . S
C639 C638 1.385 . S
C639 C640 1.389 . S
C640 C639 1.389 . S
C640 C641 1.387 . S
C641 H626 0.930 . S
C641 C636 1.390 . S
C641 C640 1.387 . S
H642 C654 0.930 . S
H643 C656 0.930 . S
H644 C657 0.930 . S
H645 C661 0.959 . S
H646 C661 0.959 . S
H647 C661 0.961 . S
H648 C662 0.960 . S
H649 C662 0.961 1_554 S
H650 C662 0.959 . S
H651 C665 0.929 . S
H652 C666 0.931 . S
H653 C668 0.930 . S
C654 H642 0.930 . S
C654 C655 1.399 . S
C654 C659 1.399 . S
C655 C654 1.399 . S
C655 C656 1.376 . S
C656 H643 0.930 . S
C656 C655 1.376 . S
C656 C657 1.388 . S
C657 H644 0.930 . S
C657 C656 1.388 . S
C657 C658 1.390 . S
C658 C657 1.390 . S
C658 C659 1.394 . S
C658 C664 1.465 1_556 S
C659 C654 1.399 . S
C659 C658 1.394 . S
C659 C660 1.516 1_556 S
C660 C659 1.516 1_554 S
C660 C661 1.502 . S
C660 C662 1.561 1_554 S
C660 C663 1.526 . S
C661 H645 0.959 . S
C661 H646 0.959 . S
C661 H647 0.961 . S
C661 C660 1.502 . S
C662 H648 0.960 . S
C662 H649 0.961 1_556 S
C662 H650 0.959 . S
C662 C660 1.561 1_556 S
C663 C660 1.526 . S
C663 C664 1.396 . S
C663 C668 1.390 . S
C664 C658 1.465 1_554 S
C664 C663 1.396 . S
C664 C665 1.399 . S
C665 H651 0.929 . S
C665 C664 1.399 . S
C665 C666 1.385 . S
C666 H652 0.931 . S
C666 C665 1.385 . S
C666 C667 1.389 . S
C667 C666 1.389 . S
C667 C668 1.387 . S
C668 H653 0.930 . S
C668 C663 1.390 . S
C668 C667 1.387 . S
H669 C681 0.930 . S
H670 C683 0.930 . S
H671 C684 0.930 . S
H672 C688 0.959 . S
H673 C688 0.959 . S
H674 C688 0.961 . S
H675 C689 0.960 . S
H676 C689 0.961 . S
H677 C689 0.959 . S
H678 C692 0.929 . S
H679 C693 0.931 . S
H680 C695 0.930 . S
C681 H669 0.930 . S
C681 C682 1.399 . S
C681 C686 1.399 . S
C682 C681 1.399 . S
C682 C683 1.376 . S
C683 H670 0.930 . S
C683 C682 1.376 . S
C683 C684 1.388 . S
C684 H671 0.930 . S
C684 C683 1.388 . S
C684 C685 1.390 . S
C685 C684 1.390 . S
C685 C686 1.394 . S
C685 C691 1.465 . S
C686 C681 1.399 . S
C686 C685 1.394 . S
C686 C687 1.516 . S
C687 C686 1.516 . S
C687 C688 1.502 . S
C687 C689 1.561 . S
C687 C690 1.526 . S
C688 H672 0.959 . S
C688 H673 0.959 . S
C688 H674 0.961 . S
C688 C687 1.502 . S
C689 H675 0.960 . S
C689 H676 0.961 . S
C689 H677 0.959 . S
C689 C687 1.561 . S
C690 C687 1.526 . S
C690 C691 1.396 . S
C690 C695 1.390 . S
C691 C685 1.465 . S
C691 C690 1.396 . S
C691 C692 1.399 . S
C692 H678 0.929 . S
C692 C691 1.399 . S
C692 C693 1.385 . S
C693 H679 0.931 . S
C693 C692 1.385 . S
C693 C694 1.389 . S
C694 C693 1.389 . S
C694 C695 1.387 . S
C695 H680 0.930 . S
C695 C690 1.390 . S
C695 C694 1.387 . S
H696 C708 0.930 . S
H697 C710 0.930 . S
H698 C711 0.930 . S
H699 C715 0.959 . S
H700 C715 0.959 . S
H701 C715 0.961 . S
H702 C716 0.960 . S
H703 C716 0.961 . S
H704 C716 0.959 . S
H705 C719 0.929 . S
H706 C720 0.931 . S
H707 C722 0.930 . S
C708 H696 0.930 . S
C708 C709 1.399 . S
C708 C713 1.399 . S
C709 C708 1.399 . S
C709 C710 1.376 . S
C710 H697 0.930 . S
C710 C709 1.376 . S
C710 C711 1.388 . S
C711 H698 0.930 . S
C711 C710 1.388 . S
C711 C712 1.390 . S
C712 C711 1.390 . S
C712 C713 1.394 . S
C712 C718 1.465 . S
C713 C708 1.399 . S
C713 C712 1.394 . S
C713 C714 1.516 . S
C714 C713 1.516 . S
C714 C715 1.502 . S
C714 C716 1.561 . S
C714 C717 1.526 . S
C715 H699 0.959 . S
C715 H700 0.959 . S
C715 H701 0.961 . S
C715 C714 1.502 . S
C716 H702 0.960 . S
C716 H703 0.961 . S
C716 H704 0.959 . S
C716 C714 1.561 . S
C717 C714 1.526 . S
C717 C718 1.396 . S
C717 C722 1.390 . S
C718 C712 1.465 . S
C718 C717 1.396 . S
C718 C719 1.399 . S
C719 H705 0.929 . S
C719 C718 1.399 . S
C719 C720 1.385 . S
C720 H706 0.931 . S
C720 C719 1.385 . S
C720 C721 1.389 . S
C721 C720 1.389 . S
C721 C722 1.387 . S
C722 H707 0.930 . S
C722 C717 1.390 . S
C722 C721 1.387 . S
H723 C735 0.930 . S
H724 C737 0.930 . S
H725 C738 0.930 . S
H726 C742 0.959 . S
H727 C742 0.959 . S
H728 C742 0.961 . S
H729 C743 0.960 . S
H730 C743 0.961 . S
H731 C743 0.959 . S
H732 C746 0.929 1_556 S
H733 C747 0.931 . S
H734 C749 0.930 . S
C735 H723 0.930 . S
C735 C736 1.399 . S
C735 C740 1.399 . S
C736 C735 1.399 . S
C736 C737 1.376 . S
C737 H724 0.930 . S
C737 C736 1.376 . S
C737 C738 1.388 . S
C738 H725 0.930 . S
C738 C737 1.388 . S
C738 C739 1.390 . S
C739 C738 1.390 . S
C739 C740 1.394 . S
C739 C745 1.465 1_556 S
C740 C735 1.399 . S
C740 C739 1.394 . S
C740 C741 1.516 1_556 S
C741 C740 1.516 1_554 S
C741 C742 1.502 . S
C741 C743 1.561 . S
C741 C744 1.526 . S
C742 H726 0.959 . S
C742 H727 0.959 . S
C742 H728 0.961 . S
C742 C741 1.502 . S
C743 H729 0.960 . S
C743 H730 0.961 . S
C743 H731 0.959 . S
C743 C741 1.561 . S
C744 C741 1.526 . S
C744 C745 1.396 . S
C744 C749 1.390 . S
C745 C739 1.465 1_554 S
C745 C744 1.396 . S
C745 C746 1.399 . S
C746 H732 0.929 1_554 S
C746 C745 1.399 . S
C746 C747 1.385 . S
C747 H733 0.931 . S
C747 C746 1.385 . S
C747 C748 1.389 . S
C748 C747 1.389 . S
C748 C749 1.387 . S
C749 H734 0.930 . S
C749 C744 1.390 . S
C749 C748 1.387 . S
H750 C762 0.930 . S
H751 C764 0.930 . S
H752 C765 0.930 . S
H753 C769 0.959 . S
H754 C769 0.959 . S
H755 C769 0.961 . S
H756 C770 0.960 . S
H757 C770 0.961 . S
H758 C770 0.959 . S
H759 C773 0.929 . S
H760 C774 0.931 . S
H761 C776 0.930 . S
C762 H750 0.930 . S
C762 C763 1.399 . S
C762 C767 1.399 . S
C763 C762 1.399 . S
C763 C764 1.376 . S
C764 H751 0.930 . S
C764 C763 1.376 . S
C764 C765 1.388 . S
C765 H752 0.930 . S
C765 C764 1.388 . S
C765 C766 1.390 . S
C766 C765 1.390 . S
C766 C767 1.394 . S
C766 C772 1.465 . S
C767 C762 1.399 . S
C767 C766 1.394 . S
C767 C768 1.516 . S
C768 C767 1.516 . S
C768 C769 1.502 . S
C768 C770 1.561 . S
C768 C771 1.526 . S
C769 H753 0.959 . S
C769 H754 0.959 . S
C769 H755 0.961 . S
C769 C768 1.502 . S
C770 H756 0.960 . S
C770 H757 0.961 . S
C770 H758 0.959 . S
C770 C768 1.561 . S
C771 C768 1.526 . S
C771 C772 1.396 . S
C771 C776 1.390 . S
C772 C766 1.465 . S
C772 C771 1.396 . S
C772 C773 1.399 . S
C773 H759 0.929 . S
C773 C772 1.399 . S
C773 C774 1.385 . S
C774 H760 0.931 . S
C774 C773 1.385 . S
C774 C775 1.389 . S
C775 C774 1.389 . S
C775 C776 1.387 . S
C776 H761 0.930 . S
C776 C771 1.390 . S
C776 C775 1.387 . S
H777 C789 0.930 . S
H778 C791 0.930 . S
H779 C792 0.930 . S
H780 C796 0.959 . S
H781 C796 0.959 . S
H782 C796 0.961 . S
H783 C797 0.960 . S
H784 C797 0.961 . S
H785 C797 0.959 . S
H786 C800 0.929 . S
H787 C801 0.931 . S
H788 C803 0.930 . S
C789 H777 0.930 . S
C789 C790 1.399 . S
C789 C794 1.399 . S
C790 C789 1.399 . S
C790 C791 1.376 . S
C791 H778 0.930 . S
C791 C790 1.376 . S
C791 C792 1.388 . S
C792 H779 0.930 . S
C792 C791 1.388 . S
C792 C793 1.390 . S
C793 C792 1.390 . S
C793 C794 1.394 . S
C793 C799 1.465 . S
C794 C789 1.399 . S
C794 C793 1.394 . S
C794 C795 1.516 . S
C795 C794 1.516 . S
C795 C796 1.502 . S
C795 C797 1.561 . S
C795 C798 1.526 . S
C796 H780 0.959 . S
C796 H781 0.959 . S
C796 H782 0.961 . S
C796 C795 1.502 . S
C797 H783 0.960 . S
C797 H784 0.961 . S
C797 H785 0.959 . S
C797 C795 1.561 . S
C798 C795 1.526 . S
C798 C799 1.396 . S
C798 C803 1.390 . S
C799 C793 1.465 . S
C799 C798 1.396 . S
C799 C800 1.399 . S
C800 H786 0.929 . S
C800 C799 1.399 . S
C800 C801 1.385 . S
C801 H787 0.931 . S
C801 C800 1.385 . S
C801 C802 1.389 . S
C802 C801 1.389 . S
C802 C803 1.387 . S
C803 H788 0.930 . S
C803 C798 1.390 . S
C803 C802 1.387 . S
H804 C816 0.930 . S
H805 C818 0.930 . S
H806 C819 0.930 . S
H807 C823 0.959 . S
H808 C823 0.959 . S
H809 C823 0.961 . S
H810 C824 0.960 . S
H811 C824 0.961 . S
H812 C824 0.959 . S
H813 C827 0.929 1_565 S
H814 C828 0.931 . S
H815 C830 0.930 . S
C816 H804 0.930 . S
C816 C817 1.399 . S
C816 C821 1.399 . S
C817 C816 1.399 . S
C817 C818 1.376 . S
C818 H805 0.930 . S
C818 C817 1.376 . S
C818 C819 1.388 1_556 S
C819 H806 0.930 . S
C819 C818 1.388 1_554 S
C819 C820 1.390 1_554 S
C820 C819 1.390 1_556 S
C820 C821 1.395 . S
C820 C826 1.464 1_566 S
C821 C816 1.399 . S
C821 C820 1.395 . S
C821 C822 1.516 1_565 S
C822 C821 1.516 1_545 S
C822 C823 1.502 . S
C822 C824 1.561 . S
C822 C825 1.526 1_556 S
C823 H807 0.959 . S
C823 H808 0.959 . S
C823 H809 0.961 . S
C823 C822 1.502 . S
C824 H810 0.960 . S
C824 H811 0.961 . S
C824 H812 0.959 . S
C824 C822 1.561 . S
C825 C822 1.526 1_554 S
C825 C826 1.396 . S
C825 C830 1.390 . S
C826 C820 1.464 1_544 S
C826 C825 1.396 . S
C826 C827 1.399 . S
C827 H813 0.929 1_545 S
C827 C826 1.399 . S
C827 C828 1.385 . S
C828 H814 0.931 . S
C828 C827 1.385 . S
C828 C829 1.389 . S
C829 C828 1.389 . S
C829 C830 1.387 . S
C830 H815 0.930 . S
C830 C825 1.390 . S
C830 C829 1.387 . S
H831 C843 0.930 . S
H832 C845 0.930 . S
H833 C846 0.930 . S
H834 C850 0.959 . S
H835 C850 0.959 . S
H836 C850 0.961 . S
H837 C851 0.960 . S
H838 C851 0.961 . S
H839 C851 0.959 . S
H840 C854 0.929 . S
H841 C855 0.931 . S
H842 C857 0.930 . S
C843 H831 0.930 . S
C843 C844 1.399 . S
C843 C848 1.399 . S
C844 C843 1.399 . S
C844 C845 1.376 . S
C845 H832 0.930 . S
C845 C844 1.376 . S
C845 C846 1.388 . S
C846 H833 0.930 . S
C846 C845 1.388 . S
C846 C847 1.390 . S
C847 C846 1.390 . S
C847 C848 1.394 . S
C847 C853 1.465 . S
C848 C843 1.399 . S
C848 C847 1.394 . S
C848 C849 1.516 . S
C849 C848 1.516 . S
C849 C850 1.502 . S
C849 C851 1.561 . S
C849 C852 1.526 . S
C850 H834 0.959 . S
C850 H835 0.959 . S
C850 H836 0.961 . S
C850 C849 1.502 . S
C851 H837 0.960 . S
C851 H838 0.961 . S
C851 H839 0.959 . S
C851 C849 1.561 . S
C852 C849 1.526 . S
C852 C853 1.396 . S
C852 C857 1.390 . S
C853 C847 1.465 . S
C853 C852 1.396 . S
C853 C854 1.399 . S
C854 H840 0.929 . S
C854 C853 1.399 . S
C854 C855 1.385 . S
C855 H841 0.931 . S
C855 C854 1.385 . S
C855 C856 1.389 . S
C856 C855 1.389 . S
C856 C857 1.387 . S
C857 H842 0.930 . S
C857 C852 1.390 . S
C857 C856 1.387 . S
H858 C870 0.930 . S
H859 C872 0.930 . S
H860 C873 0.930 . S
H861 C877 0.959 . S
H862 C877 0.959 . S
H863 C877 0.961 . S
H864 C878 0.960 . S
H865 C878 0.961 . S
H866 C878 0.959 1_455 S
H867 C881 0.929 1_455 S
H868 C882 0.931 . S
H869 C884 0.930 . S
C870 H858 0.930 . S
C870 C871 1.399 . S
C870 C875 1.399 . S
C871 C870 1.399 . S
C871 C872 1.376 . S
C872 H859 0.930 . S
C872 C871 1.376 . S
C872 C873 1.388 . S
C873 H860 0.930 . S
C873 C872 1.388 . S
C873 C874 1.390 . S
C874 C873 1.390 . S
C874 C875 1.394 . S
C874 C880 1.465 1_455 S
C875 C870 1.399 . S
C875 C874 1.394 . S
C875 C876 1.516 1_455 S
C876 C875 1.516 1_655 S
C876 C877 1.502 . S
C876 C878 1.561 . S
C876 C879 1.526 . S
C877 H861 0.959 . S
C877 H862 0.959 . S
C877 H863 0.961 . S
C877 C876 1.502 . S
C878 H864 0.960 . S
C878 H865 0.961 . S
C878 H866 0.959 1_655 S
C878 C876 1.561 . S
C879 C876 1.526 . S
C879 C880 1.396 . S
C879 C884 1.390 . S
C880 C874 1.465 1_655 S
C880 C879 1.396 . S
C880 C881 1.399 . S
C881 H867 0.929 1_655 S
C881 C880 1.399 . S
C881 C882 1.385 . S
C882 H868 0.931 . S
C882 C881 1.385 . S
C882 C883 1.389 . S
C883 C882 1.389 . S
C883 C884 1.387 . S
C884 H869 0.930 . S
C884 C879 1.390 . S
C884 C883 1.387 . S
H885 C897 0.930 . S
H886 C899 0.930 . S
H887 C900 0.933 1_556 S
H888 C904 0.959 . S
H889 C904 0.959 . S
H890 C904 0.961 . S
H891 C905 0.960 . S
H892 C905 0.961 . S
H893 C905 0.959 . S
H894 C908 0.929 1_565 S
H895 C909 0.931 . S
H896 C911 0.930 . S
C897 H885 0.930 . S
C897 C898 1.399 . S
C897 C902 1.399 . S
C898 C897 1.399 . S
C898 C899 1.376 . S
C899 H886 0.930 . S
C899 C898 1.376 . S
C899 C900 1.386 . S
C900 H887 0.933 1_554 S
C900 C899 1.386 . S
C900 C901 1.390 . S
C901 C900 1.390 . S
C901 C902 1.394 . S
C901 C907 1.465 1_564 S
C902 C897 1.399 . S
C902 C901 1.394 . S
C902 C903 1.516 1_565 S
C903 C902 1.516 1_545 S
C903 C904 1.502 . S
C903 C905 1.561 . S
C903 C906 1.526 1_554 S
C904 H888 0.959 . S
C904 H889 0.959 . S
C904 H890 0.961 . S
C904 C903 1.502 . S
C905 H891 0.960 . S
C905 H892 0.961 . S
C905 H893 0.959 . S
C905 C903 1.561 . S
C906 C903 1.526 1_556 S
C906 C907 1.396 . S
C906 C911 1.390 . S
C907 C901 1.465 1_546 S
C907 C906 1.396 . S
C907 C908 1.399 . S
C908 H894 0.929 1_545 S
C908 C907 1.399 . S
C908 C909 1.385 . S
C909 H895 0.931 . S
C909 C908 1.385 . S
C909 C910 1.389 . S
C910 C909 1.389 . S
C910 C911 1.387 . S
C911 H896 0.930 . S
C911 C906 1.390 . S
C911 C910 1.387 . S
H912 C924 0.930 . S
H913 C926 0.930 . S
H914 C927 0.930 . S
H915 C931 0.959 . S
H916 C931 0.959 . S
H917 C931 0.961 . S
H918 C932 0.960 . S
H919 C932 0.961 . S
H920 C932 0.959 . S
H921 C935 0.929 . S
H922 C936 0.931 . S
H923 C938 0.930 . S
C924 H912 0.930 . S
C924 C925 1.399 . S
C924 C929 1.399 . S
C925 C924 1.399 . S
C925 C926 1.376 . S
C926 H913 0.930 . S
C926 C925 1.376 . S
C926 C927 1.388 . S
C927 H914 0.930 . S
C927 C926 1.388 . S
C927 C928 1.390 . S
C928 C927 1.390 . S
C928 C929 1.394 . S
C928 C934 1.465 . S
C929 C924 1.399 . S
C929 C928 1.394 . S
C929 C930 1.516 . S
C930 C929 1.516 . S
C930 C931 1.502 . S
C930 C932 1.561 . S
C930 C933 1.526 . S
C931 H915 0.959 . S
C931 H916 0.959 . S
C931 H917 0.961 . S
C931 C930 1.502 . S
C932 H918 0.960 . S
C932 H919 0.961 . S
C932 H920 0.959 . S
C932 C930 1.561 . S
C933 C930 1.526 . S
C933 C934 1.396 . S
C933 C938 1.390 . S
C934 C928 1.465 . S
C934 C933 1.396 . S
C934 C935 1.399 . S
C935 H921 0.929 . S
C935 C934 1.399 . S
C935 C936 1.385 . S
C936 H922 0.931 . S
C936 C935 1.385 . S
C936 C937 1.389 . S
C937 C936 1.389 . S
C937 C938 1.387 . S
C938 H923 0.930 . S
C938 C933 1.390 . S
C938 C937 1.387 . S
H939 C951 0.930 . S
H940 C953 0.930 . S
H941 C954 0.930 . S
H942 C958 0.959 . S
H943 C958 0.959 1_655 S
H944 C958 0.961 . S
H945 C959 0.960 . S
H946 C959 0.961 . S
H947 C959 0.959 . S
H948 C962 0.929 . S
H949 C963 0.931 . S
H950 C965 0.930 . S
C951 H939 0.930 . S
C951 C952 1.399 . S
C951 C956 1.399 . S
C952 C951 1.399 . S
C952 C953 1.376 . S
C953 H940 0.930 . S
C953 C952 1.376 . S
C953 C954 1.388 . S
C954 H941 0.930 . S
C954 C953 1.388 . S
C954 C955 1.390 . S
C955 C954 1.390 . S
C955 C956 1.394 . S
C955 C961 1.465 1_455 S
C956 C951 1.399 . S
C956 C955 1.394 . S
C956 C957 1.516 1_455 S
C957 C956 1.516 1_655 S
C957 C958 1.502 1_655 S
C957 C959 1.561 . S
C957 C960 1.526 . S
C958 H942 0.959 . S
C958 H943 0.959 1_455 S
C958 H944 0.961 . S
C958 C957 1.502 1_455 S
C959 H945 0.960 . S
C959 H946 0.961 . S
C959 H947 0.959 . S
C959 C957 1.561 . S
C960 C957 1.526 . S
C960 C961 1.396 . S
C960 C965 1.390 . S
C961 C955 1.465 1_655 S
C961 C960 1.396 . S
C961 C962 1.399 . S
C962 H948 0.929 . S
C962 C961 1.399 . S
C962 C963 1.385 . S
C963 H949 0.931 . S
C963 C962 1.385 . S
C963 C964 1.389 . S
C964 C963 1.389 . S
C964 C965 1.387 . S
C965 H950 0.930 . S
C965 C960 1.390 . S
C965 C964 1.387 . S
H966 C978 0.930 . S
H967 C980 0.930 . S
H968 C981 0.930 . S
H969 C985 0.959 . S
H970 C985 0.959 . S
H971 C985 0.961 . S
H972 C986 0.962 1_545 S
H973 C986 0.959 . S
H974 C986 0.960 1_545 S
H975 C989 0.928 1_545 S
H976 C990 0.931 . S
H977 C992 0.930 . S
C978 H966 0.930 . S
C978 C979 1.399 . S
C978 C983 1.399 . S
C979 C978 1.399 . S
C979 C980 1.376 . S
C980 H967 0.930 . S
C980 C979 1.376 . S
C980 C981 1.388 . S
C981 H968 0.930 . S
C981 C980 1.388 . S
C981 C982 1.390 . S
C982 C981 1.390 . S
C982 C983 1.394 . S
C982 C988 1.469 . S
C983 C978 1.399 . S
C983 C982 1.394 . S
C983 C984 1.516 1_545 S
C984 C983 1.516 1_565 S
C984 C985 1.502 . S
C984 C986 1.561 . S
C984 C987 1.526 . S
C985 H969 0.959 . S
C985 H970 0.959 . S
C985 H971 0.961 . S
C985 C984 1.502 . S
C986 H972 0.962 1_565 S
C986 H973 0.959 . S
C986 H974 0.960 1_565 S
C986 C984 1.561 . S
C987 C984 1.526 . S
C987 C988 1.394 1_565 S
C987 C992 1.390 . S
C988 C982 1.469 . S
C988 C987 1.394 1_545 S
C988 C989 1.396 1_545 S
C989 H975 0.928 1_565 S
C989 C988 1.396 1_565 S
C989 C990 1.387 . S
C990 H976 0.931 . S
C990 C989 1.387 . S
C990 C991 1.389 . S
C991 C990 1.389 . S
C991 C992 1.387 . S
C992 H977 0.930 . S
C992 C987 1.390 . S
C992 C991 1.387 . S
H993 C1005 0.930 . S
H994 C1007 0.930 . S
H995 C1008 0.930 . S
H996 C1012 0.959 . S
H997 C1012 0.959 . S
H998 C1012 0.961 . S
H999 C1013 0.960 . S
H1000 C1013 0.961 . S
H1001 C1013 0.959 . S
H1002 C1016 0.929 . S
H1003 C1017 0.931 . S
H1004 C1019 0.930 . S
C1005 H993 0.930 . S
C1005 C1006 1.399 . S
C1005 C1010 1.399 . S
C1006 C1005 1.399 . S
C1006 C1007 1.376 . S
C1007 H994 0.930 . S
C1007 C1006 1.376 . S
C1007 C1008 1.388 . S
C1008 H995 0.930 . S
C1008 C1007 1.388 . S
C1008 C1009 1.390 . S
C1009 C1008 1.390 . S
C1009 C1010 1.394 . S
C1009 C1015 1.465 . S
C1010 C1005 1.399 . S
C1010 C1009 1.394 . S
C1010 C1011 1.516 . S
C1011 C1010 1.516 . S
C1011 C1012 1.502 . S
C1011 C1013 1.561 . S
C1011 C1014 1.526 . S
C1012 H996 0.959 . S
C1012 H997 0.959 . S
C1012 H998 0.961 . S
C1012 C1011 1.502 . S
C1013 H999 0.960 . S
C1013 H1000 0.961 . S
C1013 H1001 0.959 . S
C1013 C1011 1.561 . S
C1014 C1011 1.526 . S
C1014 C1015 1.396 . S
C1014 C1019 1.390 . S
C1015 C1009 1.465 . S
C1015 C1014 1.396 . S
C1015 C1016 1.399 . S
C1016 H1002 0.929 . S
C1016 C1015 1.399 . S
C1016 C1017 1.385 . S
C1017 H1003 0.931 . S
C1017 C1016 1.385 . S
C1017 C1018 1.389 . S
C1018 C1017 1.389 . S
C1018 C1019 1.387 . S
C1019 H1004 0.930 . S
C1019 C1014 1.390 . S
C1019 C1018 1.387 . S
H1020 C1032 0.930 . S
H1021 C1034 0.930 . S
H1022 C1035 0.930 . S
H1023 C1039 0.959 . S
H1024 C1039 0.959 . S
H1025 C1039 0.961 . S
H1026 C1040 0.960 . S
H1027 C1040 0.961 . S
H1028 C1040 0.959 . S
H1029 C1043 0.929 . S
H1030 C1044 0.931 . S
H1031 C1046 0.930 . S
C1032 H1020 0.930 . S
C1032 C1033 1.399 . S
C1032 C1037 1.399 . S
C1033 C1032 1.399 . S
C1033 C1034 1.376 . S
C1034 H1021 0.930 . S
C1034 C1033 1.376 . S
C1034 C1035 1.388 . S
C1035 H1022 0.930 . S
C1035 C1034 1.388 . S
C1035 C1036 1.390 . S
C1036 C1035 1.390 . S
C1036 C1037 1.394 . S
C1036 C1042 1.465 . S
C1037 C1032 1.399 . S
C1037 C1036 1.394 . S
C1037 C1038 1.516 1_655 S
C1038 C1037 1.516 1_455 S
C1038 C1039 1.502 . S
C1038 C1040 1.561 . S
C1038 C1041 1.526 . S
C1039 H1023 0.959 . S
C1039 H1024 0.959 . S
C1039 H1025 0.961 . S
C1039 C1038 1.502 . S
C1040 H1026 0.960 . S
C1040 H1027 0.961 . S
C1040 H1028 0.959 . S
C1040 C1038 1.561 . S
C1041 C1038 1.526 . S
C1041 C1042 1.396 1_455 S
C1041 C1046 1.390 . S
C1042 C1036 1.465 . S
C1042 C1041 1.396 1_655 S
C1042 C1043 1.399 . S
C1043 H1029 0.929 . S
C1043 C1042 1.399 . S
C1043 C1044 1.385 1_655 S
C1044 H1030 0.931 . S
C1044 C1043 1.385 1_455 S
C1044 C1045 1.389 . S
C1045 C1044 1.389 . S
C1045 C1046 1.387 . S
C1046 H1031 0.930 . S
C1046 C1041 1.390 . S
C1046 C1045 1.387 . S
H1047 C1059 0.930 . S
H1048 C1061 0.930 . S
H1049 C1062 0.930 . S
H1050 C1066 0.959 . S
H1051 C1066 0.959 . S
H1052 C1066 0.961 . S
H1053 C1067 0.960 . S
H1054 C1067 0.961 . S
H1055 C1067 0.959 . S
H1056 C1070 0.929 . S
H1057 C1071 0.931 . S
H1058 C1073 0.930 . S
C1059 H1047 0.930 . S
C1059 C1060 1.399 . S
C1059 C1064 1.399 . S
C1060 C1059 1.399 . S
C1060 C1061 1.376 . S
C1061 H1048 0.930 . S
C1061 C1060 1.376 . S
C1061 C1062 1.388 . S
C1062 H1049 0.930 . S
C1062 C1061 1.388 . S
C1062 C1063 1.390 . S
C1063 C1062 1.390 . S
C1063 C1064 1.394 . S
C1063 C1069 1.465 1_455 S
C1064 C1059 1.399 . S
C1064 C1063 1.394 . S
C1064 C1065 1.516 . S
C1065 C1064 1.516 . S
C1065 C1066 1.502 1_455 S
C1065 C1067 1.561 . S
C1065 C1068 1.526 1_455 S
C1066 H1050 0.959 . S
C1066 H1051 0.959 . S
C1066 H1052 0.961 . S
C1066 C1065 1.502 1_655 S
C1067 H1053 0.960 . S
C1067 H1054 0.961 . S
C1067 H1055 0.959 . S
C1067 C1065 1.561 . S
C1068 C1065 1.526 1_655 S
C1068 C1069 1.396 . S
C1068 C1073 1.390 . S
C1069 C1063 1.465 1_655 S
C1069 C1068 1.396 . S
C1069 C1070 1.399 . S
C1070 H1056 0.929 . S
C1070 C1069 1.399 . S
C1070 C1071 1.385 . S
C1071 H1057 0.931 . S
C1071 C1070 1.385 . S
C1071 C1072 1.389 . S
C1072 C1071 1.389 . S
C1072 C1073 1.387 . S
C1073 H1058 0.930 . S
C1073 C1068 1.390 . S
C1073 C1072 1.387 . S
H1074 C1086 0.930 . S
H1075 C1088 0.930 . S
H1076 C1089 0.930 1_545 S
H1077 C1093 0.959 . S
H1078 C1093 0.959 . S
H1079 C1093 0.961 . S
H1080 C1094 0.960 1_565 S
H1081 C1094 0.961 . S
H1082 C1094 0.959 . S
H1083 C1097 0.929 . S
H1084 C1098 0.931 . S
H1085 C1100 0.930 . S
C1086 H1074 0.930 . S
C1086 C1087 1.399 . S
C1086 C1091 1.399 . S
C1087 C1086 1.399 . S
C1087 C1088 1.376 . S
C1088 H1075 0.930 . S
C1088 C1087 1.376 . S
C1088 C1089 1.388 . S
C1089 H1076 0.930 1_565 S
C1089 C1088 1.388 . S
C1089 C1090 1.389 . S
C1090 C1089 1.389 . S
C1090 C1091 1.396 . S
C1090 C1096 1.465 1_565 S
C1091 C1086 1.399 . S
C1091 C1090 1.396 . S
C1091 C1092 1.516 . S
C1092 C1091 1.516 . S
C1092 C1093 1.502 . S
C1092 C1094 1.561 1_565 S
C1092 C1095 1.526 1_565 S
C1093 H1077 0.959 . S
C1093 H1078 0.959 . S
C1093 H1079 0.961 . S
C1093 C1092 1.502 . S
C1094 H1080 0.960 1_545 S
C1094 H1081 0.961 . S
C1094 H1082 0.959 . S
C1094 C1092 1.561 1_545 S
C1095 C1092 1.526 1_545 S
C1095 C1096 1.396 . S
C1095 C1100 1.390 . S
C1096 C1090 1.465 1_545 S
C1096 C1095 1.396 . S
C1096 C1097 1.399 . S
C1097 H1083 0.929 . S
C1097 C1096 1.399 . S
C1097 C1098 1.385 . S
C1098 H1084 0.931 . S
C1098 C1097 1.385 . S
C1098 C1099 1.389 . S
C1099 C1098 1.389 . S
C1099 C1100 1.387 . S
C1100 H1085 0.930 . S
C1100 C1095 1.390 . S
C1100 C1099 1.387 . S
H1101 C1113 0.930 . S
H1102 C1115 0.930 . S
H1103 C1116 0.930 . S
H1104 C1120 0.959 . S
H1105 C1120 0.959 . S
H1106 C1120 0.961 . S
H1107 C1121 0.960 . S
H1108 C1121 0.961 . S
H1109 C1121 0.959 . S
H1110 C1124 0.929 . S
H1111 C1125 0.931 . S
H1112 C1127 0.930 . S
C1113 H1101 0.930 . S
C1113 C1114 1.399 . S
C1113 C1118 1.399 . S
C1114 C1113 1.399 . S
C1114 C1115 1.376 . S
C1115 H1102 0.930 . S
C1115 C1114 1.376 . S
C1115 C1116 1.388 . S
C1116 H1103 0.930 . S
C1116 C1115 1.388 . S
C1116 C1117 1.390 . S
C1117 C1116 1.390 . S
C1117 C1118 1.394 . S
C1117 C1123 1.465 . S
C1118 C1113 1.399 . S
C1118 C1117 1.394 . S
C1118 C1119 1.516 . S
C1119 C1118 1.516 . S
C1119 C1120 1.502 . S
C1119 C1121 1.561 . S
C1119 C1122 1.526 . S
C1120 H1104 0.959 . S
C1120 H1105 0.959 . S
C1120 H1106 0.961 . S
C1120 C1119 1.502 . S
C1121 H1107 0.960 . S
C1121 H1108 0.961 . S
C1121 H1109 0.959 . S
C1121 C1119 1.561 . S
C1122 C1119 1.526 . S
C1122 C1123 1.396 . S
C1122 C1127 1.390 . S
C1123 C1117 1.465 . S
C1123 C1122 1.396 . S
C1123 C1124 1.399 . S
C1124 H1110 0.929 . S
C1124 C1123 1.399 . S
C1124 C1125 1.385 . S
C1125 H1111 0.931 . S
C1125 C1124 1.385 . S
C1125 C1126 1.389 . S
C1126 C1125 1.389 . S
C1126 C1127 1.387 . S
C1127 H1112 0.930 . S
C1127 C1122 1.390 . S
C1127 C1126 1.387 . S
H1128 C1140 0.930 1_545 S
H1129 C1142 0.930 . S
H1130 C1143 0.930 . S
H1131 C1147 0.959 . S
H1132 C1147 0.959 . S
H1133 C1147 0.961 . S
H1134 C1148 0.960 . S
H1135 C1148 0.961 . S
H1136 C1148 0.959 . S
H1137 C1151 0.929 . S
H1138 C1152 0.936 . S
H1139 C1154 0.930 . S
C1140 H1128 0.930 1_565 S
C1140 C1141 1.399 . S
C1140 C1145 1.399 1_565 S
C1141 C1140 1.399 . S
C1141 C1142 1.376 . S
C1142 H1129 0.930 . S
C1142 C1141 1.376 . S
C1142 C1143 1.388 . S
C1143 H1130 0.930 . S
C1143 C1142 1.388 . S
C1143 C1144 1.390 . S
C1144 C1143 1.390 . S
C1144 C1145 1.394 1_565 S
C1144 C1150 1.465 . S
C1145 C1140 1.399 1_545 S
C1145 C1144 1.394 1_545 S
C1145 C1146 1.516 . S
C1146 C1145 1.516 . S
C1146 C1147 1.502 . S
C1146 C1148 1.561 . S
C1146 C1149 1.526 . S
C1147 H1131 0.959 . S
C1147 H1132 0.959 . S
C1147 H1133 0.961 . S
C1147 C1146 1.502 . S
C1148 H1134 0.960 . S
C1148 H1135 0.961 . S
C1148 H1136 0.959 . S
C1148 C1146 1.561 . S
C1149 C1146 1.526 . S
C1149 C1150 1.396 1_545 S
C1149 C1154 1.390 . S
C1150 C1144 1.465 . S
C1150 C1149 1.396 1_565 S
C1150 C1151 1.399 . S
C1151 H1137 0.929 . S
C1151 C1150 1.399 . S
C1151 C1152 1.393 . S
C1152 H1138 0.936 . S
C1152 C1151 1.393 . S
C1152 C1153 1.377 1_565 S
C1153 C1152 1.377 1_545 S
C1153 C1154 1.387 . S
C1154 H1139 0.930 . S
C1154 C1149 1.390 . S
C1154 C1153 1.387 . S
H1155 C1167 0.930 . S
H1156 C1169 0.930 . S
H1157 C1170 0.930 . S
H1158 C1174 0.959 . S
H1159 C1174 0.959 . S
H1160 C1174 0.961 . S
H1161 C1175 0.960 . S
H1162 C1175 0.961 . S
H1163 C1175 0.959 . S
H1164 C1178 0.929 . S
H1165 C1179 0.931 . S
H1166 C1181 0.930 . S
C1167 H1155 0.930 . S
C1167 C1168 1.399 . S
C1167 C1172 1.399 . S
C1168 C1167 1.399 . S
C1168 C1169 1.376 . S
C1169 H1156 0.930 . S
C1169 C1168 1.376 . S
C1169 C1170 1.388 . S
C1170 H1157 0.930 . S
C1170 C1169 1.388 . S
C1170 C1171 1.390 . S
C1171 C1170 1.390 . S
C1171 C1172 1.394 . S
C1171 C1177 1.465 . S
C1172 C1167 1.399 . S
C1172 C1171 1.394 . S
C1172 C1173 1.516 . S
C1173 C1172 1.516 . S
C1173 C1174 1.502 . S
C1173 C1175 1.561 . S
C1173 C1176 1.526 . S
C1174 H1158 0.959 . S
C1174 H1159 0.959 . S
C1174 H1160 0.961 . S
C1174 C1173 1.502 . S
C1175 H1161 0.960 . S
C1175 H1162 0.961 . S
C1175 H1163 0.959 . S
C1175 C1173 1.561 . S
C1176 C1173 1.526 . S
C1176 C1177 1.396 . S
C1176 C1181 1.390 . S
C1177 C1171 1.465 . S
C1177 C1176 1.396 . S
C1177 C1178 1.399 . S
C1178 H1164 0.929 . S
C1178 C1177 1.399 . S
C1178 C1179 1.385 . S
C1179 H1165 0.931 . S
C1179 C1178 1.385 . S
C1179 C1180 1.389 . S
C1180 C1179 1.389 . S
C1180 C1181 1.387 . S
C1181 H1166 0.930 . S
C1181 C1176 1.390 . S
C1181 C1180 1.387 . S
H1182 C1194 0.930 . S
H1183 C1196 0.930 1_455 S
H1184 C1197 0.930 . S
H1185 C1201 0.959 . S
H1186 C1201 0.959 . S
H1187 C1201 0.961 . S
H1188 C1202 0.960 . S
H1189 C1202 0.961 . S
H1190 C1202 0.959 . S
H1191 C1205 0.929 . S
H1192 C1206 0.931 . S
H1193 C1208 0.930 1_655 S
C1194 H1182 0.930 . S
C1194 C1195 1.399 . S
C1194 C1199 1.399 . S
C1195 C1194 1.399 . S
C1195 C1196 1.376 . S
C1196 H1183 0.930 1_655 S
C1196 C1195 1.376 . S
C1196 C1197 1.388 1_655 S
C1197 H1184 0.930 . S
C1197 C1196 1.388 1_455 S
C1197 C1198 1.390 . S
C1198 C1197 1.390 . S
C1198 C1199 1.394 1_455 S
C1198 C1204 1.465 . S
C1199 C1194 1.399 . S
C1199 C1198 1.394 1_655 S
C1199 C1200 1.516 . S
C1200 C1199 1.516 . S
C1200 C1201 1.502 . S
C1200 C1202 1.561 . S
C1200 C1203 1.526 1_655 S
C1201 H1185 0.959 . S
C1201 H1186 0.959 . S
C1201 H1187 0.961 . S
C1201 C1200 1.502 . S
C1202 H1188 0.960 . S
C1202 H1189 0.961 . S
C1202 H1190 0.959 . S
C1202 C1200 1.561 . S
C1203 C1200 1.526 1_455 S
C1203 C1204 1.396 . S
C1203 C1208 1.390 . S
C1204 C1198 1.465 . S
C1204 C1203 1.396 . S
C1204 C1205 1.399 . S
C1205 H1191 0.929 . S
C1205 C1204 1.399 . S
C1205 C1206 1.385 . S
C1206 H1192 0.931 . S
C1206 C1205 1.385 . S
C1206 C1207 1.389 . S
C1207 C1206 1.389 . S
C1207 C1208 1.387 . S
C1208 H1193 0.930 1_455 S
C1208 C1203 1.390 . S
C1208 C1207 1.387 . S
H1209 C1221 0.930 . S
H1210 C1223 0.930 1_565 S
H1211 C1224 0.930 . S
H1212 C1228 0.959 . S
H1213 C1228 0.959 . S
H1214 C1228 0.961 . S
H1215 C1229 0.960 . S
H1216 C1229 0.961 . S
H1217 C1229 0.959 . S
H1218 C1232 0.929 . S
H1219 C1233 0.931 . S
H1220 C1235 0.930 1_545 S
C1221 H1209 0.930 . S
C1221 C1222 1.399 . S
C1221 C1226 1.399 . S
C1222 C1221 1.399 . S
C1222 C1223 1.376 . S
C1223 H1210 0.930 1_545 S
C1223 C1222 1.376 . S
C1223 C1224 1.388 1_545 S
C1224 H1211 0.930 . S
C1224 C1223 1.388 1_565 S
C1224 C1225 1.390 . S
C1225 C1224 1.390 . S
C1225 C1226 1.394 1_565 S
C1225 C1231 1.465 . S
C1226 C1221 1.399 . S
C1226 C1225 1.394 1_545 S
C1226 C1227 1.516 . S
C1227 C1226 1.516 . S
C1227 C1228 1.502 . S
C1227 C1229 1.561 . S
C1227 C1230 1.526 . S
C1228 H1212 0.959 . S
C1228 H1213 0.959 . S
C1228 H1214 0.961 . S
C1228 C1227 1.502 . S
C1229 H1215 0.960 . S
C1229 H1216 0.961 . S
C1229 H1217 0.959 . S
C1229 C1227 1.561 . S
C1230 C1227 1.526 . S
C1230 C1231 1.396 1_545 S
C1230 C1235 1.390 1_545 S
C1231 C1225 1.465 . S
C1231 C1230 1.396 1_565 S
C1231 C1232 1.399 . S
C1232 H1218 0.929 . S
C1232 C1231 1.399 . S
C1232 C1233 1.385 . S
C1233 H1219 0.931 . S
C1233 C1232 1.385 . S
C1233 C1234 1.389 . S
C1234 C1233 1.389 . S
C1234 C1235 1.387 . S
C1235 H1220 0.930 1_565 S
C1235 C1230 1.390 1_565 S
C1235 C1234 1.387 . S
H1236 C1248 0.930 . S
H1237 C1250 0.930 . S
H1238 C1251 0.930 . S
H1239 C1255 0.959 . S
H1240 C1255 0.959 . S
H1241 C1255 0.961 . S
H1242 C1256 0.960 . S
H1243 C1256 0.961 . S
H1244 C1256 0.959 . S
H1245 C1259 0.929 . S
H1246 C1260 0.931 . S
H1247 C1262 0.930 . S
C1248 H1236 0.930 . S
C1248 C1249 1.399 . S
C1248 C1253 1.399 . S
C1249 C1248 1.399 . S
C1249 C1250 1.376 . S
C1250 H1237 0.930 . S
C1250 C1249 1.376 . S
C1250 C1251 1.388 . S
C1251 H1238 0.930 . S
C1251 C1250 1.388 . S
C1251 C1252 1.390 . S
C1252 C1251 1.390 . S
C1252 C1253 1.394 . S
C1252 C1258 1.465 . S
C1253 C1248 1.399 . S
C1253 C1252 1.394 . S
C1253 C1254 1.516 . S
C1254 C1253 1.516 . S
C1254 C1255 1.502 . S
C1254 C1256 1.561 . S
C1254 C1257 1.526 . S
C1255 H1239 0.959 . S
C1255 H1240 0.959 . S
C1255 H1241 0.961 . S
C1255 C1254 1.502 . S
C1256 H1242 0.960 . S
C1256 H1243 0.961 . S
C1256 H1244 0.959 . S
C1256 C1254 1.561 . S
C1257 C1254 1.526 . S
C1257 C1258 1.396 . S
C1257 C1262 1.390 . S
C1258 C1252 1.465 . S
C1258 C1257 1.396 . S
C1258 C1259 1.399 . S
C1259 H1245 0.929 . S
C1259 C1258 1.399 . S
C1259 C1260 1.385 . S
C1260 H1246 0.931 . S
C1260 C1259 1.385 . S
C1260 C1261 1.389 . S
C1261 C1260 1.389 . S
C1261 C1262 1.387 . S
C1262 H1247 0.930 . S
C1262 C1257 1.390 . S
C1262 C1261 1.387 . S
H1263 C1275 0.930 . S
H1264 C1277 0.930 . S
H1265 C1278 0.930 . S
H1266 C1282 0.959 . S
H1267 C1282 0.959 . S
H1268 C1282 0.961 . S
H1269 C1283 0.960 . S
H1270 C1283 0.961 . S
H1271 C1283 0.959 . S
H1272 C1286 0.929 . S
H1273 C1287 0.931 . S
H1274 C1289 0.902 1_455 S
C1275 H1263 0.930 . S
C1275 C1276 1.399 . S
C1275 C1280 1.399 . S
C1276 C1275 1.399 . S
C1276 C1277 1.376 . S
C1277 H1264 0.930 . S
C1277 C1276 1.376 . S
C1277 C1278 1.388 1_455 S
C1278 H1265 0.930 . S
C1278 C1277 1.388 1_655 S
C1278 C1279 1.390 . S
C1279 C1278 1.390 . S
C1279 C1280 1.394 1_655 S
C1279 C1285 1.465 . S
C1280 C1275 1.399 . S
C1280 C1279 1.394 1_455 S
C1280 C1281 1.516 . S
C1281 C1280 1.516 . S
C1281 C1282 1.502 . S
C1281 C1283 1.561 . S
C1281 C1284 1.522 1_455 S
C1282 H1266 0.959 . S
C1282 H1267 0.959 . S
C1282 H1268 0.961 . S
C1282 C1281 1.502 . S
C1283 H1269 0.960 . S
C1283 H1270 0.961 . S
C1283 H1271 0.959 . S
C1283 C1281 1.561 . S
C1284 C1281 1.522 1_655 S
C1284 C1285 1.399 . S
C1284 C1289 1.390 . S
C1285 C1279 1.465 . S
C1285 C1284 1.399 . S
C1285 C1286 1.399 . S
C1286 H1272 0.929 . S
C1286 C1285 1.399 . S
C1286 C1287 1.385 . S
C1287 H1273 0.931 . S
C1287 C1286 1.385 . S
C1287 C1288 1.389 . S
C1288 C1287 1.389 . S
C1288 C1289 1.387 . S
C1289 H1274 0.902 1_655 S
C1289 C1284 1.390 . S
C1289 C1288 1.387 . S
H1290 C1302 0.930 . S
H1291 C1304 0.930 . S
H1292 C1305 0.930 . S
H1293 C1309 0.959 . S
H1294 C1309 0.959 . S
H1295 C1309 0.961 . S
H1296 C1310 0.960 . S
H1297 C1310 0.961 . S
H1298 C1310 0.959 . S
H1299 C1313 0.929 . S
H1300 C1314 0.931 . S
H1301 C1316 0.930 . S
C1302 H1290 0.930 . S
C1302 C1303 1.399 . S
C1302 C1307 1.399 . S
C1303 C1302 1.399 . S
C1303 C1304 1.376 . S
C1304 H1291 0.930 . S
C1304 C1303 1.376 . S
C1304 C1305 1.388 . S
C1305 H1292 0.930 . S
C1305 C1304 1.388 . S
C1305 C1306 1.390 . S
C1306 C1305 1.390 . S
C1306 C1307 1.394 . S
C1306 C1312 1.465 . S
C1307 C1302 1.399 . S
C1307 C1306 1.394 . S
C1307 C1308 1.516 . S
C1308 C1307 1.516 . S
C1308 C1309 1.502 . S
C1308 C1310 1.561 . S
C1308 C1311 1.526 . S
C1309 H1293 0.959 . S
C1309 H1294 0.959 . S
C1309 H1295 0.961 . S
C1309 C1308 1.502 . S
C1310 H1296 0.960 . S
C1310 H1297 0.961 . S
C1310 H1298 0.959 . S
C1310 C1308 1.561 . S
C1311 C1308 1.526 . S
C1311 C1312 1.396 . S
C1311 C1316 1.390 . S
C1312 C1306 1.465 . S
C1312 C1311 1.396 . S
C1312 C1313 1.399 . S
C1313 H1299 0.929 . S
C1313 C1312 1.399 . S
C1313 C1314 1.385 . S
C1314 H1300 0.931 . S
C1314 C1313 1.385 . S
C1314 C1315 1.389 . S
C1315 C1314 1.389 . S
C1315 C1316 1.387 . S
C1316 H1301 0.930 . S
C1316 C1311 1.390 . S
C1316 C1315 1.387 . S
H1317 C1329 0.930 . S
H1318 C1331 0.930 . S
H1319 C1332 0.930 . S
H1320 C1336 0.959 . S
H1321 C1336 0.959 . S
H1322 C1336 0.961 . S
H1323 C1337 0.960 . S
H1324 C1337 0.961 . S
H1325 C1337 0.959 . S
H1326 C1340 0.929 . S
H1327 C1341 0.931 . S
H1328 C1343 0.930 . S
C1329 H1317 0.930 . S
C1329 C1330 1.399 . S
C1329 C1334 1.399 . S
C1330 C1329 1.399 . S
C1330 C1331 1.376 . S
C1331 H1318 0.930 . S
C1331 C1330 1.376 . S
C1331 C1332 1.388 . S
C1332 H1319 0.930 . S
C1332 C1331 1.388 . S
C1332 C1333 1.390 . S
C1333 C1332 1.390 . S
C1333 C1334 1.394 . S
C1333 C1339 1.465 . S
C1334 C1329 1.399 . S
C1334 C1333 1.394 . S
C1334 C1335 1.516 . S
C1335 C1334 1.516 . S
C1335 C1336 1.502 . S
C1335 C1337 1.561 . S
C1335 C1338 1.526 . S
C1336 H1320 0.959 . S
C1336 H1321 0.959 . S
C1336 H1322 0.961 . S
C1336 C1335 1.502 . S
C1337 H1323 0.960 . S
C1337 H1324 0.961 . S
C1337 H1325 0.959 . S
C1337 C1335 1.561 . S
C1338 C1335 1.526 . S
C1338 C1339 1.396 . S
C1338 C1343 1.390 . S
C1339 C1333 1.465 . S
C1339 C1338 1.396 . S
C1339 C1340 1.399 . S
C1340 H1326 0.929 . S
C1340 C1339 1.399 . S
C1340 C1341 1.385 . S
C1341 H1327 0.931 . S
C1341 C1340 1.385 . S
C1341 C1342 1.389 . S
C1342 C1341 1.389 . S
C1342 C1343 1.387 . S
C1343 H1328 0.930 . S
C1343 C1338 1.390 . S
C1343 C1342 1.387 . S
H1344 C1356 0.930 . S
H1345 C1358 0.930 . S
H1346 C1359 0.930 . S
H1347 C1363 0.959 . S
H1348 C1363 0.959 . S
H1349 C1363 0.961 . S
H1350 C1364 0.960 . S
H1351 C1364 0.961 . S
H1352 C1364 0.959 . S
H1353 C1367 0.929 . S
H1354 C1368 0.931 . S
H1355 C1370 0.930 . S
C1356 H1344 0.930 . S
C1356 C1357 1.399 . S
C1356 C1361 1.399 . S
C1357 C1356 1.399 . S
C1357 C1358 1.376 . S
C1358 H1345 0.930 . S
C1358 C1357 1.376 . S
C1358 C1359 1.388 . S
C1359 H1346 0.930 . S
C1359 C1358 1.388 . S
C1359 C1360 1.390 . S
C1360 C1359 1.390 . S
C1360 C1361 1.394 . S
C1360 C1366 1.465 . S
C1361 C1356 1.399 . S
C1361 C1360 1.394 . S
C1361 C1362 1.516 . S
C1362 C1361 1.516 . S
C1362 C1363 1.502 . S
C1362 C1364 1.561 . S
C1362 C1365 1.526 . S
C1363 H1347 0.959 . S
C1363 H1348 0.959 . S
C1363 H1349 0.961 . S
C1363 C1362 1.502 . S
C1364 H1350 0.960 . S
C1364 H1351 0.961 . S
C1364 H1352 0.959 . S
C1364 C1362 1.561 . S
C1365 C1362 1.526 . S
C1365 C1366 1.396 . S
C1365 C1370 1.390 . S
C1366 C1360 1.465 . S
C1366 C1365 1.396 . S
C1366 C1367 1.399 . S
C1367 H1353 0.929 . S
C1367 C1366 1.399 . S
C1367 C1368 1.385 . S
C1368 H1354 0.931 . S
C1368 C1367 1.385 . S
C1368 C1369 1.389 . S
C1369 C1368 1.389 . S
C1369 C1370 1.387 . S
C1370 H1355 0.930 . S
C1370 C1365 1.390 . S
C1370 C1369 1.387 . S
H1371 C1383 0.930 . S
H1372 C1385 0.930 . S
H1373 C1386 0.930 . S
H1374 C1390 0.959 . S
H1375 C1390 0.959 . S
H1376 C1390 0.961 . S
H1377 C1391 0.960 . S
H1378 C1391 0.961 . S
H1379 C1391 0.959 . S
H1380 C1394 0.929 . S
H1381 C1395 0.931 . S
H1382 C1397 0.930 . S
C1383 H1371 0.930 . S
C1383 C1384 1.399 . S
C1383 C1388 1.399 . S
C1384 C1383 1.399 . S
C1384 C1385 1.376 . S
C1385 H1372 0.930 . S
C1385 C1384 1.376 . S
C1385 C1386 1.388 . S
C1386 H1373 0.930 . S
C1386 C1385 1.388 . S
C1386 C1387 1.390 . S
C1387 C1386 1.390 . S
C1387 C1388 1.394 . S
C1387 C1393 1.465 . S
C1388 C1383 1.399 . S
C1388 C1387 1.394 . S
C1388 C1389 1.516 . S
C1389 C1388 1.516 . S
C1389 C1390 1.502 . S
C1389 C1391 1.561 . S
C1389 C1392 1.526 . S
C1390 H1374 0.959 . S
C1390 H1375 0.959 . S
C1390 H1376 0.961 . S
C1390 C1389 1.502 . S
C1391 H1377 0.960 . S
C1391 H1378 0.961 . S
C1391 H1379 0.959 . S
C1391 C1389 1.561 . S
C1392 C1389 1.526 . S
C1392 C1393 1.396 . S
C1392 C1397 1.390 . S
C1393 C1387 1.465 . S
C1393 C1392 1.396 . S
C1393 C1394 1.399 . S
C1394 H1380 0.929 . S
C1394 C1393 1.399 . S
C1394 C1395 1.385 . S
C1395 H1381 0.931 . S
C1395 C1394 1.385 . S
C1395 C1396 1.389 . S
C1396 C1395 1.389 . S
C1396 C1397 1.387 . S
C1397 H1382 0.930 . S
C1397 C1392 1.390 . S
C1397 C1396 1.387 . S
H1398 C1410 0.930 . S
H1399 C1412 0.930 . S
H1400 C1413 0.930 . S
H1401 C1417 0.959 . S
H1402 C1417 0.959 . S
H1403 C1417 0.961 . S
H1404 C1418 0.960 . S
H1405 C1418 0.961 . S
H1406 C1418 0.959 . S
H1407 C1421 0.929 . S
H1408 C1422 0.931 . S
H1409 C1424 0.930 . S
C1410 H1398 0.930 . S
C1410 C1411 1.399 . S
C1410 C1415 1.399 . S
C1411 C1410 1.399 . S
C1411 C1412 1.376 . S
C1412 H1399 0.930 . S
C1412 C1411 1.376 . S
C1412 C1413 1.388 . S
C1413 H1400 0.930 . S
C1413 C1412 1.388 . S
C1413 C1414 1.390 . S
C1414 C1413 1.390 . S
C1414 C1415 1.394 . S
C1414 C1420 1.465 . S
C1415 C1410 1.399 . S
C1415 C1414 1.394 . S
C1415 C1416 1.516 . S
C1416 C1415 1.516 . S
C1416 C1417 1.502 . S
C1416 C1418 1.561 . S
C1416 C1419 1.526 . S
C1417 H1401 0.959 . S
C1417 H1402 0.959 . S
C1417 H1403 0.961 . S
C1417 C1416 1.502 . S
C1418 H1404 0.960 . S
C1418 H1405 0.961 . S
C1418 H1406 0.959 . S
C1418 C1416 1.561 . S
C1419 C1416 1.526 . S
C1419 C1420 1.396 . S
C1419 C1424 1.390 . S
C1420 C1414 1.465 . S
C1420 C1419 1.396 . S
C1420 C1421 1.399 . S
C1421 H1407 0.929 . S
C1421 C1420 1.399 . S
C1421 C1422 1.385 . S
C1422 H1408 0.931 . S
C1422 C1421 1.385 . S
C1422 C1423 1.389 . S
C1423 C1422 1.389 . S
C1423 C1424 1.387 . S
C1424 H1409 0.930 . S
C1424 C1419 1.390 . S
C1424 C1423 1.387 . S
H1425 C1437 0.930 . S
H1426 C1439 0.930 . S
H1427 C1440 0.930 . S
H1428 C1444 0.959 . S
H1429 C1444 0.959 . S
H1430 C1444 0.961 . S
H1431 C1445 0.960 . S
H1432 C1445 0.961 . S
H1433 C1445 0.959 . S
H1434 C1448 0.929 . S
H1435 C1449 0.931 . S
H1436 C1451 0.930 . S
C1437 H1425 0.930 . S
C1437 C1438 1.399 . S
C1437 C1442 1.399 . S
C1438 C1437 1.399 . S
C1438 C1439 1.376 . S
C1439 H1426 0.930 . S
C1439 C1438 1.376 . S
C1439 C1440 1.388 . S
C1440 H1427 0.930 . S
C1440 C1439 1.388 . S
C1440 C1441 1.390 . S
C1441 C1440 1.390 . S
C1441 C1442 1.394 . S
C1441 C1447 1.465 . S
C1442 C1437 1.399 . S
C1442 C1441 1.394 . S
C1442 C1443 1.516 . S
C1443 C1442 1.516 . S
C1443 C1444 1.502 . S
C1443 C1445 1.561 . S
C1443 C1446 1.526 . S
C1444 H1428 0.959 . S
C1444 H1429 0.959 . S
C1444 H1430 0.961 . S
C1444 C1443 1.502 . S
C1445 H1431 0.960 . S
C1445 H1432 0.961 . S
C1445 H1433 0.959 . S
C1445 C1443 1.561 . S
C1446 C1443 1.526 . S
C1446 C1447 1.396 . S
C1446 C1451 1.390 . S
C1447 C1441 1.465 . S
C1447 C1446 1.396 . S
C1447 C1448 1.399 . S
C1448 H1434 0.929 . S
C1448 C1447 1.399 . S
C1448 C1449 1.385 . S
C1449 H1435 0.931 . S
C1449 C1448 1.385 . S
C1449 C1450 1.389 . S
C1450 C1449 1.389 . S
C1450 C1451 1.387 . S
C1451 H1436 0.930 . S
C1451 C1446 1.390 . S
C1451 C1450 1.387 . S
C493 C9 1.135 . S
C505 C329 1.095 . S
C520 C49 1.129 . S
C532 C369 1.139 . S
C547 C89 1.122 . S
C559 C409 1.074 . S
C574 C449 1.133 . S
C586 C129 1.136 . S
C601 C169 1.137 . S
C613 C249 1.133 . S
C628 C289 1.089 . S
C640 C209 1.042 . S
C655 C419 4.316 . S
C667 C19 4.325 . S
C682 C459 4.331 . S
C694 C59 4.319 . S
C709 C99 4.326 . S
C721 C259 4.337 . S
C736 C299 4.321 . S
C748 C139 4.334 . S
C763 C339 4.331 . S
C775 C179 4.319 . S
C790 C219 4.328 . S
C802 C379 4.317 . S
C817 C295 1.505 . S
C829 C15 1.429 . S
C844 C335 1.449 . S
C856 C55 1.444 . S
C871 C375 1.494 . S
C883 C95 1.415 . S
C898 C135 1.501 . S
C910 C415 1.439 . S
C925 C175 1.499 . S
C937 C455 1.443 . S
C952 C215 1.471 . S
C964 C255 1.477 . S
C979 C18 0.520 . S
C991 C138 0.488 . S
C1006 C58 0.327 . S
C1018 C178 0.360 . S
C1033 C98 0.458 . S
C1045 C218 0.412 . S
C1060 C378 0.538 . S
C1072 C258 0.524 . S
C1087 C298 0.342 . S
C1099 C418 0.383 . S
C1114 C458 0.527 . S
C1126 C338 0.500 . S
C1141 C290 4.663 . S
C1153 C10 4.660 . S
C1168 C330 4.659 1_556 S
C1180 C50 4.662 . S
C1195 C90 4.660 1_554 S
C1207 C370 4.664 . S
C1222 C410 4.664 . S
C1234 C130 4.667 . S
C1249 C450 4.660 1_556 S
C1261 C170 4.664 . S
C1276 C210 4.665 1_554 S
C1288 C250 4.667 . S
C1303 C6 0.826 . S
C1315 C406 0.770 . S
C1330 C46 0.894 . S
C1342 C446 0.748 . S
C1357 C86 0.761 . S
C1369 C246 0.835 . S
C1384 C126 0.796 . S
C1396 C286 0.872 . S
C1411 C166 0.865 . S
C1423 C326 0.807 . S
C1438 C366 0.862 . S
C1450 C206 0.812 . S
