# Generated by pormake.
# Topology qtz-x, (6)-cn, num edge types: 1
# Building blocks:
#     Node 0, Type 0, BuildingBlock: KUMBUR_clean_sbu_1, # of connection points: 6
#     Node 1, Type 0, BuildingBlock: KUMBUR_clean_sbu_1, # of connection points: 6
#     Node 2, Type 0, BuildingBlock: KUMBUR_clean_sbu_1, # of connection points: 6
#     Edge 3, Type (0, 0), BuildingBlock: XIVTED_clean_linker_0, # of connection points: 2
#     Edge 4, Type (0, 0), BuildingBlock: XIVTED_clean_linker_0, # of connection points: 2
#     Edge 5, Type (0, 0), BuildingBlock: XIVTED_clean_linker_0, # of connection points: 2
#     Edge 6, Type (0, 0), BuildingBlock: XIVTED_clean_linker_0, # of connection points: 2
#     Edge 7, Type (0, 0), BuildingBlock: XIVTED_clean_linker_0, # of connection points: 2
#     Edge 8, Type (0, 0), BuildingBlock: XIVTED_clean_linker_0, # of connection points: 2
#     Edge 9, Type (0, 0), BuildingBlock: XIVTED_clean_linker_0, # of connection points: 2
#     Edge 10, Type (0, 0), BuildingBlock: XIVTED_clean_linker_0, # of connection points: 2
#     Edge 11, Type (0, 0), BuildingBlock: XIVTED_clean_linker_0, # of connection points: 2
# Relax obj value: 0.202
# Max RMSD: 0.279
# Mean RMSD: 0.279
data_MOF--net-qtz-x--node1-KUMBUR_clean_sbu_1--edge1-XIVTED_clean_linker_0
_symmetry_space_group_name_H-M    P1
_symmetry_Int_Tables_number       1
_symmetry_cell_setting            triclinic
loop_
_symmetry_equiv_pos_as_xyz
'x, y, z'
_cell_length_a     14.898056
_cell_length_b     14.840187
_cell_length_c     52.385416
_cell_angle_alpha  90.357567
_cell_angle_beta   88.971325
_cell_angle_gamma 119.76285
loop_
_atom_site_label
_atom_site_type_symbol
_atom_site_fract_x
_atom_site_fract_y
_atom_site_fract_z
_atom_type_partial_charge
Tb0 Tb 0.90671 0.41947 0.14794 0.0
C1 C 0.35613 0.53744 0.16846 0.0
N2 N 0.27061 0.46312 0.18087 0.0
C3 C 0.32849 0.34013 0.17427 0.0
C4 C 0.42994 0.51486 0.15768 0.0
C5 C 0.25766 0.36656 0.18472 0.0
C6 C 0.41403 0.41405 0.16029 0.0
C7 C 0.453 0.71378 0.15253 0.0
C8 C 0.36561 0.6345 0.16532 0.0
C9 C 0.52751 0.69217 0.14186 0.0
C10 C 0.51541 0.59263 0.1442 0.0
Tb11 Tb 0.15203 0.509 0.19375 0.0
N12 N 0.28938 0.65101 0.1749 0.0
C13 C 0.46322 0.8125 0.15103 0.0
C14 C 0.30357 0.7494 0.17527 0.0
C15 C 0.38921 0.83081 0.1629 0.0
H16 H 0.1926 0.30994 0.1958 0.0
H17 H 0.39866 0.908 0.1628 0.0
H18 H 0.85707 0.61312 0.14997 0.0
H19 H 0.66586 0.01078 0.17194 0.0
H20 H 0.25138 0.76734 0.18562 0.0
H21 H 0.52923 0.87564 0.14138 0.0
H22 H 0.80984 0.15917 0.15023 0.0
H23 H 0.31683 0.26273 0.1769 0.0
H24 H 0.59468 0.75186 0.13174 0.0
H25 H 0.57269 0.5767 0.13557 0.0
H26 H 0.73083 0.65111 0.17174 0.0
H27 H 0.46765 0.39276 0.15177 0.0
H28 H 0.53598 0.03412 0.19669 0.0
N29 N 0.78439 0.45712 0.16293 0.0
C30 C 0.70142 0.37875 0.17521 0.0
C31 C 0.72195 0.57431 0.17295 0.0
C32 C 0.62666 0.39611 0.18757 0.0
C33 C 0.79367 0.55301 0.1608 0.0
C34 C 0.63907 0.49601 0.18677 0.0
N35 N 0.77215 0.2706 0.16535 0.0
C36 C 0.75837 0.17295 0.16221 0.0
C37 C 0.60939 0.19874 0.18863 0.0
C38 C 0.69529 0.28251 0.17649 0.0
C39 C 0.60087 0.10062 0.18767 0.0
C40 C 0.67445 0.08731 0.17389 0.0
H41 H 0.58441 0.51314 0.19645 0.0
H42 H 0.48502 0.32568 0.21027 0.0
H43 H 0.46807 0.15198 0.21052 0.0
O44 O 0.87934 0.33397 0.11432 0.0
O45 O 0.89945 0.46483 0.18714 0.0
O46 O 0.99551 0.41273 0.20981 0.0
O47 O 0.82803 0.44635 0.11865 0.0
O48 O 0.96964 0.31469 0.15289 0.0
O49 O 0.03765 0.34374 0.19346 0.0
O50 O 0.2057 0.61253 0.22506 0.0
O51 O 0.16442 0.46938 0.15324 0.0
O52 O 0.06224 0.51846 0.13217 0.0
O53 O 0.20633 0.46861 0.22599 0.0
O54 O 0.08785 0.61336 0.18923 0.0
O55 O 0.02137 0.58505 0.14839 0.0
C56 C 0.91441 0.42457 0.20745 0.0
C57 C 0.73178 0.30078 0.09196 0.0
C58 C 0.66179 0.21387 0.05187 0.0
C59 C 0.56267 0.19292 0.06014 0.0
C60 C 0.63353 0.28103 0.10016 0.0
C61 C 0.54846 0.22398 0.0845 0.0
C62 C 0.74312 0.25932 0.06907 0.0
C63 C 0.99969 0.28519 0.17314 0.0
C64 C 0.82744 0.37389 0.10451 0.0
C65 C 0.54326 0.31394 0.20058 0.0
C66 C 0.53402 0.2152 0.20087 0.0
C67 C 0.13589 0.4945 0.13198 0.0
C68 C 0.32919 0.60385 0.25166 0.0
C69 C 0.42528 0.68145 0.29077 0.0
C70 C 0.51068 0.67829 0.27993 0.0
C71 C 0.41609 0.6029 0.24119 0.0
C72 C 0.33465 0.64487 0.27637 0.0
C73 C 0.50624 0.64014 0.25527 0.0
C74 C 0.05837 0.64337 0.16887 0.0
C75 C 0.22982 0.55373 0.23817 0.0
H76 H 0.49758 0.15842 0.04744 0.0
H77 H 0.62314 0.31153 0.11813 0.0
H78 H 0.47257 0.20943 0.09058 0.0
H79 H 0.81918 0.2722 0.0636 0.0
H80 H 0.58134 0.70603 0.29053 0.0
H81 H 0.41362 0.57133 0.22236 0.0
H82 H 0.26745 0.64475 0.2847 0.0
H83 H 0.5726 0.63817 0.24716 0.0
Tb84 Tb 0.77058 0.25452 0.48258 0.0
C85 C 0.43386 0.79693 0.4942 0.0
N86 N 0.44734 0.88428 0.5062 0.0
C87 C 0.26824 0.83058 0.49997 0.0
C88 C 0.33814 0.72554 0.48352 0.0
C89 C 0.3642 0.89795 0.51061 0.0
C90 C 0.25564 0.745 0.48592 0.0
C91 C 0.50333 0.68477 0.48248 0.0
C92 C 0.51503 0.7764 0.49373 0.0
C93 C 0.40909 0.61491 0.47118 0.0
C94 C 0.32682 0.63544 0.47162 0.0
Tb95 Tb 0.60846 0.9874 0.5228 0.0
N96 N 0.60594 0.84698 0.50427 0.0
C97 C 0.58671 0.66619 0.483 0.0
C98 C 0.68617 0.82753 0.50571 0.0
C99 C 0.67819 0.73752 0.49484 0.0
H100 H 0.36963 0.95729 0.52337 0.0
H101 H 0.74231 0.72281 0.49579 0.0
H102 H 1.00949 0.29819 0.4844 0.0
H103 H 0.59848 0.48461 0.51499 0.0
H104 H 0.756 0.88047 0.51547 0.0
H105 H 0.58081 0.59655 0.47462 0.0
H106 H 0.60331 0.34508 0.49107 0.0
H107 H 0.2033 0.84307 0.50325 0.0
H108 H 0.39869 0.54429 0.4623 0.0
H109 H 0.254 0.58001 0.4632 0.0
H110 H 0.17448 0.42509 0.50385 0.0
H111 H 0.18075 0.69193 0.47806 0.0
H112 H 0.75197 0.61221 0.53849 0.0
N113 N 0.92503 0.36587 0.5004 0.0
C114 C 0.92993 0.44827 0.51305 0.0
C115 C 0.10595 0.43174 0.5069 0.0
C116 C 0.02285 0.52401 0.52406 0.0
C117 C 0.01202 0.35882 0.49628 0.0
C118 C 0.11121 0.51419 0.52109 0.0
N119 N 0.75336 0.38189 0.50361 0.0
C120 C 0.66852 0.39449 0.50262 0.0
C121 C 0.84295 0.54007 0.52813 0.0
C122 C 0.84083 0.45561 0.51508 0.0
C123 C 0.7535 0.54838 0.52873 0.0
C124 C 0.66649 0.47611 0.51561 0.0
H125 H 0.18417 0.57084 0.52922 0.0
H126 H 0.0952 0.66592 0.54612 0.0
H127 H 0.93771 0.68011 0.5497 0.0
O128 O 0.78475 0.37137 0.45743 0.0
O129 O 0.80702 0.24098 0.52195 0.0
O130 O 0.65069 0.13608 0.54122 0.0
O131 O 0.86702 0.28541 0.45004 0.0
O132 O 0.60196 0.18684 0.48367 0.0
O133 O 0.54776 0.09549 0.52196 0.0
O134 O 0.65963 0.94209 0.55632 0.0
O135 O 0.63802 0.98076 0.48149 0.0
O136 O 0.64352 0.12374 0.46273 0.0
O137 O 0.49846 0.89408 0.54958 0.0
O138 O 0.7772 0.05611 0.52056 0.0
O139 O 0.82316 0.13993 0.48107 0.0
C140 C 0.74299 0.2189 0.54125 0.0
C141 C 0.89617 0.42078 0.42011 0.0
C142 C 0.87522 0.47432 0.37803 0.0
C143 C 0.98178 0.54712 0.37712 0.0
C144 C 1.0023 0.49224 0.41894 0.0
C145 C 0.04477 0.55591 0.39752 0.0
C146 C 0.8327 0.4125 0.39987 0.0
C147 C 0.53384 0.14258 0.50243 0.0
C148 C 0.85013 0.35969 0.44311 0.0
C149 C 0.02461 0.60698 0.53749 0.0
C150 C 0.93484 0.61489 0.53956 0.0
C151 C 0.61851 0.02519 0.46232 0.0
C152 C 0.52455 0.82197 0.58762 0.0
C153 C 0.54398 0.76661 0.63012 0.0
C154 C 0.43709 0.69692 0.63118 0.0
C155 C 0.41777 0.7503 0.58931 0.0
C156 C 0.58843 0.8292 0.60813 0.0
C157 C 0.37472 0.68863 0.6109 0.0
C158 C 0.84032 0.09427 0.50049 0.0
C159 C 0.56406 0.88882 0.56451 0.0
H160 H 0.01718 0.59439 0.36027 0.0
H161 H 0.05167 0.49983 0.43472 0.0
H162 H 0.12678 0.61124 0.39657 0.0
H163 H 0.7506 0.35676 0.40097 0.0
H164 H 0.40168 0.64837 0.64787 0.0
H165 H 0.36655 0.74195 0.57393 0.0
H166 H 0.67069 0.88394 0.60727 0.0
H167 H 0.29242 0.63447 0.61195 0.0
Tb168 Tb 0.73723 0.36353 0.81671 0.0
C169 C 0.61487 0.7132 0.82833 0.0
N170 N 0.67919 0.69283 0.84214 0.0
C171 C 0.80445 0.87468 0.84271 0.0
C172 C 0.64462 0.81492 0.8203 0.0
C173 C 0.77021 0.77271 0.8507 0.0
C174 C 0.74224 0.89564 0.82701 0.0
C175 C 0.444 0.65127 0.81111 0.0
C176 C 0.51614 0.63266 0.8237 0.0
C177 C 0.47437 0.75174 0.80228 0.0
C178 C 0.57469 0.8333 0.80673 0.0
Tb179 Tb 0.61528 0.52228 0.85302 0.0
N180 N 0.49025 0.5361 0.83197 0.0
C181 C 0.34344 0.56839 0.80797 0.0
C182 C 0.39119 0.45594 0.82994 0.0
C183 C 0.3167 0.47057 0.81768 0.0
H184 H 0.8151 0.75885 0.86437 0.0
H185 H 0.23847 0.40663 0.81593 0.0
H186 H 0.54818 0.12313 0.82261 0.0
H187 H 0.134 0.55505 0.84965 0.0
H188 H 0.36865 0.38086 0.83801 0.0
H189 H 0.28552 0.57948 0.79852 0.0
H190 H 0.99184 0.53863 0.82378 0.0
H191 H 0.8777 0.93734 0.84916 0.0
H192 H 0.42044 0.76747 0.79234 0.0
H193 H 0.59644 0.91082 0.80026 0.0
H194 H 0.51347 0.9644 0.84595 0.0
H195 H 0.76818 0.97488 0.82118 0.0
H196 H 0.10837 0.41155 0.878 0.0
N197 N 0.69482 0.21688 0.83924 0.0
C198 C 0.77131 0.21907 0.85346 0.0
C199 C 0.58564 0.03592 0.84855 0.0
C200 C 0.75595 0.13007 0.86675 0.0
C201 C 0.60469 0.12609 0.83565 0.0
C202 C 0.66113 0.03817 0.86441 0.0
N203 N 0.87893 0.39342 0.84008 0.0
C204 C 0.97558 0.47852 0.8375 0.0
C205 C 0.94718 0.31493 0.8685 0.0
C206 C 0.86556 0.31077 0.85431 0.0
C207 C 0.04361 0.40547 0.86749 0.0
C208 C 0.05819 0.4869 0.85162 0.0
H209 H 0.64653 0.96794 0.8742 0.0
H210 H 0.82574 0.06757 0.89185 0.0
H211 H 0.99315 0.22933 0.89342 0.0
O212 O 0.84252 0.33367 0.79669 0.0
O213 O 0.66589 0.32612 0.85445 0.0
O214 O 0.72174 0.48458 0.87196 0.0
O215 O 0.68468 0.26646 0.78421 0.0
O216 O 0.83428 0.53351 0.81658 0.0
O217 O 0.78436 0.58787 0.85333 0.0
O218 O 0.51667 0.444 0.88454 0.0
O219 O 0.598 0.50175 0.81099 0.0
O220 O 0.73693 0.48785 0.79442 0.0
O221 O 0.59159 0.60925 0.88158 0.0
O222 O 0.51457 0.35509 0.8473 0.0
O223 O 0.57246 0.30776 0.81067 0.0
C224 C 0.70261 0.38881 0.87374 0.0
C225 C 0.80706 0.25255 0.75646 0.0
C226 C 0.86911 0.30381 0.71289 0.0
C227 C 0.88505 0.21795 0.71091 0.0
C228 C 0.82266 0.16719 0.75406 0.0
C229 C 0.86174 0.15016 0.73138 0.0
C230 C 0.83006 0.32116 0.73593 0.0
C231 C 0.84977 0.60368 0.83422 0.0
C232 C 0.77281 0.26895 0.78137 0.0
C233 C 0.83606 0.1351 0.88148 0.0
C234 C 0.93132 0.22734 0.8824 0.0
C235 C 0.6671 0.51777 0.79269 0.0
C236 C 0.56597 0.5396 0.92315 0.0
C237 C 0.5256 0.53029 0.96918 0.0
C238 C 0.62989 0.56255 0.97406 0.0
C239 C 0.66914 0.57155 0.92885 0.0
C240 C 0.49411 0.51971 0.94343 0.0
C241 C 0.70064 0.58286 0.95411 0.0
C242 C 0.50008 0.29242 0.82783 0.0
C243 C 0.53505 0.52932 0.89606 0.0
H244 H 0.91209 0.20087 0.69319 0.0
H245 H 0.80537 0.114 0.7699 0.0
H246 H 0.87312 0.08378 0.72959 0.0
H247 H 0.81745 0.38685 0.73784 0.0
H248 H 0.65747 0.5736 0.99345 0.0
H249 H 0.72584 0.58879 0.91371 0.0
H250 H 0.4143 0.49513 0.93918 0.0
H251 H 0.78058 0.60802 0.95825 0.0
H252 H 0.05327 0.7489 0.21129 0.0
H253 H 0.99985 0.1764 0.13102 0.0
H254 H 0.05406 0.75817 0.12893 0.0
H255 H 0.99718 0.16763 0.21338 0.0
H256 H 0.01414 0.01957 0.12996 0.0
H257 H 0.0327 0.90232 0.21258 0.0
C258 C 0.05029 0.78399 0.19348 0.0
C259 C 0.0553 0.74096 0.16996 0.0
C260 C 1.01006 0.05165 0.14828 0.0
C261 C 0.03044 0.91527 0.17128 0.0
C262 C 1.00121 0.14076 0.14888 0.0
C263 C 0.99822 0.1853 0.17232 0.0
C264 C 0.0159 1.00685 0.17128 0.0
C265 C 1.00039 0.13617 0.1949 0.0
C266 C 0.0377 0.87099 0.19422 0.0
C267 C 0.05013 0.78881 0.14747 0.0
N268 N 1.00979 0.04982 0.19382 0.0
N269 N 0.03762 0.87326 0.14869 0.0
H270 H 0.42984 0.14548 0.46043 0.0
H271 H 0.94572 0.09059 0.5422 0.0
H272 H 0.41846 0.14865 0.54274 0.0
H273 H 0.96304 0.10523 0.45989 0.0
H274 H 0.11824 0.10964 0.54271 0.0
H275 H 0.2602 0.13394 0.45968 0.0
C276 C 0.392 0.14502 0.47833 0.0
C277 C 0.43724 0.14688 0.50169 0.0
C278 C 0.08422 0.10829 0.52452 0.0
C279 C 0.24332 0.13259 0.50104 0.0
C280 C 0.98537 0.09648 0.52422 0.0
C281 C 0.94018 0.09623 0.50095 0.0
C282 C 0.13793 0.11921 0.50138 0.0
C283 C 0.99541 0.10538 0.47823 0.0
C284 C 0.295 0.13772 0.47791 0.0
C285 C 0.38527 0.14598 0.52434 0.0
N286 N 0.09153 0.11665 0.47901 0.0
N287 N 0.29064 0.13813 0.52346 0.0
H288 H 0.95713 0.7249 0.8745 0.0
H289 H 0.41599 0.15612 0.78801 0.0
H290 H 0.96955 0.70338 0.79248 0.0
H291 H 0.36366 0.19929 0.86738 0.0
H292 H 0.26024 0.98454 0.78946 0.0
H293 H 0.11596 0.89303 0.87261 0.0
C294 C 0.99332 0.75592 0.85609 0.0
C295 C 0.94925 0.70162 0.83356 0.0
C296 C 0.28276 0.03197 0.80649 0.0
C297 C 0.13161 0.89277 0.83124 0.0
C298 C 0.37137 0.12985 0.80566 0.0
C299 C 0.40254 0.19225 0.82756 0.0
C300 C 0.22554 0.99625 0.82942 0.0
C301 C 0.34212 0.15434 0.84995 0.0
C302 C 0.08399 0.85167 0.85501 0.0
C303 C 1.00076 0.74351 0.81027 0.0
N304 N 0.25686 0.05868 0.85032 0.0
N305 N 0.08914 0.83703 0.80968 0.0
H306 H 0.50847 0.42325 0.01303 0.0
H307 H 0.1196 0.5705 0.08555 0.0
H308 H 0.37775 0.59021 0.97642 0.0
H309 H 0.2639 0.41452 0.12114 0.0
H310 H 0.20298 0.56944 0.04487 0.0
H311 H 0.40874 0.40922 0.05168 0.0
C312 C 0.45824 0.45664 0.01305 0.0
C313 C 0.45284 0.50923 0.9914 0.0
C314 C 0.21673 0.53578 0.0616 0.0
C315 C 0.33728 0.49328 0.03606 0.0
C316 C 0.16919 0.53639 0.08491 0.0
C317 C 0.18623 0.49432 0.10709 0.0
C318 C 0.28174 0.49233 0.06029 0.0
C319 C 0.25045 0.45029 0.10485 0.0
C320 C 0.40107 0.4485 0.03522 0.0
C321 C 0.3845 0.54892 0.99256 0.0
N322 N 0.29585 0.45075 0.08199 0.0
N323 N 0.3302 0.54099 0.01456 0.0
H324 H 0.86786 0.61489 0.3456 0.0
H325 H 0.84209 0.26358 0.24066 0.0
H326 H 0.7401 0.28613 0.35782 0.0
H327 H 0.83345 0.54336 0.22428 0.0
H328 H 0.76032 0.25278 0.28214 0.0
H329 H 0.81022 0.58003 0.30151 0.0
C330 C 0.8251 0.53518 0.33916 0.0
C331 C 0.81256 0.45367 0.35494 0.0
C332 C 0.77364 0.31531 0.2693 0.0
C333 C 0.74837 0.41327 0.30466 0.0
C334 C 0.82128 0.32179 0.24579 0.0
C335 C 0.84745 0.40638 0.22977 0.0
C336 C 0.7568 0.39666 0.27712 0.0
C337 C 0.81644 0.47834 0.23663 0.0
C338 C 0.79148 0.51505 0.31405 0.0
C339 C 0.75372 0.35157 0.34605 0.0
N340 N 0.77558 0.47385 0.26026 0.0
N341 N 0.72661 0.33438 0.32119 0.0
H342 H 0.80677 0.5805 0.75241 0.0
H343 H 0.53984 0.846 0.67648 0.0
H344 H 0.5211 0.5654 0.77625 0.0
H345 H 0.67464 0.68798 0.63575 0.0
H346 H 0.58636 0.79892 0.71694 0.0
H347 H 0.80255 0.6642 0.71252 0.0
C348 C 0.74383 0.59595 0.74957 0.0
C349 C 0.66528 0.56817 0.76831 0.0
C350 C 0.60803 0.77678 0.69912 0.0
C351 C 0.6625 0.66686 0.72297 0.0
C352 C 0.58291 0.80483 0.67609 0.0
C353 C 0.60402 0.77124 0.65282 0.0
C354 C 0.65466 0.71467 0.69893 0.0
C355 C 0.65828 0.71637 0.65332 0.0
C356 C 0.74201 0.64408 0.7268 0.0
C357 C 0.58565 0.58957 0.76319 0.0
N358 N 0.68083 0.68857 0.67608 0.0
N359 N 0.58678 0.63836 0.7412 0.0
H360 H 0.58643 0.19063 0.89076 0.0
H361 H 0.84151 0.3465 0.0261 0.0
H362 H 0.83775 0.49114 0.91169 0.0
H363 H 0.53993 0.07761 0.01423 0.0
H364 H 0.87031 0.36495 0.9809 0.0
H365 H 0.59697 0.12199 0.93222 0.0
C366 C 0.64441 0.24184 0.90407 0.0
C367 C 0.71039 0.34698 0.8982 0.0
C368 C 0.79848 0.30076 0.98814 0.0
C369 C 0.72255 0.26929 0.94523 0.0
C370 C 0.78188 0.28858 0.01424 0.0
C371 C 0.68669 0.21054 0.02442 0.0
C372 C 0.71855 0.23713 0.97186 0.0
C373 C 0.61299 0.14082 0.00736 0.0
C374 C 0.65036 0.20255 0.9276 0.0
C375 C 0.78418 0.41019 0.91585 0.0
N376 N 0.6295 0.15721 0.98179 0.0
N377 N 0.78779 0.37041 0.93875 0.0
H378 H 0.38958 0.83667 0.30802 0.0
H379 H 0.61884 0.84907 0.44624 0.0
H380 H 0.47862 0.61743 0.33372 0.0
H381 H 0.52634 0.06875 0.42292 0.0
H382 H 0.55283 0.75486 0.40644 0.0
H383 H 0.42418 0.91453 0.35089 0.0
C384 C 0.4147 0.8039 0.32282 0.0
C385 C 0.43216 0.72111 0.31728 0.0
C386 C 0.54611 0.82322 0.41003 0.0
C387 C 0.47235 0.80972 0.36627 0.0
C388 C 0.58292 0.87654 0.43298 0.0
C389 C 0.57694 0.96623 0.43823 0.0
C390 C 0.50429 0.86051 0.39178 0.0
C391 C 0.5329 1.0001 0.41971 0.0
C392 C 0.43498 0.84861 0.34723 0.0
C393 C 0.46547 0.68205 0.33709 0.0
N394 N 0.49878 0.94761 0.3973 0.0
N395 N 0.48485 0.72683 0.36057 0.0
H396 H 0.73522 0.36239 0.69454 0.0
H397 H 0.94116 0.33203 0.55775 0.0
H398 H 0.02966 0.38315 0.67814 0.0
H399 H 0.62721 0.25059 0.57718 0.0
H400 H 0.99729 0.42072 0.59865 0.0
H401 H 0.7241 0.39961 0.64976 0.0
C402 C 0.79942 0.37867 0.68173 0.0
C403 C 0.88136 0.36525 0.68969 0.0
C404 C 0.91644 0.38537 0.59377 0.0
C405 C 0.86756 0.40444 0.63856 0.0
C406 C 0.88434 0.33468 0.57045 0.0
C407 C 0.77908 0.28216 0.56445 0.0
C408 C 0.84238 0.38195 0.6113 0.0
C409 C 0.70869 0.2878 0.5815 0.0
C410 C 0.7926 0.39902 0.6561 0.0
C411 C 0.96314 0.3888 0.67241 0.0
N412 N 0.74139 0.33537 0.60438 0.0
N413 N 0.9528 0.40418 0.6474 0.0
loop_
_geom_bond_atom_site_label_1
_geom_bond_atom_site_label_2
_geom_bond_distance
_geom_bond_site_symmetry_2
_ccdc_geom_bond_type
Tb0 N29 2.617 . S
Tb0 N35 2.572 . S
Tb0 O44 2.465 . S
Tb0 O45 2.387 . S
Tb0 O47 2.428 . S
Tb0 O48 2.308 . S
Tb0 O52 2.349 1_655 S
Tb0 O55 2.393 . S
Tb0 C64 2.802 . S
C1 N2 1.379 . S
C1 C4 1.416 . S
C1 C8 1.424 . S
N2 C1 1.379 . S
N2 C5 1.334 . S
N2 Tb11 2.617 . S
C3 C5 1.390 . S
C3 C6 1.339 . S
C3 H23 0.930 . S
C4 C1 1.416 . S
C4 C6 1.416 . S
C4 C10 1.448 . S
C5 N2 1.334 . S
C5 C3 1.390 . S
C5 H16 0.930 . S
C6 C3 1.339 . S
C6 C4 1.416 . S
C6 H27 0.930 . S
C7 C8 1.413 . S
C7 C9 1.427 . S
C7 C13 1.416 . S
C8 C1 1.424 . S
C8 C7 1.413 . S
C8 N12 1.361 . S
C9 C7 1.427 . S
C9 C10 1.328 . S
C9 H24 0.929 . S
C10 C4 1.448 . S
C10 C9 1.328 . S
C10 H25 0.930 . S
Tb11 N2 2.617 . S
Tb11 N12 2.572 . S
Tb11 O46 2.349 1_455 S
Tb11 O49 2.393 . S
Tb11 O50 2.465 . S
Tb11 O51 2.387 . S
Tb11 O53 2.428 . S
Tb11 O54 2.308 . S
Tb11 C75 2.802 . S
N12 C8 1.361 . S
N12 Tb11 2.572 . S
N12 C14 1.340 . S
C13 C7 1.416 . S
C13 C15 1.332 . S
C13 H21 0.931 . S
C14 N12 1.340 . S
C14 C15 1.407 . S
C14 H20 0.930 . S
C15 C13 1.332 . S
C15 C14 1.407 . S
C15 H17 0.929 . S
H16 C5 0.930 . S
H17 C15 0.929 . S
H18 C33 0.930 . S
H19 C40 0.929 . S
H20 C14 0.930 . S
H21 C13 0.931 . S
H22 C36 0.930 . S
H23 C3 0.930 . S
H24 C9 0.929 . S
H25 C10 0.930 . S
H26 C31 0.930 . S
H27 C6 0.930 . S
H28 C39 0.931 . S
N29 Tb0 2.617 . S
N29 C30 1.379 . S
N29 C33 1.334 . S
C30 N29 1.379 . S
C30 C32 1.416 . S
C30 C38 1.424 . S
C31 H26 0.930 . S
C31 C33 1.390 . S
C31 C34 1.339 . S
C32 C30 1.416 . S
C32 C34 1.416 . S
C32 C65 1.448 . S
C33 H18 0.930 . S
C33 N29 1.334 . S
C33 C31 1.390 . S
C34 C31 1.339 . S
C34 C32 1.416 . S
C34 H41 0.930 . S
N35 Tb0 2.572 . S
N35 C36 1.340 . S
N35 C38 1.361 . S
C36 H22 0.930 . S
C36 N35 1.340 . S
C36 C40 1.407 . S
C37 C38 1.413 . S
C37 C39 1.416 . S
C37 C66 1.427 . S
C38 C30 1.424 . S
C38 N35 1.361 . S
C38 C37 1.413 . S
C39 H28 0.931 . S
C39 C37 1.416 . S
C39 C40 1.332 . S
C40 H19 0.929 . S
C40 C36 1.407 . S
C40 C39 1.332 . S
H41 C34 0.930 . S
H42 C65 0.930 . S
H43 C66 0.929 . S
O44 Tb0 2.465 . S
O44 C64 1.264 . S
O45 Tb0 2.387 . S
O45 C56 1.264 . S
O46 Tb11 2.349 1_655 S
O46 C56 1.243 . S
O47 Tb0 2.428 . S
O47 C64 1.256 . S
O48 Tb0 2.308 . S
O48 C63 1.266 . S
O49 Tb11 2.393 . S
O49 C63 1.248 1_455 S
O50 Tb11 2.465 . S
O50 C75 1.264 . S
O51 Tb11 2.387 . S
O51 C67 1.264 . S
O52 Tb0 2.349 1_455 S
O52 C67 1.243 . S
O53 Tb11 2.428 . S
O53 C75 1.256 . S
O54 Tb11 2.308 . S
O54 C74 1.266 . S
O55 Tb0 2.393 . S
O55 C74 1.248 1_655 S
C56 O45 1.264 . S
C56 O46 1.243 . S
C57 C60 1.399 . S
C57 C62 1.383 . S
C57 C64 1.496 . S
C58 C59 1.399 . S
C58 C62 1.389 . S
C59 C58 1.399 . S
C59 C61 1.380 . S
C59 H76 0.929 . S
C60 C57 1.399 . S
C60 C61 1.392 . S
C60 H77 0.929 . S
C61 C59 1.380 . S
C61 C60 1.392 . S
C61 H78 0.929 . S
C62 C57 1.383 . S
C62 C58 1.389 . S
C62 H79 0.931 . S
C63 O48 1.266 . S
C63 O49 1.248 1_655 S
C64 Tb0 2.802 . S
C64 O44 1.264 . S
C64 O47 1.256 . S
C64 C57 1.496 . S
C65 C32 1.448 . S
C65 H42 0.930 . S
C65 C66 1.328 . S
C66 C37 1.427 . S
C66 H43 0.929 . S
C66 C65 1.328 . S
C67 O51 1.264 . S
C67 O52 1.243 . S
C68 C71 1.399 . S
C68 C72 1.383 . S
C68 C75 1.496 . S
C69 C70 1.399 . S
C69 C72 1.389 . S
C70 C69 1.399 . S
C70 C73 1.380 . S
C70 H80 0.929 . S
C71 C68 1.399 . S
C71 C73 1.392 . S
C71 H81 0.929 . S
C72 C68 1.383 . S
C72 C69 1.389 . S
C72 H82 0.931 . S
C73 C70 1.380 . S
C73 C71 1.392 . S
C73 H83 0.929 . S
C74 O54 1.266 . S
C74 O55 1.248 1_455 S
C75 Tb11 2.802 . S
C75 O50 1.264 . S
C75 O53 1.256 . S
C75 C68 1.496 . S
H76 C59 0.929 . S
H77 C60 0.929 . S
H78 C61 0.929 . S
H79 C62 0.931 . S
H80 C70 0.929 . S
H81 C71 0.929 . S
H82 C72 0.931 . S
H83 C73 0.929 . S
Tb84 N113 2.617 . S
Tb84 N119 2.572 . S
Tb84 O128 2.465 . S
Tb84 O129 2.387 . S
Tb84 O131 2.428 . S
Tb84 O132 2.308 . S
Tb84 O136 2.349 . S
Tb84 O139 2.393 . S
Tb84 C148 2.802 . S
C85 N86 1.379 . S
C85 C88 1.416 . S
C85 C92 1.424 . S
N86 C85 1.379 . S
N86 C89 1.334 . S
N86 Tb95 2.617 . S
C87 C89 1.390 . S
C87 C90 1.339 . S
C87 H107 0.930 . S
C88 C85 1.416 . S
C88 C90 1.416 . S
C88 C94 1.448 . S
C89 N86 1.334 . S
C89 C87 1.390 . S
C89 H100 0.930 . S
C90 C87 1.339 . S
C90 C88 1.416 . S
C90 H111 0.930 . S
C91 C92 1.413 . S
C91 C93 1.427 . S
C91 C97 1.416 . S
C92 C85 1.424 . S
C92 C91 1.413 . S
C92 N96 1.361 . S
C93 C91 1.427 . S
C93 C94 1.328 . S
C93 H108 0.929 . S
C94 C88 1.448 . S
C94 C93 1.328 . S
C94 H109 0.930 . S
Tb95 N86 2.617 . S
Tb95 N96 2.572 . S
Tb95 O130 2.349 1_565 S
Tb95 O133 2.393 1_565 S
Tb95 O134 2.465 . S
Tb95 O135 2.387 . S
Tb95 O137 2.428 . S
Tb95 O138 2.308 1_565 S
Tb95 C159 2.802 . S
N96 C92 1.361 . S
N96 Tb95 2.572 . S
N96 C98 1.340 . S
C97 C91 1.416 . S
C97 C99 1.332 . S
C97 H105 0.931 . S
C98 N96 1.340 . S
C98 C99 1.407 . S
C98 H104 0.930 . S
C99 C97 1.332 . S
C99 C98 1.407 . S
C99 H101 0.929 . S
H100 C89 0.930 . S
H101 C99 0.929 . S
H102 C117 0.930 . S
H103 C124 0.929 . S
H104 C98 0.930 . S
H105 C97 0.931 . S
H106 C120 0.930 . S
H107 C87 0.930 . S
H108 C93 0.929 . S
H109 C94 0.930 . S
H110 C115 0.930 . S
H111 C90 0.930 . S
H112 C123 0.931 . S
N113 Tb84 2.617 . S
N113 C114 1.379 . S
N113 C117 1.334 1_655 S
C114 N113 1.379 . S
C114 C116 1.416 1_655 S
C114 C122 1.424 . S
C115 H110 0.930 . S
C115 C117 1.390 . S
C115 C118 1.339 . S
C116 C114 1.416 1_455 S
C116 C118 1.416 . S
C116 C149 1.448 . S
C117 H102 0.930 . S
C117 N113 1.334 1_455 S
C117 C115 1.390 . S
C118 C115 1.339 . S
C118 C116 1.416 . S
C118 H125 0.930 . S
N119 Tb84 2.572 . S
N119 C120 1.340 . S
N119 C122 1.361 . S
C120 H106 0.930 . S
C120 N119 1.340 . S
C120 C124 1.407 . S
C121 C122 1.413 . S
C121 C123 1.416 . S
C121 C150 1.427 1_655 S
C122 C114 1.424 . S
C122 N119 1.361 . S
C122 C121 1.413 . S
C123 H112 0.931 . S
C123 C121 1.416 . S
C123 C124 1.332 . S
C124 H103 0.929 . S
C124 C120 1.407 . S
C124 C123 1.332 . S
H125 C118 0.930 . S
H126 C149 0.930 . S
H127 C150 0.929 . S
O128 Tb84 2.465 . S
O128 C148 1.264 . S
O129 Tb84 2.387 . S
O129 C140 1.264 . S
O130 Tb95 2.349 1_545 S
O130 C140 1.243 . S
O131 Tb84 2.428 . S
O131 C148 1.256 . S
O132 Tb84 2.308 . S
O132 C147 1.266 . S
O133 Tb95 2.393 1_545 S
O133 C147 1.248 . S
O134 Tb95 2.465 . S
O134 C159 1.264 . S
O135 Tb95 2.387 . S
O135 C151 1.264 1_565 S
O136 Tb84 2.349 . S
O136 C151 1.243 . S
O137 Tb95 2.428 . S
O137 C159 1.256 . S
O138 Tb95 2.308 1_545 S
O138 C158 1.266 . S
O139 Tb84 2.393 . S
O139 C158 1.248 . S
C140 O129 1.264 . S
C140 O130 1.243 . S
C141 C144 1.399 . S
C141 C146 1.383 . S
C141 C148 1.496 . S
C142 C143 1.399 . S
C142 C146 1.389 . S
C143 C142 1.399 . S
C143 C145 1.380 . S
C143 H160 0.929 . S
C144 C141 1.399 . S
C144 C145 1.392 . S
C144 H161 0.929 . S
C145 C143 1.380 . S
C145 C144 1.392 . S
C145 H162 0.929 . S
C146 C141 1.383 . S
C146 C142 1.389 . S
C146 H163 0.931 . S
C147 O132 1.266 . S
C147 O133 1.248 . S
C148 Tb84 2.802 . S
C148 O128 1.264 . S
C148 O131 1.256 . S
C148 C141 1.496 . S
C149 C116 1.448 . S
C149 H126 0.930 . S
C149 C150 1.328 . S
C150 C121 1.427 1_455 S
C150 H127 0.929 . S
C150 C149 1.328 . S
C151 O135 1.264 1_545 S
C151 O136 1.243 . S
C152 C155 1.399 . S
C152 C156 1.383 . S
C152 C159 1.496 . S
C153 C154 1.399 . S
C153 C156 1.389 . S
C154 C153 1.399 . S
C154 C157 1.380 . S
C154 H164 0.929 . S
C155 C152 1.399 . S
C155 C157 1.392 . S
C155 H165 0.929 . S
C156 C152 1.383 . S
C156 C153 1.389 . S
C156 H166 0.931 . S
C157 C154 1.380 . S
C157 C155 1.392 . S
C157 H167 0.929 . S
C158 O138 1.266 . S
C158 O139 1.248 . S
C159 Tb95 2.802 . S
C159 O134 1.264 . S
C159 O137 1.256 . S
C159 C152 1.496 . S
H160 C143 0.929 . S
H161 C144 0.929 . S
H162 C145 0.929 . S
H163 C146 0.931 . S
H164 C154 0.929 . S
H165 C155 0.929 . S
H166 C156 0.931 . S
H167 C157 0.929 . S
Tb168 N197 2.617 . S
Tb168 N203 2.572 . S
Tb168 O212 2.465 . S
Tb168 O213 2.387 . S
Tb168 O215 2.428 . S
Tb168 O216 2.308 . S
Tb168 O220 2.349 . S
Tb168 O223 2.393 . S
Tb168 C232 2.802 . S
C169 N170 1.379 . S
C169 C172 1.416 . S
C169 C176 1.424 . S
N170 C169 1.379 . S
N170 C173 1.334 . S
N170 Tb179 2.617 . S
C171 C173 1.390 . S
C171 C174 1.339 . S
C171 H191 0.930 . S
C172 C169 1.416 . S
C172 C174 1.416 . S
C172 C178 1.448 . S
C173 N170 1.334 . S
C173 C171 1.390 . S
C173 H184 0.930 . S
C174 C171 1.339 . S
C174 C172 1.416 . S
C174 H195 0.930 . S
C175 C176 1.413 . S
C175 C177 1.427 . S
C175 C181 1.416 . S
C176 C169 1.424 . S
C176 C175 1.413 . S
C176 N180 1.361 . S
C177 C175 1.427 . S
C177 C178 1.328 . S
C177 H192 0.929 . S
C178 C172 1.448 . S
C178 C177 1.328 . S
C178 H193 0.930 . S
Tb179 N170 2.617 . S
Tb179 N180 2.572 . S
Tb179 O214 2.349 . S
Tb179 O217 2.393 . S
Tb179 O218 2.465 . S
Tb179 O219 2.387 . S
Tb179 O221 2.428 . S
Tb179 O222 2.308 . S
Tb179 C243 2.802 . S
N180 C176 1.361 . S
N180 Tb179 2.572 . S
N180 C182 1.340 . S
C181 C175 1.416 . S
C181 C183 1.332 . S
C181 H189 0.931 . S
C182 N180 1.340 . S
C182 C183 1.407 . S
C182 H188 0.930 . S
C183 C181 1.332 . S
C183 C182 1.407 . S
C183 H185 0.929 . S
H184 C173 0.930 . S
H185 C183 0.929 . S
H186 C201 0.930 . S
H187 C208 0.929 . S
H188 C182 0.930 . S
H189 C181 0.931 . S
H190 C204 0.930 . S
H191 C171 0.930 . S
H192 C177 0.929 . S
H193 C178 0.930 . S
H194 C199 0.930 . S
H195 C174 0.930 . S
H196 C207 0.931 . S
N197 Tb168 2.617 . S
N197 C198 1.379 . S
N197 C201 1.334 . S
C198 N197 1.379 . S
C198 C200 1.416 . S
C198 C206 1.424 . S
C199 H194 0.930 . S
C199 C201 1.390 1_565 S
C199 C202 1.339 . S
C200 C198 1.416 . S
C200 C202 1.416 1_545 S
C200 C233 1.448 . S
C201 H186 0.930 . S
C201 N197 1.334 . S
C201 C199 1.390 1_545 S
C202 C199 1.339 . S
C202 C200 1.416 1_565 S
C202 H209 0.930 . S
N203 Tb168 2.572 . S
N203 C204 1.340 . S
N203 C206 1.361 . S
C204 H190 0.930 . S
C204 N203 1.340 . S
C204 C208 1.407 1_655 S
C205 C206 1.413 . S
C205 C207 1.416 1_655 S
C205 C234 1.427 . S
C206 C198 1.424 . S
C206 N203 1.361 . S
C206 C205 1.413 . S
C207 H196 0.931 . S
C207 C205 1.416 1_455 S
C207 C208 1.332 . S
C208 H187 0.929 . S
C208 C204 1.407 1_455 S
C208 C207 1.332 . S
H209 C202 0.930 . S
H210 C233 0.930 1_565 S
H211 C234 0.929 . S
O212 Tb168 2.465 . S
O212 C232 1.264 . S
O213 Tb168 2.387 . S
O213 C224 1.264 . S
O214 Tb179 2.349 . S
O214 C224 1.243 . S
O215 Tb168 2.428 . S
O215 C232 1.256 . S
O216 Tb168 2.308 . S
O216 C231 1.266 . S
O217 Tb179 2.393 . S
O217 C231 1.248 . S
O218 Tb179 2.465 . S
O218 C243 1.264 . S
O219 Tb179 2.387 . S
O219 C235 1.264 . S
O220 Tb168 2.349 . S
O220 C235 1.243 . S
O221 Tb179 2.428 . S
O221 C243 1.256 . S
O222 Tb179 2.308 . S
O222 C242 1.266 . S
O223 Tb168 2.393 . S
O223 C242 1.248 . S
C224 O213 1.264 . S
C224 O214 1.243 . S
C225 C228 1.399 . S
C225 C230 1.383 . S
C225 C232 1.496 . S
C226 C227 1.399 . S
C226 C230 1.389 . S
C227 C226 1.399 . S
C227 C229 1.380 . S
C227 H244 0.929 . S
C228 C225 1.399 . S
C228 C229 1.392 . S
C228 H245 0.929 . S
C229 C227 1.380 . S
C229 C228 1.392 . S
C229 H246 0.929 . S
C230 C225 1.383 . S
C230 C226 1.389 . S
C230 H247 0.931 . S
C231 O216 1.266 . S
C231 O217 1.248 . S
C232 Tb168 2.802 . S
C232 O212 1.264 . S
C232 O215 1.256 . S
C232 C225 1.496 . S
C233 C200 1.448 . S
C233 H210 0.930 1_545 S
C233 C234 1.328 . S
C234 C205 1.427 . S
C234 H211 0.929 . S
C234 C233 1.328 . S
C235 O219 1.264 . S
C235 O220 1.243 . S
C236 C239 1.399 . S
C236 C240 1.383 . S
C236 C243 1.496 . S
C237 C238 1.399 . S
C237 C240 1.389 . S
C238 C237 1.399 . S
C238 C241 1.380 . S
C238 H248 0.929 . S
C239 C236 1.399 . S
C239 C241 1.392 . S
C239 H249 0.929 . S
C240 C236 1.383 . S
C240 C237 1.389 . S
C240 H250 0.931 . S
C241 C238 1.380 . S
C241 C239 1.392 . S
C241 H251 0.929 . S
C242 O222 1.266 . S
C242 O223 1.248 . S
C243 Tb179 2.802 . S
C243 O218 1.264 . S
C243 O221 1.256 . S
C243 C236 1.496 . S
H244 C227 0.929 . S
H245 C228 0.929 . S
H246 C229 0.929 . S
H247 C230 0.931 . S
H248 C238 0.929 . S
H249 C239 0.929 . S
H250 C240 0.931 . S
H251 C241 0.929 . S
H252 C258 0.930 . S
H253 C262 0.930 . S
H254 C267 0.929 . S
H255 C265 0.929 . S
H256 C260 0.929 . S
H257 C266 0.929 . S
C258 H252 0.930 . S
C258 C259 1.367 . S
C258 C266 1.378 . S
C259 C258 1.367 . S
C259 C267 1.433 1_455 S
C260 H256 0.929 . S
C260 C262 1.378 1_565 S
C260 C264 1.350 . S
C261 C264 1.463 1_455 S
C261 C266 1.350 . S
C261 N269 1.427 1_455 S
C262 H253 0.930 . S
C262 C260 1.378 1_545 S
C262 C263 1.367 . S
C263 C262 1.367 . S
C263 C265 1.433 1_655 S
C264 C260 1.350 . S
C264 C261 1.463 1_655 S
C264 N268 1.427 1_665 S
C265 H255 0.929 . S
C265 C263 1.433 1_455 S
C265 N268 1.384 . S
C266 H257 0.929 . S
C266 C258 1.378 . S
C266 C261 1.350 . S
C267 H254 0.929 . S
C267 C259 1.433 1_655 S
C267 N269 1.384 . S
N268 C264 1.427 1_445 S
N268 C265 1.384 . S
N269 C261 1.427 1_655 S
N269 C267 1.384 . S
H270 C276 0.930 1_565 S
H271 C280 0.930 . S
H272 C285 0.929 . S
H273 C283 0.929 1_565 S
H274 C278 0.929 . S
H275 C284 0.929 1_565 S
C276 H270 0.930 1_545 S
C276 C277 1.367 . S
C276 C284 1.378 . S
C277 C276 1.367 . S
C277 C285 1.433 . S
C278 H274 0.929 . S
C278 C280 1.378 . S
C278 C282 1.350 . S
C279 C282 1.463 . S
C279 C284 1.350 . S
C279 N287 1.427 . S
C280 H271 0.930 . S
C280 C278 1.378 . S
C280 C281 1.367 1_455 S
C281 C280 1.367 1_655 S
C281 C283 1.433 . S
C282 C278 1.350 . S
C282 C279 1.463 . S
C282 N286 1.427 . S
C283 H273 0.929 1_545 S
C283 C281 1.433 . S
C283 N286 1.384 1_655 S
C284 H275 0.929 1_545 S
C284 C276 1.378 . S
C284 C279 1.350 . S
C285 H272 0.929 . S
C285 C277 1.433 . S
C285 N287 1.384 . S
N286 C282 1.427 . S
N286 C283 1.384 1_455 S
N287 C279 1.427 . S
N287 C285 1.384 . S
H288 C294 0.930 . S
H289 C298 0.930 . S
H290 C303 0.929 . S
H291 C301 0.929 . S
H292 C296 0.929 1_565 S
H293 C302 0.929 . S
C294 H288 0.930 . S
C294 C295 1.367 . S
C294 C302 1.378 1_655 S
C295 C294 1.367 . S
C295 C303 1.433 1_655 S
C296 H292 0.929 1_545 S
C296 C298 1.378 . S
C296 C300 1.350 1_545 S
C297 C300 1.463 . S
C297 C302 1.350 . S
C297 N305 1.427 . S
C298 H289 0.930 . S
C298 C296 1.378 . S
C298 C299 1.367 . S
C299 C298 1.367 . S
C299 C301 1.433 . S
C300 C296 1.350 1_565 S
C300 C297 1.463 . S
C300 N304 1.427 1_565 S
C301 H291 0.929 . S
C301 C299 1.433 . S
C301 N304 1.384 . S
C302 H293 0.929 . S
C302 C294 1.378 1_455 S
C302 C297 1.350 . S
C303 H290 0.929 . S
C303 C295 1.433 1_455 S
C303 N305 1.384 . S
N304 C300 1.427 1_545 S
N304 C301 1.384 . S
N305 C297 1.427 . S
N305 C303 1.384 . S
H306 C312 0.930 . S
H307 C316 0.930 . S
H308 C321 0.929 . S
H309 C319 0.929 . S
H310 C314 0.929 . S
H311 C320 0.929 . S
C312 H306 0.930 . S
C312 C313 1.367 1_554 S
C312 C320 1.378 . S
C313 C312 1.367 1_556 S
C313 C321 1.433 . S
C314 H310 0.929 . S
C314 C316 1.378 . S
C314 C318 1.350 . S
C315 C318 1.463 . S
C315 C320 1.350 . S
C315 N323 1.427 . S
C316 H307 0.930 . S
C316 C314 1.378 . S
C316 C317 1.367 . S
C317 C316 1.367 . S
C317 C319 1.433 . S
C318 C314 1.350 . S
C318 C315 1.463 . S
C318 N322 1.427 . S
C319 H309 0.929 . S
C319 C317 1.433 . S
C319 N322 1.384 . S
C320 H311 0.929 . S
C320 C312 1.378 . S
C320 C315 1.350 . S
C321 H308 0.929 . S
C321 C313 1.433 . S
C321 N323 1.384 1_556 S
N322 C318 1.427 . S
N322 C319 1.384 . S
N323 C315 1.427 . S
N323 C321 1.384 1_554 S
H324 C330 0.930 . S
H325 C334 0.930 . S
H326 C339 0.929 . S
H327 C337 0.929 . S
H328 C332 0.929 . S
H329 C338 0.929 . S
C330 H324 0.930 . S
C330 C331 1.367 . S
C330 C338 1.378 . S
C331 C330 1.367 . S
C331 C339 1.433 . S
C332 H328 0.929 . S
C332 C334 1.378 . S
C332 C336 1.350 . S
C333 C336 1.463 . S
C333 C338 1.350 . S
C333 N341 1.427 . S
C334 H325 0.930 . S
C334 C332 1.378 . S
C334 C335 1.367 . S
C335 C334 1.367 . S
C335 C337 1.433 . S
C336 C332 1.350 . S
C336 C333 1.463 . S
C336 N340 1.427 . S
C337 H327 0.929 . S
C337 C335 1.433 . S
C337 N340 1.384 . S
C338 H329 0.929 . S
C338 C330 1.378 . S
C338 C333 1.350 . S
C339 H326 0.929 . S
C339 C331 1.433 . S
C339 N341 1.384 . S
N340 C336 1.427 . S
N340 C337 1.384 . S
N341 C333 1.427 . S
N341 C339 1.384 . S
H342 C348 0.930 . S
H343 C352 0.930 . S
H344 C357 0.929 . S
H345 C355 0.929 . S
H346 C350 0.929 . S
H347 C356 0.929 . S
C348 H342 0.930 . S
C348 C349 1.367 . S
C348 C356 1.378 . S
C349 C348 1.367 . S
C349 C357 1.433 . S
C350 H346 0.929 . S
C350 C352 1.378 . S
C350 C354 1.350 . S
C351 C354 1.463 . S
C351 C356 1.350 . S
C351 N359 1.427 . S
C352 H343 0.930 . S
C352 C350 1.378 . S
C352 C353 1.367 . S
C353 C352 1.367 . S
C353 C355 1.433 . S
C354 C350 1.350 . S
C354 C351 1.463 . S
C354 N358 1.427 . S
C355 H345 0.929 . S
C355 C353 1.433 . S
C355 N358 1.384 . S
C356 H347 0.929 . S
C356 C348 1.378 . S
C356 C351 1.350 . S
C357 H344 0.929 . S
C357 C349 1.433 . S
C357 N359 1.384 . S
N358 C354 1.427 . S
N358 C355 1.384 . S
N359 C351 1.427 . S
N359 C357 1.384 . S
H360 C366 0.930 . S
H361 C370 0.930 . S
H362 C375 0.929 . S
H363 C373 0.925 1_554 S
H364 C368 0.929 . S
H365 C374 0.929 . S
C366 H360 0.930 . S
C366 C367 1.367 . S
C366 C374 1.378 . S
C367 C366 1.367 . S
C367 C375 1.433 . S
C368 H364 0.929 . S
C368 C370 1.378 1_556 S
C368 C372 1.350 . S
C369 C372 1.463 . S
C369 C374 1.350 . S
C369 N377 1.427 . S
C370 H361 0.930 . S
C370 C368 1.378 1_554 S
C370 C371 1.367 . S
C371 C370 1.367 . S
C371 C373 1.405 1_554 S
C372 C368 1.350 . S
C372 C369 1.463 . S
C372 N376 1.427 . S
C373 H363 0.925 1_556 S
C373 C371 1.405 1_556 S
C373 N376 1.417 . S
C374 H365 0.929 . S
C374 C366 1.378 . S
C374 C369 1.350 . S
C375 H362 0.929 . S
C375 C367 1.433 . S
C375 N377 1.384 . S
N376 C372 1.427 . S
N376 C373 1.417 . S
N377 C369 1.427 . S
N377 C375 1.384 . S
H378 C384 0.930 . S
H379 C388 0.930 . S
H380 C393 0.929 . S
H381 C391 0.929 . S
H382 C386 0.929 . S
H383 C392 0.929 . S
C384 H378 0.930 . S
C384 C385 1.367 . S
C384 C392 1.378 . S
C385 C384 1.367 . S
C385 C393 1.433 . S
C386 H382 0.929 . S
C386 C388 1.378 . S
C386 C390 1.350 . S
C387 C390 1.463 . S
C387 C392 1.350 . S
C387 N395 1.427 . S
C388 H379 0.930 . S
C388 C386 1.378 . S
C388 C389 1.367 . S
C389 C388 1.367 . S
C389 C391 1.433 1_565 S
C390 C386 1.350 . S
C390 C387 1.463 . S
C390 N394 1.427 . S
C391 H381 0.929 . S
C391 C389 1.433 1_545 S
C391 N394 1.384 1_545 S
C392 H383 0.929 . S
C392 C384 1.378 . S
C392 C387 1.350 . S
C393 H380 0.929 . S
C393 C385 1.433 . S
C393 N395 1.384 . S
N394 C390 1.427 . S
N394 C391 1.384 1_565 S
N395 C387 1.427 . S
N395 C393 1.384 . S
H396 C402 0.930 . S
H397 C406 0.930 . S
H398 C411 0.929 . S
H399 C409 0.929 . S
H400 C404 0.929 . S
H401 C410 0.929 . S
C402 H396 0.930 . S
C402 C403 1.367 . S
C402 C410 1.378 . S
C403 C402 1.367 . S
C403 C411 1.433 1_655 S
C404 H400 0.929 . S
C404 C406 1.378 . S
C404 C408 1.350 . S
C405 C408 1.463 . S
C405 C410 1.350 . S
C405 N413 1.427 1_655 S
C406 H397 0.930 . S
C406 C404 1.378 . S
C406 C407 1.367 . S
C407 C406 1.367 . S
C407 C409 1.433 . S
C408 C404 1.350 . S
C408 C405 1.463 . S
C408 N412 1.427 . S
C409 H399 0.929 . S
C409 C407 1.433 . S
C409 N412 1.384 . S
C410 H401 0.929 . S
C410 C402 1.378 . S
C410 C405 1.350 . S
C411 H398 0.929 . S
C411 C403 1.433 1_455 S
C411 N413 1.384 . S
N412 C408 1.427 . S
N412 C409 1.384 . S
N413 C405 1.427 1_455 S
N413 C411 1.384 . S
C259 C74 1.550 . S
C263 C63 1.550 . S
C277 C147 1.540 . S
C281 C158 1.540 . S
C295 C231 1.536 . S
C299 C242 1.536 . S
C313 C237 1.430 . S
C317 C67 1.570 . S
C331 C142 1.035 . S
C335 C56 1.419 . S
C349 C235 1.561 . S
C353 C153 1.414 . S
C367 C224 1.410 . S
C371 C58 1.013 . S
C385 C69 1.438 . S
C389 C151 1.571 1_565 S
C403 C226 1.018 . S
C407 C140 1.404 . S
