# Generated by pormake.
# Topology mer, (4)-cn, num edge types: 1
# Building blocks:
#     Node 0, Type 0, BuildingBlock: ESEHIV_clean_sbu_0, # of connection points: 4
#     Node 1, Type 0, BuildingBlock: ESEHIV_clean_sbu_0, # of connection points: 4
#     Node 2, Type 0, BuildingBlock: ESEHIV_clean_sbu_0, # of connection points: 4
#     Node 3, Type 0, BuildingBlock: ESEHIV_clean_sbu_0, # of connection points: 4
#     Node 4, Type 0, BuildingBlock: ESEHIV_clean_sbu_0, # of connection points: 4
#     Node 5, Type 0, BuildingBlock: ESEHIV_clean_sbu_0, # of connection points: 4
#     Node 6, Type 0, BuildingBlock: ESEHIV_clean_sbu_0, # of connection points: 4
#     Node 7, Type 0, BuildingBlock: ESEHIV_clean_sbu_0, # of connection points: 4
#     Node 8, Type 0, BuildingBlock: ESEHIV_clean_sbu_0, # of connection points: 4
#     Node 9, Type 0, BuildingBlock: ESEHIV_clean_sbu_0, # of connection points: 4
#     Node 10, Type 0, BuildingBlock: ESEHIV_clean_sbu_0, # of connection points: 4
#     Node 11, Type 0, BuildingBlock: ESEHIV_clean_sbu_0, # of connection points: 4
#     Node 12, Type 0, BuildingBlock: ESEHIV_clean_sbu_0, # of connection points: 4
#     Node 13, Type 0, BuildingBlock: ESEHIV_clean_sbu_0, # of connection points: 4
#     Node 14, Type 0, BuildingBlock: ESEHIV_clean_sbu_0, # of connection points: 4
#     Node 15, Type 0, BuildingBlock: ESEHIV_clean_sbu_0, # of connection points: 4
#     Node 16, Type 0, BuildingBlock: ESEHIV_clean_sbu_0, # of connection points: 4
#     Node 17, Type 0, BuildingBlock: ESEHIV_clean_sbu_0, # of connection points: 4
#     Node 18, Type 0, BuildingBlock: ESEHIV_clean_sbu_0, # of connection points: 4
#     Node 19, Type 0, BuildingBlock: ESEHIV_clean_sbu_0, # of connection points: 4
#     Node 20, Type 0, BuildingBlock: ESEHIV_clean_sbu_0, # of connection points: 4
#     Node 21, Type 0, BuildingBlock: ESEHIV_clean_sbu_0, # of connection points: 4
#     Node 22, Type 0, BuildingBlock: ESEHIV_clean_sbu_0, # of connection points: 4
#     Node 23, Type 0, BuildingBlock: ESEHIV_clean_sbu_0, # of connection points: 4
#     Node 24, Type 0, BuildingBlock: ESEHIV_clean_sbu_0, # of connection points: 4
#     Node 25, Type 0, BuildingBlock: ESEHIV_clean_sbu_0, # of connection points: 4
#     Node 26, Type 0, BuildingBlock: ESEHIV_clean_sbu_0, # of connection points: 4
#     Node 27, Type 0, BuildingBlock: ESEHIV_clean_sbu_0, # of connection points: 4
#     Node 28, Type 0, BuildingBlock: ESEHIV_clean_sbu_0, # of connection points: 4
#     Node 29, Type 0, BuildingBlock: ESEHIV_clean_sbu_0, # of connection points: 4
#     Node 30, Type 0, BuildingBlock: ESEHIV_clean_sbu_0, # of connection points: 4
#     Node 31, Type 0, BuildingBlock: ESEHIV_clean_sbu_0, # of connection points: 4
#     Edge 32, Type (0, 0), BuildingBlock: EZIPEK_clean_linker_0, # of connection points: 2
#     Edge 33, Type (0, 0), BuildingBlock: EZIPEK_clean_linker_0, # of connection points: 2
#     Edge 34, Type (0, 0), BuildingBlock: EZIPEK_clean_linker_0, # of connection points: 2
#     Edge 35, Type (0, 0), BuildingBlock: EZIPEK_clean_linker_0, # of connection points: 2
#     Edge 36, Type (0, 0), BuildingBlock: EZIPEK_clean_linker_0, # of connection points: 2
#     Edge 37, Type (0, 0), BuildingBlock: EZIPEK_clean_linker_0, # of connection points: 2
#     Edge 38, Type (0, 0), BuildingBlock: EZIPEK_clean_linker_0, # of connection points: 2
#     Edge 39, Type (0, 0), BuildingBlock: EZIPEK_clean_linker_0, # of connection points: 2
#     Edge 40, Type (0, 0), BuildingBlock: EZIPEK_clean_linker_0, # of connection points: 2
#     Edge 41, Type (0, 0), BuildingBlock: EZIPEK_clean_linker_0, # of connection points: 2
#     Edge 42, Type (0, 0), BuildingBlock: EZIPEK_clean_linker_0, # of connection points: 2
#     Edge 43, Type (0, 0), BuildingBlock: EZIPEK_clean_linker_0, # of connection points: 2
#     Edge 44, Type (0, 0), BuildingBlock: EZIPEK_clean_linker_0, # of connection points: 2
#     Edge 45, Type (0, 0), BuildingBlock: EZIPEK_clean_linker_0, # of connection points: 2
#     Edge 46, Type (0, 0), BuildingBlock: EZIPEK_clean_linker_0, # of connection points: 2
#     Edge 47, Type (0, 0), BuildingBlock: EZIPEK_clean_linker_0, # of connection points: 2
#     Edge 48, Type (0, 0), BuildingBlock: EZIPEK_clean_linker_0, # of connection points: 2
#     Edge 49, Type (0, 0), BuildingBlock: EZIPEK_clean_linker_0, # of connection points: 2
#     Edge 50, Type (0, 0), BuildingBlock: EZIPEK_clean_linker_0, # of connection points: 2
#     Edge 51, Type (0, 0), BuildingBlock: EZIPEK_clean_linker_0, # of connection points: 2
#     Edge 52, Type (0, 0), BuildingBlock: EZIPEK_clean_linker_0, # of connection points: 2
#     Edge 53, Type (0, 0), BuildingBlock: EZIPEK_clean_linker_0, # of connection points: 2
#     Edge 54, Type (0, 0), BuildingBlock: EZIPEK_clean_linker_0, # of connection points: 2
#     Edge 55, Type (0, 0), BuildingBlock: EZIPEK_clean_linker_0, # of connection points: 2
#     Edge 56, Type (0, 0), BuildingBlock: EZIPEK_clean_linker_0, # of connection points: 2
#     Edge 57, Type (0, 0), BuildingBlock: EZIPEK_clean_linker_0, # of connection points: 2
#     Edge 58, Type (0, 0), BuildingBlock: EZIPEK_clean_linker_0, # of connection points: 2
#     Edge 59, Type (0, 0), BuildingBlock: EZIPEK_clean_linker_0, # of connection points: 2
#     Edge 60, Type (0, 0), BuildingBlock: EZIPEK_clean_linker_0, # of connection points: 2
#     Edge 61, Type (0, 0), BuildingBlock: EZIPEK_clean_linker_0, # of connection points: 2
#     Edge 62, Type (0, 0), BuildingBlock: EZIPEK_clean_linker_0, # of connection points: 2
#     Edge 63, Type (0, 0), BuildingBlock: EZIPEK_clean_linker_0, # of connection points: 2
#     Edge 64, Type (0, 0), BuildingBlock: EZIPEK_clean_linker_0, # of connection points: 2
#     Edge 65, Type (0, 0), BuildingBlock: EZIPEK_clean_linker_0, # of connection points: 2
#     Edge 66, Type (0, 0), BuildingBlock: EZIPEK_clean_linker_0, # of connection points: 2
#     Edge 67, Type (0, 0), BuildingBlock: EZIPEK_clean_linker_0, # of connection points: 2
#     Edge 68, Type (0, 0), BuildingBlock: EZIPEK_clean_linker_0, # of connection points: 2
#     Edge 69, Type (0, 0), BuildingBlock: EZIPEK_clean_linker_0, # of connection points: 2
#     Edge 70, Type (0, 0), BuildingBlock: EZIPEK_clean_linker_0, # of connection points: 2
#     Edge 71, Type (0, 0), BuildingBlock: EZIPEK_clean_linker_0, # of connection points: 2
#     Edge 72, Type (0, 0), BuildingBlock: EZIPEK_clean_linker_0, # of connection points: 2
#     Edge 73, Type (0, 0), BuildingBlock: EZIPEK_clean_linker_0, # of connection points: 2
#     Edge 74, Type (0, 0), BuildingBlock: EZIPEK_clean_linker_0, # of connection points: 2
#     Edge 75, Type (0, 0), BuildingBlock: EZIPEK_clean_linker_0, # of connection points: 2
#     Edge 76, Type (0, 0), BuildingBlock: EZIPEK_clean_linker_0, # of connection points: 2
#     Edge 77, Type (0, 0), BuildingBlock: EZIPEK_clean_linker_0, # of connection points: 2
#     Edge 78, Type (0, 0), BuildingBlock: EZIPEK_clean_linker_0, # of connection points: 2
#     Edge 79, Type (0, 0), BuildingBlock: EZIPEK_clean_linker_0, # of connection points: 2
#     Edge 80, Type (0, 0), BuildingBlock: EZIPEK_clean_linker_0, # of connection points: 2
#     Edge 81, Type (0, 0), BuildingBlock: EZIPEK_clean_linker_0, # of connection points: 2
#     Edge 82, Type (0, 0), BuildingBlock: EZIPEK_clean_linker_0, # of connection points: 2
#     Edge 83, Type (0, 0), BuildingBlock: EZIPEK_clean_linker_0, # of connection points: 2
#     Edge 84, Type (0, 0), BuildingBlock: EZIPEK_clean_linker_0, # of connection points: 2
#     Edge 85, Type (0, 0), BuildingBlock: EZIPEK_clean_linker_0, # of connection points: 2
#     Edge 86, Type (0, 0), BuildingBlock: EZIPEK_clean_linker_0, # of connection points: 2
#     Edge 87, Type (0, 0), BuildingBlock: EZIPEK_clean_linker_0, # of connection points: 2
#     Edge 88, Type (0, 0), BuildingBlock: EZIPEK_clean_linker_0, # of connection points: 2
#     Edge 89, Type (0, 0), BuildingBlock: EZIPEK_clean_linker_0, # of connection points: 2
#     Edge 90, Type (0, 0), BuildingBlock: EZIPEK_clean_linker_0, # of connection points: 2
#     Edge 91, Type (0, 0), BuildingBlock: EZIPEK_clean_linker_0, # of connection points: 2
#     Edge 92, Type (0, 0), BuildingBlock: EZIPEK_clean_linker_0, # of connection points: 2
#     Edge 93, Type (0, 0), BuildingBlock: EZIPEK_clean_linker_0, # of connection points: 2
#     Edge 94, Type (0, 0), BuildingBlock: EZIPEK_clean_linker_0, # of connection points: 2
#     Edge 95, Type (0, 0), BuildingBlock: EZIPEK_clean_linker_0, # of connection points: 2
# Relax obj value: 0.086
# Max RMSD: 0.225
# Mean RMSD: 0.225
data_MOF--net-mer--node1-ESEHIV_clean_sbu_0--edge1-EZIPEK_clean_linker_0
_symmetry_space_group_name_H-M    P1
_symmetry_Int_Tables_number       1
_symmetry_cell_setting            triclinic
loop_
_symmetry_equiv_pos_as_xyz
'x, y, z'
_cell_length_a     54.762175
_cell_length_b     54.517755
_cell_length_c     40.141928
_cell_angle_alpha  90.105359
_cell_angle_beta   90.170039
_cell_angle_gamma 90.129662
loop_
_atom_site_label
_atom_site_type_symbol
_atom_site_fract_x
_atom_site_fract_y
_atom_site_fract_z
_atom_type_partial_charge
Cu0 Cu 0.13174 0.29847 0.41176 0.0
N1 N 0.14326 0.26655 0.41514 0.0
N2 N 0.1667 0.23336 0.41574 0.0
C3 C 0.16558 0.25748 0.40854 0.0
C4 C 0.1445 0.227 0.42718 0.0
C5 C 0.13004 0.24757 0.42675 0.0
O6 O 0.15123 0.31689 0.37967 0.0
C7 C 0.14343 0.30378 0.47986 0.0
O8 O 0.16196 0.28962 0.47224 0.0
H9 H 0.18074 0.2683 0.39941 0.0
H10 H 0.11125 0.2488 0.43484 0.0
N11 N 0.10029 0.29521 0.39498 0.0
N12 N 0.06 0.29613 0.38877 0.0
C13 C 0.0791 0.30358 0.4075 0.0
C14 C 0.09428 0.28201 0.36778 0.0
C15 C 0.06935 0.28258 0.36385 0.0
C16 C 0.14116 0.3325 0.36046 0.0
O17 O 0.11803 0.33801 0.36453 0.0
H18 H 0.07762 0.31445 0.42999 0.0
H19 H 0.1072 0.27228 0.35232 0.0
O20 O 0.12997 0.31224 0.45661 0.0
H21 H 0.13936 0.20888 0.43568 0.0
H22 H 0.0588 0.27348 0.34459 0.0
Cu23 Cu 0.71227 0.12956 0.39725 0.0
N24 N 0.74505 0.13798 0.39396 0.0
N25 N 0.77894 0.16037 0.39292 0.0
C26 C 0.75469 0.16048 0.39812 0.0
C27 C 0.78489 0.13709 0.38521 0.0
C28 C 0.76383 0.12322 0.3859 0.0
O29 O 0.69402 0.14989 0.36607 0.0
C30 C 0.71629 0.12656 0.46626 0.0
O31 O 0.73697 0.11597 0.45825 0.0
H32 H 0.74416 0.17662 0.40436 0.0
H33 H 0.76221 0.10383 0.38057 0.0
N34 N 0.70822 0.09683 0.38479 0.0
N35 N 0.70525 0.05608 0.3858 0.0
C36 C 0.70961 0.07654 0.40386 0.0
C37 C 0.70313 0.08878 0.3538 0.0
C38 C 0.70125 0.06364 0.35437 0.0
C39 C 0.70277 0.1534 0.33705 0.0
O40 O 0.72402 0.14391 0.32924 0.0
H41 H 0.71351 0.07667 0.43029 0.0
H42 H 0.70098 0.10033 0.33219 0.0
O43 O 0.70215 0.13426 0.44331 0.0
H44 H 0.80309 0.13075 0.37925 0.0
H45 H 0.69731 0.05175 0.33339 0.0
Cu46 Cu 0.87684 0.71813 0.39411 0.0
N47 N 0.86682 0.75067 0.39825 0.0
N48 N 0.84503 0.78506 0.39982 0.0
C49 C 0.84466 0.76076 0.39334 0.0
C50 C 0.86807 0.79048 0.40905 0.0
C51 C 0.88149 0.7692 0.40805 0.0
O52 O 0.85744 0.70136 0.35989 0.0
C53 C 0.86417 0.71126 0.46223 0.0
O54 O 0.84863 0.72908 0.45661 0.0
H55 H 0.82858 0.75055 0.38582 0.0
H56 H 0.90059 0.76723 0.41442 0.0
N57 N 0.9089 0.71994 0.37909 0.0
N58 N 0.94929 0.71746 0.37479 0.0
C59 C 0.92955 0.71108 0.39285 0.0
C60 C 0.91595 0.73226 0.35171 0.0
C61 C 0.9409 0.7307 0.34894 0.0
C62 C 0.86719 0.68541 0.34083 0.0
O63 O 0.88988 0.67867 0.34605 0.0
H64 H 0.93019 0.70061 0.41571 0.0
H65 H 0.90372 0.74207 0.33529 0.0
O66 O 0.87649 0.7025 0.43805 0.0
H67 H 0.87452 0.80847 0.41648 0.0
H68 H 0.95215 0.739 0.32988 0.0
Cu69 Cu 0.30128 0.87679 0.40438 0.0
N70 N 0.26877 0.86699 0.40527 0.0
N71 N 0.23519 0.84409 0.40351 0.0
C72 C 0.25978 0.84405 0.40297 0.0
C73 C 0.22838 0.8677 0.40619 0.0
C74 C 0.2492 0.88186 0.40727 0.0
O75 O 0.31712 0.85751 0.36975 0.0
C76 C 0.30351 0.88148 0.47311 0.0
O77 O 0.28374 0.89437 0.4673 0.0
H78 H 0.27093 0.82777 0.4007 0.0
H79 H 0.25006 0.90163 0.40924 0.0
N80 N 0.30137 0.90973 0.39223 0.0
N81 N 0.30415 0.95042 0.39218 0.0
C82 C 0.30921 0.92967 0.40909 0.0
C83 C 0.29116 0.91827 0.364 0.0
C84 C 0.29289 0.9434 0.36389 0.0
C85 C 0.3313 0.86687 0.34809 0.0
O86 O 0.33833 0.88981 0.35102 0.0
H87 H 0.31776 0.9291 0.43342 0.0
H88 H 0.28261 0.90691 0.34516 0.0
O89 O 0.31499 0.872 0.44875 0.0
H90 H 0.2097 0.87414 0.40719 0.0
H91 H 0.28601 0.95569 0.34491 0.0
Cu92 Cu 0.12724 0.72711 0.66245 0.0
N93 N 0.13874 0.75871 0.65448 0.0
N94 N 0.16118 0.79281 0.6543 0.0
C95 C 0.16004 0.7691 0.6638 0.0
C96 C 0.13999 0.79754 0.6385 0.0
C97 C 0.12616 0.77642 0.63865 0.0
O98 O 0.14532 0.71187 0.69898 0.0
C99 C 0.14329 0.71155 0.59869 0.0
O100 O 0.16307 0.72403 0.60635 0.0
H101 H 0.1742 0.75968 0.67757 0.0
H102 H 0.10803 0.77415 0.62834 0.0
N103 N 0.09551 0.73037 0.67779 0.0
N104 N 0.05549 0.72515 0.6844 0.0
C105 C 0.07455 0.72293 0.66336 0.0
C106 C 0.08943 0.73817 0.70844 0.0
C107 C 0.06476 0.73474 0.71274 0.0
C108 C 0.13739 0.69223 0.71237 0.0
O109 O 0.11907 0.68048 0.69834 0.0
H110 H 0.07345 0.71496 0.63867 0.0
H111 H 0.10231 0.7447 0.72693 0.0
O112 O 0.12654 0.70899 0.62037 0.0
H113 H 0.13489 0.81507 0.62797 0.0
H114 H 0.05448 0.73833 0.73522 0.0
Cu115 Cu 0.29988 0.13133 0.68952 0.0
N116 N 0.26611 0.13485 0.68894 0.0
N117 N 0.22931 0.15194 0.68732 0.0
C118 C 0.25357 0.156 0.68711 0.0
C119 C 0.22633 0.12747 0.68944 0.0
C120 C 0.24917 0.11692 0.69052 0.0
O121 O 0.31244 0.15494 0.72207 0.0
C122 C 0.30058 0.12643 0.62014 0.0
O123 O 0.28069 0.11376 0.62619 0.0
H124 H 0.262 0.17395 0.68579 0.0
H125 H 0.25318 0.09756 0.69236 0.0
N126 N 0.30713 0.09957 0.70397 0.0
N127 N 0.31119 0.05891 0.70558 0.0
C128 C 0.30459 0.07836 0.68694 0.0
C129 C 0.31522 0.09307 0.73443 0.0
C130 C 0.31785 0.06802 0.73544 0.0
C131 C 0.33365 0.1534 0.73491 0.0
O132 O 0.34929 0.13749 0.72282 0.0
H133 H 0.29788 0.07708 0.66164 0.0
H134 H 0.31877 0.10559 0.75473 0.0
O135 O 0.31235 0.13611 0.6443 0.0
H136 H 0.20892 0.11806 0.69043 0.0
H137 H 0.32385 0.05721 0.75653 0.0
Cu138 Cu 0.87395 0.29197 0.6629 0.0
N139 N 0.86934 0.25852 0.66988 0.0
N140 N 0.85065 0.22255 0.67599 0.0
C141 C 0.84772 0.24677 0.67087 0.0
C142 C 0.87488 0.21878 0.67834 0.0
C143 C 0.88643 0.24111 0.67455 0.0
O144 O 0.85201 0.30968 0.69278 0.0
C145 C 0.8667 0.31848 0.60126 0.0
O146 O 0.86699 0.33868 0.61915 0.0
H147 H 0.83023 0.25572 0.66783 0.0
H148 H 0.90589 0.2444 0.67505 0.0
N149 N 0.90593 0.30066 0.67421 0.0
N150 N 0.94651 0.30188 0.67772 0.0
C151 C 0.9271 0.29271 0.66098 0.0
C152 C 0.91238 0.31545 0.69968 0.0
C153 C 0.93737 0.31625 0.70188 0.0
C154 C 0.8528 0.30377 0.72353 0.0
O155 O 0.86703 0.28568 0.7329 0.0
H156 H 0.92829 0.27987 0.64045 0.0
H157 H 0.89986 0.32442 0.71633 0.0
O158 O 0.8686 0.29776 0.61557 0.0
H159 H 0.88349 0.20118 0.6824 0.0
H160 H 0.94808 0.32601 0.72037 0.0
Cu161 Cu 0.72489 0.87648 0.68236 0.0
N162 N 0.75773 0.86806 0.68154 0.0
N163 N 0.79177 0.84591 0.68048 0.0
C164 C 0.76722 0.84533 0.68242 0.0
C165 C 0.79805 0.86975 0.67826 0.0
C166 C 0.77691 0.88344 0.67889 0.0
O167 O 0.70901 0.85656 0.71613 0.0
C168 C 0.69527 0.88401 0.62375 0.0
O169 O 0.68287 0.89991 0.64148 0.0
H170 H 0.75643 0.82873 0.68424 0.0
H171 H 0.77555 0.90319 0.6773 0.0
N172 N 0.72254 0.90898 0.69644 0.0
N173 N 0.71924 0.94966 0.69879 0.0
C174 C 0.72224 0.92999 0.67875 0.0
C175 C 0.72029 0.91577 0.72852 0.0
C176 C 0.71811 0.94084 0.73005 0.0
C177 C 0.68692 0.85988 0.72478 0.0
O178 O 0.67327 0.87523 0.70779 0.0
H179 H 0.72366 0.93087 0.6519 0.0
H180 H 0.72003 0.90322 0.74935 0.0
O181 O 0.71237 0.87173 0.63725 0.0
H182 H 0.81653 0.87664 0.67619 0.0
H183 H 0.71567 0.95182 0.7523 0.0
Cu184 Cu 0.88346 0.6982 0.67132 0.0
N185 N 0.87885 0.73175 0.67823 0.0
N186 N 0.86046 0.76801 0.68176 0.0
C187 C 0.85802 0.74427 0.67302 0.0
C188 C 0.8835 0.77066 0.69298 0.0
C189 C 0.89483 0.74819 0.69079 0.0
O190 O 0.86621 0.68095 0.70677 0.0
C191 C 0.88159 0.70393 0.60307 0.0
O192 O 0.89612 0.72215 0.61139 0.0
H193 H 0.84135 0.7361 0.66353 0.0
H194 H 0.91323 0.74404 0.69858 0.0
N195 N 0.91631 0.68996 0.67591 0.0
N196 N 0.95693 0.69203 0.67846 0.0
C197 C 0.93633 0.7028 0.66718 0.0
C198 C 0.92461 0.67012 0.69224 0.0
C199 C 0.94965 0.67147 0.69421 0.0
C200 C 0.87171 0.68708 0.7366 0.0
O201 O 0.88755 0.70485 0.74157 0.0
H202 H 0.93585 0.72018 0.65421 0.0
H203 H 0.91312 0.65603 0.70289 0.0
O204 O 0.87321 0.6901 0.62596 0.0
H205 H 0.89132 0.78752 0.70255 0.0
H206 H 0.9616 0.6587 0.70686 0.0
Cu207 Cu 0.30605 0.88368 0.6813 0.0
N208 N 0.27212 0.88149 0.68209 0.0
N209 N 0.23541 0.86415 0.67747 0.0
C210 C 0.2596 0.8612 0.67342 0.0
C211 C 0.23244 0.88709 0.68934 0.0
C212 C 0.25525 0.89774 0.69241 0.0
O213 O 0.31738 0.86499 0.71951 0.0
C214 C 0.30786 0.88389 0.6133 0.0
O215 O 0.29348 0.90265 0.61909 0.0
H216 H 0.26808 0.84444 0.66478 0.0
H217 H 0.25919 0.91578 0.70228 0.0
N218 N 0.31733 0.91582 0.68659 0.0
N219 N 0.3204 0.95654 0.68934 0.0
C220 C 0.30598 0.93737 0.68102 0.0
C221 C 0.33975 0.92178 0.69792 0.0
C222 C 0.34165 0.94687 0.69982 0.0
C223 C 0.33899 0.85731 0.72423 0.0
O224 O 0.3554 0.85966 0.70066 0.0
H225 H 0.28757 0.93909 0.6715 0.0
H226 H 0.35371 0.90873 0.70471 0.0
O227 O 0.31658 0.87192 0.63783 0.0
H228 H 0.21511 0.89524 0.69598 0.0
H229 H 0.35726 0.95729 0.70859 0.0
Cu230 Cu 0.12081 0.28747 0.6878 0.0
N231 N 0.1293 0.2545 0.68592 0.0
N232 N 0.1513 0.22031 0.68487 0.0
C233 C 0.15193 0.24501 0.68456 0.0
C234 C 0.12757 0.21393 0.68648 0.0
C235 C 0.11397 0.23516 0.68711 0.0
O236 O 0.13963 0.30222 0.72397 0.0
C237 C 0.12102 0.29077 0.61836 0.0
O238 O 0.10992 0.26952 0.62145 0.0
H239 H 0.16848 0.2559 0.684 0.0
H240 H 0.0943 0.23646 0.68876 0.0
N241 N 0.08773 0.28917 0.6985 0.0
N242 N 0.04718 0.29085 0.69518 0.0
C243 C 0.06828 0.2905 0.67795 0.0
C244 C 0.07846 0.28821 0.72951 0.0
C245 C 0.05344 0.28935 0.72754 0.0
C246 C 0.13225 0.32128 0.73921 0.0
O247 O 0.11315 0.33319 0.72787 0.0
H248 H 0.06944 0.29103 0.65113 0.0
H249 H 0.08915 0.28662 0.75202 0.0
O250 O 0.12707 0.30259 0.64455 0.0
H251 H 0.12072 0.19531 0.68761 0.0
H252 H 0.04074 0.28887 0.74816 0.0
Cu253 Cu 0.70818 0.12452 0.67632 0.0
N254 N 0.74146 0.12976 0.68328 0.0
N255 N 0.77727 0.14903 0.68561 0.0
C256 C 0.75361 0.15067 0.67672 0.0
C257 C 0.78026 0.12639 0.69829 0.0
C258 C 0.75803 0.11447 0.69684 0.0
O259 O 0.69035 0.14337 0.70947 0.0
C260 C 0.71351 0.12401 0.60787 0.0
O261 O 0.73162 0.10949 0.61612 0.0
H262 H 0.74525 0.16684 0.66606 0.0
H263 H 0.75414 0.09615 0.7056 0.0
N264 N 0.69985 0.09175 0.68296 0.0
N265 N 0.70038 0.05096 0.68601 0.0
C266 C 0.71213 0.07116 0.67499 0.0
C267 C 0.67957 0.0842 0.69878 0.0
C268 C 0.67989 0.05904 0.70085 0.0
C269 C 0.69631 0.14034 0.73992 0.0
O270 O 0.71467 0.12585 0.74729 0.0
H271 H 0.72951 0.07093 0.66222 0.0
H272 H 0.66566 0.09626 0.70856 0.0
O273 O 0.70024 0.13331 0.6306 0.0
H274 H 0.79721 0.1192 0.70817 0.0
H275 H 0.66632 0.04751 0.71264 0.0
Cu276 Cu 0.88532 0.30023 0.39547 0.0
N277 N 0.87458 0.26785 0.39505 0.0
N278 N 0.85146 0.2343 0.39537 0.0
C279 C 0.85159 0.25903 0.39484 0.0
C280 C 0.87499 0.22728 0.39611 0.0
C281 C 0.88925 0.24807 0.39596 0.0
O282 O 0.86746 0.3201 0.36307 0.0
C283 C 0.86343 0.31505 0.45643 0.0
O284 O 0.84291 0.31405 0.43944 0.0
H285 H 0.83539 0.27036 0.39434 0.0
H286 H 0.90899 0.24877 0.39668 0.0
N287 N 0.91775 0.2998 0.38178 0.0
N288 N 0.95832 0.30086 0.38099 0.0
C289 C 0.93814 0.30492 0.39936 0.0
C290 C 0.92546 0.29223 0.35164 0.0
C291 C 0.95051 0.29297 0.35104 0.0
C292 C 0.86217 0.31098 0.33465 0.0
O293 O 0.86673 0.28777 0.32867 0.0
H294 H 0.93826 0.31078 0.42513 0.0
H295 H 0.9137 0.28601 0.33169 0.0
O296 O 0.88358 0.31153 0.44146 0.0
H297 H 0.88129 0.20847 0.39679 0.0
H298 H 0.96217 0.28754 0.3306 0.0
Cu299 Cu 0.70241 0.88148 0.41461 0.0
N300 N 0.7354 0.8771 0.40536 0.0
N301 N 0.77083 0.85777 0.39891 0.0
C302 C 0.74731 0.85565 0.40812 0.0
C303 C 0.77397 0.88135 0.38989 0.0
C304 C 0.75195 0.89329 0.39381 0.0
O305 O 0.6847 0.86037 0.38359 0.0
C306 C 0.68216 0.88359 0.48017 0.0
O307 O 0.66557 0.89804 0.4671 0.0
H308 H 0.73891 0.83879 0.41659 0.0
H309 H 0.74825 0.91231 0.38825 0.0
N310 N 0.69305 0.91388 0.40678 0.0
N311 N 0.6924 0.95464 0.40336 0.0
C312 C 0.70453 0.93493 0.41512 0.0
C313 C 0.67291 0.92068 0.3899 0.0
C314 C 0.67249 0.94581 0.38767 0.0
C315 C 0.68903 0.86415 0.35281 0.0
O316 O 0.7045 0.88151 0.34444 0.0
H317 H 0.7216 0.93582 0.42873 0.0
H318 H 0.65959 0.90821 0.37954 0.0
O319 O 0.6981 0.87364 0.46154 0.0
H320 H 0.79089 0.88923 0.381 0.0
H321 H 0.65887 0.95682 0.37509 0.0
Cu322 Cu 0.12385 0.70842 0.39112 0.0
N323 N 0.13615 0.74008 0.39557 0.0
N324 N 0.16066 0.77255 0.39851 0.0
C325 C 0.15877 0.74875 0.38966 0.0
C326 C 0.13864 0.77913 0.41028 0.0
C327 C 0.12352 0.75901 0.40841 0.0
O328 O 0.14174 0.69107 0.35592 0.0
C329 C 0.1409 0.69998 0.4565 0.0
O330 O 0.16019 0.71191 0.44586 0.0
H331 H 0.17367 0.73776 0.38023 0.0
H332 H 0.10475 0.75799 0.41664 0.0
N333 N 0.09171 0.71277 0.37726 0.0
N334 N 0.05118 0.71374 0.37435 0.0
C335 C 0.07069 0.70498 0.3911 0.0
C336 C 0.08515 0.72686 0.35124 0.0
C337 C 0.06011 0.72745 0.34933 0.0
C338 C 0.13065 0.67781 0.3344 0.0
O339 O 0.1072 0.67347 0.33783 0.0
H340 H 0.06966 0.69373 0.41324 0.0
H341 H 0.09781 0.7365 0.33528 0.0
O342 O 0.12432 0.69379 0.4357 0.0
H343 H 0.13412 0.79701 0.42025 0.0
H344 H 0.04922 0.73747 0.33142 0.0
Cu345 Cu 0.30376 0.12554 0.41097 0.0
N346 N 0.27148 0.13576 0.41213 0.0
N347 N 0.23852 0.15939 0.4124 0.0
C348 C 0.26309 0.15892 0.4114 0.0
C349 C 0.23111 0.13587 0.4138 0.0
C350 C 0.25156 0.12125 0.41365 0.0
O351 O 0.31982 0.14534 0.37687 0.0
C352 C 0.30576 0.11917 0.47963 0.0
O353 O 0.28731 0.10458 0.4728 0.0
H354 H 0.27465 0.17502 0.41021 0.0
H355 H 0.25193 0.10144 0.41467 0.0
N356 N 0.30311 0.09279 0.39757 0.0
N357 N 0.30528 0.0521 0.39521 0.0
C358 C 0.31079 0.07232 0.41319 0.0
C359 C 0.29241 0.08509 0.36916 0.0
C360 C 0.29379 0.05998 0.36759 0.0
C361 C 0.33233 0.13605 0.35327 0.0
O362 O 0.33798 0.11267 0.35396 0.0
H363 H 0.31961 0.07212 0.43734 0.0
H364 H 0.28384 0.09704 0.35112 0.0
O365 O 0.31691 0.12985 0.45587 0.0
H366 H 0.21228 0.12982 0.41498 0.0
H367 H 0.28645 0.04829 0.34815 0.0
Cu368 Cu 0.62937 0.8048 0.90727 0.0
N369 N 0.64272 0.77396 0.91442 0.0
N370 N 0.66667 0.74115 0.91445 0.0
C371 C 0.66411 0.76452 0.90414 0.0
C372 C 0.64642 0.73572 0.9319 0.0
C373 C 0.63164 0.75604 0.93182 0.0
O374 O 0.64722 0.82212 0.87235 0.0
C375 C 0.64484 0.81714 0.97209 0.0
O376 O 0.66438 0.80476 0.96354 0.0
H377 H 0.67744 0.77445 0.88954 0.0
H378 H 0.61396 0.75772 0.94353 0.0
N379 N 0.59748 0.79893 0.8931 0.0
N380 N 0.55696 0.79849 0.88933 0.0
C381 C 0.57661 0.81017 0.90213 0.0
C382 C 0.59058 0.77953 0.87446 0.0
C383 C 0.5656 0.77928 0.87198 0.0
C384 C 0.64741 0.81305 0.84302 0.0
O385 O 0.63652 0.79196 0.83755 0.0
H386 H 0.57575 0.82577 0.91881 0.0
H387 H 0.60282 0.76575 0.86472 0.0
O388 O 0.62849 0.82155 0.95027 0.0
H389 H 0.64271 0.7183 0.94379 0.0
H390 H 0.55449 0.76553 0.85962 0.0
Cu391 Cu 0.20224 0.63446 0.888 0.0
N392 N 0.23587 0.63792 0.88502 0.0
N393 N 0.27284 0.65476 0.88725 0.0
C394 C 0.24873 0.65851 0.89105 0.0
C395 C 0.27539 0.63104 0.87847 0.0
C396 C 0.25242 0.62064 0.87709 0.0
O397 O 0.18841 0.657 0.85512 0.0
C398 C 0.17326 0.63926 0.94841 0.0
O399 O 0.15378 0.63466 0.93027 0.0
H400 H 0.24063 0.6758 0.89833 0.0
H401 H 0.24807 0.60181 0.87094 0.0
N402 N 0.19462 0.60216 0.87654 0.0
N403 N 0.191 0.56148 0.87837 0.0
C404 C 0.19646 0.58199 0.89575 0.0
C405 C 0.18831 0.59395 0.84603 0.0
C406 C 0.18586 0.56889 0.84716 0.0
C407 C 0.16811 0.65325 0.84038 0.0
O408 O 0.15335 0.63611 0.85147 0.0
H409 H 0.20222 0.58225 0.92157 0.0
H410 H 0.18627 0.60529 0.82417 0.0
O411 O 0.19408 0.64077 0.93452 0.0
H412 H 0.29259 0.62199 0.87362 0.0
H413 H 0.18143 0.55688 0.8265 0.0
Cu414 Cu 0.38013 0.23265 0.90656 0.0
N415 N 0.36902 0.26437 0.9146 0.0
N416 N 0.34636 0.29815 0.91747 0.0
C417 C 0.34696 0.2743 0.90846 0.0
C418 C 0.36868 0.30346 0.92967 0.0
C419 C 0.38264 0.28254 0.92787 0.0
O420 O 0.36089 0.21708 0.87147 0.0
C421 C 0.36237 0.21578 0.96827 0.0
O422 O 0.34184 0.22552 0.95782 0.0
H423 H 0.33177 0.2644 0.89748 0.0
H424 H 0.4015 0.28065 0.93552 0.0
N425 N 0.41171 0.2359 0.8904 0.0
N426 N 0.45184 0.23327 0.88311 0.0
C427 C 0.43275 0.22646 0.90215 0.0
C428 C 0.41781 0.2491 0.86337 0.0
C429 C 0.44263 0.24751 0.85879 0.0
C430 C 0.36913 0.19812 0.85677 0.0
O431 O 0.38932 0.18793 0.86772 0.0
H432 H 0.43408 0.21497 0.92403 0.0
H433 H 0.405 0.25917 0.84811 0.0
O434 O 0.38073 0.21525 0.94889 0.0
H435 H 0.3744 0.32121 0.93902 0.0
H436 H 0.45318 0.25613 0.83926 0.0
Cu437 Cu 0.8034 0.37935 0.89558 0.0
N438 N 0.76986 0.37467 0.89233 0.0
N439 N 0.73363 0.35627 0.89114 0.0
C440 C 0.75769 0.35348 0.89684 0.0
C441 C 0.73039 0.37994 0.88276 0.0
C442 C 0.75289 0.39132 0.88357 0.0
O443 O 0.81917 0.35671 0.86443 0.0
C444 C 0.82825 0.38576 0.95858 0.0
O445 O 0.84343 0.40022 0.94265 0.0
H446 H 0.76631 0.3363 0.90344 0.0
H447 H 0.75671 0.41025 0.87755 0.0
N448 N 0.81036 0.41138 0.88197 0.0
N449 N 0.81191 0.45219 0.87944 0.0
C450 C 0.80768 0.43255 0.89902 0.0
C451 C 0.81647 0.41809 0.85079 0.0
C452 C 0.81754 0.44322 0.8492 0.0
C453 C 0.8097 0.35418 0.8355 0.0
O454 O 0.78945 0.36585 0.82821 0.0
H455 H 0.80176 0.43366 0.92463 0.0
H456 H 0.81886 0.40568 0.83012 0.0
O457 O 0.81161 0.37439 0.94253 0.0
H458 H 0.7131 0.3882 0.87611 0.0
H459 H 0.82123 0.45417 0.8273 0.0
Cu460 Cu 0.6273 0.21578 0.17341 0.0
N461 N 0.6362 0.24869 0.17508 0.0
N462 N 0.65845 0.28277 0.17424 0.0
C463 C 0.65874 0.25816 0.17152 0.0
C464 C 0.63506 0.28912 0.17964 0.0
C465 C 0.62129 0.26795 0.18016 0.0
O466 O 0.64771 0.19732 0.20427 0.0
C467 C 0.62032 0.21841 0.10505 0.0
O468 O 0.60845 0.23822 0.11404 0.0
H469 H 0.67496 0.24731 0.16725 0.0
H470 H 0.60179 0.26663 0.18396 0.0
N471 N 0.59523 0.2131 0.18815 0.0
N472 N 0.55481 0.20974 0.19037 0.0
C473 C 0.57463 0.2089 0.17057 0.0
C474 C 0.58804 0.21657 0.21986 0.0
C475 C 0.56307 0.2145 0.2213 0.0
C476 C 0.65371 0.20692 0.23213 0.0
O477 O 0.64731 0.22958 0.23889 0.0
H478 H 0.57405 0.20585 0.14395 0.0
H479 H 0.60008 0.22079 0.24045 0.0
O480 O 0.63014 0.20497 0.12727 0.0
H481 H 0.62854 0.30768 0.1831 0.0
H482 H 0.55174 0.21668 0.24316 0.0
Cu483 Cu 0.7966 0.63036 0.16598 0.0
N484 N 0.76513 0.64283 0.16417 0.0
N485 N 0.73306 0.6677 0.16475 0.0
C486 C 0.75722 0.66571 0.17063 0.0
C487 C 0.72548 0.6455 0.15421 0.0
C488 C 0.74537 0.63016 0.15384 0.0
O489 O 0.81501 0.64905 0.1995 0.0
C490 C 0.8272 0.62284 0.1076 0.0
O491 O 0.84269 0.61085 0.12653 0.0
H492 H 0.76887 0.68061 0.17887 0.0
H493 H 0.74556 0.61114 0.14609 0.0
N494 N 0.79292 0.59768 0.17903 0.0
N495 N 0.79371 0.55693 0.18219 0.0
C496 C 0.8016 0.57682 0.16542 0.0
C497 C 0.77893 0.59053 0.20481 0.0
C498 C 0.77944 0.56538 0.20689 0.0
C499 C 0.8252 0.63886 0.22453 0.0
O500 O 0.82556 0.61487 0.22685 0.0
H501 H 0.81317 0.57605 0.14369 0.0
H502 H 0.76893 0.60287 0.22085 0.0
O503 O 0.8085 0.63288 0.12042 0.0
H504 H 0.70697 0.64093 0.14692 0.0
H505 H 0.76999 0.55408 0.22489 0.0
Cu506 Cu 0.3784 0.79795 0.17067 0.0
N507 N 0.36397 0.767 0.17031 0.0
N508 N 0.33673 0.73678 0.16712 0.0
C509 C 0.34008 0.76112 0.17102 0.0
C510 C 0.35915 0.72695 0.16422 0.0
C511 C 0.37596 0.74568 0.16619 0.0
O512 O 0.36224 0.81938 0.20248 0.0
C513 C 0.35931 0.81054 0.10744 0.0
O514 O 0.33822 0.80576 0.12148 0.0
H515 H 0.32547 0.77436 0.17321 0.0
H516 H 0.39555 0.74402 0.16369 0.0
N517 N 0.41036 0.79407 0.18552 0.0
N518 N 0.45076 0.79594 0.19034 0.0
C519 C 0.43118 0.80278 0.17218 0.0
C520 C 0.41714 0.78134 0.21273 0.0
C521 C 0.44211 0.78249 0.21578 0.0
C522 C 0.35693 0.8107 0.23102 0.0
O523 O 0.36059 0.78737 0.23719 0.0
H524 H 0.43203 0.8137 0.14972 0.0
H525 H 0.40481 0.77163 0.22902 0.0
O526 O 0.37872 0.80976 0.12489 0.0
H527 H 0.36296 0.70771 0.16006 0.0
H528 H 0.45316 0.77394 0.2349 0.0
Cu529 Cu 0.21135 0.38353 0.18403 0.0
N530 N 0.24294 0.37114 0.18131 0.0
N531 N 0.27482 0.34596 0.18028 0.0
C532 C 0.25047 0.34775 0.18449 0.0
C533 C 0.28294 0.36881 0.17417 0.0
C534 C 0.2632 0.38435 0.17484 0.0
O535 O 0.1944 0.3665 0.22013 0.0
C536 C 0.20671 0.38767 0.11538 0.0
O537 O 0.22685 0.4004 0.11966 0.0
H538 H 0.23845 0.33242 0.18955 0.0
H539 H 0.26355 0.40392 0.17057 0.0
N540 N 0.21444 0.41687 0.1938 0.0
N541 N 0.21291 0.45762 0.19186 0.0
C542 C 0.20475 0.43648 0.17823 0.0
C543 C 0.229 0.42604 0.21791 0.0
C544 C 0.22807 0.45121 0.21678 0.0
C545 C 0.1845 0.37765 0.24454 0.0
O546 O 0.18395 0.4017 0.24518 0.0
H547 H 0.19254 0.43536 0.15704 0.0
H548 H 0.23984 0.41506 0.23479 0.0
O549 O 0.19596 0.37862 0.14064 0.0
H550 H 0.30176 0.37378 0.16941 0.0
H551 H 0.23798 0.4639 0.23263 0.0
Cu552 Cu 0.38033 0.20614 0.1769 0.0
N553 N 0.3696 0.23847 0.17955 0.0
N554 N 0.34629 0.27174 0.18187 0.0
C555 C 0.34664 0.24704 0.18223 0.0
C556 C 0.36967 0.27905 0.17897 0.0
C557 C 0.38406 0.25842 0.17754 0.0
O558 O 0.36251 0.18514 0.20787 0.0
C559 C 0.36193 0.2027 0.11094 0.0
O560 O 0.34253 0.21325 0.12356 0.0
H561 H 0.33055 0.23552 0.18378 0.0
H562 H 0.40368 0.25792 0.17462 0.0
N563 N 0.41275 0.20614 0.19092 0.0
N564 N 0.45334 0.20586 0.19166 0.0
C565 C 0.43316 0.20383 0.17251 0.0
C566 C 0.42045 0.20989 0.22242 0.0
C567 C 0.44551 0.20964 0.22296 0.0
C568 C 0.35758 0.19331 0.23689 0.0
O569 O 0.36204 0.21638 0.24408 0.0
H570 H 0.43327 0.20119 0.14578 0.0
H571 H 0.4087 0.21296 0.24356 0.0
O572 O 0.3792 0.19602 0.1302 0.0
H573 H 0.37574 0.29792 0.17729 0.0
H574 H 0.45717 0.21242 0.24447 0.0
Cu575 Cu 0.80207 0.38151 0.16586 0.0
N576 N 0.76895 0.37438 0.16747 0.0
N577 N 0.73382 0.35398 0.16931 0.0
C578 C 0.75828 0.35213 0.16693 0.0
C579 C 0.72882 0.37809 0.17134 0.0
C580 C 0.75062 0.3907 0.17014 0.0
O581 O 0.81797 0.3595 0.19755 0.0
C582 C 0.8278 0.38892 0.10353 0.0
O583 O 0.84171 0.40484 0.11926 0.0
H584 H 0.76816 0.335 0.16519 0.0
H585 H 0.75299 0.41038 0.17134 0.0
N586 N 0.80499 0.41391 0.18075 0.0
N587 N 0.80465 0.45471 0.18399 0.0
C588 C 0.80592 0.43511 0.16347 0.0
C589 C 0.80265 0.42057 0.21292 0.0
C590 C 0.80268 0.44569 0.21502 0.0
C591 C 0.83494 0.36651 0.21717 0.0
O592 O 0.84523 0.38803 0.21268 0.0
H593 H 0.80636 0.43623 0.13657 0.0
H594 H 0.80023 0.40792 0.23337 0.0
O595 O 0.81174 0.37684 0.11949 0.0
H596 H 0.71075 0.3859 0.17362 0.0
H597 H 0.80062 0.45659 0.23741 0.0
Cu598 Cu 0.62498 0.80539 0.17846 0.0
N599 N 0.63671 0.77359 0.17351 0.0
N600 N 0.66083 0.74097 0.17022 0.0
C601 C 0.65986 0.76539 0.17519 0.0
C602 C 0.63769 0.73348 0.16512 0.0
C603 C 0.6228 0.75372 0.16712 0.0
O604 O 0.64343 0.82311 0.21252 0.0
C605 C 0.64314 0.81882 0.11529 0.0
O606 O 0.66384 0.81031 0.12702 0.0
H607 H 0.67558 0.77694 0.18006 0.0
H608 H 0.60317 0.754 0.16408 0.0
N609 N 0.59302 0.80255 0.19347 0.0
N610 N 0.55247 0.80188 0.19555 0.0
C611 C 0.57217 0.80885 0.17782 0.0
C612 C 0.58614 0.79129 0.22177 0.0
C613 C 0.56108 0.79091 0.22315 0.0
C614 C 0.64989 0.812 0.23904 0.0
O615 O 0.64547 0.78847 0.24226 0.0
H616 H 0.57139 0.81755 0.15362 0.0
H617 H 0.59846 0.78322 0.23969 0.0
O618 O 0.62475 0.82045 0.1345 0.0
H619 H 0.63209 0.71476 0.16023 0.0
H620 H 0.54997 0.78269 0.24242 0.0
Cu621 Cu 0.197 0.63064 0.15271 0.0
N622 N 0.22596 0.64694 0.14359 0.0
N623 N 0.25799 0.67204 0.14466 0.0
C624 C 0.23607 0.66678 0.15821 0.0
C625 C 0.26168 0.65518 0.12066 0.0
C626 C 0.24187 0.63969 0.12008 0.0
O627 O 0.17951 0.64796 0.18833 0.0
C628 C 0.17514 0.64718 0.09322 0.0
O629 O 0.1754 0.66852 0.10849 0.0
H630 H 0.22785 0.67685 0.17853 0.0
H631 H 0.23924 0.62403 0.10388 0.0
N632 N 0.20623 0.59974 0.16775 0.0
N633 N 0.20952 0.55957 0.17608 0.0
C634 C 0.19802 0.57735 0.1588 0.0
C635 C 0.22347 0.59585 0.19111 0.0
C636 C 0.22551 0.57103 0.19636 0.0
C637 C 0.17022 0.63648 0.21296 0.0
O638 O 0.17007 0.61241 0.21302 0.0
H639 H 0.18396 0.57413 0.14027 0.0
H640 H 0.23376 0.61018 0.2035 0.0
O641 O 0.18075 0.628 0.10959 0.0
H642 H 0.27769 0.65412 0.10496 0.0
H643 H 0.23775 0.562 0.21363 0.0
Cu644 Cu 0.38315 0.78919 0.90381 0.0
N645 N 0.37278 0.75689 0.90807 0.0
N646 N 0.3502 0.72298 0.90678 0.0
C647 C 0.35087 0.74721 0.90028 0.0
C648 C 0.37232 0.71713 0.9191 0.0
C649 C 0.38627 0.73818 0.91987 0.0
O650 O 0.36428 0.80486 0.8687 0.0
C651 C 0.36093 0.80495 0.96334 0.0
O652 O 0.3408 0.7978 0.9483 0.0
H653 H 0.3358 0.75761 0.89007 0.0
H654 H 0.40495 0.73981 0.92843 0.0
N655 N 0.41549 0.78797 0.89021 0.0
N656 N 0.45571 0.79268 0.88691 0.0
C657 C 0.4353 0.79896 0.90353 0.0
C658 C 0.42372 0.77445 0.86453 0.0
C659 C 0.4486 0.77736 0.86239 0.0
C660 C 0.3732 0.8227 0.85231 0.0
O661 O 0.39401 0.83253 0.86174 0.0
H662 H 0.43487 0.81083 0.92516 0.0
H663 H 0.41241 0.76288 0.84891 0.0
O664 O 0.38104 0.80429 0.94761 0.0
H665 H 0.37787 0.69898 0.92691 0.0
H666 H 0.46067 0.76859 0.8447 0.0
Cu667 Cu 0.19958 0.38711 0.90754 0.0
N668 N 0.2335 0.38573 0.90533 0.0
N669 N 0.27046 0.36881 0.90632 0.0
C670 C 0.24654 0.36552 0.91246 0.0
C671 C 0.27271 0.3919 0.89478 0.0
C672 C 0.24974 0.4023 0.89397 0.0
O673 O 0.18809 0.36765 0.86998 0.0
C674 C 0.19915 0.38815 0.97555 0.0
O675 O 0.21313 0.40709 0.96884 0.0
H676 H 0.23857 0.3485 0.92108 0.0
H677 H 0.24519 0.42028 0.88458 0.0
N678 N 0.18756 0.41889 0.90207 0.0
N679 N 0.18367 0.4595 0.89883 0.0
C680 C 0.19847 0.44076 0.90737 0.0
C681 C 0.165 0.42417 0.89079 0.0
C682 C 0.1626 0.4492 0.88854 0.0
C683 C 0.16674 0.35901 0.86583 0.0
O684 O 0.15047 0.36097 0.88963 0.0
H685 H 0.21689 0.44301 0.91671 0.0
H686 H 0.15129 0.41071 0.88425 0.0
O687 O 0.19011 0.37569 0.95159 0.0
H688 H 0.28959 0.40025 0.88652 0.0
H689 H 0.14679 0.45913 0.87964 0.0
Cu690 Cu 0.62576 0.21929 0.89445 0.0
N691 N 0.63459 0.25221 0.89319 0.0
N692 N 0.65674 0.2864 0.89277 0.0
C693 C 0.65725 0.26174 0.89465 0.0
C694 C 0.63307 0.29271 0.89004 0.0
C695 C 0.61939 0.27149 0.89026 0.0
O696 O 0.64735 0.20177 0.86424 0.0
C697 C 0.61909 0.22101 0.96323 0.0
O698 O 0.60742 0.24119 0.95531 0.0
H699 H 0.67371 0.25091 0.89686 0.0
H700 H 0.59973 0.27015 0.88837 0.0
N701 N 0.5938 0.21709 0.87857 0.0
N702 N 0.55323 0.21789 0.87506 0.0
C703 C 0.57266 0.21599 0.89565 0.0
C704 C 0.58737 0.21969 0.84637 0.0
C705 C 0.56233 0.22009 0.84411 0.0
C706 C 0.64033 0.18297 0.84795 0.0
O707 O 0.61878 0.17336 0.85397 0.0
H708 H 0.57147 0.21499 0.92251 0.0
H709 H 0.6001 0.22207 0.82609 0.0
O710 O 0.62852 0.20796 0.94031 0.0
H711 H 0.62631 0.31128 0.88784 0.0
H712 H 0.55158 0.22275 0.82173 0.0
Cu713 Cu 0.79806 0.62709 0.90264 0.0
N714 N 0.76644 0.63906 0.90044 0.0
N715 N 0.73481 0.66448 0.90055 0.0
C716 C 0.75933 0.66266 0.9005 0.0
C717 C 0.72613 0.64136 0.90039 0.0
C718 C 0.74576 0.62564 0.90037 0.0
O719 O 0.81765 0.64678 0.87229 0.0
C720 C 0.82703 0.62124 0.96298 0.0
O721 O 0.84461 0.61223 0.94446 0.0
H722 H 0.77177 0.67811 0.90137 0.0
H723 H 0.74505 0.60582 0.90099 0.0
N724 N 0.79675 0.59497 0.88688 0.0
N725 N 0.79925 0.55446 0.88135 0.0
C726 C 0.8041 0.57388 0.90116 0.0
C727 C 0.78698 0.58853 0.8573 0.0
C728 C 0.78847 0.5635 0.85383 0.0
C729 C 0.83321 0.63712 0.85276 0.0
O730 O 0.83911 0.61394 0.85627 0.0
H731 H 0.81277 0.57267 0.92532 0.0
H732 H 0.77908 0.60123 0.83967 0.0
O733 O 0.80733 0.62861 0.9495 0.0
H734 H 0.707 0.63632 0.90101 0.0
H735 H 0.78193 0.55267 0.833 0.0
C736 C 0.21209 0.18819 0.38228 0.0
C737 C 0.22303 0.18053 0.41246 0.0
C738 C 0.2005 0.21184 0.44327 0.0
C739 C 0.1875 0.21751 0.41378 0.0
N740 N 0.17956 0.21123 0.35556 0.0
N741 N 0.22783 0.18371 0.47176 0.0
C742 C 0.19314 0.20593 0.3832 0.0
C743 C 0.21749 0.19221 0.44301 0.0
N744 N 0.22003 0.17838 0.35292 0.0
N745 N 0.19645 0.22543 0.47133 0.0
H746 H 0.24058 0.16952 0.47196 0.0
H747 H 0.22299 0.18971 0.49545 0.0
H748 H 0.18392 0.23982 0.47188 0.0
H749 H 0.20655 0.22373 0.49319 0.0
H750 H 0.21436 0.18442 0.32958 0.0
H751 H 0.23376 0.16515 0.35196 0.0
H752 H 0.18096 0.20183 0.33308 0.0
H753 H 0.1658 0.22445 0.3557 0.0
C754 C 0.80586 0.18798 0.42487 0.0
C755 C 0.7952 0.18101 0.39412 0.0
C756 C 0.81994 0.21132 0.36455 0.0
C757 C 0.83073 0.21819 0.39525 0.0
N758 N 0.83198 0.21667 0.45492 0.0
N759 N 0.78828 0.18804 0.33588 0.0
C760 C 0.82294 0.20764 0.4256 0.0
C761 C 0.80104 0.19342 0.36427 0.0
N762 N 0.80012 0.17512 0.45297 0.0
N763 N 0.8286 0.22128 0.33568 0.0
H764 H 0.77463 0.17466 0.33518 0.0
H765 H 0.78996 0.19778 0.31374 0.0
H766 H 0.84217 0.23473 0.33544 0.0
H767 H 0.82335 0.21547 0.31202 0.0
H768 H 0.80866 0.17764 0.4759 0.0
H769 H 0.78735 0.16089 0.45292 0.0
H770 H 0.82588 0.21129 0.47831 0.0
H771 H 0.84467 0.23096 0.45572 0.0
C772 C 0.81621 0.81115 0.36859 0.0
C773 C 0.82487 0.80188 0.39933 0.0
C774 C 0.79841 0.83023 0.42974 0.0
C775 C 0.78889 0.83869 0.39903 0.0
N776 N 0.78527 0.83487 0.33961 0.0
N777 N 0.82169 0.79899 0.45882 0.0
C778 C 0.79681 0.82843 0.36849 0.0
C779 C 0.81515 0.81037 0.42986 0.0
N780 N 0.82725 0.80404 0.33969 0.0
N781 N 0.79208 0.84189 0.45858 0.0
H782 H 0.8338 0.78424 0.45935 0.0
H783 H 0.81368 0.8027 0.48175 0.0
H784 H 0.78005 0.85669 0.45906 0.0
H785 H 0.80011 0.83824 0.48157 0.0
H786 H 0.82355 0.8119 0.31661 0.0
H787 H 0.84143 0.7913 0.3392 0.0
H788 H 0.78846 0.82638 0.31679 0.0
H789 H 0.77105 0.84756 0.339 0.0
C790 C 0.18897 0.80006 0.36908 0.0
C791 C 0.18214 0.78766 0.39854 0.0
C792 C 0.21238 0.81085 0.43077 0.0
C793 C 0.21908 0.82337 0.40135 0.0
N794 N 0.21758 0.82771 0.34195 0.0
N795 N 0.18948 0.77738 0.45578 0.0
C796 C 0.2086 0.81715 0.37022 0.0
C797 C 0.19466 0.79182 0.42892 0.0
N798 N 0.17587 0.7962 0.34054 0.0
N799 N 0.22231 0.81798 0.46051 0.0
H800 H 0.17645 0.76341 0.45478 0.0
H801 H 0.19915 0.77796 0.47812 0.0
H802 H 0.23559 0.83167 0.46224 0.0
H803 H 0.21664 0.81137 0.48353 0.0
H804 H 0.17818 0.8063 0.3188 0.0
H805 H 0.16162 0.7835 0.33917 0.0
H806 H 0.21225 0.82269 0.31798 0.0
H807 H 0.2318 0.84048 0.34251 0.0
C808 C 0.18436 0.81933 0.69304 0.0
C809 C 0.18058 0.81006 0.66047 0.0
C810 C 0.21185 0.83792 0.6388 0.0
C811 C 0.21681 0.84593 0.67173 0.0
N812 N 0.21145 0.84112 0.73078 0.0
N813 N 0.1929 0.80717 0.60325 0.0
C814 C 0.20406 0.83575 0.69908 0.0
C815 C 0.195 0.81841 0.63356 0.0
N816 N 0.16854 0.81308 0.71786 0.0
N817 N 0.22267 0.84959 0.61261 0.0
H818 H 0.18082 0.79266 0.59901 0.0
H819 H 0.20442 0.81076 0.58325 0.0
H820 H 0.23476 0.86422 0.61582 0.0
H821 H 0.21824 0.84617 0.5878 0.0
H822 H 0.1688 0.82114 0.7414 0.0
H823 H 0.15381 0.80124 0.71403 0.0
H824 H 0.20445 0.83247 0.75181 0.0
H825 H 0.2262 0.85268 0.73589 0.0
C826 C 0.20141 0.17852 0.65564 0.0
C827 C 0.21035 0.17006 0.68666 0.0
C828 C 0.18171 0.1966 0.71641 0.0
C829 C 0.17179 0.20395 0.68541 0.0
N830 N 0.17054 0.20192 0.62576 0.0
N831 N 0.20924 0.16944 0.74639 0.0
C832 C 0.18129 0.19498 0.65501 0.0
C833 C 0.20059 0.17875 0.71707 0.0
N834 N 0.21247 0.17084 0.627 0.0
N835 N 0.1731 0.20706 0.74501 0.0
H836 H 0.22361 0.15693 0.74736 0.0
H837 H 0.20174 0.17317 0.76962 0.0
H838 H 0.15893 0.21982 0.74501 0.0
H839 H 0.18061 0.20422 0.76851 0.0
H840 H 0.20836 0.17755 0.60341 0.0
H841 H 0.22686 0.15832 0.62704 0.0
H842 H 0.17501 0.19474 0.60255 0.0
H843 H 0.15612 0.2144 0.6249 0.0
C844 C 0.80058 0.18299 0.71092 0.0
C845 C 0.79547 0.16792 0.68299 0.0
C846 C 0.82547 0.19039 0.64969 0.0
C847 C 0.83174 0.20434 0.67824 0.0
N848 N 0.82728 0.21347 0.73639 0.0
N849 N 0.80341 0.15541 0.62675 0.0
C850 C 0.81976 0.20056 0.70901 0.0
C851 C 0.808 0.17117 0.65254 0.0
N852 N 0.7866 0.1807 0.73888 0.0
N853 N 0.83597 0.19604 0.61983 0.0
H854 H 0.79037 0.14148 0.62825 0.0
H855 H 0.81327 0.15516 0.60464 0.0
H856 H 0.84898 0.20993 0.6174 0.0
H857 H 0.83086 0.18818 0.59723 0.0
H858 H 0.78772 0.19243 0.7593 0.0
H859 H 0.77262 0.16775 0.74081 0.0
H860 H 0.82094 0.21031 0.76041 0.0
H861 H 0.84109 0.22666 0.73532 0.0
C862 C 0.83011 0.79335 0.71093 0.0
C863 C 0.84196 0.78662 0.681 0.0
C864 C 0.81824 0.8171 0.65012 0.0
C865 C 0.80808 0.82532 0.68053 0.0
N866 N 0.80541 0.82339 0.74015 0.0
N867 N 0.84934 0.79264 0.62268 0.0
C868 C 0.81422 0.81391 0.71106 0.0
C869 C 0.83647 0.79858 0.65064 0.0
N870 N 0.83381 0.77963 0.73892 0.0
N871 N 0.80998 0.82681 0.62085 0.0
H872 H 0.86262 0.77894 0.62252 0.0
H873 H 0.84803 0.80214 0.60029 0.0
H874 H 0.79667 0.84046 0.62005 0.0
H875 H 0.81491 0.82026 0.59746 0.0
H876 H 0.82414 0.78203 0.76096 0.0
H877 H 0.84542 0.76448 0.73926 0.0
H878 H 0.81094 0.81755 0.76365 0.0
H879 H 0.79362 0.83839 0.74076 0.0
C880 C 0.70223 0.71906 0.93617 0.0
C881 C 0.68683 0.72491 0.90901 0.0
C882 C 0.70747 0.69448 0.87431 0.0
C883 C 0.72045 0.6864 0.90273 0.0
N884 N 0.72951 0.68932 0.96125 0.0
N885 N 0.67338 0.71808 0.85272 0.0
C886 C 0.71791 0.69845 0.93379 0.0
C887 C 0.68929 0.71283 0.87798 0.0
N888 N 0.70171 0.7334 0.96408 0.0
N889 N 0.71276 0.68453 0.84395 0.0
H890 H 0.65997 0.73154 0.85481 0.0
H891 H 0.67248 0.70823 0.83052 0.0
H892 H 0.72604 0.671 0.84098 0.0
H893 H 0.70552 0.69091 0.82159 0.0
H894 H 0.71386 0.73153 0.9839 0.0
H895 H 0.6903 0.74864 0.96607 0.0
H896 H 0.72651 0.69568 0.98536 0.0
H897 H 0.74103 0.67414 0.96021 0.0
C898 C 0.304 0.68251 0.86412 0.0
C899 C 0.29202 0.67242 0.89212 0.0
C900 C 0.31667 0.698 0.92948 0.0
C901 C 0.33005 0.70649 0.90167 0.0
N902 N 0.33896 0.70511 0.84315 0.0
N903 N 0.28834 0.6678 0.95139 0.0
C904 C 0.32434 0.69833 0.86907 0.0
C905 C 0.29869 0.67948 0.92486 0.0
N906 N 0.29538 0.6774 0.8329 0.0
N907 N 0.32089 0.70818 0.96007 0.0
H908 H 0.27521 0.65405 0.94856 0.0
H909 H 0.29397 0.67035 0.97595 0.0
H910 H 0.33396 0.72186 0.96389 0.0
H911 H 0.31029 0.70456 0.98098 0.0
H912 H 0.30175 0.68593 0.81143 0.0
H913 H 0.28043 0.66588 0.82876 0.0
H914 H 0.33733 0.69795 0.81919 0.0
H915 H 0.354 0.71669 0.84623 0.0
C916 C 0.31993 0.32433 0.88267 0.0
C917 C 0.32632 0.31498 0.91438 0.0
C918 C 0.29669 0.34229 0.94092 0.0
C919 C 0.28929 0.35056 0.90904 0.0
N920 N 0.29012 0.34628 0.84943 0.0
N921 N 0.31863 0.31165 0.97303 0.0
C922 C 0.29988 0.34068 0.87981 0.0
C923 C 0.31402 0.32299 0.94338 0.0
N924 N 0.33366 0.31822 0.85557 0.0
N925 N 0.2877 0.35353 0.96872 0.0
H926 H 0.33113 0.29732 0.97524 0.0
H927 H 0.30876 0.31498 0.9947 0.0
H928 H 0.27519 0.36791 0.96749 0.0
H929 H 0.29394 0.34998 0.99274 0.0
H930 H 0.33156 0.32636 0.83229 0.0
H931 H 0.34852 0.30633 0.85704 0.0
H932 H 0.29546 0.33787 0.82733 0.0
H933 H 0.27508 0.35783 0.8467 0.0
C934 C 0.6841 0.31467 0.92282 0.0
C935 C 0.67724 0.30283 0.89282 0.0
C936 C 0.70967 0.32425 0.86267 0.0
C937 C 0.71521 0.33754 0.89205 0.0
N938 N 0.70778 0.34703 0.9495 0.0
N939 N 0.68157 0.29684 0.83389 0.0
C940 C 0.70249 0.33311 0.92208 0.0
C941 C 0.68963 0.30763 0.86264 0.0
N942 N 0.67313 0.30786 0.9519 0.0
N943 N 0.72385 0.32747 0.83508 0.0
H944 H 0.66711 0.28435 0.83345 0.0
H945 H 0.68816 0.30114 0.81033 0.0
H946 H 0.73828 0.33999 0.83445 0.0
H947 H 0.72243 0.31684 0.81362 0.0
H948 H 0.67847 0.31413 0.97531 0.0
H949 H 0.65943 0.29455 0.95274 0.0
H950 H 0.69787 0.34648 0.97156 0.0
H951 H 0.72162 0.36022 0.94957 0.0
C952 C 0.68569 0.30918 0.14144 0.0
C953 C 0.67896 0.29911 0.17255 0.0
C954 C 0.71081 0.32298 0.20081 0.0
C955 C 0.71637 0.33433 0.17005 0.0
N956 N 0.70998 0.33923 0.11131 0.0
N957 N 0.68409 0.29549 0.23169 0.0
C958 C 0.70413 0.32755 0.14031 0.0
C959 C 0.69142 0.30562 0.20223 0.0
N960 N 0.67436 0.30088 0.11319 0.0
N961 N 0.72419 0.32902 0.22843 0.0
H962 H 0.67029 0.2823 0.23298 0.0
H963 H 0.69095 0.30043 0.25492 0.0
H964 H 0.73803 0.3422 0.22797 0.0
H965 H 0.72248 0.32052 0.25146 0.0
H966 H 0.67926 0.30594 0.08916 0.0
H967 H 0.66046 0.28777 0.11377 0.0
H968 H 0.70069 0.33685 0.08891 0.0
H969 H 0.72402 0.35215 0.1099 0.0
C970 C 0.71291 0.70299 0.1386 0.0
C971 C 0.71808 0.68915 0.16754 0.0
C972 C 0.6892 0.71373 0.19977 0.0
C973 C 0.68204 0.72559 0.17003 0.0
N974 N 0.68623 0.73245 0.11132 0.0
N975 N 0.71185 0.68036 0.22541 0.0
C976 C 0.69391 0.7207 0.13949 0.0
C977 C 0.70666 0.6945 0.19826 0.0
N978 N 0.72626 0.69894 0.11044 0.0
N979 N 0.67905 0.72092 0.22925 0.0
H980 H 0.72495 0.66649 0.22483 0.0
H981 H 0.70267 0.68154 0.248 0.0
H982 H 0.66592 0.73472 0.23058 0.0
H983 H 0.68458 0.71448 0.25244 0.0
H984 H 0.72483 0.70939 0.08887 0.0
H985 H 0.7401 0.68584 0.10945 0.0
H986 H 0.69237 0.72834 0.08747 0.0
H987 H 0.67276 0.74596 0.11176 0.0
C988 C 0.27925 0.71023 0.13033 0.0
C989 C 0.27473 0.6913 0.15356 0.0
C990 C 0.30725 0.70716 0.18956 0.0
C991 C 0.31408 0.72363 0.16405 0.0
N992 N 0.30817 0.73997 0.10897 0.0
N993 N 0.28515 0.67014 0.20416 0.0
C994 C 0.30029 0.72522 0.13423 0.0
C995 C 0.28868 0.68952 0.18321 0.0
N996 N 0.26327 0.71369 0.10461 0.0
N997 N 0.31868 0.70856 0.21978 0.0
H998 H 0.27184 0.65679 0.19996 0.0
H999 H 0.29644 0.66633 0.22441 0.0
H1000 H 0.33233 0.72147 0.22474 0.0
H1001 H 0.31326 0.69853 0.24054 0.0
H1002 H 0.26425 0.72843 0.08821 0.0
H1003 H 0.24765 0.70287 0.10158 0.0
H1004 H 0.30044 0.73999 0.08524 0.0
H1005 H 0.32365 0.75103 0.111 0.0
C1006 C 0.29611 0.3127 0.15109 0.0
C1007 C 0.28962 0.3243 0.18133 0.0
C1008 C 0.31685 0.2971 0.21246 0.0
C1009 C 0.32533 0.28746 0.1819 0.0
N1010 N 0.32384 0.28516 0.12223 0.0
N1011 N 0.29321 0.3286 0.24062 0.0
C1012 C 0.31493 0.29479 0.15118 0.0
C1013 C 0.29959 0.31653 0.2121 0.0
N1014 N 0.28416 0.31907 0.12247 0.0
N1015 N 0.32556 0.28757 0.2416 0.0
H1016 H 0.28024 0.34259 0.24085 0.0
H1017 H 0.30133 0.32562 0.26371 0.0
H1018 H 0.33852 0.27357 0.24212 0.0
H1019 H 0.319 0.29229 0.26504 0.0
H1020 H 0.28652 0.31031 0.09967 0.0
H1021 H 0.27055 0.33242 0.12209 0.0
H1022 H 0.31884 0.29113 0.09858 0.0
H1023 H 0.3372 0.27155 0.12191 0.0
C1024 C 0.99468 0.28214 0.40642 0.0
C1025 C 0.98343 0.30253 0.39098 0.0
C1026 C 0.02327 0.32123 0.38037 0.0
C1027 C 0.03452 0.30032 0.3944 0.0
N1028 N 0.03216 0.26364 0.42702 0.0
N1029 N 0.98557 0.3434 0.36943 0.0
C1030 C 0.0205 0.28174 0.40975 0.0
C1031 C 0.99738 0.32285 0.38022 0.0
N1032 N 0.98066 0.26265 0.41596 0.0
N1033 N 0.03749 0.33876 0.36574 0.0
H1034 H 0.96655 0.3446 0.36907 0.0
H1035 H 0.99435 0.35969 0.36316 0.0
H1036 H 0.05652 0.33801 0.36622 0.0
H1037 H 0.03063 0.35344 0.35213 0.0
H1038 H 0.98772 0.24604 0.42424 0.0
H1039 H 0.96166 0.26274 0.41413 0.0
H1040 H 0.0232 0.25038 0.44106 0.0
H1041 H 0.05115 0.26306 0.42927 0.0
C1042 C 0.72285 0.01475 0.38378 0.0
C1043 C 0.70513 0.03098 0.39673 0.0
C1044 C 0.68408 0.99646 0.42294 0.0
C1045 C 0.69922 0.98009 0.4051 0.0
N1046 N 0.73206 0.97322 0.36646 0.0
N1047 N 0.66799 0.03774 0.42726 0.0
C1048 C 0.71868 0.98907 0.38538 0.0
C1049 C 0.68569 0.02203 0.41651 0.0
N1050 N 0.74357 0.02412 0.36988 0.0
N1051 N 0.66813 0.98731 0.44585 0.0
H1052 H 0.66851 0.05653 0.42261 0.0
H1053 H 0.65197 0.03197 0.43878 0.0
H1054 H 0.6669 0.96856 0.45087 0.0
H1055 H 0.65788 0.99826 0.46182 0.0
H1056 H 0.75826 0.01336 0.36241 0.0
H1057 H 0.74693 0.04296 0.36883 0.0
H1058 H 0.74477 0.97891 0.34884 0.0
H1059 H 0.72918 0.95432 0.36658 0.0
C1060 C 0.01222 0.69264 0.36396 0.0
C1061 C 0.02573 0.71059 0.38166 0.0
C1062 C 0.98802 0.72971 0.40125 0.0
C1063 C 0.97455 0.71271 0.38182 0.0
N1064 N 0.97233 0.67556 0.35002 0.0
N1065 N 0.02774 0.74307 0.42189 0.0
C1066 C 0.98628 0.69319 0.36511 0.0
C1067 C 0.01392 0.72799 0.40219 0.0
N1068 N 0.02444 0.67591 0.34494 0.0
N1069 N 0.97592 0.74819 0.41719 0.0
H1070 H 0.04677 0.74227 0.42227 0.0
H1071 H 0.02058 0.75524 0.43927 0.0
H1072 H 0.95691 0.7494 0.41723 0.0
H1073 H 0.98447 0.7627 0.42941 0.0
H1074 H 0.01602 0.6635 0.32887 0.0
H1075 H 0.04347 0.67493 0.34471 0.0
H1076 H 0.97934 0.65988 0.33883 0.0
H1077 H 0.95328 0.676 0.35058 0.0
C1078 C 0.32853 0.98817 0.38905 0.0
C1079 C 0.3082 0.9754 0.40211 0.0
C1080 C 0.28943 0.01399 0.41958 0.0
C1081 C 0.30869 0.02681 0.40385 0.0
N1082 N 0.34857 0.0275 0.37965 0.0
N1083 N 0.27193 0.9746 0.43534 0.0
C1084 C 0.32911 0.01422 0.3909 0.0
C1085 C 0.28962 0.9879 0.41963 0.0
N1086 N 0.34651 0.97518 0.37352 0.0
N1087 N 0.27041 0.02698 0.43262 0.0
H1088 H 0.27168 0.95547 0.43497 0.0
H1089 H 0.2584 0.98217 0.45027 0.0
H1090 H 0.27036 0.04611 0.43338 0.0
H1091 H 0.25453 0.01913 0.44197 0.0
H1092 H 0.36111 0.98306 0.36091 0.0
H1093 H 0.34649 0.95604 0.37286 0.0
H1094 H 0.36476 0.01986 0.37108 0.0
H1095 H 0.34893 0.04663 0.38077 0.0
C1096 C 0.0114 0.73399 0.68616 0.0
C1097 C 0.03058 0.71739 0.67933 0.0
C1098 C 1.0004 0.68606 0.66454 0.0
C1099 C 0.98157 0.70128 0.67692 0.0
N1100 N 0.97037 0.73786 0.70716 0.0
N1101 N 0.04308 0.67557 0.66902 0.0
C1102 C 0.98731 0.72487 0.68965 0.0
C1103 C 0.02509 0.69283 0.67016 0.0
N1104 N 0.01618 0.75848 0.68894 0.0
N1105 N 0.99467 0.66534 0.64705 0.0
H1106 H 0.06113 0.67928 0.67558 0.0
H1107 H 0.03952 0.65698 0.66528 0.0
H1108 H 0.97668 0.66047 0.64148 0.0
H1109 H 0.00776 0.65463 0.63514 0.0
H1110 H 1.00246 0.77159 0.69134 0.0
H1111 H 0.03357 0.76577 0.68509 0.0
H1112 H 0.97441 0.75433 0.71923 0.0
H1113 H 0.95328 0.73074 0.71311 0.0
C1114 C 0.2979 0.99189 0.71254 0.0
C1115 C 0.31456 0.98223 0.68901 0.0
C1116 C 0.32726 0.02373 0.67349 0.0
C1117 C 0.31037 0.03336 0.69671 0.0
N1118 N 0.27537 0.02749 0.73164 0.0
N1119 N 0.34062 0.98824 0.6418 0.0
C1120 C 0.29424 0.01763 0.714 0.0
C1121 C 0.32774 0.99803 0.66765 0.0
N1122 N 0.28681 0.97665 0.73484 0.0
N1123 N 0.34374 0.03897 0.65859 0.0
H1124 H 0.34092 0.9694 0.63708 0.0
H1125 H 0.34903 0.99876 0.62349 0.0
H1126 H 0.3441 0.05784 0.66281 0.0
H1127 H 0.35815 0.03276 0.64398 0.0
H1128 H 0.2765 0.98292 0.75486 0.0
H1129 H 0.28948 0.95773 0.73495 0.0
H1130 H 0.26164 0.017 0.74253 0.0
H1131 H 0.27223 0.04636 0.73253 0.0
C1132 C 0.00731 0.27111 0.68725 0.0
C1133 C 0.02264 0.2917 0.68251 0.0
C1134 C 0.9877 0.31556 0.66293 0.0
C1135 C 0.97198 0.29652 0.67353 0.0
N1136 N 0.96621 0.25646 0.69735 0.0
N1137 N 0.02802 0.33389 0.6667 0.0
C1138 C 0.9816 0.27411 0.68549 0.0
C1139 C 0.01309 0.31394 0.66988 0.0
N1140 N 0.01757 0.24883 0.69373 0.0
N1141 N 0.97801 0.33527 0.64672 0.0
H1142 H 0.04667 0.33325 0.67184 0.0
H1143 H 0.02174 0.35139 0.66097 0.0
H1144 H 0.95935 0.33657 0.64162 0.0
H1145 H 0.9885 0.34905 0.6359 0.0
H1146 H 0.00763 0.23255 0.69482 0.0
H1147 H 0.03647 0.24643 0.69492 0.0
H1148 H 0.97216 0.24082 0.70979 0.0
H1149 H 0.94728 0.25822 0.69671 0.0
C1150 C 0.6928 0.0088 0.66673 0.0
C1151 C 0.70792 0.02574 0.68385 0.0
C1152 C 0.73433 0.99209 0.70173 0.0
C1153 C 0.71689 0.97506 0.68967 0.0
N1154 N 0.67799 0.96699 0.66363 0.0
N1155 N 0.74179 0.03357 0.72087 0.0
C1156 C 0.69582 0.9833 0.67247 0.0
C1157 C 0.72862 0.01748 0.70185 0.0
N1158 N 0.67558 0.01728 0.64499 0.0
N1159 N 0.75632 0.9838 0.71307 0.0
H1160 H 0.73762 0.05216 0.72251 0.0
H1161 H 0.75556 0.02814 0.73721 0.0
H1162 H 0.76087 0.96522 0.71276 0.0
H1163 H 0.77072 0.99538 0.7196 0.0
H1164 H 0.66528 1.00585 0.62955 0.0
H1165 H 0.67338 0.03595 0.64015 0.0
H1166 H 0.66108 0.97227 0.65414 0.0
H1167 H 0.67925 0.94826 0.66838 0.0
C1168 C 0.51958 0.78876 0.91998 0.0
C1169 C 0.53158 0.80295 0.89554 0.0
C1170 C 0.49227 0.81667 0.87349 0.0
C1171 C 0.48052 0.79936 0.89417 0.0
N1172 N 0.48193 0.76905 0.93746 0.0
N1173 N 0.53053 0.83131 0.85005 0.0
C1174 C 0.49383 0.78582 0.91814 0.0
C1175 C 0.51821 0.81763 0.87299 0.0
N1176 N 0.53312 0.77773 0.9443 0.0
N1177 N 0.47839 0.83175 0.85406 0.0
H1178 H 0.54955 0.83257 0.85003 0.0
H1179 H 0.52219 0.84069 0.83057 0.0
H1180 H 0.45933 0.831 0.85425 0.0
H1181 H 0.48544 0.84597 0.83974 0.0
H1182 H 0.52563 0.76847 0.9645 0.0
H1183 H 0.55207 0.77954 0.94553 0.0
H1184 H 0.49069 0.75667 0.95313 0.0
H1185 H 0.46302 0.76675 0.93667 0.0
C1186 C 0.17499 0.5013 0.91861 0.0
C1187 C 0.18906 0.48534 0.89855 0.0
C1188 C 0.20957 0.52068 0.87366 0.0
C1189 C 0.19247 0.53638 0.88913 0.0
N1190 N 0.15783 0.542 0.92505 0.0
N1191 N 0.21819 0.47956 0.85431 0.0
C1192 C 0.17508 0.52686 0.91175 0.0
C1193 C 0.20627 0.49491 0.87568 0.0
N1194 N 0.16163 0.49182 0.94421 0.0
N1195 N 0.22893 0.5306 0.85709 0.0
H1196 H 0.21566 0.46062 0.85428 0.0
H1197 H 0.229 0.48577 0.83475 0.0
H1198 H 0.23182 0.54951 0.85591 0.0
H1199 H 0.24325 0.52019 0.8476 0.0
H1200 H 0.1525 0.50259 0.96161 0.0
H1201 H 0.16167 0.47312 0.94979 0.0
H1202 H 0.14309 0.53573 0.939 0.0
H1203 H 0.1573 0.56076 0.92018 0.0
C1204 C 0.4932 0.24561 0.8999 0.0
C1205 C 0.47718 0.22737 0.88751 0.0
C1206 C 0.51184 0.2005 0.87581 0.0
C1207 C 0.52788 0.22005 0.88368 0.0
N1208 N 0.53451 0.26174 0.90128 0.0
N1209 N 0.47035 0.18787 0.86262 0.0
C1210 C 0.51878 0.24267 0.89577 0.0
C1211 C 0.48623 0.20471 0.87563 0.0
N1212 N 0.48371 0.26573 0.91544 0.0
N1213 N 0.52136 0.17802 0.86844 0.0
H1214 H 0.45149 0.19054 0.86249 0.0
H1215 H 0.47579 0.17196 0.85037 0.0
H1216 H 0.54014 0.17479 0.86845 0.0
H1217 H 0.51084 0.1623 0.86495 0.0
H1218 H 0.49428 0.27886 0.92766 0.0
H1219 H 0.46494 0.26813 0.91845 0.0
H1220 H 0.52888 0.27953 0.90671 0.0
H1221 H 0.55333 0.26016 0.89832 0.0
C1222 C 0.78534 0.48785 0.89039 0.0
C1223 C 0.80903 0.47774 0.8873 0.0
C1224 C 0.8269 0.51889 0.8852 0.0
C1225 C 0.80321 0.52894 0.88818 0.0
N1226 N 0.76092 0.52399 0.9019 0.0
N1227 N 0.85252 0.48267 0.88932 0.0
C1228 C 0.78276 0.51364 0.89367 0.0
C1229 C 0.82991 0.49306 0.88735 0.0
N1230 N 0.76531 0.473 0.88792 0.0
N1231 N 0.8462 0.53397 0.87843 0.0
H1232 H 0.8549 0.46372 0.89101 0.0
H1233 H 0.86858 0.49272 0.89215 0.0
H1234 H 0.84442 0.55297 0.87675 0.0
H1235 H 0.86357 0.52763 0.87251 0.0
H1236 H 0.7475 0.47955 0.88636 0.0
H1237 H 0.76656 0.45406 0.88499 0.0
H1238 H 0.74566 0.51389 0.90907 0.0
H1239 H 0.75882 0.54293 0.90448 0.0
C1240 C 0.49029 0.22789 0.17415 0.0
C1241 C 0.47845 0.20549 0.18166 0.0
C1242 C 0.51774 0.18454 0.18613 0.0
C1243 C 0.52958 0.20731 0.18121 0.0
N1244 N 0.52857 0.24945 0.16432 0.0
N1245 N 0.47939 0.16189 0.1885 0.0
C1246 C 0.51622 0.22859 0.17276 0.0
C1247 C 0.49181 0.1835 0.18523 0.0
N1248 N 0.47657 0.24859 0.17026 0.0
N1249 N 0.53151 0.16434 0.1932 0.0
H1250 H 0.46035 0.16111 0.18811 0.0
H1251 H 0.48764 0.14475 0.18962 0.0
H1252 H 0.55056 0.16482 0.193 0.0
H1253 H 0.52436 0.14737 0.19988 0.0
H1254 H 0.48377 0.26614 0.16766 0.0
H1255 H 0.45752 0.24819 0.17052 0.0
H1256 H 0.52026 0.26542 0.15589 0.0
H1257 H 0.5476 0.25026 0.16388 0.0
C1258 C 0.82098 0.52109 0.18586 0.0
C1259 C 0.79863 0.53156 0.17535 0.0
C1260 C 0.78162 0.49079 0.16439 0.0
C1261 C 0.80379 0.48029 0.17559 0.0
N1262 N 0.84611 0.48449 0.18982 0.0
N1263 N 0.76005 0.52768 0.14751 0.0
C1264 C 0.82406 0.49526 0.18377 0.0
C1265 C 0.77975 0.51672 0.16208 0.0
N1266 N 0.83857 0.53577 0.19961 0.0
N1267 N 0.76199 0.47601 0.15803 0.0
H1268 H 0.75851 0.54671 0.14572 0.0
H1269 H 0.74642 0.5181 0.13483 0.0
H1270 H 0.76291 0.45694 0.15944 0.0
H1271 H 0.7445 0.48257 0.15324 0.0
H1272 H 0.85432 0.52914 0.21098 0.0
H1273 H 0.83672 0.55477 0.20128 0.0
H1274 H 0.86226 0.49424 0.19348 0.0
H1275 H 0.84849 0.46552 0.18841 0.0
C1276 C 0.49016 0.7829 0.16739 0.0
C1277 C 0.47608 0.80082 0.18408 0.0
C1278 C 0.51306 0.82282 0.20103 0.0
C1279 C 0.52715 0.80384 0.1867 0.0
N1280 N 0.53054 0.76813 0.15205 0.0
N1281 N 0.47263 0.83949 0.21206 0.0
C1282 C 0.51606 0.78473 0.16811 0.0
C1283 C 0.48715 0.82154 0.19909 0.0
N1284 N 0.47848 0.76367 0.15229 0.0
N1285 N 0.52475 0.84138 0.21756 0.0
H1286 H 0.45361 0.83852 0.21102 0.0
H1287 H 0.47907 0.85574 0.22248 0.0
H1288 H 0.54376 0.84275 0.21832 0.0
H1289 H 0.516 0.85523 0.2307 0.0
H1290 H 0.48725 0.74876 0.1415 0.0
H1291 H 0.45948 0.7625 0.15097 0.0
H1292 H 0.52406 0.75419 0.13668 0.0
H1293 H 0.54955 0.76901 0.15297 0.0
C1294 C 0.19044 0.49611 0.20002 0.0
C1295 C 0.20777 0.48235 0.18181 0.0
C1296 C 0.22219 0.51953 0.1539 0.0
C1297 C 0.20614 0.53348 0.17393 0.0
N1298 N 0.17259 0.53607 0.21194 0.0
N1299 N 0.23738 0.47919 0.13815 0.0
C1300 C 0.18926 0.52196 0.19548 0.0
C1301 C 0.2226 0.49356 0.15734 0.0
N1302 N 0.17593 0.48426 0.2225 0.0
N1303 N 0.23766 0.5315 0.13277 0.0
H1304 H 0.23817 0.46019 0.14091 0.0
H1305 H 0.24799 0.48563 0.11859 0.0
H1306 H 0.23705 0.55048 0.12947 0.0
H1307 H 0.25127 0.52305 0.11891 0.0
H1308 H 0.16388 0.49294 0.2386 0.0
H1309 H 0.17622 0.46523 0.22527 0.0
H1310 H 0.15891 0.52919 0.22721 0.0
H1311 H 0.17181 0.55507 0.20904 0.0
C1312 C 0.1124 0.29927 0.52607 0.0
C1313 C 0.13625 0.30604 0.5155 0.0
C1314 C 0.15012 0.30608 0.57381 0.0
C1315 C 0.12602 0.30026 0.58425 0.0
N1316 N 0.08309 0.29996 0.571 0.0
N1317 N 0.17572 0.32262 0.52998 0.0
C1318 C 0.1068 0.29982 0.56055 0.0
C1319 C 0.15441 0.31172 0.53967 0.0
N1320 N 0.09557 0.2903 0.50391 0.0
N1321 N 0.1692 0.30467 0.59571 0.0
H1322 H 0.17915 0.32739 0.50526 0.0
H1323 H 0.18871 0.32919 0.54679 0.0
H1324 H 0.16711 0.30027 0.62078 0.0
H1325 H 0.18739 0.30593 0.58839 0.0
H1326 H 0.07894 0.28277 0.5113 0.0
H1327 H 0.09897 0.28779 0.47866 0.0
H1328 H 0.06834 0.30182 0.55473 0.0
H1329 H 0.07843 0.30117 0.5961 0.0
C1330 C 0.69371 0.11314 0.55345 0.0
C1331 C 0.70906 0.12907 0.57214 0.0
C1332 C 0.72502 0.14717 0.52074 0.0
C1333 C 0.71064 0.13036 0.50199 0.0
N1334 N 0.67776 0.10103 0.49919 0.0
N1335 N 0.73505 0.1646 0.57496 0.0
C1336 C 0.69363 0.11468 0.51799 0.0
C1337 C 0.72327 0.14728 0.55613 0.0
N1338 N 0.68021 0.09576 0.56968 0.0
N1339 N 0.7409 0.16243 0.50457 0.0
H1340 H 0.734 0.16498 0.60091 0.0
H1341 H 0.74428 0.17962 0.56514 0.0
H1342 H 0.74145 0.16387 0.47866 0.0
H1343 H 0.75407 0.17309 0.5165 0.0
H1344 H 0.67078 0.08165 0.55779 0.0
H1345 H 0.67917 0.09488 0.59561 0.0
H1346 H 0.66349 0.09075 0.50905 0.0
H1347 H 0.67774 0.10132 0.47322 0.0
C1348 C 0.89311 0.7046 0.51073 0.0
C1349 C 0.86903 0.70381 0.49738 0.0
C1350 C 0.85254 0.69943 0.55403 0.0
C1351 C 0.87667 0.69947 0.56704 0.0
N1352 N 0.91959 0.69368 0.55676 0.0
N1353 N 0.82665 0.69343 0.50551 0.0
C1354 C 0.89682 0.69916 0.54495 0.0
C1355 C 0.849 0.69887 0.51883 0.0
N1356 N 0.91227 0.7125 0.49178 0.0
N1357 N 0.83301 0.70147 0.57494 0.0
H1358 H 0.82365 0.69232 0.47987 0.0
H1359 H 0.8119 0.68752 0.51976 0.0
H1360 H 0.8347 0.70206 0.60078 0.0
H1361 H 0.81525 0.70445 0.56653 0.0
H1362 H 0.92961 0.71581 0.5016 0.0
H1363 H 0.9105 0.71831 0.46722 0.0
H1364 H 0.93459 0.69104 0.54126 0.0
H1365 H 0.9228 0.68907 0.58162 0.0
C1366 C 0.32882 0.89262 0.55939 0.0
C1367 C 0.31307 0.87731 0.57821 0.0
C1368 C 0.29608 0.85968 0.5269 0.0
C1369 C 0.31042 0.87639 0.50814 0.0
N1370 N 0.3444 0.90424 0.50487 0.0
N1371 N 0.28615 0.84252 0.58117 0.0
C1372 C 0.32829 0.89125 0.52393 0.0
C1373 C 0.29831 0.8594 0.56228 0.0
N1374 N 0.34339 0.90921 0.5756 0.0
N1375 N 0.27967 0.84487 0.51076 0.0
H1376 H 0.28754 0.84209 0.60708 0.0
H1377 H 0.27619 0.82789 0.57145 0.0
H1378 H 0.2787 0.84376 0.48483 0.0
H1379 H 0.2666 0.83419 0.52269 0.0
H1380 H 0.35332 0.92292 0.56374 0.0
H1381 H 0.345 0.90965 0.60152 0.0
H1382 H 0.35908 0.91414 0.51447 0.0
H1383 H 0.34414 0.90358 0.47889 0.0
C1384 C 0.11922 0.71226 0.5092 0.0
C1385 C 0.13728 0.69772 0.49319 0.0
C1386 C 0.15458 0.68699 0.54798 0.0
C1387 C 0.139 0.7044 0.56329 0.0
N1388 N 0.10764 0.73526 0.55838 0.0
N1389 N 0.17193 0.67076 0.49683 0.0
C1390 C 0.12128 0.71711 0.54401 0.0
C1391 C 0.15477 0.68476 0.51254 0.0
N1392 N 0.10037 0.72197 0.49115 0.0
N1393 N 0.1689 0.67235 0.56752 0.0
H1394 H 0.17147 0.66734 0.47124 0.0
H1395 H 0.18707 0.66327 0.50875 0.0
H1396 H 0.16895 0.67354 0.59348 0.0
H1397 H 0.17912 0.65773 0.55847 0.0
H1398 H 0.08513 0.73008 0.50198 0.0
H1399 H 0.09872 0.7203 0.46542 0.0
H1400 H 0.0969 0.7475 0.54493 0.0
H1401 H 0.10834 0.7395 0.58367 0.0
C1402 C 0.30077 0.14598 0.53006 0.0
C1403 C 0.31121 0.12485 0.51507 0.0
C1404 C 0.32079 0.10796 0.57019 0.0
C1405 C 0.30903 0.12834 0.58514 0.0
N1406 N 0.29324 0.1693 0.58078 0.0
N1407 N 0.33625 0.0889 0.51959 0.0
C1408 C 0.30098 0.14831 0.56545 0.0
C1409 C 0.323 0.1069 0.53484 0.0
N1410 N 0.28936 0.16302 0.51052 0.0
N1411 N 0.32894 0.08922 0.58987 0.0
H1412 H 0.33819 0.088 0.49375 0.0
H1413 H 0.34689 0.07616 0.53227 0.0
H1414 H 0.32883 0.09024 0.61583 0.0
H1415 H 0.33508 0.07247 0.58076 0.0
H1416 H 0.27878 0.17729 0.51982 0.0
H1417 H 0.28957 0.16227 0.48456 0.0
H1418 H 0.28896 0.18538 0.56816 0.0
H1419 H 0.29302 0.17124 0.60664 0.0
C1420 C 0.87824 0.33478 0.50977 0.0
C1421 C 0.86307 0.3173 0.49348 0.0
C1422 C 0.84698 0.3045 0.5478 0.0
C1423 C 0.86456 0.31945 0.56421 0.0
N1424 N 0.90024 0.34548 0.56015 0.0
N1425 N 0.83698 0.28157 0.49803 0.0
C1426 C 0.88104 0.33383 0.54505 0.0
C1427 C 0.84841 0.30113 0.51274 0.0
N1428 N 0.88953 0.35271 0.49169 0.0
N1429 N 0.82846 0.29398 0.56555 0.0
H1430 H 0.83847 0.27745 0.47276 0.0
H1431 H 0.82822 0.26785 0.51158 0.0
H1432 H 0.82628 0.29665 0.59111 0.0
H1433 H 0.81384 0.28487 0.55433 0.0
H1434 H 0.89882 0.36737 0.50261 0.0
H1435 H 0.88753 0.35432 0.46594 0.0
H1436 H 0.91422 0.35399 0.54692 0.0
H1437 H 0.90361 0.3446 0.58569 0.0
C1438 C 0.71045 0.8931 0.5661 0.0
C1439 C 0.69198 0.8832 0.58698 0.0
C1440 C 0.66776 0.87178 0.53755 0.0
C1441 C 0.6855 0.88309 0.51692 0.0
N1442 N 0.72129 0.90869 0.5116 0.0
N1443 N 0.65194 0.86543 0.59342 0.0
C1444 C 0.70628 0.89475 0.53118 0.0
C1445 C 0.67024 0.87328 0.57292 0.0
N1446 N 0.73203 0.90108 0.57959 0.0
N1447 N 0.64902 0.85887 0.52325 0.0
H1448 H 0.65363 0.86505 0.6193 0.0
H1449 H 0.63457 0.86062 0.58505 0.0
H1450 H 0.64665 0.85755 0.49751 0.0
H1451 H 0.63685 0.84801 0.53659 0.0
H1452 H 0.74737 0.90529 0.56541 0.0
H1453 H 0.73533 0.90211 0.60512 0.0
H1454 H 0.735 0.92004 0.521 0.0
H1455 H 0.71875 0.91081 0.48602 0.0
C1456 C 0.65502 0.8389 0.06139 0.0
C1457 C 0.64019 0.82179 0.07866 0.0
C1458 C 0.623 0.8075 1.02539 0.0
C1459 C 0.64047 0.82193 1.00807 0.0
N1460 N 0.6734 0.85125 1.00899 0.0
N1461 N 0.61237 0.78729 0.07698 0.0
C1462 C 0.65647 0.83774 1.02595 0.0
C1463 C 0.62446 0.80569 0.0607 0.0
N1464 N 0.66736 0.85653 0.07896 0.0
N1465 N 0.6053 0.79501 1.00821 0.0
H1466 H 0.61319 0.78468 0.10265 0.0
H1467 H 0.60322 0.7731 0.06479 0.0
H1468 H 0.6041 0.79467 0.98234 0.0
H1469 H 0.59042 0.78666 1.0197 0.0
H1470 H 0.67673 0.871 0.06792 0.0
H1471 H 0.66647 0.85788 0.10487 0.0
H1472 H 0.6876 0.86081 1.02047 0.0
H1473 H 0.67386 0.85204 0.98302 0.0
C1474 C 0.18391 0.66214 1.00098 0.0
C1475 C 0.17151 0.64232 0.98536 0.0
C1476 C 0.15776 0.62832 0.04052 0.0
C1477 C 0.17311 0.64599 0.0561 0.0
N1478 N 0.20597 0.67548 0.04987 0.0
N1479 N 0.15056 0.60345 0.99142 0.0
C1480 C 0.18756 0.66184 1.03602 0.0
C1481 C 0.15934 0.62459 1.00539 0.0
N1482 N 0.1918 0.68163 0.98251 0.0
N1483 N 0.14129 0.61541 0.05906 0.0
H1484 H 0.15227 0.59929 0.9662 0.0
H1485 H 0.14384 0.58888 1.00547 0.0
H1486 H 0.13928 0.61797 0.08466 0.0
H1487 H 0.12802 0.60405 0.04851 0.0
H1488 H 0.19896 0.69754 0.99322 0.0
H1489 H 0.18863 0.68307 0.95695 0.0
H1490 H 0.21844 0.68541 1.03565 0.0
H1491 H 0.21077 0.6746 0.07497 0.0
C1492 C 0.34967 0.18828 0.05367 0.0
C1493 C 0.36519 0.20281 0.07416 0.0
C1494 C 0.3803 0.22465 1.02481 0.0
C1495 C 0.36518 0.20973 1.0042 0.0
N1496 N 0.33903 0.17452 0.9978 0.0
N1497 N 0.39843 0.23187 0.07908 0.0
C1498 C 0.35092 0.19066 1.01833 0.0
C1499 C 0.38169 0.21984 0.05961 0.0
N1500 N 0.33339 0.17253 0.06812 0.0
N1501 N 0.39192 0.24463 1.0116 0.0
H1502 H 0.39908 0.23047 0.10494 0.0
H1503 H 0.41293 0.24197 0.06943 0.0
H1504 H 0.39134 0.24912 0.9864 0.0
H1505 H 0.40055 0.25805 1.02591 0.0
H1506 H 0.31952 0.16359 0.0551 0.0
H1507 H 0.33303 0.16925 0.09372 0.0
H1508 H 0.33017 0.15879 1.00614 0.0
H1509 H 0.33974 0.17577 0.97187 0.0
C1510 C 0.84889 0.37886 0.0493 0.0
C1511 C 0.82803 0.38781 0.06641 0.0
C1512 C 0.80779 0.39622 1.0128 0.0
C1513 C 0.82799 0.38581 0.99572 0.0
N1514 N 0.8664 0.36447 0.99718 0.0
N1515 N 0.78681 0.40353 0.06495 0.0
C1516 C 0.84825 0.3765 1.01384 0.0
C1517 C 0.8072 0.3959 0.04827 0.0
N1518 N 0.86935 0.37268 0.06698 0.0
N1519 N 0.78975 0.40776 0.99514 0.0
H1520 H 0.78628 0.40635 0.09061 0.0
H1521 H 0.76989 0.40603 0.05358 0.0
H1522 H 0.78917 0.4083 0.96923 0.0
H1523 H 0.77622 0.41849 1.00596 0.0
H1524 H 0.88612 0.3688 0.05608 0.0
H1525 H 0.87 0.37273 0.09294 0.0
H1526 H 0.88046 0.35496 1.00886 0.0
H1527 H 0.86644 0.36237 0.97134 0.0
C1528 C 0.64163 0.22877 0.05217 0.0
C1529 C 0.62438 0.21395 0.06908 0.0
C1530 C 0.60914 0.19805 1.01562 0.0
C1531 C 0.62368 0.2157 0.99891 0.0
N1532 N 0.65452 0.24728 1.00007 0.0
N1533 N 0.59227 0.18379 0.06819 0.0
C1534 C 0.6404 0.23068 1.01686 0.0
C1535 C 0.60857 0.19802 0.05115 0.0
N1536 N 0.65921 0.24087 0.07009 0.0
N1537 N 0.59575 0.18159 0.99741 0.0
H1538 H 0.59223 0.18266 0.09413 0.0
H1539 H 0.57826 0.17382 0.05697 0.0
H1540 H 0.59555 0.18156 0.97142 0.0
H1541 H 0.58625 0.16692 1.00771 0.0
H1542 H 0.67363 0.25051 0.05947 0.0
H1543 H 0.66054 0.23959 0.09598 0.0
H1544 H 0.66489 0.26089 1.01161 0.0
H1545 H 0.65519 0.24804 0.97412 0.0
C1546 C 0.81038 0.60752 0.05314 0.0
C1547 C 0.82869 0.62091 0.07066 0.0
C1548 C 0.84658 0.63412 1.01744 0.0
C1549 C 0.82864 0.62021 1.00001 0.0
N1550 N 0.79677 0.5896 1.00102 0.0
N1551 N 0.86639 0.64376 0.07019 0.0
C1552 C 0.81144 0.60581 1.01782 0.0
C1553 C 0.84758 0.63308 0.05298 0.0
N1554 N 0.79178 0.59649 0.07024 0.0
N1555 N 0.86181 0.64933 1.0001 0.0
H1556 H 0.86709 0.64436 0.09614 0.0
H1557 H 0.8821 0.65056 0.05894 0.0
H1558 H 0.8616 0.65058 0.97418 0.0
H1559 H 0.87345 0.66203 1.0113 0.0
H1560 H 0.77604 0.58967 0.0589 0.0
H1561 H 0.79131 0.59518 0.09611 0.0
H1562 H 0.78596 0.57645 1.01264 0.0
H1563 H 0.79691 0.5877 0.97522 0.0
C1564 C 0.36149 0.83015 1.01605 0.0
C1565 C 0.36135 0.80686 1.00022 0.0
C1566 C 0.36316 0.7865 0.05468 0.0
C1567 C 0.36108 0.80968 0.07058 0.0
N1568 N 0.35631 0.85347 0.06732 0.0
N1569 N 0.35976 0.76268 1.00386 0.0
C1570 C 0.35978 0.83153 0.05151 0.0
C1571 C 0.36156 0.78498 1.01939 0.0
N1572 N 0.36355 0.85089 0.99716 0.0
N1573 N 0.36734 0.76594 0.07335 0.0
H1574 H 0.35987 0.76058 0.97806 0.0
H1575 H 0.35657 0.74628 1.01636 0.0
H1576 H 0.3682 0.76617 0.09928 0.0
H1577 H 0.37185 0.74895 0.06328 0.0
H1578 H 0.36622 0.86834 1.00706 0.0
H1579 H 0.36419 0.85044 0.97118 0.0
H1580 H 0.35263 0.86982 0.05499 0.0
H1581 H 0.35571 0.85507 0.09322 0.0
C1582 C 0.17979 0.39841 1.03008 0.0
C1583 C 0.19443 0.38221 1.01097 0.0
C1584 C 0.21158 0.3645 0.06201 0.0
C1585 C 0.19857 0.38217 0.08091 0.0
N1586 N 0.1661 0.41155 0.08496 0.0
N1587 N 0.21976 0.34633 1.00769 0.0
C1588 C 0.1811 0.39757 0.06553 0.0
C1589 C 0.20867 0.36388 1.02671 0.0
N1590 N 0.16552 0.41526 1.01408 0.0
N1591 N 0.22746 0.3491 0.0779 0.0
H1592 H 0.218 0.34572 0.98183 0.0
H1593 H 0.22925 0.33143 1.01732 0.0
H1594 H 0.22886 0.34834 0.10382 0.0
H1595 H 0.23963 0.33751 0.06581 0.0
H1596 H 0.15642 0.42951 1.02597 0.0
H1597 H 0.16328 0.41532 0.98824 0.0
H1598 H 0.15175 0.42204 0.07578 0.0
H1599 H 0.16689 0.41116 0.11093 0.0
C1600 C 0.15425 0.34851 0.27012 0.0
C1601 C 0.17506 0.36382 0.27361 0.0
C1602 C 0.17451 0.35786 0.3343 0.0
C1603 C 0.15417 0.34193 0.33068 0.0
N1604 N 0.12841 0.31739 0.29485 0.0
N1605 N 0.20834 0.37874 0.30754 0.0
C1606 C 0.14516 0.33584 0.29846 0.0
C1607 C 0.1862 0.36719 0.3053 0.0
N1608 N 0.14248 0.34694 0.24011 0.0
N1609 N 0.18198 0.36494 0.36539 0.0
H1610 H 0.21758 0.38551 0.28678 0.0
H1611 H 0.21861 0.37961 0.32938 0.0
H1612 H 0.17404 0.35829 0.38717 0.0
H1613 H 0.19482 0.37872 0.36963 0.0
H1614 H 0.12557 0.33845 0.23697 0.0
H1615 H 0.14865 0.35577 0.2187 0.0
H1616 H 0.12301 0.31036 0.27184 0.0
H1617 H 0.12166 0.3074 0.31494 0.0
C1618 C 0.65424 0.17267 0.27391 0.0
C1619 C 0.66644 0.19248 0.25811 0.0
C1620 C 0.7004 0.18893 0.29781 0.0
C1621 C 0.68929 0.16771 0.31157 0.0
N1622 N 0.65731 0.13716 0.30986 0.0
N1623 N 0.70246 0.21747 0.25158 0.0
C1624 C 0.66661 0.159 0.29894 0.0
C1625 C 0.6899 0.20008 0.26915 0.0
N1626 N 0.63047 0.16752 0.26601 0.0
N1627 N 0.72051 0.19894 0.31293 0.0
H1628 H 0.69538 0.22593 0.23036 0.0
H1629 H 0.72064 0.22198 0.25619 0.0
H1630 H 0.72839 0.19157 0.33437 0.0
H1631 H 0.72805 0.21576 0.30619 0.0
H1632 H 0.61967 0.15533 0.27947 0.0
H1633 H 0.62079 0.17685 0.24759 0.0
H1634 H 0.64253 0.12836 0.29862 0.0
H1635 H 0.66539 0.12682 0.32868 0.0
C1636 C 0.85534 0.66834 0.25026 0.0
C1637 C 0.83404 0.65371 0.25321 0.0
C1638 C 0.83322 0.66122 0.31363 0.0
C1639 C 0.85427 0.67624 0.31061 0.0
N1640 N 0.88182 0.69895 0.27541 0.0
N1641 N 0.79935 0.64094 0.28573 0.0
C1642 C 0.86425 0.68127 0.27867 0.0
C1643 C 0.82194 0.65162 0.28435 0.0
N1644 N 0.86767 0.66902 0.22071 0.0
N1645 N 0.8247 0.65512 0.34451 0.0
H1646 H 0.79043 0.63402 0.26471 0.0
H1647 H 0.78848 0.64101 0.30697 0.0
H1648 H 0.83231 0.66195 0.3665 0.0
H1649 H 0.81125 0.64193 0.3485 0.0
H1650 H 0.88488 0.67692 0.21802 0.0
H1651 H 0.86146 0.66015 0.19925 0.0
H1652 H 0.88813 0.70524 0.25251 0.0
H1653 H 0.88846 0.70907 0.29556 0.0
C1654 C 0.32525 0.82885 0.26856 0.0
C1655 C 0.35004 0.82701 0.25891 0.0
C1656 C 0.36268 0.8496 0.30903 0.0
C1657 C 0.33777 0.85287 0.31761 0.0
N1658 N 0.29519 0.85025 0.3018 0.0
N1659 N 0.39219 0.83865 0.26656 0.0
C1660 C 0.31896 0.84373 0.29639 0.0
C1661 C 0.3687 0.83844 0.27805 0.0
N1662 N 0.30774 0.81608 0.25141 0.0
N1663 N 0.38058 0.85601 0.33124 0.0
H1664 H 0.3974 0.83014 0.24442 0.0
H1665 H 0.40614 0.84891 0.27748 0.0
H1666 H 0.37689 0.86373 0.35447 0.0
H1667 H 0.39894 0.85171 0.32805 0.0
H1668 H 0.28981 0.81423 0.25962 0.0
H1669 H 0.31153 0.80593 0.22997 0.0
H1670 H 0.28106 0.84626 0.28523 0.0
H1671 H 0.28978 0.86169 0.32125 0.0
C1672 C 0.1778 0.66482 0.78063 0.0
C1673 C 0.16198 0.6662 0.80872 0.0
C1674 C 0.13025 0.68483 0.77365 0.0
C1675 C 0.14636 0.68438 0.74585 0.0
N1676 N 0.18695 0.67817 0.72435 0.0
N1677 N 0.1258 0.68298 0.83372 0.0
C1678 C 0.17068 0.67594 0.74994 0.0
C1679 C 0.13897 0.67781 0.80568 0.0
N1680 N 0.19888 0.65146 0.78239 0.0
N1681 N 0.10644 0.69168 0.76953 0.0
H1682 H 0.13194 0.67865 0.85763 0.0
H1683 H 0.11011 0.69372 0.83371 0.0
H1684 H 0.09944 0.69828 0.74719 0.0
H1685 H 0.09313 0.68931 0.78773 0.0
H1686 H 0.20948 0.64719 0.7617 0.0
H1687 H 0.20497 0.64282 0.80394 0.0
H1688 H 0.20563 0.67521 0.72709 0.0
H1689 H 0.18213 0.68472 0.70085 0.0
C1690 C 0.36199 0.18242 0.76445 0.0
C1691 C 0.3404 0.16802 0.76504 0.0
C1692 C 0.33489 0.1782 0.82442 0.0
C1693 C 0.35822 0.18953 0.82478 0.0
N1694 N 0.39444 0.2025 0.79545 0.0
N1695 N 0.30687 0.15058 0.79631 0.0
C1696 C 0.37188 0.19169 0.79483 0.0
C1697 C 0.32674 0.16579 0.79508 0.0
N1698 N 0.3725 0.18803 0.73453 0.0
N1699 N 0.32056 0.17909 0.85223 0.0
H1700 H 0.29981 0.14142 0.77566 0.0
H1701 H 0.29821 0.14561 0.81834 0.0
H1702 H 0.32636 0.1868 0.87469 0.0
H1703 H 0.30226 0.17386 0.85244 0.0
H1704 H 0.38683 0.20043 0.73184 0.0
H1705 H 0.36534 0.18208 0.71179 0.0
H1706 H 0.4067 0.2017 0.77572 0.0
H1707 H 0.40151 0.21139 0.81637 0.0
C1708 C 0.82143 0.30552 0.76905 0.0
C1709 C 0.83942 0.31767 0.74962 0.0
C1710 C 0.8413 0.35086 0.79083 0.0
C1711 C 0.82185 0.33993 0.80872 0.0
N1712 N 0.79119 0.30833 0.81308 0.0
N1713 N 0.8617 0.35486 0.73774 0.0
C1714 C 0.81122 0.31767 0.79724 0.0
C1715 C 0.84787 0.34128 0.75916 0.0
N1716 N 0.81424 0.28228 0.76063 0.0
N1717 N 0.85391 0.37012 0.80437 0.0
H1718 H 0.86592 0.34901 0.71375 0.0
H1719 H 0.86652 0.37307 0.74224 0.0
H1720 H 0.85024 0.37703 0.82803 0.0
H1721 H 0.86972 0.37736 0.79384 0.0
H1722 H 0.8035 0.27124 0.77587 0.0
H1723 H 0.81996 0.27356 0.73884 0.0
H1724 H 0.7808 0.29384 0.80374 0.0
H1725 H 0.78415 0.31595 0.83489 0.0
C1726 C 0.68091 0.82272 0.7613 0.0
C1727 C 0.67739 0.84818 0.75569 0.0
C1728 C 0.65351 0.85078 0.80731 0.0
C1729 C 0.65918 0.82595 0.81457 0.0
N1730 N 0.68363 0.79028 0.80218 0.0
N1731 N 0.66588 0.88762 0.77855 0.0
C1732 C 0.67451 0.81251 0.79266 0.0
C1733 C 0.66531 0.86259 0.7802 0.0
N1734 N 0.68927 0.80797 0.73626 0.0
N1735 N 0.63593 0.86285 0.82499 0.0
H1736 H 0.67508 0.89723 0.76002 0.0
H1737 H 0.65951 0.89884 0.79768 0.0
H1738 H 0.62605 0.8548 0.84423 0.0
H1739 H 0.6294 0.88009 0.81824 0.0
H1740 H 0.6898 0.78891 0.73809 0.0
H1741 H 0.69318 0.81443 0.71243 0.0
H1742 H 0.69669 0.78079 0.78846 0.0
H1743 H 0.68024 0.78262 0.82551 0.0
C1744 C 0.87773 0.66345 0.78973 0.0
C1745 C 0.86154 0.67388 0.76588 0.0
C1746 C 0.82654 0.65938 0.79852 0.0
C1747 C 0.84276 0.65098 0.82376 0.0
N1748 N 0.88351 0.64897 0.84628 0.0
N1749 N 0.82061 0.68602 0.75092 0.0
C1750 C 0.86829 0.65413 0.82016 0.0
C1751 C 0.83594 0.673 0.77115 0.0
N1752 N 0.90208 0.66152 0.78282 0.0
N1753 N 0.80228 0.65347 0.79985 0.0
H1754 H 0.82673 0.69647 0.73087 0.0
H1755 H 0.80208 0.6883 0.75583 0.0
H1756 H 0.79457 0.6434 0.81921 0.0
H1757 H 0.79017 0.65668 0.78029 0.0
H1758 H 0.91426 0.6516 0.7975 0.0
H1759 H 0.90984 0.66785 0.76081 0.0
H1760 H 0.90201 0.65343 0.84652 0.0
H1761 H 0.87722 0.64234 0.86907 0.0
C1762 C 0.35164 0.85415 0.81776 0.0
C1763 C 0.36202 0.83046 0.82033 0.0
C1764 C 0.3539 0.82313 0.76087 0.0
C1765 C 0.34612 0.84779 0.75752 0.0
N1766 N 0.34 0.88787 0.78193 0.0
N1767 N 0.3755 0.79303 0.79405 0.0
C1768 C 0.34544 0.86357 0.7858 0.0
C1769 C 0.36366 0.81502 0.79185 0.0
N1770 N 0.3472 0.86741 0.84604 0.0
N1771 N 0.35125 0.80726 0.73469 0.0
H1772 H 0.38243 0.78615 0.81633 0.0
H1773 H 0.37997 0.78234 0.77344 0.0
H1774 H 0.34416 0.81257 0.71166 0.0
H1775 H 0.35404 0.78842 0.73656 0.0
H1776 H 0.33726 0.88366 0.84631 0.0
H1777 H 0.35158 0.86102 0.86981 0.0
H1778 H 0.34208 0.90086 0.80076 0.0
H1779 H 0.33518 0.89557 0.75914 0.0
C1780 C 0.14412 0.31426 0.79938 0.0
C1781 C 0.14413 0.32957 0.77067 0.0
C1782 C 0.15919 0.36405 0.80436 0.0
C1783 C 0.15975 0.34863 0.83288 0.0
N1784 N 0.15782 0.30808 0.85635 0.0
N1785 N 0.15711 0.36691 0.74411 0.0
C1786 C 0.1537 0.32343 0.83003 0.0
C1787 C 0.1533 0.35385 0.77269 0.0
N1788 N 0.134 0.29134 0.79788 0.0
N1789 N 0.16326 0.38869 0.80767 0.0
H1790 H 0.15341 0.3598 0.72047 0.0
H1791 H 0.16616 0.38372 0.7435 0.0
H1792 H 0.16798 0.39695 0.83019 0.0
H1793 H 0.16013 0.40129 0.78868 0.0
H1794 H 0.13044 0.28069 0.81881 0.0
H1795 H 0.12773 0.28336 0.77589 0.0
H1796 H 0.15644 0.28906 0.85479 0.0
H1797 H 0.16472 0.31419 0.87917 0.0
C1798 C 0.67207 0.13632 0.79267 0.0
C1799 C 0.68189 0.15155 0.76729 0.0
C1800 C 0.66342 0.18753 0.79393 0.0
C1801 C 0.6557 0.17257 0.82096 0.0
N1802 N 0.65738 0.13368 0.84937 0.0
N1803 N 0.69115 0.19226 0.74743 0.0
C1804 C 0.66137 0.14722 0.82127 0.0
C1805 C 0.67875 0.17735 0.76891 0.0
N1806 N 0.67197 0.11139 0.7889 0.0
N1807 N 0.65526 0.21112 0.79121 0.0
H1808 H 0.70283 0.18558 0.72908 0.0
H1809 H 0.69165 0.21129 0.74984 0.0
H1810 H 0.64372 0.21931 0.80852 0.0
H1811 H 0.65812 0.22188 0.77014 0.0
H1812 H 0.66268 0.0996 0.80488 0.0
H1813 H 0.67905 0.10254 0.76805 0.0
H1814 H 0.66354 0.11573 0.85222 0.0
H1815 H 0.65016 0.14113 0.87116 0.0
C1816 C 0.86651 0.34764 0.25474 0.0
C1817 C 0.84152 0.35181 0.24716 0.0
C1818 C 0.8298 0.32887 0.29744 0.0
C1819 C 0.85474 0.32687 0.30644 0.0
N1820 N 0.89665 0.33859 0.29723 0.0
N1821 N 0.79944 0.35103 0.26566 0.0
C1822 C 0.87303 0.33763 0.28621 0.0
C1823 C 0.82311 0.34362 0.26962 0.0
N1824 N 0.88399 0.35213 0.23127 0.0
N1825 N 0.8125 0.31652 0.31528 0.0
H1826 H 0.7937 0.36269 0.24668 0.0
H1827 H 0.78585 0.34764 0.28317 0.0
H1828 H 0.81664 0.30645 0.33665 0.0
H1829 H 0.79438 0.31488 0.30758 0.0
H1830 H 0.90222 0.34712 0.23418 0.0
H1831 H 0.8799 0.35846 0.2074 0.0
H1832 H 0.91034 0.34835 0.28507 0.0
H1833 H 0.90203 0.33173 0.32031 0.0
C1834 C 0.68521 0.82552 0.27432 0.0
C1835 C 0.65975 0.82569 0.26801 0.0
C1836 C 0.65285 0.84942 0.31923 0.0
C1837 C 0.67828 0.84859 0.32609 0.0
N1838 N 0.71795 0.83166 0.31441 0.0
N1839 N 0.61875 0.83438 0.28619 0.0
C1840 C 0.69427 0.83543 0.30478 0.0
C1841 C 0.64339 0.83667 0.29099 0.0
N1842 N 0.70075 0.81633 0.25082 0.0
N1843 N 0.63784 0.86317 0.33895 0.0
H1844 H 0.61114 0.8262 0.26508 0.0
H1845 H 0.60579 0.83921 0.30394 0.0
H1846 H 0.64372 0.8715 0.3609 0.0
H1847 H 0.61984 0.86733 0.33285 0.0
H1848 H 0.71967 0.81798 0.25219 0.0
H1849 H 0.69466 0.80866 0.22844 0.0
H1850 H 0.73004 0.82032 0.30171 0.0
H1851 H 0.72492 0.83803 0.33706 0.0
C1852 C 0.1628 0.6529 0.30462 0.0
C1853 C 0.14305 0.66965 0.30329 0.0
C1854 C 0.14188 0.66597 0.24215 0.0
C1855 C 0.16207 0.64976 0.24342 0.0
N1856 N 0.19559 0.63272 0.2748 0.0
N1857 N 0.11798 0.69692 0.27062 0.0
C1858 C 0.1737 0.64473 0.27438 0.0
C1859 C 0.13386 0.67763 0.27195 0.0
N1860 N 0.17042 0.64387 0.33463 0.0
N1861 N 0.12962 0.66936 0.21282 0.0
H1862 H 0.11216 0.70628 0.29181 0.0
H1863 H 0.11253 0.70521 0.24847 0.0
H1864 H 0.135 0.66131 0.19044 0.0
H1865 H 0.11305 0.67862 0.21112 0.0
H1866 H 0.18275 0.62946 0.33696 0.0
H1867 H 0.16303 0.6495 0.3573 0.0
H1868 H 0.20618 0.63063 0.29619 0.0
H1869 H 0.2044 0.62698 0.25314 0.0
C1870 C 0.3198 0.16277 0.30487 0.0
C1871 C 0.33853 0.15076 0.32327 0.0
C1872 C 0.36829 0.16215 0.28032 0.0
C1873 C 0.35025 0.17662 0.26425 0.0
N1874 N 0.3095 0.19319 0.26311 0.0
N1875 N 0.3814 0.1426 0.33148 0.0
C1876 C 0.32621 0.17772 0.27717 0.0
C1877 C 0.36299 0.15131 0.3117 0.0
N1878 N 0.2958 0.15886 0.31261 0.0
N1879 N 0.39051 0.15871 0.26563 0.0
H1880 H 0.37838 0.13526 0.35509 0.0
H1881 H 0.39984 0.14486 0.32602 0.0
H1882 H 0.3952 0.16648 0.24285 0.0
H1883 H 0.40345 0.14633 0.27445 0.0
H1884 H 0.28137 0.16511 0.29797 0.0
H1885 H 0.29013 0.14733 0.33178 0.0
H1886 H 0.29266 0.19707 0.27388 0.0
H1887 H 0.3131 0.20336 0.24167 0.0
loop_
_geom_bond_atom_site_label_1
_geom_bond_atom_site_label_2
_geom_bond_distance
_geom_bond_site_symmetry_2
_ccdc_geom_bond_type
Cu0 N1 1.999 . S
Cu0 O6 1.974 . S
Cu0 N11 1.985 . S
Cu0 O20 1.959 . S
N1 Cu0 1.999 . S
N1 C3 1.263 . S
N1 C5 1.389 . S
N2 C3 1.358 . S
N2 C4 1.400 . S
C3 N1 1.263 . S
C3 N2 1.358 . S
C3 H9 0.930 . S
C4 N2 1.400 . S
C4 C5 1.351 . S
C4 H21 0.930 . S
C5 N1 1.389 . S
C5 C4 1.351 . S
C5 H10 0.930 . S
O6 Cu0 1.974 . S
O6 C16 1.282 . S
C7 O8 1.261 . S
C7 O20 1.251 . S
O8 C7 1.261 . S
H9 C3 0.930 . S
H10 C5 0.930 . S
N11 Cu0 1.985 . S
N11 C13 1.335 . S
N11 C14 1.390 . S
N12 C13 1.345 . S
N12 C15 1.336 . S
C13 N11 1.335 . S
C13 N12 1.345 . S
C13 H18 0.930 . S
C14 N11 1.390 . S
C14 C15 1.346 . S
C14 H19 0.930 . S
C15 N12 1.336 . S
C15 C14 1.346 . S
C15 H22 0.929 . S
C16 O6 1.282 . S
C16 O17 1.216 . S
O17 C16 1.216 . S
H18 C13 0.930 . S
H19 C14 0.930 . S
O20 Cu0 1.959 . S
O20 C7 1.251 . S
H21 C4 0.930 . S
H22 C15 0.929 . S
Cu23 N24 1.999 . S
Cu23 O29 1.974 . S
Cu23 N34 1.985 . S
Cu23 O43 1.959 . S
N24 Cu23 1.999 . S
N24 C26 1.263 . S
N24 C28 1.389 . S
N25 C26 1.358 . S
N25 C27 1.400 . S
C26 N24 1.263 . S
C26 N25 1.358 . S
C26 H32 0.930 . S
C27 N25 1.400 . S
C27 C28 1.351 . S
C27 H44 0.930 . S
C28 N24 1.389 . S
C28 C27 1.351 . S
C28 H33 0.930 . S
O29 Cu23 1.974 . S
O29 C39 1.282 . S
C30 O31 1.261 . S
C30 O43 1.251 . S
O31 C30 1.261 . S
H32 C26 0.930 . S
H33 C28 0.930 . S
N34 Cu23 1.985 . S
N34 C36 1.335 . S
N34 C37 1.390 . S
N35 C36 1.345 . S
N35 C38 1.336 . S
C36 N34 1.335 . S
C36 N35 1.345 . S
C36 H41 0.930 . S
C37 N34 1.390 . S
C37 C38 1.346 . S
C37 H42 0.930 . S
C38 N35 1.336 . S
C38 C37 1.346 . S
C38 H45 0.929 . S
C39 O29 1.282 . S
C39 O40 1.216 . S
O40 C39 1.216 . S
H41 C36 0.930 . S
H42 C37 0.930 . S
O43 Cu23 1.959 . S
O43 C30 1.251 . S
H44 C27 0.930 . S
H45 C38 0.929 . S
Cu46 N47 1.999 . S
Cu46 O52 1.974 . S
Cu46 N57 1.985 . S
Cu46 O66 1.959 . S
N47 Cu46 1.999 . S
N47 C49 1.263 . S
N47 C51 1.389 . S
N48 C49 1.358 . S
N48 C50 1.400 . S
C49 N47 1.263 . S
C49 N48 1.358 . S
C49 H55 0.930 . S
C50 N48 1.400 . S
C50 C51 1.351 . S
C50 H67 0.930 . S
C51 N47 1.389 . S
C51 C50 1.351 . S
C51 H56 0.930 . S
O52 Cu46 1.974 . S
O52 C62 1.282 . S
C53 O54 1.261 . S
C53 O66 1.251 . S
O54 C53 1.261 . S
H55 C49 0.930 . S
H56 C51 0.930 . S
N57 Cu46 1.985 . S
N57 C59 1.335 . S
N57 C60 1.390 . S
N58 C59 1.345 . S
N58 C61 1.336 . S
C59 N57 1.335 . S
C59 N58 1.345 . S
C59 H64 0.930 . S
C60 N57 1.390 . S
C60 C61 1.346 . S
C60 H65 0.930 . S
C61 N58 1.336 . S
C61 C60 1.346 . S
C61 H68 0.929 . S
C62 O52 1.282 . S
C62 O63 1.216 . S
O63 C62 1.216 . S
H64 C59 0.930 . S
H65 C60 0.930 . S
O66 Cu46 1.959 . S
O66 C53 1.251 . S
H67 C50 0.930 . S
H68 C61 0.929 . S
Cu69 N70 1.999 . S
Cu69 O75 1.974 . S
Cu69 N80 1.985 . S
Cu69 O89 1.959 . S
N70 Cu69 1.999 . S
N70 C72 1.263 . S
N70 C74 1.389 . S
N71 C72 1.358 . S
N71 C73 1.400 . S
C72 N70 1.263 . S
C72 N71 1.358 . S
C72 H78 0.930 . S
C73 N71 1.400 . S
C73 C74 1.351 . S
C73 H90 0.930 . S
C74 N70 1.389 . S
C74 C73 1.351 . S
C74 H79 0.930 . S
O75 Cu69 1.974 . S
O75 C85 1.282 . S
C76 O77 1.261 . S
C76 O89 1.251 . S
O77 C76 1.261 . S
H78 C72 0.930 . S
H79 C74 0.930 . S
N80 Cu69 1.985 . S
N80 C82 1.335 . S
N80 C83 1.390 . S
N81 C82 1.345 . S
N81 C84 1.336 . S
C82 N80 1.335 . S
C82 N81 1.345 . S
C82 H87 0.930 . S
C83 N80 1.390 . S
C83 C84 1.346 . S
C83 H88 0.930 . S
C84 N81 1.336 . S
C84 C83 1.346 . S
C84 H91 0.929 . S
C85 O75 1.282 . S
C85 O86 1.216 . S
O86 C85 1.216 . S
H87 C82 0.930 . S
H88 C83 0.930 . S
O89 Cu69 1.959 . S
O89 C76 1.251 . S
H90 C73 0.930 . S
H91 C84 0.929 . S
Cu92 N93 1.999 . S
Cu92 O98 1.974 . S
Cu92 N103 1.985 . S
Cu92 O112 1.959 . S
N93 Cu92 1.999 . S
N93 C95 1.263 . S
N93 C97 1.389 . S
N94 C95 1.358 . S
N94 C96 1.400 . S
C95 N93 1.263 . S
C95 N94 1.358 . S
C95 H101 0.930 . S
C96 N94 1.400 . S
C96 C97 1.351 . S
C96 H113 0.930 . S
C97 N93 1.389 . S
C97 C96 1.351 . S
C97 H102 0.930 . S
O98 Cu92 1.974 . S
O98 C108 1.282 . S
C99 O100 1.261 . S
C99 O112 1.251 . S
O100 C99 1.261 . S
H101 C95 0.930 . S
H102 C97 0.930 . S
N103 Cu92 1.985 . S
N103 C105 1.335 . S
N103 C106 1.390 . S
N104 C105 1.345 . S
N104 C107 1.336 . S
C105 N103 1.335 . S
C105 N104 1.345 . S
C105 H110 0.930 . S
C106 N103 1.390 . S
C106 C107 1.346 . S
C106 H111 0.930 . S
C107 N104 1.336 . S
C107 C106 1.346 . S
C107 H114 0.929 . S
C108 O98 1.282 . S
C108 O109 1.216 . S
O109 C108 1.216 . S
H110 C105 0.930 . S
H111 C106 0.930 . S
O112 Cu92 1.959 . S
O112 C99 1.251 . S
H113 C96 0.930 . S
H114 C107 0.929 . S
Cu115 N116 1.999 . S
Cu115 O121 1.974 . S
Cu115 N126 1.985 . S
Cu115 O135 1.959 . S
N116 Cu115 1.999 . S
N116 C118 1.263 . S
N116 C120 1.389 . S
N117 C118 1.358 . S
N117 C119 1.400 . S
C118 N116 1.263 . S
C118 N117 1.358 . S
C118 H124 0.930 . S
C119 N117 1.400 . S
C119 C120 1.351 . S
C119 H136 0.930 . S
C120 N116 1.389 . S
C120 C119 1.351 . S
C120 H125 0.930 . S
O121 Cu115 1.974 . S
O121 C131 1.282 . S
C122 O123 1.261 . S
C122 O135 1.251 . S
O123 C122 1.261 . S
H124 C118 0.930 . S
H125 C120 0.930 . S
N126 Cu115 1.985 . S
N126 C128 1.335 . S
N126 C129 1.390 . S
N127 C128 1.345 . S
N127 C130 1.336 . S
C128 N126 1.335 . S
C128 N127 1.345 . S
C128 H133 0.930 . S
C129 N126 1.390 . S
C129 C130 1.346 . S
C129 H134 0.930 . S
C130 N127 1.336 . S
C130 C129 1.346 . S
C130 H137 0.929 . S
C131 O121 1.282 . S
C131 O132 1.216 . S
O132 C131 1.216 . S
H133 C128 0.930 . S
H134 C129 0.930 . S
O135 Cu115 1.959 . S
O135 C122 1.251 . S
H136 C119 0.930 . S
H137 C130 0.929 . S
Cu138 N139 1.999 . S
Cu138 O144 1.974 . S
Cu138 N149 1.985 . S
Cu138 O158 1.959 . S
N139 Cu138 1.999 . S
N139 C141 1.263 . S
N139 C143 1.389 . S
N140 C141 1.358 . S
N140 C142 1.400 . S
C141 N139 1.263 . S
C141 N140 1.358 . S
C141 H147 0.930 . S
C142 N140 1.400 . S
C142 C143 1.351 . S
C142 H159 0.930 . S
C143 N139 1.389 . S
C143 C142 1.351 . S
C143 H148 0.930 . S
O144 Cu138 1.974 . S
O144 C154 1.282 . S
C145 O146 1.261 . S
C145 O158 1.251 . S
O146 C145 1.261 . S
H147 C141 0.930 . S
H148 C143 0.930 . S
N149 Cu138 1.985 . S
N149 C151 1.335 . S
N149 C152 1.390 . S
N150 C151 1.345 . S
N150 C153 1.336 . S
C151 N149 1.335 . S
C151 N150 1.345 . S
C151 H156 0.930 . S
C152 N149 1.390 . S
C152 C153 1.346 . S
C152 H157 0.930 . S
C153 N150 1.336 . S
C153 C152 1.346 . S
C153 H160 0.929 . S
C154 O144 1.282 . S
C154 O155 1.216 . S
O155 C154 1.216 . S
H156 C151 0.930 . S
H157 C152 0.930 . S
O158 Cu138 1.959 . S
O158 C145 1.251 . S
H159 C142 0.930 . S
H160 C153 0.929 . S
Cu161 N162 1.999 . S
Cu161 O167 1.974 . S
Cu161 N172 1.985 . S
Cu161 O181 1.959 . S
N162 Cu161 1.999 . S
N162 C164 1.263 . S
N162 C166 1.389 . S
N163 C164 1.358 . S
N163 C165 1.400 . S
C164 N162 1.263 . S
C164 N163 1.358 . S
C164 H170 0.930 . S
C165 N163 1.400 . S
C165 C166 1.351 . S
C165 H182 0.930 . S
C166 N162 1.389 . S
C166 C165 1.351 . S
C166 H171 0.930 . S
O167 Cu161 1.974 . S
O167 C177 1.282 . S
C168 O169 1.261 . S
C168 O181 1.251 . S
O169 C168 1.261 . S
H170 C164 0.930 . S
H171 C166 0.930 . S
N172 Cu161 1.985 . S
N172 C174 1.335 . S
N172 C175 1.390 . S
N173 C174 1.345 . S
N173 C176 1.336 . S
C174 N172 1.335 . S
C174 N173 1.345 . S
C174 H179 0.930 . S
C175 N172 1.390 . S
C175 C176 1.346 . S
C175 H180 0.930 . S
C176 N173 1.336 . S
C176 C175 1.346 . S
C176 H183 0.929 . S
C177 O167 1.282 . S
C177 O178 1.216 . S
O178 C177 1.216 . S
H179 C174 0.930 . S
H180 C175 0.930 . S
O181 Cu161 1.959 . S
O181 C168 1.251 . S
H182 C165 0.930 . S
H183 C176 0.929 . S
Cu184 N185 1.999 . S
Cu184 O190 1.974 . S
Cu184 N195 1.985 . S
Cu184 O204 1.959 . S
N185 Cu184 1.999 . S
N185 C187 1.263 . S
N185 C189 1.389 . S
N186 C187 1.358 . S
N186 C188 1.400 . S
C187 N185 1.263 . S
C187 N186 1.358 . S
C187 H193 0.930 . S
C188 N186 1.400 . S
C188 C189 1.351 . S
C188 H205 0.930 . S
C189 N185 1.389 . S
C189 C188 1.351 . S
C189 H194 0.930 . S
O190 Cu184 1.974 . S
O190 C200 1.282 . S
C191 O192 1.261 . S
C191 O204 1.251 . S
O192 C191 1.261 . S
H193 C187 0.930 . S
H194 C189 0.930 . S
N195 Cu184 1.985 . S
N195 C197 1.335 . S
N195 C198 1.390 . S
N196 C197 1.345 . S
N196 C199 1.336 . S
C197 N195 1.335 . S
C197 N196 1.345 . S
C197 H202 0.930 . S
C198 N195 1.390 . S
C198 C199 1.346 . S
C198 H203 0.930 . S
C199 N196 1.336 . S
C199 C198 1.346 . S
C199 H206 0.929 . S
C200 O190 1.282 . S
C200 O201 1.216 . S
O201 C200 1.216 . S
H202 C197 0.930 . S
H203 C198 0.930 . S
O204 Cu184 1.959 . S
O204 C191 1.251 . S
H205 C188 0.930 . S
H206 C199 0.929 . S
Cu207 N208 1.999 . S
Cu207 O213 1.974 . S
Cu207 N218 1.985 . S
Cu207 O227 1.959 . S
N208 Cu207 1.999 . S
N208 C210 1.263 . S
N208 C212 1.389 . S
N209 C210 1.358 . S
N209 C211 1.400 . S
C210 N208 1.263 . S
C210 N209 1.358 . S
C210 H216 0.930 . S
C211 N209 1.400 . S
C211 C212 1.351 . S
C211 H228 0.930 . S
C212 N208 1.389 . S
C212 C211 1.351 . S
C212 H217 0.930 . S
O213 Cu207 1.974 . S
O213 C223 1.282 . S
C214 O215 1.261 . S
C214 O227 1.251 . S
O215 C214 1.261 . S
H216 C210 0.930 . S
H217 C212 0.930 . S
N218 Cu207 1.985 . S
N218 C220 1.335 . S
N218 C221 1.390 . S
N219 C220 1.345 . S
N219 C222 1.336 . S
C220 N218 1.335 . S
C220 N219 1.345 . S
C220 H225 0.930 . S
C221 N218 1.390 . S
C221 C222 1.346 . S
C221 H226 0.930 . S
C222 N219 1.336 . S
C222 C221 1.346 . S
C222 H229 0.929 . S
C223 O213 1.282 . S
C223 O224 1.216 . S
O224 C223 1.216 . S
H225 C220 0.930 . S
H226 C221 0.930 . S
O227 Cu207 1.959 . S
O227 C214 1.251 . S
H228 C211 0.930 . S
H229 C222 0.929 . S
Cu230 N231 1.999 . S
Cu230 O236 1.974 . S
Cu230 N241 1.985 . S
Cu230 O250 1.959 . S
N231 Cu230 1.999 . S
N231 C233 1.263 . S
N231 C235 1.389 . S
N232 C233 1.358 . S
N232 C234 1.400 . S
C233 N231 1.263 . S
C233 N232 1.358 . S
C233 H239 0.930 . S
C234 N232 1.400 . S
C234 C235 1.351 . S
C234 H251 0.930 . S
C235 N231 1.389 . S
C235 C234 1.351 . S
C235 H240 0.930 . S
O236 Cu230 1.974 . S
O236 C246 1.282 . S
C237 O238 1.261 . S
C237 O250 1.251 . S
O238 C237 1.261 . S
H239 C233 0.930 . S
H240 C235 0.930 . S
N241 Cu230 1.985 . S
N241 C243 1.335 . S
N241 C244 1.390 . S
N242 C243 1.345 . S
N242 C245 1.336 . S
C243 N241 1.335 . S
C243 N242 1.345 . S
C243 H248 0.930 . S
C244 N241 1.390 . S
C244 C245 1.346 . S
C244 H249 0.930 . S
C245 N242 1.336 . S
C245 C244 1.346 . S
C245 H252 0.929 . S
C246 O236 1.282 . S
C246 O247 1.216 . S
O247 C246 1.216 . S
H248 C243 0.930 . S
H249 C244 0.930 . S
O250 Cu230 1.959 . S
O250 C237 1.251 . S
H251 C234 0.930 . S
H252 C245 0.929 . S
Cu253 N254 1.999 . S
Cu253 O259 1.974 . S
Cu253 N264 1.985 . S
Cu253 O273 1.959 . S
N254 Cu253 1.999 . S
N254 C256 1.263 . S
N254 C258 1.389 . S
N255 C256 1.358 . S
N255 C257 1.400 . S
C256 N254 1.263 . S
C256 N255 1.358 . S
C256 H262 0.930 . S
C257 N255 1.400 . S
C257 C258 1.351 . S
C257 H274 0.930 . S
C258 N254 1.389 . S
C258 C257 1.351 . S
C258 H263 0.930 . S
O259 Cu253 1.974 . S
O259 C269 1.282 . S
C260 O261 1.261 . S
C260 O273 1.251 . S
O261 C260 1.261 . S
H262 C256 0.930 . S
H263 C258 0.930 . S
N264 Cu253 1.985 . S
N264 C266 1.335 . S
N264 C267 1.390 . S
N265 C266 1.345 . S
N265 C268 1.336 . S
C266 N264 1.335 . S
C266 N265 1.345 . S
C266 H271 0.930 . S
C267 N264 1.390 . S
C267 C268 1.346 . S
C267 H272 0.930 . S
C268 N265 1.336 . S
C268 C267 1.346 . S
C268 H275 0.929 . S
C269 O259 1.282 . S
C269 O270 1.216 . S
O270 C269 1.216 . S
H271 C266 0.930 . S
H272 C267 0.930 . S
O273 Cu253 1.959 . S
O273 C260 1.251 . S
H274 C257 0.930 . S
H275 C268 0.929 . S
Cu276 N277 1.999 . S
Cu276 O282 1.974 . S
Cu276 N287 1.985 . S
Cu276 O296 1.959 . S
N277 Cu276 1.999 . S
N277 C279 1.263 . S
N277 C281 1.389 . S
N278 C279 1.358 . S
N278 C280 1.400 . S
C279 N277 1.263 . S
C279 N278 1.358 . S
C279 H285 0.930 . S
C280 N278 1.400 . S
C280 C281 1.351 . S
C280 H297 0.930 . S
C281 N277 1.389 . S
C281 C280 1.351 . S
C281 H286 0.930 . S
O282 Cu276 1.974 . S
O282 C292 1.282 . S
C283 O284 1.261 . S
C283 O296 1.251 . S
O284 C283 1.261 . S
H285 C279 0.930 . S
H286 C281 0.930 . S
N287 Cu276 1.985 . S
N287 C289 1.335 . S
N287 C290 1.390 . S
N288 C289 1.345 . S
N288 C291 1.336 . S
C289 N287 1.335 . S
C289 N288 1.345 . S
C289 H294 0.930 . S
C290 N287 1.390 . S
C290 C291 1.346 . S
C290 H295 0.930 . S
C291 N288 1.336 . S
C291 C290 1.346 . S
C291 H298 0.929 . S
C292 O282 1.282 . S
C292 O293 1.216 . S
O293 C292 1.216 . S
H294 C289 0.930 . S
H295 C290 0.930 . S
O296 Cu276 1.959 . S
O296 C283 1.251 . S
H297 C280 0.930 . S
H298 C291 0.929 . S
Cu299 N300 1.999 . S
Cu299 O305 1.974 . S
Cu299 N310 1.985 . S
Cu299 O319 1.959 . S
N300 Cu299 1.999 . S
N300 C302 1.263 . S
N300 C304 1.389 . S
N301 C302 1.358 . S
N301 C303 1.400 . S
C302 N300 1.263 . S
C302 N301 1.358 . S
C302 H308 0.930 . S
C303 N301 1.400 . S
C303 C304 1.351 . S
C303 H320 0.930 . S
C304 N300 1.389 . S
C304 C303 1.351 . S
C304 H309 0.930 . S
O305 Cu299 1.974 . S
O305 C315 1.282 . S
C306 O307 1.261 . S
C306 O319 1.251 . S
O307 C306 1.261 . S
H308 C302 0.930 . S
H309 C304 0.930 . S
N310 Cu299 1.985 . S
N310 C312 1.335 . S
N310 C313 1.390 . S
N311 C312 1.345 . S
N311 C314 1.336 . S
C312 N310 1.335 . S
C312 N311 1.345 . S
C312 H317 0.930 . S
C313 N310 1.390 . S
C313 C314 1.346 . S
C313 H318 0.930 . S
C314 N311 1.336 . S
C314 C313 1.346 . S
C314 H321 0.929 . S
C315 O305 1.282 . S
C315 O316 1.216 . S
O316 C315 1.216 . S
H317 C312 0.930 . S
H318 C313 0.930 . S
O319 Cu299 1.959 . S
O319 C306 1.251 . S
H320 C303 0.930 . S
H321 C314 0.929 . S
Cu322 N323 1.999 . S
Cu322 O328 1.974 . S
Cu322 N333 1.985 . S
Cu322 O342 1.959 . S
N323 Cu322 1.999 . S
N323 C325 1.263 . S
N323 C327 1.389 . S
N324 C325 1.358 . S
N324 C326 1.400 . S
C325 N323 1.263 . S
C325 N324 1.358 . S
C325 H331 0.930 . S
C326 N324 1.400 . S
C326 C327 1.351 . S
C326 H343 0.930 . S
C327 N323 1.389 . S
C327 C326 1.351 . S
C327 H332 0.930 . S
O328 Cu322 1.974 . S
O328 C338 1.282 . S
C329 O330 1.261 . S
C329 O342 1.251 . S
O330 C329 1.261 . S
H331 C325 0.930 . S
H332 C327 0.930 . S
N333 Cu322 1.985 . S
N333 C335 1.335 . S
N333 C336 1.390 . S
N334 C335 1.345 . S
N334 C337 1.336 . S
C335 N333 1.335 . S
C335 N334 1.345 . S
C335 H340 0.930 . S
C336 N333 1.390 . S
C336 C337 1.346 . S
C336 H341 0.930 . S
C337 N334 1.336 . S
C337 C336 1.346 . S
C337 H344 0.929 . S
C338 O328 1.282 . S
C338 O339 1.216 . S
O339 C338 1.216 . S
H340 C335 0.930 . S
H341 C336 0.930 . S
O342 Cu322 1.959 . S
O342 C329 1.251 . S
H343 C326 0.930 . S
H344 C337 0.929 . S
Cu345 N346 1.999 . S
Cu345 O351 1.974 . S
Cu345 N356 1.985 . S
Cu345 O365 1.959 . S
N346 Cu345 1.999 . S
N346 C348 1.263 . S
N346 C350 1.389 . S
N347 C348 1.358 . S
N347 C349 1.400 . S
C348 N346 1.263 . S
C348 N347 1.358 . S
C348 H354 0.930 . S
C349 N347 1.400 . S
C349 C350 1.351 . S
C349 H366 0.930 . S
C350 N346 1.389 . S
C350 C349 1.351 . S
C350 H355 0.930 . S
O351 Cu345 1.974 . S
O351 C361 1.282 . S
C352 O353 1.261 . S
C352 O365 1.251 . S
O353 C352 1.261 . S
H354 C348 0.930 . S
H355 C350 0.930 . S
N356 Cu345 1.985 . S
N356 C358 1.335 . S
N356 C359 1.390 . S
N357 C358 1.345 . S
N357 C360 1.336 . S
C358 N356 1.335 . S
C358 N357 1.345 . S
C358 H363 0.930 . S
C359 N356 1.390 . S
C359 C360 1.346 . S
C359 H364 0.930 . S
C360 N357 1.336 . S
C360 C359 1.346 . S
C360 H367 0.929 . S
C361 O351 1.282 . S
C361 O362 1.216 . S
O362 C361 1.216 . S
H363 C358 0.930 . S
H364 C359 0.930 . S
O365 Cu345 1.959 . S
O365 C352 1.251 . S
H366 C349 0.930 . S
H367 C360 0.929 . S
Cu368 N369 1.999 . S
Cu368 O374 1.974 . S
Cu368 N379 1.985 . S
Cu368 O388 1.959 . S
N369 Cu368 1.999 . S
N369 C371 1.263 . S
N369 C373 1.389 . S
N370 C371 1.358 . S
N370 C372 1.400 . S
C371 N369 1.263 . S
C371 N370 1.358 . S
C371 H377 0.930 . S
C372 N370 1.400 . S
C372 C373 1.351 . S
C372 H389 0.930 . S
C373 N369 1.389 . S
C373 C372 1.351 . S
C373 H378 0.930 . S
O374 Cu368 1.974 . S
O374 C384 1.282 . S
C375 O376 1.261 . S
C375 O388 1.251 . S
O376 C375 1.261 . S
H377 C371 0.930 . S
H378 C373 0.930 . S
N379 Cu368 1.985 . S
N379 C381 1.335 . S
N379 C382 1.390 . S
N380 C381 1.345 . S
N380 C383 1.336 . S
C381 N379 1.335 . S
C381 N380 1.345 . S
C381 H386 0.930 . S
C382 N379 1.390 . S
C382 C383 1.346 . S
C382 H387 0.930 . S
C383 N380 1.336 . S
C383 C382 1.346 . S
C383 H390 0.929 . S
C384 O374 1.282 . S
C384 O385 1.216 . S
O385 C384 1.216 . S
H386 C381 0.930 . S
H387 C382 0.930 . S
O388 Cu368 1.959 . S
O388 C375 1.251 . S
H389 C372 0.930 . S
H390 C383 0.929 . S
Cu391 N392 1.999 . S
Cu391 O397 1.974 . S
Cu391 N402 1.985 . S
Cu391 O411 1.959 . S
N392 Cu391 1.999 . S
N392 C394 1.263 . S
N392 C396 1.389 . S
N393 C394 1.358 . S
N393 C395 1.400 . S
C394 N392 1.263 . S
C394 N393 1.358 . S
C394 H400 0.930 . S
C395 N393 1.400 . S
C395 C396 1.351 . S
C395 H412 0.930 . S
C396 N392 1.389 . S
C396 C395 1.351 . S
C396 H401 0.930 . S
O397 Cu391 1.974 . S
O397 C407 1.282 . S
C398 O399 1.261 . S
C398 O411 1.251 . S
O399 C398 1.261 . S
H400 C394 0.930 . S
H401 C396 0.930 . S
N402 Cu391 1.985 . S
N402 C404 1.335 . S
N402 C405 1.390 . S
N403 C404 1.345 . S
N403 C406 1.336 . S
C404 N402 1.335 . S
C404 N403 1.345 . S
C404 H409 0.930 . S
C405 N402 1.390 . S
C405 C406 1.346 . S
C405 H410 0.930 . S
C406 N403 1.336 . S
C406 C405 1.346 . S
C406 H413 0.929 . S
C407 O397 1.282 . S
C407 O408 1.216 . S
O408 C407 1.216 . S
H409 C404 0.930 . S
H410 C405 0.930 . S
O411 Cu391 1.959 . S
O411 C398 1.251 . S
H412 C395 0.930 . S
H413 C406 0.929 . S
Cu414 N415 1.999 . S
Cu414 O420 1.974 . S
Cu414 N425 1.985 . S
Cu414 O434 1.959 . S
N415 Cu414 1.999 . S
N415 C417 1.263 . S
N415 C419 1.389 . S
N416 C417 1.358 . S
N416 C418 1.400 . S
C417 N415 1.263 . S
C417 N416 1.358 . S
C417 H423 0.930 . S
C418 N416 1.400 . S
C418 C419 1.351 . S
C418 H435 0.930 . S
C419 N415 1.389 . S
C419 C418 1.351 . S
C419 H424 0.930 . S
O420 Cu414 1.974 . S
O420 C430 1.282 . S
C421 O422 1.261 . S
C421 O434 1.251 . S
O422 C421 1.261 . S
H423 C417 0.930 . S
H424 C419 0.930 . S
N425 Cu414 1.985 . S
N425 C427 1.335 . S
N425 C428 1.390 . S
N426 C427 1.345 . S
N426 C429 1.336 . S
C427 N425 1.335 . S
C427 N426 1.345 . S
C427 H432 0.930 . S
C428 N425 1.390 . S
C428 C429 1.346 . S
C428 H433 0.930 . S
C429 N426 1.336 . S
C429 C428 1.346 . S
C429 H436 0.929 . S
C430 O420 1.282 . S
C430 O431 1.216 . S
O431 C430 1.216 . S
H432 C427 0.930 . S
H433 C428 0.930 . S
O434 Cu414 1.959 . S
O434 C421 1.251 . S
H435 C418 0.930 . S
H436 C429 0.929 . S
Cu437 N438 1.999 . S
Cu437 O443 1.974 . S
Cu437 N448 1.985 . S
Cu437 O457 1.959 . S
N438 Cu437 1.999 . S
N438 C440 1.263 . S
N438 C442 1.389 . S
N439 C440 1.358 . S
N439 C441 1.400 . S
C440 N438 1.263 . S
C440 N439 1.358 . S
C440 H446 0.930 . S
C441 N439 1.400 . S
C441 C442 1.351 . S
C441 H458 0.930 . S
C442 N438 1.389 . S
C442 C441 1.351 . S
C442 H447 0.930 . S
O443 Cu437 1.974 . S
O443 C453 1.282 . S
C444 O445 1.261 . S
C444 O457 1.251 . S
O445 C444 1.261 . S
H446 C440 0.930 . S
H447 C442 0.930 . S
N448 Cu437 1.985 . S
N448 C450 1.335 . S
N448 C451 1.390 . S
N449 C450 1.345 . S
N449 C452 1.336 . S
C450 N448 1.335 . S
C450 N449 1.345 . S
C450 H455 0.930 . S
C451 N448 1.390 . S
C451 C452 1.346 . S
C451 H456 0.930 . S
C452 N449 1.336 . S
C452 C451 1.346 . S
C452 H459 0.929 . S
C453 O443 1.282 . S
C453 O454 1.216 . S
O454 C453 1.216 . S
H455 C450 0.930 . S
H456 C451 0.930 . S
O457 Cu437 1.959 . S
O457 C444 1.251 . S
H458 C441 0.930 . S
H459 C452 0.929 . S
Cu460 N461 1.999 . S
Cu460 O466 1.974 . S
Cu460 N471 1.985 . S
Cu460 O480 1.959 . S
N461 Cu460 1.999 . S
N461 C463 1.263 . S
N461 C465 1.389 . S
N462 C463 1.358 . S
N462 C464 1.400 . S
C463 N461 1.263 . S
C463 N462 1.358 . S
C463 H469 0.930 . S
C464 N462 1.400 . S
C464 C465 1.351 . S
C464 H481 0.930 . S
C465 N461 1.389 . S
C465 C464 1.351 . S
C465 H470 0.930 . S
O466 Cu460 1.974 . S
O466 C476 1.282 . S
C467 O468 1.261 . S
C467 O480 1.251 . S
O468 C467 1.261 . S
H469 C463 0.930 . S
H470 C465 0.930 . S
N471 Cu460 1.985 . S
N471 C473 1.335 . S
N471 C474 1.390 . S
N472 C473 1.345 . S
N472 C475 1.336 . S
C473 N471 1.335 . S
C473 N472 1.345 . S
C473 H478 0.930 . S
C474 N471 1.390 . S
C474 C475 1.346 . S
C474 H479 0.930 . S
C475 N472 1.336 . S
C475 C474 1.346 . S
C475 H482 0.929 . S
C476 O466 1.282 . S
C476 O477 1.216 . S
O477 C476 1.216 . S
H478 C473 0.930 . S
H479 C474 0.930 . S
O480 Cu460 1.959 . S
O480 C467 1.251 . S
H481 C464 0.930 . S
H482 C475 0.929 . S
Cu483 N484 1.999 . S
Cu483 O489 1.974 . S
Cu483 N494 1.985 . S
Cu483 O503 1.959 . S
N484 Cu483 1.999 . S
N484 C486 1.263 . S
N484 C488 1.389 . S
N485 C486 1.358 . S
N485 C487 1.400 . S
C486 N484 1.263 . S
C486 N485 1.358 . S
C486 H492 0.930 . S
C487 N485 1.400 . S
C487 C488 1.351 . S
C487 H504 0.930 . S
C488 N484 1.389 . S
C488 C487 1.351 . S
C488 H493 0.930 . S
O489 Cu483 1.974 . S
O489 C499 1.282 . S
C490 O491 1.261 . S
C490 O503 1.251 . S
O491 C490 1.261 . S
H492 C486 0.930 . S
H493 C488 0.930 . S
N494 Cu483 1.985 . S
N494 C496 1.335 . S
N494 C497 1.390 . S
N495 C496 1.345 . S
N495 C498 1.336 . S
C496 N494 1.335 . S
C496 N495 1.345 . S
C496 H501 0.930 . S
C497 N494 1.390 . S
C497 C498 1.346 . S
C497 H502 0.930 . S
C498 N495 1.336 . S
C498 C497 1.346 . S
C498 H505 0.929 . S
C499 O489 1.282 . S
C499 O500 1.216 . S
O500 C499 1.216 . S
H501 C496 0.930 . S
H502 C497 0.930 . S
O503 Cu483 1.959 . S
O503 C490 1.251 . S
H504 C487 0.930 . S
H505 C498 0.929 . S
Cu506 N507 1.999 . S
Cu506 O512 1.974 . S
Cu506 N517 1.985 . S
Cu506 O526 1.959 . S
N507 Cu506 1.999 . S
N507 C509 1.263 . S
N507 C511 1.389 . S
N508 C509 1.358 . S
N508 C510 1.400 . S
C509 N507 1.263 . S
C509 N508 1.358 . S
C509 H515 0.930 . S
C510 N508 1.400 . S
C510 C511 1.351 . S
C510 H527 0.930 . S
C511 N507 1.389 . S
C511 C510 1.351 . S
C511 H516 0.930 . S
O512 Cu506 1.974 . S
O512 C522 1.282 . S
C513 O514 1.261 . S
C513 O526 1.251 . S
O514 C513 1.261 . S
H515 C509 0.930 . S
H516 C511 0.930 . S
N517 Cu506 1.985 . S
N517 C519 1.335 . S
N517 C520 1.390 . S
N518 C519 1.345 . S
N518 C521 1.336 . S
C519 N517 1.335 . S
C519 N518 1.345 . S
C519 H524 0.930 . S
C520 N517 1.390 . S
C520 C521 1.346 . S
C520 H525 0.930 . S
C521 N518 1.336 . S
C521 C520 1.346 . S
C521 H528 0.929 . S
C522 O512 1.282 . S
C522 O523 1.216 . S
O523 C522 1.216 . S
H524 C519 0.930 . S
H525 C520 0.930 . S
O526 Cu506 1.959 . S
O526 C513 1.251 . S
H527 C510 0.930 . S
H528 C521 0.929 . S
Cu529 N530 1.999 . S
Cu529 O535 1.974 . S
Cu529 N540 1.985 . S
Cu529 O549 1.959 . S
N530 Cu529 1.999 . S
N530 C532 1.263 . S
N530 C534 1.389 . S
N531 C532 1.358 . S
N531 C533 1.400 . S
C532 N530 1.263 . S
C532 N531 1.358 . S
C532 H538 0.930 . S
C533 N531 1.400 . S
C533 C534 1.351 . S
C533 H550 0.930 . S
C534 N530 1.389 . S
C534 C533 1.351 . S
C534 H539 0.930 . S
O535 Cu529 1.974 . S
O535 C545 1.282 . S
C536 O537 1.261 . S
C536 O549 1.251 . S
O537 C536 1.261 . S
H538 C532 0.930 . S
H539 C534 0.930 . S
N540 Cu529 1.985 . S
N540 C542 1.335 . S
N540 C543 1.390 . S
N541 C542 1.345 . S
N541 C544 1.336 . S
C542 N540 1.335 . S
C542 N541 1.345 . S
C542 H547 0.930 . S
C543 N540 1.390 . S
C543 C544 1.346 . S
C543 H548 0.930 . S
C544 N541 1.336 . S
C544 C543 1.346 . S
C544 H551 0.929 . S
C545 O535 1.282 . S
C545 O546 1.216 . S
O546 C545 1.216 . S
H547 C542 0.930 . S
H548 C543 0.930 . S
O549 Cu529 1.959 . S
O549 C536 1.251 . S
H550 C533 0.930 . S
H551 C544 0.929 . S
Cu552 N553 1.999 . S
Cu552 O558 1.974 . S
Cu552 N563 1.985 . S
Cu552 O572 1.959 . S
N553 Cu552 1.999 . S
N553 C555 1.263 . S
N553 C557 1.389 . S
N554 C555 1.358 . S
N554 C556 1.400 . S
C555 N553 1.263 . S
C555 N554 1.358 . S
C555 H561 0.930 . S
C556 N554 1.400 . S
C556 C557 1.351 . S
C556 H573 0.930 . S
C557 N553 1.389 . S
C557 C556 1.351 . S
C557 H562 0.930 . S
O558 Cu552 1.974 . S
O558 C568 1.282 . S
C559 O560 1.261 . S
C559 O572 1.251 . S
O560 C559 1.261 . S
H561 C555 0.930 . S
H562 C557 0.930 . S
N563 Cu552 1.985 . S
N563 C565 1.335 . S
N563 C566 1.390 . S
N564 C565 1.345 . S
N564 C567 1.336 . S
C565 N563 1.335 . S
C565 N564 1.345 . S
C565 H570 0.930 . S
C566 N563 1.390 . S
C566 C567 1.346 . S
C566 H571 0.930 . S
C567 N564 1.336 . S
C567 C566 1.346 . S
C567 H574 0.929 . S
C568 O558 1.282 . S
C568 O569 1.216 . S
O569 C568 1.216 . S
H570 C565 0.930 . S
H571 C566 0.930 . S
O572 Cu552 1.959 . S
O572 C559 1.251 . S
H573 C556 0.930 . S
H574 C567 0.929 . S
Cu575 N576 1.999 . S
Cu575 O581 1.974 . S
Cu575 N586 1.985 . S
Cu575 O595 1.959 . S
N576 Cu575 1.999 . S
N576 C578 1.263 . S
N576 C580 1.389 . S
N577 C578 1.358 . S
N577 C579 1.400 . S
C578 N576 1.263 . S
C578 N577 1.358 . S
C578 H584 0.930 . S
C579 N577 1.400 . S
C579 C580 1.351 . S
C579 H596 0.930 . S
C580 N576 1.389 . S
C580 C579 1.351 . S
C580 H585 0.930 . S
O581 Cu575 1.974 . S
O581 C591 1.282 . S
C582 O583 1.261 . S
C582 O595 1.251 . S
O583 C582 1.261 . S
H584 C578 0.930 . S
H585 C580 0.930 . S
N586 Cu575 1.985 . S
N586 C588 1.335 . S
N586 C589 1.390 . S
N587 C588 1.345 . S
N587 C590 1.336 . S
C588 N586 1.335 . S
C588 N587 1.345 . S
C588 H593 0.930 . S
C589 N586 1.390 . S
C589 C590 1.346 . S
C589 H594 0.930 . S
C590 N587 1.336 . S
C590 C589 1.346 . S
C590 H597 0.929 . S
C591 O581 1.282 . S
C591 O592 1.216 . S
O592 C591 1.216 . S
H593 C588 0.930 . S
H594 C589 0.930 . S
O595 Cu575 1.959 . S
O595 C582 1.251 . S
H596 C579 0.930 . S
H597 C590 0.929 . S
Cu598 N599 1.999 . S
Cu598 O604 1.974 . S
Cu598 N609 1.985 . S
Cu598 O618 1.959 . S
N599 Cu598 1.999 . S
N599 C601 1.263 . S
N599 C603 1.389 . S
N600 C601 1.358 . S
N600 C602 1.400 . S
C601 N599 1.263 . S
C601 N600 1.358 . S
C601 H607 0.930 . S
C602 N600 1.400 . S
C602 C603 1.351 . S
C602 H619 0.930 . S
C603 N599 1.389 . S
C603 C602 1.351 . S
C603 H608 0.930 . S
O604 Cu598 1.974 . S
O604 C614 1.282 . S
C605 O606 1.261 . S
C605 O618 1.251 . S
O606 C605 1.261 . S
H607 C601 0.930 . S
H608 C603 0.930 . S
N609 Cu598 1.985 . S
N609 C611 1.335 . S
N609 C612 1.390 . S
N610 C611 1.345 . S
N610 C613 1.336 . S
C611 N609 1.335 . S
C611 N610 1.345 . S
C611 H616 0.930 . S
C612 N609 1.390 . S
C612 C613 1.346 . S
C612 H617 0.930 . S
C613 N610 1.336 . S
C613 C612 1.346 . S
C613 H620 0.929 . S
C614 O604 1.282 . S
C614 O615 1.216 . S
O615 C614 1.216 . S
H616 C611 0.930 . S
H617 C612 0.930 . S
O618 Cu598 1.959 . S
O618 C605 1.251 . S
H619 C602 0.930 . S
H620 C613 0.929 . S
Cu621 N622 1.999 . S
Cu621 O627 1.974 . S
Cu621 N632 1.985 . S
Cu621 O641 1.959 . S
N622 Cu621 1.999 . S
N622 C624 1.263 . S
N622 C626 1.389 . S
N623 C624 1.358 . S
N623 C625 1.400 . S
C624 N622 1.263 . S
C624 N623 1.358 . S
C624 H630 0.930 . S
C625 N623 1.400 . S
C625 C626 1.351 . S
C625 H642 0.930 . S
C626 N622 1.389 . S
C626 C625 1.351 . S
C626 H631 0.930 . S
O627 Cu621 1.974 . S
O627 C637 1.282 . S
C628 O629 1.261 . S
C628 O641 1.251 . S
O629 C628 1.261 . S
H630 C624 0.930 . S
H631 C626 0.930 . S
N632 Cu621 1.985 . S
N632 C634 1.335 . S
N632 C635 1.390 . S
N633 C634 1.345 . S
N633 C636 1.336 . S
C634 N632 1.335 . S
C634 N633 1.345 . S
C634 H639 0.930 . S
C635 N632 1.390 . S
C635 C636 1.346 . S
C635 H640 0.930 . S
C636 N633 1.336 . S
C636 C635 1.346 . S
C636 H643 0.929 . S
C637 O627 1.282 . S
C637 O638 1.216 . S
O638 C637 1.216 . S
H639 C634 0.930 . S
H640 C635 0.930 . S
O641 Cu621 1.959 . S
O641 C628 1.251 . S
H642 C625 0.930 . S
H643 C636 0.929 . S
Cu644 N645 1.999 . S
Cu644 O650 1.974 . S
Cu644 N655 1.985 . S
Cu644 O664 1.959 . S
N645 Cu644 1.999 . S
N645 C647 1.263 . S
N645 C649 1.389 . S
N646 C647 1.358 . S
N646 C648 1.400 . S
C647 N645 1.263 . S
C647 N646 1.358 . S
C647 H653 0.930 . S
C648 N646 1.400 . S
C648 C649 1.351 . S
C648 H665 0.930 . S
C649 N645 1.389 . S
C649 C648 1.351 . S
C649 H654 0.930 . S
O650 Cu644 1.974 . S
O650 C660 1.282 . S
C651 O652 1.261 . S
C651 O664 1.251 . S
O652 C651 1.261 . S
H653 C647 0.930 . S
H654 C649 0.930 . S
N655 Cu644 1.985 . S
N655 C657 1.335 . S
N655 C658 1.390 . S
N656 C657 1.345 . S
N656 C659 1.336 . S
C657 N655 1.335 . S
C657 N656 1.345 . S
C657 H662 0.930 . S
C658 N655 1.390 . S
C658 C659 1.346 . S
C658 H663 0.930 . S
C659 N656 1.336 . S
C659 C658 1.346 . S
C659 H666 0.929 . S
C660 O650 1.282 . S
C660 O661 1.216 . S
O661 C660 1.216 . S
H662 C657 0.930 . S
H663 C658 0.930 . S
O664 Cu644 1.959 . S
O664 C651 1.251 . S
H665 C648 0.930 . S
H666 C659 0.929 . S
Cu667 N668 1.999 . S
Cu667 O673 1.974 . S
Cu667 N678 1.985 . S
Cu667 O687 1.959 . S
N668 Cu667 1.999 . S
N668 C670 1.263 . S
N668 C672 1.389 . S
N669 C670 1.358 . S
N669 C671 1.400 . S
C670 N668 1.263 . S
C670 N669 1.358 . S
C670 H676 0.930 . S
C671 N669 1.400 . S
C671 C672 1.351 . S
C671 H688 0.930 . S
C672 N668 1.389 . S
C672 C671 1.351 . S
C672 H677 0.930 . S
O673 Cu667 1.974 . S
O673 C683 1.282 . S
C674 O675 1.261 . S
C674 O687 1.251 . S
O675 C674 1.261 . S
H676 C670 0.930 . S
H677 C672 0.930 . S
N678 Cu667 1.985 . S
N678 C680 1.335 . S
N678 C681 1.390 . S
N679 C680 1.345 . S
N679 C682 1.336 . S
C680 N678 1.335 . S
C680 N679 1.345 . S
C680 H685 0.930 . S
C681 N678 1.390 . S
C681 C682 1.346 . S
C681 H686 0.930 . S
C682 N679 1.336 . S
C682 C681 1.346 . S
C682 H689 0.929 . S
C683 O673 1.282 . S
C683 O684 1.216 . S
O684 C683 1.216 . S
H685 C680 0.930 . S
H686 C681 0.930 . S
O687 Cu667 1.959 . S
O687 C674 1.251 . S
H688 C671 0.930 . S
H689 C682 0.929 . S
Cu690 N691 1.999 . S
Cu690 O696 1.974 . S
Cu690 N701 1.985 . S
Cu690 O710 1.959 . S
N691 Cu690 1.999 . S
N691 C693 1.263 . S
N691 C695 1.389 . S
N692 C693 1.358 . S
N692 C694 1.400 . S
C693 N691 1.263 . S
C693 N692 1.358 . S
C693 H699 0.930 . S
C694 N692 1.400 . S
C694 C695 1.351 . S
C694 H711 0.930 . S
C695 N691 1.389 . S
C695 C694 1.351 . S
C695 H700 0.930 . S
O696 Cu690 1.974 . S
O696 C706 1.282 . S
C697 O698 1.261 . S
C697 O710 1.251 . S
O698 C697 1.261 . S
H699 C693 0.930 . S
H700 C695 0.930 . S
N701 Cu690 1.985 . S
N701 C703 1.335 . S
N701 C704 1.390 . S
N702 C703 1.345 . S
N702 C705 1.336 . S
C703 N701 1.335 . S
C703 N702 1.345 . S
C703 H708 0.930 . S
C704 N701 1.390 . S
C704 C705 1.346 . S
C704 H709 0.930 . S
C705 N702 1.336 . S
C705 C704 1.346 . S
C705 H712 0.929 . S
C706 O696 1.282 . S
C706 O707 1.216 . S
O707 C706 1.216 . S
H708 C703 0.930 . S
H709 C704 0.930 . S
O710 Cu690 1.959 . S
O710 C697 1.251 . S
H711 C694 0.930 . S
H712 C705 0.929 . S
Cu713 N714 1.999 . S
Cu713 O719 1.974 . S
Cu713 N724 1.985 . S
Cu713 O733 1.959 . S
N714 Cu713 1.999 . S
N714 C716 1.263 . S
N714 C718 1.389 . S
N715 C716 1.358 . S
N715 C717 1.400 . S
C716 N714 1.263 . S
C716 N715 1.358 . S
C716 H722 0.930 . S
C717 N715 1.400 . S
C717 C718 1.351 . S
C717 H734 0.930 . S
C718 N714 1.389 . S
C718 C717 1.351 . S
C718 H723 0.930 . S
O719 Cu713 1.974 . S
O719 C729 1.282 . S
C720 O721 1.261 . S
C720 O733 1.251 . S
O721 C720 1.261 . S
H722 C716 0.930 . S
H723 C718 0.930 . S
N724 Cu713 1.985 . S
N724 C726 1.335 . S
N724 C727 1.390 . S
N725 C726 1.345 . S
N725 C728 1.336 . S
C726 N724 1.335 . S
C726 N725 1.345 . S
C726 H731 0.930 . S
C727 N724 1.390 . S
C727 C728 1.346 . S
C727 H732 0.930 . S
C728 N725 1.336 . S
C728 C727 1.346 . S
C728 H735 0.929 . S
C729 O719 1.282 . S
C729 O730 1.216 . S
O730 C729 1.216 . S
H731 C726 0.930 . S
H732 C727 0.930 . S
O733 Cu713 1.959 . S
O733 C720 1.251 . S
H734 C717 0.930 . S
H735 C728 0.929 . S
C736 C737 1.363 . S
C736 C742 1.379 . S
C736 N744 1.356 . S
C737 C736 1.363 . S
C737 C743 1.363 . S
C738 C739 1.363 . S
C738 C743 1.379 . S
C738 N745 1.356 . S
C739 C738 1.363 . S
C739 C742 1.363 . S
N740 C742 1.356 . S
N740 H752 0.984 . S
N740 H753 0.985 . S
N741 C743 1.356 . S
N741 H746 0.984 . S
N741 H747 0.985 . S
C742 C736 1.379 . S
C742 C739 1.363 . S
C742 N740 1.356 . S
C743 C737 1.363 . S
C743 C738 1.379 . S
C743 N741 1.356 . S
N744 C736 1.356 . S
N744 H750 0.984 . S
N744 H751 0.984 . S
N745 C738 1.356 . S
N745 H748 0.984 . S
N745 H749 0.985 . S
H746 N741 0.984 . S
H747 N741 0.985 . S
H748 N745 0.984 . S
H749 N745 0.985 . S
H750 N744 0.984 . S
H751 N744 0.984 . S
H752 N740 0.984 . S
H753 N740 0.985 . S
C754 C755 1.363 . S
C754 C760 1.379 . S
C754 N762 1.356 . S
C755 C754 1.363 . S
C755 C761 1.363 . S
C756 C757 1.363 . S
C756 C761 1.379 . S
C756 N763 1.356 . S
C757 C756 1.363 . S
C757 C760 1.363 . S
N758 C760 1.356 . S
N758 H770 0.984 . S
N758 H771 0.985 . S
N759 C761 1.356 . S
N759 H764 0.984 . S
N759 H765 0.985 . S
C760 C754 1.379 . S
C760 C757 1.363 . S
C760 N758 1.356 . S
C761 C755 1.363 . S
C761 C756 1.379 . S
C761 N759 1.356 . S
N762 C754 1.356 . S
N762 H768 0.984 . S
N762 H769 0.984 . S
N763 C756 1.356 . S
N763 H766 0.984 . S
N763 H767 0.985 . S
H764 N759 0.984 . S
H765 N759 0.985 . S
H766 N763 0.984 . S
H767 N763 0.985 . S
H768 N762 0.984 . S
H769 N762 0.984 . S
H770 N758 0.984 . S
H771 N758 0.985 . S
C772 C773 1.363 . S
C772 C778 1.379 . S
C772 N780 1.356 . S
C773 C772 1.363 . S
C773 C779 1.363 . S
C774 C775 1.363 . S
C774 C779 1.379 . S
C774 N781 1.356 . S
C775 C774 1.363 . S
C775 C778 1.363 . S
N776 C778 1.356 . S
N776 H788 0.984 . S
N776 H789 0.985 . S
N777 C779 1.356 . S
N777 H782 0.984 . S
N777 H783 0.985 . S
C778 C772 1.379 . S
C778 C775 1.363 . S
C778 N776 1.356 . S
C779 C773 1.363 . S
C779 C774 1.379 . S
C779 N777 1.356 . S
N780 C772 1.356 . S
N780 H786 0.984 . S
N780 H787 0.984 . S
N781 C774 1.356 . S
N781 H784 0.984 . S
N781 H785 0.985 . S
H782 N777 0.984 . S
H783 N777 0.985 . S
H784 N781 0.984 . S
H785 N781 0.985 . S
H786 N780 0.984 . S
H787 N780 0.984 . S
H788 N776 0.984 . S
H789 N776 0.985 . S
C790 C791 1.363 . S
C790 C796 1.379 . S
C790 N798 1.356 . S
C791 C790 1.363 . S
C791 C797 1.363 . S
C792 C793 1.363 . S
C792 C797 1.379 . S
C792 N799 1.356 . S
C793 C792 1.363 . S
C793 C796 1.363 . S
N794 C796 1.356 . S
N794 H806 0.984 . S
N794 H807 0.985 . S
N795 C797 1.356 . S
N795 H800 0.984 . S
N795 H801 0.985 . S
C796 C790 1.379 . S
C796 C793 1.363 . S
C796 N794 1.356 . S
C797 C791 1.363 . S
C797 C792 1.379 . S
C797 N795 1.356 . S
N798 C790 1.356 . S
N798 H804 0.984 . S
N798 H805 0.984 . S
N799 C792 1.356 . S
N799 H802 0.984 . S
N799 H803 0.985 . S
H800 N795 0.984 . S
H801 N795 0.985 . S
H802 N799 0.984 . S
H803 N799 0.985 . S
H804 N798 0.984 . S
H805 N798 0.984 . S
H806 N794 0.984 . S
H807 N794 0.985 . S
C808 C809 1.363 . S
C808 C814 1.379 . S
C808 N816 1.356 . S
C809 C808 1.363 . S
C809 C815 1.363 . S
C810 C811 1.363 . S
C810 C815 1.379 . S
C810 N817 1.356 . S
C811 C810 1.363 . S
C811 C814 1.363 . S
N812 C814 1.356 . S
N812 H824 0.984 . S
N812 H825 0.985 . S
N813 C815 1.356 . S
N813 H818 0.984 . S
N813 H819 0.985 . S
C814 C808 1.379 . S
C814 C811 1.363 . S
C814 N812 1.356 . S
C815 C809 1.363 . S
C815 C810 1.379 . S
C815 N813 1.356 . S
N816 C808 1.356 . S
N816 H822 0.984 . S
N816 H823 0.984 . S
N817 C810 1.356 . S
N817 H820 0.984 . S
N817 H821 0.985 . S
H818 N813 0.984 . S
H819 N813 0.985 . S
H820 N817 0.984 . S
H821 N817 0.985 . S
H822 N816 0.984 . S
H823 N816 0.984 . S
H824 N812 0.984 . S
H825 N812 0.985 . S
C826 C827 1.363 . S
C826 C832 1.379 . S
C826 N834 1.356 . S
C827 C826 1.363 . S
C827 C833 1.363 . S
C828 C829 1.363 . S
C828 C833 1.379 . S
C828 N835 1.356 . S
C829 C828 1.363 . S
C829 C832 1.363 . S
N830 C832 1.356 . S
N830 H842 0.984 . S
N830 H843 0.985 . S
N831 C833 1.356 . S
N831 H836 0.984 . S
N831 H837 0.985 . S
C832 C826 1.379 . S
C832 C829 1.363 . S
C832 N830 1.356 . S
C833 C827 1.363 . S
C833 C828 1.379 . S
C833 N831 1.356 . S
N834 C826 1.356 . S
N834 H840 0.984 . S
N834 H841 0.984 . S
N835 C828 1.356 . S
N835 H838 0.984 . S
N835 H839 0.985 . S
H836 N831 0.984 . S
H837 N831 0.985 . S
H838 N835 0.984 . S
H839 N835 0.985 . S
H840 N834 0.984 . S
H841 N834 0.984 . S
H842 N830 0.984 . S
H843 N830 0.985 . S
C844 C845 1.363 . S
C844 C850 1.379 . S
C844 N852 1.356 . S
C845 C844 1.363 . S
C845 C851 1.363 . S
C846 C847 1.363 . S
C846 C851 1.379 . S
C846 N853 1.356 . S
C847 C846 1.363 . S
C847 C850 1.363 . S
N848 C850 1.356 . S
N848 H860 0.984 . S
N848 H861 0.985 . S
N849 C851 1.356 . S
N849 H854 0.984 . S
N849 H855 0.985 . S
C850 C844 1.379 . S
C850 C847 1.363 . S
C850 N848 1.356 . S
C851 C845 1.363 . S
C851 C846 1.379 . S
C851 N849 1.356 . S
N852 C844 1.356 . S
N852 H858 0.984 . S
N852 H859 0.984 . S
N853 C846 1.356 . S
N853 H856 0.984 . S
N853 H857 0.985 . S
H854 N849 0.984 . S
H855 N849 0.985 . S
H856 N853 0.984 . S
H857 N853 0.985 . S
H858 N852 0.984 . S
H859 N852 0.984 . S
H860 N848 0.984 . S
H861 N848 0.985 . S
C862 C863 1.363 . S
C862 C868 1.379 . S
C862 N870 1.356 . S
C863 C862 1.363 . S
C863 C869 1.363 . S
C864 C865 1.363 . S
C864 C869 1.379 . S
C864 N871 1.356 . S
C865 C864 1.363 . S
C865 C868 1.363 . S
N866 C868 1.356 . S
N866 H878 0.984 . S
N866 H879 0.985 . S
N867 C869 1.356 . S
N867 H872 0.984 . S
N867 H873 0.985 . S
C868 C862 1.379 . S
C868 C865 1.363 . S
C868 N866 1.356 . S
C869 C863 1.363 . S
C869 C864 1.379 . S
C869 N867 1.356 . S
N870 C862 1.356 . S
N870 H876 0.984 . S
N870 H877 0.984 . S
N871 C864 1.356 . S
N871 H874 0.984 . S
N871 H875 0.985 . S
H872 N867 0.984 . S
H873 N867 0.985 . S
H874 N871 0.984 . S
H875 N871 0.985 . S
H876 N870 0.984 . S
H877 N870 0.984 . S
H878 N866 0.984 . S
H879 N866 0.985 . S
C880 C881 1.363 . S
C880 C886 1.379 . S
C880 N888 1.356 . S
C881 C880 1.363 . S
C881 C887 1.363 . S
C882 C883 1.363 . S
C882 C887 1.379 . S
C882 N889 1.356 . S
C883 C882 1.363 . S
C883 C886 1.363 . S
N884 C886 1.356 . S
N884 H896 0.984 . S
N884 H897 0.985 . S
N885 C887 1.356 . S
N885 H890 0.984 . S
N885 H891 0.985 . S
C886 C880 1.379 . S
C886 C883 1.363 . S
C886 N884 1.356 . S
C887 C881 1.363 . S
C887 C882 1.379 . S
C887 N885 1.356 . S
N888 C880 1.356 . S
N888 H894 0.984 . S
N888 H895 0.984 . S
N889 C882 1.356 . S
N889 H892 0.984 . S
N889 H893 0.985 . S
H890 N885 0.984 . S
H891 N885 0.985 . S
H892 N889 0.984 . S
H893 N889 0.985 . S
H894 N888 0.984 . S
H895 N888 0.984 . S
H896 N884 0.984 . S
H897 N884 0.985 . S
C898 C899 1.363 . S
C898 C904 1.379 . S
C898 N906 1.356 . S
C899 C898 1.363 . S
C899 C905 1.363 . S
C900 C901 1.363 . S
C900 C905 1.379 . S
C900 N907 1.356 . S
C901 C900 1.363 . S
C901 C904 1.363 . S
N902 C904 1.356 . S
N902 H914 0.984 . S
N902 H915 0.985 . S
N903 C905 1.356 . S
N903 H908 0.984 . S
N903 H909 0.985 . S
C904 C898 1.379 . S
C904 C901 1.363 . S
C904 N902 1.356 . S
C905 C899 1.363 . S
C905 C900 1.379 . S
C905 N903 1.356 . S
N906 C898 1.356 . S
N906 H912 0.984 . S
N906 H913 0.984 . S
N907 C900 1.356 . S
N907 H910 0.984 . S
N907 H911 0.985 . S
H908 N903 0.984 . S
H909 N903 0.985 . S
H910 N907 0.984 . S
H911 N907 0.985 . S
H912 N906 0.984 . S
H913 N906 0.984 . S
H914 N902 0.984 . S
H915 N902 0.985 . S
C916 C917 1.363 . S
C916 C922 1.379 . S
C916 N924 1.356 . S
C917 C916 1.363 . S
C917 C923 1.363 . S
C918 C919 1.363 . S
C918 C923 1.379 . S
C918 N925 1.356 . S
C919 C918 1.363 . S
C919 C922 1.363 . S
N920 C922 1.356 . S
N920 H932 0.984 . S
N920 H933 0.985 . S
N921 C923 1.356 . S
N921 H926 0.984 . S
N921 H927 0.985 . S
C922 C916 1.379 . S
C922 C919 1.363 . S
C922 N920 1.356 . S
C923 C917 1.363 . S
C923 C918 1.379 . S
C923 N921 1.356 . S
N924 C916 1.356 . S
N924 H930 0.984 . S
N924 H931 0.984 . S
N925 C918 1.356 . S
N925 H928 0.984 . S
N925 H929 0.985 . S
H926 N921 0.984 . S
H927 N921 0.985 . S
H928 N925 0.984 . S
H929 N925 0.985 . S
H930 N924 0.984 . S
H931 N924 0.984 . S
H932 N920 0.984 . S
H933 N920 0.985 . S
C934 C935 1.363 . S
C934 C940 1.379 . S
C934 N942 1.356 . S
C935 C934 1.363 . S
C935 C941 1.363 . S
C936 C937 1.363 . S
C936 C941 1.379 . S
C936 N943 1.356 . S
C937 C936 1.363 . S
C937 C940 1.363 . S
N938 C940 1.356 . S
N938 H950 0.984 . S
N938 H951 0.985 . S
N939 C941 1.356 . S
N939 H944 0.984 . S
N939 H945 0.985 . S
C940 C934 1.379 . S
C940 C937 1.363 . S
C940 N938 1.356 . S
C941 C935 1.363 . S
C941 C936 1.379 . S
C941 N939 1.356 . S
N942 C934 1.356 . S
N942 H948 0.984 . S
N942 H949 0.984 . S
N943 C936 1.356 . S
N943 H946 0.984 . S
N943 H947 0.985 . S
H944 N939 0.984 . S
H945 N939 0.985 . S
H946 N943 0.984 . S
H947 N943 0.985 . S
H948 N942 0.984 . S
H949 N942 0.984 . S
H950 N938 0.984 . S
H951 N938 0.985 . S
C952 C953 1.363 . S
C952 C958 1.379 . S
C952 N960 1.356 . S
C953 C952 1.363 . S
C953 C959 1.363 . S
C954 C955 1.363 . S
C954 C959 1.379 . S
C954 N961 1.356 . S
C955 C954 1.363 . S
C955 C958 1.363 . S
N956 C958 1.356 . S
N956 H968 0.984 . S
N956 H969 0.985 . S
N957 C959 1.356 . S
N957 H962 0.984 . S
N957 H963 0.985 . S
C958 C952 1.379 . S
C958 C955 1.363 . S
C958 N956 1.356 . S
C959 C953 1.363 . S
C959 C954 1.379 . S
C959 N957 1.356 . S
N960 C952 1.356 . S
N960 H966 0.984 . S
N960 H967 0.984 . S
N961 C954 1.356 . S
N961 H964 0.984 . S
N961 H965 0.985 . S
H962 N957 0.984 . S
H963 N957 0.985 . S
H964 N961 0.984 . S
H965 N961 0.985 . S
H966 N960 0.984 . S
H967 N960 0.984 . S
H968 N956 0.984 . S
H969 N956 0.985 . S
C970 C971 1.363 . S
C970 C976 1.379 . S
C970 N978 1.356 . S
C971 C970 1.363 . S
C971 C977 1.363 . S
C972 C973 1.363 . S
C972 C977 1.379 . S
C972 N979 1.356 . S
C973 C972 1.363 . S
C973 C976 1.363 . S
N974 C976 1.356 . S
N974 H986 0.984 . S
N974 H987 0.985 . S
N975 C977 1.356 . S
N975 H980 0.984 . S
N975 H981 0.985 . S
C976 C970 1.379 . S
C976 C973 1.363 . S
C976 N974 1.356 . S
C977 C971 1.363 . S
C977 C972 1.379 . S
C977 N975 1.356 . S
N978 C970 1.356 . S
N978 H984 0.984 . S
N978 H985 0.984 . S
N979 C972 1.356 . S
N979 H982 0.984 . S
N979 H983 0.985 . S
H980 N975 0.984 . S
H981 N975 0.985 . S
H982 N979 0.984 . S
H983 N979 0.985 . S
H984 N978 0.984 . S
H985 N978 0.984 . S
H986 N974 0.984 . S
H987 N974 0.985 . S
C988 C989 1.363 . S
C988 C994 1.379 . S
C988 N996 1.356 . S
C989 C988 1.363 . S
C989 C995 1.363 . S
C990 C991 1.363 . S
C990 C995 1.379 . S
C990 N997 1.356 . S
C991 C990 1.363 . S
C991 C994 1.363 . S
N992 C994 1.356 . S
N992 H1004 0.984 . S
N992 H1005 0.985 . S
N993 C995 1.356 . S
N993 H998 0.984 . S
N993 H999 0.985 . S
C994 C988 1.379 . S
C994 C991 1.363 . S
C994 N992 1.356 . S
C995 C989 1.363 . S
C995 C990 1.379 . S
C995 N993 1.356 . S
N996 C988 1.356 . S
N996 H1002 0.984 . S
N996 H1003 0.984 . S
N997 C990 1.356 . S
N997 H1000 0.984 . S
N997 H1001 0.985 . S
H998 N993 0.984 . S
H999 N993 0.985 . S
H1000 N997 0.984 . S
H1001 N997 0.985 . S
H1002 N996 0.984 . S
H1003 N996 0.984 . S
H1004 N992 0.984 . S
H1005 N992 0.985 . S
C1006 C1007 1.363 . S
C1006 C1012 1.379 . S
C1006 N1014 1.356 . S
C1007 C1006 1.363 . S
C1007 C1013 1.363 . S
C1008 C1009 1.363 . S
C1008 C1013 1.379 . S
C1008 N1015 1.356 . S
C1009 C1008 1.363 . S
C1009 C1012 1.363 . S
N1010 C1012 1.356 . S
N1010 H1022 0.984 . S
N1010 H1023 0.985 . S
N1011 C1013 1.356 . S
N1011 H1016 0.984 . S
N1011 H1017 0.985 . S
C1012 C1006 1.379 . S
C1012 C1009 1.363 . S
C1012 N1010 1.356 . S
C1013 C1007 1.363 . S
C1013 C1008 1.379 . S
C1013 N1011 1.356 . S
N1014 C1006 1.356 . S
N1014 H1020 0.984 . S
N1014 H1021 0.984 . S
N1015 C1008 1.356 . S
N1015 H1018 0.984 . S
N1015 H1019 0.985 . S
H1016 N1011 0.984 . S
H1017 N1011 0.985 . S
H1018 N1015 0.984 . S
H1019 N1015 0.985 . S
H1020 N1014 0.984 . S
H1021 N1014 0.984 . S
H1022 N1010 0.984 . S
H1023 N1010 0.985 . S
C1024 C1025 1.363 . S
C1024 C1030 1.379 1_655 S
C1024 N1032 1.356 . S
C1025 C1024 1.363 . S
C1025 C1031 1.363 . S
C1026 C1027 1.363 . S
C1026 C1031 1.379 1_455 S
C1026 N1033 1.356 . S
C1027 C1026 1.363 . S
C1027 C1030 1.363 . S
N1028 C1030 1.356 . S
N1028 H1040 0.984 . S
N1028 H1041 0.985 . S
N1029 C1031 1.356 . S
N1029 H1034 0.984 . S
N1029 H1035 0.985 . S
C1030 C1024 1.379 1_455 S
C1030 C1027 1.363 . S
C1030 N1028 1.356 . S
C1031 C1025 1.363 . S
C1031 C1026 1.379 1_655 S
C1031 N1029 1.356 . S
N1032 C1024 1.356 . S
N1032 H1038 0.984 . S
N1032 H1039 0.984 . S
N1033 C1026 1.356 . S
N1033 H1036 0.984 . S
N1033 H1037 0.985 . S
H1034 N1029 0.984 . S
H1035 N1029 0.985 . S
H1036 N1033 0.984 . S
H1037 N1033 0.985 . S
H1038 N1032 0.984 . S
H1039 N1032 0.984 . S
H1040 N1028 0.984 . S
H1041 N1028 0.985 . S
C1042 C1043 1.363 . S
C1042 C1048 1.379 1_545 S
C1042 N1050 1.356 . S
C1043 C1042 1.363 . S
C1043 C1049 1.363 . S
C1044 C1045 1.363 . S
C1044 C1049 1.379 1_565 S
C1044 N1051 1.356 . S
C1045 C1044 1.363 . S
C1045 C1048 1.363 . S
N1046 C1048 1.356 . S
N1046 H1058 0.984 . S
N1046 H1059 0.985 . S
N1047 C1049 1.356 . S
N1047 H1052 0.984 . S
N1047 H1053 0.985 . S
C1048 C1042 1.379 1_565 S
C1048 C1045 1.363 . S
C1048 N1046 1.356 . S
C1049 C1043 1.363 . S
C1049 C1044 1.379 1_545 S
C1049 N1047 1.356 . S
N1050 C1042 1.356 . S
N1050 H1056 0.984 . S
N1050 H1057 0.984 . S
N1051 C1044 1.356 . S
N1051 H1054 0.984 . S
N1051 H1055 0.985 . S
H1052 N1047 0.984 . S
H1053 N1047 0.985 . S
H1054 N1051 0.984 . S
H1055 N1051 0.985 . S
H1056 N1050 0.984 . S
H1057 N1050 0.984 . S
H1058 N1046 0.984 . S
H1059 N1046 0.985 . S
C1060 C1061 1.363 . S
C1060 C1066 1.379 1_455 S
C1060 N1068 1.356 . S
C1061 C1060 1.363 . S
C1061 C1067 1.363 . S
C1062 C1063 1.363 . S
C1062 C1067 1.379 1_655 S
C1062 N1069 1.356 . S
C1063 C1062 1.363 . S
C1063 C1066 1.363 . S
N1064 C1066 1.356 . S
N1064 H1076 0.984 . S
N1064 H1077 0.985 . S
N1065 C1067 1.356 . S
N1065 H1070 0.984 . S
N1065 H1071 0.985 . S
C1066 C1060 1.379 1_655 S
C1066 C1063 1.363 . S
C1066 N1064 1.356 . S
C1067 C1061 1.363 . S
C1067 C1062 1.379 1_455 S
C1067 N1065 1.356 . S
N1068 C1060 1.356 . S
N1068 H1074 0.984 . S
N1068 H1075 0.984 . S
N1069 C1062 1.356 . S
N1069 H1072 0.984 . S
N1069 H1073 0.985 . S
H1070 N1065 0.984 . S
H1071 N1065 0.985 . S
H1072 N1069 0.984 . S
H1073 N1069 0.985 . S
H1074 N1068 0.984 . S
H1075 N1068 0.984 . S
H1076 N1064 0.984 . S
H1077 N1064 0.985 . S
C1078 C1079 1.363 . S
C1078 C1084 1.379 1_565 S
C1078 N1086 1.356 . S
C1079 C1078 1.363 . S
C1079 C1085 1.363 . S
C1080 C1081 1.363 . S
C1080 C1085 1.379 1_545 S
C1080 N1087 1.356 . S
C1081 C1080 1.363 . S
C1081 C1084 1.363 . S
N1082 C1084 1.356 . S
N1082 H1094 0.984 . S
N1082 H1095 0.985 . S
N1083 C1085 1.356 . S
N1083 H1088 0.984 . S
N1083 H1089 0.985 . S
C1084 C1078 1.379 1_545 S
C1084 C1081 1.363 . S
C1084 N1082 1.356 . S
C1085 C1079 1.363 . S
C1085 C1080 1.379 1_565 S
C1085 N1083 1.356 . S
N1086 C1078 1.356 . S
N1086 H1092 0.984 . S
N1086 H1093 0.984 . S
N1087 C1080 1.356 . S
N1087 H1090 0.984 . S
N1087 H1091 0.985 . S
H1088 N1083 0.984 . S
H1089 N1083 0.985 . S
H1090 N1087 0.984 . S
H1091 N1087 0.985 . S
H1092 N1086 0.984 . S
H1093 N1086 0.984 . S
H1094 N1082 0.984 . S
H1095 N1082 0.985 . S
C1096 C1097 1.363 . S
C1096 C1102 1.379 1_455 S
C1096 N1104 1.356 . S
C1097 C1096 1.363 . S
C1097 C1103 1.363 . S
C1098 C1099 1.363 . S
C1098 C1103 1.379 1_655 S
C1098 N1105 1.356 . S
C1099 C1098 1.363 . S
C1099 C1102 1.363 . S
N1100 C1102 1.356 . S
N1100 H1112 0.984 . S
N1100 H1113 0.985 . S
N1101 C1103 1.356 . S
N1101 H1106 0.984 . S
N1101 H1107 0.985 . S
C1102 C1096 1.379 1_655 S
C1102 C1099 1.363 . S
C1102 N1100 1.356 . S
C1103 C1097 1.363 . S
C1103 C1098 1.379 1_455 S
C1103 N1101 1.356 . S
N1104 C1096 1.356 . S
N1104 H1110 0.984 . S
N1104 H1111 0.984 . S
N1105 C1098 1.356 . S
N1105 H1108 0.984 . S
N1105 H1109 0.985 . S
H1106 N1101 0.984 . S
H1107 N1101 0.985 . S
H1108 N1105 0.984 . S
H1109 N1105 0.985 . S
H1110 N1104 0.984 . S
H1111 N1104 0.984 . S
H1112 N1100 0.984 . S
H1113 N1100 0.985 . S
C1114 C1115 1.363 . S
C1114 C1120 1.379 1_565 S
C1114 N1122 1.356 . S
C1115 C1114 1.363 . S
C1115 C1121 1.363 . S
C1116 C1117 1.363 . S
C1116 C1121 1.379 1_545 S
C1116 N1123 1.356 . S
C1117 C1116 1.363 . S
C1117 C1120 1.363 . S
N1118 C1120 1.356 . S
N1118 H1130 0.984 . S
N1118 H1131 0.985 . S
N1119 C1121 1.356 . S
N1119 H1124 0.984 . S
N1119 H1125 0.985 . S
C1120 C1114 1.379 1_545 S
C1120 C1117 1.363 . S
C1120 N1118 1.356 . S
C1121 C1115 1.363 . S
C1121 C1116 1.379 1_565 S
C1121 N1119 1.356 . S
N1122 C1114 1.356 . S
N1122 H1128 0.984 . S
N1122 H1129 0.984 . S
N1123 C1116 1.356 . S
N1123 H1126 0.984 . S
N1123 H1127 0.985 . S
H1124 N1119 0.984 . S
H1125 N1119 0.985 . S
H1126 N1123 0.984 . S
H1127 N1123 0.985 . S
H1128 N1122 0.984 . S
H1129 N1122 0.984 . S
H1130 N1118 0.984 . S
H1131 N1118 0.985 . S
C1132 C1133 1.363 . S
C1132 C1138 1.379 1_455 S
C1132 N1140 1.356 . S
C1133 C1132 1.363 . S
C1133 C1139 1.363 . S
C1134 C1135 1.363 . S
C1134 C1139 1.379 1_655 S
C1134 N1141 1.356 . S
C1135 C1134 1.363 . S
C1135 C1138 1.363 . S
N1136 C1138 1.356 . S
N1136 H1148 0.984 . S
N1136 H1149 0.985 . S
N1137 C1139 1.356 . S
N1137 H1142 0.984 . S
N1137 H1143 0.985 . S
C1138 C1132 1.379 1_655 S
C1138 C1135 1.363 . S
C1138 N1136 1.356 . S
C1139 C1133 1.363 . S
C1139 C1134 1.379 1_455 S
C1139 N1137 1.356 . S
N1140 C1132 1.356 . S
N1140 H1146 0.984 . S
N1140 H1147 0.984 . S
N1141 C1134 1.356 . S
N1141 H1144 0.984 . S
N1141 H1145 0.985 . S
H1142 N1137 0.984 . S
H1143 N1137 0.985 . S
H1144 N1141 0.984 . S
H1145 N1141 0.985 . S
H1146 N1140 0.984 . S
H1147 N1140 0.984 . S
H1148 N1136 0.984 . S
H1149 N1136 0.985 . S
C1150 C1151 1.363 . S
C1150 C1156 1.379 1_545 S
C1150 N1158 1.356 . S
C1151 C1150 1.363 . S
C1151 C1157 1.363 . S
C1152 C1153 1.363 . S
C1152 C1157 1.379 1_565 S
C1152 N1159 1.356 . S
C1153 C1152 1.363 . S
C1153 C1156 1.363 . S
N1154 C1156 1.356 . S
N1154 H1166 0.984 . S
N1154 H1167 0.985 . S
N1155 C1157 1.356 . S
N1155 H1160 0.984 . S
N1155 H1161 0.985 . S
C1156 C1150 1.379 1_565 S
C1156 C1153 1.363 . S
C1156 N1154 1.356 . S
C1157 C1151 1.363 . S
C1157 C1152 1.379 1_545 S
C1157 N1155 1.356 . S
N1158 C1150 1.356 . S
N1158 H1164 0.984 . S
N1158 H1165 0.984 . S
N1159 C1152 1.356 . S
N1159 H1162 0.984 . S
N1159 H1163 0.985 . S
H1160 N1155 0.984 . S
H1161 N1155 0.985 . S
H1162 N1159 0.984 . S
H1163 N1159 0.985 . S
H1164 N1158 0.984 . S
H1165 N1158 0.984 . S
H1166 N1154 0.984 . S
H1167 N1154 0.985 . S
C1168 C1169 1.363 . S
C1168 C1174 1.379 . S
C1168 N1176 1.356 . S
C1169 C1168 1.363 . S
C1169 C1175 1.363 . S
C1170 C1171 1.363 . S
C1170 C1175 1.379 . S
C1170 N1177 1.356 . S
C1171 C1170 1.363 . S
C1171 C1174 1.363 . S
N1172 C1174 1.356 . S
N1172 H1184 0.984 . S
N1172 H1185 0.985 . S
N1173 C1175 1.356 . S
N1173 H1178 0.984 . S
N1173 H1179 0.985 . S
C1174 C1168 1.379 . S
C1174 C1171 1.363 . S
C1174 N1172 1.356 . S
C1175 C1169 1.363 . S
C1175 C1170 1.379 . S
C1175 N1173 1.356 . S
N1176 C1168 1.356 . S
N1176 H1182 0.984 . S
N1176 H1183 0.984 . S
N1177 C1170 1.356 . S
N1177 H1180 0.984 . S
N1177 H1181 0.985 . S
H1178 N1173 0.984 . S
H1179 N1173 0.985 . S
H1180 N1177 0.984 . S
H1181 N1177 0.985 . S
H1182 N1176 0.984 . S
H1183 N1176 0.984 . S
H1184 N1172 0.984 . S
H1185 N1172 0.985 . S
C1186 C1187 1.363 . S
C1186 C1192 1.379 . S
C1186 N1194 1.356 . S
C1187 C1186 1.363 . S
C1187 C1193 1.363 . S
C1188 C1189 1.363 . S
C1188 C1193 1.379 . S
C1188 N1195 1.356 . S
C1189 C1188 1.363 . S
C1189 C1192 1.363 . S
N1190 C1192 1.356 . S
N1190 H1202 0.984 . S
N1190 H1203 0.985 . S
N1191 C1193 1.356 . S
N1191 H1196 0.984 . S
N1191 H1197 0.985 . S
C1192 C1186 1.379 . S
C1192 C1189 1.363 . S
C1192 N1190 1.356 . S
C1193 C1187 1.363 . S
C1193 C1188 1.379 . S
C1193 N1191 1.356 . S
N1194 C1186 1.356 . S
N1194 H1200 0.984 . S
N1194 H1201 0.984 . S
N1195 C1188 1.356 . S
N1195 H1198 0.984 . S
N1195 H1199 0.985 . S
H1196 N1191 0.984 . S
H1197 N1191 0.985 . S
H1198 N1195 0.984 . S
H1199 N1195 0.985 . S
H1200 N1194 0.984 . S
H1201 N1194 0.984 . S
H1202 N1190 0.984 . S
H1203 N1190 0.985 . S
C1204 C1205 1.363 . S
C1204 C1210 1.379 . S
C1204 N1212 1.356 . S
C1205 C1204 1.363 . S
C1205 C1211 1.363 . S
C1206 C1207 1.363 . S
C1206 C1211 1.379 . S
C1206 N1213 1.356 . S
C1207 C1206 1.363 . S
C1207 C1210 1.363 . S
N1208 C1210 1.356 . S
N1208 H1220 0.984 . S
N1208 H1221 0.985 . S
N1209 C1211 1.356 . S
N1209 H1214 0.984 . S
N1209 H1215 0.985 . S
C1210 C1204 1.379 . S
C1210 C1207 1.363 . S
C1210 N1208 1.356 . S
C1211 C1205 1.363 . S
C1211 C1206 1.379 . S
C1211 N1209 1.356 . S
N1212 C1204 1.356 . S
N1212 H1218 0.984 . S
N1212 H1219 0.984 . S
N1213 C1206 1.356 . S
N1213 H1216 0.984 . S
N1213 H1217 0.985 . S
H1214 N1209 0.984 . S
H1215 N1209 0.985 . S
H1216 N1213 0.984 . S
H1217 N1213 0.985 . S
H1218 N1212 0.984 . S
H1219 N1212 0.984 . S
H1220 N1208 0.984 . S
H1221 N1208 0.985 . S
C1222 C1223 1.363 . S
C1222 C1228 1.379 . S
C1222 N1230 1.356 . S
C1223 C1222 1.363 . S
C1223 C1229 1.363 . S
C1224 C1225 1.363 . S
C1224 C1229 1.379 . S
C1224 N1231 1.356 . S
C1225 C1224 1.363 . S
C1225 C1228 1.363 . S
N1226 C1228 1.356 . S
N1226 H1238 0.984 . S
N1226 H1239 0.985 . S
N1227 C1229 1.356 . S
N1227 H1232 0.984 . S
N1227 H1233 0.985 . S
C1228 C1222 1.379 . S
C1228 C1225 1.363 . S
C1228 N1226 1.356 . S
C1229 C1223 1.363 . S
C1229 C1224 1.379 . S
C1229 N1227 1.356 . S
N1230 C1222 1.356 . S
N1230 H1236 0.984 . S
N1230 H1237 0.984 . S
N1231 C1224 1.356 . S
N1231 H1234 0.984 . S
N1231 H1235 0.985 . S
H1232 N1227 0.984 . S
H1233 N1227 0.985 . S
H1234 N1231 0.984 . S
H1235 N1231 0.985 . S
H1236 N1230 0.984 . S
H1237 N1230 0.984 . S
H1238 N1226 0.984 . S
H1239 N1226 0.985 . S
C1240 C1241 1.363 . S
C1240 C1246 1.379 . S
C1240 N1248 1.356 . S
C1241 C1240 1.363 . S
C1241 C1247 1.363 . S
C1242 C1243 1.363 . S
C1242 C1247 1.379 . S
C1242 N1249 1.356 . S
C1243 C1242 1.363 . S
C1243 C1246 1.363 . S
N1244 C1246 1.356 . S
N1244 H1256 0.984 . S
N1244 H1257 0.985 . S
N1245 C1247 1.356 . S
N1245 H1250 0.984 . S
N1245 H1251 0.985 . S
C1246 C1240 1.379 . S
C1246 C1243 1.363 . S
C1246 N1244 1.356 . S
C1247 C1241 1.363 . S
C1247 C1242 1.379 . S
C1247 N1245 1.356 . S
N1248 C1240 1.356 . S
N1248 H1254 0.984 . S
N1248 H1255 0.984 . S
N1249 C1242 1.356 . S
N1249 H1252 0.984 . S
N1249 H1253 0.985 . S
H1250 N1245 0.984 . S
H1251 N1245 0.985 . S
H1252 N1249 0.984 . S
H1253 N1249 0.985 . S
H1254 N1248 0.984 . S
H1255 N1248 0.984 . S
H1256 N1244 0.984 . S
H1257 N1244 0.985 . S
C1258 C1259 1.363 . S
C1258 C1264 1.379 . S
C1258 N1266 1.356 . S
C1259 C1258 1.363 . S
C1259 C1265 1.363 . S
C1260 C1261 1.363 . S
C1260 C1265 1.379 . S
C1260 N1267 1.356 . S
C1261 C1260 1.363 . S
C1261 C1264 1.363 . S
N1262 C1264 1.356 . S
N1262 H1274 0.984 . S
N1262 H1275 0.985 . S
N1263 C1265 1.356 . S
N1263 H1268 0.984 . S
N1263 H1269 0.985 . S
C1264 C1258 1.379 . S
C1264 C1261 1.363 . S
C1264 N1262 1.356 . S
C1265 C1259 1.363 . S
C1265 C1260 1.379 . S
C1265 N1263 1.356 . S
N1266 C1258 1.356 . S
N1266 H1272 0.984 . S
N1266 H1273 0.984 . S
N1267 C1260 1.356 . S
N1267 H1270 0.984 . S
N1267 H1271 0.985 . S
H1268 N1263 0.984 . S
H1269 N1263 0.985 . S
H1270 N1267 0.984 . S
H1271 N1267 0.985 . S
H1272 N1266 0.984 . S
H1273 N1266 0.984 . S
H1274 N1262 0.984 . S
H1275 N1262 0.985 . S
C1276 C1277 1.363 . S
C1276 C1282 1.379 . S
C1276 N1284 1.356 . S
C1277 C1276 1.363 . S
C1277 C1283 1.363 . S
C1278 C1279 1.363 . S
C1278 C1283 1.379 . S
C1278 N1285 1.356 . S
C1279 C1278 1.363 . S
C1279 C1282 1.363 . S
N1280 C1282 1.356 . S
N1280 H1292 0.984 . S
N1280 H1293 0.985 . S
N1281 C1283 1.356 . S
N1281 H1286 0.984 . S
N1281 H1287 0.985 . S
C1282 C1276 1.379 . S
C1282 C1279 1.363 . S
C1282 N1280 1.356 . S
C1283 C1277 1.363 . S
C1283 C1278 1.379 . S
C1283 N1281 1.356 . S
N1284 C1276 1.356 . S
N1284 H1290 0.984 . S
N1284 H1291 0.984 . S
N1285 C1278 1.356 . S
N1285 H1288 0.984 . S
N1285 H1289 0.985 . S
H1286 N1281 0.984 . S
H1287 N1281 0.985 . S
H1288 N1285 0.984 . S
H1289 N1285 0.985 . S
H1290 N1284 0.984 . S
H1291 N1284 0.984 . S
H1292 N1280 0.984 . S
H1293 N1280 0.985 . S
C1294 C1295 1.363 . S
C1294 C1300 1.379 . S
C1294 N1302 1.356 . S
C1295 C1294 1.363 . S
C1295 C1301 1.363 . S
C1296 C1297 1.363 . S
C1296 C1301 1.379 . S
C1296 N1303 1.356 . S
C1297 C1296 1.363 . S
C1297 C1300 1.363 . S
N1298 C1300 1.356 . S
N1298 H1310 0.984 . S
N1298 H1311 0.985 . S
N1299 C1301 1.356 . S
N1299 H1304 0.984 . S
N1299 H1305 0.985 . S
C1300 C1294 1.379 . S
C1300 C1297 1.363 . S
C1300 N1298 1.356 . S
C1301 C1295 1.363 . S
C1301 C1296 1.379 . S
C1301 N1299 1.356 . S
N1302 C1294 1.356 . S
N1302 H1308 0.984 . S
N1302 H1309 0.984 . S
N1303 C1296 1.356 . S
N1303 H1306 0.984 . S
N1303 H1307 0.985 . S
H1304 N1299 0.984 . S
H1305 N1299 0.985 . S
H1306 N1303 0.984 . S
H1307 N1303 0.985 . S
H1308 N1302 0.984 . S
H1309 N1302 0.984 . S
H1310 N1298 0.984 . S
H1311 N1298 0.985 . S
C1312 C1313 1.363 . S
C1312 C1318 1.379 . S
C1312 N1320 1.356 . S
C1313 C1312 1.363 . S
C1313 C1319 1.363 . S
C1314 C1315 1.363 . S
C1314 C1319 1.379 . S
C1314 N1321 1.356 . S
C1315 C1314 1.363 . S
C1315 C1318 1.363 . S
N1316 C1318 1.356 . S
N1316 H1328 0.984 . S
N1316 H1329 0.985 . S
N1317 C1319 1.356 . S
N1317 H1322 0.984 . S
N1317 H1323 0.985 . S
C1318 C1312 1.379 . S
C1318 C1315 1.363 . S
C1318 N1316 1.356 . S
C1319 C1313 1.363 . S
C1319 C1314 1.379 . S
C1319 N1317 1.356 . S
N1320 C1312 1.356 . S
N1320 H1326 0.984 . S
N1320 H1327 0.984 . S
N1321 C1314 1.356 . S
N1321 H1324 0.984 . S
N1321 H1325 0.985 . S
H1322 N1317 0.984 . S
H1323 N1317 0.985 . S
H1324 N1321 0.984 . S
H1325 N1321 0.985 . S
H1326 N1320 0.984 . S
H1327 N1320 0.984 . S
H1328 N1316 0.984 . S
H1329 N1316 0.985 . S
C1330 C1331 1.363 . S
C1330 C1336 1.379 . S
C1330 N1338 1.356 . S
C1331 C1330 1.363 . S
C1331 C1337 1.363 . S
C1332 C1333 1.363 . S
C1332 C1337 1.379 . S
C1332 N1339 1.356 . S
C1333 C1332 1.363 . S
C1333 C1336 1.363 . S
N1334 C1336 1.356 . S
N1334 H1346 0.984 . S
N1334 H1347 0.985 . S
N1335 C1337 1.356 . S
N1335 H1340 0.984 . S
N1335 H1341 0.985 . S
C1336 C1330 1.379 . S
C1336 C1333 1.363 . S
C1336 N1334 1.356 . S
C1337 C1331 1.363 . S
C1337 C1332 1.379 . S
C1337 N1335 1.356 . S
N1338 C1330 1.356 . S
N1338 H1344 0.984 . S
N1338 H1345 0.984 . S
N1339 C1332 1.356 . S
N1339 H1342 0.984 . S
N1339 H1343 0.985 . S
H1340 N1335 0.984 . S
H1341 N1335 0.985 . S
H1342 N1339 0.984 . S
H1343 N1339 0.985 . S
H1344 N1338 0.984 . S
H1345 N1338 0.984 . S
H1346 N1334 0.984 . S
H1347 N1334 0.985 . S
C1348 C1349 1.363 . S
C1348 C1354 1.379 . S
C1348 N1356 1.356 . S
C1349 C1348 1.363 . S
C1349 C1355 1.363 . S
C1350 C1351 1.363 . S
C1350 C1355 1.379 . S
C1350 N1357 1.356 . S
C1351 C1350 1.363 . S
C1351 C1354 1.363 . S
N1352 C1354 1.356 . S
N1352 H1364 0.984 . S
N1352 H1365 0.985 . S
N1353 C1355 1.356 . S
N1353 H1358 0.984 . S
N1353 H1359 0.985 . S
C1354 C1348 1.379 . S
C1354 C1351 1.363 . S
C1354 N1352 1.356 . S
C1355 C1349 1.363 . S
C1355 C1350 1.379 . S
C1355 N1353 1.356 . S
N1356 C1348 1.356 . S
N1356 H1362 0.984 . S
N1356 H1363 0.984 . S
N1357 C1350 1.356 . S
N1357 H1360 0.984 . S
N1357 H1361 0.985 . S
H1358 N1353 0.984 . S
H1359 N1353 0.985 . S
H1360 N1357 0.984 . S
H1361 N1357 0.985 . S
H1362 N1356 0.984 . S
H1363 N1356 0.984 . S
H1364 N1352 0.984 . S
H1365 N1352 0.985 . S
C1366 C1367 1.363 . S
C1366 C1372 1.379 . S
C1366 N1374 1.356 . S
C1367 C1366 1.363 . S
C1367 C1373 1.363 . S
C1368 C1369 1.363 . S
C1368 C1373 1.379 . S
C1368 N1375 1.356 . S
C1369 C1368 1.363 . S
C1369 C1372 1.363 . S
N1370 C1372 1.356 . S
N1370 H1382 0.984 . S
N1370 H1383 0.985 . S
N1371 C1373 1.356 . S
N1371 H1376 0.984 . S
N1371 H1377 0.985 . S
C1372 C1366 1.379 . S
C1372 C1369 1.363 . S
C1372 N1370 1.356 . S
C1373 C1367 1.363 . S
C1373 C1368 1.379 . S
C1373 N1371 1.356 . S
N1374 C1366 1.356 . S
N1374 H1380 0.984 . S
N1374 H1381 0.984 . S
N1375 C1368 1.356 . S
N1375 H1378 0.984 . S
N1375 H1379 0.985 . S
H1376 N1371 0.984 . S
H1377 N1371 0.985 . S
H1378 N1375 0.984 . S
H1379 N1375 0.985 . S
H1380 N1374 0.984 . S
H1381 N1374 0.984 . S
H1382 N1370 0.984 . S
H1383 N1370 0.985 . S
C1384 C1385 1.363 . S
C1384 C1390 1.379 . S
C1384 N1392 1.356 . S
C1385 C1384 1.363 . S
C1385 C1391 1.363 . S
C1386 C1387 1.363 . S
C1386 C1391 1.379 . S
C1386 N1393 1.356 . S
C1387 C1386 1.363 . S
C1387 C1390 1.363 . S
N1388 C1390 1.356 . S
N1388 H1400 0.984 . S
N1388 H1401 0.985 . S
N1389 C1391 1.356 . S
N1389 H1394 0.984 . S
N1389 H1395 0.985 . S
C1390 C1384 1.379 . S
C1390 C1387 1.363 . S
C1390 N1388 1.356 . S
C1391 C1385 1.363 . S
C1391 C1386 1.379 . S
C1391 N1389 1.356 . S
N1392 C1384 1.356 . S
N1392 H1398 0.984 . S
N1392 H1399 0.984 . S
N1393 C1386 1.356 . S
N1393 H1396 0.984 . S
N1393 H1397 0.985 . S
H1394 N1389 0.984 . S
H1395 N1389 0.985 . S
H1396 N1393 0.984 . S
H1397 N1393 0.985 . S
H1398 N1392 0.984 . S
H1399 N1392 0.984 . S
H1400 N1388 0.984 . S
H1401 N1388 0.985 . S
C1402 C1403 1.363 . S
C1402 C1408 1.379 . S
C1402 N1410 1.356 . S
C1403 C1402 1.363 . S
C1403 C1409 1.363 . S
C1404 C1405 1.363 . S
C1404 C1409 1.379 . S
C1404 N1411 1.356 . S
C1405 C1404 1.363 . S
C1405 C1408 1.363 . S
N1406 C1408 1.356 . S
N1406 H1418 0.984 . S
N1406 H1419 0.985 . S
N1407 C1409 1.356 . S
N1407 H1412 0.984 . S
N1407 H1413 0.985 . S
C1408 C1402 1.379 . S
C1408 C1405 1.363 . S
C1408 N1406 1.356 . S
C1409 C1403 1.363 . S
C1409 C1404 1.379 . S
C1409 N1407 1.356 . S
N1410 C1402 1.356 . S
N1410 H1416 0.984 . S
N1410 H1417 0.984 . S
N1411 C1404 1.356 . S
N1411 H1414 0.984 . S
N1411 H1415 0.985 . S
H1412 N1407 0.984 . S
H1413 N1407 0.985 . S
H1414 N1411 0.984 . S
H1415 N1411 0.985 . S
H1416 N1410 0.984 . S
H1417 N1410 0.984 . S
H1418 N1406 0.984 . S
H1419 N1406 0.985 . S
C1420 C1421 1.363 . S
C1420 C1426 1.379 . S
C1420 N1428 1.356 . S
C1421 C1420 1.363 . S
C1421 C1427 1.363 . S
C1422 C1423 1.363 . S
C1422 C1427 1.379 . S
C1422 N1429 1.356 . S
C1423 C1422 1.363 . S
C1423 C1426 1.363 . S
N1424 C1426 1.356 . S
N1424 H1436 0.984 . S
N1424 H1437 0.985 . S
N1425 C1427 1.356 . S
N1425 H1430 0.984 . S
N1425 H1431 0.985 . S
C1426 C1420 1.379 . S
C1426 C1423 1.363 . S
C1426 N1424 1.356 . S
C1427 C1421 1.363 . S
C1427 C1422 1.379 . S
C1427 N1425 1.356 . S
N1428 C1420 1.356 . S
N1428 H1434 0.984 . S
N1428 H1435 0.984 . S
N1429 C1422 1.356 . S
N1429 H1432 0.984 . S
N1429 H1433 0.985 . S
H1430 N1425 0.984 . S
H1431 N1425 0.985 . S
H1432 N1429 0.984 . S
H1433 N1429 0.985 . S
H1434 N1428 0.984 . S
H1435 N1428 0.984 . S
H1436 N1424 0.984 . S
H1437 N1424 0.985 . S
C1438 C1439 1.363 . S
C1438 C1444 1.379 . S
C1438 N1446 1.356 . S
C1439 C1438 1.363 . S
C1439 C1445 1.363 . S
C1440 C1441 1.363 . S
C1440 C1445 1.379 . S
C1440 N1447 1.356 . S
C1441 C1440 1.363 . S
C1441 C1444 1.363 . S
N1442 C1444 1.356 . S
N1442 H1454 0.984 . S
N1442 H1455 0.985 . S
N1443 C1445 1.356 . S
N1443 H1448 0.984 . S
N1443 H1449 0.985 . S
C1444 C1438 1.379 . S
C1444 C1441 1.363 . S
C1444 N1442 1.356 . S
C1445 C1439 1.363 . S
C1445 C1440 1.379 . S
C1445 N1443 1.356 . S
N1446 C1438 1.356 . S
N1446 H1452 0.984 . S
N1446 H1453 0.984 . S
N1447 C1440 1.356 . S
N1447 H1450 0.984 . S
N1447 H1451 0.985 . S
H1448 N1443 0.984 . S
H1449 N1443 0.985 . S
H1450 N1447 0.984 . S
H1451 N1447 0.985 . S
H1452 N1446 0.984 . S
H1453 N1446 0.984 . S
H1454 N1442 0.984 . S
H1455 N1442 0.985 . S
C1456 C1457 1.363 . S
C1456 C1462 1.379 1_554 S
C1456 N1464 1.356 . S
C1457 C1456 1.363 . S
C1457 C1463 1.363 . S
C1458 C1459 1.363 . S
C1458 C1463 1.379 1_556 S
C1458 N1465 1.356 . S
C1459 C1458 1.363 . S
C1459 C1462 1.363 . S
N1460 C1462 1.356 . S
N1460 H1472 0.984 . S
N1460 H1473 0.985 . S
N1461 C1463 1.356 . S
N1461 H1466 0.984 . S
N1461 H1467 0.985 . S
C1462 C1456 1.379 1_556 S
C1462 C1459 1.363 . S
C1462 N1460 1.356 . S
C1463 C1457 1.363 . S
C1463 C1458 1.379 1_554 S
C1463 N1461 1.356 . S
N1464 C1456 1.356 . S
N1464 H1470 0.984 . S
N1464 H1471 0.984 . S
N1465 C1458 1.356 . S
N1465 H1468 0.984 . S
N1465 H1469 0.985 . S
H1466 N1461 0.984 . S
H1467 N1461 0.985 . S
H1468 N1465 0.984 . S
H1469 N1465 0.985 . S
H1470 N1464 0.984 . S
H1471 N1464 0.984 . S
H1472 N1460 0.984 . S
H1473 N1460 0.985 . S
C1474 C1475 1.363 . S
C1474 C1480 1.379 1_556 S
C1474 N1482 1.356 . S
C1475 C1474 1.363 . S
C1475 C1481 1.363 . S
C1476 C1477 1.363 . S
C1476 C1481 1.379 1_554 S
C1476 N1483 1.356 . S
C1477 C1476 1.363 . S
C1477 C1480 1.363 . S
N1478 C1480 1.356 . S
N1478 H1490 0.984 . S
N1478 H1491 0.985 . S
N1479 C1481 1.356 . S
N1479 H1484 0.984 . S
N1479 H1485 0.985 . S
C1480 C1474 1.379 1_554 S
C1480 C1477 1.363 . S
C1480 N1478 1.356 . S
C1481 C1475 1.363 . S
C1481 C1476 1.379 1_556 S
C1481 N1479 1.356 . S
N1482 C1474 1.356 . S
N1482 H1488 0.984 . S
N1482 H1489 0.984 . S
N1483 C1476 1.356 . S
N1483 H1486 0.984 . S
N1483 H1487 0.985 . S
H1484 N1479 0.984 . S
H1485 N1479 0.985 . S
H1486 N1483 0.984 . S
H1487 N1483 0.985 . S
H1488 N1482 0.984 . S
H1489 N1482 0.984 . S
H1490 N1478 0.984 . S
H1491 N1478 0.985 . S
C1492 C1493 1.363 . S
C1492 C1498 1.379 1_554 S
C1492 N1500 1.356 . S
C1493 C1492 1.363 . S
C1493 C1499 1.363 . S
C1494 C1495 1.363 . S
C1494 C1499 1.379 1_556 S
C1494 N1501 1.356 . S
C1495 C1494 1.363 . S
C1495 C1498 1.363 . S
N1496 C1498 1.356 . S
N1496 H1508 0.984 . S
N1496 H1509 0.985 . S
N1497 C1499 1.356 . S
N1497 H1502 0.984 . S
N1497 H1503 0.985 . S
C1498 C1492 1.379 1_556 S
C1498 C1495 1.363 . S
C1498 N1496 1.356 . S
C1499 C1493 1.363 . S
C1499 C1494 1.379 1_554 S
C1499 N1497 1.356 . S
N1500 C1492 1.356 . S
N1500 H1506 0.984 . S
N1500 H1507 0.984 . S
N1501 C1494 1.356 . S
N1501 H1504 0.984 . S
N1501 H1505 0.985 . S
H1502 N1497 0.984 . S
H1503 N1497 0.985 . S
H1504 N1501 0.984 . S
H1505 N1501 0.985 . S
H1506 N1500 0.984 . S
H1507 N1500 0.984 . S
H1508 N1496 0.984 . S
H1509 N1496 0.985 . S
C1510 C1511 1.363 . S
C1510 C1516 1.379 1_554 S
C1510 N1518 1.356 . S
C1511 C1510 1.363 . S
C1511 C1517 1.363 . S
C1512 C1513 1.363 . S
C1512 C1517 1.379 1_556 S
C1512 N1519 1.356 . S
C1513 C1512 1.363 . S
C1513 C1516 1.363 . S
N1514 C1516 1.356 . S
N1514 H1526 0.984 . S
N1514 H1527 0.985 . S
N1515 C1517 1.356 . S
N1515 H1520 0.984 . S
N1515 H1521 0.985 . S
C1516 C1510 1.379 1_556 S
C1516 C1513 1.363 . S
C1516 N1514 1.356 . S
C1517 C1511 1.363 . S
C1517 C1512 1.379 1_554 S
C1517 N1515 1.356 . S
N1518 C1510 1.356 . S
N1518 H1524 0.984 . S
N1518 H1525 0.984 . S
N1519 C1512 1.356 . S
N1519 H1522 0.984 . S
N1519 H1523 0.985 . S
H1520 N1515 0.984 . S
H1521 N1515 0.985 . S
H1522 N1519 0.984 . S
H1523 N1519 0.985 . S
H1524 N1518 0.984 . S
H1525 N1518 0.984 . S
H1526 N1514 0.984 . S
H1527 N1514 0.985 . S
C1528 C1529 1.363 . S
C1528 C1534 1.379 1_554 S
C1528 N1536 1.356 . S
C1529 C1528 1.363 . S
C1529 C1535 1.363 . S
C1530 C1531 1.363 . S
C1530 C1535 1.379 1_556 S
C1530 N1537 1.356 . S
C1531 C1530 1.363 . S
C1531 C1534 1.363 . S
N1532 C1534 1.356 . S
N1532 H1544 0.984 . S
N1532 H1545 0.985 . S
N1533 C1535 1.356 . S
N1533 H1538 0.984 . S
N1533 H1539 0.985 . S
C1534 C1528 1.379 1_556 S
C1534 C1531 1.363 . S
C1534 N1532 1.356 . S
C1535 C1529 1.363 . S
C1535 C1530 1.379 1_554 S
C1535 N1533 1.356 . S
N1536 C1528 1.356 . S
N1536 H1542 0.984 . S
N1536 H1543 0.984 . S
N1537 C1530 1.356 . S
N1537 H1540 0.984 . S
N1537 H1541 0.985 . S
H1538 N1533 0.984 . S
H1539 N1533 0.985 . S
H1540 N1537 0.984 . S
H1541 N1537 0.985 . S
H1542 N1536 0.984 . S
H1543 N1536 0.984 . S
H1544 N1532 0.984 . S
H1545 N1532 0.985 . S
C1546 C1547 1.363 . S
C1546 C1552 1.379 1_554 S
C1546 N1554 1.356 . S
C1547 C1546 1.363 . S
C1547 C1553 1.363 . S
C1548 C1549 1.363 . S
C1548 C1553 1.379 1_556 S
C1548 N1555 1.356 . S
C1549 C1548 1.363 . S
C1549 C1552 1.363 . S
N1550 C1552 1.356 . S
N1550 H1562 0.984 . S
N1550 H1563 0.985 . S
N1551 C1553 1.356 . S
N1551 H1556 0.984 . S
N1551 H1557 0.985 . S
C1552 C1546 1.379 1_556 S
C1552 C1549 1.363 . S
C1552 N1550 1.356 . S
C1553 C1547 1.363 . S
C1553 C1548 1.379 1_554 S
C1553 N1551 1.356 . S
N1554 C1546 1.356 . S
N1554 H1560 0.984 . S
N1554 H1561 0.984 . S
N1555 C1548 1.356 . S
N1555 H1558 0.984 . S
N1555 H1559 0.985 . S
H1556 N1551 0.984 . S
H1557 N1551 0.985 . S
H1558 N1555 0.984 . S
H1559 N1555 0.985 . S
H1560 N1554 0.984 . S
H1561 N1554 0.984 . S
H1562 N1550 0.984 . S
H1563 N1550 0.985 . S
C1564 C1565 1.363 . S
C1564 C1570 1.379 1_556 S
C1564 N1572 1.356 . S
C1565 C1564 1.363 . S
C1565 C1571 1.363 . S
C1566 C1567 1.363 . S
C1566 C1571 1.379 1_554 S
C1566 N1573 1.356 . S
C1567 C1566 1.363 . S
C1567 C1570 1.363 . S
N1568 C1570 1.356 . S
N1568 H1580 0.984 . S
N1568 H1581 0.985 . S
N1569 C1571 1.356 . S
N1569 H1574 0.984 . S
N1569 H1575 0.985 . S
C1570 C1564 1.379 1_554 S
C1570 C1567 1.363 . S
C1570 N1568 1.356 . S
C1571 C1565 1.363 . S
C1571 C1566 1.379 1_556 S
C1571 N1569 1.356 . S
N1572 C1564 1.356 . S
N1572 H1578 0.984 . S
N1572 H1579 0.984 . S
N1573 C1566 1.356 . S
N1573 H1576 0.984 . S
N1573 H1577 0.985 . S
H1574 N1569 0.984 . S
H1575 N1569 0.985 . S
H1576 N1573 0.984 . S
H1577 N1573 0.985 . S
H1578 N1572 0.984 . S
H1579 N1572 0.984 . S
H1580 N1568 0.984 . S
H1581 N1568 0.985 . S
C1582 C1583 1.363 . S
C1582 C1588 1.379 1_556 S
C1582 N1590 1.356 . S
C1583 C1582 1.363 . S
C1583 C1589 1.363 . S
C1584 C1585 1.363 . S
C1584 C1589 1.379 1_554 S
C1584 N1591 1.356 . S
C1585 C1584 1.363 . S
C1585 C1588 1.363 . S
N1586 C1588 1.356 . S
N1586 H1598 0.984 . S
N1586 H1599 0.985 . S
N1587 C1589 1.356 . S
N1587 H1592 0.984 . S
N1587 H1593 0.985 . S
C1588 C1582 1.379 1_554 S
C1588 C1585 1.363 . S
C1588 N1586 1.356 . S
C1589 C1583 1.363 . S
C1589 C1584 1.379 1_556 S
C1589 N1587 1.356 . S
N1590 C1582 1.356 . S
N1590 H1596 0.984 . S
N1590 H1597 0.984 . S
N1591 C1584 1.356 . S
N1591 H1594 0.984 . S
N1591 H1595 0.985 . S
H1592 N1587 0.984 . S
H1593 N1587 0.985 . S
H1594 N1591 0.984 . S
H1595 N1591 0.985 . S
H1596 N1590 0.984 . S
H1597 N1590 0.984 . S
H1598 N1586 0.984 . S
H1599 N1586 0.985 . S
C1600 C1601 1.363 . S
C1600 C1606 1.379 . S
C1600 N1608 1.356 . S
C1601 C1600 1.363 . S
C1601 C1607 1.363 . S
C1602 C1603 1.363 . S
C1602 C1607 1.379 . S
C1602 N1609 1.356 . S
C1603 C1602 1.363 . S
C1603 C1606 1.363 . S
N1604 C1606 1.356 . S
N1604 H1616 0.984 . S
N1604 H1617 0.985 . S
N1605 C1607 1.356 . S
N1605 H1610 0.984 . S
N1605 H1611 0.985 . S
C1606 C1600 1.379 . S
C1606 C1603 1.363 . S
C1606 N1604 1.356 . S
C1607 C1601 1.363 . S
C1607 C1602 1.379 . S
C1607 N1605 1.356 . S
N1608 C1600 1.356 . S
N1608 H1614 0.984 . S
N1608 H1615 0.984 . S
N1609 C1602 1.356 . S
N1609 H1612 0.984 . S
N1609 H1613 0.985 . S
H1610 N1605 0.984 . S
H1611 N1605 0.985 . S
H1612 N1609 0.984 . S
H1613 N1609 0.985 . S
H1614 N1608 0.984 . S
H1615 N1608 0.984 . S
H1616 N1604 0.984 . S
H1617 N1604 0.985 . S
C1618 C1619 1.363 . S
C1618 C1624 1.379 . S
C1618 N1626 1.356 . S
C1619 C1618 1.363 . S
C1619 C1625 1.363 . S
C1620 C1621 1.363 . S
C1620 C1625 1.379 . S
C1620 N1627 1.356 . S
C1621 C1620 1.363 . S
C1621 C1624 1.363 . S
N1622 C1624 1.356 . S
N1622 H1634 0.984 . S
N1622 H1635 0.985 . S
N1623 C1625 1.356 . S
N1623 H1628 0.984 . S
N1623 H1629 0.985 . S
C1624 C1618 1.379 . S
C1624 C1621 1.363 . S
C1624 N1622 1.356 . S
C1625 C1619 1.363 . S
C1625 C1620 1.379 . S
C1625 N1623 1.356 . S
N1626 C1618 1.356 . S
N1626 H1632 0.984 . S
N1626 H1633 0.984 . S
N1627 C1620 1.356 . S
N1627 H1630 0.984 . S
N1627 H1631 0.985 . S
H1628 N1623 0.984 . S
H1629 N1623 0.985 . S
H1630 N1627 0.984 . S
H1631 N1627 0.985 . S
H1632 N1626 0.984 . S
H1633 N1626 0.984 . S
H1634 N1622 0.984 . S
H1635 N1622 0.985 . S
C1636 C1637 1.363 . S
C1636 C1642 1.379 . S
C1636 N1644 1.356 . S
C1637 C1636 1.363 . S
C1637 C1643 1.363 . S
C1638 C1639 1.363 . S
C1638 C1643 1.379 . S
C1638 N1645 1.356 . S
C1639 C1638 1.363 . S
C1639 C1642 1.363 . S
N1640 C1642 1.356 . S
N1640 H1652 0.984 . S
N1640 H1653 0.985 . S
N1641 C1643 1.356 . S
N1641 H1646 0.984 . S
N1641 H1647 0.985 . S
C1642 C1636 1.379 . S
C1642 C1639 1.363 . S
C1642 N1640 1.356 . S
C1643 C1637 1.363 . S
C1643 C1638 1.379 . S
C1643 N1641 1.356 . S
N1644 C1636 1.356 . S
N1644 H1650 0.984 . S
N1644 H1651 0.984 . S
N1645 C1638 1.356 . S
N1645 H1648 0.984 . S
N1645 H1649 0.985 . S
H1646 N1641 0.984 . S
H1647 N1641 0.985 . S
H1648 N1645 0.984 . S
H1649 N1645 0.985 . S
H1650 N1644 0.984 . S
H1651 N1644 0.984 . S
H1652 N1640 0.984 . S
H1653 N1640 0.985 . S
C1654 C1655 1.363 . S
C1654 C1660 1.379 . S
C1654 N1662 1.356 . S
C1655 C1654 1.363 . S
C1655 C1661 1.363 . S
C1656 C1657 1.363 . S
C1656 C1661 1.379 . S
C1656 N1663 1.356 . S
C1657 C1656 1.363 . S
C1657 C1660 1.363 . S
N1658 C1660 1.356 . S
N1658 H1670 0.984 . S
N1658 H1671 0.985 . S
N1659 C1661 1.356 . S
N1659 H1664 0.984 . S
N1659 H1665 0.985 . S
C1660 C1654 1.379 . S
C1660 C1657 1.363 . S
C1660 N1658 1.356 . S
C1661 C1655 1.363 . S
C1661 C1656 1.379 . S
C1661 N1659 1.356 . S
N1662 C1654 1.356 . S
N1662 H1668 0.984 . S
N1662 H1669 0.984 . S
N1663 C1656 1.356 . S
N1663 H1666 0.984 . S
N1663 H1667 0.985 . S
H1664 N1659 0.984 . S
H1665 N1659 0.985 . S
H1666 N1663 0.984 . S
H1667 N1663 0.985 . S
H1668 N1662 0.984 . S
H1669 N1662 0.984 . S
H1670 N1658 0.984 . S
H1671 N1658 0.985 . S
C1672 C1673 1.363 . S
C1672 C1678 1.379 . S
C1672 N1680 1.356 . S
C1673 C1672 1.363 . S
C1673 C1679 1.363 . S
C1674 C1675 1.363 . S
C1674 C1679 1.379 . S
C1674 N1681 1.356 . S
C1675 C1674 1.363 . S
C1675 C1678 1.363 . S
N1676 C1678 1.356 . S
N1676 H1688 0.984 . S
N1676 H1689 0.985 . S
N1677 C1679 1.356 . S
N1677 H1682 0.984 . S
N1677 H1683 0.985 . S
C1678 C1672 1.379 . S
C1678 C1675 1.363 . S
C1678 N1676 1.356 . S
C1679 C1673 1.363 . S
C1679 C1674 1.379 . S
C1679 N1677 1.356 . S
N1680 C1672 1.356 . S
N1680 H1686 0.984 . S
N1680 H1687 0.984 . S
N1681 C1674 1.356 . S
N1681 H1684 0.984 . S
N1681 H1685 0.985 . S
H1682 N1677 0.984 . S
H1683 N1677 0.985 . S
H1684 N1681 0.984 . S
H1685 N1681 0.985 . S
H1686 N1680 0.984 . S
H1687 N1680 0.984 . S
H1688 N1676 0.984 . S
H1689 N1676 0.985 . S
C1690 C1691 1.363 . S
C1690 C1696 1.379 . S
C1690 N1698 1.356 . S
C1691 C1690 1.363 . S
C1691 C1697 1.363 . S
C1692 C1693 1.363 . S
C1692 C1697 1.379 . S
C1692 N1699 1.356 . S
C1693 C1692 1.363 . S
C1693 C1696 1.363 . S
N1694 C1696 1.356 . S
N1694 H1706 0.984 . S
N1694 H1707 0.985 . S
N1695 C1697 1.356 . S
N1695 H1700 0.984 . S
N1695 H1701 0.985 . S
C1696 C1690 1.379 . S
C1696 C1693 1.363 . S
C1696 N1694 1.356 . S
C1697 C1691 1.363 . S
C1697 C1692 1.379 . S
C1697 N1695 1.356 . S
N1698 C1690 1.356 . S
N1698 H1704 0.984 . S
N1698 H1705 0.984 . S
N1699 C1692 1.356 . S
N1699 H1702 0.984 . S
N1699 H1703 0.985 . S
H1700 N1695 0.984 . S
H1701 N1695 0.985 . S
H1702 N1699 0.984 . S
H1703 N1699 0.985 . S
H1704 N1698 0.984 . S
H1705 N1698 0.984 . S
H1706 N1694 0.984 . S
H1707 N1694 0.985 . S
C1708 C1709 1.363 . S
C1708 C1714 1.379 . S
C1708 N1716 1.356 . S
C1709 C1708 1.363 . S
C1709 C1715 1.363 . S
C1710 C1711 1.363 . S
C1710 C1715 1.379 . S
C1710 N1717 1.356 . S
C1711 C1710 1.363 . S
C1711 C1714 1.363 . S
N1712 C1714 1.356 . S
N1712 H1724 0.984 . S
N1712 H1725 0.985 . S
N1713 C1715 1.356 . S
N1713 H1718 0.984 . S
N1713 H1719 0.985 . S
C1714 C1708 1.379 . S
C1714 C1711 1.363 . S
C1714 N1712 1.356 . S
C1715 C1709 1.363 . S
C1715 C1710 1.379 . S
C1715 N1713 1.356 . S
N1716 C1708 1.356 . S
N1716 H1722 0.984 . S
N1716 H1723 0.984 . S
N1717 C1710 1.356 . S
N1717 H1720 0.984 . S
N1717 H1721 0.985 . S
H1718 N1713 0.984 . S
H1719 N1713 0.985 . S
H1720 N1717 0.984 . S
H1721 N1717 0.985 . S
H1722 N1716 0.984 . S
H1723 N1716 0.984 . S
H1724 N1712 0.984 . S
H1725 N1712 0.985 . S
C1726 C1727 1.363 . S
C1726 C1732 1.379 . S
C1726 N1734 1.356 . S
C1727 C1726 1.363 . S
C1727 C1733 1.363 . S
C1728 C1729 1.363 . S
C1728 C1733 1.379 . S
C1728 N1735 1.356 . S
C1729 C1728 1.363 . S
C1729 C1732 1.363 . S
N1730 C1732 1.356 . S
N1730 H1742 0.984 . S
N1730 H1743 0.985 . S
N1731 C1733 1.356 . S
N1731 H1736 0.984 . S
N1731 H1737 0.985 . S
C1732 C1726 1.379 . S
C1732 C1729 1.363 . S
C1732 N1730 1.356 . S
C1733 C1727 1.363 . S
C1733 C1728 1.379 . S
C1733 N1731 1.356 . S
N1734 C1726 1.356 . S
N1734 H1740 0.984 . S
N1734 H1741 0.984 . S
N1735 C1728 1.356 . S
N1735 H1738 0.984 . S
N1735 H1739 0.985 . S
H1736 N1731 0.984 . S
H1737 N1731 0.985 . S
H1738 N1735 0.984 . S
H1739 N1735 0.985 . S
H1740 N1734 0.984 . S
H1741 N1734 0.984 . S
H1742 N1730 0.984 . S
H1743 N1730 0.985 . S
C1744 C1745 1.363 . S
C1744 C1750 1.379 . S
C1744 N1752 1.356 . S
C1745 C1744 1.363 . S
C1745 C1751 1.363 . S
C1746 C1747 1.363 . S
C1746 C1751 1.379 . S
C1746 N1753 1.356 . S
C1747 C1746 1.363 . S
C1747 C1750 1.363 . S
N1748 C1750 1.356 . S
N1748 H1760 0.984 . S
N1748 H1761 0.985 . S
N1749 C1751 1.356 . S
N1749 H1754 0.984 . S
N1749 H1755 0.985 . S
C1750 C1744 1.379 . S
C1750 C1747 1.363 . S
C1750 N1748 1.356 . S
C1751 C1745 1.363 . S
C1751 C1746 1.379 . S
C1751 N1749 1.356 . S
N1752 C1744 1.356 . S
N1752 H1758 0.984 . S
N1752 H1759 0.984 . S
N1753 C1746 1.356 . S
N1753 H1756 0.984 . S
N1753 H1757 0.985 . S
H1754 N1749 0.984 . S
H1755 N1749 0.985 . S
H1756 N1753 0.984 . S
H1757 N1753 0.985 . S
H1758 N1752 0.984 . S
H1759 N1752 0.984 . S
H1760 N1748 0.984 . S
H1761 N1748 0.985 . S
C1762 C1763 1.363 . S
C1762 C1768 1.379 . S
C1762 N1770 1.356 . S
C1763 C1762 1.363 . S
C1763 C1769 1.363 . S
C1764 C1765 1.363 . S
C1764 C1769 1.379 . S
C1764 N1771 1.356 . S
C1765 C1764 1.363 . S
C1765 C1768 1.363 . S
N1766 C1768 1.356 . S
N1766 H1778 0.984 . S
N1766 H1779 0.985 . S
N1767 C1769 1.356 . S
N1767 H1772 0.984 . S
N1767 H1773 0.985 . S
C1768 C1762 1.379 . S
C1768 C1765 1.363 . S
C1768 N1766 1.356 . S
C1769 C1763 1.363 . S
C1769 C1764 1.379 . S
C1769 N1767 1.356 . S
N1770 C1762 1.356 . S
N1770 H1776 0.984 . S
N1770 H1777 0.984 . S
N1771 C1764 1.356 . S
N1771 H1774 0.984 . S
N1771 H1775 0.985 . S
H1772 N1767 0.984 . S
H1773 N1767 0.985 . S
H1774 N1771 0.984 . S
H1775 N1771 0.985 . S
H1776 N1770 0.984 . S
H1777 N1770 0.984 . S
H1778 N1766 0.984 . S
H1779 N1766 0.985 . S
C1780 C1781 1.363 . S
C1780 C1786 1.379 . S
C1780 N1788 1.356 . S
C1781 C1780 1.363 . S
C1781 C1787 1.363 . S
C1782 C1783 1.363 . S
C1782 C1787 1.379 . S
C1782 N1789 1.356 . S
C1783 C1782 1.363 . S
C1783 C1786 1.363 . S
N1784 C1786 1.356 . S
N1784 H1796 0.984 . S
N1784 H1797 0.985 . S
N1785 C1787 1.356 . S
N1785 H1790 0.984 . S
N1785 H1791 0.985 . S
C1786 C1780 1.379 . S
C1786 C1783 1.363 . S
C1786 N1784 1.356 . S
C1787 C1781 1.363 . S
C1787 C1782 1.379 . S
C1787 N1785 1.356 . S
N1788 C1780 1.356 . S
N1788 H1794 0.984 . S
N1788 H1795 0.984 . S
N1789 C1782 1.356 . S
N1789 H1792 0.984 . S
N1789 H1793 0.985 . S
H1790 N1785 0.984 . S
H1791 N1785 0.985 . S
H1792 N1789 0.984 . S
H1793 N1789 0.985 . S
H1794 N1788 0.984 . S
H1795 N1788 0.984 . S
H1796 N1784 0.984 . S
H1797 N1784 0.985 . S
C1798 C1799 1.363 . S
C1798 C1804 1.379 . S
C1798 N1806 1.356 . S
C1799 C1798 1.363 . S
C1799 C1805 1.363 . S
C1800 C1801 1.363 . S
C1800 C1805 1.379 . S
C1800 N1807 1.356 . S
C1801 C1800 1.363 . S
C1801 C1804 1.363 . S
N1802 C1804 1.356 . S
N1802 H1814 0.984 . S
N1802 H1815 0.985 . S
N1803 C1805 1.356 . S
N1803 H1808 0.984 . S
N1803 H1809 0.985 . S
C1804 C1798 1.379 . S
C1804 C1801 1.363 . S
C1804 N1802 1.356 . S
C1805 C1799 1.363 . S
C1805 C1800 1.379 . S
C1805 N1803 1.356 . S
N1806 C1798 1.356 . S
N1806 H1812 0.984 . S
N1806 H1813 0.984 . S
N1807 C1800 1.356 . S
N1807 H1810 0.984 . S
N1807 H1811 0.985 . S
H1808 N1803 0.984 . S
H1809 N1803 0.985 . S
H1810 N1807 0.984 . S
H1811 N1807 0.985 . S
H1812 N1806 0.984 . S
H1813 N1806 0.984 . S
H1814 N1802 0.984 . S
H1815 N1802 0.985 . S
C1816 C1817 1.363 . S
C1816 C1822 1.379 . S
C1816 N1824 1.356 . S
C1817 C1816 1.363 . S
C1817 C1823 1.363 . S
C1818 C1819 1.363 . S
C1818 C1823 1.379 . S
C1818 N1825 1.356 . S
C1819 C1818 1.363 . S
C1819 C1822 1.363 . S
N1820 C1822 1.356 . S
N1820 H1832 0.984 . S
N1820 H1833 0.985 . S
N1821 C1823 1.356 . S
N1821 H1826 0.984 . S
N1821 H1827 0.985 . S
C1822 C1816 1.379 . S
C1822 C1819 1.363 . S
C1822 N1820 1.356 . S
C1823 C1817 1.363 . S
C1823 C1818 1.379 . S
C1823 N1821 1.356 . S
N1824 C1816 1.356 . S
N1824 H1830 0.984 . S
N1824 H1831 0.984 . S
N1825 C1818 1.356 . S
N1825 H1828 0.984 . S
N1825 H1829 0.985 . S
H1826 N1821 0.984 . S
H1827 N1821 0.985 . S
H1828 N1825 0.984 . S
H1829 N1825 0.985 . S
H1830 N1824 0.984 . S
H1831 N1824 0.984 . S
H1832 N1820 0.984 . S
H1833 N1820 0.985 . S
C1834 C1835 1.363 . S
C1834 C1840 1.379 . S
C1834 N1842 1.356 . S
C1835 C1834 1.363 . S
C1835 C1841 1.363 . S
C1836 C1837 1.363 . S
C1836 C1841 1.379 . S
C1836 N1843 1.356 . S
C1837 C1836 1.363 . S
C1837 C1840 1.363 . S
N1838 C1840 1.356 . S
N1838 H1850 0.984 . S
N1838 H1851 0.985 . S
N1839 C1841 1.356 . S
N1839 H1844 0.984 . S
N1839 H1845 0.985 . S
C1840 C1834 1.379 . S
C1840 C1837 1.363 . S
C1840 N1838 1.356 . S
C1841 C1835 1.363 . S
C1841 C1836 1.379 . S
C1841 N1839 1.356 . S
N1842 C1834 1.356 . S
N1842 H1848 0.984 . S
N1842 H1849 0.984 . S
N1843 C1836 1.356 . S
N1843 H1846 0.984 . S
N1843 H1847 0.985 . S
H1844 N1839 0.984 . S
H1845 N1839 0.985 . S
H1846 N1843 0.984 . S
H1847 N1843 0.985 . S
H1848 N1842 0.984 . S
H1849 N1842 0.984 . S
H1850 N1838 0.984 . S
H1851 N1838 0.985 . S
C1852 C1853 1.363 . S
C1852 C1858 1.379 . S
C1852 N1860 1.356 . S
C1853 C1852 1.363 . S
C1853 C1859 1.363 . S
C1854 C1855 1.363 . S
C1854 C1859 1.379 . S
C1854 N1861 1.356 . S
C1855 C1854 1.363 . S
C1855 C1858 1.363 . S
N1856 C1858 1.356 . S
N1856 H1868 0.984 . S
N1856 H1869 0.985 . S
N1857 C1859 1.356 . S
N1857 H1862 0.984 . S
N1857 H1863 0.985 . S
C1858 C1852 1.379 . S
C1858 C1855 1.363 . S
C1858 N1856 1.356 . S
C1859 C1853 1.363 . S
C1859 C1854 1.379 . S
C1859 N1857 1.356 . S
N1860 C1852 1.356 . S
N1860 H1866 0.984 . S
N1860 H1867 0.984 . S
N1861 C1854 1.356 . S
N1861 H1864 0.984 . S
N1861 H1865 0.985 . S
H1862 N1857 0.984 . S
H1863 N1857 0.985 . S
H1864 N1861 0.984 . S
H1865 N1861 0.985 . S
H1866 N1860 0.984 . S
H1867 N1860 0.984 . S
H1868 N1856 0.984 . S
H1869 N1856 0.985 . S
C1870 C1871 1.363 . S
C1870 C1876 1.379 . S
C1870 N1878 1.356 . S
C1871 C1870 1.363 . S
C1871 C1877 1.363 . S
C1872 C1873 1.363 . S
C1872 C1877 1.379 . S
C1872 N1879 1.356 . S
C1873 C1872 1.363 . S
C1873 C1876 1.363 . S
N1874 C1876 1.356 . S
N1874 H1886 0.984 . S
N1874 H1887 0.985 . S
N1875 C1877 1.356 . S
N1875 H1880 0.984 . S
N1875 H1881 0.985 . S
C1876 C1870 1.379 . S
C1876 C1873 1.363 . S
C1876 N1874 1.356 . S
C1877 C1871 1.363 . S
C1877 C1872 1.379 . S
C1877 N1875 1.356 . S
N1878 C1870 1.356 . S
N1878 H1884 0.984 . S
N1878 H1885 0.984 . S
N1879 C1872 1.356 . S
N1879 H1882 0.984 . S
N1879 H1883 0.985 . S
H1880 N1875 0.984 . S
H1881 N1875 0.985 . S
H1882 N1879 0.984 . S
H1883 N1879 0.985 . S
H1884 N1878 0.984 . S
H1885 N1878 0.984 . S
H1886 N1874 0.984 . S
H1887 N1874 0.985 . S
C737 N347 1.877 . S
C739 N2 1.877 . S
C755 N25 1.877 . S
C757 N278 1.877 . S
C773 N48 1.877 . S
C775 N301 1.877 . S
C791 N324 1.877 . S
C793 N71 1.877 . S
C809 N94 1.877 . S
C811 N209 1.877 . S
C827 N117 1.877 . S
C829 N232 1.877 . S
C845 N255 1.877 . S
C847 N140 1.877 . S
C863 N186 1.877 . S
C865 N163 1.877 . S
C881 N370 1.877 . S
C883 N715 1.877 . S
C899 N393 1.877 . S
C901 N646 1.877 . S
C917 N416 1.877 . S
C919 N669 1.877 . S
C935 N692 1.877 . S
C937 N439 1.877 . S
C953 N462 1.877 . S
C955 N577 1.877 . S
C971 N485 1.877 . S
C973 N600 1.877 . S
C989 N623 1.877 . S
C991 N508 1.877 . S
C1007 N531 1.877 . S
C1009 N554 1.877 . S
C1025 N288 1.958 . S
C1027 N12 1.958 . S
C1043 N35 1.958 . S
C1045 N311 1.958 . S
C1061 N334 1.958 . S
C1063 N58 1.958 . S
C1079 N81 1.958 . S
C1081 N357 1.958 . S
C1097 N104 1.958 . S
C1099 N196 1.958 . S
C1115 N219 1.958 . S
C1117 N127 1.958 . S
C1133 N242 1.958 . S
C1135 N150 1.958 . S
C1151 N265 1.958 . S
C1153 N173 1.958 . S
C1169 N380 1.958 . S
C1171 N656 1.958 . S
C1187 N679 1.958 . S
C1189 N403 1.958 . S
C1205 N426 1.958 . S
C1207 N702 1.958 . S
C1223 N449 1.958 . S
C1225 N725 1.958 . S
C1241 N564 1.958 . S
C1243 N472 1.958 . S
C1259 N495 1.958 . S
C1261 N587 1.958 . S
C1277 N518 1.958 . S
C1279 N610 1.958 . S
C1295 N541 1.958 . S
C1297 N633 1.958 . S
C1313 C7 1.567 . S
C1315 C237 1.567 . S
C1331 C260 1.567 . S
C1333 C30 1.567 . S
C1349 C53 1.567 . S
C1351 C191 1.567 . S
C1367 C214 1.567 . S
C1369 C76 1.567 . S
C1385 C329 1.567 . S
C1387 C99 1.567 . S
C1403 C352 1.567 . S
C1405 C122 1.567 . S
C1421 C283 1.567 . S
C1423 C145 1.567 . S
C1439 C168 1.567 . S
C1441 C306 1.567 . S
C1457 C605 1.567 . S
C1459 C375 1.567 . S
C1475 C398 1.567 . S
C1477 C628 1.567 . S
C1493 C559 1.567 . S
C1495 C421 1.567 . S
C1511 C582 1.567 . S
C1513 C444 1.567 . S
C1529 C467 1.567 . S
C1531 C697 1.567 . S
C1547 C490 1.567 . S
C1549 C720 1.567 . S
C1565 C651 1.567 . S
C1567 C513 1.567 . S
C1583 C674 1.567 . S
C1585 C536 1.567 . S
C1601 C545 1.523 . S
C1603 C16 1.523 . S
C1619 C476 1.523 . S
C1621 C39 1.523 . S
C1637 C499 1.523 . S
C1639 C62 1.523 . S
C1655 C522 1.523 . S
C1657 C85 1.523 . S
C1673 C407 1.523 . S
C1675 C108 1.523 . S
C1691 C131 1.523 . S
C1693 C430 1.523 . S
C1709 C154 1.523 . S
C1711 C453 1.523 . S
C1727 C177 1.523 . S
C1729 C384 1.523 . S
C1745 C200 1.523 . S
C1747 C729 1.523 . S
C1763 C660 1.523 . S
C1765 C223 1.523 . S
C1781 C246 1.523 . S
C1783 C683 1.523 . S
C1799 C269 1.523 . S
C1801 C706 1.523 . S
C1817 C591 1.523 . S
C1819 C292 1.523 . S
C1835 C614 1.523 . S
C1837 C315 1.523 . S
C1853 C338 1.523 . S
C1855 C637 1.523 . S
C1871 C361 1.523 . S
C1873 C568 1.523 . S
