# Generated by pormake.
# Topology vcb, (5)-cn, num edge types: 1
# Building blocks:
#     Node 0, Type 0, BuildingBlock: XOMCOT_clean_sbu_1, # of connection points: 5
#     Node 1, Type 0, BuildingBlock: XOMCOT_clean_sbu_1, # of connection points: 5
#     Node 2, Type 0, BuildingBlock: XOMCOT_clean_sbu_1, # of connection points: 5
#     Node 3, Type 0, BuildingBlock: XOMCOT_clean_sbu_1, # of connection points: 5
#     Node 4, Type 0, BuildingBlock: XOMCOT_clean_sbu_1, # of connection points: 5
#     Node 5, Type 0, BuildingBlock: XOMCOT_clean_sbu_1, # of connection points: 5
#     Node 6, Type 0, BuildingBlock: XOMCOT_clean_sbu_1, # of connection points: 5
#     Node 7, Type 0, BuildingBlock: XOMCOT_clean_sbu_1, # of connection points: 5
#     Node 8, Type 0, BuildingBlock: XOMCOT_clean_sbu_1, # of connection points: 5
#     Node 9, Type 0, BuildingBlock: XOMCOT_clean_sbu_1, # of connection points: 5
#     Node 10, Type 0, BuildingBlock: XOMCOT_clean_sbu_1, # of connection points: 5
#     Node 11, Type 0, BuildingBlock: XOMCOT_clean_sbu_1, # of connection points: 5
#     Node 12, Type 0, BuildingBlock: XOMCOT_clean_sbu_1, # of connection points: 5
#     Node 13, Type 0, BuildingBlock: XOMCOT_clean_sbu_1, # of connection points: 5
#     Node 14, Type 0, BuildingBlock: XOMCOT_clean_sbu_1, # of connection points: 5
#     Node 15, Type 0, BuildingBlock: XOMCOT_clean_sbu_1, # of connection points: 5
#     Node 16, Type 0, BuildingBlock: XOMCOT_clean_sbu_1, # of connection points: 5
#     Node 17, Type 0, BuildingBlock: XOMCOT_clean_sbu_1, # of connection points: 5
#     Node 18, Type 0, BuildingBlock: XOMCOT_clean_sbu_1, # of connection points: 5
#     Node 19, Type 0, BuildingBlock: XOMCOT_clean_sbu_1, # of connection points: 5
#     Node 20, Type 0, BuildingBlock: XOMCOT_clean_sbu_1, # of connection points: 5
#     Node 21, Type 0, BuildingBlock: XOMCOT_clean_sbu_1, # of connection points: 5
#     Node 22, Type 0, BuildingBlock: XOMCOT_clean_sbu_1, # of connection points: 5
#     Node 23, Type 0, BuildingBlock: XOMCOT_clean_sbu_1, # of connection points: 5
#     Node 24, Type 0, BuildingBlock: XOMCOT_clean_sbu_1, # of connection points: 5
#     Node 25, Type 0, BuildingBlock: XOMCOT_clean_sbu_1, # of connection points: 5
#     Node 26, Type 0, BuildingBlock: XOMCOT_clean_sbu_1, # of connection points: 5
#     Node 27, Type 0, BuildingBlock: XOMCOT_clean_sbu_1, # of connection points: 5
#     Node 28, Type 0, BuildingBlock: XOMCOT_clean_sbu_1, # of connection points: 5
#     Node 29, Type 0, BuildingBlock: XOMCOT_clean_sbu_1, # of connection points: 5
#     Node 30, Type 0, BuildingBlock: XOMCOT_clean_sbu_1, # of connection points: 5
#     Node 31, Type 0, BuildingBlock: XOMCOT_clean_sbu_1, # of connection points: 5
#     Edge 32, Type (0, 0), BuildingBlock: EZIPEK_clean_linker_0, # of connection points: 2
#     Edge 33, Type (0, 0), BuildingBlock: EZIPEK_clean_linker_0, # of connection points: 2
#     Edge 34, Type (0, 0), BuildingBlock: EZIPEK_clean_linker_0, # of connection points: 2
#     Edge 35, Type (0, 0), BuildingBlock: EZIPEK_clean_linker_0, # of connection points: 2
#     Edge 36, Type (0, 0), BuildingBlock: EZIPEK_clean_linker_0, # of connection points: 2
#     Edge 37, Type (0, 0), BuildingBlock: EZIPEK_clean_linker_0, # of connection points: 2
#     Edge 38, Type (0, 0), BuildingBlock: EZIPEK_clean_linker_0, # of connection points: 2
#     Edge 39, Type (0, 0), BuildingBlock: EZIPEK_clean_linker_0, # of connection points: 2
#     Edge 40, Type (0, 0), BuildingBlock: EZIPEK_clean_linker_0, # of connection points: 2
#     Edge 41, Type (0, 0), BuildingBlock: EZIPEK_clean_linker_0, # of connection points: 2
#     Edge 42, Type (0, 0), BuildingBlock: EZIPEK_clean_linker_0, # of connection points: 2
#     Edge 43, Type (0, 0), BuildingBlock: EZIPEK_clean_linker_0, # of connection points: 2
#     Edge 44, Type (0, 0), BuildingBlock: EZIPEK_clean_linker_0, # of connection points: 2
#     Edge 45, Type (0, 0), BuildingBlock: EZIPEK_clean_linker_0, # of connection points: 2
#     Edge 46, Type (0, 0), BuildingBlock: EZIPEK_clean_linker_0, # of connection points: 2
#     Edge 47, Type (0, 0), BuildingBlock: EZIPEK_clean_linker_0, # of connection points: 2
#     Edge 48, Type (0, 0), BuildingBlock: EZIPEK_clean_linker_0, # of connection points: 2
#     Edge 49, Type (0, 0), BuildingBlock: EZIPEK_clean_linker_0, # of connection points: 2
#     Edge 50, Type (0, 0), BuildingBlock: EZIPEK_clean_linker_0, # of connection points: 2
#     Edge 51, Type (0, 0), BuildingBlock: EZIPEK_clean_linker_0, # of connection points: 2
#     Edge 52, Type (0, 0), BuildingBlock: EZIPEK_clean_linker_0, # of connection points: 2
#     Edge 53, Type (0, 0), BuildingBlock: EZIPEK_clean_linker_0, # of connection points: 2
#     Edge 54, Type (0, 0), BuildingBlock: EZIPEK_clean_linker_0, # of connection points: 2
#     Edge 55, Type (0, 0), BuildingBlock: EZIPEK_clean_linker_0, # of connection points: 2
#     Edge 56, Type (0, 0), BuildingBlock: EZIPEK_clean_linker_0, # of connection points: 2
#     Edge 57, Type (0, 0), BuildingBlock: EZIPEK_clean_linker_0, # of connection points: 2
#     Edge 58, Type (0, 0), BuildingBlock: EZIPEK_clean_linker_0, # of connection points: 2
#     Edge 59, Type (0, 0), BuildingBlock: EZIPEK_clean_linker_0, # of connection points: 2
#     Edge 60, Type (0, 0), BuildingBlock: EZIPEK_clean_linker_0, # of connection points: 2
#     Edge 61, Type (0, 0), BuildingBlock: EZIPEK_clean_linker_0, # of connection points: 2
#     Edge 62, Type (0, 0), BuildingBlock: EZIPEK_clean_linker_0, # of connection points: 2
#     Edge 63, Type (0, 0), BuildingBlock: EZIPEK_clean_linker_0, # of connection points: 2
#     Edge 64, Type (0, 0), BuildingBlock: EZIPEK_clean_linker_0, # of connection points: 2
#     Edge 65, Type (0, 0), BuildingBlock: EZIPEK_clean_linker_0, # of connection points: 2
#     Edge 66, Type (0, 0), BuildingBlock: EZIPEK_clean_linker_0, # of connection points: 2
#     Edge 67, Type (0, 0), BuildingBlock: EZIPEK_clean_linker_0, # of connection points: 2
#     Edge 68, Type (0, 0), BuildingBlock: EZIPEK_clean_linker_0, # of connection points: 2
#     Edge 69, Type (0, 0), BuildingBlock: EZIPEK_clean_linker_0, # of connection points: 2
#     Edge 70, Type (0, 0), BuildingBlock: EZIPEK_clean_linker_0, # of connection points: 2
#     Edge 71, Type (0, 0), BuildingBlock: EZIPEK_clean_linker_0, # of connection points: 2
#     Edge 72, Type (0, 0), BuildingBlock: EZIPEK_clean_linker_0, # of connection points: 2
#     Edge 73, Type (0, 0), BuildingBlock: EZIPEK_clean_linker_0, # of connection points: 2
#     Edge 74, Type (0, 0), BuildingBlock: EZIPEK_clean_linker_0, # of connection points: 2
#     Edge 75, Type (0, 0), BuildingBlock: EZIPEK_clean_linker_0, # of connection points: 2
#     Edge 76, Type (0, 0), BuildingBlock: EZIPEK_clean_linker_0, # of connection points: 2
#     Edge 77, Type (0, 0), BuildingBlock: EZIPEK_clean_linker_0, # of connection points: 2
#     Edge 78, Type (0, 0), BuildingBlock: EZIPEK_clean_linker_0, # of connection points: 2
#     Edge 79, Type (0, 0), BuildingBlock: EZIPEK_clean_linker_0, # of connection points: 2
#     Edge 80, Type (0, 0), BuildingBlock: EZIPEK_clean_linker_0, # of connection points: 2
#     Edge 81, Type (0, 0), BuildingBlock: EZIPEK_clean_linker_0, # of connection points: 2
#     Edge 82, Type (0, 0), BuildingBlock: EZIPEK_clean_linker_0, # of connection points: 2
#     Edge 83, Type (0, 0), BuildingBlock: EZIPEK_clean_linker_0, # of connection points: 2
#     Edge 84, Type (0, 0), BuildingBlock: EZIPEK_clean_linker_0, # of connection points: 2
#     Edge 85, Type (0, 0), BuildingBlock: EZIPEK_clean_linker_0, # of connection points: 2
#     Edge 86, Type (0, 0), BuildingBlock: EZIPEK_clean_linker_0, # of connection points: 2
#     Edge 87, Type (0, 0), BuildingBlock: EZIPEK_clean_linker_0, # of connection points: 2
#     Edge 88, Type (0, 0), BuildingBlock: EZIPEK_clean_linker_0, # of connection points: 2
#     Edge 89, Type (0, 0), BuildingBlock: EZIPEK_clean_linker_0, # of connection points: 2
#     Edge 90, Type (0, 0), BuildingBlock: EZIPEK_clean_linker_0, # of connection points: 2
#     Edge 91, Type (0, 0), BuildingBlock: EZIPEK_clean_linker_0, # of connection points: 2
#     Edge 92, Type (0, 0), BuildingBlock: EZIPEK_clean_linker_0, # of connection points: 2
#     Edge 93, Type (0, 0), BuildingBlock: EZIPEK_clean_linker_0, # of connection points: 2
#     Edge 94, Type (0, 0), BuildingBlock: EZIPEK_clean_linker_0, # of connection points: 2
#     Edge 95, Type (0, 0), BuildingBlock: EZIPEK_clean_linker_0, # of connection points: 2
#     Edge 96, Type (0, 0), BuildingBlock: EZIPEK_clean_linker_0, # of connection points: 2
#     Edge 97, Type (0, 0), BuildingBlock: EZIPEK_clean_linker_0, # of connection points: 2
#     Edge 98, Type (0, 0), BuildingBlock: EZIPEK_clean_linker_0, # of connection points: 2
#     Edge 99, Type (0, 0), BuildingBlock: EZIPEK_clean_linker_0, # of connection points: 2
#     Edge 100, Type (0, 0), BuildingBlock: EZIPEK_clean_linker_0, # of connection points: 2
#     Edge 101, Type (0, 0), BuildingBlock: EZIPEK_clean_linker_0, # of connection points: 2
#     Edge 102, Type (0, 0), BuildingBlock: EZIPEK_clean_linker_0, # of connection points: 2
#     Edge 103, Type (0, 0), BuildingBlock: EZIPEK_clean_linker_0, # of connection points: 2
#     Edge 104, Type (0, 0), BuildingBlock: EZIPEK_clean_linker_0, # of connection points: 2
#     Edge 105, Type (0, 0), BuildingBlock: EZIPEK_clean_linker_0, # of connection points: 2
#     Edge 106, Type (0, 0), BuildingBlock: EZIPEK_clean_linker_0, # of connection points: 2
#     Edge 107, Type (0, 0), BuildingBlock: EZIPEK_clean_linker_0, # of connection points: 2
#     Edge 108, Type (0, 0), BuildingBlock: EZIPEK_clean_linker_0, # of connection points: 2
#     Edge 109, Type (0, 0), BuildingBlock: EZIPEK_clean_linker_0, # of connection points: 2
#     Edge 110, Type (0, 0), BuildingBlock: EZIPEK_clean_linker_0, # of connection points: 2
#     Edge 111, Type (0, 0), BuildingBlock: EZIPEK_clean_linker_0, # of connection points: 2
# Relax obj value: 0.101
# Max RMSD: 0.129
# Mean RMSD: 0.129
data_MOF--net-vcb--node1-XOMCOT_clean_sbu_1--edge1-EZIPEK_clean_linker_0
_symmetry_space_group_name_H-M    P1
_symmetry_Int_Tables_number       1
_symmetry_cell_setting            triclinic
loop_
_symmetry_equiv_pos_as_xyz
'x, y, z'
_cell_length_a     53.061473
_cell_length_b     74.379546
_cell_length_c     19.907465
_cell_angle_alpha  89.856294
_cell_angle_beta   89.949198
_cell_angle_gamma 90.1181
loop_
_atom_site_label
_atom_site_type_symbol
_atom_site_fract_x
_atom_site_fract_y
_atom_site_fract_z
_atom_type_partial_charge
C0 C 0.99007 0.07355 0.27568 0.0
C1 C 0.9642 0.07325 0.27344 0.0
N2 N 0.95537 0.0791 0.3328 0.0
N3 N 0.99776 0.08003 0.33557 0.0
C4 C 0.97603 0.08307 0.36973 0.0
H5 H 1.0024 0.06902 0.23606 0.0
Co6 Co 0.03174 0.08266 0.36211 0.0
C7 C 0.02775 0.11274 0.46221 0.0
O8 O 0.04151 0.12414 0.42749 0.0
N9 N 0.06618 0.08535 0.38993 0.0
C10 C 0.10044 0.08505 0.45519 0.0
C11 C 0.07585 0.07944 0.44888 0.0
C12 C 0.0856 0.09465 0.36158 0.0
N13 N 0.10657 0.09469 0.40041 0.0
O14 O 0.03518 0.10228 0.29921 0.0
H15 H 0.0655 0.07211 0.48687 0.0
H16 H 0.08423 0.10206 0.31512 0.0
O17 O 1.02204 0.09752 0.43749 0.0
C18 C 0.04166 0.09481 0.24385 0.0
O19 O 0.04821 0.07777 0.24562 0.0
N20 N 0.02803 0.06225 0.4151 0.0
C21 C 1.01785 0.02862 0.46826 0.0
C22 C 1.00905 0.04402 0.50074 0.0
C23 C 1.01426 0.06085 0.47305 0.0
C24 C 0.03734 0.04736 0.3843 0.0
C25 C 0.03249 0.03032 0.41022 0.0
H26 H 1.00627 0.07251 0.49699 0.0
H27 H 0.04772 0.04876 0.33781 0.0
H28 H 0.97525 0.08765 0.42118 0.0
H29 H 0.95268 0.06846 0.23231 0.0
H30 H 0.11268 0.08273 0.49781 0.0
H31 H 0.99757 0.04296 0.54561 0.0
H32 H 0.03942 0.01854 0.38418 0.0
C33 C 0.31505 0.16412 0.30415 0.0
C34 C 0.34093 0.1649 0.29997 0.0
N35 N 0.35057 0.15422 0.34821 0.0
N36 N 0.30837 0.15275 0.35389 0.0
C37 C 0.33048 0.14683 0.37957 0.0
H38 H 0.30193 0.17199 0.27503 0.0
Co39 Co 0.27503 0.14812 0.37954 0.0
C40 C 0.28333 0.13254 0.51761 0.0
O41 O 0.26973 0.1454 0.54395 0.0
N42 N 0.24033 0.14297 0.40498 0.0
C43 C 0.20323 0.14311 0.45883 0.0
C44 C 0.22706 0.15025 0.45642 0.0
C45 C 0.22349 0.13133 0.37681 0.0
N46 N 0.20089 0.13123 0.40869 0.0
O47 O 0.27501 0.12926 0.31509 0.0
H48 H 0.23382 0.16038 0.49068 0.0
H49 H 0.22747 0.12297 0.33382 0.0
O50 O 0.28679 0.1318 0.45366 0.0
C51 C 0.26639 0.13526 0.25927 0.0
O52 O 0.25287 0.15003 0.26067 0.0
N53 N 0.27608 0.16872 0.43287 0.0
C54 C 0.28218 0.20317 0.48264 0.0
C55 C 0.29871 0.18959 0.50187 0.0
C56 C 0.29558 0.1725 0.47531 0.0
C57 C 0.26034 0.1821 0.41202 0.0
C58 C 0.26268 0.19943 0.43764 0.0
H59 H 0.3096 0.16261 0.48605 0.0
H60 H 0.24637 0.17938 0.37381 0.0
H61 H 0.332 0.13791 0.42238 0.0
H62 H 0.35185 0.17346 0.26686 0.0
H63 H 0.18852 0.14658 0.49419 0.0
H64 H 0.31447 0.19238 0.53485 0.0
H65 H 0.25012 0.20995 0.42054 0.0
C66 C 0.99339 0.15488 0.93982 0.0
C67 C 0.96781 0.1576 0.94019 0.0
N68 N 0.95842 0.15193 0.88117 0.0
N69 N 1.00024 0.14683 0.88199 0.0
C70 C 0.97849 0.14565 0.84645 0.0
H71 H 1.00618 0.15868 0.97948 0.0
Co72 Co 0.0339 0.14078 0.86195 0.0
C73 C 1.01172 0.11594 0.75111 0.0
O74 O 0.99701 0.10517 0.78592 0.0
N75 N 0.06785 0.13495 0.84137 0.0
C76 C 0.10265 0.13077 0.78052 0.0
C77 C 0.07818 0.13675 0.77959 0.0
C78 C 0.08675 0.12799 0.87924 0.0
N79 N 0.10801 0.12523 0.84317 0.0
O80 O 0.03084 0.11962 0.91849 0.0
H81 H 0.06838 0.14185 0.73593 0.0
H82 H 0.0853 0.12517 0.93222 0.0
O83 O 1.02441 0.12818 0.78033 0.0
C84 C 0.03697 0.1243 0.97817 0.0
O85 O 0.0457 0.14062 0.98781 0.0
N86 N 0.03687 0.16211 0.8143 0.0
C87 C 0.03699 0.19719 0.768 0.0
C88 C 1.02317 0.18402 0.73409 0.0
C89 C 1.02333 0.16642 0.75816 0.0
C90 C 0.05114 0.17468 0.84625 0.0
C91 C 0.05162 0.1924 0.82355 0.0
H92 H 1.01152 0.1566 0.73367 0.0
H93 H 0.06127 0.17105 0.89142 0.0
H94 H 0.97731 0.14082 0.79556 0.0
H95 H 0.95699 0.16384 0.97991 0.0
H96 H 0.11549 0.13028 0.73826 0.0
H97 H 1.01153 0.18751 0.69132 0.0
H98 H 0.06228 0.20243 0.85088 0.0
C99 C 0.32117 0.06643 0.96167 0.0
C100 C 0.34685 0.06443 0.96452 0.0
N101 N 0.35699 0.07257 0.91057 0.0
N102 N 0.31461 0.07581 0.90613 0.0
C103 C 0.33721 0.07965 0.87686 0.0
H104 H 0.30819 0.06168 -0.00051 0.0
Co105 Co 0.28147 0.08538 0.8901 0.0
C106 C 0.30184 0.08866 0.74957 0.0
O107 O 0.31062 0.07217 0.75277 0.0
N108 N 0.24959 0.09607 0.87543 0.0
C109 C 0.22312 0.11783 0.84543 0.0
C110 C 0.24781 0.11265 0.8479 0.0
C111 C 0.22543 0.09156 0.89066 0.0
N112 N 0.209 0.10463 0.87212 0.0
O113 O 0.29059 0.10558 0.94504 0.0
H114 H 0.26363 0.12083 0.8322 0.0
H115 H 0.22004 0.07917 0.91546 0.0
O116 O 0.29255 0.09604 0.80249 0.0
C117 C 0.28147 0.10065 0.00204 0.0
O118 O 0.26947 0.08519 0.00511 0.0
N119 N 0.27079 0.06437 0.84646 0.0
C120 C 0.25996 0.03126 0.78985 0.0
C121 C 0.27005 0.03232 0.85435 0.0
C122 C 0.27423 0.04902 0.88269 0.0
C123 C 0.258 0.0637 0.78693 0.0
C124 C 0.25244 0.04709 0.75727 0.0
H125 H 0.28024 0.04956 0.93399 0.0
H126 H 0.25281 0.07596 0.76118 0.0
H127 H 0.33961 0.08818 0.8335 0.0
H128 H 0.35735 0.05751 0.00332 0.0
H129 H 0.21601 0.13053 0.82676 0.0
H130 H 0.27475 0.02032 0.8826 0.0
H131 H 0.24343 0.04662 0.70852 0.0
C132 C 0.04804 0.9187 0.66998 0.0
C133 C 0.07375 0.92019 0.67701 0.0
N134 N 0.08464 0.90635 0.64456 0.0
N135 N 0.04264 0.90392 0.63362 0.0
C136 C 0.06529 0.89626 0.62163 0.0
H137 H 0.03412 0.92803 0.68873 0.0
Co138 Co 1.00981 0.89668 0.61143 0.0
C139 C 0.03755 0.8834 0.47951 0.0
O140 O 0.05866 0.89254 0.48337 0.0
N141 N 0.97649 0.88919 0.59065 0.0
C142 C 0.94183 0.88392 0.53054 0.0
C143 C 0.9661 0.89031 0.52881 0.0
C144 C 0.9579 0.88202 0.6294 0.0
N145 N 0.93676 0.87868 0.59365 0.0
O146 O 1.01475 0.87588 0.66654 0.0
H147 H 0.97544 0.89575 0.48514 0.0
H148 H 0.95957 0.87933 0.68258 0.0
O149 O 1.02057 0.88447 0.52563 0.0
C150 C 1.00851 0.88144 0.72518 0.0
O151 O 0.99848 0.89755 0.72992 0.0
N152 N 1.00445 0.91858 0.56689 0.0
C153 C 1.00064 0.95473 0.53405 0.0
C154 C 1.01959 0.9442 0.50587 0.0
C155 C 1.02135 0.92617 0.52361 0.0
C156 C 0.9853 0.92863 0.59304 0.0
C157 C 0.9829 0.94681 0.5768 0.0
H158 H 0.03757 0.91898 0.50711 0.0
H159 H 0.97279 0.92284 0.63018 0.0
H160 H 0.06771 0.88356 0.59623 0.0
H161 H 0.08377 0.93122 0.70041 0.0
H162 H 0.92878 0.88327 0.48883 0.0
H163 H 0.03391 0.95017 0.47395 0.0
H164 H 0.96834 0.95481 0.60032 0.0
C165 C 0.72684 0.81547 0.69684 0.0
C166 C 0.70127 0.8144 0.70728 0.0
N167 N 0.69017 0.82782 0.6728 0.0
N168 N 0.73204 0.82956 0.65626 0.0
C169 C 0.70931 0.8372 0.64444 0.0
H170 H 0.74083 0.80629 0.7164 0.0
Co171 Co 0.76521 0.83541 0.6298 0.0
C172 C 0.73755 0.84754 0.49658 0.0
O173 O 0.71565 0.83952 0.50306 0.0
N174 N 0.79875 0.84133 0.6047 0.0
C175 C 0.83254 0.84564 0.53997 0.0
C176 C 0.80787 0.84014 0.54144 0.0
C177 C 0.81864 0.84735 0.64124 0.0
N178 N 0.83925 0.85024 0.60257 0.0
O179 O 0.7625 0.85738 0.67894 0.0
H180 H 0.79732 0.8354 0.49881 0.0
H181 H 0.81819 0.84953 0.69486 0.0
O182 O 0.75449 0.84642 0.5425 0.0
C183 C 0.76761 0.85245 0.73907 0.0
O184 O 0.77393 0.83564 0.75011 0.0
N185 N 0.76858 0.81287 0.59026 0.0
C186 C 0.77261 0.77714 0.55423 0.0
C187 C 0.75261 0.78745 0.5304 0.0
C188 C 0.7507 0.80528 0.55008 0.0
C189 C 0.78809 0.80282 0.61434 0.0
C190 C 0.79062 0.78485 0.59633 0.0
H191 H 0.73409 0.81248 0.53625 0.0
H192 H 0.80125 0.80857 0.64976 0.0
H193 H 0.70669 0.84939 0.61569 0.0
H194 H 0.69141 0.80399 0.73494 0.0
H195 H 0.84468 0.84632 0.49627 0.0
H196 H 0.73807 0.78154 0.49922 0.0
H197 H 0.806 0.77693 0.61641 0.0
C198 C 0.05651 0.81481 0.02543 0.0
C199 C 0.08245 0.81447 0.02425 0.0
N200 N 0.09105 0.82457 0.07543 0.0
N201 N 0.04864 0.82524 0.0765 0.0
C202 C 0.0702 0.83104 0.10616 0.0
H203 H 0.0441 0.80736 0.9927 0.0
Co204 Co 1.01445 0.82889 0.09759 0.0
C205 C 1.01854 0.84159 0.24087 0.0
O206 O 1.00486 0.82795 0.26109 0.0
N207 N 0.97901 0.83293 0.11921 0.0
C208 C 0.9414 0.83121 0.16999 0.0
C209 C 0.96517 0.82417 0.16641 0.0
C210 C 0.96238 0.8452 0.09404 0.0
N211 N 0.93945 0.84441 0.12432 0.0
O212 O 1.01505 0.84925 0.03837 0.0
H213 H 0.97156 0.81317 0.19739 0.0
H214 H 0.96684 0.85473 0.05475 0.0
O215 O 1.02392 0.84362 0.17824 0.0
C216 C 1.00671 0.84377 0.98153 0.0
O217 O 0.9948 0.82826 0.98042 0.0
N218 N 1.01463 0.80702 0.14368 0.0
C219 C 1.01681 0.77131 0.18354 0.0
C220 C 0.03294 0.78401 0.21245 0.0
C221 C 0.03198 0.80181 0.1904 0.0
C222 C 0.99976 0.79453 0.11291 0.0
C223 C 1.00016 0.77662 0.13305 0.0
H224 H 0.04568 0.8112 0.20904 0.0
H225 H 0.98771 0.79853 0.07174 0.0
H226 H 0.07073 0.83943 0.15038 0.0
H227 H 0.09414 0.80677 0.9903 0.0
H228 H 0.92646 0.82683 0.20337 0.0
H229 H 0.04666 0.78006 0.24994 0.0
H230 H 0.98803 0.76692 0.10848 0.0
C231 C 0.73172 0.9144 0.03836 0.0
C232 C 0.70586 0.91533 0.03556 0.0
N233 N 0.69634 0.90507 0.08527 0.0
N234 N 0.73865 0.90339 0.08903 0.0
C235 C 0.71655 0.89782 0.11652 0.0
H236 H 0.74467 0.92179 0.00667 0.0
Co237 Co 0.7725 0.89886 0.11327 0.0
C238 C 0.76464 0.88591 0.25592 0.0
O239 O 0.77829 0.89921 0.27891 0.0
N240 N 0.80736 0.89404 0.13687 0.0
C241 C 0.84477 0.89421 0.18876 0.0
C242 C 0.82086 0.90115 0.18819 0.0
C243 C 0.82425 0.88297 0.10622 0.0
N244 N 0.84706 0.88282 0.13697 0.0
O245 O 0.77217 0.8787 0.05392 0.0
H246 H 0.81435 0.91127 0.22273 0.0
H247 H 0.82009 0.87498 0.06238 0.0
O248 O 0.76105 0.88404 0.19237 0.0
C249 C 0.77746 0.88582 0.9969 0.0
O250 O 0.78473 0.90272 0.99564 0.0
N251 N 0.77261 0.92041 0.16079 0.0
C252 C 0.77096 0.95554 0.20577 0.0
C253 C 0.75326 0.94306 0.22868 0.0
C254 C 0.75404 0.92561 0.204 0.0
C255 C 0.78924 0.93276 0.13587 0.0
C256 C 0.78907 0.95041 0.15873 0.0
H257 H 0.7393 0.91649 0.2179 0.0
H258 H 0.80245 0.92891 0.0971 0.0
H259 H 0.71517 0.88908 0.15979 0.0
H260 H 0.69486 0.92364 0.00187 0.0
H261 H 0.85964 0.89758 0.2238 0.0
H262 H 0.73852 0.94696 0.26336 0.0
H263 H 0.8025 0.96005 0.1389 0.0
C264 C 0.99833 0.57321 0.77873 0.0
C265 C 0.97246 0.57251 0.77982 0.0
N266 N 0.96447 0.57888 0.83926 0.0
N267 N 1.00694 0.58041 0.83656 0.0
C268 C 0.98568 0.58355 0.87288 0.0
H269 H 1.01004 0.5683 0.73842 0.0
Co270 Co 0.04168 0.58316 0.85754 0.0
C271 C 1.02592 0.61346 0.95592 0.0
O272 O 1.01548 0.62578 0.91774 0.0
N273 N 0.07657 0.58605 0.87997 0.0
C274 C 0.11109 0.58809 0.94378 0.0
C275 C 0.08653 0.58224 0.94094 0.0
C276 C 0.09582 0.59431 0.84674 0.0
N277 N 0.11694 0.59576 0.88464 0.0
O278 O 0.04406 0.60207 0.79188 0.0
H279 H 0.07628 0.57642 0.9826 0.0
H280 H 0.09416 0.60017 0.7974 0.0
O281 O 0.03459 0.5991 0.93061 0.0
C282 C 0.04933 0.59451 0.73587 0.0
O283 O 0.05531 0.57737 0.73668 0.0
N284 N 0.03907 0.56353 0.91468 0.0
C285 C 0.03124 0.53079 0.97723 0.0
C286 C 1.02124 0.54645 0.00513 0.0
C287 C 1.02543 0.56284 0.97297 0.0
C288 C 0.04943 0.54843 0.88807 0.0
C289 C 0.04589 0.53182 0.91897 0.0
H290 H 1.0168 0.57472 0.99368 0.0
H291 H 0.05974 0.54926 0.84126 0.0
H292 H 0.98564 0.58862 0.92366 0.0
H293 H 0.96041 0.56702 0.74107 0.0
H294 H 0.12346 0.58739 0.98693 0.0
H295 H 1.0097 0.54589 0.05 0.0
H296 H 0.05365 0.51982 0.89631 0.0
C297 C 0.32629 0.66265 0.76617 0.0
C298 C 0.3522 0.66329 0.76383 0.0
N299 N 0.36126 0.65472 0.81826 0.0
N300 N 0.31885 0.65348 0.82133 0.0
C301 C 0.34071 0.64877 0.85206 0.0
H302 H 0.31371 0.66891 0.7305 0.0
Co303 Co 0.28473 0.64961 0.84581 0.0
C304 C 0.29077 0.63799 0.98933 0.0
O305 O 0.27638 0.65123 0.0092 0.0
N306 N 0.24963 0.64533 0.87038 0.0
C307 C 0.21189 0.64696 0.92056 0.0
C308 C 0.23562 0.65421 0.91668 0.0
C309 C 0.23328 0.63266 0.84664 0.0
N310 N 0.21031 0.63341 0.87649 0.0
O311 O 0.28444 0.6289 0.78989 0.0
H312 H 0.24185 0.66544 0.9466 0.0
H313 H 0.23796 0.62289 0.80855 0.0
O314 O 0.29546 0.63565 0.92662 0.0
C315 C 0.27816 0.63581 0.73334 0.0
O316 O 0.27125 0.65277 0.73196 0.0
N317 N 0.28507 0.67167 0.88934 0.0
C318 C 0.28358 0.7067 0.9346 0.0
C319 C 0.30135 0.69475 0.96071 0.0
C320 C 0.30229 0.67731 0.9356 0.0
C321 C 0.26925 0.68371 0.85953 0.0
C322 C 0.26779 0.70129 0.88246 0.0
H323 H 0.31678 0.66843 0.953 0.0
H324 H 0.25727 0.67947 0.81858 0.0
H325 H 0.34171 0.64152 0.89907 0.0
H326 H 0.36355 0.6702 0.72661 0.0
H327 H 0.19674 0.65142 0.95293 0.0
H328 H 0.31445 0.69894 0.99936 0.0
H329 H 0.25442 0.71052 0.86014 0.0
C330 C 0.98957 0.62075 0.36906 0.0
C331 C 0.96381 0.62205 0.36777 0.0
N332 N 0.9578 0.63954 0.36558 0.0
N333 N 0.99998 0.63737 0.36804 0.0
C334 C 0.97991 0.64864 0.3661 0.0
H335 H 1.00003 0.6083 0.36744 0.0
Co336 Co 0.03507 0.64103 0.35892 0.0
C337 C 0.04084 0.61462 0.24416 0.0
O338 O 0.0539 0.60233 0.27612 0.0
N339 N 0.07068 0.64387 0.34679 0.0
C340 C 0.10732 0.64882 0.29443 0.0
C341 C 0.08188 0.65228 0.2942 0.0
C342 C 0.0901 0.63551 0.37851 0.0
N343 N 0.1124 0.6381 0.34699 0.0
O344 O 0.04055 0.61995 0.41259 0.0
H345 H 0.0721 0.65946 0.25491 0.0
H346 H 0.08801 0.62676 0.42133 0.0
O347 O 0.03357 0.62872 0.2742 0.0
C348 C 0.04084 0.62635 0.47222 0.0
O349 O 0.04022 0.64391 0.4794 0.0
N350 N 0.02935 0.66272 0.31532 0.0
C351 C 1.0232 0.6973 0.26688 0.0
C352 C 1.01609 0.68259 0.22745 0.0
C353 C 1.01913 0.66523 0.25298 0.0
C354 C 0.03578 0.67698 0.35454 0.0
C355 C 0.03292 0.69446 0.33115 0.0
H356 H 1.01311 0.65395 0.22286 0.0
H357 H 0.04341 0.67467 0.40415 0.0
H358 H 0.98134 0.66311 0.36207 0.0
H359 H 0.95049 0.61102 0.36549 0.0
H360 H 0.12082 0.65288 0.25645 0.0
H361 H 1.00824 0.68455 0.17776 0.0
H362 H 0.03839 0.70567 0.36262 0.0
C363 C 0.31784 0.56422 0.42292 0.0
C364 C 0.34337 0.56253 0.43352 0.0
N365 N 0.35506 0.57661 0.40422 0.0
N366 N 0.31338 0.5793 0.38704 0.0
C367 C 0.33639 0.58687 0.37859 0.0
H368 H 0.30341 0.55487 0.43914 0.0
Co369 Co 0.28117 0.58742 0.36081 0.0
C370 C 0.31162 0.59855 0.23149 0.0
O371 O 0.3321 0.5889 0.23868 0.0
N372 N 0.24874 0.59596 0.33547 0.0
C373 C 0.21655 0.60416 0.27039 0.0
C374 C 0.24057 0.59738 0.27136 0.0
C375 C 0.22893 0.60174 0.37284 0.0
N376 N 0.20929 0.60698 0.33406 0.0
O377 O 0.28655 0.6085 0.41356 0.0
H378 H 0.25119 0.59348 0.22762 0.0
H379 H 0.22868 0.60189 0.42713 0.0
O380 O 0.29408 0.59844 0.27598 0.0
C381 C 0.28106 0.60311 0.47295 0.0
O382 O 0.27271 0.58661 0.48127 0.0
N383 N 0.2749 0.56558 0.31725 0.0
C384 C 0.26622 0.53062 0.27559 0.0
C385 C 0.28846 0.53941 0.25763 0.0
C386 C 0.29258 0.55685 0.27981 0.0
C387 C 0.25309 0.55703 0.33521 0.0
C388 C 0.24817 0.53955 0.31397 0.0
H389 H 0.31066 0.56273 0.2704 0.0
H390 H 0.2399 0.56343 0.36887 0.0
H391 H 0.33955 0.59962 0.35374 0.0
H392 H 0.35277 0.55138 0.45786 0.0
H393 H 0.20512 0.60668 0.22634 0.0
H394 H 0.30304 0.53251 0.22969 0.0
H395 H 0.23111 0.53276 0.33007 0.0
C396 C 0.05881 0.42054 0.20114 0.0
C397 C 0.08458 0.42148 0.20706 0.0
N398 N 0.0946 0.40706 0.17632 0.0
N399 N 0.05238 0.40557 0.16701 0.0
C400 C 0.07464 0.39724 0.15526 0.0
H401 H 0.04556 0.43055 0.21842 0.0
Co402 Co 1.0186 0.40013 0.14439 0.0
C403 C 0.04496 0.38419 0.01509 0.0
O404 O 0.06677 0.39247 0.01833 0.0
N405 N 0.9845 0.39467 0.12218 0.0
C406 C 0.94907 0.39301 0.06219 0.0
C407 C 0.97321 0.39958 0.06404 0.0
C408 C 0.96659 0.38486 0.15466 0.0
N409 N 0.94493 0.38373 0.11898 0.0
O410 O 1.02013 0.37945 0.20252 0.0
H411 H 0.98185 0.40753 0.02495 0.0
H412 H 0.96936 0.37832 0.20254 0.0
O413 O 0.02797 0.38651 0.06051 0.0
C414 C 1.01621 0.38624 0.26092 0.0
O415 O 1.01142 0.40355 0.26468 0.0
N416 N 1.01636 0.42203 0.09854 0.0
C417 C 1.01523 0.45796 0.06145 0.0
C418 C 0.03113 0.44599 0.0282 0.0
C419 C 0.03173 0.42807 0.04837 0.0
C420 C 1.00036 0.43357 0.13037 0.0
C421 C 0.99944 0.45167 0.11252 0.0
H422 H 0.04553 0.41959 0.02601 0.0
H423 H 0.98909 0.42882 0.17211 0.0
H424 H 0.07638 0.38431 0.13108 0.0
H425 H 0.09525 0.43256 0.22794 0.0
H426 H 0.93553 0.39483 0.02209 0.0
H427 H 0.04395 0.45068 0.98951 0.0
H428 H 0.98727 0.46078 0.13977 0.0
C429 C 0.73322 0.32451 0.20864 0.0
C430 C 0.70754 0.32234 0.20958 0.0
N431 N 0.6981 0.32912 0.15216 0.0
N432 N 0.74015 0.3333 0.15225 0.0
C433 C 0.71827 0.33553 0.11796 0.0
H434 H 0.74605 0.31971 0.2467 0.0
Co435 Co 0.77403 0.33848 0.13148 0.0
C436 C 0.75339 0.36485 0.02169 0.0
O437 O 0.73837 0.37586 0.05406 0.0
N438 N 0.80824 0.34334 0.11 0.0
C439 C 0.84254 0.34743 0.04686 0.0
C440 C 0.81771 0.3422 0.04704 0.0
C441 C 0.82808 0.34892 0.14761 0.0
N442 N 0.84898 0.35174 0.10998 0.0
O443 O 0.77285 0.359 0.19073 0.0
H444 H 0.80706 0.33818 0.00329 0.0
H445 H 0.82738 0.3511 0.20114 0.0
O446 O 0.76496 0.3524 0.05286 0.0
C447 C 0.77871 0.35369 0.24985 0.0
O448 O 0.78621 0.33702 0.25819 0.0
N449 N 0.77514 0.31783 0.08032 0.0
C450 C 0.7745 0.28397 0.02416 0.0
C451 C 0.76036 0.29778 0.99525 0.0
C452 C 0.76096 0.31478 0.02421 0.0
C453 C 0.78936 0.30456 0.10813 0.0
C454 C 0.78951 0.28744 0.08031 0.0
H455 H 0.7492 0.32515 0.00302 0.0
H456 H 0.8 0.30722 0.15337 0.0
H457 H 0.71708 0.34115 0.06813 0.0
H458 H 0.69665 0.31564 0.2483 0.0
H459 H 0.85481 0.34841 0.00352 0.0
H460 H 0.74845 0.29527 0.9521 0.0
H461 H 0.80041 0.27685 0.10376 0.0
C462 C 0.06553 0.31786 0.55877 0.0
C463 C 0.09137 0.31699 0.55915 0.0
N464 N 0.09996 0.32614 0.6128 0.0
N465 N 0.05763 0.32813 0.61027 0.0
C466 C 0.07909 0.33284 0.64297 0.0
H467 H 0.0532 0.31108 0.5238 0.0
Co468 Co 1.02323 0.33123 0.62976 0.0
C469 C 0.0265 0.34162 0.77692 0.0
O470 O 1.01396 0.32724 0.79523 0.0
N471 N 0.98772 0.33422 0.64934 0.0
C472 C 0.95004 0.33185 0.69931 0.0
C473 C 0.97418 0.32539 0.69696 0.0
C474 C 0.97052 0.34561 0.6218 0.0
N475 N 0.94767 0.34464 0.65221 0.0
O476 O 1.02364 0.35328 0.57699 0.0
H477 H 0.98096 0.31459 0.72824 0.0
H478 H 0.9744 0.35448 0.58033 0.0
O479 O 0.03155 0.34458 0.7146 0.0
C480 C 1.0203 0.34911 0.51516 0.0
O481 O 1.01504 0.33231 0.50061 0.0
N482 N 1.02355 0.30854 0.67039 0.0
C483 C 0.02721 0.27231 0.70211 0.0
C484 C 0.04249 0.28487 0.73472 0.0
C485 C 0.04084 0.30294 0.71667 0.0
C486 C 1.00919 0.29629 0.63673 0.0
C487 C 1.01047 0.27806 0.65245 0.0
H488 H 0.05403 0.31227 0.73809 0.0
H489 H 0.99708 0.3007 0.59626 0.0
H490 H 0.07944 0.34028 0.68954 0.0
H491 H 0.10296 0.30936 0.52472 0.0
H492 H 0.93519 0.32739 0.7328 0.0
H493 H 0.05618 0.28063 0.77184 0.0
H494 H 0.99889 0.26851 0.62535 0.0
C495 C 0.73702 0.40582 0.54974 0.0
C496 C 0.71119 0.40706 0.55097 0.0
N497 N 0.70309 0.40243 0.6127 0.0
N498 N 0.74541 0.39991 0.60987 0.0
C499 C 0.72417 0.39822 0.64756 0.0
H500 H 0.7488 0.40922 0.50736 0.0
Co501 Co 0.77956 0.3958 0.63281 0.0
C502 C 0.77443 0.36634 0.73543 0.0
O503 O 0.78843 0.3547 0.70295 0.0
N504 N 0.814 0.39159 0.65735 0.0
C505 C 0.84916 0.39046 0.71894 0.0
C506 C 0.82474 0.39653 0.71617 0.0
C507 C 0.83257 0.38234 0.62557 0.0
N508 N 0.85409 0.3815 0.66197 0.0
O509 O 0.7804 0.37612 0.57029 0.0
H510 H 0.81528 0.40361 0.7562 0.0
H511 H 0.83026 0.37557 0.57822 0.0
O512 O 0.76929 0.38147 0.70905 0.0
C513 C 0.78688 0.38343 0.51444 0.0
O514 O 0.79437 0.40029 0.51553 0.0
N515 N 0.7788 0.41626 0.68538 0.0
C516 C 0.77708 0.44998 0.74284 0.0
C517 C 0.76564 0.4354 0.77523 0.0
C518 C 0.76661 0.41849 0.74534 0.0
C519 C 0.79025 0.43034 0.65397 0.0
C520 C 0.7897 0.4474 0.68206 0.0
H521 H 0.75708 0.40746 0.76988 0.0
H522 H 0.79944 0.42829 0.6061 0.0
H523 H 0.72404 0.39429 0.69988 0.0
H524 H 0.69925 0.41163 0.5103 0.0
H525 H 0.86217 0.39211 0.76034 0.0
H526 H 0.7556 0.43719 0.82214 0.0
H527 H 0.79855 0.45856 0.65601 0.0
C528 C 0.50026 0.06042 0.82558 0.0
C529 C 0.47471 0.05841 0.81702 0.0
N530 N 0.46295 0.07156 0.85119 0.0
N531 N 0.50484 0.07484 0.86471 0.0
C532 C 0.48169 0.08174 0.87736 0.0
H533 H 0.51468 0.05172 0.80533 0.0
Co534 Co 0.53783 0.08223 0.88759 0.0
C535 C 0.50996 0.09261 0.02228 0.0
O536 O 0.48931 0.08305 0.01579 0.0
N537 N 0.57114 0.08961 0.909 0.0
C538 C 0.60543 0.09538 0.96995 0.0
C539 C 0.58125 0.0888 0.9712 0.0
C540 C 0.58995 0.09649 0.87028 0.0
N541 N 0.61085 0.10029 0.90663 0.0
O542 O 0.5323 0.10423 0.8391 0.0
H543 H 0.57173 0.08363 0.01499 0.0
H544 H 0.58848 0.09866 0.81673 0.0
O545 O 0.52703 0.09271 0.97631 0.0
C546 C 0.5366 0.09994 0.77785 0.0
O547 O 0.54401 0.08348 0.76459 0.0
N548 N 0.5441 0.0596 0.92523 0.0
C549 C 0.54897 0.02281 0.94448 0.0
C550 C 0.53149 0.0326 0.98187 0.0
C551 C 0.52913 0.051 0.97088 0.0
C552 C 0.56201 0.05028 0.89053 0.0
C553 C 0.56484 0.03179 0.89949 0.0
H554 H 0.514 0.05778 0.99525 0.0
H555 H 0.573 0.05702 0.85219 0.0
H556 H 0.47848 0.09398 0.9052 0.0
H557 H 0.46538 0.04757 0.7906 0.0
H558 H 0.61811 0.09656 0.0123 0.0
H559 H 0.51868 0.02586 0.01614 0.0
H560 H 0.57829 0.02444 0.86925 0.0
C561 C 0.81724 0.17339 0.79953 0.0
C562 C 0.84284 0.17433 0.78945 0.0
N563 N 0.85355 0.15995 0.81896 0.0
N564 N 0.81158 0.15842 0.83498 0.0
C565 C 0.8341 0.15015 0.84368 0.0
H566 H 0.80358 0.18329 0.7836 0.0
Co567 Co 0.77822 0.15241 0.86099 0.0
C568 C 0.80667 0.13796 0.98924 0.0
O569 O 0.82836 0.14626 0.98235 0.0
N570 N 0.74458 0.1462 0.88672 0.0
C571 C 0.70997 0.14371 0.94999 0.0
C572 C 0.73386 0.15073 0.94603 0.0
C573 C 0.72664 0.13608 0.85591 0.0
N574 N 0.70546 0.13447 0.89346 0.0
O575 O 0.77992 0.13156 0.80494 0.0
H576 H 0.74277 0.15872 0.98442 0.0
H577 H 0.72911 0.12958 0.80798 0.0
O578 O 0.78906 0.13973 0.94531 0.0
C579 C 0.77501 0.13845 0.74714 0.0
O580 O 0.76992 0.15573 0.74406 0.0
N581 N 0.77549 0.17443 0.90489 0.0
C582 C 0.77161 0.21008 0.94294 0.0
C583 C 0.79025 0.19915 0.97081 0.0
C584 C 0.79222 0.18139 0.94987 0.0
C585 C 0.75733 0.18506 0.87707 0.0
C586 C 0.75493 0.20299 0.89574 0.0
H587 H 0.80791 0.17372 0.96733 0.0
H588 H 0.74516 0.17973 0.83837 0.0
H589 H 0.83637 0.13727 0.86811 0.0
H590 H 0.85301 0.1853 0.76585 0.0
H591 H 0.69688 0.14518 0.99135 0.0
H592 H 0.80384 0.20457 0.00601 0.0
H593 H 0.74069 0.21134 0.87244 0.0
C594 C 0.48836 0.16077 0.48209 0.0
C595 C 0.4625 0.16121 0.48405 0.0
N596 N 0.45368 0.15194 0.43109 0.0
N597 N 0.49596 0.15098 0.4288 0.0
C598 C 0.47428 0.1456 0.39907 0.0
H599 H 0.50081 0.16791 0.51568 0.0
Co600 Co 0.52994 0.14871 0.40355 0.0
C601 C 0.52635 0.1339 0.2632 0.0
O602 O 0.53997 0.14746 0.24186 0.0
N603 N 0.56521 0.14637 0.37985 0.0
C604 C 0.60304 0.14982 0.33166 0.0
C605 C 0.57865 0.15586 0.33382 0.0
C606 C 0.58255 0.13475 0.40565 0.0
N607 N 0.60555 0.13654 0.37682 0.0
O608 O 0.5327 0.12894 0.46528 0.0
H609 H 0.57147 0.16652 0.30244 0.0
H610 H 0.57858 0.12496 0.44442 0.0
O611 O 0.52075 0.13245 0.32602 0.0
C612 C 0.53814 0.13599 0.5221 0.0
O613 O 0.54377 0.1532 0.5237 0.0
N614 N 0.52641 0.1698 0.35284 0.0
C615 C 0.51681 0.20412 0.30454 0.0
C616 C 0.50289 0.18953 0.28102 0.0
C617 C 0.5078 0.17248 0.30656 0.0
C618 C 0.53931 0.18412 0.37836 0.0
C619 C 0.53525 0.20143 0.35364 0.0
H620 H 0.49587 0.16166 0.29127 0.0
H621 H 0.55256 0.18209 0.41894 0.0
H622 H 0.47348 0.13794 0.3532 0.0
H623 H 0.45103 0.1688 0.51889 0.0
H624 H 0.61793 0.15486 0.29944 0.0
H625 H 0.48798 0.19139 0.24453 0.0
H626 H 0.5458 0.21265 0.37393 0.0
C627 C 0.81447 0.06799 0.44151 0.0
C628 C 0.84024 0.06629 0.4445 0.0
N629 N 0.85054 0.07814 0.40122 0.0
N630 N 0.80843 0.08106 0.39726 0.0
C631 C 0.8309 0.08703 0.37342 0.0
H632 H 0.80089 0.0599 0.46865 0.0
Co633 Co 0.77493 0.08691 0.37483 0.0
C634 C 0.78546 0.09693 0.22855 0.0
O635 O 0.77598 0.08187 0.20579 0.0
N636 N 0.74062 0.09309 0.3536 0.0
C637 C 0.70442 0.09677 0.29796 0.0
C638 C 0.72858 0.09043 0.29449 0.0
C639 C 0.72259 0.10067 0.39308 0.0
N640 N 0.7006 0.10328 0.35983 0.0
O641 O 0.77802 0.10808 0.42955 0.0
H642 H 0.73605 0.0835 0.25184 0.0
H643 H 0.72523 0.10398 0.44537 0.0
O644 O 0.78639 0.10021 0.29206 0.0
C645 C 0.7746 0.10301 0.49039 0.0
O646 O 0.7681 0.08624 0.50192 0.0
N647 N 0.772 0.06477 0.33032 0.0
C648 C 0.76927 0.02926 0.28931 0.0
C649 C 0.7902 0.0397 0.27249 0.0
C650 C 0.79143 0.05737 0.29458 0.0
C651 C 0.7519 0.0544 0.349 0.0
C652 C 0.74989 0.03664 0.32775 0.0
H653 H 0.8081 0.06511 0.28295 0.0
H654 H 0.73772 0.05968 0.38255 0.0
H655 H 0.83286 0.09712 0.33449 0.0
H656 H 0.85065 0.05654 0.47387 0.0
H657 H 0.69041 0.09625 0.25848 0.0
H658 H 0.80569 0.03408 0.24396 0.0
H659 H 0.73385 0.02856 0.343 0.0
C660 C 0.55609 0.91262 0.20734 0.0
C661 C 0.58195 0.91359 0.2115 0.0
N662 N 0.59179 0.90492 0.1584 0.0
N663 N 0.54944 0.90294 0.15282 0.0
C664 C 0.57176 0.89856 0.12381 0.0
H665 H 0.54306 0.91898 0.24143 0.0
Co666 Co 0.51595 0.89847 0.12428 0.0
C667 C 0.53517 0.86764 0.02348 0.0
O668 O 0.54934 0.85466 0.04733 0.0
N669 N 0.48235 0.89396 0.09457 0.0
C670 C 0.44969 0.89029 0.02526 0.0
C671 C 0.47443 0.89561 0.03027 0.0
C672 C 0.46176 0.88761 0.12768 0.0
N673 N 0.44173 0.8852 0.08649 0.0
O674 O 0.51201 0.88159 0.19734 0.0
H675 H 0.48612 0.89986 0.98864 0.0
H676 H 0.46153 0.8841 0.18021 0.0
O677 O 0.52741 0.87996 0.06292 0.0
C678 C 0.50525 0.89004 0.25035 0.0
O679 O 0.49893 0.90705 0.24442 0.0
N680 N 0.51976 0.91636 0.06012 0.0
C681 C 0.53073 0.94859 0.99688 0.0
C682 C 0.54241 0.93273 0.97563 0.0
C683 C 0.53654 0.91657 0.00803 0.0
C684 C 0.50733 0.93154 0.07868 0.0
C685 C 0.51239 0.94785 0.04722 0.0
H686 H 0.54674 0.90463 0.99434 0.0
H687 H 0.49457 0.93113 0.12107 0.0
H688 H 0.57347 0.89129 0.07726 0.0
H689 H 0.59273 0.92081 0.24893 0.0
H690 H 0.43854 0.88973 0.97979 0.0
H691 H 0.55684 0.93304 0.93712 0.0
H692 H 0.50328 0.95998 0.06489 0.0
C693 C 0.2305 0.82234 0.20517 0.0
C694 C 0.20465 0.82088 0.2074 0.0
N695 N 0.19512 0.82872 0.15201 0.0
N696 N 0.23742 0.83133 0.14912 0.0
C697 C 0.21532 0.83508 0.11771 0.0
H698 H 0.24345 0.81677 0.2415 0.0
Co699 Co 0.27131 0.83564 0.12365 0.0
C700 C 0.26427 0.84727 0.97987 0.0
O701 O 0.27819 0.83383 0.95938 0.0
N702 N 0.30615 0.84032 0.09762 0.0
C703 C 0.34385 0.8385 0.04727 0.0
C704 C 0.31999 0.83152 0.0507 0.0
C705 C 0.32261 0.85291 0.1213 0.0
N706 N 0.34559 0.85193 0.09171 0.0
O707 O 0.27134 0.85639 0.18042 0.0
H708 H 0.31363 0.8204 0.02043 0.0
H709 H 0.31802 0.86274 0.15921 0.0
O710 O 0.25992 0.84955 0.04289 0.0
C711 C 0.27837 0.84975 0.2369 0.0
O712 O 0.28655 0.83309 0.23811 0.0
N713 N 0.27133 0.81355 0.08022 0.0
C714 C 0.27326 0.77847 0.0355 0.0
C715 C 0.25465 0.79006 0.01135 0.0
C716 C 0.25364 0.80756 0.03588 0.0
C717 C 0.28789 0.80179 0.10873 0.0
C718 C 0.28971 0.78425 0.08561 0.0
H719 H 0.23861 0.81618 0.02005 0.0
H720 H 0.3002 0.80623 0.14867 0.0
H721 H 0.21397 0.84171 0.06942 0.0
H722 H 0.19369 0.81389 0.24525 0.0
H723 H 0.35901 0.8339 0.01523 0.0
H724 H 0.24104 0.78557 0.97445 0.0
H725 H 0.3037 0.77527 0.10664 0.0
C726 C 0.55078 0.82757 0.55011 0.0
C727 C 0.57655 0.82595 0.55063 0.0
N728 N 0.58531 0.83303 0.60826 0.0
N729 N 0.54318 0.83621 0.606 0.0
C730 C 0.56469 0.83906 0.64125 0.0
H731 H 0.53832 0.82249 0.51164 0.0
Co732 Co 0.50915 0.84039 0.62596 0.0
C733 C 0.51116 0.86684 0.73856 0.0
O734 O 0.49689 0.87839 0.70634 0.0
N735 N 0.47459 0.84421 0.64617 0.0
C736 C 0.43879 0.8451 0.70484 0.0
C737 C 0.4635 0.83963 0.70498 0.0
C738 C 0.45587 0.85219 0.61054 0.0
N739 N 0.43411 0.85313 0.64573 0.0
O740 O 0.51065 0.8624 0.574 0.0
H741 H 0.47302 0.83322 0.74664 0.0
H742 H 0.458 0.85743 0.56034 0.0
O743 O 0.5181 0.85234 0.70991 0.0
C744 C 0.50603 0.85849 0.5127 0.0
O745 O 0.49907 0.842 0.49819 0.0
N746 N 0.50816 0.81826 0.66928 0.0
C747 C 0.51161 0.78274 0.70994 0.0
C748 C 0.52392 0.79621 0.74619 0.0
C749 C 0.52203 0.81401 0.72487 0.0
C750 C 0.49552 0.80532 0.63456 0.0
C751 C 0.49686 0.78736 0.65438 0.0
H752 H 0.53278 0.8241 0.7512 0.0
H753 H 0.48522 0.80892 0.58965 0.0
H754 H 0.56526 0.84479 0.69105 0.0
H755 H 0.58796 0.81936 0.51292 0.0
H756 H 0.42546 0.84382 0.74579 0.0
H757 H 0.53563 0.79288 0.789 0.0
H758 H 0.48734 0.77711 0.62527 0.0
C759 C 0.22451 0.91123 0.52178 0.0
C760 C 0.19871 0.91138 0.51525 0.0
N761 N 0.18864 0.90225 0.56733 0.0
N762 N 0.23088 0.90165 0.57684 0.0
C763 C 0.20854 0.89592 0.60244 0.0
H764 H 0.23774 0.91827 0.48983 0.0
Co765 Co 0.26439 0.89906 0.60725 0.0
C766 C 0.24149 0.89018 0.74553 0.0
O767 O 0.22687 0.90429 0.74934 0.0
N768 N 0.29827 0.89528 0.63665 0.0
C769 C 0.33063 0.89007 0.70561 0.0
C770 C 0.30598 0.8955 0.70147 0.0
C771 C 0.31903 0.88987 0.60222 0.0
N772 N 0.33874 0.88639 0.64332 0.0
O773 O 0.26569 0.87688 0.55753 0.0
H774 H 0.29433 0.89916 0.74364 0.0
H775 H 0.31968 0.8881 0.54848 0.0
O776 O 0.25406 0.88673 0.69193 0.0
C777 C 0.27184 0.88141 0.49762 0.0
O778 O 0.27793 0.89823 0.48565 0.0
N779 N 0.26344 0.92271 0.64836 0.0
C780 C 0.26231 0.95862 0.6906 0.0
C781 C 0.2401 0.94892 0.68295 0.0
C782 C 0.24106 0.93114 0.66257 0.0
C783 C 0.28521 0.93268 0.65125 0.0
C784 C 0.28519 0.95036 0.67489 0.0
H785 H 0.22316 0.92468 0.6575 0.0
H786 H 0.30288 0.92744 0.63323 0.0
H787 H 0.20663 0.88823 0.64816 0.0
H788 H 0.18808 0.91883 0.47807 0.0
H789 H 0.3416 0.88841 0.75104 0.0
H790 H 0.22197 0.95507 0.69299 0.0
H791 H 0.30276 0.95773 0.67838 0.0
C792 C 0.49394 0.57959 0.28112 0.0
C793 C 0.46809 0.57946 0.28035 0.0
N794 N 0.45986 0.58377 0.34211 0.0
N795 N 0.50226 0.58438 0.34258 0.0
C796 C 0.48088 0.58683 0.37882 0.0
H797 H 0.5059 0.57573 0.23972 0.0
Co798 Co 0.53697 0.58408 0.36248 0.0
C799 C 0.54262 0.59432 0.50554 0.0
O800 O 0.55508 0.57923 0.51299 0.0
N801 N 0.57294 0.58389 0.37963 0.0
C802 C 0.61234 0.57702 0.41018 0.0
C803 C 0.5879 0.57095 0.40627 0.0
C804 C 0.58931 0.59765 0.36742 0.0
N805 N 0.61328 0.59383 0.38543 0.0
O806 O 0.5409 0.60537 0.30898 0.0
H807 H 0.58171 0.55799 0.42433 0.0
H808 H 0.58394 0.61045 0.34605 0.0
O809 O 0.53264 0.59819 0.44815 0.0
C810 C 0.54766 0.60041 0.25018 0.0
O811 O 0.55293 0.58337 0.24007 0.0
N812 N 0.53194 0.56194 0.40499 0.0
C813 C 0.52253 0.52707 0.44698 0.0
C814 C 0.51185 0.5415 0.48138 0.0
C815 C 0.51635 0.55889 0.45857 0.0
C816 C 0.54059 0.54788 0.36778 0.0
C817 C 0.53662 0.53023 0.38884 0.0
H818 H 0.50728 0.56981 0.48424 0.0
H819 H 0.55106 0.55046 0.32211 0.0
H820 H 0.4805 0.58996 0.43149 0.0
H821 H 0.45621 0.5754 0.23886 0.0
H822 H 0.62832 0.56961 0.42954 0.0
H823 H 0.50027 0.5393 0.52551 0.0
H824 H 0.54459 0.5192 0.3605 0.0
C825 C 0.8184 0.6724 0.3269 0.0
C826 C 0.84402 0.67394 0.31716 0.0
N827 N 0.8546 0.65819 0.33414 0.0
N828 N 0.81298 0.65586 0.35139 0.0
C829 C 0.83545 0.64733 0.35296 0.0
H830 H 0.80463 0.68289 0.31903 0.0
Co831 Co 0.78045 0.64784 0.3769 0.0
C832 C 0.81153 0.63129 0.49751 0.0
O833 O 0.83305 0.63974 0.48999 0.0
N834 N 0.74781 0.63957 0.40192 0.0
C835 C 0.71579 0.63119 0.46762 0.0
C836 C 0.73975 0.63812 0.46616 0.0
C837 C 0.72804 0.6335 0.36506 0.0
N838 N 0.70841 0.62824 0.40408 0.0
O839 O 0.78334 0.62856 0.31287 0.0
H840 H 0.75054 0.642 0.50961 0.0
H841 H 0.72803 0.63271 0.31104 0.0
O842 O 0.7933 0.63363 0.45586 0.0
C843 C 0.77915 0.63618 0.25595 0.0
O844 O 0.77366 0.65341 0.25579 0.0
N845 N 0.77659 0.66822 0.43075 0.0
C846 C 0.77278 0.70254 0.48283 0.0
C847 C 0.79387 0.69209 0.49688 0.0
C848 C 0.79555 0.675 0.46956 0.0
C849 C 0.75571 0.67831 0.41749 0.0
C850 C 0.75323 0.69552 0.444 0.0
H851 H 0.81286 0.66783 0.47602 0.0
H852 H 0.74152 0.67344 0.38306 0.0
H853 H 0.83791 0.63353 0.36884 0.0
H854 H 0.8542 0.68585 0.30132 0.0
H855 H 0.7045 0.6286 0.51194 0.0
H856 H 0.80952 0.6975 0.52541 0.0
H857 H 0.73699 0.70363 0.43117 0.0
C858 C 0.4987 0.66445 0.95286 0.0
C859 C 0.47281 0.66448 0.9523 0.0
N860 N 0.46496 0.65508 0.89858 0.0
N861 N 0.50738 0.65489 0.90023 0.0
C862 C 0.48626 0.64925 0.86807 0.0
H863 H 0.51051 0.67151 0.98831 0.0
Co864 Co 0.54218 0.65315 0.88205 0.0
C865 C 0.54528 0.64015 0.74127 0.0
O866 O 0.55943 0.65422 0.72853 0.0
N867 N 0.5783 0.65122 0.86596 0.0
C868 C 0.61788 0.65523 0.82983 0.0
C869 C 0.59387 0.66213 0.83035 0.0
C870 C 0.59399 0.63788 0.88743 0.0
N871 N 0.61811 0.63999 0.86622 0.0
O872 O 0.5437 0.63293 0.9415 0.0
H873 H 0.58835 0.67418 0.80397 0.0
H874 H 0.58798 0.62656 0.91752 0.0
O875 O 0.53623 0.6377 0.80071 0.0
C876 C 0.54929 0.63924 -0.00059 0.0
O877 O 0.55444 0.65645 0.00492 0.0
N878 N 0.53962 0.67465 0.83354 0.0
C879 C 0.53051 0.70943 0.789 0.0
C880 C 0.51885 0.69485 0.75757 0.0
C881 C 0.52308 0.67756 0.78202 0.0
C882 C 0.55034 0.68886 0.86602 0.0
C883 C 0.54636 0.70641 0.84386 0.0
H884 H 0.51232 0.66667 0.76117 0.0
H885 H 0.56166 0.68652 0.91034 0.0
H886 H 0.48635 0.64157 0.82223 0.0
H887 H 0.46063 0.67166 0.98664 0.0
H888 H 0.63408 0.66103 0.80466 0.0
H889 H 0.50579 0.69693 0.71647 0.0
H890 H 0.55508 0.71754 0.87012 0.0
C891 C 0.82464 0.56608 0.95907 0.0
C892 C 0.85051 0.56489 0.96118 0.0
N893 N 0.86013 0.57603 0.91429 0.0
N894 N 0.81782 0.57812 0.91167 0.0
C895 C 0.83995 0.58397 0.88508 0.0
H896 H 0.81154 0.55838 0.98931 0.0
Co897 Co 0.78394 0.58331 0.88914 0.0
C898 C 0.79371 0.59015 0.74003 0.0
O899 O 0.78447 0.57456 0.72189 0.0
N900 N 0.74936 0.58896 0.86649 0.0
C901 C 0.71368 0.59146 0.80755 0.0
C902 C 0.73739 0.58426 0.80911 0.0
C903 C 0.7316 0.59861 0.90024 0.0
N904 N 0.7099 0.60055 0.86475 0.0
O905 O 0.78706 0.6056 0.93731 0.0
H906 H 0.74472 0.57553 0.77108 0.0
H907 H 0.73432 0.60406 0.94988 0.0
O908 O 0.79482 0.5947 0.80237 0.0
C909 C 0.78343 0.60134 0.99896 0.0
O910 O 0.77693 0.58472 0.01327 0.0
N911 N 0.78089 0.56018 0.8525 0.0
C912 C 0.77709 0.52384 0.82354 0.0
C913 C 0.79794 0.5337 0.80139 0.0
C914 C 0.79977 0.55182 0.81775 0.0
C915 C 0.76112 0.55039 0.87716 0.0
C916 C 0.75858 0.53222 0.86214 0.0
H917 H 0.8164 0.55916 0.8024 0.0
H918 H 0.74753 0.55657 0.91029 0.0
H919 H 0.84132 0.59336 0.84365 0.0
H920 H 0.86145 0.55601 0.9929 0.0
H921 H 0.69996 0.58987 0.76774 0.0
H922 H 0.81283 0.52734 0.77282 0.0
H923 H 0.74266 0.52468 0.88156 0.0
C924 C 0.5624 0.42055 0.70962 0.0
C925 C 0.5881 0.42196 0.7169 0.0
N926 N 0.59888 0.40771 0.68681 0.0
N927 N 0.55678 0.40543 0.67533 0.0
C928 C 0.57945 0.39756 0.6644 0.0
H929 H 0.54865 0.43034 0.72583 0.0
Co930 Co 0.52339 0.39901 0.65062 0.0
C931 C 0.55091 0.38326 0.52391 0.0
O932 O 0.57172 0.39276 0.52459 0.0
N933 N 0.49 0.39213 0.6261 0.0
C934 C 0.45664 0.38681 0.56082 0.0
C935 C 0.48083 0.39336 0.56281 0.0
C936 C 0.47092 0.3844 0.66147 0.0
N937 N 0.45046 0.38117 0.62275 0.0
O938 O 0.52509 0.37917 0.71221 0.0
H939 H 0.49115 0.39869 0.52034 0.0
H940 H 0.47205 0.38077 0.71381 0.0
O941 O 0.53422 0.38486 0.57028 0.0
C942 C 0.52054 0.38666 0.76904 0.0
O943 O 0.5158 0.404 0.76961 0.0
N944 N 0.52063 0.42026 0.59939 0.0
C945 C 0.51644 0.45449 0.54474 0.0
C946 C 0.53773 0.44409 0.532 0.0
C947 C 0.53967 0.42715 0.56097 0.0
C948 C 0.49996 0.43054 0.61331 0.0
C949 C 0.49726 0.44764 0.58547 0.0
H950 H 0.55728 0.42036 0.55636 0.0
H951 H 0.48584 0.42577 0.64829 0.0
H952 H 0.58185 0.38479 0.63949 0.0
H953 H 0.59822 0.4332 0.73847 0.0
H954 H 0.44452 0.38608 0.51717 0.0
H955 H 0.55334 0.44946 0.50303 0.0
H956 H 0.48099 0.45574 0.59804 0.0
C957 C 0.24251 0.31249 0.70323 0.0
C958 C 0.21698 0.31057 0.71306 0.0
N959 N 0.20509 0.32383 0.67957 0.0
N960 N 0.24694 0.32704 0.66434 0.0
C961 C 0.22376 0.33404 0.6529 0.0
H962 H 0.257 0.30365 0.72231 0.0
Co963 Co 0.27982 0.3344 0.63966 0.0
C964 C 0.25135 0.34661 0.50827 0.0
O965 O 0.23024 0.33752 0.51343 0.0
N966 N 0.31303 0.34186 0.61639 0.0
C967 C 0.34663 0.34846 0.55357 0.0
C968 C 0.32219 0.34239 0.55301 0.0
C969 C 0.33266 0.34744 0.65491 0.0
N970 N 0.35315 0.3517 0.6175 0.0
O971 O 0.27524 0.35572 0.69149 0.0
H972 H 0.31188 0.33845 0.50882 0.0
H973 H 0.33211 0.34826 0.70908 0.0
O974 O 0.2684 0.34585 0.55396 0.0
C975 C 0.28039 0.35053 0.75124 0.0
O976 O 0.28793 0.3339 0.76079 0.0
N977 N 0.28512 0.3124 0.59711 0.0
C978 C 0.29123 0.27694 0.55883 0.0
C979 C 0.27094 0.28689 0.53463 0.0
C980 C 0.26795 0.30453 0.55553 0.0
C981 C 0.3052 0.30281 0.6206 0.0
C982 C 0.30873 0.28497 0.60167 0.0
H983 H 0.25093 0.31123 0.54202 0.0
H984 H 0.31785 0.30872 0.65695 0.0
H985 H 0.22048 0.34643 0.62589 0.0
H986 H 0.20775 0.29969 0.73974 0.0
H987 H 0.35875 0.35039 0.51035 0.0
H988 H 0.25671 0.28071 0.50316 0.0
H989 H 0.32425 0.27732 0.62236 0.0
C990 C 0.5549 0.31137 0.07935 0.0
C991 C 0.58031 0.30937 0.06782 0.0
N992 N 0.59249 0.32329 0.09641 0.0
N993 N 0.55093 0.32655 0.11475 0.0
C994 C 0.57416 0.33383 0.12223 0.0
H995 H 0.54018 0.30221 0.06371 0.0
Co996 Co 0.51874 0.33479 0.14046 0.0
C997 C 0.54908 0.34675 0.26924 0.0
O998 O 0.56986 0.33743 0.26182 0.0
N999 N 0.48623 0.3432 0.16513 0.0
C1000 C 0.45362 0.35055 0.23009 0.0
C1001 C 0.4778 0.34403 0.22917 0.0
C1002 C 0.46648 0.34913 0.12777 0.0
N1003 N 0.44649 0.35379 0.16648 0.0
O1004 O 0.52434 0.35585 0.08694 0.0
H1005 H 0.48841 0.33987 0.27286 0.0
H1006 H 0.46662 0.34992 0.0735 0.0
O1007 O 0.53144 0.34615 0.22507 0.0
C1008 C 0.51972 0.35091 0.02659 0.0
O1009 O 0.5115 0.33448 0.0162 0.0
N1010 N 0.51249 0.31302 0.18498 0.0
C1011 C 0.50554 0.2777 0.22593 0.0
C1012 C 0.52634 0.28748 0.2482 0.0
C1013 C 0.52972 0.30502 0.22596 0.0
C1014 C 0.49176 0.3037 0.16388 0.0
C1015 C 0.48784 0.28593 0.18404 0.0
H1016 H 0.54728 0.31139 0.23681 0.0
H1017 H 0.47893 0.30972 0.12819 0.0
H1018 H 0.5777 0.34662 0.14616 0.0
H1019 H 0.5893 0.29812 0.0431 0.0
H1020 H 0.44198 0.35262 0.27409 0.0
H1021 H 0.54078 0.28117 0.27862 0.0
H1022 H 0.47191 0.27843 0.16471 0.0
C1023 C 0.23248 0.40705 0.03707 0.0
C1024 C 0.20659 0.40733 0.03595 0.0
N1025 N 0.19806 0.40142 0.09576 0.0
N1026 N 0.24048 0.40055 0.09671 0.0
C1027 C 0.21893 0.39714 0.13127 0.0
H1028 H 0.24463 0.4118 0.99724 0.0
Co1029 Co 0.27473 0.39853 0.12171 0.0
C1030 C 0.27048 0.38686 0.26579 0.0
O1031 O 0.28458 0.40049 0.28385 0.0
N1032 N 0.31006 0.39622 0.14615 0.0
C1033 C 0.34811 0.40058 0.19198 0.0
C1034 C 0.32375 0.40667 0.18837 0.0
C1035 C 0.32713 0.38379 0.12479 0.0
N1036 N 0.35029 0.38619 0.15197 0.0
O1037 O 0.27703 0.37756 0.06706 0.0
H1038 H 0.31678 0.4181 0.21596 0.0
H1039 H 0.32289 0.37302 0.09025 0.0
O1040 O 0.26518 0.38431 0.20351 0.0
C1041 C 0.28334 0.38411 0.00991 0.0
O1042 O 0.28974 0.40118 0.00681 0.0
N1043 N 0.27211 0.42076 0.16417 0.0
C1044 C 0.26667 0.4563 0.20208 0.0
C1045 C 0.252 0.44299 0.23241 0.0
C1046 C 0.25465 0.42528 0.21148 0.0
C1047 C 0.28543 0.43384 0.13157 0.0
C1048 C 0.28339 0.45175 0.15071 0.0
H1049 H 0.24225 0.4154 0.23198 0.0
H1050 H 0.29777 0.43028 0.09046 0.0
H1051 H 0.21839 0.39216 0.18221 0.0
H1052 H 0.19489 0.41248 0.99576 0.0
H1053 H 0.36321 0.40634 0.22153 0.0
H1054 H 0.23837 0.44633 0.27097 0.0
H1055 H 0.29454 0.46195 0.1255 0.0
C1056 C 0.04398 0.11328 0.58106 0.0
C1057 C 1.02344 0.11528 0.53579 0.0
C1058 C 0.99431 0.11718 0.63225 0.0
C1059 C 1.01473 0.11389 0.67685 0.0
N1060 N 0.05755 0.10414 0.69218 0.0
N1061 N 0.97871 0.11746 0.51736 0.0
C1062 C 0.03917 0.11067 0.65072 0.0
C1063 C 0.99847 0.11668 0.56124 0.0
N1064 N 0.06821 0.11397 0.55792 0.0
N1065 N 0.97114 0.12142 0.65763 0.0
H1066 H 0.98118 0.11861 0.46552 0.0
H1067 H 0.95993 0.11616 0.53181 0.0
H1068 H 0.96705 0.1211 0.70878 0.0
H1069 H 0.95629 0.12615 0.62845 0.0
H1070 H 0.08384 0.1146 0.58947 0.0
H1071 H 0.07282 0.11559 0.50748 0.0
H1072 H 0.07501 0.09968 0.6751 0.0
H1073 H 0.05444 0.10143 0.74299 0.0
C1074 C 0.28124 0.10212 0.57208 0.0
C1075 C 0.29361 0.11884 0.5647 0.0
C1076 C 0.31337 0.11505 0.67551 0.0
C1077 C 0.30105 0.09823 0.68329 0.0
N1078 N 0.27956 0.0734 0.62824 0.0
N1079 N 0.32791 0.13794 0.59776 0.0
C1080 C 0.28712 0.09095 0.6281 0.0
C1081 C 0.31166 0.12431 0.61302 0.0
N1082 N 0.26288 0.09727 0.52747 0.0
N1083 N 0.32675 0.12225 0.72757 0.0
H1084 H 0.32849 0.14361 0.55 0.0
H1085 H 0.34282 0.14183 0.62848 0.0
H1086 H 0.33008 0.11539 0.77238 0.0
H1087 H 0.33343 0.13543 0.7276 0.0
H1088 H 0.25066 0.08649 0.53533 0.0
H1089 H 0.25883 0.10472 0.48436 0.0
H1090 H 0.27167 0.0671 0.58657 0.0
H1091 H 0.28348 0.06451 0.66687 0.0
C1092 C 1.01597 0.87986 0.36717 0.0
C1093 C 0.03287 0.87313 0.41659 0.0
C1094 C 0.0463 0.84972 0.33766 0.0
C1095 C 0.0266 0.85463 0.2932 0.0
N1096 N 0.99112 0.87356 0.26766 0.0
N1097 N 0.0629 0.85068 0.45113 0.0
C1098 C 1.01105 0.86954 0.3084 0.0
C1099 C 0.04779 0.85781 0.40229 0.0
N1100 N 1.00552 0.8965 0.37466 0.0
N1101 N 0.06404 0.83766 0.31713 0.0
H1102 H 0.06444 0.85624 0.49903 0.0
H1103 H 0.07221 0.83845 0.44616 0.0
H1104 H 0.06413 0.83246 0.26868 0.0
H1105 H 0.08012 0.83455 0.34469 0.0
H1106 H 0.99509 0.90286 0.33726 0.0
H1107 H 1.00926 0.90466 0.41588 0.0
H1108 H 0.97726 0.88285 0.2804 0.0
H1109 H 0.98771 0.86682 0.22268 0.0
C1110 C 0.75967 0.84812 0.38404 0.0
C1111 C 0.74332 0.85645 0.43133 0.0
C1112 C 0.73387 0.8798 0.34824 0.0
C1113 C 0.75366 0.87345 0.30669 0.0
N1114 N 0.78666 0.85197 0.28655 0.0
N1115 N 0.71593 0.88106 0.46014 0.0
C1116 C 0.76682 0.85762 0.32476 0.0
C1117 C 0.73061 0.8725 0.41374 0.0
N1118 N 0.76752 0.83087 0.39418 0.0
N1119 N 0.71764 0.89242 0.32399 0.0
H1120 H 0.713 0.87607 0.50856 0.0
H1121 H 0.7084 0.89383 0.45252 0.0
H1122 H 0.7184 0.89669 0.27432 0.0
H1123 H 0.70162 0.89669 0.34963 0.0
H1124 H 0.77741 0.82351 0.35837 0.0
H1125 H 0.76214 0.82336 0.43598 0.0
H1126 H 0.79893 0.84181 0.30165 0.0
H1127 H 0.79165 0.85815 0.2413 0.0
C1128 C 0.05773 0.61795 0.12669 0.0
C1129 C 0.03724 0.61379 0.17008 0.0
C1130 C 1.00833 0.61354 0.07334 0.0
C1131 C 0.02915 0.6161 0.02953 0.0
N1132 N 0.07363 0.62073 0.0126 0.0
N1133 N 0.99357 0.60603 0.18571 0.0
C1134 C 0.05385 0.61833 0.05583 0.0
C1135 C 1.01263 0.61126 0.14364 0.0
N1136 N 0.08072 0.62218 0.15352 0.0
N1137 N 0.98444 0.61343 0.04762 0.0
H1138 H 0.99624 0.60399 0.23706 0.0
H1139 H 0.97567 0.60231 0.1696 0.0
H1140 H 0.98072 0.61494 0.99651 0.0
H1141 H 0.96819 0.61331 0.07688 0.0
H1142 H 0.09568 0.62747 0.12602 0.0
H1143 H 0.08458 0.62132 0.20472 0.0
H1144 H 0.09247 0.62023 0.02687 0.0
H1145 H 0.07121 0.62258 0.96106 0.0
C1146 C 0.28553 0.61002 0.05796 0.0
C1147 C 0.29998 0.62545 0.04185 0.0
C1148 C 0.32171 0.62342 0.15048 0.0
C1149 C 0.30759 0.60779 0.16619 0.0
N1150 N 0.28142 0.58338 0.12692 0.0
N1151 N 0.33651 0.64369 0.0635 0.0
C1152 C 0.29108 0.60022 0.11753 0.0
C1153 C 0.31954 0.63118 0.08537 0.0
N1154 N 0.26589 0.60509 0.01759 0.0
N1155 N 0.33664 0.63116 0.19836 0.0
H1156 H 0.33623 0.64858 0.01456 0.0
H1157 H 0.35246 0.64747 0.09046 0.0
H1158 H 0.33886 0.62573 0.24638 0.0
H1159 H 0.34525 0.64365 0.19236 0.0
H1160 H 0.25261 0.5954 0.0311 0.0
H1161 H 0.26211 0.61144 0.97194 0.0
H1162 H 0.27146 0.57641 0.09016 0.0
H1163 H 0.2852 0.57575 0.1695 0.0
C1164 C 1.02237 0.37966 0.90435 0.0
C1165 C 0.03972 0.37339 0.95357 0.0
C1166 C 0.0533 0.34971 0.87585 0.0
C1167 C 0.03363 0.35443 0.83095 0.0
N1168 N 0.99746 0.37273 0.80551 0.0
N1169 N 0.06975 0.35109 0.98939 0.0
C1170 C 1.01763 0.36912 0.846 0.0
C1171 C 0.0547 0.35804 0.94007 0.0
N1172 N 1.01138 0.39612 0.91143 0.0
N1173 N 0.07108 0.33758 0.85622 0.0
H1174 H 0.07108 0.35674 0.03719 0.0
H1175 H 0.07911 0.33886 0.98508 0.0
H1176 H 0.07112 0.33194 0.80845 0.0
H1177 H 0.08722 0.3347 0.88394 0.0
H1178 H 1.00058 0.4022 0.87411 0.0
H1179 H 1.01508 0.40447 0.95201 0.0
H1180 H 0.98333 0.38181 0.81824 0.0
H1181 H 0.99404 0.3658 0.76093 0.0
C1182 C 0.73804 0.36292 0.90122 0.0
C1183 C 0.75766 0.36659 0.94784 0.0
C1184 C 0.78858 0.36641 0.85596 0.0
C1185 C 0.76884 0.36411 0.80847 0.0
N1186 N 0.72445 0.36198 0.78464 0.0
N1187 N 0.80021 0.37649 0.96738 0.0
C1188 C 0.74344 0.36295 0.83084 0.0
C1189 C 0.78254 0.36963 0.92448 0.0
N1190 N 0.71444 0.35878 0.92414 0.0
N1191 N 0.81318 0.36536 0.83609 0.0
H1192 H 0.79624 0.37948 0.01748 0.0
H1193 H 0.81797 0.38082 0.95191 0.0
H1194 H 0.81863 0.36304 0.78667 0.0
H1195 H 0.82821 0.36505 0.86973 0.0
H1196 H 0.70013 0.3538 0.89365 0.0
H1197 H 0.70946 0.35944 0.97468 0.0
H1198 H 0.70546 0.36342 0.79669 0.0
H1199 H 0.72782 0.36059 0.73327 0.0
C1200 C 0.53528 0.10622 0.19512 0.0
C1201 C 0.51862 0.12041 0.21179 0.0
C1202 C 0.49761 0.11702 0.1025 0.0
C1203 C 0.5137 0.10246 0.08664 0.0
N1204 N 0.54288 0.07997 0.12633 0.0
N1205 N 0.47931 0.1353 0.19019 0.0
C1206 C 0.53114 0.09609 0.13542 0.0
C1207 C 0.49836 0.12458 0.16805 0.0
N1208 N 0.55547 0.10273 0.23554 0.0
N1209 N 0.48202 0.12398 0.0544 0.0
H1210 H 0.47839 0.13953 0.23976 0.0
H1211 H 0.46297 0.13782 0.16283 0.0
H1212 H 0.48098 0.11883 0.00577 0.0
H1213 H 0.47183 0.1358 0.06085 0.0
H1214 H 0.57006 0.09411 0.22205 0.0
H1215 H 0.55815 0.10926 0.28129 0.0
H1216 H 0.55388 0.07381 0.16307 0.0
H1217 H 0.53975 0.07195 0.08437 0.0
C1218 C 0.81409 0.10457 0.13369 0.0
C1219 C 0.79431 0.10995 0.17712 0.0
C1220 C 0.78495 0.13522 0.10193 0.0
C1221 C 0.80198 0.12816 0.05347 0.0
N1222 N 0.83175 0.1053 0.02122 0.0
N1223 N 0.75937 0.12958 0.20075 0.0
C1224 C 0.81646 0.11268 0.06908 0.0
C1225 C 0.77944 0.12516 0.16107 0.0
N1226 N 0.83076 0.09179 0.15496 0.0
N1227 N 0.7749 0.15193 0.0931 0.0
H1228 H 0.75544 0.1231 0.24606 0.0
H1229 H 0.74582 0.139 0.18685 0.0
H1230 H 0.77907 0.15991 0.05164 0.0
H1231 H 0.76446 0.15856 0.12975 0.0
H1232 H 0.84698 0.08832 0.12859 0.0
H1233 H 0.82963 0.08594 0.20258 0.0
H1234 H 0.84076 0.09298 0.02698 0.0
H1235 H 0.83384 0.11079 0.97325 0.0
C1236 C 0.50415 0.86444 0.92888 0.0
C1237 C 0.52906 0.86816 0.95037 0.0
C1238 C 0.54231 0.8718 0.83231 0.0
C1239 C 0.51696 0.86929 0.81139 0.0
N1240 N 0.47288 0.86703 0.84109 0.0
N1241 N 0.57179 0.87672 0.9239 0.0
C1242 C 0.49761 0.86684 0.86011 0.0
C1243 C 0.54817 0.87217 0.90236 0.0
N1244 N 0.48701 0.85764 0.97361 0.0
N1245 N 0.56078 0.87378 0.78492 0.0
H1246 H 0.57703 0.87645 0.97431 0.0
H1247 H 0.58587 0.88175 0.89267 0.0
H1248 H 0.55687 0.8752 0.73382 0.0
H1249 H 0.57998 0.87336 0.79544 0.0
H1250 H 0.46945 0.85263 0.95957 0.0
H1251 H 0.4911 0.85563 0.02434 0.0
H1252 H 0.45798 0.86712 0.87518 0.0
H1253 H 0.46714 0.86896 0.79166 0.0
C1254 C 0.25917 0.88773 0.86259 0.0
C1255 C 0.24602 0.87967 0.8079 0.0
C1256 C 0.23852 0.85283 0.87654 0.0
C1257 C 0.25456 0.85978 0.92743 0.0
N1258 N 0.28234 0.8832 0.96636 0.0
N1259 N 0.22493 0.85399 0.76029 0.0
C1260 C 0.26524 0.87717 0.92021 0.0
C1261 C 0.23626 0.86203 0.81411 0.0
N1262 N 0.26601 0.90545 0.85953 0.0
N1263 N 0.2246 0.83776 0.88913 0.0
H1264 H 0.22197 0.86057 0.71465 0.0
H1265 H 0.22009 0.84042 0.75921 0.0
H1266 H 0.22464 0.83149 0.93581 0.0
H1267 H 0.21087 0.83279 0.85674 0.0
H1268 H 0.27279 0.91258 0.9007 0.0
H1269 H 0.2635 0.91346 0.81703 0.0
H1270 H 0.29333 0.89467 0.95943 0.0
H1271 H 0.2868 0.87611 0.00997 0.0
C1272 C 0.56553 0.61909 0.66085 0.0
C1273 C 0.54298 0.62662 0.68651 0.0
C1274 C 0.51929 0.61245 0.59444 0.0
C1275 C 0.54225 0.60675 0.5645 0.0
N1276 N 0.58783 0.6072 0.56501 0.0
N1277 N 0.49875 0.63278 0.67179 0.0
C1278 C 0.56552 0.61076 0.59674 0.0
C1279 C 0.51992 0.6239 0.6518 0.0
N1280 N 0.58706 0.61968 0.69848 0.0
N1281 N 0.49685 0.60624 0.57047 0.0
H1282 H 0.49838 0.64095 0.71397 0.0
H1283 H 0.48218 0.63309 0.64378 0.0
H1284 H 0.49572 0.59756 0.52989 0.0
H1285 H 0.47968 0.6083 0.59463 0.0
H1286 H 0.60337 0.61262 0.68649 0.0
H1287 H 0.58788 0.62591 0.74523 0.0
H1288 H 0.60524 0.61174 0.58224 0.0
H1289 H 0.58891 0.60123 0.5179 0.0
C1290 C 0.81933 0.59651 0.63739 0.0
C1291 C 0.80128 0.60252 0.68499 0.0
C1292 C 0.79235 0.62858 0.6136 0.0
C1293 C 0.80745 0.62114 0.56143 0.0
N1294 N 0.83414 0.59724 0.52192 0.0
N1295 N 0.76807 0.62319 0.71455 0.0
C1296 C 0.82075 0.60491 0.57303 0.0
C1297 C 0.78721 0.61833 0.67234 0.0
N1298 N 0.83546 0.58295 0.65455 0.0
N1299 N 0.78381 0.6458 0.60878 0.0
H1300 H 0.764 0.61644 0.75917 0.0
H1301 H 0.75506 0.63318 0.70281 0.0
H1302 H 0.78732 0.65382 0.56722 0.0
H1303 H 0.77528 0.65262 0.64838 0.0
H1304 H 0.85058 0.57897 0.6248 0.0
H1305 H 0.83519 0.57687 0.70187 0.0
H1306 H 0.84207 0.58447 0.52491 0.0
H1307 H 0.83563 0.60305 0.47432 0.0
C1308 C 0.54621 0.34553 0.39545 0.0
C1309 C 0.54476 0.35579 0.33503 0.0
C1310 C 0.53906 0.3831 0.40203 0.0
C1311 C 0.545 0.37327 0.46127 0.0
N1312 N 0.55499 0.34523 0.51517 0.0
N1313 N 0.54094 0.38461 0.28036 0.0
C1314 C 0.54852 0.35446 0.45833 0.0
C1315 C 0.5411 0.37464 0.33815 0.0
N1316 N 0.54455 0.32722 0.3929 0.0
N1317 N 0.53113 0.4005 0.40709 0.0
H1318 H 0.54222 0.37893 0.23266 0.0
H1319 H 0.54136 0.39861 0.27969 0.0
H1320 H 0.52907 0.40691 0.45315 0.0
H1321 H 0.52415 0.40791 0.36677 0.0
H1322 H 0.54303 0.31907 0.43532 0.0
H1323 H 0.54203 0.32027 0.34816 0.0
H1324 H 0.56094 0.3319 0.51498 0.0
H1325 H 0.55583 0.35126 0.5624 0.0
C1326 C 0.27185 0.34892 0.39416 0.0
C1327 C 0.25609 0.35646 0.44458 0.0
C1328 C 0.24339 0.38002 0.36577 0.0
C1329 C 0.26212 0.37429 0.31969 0.0
N1330 N 0.29542 0.35377 0.29119 0.0
N1331 N 0.22863 0.38027 0.481 0.0
C1332 C 0.27662 0.35879 0.33407 0.0
C1333 C 0.24235 0.37233 0.43108 0.0
N1334 N 0.28145 0.33204 0.40234 0.0
N1335 N 0.22574 0.3922 0.34587 0.0
H1336 H 0.22732 0.37494 0.52943 0.0
H1337 H 0.2204 0.39291 0.47609 0.0
H1338 H 0.22451 0.39644 0.29634 0.0
H1339 H 0.21039 0.39596 0.37524 0.0
H1340 H 0.29083 0.32509 0.36449 0.0
H1341 H 0.27826 0.32438 0.4453 0.0
H1342 H 0.30879 0.34402 0.30293 0.0
H1343 H 0.29836 0.36007 0.24499 0.0
C1344 C 0.13174 0.12282 0.38516 0.0
C1345 C 0.13047 0.10378 0.38956 0.0
C1346 C 0.17671 0.10256 0.39902 0.0
C1347 C 0.17796 0.12153 0.39254 0.0
N1348 N 0.15756 0.14898 0.36019 0.0
N1349 N 0.1519 0.07545 0.38245 0.0
C1350 C 0.15568 0.13138 0.37908 0.0
C1351 C 0.1531 0.09364 0.39048 0.0
N1352 N 0.11035 0.13283 0.39146 0.0
N1353 N 0.19769 0.09317 0.41731 0.0
H1354 H 0.13487 0.06873 0.37448 0.0
H1355 H 0.16778 0.06737 0.37689 0.0
H1356 H 0.21511 0.09929 0.42508 0.0
H1357 H 0.19735 0.07957 0.42985 0.0
H1358 H 0.1105 0.14679 0.39576 0.0
H1359 H 0.09261 0.12716 0.39863 0.0
H1360 H 0.14221 0.15656 0.34403 0.0
H1361 H 0.17495 0.15536 0.35396 0.0
C1362 C 0.13984 0.10121 0.83322 0.0
C1363 C 0.13156 0.11727 0.86438 0.0
C1364 C 0.17229 0.11966 0.92177 0.0
C1365 C 0.18201 0.10583 0.8805 0.0
N1366 N 0.17549 0.08347 0.79536 0.0
N1367 N 0.14013 0.14244 0.93666 0.0
C1368 C 0.16577 0.09632 0.83671 0.0
C1369 C 0.14766 0.12649 0.9095 0.0
N1370 N 0.12275 0.09071 0.8003 0.0
N1371 N 0.18711 0.12644 0.9717 0.0
H1372 H 0.12248 0.14802 0.92747 0.0
H1373 H 0.15198 0.15078 0.96433 0.0
H1374 H 0.20519 0.12148 0.98088 0.0
H1375 H 0.18075 0.13558 0.00737 0.0
H1376 H 0.12699 0.0781 0.78079 0.0
H1377 H 0.10363 0.09398 0.79835 0.0
H1378 H 0.1653 0.07747 0.75673 0.0
H1379 H 0.19431 0.07953 0.79739 0.0
C1380 C 0.86727 0.87628 0.62188 0.0
C1381 C 0.86356 0.85741 0.62084 0.0
C1382 C 0.9093 0.85263 0.61879 0.0
C1383 C 0.91293 0.87148 0.61608 0.0
N1384 N 0.89682 0.90125 0.63088 0.0
N1385 N 0.87997 0.82764 0.63307 0.0
C1386 C 0.89226 0.88329 0.62349 0.0
C1387 C 0.88438 0.8456 0.6248 0.0
N1388 N 0.84688 0.88736 0.61683 0.0
N1389 N 0.92963 0.84157 0.61167 0.0
H1390 H 0.86173 0.82245 0.6371 0.0
H1391 H 0.89406 0.81816 0.64089 0.0
H1392 H 0.94801 0.84651 0.60839 0.0
H1393 H 0.92837 0.82769 0.60648 0.0
H1394 H 0.84813 0.90123 0.61046 0.0
H1395 H 0.82846 0.88248 0.6158 0.0
H1396 H 0.88293 0.91068 0.64148 0.0
H1397 H 0.9151 0.90647 0.63163 0.0
C1398 C 0.8936 0.84535 0.10224 0.0
C1399 C 0.91668 0.85469 0.1118 0.0
C1400 C 0.89293 0.88296 0.11327 0.0
C1401 C 0.86994 0.87327 0.11907 0.0
N1402 N 0.84902 0.84451 0.12758 0.0
N1403 N 0.93782 0.88282 0.13424 0.0
C1404 C 0.87033 0.85424 0.11484 0.0
C1405 C 0.91632 0.87368 0.11846 0.0
N1406 N 0.89404 0.82794 0.08097 0.0
N1407 N 0.89231 0.90106 0.10221 0.0
H1408 H 0.95514 0.87655 0.14097 0.0
H1409 H 0.93796 0.89643 0.14657 0.0
H1410 H 0.87541 0.908 0.09552 0.0
H1411 H 0.9084 0.90867 0.0922 0.0
H1412 H 0.87782 0.82082 0.06803 0.0
H1413 H 0.91085 0.8214 0.06914 0.0
H1414 H 0.84898 0.83053 0.13159 0.0
H1415 H 0.83193 0.85038 0.14073 0.0
C1416 C 0.18687 0.60428 0.87958 0.0
C1417 C 0.18775 0.62289 0.86399 0.0
C1418 C 0.14152 0.6234 0.8556 0.0
C1419 C 0.14063 0.60466 0.86925 0.0
N1420 N 0.16265 0.57655 0.87613 0.0
N1421 N 0.16686 0.64871 0.81798 0.0
C1422 C 0.16346 0.59488 0.87522 0.0
C1423 C 0.1653 0.63192 0.84545 0.0
N1424 N 0.20797 0.59581 0.90246 0.0
N1425 N 0.11994 0.63334 0.85706 0.0
H1426 H 0.18415 0.65497 0.80876 0.0
H1427 H 0.15139 0.65547 0.79805 0.0
H1428 H 0.10231 0.62782 0.86722 0.0
H1429 H 0.11985 0.64733 0.85442 0.0
H1430 H 0.20784 0.58278 0.92179 0.0
H1431 H 0.2253 0.60227 0.90685 0.0
H1432 H 0.1787 0.56852 0.87466 0.0
H1433 H 0.14577 0.56943 0.87138 0.0
C1434 C 0.15725 0.63925 0.37925 0.0
C1435 C 0.13612 0.62905 0.35839 0.0
C1436 C 0.16343 0.60274 0.34334 0.0
C1437 C 0.18487 0.61372 0.35363 0.0
N1438 N 0.20276 0.64273 0.37668 0.0
N1439 N 0.11904 0.60136 0.31536 0.0
C1440 C 0.18194 0.63202 0.37154 0.0
C1441 C 0.1391 0.61074 0.3401 0.0
N1442 N 0.15349 0.65591 0.40593 0.0
N1443 N 0.16661 0.58465 0.33594 0.0
H1444 H 0.10107 0.60684 0.31178 0.0
H1445 H 0.1205 0.58865 0.29399 0.0
H1446 H 0.18437 0.57865 0.33807 0.0
H1447 H 0.15173 0.57551 0.33384 0.0
H1448 H 0.16776 0.66357 0.42754 0.0
H1449 H 0.13548 0.66133 0.41159 0.0
H1450 H 0.20196 0.6566 0.38316 0.0
H1451 H 0.22095 0.63782 0.36966 0.0
C1452 C 0.90002 0.38548 0.14836 0.0
C1453 C 0.92153 0.37482 0.13553 0.0
C1454 C 0.8946 0.34804 0.12832 0.0
C1455 C 0.873 0.35918 0.12965 0.0
N1456 N 0.85476 0.38869 0.13635 0.0
N1457 N 0.93989 0.34605 0.1117 0.0
C1458 C 0.87555 0.37795 0.13983 0.0
C1459 C 0.91905 0.35602 0.12638 0.0
N1460 N 0.90326 0.40293 0.16766 0.0
N1461 N 0.89146 0.32983 0.12818 0.0
H1462 H 0.95797 0.35157 0.11053 0.0
H1463 H 0.93921 0.33262 0.09725 0.0
H1464 H 0.87362 0.32388 0.12942 0.0
H1465 H 0.90625 0.32073 0.13249 0.0
H1466 H 0.88856 0.41118 0.18323 0.0
H1467 H 0.92115 0.40856 0.17385 0.0
H1468 H 0.85555 0.40267 0.13648 0.0
H1469 H 0.83669 0.3836 0.12843 0.0
C1470 C 0.92391 0.37357 0.64993 0.0
C1471 C 0.9248 0.35472 0.63939 0.0
C1472 C 0.87851 0.35364 0.63756 0.0
C1473 C 0.8776 0.37256 0.64614 0.0
N1474 N 0.89921 0.40093 0.64118 0.0
N1475 N 0.90349 0.32794 0.60338 0.0
C1476 C 0.90032 0.38264 0.64586 0.0
C1477 C 0.90218 0.34517 0.6264 0.0
N1478 N 0.94518 0.38267 0.66819 0.0
N1479 N 0.85712 0.34359 0.64475 0.0
H1480 H 0.92068 0.32168 0.59342 0.0
H1481 H 0.88776 0.32068 0.5876 0.0
H1482 H 0.83966 0.34918 0.6561 0.0
H1483 H 0.85716 0.32959 0.64574 0.0
H1484 H 0.94506 0.39603 0.6837 0.0
H1485 H 0.96267 0.37652 0.67315 0.0
H1486 H 0.91509 0.40902 0.63488 0.0
H1487 H 0.88215 0.40778 0.63655 0.0
C1488 C 0.63603 0.12724 0.87647 0.0
C1489 C 0.63436 0.10837 0.88546 0.0
C1490 C 0.68056 0.10625 0.8865 0.0
C1491 C 0.68219 0.12516 0.87862 0.0
N1492 N 0.66245 0.15303 0.84944 0.0
N1493 N 0.65413 0.07946 0.88392 0.0
C1494 C 0.66011 0.1354 0.86759 0.0
C1495 C 0.65646 0.09773 0.885 0.0
N1496 N 0.61475 0.13744 0.88127 0.0
N1497 N 0.70192 0.09666 0.89955 0.0
H1498 H 0.63655 0.07313 0.88295 0.0
H1499 H 0.66929 0.07073 0.87829 0.0
H1500 H 0.71974 0.10258 0.90057 0.0
H1501 H 0.7019 0.08313 0.91298 0.0
H1502 H 0.61485 0.15143 0.882 0.0
H1503 H 0.59699 0.13182 0.88925 0.0
H1504 H 0.6473 0.16105 0.83518 0.0
H1505 H 0.68003 0.15913 0.8429 0.0
C1506 C 0.65504 0.09997 0.38043 0.0
C1507 C 0.67702 0.11078 0.38301 0.0
C1508 C 0.65063 0.13698 0.40742 0.0
C1509 C 0.62878 0.12697 0.39048 0.0
N1510 N 0.6103 0.09871 0.35719 0.0
N1511 N 0.69582 0.1401 0.39406 0.0
C1512 C 0.6309 0.10828 0.37729 0.0
C1513 C 0.67491 0.12941 0.39655 0.0
N1514 N 0.65748 0.08171 0.3803 0.0
N1515 N 0.64796 0.1538 0.43361 0.0
H1516 H 0.71373 0.13508 0.38391 0.0
H1517 H 0.6951 0.15407 0.39668 0.0
H1518 H 0.63027 0.15936 0.44317 0.0
H1519 H 0.66301 0.16132 0.45209 0.0
H1520 H 0.64225 0.07292 0.38403 0.0
H1521 H 0.67507 0.07549 0.3833 0.0
H1522 H 0.61128 0.08558 0.33931 0.0
H1523 H 0.59241 0.10428 0.35382 0.0
C1524 C 0.38967 0.85233 0.13056 0.0
C1525 C 0.36849 0.86182 0.10585 0.0
C1526 C 0.3953 0.88838 0.08864 0.0
C1527 C 0.41704 0.87785 0.1017 0.0
N1528 N 0.43507 0.849 0.12846 0.0
N1529 N 0.35106 0.88867 0.05738 0.0
C1530 C 0.41429 0.85966 0.12205 0.0
C1531 C 0.37119 0.87993 0.08474 0.0
N1532 N 0.38604 0.83618 0.16184 0.0
N1533 N 0.39788 0.90651 0.08037 0.0
H1534 H 0.33325 0.88281 0.054 0.0
H1535 H 0.3524 0.9012 0.03417 0.0
H1536 H 0.41532 0.91294 0.08431 0.0
H1537 H 0.38266 0.91526 0.07615 0.0
H1538 H 0.40035 0.82918 0.18623 0.0
H1539 H 0.36807 0.83075 0.16902 0.0
H1540 H 0.43409 0.83517 0.1363 0.0
H1541 H 0.45333 0.85366 0.12012 0.0
C1542 C 0.40888 0.88103 0.63625 0.0
C1543 C 0.41092 0.86214 0.62843 0.0
C1544 C 0.36496 0.85964 0.61906 0.0
C1545 C 0.36286 0.8785 0.62745 0.0
N1546 N 0.38223 0.90759 0.63011 0.0
N1547 N 0.39226 0.83407 0.59703 0.0
C1548 C 0.38477 0.88934 0.63101 0.0
C1549 C 0.38929 0.85169 0.61429 0.0
N1550 N 0.42978 0.8908 0.6527 0.0
N1551 N 0.34372 0.84925 0.62039 0.0
H1552 H 0.41003 0.82812 0.5938 0.0
H1553 H 0.37758 0.82591 0.58041 0.0
H1554 H 0.32573 0.85469 0.62533 0.0
H1555 H 0.34397 0.83526 0.62126 0.0
H1556 H 0.42931 0.9043 0.66626 0.0
H1557 H 0.44764 0.88507 0.65646 0.0
H1558 H 0.39736 0.91649 0.62716 0.0
H1559 H 0.36462 0.91378 0.62676 0.0
C1560 C 0.6384 0.62181 0.40729 0.0
C1561 C 0.63595 0.60459 0.377 0.0
C1562 C 0.68151 0.60428 0.35419 0.0
C1563 C 0.68394 0.62136 0.38478 0.0
N1564 N 0.66417 0.64858 0.42135 0.0
N1565 N 0.65342 0.58277 0.30142 0.0
C1566 C 0.6621 0.63084 0.40493 0.0
C1567 C 0.65703 0.59693 0.34381 0.0
N1568 N 0.6187 0.62918 0.44154 0.0
N1569 N 0.70252 0.59457 0.33877 0.0
H1570 H 0.6355 0.57772 0.29083 0.0
H1571 H 0.66767 0.57747 0.27141 0.0
H1572 H 0.72072 0.59937 0.3468 0.0
H1573 H 0.70185 0.58123 0.32301 0.0
H1574 H 0.62045 0.64053 0.47173 0.0
H1575 H 0.60089 0.6234 0.44354 0.0
H1576 H 0.64872 0.65682 0.43076 0.0
H1577 H 0.68132 0.65546 0.41859 0.0
C1578 C 0.64066 0.61024 0.86709 0.0
C1579 C 0.64027 0.62905 0.88019 0.0
C1580 C 0.68643 0.62869 0.89267 0.0
C1581 C 0.68671 0.60988 0.88147 0.0
N1582 N 0.66343 0.58218 0.88048 0.0
N1583 N 0.66182 0.65422 0.92986 0.0
C1584 C 0.66351 0.6005 0.8764 0.0
C1585 C 0.6629 0.63761 0.90108 0.0
N1586 N 0.61997 0.60178 0.84149 0.0
N1587 N 0.70832 0.63832 0.89063 0.0
H1588 H 0.64472 0.6606 0.93981 0.0
H1589 H 0.6775 0.66054 0.95079 0.0
H1590 H 0.72573 0.63247 0.88083 0.0
H1591 H 0.70879 0.65232 0.89221 0.0
H1592 H 0.62034 0.58858 0.82416 0.0
H1593 H 0.60305 0.60826 0.83186 0.0
H1594 H 0.64694 0.57457 0.88279 0.0
H1595 H 0.67989 0.57487 0.88911 0.0
C1596 C 0.4232 0.35441 0.6369 0.0
C1597 C 0.42651 0.37327 0.64092 0.0
C1598 C 0.38067 0.37749 0.64558 0.0
C1599 C 0.37732 0.35869 0.63838 0.0
N1600 N 0.3943 0.32891 0.64123 0.0
N1601 N 0.40966 0.40245 0.66381 0.0
C1602 C 0.39837 0.34703 0.63924 0.0
C1603 C 0.40553 0.38468 0.65076 0.0
N1604 N 0.4438 0.34376 0.62713 0.0
N1605 N 0.36009 0.38845 0.64309 0.0
H1606 H 0.42781 0.40783 0.66697 0.0
H1607 H 0.3955 0.41148 0.67649 0.0
H1608 H 0.34179 0.38343 0.63944 0.0
H1609 H 0.36108 0.40242 0.64136 0.0
H1610 H 0.44285 0.33006 0.61698 0.0
H1611 H 0.46209 0.34893 0.62667 0.0
H1612 H 0.40855 0.31942 0.64652 0.0
H1613 H 0.37616 0.32345 0.64255 0.0
C1614 C 0.39463 0.38562 0.11414 0.0
C1615 C 0.37342 0.37632 0.14034 0.0
C1616 C 0.40031 0.35004 0.16119 0.0
C1617 C 0.42198 0.36053 0.14696 0.0
N1618 N 0.44008 0.38899 0.11553 0.0
N1619 N 0.35613 0.3498 0.19251 0.0
C1620 C 0.41924 0.37844 0.12375 0.0
C1621 C 0.37617 0.3584 0.1638 0.0
N1622 N 0.39103 0.40136 0.08021 0.0
N1623 N 0.40304 0.33205 0.17253 0.0
H1624 H 0.33833 0.35557 0.19538 0.0
H1625 H 0.35754 0.33752 0.21743 0.0
H1626 H 0.42058 0.32575 0.17023 0.0
H1627 H 0.3879 0.32321 0.17778 0.0
H1628 H 0.4054 0.40814 0.05494 0.0
H1629 H 0.37307 0.40661 0.07181 0.0
H1630 H 0.43924 0.40271 0.10513 0.0
H1631 H 0.45823 0.3843 0.12471 0.0
C1632 C 0.98718 0.98272 0.47401 0.0
C1633 C 1.00168 0.97441 0.52502 0.0
C1634 C 1.02523 0.00227 0.54376 0.0
C1635 C 1.01075 0.01057 0.49268 0.0
N1636 N 0.97461 0.01048 0.41936 0.0
N1637 N 0.03027 0.97679 0.61872 0.0
C1638 C 0.99057 0.00134 0.46111 0.0
C1639 C 1.01933 0.98441 0.56338 0.0
N1640 N 0.971 0.97262 0.43618 0.0
N1641 N 0.04525 0.0112 0.57133 0.0
H1642 H 0.0265 0.96364 0.63417 0.0
H1643 H 0.0414 0.98388 0.65262 0.0
H1644 H 0.04971 0.02449 0.5594 0.0
H1645 H 0.0584 0.00516 0.60289 0.0
H1646 H 0.96209 0.97736 0.39311 0.0
H1647 H 0.96753 0.95904 0.44576 0.0
H1648 H 0.95811 0.005 0.39986 0.0
H1649 H 0.97677 0.02412 0.40844 0.0
C1650 C 0.27558 0.22737 0.56694 0.0
C1651 C 0.28654 0.22167 0.50574 0.0
C1652 C 0.30543 0.25133 0.4881 0.0
C1653 C 0.29208 0.25754 0.54505 0.0
N1654 N 0.26397 0.25234 0.63851 0.0
N1655 N 0.31137 0.22755 0.40645 0.0
C1656 C 0.27721 0.24576 0.58492 0.0
C1657 C 0.30153 0.23343 0.46604 0.0
N1658 N 0.26389 0.21514 0.60796 0.0
N1659 N 0.32188 0.26259 0.45569 0.0
H1660 H 0.30973 0.2143 0.38994 0.0
H1661 H 0.32007 0.2359 0.3714 0.0
H1662 H 0.32476 0.2759 0.47019 0.0
H1663 H 0.33404 0.25851 0.41768 0.0
H1664 H 0.25788 0.21798 0.65655 0.0
H1665 H 0.26166 0.20163 0.59524 0.0
H1666 H 0.25032 0.24506 0.66451 0.0
H1667 H 0.26571 0.26555 0.65538 0.0
C1668 C 0.04908 0.24279 0.68798 0.0
C1669 C 0.02949 0.25298 0.71804 0.0
C1670 C 1.01522 0.22666 0.78167 0.0
C1671 C 0.03417 0.21631 0.74958 0.0
N1672 N 0.06706 0.21333 0.66696 0.0
N1673 N 0.99222 0.25479 0.78703 0.0
C1674 C 0.05054 0.22404 0.70119 0.0
C1675 C 1.01204 0.24495 0.76303 0.0
N1676 N 0.06646 0.25115 0.64773 0.0
N1677 N 1.00071 0.21906 0.83111 0.0
H1678 H 0.98994 0.26846 0.77703 0.0
H1679 H 0.97716 0.2493 0.81361 0.0
H1680 H 1.00175 0.2055 0.84432 0.0
H1681 H 0.98861 0.22629 0.86201 0.0
H1682 H 0.08285 0.24504 0.6305 0.0
H1683 H 0.06531 0.26468 0.63425 0.0
H1684 H 0.07767 0.21763 0.62598 0.0
H1685 H 0.06905 0.19962 0.67676 0.0
C1686 C 0.27084 -0.00841 0.67312 0.0
C1687 C 0.26109 0.97751 0.71377 0.0
C1688 C 0.24423 -0.00032 0.79185 0.0
C1689 C 0.25784 0.01336 0.75799 0.0
N1690 N 0.28874 0.02141 0.67342 0.0
N1691 N 0.24316 0.96815 0.82013 0.0
C1692 C 0.27237 0.00914 0.70022 0.0
C1693 C 0.24899 0.98153 0.77552 0.0
N1694 N 0.27797 0.98842 0.60828 0.0
N1695 N 0.22671 0.00404 0.83939 0.0
H1696 H 0.24771 0.95469 0.81197 0.0
H1697 H 0.23636 0.97068 0.8683 0.0
H1698 H 0.2223 0.01734 0.85116 0.0
H1699 H 0.21481 -0.00544 0.86154 0.0
H1700 H 0.28306 -0.00131 0.57519 0.0
H1701 H 0.27619 0.97587 0.58549 0.0
H1702 H 0.30142 0.01823 0.63526 0.0
H1703 H 0.29159 0.03413 0.6938 0.0
C1704 C 0.76206 0.72685 0.56383 0.0
C1705 C 0.77277 0.72161 0.50178 0.0
C1706 C 0.78614 0.75246 0.47849 0.0
C1707 C 0.77366 0.75792 0.53787 0.0
N1708 N 0.74763 0.75128 0.63432 0.0
N1709 N 0.79266 0.72902 0.39607 0.0
C1710 C 0.76106 0.74538 0.57999 0.0
C1711 C 0.78421 0.7343 0.45794 0.0
N1712 N 0.75339 0.71406 0.60768 0.0
N1713 N 0.80016 0.76461 0.44262 0.0
H1714 H 0.79223 0.7157 0.3798 0.0
H1715 H 0.79855 0.73792 0.35881 0.0
H1716 H 0.8015 0.77816 0.45551 0.0
H1717 H 0.81197 0.76111 0.403 0.0
H1718 H 0.74792 0.7168 0.6568 0.0
H1719 H 0.75321 0.70036 0.59646 0.0
H1720 H 0.73566 0.74312 0.66248 0.0
H1721 H 0.74719 0.76472 0.64913 0.0
C1722 C 0.04082 0.72358 0.20398 0.0
C1723 C 1.02077 0.71584 0.24132 0.0
C1724 C 0.99886 0.74473 0.24422 0.0
C1725 C 1.01818 0.7522 0.20346 0.0
N1726 N 0.05517 0.74835 0.1344 0.0
N1727 N 0.97895 0.71776 0.28807 0.0
C1728 C 0.03852 0.74151 0.18039 0.0
C1729 C 0.9992 0.72604 0.25867 0.0
N1730 N 0.06234 0.71393 0.19275 0.0
N1731 N 0.98075 0.75563 0.27102 0.0
H1732 H 0.97874 0.70411 0.30026 0.0
H1733 H 0.96164 0.72401 0.2955 0.0
H1734 H 0.97989 0.76942 0.26144 0.0
H1735 H 0.96775 0.75137 0.30689 0.0
H1736 H 0.07877 0.71951 0.17302 0.0
H1737 H 0.06441 0.70054 0.20741 0.0
H1738 H 0.06877 0.74063 0.11022 0.0
H1739 H 0.05416 0.76148 0.11606 0.0
C1740 C 0.78344 0.9795 0.28638 0.0
C1741 C 0.76973 0.97429 0.22858 0.0
C1742 C 0.7558 0.0052 0.21011 0.0
C1743 C 0.76849 0.01023 0.26976 0.0
N1744 N 0.79111 0.00233 0.37063 0.0
N1745 N 0.73996 0.98099 0.1405 0.0
C1746 C 0.78136 -0.00259 0.30975 0.0
C1747 C 0.75499 0.9868 0.19191 0.0
N1748 N 0.79891 0.96741 0.31774 0.0
N1749 N 0.74525 0.0181 0.16994 0.0
H1750 H 0.73943 0.96766 0.12445 0.0
H1751 H 0.72666 0.98906 0.11669 0.0
H1752 H 0.74495 0.0317 0.18261 0.0
H1753 H 0.73827 0.01558 0.12203 0.0
H1754 H 0.81163 0.97088 0.35533 0.0
H1755 H 0.80031 0.95398 0.30317 0.0
H1756 H 0.79834 -0.00676 0.40542 0.0
H1757 H 0.79028 0.01545 0.38892 0.0
C1758 C 0.03704 0.48745 0.07584 0.0
C1759 C 1.01709 0.47737 0.0468 0.0
C1760 C 1.00468 0.50306 0.97762 0.0
C1761 C 1.02492 0.51303 0.00574 0.0
N1762 N 0.05745 0.51649 0.08902 0.0
N1763 N 0.97937 0.47581 0.97982 0.0
C1764 C 0.04017 0.50577 0.05743 0.0
C1765 C 1.00002 0.4853 0.00084 0.0
N1766 N 0.05339 0.47929 0.11941 0.0
N1767 N 0.9905 0.51046 0.92727 0.0
H1768 H 0.97587 0.46256 0.99437 0.0
H1769 H 0.96479 0.48129 0.95158 0.0
H1770 H 0.9926 0.52375 0.91127 0.0
H1771 H 0.97737 0.50335 0.89903 0.0
H1772 H 0.07008 0.48511 0.13612 0.0
H1773 H 0.0509 0.46618 0.13695 0.0
H1774 H 0.06747 0.51266 0.13159 0.0
H1775 H 0.06063 0.52985 0.07544 0.0
C1776 C 0.29615 0.73898 0.93317 0.0
C1777 C 0.28138 0.725 0.96156 0.0
C1778 C 0.26194 0.74597 0.04033 0.0
C1779 C 0.2755 0.76013 0.00903 0.0
N1780 N 0.30313 0.77107 0.92171 0.0
N1781 N 0.24844 0.71483 0.03624 0.0
C1782 C 0.29197 0.75691 0.95428 0.0
C1783 C 0.26376 0.72838 0.01359 0.0
N1784 N 0.31443 0.735 0.88706 0.0
N1785 N 0.24784 0.74933 0.0965 0.0
H1786 H 0.24992 0.70158 0.01971 0.0
H1787 H 0.23322 0.71683 0.06836 0.0
H1788 H 0.24537 0.76219 0.11613 0.0
H1789 H 0.23984 0.73931 0.1263 0.0
H1790 H 0.32771 0.74424 0.86984 0.0
H1791 H 0.31753 0.72203 0.86903 0.0
H1792 H 0.31314 0.76985 0.87699 0.0
H1793 H 0.30098 0.7844 0.93687 0.0
C1794 C 0.25064 0.50583 0.20208 0.0
C1795 C 0.26353 0.51137 0.26076 0.0
C1796 C 0.27802 0.48073 0.28174 0.0
C1797 C 0.26454 0.47507 0.22413 0.0
N1798 N 0.23429 0.48096 0.13652 0.0
N1799 N 0.28514 0.50414 0.36394 0.0
C1800 C 0.24964 0.48725 0.18641 0.0
C1801 C 0.27583 0.49879 0.30308 0.0
N1802 N 0.24016 0.51838 0.16037 0.0
N1803 N 0.29368 0.46901 0.31435 0.0
H1804 H 0.28417 0.51738 0.3809 0.0
H1805 H 0.29193 0.49526 0.40011 0.0
H1806 H 0.29548 0.45553 0.30088 0.0
H1807 H 0.30626 0.47287 0.35173 0.0
H1808 H 0.23304 0.51542 0.11294 0.0
H1809 H 0.23992 0.53208 0.17149 0.0
H1810 H 0.22108 0.48888 0.11167 0.0
H1811 H 0.23332 0.46741 0.12338 0.0
C1812 C 0.78784 0.2413 0.92744 0.0
C1813 C 0.77082 0.22933 0.95977 0.0
C1814 C 0.75512 0.25349 0.03136 0.0
C1815 C 0.77216 0.26545 0.99906 0.0
N1816 N 0.80187 0.27209 0.9108 0.0
N1817 N 0.73593 0.22384 0.03473 0.0
C1818 C 0.78765 0.25976 0.94521 0.0
C1819 C 0.75367 0.2354 0.00934 0.0
N1820 N 0.80455 0.23487 0.88095 0.0
N1821 N 0.74084 0.25941 0.08418 0.0
H1822 H 0.735 0.21029 0.02168 0.0
H1823 H 0.72113 0.22776 0.06565 0.0
H1824 H 0.7404 0.27281 0.09945 0.0
H1825 H 0.73024 0.25103 0.11518 0.0
H1826 H 0.81945 0.24231 0.86125 0.0
H1827 H 0.80434 0.22162 0.86388 0.0
H1828 H 0.8116 0.26929 0.86669 0.0
H1829 H 0.80273 0.28565 0.92394 0.0
C1830 C 0.79052 0.49215 0.84325 0.0
C1831 C 0.77514 0.50454 0.80795 0.0
C1832 C 0.75709 0.48018 0.74139 0.0
C1833 C 0.77489 0.46827 0.7702 0.0
N1834 N 0.80984 0.46265 0.84462 0.0
N1835 N 0.74541 0.5111 0.71958 0.0
C1836 C 0.79187 0.47412 0.82053 0.0
C1837 C 0.75867 0.49876 0.75629 0.0
N1838 N 0.80344 0.49758 0.89907 0.0
N1839 N 0.73853 0.47364 0.70046 0.0
H1840 H 0.74591 0.52487 0.72935 0.0
H1841 H 0.73536 0.5079 0.67633 0.0
H1842 H 0.73693 0.46005 0.68825 0.0
H1843 H 0.72347 0.48134 0.68337 0.0
H1844 H 0.81295 0.48879 0.93089 0.0
H1845 H 0.8029 0.51074 0.91699 0.0
H1846 H 0.82462 0.4667 0.87547 0.0
H1847 H 0.81098 0.4492 0.83028 0.0
C1848 C 0.56314 -0.00594 0.99691 0.0
C1849 C 0.54845 0.00297 0.94786 0.0
C1850 C 0.52782 0.97461 0.91771 0.0
C1851 C 0.53963 0.96638 0.97352 0.0
N1852 N 0.56841 0.96766 0.06713 0.0
N1853 N 0.5169 0.00239 0.86068 0.0
C1854 C 0.5576 0.97586 0.01279 0.0
C1855 C 0.53106 -0.00663 0.90719 0.0
N1856 N 0.58227 0.00309 0.02823 0.0
N1857 N 0.51347 0.96444 0.87522 0.0
H1858 H 0.51949 0.01599 0.84973 0.0
H1859 H 0.50179 -0.00329 0.83506 0.0
H1860 H 0.51054 0.95069 0.88255 0.0
H1861 H 0.50614 0.96917 0.83008 0.0
H1862 H 0.59527 -0.00301 0.06004 0.0
H1863 H 0.58644 0.01654 0.01814 0.0
H1864 H 0.57934 0.97433 0.1026 0.0
H1865 H 0.56539 0.95416 0.0789 0.0
C1866 C 0.52233 0.22833 0.21881 0.0
C1867 C 0.51129 0.2224 0.27985 0.0
C1868 C 0.49127 0.25173 0.29603 0.0
C1869 C 0.50467 0.25821 0.23938 0.0
N1870 N 0.53273 0.25342 0.14573 0.0
N1871 N 0.48497 0.22756 0.3767 0.0
C1872 C 0.51989 0.24664 0.19987 0.0
C1873 C 0.49544 0.23381 0.31825 0.0
N1874 N 0.53501 0.21639 0.17905 0.0
N1875 N 0.47456 0.26277 0.32808 0.0
H1876 H 0.48663 0.21425 0.39267 0.0
H1877 H 0.47544 0.23557 0.41104 0.0
H1878 H 0.47147 0.27605 0.31329 0.0
H1879 H 0.4625 0.25862 0.3663 0.0
H1880 H 0.54119 0.21926 0.13058 0.0
H1881 H 0.53813 0.20304 0.19275 0.0
H1882 H 0.54664 0.24645 0.11978 0.0
H1883 H 0.53025 0.2665 0.12793 0.0
C1884 C 0.54221 0.7368 0.72277 0.0
C1885 C 0.5251 0.72798 0.76666 0.0
C1886 C 0.49905 0.75508 0.77349 0.0
C1887 C 0.51566 0.76368 0.72771 0.0
N1888 N 0.55097 0.76259 0.65143 0.0
N1889 N 0.48592 0.72742 0.82823 0.0
C1890 C 0.53666 0.75448 0.70016 0.0
C1891 C 0.50307 0.73674 0.79028 0.0
N1892 N 0.56398 0.72836 0.70392 0.0
N1893 N 0.47994 0.76468 0.80237 0.0
H1894 H 0.48883 0.71426 0.84455 0.0
H1895 H 0.46812 0.73225 0.84049 0.0
H1896 H 0.476 0.778 0.78962 0.0
H1897 H 0.46887 0.75993 0.84176 0.0
H1898 H 0.57868 0.7347 0.67857 0.0
H1899 H 0.56812 0.7151 0.71702 0.0
H1900 H 0.56488 0.75604 0.62403 0.0
H1901 H 0.54786 0.77571 0.63482 0.0
C1902 C 0.53459 0.50338 0.52944 0.0
C1903 C 0.51978 0.50867 0.47359 0.0
C1904 C 0.50227 0.47834 0.46435 0.0
C1905 C 0.51603 0.47338 0.52245 0.0
N1906 N 0.54106 0.48173 0.61866 0.0
N1907 N 0.48637 0.50261 0.39477 0.0
C1908 C 0.53089 0.4861 0.55765 0.0
C1909 C 0.50263 0.49657 0.443 0.0
N1910 N 0.55287 0.5146 0.55381 0.0
N1911 N 0.48958 0.46554 0.42854 0.0
H1912 H 0.48626 0.51589 0.37776 0.0
H1913 H 0.47169 0.4949 0.37542 0.0
H1914 H 0.48852 0.45212 0.44364 0.0
H1915 H 0.48155 0.46792 0.38168 0.0
H1916 H 0.56615 0.51067 0.58936 0.0
H1917 H 0.55619 0.52745 0.53461 0.0
H1918 H 0.5498 0.49104 0.64997 0.0
H1919 H 0.53882 0.46912 0.64098 0.0
C1920 C 0.91524 0.06283 0.3504 0.0
C1921 C 0.92922 0.07905 0.35361 0.0
C1922 C 0.89125 0.09472 0.39317 0.0
C1923 C 0.87683 0.07893 0.38211 0.0
N1924 N 0.87421 0.04926 0.33462 0.0
N1925 N 0.92972 0.11118 0.36789 0.0
C1926 C 0.8886 0.06334 0.3562 0.0
C1927 C 0.91701 0.09525 0.37241 0.0
N1928 N 0.92755 0.04681 0.34439 0.0
N1929 N 0.88055 0.10896 0.42546 0.0
H1930 H 0.94834 0.11202 0.35143 0.0
H1931 H 0.92116 0.12363 0.37485 0.0
H1932 H 0.86188 0.10881 0.4419 0.0
H1933 H 0.89072 0.12021 0.44086 0.0
H1934 H 0.91845 0.03441 0.34774 0.0
H1935 H 0.94716 0.04592 0.34374 0.0
H1936 H 0.8817 0.03817 0.30982 0.0
H1937 H 0.85456 0.04963 0.33474 0.0
C1938 C 0.4144 0.13594 0.39812 0.0
C1939 C 0.42805 0.15217 0.4067 0.0
C1940 C 0.38966 0.16938 0.38541 0.0
C1941 C 0.37662 0.15334 0.3691 0.0
N1942 N 0.37787 0.12148 0.34842 0.0
N1943 N 0.43017 0.1842 0.38908 0.0
C1944 C 0.38936 0.13659 0.37223 0.0
C1945 C 0.41611 0.16888 0.39449 0.0
N1946 N 0.42503 0.12001 0.41691 0.0
N1947 N 0.37666 0.18495 0.39566 0.0
H1948 H 0.44982 0.18412 0.39095 0.0
H1949 H 0.42252 0.19653 0.37478 0.0
H1950 H 0.35703 0.18554 0.39463 0.0
H1951 H 0.38518 0.19668 0.41313 0.0
H1952 H 0.41514 0.1079 0.41785 0.0
H1953 H 0.44312 0.11922 0.43713 0.0
H1954 H 0.38703 0.10917 0.3438 0.0
H1955 H 0.35986 0.12168 0.32745 0.0
C1956 C 0.9206 0.17082 0.86594 0.0
C1957 C 0.93254 0.15391 0.85919 0.0
C1958 C 0.89279 0.14148 0.8159 0.0
C1959 C 0.88018 0.15765 0.83292 0.0
N1960 N 0.88168 0.18581 0.89295 0.0
N1961 N 0.9285 0.12209 0.83842 0.0
C1962 C 0.89398 0.17183 0.86317 0.0
C1963 C 0.91826 0.1389 0.83677 0.0
N1964 N 0.93475 0.18603 0.87326 0.0
N1965 N 0.88072 0.12885 0.77816 0.0
H1966 H 0.94662 0.11958 0.85614 0.0
H1967 H 0.91813 0.11049 0.8284 0.0
H1968 H 0.86249 0.13078 0.7602 0.0
H1969 H 0.88966 0.11748 0.75923 0.0
H1970 H 0.92691 0.19887 0.87328 0.0
H1971 H 0.9544 0.18588 0.871 0.0
H1972 H 0.89103 0.19574 0.9202 0.0
H1973 H 0.86213 0.18621 0.89788 0.0
C1974 C 0.39647 0.08899 0.87774 0.0
C1975 C 0.38349 0.07269 0.89234 0.0
C1976 C 0.42375 0.05674 0.89094 0.0
C1977 C 0.43623 0.07233 0.86657 0.0
N1978 N 0.43297 0.10261 0.82429 0.0
N1979 N 0.38456 0.04028 0.89249 0.0
C1980 C 0.42216 0.08832 0.85631 0.0
C1981 C 0.39708 0.05632 0.89276 0.0
N1982 N 0.38483 0.10511 0.88747 0.0
N1983 N 0.43729 0.04264 0.91583 0.0
H1984 H 0.36499 0.03943 0.88863 0.0
H1985 H 0.39378 0.02799 0.88766 0.0
H1986 H 0.45681 0.0431 0.92154 0.0
H1987 H 0.42882 0.03155 0.93876 0.0
H1988 H 0.39418 0.11739 0.88299 0.0
H1989 H 0.36667 0.10615 0.90707 0.0
H1990 H 0.42288 0.11403 0.81031 0.0
H1991 H 0.45135 0.10225 0.80576 0.0
C1992 C 0.14933 0.88712 0.60777 0.0
C1993 C 0.16263 0.90298 0.58938 0.0
C1994 C 0.12349 0.92003 0.5976 0.0
C1995 C 0.11092 0.90492 0.62547 0.0
N1996 N 0.11377 0.87477 0.66939 0.0
N1997 N 0.1633 0.93547 0.59101 0.0
C1998 C 0.12438 0.88859 0.63413 0.0
C1999 C 0.15001 0.91974 0.59154 0.0
N2000 N 0.16006 0.87069 0.59783 0.0
N2001 N 0.11017 0.93431 0.57337 0.0
H2002 H 0.18291 0.93587 0.59355 0.0
H2003 H 0.1547 0.94795 0.5972 0.0
H2004 H 0.09057 0.93428 0.56996 0.0
H2005 H 0.11878 0.94505 0.54844 0.0
H2006 H 0.15034 0.85865 0.60505 0.0
H2007 H 0.17779 0.86917 0.57597 0.0
H2008 H 0.12358 0.86311 0.68197 0.0
H2009 H 0.09608 0.87578 0.6919 0.0
C2010 C 0.65055 0.84584 0.67041 0.0
C2011 C 0.6635 0.82946 0.65867 0.0
C2012 C 0.62338 0.81504 0.63083 0.0
C2013 C 0.61108 0.8319 0.63182 0.0
N2014 N 0.61407 0.8641 0.64323 0.0
N2015 N 0.6626 0.79989 0.60887 0.0
C2016 C 0.62492 0.84756 0.64943 0.0
C2017 C 0.65 0.81441 0.63375 0.0
N2018 N 0.66247 0.85951 0.70315 0.0
N2019 N 0.60955 0.79956 0.62861 0.0
H2020 H 0.68215 0.79959 0.60387 0.0
H2021 H 0.65347 0.7892 0.58534 0.0
H2022 H 0.58989 0.79957 0.63065 0.0
H2023 H 0.61763 0.78685 0.63297 0.0
H2024 H 0.6533 0.87119 0.71838 0.0
H2025 H 0.68091 0.85838 0.72076 0.0
H2026 H 0.62404 0.87606 0.64933 0.0
H2027 H 0.59569 0.86586 0.62608 0.0
C2028 C 0.15493 0.84401 0.12156 0.0
C2029 C 0.16907 0.828 0.13032 0.0
C2030 C 0.13065 0.8102 0.11331 0.0
C2031 C 0.11707 0.82601 0.09704 0.0
N2032 N 0.11727 0.85783 0.07521 0.0
N2033 N 0.17152 0.79587 0.11821 0.0
C2034 C 0.12948 0.84293 0.09838 0.0
C2035 C 0.15722 0.81108 0.12149 0.0
N2036 N 0.16555 0.86016 0.13763 0.0
N2037 N 0.11799 0.79444 0.12364 0.0
H2038 H 0.19116 0.79618 0.12032 0.0
H2039 H 0.16411 0.78332 0.1059 0.0
H2040 H 0.09838 0.79356 0.12174 0.0
H2041 H 0.12667 0.78281 0.14141 0.0
H2042 H 0.1555 0.87217 0.13854 0.0
H2043 H 0.18394 0.86128 0.15563 0.0
H2044 H 0.12606 0.87025 0.06882 0.0
H2045 H 0.09888 0.85736 0.05688 0.0
C2046 C 0.65801 0.92083 0.12382 0.0
C2047 C 0.67026 0.90458 0.10661 0.0
C2048 C 0.63097 0.88809 0.1298 0.0
C2049 C 0.61811 0.90464 0.13876 0.0
N2050 N 0.61852 0.93689 0.12723 0.0
N2051 N 0.66755 0.87293 0.08319 0.0
C2052 C 0.63142 0.92106 0.13095 0.0
C2053 C 0.6565 0.88821 0.10691 0.0
N2054 N 0.67193 0.93594 0.13588 0.0
N2055 N 0.61913 0.87233 0.14557 0.0
H2056 H 0.68602 0.87273 0.06531 0.0
H2057 H 0.65776 0.86094 0.07598 0.0
H2058 H 0.60077 0.87188 0.16422 0.0
H2059 H 0.62824 0.85994 0.14601 0.0
H2060 H 0.66411 0.94779 0.15425 0.0
H2061 H 0.69159 0.93596 0.13496 0.0
H2062 H 0.6271 0.94911 0.11541 0.0
H2063 H 0.59891 0.93744 0.12828 0.0
C2064 C 0.92566 0.59445 0.87954 0.0
C2065 C 0.93866 0.57837 0.86332 0.0
C2066 C 0.89898 0.56153 0.87207 0.0
C2067 C 0.88639 0.57718 0.89456 0.0
N2068 N 0.88867 0.60794 0.93096 0.0
N2069 N 0.93886 0.54604 0.86126 0.0
C2070 C 0.90001 0.59352 0.90146 0.0
C2071 C 0.92561 0.56173 0.86471 0.0
N2072 N 0.93749 0.61063 0.87148 0.0
N2073 N 0.88532 0.54666 0.85497 0.0
H2074 H 0.9585 0.54577 0.85931 0.0
H2075 H 0.9306 0.53344 0.86795 0.0
H2076 H 0.86567 0.5464 0.85633 0.0
H2077 H 0.89329 0.53537 0.83254 0.0
H2078 H 0.92831 0.62292 0.87617 0.0
H2079 H 0.95605 0.61171 0.85472 0.0
H2080 H 0.89825 0.6197 0.94342 0.0
H2081 H 0.8701 0.60752 0.94817 0.0
C2082 C 0.4003 0.67088 0.84982 0.0
C2083 C 0.38735 0.65443 0.83973 0.0
C2084 C 0.4259 0.63799 0.87052 0.0
C2085 C 0.43931 0.65449 0.87383 0.0
N2086 N 0.4406 0.68618 0.84983 0.0
N2087 N 0.38877 0.62223 0.82968 0.0
C2088 C 0.42685 0.67081 0.8584 0.0
C2089 C 0.40042 0.6379 0.84715 0.0
N2090 N 0.38704 0.68654 0.85426 0.0
N2091 N 0.43723 0.62256 0.8919 0.0
H2092 H 0.37036 0.62184 0.81142 0.0
H2093 H 0.398 0.60989 0.82793 0.0
H2094 H 0.45573 0.62232 0.90952 0.0
H2095 H 0.42773 0.61037 0.89704 0.0
H2096 H 0.39528 0.69876 0.86748 0.0
H2097 H 0.36741 0.68693 0.85223 0.0
H2098 H 0.43281 0.6982 0.83282 0.0
H2099 H 0.46024 0.68632 0.85249 0.0
C2100 C 0.92107 0.64446 0.29213 0.0
C2101 C 0.93273 0.64644 0.35573 0.0
C2102 C 0.89337 0.65816 0.40272 0.0
C2103 C 0.88114 0.6546 0.34084 0.0
N2104 N 0.88204 0.64343 0.22805 0.0
N2105 N 0.93032 0.65362 0.4729 0.0
C2106 C 0.8947 0.64755 0.28572 0.0
C2107 C 0.919 0.65304 0.41136 0.0
N2108 N 0.9355 0.63984 0.23802 0.0
N2109 N 0.88038 0.66661 0.45274 0.0
H2110 H 0.9492 0.65019 0.47997 0.0
H2111 H 0.92084 0.65649 0.51736 0.0
H2112 H 0.86147 0.67018 0.44798 0.0
H2113 H 0.88861 0.67114 0.49702 0.0
H2114 H 0.92883 0.63941 0.18892 0.0
H2115 H 0.95488 0.6377 0.24179 0.0
H2116 H 0.89005 0.63664 0.18773 0.0
H2117 H 0.86283 0.64596 0.2222 0.0
C2118 C 0.39514 0.56433 0.36003 0.0
C2119 C 0.38183 0.57848 0.39177 0.0
C2120 C 0.42061 0.59667 0.39107 0.0
C2121 C 0.43418 0.58178 0.36547 0.0
N2122 N 0.43554 0.54991 0.34541 0.0
N2123 N 0.38302 0.60692 0.44913 0.0
C2124 C 0.42177 0.56511 0.35634 0.0
C2125 C 0.39492 0.59435 0.4108 0.0
N2126 N 0.38234 0.55068 0.32942 0.0
N2127 N 0.43192 0.61314 0.3939 0.0
H2128 H 0.36449 0.60534 0.46549 0.0
H2129 H 0.39221 0.61801 0.46965 0.0
H2130 H 0.45054 0.61525 0.37902 0.0
H2131 H 0.42226 0.62489 0.40582 0.0
H2132 H 0.39126 0.54085 0.30079 0.0
H2133 H 0.36276 0.55045 0.32546 0.0
H2134 H 0.42748 0.53712 0.34375 0.0
H2135 H 0.45521 0.54992 0.34601 0.0
C2136 C 0.13446 0.38928 0.17093 0.0
C2137 C 0.12068 0.40512 0.15584 0.0
C2138 C 0.15932 0.41918 0.11381 0.0
C2139 C 0.17235 0.40265 0.11981 0.0
N2140 N 0.17089 0.37093 0.14409 0.0
N2141 N 0.11898 0.43293 0.09316 0.0
C2142 C 0.15954 0.38736 0.14581 0.0
C2143 C 0.13282 0.41946 0.12156 0.0
N2144 N 0.12391 0.37638 0.21085 0.0
N2145 N 0.17235 0.43477 0.10322 0.0
H2146 H 0.09934 0.43277 0.09217 0.0
H2147 H 0.12702 0.44295 0.06326 0.0
H2148 H 0.192 0.43527 0.10254 0.0
H2149 H 0.16374 0.44736 0.10364 0.0
H2150 H 0.13382 0.36526 0.22852 0.0
H2151 H 0.10593 0.37775 0.23132 0.0
H2152 H 0.16161 0.35903 0.15673 0.0
H2153 H 0.18885 0.36903 0.12408 0.0
C2154 C 0.63306 0.31022 0.13451 0.0
C2155 C 0.61943 0.32489 0.1071 0.0
C2156 C 0.65816 0.34308 0.11038 0.0
C2157 C 0.67211 0.32768 0.13041 0.0
N2158 N 0.67344 0.2954 0.13928 0.0
N2159 N 0.62054 0.3541 0.05465 0.0
C2160 C 0.65972 0.31085 0.13531 0.0
C2161 C 0.63245 0.34101 0.09063 0.0
N2162 N 0.62067 0.29615 0.16391 0.0
N2163 N 0.6689 0.35973 0.11339 0.0
H2164 H 0.60211 0.35264 0.03734 0.0
H2165 H 0.62978 0.36547 0.03627 0.0
H2166 H 0.68722 0.36186 0.13041 0.0
H2167 H 0.6588 0.37154 0.10521 0.0
H2168 H 0.63005 0.28584 0.1891 0.0
H2169 H 0.60121 0.29599 0.17088 0.0
H2170 H 0.66517 0.28267 0.13802 0.0
H2171 H 0.69306 0.29533 0.13542 0.0
C2172 C 0.16532 0.30921 0.64285 0.0
C2173 C 0.1783 0.32478 0.6652 0.0
C2174 C 0.1391 0.34204 0.6511 0.0
C2175 C 0.12575 0.3259 0.63703 0.0
N2176 N 0.12548 0.29353 0.64315 0.0
N2177 N 0.17571 0.3553 0.70499 0.0
C2178 C 0.13867 0.30928 0.64053 0.0
C2179 C 0.16464 0.34104 0.67365 0.0
N2180 N 0.17832 0.29469 0.61949 0.0
N2181 N 0.12794 0.35828 0.64009 0.0
H2182 H 0.19387 0.35466 0.72478 0.0
H2183 H 0.16593 0.36697 0.71742 0.0
H2184 H 0.10972 0.3595 0.62119 0.0
H2185 H 0.13765 0.37043 0.64368 0.0
H2186 H 0.16939 0.28358 0.59822 0.0
H2187 H 0.19781 0.29479 0.61291 0.0
H2188 H 0.13418 0.28112 0.65039 0.0
H2189 H 0.10586 0.29318 0.6466 0.0
C2190 C 0.63921 0.39046 0.68687 0.0
C2191 C 0.62529 0.40603 0.66909 0.0
C2192 C 0.66414 0.42011 0.628 0.0
C2193 C 0.67737 0.40376 0.63677 0.0
N2194 N 0.67614 0.37221 0.66429 0.0
N2195 N 0.62374 0.43353 0.6046 0.0
C2196 C 0.66457 0.38857 0.66372 0.0
C2197 C 0.63755 0.42029 0.63457 0.0
N2198 N 0.62845 0.37774 0.72726 0.0
N2199 N 0.67708 0.43562 0.6152 0.0
H2200 H 0.6041 0.4333 0.60304 0.0
H2201 H 0.6318 0.44342 0.57422 0.0
H2202 H 0.69672 0.43613 0.61418 0.0
H2203 H 0.66842 0.44819 0.6137 0.0
H2204 H 0.63839 0.36687 0.74692 0.0
H2205 H 0.61021 0.37904 0.74605 0.0
H2206 H 0.66695 0.36035 0.67776 0.0
H2207 H 0.69424 0.37026 0.6453 0.0
C2208 C 0.06 0.10054 0.13002 0.0
C2209 C 0.03994 0.10358 0.1763 0.0
C2210 C 1.01433 0.11572 0.0834 0.0
C2211 C 0.03446 0.11252 0.03824 0.0
N2212 N 0.07241 0.09664 0.01352 0.0
N2213 N 0.99651 0.11227 0.19494 0.0
C2214 C 0.05605 0.10328 0.06017 0.0
C2215 C 1.01667 0.11079 0.15254 0.0
N2216 N 0.08325 0.09566 0.15314 0.0
N2217 N 0.99289 0.12349 0.05931 0.0
H2218 H 0.99755 0.11011 0.24642 0.0
H2219 H 0.97827 0.11513 0.17914 0.0
H2220 H 0.9895 0.12441 0.00785 0.0
H2221 H 0.97868 0.12883 0.08924 0.0
H2222 H 0.09918 0.09499 0.12264 0.0
H2223 H 0.08725 0.09407 0.20401 0.0
H2224 H 0.08769 0.08847 0.02539 0.0
H2225 H 0.06864 0.09754 0.96217 0.0
C2226 C 0.27647 0.1295 0.06955 0.0
C2227 C 0.28335 0.11116 0.06568 0.0
C2228 C 0.2774 0.10825 0.18747 0.0
C2229 C 0.27297 0.12697 0.19293 0.0
N2230 N 0.278 0.15609 0.13795 0.0
N2231 N 0.30005 0.08566 0.12591 0.0
C2232 C 0.27539 0.13787 0.13372 0.0
C2233 C 0.28699 0.1014 0.12635 0.0
N2234 N 0.26992 0.13889 0.01324 0.0
N2235 N 0.27121 0.0967 0.23835 0.0
H2236 H 0.30934 0.08128 0.08303 0.0
H2237 H 0.30456 0.07862 0.16964 0.0
H2238 H 0.2617 0.10067 0.2816 0.0
H2239 H 0.27256 0.08278 0.23338 0.0
H2240 H 0.26208 0.15173 0.01536 0.0
H2241 H 0.27028 0.13344 0.96517 0.0
H2242 H 0.28181 0.16414 0.09617 0.0
H2243 H 0.27987 0.16292 0.1831 0.0
C2244 C 1.01218 0.84342 0.8552 0.0
C2245 C 1.01094 0.85351 0.91621 0.0
C2246 C 1.01797 0.88059 0.84877 0.0
C2247 C 1.01242 0.87101 0.78864 0.0
N2248 N 0.99955 0.84274 0.73893 0.0
N2249 N 1.00814 0.88315 0.96655 0.0
C2250 C 1.00828 0.85223 0.79274 0.0
C2251 C 1.01273 0.87253 0.91206 0.0
N2252 N 1.01827 0.8256 0.8559 0.0
N2253 N 0.02889 0.89721 0.84585 0.0
H2254 H 1.00217 0.8782 0.01282 0.0
H2255 H 1.00734 0.89713 0.96312 0.0
H2256 H 0.03498 0.90296 0.80082 0.0
H2257 H 0.03485 0.90407 0.88863 0.0
H2258 H 1.02103 0.81823 0.812 0.0
H2259 H 1.02412 0.81893 0.89912 0.0
H2260 H 0.99423 0.82926 0.7427 0.0
H2261 H 0.99501 0.84858 0.69298 0.0
C2262 C 0.78799 0.87477 0.81361 0.0
C2263 C 0.76645 0.86449 0.79803 0.0
C2264 C 0.75074 0.86865 0.91319 0.0
C2265 C 0.77424 0.87651 0.93136 0.0
N2266 N 0.81703 0.88412 0.90016 0.0
N2267 N 0.72734 0.85087 0.83241 0.0
C2268 C 0.79335 0.8788 0.88176 0.0
C2269 C 0.74779 0.86126 0.84774 0.0
N2270 N 0.80324 0.88077 0.76303 0.0
N2271 N 0.73081 0.86897 0.9567 0.0
H2272 H 0.72354 0.8467 0.78352 0.0
H2273 H 0.71482 0.84589 0.86826 0.0
H2274 H 0.7319 0.87405 0.00519 0.0
H2275 H 0.71252 0.86544 0.94299 0.0
H2276 H 0.81828 0.88955 0.77056 0.0
H2277 H 0.79886 0.8786 0.71263 0.0
H2278 H 0.83226 0.88435 0.86711 0.0
H2279 H 0.82213 0.88645 0.94993 0.0
C2280 C 0.06572 0.6002 0.61956 0.0
C2281 C 0.04691 0.60358 0.66915 0.0
C2282 C 1.02158 0.61923 0.58374 0.0
C2283 C 0.04011 0.61521 0.53433 0.0
N2284 N 0.07544 0.59704 0.50127 0.0
N2285 N 1.00442 0.61343 0.69434 0.0
C2286 C 0.06076 0.60413 0.55091 0.0
C2287 C 1.02416 0.61238 0.6503 0.0
N2288 N 0.08886 0.59392 0.63829 0.0
N2289 N 1.00139 0.6297 0.56677 0.0
H2290 H 1.00531 0.60932 0.74414 0.0
H2291 H 0.98633 0.61735 0.68045 0.0
H2292 H 0.99716 0.6331 0.51716 0.0
H2293 H 0.98933 0.63551 0.6018 0.0
H2294 H 0.1041 0.59306 0.60542 0.0
H2295 H 0.09373 0.59136 0.68802 0.0
H2296 H 0.08948 0.58755 0.51018 0.0
H2297 H 0.07156 0.59887 0.45047 0.0
C2298 C 0.25929 0.62878 0.62207 0.0
C2299 C 0.27938 0.62615 0.66828 0.0
C2300 C 0.30298 0.61019 0.58092 0.0
C2301 C 0.28376 0.61431 0.53376 0.0
N2302 N 0.24718 0.63161 0.50531 0.0
N2303 N 0.32288 0.6176 0.68659 0.0
C2304 C 0.26308 0.62499 0.55309 0.0
C2305 C 0.30197 0.61771 0.64653 0.0
N2306 N 0.23621 0.63429 0.64449 0.0
N2307 N 0.32203 0.59884 0.56332 0.0
H2308 H 0.32324 0.62287 0.73493 0.0
H2309 H 0.34057 0.61355 0.6698 0.0
H2310 H 0.32422 0.5941 0.51454 0.0
H2311 H 0.33479 0.59348 0.59768 0.0
H2312 H 0.22032 0.63486 0.61383 0.0
H2313 H 0.23226 0.63638 0.69519 0.0
H2314 H 0.23273 0.64065 0.51577 0.0
H2315 H 0.25054 0.62969 0.45424 0.0
C2316 C 0.04169 0.35818 0.40775 0.0
C2317 C 1.02331 0.36193 0.45775 0.0
C2318 C 0.99921 0.37936 0.3759 0.0
C2319 C 1.01777 0.376 0.32553 0.0
N2320 N 0.05952 0.36521 0.29864 0.0
N2321 N 0.99023 0.38136 0.49513 0.0
C2322 C 0.03979 0.36614 0.34267 0.0
C2323 C 1.00381 0.37418 0.44359 0.0
N2324 N 0.06132 0.34716 0.42334 0.0
N2325 N 0.97667 0.38695 0.3588 0.0
H2326 H 0.995 0.37899 0.54515 0.0
H2327 H 0.97685 0.39144 0.48859 0.0
H2328 H 0.97201 0.39044 0.30966 0.0
H2329 H 0.96161 0.38805 0.39216 0.0
H2330 H 0.07326 0.3414 0.38791 0.0
H2331 H 0.06542 0.34386 0.47289 0.0
H2332 H 0.07711 0.36001 0.31106 0.0
H2333 H 0.05911 0.37075 0.25069 0.0
C2334 C 0.7993 0.37443 0.3301 0.0
C2335 C 0.77734 0.36524 0.31045 0.0
C2336 C 0.76065 0.36756 0.42564 0.0
C2337 C 0.78427 0.37469 0.44727 0.0
N2338 N 0.8275 0.38233 0.42035 0.0
N2339 N 0.73591 0.35439 0.33545 0.0
C2340 C 0.80395 0.37745 0.39939 0.0
C2341 C 0.75764 0.36226 0.35724 0.0
N2342 N 0.81538 0.38072 0.28187 0.0
N2343 N 0.74072 0.36661 0.46911 0.0
H2344 H 0.73189 0.35331 0.28441 0.0
H2345 H 0.72209 0.3491 0.36697 0.0
H2346 H 0.74205 0.36926 0.52017 0.0
H2347 H 0.72231 0.36386 0.45439 0.0
H2348 H 0.83086 0.3889 0.29195 0.0
H2349 H 0.81122 0.37951 0.23088 0.0
H2350 H 0.84314 0.3827 0.38873 0.0
H2351 H 0.83207 0.38429 0.4706 0.0
C2352 C 0.51398 0.10869 0.67261 0.0
C2353 C 0.53333 0.11231 0.71994 0.0
C2354 C 0.55704 0.12869 0.63396 0.0
C2355 C 0.5371 0.12606 0.58718 0.0
N2356 N 0.49399 0.11673 0.5675 0.0
N2357 N 0.5694 0.12985 0.75111 0.0
C2358 C 0.51481 0.11691 0.60788 0.0
C2359 C 0.55357 0.1237 0.7023 0.0
N2360 N 0.49494 0.09713 0.68937 0.0
N2361 N 0.57976 0.13522 0.61249 0.0
H2362 H 0.56634 0.12697 0.80174 0.0
H2363 H 0.58348 0.13936 0.74241 0.0
H2364 H 0.58353 0.13818 0.56223 0.0
H2365 H 0.59566 0.13585 0.64308 0.0
H2366 H 0.48213 0.09198 0.65472 0.0
H2367 H 0.49267 0.09211 0.73793 0.0
H2368 H 0.47639 0.11218 0.58343 0.0
H2369 H 0.49358 0.12239 0.51971 0.0
C2370 C 0.75574 0.13197 0.63501 0.0
C2371 C 0.77521 0.12833 0.68255 0.0
C2372 C 0.79722 0.11046 0.59707 0.0
C2373 C 0.77827 0.11488 0.54949 0.0
N2374 N 0.74402 0.13406 0.51761 0.0
N2375 N 0.81699 0.11675 0.70414 0.0
C2376 C 0.75899 0.12701 0.56675 0.0
C2377 C 0.79663 0.1182 0.66251 0.0
N2378 N 0.7336 0.13956 0.65548 0.0
N2379 N 0.81597 0.09888 0.57916 0.0
H2380 H 0.81751 0.12205 0.75236 0.0
H2381 H 0.83419 0.11133 0.68936 0.0
H2382 H 0.81879 0.09506 0.52948 0.0
H2383 H 0.82823 0.09287 0.61323 0.0
H2384 H 0.71787 0.14075 0.6245 0.0
H2385 H 0.72991 0.14301 0.70515 0.0
H2386 H 0.73089 0.14419 0.52613 0.0
H2387 H 0.74701 0.13131 0.46694 0.0
C2388 C 0.48848 0.88106 0.43371 0.0
C2389 C 0.5095 0.87122 0.4558 0.0
C2390 C 0.5293 0.8747 0.34463 0.0
C2391 C 0.50637 0.88209 0.31938 0.0
N2392 N 0.46303 0.89069 0.33976 0.0
N2393 N 0.55148 0.86068 0.4379 0.0
C2394 C 0.48573 0.88499 0.36413 0.0
C2395 C 0.53044 0.86875 0.41275 0.0
N2396 N 0.47147 0.88703 0.47999 0.0
N2397 N 0.5503 0.87407 0.30483 0.0
H2398 H 0.554 0.85912 0.4895 0.0
H2399 H 0.5662 0.85575 0.40875 0.0
H2400 H 0.5504 0.87757 0.25432 0.0
H2401 H 0.56821 0.87088 0.32229 0.0
H2402 H 0.45657 0.8956 0.46855 0.0
H2403 H 0.47431 0.88513 0.5314 0.0
H2404 H 0.4467 0.89123 0.36868 0.0
H2405 H 0.45981 0.8933 0.28912 0.0
C2406 C 0.24973 0.86963 0.39634 0.0
C2407 C 0.27101 0.86907 0.43924 0.0
C2408 C 0.29734 0.85872 0.34632 0.0
C2409 C 0.27614 0.85916 0.30254 0.0
N2410 N 0.23122 0.86296 0.28777 0.0
N2411 N 0.31243 0.85805 0.46137 0.0
C2412 C 0.25203 0.86415 0.32794 0.0
C2413 C 0.29403 0.86205 0.41595 0.0
N2414 N 0.22731 0.8755 0.42166 0.0
N2415 N 0.32086 0.85563 0.32082 0.0
H2416 H 0.30933 0.85932 0.51285 0.0
H2417 H 0.32917 0.85155 0.44917 0.0
H2418 H 0.32418 0.85342 0.26994 0.0
H2419 H 0.33732 0.8569 0.34884 0.0
H2420 H 0.21173 0.87886 0.39256 0.0
H2421 H 0.22453 0.87696 0.47319 0.0
H2422 H 0.2128 0.86417 0.3051 0.0
H2423 H 0.23211 0.86016 0.2367 0.0
C2424 C 0.57225 0.62512 0.0961 0.0
C2425 C 0.54926 0.62821 0.06147 0.0
C2426 C 0.52576 0.61821 0.16095 0.0
C2427 C 0.54862 0.61272 0.19157 0.0
N2428 N 0.59371 0.60876 0.18415 0.0
N2429 N 0.50402 0.62518 0.05713 0.0
C2430 C 0.5719 0.61552 0.15787 0.0
C2431 C 0.52596 0.62393 0.0927 0.0
N2432 N 0.59443 0.6317 0.07105 0.0
N2433 N 0.50391 0.61827 0.19727 0.0
H2434 H 0.50345 0.62913 0.00694 0.0
H2435 H 0.48672 0.62061 0.07521 0.0
H2436 H 0.50329 0.61495 0.24807 0.0
H2437 H 0.48704 0.62356 0.17937 0.0
H2438 H 0.61126 0.6316 0.09797 0.0
H2439 H 0.59571 0.63861 0.02566 0.0
H2440 H 0.61067 0.60843 0.15775 0.0
H2441 H 0.59456 0.6024 0.23072 0.0
C2442 C 0.76279 0.63086 0.13905 0.0
C2443 C 0.78122 0.62698 0.18936 0.0
C2444 C 0.80518 0.60971 0.10568 0.0
C2445 C 0.78685 0.61389 0.05623 0.0
N2446 N 0.75356 0.63328 0.02003 0.0
N2447 N 0.823 0.61592 0.2151 0.0
C2448 C 0.76741 0.62607 0.07111 0.0
C2449 C 0.80329 0.61724 0.17129 0.0
N2450 N 0.74023 0.63837 0.15639 0.0
N2451 N 0.82451 0.59846 0.08943 0.0
H2452 H 0.82252 0.62097 0.26361 0.0
H2453 H 0.84065 0.61095 0.20194 0.0
H2454 H 0.82818 0.59487 0.03985 0.0
H2455 H 0.83646 0.59256 0.12456 0.0
H2456 H 0.72523 0.63968 0.12304 0.0
H2457 H 0.73543 0.64161 0.20552 0.0
H2458 H 0.74033 0.64344 0.02685 0.0
H2459 H 0.75771 0.63062 0.96983 0.0
C2460 C 0.50509 0.3755 0.95123 0.0
C2461 C 0.52359 0.36258 0.9669 0.0
C2462 C 0.54191 0.36627 0.85397 0.0
C2463 C 0.52098 0.37705 0.83497 0.0
N2464 N 0.4802 0.38947 0.8644 0.0
N2465 N 0.55912 0.34467 0.93276 0.0
C2466 C 0.50196 0.38107 0.88345 0.0
C2467 C 0.54186 0.35768 0.91803 0.0
N2468 N 0.49047 0.38247 0.00121 0.0
N2469 N 0.56246 0.36498 0.81285 0.0
H2470 H 0.56098 0.33922 0.98072 0.0
H2471 H 0.57075 0.33877 0.89688 0.0
H2472 H 0.5637 0.37132 0.76633 0.0
H2473 H 0.57931 0.35898 0.82748 0.0
H2474 H 0.47818 0.39321 0.99407 0.0
H2475 H 0.49278 0.37884 0.0514 0.0
H2476 H 0.46467 0.39088 0.89598 0.0
H2477 H 0.47647 0.39343 0.8153 0.0
C2478 C 0.29876 0.37251 0.83055 0.0
C2479 C 0.27784 0.36203 0.8113 0.0
C2480 C 0.25966 0.36544 0.92424 0.0
C2481 C 0.2823 0.37397 0.94573 0.0
N2482 N 0.32548 0.38213 0.92193 0.0
N2483 N 0.23875 0.34741 0.83956 0.0
C2484 C 0.30245 0.37651 0.89947 0.0
C2485 C 0.25837 0.35821 0.85816 0.0
N2486 N 0.31497 0.37882 0.78267 0.0
N2487 N 0.23899 0.36492 0.96522 0.0
H2488 H 0.2361 0.34331 0.79008 0.0
H2489 H 0.22577 0.342 0.87335 0.0
H2490 H 0.23904 0.36934 0.01469 0.0
H2491 H 0.22115 0.36108 0.94881 0.0
H2492 H 0.32963 0.38774 0.79285 0.0
H2493 H 0.31176 0.37674 0.7316 0.0
H2494 H 0.34146 0.38265 0.89154 0.0
H2495 H 0.32928 0.3844 0.97261 0.0
loop_
_geom_bond_atom_site_label_1
_geom_bond_atom_site_label_2
_geom_bond_distance
_geom_bond_site_symmetry_2
_ccdc_geom_bond_type
C0 C1 1.351 . S
C0 N3 1.368 . S
C0 H5 0.931 . S
C1 C0 1.351 . S
C1 N2 1.373 . S
C1 H29 0.930 . S
N2 C1 1.373 . S
N2 C4 1.340 . S
N3 C0 1.368 . S
N3 C4 1.321 . S
N3 Co6 2.135 . S
C4 N2 1.340 . S
C4 N3 1.321 . S
C4 H28 0.930 . S
H5 C0 0.931 . S
Co6 N3 2.135 . S
Co6 N9 2.121 1_655 S
Co6 O14 2.055 . S
Co6 O17 2.039 . S
Co6 N20 2.140 1_655 S
C7 O8 1.227 . S
C7 O17 1.265 . S
O8 C7 1.227 . S
N9 Co6 2.121 1_455 S
N9 C11 1.375 . S
N9 C12 1.313 . S
C10 C11 1.338 . S
C10 N13 1.377 . S
C10 H30 0.930 . S
C11 N9 1.375 . S
C11 C10 1.338 . S
C11 H15 0.931 . S
C12 N9 1.313 . S
C12 N13 1.344 . S
C12 H16 0.930 . S
N13 C10 1.377 . S
N13 C12 1.344 . S
O14 Co6 2.055 . S
O14 C18 1.251 1_655 S
H15 C11 0.931 . S
H16 C12 0.930 . S
O17 Co6 2.039 . S
O17 C7 1.265 . S
C18 O14 1.251 1_455 S
C18 O19 1.227 . S
O19 C18 1.227 . S
N20 Co6 2.140 1_455 S
N20 C23 1.346 1_455 S
N20 C24 1.345 . S
C21 C22 1.387 1_455 S
C21 C25 1.391 . S
C22 C21 1.387 1_655 S
C22 C23 1.369 . S
C22 H31 0.929 . S
C23 N20 1.346 1_655 S
C23 C22 1.369 . S
C23 H26 0.928 . S
C24 N20 1.345 . S
C24 C25 1.371 . S
C24 H27 0.931 . S
C25 C21 1.391 . S
C25 C24 1.371 . S
C25 H32 0.930 . S
H26 C23 0.928 . S
H27 C24 0.931 . S
H28 C4 0.930 . S
H29 C1 0.930 . S
H30 C10 0.930 . S
H31 C22 0.929 . S
H32 C25 0.930 . S
C33 C34 1.351 . S
C33 N36 1.368 . S
C33 H38 0.931 . S
C34 C33 1.351 . S
C34 N35 1.373 . S
C34 H62 0.930 . S
N35 C34 1.373 . S
N35 C37 1.340 . S
N36 C33 1.368 . S
N36 C37 1.321 . S
N36 Co39 2.135 . S
C37 N35 1.340 . S
C37 N36 1.321 . S
C37 H61 0.930 . S
H38 C33 0.931 . S
Co39 N36 2.135 . S
Co39 N42 2.121 . S
Co39 O47 2.055 . S
Co39 O50 2.039 . S
Co39 N53 2.140 . S
C40 O41 1.227 . S
C40 O50 1.265 . S
O41 C40 1.227 . S
N42 Co39 2.121 . S
N42 C44 1.375 . S
N42 C45 1.313 . S
C43 C44 1.338 . S
C43 N46 1.377 . S
C43 H63 0.930 . S
C44 N42 1.375 . S
C44 C43 1.338 . S
C44 H48 0.931 . S
C45 N42 1.313 . S
C45 N46 1.344 . S
C45 H49 0.930 . S
N46 C43 1.377 . S
N46 C45 1.344 . S
O47 Co39 2.055 . S
O47 C51 1.253 . S
H48 C44 0.931 . S
H49 C45 0.930 . S
O50 Co39 2.039 . S
O50 C40 1.265 . S
C51 O47 1.253 . S
C51 O52 1.227 . S
O52 C51 1.227 . S
N53 Co39 2.140 . S
N53 C56 1.346 . S
N53 C57 1.345 . S
C54 C55 1.387 . S
C54 C58 1.391 . S
C55 C54 1.387 . S
C55 C56 1.369 . S
C55 H64 0.929 . S
C56 N53 1.346 . S
C56 C55 1.369 . S
C56 H59 0.928 . S
C57 N53 1.345 . S
C57 C58 1.371 . S
C57 H60 0.931 . S
C58 C54 1.391 . S
C58 C57 1.371 . S
C58 H65 0.930 . S
H59 C56 0.928 . S
H60 C57 0.931 . S
H61 C37 0.930 . S
H62 C34 0.930 . S
H63 C43 0.930 . S
H64 C55 0.929 . S
H65 C58 0.930 . S
C66 C67 1.351 . S
C66 N69 1.368 . S
C66 H71 0.931 . S
C67 C66 1.351 . S
C67 N68 1.373 . S
C67 H95 0.930 . S
N68 C67 1.373 . S
N68 C70 1.340 . S
N69 C66 1.368 . S
N69 C70 1.321 . S
N69 Co72 2.135 . S
C70 N68 1.340 . S
C70 N69 1.321 . S
C70 H94 0.930 . S
H71 C66 0.931 . S
Co72 N69 2.135 . S
Co72 N75 2.121 1_655 S
Co72 O80 2.055 . S
Co72 O83 2.039 . S
Co72 N86 2.140 1_655 S
C73 O74 1.227 . S
C73 O83 1.265 . S
O74 C73 1.227 . S
N75 Co72 2.121 1_455 S
N75 C77 1.375 . S
N75 C78 1.313 . S
C76 C77 1.338 . S
C76 N79 1.377 . S
C76 H96 0.930 . S
C77 N75 1.375 . S
C77 C76 1.338 . S
C77 H81 0.931 . S
C78 N75 1.313 . S
C78 N79 1.344 . S
C78 H82 0.930 . S
N79 C76 1.377 . S
N79 C78 1.344 . S
O80 Co72 2.055 . S
O80 C84 1.251 1_656 S
H81 C77 0.931 . S
H82 C78 0.930 . S
O83 Co72 2.039 . S
O83 C73 1.265 . S
C84 O80 1.251 1_454 S
C84 O85 1.227 1_554 S
O85 C84 1.227 1_556 S
N86 Co72 2.140 1_455 S
N86 C89 1.346 1_455 S
N86 C90 1.345 . S
C87 C88 1.387 1_455 S
C87 C91 1.391 . S
C88 C87 1.387 1_655 S
C88 C89 1.369 . S
C88 H97 0.929 . S
C89 N86 1.346 1_655 S
C89 C88 1.369 . S
C89 H92 0.928 . S
C90 N86 1.345 . S
C90 C91 1.371 . S
C90 H93 0.931 . S
C91 C87 1.391 . S
C91 C90 1.371 . S
C91 H98 0.930 . S
H92 C89 0.928 . S
H93 C90 0.931 . S
H94 C70 0.930 . S
H95 C67 0.930 . S
H96 C76 0.930 . S
H97 C88 0.929 . S
H98 C91 0.930 . S
C99 C100 1.351 . S
C99 N102 1.368 . S
C99 H104 0.931 . S
C100 C99 1.351 . S
C100 N101 1.373 . S
C100 H128 0.930 . S
N101 C100 1.373 . S
N101 C103 1.340 . S
N102 C99 1.368 . S
N102 C103 1.321 . S
N102 Co105 2.135 . S
C103 N101 1.340 . S
C103 N102 1.321 . S
C103 H127 0.930 . S
H104 C99 0.931 . S
Co105 N102 2.135 . S
Co105 N108 2.121 . S
Co105 O113 2.055 . S
Co105 O116 2.039 . S
Co105 N119 2.140 . S
C106 O107 1.227 . S
C106 O116 1.265 . S
O107 C106 1.227 . S
N108 Co105 2.121 . S
N108 C110 1.375 . S
N108 C111 1.313 . S
C109 C110 1.338 . S
C109 N112 1.377 . S
C109 H129 0.930 . S
C110 N108 1.375 . S
C110 C109 1.338 . S
C110 H114 0.931 . S
C111 N108 1.313 . S
C111 N112 1.344 . S
C111 H115 0.930 . S
N112 C109 1.377 . S
N112 C111 1.344 . S
O113 Co105 2.055 . S
O113 C117 1.253 1_556 S
H114 C110 0.931 . S
H115 C111 0.930 . S
O116 Co105 2.039 . S
O116 C106 1.265 . S
C117 O113 1.253 1_554 S
C117 O118 1.227 1_554 S
O118 C117 1.227 1_556 S
N119 Co105 2.140 . S
N119 C122 1.346 . S
N119 C123 1.345 . S
C120 C121 1.387 . S
C120 C124 1.391 . S
C121 C120 1.387 . S
C121 C122 1.369 . S
C121 H130 0.929 . S
C122 N119 1.346 . S
C122 C121 1.369 . S
C122 H125 0.928 . S
C123 N119 1.345 . S
C123 C124 1.371 . S
C123 H126 0.931 . S
C124 C120 1.391 . S
C124 C123 1.371 . S
C124 H131 0.930 . S
H125 C122 0.928 . S
H126 C123 0.931 . S
H127 C103 0.930 . S
H128 C100 0.930 . S
H129 C109 0.930 . S
H130 C121 0.929 . S
H131 C124 0.930 . S
C132 C133 1.351 . S
C132 N135 1.368 . S
C132 H137 0.931 . S
C133 C132 1.351 . S
C133 N134 1.373 . S
C133 H161 0.930 . S
N134 C133 1.373 . S
N134 C136 1.340 . S
N135 C132 1.368 . S
N135 C136 1.321 . S
N135 Co138 2.135 . S
C136 N134 1.340 . S
C136 N135 1.321 . S
C136 H160 0.930 . S
H137 C132 0.931 . S
Co138 N135 2.135 . S
Co138 N141 2.121 1_455 S
Co138 O146 2.055 . S
Co138 O149 2.039 . S
Co138 N152 2.140 1_455 S
C139 O140 1.227 . S
C139 O149 1.265 . S
O140 C139 1.227 . S
N141 Co138 2.121 1_655 S
N141 C143 1.375 . S
N141 C144 1.313 . S
C142 C143 1.338 . S
C142 N145 1.377 . S
C142 H162 0.930 . S
C143 N141 1.375 . S
C143 C142 1.338 . S
C143 H147 0.931 . S
C144 N141 1.313 . S
C144 N145 1.344 . S
C144 H148 0.930 . S
N145 C142 1.377 . S
N145 C144 1.344 . S
O146 Co138 2.055 . S
O146 C150 1.251 1_455 S
H147 C143 0.931 . S
H148 C144 0.930 . S
O149 Co138 2.039 . S
O149 C139 1.265 . S
C150 O146 1.251 1_655 S
C150 O151 1.227 . S
O151 C150 1.227 . S
N152 Co138 2.140 1_655 S
N152 C155 1.346 1_655 S
N152 C156 1.345 . S
C153 C154 1.387 1_655 S
C153 C157 1.391 . S
C154 C153 1.387 1_455 S
C154 C155 1.369 . S
C154 H163 0.929 . S
C155 N152 1.346 1_455 S
C155 C154 1.369 . S
C155 H158 0.928 . S
C156 N152 1.345 . S
C156 C157 1.371 . S
C156 H159 0.931 . S
C157 C153 1.391 . S
C157 C156 1.371 . S
C157 H164 0.930 . S
H158 C155 0.928 . S
H159 C156 0.931 . S
H160 C136 0.930 . S
H161 C133 0.930 . S
H162 C142 0.930 . S
H163 C154 0.929 . S
H164 C157 0.930 . S
C165 C166 1.351 . S
C165 N168 1.368 . S
C165 H170 0.931 . S
C166 C165 1.351 . S
C166 N167 1.373 . S
C166 H194 0.930 . S
N167 C166 1.373 . S
N167 C169 1.340 . S
N168 C165 1.368 . S
N168 C169 1.321 . S
N168 Co171 2.135 . S
C169 N167 1.340 . S
C169 N168 1.321 . S
C169 H193 0.930 . S
H170 C165 0.931 . S
Co171 N168 2.135 . S
Co171 N174 2.121 . S
Co171 O179 2.055 . S
Co171 O182 2.039 . S
Co171 N185 2.140 . S
C172 O173 1.227 . S
C172 O182 1.265 . S
O173 C172 1.227 . S
N174 Co171 2.121 . S
N174 C176 1.375 . S
N174 C177 1.313 . S
C175 C176 1.338 . S
C175 N178 1.377 . S
C175 H195 0.930 . S
C176 N174 1.375 . S
C176 C175 1.338 . S
C176 H180 0.931 . S
C177 N174 1.313 . S
C177 N178 1.344 . S
C177 H181 0.930 . S
N178 C175 1.377 . S
N178 C177 1.344 . S
O179 Co171 2.055 . S
O179 C183 1.253 . S
H180 C176 0.931 . S
H181 C177 0.930 . S
O182 Co171 2.039 . S
O182 C172 1.265 . S
C183 O179 1.253 . S
C183 O184 1.227 . S
O184 C183 1.227 . S
N185 Co171 2.140 . S
N185 C188 1.346 . S
N185 C189 1.345 . S
C186 C187 1.387 . S
C186 C190 1.391 . S
C187 C186 1.387 . S
C187 C188 1.369 . S
C187 H196 0.929 . S
C188 N185 1.346 . S
C188 C187 1.369 . S
C188 H191 0.928 . S
C189 N185 1.345 . S
C189 C190 1.371 . S
C189 H192 0.931 . S
C190 C186 1.391 . S
C190 C189 1.371 . S
C190 H197 0.930 . S
H191 C188 0.928 . S
H192 C189 0.931 . S
H193 C169 0.930 . S
H194 C166 0.930 . S
H195 C175 0.930 . S
H196 C187 0.929 . S
H197 C190 0.930 . S
C198 C199 1.351 . S
C198 N201 1.368 . S
C198 H203 0.931 . S
C199 C198 1.351 . S
C199 N200 1.373 . S
C199 H227 0.930 . S
N200 C199 1.373 . S
N200 C202 1.340 . S
N201 C198 1.368 . S
N201 C202 1.321 . S
N201 Co204 2.135 . S
C202 N200 1.340 . S
C202 N201 1.321 . S
C202 H226 0.930 . S
H203 C198 0.931 . S
Co204 N201 2.135 . S
Co204 N207 2.121 1_455 S
Co204 O212 2.055 . S
Co204 O215 2.039 . S
Co204 N218 2.140 1_455 S
C205 O206 1.227 . S
C205 O215 1.265 . S
O206 C205 1.227 . S
N207 Co204 2.121 1_655 S
N207 C209 1.375 . S
N207 C210 1.313 . S
C208 C209 1.338 . S
C208 N211 1.377 . S
C208 H228 0.930 . S
C209 N207 1.375 . S
C209 C208 1.338 . S
C209 H213 0.931 . S
C210 N207 1.313 . S
C210 N211 1.344 . S
C210 H214 0.930 . S
N211 C208 1.377 . S
N211 C210 1.344 . S
O212 Co204 2.055 . S
O212 C216 1.251 1_454 S
H213 C209 0.931 . S
H214 C210 0.930 . S
O215 Co204 2.039 . S
O215 C205 1.265 . S
C216 O212 1.251 1_656 S
C216 O217 1.227 1_556 S
O217 C216 1.227 1_554 S
N218 Co204 2.140 1_655 S
N218 C221 1.346 1_655 S
N218 C222 1.345 . S
C219 C220 1.387 1_655 S
C219 C223 1.391 . S
C220 C219 1.387 1_455 S
C220 C221 1.369 . S
C220 H229 0.929 . S
C221 N218 1.346 1_455 S
C221 C220 1.369 . S
C221 H224 0.928 . S
C222 N218 1.345 . S
C222 C223 1.371 . S
C222 H225 0.931 . S
C223 C219 1.391 . S
C223 C222 1.371 . S
C223 H230 0.930 . S
H224 C221 0.928 . S
H225 C222 0.931 . S
H226 C202 0.930 . S
H227 C199 0.930 . S
H228 C208 0.930 . S
H229 C220 0.929 . S
H230 C223 0.930 . S
C231 C232 1.351 . S
C231 N234 1.368 . S
C231 H236 0.931 . S
C232 C231 1.351 . S
C232 N233 1.373 . S
C232 H260 0.930 . S
N233 C232 1.373 . S
N233 C235 1.340 . S
N234 C231 1.368 . S
N234 C235 1.321 . S
N234 Co237 2.135 . S
C235 N233 1.340 . S
C235 N234 1.321 . S
C235 H259 0.930 . S
H236 C231 0.931 . S
Co237 N234 2.135 . S
Co237 N240 2.121 . S
Co237 O245 2.055 . S
Co237 O248 2.039 . S
Co237 N251 2.140 . S
C238 O239 1.227 . S
C238 O248 1.265 . S
O239 C238 1.227 . S
N240 Co237 2.121 . S
N240 C242 1.375 . S
N240 C243 1.313 . S
C241 C242 1.338 . S
C241 N244 1.377 . S
C241 H261 0.930 . S
C242 N240 1.375 . S
C242 C241 1.338 . S
C242 H246 0.931 . S
C243 N240 1.313 . S
C243 N244 1.344 . S
C243 H247 0.930 . S
N244 C241 1.377 . S
N244 C243 1.344 . S
O245 Co237 2.055 . S
O245 C249 1.253 1_554 S
H246 C242 0.931 . S
H247 C243 0.930 . S
O248 Co237 2.039 . S
O248 C238 1.265 . S
C249 O245 1.253 1_556 S
C249 O250 1.227 1_556 S
O250 C249 1.227 1_554 S
N251 Co237 2.140 . S
N251 C254 1.346 . S
N251 C255 1.345 . S
C252 C253 1.387 . S
C252 C256 1.391 . S
C253 C252 1.387 . S
C253 C254 1.369 . S
C253 H262 0.929 . S
C254 N251 1.346 . S
C254 C253 1.369 . S
C254 H257 0.928 . S
C255 N251 1.345 . S
C255 C256 1.371 . S
C255 H258 0.931 . S
C256 C252 1.391 . S
C256 C255 1.371 . S
C256 H263 0.930 . S
H257 C254 0.928 . S
H258 C255 0.931 . S
H259 C235 0.930 . S
H260 C232 0.930 . S
H261 C241 0.930 . S
H262 C253 0.929 . S
H263 C256 0.930 . S
C264 C265 1.351 . S
C264 N267 1.368 . S
C264 H269 0.931 . S
C265 C264 1.351 . S
C265 N266 1.373 . S
C265 H293 0.930 . S
N266 C265 1.373 . S
N266 C268 1.340 . S
N267 C264 1.368 . S
N267 C268 1.321 . S
N267 Co270 2.135 . S
C268 N266 1.340 . S
C268 N267 1.321 . S
C268 H292 0.930 . S
H269 C264 0.931 . S
Co270 N267 2.135 . S
Co270 N273 2.121 1_655 S
Co270 O278 2.055 . S
Co270 O281 2.039 . S
Co270 N284 2.140 1_655 S
C271 O272 1.227 . S
C271 O281 1.265 1_554 S
O272 C271 1.227 . S
N273 Co270 2.121 1_455 S
N273 C275 1.375 . S
N273 C276 1.313 . S
C274 C275 1.338 . S
C274 N277 1.377 . S
C274 H294 0.930 . S
C275 N273 1.375 . S
C275 C274 1.338 . S
C275 H279 0.931 . S
C276 N273 1.313 . S
C276 N277 1.344 . S
C276 H280 0.930 . S
N277 C274 1.377 . S
N277 C276 1.344 . S
O278 Co270 2.055 . S
O278 C282 1.251 1_655 S
H279 C275 0.931 . S
H280 C276 0.930 . S
O281 Co270 2.039 . S
O281 C271 1.265 1_556 S
C282 O278 1.251 1_455 S
C282 O283 1.227 . S
O283 C282 1.227 . S
N284 Co270 2.140 1_455 S
N284 C287 1.346 1_455 S
N284 C288 1.345 . S
C285 C286 1.387 1_455 S
C285 C289 1.391 . S
C286 C285 1.387 1_655 S
C286 C287 1.369 . S
C286 H295 0.929 . S
C287 N284 1.346 1_655 S
C287 C286 1.369 . S
C287 H290 0.928 . S
C288 N284 1.345 . S
C288 C289 1.371 . S
C288 H291 0.931 . S
C289 C285 1.391 . S
C289 C288 1.371 . S
C289 H296 0.930 . S
H290 C287 0.928 . S
H291 C288 0.931 . S
H292 C268 0.930 . S
H293 C265 0.930 . S
H294 C274 0.930 . S
H295 C286 0.929 . S
H296 C289 0.930 . S
C297 C298 1.351 . S
C297 N300 1.368 . S
C297 H302 0.931 . S
C298 C297 1.351 . S
C298 N299 1.373 . S
C298 H326 0.930 . S
N299 C298 1.373 . S
N299 C301 1.340 . S
N300 C297 1.368 . S
N300 C301 1.321 . S
N300 Co303 2.135 . S
C301 N299 1.340 . S
C301 N300 1.321 . S
C301 H325 0.930 . S
H302 C297 0.931 . S
Co303 N300 2.135 . S
Co303 N306 2.121 . S
Co303 O311 2.055 . S
Co303 O314 2.039 . S
Co303 N317 2.140 . S
C304 O305 1.227 . S
C304 O314 1.265 1_554 S
O305 C304 1.227 . S
N306 Co303 2.121 . S
N306 C308 1.375 . S
N306 C309 1.313 . S
C307 C308 1.338 . S
C307 N310 1.377 . S
C307 H327 0.930 . S
C308 N306 1.375 . S
C308 C307 1.338 . S
C308 H312 0.931 . S
C309 N306 1.313 . S
C309 N310 1.344 . S
C309 H313 0.930 . S
N310 C307 1.377 . S
N310 C309 1.344 . S
O311 Co303 2.055 . S
O311 C315 1.253 . S
H312 C308 0.931 . S
H313 C309 0.930 . S
O314 Co303 2.039 . S
O314 C304 1.265 1_556 S
C315 O311 1.253 . S
C315 O316 1.227 . S
O316 C315 1.227 . S
N317 Co303 2.140 . S
N317 C320 1.346 . S
N317 C321 1.345 . S
C318 C319 1.387 . S
C318 C322 1.391 . S
C319 C318 1.387 . S
C319 C320 1.369 . S
C319 H328 0.929 . S
C320 N317 1.346 . S
C320 C319 1.369 . S
C320 H323 0.928 . S
C321 N317 1.345 . S
C321 C322 1.371 . S
C321 H324 0.931 . S
C322 C318 1.391 . S
C322 C321 1.371 . S
C322 H329 0.930 . S
H323 C320 0.928 . S
H324 C321 0.931 . S
H325 C301 0.930 . S
H326 C298 0.930 . S
H327 C307 0.930 . S
H328 C319 0.929 . S
H329 C322 0.930 . S
C330 C331 1.351 . S
C330 N333 1.368 . S
C330 H335 0.931 . S
C331 C330 1.351 . S
C331 N332 1.373 . S
C331 H359 0.930 . S
N332 C331 1.373 . S
N332 C334 1.340 . S
N333 C330 1.368 . S
N333 C334 1.321 . S
N333 Co336 2.135 . S
C334 N332 1.340 . S
C334 N333 1.321 . S
C334 H358 0.930 . S
H335 C330 0.931 . S
Co336 N333 2.135 . S
Co336 N339 2.121 1_655 S
Co336 O344 2.055 . S
Co336 O347 2.039 . S
Co336 N350 2.140 1_655 S
C337 O338 1.227 . S
C337 O347 1.265 . S
O338 C337 1.227 . S
N339 Co336 2.121 1_455 S
N339 C341 1.375 . S
N339 C342 1.313 . S
C340 C341 1.338 . S
C340 N343 1.377 . S
C340 H360 0.930 . S
C341 N339 1.375 . S
C341 C340 1.338 . S
C341 H345 0.931 . S
C342 N339 1.313 . S
C342 N343 1.344 . S
C342 H346 0.930 . S
N343 C340 1.377 . S
N343 C342 1.344 . S
O344 Co336 2.055 . S
O344 C348 1.251 1_655 S
H345 C341 0.931 . S
H346 C342 0.930 . S
O347 Co336 2.039 . S
O347 C337 1.265 . S
C348 O344 1.251 1_455 S
C348 O349 1.227 . S
O349 C348 1.227 . S
N350 Co336 2.140 1_455 S
N350 C353 1.346 1_455 S
N350 C354 1.345 . S
C351 C352 1.387 1_455 S
C351 C355 1.391 . S
C352 C351 1.387 1_655 S
C352 C353 1.369 . S
C352 H361 0.929 . S
C353 N350 1.346 1_655 S
C353 C352 1.369 . S
C353 H356 0.928 . S
C354 N350 1.345 . S
C354 C355 1.371 . S
C354 H357 0.931 . S
C355 C351 1.391 . S
C355 C354 1.371 . S
C355 H362 0.930 . S
H356 C353 0.928 . S
H357 C354 0.931 . S
H358 C334 0.930 . S
H359 C331 0.930 . S
H360 C340 0.930 . S
H361 C352 0.929 . S
H362 C355 0.930 . S
C363 C364 1.351 . S
C363 N366 1.368 . S
C363 H368 0.931 . S
C364 C363 1.351 . S
C364 N365 1.373 . S
C364 H392 0.930 . S
N365 C364 1.373 . S
N365 C367 1.340 . S
N366 C363 1.368 . S
N366 C367 1.321 . S
N366 Co369 2.135 . S
C367 N365 1.340 . S
C367 N366 1.321 . S
C367 H391 0.930 . S
H368 C363 0.931 . S
Co369 N366 2.135 . S
Co369 N372 2.121 . S
Co369 O377 2.055 . S
Co369 O380 2.039 . S
Co369 N383 2.140 . S
C370 O371 1.227 . S
C370 O380 1.265 . S
O371 C370 1.227 . S
N372 Co369 2.121 . S
N372 C374 1.375 . S
N372 C375 1.313 . S
C373 C374 1.338 . S
C373 N376 1.377 . S
C373 H393 0.930 . S
C374 N372 1.375 . S
C374 C373 1.338 . S
C374 H378 0.931 . S
C375 N372 1.313 . S
C375 N376 1.344 . S
C375 H379 0.930 . S
N376 C373 1.377 . S
N376 C375 1.344 . S
O377 Co369 2.055 . S
O377 C381 1.253 . S
H378 C374 0.931 . S
H379 C375 0.930 . S
O380 Co369 2.039 . S
O380 C370 1.265 . S
C381 O377 1.253 . S
C381 O382 1.227 . S
O382 C381 1.227 . S
N383 Co369 2.140 . S
N383 C386 1.346 . S
N383 C387 1.345 . S
C384 C385 1.387 . S
C384 C388 1.391 . S
C385 C384 1.387 . S
C385 C386 1.369 . S
C385 H394 0.929 . S
C386 N383 1.346 . S
C386 C385 1.369 . S
C386 H389 0.928 . S
C387 N383 1.345 . S
C387 C388 1.371 . S
C387 H390 0.931 . S
C388 C384 1.391 . S
C388 C387 1.371 . S
C388 H395 0.930 . S
H389 C386 0.928 . S
H390 C387 0.931 . S
H391 C367 0.930 . S
H392 C364 0.930 . S
H393 C373 0.930 . S
H394 C385 0.929 . S
H395 C388 0.930 . S
C396 C397 1.351 . S
C396 N399 1.368 . S
C396 H401 0.931 . S
C397 C396 1.351 . S
C397 N398 1.373 . S
C397 H425 0.930 . S
N398 C397 1.373 . S
N398 C400 1.340 . S
N399 C396 1.368 . S
N399 C400 1.321 . S
N399 Co402 2.135 . S
C400 N398 1.340 . S
C400 N399 1.321 . S
C400 H424 0.930 . S
H401 C396 0.931 . S
Co402 N399 2.135 . S
Co402 N405 2.121 1_455 S
Co402 O410 2.055 . S
Co402 O413 2.039 . S
Co402 N416 2.140 1_455 S
C403 O404 1.227 . S
C403 O413 1.265 1_556 S
O404 C403 1.227 . S
N405 Co402 2.121 1_655 S
N405 C407 1.375 . S
N405 C408 1.313 . S
C406 C407 1.338 . S
C406 N409 1.377 . S
C406 H426 0.930 . S
C407 N405 1.375 . S
C407 C406 1.338 . S
C407 H411 0.931 . S
C408 N405 1.313 . S
C408 N409 1.344 . S
C408 H412 0.930 . S
N409 C406 1.377 . S
N409 C408 1.344 . S
O410 Co402 2.055 . S
O410 C414 1.251 1_455 S
H411 C407 0.931 . S
H412 C408 0.930 . S
O413 Co402 2.039 . S
O413 C403 1.265 1_554 S
C414 O410 1.251 1_655 S
C414 O415 1.227 . S
O415 C414 1.227 . S
N416 Co402 2.140 1_655 S
N416 C419 1.346 1_655 S
N416 C420 1.345 . S
C417 C418 1.387 1_655 S
C417 C421 1.391 . S
C418 C417 1.387 1_455 S
C418 C419 1.369 . S
C418 H427 0.929 . S
C419 N416 1.346 1_455 S
C419 C418 1.369 . S
C419 H422 0.928 . S
C420 N416 1.345 . S
C420 C421 1.371 . S
C420 H423 0.931 . S
C421 C417 1.391 . S
C421 C420 1.371 . S
C421 H428 0.930 . S
H422 C419 0.928 . S
H423 C420 0.931 . S
H424 C400 0.930 . S
H425 C397 0.930 . S
H426 C406 0.930 . S
H427 C418 0.929 . S
H428 C421 0.930 . S
C429 C430 1.351 . S
C429 N432 1.368 . S
C429 H434 0.931 . S
C430 C429 1.351 . S
C430 N431 1.373 . S
C430 H458 0.930 . S
N431 C430 1.373 . S
N431 C433 1.340 . S
N432 C429 1.368 . S
N432 C433 1.321 . S
N432 Co435 2.135 . S
C433 N431 1.340 . S
C433 N432 1.321 . S
C433 H457 0.930 . S
H434 C429 0.931 . S
Co435 N432 2.135 . S
Co435 N438 2.121 . S
Co435 O443 2.055 . S
Co435 O446 2.039 . S
Co435 N449 2.140 . S
C436 O437 1.227 . S
C436 O446 1.265 1_556 S
O437 C436 1.227 . S
N438 Co435 2.121 . S
N438 C440 1.375 . S
N438 C441 1.313 . S
C439 C440 1.338 . S
C439 N442 1.377 . S
C439 H459 0.930 . S
C440 N438 1.375 . S
C440 C439 1.338 . S
C440 H444 0.931 . S
C441 N438 1.313 . S
C441 N442 1.344 . S
C441 H445 0.930 . S
N442 C439 1.377 . S
N442 C441 1.344 . S
O443 Co435 2.055 . S
O443 C447 1.253 . S
H444 C440 0.931 . S
H445 C441 0.930 . S
O446 Co435 2.039 . S
O446 C436 1.265 1_554 S
C447 O443 1.253 . S
C447 O448 1.227 . S
O448 C447 1.227 . S
N449 Co435 2.140 . S
N449 C452 1.346 . S
N449 C453 1.345 . S
C450 C451 1.387 . S
C450 C454 1.391 . S
C451 C450 1.387 . S
C451 C452 1.369 . S
C451 H460 0.929 . S
C452 N449 1.346 . S
C452 C451 1.369 . S
C452 H455 0.928 . S
C453 N449 1.345 . S
C453 C454 1.371 . S
C453 H456 0.931 . S
C454 C450 1.391 . S
C454 C453 1.371 . S
C454 H461 0.930 . S
H455 C452 0.928 . S
H456 C453 0.931 . S
H457 C433 0.930 . S
H458 C430 0.930 . S
H459 C439 0.930 . S
H460 C451 0.929 . S
H461 C454 0.930 . S
C462 C463 1.351 . S
C462 N465 1.368 . S
C462 H467 0.931 . S
C463 C462 1.351 . S
C463 N464 1.373 . S
C463 H491 0.930 . S
N464 C463 1.373 . S
N464 C466 1.340 . S
N465 C462 1.368 . S
N465 C466 1.321 . S
N465 Co468 2.135 . S
C466 N464 1.340 . S
C466 N465 1.321 . S
C466 H490 0.930 . S
H467 C462 0.931 . S
Co468 N465 2.135 . S
Co468 N471 2.121 1_455 S
Co468 O476 2.055 . S
Co468 O479 2.039 . S
Co468 N482 2.140 1_455 S
C469 O470 1.227 . S
C469 O479 1.265 . S
O470 C469 1.227 . S
N471 Co468 2.121 1_655 S
N471 C473 1.375 . S
N471 C474 1.313 . S
C472 C473 1.338 . S
C472 N475 1.377 . S
C472 H492 0.930 . S
C473 N471 1.375 . S
C473 C472 1.338 . S
C473 H477 0.931 . S
C474 N471 1.313 . S
C474 N475 1.344 . S
C474 H478 0.930 . S
N475 C472 1.377 . S
N475 C474 1.344 . S
O476 Co468 2.055 . S
O476 C480 1.251 1_455 S
H477 C473 0.931 . S
H478 C474 0.930 . S
O479 Co468 2.039 . S
O479 C469 1.265 . S
C480 O476 1.251 1_655 S
C480 O481 1.227 . S
O481 C480 1.227 . S
N482 Co468 2.140 1_655 S
N482 C485 1.346 1_655 S
N482 C486 1.345 . S
C483 C484 1.387 1_655 S
C483 C487 1.391 . S
C484 C483 1.387 1_455 S
C484 C485 1.369 . S
C484 H493 0.929 . S
C485 N482 1.346 1_455 S
C485 C484 1.369 . S
C485 H488 0.928 . S
C486 N482 1.345 . S
C486 C487 1.371 . S
C486 H489 0.931 . S
C487 C483 1.391 . S
C487 C486 1.371 . S
C487 H494 0.930 . S
H488 C485 0.928 . S
H489 C486 0.931 . S
H490 C466 0.930 . S
H491 C463 0.930 . S
H492 C472 0.930 . S
H493 C484 0.929 . S
H494 C487 0.930 . S
C495 C496 1.351 . S
C495 N498 1.368 . S
C495 H500 0.931 . S
C496 C495 1.351 . S
C496 N497 1.373 . S
C496 H524 0.930 . S
N497 C496 1.373 . S
N497 C499 1.340 . S
N498 C495 1.368 . S
N498 C499 1.321 . S
N498 Co501 2.135 . S
C499 N497 1.340 . S
C499 N498 1.321 . S
C499 H523 0.930 . S
H500 C495 0.931 . S
Co501 N498 2.135 . S
Co501 N504 2.121 . S
Co501 O509 2.055 . S
Co501 O512 2.039 . S
Co501 N515 2.140 . S
C502 O503 1.227 . S
C502 O512 1.265 . S
O503 C502 1.227 . S
N504 Co501 2.121 . S
N504 C506 1.375 . S
N504 C507 1.313 . S
C505 C506 1.338 . S
C505 N508 1.377 . S
C505 H525 0.930 . S
C506 N504 1.375 . S
C506 C505 1.338 . S
C506 H510 0.931 . S
C507 N504 1.313 . S
C507 N508 1.344 . S
C507 H511 0.930 . S
N508 C505 1.377 . S
N508 C507 1.344 . S
O509 Co501 2.055 . S
O509 C513 1.253 . S
H510 C506 0.931 . S
H511 C507 0.930 . S
O512 Co501 2.039 . S
O512 C502 1.265 . S
C513 O509 1.253 . S
C513 O514 1.227 . S
O514 C513 1.227 . S
N515 Co501 2.140 . S
N515 C518 1.346 . S
N515 C519 1.345 . S
C516 C517 1.387 . S
C516 C520 1.391 . S
C517 C516 1.387 . S
C517 C518 1.369 . S
C517 H526 0.929 . S
C518 N515 1.346 . S
C518 C517 1.369 . S
C518 H521 0.928 . S
C519 N515 1.345 . S
C519 C520 1.371 . S
C519 H522 0.931 . S
C520 C516 1.391 . S
C520 C519 1.371 . S
C520 H527 0.930 . S
H521 C518 0.928 . S
H522 C519 0.931 . S
H523 C499 0.930 . S
H524 C496 0.930 . S
H525 C505 0.930 . S
H526 C517 0.929 . S
H527 C520 0.930 . S
C528 C529 1.351 . S
C528 N531 1.368 . S
C528 H533 0.931 . S
C529 C528 1.351 . S
C529 N530 1.373 . S
C529 H557 0.930 . S
N530 C529 1.373 . S
N530 C532 1.340 . S
N531 C528 1.368 . S
N531 C532 1.321 . S
N531 Co534 2.135 . S
C532 N530 1.340 . S
C532 N531 1.321 . S
C532 H556 0.930 . S
H533 C528 0.931 . S
Co534 N531 2.135 . S
Co534 N537 2.121 . S
Co534 O542 2.055 . S
Co534 O545 2.039 . S
Co534 N548 2.140 . S
C535 O536 1.227 . S
C535 O545 1.265 1_554 S
O536 C535 1.227 . S
N537 Co534 2.121 . S
N537 C539 1.375 . S
N537 C540 1.313 . S
C538 C539 1.338 . S
C538 N541 1.377 . S
C538 H558 0.930 . S
C539 N537 1.375 . S
C539 C538 1.338 . S
C539 H543 0.931 . S
C540 N537 1.313 . S
C540 N541 1.344 . S
C540 H544 0.930 . S
N541 C538 1.377 . S
N541 C540 1.344 . S
O542 Co534 2.055 . S
O542 C546 1.253 . S
H543 C539 0.931 . S
H544 C540 0.930 . S
O545 Co534 2.039 . S
O545 C535 1.265 1_556 S
C546 O542 1.253 . S
C546 O547 1.227 . S
O547 C546 1.227 . S
N548 Co534 2.140 . S
N548 C551 1.346 . S
N548 C552 1.345 . S
C549 C550 1.387 . S
C549 C553 1.391 . S
C550 C549 1.387 . S
C550 C551 1.369 . S
C550 H559 0.929 . S
C551 N548 1.346 . S
C551 C550 1.369 . S
C551 H554 0.928 . S
C552 N548 1.345 . S
C552 C553 1.371 . S
C552 H555 0.931 . S
C553 C549 1.391 . S
C553 C552 1.371 . S
C553 H560 0.930 . S
H554 C551 0.928 . S
H555 C552 0.931 . S
H556 C532 0.930 . S
H557 C529 0.930 . S
H558 C538 0.930 . S
H559 C550 0.929 . S
H560 C553 0.930 . S
C561 C562 1.351 . S
C561 N564 1.368 . S
C561 H566 0.931 . S
C562 C561 1.351 . S
C562 N563 1.373 . S
C562 H590 0.930 . S
N563 C562 1.373 . S
N563 C565 1.340 . S
N564 C561 1.368 . S
N564 C565 1.321 . S
N564 Co567 2.135 . S
C565 N563 1.340 . S
C565 N564 1.321 . S
C565 H589 0.930 . S
H566 C561 0.931 . S
Co567 N564 2.135 . S
Co567 N570 2.121 . S
Co567 O575 2.055 . S
Co567 O578 2.039 . S
Co567 N581 2.140 . S
C568 O569 1.227 . S
C568 O578 1.265 1_554 S
O569 C568 1.227 . S
N570 Co567 2.121 . S
N570 C572 1.375 . S
N570 C573 1.313 . S
C571 C572 1.338 . S
C571 N574 1.377 . S
C571 H591 0.930 . S
C572 N570 1.375 . S
C572 C571 1.338 . S
C572 H576 0.931 . S
C573 N570 1.313 . S
C573 N574 1.344 . S
C573 H577 0.930 . S
N574 C571 1.377 . S
N574 C573 1.344 . S
O575 Co567 2.055 . S
O575 C579 1.253 . S
H576 C572 0.931 . S
H577 C573 0.930 . S
O578 Co567 2.039 . S
O578 C568 1.265 1_556 S
C579 O575 1.253 . S
C579 O580 1.227 . S
O580 C579 1.227 . S
N581 Co567 2.140 . S
N581 C584 1.346 . S
N581 C585 1.345 . S
C582 C583 1.387 . S
C582 C586 1.391 . S
C583 C582 1.387 . S
C583 C584 1.369 . S
C583 H592 0.929 . S
C584 N581 1.346 . S
C584 C583 1.369 . S
C584 H587 0.928 . S
C585 N581 1.345 . S
C585 C586 1.371 . S
C585 H588 0.931 . S
C586 C582 1.391 . S
C586 C585 1.371 . S
C586 H593 0.930 . S
H587 C584 0.928 . S
H588 C585 0.931 . S
H589 C565 0.930 . S
H590 C562 0.930 . S
H591 C571 0.930 . S
H592 C583 0.929 . S
H593 C586 0.930 . S
C594 C595 1.351 . S
C594 N597 1.368 . S
C594 H599 0.931 . S
C595 C594 1.351 . S
C595 N596 1.373 . S
C595 H623 0.930 . S
N596 C595 1.373 . S
N596 C598 1.340 . S
N597 C594 1.368 . S
N597 C598 1.321 . S
N597 Co600 2.135 . S
C598 N596 1.340 . S
C598 N597 1.321 . S
C598 H622 0.930 . S
H599 C594 0.931 . S
Co600 N597 2.135 . S
Co600 N603 2.121 . S
Co600 O608 2.055 . S
Co600 O611 2.039 . S
Co600 N614 2.140 . S
C601 O602 1.227 . S
C601 O611 1.265 . S
O602 C601 1.227 . S
N603 Co600 2.121 . S
N603 C605 1.375 . S
N603 C606 1.313 . S
C604 C605 1.338 . S
C604 N607 1.377 . S
C604 H624 0.930 . S
C605 N603 1.375 . S
C605 C604 1.338 . S
C605 H609 0.931 . S
C606 N603 1.313 . S
C606 N607 1.344 . S
C606 H610 0.930 . S
N607 C604 1.377 . S
N607 C606 1.344 . S
O608 Co600 2.055 . S
O608 C612 1.253 . S
H609 C605 0.931 . S
H610 C606 0.930 . S
O611 Co600 2.039 . S
O611 C601 1.265 . S
C612 O608 1.253 . S
C612 O613 1.227 . S
O613 C612 1.227 . S
N614 Co600 2.140 . S
N614 C617 1.346 . S
N614 C618 1.345 . S
C615 C616 1.387 . S
C615 C619 1.391 . S
C616 C615 1.387 . S
C616 C617 1.369 . S
C616 H625 0.929 . S
C617 N614 1.346 . S
C617 C616 1.369 . S
C617 H620 0.928 . S
C618 N614 1.345 . S
C618 C619 1.371 . S
C618 H621 0.931 . S
C619 C615 1.391 . S
C619 C618 1.371 . S
C619 H626 0.930 . S
H620 C617 0.928 . S
H621 C618 0.931 . S
H622 C598 0.930 . S
H623 C595 0.930 . S
H624 C604 0.930 . S
H625 C616 0.929 . S
H626 C619 0.930 . S
C627 C628 1.351 . S
C627 N630 1.368 . S
C627 H632 0.931 . S
C628 C627 1.351 . S
C628 N629 1.373 . S
C628 H656 0.930 . S
N629 C628 1.373 . S
N629 C631 1.340 . S
N630 C627 1.368 . S
N630 C631 1.321 . S
N630 Co633 2.135 . S
C631 N629 1.340 . S
C631 N630 1.321 . S
C631 H655 0.930 . S
H632 C627 0.931 . S
Co633 N630 2.135 . S
Co633 N636 2.121 . S
Co633 O641 2.055 . S
Co633 O644 2.039 . S
Co633 N647 2.140 . S
C634 O635 1.227 . S
C634 O644 1.265 . S
O635 C634 1.227 . S
N636 Co633 2.121 . S
N636 C638 1.375 . S
N636 C639 1.313 . S
C637 C638 1.338 . S
C637 N640 1.377 . S
C637 H657 0.930 . S
C638 N636 1.375 . S
C638 C637 1.338 . S
C638 H642 0.931 . S
C639 N636 1.313 . S
C639 N640 1.344 . S
C639 H643 0.930 . S
N640 C637 1.377 . S
N640 C639 1.344 . S
O641 Co633 2.055 . S
O641 C645 1.253 . S
H642 C638 0.931 . S
H643 C639 0.930 . S
O644 Co633 2.039 . S
O644 C634 1.265 . S
C645 O641 1.253 . S
C645 O646 1.227 . S
O646 C645 1.227 . S
N647 Co633 2.140 . S
N647 C650 1.346 . S
N647 C651 1.345 . S
C648 C649 1.387 . S
C648 C652 1.391 . S
C649 C648 1.387 . S
C649 C650 1.369 . S
C649 H658 0.929 . S
C650 N647 1.346 . S
C650 C649 1.369 . S
C650 H653 0.928 . S
C651 N647 1.345 . S
C651 C652 1.371 . S
C651 H654 0.931 . S
C652 C648 1.391 . S
C652 C651 1.371 . S
C652 H659 0.930 . S
H653 C650 0.928 . S
H654 C651 0.931 . S
H655 C631 0.930 . S
H656 C628 0.930 . S
H657 C637 0.930 . S
H658 C649 0.929 . S
H659 C652 0.930 . S
C660 C661 1.351 . S
C660 N663 1.368 . S
C660 H665 0.931 . S
C661 C660 1.351 . S
C661 N662 1.373 . S
C661 H689 0.930 . S
N662 C661 1.373 . S
N662 C664 1.340 . S
N663 C660 1.368 . S
N663 C664 1.321 . S
N663 Co666 2.135 . S
C664 N662 1.340 . S
C664 N663 1.321 . S
C664 H688 0.930 . S
H665 C660 0.931 . S
Co666 N663 2.135 . S
Co666 N669 2.121 . S
Co666 O674 2.055 . S
Co666 O677 2.039 . S
Co666 N680 2.140 . S
C667 O668 1.227 . S
C667 O677 1.265 1_556 S
O668 C667 1.227 . S
N669 Co666 2.121 . S
N669 C671 1.375 . S
N669 C672 1.313 . S
C670 C671 1.338 . S
C670 N673 1.377 . S
C670 H690 0.930 . S
C671 N669 1.375 . S
C671 C670 1.338 . S
C671 H675 0.931 . S
C672 N669 1.313 . S
C672 N673 1.344 . S
C672 H676 0.930 . S
N673 C670 1.377 . S
N673 C672 1.344 . S
O674 Co666 2.055 . S
O674 C678 1.253 . S
H675 C671 0.931 . S
H676 C672 0.930 . S
O677 Co666 2.039 . S
O677 C667 1.265 1_554 S
C678 O674 1.253 . S
C678 O679 1.227 . S
O679 C678 1.227 . S
N680 Co666 2.140 . S
N680 C683 1.346 . S
N680 C684 1.345 . S
C681 C682 1.387 . S
C681 C685 1.391 . S
C682 C681 1.387 . S
C682 C683 1.369 . S
C682 H691 0.929 . S
C683 N680 1.346 . S
C683 C682 1.369 . S
C683 H686 0.928 . S
C684 N680 1.345 . S
C684 C685 1.371 . S
C684 H687 0.931 . S
C685 C681 1.391 . S
C685 C684 1.371 . S
C685 H692 0.930 . S
H686 C683 0.928 . S
H687 C684 0.931 . S
H688 C664 0.930 . S
H689 C661 0.930 . S
H690 C670 0.930 . S
H691 C682 0.929 . S
H692 C685 0.930 . S
C693 C694 1.351 . S
C693 N696 1.368 . S
C693 H698 0.931 . S
C694 C693 1.351 . S
C694 N695 1.373 . S
C694 H722 0.930 . S
N695 C694 1.373 . S
N695 C697 1.340 . S
N696 C693 1.368 . S
N696 C697 1.321 . S
N696 Co699 2.135 . S
C697 N695 1.340 . S
C697 N696 1.321 . S
C697 H721 0.930 . S
H698 C693 0.931 . S
Co699 N696 2.135 . S
Co699 N702 2.121 . S
Co699 O707 2.055 . S
Co699 O710 2.039 . S
Co699 N713 2.140 . S
C700 O701 1.227 . S
C700 O710 1.265 1_556 S
O701 C700 1.227 . S
N702 Co699 2.121 . S
N702 C704 1.375 . S
N702 C705 1.313 . S
C703 C704 1.338 . S
C703 N706 1.377 . S
C703 H723 0.930 . S
C704 N702 1.375 . S
C704 C703 1.338 . S
C704 H708 0.931 . S
C705 N702 1.313 . S
C705 N706 1.344 . S
C705 H709 0.930 . S
N706 C703 1.377 . S
N706 C705 1.344 . S
O707 Co699 2.055 . S
O707 C711 1.253 . S
H708 C704 0.931 . S
H709 C705 0.930 . S
O710 Co699 2.039 . S
O710 C700 1.265 1_554 S
C711 O707 1.253 . S
C711 O712 1.227 . S
O712 C711 1.227 . S
N713 Co699 2.140 . S
N713 C716 1.346 . S
N713 C717 1.345 . S
C714 C715 1.387 . S
C714 C718 1.391 . S
C715 C714 1.387 . S
C715 C716 1.369 . S
C715 H724 0.929 . S
C716 N713 1.346 . S
C716 C715 1.369 . S
C716 H719 0.928 . S
C717 N713 1.345 . S
C717 C718 1.371 . S
C717 H720 0.931 . S
C718 C714 1.391 . S
C718 C717 1.371 . S
C718 H725 0.930 . S
H719 C716 0.928 . S
H720 C717 0.931 . S
H721 C697 0.930 . S
H722 C694 0.930 . S
H723 C703 0.930 . S
H724 C715 0.929 . S
H725 C718 0.930 . S
C726 C727 1.351 . S
C726 N729 1.368 . S
C726 H731 0.931 . S
C727 C726 1.351 . S
C727 N728 1.373 . S
C727 H755 0.930 . S
N728 C727 1.373 . S
N728 C730 1.340 . S
N729 C726 1.368 . S
N729 C730 1.321 . S
N729 Co732 2.135 . S
C730 N728 1.340 . S
C730 N729 1.321 . S
C730 H754 0.930 . S
H731 C726 0.931 . S
Co732 N729 2.135 . S
Co732 N735 2.121 . S
Co732 O740 2.055 . S
Co732 O743 2.039 . S
Co732 N746 2.140 . S
C733 O734 1.227 . S
C733 O743 1.265 . S
O734 C733 1.227 . S
N735 Co732 2.121 . S
N735 C737 1.375 . S
N735 C738 1.313 . S
C736 C737 1.338 . S
C736 N739 1.377 . S
C736 H756 0.930 . S
C737 N735 1.375 . S
C737 C736 1.338 . S
C737 H741 0.931 . S
C738 N735 1.313 . S
C738 N739 1.344 . S
C738 H742 0.930 . S
N739 C736 1.377 . S
N739 C738 1.344 . S
O740 Co732 2.055 . S
O740 C744 1.253 . S
H741 C737 0.931 . S
H742 C738 0.930 . S
O743 Co732 2.039 . S
O743 C733 1.265 . S
C744 O740 1.253 . S
C744 O745 1.227 . S
O745 C744 1.227 . S
N746 Co732 2.140 . S
N746 C749 1.346 . S
N746 C750 1.345 . S
C747 C748 1.387 . S
C747 C751 1.391 . S
C748 C747 1.387 . S
C748 C749 1.369 . S
C748 H757 0.929 . S
C749 N746 1.346 . S
C749 C748 1.369 . S
C749 H752 0.928 . S
C750 N746 1.345 . S
C750 C751 1.371 . S
C750 H753 0.931 . S
C751 C747 1.391 . S
C751 C750 1.371 . S
C751 H758 0.930 . S
H752 C749 0.928 . S
H753 C750 0.931 . S
H754 C730 0.930 . S
H755 C727 0.930 . S
H756 C736 0.930 . S
H757 C748 0.929 . S
H758 C751 0.930 . S
C759 C760 1.351 . S
C759 N762 1.368 . S
C759 H764 0.931 . S
C760 C759 1.351 . S
C760 N761 1.373 . S
C760 H788 0.930 . S
N761 C760 1.373 . S
N761 C763 1.340 . S
N762 C759 1.368 . S
N762 C763 1.321 . S
N762 Co765 2.135 . S
C763 N761 1.340 . S
C763 N762 1.321 . S
C763 H787 0.930 . S
H764 C759 0.931 . S
Co765 N762 2.135 . S
Co765 N768 2.121 . S
Co765 O773 2.055 . S
Co765 O776 2.039 . S
Co765 N779 2.140 . S
C766 O767 1.227 . S
C766 O776 1.265 . S
O767 C766 1.227 . S
N768 Co765 2.121 . S
N768 C770 1.375 . S
N768 C771 1.313 . S
C769 C770 1.338 . S
C769 N772 1.377 . S
C769 H789 0.930 . S
C770 N768 1.375 . S
C770 C769 1.338 . S
C770 H774 0.931 . S
C771 N768 1.313 . S
C771 N772 1.344 . S
C771 H775 0.930 . S
N772 C769 1.377 . S
N772 C771 1.344 . S
O773 Co765 2.055 . S
O773 C777 1.253 . S
H774 C770 0.931 . S
H775 C771 0.930 . S
O776 Co765 2.039 . S
O776 C766 1.265 . S
C777 O773 1.253 . S
C777 O778 1.227 . S
O778 C777 1.227 . S
N779 Co765 2.140 . S
N779 C782 1.346 . S
N779 C783 1.345 . S
C780 C781 1.387 . S
C780 C784 1.391 . S
C781 C780 1.387 . S
C781 C782 1.369 . S
C781 H790 0.929 . S
C782 N779 1.346 . S
C782 C781 1.369 . S
C782 H785 0.928 . S
C783 N779 1.345 . S
C783 C784 1.371 . S
C783 H786 0.931 . S
C784 C780 1.391 . S
C784 C783 1.371 . S
C784 H791 0.930 . S
H785 C782 0.928 . S
H786 C783 0.931 . S
H787 C763 0.930 . S
H788 C760 0.930 . S
H789 C769 0.930 . S
H790 C781 0.929 . S
H791 C784 0.930 . S
C792 C793 1.351 . S
C792 N795 1.368 . S
C792 H797 0.931 . S
C793 C792 1.351 . S
C793 N794 1.373 . S
C793 H821 0.930 . S
N794 C793 1.373 . S
N794 C796 1.340 . S
N795 C792 1.368 . S
N795 C796 1.321 . S
N795 Co798 2.135 . S
C796 N794 1.340 . S
C796 N795 1.321 . S
C796 H820 0.930 . S
H797 C792 0.931 . S
Co798 N795 2.135 . S
Co798 N801 2.121 . S
Co798 O806 2.055 . S
Co798 O809 2.039 . S
Co798 N812 2.140 . S
C799 O800 1.227 . S
C799 O809 1.265 . S
O800 C799 1.227 . S
N801 Co798 2.121 . S
N801 C803 1.375 . S
N801 C804 1.313 . S
C802 C803 1.338 . S
C802 N805 1.377 . S
C802 H822 0.930 . S
C803 N801 1.375 . S
C803 C802 1.338 . S
C803 H807 0.931 . S
C804 N801 1.313 . S
C804 N805 1.344 . S
C804 H808 0.930 . S
N805 C802 1.377 . S
N805 C804 1.344 . S
O806 Co798 2.055 . S
O806 C810 1.253 . S
H807 C803 0.931 . S
H808 C804 0.930 . S
O809 Co798 2.039 . S
O809 C799 1.265 . S
C810 O806 1.253 . S
C810 O811 1.227 . S
O811 C810 1.227 . S
N812 Co798 2.140 . S
N812 C815 1.346 . S
N812 C816 1.345 . S
C813 C814 1.387 . S
C813 C817 1.391 . S
C814 C813 1.387 . S
C814 C815 1.369 . S
C814 H823 0.929 . S
C815 N812 1.346 . S
C815 C814 1.369 . S
C815 H818 0.928 . S
C816 N812 1.345 . S
C816 C817 1.371 . S
C816 H819 0.931 . S
C817 C813 1.391 . S
C817 C816 1.371 . S
C817 H824 0.930 . S
H818 C815 0.928 . S
H819 C816 0.931 . S
H820 C796 0.930 . S
H821 C793 0.930 . S
H822 C802 0.930 . S
H823 C814 0.929 . S
H824 C817 0.930 . S
C825 C826 1.351 . S
C825 N828 1.368 . S
C825 H830 0.931 . S
C826 C825 1.351 . S
C826 N827 1.373 . S
C826 H854 0.930 . S
N827 C826 1.373 . S
N827 C829 1.340 . S
N828 C825 1.368 . S
N828 C829 1.321 . S
N828 Co831 2.135 . S
C829 N827 1.340 . S
C829 N828 1.321 . S
C829 H853 0.930 . S
H830 C825 0.931 . S
Co831 N828 2.135 . S
Co831 N834 2.121 . S
Co831 O839 2.055 . S
Co831 O842 2.039 . S
Co831 N845 2.140 . S
C832 O833 1.227 . S
C832 O842 1.265 . S
O833 C832 1.227 . S
N834 Co831 2.121 . S
N834 C836 1.375 . S
N834 C837 1.313 . S
C835 C836 1.338 . S
C835 N838 1.377 . S
C835 H855 0.930 . S
C836 N834 1.375 . S
C836 C835 1.338 . S
C836 H840 0.931 . S
C837 N834 1.313 . S
C837 N838 1.344 . S
C837 H841 0.930 . S
N838 C835 1.377 . S
N838 C837 1.344 . S
O839 Co831 2.055 . S
O839 C843 1.253 . S
H840 C836 0.931 . S
H841 C837 0.930 . S
O842 Co831 2.039 . S
O842 C832 1.265 . S
C843 O839 1.253 . S
C843 O844 1.227 . S
O844 C843 1.227 . S
N845 Co831 2.140 . S
N845 C848 1.346 . S
N845 C849 1.345 . S
C846 C847 1.387 . S
C846 C850 1.391 . S
C847 C846 1.387 . S
C847 C848 1.369 . S
C847 H856 0.929 . S
C848 N845 1.346 . S
C848 C847 1.369 . S
C848 H851 0.928 . S
C849 N845 1.345 . S
C849 C850 1.371 . S
C849 H852 0.931 . S
C850 C846 1.391 . S
C850 C849 1.371 . S
C850 H857 0.930 . S
H851 C848 0.928 . S
H852 C849 0.931 . S
H853 C829 0.930 . S
H854 C826 0.930 . S
H855 C835 0.930 . S
H856 C847 0.929 . S
H857 C850 0.930 . S
C858 C859 1.351 . S
C858 N861 1.368 . S
C858 H863 0.931 . S
C859 C858 1.351 . S
C859 N860 1.373 . S
C859 H887 0.930 . S
N860 C859 1.373 . S
N860 C862 1.340 . S
N861 C858 1.368 . S
N861 C862 1.321 . S
N861 Co864 2.135 . S
C862 N860 1.340 . S
C862 N861 1.321 . S
C862 H886 0.930 . S
H863 C858 0.931 . S
Co864 N861 2.135 . S
Co864 N867 2.121 . S
Co864 O872 2.055 . S
Co864 O875 2.039 . S
Co864 N878 2.140 . S
C865 O866 1.227 . S
C865 O875 1.265 . S
O866 C865 1.227 . S
N867 Co864 2.121 . S
N867 C869 1.375 . S
N867 C870 1.313 . S
C868 C869 1.338 . S
C868 N871 1.377 . S
C868 H888 0.930 . S
C869 N867 1.375 . S
C869 C868 1.338 . S
C869 H873 0.931 . S
C870 N867 1.313 . S
C870 N871 1.344 . S
C870 H874 0.930 . S
N871 C868 1.377 . S
N871 C870 1.344 . S
O872 Co864 2.055 . S
O872 C876 1.253 1_556 S
H873 C869 0.931 . S
H874 C870 0.930 . S
O875 Co864 2.039 . S
O875 C865 1.265 . S
C876 O872 1.253 1_554 S
C876 O877 1.227 1_554 S
O877 C876 1.227 1_556 S
N878 Co864 2.140 . S
N878 C881 1.346 . S
N878 C882 1.345 . S
C879 C880 1.387 . S
C879 C883 1.391 . S
C880 C879 1.387 . S
C880 C881 1.369 . S
C880 H889 0.929 . S
C881 N878 1.346 . S
C881 C880 1.369 . S
C881 H884 0.928 . S
C882 N878 1.345 . S
C882 C883 1.371 . S
C882 H885 0.931 . S
C883 C879 1.391 . S
C883 C882 1.371 . S
C883 H890 0.930 . S
H884 C881 0.928 . S
H885 C882 0.931 . S
H886 C862 0.930 . S
H887 C859 0.930 . S
H888 C868 0.930 . S
H889 C880 0.929 . S
H890 C883 0.930 . S
C891 C892 1.351 . S
C891 N894 1.368 . S
C891 H896 0.931 . S
C892 C891 1.351 . S
C892 N893 1.373 . S
C892 H920 0.930 . S
N893 C892 1.373 . S
N893 C895 1.340 . S
N894 C891 1.368 . S
N894 C895 1.321 . S
N894 Co897 2.135 . S
C895 N893 1.340 . S
C895 N894 1.321 . S
C895 H919 0.930 . S
H896 C891 0.931 . S
Co897 N894 2.135 . S
Co897 N900 2.121 . S
Co897 O905 2.055 . S
Co897 O908 2.039 . S
Co897 N911 2.140 . S
C898 O899 1.227 . S
C898 O908 1.265 . S
O899 C898 1.227 . S
N900 Co897 2.121 . S
N900 C902 1.375 . S
N900 C903 1.313 . S
C901 C902 1.338 . S
C901 N904 1.377 . S
C901 H921 0.930 . S
C902 N900 1.375 . S
C902 C901 1.338 . S
C902 H906 0.931 . S
C903 N900 1.313 . S
C903 N904 1.344 . S
C903 H907 0.930 . S
N904 C901 1.377 . S
N904 C903 1.344 . S
O905 Co897 2.055 . S
O905 C909 1.253 1_556 S
H906 C902 0.931 . S
H907 C903 0.930 . S
O908 Co897 2.039 . S
O908 C898 1.265 . S
C909 O905 1.253 1_554 S
C909 O910 1.227 1_554 S
O910 C909 1.227 1_556 S
N911 Co897 2.140 . S
N911 C914 1.346 . S
N911 C915 1.345 . S
C912 C913 1.387 . S
C912 C916 1.391 . S
C913 C912 1.387 . S
C913 C914 1.369 . S
C913 H922 0.929 . S
C914 N911 1.346 . S
C914 C913 1.369 . S
C914 H917 0.928 . S
C915 N911 1.345 . S
C915 C916 1.371 . S
C915 H918 0.931 . S
C916 C912 1.391 . S
C916 C915 1.371 . S
C916 H923 0.930 . S
H917 C914 0.928 . S
H918 C915 0.931 . S
H919 C895 0.930 . S
H920 C892 0.930 . S
H921 C901 0.930 . S
H922 C913 0.929 . S
H923 C916 0.930 . S
C924 C925 1.351 . S
C924 N927 1.368 . S
C924 H929 0.931 . S
C925 C924 1.351 . S
C925 N926 1.373 . S
C925 H953 0.930 . S
N926 C925 1.373 . S
N926 C928 1.340 . S
N927 C924 1.368 . S
N927 C928 1.321 . S
N927 Co930 2.135 . S
C928 N926 1.340 . S
C928 N927 1.321 . S
C928 H952 0.930 . S
H929 C924 0.931 . S
Co930 N927 2.135 . S
Co930 N933 2.121 . S
Co930 O938 2.055 . S
Co930 O941 2.039 . S
Co930 N944 2.140 . S
C931 O932 1.227 . S
C931 O941 1.265 . S
O932 C931 1.227 . S
N933 Co930 2.121 . S
N933 C935 1.375 . S
N933 C936 1.313 . S
C934 C935 1.338 . S
C934 N937 1.377 . S
C934 H954 0.930 . S
C935 N933 1.375 . S
C935 C934 1.338 . S
C935 H939 0.931 . S
C936 N933 1.313 . S
C936 N937 1.344 . S
C936 H940 0.930 . S
N937 C934 1.377 . S
N937 C936 1.344 . S
O938 Co930 2.055 . S
O938 C942 1.253 . S
H939 C935 0.931 . S
H940 C936 0.930 . S
O941 Co930 2.039 . S
O941 C931 1.265 . S
C942 O938 1.253 . S
C942 O943 1.227 . S
O943 C942 1.227 . S
N944 Co930 2.140 . S
N944 C947 1.346 . S
N944 C948 1.345 . S
C945 C946 1.387 . S
C945 C949 1.391 . S
C946 C945 1.387 . S
C946 C947 1.369 . S
C946 H955 0.929 . S
C947 N944 1.346 . S
C947 C946 1.369 . S
C947 H950 0.928 . S
C948 N944 1.345 . S
C948 C949 1.371 . S
C948 H951 0.931 . S
C949 C945 1.391 . S
C949 C948 1.371 . S
C949 H956 0.930 . S
H950 C947 0.928 . S
H951 C948 0.931 . S
H952 C928 0.930 . S
H953 C925 0.930 . S
H954 C934 0.930 . S
H955 C946 0.929 . S
H956 C949 0.930 . S
C957 C958 1.351 . S
C957 N960 1.368 . S
C957 H962 0.931 . S
C958 C957 1.351 . S
C958 N959 1.373 . S
C958 H986 0.930 . S
N959 C958 1.373 . S
N959 C961 1.340 . S
N960 C957 1.368 . S
N960 C961 1.321 . S
N960 Co963 2.135 . S
C961 N959 1.340 . S
C961 N960 1.321 . S
C961 H985 0.930 . S
H962 C957 0.931 . S
Co963 N960 2.135 . S
Co963 N966 2.121 . S
Co963 O971 2.055 . S
Co963 O974 2.039 . S
Co963 N977 2.140 . S
C964 O965 1.227 . S
C964 O974 1.265 . S
O965 C964 1.227 . S
N966 Co963 2.121 . S
N966 C968 1.375 . S
N966 C969 1.313 . S
C967 C968 1.338 . S
C967 N970 1.377 . S
C967 H987 0.930 . S
C968 N966 1.375 . S
C968 C967 1.338 . S
C968 H972 0.931 . S
C969 N966 1.313 . S
C969 N970 1.344 . S
C969 H973 0.930 . S
N970 C967 1.377 . S
N970 C969 1.344 . S
O971 Co963 2.055 . S
O971 C975 1.253 . S
H972 C968 0.931 . S
H973 C969 0.930 . S
O974 Co963 2.039 . S
O974 C964 1.265 . S
C975 O971 1.253 . S
C975 O976 1.227 . S
O976 C975 1.227 . S
N977 Co963 2.140 . S
N977 C980 1.346 . S
N977 C981 1.345 . S
C978 C979 1.387 . S
C978 C982 1.391 . S
C979 C978 1.387 . S
C979 C980 1.369 . S
C979 H988 0.929 . S
C980 N977 1.346 . S
C980 C979 1.369 . S
C980 H983 0.928 . S
C981 N977 1.345 . S
C981 C982 1.371 . S
C981 H984 0.931 . S
C982 C978 1.391 . S
C982 C981 1.371 . S
C982 H989 0.930 . S
H983 C980 0.928 . S
H984 C981 0.931 . S
H985 C961 0.930 . S
H986 C958 0.930 . S
H987 C967 0.930 . S
H988 C979 0.929 . S
H989 C982 0.930 . S
C990 C991 1.351 . S
C990 N993 1.368 . S
C990 H995 0.931 . S
C991 C990 1.351 . S
C991 N992 1.373 . S
C991 H1019 0.930 . S
N992 C991 1.373 . S
N992 C994 1.340 . S
N993 C990 1.368 . S
N993 C994 1.321 . S
N993 Co996 2.135 . S
C994 N992 1.340 . S
C994 N993 1.321 . S
C994 H1018 0.930 . S
H995 C990 0.931 . S
Co996 N993 2.135 . S
Co996 N999 2.121 . S
Co996 O1004 2.055 . S
Co996 O1007 2.039 . S
Co996 N1010 2.140 . S
C997 O998 1.227 . S
C997 O1007 1.265 . S
O998 C997 1.227 . S
N999 Co996 2.121 . S
N999 C1001 1.375 . S
N999 C1002 1.313 . S
C1000 C1001 1.338 . S
C1000 N1003 1.377 . S
C1000 H1020 0.930 . S
C1001 N999 1.375 . S
C1001 C1000 1.338 . S
C1001 H1005 0.931 . S
C1002 N999 1.313 . S
C1002 N1003 1.344 . S
C1002 H1006 0.930 . S
N1003 C1000 1.377 . S
N1003 C1002 1.344 . S
O1004 Co996 2.055 . S
O1004 C1008 1.253 1_554 S
H1005 C1001 0.931 . S
H1006 C1002 0.930 . S
O1007 Co996 2.039 . S
O1007 C997 1.265 . S
C1008 O1004 1.253 1_556 S
C1008 O1009 1.227 1_556 S
O1009 C1008 1.227 1_554 S
N1010 Co996 2.140 . S
N1010 C1013 1.346 . S
N1010 C1014 1.345 . S
C1011 C1012 1.387 . S
C1011 C1015 1.391 . S
C1012 C1011 1.387 . S
C1012 C1013 1.369 . S
C1012 H1021 0.929 . S
C1013 N1010 1.346 . S
C1013 C1012 1.369 . S
C1013 H1016 0.928 . S
C1014 N1010 1.345 . S
C1014 C1015 1.371 . S
C1014 H1017 0.931 . S
C1015 C1011 1.391 . S
C1015 C1014 1.371 . S
C1015 H1022 0.930 . S
H1016 C1013 0.928 . S
H1017 C1014 0.931 . S
H1018 C994 0.930 . S
H1019 C991 0.930 . S
H1020 C1000 0.930 . S
H1021 C1012 0.929 . S
H1022 C1015 0.930 . S
C1023 C1024 1.351 . S
C1023 N1026 1.368 . S
C1023 H1028 0.931 . S
C1024 C1023 1.351 . S
C1024 N1025 1.373 . S
C1024 H1052 0.930 . S
N1025 C1024 1.373 . S
N1025 C1027 1.340 . S
N1026 C1023 1.368 . S
N1026 C1027 1.321 . S
N1026 Co1029 2.135 . S
C1027 N1025 1.340 . S
C1027 N1026 1.321 . S
C1027 H1051 0.930 . S
H1028 C1023 0.931 . S
Co1029 N1026 2.135 . S
Co1029 N1032 2.121 . S
Co1029 O1037 2.055 . S
Co1029 O1040 2.039 . S
Co1029 N1043 2.140 . S
C1030 O1031 1.227 . S
C1030 O1040 1.265 . S
O1031 C1030 1.227 . S
N1032 Co1029 2.121 . S
N1032 C1034 1.375 . S
N1032 C1035 1.313 . S
C1033 C1034 1.338 . S
C1033 N1036 1.377 . S
C1033 H1053 0.930 . S
C1034 N1032 1.375 . S
C1034 C1033 1.338 . S
C1034 H1038 0.931 . S
C1035 N1032 1.313 . S
C1035 N1036 1.344 . S
C1035 H1039 0.930 . S
N1036 C1033 1.377 . S
N1036 C1035 1.344 . S
O1037 Co1029 2.055 . S
O1037 C1041 1.253 1_554 S
H1038 C1034 0.931 . S
H1039 C1035 0.930 . S
O1040 Co1029 2.039 . S
O1040 C1030 1.265 . S
C1041 O1037 1.253 1_556 S
C1041 O1042 1.227 1_556 S
O1042 C1041 1.227 1_554 S
N1043 Co1029 2.140 . S
N1043 C1046 1.346 . S
N1043 C1047 1.345 . S
C1044 C1045 1.387 . S
C1044 C1048 1.391 . S
C1045 C1044 1.387 . S
C1045 C1046 1.369 . S
C1045 H1054 0.929 . S
C1046 N1043 1.346 . S
C1046 C1045 1.369 . S
C1046 H1049 0.928 . S
C1047 N1043 1.345 . S
C1047 C1048 1.371 . S
C1047 H1050 0.931 . S
C1048 C1044 1.391 . S
C1048 C1047 1.371 . S
C1048 H1055 0.930 . S
H1049 C1046 0.928 . S
H1050 C1047 0.931 . S
H1051 C1027 0.930 . S
H1052 C1024 0.930 . S
H1053 C1033 0.930 . S
H1054 C1045 0.929 . S
H1055 C1048 0.930 . S
C1056 C1057 1.363 . S
C1056 C1062 1.379 . S
C1056 N1064 1.356 . S
C1057 C1056 1.363 . S
C1057 C1063 1.379 . S
C1058 C1059 1.379 . S
C1058 C1063 1.379 . S
C1058 N1065 1.345 1_655 S
C1059 C1058 1.379 . S
C1059 C1062 1.363 . S
N1060 C1062 1.356 . S
N1060 H1072 0.984 . S
N1060 H1073 0.985 . S
N1061 C1063 1.345 1_455 S
N1061 H1066 0.984 . S
N1061 H1067 0.985 . S
C1062 C1056 1.379 . S
C1062 C1059 1.363 . S
C1062 N1060 1.356 . S
C1063 C1057 1.379 . S
C1063 C1058 1.379 . S
C1063 N1061 1.345 1_655 S
N1064 C1056 1.356 . S
N1064 H1070 0.984 . S
N1064 H1071 0.984 . S
N1065 C1058 1.345 1_455 S
N1065 H1068 0.984 . S
N1065 H1069 0.985 . S
H1066 N1061 0.984 . S
H1067 N1061 0.985 . S
H1068 N1065 0.984 . S
H1069 N1065 0.985 . S
H1070 N1064 0.984 . S
H1071 N1064 0.984 . S
H1072 N1060 0.984 . S
H1073 N1060 0.985 . S
C1074 C1075 1.363 . S
C1074 C1080 1.379 . S
C1074 N1082 1.356 . S
C1075 C1074 1.363 . S
C1075 C1081 1.363 . S
C1076 C1077 1.363 . S
C1076 C1081 1.379 . S
C1076 N1083 1.356 . S
C1077 C1076 1.363 . S
C1077 C1080 1.363 . S
N1078 C1080 1.356 . S
N1078 H1090 0.984 . S
N1078 H1091 0.985 . S
N1079 C1081 1.356 . S
N1079 H1084 0.984 . S
N1079 H1085 0.985 . S
C1080 C1074 1.379 . S
C1080 C1077 1.363 . S
C1080 N1078 1.356 . S
C1081 C1075 1.363 . S
C1081 C1076 1.379 . S
C1081 N1079 1.356 . S
N1082 C1074 1.356 . S
N1082 H1088 0.984 . S
N1082 H1089 0.984 . S
N1083 C1076 1.356 . S
N1083 H1086 0.984 . S
N1083 H1087 0.985 . S
H1084 N1079 0.984 . S
H1085 N1079 0.985 . S
H1086 N1083 0.984 . S
H1087 N1083 0.985 . S
H1088 N1082 0.984 . S
H1089 N1082 0.984 . S
H1090 N1078 0.984 . S
H1091 N1078 0.985 . S
C1092 C1093 1.381 . S
C1092 C1098 1.379 . S
C1092 N1100 1.344 1_455 S
C1093 C1092 1.381 . S
C1093 C1099 1.363 . S
C1094 C1095 1.363 . S
C1094 C1099 1.379 . S
C1094 N1101 1.356 . S
C1095 C1094 1.363 . S
C1095 C1098 1.381 . S
N1096 C1098 1.344 1_655 S
N1096 H1108 0.984 . S
N1096 H1109 0.985 . S
N1097 C1099 1.356 . S
N1097 H1102 0.984 . S
N1097 H1103 0.985 . S
C1098 C1092 1.379 . S
C1098 C1095 1.381 . S
C1098 N1096 1.344 1_455 S
C1099 C1093 1.363 . S
C1099 C1094 1.379 . S
C1099 N1097 1.356 . S
N1100 C1092 1.344 1_655 S
N1100 H1106 0.984 . S
N1100 H1107 0.984 . S
N1101 C1094 1.356 . S
N1101 H1104 0.984 . S
N1101 H1105 0.985 . S
H1102 N1097 0.984 . S
H1103 N1097 0.985 . S
H1104 N1101 0.984 . S
H1105 N1101 0.985 . S
H1106 N1100 0.984 . S
H1107 N1100 0.984 . S
H1108 N1096 0.984 . S
H1109 N1096 0.985 . S
C1110 C1111 1.363 . S
C1110 C1116 1.379 . S
C1110 N1118 1.356 . S
C1111 C1110 1.363 . S
C1111 C1117 1.363 . S
C1112 C1113 1.363 . S
C1112 C1117 1.379 . S
C1112 N1119 1.356 . S
C1113 C1112 1.363 . S
C1113 C1116 1.363 . S
N1114 C1116 1.356 . S
N1114 H1126 0.984 . S
N1114 H1127 0.985 . S
N1115 C1117 1.356 . S
N1115 H1120 0.984 . S
N1115 H1121 0.985 . S
C1116 C1110 1.379 . S
C1116 C1113 1.363 . S
C1116 N1114 1.356 . S
C1117 C1111 1.363 . S
C1117 C1112 1.379 . S
C1117 N1115 1.356 . S
N1118 C1110 1.356 . S
N1118 H1124 0.984 . S
N1118 H1125 0.984 . S
N1119 C1112 1.356 . S
N1119 H1122 0.984 . S
N1119 H1123 0.985 . S
H1120 N1115 0.984 . S
H1121 N1115 0.985 . S
H1122 N1119 0.984 . S
H1123 N1119 0.985 . S
H1124 N1118 0.984 . S
H1125 N1118 0.984 . S
H1126 N1114 0.984 . S
H1127 N1114 0.985 . S
C1128 C1129 1.363 . S
C1128 C1134 1.379 . S
C1128 N1136 1.356 . S
C1129 C1128 1.363 . S
C1129 C1135 1.363 . S
C1130 C1131 1.363 . S
C1130 C1135 1.379 . S
C1130 N1137 1.356 1_655 S
C1131 C1130 1.363 . S
C1131 C1134 1.363 . S
N1132 C1134 1.356 . S
N1132 H1144 0.984 . S
N1132 H1145 0.985 1_554 S
N1133 C1135 1.356 1_455 S
N1133 H1138 0.984 . S
N1133 H1139 0.985 . S
C1134 C1128 1.379 . S
C1134 C1131 1.363 . S
C1134 N1132 1.356 . S
C1135 C1129 1.363 . S
C1135 C1130 1.379 . S
C1135 N1133 1.356 1_655 S
N1136 C1128 1.356 . S
N1136 H1142 0.984 . S
N1136 H1143 0.984 . S
N1137 C1130 1.356 1_455 S
N1137 H1140 0.984 . S
N1137 H1141 0.985 . S
H1138 N1133 0.984 . S
H1139 N1133 0.985 . S
H1140 N1137 0.984 . S
H1141 N1137 0.985 . S
H1142 N1136 0.984 . S
H1143 N1136 0.984 . S
H1144 N1132 0.984 . S
H1145 N1132 0.985 1_556 S
C1146 C1147 1.363 . S
C1146 C1152 1.379 . S
C1146 N1154 1.356 . S
C1147 C1146 1.363 . S
C1147 C1153 1.363 . S
C1148 C1149 1.363 . S
C1148 C1153 1.379 . S
C1148 N1155 1.356 . S
C1149 C1148 1.363 . S
C1149 C1152 1.363 . S
N1150 C1152 1.356 . S
N1150 H1162 0.984 . S
N1150 H1163 0.985 . S
N1151 C1153 1.356 . S
N1151 H1156 0.984 . S
N1151 H1157 0.985 . S
C1152 C1146 1.379 . S
C1152 C1149 1.363 . S
C1152 N1150 1.356 . S
C1153 C1147 1.363 . S
C1153 C1148 1.379 . S
C1153 N1151 1.356 . S
N1154 C1146 1.356 . S
N1154 H1160 0.984 . S
N1154 H1161 0.984 1_554 S
N1155 C1148 1.356 . S
N1155 H1158 0.984 . S
N1155 H1159 0.985 . S
H1156 N1151 0.984 . S
H1157 N1151 0.985 . S
H1158 N1155 0.984 . S
H1159 N1155 0.985 . S
H1160 N1154 0.984 . S
H1161 N1154 0.984 1_556 S
H1162 N1150 0.984 . S
H1163 N1150 0.985 . S
C1164 C1165 1.363 1_655 S
C1164 C1170 1.379 . S
C1164 N1172 1.356 . S
C1165 C1164 1.363 1_455 S
C1165 C1171 1.363 . S
C1166 C1167 1.363 . S
C1166 C1171 1.379 . S
C1166 N1173 1.356 . S
C1167 C1166 1.363 . S
C1167 C1170 1.363 1_455 S
N1168 C1170 1.356 . S
N1168 H1180 0.984 . S
N1168 H1181 0.985 . S
N1169 C1171 1.356 . S
N1169 H1174 0.984 1_556 S
N1169 H1175 0.985 . S
C1170 C1164 1.379 . S
C1170 C1167 1.363 1_655 S
C1170 N1168 1.356 . S
C1171 C1165 1.363 . S
C1171 C1166 1.379 . S
C1171 N1169 1.356 . S
N1172 C1164 1.356 . S
N1172 H1178 0.984 . S
N1172 H1179 0.984 . S
N1173 C1166 1.356 . S
N1173 H1176 0.984 . S
N1173 H1177 0.985 . S
H1174 N1169 0.984 1_554 S
H1175 N1169 0.985 . S
H1176 N1173 0.984 . S
H1177 N1173 0.985 . S
H1178 N1172 0.984 . S
H1179 N1172 0.984 . S
H1180 N1168 0.984 . S
H1181 N1168 0.985 . S
C1182 C1183 1.363 . S
C1182 C1188 1.379 . S
C1182 N1190 1.356 . S
C1183 C1182 1.363 . S
C1183 C1189 1.363 . S
C1184 C1185 1.363 . S
C1184 C1189 1.379 . S
C1184 N1191 1.356 . S
C1185 C1184 1.363 . S
C1185 C1188 1.363 . S
N1186 C1188 1.356 . S
N1186 H1198 0.984 . S
N1186 H1199 0.985 . S
N1187 C1189 1.356 . S
N1187 H1192 0.984 1_556 S
N1187 H1193 0.985 . S
C1188 C1182 1.379 . S
C1188 C1185 1.363 . S
C1188 N1186 1.356 . S
C1189 C1183 1.363 . S
C1189 C1184 1.379 . S
C1189 N1187 1.356 . S
N1190 C1182 1.356 . S
N1190 H1196 0.984 . S
N1190 H1197 0.984 . S
N1191 C1184 1.356 . S
N1191 H1194 0.984 . S
N1191 H1195 0.985 . S
H1192 N1187 0.984 1_554 S
H1193 N1187 0.985 . S
H1194 N1191 0.984 . S
H1195 N1191 0.985 . S
H1196 N1190 0.984 . S
H1197 N1190 0.984 . S
H1198 N1186 0.984 . S
H1199 N1186 0.985 . S
C1200 C1201 1.363 . S
C1200 C1206 1.379 . S
C1200 N1208 1.356 . S
C1201 C1200 1.363 . S
C1201 C1207 1.363 . S
C1202 C1203 1.363 . S
C1202 C1207 1.379 . S
C1202 N1209 1.356 . S
C1203 C1202 1.363 . S
C1203 C1206 1.363 . S
N1204 C1206 1.356 . S
N1204 H1216 0.984 . S
N1204 H1217 0.985 . S
N1205 C1207 1.356 . S
N1205 H1210 0.984 . S
N1205 H1211 0.985 . S
C1206 C1200 1.379 . S
C1206 C1203 1.363 . S
C1206 N1204 1.356 . S
C1207 C1201 1.363 . S
C1207 C1202 1.379 . S
C1207 N1205 1.356 . S
N1208 C1200 1.356 . S
N1208 H1214 0.984 . S
N1208 H1215 0.984 . S
N1209 C1202 1.356 . S
N1209 H1212 0.984 1_554 S
N1209 H1213 0.985 . S
H1210 N1205 0.984 . S
H1211 N1205 0.985 . S
H1212 N1209 0.984 1_556 S
H1213 N1209 0.985 . S
H1214 N1208 0.984 . S
H1215 N1208 0.984 . S
H1216 N1204 0.984 . S
H1217 N1204 0.985 . S
C1218 C1219 1.363 . S
C1218 C1224 1.379 . S
C1218 N1226 1.356 . S
C1219 C1218 1.363 . S
C1219 C1225 1.363 . S
C1220 C1221 1.363 . S
C1220 C1225 1.379 . S
C1220 N1227 1.356 . S
C1221 C1220 1.363 . S
C1221 C1224 1.363 . S
N1222 C1224 1.356 . S
N1222 H1234 0.984 . S
N1222 H1235 0.985 1_554 S
N1223 C1225 1.356 . S
N1223 H1228 0.984 . S
N1223 H1229 0.985 . S
C1224 C1218 1.379 . S
C1224 C1221 1.363 . S
C1224 N1222 1.356 . S
C1225 C1219 1.363 . S
C1225 C1220 1.379 . S
C1225 N1223 1.356 . S
N1226 C1218 1.356 . S
N1226 H1232 0.984 . S
N1226 H1233 0.984 . S
N1227 C1220 1.356 . S
N1227 H1230 0.984 . S
N1227 H1231 0.985 . S
H1228 N1223 0.984 . S
H1229 N1223 0.985 . S
H1230 N1227 0.984 . S
H1231 N1227 0.985 . S
H1232 N1226 0.984 . S
H1233 N1226 0.984 . S
H1234 N1222 0.984 . S
H1235 N1222 0.985 1_556 S
C1236 C1237 1.363 . S
C1236 C1242 1.379 . S
C1236 N1244 1.356 . S
C1237 C1236 1.363 . S
C1237 C1243 1.363 . S
C1238 C1239 1.363 . S
C1238 C1243 1.379 . S
C1238 N1245 1.356 . S
C1239 C1238 1.363 . S
C1239 C1242 1.363 . S
N1240 C1242 1.356 . S
N1240 H1252 0.984 . S
N1240 H1253 0.985 . S
N1241 C1243 1.356 . S
N1241 H1246 0.984 . S
N1241 H1247 0.985 . S
C1242 C1236 1.379 . S
C1242 C1239 1.363 . S
C1242 N1240 1.356 . S
C1243 C1237 1.363 . S
C1243 C1238 1.379 . S
C1243 N1241 1.356 . S
N1244 C1236 1.356 . S
N1244 H1250 0.984 . S
N1244 H1251 0.984 1_556 S
N1245 C1238 1.356 . S
N1245 H1248 0.984 . S
N1245 H1249 0.985 . S
H1246 N1241 0.984 . S
H1247 N1241 0.985 . S
H1248 N1245 0.984 . S
H1249 N1245 0.985 . S
H1250 N1244 0.984 . S
H1251 N1244 0.984 1_554 S
H1252 N1240 0.984 . S
H1253 N1240 0.985 . S
C1254 C1255 1.363 . S
C1254 C1260 1.379 . S
C1254 N1262 1.356 . S
C1255 C1254 1.363 . S
C1255 C1261 1.363 . S
C1256 C1257 1.363 . S
C1256 C1261 1.379 . S
C1256 N1263 1.356 . S
C1257 C1256 1.363 . S
C1257 C1260 1.363 . S
N1258 C1260 1.356 . S
N1258 H1270 0.984 . S
N1258 H1271 0.985 1_556 S
N1259 C1261 1.356 . S
N1259 H1264 0.984 . S
N1259 H1265 0.985 . S
C1260 C1254 1.379 . S
C1260 C1257 1.363 . S
C1260 N1258 1.356 . S
C1261 C1255 1.363 . S
C1261 C1256 1.379 . S
C1261 N1259 1.356 . S
N1262 C1254 1.356 . S
N1262 H1268 0.984 . S
N1262 H1269 0.984 . S
N1263 C1256 1.356 . S
N1263 H1266 0.984 . S
N1263 H1267 0.985 . S
H1264 N1259 0.984 . S
H1265 N1259 0.985 . S
H1266 N1263 0.984 . S
H1267 N1263 0.985 . S
H1268 N1262 0.984 . S
H1269 N1262 0.984 . S
H1270 N1258 0.984 . S
H1271 N1258 0.985 1_554 S
C1272 C1273 1.363 . S
C1272 C1278 1.379 . S
C1272 N1280 1.356 . S
C1273 C1272 1.363 . S
C1273 C1279 1.363 . S
C1274 C1275 1.363 . S
C1274 C1279 1.379 . S
C1274 N1281 1.356 . S
C1275 C1274 1.363 . S
C1275 C1278 1.363 . S
N1276 C1278 1.356 . S
N1276 H1288 0.984 . S
N1276 H1289 0.985 . S
N1277 C1279 1.356 . S
N1277 H1282 0.984 . S
N1277 H1283 0.985 . S
C1278 C1272 1.379 . S
C1278 C1275 1.363 . S
C1278 N1276 1.356 . S
C1279 C1273 1.363 . S
C1279 C1274 1.379 . S
C1279 N1277 1.356 . S
N1280 C1272 1.356 . S
N1280 H1286 0.984 . S
N1280 H1287 0.984 . S
N1281 C1274 1.356 . S
N1281 H1284 0.984 . S
N1281 H1285 0.985 . S
H1282 N1277 0.984 . S
H1283 N1277 0.985 . S
H1284 N1281 0.984 . S
H1285 N1281 0.985 . S
H1286 N1280 0.984 . S
H1287 N1280 0.984 . S
H1288 N1276 0.984 . S
H1289 N1276 0.985 . S
C1290 C1291 1.363 . S
C1290 C1296 1.379 . S
C1290 N1298 1.356 . S
C1291 C1290 1.363 . S
C1291 C1297 1.363 . S
C1292 C1293 1.363 . S
C1292 C1297 1.379 . S
C1292 N1299 1.356 . S
C1293 C1292 1.363 . S
C1293 C1296 1.363 . S
N1294 C1296 1.356 . S
N1294 H1306 0.984 . S
N1294 H1307 0.985 . S
N1295 C1297 1.356 . S
N1295 H1300 0.984 . S
N1295 H1301 0.985 . S
C1296 C1290 1.379 . S
C1296 C1293 1.363 . S
C1296 N1294 1.356 . S
C1297 C1291 1.363 . S
C1297 C1292 1.379 . S
C1297 N1295 1.356 . S
N1298 C1290 1.356 . S
N1298 H1304 0.984 . S
N1298 H1305 0.984 . S
N1299 C1292 1.356 . S
N1299 H1302 0.984 . S
N1299 H1303 0.985 . S
H1300 N1295 0.984 . S
H1301 N1295 0.985 . S
H1302 N1299 0.984 . S
H1303 N1299 0.985 . S
H1304 N1298 0.984 . S
H1305 N1298 0.984 . S
H1306 N1294 0.984 . S
H1307 N1294 0.985 . S
C1308 C1309 1.363 . S
C1308 C1314 1.379 . S
C1308 N1316 1.356 . S
C1309 C1308 1.363 . S
C1309 C1315 1.363 . S
C1310 C1311 1.363 . S
C1310 C1315 1.379 . S
C1310 N1317 1.356 . S
C1311 C1310 1.363 . S
C1311 C1314 1.363 . S
N1312 C1314 1.356 . S
N1312 H1324 0.984 . S
N1312 H1325 0.985 . S
N1313 C1315 1.356 . S
N1313 H1318 0.984 . S
N1313 H1319 0.985 . S
C1314 C1308 1.379 . S
C1314 C1311 1.363 . S
C1314 N1312 1.356 . S
C1315 C1309 1.363 . S
C1315 C1310 1.379 . S
C1315 N1313 1.356 . S
N1316 C1308 1.356 . S
N1316 H1322 0.984 . S
N1316 H1323 0.984 . S
N1317 C1310 1.356 . S
N1317 H1320 0.984 . S
N1317 H1321 0.985 . S
H1318 N1313 0.984 . S
H1319 N1313 0.985 . S
H1320 N1317 0.984 . S
H1321 N1317 0.985 . S
H1322 N1316 0.984 . S
H1323 N1316 0.984 . S
H1324 N1312 0.984 . S
H1325 N1312 0.985 . S
C1326 C1327 1.363 . S
C1326 C1332 1.379 . S
C1326 N1334 1.356 . S
C1327 C1326 1.363 . S
C1327 C1333 1.363 . S
C1328 C1329 1.363 . S
C1328 C1333 1.379 . S
C1328 N1335 1.356 . S
C1329 C1328 1.363 . S
C1329 C1332 1.363 . S
N1330 C1332 1.356 . S
N1330 H1342 0.984 . S
N1330 H1343 0.985 . S
N1331 C1333 1.356 . S
N1331 H1336 0.984 . S
N1331 H1337 0.985 . S
C1332 C1326 1.379 . S
C1332 C1329 1.363 . S
C1332 N1330 1.356 . S
C1333 C1327 1.363 . S
C1333 C1328 1.379 . S
C1333 N1331 1.356 . S
N1334 C1326 1.356 . S
N1334 H1340 0.984 . S
N1334 H1341 0.984 . S
N1335 C1328 1.356 . S
N1335 H1338 0.984 . S
N1335 H1339 0.985 . S
H1336 N1331 0.984 . S
H1337 N1331 0.985 . S
H1338 N1335 0.984 . S
H1339 N1335 0.985 . S
H1340 N1334 0.984 . S
H1341 N1334 0.984 . S
H1342 N1330 0.984 . S
H1343 N1330 0.985 . S
C1344 C1345 1.363 . S
C1344 C1350 1.379 . S
C1344 N1352 1.356 . S
C1345 C1344 1.363 . S
C1345 C1351 1.363 . S
C1346 C1347 1.363 . S
C1346 C1351 1.379 . S
C1346 N1353 1.356 . S
C1347 C1346 1.363 . S
C1347 C1350 1.363 . S
N1348 C1350 1.356 . S
N1348 H1360 0.984 . S
N1348 H1361 0.985 . S
N1349 C1351 1.356 . S
N1349 H1354 0.984 . S
N1349 H1355 0.985 . S
C1350 C1344 1.379 . S
C1350 C1347 1.363 . S
C1350 N1348 1.356 . S
C1351 C1345 1.363 . S
C1351 C1346 1.379 . S
C1351 N1349 1.356 . S
N1352 C1344 1.356 . S
N1352 H1358 0.984 . S
N1352 H1359 0.984 . S
N1353 C1346 1.356 . S
N1353 H1356 0.984 . S
N1353 H1357 0.985 . S
H1354 N1349 0.984 . S
H1355 N1349 0.985 . S
H1356 N1353 0.984 . S
H1357 N1353 0.985 . S
H1358 N1352 0.984 . S
H1359 N1352 0.984 . S
H1360 N1348 0.984 . S
H1361 N1348 0.985 . S
C1362 C1363 1.363 . S
C1362 C1368 1.379 . S
C1362 N1370 1.356 . S
C1363 C1362 1.363 . S
C1363 C1369 1.363 . S
C1364 C1365 1.363 . S
C1364 C1369 1.379 . S
C1364 N1371 1.356 . S
C1365 C1364 1.363 . S
C1365 C1368 1.363 . S
N1366 C1368 1.356 . S
N1366 H1378 0.984 . S
N1366 H1379 0.985 . S
N1367 C1369 1.356 . S
N1367 H1372 0.984 . S
N1367 H1373 0.985 1_556 S
C1368 C1362 1.379 . S
C1368 C1365 1.363 . S
C1368 N1366 1.356 . S
C1369 C1363 1.363 . S
C1369 C1364 1.379 . S
C1369 N1367 1.356 . S
N1370 C1362 1.356 . S
N1370 H1376 0.984 . S
N1370 H1377 0.984 . S
N1371 C1364 1.356 . S
N1371 H1374 0.984 . S
N1371 H1375 0.985 1_556 S
H1372 N1367 0.984 . S
H1373 N1367 0.985 1_554 S
H1374 N1371 0.984 . S
H1375 N1371 0.985 1_554 S
H1376 N1370 0.984 . S
H1377 N1370 0.984 . S
H1378 N1366 0.984 . S
H1379 N1366 0.985 . S
C1380 C1381 1.363 . S
C1380 C1386 1.379 . S
C1380 N1388 1.356 . S
C1381 C1380 1.363 . S
C1381 C1387 1.363 . S
C1382 C1383 1.363 . S
C1382 C1387 1.379 . S
C1382 N1389 1.356 . S
C1383 C1382 1.363 . S
C1383 C1386 1.363 . S
N1384 C1386 1.356 . S
N1384 H1396 0.984 . S
N1384 H1397 0.985 . S
N1385 C1387 1.356 . S
N1385 H1390 0.984 . S
N1385 H1391 0.985 . S
C1386 C1380 1.379 . S
C1386 C1383 1.363 . S
C1386 N1384 1.356 . S
C1387 C1381 1.363 . S
C1387 C1382 1.379 . S
C1387 N1385 1.356 . S
N1388 C1380 1.356 . S
N1388 H1394 0.984 . S
N1388 H1395 0.984 . S
N1389 C1382 1.356 . S
N1389 H1392 0.984 . S
N1389 H1393 0.985 . S
H1390 N1385 0.984 . S
H1391 N1385 0.985 . S
H1392 N1389 0.984 . S
H1393 N1389 0.985 . S
H1394 N1388 0.984 . S
H1395 N1388 0.984 . S
H1396 N1384 0.984 . S
H1397 N1384 0.985 . S
C1398 C1399 1.363 . S
C1398 C1404 1.379 . S
C1398 N1406 1.356 . S
C1399 C1398 1.363 . S
C1399 C1405 1.363 . S
C1400 C1401 1.363 . S
C1400 C1405 1.379 . S
C1400 N1407 1.356 . S
C1401 C1400 1.363 . S
C1401 C1404 1.363 . S
N1402 C1404 1.356 . S
N1402 H1414 0.984 . S
N1402 H1415 0.985 . S
N1403 C1405 1.356 . S
N1403 H1408 0.984 . S
N1403 H1409 0.985 1_554 S
C1404 C1398 1.379 . S
C1404 C1401 1.363 . S
C1404 N1402 1.356 . S
C1405 C1399 1.363 . S
C1405 C1400 1.379 . S
C1405 N1403 1.356 . S
N1406 C1398 1.356 . S
N1406 H1412 0.984 . S
N1406 H1413 0.984 . S
N1407 C1400 1.356 . S
N1407 H1410 0.984 . S
N1407 H1411 0.985 1_554 S
H1408 N1403 0.984 . S
H1409 N1403 0.985 1_556 S
H1410 N1407 0.984 . S
H1411 N1407 0.985 1_556 S
H1412 N1406 0.984 . S
H1413 N1406 0.984 . S
H1414 N1402 0.984 . S
H1415 N1402 0.985 . S
C1416 C1417 1.363 . S
C1416 C1422 1.379 . S
C1416 N1424 1.356 . S
C1417 C1416 1.363 . S
C1417 C1423 1.363 . S
C1418 C1419 1.363 . S
C1418 C1423 1.379 . S
C1418 N1425 1.356 . S
C1419 C1418 1.363 . S
C1419 C1422 1.363 . S
N1420 C1422 1.356 . S
N1420 H1432 0.984 . S
N1420 H1433 0.985 . S
N1421 C1423 1.356 . S
N1421 H1426 0.984 . S
N1421 H1427 0.985 . S
C1422 C1416 1.379 . S
C1422 C1419 1.363 . S
C1422 N1420 1.356 . S
C1423 C1417 1.363 . S
C1423 C1418 1.379 . S
C1423 N1421 1.356 . S
N1424 C1416 1.356 . S
N1424 H1430 0.984 . S
N1424 H1431 0.984 . S
N1425 C1418 1.356 . S
N1425 H1428 0.984 . S
N1425 H1429 0.985 . S
H1426 N1421 0.984 . S
H1427 N1421 0.985 . S
H1428 N1425 0.984 . S
H1429 N1425 0.985 . S
H1430 N1424 0.984 . S
H1431 N1424 0.984 . S
H1432 N1420 0.984 . S
H1433 N1420 0.985 . S
C1434 C1435 1.363 . S
C1434 C1440 1.379 . S
C1434 N1442 1.356 . S
C1435 C1434 1.363 . S
C1435 C1441 1.363 . S
C1436 C1437 1.363 . S
C1436 C1441 1.379 . S
C1436 N1443 1.356 . S
C1437 C1436 1.363 . S
C1437 C1440 1.363 . S
N1438 C1440 1.356 . S
N1438 H1450 0.984 . S
N1438 H1451 0.985 . S
N1439 C1441 1.356 . S
N1439 H1444 0.984 . S
N1439 H1445 0.985 . S
C1440 C1434 1.379 . S
C1440 C1437 1.363 . S
C1440 N1438 1.356 . S
C1441 C1435 1.363 . S
C1441 C1436 1.379 . S
C1441 N1439 1.356 . S
N1442 C1434 1.356 . S
N1442 H1448 0.984 . S
N1442 H1449 0.984 . S
N1443 C1436 1.356 . S
N1443 H1446 0.984 . S
N1443 H1447 0.985 . S
H1444 N1439 0.984 . S
H1445 N1439 0.985 . S
H1446 N1443 0.984 . S
H1447 N1443 0.985 . S
H1448 N1442 0.984 . S
H1449 N1442 0.984 . S
H1450 N1438 0.984 . S
H1451 N1438 0.985 . S
C1452 C1453 1.363 . S
C1452 C1458 1.379 . S
C1452 N1460 1.356 . S
C1453 C1452 1.363 . S
C1453 C1459 1.363 . S
C1454 C1455 1.363 . S
C1454 C1459 1.379 . S
C1454 N1461 1.356 . S
C1455 C1454 1.363 . S
C1455 C1458 1.363 . S
N1456 C1458 1.356 . S
N1456 H1468 0.984 . S
N1456 H1469 0.985 . S
N1457 C1459 1.356 . S
N1457 H1462 0.984 . S
N1457 H1463 0.985 . S
C1458 C1452 1.379 . S
C1458 C1455 1.363 . S
C1458 N1456 1.356 . S
C1459 C1453 1.363 . S
C1459 C1454 1.379 . S
C1459 N1457 1.356 . S
N1460 C1452 1.356 . S
N1460 H1466 0.984 . S
N1460 H1467 0.984 . S
N1461 C1454 1.356 . S
N1461 H1464 0.984 . S
N1461 H1465 0.985 . S
H1462 N1457 0.984 . S
H1463 N1457 0.985 . S
H1464 N1461 0.984 . S
H1465 N1461 0.985 . S
H1466 N1460 0.984 . S
H1467 N1460 0.984 . S
H1468 N1456 0.984 . S
H1469 N1456 0.985 . S
C1470 C1471 1.363 . S
C1470 C1476 1.379 . S
C1470 N1478 1.356 . S
C1471 C1470 1.363 . S
C1471 C1477 1.363 . S
C1472 C1473 1.363 . S
C1472 C1477 1.379 . S
C1472 N1479 1.356 . S
C1473 C1472 1.363 . S
C1473 C1476 1.363 . S
N1474 C1476 1.356 . S
N1474 H1486 0.984 . S
N1474 H1487 0.985 . S
N1475 C1477 1.356 . S
N1475 H1480 0.984 . S
N1475 H1481 0.985 . S
C1476 C1470 1.379 . S
C1476 C1473 1.363 . S
C1476 N1474 1.356 . S
C1477 C1471 1.363 . S
C1477 C1472 1.379 . S
C1477 N1475 1.356 . S
N1478 C1470 1.356 . S
N1478 H1484 0.984 . S
N1478 H1485 0.984 . S
N1479 C1472 1.356 . S
N1479 H1482 0.984 . S
N1479 H1483 0.985 . S
H1480 N1475 0.984 . S
H1481 N1475 0.985 . S
H1482 N1479 0.984 . S
H1483 N1479 0.985 . S
H1484 N1478 0.984 . S
H1485 N1478 0.984 . S
H1486 N1474 0.984 . S
H1487 N1474 0.985 . S
C1488 C1489 1.363 . S
C1488 C1494 1.379 . S
C1488 N1496 1.356 . S
C1489 C1488 1.363 . S
C1489 C1495 1.363 . S
C1490 C1491 1.363 . S
C1490 C1495 1.379 . S
C1490 N1497 1.356 . S
C1491 C1490 1.363 . S
C1491 C1494 1.363 . S
N1492 C1494 1.356 . S
N1492 H1504 0.984 . S
N1492 H1505 0.985 . S
N1493 C1495 1.356 . S
N1493 H1498 0.984 . S
N1493 H1499 0.985 . S
C1494 C1488 1.379 . S
C1494 C1491 1.363 . S
C1494 N1492 1.356 . S
C1495 C1489 1.363 . S
C1495 C1490 1.379 . S
C1495 N1493 1.356 . S
N1496 C1488 1.356 . S
N1496 H1502 0.984 . S
N1496 H1503 0.984 . S
N1497 C1490 1.356 . S
N1497 H1500 0.984 . S
N1497 H1501 0.985 . S
H1498 N1493 0.984 . S
H1499 N1493 0.985 . S
H1500 N1497 0.984 . S
H1501 N1497 0.985 . S
H1502 N1496 0.984 . S
H1503 N1496 0.984 . S
H1504 N1492 0.984 . S
H1505 N1492 0.985 . S
C1506 C1507 1.363 . S
C1506 C1512 1.379 . S
C1506 N1514 1.356 . S
C1507 C1506 1.363 . S
C1507 C1513 1.363 . S
C1508 C1509 1.363 . S
C1508 C1513 1.379 . S
C1508 N1515 1.356 . S
C1509 C1508 1.363 . S
C1509 C1512 1.363 . S
N1510 C1512 1.356 . S
N1510 H1522 0.984 . S
N1510 H1523 0.985 . S
N1511 C1513 1.356 . S
N1511 H1516 0.984 . S
N1511 H1517 0.985 . S
C1512 C1506 1.379 . S
C1512 C1509 1.363 . S
C1512 N1510 1.356 . S
C1513 C1507 1.363 . S
C1513 C1508 1.379 . S
C1513 N1511 1.356 . S
N1514 C1506 1.356 . S
N1514 H1520 0.984 . S
N1514 H1521 0.984 . S
N1515 C1508 1.356 . S
N1515 H1518 0.984 . S
N1515 H1519 0.985 . S
H1516 N1511 0.984 . S
H1517 N1511 0.985 . S
H1518 N1515 0.984 . S
H1519 N1515 0.985 . S
H1520 N1514 0.984 . S
H1521 N1514 0.984 . S
H1522 N1510 0.984 . S
H1523 N1510 0.985 . S
C1524 C1525 1.363 . S
C1524 C1530 1.379 . S
C1524 N1532 1.356 . S
C1525 C1524 1.363 . S
C1525 C1531 1.363 . S
C1526 C1527 1.363 . S
C1526 C1531 1.379 . S
C1526 N1533 1.356 . S
C1527 C1526 1.363 . S
C1527 C1530 1.363 . S
N1528 C1530 1.356 . S
N1528 H1540 0.984 . S
N1528 H1541 0.985 . S
N1529 C1531 1.356 . S
N1529 H1534 0.984 . S
N1529 H1535 0.985 . S
C1530 C1524 1.379 . S
C1530 C1527 1.363 . S
C1530 N1528 1.356 . S
C1531 C1525 1.363 . S
C1531 C1526 1.379 . S
C1531 N1529 1.356 . S
N1532 C1524 1.356 . S
N1532 H1538 0.984 . S
N1532 H1539 0.984 . S
N1533 C1526 1.356 . S
N1533 H1536 0.984 . S
N1533 H1537 0.985 . S
H1534 N1529 0.984 . S
H1535 N1529 0.985 . S
H1536 N1533 0.984 . S
H1537 N1533 0.985 . S
H1538 N1532 0.984 . S
H1539 N1532 0.984 . S
H1540 N1528 0.984 . S
H1541 N1528 0.985 . S
C1542 C1543 1.363 . S
C1542 C1548 1.379 . S
C1542 N1550 1.356 . S
C1543 C1542 1.363 . S
C1543 C1549 1.363 . S
C1544 C1545 1.363 . S
C1544 C1549 1.379 . S
C1544 N1551 1.356 . S
C1545 C1544 1.363 . S
C1545 C1548 1.363 . S
N1546 C1548 1.356 . S
N1546 H1558 0.984 . S
N1546 H1559 0.985 . S
N1547 C1549 1.356 . S
N1547 H1552 0.984 . S
N1547 H1553 0.985 . S
C1548 C1542 1.379 . S
C1548 C1545 1.363 . S
C1548 N1546 1.356 . S
C1549 C1543 1.363 . S
C1549 C1544 1.379 . S
C1549 N1547 1.356 . S
N1550 C1542 1.356 . S
N1550 H1556 0.984 . S
N1550 H1557 0.984 . S
N1551 C1544 1.356 . S
N1551 H1554 0.984 . S
N1551 H1555 0.985 . S
H1552 N1547 0.984 . S
H1553 N1547 0.985 . S
H1554 N1551 0.984 . S
H1555 N1551 0.985 . S
H1556 N1550 0.984 . S
H1557 N1550 0.984 . S
H1558 N1546 0.984 . S
H1559 N1546 0.985 . S
C1560 C1561 1.363 . S
C1560 C1566 1.379 . S
C1560 N1568 1.356 . S
C1561 C1560 1.363 . S
C1561 C1567 1.363 . S
C1562 C1563 1.363 . S
C1562 C1567 1.379 . S
C1562 N1569 1.356 . S
C1563 C1562 1.363 . S
C1563 C1566 1.363 . S
N1564 C1566 1.356 . S
N1564 H1576 0.984 . S
N1564 H1577 0.985 . S
N1565 C1567 1.356 . S
N1565 H1570 0.984 . S
N1565 H1571 0.985 . S
C1566 C1560 1.379 . S
C1566 C1563 1.363 . S
C1566 N1564 1.356 . S
C1567 C1561 1.363 . S
C1567 C1562 1.379 . S
C1567 N1565 1.356 . S
N1568 C1560 1.356 . S
N1568 H1574 0.984 . S
N1568 H1575 0.984 . S
N1569 C1562 1.356 . S
N1569 H1572 0.984 . S
N1569 H1573 0.985 . S
H1570 N1565 0.984 . S
H1571 N1565 0.985 . S
H1572 N1569 0.984 . S
H1573 N1569 0.985 . S
H1574 N1568 0.984 . S
H1575 N1568 0.984 . S
H1576 N1564 0.984 . S
H1577 N1564 0.985 . S
C1578 C1579 1.363 . S
C1578 C1584 1.379 . S
C1578 N1586 1.356 . S
C1579 C1578 1.363 . S
C1579 C1585 1.363 . S
C1580 C1581 1.363 . S
C1580 C1585 1.379 . S
C1580 N1587 1.356 . S
C1581 C1580 1.363 . S
C1581 C1584 1.363 . S
N1582 C1584 1.356 . S
N1582 H1594 0.984 . S
N1582 H1595 0.985 . S
N1583 C1585 1.356 . S
N1583 H1588 0.984 . S
N1583 H1589 0.985 1_556 S
C1584 C1578 1.379 . S
C1584 C1581 1.363 . S
C1584 N1582 1.356 . S
C1585 C1579 1.363 . S
C1585 C1580 1.379 . S
C1585 N1583 1.356 . S
N1586 C1578 1.356 . S
N1586 H1592 0.984 . S
N1586 H1593 0.984 . S
N1587 C1580 1.356 . S
N1587 H1590 0.984 . S
N1587 H1591 0.985 1_556 S
H1588 N1583 0.984 . S
H1589 N1583 0.985 1_554 S
H1590 N1587 0.984 . S
H1591 N1587 0.985 1_554 S
H1592 N1586 0.984 . S
H1593 N1586 0.984 . S
H1594 N1582 0.984 . S
H1595 N1582 0.985 . S
C1596 C1597 1.363 . S
C1596 C1602 1.379 . S
C1596 N1604 1.356 . S
C1597 C1596 1.363 . S
C1597 C1603 1.363 . S
C1598 C1599 1.363 . S
C1598 C1603 1.379 . S
C1598 N1605 1.356 . S
C1599 C1598 1.363 . S
C1599 C1602 1.363 . S
N1600 C1602 1.356 . S
N1600 H1612 0.984 . S
N1600 H1613 0.985 . S
N1601 C1603 1.356 . S
N1601 H1606 0.984 . S
N1601 H1607 0.985 . S
C1602 C1596 1.379 . S
C1602 C1599 1.363 . S
C1602 N1600 1.356 . S
C1603 C1597 1.363 . S
C1603 C1598 1.379 . S
C1603 N1601 1.356 . S
N1604 C1596 1.356 . S
N1604 H1610 0.984 . S
N1604 H1611 0.984 . S
N1605 C1598 1.356 . S
N1605 H1608 0.984 . S
N1605 H1609 0.985 . S
H1606 N1601 0.984 . S
H1607 N1601 0.985 . S
H1608 N1605 0.984 . S
H1609 N1605 0.985 . S
H1610 N1604 0.984 . S
H1611 N1604 0.984 . S
H1612 N1600 0.984 . S
H1613 N1600 0.985 . S
C1614 C1615 1.363 . S
C1614 C1620 1.379 . S
C1614 N1622 1.356 . S
C1615 C1614 1.363 . S
C1615 C1621 1.363 . S
C1616 C1617 1.363 . S
C1616 C1621 1.379 . S
C1616 N1623 1.356 . S
C1617 C1616 1.363 . S
C1617 C1620 1.363 . S
N1618 C1620 1.356 . S
N1618 H1630 0.984 . S
N1618 H1631 0.985 . S
N1619 C1621 1.356 . S
N1619 H1624 0.984 . S
N1619 H1625 0.985 1_554 S
C1620 C1614 1.379 . S
C1620 C1617 1.363 . S
C1620 N1618 1.356 . S
C1621 C1615 1.363 . S
C1621 C1616 1.379 . S
C1621 N1619 1.356 . S
N1622 C1614 1.356 . S
N1622 H1628 0.984 . S
N1622 H1629 0.984 . S
N1623 C1616 1.356 . S
N1623 H1626 0.984 . S
N1623 H1627 0.985 1_554 S
H1624 N1619 0.984 . S
H1625 N1619 0.985 1_556 S
H1626 N1623 0.984 . S
H1627 N1623 0.985 1_556 S
H1628 N1622 0.984 . S
H1629 N1622 0.984 . S
H1630 N1618 0.984 . S
H1631 N1618 0.985 . S
C1632 C1633 1.363 1_455 S
C1632 C1638 1.379 . S
C1632 N1640 1.356 . S
C1633 C1632 1.363 1_655 S
C1633 C1639 1.363 1_565 S
C1634 C1635 1.363 1_655 S
C1634 C1639 1.379 . S
C1634 N1641 1.356 . S
C1635 C1634 1.363 1_455 S
C1635 C1638 1.363 1_545 S
N1636 C1638 1.356 1_545 S
N1636 H1648 0.984 1_545 S
N1636 H1649 0.985 . S
N1637 C1639 1.356 1_565 S
N1637 H1642 0.984 . S
N1637 H1643 0.985 1_565 S
C1638 C1632 1.379 . S
C1638 C1635 1.363 1_565 S
C1638 N1636 1.356 1_565 S
C1639 C1633 1.363 1_545 S
C1639 C1634 1.379 . S
C1639 N1637 1.356 1_545 S
N1640 C1632 1.356 . S
N1640 H1646 0.984 . S
N1640 H1647 0.984 . S
N1641 C1634 1.356 . S
N1641 H1644 0.984 . S
N1641 H1645 0.985 . S
H1642 N1637 0.984 . S
H1643 N1637 0.985 1_545 S
H1644 N1641 0.984 . S
H1645 N1641 0.985 . S
H1646 N1640 0.984 . S
H1647 N1640 0.984 . S
H1648 N1636 0.984 1_565 S
H1649 N1636 0.985 . S
C1650 C1651 1.363 . S
C1650 C1656 1.379 . S
C1650 N1658 1.356 . S
C1651 C1650 1.363 . S
C1651 C1657 1.363 . S
C1652 C1653 1.363 . S
C1652 C1657 1.379 . S
C1652 N1659 1.356 . S
C1653 C1652 1.363 . S
C1653 C1656 1.363 . S
N1654 C1656 1.356 . S
N1654 H1666 0.984 . S
N1654 H1667 0.985 . S
N1655 C1657 1.356 . S
N1655 H1660 0.984 . S
N1655 H1661 0.985 . S
C1656 C1650 1.379 . S
C1656 C1653 1.363 . S
C1656 N1654 1.356 . S
C1657 C1651 1.363 . S
C1657 C1652 1.379 . S
C1657 N1655 1.356 . S
N1658 C1650 1.356 . S
N1658 H1664 0.984 . S
N1658 H1665 0.984 . S
N1659 C1652 1.356 . S
N1659 H1662 0.984 . S
N1659 H1663 0.985 . S
H1660 N1655 0.984 . S
H1661 N1655 0.985 . S
H1662 N1659 0.984 . S
H1663 N1659 0.985 . S
H1664 N1658 0.984 . S
H1665 N1658 0.984 . S
H1666 N1654 0.984 . S
H1667 N1654 0.985 . S
C1668 C1669 1.363 . S
C1668 C1674 1.379 . S
C1668 N1676 1.356 . S
C1669 C1668 1.363 . S
C1669 C1675 1.363 1_655 S
C1670 C1671 1.363 . S
C1670 C1675 1.379 . S
C1670 N1677 1.356 . S
C1671 C1670 1.363 . S
C1671 C1674 1.363 1_455 S
N1672 C1674 1.356 . S
N1672 H1684 0.984 . S
N1672 H1685 0.982 1_655 S
N1673 C1675 1.356 . S
N1673 H1678 0.979 1_455 S
N1673 H1679 0.985 . S
C1674 C1668 1.379 . S
C1674 C1671 1.363 1_655 S
C1674 N1672 1.356 . S
C1675 C1669 1.363 1_455 S
C1675 C1670 1.379 . S
C1675 N1673 1.356 . S
N1676 C1668 1.356 . S
N1676 H1682 0.984 . S
N1676 H1683 0.984 . S
N1677 C1670 1.356 . S
N1677 H1680 0.984 . S
N1677 H1681 0.985 . S
H1678 N1673 0.979 1_655 S
H1679 N1673 0.985 . S
H1680 N1677 0.984 . S
H1681 N1677 0.985 . S
H1682 N1676 0.984 . S
H1683 N1676 0.984 . S
H1684 N1672 0.984 . S
H1685 N1672 0.982 1_455 S
C1686 C1687 1.363 1_545 S
C1686 C1692 1.379 . S
C1686 N1694 1.350 1_545 S
C1687 C1686 1.363 1_565 S
C1687 C1693 1.363 . S
C1688 C1689 1.363 1_565 S
C1688 C1693 1.379 . S
C1688 N1695 1.350 1_565 S
C1689 C1688 1.363 1_545 S
C1689 C1692 1.363 . S
N1690 C1692 1.356 . S
N1690 H1702 0.984 . S
N1690 H1703 0.985 . S
N1691 C1693 1.356 . S
N1691 H1696 0.984 . S
N1691 H1697 0.985 . S
C1692 C1686 1.379 . S
C1692 C1689 1.363 . S
C1692 N1690 1.356 . S
C1693 C1687 1.363 . S
C1693 C1688 1.379 . S
C1693 N1691 1.356 . S
N1694 C1686 1.350 1_565 S
N1694 H1700 0.952 1_565 S
N1694 H1701 1.024 . S
N1695 C1688 1.350 1_545 S
N1695 H1698 1.024 . S
N1695 H1699 0.953 1_545 S
H1696 N1691 0.984 . S
H1697 N1691 0.985 . S
H1698 N1695 1.024 . S
H1699 N1695 0.953 1_565 S
H1700 N1694 0.952 1_545 S
H1701 N1694 1.024 . S
H1702 N1690 0.984 . S
H1703 N1690 0.985 . S
C1704 C1705 1.363 . S
C1704 C1710 1.379 . S
C1704 N1712 1.356 . S
C1705 C1704 1.363 . S
C1705 C1711 1.363 . S
C1706 C1707 1.363 . S
C1706 C1711 1.379 . S
C1706 N1713 1.356 . S
C1707 C1706 1.363 . S
C1707 C1710 1.363 . S
N1708 C1710 1.356 . S
N1708 H1720 0.984 . S
N1708 H1721 0.985 . S
N1709 C1711 1.356 . S
N1709 H1714 0.984 . S
N1709 H1715 0.985 . S
C1710 C1704 1.379 . S
C1710 C1707 1.363 . S
C1710 N1708 1.356 . S
C1711 C1705 1.363 . S
C1711 C1706 1.379 . S
C1711 N1709 1.356 . S
N1712 C1704 1.356 . S
N1712 H1718 0.984 . S
N1712 H1719 0.984 . S
N1713 C1706 1.356 . S
N1713 H1716 0.984 . S
N1713 H1717 0.985 . S
H1714 N1709 0.984 . S
H1715 N1709 0.985 . S
H1716 N1713 0.984 . S
H1717 N1713 0.985 . S
H1718 N1712 0.984 . S
H1719 N1712 0.984 . S
H1720 N1708 0.984 . S
H1721 N1708 0.985 . S
C1722 C1723 1.363 . S
C1722 C1728 1.379 . S
C1722 N1730 1.356 . S
C1723 C1722 1.363 . S
C1723 C1729 1.363 1_455 S
C1724 C1725 1.363 . S
C1724 C1729 1.379 . S
C1724 N1731 1.356 . S
C1725 C1724 1.363 . S
C1725 C1728 1.363 1_655 S
N1726 C1728 1.356 . S
N1726 H1738 0.984 . S
N1726 H1739 0.985 . S
N1727 C1729 1.356 . S
N1727 H1732 0.984 . S
N1727 H1733 0.985 . S
C1728 C1722 1.379 . S
C1728 C1725 1.363 1_455 S
C1728 N1726 1.356 . S
C1729 C1723 1.363 1_655 S
C1729 C1724 1.379 . S
C1729 N1727 1.356 . S
N1730 C1722 1.356 . S
N1730 H1736 0.984 . S
N1730 H1737 0.984 . S
N1731 C1724 1.356 . S
N1731 H1734 0.984 . S
N1731 H1735 0.985 . S
H1732 N1727 0.984 . S
H1733 N1727 0.985 . S
H1734 N1731 0.984 . S
H1735 N1731 0.985 . S
H1736 N1730 0.984 . S
H1737 N1730 0.984 . S
H1738 N1726 0.984 . S
H1739 N1726 0.985 . S
C1740 C1741 1.363 . S
C1740 C1746 1.379 . S
C1740 N1748 1.356 . S
C1741 C1740 1.363 . S
C1741 C1747 1.363 1_565 S
C1742 C1743 1.363 . S
C1742 C1747 1.379 . S
C1742 N1749 1.356 . S
C1743 C1742 1.363 . S
C1743 C1746 1.363 1_545 S
N1744 C1746 1.356 1_545 S
N1744 H1756 0.984 1_545 S
N1744 H1757 0.985 . S
N1745 C1747 1.356 1_565 S
N1745 H1750 0.984 . S
N1745 H1751 0.985 1_565 S
C1746 C1740 1.379 . S
C1746 C1743 1.363 1_565 S
C1746 N1744 1.356 1_565 S
C1747 C1741 1.363 1_545 S
C1747 C1742 1.379 . S
C1747 N1745 1.356 1_545 S
N1748 C1740 1.356 . S
N1748 H1754 0.984 . S
N1748 H1755 0.984 . S
N1749 C1742 1.356 . S
N1749 H1752 0.984 . S
N1749 H1753 0.985 . S
H1750 N1745 0.984 . S
H1751 N1745 0.985 1_545 S
H1752 N1749 0.984 . S
H1753 N1749 0.985 . S
H1754 N1748 0.984 . S
H1755 N1748 0.984 . S
H1756 N1744 0.984 1_565 S
H1757 N1744 0.985 . S
C1758 C1759 1.363 1_455 S
C1758 C1764 1.379 1_554 S
C1758 N1766 1.356 . S
C1759 C1758 1.363 1_655 S
C1759 C1765 1.363 . S
C1760 C1761 1.363 1_655 S
C1760 C1765 1.379 1_556 S
C1760 N1767 1.356 . S
C1761 C1760 1.363 1_455 S
C1761 C1764 1.363 . S
N1762 C1764 1.356 . S
N1762 H1774 0.984 . S
N1762 H1775 0.985 . S
N1763 C1765 1.356 . S
N1763 H1768 0.984 . S
N1763 H1769 0.985 . S
C1764 C1758 1.379 1_556 S
C1764 C1761 1.363 . S
C1764 N1762 1.356 . S
C1765 C1759 1.363 . S
C1765 C1760 1.379 1_554 S
C1765 N1763 1.356 . S
N1766 C1758 1.356 . S
N1766 H1772 0.984 . S
N1766 H1773 0.984 . S
N1767 C1760 1.356 . S
N1767 H1770 0.984 . S
N1767 H1771 0.985 . S
H1768 N1763 0.984 . S
H1769 N1763 0.985 . S
H1770 N1767 0.984 . S
H1771 N1767 0.985 . S
H1772 N1766 0.984 . S
H1773 N1766 0.984 . S
H1774 N1762 0.984 . S
H1775 N1762 0.985 . S
C1776 C1777 1.363 . S
C1776 C1782 1.379 1_556 S
C1776 N1784 1.356 . S
C1777 C1776 1.363 . S
C1777 C1783 1.363 . S
C1778 C1779 1.363 . S
C1778 C1783 1.379 1_554 S
C1778 N1785 1.356 . S
C1779 C1778 1.363 . S
C1779 C1782 1.363 . S
N1780 C1782 1.356 . S
N1780 H1792 0.984 . S
N1780 H1793 0.985 . S
N1781 C1783 1.356 . S
N1781 H1786 0.984 . S
N1781 H1787 0.985 . S
C1782 C1776 1.379 1_554 S
C1782 C1779 1.363 . S
C1782 N1780 1.356 . S
C1783 C1777 1.363 . S
C1783 C1778 1.379 1_556 S
C1783 N1781 1.356 . S
N1784 C1776 1.356 . S
N1784 H1790 0.984 . S
N1784 H1791 0.984 . S
N1785 C1778 1.356 . S
N1785 H1788 0.984 . S
N1785 H1789 0.985 . S
H1786 N1781 0.984 . S
H1787 N1781 0.985 . S
H1788 N1785 0.984 . S
H1789 N1785 0.985 . S
H1790 N1784 0.984 . S
H1791 N1784 0.984 . S
H1792 N1780 0.984 . S
H1793 N1780 0.985 . S
C1794 C1795 1.363 . S
C1794 C1800 1.379 . S
C1794 N1802 1.356 . S
C1795 C1794 1.363 . S
C1795 C1801 1.363 . S
C1796 C1797 1.363 . S
C1796 C1801 1.379 . S
C1796 N1803 1.356 . S
C1797 C1796 1.363 . S
C1797 C1800 1.363 . S
N1798 C1800 1.356 . S
N1798 H1810 0.984 . S
N1798 H1811 0.985 . S
N1799 C1801 1.356 . S
N1799 H1804 0.984 . S
N1799 H1805 0.985 . S
C1800 C1794 1.379 . S
C1800 C1797 1.363 . S
C1800 N1798 1.356 . S
C1801 C1795 1.363 . S
C1801 C1796 1.379 . S
C1801 N1799 1.356 . S
N1802 C1794 1.356 . S
N1802 H1808 0.984 . S
N1802 H1809 0.984 . S
N1803 C1796 1.356 . S
N1803 H1806 0.984 . S
N1803 H1807 0.985 . S
H1804 N1799 0.984 . S
H1805 N1799 0.985 . S
H1806 N1803 0.984 . S
H1807 N1803 0.985 . S
H1808 N1802 0.984 . S
H1809 N1802 0.984 . S
H1810 N1798 0.984 . S
H1811 N1798 0.985 . S
C1812 C1813 1.363 . S
C1812 C1818 1.379 . S
C1812 N1820 1.356 . S
C1813 C1812 1.363 . S
C1813 C1819 1.363 1_556 S
C1814 C1815 1.363 . S
C1814 C1819 1.379 . S
C1814 N1821 1.356 . S
C1815 C1814 1.363 . S
C1815 C1818 1.363 1_554 S
N1816 C1818 1.356 . S
N1816 H1828 0.984 . S
N1816 H1829 0.985 1_556 S
N1817 C1819 1.356 . S
N1817 H1822 0.984 1_554 S
N1817 H1823 0.985 . S
C1818 C1812 1.379 . S
C1818 C1815 1.363 1_556 S
C1818 N1816 1.356 . S
C1819 C1813 1.363 1_554 S
C1819 C1814 1.379 . S
C1819 N1817 1.356 . S
N1820 C1812 1.356 . S
N1820 H1826 0.984 . S
N1820 H1827 0.984 . S
N1821 C1814 1.356 . S
N1821 H1824 0.984 . S
N1821 H1825 0.985 . S
H1822 N1817 0.984 1_556 S
H1823 N1817 0.985 . S
H1824 N1821 0.984 . S
H1825 N1821 0.985 . S
H1826 N1820 0.984 . S
H1827 N1820 0.984 . S
H1828 N1816 0.984 . S
H1829 N1816 0.985 1_554 S
C1830 C1831 1.363 . S
C1830 C1836 1.379 . S
C1830 N1838 1.356 . S
C1831 C1830 1.363 . S
C1831 C1837 1.363 . S
C1832 C1833 1.363 . S
C1832 C1837 1.379 . S
C1832 N1839 1.356 . S
C1833 C1832 1.363 . S
C1833 C1836 1.363 . S
N1834 C1836 1.356 . S
N1834 H1846 0.984 . S
N1834 H1847 0.985 . S
N1835 C1837 1.356 . S
N1835 H1840 0.984 . S
N1835 H1841 0.985 . S
C1836 C1830 1.379 . S
C1836 C1833 1.363 . S
C1836 N1834 1.356 . S
C1837 C1831 1.363 . S
C1837 C1832 1.379 . S
C1837 N1835 1.356 . S
N1838 C1830 1.356 . S
N1838 H1844 0.984 . S
N1838 H1845 0.984 . S
N1839 C1832 1.356 . S
N1839 H1842 0.984 . S
N1839 H1843 0.985 . S
H1840 N1835 0.984 . S
H1841 N1835 0.985 . S
H1842 N1839 0.984 . S
H1843 N1839 0.985 . S
H1844 N1838 0.984 . S
H1845 N1838 0.984 . S
H1846 N1834 0.984 . S
H1847 N1834 0.985 . S
C1848 C1849 1.363 1_554 S
C1848 C1854 1.379 1_545 S
C1848 N1856 1.356 . S
C1849 C1848 1.363 1_556 S
C1849 C1855 1.363 . S
C1850 C1851 1.363 1_556 S
C1850 C1855 1.379 1_565 S
C1850 N1857 1.356 . S
C1851 C1850 1.363 1_554 S
C1851 C1854 1.363 . S
N1852 C1854 1.356 . S
N1852 H1864 0.984 . S
N1852 H1865 0.985 . S
N1853 C1855 1.356 . S
N1853 H1858 0.984 . S
N1853 H1859 0.985 . S
C1854 C1848 1.379 1_565 S
C1854 C1851 1.363 . S
C1854 N1852 1.356 . S
C1855 C1849 1.363 . S
C1855 C1850 1.379 1_545 S
C1855 N1853 1.356 . S
N1856 C1848 1.356 . S
N1856 H1862 0.984 . S
N1856 H1863 0.984 1_554 S
N1857 C1850 1.356 . S
N1857 H1860 0.984 1_556 S
N1857 H1861 0.985 . S
H1858 N1853 0.984 . S
H1859 N1853 0.985 . S
H1860 N1857 0.984 1_554 S
H1861 N1857 0.985 . S
H1862 N1856 0.984 . S
H1863 N1856 0.984 1_556 S
H1864 N1852 0.984 . S
H1865 N1852 0.985 . S
C1866 C1867 1.363 . S
C1866 C1872 1.379 . S
C1866 N1874 1.356 . S
C1867 C1866 1.363 . S
C1867 C1873 1.363 . S
C1868 C1869 1.363 . S
C1868 C1873 1.379 . S
C1868 N1875 1.356 . S
C1869 C1868 1.363 . S
C1869 C1872 1.363 . S
N1870 C1872 1.356 . S
N1870 H1882 0.984 . S
N1870 H1883 0.985 . S
N1871 C1873 1.356 . S
N1871 H1876 0.984 . S
N1871 H1877 0.985 . S
C1872 C1866 1.379 . S
C1872 C1869 1.363 . S
C1872 N1870 1.356 . S
C1873 C1867 1.363 . S
C1873 C1868 1.379 . S
C1873 N1871 1.356 . S
N1874 C1866 1.356 . S
N1874 H1880 0.984 . S
N1874 H1881 0.984 . S
N1875 C1868 1.356 . S
N1875 H1878 0.984 . S
N1875 H1879 0.985 . S
H1876 N1871 0.984 . S
H1877 N1871 0.985 . S
H1878 N1875 0.984 . S
H1879 N1875 0.985 . S
H1880 N1874 0.984 . S
H1881 N1874 0.984 . S
H1882 N1870 0.984 . S
H1883 N1870 0.985 . S
C1884 C1885 1.363 . S
C1884 C1890 1.379 . S
C1884 N1892 1.356 . S
C1885 C1884 1.363 . S
C1885 C1891 1.363 . S
C1886 C1887 1.363 . S
C1886 C1891 1.379 . S
C1886 N1893 1.356 . S
C1887 C1886 1.363 . S
C1887 C1890 1.363 . S
N1888 C1890 1.356 . S
N1888 H1900 0.984 . S
N1888 H1901 0.985 . S
N1889 C1891 1.356 . S
N1889 H1894 0.984 . S
N1889 H1895 0.985 . S
C1890 C1884 1.379 . S
C1890 C1887 1.363 . S
C1890 N1888 1.356 . S
C1891 C1885 1.363 . S
C1891 C1886 1.379 . S
C1891 N1889 1.356 . S
N1892 C1884 1.356 . S
N1892 H1898 0.984 . S
N1892 H1899 0.984 . S
N1893 C1886 1.356 . S
N1893 H1896 0.984 . S
N1893 H1897 0.985 . S
H1894 N1889 0.984 . S
H1895 N1889 0.985 . S
H1896 N1893 0.984 . S
H1897 N1893 0.985 . S
H1898 N1892 0.984 . S
H1899 N1892 0.984 . S
H1900 N1888 0.984 . S
H1901 N1888 0.985 . S
C1902 C1903 1.363 . S
C1902 C1908 1.379 . S
C1902 N1910 1.356 . S
C1903 C1902 1.363 . S
C1903 C1909 1.363 . S
C1904 C1905 1.363 . S
C1904 C1909 1.379 . S
C1904 N1911 1.356 . S
C1905 C1904 1.363 . S
C1905 C1908 1.363 . S
N1906 C1908 1.356 . S
N1906 H1918 0.984 . S
N1906 H1919 0.985 . S
N1907 C1909 1.356 . S
N1907 H1912 0.984 . S
N1907 H1913 0.985 . S
C1908 C1902 1.379 . S
C1908 C1905 1.363 . S
C1908 N1906 1.356 . S
C1909 C1903 1.363 . S
C1909 C1904 1.379 . S
C1909 N1907 1.356 . S
N1910 C1902 1.356 . S
N1910 H1916 0.984 . S
N1910 H1917 0.984 . S
N1911 C1904 1.356 . S
N1911 H1914 0.984 . S
N1911 H1915 0.985 . S
H1912 N1907 0.984 . S
H1913 N1907 0.985 . S
H1914 N1911 0.984 . S
H1915 N1911 0.985 . S
H1916 N1910 0.984 . S
H1917 N1910 0.984 . S
H1918 N1906 0.984 . S
H1919 N1906 0.985 . S
C1920 C1921 1.363 . S
C1920 C1926 1.379 . S
C1920 N1928 1.356 . S
C1921 C1920 1.363 . S
C1921 C1927 1.363 . S
C1922 C1923 1.363 . S
C1922 C1927 1.379 . S
C1922 N1929 1.356 . S
C1923 C1922 1.363 . S
C1923 C1926 1.363 . S
N1924 C1926 1.356 . S
N1924 H1936 0.984 . S
N1924 H1937 0.985 . S
N1925 C1927 1.356 . S
N1925 H1930 0.984 . S
N1925 H1931 0.985 . S
C1926 C1920 1.379 . S
C1926 C1923 1.363 . S
C1926 N1924 1.356 . S
C1927 C1921 1.363 . S
C1927 C1922 1.379 . S
C1927 N1925 1.356 . S
N1928 C1920 1.356 . S
N1928 H1934 0.984 . S
N1928 H1935 0.984 . S
N1929 C1922 1.356 . S
N1929 H1932 0.984 . S
N1929 H1933 0.985 . S
H1930 N1925 0.984 . S
H1931 N1925 0.985 . S
H1932 N1929 0.984 . S
H1933 N1929 0.985 . S
H1934 N1928 0.984 . S
H1935 N1928 0.984 . S
H1936 N1924 0.984 . S
H1937 N1924 0.985 . S
C1938 C1939 1.363 . S
C1938 C1944 1.379 . S
C1938 N1946 1.356 . S
C1939 C1938 1.363 . S
C1939 C1945 1.363 . S
C1940 C1941 1.363 . S
C1940 C1945 1.379 . S
C1940 N1947 1.356 . S
C1941 C1940 1.363 . S
C1941 C1944 1.363 . S
N1942 C1944 1.356 . S
N1942 H1954 0.984 . S
N1942 H1955 0.985 . S
N1943 C1945 1.356 . S
N1943 H1948 0.984 . S
N1943 H1949 0.985 . S
C1944 C1938 1.379 . S
C1944 C1941 1.363 . S
C1944 N1942 1.356 . S
C1945 C1939 1.363 . S
C1945 C1940 1.379 . S
C1945 N1943 1.356 . S
N1946 C1938 1.356 . S
N1946 H1952 0.984 . S
N1946 H1953 0.984 . S
N1947 C1940 1.356 . S
N1947 H1950 0.984 . S
N1947 H1951 0.985 . S
H1948 N1943 0.984 . S
H1949 N1943 0.985 . S
H1950 N1947 0.984 . S
H1951 N1947 0.985 . S
H1952 N1946 0.984 . S
H1953 N1946 0.984 . S
H1954 N1942 0.984 . S
H1955 N1942 0.985 . S
C1956 C1957 1.363 . S
C1956 C1962 1.379 . S
C1956 N1964 1.356 . S
C1957 C1956 1.363 . S
C1957 C1963 1.363 . S
C1958 C1959 1.363 . S
C1958 C1963 1.379 . S
C1958 N1965 1.356 . S
C1959 C1958 1.363 . S
C1959 C1962 1.363 . S
N1960 C1962 1.356 . S
N1960 H1972 0.984 . S
N1960 H1973 0.985 . S
N1961 C1963 1.356 . S
N1961 H1966 0.984 . S
N1961 H1967 0.985 . S
C1962 C1956 1.379 . S
C1962 C1959 1.363 . S
C1962 N1960 1.356 . S
C1963 C1957 1.363 . S
C1963 C1958 1.379 . S
C1963 N1961 1.356 . S
N1964 C1956 1.356 . S
N1964 H1970 0.984 . S
N1964 H1971 0.984 . S
N1965 C1958 1.356 . S
N1965 H1968 0.984 . S
N1965 H1969 0.985 . S
H1966 N1961 0.984 . S
H1967 N1961 0.985 . S
H1968 N1965 0.984 . S
H1969 N1965 0.985 . S
H1970 N1964 0.984 . S
H1971 N1964 0.984 . S
H1972 N1960 0.984 . S
H1973 N1960 0.985 . S
C1974 C1975 1.363 . S
C1974 C1980 1.379 . S
C1974 N1982 1.356 . S
C1975 C1974 1.363 . S
C1975 C1981 1.363 . S
C1976 C1977 1.363 . S
C1976 C1981 1.379 . S
C1976 N1983 1.356 . S
C1977 C1976 1.363 . S
C1977 C1980 1.363 . S
N1978 C1980 1.356 . S
N1978 H1990 0.984 . S
N1978 H1991 0.985 . S
N1979 C1981 1.356 . S
N1979 H1984 0.984 . S
N1979 H1985 0.985 . S
C1980 C1974 1.379 . S
C1980 C1977 1.363 . S
C1980 N1978 1.356 . S
C1981 C1975 1.363 . S
C1981 C1976 1.379 . S
C1981 N1979 1.356 . S
N1982 C1974 1.356 . S
N1982 H1988 0.984 . S
N1982 H1989 0.984 . S
N1983 C1976 1.356 . S
N1983 H1986 0.984 . S
N1983 H1987 0.985 . S
H1984 N1979 0.984 . S
H1985 N1979 0.985 . S
H1986 N1983 0.984 . S
H1987 N1983 0.985 . S
H1988 N1982 0.984 . S
H1989 N1982 0.984 . S
H1990 N1978 0.984 . S
H1991 N1978 0.985 . S
C1992 C1993 1.363 . S
C1992 C1998 1.379 . S
C1992 N2000 1.356 . S
C1993 C1992 1.363 . S
C1993 C1999 1.363 . S
C1994 C1995 1.363 . S
C1994 C1999 1.379 . S
C1994 N2001 1.356 . S
C1995 C1994 1.363 . S
C1995 C1998 1.363 . S
N1996 C1998 1.356 . S
N1996 H2008 0.984 . S
N1996 H2009 0.985 . S
N1997 C1999 1.356 . S
N1997 H2002 0.984 . S
N1997 H2003 0.985 . S
C1998 C1992 1.379 . S
C1998 C1995 1.363 . S
C1998 N1996 1.356 . S
C1999 C1993 1.363 . S
C1999 C1994 1.379 . S
C1999 N1997 1.356 . S
N2000 C1992 1.356 . S
N2000 H2006 0.984 . S
N2000 H2007 0.984 . S
N2001 C1994 1.356 . S
N2001 H2004 0.984 . S
N2001 H2005 0.985 . S
H2002 N1997 0.984 . S
H2003 N1997 0.985 . S
H2004 N2001 0.984 . S
H2005 N2001 0.985 . S
H2006 N2000 0.984 . S
H2007 N2000 0.984 . S
H2008 N1996 0.984 . S
H2009 N1996 0.985 . S
C2010 C2011 1.363 . S
C2010 C2016 1.379 . S
C2010 N2018 1.356 . S
C2011 C2010 1.363 . S
C2011 C2017 1.363 . S
C2012 C2013 1.363 . S
C2012 C2017 1.379 . S
C2012 N2019 1.356 . S
C2013 C2012 1.363 . S
C2013 C2016 1.363 . S
N2014 C2016 1.356 . S
N2014 H2026 0.984 . S
N2014 H2027 0.985 . S
N2015 C2017 1.356 . S
N2015 H2020 0.984 . S
N2015 H2021 0.985 . S
C2016 C2010 1.379 . S
C2016 C2013 1.363 . S
C2016 N2014 1.356 . S
C2017 C2011 1.363 . S
C2017 C2012 1.379 . S
C2017 N2015 1.356 . S
N2018 C2010 1.356 . S
N2018 H2024 0.984 . S
N2018 H2025 0.984 . S
N2019 C2012 1.356 . S
N2019 H2022 0.984 . S
N2019 H2023 0.985 . S
H2020 N2015 0.984 . S
H2021 N2015 0.985 . S
H2022 N2019 0.984 . S
H2023 N2019 0.985 . S
H2024 N2018 0.984 . S
H2025 N2018 0.984 . S
H2026 N2014 0.984 . S
H2027 N2014 0.985 . S
C2028 C2029 1.363 . S
C2028 C2034 1.379 . S
C2028 N2036 1.356 . S
C2029 C2028 1.363 . S
C2029 C2035 1.363 . S
C2030 C2031 1.363 . S
C2030 C2035 1.379 . S
C2030 N2037 1.356 . S
C2031 C2030 1.363 . S
C2031 C2034 1.363 . S
N2032 C2034 1.356 . S
N2032 H2044 0.984 . S
N2032 H2045 0.985 . S
N2033 C2035 1.356 . S
N2033 H2038 0.984 . S
N2033 H2039 0.985 . S
C2034 C2028 1.379 . S
C2034 C2031 1.363 . S
C2034 N2032 1.356 . S
C2035 C2029 1.363 . S
C2035 C2030 1.379 . S
C2035 N2033 1.356 . S
N2036 C2028 1.356 . S
N2036 H2042 0.984 . S
N2036 H2043 0.984 . S
N2037 C2030 1.356 . S
N2037 H2040 0.984 . S
N2037 H2041 0.985 . S
H2038 N2033 0.984 . S
H2039 N2033 0.985 . S
H2040 N2037 0.984 . S
H2041 N2037 0.985 . S
H2042 N2036 0.984 . S
H2043 N2036 0.984 . S
H2044 N2032 0.984 . S
H2045 N2032 0.985 . S
C2046 C2047 1.363 . S
C2046 C2052 1.379 . S
C2046 N2054 1.356 . S
C2047 C2046 1.363 . S
C2047 C2053 1.363 . S
C2048 C2049 1.363 . S
C2048 C2053 1.379 . S
C2048 N2055 1.356 . S
C2049 C2048 1.363 . S
C2049 C2052 1.363 . S
N2050 C2052 1.356 . S
N2050 H2062 0.984 . S
N2050 H2063 0.985 . S
N2051 C2053 1.356 . S
N2051 H2056 0.984 . S
N2051 H2057 0.985 . S
C2052 C2046 1.379 . S
C2052 C2049 1.363 . S
C2052 N2050 1.356 . S
C2053 C2047 1.363 . S
C2053 C2048 1.379 . S
C2053 N2051 1.356 . S
N2054 C2046 1.356 . S
N2054 H2060 0.984 . S
N2054 H2061 0.984 . S
N2055 C2048 1.356 . S
N2055 H2058 0.984 . S
N2055 H2059 0.985 . S
H2056 N2051 0.984 . S
H2057 N2051 0.985 . S
H2058 N2055 0.984 . S
H2059 N2055 0.985 . S
H2060 N2054 0.984 . S
H2061 N2054 0.984 . S
H2062 N2050 0.984 . S
H2063 N2050 0.985 . S
C2064 C2065 1.363 . S
C2064 C2070 1.379 . S
C2064 N2072 1.356 . S
C2065 C2064 1.363 . S
C2065 C2071 1.363 . S
C2066 C2067 1.363 . S
C2066 C2071 1.379 . S
C2066 N2073 1.356 . S
C2067 C2066 1.363 . S
C2067 C2070 1.363 . S
N2068 C2070 1.356 . S
N2068 H2080 0.984 . S
N2068 H2081 0.985 . S
N2069 C2071 1.356 . S
N2069 H2074 0.984 . S
N2069 H2075 0.985 . S
C2070 C2064 1.379 . S
C2070 C2067 1.363 . S
C2070 N2068 1.356 . S
C2071 C2065 1.363 . S
C2071 C2066 1.379 . S
C2071 N2069 1.356 . S
N2072 C2064 1.356 . S
N2072 H2078 0.984 . S
N2072 H2079 0.984 . S
N2073 C2066 1.356 . S
N2073 H2076 0.984 . S
N2073 H2077 0.985 . S
H2074 N2069 0.984 . S
H2075 N2069 0.985 . S
H2076 N2073 0.984 . S
H2077 N2073 0.985 . S
H2078 N2072 0.984 . S
H2079 N2072 0.984 . S
H2080 N2068 0.984 . S
H2081 N2068 0.985 . S
C2082 C2083 1.363 . S
C2082 C2088 1.379 . S
C2082 N2090 1.356 . S
C2083 C2082 1.363 . S
C2083 C2089 1.363 . S
C2084 C2085 1.363 . S
C2084 C2089 1.379 . S
C2084 N2091 1.356 . S
C2085 C2084 1.363 . S
C2085 C2088 1.363 . S
N2086 C2088 1.356 . S
N2086 H2098 0.984 . S
N2086 H2099 0.985 . S
N2087 C2089 1.356 . S
N2087 H2092 0.984 . S
N2087 H2093 0.985 . S
C2088 C2082 1.379 . S
C2088 C2085 1.363 . S
C2088 N2086 1.356 . S
C2089 C2083 1.363 . S
C2089 C2084 1.379 . S
C2089 N2087 1.356 . S
N2090 C2082 1.356 . S
N2090 H2096 0.984 . S
N2090 H2097 0.984 . S
N2091 C2084 1.356 . S
N2091 H2094 0.984 . S
N2091 H2095 0.985 . S
H2092 N2087 0.984 . S
H2093 N2087 0.985 . S
H2094 N2091 0.984 . S
H2095 N2091 0.985 . S
H2096 N2090 0.984 . S
H2097 N2090 0.984 . S
H2098 N2086 0.984 . S
H2099 N2086 0.985 . S
C2100 C2101 1.363 . S
C2100 C2106 1.379 . S
C2100 N2108 1.356 . S
C2101 C2100 1.363 . S
C2101 C2107 1.363 . S
C2102 C2103 1.363 . S
C2102 C2107 1.379 . S
C2102 N2109 1.356 . S
C2103 C2102 1.363 . S
C2103 C2106 1.363 . S
N2104 C2106 1.356 . S
N2104 H2116 0.984 . S
N2104 H2117 0.985 . S
N2105 C2107 1.356 . S
N2105 H2110 0.984 . S
N2105 H2111 0.985 . S
C2106 C2100 1.379 . S
C2106 C2103 1.363 . S
C2106 N2104 1.356 . S
C2107 C2101 1.363 . S
C2107 C2102 1.379 . S
C2107 N2105 1.356 . S
N2108 C2100 1.356 . S
N2108 H2114 0.984 . S
N2108 H2115 0.984 . S
N2109 C2102 1.356 . S
N2109 H2112 0.984 . S
N2109 H2113 0.985 . S
H2110 N2105 0.984 . S
H2111 N2105 0.985 . S
H2112 N2109 0.984 . S
H2113 N2109 0.985 . S
H2114 N2108 0.984 . S
H2115 N2108 0.984 . S
H2116 N2104 0.984 . S
H2117 N2104 0.985 . S
C2118 C2119 1.363 . S
C2118 C2124 1.379 . S
C2118 N2126 1.356 . S
C2119 C2118 1.363 . S
C2119 C2125 1.363 . S
C2120 C2121 1.363 . S
C2120 C2125 1.379 . S
C2120 N2127 1.356 . S
C2121 C2120 1.363 . S
C2121 C2124 1.363 . S
N2122 C2124 1.356 . S
N2122 H2134 0.984 . S
N2122 H2135 0.985 . S
N2123 C2125 1.356 . S
N2123 H2128 0.984 . S
N2123 H2129 0.985 . S
C2124 C2118 1.379 . S
C2124 C2121 1.363 . S
C2124 N2122 1.356 . S
C2125 C2119 1.363 . S
C2125 C2120 1.379 . S
C2125 N2123 1.356 . S
N2126 C2118 1.356 . S
N2126 H2132 0.984 . S
N2126 H2133 0.984 . S
N2127 C2120 1.356 . S
N2127 H2130 0.984 . S
N2127 H2131 0.985 . S
H2128 N2123 0.984 . S
H2129 N2123 0.985 . S
H2130 N2127 0.984 . S
H2131 N2127 0.985 . S
H2132 N2126 0.984 . S
H2133 N2126 0.984 . S
H2134 N2122 0.984 . S
H2135 N2122 0.985 . S
C2136 C2137 1.363 . S
C2136 C2142 1.379 . S
C2136 N2144 1.356 . S
C2137 C2136 1.363 . S
C2137 C2143 1.363 . S
C2138 C2139 1.363 . S
C2138 C2143 1.379 . S
C2138 N2145 1.356 . S
C2139 C2138 1.363 . S
C2139 C2142 1.363 . S
N2140 C2142 1.356 . S
N2140 H2152 0.984 . S
N2140 H2153 0.985 . S
N2141 C2143 1.356 . S
N2141 H2146 0.984 . S
N2141 H2147 0.985 . S
C2142 C2136 1.379 . S
C2142 C2139 1.363 . S
C2142 N2140 1.356 . S
C2143 C2137 1.363 . S
C2143 C2138 1.379 . S
C2143 N2141 1.356 . S
N2144 C2136 1.356 . S
N2144 H2150 0.984 . S
N2144 H2151 0.984 . S
N2145 C2138 1.356 . S
N2145 H2148 0.984 . S
N2145 H2149 0.985 . S
H2146 N2141 0.984 . S
H2147 N2141 0.985 . S
H2148 N2145 0.984 . S
H2149 N2145 0.985 . S
H2150 N2144 0.984 . S
H2151 N2144 0.984 . S
H2152 N2140 0.984 . S
H2153 N2140 0.985 . S
C2154 C2155 1.363 . S
C2154 C2160 1.379 . S
C2154 N2162 1.356 . S
C2155 C2154 1.363 . S
C2155 C2161 1.363 . S
C2156 C2157 1.363 . S
C2156 C2161 1.379 . S
C2156 N2163 1.356 . S
C2157 C2156 1.363 . S
C2157 C2160 1.363 . S
N2158 C2160 1.356 . S
N2158 H2170 0.984 . S
N2158 H2171 0.985 . S
N2159 C2161 1.356 . S
N2159 H2164 0.984 . S
N2159 H2165 0.985 . S
C2160 C2154 1.379 . S
C2160 C2157 1.363 . S
C2160 N2158 1.356 . S
C2161 C2155 1.363 . S
C2161 C2156 1.379 . S
C2161 N2159 1.356 . S
N2162 C2154 1.356 . S
N2162 H2168 0.984 . S
N2162 H2169 0.984 . S
N2163 C2156 1.356 . S
N2163 H2166 0.984 . S
N2163 H2167 0.985 . S
H2164 N2159 0.984 . S
H2165 N2159 0.985 . S
H2166 N2163 0.984 . S
H2167 N2163 0.985 . S
H2168 N2162 0.984 . S
H2169 N2162 0.984 . S
H2170 N2158 0.984 . S
H2171 N2158 0.985 . S
C2172 C2173 1.363 . S
C2172 C2178 1.379 . S
C2172 N2180 1.356 . S
C2173 C2172 1.363 . S
C2173 C2179 1.363 . S
C2174 C2175 1.363 . S
C2174 C2179 1.379 . S
C2174 N2181 1.356 . S
C2175 C2174 1.363 . S
C2175 C2178 1.363 . S
N2176 C2178 1.356 . S
N2176 H2188 0.984 . S
N2176 H2189 0.985 . S
N2177 C2179 1.356 . S
N2177 H2182 0.984 . S
N2177 H2183 0.985 . S
C2178 C2172 1.379 . S
C2178 C2175 1.363 . S
C2178 N2176 1.356 . S
C2179 C2173 1.363 . S
C2179 C2174 1.379 . S
C2179 N2177 1.356 . S
N2180 C2172 1.356 . S
N2180 H2186 0.984 . S
N2180 H2187 0.984 . S
N2181 C2174 1.356 . S
N2181 H2184 0.984 . S
N2181 H2185 0.985 . S
H2182 N2177 0.984 . S
H2183 N2177 0.985 . S
H2184 N2181 0.984 . S
H2185 N2181 0.985 . S
H2186 N2180 0.984 . S
H2187 N2180 0.984 . S
H2188 N2176 0.984 . S
H2189 N2176 0.985 . S
C2190 C2191 1.363 . S
C2190 C2196 1.379 . S
C2190 N2198 1.356 . S
C2191 C2190 1.363 . S
C2191 C2197 1.363 . S
C2192 C2193 1.363 . S
C2192 C2197 1.379 . S
C2192 N2199 1.356 . S
C2193 C2192 1.363 . S
C2193 C2196 1.363 . S
N2194 C2196 1.356 . S
N2194 H2206 0.984 . S
N2194 H2207 0.985 . S
N2195 C2197 1.356 . S
N2195 H2200 0.984 . S
N2195 H2201 0.985 . S
C2196 C2190 1.379 . S
C2196 C2193 1.363 . S
C2196 N2194 1.356 . S
C2197 C2191 1.363 . S
C2197 C2192 1.379 . S
C2197 N2195 1.356 . S
N2198 C2190 1.356 . S
N2198 H2204 0.984 . S
N2198 H2205 0.984 . S
N2199 C2192 1.356 . S
N2199 H2202 0.984 . S
N2199 H2203 0.985 . S
H2200 N2195 0.984 . S
H2201 N2195 0.985 . S
H2202 N2199 0.984 . S
H2203 N2199 0.985 . S
H2204 N2198 0.984 . S
H2205 N2198 0.984 . S
H2206 N2194 0.984 . S
H2207 N2194 0.985 . S
C2208 C2209 1.363 . S
C2208 C2214 1.379 . S
C2208 N2216 1.356 . S
C2209 C2208 1.363 . S
C2209 C2215 1.363 1_455 S
C2210 C2211 1.363 1_655 S
C2210 C2215 1.379 . S
C2210 N2217 1.356 . S
C2211 C2210 1.363 1_455 S
C2211 C2214 1.363 . S
N2212 C2214 1.356 . S
N2212 H2224 0.984 . S
N2212 H2225 0.985 1_554 S
N2213 C2215 1.356 . S
N2213 H2218 0.984 . S
N2213 H2219 0.985 . S
C2214 C2208 1.379 . S
C2214 C2211 1.363 . S
C2214 N2212 1.356 . S
C2215 C2209 1.363 1_655 S
C2215 C2210 1.379 . S
C2215 N2213 1.356 . S
N2216 C2208 1.356 . S
N2216 H2222 0.984 . S
N2216 H2223 0.984 . S
N2217 C2210 1.356 . S
N2217 H2220 0.984 . S
N2217 H2221 0.985 . S
H2218 N2213 0.984 . S
H2219 N2213 0.985 . S
H2220 N2217 0.984 . S
H2221 N2217 0.985 . S
H2222 N2216 0.984 . S
H2223 N2216 0.984 . S
H2224 N2212 0.984 . S
H2225 N2212 0.985 1_556 S
C2226 C2227 1.363 . S
C2226 C2232 1.379 . S
C2226 N2234 1.356 . S
C2227 C2226 1.363 . S
C2227 C2233 1.363 . S
C2228 C2229 1.363 . S
C2228 C2233 1.379 . S
C2228 N2235 1.356 . S
C2229 C2228 1.363 . S
C2229 C2232 1.363 . S
N2230 C2232 1.356 . S
N2230 H2242 0.984 . S
N2230 H2243 0.985 . S
N2231 C2233 1.356 . S
N2231 H2236 0.984 . S
N2231 H2237 0.985 . S
C2232 C2226 1.379 . S
C2232 C2229 1.363 . S
C2232 N2230 1.356 . S
C2233 C2227 1.363 . S
C2233 C2228 1.379 . S
C2233 N2231 1.356 . S
N2234 C2226 1.356 . S
N2234 H2240 0.984 1_554 S
N2234 H2241 0.984 1_554 S
N2235 C2228 1.356 . S
N2235 H2238 0.984 . S
N2235 H2239 0.985 . S
H2236 N2231 0.984 . S
H2237 N2231 0.985 . S
H2238 N2235 0.984 . S
H2239 N2235 0.985 . S
H2240 N2234 0.984 1_556 S
H2241 N2234 0.984 1_556 S
H2242 N2230 0.984 . S
H2243 N2230 0.985 . S
C2244 C2245 1.370 . S
C2244 C2250 1.379 . S
C2244 N2252 1.352 1_655 S
C2245 C2244 1.370 . S
C2245 C2251 1.363 . S
C2246 C2247 1.363 . S
C2246 C2251 1.379 . S
C2246 N2253 1.356 . S
C2247 C2246 1.363 . S
C2247 C2250 1.370 . S
N2248 C2250 1.352 1_455 S
N2248 H2260 0.984 . S
N2248 H2261 0.985 . S
N2249 C2251 1.356 . S
N2249 H2254 0.984 1_556 S
N2249 H2255 0.985 1_556 S
C2250 C2244 1.379 . S
C2250 C2247 1.370 . S
C2250 N2248 1.352 1_655 S
C2251 C2245 1.363 . S
C2251 C2246 1.379 . S
C2251 N2249 1.356 . S
N2252 C2244 1.352 1_455 S
N2252 H2258 0.984 . S
N2252 H2259 0.984 . S
N2253 C2246 1.356 . S
N2253 H2256 0.984 . S
N2253 H2257 0.985 . S
H2254 N2249 0.984 1_554 S
H2255 N2249 0.985 1_554 S
H2256 N2253 0.984 . S
H2257 N2253 0.985 . S
H2258 N2252 0.984 . S
H2259 N2252 0.984 . S
H2260 N2248 0.984 . S
H2261 N2248 0.985 . S
C2262 C2263 1.363 . S
C2262 C2268 1.379 . S
C2262 N2270 1.356 . S
C2263 C2262 1.363 . S
C2263 C2269 1.363 . S
C2264 C2265 1.363 . S
C2264 C2269 1.379 . S
C2264 N2271 1.356 . S
C2265 C2264 1.363 . S
C2265 C2268 1.363 . S
N2266 C2268 1.356 . S
N2266 H2278 0.984 . S
N2266 H2279 0.985 . S
N2267 C2269 1.356 . S
N2267 H2272 0.984 . S
N2267 H2273 0.985 . S
C2268 C2262 1.379 . S
C2268 C2265 1.363 . S
C2268 N2266 1.356 . S
C2269 C2263 1.363 . S
C2269 C2264 1.379 . S
C2269 N2267 1.356 . S
N2270 C2262 1.356 . S
N2270 H2276 0.984 . S
N2270 H2277 0.984 . S
N2271 C2264 1.356 . S
N2271 H2274 0.984 1_556 S
N2271 H2275 0.985 . S
H2272 N2267 0.984 . S
H2273 N2267 0.985 . S
H2274 N2271 0.984 1_554 S
H2275 N2271 0.985 . S
H2276 N2270 0.984 . S
H2277 N2270 0.984 . S
H2278 N2266 0.984 . S
H2279 N2266 0.985 . S
C2280 C2281 1.363 . S
C2280 C2286 1.379 . S
C2280 N2288 1.356 . S
C2281 C2280 1.363 . S
C2281 C2287 1.363 1_455 S
C2282 C2283 1.363 1_655 S
C2282 C2287 1.379 . S
C2282 N2289 1.356 . S
C2283 C2282 1.363 1_455 S
C2283 C2286 1.363 . S
N2284 C2286 1.356 . S
N2284 H2296 0.984 . S
N2284 H2297 0.985 . S
N2285 C2287 1.356 . S
N2285 H2290 0.984 . S
N2285 H2291 0.985 . S
C2286 C2280 1.379 . S
C2286 C2283 1.363 . S
C2286 N2284 1.356 . S
C2287 C2281 1.363 1_655 S
C2287 C2282 1.379 . S
C2287 N2285 1.356 . S
N2288 C2280 1.356 . S
N2288 H2294 0.984 . S
N2288 H2295 0.984 . S
N2289 C2282 1.356 . S
N2289 H2292 0.984 . S
N2289 H2293 0.985 . S
H2290 N2285 0.984 . S
H2291 N2285 0.985 . S
H2292 N2289 0.984 . S
H2293 N2289 0.985 . S
H2294 N2288 0.984 . S
H2295 N2288 0.984 . S
H2296 N2284 0.984 . S
H2297 N2284 0.985 . S
C2298 C2299 1.363 . S
C2298 C2304 1.379 . S
C2298 N2306 1.356 . S
C2299 C2298 1.363 . S
C2299 C2305 1.363 . S
C2300 C2301 1.363 . S
C2300 C2305 1.379 . S
C2300 N2307 1.356 . S
C2301 C2300 1.363 . S
C2301 C2304 1.363 . S
N2302 C2304 1.356 . S
N2302 H2314 0.984 . S
N2302 H2315 0.985 . S
N2303 C2305 1.356 . S
N2303 H2308 0.984 . S
N2303 H2309 0.985 . S
C2304 C2298 1.379 . S
C2304 C2301 1.363 . S
C2304 N2302 1.356 . S
C2305 C2299 1.363 . S
C2305 C2300 1.379 . S
C2305 N2303 1.356 . S
N2306 C2298 1.356 . S
N2306 H2312 0.984 . S
N2306 H2313 0.984 . S
N2307 C2300 1.356 . S
N2307 H2310 0.984 . S
N2307 H2311 0.985 . S
H2308 N2303 0.984 . S
H2309 N2303 0.985 . S
H2310 N2307 0.984 . S
H2311 N2307 0.985 . S
H2312 N2306 0.984 . S
H2313 N2306 0.984 . S
H2314 N2302 0.984 . S
H2315 N2302 0.985 . S
C2316 C2317 1.363 1_455 S
C2316 C2322 1.379 . S
C2316 N2324 1.356 . S
C2317 C2316 1.363 1_655 S
C2317 C2323 1.363 . S
C2318 C2319 1.363 . S
C2318 C2323 1.379 . S
C2318 N2325 1.356 . S
C2319 C2318 1.363 . S
C2319 C2322 1.363 1_655 S
N2320 C2322 1.356 . S
N2320 H2332 0.984 . S
N2320 H2333 0.985 . S
N2321 C2323 1.356 . S
N2321 H2326 0.984 . S
N2321 H2327 0.985 . S
C2322 C2316 1.379 . S
C2322 C2319 1.363 1_455 S
C2322 N2320 1.356 . S
C2323 C2317 1.363 . S
C2323 C2318 1.379 . S
C2323 N2321 1.356 . S
N2324 C2316 1.356 . S
N2324 H2330 0.984 . S
N2324 H2331 0.984 . S
N2325 C2318 1.356 . S
N2325 H2328 0.984 . S
N2325 H2329 0.985 . S
H2326 N2321 0.984 . S
H2327 N2321 0.985 . S
H2328 N2325 0.984 . S
H2329 N2325 0.985 . S
H2330 N2324 0.984 . S
H2331 N2324 0.984 . S
H2332 N2320 0.984 . S
H2333 N2320 0.985 . S
C2334 C2335 1.363 . S
C2334 C2340 1.379 . S
C2334 N2342 1.356 . S
C2335 C2334 1.363 . S
C2335 C2341 1.363 . S
C2336 C2337 1.363 . S
C2336 C2341 1.379 . S
C2336 N2343 1.356 . S
C2337 C2336 1.363 . S
C2337 C2340 1.363 . S
N2338 C2340 1.356 . S
N2338 H2350 0.984 . S
N2338 H2351 0.985 . S
N2339 C2341 1.356 . S
N2339 H2344 0.984 . S
N2339 H2345 0.985 . S
C2340 C2334 1.379 . S
C2340 C2337 1.363 . S
C2340 N2338 1.356 . S
C2341 C2335 1.363 . S
C2341 C2336 1.379 . S
C2341 N2339 1.356 . S
N2342 C2334 1.356 . S
N2342 H2348 0.984 . S
N2342 H2349 0.984 . S
N2343 C2336 1.356 . S
N2343 H2346 0.984 . S
N2343 H2347 0.985 . S
H2344 N2339 0.984 . S
H2345 N2339 0.985 . S
H2346 N2343 0.984 . S
H2347 N2343 0.985 . S
H2348 N2342 0.984 . S
H2349 N2342 0.984 . S
H2350 N2338 0.984 . S
H2351 N2338 0.985 . S
C2352 C2353 1.363 . S
C2352 C2358 1.379 . S
C2352 N2360 1.356 . S
C2353 C2352 1.363 . S
C2353 C2359 1.363 . S
C2354 C2355 1.363 . S
C2354 C2359 1.379 . S
C2354 N2361 1.356 . S
C2355 C2354 1.363 . S
C2355 C2358 1.363 . S
N2356 C2358 1.356 . S
N2356 H2368 0.984 . S
N2356 H2369 0.985 . S
N2357 C2359 1.356 . S
N2357 H2362 0.984 . S
N2357 H2363 0.985 . S
C2358 C2352 1.379 . S
C2358 C2355 1.363 . S
C2358 N2356 1.356 . S
C2359 C2353 1.363 . S
C2359 C2354 1.379 . S
C2359 N2357 1.356 . S
N2360 C2352 1.356 . S
N2360 H2366 0.984 . S
N2360 H2367 0.984 . S
N2361 C2354 1.356 . S
N2361 H2364 0.984 . S
N2361 H2365 0.985 . S
H2362 N2357 0.984 . S
H2363 N2357 0.985 . S
H2364 N2361 0.984 . S
H2365 N2361 0.985 . S
H2366 N2360 0.984 . S
H2367 N2360 0.984 . S
H2368 N2356 0.984 . S
H2369 N2356 0.985 . S
C2370 C2371 1.363 . S
C2370 C2376 1.379 . S
C2370 N2378 1.356 . S
C2371 C2370 1.363 . S
C2371 C2377 1.363 . S
C2372 C2373 1.363 . S
C2372 C2377 1.379 . S
C2372 N2379 1.356 . S
C2373 C2372 1.363 . S
C2373 C2376 1.363 . S
N2374 C2376 1.356 . S
N2374 H2386 0.984 . S
N2374 H2387 0.985 . S
N2375 C2377 1.356 . S
N2375 H2380 0.984 . S
N2375 H2381 0.985 . S
C2376 C2370 1.379 . S
C2376 C2373 1.363 . S
C2376 N2374 1.356 . S
C2377 C2371 1.363 . S
C2377 C2372 1.379 . S
C2377 N2375 1.356 . S
N2378 C2370 1.356 . S
N2378 H2384 0.984 . S
N2378 H2385 0.984 . S
N2379 C2372 1.356 . S
N2379 H2382 0.984 . S
N2379 H2383 0.985 . S
H2380 N2375 0.984 . S
H2381 N2375 0.985 . S
H2382 N2379 0.984 . S
H2383 N2379 0.985 . S
H2384 N2378 0.984 . S
H2385 N2378 0.984 . S
H2386 N2374 0.984 . S
H2387 N2374 0.985 . S
C2388 C2389 1.363 . S
C2388 C2394 1.379 . S
C2388 N2396 1.356 . S
C2389 C2388 1.363 . S
C2389 C2395 1.363 . S
C2390 C2391 1.363 . S
C2390 C2395 1.379 . S
C2390 N2397 1.356 . S
C2391 C2390 1.363 . S
C2391 C2394 1.363 . S
N2392 C2394 1.356 . S
N2392 H2404 0.984 . S
N2392 H2405 0.985 . S
N2393 C2395 1.356 . S
N2393 H2398 0.984 . S
N2393 H2399 0.985 . S
C2394 C2388 1.379 . S
C2394 C2391 1.363 . S
C2394 N2392 1.356 . S
C2395 C2389 1.363 . S
C2395 C2390 1.379 . S
C2395 N2393 1.356 . S
N2396 C2388 1.356 . S
N2396 H2402 0.984 . S
N2396 H2403 0.984 . S
N2397 C2390 1.356 . S
N2397 H2400 0.984 . S
N2397 H2401 0.985 . S
H2398 N2393 0.984 . S
H2399 N2393 0.985 . S
H2400 N2397 0.984 . S
H2401 N2397 0.985 . S
H2402 N2396 0.984 . S
H2403 N2396 0.984 . S
H2404 N2392 0.984 . S
H2405 N2392 0.985 . S
C2406 C2407 1.363 . S
C2406 C2412 1.379 . S
C2406 N2414 1.356 . S
C2407 C2406 1.363 . S
C2407 C2413 1.363 . S
C2408 C2409 1.363 . S
C2408 C2413 1.379 . S
C2408 N2415 1.356 . S
C2409 C2408 1.363 . S
C2409 C2412 1.363 . S
N2410 C2412 1.356 . S
N2410 H2422 0.984 . S
N2410 H2423 0.985 . S
N2411 C2413 1.356 . S
N2411 H2416 0.984 . S
N2411 H2417 0.985 . S
C2412 C2406 1.379 . S
C2412 C2409 1.363 . S
C2412 N2410 1.356 . S
C2413 C2407 1.363 . S
C2413 C2408 1.379 . S
C2413 N2411 1.356 . S
N2414 C2406 1.356 . S
N2414 H2420 0.984 . S
N2414 H2421 0.984 . S
N2415 C2408 1.356 . S
N2415 H2418 0.984 . S
N2415 H2419 0.985 . S
H2416 N2411 0.984 . S
H2417 N2411 0.985 . S
H2418 N2415 0.984 . S
H2419 N2415 0.985 . S
H2420 N2414 0.984 . S
H2421 N2414 0.984 . S
H2422 N2410 0.984 . S
H2423 N2410 0.985 . S
C2424 C2425 1.363 . S
C2424 C2430 1.379 . S
C2424 N2432 1.356 . S
C2425 C2424 1.363 . S
C2425 C2431 1.363 . S
C2426 C2427 1.363 . S
C2426 C2431 1.379 . S
C2426 N2433 1.356 . S
C2427 C2426 1.363 . S
C2427 C2430 1.363 . S
N2428 C2430 1.356 . S
N2428 H2440 0.984 . S
N2428 H2441 0.985 . S
N2429 C2431 1.356 . S
N2429 H2434 0.984 1_554 S
N2429 H2435 0.985 . S
C2430 C2424 1.379 . S
C2430 C2427 1.363 . S
C2430 N2428 1.356 . S
C2431 C2425 1.363 . S
C2431 C2426 1.379 . S
C2431 N2429 1.356 . S
N2432 C2424 1.356 . S
N2432 H2438 0.984 . S
N2432 H2439 0.984 . S
N2433 C2426 1.356 . S
N2433 H2436 0.984 . S
N2433 H2437 0.985 . S
H2434 N2429 0.984 1_556 S
H2435 N2429 0.985 . S
H2436 N2433 0.984 . S
H2437 N2433 0.985 . S
H2438 N2432 0.984 . S
H2439 N2432 0.984 . S
H2440 N2428 0.984 . S
H2441 N2428 0.985 . S
C2442 C2443 1.363 . S
C2442 C2448 1.379 . S
C2442 N2450 1.356 . S
C2443 C2442 1.363 . S
C2443 C2449 1.363 . S
C2444 C2445 1.363 . S
C2444 C2449 1.379 . S
C2444 N2451 1.356 . S
C2445 C2444 1.363 . S
C2445 C2448 1.363 . S
N2446 C2448 1.356 . S
N2446 H2458 0.984 . S
N2446 H2459 0.985 1_554 S
N2447 C2449 1.356 . S
N2447 H2452 0.984 . S
N2447 H2453 0.985 . S
C2448 C2442 1.379 . S
C2448 C2445 1.363 . S
C2448 N2446 1.356 . S
C2449 C2443 1.363 . S
C2449 C2444 1.379 . S
C2449 N2447 1.356 . S
N2450 C2442 1.356 . S
N2450 H2456 0.984 . S
N2450 H2457 0.984 . S
N2451 C2444 1.356 . S
N2451 H2454 0.984 . S
N2451 H2455 0.985 . S
H2452 N2447 0.984 . S
H2453 N2447 0.985 . S
H2454 N2451 0.984 . S
H2455 N2451 0.985 . S
H2456 N2450 0.984 . S
H2457 N2450 0.984 . S
H2458 N2446 0.984 . S
H2459 N2446 0.985 1_556 S
C2460 C2461 1.363 . S
C2460 C2466 1.379 . S
C2460 N2468 1.356 . S
C2461 C2460 1.363 . S
C2461 C2467 1.363 . S
C2462 C2463 1.363 . S
C2462 C2467 1.379 . S
C2462 N2469 1.356 . S
C2463 C2462 1.363 . S
C2463 C2466 1.363 . S
N2464 C2466 1.356 . S
N2464 H2476 0.984 . S
N2464 H2477 0.985 . S
N2465 C2467 1.356 . S
N2465 H2470 0.984 . S
N2465 H2471 0.985 . S
C2466 C2460 1.379 . S
C2466 C2463 1.363 . S
C2466 N2464 1.356 . S
C2467 C2461 1.363 . S
C2467 C2462 1.379 . S
C2467 N2465 1.356 . S
N2468 C2460 1.356 . S
N2468 H2474 0.984 . S
N2468 H2475 0.984 1_556 S
N2469 C2462 1.356 . S
N2469 H2472 0.984 . S
N2469 H2473 0.985 . S
H2470 N2465 0.984 . S
H2471 N2465 0.985 . S
H2472 N2469 0.984 . S
H2473 N2469 0.985 . S
H2474 N2468 0.984 . S
H2475 N2468 0.984 1_554 S
H2476 N2464 0.984 . S
H2477 N2464 0.985 . S
C2478 C2479 1.363 . S
C2478 C2484 1.379 . S
C2478 N2486 1.356 . S
C2479 C2478 1.363 . S
C2479 C2485 1.363 . S
C2480 C2481 1.363 . S
C2480 C2485 1.379 . S
C2480 N2487 1.356 . S
C2481 C2480 1.363 . S
C2481 C2484 1.363 . S
N2482 C2484 1.356 . S
N2482 H2494 0.984 . S
N2482 H2495 0.985 . S
N2483 C2485 1.356 . S
N2483 H2488 0.984 . S
N2483 H2489 0.985 . S
C2484 C2478 1.379 . S
C2484 C2481 1.363 . S
C2484 N2482 1.356 . S
C2485 C2479 1.363 . S
C2485 C2480 1.379 . S
C2485 N2483 1.356 . S
N2486 C2478 1.356 . S
N2486 H2492 0.984 . S
N2486 H2493 0.984 . S
N2487 C2480 1.356 . S
N2487 H2490 0.984 1_556 S
N2487 H2491 0.987 . S
H2488 N2483 0.984 . S
H2489 N2483 0.985 . S
H2490 N2487 0.984 1_554 S
H2491 N2487 0.987 . S
H2492 N2486 0.984 . S
H2493 N2486 0.984 . S
H2494 N2482 0.984 . S
H2495 N2482 0.985 . S
C1057 C7 1.003 . S
C1059 C73 1.003 . S
C1075 C40 1.000 . S
C1077 C106 1.000 . S
C1093 C139 1.003 . S
C1095 C205 1.003 . S
C1111 C172 1.000 . S
C1113 C238 1.000 . S
C1129 C337 1.003 . S
C1131 C271 1.003 . S
C1147 C304 1.000 . S
C1149 C370 1.000 . S
C1165 C403 1.003 . S
C1167 C469 1.003 . S
C1183 C436 1.000 . S
C1185 C502 1.000 . S
C1201 C601 1.003 . S
C1203 C535 1.003 . S
C1219 C634 1.000 . S
C1221 C568 1.000 . S
C1237 C667 1.003 . S
C1239 C733 1.003 . S
C1255 C766 1.000 . S
C1257 C700 1.000 . S
C1273 C865 1.003 . S
C1275 C799 1.003 . S
C1291 C898 1.000 . S
C1293 C832 1.000 . S
C1309 C997 1.003 . S
C1311 C931 1.003 . S
C1327 C964 1.000 . S
C1329 C1030 1.000 . S
C1345 N13 1.728 . S
C1347 N46 1.724 . S
C1363 N79 1.728 . S
C1365 N112 1.724 . S
C1381 N178 1.729 . S
C1383 N145 1.723 . S
C1399 N211 1.728 . S
C1401 N244 1.724 . S
C1417 N310 1.729 . S
C1419 N277 1.723 . S
C1435 N343 1.728 . S
C1437 N376 1.724 . S
C1453 N409 1.728 . S
C1455 N442 1.724 . S
C1471 N475 1.728 . S
C1473 N508 1.724 . S
C1489 N541 1.733 . S
C1491 N574 1.733 . S
C1507 N640 1.733 . S
C1509 N607 1.733 . S
C1525 N706 1.733 . S
C1527 N673 1.733 . S
C1543 N739 1.733 . S
C1545 N772 1.733 . S
C1561 N805 1.733 . S
C1563 N838 1.733 . S
C1579 N871 1.733 . S
C1581 N904 1.733 . S
C1597 N937 1.733 . S
C1599 N970 1.733 . S
C1615 N1036 1.733 . S
C1617 N1003 1.733 . S
C1633 C153 1.669 . S
C1635 C21 1.670 . S
C1651 C54 1.670 . S
C1653 C978 1.670 . S
C1669 C483 1.669 . S
C1671 C87 1.670 . S
C1687 C780 1.670 . S
C1689 C120 1.670 . S
C1705 C846 1.670 . S
C1707 C186 1.670 . S
C1723 C351 1.669 . S
C1725 C219 1.670 . S
C1741 C252 1.670 . S
C1743 C648 1.670 . S
C1759 C417 1.669 . S
C1761 C285 1.670 . S
C1777 C318 1.670 . S
C1779 C714 1.670 . S
C1795 C384 1.670 . S
C1797 C1044 1.670 . S
C1813 C582 1.670 . S
C1815 C450 1.670 . S
C1831 C912 1.670 . S
C1833 C516 1.670 . S
C1849 C549 1.669 . S
C1851 C681 1.669 . S
C1867 C615 1.669 . S
C1869 C1011 1.669 . S
C1885 C879 1.669 . S
C1887 C747 1.669 . S
C1903 C813 1.669 . S
C1905 C945 1.669 . S
C1921 N2 1.281 . S
C1923 N629 1.286 . S
C1939 N596 1.276 . S
C1941 N35 1.276 . S
C1957 N68 1.281 . S
C1959 N563 1.286 . S
C1975 N101 1.276 . S
C1977 N530 1.276 . S
C1993 N761 1.281 . S
C1995 N134 1.286 . S
C2011 N167 1.276 . S
C2013 N728 1.276 . S
C2029 N695 1.281 . S
C2031 N200 1.286 . S
C2047 N233 1.276 . S
C2049 N662 1.276 . S
C2065 N266 1.281 . S
C2067 N893 1.286 . S
C2083 N299 1.276 . S
C2085 N860 1.276 . S
C2101 N332 1.281 . S
C2103 N827 1.286 . S
C2119 N365 1.276 . S
C2121 N794 1.276 . S
C2137 N398 1.281 . S
C2139 N1025 1.286 . S
C2155 N992 1.276 . S
C2157 N431 1.276 . S
C2173 N959 1.281 . S
C2175 N464 1.286 . S
C2191 N926 1.276 . S
C2193 N497 1.276 . S
C2209 C18 1.328 . S
C2211 C84 1.328 . S
C2227 C117 1.327 . S
C2229 C51 1.327 . S
C2245 C216 1.328 . S
C2247 C150 1.328 . S
C2263 C183 1.327 . S
C2265 C249 1.327 . S
C2281 C282 1.328 . S
C2283 C348 1.328 . S
C2299 C315 1.327 . S
C2301 C381 1.327 . S
C2317 C480 1.328 . S
C2319 C414 1.328 . S
C2335 C447 1.327 . S
C2337 C513 1.327 . S
C2353 C546 1.328 . S
C2355 C612 1.328 . S
C2371 C579 1.327 . S
C2373 C645 1.327 . S
C2389 C744 1.328 . S
C2391 C678 1.328 . S
C2407 C777 1.327 . S
C2409 C711 1.327 . S
C2425 C876 1.328 . S
C2427 C810 1.328 . S
C2443 C843 1.327 . S
C2445 C909 1.327 . S
C2461 C1008 1.328 . S
C2463 C942 1.328 . S
C2479 C975 1.327 . S
C2481 C1041 1.327 . S
