# Generated by pormake.
# Topology yfu, (5)-cn, num edge types: 1
# Building blocks:
#     Node 0, Type 0, BuildingBlock: BEQFEK_clean_sbu_0, # of connection points: 5
#     Node 1, Type 0, BuildingBlock: BEQFEK_clean_sbu_0, # of connection points: 5
#     Node 2, Type 0, BuildingBlock: BEQFEK_clean_sbu_0, # of connection points: 5
#     Node 3, Type 0, BuildingBlock: BEQFEK_clean_sbu_0, # of connection points: 5
#     Node 4, Type 0, BuildingBlock: BEQFEK_clean_sbu_0, # of connection points: 5
#     Node 5, Type 0, BuildingBlock: BEQFEK_clean_sbu_0, # of connection points: 5
#     Node 6, Type 0, BuildingBlock: BEQFEK_clean_sbu_0, # of connection points: 5
#     Node 7, Type 0, BuildingBlock: BEQFEK_clean_sbu_0, # of connection points: 5
#     Node 8, Type 0, BuildingBlock: BEQFEK_clean_sbu_0, # of connection points: 5
#     Node 9, Type 0, BuildingBlock: BEQFEK_clean_sbu_0, # of connection points: 5
#     Node 10, Type 0, BuildingBlock: BEQFEK_clean_sbu_0, # of connection points: 5
#     Node 11, Type 0, BuildingBlock: BEQFEK_clean_sbu_0, # of connection points: 5
#     Node 12, Type 0, BuildingBlock: BEQFEK_clean_sbu_0, # of connection points: 5
#     Node 13, Type 0, BuildingBlock: BEQFEK_clean_sbu_0, # of connection points: 5
#     Node 14, Type 0, BuildingBlock: BEQFEK_clean_sbu_0, # of connection points: 5
#     Node 15, Type 0, BuildingBlock: BEQFEK_clean_sbu_0, # of connection points: 5
#     Node 16, Type 0, BuildingBlock: BEQFEK_clean_sbu_0, # of connection points: 5
#     Node 17, Type 0, BuildingBlock: BEQFEK_clean_sbu_0, # of connection points: 5
#     Node 18, Type 0, BuildingBlock: BEQFEK_clean_sbu_0, # of connection points: 5
#     Node 19, Type 0, BuildingBlock: BEQFEK_clean_sbu_0, # of connection points: 5
#     Node 20, Type 0, BuildingBlock: BEQFEK_clean_sbu_0, # of connection points: 5
#     Node 21, Type 0, BuildingBlock: BEQFEK_clean_sbu_0, # of connection points: 5
#     Node 22, Type 0, BuildingBlock: BEQFEK_clean_sbu_0, # of connection points: 5
#     Node 23, Type 0, BuildingBlock: BEQFEK_clean_sbu_0, # of connection points: 5
#     Node 24, Type 0, BuildingBlock: BEQFEK_clean_sbu_0, # of connection points: 5
#     Node 25, Type 0, BuildingBlock: BEQFEK_clean_sbu_0, # of connection points: 5
#     Node 26, Type 0, BuildingBlock: BEQFEK_clean_sbu_0, # of connection points: 5
#     Node 27, Type 0, BuildingBlock: BEQFEK_clean_sbu_0, # of connection points: 5
#     Node 28, Type 0, BuildingBlock: BEQFEK_clean_sbu_0, # of connection points: 5
#     Node 29, Type 0, BuildingBlock: BEQFEK_clean_sbu_0, # of connection points: 5
#     Node 30, Type 0, BuildingBlock: BEQFEK_clean_sbu_0, # of connection points: 5
#     Node 31, Type 0, BuildingBlock: BEQFEK_clean_sbu_0, # of connection points: 5
#     Edge 32, Type (0, 0), BuildingBlock: XUDNAN_clean_linker_2, # of connection points: 2
#     Edge 33, Type (0, 0), BuildingBlock: XUDNAN_clean_linker_2, # of connection points: 2
#     Edge 34, Type (0, 0), BuildingBlock: XUDNAN_clean_linker_2, # of connection points: 2
#     Edge 35, Type (0, 0), BuildingBlock: XUDNAN_clean_linker_2, # of connection points: 2
#     Edge 36, Type (0, 0), BuildingBlock: XUDNAN_clean_linker_2, # of connection points: 2
#     Edge 37, Type (0, 0), BuildingBlock: XUDNAN_clean_linker_2, # of connection points: 2
#     Edge 38, Type (0, 0), BuildingBlock: XUDNAN_clean_linker_2, # of connection points: 2
#     Edge 39, Type (0, 0), BuildingBlock: XUDNAN_clean_linker_2, # of connection points: 2
#     Edge 40, Type (0, 0), BuildingBlock: XUDNAN_clean_linker_2, # of connection points: 2
#     Edge 41, Type (0, 0), BuildingBlock: XUDNAN_clean_linker_2, # of connection points: 2
#     Edge 42, Type (0, 0), BuildingBlock: XUDNAN_clean_linker_2, # of connection points: 2
#     Edge 43, Type (0, 0), BuildingBlock: XUDNAN_clean_linker_2, # of connection points: 2
#     Edge 44, Type (0, 0), BuildingBlock: XUDNAN_clean_linker_2, # of connection points: 2
#     Edge 45, Type (0, 0), BuildingBlock: XUDNAN_clean_linker_2, # of connection points: 2
#     Edge 46, Type (0, 0), BuildingBlock: XUDNAN_clean_linker_2, # of connection points: 2
#     Edge 47, Type (0, 0), BuildingBlock: XUDNAN_clean_linker_2, # of connection points: 2
#     Edge 48, Type (0, 0), BuildingBlock: XUDNAN_clean_linker_2, # of connection points: 2
#     Edge 49, Type (0, 0), BuildingBlock: XUDNAN_clean_linker_2, # of connection points: 2
#     Edge 50, Type (0, 0), BuildingBlock: XUDNAN_clean_linker_2, # of connection points: 2
#     Edge 51, Type (0, 0), BuildingBlock: XUDNAN_clean_linker_2, # of connection points: 2
#     Edge 52, Type (0, 0), BuildingBlock: XUDNAN_clean_linker_2, # of connection points: 2
#     Edge 53, Type (0, 0), BuildingBlock: XUDNAN_clean_linker_2, # of connection points: 2
#     Edge 54, Type (0, 0), BuildingBlock: XUDNAN_clean_linker_2, # of connection points: 2
#     Edge 55, Type (0, 0), BuildingBlock: XUDNAN_clean_linker_2, # of connection points: 2
#     Edge 56, Type (0, 0), BuildingBlock: XUDNAN_clean_linker_2, # of connection points: 2
#     Edge 57, Type (0, 0), BuildingBlock: XUDNAN_clean_linker_2, # of connection points: 2
#     Edge 58, Type (0, 0), BuildingBlock: XUDNAN_clean_linker_2, # of connection points: 2
#     Edge 59, Type (0, 0), BuildingBlock: XUDNAN_clean_linker_2, # of connection points: 2
#     Edge 60, Type (0, 0), BuildingBlock: XUDNAN_clean_linker_2, # of connection points: 2
#     Edge 61, Type (0, 0), BuildingBlock: XUDNAN_clean_linker_2, # of connection points: 2
#     Edge 62, Type (0, 0), BuildingBlock: XUDNAN_clean_linker_2, # of connection points: 2
#     Edge 63, Type (0, 0), BuildingBlock: XUDNAN_clean_linker_2, # of connection points: 2
#     Edge 64, Type (0, 0), BuildingBlock: XUDNAN_clean_linker_2, # of connection points: 2
#     Edge 65, Type (0, 0), BuildingBlock: XUDNAN_clean_linker_2, # of connection points: 2
#     Edge 66, Type (0, 0), BuildingBlock: XUDNAN_clean_linker_2, # of connection points: 2
#     Edge 67, Type (0, 0), BuildingBlock: XUDNAN_clean_linker_2, # of connection points: 2
#     Edge 68, Type (0, 0), BuildingBlock: XUDNAN_clean_linker_2, # of connection points: 2
#     Edge 69, Type (0, 0), BuildingBlock: XUDNAN_clean_linker_2, # of connection points: 2
#     Edge 70, Type (0, 0), BuildingBlock: XUDNAN_clean_linker_2, # of connection points: 2
#     Edge 71, Type (0, 0), BuildingBlock: XUDNAN_clean_linker_2, # of connection points: 2
#     Edge 72, Type (0, 0), BuildingBlock: XUDNAN_clean_linker_2, # of connection points: 2
#     Edge 73, Type (0, 0), BuildingBlock: XUDNAN_clean_linker_2, # of connection points: 2
#     Edge 74, Type (0, 0), BuildingBlock: XUDNAN_clean_linker_2, # of connection points: 2
#     Edge 75, Type (0, 0), BuildingBlock: XUDNAN_clean_linker_2, # of connection points: 2
#     Edge 76, Type (0, 0), BuildingBlock: XUDNAN_clean_linker_2, # of connection points: 2
#     Edge 77, Type (0, 0), BuildingBlock: XUDNAN_clean_linker_2, # of connection points: 2
#     Edge 78, Type (0, 0), BuildingBlock: XUDNAN_clean_linker_2, # of connection points: 2
#     Edge 79, Type (0, 0), BuildingBlock: XUDNAN_clean_linker_2, # of connection points: 2
#     Edge 80, Type (0, 0), BuildingBlock: XUDNAN_clean_linker_2, # of connection points: 2
#     Edge 81, Type (0, 0), BuildingBlock: XUDNAN_clean_linker_2, # of connection points: 2
#     Edge 82, Type (0, 0), BuildingBlock: XUDNAN_clean_linker_2, # of connection points: 2
#     Edge 83, Type (0, 0), BuildingBlock: XUDNAN_clean_linker_2, # of connection points: 2
#     Edge 84, Type (0, 0), BuildingBlock: XUDNAN_clean_linker_2, # of connection points: 2
#     Edge 85, Type (0, 0), BuildingBlock: XUDNAN_clean_linker_2, # of connection points: 2
#     Edge 86, Type (0, 0), BuildingBlock: XUDNAN_clean_linker_2, # of connection points: 2
#     Edge 87, Type (0, 0), BuildingBlock: XUDNAN_clean_linker_2, # of connection points: 2
#     Edge 88, Type (0, 0), BuildingBlock: XUDNAN_clean_linker_2, # of connection points: 2
#     Edge 89, Type (0, 0), BuildingBlock: XUDNAN_clean_linker_2, # of connection points: 2
#     Edge 90, Type (0, 0), BuildingBlock: XUDNAN_clean_linker_2, # of connection points: 2
#     Edge 91, Type (0, 0), BuildingBlock: XUDNAN_clean_linker_2, # of connection points: 2
#     Edge 92, Type (0, 0), BuildingBlock: XUDNAN_clean_linker_2, # of connection points: 2
#     Edge 93, Type (0, 0), BuildingBlock: XUDNAN_clean_linker_2, # of connection points: 2
#     Edge 94, Type (0, 0), BuildingBlock: XUDNAN_clean_linker_2, # of connection points: 2
#     Edge 95, Type (0, 0), BuildingBlock: XUDNAN_clean_linker_2, # of connection points: 2
#     Edge 96, Type (0, 0), BuildingBlock: XUDNAN_clean_linker_2, # of connection points: 2
#     Edge 97, Type (0, 0), BuildingBlock: XUDNAN_clean_linker_2, # of connection points: 2
#     Edge 98, Type (0, 0), BuildingBlock: XUDNAN_clean_linker_2, # of connection points: 2
#     Edge 99, Type (0, 0), BuildingBlock: XUDNAN_clean_linker_2, # of connection points: 2
#     Edge 100, Type (0, 0), BuildingBlock: XUDNAN_clean_linker_2, # of connection points: 2
#     Edge 101, Type (0, 0), BuildingBlock: XUDNAN_clean_linker_2, # of connection points: 2
#     Edge 102, Type (0, 0), BuildingBlock: XUDNAN_clean_linker_2, # of connection points: 2
#     Edge 103, Type (0, 0), BuildingBlock: XUDNAN_clean_linker_2, # of connection points: 2
#     Edge 104, Type (0, 0), BuildingBlock: XUDNAN_clean_linker_2, # of connection points: 2
#     Edge 105, Type (0, 0), BuildingBlock: XUDNAN_clean_linker_2, # of connection points: 2
#     Edge 106, Type (0, 0), BuildingBlock: XUDNAN_clean_linker_2, # of connection points: 2
#     Edge 107, Type (0, 0), BuildingBlock: XUDNAN_clean_linker_2, # of connection points: 2
#     Edge 108, Type (0, 0), BuildingBlock: XUDNAN_clean_linker_2, # of connection points: 2
#     Edge 109, Type (0, 0), BuildingBlock: XUDNAN_clean_linker_2, # of connection points: 2
#     Edge 110, Type (0, 0), BuildingBlock: XUDNAN_clean_linker_2, # of connection points: 2
#     Edge 111, Type (0, 0), BuildingBlock: XUDNAN_clean_linker_2, # of connection points: 2
# Relax obj value: 0.356
# Max RMSD: 0.200
# Mean RMSD: 0.200
data_MOF--net-yfu--node1-BEQFEK_clean_sbu_0--edge1-XUDNAN_clean_linker_2
_symmetry_space_group_name_H-M    P1
_symmetry_Int_Tables_number       1
_symmetry_cell_setting            triclinic
loop_
_symmetry_equiv_pos_as_xyz
'x, y, z'
_cell_length_a     48.151968
_cell_length_b     48.106427
_cell_length_c     90.233934
_cell_angle_alpha  89.991903
_cell_angle_beta   90.015819
_cell_angle_gamma 90.027161
loop_
_atom_site_label
_atom_site_type_symbol
_atom_site_fract_x
_atom_site_fract_y
_atom_site_fract_z
_atom_type_partial_charge
Co0 Co 0.03635 0.11503 0.30965 0.0
Co1 Co 0.0642 0.07315 0.33173 0.0
C2 C 0.07565 0.13211 0.33466 0.0
O3 O 0.05995 0.13672 0.32358 0.0
O4 O 0.07959 0.10772 0.33963 0.0
C5 C 0.04178 0.16069 0.29031 0.0
O6 O 0.06826 0.15588 0.29274 0.0
C7 C 0.10237 0.03879 0.34973 0.0
C8 C 0.07998 -0.00135 0.34952 0.0
C9 C 0.10379 0.01152 0.35473 0.0
N10 N 0.07875 0.04178 0.34193 0.0
N11 N 0.06541 0.01778 0.34195 0.0
C12 C 0.1239 0.06104 0.35127 0.0
H13 H 0.12321 0.07527 0.3416 0.0
H14 H 0.14498 0.05191 0.35223 0.0
H15 H 0.11952 0.07334 0.36141 0.0
C16 C 0.06008 0.07532 0.28793 0.0
N17 N 0.05705 0.08542 0.30172 0.0
N18 N 0.07118 0.06991 0.31105 0.0
C19 C 0.08525 0.05054 0.3034 0.0
C20 C 0.07814 0.05259 0.28846 0.0
C21 C 0.04307 0.08524 0.27509 0.0
H22 H 0.02487 0.09725 0.27903 0.0
H23 H 0.05597 0.09901 0.26801 0.0
H24 H 0.03572 0.06745 0.26831 0.0
O25 O 0.00335 0.10043 0.31981 0.0
O26 O 0.02378 0.07221 0.33593 0.0
H27 H 0.09545 0.01351 0.3154 0.0
H28 H 0.12135 0.02393 0.30198 0.0
C29 C 0.1062 0.03153 0.31031 0.0
H30 H 0.11764 0.0427 0.31914 0.0
H31 H 0.0465 0.01437 0.3366 0.0
O32 O 0.02407 0.14319 0.29503 0.0
C33 C 0.00203 0.08319 0.33047 0.0
Co34 Co 0.13733 0.80325 0.5778 0.0
Co35 Co 0.18829 0.82982 0.59434 0.0
C36 C 0.13183 0.8553 0.59568 0.0
O37 O 0.1217 0.83671 0.58725 0.0
O38 O 0.1572 0.85513 0.59961 0.0
C39 C 0.09091 0.80138 0.55791 0.0
O40 O 0.09399 0.82852 0.55782 0.0
C41 C 0.23272 0.87077 0.59912 0.0
C42 C 0.26233 0.84655 0.61268 0.0
C43 C 0.25849 0.87213 0.60596 0.0
N44 N 0.22205 0.84533 0.60151 0.0
N45 N 0.23977 0.83103 0.60969 0.0
C46 C 0.21777 0.89363 0.59116 0.0
H47 H 0.19521 0.88923 0.59056 0.0
H48 H 0.22576 0.89547 0.57969 0.0
H49 H 0.22139 0.91378 0.59684 0.0
C50 C 0.17547 0.80736 0.55244 0.0
N51 N 0.16905 0.81227 0.5667 0.0
N52 N 0.19075 0.82301 0.57352 0.0
C53 C 0.21185 0.82498 0.56372 0.0
C54 C 0.20267 0.81541 0.5501 0.0
C55 C 0.15602 0.79462 0.54142 0.0
H56 H 0.14806 0.7746 0.54581 0.0
H57 H 0.13809 0.80871 0.53977 0.0
H58 H 0.16615 0.79108 0.53055 0.0
O59 O 0.14718 0.77535 0.59305 0.0
O60 O 0.1827 0.79448 0.60503 0.0
H61 H 0.24687 0.82319 0.57843 0.0
H62 H 0.25594 0.82495 0.55905 0.0
C63 C 0.24116 0.83242 0.5676 0.0
H64 H 0.24311 0.8553 0.56834 0.0
H65 H 0.23661 0.81054 0.6131 0.0
O66 O 0.10777 0.78659 0.56535 0.0
C67 C 0.16559 0.77464 0.60318 0.0
Co68 Co 0.43915 0.87128 0.8134 0.0
Co69 Co 0.41468 0.92696 0.82619 0.0
C70 C 0.39493 0.87115 0.83658 0.0
O71 O 0.41079 0.85808 0.82768 0.0
O72 O 0.39474 0.89758 0.83715 0.0
C73 C 0.47857 0.8396 0.79712 0.0
O74 O 0.4918 0.86349 0.79692 0.0
C75 C 0.37741 0.96802 0.83963 0.0
C76 C 0.40121 0.00687 0.83664 0.0
C77 C 0.37762 0.99603 0.84324 0.0
N78 N 0.4001 0.96242 0.83151 0.0
N79 N 0.4141 0.98581 0.82963 0.0
C80 C 0.3559 0.94693 0.84372 0.0
H81 H 0.35331 0.9317 0.83459 0.0
H82 H 0.33566 0.95704 0.84607 0.0
H83 H 0.3628 0.93566 0.85377 0.0
C84 C 0.42098 0.89766 0.78521 0.0
N85 N 0.4231 0.8972 0.8001 0.0
N86 N 0.41294 0.92053 0.8055 0.0
C87 C 0.40425 0.93658 0.79421 0.0
C88 C 0.40917 0.92271 0.78103 0.0
C89 C 0.43237 0.87571 0.77518 0.0
H90 H 0.45528 0.87787 0.77462 0.0
H91 H 0.42736 0.85483 0.77964 0.0
H92 H 0.42388 0.87763 0.7638 0.0
O93 O 0.47061 0.88811 0.82447 0.0
O94 O 0.45329 0.92751 0.83315 0.0
H95 H 0.40928 0.9798 0.79888 0.0
H96 H 0.38243 0.97233 0.78551 0.0
C97 C 0.39238 0.96514 0.79592 0.0
H98 H 0.37678 0.96524 0.80495 0.0
H99 H 0.43308 0.98715 0.8241 0.0
O100 O 0.4547 0.83832 0.80311 0.0
C101 C 0.47333 0.91056 0.83179 0.0
Co102 Co 0.35212 0.20829 0.07803 0.0
Co103 Co 0.30706 0.17257 0.09437 0.0
C104 C 0.3658 0.15619 0.09551 0.0
O105 O 0.37205 0.17783 0.08811 0.0
O106 O 0.34066 0.15 0.09838 0.0
C107 C 0.40059 0.2166 0.06041 0.0
O108 O 0.40365 0.18977 0.06256 0.0
C109 C 0.26972 0.1266 0.10188 0.0
C110 C 0.23361 0.14924 0.11099 0.0
C111 C 0.24333 0.12284 0.10773 0.0
N112 N 0.27521 0.15396 0.10169 0.0
N113 N 0.25365 0.16738 0.10723 0.0
C114 C 0.28861 0.10507 0.09545 0.0
H115 H 0.30197 0.11444 0.08675 0.0
H116 H 0.2765 0.08759 0.09068 0.0
H117 H 0.30226 0.09685 0.10433 0.0
C118 C 0.31394 0.20027 0.05307 0.0
N119 N 0.32184 0.1952 0.06709 0.0
N120 N 0.30274 0.18016 0.07378 0.0
C121 C 0.28212 0.17487 0.06406 0.0
C122 C 0.28858 0.18751 0.05069 0.0
C123 C 0.33011 0.21777 0.04242 0.0
H124 H 0.3511 0.20869 0.04096 0.0
H125 H 0.31977 0.21912 0.03145 0.0
H126 H 0.33273 0.23894 0.04709 0.0
O127 O 0.33925 0.23396 0.09335 0.0
O128 O 0.31029 0.20734 0.10622 0.0
H129 H 0.24528 0.17102 0.07712 0.0
H130 H 0.24124 0.15929 0.05825 0.0
C131 C 0.25567 0.16013 0.06783 0.0
H132 H 0.26047 0.13863 0.07142 0.0
H133 H 0.25247 0.18895 0.10823 0.0
O134 O 0.37917 0.22869 0.06552 0.0
C135 C 0.32317 0.23018 0.10434 0.0
Co136 Co 0.03625 0.87495 0.17481 0.0
Co137 Co 0.06033 0.92355 0.1555 0.0
C138 C 0.0858 0.86693 0.15563 0.0
O139 O 0.06939 0.85811 0.16562 0.0
O140 O 0.08376 0.89129 0.15028 0.0
C141 C 0.03718 0.83158 0.19635 0.0
O142 O 0.06405 0.83632 0.19608 0.0
C143 C 0.09924 0.95907 0.1391 0.0
C144 C 0.08135 0.00077 0.14281 0.0
C145 C 0.1039 0.98715 0.13662 0.0
N146 N 0.07549 0.95633 0.1468 0.0
N147 N 0.06462 0.98129 0.14871 0.0
C148 C 0.11602 0.93506 0.13351 0.0
H149 H 0.12778 0.92573 0.14284 0.0
H150 H 0.13066 0.94151 0.12466 0.0
H151 H 0.10197 0.91901 0.12887 0.0
C152 C 0.04794 0.91459 0.19873 0.0
N153 N 0.0464 0.90826 0.18427 0.0
N154 N 0.05932 0.92744 0.1765 0.0
C155 C 0.07091 0.9459 0.18591 0.0
C156 C 0.06397 0.93843 0.20033 0.0
C157 C 0.03368 0.89831 0.21066 0.0
H158 H 0.01424 0.88902 0.20631 0.0
H159 H 0.0475 0.88129 0.21443 0.0
H160 H 0.02865 0.91177 0.22028 0.0
O161 O 0.00815 0.88106 0.15938 0.0
O162 O 0.02268 0.91814 0.14689 0.0
H163 H 0.08016 0.98697 0.17834 0.0
H164 H 0.10615 0.9725 0.19044 0.0
C165 C 0.09144 0.96767 0.18133 0.0
H166 H 0.10349 0.9605 0.17161 0.0
H167 H 0.04624 0.98508 0.15451 0.0
O168 O 0.02119 0.84688 0.18865 0.0
C169 C 0.00479 0.8992 0.1493 0.0
Co170 Co 0.35915 0.81478 0.42412 0.0
Co171 Co 0.30244 0.83719 0.41184 0.0
C172 C 0.35724 0.86009 0.40175 0.0
O173 O 0.37091 0.84481 0.41066 0.0
O174 O 0.33089 0.85888 0.40099 0.0
C175 C 0.4118 0.81541 0.43938 0.0
O176 O 0.41 0.84254 0.43799 0.0
C177 C 0.26061 0.8791 0.40467 0.0
C178 C 0.22281 0.85352 0.40186 0.0
C179 C 0.23257 0.8806 0.40117 0.0
N180 N 0.26695 0.8524 0.40742 0.0
N181 N 0.24428 0.83722 0.40578 0.0
C182 C 0.28195 0.90171 0.40388 0.0
H183 H 0.29462 0.8987 0.39373 0.0
H184 H 0.2961 0.90018 0.41356 0.0
H185 H 0.27265 0.9227 0.40338 0.0
C186 C 0.33063 0.82382 0.45245 0.0
N187 N 0.33232 0.82711 0.43769 0.0
N188 N 0.3086 0.8369 0.43266 0.0
C189 C 0.29113 0.84043 0.44418 0.0
C190 C 0.30451 0.83214 0.45706 0.0
C191 C 0.35242 0.80994 0.46168 0.0
H192 H 0.35733 0.78924 0.45693 0.0
H193 H 0.3716 0.82268 0.46144 0.0
H194 H 0.34576 0.80752 0.47338 0.0
O195 O 0.34395 0.78386 0.41219 0.0
O196 O 0.30326 0.79892 0.40384 0.0
H197 H 0.25049 0.83062 0.43625 0.0
H198 H 0.25067 0.84955 0.45353 0.0
C199 C 0.26097 0.84734 0.4426 0.0
H200 H 0.25874 0.86705 0.43635 0.0
H201 H 0.2436 0.81568 0.40709 0.0
O202 O 0.39231 0.80019 0.43445 0.0
C203 C 0.32173 0.78007 0.40479 0.0
Co204 Co 0.43328 0.11627 0.67546 0.0
Co205 Co 0.43287 0.07059 0.6508 0.0
C206 C 0.38964 0.11694 0.65347 0.0
O207 O 0.39786 0.12553 0.66605 0.0
O208 O 0.40218 0.09741 0.64667 0.0
C209 C 0.43619 0.16816 0.68877 0.0
O210 O 0.41984 0.17323 0.67743 0.0
C211 C 0.40333 0.02542 0.63661 0.0
C212 C 0.43259 0.01152 0.61926 0.0
C213 C 0.40624 0.00707 0.62492 0.0
N214 N 0.42696 0.03997 0.63793 0.0
N215 N 0.44447 0.0315 0.62759 0.0
C216 C 0.37757 0.03116 0.64538 0.0
H217 H 0.38134 0.04759 0.65377 0.0
H218 H 0.37058 0.01198 0.65108 0.0
H219 H 0.36068 0.03774 0.63777 0.0
C220 C 0.43006 0.06648 0.69461 0.0
N221 N 0.43294 0.07867 0.6813 0.0
N222 N 0.4336 0.0594 0.67095 0.0
C223 C 0.43223 0.03422 0.6774 0.0
C224 C 0.42944 0.03783 0.69259 0.0
C225 C 0.42522 0.0822 0.70869 0.0
H226 H 0.41625 0.10294 0.70626 0.0
H227 H 0.4111 0.07055 0.71617 0.0
H228 H 0.44538 0.08521 0.71443 0.0
O229 O 0.46295 0.12401 0.66082 0.0
O230 O 0.46764 0.08874 0.64521 0.0
H231 H 0.44362 0.99088 0.67663 0.0
H232 H 0.41417 0.00031 0.66547 0.0
C233 C 0.43493 0.00722 0.66928 0.0
H234 H 0.44863 0.00974 0.6595 0.0
H235 H 0.46423 0.03996 0.62594 0.0
O236 O 0.44268 0.14304 0.69154 0.0
C237 C 0.47537 0.11225 0.65009 0.0
Co238 Co 0.13463 0.17782 0.92253 0.0
Co239 Co 0.1953 0.16293 0.91263 0.0
C240 C 0.14509 0.13052 0.90247 0.0
O241 O 0.12855 0.14408 0.91074 0.0
O242 O 0.17085 0.13636 0.90189 0.0
C243 C 0.08033 0.17166 0.9354 0.0
O244 O 0.08538 0.14497 0.93392 0.0
C245 C 0.24185 0.12568 0.90759 0.0
C246 C 0.27569 0.15484 0.90188 0.0
C247 C 0.26921 0.12682 0.90281 0.0
N248 N 0.23265 0.1518 0.90937 0.0
N249 N 0.25307 0.16915 0.90618 0.0
C250 C 0.22335 0.1007 0.90844 0.0
H251 H 0.20585 0.10472 0.91615 0.0
H252 H 0.23476 0.08205 0.91221 0.0
H253 H 0.21479 0.09635 0.89726 0.0
C254 C 0.16142 0.17608 0.95192 0.0
N255 N 0.16183 0.17194 0.93718 0.0
N256 N 0.1871 0.16492 0.9331 0.0
C257 C 0.20359 0.1642 0.94514 0.0
C258 C 0.18783 0.17127 0.95745 0.0
C259 C 0.13651 0.18586 0.96034 0.0
H260 H 0.12931 0.20596 0.9557 0.0
H261 H 0.11949 0.17054 0.95899 0.0
H262 H 0.14099 0.1883 0.97233 0.0
O263 O 0.1461 0.20774 0.9087 0.0
O264 O 0.19053 0.19969 0.90339 0.0
H265 H 0.24349 0.17636 0.93703 0.0
H266 H 0.24424 0.16229 0.95557 0.0
C267 C 0.23443 0.16045 0.9445 0.0
H268 H 0.2392 0.13969 0.93979 0.0
H269 H 0.25114 0.19077 0.90624 0.0
O270 O 0.09875 0.18913 0.93149 0.0
C271 C 0.16871 0.21441 0.90228 0.0
Co272 Co 0.93215 0.88181 0.66657 0.0
Co273 Co 0.911 0.93534 0.65057 0.0
C274 C 0.88913 0.87906 0.64276 0.0
O275 O 0.90406 0.86722 0.65254 0.0
O276 O 0.8901 0.90522 0.64078 0.0
C277 C 0.92841 0.8323 0.68407 0.0
O278 O 0.90161 0.83456 0.6816 0.0
C279 C 0.87084 0.97777 0.64141 0.0
C280 C 0.89817 0.01422 0.63815 0.0
C281 C 0.87064 0.00586 0.63793 0.0
N282 N 0.89725 0.97013 0.64394 0.0
N283 N 0.91351 0.99191 0.64183 0.0
C284 C 0.84669 0.95813 0.64179 0.0
H285 H 0.85219 0.93851 0.63612 0.0
H286 H 0.84158 0.95311 0.65348 0.0
H287 H 0.82817 0.96694 0.63621 0.0
C288 C 0.91555 0.91404 0.69296 0.0
N289 N 0.91732 0.91062 0.6782 0.0
N290 N 0.90792 0.93306 0.67153 0.0
C291 C 0.8995 0.95137 0.68191 0.0
C292 C 0.90389 0.93979 0.69576 0.0
C293 C 0.92615 0.89367 0.70415 0.0
H294 H 0.94747 0.88705 0.70111 0.0
H295 H 0.91259 0.87504 0.70409 0.0
H296 H 0.92624 0.90252 0.7155 0.0
O297 O 0.96508 0.89499 0.65552 0.0
O298 O 0.9502 0.93301 0.64409 0.0
H299 H 0.90597 0.9912 0.67194 0.0
H300 H 0.88672 0.99246 0.68908 0.0
C301 C 0.89013 0.98043 0.67875 0.0
H302 H 0.87042 0.9798 0.67243 0.0
H303 H 0.93503 0.99165 0.64318 0.0
O304 O 0.94478 0.85066 0.67897 0.0
C305 C 0.96934 0.91559 0.64697 0.0
Co306 Co 0.86755 0.16069 0.42115 0.0
Co307 Co 0.80891 0.15313 0.4069 0.0
C308 C 0.85793 0.11897 0.39735 0.0
O309 O 0.87372 0.13 0.40708 0.0
O310 O 0.83257 0.12625 0.39588 0.0
C311 C 0.92181 0.15634 0.4371 0.0
O312 O 0.92331 0.12953 0.43446 0.0
C313 C 0.75626 0.12758 0.39772 0.0
C314 C 0.72828 0.16405 0.39851 0.0
C315 C 0.72887 0.13575 0.39582 0.0
N316 N 0.77113 0.15009 0.40145 0.0
N317 N 0.75439 0.17186 0.40172 0.0
C318 C 0.76777 0.0987 0.39736 0.0
H319 H 0.78646 0.09723 0.40452 0.0
H320 H 0.75195 0.0834 0.40104 0.0
H321 H 0.77394 0.09359 0.38583 0.0
C322 C 0.83566 0.14876 0.44835 0.0
N323 N 0.83741 0.15246 0.43361 0.0
N324 N 0.81283 0.14839 0.42761 0.0
C325 C 0.79467 0.14167 0.43838 0.0
C326 C 0.80862 0.14149 0.45179 0.0
C327 C 0.8595 0.15192 0.45884 0.0
H328 H 0.86836 0.17312 0.45775 0.0
H329 H 0.87596 0.13682 0.45584 0.0
H330 H 0.85309 0.1483 0.4705 0.0
O331 O 0.86165 0.19486 0.40953 0.0
O332 O 0.81904 0.19085 0.40067 0.0
H333 H 0.75523 0.15578 0.43051 0.0
H334 H 0.753 0.13371 0.44657 0.0
C335 C 0.76421 0.13726 0.43601 0.0
H336 H 0.76106 0.11903 0.4287 0.0
H337 H 0.76069 0.19195 0.40452 0.0
O338 O 0.90086 0.17007 0.43272 0.0
C339 C 0.8414 0.20447 0.40214 0.0
Co340 Co 0.5698 0.12738 0.17161 0.0
Co341 Co 0.58187 0.06898 0.15756 0.0
C342 C 0.61379 0.12099 0.14919 0.0
O343 O 0.60173 0.13615 0.15879 0.0
O344 O 0.60733 0.09551 0.14751 0.0
C345 C 0.57473 0.17977 0.18775 0.0
O346 O 0.60158 0.17781 0.18538 0.0
C347 C 0.61569 0.02367 0.14587 0.0
C348 C 0.58565 0.989 0.14475 0.0
C349 C 0.61277 0.99628 0.14142 0.0
N350 N 0.59134 0.03235 0.15144 0.0
N351 N 0.57347 0.01151 0.15078 0.0
C352 C 0.64137 0.04116 0.14527 0.0
H353 H 0.64205 0.05539 0.15494 0.0
H354 H 0.6603 0.02802 0.14515 0.0
H355 H 0.64098 0.05392 0.13502 0.0
C356 C 0.57643 0.09471 0.19908 0.0
N357 N 0.57782 0.09717 0.18425 0.0
N358 N 0.58338 0.07271 0.17844 0.0
C359 C 0.58583 0.05388 0.18941 0.0
C360 C 0.58135 0.06721 0.20285 0.0
C361 C 0.56913 0.11804 0.20932 0.0
H362 H 0.54797 0.12572 0.20666 0.0
H363 H 0.58392 0.13541 0.20761 0.0
H364 H 0.57 0.11156 0.22111 0.0
O365 O 0.53752 0.1189 0.15873 0.0
O366 O 0.54384 0.07592 0.1504 0.0
H367 H 0.56966 0.01555 0.18121 0.0
H368 H 0.59129 0.01156 0.19734 0.0
C369 C 0.5886 0.02326 0.18686 0.0
H370 H 0.60665 0.01924 0.17954 0.0
H371 H 0.55278 0.01285 0.15415 0.0
O372 O 0.5587 0.16067 0.18309 0.0
C373 C 0.52931 0.09789 0.15135 0.0
Co374 Co 0.62467 0.8239 0.91779 0.0
Co375 Co 0.67998 0.84571 0.90347 0.0
C376 C 0.62451 0.87054 0.89618 0.0
O377 O 0.61186 0.85498 0.90536 0.0
O378 O 0.65056 0.86873 0.89401 0.0
C379 C 0.57401 0.82296 0.93542 0.0
O380 O 0.57524 0.85024 0.93515 0.0
C381 C 0.72566 0.88458 0.89628 0.0
C382 C 0.7586 0.85484 0.89002 0.0
C383 C 0.75308 0.88299 0.89145 0.0
N384 N 0.71576 0.85856 0.8977 0.0
N385 N 0.73557 0.84094 0.89395 0.0
C386 C 0.70871 0.91012 0.89905 0.0
H387 H 0.68626 0.90526 0.89894 0.0
H388 H 0.71389 0.91851 0.91017 0.0
H389 H 0.71331 0.92626 0.89061 0.0
C390 C 0.65775 0.8302 0.94489 0.0
N391 N 0.65379 0.83495 0.93036 0.0
N392 N 0.67698 0.84441 0.92451 0.0
C393 C 0.69644 0.84602 0.93522 0.0
C394 C 0.68489 0.83697 0.94846 0.0
C395 C 0.63715 0.81581 0.95466 0.0
H396 H 0.63136 0.79553 0.94969 0.0
H397 H 0.61814 0.8287 0.95546 0.0
H398 H 0.64543 0.81245 0.966 0.0
O399 O 0.63715 0.79299 0.90499 0.0
O400 O 0.67701 0.80779 0.89537 0.0
H401 H 0.7348 0.83517 0.92481 0.0
H402 H 0.73887 0.85124 0.94278 0.0
C403 C 0.72659 0.85137 0.93238 0.0
H404 H 0.72902 0.87186 0.92692 0.0
H405 H 0.73332 0.81937 0.89402 0.0
O406 O 0.59291 0.80887 0.9291 0.0
C407 C 0.65845 0.78928 0.89691 0.0
Co408 Co 0.9736 0.10362 0.81066 0.0
Co409 Co 0.94878 0.05784 0.83174 0.0
C410 C 0.92947 0.11621 0.83327 0.0
O411 O 0.9456 0.1234 0.82279 0.0
O412 O 0.92893 0.09148 0.83819 0.0
C413 C 0.97335 0.15189 0.79232 0.0
O414 O 0.94732 0.15308 0.79662 0.0
C415 C 0.9073 0.02455 0.84724 0.0
C416 C 0.93027 0.98579 0.85202 0.0
C417 C 0.90481 -0.00129 0.85386 0.0
N418 N 0.93315 0.02692 0.84181 0.0
N419 N 0.94685 0.00377 0.84477 0.0
C420 C 0.88502 0.04587 0.84512 0.0
H421 H 0.88784 0.0566 0.83434 0.0
H422 H 0.86408 0.03624 0.84549 0.0
H423 H 0.88654 0.06159 0.85409 0.0
C424 C 0.95146 0.06565 0.78788 0.0
N425 N 0.95667 0.07236 0.80206 0.0
N426 N 0.94574 0.0534 0.81084 0.0
C427 C 0.93296 0.03407 0.80246 0.0
C428 C 0.93615 0.04126 0.78769 0.0
C429 C 0.95944 0.08341 0.77495 0.0
H430 H 0.98212 0.08746 0.77528 0.0
H431 H 0.94871 0.10374 0.77585 0.0
H432 H 0.95382 0.07362 0.76423 0.0
O433 O 0.00576 0.09214 0.82292 0.0
O434 O 0.98777 0.06056 0.83811 0.0
H435 H 0.91084 0.99514 0.79954 0.0
H436 H 0.90054 0.01575 0.81536 0.0
C437 C 0.91839 0.00901 0.80849 0.0
H438 H 0.93286 0.99716 0.81565 0.0
H439 H 0.96745 0.00018 0.84172 0.0
O440 O 0.98792 0.13092 0.79597 0.0
C441 C 0.00824 0.07487 0.83353 0.0
Co442 Co 0.64279 0.22188 0.56098 0.0
Co443 Co 0.68181 0.19203 0.58347 0.0
C444 C 0.62283 0.18554 0.58672 0.0
O445 O 0.61985 0.20299 0.57624 0.0
O446 O 0.6466 0.17657 0.59054 0.0
C447 C 0.59824 0.21653 0.54106 0.0
O448 O 0.60168 0.19014 0.54434 0.0
C449 C 0.71502 0.15241 0.60064 0.0
C450 C 0.75395 0.17623 0.60352 0.0
C451 C 0.74154 0.15089 0.60654 0.0
N452 N 0.71197 0.17754 0.59439 0.0
N453 N 0.73513 0.19181 0.59632 0.0
C454 C 0.69385 0.12968 0.5997 0.0
H455 H 0.68 0.13297 0.59003 0.0
H456 H 0.70407 0.10907 0.59879 0.0
H457 H 0.681 0.12988 0.6099 0.0
C458 C 0.67827 0.19159 0.53962 0.0
N459 N 0.67054 0.19826 0.55349 0.0
N460 N 0.68666 0.1852 0.56299 0.0
C461 C 0.70479 0.16926 0.55545 0.0
C462 C 0.69995 0.17276 0.54046 0.0
C463 C 0.66529 0.20325 0.5259 0.0
H464 H 0.65949 0.2253 0.5277 0.0
H465 H 0.64611 0.19138 0.52338 0.0
H466 H 0.67947 0.20158 0.51625 0.0
O467 O 0.65886 0.25477 0.57049 0.0
O468 O 0.68104 0.2321 0.58832 0.0
H469 H 0.7412 0.16591 0.56889 0.0
H470 H 0.7398 0.14104 0.55396 0.0
C471 C 0.72728 0.1522 0.56239 0.0
H472 H 0.7179 0.13681 0.57003 0.0
H473 H 0.73834 0.21193 0.59234 0.0
O474 O 0.61578 0.23408 0.54588 0.0
C475 C 0.67255 0.25465 0.58253 0.0
Co476 Co 0.54884 0.88681 0.31672 0.0
Co477 Co 0.56318 0.93782 0.33698 0.0
C478 C 0.5893 0.8827 0.34215 0.0
O479 O 0.57601 0.87197 0.33136 0.0
O480 O 0.58656 0.90825 0.3455 0.0
C481 C 0.55111 0.83407 0.30187 0.0
O482 O 0.57261 0.82957 0.3105 0.0
C483 C 0.5927 0.98368 0.35221 0.0
C484 C 0.55774 0.01269 0.35588 0.0
C485 C 0.58595 0.00941 0.35823 0.0
N486 N 0.56949 0.97251 0.34645 0.0
N487 N 0.54873 0.98996 0.34869 0.0
C488 C 0.62034 0.96941 0.35243 0.0
H489 H 0.6179 0.94664 0.35162 0.0
H490 H 0.6327 0.97645 0.34276 0.0
H491 H 0.63189 0.97454 0.36272 0.0
C492 C 0.56408 0.92698 0.29344 0.0
N493 N 0.56227 0.91944 0.30776 0.0
N494 N 0.56821 0.94095 0.3162 0.0
C495 C 0.57407 0.96287 0.30746 0.0
C496 C 0.5717 0.95471 0.2928 0.0
C497 C 0.55535 0.90889 0.28079 0.0
H498 H 0.56705 0.88905 0.28123 0.0
H499 H 0.55903 0.91919 0.26996 0.0
H500 H 0.53295 0.90387 0.28192 0.0
O501 O 0.51309 0.89437 0.32677 0.0
O502 O 0.52449 0.92887 0.34188 0.0
H503 H 0.56002 -0.00062 0.31867 0.0
H504 H 0.58417 0.0062 0.30377 0.0
C505 C 0.57896 0.99179 0.31297 0.0
H506 H 0.59626 0.99168 0.32107 0.0
H507 H 0.5283 0.98628 0.34536 0.0
O508 O 0.53963 0.85783 0.30197 0.0
C509 C 0.50686 0.91166 0.33688 0.0
Co510 Co 0.8473 0.77555 0.06884 0.0
Co511 Co 0.79799 0.80609 0.08472 0.0
C512 C 0.85555 0.82689 0.08753 0.0
O513 O 0.86443 0.80653 0.07988 0.0
O514 O 0.82978 0.83036 0.08998 0.0
C515 C 0.8982 0.77106 0.05295 0.0
O516 O 0.90008 0.79767 0.05605 0.0
C517 C 0.75888 0.84945 0.09412 0.0
C518 C 0.72116 0.82483 0.09899 0.0
C519 C 0.73145 0.85172 0.09873 0.0
N520 N 0.7643 0.82249 0.09151 0.0
N521 N 0.74174 0.80788 0.09452 0.0
C522 C 0.78053 0.87179 0.09345 0.0
H523 H 0.79765 0.86641 0.10114 0.0
H524 H 0.7893 0.87279 0.08209 0.0
H525 H 0.77248 0.89242 0.09675 0.0
C526 C 0.81216 0.78544 0.04277 0.0
N527 N 0.81731 0.78773 0.05735 0.0
N528 N 0.79646 0.80053 0.06384 0.0
C529 C 0.77736 0.80708 0.05348 0.0
C530 C 0.78669 0.79763 0.03983 0.0
C531 C 0.83172 0.77239 0.03193 0.0
H532 H 0.85217 0.78292 0.03266 0.0
H533 H 0.824 0.77391 0.02038 0.0
H534 H 0.83484 0.75023 0.0349 0.0
O535 O 0.83524 0.74779 0.08334 0.0
O536 O 0.80255 0.77043 0.09578 0.0
H537 H 0.73816 0.80747 0.06453 0.0
H538 H 0.73753 0.82394 0.04663 0.0
C539 C 0.75012 0.82071 0.05677 0.0
H540 H 0.75386 0.84104 0.06221 0.0
H541 H 0.7404 0.78632 0.09348 0.0
O542 O 0.87649 0.7578 0.05671 0.0
C543 C 0.81775 0.74905 0.09386 0.0
Co544 Co 0.56283 0.61566 0.82074 0.0
Co545 Co 0.58765 0.56935 0.84118 0.0
C546 C 0.61124 0.62631 0.84104 0.0
O547 O 0.59419 0.63392 0.83105 0.0
O548 O 0.611 0.60167 0.84612 0.0
C549 C 0.56433 0.65876 0.79886 0.0
O550 O 0.59122 0.65416 0.79914 0.0
C551 C 0.62772 0.53151 0.85494 0.0
C552 C 0.59987 0.50073 0.86546 0.0
C553 C 0.62746 0.50804 0.86375 0.0
N554 N 0.60134 0.53793 0.85153 0.0
N555 N 0.5848 0.51943 0.85783 0.0
C556 C 0.65242 0.54859 0.85063 0.0
H557 H 0.65821 0.5622 0.86007 0.0
H558 H 0.64756 0.56181 0.8409 0.0
H559 H 0.67045 0.53505 0.84811 0.0
C560 C 0.56959 0.57067 0.79848 0.0
N561 N 0.57336 0.58142 0.81209 0.0
N562 N 0.58613 0.56304 0.82046 0.0
C563 C 0.5923 0.54055 0.81224 0.0
C564 C 0.58154 0.54426 0.79804 0.0
C565 C 0.55208 0.58436 0.78686 0.0
H566 H 0.53652 0.5982 0.7921 0.0
H567 H 0.56558 0.59716 0.77959 0.0
H568 H 0.5411 0.5687 0.77999 0.0
O569 O 0.53326 0.60981 0.83526 0.0
O570 O 0.54971 0.57539 0.84913 0.0
H571 H 0.59635 0.50291 0.82472 0.0
H572 H 0.61883 0.50476 0.80861 0.0
C573 C 0.60946 0.51679 0.81782 0.0
H574 H 0.62657 0.52483 0.82478 0.0
H575 H 0.56318 0.51984 0.85711 0.0
O576 O 0.54839 0.64315 0.80638 0.0
C577 C 0.53066 0.5926 0.84584 0.0
Co578 Co 0.6319 0.29874 0.06491 0.0
Co579 Co 0.68743 0.32063 0.07899 0.0
C580 C 0.63286 0.34143 0.08928 0.0
O581 O 0.62009 0.32597 0.08008 0.0
O582 O 0.6592 0.34148 0.09011 0.0
C583 C 0.57922 0.3054 0.05117 0.0
O584 O 0.58452 0.33185 0.05346 0.0
C585 C 0.7297 0.36058 0.08823 0.0
C586 C 0.7672 0.33425 0.08997 0.0
C587 C 0.75775 0.36124 0.09174 0.0
N588 N 0.72303 0.33445 0.08438 0.0
N589 N 0.74549 0.3188 0.08543 0.0
C590 C 0.70873 0.38339 0.08977 0.0
H591 H 0.6954 0.37892 0.0995 0.0
H592 H 0.69516 0.38382 0.07983 0.0
H593 H 0.71837 0.40402 0.09147 0.0
C594 C 0.6599 0.31703 0.03751 0.0
N595 N 0.6586 0.31457 0.05234 0.0
N596 N 0.68167 0.32428 0.05823 0.0
C597 C 0.69817 0.33377 0.0473 0.0
C598 C 0.68484 0.32958 0.03388 0.0
C599 C 0.63828 0.30627 0.02708 0.0
H600 H 0.63211 0.28493 0.03039 0.0
H601 H 0.61962 0.31971 0.0278 0.0
H602 H 0.64579 0.30621 0.01545 0.0
O603 O 0.64733 0.26536 0.07457 0.0
O604 O 0.68566 0.2813 0.08542 0.0
H605 H 0.73973 0.32815 0.05507 0.0
H606 H 0.73713 0.35004 0.03888 0.0
C607 C 0.7271 0.34436 0.04952 0.0
H608 H 0.72654 0.36292 0.05679 0.0
H609 H 0.74592 0.29753 0.08318 0.0
O610 O 0.59765 0.28748 0.05438 0.0
C611 C 0.66878 0.26166 0.08257 0.0
Co612 Co 0.95093 0.38494 0.32635 0.0
Co613 Co 0.91134 0.42597 0.34309 0.0
C614 C 0.90166 0.36672 0.34557 0.0
O615 O 0.92329 0.36203 0.33777 0.0
O616 O 0.8934 0.39124 0.34831 0.0
C617 C 0.95831 0.33887 0.30705 0.0
O618 O 0.93137 0.3367 0.30906 0.0
C619 C 0.86449 0.45862 0.35474 0.0
C620 C 0.88311 0.50067 0.35512 0.0
C621 C 0.85878 0.48623 0.35782 0.0
N622 N 0.89107 0.45687 0.35031 0.0
N623 N 0.90216 0.48199 0.35074 0.0
C624 C 0.84456 0.43473 0.35465 0.0
H625 H 0.84861 0.42118 0.34495 0.0
H626 H 0.82271 0.44201 0.35431 0.0
H627 H 0.84774 0.42216 0.36482 0.0
C628 C 0.93519 0.42219 0.30125 0.0
N629 N 0.93324 0.41342 0.3154 0.0
N630 N 0.91475 0.42866 0.32235 0.0
C631 C 0.90296 0.44632 0.3127 0.0
C632 C 0.91604 0.44355 0.29905 0.0
C633 C 0.9567 0.4119 0.29061 0.0
H634 H 0.97478 0.40334 0.2967 0.0
H635 H 0.94759 0.39511 0.28372 0.0
H636 H 0.96382 0.42888 0.28321 0.0
O637 O 0.97716 0.40124 0.34064 0.0
O638 O 0.94783 0.42776 0.35329 0.0
H639 H 0.88458 0.48318 0.3217 0.0
H640 H 0.86616 0.4689 0.30602 0.0
C641 C 0.87797 0.46366 0.31621 0.0
H642 H 0.86405 0.45216 0.32381 0.0
H643 H 0.92255 0.48646 0.34763 0.0
O644 O 0.97128 0.35891 0.3131 0.0
C645 C 0.97204 0.41783 0.35128 0.0
Co646 Co 0.86961 0.69512 0.55795 0.0
Co647 Co 0.82079 0.66839 0.57614 0.0
C648 C 0.87836 0.65064 0.58126 0.0
O649 O 0.88704 0.66881 0.57211 0.0
O650 O 0.85262 0.64717 0.58379 0.0
C651 C 0.92251 0.69758 0.54371 0.0
O652 O 0.92529 0.67257 0.54937 0.0
C653 C 0.78146 0.629 0.58976 0.0
C654 C 0.74385 0.65515 0.59165 0.0
C655 C 0.75402 0.62878 0.59451 0.0
N656 N 0.78704 0.65429 0.58417 0.0
N657 N 0.76453 0.66983 0.58539 0.0
C658 C 0.80288 0.60669 0.59156 0.0
H659 H 0.82019 0.6148 0.59841 0.0
H660 H 0.81149 0.60115 0.58054 0.0
H661 H 0.79453 0.58791 0.59709 0.0
C662 C 0.83611 0.67413 0.53297 0.0
N663 N 0.8408 0.67756 0.54753 0.0
N664 N 0.82039 0.66616 0.55511 0.0
C665 C 0.8023 0.65456 0.54555 0.0
C666 C 0.81172 0.65922 0.53126 0.0
C667 C 0.85461 0.68521 0.52103 0.0
H668 H 0.85651 0.70809 0.52226 0.0
H669 H 0.87568 0.67623 0.52236 0.0
H670 H 0.84655 0.68016 0.50983 0.0
O671 O 0.85501 0.72719 0.56883 0.0
O672 O 0.82341 0.70741 0.58333 0.0
H673 H 0.7623 0.65575 0.55575 0.0
H674 H 0.76448 0.63205 0.54032 0.0
C675 C 0.77583 0.64056 0.55001 0.0
H676 H 0.78052 0.62344 0.55784 0.0
H677 H 0.76332 0.69051 0.58196 0.0
O678 O 0.89933 0.71 0.54494 0.0
C679 C 0.83702 0.72863 0.57909 0.0
Co680 Co 0.54981 0.38657 0.67152 0.0
Co681 Co 0.57449 0.44278 0.6595 0.0
C682 C 0.59687 0.3878 0.64994 0.0
O683 O 0.58101 0.37388 0.6585 0.0
O684 O 0.59562 0.4141 0.64934 0.0
C685 C 0.54695 0.33481 0.68838 0.0
O686 O 0.57393 0.33749 0.69006 0.0
C687 C 0.61721 0.48128 0.64962 0.0
C688 C 0.59447 0.52094 0.64764 0.0
C689 C 0.61996 0.50856 0.64492 0.0
N690 N 0.59118 0.47751 0.65458 0.0
N691 N 0.57775 0.50138 0.65354 0.0
C692 C 0.63929 0.45938 0.65008 0.0
H693 H 0.63575 0.44515 0.65957 0.0
H694 H 0.6602 0.46892 0.65107 0.0
H695 H 0.63852 0.44703 0.63972 0.0
C696 C 0.56021 0.4152 0.70012 0.0
N697 N 0.56168 0.41384 0.68525 0.0
N698 N 0.57419 0.43623 0.68022 0.0
C699 C 0.58279 0.45173 0.69175 0.0
C700 C 0.57386 0.43918 0.70485 0.0
C701 C 0.54319 0.39559 0.70928 0.0
H702 H 0.52565 0.38731 0.70265 0.0
H703 H 0.55638 0.37793 0.71287 0.0
H704 H 0.53465 0.40611 0.71922 0.0
O705 O 0.52015 0.40203 0.65904 0.0
O706 O 0.53655 0.44237 0.65083 0.0
H707 H 0.58777 0.49519 0.68748 0.0
H708 H 0.61299 0.48101 0.70033 0.0
C709 C 0.60088 0.47688 0.69011 0.0
H710 H 0.6157 0.47377 0.68088 0.0
H711 H 0.55688 0.50406 0.65636 0.0
O712 O 0.53355 0.35336 0.68134 0.0
C713 C 0.51733 0.42422 0.65152 0.0
Co714 Co 0.86267 0.28213 0.92207 0.0
Co715 Co 0.82169 0.31317 0.90071 0.0
C716 C 0.8802 0.3325 0.90552 0.0
O717 O 0.88539 0.31359 0.91496 0.0
O718 O 0.8567 0.33421 0.89917 0.0
C719 C 0.90706 0.27085 0.94216 0.0
O720 O 0.91185 0.29757 0.9406 0.0
C721 C 0.78936 0.36141 0.89253 0.0
C722 C 0.75926 0.34448 0.87638 0.0
C723 C 0.76688 0.36856 0.88376 0.0
N724 N 0.79454 0.33427 0.89058 0.0
N725 N 0.77676 0.32428 0.88077 0.0
C726 C 0.80671 0.38001 0.9021 0.0
H727 H 0.81213 0.36923 0.91258 0.0
H728 H 0.79629 0.40004 0.90448 0.0
H729 H 0.82646 0.3845 0.89623 0.0
C730 C 0.81862 0.29568 0.94371 0.0
N731 N 0.82884 0.29519 0.92984 0.0
N732 N 0.81118 0.30742 0.9208 0.0
C733 C 0.78879 0.31551 0.92864 0.0
C734 C 0.79296 0.30875 0.94337 0.0
C735 C 0.83429 0.28581 0.95702 0.0
H736 H 0.85567 0.2944 0.95676 0.0
H737 H 0.82399 0.29203 0.9675 0.0
H738 H 0.83599 0.26282 0.9566 0.0
O739 O 0.85606 0.25637 0.90525 0.0
O740 O 0.82657 0.27788 0.89022 0.0
H741 H 0.74499 0.32489 0.92943 0.0
H742 H 0.76639 0.35135 0.92131 0.0
C743 C 0.76327 0.32859 0.92221 0.0
H744 H 0.75895 0.31995 0.91107 0.0
H745 H 0.77619 0.30356 0.87734 0.0
O746 O 0.88528 0.26048 0.93642 0.0
C747 C 0.84159 0.25702 0.89343 0.0
Co748 Co 0.95019 0.60539 0.17855 0.0
Co749 Co 0.92437 0.55591 0.16054 0.0
C750 C 0.90264 0.61323 0.1572 0.0
O751 O 0.91986 0.62244 0.16672 0.0
O752 O 0.90228 0.5878 0.15336 0.0
C753 C 0.95024 0.65472 0.1964 0.0
O754 O 0.92388 0.65582 0.19268 0.0
C755 C 0.88574 0.51792 0.1456 0.0
C756 C 0.90992 0.47887 0.14535 0.0
C757 C 0.88507 0.49055 0.14077 0.0
N758 N 0.91005 0.52228 0.15253 0.0
N759 N 0.92437 0.49886 0.15239 0.0
C760 C 0.86311 0.53915 0.14456 0.0
H761 H 0.8625 0.55174 0.15486 0.0
H762 H 0.84256 0.5292 0.14288 0.0
H763 H 0.86746 0.55328 0.13512 0.0
C764 C 0.93461 0.56993 0.20355 0.0
N765 N 0.93625 0.57482 0.18895 0.0
N766 N 0.92404 0.55455 0.18165 0.0
C767 C 0.91332 0.53638 0.1915 0.0
C768 C 0.91964 0.54561 0.20572 0.0
C769 C 0.94856 0.58757 0.21503 0.0
H770 H 0.96883 0.59508 0.21079 0.0
H771 H 0.93534 0.60591 0.21744 0.0
H772 H 0.95217 0.57584 0.22543 0.0
O773 O 0.98124 0.59343 0.16597 0.0
O774 O 0.96274 0.55918 0.1527 0.0
H775 H 0.90935 0.49481 0.18351 0.0
H776 H 0.88319 0.50452 0.19689 0.0
C777 C 0.89573 0.51194 0.18736 0.0
H778 H 0.88159 0.51766 0.17816 0.0
H779 H 0.94413 0.49661 0.15698 0.0
O780 O 0.96494 0.6344 0.19199 0.0
C781 C 0.98315 0.57469 0.15611 0.0
Co782 Co 0.61723 0.69291 0.42767 0.0
Co783 Co 0.65738 0.6669 0.40405 0.0
C784 C 0.59794 0.64931 0.40661 0.0
O785 O 0.59323 0.66536 0.41752 0.0
O786 O 0.62154 0.64856 0.40032 0.0
C787 C 0.57265 0.70069 0.44819 0.0
O788 O 0.56586 0.67532 0.44421 0.0
C789 C 0.68891 0.62149 0.39045 0.0
C790 C 0.72385 0.64434 0.38025 0.0
C791 C 0.71379 0.6178 0.38291 0.0
N792 N 0.68502 0.6489 0.3925 0.0
N793 N 0.70569 0.66245 0.38615 0.0
C794 C 0.6687 0.59963 0.39531 0.0
H795 H 0.64721 0.60651 0.39305 0.0
H796 H 0.67074 0.59628 0.40743 0.0
H797 H 0.67214 0.57973 0.38939 0.0
C798 C 0.66063 0.6728 0.44803 0.0
N799 N 0.64985 0.67577 0.43439 0.0
N800 N 0.66698 0.66501 0.42456 0.0
C801 C 0.68933 0.65479 0.43174 0.0
C802 C 0.6859 0.65928 0.44679 0.0
C803 C 0.64683 0.68283 0.46189 0.0
H804 H 0.62491 0.67575 0.46202 0.0
H805 H 0.6576 0.67515 0.47196 0.0
H806 H 0.64676 0.7059 0.46193 0.0
O807 O 0.62695 0.72381 0.41418 0.0
O808 O 0.65492 0.70579 0.39713 0.0
H809 H 0.73221 0.64106 0.43212 0.0
H810 H 0.70958 0.6222 0.41983 0.0
C811 C 0.71453 0.64306 0.42431 0.0
H812 H 0.72085 0.65673 0.41503 0.0
H813 H 0.7079 0.68403 0.3863 0.0
O814 O 0.59544 0.71088 0.44363 0.0
C815 C 0.64183 0.7263 0.40262 0.0
Co816 Co 0.45578 0.38865 0.181 0.0
Co817 Co 0.43042 0.42922 0.15718 0.0
C818 C 0.40666 0.37303 0.16192 0.0
O819 O 0.4241 0.36751 0.17213 0.0
O820 O 0.40705 0.39614 0.15509 0.0
C821 C 0.46324 0.34234 0.20066 0.0
O822 O 0.43799 0.33571 0.19642 0.0
C823 C 0.39247 0.4604 0.13778 0.0
C824 C 0.41276 0.50158 0.13717 0.0
C825 C 0.38917 0.48742 0.13264 0.0
N826 N 0.41638 0.45902 0.14543 0.0
N827 N 0.42873 0.48351 0.1447 0.0
C828 C 0.37453 0.4357 0.13461 0.0
H829 H 0.38789 0.41789 0.13152 0.0
H830 H 0.36272 0.43003 0.14473 0.0
H831 H 0.35997 0.43968 0.12533 0.0
C832 C 0.44382 0.4366 0.20056 0.0
N833 N 0.44376 0.42394 0.18727 0.0
N834 N 0.43129 0.44 0.17751 0.0
C835 C 0.4215 0.4627 0.18449 0.0
C836 C 0.42963 0.46169 0.19926 0.0
C837 C 0.45853 0.42531 0.21387 0.0
H838 H 0.47679 0.41288 0.21041 0.0
H839 H 0.44418 0.41151 0.22008 0.0
H840 H 0.46554 0.44231 0.22129 0.0
O841 O 0.48577 0.39345 0.16656 0.0
O842 O 0.46797 0.42123 0.14938 0.0
H843 H 0.41363 0.49992 0.1722 0.0
H844 H 0.38797 0.4924 0.18613 0.0
C845 C 0.40173 0.48302 0.17763 0.0
H846 H 0.3886 0.47251 0.16926 0.0
H847 H 0.44758 0.48816 0.14985 0.0
O848 O 0.4732 0.3657 0.19678 0.0
C849 C 0.48791 0.40685 0.1545 0.0
Co850 Co 0.36297 0.6986 0.92791 0.0
Co851 Co 0.31639 0.67051 0.9088 0.0
C852 C 0.37395 0.65172 0.90624 0.0
O853 O 0.38155 0.67092 0.91508 0.0
O854 O 0.34853 0.64758 0.90308 0.0
C855 C 0.41449 0.70503 0.94358 0.0
O856 O 0.42056 0.68089 0.93761 0.0
C857 C 0.27757 0.63372 0.89264 0.0
C858 C 0.24151 0.66192 0.89046 0.0
C859 C 0.25108 0.63577 0.88664 0.0
N860 N 0.28322 0.65766 0.89973 0.0
N861 N 0.26157 0.67433 0.8984 0.0
C862 C 0.29838 0.61098 0.89043 0.0
H863 H 0.31685 0.61956 0.88468 0.0
H864 H 0.30532 0.60317 0.90139 0.0
H865 H 0.28999 0.59361 0.88372 0.0
C866 C 0.32432 0.68493 0.95183 0.0
N867 N 0.33235 0.68318 0.93762 0.0
N868 N 0.31257 0.67137 0.92976 0.0
C869 C 0.29143 0.66473 0.93888 0.0
C870 C 0.29817 0.67328 0.95309 0.0
C871 C 0.34016 0.70023 0.96353 0.0
H872 H 0.36145 0.69154 0.96432 0.0
H873 H 0.32985 0.69868 0.9745 0.0
H874 H 0.34205 0.72241 0.96031 0.0
O875 O 0.3507 0.72966 0.91567 0.0
O876 O 0.32146 0.70843 0.90041 0.0
H877 H 0.25196 0.67008 0.92851 0.0
H878 H 0.25194 0.64517 0.94342 0.0
C879 C 0.26408 0.6533 0.9339 0.0
H880 H 0.26744 0.6364 0.92575 0.0
H881 H 0.26077 0.69449 0.90266 0.0
O882 O 0.39034 0.71506 0.94173 0.0
C883 C 0.33459 0.73 0.90455 0.0
Co884 Co 0.04482 0.61661 0.67562 0.0
Co885 Co 0.07442 0.56558 0.66104 0.0
C886 C 0.0999 0.6223 0.66109 0.0
O887 O 0.08066 0.63227 0.66914 0.0
O888 O 0.0995 0.59724 0.65656 0.0
C889 C 0.03495 0.66675 0.69236 0.0
O890 O 0.06177 0.67103 0.69094 0.0
C891 C 0.11512 0.52702 0.6482 0.0
C892 C 0.09233 0.48717 0.64938 0.0
C893 C 0.11683 0.49911 0.64449 0.0
N894 N 0.09054 0.53144 0.65483 0.0
N895 N 0.07705 0.50754 0.65553 0.0
C896 C 0.13687 0.54893 0.64617 0.0
H897 H 0.1388 0.56134 0.65647 0.0
H898 H 0.15741 0.53974 0.64352 0.0
H899 H 0.1305 0.5631 0.63708 0.0
C900 C 0.04455 0.5793 0.70122 0.0
N901 N 0.05049 0.58457 0.68698 0.0
N902 N 0.06562 0.56428 0.68154 0.0
C903 C 0.07115 0.54599 0.69246 0.0
C904 C 0.05781 0.55482 0.70534 0.0
C905 C 0.02534 0.59688 0.71031 0.0
H906 H 0.00817 0.60473 0.70328 0.0
H907 H 0.03693 0.61502 0.71473 0.0
H908 H 0.01628 0.58493 0.71965 0.0
O909 O 0.02241 0.60869 0.65803 0.0
O910 O 0.04034 0.56978 0.64886 0.0
H911 H 0.07987 0.5035 0.68736 0.0
H912 H 0.10169 0.51795 0.70165 0.0
C913 C 0.09124 0.5224 0.69095 0.0
H914 H 0.10725 0.52741 0.68254 0.0
H915 H 0.05721 0.50524 0.66001 0.0
O916 O 0.0242 0.64488 0.68697 0.0
C917 C 0.02229 0.58905 0.64864 0.0
Co918 Co 0.12141 0.30407 0.42862 0.0
Co919 Co 0.17012 0.33075 0.41039 0.0
C920 C 0.116 0.35991 0.414 0.0
O921 O 0.10608 0.3405 0.42207 0.0
O922 O 0.14053 0.35882 0.40876 0.0
C923 C 0.06976 0.2889 0.44216 0.0
O924 O 0.06005 0.31035 0.43479 0.0
C925 C 0.20898 0.36597 0.39362 0.0
C926 C 0.24344 0.33625 0.39014 0.0
C927 C 0.23435 0.36268 0.38655 0.0
N928 N 0.20346 0.34247 0.40111 0.0
N929 N 0.22417 0.32489 0.39904 0.0
C930 C 0.18849 0.38907 0.39164 0.0
H931 H 0.16945 0.3807 0.38635 0.0
H932 H 0.18255 0.39737 0.40267 0.0
H933 H 0.19674 0.4061 0.38464 0.0
C934 C 0.16478 0.30199 0.45141 0.0
N935 N 0.15602 0.30878 0.43775 0.0
N936 N 0.17638 0.32085 0.43045 0.0
C937 C 0.19865 0.32277 0.43943 0.0
C938 C 0.19203 0.31059 0.45289 0.0
C939 C 0.14707 0.28806 0.46283 0.0
H940 H 0.14107 0.26711 0.4588 0.0
H941 H 0.12774 0.30025 0.46443 0.0
H942 H 0.158 0.28609 0.47361 0.0
O943 O 0.12466 0.27926 0.41137 0.0
O944 O 0.15863 0.29859 0.39844 0.0
H945 H 0.23803 0.31966 0.42873 0.0
H946 H 0.23834 0.34117 0.44498 0.0
C947 C 0.22597 0.33521 0.43511 0.0
H948 H 0.22262 0.35377 0.42805 0.0
H949 H 0.22453 0.30462 0.40316 0.0
O950 O 0.09563 0.28397 0.44185 0.0
C951 C 0.14036 0.27984 0.40007 0.0
Co952 Co 0.42422 0.62569 0.32262 0.0
Co953 Co 0.3916 0.57333 0.33351 0.0
C954 C 0.37069 0.62843 0.34077 0.0
O955 O 0.39161 0.63916 0.33423 0.0
O956 O 0.36686 0.60227 0.3414 0.0
C957 C 0.43222 0.6748 0.30433 0.0
O958 O 0.40601 0.67199 0.30057 0.0
C959 C 0.35276 0.5269 0.33971 0.0
C960 C 0.38101 0.49137 0.33582 0.0
C961 C 0.3539 0.49808 0.3394 0.0
N962 N 0.37813 0.53671 0.33635 0.0
N963 N 0.39491 0.51538 0.33418 0.0
C964 C 0.32774 0.54482 0.34197 0.0
H965 H 0.32916 0.56367 0.33493 0.0
H966 H 0.30837 0.53331 0.33934 0.0
H967 H 0.32699 0.55155 0.35373 0.0
C968 C 0.41873 0.59675 0.29393 0.0
N969 N 0.41367 0.59923 0.30853 0.0
N970 N 0.39774 0.57864 0.31289 0.0
C971 C 0.39062 0.5633 0.301 0.0
C972 C 0.40401 0.574 0.28859 0.0
C973 C 0.43986 0.61377 0.2858 0.0
H974 H 0.456 0.62142 0.29355 0.0
H975 H 0.42946 0.63188 0.28059 0.0
H976 H 0.45004 0.60137 0.27697 0.0
O977 O 0.45096 0.60956 0.33624 0.0
O978 O 0.42655 0.57449 0.34544 0.0
H979 H 0.38039 0.52054 0.30457 0.0
H980 H 0.35991 0.53724 0.2904 0.0
C981 C 0.36984 0.54014 0.30139 0.0
H982 H 0.3535 0.54474 0.30967 0.0
H983 H 0.41579 0.51727 0.33124 0.0
O984 O 0.44307 0.65761 0.3133 0.0
C985 C 0.44845 0.58928 0.34512 0.0
Co986 Co 0.12674 0.6857 0.07443 0.0
Co987 Co 0.18303 0.6646 0.08761 0.0
C988 C 0.12933 0.63578 0.09398 0.0
O989 O 0.11575 0.65263 0.08589 0.0
O990 O 0.15542 0.63821 0.09568 0.0
C991 C 0.07614 0.6816 0.05834 0.0
O992 O 0.08151 0.65486 0.05908 0.0
C993 C 0.22532 0.62328 0.09277 0.0
C994 C 0.26124 0.64788 0.10053 0.0
C995 C 0.25232 0.62091 0.09791 0.0
N996 N 0.21849 0.65029 0.09252 0.0
N997 N 0.24004 0.66497 0.0971 0.0
C998 C 0.2065 0.6006 0.08747 0.0
H999 H 0.19254 0.60858 0.07865 0.0
H1000 H 0.21866 0.58273 0.08317 0.0
H1001 H 0.19341 0.59337 0.09682 0.0
C1002 C 0.15832 0.68111 0.04661 0.0
N1003 N 0.15575 0.67743 0.06131 0.0
N1004 N 0.17955 0.66877 0.06678 0.0
C1005 C 0.19813 0.66664 0.05569 0.0
C1006 C 0.18522 0.67437 0.04257 0.0
C1007 C 0.13553 0.69148 0.03677 0.0
H1008 H 0.12799 0.71183 0.04093 0.0
H1009 H 0.11797 0.67661 0.03714 0.0
H1010 H 0.14234 0.6936 0.02509 0.0
O1011 O 0.1384 0.71558 0.08813 0.0
O1012 O 0.1781 0.70053 0.09786 0.0
H1013 H 0.23668 0.67403 0.06681 0.0
H1014 H 0.24061 0.66389 0.04769 0.0
C1015 C 0.22832 0.66049 0.05792 0.0
H1016 H 0.23073 0.63856 0.06149 0.0
H1017 H 0.24013 0.68664 0.09808 0.0
O1018 O 0.09336 0.69877 0.06382 0.0
C1019 C 0.15904 0.71874 0.09681 0.0
Co1020 Co 0.05929 0.3734 0.82074 0.0
Co1021 Co 0.09029 0.42038 0.83824 0.0
C1022 C 0.11349 0.36496 0.83821 0.0
O1023 O 0.09256 0.35711 0.8306 0.0
O1024 O 0.11688 0.3903 0.84181 0.0
C1025 C 0.05959 0.33059 0.79877 0.0
O1026 O 0.08605 0.33707 0.79789 0.0
C1027 C 0.1275 0.46576 0.84842 0.0
C1028 C 0.09606 0.49827 0.85274 0.0
C1029 C 0.12434 0.4934 0.85236 0.0
N1030 N 0.10206 0.45486 0.84634 0.0
N1031 N 0.08342 0.47425 0.84928 0.0
C1032 C 0.15409 0.45095 0.84508 0.0
H1033 H 0.15039 0.43337 0.83738 0.0
H1034 H 0.16952 0.4655 0.84024 0.0
H1035 H 0.16279 0.44262 0.85557 0.0
C1036 C 0.06052 0.41641 0.79733 0.0
N1037 N 0.06798 0.40636 0.81067 0.0
N1038 N 0.08299 0.42502 0.81768 0.0
C1039 C 0.08689 0.44698 0.8087 0.0
C1040 C 0.07217 0.44268 0.79565 0.0
C1041 C 0.0402 0.40232 0.78727 0.0
H1042 H 0.02606 0.38879 0.79375 0.0
H1043 H 0.05174 0.38916 0.77926 0.0
H1044 H 0.02776 0.41775 0.78099 0.0
O1045 O 0.03162 0.38133 0.836 0.0
O1046 O 0.05572 0.41161 0.84941 0.0
H1047 H 0.09472 0.48584 0.81948 0.0
H1048 H 0.1125 0.48177 0.80201 0.0
C1049 C 0.10571 0.47087 0.81222 0.0
H1050 H 0.12439 0.46318 0.81805 0.0
H1051 H 0.06203 0.47143 0.84818 0.0
O1052 O 0.04401 0.34444 0.80741 0.0
C1053 C 0.03412 0.39688 0.84731 0.0
Co1054 Co 0.37065 0.30225 0.57056 0.0
Co1055 Co 0.31791 0.32748 0.586 0.0
C1056 C 0.37429 0.35251 0.5899 0.0
O1057 O 0.38548 0.33503 0.58117 0.0
O1058 O 0.34858 0.35157 0.59311 0.0
C1059 C 0.42111 0.2998 0.55345 0.0
O1060 O 0.42296 0.3264 0.55658 0.0
C1061 C 0.27427 0.36831 0.59327 0.0
C1062 C 0.24236 0.34085 0.60307 0.0
C1063 C 0.24816 0.36841 0.59986 0.0
N1064 N 0.28329 0.34188 0.59262 0.0
N1065 N 0.26404 0.3256 0.59842 0.0
C1066 C 0.29104 0.39282 0.58833 0.0
H1067 H 0.31314 0.38719 0.58689 0.0
H1068 H 0.28315 0.40013 0.57746 0.0
H1069 H 0.28915 0.41009 0.59643 0.0
C1070 C 0.33513 0.30803 0.54436 0.0
N1071 N 0.34033 0.31262 0.55877 0.0
N1072 N 0.31814 0.32337 0.56508 0.0
C1073 C 0.29801 0.32594 0.55479 0.0
C1074 C 0.30819 0.31626 0.54137 0.0
C1075 C 0.35511 0.29446 0.53391 0.0
H1076 H 0.35988 0.27317 0.5379 0.0
H1077 H 0.37476 0.30648 0.53376 0.0
H1078 H 0.34674 0.2934 0.52247 0.0
O1079 O 0.35892 0.27285 0.58467 0.0
O1080 O 0.32158 0.29084 0.59542 0.0
H1081 H 0.26049 0.32034 0.56712 0.0
H1082 H 0.25501 0.33211 0.54834 0.0
C1083 C 0.26866 0.33392 0.55819 0.0
H1084 H 0.2682 0.35567 0.56223 0.0
H1085 H 0.2659 0.30406 0.59942 0.0
O1086 O 0.40044 0.28596 0.55817 0.0
C1087 C 0.33882 0.27109 0.5938 0.0
H1088 H 0.11992 0.22705 0.40264 0.0
H1089 H 0.15058 0.28701 0.37064 0.0
H1090 H 0.13921 0.25461 0.35029 0.0
H1091 H 0.146 0.16529 0.38295 0.0
H1092 H 0.11636 0.1445 0.38807 0.0
H1093 H 0.12812 0.17194 0.40014 0.0
H1094 H 0.07897 0.19386 0.3996 0.0
H1095 H 0.06709 0.16662 0.38749 0.0
H1096 H 0.06336 0.20247 0.38203 0.0
H1097 H 0.11937 0.21836 0.33348 0.0
H1098 H 0.0974 0.17785 0.3213 0.0
H1099 H 0.0837 0.13975 0.36425 0.0
C1100 C 0.12454 0.23317 0.39136 0.0
C1101 C 0.13603 0.25946 0.38815 0.0
C1102 C 0.14192 0.26683 0.37329 0.0
C1103 C 0.13547 0.24864 0.36168 0.0
C1104 C 0.12373 0.22302 0.36518 0.0
C1105 C 0.11882 0.21503 0.37966 0.0
C1106 C 0.1059 0.18639 0.38041 0.0
C1107 C 0.12526 0.16581 0.38836 0.0
C1108 C 0.07712 0.18742 0.38782 0.0
C1109 C 0.10365 0.17984 0.36406 0.0
C1110 C 0.11384 0.20134 0.35547 0.0
C1111 C 0.11189 0.2011 0.34006 0.0
C1112 C 0.09932 0.17816 0.33326 0.0
C1113 C 0.08937 0.15571 0.34188 0.0
C1114 C 0.09178 0.15646 0.35744 0.0
H1115 H 0.01831 0.89047 0.6544 0.0
H1116 H 0.98069 0.94453 0.62156 0.0
H1117 H 0.02299 0.94121 0.60625 0.0
H1118 H 0.09214 0.91598 0.64882 0.0
H1119 H 0.10572 0.88146 0.65164 0.0
H1120 H 0.07472 0.89234 0.66123 0.0
H1121 H 0.0483 0.84988 0.65055 0.0
H1122 H 0.07901 0.83899 0.6409 0.0
H1123 H 0.04728 0.84475 0.63077 0.0
H1124 H 0.06408 0.92358 0.59225 0.0
H1125 H 0.10292 0.89616 0.58171 0.0
H1126 H 0.11582 0.85673 0.62425 0.0
C1127 C 0.01931 0.90229 0.6442 0.0
C1128 C 0.99623 0.91771 0.63916 0.0
C1129 C -0.00179 0.93273 0.6257 0.0
C1130 C 0.02217 0.93099 0.61692 0.0
C1131 C 0.04419 0.91472 0.62195 0.0
C1132 C 0.04321 0.90112 0.63544 0.0
C1133 C 0.06854 0.88299 0.63772 0.0
C1134 C 0.08634 0.89385 0.65062 0.0
C1135 C 0.06027 0.85236 0.64011 0.0
C1136 C 0.08307 0.88716 0.62302 0.0
C1137 C 0.06885 0.90576 0.61411 0.0
C1138 C 0.07603 0.90986 0.59929 0.0
C1139 C 0.09801 0.89426 0.59338 0.0
C1140 C 0.11267 0.87526 0.60238 0.0
C1141 C 0.10555 0.87213 0.61741 0.0
H1142 H 0.34047 0.73353 0.87477 0.0
H1143 H 0.32887 0.78305 0.91436 0.0
H1144 H 0.33535 0.82599 0.89969 0.0
H1145 H 0.3959 0.77016 0.8624 0.0
H1146 H 0.38844 0.76763 0.84287 0.0
H1147 H 0.37582 0.74141 0.85534 0.0
H1148 H 0.32544 0.75001 0.84635 0.0
H1149 H 0.33795 0.77617 0.83368 0.0
H1150 H 0.31125 0.78466 0.84692 0.0
H1151 H 0.3495 0.86243 0.88187 0.0
H1152 H 0.37326 0.88986 0.86267 0.0
H1153 H 0.37909 0.81648 0.83486 0.0
C1154 C 0.33809 0.75353 0.88015 0.0
C1155 C 0.33349 0.75529 0.89553 0.0
C1156 C 0.33189 0.78155 0.90249 0.0
C1157 C 0.33544 0.80595 0.89425 0.0
C1158 C 0.34092 0.80357 0.87913 0.0
C1159 C 0.34234 0.77802 0.87213 0.0
C1160 C 0.35301 0.78088 0.85642 0.0
C1161 C 0.37988 0.76404 0.85414 0.0
C1162 C 0.33057 0.77243 0.84517 0.0
C1163 C 0.35848 0.81184 0.8559 0.0
C1164 C 0.3506 0.82462 0.86895 0.0
C1165 C 0.35526 0.85278 0.87148 0.0
C1166 C 0.36875 0.86821 0.86048 0.0
C1167 C 0.37782 0.85535 0.84722 0.0
C1168 C 0.37219 0.8269 0.84484 0.0
H1169 H 0.41629 0.17602 0.10325 0.0
H1170 H 0.36596 0.10124 0.10419 0.0
H1171 H 0.40361 0.07675 0.11775 0.0
H1172 H 0.48412 0.14375 0.09968 0.0
H1173 H 0.50026 0.1686 0.1119 0.0
H1174 H 0.47071 0.17865 0.1009 0.0
H1175 H 0.44499 0.19424 0.12474 0.0
H1176 H 0.47431 0.18401 0.13583 0.0
H1177 H 0.44042 0.16984 0.13971 0.0
H1178 H 0.44745 0.06104 0.13149 0.0
H1179 H 0.49129 0.05669 0.14582 0.0
H1180 H 0.50926 0.14362 0.13753 0.0
C1181 C 0.41336 0.15429 0.10599 0.0
C1182 C 0.38849 0.1403 0.10245 0.0
C1183 C 0.38507 0.11217 0.10669 0.0
C1184 C 0.40631 0.09816 0.11435 0.0
C1185 C 0.43048 0.1128 0.11786 0.0
C1186 C 0.43389 0.14035 0.1139 0.0
C1187 C 0.46054 0.15233 0.11998 0.0
C1188 C 0.48006 0.16135 0.10736 0.0
C1189 C 0.4547 0.17652 0.1307 0.0
C1190 C 0.47169 0.12727 0.12808 0.0
C1191 C 0.45442 0.10448 0.12654 0.0
C1192 C 0.461 0.07881 0.13283 0.0
C1193 C 0.48585 0.07652 0.14093 0.0
C1194 C 0.50326 0.09994 0.1429 0.0
C1195 C 0.49602 0.12553 0.13639 0.0
H1196 H 0.13761 0.7702 0.09161 0.0
H1197 H 0.17948 0.72068 0.12496 0.0
H1198 H 0.17117 0.75755 0.14349 0.0
H1199 H 0.16185 0.84025 0.10643 0.0
H1200 H 0.12916 0.85609 0.1016 0.0
H1201 H 0.14286 0.82815 0.09046 0.0
H1202 H 0.09705 0.80068 0.09413 0.0
H1203 H 0.08335 0.82826 0.10535 0.0
H1204 H 0.08505 0.79344 0.11266 0.0
H1205 H 0.14869 0.79383 0.15922 0.0
H1206 H 0.11905 0.83034 0.17036 0.0
H1207 H 0.09607 0.85882 0.12651 0.0
C1208 C 0.14582 0.7676 0.1027 0.0
C1209 C 0.15914 0.74273 0.10691 0.0
C1210 C 0.16946 0.73978 0.12151 0.0
C1211 C 0.16481 0.76057 0.1321 0.0
C1212 C 0.15059 0.78444 0.12775 0.0
C1213 C 0.14194 0.78842 0.11328 0.0
C1214 C 0.12528 0.8149 0.11169 0.0
C1215 C 0.14072 0.83611 0.10197 0.0
C1216 C 0.09596 0.80894 0.10561 0.0
C1217 C 0.12437 0.82426 0.12767 0.0
C1218 C 0.13918 0.80649 0.13678 0.0
C1219 C 0.13793 0.80853 0.15218 0.0
C1220 C 0.12099 0.82914 0.15842 0.0
C1221 C 0.10599 0.84758 0.14922 0.0
C1222 C 0.10821 0.84551 0.13371 0.0
H1223 H 0.49632 0.9143 0.36623 0.0
H1224 H 0.45639 0.90391 0.32356 0.0
H1225 H 0.41093 0.8981 0.33611 0.0
H1226 H 0.46116 0.86053 0.38291 0.0
H1227 H 0.45909 0.87634 0.40099 0.0
H1228 H 0.48685 0.88559 0.38864 0.0
H1229 H 0.47303 0.93753 0.39077 0.0
H1230 H 0.44504 0.92836 0.40311 0.0
H1231 H 0.43797 0.94798 0.38651 0.0
H1232 H 0.37088 0.88986 0.35337 0.0
H1233 H 0.34107 0.87215 0.37354 0.0
H1234 H 0.40862 0.88332 0.40478 0.0
C1235 C 0.47781 0.91165 0.35954 0.0
C1236 C 0.47949 0.91014 0.34398 0.0
C1237 C 0.45524 0.90545 0.33552 0.0
C1238 C 0.42941 0.90236 0.34254 0.0
C1239 C 0.42846 0.90362 0.35799 0.0
C1240 C 0.45214 0.90773 0.36639 0.0
C1241 C 0.44651 0.90375 0.38274 0.0
C1242 C 0.46445 0.88015 0.38919 0.0
C1243 C 0.45089 0.93104 0.39129 0.0
C1244 C 0.41615 0.89587 0.38223 0.0
C1245 C 0.40586 0.89687 0.36793 0.0
C1246 C 0.37863 0.88924 0.36463 0.0
C1247 C 0.36183 0.87932 0.37616 0.0
C1248 C 0.37264 0.87642 0.39067 0.0
C1249 C 0.39985 0.88552 0.39378 0.0
H1250 H 0.38831 0.12619 0.62396 0.0
H1251 H 0.34704 0.14769 0.66504 0.0
H1252 H 0.32173 0.18527 0.65216 0.0
H1253 H 0.40457 0.19061 0.61517 0.0
H1254 H 0.40064 0.18806 0.59535 0.0
H1255 H 0.40833 0.15752 0.60599 0.0
H1256 H 0.36467 0.13279 0.59561 0.0
H1257 H 0.35705 0.16313 0.58459 0.0
H1258 H 0.33123 0.1494 0.59707 0.0
H1259 H 0.30844 0.22552 0.63642 0.0
H1260 H 0.30915 0.26576 0.61949 0.0
H1261 H 0.36242 0.2201 0.5893 0.0
C1262 C 0.37279 0.13782 0.63004 0.0
C1263 C 0.36913 0.13378 0.64539 0.0
C1264 C 0.34972 0.15025 0.6532 0.0
C1265 C 0.33525 0.17158 0.64596 0.0
C1266 C 0.34062 0.17619 0.63097 0.0
C1267 C 0.35885 0.15963 0.62306 0.0
C1268 C 0.36517 0.17191 0.60799 0.0
C1269 C 0.39652 0.17735 0.60603 0.0
C1270 C 0.35384 0.15319 0.59558 0.0
C1271 C 0.34899 0.19874 0.60898 0.0
C1272 C 0.33422 0.20041 0.6221 0.0
C1273 C 0.31945 0.22421 0.62599 0.0
C1274 C 0.32009 0.247 0.61633 0.0
C1275 C 0.33595 0.24604 0.60311 0.0
C1276 C 0.35009 0.22139 0.59931 0.0
H1277 H 0.0958 0.10296 0.90451 0.0
H1278 H 0.16688 0.11525 0.87575 0.0
H1279 H 0.14134 0.09336 0.85515 0.0
H1280 H 0.07076 0.03501 0.88611 0.0
H1281 H 0.03512 0.04514 0.88896 0.0
H1282 H 0.06134 0.05505 0.90222 0.0
H1283 H 0.04684 0.10659 0.89921 0.0
H1284 H 0.02102 0.09703 0.88582 0.0
H1285 H 0.04731 0.12216 0.88103 0.0
H1286 H 0.10445 0.08325 0.83661 0.0
H1287 H 0.06079 0.07918 0.82228 0.0
H1288 H 0.01465 0.06961 0.86317 0.0
C1289 C 0.10639 0.09989 0.89405 0.0
C1290 C 0.13321 0.1108 0.89169 0.0
C1291 C 0.14639 0.1068 0.87783 0.0
C1292 C 0.13202 0.09441 0.86604 0.0
C1293 C 0.10487 0.08543 0.86846 0.0
C1294 C 0.09248 0.08718 0.88227 0.0
C1295 C 0.06216 0.07899 0.88161 0.0
C1296 C 0.05705 0.05193 0.89023 0.0
C1297 C 0.04326 0.1026 0.88724 0.0
C1298 C 0.0589 0.07449 0.86511 0.0
C1299 C 0.08381 0.07799 0.85771 0.0
C1300 C 0.08505 0.07929 0.84228 0.0
C1301 C 0.0602 0.07718 0.83424 0.0
C1302 C 0.03463 0.07349 0.84167 0.0
C1303 C 0.03413 0.07141 0.85725 0.0
H1304 H 0.84077 0.73588 0.60873 0.0
H1305 H 0.8298 0.7802 0.56739 0.0
H1306 H 0.83335 0.82501 0.58073 0.0
H1307 H 0.80784 0.78879 0.63442 0.0
H1308 H 0.83413 0.78294 0.6483 0.0
H1309 H 0.82338 0.75489 0.63634 0.0
H1310 H 0.87453 0.7474 0.62836 0.0
H1311 H 0.88538 0.77544 0.64015 0.0
H1312 H 0.89382 0.77614 0.62069 0.0
H1313 H 0.84445 0.86417 0.59768 0.0
H1314 H 0.86642 0.89461 0.61625 0.0
H1315 H 0.87424 0.82447 0.64624 0.0
C1316 C 0.83788 0.7551 0.60267 0.0
C1317 C 0.83425 0.75489 0.58718 0.0
C1318 C 0.83203 0.7802 0.57934 0.0
C1319 C 0.83391 0.80565 0.58683 0.0
C1320 C 0.83842 0.80527 0.6021 0.0
C1321 C 0.84053 0.78062 0.60993 0.0
C1322 C 0.85021 0.78569 0.62567 0.0
C1323 C 0.82753 0.7776 0.63684 0.0
C1324 C 0.8776 0.77027 0.62889 0.0
C1325 C 0.85441 0.81685 0.62526 0.0
C1326 C 0.84662 0.82785 0.61173 0.0
C1327 C 0.85024 0.85588 0.60839 0.0
C1328 C 0.86278 0.87301 0.61902 0.0
C1329 C 0.87212 0.86187 0.63268 0.0
C1330 C 0.86722 0.83358 0.63593 0.0
H1331 H 0.99297 0.06988 0.35926 0.0
H1332 H 0.9504 0.08617 0.31785 0.0
H1333 H 0.90532 0.08438 0.33087 0.0
H1334 H 0.9356 0.02731 0.37806 0.0
H1335 H 0.94289 0.04392 0.39555 0.0
H1336 H 0.9706 0.03765 0.38253 0.0
H1337 H 0.98346 0.08998 0.38314 0.0
H1338 H 0.95599 0.09633 0.39609 0.0
H1339 H 0.95717 0.11547 0.37892 0.0
H1340 H 0.86654 0.08991 0.34864 0.0
H1341 H 0.83874 0.10793 0.36943 0.0
H1342 H 0.90683 0.09081 0.39954 0.0
C1343 C 0.97406 0.07183 0.35284 0.0
C1344 C 0.97502 0.07776 0.33755 0.0
C1345 C 0.95 0.08137 0.32958 0.0
C1346 C 0.92432 0.08012 0.33686 0.0
C1347 C 0.92408 0.07535 0.35211 0.0
C1348 C 0.94838 0.07131 0.36002 0.0
C1349 C 0.94323 0.07219 0.37656 0.0
C1350 C 0.94838 0.04356 0.38358 0.0
C1351 C 0.96099 0.09484 0.3841 0.0
C1352 C 0.91268 0.07941 0.37672 0.0
C1353 C 0.90171 0.07991 0.36255 0.0
C1354 C 0.8747 0.08901 0.3598 0.0
C1355 C 0.85903 0.09919 0.37171 0.0
C1356 C 0.87074 0.10085 0.38607 0.0
C1357 C 0.89733 0.08956 0.38868 0.0
H1358 H 0.64046 0.17092 0.15195 0.0
H1359 H 0.62902 0.10136 0.12197 0.0
H1360 H 0.65172 0.12788 0.10204 0.0
H1361 H 0.62257 0.22101 0.12886 0.0
H1362 H 0.6477 0.24678 0.1344 0.0
H1363 H 0.63728 0.22031 0.14724 0.0
H1364 H 0.68854 0.2053 0.15067 0.0
H1365 H 0.69925 0.23204 0.13787 0.0
H1366 H 0.70914 0.19641 0.13468 0.0
H1367 H 0.66264 0.1654 0.08421 0.0
H1368 H 0.6664 0.20982 0.07051 0.0
H1369 H 0.67519 0.25416 0.11197 0.0
C1370 C 0.64375 0.1609 0.14136 0.0
C1371 C 0.63295 0.13415 0.1385 0.0
C1372 C 0.63733 0.12176 0.12446 0.0
C1373 C 0.65024 0.13667 0.11305 0.0
C1374 C 0.65933 0.16361 0.11598 0.0
C1375 C 0.65699 0.17536 0.12992 0.0
C1376 C 0.66549 0.20566 0.12976 0.0
C1377 C 0.64185 0.22452 0.13538 0.0
C1378 C 0.6922 0.2101 0.13878 0.0
C1379 C 0.67074 0.20969 0.11337 0.0
C1380 C 0.66744 0.18509 0.10561 0.0
C1381 C 0.66652 0.18454 0.09015 0.0
C1382 C 0.66853 0.20979 0.08246 0.0
C1383 C 0.67189 0.23501 0.09026 0.0
C1384 C 0.67385 0.23486 0.10583 0.0
H1385 H 0.61378 0.86075 0.86746 0.0
H1386 H 0.59542 0.917 0.90353 0.0
H1387 H 0.55977 0.94026 0.88809 0.0
H1388 H 0.59627 0.90923 0.83534 0.0
H1389 H 0.58034 0.88111 0.82523 0.0
H1390 H 0.60939 0.87433 0.83732 0.0
H1391 H 0.58014 0.8375 0.85133 0.0
H1392 H 0.55108 0.84429 0.83941 0.0
H1393 H 0.5472 0.84743 0.85921 0.0
H1394 H 0.52179 0.95211 0.87055 0.0
H1395 H 0.48195 0.94927 0.85352 0.0
H1396 H 0.52275 0.88261 0.8295 0.0
C1397 C 0.60311 0.87887 0.87175 0.0
C1398 C 0.60772 0.88791 0.88637 0.0
C1399 C 0.5925 0.91051 0.89214 0.0
C1400 C 0.57234 0.92379 0.88344 0.0
C1401 C 0.56755 0.91385 0.86913 0.0
C1402 C 0.58249 0.89182 0.86332 0.0
C1403 C 0.57011 0.88181 0.84885 0.0
C1404 C 0.59023 0.88694 0.83592 0.0
C1405 C 0.56162 0.85095 0.84977 0.0
C1406 C 0.54503 0.90063 0.84781 0.0
C1407 C 0.54447 0.91958 0.85932 0.0
C1408 C 0.52224 0.9377 0.86134 0.0
C1409 C 0.49966 0.93588 0.8516 0.0
C1410 C 0.4992 0.91564 0.84019 0.0
C1411 C 0.52257 0.89839 0.83805 0.0
H1412 H 0.91515 0.12226 0.86229 0.0
H1413 H 0.90197 0.15706 0.81853 0.0
H1414 H 0.87103 0.19281 0.82922 0.0
H1415 H 0.8457 0.13786 0.87817 0.0
H1416 H 0.86012 0.14735 0.8959 0.0
H1417 H 0.87721 0.12162 0.8846 0.0
H1418 H 0.92282 0.15026 0.88556 0.0
H1419 H 0.90593 0.17588 0.89691 0.0
H1420 H 0.92239 0.18617 0.87982 0.0
H1421 H 0.84438 0.22627 0.84465 0.0
H1422 H 0.82959 0.25943 0.86389 0.0
H1423 H 0.86305 0.20497 0.89786 0.0
C1424 C 0.90521 0.13709 0.85497 0.0
C1425 C 0.91053 0.1369 0.83961 0.0
C1426 C 0.89798 0.15698 0.83034 0.0
C1427 C 0.8802 0.17712 0.83629 0.0
C1428 C 0.87553 0.17698 0.85152 0.0
C1429 C 0.88798 0.15774 0.86078 0.0
C1430 C 0.88265 0.16445 0.87691 0.0
C1431 C 0.86539 0.14145 0.88433 0.0
C1432 C 0.91007 0.1695 0.88528 0.0
C1433 C 0.86601 0.19095 0.87528 0.0
C1434 C 0.86139 0.1973 0.86055 0.0
C1435 C 0.84764 0.22143 0.85623 0.0
C1436 C 0.83925 0.2401 0.86725 0.0
C1437 C 0.84525 0.23478 0.88236 0.0
C1438 C 0.85809 0.20951 0.88641 0.0
H1439 H 0.60882 0.13512 0.59886 0.0
H1440 H 0.58276 0.2212 0.59529 0.0
H1441 H 0.54368 0.21196 0.61226 0.0
H1442 H 0.53874 0.10712 0.59847 0.0
H1443 H 0.54663 0.07933 0.6112 0.0
H1444 H 0.57336 0.09294 0.59927 0.0
H1445 H 0.60418 0.10288 0.62222 0.0
H1446 H 0.57741 0.08956 0.63424 0.0
H1447 H 0.59076 0.12418 0.63702 0.0
H1448 H 0.5096 0.19452 0.6305 0.0
H1449 H 0.4769 0.16792 0.646 0.0
H1450 H 0.52151 0.09184 0.6359 0.0
C1451 C 0.59475 0.15188 0.60166 0.0
C1452 C 0.59864 0.17884 0.59589 0.0
C1453 C 0.57985 0.20036 0.59958 0.0
C1454 C 0.5578 0.19538 0.60927 0.0
C1455 C 0.55458 0.16866 0.6149 0.0
C1456 C 0.57206 0.14708 0.611 0.0
C1457 C 0.56276 0.11997 0.61797 0.0
C1458 C 0.5549 0.09858 0.60601 0.0
C1459 C 0.58511 0.10848 0.62849 0.0
C1460 C 0.53747 0.12983 0.62644 0.0
C1461 C 0.53356 0.1581 0.62474 0.0
C1462 C 0.51222 0.17231 0.63183 0.0
C1463 C 0.4939 0.15708 0.64067 0.0
C1464 C 0.49675 0.12791 0.64205 0.0
C1465 C 0.51889 0.11413 0.63492 0.0
H1466 H 0.63641 0.7362 0.37308 0.0
H1467 H 0.64714 0.77704 0.41548 0.0
H1468 H 0.64283 0.82288 0.40329 0.0
H1469 H 0.66954 0.79102 0.3491 0.0
H1470 H 0.64371 0.7866 0.33483 0.0
H1471 H 0.65379 0.75746 0.34619 0.0
H1472 H 0.60232 0.74969 0.35353 0.0
H1473 H 0.59216 0.77873 0.34225 0.0
H1474 H 0.58297 0.77796 0.36161 0.0
H1475 H 0.63215 0.86345 0.38727 0.0
H1476 H 0.61134 0.89571 0.36923 0.0
H1477 H 0.60415 0.82831 0.33743 0.0
C1478 C 0.63884 0.7549 0.37965 0.0
C1479 C 0.64267 0.75336 0.39511 0.0
C1480 C 0.64455 0.77802 0.40357 0.0
C1481 C 0.64229 0.80406 0.39673 0.0
C1482 C 0.63782 0.80497 0.38148 0.0
C1483 C 0.6359 0.78103 0.37303 0.0
C1484 C 0.62683 0.78753 0.35733 0.0
C1485 C 0.64985 0.78022 0.3462 0.0
C1486 C 0.59945 0.77261 0.35347 0.0
C1487 C 0.62287 0.81868 0.35845 0.0
C1488 C 0.63013 0.82841 0.37233 0.0
C1489 C 0.62672 0.85617 0.3763 0.0
C1490 C 0.61485 0.87434 0.36596 0.0
C1491 C 0.60601 0.86453 0.35192 0.0
C1492 C 0.6108 0.83648 0.34804 0.0
H1493 H 0.99078 0.8522 0.13513 0.0
H1494 H 0.96657 0.9383 0.14051 0.0
H1495 H 0.9257 0.93026 0.12415 0.0
H1496 H 0.97195 0.84745 0.09608 0.0
H1497 H 0.96071 0.81185 0.09777 0.0
H1498 H 0.98776 0.82497 0.10966 0.0
H1499 H 0.95949 0.80994 0.13279 0.0
H1500 H 0.93241 0.79677 0.12099 0.0
H1501 H 0.92437 0.82221 0.13501 0.0
H1502 H 0.8848 0.91038 0.10921 0.0
H1503 H 0.85073 0.88219 0.09498 0.0
H1504 H 0.90579 0.8111 0.09777 0.0
C1505 C 0.97688 0.86937 0.13279 0.0
C1506 C 0.98134 0.89573 0.13911 0.0
C1507 C 0.96321 0.91794 0.13572 0.0
C1508 C 0.94005 0.91352 0.12649 0.0
C1509 C 0.93605 0.88703 0.12052 0.0
C1510 C 0.95436 0.86552 0.12334 0.0
C1511 C 0.94593 0.83909 0.11555 0.0
C1512 C 0.96789 0.83034 0.10408 0.0
C1513 C 0.9402 0.81564 0.12675 0.0
C1514 C 0.91958 0.84877 0.10813 0.0
C1515 C 0.91393 0.87636 0.11119 0.0
C1516 C 0.88934 0.88895 0.10648 0.0
C1517 C 0.87012 0.87284 0.09846 0.0
C1518 C 0.87598 0.84473 0.09507 0.0
C1519 C 0.90114 0.83279 0.09986 0.0
H1520 H 0.63715 0.77833 0.86988 0.0
H1521 H 0.68411 0.74201 0.90591 0.0
H1522 H 0.68391 0.69649 0.89299 0.0
H1523 H 0.5925 0.72404 0.86479 0.0
H1524 H 0.59046 0.72647 0.84489 0.0
H1525 H 0.5987 0.75678 0.85564 0.0
H1526 H 0.64396 0.76351 0.8405 0.0
H1527 H 0.63584 0.73304 0.82969 0.0
H1528 H 0.66863 0.73543 0.83925 0.0
H1529 H 0.67282 0.65425 0.87799 0.0
H1530 H 0.65041 0.61815 0.8627 0.0
H1531 H 0.61107 0.6824 0.8362 0.0
C1532 C 0.64803 0.76087 0.87476 0.0
C1533 C 0.66096 0.76331 0.88867 0.0
C1534 C 0.67445 0.74024 0.8951 0.0
C1535 C 0.67452 0.71448 0.88783 0.0
C1536 C 0.6612 0.71248 0.87413 0.0
C1537 C 0.64833 0.73512 0.86762 0.0
C1538 C 0.63296 0.7269 0.85367 0.0
C1539 C 0.60182 0.73395 0.85483 0.0
C1540 C 0.64615 0.74053 0.83997 0.0
C1541 C 0.63791 0.69586 0.85378 0.0
C1542 C 0.65473 0.68801 0.86547 0.0
C1543 C 0.66008 0.66017 0.86862 0.0
C1544 C 0.64721 0.6398 0.85988 0.0
C1545 C 0.62901 0.64743 0.84823 0.0
C1546 C 0.62516 0.67585 0.84488 0.0
H1547 H 0.57853 0.35721 0.08678 0.0
H1548 H 0.65042 0.36301 0.11567 0.0
H1549 H 0.62169 0.38603 0.13468 0.0
H1550 H 0.54647 0.42477 0.09834 0.0
H1551 H 0.51187 0.41067 0.09699 0.0
H1552 H 0.5389 0.39804 0.08493 0.0
H1553 H 0.52934 0.34773 0.09383 0.0
H1554 H 0.50247 0.36015 0.10596 0.0
H1555 H 0.53078 0.33995 0.11336 0.0
H1556 H 0.58402 0.40035 0.15191 0.0
H1557 H 0.5403 0.40922 0.16549 0.0
H1558 H 0.49349 0.39768 0.12493 0.0
C1559 C 0.58835 0.36388 0.09698 0.0
C1560 C 0.61665 0.3583 0.09979 0.0
C1561 C 0.62879 0.36724 0.11327 0.0
C1562 C 0.61266 0.38034 0.12412 0.0
C1563 C 0.58463 0.38485 0.12117 0.0
C1564 C 0.57267 0.37737 0.10782 0.0
C1565 C 0.54175 0.383 0.10778 0.0
C1566 C 0.53432 0.40547 0.09633 0.0
C1567 C 0.52512 0.35611 0.10508 0.0
C1568 C 0.53798 0.39359 0.12343 0.0
C1569 C 0.563 0.39458 0.13095 0.0
C1570 C 0.56441 0.40052 0.14604 0.0
C1571 C 0.53957 0.40538 0.15366 0.0
C1572 C 0.51385 0.40464 0.14611 0.0
C1573 C 0.51308 0.39921 0.13078 0.0
H1574 H 0.88951 0.22669 0.39162 0.0
H1575 H 0.80066 0.24104 0.3941 0.0
H1576 H 0.80622 0.28397 0.37927 0.0
H1577 H 0.91161 0.29808 0.39356 0.0
H1578 H 0.93934 0.2934 0.38039 0.0
H1579 H 0.92827 0.2647 0.39176 0.0
H1580 H 0.91975 0.23524 0.36813 0.0
H1581 H 0.93047 0.26396 0.35667 0.0
H1582 H 0.89688 0.24824 0.35391 0.0
H1583 H 0.82185 0.32588 0.36491 0.0
H1584 H 0.8462 0.36308 0.35112 0.0
H1585 H 0.92406 0.31881 0.35629 0.0
C1586 C 0.87128 0.23908 0.38921 0.0
C1587 C 0.8447 0.23087 0.39412 0.0
C1588 C 0.82122 0.24717 0.39047 0.0
C1589 C 0.82417 0.27149 0.38206 0.0
C1590 C 0.85066 0.27881 0.37722 0.0
C1591 C 0.87377 0.263 0.38058 0.0
C1592 C 0.89976 0.27485 0.3736 0.0
C1593 C 0.92099 0.28326 0.38554 0.0
C1594 C 0.91245 0.25435 0.36241 0.0
C1595 C 0.8877 0.29999 0.36589 0.0
C1596 C 0.85939 0.30204 0.36821 0.0
C1597 C 0.84393 0.32435 0.36285 0.0
C1598 C 0.85789 0.3453 0.35505 0.0
C1599 C 0.88683 0.34344 0.3525 0.0
C1600 C 0.9018 0.32033 0.35781 0.0
H1601 H 0.92959 0.66733 0.58998 0.0
H1602 H 0.87265 0.59756 0.59181 0.0
H1603 H 0.90659 0.5713 0.60699 0.0
H1604 H 0.99525 0.6281 0.58993 0.0
H1605 H 0.01202 0.65288 0.60195 0.0
H1606 H 0.98519 0.66417 0.58939 0.0
H1607 H 0.95778 0.68525 0.61141 0.0
H1608 H 0.98445 0.67404 0.624 0.0
H1609 H 0.94896 0.6635 0.62699 0.0
H1610 H 0.94609 0.55375 0.62301 0.0
H1611 H 0.98495 0.54876 0.64094 0.0
H1612 H 0.01305 0.63185 0.6301 0.0
C1613 C 0.92456 0.64627 0.59329 0.0
C1614 C 0.8988 0.63422 0.58961 0.0
C1615 C 0.89244 0.60701 0.59451 0.0
C1616 C 0.91163 0.59192 0.60302 0.0
C1617 C 0.9368 0.60457 0.60663 0.0
C1618 C 0.94311 0.63128 0.60204 0.0
C1619 C 0.96989 0.64154 0.60882 0.0
C1620 C 0.99189 0.64698 0.5968 0.0
C1621 C 0.96495 0.66761 0.61837 0.0
C1622 C 0.97742 0.61668 0.61821 0.0
C1623 C 0.95855 0.59523 0.61651 0.0
C1624 C 0.96105 0.57035 0.62437 0.0
C1625 C 0.98309 0.56764 0.63447 0.0
C1626 C 0.00162 0.58998 0.63678 0.0
C1627 C -0.00102 0.61454 0.62843 0.0
H1628 H 0.66627 0.25719 0.61215 0.0
H1629 H 0.6764 0.30866 0.57311 0.0
H1630 H 0.66572 0.35043 0.58806 0.0
H1631 H 0.60742 0.28758 0.62306 0.0
H1632 H 0.61294 0.28518 0.64278 0.0
H1633 H 0.62935 0.26069 0.63059 0.0
H1634 H 0.67771 0.27377 0.64107 0.0
H1635 H 0.66142 0.29803 0.65358 0.0
H1636 H 0.6885 0.30966 0.64125 0.0
H1637 H 0.64676 0.38467 0.60586 0.0
H1638 H 0.61878 0.40898 0.62455 0.0
H1639 H 0.61676 0.33427 0.65154 0.0
C1640 C 0.66767 0.27743 0.60694 0.0
C1641 C 0.67289 0.27997 0.59161 0.0
C1642 C 0.67301 0.30652 0.58492 0.0
C1643 C 0.66702 0.33027 0.59334 0.0
C1644 C 0.66062 0.3269 0.60832 0.0
C1645 C 0.66088 0.3011 0.61507 0.0
C1646 C 0.64836 0.30222 0.63046 0.0
C1647 C 0.62303 0.28278 0.63178 0.0
C1648 C 0.67031 0.29553 0.64229 0.0
C1649 C 0.63987 0.33243 0.63108 0.0
C1650 C 0.64791 0.34645 0.61839 0.0
C1651 C 0.64085 0.37408 0.61596 0.0
C1652 C 0.62492 0.38769 0.62667 0.0
C1653 C 0.61576 0.37353 0.63957 0.0
C1654 C 0.62364 0.34564 0.64185 0.0
H1655 H 0.97888 0.38786 0.84316 0.0
H1656 H 0.04064 0.4034 0.87714 0.0
H1657 H 0.00532 0.39496 0.89652 0.0
H1658 H 0.91876 0.41923 0.86414 0.0
H1659 H 0.89517 0.39347 0.85692 0.0
H1660 H 0.92424 0.40491 0.84591 0.0
H1661 H 0.9406 0.35381 0.84317 0.0
H1662 H 0.91176 0.34227 0.85418 0.0
H1663 H 0.94667 0.33332 0.85959 0.0
H1664 H 0.96623 0.37546 0.91167 0.0
H1665 H 0.92488 0.35102 0.92152 0.0
H1666 H 0.88756 0.35261 0.8778 0.0
C1667 C 0.98472 0.39021 0.85469 0.0
C1668 C 0.01234 0.39622 0.85872 0.0
C1669 C 0.01944 0.39903 0.87387 0.0
C1670 C -0.00045 0.39428 0.88493 0.0
C1671 C 0.97259 0.38754 0.88059 0.0
C1672 C 0.96501 0.38618 0.86582 0.0
C1673 C 0.93527 0.37673 0.86403 0.0
C1674 C 0.9173 0.39998 0.85736 0.0
C1675 C 0.9335 0.34995 0.8547 0.0
C1676 C 0.92777 0.37146 0.88004 0.0
C1677 C 0.94948 0.37792 0.88947 0.0
C1678 C 0.94871 0.37122 0.9045 0.0
C1679 C 0.92527 0.35727 0.90998 0.0
C1680 C 0.90292 0.35055 0.90045 0.0
C1681 C 0.90397 0.35839 0.88542 0.0
H1682 H 0.8359 0.69564 0.09067 0.0
H1683 H 0.80345 0.75382 0.12304 0.0
H1684 H 0.81657 0.72168 0.14316 0.0
H1685 H 0.81684 0.62998 0.11214 0.0
H1686 H 0.84814 0.61298 0.10601 0.0
H1687 H 0.8311 0.63785 0.09415 0.0
H1688 H 0.87701 0.66569 0.09222 0.0
H1689 H 0.89406 0.64135 0.10426 0.0
H1690 H 0.89367 0.67778 0.10892 0.0
H1691 H 0.84308 0.68934 0.15949 0.0
H1692 H 0.87467 0.65499 0.17099 0.0
H1693 H 0.88681 0.61574 0.12826 0.0
C1694 C 0.83055 0.70109 0.10196 0.0
C1695 C 0.81865 0.72716 0.10532 0.0
C1696 C 0.81226 0.7338 0.12021 0.0
C1697 C 0.81975 0.71571 0.13172 0.0
C1698 C 0.83289 0.69081 0.12809 0.0
C1699 C 0.83748 0.68307 0.11354 0.0
C1700 C 0.85401 0.65635 0.11264 0.0
C1701 C 0.83647 0.6329 0.10583 0.0
C1702 C 0.88129 0.66057 0.104 0.0
C1703 C 0.85942 0.65116 0.12891 0.0
C1704 C 0.847 0.67124 0.13766 0.0
C1705 C 0.85209 0.67294 0.15284 0.0
C1706 C 0.8702 0.65356 0.15925 0.0
C1707 C 0.88267 0.63261 0.1505 0.0
C1708 C 0.87686 0.63115 0.13521 0.0
H1709 H 0.5919 0.63228 0.37815 0.0
H1710 H 0.55241 0.62898 0.42129 0.0
H1711 H 0.51281 0.60333 0.41036 0.0
H1712 H 0.53317 0.64969 0.35938 0.0
H1713 H 0.54123 0.63063 0.34273 0.0
H1714 H 0.56879 0.64268 0.35448 0.0
H1715 H 0.58757 0.59229 0.35663 0.0
H1716 H 0.5598 0.58005 0.34491 0.0
H1717 H 0.56489 0.56495 0.36299 0.0
H1718 H 0.47546 0.58296 0.39428 0.0
H1719 H 0.44103 0.57625 0.37425 0.0
H1720 H 0.50389 0.59624 0.3416 0.0
C1721 C 0.57531 0.62538 0.38538 0.0
C1722 C 0.57529 0.63217 0.40057 0.0
C1723 C 0.55281 0.62374 0.40962 0.0
C1724 C 0.53041 0.60896 0.40353 0.0
C1725 C 0.53082 0.603 0.3884 0.0
C1726 C 0.55262 0.61123 0.37943 0.0
C1727 C 0.54621 0.60653 0.36323 0.0
C1728 C 0.5474 0.63401 0.35445 0.0
C1729 C 0.56578 0.58465 0.35655 0.0
C1730 C 0.5169 0.59554 0.36441 0.0
C1731 C 0.50871 0.59265 0.37902 0.0
C1732 C 0.48177 0.58471 0.38281 0.0
C1733 C 0.46239 0.58081 0.37138 0.0
C1734 C 0.47002 0.58562 0.35646 0.0
C1735 C 0.49777 0.59212 0.35294 0.0
H1736 H 0.38121 0.36923 0.13518 0.0
H1737 H 0.38768 0.32802 0.17776 0.0
H1738 H 0.35697 0.29045 0.16863 0.0
H1739 H 0.30842 0.34688 0.12568 0.0
H1740 H 0.31777 0.34229 0.1065 0.0
H1741 H 0.33465 0.36872 0.11745 0.0
H1742 H 0.38269 0.3478 0.11078 0.0
H1743 H 0.36602 0.32152 0.09984 0.0
H1744 H 0.3893 0.31159 0.11457 0.0
H1745 H 0.33099 0.25471 0.15383 0.0
H1746 H 0.31778 0.22161 0.13411 0.0
H1747 H 0.33046 0.28578 0.10109 0.0
C1748 C 0.37537 0.35288 0.14279 0.0
C1749 C 0.38644 0.35174 0.15723 0.0
C1750 C 0.37924 0.32934 0.16666 0.0
C1751 C 0.3616 0.30809 0.16162 0.0
C1752 C 0.35142 0.30963 0.14715 0.0
C1753 C 0.35821 0.33145 0.13787 0.0
C1754 C 0.34854 0.3263 0.12218 0.0
C1755 C 0.326 0.34729 0.11769 0.0
C1756 C 0.3731 0.32681 0.11121 0.0
C1757 C 0.33657 0.29745 0.12386 0.0
C1758 C 0.33745 0.28855 0.13843 0.0
C1759 C 0.32972 0.26163 0.14243 0.0
C1760 C 0.32214 0.243 0.13117 0.0
C1761 C 0.32309 0.25129 0.11613 0.0
C1762 C 0.32931 0.2791 0.11254 0.0
H1763 H 0.51014 0.63935 0.85794 0.0
H1764 H 0.49667 0.55045 0.85521 0.0
H1765 H 0.45434 0.55523 0.87081 0.0
H1766 H 0.49033 0.64542 0.8964 0.0
H1767 H 0.47488 0.67922 0.89391 0.0
H1768 H 0.50325 0.66848 0.88224 0.0
H1769 H 0.47329 0.67792 0.85887 0.0
H1770 H 0.44485 0.6887 0.87045 0.0
H1771 H 0.43989 0.6613 0.85709 0.0
H1772 H 0.41123 0.57131 0.88504 0.0
H1773 H 0.37465 0.59617 0.89926 0.0
H1774 H 0.42083 0.67304 0.89468 0.0
C1775 C 0.49817 0.62093 0.86061 0.0
C1776 C 0.50609 0.59463 0.85531 0.0
C1777 C 0.49055 0.57078 0.8592 0.0
C1778 C 0.46659 0.57334 0.86799 0.0
C1779 C 0.45918 0.59975 0.87301 0.0
C1780 C 0.4749 0.62301 0.86968 0.0
C1781 C 0.4634 0.64887 0.87686 0.0
C1782 C 0.4842 0.66121 0.88801 0.0
C1783 C 0.45484 0.67046 0.86512 0.0
C1784 C 0.43844 0.63671 0.88459 0.0
C1785 C 0.43599 0.60845 0.8821 0.0
C1786 C 0.41326 0.59331 0.88731 0.0
C1787 C 0.39263 0.6075 0.89531 0.0
C1788 C 0.39545 0.63623 0.89826 0.0
C1789 C 0.41866 0.65086 0.89289 0.0
H1790 H 0.14772 0.72172 0.59796 0.0
H1791 H 0.18348 0.77462 0.63189 0.0
H1792 H 0.17778 0.73698 0.65026 0.0
H1793 H 0.09653 0.69328 0.6186 0.0
H1794 H 0.09844 0.65868 0.61101 0.0
H1795 H 0.10972 0.68781 0.60013 0.0
H1796 H 0.15798 0.66483 0.59669 0.0
H1797 H 0.1468 0.63549 0.60761 0.0
H1798 H 0.17768 0.65438 0.61275 0.0
H1799 H 0.15855 0.69845 0.66563 0.0
H1800 H 0.13109 0.65985 0.67638 0.0
H1801 H 0.11253 0.6297 0.63229 0.0
C1802 C 0.15502 0.72507 0.60917 0.0
C1803 C 0.16594 0.751 0.61356 0.0
C1804 C 0.17521 0.75478 0.62831 0.0
C1805 C 0.1721 0.73352 0.6388 0.0
C1806 C 0.16046 0.70842 0.63423 0.0
C1807 C 0.15264 0.70387 0.61968 0.0
C1808 C 0.13868 0.67591 0.61784 0.0
C1809 C 0.1091 0.67914 0.61154 0.0
C1810 C 0.15635 0.65651 0.60815 0.0
C1811 C 0.13826 0.6662 0.63378 0.0
C1812 C 0.15109 0.68515 0.64307 0.0
C1813 C 0.14944 0.68287 0.65846 0.0
C1814 C 0.13383 0.661 0.66448 0.0
C1815 C 0.12062 0.64156 0.6551 0.0
C1816 C 0.12356 0.64371 0.63962 0.0
H1817 H 0.11498 0.38053 0.38626 0.0
H1818 H 0.07277 0.38489 0.42855 0.0
H1819 H 0.03509 0.41227 0.41697 0.0
H1820 H 0.08774 0.44859 0.3693 0.0
H1821 H 0.0839 0.43175 0.35158 0.0
H1822 H 0.11165 0.42162 0.36388 0.0
H1823 H 0.0948 0.37053 0.36254 0.0
H1824 H 0.06697 0.38044 0.35046 0.0
H1825 H 0.05944 0.36242 0.36752 0.0
H1826 H -0.00154 0.43045 0.40029 0.0
H1827 H 0.96411 0.43297 0.38012 0.0
H1828 H 0.02823 0.41221 0.34825 0.0
C1829 C 0.09855 0.38861 0.39322 0.0
C1830 C 0.097 0.38135 0.40833 0.0
C1831 C 0.07447 0.39081 0.417 0.0
C1832 C 0.0531 0.40646 0.41052 0.0
C1833 C 0.05449 0.41209 0.39535 0.0
C1834 C 0.07669 0.40335 0.3868 0.0
C1835 C 0.07062 0.40637 0.37041 0.0
C1836 C 0.0896 0.4284 0.36338 0.0
C1837 C 0.07308 0.37828 0.36228 0.0
C1838 C 0.04088 0.41636 0.37104 0.0
C1839 C 0.03239 0.42076 0.3855 0.0
C1840 C 0.00503 0.42762 0.38893 0.0
C1841 C 0.98564 0.42898 0.37737 0.0
C1842 C 0.99357 0.42269 0.36263 0.0
C1843 C 0.02171 0.41729 0.35941 0.0
H1844 H 0.38308 0.64498 0.36826 0.0
H1845 H 0.32158 0.6537 0.33361 0.0
H1846 H 0.29719 0.68964 0.34854 0.0
H1847 H 0.33574 0.65875 0.40057 0.0
H1848 H 0.36257 0.67768 0.41019 0.0
H1849 H 0.37167 0.64936 0.39805 0.0
H1850 H 0.40431 0.68215 0.38332 0.0
H1851 H 0.39527 0.71047 0.39534 0.0
H1852 H 0.39053 0.71385 0.3756 0.0
H1853 H 0.2838 0.7288 0.36578 0.0
H1854 H 0.28331 0.76857 0.38309 0.0
H1855 H 0.35429 0.73375 0.40622 0.0
C1856 C 0.36394 0.6539 0.3641 0.0
C1857 C 0.35371 0.64658 0.35005 0.0
C1858 C 0.32923 0.65897 0.34455 0.0
C1859 C 0.31532 0.67925 0.35295 0.0
C1860 C 0.32627 0.68654 0.36676 0.0
C1861 C 0.34997 0.67405 0.37232 0.0
C1862 C 0.35943 0.68754 0.38657 0.0
C1863 C 0.35721 0.66711 0.39962 0.0
C1864 C 0.38912 0.6992 0.3851 0.0
C1865 C 0.33818 0.71049 0.38784 0.0
C1866 C 0.31884 0.70927 0.37653 0.0
C1867 C 0.29852 0.72966 0.37483 0.0
C1868 C 0.29842 0.75218 0.38472 0.0
C1869 C 0.31878 0.75428 0.39602 0.0
C1870 C 0.33834 0.73269 0.39778 0.0
H1871 H 0.07646 0.61713 0.08945 0.0
H1872 H 0.14705 0.60924 0.11904 0.0
H1873 H 0.11788 0.5837 0.13688 0.0
H1874 H 0.02921 0.6331 0.11465 0.0
H1875 H 0.00043 0.61375 0.10711 0.0
H1876 H 0.02792 0.62509 0.09514 0.0
H1877 H 0.03628 0.57443 0.08651 0.0
H1878 H 0.00844 0.56284 0.09837 0.0
H1879 H 0.04249 0.54762 0.10007 0.0
H1880 H 0.07934 0.57121 0.15379 0.0
H1881 H 0.03489 0.56741 0.1674 0.0
H1882 H 0.98961 0.57941 0.12647 0.0
C1883 C 0.08601 0.60909 0.09944 0.0
C1884 C 0.11393 0.61524 0.10291 0.0
C1885 C 0.12572 0.60463 0.11612 0.0
C1886 C 0.10931 0.59006 0.12632 0.0
C1887 C 0.08141 0.58564 0.12293 0.0
C1888 C 0.07001 0.59417 0.10962 0.0
C1889 C 0.03891 0.58962 0.10933 0.0
C1890 C 0.02323 0.61702 0.1064 0.0
C1891 C 0.03107 0.56729 0.09789 0.0
C1892 C 0.03429 0.57926 0.12496 0.0
C1893 C 0.05913 0.57676 0.13258 0.0
C1894 C 0.05986 0.57191 0.14782 0.0
C1895 C 0.03462 0.56993 0.15547 0.0
C1896 C 0.00916 0.57239 0.14781 0.0
C1897 C 0.00897 0.57636 0.13236 0.0
H1898 H 0.13079 0.22452 0.88105 0.0
H1899 H 0.20659 0.25677 0.90035 0.0
H1900 H 0.20446 0.29742 0.88337 0.0
H1901 H 0.14689 0.24697 0.84261 0.0
H1902 H 0.11092 0.25428 0.83869 0.0
H1903 H 0.11995 0.2271 0.85157 0.0
H1904 H 0.08953 0.25037 0.8718 0.0
H1905 H 0.08025 0.27734 0.85897 0.0
H1906 H 0.09562 0.28626 0.87656 0.0
H1907 H 0.18958 0.33739 0.86672 0.0
H1908 H 0.16473 0.37187 0.85125 0.0
H1909 H 0.10168 0.31014 0.84132 0.0
C1910 C 0.14702 0.2401 0.88159 0.0
C1911 C 0.16861 0.23804 0.89203 0.0
C1912 C 0.18983 0.25833 0.89239 0.0
C1913 C 0.18883 0.28129 0.88277 0.0
C1914 C 0.16699 0.2829 0.87262 0.0
C1915 C 0.14678 0.26251 0.87182 0.0
C1916 C 0.12504 0.26926 0.86033 0.0
C1917 C 0.12576 0.24815 0.84754 0.0
C1918 C 0.09591 0.27092 0.86734 0.0
C1919 C 0.13522 0.29742 0.85534 0.0
C1920 C 0.15954 0.30495 0.86243 0.0
C1921 C 0.17096 0.33144 0.8608 0.0
C1922 C 0.15671 0.35088 0.85201 0.0
C1923 C 0.13147 0.34357 0.84494 0.0
C1924 C 0.12127 0.3162 0.84626 0.0
H1925 H 0.38063 0.36013 0.61937 0.0
H1926 H 0.40913 0.3894 0.57665 0.0
H1927 H 0.44318 0.42022 0.58906 0.0
H1928 H 0.39477 0.42515 0.64174 0.0
H1929 H 0.40735 0.40498 0.65718 0.0
H1930 H 0.38053 0.39114 0.64533 0.0
H1931 H 0.41057 0.34736 0.64043 0.0
H1932 H 0.43726 0.36098 0.65226 0.0
H1933 H 0.44539 0.35153 0.63342 0.0
H1934 H 0.47773 0.44286 0.60574 0.0
H1935 H 0.51432 0.44979 0.62456 0.0
H1936 H 0.46595 0.40231 0.65622 0.0
C1937 C 0.39336 0.37392 0.61274 0.0
C1938 C 0.39201 0.37318 0.59716 0.0
C1939 C 0.40974 0.39026 0.58864 0.0
C1940 C 0.42892 0.4079 0.5956 0.0
C1941 C 0.43029 0.40778 0.61105 0.0
C1942 C 0.41316 0.39096 0.61951 0.0
C1943 C 0.42215 0.3906 0.63558 0.0
C1944 C 0.39987 0.40376 0.64554 0.0
C1945 C 0.42928 0.36087 0.6407 0.0
C1946 C 0.44774 0.40878 0.63472 0.0
C1947 C 0.45147 0.41938 0.62061 0.0
C1948 C 0.47482 0.43506 0.61688 0.0
C1949 C 0.49544 0.43899 0.62765 0.0
C1950 C 0.49284 0.4266 0.64181 0.0
C1951 C 0.46826 0.41221 0.6455 0.0
H1952 H 0.1225 0.95895 0.35076 0.0
H1953 H 0.13415 0.0321 0.37815 0.0
H1954 H 0.16965 0.00704 0.39283 0.0
H1955 H 0.12794 0.90922 0.37956 0.0
H1956 H 0.14618 0.88402 0.36844 0.0
H1957 H 0.12279 0.90825 0.35977 0.0
H1958 H 0.16228 0.92491 0.34237 0.0
H1959 H 0.18579 0.90064 0.35095 0.0
H1960 H 0.19448 0.93706 0.35026 0.0
H1961 H 0.20199 0.97257 0.40536 0.0
H1962 H 0.22974 0.93234 0.41398 0.0
H1963 H 0.19723 0.88268 0.37784 0.0
C1964 C 0.13266 0.96976 0.3598 0.0
C1965 C 0.12597 -0.00245 0.36321 0.0
C1966 C 0.13954 0.01101 0.37513 0.0
C1967 C 0.15953 0.99687 0.38359 0.0
C1968 C 0.16564 0.96938 0.37992 0.0
C1969 C 0.15268 0.95606 0.36825 0.0
C1970 C 0.16254 0.92639 0.36664 0.0
C1971 C 0.13843 0.90576 0.36874 0.0
C1972 C 0.17715 0.92201 0.35167 0.0
C1973 C 0.18287 0.92492 0.37936 0.0
C1974 C 0.18444 0.94987 0.38691 0.0
C1975 C 0.20131 0.95311 0.39936 0.0
C1976 C 0.21718 0.93029 0.40408 0.0
C1977 C 0.21623 0.90481 0.39626 0.0
C1978 C 0.1986 0.90209 0.38388 0.0
H1979 H 0.37755 0.96736 0.63995 0.0
H1980 H 0.38781 0.00413 0.59646 0.0
H1981 H 0.35006 0.97414 0.58672 0.0
H1982 H 0.36421 0.89762 0.627 0.0
H1983 H 0.3394 0.89024 0.64143 0.0
H1984 H 0.36711 0.9146 0.64474 0.0
H1985 H 0.33108 0.95218 0.65209 0.0
H1986 H 0.30323 0.92799 0.64871 0.0
H1987 H 0.30369 0.96105 0.63931 0.0
H1988 H 0.31015 0.94115 0.58214 0.0
H1989 H 0.27376 0.90493 0.58246 0.0
H1990 H 0.29041 0.88953 0.62897 0.0
C1991 C 0.37164 0.96919 0.62841 0.0
C1992 C 0.38504 0.9882 0.61894 0.0
C1993 C 0.37754 0.9896 0.60382 0.0
C1994 C 0.35613 0.9728 0.59824 0.0
C1995 C 0.34287 0.95456 0.60795 0.0
C1996 C 0.3506 0.9524 0.62267 0.0
C1997 C 0.33362 0.93069 0.63071 0.0
C1998 C 0.3522 0.90688 0.63629 0.0
C1999 C 0.31691 0.94377 0.64345 0.0
C2000 C 0.31484 0.92118 0.61828 0.0
C2001 C 0.32037 0.93527 0.60526 0.0
C2002 C 0.30555 0.93007 0.59229 0.0
C2003 C 0.28468 0.90972 0.59262 0.0
C2004 C 0.27895 0.89492 0.60583 0.0
C2005 C 0.29431 0.90071 0.61876 0.0
H2006 H 0.29528 0.12564 0.87615 0.0
H2007 H 0.28175 0.07705 0.91597 0.0
H2008 H 0.30688 0.03748 0.90468 0.0
H2009 H 0.28714 0.07063 0.85011 0.0
H2010 H 0.31423 0.08265 0.8379 0.0
H2011 H 0.29537 0.10715 0.84914 0.0
H2012 H 0.34152 0.12499 0.86048 0.0
H2013 H 0.36055 0.10075 0.84917 0.0
H2014 H 0.36503 0.1006 0.869 0.0
H2015 H 0.33245 0.00315 0.8888 0.0
H2016 H 0.35955 0.97727 0.87017 0.0
H2017 H 0.35734 0.04874 0.84088 0.0
C2018 C 0.29784 0.10671 0.88252 0.0
C2019 C 0.28605 0.10396 0.89675 0.0
C2020 C 0.28983 0.07907 0.90483 0.0
C2021 C 0.30425 0.05665 0.89856 0.0
C2022 C 0.31494 0.05973 0.8843 0.0
C2023 C 0.31221 0.08423 0.87645 0.0
C2024 C 0.32583 0.08226 0.86137 0.0
C2025 C 0.30436 0.08588 0.8489 0.0
C2026 C 0.34965 0.1034 0.85993 0.0
C2027 C 0.33666 0.05277 0.86196 0.0
C2028 C 0.33 0.04009 0.87524 0.0
C2029 C 0.33766 0.0128 0.87833 0.0
C2030 C 0.35274 -0.00184 0.8676 0.0
C2031 C 0.3599 0.01084 0.85396 0.0
C2032 C 0.35185 0.03852 0.85117 0.0
H2033 H 0.18785 0.11517 0.10436 0.0
H2034 H 0.26334 0.0726 0.11748 0.0
H2035 H 0.23597 0.0308 0.12371 0.0
H2036 H 0.14681 0.09104 0.13303 0.0
H2037 H 0.11548 0.08735 0.12227 0.0
H2038 H 0.14129 0.1124 0.11687 0.0
H2039 H 0.14419 0.09005 0.09078 0.0
H2040 H 0.11823 0.06494 0.09608 0.0
H2041 H 0.15134 0.0534 0.08909 0.0
H2042 H 0.2 0.99648 0.13172 0.0
H2043 H 0.15832 0.97137 0.14009 0.0
H2044 H 0.10609 0.0355 0.12098 0.0
C2045 C 0.19865 0.09683 0.10826 0.0
C2046 C 0.22773 0.09686 0.11016 0.0
C2047 C 0.24118 0.07271 0.1155 0.0
C2048 C 0.22578 0.04894 0.11916 0.0
C2049 C 0.19704 0.0497 0.11731 0.0
C2050 C 0.18363 0.07295 0.11187 0.0
C2051 C 0.15243 0.06918 0.1119 0.0
C2052 C 0.13818 0.0913 0.1216 0.0
C2053 C 0.14087 0.0694 0.09601 0.0
C2054 C 0.15032 0.04057 0.11874 0.0
C2055 C 0.17628 0.02958 0.12164 0.0
C2056 C 0.17958 0.00442 0.12906 0.0
C2057 C 0.15572 0.99013 0.13363 0.0
C2058 C 0.12892 0.00088 0.13061 0.0
C2059 C 0.12631 0.02644 0.12308 0.0
H2060 H 0.86846 0.04832 0.61822 0.0
H2061 H 0.81986 0.00614 0.65188 0.0
H2062 H 0.78038 0.03754 0.64684 0.0
H2063 H 0.84524 0.11652 0.62738 0.0
H2064 H 0.84523 0.12857 0.60846 0.0
H2065 H 0.86884 0.10155 0.61408 0.0
H2066 H 0.84955 0.06937 0.59343 0.0
H2067 H 0.82588 0.09631 0.58774 0.0
H2068 H 0.81278 0.06242 0.59261 0.0
H2069 H 0.74629 0.074 0.63808 0.0
H2070 H 0.7214 0.11424 0.62721 0.0
H2071 H 0.79367 0.1335 0.60045 0.0
C2072 C 0.84942 0.04558 0.62445 0.0
C2073 C 0.84677 0.0242 0.63502 0.0
C2074 C 0.82182 0.02158 0.64322 0.0
C2075 C 0.79942 0.0395 0.64056 0.0
C2076 C 0.80258 0.06014 0.62986 0.0
C2077 C 0.82705 0.06339 0.62204 0.0
C2078 C 0.82565 0.08787 0.61159 0.0
C2079 C 0.84753 0.10993 0.61563 0.0
C2080 C 0.82863 0.07842 0.59539 0.0
C2081 C 0.79661 0.098 0.61481 0.0
C2082 C 0.78348 0.08164 0.62526 0.0
C2083 C 0.75635 0.08695 0.62987 0.0
C2084 C 0.74235 0.10966 0.6236 0.0
C2085 C 0.75568 0.1267 0.61299 0.0
C2086 C 0.78312 0.12081 0.60862 0.0
H2087 H 0.72457 0.09424 0.37526 0.0
H2088 H 0.67815 0.13914 0.40876 0.0
H2089 H 0.63655 0.11086 0.40314 0.0
H2090 H 0.66918 0.08969 0.34915 0.0
H2091 H 0.67851 0.05545 0.34276 0.0
H2092 H 0.70485 0.0784 0.34989 0.0
H2093 H 0.71935 0.04092 0.36905 0.0
H2094 H 0.693 0.01786 0.36198 0.0
H2095 H 0.6936 0.02664 0.38139 0.0
H2096 H 0.6003 0.07803 0.39382 0.0
H2097 H 0.5711 0.04349 0.38089 0.0
H2098 H 0.64083 0.02201 0.35264 0.0
C2099 C 0.70578 0.09773 0.38158 0.0
C2100 C 0.70451 0.11841 0.39261 0.0
C2101 C 0.67938 0.12319 0.40031 0.0
C2102 C 0.65577 0.10723 0.39723 0.0
C2103 C 0.65769 0.08688 0.38631 0.0
C2104 C 0.68197 0.0822 0.37853 0.0
C2105 C 0.67817 0.05987 0.36692 0.0
C2106 C 0.68295 0.07156 0.35125 0.0
C2107 C 0.69716 0.03484 0.37003 0.0
C2108 C 0.64798 0.05266 0.36944 0.0
C2109 C 0.6366 0.06836 0.38072 0.0
C2110 C 0.60898 0.06552 0.38499 0.0
C2111 C 0.59257 0.04594 0.37756 0.0
C2112 C 0.60387 0.02953 0.36602 0.0
C2113 C 0.63184 0.03329 0.36181 0.0
H2114 H 0.6252 0.94185 0.14647 0.0
H2115 H 0.64456 0.0115 0.11776 0.0
H2116 H 0.67696 0.98197 0.10353 0.0
H2117 H 0.69486 0.9138 0.14769 0.0
H2118 H 0.68338 0.87813 0.14776 0.0
H2119 H 0.66168 0.90481 0.15562 0.0
H2120 H 0.62134 0.8899 0.13832 0.0
H2121 H 0.64296 0.86326 0.13036 0.0
H2122 H 0.62691 0.88889 0.11857 0.0
H2123 H 0.70544 0.94434 0.09178 0.0
H2124 H 0.73088 0.90195 0.0844 0.0
H2125 H 0.69499 0.85751 0.12157 0.0
C2126 C 0.63639 0.95081 0.13721 0.0
C2127 C 0.63282 0.97894 0.13329 0.0
C2128 C 0.64759 0.99011 0.12112 0.0
C2129 C 0.66582 0.97346 0.1129 0.0
C2130 C 0.66903 0.94578 0.11709 0.0
C2131 C 0.65492 0.93457 0.12902 0.0
C2132 C 0.66248 0.90435 0.13134 0.0
C2133 C 0.67643 0.90003 0.1465 0.0
C2134 C 0.6369 0.8855 0.12953 0.0
C2135 C 0.6829 0.90028 0.11878 0.0
C2136 C 0.68624 0.92437 0.11063 0.0
C2137 C 0.70346 0.92551 0.09825 0.0
C2138 C 0.71804 0.90146 0.09424 0.0
C2139 C 0.71572 0.87689 0.10278 0.0
C2140 C 0.6975 0.87621 0.11502 0.0
H2141 H 0.79477 0.8803 0.87127 0.0
H2142 H 0.75781 0.93577 0.90368 0.0
H2143 H 0.79147 0.97212 0.89688 0.0
H2144 H 0.86477 0.8996 0.87897 0.0
H2145 H 0.87594 0.89646 0.85997 0.0
H2146 H 0.84761 0.87552 0.86669 0.0
H2147 H 0.81596 0.89447 0.84574 0.0
H2148 H 0.84421 0.91544 0.83894 0.0
H2149 H 0.81158 0.93149 0.84368 0.0
H2150 H 0.82967 0.00249 0.88648 0.0
H2151 H 0.87069 0.02335 0.8742 0.0
H2152 H 0.88417 0.94671 0.84999 0.0
C2153 C 0.79359 0.90013 0.87692 0.0
C2154 C 0.77292 0.90541 0.88765 0.0
C2155 C 0.77246 0.93152 0.89492 0.0
C2156 C 0.7918 0.95225 0.89127 0.0
C2157 C 0.81169 0.94635 0.88051 0.0
C2158 C 0.81285 0.92083 0.87354 0.0
C2159 C 0.8369 0.91921 0.86281 0.0
C2160 C 0.85752 0.89635 0.86739 0.0
C2161 C 0.82653 0.91491 0.84685 0.0
C2162 C 0.84922 0.94783 0.86486 0.0
C2163 C 0.83426 0.96331 0.875 0.0
C2164 C 0.84152 0.99057 0.87852 0.0
C2165 C 0.86469 0.00227 0.87146 0.0
C2166 C 0.88029 0.9866 0.86113 0.0
C2167 C 0.87255 0.95903 0.8579 0.0
H2168 H 0.74925 0.39834 0.85996 0.0
H2169 H 0.74635 0.39529 0.90793 0.0
H2170 H 0.71403 0.43513 0.90815 0.0
H2171 H 0.74327 0.4759 0.85659 0.0
H2172 H 0.72183 0.47319 0.84028 0.0
H2173 H 0.74779 0.44712 0.84402 0.0
H2174 H 0.71005 0.40878 0.84258 0.0
H2175 H 0.68401 0.43465 0.83892 0.0
H2176 H 0.67987 0.41117 0.85433 0.0
H2177 H 0.67679 0.46974 0.90301 0.0
H2178 H 0.63916 0.49917 0.89277 0.0
H2179 H 0.66761 0.48141 0.84825 0.0
C2180 C 0.74237 0.40669 0.87049 0.0
C2181 C 0.75072 0.39443 0.88394 0.0
C2182 C 0.74084 0.40515 0.89754 0.0
C2183 C 0.72239 0.42763 0.89777 0.0
C2184 C 0.71428 0.43917 0.88429 0.0
C2185 C 0.72422 0.42934 0.8709 0.0
C2186 C 0.71071 0.4441 0.85796 0.0
C2187 C 0.73219 0.46109 0.8492 0.0
C2188 C 0.69524 0.42344 0.84786 0.0
C2189 C 0.69074 0.46286 0.86616 0.0
C2190 C 0.69324 0.45984 0.88134 0.0
C2191 C 0.67513 0.47291 0.89117 0.0
C2192 C 0.65383 0.48942 0.88531 0.0
C2193 C 0.65121 0.49285 0.86983 0.0
C2194 C 0.66998 0.47969 0.86016 0.0
H2195 H 0.79366 0.36145 0.11495 0.0
H2196 H 0.76084 0.41353 0.07987 0.0
H2197 H 0.78873 0.45312 0.08913 0.0
H2198 H 0.79613 0.41368 0.14343 0.0
H2199 H 0.82835 0.40132 0.15117 0.0
H2200 H 0.80523 0.37743 0.142 0.0
H2201 H 0.84496 0.36254 0.12431 0.0
H2202 H 0.86822 0.38632 0.13346 0.0
H2203 H 0.86307 0.38864 0.11371 0.0
H2204 H 0.82055 0.48671 0.10215 0.0
H2205 H 0.85523 0.51148 0.11741 0.0
H2206 H 0.86769 0.43704 0.14372 0.0
C2207 C 0.79234 0.38124 0.10927 0.0
C2208 C 0.77453 0.38485 0.09702 0.0
C2209 C 0.77358 0.41079 0.08965 0.0
C2210 C 0.78951 0.43326 0.09474 0.0
C2211 C 0.80647 0.4292 0.10707 0.0
C2212 C 0.80813 0.40379 0.11417 0.0
C2213 C 0.82841 0.40468 0.12697 0.0
C2214 C 0.81364 0.39894 0.14177 0.0
C2215 C 0.8526 0.38434 0.12445 0.0
C2216 C 0.83797 0.43456 0.12594 0.0
C2217 C 0.82499 0.4484 0.11444 0.0
C2218 C 0.83066 0.47617 0.11127 0.0
C2219 C 0.85015 0.49014 0.12009 0.0
C2220 C 0.86359 0.47631 0.13194 0.0
C2221 C 0.8575 0.44814 0.1348 0.0
H2222 H 0.83533 0.53219 0.34592 0.0
H2223 H 0.8234 0.46934 0.37974 0.0
H2224 H 0.78114 0.49382 0.38841 0.0
H2225 H 0.81732 0.58912 0.36703 0.0
H2226 H 0.79952 0.6076 0.35247 0.0
H2227 H 0.82664 0.5834 0.34792 0.0
H2228 H 0.79283 0.55638 0.3308 0.0
H2229 H 0.76555 0.58062 0.33527 0.0
H2230 H 0.76031 0.54391 0.33814 0.0
H2231 H 0.74513 0.52896 0.39562 0.0
H2232 H 0.71604 0.57018 0.39988 0.0
H2233 H 0.74902 0.60822 0.36 0.0
C2234 C 0.82346 0.52337 0.35498 0.0
C2235 C 0.83225 0.49891 0.36215 0.0
C2236 C 0.81655 0.4879 0.37401 0.0
C2237 C 0.79264 0.50166 0.37899 0.0
C2238 C 0.78467 0.52605 0.37179 0.0
C2239 C 0.79939 0.53657 0.3599 0.0
C2240 C 0.7874 0.56382 0.35457 0.0
C2241 C 0.809 0.58736 0.35557 0.0
C2242 C 0.77583 0.561 0.33876 0.0
C2243 C 0.76433 0.56765 0.36572 0.0
C2244 C 0.76296 0.54558 0.37551 0.0
C2245 C 0.74521 0.54584 0.38769 0.0
C2246 C 0.72844 0.56927 0.38991 0.0
C2247 C 0.72919 0.59188 0.37985 0.0
C2248 C 0.74737 0.59089 0.36761 0.0
H2249 H 0.63913 0.56186 0.64708 0.0
H2250 H 0.65206 0.48442 0.62346 0.0
H2251 H 0.68973 0.50599 0.60907 0.0
H2252 H 0.6487 0.6059 0.61603 0.0
H2253 H 0.66634 0.63295 0.62616 0.0
H2254 H 0.64179 0.61082 0.63549 0.0
H2255 H 0.67939 0.59729 0.65475 0.0
H2256 H 0.70407 0.61945 0.64548 0.0
H2257 H 0.71203 0.58326 0.64845 0.0
H2258 H 0.72379 0.53662 0.59607 0.0
H2259 H 0.75236 0.57446 0.58554 0.0
H2260 H 0.71775 0.63204 0.61756 0.0
C2261 C 0.65018 0.54941 0.63901 0.0
C2262 C 0.64331 0.52122 0.63674 0.0
C2263 C 0.65776 0.50568 0.62587 0.0
C2264 C 0.67902 0.51785 0.6175 0.0
C2265 C 0.68545 0.54562 0.62009 0.0
C2266 C 0.67151 0.56124 0.63058 0.0
C2267 C 0.68179 0.59098 0.63074 0.0
C2268 C 0.65825 0.61135 0.62687 0.0
C2269 C 0.69511 0.59816 0.64575 0.0
C2270 C 0.70332 0.58971 0.61854 0.0
C2271 C 0.70521 0.56332 0.6126 0.0
C2272 C 0.72293 0.55726 0.60082 0.0
C2273 C 0.73925 0.57877 0.59501 0.0
C2274 C 0.73788 0.60585 0.60108 0.0
C2275 C 0.71951 0.61136 0.6129 0.0
H2276 H 0.30779 0.61153 0.09433 0.0
H2277 H 0.23209 0.57371 0.11087 0.0
H2278 H 0.25851 0.53257 0.11879 0.0
H2279 H 0.34168 0.54594 0.08188 0.0
H2280 H 0.37554 0.55745 0.0878 0.0
H2281 H 0.35019 0.58244 0.08158 0.0
H2282 H 0.35521 0.60925 0.10635 0.0
H2283 H 0.38048 0.58438 0.11264 0.0
H2284 H 0.34992 0.59108 0.1236 0.0
H2285 H 0.29334 0.49916 0.12813 0.0
H2286 H 0.33431 0.47458 0.13755 0.0
H2287 H 0.388 0.53214 0.11406 0.0
C2288 C 0.29678 0.59427 0.09933 0.0
C2289 C 0.26781 0.5954 0.10158 0.0
C2290 C 0.25408 0.57282 0.10847 0.0
C2291 C 0.26896 0.54943 0.11313 0.0
C2292 C 0.29751 0.54895 0.11078 0.0
C2293 C 0.31132 0.57066 0.10397 0.0
C2294 C 0.34238 0.56576 0.10377 0.0
C2295 C 0.35307 0.56271 0.08781 0.0
C2296 C 0.3579 0.58899 0.11209 0.0
C2297 C 0.3439 0.53841 0.11204 0.0
C2298 C 0.31775 0.529 0.11586 0.0
C2299 C 0.31389 0.50567 0.12473 0.0
C2300 C 0.33739 0.49156 0.12988 0.0
C2301 C 0.36442 0.50053 0.12592 0.0
C2302 C 0.36759 0.52427 0.11687 0.0
H2303 H 0.16985 0.49512 0.8705 0.0
H2304 H 0.12566 0.54094 0.83655 0.0
H2305 H 0.1582 0.58024 0.83942 0.0
H2306 H 0.17859 0.55102 0.89408 0.0
H2307 H 0.21267 0.54166 0.90067 0.0
H2308 H 0.18937 0.51513 0.89414 0.0
H2309 H 0.2264 0.49864 0.87525 0.0
H2310 H 0.24989 0.52518 0.88176 0.0
H2311 H 0.24108 0.52324 0.86237 0.0
H2312 H 0.19099 0.61613 0.84784 0.0
H2313 H 0.22178 0.64755 0.86187 0.0
H2314 H 0.24398 0.57977 0.89125 0.0
C2315 C 0.1677 0.51316 0.86342 0.0
C2316 C 0.14567 0.51514 0.85319 0.0
C2317 C 0.14264 0.53922 0.84438 0.0
C2318 C 0.16107 0.56149 0.84587 0.0
C2319 C 0.18228 0.55932 0.85629 0.0
C2320 C 0.18574 0.53583 0.86494 0.0
C2321 C 0.20817 0.54026 0.8765 0.0
C2322 C 0.19649 0.53682 0.89228 0.0
C2323 C 0.23285 0.52066 0.8738 0.0
C2324 C 0.21598 0.57019 0.87332 0.0
C2325 C 0.20115 0.58053 0.86141 0.0
C2326 C 0.20315 0.60818 0.85699 0.0
C2327 C 0.22055 0.62586 0.86505 0.0
C2328 C 0.23566 0.61585 0.87738 0.0
C2329 C 0.2335 0.58762 0.8815 0.0
H2330 H 0.21465 0.37191 0.62397 0.0
H2331 H 0.24041 0.41812 0.58501 0.0
H2332 H 0.21126 0.45758 0.59284 0.0
H2333 H 0.1438 0.39406 0.62307 0.0
H2334 H 0.1405 0.39555 0.64295 0.0
H2335 H 0.16454 0.37157 0.6346 0.0
H2336 H 0.2046 0.39262 0.6502 0.0
H2337 H 0.18069 0.41673 0.65857 0.0
H2338 H 0.2113 0.42945 0.64928 0.0
H2339 H 0.17861 0.49175 0.60482 0.0
H2340 H 0.14351 0.51721 0.61951 0.0
H2341 H 0.13814 0.4479 0.6501 0.0
C2342 C 0.21423 0.39035 0.61708 0.0
C2343 C 0.23051 0.39224 0.60412 0.0
C2344 C 0.22912 0.41658 0.59532 0.0
C2345 C 0.21235 0.43902 0.5996 0.0
C2346 C 0.1969 0.43659 0.61259 0.0
C2347 C 0.19754 0.41278 0.62114 0.0
C2348 C 0.17835 0.415 0.63435 0.0
C2349 C 0.15544 0.39273 0.63369 0.0
C2350 C 0.19472 0.41336 0.64896 0.0
C2351 C 0.16669 0.44378 0.63187 0.0
C2352 C 0.17777 0.45598 0.61932 0.0
C2353 C 0.16996 0.48251 0.61474 0.0
C2354 C 0.15024 0.49688 0.6232 0.0
C2355 C 0.13868 0.48466 0.63607 0.0
C2356 C 0.14691 0.45775 0.64037 0.0
H2357 H 0.31541 0.49841 0.36172 0.0
H2358 H 0.34419 0.45092 0.3239 0.0
H2359 H 0.31181 0.41303 0.33035 0.0
H2360 H 0.31276 0.44376 0.38594 0.0
H2361 H 0.28202 0.45451 0.39578 0.0
H2362 H 0.30351 0.48004 0.38683 0.0
H2363 H 0.2612 0.49779 0.37182 0.0
H2364 H 0.23943 0.4724 0.38084 0.0
H2365 H 0.24119 0.47362 0.3609 0.0
H2366 H 0.28193 0.37823 0.34257 0.0
H2367 H 0.25525 0.34851 0.35976 0.0
H2368 H 0.24575 0.41808 0.38986 0.0
C2369 C 0.31401 0.48051 0.35449 0.0
C2370 C 0.33178 0.47767 0.34216 0.0
C2371 C 0.33045 0.45345 0.33331 0.0
C2372 C 0.31208 0.43194 0.33684 0.0
C2373 C 0.29525 0.43501 0.34927 0.0
C2374 C 0.29588 0.45872 0.35794 0.0
C2375 C 0.27786 0.45546 0.37159 0.0
C2376 C 0.29508 0.45862 0.38587 0.0
C2377 C 0.25347 0.47604 0.37126 0.0
C2378 C 0.2679 0.42586 0.36951 0.0
C2379 C 0.27789 0.41463 0.35645 0.0
C2380 C 0.27345 0.38693 0.35266 0.0
C2381 C 0.25846 0.3702 0.3625 0.0
C2382 C 0.24808 0.38129 0.37591 0.0
C2383 C 0.25272 0.40946 0.37942 0.0
H2384 H 0.08338 0.06132 0.2583 0.0
H2385 H 0.0829 0.99612 0.2916 0.0
H2386 H 0.08918 0.96121 0.27229 0.0
H2387 H 0.03656 0.02529 0.2363 0.0
H2388 H 0.05 0.03733 0.2188 0.0
H2389 H 0.05414 0.05831 0.23514 0.0
H2390 H 0.1074 0.05934 0.23098 0.0
H2391 H 0.10341 0.0382 0.21461 0.0
H2392 H 0.12621 0.0271 0.22931 0.0
H2393 H 0.09177 0.93273 0.24965 0.0
H2394 H 0.08186 0.91187 0.22533 0.0
H2395 H 0.06838 0.99403 0.20681 0.0
C2396 C 0.08485 0.03977 0.26159 0.0
C2397 C 0.08373 0.03182 0.27665 0.0
C2398 C 0.08548 0.00322 0.28034 0.0
C2399 C 0.08875 0.98302 0.26937 0.0
C2400 C 0.08915 0.99154 0.25466 0.0
C2401 C 0.08654 0.01915 0.2507 0.0
C2402 C 0.08186 0.02216 0.23417 0.0
C2403 C 0.05399 0.03661 0.23092 0.0
C2404 C 0.10618 0.03762 0.22684 0.0
C2405 C 0.08133 0.99186 0.22962 0.0
C2406 C 0.08678 0.9747 0.24154 0.0
C2407 C 0.0872 0.9459 0.24023 0.0
C2408 C 0.0811 0.93424 0.22644 0.0
C2409 C 0.07351 0.95129 0.21432 0.0
C2410 C 0.07422 0.9805 0.21587 0.0
H2411 H 0.22574 0.85651 0.53359 0.0
H2412 H 0.21604 0.76712 0.53632 0.0
H2413 H 0.2429 0.76161 0.51308 0.0
H2414 H 0.21692 0.86123 0.4944 0.0
H2415 H 0.24202 0.88867 0.492 0.0
H2416 H 0.22354 0.88541 0.50926 0.0
H2417 H 0.27026 0.8829 0.52348 0.0
H2418 H 0.2889 0.88619 0.50626 0.0
H2419 H 0.29559 0.85708 0.51832 0.0
H2420 H 0.26967 0.76598 0.48958 0.0
H2421 H 0.29374 0.77997 0.46652 0.0
H2422 H 0.28473 0.86667 0.47857 0.0
C2423 C 0.22955 0.83584 0.52927 0.0
C2424 C 0.21906 0.81217 0.53653 0.0
C2425 C 0.22402 0.78538 0.53072 0.0
C2426 C 0.23924 0.7821 0.51762 0.0
C2427 C 0.24914 0.8059 0.51057 0.0
C2428 C 0.24443 0.83226 0.51613 0.0
C2429 C 0.25634 0.85441 0.50605 0.0
C2430 C 0.23333 0.87355 0.50008 0.0
C2431 C 0.27913 0.87113 0.51401 0.0
C2432 C 0.26835 0.83638 0.49392 0.0
C2433 C 0.26416 0.80845 0.49682 0.0
C2434 C 0.27318 0.78774 0.48719 0.0
C2435 C 0.28678 0.79582 0.47419 0.0
C2436 C 0.29101 0.82426 0.47101 0.0
C2437 C 0.28172 0.8448 0.48093 0.0
H2438 H 0.45246 0.03325 0.72011 0.0
H2439 H 0.39315 0.99435 0.69047 0.0
H2440 H 0.38288 0.95886 0.70948 0.0
H2441 H 0.47814 0.97071 0.73753 0.0
H2442 H 0.48054 0.98642 0.75561 0.0
H2443 H 0.48455 0.00749 0.73925 0.0
H2444 H 0.44497 0.0399 0.74828 0.0
H2445 H 0.44085 0.01893 0.76466 0.0
H2446 H 0.41153 0.02522 0.75271 0.0
H2447 H 0.37824 0.92836 0.73212 0.0
H2448 H 0.37878 0.90624 0.75701 0.0
H2449 H 0.43931 0.96675 0.77189 0.0
C2450 C 0.43732 0.01725 0.71764 0.0
C2451 C 0.42384 0.01625 0.70381 0.0
C2452 C 0.40421 0.99501 0.7009 0.0
C2453 C 0.3981 0.97491 0.71166 0.0
C2454 C 0.41168 0.97655 0.72525 0.0
C2455 C 0.4308 0.99726 0.72828 0.0
C2456 C 0.44163 0.99517 0.74395 0.0
C2457 C 0.47308 0.98961 0.74408 0.0
C2458 C 0.43429 0.02136 0.75293 0.0
C2459 C 0.42551 0.97018 0.74929 0.0
C2460 C 0.40848 0.95954 0.73833 0.0
C2461 C 0.39152 0.93647 0.74078 0.0
C2462 C 0.39194 0.92405 0.75485 0.0
C2463 C 0.40902 0.935 0.76615 0.0
C2464 C 0.42601 0.9582 0.76333 0.0
H2465 H 0.21313 0.13674 0.97713 0.0
H2466 H 0.1868 0.22195 0.97056 0.0
H2467 H 0.20792 0.23514 0.99457 0.0
H2468 H 0.20233 0.13522 0.01757 0.0
H2469 H 0.23248 0.11383 0.02075 0.0
H2470 H 0.21349 0.11088 0.0036 0.0
H2471 H 0.2587 0.12057 0.98888 0.0
H2472 H 0.27779 0.12372 0.00595 0.0
H2473 H 0.27827 0.15173 0.99268 0.0
H2474 H 0.23522 0.23966 0.01798 0.0
H2475 H 0.26501 0.23473 0.04023 0.0
H2476 H 0.27246 0.14636 0.03195 0.0
C2477 C 0.21152 0.15803 0.98094 0.0
C2478 C 0.19832 0.17839 0.97224 0.0
C2479 C 0.19666 0.20614 0.9773 0.0
C2480 C 0.20861 0.21377 0.99084 0.0
C2481 C 0.22187 0.19328 -0.00086 0.0
C2482 C 0.22316 0.16592 0.99448 0.0
C2483 C 0.23942 0.14817 0.00525 0.0
C2484 C 0.22081 0.1257 0.01221 0.0
C2485 C 0.26506 0.1353 -0.00226 0.0
C2486 C 0.24761 0.16993 0.01653 0.0
C2487 C 0.23724 0.19582 0.0128 0.0
C2488 C 0.24316 0.21947 0.02113 0.0
C2489 C 0.26009 0.21654 0.03365 0.0
C2490 C 0.27067 0.1902 0.03763 0.0
C2491 C 0.26426 0.16662 0.02907 0.0
H2492 H 0.9473 0.95771 0.7121 0.0
H2493 H 0.85746 0.95464 0.71101 0.0
H2494 H 0.85555 0.98007 0.73496 0.0
H2495 H 0.95587 0.94893 0.7515 0.0
H2496 H 0.9846 0.97287 0.75263 0.0
H2497 H 0.97849 0.95372 0.73579 0.0
H2498 H 0.97655 -5e-05 0.72103 0.0
H2499 H 0.98253 0.01925 0.73783 0.0
H2500 H 0.95246 0.02666 0.7266 0.0
H2501 H 0.864 0.00552 0.75904 0.0
H2502 H 0.88205 0.0308 0.78101 0.0
H2503 H 0.96624 0.01836 0.7655 0.0
C2504 C 0.9273 0.96226 0.71704 0.0
C2505 C 0.9025 0.95416 0.71005 0.0
C2506 C 0.87658 0.96066 0.71647 0.0
C2507 C 0.87536 0.97502 0.72998 0.0
C2508 C 0.90029 0.98279 0.73668 0.0
C2509 C 0.92576 0.97676 0.73038 0.0
C2510 C 0.94948 0.9881 0.73951 0.0
C2511 C 0.96821 0.9645 0.7452 0.0
C2512 C 0.96623 0.00978 0.73072 0.0
C2513 C 0.93343 0.00145 0.75199 0.0
C2514 C 0.9051 -0.00195 0.75023 0.0
C2515 C 0.88612 0.00839 0.76051 0.0
C2516 C 0.89647 0.02262 0.77289 0.0
C2517 C 0.92537 0.02643 0.77471 0.0
C2518 C 0.94402 0.01577 0.76417 0.0
H2519 H 0.73616 0.20115 0.52336 0.0
H2520 H 0.70096 0.11944 0.53058 0.0
H2521 H 0.72908 0.10075 0.50977 0.0
H2522 H 0.73695 0.19917 0.48451 0.0
H2523 H 0.76946 0.21741 0.48262 0.0
H2524 H 0.74797 0.22336 0.4986 0.0
H2525 H 0.78923 0.21035 0.51574 0.0
H2526 H 0.81081 0.2041 0.49977 0.0
H2527 H 0.80619 0.17722 0.51347 0.0
H2528 H 0.75765 0.09252 0.48687 0.0
H2529 H 0.78487 0.09523 0.46357 0.0
H2530 H 0.80291 0.18185 0.47231 0.0
C2531 C 0.73461 0.17931 0.52053 0.0
C2532 C 0.71652 0.16158 0.52826 0.0
C2533 C 0.7148 0.13313 0.52455 0.0
C2534 C 0.73073 0.12242 0.51287 0.0
C2535 C 0.74842 0.14049 0.50533 0.0
C2536 C 0.75056 0.1683 0.50907 0.0
C2537 C 0.77025 0.1836 0.49891 0.0
C2538 C 0.75525 0.20727 0.49067 0.0
C2539 C 0.79562 0.19445 0.50749 0.0
C2540 C 0.77818 0.1603 0.48854 0.0
C2541 C 0.76557 0.13552 0.49248 0.0
C2542 C 0.76809 0.11162 0.48385 0.0
C2543 C 0.78352 0.11328 0.47071 0.0
C2544 C 0.79614 0.13859 0.46651 0.0
C2545 C 0.79392 0.16216 0.47562 0.0
H2546 H 0.61644 0.035 0.2193 0.0
H2547 H 0.53316 0.0691 0.21828 0.0
H2548 H 0.52208 0.04481 0.24169 0.0
H2549 H 0.59769 0.96808 0.23249 0.0
H2550 H 0.62771 0.96394 0.24422 0.0
H2551 H 0.62975 0.98544 0.22792 0.0
H2552 H 0.64618 0.02705 0.24394 0.0
H2553 H 0.64434 0.00562 0.26029 0.0
H2554 H 0.62549 0.03795 0.25954 0.0
H2555 H 0.51944 0.01569 0.2644 0.0
H2556 H 0.52568 0.98354 0.28559 0.0
H2557 H 0.6103 0.96747 0.27177 0.0
C2558 C 0.596 0.03744 0.22415 0.0
C2559 C 0.57564 0.05393 0.2172 0.0
C2560 C 0.54904 0.05674 0.22365 0.0
C2561 C 0.54257 0.04299 0.23687 0.0
C2562 C 0.56299 0.02658 0.24341 0.0
C2563 C 0.5892 0.0238 0.23733 0.0
C2564 C 0.60704 0.00428 0.24642 0.0
C2565 C 0.61607 0.97893 0.23721 0.0
C2566 C 0.63225 0.01965 0.25293 0.0
C2567 C 0.5866 0.99619 0.2584 0.0
C2568 C 0.56137 0.00946 0.25648 0.0
C2569 C 0.53909 0.00523 0.26606 0.0
C2570 C 0.54275 0.98701 0.27798 0.0
C2571 C 0.56836 0.9733 0.28008 0.0
C2572 C 0.59055 0.97784 0.27023 0.0
H2573 H 0.76819 0.84323 0.02481 0.0
H2574 H 0.77212 0.75329 0.02303 0.0
H2575 H 0.74705 0.75376 -0.00092 0.0
H2576 H 0.69967 0.85009 0.00958 0.0
H2577 H 0.7076 0.88103 -0.00087 0.0
H2578 H 0.72627 0.8736 0.01597 0.0
H2579 H 0.77288 0.87661 0.00169 0.0
H2580 H 0.75435 0.88401 0.9848 0.0
H2581 H 0.77815 0.85514 0.98556 0.0
H2582 H 0.72099 0.76384 0.97591 0.0
H2583 H 0.69556 0.78307 0.9544 0.0
H2584 H 0.70877 0.86658 0.97095 0.0
C2585 C 0.76367 0.82372 0.01932 0.0
C2586 C 0.7719 0.7982 0.02559 0.0
C2587 C 0.76595 0.77299 0.01822 0.0
C2588 C 0.75175 0.77308 0.00469 0.0
C2589 C 0.74382 0.79859 -0.00125 0.0
C2590 C 0.74958 0.82347 0.00578 0.0
C2591 C 0.7386 0.84796 -0.00299 0.0
C2592 C 0.71674 0.86412 0.00596 0.0
C2593 C 0.76242 0.86705 0.99197 0.0
C2594 C 0.7256 0.83293 0.98401 0.0
C2595 C 0.72888 0.80445 0.98527 0.0
C2596 C 0.71833 0.78607 0.97477 0.0
C2597 C 0.70395 0.7971 0.96266 0.0
C2598 C 0.70035 0.82612 0.96122 0.0
C2599 C 0.71141 0.8443 0.97193 0.0
H2600 H 0.58486 0.55436 0.76806 0.0
H2601 H 0.57492 0.48766 0.80006 0.0
H2602 H 0.57634 0.45339 0.77985 0.0
H2603 H 0.5347 0.52357 0.74308 0.0
H2604 H 0.55189 0.53646 0.72672 0.0
H2605 H 0.55439 0.55542 0.74387 0.0
H2606 H 0.60812 0.55343 0.74212 0.0
H2607 H 0.60575 0.53403 0.72508 0.0
H2608 H 0.62514 0.52019 0.7405 0.0
H2609 H 0.58249 0.42642 0.75604 0.0
H2610 H 0.58167 0.40894 0.73036 0.0
H2611 H 0.57284 0.49359 0.71428 0.0
C2612 C 0.58265 0.53263 0.77088 0.0
C2613 C 0.5809 0.52375 0.78576 0.0
C2614 C 0.57794 0.49499 0.78884 0.0
C2615 C 0.57837 0.47532 0.77742 0.0
C2616 C 0.58041 0.48483 0.76291 0.0
C2617 C 0.58141 0.51284 0.75959 0.0
C2618 C 0.57989 0.51772 0.74305 0.0
C2619 C 0.55365 0.53426 0.73894 0.0
C2620 C 0.6063 0.5322 0.73736 0.0
C2621 C 0.57823 0.48802 0.73763 0.0
C2622 C 0.57951 0.46936 0.74922 0.0
C2623 C 0.58059 0.4408 0.74687 0.0
C2624 C 0.57979 0.43106 0.73224 0.0
C2625 C 0.57663 0.44976 0.72022 0.0
C2626 C 0.57575 0.47862 0.72307 0.0
H2627 H 0.70455 0.28772 0.01697 0.0
H2628 H 0.69428 0.37708 0.01843 0.0
H2629 H 0.71937 0.38143 0.9945 0.0
H2630 H 0.77311 0.28855 0.00356 0.0
H2631 H 0.76935 0.25828 0.99196 0.0
H2632 H 0.74819 0.262 0.00828 0.0
H2633 H 0.70361 0.25664 0.99241 0.0
H2634 H 0.72464 0.2526 0.97604 0.0
H2635 H 0.6983 0.27918 0.9767 0.0
H2636 H 0.7471 0.37588 0.9712 0.0
H2637 H 0.77663 0.36111 0.95018 0.0
H2638 H 0.77035 0.27542 0.96461 0.0
C2639 C 0.70717 0.30807 0.01201 0.0
C2640 C 0.6973 0.33209 0.01916 0.0
C2641 C 0.70152 0.35856 0.0128 0.0
C2642 C 0.71569 0.36115 -0.00069 0.0
C2643 C 0.72555 0.33703 0.99255 0.0
C2644 C 0.7215 0.311 -0.00132 0.0
C2645 C 0.73565 0.28857 0.9897 0.0
C2646 C 0.75789 0.27347 -0.00107 0.0
C2647 C 0.71427 0.26804 0.98333 0.0
C2648 C 0.74861 0.30606 0.97764 0.0
C2649 C 0.74229 0.33392 0.97939 0.0
C2650 C 0.7521 0.35414 0.96967 0.0
C2651 C 0.76877 0.34561 0.95782 0.0
C2652 C 0.77558 0.31724 0.95595 0.0
C2653 C 0.76543 0.29725 0.96595 0.0
H2654 H 0.91893 0.43035 0.2692 0.0
H2655 H 0.90771 0.49951 0.29955 0.0
H2656 H 0.89964 0.53078 0.27859 0.0
H2657 H 0.96127 0.4704 0.2448 0.0
H2658 H 0.94948 0.45326 0.22818 0.0
H2659 H 0.9493 0.43492 0.24556 0.0
H2660 H 0.89686 0.42449 0.24214 0.0
H2661 H 0.89683 0.44322 0.22483 0.0
H2662 H 0.87296 0.45284 0.23933 0.0
H2663 H 0.89298 0.55479 0.25484 0.0
H2664 H 0.8985 0.57287 0.22947 0.0
H2665 H 0.92303 0.49089 0.2143 0.0
C2666 C 0.91475 0.45204 0.27144 0.0
C2667 C 0.91268 0.46216 0.2861 0.0
C2668 C 0.90772 0.49083 0.28849 0.0
C2669 C 0.90331 0.50889 0.27664 0.0
C2670 C 0.90497 0.49821 0.26237 0.0
C2671 C 0.91144 0.47071 0.25966 0.0
C2672 C 0.91603 0.46572 0.24325 0.0
C2673 C 0.94579 0.45548 0.24028 0.0
C2674 C 0.89437 0.44536 0.23703 0.0
C2675 C 0.9115 0.49484 0.2373 0.0
C2676 C 0.90421 0.51295 0.24852 0.0
C2677 C 0.89897 0.54095 0.24594 0.0
C2678 C 0.90232 0.55104 0.23156 0.0
C2679 C 0.91174 0.53337 0.22009 0.0
C2680 C 0.91567 0.50477 0.22289 0.0
H2681 H 0.78686 0.6968 0.51343 0.0
H2682 H 0.80191 0.60867 0.51884 0.0
H2683 H 0.7727 0.59883 0.49677 0.0
H2684 H 0.71631 0.69061 0.50419 0.0
H2685 H 0.71619 0.71871 0.49098 0.0
H2686 H 0.74062 0.71891 0.50607 0.0
H2687 H 0.7815 0.72313 0.4875 0.0
H2688 H 0.75716 0.72325 0.47233 0.0
H2689 H 0.78483 0.69803 0.47278 0.0
H2690 H 0.74042 0.59891 0.47476 0.0
H2691 H 0.70626 0.60877 0.45483 0.0
H2692 H 0.71072 0.69666 0.46495 0.0
C2693 C 0.78438 0.67554 0.50971 0.0
C2694 C 0.7967 0.65342 0.51748 0.0
C2695 C 0.7927 0.62574 0.51274 0.0
C2696 C 0.77622 0.62004 0.50029 0.0
C2697 C 0.76389 0.64232 0.49292 0.0
C2698 C 0.76776 0.66952 0.49747 0.0
C2699 C 0.75078 0.68956 0.4883 0.0
C2700 C 0.72973 0.70537 0.49796 0.0
C2701 C 0.7697 0.70968 0.47972 0.0
C2702 C 0.73644 0.6694 0.478 0.0
C2703 C 0.74452 0.64228 0.48069 0.0
C2704 C 0.73396 0.62005 0.47254 0.0
C2705 C 0.71463 0.62576 0.46132 0.0
C2706 C 0.70597 0.65335 0.45861 0.0
C2707 C 0.71698 0.67538 0.46701 0.0
H2708 H 0.4061 0.51906 0.28081 0.0
H2709 H 0.40395 0.60224 0.26221 0.0
H2710 H 0.41017 0.58253 0.23716 0.0
H2711 H 0.45448 0.48903 0.25738 0.0
H2712 H 0.43692 0.45613 0.2555 0.0
H2713 H 0.43215 0.47661 0.27199 0.0
H2714 H 0.37883 0.47642 0.26803 0.0
H2715 H 0.38336 0.45547 0.25165 0.0
H2716 H 0.36475 0.48791 0.25055 0.0
H2717 H 0.42216 0.55389 0.2148 0.0
H2718 H 0.43184 0.51811 0.19596 0.0
H2719 H 0.41692 0.45356 0.22863 0.0
C2720 C 0.40608 0.53316 0.27148 0.0
C2721 C 0.40484 0.56222 0.27347 0.0
C2722 C 0.4056 0.57993 0.26095 0.0
C2723 C 0.40889 0.56894 0.24669 0.0
C2724 C 0.41046 0.54018 0.24516 0.0
C2725 C 0.40832 0.52251 0.25717 0.0
C2726 C 0.40995 0.49237 0.2525 0.0
C2727 C 0.43486 0.47769 0.25977 0.0
C2728 C 0.38259 0.47715 0.25588 0.0
C2729 C 0.41423 0.49589 0.23602 0.0
C2730 C 0.4148 0.52362 0.23204 0.0
C2731 C 0.42088 0.53209 0.21767 0.0
C2732 C 0.42616 0.5116 0.20703 0.0
C2733 C 0.4246 0.48302 0.21075 0.0
C2734 C 0.41843 0.47518 0.22543 0.0
H2735 H 0.27996 0.6356 0.97338 0.0
H2736 H 0.27314 0.72172 0.95986 0.0
H2737 H 0.24097 0.73087 0.9807 0.0
H2738 H 0.20823 0.62693 0.98584 0.0
H2739 H 0.21771 0.60546 0.00141 0.0
H2740 H 0.23875 0.60531 0.98489 0.0
H2741 H 0.28206 0.61821 0.00053 0.0
H2742 H 0.26117 0.61844 0.01707 0.0
H2743 H 0.28116 0.64873 0.01212 0.0
H2744 H 0.21183 0.73113 0.00339 0.0
H2745 H 0.18756 0.72268 0.02713 0.0
H2746 H 0.2133 0.63639 0.02604 0.0
C2747 C 0.27136 0.65623 0.97482 0.0
C2748 C 0.2786 0.67804 0.96521 0.0
C2749 C 0.2675 0.70492 0.96727 0.0
C2750 C 0.24928 0.71023 0.97899 0.0
C2751 C 0.24257 0.68835 0.98843 0.0
C2752 C 0.25325 0.66189 0.98652 0.0
C2753 C 0.24369 0.64247 -0.00133 0.0
C2754 C 0.22604 0.61864 0.99232 0.0
C2755 C 0.2685 0.63132 0.00763 0.0
C2756 C 0.22625 0.66223 0.00778 0.0
C2757 C 0.22574 0.68853 0.00161 0.0
C2758 C 0.21178 0.71058 0.00826 0.0
C2759 C 0.19804 0.70561 0.02166 0.0
C2760 C 0.19847 0.67888 0.02814 0.0
C2761 C 0.21261 0.65693 0.02112 0.0
H2762 H 0.05737 0.49935 0.71281 0.0
H2763 H 0.06255 0.58219 0.73173 0.0
H2764 H 0.06205 0.56212 0.75678 0.0
H2765 H 0.01681 0.46585 0.74102 0.0
H2766 H 0.0369 0.43424 0.74095 0.0
H2767 H 0.03426 0.45488 0.72434 0.0
H2768 H 0.08792 0.45816 0.7228 0.0
H2769 H 0.09072 0.43721 0.73928 0.0
H2770 H 0.10717 0.47086 0.73855 0.0
H2771 H 0.05857 0.53353 0.77955 0.0
H2772 H 0.06214 0.49802 0.79905 0.0
H2773 H 0.06953 0.43372 0.76553 0.0
C2774 C 0.05862 0.51327 0.7222 0.0
C2775 C 0.05904 0.54241 0.72031 0.0
C2776 C 0.06083 0.55988 0.73291 0.0
C2777 C 0.06081 0.54868 0.74719 0.0
C2778 C 0.05999 0.51993 0.74866 0.0
C2779 C 0.05977 0.5024 0.73655 0.0
C2780 C 0.06192 0.47225 0.74126 0.0
C2781 C 0.03592 0.45584 0.73661 0.0
C2782 C 0.08852 0.45883 0.73511 0.0
C2783 C 0.06332 0.47569 0.75792 0.0
C2784 C 0.06139 0.50335 0.7619 0.0
C2785 C 0.06086 0.51184 0.77661 0.0
C2786 C 0.06321 0.49154 0.78759 0.0
C2787 C 0.06716 0.46325 0.78379 0.0
C2788 C 0.06672 0.4552 0.76876 0.0
H2789 H 0.21466 0.34975 0.4709 0.0
H2790 H 0.20972 0.26096 0.46335 0.0
H2791 H 0.24003 0.25265 0.4851 0.0
H2792 H 0.28627 0.35179 0.48304 0.0
H2793 H 0.28007 0.37795 0.49695 0.0
H2794 H 0.25879 0.37679 0.48053 0.0
H2795 H 0.21461 0.37357 0.49687 0.0
H2796 H 0.23575 0.37464 0.51333 0.0
H2797 H 0.21187 0.34627 0.51049 0.0
H2798 H 0.27039 0.25417 0.50748 0.0
H2799 H 0.29806 0.2653 0.52984 0.0
H2800 H 0.28221 0.35307 0.52318 0.0
C2801 C 0.22026 0.32864 0.47383 0.0
C2802 C 0.21036 0.30591 0.46558 0.0
C2803 C 0.21745 0.27849 0.46966 0.0
C2804 C 0.23458 0.27363 0.48192 0.0
C2805 C 0.2441 0.29651 0.48991 0.0
C2806 C 0.23714 0.32346 0.48609 0.0
C2807 C 0.24946 0.34427 0.49679 0.0
C2808 C 0.26986 0.36385 0.48885 0.0
C2809 C 0.22655 0.36064 0.50485 0.0
C2810 C 0.26443 0.3248 0.50723 0.0
C2811 C 0.2612 0.29736 0.503 0.0
C2812 C 0.27312 0.27555 0.5109 0.0
C2813 C 0.28877 0.28201 0.5235 0.0
C2814 C 0.29212 0.30995 0.528 0.0
C2815 C 0.27981 0.33158 0.51983 0.0
H2816 H 0.98868 0.18118 0.29031 0.0
H2817 H 0.07429 0.20487 0.28216 0.0
H2818 H 0.06041 0.25418 0.28161 0.0
H2819 H 0.95521 0.23995 0.26846 0.0
H2820 H 0.92787 0.24298 0.28201 0.0
H2821 H 0.94337 0.20958 0.27832 0.0
H2822 H 0.95464 0.20421 0.30625 0.0
H2823 H 0.93962 0.23762 0.31001 0.0
H2824 H 0.97496 0.23059 0.31541 0.0
H2825 H 0.03928 0.30057 0.28717 0.0
H2826 H 0.01192 0.34009 0.29681 0.0
H2827 H 0.93997 0.28636 0.30096 0.0
C2828 C 0.00435 0.19662 0.28779 0.0
C2829 C 0.03258 0.18909 0.28624 0.0
C2830 C 0.05251 0.21006 0.28329 0.0
C2831 C 0.04481 0.23818 0.28296 0.0
C2832 C 0.01705 0.245 0.28537 0.0
C2833 C -0.00299 0.22477 0.28746 0.0
C2834 C 0.9693 0.23753 0.29155 0.0
C2835 C 0.94766 0.2322 0.27935 0.0
C2836 C 0.95906 0.22686 0.3067 0.0
C2837 C 0.97722 0.26796 0.29223 0.0
C2838 C 0.00474 0.27193 0.28842 0.0
C2839 C 0.01752 0.29783 0.28979 0.0
C2840 C 0.00187 0.32014 0.29535 0.0
C2841 C 0.97375 0.31637 0.29949 0.0
C2842 C 0.96123 0.29006 0.29757 0.0
H2843 H 0.97661 0.68499 0.54966 0.0
H2844 H 0.92436 0.74733 0.52896 0.0
H2845 H 0.96484 0.77858 0.52673 0.0
H2846 H 0.01068 0.72888 0.57217 0.0
H2847 H 0.04423 0.71234 0.57132 0.0
H2848 H 0.01337 0.69229 0.56807 0.0
H2849 H 0.03217 0.67674 0.5425 0.0
H2850 H 0.06345 0.69645 0.54574 0.0
H2851 H 0.04319 0.70255 0.52926 0.0
H2852 H 0.00837 0.80587 0.53085 0.0
H2853 H 0.05156 0.82666 0.54058 0.0
H2854 H 0.07518 0.74672 0.55898 0.0
C2855 C 0.9739 0.70473 0.54408 0.0
C2856 C 0.94739 0.71364 0.53936 0.0
C2857 C 0.94454 0.74001 0.53255 0.0
C2858 C 0.96744 0.75788 0.53121 0.0
C2859 C 0.99304 0.749 0.53666 0.0
C2860 C 0.99646 0.72289 0.54281 0.0
C2861 C 0.02505 0.71966 0.5496 0.0
C2862 C 0.02319 0.71292 0.56627 0.0
C2863 C 0.04197 0.69754 0.54127 0.0
C2864 C 0.03668 0.74847 0.54696 0.0
C2865 C 0.01814 0.76492 0.53922 0.0
C2866 C 0.02331 0.79302 0.53663 0.0
C2867 C 0.04785 0.80468 0.54226 0.0
C2868 C 0.0668 0.78831 0.5505 0.0
C2869 C 0.06131 0.75972 0.55256 0.0
H2870 H 0.46149 0.78578 0.80097 0.0
H2871 H 0.52795 0.83555 0.78223 0.0
H2872 H 0.55438 0.79282 0.77677 0.0
H2873 H 0.50315 0.74066 0.81975 0.0
H2874 H 0.48216 0.7101 0.81687 0.0
H2875 H 0.46629 0.74388 0.81668 0.0
H2876 H 0.44634 0.7342 0.7905 0.0
H2877 H 0.46219 0.70025 0.79062 0.0
H2878 H 0.46943 0.72414 0.77572 0.0
H2879 H 0.57647 0.74566 0.77686 0.0
H2880 H 0.59258 0.69829 0.78293 0.0
H2881 H 0.51159 0.67929 0.80146 0.0
C2882 C 0.48121 0.78767 0.7953 0.0
C2883 C 0.49259 0.814 0.79195 0.0
C2884 C 0.51876 0.81559 0.78484 0.0
C2885 C 0.53388 0.79141 0.78163 0.0
C2886 C 0.52245 0.76579 0.78549 0.0
C2887 C 0.4966 0.76376 0.79208 0.0
C2888 C 0.49031 0.73415 0.79666 0.0
C2889 C 0.4852 0.7321 0.81348 0.0
C2890 C 0.4656 0.7225 0.78784 0.0
C2891 C 0.51716 0.72006 0.79223 0.0
C2892 C 0.53525 0.73852 0.78556 0.0
C2893 C 0.56227 0.73087 0.78179 0.0
C2894 C 0.57126 0.7039 0.7853 0.0
C2895 C 0.55333 0.685 0.7926 0.0
C2896 C 0.52569 0.69305 0.79566 0.0
H2897 H 0.45415 0.20004 0.05587 0.0
H2898 H 0.39921 0.27103 0.05147 0.0
H2899 H 0.43923 0.30045 0.04457 0.0
H2900 H 0.506 0.23449 0.07376 0.0
H2901 H 0.53449 0.2162 0.06524 0.0
H2902 H 0.5012 0.19964 0.06687 0.0
H2903 H 0.50022 0.19116 0.0385 0.0
H2904 H 0.5337 0.20765 0.03678 0.0
H2905 H 0.50472 0.22006 0.026 0.0
H2906 H 0.48564 0.3234 0.04191 0.0
H2907 H 0.53458 0.33813 0.04408 0.0
H2908 H 0.55919 0.25215 0.05039 0.0
C2909 C 0.45037 0.22155 0.05297 0.0
C2910 C 0.42355 0.23321 0.0541 0.0
C2911 C 0.41959 0.26164 0.0506 0.0
C2912 C 0.44217 0.27848 0.04662 0.0
C2913 C 0.46853 0.26654 0.0461 0.0
C2914 C 0.47269 0.23866 0.04909 0.0
C2915 C 0.50332 0.23159 0.04951 0.0
C2916 C 0.51173 0.21981 0.06474 0.0
C2917 C 0.51093 0.21142 0.03694 0.0
C2918 C 0.51577 0.26005 0.04689 0.0
C2919 C 0.4954 0.27986 0.04468 0.0
C2920 C 0.5018 0.30801 0.04333 0.0
C2921 C 0.52967 0.31618 0.04461 0.0
C2922 C 0.55075 0.2963 0.04733 0.0
C2923 C 0.54366 0.26783 0.04808 0.0
H2924 H 0.93169 0.70821 0.19669 0.0
H2925 H 0.00043 0.65617 0.21056 0.0
H2926 H 0.0272 0.69802 0.21738 0.0
H2927 H 0.96986 0.75424 0.17823 0.0
H2928 H 0.95018 0.78493 0.18279 0.0
H2929 H 0.93358 0.75155 0.18299 0.0
H2930 H 0.91841 0.75927 0.21023 0.0
H2931 H 0.9349 0.79294 0.21009 0.0
H2932 H 0.9441 0.76775 0.22405 0.0
H2933 H 0.04964 0.74451 0.21785 0.0
H2934 H 0.06634 0.79131 0.21116 0.0
H2935 H 0.9834 0.81333 0.19646 0.0
C2936 C 0.95189 0.7056 0.20178 0.0
C2937 C 0.96392 0.67901 0.20323 0.0
C2938 C 0.99079 0.6764 0.20944 0.0
C2939 C 0.00607 0.70006 0.21343 0.0
C2940 C 0.99414 0.72613 0.2112 0.0
C2941 C 0.96753 0.72903 0.20561 0.0
C2942 C 0.96115 0.75909 0.20198 0.0
C2943 C 0.95326 0.76263 0.18553 0.0
C2944 C 0.93828 0.77043 0.2122 0.0
C2945 C 0.98891 0.77234 0.20544 0.0
C2946 C 0.0074 0.75317 0.21118 0.0
C2947 C 0.03518 0.75987 0.2137 0.0
C2948 C 0.0445 0.78651 0.20982 0.0
C2949 C 0.02618 0.80598 0.20327 0.0
C2950 C -0.00216 0.79904 0.20161 0.0
H2951 H 0.51677 0.69167 0.44929 0.0
H2952 H 0.57985 0.75344 0.45899 0.0
H2953 H 0.54336 0.78895 0.46208 0.0
H2954 H 0.47971 0.73107 0.42649 0.0
H2955 H 0.44563 0.71899 0.43168 0.0
H2956 H 0.47521 0.69684 0.43429 0.0
H2957 H 0.46371 0.69187 0.46221 0.0
H2958 H 0.43364 0.71367 0.45966 0.0
H2959 H 0.45931 0.72258 0.47341 0.0
H2960 H 0.5017 0.81929 0.45878 0.0
H2961 H 0.45811 0.84143 0.45049 0.0
H2962 H 0.42237 0.75993 0.44256 0.0
C2963 C 0.52285 0.71234 0.45276 0.0
C2964 C 0.55114 0.71975 0.45397 0.0
C2965 C 0.55828 0.74726 0.45809 0.0
C2966 C 0.53768 0.76758 0.45988 0.0
C2967 C 0.51004 0.75999 0.45767 0.0
C2968 C 0.50256 0.73288 0.45443 0.0
C2969 C 0.47206 0.73081 0.45048 0.0
C2970 C 0.46794 0.71874 0.43481 0.0
C2971 C 0.45625 0.71373 0.46214 0.0
C2972 C 0.46395 0.76116 0.45115 0.0
C2973 C 0.48594 0.77762 0.45562 0.0
C2974 C 0.48413 0.80656 0.45564 0.0
C2975 C 0.45933 0.81896 0.45082 0.0
C2976 C 0.4368 0.80242 0.44591 0.0
C2977 C 0.43908 0.77316 0.44641 0.0
H2978 H 0.4268 0.22351 0.68496 0.0
H2979 H 0.48259 0.16544 0.70655 0.0
H2980 H 0.51493 0.20401 0.71204 0.0
H2981 H 0.47574 0.25912 0.6664 0.0
H2982 H 0.46019 0.29307 0.66801 0.0
H2983 H 0.43872 0.26258 0.66875 0.0
H2984 H 0.4192 0.27783 0.69424 0.0
H2985 H 0.44035 0.30872 0.69349 0.0
H2986 H 0.4428 0.28566 0.70918 0.0
H2987 H 0.54491 0.24712 0.71088 0.0
H2988 H 0.56841 0.29124 0.70447 0.0
H2989 H 0.49267 0.32068 0.68366 0.0
C2990 C 0.44532 0.21901 0.69134 0.0
C2991 C 0.45211 0.19145 0.69535 0.0
C2992 C 0.47678 0.18641 0.70348 0.0
C2993 C 0.49533 0.20821 0.70662 0.0
C2994 C 0.48868 0.23494 0.70176 0.0
C2995 C 0.46397 0.24045 0.69452 0.0
C2996 C 0.46291 0.27015 0.689 0.0
C2997 C 0.45919 0.27127 0.67204 0.0
C2998 C 0.43996 0.28656 0.69696 0.0
C2999 C 0.49142 0.28013 0.69359 0.0
C3000 C 0.50588 0.25973 0.70113 0.0
C3001 C 0.53354 0.26345 0.70529 0.0
C3002 C 0.54677 0.28854 0.70154 0.0
C3003 C 0.53237 0.3095 0.69362 0.0
C3004 C 0.50419 0.30528 0.68989 0.0
H3005 H 0.06354 0.22543 0.93967 0.0
H3006 H 0.03495 0.14004 0.94271 0.0
H3007 H 0.98794 0.15669 0.94906 0.0
H3008 H 0.01813 0.25427 0.96959 0.0
H3009 H 0.01267 0.28611 0.95947 0.0
H3010 H 0.04494 0.26746 0.95755 0.0
H3011 H 0.03803 0.26559 0.92907 0.0
H3012 H 0.00593 0.28427 0.9309 0.0
H3013 H 0.00642 0.25106 0.92166 0.0
H3014 H 0.94288 0.18253 0.95131 0.0
H3015 H 0.90368 0.21533 0.94888 0.0
H3016 H 0.96196 0.28377 0.94508 0.0
C3017 C 0.04758 0.21019 0.94202 0.0
C3018 C 0.05295 0.18142 0.94073 0.0
C3019 C 0.03137 0.16219 0.9437 0.0
C3020 C 0.00461 0.17145 0.94737 0.0
C3021 C -0.00014 0.19999 0.94822 0.0
C3022 C 0.02082 0.21907 0.94573 0.0
C3023 C 0.00982 0.24853 0.94589 0.0
C3024 C 0.02212 0.26506 0.9589 0.0
C3025 C 0.01537 0.2632 0.93099 0.0
C3026 C 0.97918 0.24302 0.94818 0.0
C3027 C 0.97387 0.21492 0.94974 0.0
C3028 C 0.94682 0.20462 0.95044 0.0
C3029 C 0.92468 0.2234 0.94905 0.0
C3030 C 0.92974 0.25214 0.94693 0.0
C3031 C 0.95736 0.26204 0.94703 0.0
H3032 H 0.98306 0.82011 0.68865 0.0
H3033 H 0.8999 0.78748 0.69512 0.0
H3034 H 0.91979 0.74275 0.70327 0.0
H3035 H 0.00913 0.76397 0.67192 0.0
H3036 H 0.04344 0.76546 0.67988 0.0
H3037 H 0.02325 0.79663 0.67821 0.0
H3038 H 0.02831 0.80556 0.70641 0.0
H3039 H 0.04873 0.77431 0.70817 0.0
H3040 H 0.01812 0.77896 0.7194 0.0
H3041 H 0.94775 0.69966 0.70565 0.0
H3042 H 0.98137 0.66167 0.70185 0.0
H3043 H 0.04652 0.72219 0.694 0.0
C3044 C 0.96901 0.80389 0.69227 0.0
C3045 C 0.93993 0.80727 0.69127 0.0
C3046 C 0.92225 0.78539 0.69585 0.0
C3047 C 0.93338 0.75995 0.70057 0.0
C3048 C 0.96218 0.75691 0.70083 0.0
C3049 C 0.97977 0.77842 0.69694 0.0
C3050 C 0.00967 0.76881 0.69613 0.0
C3051 C 0.02206 0.77401 0.68062 0.0
C3052 C 0.02724 0.78274 0.70825 0.0
C3053 C 0.00594 0.73813 0.6992 0.0
C3054 C 0.97849 0.73179 0.70225 0.0
C3055 C 0.9694 0.70442 0.70366 0.0
C3056 C 0.98861 0.68298 0.70142 0.0
C3057 C 0.01654 0.68906 0.69772 0.0
C3058 C 0.02545 0.71697 0.69716 0.0
H3059 H 0.01308 0.29086 0.44286 0.0
H3060 H 0.08309 0.23768 0.45346 0.0
H3061 H 0.05112 0.19832 0.45739 0.0
H3062 H 0.96136 0.25604 0.4687 0.0
H3063 H 0.93383 0.26077 0.4554 0.0
H3064 H 0.96151 0.28593 0.45665 0.0
H3065 H 0.97149 0.27953 0.42862 0.0
H3066 H 0.94419 0.25425 0.42731 0.0
H3067 H 0.9789 0.24525 0.42158 0.0
H3068 H 0.01293 0.16289 0.45488 0.0
H3069 H 0.97136 0.13561 0.4478 0.0
H3070 H 0.92652 0.21243 0.43985 0.0
C3071 C 0.02162 0.27122 0.44656 0.0
C3072 C 0.05055 0.26737 0.44782 0.0
C3073 C 0.06095 0.2412 0.45246 0.0
C3074 C 0.04294 0.21868 0.45475 0.0
C3075 C 0.01458 0.2228 0.45263 0.0
C3076 C 0.00393 0.24861 0.44894 0.0
C3077 C 0.97316 0.24703 0.44572 0.0
C3078 C 0.95648 0.26341 0.45731 0.0
C3079 C 0.96658 0.25709 0.42987 0.0
C3080 C 0.96851 0.2161 0.44734 0.0
C3081 C 0.99247 0.20242 0.45152 0.0
C3082 C 0.99382 0.17343 0.45201 0.0
C3083 C 0.97017 0.15809 0.44791 0.0
C3084 C 0.94563 0.17184 0.44336 0.0
C3085 C 0.94477 0.2012 0.44349 0.0
H3086 H 0.45363 0.28641 0.20133 0.0
H3087 H 0.51691 0.34835 0.21035 0.0
H3088 H 0.5521 0.31125 0.2122 0.0
H3089 H 0.48546 0.22776 0.2242 0.0
H3090 H 0.47515 0.20261 0.21045 0.0
H3091 H 0.45403 0.23295 0.2137 0.0
H3092 H 0.45709 0.24525 0.1858 0.0
H3093 H 0.47852 0.21539 0.18248 0.0
H3094 H 0.49073 0.24946 0.17731 0.0
H3095 H 0.58159 0.26915 0.20779 0.0
H3096 H 0.60235 0.2254 0.19868 0.0
H3097 H 0.5198 0.19113 0.19234 0.0
C3098 C 0.47463 0.29211 0.20437 0.0
C3099 C 0.48248 0.32029 0.20574 0.0
C3100 C 0.51036 0.3269 0.20933 0.0
C3101 C 0.53052 0.30593 0.21042 0.0
C3102 C 0.5224 0.27846 0.20806 0.0
C3103 C 0.49499 0.27147 0.20536 0.0
C3104 C 0.49216 0.24109 0.20123 0.0
C3105 C 0.47573 0.22517 0.21311 0.0
C3106 C 0.47886 0.23763 0.18579 0.0
C3107 C 0.52237 0.23249 0.20117 0.0
C3108 C 0.53949 0.25413 0.20543 0.0
C3109 C 0.56836 0.25185 0.2048 0.0
C3110 C 0.57997 0.22696 0.19953 0.0
C3111 C 0.56273 0.20479 0.19484 0.0
C3112 C 0.53359 0.20753 0.19601 0.0
H3113 H 0.56377 0.76716 0.93535 0.0
H3114 H 0.52946 0.8459 0.95 0.0
H3115 H 0.48697 0.82166 0.95834 0.0
H3116 H 0.50479 0.74265 0.91951 0.0
H3117 H 0.50974 0.70673 0.92454 0.0
H3118 H 0.53927 0.72923 0.92263 0.0
H3119 H 0.5547 0.71721 0.94941 0.0
H3120 H 0.52504 0.69462 0.95142 0.0
H3121 H 0.53083 0.72224 0.96456 0.0
H3122 H 0.44582 0.7903 0.9613 0.0
H3123 H 0.40904 0.75524 0.95762 0.0
H3124 H 0.47043 0.69702 0.94106 0.0
C3125 C 0.54768 0.77927 0.94069 0.0
C3126 C 0.54997 0.80843 0.94207 0.0
C3127 C 0.52821 0.82352 0.94888 0.0
C3128 C 0.50407 0.80989 0.95373 0.0
C3129 C 0.50217 0.78118 0.95181 0.0
C3130 C 0.5235 0.76603 0.94551 0.0
C3131 C 0.51514 0.73608 0.94296 0.0
C3132 C 0.51735 0.72825 0.92644 0.0
C3133 C 0.53246 0.71638 0.95267 0.0
C3134 C 0.48525 0.73703 0.94809 0.0
C3135 C 0.47832 0.76304 0.95347 0.0
C3136 C 0.45114 0.76971 0.9574 0.0
C3137 C 0.43037 0.74965 0.95525 0.0
C3138 C 0.43689 0.72335 0.9491 0.0
C3139 C 0.46485 0.71671 0.94604 0.0
H3140 H 0.95509 0.20529 0.79457 0.0
H3141 H 0.02375 0.15562 0.77833 0.0
H3142 H 0.05074 0.19847 0.77374 0.0
H3143 H 0.96714 0.26889 0.77048 0.0
H3144 H 0.95809 0.29164 0.7856 0.0
H3145 H 0.94177 0.25803 0.78398 0.0
H3146 H 0.95753 0.246 0.81068 0.0
H3147 H 0.97407 0.2793 0.81234 0.0
H3148 H 0.99389 0.24803 0.81535 0.0
H3149 H 0.07301 0.24541 0.77513 0.0
H3150 H 0.08907 0.29184 0.78299 0.0
H3151 H 0.00634 0.31061 0.79921 0.0
C3152 C 0.97533 0.20346 0.78944 0.0
C3153 C 0.98721 0.17715 0.78662 0.0
C3154 C 0.01417 0.1756 0.78042 0.0
C3155 C 0.0296 0.19984 0.77774 0.0
C3156 C 0.01777 0.22545 0.78131 0.0
C3157 C 0.99112 0.22741 0.78693 0.0
C3158 C 0.98468 0.25674 0.79197 0.0
C3159 C 0.96155 0.26958 0.78243 0.0
C3160 C 0.97712 0.25754 0.80856 0.0
C3161 C 0.01231 0.27067 0.78902 0.0
C3162 C 0.0309 0.2525 0.78251 0.0
C3163 C 0.05847 0.25998 0.77995 0.0
C3164 C 0.06742 0.28641 0.78449 0.0
C3165 C 0.04896 0.30489 0.79172 0.0
C3166 C 0.02089 0.29709 0.79358 0.0
H3167 H 0.57907 0.26995 0.54033 0.0
H3168 H 0.55535 0.18499 0.53035 0.0
H3169 H 0.50664 0.19984 0.52759 0.0
H3170 H 0.52771 0.283 0.56349 0.0
H3171 H 0.52147 0.31876 0.55853 0.0
H3172 H 0.55506 0.30372 0.55545 0.0
H3173 H 0.5526 0.31664 0.52762 0.0
H3174 H 0.51903 0.33226 0.53063 0.0
H3175 H 0.52319 0.3057 0.51671 0.0
H3176 H 0.46031 0.22115 0.53174 0.0
H3177 H 0.42034 0.24768 0.54133 0.0
H3178 H 0.47386 0.31889 0.54877 0.0
C3179 C 0.56386 0.25468 0.53688 0.0
C3180 C 0.57103 0.22632 0.53552 0.0
C3181 C 0.55038 0.20686 0.53138 0.0
C3182 C 0.52262 0.21513 0.52975 0.0
C3183 C 0.51594 0.24297 0.53213 0.0
C3184 C 0.53607 0.26258 0.53535 0.0
C3185 C 0.52318 0.29019 0.53957 0.0
C3186 C 0.53239 0.29942 0.55518 0.0
C3187 C 0.52989 0.31252 0.52793 0.0
C3188 C 0.49272 0.28252 0.53923 0.0
C3189 C 0.48892 0.25539 0.53457 0.0
C3190 C 0.46294 0.24264 0.535 0.0
C3191 C 0.44038 0.25781 0.54057 0.0
C3192 C 0.444 0.28538 0.54573 0.0
C3193 C 0.47036 0.29805 0.54464 0.0
H3194 H 0.55796 0.77906 0.30815 0.0
H3195 H 0.50859 0.83593 0.28174 0.0
H3196 H 0.47578 0.798 0.27604 0.0
H3197 H 0.54231 0.71343 0.28589 0.0
H3198 H 0.54092 0.69314 0.30267 0.0
H3199 H 0.56408 0.72252 0.30141 0.0
H3200 H 0.54191 0.74321 0.32511 0.0
H3201 H 0.51841 0.71433 0.32631 0.0
H3202 H 0.50496 0.74927 0.3256 0.0
H3203 H 0.44369 0.7572 0.27753 0.0
H3204 H 0.41621 0.7162 0.28515 0.0
H3205 H 0.48634 0.68639 0.31086 0.0
C3206 C 0.54098 0.78324 0.3006 0.0
C3207 C 0.53589 0.81039 0.29533 0.0
C3208 C 0.51295 0.81522 0.28584 0.0
C3209 C 0.49422 0.79378 0.28252 0.0
C3210 C 0.49888 0.76761 0.28866 0.0
C3211 C 0.52198 0.76215 0.29732 0.0
C3212 C 0.52032 0.73357 0.30427 0.0
C3213 C 0.54327 0.71454 0.29819 0.0
C3214 C 0.52145 0.73523 0.32132 0.0
C3215 C 0.49199 0.72448 0.29888 0.0
C3216 C 0.48016 0.7441 0.28965 0.0
C3217 C 0.453 0.74138 0.28446 0.0
C3218 C 0.43749 0.71811 0.28891 0.0
C3219 C 0.44913 0.69808 0.29858 0.0
C3220 C 0.47691 0.70117 0.30335 0.0
H3221 H 0.95216 0.78803 0.05397 0.0
H3222 H 0.8998 0.71861 0.04126 0.0
H3223 H 0.94152 0.68976 0.03727 0.0
H3224 H 0.01328 0.77103 0.02924 0.0
H3225 H 0.03746 0.78157 0.04342 0.0
H3226 H 0.00415 0.79845 0.04194 0.0
H3227 H 0.99409 0.78662 0.06945 0.0
H3228 H 0.0271 0.76951 0.07097 0.0
H3229 H 0.9957 0.75092 0.07547 0.0
H3230 H 0.98767 0.66643 0.03887 0.0
H3231 H 0.03461 0.65051 0.04583 0.0
H3232 H 0.05675 0.73501 0.05791 0.0
C3233 C 0.94951 0.76712 0.04977 0.0
C3234 C 0.92281 0.7556 0.04779 0.0
C3235 C 0.92013 0.72786 0.04275 0.0
C3236 C 0.9437 0.71136 0.0404 0.0
C3237 C 0.96975 0.72297 0.04309 0.0
C3238 C 0.9728 0.75032 0.04754 0.0
C3239 C 0.00261 0.75674 0.05161 0.0
C3240 C 0.01511 0.77822 0.04091 0.0
C3241 C 0.00499 0.7665 0.06783 0.0
C3242 C 0.0156 0.72841 0.04942 0.0
C3243 C 0.99645 0.70935 0.04422 0.0
C3244 C 0.00301 0.68129 0.04263 0.0
C3245 C 0.02969 0.67242 0.04667 0.0
C3246 C 0.04936 0.69153 0.05237 0.0
C3247 C 0.04231 0.71995 0.05341 0.0
loop_
_geom_bond_atom_site_label_1
_geom_bond_atom_site_label_2
_geom_bond_distance
_geom_bond_site_symmetry_2
_ccdc_geom_bond_type
Co0 O3 1.970 . S
Co0 N17 1.989 . S
Co0 O25 1.967 . S
Co0 O32 1.920 . S
Co1 O4 1.966 . S
Co1 N10 2.022 . S
Co1 N18 1.993 . S
Co1 O26 1.941 . S
C2 O3 1.258 . S
C2 O4 1.263 . S
O3 Co0 1.970 . S
O3 C2 1.258 . S
O4 Co1 1.966 . S
O4 C2 1.263 . S
C5 O6 1.235 . S
C5 O32 1.289 . S
O6 C5 1.235 . S
C7 C9 1.400 . S
C7 N10 1.351 . S
C7 C12 1.501 . S
C8 C9 1.387 1_565 S
C8 N11 1.341 1_565 S
C9 C7 1.400 . S
C9 C8 1.387 1_545 S
N10 Co1 2.022 . S
N10 C7 1.351 . S
N10 N11 1.365 . S
N11 C8 1.341 1_545 S
N11 N10 1.365 . S
N11 H31 0.862 . S
C12 C7 1.501 . S
C12 H13 0.961 . S
C12 H14 0.961 . S
C12 H15 0.960 . S
H13 C12 0.961 . S
H14 C12 0.961 . S
H15 C12 0.960 . S
C16 N17 1.342 . S
C16 C20 1.401 . S
C16 C21 1.499 . S
N17 Co0 1.989 . S
N17 C16 1.342 . S
N17 N18 1.388 . S
N18 Co1 1.993 . S
N18 N17 1.388 . S
N18 C19 1.346 . S
C19 N18 1.346 . S
C19 C20 1.396 . S
C19 C29 1.510 . S
C20 C16 1.401 . S
C20 C19 1.396 . S
C21 C16 1.499 . S
C21 H22 0.959 . S
C21 H23 0.960 . S
C21 H24 0.961 . S
H22 C21 0.959 . S
H23 C21 0.960 . S
H24 C21 0.961 . S
O25 Co0 1.967 . S
O25 C33 1.258 . S
O26 Co1 1.941 . S
O26 C33 1.266 . S
H27 C29 0.959 . S
H28 C29 0.961 . S
C29 C19 1.510 . S
C29 H27 0.959 . S
C29 H28 0.961 . S
C29 H30 0.960 . S
H30 C29 0.960 . S
H31 N11 0.862 . S
O32 Co0 1.920 . S
O32 C5 1.289 . S
C33 O25 1.258 . S
C33 O26 1.266 . S
Co34 O37 1.970 . S
Co34 N51 1.989 . S
Co34 O59 1.967 . S
Co34 O66 1.920 . S
Co35 O38 1.966 . S
Co35 N44 2.022 . S
Co35 N52 1.993 . S
Co35 O60 1.941 . S
C36 O37 1.258 . S
C36 O38 1.263 . S
O37 Co34 1.970 . S
O37 C36 1.258 . S
O38 Co35 1.966 . S
O38 C36 1.263 . S
C39 O40 1.235 . S
C39 O66 1.289 . S
O40 C39 1.235 . S
C41 C43 1.400 . S
C41 N44 1.351 . S
C41 C46 1.501 . S
C42 C43 1.387 . S
C42 N45 1.341 . S
C43 C41 1.400 . S
C43 C42 1.387 . S
N44 Co35 2.022 . S
N44 C41 1.351 . S
N44 N45 1.365 . S
N45 C42 1.341 . S
N45 N44 1.365 . S
N45 H65 0.862 . S
C46 C41 1.501 . S
C46 H47 0.961 . S
C46 H48 0.961 . S
C46 H49 0.960 . S
H47 C46 0.961 . S
H48 C46 0.961 . S
H49 C46 0.960 . S
C50 N51 1.342 . S
C50 C54 1.401 . S
C50 C55 1.499 . S
N51 Co34 1.989 . S
N51 C50 1.342 . S
N51 N52 1.388 . S
N52 Co35 1.993 . S
N52 N51 1.388 . S
N52 C53 1.346 . S
C53 N52 1.346 . S
C53 C54 1.396 . S
C53 C63 1.510 . S
C54 C50 1.401 . S
C54 C53 1.396 . S
C55 C50 1.499 . S
C55 H56 0.959 . S
C55 H57 0.960 . S
C55 H58 0.961 . S
H56 C55 0.959 . S
H57 C55 0.960 . S
H58 C55 0.961 . S
O59 Co34 1.967 . S
O59 C67 1.258 . S
O60 Co35 1.941 . S
O60 C67 1.266 . S
H61 C63 0.959 . S
H62 C63 0.961 . S
C63 C53 1.510 . S
C63 H61 0.959 . S
C63 H62 0.961 . S
C63 H64 0.960 . S
H64 C63 0.960 . S
H65 N45 0.862 . S
O66 Co34 1.920 . S
O66 C39 1.289 . S
C67 O59 1.258 . S
C67 O60 1.266 . S
Co68 O71 1.970 . S
Co68 N85 1.989 . S
Co68 O93 1.967 . S
Co68 O100 1.920 . S
Co69 O72 1.966 . S
Co69 N78 2.022 . S
Co69 N86 1.993 . S
Co69 O94 1.941 . S
C70 O71 1.258 . S
C70 O72 1.263 . S
O71 Co68 1.970 . S
O71 C70 1.258 . S
O72 Co69 1.966 . S
O72 C70 1.263 . S
C73 O74 1.235 . S
C73 O100 1.289 . S
O74 C73 1.235 . S
C75 C77 1.400 . S
C75 N78 1.351 . S
C75 C80 1.501 . S
C76 C77 1.387 1_545 S
C76 N79 1.341 1_545 S
C77 C75 1.400 . S
C77 C76 1.387 1_565 S
N78 Co69 2.022 . S
N78 C75 1.351 . S
N78 N79 1.365 . S
N79 C76 1.341 1_565 S
N79 N78 1.365 . S
N79 H99 0.862 . S
C80 C75 1.501 . S
C80 H81 0.961 . S
C80 H82 0.961 . S
C80 H83 0.960 . S
H81 C80 0.961 . S
H82 C80 0.961 . S
H83 C80 0.960 . S
C84 N85 1.342 . S
C84 C88 1.401 . S
C84 C89 1.499 . S
N85 Co68 1.989 . S
N85 C84 1.342 . S
N85 N86 1.388 . S
N86 Co69 1.993 . S
N86 N85 1.388 . S
N86 C87 1.346 . S
C87 N86 1.346 . S
C87 C88 1.396 . S
C87 C97 1.510 . S
C88 C84 1.401 . S
C88 C87 1.396 . S
C89 C84 1.499 . S
C89 H90 0.959 . S
C89 H91 0.960 . S
C89 H92 0.961 . S
H90 C89 0.959 . S
H91 C89 0.960 . S
H92 C89 0.961 . S
O93 Co68 1.967 . S
O93 C101 1.258 . S
O94 Co69 1.941 . S
O94 C101 1.266 . S
H95 C97 0.959 . S
H96 C97 0.961 . S
C97 C87 1.510 . S
C97 H95 0.959 . S
C97 H96 0.961 . S
C97 H98 0.960 . S
H98 C97 0.960 . S
H99 N79 0.862 . S
O100 Co68 1.920 . S
O100 C73 1.289 . S
C101 O93 1.258 . S
C101 O94 1.266 . S
Co102 O105 1.970 . S
Co102 N119 1.989 . S
Co102 O127 1.967 . S
Co102 O134 1.920 . S
Co103 O106 1.966 . S
Co103 N112 2.022 . S
Co103 N120 1.993 . S
Co103 O128 1.941 . S
C104 O105 1.258 . S
C104 O106 1.263 . S
O105 Co102 1.970 . S
O105 C104 1.258 . S
O106 Co103 1.966 . S
O106 C104 1.263 . S
C107 O108 1.235 . S
C107 O134 1.289 . S
O108 C107 1.235 . S
C109 C111 1.400 . S
C109 N112 1.351 . S
C109 C114 1.501 . S
C110 C111 1.387 . S
C110 N113 1.341 . S
C111 C109 1.400 . S
C111 C110 1.387 . S
N112 Co103 2.022 . S
N112 C109 1.351 . S
N112 N113 1.365 . S
N113 C110 1.341 . S
N113 N112 1.365 . S
N113 H133 0.862 . S
C114 C109 1.501 . S
C114 H115 0.961 . S
C114 H116 0.961 . S
C114 H117 0.960 . S
H115 C114 0.961 . S
H116 C114 0.961 . S
H117 C114 0.960 . S
C118 N119 1.342 . S
C118 C122 1.401 . S
C118 C123 1.499 . S
N119 Co102 1.989 . S
N119 C118 1.342 . S
N119 N120 1.388 . S
N120 Co103 1.993 . S
N120 N119 1.388 . S
N120 C121 1.346 . S
C121 N120 1.346 . S
C121 C122 1.396 . S
C121 C131 1.510 . S
C122 C118 1.401 . S
C122 C121 1.396 . S
C123 C118 1.499 . S
C123 H124 0.959 . S
C123 H125 0.960 . S
C123 H126 0.961 . S
H124 C123 0.959 . S
H125 C123 0.960 . S
H126 C123 0.961 . S
O127 Co102 1.967 . S
O127 C135 1.258 . S
O128 Co103 1.941 . S
O128 C135 1.266 . S
H129 C131 0.959 . S
H130 C131 0.961 . S
C131 C121 1.510 . S
C131 H129 0.959 . S
C131 H130 0.961 . S
C131 H132 0.960 . S
H132 C131 0.960 . S
H133 N113 0.862 . S
O134 Co102 1.920 . S
O134 C107 1.289 . S
C135 O127 1.258 . S
C135 O128 1.266 . S
Co136 O139 1.970 . S
Co136 N153 1.989 . S
Co136 O161 1.967 . S
Co136 O168 1.920 . S
Co137 O140 1.966 . S
Co137 N146 2.022 . S
Co137 N154 1.993 . S
Co137 O162 1.941 . S
C138 O139 1.258 . S
C138 O140 1.263 . S
O139 Co136 1.970 . S
O139 C138 1.258 . S
O140 Co137 1.966 . S
O140 C138 1.263 . S
C141 O142 1.235 . S
C141 O168 1.289 . S
O142 C141 1.235 . S
C143 C145 1.400 . S
C143 N146 1.351 . S
C143 C148 1.501 . S
C144 C145 1.387 1_545 S
C144 N147 1.341 1_545 S
C145 C143 1.400 . S
C145 C144 1.387 1_565 S
N146 Co137 2.022 . S
N146 C143 1.351 . S
N146 N147 1.365 . S
N147 C144 1.341 1_565 S
N147 N146 1.365 . S
N147 H167 0.862 . S
C148 C143 1.501 . S
C148 H149 0.961 . S
C148 H150 0.961 . S
C148 H151 0.960 . S
H149 C148 0.961 . S
H150 C148 0.961 . S
H151 C148 0.960 . S
C152 N153 1.342 . S
C152 C156 1.401 . S
C152 C157 1.499 . S
N153 Co136 1.989 . S
N153 C152 1.342 . S
N153 N154 1.388 . S
N154 Co137 1.993 . S
N154 N153 1.388 . S
N154 C155 1.346 . S
C155 N154 1.346 . S
C155 C156 1.396 . S
C155 C165 1.510 . S
C156 C152 1.401 . S
C156 C155 1.396 . S
C157 C152 1.499 . S
C157 H158 0.959 . S
C157 H159 0.960 . S
C157 H160 0.961 . S
H158 C157 0.959 . S
H159 C157 0.960 . S
H160 C157 0.961 . S
O161 Co136 1.967 . S
O161 C169 1.258 . S
O162 Co137 1.941 . S
O162 C169 1.266 . S
H163 C165 0.959 . S
H164 C165 0.961 . S
C165 C155 1.510 . S
C165 H163 0.959 . S
C165 H164 0.961 . S
C165 H166 0.960 . S
H166 C165 0.960 . S
H167 N147 0.862 . S
O168 Co136 1.920 . S
O168 C141 1.289 . S
C169 O161 1.258 . S
C169 O162 1.266 . S
Co170 O173 1.970 . S
Co170 N187 1.989 . S
Co170 O195 1.967 . S
Co170 O202 1.920 . S
Co171 O174 1.966 . S
Co171 N180 2.022 . S
Co171 N188 1.993 . S
Co171 O196 1.941 . S
C172 O173 1.258 . S
C172 O174 1.263 . S
O173 Co170 1.970 . S
O173 C172 1.258 . S
O174 Co171 1.966 . S
O174 C172 1.263 . S
C175 O176 1.235 . S
C175 O202 1.289 . S
O176 C175 1.235 . S
C177 C179 1.400 . S
C177 N180 1.351 . S
C177 C182 1.501 . S
C178 C179 1.387 . S
C178 N181 1.341 . S
C179 C177 1.400 . S
C179 C178 1.387 . S
N180 Co171 2.022 . S
N180 C177 1.351 . S
N180 N181 1.365 . S
N181 C178 1.341 . S
N181 N180 1.365 . S
N181 H201 0.862 . S
C182 C177 1.501 . S
C182 H183 0.961 . S
C182 H184 0.961 . S
C182 H185 0.960 . S
H183 C182 0.961 . S
H184 C182 0.961 . S
H185 C182 0.960 . S
C186 N187 1.342 . S
C186 C190 1.401 . S
C186 C191 1.499 . S
N187 Co170 1.989 . S
N187 C186 1.342 . S
N187 N188 1.388 . S
N188 Co171 1.993 . S
N188 N187 1.388 . S
N188 C189 1.346 . S
C189 N188 1.346 . S
C189 C190 1.396 . S
C189 C199 1.510 . S
C190 C186 1.401 . S
C190 C189 1.396 . S
C191 C186 1.499 . S
C191 H192 0.959 . S
C191 H193 0.960 . S
C191 H194 0.961 . S
H192 C191 0.959 . S
H193 C191 0.960 . S
H194 C191 0.961 . S
O195 Co170 1.967 . S
O195 C203 1.258 . S
O196 Co171 1.941 . S
O196 C203 1.266 . S
H197 C199 0.959 . S
H198 C199 0.961 . S
C199 C189 1.510 . S
C199 H197 0.959 . S
C199 H198 0.961 . S
C199 H200 0.960 . S
H200 C199 0.960 . S
H201 N181 0.862 . S
O202 Co170 1.920 . S
O202 C175 1.289 . S
C203 O195 1.258 . S
C203 O196 1.266 . S
Co204 O207 1.970 . S
Co204 N221 1.989 . S
Co204 O229 1.967 . S
Co204 O236 1.920 . S
Co205 O208 1.966 . S
Co205 N214 2.022 . S
Co205 N222 1.993 . S
Co205 O230 1.941 . S
C206 O207 1.258 . S
C206 O208 1.263 . S
O207 Co204 1.970 . S
O207 C206 1.258 . S
O208 Co205 1.966 . S
O208 C206 1.263 . S
C209 O210 1.235 . S
C209 O236 1.289 . S
O210 C209 1.235 . S
C211 C213 1.400 . S
C211 N214 1.351 . S
C211 C216 1.501 . S
C212 C213 1.387 1_565 S
C212 N215 1.341 1_565 S
C213 C211 1.400 . S
C213 C212 1.387 1_545 S
N214 Co205 2.022 . S
N214 C211 1.351 . S
N214 N215 1.365 . S
N215 C212 1.341 1_545 S
N215 N214 1.365 . S
N215 H235 0.862 . S
C216 C211 1.501 . S
C216 H217 0.961 . S
C216 H218 0.961 . S
C216 H219 0.960 . S
H217 C216 0.961 . S
H218 C216 0.961 . S
H219 C216 0.960 . S
C220 N221 1.342 . S
C220 C224 1.401 . S
C220 C225 1.499 . S
N221 Co204 1.989 . S
N221 C220 1.342 . S
N221 N222 1.388 . S
N222 Co205 1.993 . S
N222 N221 1.388 . S
N222 C223 1.346 . S
C223 N222 1.346 . S
C223 C224 1.396 . S
C223 C233 1.510 . S
C224 C220 1.401 . S
C224 C223 1.396 . S
C225 C220 1.499 . S
C225 H226 0.959 . S
C225 H227 0.960 . S
C225 H228 0.961 . S
H226 C225 0.959 . S
H227 C225 0.960 . S
H228 C225 0.961 . S
O229 Co204 1.967 . S
O229 C237 1.258 . S
O230 Co205 1.941 . S
O230 C237 1.266 . S
H231 C233 0.959 . S
H232 C233 0.961 . S
C233 C223 1.510 . S
C233 H231 0.959 . S
C233 H232 0.961 . S
C233 H234 0.960 . S
H234 C233 0.960 . S
H235 N215 0.862 . S
O236 Co204 1.920 . S
O236 C209 1.289 . S
C237 O229 1.258 . S
C237 O230 1.266 . S
Co238 O241 1.970 . S
Co238 N255 1.989 . S
Co238 O263 1.967 . S
Co238 O270 1.920 . S
Co239 O242 1.966 . S
Co239 N248 2.022 . S
Co239 N256 1.993 . S
Co239 O264 1.941 . S
C240 O241 1.258 . S
C240 O242 1.263 . S
O241 Co238 1.970 . S
O241 C240 1.258 . S
O242 Co239 1.966 . S
O242 C240 1.263 . S
C243 O244 1.235 . S
C243 O270 1.289 . S
O244 C243 1.235 . S
C245 C247 1.400 . S
C245 N248 1.351 . S
C245 C250 1.501 . S
C246 C247 1.387 . S
C246 N249 1.341 . S
C247 C245 1.400 . S
C247 C246 1.387 . S
N248 Co239 2.022 . S
N248 C245 1.351 . S
N248 N249 1.365 . S
N249 C246 1.341 . S
N249 N248 1.365 . S
N249 H269 0.862 . S
C250 C245 1.501 . S
C250 H251 0.961 . S
C250 H252 0.961 . S
C250 H253 0.960 . S
H251 C250 0.961 . S
H252 C250 0.961 . S
H253 C250 0.960 . S
C254 N255 1.342 . S
C254 C258 1.401 . S
C254 C259 1.499 . S
N255 Co238 1.989 . S
N255 C254 1.342 . S
N255 N256 1.388 . S
N256 Co239 1.993 . S
N256 N255 1.388 . S
N256 C257 1.346 . S
C257 N256 1.346 . S
C257 C258 1.396 . S
C257 C267 1.510 . S
C258 C254 1.401 . S
C258 C257 1.396 . S
C259 C254 1.499 . S
C259 H260 0.959 . S
C259 H261 0.960 . S
C259 H262 0.961 . S
H260 C259 0.959 . S
H261 C259 0.960 . S
H262 C259 0.961 . S
O263 Co238 1.967 . S
O263 C271 1.258 . S
O264 Co239 1.941 . S
O264 C271 1.266 . S
H265 C267 0.959 . S
H266 C267 0.961 . S
C267 C257 1.510 . S
C267 H265 0.959 . S
C267 H266 0.961 . S
C267 H268 0.960 . S
H268 C267 0.960 . S
H269 N249 0.862 . S
O270 Co238 1.920 . S
O270 C243 1.289 . S
C271 O263 1.258 . S
C271 O264 1.266 . S
Co272 O275 1.970 . S
Co272 N289 1.989 . S
Co272 O297 1.967 . S
Co272 O304 1.920 . S
Co273 O276 1.966 . S
Co273 N282 2.022 . S
Co273 N290 1.993 . S
Co273 O298 1.941 . S
C274 O275 1.258 . S
C274 O276 1.263 . S
O275 Co272 1.970 . S
O275 C274 1.258 . S
O276 Co273 1.966 . S
O276 C274 1.263 . S
C277 O278 1.235 . S
C277 O304 1.289 . S
O278 C277 1.235 . S
C279 C281 1.400 . S
C279 N282 1.351 . S
C279 C284 1.501 . S
C280 C281 1.387 1_545 S
C280 N283 1.341 1_545 S
C281 C279 1.400 . S
C281 C280 1.387 1_565 S
N282 Co273 2.022 . S
N282 C279 1.351 . S
N282 N283 1.365 . S
N283 C280 1.341 1_565 S
N283 N282 1.365 . S
N283 H303 0.862 . S
C284 C279 1.501 . S
C284 H285 0.961 . S
C284 H286 0.961 . S
C284 H287 0.960 . S
H285 C284 0.961 . S
H286 C284 0.961 . S
H287 C284 0.960 . S
C288 N289 1.342 . S
C288 C292 1.401 . S
C288 C293 1.499 . S
N289 Co272 1.989 . S
N289 C288 1.342 . S
N289 N290 1.388 . S
N290 Co273 1.993 . S
N290 N289 1.388 . S
N290 C291 1.346 . S
C291 N290 1.346 . S
C291 C292 1.396 . S
C291 C301 1.510 . S
C292 C288 1.401 . S
C292 C291 1.396 . S
C293 C288 1.499 . S
C293 H294 0.959 . S
C293 H295 0.960 . S
C293 H296 0.961 . S
H294 C293 0.959 . S
H295 C293 0.960 . S
H296 C293 0.961 . S
O297 Co272 1.967 . S
O297 C305 1.258 . S
O298 Co273 1.941 . S
O298 C305 1.266 . S
H299 C301 0.959 . S
H300 C301 0.961 . S
C301 C291 1.510 . S
C301 H299 0.959 . S
C301 H300 0.961 . S
C301 H302 0.960 . S
H302 C301 0.960 . S
H303 N283 0.862 . S
O304 Co272 1.920 . S
O304 C277 1.289 . S
C305 O297 1.258 . S
C305 O298 1.266 . S
Co306 O309 1.970 . S
Co306 N323 1.989 . S
Co306 O331 1.967 . S
Co306 O338 1.920 . S
Co307 O310 1.966 . S
Co307 N316 2.022 . S
Co307 N324 1.993 . S
Co307 O332 1.941 . S
C308 O309 1.258 . S
C308 O310 1.263 . S
O309 Co306 1.970 . S
O309 C308 1.258 . S
O310 Co307 1.966 . S
O310 C308 1.263 . S
C311 O312 1.235 . S
C311 O338 1.289 . S
O312 C311 1.235 . S
C313 C315 1.400 . S
C313 N316 1.351 . S
C313 C318 1.501 . S
C314 C315 1.387 . S
C314 N317 1.341 . S
C315 C313 1.400 . S
C315 C314 1.387 . S
N316 Co307 2.022 . S
N316 C313 1.351 . S
N316 N317 1.365 . S
N317 C314 1.341 . S
N317 N316 1.365 . S
N317 H337 0.862 . S
C318 C313 1.501 . S
C318 H319 0.961 . S
C318 H320 0.961 . S
C318 H321 0.960 . S
H319 C318 0.961 . S
H320 C318 0.961 . S
H321 C318 0.960 . S
C322 N323 1.342 . S
C322 C326 1.401 . S
C322 C327 1.499 . S
N323 Co306 1.989 . S
N323 C322 1.342 . S
N323 N324 1.388 . S
N324 Co307 1.993 . S
N324 N323 1.388 . S
N324 C325 1.346 . S
C325 N324 1.346 . S
C325 C326 1.396 . S
C325 C335 1.510 . S
C326 C322 1.401 . S
C326 C325 1.396 . S
C327 C322 1.499 . S
C327 H328 0.959 . S
C327 H329 0.960 . S
C327 H330 0.961 . S
H328 C327 0.959 . S
H329 C327 0.960 . S
H330 C327 0.961 . S
O331 Co306 1.967 . S
O331 C339 1.258 . S
O332 Co307 1.941 . S
O332 C339 1.266 . S
H333 C335 0.959 . S
H334 C335 0.961 . S
C335 C325 1.510 . S
C335 H333 0.959 . S
C335 H334 0.961 . S
C335 H336 0.960 . S
H336 C335 0.960 . S
H337 N317 0.862 . S
O338 Co306 1.920 . S
O338 C311 1.289 . S
C339 O331 1.258 . S
C339 O332 1.266 . S
Co340 O343 1.970 . S
Co340 N357 1.989 . S
Co340 O365 1.967 . S
Co340 O372 1.920 . S
Co341 O344 1.966 . S
Co341 N350 2.022 . S
Co341 N358 1.993 . S
Co341 O366 1.941 . S
C342 O343 1.258 . S
C342 O344 1.263 . S
O343 Co340 1.970 . S
O343 C342 1.258 . S
O344 Co341 1.966 . S
O344 C342 1.263 . S
C345 O346 1.235 . S
C345 O372 1.289 . S
O346 C345 1.235 . S
C347 C349 1.400 . S
C347 N350 1.351 . S
C347 C352 1.501 . S
C348 C349 1.387 1_565 S
C348 N351 1.341 1_565 S
C349 C347 1.400 . S
C349 C348 1.387 1_545 S
N350 Co341 2.022 . S
N350 C347 1.351 . S
N350 N351 1.365 . S
N351 C348 1.341 1_545 S
N351 N350 1.365 . S
N351 H371 0.862 . S
C352 C347 1.501 . S
C352 H353 0.961 . S
C352 H354 0.961 . S
C352 H355 0.960 . S
H353 C352 0.961 . S
H354 C352 0.961 . S
H355 C352 0.960 . S
C356 N357 1.342 . S
C356 C360 1.401 . S
C356 C361 1.499 . S
N357 Co340 1.989 . S
N357 C356 1.342 . S
N357 N358 1.388 . S
N358 Co341 1.993 . S
N358 N357 1.388 . S
N358 C359 1.346 . S
C359 N358 1.346 . S
C359 C360 1.396 . S
C359 C369 1.510 . S
C360 C356 1.401 . S
C360 C359 1.396 . S
C361 C356 1.499 . S
C361 H362 0.959 . S
C361 H363 0.960 . S
C361 H364 0.961 . S
H362 C361 0.959 . S
H363 C361 0.960 . S
H364 C361 0.961 . S
O365 Co340 1.967 . S
O365 C373 1.258 . S
O366 Co341 1.941 . S
O366 C373 1.266 . S
H367 C369 0.959 . S
H368 C369 0.961 . S
C369 C359 1.510 . S
C369 H367 0.959 . S
C369 H368 0.961 . S
C369 H370 0.960 . S
H370 C369 0.960 . S
H371 N351 0.862 . S
O372 Co340 1.920 . S
O372 C345 1.289 . S
C373 O365 1.258 . S
C373 O366 1.266 . S
Co374 O377 1.970 . S
Co374 N391 1.989 . S
Co374 O399 1.967 . S
Co374 O406 1.920 . S
Co375 O378 1.966 . S
Co375 N384 2.022 . S
Co375 N392 1.993 . S
Co375 O400 1.941 . S
C376 O377 1.258 . S
C376 O378 1.263 . S
O377 Co374 1.970 . S
O377 C376 1.258 . S
O378 Co375 1.966 . S
O378 C376 1.263 . S
C379 O380 1.235 . S
C379 O406 1.289 . S
O380 C379 1.235 . S
C381 C383 1.400 . S
C381 N384 1.351 . S
C381 C386 1.501 . S
C382 C383 1.387 . S
C382 N385 1.341 . S
C383 C381 1.400 . S
C383 C382 1.387 . S
N384 Co375 2.022 . S
N384 C381 1.351 . S
N384 N385 1.365 . S
N385 C382 1.341 . S
N385 N384 1.365 . S
N385 H405 0.862 . S
C386 C381 1.501 . S
C386 H387 0.961 . S
C386 H388 0.961 . S
C386 H389 0.960 . S
H387 C386 0.961 . S
H388 C386 0.961 . S
H389 C386 0.960 . S
C390 N391 1.342 . S
C390 C394 1.401 . S
C390 C395 1.499 . S
N391 Co374 1.989 . S
N391 C390 1.342 . S
N391 N392 1.388 . S
N392 Co375 1.993 . S
N392 N391 1.388 . S
N392 C393 1.346 . S
C393 N392 1.346 . S
C393 C394 1.396 . S
C393 C403 1.510 . S
C394 C390 1.401 . S
C394 C393 1.396 . S
C395 C390 1.499 . S
C395 H396 0.959 . S
C395 H397 0.960 . S
C395 H398 0.961 . S
H396 C395 0.959 . S
H397 C395 0.960 . S
H398 C395 0.961 . S
O399 Co374 1.967 . S
O399 C407 1.258 . S
O400 Co375 1.941 . S
O400 C407 1.266 . S
H401 C403 0.959 . S
H402 C403 0.961 . S
C403 C393 1.510 . S
C403 H401 0.959 . S
C403 H402 0.961 . S
C403 H404 0.960 . S
H404 C403 0.960 . S
H405 N385 0.862 . S
O406 Co374 1.920 . S
O406 C379 1.289 . S
C407 O399 1.258 . S
C407 O400 1.266 . S
Co408 O411 1.970 . S
Co408 N425 1.989 . S
Co408 O433 1.967 . S
Co408 O440 1.920 . S
Co409 O412 1.966 . S
Co409 N418 2.022 . S
Co409 N426 1.993 . S
Co409 O434 1.941 . S
C410 O411 1.258 . S
C410 O412 1.263 . S
O411 Co408 1.970 . S
O411 C410 1.258 . S
O412 Co409 1.966 . S
O412 C410 1.263 . S
C413 O414 1.235 . S
C413 O440 1.289 . S
O414 C413 1.235 . S
C415 C417 1.400 . S
C415 N418 1.351 . S
C415 C420 1.501 . S
C416 C417 1.387 1_565 S
C416 N419 1.341 1_565 S
C417 C415 1.400 . S
C417 C416 1.387 1_545 S
N418 Co409 2.022 . S
N418 C415 1.351 . S
N418 N419 1.365 . S
N419 C416 1.341 1_545 S
N419 N418 1.365 . S
N419 H439 0.862 . S
C420 C415 1.501 . S
C420 H421 0.961 . S
C420 H422 0.961 . S
C420 H423 0.960 . S
H421 C420 0.961 . S
H422 C420 0.961 . S
H423 C420 0.960 . S
C424 N425 1.342 . S
C424 C428 1.401 . S
C424 C429 1.499 . S
N425 Co408 1.989 . S
N425 C424 1.342 . S
N425 N426 1.388 . S
N426 Co409 1.993 . S
N426 N425 1.388 . S
N426 C427 1.346 . S
C427 N426 1.346 . S
C427 C428 1.396 . S
C427 C437 1.510 . S
C428 C424 1.401 . S
C428 C427 1.396 . S
C429 C424 1.499 . S
C429 H430 0.959 . S
C429 H431 0.960 . S
C429 H432 0.961 . S
H430 C429 0.959 . S
H431 C429 0.960 . S
H432 C429 0.961 . S
O433 Co408 1.967 . S
O433 C441 1.258 . S
O434 Co409 1.941 . S
O434 C441 1.266 . S
H435 C437 0.959 . S
H436 C437 0.961 . S
C437 C427 1.510 . S
C437 H435 0.959 . S
C437 H436 0.961 . S
C437 H438 0.960 . S
H438 C437 0.960 . S
H439 N419 0.862 . S
O440 Co408 1.920 . S
O440 C413 1.289 . S
C441 O433 1.258 . S
C441 O434 1.266 . S
Co442 O445 1.970 . S
Co442 N459 1.989 . S
Co442 O467 1.967 . S
Co442 O474 1.920 . S
Co443 O446 1.966 . S
Co443 N452 2.022 . S
Co443 N460 1.993 . S
Co443 O468 1.941 . S
C444 O445 1.258 . S
C444 O446 1.263 . S
O445 Co442 1.970 . S
O445 C444 1.258 . S
O446 Co443 1.966 . S
O446 C444 1.263 . S
C447 O448 1.235 . S
C447 O474 1.289 . S
O448 C447 1.235 . S
C449 C451 1.400 . S
C449 N452 1.351 . S
C449 C454 1.501 . S
C450 C451 1.387 . S
C450 N453 1.341 . S
C451 C449 1.400 . S
C451 C450 1.387 . S
N452 Co443 2.022 . S
N452 C449 1.351 . S
N452 N453 1.365 . S
N453 C450 1.341 . S
N453 N452 1.365 . S
N453 H473 0.862 . S
C454 C449 1.501 . S
C454 H455 0.961 . S
C454 H456 0.961 . S
C454 H457 0.960 . S
H455 C454 0.961 . S
H456 C454 0.961 . S
H457 C454 0.960 . S
C458 N459 1.342 . S
C458 C462 1.401 . S
C458 C463 1.499 . S
N459 Co442 1.989 . S
N459 C458 1.342 . S
N459 N460 1.388 . S
N460 Co443 1.993 . S
N460 N459 1.388 . S
N460 C461 1.346 . S
C461 N460 1.346 . S
C461 C462 1.396 . S
C461 C471 1.510 . S
C462 C458 1.401 . S
C462 C461 1.396 . S
C463 C458 1.499 . S
C463 H464 0.959 . S
C463 H465 0.960 . S
C463 H466 0.961 . S
H464 C463 0.959 . S
H465 C463 0.960 . S
H466 C463 0.961 . S
O467 Co442 1.967 . S
O467 C475 1.258 . S
O468 Co443 1.941 . S
O468 C475 1.266 . S
H469 C471 0.959 . S
H470 C471 0.961 . S
C471 C461 1.510 . S
C471 H469 0.959 . S
C471 H470 0.961 . S
C471 H472 0.960 . S
H472 C471 0.960 . S
H473 N453 0.862 . S
O474 Co442 1.920 . S
O474 C447 1.289 . S
C475 O467 1.258 . S
C475 O468 1.266 . S
Co476 O479 1.970 . S
Co476 N493 1.989 . S
Co476 O501 1.967 . S
Co476 O508 1.920 . S
Co477 O480 1.966 . S
Co477 N486 2.022 . S
Co477 N494 1.993 . S
Co477 O502 1.941 . S
C478 O479 1.258 . S
C478 O480 1.263 . S
O479 Co476 1.970 . S
O479 C478 1.258 . S
O480 Co477 1.966 . S
O480 C478 1.263 . S
C481 O482 1.235 . S
C481 O508 1.289 . S
O482 C481 1.235 . S
C483 C485 1.400 . S
C483 N486 1.351 . S
C483 C488 1.501 . S
C484 C485 1.387 1_545 S
C484 N487 1.341 1_545 S
C485 C483 1.400 . S
C485 C484 1.387 1_565 S
N486 Co477 2.022 . S
N486 C483 1.351 . S
N486 N487 1.365 . S
N487 C484 1.341 1_565 S
N487 N486 1.365 . S
N487 H507 0.862 . S
C488 C483 1.501 . S
C488 H489 0.961 . S
C488 H490 0.961 . S
C488 H491 0.960 . S
H489 C488 0.961 . S
H490 C488 0.961 . S
H491 C488 0.960 . S
C492 N493 1.342 . S
C492 C496 1.401 . S
C492 C497 1.499 . S
N493 Co476 1.989 . S
N493 C492 1.342 . S
N493 N494 1.388 . S
N494 Co477 1.993 . S
N494 N493 1.388 . S
N494 C495 1.346 . S
C495 N494 1.346 . S
C495 C496 1.396 . S
C495 C505 1.510 . S
C496 C492 1.401 . S
C496 C495 1.396 . S
C497 C492 1.499 . S
C497 H498 0.959 . S
C497 H499 0.960 . S
C497 H500 0.961 . S
H498 C497 0.959 . S
H499 C497 0.960 . S
H500 C497 0.961 . S
O501 Co476 1.967 . S
O501 C509 1.258 . S
O502 Co477 1.941 . S
O502 C509 1.266 . S
H503 C505 0.959 . S
H504 C505 0.961 . S
C505 C495 1.510 . S
C505 H503 0.959 . S
C505 H504 0.961 . S
C505 H506 0.960 . S
H506 C505 0.960 . S
H507 N487 0.862 . S
O508 Co476 1.920 . S
O508 C481 1.289 . S
C509 O501 1.258 . S
C509 O502 1.266 . S
Co510 O513 1.970 . S
Co510 N527 1.989 . S
Co510 O535 1.967 . S
Co510 O542 1.920 . S
Co511 O514 1.966 . S
Co511 N520 2.022 . S
Co511 N528 1.993 . S
Co511 O536 1.941 . S
C512 O513 1.258 . S
C512 O514 1.263 . S
O513 Co510 1.970 . S
O513 C512 1.258 . S
O514 Co511 1.966 . S
O514 C512 1.263 . S
C515 O516 1.235 . S
C515 O542 1.289 . S
O516 C515 1.235 . S
C517 C519 1.400 . S
C517 N520 1.351 . S
C517 C522 1.501 . S
C518 C519 1.387 . S
C518 N521 1.341 . S
C519 C517 1.400 . S
C519 C518 1.387 . S
N520 Co511 2.022 . S
N520 C517 1.351 . S
N520 N521 1.365 . S
N521 C518 1.341 . S
N521 N520 1.365 . S
N521 H541 0.862 . S
C522 C517 1.501 . S
C522 H523 0.961 . S
C522 H524 0.961 . S
C522 H525 0.960 . S
H523 C522 0.961 . S
H524 C522 0.961 . S
H525 C522 0.960 . S
C526 N527 1.342 . S
C526 C530 1.401 . S
C526 C531 1.499 . S
N527 Co510 1.989 . S
N527 C526 1.342 . S
N527 N528 1.388 . S
N528 Co511 1.993 . S
N528 N527 1.388 . S
N528 C529 1.346 . S
C529 N528 1.346 . S
C529 C530 1.396 . S
C529 C539 1.510 . S
C530 C526 1.401 . S
C530 C529 1.396 . S
C531 C526 1.499 . S
C531 H532 0.959 . S
C531 H533 0.960 . S
C531 H534 0.961 . S
H532 C531 0.959 . S
H533 C531 0.960 . S
H534 C531 0.961 . S
O535 Co510 1.967 . S
O535 C543 1.258 . S
O536 Co511 1.941 . S
O536 C543 1.266 . S
H537 C539 0.959 . S
H538 C539 0.961 . S
C539 C529 1.510 . S
C539 H537 0.959 . S
C539 H538 0.961 . S
C539 H540 0.960 . S
H540 C539 0.960 . S
H541 N521 0.862 . S
O542 Co510 1.920 . S
O542 C515 1.289 . S
C543 O535 1.258 . S
C543 O536 1.266 . S
Co544 O547 1.970 . S
Co544 N561 1.989 . S
Co544 O569 1.967 . S
Co544 O576 1.920 . S
Co545 O548 1.966 . S
Co545 N554 2.022 . S
Co545 N562 1.993 . S
Co545 O570 1.941 . S
C546 O547 1.258 . S
C546 O548 1.263 . S
O547 Co544 1.970 . S
O547 C546 1.258 . S
O548 Co545 1.966 . S
O548 C546 1.263 . S
C549 O550 1.235 . S
C549 O576 1.289 . S
O550 C549 1.235 . S
C551 C553 1.400 . S
C551 N554 1.351 . S
C551 C556 1.501 . S
C552 C553 1.387 . S
C552 N555 1.341 . S
C553 C551 1.400 . S
C553 C552 1.387 . S
N554 Co545 2.022 . S
N554 C551 1.351 . S
N554 N555 1.365 . S
N555 C552 1.341 . S
N555 N554 1.365 . S
N555 H575 0.862 . S
C556 C551 1.501 . S
C556 H557 0.961 . S
C556 H558 0.961 . S
C556 H559 0.960 . S
H557 C556 0.961 . S
H558 C556 0.961 . S
H559 C556 0.960 . S
C560 N561 1.342 . S
C560 C564 1.401 . S
C560 C565 1.499 . S
N561 Co544 1.989 . S
N561 C560 1.342 . S
N561 N562 1.388 . S
N562 Co545 1.993 . S
N562 N561 1.388 . S
N562 C563 1.346 . S
C563 N562 1.346 . S
C563 C564 1.396 . S
C563 C573 1.510 . S
C564 C560 1.401 . S
C564 C563 1.396 . S
C565 C560 1.499 . S
C565 H566 0.959 . S
C565 H567 0.960 . S
C565 H568 0.961 . S
H566 C565 0.959 . S
H567 C565 0.960 . S
H568 C565 0.961 . S
O569 Co544 1.967 . S
O569 C577 1.258 . S
O570 Co545 1.941 . S
O570 C577 1.266 . S
H571 C573 0.959 . S
H572 C573 0.961 . S
C573 C563 1.510 . S
C573 H571 0.959 . S
C573 H572 0.961 . S
C573 H574 0.960 . S
H574 C573 0.960 . S
H575 N555 0.862 . S
O576 Co544 1.920 . S
O576 C549 1.289 . S
C577 O569 1.258 . S
C577 O570 1.266 . S
Co578 O581 1.970 . S
Co578 N595 1.989 . S
Co578 O603 1.967 . S
Co578 O610 1.920 . S
Co579 O582 1.966 . S
Co579 N588 2.022 . S
Co579 N596 1.993 . S
Co579 O604 1.941 . S
C580 O581 1.258 . S
C580 O582 1.263 . S
O581 Co578 1.970 . S
O581 C580 1.258 . S
O582 Co579 1.966 . S
O582 C580 1.263 . S
C583 O584 1.235 . S
C583 O610 1.289 . S
O584 C583 1.235 . S
C585 C587 1.400 . S
C585 N588 1.351 . S
C585 C590 1.501 . S
C586 C587 1.387 . S
C586 N589 1.341 . S
C587 C585 1.400 . S
C587 C586 1.387 . S
N588 Co579 2.022 . S
N588 C585 1.351 . S
N588 N589 1.365 . S
N589 C586 1.341 . S
N589 N588 1.365 . S
N589 H609 0.862 . S
C590 C585 1.501 . S
C590 H591 0.961 . S
C590 H592 0.961 . S
C590 H593 0.960 . S
H591 C590 0.961 . S
H592 C590 0.961 . S
H593 C590 0.960 . S
C594 N595 1.342 . S
C594 C598 1.401 . S
C594 C599 1.499 . S
N595 Co578 1.989 . S
N595 C594 1.342 . S
N595 N596 1.388 . S
N596 Co579 1.993 . S
N596 N595 1.388 . S
N596 C597 1.346 . S
C597 N596 1.346 . S
C597 C598 1.396 . S
C597 C607 1.510 . S
C598 C594 1.401 . S
C598 C597 1.396 . S
C599 C594 1.499 . S
C599 H600 0.959 . S
C599 H601 0.960 . S
C599 H602 0.961 . S
H600 C599 0.959 . S
H601 C599 0.960 . S
H602 C599 0.961 . S
O603 Co578 1.967 . S
O603 C611 1.258 . S
O604 Co579 1.941 . S
O604 C611 1.266 . S
H605 C607 0.959 . S
H606 C607 0.961 . S
C607 C597 1.510 . S
C607 H605 0.959 . S
C607 H606 0.961 . S
C607 H608 0.960 . S
H608 C607 0.960 . S
H609 N589 0.862 . S
O610 Co578 1.920 . S
O610 C583 1.289 . S
C611 O603 1.258 . S
C611 O604 1.266 . S
Co612 O615 1.970 . S
Co612 N629 1.989 . S
Co612 O637 1.967 . S
Co612 O644 1.920 . S
Co613 O616 1.966 . S
Co613 N622 2.022 . S
Co613 N630 1.993 . S
Co613 O638 1.941 . S
C614 O615 1.258 . S
C614 O616 1.263 . S
O615 Co612 1.970 . S
O615 C614 1.258 . S
O616 Co613 1.966 . S
O616 C614 1.263 . S
C617 O618 1.235 . S
C617 O644 1.289 . S
O618 C617 1.235 . S
C619 C621 1.400 . S
C619 N622 1.351 . S
C619 C624 1.501 . S
C620 C621 1.387 . S
C620 N623 1.341 . S
C621 C619 1.400 . S
C621 C620 1.387 . S
N622 Co613 2.022 . S
N622 C619 1.351 . S
N622 N623 1.365 . S
N623 C620 1.341 . S
N623 N622 1.365 . S
N623 H643 0.862 . S
C624 C619 1.501 . S
C624 H625 0.961 . S
C624 H626 0.961 . S
C624 H627 0.960 . S
H625 C624 0.961 . S
H626 C624 0.961 . S
H627 C624 0.960 . S
C628 N629 1.342 . S
C628 C632 1.401 . S
C628 C633 1.499 . S
N629 Co612 1.989 . S
N629 C628 1.342 . S
N629 N630 1.388 . S
N630 Co613 1.993 . S
N630 N629 1.388 . S
N630 C631 1.346 . S
C631 N630 1.346 . S
C631 C632 1.396 . S
C631 C641 1.510 . S
C632 C628 1.401 . S
C632 C631 1.396 . S
C633 C628 1.499 . S
C633 H634 0.959 . S
C633 H635 0.960 . S
C633 H636 0.961 . S
H634 C633 0.959 . S
H635 C633 0.960 . S
H636 C633 0.961 . S
O637 Co612 1.967 . S
O637 C645 1.258 . S
O638 Co613 1.941 . S
O638 C645 1.266 . S
H639 C641 0.959 . S
H640 C641 0.961 . S
C641 C631 1.510 . S
C641 H639 0.959 . S
C641 H640 0.961 . S
C641 H642 0.960 . S
H642 C641 0.960 . S
H643 N623 0.862 . S
O644 Co612 1.920 . S
O644 C617 1.289 . S
C645 O637 1.258 . S
C645 O638 1.266 . S
Co646 O649 1.970 . S
Co646 N663 1.989 . S
Co646 O671 1.967 . S
Co646 O678 1.920 . S
Co647 O650 1.966 . S
Co647 N656 2.022 . S
Co647 N664 1.993 . S
Co647 O672 1.941 . S
C648 O649 1.258 . S
C648 O650 1.263 . S
O649 Co646 1.970 . S
O649 C648 1.258 . S
O650 Co647 1.966 . S
O650 C648 1.263 . S
C651 O652 1.235 . S
C651 O678 1.289 . S
O652 C651 1.235 . S
C653 C655 1.400 . S
C653 N656 1.351 . S
C653 C658 1.501 . S
C654 C655 1.387 . S
C654 N657 1.341 . S
C655 C653 1.400 . S
C655 C654 1.387 . S
N656 Co647 2.022 . S
N656 C653 1.351 . S
N656 N657 1.365 . S
N657 C654 1.341 . S
N657 N656 1.365 . S
N657 H677 0.862 . S
C658 C653 1.501 . S
C658 H659 0.961 . S
C658 H660 0.961 . S
C658 H661 0.960 . S
H659 C658 0.961 . S
H660 C658 0.961 . S
H661 C658 0.960 . S
C662 N663 1.342 . S
C662 C666 1.401 . S
C662 C667 1.499 . S
N663 Co646 1.989 . S
N663 C662 1.342 . S
N663 N664 1.388 . S
N664 Co647 1.993 . S
N664 N663 1.388 . S
N664 C665 1.346 . S
C665 N664 1.346 . S
C665 C666 1.396 . S
C665 C675 1.510 . S
C666 C662 1.401 . S
C666 C665 1.396 . S
C667 C662 1.499 . S
C667 H668 0.959 . S
C667 H669 0.960 . S
C667 H670 0.961 . S
H668 C667 0.959 . S
H669 C667 0.960 . S
H670 C667 0.961 . S
O671 Co646 1.967 . S
O671 C679 1.258 . S
O672 Co647 1.941 . S
O672 C679 1.266 . S
H673 C675 0.959 . S
H674 C675 0.961 . S
C675 C665 1.510 . S
C675 H673 0.959 . S
C675 H674 0.961 . S
C675 H676 0.960 . S
H676 C675 0.960 . S
H677 N657 0.862 . S
O678 Co646 1.920 . S
O678 C651 1.289 . S
C679 O671 1.258 . S
C679 O672 1.266 . S
Co680 O683 1.970 . S
Co680 N697 1.989 . S
Co680 O705 1.967 . S
Co680 O712 1.920 . S
Co681 O684 1.966 . S
Co681 N690 2.022 . S
Co681 N698 1.993 . S
Co681 O706 1.941 . S
C682 O683 1.258 . S
C682 O684 1.263 . S
O683 Co680 1.970 . S
O683 C682 1.258 . S
O684 Co681 1.966 . S
O684 C682 1.263 . S
C685 O686 1.235 . S
C685 O712 1.289 . S
O686 C685 1.235 . S
C687 C689 1.400 . S
C687 N690 1.351 . S
C687 C692 1.501 . S
C688 C689 1.387 . S
C688 N691 1.341 . S
C689 C687 1.400 . S
C689 C688 1.387 . S
N690 Co681 2.022 . S
N690 C687 1.351 . S
N690 N691 1.365 . S
N691 C688 1.341 . S
N691 N690 1.365 . S
N691 H711 0.862 . S
C692 C687 1.501 . S
C692 H693 0.961 . S
C692 H694 0.961 . S
C692 H695 0.960 . S
H693 C692 0.961 . S
H694 C692 0.961 . S
H695 C692 0.960 . S
C696 N697 1.342 . S
C696 C700 1.401 . S
C696 C701 1.499 . S
N697 Co680 1.989 . S
N697 C696 1.342 . S
N697 N698 1.388 . S
N698 Co681 1.993 . S
N698 N697 1.388 . S
N698 C699 1.346 . S
C699 N698 1.346 . S
C699 C700 1.396 . S
C699 C709 1.510 . S
C700 C696 1.401 . S
C700 C699 1.396 . S
C701 C696 1.499 . S
C701 H702 0.959 . S
C701 H703 0.960 . S
C701 H704 0.961 . S
H702 C701 0.959 . S
H703 C701 0.960 . S
H704 C701 0.961 . S
O705 Co680 1.967 . S
O705 C713 1.258 . S
O706 Co681 1.941 . S
O706 C713 1.266 . S
H707 C709 0.959 . S
H708 C709 0.961 . S
C709 C699 1.510 . S
C709 H707 0.959 . S
C709 H708 0.961 . S
C709 H710 0.960 . S
H710 C709 0.960 . S
H711 N691 0.862 . S
O712 Co680 1.920 . S
O712 C685 1.289 . S
C713 O705 1.258 . S
C713 O706 1.266 . S
Co714 O717 1.970 . S
Co714 N731 1.989 . S
Co714 O739 1.967 . S
Co714 O746 1.920 . S
Co715 O718 1.966 . S
Co715 N724 2.022 . S
Co715 N732 1.993 . S
Co715 O740 1.941 . S
C716 O717 1.258 . S
C716 O718 1.263 . S
O717 Co714 1.970 . S
O717 C716 1.258 . S
O718 Co715 1.966 . S
O718 C716 1.263 . S
C719 O720 1.235 . S
C719 O746 1.289 . S
O720 C719 1.235 . S
C721 C723 1.400 . S
C721 N724 1.351 . S
C721 C726 1.501 . S
C722 C723 1.387 . S
C722 N725 1.341 . S
C723 C721 1.400 . S
C723 C722 1.387 . S
N724 Co715 2.022 . S
N724 C721 1.351 . S
N724 N725 1.365 . S
N725 C722 1.341 . S
N725 N724 1.365 . S
N725 H745 0.862 . S
C726 C721 1.501 . S
C726 H727 0.961 . S
C726 H728 0.961 . S
C726 H729 0.960 . S
H727 C726 0.961 . S
H728 C726 0.961 . S
H729 C726 0.960 . S
C730 N731 1.342 . S
C730 C734 1.401 . S
C730 C735 1.499 . S
N731 Co714 1.989 . S
N731 C730 1.342 . S
N731 N732 1.388 . S
N732 Co715 1.993 . S
N732 N731 1.388 . S
N732 C733 1.346 . S
C733 N732 1.346 . S
C733 C734 1.396 . S
C733 C743 1.510 . S
C734 C730 1.401 . S
C734 C733 1.396 . S
C735 C730 1.499 . S
C735 H736 0.959 . S
C735 H737 0.960 . S
C735 H738 0.961 . S
H736 C735 0.959 . S
H737 C735 0.960 . S
H738 C735 0.961 . S
O739 Co714 1.967 . S
O739 C747 1.258 . S
O740 Co715 1.941 . S
O740 C747 1.266 . S
H741 C743 0.959 . S
H742 C743 0.961 . S
C743 C733 1.510 . S
C743 H741 0.959 . S
C743 H742 0.961 . S
C743 H744 0.960 . S
H744 C743 0.960 . S
H745 N725 0.862 . S
O746 Co714 1.920 . S
O746 C719 1.289 . S
C747 O739 1.258 . S
C747 O740 1.266 . S
Co748 O751 1.970 . S
Co748 N765 1.989 . S
Co748 O773 1.967 . S
Co748 O780 1.920 . S
Co749 O752 1.966 . S
Co749 N758 2.022 . S
Co749 N766 1.993 . S
Co749 O774 1.941 . S
C750 O751 1.258 . S
C750 O752 1.263 . S
O751 Co748 1.970 . S
O751 C750 1.258 . S
O752 Co749 1.966 . S
O752 C750 1.263 . S
C753 O754 1.235 . S
C753 O780 1.289 . S
O754 C753 1.235 . S
C755 C757 1.400 . S
C755 N758 1.351 . S
C755 C760 1.501 . S
C756 C757 1.387 . S
C756 N759 1.341 . S
C757 C755 1.400 . S
C757 C756 1.387 . S
N758 Co749 2.022 . S
N758 C755 1.351 . S
N758 N759 1.365 . S
N759 C756 1.341 . S
N759 N758 1.365 . S
N759 H779 0.862 . S
C760 C755 1.501 . S
C760 H761 0.961 . S
C760 H762 0.961 . S
C760 H763 0.960 . S
H761 C760 0.961 . S
H762 C760 0.961 . S
H763 C760 0.960 . S
C764 N765 1.342 . S
C764 C768 1.401 . S
C764 C769 1.499 . S
N765 Co748 1.989 . S
N765 C764 1.342 . S
N765 N766 1.388 . S
N766 Co749 1.993 . S
N766 N765 1.388 . S
N766 C767 1.346 . S
C767 N766 1.346 . S
C767 C768 1.396 . S
C767 C777 1.510 . S
C768 C764 1.401 . S
C768 C767 1.396 . S
C769 C764 1.499 . S
C769 H770 0.959 . S
C769 H771 0.960 . S
C769 H772 0.961 . S
H770 C769 0.959 . S
H771 C769 0.960 . S
H772 C769 0.961 . S
O773 Co748 1.967 . S
O773 C781 1.258 . S
O774 Co749 1.941 . S
O774 C781 1.266 . S
H775 C777 0.959 . S
H776 C777 0.961 . S
C777 C767 1.510 . S
C777 H775 0.959 . S
C777 H776 0.961 . S
C777 H778 0.960 . S
H778 C777 0.960 . S
H779 N759 0.862 . S
O780 Co748 1.920 . S
O780 C753 1.289 . S
C781 O773 1.258 . S
C781 O774 1.266 . S
Co782 O785 1.970 . S
Co782 N799 1.989 . S
Co782 O807 1.967 . S
Co782 O814 1.920 . S
Co783 O786 1.966 . S
Co783 N792 2.022 . S
Co783 N800 1.993 . S
Co783 O808 1.941 . S
C784 O785 1.258 . S
C784 O786 1.263 . S
O785 Co782 1.970 . S
O785 C784 1.258 . S
O786 Co783 1.966 . S
O786 C784 1.263 . S
C787 O788 1.235 . S
C787 O814 1.289 . S
O788 C787 1.235 . S
C789 C791 1.400 . S
C789 N792 1.351 . S
C789 C794 1.501 . S
C790 C791 1.387 . S
C790 N793 1.341 . S
C791 C789 1.400 . S
C791 C790 1.387 . S
N792 Co783 2.022 . S
N792 C789 1.351 . S
N792 N793 1.365 . S
N793 C790 1.341 . S
N793 N792 1.365 . S
N793 H813 0.862 . S
C794 C789 1.501 . S
C794 H795 0.961 . S
C794 H796 0.961 . S
C794 H797 0.960 . S
H795 C794 0.961 . S
H796 C794 0.961 . S
H797 C794 0.960 . S
C798 N799 1.342 . S
C798 C802 1.401 . S
C798 C803 1.499 . S
N799 Co782 1.989 . S
N799 C798 1.342 . S
N799 N800 1.388 . S
N800 Co783 1.993 . S
N800 N799 1.388 . S
N800 C801 1.346 . S
C801 N800 1.346 . S
C801 C802 1.396 . S
C801 C811 1.510 . S
C802 C798 1.401 . S
C802 C801 1.396 . S
C803 C798 1.499 . S
C803 H804 0.959 . S
C803 H805 0.960 . S
C803 H806 0.961 . S
H804 C803 0.959 . S
H805 C803 0.960 . S
H806 C803 0.961 . S
O807 Co782 1.967 . S
O807 C815 1.258 . S
O808 Co783 1.941 . S
O808 C815 1.266 . S
H809 C811 0.959 . S
H810 C811 0.961 . S
C811 C801 1.510 . S
C811 H809 0.959 . S
C811 H810 0.961 . S
C811 H812 0.960 . S
H812 C811 0.960 . S
H813 N793 0.862 . S
O814 Co782 1.920 . S
O814 C787 1.289 . S
C815 O807 1.258 . S
C815 O808 1.266 . S
Co816 O819 1.970 . S
Co816 N833 1.989 . S
Co816 O841 1.967 . S
Co816 O848 1.920 . S
Co817 O820 1.966 . S
Co817 N826 2.022 . S
Co817 N834 1.993 . S
Co817 O842 1.941 . S
C818 O819 1.258 . S
C818 O820 1.263 . S
O819 Co816 1.970 . S
O819 C818 1.258 . S
O820 Co817 1.966 . S
O820 C818 1.263 . S
C821 O822 1.235 . S
C821 O848 1.289 . S
O822 C821 1.235 . S
C823 C825 1.400 . S
C823 N826 1.351 . S
C823 C828 1.501 . S
C824 C825 1.387 . S
C824 N827 1.341 . S
C825 C823 1.400 . S
C825 C824 1.387 . S
N826 Co817 2.022 . S
N826 C823 1.351 . S
N826 N827 1.365 . S
N827 C824 1.341 . S
N827 N826 1.365 . S
N827 H847 0.862 . S
C828 C823 1.501 . S
C828 H829 0.961 . S
C828 H830 0.961 . S
C828 H831 0.960 . S
H829 C828 0.961 . S
H830 C828 0.961 . S
H831 C828 0.960 . S
C832 N833 1.342 . S
C832 C836 1.401 . S
C832 C837 1.499 . S
N833 Co816 1.989 . S
N833 C832 1.342 . S
N833 N834 1.388 . S
N834 Co817 1.993 . S
N834 N833 1.388 . S
N834 C835 1.346 . S
C835 N834 1.346 . S
C835 C836 1.396 . S
C835 C845 1.510 . S
C836 C832 1.401 . S
C836 C835 1.396 . S
C837 C832 1.499 . S
C837 H838 0.959 . S
C837 H839 0.960 . S
C837 H840 0.961 . S
H838 C837 0.959 . S
H839 C837 0.960 . S
H840 C837 0.961 . S
O841 Co816 1.967 . S
O841 C849 1.258 . S
O842 Co817 1.941 . S
O842 C849 1.266 . S
H843 C845 0.959 . S
H844 C845 0.961 . S
C845 C835 1.510 . S
C845 H843 0.959 . S
C845 H844 0.961 . S
C845 H846 0.960 . S
H846 C845 0.960 . S
H847 N827 0.862 . S
O848 Co816 1.920 . S
O848 C821 1.289 . S
C849 O841 1.258 . S
C849 O842 1.266 . S
Co850 O853 1.970 . S
Co850 N867 1.989 . S
Co850 O875 1.967 . S
Co850 O882 1.920 . S
Co851 O854 1.966 . S
Co851 N860 2.022 . S
Co851 N868 1.993 . S
Co851 O876 1.941 . S
C852 O853 1.258 . S
C852 O854 1.263 . S
O853 Co850 1.970 . S
O853 C852 1.258 . S
O854 Co851 1.966 . S
O854 C852 1.263 . S
C855 O856 1.235 . S
C855 O882 1.289 . S
O856 C855 1.235 . S
C857 C859 1.400 . S
C857 N860 1.351 . S
C857 C862 1.501 . S
C858 C859 1.387 . S
C858 N861 1.341 . S
C859 C857 1.400 . S
C859 C858 1.387 . S
N860 Co851 2.022 . S
N860 C857 1.351 . S
N860 N861 1.365 . S
N861 C858 1.341 . S
N861 N860 1.365 . S
N861 H881 0.862 . S
C862 C857 1.501 . S
C862 H863 0.961 . S
C862 H864 0.961 . S
C862 H865 0.960 . S
H863 C862 0.961 . S
H864 C862 0.961 . S
H865 C862 0.960 . S
C866 N867 1.342 . S
C866 C870 1.401 . S
C866 C871 1.499 . S
N867 Co850 1.989 . S
N867 C866 1.342 . S
N867 N868 1.388 . S
N868 Co851 1.993 . S
N868 N867 1.388 . S
N868 C869 1.346 . S
C869 N868 1.346 . S
C869 C870 1.396 . S
C869 C879 1.510 . S
C870 C866 1.401 . S
C870 C869 1.396 . S
C871 C866 1.499 . S
C871 H872 0.959 . S
C871 H873 0.960 . S
C871 H874 0.961 . S
H872 C871 0.959 . S
H873 C871 0.960 . S
H874 C871 0.961 . S
O875 Co850 1.967 . S
O875 C883 1.258 . S
O876 Co851 1.941 . S
O876 C883 1.266 . S
H877 C879 0.959 . S
H878 C879 0.961 . S
C879 C869 1.510 . S
C879 H877 0.959 . S
C879 H878 0.961 . S
C879 H880 0.960 . S
H880 C879 0.960 . S
H881 N861 0.862 . S
O882 Co850 1.920 . S
O882 C855 1.289 . S
C883 O875 1.258 . S
C883 O876 1.266 . S
Co884 O887 1.970 . S
Co884 N901 1.989 . S
Co884 O909 1.967 . S
Co884 O916 1.920 . S
Co885 O888 1.966 . S
Co885 N894 2.022 . S
Co885 N902 1.993 . S
Co885 O910 1.941 . S
C886 O887 1.258 . S
C886 O888 1.263 . S
O887 Co884 1.970 . S
O887 C886 1.258 . S
O888 Co885 1.966 . S
O888 C886 1.263 . S
C889 O890 1.235 . S
C889 O916 1.289 . S
O890 C889 1.235 . S
C891 C893 1.400 . S
C891 N894 1.351 . S
C891 C896 1.501 . S
C892 C893 1.387 . S
C892 N895 1.341 . S
C893 C891 1.400 . S
C893 C892 1.387 . S
N894 Co885 2.022 . S
N894 C891 1.351 . S
N894 N895 1.365 . S
N895 C892 1.341 . S
N895 N894 1.365 . S
N895 H915 0.862 . S
C896 C891 1.501 . S
C896 H897 0.961 . S
C896 H898 0.961 . S
C896 H899 0.960 . S
H897 C896 0.961 . S
H898 C896 0.961 . S
H899 C896 0.960 . S
C900 N901 1.342 . S
C900 C904 1.401 . S
C900 C905 1.499 . S
N901 Co884 1.989 . S
N901 C900 1.342 . S
N901 N902 1.388 . S
N902 Co885 1.993 . S
N902 N901 1.388 . S
N902 C903 1.346 . S
C903 N902 1.346 . S
C903 C904 1.396 . S
C903 C913 1.510 . S
C904 C900 1.401 . S
C904 C903 1.396 . S
C905 C900 1.499 . S
C905 H906 0.959 . S
C905 H907 0.960 . S
C905 H908 0.961 . S
H906 C905 0.959 . S
H907 C905 0.960 . S
H908 C905 0.961 . S
O909 Co884 1.967 . S
O909 C917 1.258 . S
O910 Co885 1.941 . S
O910 C917 1.266 . S
H911 C913 0.959 . S
H912 C913 0.961 . S
C913 C903 1.510 . S
C913 H911 0.959 . S
C913 H912 0.961 . S
C913 H914 0.960 . S
H914 C913 0.960 . S
H915 N895 0.862 . S
O916 Co884 1.920 . S
O916 C889 1.289 . S
C917 O909 1.258 . S
C917 O910 1.266 . S
Co918 O921 1.970 . S
Co918 N935 1.989 . S
Co918 O943 1.967 . S
Co918 O950 1.920 . S
Co919 O922 1.966 . S
Co919 N928 2.022 . S
Co919 N936 1.993 . S
Co919 O944 1.941 . S
C920 O921 1.258 . S
C920 O922 1.263 . S
O921 Co918 1.970 . S
O921 C920 1.258 . S
O922 Co919 1.966 . S
O922 C920 1.263 . S
C923 O924 1.235 . S
C923 O950 1.289 . S
O924 C923 1.235 . S
C925 C927 1.400 . S
C925 N928 1.351 . S
C925 C930 1.501 . S
C926 C927 1.387 . S
C926 N929 1.341 . S
C927 C925 1.400 . S
C927 C926 1.387 . S
N928 Co919 2.022 . S
N928 C925 1.351 . S
N928 N929 1.365 . S
N929 C926 1.341 . S
N929 N928 1.365 . S
N929 H949 0.862 . S
C930 C925 1.501 . S
C930 H931 0.961 . S
C930 H932 0.961 . S
C930 H933 0.960 . S
H931 C930 0.961 . S
H932 C930 0.961 . S
H933 C930 0.960 . S
C934 N935 1.342 . S
C934 C938 1.401 . S
C934 C939 1.499 . S
N935 Co918 1.989 . S
N935 C934 1.342 . S
N935 N936 1.388 . S
N936 Co919 1.993 . S
N936 N935 1.388 . S
N936 C937 1.346 . S
C937 N936 1.346 . S
C937 C938 1.396 . S
C937 C947 1.510 . S
C938 C934 1.401 . S
C938 C937 1.396 . S
C939 C934 1.499 . S
C939 H940 0.959 . S
C939 H941 0.960 . S
C939 H942 0.961 . S
H940 C939 0.959 . S
H941 C939 0.960 . S
H942 C939 0.961 . S
O943 Co918 1.967 . S
O943 C951 1.258 . S
O944 Co919 1.941 . S
O944 C951 1.266 . S
H945 C947 0.959 . S
H946 C947 0.961 . S
C947 C937 1.510 . S
C947 H945 0.959 . S
C947 H946 0.961 . S
C947 H948 0.960 . S
H948 C947 0.960 . S
H949 N929 0.862 . S
O950 Co918 1.920 . S
O950 C923 1.289 . S
C951 O943 1.258 . S
C951 O944 1.266 . S
Co952 O955 1.970 . S
Co952 N969 1.989 . S
Co952 O977 1.967 . S
Co952 O984 1.920 . S
Co953 O956 1.966 . S
Co953 N962 2.022 . S
Co953 N970 1.993 . S
Co953 O978 1.941 . S
C954 O955 1.258 . S
C954 O956 1.263 . S
O955 Co952 1.970 . S
O955 C954 1.258 . S
O956 Co953 1.966 . S
O956 C954 1.263 . S
C957 O958 1.235 . S
C957 O984 1.289 . S
O958 C957 1.235 . S
C959 C961 1.400 . S
C959 N962 1.351 . S
C959 C964 1.501 . S
C960 C961 1.387 . S
C960 N963 1.341 . S
C961 C959 1.400 . S
C961 C960 1.387 . S
N962 Co953 2.022 . S
N962 C959 1.351 . S
N962 N963 1.365 . S
N963 C960 1.341 . S
N963 N962 1.365 . S
N963 H983 0.862 . S
C964 C959 1.501 . S
C964 H965 0.961 . S
C964 H966 0.961 . S
C964 H967 0.960 . S
H965 C964 0.961 . S
H966 C964 0.961 . S
H967 C964 0.960 . S
C968 N969 1.342 . S
C968 C972 1.401 . S
C968 C973 1.499 . S
N969 Co952 1.989 . S
N969 C968 1.342 . S
N969 N970 1.388 . S
N970 Co953 1.993 . S
N970 N969 1.388 . S
N970 C971 1.346 . S
C971 N970 1.346 . S
C971 C972 1.396 . S
C971 C981 1.510 . S
C972 C968 1.401 . S
C972 C971 1.396 . S
C973 C968 1.499 . S
C973 H974 0.959 . S
C973 H975 0.960 . S
C973 H976 0.961 . S
H974 C973 0.959 . S
H975 C973 0.960 . S
H976 C973 0.961 . S
O977 Co952 1.967 . S
O977 C985 1.258 . S
O978 Co953 1.941 . S
O978 C985 1.266 . S
H979 C981 0.959 . S
H980 C981 0.961 . S
C981 C971 1.510 . S
C981 H979 0.959 . S
C981 H980 0.961 . S
C981 H982 0.960 . S
H982 C981 0.960 . S
H983 N963 0.862 . S
O984 Co952 1.920 . S
O984 C957 1.289 . S
C985 O977 1.258 . S
C985 O978 1.266 . S
Co986 O989 1.970 . S
Co986 N1003 1.989 . S
Co986 O1011 1.967 . S
Co986 O1018 1.920 . S
Co987 O990 1.966 . S
Co987 N996 2.022 . S
Co987 N1004 1.993 . S
Co987 O1012 1.941 . S
C988 O989 1.258 . S
C988 O990 1.263 . S
O989 Co986 1.970 . S
O989 C988 1.258 . S
O990 Co987 1.966 . S
O990 C988 1.263 . S
C991 O992 1.235 . S
C991 O1018 1.289 . S
O992 C991 1.235 . S
C993 C995 1.400 . S
C993 N996 1.351 . S
C993 C998 1.501 . S
C994 C995 1.387 . S
C994 N997 1.341 . S
C995 C993 1.400 . S
C995 C994 1.387 . S
N996 Co987 2.022 . S
N996 C993 1.351 . S
N996 N997 1.365 . S
N997 C994 1.341 . S
N997 N996 1.365 . S
N997 H1017 0.862 . S
C998 C993 1.501 . S
C998 H999 0.961 . S
C998 H1000 0.961 . S
C998 H1001 0.960 . S
H999 C998 0.961 . S
H1000 C998 0.961 . S
H1001 C998 0.960 . S
C1002 N1003 1.342 . S
C1002 C1006 1.401 . S
C1002 C1007 1.499 . S
N1003 Co986 1.989 . S
N1003 C1002 1.342 . S
N1003 N1004 1.388 . S
N1004 Co987 1.993 . S
N1004 N1003 1.388 . S
N1004 C1005 1.346 . S
C1005 N1004 1.346 . S
C1005 C1006 1.396 . S
C1005 C1015 1.510 . S
C1006 C1002 1.401 . S
C1006 C1005 1.396 . S
C1007 C1002 1.499 . S
C1007 H1008 0.959 . S
C1007 H1009 0.960 . S
C1007 H1010 0.961 . S
H1008 C1007 0.959 . S
H1009 C1007 0.960 . S
H1010 C1007 0.961 . S
O1011 Co986 1.967 . S
O1011 C1019 1.258 . S
O1012 Co987 1.941 . S
O1012 C1019 1.266 . S
H1013 C1015 0.959 . S
H1014 C1015 0.961 . S
C1015 C1005 1.510 . S
C1015 H1013 0.959 . S
C1015 H1014 0.961 . S
C1015 H1016 0.960 . S
H1016 C1015 0.960 . S
H1017 N997 0.862 . S
O1018 Co986 1.920 . S
O1018 C991 1.289 . S
C1019 O1011 1.258 . S
C1019 O1012 1.266 . S
Co1020 O1023 1.970 . S
Co1020 N1037 1.989 . S
Co1020 O1045 1.967 . S
Co1020 O1052 1.920 . S
Co1021 O1024 1.966 . S
Co1021 N1030 2.022 . S
Co1021 N1038 1.993 . S
Co1021 O1046 1.941 . S
C1022 O1023 1.258 . S
C1022 O1024 1.263 . S
O1023 Co1020 1.970 . S
O1023 C1022 1.258 . S
O1024 Co1021 1.966 . S
O1024 C1022 1.263 . S
C1025 O1026 1.235 . S
C1025 O1052 1.289 . S
O1026 C1025 1.235 . S
C1027 C1029 1.400 . S
C1027 N1030 1.351 . S
C1027 C1032 1.501 . S
C1028 C1029 1.387 . S
C1028 N1031 1.341 . S
C1029 C1027 1.400 . S
C1029 C1028 1.387 . S
N1030 Co1021 2.022 . S
N1030 C1027 1.351 . S
N1030 N1031 1.365 . S
N1031 C1028 1.341 . S
N1031 N1030 1.365 . S
N1031 H1051 0.862 . S
C1032 C1027 1.501 . S
C1032 H1033 0.961 . S
C1032 H1034 0.961 . S
C1032 H1035 0.960 . S
H1033 C1032 0.961 . S
H1034 C1032 0.961 . S
H1035 C1032 0.960 . S
C1036 N1037 1.342 . S
C1036 C1040 1.401 . S
C1036 C1041 1.499 . S
N1037 Co1020 1.989 . S
N1037 C1036 1.342 . S
N1037 N1038 1.388 . S
N1038 Co1021 1.993 . S
N1038 N1037 1.388 . S
N1038 C1039 1.346 . S
C1039 N1038 1.346 . S
C1039 C1040 1.396 . S
C1039 C1049 1.510 . S
C1040 C1036 1.401 . S
C1040 C1039 1.396 . S
C1041 C1036 1.499 . S
C1041 H1042 0.959 . S
C1041 H1043 0.960 . S
C1041 H1044 0.961 . S
H1042 C1041 0.959 . S
H1043 C1041 0.960 . S
H1044 C1041 0.961 . S
O1045 Co1020 1.967 . S
O1045 C1053 1.258 . S
O1046 Co1021 1.941 . S
O1046 C1053 1.266 . S
H1047 C1049 0.959 . S
H1048 C1049 0.961 . S
C1049 C1039 1.510 . S
C1049 H1047 0.959 . S
C1049 H1048 0.961 . S
C1049 H1050 0.960 . S
H1050 C1049 0.960 . S
H1051 N1031 0.862 . S
O1052 Co1020 1.920 . S
O1052 C1025 1.289 . S
C1053 O1045 1.258 . S
C1053 O1046 1.266 . S
Co1054 O1057 1.970 . S
Co1054 N1071 1.989 . S
Co1054 O1079 1.967 . S
Co1054 O1086 1.920 . S
Co1055 O1058 1.966 . S
Co1055 N1064 2.022 . S
Co1055 N1072 1.993 . S
Co1055 O1080 1.941 . S
C1056 O1057 1.258 . S
C1056 O1058 1.263 . S
O1057 Co1054 1.970 . S
O1057 C1056 1.258 . S
O1058 Co1055 1.966 . S
O1058 C1056 1.263 . S
C1059 O1060 1.235 . S
C1059 O1086 1.289 . S
O1060 C1059 1.235 . S
C1061 C1063 1.400 . S
C1061 N1064 1.351 . S
C1061 C1066 1.501 . S
C1062 C1063 1.387 . S
C1062 N1065 1.341 . S
C1063 C1061 1.400 . S
C1063 C1062 1.387 . S
N1064 Co1055 2.022 . S
N1064 C1061 1.351 . S
N1064 N1065 1.365 . S
N1065 C1062 1.341 . S
N1065 N1064 1.365 . S
N1065 H1085 0.862 . S
C1066 C1061 1.501 . S
C1066 H1067 0.961 . S
C1066 H1068 0.961 . S
C1066 H1069 0.960 . S
H1067 C1066 0.961 . S
H1068 C1066 0.961 . S
H1069 C1066 0.960 . S
C1070 N1071 1.342 . S
C1070 C1074 1.401 . S
C1070 C1075 1.499 . S
N1071 Co1054 1.989 . S
N1071 C1070 1.342 . S
N1071 N1072 1.388 . S
N1072 Co1055 1.993 . S
N1072 N1071 1.388 . S
N1072 C1073 1.346 . S
C1073 N1072 1.346 . S
C1073 C1074 1.396 . S
C1073 C1083 1.510 . S
C1074 C1070 1.401 . S
C1074 C1073 1.396 . S
C1075 C1070 1.499 . S
C1075 H1076 0.959 . S
C1075 H1077 0.960 . S
C1075 H1078 0.961 . S
H1076 C1075 0.959 . S
H1077 C1075 0.960 . S
H1078 C1075 0.961 . S
O1079 Co1054 1.967 . S
O1079 C1087 1.258 . S
O1080 Co1055 1.941 . S
O1080 C1087 1.266 . S
H1081 C1083 0.959 . S
H1082 C1083 0.961 . S
C1083 C1073 1.510 . S
C1083 H1081 0.959 . S
C1083 H1082 0.961 . S
C1083 H1084 0.960 . S
H1084 C1083 0.960 . S
H1085 N1065 0.862 . S
O1086 Co1054 1.920 . S
O1086 C1059 1.289 . S
C1087 O1079 1.258 . S
C1087 O1080 1.266 . S
H1088 C1100 0.930 . S
H1089 C1102 0.930 . S
H1090 C1103 0.930 . S
H1091 C1107 0.959 . S
H1092 C1107 0.959 . S
H1093 C1107 0.961 . S
H1094 C1108 0.960 . S
H1095 C1108 0.961 . S
H1096 C1108 0.959 . S
H1097 C1111 0.929 . S
H1098 C1112 0.931 . S
H1099 C1114 0.930 . S
C1100 H1088 0.930 . S
C1100 C1101 1.399 . S
C1100 C1105 1.399 . S
C1101 C1100 1.399 . S
C1101 C1102 1.376 . S
C1102 H1089 0.930 . S
C1102 C1101 1.376 . S
C1102 C1103 1.388 . S
C1103 H1090 0.930 . S
C1103 C1102 1.388 . S
C1103 C1104 1.390 . S
C1104 C1103 1.390 . S
C1104 C1105 1.394 . S
C1104 C1110 1.465 . S
C1105 C1100 1.399 . S
C1105 C1104 1.394 . S
C1105 C1106 1.516 . S
C1106 C1105 1.516 . S
C1106 C1107 1.502 . S
C1106 C1108 1.561 . S
C1106 C1109 1.526 . S
C1107 H1091 0.959 . S
C1107 H1092 0.959 . S
C1107 H1093 0.961 . S
C1107 C1106 1.502 . S
C1108 H1094 0.960 . S
C1108 H1095 0.961 . S
C1108 H1096 0.959 . S
C1108 C1106 1.561 . S
C1109 C1106 1.526 . S
C1109 C1110 1.396 . S
C1109 C1114 1.390 . S
C1110 C1104 1.465 . S
C1110 C1109 1.396 . S
C1110 C1111 1.399 . S
C1111 H1097 0.929 . S
C1111 C1110 1.399 . S
C1111 C1112 1.385 . S
C1112 H1098 0.931 . S
C1112 C1111 1.385 . S
C1112 C1113 1.389 . S
C1113 C1112 1.389 . S
C1113 C1114 1.387 . S
C1114 H1099 0.930 . S
C1114 C1109 1.390 . S
C1114 C1113 1.387 . S
H1115 C1127 0.930 . S
H1116 C1129 0.930 . S
H1117 C1130 0.919 1_655 S
H1118 C1134 0.959 . S
H1119 C1134 0.959 . S
H1120 C1134 0.961 . S
H1121 C1135 0.960 . S
H1122 C1135 0.961 . S
H1123 C1135 0.959 . S
H1124 C1138 0.929 . S
H1125 C1139 0.931 . S
H1126 C1141 0.930 . S
C1127 H1115 0.930 . S
C1127 C1128 1.399 1_455 S
C1127 C1132 1.399 . S
C1128 C1127 1.399 1_655 S
C1128 C1129 1.376 . S
C1129 H1116 0.930 . S
C1129 C1128 1.376 . S
C1129 C1130 1.365 1_655 S
C1130 H1117 0.919 1_455 S
C1130 C1129 1.365 1_455 S
C1130 C1131 1.426 . S
C1131 C1130 1.426 . S
C1131 C1132 1.394 . S
C1131 C1137 1.465 . S
C1132 C1127 1.399 . S
C1132 C1131 1.394 . S
C1132 C1133 1.516 . S
C1133 C1132 1.516 . S
C1133 C1134 1.502 . S
C1133 C1135 1.561 . S
C1133 C1136 1.526 . S
C1134 H1118 0.959 . S
C1134 H1119 0.959 . S
C1134 H1120 0.961 . S
C1134 C1133 1.502 . S
C1135 H1121 0.960 . S
C1135 H1122 0.961 . S
C1135 H1123 0.959 . S
C1135 C1133 1.561 . S
C1136 C1133 1.526 . S
C1136 C1137 1.396 . S
C1136 C1141 1.390 . S
C1137 C1131 1.465 . S
C1137 C1136 1.396 . S
C1137 C1138 1.399 . S
C1138 H1124 0.929 . S
C1138 C1137 1.399 . S
C1138 C1139 1.385 . S
C1139 H1125 0.931 . S
C1139 C1138 1.385 . S
C1139 C1140 1.389 . S
C1140 C1139 1.389 . S
C1140 C1141 1.387 . S
C1141 H1126 0.930 . S
C1141 C1136 1.390 . S
C1141 C1140 1.387 . S
H1142 C1154 0.930 . S
H1143 C1156 0.930 . S
H1144 C1157 0.930 . S
H1145 C1161 0.959 . S
H1146 C1161 0.959 . S
H1147 C1161 0.961 . S
H1148 C1162 0.960 . S
H1149 C1162 0.961 . S
H1150 C1162 0.959 . S
H1151 C1165 0.929 . S
H1152 C1166 0.931 . S
H1153 C1168 0.930 . S
C1154 H1142 0.930 . S
C1154 C1155 1.399 . S
C1154 C1159 1.399 . S
C1155 C1154 1.399 . S
C1155 C1156 1.376 . S
C1156 H1143 0.930 . S
C1156 C1155 1.376 . S
C1156 C1157 1.388 . S
C1157 H1144 0.930 . S
C1157 C1156 1.388 . S
C1157 C1158 1.390 . S
C1158 C1157 1.390 . S
C1158 C1159 1.394 . S
C1158 C1164 1.465 . S
C1159 C1154 1.399 . S
C1159 C1158 1.394 . S
C1159 C1160 1.516 . S
C1160 C1159 1.516 . S
C1160 C1161 1.502 . S
C1160 C1162 1.561 . S
C1160 C1163 1.526 . S
C1161 H1145 0.959 . S
C1161 H1146 0.959 . S
C1161 H1147 0.961 . S
C1161 C1160 1.502 . S
C1162 H1148 0.960 . S
C1162 H1149 0.961 . S
C1162 H1150 0.959 . S
C1162 C1160 1.561 . S
C1163 C1160 1.526 . S
C1163 C1164 1.396 . S
C1163 C1168 1.390 . S
C1164 C1158 1.465 . S
C1164 C1163 1.396 . S
C1164 C1165 1.399 . S
C1165 H1151 0.929 . S
C1165 C1164 1.399 . S
C1165 C1166 1.385 . S
C1166 H1152 0.931 . S
C1166 C1165 1.385 . S
C1166 C1167 1.389 . S
C1167 C1166 1.389 . S
C1167 C1168 1.387 . S
C1168 H1153 0.930 . S
C1168 C1163 1.390 . S
C1168 C1167 1.387 . S
H1169 C1181 0.930 . S
H1170 C1183 0.930 . S
H1171 C1184 0.930 . S
H1172 C1188 0.959 . S
H1173 C1188 0.959 . S
H1174 C1188 0.961 . S
H1175 C1189 0.960 . S
H1176 C1189 0.961 . S
H1177 C1189 0.959 . S
H1178 C1192 0.929 . S
H1179 C1193 0.931 . S
H1180 C1195 0.930 . S
C1181 H1169 0.930 . S
C1181 C1182 1.399 . S
C1181 C1186 1.399 . S
C1182 C1181 1.399 . S
C1182 C1183 1.376 . S
C1183 H1170 0.930 . S
C1183 C1182 1.376 . S
C1183 C1184 1.388 . S
C1184 H1171 0.930 . S
C1184 C1183 1.388 . S
C1184 C1185 1.390 . S
C1185 C1184 1.390 . S
C1185 C1186 1.394 . S
C1185 C1191 1.465 . S
C1186 C1181 1.399 . S
C1186 C1185 1.394 . S
C1186 C1187 1.516 . S
C1187 C1186 1.516 . S
C1187 C1188 1.502 . S
C1187 C1189 1.561 . S
C1187 C1190 1.526 . S
C1188 H1172 0.959 . S
C1188 H1173 0.959 . S
C1188 H1174 0.961 . S
C1188 C1187 1.502 . S
C1189 H1175 0.960 . S
C1189 H1176 0.961 . S
C1189 H1177 0.959 . S
C1189 C1187 1.561 . S
C1190 C1187 1.526 . S
C1190 C1191 1.396 . S
C1190 C1195 1.390 . S
C1191 C1185 1.465 . S
C1191 C1190 1.396 . S
C1191 C1192 1.399 . S
C1192 H1178 0.929 . S
C1192 C1191 1.399 . S
C1192 C1193 1.385 . S
C1193 H1179 0.931 . S
C1193 C1192 1.385 . S
C1193 C1194 1.389 . S
C1194 C1193 1.389 . S
C1194 C1195 1.387 . S
C1195 H1180 0.930 . S
C1195 C1190 1.390 . S
C1195 C1194 1.387 . S
H1196 C1208 0.930 . S
H1197 C1210 0.930 . S
H1198 C1211 0.930 . S
H1199 C1215 0.959 . S
H1200 C1215 0.959 . S
H1201 C1215 0.961 . S
H1202 C1216 0.960 . S
H1203 C1216 0.961 . S
H1204 C1216 0.959 . S
H1205 C1219 0.929 . S
H1206 C1220 0.931 . S
H1207 C1222 0.930 . S
C1208 H1196 0.930 . S
C1208 C1209 1.399 . S
C1208 C1213 1.399 . S
C1209 C1208 1.399 . S
C1209 C1210 1.376 . S
C1210 H1197 0.930 . S
C1210 C1209 1.376 . S
C1210 C1211 1.388 . S
C1211 H1198 0.930 . S
C1211 C1210 1.388 . S
C1211 C1212 1.390 . S
C1212 C1211 1.390 . S
C1212 C1213 1.394 . S
C1212 C1218 1.465 . S
C1213 C1208 1.399 . S
C1213 C1212 1.394 . S
C1213 C1214 1.516 . S
C1214 C1213 1.516 . S
C1214 C1215 1.502 . S
C1214 C1216 1.561 . S
C1214 C1217 1.526 . S
C1215 H1199 0.959 . S
C1215 H1200 0.959 . S
C1215 H1201 0.961 . S
C1215 C1214 1.502 . S
C1216 H1202 0.960 . S
C1216 H1203 0.961 . S
C1216 H1204 0.959 . S
C1216 C1214 1.561 . S
C1217 C1214 1.526 . S
C1217 C1218 1.396 . S
C1217 C1222 1.390 . S
C1218 C1212 1.465 . S
C1218 C1217 1.396 . S
C1218 C1219 1.399 . S
C1219 H1205 0.929 . S
C1219 C1218 1.399 . S
C1219 C1220 1.385 . S
C1220 H1206 0.931 . S
C1220 C1219 1.385 . S
C1220 C1221 1.389 . S
C1221 C1220 1.389 . S
C1221 C1222 1.387 . S
C1222 H1207 0.930 . S
C1222 C1217 1.390 . S
C1222 C1221 1.387 . S
H1223 C1235 0.930 . S
H1224 C1237 0.930 . S
H1225 C1238 0.930 . S
H1226 C1242 0.959 . S
H1227 C1242 0.959 . S
H1228 C1242 0.961 . S
H1229 C1243 0.960 . S
H1230 C1243 0.961 . S
H1231 C1243 0.959 . S
H1232 C1246 0.929 . S
H1233 C1247 0.931 . S
H1234 C1249 0.930 . S
C1235 H1223 0.930 . S
C1235 C1236 1.399 . S
C1235 C1240 1.399 . S
C1236 C1235 1.399 . S
C1236 C1237 1.376 . S
C1237 H1224 0.930 . S
C1237 C1236 1.376 . S
C1237 C1238 1.388 . S
C1238 H1225 0.930 . S
C1238 C1237 1.388 . S
C1238 C1239 1.390 . S
C1239 C1238 1.390 . S
C1239 C1240 1.394 . S
C1239 C1245 1.465 . S
C1240 C1235 1.399 . S
C1240 C1239 1.394 . S
C1240 C1241 1.516 . S
C1241 C1240 1.516 . S
C1241 C1242 1.502 . S
C1241 C1243 1.561 . S
C1241 C1244 1.526 . S
C1242 H1226 0.959 . S
C1242 H1227 0.959 . S
C1242 H1228 0.961 . S
C1242 C1241 1.502 . S
C1243 H1229 0.960 . S
C1243 H1230 0.961 . S
C1243 H1231 0.959 . S
C1243 C1241 1.561 . S
C1244 C1241 1.526 . S
C1244 C1245 1.396 . S
C1244 C1249 1.390 . S
C1245 C1239 1.465 . S
C1245 C1244 1.396 . S
C1245 C1246 1.399 . S
C1246 H1232 0.929 . S
C1246 C1245 1.399 . S
C1246 C1247 1.385 . S
C1247 H1233 0.931 . S
C1247 C1246 1.385 . S
C1247 C1248 1.389 . S
C1248 C1247 1.389 . S
C1248 C1249 1.387 . S
C1249 H1234 0.930 . S
C1249 C1244 1.390 . S
C1249 C1248 1.387 . S
H1250 C1262 0.930 . S
H1251 C1264 0.930 . S
H1252 C1265 0.930 . S
H1253 C1269 0.959 . S
H1254 C1269 0.959 . S
H1255 C1269 0.961 . S
H1256 C1270 0.960 . S
H1257 C1270 0.961 . S
H1258 C1270 0.959 . S
H1259 C1273 0.929 . S
H1260 C1274 0.931 . S
H1261 C1276 0.930 . S
C1262 H1250 0.930 . S
C1262 C1263 1.399 . S
C1262 C1267 1.399 . S
C1263 C1262 1.399 . S
C1263 C1264 1.376 . S
C1264 H1251 0.930 . S
C1264 C1263 1.376 . S
C1264 C1265 1.388 . S
C1265 H1252 0.930 . S
C1265 C1264 1.388 . S
C1265 C1266 1.390 . S
C1266 C1265 1.390 . S
C1266 C1267 1.394 . S
C1266 C1272 1.465 . S
C1267 C1262 1.399 . S
C1267 C1266 1.394 . S
C1267 C1268 1.516 . S
C1268 C1267 1.516 . S
C1268 C1269 1.502 . S
C1268 C1270 1.561 . S
C1268 C1271 1.526 . S
C1269 H1253 0.959 . S
C1269 H1254 0.959 . S
C1269 H1255 0.961 . S
C1269 C1268 1.502 . S
C1270 H1256 0.960 . S
C1270 H1257 0.961 . S
C1270 H1258 0.959 . S
C1270 C1268 1.561 . S
C1271 C1268 1.526 . S
C1271 C1272 1.396 . S
C1271 C1276 1.390 . S
C1272 C1266 1.465 . S
C1272 C1271 1.396 . S
C1272 C1273 1.399 . S
C1273 H1259 0.929 . S
C1273 C1272 1.399 . S
C1273 C1274 1.385 . S
C1274 H1260 0.931 . S
C1274 C1273 1.385 . S
C1274 C1275 1.389 . S
C1275 C1274 1.389 . S
C1275 C1276 1.387 . S
C1276 H1261 0.930 . S
C1276 C1271 1.390 . S
C1276 C1275 1.387 . S
H1277 C1289 0.930 . S
H1278 C1291 0.930 . S
H1279 C1292 0.930 . S
H1280 C1296 0.959 . S
H1281 C1296 0.959 1_655 S
H1282 C1296 0.961 . S
H1283 C1297 0.960 . S
H1284 C1297 0.961 . S
H1285 C1297 0.959 . S
H1286 C1300 0.929 . S
H1287 C1301 0.931 . S
H1288 C1303 0.930 . S
C1289 H1277 0.930 . S
C1289 C1290 1.399 . S
C1289 C1294 1.399 . S
C1290 C1289 1.399 . S
C1290 C1291 1.376 . S
C1291 H1278 0.930 . S
C1291 C1290 1.376 . S
C1291 C1292 1.388 . S
C1292 H1279 0.930 . S
C1292 C1291 1.388 . S
C1292 C1293 1.390 . S
C1293 C1292 1.390 . S
C1293 C1294 1.394 . S
C1293 C1299 1.465 . S
C1294 C1289 1.399 . S
C1294 C1293 1.394 . S
C1294 C1295 1.516 . S
C1295 C1294 1.516 . S
C1295 C1296 1.502 . S
C1295 C1297 1.561 . S
C1295 C1298 1.526 . S
C1296 H1280 0.959 . S
C1296 H1281 0.959 1_455 S
C1296 H1282 0.961 . S
C1296 C1295 1.502 . S
C1297 H1283 0.960 . S
C1297 H1284 0.961 . S
C1297 H1285 0.959 . S
C1297 C1295 1.561 . S
C1298 C1295 1.526 . S
C1298 C1299 1.396 . S
C1298 C1303 1.390 1_455 S
C1299 C1293 1.465 . S
C1299 C1298 1.396 . S
C1299 C1300 1.399 . S
C1300 H1286 0.929 . S
C1300 C1299 1.399 . S
C1300 C1301 1.385 . S
C1301 H1287 0.931 . S
C1301 C1300 1.385 . S
C1301 C1302 1.389 1_455 S
C1302 C1301 1.389 1_655 S
C1302 C1303 1.387 . S
C1303 H1288 0.930 . S
C1303 C1298 1.390 1_655 S
C1303 C1302 1.387 . S
H1304 C1316 0.930 . S
H1305 C1318 0.930 . S
H1306 C1319 0.930 . S
H1307 C1323 0.959 . S
H1308 C1323 0.959 . S
H1309 C1323 0.961 . S
H1310 C1324 0.960 . S
H1311 C1324 0.961 . S
H1312 C1324 0.959 . S
H1313 C1327 0.929 . S
H1314 C1328 0.931 . S
H1315 C1330 0.930 . S
C1316 H1304 0.930 . S
C1316 C1317 1.399 . S
C1316 C1321 1.399 . S
C1317 C1316 1.399 . S
C1317 C1318 1.376 . S
C1318 H1305 0.930 . S
C1318 C1317 1.376 . S
C1318 C1319 1.388 . S
C1319 H1306 0.930 . S
C1319 C1318 1.388 . S
C1319 C1320 1.390 . S
C1320 C1319 1.390 . S
C1320 C1321 1.394 . S
C1320 C1326 1.465 . S
C1321 C1316 1.399 . S
C1321 C1320 1.394 . S
C1321 C1322 1.516 . S
C1322 C1321 1.516 . S
C1322 C1323 1.502 . S
C1322 C1324 1.561 . S
C1322 C1325 1.526 . S
C1323 H1307 0.959 . S
C1323 H1308 0.959 . S
C1323 H1309 0.961 . S
C1323 C1322 1.502 . S
C1324 H1310 0.960 . S
C1324 H1311 0.961 . S
C1324 H1312 0.959 . S
C1324 C1322 1.561 . S
C1325 C1322 1.526 . S
C1325 C1326 1.396 . S
C1325 C1330 1.390 . S
C1326 C1320 1.465 . S
C1326 C1325 1.396 . S
C1326 C1327 1.399 . S
C1327 H1313 0.929 . S
C1327 C1326 1.399 . S
C1327 C1328 1.385 . S
C1328 H1314 0.931 . S
C1328 C1327 1.385 . S
C1328 C1329 1.389 . S
C1329 C1328 1.389 . S
C1329 C1330 1.387 . S
C1330 H1315 0.930 . S
C1330 C1325 1.390 . S
C1330 C1329 1.387 . S
H1331 C1343 0.930 . S
H1332 C1345 0.930 . S
H1333 C1346 0.930 . S
H1334 C1350 0.959 . S
H1335 C1350 0.959 . S
H1336 C1350 0.961 1_455 S
H1337 C1351 0.960 . S
H1338 C1351 0.961 . S
H1339 C1351 0.959 . S
H1340 C1354 0.929 . S
H1341 C1355 0.931 . S
H1342 C1357 0.930 . S
C1343 H1331 0.930 . S
C1343 C1344 1.399 . S
C1343 C1348 1.399 1_455 S
C1344 C1343 1.399 . S
C1344 C1345 1.376 1_455 S
C1345 H1332 0.930 . S
C1345 C1344 1.376 1_655 S
C1345 C1346 1.388 . S
C1346 H1333 0.930 . S
C1346 C1345 1.388 . S
C1346 C1347 1.390 . S
C1347 C1346 1.390 . S
C1347 C1348 1.394 . S
C1347 C1353 1.465 . S
C1348 C1343 1.399 1_655 S
C1348 C1347 1.394 . S
C1348 C1349 1.516 . S
C1349 C1348 1.516 . S
C1349 C1350 1.502 . S
C1349 C1351 1.561 . S
C1349 C1352 1.526 . S
C1350 H1334 0.959 . S
C1350 H1335 0.959 . S
C1350 H1336 0.961 1_655 S
C1350 C1349 1.502 . S
C1351 H1337 0.960 . S
C1351 H1338 0.961 . S
C1351 H1339 0.959 . S
C1351 C1349 1.561 . S
C1352 C1349 1.526 . S
C1352 C1353 1.396 . S
C1352 C1357 1.390 . S
C1353 C1347 1.465 . S
C1353 C1352 1.396 . S
C1353 C1354 1.399 . S
C1354 H1340 0.929 . S
C1354 C1353 1.399 . S
C1354 C1355 1.385 . S
C1355 H1341 0.931 . S
C1355 C1354 1.385 . S
C1355 C1356 1.389 . S
C1356 C1355 1.389 . S
C1356 C1357 1.387 . S
C1357 H1342 0.930 . S
C1357 C1352 1.390 . S
C1357 C1356 1.387 . S
H1358 C1370 0.930 . S
H1359 C1372 0.930 . S
H1360 C1373 0.930 . S
H1361 C1377 0.959 . S
H1362 C1377 0.959 . S
H1363 C1377 0.961 . S
H1364 C1378 0.960 . S
H1365 C1378 0.961 . S
H1366 C1378 0.959 . S
H1367 C1381 0.929 . S
H1368 C1382 0.931 . S
H1369 C1384 0.930 . S
C1370 H1358 0.930 . S
C1370 C1371 1.399 . S
C1370 C1375 1.399 . S
C1371 C1370 1.399 . S
C1371 C1372 1.376 . S
C1372 H1359 0.930 . S
C1372 C1371 1.376 . S
C1372 C1373 1.388 . S
C1373 H1360 0.930 . S
C1373 C1372 1.388 . S
C1373 C1374 1.390 . S
C1374 C1373 1.390 . S
C1374 C1375 1.394 . S
C1374 C1380 1.465 . S
C1375 C1370 1.399 . S
C1375 C1374 1.394 . S
C1375 C1376 1.516 . S
C1376 C1375 1.516 . S
C1376 C1377 1.502 . S
C1376 C1378 1.561 . S
C1376 C1379 1.526 . S
C1377 H1361 0.959 . S
C1377 H1362 0.959 . S
C1377 H1363 0.961 . S
C1377 C1376 1.502 . S
C1378 H1364 0.960 . S
C1378 H1365 0.961 . S
C1378 H1366 0.959 . S
C1378 C1376 1.561 . S
C1379 C1376 1.526 . S
C1379 C1380 1.396 . S
C1379 C1384 1.390 . S
C1380 C1374 1.465 . S
C1380 C1379 1.396 . S
C1380 C1381 1.399 . S
C1381 H1367 0.929 . S
C1381 C1380 1.399 . S
C1381 C1382 1.385 . S
C1382 H1368 0.931 . S
C1382 C1381 1.385 . S
C1382 C1383 1.389 . S
C1383 C1382 1.389 . S
C1383 C1384 1.387 . S
C1384 H1369 0.930 . S
C1384 C1379 1.390 . S
C1384 C1383 1.387 . S
H1385 C1397 0.930 . S
H1386 C1399 0.930 . S
H1387 C1400 0.930 . S
H1388 C1404 0.959 . S
H1389 C1404 0.959 . S
H1390 C1404 0.961 . S
H1391 C1405 0.960 . S
H1392 C1405 0.961 . S
H1393 C1405 0.959 . S
H1394 C1408 0.929 . S
H1395 C1409 0.931 . S
H1396 C1411 0.930 . S
C1397 H1385 0.930 . S
C1397 C1398 1.399 . S
C1397 C1402 1.399 . S
C1398 C1397 1.399 . S
C1398 C1399 1.376 . S
C1399 H1386 0.930 . S
C1399 C1398 1.376 . S
C1399 C1400 1.388 . S
C1400 H1387 0.930 . S
C1400 C1399 1.388 . S
C1400 C1401 1.390 . S
C1401 C1400 1.390 . S
C1401 C1402 1.394 . S
C1401 C1407 1.465 . S
C1402 C1397 1.399 . S
C1402 C1401 1.394 . S
C1402 C1403 1.516 . S
C1403 C1402 1.516 . S
C1403 C1404 1.502 . S
C1403 C1405 1.561 . S
C1403 C1406 1.526 . S
C1404 H1388 0.959 . S
C1404 H1389 0.959 . S
C1404 H1390 0.961 . S
C1404 C1403 1.502 . S
C1405 H1391 0.960 . S
C1405 H1392 0.961 . S
C1405 H1393 0.959 . S
C1405 C1403 1.561 . S
C1406 C1403 1.526 . S
C1406 C1407 1.396 . S
C1406 C1411 1.390 . S
C1407 C1401 1.465 . S
C1407 C1406 1.396 . S
C1407 C1408 1.399 . S
C1408 H1394 0.929 . S
C1408 C1407 1.399 . S
C1408 C1409 1.385 . S
C1409 H1395 0.931 . S
C1409 C1408 1.385 . S
C1409 C1410 1.389 . S
C1410 C1409 1.389 . S
C1410 C1411 1.387 . S
C1411 H1396 0.930 . S
C1411 C1406 1.390 . S
C1411 C1410 1.387 . S
H1412 C1424 0.930 . S
H1413 C1426 0.930 . S
H1414 C1427 0.930 . S
H1415 C1431 0.959 . S
H1416 C1431 0.959 . S
H1417 C1431 0.961 . S
H1418 C1432 0.960 . S
H1419 C1432 0.961 . S
H1420 C1432 0.959 . S
H1421 C1435 0.929 . S
H1422 C1436 0.931 . S
H1423 C1438 0.930 . S
C1424 H1412 0.930 . S
C1424 C1425 1.399 . S
C1424 C1429 1.399 . S
C1425 C1424 1.399 . S
C1425 C1426 1.376 . S
C1426 H1413 0.930 . S
C1426 C1425 1.376 . S
C1426 C1427 1.388 . S
C1427 H1414 0.930 . S
C1427 C1426 1.388 . S
C1427 C1428 1.390 . S
C1428 C1427 1.390 . S
C1428 C1429 1.394 . S
C1428 C1434 1.465 . S
C1429 C1424 1.399 . S
C1429 C1428 1.394 . S
C1429 C1430 1.516 . S
C1430 C1429 1.516 . S
C1430 C1431 1.502 . S
C1430 C1432 1.561 . S
C1430 C1433 1.526 . S
C1431 H1415 0.959 . S
C1431 H1416 0.959 . S
C1431 H1417 0.961 . S
C1431 C1430 1.502 . S
C1432 H1418 0.960 . S
C1432 H1419 0.961 . S
C1432 H1420 0.959 . S
C1432 C1430 1.561 . S
C1433 C1430 1.526 . S
C1433 C1434 1.396 . S
C1433 C1438 1.390 . S
C1434 C1428 1.465 . S
C1434 C1433 1.396 . S
C1434 C1435 1.399 . S
C1435 H1421 0.929 . S
C1435 C1434 1.399 . S
C1435 C1436 1.385 . S
C1436 H1422 0.931 . S
C1436 C1435 1.385 . S
C1436 C1437 1.389 . S
C1437 C1436 1.389 . S
C1437 C1438 1.387 . S
C1438 H1423 0.930 . S
C1438 C1433 1.390 . S
C1438 C1437 1.387 . S
H1439 C1451 0.930 . S
H1440 C1453 0.930 . S
H1441 C1454 0.930 . S
H1442 C1458 0.959 . S
H1443 C1458 0.959 . S
H1444 C1458 0.961 . S
H1445 C1459 0.960 . S
H1446 C1459 0.961 . S
H1447 C1459 0.959 . S
H1448 C1462 0.929 . S
H1449 C1463 0.931 . S
H1450 C1465 0.930 . S
C1451 H1439 0.930 . S
C1451 C1452 1.399 . S
C1451 C1456 1.399 . S
C1452 C1451 1.399 . S
C1452 C1453 1.376 . S
C1453 H1440 0.930 . S
C1453 C1452 1.376 . S
C1453 C1454 1.388 . S
C1454 H1441 0.930 . S
C1454 C1453 1.388 . S
C1454 C1455 1.390 . S
C1455 C1454 1.390 . S
C1455 C1456 1.394 . S
C1455 C1461 1.465 . S
C1456 C1451 1.399 . S
C1456 C1455 1.394 . S
C1456 C1457 1.516 . S
C1457 C1456 1.516 . S
C1457 C1458 1.502 . S
C1457 C1459 1.561 . S
C1457 C1460 1.526 . S
C1458 H1442 0.959 . S
C1458 H1443 0.959 . S
C1458 H1444 0.961 . S
C1458 C1457 1.502 . S
C1459 H1445 0.960 . S
C1459 H1446 0.961 . S
C1459 H1447 0.959 . S
C1459 C1457 1.561 . S
C1460 C1457 1.526 . S
C1460 C1461 1.396 . S
C1460 C1465 1.390 . S
C1461 C1455 1.465 . S
C1461 C1460 1.396 . S
C1461 C1462 1.399 . S
C1462 H1448 0.929 . S
C1462 C1461 1.399 . S
C1462 C1463 1.385 . S
C1463 H1449 0.931 . S
C1463 C1462 1.385 . S
C1463 C1464 1.389 . S
C1464 C1463 1.389 . S
C1464 C1465 1.387 . S
C1465 H1450 0.930 . S
C1465 C1460 1.390 . S
C1465 C1464 1.387 . S
H1466 C1478 0.930 . S
H1467 C1480 0.930 . S
H1468 C1481 0.930 . S
H1469 C1485 0.959 . S
H1470 C1485 0.959 . S
H1471 C1485 0.961 . S
H1472 C1486 0.960 . S
H1473 C1486 0.961 . S
H1474 C1486 0.959 . S
H1475 C1489 0.929 . S
H1476 C1490 0.931 . S
H1477 C1492 0.930 . S
C1478 H1466 0.930 . S
C1478 C1479 1.399 . S
C1478 C1483 1.399 . S
C1479 C1478 1.399 . S
C1479 C1480 1.376 . S
C1480 H1467 0.930 . S
C1480 C1479 1.376 . S
C1480 C1481 1.388 . S
C1481 H1468 0.930 . S
C1481 C1480 1.388 . S
C1481 C1482 1.390 . S
C1482 C1481 1.390 . S
C1482 C1483 1.394 . S
C1482 C1488 1.465 . S
C1483 C1478 1.399 . S
C1483 C1482 1.394 . S
C1483 C1484 1.516 . S
C1484 C1483 1.516 . S
C1484 C1485 1.502 . S
C1484 C1486 1.561 . S
C1484 C1487 1.526 . S
C1485 H1469 0.959 . S
C1485 H1470 0.959 . S
C1485 H1471 0.961 . S
C1485 C1484 1.502 . S
C1486 H1472 0.960 . S
C1486 H1473 0.961 . S
C1486 H1474 0.959 . S
C1486 C1484 1.561 . S
C1487 C1484 1.526 . S
C1487 C1488 1.396 . S
C1487 C1492 1.390 . S
C1488 C1482 1.465 . S
C1488 C1487 1.396 . S
C1488 C1489 1.399 . S
C1489 H1475 0.929 . S
C1489 C1488 1.399 . S
C1489 C1490 1.385 . S
C1490 H1476 0.931 . S
C1490 C1489 1.385 . S
C1490 C1491 1.389 . S
C1491 C1490 1.389 . S
C1491 C1492 1.387 . S
C1492 H1477 0.930 . S
C1492 C1487 1.390 . S
C1492 C1491 1.387 . S
H1493 C1505 0.930 1_455 S
H1494 C1507 0.926 1_455 S
H1495 C1508 0.930 . S
H1496 C1512 0.959 . S
H1497 C1512 0.959 . S
H1498 C1512 0.961 . S
H1499 C1513 0.960 . S
H1500 C1513 0.961 . S
H1501 C1513 0.959 . S
H1502 C1516 0.929 . S
H1503 C1517 0.931 . S
H1504 C1519 0.930 . S
C1505 H1493 0.930 1_655 S
C1505 C1506 1.399 1_655 S
C1505 C1510 1.399 . S
C1506 C1505 1.399 1_455 S
C1506 C1507 1.376 1_455 S
C1507 H1494 0.926 1_655 S
C1507 C1506 1.376 1_655 S
C1507 C1508 1.388 . S
C1508 H1495 0.930 . S
C1508 C1507 1.388 . S
C1508 C1509 1.390 . S
C1509 C1508 1.390 . S
C1509 C1510 1.394 . S
C1509 C1515 1.465 . S
C1510 C1505 1.399 . S
C1510 C1509 1.394 . S
C1510 C1511 1.516 . S
C1511 C1510 1.516 . S
C1511 C1512 1.502 . S
C1511 C1513 1.561 . S
C1511 C1514 1.526 . S
C1512 H1496 0.959 . S
C1512 H1497 0.959 . S
C1512 H1498 0.961 . S
C1512 C1511 1.502 . S
C1513 H1499 0.960 . S
C1513 H1500 0.961 . S
C1513 H1501 0.959 . S
C1513 C1511 1.561 . S
C1514 C1511 1.526 . S
C1514 C1515 1.396 . S
C1514 C1519 1.390 . S
C1515 C1509 1.465 . S
C1515 C1514 1.396 . S
C1515 C1516 1.399 . S
C1516 H1502 0.929 . S
C1516 C1515 1.399 . S
C1516 C1517 1.385 . S
C1517 H1503 0.931 . S
C1517 C1516 1.385 . S
C1517 C1518 1.389 . S
C1518 C1517 1.389 . S
C1518 C1519 1.387 . S
C1519 H1504 0.930 . S
C1519 C1514 1.390 . S
C1519 C1518 1.387 . S
H1520 C1532 0.930 . S
H1521 C1534 0.930 . S
H1522 C1535 0.930 . S
H1523 C1539 0.959 . S
H1524 C1539 0.959 . S
H1525 C1539 0.961 . S
H1526 C1540 0.960 . S
H1527 C1540 0.961 . S
H1528 C1540 0.959 . S
H1529 C1543 0.929 . S
H1530 C1544 0.931 . S
H1531 C1546 0.930 . S
C1532 H1520 0.930 . S
C1532 C1533 1.399 . S
C1532 C1537 1.399 . S
C1533 C1532 1.399 . S
C1533 C1534 1.376 . S
C1534 H1521 0.930 . S
C1534 C1533 1.376 . S
C1534 C1535 1.388 . S
C1535 H1522 0.930 . S
C1535 C1534 1.388 . S
C1535 C1536 1.390 . S
C1536 C1535 1.390 . S
C1536 C1537 1.394 . S
C1536 C1542 1.465 . S
C1537 C1532 1.399 . S
C1537 C1536 1.394 . S
C1537 C1538 1.516 . S
C1538 C1537 1.516 . S
C1538 C1539 1.502 . S
C1538 C1540 1.561 . S
C1538 C1541 1.526 . S
C1539 H1523 0.959 . S
C1539 H1524 0.959 . S
C1539 H1525 0.961 . S
C1539 C1538 1.502 . S
C1540 H1526 0.960 . S
C1540 H1527 0.961 . S
C1540 H1528 0.959 . S
C1540 C1538 1.561 . S
C1541 C1538 1.526 . S
C1541 C1542 1.396 . S
C1541 C1546 1.390 . S
C1542 C1536 1.465 . S
C1542 C1541 1.396 . S
C1542 C1543 1.399 . S
C1543 H1529 0.929 . S
C1543 C1542 1.399 . S
C1543 C1544 1.385 . S
C1544 H1530 0.931 . S
C1544 C1543 1.385 . S
C1544 C1545 1.389 . S
C1545 C1544 1.389 . S
C1545 C1546 1.387 . S
C1546 H1531 0.930 . S
C1546 C1541 1.390 . S
C1546 C1545 1.387 . S
H1547 C1559 0.930 . S
H1548 C1561 0.930 . S
H1549 C1562 0.930 . S
H1550 C1566 0.959 . S
H1551 C1566 0.959 . S
H1552 C1566 0.961 . S
H1553 C1567 0.960 . S
H1554 C1567 0.961 . S
H1555 C1567 0.959 . S
H1556 C1570 0.929 . S
H1557 C1571 0.931 . S
H1558 C1573 0.930 . S
C1559 H1547 0.930 . S
C1559 C1560 1.399 . S
C1559 C1564 1.399 . S
C1560 C1559 1.399 . S
C1560 C1561 1.376 . S
C1561 H1548 0.930 . S
C1561 C1560 1.376 . S
C1561 C1562 1.388 . S
C1562 H1549 0.930 . S
C1562 C1561 1.388 . S
C1562 C1563 1.390 . S
C1563 C1562 1.390 . S
C1563 C1564 1.394 . S
C1563 C1569 1.465 . S
C1564 C1559 1.399 . S
C1564 C1563 1.394 . S
C1564 C1565 1.516 . S
C1565 C1564 1.516 . S
C1565 C1566 1.502 . S
C1565 C1567 1.561 . S
C1565 C1568 1.526 . S
C1566 H1550 0.959 . S
C1566 H1551 0.959 . S
C1566 H1552 0.961 . S
C1566 C1565 1.502 . S
C1567 H1553 0.960 . S
C1567 H1554 0.961 . S
C1567 H1555 0.959 . S
C1567 C1565 1.561 . S
C1568 C1565 1.526 . S
C1568 C1569 1.396 . S
C1568 C1573 1.390 . S
C1569 C1563 1.465 . S
C1569 C1568 1.396 . S
C1569 C1570 1.399 . S
C1570 H1556 0.929 . S
C1570 C1569 1.399 . S
C1570 C1571 1.385 . S
C1571 H1557 0.931 . S
C1571 C1570 1.385 . S
C1571 C1572 1.389 . S
C1572 C1571 1.389 . S
C1572 C1573 1.387 . S
C1573 H1558 0.930 . S
C1573 C1568 1.390 . S
C1573 C1572 1.387 . S
H1574 C1586 0.930 . S
H1575 C1588 0.930 . S
H1576 C1589 0.930 . S
H1577 C1593 0.959 . S
H1578 C1593 0.959 . S
H1579 C1593 0.961 . S
H1580 C1594 0.960 . S
H1581 C1594 0.961 . S
H1582 C1594 0.959 . S
H1583 C1597 0.929 . S
H1584 C1598 0.931 . S
H1585 C1600 0.930 . S
C1586 H1574 0.930 . S
C1586 C1587 1.399 . S
C1586 C1591 1.399 . S
C1587 C1586 1.399 . S
C1587 C1588 1.376 . S
C1588 H1575 0.930 . S
C1588 C1587 1.376 . S
C1588 C1589 1.388 . S
C1589 H1576 0.930 . S
C1589 C1588 1.388 . S
C1589 C1590 1.390 . S
C1590 C1589 1.390 . S
C1590 C1591 1.394 . S
C1590 C1596 1.465 . S
C1591 C1586 1.399 . S
C1591 C1590 1.394 . S
C1591 C1592 1.516 . S
C1592 C1591 1.516 . S
C1592 C1593 1.502 . S
C1592 C1594 1.561 . S
C1592 C1595 1.526 . S
C1593 H1577 0.959 . S
C1593 H1578 0.959 . S
C1593 H1579 0.961 . S
C1593 C1592 1.502 . S
C1594 H1580 0.960 . S
C1594 H1581 0.961 . S
C1594 H1582 0.959 . S
C1594 C1592 1.561 . S
C1595 C1592 1.526 . S
C1595 C1596 1.396 . S
C1595 C1600 1.390 . S
C1596 C1590 1.465 . S
C1596 C1595 1.396 . S
C1596 C1597 1.399 . S
C1597 H1583 0.929 . S
C1597 C1596 1.399 . S
C1597 C1598 1.385 . S
C1598 H1584 0.931 . S
C1598 C1597 1.385 . S
C1598 C1599 1.389 . S
C1599 C1598 1.389 . S
C1599 C1600 1.387 . S
C1600 H1585 0.930 . S
C1600 C1595 1.390 . S
C1600 C1599 1.387 . S
H1601 C1613 0.930 . S
H1602 C1615 0.930 . S
H1603 C1616 0.930 . S
H1604 C1620 0.959 . S
H1605 C1620 0.959 . S
H1606 C1620 0.961 . S
H1607 C1621 0.960 . S
H1608 C1621 0.961 . S
H1609 C1621 0.959 . S
H1610 C1624 0.929 . S
H1611 C1625 0.931 . S
H1612 C1627 0.930 1_455 S
C1613 H1601 0.930 . S
C1613 C1614 1.399 . S
C1613 C1618 1.399 . S
C1614 C1613 1.399 . S
C1614 C1615 1.376 . S
C1615 H1602 0.930 . S
C1615 C1614 1.376 . S
C1615 C1616 1.388 . S
C1616 H1603 0.930 . S
C1616 C1615 1.388 . S
C1616 C1617 1.390 . S
C1617 C1616 1.390 . S
C1617 C1618 1.394 . S
C1617 C1623 1.465 . S
C1618 C1613 1.399 . S
C1618 C1617 1.394 . S
C1618 C1619 1.516 . S
C1619 C1618 1.516 . S
C1619 C1620 1.502 . S
C1619 C1621 1.561 . S
C1619 C1622 1.526 . S
C1620 H1604 0.959 . S
C1620 H1605 0.959 . S
C1620 H1606 0.961 . S
C1620 C1619 1.502 . S
C1621 H1607 0.960 . S
C1621 H1608 0.961 . S
C1621 H1609 0.959 . S
C1621 C1619 1.561 . S
C1622 C1619 1.526 . S
C1622 C1623 1.396 . S
C1622 C1627 1.390 . S
C1623 C1617 1.465 . S
C1623 C1622 1.396 . S
C1623 C1624 1.399 . S
C1624 H1610 0.929 . S
C1624 C1623 1.399 . S
C1624 C1625 1.385 . S
C1625 H1611 0.931 . S
C1625 C1624 1.385 . S
C1625 C1626 1.389 1_655 S
C1626 C1625 1.389 1_455 S
C1626 C1627 1.387 1_455 S
C1627 H1612 0.930 1_655 S
C1627 C1622 1.390 . S
C1627 C1626 1.387 1_655 S
H1628 C1640 0.930 . S
H1629 C1642 0.930 . S
H1630 C1643 0.930 . S
H1631 C1647 0.959 . S
H1632 C1647 0.959 . S
H1633 C1647 0.961 . S
H1634 C1648 0.960 . S
H1635 C1648 0.961 . S
H1636 C1648 0.959 . S
H1637 C1651 0.929 . S
H1638 C1652 0.931 . S
H1639 C1654 0.930 . S
C1640 H1628 0.930 . S
C1640 C1641 1.399 . S
C1640 C1645 1.399 . S
C1641 C1640 1.399 . S
C1641 C1642 1.376 . S
C1642 H1629 0.930 . S
C1642 C1641 1.376 . S
C1642 C1643 1.388 . S
C1643 H1630 0.930 . S
C1643 C1642 1.388 . S
C1643 C1644 1.390 . S
C1644 C1643 1.390 . S
C1644 C1645 1.394 . S
C1644 C1650 1.465 . S
C1645 C1640 1.399 . S
C1645 C1644 1.394 . S
C1645 C1646 1.516 . S
C1646 C1645 1.516 . S
C1646 C1647 1.502 . S
C1646 C1648 1.561 . S
C1646 C1649 1.526 . S
C1647 H1631 0.959 . S
C1647 H1632 0.959 . S
C1647 H1633 0.961 . S
C1647 C1646 1.502 . S
C1648 H1634 0.960 . S
C1648 H1635 0.961 . S
C1648 H1636 0.959 . S
C1648 C1646 1.561 . S
C1649 C1646 1.526 . S
C1649 C1650 1.396 . S
C1649 C1654 1.390 . S
C1650 C1644 1.465 . S
C1650 C1649 1.396 . S
C1650 C1651 1.399 . S
C1651 H1637 0.929 . S
C1651 C1650 1.399 . S
C1651 C1652 1.385 . S
C1652 H1638 0.931 . S
C1652 C1651 1.385 . S
C1652 C1653 1.389 . S
C1653 C1652 1.389 . S
C1653 C1654 1.387 . S
C1654 H1639 0.930 . S
C1654 C1649 1.390 . S
C1654 C1653 1.387 . S
H1655 C1667 0.930 . S
H1656 C1669 0.930 . S
H1657 C1670 0.930 . S
H1658 C1674 0.959 . S
H1659 C1674 0.959 . S
H1660 C1674 0.961 . S
H1661 C1675 0.960 . S
H1662 C1675 0.961 . S
H1663 C1675 0.959 . S
H1664 C1678 0.929 . S
H1665 C1679 0.931 . S
H1666 C1681 0.930 . S
C1667 H1655 0.930 . S
C1667 C1668 1.399 1_655 S
C1667 C1672 1.399 . S
C1668 C1667 1.399 1_455 S
C1668 C1669 1.376 . S
C1669 H1656 0.930 . S
C1669 C1668 1.376 . S
C1669 C1670 1.388 1_455 S
C1670 H1657 0.930 . S
C1670 C1669 1.388 1_655 S
C1670 C1671 1.390 . S
C1671 C1670 1.390 . S
C1671 C1672 1.394 . S
C1671 C1677 1.465 . S
C1672 C1667 1.399 . S
C1672 C1671 1.394 . S
C1672 C1673 1.516 . S
C1673 C1672 1.516 . S
C1673 C1674 1.502 . S
C1673 C1675 1.561 . S
C1673 C1676 1.526 . S
C1674 H1658 0.959 . S
C1674 H1659 0.959 . S
C1674 H1660 0.961 . S
C1674 C1673 1.502 . S
C1675 H1661 0.960 . S
C1675 H1662 0.961 . S
C1675 H1663 0.959 . S
C1675 C1673 1.561 . S
C1676 C1673 1.526 . S
C1676 C1677 1.396 . S
C1676 C1681 1.390 . S
C1677 C1671 1.465 . S
C1677 C1676 1.396 . S
C1677 C1678 1.399 . S
C1678 H1664 0.929 . S
C1678 C1677 1.399 . S
C1678 C1679 1.385 . S
C1679 H1665 0.931 . S
C1679 C1678 1.385 . S
C1679 C1680 1.389 . S
C1680 C1679 1.389 . S
C1680 C1681 1.387 . S
C1681 H1666 0.930 . S
C1681 C1676 1.390 . S
C1681 C1680 1.387 . S
H1682 C1694 0.930 . S
H1683 C1696 0.930 . S
H1684 C1697 0.930 . S
H1685 C1701 0.959 . S
H1686 C1701 0.959 . S
H1687 C1701 0.961 . S
H1688 C1702 0.960 . S
H1689 C1702 0.961 . S
H1690 C1702 0.959 . S
H1691 C1705 0.929 . S
H1692 C1706 0.931 . S
H1693 C1708 0.930 . S
C1694 H1682 0.930 . S
C1694 C1695 1.399 . S
C1694 C1699 1.399 . S
C1695 C1694 1.399 . S
C1695 C1696 1.376 . S
C1696 H1683 0.930 . S
C1696 C1695 1.376 . S
C1696 C1697 1.388 . S
C1697 H1684 0.930 . S
C1697 C1696 1.388 . S
C1697 C1698 1.390 . S
C1698 C1697 1.390 . S
C1698 C1699 1.394 . S
C1698 C1704 1.465 . S
C1699 C1694 1.399 . S
C1699 C1698 1.394 . S
C1699 C1700 1.516 . S
C1700 C1699 1.516 . S
C1700 C1701 1.502 . S
C1700 C1702 1.561 . S
C1700 C1703 1.526 . S
C1701 H1685 0.959 . S
C1701 H1686 0.959 . S
C1701 H1687 0.961 . S
C1701 C1700 1.502 . S
C1702 H1688 0.960 . S
C1702 H1689 0.961 . S
C1702 H1690 0.959 . S
C1702 C1700 1.561 . S
C1703 C1700 1.526 . S
C1703 C1704 1.396 . S
C1703 C1708 1.390 . S
C1704 C1698 1.465 . S
C1704 C1703 1.396 . S
C1704 C1705 1.399 . S
C1705 H1691 0.929 . S
C1705 C1704 1.399 . S
C1705 C1706 1.385 . S
C1706 H1692 0.931 . S
C1706 C1705 1.385 . S
C1706 C1707 1.389 . S
C1707 C1706 1.389 . S
C1707 C1708 1.387 . S
C1708 H1693 0.930 . S
C1708 C1703 1.390 . S
C1708 C1707 1.387 . S
H1709 C1721 0.930 . S
H1710 C1723 0.930 . S
H1711 C1724 0.930 . S
H1712 C1728 0.959 . S
H1713 C1728 0.959 . S
H1714 C1728 0.961 . S
H1715 C1729 0.960 . S
H1716 C1729 0.961 . S
H1717 C1729 0.959 . S
H1718 C1732 0.929 . S
H1719 C1733 0.931 . S
H1720 C1735 0.930 . S
C1721 H1709 0.930 . S
C1721 C1722 1.399 . S
C1721 C1726 1.399 . S
C1722 C1721 1.399 . S
C1722 C1723 1.376 . S
C1723 H1710 0.930 . S
C1723 C1722 1.376 . S
C1723 C1724 1.388 . S
C1724 H1711 0.930 . S
C1724 C1723 1.388 . S
C1724 C1725 1.390 . S
C1725 C1724 1.390 . S
C1725 C1726 1.394 . S
C1725 C1731 1.465 . S
C1726 C1721 1.399 . S
C1726 C1725 1.394 . S
C1726 C1727 1.516 . S
C1727 C1726 1.516 . S
C1727 C1728 1.502 . S
C1727 C1729 1.561 . S
C1727 C1730 1.526 . S
C1728 H1712 0.959 . S
C1728 H1713 0.959 . S
C1728 H1714 0.961 . S
C1728 C1727 1.502 . S
C1729 H1715 0.960 . S
C1729 H1716 0.961 . S
C1729 H1717 0.959 . S
C1729 C1727 1.561 . S
C1730 C1727 1.526 . S
C1730 C1731 1.396 . S
C1730 C1735 1.390 . S
C1731 C1725 1.465 . S
C1731 C1730 1.396 . S
C1731 C1732 1.399 . S
C1732 H1718 0.929 . S
C1732 C1731 1.399 . S
C1732 C1733 1.385 . S
C1733 H1719 0.931 . S
C1733 C1732 1.385 . S
C1733 C1734 1.389 . S
C1734 C1733 1.389 . S
C1734 C1735 1.387 . S
C1735 H1720 0.930 . S
C1735 C1730 1.390 . S
C1735 C1734 1.387 . S
H1736 C1748 0.930 . S
H1737 C1750 0.930 . S
H1738 C1751 0.930 . S
H1739 C1755 0.959 . S
H1740 C1755 0.959 . S
H1741 C1755 0.961 . S
H1742 C1756 0.960 . S
H1743 C1756 0.961 . S
H1744 C1756 0.959 . S
H1745 C1759 0.929 . S
H1746 C1760 0.931 . S
H1747 C1762 0.930 . S
C1748 H1736 0.930 . S
C1748 C1749 1.399 . S
C1748 C1753 1.399 . S
C1749 C1748 1.399 . S
C1749 C1750 1.376 . S
C1750 H1737 0.930 . S
C1750 C1749 1.376 . S
C1750 C1751 1.388 . S
C1751 H1738 0.930 . S
C1751 C1750 1.388 . S
C1751 C1752 1.390 . S
C1752 C1751 1.390 . S
C1752 C1753 1.394 . S
C1752 C1758 1.465 . S
C1753 C1748 1.399 . S
C1753 C1752 1.394 . S
C1753 C1754 1.516 . S
C1754 C1753 1.516 . S
C1754 C1755 1.502 . S
C1754 C1756 1.561 . S
C1754 C1757 1.526 . S
C1755 H1739 0.959 . S
C1755 H1740 0.959 . S
C1755 H1741 0.961 . S
C1755 C1754 1.502 . S
C1756 H1742 0.960 . S
C1756 H1743 0.961 . S
C1756 H1744 0.959 . S
C1756 C1754 1.561 . S
C1757 C1754 1.526 . S
C1757 C1758 1.396 . S
C1757 C1762 1.390 . S
C1758 C1752 1.465 . S
C1758 C1757 1.396 . S
C1758 C1759 1.399 . S
C1759 H1745 0.929 . S
C1759 C1758 1.399 . S
C1759 C1760 1.385 . S
C1760 H1746 0.931 . S
C1760 C1759 1.385 . S
C1760 C1761 1.389 . S
C1761 C1760 1.389 . S
C1761 C1762 1.387 . S
C1762 H1747 0.930 . S
C1762 C1757 1.390 . S
C1762 C1761 1.387 . S
H1763 C1775 0.930 . S
H1764 C1777 0.930 . S
H1765 C1778 0.930 . S
H1766 C1782 0.959 . S
H1767 C1782 0.959 . S
H1768 C1782 0.961 . S
H1769 C1783 0.960 . S
H1770 C1783 0.961 . S
H1771 C1783 0.959 . S
H1772 C1786 0.929 . S
H1773 C1787 0.931 . S
H1774 C1789 0.930 . S
C1775 H1763 0.930 . S
C1775 C1776 1.399 . S
C1775 C1780 1.399 . S
C1776 C1775 1.399 . S
C1776 C1777 1.376 . S
C1777 H1764 0.930 . S
C1777 C1776 1.376 . S
C1777 C1778 1.388 . S
C1778 H1765 0.930 . S
C1778 C1777 1.388 . S
C1778 C1779 1.390 . S
C1779 C1778 1.390 . S
C1779 C1780 1.394 . S
C1779 C1785 1.465 . S
C1780 C1775 1.399 . S
C1780 C1779 1.394 . S
C1780 C1781 1.516 . S
C1781 C1780 1.516 . S
C1781 C1782 1.502 . S
C1781 C1783 1.561 . S
C1781 C1784 1.526 . S
C1782 H1766 0.959 . S
C1782 H1767 0.959 . S
C1782 H1768 0.961 . S
C1782 C1781 1.502 . S
C1783 H1769 0.960 . S
C1783 H1770 0.961 . S
C1783 H1771 0.959 . S
C1783 C1781 1.561 . S
C1784 C1781 1.526 . S
C1784 C1785 1.396 . S
C1784 C1789 1.390 . S
C1785 C1779 1.465 . S
C1785 C1784 1.396 . S
C1785 C1786 1.399 . S
C1786 H1772 0.929 . S
C1786 C1785 1.399 . S
C1786 C1787 1.385 . S
C1787 H1773 0.931 . S
C1787 C1786 1.385 . S
C1787 C1788 1.389 . S
C1788 C1787 1.389 . S
C1788 C1789 1.387 . S
C1789 H1774 0.930 . S
C1789 C1784 1.390 . S
C1789 C1788 1.387 . S
H1790 C1802 0.930 . S
H1791 C1804 0.930 . S
H1792 C1805 0.930 . S
H1793 C1809 0.959 . S
H1794 C1809 0.959 . S
H1795 C1809 0.961 . S
H1796 C1810 0.960 . S
H1797 C1810 0.961 . S
H1798 C1810 0.959 . S
H1799 C1813 0.929 . S
H1800 C1814 0.931 . S
H1801 C1816 0.930 . S
C1802 H1790 0.930 . S
C1802 C1803 1.399 . S
C1802 C1807 1.399 . S
C1803 C1802 1.399 . S
C1803 C1804 1.376 . S
C1804 H1791 0.930 . S
C1804 C1803 1.376 . S
C1804 C1805 1.388 . S
C1805 H1792 0.930 . S
C1805 C1804 1.388 . S
C1805 C1806 1.390 . S
C1806 C1805 1.390 . S
C1806 C1807 1.394 . S
C1806 C1812 1.465 . S
C1807 C1802 1.399 . S
C1807 C1806 1.394 . S
C1807 C1808 1.516 . S
C1808 C1807 1.516 . S
C1808 C1809 1.502 . S
C1808 C1810 1.561 . S
C1808 C1811 1.526 . S
C1809 H1793 0.959 . S
C1809 H1794 0.959 . S
C1809 H1795 0.961 . S
C1809 C1808 1.502 . S
C1810 H1796 0.960 . S
C1810 H1797 0.961 . S
C1810 H1798 0.959 . S
C1810 C1808 1.561 . S
C1811 C1808 1.526 . S
C1811 C1812 1.396 . S
C1811 C1816 1.390 . S
C1812 C1806 1.465 . S
C1812 C1811 1.396 . S
C1812 C1813 1.399 . S
C1813 H1799 0.929 . S
C1813 C1812 1.399 . S
C1813 C1814 1.385 . S
C1814 H1800 0.931 . S
C1814 C1813 1.385 . S
C1814 C1815 1.389 . S
C1815 C1814 1.389 . S
C1815 C1816 1.387 . S
C1816 H1801 0.930 . S
C1816 C1811 1.390 . S
C1816 C1815 1.387 . S
H1817 C1829 0.930 . S
H1818 C1831 0.930 . S
H1819 C1832 0.930 . S
H1820 C1836 0.959 . S
H1821 C1836 0.959 . S
H1822 C1836 0.961 . S
H1823 C1837 0.960 . S
H1824 C1837 0.961 . S
H1825 C1837 0.959 . S
H1826 C1840 0.929 . S
H1827 C1841 0.931 . S
H1828 C1843 0.930 . S
C1829 H1817 0.930 . S
C1829 C1830 1.399 . S
C1829 C1834 1.399 . S
C1830 C1829 1.399 . S
C1830 C1831 1.376 . S
C1831 H1818 0.930 . S
C1831 C1830 1.376 . S
C1831 C1832 1.388 . S
C1832 H1819 0.930 . S
C1832 C1831 1.388 . S
C1832 C1833 1.390 . S
C1833 C1832 1.390 . S
C1833 C1834 1.394 . S
C1833 C1839 1.465 . S
C1834 C1829 1.399 . S
C1834 C1833 1.394 . S
C1834 C1835 1.516 . S
C1835 C1834 1.516 . S
C1835 C1836 1.502 . S
C1835 C1837 1.561 . S
C1835 C1838 1.526 . S
C1836 H1820 0.959 . S
C1836 H1821 0.959 . S
C1836 H1822 0.961 . S
C1836 C1835 1.502 . S
C1837 H1823 0.960 . S
C1837 H1824 0.961 . S
C1837 H1825 0.959 . S
C1837 C1835 1.561 . S
C1838 C1835 1.526 . S
C1838 C1839 1.396 . S
C1838 C1843 1.390 . S
C1839 C1833 1.465 . S
C1839 C1838 1.396 . S
C1839 C1840 1.399 . S
C1840 H1826 0.929 . S
C1840 C1839 1.399 . S
C1840 C1841 1.385 1_455 S
C1841 H1827 0.931 . S
C1841 C1840 1.385 1_655 S
C1841 C1842 1.389 . S
C1842 C1841 1.389 . S
C1842 C1843 1.387 1_655 S
C1843 H1828 0.930 . S
C1843 C1838 1.390 . S
C1843 C1842 1.387 1_455 S
H1844 C1856 0.930 . S
H1845 C1858 0.930 . S
H1846 C1859 0.930 . S
H1847 C1863 0.959 . S
H1848 C1863 0.959 . S
H1849 C1863 0.961 . S
H1850 C1864 0.960 . S
H1851 C1864 0.961 . S
H1852 C1864 0.959 . S
H1853 C1867 0.929 . S
H1854 C1868 0.931 . S
H1855 C1870 0.930 . S
C1856 H1844 0.930 . S
C1856 C1857 1.399 . S
C1856 C1861 1.399 . S
C1857 C1856 1.399 . S
C1857 C1858 1.376 . S
C1858 H1845 0.930 . S
C1858 C1857 1.376 . S
C1858 C1859 1.388 . S
C1859 H1846 0.930 . S
C1859 C1858 1.388 . S
C1859 C1860 1.390 . S
C1860 C1859 1.390 . S
C1860 C1861 1.394 . S
C1860 C1866 1.465 . S
C1861 C1856 1.399 . S
C1861 C1860 1.394 . S
C1861 C1862 1.516 . S
C1862 C1861 1.516 . S
C1862 C1863 1.502 . S
C1862 C1864 1.561 . S
C1862 C1865 1.526 . S
C1863 H1847 0.959 . S
C1863 H1848 0.959 . S
C1863 H1849 0.961 . S
C1863 C1862 1.502 . S
C1864 H1850 0.960 . S
C1864 H1851 0.961 . S
C1864 H1852 0.959 . S
C1864 C1862 1.561 . S
C1865 C1862 1.526 . S
C1865 C1866 1.396 . S
C1865 C1870 1.390 . S
C1866 C1860 1.465 . S
C1866 C1865 1.396 . S
C1866 C1867 1.399 . S
C1867 H1853 0.929 . S
C1867 C1866 1.399 . S
C1867 C1868 1.385 . S
C1868 H1854 0.931 . S
C1868 C1867 1.385 . S
C1868 C1869 1.389 . S
C1869 C1868 1.389 . S
C1869 C1870 1.387 . S
C1870 H1855 0.930 . S
C1870 C1865 1.390 . S
C1870 C1869 1.387 . S
H1871 C1883 0.930 . S
H1872 C1885 0.930 . S
H1873 C1886 0.930 . S
H1874 C1890 0.959 . S
H1875 C1890 0.959 1_655 S
H1876 C1890 0.961 . S
H1877 C1891 0.960 . S
H1878 C1891 0.961 . S
H1879 C1891 0.959 . S
H1880 C1894 0.929 . S
H1881 C1895 0.931 . S
H1882 C1897 0.930 . S
C1883 H1871 0.930 . S
C1883 C1884 1.399 . S
C1883 C1888 1.399 . S
C1884 C1883 1.399 . S
C1884 C1885 1.376 . S
C1885 H1872 0.930 . S
C1885 C1884 1.376 . S
C1885 C1886 1.388 . S
C1886 H1873 0.930 . S
C1886 C1885 1.388 . S
C1886 C1887 1.390 . S
C1887 C1886 1.390 . S
C1887 C1888 1.394 . S
C1887 C1893 1.465 . S
C1888 C1883 1.399 . S
C1888 C1887 1.394 . S
C1888 C1889 1.516 . S
C1889 C1888 1.516 . S
C1889 C1890 1.502 . S
C1889 C1891 1.561 . S
C1889 C1892 1.526 . S
C1890 H1874 0.959 . S
C1890 H1875 0.959 1_455 S
C1890 H1876 0.961 . S
C1890 C1889 1.502 . S
C1891 H1877 0.960 . S
C1891 H1878 0.961 . S
C1891 H1879 0.959 . S
C1891 C1889 1.561 . S
C1892 C1889 1.526 . S
C1892 C1893 1.396 . S
C1892 C1897 1.390 1_455 S
C1893 C1887 1.465 . S
C1893 C1892 1.396 . S
C1893 C1894 1.399 . S
C1894 H1880 0.929 . S
C1894 C1893 1.399 . S
C1894 C1895 1.385 . S
C1895 H1881 0.931 . S
C1895 C1894 1.385 . S
C1895 C1896 1.389 1_455 S
C1896 C1895 1.389 1_655 S
C1896 C1897 1.387 . S
C1897 H1882 0.930 . S
C1897 C1892 1.390 1_655 S
C1897 C1896 1.387 . S
H1898 C1910 0.930 . S
H1899 C1912 0.930 . S
H1900 C1913 0.930 . S
H1901 C1917 0.959 . S
H1902 C1917 0.959 . S
H1903 C1917 0.961 . S
H1904 C1918 0.960 . S
H1905 C1918 0.961 . S
H1906 C1918 0.959 . S
H1907 C1921 0.929 . S
H1908 C1922 0.931 . S
H1909 C1924 0.930 . S
C1910 H1898 0.930 . S
C1910 C1911 1.399 . S
C1910 C1915 1.399 . S
C1911 C1910 1.399 . S
C1911 C1912 1.376 . S
C1912 H1899 0.930 . S
C1912 C1911 1.376 . S
C1912 C1913 1.388 . S
C1913 H1900 0.930 . S
C1913 C1912 1.388 . S
C1913 C1914 1.390 . S
C1914 C1913 1.390 . S
C1914 C1915 1.394 . S
C1914 C1920 1.465 . S
C1915 C1910 1.399 . S
C1915 C1914 1.394 . S
C1915 C1916 1.516 . S
C1916 C1915 1.516 . S
C1916 C1917 1.502 . S
C1916 C1918 1.561 . S
C1916 C1919 1.526 . S
C1917 H1901 0.959 . S
C1917 H1902 0.959 . S
C1917 H1903 0.961 . S
C1917 C1916 1.502 . S
C1918 H1904 0.960 . S
C1918 H1905 0.961 . S
C1918 H1906 0.959 . S
C1918 C1916 1.561 . S
C1919 C1916 1.526 . S
C1919 C1920 1.396 . S
C1919 C1924 1.390 . S
C1920 C1914 1.465 . S
C1920 C1919 1.396 . S
C1920 C1921 1.399 . S
C1921 H1907 0.929 . S
C1921 C1920 1.399 . S
C1921 C1922 1.385 . S
C1922 H1908 0.931 . S
C1922 C1921 1.385 . S
C1922 C1923 1.389 . S
C1923 C1922 1.389 . S
C1923 C1924 1.387 . S
C1924 H1909 0.930 . S
C1924 C1919 1.390 . S
C1924 C1923 1.387 . S
H1925 C1937 0.930 . S
H1926 C1939 0.930 . S
H1927 C1940 0.930 . S
H1928 C1944 0.959 . S
H1929 C1944 0.959 . S
H1930 C1944 0.961 . S
H1931 C1945 0.960 . S
H1932 C1945 0.961 . S
H1933 C1945 0.959 . S
H1934 C1948 0.929 . S
H1935 C1949 0.931 . S
H1936 C1951 0.930 . S
C1937 H1925 0.930 . S
C1937 C1938 1.399 . S
C1937 C1942 1.399 . S
C1938 C1937 1.399 . S
C1938 C1939 1.376 . S
C1939 H1926 0.930 . S
C1939 C1938 1.376 . S
C1939 C1940 1.388 . S
C1940 H1927 0.930 . S
C1940 C1939 1.388 . S
C1940 C1941 1.390 . S
C1941 C1940 1.390 . S
C1941 C1942 1.394 . S
C1941 C1947 1.465 . S
C1942 C1937 1.399 . S
C1942 C1941 1.394 . S
C1942 C1943 1.516 . S
C1943 C1942 1.516 . S
C1943 C1944 1.502 . S
C1943 C1945 1.561 . S
C1943 C1946 1.526 . S
C1944 H1928 0.959 . S
C1944 H1929 0.959 . S
C1944 H1930 0.961 . S
C1944 C1943 1.502 . S
C1945 H1931 0.960 . S
C1945 H1932 0.961 . S
C1945 H1933 0.959 . S
C1945 C1943 1.561 . S
C1946 C1943 1.526 . S
C1946 C1947 1.396 . S
C1946 C1951 1.390 . S
C1947 C1941 1.465 . S
C1947 C1946 1.396 . S
C1947 C1948 1.399 . S
C1948 H1934 0.929 . S
C1948 C1947 1.399 . S
C1948 C1949 1.385 . S
C1949 H1935 0.931 . S
C1949 C1948 1.385 . S
C1949 C1950 1.389 . S
C1950 C1949 1.389 . S
C1950 C1951 1.387 . S
C1951 H1936 0.930 . S
C1951 C1946 1.390 . S
C1951 C1950 1.387 . S
H1952 C1964 0.930 . S
H1953 C1966 0.930 . S
H1954 C1967 0.930 . S
H1955 C1971 0.959 . S
H1956 C1971 0.959 . S
H1957 C1971 0.961 . S
H1958 C1972 0.960 . S
H1959 C1972 0.961 . S
H1960 C1972 0.959 . S
H1961 C1975 0.929 . S
H1962 C1976 0.931 . S
H1963 C1978 0.930 . S
C1964 H1952 0.930 . S
C1964 C1965 1.426 . S
C1964 C1969 1.399 . S
C1965 C1964 1.426 . S
C1965 C1966 1.361 1_565 S
C1966 H1953 0.930 . S
C1966 C1965 1.361 1_545 S
C1966 C1967 1.388 . S
C1967 H1954 0.930 . S
C1967 C1966 1.388 . S
C1967 C1968 1.390 1_545 S
C1968 C1967 1.390 1_565 S
C1968 C1969 1.394 . S
C1968 C1974 1.465 . S
C1969 C1964 1.399 . S
C1969 C1968 1.394 . S
C1969 C1970 1.516 . S
C1970 C1969 1.516 . S
C1970 C1971 1.502 . S
C1970 C1972 1.561 . S
C1970 C1973 1.526 . S
C1971 H1955 0.959 . S
C1971 H1956 0.959 . S
C1971 H1957 0.961 . S
C1971 C1970 1.502 . S
C1972 H1958 0.960 . S
C1972 H1959 0.961 . S
C1972 H1960 0.959 . S
C1972 C1970 1.561 . S
C1973 C1970 1.526 . S
C1973 C1974 1.396 . S
C1973 C1978 1.390 . S
C1974 C1968 1.465 . S
C1974 C1973 1.396 . S
C1974 C1975 1.399 . S
C1975 H1961 0.929 . S
C1975 C1974 1.399 . S
C1975 C1976 1.385 . S
C1976 H1962 0.931 . S
C1976 C1975 1.385 . S
C1976 C1977 1.389 . S
C1977 C1976 1.389 . S
C1977 C1978 1.387 . S
C1978 H1963 0.930 . S
C1978 C1973 1.390 . S
C1978 C1977 1.387 . S
H1979 C1991 0.930 . S
H1980 C1993 0.930 . S
H1981 C1994 0.930 . S
H1982 C1998 0.959 . S
H1983 C1998 0.959 . S
H1984 C1998 0.961 . S
H1985 C1999 0.960 . S
H1986 C1999 0.961 . S
H1987 C1999 0.959 . S
H1988 C2002 0.929 . S
H1989 C2003 0.931 . S
H1990 C2005 0.930 . S
C1991 H1979 0.930 . S
C1991 C1992 1.435 . S
C1991 C1996 1.399 . S
C1992 C1991 1.435 . S
C1992 C1993 1.356 1_565 S
C1993 H1980 0.930 . S
C1993 C1992 1.356 1_545 S
C1993 C1994 1.388 . S
C1994 H1981 0.930 . S
C1994 C1993 1.388 . S
C1994 C1995 1.390 1_545 S
C1995 C1994 1.390 1_565 S
C1995 C1996 1.394 . S
C1995 C2001 1.465 . S
C1996 C1991 1.399 . S
C1996 C1995 1.394 . S
C1996 C1997 1.516 . S
C1997 C1996 1.516 . S
C1997 C1998 1.502 . S
C1997 C1999 1.561 . S
C1997 C2000 1.526 . S
C1998 H1982 0.959 . S
C1998 H1983 0.959 . S
C1998 H1984 0.961 . S
C1998 C1997 1.502 . S
C1999 H1985 0.960 . S
C1999 H1986 0.961 . S
C1999 H1987 0.959 . S
C1999 C1997 1.561 . S
C2000 C1997 1.526 . S
C2000 C2001 1.396 . S
C2000 C2005 1.390 . S
C2001 C1995 1.465 . S
C2001 C2000 1.396 . S
C2001 C2002 1.399 . S
C2002 H1988 0.929 . S
C2002 C2001 1.399 . S
C2002 C2003 1.385 . S
C2003 H1989 0.931 . S
C2003 C2002 1.385 . S
C2003 C2004 1.389 . S
C2004 C2003 1.389 . S
C2004 C2005 1.387 . S
C2005 H1990 0.930 . S
C2005 C2000 1.390 . S
C2005 C2004 1.387 . S
H2006 C2018 0.930 . S
H2007 C2020 0.930 . S
H2008 C2021 0.930 . S
H2009 C2025 0.959 . S
H2010 C2025 0.959 . S
H2011 C2025 0.961 . S
H2012 C2026 0.960 . S
H2013 C2026 0.961 . S
H2014 C2026 0.959 . S
H2015 C2029 0.929 1_565 S
H2016 C2030 0.931 . S
H2017 C2032 0.930 . S
C2018 H2006 0.930 . S
C2018 C2019 1.399 . S
C2018 C2023 1.399 . S
C2019 C2018 1.399 . S
C2019 C2020 1.376 . S
C2020 H2007 0.930 . S
C2020 C2019 1.376 . S
C2020 C2021 1.388 . S
C2021 H2008 0.930 . S
C2021 C2020 1.388 . S
C2021 C2022 1.390 . S
C2022 C2021 1.390 . S
C2022 C2023 1.394 . S
C2022 C2028 1.465 . S
C2023 C2018 1.399 . S
C2023 C2022 1.394 . S
C2023 C2024 1.516 . S
C2024 C2023 1.516 . S
C2024 C2025 1.502 . S
C2024 C2026 1.561 . S
C2024 C2027 1.526 . S
C2025 H2009 0.959 . S
C2025 H2010 0.959 . S
C2025 H2011 0.961 . S
C2025 C2024 1.502 . S
C2026 H2012 0.960 . S
C2026 H2013 0.961 . S
C2026 H2014 0.959 . S
C2026 C2024 1.561 . S
C2027 C2024 1.526 . S
C2027 C2028 1.396 . S
C2027 C2032 1.390 . S
C2028 C2022 1.465 . S
C2028 C2027 1.396 . S
C2028 C2029 1.399 . S
C2029 H2015 0.929 1_545 S
C2029 C2028 1.399 . S
C2029 C2030 1.385 1_545 S
C2030 H2016 0.931 . S
C2030 C2029 1.385 1_565 S
C2030 C2031 1.389 1_565 S
C2031 C2030 1.389 1_545 S
C2031 C2032 1.387 . S
C2032 H2017 0.930 . S
C2032 C2027 1.390 . S
C2032 C2031 1.387 . S
H2033 C2045 0.930 . S
H2034 C2047 0.930 . S
H2035 C2048 0.930 . S
H2036 C2052 0.959 . S
H2037 C2052 0.959 . S
H2038 C2052 0.961 . S
H2039 C2053 0.960 . S
H2040 C2053 0.961 . S
H2041 C2053 0.959 . S
H2042 C2056 0.929 . S
H2043 C2057 0.931 . S
H2044 C2059 0.930 . S
C2045 H2033 0.930 . S
C2045 C2046 1.399 . S
C2045 C2050 1.399 . S
C2046 C2045 1.399 . S
C2046 C2047 1.376 . S
C2047 H2034 0.930 . S
C2047 C2046 1.376 . S
C2047 C2048 1.388 . S
C2048 H2035 0.930 . S
C2048 C2047 1.388 . S
C2048 C2049 1.390 . S
C2049 C2048 1.390 . S
C2049 C2050 1.394 . S
C2049 C2055 1.465 . S
C2050 C2045 1.399 . S
C2050 C2049 1.394 . S
C2050 C2051 1.516 . S
C2051 C2050 1.516 . S
C2051 C2052 1.502 . S
C2051 C2053 1.561 . S
C2051 C2054 1.526 . S
C2052 H2036 0.959 . S
C2052 H2037 0.959 . S
C2052 H2038 0.961 . S
C2052 C2051 1.502 . S
C2053 H2039 0.960 . S
C2053 H2040 0.961 . S
C2053 H2041 0.959 . S
C2053 C2051 1.561 . S
C2054 C2051 1.526 . S
C2054 C2055 1.396 . S
C2054 C2059 1.390 . S
C2055 C2049 1.465 . S
C2055 C2054 1.396 . S
C2055 C2056 1.399 . S
C2056 H2042 0.929 . S
C2056 C2055 1.399 . S
C2056 C2057 1.385 . S
C2057 H2043 0.931 . S
C2057 C2056 1.385 . S
C2057 C2058 1.389 . S
C2058 C2057 1.389 . S
C2058 C2059 1.387 . S
C2059 H2044 0.930 . S
C2059 C2054 1.390 . S
C2059 C2058 1.387 . S
H2060 C2072 0.930 . S
H2061 C2074 0.930 1_565 S
H2062 C2075 0.930 . S
H2063 C2079 0.959 . S
H2064 C2079 0.959 . S
H2065 C2079 0.961 . S
H2066 C2080 0.960 . S
H2067 C2080 0.961 . S
H2068 C2080 0.959 . S
H2069 C2083 0.929 . S
H2070 C2084 0.931 . S
H2071 C2086 0.930 . S
C2072 H2060 0.930 . S
C2072 C2073 1.399 . S
C2072 C2077 1.399 . S
C2073 C2072 1.399 . S
C2073 C2074 1.376 . S
C2074 H2061 0.930 1_545 S
C2074 C2073 1.376 . S
C2074 C2075 1.388 . S
C2075 H2062 0.930 . S
C2075 C2074 1.388 . S
C2075 C2076 1.390 . S
C2076 C2075 1.390 . S
C2076 C2077 1.394 . S
C2076 C2082 1.465 . S
C2077 C2072 1.399 . S
C2077 C2076 1.394 . S
C2077 C2078 1.516 . S
C2078 C2077 1.516 . S
C2078 C2079 1.502 . S
C2078 C2080 1.561 . S
C2078 C2081 1.526 . S
C2079 H2063 0.959 . S
C2079 H2064 0.959 . S
C2079 H2065 0.961 . S
C2079 C2078 1.502 . S
C2080 H2066 0.960 . S
C2080 H2067 0.961 . S
C2080 H2068 0.959 . S
C2080 C2078 1.561 . S
C2081 C2078 1.526 . S
C2081 C2082 1.396 . S
C2081 C2086 1.390 . S
C2082 C2076 1.465 . S
C2082 C2081 1.396 . S
C2082 C2083 1.399 . S
C2083 H2069 0.929 . S
C2083 C2082 1.399 . S
C2083 C2084 1.385 . S
C2084 H2070 0.931 . S
C2084 C2083 1.385 . S
C2084 C2085 1.389 . S
C2085 C2084 1.389 . S
C2085 C2086 1.387 . S
C2086 H2071 0.930 . S
C2086 C2081 1.390 . S
C2086 C2085 1.387 . S
H2087 C2099 0.930 . S
H2088 C2101 0.930 . S
H2089 C2102 0.930 . S
H2090 C2106 0.959 . S
H2091 C2106 0.959 . S
H2092 C2106 0.961 . S
H2093 C2107 0.960 1_545 S
H2094 C2107 0.961 . S
H2095 C2107 0.960 . S
H2096 C2110 0.929 . S
H2097 C2111 0.931 . S
H2098 C2113 0.930 1_565 S
C2099 H2087 0.930 . S
C2099 C2100 1.399 . S
C2099 C2104 1.399 . S
C2100 C2099 1.399 . S
C2100 C2101 1.376 . S
C2101 H2088 0.930 . S
C2101 C2100 1.376 . S
C2101 C2102 1.388 . S
C2102 H2089 0.930 . S
C2102 C2101 1.388 . S
C2102 C2103 1.390 . S
C2103 C2102 1.390 . S
C2103 C2104 1.394 . S
C2103 C2109 1.465 . S
C2104 C2099 1.399 . S
C2104 C2103 1.394 . S
C2104 C2105 1.516 . S
C2105 C2104 1.516 . S
C2105 C2106 1.502 . S
C2105 C2107 1.561 1_545 S
C2105 C2108 1.526 . S
C2106 H2090 0.959 . S
C2106 H2091 0.959 . S
C2106 H2092 0.961 . S
C2106 C2105 1.502 . S
C2107 H2093 0.960 1_565 S
C2107 H2094 0.961 . S
C2107 H2095 0.960 . S
C2107 C2105 1.561 1_565 S
C2108 C2105 1.526 . S
C2108 C2109 1.396 . S
C2108 C2113 1.390 . S
C2109 C2103 1.465 . S
C2109 C2108 1.396 . S
C2109 C2110 1.399 . S
C2110 H2096 0.929 . S
C2110 C2109 1.399 . S
C2110 C2111 1.385 . S
C2111 H2097 0.931 . S
C2111 C2110 1.385 . S
C2111 C2112 1.389 . S
C2112 C2111 1.389 . S
C2112 C2113 1.387 . S
C2113 H2098 0.930 1_545 S
C2113 C2108 1.390 . S
C2113 C2112 1.387 . S
H2114 C2126 0.930 . S
H2115 C2128 0.930 . S
H2116 C2129 0.930 . S
H2117 C2133 0.959 . S
H2118 C2133 0.959 . S
H2119 C2133 0.961 . S
H2120 C2134 0.960 . S
H2121 C2134 0.961 . S
H2122 C2134 0.959 . S
H2123 C2137 0.929 . S
H2124 C2138 0.931 . S
H2125 C2140 0.930 . S
C2126 H2114 0.930 . S
C2126 C2127 1.399 . S
C2126 C2131 1.399 . S
C2127 C2126 1.399 . S
C2127 C2128 1.376 1_565 S
C2128 H2115 0.930 . S
C2128 C2127 1.376 1_545 S
C2128 C2129 1.388 1_545 S
C2129 H2116 0.930 . S
C2129 C2128 1.388 1_565 S
C2129 C2130 1.390 . S
C2130 C2129 1.390 . S
C2130 C2131 1.394 . S
C2130 C2136 1.465 . S
C2131 C2126 1.399 . S
C2131 C2130 1.394 . S
C2131 C2132 1.516 . S
C2132 C2131 1.516 . S
C2132 C2133 1.502 . S
C2132 C2134 1.561 . S
C2132 C2135 1.526 . S
C2133 H2117 0.959 . S
C2133 H2118 0.959 . S
C2133 H2119 0.961 . S
C2133 C2132 1.502 . S
C2134 H2120 0.960 . S
C2134 H2121 0.961 . S
C2134 H2122 0.959 . S
C2134 C2132 1.561 . S
C2135 C2132 1.526 . S
C2135 C2136 1.396 . S
C2135 C2140 1.390 . S
C2136 C2130 1.465 . S
C2136 C2135 1.396 . S
C2136 C2137 1.399 . S
C2137 H2123 0.929 . S
C2137 C2136 1.399 . S
C2137 C2138 1.385 . S
C2138 H2124 0.931 . S
C2138 C2137 1.385 . S
C2138 C2139 1.389 . S
C2139 C2138 1.389 . S
C2139 C2140 1.387 . S
C2140 H2125 0.930 . S
C2140 C2135 1.390 . S
C2140 C2139 1.387 . S
H2141 C2153 0.930 . S
H2142 C2155 0.930 . S
H2143 C2156 0.930 . S
H2144 C2160 0.959 . S
H2145 C2160 0.959 . S
H2146 C2160 0.961 . S
H2147 C2161 0.960 . S
H2148 C2161 0.961 . S
H2149 C2161 0.959 . S
H2150 C2164 0.929 . S
H2151 C2165 0.931 . S
H2152 C2167 0.930 . S
C2153 H2141 0.930 . S
C2153 C2154 1.399 . S
C2153 C2158 1.399 . S
C2154 C2153 1.399 . S
C2154 C2155 1.376 . S
C2155 H2142 0.930 . S
C2155 C2154 1.376 . S
C2155 C2156 1.388 . S
C2156 H2143 0.930 . S
C2156 C2155 1.388 . S
C2156 C2157 1.390 . S
C2157 C2156 1.390 . S
C2157 C2158 1.394 . S
C2157 C2163 1.465 . S
C2158 C2153 1.399 . S
C2158 C2157 1.394 . S
C2158 C2159 1.516 . S
C2159 C2158 1.516 . S
C2159 C2160 1.502 . S
C2159 C2161 1.561 . S
C2159 C2162 1.526 . S
C2160 H2144 0.959 . S
C2160 H2145 0.959 . S
C2160 H2146 0.961 . S
C2160 C2159 1.502 . S
C2161 H2147 0.960 . S
C2161 H2148 0.961 . S
C2161 H2149 0.959 . S
C2161 C2159 1.561 . S
C2162 C2159 1.526 . S
C2162 C2163 1.396 . S
C2162 C2167 1.390 . S
C2163 C2157 1.465 . S
C2163 C2162 1.396 . S
C2163 C2164 1.399 1_565 S
C2164 H2150 0.929 . S
C2164 C2163 1.399 1_545 S
C2164 C2165 1.385 . S
C2165 H2151 0.931 . S
C2165 C2164 1.385 . S
C2165 C2166 1.373 1_545 S
C2166 C2165 1.373 1_565 S
C2166 C2167 1.416 . S
C2167 H2152 0.930 . S
C2167 C2162 1.390 . S
C2167 C2166 1.416 . S
H2168 C2180 0.930 . S
H2169 C2182 0.930 . S
H2170 C2183 0.930 . S
H2171 C2187 0.959 . S
H2172 C2187 0.959 . S
H2173 C2187 0.961 . S
H2174 C2188 0.960 . S
H2175 C2188 0.961 . S
H2176 C2188 0.959 . S
H2177 C2191 0.929 . S
H2178 C2192 0.931 . S
H2179 C2194 0.930 . S
C2180 H2168 0.930 . S
C2180 C2181 1.399 . S
C2180 C2185 1.399 . S
C2181 C2180 1.399 . S
C2181 C2182 1.376 . S
C2182 H2169 0.930 . S
C2182 C2181 1.376 . S
C2182 C2183 1.388 . S
C2183 H2170 0.930 . S
C2183 C2182 1.388 . S
C2183 C2184 1.390 . S
C2184 C2183 1.390 . S
C2184 C2185 1.394 . S
C2184 C2190 1.465 . S
C2185 C2180 1.399 . S
C2185 C2184 1.394 . S
C2185 C2186 1.516 . S
C2186 C2185 1.516 . S
C2186 C2187 1.502 . S
C2186 C2188 1.561 . S
C2186 C2189 1.526 . S
C2187 H2171 0.959 . S
C2187 H2172 0.959 . S
C2187 H2173 0.961 . S
C2187 C2186 1.502 . S
C2188 H2174 0.960 . S
C2188 H2175 0.961 . S
C2188 H2176 0.959 . S
C2188 C2186 1.561 . S
C2189 C2186 1.526 . S
C2189 C2190 1.396 . S
C2189 C2194 1.390 . S
C2190 C2184 1.465 . S
C2190 C2189 1.396 . S
C2190 C2191 1.399 . S
C2191 H2177 0.929 . S
C2191 C2190 1.399 . S
C2191 C2192 1.385 . S
C2192 H2178 0.931 . S
C2192 C2191 1.385 . S
C2192 C2193 1.389 . S
C2193 C2192 1.389 . S
C2193 C2194 1.387 . S
C2194 H2179 0.930 . S
C2194 C2189 1.390 . S
C2194 C2193 1.387 . S
H2195 C2207 0.930 . S
H2196 C2209 0.930 . S
H2197 C2210 0.930 . S
H2198 C2214 0.959 . S
H2199 C2214 0.959 . S
H2200 C2214 0.961 . S
H2201 C2215 0.960 . S
H2202 C2215 0.961 . S
H2203 C2215 0.959 . S
H2204 C2218 0.929 . S
H2205 C2219 0.931 . S
H2206 C2221 0.930 . S
C2207 H2195 0.930 . S
C2207 C2208 1.399 . S
C2207 C2212 1.399 . S
C2208 C2207 1.399 . S
C2208 C2209 1.376 . S
C2209 H2196 0.930 . S
C2209 C2208 1.376 . S
C2209 C2210 1.388 . S
C2210 H2197 0.930 . S
C2210 C2209 1.388 . S
C2210 C2211 1.390 . S
C2211 C2210 1.390 . S
C2211 C2212 1.394 . S
C2211 C2217 1.465 . S
C2212 C2207 1.399 . S
C2212 C2211 1.394 . S
C2212 C2213 1.516 . S
C2213 C2212 1.516 . S
C2213 C2214 1.502 . S
C2213 C2215 1.561 . S
C2213 C2216 1.526 . S
C2214 H2198 0.959 . S
C2214 H2199 0.959 . S
C2214 H2200 0.961 . S
C2214 C2213 1.502 . S
C2215 H2201 0.960 . S
C2215 H2202 0.961 . S
C2215 H2203 0.959 . S
C2215 C2213 1.561 . S
C2216 C2213 1.526 . S
C2216 C2217 1.396 . S
C2216 C2221 1.390 . S
C2217 C2211 1.465 . S
C2217 C2216 1.396 . S
C2217 C2218 1.399 . S
C2218 H2204 0.929 . S
C2218 C2217 1.399 . S
C2218 C2219 1.385 . S
C2219 H2205 0.931 . S
C2219 C2218 1.385 . S
C2219 C2220 1.389 . S
C2220 C2219 1.389 . S
C2220 C2221 1.387 . S
C2221 H2206 0.930 . S
C2221 C2216 1.390 . S
C2221 C2220 1.387 . S
H2222 C2234 0.930 . S
H2223 C2236 0.930 . S
H2224 C2237 0.930 . S
H2225 C2241 0.959 . S
H2226 C2241 0.959 . S
H2227 C2241 0.961 . S
H2228 C2242 0.960 . S
H2229 C2242 0.961 . S
H2230 C2242 0.959 . S
H2231 C2245 0.929 . S
H2232 C2246 0.931 . S
H2233 C2248 0.930 . S
C2234 H2222 0.930 . S
C2234 C2235 1.399 . S
C2234 C2239 1.399 . S
C2235 C2234 1.399 . S
C2235 C2236 1.376 . S
C2236 H2223 0.930 . S
C2236 C2235 1.376 . S
C2236 C2237 1.388 . S
C2237 H2224 0.930 . S
C2237 C2236 1.388 . S
C2237 C2238 1.390 . S
C2238 C2237 1.390 . S
C2238 C2239 1.394 . S
C2238 C2244 1.465 . S
C2239 C2234 1.399 . S
C2239 C2238 1.394 . S
C2239 C2240 1.516 . S
C2240 C2239 1.516 . S
C2240 C2241 1.502 . S
C2240 C2242 1.561 . S
C2240 C2243 1.526 . S
C2241 H2225 0.959 . S
C2241 H2226 0.959 . S
C2241 H2227 0.961 . S
C2241 C2240 1.502 . S
C2242 H2228 0.960 . S
C2242 H2229 0.961 . S
C2242 H2230 0.959 . S
C2242 C2240 1.561 . S
C2243 C2240 1.526 . S
C2243 C2244 1.396 . S
C2243 C2248 1.390 . S
C2244 C2238 1.465 . S
C2244 C2243 1.396 . S
C2244 C2245 1.399 . S
C2245 H2231 0.929 . S
C2245 C2244 1.399 . S
C2245 C2246 1.385 . S
C2246 H2232 0.931 . S
C2246 C2245 1.385 . S
C2246 C2247 1.389 . S
C2247 C2246 1.389 . S
C2247 C2248 1.387 . S
C2248 H2233 0.930 . S
C2248 C2243 1.390 . S
C2248 C2247 1.387 . S
H2249 C2261 0.930 . S
H2250 C2263 0.930 . S
H2251 C2264 0.930 . S
H2252 C2268 0.959 . S
H2253 C2268 0.959 . S
H2254 C2268 0.961 . S
H2255 C2269 0.960 . S
H2256 C2269 0.961 . S
H2257 C2269 0.959 . S
H2258 C2272 0.929 . S
H2259 C2273 0.931 . S
H2260 C2275 0.930 . S
C2261 H2249 0.930 . S
C2261 C2262 1.399 . S
C2261 C2266 1.399 . S
C2262 C2261 1.399 . S
C2262 C2263 1.376 . S
C2263 H2250 0.930 . S
C2263 C2262 1.376 . S
C2263 C2264 1.388 . S
C2264 H2251 0.930 . S
C2264 C2263 1.388 . S
C2264 C2265 1.390 . S
C2265 C2264 1.390 . S
C2265 C2266 1.394 . S
C2265 C2271 1.465 . S
C2266 C2261 1.399 . S
C2266 C2265 1.394 . S
C2266 C2267 1.516 . S
C2267 C2266 1.516 . S
C2267 C2268 1.502 . S
C2267 C2269 1.561 . S
C2267 C2270 1.526 . S
C2268 H2252 0.959 . S
C2268 H2253 0.959 . S
C2268 H2254 0.961 . S
C2268 C2267 1.502 . S
C2269 H2255 0.960 . S
C2269 H2256 0.961 . S
C2269 H2257 0.959 . S
C2269 C2267 1.561 . S
C2270 C2267 1.526 . S
C2270 C2271 1.396 . S
C2270 C2275 1.390 . S
C2271 C2265 1.465 . S
C2271 C2270 1.396 . S
C2271 C2272 1.399 . S
C2272 H2258 0.929 . S
C2272 C2271 1.399 . S
C2272 C2273 1.385 . S
C2273 H2259 0.931 . S
C2273 C2272 1.385 . S
C2273 C2274 1.389 . S
C2274 C2273 1.389 . S
C2274 C2275 1.387 . S
C2275 H2260 0.930 . S
C2275 C2270 1.390 . S
C2275 C2274 1.387 . S
H2276 C2288 0.930 . S
H2277 C2290 0.930 . S
H2278 C2291 0.930 . S
H2279 C2295 0.959 . S
H2280 C2295 0.959 . S
H2281 C2295 0.961 . S
H2282 C2296 0.960 . S
H2283 C2296 0.961 . S
H2284 C2296 0.959 . S
H2285 C2299 0.929 . S
H2286 C2300 0.931 . S
H2287 C2302 0.930 . S
C2288 H2276 0.930 . S
C2288 C2289 1.399 . S
C2288 C2293 1.399 . S
C2289 C2288 1.399 . S
C2289 C2290 1.376 . S
C2290 H2277 0.930 . S
C2290 C2289 1.376 . S
C2290 C2291 1.388 . S
C2291 H2278 0.930 . S
C2291 C2290 1.388 . S
C2291 C2292 1.390 . S
C2292 C2291 1.390 . S
C2292 C2293 1.394 . S
C2292 C2298 1.465 . S
C2293 C2288 1.399 . S
C2293 C2292 1.394 . S
C2293 C2294 1.516 . S
C2294 C2293 1.516 . S
C2294 C2295 1.502 . S
C2294 C2296 1.561 . S
C2294 C2297 1.526 . S
C2295 H2279 0.959 . S
C2295 H2280 0.959 . S
C2295 H2281 0.961 . S
C2295 C2294 1.502 . S
C2296 H2282 0.960 . S
C2296 H2283 0.961 . S
C2296 H2284 0.959 . S
C2296 C2294 1.561 . S
C2297 C2294 1.526 . S
C2297 C2298 1.396 . S
C2297 C2302 1.390 . S
C2298 C2292 1.465 . S
C2298 C2297 1.396 . S
C2298 C2299 1.399 . S
C2299 H2285 0.929 . S
C2299 C2298 1.399 . S
C2299 C2300 1.385 . S
C2300 H2286 0.931 . S
C2300 C2299 1.385 . S
C2300 C2301 1.389 . S
C2301 C2300 1.389 . S
C2301 C2302 1.387 . S
C2302 H2287 0.930 . S
C2302 C2297 1.390 . S
C2302 C2301 1.387 . S
H2303 C2315 0.930 . S
H2304 C2317 0.930 . S
H2305 C2318 0.930 . S
H2306 C2322 0.959 . S
H2307 C2322 0.959 . S
H2308 C2322 0.961 . S
H2309 C2323 0.960 . S
H2310 C2323 0.961 . S
H2311 C2323 0.959 . S
H2312 C2326 0.929 . S
H2313 C2327 0.931 . S
H2314 C2329 0.930 . S
C2315 H2303 0.930 . S
C2315 C2316 1.399 . S
C2315 C2320 1.399 . S
C2316 C2315 1.399 . S
C2316 C2317 1.376 . S
C2317 H2304 0.930 . S
C2317 C2316 1.376 . S
C2317 C2318 1.388 . S
C2318 H2305 0.930 . S
C2318 C2317 1.388 . S
C2318 C2319 1.390 . S
C2319 C2318 1.390 . S
C2319 C2320 1.394 . S
C2319 C2325 1.465 . S
C2320 C2315 1.399 . S
C2320 C2319 1.394 . S
C2320 C2321 1.516 . S
C2321 C2320 1.516 . S
C2321 C2322 1.502 . S
C2321 C2323 1.561 . S
C2321 C2324 1.526 . S
C2322 H2306 0.959 . S
C2322 H2307 0.959 . S
C2322 H2308 0.961 . S
C2322 C2321 1.502 . S
C2323 H2309 0.960 . S
C2323 H2310 0.961 . S
C2323 H2311 0.959 . S
C2323 C2321 1.561 . S
C2324 C2321 1.526 . S
C2324 C2325 1.396 . S
C2324 C2329 1.390 . S
C2325 C2319 1.465 . S
C2325 C2324 1.396 . S
C2325 C2326 1.399 . S
C2326 H2312 0.929 . S
C2326 C2325 1.399 . S
C2326 C2327 1.385 . S
C2327 H2313 0.931 . S
C2327 C2326 1.385 . S
C2327 C2328 1.389 . S
C2328 C2327 1.389 . S
C2328 C2329 1.387 . S
C2329 H2314 0.930 . S
C2329 C2324 1.390 . S
C2329 C2328 1.387 . S
H2330 C2342 0.930 . S
H2331 C2344 0.930 . S
H2332 C2345 0.930 . S
H2333 C2349 0.959 . S
H2334 C2349 0.959 . S
H2335 C2349 0.961 . S
H2336 C2350 0.960 . S
H2337 C2350 0.961 . S
H2338 C2350 0.959 . S
H2339 C2353 0.929 . S
H2340 C2354 0.931 . S
H2341 C2356 0.930 . S
C2342 H2330 0.930 . S
C2342 C2343 1.399 . S
C2342 C2347 1.399 . S
C2343 C2342 1.399 . S
C2343 C2344 1.376 . S
C2344 H2331 0.930 . S
C2344 C2343 1.376 . S
C2344 C2345 1.388 . S
C2345 H2332 0.930 . S
C2345 C2344 1.388 . S
C2345 C2346 1.390 . S
C2346 C2345 1.390 . S
C2346 C2347 1.394 . S
C2346 C2352 1.465 . S
C2347 C2342 1.399 . S
C2347 C2346 1.394 . S
C2347 C2348 1.516 . S
C2348 C2347 1.516 . S
C2348 C2349 1.502 . S
C2348 C2350 1.561 . S
C2348 C2351 1.526 . S
C2349 H2333 0.959 . S
C2349 H2334 0.959 . S
C2349 H2335 0.961 . S
C2349 C2348 1.502 . S
C2350 H2336 0.960 . S
C2350 H2337 0.961 . S
C2350 H2338 0.959 . S
C2350 C2348 1.561 . S
C2351 C2348 1.526 . S
C2351 C2352 1.396 . S
C2351 C2356 1.390 . S
C2352 C2346 1.465 . S
C2352 C2351 1.396 . S
C2352 C2353 1.399 . S
C2353 H2339 0.929 . S
C2353 C2352 1.399 . S
C2353 C2354 1.385 . S
C2354 H2340 0.931 . S
C2354 C2353 1.385 . S
C2354 C2355 1.389 . S
C2355 C2354 1.389 . S
C2355 C2356 1.387 . S
C2356 H2341 0.930 . S
C2356 C2351 1.390 . S
C2356 C2355 1.387 . S
H2357 C2369 0.930 . S
H2358 C2371 0.930 . S
H2359 C2372 0.930 . S
H2360 C2376 0.959 . S
H2361 C2376 0.959 . S
H2362 C2376 0.961 . S
H2363 C2377 0.960 . S
H2364 C2377 0.961 . S
H2365 C2377 0.959 . S
H2366 C2380 0.929 . S
H2367 C2381 0.931 . S
H2368 C2383 0.930 . S
C2369 H2357 0.930 . S
C2369 C2370 1.399 . S
C2369 C2374 1.399 . S
C2370 C2369 1.399 . S
C2370 C2371 1.376 . S
C2371 H2358 0.930 . S
C2371 C2370 1.376 . S
C2371 C2372 1.388 . S
C2372 H2359 0.930 . S
C2372 C2371 1.388 . S
C2372 C2373 1.390 . S
C2373 C2372 1.390 . S
C2373 C2374 1.394 . S
C2373 C2379 1.465 . S
C2374 C2369 1.399 . S
C2374 C2373 1.394 . S
C2374 C2375 1.516 . S
C2375 C2374 1.516 . S
C2375 C2376 1.502 . S
C2375 C2377 1.561 . S
C2375 C2378 1.526 . S
C2376 H2360 0.959 . S
C2376 H2361 0.959 . S
C2376 H2362 0.961 . S
C2376 C2375 1.502 . S
C2377 H2363 0.960 . S
C2377 H2364 0.961 . S
C2377 H2365 0.959 . S
C2377 C2375 1.561 . S
C2378 C2375 1.526 . S
C2378 C2379 1.396 . S
C2378 C2383 1.390 . S
C2379 C2373 1.465 . S
C2379 C2378 1.396 . S
C2379 C2380 1.399 . S
C2380 H2366 0.929 . S
C2380 C2379 1.399 . S
C2380 C2381 1.385 . S
C2381 H2367 0.931 . S
C2381 C2380 1.385 . S
C2381 C2382 1.389 . S
C2382 C2381 1.389 . S
C2382 C2383 1.387 . S
C2383 H2368 0.930 . S
C2383 C2378 1.390 . S
C2383 C2382 1.387 . S
H2384 C2396 0.930 . S
H2385 C2398 0.930 . S
H2386 C2399 0.930 . S
H2387 C2403 0.959 . S
H2388 C2403 0.959 . S
H2389 C2403 0.961 . S
H2390 C2404 0.960 . S
H2391 C2404 0.961 . S
H2392 C2404 0.959 . S
H2393 C2407 0.929 . S
H2394 C2408 0.931 . S
H2395 C2410 0.930 . S
C2396 H2384 0.930 . S
C2396 C2397 1.399 . S
C2396 C2401 1.399 . S
C2397 C2396 1.399 . S
C2397 C2398 1.376 . S
C2398 H2385 0.930 . S
C2398 C2397 1.376 . S
C2398 C2399 1.388 1_545 S
C2399 H2386 0.930 . S
C2399 C2398 1.388 1_565 S
C2399 C2400 1.390 1_565 S
C2400 C2399 1.390 1_545 S
C2400 C2401 1.394 . S
C2400 C2406 1.465 1_545 S
C2401 C2396 1.399 . S
C2401 C2400 1.394 . S
C2401 C2402 1.516 . S
C2402 C2401 1.516 . S
C2402 C2403 1.502 . S
C2402 C2404 1.561 . S
C2402 C2405 1.526 1_545 S
C2403 H2387 0.959 . S
C2403 H2388 0.959 . S
C2403 H2389 0.961 . S
C2403 C2402 1.502 . S
C2404 H2390 0.960 . S
C2404 H2391 0.961 . S
C2404 H2392 0.959 . S
C2404 C2402 1.561 . S
C2405 C2402 1.526 1_565 S
C2405 C2406 1.396 . S
C2405 C2410 1.390 . S
C2406 C2400 1.465 1_565 S
C2406 C2405 1.396 . S
C2406 C2407 1.399 . S
C2407 H2393 0.929 . S
C2407 C2406 1.399 . S
C2407 C2408 1.385 . S
C2408 H2394 0.931 . S
C2408 C2407 1.385 . S
C2408 C2409 1.389 . S
C2409 C2408 1.389 . S
C2409 C2410 1.387 . S
C2410 H2395 0.930 . S
C2410 C2405 1.390 . S
C2410 C2409 1.387 . S
H2411 C2423 0.930 . S
H2412 C2425 0.930 . S
H2413 C2426 0.930 . S
H2414 C2430 0.959 . S
H2415 C2430 0.959 . S
H2416 C2430 0.961 . S
H2417 C2431 0.960 . S
H2418 C2431 0.961 . S
H2419 C2431 0.959 . S
H2420 C2434 0.929 . S
H2421 C2435 0.931 . S
H2422 C2437 0.930 . S
C2423 H2411 0.930 . S
C2423 C2424 1.399 . S
C2423 C2428 1.399 . S
C2424 C2423 1.399 . S
C2424 C2425 1.376 . S
C2425 H2412 0.930 . S
C2425 C2424 1.376 . S
C2425 C2426 1.388 . S
C2426 H2413 0.930 . S
C2426 C2425 1.388 . S
C2426 C2427 1.390 . S
C2427 C2426 1.390 . S
C2427 C2428 1.394 . S
C2427 C2433 1.465 . S
C2428 C2423 1.399 . S
C2428 C2427 1.394 . S
C2428 C2429 1.516 . S
C2429 C2428 1.516 . S
C2429 C2430 1.502 . S
C2429 C2431 1.561 . S
C2429 C2432 1.526 . S
C2430 H2414 0.959 . S
C2430 H2415 0.959 . S
C2430 H2416 0.961 . S
C2430 C2429 1.502 . S
C2431 H2417 0.960 . S
C2431 H2418 0.961 . S
C2431 H2419 0.959 . S
C2431 C2429 1.561 . S
C2432 C2429 1.526 . S
C2432 C2433 1.396 . S
C2432 C2437 1.390 . S
C2433 C2427 1.465 . S
C2433 C2432 1.396 . S
C2433 C2434 1.399 . S
C2434 H2420 0.929 . S
C2434 C2433 1.399 . S
C2434 C2435 1.385 . S
C2435 H2421 0.931 . S
C2435 C2434 1.385 . S
C2435 C2436 1.389 . S
C2436 C2435 1.389 . S
C2436 C2437 1.387 . S
C2437 H2422 0.930 . S
C2437 C2432 1.390 . S
C2437 C2436 1.387 . S
H2438 C2450 0.930 . S
H2439 C2452 0.930 . S
H2440 C2453 0.930 . S
H2441 C2457 0.959 . S
H2442 C2457 0.959 . S
H2443 C2457 0.961 . S
H2444 C2458 0.960 . S
H2445 C2458 0.961 . S
H2446 C2458 0.959 . S
H2447 C2461 0.929 . S
H2448 C2462 0.931 . S
H2449 C2464 0.930 . S
C2450 H2438 0.930 . S
C2450 C2451 1.399 . S
C2450 C2455 1.399 . S
C2451 C2450 1.399 . S
C2451 C2452 1.376 . S
C2452 H2439 0.930 . S
C2452 C2451 1.376 . S
C2452 C2453 1.389 1_545 S
C2453 H2440 0.930 . S
C2453 C2452 1.389 1_565 S
C2453 C2454 1.390 1_565 S
C2454 C2453 1.390 1_545 S
C2454 C2455 1.394 . S
C2454 C2460 1.465 1_545 S
C2455 C2450 1.399 . S
C2455 C2454 1.394 . S
C2455 C2456 1.516 . S
C2456 C2455 1.516 . S
C2456 C2457 1.502 . S
C2456 C2458 1.561 . S
C2456 C2459 1.526 1_545 S
C2457 H2441 0.959 . S
C2457 H2442 0.959 . S
C2457 H2443 0.961 . S
C2457 C2456 1.502 . S
C2458 H2444 0.960 . S
C2458 H2445 0.961 . S
C2458 H2446 0.959 . S
C2458 C2456 1.561 . S
C2459 C2456 1.526 1_565 S
C2459 C2460 1.396 . S
C2459 C2464 1.390 . S
C2460 C2454 1.465 1_565 S
C2460 C2459 1.396 . S
C2460 C2461 1.399 . S
C2461 H2447 0.929 . S
C2461 C2460 1.399 . S
C2461 C2462 1.385 . S
C2462 H2448 0.931 . S
C2462 C2461 1.385 . S
C2462 C2463 1.389 . S
C2463 C2462 1.389 . S
C2463 C2464 1.387 . S
C2464 H2449 0.930 . S
C2464 C2459 1.390 . S
C2464 C2463 1.387 . S
H2465 C2477 0.930 . S
H2466 C2479 0.930 . S
H2467 C2480 0.930 . S
H2468 C2484 0.959 . S
H2469 C2484 0.959 . S
H2470 C2484 0.961 . S
H2471 C2485 0.960 . S
H2472 C2485 1.007 . S
H2473 C2485 0.959 . S
H2474 C2488 0.929 . S
H2475 C2489 0.931 . S
H2476 C2491 0.930 . S
C2477 H2465 0.930 . S
C2477 C2478 1.399 . S
C2477 C2482 1.399 . S
C2478 C2477 1.399 . S
C2478 C2479 1.376 . S
C2479 H2466 0.930 . S
C2479 C2478 1.376 . S
C2479 C2480 1.388 . S
C2480 H2467 0.930 . S
C2480 C2479 1.388 . S
C2480 C2481 1.390 . S
C2481 C2480 1.390 . S
C2481 C2482 1.394 . S
C2481 C2487 1.465 1_556 S
C2482 C2477 1.399 . S
C2482 C2481 1.394 . S
C2482 C2483 1.478 1_556 S
C2483 C2482 1.478 1_554 S
C2483 C2484 1.534 . S
C2483 C2485 1.533 1_554 S
C2483 C2486 1.560 . S
C2484 H2468 0.959 . S
C2484 H2469 0.959 . S
C2484 H2470 0.961 . S
C2484 C2483 1.534 . S
C2485 H2471 0.960 . S
C2485 H2472 1.007 . S
C2485 H2473 0.959 . S
C2485 C2483 1.533 1_556 S
C2486 C2483 1.560 . S
C2486 C2487 1.396 . S
C2486 C2491 1.390 . S
C2487 C2481 1.465 1_554 S
C2487 C2486 1.396 . S
C2487 C2488 1.399 . S
C2488 H2474 0.929 . S
C2488 C2487 1.399 . S
C2488 C2489 1.385 . S
C2489 H2475 0.931 . S
C2489 C2488 1.385 . S
C2489 C2490 1.389 . S
C2490 C2489 1.389 . S
C2490 C2491 1.387 . S
C2491 H2476 0.930 . S
C2491 C2486 1.390 . S
C2491 C2490 1.387 . S
H2492 C2504 0.930 . S
H2493 C2506 0.930 . S
H2494 C2507 0.930 . S
H2495 C2511 0.959 1_565 S
H2496 C2511 0.959 . S
H2497 C2511 0.961 1_565 S
H2498 C2512 0.960 . S
H2499 C2512 0.961 . S
H2500 C2512 0.959 . S
H2501 C2515 0.929 . S
H2502 C2516 0.931 . S
H2503 C2518 0.930 . S
C2504 H2492 0.930 . S
C2504 C2505 1.399 . S
C2504 C2509 1.399 . S
C2505 C2504 1.399 . S
C2505 C2506 1.376 . S
C2506 H2493 0.930 . S
C2506 C2505 1.376 . S
C2506 C2507 1.388 . S
C2507 H2494 0.930 . S
C2507 C2506 1.388 . S
C2507 C2508 1.390 . S
C2508 C2507 1.390 . S
C2508 C2509 1.394 . S
C2508 C2514 1.465 1_565 S
C2509 C2504 1.399 . S
C2509 C2508 1.394 . S
C2509 C2510 1.516 1_565 S
C2510 C2509 1.516 1_545 S
C2510 C2511 1.502 . S
C2510 C2512 1.561 . S
C2510 C2513 1.526 . S
C2511 H2495 0.959 1_545 S
C2511 H2496 0.959 . S
C2511 H2497 0.961 1_545 S
C2511 C2510 1.502 . S
C2512 H2498 0.960 . S
C2512 H2499 0.961 . S
C2512 H2500 0.959 . S
C2512 C2510 1.561 . S
C2513 C2510 1.526 . S
C2513 C2514 1.396 . S
C2513 C2518 1.390 . S
C2514 C2508 1.465 1_545 S
C2514 C2513 1.396 . S
C2514 C2515 1.399 . S
C2515 H2501 0.929 . S
C2515 C2514 1.399 . S
C2515 C2516 1.385 . S
C2516 H2502 0.931 . S
C2516 C2515 1.385 . S
C2516 C2517 1.389 . S
C2517 C2516 1.389 . S
C2517 C2518 1.387 . S
C2518 H2503 0.930 . S
C2518 C2513 1.390 . S
C2518 C2517 1.387 . S
H2519 C2531 0.930 . S
H2520 C2533 0.930 . S
H2521 C2534 0.930 . S
H2522 C2538 0.959 . S
H2523 C2538 0.959 . S
H2524 C2538 0.961 . S
H2525 C2539 0.960 . S
H2526 C2539 0.961 . S
H2527 C2539 0.959 . S
H2528 C2542 0.929 . S
H2529 C2543 0.931 . S
H2530 C2545 0.930 . S
C2531 H2519 0.930 . S
C2531 C2532 1.399 . S
C2531 C2536 1.399 . S
C2532 C2531 1.399 . S
C2532 C2533 1.376 . S
C2533 H2520 0.930 . S
C2533 C2532 1.376 . S
C2533 C2534 1.388 . S
C2534 H2521 0.930 . S
C2534 C2533 1.388 . S
C2534 C2535 1.390 . S
C2535 C2534 1.390 . S
C2535 C2536 1.394 . S
C2535 C2541 1.465 . S
C2536 C2531 1.399 . S
C2536 C2535 1.394 . S
C2536 C2537 1.516 . S
C2537 C2536 1.516 . S
C2537 C2538 1.502 . S
C2537 C2539 1.561 . S
C2537 C2540 1.526 . S
C2538 H2522 0.959 . S
C2538 H2523 0.959 . S
C2538 H2524 0.961 . S
C2538 C2537 1.502 . S
C2539 H2525 0.960 . S
C2539 H2526 0.961 . S
C2539 H2527 0.959 . S
C2539 C2537 1.561 . S
C2540 C2537 1.526 . S
C2540 C2541 1.396 . S
C2540 C2545 1.390 . S
C2541 C2535 1.465 . S
C2541 C2540 1.396 . S
C2541 C2542 1.399 . S
C2542 H2528 0.929 . S
C2542 C2541 1.399 . S
C2542 C2543 1.385 . S
C2543 H2529 0.931 . S
C2543 C2542 1.385 . S
C2543 C2544 1.389 . S
C2544 C2543 1.389 . S
C2544 C2545 1.387 . S
C2545 H2530 0.930 . S
C2545 C2540 1.390 . S
C2545 C2544 1.387 . S
H2546 C2558 0.930 . S
H2547 C2560 0.930 . S
H2548 C2561 0.930 1_565 S
H2549 C2565 0.959 1_565 S
H2550 C2565 0.959 . S
H2551 C2565 0.961 . S
H2552 C2566 0.960 . S
H2553 C2566 0.961 . S
H2554 C2566 0.959 . S
H2555 C2569 0.929 . S
H2556 C2570 0.931 . S
H2557 C2572 0.930 . S
C2558 H2546 0.930 . S
C2558 C2559 1.399 . S
C2558 C2563 1.399 . S
C2559 C2558 1.399 . S
C2559 C2560 1.376 . S
C2560 H2547 0.930 . S
C2560 C2559 1.376 . S
C2560 C2561 1.388 . S
C2561 H2548 0.930 1_545 S
C2561 C2560 1.388 . S
C2561 C2562 1.390 . S
C2562 C2561 1.390 . S
C2562 C2563 1.394 . S
C2562 C2568 1.465 1_545 S
C2563 C2558 1.399 . S
C2563 C2562 1.394 . S
C2563 C2564 1.516 . S
C2564 C2563 1.516 . S
C2564 C2565 1.502 . S
C2564 C2566 1.561 . S
C2564 C2567 1.526 1_545 S
C2565 H2549 0.959 1_545 S
C2565 H2550 0.959 . S
C2565 H2551 0.961 . S
C2565 C2564 1.502 . S
C2566 H2552 0.960 . S
C2566 H2553 0.961 . S
C2566 H2554 0.959 . S
C2566 C2564 1.561 . S
C2567 C2564 1.526 1_565 S
C2567 C2568 1.396 . S
C2567 C2572 1.390 . S
C2568 C2562 1.465 1_565 S
C2568 C2567 1.396 . S
C2568 C2569 1.399 . S
C2569 H2555 0.929 . S
C2569 C2568 1.399 . S
C2569 C2570 1.385 . S
C2570 H2556 0.931 . S
C2570 C2569 1.385 . S
C2570 C2571 1.389 . S
C2571 C2570 1.389 . S
C2571 C2572 1.387 . S
C2572 H2557 0.930 . S
C2572 C2567 1.390 . S
C2572 C2571 1.387 . S
H2573 C2585 0.930 . S
H2574 C2587 0.930 . S
H2575 C2588 0.930 . S
H2576 C2592 0.959 . S
H2577 C2592 0.959 . S
H2578 C2592 0.961 . S
H2579 C2593 0.960 1_554 S
H2580 C2593 0.961 . S
H2581 C2593 0.959 . S
H2582 C2596 0.929 . S
H2583 C2597 0.931 . S
H2584 C2599 0.930 . S
C2585 H2573 0.930 . S
C2585 C2586 1.399 . S
C2585 C2590 1.399 . S
C2586 C2585 1.399 . S
C2586 C2587 1.376 . S
C2587 H2574 0.930 . S
C2587 C2586 1.376 . S
C2587 C2588 1.388 . S
C2588 H2575 0.930 . S
C2588 C2587 1.388 . S
C2588 C2589 1.390 . S
C2589 C2588 1.390 . S
C2589 C2590 1.394 . S
C2589 C2595 1.465 1_554 S
C2590 C2585 1.399 . S
C2590 C2589 1.394 . S
C2590 C2591 1.516 . S
C2591 C2590 1.516 . S
C2591 C2592 1.502 . S
C2591 C2593 1.561 1_554 S
C2591 C2594 1.526 1_554 S
C2592 H2576 0.959 . S
C2592 H2577 0.959 . S
C2592 H2578 0.961 . S
C2592 C2591 1.502 . S
C2593 H2579 0.960 1_556 S
C2593 H2580 0.961 . S
C2593 H2581 0.959 . S
C2593 C2591 1.561 1_556 S
C2594 C2591 1.526 1_556 S
C2594 C2595 1.396 . S
C2594 C2599 1.390 . S
C2595 C2589 1.465 1_556 S
C2595 C2594 1.396 . S
C2595 C2596 1.399 . S
C2596 H2582 0.929 . S
C2596 C2595 1.399 . S
C2596 C2597 1.385 . S
C2597 H2583 0.931 . S
C2597 C2596 1.385 . S
C2597 C2598 1.389 . S
C2598 C2597 1.389 . S
C2598 C2599 1.387 . S
C2599 H2584 0.930 . S
C2599 C2594 1.390 . S
C2599 C2598 1.387 . S
H2600 C2612 0.930 . S
H2601 C2614 0.930 . S
H2602 C2615 0.930 . S
H2603 C2619 0.959 . S
H2604 C2619 0.959 . S
H2605 C2619 0.961 . S
H2606 C2620 0.960 . S
H2607 C2620 0.961 . S
H2608 C2620 0.959 . S
H2609 C2623 0.929 . S
H2610 C2624 0.931 . S
H2611 C2626 0.930 . S
C2612 H2600 0.930 . S
C2612 C2613 1.399 . S
C2612 C2617 1.399 . S
C2613 C2612 1.399 . S
C2613 C2614 1.376 . S
C2614 H2601 0.930 . S
C2614 C2613 1.376 . S
C2614 C2615 1.388 . S
C2615 H2602 0.930 . S
C2615 C2614 1.388 . S
C2615 C2616 1.390 . S
C2616 C2615 1.390 . S
C2616 C2617 1.394 . S
C2616 C2622 1.465 . S
C2617 C2612 1.399 . S
C2617 C2616 1.394 . S
C2617 C2618 1.516 . S
C2618 C2617 1.516 . S
C2618 C2619 1.502 . S
C2618 C2620 1.561 . S
C2618 C2621 1.526 . S
C2619 H2603 0.959 . S
C2619 H2604 0.959 . S
C2619 H2605 0.961 . S
C2619 C2618 1.502 . S
C2620 H2606 0.960 . S
C2620 H2607 0.961 . S
C2620 H2608 0.959 . S
C2620 C2618 1.561 . S
C2621 C2618 1.526 . S
C2621 C2622 1.396 . S
C2621 C2626 1.390 . S
C2622 C2616 1.465 . S
C2622 C2621 1.396 . S
C2622 C2623 1.399 . S
C2623 H2609 0.929 . S
C2623 C2622 1.399 . S
C2623 C2624 1.385 . S
C2624 H2610 0.931 . S
C2624 C2623 1.385 . S
C2624 C2625 1.389 . S
C2625 C2624 1.389 . S
C2625 C2626 1.387 . S
C2626 H2611 0.930 . S
C2626 C2621 1.390 . S
C2626 C2625 1.387 . S
H2627 C2639 0.930 . S
H2628 C2641 0.930 . S
H2629 C2642 0.962 . S
H2630 C2646 0.959 . S
H2631 C2646 0.959 . S
H2632 C2646 0.961 . S
H2633 C2647 0.949 1_554 S
H2634 C2647 0.967 . S
H2635 C2647 0.969 . S
H2636 C2650 0.929 . S
H2637 C2651 0.931 . S
H2638 C2653 0.930 . S
C2639 H2627 0.930 . S
C2639 C2640 1.399 . S
C2639 C2644 1.399 . S
C2640 C2639 1.399 . S
C2640 C2641 1.376 . S
C2641 H2628 0.930 . S
C2641 C2640 1.376 . S
C2641 C2642 1.388 . S
C2642 H2629 0.962 . S
C2642 C2641 1.388 . S
C2642 C2643 1.390 . S
C2643 C2642 1.390 . S
C2643 C2644 1.394 . S
C2643 C2649 1.465 1_554 S
C2644 C2639 1.399 . S
C2644 C2643 1.394 . S
C2644 C2645 1.516 . S
C2645 C2644 1.516 . S
C2645 C2646 1.502 . S
C2645 C2647 1.557 1_554 S
C2645 C2648 1.526 1_554 S
C2646 H2630 0.959 . S
C2646 H2631 0.959 . S
C2646 H2632 0.961 . S
C2646 C2645 1.502 . S
C2647 H2633 0.949 1_556 S
C2647 H2634 0.967 . S
C2647 H2635 0.969 . S
C2647 C2645 1.557 1_556 S
C2648 C2645 1.526 1_556 S
C2648 C2649 1.396 . S
C2648 C2653 1.390 . S
C2649 C2643 1.465 1_556 S
C2649 C2648 1.396 . S
C2649 C2650 1.399 . S
C2650 H2636 0.929 . S
C2650 C2649 1.399 . S
C2650 C2651 1.385 . S
C2651 H2637 0.931 . S
C2651 C2650 1.385 . S
C2651 C2652 1.389 . S
C2652 C2651 1.389 . S
C2652 C2653 1.387 . S
C2653 H2638 0.930 . S
C2653 C2648 1.390 . S
C2653 C2652 1.387 . S
H2654 C2666 0.930 . S
H2655 C2668 0.930 . S
H2656 C2669 0.930 . S
H2657 C2673 0.959 . S
H2658 C2673 0.959 . S
H2659 C2673 0.961 . S
H2660 C2674 0.960 . S
H2661 C2674 0.961 . S
H2662 C2674 0.959 . S
H2663 C2677 0.929 . S
H2664 C2678 0.931 . S
H2665 C2680 0.930 . S
C2666 H2654 0.930 . S
C2666 C2667 1.399 . S
C2666 C2671 1.399 . S
C2667 C2666 1.399 . S
C2667 C2668 1.376 . S
C2668 H2655 0.930 . S
C2668 C2667 1.376 . S
C2668 C2669 1.388 . S
C2669 H2656 0.930 . S
C2669 C2668 1.388 . S
C2669 C2670 1.390 . S
C2670 C2669 1.390 . S
C2670 C2671 1.394 . S
C2670 C2676 1.465 . S
C2671 C2666 1.399 . S
C2671 C2670 1.394 . S
C2671 C2672 1.516 . S
C2672 C2671 1.516 . S
C2672 C2673 1.502 . S
C2672 C2674 1.561 . S
C2672 C2675 1.526 . S
C2673 H2657 0.959 . S
C2673 H2658 0.959 . S
C2673 H2659 0.961 . S
C2673 C2672 1.502 . S
C2674 H2660 0.960 . S
C2674 H2661 0.961 . S
C2674 H2662 0.959 . S
C2674 C2672 1.561 . S
C2675 C2672 1.526 . S
C2675 C2676 1.396 . S
C2675 C2680 1.390 . S
C2676 C2670 1.465 . S
C2676 C2675 1.396 . S
C2676 C2677 1.399 . S
C2677 H2663 0.929 . S
C2677 C2676 1.399 . S
C2677 C2678 1.385 . S
C2678 H2664 0.931 . S
C2678 C2677 1.385 . S
C2678 C2679 1.389 . S
C2679 C2678 1.389 . S
C2679 C2680 1.387 . S
C2680 H2665 0.930 . S
C2680 C2675 1.390 . S
C2680 C2679 1.387 . S
H2681 C2693 0.930 . S
H2682 C2695 0.930 . S
H2683 C2696 0.930 . S
H2684 C2700 0.959 . S
H2685 C2700 0.959 . S
H2686 C2700 0.961 . S
H2687 C2701 0.960 . S
H2688 C2701 0.961 . S
H2689 C2701 0.959 . S
H2690 C2704 0.929 . S
H2691 C2705 0.931 . S
H2692 C2707 0.930 . S
C2693 H2681 0.930 . S
C2693 C2694 1.399 . S
C2693 C2698 1.399 . S
C2694 C2693 1.399 . S
C2694 C2695 1.376 . S
C2695 H2682 0.930 . S
C2695 C2694 1.376 . S
C2695 C2696 1.388 . S
C2696 H2683 0.930 . S
C2696 C2695 1.388 . S
C2696 C2697 1.390 . S
C2697 C2696 1.390 . S
C2697 C2698 1.394 . S
C2697 C2703 1.465 . S
C2698 C2693 1.399 . S
C2698 C2697 1.394 . S
C2698 C2699 1.516 . S
C2699 C2698 1.516 . S
C2699 C2700 1.502 . S
C2699 C2701 1.561 . S
C2699 C2702 1.526 . S
C2700 H2684 0.959 . S
C2700 H2685 0.959 . S
C2700 H2686 0.961 . S
C2700 C2699 1.502 . S
C2701 H2687 0.960 . S
C2701 H2688 0.961 . S
C2701 H2689 0.959 . S
C2701 C2699 1.561 . S
C2702 C2699 1.526 . S
C2702 C2703 1.396 . S
C2702 C2707 1.390 . S
C2703 C2697 1.465 . S
C2703 C2702 1.396 . S
C2703 C2704 1.399 . S
C2704 H2690 0.929 . S
C2704 C2703 1.399 . S
C2704 C2705 1.385 . S
C2705 H2691 0.931 . S
C2705 C2704 1.385 . S
C2705 C2706 1.389 . S
C2706 C2705 1.389 . S
C2706 C2707 1.387 . S
C2707 H2692 0.930 . S
C2707 C2702 1.390 . S
C2707 C2706 1.387 . S
H2708 C2720 0.930 . S
H2709 C2722 0.930 . S
H2710 C2723 0.930 . S
H2711 C2727 0.959 . S
H2712 C2727 0.959 . S
H2713 C2727 0.961 . S
H2714 C2728 0.960 . S
H2715 C2728 0.961 . S
H2716 C2728 0.959 . S
H2717 C2731 0.929 . S
H2718 C2732 0.931 . S
H2719 C2734 0.930 . S
C2720 H2708 0.930 . S
C2720 C2721 1.399 . S
C2720 C2725 1.399 . S
C2721 C2720 1.399 . S
C2721 C2722 1.376 . S
C2722 H2709 0.930 . S
C2722 C2721 1.376 . S
C2722 C2723 1.388 . S
C2723 H2710 0.930 . S
C2723 C2722 1.388 . S
C2723 C2724 1.390 . S
C2724 C2723 1.390 . S
C2724 C2725 1.394 . S
C2724 C2730 1.465 . S
C2725 C2720 1.399 . S
C2725 C2724 1.394 . S
C2725 C2726 1.516 . S
C2726 C2725 1.516 . S
C2726 C2727 1.502 . S
C2726 C2728 1.561 . S
C2726 C2729 1.526 . S
C2727 H2711 0.959 . S
C2727 H2712 0.959 . S
C2727 H2713 0.961 . S
C2727 C2726 1.502 . S
C2728 H2714 0.960 . S
C2728 H2715 0.961 . S
C2728 H2716 0.959 . S
C2728 C2726 1.561 . S
C2729 C2726 1.526 . S
C2729 C2730 1.396 . S
C2729 C2734 1.390 . S
C2730 C2724 1.465 . S
C2730 C2729 1.396 . S
C2730 C2731 1.399 . S
C2731 H2717 0.929 . S
C2731 C2730 1.399 . S
C2731 C2732 1.385 . S
C2732 H2718 0.931 . S
C2732 C2731 1.385 . S
C2732 C2733 1.389 . S
C2733 C2732 1.389 . S
C2733 C2734 1.387 . S
C2734 H2719 0.930 . S
C2734 C2729 1.390 . S
C2734 C2733 1.387 . S
H2735 C2747 0.930 . S
H2736 C2749 0.930 . S
H2737 C2750 0.930 . S
H2738 C2754 0.959 . S
H2739 C2754 0.959 . S
H2740 C2754 0.961 . S
H2741 C2755 0.960 1_556 S
H2742 C2755 0.961 . S
H2743 C2755 0.959 . S
H2744 C2758 0.929 . S
H2745 C2759 0.931 . S
H2746 C2761 0.930 . S
C2747 H2735 0.930 . S
C2747 C2748 1.399 . S
C2747 C2752 1.399 . S
C2748 C2747 1.399 . S
C2748 C2749 1.376 . S
C2749 H2736 0.930 . S
C2749 C2748 1.376 . S
C2749 C2750 1.388 . S
C2750 H2737 0.930 . S
C2750 C2749 1.388 . S
C2750 C2751 1.390 . S
C2751 C2750 1.390 . S
C2751 C2752 1.394 . S
C2751 C2757 1.465 1_556 S
C2752 C2747 1.399 . S
C2752 C2751 1.394 . S
C2752 C2753 1.516 . S
C2753 C2752 1.516 . S
C2753 C2754 1.502 . S
C2753 C2755 1.561 1_556 S
C2753 C2756 1.526 1_556 S
C2754 H2738 0.959 . S
C2754 H2739 0.959 . S
C2754 H2740 0.961 . S
C2754 C2753 1.502 . S
C2755 H2741 0.960 1_554 S
C2755 H2742 0.961 . S
C2755 H2743 0.959 . S
C2755 C2753 1.561 1_554 S
C2756 C2753 1.526 1_554 S
C2756 C2757 1.396 . S
C2756 C2761 1.390 . S
C2757 C2751 1.465 1_554 S
C2757 C2756 1.396 . S
C2757 C2758 1.399 . S
C2758 H2744 0.929 . S
C2758 C2757 1.399 . S
C2758 C2759 1.385 . S
C2759 H2745 0.931 . S
C2759 C2758 1.385 . S
C2759 C2760 1.389 . S
C2760 C2759 1.389 . S
C2760 C2761 1.387 . S
C2761 H2746 0.930 . S
C2761 C2756 1.390 . S
C2761 C2760 1.387 . S
H2762 C2774 0.930 . S
H2763 C2776 0.930 . S
H2764 C2777 0.930 . S
H2765 C2781 0.959 . S
H2766 C2781 0.959 . S
H2767 C2781 0.961 . S
H2768 C2782 0.960 . S
H2769 C2782 0.961 . S
H2770 C2782 0.959 . S
H2771 C2785 0.929 . S
H2772 C2786 0.931 . S
H2773 C2788 0.930 . S
C2774 H2762 0.930 . S
C2774 C2775 1.399 . S
C2774 C2779 1.399 . S
C2775 C2774 1.399 . S
C2775 C2776 1.376 . S
C2776 H2763 0.930 . S
C2776 C2775 1.376 . S
C2776 C2777 1.388 . S
C2777 H2764 0.930 . S
C2777 C2776 1.388 . S
C2777 C2778 1.390 . S
C2778 C2777 1.390 . S
C2778 C2779 1.394 . S
C2778 C2784 1.465 . S
C2779 C2774 1.399 . S
C2779 C2778 1.394 . S
C2779 C2780 1.516 . S
C2780 C2779 1.516 . S
C2780 C2781 1.502 . S
C2780 C2782 1.561 . S
C2780 C2783 1.526 . S
C2781 H2765 0.959 . S
C2781 H2766 0.959 . S
C2781 H2767 0.961 . S
C2781 C2780 1.502 . S
C2782 H2768 0.960 . S
C2782 H2769 0.961 . S
C2782 H2770 0.959 . S
C2782 C2780 1.561 . S
C2783 C2780 1.526 . S
C2783 C2784 1.396 . S
C2783 C2788 1.390 . S
C2784 C2778 1.465 . S
C2784 C2783 1.396 . S
C2784 C2785 1.399 . S
C2785 H2771 0.929 . S
C2785 C2784 1.399 . S
C2785 C2786 1.385 . S
C2786 H2772 0.931 . S
C2786 C2785 1.385 . S
C2786 C2787 1.389 . S
C2787 C2786 1.389 . S
C2787 C2788 1.387 . S
C2788 H2773 0.930 . S
C2788 C2783 1.390 . S
C2788 C2787 1.387 . S
H2789 C2801 0.930 . S
H2790 C2803 0.930 . S
H2791 C2804 0.930 . S
H2792 C2808 0.959 . S
H2793 C2808 0.959 . S
H2794 C2808 0.961 . S
H2795 C2809 0.960 . S
H2796 C2809 0.961 . S
H2797 C2809 0.959 . S
H2798 C2812 0.929 . S
H2799 C2813 0.931 . S
H2800 C2815 0.930 . S
C2801 H2789 0.930 . S
C2801 C2802 1.399 . S
C2801 C2806 1.399 . S
C2802 C2801 1.399 . S
C2802 C2803 1.376 . S
C2803 H2790 0.930 . S
C2803 C2802 1.376 . S
C2803 C2804 1.388 . S
C2804 H2791 0.930 . S
C2804 C2803 1.388 . S
C2804 C2805 1.390 . S
C2805 C2804 1.390 . S
C2805 C2806 1.394 . S
C2805 C2811 1.465 . S
C2806 C2801 1.399 . S
C2806 C2805 1.394 . S
C2806 C2807 1.516 . S
C2807 C2806 1.516 . S
C2807 C2808 1.502 . S
C2807 C2809 1.561 . S
C2807 C2810 1.526 . S
C2808 H2792 0.959 . S
C2808 H2793 0.959 . S
C2808 H2794 0.961 . S
C2808 C2807 1.502 . S
C2809 H2795 0.960 . S
C2809 H2796 0.961 . S
C2809 H2797 0.959 . S
C2809 C2807 1.561 . S
C2810 C2807 1.526 . S
C2810 C2811 1.396 . S
C2810 C2815 1.390 . S
C2811 C2805 1.465 . S
C2811 C2810 1.396 . S
C2811 C2812 1.399 . S
C2812 H2798 0.929 . S
C2812 C2811 1.399 . S
C2812 C2813 1.385 . S
C2813 H2799 0.931 . S
C2813 C2812 1.385 . S
C2813 C2814 1.389 . S
C2814 C2813 1.389 . S
C2814 C2815 1.387 . S
C2815 H2800 0.930 . S
C2815 C2810 1.390 . S
C2815 C2814 1.387 . S
H2816 C2828 0.930 . S
H2817 C2830 0.930 . S
H2818 C2831 0.930 . S
H2819 C2835 0.959 . S
H2820 C2835 0.959 . S
H2821 C2835 0.961 . S
H2822 C2836 0.960 . S
H2823 C2836 0.961 . S
H2824 C2836 0.959 . S
H2825 C2839 0.929 1_455 S
H2826 C2840 0.931 . S
H2827 C2842 0.930 . S
C2828 H2816 0.930 . S
C2828 C2829 1.399 . S
C2828 C2833 1.399 . S
C2829 C2828 1.399 . S
C2829 C2830 1.376 . S
C2830 H2817 0.930 . S
C2830 C2829 1.376 . S
C2830 C2831 1.388 . S
C2831 H2818 0.930 . S
C2831 C2830 1.388 . S
C2831 C2832 1.390 . S
C2832 C2831 1.390 . S
C2832 C2833 1.394 . S
C2832 C2838 1.453 1_455 S
C2833 C2828 1.399 . S
C2833 C2832 1.394 . S
C2833 C2834 1.516 1_455 S
C2834 C2833 1.516 1_655 S
C2834 C2835 1.502 . S
C2834 C2836 1.561 1_655 S
C2834 C2837 1.526 . S
C2835 H2819 0.959 . S
C2835 H2820 0.959 . S
C2835 H2821 0.961 . S
C2835 C2834 1.502 . S
C2836 H2822 0.960 . S
C2836 H2823 0.961 . S
C2836 H2824 0.959 . S
C2836 C2834 1.561 1_455 S
C2837 C2834 1.526 . S
C2837 C2838 1.407 . S
C2837 C2842 1.390 . S
C2838 C2832 1.453 1_655 S
C2838 C2837 1.407 . S
C2838 C2839 1.402 . S
C2839 H2825 0.929 1_655 S
C2839 C2838 1.402 . S
C2839 C2840 1.385 . S
C2840 H2826 0.931 . S
C2840 C2839 1.385 . S
C2840 C2841 1.389 . S
C2841 C2840 1.389 . S
C2841 C2842 1.387 . S
C2842 H2827 0.930 . S
C2842 C2837 1.390 . S
C2842 C2841 1.387 . S
H2843 C2855 0.930 . S
H2844 C2857 0.930 . S
H2845 C2858 0.930 . S
H2846 C2862 0.959 . S
H2847 C2862 0.959 . S
H2848 C2862 0.961 . S
H2849 C2863 0.958 . S
H2850 C2863 0.961 . S
H2851 C2863 0.959 . S
H2852 C2866 0.929 . S
H2853 C2867 0.931 . S
H2854 C2869 0.930 . S
C2855 H2843 0.930 . S
C2855 C2856 1.399 . S
C2855 C2860 1.399 . S
C2856 C2855 1.399 . S
C2856 C2857 1.376 . S
C2857 H2844 0.930 . S
C2857 C2856 1.376 . S
C2857 C2858 1.388 . S
C2858 H2845 0.930 . S
C2858 C2857 1.388 . S
C2858 C2859 1.390 . S
C2859 C2858 1.390 . S
C2859 C2860 1.394 . S
C2859 C2865 1.465 1_655 S
C2860 C2855 1.399 . S
C2860 C2859 1.394 . S
C2860 C2861 1.516 1_655 S
C2861 C2860 1.516 1_455 S
C2861 C2862 1.502 . S
C2861 C2863 1.561 . S
C2861 C2864 1.526 . S
C2862 H2846 0.959 . S
C2862 H2847 0.959 . S
C2862 H2848 0.961 . S
C2862 C2861 1.502 . S
C2863 H2849 0.958 . S
C2863 H2850 0.961 . S
C2863 H2851 0.959 . S
C2863 C2861 1.561 . S
C2864 C2861 1.526 . S
C2864 C2865 1.396 . S
C2864 C2869 1.390 . S
C2865 C2859 1.465 1_455 S
C2865 C2864 1.396 . S
C2865 C2866 1.399 . S
C2866 H2852 0.929 . S
C2866 C2865 1.399 . S
C2866 C2867 1.385 . S
C2867 H2853 0.931 . S
C2867 C2866 1.385 . S
C2867 C2868 1.389 . S
C2868 C2867 1.389 . S
C2868 C2869 1.387 . S
C2869 H2854 0.930 . S
C2869 C2864 1.390 . S
C2869 C2868 1.387 . S
H2870 C2882 0.930 . S
H2871 C2884 0.930 . S
H2872 C2885 0.930 . S
H2873 C2889 0.959 . S
H2874 C2889 0.959 . S
H2875 C2889 0.961 . S
H2876 C2890 0.960 . S
H2877 C2890 0.961 . S
H2878 C2890 0.959 . S
H2879 C2893 0.929 . S
H2880 C2894 0.931 . S
H2881 C2896 0.930 . S
C2882 H2870 0.930 . S
C2882 C2883 1.399 . S
C2882 C2887 1.399 . S
C2883 C2882 1.399 . S
C2883 C2884 1.376 . S
C2884 H2871 0.930 . S
C2884 C2883 1.376 . S
C2884 C2885 1.388 . S
C2885 H2872 0.930 . S
C2885 C2884 1.388 . S
C2885 C2886 1.390 . S
C2886 C2885 1.390 . S
C2886 C2887 1.394 . S
C2886 C2892 1.465 . S
C2887 C2882 1.399 . S
C2887 C2886 1.394 . S
C2887 C2888 1.516 . S
C2888 C2887 1.516 . S
C2888 C2889 1.502 . S
C2888 C2890 1.561 . S
C2888 C2891 1.526 . S
C2889 H2873 0.959 . S
C2889 H2874 0.959 . S
C2889 H2875 0.961 . S
C2889 C2888 1.502 . S
C2890 H2876 0.960 . S
C2890 H2877 0.961 . S
C2890 H2878 0.959 . S
C2890 C2888 1.561 . S
C2891 C2888 1.526 . S
C2891 C2892 1.396 . S
C2891 C2896 1.390 . S
C2892 C2886 1.465 . S
C2892 C2891 1.396 . S
C2892 C2893 1.399 . S
C2893 H2879 0.929 . S
C2893 C2892 1.399 . S
C2893 C2894 1.385 . S
C2894 H2880 0.931 . S
C2894 C2893 1.385 . S
C2894 C2895 1.389 . S
C2895 C2894 1.389 . S
C2895 C2896 1.387 . S
C2896 H2881 0.930 . S
C2896 C2891 1.390 . S
C2896 C2895 1.387 . S
H2897 C2909 0.930 . S
H2898 C2911 0.930 . S
H2899 C2912 0.930 . S
H2900 C2916 0.959 . S
H2901 C2916 0.959 . S
H2902 C2916 0.961 . S
H2903 C2917 0.960 . S
H2904 C2917 0.961 . S
H2905 C2917 0.959 . S
H2906 C2920 0.929 . S
H2907 C2921 0.931 . S
H2908 C2923 0.930 . S
C2909 H2897 0.930 . S
C2909 C2910 1.399 . S
C2909 C2914 1.399 . S
C2910 C2909 1.399 . S
C2910 C2911 1.376 . S
C2911 H2898 0.930 . S
C2911 C2910 1.376 . S
C2911 C2912 1.388 . S
C2912 H2899 0.930 . S
C2912 C2911 1.388 . S
C2912 C2913 1.390 . S
C2913 C2912 1.390 . S
C2913 C2914 1.394 . S
C2913 C2919 1.465 . S
C2914 C2909 1.399 . S
C2914 C2913 1.394 . S
C2914 C2915 1.516 . S
C2915 C2914 1.516 . S
C2915 C2916 1.502 . S
C2915 C2917 1.561 . S
C2915 C2918 1.526 . S
C2916 H2900 0.959 . S
C2916 H2901 0.959 . S
C2916 H2902 0.961 . S
C2916 C2915 1.502 . S
C2917 H2903 0.960 . S
C2917 H2904 0.961 . S
C2917 H2905 0.959 . S
C2917 C2915 1.561 . S
C2918 C2915 1.526 . S
C2918 C2919 1.396 . S
C2918 C2923 1.390 . S
C2919 C2913 1.465 . S
C2919 C2918 1.396 . S
C2919 C2920 1.399 . S
C2920 H2906 0.929 . S
C2920 C2919 1.399 . S
C2920 C2921 1.385 . S
C2921 H2907 0.931 . S
C2921 C2920 1.385 . S
C2921 C2922 1.389 . S
C2922 C2921 1.389 . S
C2922 C2923 1.387 . S
C2923 H2908 0.930 . S
C2923 C2918 1.390 . S
C2923 C2922 1.387 . S
H2924 C2936 0.930 . S
H2925 C2938 0.930 . S
H2926 C2939 0.929 1_455 S
H2927 C2943 0.959 . S
H2928 C2943 0.959 . S
H2929 C2943 0.961 . S
H2930 C2944 0.960 . S
H2931 C2944 0.961 . S
H2932 C2944 0.959 . S
H2933 C2947 0.929 . S
H2934 C2948 0.931 . S
H2935 C2950 0.930 . S
C2936 H2924 0.930 . S
C2936 C2937 1.399 . S
C2936 C2941 1.399 . S
C2937 C2936 1.399 . S
C2937 C2938 1.376 . S
C2938 H2925 0.930 . S
C2938 C2937 1.376 . S
C2938 C2939 1.388 . S
C2939 H2926 0.929 1_655 S
C2939 C2938 1.388 . S
C2939 C2940 1.390 . S
C2940 C2939 1.390 . S
C2940 C2941 1.394 . S
C2940 C2946 1.465 1_655 S
C2941 C2936 1.399 . S
C2941 C2940 1.394 . S
C2941 C2942 1.516 . S
C2942 C2941 1.516 . S
C2942 C2943 1.502 . S
C2942 C2944 1.561 1_655 S
C2942 C2945 1.526 1_655 S
C2943 H2927 0.959 . S
C2943 H2928 0.959 . S
C2943 H2929 0.961 . S
C2943 C2942 1.502 . S
C2944 H2930 0.960 . S
C2944 H2931 0.961 . S
C2944 H2932 0.959 . S
C2944 C2942 1.561 1_455 S
C2945 C2942 1.526 1_455 S
C2945 C2946 1.396 . S
C2945 C2950 1.390 . S
C2946 C2940 1.465 1_455 S
C2946 C2945 1.396 . S
C2946 C2947 1.399 . S
C2947 H2933 0.929 . S
C2947 C2946 1.399 . S
C2947 C2948 1.385 . S
C2948 H2934 0.931 . S
C2948 C2947 1.385 . S
C2948 C2949 1.389 . S
C2949 C2948 1.389 . S
C2949 C2950 1.387 . S
C2950 H2935 0.930 . S
C2950 C2945 1.390 . S
C2950 C2949 1.387 . S
H2951 C2963 0.930 . S
H2952 C2965 0.930 . S
H2953 C2966 0.930 . S
H2954 C2970 0.959 . S
H2955 C2970 0.959 . S
H2956 C2970 0.961 . S
H2957 C2971 0.960 . S
H2958 C2971 0.961 . S
H2959 C2971 0.959 . S
H2960 C2974 0.929 . S
H2961 C2975 0.931 . S
H2962 C2977 0.930 . S
C2963 H2951 0.930 . S
C2963 C2964 1.399 . S
C2963 C2968 1.399 . S
C2964 C2963 1.399 . S
C2964 C2965 1.376 . S
C2965 H2952 0.930 . S
C2965 C2964 1.376 . S
C2965 C2966 1.388 . S
C2966 H2953 0.930 . S
C2966 C2965 1.388 . S
C2966 C2967 1.390 . S
C2967 C2966 1.390 . S
C2967 C2968 1.394 . S
C2967 C2973 1.465 . S
C2968 C2963 1.399 . S
C2968 C2967 1.394 . S
C2968 C2969 1.516 . S
C2969 C2968 1.516 . S
C2969 C2970 1.502 . S
C2969 C2971 1.561 . S
C2969 C2972 1.526 . S
C2970 H2954 0.959 . S
C2970 H2955 0.959 . S
C2970 H2956 0.961 . S
C2970 C2969 1.502 . S
C2971 H2957 0.960 . S
C2971 H2958 0.961 . S
C2971 H2959 0.959 . S
C2971 C2969 1.561 . S
C2972 C2969 1.526 . S
C2972 C2973 1.396 . S
C2972 C2977 1.390 . S
C2973 C2967 1.465 . S
C2973 C2972 1.396 . S
C2973 C2974 1.399 . S
C2974 H2960 0.929 . S
C2974 C2973 1.399 . S
C2974 C2975 1.385 . S
C2975 H2961 0.931 . S
C2975 C2974 1.385 . S
C2975 C2976 1.389 . S
C2976 C2975 1.389 . S
C2976 C2977 1.387 . S
C2977 H2962 0.930 . S
C2977 C2972 1.390 . S
C2977 C2976 1.387 . S
H2978 C2990 0.930 . S
H2979 C2992 0.930 . S
H2980 C2993 0.930 . S
H2981 C2997 0.959 . S
H2982 C2997 0.959 . S
H2983 C2997 0.961 . S
H2984 C2998 0.960 . S
H2985 C2998 0.961 . S
H2986 C2998 0.959 . S
H2987 C3001 0.929 . S
H2988 C3002 0.931 . S
H2989 C3004 0.930 . S
C2990 H2978 0.930 . S
C2990 C2991 1.399 . S
C2990 C2995 1.399 . S
C2991 C2990 1.399 . S
C2991 C2992 1.376 . S
C2992 H2979 0.930 . S
C2992 C2991 1.376 . S
C2992 C2993 1.388 . S
C2993 H2980 0.930 . S
C2993 C2992 1.388 . S
C2993 C2994 1.390 . S
C2994 C2993 1.390 . S
C2994 C2995 1.394 . S
C2994 C3000 1.465 . S
C2995 C2990 1.399 . S
C2995 C2994 1.394 . S
C2995 C2996 1.516 . S
C2996 C2995 1.516 . S
C2996 C2997 1.502 . S
C2996 C2998 1.561 . S
C2996 C2999 1.526 . S
C2997 H2981 0.959 . S
C2997 H2982 0.959 . S
C2997 H2983 0.961 . S
C2997 C2996 1.502 . S
C2998 H2984 0.960 . S
C2998 H2985 0.961 . S
C2998 H2986 0.959 . S
C2998 C2996 1.561 . S
C2999 C2996 1.526 . S
C2999 C3000 1.396 . S
C2999 C3004 1.390 . S
C3000 C2994 1.465 . S
C3000 C2999 1.396 . S
C3000 C3001 1.399 . S
C3001 H2987 0.929 . S
C3001 C3000 1.399 . S
C3001 C3002 1.385 . S
C3002 H2988 0.931 . S
C3002 C3001 1.385 . S
C3002 C3003 1.389 . S
C3003 C3002 1.389 . S
C3003 C3004 1.387 . S
C3004 H2989 0.930 . S
C3004 C2999 1.390 . S
C3004 C3003 1.387 . S
H3005 C3017 0.930 . S
H3006 C3019 0.930 . S
H3007 C3020 0.930 . S
H3008 C3024 0.959 . S
H3009 C3024 0.959 1_655 S
H3010 C3024 0.961 . S
H3011 C3025 0.960 1_455 S
H3012 C3025 0.961 . S
H3013 C3025 0.959 . S
H3014 C3028 0.929 . S
H3015 C3029 0.931 . S
H3016 C3031 0.930 . S
C3017 H3005 0.930 . S
C3017 C3018 1.399 . S
C3017 C3022 1.399 . S
C3018 C3017 1.399 . S
C3018 C3019 1.376 . S
C3019 H3006 0.930 . S
C3019 C3018 1.376 . S
C3019 C3020 1.388 . S
C3020 H3007 0.930 . S
C3020 C3019 1.388 . S
C3020 C3021 1.390 . S
C3021 C3020 1.390 . S
C3021 C3022 1.394 . S
C3021 C3027 1.465 1_455 S
C3022 C3017 1.399 . S
C3022 C3021 1.394 . S
C3022 C3023 1.516 . S
C3023 C3022 1.516 . S
C3023 C3024 1.502 . S
C3023 C3025 1.561 1_455 S
C3023 C3026 1.526 1_455 S
C3024 H3008 0.959 . S
C3024 H3009 0.959 1_455 S
C3024 H3010 0.961 . S
C3024 C3023 1.502 . S
C3025 H3011 0.960 1_655 S
C3025 H3012 0.961 . S
C3025 H3013 0.959 . S
C3025 C3023 1.561 1_655 S
C3026 C3023 1.526 1_655 S
C3026 C3027 1.396 . S
C3026 C3031 1.390 . S
C3027 C3021 1.465 1_655 S
C3027 C3026 1.396 . S
C3027 C3028 1.399 . S
C3028 H3014 0.929 . S
C3028 C3027 1.399 . S
C3028 C3029 1.385 . S
C3029 H3015 0.931 . S
C3029 C3028 1.385 . S
C3029 C3030 1.389 . S
C3030 C3029 1.389 . S
C3030 C3031 1.387 . S
C3031 H3016 0.930 . S
C3031 C3026 1.390 . S
C3031 C3030 1.387 . S
H3032 C3044 0.930 . S
H3033 C3046 0.930 . S
H3034 C3047 0.930 . S
H3035 C3051 0.959 . S
H3036 C3051 0.959 . S
H3037 C3051 0.961 . S
H3038 C3052 0.960 . S
H3039 C3052 0.961 1_455 S
H3040 C3052 0.959 . S
H3041 C3055 0.929 . S
H3042 C3056 0.931 . S
H3043 C3058 0.930 . S
C3044 H3032 0.930 . S
C3044 C3045 1.399 . S
C3044 C3049 1.399 . S
C3045 C3044 1.399 . S
C3045 C3046 1.376 . S
C3046 H3033 0.930 . S
C3046 C3045 1.376 . S
C3046 C3047 1.388 . S
C3047 H3034 0.930 . S
C3047 C3046 1.388 . S
C3047 C3048 1.390 . S
C3048 C3047 1.390 . S
C3048 C3049 1.394 . S
C3048 C3054 1.465 . S
C3049 C3044 1.399 . S
C3049 C3048 1.394 . S
C3049 C3050 1.516 1_655 S
C3050 C3049 1.516 1_455 S
C3050 C3051 1.502 . S
C3050 C3052 1.561 1_455 S
C3050 C3053 1.526 . S
C3051 H3035 0.959 . S
C3051 H3036 0.959 . S
C3051 H3037 0.961 . S
C3051 C3050 1.502 . S
C3052 H3038 0.960 . S
C3052 H3039 0.961 1_655 S
C3052 H3040 0.959 . S
C3052 C3050 1.561 1_655 S
C3053 C3050 1.526 . S
C3053 C3054 1.396 1_455 S
C3053 C3058 1.390 . S
C3054 C3048 1.465 . S
C3054 C3053 1.396 1_655 S
C3054 C3055 1.399 . S
C3055 H3041 0.929 . S
C3055 C3054 1.399 . S
C3055 C3056 1.385 1_655 S
C3056 H3042 0.931 . S
C3056 C3055 1.385 1_455 S
C3056 C3057 1.389 . S
C3057 C3056 1.389 . S
C3057 C3058 1.387 . S
C3058 H3043 0.930 . S
C3058 C3053 1.390 . S
C3058 C3057 1.387 . S
H3059 C3071 0.930 . S
H3060 C3073 0.930 . S
H3061 C3074 0.930 . S
H3062 C3078 0.959 . S
H3063 C3078 0.959 1_655 S
H3064 C3078 0.961 . S
H3065 C3079 0.950 1_455 S
H3066 C3079 0.961 . S
H3067 C3079 0.959 . S
H3068 C3082 0.929 . S
H3069 C3083 0.931 . S
H3070 C3085 0.930 . S
C3071 H3059 0.930 . S
C3071 C3072 1.399 . S
C3071 C3076 1.399 . S
C3072 C3071 1.399 . S
C3072 C3073 1.376 . S
C3073 H3060 0.930 . S
C3073 C3072 1.376 . S
C3073 C3074 1.388 . S
C3074 H3061 0.930 . S
C3074 C3073 1.388 . S
C3074 C3075 1.390 . S
C3075 C3074 1.390 . S
C3075 C3076 1.394 . S
C3075 C3081 1.465 1_455 S
C3076 C3071 1.399 . S
C3076 C3075 1.394 . S
C3076 C3077 1.516 1_455 S
C3077 C3076 1.516 1_655 S
C3077 C3078 1.502 1_655 S
C3077 C3079 1.561 . S
C3077 C3080 1.526 . S
C3078 H3062 0.959 . S
C3078 H3063 0.959 1_455 S
C3078 H3064 0.961 . S
C3078 C3077 1.502 1_455 S
C3079 H3065 0.950 1_655 S
C3079 H3066 0.961 . S
C3079 H3067 0.959 . S
C3079 C3077 1.561 . S
C3080 C3077 1.526 . S
C3080 C3081 1.396 . S
C3080 C3085 1.390 . S
C3081 C3075 1.465 1_655 S
C3081 C3080 1.396 . S
C3081 C3082 1.399 . S
C3082 H3068 0.929 . S
C3082 C3081 1.399 . S
C3082 C3083 1.385 . S
C3083 H3069 0.931 . S
C3083 C3082 1.385 . S
C3083 C3084 1.389 . S
C3084 C3083 1.389 . S
C3084 C3085 1.387 . S
C3085 H3070 0.930 . S
C3085 C3080 1.390 . S
C3085 C3084 1.387 . S
H3086 C3098 0.930 . S
H3087 C3100 0.930 . S
H3088 C3101 0.930 . S
H3089 C3105 0.959 . S
H3090 C3105 0.959 . S
H3091 C3105 0.961 . S
H3092 C3106 0.960 . S
H3093 C3106 0.961 . S
H3094 C3106 0.959 . S
H3095 C3109 0.929 . S
H3096 C3110 0.931 . S
H3097 C3112 0.930 . S
C3098 H3086 0.930 . S
C3098 C3099 1.399 . S
C3098 C3103 1.399 . S
C3099 C3098 1.399 . S
C3099 C3100 1.376 . S
C3100 H3087 0.930 . S
C3100 C3099 1.376 . S
C3100 C3101 1.388 . S
C3101 H3088 0.930 . S
C3101 C3100 1.388 . S
C3101 C3102 1.390 . S
C3102 C3101 1.390 . S
C3102 C3103 1.394 . S
C3102 C3108 1.465 . S
C3103 C3098 1.399 . S
C3103 C3102 1.394 . S
C3103 C3104 1.516 . S
C3104 C3103 1.516 . S
C3104 C3105 1.502 . S
C3104 C3106 1.561 . S
C3104 C3107 1.526 . S
C3105 H3089 0.959 . S
C3105 H3090 0.959 . S
C3105 H3091 0.961 . S
C3105 C3104 1.502 . S
C3106 H3092 0.960 . S
C3106 H3093 0.961 . S
C3106 H3094 0.959 . S
C3106 C3104 1.561 . S
C3107 C3104 1.526 . S
C3107 C3108 1.396 . S
C3107 C3112 1.390 . S
C3108 C3102 1.465 . S
C3108 C3107 1.396 . S
C3108 C3109 1.399 . S
C3109 H3095 0.929 . S
C3109 C3108 1.399 . S
C3109 C3110 1.385 . S
C3110 H3096 0.931 . S
C3110 C3109 1.385 . S
C3110 C3111 1.389 . S
C3111 C3110 1.389 . S
C3111 C3112 1.387 . S
C3112 H3097 0.930 . S
C3112 C3107 1.390 . S
C3112 C3111 1.387 . S
H3113 C3125 0.930 . S
H3114 C3127 0.930 . S
H3115 C3128 0.930 . S
H3116 C3132 0.959 . S
H3117 C3132 0.959 . S
H3118 C3132 0.961 . S
H3119 C3133 0.960 . S
H3120 C3133 0.961 . S
H3121 C3133 0.959 . S
H3122 C3136 0.929 . S
H3123 C3137 0.931 . S
H3124 C3139 0.930 . S
C3125 H3113 0.930 . S
C3125 C3126 1.399 . S
C3125 C3130 1.399 . S
C3126 C3125 1.399 . S
C3126 C3127 1.376 . S
C3127 H3114 0.930 . S
C3127 C3126 1.376 . S
C3127 C3128 1.388 . S
C3128 H3115 0.930 . S
C3128 C3127 1.388 . S
C3128 C3129 1.390 . S
C3129 C3128 1.390 . S
C3129 C3130 1.394 . S
C3129 C3135 1.465 . S
C3130 C3125 1.399 . S
C3130 C3129 1.394 . S
C3130 C3131 1.516 . S
C3131 C3130 1.516 . S
C3131 C3132 1.502 . S
C3131 C3133 1.561 . S
C3131 C3134 1.526 . S
C3132 H3116 0.959 . S
C3132 H3117 0.959 . S
C3132 H3118 0.961 . S
C3132 C3131 1.502 . S
C3133 H3119 0.960 . S
C3133 H3120 0.961 . S
C3133 H3121 0.959 . S
C3133 C3131 1.561 . S
C3134 C3131 1.526 . S
C3134 C3135 1.396 . S
C3134 C3139 1.390 . S
C3135 C3129 1.465 . S
C3135 C3134 1.396 . S
C3135 C3136 1.399 . S
C3136 H3122 0.929 . S
C3136 C3135 1.399 . S
C3136 C3137 1.385 . S
C3137 H3123 0.931 . S
C3137 C3136 1.385 . S
C3137 C3138 1.389 . S
C3138 C3137 1.389 . S
C3138 C3139 1.387 . S
C3139 H3124 0.930 . S
C3139 C3134 1.390 . S
C3139 C3138 1.387 . S
H3140 C3152 0.930 . S
H3141 C3154 0.930 . S
H3142 C3155 0.930 . S
H3143 C3159 0.959 . S
H3144 C3159 0.959 . S
H3145 C3159 0.961 . S
H3146 C3160 0.945 1_655 S
H3147 C3160 0.961 . S
H3148 C3160 0.959 . S
H3149 C3163 0.929 . S
H3150 C3164 0.931 . S
H3151 C3166 0.930 . S
C3152 H3140 0.930 . S
C3152 C3153 1.399 . S
C3152 C3157 1.399 . S
C3153 C3152 1.399 . S
C3153 C3154 1.376 . S
C3154 H3141 0.930 . S
C3154 C3153 1.376 . S
C3154 C3155 1.388 1_655 S
C3155 H3142 0.930 . S
C3155 C3154 1.388 1_455 S
C3155 C3156 1.390 . S
C3156 C3155 1.390 . S
C3156 C3157 1.394 1_455 S
C3156 C3162 1.465 . S
C3157 C3152 1.399 . S
C3157 C3156 1.394 1_655 S
C3157 C3158 1.516 . S
C3158 C3157 1.516 . S
C3158 C3159 1.502 . S
C3158 C3160 1.561 1_655 S
C3158 C3161 1.526 1_655 S
C3159 H3143 0.959 . S
C3159 H3144 0.959 . S
C3159 H3145 0.961 . S
C3159 C3158 1.502 . S
C3160 H3146 0.945 1_455 S
C3160 H3147 0.961 . S
C3160 H3148 0.959 . S
C3160 C3158 1.561 1_455 S
C3161 C3158 1.526 1_455 S
C3161 C3162 1.396 . S
C3161 C3166 1.390 . S
C3162 C3156 1.465 . S
C3162 C3161 1.396 . S
C3162 C3163 1.399 . S
C3163 H3149 0.929 . S
C3163 C3162 1.399 . S
C3163 C3164 1.385 . S
C3164 H3150 0.931 . S
C3164 C3163 1.385 . S
C3164 C3165 1.389 . S
C3165 C3164 1.389 . S
C3165 C3166 1.387 . S
C3166 H3151 0.930 . S
C3166 C3161 1.390 . S
C3166 C3165 1.387 . S
H3167 C3179 0.930 . S
H3168 C3181 0.930 . S
H3169 C3182 0.930 . S
H3170 C3186 0.959 . S
H3171 C3186 0.959 . S
H3172 C3186 0.961 . S
H3173 C3187 0.960 . S
H3174 C3187 0.961 . S
H3175 C3187 0.959 . S
H3176 C3190 0.929 . S
H3177 C3191 0.931 . S
H3178 C3193 0.930 . S
C3179 H3167 0.930 . S
C3179 C3180 1.399 . S
C3179 C3184 1.399 . S
C3180 C3179 1.399 . S
C3180 C3181 1.376 . S
C3181 H3168 0.930 . S
C3181 C3180 1.376 . S
C3181 C3182 1.388 . S
C3182 H3169 0.930 . S
C3182 C3181 1.388 . S
C3182 C3183 1.390 . S
C3183 C3182 1.390 . S
C3183 C3184 1.394 . S
C3183 C3189 1.465 . S
C3184 C3179 1.399 . S
C3184 C3183 1.394 . S
C3184 C3185 1.516 . S
C3185 C3184 1.516 . S
C3185 C3186 1.502 . S
C3185 C3187 1.561 . S
C3185 C3188 1.526 . S
C3186 H3170 0.959 . S
C3186 H3171 0.959 . S
C3186 H3172 0.961 . S
C3186 C3185 1.502 . S
C3187 H3173 0.960 . S
C3187 H3174 0.961 . S
C3187 H3175 0.959 . S
C3187 C3185 1.561 . S
C3188 C3185 1.526 . S
C3188 C3189 1.396 . S
C3188 C3193 1.390 . S
C3189 C3183 1.465 . S
C3189 C3188 1.396 . S
C3189 C3190 1.399 . S
C3190 H3176 0.929 . S
C3190 C3189 1.399 . S
C3190 C3191 1.385 . S
C3191 H3177 0.931 . S
C3191 C3190 1.385 . S
C3191 C3192 1.389 . S
C3192 C3191 1.389 . S
C3192 C3193 1.387 . S
C3193 H3178 0.930 . S
C3193 C3188 1.390 . S
C3193 C3192 1.387 . S
H3194 C3206 0.930 . S
H3195 C3208 0.930 . S
H3196 C3209 0.930 . S
H3197 C3213 0.959 . S
H3198 C3213 0.959 . S
H3199 C3213 0.961 . S
H3200 C3214 0.960 . S
H3201 C3214 0.961 . S
H3202 C3214 0.959 . S
H3203 C3217 0.929 . S
H3204 C3218 0.931 . S
H3205 C3220 0.930 . S
C3206 H3194 0.930 . S
C3206 C3207 1.399 . S
C3206 C3211 1.399 . S
C3207 C3206 1.399 . S
C3207 C3208 1.376 . S
C3208 H3195 0.930 . S
C3208 C3207 1.376 . S
C3208 C3209 1.388 . S
C3209 H3196 0.930 . S
C3209 C3208 1.388 . S
C3209 C3210 1.390 . S
C3210 C3209 1.390 . S
C3210 C3211 1.394 . S
C3210 C3216 1.465 . S
C3211 C3206 1.399 . S
C3211 C3210 1.394 . S
C3211 C3212 1.516 . S
C3212 C3211 1.516 . S
C3212 C3213 1.502 . S
C3212 C3214 1.561 . S
C3212 C3215 1.526 . S
C3213 H3197 0.959 . S
C3213 H3198 0.959 . S
C3213 H3199 0.961 . S
C3213 C3212 1.502 . S
C3214 H3200 0.960 . S
C3214 H3201 0.961 . S
C3214 H3202 0.959 . S
C3214 C3212 1.561 . S
C3215 C3212 1.526 . S
C3215 C3216 1.396 . S
C3215 C3220 1.390 . S
C3216 C3210 1.465 . S
C3216 C3215 1.396 . S
C3216 C3217 1.399 . S
C3217 H3203 0.929 . S
C3217 C3216 1.399 . S
C3217 C3218 1.385 . S
C3218 H3204 0.931 . S
C3218 C3217 1.385 . S
C3218 C3219 1.389 . S
C3219 C3218 1.389 . S
C3219 C3220 1.387 . S
C3220 H3205 0.930 . S
C3220 C3215 1.390 . S
C3220 C3219 1.387 . S
H3221 C3233 0.930 . S
H3222 C3235 0.930 . S
H3223 C3236 0.930 . S
H3224 C3240 0.959 . S
H3225 C3240 0.959 . S
H3226 C3240 0.961 . S
H3227 C3241 0.960 . S
H3228 C3241 0.961 1_455 S
H3229 C3241 0.959 . S
H3230 C3244 0.929 . S
H3231 C3245 0.931 . S
H3232 C3247 0.930 . S
C3233 H3221 0.930 . S
C3233 C3234 1.399 . S
C3233 C3238 1.399 . S
C3234 C3233 1.399 . S
C3234 C3235 1.376 . S
C3235 H3222 0.930 . S
C3235 C3234 1.376 . S
C3235 C3236 1.388 . S
C3236 H3223 0.930 . S
C3236 C3235 1.388 . S
C3236 C3237 1.390 . S
C3237 C3236 1.390 . S
C3237 C3238 1.394 . S
C3237 C3243 1.465 1_655 S
C3238 C3233 1.399 . S
C3238 C3237 1.394 . S
C3238 C3239 1.516 1_655 S
C3239 C3238 1.516 1_455 S
C3239 C3240 1.502 . S
C3239 C3241 1.561 1_455 S
C3239 C3242 1.526 . S
C3240 H3224 0.959 . S
C3240 H3225 0.959 . S
C3240 H3226 0.961 . S
C3240 C3239 1.502 . S
C3241 H3227 0.960 . S
C3241 H3228 0.961 1_655 S
C3241 H3229 0.959 . S
C3241 C3239 1.561 1_655 S
C3242 C3239 1.526 . S
C3242 C3243 1.396 . S
C3242 C3247 1.390 . S
C3243 C3237 1.465 1_455 S
C3243 C3242 1.396 . S
C3243 C3244 1.399 . S
C3244 H3230 0.929 . S
C3244 C3243 1.399 . S
C3244 C3245 1.385 . S
C3245 H3231 0.931 . S
C3245 C3244 1.385 . S
C3245 C3246 1.389 . S
C3246 C3245 1.389 . S
C3246 C3247 1.387 . S
C3247 H3232 0.930 . S
C3247 C3242 1.390 . S
C3247 C3246 1.387 . S
C1101 C951 1.134 . S
C1113 C2 1.152 . S
C1128 C305 1.105 . S
C1140 C36 1.128 . S
C1155 C883 1.173 . S
C1167 C70 1.171 . S
C1182 C104 1.176 . S
C1194 C373 1.173 . S
C1209 C1019 1.135 . S
C1221 C138 1.153 . S
C1236 C509 1.141 . S
C1248 C172 1.147 . S
C1263 C206 1.176 . S
C1275 C1087 1.172 . S
C1290 C240 1.171 . S
C1302 C441 1.172 . S
C1317 C679 1.109 . S
C1329 C274 1.137 . S
C1344 C33 1.171 . S
C1356 C308 1.176 . S
C1371 C342 1.176 . S
C1383 C611 1.168 . S
C1398 C376 1.154 . S
C1410 C101 1.159 . S
C1425 C410 1.128 . S
C1437 C747 1.116 . S
C1452 C444 1.130 . S
C1464 C237 1.106 . S
C1479 C815 1.135 . S
C1491 C478 1.158 . S
C1506 C169 1.178 . S
C1518 C512 1.175 . S
C1533 C407 1.164 . S
C1545 C546 1.163 . S
C1560 C580 1.175 . S
C1572 C849 1.177 . S
C1587 C339 1.178 . S
C1599 C614 1.177 . S
C1614 C648 1.177 . S
C1626 C917 1.178 . S
C1641 C475 1.147 . S
C1653 C682 1.151 . S
C1668 C1053 1.115 . S
C1680 C716 1.131 . S
C1695 C543 1.110 . S
C1707 C750 1.134 . S
C1722 C784 1.128 . S
C1734 C985 1.106 . S
C1749 C818 1.127 . S
C1761 C135 1.110 . S
C1776 C577 1.171 . S
C1788 C852 1.176 . S
C1803 C67 1.177 . S
C1815 C886 1.172 . S
C1830 C920 1.145 . S
C1842 C645 1.147 . S
C1857 C954 1.135 . S
C1869 C203 1.131 . S
C1884 C988 1.171 . S
C1896 C781 1.157 . S
C1911 C271 1.137 . S
C1923 C1022 1.159 . S
C1938 C1056 1.147 . S
C1950 C713 1.150 . S
C1965 C9 1.384 1_565 S
C1977 C179 1.417 . S
C1992 C213 1.390 1_565 S
C2004 C43 1.415 . S
C2019 C247 1.402 . S
C2031 C77 1.355 1_545 S
C2046 C111 1.374 . S
C2058 C145 1.413 1_545 S
C2073 C281 1.417 1_545 S
C2085 C451 1.368 . S
C2100 C315 1.362 . S
C2112 C485 1.331 1_545 S
C2127 C349 1.332 1_565 S
C2139 C519 1.401 . S
C2154 C383 1.413 . S
C2166 C417 1.373 1_565 S
C2181 C723 1.335 . S
C2193 C553 1.333 . S
C2208 C587 1.403 . S
C2220 C757 1.356 . S
C2235 C621 1.375 . S
C2247 C791 1.413 . S
C2262 C689 1.405 . S
C2274 C655 1.414 . S
C2289 C995 1.354 . S
C2301 C825 1.416 . S
C2316 C1029 1.395 . S
C2328 C859 1.330 . S
C2343 C1063 1.417 . S
C2355 C893 1.371 . S
C2370 C961 1.393 . S
C2382 C927 1.329 . S
C2397 C20 1.351 . S
C2409 C156 1.361 . S
C2424 C54 1.356 . S
C2436 C190 1.363 . S
C2451 C224 1.352 . S
C2463 C88 1.361 . S
C2478 C258 1.356 . S
C2490 C122 1.362 . S
C2505 C292 1.354 . S
C2517 C428 1.353 . S
C2532 C462 1.351 . S
C2544 C326 1.357 . S
C2559 C360 1.359 . S
C2571 C496 1.364 . S
C2586 C530 1.364 . S
C2598 C394 1.358 . S
C2613 C564 1.350 . S
C2625 C700 1.363 . S
C2640 C598 1.362 . S
C2652 C734 1.351 . S
C2667 C632 1.351 . S
C2679 C768 1.363 . S
C2694 C666 1.362 . S
C2706 C802 1.351 . S
C2721 C972 1.359 . S
C2733 C836 1.351 . S
C2748 C870 1.364 . S
C2760 C1006 1.357 . S
C2775 C904 1.359 . S
C2787 C1040 1.351 . S
C2802 C938 1.363 . S
C2814 C1074 1.360 . S
C2829 C5 0.903 . S
C2841 C617 0.944 . S
C2856 C651 0.925 . S
C2868 C39 0.842 . S
C2883 C73 0.863 . S
C2895 C549 0.841 . S
C2910 C107 0.876 . S
C2922 C583 0.835 . S
C2937 C753 0.873 . S
C2949 C141 0.836 . S
C2964 C787 0.894 . S
C2976 C175 0.832 . S
C2991 C209 0.889 . S
C3003 C685 0.832 . S
C3018 C243 0.907 . S
C3030 C719 0.943 . S
C3045 C277 0.832 . S
C3057 C889 0.871 . S
C3072 C923 0.832 . S
C3084 C311 0.849 . S
C3099 C821 0.947 . S
C3111 C345 0.917 . S
C3126 C379 0.833 . S
C3138 C855 0.875 . S
C3153 C413 0.946 . S
C3165 C1025 0.910 . S
C3180 C447 0.939 . S
C3192 C1059 0.942 . S
C3207 C481 0.941 . S
C3219 C957 0.895 . S
C3234 C515 0.946 . S
C3246 C991 0.910 . S
