# Generated by pormake.
# Topology uow, (4)-cn, num edge types: 1
# Building blocks:
#     Node 0, Type 0, BuildingBlock: AZAVOO_clean_sbu_0, # of connection points: 4
#     Node 1, Type 0, BuildingBlock: AZAVOO_clean_sbu_0, # of connection points: 4
#     Node 2, Type 0, BuildingBlock: AZAVOO_clean_sbu_0, # of connection points: 4
#     Node 3, Type 0, BuildingBlock: AZAVOO_clean_sbu_0, # of connection points: 4
#     Node 4, Type 0, BuildingBlock: AZAVOO_clean_sbu_0, # of connection points: 4
#     Node 5, Type 0, BuildingBlock: AZAVOO_clean_sbu_0, # of connection points: 4
#     Node 6, Type 0, BuildingBlock: AZAVOO_clean_sbu_0, # of connection points: 4
#     Node 7, Type 0, BuildingBlock: AZAVOO_clean_sbu_0, # of connection points: 4
#     Node 8, Type 0, BuildingBlock: AZAVOO_clean_sbu_0, # of connection points: 4
#     Node 9, Type 0, BuildingBlock: AZAVOO_clean_sbu_0, # of connection points: 4
#     Node 10, Type 0, BuildingBlock: AZAVOO_clean_sbu_0, # of connection points: 4
#     Node 11, Type 0, BuildingBlock: AZAVOO_clean_sbu_0, # of connection points: 4
#     Node 12, Type 0, BuildingBlock: AZAVOO_clean_sbu_0, # of connection points: 4
#     Node 13, Type 0, BuildingBlock: AZAVOO_clean_sbu_0, # of connection points: 4
#     Node 14, Type 0, BuildingBlock: AZAVOO_clean_sbu_0, # of connection points: 4
#     Node 15, Type 0, BuildingBlock: AZAVOO_clean_sbu_0, # of connection points: 4
#     Node 16, Type 0, BuildingBlock: AZAVOO_clean_sbu_0, # of connection points: 4
#     Node 17, Type 0, BuildingBlock: AZAVOO_clean_sbu_0, # of connection points: 4
#     Node 18, Type 0, BuildingBlock: AZAVOO_clean_sbu_0, # of connection points: 4
#     Node 19, Type 0, BuildingBlock: AZAVOO_clean_sbu_0, # of connection points: 4
#     Node 20, Type 0, BuildingBlock: AZAVOO_clean_sbu_0, # of connection points: 4
#     Node 21, Type 0, BuildingBlock: AZAVOO_clean_sbu_0, # of connection points: 4
#     Node 22, Type 0, BuildingBlock: AZAVOO_clean_sbu_0, # of connection points: 4
#     Node 23, Type 0, BuildingBlock: AZAVOO_clean_sbu_0, # of connection points: 4
#     Node 24, Type 0, BuildingBlock: AZAVOO_clean_sbu_0, # of connection points: 4
#     Node 25, Type 0, BuildingBlock: AZAVOO_clean_sbu_0, # of connection points: 4
#     Node 26, Type 0, BuildingBlock: AZAVOO_clean_sbu_0, # of connection points: 4
#     Node 27, Type 0, BuildingBlock: AZAVOO_clean_sbu_0, # of connection points: 4
#     Node 28, Type 0, BuildingBlock: AZAVOO_clean_sbu_0, # of connection points: 4
#     Node 29, Type 0, BuildingBlock: AZAVOO_clean_sbu_0, # of connection points: 4
#     Node 30, Type 0, BuildingBlock: AZAVOO_clean_sbu_0, # of connection points: 4
#     Node 31, Type 0, BuildingBlock: AZAVOO_clean_sbu_0, # of connection points: 4
#     Edge 32, Type (0, 0), BuildingBlock: XUDNAN_clean_linker_2, # of connection points: 2
#     Edge 33, Type (0, 0), BuildingBlock: XUDNAN_clean_linker_2, # of connection points: 2
#     Edge 34, Type (0, 0), BuildingBlock: XUDNAN_clean_linker_2, # of connection points: 2
#     Edge 35, Type (0, 0), BuildingBlock: XUDNAN_clean_linker_2, # of connection points: 2
#     Edge 36, Type (0, 0), BuildingBlock: XUDNAN_clean_linker_2, # of connection points: 2
#     Edge 37, Type (0, 0), BuildingBlock: XUDNAN_clean_linker_2, # of connection points: 2
#     Edge 38, Type (0, 0), BuildingBlock: XUDNAN_clean_linker_2, # of connection points: 2
#     Edge 39, Type (0, 0), BuildingBlock: XUDNAN_clean_linker_2, # of connection points: 2
#     Edge 40, Type (0, 0), BuildingBlock: XUDNAN_clean_linker_2, # of connection points: 2
#     Edge 41, Type (0, 0), BuildingBlock: XUDNAN_clean_linker_2, # of connection points: 2
#     Edge 42, Type (0, 0), BuildingBlock: XUDNAN_clean_linker_2, # of connection points: 2
#     Edge 43, Type (0, 0), BuildingBlock: XUDNAN_clean_linker_2, # of connection points: 2
#     Edge 44, Type (0, 0), BuildingBlock: XUDNAN_clean_linker_2, # of connection points: 2
#     Edge 45, Type (0, 0), BuildingBlock: XUDNAN_clean_linker_2, # of connection points: 2
#     Edge 46, Type (0, 0), BuildingBlock: XUDNAN_clean_linker_2, # of connection points: 2
#     Edge 47, Type (0, 0), BuildingBlock: XUDNAN_clean_linker_2, # of connection points: 2
#     Edge 48, Type (0, 0), BuildingBlock: XUDNAN_clean_linker_2, # of connection points: 2
#     Edge 49, Type (0, 0), BuildingBlock: XUDNAN_clean_linker_2, # of connection points: 2
#     Edge 50, Type (0, 0), BuildingBlock: XUDNAN_clean_linker_2, # of connection points: 2
#     Edge 51, Type (0, 0), BuildingBlock: XUDNAN_clean_linker_2, # of connection points: 2
#     Edge 52, Type (0, 0), BuildingBlock: XUDNAN_clean_linker_2, # of connection points: 2
#     Edge 53, Type (0, 0), BuildingBlock: XUDNAN_clean_linker_2, # of connection points: 2
#     Edge 54, Type (0, 0), BuildingBlock: XUDNAN_clean_linker_2, # of connection points: 2
#     Edge 55, Type (0, 0), BuildingBlock: XUDNAN_clean_linker_2, # of connection points: 2
#     Edge 56, Type (0, 0), BuildingBlock: XUDNAN_clean_linker_2, # of connection points: 2
#     Edge 57, Type (0, 0), BuildingBlock: XUDNAN_clean_linker_2, # of connection points: 2
#     Edge 58, Type (0, 0), BuildingBlock: XUDNAN_clean_linker_2, # of connection points: 2
#     Edge 59, Type (0, 0), BuildingBlock: XUDNAN_clean_linker_2, # of connection points: 2
#     Edge 60, Type (0, 0), BuildingBlock: XUDNAN_clean_linker_2, # of connection points: 2
#     Edge 61, Type (0, 0), BuildingBlock: XUDNAN_clean_linker_2, # of connection points: 2
#     Edge 62, Type (0, 0), BuildingBlock: XUDNAN_clean_linker_2, # of connection points: 2
#     Edge 63, Type (0, 0), BuildingBlock: XUDNAN_clean_linker_2, # of connection points: 2
#     Edge 64, Type (0, 0), BuildingBlock: XUDNAN_clean_linker_2, # of connection points: 2
#     Edge 65, Type (0, 0), BuildingBlock: XUDNAN_clean_linker_2, # of connection points: 2
#     Edge 66, Type (0, 0), BuildingBlock: XUDNAN_clean_linker_2, # of connection points: 2
#     Edge 67, Type (0, 0), BuildingBlock: XUDNAN_clean_linker_2, # of connection points: 2
#     Edge 68, Type (0, 0), BuildingBlock: XUDNAN_clean_linker_2, # of connection points: 2
#     Edge 69, Type (0, 0), BuildingBlock: XUDNAN_clean_linker_2, # of connection points: 2
#     Edge 70, Type (0, 0), BuildingBlock: XUDNAN_clean_linker_2, # of connection points: 2
#     Edge 71, Type (0, 0), BuildingBlock: XUDNAN_clean_linker_2, # of connection points: 2
#     Edge 72, Type (0, 0), BuildingBlock: XUDNAN_clean_linker_2, # of connection points: 2
#     Edge 73, Type (0, 0), BuildingBlock: XUDNAN_clean_linker_2, # of connection points: 2
#     Edge 74, Type (0, 0), BuildingBlock: XUDNAN_clean_linker_2, # of connection points: 2
#     Edge 75, Type (0, 0), BuildingBlock: XUDNAN_clean_linker_2, # of connection points: 2
#     Edge 76, Type (0, 0), BuildingBlock: XUDNAN_clean_linker_2, # of connection points: 2
#     Edge 77, Type (0, 0), BuildingBlock: XUDNAN_clean_linker_2, # of connection points: 2
#     Edge 78, Type (0, 0), BuildingBlock: XUDNAN_clean_linker_2, # of connection points: 2
#     Edge 79, Type (0, 0), BuildingBlock: XUDNAN_clean_linker_2, # of connection points: 2
#     Edge 80, Type (0, 0), BuildingBlock: XUDNAN_clean_linker_2, # of connection points: 2
#     Edge 81, Type (0, 0), BuildingBlock: XUDNAN_clean_linker_2, # of connection points: 2
#     Edge 82, Type (0, 0), BuildingBlock: XUDNAN_clean_linker_2, # of connection points: 2
#     Edge 83, Type (0, 0), BuildingBlock: XUDNAN_clean_linker_2, # of connection points: 2
#     Edge 84, Type (0, 0), BuildingBlock: XUDNAN_clean_linker_2, # of connection points: 2
#     Edge 85, Type (0, 0), BuildingBlock: XUDNAN_clean_linker_2, # of connection points: 2
#     Edge 86, Type (0, 0), BuildingBlock: XUDNAN_clean_linker_2, # of connection points: 2
#     Edge 87, Type (0, 0), BuildingBlock: XUDNAN_clean_linker_2, # of connection points: 2
#     Edge 88, Type (0, 0), BuildingBlock: XUDNAN_clean_linker_2, # of connection points: 2
#     Edge 89, Type (0, 0), BuildingBlock: XUDNAN_clean_linker_2, # of connection points: 2
#     Edge 90, Type (0, 0), BuildingBlock: XUDNAN_clean_linker_2, # of connection points: 2
#     Edge 91, Type (0, 0), BuildingBlock: XUDNAN_clean_linker_2, # of connection points: 2
#     Edge 92, Type (0, 0), BuildingBlock: XUDNAN_clean_linker_2, # of connection points: 2
#     Edge 93, Type (0, 0), BuildingBlock: XUDNAN_clean_linker_2, # of connection points: 2
#     Edge 94, Type (0, 0), BuildingBlock: XUDNAN_clean_linker_2, # of connection points: 2
#     Edge 95, Type (0, 0), BuildingBlock: XUDNAN_clean_linker_2, # of connection points: 2
# Relax obj value: 0.272
# Max RMSD: 0.244
# Mean RMSD: 0.244
data_MOF--net-uow--node1-AZAVOO_clean_sbu_0--edge1-XUDNAN_clean_linker_2
_symmetry_space_group_name_H-M    P1
_symmetry_Int_Tables_number       1
_symmetry_cell_setting            triclinic
loop_
_symmetry_equiv_pos_as_xyz
'x, y, z'
_cell_length_a     59.666442
_cell_length_b     59.601886
_cell_length_c     40.6257
_cell_angle_alpha  89.954983
_cell_angle_beta   90.004928
_cell_angle_gamma 90.022306
loop_
_atom_site_label
_atom_site_type_symbol
_atom_site_fract_x
_atom_site_fract_y
_atom_site_fract_z
_atom_type_partial_charge
Mg0 Mg 0.98039 0.37778 0.20882 0.0
O1 O 0.01031 0.37103 0.24315 0.0
O2 O 0.04139 0.38664 0.22284 0.0
Mg3 Mg 0.03149 0.40307 0.17409 0.0
C4 C 0.03123 0.37538 0.24501 0.0
C5 C 0.96195 0.34486 0.25807 0.0
O6 O 0.97851 0.33465 0.24299 0.0
O7 O 0.97909 0.4142 0.22643 0.0
O8 O 0.01007 0.42824 0.20307 0.0
O9 O 0.98756 0.34676 0.18025 0.0
O10 O 0.00301 0.37963 0.16931 0.0
C11 C 0.99239 0.43052 0.22049 0.0
C12 C 0.0021 0.35832 0.16394 0.0
O13 O 0.9573 0.36497 0.24994 0.0
Mg14 Mg 0.88289 0.71952 0.49205 0.0
O15 O 0.8923 0.75029 0.52288 0.0
O16 O 0.88347 0.78156 0.49557 0.0
Mg17 Mg 0.8692 0.77071 0.44572 0.0
C18 C 0.89141 0.77162 0.52086 0.0
C19 C 0.90656 0.70026 0.55237 0.0
O20 O 0.92185 0.71303 0.53854 0.0
O21 O 0.84566 0.7251 0.50218 0.0
O22 O 0.8384 0.75543 0.47144 0.0
O23 O 0.91658 0.71982 0.46829 0.0
O24 O 0.88721 0.73854 0.44945 0.0
C25 C 0.83204 0.73969 0.4907 0.0
C26 C 0.90825 0.73403 0.44754 0.0
O27 O 0.88754 0.69835 0.53847 0.0
Mg28 Mg 0.52944 0.64987 0.73156 0.0
O29 O 0.49917 0.65845 0.76424 0.0
O30 O 0.4678 0.65004 0.73705 0.0
Mg31 Mg 0.47798 0.63718 0.68597 0.0
C32 C 0.47784 0.65741 0.76262 0.0
C33 C 0.55081 0.67188 0.79173 0.0
O34 O 0.53847 0.688 0.77915 0.0
O35 O 0.52412 0.6122 0.73936 0.0
O36 O 0.49375 0.60536 0.70865 0.0
O37 O 0.52914 0.68426 0.70953 0.0
O38 O 0.51006 0.65543 0.68974 0.0
C39 C 0.50976 0.59864 0.72711 0.0
C40 C 0.51486 0.67648 0.68847 0.0
O41 O 0.55146 0.65301 0.77715 0.0
Mg42 Mg 0.6261 0.25236 0.01285 0.0
O43 O 0.6169 0.22405 0.04846 0.0
O44 O 0.6148 0.19123 0.02224 0.0
Mg45 Mg 0.62537 0.19867 0.96902 0.0
C46 C 0.61318 0.20297 0.04837 0.0
C47 C 0.61473 0.29111 0.05835 0.0
O48 O 0.60269 0.29499 0.03189 0.0
O49 O 0.6628 0.24142 0.01457 0.0
O50 O 0.66064 0.20909 0.98678 0.0
O51 O 0.59035 0.25651 0.9987 0.0
O52 O 0.61353 0.23368 0.97287 0.0
C53 C 0.67197 0.22398 0.00221 0.0
C54 C 0.59355 0.24161 0.97611 0.0
O55 O 0.629 0.27527 0.05769 0.0
Mg56 Mg 0.97629 0.64367 0.26822 0.0
O57 O 0.0083 0.64786 0.23746 0.0
O58 O 0.03793 0.63684 0.26694 0.0
Mg59 Mg 0.0246 0.62517 0.31684 0.0
C60 C 0.02937 0.64473 0.24057 0.0
C61 C 0.9574 0.63977 0.19494 0.0
O62 O 0.97127 0.62273 0.19268 0.0
O63 O 0.97694 0.60589 0.26084 0.0
O64 O 0.00632 0.59564 0.29158 0.0
O65 O 0.98049 0.67782 0.28743 0.0
O66 O 0.99551 0.64785 0.311 0.0
C67 C 0.98991 0.59087 0.27259 0.0
C68 C 0.99349 0.66942 0.30976 0.0
O69 O 0.95544 0.65008 0.22215 0.0
Mg70 Mg 0.61526 0.74288 0.50967 0.0
O71 O 0.61197 0.76573 0.46437 0.0
O72 O 0.6238 0.80033 0.47697 0.0
Mg73 Mg 0.63666 0.79891 0.53008 0.0
C74 C 0.61545 0.78622 0.45681 0.0
C75 C 0.59177 0.69974 0.48622 0.0
O76 O 0.58233 0.70317 0.515 0.0
O77 O 0.65291 0.73994 0.50122 0.0
O78 O 0.6647 0.77426 0.51532 0.0
O79 O 0.58175 0.75375 0.52839 0.0
O80 O 0.61364 0.77087 0.54024 0.0
C81 C 0.66859 0.75421 0.50569 0.0
C82 C 0.59213 0.77021 0.54248 0.0
O83 O 0.60738 0.71282 0.47699 0.0
Mg84 Mg 0.51614 0.38125 0.7378 0.0
O85 O 0.49476 0.37485 0.6918 0.0
O86 O 0.45936 0.38509 0.70122 0.0
Mg87 Mg 0.45857 0.39956 0.75355 0.0
C88 C 0.47443 0.37686 0.6825 0.0
C89 C 0.5595 0.35785 0.71814 0.0
O90 O 0.55617 0.35085 0.74843 0.0
O91 O 0.51717 0.41889 0.72718 0.0
O92 O 0.482 0.42894 0.73934 0.0
O93 O 0.50722 0.34772 0.75756 0.0
O94 O 0.48754 0.37844 0.76744 0.0
C95 C 0.502 0.43387 0.73056 0.0
C96 C 0.48978 0.35701 0.77058 0.0
O97 O 0.54687 0.37321 0.7068 0.0
Mg98 Mg 0.88211 0.25824 0.02796 0.0
O99 O 0.89543 0.22969 0.99545 0.0
O100 O 0.8926 0.19707 0.02232 0.0
Mg101 Mg 0.87752 0.20482 0.07275 0.0
C102 C 0.89804 0.20846 0.99692 0.0
C103 C 0.90186 0.28262 0.96828 0.0
O104 O 0.91867 0.27061 0.97947 0.0
O105 O 0.84588 0.24682 0.01788 0.0
O106 O 0.84503 0.21473 0.04653 0.0
O107 O 0.91595 0.26297 0.05024 0.0
O108 O 0.89064 0.23935 0.06965 0.0
C109 C 0.83561 0.22933 0.02815 0.0
C110 C 0.91076 0.24723 0.07078 0.0
O111 O 0.88305 0.28148 0.98304 0.0
Mg112 Mg 0.02022 0.64213 0.79142 0.0
O113 O 0.98923 0.64665 0.75946 0.0
O114 O 0.95818 0.64012 0.78853 0.0
Mg115 Mg 0.96993 0.63317 0.84157 0.0
C116 C 0.96798 0.64528 0.76162 0.0
C117 C 0.03875 0.65928 0.7266 0.0
O118 O 0.02537 0.67527 0.73696 0.0
O119 O 0.01532 0.60414 0.79103 0.0
O120 O 0.98684 0.59999 0.82647 0.0
O121 O 0.01923 0.67819 0.80414 0.0
O122 O 0.0012 0.65217 0.83245 0.0
C123 C 0.00215 0.59185 0.80805 0.0
C124 C 0.005 0.67318 0.82698 0.0
O125 O 0.04106 0.64174 0.7442 0.0
Mg126 Mg 0.11126 0.28179 0.50558 0.0
O127 O 0.11208 0.25153 0.47054 0.0
O128 O 0.12008 0.22009 0.49833 0.0
Mg129 Mg 0.12719 0.231 0.55128 0.0
C130 C 0.11518 0.23036 0.47173 0.0
C131 C 0.09042 0.30175 0.44331 0.0
O132 O 0.07614 0.28608 0.45214 0.0
O133 O 0.1496 0.28259 0.5042 0.0
O134 O 0.15746 0.25121 0.53216 0.0
O135 O 0.07567 0.27422 0.51908 0.0
O136 O 0.105 0.26011 0.54507 0.0
C137 C 0.16367 0.26867 0.51626 0.0
C138 C 0.08363 0.26067 0.54097 0.0
O139 O 0.10794 0.30475 0.46066 0.0
Mg140 Mg 0.47894 0.35418 0.26762 0.0
O141 O 0.51275 0.346 0.24362 0.0
O142 O 0.54044 0.35428 0.27864 0.0
Mg143 Mg 0.52399 0.3686 0.32496 0.0
C144 C 0.53356 0.34695 0.2509 0.0
C145 C 0.46359 0.33256 0.20147 0.0
O146 O 0.47568 0.31617 0.21382 0.0
O147 O 0.48535 0.39118 0.25914 0.0
O148 O 0.51225 0.3998 0.29527 0.0
O149 O 0.47691 0.32018 0.28951 0.0
O150 O 0.49323 0.34903 0.31402 0.0
C151 C 0.49851 0.40537 0.27251 0.0
C152 C 0.48844 0.32788 0.31402 0.0
O153 O 0.46169 0.35073 0.21763 0.0
Mg154 Mg 0.37992 0.71398 0.0012 0.0
O155 O 0.38881 0.74121 0.96358 0.0
O156 O 0.39884 0.77242 0.99022 0.0
Mg157 Mg 0.3944 0.76569 0.04547 0.0
C158 C 0.39569 0.7615 0.96358 0.0
C159 C 0.36397 0.68371 0.93268 0.0
O160 O 0.34619 0.6727 0.92247 0.0
O161 O 0.34621 0.73107 0.01077 0.0
O162 O 0.3564 0.76202 0.03798 0.0
O163 O 0.41681 0.7049 0.00596 0.0
O164 O 0.39922 0.72966 0.03686 0.0
C165 C 0.34133 0.74934 0.02555 0.0
C166 C 0.41752 0.71981 0.02907 0.0
O167 O 0.363 0.69273 0.96107 0.0
Mg168 Mg 0.00597 0.38008 0.74381 0.0
O169 O 0.97782 0.36895 0.77871 0.0
O170 O 0.94631 0.38609 0.76297 0.0
Mg171 Mg 0.95382 0.40667 0.71651 0.0
C172 C 0.95694 0.37297 0.78233 0.0
C173 C 0.03302 0.36678 0.80957 0.0
O174 O 0.01882 0.37992 0.82502 0.0
O175 O 0.00706 0.41477 0.76813 0.0
O176 O 0.97672 0.43053 0.74523 0.0
O177 O 0.99838 0.35149 0.7104 0.0
O178 O 0.98259 0.38484 0.70604 0.0
C179 C 0.99441 0.43169 0.76285 0.0
C180 C 0.98381 0.36434 0.69621 0.0
O181 O 0.03191 0.36492 0.77845 0.0
Mg182 Mg 0.37888 0.26231 0.4673 0.0
O183 O 0.38295 0.24148 0.51404 0.0
O184 O 0.36852 0.20715 0.5083 0.0
Mg185 Mg 0.3525 0.20702 0.45706 0.0
C186 C 0.37865 0.22199 0.52529 0.0
C187 C 0.41131 0.29983 0.49045 0.0
O188 O 0.42194 0.29168 0.4648 0.0
O189 O 0.34214 0.26881 0.48139 0.0
O190 O 0.328 0.23444 0.47365 0.0
O191 O 0.40982 0.24704 0.44478 0.0
O192 O 0.37592 0.23294 0.43895 0.0
C193 C 0.32566 0.25507 0.48153 0.0
C194 C 0.39706 0.23139 0.43317 0.0
O195 O 0.39187 0.29232 0.49714 0.0
Mg196 Mg 0.48502 0.61837 0.24671 0.0
O197 O 0.50967 0.62272 0.28918 0.0
O198 O 0.54483 0.61991 0.27097 0.0
Mg199 Mg 0.54184 0.61098 0.21625 0.0
C200 C 0.53076 0.62323 0.2941 0.0
C201 C 0.43932 0.62703 0.2775 0.0
O202 O 0.43659 0.63421 0.24717 0.0
O203 O 0.48997 0.58106 0.24727 0.0
O204 O 0.52489 0.57648 0.22839 0.0
O205 O 0.48696 0.65425 0.23655 0.0
O206 O 0.50935 0.62939 0.21281 0.0
C207 C 0.50633 0.56853 0.23909 0.0
C208 C 0.50378 0.65016 0.21736 0.0
O209 O 0.45739 0.61697 0.28483 0.0
Mg210 Mg 0.12907 0.75223 0.01104 0.0
O211 O 0.12127 0.77766 0.05194 0.0
O212 O 0.12645 0.81292 0.03461 0.0
Mg213 Mg 0.14073 0.80974 0.9825 0.0
C214 C 0.1208 0.79882 0.05675 0.0
C215 C 0.1047 0.72365 0.06089 0.0
O216 O 0.09006 0.73848 0.05046 0.0
O217 O 0.16643 0.75669 0.02205 0.0
O218 O 0.17157 0.7919 0.00414 0.0
O219 O 0.09478 0.75573 0.98916 0.0
O220 O 0.12346 0.77742 0.97607 0.0
C221 C 0.17894 0.77378 0.01707 0.0
C222 C 0.10242 0.77295 0.97348 0.0
O223 O 0.12447 0.72418 0.04911 0.0
Mg224 Mg 0.48426 0.87908 0.74466 0.0
O225 O 0.513 0.8713 0.78043 0.0
O226 O 0.54453 0.88682 0.76165 0.0
Mg227 Mg 0.53608 0.90398 0.71276 0.0
C228 C 0.53391 0.87537 0.78314 0.0
C229 C 0.44692 0.85049 0.77438 0.0
O230 O 0.44658 0.84507 0.74304 0.0
O231 O 0.48231 0.91575 0.76196 0.0
O232 O 0.51371 0.92943 0.73937 0.0
O233 O 0.49256 0.84837 0.71571 0.0
O234 O 0.50686 0.88183 0.70556 0.0
C235 C 0.49561 0.93207 0.75573 0.0
C236 C 0.50609 0.86076 0.6987 0.0
O237 O 0.46004 0.86604 0.78373 0.0
Mg238 Mg 0.38728 0.23178 0.95832 0.0
O239 O 0.39514 0.26049 0.99402 0.0
O240 O 0.37973 0.29228 0.97609 0.0
Mg241 Mg 0.36144 0.28384 0.92819 0.0
C242 C 0.39133 0.28143 0.99712 0.0
C243 C 0.42103 0.21008 0.00543 0.0
O244 O 0.43297 0.2252 0.98972 0.0
O245 O 0.35103 0.22943 0.9771 0.0
O246 O 0.33707 0.26122 0.95613 0.0
O247 O 0.4173 0.241 0.92766 0.0
O248 O 0.38344 0.25469 0.91962 0.0
C249 C 0.33472 0.24295 0.97222 0.0
C250 C 0.4043 0.25458 0.91176 0.0
O251 O 0.40047 0.20772 0.99785 0.0
Mg252 Mg 0.02362 0.12818 0.25299 0.0
O253 O 0.99893 0.14049 0.29206 0.0
O254 O 0.96392 0.14049 0.27272 0.0
Mg255 Mg 0.96616 0.12515 0.22126 0.0
C256 C 0.97803 0.14424 0.29567 0.0
C257 C 0.06802 0.14087 0.28387 0.0
O258 O 0.07034 0.14633 0.25271 0.0
O259 O 0.01342 0.09209 0.26512 0.0
O260 O 0.97833 0.09248 0.2455 0.0
O261 O 0.02549 0.16248 0.23155 0.0
O262 O 0.00092 0.13697 0.21569 0.0
C263 C 0.9946 0.08249 0.25981 0.0
C264 C 0.00828 0.15726 0.21378 0.0
O265 O 0.05072 0.12984 0.29237 0.0
Mg266 Mg 0.12502 0.76287 0.49618 0.0
O267 O 0.11259 0.73263 0.52589 0.0
O268 O 0.11572 0.70092 0.49699 0.0
Mg269 Mg 0.13078 0.71118 0.44745 0.0
C270 C 0.11016 0.71146 0.52307 0.0
C271 C 0.10385 0.78324 0.55718 0.0
O272 O 0.08801 0.77095 0.5438 0.0
O273 O 0.16143 0.75242 0.50498 0.0
O274 O 0.16313 0.72136 0.4741 0.0
O275 O 0.09121 0.76751 0.47504 0.0
O276 O 0.11679 0.74532 0.45292 0.0
C277 C 0.17219 0.7357 0.49331 0.0
C278 C 0.09645 0.75268 0.45316 0.0
O279 O 0.12299 0.78395 0.5433 0.0
Mg280 Mg 0.47008 0.14754 0.77735 0.0
O281 O 0.49778 0.15557 0.7398 0.0
O282 O 0.53064 0.14542 0.76134 0.0
Mg283 Mg 0.52414 0.13161 0.81309 0.0
C284 C 0.51904 0.1537 0.73787 0.0
C285 C 0.43148 0.16997 0.74053 0.0
O286 O 0.43165 0.18037 0.76902 0.0
O287 O 0.47254 0.1098 0.76702 0.0
O288 O 0.505 0.10149 0.79173 0.0
O289 O 0.47429 0.18137 0.79997 0.0
O290 O 0.49292 0.15133 0.81623 0.0
C291 C 0.48738 0.0956 0.77608 0.0
C292 C 0.48942 0.17259 0.81878 0.0
O293 O 0.44465 0.15347 0.73632 0.0
Mg294 Mg 0.11956 0.22706 0.00826 0.0
O295 O 0.11451 0.25577 0.97152 0.0
O296 O 0.12493 0.28837 0.99395 0.0
Mg297 Mg 0.14083 0.27965 0.04353 0.0
C298 C 0.11657 0.27706 0.97032 0.0
C299 C 0.09185 0.20395 0.95325 0.0
O300 O 0.07719 0.21823 0.96522 0.0
O301 O 0.15717 0.22579 0.99677 0.0
O302 O 0.16803 0.25829 0.01913 0.0
O303 O 0.08655 0.236 0.03159 0.0
O304 O 0.11913 0.24986 0.04729 0.0
C305 C 0.1724 0.24007 0.0039 0.0
C306 C 0.09766 0.24993 0.04979 0.0
O307 O 0.11119 0.20283 0.96634 0.0
Mg308 Mg 0.01594 0.87326 0.29155 0.0
O309 O 0.98986 0.86809 0.25114 0.0
O310 O 0.95538 0.86619 0.27255 0.0
Mg311 Mg 0.95949 0.87406 0.32738 0.0
C312 C 0.96875 0.86544 0.24806 0.0
C313 C 0.0599 0.86415 0.25868 0.0
O314 O 0.06166 0.85607 0.28868 0.0
O315 O 0.00749 0.91068 0.2914 0.0
O316 O 0.97322 0.90895 0.3136 0.0
O317 O 0.01621 0.8366 0.3013 0.0
O318 O 0.99354 0.86026 0.32656 0.0
C319 C 0.98955 0.92018 0.3015 0.0
C320 C 0.99961 0.83985 0.32115 0.0
O321 O 0.0427 0.87579 0.25166 0.0
Mg322 Mg 0.38278 0.76313 0.49527 0.0
O323 O 0.38796 0.73121 0.46554 0.0
O324 O 0.39002 0.70053 0.49696 0.0
Mg325 Mg 0.38215 0.71326 0.5489 0.0
C326 C 0.39047 0.71012 0.46891 0.0
C327 C 0.39676 0.79435 0.4386 0.0
O328 O 0.41162 0.79871 0.46158 0.0
O329 O 0.34525 0.7543 0.49772 0.0
O330 O 0.34755 0.72396 0.53011 0.0
O331 O 0.41946 0.7652 0.50681 0.0
O332 O 0.39517 0.74702 0.53775 0.0
C333 C 0.33613 0.73787 0.51302 0.0
C334 C 0.41563 0.75265 0.53211 0.0
O335 O 0.38035 0.78154 0.44562 0.0
Mg336 Mg 0.50169 0.10071 0.25377 0.0
O337 O 0.48356 0.11779 0.21127 0.0
O338 O 0.44654 0.11407 0.21477 0.0
Mg339 Mg 0.44105 0.09278 0.26126 0.0
C340 C 0.46395 0.12148 0.20015 0.0
C341 C 0.54705 0.12195 0.23418 0.0
O342 O 0.54425 0.13018 0.26388 0.0
O343 O 0.49597 0.066 0.23071 0.0
O344 O 0.45882 0.06282 0.23697 0.0
O345 O 0.49766 0.13176 0.28422 0.0
O346 O 0.4731 0.10407 0.28355 0.0
C347 C 0.4777 0.05499 0.22751 0.0
C348 C 0.4786 0.12375 0.29387 0.0
O349 O 0.53345 0.10712 0.2239 0.0
Mg350 Mg 0.61383 0.77497 0.03927 0.0
O351 O 0.60817 0.74573 0.00397 0.0
O352 O 0.6188 0.71352 0.02726 0.0
Mg353 Mg 0.63125 0.72245 0.07891 0.0
C354 C 0.61079 0.72451 0.00298 0.0
C355 C 0.59067 0.79696 0.97939 0.0
O356 O 0.57597 0.7817 0.98829 0.0
O357 O 0.65134 0.77319 0.0305 0.0
O358 O 0.66133 0.74144 0.05609 0.0
O359 O 0.5799 0.77058 0.06027 0.0
O360 O 0.61 0.75293 0.07893 0.0
C361 C 0.66618 0.75906 0.03957 0.0
C362 C 0.5886 0.75593 0.08003 0.0
O363 O 0.60864 0.79902 0.99601 0.0
Mg364 Mg 0.98317 0.8682 0.7721 0.0
O365 O 0.01457 0.85987 0.74191 0.0
O366 O 0.04453 0.87554 0.76537 0.0
Mg367 Mg 0.03214 0.89415 0.81113 0.0
C368 C 0.03561 0.86368 0.74276 0.0
C369 C 0.96373 0.83707 0.71615 0.0
O370 O 0.97803 0.82276 0.72897 0.0
O371 O 0.98279 0.90444 0.75325 0.0
O372 O 0.01261 0.91899 0.779 0.0
O373 O 0.98967 0.83801 0.80404 0.0
O374 O 0.00249 0.87207 0.81407 0.0
C375 C 0.99573 0.92093 0.75988 0.0
C376 C 0.00175 0.85124 0.82209 0.0
O377 O 0.96179 0.85648 0.72885 0.0
Mg378 Mg 0.87276 0.2472 0.50835 0.0
O379 O 0.8836 0.2678 0.46413 0.0
O380 O 0.87161 0.30311 0.46717 0.0
Mg381 Mg 0.852 0.30473 0.5158 0.0
C382 C 0.88216 0.28752 0.45227 0.0
C383 C 0.90154 0.20647 0.48858 0.0
O384 O 0.9103 0.21163 0.51726 0.0
O385 O 0.83732 0.24536 0.48842 0.0
O386 O 0.82508 0.28045 0.4957 0.0
O387 O 0.90339 0.25745 0.535 0.0
O388 O 0.87153 0.27641 0.53696 0.0
C389 C 0.82187 0.26012 0.48681 0.0
C390 C 0.8924 0.27487 0.54498 0.0
O391 O 0.88399 0.21668 0.47916 0.0
Mg392 Mg 0.51704 0.84683 0.20138 0.0
O393 O 0.48579 0.83655 0.23084 0.0
O394 O 0.45623 0.83536 0.19722 0.0
Mg395 Mg 0.46849 0.84653 0.14621 0.0
C396 C 0.46497 0.833 0.2257 0.0
C397 C 0.55629 0.83964 0.24576 0.0
O398 O 0.56254 0.83371 0.21599 0.0
O399 O 0.50551 0.88379 0.20272 0.0
O400 O 0.47681 0.88129 0.16748 0.0
O401 O 0.52246 0.81107 0.1863 0.0
O402 O 0.50268 0.83544 0.15735 0.0
C403 C 0.48942 0.8928 0.18654 0.0
C404 C 0.51006 0.81534 0.161 0.0
O405 O 0.53707 0.84853 0.2493 0.0
Mg406 Mg 0.87974 0.78161 0.99936 0.0
O407 O 0.8885 0.74807 0.0249 0.0
O408 O 0.87839 0.72039 0.99081 0.0
Mg409 Mg 0.86289 0.73577 0.94474 0.0
C410 C 0.88698 0.72721 0.01779 0.0
C411 C 0.89742 0.81847 0.04218 0.0
O412 O 0.90189 0.82452 0.01177 0.0
O413 O 0.84288 0.77673 0.01026 0.0
O414 O 0.833 0.74948 0.97526 0.0
O415 O 0.91302 0.78244 0.97587 0.0
O416 O 0.88328 0.76594 0.95382 0.0
C417 C 0.82818 0.76382 0.99758 0.0
C418 C 0.90449 0.77015 0.95284 0.0
O419 O 0.88615 0.80066 0.04687 0.0
Mg420 Mg 0.97613 0.13541 0.72154 0.0
O421 O 0.00714 0.14044 0.75344 0.0
O422 O 0.03802 0.12963 0.72708 0.0
Mg423 Mg 0.02604 0.11703 0.67661 0.0
C424 C 0.0283 0.13773 0.75239 0.0
C425 C 0.95852 0.15911 0.78415 0.0
O426 O 0.97223 0.17442 0.77246 0.0
O427 O 0.97715 0.0975 0.73013 0.0
O428 O 0.00764 0.08764 0.70144 0.0
O429 O 0.98155 0.1694 0.69915 0.0
O430 O 0.99539 0.13784 0.67913 0.0
C431 C 0.9908 0.08266 0.71947 0.0
C432 C 0.99388 0.15933 0.67747 0.0
O433 O 0.95553 0.1411 0.76795 0.0
Mg434 Mg 0.61152 0.21971 0.4905 0.0
O435 O 0.61018 0.24653 0.53136 0.0
O436 O 0.61139 0.28006 0.5064 0.0
Mg437 Mg 0.61457 0.27495 0.45092 0.0
C438 C 0.61008 0.268 0.53235 0.0
C439 C 0.62076 0.17967 0.55213 0.0
O440 O 0.63672 0.16472 0.55619 0.0
O441 O 0.64844 0.22655 0.4828 0.0
O442 O 0.64992 0.25999 0.45804 0.0
O443 O 0.57398 0.22041 0.48488 0.0
O444 O 0.59741 0.24251 0.45807 0.0
C445 C 0.65948 0.24257 0.46982 0.0
C446 C 0.57707 0.23695 0.46466 0.0
O447 O 0.6217 0.19209 0.5267 0.0
H448 H 0.99634 0.32375 0.12071 0.0
H449 H 0.04703 0.3657 0.16605 0.0
H450 H 0.07666 0.34239 0.1415 0.0
H451 H 0.02285 0.27208 0.13016 0.0
H452 H 0.01533 0.26079 0.0905 0.0
H453 H 0.99785 0.28168 0.10956 0.0
H454 H 0.00118 0.3071 0.05833 0.0
H455 H 0.01843 0.28622 0.03869 0.0
H456 H 0.02855 0.31457 0.04303 0.0
H457 H 0.1002 0.31192 0.11919 0.0
H458 H 0.11749 0.27989 0.09122 0.0
H459 H 0.05234 0.25932 0.05422 0.0
C460 C 0.01371 0.32823 0.12477 0.0
C461 C 0.0195 0.34661 0.145 0.0
C462 C 0.04229 0.352 0.15013 0.0
C463 C 0.05922 0.33871 0.13653 0.0
C464 C 0.05302 0.32042 0.1173 0.0
C465 C 0.03087 0.31549 0.11054 0.0
C466 C 0.02895 0.29492 0.08872 0.0
C467 C 0.01546 0.27625 0.10578 0.0
C468 C 0.01867 0.30108 0.0552 0.0
C469 C 0.05345 0.28863 0.08534 0.0
C470 C 0.06693 0.30352 0.10231 0.0
C471 C 0.08995 0.30056 0.10486 0.0
C472 C 0.09963 0.28232 0.08866 0.0
C473 C 0.08643 0.26755 0.06938 0.0
C474 C 0.06294 0.27055 0.06822 0.0
H475 H 0.9665 0.84107 0.36795 0.0
H476 H 0.0041 0.79547 0.30561 0.0
H477 H 0.98332 0.76349 0.32913 0.0
H478 H 0.96523 0.80706 0.43923 0.0
H479 H 0.93701 0.81449 0.45069 0.0
H480 H 0.95391 0.83397 0.42762 0.0
H481 H 0.9233 0.83603 0.38244 0.0
H482 H 0.90625 0.8166 0.40545 0.0
H483 H 0.91357 0.81052 0.36335 0.0
H484 H 0.96143 0.73614 0.36401 0.0
H485 H 0.93712 0.71582 0.40344 0.0
H486 H 0.91226 0.77926 0.44044 0.0
C487 C 0.97033 0.82437 0.35916 0.0
C488 C 0.98698 0.82075 0.33504 0.0
C489 C 0.99155 0.79862 0.32431 0.0
C490 C 0.97992 0.78032 0.33765 0.0
C491 C 0.96394 0.78442 0.36189 0.0
C492 C 0.95894 0.80591 0.37228 0.0
C493 C 0.941 0.80577 0.39863 0.0
C494 C 0.94982 0.81592 0.43095 0.0
C495 C 0.91977 0.81795 0.38674 0.0
C496 C 0.93704 0.7808 0.40194 0.0
C497 C 0.95051 0.76876 0.38064 0.0
C498 C 0.95076 0.74537 0.38062 0.0
C499 C 0.93696 0.734 0.40302 0.0
C500 C 0.92275 0.74608 0.4244 0.0
C501 C 0.92269 0.76972 0.42375 0.0
H502 H 0.47046 0.67803 0.67343 0.0
H503 H 0.53452 0.70837 0.65009 0.0
H504 H 0.51637 0.73132 0.60669 0.0
H505 H 0.44845 0.67505 0.59249 0.0
H506 H 0.42029 0.68239 0.60437 0.0
H507 H 0.43846 0.66844 0.63325 0.0
H508 H 0.43243 0.70054 0.67536 0.0
H509 H 0.41409 0.7145 0.64671 0.0
H510 H 0.43803 0.72911 0.66325 0.0
H511 H 0.4911 0.74861 0.56279 0.0
H512 H 0.4604 0.76278 0.5276 0.0
H513 H 0.41277 0.72328 0.58393 0.0
C514 C 0.48062 0.6895 0.65912 0.0
C515 C 0.50385 0.69131 0.66454 0.0
C516 C 0.51664 0.70684 0.64607 0.0
C517 C 0.50649 0.71986 0.62139 0.0
C518 C 0.48349 0.71746 0.61626 0.0
C519 C 0.47067 0.70299 0.63511 0.0
C520 C 0.44621 0.70403 0.62561 0.0
C521 C 0.43787 0.68112 0.61319 0.0
C522 C 0.43185 0.71256 0.65445 0.0
C523 C 0.44727 0.72103 0.59803 0.0
C524 C 0.46891 0.72842 0.59268 0.0
C525 C 0.47403 0.74334 0.56732 0.0
C526 C 0.4565 0.75117 0.54731 0.0
C527 C 0.43414 0.7441 0.55287 0.0
C528 C 0.42961 0.72893 0.57873 0.0
H529 H 0.53119 0.1645 0.84458 0.0
H530 H 0.47637 0.21225 0.84608 0.0
H531 H 0.49671 0.23486 0.88751 0.0
H532 H 0.54471 0.16647 0.9301 0.0
H533 H 0.57454 0.16468 0.92363 0.0
H534 H 0.55558 0.15222 0.89438 0.0
H535 H 0.57366 0.17541 0.84736 0.0
H536 H 0.59278 0.18782 0.87642 0.0
H537 H 0.57536 0.2055 0.85108 0.0
H538 H 0.52244 0.25125 0.93041 0.0
H539 H 0.55308 0.26217 0.968 0.0
H540 H 0.59183 0.20464 0.93565 0.0
C541 C 0.52341 0.17965 0.85357 0.0
C542 C 0.50214 0.18655 0.84226 0.0
C543 C 0.49272 0.20673 0.85436 0.0
C544 C 0.50408 0.2196 0.87797 0.0
C545 C 0.52497 0.2122 0.88879 0.0
C546 C 0.53467 0.19285 0.87667 0.0
C547 C 0.55757 0.18889 0.89162 0.0
C548 C 0.55812 0.16675 0.91109 0.0
C549 C 0.57592 0.18945 0.86503 0.0
C550 C 0.55918 0.20895 0.91427 0.0
C551 C 0.54011 0.22206 0.91254 0.0
C552 C 0.53751 0.24119 0.93182 0.0
C553 C 0.55497 0.24719 0.95318 0.0
C554 C 0.57488 0.23427 0.95478 0.0
C555 C 0.5769 0.2149 0.93503 0.0
H556 H 0.03347 0.66144 0.34217 0.0
H557 H 0.98207 0.7118 0.32635 0.0
H558 H 0.00283 0.73808 0.36213 0.0
H559 H 0.04603 0.67545 0.42717 0.0
H560 H 0.07576 0.67109 0.42269 0.0
H561 H 0.0564 0.65554 0.39745 0.0
H562 H 0.07651 0.66998 0.345 0.0
H563 H 0.09587 0.68565 0.37008 0.0
H564 H 0.07974 0.69975 0.33876 0.0
H565 H 0.02827 0.75901 0.39853 0.0
H566 H 0.0585 0.77384 0.43374 0.0
H567 H 0.09466 0.71105 0.42346 0.0
C568 C 0.02647 0.6779 0.34646 0.0
C569 C 0.00603 0.68452 0.33182 0.0
C570 C 0.99765 0.70639 0.33748 0.0
C571 C 0.00926 0.72144 0.3576 0.0
C572 C 0.02941 0.71455 0.37135 0.0
C573 C 0.03809 0.69339 0.36599 0.0
C574 C 0.06058 0.6907 0.3829 0.0
C575 C 0.05962 0.67209 0.40911 0.0
C576 C 0.07928 0.68626 0.35767 0.0
C577 C 0.06304 0.71367 0.39851 0.0
C578 C 0.04474 0.72705 0.39171 0.0
C579 C 0.04278 0.74876 0.40397 0.0
C580 C 0.06 0.75702 0.42393 0.0
C581 C 0.07904 0.7437 0.43107 0.0
C582 C 0.08058 0.72179 0.41802 0.0
H583 H 0.55591 0.76465 0.58265 0.0
H584 H 0.60094 0.81508 0.54325 0.0
H585 H 0.58295 0.84389 0.57783 0.0
H586 H 0.50627 0.80136 0.59079 0.0
H587 H 0.49769 0.78813 0.6287 0.0
H588 H 0.51293 0.77234 0.59827 0.0
H589 H 0.54239 0.76201 0.64264 0.0
H590 H 0.52755 0.7784 0.67276 0.0
H591 H 0.55667 0.78415 0.66443 0.0
H592 H 0.56118 0.86682 0.61767 0.0
H593 H 0.53719 0.88266 0.66103 0.0
H594 H 0.50723 0.81712 0.67701 0.0
C595 C 0.56164 0.78186 0.58092 0.0
C596 C 0.57985 0.78772 0.56047 0.0
C597 C 0.58725 0.81024 0.55916 0.0
C598 C 0.57702 0.82673 0.57852 0.0
C599 C 0.55951 0.82034 0.59914 0.0
C600 C 0.55181 0.79848 0.60049 0.0
C601 C 0.53354 0.79591 0.62614 0.0
C602 C 0.51127 0.78905 0.61002 0.0
C603 C 0.54047 0.77913 0.65308 0.0
C604 C 0.53247 0.81966 0.63931 0.0
C605 C 0.5474 0.8335 0.62307 0.0
C606 C 0.54945 0.85616 0.63066 0.0
C607 C 0.53583 0.86497 0.65553 0.0
C608 C 0.52056 0.85109 0.67283 0.0
C609 C 0.51888 0.82813 0.66447 0.0
H610 H 0.44785 0.25951 0.89025 0.0
H611 H 0.38054 0.28567 0.87667 0.0
H612 H 0.39504 0.31425 0.83875 0.0
H613 H 0.4772 0.31091 0.88792 0.0
H614 H 0.50048 0.30059 0.86406 0.0
H615 H 0.48495 0.2817 0.89005 0.0
H616 H 0.47686 0.25583 0.84014 0.0
H617 H 0.49284 0.27445 0.81426 0.0
H618 H 0.46435 0.26748 0.80359 0.0
H619 H 0.41687 0.34173 0.80557 0.0
H620 H 0.44459 0.36433 0.775 0.0
H621 H 0.49735 0.3189 0.80592 0.0
C622 C 0.43617 0.27121 0.87923 0.0
C623 C 0.41312 0.27073 0.8873 0.0
C624 C 0.39834 0.28608 0.87184 0.0
C625 C 0.40638 0.30232 0.84996 0.0
C626 C 0.42919 0.30267 0.84309 0.0
C627 C 0.44385 0.2873 0.85673 0.0
C628 C 0.46755 0.2912 0.84459 0.0
C629 C 0.48348 0.29642 0.87337 0.0
C630 C 0.47589 0.27104 0.82443 0.0
C631 C 0.46394 0.31158 0.82286 0.0
C632 C 0.44168 0.3179 0.82242 0.0
C633 C 0.43433 0.33682 0.80538 0.0
C634 C 0.4502 0.34965 0.78826 0.0
C635 C 0.47303 0.34332 0.78806 0.0
C636 C 0.4799 0.32393 0.80535 0.0
H637 H 0.91405 0.20395 0.09322 0.0
H638 H 0.9464 0.26901 0.09812 0.0
H639 H 0.97483 0.25327 0.13616 0.0
H640 H 0.92274 0.18779 0.17741 0.0
H641 H 0.92796 0.15878 0.16754 0.0
H642 H 0.90997 0.17537 0.14155 0.0
H643 H 0.93467 0.16569 0.09102 0.0
H644 H 0.95272 0.14905 0.11683 0.0
H645 H 0.96432 0.17146 0.09236 0.0
H646 H 0.99972 0.23028 0.17349 0.0
H647 H 0.01929 0.20166 0.20686 0.0
H648 H 0.97105 0.15161 0.17504 0.0
C649 C 0.92687 0.21501 0.10252 0.0
C650 C 0.9278 0.23778 0.09314 0.0
C651 C 0.9454 0.25149 0.10509 0.0
C652 C 0.9616 0.24273 0.12662 0.0
C653 C 0.96016 0.22017 0.13538 0.0
C654 C 0.94331 0.20647 0.12353 0.0
C655 C 0.94578 0.18268 0.13599 0.0
C656 C 0.9254 0.17576 0.15686 0.0
C657 C 0.9496 0.16626 0.10734 0.0
C658 C 0.96658 0.18514 0.15692 0.0
C659 C 0.9746 0.20689 0.15638 0.0
C660 C 0.99358 0.21319 0.1741 0.0
C661 C 0.00458 0.19681 0.19296 0.0
C662 C 0.99662 0.17441 0.19379 0.0
C663 C 0.97745 0.16859 0.1753 0.0
H664 H 0.96828 0.66886 0.86778 0.0
H665 H 0.01232 0.71824 0.82301 0.0
H666 H 0.98998 0.74855 0.84784 0.0
H667 H 0.91712 0.70022 0.85532 0.0
H668 H 0.90484 0.69136 0.89374 0.0
H669 H 0.92442 0.67336 0.87271 0.0
H670 H 0.94927 0.67175 0.92501 0.0
H671 H 0.9297 0.6896 0.94624 0.0
H672 H 0.95879 0.69753 0.94351 0.0
H673 H 0.9644 0.77337 0.88024 0.0
H674 H 0.9363 0.79103 0.91673 0.0
H675 H 0.90697 0.72586 0.93635 0.0
C676 C 0.97325 0.68598 0.86309 0.0
C677 C 0.99203 0.69111 0.84332 0.0
C678 C 0.99798 0.71386 0.83806 0.0
C679 C 0.98541 0.73123 0.85206 0.0
C680 C 0.96684 0.72558 0.87108 0.0
C681 C 0.96069 0.70354 0.8765 0.0
C682 C 0.93985 0.70205 0.89768 0.0
C683 C 0.92041 0.6911 0.87872 0.0
C684 C 0.9447 0.6895 0.93003 0.0
C685 C 0.93546 0.72671 0.90373 0.0
C686 C 0.95132 0.73998 0.88828 0.0
C687 C 0.95174 0.7632 0.8921 0.0
C688 C 0.93574 0.77307 0.91271 0.0
C689 C 0.91933 0.75977 0.92852 0.0
C690 C 0.91897 0.73638 0.92363 0.0
H691 H 0.05572 0.26447 0.59419 0.0
H692 H 0.07963 0.21793 0.52027 0.0
H693 H 0.05794 0.18739 0.54611 0.0
H694 H 0.05774 0.22687 0.66176 0.0
H695 H 0.03243 0.23678 0.68111 0.0
H696 H 0.04872 0.25545 0.65577 0.0
H697 H 0.01388 0.26349 0.61976 0.0
H698 H 0.99738 0.24492 0.64502 0.0
H699 H 0.99888 0.2405 0.60119 0.0
H700 H 0.0361 0.16171 0.58131 0.0
H701 H 0.01392 0.1419 0.62325 0.0
H702 H 0.00286 0.20477 0.67476 0.0
C703 C 0.05607 0.24786 0.5834 0.0
C704 C 0.06939 0.24328 0.55552 0.0
C705 C 0.06973 0.22151 0.54191 0.0
C706 C 0.05736 0.20415 0.55629 0.0
C707 C 0.04465 0.20899 0.58413 0.0
C708 C 0.04372 0.2303 0.5975 0.0
C709 C 0.02919 0.23063 0.62817 0.0
C710 C 0.04284 0.23785 0.65849 0.0
C711 C 0.0086 0.24577 0.62322 0.0
C712 C 0.02254 0.20609 0.63022 0.0
C713 C 0.03163 0.19402 0.60444 0.0
C714 C 0.02871 0.17097 0.60148 0.0
C715 C 0.01618 0.15986 0.62556 0.0
C716 C 0.00669 0.17178 0.65228 0.0
C717 C 0.00979 0.19525 0.65447 0.0
H718 H 0.57565 0.28063 0.4442 0.0
H719 H 0.53601 0.21974 0.44865 0.0
H720 H 0.50693 0.23777 0.41406 0.0
H721 H 0.52781 0.32051 0.44411 0.0
H722 H 0.54194 0.33931 0.4162 0.0
H723 H 0.55795 0.32253 0.44468 0.0
H724 H 0.58092 0.30635 0.39603 0.0
H725 H 0.56488 0.32285 0.36742 0.0
H726 H 0.56646 0.29285 0.36247 0.0
H727 H 0.48529 0.26048 0.37241 0.0
H728 H 0.47102 0.28715 0.33077 0.0
H729 H 0.52447 0.33354 0.35538 0.0
C730 C 0.56077 0.27115 0.43829 0.0
C731 C 0.55817 0.24873 0.4488 0.0
C732 C 0.53824 0.23701 0.44098 0.0
C733 C 0.52169 0.24708 0.42128 0.0
C734 C 0.52521 0.26899 0.41027 0.0
C735 C 0.54408 0.28102 0.41903 0.0
C736 C 0.5445 0.30385 0.40269 0.0
C737 C 0.54295 0.32266 0.42846 0.0
C738 C 0.56543 0.30662 0.38086 0.0
C739 C 0.52337 0.30249 0.38225 0.0
C740 C 0.51241 0.2823 0.38707 0.0
C741 C 0.49348 0.2765 0.3689 0.0
C742 C 0.48559 0.2917 0.3452 0.0
C743 C 0.49653 0.31252 0.34002 0.0
C744 C 0.51549 0.318 0.35914 0.0
H745 H 0.47905 0.78298 0.17224 0.0
H746 H 0.5244 0.80896 0.09841 0.0
H747 H 0.5101 0.78116 0.05815 0.0
H748 H 0.47774 0.72259 0.14348 0.0
H749 H 0.44825 0.72064 0.15249 0.0
H750 H 0.46594 0.73872 0.17679 0.0
H751 H 0.43941 0.7722 0.16328 0.0
H752 H 0.42214 0.7541 0.13869 0.0
H753 H 0.43395 0.77914 0.12081 0.0
H754 H 0.48782 0.75342 0.02438 0.0
H755 H 0.45674 0.73191 0.99872 0.0
H756 H 0.42435 0.72647 0.09374 0.0
C757 C 0.48638 0.78221 0.14787 0.0
C758 C 0.50309 0.79753 0.13835 0.0
C759 C 0.51178 0.79695 0.10602 0.0
C760 C 0.50387 0.78117 0.08317 0.0
C761 C 0.48707 0.76634 0.09305 0.0
C762 C 0.47831 0.76688 0.12463 0.0
C763 C 0.45808 0.75173 0.12771 0.0
C764 C 0.46279 0.73227 0.15155 0.0
C765 C 0.43717 0.7651 0.13822 0.0
C766 C 0.45619 0.74339 0.09265 0.0
C767 C 0.47348 0.75132 0.07322 0.0
C768 C 0.47441 0.74681 0.03948 0.0
C769 C 0.45682 0.7345 0.02511 0.0
C770 C 0.43847 0.72741 0.04447 0.0
C771 C 0.43848 0.73145 0.07865 0.0
H772 H 0.98511 0.32303 0.66681 0.0
H773 H 0.94754 0.3854 0.66827 0.0
H774 H 0.92054 0.3696 0.62888 0.0
H775 H 0.97718 0.31294 0.57843 0.0
H776 H 0.97561 0.28297 0.58399 0.0
H777 H 0.99204 0.29978 0.61187 0.0
H778 H 0.96956 0.28306 0.66086 0.0
H779 H 0.95289 0.26672 0.63282 0.0
H780 H 0.93944 0.2856 0.66127 0.0
H781 H 0.89612 0.34613 0.59253 0.0
H782 H 0.87754 0.31751 0.55829 0.0
H783 H 0.93246 0.27148 0.577 0.0
C784 C 0.97123 0.3334 0.65882 0.0
C785 C 0.9682 0.35532 0.67125 0.0
C786 C 0.95003 0.36844 0.65974 0.0
C787 C 0.93462 0.35964 0.63716 0.0
C788 C 0.93791 0.33788 0.6258 0.0
C789 C 0.95594 0.32504 0.63582 0.0
C790 C 0.95578 0.30223 0.61946 0.0
C791 C 0.97637 0.29931 0.5971 0.0
C792 C 0.95431 0.28329 0.64514 0.0
C793 C 0.93445 0.30405 0.59947 0.0
C794 C 0.9244 0.32474 0.60348 0.0
C795 C 0.90398 0.32998 0.58876 0.0
C796 C 0.89353 0.31359 0.56936 0.0
C797 C 0.90367 0.29238 0.5646 0.0
C798 C 0.92446 0.28768 0.57975 0.0
H799 H 0.48648 0.16476 0.32307 0.0
H800 H 0.43623 0.11241 0.31344 0.0
H801 H 0.41051 0.13411 0.34827 0.0
H802 H 0.47493 0.17683 0.40861 0.0
H803 H 0.47923 0.20664 0.40481 0.0
H804 H 0.49409 0.18762 0.37815 0.0
H805 H 0.47865 0.20814 0.32704 0.0
H806 H 0.46367 0.22744 0.35307 0.0
H807 H 0.44881 0.21162 0.32225 0.0
H808 H 0.38961 0.16177 0.38181 0.0
H809 H 0.37519 0.19302 0.4147 0.0
H810 H 0.43948 0.22681 0.40703 0.0
C811 C 0.47004 0.1579 0.3282 0.0
C812 C 0.46327 0.13699 0.31496 0.0
C813 C 0.44173 0.1285 0.32268 0.0
C814 C 0.42699 0.14067 0.34264 0.0
C815 C 0.43412 0.16119 0.35516 0.0
C816 C 0.45517 0.16972 0.34854 0.0
C817 C 0.45864 0.19208 0.36569 0.0
C818 C 0.47787 0.1907 0.3908 0.0
C819 C 0.46268 0.21093 0.3405 0.0
C820 C 0.43617 0.1948 0.38272 0.0
C821 C 0.4223 0.1768 0.37608 0.0
C822 C 0.4004 0.1758 0.38765 0.0
C823 C 0.39238 0.19369 0.40654 0.0
C824 C 0.40628 0.21224 0.41423 0.0
C825 C 0.42854 0.21269 0.40216 0.0
H826 H 0.54193 0.64916 0.17839 0.0
H827 H 0.49154 0.69402 0.21875 0.0
H828 H 0.5085 0.72565 0.18911 0.0
H829 H 0.58805 0.68988 0.18215 0.0
H830 H 0.60052 0.68043 0.1442 0.0
H831 H 0.58494 0.66106 0.16947 0.0
H832 H 0.55941 0.65156 0.1198 0.0
H833 H 0.57482 0.67098 0.09445 0.0
H834 H 0.54489 0.67386 0.09872 0.0
H835 H 0.52807 0.75168 0.15156 0.0
H836 H 0.55274 0.77196 0.1128 0.0
H837 H 0.59203 0.71159 0.09852 0.0
C838 C 0.53459 0.66566 0.18114 0.0
C839 C 0.51535 0.66903 0.20085 0.0
C840 C 0.50627 0.69093 0.20384 0.0
C841 C 0.51571 0.70906 0.187 0.0
C842 C 0.53433 0.70513 0.16733 0.0
C843 C 0.54396 0.68412 0.16463 0.0
C844 C 0.56412 0.68477 0.14186 0.0
C845 C 0.58568 0.67868 0.16054 0.0
C846 C 0.56059 0.66938 0.11194 0.0
C847 C 0.56398 0.70931 0.1319 0.0
C848 C 0.54649 0.72064 0.14671 0.0
C849 C 0.54202 0.74312 0.14012 0.0
C850 C 0.55598 0.75444 0.11797 0.0
C851 C 0.57428 0.74336 0.10304 0.0
C852 C 0.57839 0.72053 0.11016 0.0
H853 H 0.00978 0.80732 0.84092 0.0
H854 H 0.02509 0.87653 0.86587 0.0
H855 H 0.05091 0.86373 0.90889 0.0
H856 H 0.01237 0.78646 0.92758 0.0
H857 H 0.02433 0.76002 0.91511 0.0
H858 H 0.00577 0.77494 0.88781 0.0
H859 H 0.03647 0.77361 0.84263 0.0
H860 H 0.05524 0.75939 0.87032 0.0
H861 H 0.06373 0.78533 0.85115 0.0
H862 H 0.07733 0.84425 0.94546 0.0
H863 H 0.10164 0.81847 0.97657 0.0
H864 H 0.06876 0.7615 0.93105 0.0
C865 C 0.01838 0.81973 0.85571 0.0
C866 C 0.01573 0.84293 0.84953 0.0
C867 C 0.02719 0.85867 0.86954 0.0
C868 C 0.04179 0.85159 0.89429 0.0
C869 C 0.04449 0.8287 0.89923 0.0
C870 C 0.03292 0.81293 0.88096 0.0
C871 C 0.0394 0.78932 0.89121 0.0
C872 C 0.01928 0.77695 0.90635 0.0
C873 C 0.04931 0.77615 0.86209 0.0
C874 C 0.05704 0.79442 0.91706 0.0
C875 C 0.05952 0.81728 0.92135 0.0
C876 C 0.07546 0.8263 0.94258 0.0
C877 C 0.08937 0.81155 0.95985 0.0
C878 C 0.08719 0.78812 0.95585 0.0
C879 C 0.07059 0.77941 0.93461 0.0
H880 H 0.01736 0.34544 0.29217 0.0
H881 H 0.07424 0.38636 0.26291 0.0
H882 H 0.09554 0.37245 0.31088 0.0
H883 H 0.02341 0.35263 0.37948 0.0
H884 H 0.01547 0.32417 0.38896 0.0
H885 H 0.00464 0.33761 0.35258 0.0
H886 H 0.01999 0.30521 0.31668 0.0
H887 H 0.03087 0.29161 0.3529 0.0
H888 H 0.04929 0.29799 0.31899 0.0
H889 H 0.11058 0.35414 0.36258 0.0
H890 H 0.11847 0.3319 0.41274 0.0
H891 H 0.05196 0.30259 0.40684 0.0
C892 C 0.03426 0.35157 0.29584 0.0
C893 C 0.04408 0.36706 0.27376 0.0
C894 C 0.06633 0.37448 0.27942 0.0
C895 C 0.07857 0.36672 0.30665 0.0
C896 C 0.06837 0.35146 0.3279 0.0
C897 C 0.04675 0.3439 0.3227 0.0
C898 C 0.03977 0.32717 0.34878 0.0
C899 C 0.01963 0.33593 0.36862 0.0
C900 C 0.03469 0.30413 0.33341 0.0
C901 C 0.06084 0.3265 0.3695 0.0
C902 C 0.07713 0.34069 0.3572 0.0
C903 C 0.09797 0.34294 0.37241 0.0
C904 C 0.10229 0.33027 0.40089 0.0
C905 C 0.08588 0.31547 0.41367 0.0
C906 C 0.06492 0.31368 0.39766 0.0
H907 H 0.9189 0.75794 0.57136 0.0
H908 H 0.88359 0.81609 0.53305 0.0
H909 H 0.89784 0.8388 0.57931 0.0
H910 H 0.91033 0.76908 0.65723 0.0
H911 H 0.93789 0.75992 0.66948 0.0
H912 H 0.9248 0.74797 0.6336 0.0
H913 H 0.95898 0.75925 0.59819 0.0
H914 H 0.9723 0.77113 0.63392 0.0
H915 H 0.96816 0.78808 0.59766 0.0
H916 H 0.91537 0.85509 0.62972 0.0
H917 H 0.93647 0.86451 0.68 0.0
H918 H 0.96146 0.79613 0.6849 0.0
C919 C 0.91407 0.77543 0.57275 0.0
C920 C 0.9 0.78522 0.54863 0.0
C921 C 0.89433 0.80823 0.55118 0.0
C922 C 0.9023 0.82125 0.57741 0.0
C923 C 0.9161 0.81109 0.60072 0.0
C924 C 0.9221 0.78875 0.59856 0.0
C925 C 0.93763 0.78211 0.62648 0.0
C926 C 0.92701 0.76368 0.64797 0.0
C927 C 0.96063 0.77472 0.61326 0.0
C928 C 0.93923 0.8042 0.64482 0.0
C929 C 0.92662 0.82064 0.62956 0.0
C930 C 0.92535 0.84239 0.64189 0.0
C931 C 0.93737 0.84756 0.67051 0.0
C932 C 0.95063 0.83108 0.68645 0.0
C933 C 0.9515 0.80911 0.67333 0.0
H934 H 0.36695 0.669 0.86955 0.0
H935 H 0.40622 0.70056 0.94636 0.0
H936 H 0.43984 0.69883 0.91055 0.0
H937 H 0.40736 0.63066 0.84319 0.0
H938 H 0.40013 0.63267 0.80021 0.0
H939 H 0.37922 0.63799 0.83113 0.0
H940 H 0.37154 0.6772 0.80586 0.0
H941 H 0.39234 0.67196 0.77468 0.0
H942 H 0.39445 0.69656 0.80027 0.0
H943 H 0.46979 0.69052 0.86674 0.0
H944 H 0.49252 0.67857 0.81895 0.0
H945 H 0.43247 0.65319 0.7714 0.0
C946 C 0.38253 0.67578 0.87893 0.0
C947 C 0.384 0.68477 0.91105 0.0
C948 C 0.40474 0.69351 0.92203 0.0
C949 C 0.42389 0.69259 0.90178 0.0
C950 C 0.42188 0.68307 0.87049 0.0
C951 C 0.4016 0.67507 0.85908 0.0
C952 C 0.40369 0.66514 0.82497 0.0
C953 C 0.39722 0.64014 0.8249 0.0
C954 C 0.38968 0.67852 0.79997 0.0
C955 C 0.42849 0.66829 0.81905 0.0
C956 C 0.43877 0.67871 0.84545 0.0
C957 C 0.46182 0.68256 0.84585 0.0
C958 C 0.4746 0.67563 0.8186 0.0
C959 C 0.46431 0.66496 0.79126 0.0
C960 C 0.44091 0.66142 0.79168 0.0
H961 H 0.58732 0.16528 0.05797 0.0
H962 H 0.62566 0.21602 0.1099 0.0
H963 H 0.61593 0.19821 0.16287 0.0
H964 H 0.54246 0.16394 0.11585 0.0
H965 H 0.53743 0.13425 0.11191 0.0
H966 H 0.54903 0.14974 0.07789 0.0
H967 H 0.58282 0.12241 0.076 0.0
H968 H 0.57136 0.10692 0.1102 0.0
H969 H 0.59941 0.11807 0.11255 0.0
H970 H 0.60108 0.17601 0.21014 0.0
H971 H 0.5793 0.15287 0.249 0.0
H972 H 0.54944 0.11709 0.16688 0.0
C973 C 0.5939 0.17242 0.08049 0.0
C974 C 0.60742 0.1919 0.07985 0.0
C975 C 0.61529 0.20109 0.10985 0.0
C976 C 0.60998 0.19102 0.14003 0.0
C977 C 0.59658 0.17189 0.13987 0.0
C978 C 0.58841 0.1628 0.11095 0.0
C979 C 0.57285 0.14323 0.11791 0.0
C980 C 0.54904 0.14809 0.10514 0.0
C981 C 0.58218 0.12136 0.10329 0.0
C982 C 0.57353 0.1428 0.15522 0.0
C983 C 0.58752 0.15933 0.16732 0.0
C984 C 0.59017 0.16291 0.20098 0.0
C985 C 0.57775 0.14964 0.22287 0.0
C986 C 0.56274 0.13308 0.21107 0.0
C987 C 0.56102 0.12936 0.17675 0.0
H988 H 0.01836 0.66885 0.18553 0.0
H989 H 0.07462 0.6369 0.23452 0.0
H990 H 0.10002 0.65114 0.19123 0.0
H991 H 0.03751 0.66016 0.10075 0.0
H992 H 0.02732 0.68717 0.08753 0.0
H993 H 0.01343 0.67248 0.12052 0.0
H994 H 0.01868 0.70704 0.1584 0.0
H995 H 0.03264 0.7218 0.12567 0.0
H996 H 0.04642 0.71824 0.16482 0.0
H997 H 0.11969 0.67118 0.14403 0.0
H998 H 0.13167 0.69598 0.09824 0.0
H999 H 0.06233 0.71494 0.08194 0.0
C1000 C 0.03594 0.66446 0.18694 0.0
C1001 C 0.04444 0.65165 0.21339 0.0
C1002 C 0.06767 0.64664 0.21446 0.0
C1003 C 0.08224 0.65461 0.18993 0.0
C1004 C 0.07333 0.66754 0.16451 0.0
C1005 C 0.05069 0.67238 0.16288 0.0
C1006 C 0.04544 0.68783 0.1344 0.0
C1007 C 0.03002 0.67621 0.10931 0.0
C1008 C 0.0352 0.71004 0.14657 0.0
C1009 C 0.06871 0.69129 0.12058 0.0
C1010 C 0.0846 0.67928 0.13793 0.0
C1011 C 0.10736 0.68052 0.13011 0.0
C1012 C 0.11402 0.69462 0.10409 0.0
C1013 C 0.09796 0.7074 0.08658 0.0
C1014 C 0.07505 0.70541 0.09483 0.0
H1015 H 0.54821 0.84718 0.31197 0.0
H1016 H 0.59523 0.81589 0.24449 0.0
H1017 H 0.616 0.80013 0.29132 0.0
H1018 H 0.59027 0.86091 0.37588 0.0
H1019 H 0.57118 0.85513 0.40922 0.0
H1020 H 0.5606 0.86524 0.37039 0.0
H1021 H 0.53411 0.83088 0.36681 0.0
H1022 H 0.54473 0.82056 0.40543 0.0
H1023 H 0.54572 0.80301 0.36934 0.0
H1024 H 0.62926 0.78418 0.34435 0.0
H1025 H 0.63675 0.77247 0.4018 0.0
H1026 H 0.5833 0.81577 0.436 0.0
C1027 C 0.56311 0.83736 0.30709 0.0
C1028 C 0.57003 0.83277 0.27446 0.0
C1029 C 0.58955 0.81971 0.26917 0.0
C1030 C 0.60149 0.8106 0.29564 0.0
C1031 C 0.59394 0.81495 0.32738 0.0
C1032 C 0.57546 0.82831 0.33336 0.0
C1033 C 0.57079 0.82995 0.37002 0.0
C1034 C 0.57337 0.85426 0.38209 0.0
C1035 C 0.54746 0.82054 0.37837 0.0
C1036 C 0.58927 0.81506 0.38351 0.0
C1037 C 0.60231 0.80647 0.35839 0.0
C1038 C 0.61947 0.79112 0.36432 0.0
C1039 C 0.62356 0.7845 0.39687 0.0
C1040 C 0.61079 0.79349 0.42296 0.0
C1041 C 0.5935 0.80902 0.4163 0.0
H1042 H 0.3961 0.317 0.54945 0.0
H1043 H 0.45362 0.31678 0.48394 0.0
H1044 H 0.47518 0.33852 0.5246 0.0
H1045 H 0.40528 0.37404 0.58278 0.0
H1046 H 0.39637 0.36611 0.62356 0.0
H1047 H 0.38476 0.35213 0.58812 0.0
H1048 H 0.39703 0.31375 0.6121 0.0
H1049 H 0.40878 0.3276 0.64746 0.0
H1050 H 0.42602 0.30934 0.6228 0.0
H1051 H 0.49187 0.35659 0.57446 0.0
H1052 H 0.50169 0.37215 0.62889 0.0
H1053 H 0.43313 0.36221 0.66156 0.0
C1054 C 0.41307 0.32191 0.54336 0.0
C1055 C 0.42312 0.31518 0.5134 0.0
C1056 C 0.44549 0.32175 0.50662 0.0
C1057 C 0.45792 0.33412 0.52959 0.0
C1058 C 0.44771 0.34003 0.55916 0.0
C1059 C 0.42572 0.3344 0.56598 0.0
C1060 C 0.41908 0.34207 0.60022 0.0
C1061 C 0.40026 0.35963 0.59856 0.0
C1062 C 0.41234 0.32199 0.62191 0.0
C1063 C 0.44091 0.35246 0.61177 0.0
C1064 C 0.45721 0.35107 0.58769 0.0
C1065 C 0.47915 0.35815 0.5933 0.0
C1066 C 0.48459 0.36688 0.62434 0.0
C1067 C 0.46812 0.36865 0.64934 0.0
C1068 C 0.44596 0.36151 0.64274 0.0
H1069 H 0.95866 0.19697 0.82253 0.0
H1070 H 0.9346 0.12822 0.81961 0.0
H1071 H 0.91799 0.133 0.8748 0.0
H1072 H 0.97231 0.19793 0.90926 0.0
H1073 H 0.9632 0.22652 0.91488 0.0
H1074 H 0.97381 0.21752 0.87552 0.0
H1075 H 0.93716 0.23092 0.84745 0.0
H1076 H 0.92653 0.24001 0.88668 0.0
H1077 H 0.91058 0.22053 0.8621 0.0
H1078 H 0.90438 0.145 0.93036 0.0
H1079 H 0.89203 0.16436 0.98089 0.0
H1080 H 0.92357 0.22577 0.94671 0.0
C1081 C 0.94988 0.18292 0.83345 0.0
C1082 C 0.94791 0.16221 0.81673 0.0
C1083 C 0.93626 0.14425 0.83189 0.0
C1084 C 0.92685 0.14677 0.86329 0.0
C1085 C 0.92917 0.16736 0.87913 0.0
C1086 C 0.94023 0.18519 0.86465 0.0
C1087 C 0.93983 0.20573 0.88662 0.0
C1088 C 0.96371 0.2123 0.8972 0.0
C1089 C 0.9278 0.22545 0.8697 0.0
C1090 C 0.9264 0.19676 0.91542 0.0
C1091 C 0.92077 0.17449 0.91084 0.0
C1092 C 0.90863 0.16246 0.93421 0.0
C1093 C 0.90175 0.17357 0.96288 0.0
C1094 C 0.90675 0.19658 0.96766 0.0
C1095 C 0.91937 0.20822 0.94363 0.0
H1096 H 0.98134 0.66951 0.70808 0.0
H1097 H 0.92412 0.634 0.74867 0.0
H1098 H 0.90203 0.64367 0.699 0.0
H1099 H 0.9496 0.71491 0.67318 0.0
H1100 H 0.96748 0.71765 0.63767 0.0
H1101 H 0.97883 0.7075 0.67595 0.0
H1102 H 0.99315 0.67166 0.64686 0.0
H1103 H 0.98196 0.68164 0.60839 0.0
H1104 H 0.97375 0.65451 0.62393 0.0
H1105 H 0.88646 0.65709 0.64417 0.0
H1106 H 0.87827 0.67432 0.59002 0.0
H1107 H 0.94571 0.70165 0.58715 0.0
C1108 C 0.96421 0.6636 0.70652 0.0
C1109 C 0.9545 0.65081 0.73213 0.0
C1110 C 0.9319 0.64378 0.72931 0.0
C1111 C 0.91926 0.64917 0.70119 0.0
C1112 C 0.92941 0.66179 0.67639 0.0
C1113 C 0.95133 0.66907 0.67898 0.0
C1114 C 0.95821 0.68296 0.64948 0.0
C1115 C 0.96386 0.70718 0.65969 0.0
C1116 C 0.97793 0.67202 0.63108 0.0
C1117 C 0.93684 0.68204 0.62951 0.0
C1118 C 0.92039 0.66979 0.64538 0.0
C1119 C 0.89921 0.66673 0.63155 0.0
C1120 C 0.89473 0.67654 0.60078 0.0
C1121 C 0.91135 0.68927 0.58429 0.0
C1122 C 0.93264 0.69196 0.59899 0.0
H1123 H 0.06454 0.13812 0.35142 0.0
H1124 H 0.10277 0.16972 0.27309 0.0
H1125 H 0.12115 0.1942 0.31368 0.0
H1126 H 0.05345 0.18593 0.39573 0.0
H1127 H 0.0565 0.17376 0.4361 0.0
H1128 H 0.04845 0.15639 0.40189 0.0
H1129 H 0.08207 0.12995 0.41299 0.0
H1130 H 0.09006 0.14706 0.44763 0.0
H1131 H 0.10998 0.14144 0.41531 0.0
H1132 H 0.13021 0.21955 0.36048 0.0
H1133 H 0.1336 0.24073 0.41262 0.0
H1134 H 0.092 0.19138 0.46176 0.0
C1135 C 0.0773 0.14969 0.34292 0.0
C1136 C 0.08216 0.152 0.309 0.0
C1137 C 0.09875 0.16758 0.29889 0.0
C1138 C 0.10928 0.18162 0.32178 0.0
C1139 C 0.10338 0.17962 0.35479 0.0
C1140 C 0.08818 0.16371 0.36554 0.0
C1141 C 0.08399 0.16589 0.40223 0.0
C1142 C 0.05913 0.17079 0.40938 0.0
C1143 C 0.09201 0.14483 0.42062 0.0
C1144 C 0.09862 0.18599 0.41012 0.0
C1145 C 0.10957 0.19369 0.38233 0.0
C1146 C 0.12225 0.21334 0.38262 0.0
C1147 C 0.12396 0.22532 0.41218 0.0
C1148 C 0.11337 0.21739 0.44106 0.0
C1149 C 0.10069 0.19741 0.44008 0.0
H1150 H 0.57532 0.31191 0.0724 0.0
H1151 H 0.63906 0.29314 0.11584 0.0
H1152 H 0.62599 0.30738 0.16985 0.0
H1153 H 0.56485 0.36233 0.1212 0.0
H1154 H 0.53526 0.3566 0.12429 0.0
H1155 H 0.55073 0.34733 0.08873 0.0
H1156 H 0.53713 0.30661 0.09905 0.0
H1157 H 0.52182 0.3157 0.13477 0.0
H1158 H 0.54231 0.29364 0.13842 0.0
H1159 H 0.60495 0.32233 0.21965 0.0
H1160 H 0.57755 0.33533 0.26115 0.0
H1161 H 0.52715 0.34184 0.18466 0.0
C1162 C 0.58679 0.31126 0.09304 0.0
C1163 C 0.60836 0.30174 0.08985 0.0
C1164 C 0.62256 0.3006 0.11772 0.0
C1165 C 0.61527 0.30863 0.14844 0.0
C1166 C 0.59368 0.31749 0.15083 0.0
C1167 C 0.57965 0.31877 0.12383 0.0
C1168 C 0.55666 0.32737 0.13318 0.0
C1169 C 0.55159 0.34974 0.11582 0.0
C1170 C 0.53842 0.30978 0.12593 0.0
C1171 C 0.55984 0.33062 0.16977 0.0
C1172 C 0.58135 0.32511 0.17949 0.0
C1173 C 0.58808 0.32672 0.21226 0.0
C1174 C 0.57241 0.33413 0.23564 0.0
C1175 C 0.55018 0.33952 0.22618 0.0
C1176 C 0.54395 0.33772 0.19275 0.0
H1177 H 0.41883 0.80072 0.95232 0.0
H1178 H 0.38285 0.74729 0.90235 0.0
H1179 H 0.39007 0.7657 0.84902 0.0
H1180 H 0.40092 0.84639 0.89965 0.0
H1181 H 0.42777 0.86026 0.90037 0.0
H1182 H 0.41899 0.84349 0.93497 0.0
H1183 H 0.45516 0.81954 0.93029 0.0
H1184 H 0.46406 0.8365 0.89603 0.0
H1185 H 0.46198 0.80649 0.89155 0.0
H1186 H 0.40141 0.78953 0.80118 0.0
H1187 H 0.41853 0.81565 0.76144 0.0
H1188 H 0.44809 0.85321 0.84211 0.0
C1189 C 0.41229 0.79298 0.93021 0.0
C1190 C 0.40007 0.77265 0.9316 0.0
C1191 C 0.39217 0.76289 0.90198 0.0
C1192 C 0.39612 0.77326 0.87155 0.0
C1193 C 0.40812 0.79331 0.87108 0.0
C1194 C 0.41628 0.80298 0.89956 0.0
C1195 C 0.42963 0.82402 0.89202 0.0
C1196 C 0.41866 0.84477 0.90768 0.0
C1197 C 0.45416 0.82147 0.90312 0.0
C1198 C 0.42775 0.82461 0.85483 0.0
C1199 C 0.41509 0.80685 0.84333 0.0
C1200 C 0.41132 0.80353 0.80987 0.0
C1201 C 0.4211 0.81851 0.78749 0.0
C1202 C 0.43464 0.83653 0.7986 0.0
C1203 C 0.43769 0.83974 0.83281 0.0
H1204 H 0.94 0.28746 0.93162 0.0
H1205 H 0.87159 0.31162 0.93999 0.0
H1206 H 0.87813 0.33724 0.893 0.0
H1207 H 0.96529 0.34002 0.91231 0.0
H1208 H 0.98512 0.32831 0.8836 0.0
H1209 H 0.97482 0.31151 0.91721 0.0
H1210 H 0.96145 0.28108 0.87608 0.0
H1211 H 0.97182 0.29774 0.84234 0.0
H1212 H 0.94295 0.28882 0.8429 0.0
H1213 H 0.89251 0.36069 0.84562 0.0
H1214 H 0.9133 0.37985 0.80124 0.0
H1215 H 0.9724 0.34038 0.82463 0.0
C1216 C 0.92632 0.29809 0.9236 0.0
C1217 C 0.90526 0.29756 0.93956 0.0
C1218 C 0.88785 0.31172 0.92815 0.0
C1219 C 0.89142 0.32634 0.90151 0.0
C1220 C 0.91246 0.32655 0.88655 0.0
C1221 C 0.9296 0.31274 0.89716 0.0
C1222 C 0.9507 0.31625 0.87708 0.0
C1223 C 0.97012 0.32452 0.89885 0.0
C1224 C 0.9571 0.29469 0.8585 0.0
C1225 C 0.94286 0.33439 0.85368 0.0
C1226 C 0.92074 0.34004 0.85944 0.0
C1227 C 0.90983 0.35638 0.84087 0.0
C1228 C 0.92181 0.36719 0.81571 0.0
C1229 C 0.94453 0.3617 0.80937 0.0
C1230 C 0.9551 0.34507 0.8288 0.0
H1231 H 0.42499 0.15192 0.67874 0.0
H1232 H 0.41054 0.21056 0.73853 0.0
H1233 H 0.39431 0.22945 0.69024 0.0
H1234 H 0.4411 0.18047 0.60718 0.0
H1235 H 0.42806 0.16136 0.57863 0.0
H1236 H 0.43714 0.15145 0.61832 0.0
H1237 H 0.39712 0.13689 0.63079 0.0
H1238 H 0.38795 0.14652 0.59095 0.0
H1239 H 0.37365 0.15581 0.62757 0.0
H1240 H 0.38416 0.2438 0.63487 0.0
H1241 H 0.37585 0.25107 0.57632 0.0
H1242 H 0.39393 0.1825 0.55232 0.0
C1243 C 0.41802 0.16857 0.68178 0.0
C1244 C 0.41909 0.17977 0.71244 0.0
C1245 C 0.40987 0.20158 0.71538 0.0
C1246 C 0.40066 0.21251 0.68805 0.0
C1247 C 0.40042 0.20128 0.65805 0.0
C1248 C 0.40841 0.17964 0.6548 0.0
C1249 C 0.40641 0.1716 0.61949 0.0
C1250 C 0.42956 0.16589 0.60507 0.0
C1251 C 0.39032 0.15151 0.61707 0.0
C1252 C 0.39655 0.19231 0.60336 0.0
C1253 C 0.39343 0.20927 0.62609 0.0
C1254 C 0.3861 0.23054 0.61691 0.0
C1255 C 0.38158 0.23455 0.58362 0.0
C1256 C 0.38408 0.21728 0.56001 0.0
C1257 C 0.39155 0.19586 0.57004 0.0
H1258 H 0.60531 0.6902 0.42302 0.0
H1259 H 0.55638 0.6716 0.49731 0.0
H1260 H 0.53756 0.64694 0.45726 0.0
H1261 H 0.56819 0.69399 0.35765 0.0
H1262 H 0.58677 0.68246 0.32705 0.0
H1263 H 0.59813 0.69651 0.36249 0.0
H1264 H 0.62148 0.6612 0.37692 0.0
H1265 H 0.61027 0.64704 0.34135 0.0
H1266 H 0.6076 0.63451 0.38156 0.0
H1267 H 0.52113 0.62854 0.40771 0.0
H1268 H 0.50949 0.61575 0.35251 0.0
H1269 H 0.56977 0.64481 0.31058 0.0
C1270 C 0.59095 0.68055 0.4311 0.0
C1271 C 0.58235 0.68284 0.46336 0.0
C1272 C 0.56334 0.6701 0.4728 0.0
C1273 C 0.55253 0.65601 0.45022 0.0
C1274 C 0.56108 0.65459 0.41839 0.0
C1275 C 0.58002 0.66628 0.4089 0.0
C1276 C 0.58494 0.66284 0.37265 0.0
C1277 C 0.58447 0.68528 0.35387 0.0
C1278 C 0.60741 0.65067 0.36785 0.0
C1279 C 0.5654 0.64798 0.36304 0.0
C1280 C 0.55189 0.64336 0.38985 0.0
C1281 C 0.53182 0.6316 0.38666 0.0
C1282 C 0.52531 0.62449 0.35521 0.0
C1283 C 0.53889 0.62902 0.32739 0.0
C1284 C 0.55935 0.64062 0.33153 0.0
H1285 H 0.09482 0.83518 0.07343 0.0
H1286 H 0.13412 0.78081 0.11473 0.0
H1287 H 0.12609 0.79465 0.17078 0.0
H1288 H 0.10815 0.87808 0.13463 0.0
H1289 H 0.08004 0.88913 0.13584 0.0
H1290 H 0.09053 0.87643 0.09866 0.0
H1291 H 0.05695 0.84884 0.09812 0.0
H1292 H 0.04627 0.86161 0.13506 0.0
H1293 H 0.05146 0.83183 0.13393 0.0
H1294 H 0.11396 0.81396 0.22183 0.0
H1295 H 0.09366 0.83377 0.26566 0.0
H1296 H 0.05938 0.87415 0.19218 0.0
C1297 C 0.10187 0.82639 0.09436 0.0
C1298 C 0.11526 0.80709 0.08994 0.0
C1299 C 0.12382 0.79564 0.11774 0.0
C1300 C 0.11951 0.80348 0.14959 0.0
C1301 C 0.10631 0.82258 0.15322 0.0
C1302 C 0.09722 0.83367 0.12647 0.0
C1303 C 0.08181 0.85247 0.13751 0.0
C1304 C 0.09067 0.87539 0.12597 0.0
C1305 C 0.0577 0.84844 0.12545 0.0
C1306 C 0.08357 0.85008 0.17461 0.0
C1307 C 0.0982 0.83304 0.183 0.0
C1308 C 0.10243 0.82732 0.21561 0.0
C1309 C 0.09082 0.83876 0.24037 0.0
C1310 C 0.07482 0.85549 0.23244 0.0
C1311 C 0.07157 0.86155 0.19908 0.0
H1312 H 0.55381 0.79622 0.93915 0.0
H1313 H 0.61769 0.82979 0.95332 0.0
H1314 H 0.61028 0.8533 0.90436 0.0
H1315 H 0.55558 0.79524 0.85058 0.0
H1316 H 0.52592 0.8001 0.84603 0.0
H1317 H 0.53641 0.78584 0.88197 0.0
H1318 H 0.51681 0.81508 0.9193 0.0
H1319 H 0.50636 0.8295 0.8835 0.0
H1320 H 0.52269 0.84451 0.91363 0.0
H1321 H 0.5959 0.873 0.85361 0.0
H1322 H 0.57534 0.88804 0.80567 0.0
H1323 H 0.52053 0.84203 0.8256 0.0
C1324 C 0.56626 0.80853 0.93205 0.0
C1325 C 0.58634 0.8112 0.95016 0.0
C1326 C 0.60219 0.82746 0.93989 0.0
C1327 C 0.59813 0.84088 0.9121 0.0
C1328 C 0.57815 0.83783 0.89487 0.0
C1329 C 0.56246 0.82208 0.90449 0.0
C1330 C 0.5423 0.82216 0.88183 0.0
C1331 C 0.53992 0.7995 0.86405 0.0
C1332 C 0.52078 0.82818 0.90071 0.0
C1333 C 0.54895 0.84065 0.85817 0.0
C1334 C 0.56977 0.84934 0.86594 0.0
C1335 C 0.57957 0.86637 0.84734 0.0
C1336 C 0.56776 0.87479 0.82012 0.0
C1337 C 0.54627 0.86632 0.81191 0.0
C1338 C 0.53683 0.84902 0.83133 0.0
H1339 H 0.46201 0.29473 0.16304 0.0
H1340 H 0.43844 0.36357 0.16792 0.0
H1341 H 0.41803 0.35822 0.11562 0.0
H1342 H 0.46965 0.29269 0.07455 0.0
H1343 H 0.46014 0.26406 0.07127 0.0
H1344 H 0.47348 0.27358 0.10851 0.0
H1345 H 0.43893 0.26066 0.14228 0.0
H1346 H 0.42553 0.25117 0.1051 0.0
H1347 H 0.41151 0.27102 0.13148 0.0
H1348 H 0.39958 0.34514 0.06334 0.0
H1349 H 0.38428 0.32528 0.01503 0.0
H1350 H 0.41964 0.26484 0.04473 0.0
C1351 C 0.45267 0.30874 0.15307 0.0
C1352 C 0.45184 0.3296 0.16962 0.0
C1353 C 0.43933 0.34745 0.15572 0.0
C1354 C 0.42769 0.34457 0.12601 0.0
C1355 C 0.42872 0.32376 0.11048 0.0
C1356 C 0.44091 0.30615 0.1235 0.0
C1357 C 0.43894 0.28535 0.10226 0.0
C1358 C 0.46192 0.27853 0.08832 0.0
C1359 C 0.42808 0.26591 0.12143 0.0
C1360 C 0.42358 0.29397 0.0754 0.0
C1361 C 0.41797 0.31618 0.0805 0.0
C1362 C 0.40389 0.32775 0.05905 0.0
C1363 C 0.39527 0.3163 0.03166 0.0
C1364 C 0.40069 0.29346 0.026 0.0
C1365 C 0.41509 0.28226 0.04828 0.0
H1366 H 0.89205 0.19844 0.42346 0.0
H1367 H 0.94065 0.1839 0.50016 0.0
H1368 H 0.96514 0.16578 0.45916 0.0
H1369 H 0.90058 0.14664 0.37583 0.0
H1370 H 0.89731 0.16088 0.33697 0.0
H1371 H 0.88284 0.17105 0.37291 0.0
H1372 H 0.90085 0.21022 0.3644 0.0
H1373 H 0.91563 0.20012 0.32874 0.0
H1374 H 0.93092 0.21265 0.36229 0.0
H1375 H 0.98593 0.15267 0.40929 0.0
H1376 H 4e-05 0.14176 0.35456 0.0
H1377 H 0.93756 0.16394 0.31034 0.0
C1378 C 0.90759 0.19099 0.43182 0.0
C1379 C 0.9144 0.19255 0.46508 0.0
C1380 C 0.93503 0.18286 0.47486 0.0
C1381 C 0.9491 0.17258 0.45173 0.0
C1382 C 0.94223 0.17201 0.41899 0.0
C1383 C 0.92183 0.18064 0.40908 0.0
C1384 C 0.91878 0.17853 0.37218 0.0
C1385 C 0.89869 0.16337 0.364 0.0
C1386 C 0.91641 0.20176 0.35596 0.0
C1387 C 0.94075 0.16749 0.36288 0.0
C1388 C 0.95408 0.16403 0.39024 0.0
C1389 C 0.97553 0.15501 0.38774 0.0
C1390 C 0.98344 0.149 0.35649 0.0
C1391 C 0.96985 0.15186 0.32817 0.0
C1392 C 0.94825 0.16132 0.33154 0.0
H1393 H 0.08328 0.72781 0.57188 0.0
H1394 H 0.11513 0.66675 0.53738 0.0
H1395 H 0.09999 0.64629 0.58554 0.0
H1396 H 0.09226 0.72004 0.65703 0.0
H1397 H 0.06536 0.73102 0.66922 0.0
H1398 H 0.07827 0.7406 0.63173 0.0
H1399 H 0.04291 0.72913 0.59888 0.0
H1400 H 0.02981 0.71957 0.63629 0.0
H1401 H 0.03252 0.70078 0.6018 0.0
H1402 H 0.0828 0.63308 0.63929 0.0
H1403 H 0.06308 0.62775 0.69238 0.0
H1404 H 0.04154 0.69729 0.68952 0.0
C1405 C 0.08708 0.71013 0.5744 0.0
C1406 C 0.10051 0.69888 0.55104 0.0
C1407 C 0.10484 0.67567 0.555 0.0
C1408 C 0.09636 0.66394 0.58228 0.0
C1409 C 0.08332 0.67561 0.60502 0.0
C1410 C 0.07847 0.69813 0.60109 0.0
C1411 C 0.06386 0.70679 0.62872 0.0
C1412 C 0.07566 0.72572 0.6478 0.0
C1413 C 0.04092 0.71451 0.61562 0.0
C1414 C 0.0617 0.68573 0.64928 0.0
C1415 C 0.073 0.6679 0.63527 0.0
C1416 C 0.07375 0.64688 0.65036 0.0
C1417 C 0.06258 0.64402 0.68052 0.0
C1418 C 0.05075 0.66206 0.69505 0.0
C1419 C 0.05033 0.68311 0.67903 0.0
H1420 H 0.62147 0.16227 0.61373 0.0
H1421 H 0.57945 0.20056 0.54714 0.0
H1422 H 0.54864 0.19941 0.58829 0.0
H1423 H 0.5803 0.12576 0.64303 0.0
H1424 H 0.59086 0.12502 0.68459 0.0
H1425 H 0.60968 0.13036 0.6509 0.0
H1426 H 0.62241 0.16751 0.67834 0.0
H1427 H 0.60375 0.16219 0.71231 0.0
H1428 H 0.60172 0.18814 0.68967 0.0
H1429 H 0.52149 0.19084 0.63598 0.0
H1430 H 0.5017 0.17825 0.68626 0.0
H1431 H 0.56282 0.14649 0.72073 0.0
C1432 C 0.60588 0.17064 0.60778 0.0
C1433 C 0.60278 0.18138 0.57712 0.0
C1434 C 0.58217 0.19225 0.5705 0.0
C1435 C 0.5646 0.19162 0.5937 0.0
C1436 C 0.56812 0.18033 0.62344 0.0
C1437 C 0.58843 0.17032 0.63057 0.0
C1438 C 0.58813 0.15885 0.66377 0.0
C1439 C 0.59249 0.1335 0.66034 0.0
C1440 C 0.605 0.16984 0.68742 0.0
C1441 C 0.56429 0.16348 0.67415 0.0
C1442 C 0.55292 0.17589 0.6507 0.0
C1443 C 0.53035 0.18135 0.6546 0.0
C1444 C 0.51923 0.17403 0.6832 0.0
C1445 C 0.5307 0.16144 0.70761 0.0
C1446 C 0.55355 0.15624 0.70281 0.0
H1447 H 0.04392 0.36892 0.87546 0.0
H1448 H 0.05758 0.33175 0.78574 0.0
H1449 H 0.08183 0.30587 0.81676 0.0
H1450 H 0.10034 0.36333 0.91031 0.0
H1451 H 0.09019 0.36033 0.95188 0.0
H1452 H 0.07447 0.37659 0.92244 0.0
H1453 H 0.0394 0.35208 0.93365 0.0
H1454 H 0.055 0.33572 0.96303 0.0
H1455 H 0.04126 0.32207 0.92897 0.0
H1456 H 0.10158 0.28192 0.85796 0.0
H1457 H 0.11821 0.26319 0.90653 0.0
H1458 H 0.09424 0.31708 0.96894 0.0
C1459 C 0.05221 0.35549 0.86229 0.0
C1460 C 0.04882 0.3524 0.82815 0.0
C1461 C 0.05996 0.33457 0.81185 0.0
C1462 C 0.07376 0.31972 0.82925 0.0
C1463 C 0.07654 0.32306 0.86289 0.0
C1464 C 0.06633 0.34064 0.87923 0.0
C1465 C 0.07195 0.34023 0.91562 0.0
C1466 C 0.08502 0.36138 0.92564 0.0
C1467 C 0.05064 0.33735 0.93654 0.0
C1468 C 0.08664 0.31951 0.91717 0.0
C1469 C 0.08891 0.30977 0.88649 0.0
C1470 C 0.10031 0.2896 0.88202 0.0
C1471 C 0.10965 0.27907 0.90967 0.0
C1472 C 0.10784 0.28895 0.94121 0.0
C1473 C 0.09636 0.30952 0.94491 0.0
H1474 H 0.89108 0.8117 0.1087 0.0
H1475 H 0.9283 0.85203 0.03832 0.0
H1476 H 0.94943 0.86932 0.08368 0.0
H1477 H 0.88793 0.85534 0.17306 0.0
H1478 H 0.89111 0.83536 0.20606 0.0
H1479 H 0.87782 0.82703 0.16815 0.0
H1480 H 0.90628 0.79447 0.16213 0.0
H1481 H 0.91978 0.80279 0.19983 0.0
H1482 H 0.93588 0.80056 0.16244 0.0
H1483 H 0.96937 0.87912 0.13529 0.0
H1484 H 0.98428 0.88405 0.1915 0.0
H1485 H 0.93287 0.8395 0.22949 0.0
C1486 C 0.90341 0.82443 0.1029 0.0
C1487 C 0.90805 0.83047 0.06993 0.0
C1488 C 0.92439 0.84715 0.06335 0.0
C1489 C 0.93654 0.85706 0.08895 0.0
C1490 C 0.93195 0.85038 0.12106 0.0
C1491 C 0.91555 0.83475 0.12826 0.0
C1492 C 0.91431 0.83032 0.16498 0.0
C1493 C 0.89143 0.83745 0.17888 0.0
C1494 C 0.91937 0.80557 0.17279 0.0
C1495 C 0.93289 0.84558 0.17711 0.0
C1496 C 0.94291 0.85685 0.15127 0.0
C1497 C 0.96143 0.87073 0.15584 0.0
C1498 C 0.96984 0.87331 0.18777 0.0
C1499 C 0.95956 0.86233 0.21472 0.0
C1500 C 0.94077 0.84839 0.20932 0.0
H1501 H 0.41761 0.67371 0.45722 0.0
H1502 H 0.36702 0.71624 0.41272 0.0
H1503 H 0.36981 0.69472 0.36107 0.0
H1504 H 0.45211 0.67228 0.38786 0.0
H1505 H 0.46134 0.64371 0.39325 0.0
H1506 H 0.45273 0.6599 0.42836 0.0
H1507 H 0.42367 0.62921 0.44339 0.0
H1508 H 0.4321 0.61301 0.40803 0.0
H1509 H 0.40312 0.62073 0.41332 0.0
H1510 H 0.38005 0.67125 0.31329 0.0
H1511 H 0.4002 0.65027 0.27031 0.0
H1512 H 0.44554 0.62372 0.34434 0.0
C1513 C 0.40682 0.67807 0.43676 0.0
C1514 C 0.39195 0.69642 0.43887 0.0
C1515 C 0.3785 0.70218 0.41145 0.0
C1516 C 0.37981 0.68994 0.38216 0.0
C1517 C 0.3948 0.67209 0.38059 0.0
C1518 C 0.40827 0.66628 0.40698 0.0
C1519 C 0.42495 0.64827 0.39734 0.0
C1520 C 0.44921 0.65654 0.40196 0.0
C1521 C 0.4207 0.62651 0.41667 0.0
C1522 C 0.41916 0.64541 0.36124 0.0
C1523 C 0.40134 0.65892 0.35236 0.0
C1524 C 0.39386 0.66039 0.31996 0.0
C1525 C 0.40542 0.64839 0.2957 0.0
C1526 C 0.42444 0.63534 0.30392 0.0
C1527 C 0.43087 0.63328 0.33731 0.0
H1528 H 0.42516 0.13311 0.16705 0.0
H1529 H 0.49765 0.14024 0.16365 0.0
H1530 H 0.49433 0.16279 0.11318 0.0
H1531 H 0.41688 0.12825 0.07907 0.0
H1532 H 0.39121 0.1442 0.079 0.0
H1533 H 0.3991 0.12833 0.11495 0.0
H1534 H 0.39637 0.16429 0.15058 0.0
H1535 H 0.38843 0.18023 0.11475 0.0
H1536 H 0.41225 0.18879 0.13899 0.0
H1537 H 0.48344 0.18544 0.06425 0.0
H1538 H 0.46558 0.20628 0.01893 0.0
H1539 H 0.40013 0.18413 0.05263 0.0
C1540 C 0.44035 0.13937 0.15568 0.0
C1541 C 0.46166 0.13486 0.16949 0.0
C1542 C 0.4811 0.14341 0.15372 0.0
C1543 C 0.47942 0.15626 0.12496 0.0
C1544 C 0.45821 0.16042 0.1121 0.0
C1545 C 0.439 0.15222 0.12682 0.0
C1546 C 0.41826 0.15933 0.10788 0.0
C1547 C 0.40562 0.1388 0.09443 0.0
C1548 C 0.40293 0.17403 0.12933 0.0
C1549 C 0.42884 0.17284 0.08032 0.0
C1550 C 0.45191 0.17328 0.08336 0.0
C1551 C 0.46541 0.18513 0.06148 0.0
C1552 C 0.45508 0.19694 0.03582 0.0
C1553 C 0.43146 0.19674 0.03209 0.0
C1554 C 0.41822 0.18441 0.05461 0.0
H1555 H 0.55338 0.71078 0.82715 0.0
H1556 H 0.57483 0.64117 0.82774 0.0
H1557 H 0.59307 0.64713 0.88169 0.0
H1558 H 0.60328 0.73395 0.86485 0.0
H1559 H 0.58787 0.75453 0.88819 0.0
H1560 H 0.57714 0.74483 0.8493 0.0
H1561 H 0.53993 0.73348 0.87761 0.0
H1562 H 0.55065 0.74307 0.91655 0.0
H1563 H 0.54057 0.71469 0.91241 0.0
H1564 H 0.60768 0.66042 0.93661 0.0
H1565 H 0.61869 0.68035 0.98742 0.0
H1566 H 0.58793 0.74128 0.94987 0.0
C1567 C 0.56202 0.69679 0.83846 0.0
C1568 C 0.56269 0.67549 0.82322 0.0
C1569 C 0.57415 0.65764 0.83893 0.0
C1570 C 0.58453 0.66086 0.86957 0.0
C1571 C 0.58336 0.68203 0.88403 0.0
C1572 C 0.5725 0.69972 0.8689 0.0
C1573 C 0.57341 0.72075 0.88974 0.0
C1574 C 0.5862 0.73962 0.87196 0.0
C1575 C 0.54973 0.72843 0.89967 0.0
C1576 C 0.58639 0.71207 0.91907 0.0
C1577 C 0.59195 0.68971 0.91539 0.0
C1578 C 0.60354 0.67797 0.9397 0.0
C1579 C 0.60967 0.68942 0.96849 0.0
C1580 C 0.60426 0.7124 0.97265 0.0
C1581 C 0.59247 0.72376 0.94747 0.0
H1582 H 0.02455 0.83083 0.69831 0.0
H1583 H 0.07958 0.87364 0.72916 0.0
H1584 H 0.10366 0.85686 0.68628 0.0
H1585 H 0.05858 0.78168 0.68078 0.0
H1586 H 0.04187 0.77353 0.64583 0.0
H1587 H 0.02917 0.78855 0.67947 0.0
H1588 H 0.01514 0.81904 0.63893 0.0
H1589 H 0.02777 0.80412 0.60521 0.0
H1590 H 0.03498 0.83307 0.61249 0.0
H1591 H 0.12145 0.83604 0.63861 0.0
H1592 H 0.13128 0.8129 0.5901 0.0
H1593 H 0.06468 0.78352 0.59185 0.0
C1594 C 0.04166 0.83671 0.69611 0.0
C1595 C 0.05013 0.85364 0.71708 0.0
C1596 C 0.07269 0.86069 0.71344 0.0
C1597 C 0.08652 0.85125 0.68916 0.0
C1598 C 0.07761 0.83462 0.66892 0.0
C1599 C 0.05573 0.82733 0.67228 0.0
C1600 C 0.05014 0.80935 0.6473 0.0
C1601 C 0.04462 0.78696 0.66438 0.0
C1602 C 0.03087 0.81686 0.62464 0.0
C1603 C 0.07215 0.80801 0.62891 0.0
C1604 C 0.08786 0.82258 0.64182 0.0
C1605 C 0.10931 0.8245 0.62838 0.0
C1606 C 0.11475 0.8113 0.60086 0.0
C1607 C 0.09877 0.79645 0.58711 0.0
C1608 C 0.07731 0.79472 0.60167 0.0
H1609 H 0.88803 0.32837 0.42101 0.0
H1610 H 0.90207 0.25707 0.41156 0.0
H1611 H 0.92223 0.26425 0.35994 0.0
H1612 H 0.88007 0.33933 0.33313 0.0
H1613 H 0.89361 0.36636 0.33461 0.0
H1614 H 0.87919 0.35574 0.37036 0.0
H1615 H 0.91533 0.36056 0.40503 0.0
H1616 H 0.92984 0.37117 0.36941 0.0
H1617 H 0.94092 0.3474 0.39149 0.0
H1618 H 0.94247 0.27874 0.31159 0.0
H1619 H 0.96146 0.29989 0.26781 0.0
H1620 H 0.93439 0.36211 0.30669 0.0
C1621 C 0.89515 0.31425 0.40791 0.0
C1622 C 0.89342 0.29215 0.42047 0.0
C1623 C 0.90316 0.27417 0.40263 0.0
C1624 C 0.91463 0.27804 0.37317 0.0
C1625 C 0.91621 0.29997 0.36171 0.0
C1626 C 0.90673 0.31781 0.37833 0.0
C1627 C 0.91161 0.33981 0.36084 0.0
C1628 C 0.88982 0.35096 0.34903 0.0
C1629 C 0.92524 0.35566 0.38302 0.0
C1630 C 0.9255 0.33149 0.33206 0.0
C1631 C 0.92786 0.30843 0.33317 0.0
C1632 C 0.94061 0.29677 0.31024 0.0
C1633 C 0.95139 0.30899 0.2855 0.0
C1634 C 0.94932 0.33264 0.28373 0.0
C1635 C 0.93603 0.34402 0.3072 0.0
H1636 H 0.47535 0.83425 0.29151 0.0
H1637 H 0.42163 0.81732 0.22383 0.0
H1638 H 0.39745 0.80713 0.27094 0.0
H1639 H 0.46557 0.79019 0.34921 0.0
H1640 H 0.4721 0.80719 0.38462 0.0
H1641 H 0.48489 0.81333 0.34552 0.0
H1642 H 0.46987 0.85404 0.34858 0.0
H1643 H 0.4569 0.84802 0.38764 0.0
H1644 H 0.44027 0.8588 0.35414 0.0
H1645 H 0.37949 0.79754 0.32608 0.0
H1646 H 0.36964 0.7894 0.38412 0.0
H1647 H 0.43484 0.81403 0.41486 0.0
C1648 C 0.45852 0.82837 0.28649 0.0
C1649 C 0.45044 0.82656 0.25387 0.0
C1650 C 0.42823 0.8189 0.24856 0.0
C1651 C 0.41434 0.81308 0.27518 0.0
C1652 C 0.42283 0.81517 0.30701 0.0
C1653 C 0.4444 0.82269 0.31271 0.0
C1654 C 0.44961 0.82336 0.34915 0.0
C1655 C 0.46919 0.80757 0.35761 0.0
C1656 C 0.45444 0.84749 0.36054 0.0
C1657 C 0.42768 0.81482 0.36311 0.0
C1658 C 0.4124 0.81017 0.3385 0.0
C1659 C 0.39128 0.8013 0.34556 0.0
C1660 C 0.3858 0.79678 0.3786 0.0
C1661 C 0.40135 0.80124 0.40413 0.0
C1662 C 0.42241 0.81067 0.39607 0.0
H1663 H 0.93954 0.68159 0.18588 0.0
H1664 H 0.9494 0.6176 0.13706 0.0
H1665 H 0.93119 0.63268 0.08699 0.0
H1666 H 0.88572 0.6954 0.14983 0.0
H1667 H 0.89226 0.7248 0.1458 0.0
H1668 H 0.90485 0.70852 0.17827 0.0
H1669 H 0.94433 0.72043 0.15815 0.0
H1670 H 0.93186 0.73669 0.12559 0.0
H1671 H 0.95222 0.71534 0.11598 0.0
H1672 H 0.91233 0.65492 0.04223 0.0
H1673 H 0.89572 0.68301 0.00498 0.0
H1674 H 0.8996 0.73304 0.08248 0.0
C1675 C 0.9376 0.67063 0.16482 0.0
C1676 C 0.94566 0.64832 0.16544 0.0
C1677 C 0.94325 0.63469 0.13714 0.0
C1678 C 0.93291 0.64311 0.10864 0.0
C1679 C 0.9253 0.66523 0.10881 0.0
C1680 C 0.92764 0.67884 0.13609 0.0
C1681 C 0.91904 0.70233 0.12938 0.0
C1682 C 0.89929 0.70809 0.15217 0.0
C1683 C 0.938 0.71971 0.13245 0.0
C1684 C 0.91144 0.69981 0.09402 0.0
C1685 C 0.91504 0.67824 0.08272 0.0
C1686 C 0.9094 0.67185 0.05083 0.0
C1687 C 0.8999 0.68795 0.02988 0.0
C1688 C 0.89628 0.71027 0.04078 0.0
C1689 C 0.90215 0.71616 0.07336 0.0
H1690 H 0.05112 0.20061 0.92238 0.0
H1691 H 0.11995 0.17727 0.91684 0.0
H1692 H 0.11101 0.1569 0.86552 0.0
H1693 H 0.02511 0.14943 0.89125 0.0
H1694 H 0.00383 0.16451 0.86878 0.0
H1695 H 0.01553 0.17636 0.90576 0.0
H1696 H 0.02621 0.21228 0.87348 0.0
H1697 H 0.01467 0.2004 0.83647 0.0
H1698 H 0.04333 0.20999 0.83707 0.0
H1699 H 0.09502 0.14084 0.81302 0.0
H1700 H 0.07276 0.12896 0.76473 0.0
H1701 H 0.01433 0.16224 0.80568 0.0
C1702 C 0.0643 0.19107 0.91058 0.0
C1703 C 0.08626 0.19055 0.92366 0.0
C1704 C 0.10299 0.17786 0.90736 0.0
C1705 C 0.09808 0.16626 0.87817 0.0
C1706 C 0.07633 0.16737 0.86574 0.0
C1707 C 0.05965 0.1793 0.88158 0.0
C1708 C 0.03772 0.17811 0.86285 0.0
C1709 C 0.01948 0.16639 0.88339 0.0
C1710 C 0.03005 0.20159 0.85181 0.0
C1711 C 0.04476 0.16387 0.83379 0.0
C1712 C 0.06707 0.15785 0.83585 0.0
C1713 C 0.07748 0.14529 0.81127 0.0
C1714 C 0.06472 0.13868 0.78389 0.0
C1715 C 0.04177 0.14456 0.78139 0.0
C1716 C 0.03177 0.15727 0.80686 0.0
H1717 H 0.59392 0.31021 0.54323 0.0
H1718 H 0.61953 0.25143 0.59387 0.0
H1719 H 0.61376 0.27044 0.64733 0.0
H1720 H 0.61585 0.35299 0.59966 0.0
H1721 H 0.59096 0.36999 0.59656 0.0
H1722 H 0.59955 0.35284 0.56229 0.0
H1723 H 0.56061 0.33352 0.56174 0.0
H1724 H 0.55188 0.35066 0.59579 0.0
H1725 H 0.55026 0.32054 0.59885 0.0
H1726 H 0.60323 0.29506 0.69514 0.0
H1727 H 0.5853 0.32143 0.73372 0.0
H1728 H 0.56529 0.36353 0.65155 0.0
C1729 C 0.59875 0.30148 0.56552 0.0
C1730 C 0.60748 0.27945 0.56441 0.0
C1731 C 0.61295 0.26836 0.59417 0.0
C1732 C 0.60986 0.27908 0.6246 0.0
C1733 C 0.60114 0.3008 0.6248 0.0
C1734 C 0.59546 0.31178 0.59603 0.0
C1735 C 0.58436 0.33413 0.60298 0.0
C1736 C 0.59853 0.35364 0.58958 0.0
C1737 C 0.56036 0.33473 0.58903 0.0
C1738 C 0.58431 0.33387 0.64023 0.0
C1739 C 0.59442 0.31469 0.65234 0.0
C1740 C 0.59543 0.3102 0.68595 0.0
C1741 C 0.58522 0.32534 0.70768 0.0
C1742 C 0.57388 0.34459 0.69571 0.0
C1743 C 0.57401 0.34913 0.66156 0.0
H1744 H 0.02176 0.46335 0.23815 0.0
H1745 H 0.95077 0.44904 0.22897 0.0
H1746 H 0.94211 0.48873 0.24196 0.0
H1747 H 0.01618 0.50272 0.30722 0.0
H1748 H 0.03868 0.52025 0.29252 0.0
H1749 H 0.03888 0.4906 0.28399 0.0
H1750 H 0.04227 0.49913 0.22162 0.0
H1751 H 0.04177 0.52878 0.22988 0.0
H1752 H 0.02159 0.51669 0.20205 0.0
H1753 H 0.94178 0.53097 0.24989 0.0
H1754 H 0.94935 0.57122 0.26003 0.0
H1755 H 0.02042 0.55687 0.26787 0.0
C1756 C 0.00438 0.46852 0.23932 0.0
C1757 C 0.98691 0.45324 0.23247 0.0
C1758 C 0.96437 0.46051 0.23438 0.0
C1759 C 0.95932 0.48301 0.24153 0.0
C1760 C 0.97701 0.4978 0.24734 0.0
C1761 C 0.99906 0.49071 0.24705 0.0
C1762 C 0.01502 0.50983 0.25425 0.0
C1763 C 0.02794 0.50559 0.28641 0.0
C1764 C 0.0311 0.51384 0.22521 0.0
C1765 C 0.99856 0.52894 0.25793 0.0
C1766 C 0.97673 0.52175 0.25355 0.0
C1767 C 0.95877 0.5367 0.25392 0.0
C1768 C 0.96324 0.55953 0.25945 0.0
C1769 C 0.98543 0.56706 0.26501 0.0
C1770 C 0.00325 0.55151 0.26418 0.0
H1771 H 0.80026 0.77265 0.48794 0.0
H1772 H 0.80894 0.70164 0.50782 0.0
H1773 H 0.76781 0.69725 0.51231 0.0
H1774 H 0.75379 0.78087 0.54475 0.0
H1775 H 0.74009 0.8009 0.51826 0.0
H1776 H 0.77015 0.79822 0.51743 0.0
H1777 H 0.76853 0.79103 0.45455 0.0
H1778 H 0.73845 0.79334 0.45527 0.0
H1779 H 0.75147 0.76844 0.43895 0.0
H1780 H 0.72542 0.70034 0.51048 0.0
H1781 H 0.6855 0.71155 0.51021 0.0
H1782 H 0.70512 0.78081 0.49409 0.0
C1783 C 0.79354 0.75621 0.49355 0.0
C1784 C 0.80778 0.73746 0.49743 0.0
C1785 C 0.79834 0.71626 0.50496 0.0
C1786 C 0.775 0.71358 0.50731 0.0
C1787 C 0.76142 0.73233 0.50252 0.0
C1788 C 0.77038 0.75331 0.49644 0.0
C1789 C 0.75223 0.77086 0.49284 0.0
C1790 C 0.75418 0.78876 0.51994 0.0
C1791 C 0.75271 0.78154 0.45835 0.0
C1792 C 0.7316 0.75646 0.4975 0.0
C1793 C 0.73719 0.73424 0.50268 0.0
C1794 C 0.72086 0.71773 0.50675 0.0
C1795 C 0.69823 0.72422 0.50631 0.0
C1796 C 0.69221 0.74705 0.50226 0.0
C1797 C 0.70919 0.76325 0.49745 0.0
H1798 H 0.47394 0.46962 0.7199 0.0
H1799 H 0.54382 0.45259 0.73594 0.0
H1800 H 0.55327 0.49293 0.7386 0.0
H1801 H 0.4848 0.51837 0.66781 0.0
H1802 H 0.46135 0.53386 0.68411 0.0
H1803 H 0.46042 0.50367 0.68275 0.0
H1804 H 0.4523 0.50276 0.74541 0.0
H1805 H 0.45357 0.53293 0.74706 0.0
H1806 H 0.47142 0.51638 0.77337 0.0
H1807 H 0.55452 0.53526 0.74373 0.0
H1808 H 0.54847 0.57629 0.74282 0.0
H1809 H 0.47811 0.5655 0.72071 0.0
C1810 C 0.49128 0.47435 0.7236 0.0
C1811 C 0.50814 0.45791 0.72777 0.0
C1812 C 0.53064 0.46485 0.73244 0.0
C1813 C 0.53615 0.48773 0.73425 0.0
C1814 C 0.51902 0.50348 0.73088 0.0
C1815 C 0.49712 0.49709 0.72498 0.0
C1816 C 0.48192 0.51731 0.72163 0.0
C1817 C 0.47151 0.51836 0.68701 0.0
C1818 C 0.46373 0.51734 0.74847 0.0
C1819 C 0.49863 0.53609 0.7269 0.0
C1820 C 0.5199 0.52778 0.7326 0.0
C1821 C 0.53798 0.54195 0.73898 0.0
C1822 C 0.53434 0.56524 0.73868 0.0
C1823 C 0.51284 0.57413 0.73161 0.0
C1824 C 0.49477 0.55925 0.72603 0.0
H1825 H 0.80087 0.25977 0.02495 0.0
H1826 H 0.81716 0.1894 0.01211 0.0
H1827 H 0.77725 0.18081 0.00269 0.0
H1828 H 0.75115 0.25034 0.07058 0.0
H1829 H 0.73561 0.27335 0.05301 0.0
H1830 H 0.76572 0.27474 0.05535 0.0
H1831 H 0.76798 0.28165 0.99249 0.0
H1832 H 0.73784 0.28055 0.99 0.0
H1833 H 0.7546 0.26222 0.96474 0.0
H1834 H 0.73599 0.17931 0.997 0.0
H1835 H 0.69514 0.18489 0.99526 0.0
H1836 H 0.70447 0.25597 0.01453 0.0
C1837 C 0.79601 0.24269 0.01937 0.0
C1838 C 0.81205 0.22525 0.01885 0.0
C1839 C 0.80509 0.20297 0.01244 0.0
C1840 C 0.78248 0.19793 0.00706 0.0
C1841 C 0.76698 0.21533 0.00853 0.0
C1842 C 0.77333 0.23727 0.01451 0.0
C1843 C 0.75296 0.25246 0.01675 0.0
C1844 C 0.75127 0.26336 0.05096 0.0
C1845 C 0.75338 0.27027 0.98936 0.0
C1846 C 0.73427 0.23558 0.01132 0.0
C1847 C 0.74283 0.21432 0.00636 0.0
C1848 C 0.72905 0.19588 0.00075 0.0
C1849 C 0.70584 0.19924 0.99984 0.0
C1850 C 0.69655 0.22085 0.00483 0.0
C1851 C 0.71103 0.23922 0.01089 0.0
H1852 H 0.99623 0.4705 0.72861 0.0
H1853 H 0.00592 0.44268 0.82612 0.0
H1854 H 0.01148 0.48113 0.84833 0.0
H1855 H 0.03854 0.51582 0.73728 0.0
H1856 H 0.02213 0.53511 0.71304 0.0
H1857 H 0.02058 0.50541 0.70503 0.0
H1858 H 0.97747 0.50677 0.7126 0.0
H1859 H 0.97889 0.53637 0.72091 0.0
H1860 H 0.96596 0.51776 0.75031 0.0
H1861 H 0.01022 0.5228 0.86036 0.0
H1862 H 0.00727 0.56427 0.86062 0.0
H1863 H 0.0023 0.56448 0.75425 0.0
C1864 C 0.99992 0.47254 0.75455 0.0
C1865 C 0.0006 0.45385 0.77584 0.0
C1866 C 0.00549 0.45692 0.80956 0.0
C1867 C 0.00859 0.47864 0.82228 0.0
C1868 C 0.00732 0.49685 0.80068 0.0
C1869 C 0.00364 0.49394 0.76738 0.0
C1870 C 0.00271 0.51617 0.74938 0.0
C1871 C 0.02215 0.51825 0.72473 0.0
C1872 C 0.9799 0.51945 0.73231 0.0
C1873 C 0.0056 0.53218 0.7779 0.0
C1874 C 0.00811 0.52073 0.80733 0.0
C1875 C 0.00887 0.53193 0.83741 0.0
C1876 C 0.00708 0.5554 0.83735 0.0
C1877 C 0.00497 0.56736 0.80742 0.0
C1878 C 0.00448 0.55564 0.77734 0.0
H1879 H 0.29015 0.22934 0.50003 0.0
H1880 H 0.30919 0.29838 0.48075 0.0
H1881 H 0.26966 0.3101 0.48874 0.0
H1882 H 0.23885 0.23028 0.45778 0.0
H1883 H 0.22454 0.21239 0.48675 0.0
H1884 H 0.25438 0.20994 0.48143 0.0
H1885 H 0.26036 0.21649 0.54392 0.0
H1886 H 0.23051 0.21876 0.5495 0.0
H1887 H 0.24865 0.24111 0.56306 0.0
H1888 H 0.2268 0.3133 0.49437 0.0
H1889 H 0.18584 0.30812 0.50185 0.0
H1890 H 0.19652 0.23706 0.5189 0.0
C1891 C 0.28614 0.24699 0.49778 0.0
C1892 C 0.30276 0.26294 0.48964 0.0
C1893 C 0.29674 0.28588 0.48712 0.0
C1894 C 0.27433 0.29266 0.49147 0.0
C1895 C 0.25827 0.27632 0.4987 0.0
C1896 C 0.26406 0.25401 0.50226 0.0
C1897 C 0.24387 0.23953 0.50955 0.0
C1898 C 0.2402 0.22201 0.48225 0.0
C1899 C 0.24598 0.22832 0.54353 0.0
C1900 C 0.22566 0.2571 0.5093 0.0
C1901 C 0.23413 0.27823 0.5028 0.0
C1902 C 0.22008 0.29685 0.49988 0.0
C1903 C 0.19685 0.29375 0.50401 0.0
C1904 C 0.18801 0.27223 0.51129 0.0
C1905 C 0.20274 0.25379 0.5139 0.0
H1906 H 0.53484 0.53494 0.26022 0.0
H1907 H 0.4689 0.54718 0.21898 0.0
H1908 H 0.46092 0.50661 0.22004 0.0
H1909 H 0.54561 0.4811 0.21959 0.0
H1910 H 0.55869 0.46876 0.25526 0.0
H1911 H 0.56025 0.49862 0.24866 0.0
H1912 H 0.54302 0.50548 0.30631 0.0
H1913 H 0.54141 0.47566 0.31306 0.0
H1914 H 0.51656 0.49267 0.31662 0.0
H1915 H 0.45965 0.46531 0.22578 0.0
H1916 H 0.46378 0.42545 0.24036 0.0
H1917 H 0.52945 0.43932 0.28184 0.0
C1918 C 0.51889 0.52894 0.25104 0.0
C1919 C 0.50252 0.54408 0.23924 0.0
C1920 C 0.48163 0.53579 0.22809 0.0
C1921 C 0.47698 0.5128 0.22845 0.0
C1922 C 0.49329 0.49828 0.2405 0.0
C1923 C 0.51374 0.50594 0.25195 0.0
C1924 C 0.52754 0.48674 0.26585 0.0
C1925 C 0.54932 0.48363 0.24615 0.0
C1926 C 0.53241 0.49036 0.30264 0.0
C1927 C 0.51157 0.46723 0.26053 0.0
C1928 C 0.4921 0.4743 0.24537 0.0
C1929 C 0.47481 0.45952 0.23769 0.0
C1930 C 0.47735 0.43688 0.24602 0.0
C1931 C 0.4969 0.42921 0.26234 0.0
C1932 C 0.51427 0.44466 0.26952 0.0
H1933 H 0.20779 0.7381 0.01067 0.0
H1934 H 0.20434 0.8078 0.04089 0.0
H1935 H 0.24528 0.80823 0.04933 0.0
H1936 H 0.25416 0.72098 0.06585 0.0
H1937 H 0.26682 0.70323 0.03513 0.0
H1938 H 0.23691 0.70749 0.03525 0.0
H1939 H 0.2388 0.72098 0.97467 0.0
H1940 H 0.2687 0.71698 0.97446 0.0
H1941 H 0.25706 0.74395 0.96395 0.0
H1942 H 0.28631 0.80211 0.05125 0.0
H1943 H 0.32554 0.79 0.04605 0.0
H1944 H 0.30325 0.72455 0.01208 0.0
C1945 C 0.21565 0.75322 0.01987 0.0
C1946 C 0.20296 0.77286 0.02553 0.0
C1947 C 0.21381 0.79258 0.03659 0.0
C1948 C 0.23702 0.79297 0.04149 0.0
C1949 C 0.24917 0.77355 0.03494 0.0
C1950 C 0.23895 0.75402 0.02436 0.0
C1951 C 0.25622 0.73608 0.0167 0.0
C1952 C 0.25335 0.71574 0.0396 0.0
C1953 C 0.25512 0.7291 0.98028 0.0
C1954 C 0.27769 0.74872 0.02421 0.0
C1955 C 0.27315 0.77021 0.03504 0.0
C1956 C 0.29011 0.78527 0.043 0.0
C1957 C 0.31238 0.77821 0.0399 0.0
C1958 C 0.31757 0.7563 0.02864 0.0
C1959 C 0.29989 0.7414 0.02071 0.0
H1960 H 0.52362 0.96739 0.76648 0.0
H1961 H 0.45321 0.94946 0.76273 0.0
H1962 H 0.44304 0.98968 0.76683 0.0
H1963 H 0.51741 0.01392 0.82502 0.0
H1964 H 0.53901 0.03019 0.80516 0.0
H1965 H 0.54019 1.0 0.80423 0.0
H1966 H 0.54235 0.00131 0.74052 0.0
H1967 H 0.54069 0.03146 0.7412 0.0
H1968 H 0.52063 0.01549 0.71771 0.0
H1969 H 0.44106 0.03257 0.76555 0.0
H1970 H 0.44723 0.07367 0.76746 0.0
H1971 H 0.51896 0.06254 0.77382 0.0
C1972 C 0.50603 0.97187 0.76715 0.0
C1973 C 0.48919 0.95533 0.7643 0.0
C1974 C 0.46638 0.96186 0.76525 0.0
C1975 C 0.46046 0.98467 0.76727 0.0
C1976 C 0.47757 0.00062 0.7688 0.0
C1977 C 0.49988 0.99441 0.76953 0.0
C1978 C 0.51515 0.01464 0.77111 0.0
C1979 C 0.52873 0.01469 0.8033 0.0
C1980 C 0.53061 0.01578 0.74083 0.0
C1981 C 0.49801 0.03329 0.77063 0.0
C1982 C 0.47641 0.02497 0.76902 0.0
C1983 C 0.4579 0.03923 0.76721 0.0
C1984 C 0.46157 0.06254 0.768 0.0
C1985 C 0.48356 0.0713 0.77091 0.0
C1986 C 0.50193 0.05638 0.77182 0.0
H1987 H 0.30089 0.27165 0.98665 0.0
H1988 H 0.31646 0.20077 0.97932 0.0
H1989 H 0.27613 0.19169 0.98615 0.0
H1990 H 0.25607 0.2662 0.04785 0.0
H1991 H 0.24009 0.28861 0.02948 0.0
H1992 H 0.27021 0.28875 0.02676 0.0
H1993 H 0.26723 0.29174 0.96322 0.0
H1994 H 0.23713 0.29108 0.96567 0.0
H1995 H 0.25172 0.27077 0.94079 0.0
H1996 H 0.233 0.19115 0.98836 0.0
H1997 H 0.19227 0.1989 0.99327 0.0
H1998 H 0.2065 0.27017 0.99947 0.0
C1999 C 0.29591 0.25417 0.98711 0.0
C2000 C 0.31175 0.2369 0.98247 0.0
C2001 C 0.30458 0.21424 0.98321 0.0
C2002 C 0.28171 0.20897 0.98677 0.0
C2003 C 0.26639 0.22655 0.98997 0.0
C2004 C 0.27335 0.24866 0.99084 0.0
C2005 C 0.25382 0.26461 0.99398 0.0
C2006 C 0.25512 0.27781 0.02645 0.0
C2007 C 0.2524 0.28048 0.96413 0.0
C2008 C 0.23464 0.2481 0.99423 0.0
C2009 C 0.24206 0.22621 0.99174 0.0
C2010 C 0.22707 0.20824 0.99067 0.0
C2011 C 0.20397 0.21279 0.99316 0.0
C2012 C 0.19623 0.23512 0.99688 0.0
C2013 C 0.21186 0.25289 0.9969 0.0
H2014 H 0.02493 0.04755 0.26241 0.0
H2015 H 0.9555 0.06491 0.28154 0.0
H2016 H 0.94755 0.02572 0.29677 0.0
H2017 H 0.01313 0.9952 0.22452 0.0
H2018 H 0.03705 0.98069 0.2413 0.0
H2019 H 0.0382 0.01056 0.23484 0.0
H2020 H 0.04854 0.0165 0.29614 0.0
H2021 H 0.04755 0.98661 0.30276 0.0
H2022 H 0.03068 0.00502 0.32775 0.0
H2023 H 0.94635 0.98515 0.30761 0.0
H2024 H 0.95159 0.94446 0.31248 0.0
H2025 H 0.02153 0.9519 0.28442 0.0
C2026 C 0.00819 0.04309 0.27038 0.0
C2027 C 0.99083 0.05923 0.271 0.0
C2028 C 0.96901 0.05277 0.28086 0.0
C2029 C 0.96434 0.03059 0.28967 0.0
C2030 C 0.98163 0.01498 0.28824 0.0
C2031 C 0.00312 0.02081 0.2788 0.0
C2032 C 0.01816 1.00028 0.27748 0.0
C2033 C 0.02716 0.99646 0.24245 0.0
C2034 C 0.03737 0.00223 0.30253 0.0
C2035 C 0.00165 0.98207 0.28733 0.0
C2036 C 0.98078 0.99109 0.29372 0.0
C2037 C 0.96263 0.97785 0.30284 0.0
C2038 C 0.96582 0.9547 0.30552 0.0
C2039 C 0.98699 0.94486 0.29886 0.0
C2040 C 0.00515 0.95884 0.28967 0.0
H2041 H 0.30213 0.76878 0.50262 0.0
H2042 H 0.31495 0.6979 0.5189 0.0
H2043 H 0.27448 0.69034 0.51823 0.0
H2044 H 0.2527 0.77162 0.55439 0.0
H2045 H 0.2379 0.79088 0.52797 0.0
H2046 H 0.26809 0.79114 0.5291 0.0
H2047 H 0.26948 0.7852 0.46597 0.0
H2048 H 0.2393 0.78514 0.46462 0.0
H2049 H 0.25478 0.76176 0.44805 0.0
H2050 H 0.23335 0.68975 0.51408 0.0
H2051 H 0.19286 0.6964 0.5067 0.0
H2052 H 0.20531 0.76777 0.49628 0.0
C2053 C 0.29635 0.75169 0.50581 0.0
C2054 C 0.3117 0.73393 0.51082 0.0
C2055 C 0.30352 0.7118 0.51523 0.0
C2056 C 0.28055 0.7073 0.51489 0.0
C2057 C 0.26586 0.72513 0.51045 0.0
C2058 C 0.2733 0.7469 0.50603 0.0
C2059 C 0.25365 0.76286 0.50199 0.0
C2060 C 0.25306 0.78015 0.53004 0.0
C2061 C 0.25435 0.77441 0.46814 0.0
C2062 C 0.23415 0.74656 0.50445 0.0
C2063 C 0.2417 0.72489 0.50926 0.0
C2064 C 0.22716 0.70665 0.51066 0.0
C2065 C 0.20423 0.71058 0.50647 0.0
C2066 C 0.19605 0.73258 0.50139 0.0
C2067 C 0.21115 0.75086 0.50089 0.0
H2068 H 0.50974 0.02209 0.23597 0.0
H2069 H 0.44554 0.03573 0.18994 0.0
H2070 H 0.44268 0.99614 0.17304 0.0
H2071 H 0.52923 0.97938 0.176 0.0
H2072 H 0.54191 0.96214 0.20736 0.0
H2073 H 0.54026 0.9921 0.21285 0.0
H2074 H 0.51972 0.9861 0.26831 0.0
H2075 H 0.52105 0.95615 0.26282 0.0
H2076 H 0.49438 0.96963 0.26929 0.0
H2077 H 0.44513 0.95539 0.16437 0.0
H2078 H 0.45303 0.91506 0.16277 0.0
H2079 H 0.51539 0.92616 0.2157 0.0
C2080 C 0.49541 0.01679 0.22157 0.0
C2081 C 0.47795 0.032 0.2139 0.0
C2082 C 0.45913 0.02437 0.19589 0.0
C2083 C 0.45736 0.00193 0.1862 0.0
C2084 C 0.47448 0.98722 0.19489 0.0
C2085 C 0.49321 0.99423 0.21204 0.0
C2086 C 0.50842 0.97446 0.2199 0.0
C2087 C 0.53131 0.97719 0.20301 0.0
C2088 C 0.51104 0.97141 0.25731 0.0
C2089 C 0.49512 0.9553 0.20483 0.0
C2090 C 0.4757 0.96321 0.19039 0.0
C2091 C 0.46037 0.94897 0.17534 0.0
C2092 C 0.46505 0.92601 0.17464 0.0
C2093 C 0.4849 0.91728 0.18902 0.0
C2094 C 0.50008 0.93222 0.2045 0.0
H2095 H 0.79477 0.73208 0.00031 0.0
H2096 H 0.80809 0.80292 0.01528 0.0
H2097 H 0.76793 0.80942 0.0263 0.0
H2098 H 0.74158 0.73739 0.96112 0.0
H2099 H 0.7291 0.71366 0.98163 0.0
H2100 H 0.7589 0.71439 0.97467 0.0
H2101 H 0.76606 0.70874 0.03704 0.0
H2102 H 0.73628 0.70777 0.04415 0.0
H2103 H 0.75337 0.72768 0.06616 0.0
H2104 H 0.72617 0.80877 0.03139 0.0
H2105 H 0.68596 0.80016 0.03864 0.0
H2106 H 0.69995 0.72929 0.02563 0.0
C2107 C 0.7892 0.74891 0.00609 0.0
C2108 C 0.80446 0.76703 0.00683 0.0
C2109 C 0.79666 0.7888 0.01478 0.0
C2110 C 0.77388 0.79268 0.02086 0.0
C2111 C 0.75921 0.77454 0.01953 0.0
C2112 C 0.76657 0.753 0.01307 0.0
C2113 C 0.74736 0.73637 0.01442 0.0
C2114 C 0.74405 0.72477 0.98097 0.0
C2115 C 0.75099 0.71913 0.0421 0.0
C2116 C 0.72804 0.75199 0.02222 0.0
C2117 C 0.73522 0.77398 0.02453 0.0
C2118 C 0.72036 0.79159 0.03006 0.0
C2119 C 0.69757 0.78656 0.03393 0.0
C2120 C 0.68996 0.76408 0.03288 0.0
C2121 C 0.70541 0.7466 0.02687 0.0
H2122 H 0.02187 0.0494 0.72533 0.0
H2123 H 0.95029 0.06185 0.72877 0.0
H2124 H 0.94341 0.02106 0.73505 0.0
H2125 H 0.0204 0.99771 0.68067 0.0
H2126 H 0.04266 0.98495 0.70412 0.0
H2127 H 0.04185 0.01496 0.69901 0.0
H2128 H 0.04253 0.02033 0.76234 0.0
H2129 H 0.04373 0.99037 0.76761 0.0
H2130 H 0.02185 0.0063 0.78733 0.0
H2131 H 0.94464 0.97841 0.73875 0.0
H2132 H 0.95397 0.93847 0.74871 0.0
H2133 H 0.02476 0.95491 0.746 0.0
C2134 C 0.00474 0.04355 0.72746 0.0
C2135 C 0.98658 0.0587 0.72638 0.0
C2136 C 0.96443 0.05048 0.7297 0.0
C2137 C 0.96037 0.02735 0.73296 0.0
C2138 C 0.97868 0.0128 0.73331 0.0
C2139 C 0.00043 0.02066 0.73132 0.0
C2140 C 0.01726 0.00179 0.73414 0.0
C2141 C 0.03137 0.99974 0.7026 0.0
C2142 C 0.03221 0.00488 0.76468 0.0
C2143 C 0.00161 0.98202 0.73804 0.0
C2144 C 0.97941 0.98859 0.73689 0.0
C2145 C 0.96197 0.97311 0.73982 0.0
C2146 C 0.96741 0.95046 0.74518 0.0
C2147 C 0.99007 0.94368 0.74812 0.0
C2148 C 0.00729 0.95965 0.74387 0.0
H2149 H 0.69023 0.27672 0.46664 0.0
H2150 H 0.68438 0.20417 0.46984 0.0
H2151 H 0.72561 0.20082 0.46845 0.0
H2152 H 0.74014 0.27977 0.41374 0.0
H2153 H 0.752 0.3029 0.43638 0.0
H2154 H 0.72201 0.29962 0.434 0.0
H2155 H 0.71952 0.29974 0.4977 0.0
H2156 H 0.74943 0.30311 0.50025 0.0
H2157 H 0.73601 0.27997 0.52098 0.0
H2158 H 0.76727 0.2053 0.4693 0.0
H2159 H 0.80643 0.21726 0.4774 0.0
H2160 H 0.78518 0.28697 0.47589 0.0
C2161 C 0.69764 0.26013 0.46649 0.0
C2162 C 0.68414 0.2407 0.46808 0.0
C2163 C 0.69443 0.21928 0.46863 0.0
C2164 C 0.71781 0.2172 0.46761 0.0
C2165 C 0.73066 0.2367 0.46628 0.0
C2166 C 0.72097 0.25776 0.46599 0.0
C2167 C 0.73859 0.27603 0.46741 0.0
C2168 C 0.73815 0.29043 0.436 0.0
C2169 C 0.73571 0.29056 0.49843 0.0
C2170 C 0.75966 0.26193 0.46916 0.0
C2171 C 0.75474 0.2393 0.46786 0.0
C2172 C 0.77137 0.22298 0.47015 0.0
C2173 C 0.79359 0.22996 0.4747 0.0
C2174 C 0.79894 0.25307 0.47735 0.0
C2175 C 0.78171 0.26919 0.47387 0.0
loop_
_geom_bond_atom_site_label_1
_geom_bond_atom_site_label_2
_geom_bond_distance
_geom_bond_site_symmetry_2
_ccdc_geom_bond_type
Mg0 O1 2.028 . S
Mg0 O7 1.986 . S
Mg0 O9 2.114 . S
Mg0 O10 2.251 . S
Mg0 O13 2.010 1_455 S
O1 Mg0 2.028 . S
O1 C4 1.250 . S
O2 Mg3 2.028 . S
O2 C4 1.248 . S
Mg3 O2 2.028 . S
Mg3 O8 2.032 . S
Mg3 O10 2.079 . S
C4 O1 1.250 . S
C4 O2 1.248 . S
C5 O6 1.264 . S
C5 O13 1.249 . S
O6 C5 1.264 . S
O7 Mg0 1.986 . S
O7 C11 1.246 . S
O8 Mg3 2.032 . S
O8 C11 1.259 . S
O9 Mg0 2.114 . S
O9 C12 1.252 . S
O10 Mg0 2.251 . S
O10 Mg3 2.079 . S
O10 C12 1.273 . S
C11 O7 1.246 . S
C11 O8 1.259 . S
C12 O9 1.252 . S
C12 O10 1.273 . S
O13 Mg0 2.010 1_655 S
O13 C5 1.249 . S
Mg14 O15 2.028 . S
Mg14 O21 1.986 . S
Mg14 O23 2.114 . S
Mg14 O24 2.251 . S
Mg14 O27 2.010 . S
O15 Mg14 2.028 . S
O15 C18 1.250 . S
O16 Mg17 2.028 . S
O16 C18 1.248 . S
Mg17 O16 2.028 . S
Mg17 O22 2.032 . S
Mg17 O24 2.079 . S
C18 O15 1.250 . S
C18 O16 1.248 . S
C19 O20 1.264 . S
C19 O27 1.249 . S
O20 C19 1.264 . S
O21 Mg14 1.986 . S
O21 C25 1.246 . S
O22 Mg17 2.032 . S
O22 C25 1.259 . S
O23 Mg14 2.114 . S
O23 C26 1.252 . S
O24 Mg14 2.251 . S
O24 Mg17 2.079 . S
O24 C26 1.273 . S
C25 O21 1.246 . S
C25 O22 1.259 . S
C26 O23 1.252 . S
C26 O24 1.273 . S
O27 Mg14 2.010 . S
O27 C19 1.249 . S
Mg28 O29 2.028 . S
Mg28 O35 1.986 . S
Mg28 O37 2.114 . S
Mg28 O38 2.251 . S
Mg28 O41 2.010 . S
O29 Mg28 2.028 . S
O29 C32 1.250 . S
O30 Mg31 2.028 . S
O30 C32 1.248 . S
Mg31 O30 2.028 . S
Mg31 O36 2.032 . S
Mg31 O38 2.079 . S
C32 O29 1.250 . S
C32 O30 1.248 . S
C33 O34 1.264 . S
C33 O41 1.249 . S
O34 C33 1.264 . S
O35 Mg28 1.986 . S
O35 C39 1.246 . S
O36 Mg31 2.032 . S
O36 C39 1.259 . S
O37 Mg28 2.114 . S
O37 C40 1.252 . S
O38 Mg28 2.251 . S
O38 Mg31 2.079 . S
O38 C40 1.273 . S
C39 O35 1.246 . S
C39 O36 1.259 . S
C40 O37 1.252 . S
C40 O38 1.273 . S
O41 Mg28 2.010 . S
O41 C33 1.249 . S
Mg42 O43 2.028 . S
Mg42 O49 1.986 . S
Mg42 O51 2.114 1_554 S
Mg42 O52 2.251 1_554 S
Mg42 O55 2.010 . S
O43 Mg42 2.028 . S
O43 C46 1.250 . S
O44 Mg45 2.028 1_554 S
O44 C46 1.248 . S
Mg45 O44 2.028 1_556 S
Mg45 O50 2.032 1_556 S
Mg45 O52 2.079 . S
C46 O43 1.250 . S
C46 O44 1.248 . S
C47 O48 1.264 . S
C47 O55 1.249 . S
O48 C47 1.264 . S
O49 Mg42 1.986 . S
O49 C53 1.246 . S
O50 Mg45 2.032 1_554 S
O50 C53 1.259 . S
O51 Mg42 2.114 1_556 S
O51 C54 1.252 . S
O52 Mg42 2.251 1_556 S
O52 Mg45 2.079 . S
O52 C54 1.273 . S
C53 O49 1.246 . S
C53 O50 1.259 . S
C54 O51 1.252 . S
C54 O52 1.273 . S
O55 Mg42 2.010 . S
O55 C47 1.249 . S
Mg56 O57 2.028 . S
Mg56 O63 1.986 . S
Mg56 O65 2.114 . S
Mg56 O66 2.251 . S
Mg56 O69 2.010 1_455 S
O57 Mg56 2.028 . S
O57 C60 1.250 . S
O58 Mg59 2.028 . S
O58 C60 1.248 . S
Mg59 O58 2.028 . S
Mg59 O64 2.032 . S
Mg59 O66 2.079 . S
C60 O57 1.250 . S
C60 O58 1.248 . S
C61 O62 1.264 . S
C61 O69 1.249 . S
O62 C61 1.264 . S
O63 Mg56 1.986 . S
O63 C67 1.246 . S
O64 Mg59 2.032 . S
O64 C67 1.259 . S
O65 Mg56 2.114 . S
O65 C68 1.252 . S
O66 Mg56 2.251 . S
O66 Mg59 2.079 . S
O66 C68 1.273 . S
C67 O63 1.246 . S
C67 O64 1.259 . S
C68 O65 1.252 . S
C68 O66 1.273 . S
O69 Mg56 2.010 1_655 S
O69 C61 1.249 . S
Mg70 O71 2.028 . S
Mg70 O77 1.986 . S
Mg70 O79 2.114 . S
Mg70 O80 2.251 . S
Mg70 O83 2.010 . S
O71 Mg70 2.028 . S
O71 C74 1.250 . S
O72 Mg73 2.028 . S
O72 C74 1.248 . S
Mg73 O72 2.028 . S
Mg73 O78 2.032 . S
Mg73 O80 2.079 . S
C74 O71 1.250 . S
C74 O72 1.248 . S
C75 O76 1.264 . S
C75 O83 1.249 . S
O76 C75 1.264 . S
O77 Mg70 1.986 . S
O77 C81 1.246 . S
O78 Mg73 2.032 . S
O78 C81 1.259 . S
O79 Mg70 2.114 . S
O79 C82 1.252 . S
O80 Mg70 2.251 . S
O80 Mg73 2.079 . S
O80 C82 1.273 . S
C81 O77 1.246 . S
C81 O78 1.259 . S
C82 O79 1.252 . S
C82 O80 1.273 . S
O83 Mg70 2.010 . S
O83 C75 1.249 . S
Mg84 O85 2.028 . S
Mg84 O91 1.986 . S
Mg84 O93 2.114 . S
Mg84 O94 2.251 . S
Mg84 O97 2.010 . S
O85 Mg84 2.028 . S
O85 C88 1.250 . S
O86 Mg87 2.028 . S
O86 C88 1.248 . S
Mg87 O86 2.028 . S
Mg87 O92 2.032 . S
Mg87 O94 2.079 . S
C88 O85 1.250 . S
C88 O86 1.248 . S
C89 O90 1.264 . S
C89 O97 1.249 . S
O90 C89 1.264 . S
O91 Mg84 1.986 . S
O91 C95 1.246 . S
O92 Mg87 2.032 . S
O92 C95 1.259 . S
O93 Mg84 2.114 . S
O93 C96 1.252 . S
O94 Mg84 2.251 . S
O94 Mg87 2.079 . S
O94 C96 1.273 . S
C95 O91 1.246 . S
C95 O92 1.259 . S
C96 O93 1.252 . S
C96 O94 1.273 . S
O97 Mg84 2.010 . S
O97 C89 1.249 . S
Mg98 O99 2.028 . S
Mg98 O105 1.986 . S
Mg98 O107 2.114 1_556 S
Mg98 O108 2.251 1_556 S
Mg98 O111 2.010 . S
O99 Mg98 2.028 . S
O99 C102 1.250 . S
O100 Mg101 2.028 1_556 S
O100 C102 1.248 . S
Mg101 O100 2.028 1_554 S
Mg101 O106 2.032 1_554 S
Mg101 O108 2.079 . S
C102 O99 1.250 . S
C102 O100 1.248 . S
C103 O104 1.264 . S
C103 O111 1.249 . S
O104 C103 1.264 . S
O105 Mg98 1.986 . S
O105 C109 1.246 . S
O106 Mg101 2.032 1_556 S
O106 C109 1.259 . S
O107 Mg98 2.114 1_554 S
O107 C110 1.252 . S
O108 Mg98 2.251 1_554 S
O108 Mg101 2.079 . S
O108 C110 1.273 . S
C109 O105 1.246 . S
C109 O106 1.259 . S
C110 O107 1.252 . S
C110 O108 1.273 . S
O111 Mg98 2.010 . S
O111 C103 1.249 . S
Mg112 O113 2.028 . S
Mg112 O119 1.986 . S
Mg112 O121 2.114 . S
Mg112 O122 2.251 . S
Mg112 O125 2.010 1_655 S
O113 Mg112 2.028 . S
O113 C116 1.250 . S
O114 Mg115 2.028 . S
O114 C116 1.248 . S
Mg115 O114 2.028 . S
Mg115 O120 2.032 . S
Mg115 O122 2.079 . S
C116 O113 1.250 . S
C116 O114 1.248 . S
C117 O118 1.264 . S
C117 O125 1.249 . S
O118 C117 1.264 . S
O119 Mg112 1.986 . S
O119 C123 1.246 . S
O120 Mg115 2.032 . S
O120 C123 1.259 . S
O121 Mg112 2.114 . S
O121 C124 1.252 . S
O122 Mg112 2.251 . S
O122 Mg115 2.079 . S
O122 C124 1.273 . S
C123 O119 1.246 . S
C123 O120 1.259 . S
C124 O121 1.252 . S
C124 O122 1.273 . S
O125 Mg112 2.010 1_455 S
O125 C117 1.249 . S
Mg126 O127 2.028 . S
Mg126 O133 1.986 . S
Mg126 O135 2.114 . S
Mg126 O136 2.251 . S
Mg126 O139 2.010 . S
O127 Mg126 2.028 . S
O127 C130 1.250 . S
O128 Mg129 2.028 . S
O128 C130 1.248 . S
Mg129 O128 2.028 . S
Mg129 O134 2.032 . S
Mg129 O136 2.079 . S
C130 O127 1.250 . S
C130 O128 1.248 . S
C131 O132 1.264 . S
C131 O139 1.249 . S
O132 C131 1.264 . S
O133 Mg126 1.986 . S
O133 C137 1.246 . S
O134 Mg129 2.032 . S
O134 C137 1.259 . S
O135 Mg126 2.114 . S
O135 C138 1.252 . S
O136 Mg126 2.251 . S
O136 Mg129 2.079 . S
O136 C138 1.273 . S
C137 O133 1.246 . S
C137 O134 1.259 . S
C138 O135 1.252 . S
C138 O136 1.273 . S
O139 Mg126 2.010 . S
O139 C131 1.249 . S
Mg140 O141 2.028 . S
Mg140 O147 1.986 . S
Mg140 O149 2.114 . S
Mg140 O150 2.251 . S
Mg140 O153 2.010 . S
O141 Mg140 2.028 . S
O141 C144 1.250 . S
O142 Mg143 2.028 . S
O142 C144 1.248 . S
Mg143 O142 2.028 . S
Mg143 O148 2.032 . S
Mg143 O150 2.079 . S
C144 O141 1.250 . S
C144 O142 1.248 . S
C145 O146 1.264 . S
C145 O153 1.249 . S
O146 C145 1.264 . S
O147 Mg140 1.986 . S
O147 C151 1.246 . S
O148 Mg143 2.032 . S
O148 C151 1.259 . S
O149 Mg140 2.114 . S
O149 C152 1.252 . S
O150 Mg140 2.251 . S
O150 Mg143 2.079 . S
O150 C152 1.273 . S
C151 O147 1.246 . S
C151 O148 1.259 . S
C152 O149 1.252 . S
C152 O150 1.273 . S
O153 Mg140 2.010 . S
O153 C145 1.249 . S
Mg154 O155 2.028 . S
Mg154 O161 1.986 . S
Mg154 O163 2.114 1_556 S
Mg154 O164 2.251 1_556 S
Mg154 O167 2.010 . S
O155 Mg154 2.028 . S
O155 C158 1.250 . S
O156 Mg157 2.028 1_556 S
O156 C158 1.248 . S
Mg157 O156 2.028 1_554 S
Mg157 O162 2.032 1_554 S
Mg157 O164 2.079 . S
C158 O155 1.250 . S
C158 O156 1.248 . S
C159 O160 1.264 . S
C159 O167 1.249 . S
O160 C159 1.264 . S
O161 Mg154 1.986 . S
O161 C165 1.246 . S
O162 Mg157 2.032 1_556 S
O162 C165 1.259 . S
O163 Mg154 2.114 1_554 S
O163 C166 1.252 . S
O164 Mg154 2.251 1_554 S
O164 Mg157 2.079 . S
O164 C166 1.273 . S
C165 O161 1.246 . S
C165 O162 1.259 . S
C166 O163 1.252 . S
C166 O164 1.273 . S
O167 Mg154 2.010 . S
O167 C159 1.249 . S
Mg168 O169 2.028 . S
Mg168 O175 1.986 . S
Mg168 O177 2.114 . S
Mg168 O178 2.251 . S
Mg168 O181 2.010 1_655 S
O169 Mg168 2.028 . S
O169 C172 1.250 . S
O170 Mg171 2.028 . S
O170 C172 1.248 . S
Mg171 O170 2.028 . S
Mg171 O176 2.032 . S
Mg171 O178 2.079 . S
C172 O169 1.250 . S
C172 O170 1.248 . S
C173 O174 1.264 . S
C173 O181 1.249 . S
O174 C173 1.264 . S
O175 Mg168 1.986 . S
O175 C179 1.246 . S
O176 Mg171 2.032 . S
O176 C179 1.259 . S
O177 Mg168 2.114 . S
O177 C180 1.252 . S
O178 Mg168 2.251 . S
O178 Mg171 2.079 . S
O178 C180 1.273 . S
C179 O175 1.246 . S
C179 O176 1.259 . S
C180 O177 1.252 . S
C180 O178 1.273 . S
O181 Mg168 2.010 1_455 S
O181 C173 1.249 . S
Mg182 O183 2.028 . S
Mg182 O189 1.986 . S
Mg182 O191 2.114 . S
Mg182 O192 2.251 . S
Mg182 O195 2.010 . S
O183 Mg182 2.028 . S
O183 C186 1.250 . S
O184 Mg185 2.028 . S
O184 C186 1.248 . S
Mg185 O184 2.028 . S
Mg185 O190 2.032 . S
Mg185 O192 2.079 . S
C186 O183 1.250 . S
C186 O184 1.248 . S
C187 O188 1.264 . S
C187 O195 1.249 . S
O188 C187 1.264 . S
O189 Mg182 1.986 . S
O189 C193 1.246 . S
O190 Mg185 2.032 . S
O190 C193 1.259 . S
O191 Mg182 2.114 . S
O191 C194 1.252 . S
O192 Mg182 2.251 . S
O192 Mg185 2.079 . S
O192 C194 1.273 . S
C193 O189 1.246 . S
C193 O190 1.259 . S
C194 O191 1.252 . S
C194 O192 1.273 . S
O195 Mg182 2.010 . S
O195 C187 1.249 . S
Mg196 O197 2.028 . S
Mg196 O203 1.986 . S
Mg196 O205 2.114 . S
Mg196 O206 2.251 . S
Mg196 O209 2.010 . S
O197 Mg196 2.028 . S
O197 C200 1.250 . S
O198 Mg199 2.028 . S
O198 C200 1.248 . S
Mg199 O198 2.028 . S
Mg199 O204 2.032 . S
Mg199 O206 2.079 . S
C200 O197 1.250 . S
C200 O198 1.248 . S
C201 O202 1.264 . S
C201 O209 1.249 . S
O202 C201 1.264 . S
O203 Mg196 1.986 . S
O203 C207 1.246 . S
O204 Mg199 2.032 . S
O204 C207 1.259 . S
O205 Mg196 2.114 . S
O205 C208 1.252 . S
O206 Mg196 2.251 . S
O206 Mg199 2.079 . S
O206 C208 1.273 . S
C207 O203 1.246 . S
C207 O204 1.259 . S
C208 O205 1.252 . S
C208 O206 1.273 . S
O209 Mg196 2.010 . S
O209 C201 1.249 . S
Mg210 O211 2.028 . S
Mg210 O217 1.986 . S
Mg210 O219 2.114 1_554 S
Mg210 O220 2.251 1_554 S
Mg210 O223 2.010 . S
O211 Mg210 2.028 . S
O211 C214 1.250 . S
O212 Mg213 2.028 1_554 S
O212 C214 1.248 . S
Mg213 O212 2.028 1_556 S
Mg213 O218 2.032 1_556 S
Mg213 O220 2.079 . S
C214 O211 1.250 . S
C214 O212 1.248 . S
C215 O216 1.264 . S
C215 O223 1.249 . S
O216 C215 1.264 . S
O217 Mg210 1.986 . S
O217 C221 1.246 . S
O218 Mg213 2.032 1_554 S
O218 C221 1.259 . S
O219 Mg210 2.114 1_556 S
O219 C222 1.252 . S
O220 Mg210 2.251 1_556 S
O220 Mg213 2.079 . S
O220 C222 1.273 . S
C221 O217 1.246 . S
C221 O218 1.259 . S
C222 O219 1.252 . S
C222 O220 1.273 . S
O223 Mg210 2.010 . S
O223 C215 1.249 . S
Mg224 O225 2.028 . S
Mg224 O231 1.986 . S
Mg224 O233 2.114 . S
Mg224 O234 2.251 . S
Mg224 O237 2.010 . S
O225 Mg224 2.028 . S
O225 C228 1.250 . S
O226 Mg227 2.028 . S
O226 C228 1.248 . S
Mg227 O226 2.028 . S
Mg227 O232 2.032 . S
Mg227 O234 2.079 . S
C228 O225 1.250 . S
C228 O226 1.248 . S
C229 O230 1.264 . S
C229 O237 1.249 . S
O230 C229 1.264 . S
O231 Mg224 1.986 . S
O231 C235 1.246 . S
O232 Mg227 2.032 . S
O232 C235 1.259 . S
O233 Mg224 2.114 . S
O233 C236 1.252 . S
O234 Mg224 2.251 . S
O234 Mg227 2.079 . S
O234 C236 1.273 . S
C235 O231 1.246 . S
C235 O232 1.259 . S
C236 O233 1.252 . S
C236 O234 1.273 . S
O237 Mg224 2.010 . S
O237 C229 1.249 . S
Mg238 O239 2.028 . S
Mg238 O245 1.986 . S
Mg238 O247 2.114 1_554 S
Mg238 O248 2.251 1_554 S
Mg238 O251 2.010 . S
O239 Mg238 2.028 . S
O239 C242 1.250 . S
O240 Mg241 2.028 1_554 S
O240 C242 1.248 . S
Mg241 O240 2.028 1_556 S
Mg241 O246 2.032 1_556 S
Mg241 O248 2.079 . S
C242 O239 1.250 . S
C242 O240 1.248 . S
C243 O244 1.264 . S
C243 O251 1.249 . S
O244 C243 1.264 . S
O245 Mg238 1.986 . S
O245 C249 1.246 . S
O246 Mg241 2.032 1_554 S
O246 C249 1.259 . S
O247 Mg238 2.114 1_556 S
O247 C250 1.252 . S
O248 Mg238 2.251 1_556 S
O248 Mg241 2.079 . S
O248 C250 1.273 . S
C249 O245 1.246 . S
C249 O246 1.259 . S
C250 O247 1.252 . S
C250 O248 1.273 . S
O251 Mg238 2.010 . S
O251 C243 1.249 . S
Mg252 O253 2.028 . S
Mg252 O259 1.986 . S
Mg252 O261 2.114 . S
Mg252 O262 2.251 . S
Mg252 O265 2.010 1_655 S
O253 Mg252 2.028 . S
O253 C256 1.250 . S
O254 Mg255 2.028 . S
O254 C256 1.248 . S
Mg255 O254 2.028 . S
Mg255 O260 2.032 . S
Mg255 O262 2.079 . S
C256 O253 1.250 . S
C256 O254 1.248 . S
C257 O258 1.264 . S
C257 O265 1.249 . S
O258 C257 1.264 . S
O259 Mg252 1.986 . S
O259 C263 1.246 . S
O260 Mg255 2.032 . S
O260 C263 1.259 . S
O261 Mg252 2.114 . S
O261 C264 1.252 . S
O262 Mg252 2.251 . S
O262 Mg255 2.079 . S
O262 C264 1.273 . S
C263 O259 1.246 . S
C263 O260 1.259 . S
C264 O261 1.252 . S
C264 O262 1.273 . S
O265 Mg252 2.010 1_455 S
O265 C257 1.249 . S
Mg266 O267 2.028 . S
Mg266 O273 1.986 . S
Mg266 O275 2.114 . S
Mg266 O276 2.251 . S
Mg266 O279 2.010 . S
O267 Mg266 2.028 . S
O267 C270 1.250 . S
O268 Mg269 2.028 . S
O268 C270 1.248 . S
Mg269 O268 2.028 . S
Mg269 O274 2.032 . S
Mg269 O276 2.079 . S
C270 O267 1.250 . S
C270 O268 1.248 . S
C271 O272 1.264 . S
C271 O279 1.249 . S
O272 C271 1.264 . S
O273 Mg266 1.986 . S
O273 C277 1.246 . S
O274 Mg269 2.032 . S
O274 C277 1.259 . S
O275 Mg266 2.114 . S
O275 C278 1.252 . S
O276 Mg266 2.251 . S
O276 Mg269 2.079 . S
O276 C278 1.273 . S
C277 O273 1.246 . S
C277 O274 1.259 . S
C278 O275 1.252 . S
C278 O276 1.273 . S
O279 Mg266 2.010 . S
O279 C271 1.249 . S
Mg280 O281 2.028 . S
Mg280 O287 1.986 . S
Mg280 O289 2.114 . S
Mg280 O290 2.251 . S
Mg280 O293 2.010 . S
O281 Mg280 2.028 . S
O281 C284 1.250 . S
O282 Mg283 2.028 . S
O282 C284 1.248 . S
Mg283 O282 2.028 . S
Mg283 O288 2.032 . S
Mg283 O290 2.079 . S
C284 O281 1.250 . S
C284 O282 1.248 . S
C285 O286 1.264 . S
C285 O293 1.249 . S
O286 C285 1.264 . S
O287 Mg280 1.986 . S
O287 C291 1.246 . S
O288 Mg283 2.032 . S
O288 C291 1.259 . S
O289 Mg280 2.114 . S
O289 C292 1.252 . S
O290 Mg280 2.251 . S
O290 Mg283 2.079 . S
O290 C292 1.273 . S
C291 O287 1.246 . S
C291 O288 1.259 . S
C292 O289 1.252 . S
C292 O290 1.273 . S
O293 Mg280 2.010 . S
O293 C285 1.249 . S
Mg294 O295 2.028 . S
Mg294 O301 1.986 . S
Mg294 O303 2.114 1_556 S
Mg294 O304 2.251 1_556 S
Mg294 O307 2.010 . S
O295 Mg294 2.028 . S
O295 C298 1.250 . S
O296 Mg297 2.028 1_556 S
O296 C298 1.248 . S
Mg297 O296 2.028 1_554 S
Mg297 O302 2.032 1_554 S
Mg297 O304 2.079 . S
C298 O295 1.250 . S
C298 O296 1.248 . S
C299 O300 1.264 . S
C299 O307 1.249 . S
O300 C299 1.264 . S
O301 Mg294 1.986 . S
O301 C305 1.246 . S
O302 Mg297 2.032 1_556 S
O302 C305 1.259 . S
O303 Mg294 2.114 1_554 S
O303 C306 1.252 . S
O304 Mg294 2.251 1_554 S
O304 Mg297 2.079 . S
O304 C306 1.273 . S
C305 O301 1.246 . S
C305 O302 1.259 . S
C306 O303 1.252 . S
C306 O304 1.273 . S
O307 Mg294 2.010 . S
O307 C299 1.249 . S
Mg308 O309 2.028 . S
Mg308 O315 1.986 . S
Mg308 O317 2.114 . S
Mg308 O318 2.251 . S
Mg308 O321 2.010 1_655 S
O309 Mg308 2.028 . S
O309 C312 1.250 . S
O310 Mg311 2.028 . S
O310 C312 1.248 . S
Mg311 O310 2.028 . S
Mg311 O316 2.032 . S
Mg311 O318 2.079 . S
C312 O309 1.250 . S
C312 O310 1.248 . S
C313 O314 1.264 . S
C313 O321 1.249 . S
O314 C313 1.264 . S
O315 Mg308 1.986 . S
O315 C319 1.246 . S
O316 Mg311 2.032 . S
O316 C319 1.259 . S
O317 Mg308 2.114 . S
O317 C320 1.252 . S
O318 Mg308 2.251 . S
O318 Mg311 2.079 . S
O318 C320 1.273 . S
C319 O315 1.246 . S
C319 O316 1.259 . S
C320 O317 1.252 . S
C320 O318 1.273 . S
O321 Mg308 2.010 1_455 S
O321 C313 1.249 . S
Mg322 O323 2.028 . S
Mg322 O329 1.986 . S
Mg322 O331 2.114 . S
Mg322 O332 2.251 . S
Mg322 O335 2.010 . S
O323 Mg322 2.028 . S
O323 C326 1.250 . S
O324 Mg325 2.028 . S
O324 C326 1.248 . S
Mg325 O324 2.028 . S
Mg325 O330 2.032 . S
Mg325 O332 2.079 . S
C326 O323 1.250 . S
C326 O324 1.248 . S
C327 O328 1.264 . S
C327 O335 1.249 . S
O328 C327 1.264 . S
O329 Mg322 1.986 . S
O329 C333 1.246 . S
O330 Mg325 2.032 . S
O330 C333 1.259 . S
O331 Mg322 2.114 . S
O331 C334 1.252 . S
O332 Mg322 2.251 . S
O332 Mg325 2.079 . S
O332 C334 1.273 . S
C333 O329 1.246 . S
C333 O330 1.259 . S
C334 O331 1.252 . S
C334 O332 1.273 . S
O335 Mg322 2.010 . S
O335 C327 1.249 . S
Mg336 O337 2.028 . S
Mg336 O343 1.986 . S
Mg336 O345 2.114 . S
Mg336 O346 2.251 . S
Mg336 O349 2.010 . S
O337 Mg336 2.028 . S
O337 C340 1.250 . S
O338 Mg339 2.028 . S
O338 C340 1.248 . S
Mg339 O338 2.028 . S
Mg339 O344 2.032 . S
Mg339 O346 2.079 . S
C340 O337 1.250 . S
C340 O338 1.248 . S
C341 O342 1.264 . S
C341 O349 1.249 . S
O342 C341 1.264 . S
O343 Mg336 1.986 . S
O343 C347 1.246 . S
O344 Mg339 2.032 . S
O344 C347 1.259 . S
O345 Mg336 2.114 . S
O345 C348 1.252 . S
O346 Mg336 2.251 . S
O346 Mg339 2.079 . S
O346 C348 1.273 . S
C347 O343 1.246 . S
C347 O344 1.259 . S
C348 O345 1.252 . S
C348 O346 1.273 . S
O349 Mg336 2.010 . S
O349 C341 1.249 . S
Mg350 O351 2.028 . S
Mg350 O357 1.986 . S
Mg350 O359 2.114 1_556 S
Mg350 O360 2.251 1_556 S
Mg350 O363 2.010 . S
O351 Mg350 2.028 . S
O351 C354 1.250 . S
O352 Mg353 2.028 1_556 S
O352 C354 1.248 . S
Mg353 O352 2.028 1_554 S
Mg353 O358 2.032 1_554 S
Mg353 O360 2.079 . S
C354 O351 1.250 . S
C354 O352 1.248 . S
C355 O356 1.264 . S
C355 O363 1.249 . S
O356 C355 1.264 . S
O357 Mg350 1.986 . S
O357 C361 1.246 . S
O358 Mg353 2.032 1_556 S
O358 C361 1.259 . S
O359 Mg350 2.114 1_554 S
O359 C362 1.252 . S
O360 Mg350 2.251 1_554 S
O360 Mg353 2.079 . S
O360 C362 1.273 . S
C361 O357 1.246 . S
C361 O358 1.259 . S
C362 O359 1.252 . S
C362 O360 1.273 . S
O363 Mg350 2.010 . S
O363 C355 1.249 . S
Mg364 O365 2.028 . S
Mg364 O371 1.986 . S
Mg364 O373 2.114 . S
Mg364 O374 2.251 . S
Mg364 O377 2.010 1_455 S
O365 Mg364 2.028 . S
O365 C368 1.250 . S
O366 Mg367 2.028 . S
O366 C368 1.248 . S
Mg367 O366 2.028 . S
Mg367 O372 2.032 . S
Mg367 O374 2.079 . S
C368 O365 1.250 . S
C368 O366 1.248 . S
C369 O370 1.264 . S
C369 O377 1.249 . S
O370 C369 1.264 . S
O371 Mg364 1.986 . S
O371 C375 1.246 . S
O372 Mg367 2.032 . S
O372 C375 1.259 . S
O373 Mg364 2.114 . S
O373 C376 1.252 . S
O374 Mg364 2.251 . S
O374 Mg367 2.079 . S
O374 C376 1.273 . S
C375 O371 1.246 . S
C375 O372 1.259 . S
C376 O373 1.252 . S
C376 O374 1.273 . S
O377 Mg364 2.010 1_655 S
O377 C369 1.249 . S
Mg378 O379 2.028 . S
Mg378 O385 1.986 . S
Mg378 O387 2.114 . S
Mg378 O388 2.251 . S
Mg378 O391 2.010 . S
O379 Mg378 2.028 . S
O379 C382 1.250 . S
O380 Mg381 2.028 . S
O380 C382 1.248 . S
Mg381 O380 2.028 . S
Mg381 O386 2.032 . S
Mg381 O388 2.079 . S
C382 O379 1.250 . S
C382 O380 1.248 . S
C383 O384 1.264 . S
C383 O391 1.249 . S
O384 C383 1.264 . S
O385 Mg378 1.986 . S
O385 C389 1.246 . S
O386 Mg381 2.032 . S
O386 C389 1.259 . S
O387 Mg378 2.114 . S
O387 C390 1.252 . S
O388 Mg378 2.251 . S
O388 Mg381 2.079 . S
O388 C390 1.273 . S
C389 O385 1.246 . S
C389 O386 1.259 . S
C390 O387 1.252 . S
C390 O388 1.273 . S
O391 Mg378 2.010 . S
O391 C383 1.249 . S
Mg392 O393 2.028 . S
Mg392 O399 1.986 . S
Mg392 O401 2.114 . S
Mg392 O402 2.251 . S
Mg392 O405 2.010 . S
O393 Mg392 2.028 . S
O393 C396 1.250 . S
O394 Mg395 2.028 . S
O394 C396 1.248 . S
Mg395 O394 2.028 . S
Mg395 O400 2.032 . S
Mg395 O402 2.079 . S
C396 O393 1.250 . S
C396 O394 1.248 . S
C397 O398 1.264 . S
C397 O405 1.249 . S
O398 C397 1.264 . S
O399 Mg392 1.986 . S
O399 C403 1.246 . S
O400 Mg395 2.032 . S
O400 C403 1.259 . S
O401 Mg392 2.114 . S
O401 C404 1.252 . S
O402 Mg392 2.251 . S
O402 Mg395 2.079 . S
O402 C404 1.273 . S
C403 O399 1.246 . S
C403 O400 1.259 . S
C404 O401 1.252 . S
C404 O402 1.273 . S
O405 Mg392 2.010 . S
O405 C397 1.249 . S
Mg406 O407 2.028 . S
Mg406 O413 1.986 . S
Mg406 O415 2.114 1_554 S
Mg406 O416 2.251 1_554 S
Mg406 O419 2.010 . S
O407 Mg406 2.028 . S
O407 C410 1.250 . S
O408 Mg409 2.028 1_554 S
O408 C410 1.248 . S
Mg409 O408 2.028 1_556 S
Mg409 O414 2.032 1_556 S
Mg409 O416 2.079 . S
C410 O407 1.250 . S
C410 O408 1.248 . S
C411 O412 1.264 . S
C411 O419 1.249 . S
O412 C411 1.264 . S
O413 Mg406 1.986 . S
O413 C417 1.246 . S
O414 Mg409 2.032 1_554 S
O414 C417 1.259 . S
O415 Mg406 2.114 1_556 S
O415 C418 1.252 . S
O416 Mg406 2.251 1_556 S
O416 Mg409 2.079 . S
O416 C418 1.273 . S
C417 O413 1.246 . S
C417 O414 1.259 . S
C418 O415 1.252 . S
C418 O416 1.273 . S
O419 Mg406 2.010 . S
O419 C411 1.249 . S
Mg420 O421 2.028 . S
Mg420 O427 1.986 . S
Mg420 O429 2.114 . S
Mg420 O430 2.251 . S
Mg420 O433 2.010 1_455 S
O421 Mg420 2.028 . S
O421 C424 1.250 . S
O422 Mg423 2.028 . S
O422 C424 1.248 . S
Mg423 O422 2.028 . S
Mg423 O428 2.032 . S
Mg423 O430 2.079 . S
C424 O421 1.250 . S
C424 O422 1.248 . S
C425 O426 1.264 . S
C425 O433 1.249 . S
O426 C425 1.264 . S
O427 Mg420 1.986 . S
O427 C431 1.246 . S
O428 Mg423 2.032 . S
O428 C431 1.259 . S
O429 Mg420 2.114 . S
O429 C432 1.252 . S
O430 Mg420 2.251 . S
O430 Mg423 2.079 . S
O430 C432 1.273 . S
C431 O427 1.246 . S
C431 O428 1.259 . S
C432 O429 1.252 . S
C432 O430 1.273 . S
O433 Mg420 2.010 1_655 S
O433 C425 1.249 . S
Mg434 O435 2.028 . S
Mg434 O441 1.986 . S
Mg434 O443 2.114 . S
Mg434 O444 2.251 . S
Mg434 O447 2.010 . S
O435 Mg434 2.028 . S
O435 C438 1.250 . S
O436 Mg437 2.028 . S
O436 C438 1.248 . S
Mg437 O436 2.028 . S
Mg437 O442 2.032 . S
Mg437 O444 2.079 . S
C438 O435 1.250 . S
C438 O436 1.248 . S
C439 O440 1.264 . S
C439 O447 1.249 . S
O440 C439 1.264 . S
O441 Mg434 1.986 . S
O441 C445 1.246 . S
O442 Mg437 2.032 . S
O442 C445 1.259 . S
O443 Mg434 2.114 . S
O443 C446 1.252 . S
O444 Mg434 2.251 . S
O444 Mg437 2.079 . S
O444 C446 1.273 . S
C445 O441 1.246 . S
C445 O442 1.259 . S
C446 O443 1.252 . S
C446 O444 1.273 . S
O447 Mg434 2.010 . S
O447 C439 1.249 . S
H448 C460 0.930 . S
H449 C462 0.930 . S
H450 C463 0.930 . S
H451 C467 0.959 . S
H452 C467 0.959 . S
H453 C467 0.961 . S
H454 C468 0.960 . S
H455 C468 0.961 . S
H456 C468 0.959 . S
H457 C471 0.929 . S
H458 C472 0.931 . S
H459 C474 0.930 . S
C460 H448 0.930 . S
C460 C461 1.399 . S
C460 C465 1.399 . S
C461 C460 1.399 . S
C461 C462 1.376 . S
C462 H449 0.930 . S
C462 C461 1.376 . S
C462 C463 1.388 . S
C463 H450 0.930 . S
C463 C462 1.388 . S
C463 C464 1.390 . S
C464 C463 1.390 . S
C464 C465 1.394 . S
C464 C470 1.465 . S
C465 C460 1.399 . S
C465 C464 1.394 . S
C465 C466 1.516 . S
C466 C465 1.516 . S
C466 C467 1.502 . S
C466 C468 1.561 . S
C466 C469 1.526 . S
C467 H451 0.959 . S
C467 H452 0.959 . S
C467 H453 0.961 . S
C467 C466 1.502 . S
C468 H454 0.960 . S
C468 H455 0.961 . S
C468 H456 0.959 . S
C468 C466 1.561 . S
C469 C466 1.526 . S
C469 C470 1.396 . S
C469 C474 1.390 . S
C470 C464 1.465 . S
C470 C469 1.396 . S
C470 C471 1.399 . S
C471 H457 0.929 . S
C471 C470 1.399 . S
C471 C472 1.385 . S
C472 H458 0.931 . S
C472 C471 1.385 . S
C472 C473 1.389 . S
C473 C472 1.389 . S
C473 C474 1.387 . S
C474 H459 0.930 . S
C474 C469 1.390 . S
C474 C473 1.387 . S
H475 C487 0.930 . S
H476 C489 0.930 . S
H477 C490 0.930 . S
H478 C494 0.959 . S
H479 C494 0.959 . S
H480 C494 0.961 . S
H481 C495 0.960 . S
H482 C495 0.961 . S
H483 C495 0.959 . S
H484 C498 0.929 . S
H485 C499 0.931 . S
H486 C501 0.930 . S
C487 H475 0.930 . S
C487 C488 1.399 . S
C487 C492 1.399 . S
C488 C487 1.399 . S
C488 C489 1.376 . S
C489 H476 0.930 . S
C489 C488 1.376 . S
C489 C490 1.388 . S
C490 H477 0.930 . S
C490 C489 1.388 . S
C490 C491 1.390 . S
C491 C490 1.390 . S
C491 C492 1.394 . S
C491 C497 1.465 . S
C492 C487 1.399 . S
C492 C491 1.394 . S
C492 C493 1.516 . S
C493 C492 1.516 . S
C493 C494 1.502 . S
C493 C495 1.561 . S
C493 C496 1.526 . S
C494 H478 0.959 . S
C494 H479 0.959 . S
C494 H480 0.961 . S
C494 C493 1.502 . S
C495 H481 0.960 . S
C495 H482 0.961 . S
C495 H483 0.959 . S
C495 C493 1.561 . S
C496 C493 1.526 . S
C496 C497 1.396 . S
C496 C501 1.390 . S
C497 C491 1.465 . S
C497 C496 1.396 . S
C497 C498 1.399 . S
C498 H484 0.929 . S
C498 C497 1.399 . S
C498 C499 1.385 . S
C499 H485 0.931 . S
C499 C498 1.385 . S
C499 C500 1.389 . S
C500 C499 1.389 . S
C500 C501 1.387 . S
C501 H486 0.930 . S
C501 C496 1.390 . S
C501 C500 1.387 . S
H502 C514 0.930 . S
H503 C516 0.930 . S
H504 C517 0.930 . S
H505 C521 0.959 . S
H506 C521 0.959 . S
H507 C521 0.961 . S
H508 C522 0.960 . S
H509 C522 0.961 . S
H510 C522 0.959 . S
H511 C525 0.929 . S
H512 C526 0.931 . S
H513 C528 0.930 . S
C514 H502 0.930 . S
C514 C515 1.399 . S
C514 C519 1.399 . S
C515 C514 1.399 . S
C515 C516 1.376 . S
C516 H503 0.930 . S
C516 C515 1.376 . S
C516 C517 1.388 . S
C517 H504 0.930 . S
C517 C516 1.388 . S
C517 C518 1.390 . S
C518 C517 1.390 . S
C518 C519 1.394 . S
C518 C524 1.465 . S
C519 C514 1.399 . S
C519 C518 1.394 . S
C519 C520 1.516 . S
C520 C519 1.516 . S
C520 C521 1.502 . S
C520 C522 1.561 . S
C520 C523 1.526 . S
C521 H505 0.959 . S
C521 H506 0.959 . S
C521 H507 0.961 . S
C521 C520 1.502 . S
C522 H508 0.960 . S
C522 H509 0.961 . S
C522 H510 0.959 . S
C522 C520 1.561 . S
C523 C520 1.526 . S
C523 C524 1.396 . S
C523 C528 1.390 . S
C524 C518 1.465 . S
C524 C523 1.396 . S
C524 C525 1.399 . S
C525 H511 0.929 . S
C525 C524 1.399 . S
C525 C526 1.385 . S
C526 H512 0.931 . S
C526 C525 1.385 . S
C526 C527 1.389 . S
C527 C526 1.389 . S
C527 C528 1.387 . S
C528 H513 0.930 . S
C528 C523 1.390 . S
C528 C527 1.387 . S
H529 C541 0.930 . S
H530 C543 0.930 . S
H531 C544 0.930 . S
H532 C548 0.959 . S
H533 C548 0.959 . S
H534 C548 0.961 . S
H535 C549 0.960 . S
H536 C549 0.961 . S
H537 C549 0.959 . S
H538 C552 0.929 . S
H539 C553 0.931 . S
H540 C555 0.930 . S
C541 H529 0.930 . S
C541 C542 1.399 . S
C541 C546 1.399 . S
C542 C541 1.399 . S
C542 C543 1.376 . S
C543 H530 0.930 . S
C543 C542 1.376 . S
C543 C544 1.388 . S
C544 H531 0.930 . S
C544 C543 1.388 . S
C544 C545 1.390 . S
C545 C544 1.390 . S
C545 C546 1.394 . S
C545 C551 1.465 . S
C546 C541 1.399 . S
C546 C545 1.394 . S
C546 C547 1.516 . S
C547 C546 1.516 . S
C547 C548 1.502 . S
C547 C549 1.561 . S
C547 C550 1.526 . S
C548 H532 0.959 . S
C548 H533 0.959 . S
C548 H534 0.961 . S
C548 C547 1.502 . S
C549 H535 0.960 . S
C549 H536 0.961 . S
C549 H537 0.959 . S
C549 C547 1.561 . S
C550 C547 1.526 . S
C550 C551 1.396 . S
C550 C555 1.390 . S
C551 C545 1.465 . S
C551 C550 1.396 . S
C551 C552 1.399 . S
C552 H538 0.929 . S
C552 C551 1.399 . S
C552 C553 1.385 . S
C553 H539 0.931 . S
C553 C552 1.385 . S
C553 C554 1.389 . S
C554 C553 1.389 . S
C554 C555 1.387 . S
C555 H540 0.930 . S
C555 C550 1.390 . S
C555 C554 1.387 . S
H556 C568 0.930 . S
H557 C570 0.930 . S
H558 C571 0.930 . S
H559 C575 0.959 . S
H560 C575 0.959 . S
H561 C575 0.961 . S
H562 C576 0.960 . S
H563 C576 0.961 . S
H564 C576 0.959 . S
H565 C579 0.929 . S
H566 C580 0.931 . S
H567 C582 0.930 . S
C568 H556 0.930 . S
C568 C569 1.399 . S
C568 C573 1.399 . S
C569 C568 1.399 . S
C569 C570 1.376 . S
C570 H557 0.930 . S
C570 C569 1.376 . S
C570 C571 1.388 . S
C571 H558 0.930 . S
C571 C570 1.388 . S
C571 C572 1.390 . S
C572 C571 1.390 . S
C572 C573 1.394 . S
C572 C578 1.465 . S
C573 C568 1.399 . S
C573 C572 1.394 . S
C573 C574 1.516 . S
C574 C573 1.516 . S
C574 C575 1.502 . S
C574 C576 1.561 . S
C574 C577 1.526 . S
C575 H559 0.959 . S
C575 H560 0.959 . S
C575 H561 0.961 . S
C575 C574 1.502 . S
C576 H562 0.960 . S
C576 H563 0.961 . S
C576 H564 0.959 . S
C576 C574 1.561 . S
C577 C574 1.526 . S
C577 C578 1.396 . S
C577 C582 1.390 . S
C578 C572 1.465 . S
C578 C577 1.396 . S
C578 C579 1.399 . S
C579 H565 0.929 . S
C579 C578 1.399 . S
C579 C580 1.385 . S
C580 H566 0.931 . S
C580 C579 1.385 . S
C580 C581 1.389 . S
C581 C580 1.389 . S
C581 C582 1.387 . S
C582 H567 0.930 . S
C582 C577 1.390 . S
C582 C581 1.387 . S
H583 C595 0.930 . S
H584 C597 0.930 . S
H585 C598 0.930 . S
H586 C602 0.959 . S
H587 C602 0.959 . S
H588 C602 0.961 . S
H589 C603 0.960 . S
H590 C603 0.961 . S
H591 C603 0.959 . S
H592 C606 0.929 . S
H593 C607 0.931 . S
H594 C609 0.930 . S
C595 H583 0.930 . S
C595 C596 1.399 . S
C595 C600 1.399 . S
C596 C595 1.399 . S
C596 C597 1.376 . S
C597 H584 0.930 . S
C597 C596 1.376 . S
C597 C598 1.388 . S
C598 H585 0.930 . S
C598 C597 1.388 . S
C598 C599 1.390 . S
C599 C598 1.390 . S
C599 C600 1.394 . S
C599 C605 1.465 . S
C600 C595 1.399 . S
C600 C599 1.394 . S
C600 C601 1.516 . S
C601 C600 1.516 . S
C601 C602 1.502 . S
C601 C603 1.561 . S
C601 C604 1.526 . S
C602 H586 0.959 . S
C602 H587 0.959 . S
C602 H588 0.961 . S
C602 C601 1.502 . S
C603 H589 0.960 . S
C603 H590 0.961 . S
C603 H591 0.959 . S
C603 C601 1.561 . S
C604 C601 1.526 . S
C604 C605 1.396 . S
C604 C609 1.390 . S
C605 C599 1.465 . S
C605 C604 1.396 . S
C605 C606 1.399 . S
C606 H592 0.929 . S
C606 C605 1.399 . S
C606 C607 1.385 . S
C607 H593 0.931 . S
C607 C606 1.385 . S
C607 C608 1.389 . S
C608 C607 1.389 . S
C608 C609 1.387 . S
C609 H594 0.930 . S
C609 C604 1.390 . S
C609 C608 1.387 . S
H610 C622 0.930 . S
H611 C624 0.930 . S
H612 C625 0.930 . S
H613 C629 0.959 . S
H614 C629 0.959 . S
H615 C629 0.961 . S
H616 C630 0.960 . S
H617 C630 0.961 . S
H618 C630 0.959 . S
H619 C633 0.929 . S
H620 C634 0.931 . S
H621 C636 0.930 . S
C622 H610 0.930 . S
C622 C623 1.399 . S
C622 C627 1.399 . S
C623 C622 1.399 . S
C623 C624 1.376 . S
C624 H611 0.930 . S
C624 C623 1.376 . S
C624 C625 1.388 . S
C625 H612 0.930 . S
C625 C624 1.388 . S
C625 C626 1.390 . S
C626 C625 1.390 . S
C626 C627 1.394 . S
C626 C632 1.465 . S
C627 C622 1.399 . S
C627 C626 1.394 . S
C627 C628 1.516 . S
C628 C627 1.516 . S
C628 C629 1.502 . S
C628 C630 1.561 . S
C628 C631 1.526 . S
C629 H613 0.959 . S
C629 H614 0.959 . S
C629 H615 0.961 . S
C629 C628 1.502 . S
C630 H616 0.960 . S
C630 H617 0.961 . S
C630 H618 0.959 . S
C630 C628 1.561 . S
C631 C628 1.526 . S
C631 C632 1.396 . S
C631 C636 1.390 . S
C632 C626 1.465 . S
C632 C631 1.396 . S
C632 C633 1.399 . S
C633 H619 0.929 . S
C633 C632 1.399 . S
C633 C634 1.385 . S
C634 H620 0.931 . S
C634 C633 1.385 . S
C634 C635 1.389 . S
C635 C634 1.389 . S
C635 C636 1.387 . S
C636 H621 0.930 . S
C636 C631 1.390 . S
C636 C635 1.387 . S
H637 C649 0.930 . S
H638 C651 0.930 . S
H639 C652 0.930 . S
H640 C656 0.959 . S
H641 C656 0.959 . S
H642 C656 0.961 . S
H643 C657 0.960 . S
H644 C657 0.961 . S
H645 C657 0.959 . S
H646 C660 0.929 . S
H647 C661 0.931 . S
H648 C663 0.930 . S
C649 H637 0.930 . S
C649 C650 1.399 . S
C649 C654 1.399 . S
C650 C649 1.399 . S
C650 C651 1.376 . S
C651 H638 0.930 . S
C651 C650 1.376 . S
C651 C652 1.388 . S
C652 H639 0.930 . S
C652 C651 1.388 . S
C652 C653 1.390 . S
C653 C652 1.390 . S
C653 C654 1.394 . S
C653 C659 1.465 . S
C654 C649 1.399 . S
C654 C653 1.394 . S
C654 C655 1.516 . S
C655 C654 1.516 . S
C655 C656 1.502 . S
C655 C657 1.561 . S
C655 C658 1.526 . S
C656 H640 0.959 . S
C656 H641 0.959 . S
C656 H642 0.961 . S
C656 C655 1.502 . S
C657 H643 0.960 . S
C657 H644 0.961 . S
C657 H645 0.959 . S
C657 C655 1.561 . S
C658 C655 1.526 . S
C658 C659 1.396 . S
C658 C663 1.390 . S
C659 C653 1.465 . S
C659 C658 1.396 . S
C659 C660 1.399 . S
C660 H646 0.929 . S
C660 C659 1.399 . S
C660 C661 1.385 . S
C661 H647 0.931 . S
C661 C660 1.385 . S
C661 C662 1.389 . S
C662 C661 1.389 . S
C662 C663 1.387 . S
C663 H648 0.930 . S
C663 C658 1.390 . S
C663 C662 1.387 . S
H664 C676 0.930 . S
H665 C678 0.930 . S
H666 C679 0.930 . S
H667 C683 0.959 . S
H668 C683 0.959 . S
H669 C683 0.961 . S
H670 C684 0.960 . S
H671 C684 0.961 . S
H672 C684 0.959 . S
H673 C687 0.929 . S
H674 C688 0.931 . S
H675 C690 0.930 . S
C676 H664 0.930 . S
C676 C677 1.399 . S
C676 C681 1.399 . S
C677 C676 1.399 . S
C677 C678 1.376 . S
C678 H665 0.930 . S
C678 C677 1.376 . S
C678 C679 1.388 . S
C679 H666 0.930 . S
C679 C678 1.388 . S
C679 C680 1.390 . S
C680 C679 1.390 . S
C680 C681 1.394 . S
C680 C686 1.465 . S
C681 C676 1.399 . S
C681 C680 1.394 . S
C681 C682 1.516 . S
C682 C681 1.516 . S
C682 C683 1.502 . S
C682 C684 1.561 . S
C682 C685 1.526 . S
C683 H667 0.959 . S
C683 H668 0.959 . S
C683 H669 0.961 . S
C683 C682 1.502 . S
C684 H670 0.960 . S
C684 H671 0.961 . S
C684 H672 0.959 . S
C684 C682 1.561 . S
C685 C682 1.526 . S
C685 C686 1.396 . S
C685 C690 1.390 . S
C686 C680 1.465 . S
C686 C685 1.396 . S
C686 C687 1.399 . S
C687 H673 0.929 . S
C687 C686 1.399 . S
C687 C688 1.385 . S
C688 H674 0.931 . S
C688 C687 1.385 . S
C688 C689 1.389 . S
C689 C688 1.389 . S
C689 C690 1.387 . S
C690 H675 0.930 . S
C690 C685 1.390 . S
C690 C689 1.387 . S
H691 C703 0.930 . S
H692 C705 0.930 . S
H693 C706 0.930 . S
H694 C710 0.959 . S
H695 C710 0.959 . S
H696 C710 0.961 . S
H697 C711 0.960 . S
H698 C711 0.961 . S
H699 C711 0.959 . S
H700 C714 0.929 . S
H701 C715 0.931 . S
H702 C717 0.930 . S
C703 H691 0.930 . S
C703 C704 1.399 . S
C703 C708 1.399 . S
C704 C703 1.399 . S
C704 C705 1.376 . S
C705 H692 0.930 . S
C705 C704 1.376 . S
C705 C706 1.388 . S
C706 H693 0.930 . S
C706 C705 1.388 . S
C706 C707 1.390 . S
C707 C706 1.390 . S
C707 C708 1.394 . S
C707 C713 1.465 . S
C708 C703 1.399 . S
C708 C707 1.394 . S
C708 C709 1.516 . S
C709 C708 1.516 . S
C709 C710 1.502 . S
C709 C711 1.561 . S
C709 C712 1.526 . S
C710 H694 0.959 . S
C710 H695 0.959 . S
C710 H696 0.961 . S
C710 C709 1.502 . S
C711 H697 0.960 . S
C711 H698 0.961 . S
C711 H699 0.959 . S
C711 C709 1.561 . S
C712 C709 1.526 . S
C712 C713 1.396 . S
C712 C717 1.390 . S
C713 C707 1.465 . S
C713 C712 1.396 . S
C713 C714 1.399 . S
C714 H700 0.929 . S
C714 C713 1.399 . S
C714 C715 1.385 . S
C715 H701 0.931 . S
C715 C714 1.385 . S
C715 C716 1.389 . S
C716 C715 1.389 . S
C716 C717 1.387 . S
C717 H702 0.930 . S
C717 C712 1.390 . S
C717 C716 1.387 . S
H718 C730 0.930 . S
H719 C732 0.930 . S
H720 C733 0.930 . S
H721 C737 0.959 . S
H722 C737 0.959 . S
H723 C737 0.961 . S
H724 C738 0.960 . S
H725 C738 0.961 . S
H726 C738 0.959 . S
H727 C741 0.929 . S
H728 C742 0.931 . S
H729 C744 0.930 . S
C730 H718 0.930 . S
C730 C731 1.399 . S
C730 C735 1.399 . S
C731 C730 1.399 . S
C731 C732 1.376 . S
C732 H719 0.930 . S
C732 C731 1.376 . S
C732 C733 1.388 . S
C733 H720 0.930 . S
C733 C732 1.388 . S
C733 C734 1.390 . S
C734 C733 1.390 . S
C734 C735 1.394 . S
C734 C740 1.465 . S
C735 C730 1.399 . S
C735 C734 1.394 . S
C735 C736 1.516 . S
C736 C735 1.516 . S
C736 C737 1.502 . S
C736 C738 1.561 . S
C736 C739 1.526 . S
C737 H721 0.959 . S
C737 H722 0.959 . S
C737 H723 0.961 . S
C737 C736 1.502 . S
C738 H724 0.960 . S
C738 H725 0.961 . S
C738 H726 0.959 . S
C738 C736 1.561 . S
C739 C736 1.526 . S
C739 C740 1.396 . S
C739 C744 1.390 . S
C740 C734 1.465 . S
C740 C739 1.396 . S
C740 C741 1.399 . S
C741 H727 0.929 . S
C741 C740 1.399 . S
C741 C742 1.385 . S
C742 H728 0.931 . S
C742 C741 1.385 . S
C742 C743 1.389 . S
C743 C742 1.389 . S
C743 C744 1.387 . S
C744 H729 0.930 . S
C744 C739 1.390 . S
C744 C743 1.387 . S
H745 C757 0.930 . S
H746 C759 0.930 . S
H747 C760 0.930 . S
H748 C764 0.959 . S
H749 C764 0.959 . S
H750 C764 0.961 . S
H751 C765 0.960 . S
H752 C765 0.961 . S
H753 C765 0.959 . S
H754 C768 0.929 . S
H755 C769 0.931 . S
H756 C771 0.930 . S
C757 H745 0.930 . S
C757 C758 1.399 . S
C757 C762 1.399 . S
C758 C757 1.399 . S
C758 C759 1.376 . S
C759 H746 0.930 . S
C759 C758 1.376 . S
C759 C760 1.388 . S
C760 H747 0.930 . S
C760 C759 1.388 . S
C760 C761 1.390 . S
C761 C760 1.390 . S
C761 C762 1.394 . S
C761 C767 1.465 . S
C762 C757 1.399 . S
C762 C761 1.394 . S
C762 C763 1.516 . S
C763 C762 1.516 . S
C763 C764 1.502 . S
C763 C765 1.561 . S
C763 C766 1.526 . S
C764 H748 0.959 . S
C764 H749 0.959 . S
C764 H750 0.961 . S
C764 C763 1.502 . S
C765 H751 0.960 . S
C765 H752 0.961 . S
C765 H753 0.959 . S
C765 C763 1.561 . S
C766 C763 1.526 . S
C766 C767 1.396 . S
C766 C771 1.390 . S
C767 C761 1.465 . S
C767 C766 1.396 . S
C767 C768 1.399 . S
C768 H754 0.929 . S
C768 C767 1.399 . S
C768 C769 1.385 . S
C769 H755 0.931 . S
C769 C768 1.385 . S
C769 C770 1.389 . S
C770 C769 1.389 . S
C770 C771 1.387 . S
C771 H756 0.930 . S
C771 C766 1.390 . S
C771 C770 1.387 . S
H772 C784 0.930 . S
H773 C786 0.930 . S
H774 C787 0.930 . S
H775 C791 0.959 . S
H776 C791 0.959 . S
H777 C791 0.961 . S
H778 C792 0.960 . S
H779 C792 0.961 . S
H780 C792 0.959 . S
H781 C795 0.929 . S
H782 C796 0.931 . S
H783 C798 0.930 . S
C784 H772 0.930 . S
C784 C785 1.399 . S
C784 C789 1.399 . S
C785 C784 1.399 . S
C785 C786 1.376 . S
C786 H773 0.930 . S
C786 C785 1.376 . S
C786 C787 1.388 . S
C787 H774 0.930 . S
C787 C786 1.388 . S
C787 C788 1.390 . S
C788 C787 1.390 . S
C788 C789 1.394 . S
C788 C794 1.465 . S
C789 C784 1.399 . S
C789 C788 1.394 . S
C789 C790 1.516 . S
C790 C789 1.516 . S
C790 C791 1.502 . S
C790 C792 1.561 . S
C790 C793 1.526 . S
C791 H775 0.959 . S
C791 H776 0.959 . S
C791 H777 0.961 . S
C791 C790 1.502 . S
C792 H778 0.960 . S
C792 H779 0.961 . S
C792 H780 0.959 . S
C792 C790 1.561 . S
C793 C790 1.526 . S
C793 C794 1.396 . S
C793 C798 1.390 . S
C794 C788 1.465 . S
C794 C793 1.396 . S
C794 C795 1.399 . S
C795 H781 0.929 . S
C795 C794 1.399 . S
C795 C796 1.385 . S
C796 H782 0.931 . S
C796 C795 1.385 . S
C796 C797 1.389 . S
C797 C796 1.389 . S
C797 C798 1.387 . S
C798 H783 0.930 . S
C798 C793 1.390 . S
C798 C797 1.387 . S
H799 C811 0.930 . S
H800 C813 0.930 . S
H801 C814 0.930 . S
H802 C818 0.959 . S
H803 C818 0.959 . S
H804 C818 0.961 . S
H805 C819 0.960 . S
H806 C819 0.961 . S
H807 C819 0.959 . S
H808 C822 0.929 . S
H809 C823 0.931 . S
H810 C825 0.930 . S
C811 H799 0.930 . S
C811 C812 1.399 . S
C811 C816 1.399 . S
C812 C811 1.399 . S
C812 C813 1.376 . S
C813 H800 0.930 . S
C813 C812 1.376 . S
C813 C814 1.388 . S
C814 H801 0.930 . S
C814 C813 1.388 . S
C814 C815 1.390 . S
C815 C814 1.390 . S
C815 C816 1.394 . S
C815 C821 1.465 . S
C816 C811 1.399 . S
C816 C815 1.394 . S
C816 C817 1.516 . S
C817 C816 1.516 . S
C817 C818 1.502 . S
C817 C819 1.561 . S
C817 C820 1.526 . S
C818 H802 0.959 . S
C818 H803 0.959 . S
C818 H804 0.961 . S
C818 C817 1.502 . S
C819 H805 0.960 . S
C819 H806 0.961 . S
C819 H807 0.959 . S
C819 C817 1.561 . S
C820 C817 1.526 . S
C820 C821 1.396 . S
C820 C825 1.390 . S
C821 C815 1.465 . S
C821 C820 1.396 . S
C821 C822 1.399 . S
C822 H808 0.929 . S
C822 C821 1.399 . S
C822 C823 1.385 . S
C823 H809 0.931 . S
C823 C822 1.385 . S
C823 C824 1.389 . S
C824 C823 1.389 . S
C824 C825 1.387 . S
C825 H810 0.930 . S
C825 C820 1.390 . S
C825 C824 1.387 . S
H826 C838 0.930 . S
H827 C840 0.930 . S
H828 C841 0.930 . S
H829 C845 0.959 . S
H830 C845 0.959 . S
H831 C845 0.961 . S
H832 C846 0.960 . S
H833 C846 0.961 . S
H834 C846 0.959 . S
H835 C849 0.929 . S
H836 C850 0.931 . S
H837 C852 0.930 . S
C838 H826 0.930 . S
C838 C839 1.399 . S
C838 C843 1.399 . S
C839 C838 1.399 . S
C839 C840 1.376 . S
C840 H827 0.930 . S
C840 C839 1.376 . S
C840 C841 1.388 . S
C841 H828 0.930 . S
C841 C840 1.388 . S
C841 C842 1.390 . S
C842 C841 1.390 . S
C842 C843 1.394 . S
C842 C848 1.465 . S
C843 C838 1.399 . S
C843 C842 1.394 . S
C843 C844 1.516 . S
C844 C843 1.516 . S
C844 C845 1.502 . S
C844 C846 1.561 . S
C844 C847 1.526 . S
C845 H829 0.959 . S
C845 H830 0.959 . S
C845 H831 0.961 . S
C845 C844 1.502 . S
C846 H832 0.960 . S
C846 H833 0.961 . S
C846 H834 0.959 . S
C846 C844 1.561 . S
C847 C844 1.526 . S
C847 C848 1.396 . S
C847 C852 1.390 . S
C848 C842 1.465 . S
C848 C847 1.396 . S
C848 C849 1.399 . S
C849 H835 0.929 . S
C849 C848 1.399 . S
C849 C850 1.385 . S
C850 H836 0.931 . S
C850 C849 1.385 . S
C850 C851 1.389 . S
C851 C850 1.389 . S
C851 C852 1.387 . S
C852 H837 0.930 . S
C852 C847 1.390 . S
C852 C851 1.387 . S
H853 C865 0.930 . S
H854 C867 0.930 . S
H855 C868 0.930 . S
H856 C872 0.959 . S
H857 C872 0.959 . S
H858 C872 0.961 . S
H859 C873 0.960 . S
H860 C873 0.961 . S
H861 C873 0.959 . S
H862 C876 0.929 . S
H863 C877 0.931 . S
H864 C879 0.930 . S
C865 H853 0.930 . S
C865 C866 1.399 . S
C865 C870 1.399 . S
C866 C865 1.399 . S
C866 C867 1.376 . S
C867 H854 0.930 . S
C867 C866 1.376 . S
C867 C868 1.388 . S
C868 H855 0.930 . S
C868 C867 1.388 . S
C868 C869 1.390 . S
C869 C868 1.390 . S
C869 C870 1.394 . S
C869 C875 1.465 . S
C870 C865 1.399 . S
C870 C869 1.394 . S
C870 C871 1.516 . S
C871 C870 1.516 . S
C871 C872 1.502 . S
C871 C873 1.561 . S
C871 C874 1.526 . S
C872 H856 0.959 . S
C872 H857 0.959 . S
C872 H858 0.961 . S
C872 C871 1.502 . S
C873 H859 0.960 . S
C873 H860 0.961 . S
C873 H861 0.959 . S
C873 C871 1.561 . S
C874 C871 1.526 . S
C874 C875 1.396 . S
C874 C879 1.390 . S
C875 C869 1.465 . S
C875 C874 1.396 . S
C875 C876 1.399 . S
C876 H862 0.929 . S
C876 C875 1.399 . S
C876 C877 1.385 . S
C877 H863 0.931 . S
C877 C876 1.385 . S
C877 C878 1.389 . S
C878 C877 1.389 . S
C878 C879 1.387 . S
C879 H864 0.930 . S
C879 C874 1.390 . S
C879 C878 1.387 . S
H880 C892 0.930 . S
H881 C894 0.930 . S
H882 C895 0.930 . S
H883 C899 0.959 . S
H884 C899 0.959 . S
H885 C899 0.961 . S
H886 C900 0.960 . S
H887 C900 0.961 . S
H888 C900 0.959 . S
H889 C903 0.929 . S
H890 C904 0.931 . S
H891 C906 0.930 . S
C892 H880 0.930 . S
C892 C893 1.399 . S
C892 C897 1.399 . S
C893 C892 1.399 . S
C893 C894 1.376 . S
C894 H881 0.930 . S
C894 C893 1.376 . S
C894 C895 1.388 . S
C895 H882 0.930 . S
C895 C894 1.388 . S
C895 C896 1.390 . S
C896 C895 1.390 . S
C896 C897 1.394 . S
C896 C902 1.465 . S
C897 C892 1.399 . S
C897 C896 1.394 . S
C897 C898 1.516 . S
C898 C897 1.516 . S
C898 C899 1.502 . S
C898 C900 1.561 . S
C898 C901 1.526 . S
C899 H883 0.959 . S
C899 H884 0.959 . S
C899 H885 0.961 . S
C899 C898 1.502 . S
C900 H886 0.960 . S
C900 H887 0.961 . S
C900 H888 0.959 . S
C900 C898 1.561 . S
C901 C898 1.526 . S
C901 C902 1.396 . S
C901 C906 1.390 . S
C902 C896 1.465 . S
C902 C901 1.396 . S
C902 C903 1.399 . S
C903 H889 0.929 . S
C903 C902 1.399 . S
C903 C904 1.385 . S
C904 H890 0.931 . S
C904 C903 1.385 . S
C904 C905 1.389 . S
C905 C904 1.389 . S
C905 C906 1.387 . S
C906 H891 0.930 . S
C906 C901 1.390 . S
C906 C905 1.387 . S
H907 C919 0.930 . S
H908 C921 0.930 . S
H909 C922 0.930 . S
H910 C926 0.959 . S
H911 C926 0.959 . S
H912 C926 0.961 . S
H913 C927 0.960 . S
H914 C927 0.961 . S
H915 C927 0.959 . S
H916 C930 0.929 . S
H917 C931 0.931 . S
H918 C933 0.930 . S
C919 H907 0.930 . S
C919 C920 1.399 . S
C919 C924 1.399 . S
C920 C919 1.399 . S
C920 C921 1.376 . S
C921 H908 0.930 . S
C921 C920 1.376 . S
C921 C922 1.388 . S
C922 H909 0.930 . S
C922 C921 1.388 . S
C922 C923 1.390 . S
C923 C922 1.390 . S
C923 C924 1.394 . S
C923 C929 1.465 . S
C924 C919 1.399 . S
C924 C923 1.394 . S
C924 C925 1.516 . S
C925 C924 1.516 . S
C925 C926 1.502 . S
C925 C927 1.561 . S
C925 C928 1.526 . S
C926 H910 0.959 . S
C926 H911 0.959 . S
C926 H912 0.961 . S
C926 C925 1.502 . S
C927 H913 0.960 . S
C927 H914 0.961 . S
C927 H915 0.959 . S
C927 C925 1.561 . S
C928 C925 1.526 . S
C928 C929 1.396 . S
C928 C933 1.390 . S
C929 C923 1.465 . S
C929 C928 1.396 . S
C929 C930 1.399 . S
C930 H916 0.929 . S
C930 C929 1.399 . S
C930 C931 1.385 . S
C931 H917 0.931 . S
C931 C930 1.385 . S
C931 C932 1.389 . S
C932 C931 1.389 . S
C932 C933 1.387 . S
C933 H918 0.930 . S
C933 C928 1.390 . S
C933 C932 1.387 . S
H934 C946 0.930 . S
H935 C948 0.930 . S
H936 C949 0.930 . S
H937 C953 0.959 . S
H938 C953 0.959 . S
H939 C953 0.961 . S
H940 C954 0.960 . S
H941 C954 0.961 . S
H942 C954 0.959 . S
H943 C957 0.929 . S
H944 C958 0.931 . S
H945 C960 0.930 . S
C946 H934 0.930 . S
C946 C947 1.399 . S
C946 C951 1.399 . S
C947 C946 1.399 . S
C947 C948 1.376 . S
C948 H935 0.930 . S
C948 C947 1.376 . S
C948 C949 1.388 . S
C949 H936 0.930 . S
C949 C948 1.388 . S
C949 C950 1.390 . S
C950 C949 1.390 . S
C950 C951 1.394 . S
C950 C956 1.465 . S
C951 C946 1.399 . S
C951 C950 1.394 . S
C951 C952 1.516 . S
C952 C951 1.516 . S
C952 C953 1.502 . S
C952 C954 1.561 . S
C952 C955 1.526 . S
C953 H937 0.959 . S
C953 H938 0.959 . S
C953 H939 0.961 . S
C953 C952 1.502 . S
C954 H940 0.960 . S
C954 H941 0.961 . S
C954 H942 0.959 . S
C954 C952 1.561 . S
C955 C952 1.526 . S
C955 C956 1.396 . S
C955 C960 1.390 . S
C956 C950 1.465 . S
C956 C955 1.396 . S
C956 C957 1.399 . S
C957 H943 0.929 . S
C957 C956 1.399 . S
C957 C958 1.385 . S
C958 H944 0.931 . S
C958 C957 1.385 . S
C958 C959 1.389 . S
C959 C958 1.389 . S
C959 C960 1.387 . S
C960 H945 0.930 . S
C960 C955 1.390 . S
C960 C959 1.387 . S
H961 C973 0.930 . S
H962 C975 0.930 . S
H963 C976 0.930 . S
H964 C980 0.959 . S
H965 C980 0.959 . S
H966 C980 0.961 . S
H967 C981 0.960 . S
H968 C981 0.961 . S
H969 C981 0.959 . S
H970 C984 0.929 . S
H971 C985 0.931 . S
H972 C987 0.930 . S
C973 H961 0.930 . S
C973 C974 1.399 . S
C973 C978 1.399 . S
C974 C973 1.399 . S
C974 C975 1.376 . S
C975 H962 0.930 . S
C975 C974 1.376 . S
C975 C976 1.388 . S
C976 H963 0.930 . S
C976 C975 1.388 . S
C976 C977 1.390 . S
C977 C976 1.390 . S
C977 C978 1.394 . S
C977 C983 1.465 . S
C978 C973 1.399 . S
C978 C977 1.394 . S
C978 C979 1.516 . S
C979 C978 1.516 . S
C979 C980 1.502 . S
C979 C981 1.561 . S
C979 C982 1.526 . S
C980 H964 0.959 . S
C980 H965 0.959 . S
C980 H966 0.961 . S
C980 C979 1.502 . S
C981 H967 0.960 . S
C981 H968 0.961 . S
C981 H969 0.959 . S
C981 C979 1.561 . S
C982 C979 1.526 . S
C982 C983 1.396 . S
C982 C987 1.390 . S
C983 C977 1.465 . S
C983 C982 1.396 . S
C983 C984 1.399 . S
C984 H970 0.929 . S
C984 C983 1.399 . S
C984 C985 1.385 . S
C985 H971 0.931 . S
C985 C984 1.385 . S
C985 C986 1.389 . S
C986 C985 1.389 . S
C986 C987 1.387 . S
C987 H972 0.930 . S
C987 C982 1.390 . S
C987 C986 1.387 . S
H988 C1000 0.930 . S
H989 C1002 0.930 . S
H990 C1003 0.930 . S
H991 C1007 0.959 . S
H992 C1007 0.959 . S
H993 C1007 0.961 . S
H994 C1008 0.960 . S
H995 C1008 0.961 . S
H996 C1008 0.959 . S
H997 C1011 0.929 . S
H998 C1012 0.931 . S
H999 C1014 0.930 . S
C1000 H988 0.930 . S
C1000 C1001 1.399 . S
C1000 C1005 1.399 . S
C1001 C1000 1.399 . S
C1001 C1002 1.376 . S
C1002 H989 0.930 . S
C1002 C1001 1.376 . S
C1002 C1003 1.388 . S
C1003 H990 0.930 . S
C1003 C1002 1.388 . S
C1003 C1004 1.390 . S
C1004 C1003 1.390 . S
C1004 C1005 1.394 . S
C1004 C1010 1.465 . S
C1005 C1000 1.399 . S
C1005 C1004 1.394 . S
C1005 C1006 1.516 . S
C1006 C1005 1.516 . S
C1006 C1007 1.502 . S
C1006 C1008 1.561 . S
C1006 C1009 1.526 . S
C1007 H991 0.959 . S
C1007 H992 0.959 . S
C1007 H993 0.961 . S
C1007 C1006 1.502 . S
C1008 H994 0.960 . S
C1008 H995 0.961 . S
C1008 H996 0.959 . S
C1008 C1006 1.561 . S
C1009 C1006 1.526 . S
C1009 C1010 1.396 . S
C1009 C1014 1.390 . S
C1010 C1004 1.465 . S
C1010 C1009 1.396 . S
C1010 C1011 1.399 . S
C1011 H997 0.929 . S
C1011 C1010 1.399 . S
C1011 C1012 1.385 . S
C1012 H998 0.931 . S
C1012 C1011 1.385 . S
C1012 C1013 1.389 . S
C1013 C1012 1.389 . S
C1013 C1014 1.387 . S
C1014 H999 0.930 . S
C1014 C1009 1.390 . S
C1014 C1013 1.387 . S
H1015 C1027 0.930 . S
H1016 C1029 0.930 . S
H1017 C1030 0.930 . S
H1018 C1034 0.959 . S
H1019 C1034 0.959 . S
H1020 C1034 0.961 . S
H1021 C1035 0.960 . S
H1022 C1035 0.961 . S
H1023 C1035 0.959 . S
H1024 C1038 0.929 . S
H1025 C1039 0.931 . S
H1026 C1041 0.930 . S
C1027 H1015 0.930 . S
C1027 C1028 1.399 . S
C1027 C1032 1.399 . S
C1028 C1027 1.399 . S
C1028 C1029 1.376 . S
C1029 H1016 0.930 . S
C1029 C1028 1.376 . S
C1029 C1030 1.388 . S
C1030 H1017 0.930 . S
C1030 C1029 1.388 . S
C1030 C1031 1.390 . S
C1031 C1030 1.390 . S
C1031 C1032 1.394 . S
C1031 C1037 1.465 . S
C1032 C1027 1.399 . S
C1032 C1031 1.394 . S
C1032 C1033 1.516 . S
C1033 C1032 1.516 . S
C1033 C1034 1.502 . S
C1033 C1035 1.561 . S
C1033 C1036 1.526 . S
C1034 H1018 0.959 . S
C1034 H1019 0.959 . S
C1034 H1020 0.961 . S
C1034 C1033 1.502 . S
C1035 H1021 0.960 . S
C1035 H1022 0.961 . S
C1035 H1023 0.959 . S
C1035 C1033 1.561 . S
C1036 C1033 1.526 . S
C1036 C1037 1.396 . S
C1036 C1041 1.390 . S
C1037 C1031 1.465 . S
C1037 C1036 1.396 . S
C1037 C1038 1.399 . S
C1038 H1024 0.929 . S
C1038 C1037 1.399 . S
C1038 C1039 1.385 . S
C1039 H1025 0.931 . S
C1039 C1038 1.385 . S
C1039 C1040 1.389 . S
C1040 C1039 1.389 . S
C1040 C1041 1.387 . S
C1041 H1026 0.930 . S
C1041 C1036 1.390 . S
C1041 C1040 1.387 . S
H1042 C1054 0.930 . S
H1043 C1056 0.930 . S
H1044 C1057 0.930 . S
H1045 C1061 0.959 . S
H1046 C1061 0.959 . S
H1047 C1061 0.961 . S
H1048 C1062 0.960 . S
H1049 C1062 0.961 . S
H1050 C1062 0.959 . S
H1051 C1065 0.929 . S
H1052 C1066 0.931 . S
H1053 C1068 0.930 . S
C1054 H1042 0.930 . S
C1054 C1055 1.399 . S
C1054 C1059 1.399 . S
C1055 C1054 1.399 . S
C1055 C1056 1.376 . S
C1056 H1043 0.930 . S
C1056 C1055 1.376 . S
C1056 C1057 1.388 . S
C1057 H1044 0.930 . S
C1057 C1056 1.388 . S
C1057 C1058 1.390 . S
C1058 C1057 1.390 . S
C1058 C1059 1.394 . S
C1058 C1064 1.465 . S
C1059 C1054 1.399 . S
C1059 C1058 1.394 . S
C1059 C1060 1.516 . S
C1060 C1059 1.516 . S
C1060 C1061 1.502 . S
C1060 C1062 1.561 . S
C1060 C1063 1.526 . S
C1061 H1045 0.959 . S
C1061 H1046 0.959 . S
C1061 H1047 0.961 . S
C1061 C1060 1.502 . S
C1062 H1048 0.960 . S
C1062 H1049 0.961 . S
C1062 H1050 0.959 . S
C1062 C1060 1.561 . S
C1063 C1060 1.526 . S
C1063 C1064 1.396 . S
C1063 C1068 1.390 . S
C1064 C1058 1.465 . S
C1064 C1063 1.396 . S
C1064 C1065 1.399 . S
C1065 H1051 0.929 . S
C1065 C1064 1.399 . S
C1065 C1066 1.385 . S
C1066 H1052 0.931 . S
C1066 C1065 1.385 . S
C1066 C1067 1.389 . S
C1067 C1066 1.389 . S
C1067 C1068 1.387 . S
C1068 H1053 0.930 . S
C1068 C1063 1.390 . S
C1068 C1067 1.387 . S
H1069 C1081 0.930 . S
H1070 C1083 0.930 . S
H1071 C1084 0.930 . S
H1072 C1088 0.959 . S
H1073 C1088 0.959 . S
H1074 C1088 0.961 . S
H1075 C1089 0.960 . S
H1076 C1089 0.961 . S
H1077 C1089 0.959 . S
H1078 C1092 0.929 . S
H1079 C1093 0.931 . S
H1080 C1095 0.930 . S
C1081 H1069 0.930 . S
C1081 C1082 1.399 . S
C1081 C1086 1.399 . S
C1082 C1081 1.399 . S
C1082 C1083 1.376 . S
C1083 H1070 0.930 . S
C1083 C1082 1.376 . S
C1083 C1084 1.388 . S
C1084 H1071 0.930 . S
C1084 C1083 1.388 . S
C1084 C1085 1.390 . S
C1085 C1084 1.390 . S
C1085 C1086 1.394 . S
C1085 C1091 1.465 . S
C1086 C1081 1.399 . S
C1086 C1085 1.394 . S
C1086 C1087 1.516 . S
C1087 C1086 1.516 . S
C1087 C1088 1.502 . S
C1087 C1089 1.561 . S
C1087 C1090 1.526 . S
C1088 H1072 0.959 . S
C1088 H1073 0.959 . S
C1088 H1074 0.961 . S
C1088 C1087 1.502 . S
C1089 H1075 0.960 . S
C1089 H1076 0.961 . S
C1089 H1077 0.959 . S
C1089 C1087 1.561 . S
C1090 C1087 1.526 . S
C1090 C1091 1.396 . S
C1090 C1095 1.390 . S
C1091 C1085 1.465 . S
C1091 C1090 1.396 . S
C1091 C1092 1.399 . S
C1092 H1078 0.929 . S
C1092 C1091 1.399 . S
C1092 C1093 1.385 . S
C1093 H1079 0.931 . S
C1093 C1092 1.385 . S
C1093 C1094 1.389 . S
C1094 C1093 1.389 . S
C1094 C1095 1.387 . S
C1095 H1080 0.930 . S
C1095 C1090 1.390 . S
C1095 C1094 1.387 . S
H1096 C1108 0.930 . S
H1097 C1110 0.930 . S
H1098 C1111 0.930 . S
H1099 C1115 0.959 . S
H1100 C1115 0.959 . S
H1101 C1115 0.961 . S
H1102 C1116 0.960 . S
H1103 C1116 0.961 . S
H1104 C1116 0.959 . S
H1105 C1119 0.929 . S
H1106 C1120 0.931 . S
H1107 C1122 0.930 . S
C1108 H1096 0.930 . S
C1108 C1109 1.399 . S
C1108 C1113 1.399 . S
C1109 C1108 1.399 . S
C1109 C1110 1.376 . S
C1110 H1097 0.930 . S
C1110 C1109 1.376 . S
C1110 C1111 1.388 . S
C1111 H1098 0.930 . S
C1111 C1110 1.388 . S
C1111 C1112 1.390 . S
C1112 C1111 1.390 . S
C1112 C1113 1.394 . S
C1112 C1118 1.465 . S
C1113 C1108 1.399 . S
C1113 C1112 1.394 . S
C1113 C1114 1.516 . S
C1114 C1113 1.516 . S
C1114 C1115 1.502 . S
C1114 C1116 1.561 . S
C1114 C1117 1.526 . S
C1115 H1099 0.959 . S
C1115 H1100 0.959 . S
C1115 H1101 0.961 . S
C1115 C1114 1.502 . S
C1116 H1102 0.960 . S
C1116 H1103 0.961 . S
C1116 H1104 0.959 . S
C1116 C1114 1.561 . S
C1117 C1114 1.526 . S
C1117 C1118 1.396 . S
C1117 C1122 1.390 . S
C1118 C1112 1.465 . S
C1118 C1117 1.396 . S
C1118 C1119 1.399 . S
C1119 H1105 0.929 . S
C1119 C1118 1.399 . S
C1119 C1120 1.385 . S
C1120 H1106 0.931 . S
C1120 C1119 1.385 . S
C1120 C1121 1.389 . S
C1121 C1120 1.389 . S
C1121 C1122 1.387 . S
C1122 H1107 0.930 . S
C1122 C1117 1.390 . S
C1122 C1121 1.387 . S
H1123 C1135 0.930 . S
H1124 C1137 0.930 . S
H1125 C1138 0.930 . S
H1126 C1142 0.959 . S
H1127 C1142 0.959 . S
H1128 C1142 0.961 . S
H1129 C1143 0.960 . S
H1130 C1143 0.961 . S
H1131 C1143 0.959 . S
H1132 C1146 0.929 . S
H1133 C1147 0.931 . S
H1134 C1149 0.930 . S
C1135 H1123 0.930 . S
C1135 C1136 1.399 . S
C1135 C1140 1.399 . S
C1136 C1135 1.399 . S
C1136 C1137 1.376 . S
C1137 H1124 0.930 . S
C1137 C1136 1.376 . S
C1137 C1138 1.388 . S
C1138 H1125 0.930 . S
C1138 C1137 1.388 . S
C1138 C1139 1.390 . S
C1139 C1138 1.390 . S
C1139 C1140 1.394 . S
C1139 C1145 1.465 . S
C1140 C1135 1.399 . S
C1140 C1139 1.394 . S
C1140 C1141 1.516 . S
C1141 C1140 1.516 . S
C1141 C1142 1.502 . S
C1141 C1143 1.561 . S
C1141 C1144 1.526 . S
C1142 H1126 0.959 . S
C1142 H1127 0.959 . S
C1142 H1128 0.961 . S
C1142 C1141 1.502 . S
C1143 H1129 0.960 . S
C1143 H1130 0.961 . S
C1143 H1131 0.959 . S
C1143 C1141 1.561 . S
C1144 C1141 1.526 . S
C1144 C1145 1.396 . S
C1144 C1149 1.390 . S
C1145 C1139 1.465 . S
C1145 C1144 1.396 . S
C1145 C1146 1.399 . S
C1146 H1132 0.929 . S
C1146 C1145 1.399 . S
C1146 C1147 1.385 . S
C1147 H1133 0.931 . S
C1147 C1146 1.385 . S
C1147 C1148 1.389 . S
C1148 C1147 1.389 . S
C1148 C1149 1.387 . S
C1149 H1134 0.930 . S
C1149 C1144 1.390 . S
C1149 C1148 1.387 . S
H1150 C1162 0.930 . S
H1151 C1164 0.930 . S
H1152 C1165 0.930 . S
H1153 C1169 0.959 . S
H1154 C1169 0.959 . S
H1155 C1169 0.961 . S
H1156 C1170 0.960 . S
H1157 C1170 0.961 . S
H1158 C1170 0.959 . S
H1159 C1173 0.929 . S
H1160 C1174 0.931 . S
H1161 C1176 0.930 . S
C1162 H1150 0.930 . S
C1162 C1163 1.399 . S
C1162 C1167 1.399 . S
C1163 C1162 1.399 . S
C1163 C1164 1.376 . S
C1164 H1151 0.930 . S
C1164 C1163 1.376 . S
C1164 C1165 1.388 . S
C1165 H1152 0.930 . S
C1165 C1164 1.388 . S
C1165 C1166 1.390 . S
C1166 C1165 1.390 . S
C1166 C1167 1.394 . S
C1166 C1172 1.465 . S
C1167 C1162 1.399 . S
C1167 C1166 1.394 . S
C1167 C1168 1.516 . S
C1168 C1167 1.516 . S
C1168 C1169 1.502 . S
C1168 C1170 1.561 . S
C1168 C1171 1.526 . S
C1169 H1153 0.959 . S
C1169 H1154 0.959 . S
C1169 H1155 0.961 . S
C1169 C1168 1.502 . S
C1170 H1156 0.960 . S
C1170 H1157 0.961 . S
C1170 H1158 0.959 . S
C1170 C1168 1.561 . S
C1171 C1168 1.526 . S
C1171 C1172 1.396 . S
C1171 C1176 1.390 . S
C1172 C1166 1.465 . S
C1172 C1171 1.396 . S
C1172 C1173 1.399 . S
C1173 H1159 0.929 . S
C1173 C1172 1.399 . S
C1173 C1174 1.385 . S
C1174 H1160 0.931 . S
C1174 C1173 1.385 . S
C1174 C1175 1.389 . S
C1175 C1174 1.389 . S
C1175 C1176 1.387 . S
C1176 H1161 0.930 . S
C1176 C1171 1.390 . S
C1176 C1175 1.387 . S
H1177 C1189 0.930 . S
H1178 C1191 0.930 . S
H1179 C1192 0.930 . S
H1180 C1196 0.959 . S
H1181 C1196 0.959 . S
H1182 C1196 0.961 . S
H1183 C1197 0.960 . S
H1184 C1197 0.961 . S
H1185 C1197 0.959 . S
H1186 C1200 0.929 . S
H1187 C1201 0.931 . S
H1188 C1203 0.930 . S
C1189 H1177 0.930 . S
C1189 C1190 1.399 . S
C1189 C1194 1.399 . S
C1190 C1189 1.399 . S
C1190 C1191 1.376 . S
C1191 H1178 0.930 . S
C1191 C1190 1.376 . S
C1191 C1192 1.388 . S
C1192 H1179 0.930 . S
C1192 C1191 1.388 . S
C1192 C1193 1.390 . S
C1193 C1192 1.390 . S
C1193 C1194 1.394 . S
C1193 C1199 1.465 . S
C1194 C1189 1.399 . S
C1194 C1193 1.394 . S
C1194 C1195 1.516 . S
C1195 C1194 1.516 . S
C1195 C1196 1.502 . S
C1195 C1197 1.561 . S
C1195 C1198 1.526 . S
C1196 H1180 0.959 . S
C1196 H1181 0.959 . S
C1196 H1182 0.961 . S
C1196 C1195 1.502 . S
C1197 H1183 0.960 . S
C1197 H1184 0.961 . S
C1197 H1185 0.959 . S
C1197 C1195 1.561 . S
C1198 C1195 1.526 . S
C1198 C1199 1.396 . S
C1198 C1203 1.390 . S
C1199 C1193 1.465 . S
C1199 C1198 1.396 . S
C1199 C1200 1.399 . S
C1200 H1186 0.929 . S
C1200 C1199 1.399 . S
C1200 C1201 1.385 . S
C1201 H1187 0.931 . S
C1201 C1200 1.385 . S
C1201 C1202 1.389 . S
C1202 C1201 1.389 . S
C1202 C1203 1.387 . S
C1203 H1188 0.930 . S
C1203 C1198 1.390 . S
C1203 C1202 1.387 . S
H1204 C1216 0.930 . S
H1205 C1218 0.930 . S
H1206 C1219 0.930 . S
H1207 C1223 0.959 . S
H1208 C1223 0.959 . S
H1209 C1223 0.961 . S
H1210 C1224 0.960 . S
H1211 C1224 0.961 . S
H1212 C1224 0.959 . S
H1213 C1227 0.929 . S
H1214 C1228 0.931 . S
H1215 C1230 0.930 . S
C1216 H1204 0.930 . S
C1216 C1217 1.399 . S
C1216 C1221 1.399 . S
C1217 C1216 1.399 . S
C1217 C1218 1.376 . S
C1218 H1205 0.930 . S
C1218 C1217 1.376 . S
C1218 C1219 1.388 . S
C1219 H1206 0.930 . S
C1219 C1218 1.388 . S
C1219 C1220 1.390 . S
C1220 C1219 1.390 . S
C1220 C1221 1.394 . S
C1220 C1226 1.465 . S
C1221 C1216 1.399 . S
C1221 C1220 1.394 . S
C1221 C1222 1.516 . S
C1222 C1221 1.516 . S
C1222 C1223 1.502 . S
C1222 C1224 1.561 . S
C1222 C1225 1.526 . S
C1223 H1207 0.959 . S
C1223 H1208 0.959 . S
C1223 H1209 0.961 . S
C1223 C1222 1.502 . S
C1224 H1210 0.960 . S
C1224 H1211 0.961 . S
C1224 H1212 0.959 . S
C1224 C1222 1.561 . S
C1225 C1222 1.526 . S
C1225 C1226 1.396 . S
C1225 C1230 1.390 . S
C1226 C1220 1.465 . S
C1226 C1225 1.396 . S
C1226 C1227 1.399 . S
C1227 H1213 0.929 . S
C1227 C1226 1.399 . S
C1227 C1228 1.385 . S
C1228 H1214 0.931 . S
C1228 C1227 1.385 . S
C1228 C1229 1.389 . S
C1229 C1228 1.389 . S
C1229 C1230 1.387 . S
C1230 H1215 0.930 . S
C1230 C1225 1.390 . S
C1230 C1229 1.387 . S
H1231 C1243 0.930 . S
H1232 C1245 0.930 . S
H1233 C1246 0.930 . S
H1234 C1250 0.959 . S
H1235 C1250 0.959 . S
H1236 C1250 0.961 . S
H1237 C1251 0.960 . S
H1238 C1251 0.961 . S
H1239 C1251 0.959 . S
H1240 C1254 0.929 . S
H1241 C1255 0.931 . S
H1242 C1257 0.930 . S
C1243 H1231 0.930 . S
C1243 C1244 1.399 . S
C1243 C1248 1.399 . S
C1244 C1243 1.399 . S
C1244 C1245 1.376 . S
C1245 H1232 0.930 . S
C1245 C1244 1.376 . S
C1245 C1246 1.388 . S
C1246 H1233 0.930 . S
C1246 C1245 1.388 . S
C1246 C1247 1.390 . S
C1247 C1246 1.390 . S
C1247 C1248 1.394 . S
C1247 C1253 1.465 . S
C1248 C1243 1.399 . S
C1248 C1247 1.394 . S
C1248 C1249 1.516 . S
C1249 C1248 1.516 . S
C1249 C1250 1.502 . S
C1249 C1251 1.561 . S
C1249 C1252 1.526 . S
C1250 H1234 0.959 . S
C1250 H1235 0.959 . S
C1250 H1236 0.961 . S
C1250 C1249 1.502 . S
C1251 H1237 0.960 . S
C1251 H1238 0.961 . S
C1251 H1239 0.959 . S
C1251 C1249 1.561 . S
C1252 C1249 1.526 . S
C1252 C1253 1.396 . S
C1252 C1257 1.390 . S
C1253 C1247 1.465 . S
C1253 C1252 1.396 . S
C1253 C1254 1.399 . S
C1254 H1240 0.929 . S
C1254 C1253 1.399 . S
C1254 C1255 1.385 . S
C1255 H1241 0.931 . S
C1255 C1254 1.385 . S
C1255 C1256 1.389 . S
C1256 C1255 1.389 . S
C1256 C1257 1.387 . S
C1257 H1242 0.930 . S
C1257 C1252 1.390 . S
C1257 C1256 1.387 . S
H1258 C1270 0.930 . S
H1259 C1272 0.930 . S
H1260 C1273 0.930 . S
H1261 C1277 0.959 . S
H1262 C1277 0.959 . S
H1263 C1277 0.961 . S
H1264 C1278 0.960 . S
H1265 C1278 0.961 . S
H1266 C1278 0.959 . S
H1267 C1281 0.929 . S
H1268 C1282 0.931 . S
H1269 C1284 0.930 . S
C1270 H1258 0.930 . S
C1270 C1271 1.399 . S
C1270 C1275 1.399 . S
C1271 C1270 1.399 . S
C1271 C1272 1.376 . S
C1272 H1259 0.930 . S
C1272 C1271 1.376 . S
C1272 C1273 1.388 . S
C1273 H1260 0.930 . S
C1273 C1272 1.388 . S
C1273 C1274 1.390 . S
C1274 C1273 1.390 . S
C1274 C1275 1.394 . S
C1274 C1280 1.465 . S
C1275 C1270 1.399 . S
C1275 C1274 1.394 . S
C1275 C1276 1.516 . S
C1276 C1275 1.516 . S
C1276 C1277 1.502 . S
C1276 C1278 1.561 . S
C1276 C1279 1.526 . S
C1277 H1261 0.959 . S
C1277 H1262 0.959 . S
C1277 H1263 0.961 . S
C1277 C1276 1.502 . S
C1278 H1264 0.960 . S
C1278 H1265 0.961 . S
C1278 H1266 0.959 . S
C1278 C1276 1.561 . S
C1279 C1276 1.526 . S
C1279 C1280 1.396 . S
C1279 C1284 1.390 . S
C1280 C1274 1.465 . S
C1280 C1279 1.396 . S
C1280 C1281 1.399 . S
C1281 H1267 0.929 . S
C1281 C1280 1.399 . S
C1281 C1282 1.385 . S
C1282 H1268 0.931 . S
C1282 C1281 1.385 . S
C1282 C1283 1.389 . S
C1283 C1282 1.389 . S
C1283 C1284 1.387 . S
C1284 H1269 0.930 . S
C1284 C1279 1.390 . S
C1284 C1283 1.387 . S
H1285 C1297 0.930 . S
H1286 C1299 0.930 . S
H1287 C1300 0.930 . S
H1288 C1304 0.959 . S
H1289 C1304 0.959 . S
H1290 C1304 0.961 . S
H1291 C1305 0.960 . S
H1292 C1305 0.961 . S
H1293 C1305 0.959 . S
H1294 C1308 0.929 . S
H1295 C1309 0.931 . S
H1296 C1311 0.930 . S
C1297 H1285 0.930 . S
C1297 C1298 1.399 . S
C1297 C1302 1.399 . S
C1298 C1297 1.399 . S
C1298 C1299 1.376 . S
C1299 H1286 0.930 . S
C1299 C1298 1.376 . S
C1299 C1300 1.388 . S
C1300 H1287 0.930 . S
C1300 C1299 1.388 . S
C1300 C1301 1.390 . S
C1301 C1300 1.390 . S
C1301 C1302 1.394 . S
C1301 C1307 1.465 . S
C1302 C1297 1.399 . S
C1302 C1301 1.394 . S
C1302 C1303 1.516 . S
C1303 C1302 1.516 . S
C1303 C1304 1.502 . S
C1303 C1305 1.561 . S
C1303 C1306 1.526 . S
C1304 H1288 0.959 . S
C1304 H1289 0.959 . S
C1304 H1290 0.961 . S
C1304 C1303 1.502 . S
C1305 H1291 0.960 . S
C1305 H1292 0.961 . S
C1305 H1293 0.959 . S
C1305 C1303 1.561 . S
C1306 C1303 1.526 . S
C1306 C1307 1.396 . S
C1306 C1311 1.390 . S
C1307 C1301 1.465 . S
C1307 C1306 1.396 . S
C1307 C1308 1.399 . S
C1308 H1294 0.929 . S
C1308 C1307 1.399 . S
C1308 C1309 1.385 . S
C1309 H1295 0.931 . S
C1309 C1308 1.385 . S
C1309 C1310 1.389 . S
C1310 C1309 1.389 . S
C1310 C1311 1.387 . S
C1311 H1296 0.930 . S
C1311 C1306 1.390 . S
C1311 C1310 1.387 . S
H1312 C1324 0.930 . S
H1313 C1326 0.930 . S
H1314 C1327 0.930 . S
H1315 C1331 0.959 . S
H1316 C1331 0.959 . S
H1317 C1331 0.961 . S
H1318 C1332 0.960 . S
H1319 C1332 0.961 . S
H1320 C1332 0.959 . S
H1321 C1335 0.929 . S
H1322 C1336 0.931 . S
H1323 C1338 0.930 . S
C1324 H1312 0.930 . S
C1324 C1325 1.399 . S
C1324 C1329 1.399 . S
C1325 C1324 1.399 . S
C1325 C1326 1.376 . S
C1326 H1313 0.930 . S
C1326 C1325 1.376 . S
C1326 C1327 1.388 . S
C1327 H1314 0.930 . S
C1327 C1326 1.388 . S
C1327 C1328 1.390 . S
C1328 C1327 1.390 . S
C1328 C1329 1.394 . S
C1328 C1334 1.465 . S
C1329 C1324 1.399 . S
C1329 C1328 1.394 . S
C1329 C1330 1.516 . S
C1330 C1329 1.516 . S
C1330 C1331 1.502 . S
C1330 C1332 1.561 . S
C1330 C1333 1.526 . S
C1331 H1315 0.959 . S
C1331 H1316 0.959 . S
C1331 H1317 0.961 . S
C1331 C1330 1.502 . S
C1332 H1318 0.960 . S
C1332 H1319 0.961 . S
C1332 H1320 0.959 . S
C1332 C1330 1.561 . S
C1333 C1330 1.526 . S
C1333 C1334 1.396 . S
C1333 C1338 1.390 . S
C1334 C1328 1.465 . S
C1334 C1333 1.396 . S
C1334 C1335 1.399 . S
C1335 H1321 0.929 . S
C1335 C1334 1.399 . S
C1335 C1336 1.385 . S
C1336 H1322 0.931 . S
C1336 C1335 1.385 . S
C1336 C1337 1.389 . S
C1337 C1336 1.389 . S
C1337 C1338 1.387 . S
C1338 H1323 0.930 . S
C1338 C1333 1.390 . S
C1338 C1337 1.387 . S
H1339 C1351 0.930 . S
H1340 C1353 0.930 . S
H1341 C1354 0.930 . S
H1342 C1358 0.959 . S
H1343 C1358 0.959 . S
H1344 C1358 0.961 . S
H1345 C1359 0.960 . S
H1346 C1359 0.961 . S
H1347 C1359 0.959 . S
H1348 C1362 0.929 . S
H1349 C1363 0.931 . S
H1350 C1365 0.930 . S
C1351 H1339 0.930 . S
C1351 C1352 1.399 . S
C1351 C1356 1.399 . S
C1352 C1351 1.399 . S
C1352 C1353 1.376 . S
C1353 H1340 0.930 . S
C1353 C1352 1.376 . S
C1353 C1354 1.388 . S
C1354 H1341 0.930 . S
C1354 C1353 1.388 . S
C1354 C1355 1.390 . S
C1355 C1354 1.390 . S
C1355 C1356 1.394 . S
C1355 C1361 1.465 . S
C1356 C1351 1.399 . S
C1356 C1355 1.394 . S
C1356 C1357 1.516 . S
C1357 C1356 1.516 . S
C1357 C1358 1.502 . S
C1357 C1359 1.561 . S
C1357 C1360 1.526 . S
C1358 H1342 0.959 . S
C1358 H1343 0.959 . S
C1358 H1344 0.961 . S
C1358 C1357 1.502 . S
C1359 H1345 0.960 . S
C1359 H1346 0.961 . S
C1359 H1347 0.959 . S
C1359 C1357 1.561 . S
C1360 C1357 1.526 . S
C1360 C1361 1.396 . S
C1360 C1365 1.390 . S
C1361 C1355 1.465 . S
C1361 C1360 1.396 . S
C1361 C1362 1.399 . S
C1362 H1348 0.929 . S
C1362 C1361 1.399 . S
C1362 C1363 1.385 . S
C1363 H1349 0.931 . S
C1363 C1362 1.385 . S
C1363 C1364 1.389 . S
C1364 C1363 1.389 . S
C1364 C1365 1.387 . S
C1365 H1350 0.930 . S
C1365 C1360 1.390 . S
C1365 C1364 1.387 . S
H1366 C1378 0.930 . S
H1367 C1380 0.930 . S
H1368 C1381 0.930 . S
H1369 C1385 0.959 . S
H1370 C1385 0.959 . S
H1371 C1385 0.961 . S
H1372 C1386 0.960 . S
H1373 C1386 0.961 . S
H1374 C1386 0.959 . S
H1375 C1389 0.929 . S
H1376 C1390 0.931 . S
H1377 C1392 0.930 . S
C1378 H1366 0.930 . S
C1378 C1379 1.399 . S
C1378 C1383 1.399 . S
C1379 C1378 1.399 . S
C1379 C1380 1.376 . S
C1380 H1367 0.930 . S
C1380 C1379 1.376 . S
C1380 C1381 1.388 . S
C1381 H1368 0.930 . S
C1381 C1380 1.388 . S
C1381 C1382 1.390 . S
C1382 C1381 1.390 . S
C1382 C1383 1.394 . S
C1382 C1388 1.465 . S
C1383 C1378 1.399 . S
C1383 C1382 1.394 . S
C1383 C1384 1.516 . S
C1384 C1383 1.516 . S
C1384 C1385 1.502 . S
C1384 C1386 1.561 . S
C1384 C1387 1.526 . S
C1385 H1369 0.959 . S
C1385 H1370 0.959 . S
C1385 H1371 0.961 . S
C1385 C1384 1.502 . S
C1386 H1372 0.960 . S
C1386 H1373 0.961 . S
C1386 H1374 0.959 . S
C1386 C1384 1.561 . S
C1387 C1384 1.526 . S
C1387 C1388 1.396 . S
C1387 C1392 1.390 . S
C1388 C1382 1.465 . S
C1388 C1387 1.396 . S
C1388 C1389 1.399 . S
C1389 H1375 0.929 . S
C1389 C1388 1.399 . S
C1389 C1390 1.385 . S
C1390 H1376 0.931 . S
C1390 C1389 1.385 . S
C1390 C1391 1.389 . S
C1391 C1390 1.389 . S
C1391 C1392 1.387 . S
C1392 H1377 0.930 . S
C1392 C1387 1.390 . S
C1392 C1391 1.387 . S
H1393 C1405 0.930 . S
H1394 C1407 0.930 . S
H1395 C1408 0.930 . S
H1396 C1412 0.959 . S
H1397 C1412 0.959 . S
H1398 C1412 0.961 . S
H1399 C1413 0.960 . S
H1400 C1413 0.961 . S
H1401 C1413 0.959 . S
H1402 C1416 0.929 . S
H1403 C1417 0.931 . S
H1404 C1419 0.930 . S
C1405 H1393 0.930 . S
C1405 C1406 1.399 . S
C1405 C1410 1.399 . S
C1406 C1405 1.399 . S
C1406 C1407 1.376 . S
C1407 H1394 0.930 . S
C1407 C1406 1.376 . S
C1407 C1408 1.388 . S
C1408 H1395 0.930 . S
C1408 C1407 1.388 . S
C1408 C1409 1.390 . S
C1409 C1408 1.390 . S
C1409 C1410 1.394 . S
C1409 C1415 1.465 . S
C1410 C1405 1.399 . S
C1410 C1409 1.394 . S
C1410 C1411 1.516 . S
C1411 C1410 1.516 . S
C1411 C1412 1.502 . S
C1411 C1413 1.561 . S
C1411 C1414 1.526 . S
C1412 H1396 0.959 . S
C1412 H1397 0.959 . S
C1412 H1398 0.961 . S
C1412 C1411 1.502 . S
C1413 H1399 0.960 . S
C1413 H1400 0.961 . S
C1413 H1401 0.959 . S
C1413 C1411 1.561 . S
C1414 C1411 1.526 . S
C1414 C1415 1.396 . S
C1414 C1419 1.390 . S
C1415 C1409 1.465 . S
C1415 C1414 1.396 . S
C1415 C1416 1.399 . S
C1416 H1402 0.929 . S
C1416 C1415 1.399 . S
C1416 C1417 1.385 . S
C1417 H1403 0.931 . S
C1417 C1416 1.385 . S
C1417 C1418 1.389 . S
C1418 C1417 1.389 . S
C1418 C1419 1.387 . S
C1419 H1404 0.930 . S
C1419 C1414 1.390 . S
C1419 C1418 1.387 . S
H1420 C1432 0.930 . S
H1421 C1434 0.930 . S
H1422 C1435 0.930 . S
H1423 C1439 0.959 . S
H1424 C1439 0.959 . S
H1425 C1439 0.961 . S
H1426 C1440 0.960 . S
H1427 C1440 0.961 . S
H1428 C1440 0.959 . S
H1429 C1443 0.929 . S
H1430 C1444 0.931 . S
H1431 C1446 0.930 . S
C1432 H1420 0.930 . S
C1432 C1433 1.399 . S
C1432 C1437 1.399 . S
C1433 C1432 1.399 . S
C1433 C1434 1.376 . S
C1434 H1421 0.930 . S
C1434 C1433 1.376 . S
C1434 C1435 1.388 . S
C1435 H1422 0.930 . S
C1435 C1434 1.388 . S
C1435 C1436 1.390 . S
C1436 C1435 1.390 . S
C1436 C1437 1.394 . S
C1436 C1442 1.465 . S
C1437 C1432 1.399 . S
C1437 C1436 1.394 . S
C1437 C1438 1.516 . S
C1438 C1437 1.516 . S
C1438 C1439 1.502 . S
C1438 C1440 1.561 . S
C1438 C1441 1.526 . S
C1439 H1423 0.959 . S
C1439 H1424 0.959 . S
C1439 H1425 0.961 . S
C1439 C1438 1.502 . S
C1440 H1426 0.960 . S
C1440 H1427 0.961 . S
C1440 H1428 0.959 . S
C1440 C1438 1.561 . S
C1441 C1438 1.526 . S
C1441 C1442 1.396 . S
C1441 C1446 1.390 . S
C1442 C1436 1.465 . S
C1442 C1441 1.396 . S
C1442 C1443 1.399 . S
C1443 H1429 0.929 . S
C1443 C1442 1.399 . S
C1443 C1444 1.385 . S
C1444 H1430 0.931 . S
C1444 C1443 1.385 . S
C1444 C1445 1.389 . S
C1445 C1444 1.389 . S
C1445 C1446 1.387 . S
C1446 H1431 0.930 . S
C1446 C1441 1.390 . S
C1446 C1445 1.387 . S
H1447 C1459 0.930 . S
H1448 C1461 0.930 . S
H1449 C1462 0.930 . S
H1450 C1466 0.959 . S
H1451 C1466 0.959 . S
H1452 C1466 0.961 . S
H1453 C1467 0.960 . S
H1454 C1467 0.961 . S
H1455 C1467 0.959 . S
H1456 C1470 0.929 . S
H1457 C1471 0.931 . S
H1458 C1473 0.930 . S
C1459 H1447 0.930 . S
C1459 C1460 1.399 . S
C1459 C1464 1.399 . S
C1460 C1459 1.399 . S
C1460 C1461 1.376 . S
C1461 H1448 0.930 . S
C1461 C1460 1.376 . S
C1461 C1462 1.388 . S
C1462 H1449 0.930 . S
C1462 C1461 1.388 . S
C1462 C1463 1.390 . S
C1463 C1462 1.390 . S
C1463 C1464 1.394 . S
C1463 C1469 1.465 . S
C1464 C1459 1.399 . S
C1464 C1463 1.394 . S
C1464 C1465 1.516 . S
C1465 C1464 1.516 . S
C1465 C1466 1.502 . S
C1465 C1467 1.561 . S
C1465 C1468 1.526 . S
C1466 H1450 0.959 . S
C1466 H1451 0.959 . S
C1466 H1452 0.961 . S
C1466 C1465 1.502 . S
C1467 H1453 0.960 . S
C1467 H1454 0.961 . S
C1467 H1455 0.959 . S
C1467 C1465 1.561 . S
C1468 C1465 1.526 . S
C1468 C1469 1.396 . S
C1468 C1473 1.390 . S
C1469 C1463 1.465 . S
C1469 C1468 1.396 . S
C1469 C1470 1.399 . S
C1470 H1456 0.929 . S
C1470 C1469 1.399 . S
C1470 C1471 1.385 . S
C1471 H1457 0.931 . S
C1471 C1470 1.385 . S
C1471 C1472 1.389 . S
C1472 C1471 1.389 . S
C1472 C1473 1.387 . S
C1473 H1458 0.930 . S
C1473 C1468 1.390 . S
C1473 C1472 1.387 . S
H1474 C1486 0.930 . S
H1475 C1488 0.930 . S
H1476 C1489 0.930 . S
H1477 C1493 0.959 . S
H1478 C1493 0.959 . S
H1479 C1493 0.961 . S
H1480 C1494 0.960 . S
H1481 C1494 0.961 . S
H1482 C1494 0.959 . S
H1483 C1497 0.929 . S
H1484 C1498 0.931 . S
H1485 C1500 0.930 . S
C1486 H1474 0.930 . S
C1486 C1487 1.399 . S
C1486 C1491 1.399 . S
C1487 C1486 1.399 . S
C1487 C1488 1.376 . S
C1488 H1475 0.930 . S
C1488 C1487 1.376 . S
C1488 C1489 1.388 . S
C1489 H1476 0.930 . S
C1489 C1488 1.388 . S
C1489 C1490 1.390 . S
C1490 C1489 1.390 . S
C1490 C1491 1.394 . S
C1490 C1496 1.465 . S
C1491 C1486 1.399 . S
C1491 C1490 1.394 . S
C1491 C1492 1.516 . S
C1492 C1491 1.516 . S
C1492 C1493 1.502 . S
C1492 C1494 1.561 . S
C1492 C1495 1.526 . S
C1493 H1477 0.959 . S
C1493 H1478 0.959 . S
C1493 H1479 0.961 . S
C1493 C1492 1.502 . S
C1494 H1480 0.960 . S
C1494 H1481 0.961 . S
C1494 H1482 0.959 . S
C1494 C1492 1.561 . S
C1495 C1492 1.526 . S
C1495 C1496 1.396 . S
C1495 C1500 1.390 . S
C1496 C1490 1.465 . S
C1496 C1495 1.396 . S
C1496 C1497 1.399 . S
C1497 H1483 0.929 . S
C1497 C1496 1.399 . S
C1497 C1498 1.385 . S
C1498 H1484 0.931 . S
C1498 C1497 1.385 . S
C1498 C1499 1.389 . S
C1499 C1498 1.389 . S
C1499 C1500 1.387 . S
C1500 H1485 0.930 . S
C1500 C1495 1.390 . S
C1500 C1499 1.387 . S
H1501 C1513 0.930 . S
H1502 C1515 0.930 . S
H1503 C1516 0.930 . S
H1504 C1520 0.959 . S
H1505 C1520 0.959 . S
H1506 C1520 0.961 . S
H1507 C1521 0.960 . S
H1508 C1521 0.961 . S
H1509 C1521 0.959 . S
H1510 C1524 0.929 . S
H1511 C1525 0.931 . S
H1512 C1527 0.930 . S
C1513 H1501 0.930 . S
C1513 C1514 1.399 . S
C1513 C1518 1.399 . S
C1514 C1513 1.399 . S
C1514 C1515 1.376 . S
C1515 H1502 0.930 . S
C1515 C1514 1.376 . S
C1515 C1516 1.388 . S
C1516 H1503 0.930 . S
C1516 C1515 1.388 . S
C1516 C1517 1.390 . S
C1517 C1516 1.390 . S
C1517 C1518 1.394 . S
C1517 C1523 1.465 . S
C1518 C1513 1.399 . S
C1518 C1517 1.394 . S
C1518 C1519 1.516 . S
C1519 C1518 1.516 . S
C1519 C1520 1.502 . S
C1519 C1521 1.561 . S
C1519 C1522 1.526 . S
C1520 H1504 0.959 . S
C1520 H1505 0.959 . S
C1520 H1506 0.961 . S
C1520 C1519 1.502 . S
C1521 H1507 0.960 . S
C1521 H1508 0.961 . S
C1521 H1509 0.959 . S
C1521 C1519 1.561 . S
C1522 C1519 1.526 . S
C1522 C1523 1.396 . S
C1522 C1527 1.390 . S
C1523 C1517 1.465 . S
C1523 C1522 1.396 . S
C1523 C1524 1.399 . S
C1524 H1510 0.929 . S
C1524 C1523 1.399 . S
C1524 C1525 1.385 . S
C1525 H1511 0.931 . S
C1525 C1524 1.385 . S
C1525 C1526 1.389 . S
C1526 C1525 1.389 . S
C1526 C1527 1.387 . S
C1527 H1512 0.930 . S
C1527 C1522 1.390 . S
C1527 C1526 1.387 . S
H1528 C1540 0.930 . S
H1529 C1542 0.930 . S
H1530 C1543 0.930 . S
H1531 C1547 0.959 . S
H1532 C1547 0.959 . S
H1533 C1547 0.961 . S
H1534 C1548 0.960 . S
H1535 C1548 0.961 . S
H1536 C1548 0.959 . S
H1537 C1551 0.929 . S
H1538 C1552 0.931 . S
H1539 C1554 0.930 . S
C1540 H1528 0.930 . S
C1540 C1541 1.399 . S
C1540 C1545 1.399 . S
C1541 C1540 1.399 . S
C1541 C1542 1.376 . S
C1542 H1529 0.930 . S
C1542 C1541 1.376 . S
C1542 C1543 1.388 . S
C1543 H1530 0.930 . S
C1543 C1542 1.388 . S
C1543 C1544 1.390 . S
C1544 C1543 1.390 . S
C1544 C1545 1.394 . S
C1544 C1550 1.465 . S
C1545 C1540 1.399 . S
C1545 C1544 1.394 . S
C1545 C1546 1.516 . S
C1546 C1545 1.516 . S
C1546 C1547 1.502 . S
C1546 C1548 1.561 . S
C1546 C1549 1.526 . S
C1547 H1531 0.959 . S
C1547 H1532 0.959 . S
C1547 H1533 0.961 . S
C1547 C1546 1.502 . S
C1548 H1534 0.960 . S
C1548 H1535 0.961 . S
C1548 H1536 0.959 . S
C1548 C1546 1.561 . S
C1549 C1546 1.526 . S
C1549 C1550 1.396 . S
C1549 C1554 1.390 . S
C1550 C1544 1.465 . S
C1550 C1549 1.396 . S
C1550 C1551 1.399 . S
C1551 H1537 0.929 . S
C1551 C1550 1.399 . S
C1551 C1552 1.385 . S
C1552 H1538 0.931 . S
C1552 C1551 1.385 . S
C1552 C1553 1.389 . S
C1553 C1552 1.389 . S
C1553 C1554 1.387 . S
C1554 H1539 0.930 . S
C1554 C1549 1.390 . S
C1554 C1553 1.387 . S
H1555 C1567 0.930 . S
H1556 C1569 0.930 . S
H1557 C1570 0.930 . S
H1558 C1574 0.959 . S
H1559 C1574 0.959 . S
H1560 C1574 0.961 . S
H1561 C1575 0.960 . S
H1562 C1575 0.961 . S
H1563 C1575 0.959 . S
H1564 C1578 0.929 . S
H1565 C1579 0.931 . S
H1566 C1581 0.930 . S
C1567 H1555 0.930 . S
C1567 C1568 1.399 . S
C1567 C1572 1.399 . S
C1568 C1567 1.399 . S
C1568 C1569 1.376 . S
C1569 H1556 0.930 . S
C1569 C1568 1.376 . S
C1569 C1570 1.388 . S
C1570 H1557 0.930 . S
C1570 C1569 1.388 . S
C1570 C1571 1.390 . S
C1571 C1570 1.390 . S
C1571 C1572 1.394 . S
C1571 C1577 1.465 . S
C1572 C1567 1.399 . S
C1572 C1571 1.394 . S
C1572 C1573 1.516 . S
C1573 C1572 1.516 . S
C1573 C1574 1.502 . S
C1573 C1575 1.561 . S
C1573 C1576 1.526 . S
C1574 H1558 0.959 . S
C1574 H1559 0.959 . S
C1574 H1560 0.961 . S
C1574 C1573 1.502 . S
C1575 H1561 0.960 . S
C1575 H1562 0.961 . S
C1575 H1563 0.959 . S
C1575 C1573 1.561 . S
C1576 C1573 1.526 . S
C1576 C1577 1.396 . S
C1576 C1581 1.390 . S
C1577 C1571 1.465 . S
C1577 C1576 1.396 . S
C1577 C1578 1.399 . S
C1578 H1564 0.929 . S
C1578 C1577 1.399 . S
C1578 C1579 1.385 . S
C1579 H1565 0.931 . S
C1579 C1578 1.385 . S
C1579 C1580 1.389 . S
C1580 C1579 1.389 . S
C1580 C1581 1.387 . S
C1581 H1566 0.930 . S
C1581 C1576 1.390 . S
C1581 C1580 1.387 . S
H1582 C1594 0.930 . S
H1583 C1596 0.930 . S
H1584 C1597 0.930 . S
H1585 C1601 0.959 . S
H1586 C1601 0.959 . S
H1587 C1601 0.961 . S
H1588 C1602 0.960 . S
H1589 C1602 0.961 . S
H1590 C1602 0.959 . S
H1591 C1605 0.929 . S
H1592 C1606 0.931 . S
H1593 C1608 0.930 . S
C1594 H1582 0.930 . S
C1594 C1595 1.399 . S
C1594 C1599 1.399 . S
C1595 C1594 1.399 . S
C1595 C1596 1.376 . S
C1596 H1583 0.930 . S
C1596 C1595 1.376 . S
C1596 C1597 1.388 . S
C1597 H1584 0.930 . S
C1597 C1596 1.388 . S
C1597 C1598 1.390 . S
C1598 C1597 1.390 . S
C1598 C1599 1.394 . S
C1598 C1604 1.465 . S
C1599 C1594 1.399 . S
C1599 C1598 1.394 . S
C1599 C1600 1.516 . S
C1600 C1599 1.516 . S
C1600 C1601 1.502 . S
C1600 C1602 1.561 . S
C1600 C1603 1.526 . S
C1601 H1585 0.959 . S
C1601 H1586 0.959 . S
C1601 H1587 0.961 . S
C1601 C1600 1.502 . S
C1602 H1588 0.960 . S
C1602 H1589 0.961 . S
C1602 H1590 0.959 . S
C1602 C1600 1.561 . S
C1603 C1600 1.526 . S
C1603 C1604 1.396 . S
C1603 C1608 1.390 . S
C1604 C1598 1.465 . S
C1604 C1603 1.396 . S
C1604 C1605 1.399 . S
C1605 H1591 0.929 . S
C1605 C1604 1.399 . S
C1605 C1606 1.385 . S
C1606 H1592 0.931 . S
C1606 C1605 1.385 . S
C1606 C1607 1.389 . S
C1607 C1606 1.389 . S
C1607 C1608 1.387 . S
C1608 H1593 0.930 . S
C1608 C1603 1.390 . S
C1608 C1607 1.387 . S
H1609 C1621 0.930 . S
H1610 C1623 0.930 . S
H1611 C1624 0.930 . S
H1612 C1628 0.959 . S
H1613 C1628 0.959 . S
H1614 C1628 0.961 . S
H1615 C1629 0.960 . S
H1616 C1629 0.961 . S
H1617 C1629 0.959 . S
H1618 C1632 0.929 . S
H1619 C1633 0.931 . S
H1620 C1635 0.930 . S
C1621 H1609 0.930 . S
C1621 C1622 1.399 . S
C1621 C1626 1.399 . S
C1622 C1621 1.399 . S
C1622 C1623 1.376 . S
C1623 H1610 0.930 . S
C1623 C1622 1.376 . S
C1623 C1624 1.388 . S
C1624 H1611 0.930 . S
C1624 C1623 1.388 . S
C1624 C1625 1.390 . S
C1625 C1624 1.390 . S
C1625 C1626 1.394 . S
C1625 C1631 1.465 . S
C1626 C1621 1.399 . S
C1626 C1625 1.394 . S
C1626 C1627 1.516 . S
C1627 C1626 1.516 . S
C1627 C1628 1.502 . S
C1627 C1629 1.561 . S
C1627 C1630 1.526 . S
C1628 H1612 0.959 . S
C1628 H1613 0.959 . S
C1628 H1614 0.961 . S
C1628 C1627 1.502 . S
C1629 H1615 0.960 . S
C1629 H1616 0.961 . S
C1629 H1617 0.959 . S
C1629 C1627 1.561 . S
C1630 C1627 1.526 . S
C1630 C1631 1.396 . S
C1630 C1635 1.390 . S
C1631 C1625 1.465 . S
C1631 C1630 1.396 . S
C1631 C1632 1.399 . S
C1632 H1618 0.929 . S
C1632 C1631 1.399 . S
C1632 C1633 1.385 . S
C1633 H1619 0.931 . S
C1633 C1632 1.385 . S
C1633 C1634 1.389 . S
C1634 C1633 1.389 . S
C1634 C1635 1.387 . S
C1635 H1620 0.930 . S
C1635 C1630 1.390 . S
C1635 C1634 1.387 . S
H1636 C1648 0.930 . S
H1637 C1650 0.930 . S
H1638 C1651 0.930 . S
H1639 C1655 0.959 . S
H1640 C1655 0.959 . S
H1641 C1655 0.961 . S
H1642 C1656 0.960 . S
H1643 C1656 0.961 . S
H1644 C1656 0.959 . S
H1645 C1659 0.929 . S
H1646 C1660 0.931 . S
H1647 C1662 0.930 . S
C1648 H1636 0.930 . S
C1648 C1649 1.399 . S
C1648 C1653 1.399 . S
C1649 C1648 1.399 . S
C1649 C1650 1.376 . S
C1650 H1637 0.930 . S
C1650 C1649 1.376 . S
C1650 C1651 1.388 . S
C1651 H1638 0.930 . S
C1651 C1650 1.388 . S
C1651 C1652 1.390 . S
C1652 C1651 1.390 . S
C1652 C1653 1.394 . S
C1652 C1658 1.465 . S
C1653 C1648 1.399 . S
C1653 C1652 1.394 . S
C1653 C1654 1.516 . S
C1654 C1653 1.516 . S
C1654 C1655 1.502 . S
C1654 C1656 1.561 . S
C1654 C1657 1.526 . S
C1655 H1639 0.959 . S
C1655 H1640 0.959 . S
C1655 H1641 0.961 . S
C1655 C1654 1.502 . S
C1656 H1642 0.960 . S
C1656 H1643 0.961 . S
C1656 H1644 0.959 . S
C1656 C1654 1.561 . S
C1657 C1654 1.526 . S
C1657 C1658 1.396 . S
C1657 C1662 1.390 . S
C1658 C1652 1.465 . S
C1658 C1657 1.396 . S
C1658 C1659 1.399 . S
C1659 H1645 0.929 . S
C1659 C1658 1.399 . S
C1659 C1660 1.385 . S
C1660 H1646 0.931 . S
C1660 C1659 1.385 . S
C1660 C1661 1.389 . S
C1661 C1660 1.389 . S
C1661 C1662 1.387 . S
C1662 H1647 0.930 . S
C1662 C1657 1.390 . S
C1662 C1661 1.387 . S
H1663 C1675 0.930 . S
H1664 C1677 0.930 . S
H1665 C1678 0.930 . S
H1666 C1682 0.959 . S
H1667 C1682 0.959 . S
H1668 C1682 0.961 . S
H1669 C1683 0.960 . S
H1670 C1683 0.961 . S
H1671 C1683 0.959 . S
H1672 C1686 0.929 . S
H1673 C1687 0.931 . S
H1674 C1689 0.930 . S
C1675 H1663 0.930 . S
C1675 C1676 1.399 . S
C1675 C1680 1.399 . S
C1676 C1675 1.399 . S
C1676 C1677 1.376 . S
C1677 H1664 0.930 . S
C1677 C1676 1.376 . S
C1677 C1678 1.388 . S
C1678 H1665 0.930 . S
C1678 C1677 1.388 . S
C1678 C1679 1.390 . S
C1679 C1678 1.390 . S
C1679 C1680 1.394 . S
C1679 C1685 1.465 . S
C1680 C1675 1.399 . S
C1680 C1679 1.394 . S
C1680 C1681 1.516 . S
C1681 C1680 1.516 . S
C1681 C1682 1.502 . S
C1681 C1683 1.561 . S
C1681 C1684 1.526 . S
C1682 H1666 0.959 . S
C1682 H1667 0.959 . S
C1682 H1668 0.961 . S
C1682 C1681 1.502 . S
C1683 H1669 0.960 . S
C1683 H1670 0.961 . S
C1683 H1671 0.959 . S
C1683 C1681 1.561 . S
C1684 C1681 1.526 . S
C1684 C1685 1.396 . S
C1684 C1689 1.390 . S
C1685 C1679 1.465 . S
C1685 C1684 1.396 . S
C1685 C1686 1.399 . S
C1686 H1672 0.929 . S
C1686 C1685 1.399 . S
C1686 C1687 1.385 . S
C1687 H1673 0.931 . S
C1687 C1686 1.385 . S
C1687 C1688 1.389 . S
C1688 C1687 1.389 . S
C1688 C1689 1.387 . S
C1689 H1674 0.930 . S
C1689 C1684 1.390 . S
C1689 C1688 1.387 . S
H1690 C1702 0.930 . S
H1691 C1704 0.930 . S
H1692 C1705 0.930 . S
H1693 C1709 0.959 . S
H1694 C1709 0.959 . S
H1695 C1709 0.961 . S
H1696 C1710 0.960 . S
H1697 C1710 0.961 . S
H1698 C1710 0.959 . S
H1699 C1713 0.929 . S
H1700 C1714 0.931 . S
H1701 C1716 0.930 . S
C1702 H1690 0.930 . S
C1702 C1703 1.399 . S
C1702 C1707 1.399 . S
C1703 C1702 1.399 . S
C1703 C1704 1.376 . S
C1704 H1691 0.930 . S
C1704 C1703 1.376 . S
C1704 C1705 1.388 . S
C1705 H1692 0.930 . S
C1705 C1704 1.388 . S
C1705 C1706 1.390 . S
C1706 C1705 1.390 . S
C1706 C1707 1.394 . S
C1706 C1712 1.465 . S
C1707 C1702 1.399 . S
C1707 C1706 1.394 . S
C1707 C1708 1.516 . S
C1708 C1707 1.516 . S
C1708 C1709 1.502 . S
C1708 C1710 1.561 . S
C1708 C1711 1.526 . S
C1709 H1693 0.959 . S
C1709 H1694 0.959 . S
C1709 H1695 0.961 . S
C1709 C1708 1.502 . S
C1710 H1696 0.960 . S
C1710 H1697 0.961 . S
C1710 H1698 0.959 . S
C1710 C1708 1.561 . S
C1711 C1708 1.526 . S
C1711 C1712 1.396 . S
C1711 C1716 1.390 . S
C1712 C1706 1.465 . S
C1712 C1711 1.396 . S
C1712 C1713 1.399 . S
C1713 H1699 0.929 . S
C1713 C1712 1.399 . S
C1713 C1714 1.385 . S
C1714 H1700 0.931 . S
C1714 C1713 1.385 . S
C1714 C1715 1.389 . S
C1715 C1714 1.389 . S
C1715 C1716 1.387 . S
C1716 H1701 0.930 . S
C1716 C1711 1.390 . S
C1716 C1715 1.387 . S
H1717 C1729 0.930 . S
H1718 C1731 0.930 . S
H1719 C1732 0.930 . S
H1720 C1736 0.959 . S
H1721 C1736 0.959 . S
H1722 C1736 0.961 . S
H1723 C1737 0.960 . S
H1724 C1737 0.961 . S
H1725 C1737 0.959 . S
H1726 C1740 0.929 . S
H1727 C1741 0.931 . S
H1728 C1743 0.930 . S
C1729 H1717 0.930 . S
C1729 C1730 1.399 . S
C1729 C1734 1.399 . S
C1730 C1729 1.399 . S
C1730 C1731 1.376 . S
C1731 H1718 0.930 . S
C1731 C1730 1.376 . S
C1731 C1732 1.388 . S
C1732 H1719 0.930 . S
C1732 C1731 1.388 . S
C1732 C1733 1.390 . S
C1733 C1732 1.390 . S
C1733 C1734 1.394 . S
C1733 C1739 1.465 . S
C1734 C1729 1.399 . S
C1734 C1733 1.394 . S
C1734 C1735 1.516 . S
C1735 C1734 1.516 . S
C1735 C1736 1.502 . S
C1735 C1737 1.561 . S
C1735 C1738 1.526 . S
C1736 H1720 0.959 . S
C1736 H1721 0.959 . S
C1736 H1722 0.961 . S
C1736 C1735 1.502 . S
C1737 H1723 0.960 . S
C1737 H1724 0.961 . S
C1737 H1725 0.959 . S
C1737 C1735 1.561 . S
C1738 C1735 1.526 . S
C1738 C1739 1.396 . S
C1738 C1743 1.390 . S
C1739 C1733 1.465 . S
C1739 C1738 1.396 . S
C1739 C1740 1.399 . S
C1740 H1726 0.929 . S
C1740 C1739 1.399 . S
C1740 C1741 1.385 . S
C1741 H1727 0.931 . S
C1741 C1740 1.385 . S
C1741 C1742 1.389 . S
C1742 C1741 1.389 . S
C1742 C1743 1.387 . S
C1743 H1728 0.930 . S
C1743 C1738 1.390 . S
C1743 C1742 1.387 . S
H1744 C1756 0.930 . S
H1745 C1758 0.930 . S
H1746 C1759 0.930 . S
H1747 C1763 0.959 . S
H1748 C1763 0.959 . S
H1749 C1763 0.961 . S
H1750 C1764 0.960 . S
H1751 C1764 0.961 . S
H1752 C1764 0.959 . S
H1753 C1767 0.929 . S
H1754 C1768 0.931 . S
H1755 C1770 0.930 . S
C1756 H1744 0.930 . S
C1756 C1757 1.399 . S
C1756 C1761 1.399 . S
C1757 C1756 1.399 . S
C1757 C1758 1.376 . S
C1758 H1745 0.930 . S
C1758 C1757 1.376 . S
C1758 C1759 1.388 . S
C1759 H1746 0.930 . S
C1759 C1758 1.388 . S
C1759 C1760 1.390 . S
C1760 C1759 1.390 . S
C1760 C1761 1.394 . S
C1760 C1766 1.465 . S
C1761 C1756 1.399 . S
C1761 C1760 1.394 . S
C1761 C1762 1.516 . S
C1762 C1761 1.516 . S
C1762 C1763 1.502 1_455 S
C1762 C1764 1.561 . S
C1762 C1765 1.526 . S
C1763 H1747 0.959 . S
C1763 H1748 0.959 . S
C1763 H1749 0.961 . S
C1763 C1762 1.502 1_655 S
C1764 H1750 0.960 . S
C1764 H1751 0.961 . S
C1764 H1752 0.959 . S
C1764 C1762 1.561 . S
C1765 C1762 1.526 . S
C1765 C1766 1.396 . S
C1765 C1770 1.390 . S
C1766 C1760 1.465 . S
C1766 C1765 1.396 . S
C1766 C1767 1.399 . S
C1767 H1753 0.929 . S
C1767 C1766 1.399 . S
C1767 C1768 1.385 . S
C1768 H1754 0.931 . S
C1768 C1767 1.385 . S
C1768 C1769 1.389 . S
C1769 C1768 1.389 . S
C1769 C1770 1.387 . S
C1770 H1755 0.930 . S
C1770 C1765 1.390 . S
C1770 C1769 1.387 . S
H1771 C1783 0.930 . S
H1772 C1785 0.930 . S
H1773 C1786 0.930 . S
H1774 C1790 0.959 . S
H1775 C1790 0.959 . S
H1776 C1790 0.961 . S
H1777 C1791 0.960 . S
H1778 C1791 0.961 . S
H1779 C1791 0.959 . S
H1780 C1794 0.929 . S
H1781 C1795 0.931 . S
H1782 C1797 0.930 . S
C1783 H1771 0.930 . S
C1783 C1784 1.399 . S
C1783 C1788 1.399 . S
C1784 C1783 1.399 . S
C1784 C1785 1.376 . S
C1785 H1772 0.930 . S
C1785 C1784 1.376 . S
C1785 C1786 1.388 . S
C1786 H1773 0.930 . S
C1786 C1785 1.388 . S
C1786 C1787 1.390 . S
C1787 C1786 1.390 . S
C1787 C1788 1.394 . S
C1787 C1793 1.465 . S
C1788 C1783 1.399 . S
C1788 C1787 1.394 . S
C1788 C1789 1.516 . S
C1789 C1788 1.516 . S
C1789 C1790 1.502 . S
C1789 C1791 1.561 . S
C1789 C1792 1.526 . S
C1790 H1774 0.959 . S
C1790 H1775 0.959 . S
C1790 H1776 0.961 . S
C1790 C1789 1.502 . S
C1791 H1777 0.960 . S
C1791 H1778 0.961 . S
C1791 H1779 0.959 . S
C1791 C1789 1.561 . S
C1792 C1789 1.526 . S
C1792 C1793 1.396 . S
C1792 C1797 1.390 . S
C1793 C1787 1.465 . S
C1793 C1792 1.396 . S
C1793 C1794 1.399 . S
C1794 H1780 0.929 . S
C1794 C1793 1.399 . S
C1794 C1795 1.385 . S
C1795 H1781 0.931 . S
C1795 C1794 1.385 . S
C1795 C1796 1.389 . S
C1796 C1795 1.389 . S
C1796 C1797 1.387 . S
C1797 H1782 0.930 . S
C1797 C1792 1.390 . S
C1797 C1796 1.387 . S
H1798 C1810 0.930 . S
H1799 C1812 0.930 . S
H1800 C1813 0.930 . S
H1801 C1817 0.959 . S
H1802 C1817 0.959 . S
H1803 C1817 0.961 . S
H1804 C1818 0.960 . S
H1805 C1818 0.961 . S
H1806 C1818 0.959 . S
H1807 C1821 0.929 . S
H1808 C1822 0.931 . S
H1809 C1824 0.930 . S
C1810 H1798 0.930 . S
C1810 C1811 1.399 . S
C1810 C1815 1.399 . S
C1811 C1810 1.399 . S
C1811 C1812 1.376 . S
C1812 H1799 0.930 . S
C1812 C1811 1.376 . S
C1812 C1813 1.388 . S
C1813 H1800 0.930 . S
C1813 C1812 1.388 . S
C1813 C1814 1.390 . S
C1814 C1813 1.390 . S
C1814 C1815 1.394 . S
C1814 C1820 1.465 . S
C1815 C1810 1.399 . S
C1815 C1814 1.394 . S
C1815 C1816 1.516 . S
C1816 C1815 1.516 . S
C1816 C1817 1.502 . S
C1816 C1818 1.561 . S
C1816 C1819 1.526 . S
C1817 H1801 0.959 . S
C1817 H1802 0.959 . S
C1817 H1803 0.961 . S
C1817 C1816 1.502 . S
C1818 H1804 0.960 . S
C1818 H1805 0.961 . S
C1818 H1806 0.959 . S
C1818 C1816 1.561 . S
C1819 C1816 1.526 . S
C1819 C1820 1.396 . S
C1819 C1824 1.390 . S
C1820 C1814 1.465 . S
C1820 C1819 1.396 . S
C1820 C1821 1.399 . S
C1821 H1807 0.929 . S
C1821 C1820 1.399 . S
C1821 C1822 1.385 . S
C1822 H1808 0.931 . S
C1822 C1821 1.385 . S
C1822 C1823 1.389 . S
C1823 C1822 1.389 . S
C1823 C1824 1.387 . S
C1824 H1809 0.930 . S
C1824 C1819 1.390 . S
C1824 C1823 1.387 . S
H1825 C1837 0.930 . S
H1826 C1839 0.930 . S
H1827 C1840 0.930 . S
H1828 C1844 0.959 . S
H1829 C1844 0.959 . S
H1830 C1844 0.961 . S
H1831 C1845 0.960 . S
H1832 C1845 0.961 . S
H1833 C1845 0.959 . S
H1834 C1848 0.929 . S
H1835 C1849 0.931 . S
H1836 C1851 0.930 . S
C1837 H1825 0.930 . S
C1837 C1838 1.399 . S
C1837 C1842 1.399 . S
C1838 C1837 1.399 . S
C1838 C1839 1.376 . S
C1839 H1826 0.930 . S
C1839 C1838 1.376 . S
C1839 C1840 1.388 . S
C1840 H1827 0.930 . S
C1840 C1839 1.388 . S
C1840 C1841 1.390 . S
C1841 C1840 1.390 . S
C1841 C1842 1.394 . S
C1841 C1847 1.465 1_556 S
C1842 C1837 1.399 . S
C1842 C1841 1.394 . S
C1842 C1843 1.516 . S
C1843 C1842 1.516 . S
C1843 C1844 1.502 1_556 S
C1843 C1845 1.561 . S
C1843 C1846 1.526 1_556 S
C1844 H1828 0.959 . S
C1844 H1829 0.959 . S
C1844 H1830 0.961 . S
C1844 C1843 1.502 1_554 S
C1845 H1831 0.960 . S
C1845 H1832 0.961 . S
C1845 H1833 0.959 . S
C1845 C1843 1.561 . S
C1846 C1843 1.526 1_554 S
C1846 C1847 1.396 . S
C1846 C1851 1.390 . S
C1847 C1841 1.465 1_554 S
C1847 C1846 1.396 . S
C1847 C1848 1.399 . S
C1848 H1834 0.929 . S
C1848 C1847 1.399 . S
C1848 C1849 1.385 . S
C1849 H1835 0.931 . S
C1849 C1848 1.385 . S
C1849 C1850 1.389 . S
C1850 C1849 1.389 . S
C1850 C1851 1.387 . S
C1851 H1836 0.930 . S
C1851 C1846 1.390 . S
C1851 C1850 1.387 . S
H1852 C1864 0.930 . S
H1853 C1866 0.930 . S
H1854 C1867 0.930 . S
H1855 C1871 0.959 . S
H1856 C1871 0.959 . S
H1857 C1871 0.961 . S
H1858 C1872 0.960 . S
H1859 C1872 0.961 . S
H1860 C1872 0.959 . S
H1861 C1875 0.929 . S
H1862 C1876 0.931 . S
H1863 C1878 0.930 . S
C1864 H1852 0.930 . S
C1864 C1865 1.399 . S
C1864 C1869 1.399 . S
C1865 C1864 1.399 . S
C1865 C1866 1.376 . S
C1866 H1853 0.930 . S
C1866 C1865 1.376 . S
C1866 C1867 1.388 . S
C1867 H1854 0.930 . S
C1867 C1866 1.388 . S
C1867 C1868 1.390 . S
C1868 C1867 1.390 . S
C1868 C1869 1.394 . S
C1868 C1874 1.465 . S
C1869 C1864 1.399 . S
C1869 C1868 1.394 . S
C1869 C1870 1.516 . S
C1870 C1869 1.516 . S
C1870 C1871 1.502 . S
C1870 C1872 1.561 1_655 S
C1870 C1873 1.526 . S
C1871 H1855 0.959 . S
C1871 H1856 0.959 . S
C1871 H1857 0.961 . S
C1871 C1870 1.502 . S
C1872 H1858 0.960 . S
C1872 H1859 0.961 . S
C1872 H1860 0.959 . S
C1872 C1870 1.561 1_455 S
C1873 C1870 1.526 . S
C1873 C1874 1.396 . S
C1873 C1878 1.390 . S
C1874 C1868 1.465 . S
C1874 C1873 1.396 . S
C1874 C1875 1.399 . S
C1875 H1861 0.929 . S
C1875 C1874 1.399 . S
C1875 C1876 1.385 . S
C1876 H1862 0.931 . S
C1876 C1875 1.385 . S
C1876 C1877 1.389 . S
C1877 C1876 1.389 . S
C1877 C1878 1.387 . S
C1878 H1863 0.930 . S
C1878 C1873 1.390 . S
C1878 C1877 1.387 . S
H1879 C1891 0.930 . S
H1880 C1893 0.930 . S
H1881 C1894 0.930 . S
H1882 C1898 0.959 . S
H1883 C1898 0.959 . S
H1884 C1898 0.961 . S
H1885 C1899 0.960 . S
H1886 C1899 0.961 . S
H1887 C1899 0.959 . S
H1888 C1902 0.929 . S
H1889 C1903 0.931 . S
H1890 C1905 0.930 . S
C1891 H1879 0.930 . S
C1891 C1892 1.399 . S
C1891 C1896 1.399 . S
C1892 C1891 1.399 . S
C1892 C1893 1.376 . S
C1893 H1880 0.930 . S
C1893 C1892 1.376 . S
C1893 C1894 1.388 . S
C1894 H1881 0.930 . S
C1894 C1893 1.388 . S
C1894 C1895 1.390 . S
C1895 C1894 1.390 . S
C1895 C1896 1.394 . S
C1895 C1901 1.465 . S
C1896 C1891 1.399 . S
C1896 C1895 1.394 . S
C1896 C1897 1.516 . S
C1897 C1896 1.516 . S
C1897 C1898 1.502 . S
C1897 C1899 1.561 . S
C1897 C1900 1.526 . S
C1898 H1882 0.959 . S
C1898 H1883 0.959 . S
C1898 H1884 0.961 . S
C1898 C1897 1.502 . S
C1899 H1885 0.960 . S
C1899 H1886 0.961 . S
C1899 H1887 0.959 . S
C1899 C1897 1.561 . S
C1900 C1897 1.526 . S
C1900 C1901 1.396 . S
C1900 C1905 1.390 . S
C1901 C1895 1.465 . S
C1901 C1900 1.396 . S
C1901 C1902 1.399 . S
C1902 H1888 0.929 . S
C1902 C1901 1.399 . S
C1902 C1903 1.385 . S
C1903 H1889 0.931 . S
C1903 C1902 1.385 . S
C1903 C1904 1.389 . S
C1904 C1903 1.389 . S
C1904 C1905 1.387 . S
C1905 H1890 0.930 . S
C1905 C1900 1.390 . S
C1905 C1904 1.387 . S
H1906 C1918 0.930 . S
H1907 C1920 0.930 . S
H1908 C1921 0.930 . S
H1909 C1925 0.959 . S
H1910 C1925 0.959 . S
H1911 C1925 0.961 . S
H1912 C1926 0.960 . S
H1913 C1926 0.961 . S
H1914 C1926 0.959 . S
H1915 C1929 0.929 . S
H1916 C1930 0.931 . S
H1917 C1932 0.930 . S
C1918 H1906 0.930 . S
C1918 C1919 1.399 . S
C1918 C1923 1.399 . S
C1919 C1918 1.399 . S
C1919 C1920 1.376 . S
C1920 H1907 0.930 . S
C1920 C1919 1.376 . S
C1920 C1921 1.388 . S
C1921 H1908 0.930 . S
C1921 C1920 1.388 . S
C1921 C1922 1.390 . S
C1922 C1921 1.390 . S
C1922 C1923 1.394 . S
C1922 C1928 1.465 . S
C1923 C1918 1.399 . S
C1923 C1922 1.394 . S
C1923 C1924 1.516 . S
C1924 C1923 1.516 . S
C1924 C1925 1.502 . S
C1924 C1926 1.561 . S
C1924 C1927 1.526 . S
C1925 H1909 0.959 . S
C1925 H1910 0.959 . S
C1925 H1911 0.961 . S
C1925 C1924 1.502 . S
C1926 H1912 0.960 . S
C1926 H1913 0.961 . S
C1926 H1914 0.959 . S
C1926 C1924 1.561 . S
C1927 C1924 1.526 . S
C1927 C1928 1.396 . S
C1927 C1932 1.390 . S
C1928 C1922 1.465 . S
C1928 C1927 1.396 . S
C1928 C1929 1.399 . S
C1929 H1915 0.929 . S
C1929 C1928 1.399 . S
C1929 C1930 1.385 . S
C1930 H1916 0.931 . S
C1930 C1929 1.385 . S
C1930 C1931 1.389 . S
C1931 C1930 1.389 . S
C1931 C1932 1.387 . S
C1932 H1917 0.930 . S
C1932 C1927 1.390 . S
C1932 C1931 1.387 . S
H1933 C1945 0.930 . S
H1934 C1947 0.935 . S
H1935 C1948 0.930 . S
H1936 C1952 0.959 . S
H1937 C1952 0.959 . S
H1938 C1952 0.961 . S
H1939 C1953 0.960 . S
H1940 C1953 0.961 . S
H1941 C1953 0.959 . S
H1942 C1956 0.929 . S
H1943 C1957 0.931 . S
H1944 C1959 0.930 . S
C1945 H1933 0.930 . S
C1945 C1946 1.399 . S
C1945 C1950 1.399 . S
C1946 C1945 1.399 . S
C1946 C1947 1.376 . S
C1947 H1934 0.935 . S
C1947 C1946 1.376 . S
C1947 C1948 1.388 1_554 S
C1948 H1935 0.930 . S
C1948 C1947 1.388 1_556 S
C1948 C1949 1.390 . S
C1949 C1948 1.390 . S
C1949 C1950 1.394 1_556 S
C1949 C1955 1.465 . S
C1950 C1945 1.399 . S
C1950 C1949 1.394 1_554 S
C1950 C1951 1.516 . S
C1951 C1950 1.516 . S
C1951 C1952 1.502 . S
C1951 C1953 1.561 1_554 S
C1951 C1954 1.526 1_554 S
C1952 H1936 0.959 . S
C1952 H1937 0.959 . S
C1952 H1938 0.961 . S
C1952 C1951 1.502 . S
C1953 H1939 0.960 . S
C1953 H1940 0.961 . S
C1953 H1941 0.959 . S
C1953 C1951 1.561 1_556 S
C1954 C1951 1.526 1_556 S
C1954 C1955 1.396 . S
C1954 C1959 1.390 . S
C1955 C1949 1.465 . S
C1955 C1954 1.396 . S
C1955 C1956 1.399 . S
C1956 H1942 0.929 . S
C1956 C1955 1.399 . S
C1956 C1957 1.385 . S
C1957 H1943 0.931 . S
C1957 C1956 1.385 . S
C1957 C1958 1.389 . S
C1958 C1957 1.389 . S
C1958 C1959 1.387 . S
C1959 H1944 0.930 . S
C1959 C1954 1.390 . S
C1959 C1958 1.387 . S
H1960 C1972 0.930 . S
H1961 C1974 0.930 . S
H1962 C1975 0.930 . S
H1963 C1979 0.959 . S
H1964 C1979 0.959 1_545 S
H1965 C1979 0.961 . S
H1966 C1980 0.960 . S
H1967 C1980 0.990 . S
H1968 C1980 0.959 . S
H1969 C1983 0.929 . S
H1970 C1984 0.931 . S
H1971 C1986 0.930 . S
C1972 H1960 0.930 . S
C1972 C1973 1.399 . S
C1972 C1977 1.399 . S
C1973 C1972 1.399 . S
C1973 C1974 1.376 . S
C1974 H1961 0.930 . S
C1974 C1973 1.376 . S
C1974 C1975 1.388 . S
C1975 H1962 0.930 . S
C1975 C1974 1.388 . S
C1975 C1976 1.390 . S
C1976 C1975 1.390 . S
C1976 C1977 1.394 . S
C1976 C1982 1.465 1_565 S
C1977 C1972 1.399 . S
C1977 C1976 1.394 . S
C1977 C1978 1.516 . S
C1978 C1977 1.516 . S
C1978 C1979 1.502 . S
C1978 C1980 1.561 . S
C1978 C1981 1.526 1_565 S
C1979 H1963 0.959 . S
C1979 H1964 0.959 1_565 S
C1979 H1965 0.961 . S
C1979 C1978 1.502 . S
C1980 H1966 0.960 . S
C1980 H1967 0.990 . S
C1980 H1968 0.959 . S
C1980 C1978 1.561 . S
C1981 C1978 1.526 1_545 S
C1981 C1982 1.396 . S
C1981 C1986 1.390 . S
C1982 C1976 1.465 1_545 S
C1982 C1981 1.396 . S
C1982 C1983 1.399 . S
C1983 H1969 0.929 . S
C1983 C1982 1.399 . S
C1983 C1984 1.385 . S
C1984 H1970 0.931 . S
C1984 C1983 1.385 . S
C1984 C1985 1.389 . S
C1985 C1984 1.389 . S
C1985 C1986 1.387 . S
C1986 H1971 0.930 . S
C1986 C1981 1.390 . S
C1986 C1985 1.387 . S
H1987 C1999 0.930 . S
H1988 C2001 0.930 . S
H1989 C2002 0.930 . S
H1990 C2006 0.959 . S
H1991 C2006 0.959 . S
H1992 C2006 0.961 . S
H1993 C2007 0.960 . S
H1994 C2007 0.961 . S
H1995 C2007 0.959 . S
H1996 C2010 0.929 1_554 S
H1997 C2011 0.931 . S
H1998 C2013 0.930 . S
C1999 H1987 0.930 . S
C1999 C2000 1.399 . S
C1999 C2004 1.399 . S
C2000 C1999 1.399 . S
C2000 C2001 1.376 . S
C2001 H1988 0.930 . S
C2001 C2000 1.376 . S
C2001 C2002 1.388 . S
C2002 H1989 0.930 . S
C2002 C2001 1.388 . S
C2002 C2003 1.390 . S
C2003 C2002 1.390 . S
C2003 C2004 1.394 . S
C2003 C2009 1.475 . S
C2004 C1999 1.399 . S
C2004 C2003 1.394 . S
C2004 C2005 1.509 1_554 S
C2005 C2004 1.509 1_556 S
C2005 C2006 1.530 . S
C2005 C2007 1.533 1_556 S
C2005 C2008 1.531 . S
C2006 H1990 0.959 . S
C2006 H1991 0.959 . S
C2006 H1992 0.961 . S
C2006 C2005 1.530 . S
C2007 H1993 0.960 . S
C2007 H1994 0.961 . S
C2007 H1995 0.959 . S
C2007 C2005 1.533 1_554 S
C2008 C2005 1.531 . S
C2008 C2009 1.389 1_556 S
C2008 C2013 1.390 . S
C2009 C2003 1.475 . S
C2009 C2008 1.389 1_554 S
C2009 C2010 1.397 1_554 S
C2010 H1996 0.929 1_556 S
C2010 C2009 1.397 1_556 S
C2010 C2011 1.385 . S
C2011 H1997 0.931 . S
C2011 C2010 1.385 . S
C2011 C2012 1.389 . S
C2012 C2011 1.389 . S
C2012 C2013 1.387 . S
C2013 H1998 0.930 . S
C2013 C2008 1.390 . S
C2013 C2012 1.387 . S
H2014 C2026 0.930 1_455 S
H2015 C2028 0.930 . S
H2016 C2029 0.930 . S
H2017 C2033 0.959 . S
H2018 C2033 0.959 1_565 S
H2019 C2033 0.961 . S
H2020 C2034 0.960 1_545 S
H2021 C2034 0.961 . S
H2022 C2034 0.959 1_655 S
H2023 C2037 0.929 . S
H2024 C2038 0.931 . S
H2025 C2040 0.930 1_455 S
C2026 H2014 0.930 1_655 S
C2026 C2027 1.399 . S
C2026 C2031 1.399 . S
C2027 C2026 1.399 . S
C2027 C2028 1.376 . S
C2028 H2015 0.930 . S
C2028 C2027 1.376 . S
C2028 C2029 1.388 . S
C2029 H2016 0.930 . S
C2029 C2028 1.388 . S
C2029 C2030 1.390 . S
C2030 C2029 1.390 . S
C2030 C2031 1.394 . S
C2030 C2036 1.465 1_545 S
C2031 C2026 1.399 . S
C2031 C2030 1.394 . S
C2031 C2032 1.516 1_645 S
C2032 C2031 1.516 1_465 S
C2032 C2033 1.502 1_565 S
C2032 C2034 1.561 . S
C2032 C2035 1.526 1_455 S
C2033 H2017 0.959 . S
C2033 H2018 0.959 1_545 S
C2033 H2019 0.961 . S
C2033 C2032 1.502 1_545 S
C2034 H2020 0.960 1_565 S
C2034 H2021 0.961 . S
C2034 H2022 0.959 1_455 S
C2034 C2032 1.561 . S
C2035 C2032 1.526 1_655 S
C2035 C2036 1.396 . S
C2035 C2040 1.390 . S
C2036 C2030 1.465 1_565 S
C2036 C2035 1.396 . S
C2036 C2037 1.399 . S
C2037 H2023 0.929 . S
C2037 C2036 1.399 . S
C2037 C2038 1.385 . S
C2038 H2024 0.931 . S
C2038 C2037 1.385 . S
C2038 C2039 1.389 . S
C2039 C2038 1.389 . S
C2039 C2040 1.387 . S
C2040 H2025 0.930 1_655 S
C2040 C2035 1.390 . S
C2040 C2039 1.387 . S
H2041 C2053 0.930 . S
H2042 C2055 0.930 . S
H2043 C2056 0.930 . S
H2044 C2060 0.959 . S
H2045 C2060 0.959 . S
H2046 C2060 0.961 . S
H2047 C2061 0.960 . S
H2048 C2061 0.961 . S
H2049 C2061 0.959 . S
H2050 C2064 0.929 . S
H2051 C2065 0.931 . S
H2052 C2067 0.930 . S
C2053 H2041 0.930 . S
C2053 C2054 1.399 . S
C2053 C2058 1.399 . S
C2054 C2053 1.399 . S
C2054 C2055 1.376 . S
C2055 H2042 0.930 . S
C2055 C2054 1.376 . S
C2055 C2056 1.388 . S
C2056 H2043 0.930 . S
C2056 C2055 1.388 . S
C2056 C2057 1.390 . S
C2057 C2056 1.390 . S
C2057 C2058 1.394 . S
C2057 C2063 1.465 . S
C2058 C2053 1.399 . S
C2058 C2057 1.394 . S
C2058 C2059 1.516 . S
C2059 C2058 1.516 . S
C2059 C2060 1.502 . S
C2059 C2061 1.561 . S
C2059 C2062 1.526 . S
C2060 H2044 0.959 . S
C2060 H2045 0.959 . S
C2060 H2046 0.961 . S
C2060 C2059 1.502 . S
C2061 H2047 0.960 . S
C2061 H2048 0.961 . S
C2061 H2049 0.959 . S
C2061 C2059 1.561 . S
C2062 C2059 1.526 . S
C2062 C2063 1.396 . S
C2062 C2067 1.390 . S
C2063 C2057 1.465 . S
C2063 C2062 1.396 . S
C2063 C2064 1.399 . S
C2064 H2050 0.929 . S
C2064 C2063 1.399 . S
C2064 C2065 1.385 . S
C2065 H2051 0.931 . S
C2065 C2064 1.385 . S
C2065 C2066 1.389 . S
C2066 C2065 1.389 . S
C2066 C2067 1.387 . S
C2067 H2052 0.930 . S
C2067 C2062 1.390 . S
C2067 C2066 1.387 . S
H2068 C2080 0.930 . S
H2069 C2082 0.930 . S
H2070 C2083 0.930 . S
H2071 C2087 0.959 . S
H2072 C2087 0.959 1_565 S
H2073 C2087 0.961 . S
H2074 C2088 0.960 . S
H2075 C2088 0.980 . S
H2076 C2088 0.959 . S
H2077 C2091 0.929 . S
H2078 C2092 0.931 . S
H2079 C2094 0.930 . S
C2080 H2068 0.930 . S
C2080 C2081 1.399 . S
C2080 C2085 1.399 . S
C2081 C2080 1.399 . S
C2081 C2082 1.376 . S
C2082 H2069 0.930 . S
C2082 C2081 1.376 . S
C2082 C2083 1.388 . S
C2083 H2070 0.930 . S
C2083 C2082 1.388 . S
C2083 C2084 1.390 . S
C2084 C2083 1.390 . S
C2084 C2085 1.394 . S
C2084 C2090 1.465 1_545 S
C2085 C2080 1.399 . S
C2085 C2084 1.394 . S
C2085 C2086 1.516 . S
C2086 C2085 1.516 . S
C2086 C2087 1.502 . S
C2086 C2088 1.561 . S
C2086 C2089 1.526 1_545 S
C2087 H2071 0.959 . S
C2087 H2072 0.959 1_545 S
C2087 H2073 0.961 . S
C2087 C2086 1.502 . S
C2088 H2074 0.960 . S
C2088 H2075 0.980 . S
C2088 H2076 0.959 . S
C2088 C2086 1.561 . S
C2089 C2086 1.526 1_565 S
C2089 C2090 1.396 . S
C2089 C2094 1.390 . S
C2090 C2084 1.465 1_565 S
C2090 C2089 1.396 . S
C2090 C2091 1.399 . S
C2091 H2077 0.929 . S
C2091 C2090 1.399 . S
C2091 C2092 1.385 . S
C2092 H2078 0.931 . S
C2092 C2091 1.385 . S
C2092 C2093 1.389 . S
C2093 C2092 1.389 . S
C2093 C2094 1.387 . S
C2094 H2079 0.930 . S
C2094 C2089 1.390 . S
C2094 C2093 1.387 . S
H2095 C2107 0.930 . S
H2096 C2109 0.930 . S
H2097 C2110 0.930 . S
H2098 C2114 0.959 . S
H2099 C2114 0.959 . S
H2100 C2114 0.961 . S
H2101 C2115 0.960 . S
H2102 C2115 0.961 . S
H2103 C2115 0.959 . S
H2104 C2118 0.925 1_554 S
H2105 C2119 0.931 . S
H2106 C2121 0.930 . S
C2107 H2095 0.930 . S
C2107 C2108 1.399 . S
C2107 C2112 1.399 . S
C2108 C2107 1.399 . S
C2108 C2109 1.376 . S
C2109 H2096 0.930 . S
C2109 C2108 1.376 . S
C2109 C2110 1.388 . S
C2110 H2097 0.930 . S
C2110 C2109 1.388 . S
C2110 C2111 1.390 . S
C2111 C2110 1.390 . S
C2111 C2112 1.394 . S
C2111 C2117 1.465 . S
C2112 C2107 1.399 . S
C2112 C2111 1.394 . S
C2112 C2113 1.516 1_554 S
C2113 C2112 1.516 1_556 S
C2113 C2114 1.502 . S
C2113 C2115 1.561 1_556 S
C2113 C2116 1.526 . S
C2114 H2098 0.959 . S
C2114 H2099 0.959 . S
C2114 H2100 0.961 . S
C2114 C2113 1.502 . S
C2115 H2101 0.960 . S
C2115 H2102 0.961 . S
C2115 H2103 0.959 . S
C2115 C2113 1.561 1_554 S
C2116 C2113 1.526 . S
C2116 C2117 1.396 1_556 S
C2116 C2121 1.390 . S
C2117 C2111 1.465 . S
C2117 C2116 1.396 1_554 S
C2117 C2118 1.398 1_554 S
C2118 H2104 0.925 1_556 S
C2118 C2117 1.398 1_556 S
C2118 C2119 1.392 . S
C2119 H2105 0.931 . S
C2119 C2118 1.392 . S
C2119 C2120 1.389 . S
C2120 C2119 1.389 . S
C2120 C2121 1.387 . S
C2121 H2106 0.930 . S
C2121 C2116 1.390 . S
C2121 C2120 1.387 . S
H2122 C2134 0.930 . S
H2123 C2136 0.930 . S
H2124 C2137 0.930 . S
H2125 C2141 0.959 . S
H2126 C2141 0.959 . S
H2127 C2141 0.961 1_545 S
H2128 C2142 0.947 1_545 S
H2129 C2142 0.961 . S
H2130 C2142 0.961 . S
H2131 C2145 0.929 . S
H2132 C2146 0.931 . S
H2133 C2148 0.930 . S
C2134 H2122 0.930 . S
C2134 C2135 1.399 . S
C2134 C2139 1.399 . S
C2135 C2134 1.399 . S
C2135 C2136 1.376 . S
C2136 H2123 0.930 . S
C2136 C2135 1.376 . S
C2136 C2137 1.388 . S
C2137 H2124 0.930 . S
C2137 C2136 1.388 . S
C2137 C2138 1.390 . S
C2138 C2137 1.390 . S
C2138 C2139 1.394 . S
C2138 C2144 1.465 1_545 S
C2139 C2134 1.399 . S
C2139 C2138 1.394 . S
C2139 C2140 1.516 1_545 S
C2140 C2139 1.516 1_565 S
C2140 C2141 1.502 . S
C2140 C2142 1.561 . S
C2140 C2143 1.526 . S
C2141 H2125 0.959 . S
C2141 H2126 0.959 . S
C2141 H2127 0.961 1_565 S
C2141 C2140 1.502 . S
C2142 H2128 0.947 1_565 S
C2142 H2129 0.961 . S
C2142 H2130 0.961 . S
C2142 C2140 1.561 . S
C2143 C2140 1.526 . S
C2143 C2144 1.396 . S
C2143 C2148 1.390 . S
C2144 C2138 1.465 1_565 S
C2144 C2143 1.396 . S
C2144 C2145 1.399 . S
C2145 H2131 0.929 . S
C2145 C2144 1.399 . S
C2145 C2146 1.385 . S
C2146 H2132 0.931 . S
C2146 C2145 1.385 . S
C2146 C2147 1.389 . S
C2147 C2146 1.389 . S
C2147 C2148 1.387 . S
C2148 H2133 0.930 . S
C2148 C2143 1.390 . S
C2148 C2147 1.387 . S
H2149 C2161 0.930 . S
H2150 C2163 0.930 . S
H2151 C2164 0.930 . S
H2152 C2168 0.959 . S
H2153 C2168 0.959 . S
H2154 C2168 0.961 . S
H2155 C2169 0.960 . S
H2156 C2169 0.961 . S
H2157 C2169 0.959 . S
H2158 C2172 0.929 . S
H2159 C2173 0.931 . S
H2160 C2175 0.930 . S
C2161 H2149 0.930 . S
C2161 C2162 1.399 . S
C2161 C2166 1.399 . S
C2162 C2161 1.399 . S
C2162 C2163 1.376 . S
C2163 H2150 0.930 . S
C2163 C2162 1.376 . S
C2163 C2164 1.388 . S
C2164 H2151 0.930 . S
C2164 C2163 1.388 . S
C2164 C2165 1.390 . S
C2165 C2164 1.390 . S
C2165 C2166 1.394 . S
C2165 C2171 1.465 . S
C2166 C2161 1.399 . S
C2166 C2165 1.394 . S
C2166 C2167 1.516 . S
C2167 C2166 1.516 . S
C2167 C2168 1.502 . S
C2167 C2169 1.561 . S
C2167 C2170 1.526 . S
C2168 H2152 0.959 . S
C2168 H2153 0.959 . S
C2168 H2154 0.961 . S
C2168 C2167 1.502 . S
C2169 H2155 0.960 . S
C2169 H2156 0.961 . S
C2169 H2157 0.959 . S
C2169 C2167 1.561 . S
C2170 C2167 1.526 . S
C2170 C2171 1.396 . S
C2170 C2175 1.390 . S
C2171 C2165 1.465 . S
C2171 C2170 1.396 . S
C2171 C2172 1.399 . S
C2172 H2158 0.929 . S
C2172 C2171 1.399 . S
C2172 C2173 1.385 . S
C2173 H2159 0.931 . S
C2173 C2172 1.385 . S
C2173 C2174 1.389 . S
C2174 C2173 1.389 . S
C2174 C2175 1.387 . S
C2175 H2160 0.930 . S
C2175 C2170 1.390 . S
C2175 C2174 1.387 . S
C461 C12 1.528 . S
C473 C306 1.554 . S
C488 C320 1.523 . S
C500 C26 1.560 . S
C515 C40 1.536 . S
C527 C334 1.550 . S
C542 C292 1.524 . S
C554 C54 1.558 . S
C569 C68 1.522 . S
C581 C278 1.562 . S
C596 C82 1.538 . S
C608 C236 1.544 . S
C623 C250 1.537 . S
C635 C96 1.546 . S
C650 C110 1.544 . S
C662 C264 1.542 . S
C677 C124 1.531 . S
C689 C418 1.561 . S
C704 C138 1.522 . S
C716 C432 1.554 . S
C731 C446 1.542 . S
C743 C152 1.556 . S
C758 C404 1.552 . S
C770 C166 1.523 . S
C785 C180 1.545 . S
C797 C390 1.526 . S
C812 C348 1.533 . S
C824 C194 1.536 . S
C839 C208 1.544 . S
C851 C362 1.554 . S
C866 C376 1.533 . S
C878 C222 1.537 . S
C893 C4 0.942 . S
C905 C131 0.969 . S
C920 C18 0.946 . S
C932 C369 0.989 . S
C947 C159 0.918 . S
C959 C32 0.991 . S
C974 C46 0.989 . S
C986 C341 0.874 . S
C1001 C60 0.957 . S
C1013 C215 0.874 . S
C1028 C397 0.972 . S
C1040 C74 0.982 . S
C1055 C187 0.894 . S
C1067 C88 0.991 . S
C1082 C425 0.957 . S
C1094 C102 0.943 . S
C1109 C116 0.942 . S
C1121 C19 0.996 . S
C1136 C257 0.924 . S
C1148 C130 0.983 . S
C1163 C47 0.999 . S
C1175 C144 0.955 . S
C1190 C158 0.982 . S
C1202 C229 0.856 . S
C1217 C103 0.944 . S
C1229 C172 0.950 . S
C1244 C285 0.855 . S
C1256 C186 0.991 . S
C1271 C75 0.998 . S
C1283 C200 0.955 . S
C1298 C214 0.964 . S
C1310 C313 0.980 . S
C1325 C355 0.987 . S
C1337 C228 0.946 . S
C1352 C145 0.899 . S
C1364 C242 0.950 . S
C1379 C383 1.004 . S
C1391 C256 0.955 . S
C1406 C270 0.943 . S
C1418 C117 0.940 . S
C1433 C439 0.919 . S
C1445 C284 0.991 . S
C1460 C173 1.005 . S
C1472 C298 0.960 . S
C1487 C411 0.883 . S
C1499 C312 0.990 . S
C1514 C326 0.992 . S
C1526 C201 0.911 . S
C1541 C340 0.990 . S
C1553 C243 0.883 . S
C1568 C33 0.936 . S
C1580 C354 0.952 . S
C1595 C368 0.949 . S
C1607 C271 0.948 . S
C1622 C382 0.946 . S
C1634 C5 1.003 . S
C1649 C396 0.943 . S
C1661 C327 1.000 . S
C1676 C61 0.867 . S
C1688 C410 0.975 . S
C1703 C299 0.897 . S
C1715 C424 0.963 . S
C1730 C438 0.991 . S
C1742 C89 0.884 . S
C1757 C11 1.112 . S
C1769 C67 1.166 . S
C1784 C25 1.135 . S
C1796 C81 1.188 . S
C1811 C95 1.184 . S
C1823 C39 1.150 . S
C1838 C109 1.137 . S
C1850 C53 1.125 . S
C1865 C179 1.123 . S
C1877 C123 1.172 . S
C1892 C193 1.114 . S
C1904 C137 1.157 . S
C1919 C207 1.184 . S
C1931 C151 1.173 . S
C1946 C221 1.112 . S
C1958 C165 1.141 . S
C1973 C235 1.186 . S
C1985 C291 1.146 . S
C2000 C249 1.146 . S
C2012 C305 1.120 . S
C2027 C263 1.134 . S
C2039 C319 1.128 . S
C2054 C333 1.150 . S
C2066 C277 1.117 . S
C2081 C347 1.156 . S
C2093 C403 1.114 . S
C2108 C417 1.187 . S
C2120 C361 1.167 . S
C2135 C431 1.149 . S
C2147 C375 1.187 . S
C2162 C445 1.186 . S
C2174 C389 1.144 . S
