# Generated by pormake.
# Topology sml, (6)-cn, num edge types: 1
# Building blocks:
#     Node 0, Type 0, BuildingBlock: BETDEL_clean_sbu_0, # of connection points: 6
#     Node 1, Type 0, BuildingBlock: BETDEL_clean_sbu_0, # of connection points: 6
#     Node 2, Type 0, BuildingBlock: BETDEL_clean_sbu_0, # of connection points: 6
#     Node 3, Type 0, BuildingBlock: BETDEL_clean_sbu_0, # of connection points: 6
#     Node 4, Type 0, BuildingBlock: BETDEL_clean_sbu_0, # of connection points: 6
#     Node 5, Type 0, BuildingBlock: BETDEL_clean_sbu_0, # of connection points: 6
#     Edge 6, Type (0, 0), BuildingBlock: UVAHIK_clean_linker_0, # of connection points: 2
#     Edge 7, Type (0, 0), BuildingBlock: UVAHIK_clean_linker_0, # of connection points: 2
#     Edge 8, Type (0, 0), BuildingBlock: UVAHIK_clean_linker_0, # of connection points: 2
#     Edge 9, Type (0, 0), BuildingBlock: UVAHIK_clean_linker_0, # of connection points: 2
#     Edge 10, Type (0, 0), BuildingBlock: UVAHIK_clean_linker_0, # of connection points: 2
#     Edge 11, Type (0, 0), BuildingBlock: UVAHIK_clean_linker_0, # of connection points: 2
#     Edge 12, Type (0, 0), BuildingBlock: UVAHIK_clean_linker_0, # of connection points: 2
#     Edge 13, Type (0, 0), BuildingBlock: UVAHIK_clean_linker_0, # of connection points: 2
#     Edge 14, Type (0, 0), BuildingBlock: UVAHIK_clean_linker_0, # of connection points: 2
#     Edge 15, Type (0, 0), BuildingBlock: UVAHIK_clean_linker_0, # of connection points: 2
#     Edge 16, Type (0, 0), BuildingBlock: UVAHIK_clean_linker_0, # of connection points: 2
#     Edge 17, Type (0, 0), BuildingBlock: UVAHIK_clean_linker_0, # of connection points: 2
#     Edge 18, Type (0, 0), BuildingBlock: UVAHIK_clean_linker_0, # of connection points: 2
#     Edge 19, Type (0, 0), BuildingBlock: UVAHIK_clean_linker_0, # of connection points: 2
#     Edge 20, Type (0, 0), BuildingBlock: UVAHIK_clean_linker_0, # of connection points: 2
#     Edge 21, Type (0, 0), BuildingBlock: UVAHIK_clean_linker_0, # of connection points: 2
#     Edge 22, Type (0, 0), BuildingBlock: UVAHIK_clean_linker_0, # of connection points: 2
#     Edge 23, Type (0, 0), BuildingBlock: UVAHIK_clean_linker_0, # of connection points: 2
# Relax obj value: 0.135
# Max RMSD: 0.172
# Mean RMSD: 0.172
data_MOF--net-sml--node1-BETDEL_clean_sbu_0--edge1-UVAHIK_clean_linker_0
_symmetry_space_group_name_H-M    P1
_symmetry_Int_Tables_number       1
_symmetry_cell_setting            triclinic
loop_
_symmetry_equiv_pos_as_xyz
'x, y, z'
_cell_length_a     46.826453
_cell_length_b     46.857482
_cell_length_c     22.503823
_cell_angle_alpha  89.72335
_cell_angle_beta   90.321041
_cell_angle_gamma 120.11558
loop_
_atom_site_label
_atom_site_type_symbol
_atom_site_fract_x
_atom_site_fract_y
_atom_site_fract_z
_atom_type_partial_charge
Dy0 Dy 0.18796 0.42479 0.08529 0.0
C1 C 0.20094 0.40865 0.33394 0.0
C2 C 0.19203 0.43278 0.96551 0.0
Dy3 Dy 0.20436 0.41674 0.21414 0.0
O4 O 0.16577 0.42488 -0.00344 0.0
O5 O 0.21595 0.43647 -0.00012 0.0
O6 O 0.13571 0.40825 0.10988 0.0
O7 O 0.162 0.38946 0.15613 0.0
C8 C 0.13563 0.39052 0.15455 0.0
C9 C 0.25657 0.45118 0.14391 0.0
O10 O 0.19917 0.37014 0.17913 0.0
O11 O 0.19782 0.3824 0.07905 0.0
O12 O 0.22762 0.41895 0.30282 0.0
O13 O 0.1762 0.40259 0.29962 0.0
O14 O 0.25685 0.43361 0.18857 0.0
O15 O 0.23008 0.45194 0.14329 0.0
O16 O 0.19516 0.47246 0.12128 0.0
O17 O 0.19389 0.45842 0.22082 0.0
C18 C 0.19998 0.36401 0.12201 0.0
C19 C 0.19364 0.47815 0.17857 0.0
Dy20 Dy 0.80281 0.22479 0.60499 0.0
C21 C 0.78866 0.1916 0.35436 0.0
C22 C 0.80243 0.23743 0.72313 0.0
Dy23 Dy 0.78611 0.20289 0.47241 0.0
O24 O 0.82866 0.24498 0.69229 0.0
O25 O 0.77658 0.22389 0.68895 0.0
O26 O 0.85395 0.23306 0.59048 0.0
O27 O 0.82846 0.24039 0.52056 0.0
C28 C 0.85408 0.23955 0.53426 0.0
C29 C 0.73478 0.18945 0.54161 0.0
O30 O 0.79365 0.16245 0.50977 0.0
O31 O 0.79205 0.17273 0.61056 0.0
O32 O 0.76171 0.18151 0.38465 0.0
O33 O 0.81417 0.207 0.38905 0.0
O34 O 0.73527 0.19531 0.48496 0.0
O35 O 0.76007 0.18814 0.55643 0.0
O36 O 0.79311 0.26415 0.56857 0.0
O37 O 0.79331 0.25357 0.46732 0.0
C38 C 0.7927 0.15424 0.56668 0.0
C39 C 0.79177 0.2713 0.51166 0.0
Dy40 Dy 0.57686 0.74594 0.7231 0.0
C41 C 0.58066 0.78004 0.97065 0.0
C42 C 0.56825 0.74216 0.6033 0.0
Dy43 Dy 0.58001 0.77231 0.85074 0.0
O44 O 0.57549 0.72311 0.63435 0.0
O45 O 0.56535 0.76263 0.6378 0.0
O46 O 0.60289 0.71842 0.75002 0.0
O47 O 0.61109 0.76058 0.79721 0.0
C48 C 0.61571 0.73631 0.79741 0.0
C49 C 0.54178 0.78143 0.7732 0.0
O50 O 0.6228 0.81771 0.81316 0.0
O51 O 0.61461 0.79984 0.71477 0.0
O52 O 0.55438 0.76589 0.93765 0.0
O53 O 0.60689 0.79083 0.93797 0.0
O54 O 0.55716 0.80162 0.81669 0.0
O55 O 0.54519 0.75653 0.77724 0.0
O56 O 0.53239 0.70325 0.76361 0.0
O57 O 0.55275 0.717 0.85975 0.0
C58 C 0.62989 0.82302 0.75574 0.0
C59 C 0.53182 0.69557 0.82053 0.0
Dy60 Dy 0.75733 0.58239 0.31003 0.0
C61 C 0.78751 0.5988 0.05724 0.0
C62 C 0.74528 0.56738 0.42752 0.0
Dy63 Dy 0.77639 0.58614 0.17558 0.0
O64 O 0.73373 0.58287 0.39656 0.0
O65 O 0.76272 0.55958 0.39395 0.0
O66 O 0.75863 0.63121 0.30275 0.0
O67 O 0.74755 0.6006 0.22851 0.0
C68 C 0.75448 0.62886 0.24546 0.0
C69 C 0.77841 0.53919 0.2401 0.0
O70 O 0.82099 0.63099 0.21273 0.0
O71 O 0.8113 0.61868 0.31382 0.0
O72 O 0.76776 0.60428 0.08897 0.0
O73 O 0.80181 0.58678 0.0904 0.0
O74 O 0.77125 0.53599 0.18375 0.0
O75 O 0.78663 0.56787 0.25721 0.0
O76 O 0.71274 0.53749 0.27235 0.0
O77 O 0.72198 0.55201 0.17205 0.0
C78 C 0.83044 0.63677 0.26937 0.0
C79 C 0.70307 0.53312 0.21586 0.0
Dy80 Dy 0.23626 0.81843 0.40271 0.0
C81 C 0.20342 0.80594 0.65323 0.0
C82 C 0.24914 0.81788 0.2847 0.0
Dy83 Dy 0.21414 0.80236 0.53525 0.0
O84 O 0.25847 0.84427 0.31626 0.0
O85 O 0.23367 0.79191 0.3181 0.0
O86 O 0.24435 0.86962 0.41679 0.0
O87 O 0.2517 0.84434 0.48682 0.0
C88 C 0.25092 0.86994 0.47304 0.0
C89 C 0.20158 0.75072 0.46803 0.0
O90 O 0.1732 0.80888 0.49684 0.0
O91 O 0.18441 0.80822 0.39616 0.0
O92 O 0.19226 0.77876 0.62318 0.0
O93 O 0.21954 0.83118 0.61829 0.0
O94 O 0.20706 0.75176 0.52492 0.0
O95 O 0.19988 0.77562 0.4517 0.0
O96 O 0.27543 0.80859 0.43977 0.0
O97 O 0.26483 0.80944 0.54082 0.0
C98 C 0.16544 0.80825 0.43972 0.0
C99 C 0.28259 0.80762 0.49681 0.0
Dy100 Dy 0.42531 0.19174 0.95308 0.0
C101 C 0.4101 0.20863 0.70455 0.0
C102 C 0.43357 0.19535 0.07293 0.0
Dy103 Dy 0.41762 0.2104 0.8246 0.0
O104 O 0.42292 0.16852 0.04201 0.0
O105 O 0.4399 0.22003 0.03837 0.0
O106 O 0.40894 0.14002 0.92539 0.0
O107 O 0.39053 0.16725 0.88087 0.0
C108 C 0.39157 0.14085 0.88076 0.0
C109 C 0.45239 0.26102 0.89804 0.0
O110 O 0.37125 0.20529 0.86043 0.0
O111 O 0.38297 0.20173 0.96016 0.0
O112 O 0.42238 0.23527 0.73644 0.0
O113 O 0.40171 0.18315 0.73826 0.0
O114 O 0.43499 0.26248 0.8541 0.0
O115 O 0.45261 0.23431 0.89643 0.0
O116 O 0.47245 0.19802 0.91581 0.0
O117 O 0.45861 0.19904 0.81662 0.0
C118 C 0.36489 0.20493 0.91775 0.0
C119 C 0.47804 0.19751 0.85812 0.0
C120 C 0.33075 0.23119 0.90219 0.0
C121 C 0.3374 0.20977 0.93521 0.0
C122 C 0.30721 0.23888 0.9217 0.0
C123 C 0.26263 0.23725 0.05945 0.0
H124 H 0.22599 0.2748 0.95055 0.0
C125 C 0.22643 0.3302 0.13931 0.0
C126 C 0.20504 0.33657 0.10548 0.0
C127 C 0.23473 0.30704 0.1202 0.0
C128 C 0.23515 0.26375 0.982 0.0
H129 H 0.3235 0.17785 0.01234 0.0
H130 H 0.28064 0.18935 0.04455 0.0
H131 H 0.25225 0.24591 0.91171 0.0
H132 H 0.17365 0.32242 0.02754 0.0
H133 H 0.18609 0.28013 0.99609 0.0
H134 H 0.24365 0.25318 0.12973 0.0
C135 C 0.29461 0.20164 0.00512 0.0
C136 C 0.25106 0.2477 0.95946 0.0
C137 C 0.31897 0.19477 0.9865 0.0
C138 C 0.19054 0.31811 0.05398 0.0
C139 C 0.19798 0.29409 0.03578 0.0
C140 C 0.2457 0.25227 0.08199 0.0
C141 C 0.28899 0.22454 0.97389 0.0
C142 C 0.2665 0.23568 -0.00221 0.0
C143 C 0.22104 0.28893 0.06759 0.0
C144 C 0.23314 0.26722 0.04369 0.0
H145 H 0.34493 0.24336 0.86277 0.0
H146 H 0.30452 0.25724 0.89692 0.0
H147 H 0.27402 0.22842 0.09088 0.0
H148 H 0.23818 0.34442 0.17895 0.0
H149 H 0.25313 0.30466 0.14552 0.0
C150 C 0.10777 0.3503 0.23754 0.0
C151 C 0.1069 0.37099 0.19306 0.0
C152 C 0.08044 0.3322 0.27428 0.0
C153 C 0.02645 0.31621 0.3673 0.0
H154 H 0.93893 0.26965 0.29702 0.0
C155 C 0.88315 0.26451 0.43939 0.0
C156 C 0.8823 0.2497 0.49416 0.0
C157 C 0.91031 0.27535 0.40199 0.0
C158 C 0.96316 0.28272 0.31742 0.0
H159 H 0.07686 0.38869 0.15134 0.0
H160 H 0.02902 0.35676 0.21482 0.0
H161 H 0.98724 0.29654 0.23296 0.0
H162 H 0.90877 0.23409 0.55273 0.0
H163 H 0.95631 0.25268 0.48685 0.0
H164 H 0.00244 0.30351 0.4518 0.0
C165 C 0.05076 0.35454 0.2214 0.0
C166 C 0.9908 0.29801 0.2807 0.0
C167 C 0.07817 0.37292 0.18528 0.0
C168 C 0.90893 0.24555 0.51071 0.0
C169 C 0.93615 0.25631 0.47312 0.0
C170 C -0.00124 0.30115 0.40414 0.0
C171 C 0.05164 0.33409 0.26634 0.0
C172 C 0.02266 0.31538 0.30529 0.0
C173 C 0.93724 0.27156 0.41847 0.0
C174 C 0.96676 0.28475 0.3796 0.0
H175 H 0.1295 0.34806 0.2439 0.0
H176 H 0.08165 0.31645 0.30839 0.0
H177 H 0.05075 0.32965 0.38738 0.0
H178 H 0.86312 0.2684 0.42591 0.0
H179 H 0.91055 0.28756 0.36086 0.0
C180 C 0.7826 0.09817 0.53789 0.0
C181 C 0.78809 0.12145 0.58218 0.0
C182 C 0.77336 0.06572 0.55334 0.0
C183 C 0.765 0.01099 0.68123 0.0
H184 H 0.68882 0.94608 0.59282 0.0
C185 C 0.66973 0.88306 0.77485 0.0
C186 C 0.65548 0.85622 0.73545 0.0
C187 C 0.69172 0.91483 0.75398 0.0
C188 C 0.71045 0.96373 0.6174 0.0
H189 H 0.79046 0.12941 0.67754 0.0
H190 H 0.77389 0.07305 0.70416 0.0
H191 H 0.71826 0.00294 0.55878 0.0
H192 H 0.65455 0.84152 0.64367 0.0
H193 H 0.6929 0.8967 0.60773 0.0
H194 H 0.75621 0.97172 0.74115 0.0
C195 C 0.77691 0.07974 0.65754 0.0
C196 C 0.72742 0.99639 0.59774 0.0
C197 C 0.78617 0.1121 0.64216 0.0
C198 C 0.66473 0.86164 0.67527 0.0
C199 C 0.68668 0.89331 0.65451 0.0
C200 C 0.74791 0.97827 0.70104 0.0
C201 C 0.76945 0.05591 0.61334 0.0
C202 C 0.75451 0.02055 0.63002 0.0
C203 C 0.69988 0.92036 0.69334 0.0
C204 C 0.72009 0.95442 0.66987 0.0
H205 H 0.78412 0.10459 0.49126 0.0
H206 H 0.76833 0.04806 0.51823 0.0
H207 H 0.78607 0.02892 0.70665 0.0
H208 H 0.66317 0.87976 0.82147 0.0
H209 H 0.70126 0.93523 0.78494 0.0
C210 C 0.63011 0.73471 0.90338 0.0
C211 C 0.63431 0.73002 0.84339 0.0
C212 C 0.64727 0.72839 0.94753 0.0
C213 C 0.69357 0.68401 0.97283 0.0
H214 H 0.71819 0.73354 0.1202 0.0
C215 C 0.7668 0.66171 0.1531 0.0
C216 C 0.75011 0.65188 0.20739 0.0
C217 C 0.75733 0.67679 0.1099 0.0
C218 C 0.71148 0.71961 0.07918 0.0
H219 H 0.65957 0.71509 0.78171 0.0
H220 H 0.69091 0.70536 0.85833 0.0
H221 H 0.69289 0.74877 0.04019 0.0
H222 H 0.71278 0.65273 0.26228 0.0
H223 H 0.69659 0.68017 0.18704 0.0
H224 H 0.7128 0.65531 0.01173 0.0
C225 C 0.67372 0.71312 0.87194 0.0
C226 C 0.69676 0.7281 0.03342 0.0
C227 C 0.65596 0.71885 0.8279 0.0
C228 C 0.72594 0.66017 0.22049 0.0
C229 C 0.71667 0.67571 0.17748 0.0
C230 C 0.70883 0.67597 0.01809 0.0
C231 C 0.66947 0.71762 0.9325 0.0
C232 C 0.68714 0.71008 0.97989 0.0
C233 C 0.73138 0.68287 0.12095 0.0
C234 C 0.71756 0.69342 0.0719 0.0
H235 H 0.61264 0.74212 0.91633 0.0
H236 H 0.64244 0.73121 0.99348 0.0
H237 H 0.68597 0.66905 0.93305 0.0
H238 H 0.78652 0.65678 0.14348 0.0
H239 H 0.76951 0.68271 0.06711 0.0
C240 C 0.10678 0.79111 0.46458 0.0
C241 C 0.13263 0.80331 0.42315 0.0
C242 C 0.07451 0.78102 0.44602 0.0
C243 C 0.02347 0.74859 0.31189 0.0
H244 H 0.95714 0.75352 0.40637 0.0
C245 C 0.88702 0.68175 0.23913 0.0
C246 C 0.86437 0.66336 0.28405 0.0
C247 C 0.91973 0.70494 0.25348 0.0
C248 C 0.97539 0.7519 0.37953 0.0
H249 H 0.14541 0.81721 0.33079 0.0
H250 H 0.08941 0.80017 0.29882 0.0
H251 H 0.01499 0.78409 0.43743 0.0
H252 H 0.85812 0.65604 0.37957 0.0
H253 H 0.91494 0.69584 0.4042 0.0
H254 H 0.98399 0.71563 0.25511 0.0
C255 C 0.09383 0.79751 0.34528 0.0
C256 C 0.00851 0.7694 0.39734 0.0
C257 C 0.12597 0.80741 0.36371 0.0
C258 C 0.87486 0.6696 0.34367 0.0
C259 C 0.90747 0.69272 0.35795 0.0
C260 C 0.99044 0.7311 0.29417 0.0
C261 C 0.06754 0.78311 0.38575 0.0
C262 C 0.03285 0.7675 0.36422 0.0
C263 C 0.93047 0.71026 0.31303 0.0
C264 C 0.9659 0.73203 0.32833 0.0
H265 H 0.11109 0.78762 0.51069 0.0
H266 H 0.0548 0.76987 0.47832 0.0
H267 H 0.04146 0.74607 0.28586 0.0
H268 H 0.87974 0.67777 0.19278 0.0
H269 H 0.93675 0.71838 0.21785 0.0
C270 C 0.3814 0.08789 0.83741 0.0
C271 C 0.37532 0.11429 0.8366 0.0
C272 C 0.36713 0.06306 0.79481 0.0
C273 C 0.29958 0.02511 0.68393 0.0
H274 H 0.35187 0.98791 0.62646 0.0
C275 C 0.25895 0.9257 0.49676 0.0
C276 C 0.26278 0.89875 0.51235 0.0
C277 C 0.27166 0.95347 0.53361 0.0
C278 C 0.33699 0.99805 0.64221 0.0
H279 H 0.34864 0.13497 0.79216 0.0
H280 H 0.32448 0.09207 0.71598 0.0
H281 H 0.37652 0.03435 0.69475 0.0
H282 H 0.28254 0.87941 0.57848 0.0
H283 H 0.3049 0.92783 0.64221 0.0
H284 H 0.26013 0.98864 0.63035 0.0
C285 C 0.34006 0.09038 0.74991 0.0
C286 C 0.35101 0.02454 0.68155 0.0
C287 C 0.35414 0.11512 0.79309 0.0
C288 C 0.27914 0.8998 0.56546 0.0
C289 C 0.29213 0.92757 0.60173 0.0
C290 C 0.28564 -0.00126 0.64386 0.0
C291 C 0.34662 0.06417 0.75002 0.0
C292 C 0.33228 0.03791 0.70406 0.0
C293 C 0.2888 0.95478 0.58593 0.0
C294 C 0.30405 0.98456 0.62376 0.0
H295 H 0.3974 0.08647 0.87082 0.0
H296 H 0.37207 0.04285 0.79726 0.0
H297 H 0.28439 0.03467 0.70063 0.0
H298 H 0.24636 0.92538 0.45602 0.0
H299 H 0.26885 0.97421 0.52053 0.0
C300 C 0.16514 0.42483 0.86655 0.0
C301 C 0.19361 0.43385 0.90047 0.0
C302 C 0.16603 0.42269 0.80485 0.0
C303 C 0.22222 0.44864 0.67691 0.0
H304 H 0.15145 0.37013 0.6029 0.0
C305 C 0.22827 0.41731 0.43262 0.0
C306 C 0.19952 0.40748 0.39902 0.0
C307 C 0.22747 0.41924 0.49436 0.0
C308 C 0.17122 0.3923 0.62288 0.0
H309 H 0.24555 0.44885 0.89727 0.0
H310 H 0.24713 0.44507 0.78939 0.0
H311 H 0.15017 0.37823 0.70962 0.0
H312 H 0.14724 0.39091 0.40286 0.0
H313 H 0.14584 0.39457 0.51074 0.0
H314 H 0.24323 0.4628 0.59021 0.0
C315 C 0.22419 0.43979 0.81025 0.0
C316 C 0.17044 0.39698 0.68386 0.0
C317 C 0.22326 0.44183 0.8719 0.0
C318 C 0.16974 0.39854 0.42796 0.0
C319 C 0.16892 0.4005 0.48966 0.0
C320 C 0.22297 0.444 0.61592 0.0
C321 C 0.19545 0.42966 0.77625 0.0
C322 C 0.19593 0.4252 0.71141 0.0
C323 C 0.19789 0.41139 0.52338 0.0
C324 C 0.19748 0.41578 0.58832 0.0
H325 H 0.14201 0.41863 0.88775 0.0
H326 H 0.14365 0.41528 0.77955 0.0
H327 H 0.24201 0.47078 0.69696 0.0
H328 H 0.25151 0.4242 0.41115 0.0
H329 H 0.25005 0.4272 0.51936 0.0
C330 C 0.82087 0.20732 0.26012 0.0
C331 C 0.79022 0.19147 0.28901 0.0
C332 C 0.82245 0.21156 0.19847 0.0
C333 C 0.77255 0.18354 0.06002 0.0
H334 H 0.8379 0.26996 0.00163 0.0
C335 C 0.7709 0.22298 0.818 0.0
C336 C 0.80137 0.23779 0.78849 0.0
C337 C 0.76955 0.21867 0.87961 0.0
C338 C 0.81968 0.24564 0.01719 0.0
H339 H 0.73721 0.16644 0.27633 0.0
H340 H 0.73988 0.17395 0.16878 0.0
H341 H 0.83593 0.25751 0.10736 0.0
H342 H 0.85435 0.26099 0.80004 0.0
H343 H 0.85206 0.25361 0.90772 0.0
H344 H 0.75621 0.17176 0.96983 0.0
C345 C 0.76272 0.18289 0.19343 0.0
C346 C 0.81863 0.23843 0.07773 0.0
C347 C 0.76116 0.17863 0.25506 0.0
C348 C 0.83055 0.2496 0.82181 0.0
C349 C 0.82922 0.24541 0.88345 0.0
C350 C 0.77355 0.19078 -0.00049 0.0
C351 C 0.7934 0.20006 0.16456 0.0
C352 C 0.79506 0.20728 0.09987 0.0
C353 C 0.79866 0.22919 0.91285 0.0
C354 C 0.79711 0.22192 0.97742 0.0
H355 H 0.84367 0.21744 0.28533 0.0
H356 H 0.84645 0.22434 0.17747 0.0
H357 H 0.75436 0.15918 0.07548 0.0
H358 H 0.74802 0.21363 0.79327 0.0
H359 H 0.74568 0.20658 0.90113 0.0
C360 C 0.5635 0.76845 0.51078 0.0
C361 C 0.5672 0.7435 0.53812 0.0
C362 C 0.56538 0.77207 0.44922 0.0
C363 C 0.5559 0.72888 0.31009 0.0
H364 H 0.61188 0.81688 0.24625 0.0
C365 C 0.54996 0.76171 0.06579 0.0
C366 C 0.58021 0.77916 0.03594 0.0
C367 C 0.54924 0.75763 0.12726 0.0
C368 C 0.59632 0.79218 0.2635 0.0
H369 H 0.57474 0.70213 0.52301 0.0
H370 H 0.57749 0.70815 0.41444 0.0
H371 H 0.60856 0.80806 0.35377 0.0
H372 H 0.63339 0.80674 0.04653 0.0
H373 H 0.63211 0.80011 0.15477 0.0
H374 H 0.54339 0.71307 0.2198 0.0
C375 C 0.57333 0.72496 0.44093 0.0
C376 C 0.59424 0.78717 0.32487 0.0
C377 C 0.57178 0.72153 0.50281 0.0
C378 C 0.60975 0.79334 0.06869 0.0
C379 C 0.60902 0.78953 0.13042 0.0
C380 C 0.55769 0.73396 0.24872 0.0
C381 C 0.57069 0.75063 0.41377 0.0
C382 C 0.57384 0.75552 0.34869 0.0
C383 C 0.57875 0.77117 0.16005 0.0
C384 C 0.57776 0.76569 0.22493 0.0
H385 H 0.55986 0.78568 0.53703 0.0
H386 H 0.56275 0.79173 0.42929 0.0
H387 H 0.53992 0.70428 0.32741 0.0
H388 H 0.52682 0.75049 0.0415 0.0
H389 H 0.52557 0.74378 0.14918 0.0
C390 C 0.80347 0.58598 0.95965 0.0
C391 C 0.78847 0.60039 0.99203 0.0
C392 C 0.79955 0.58277 0.89798 0.0
C393 C 0.74145 0.57695 0.78168 0.0
H394 H 0.81071 0.58872 0.67359 0.0
C395 C 0.72991 0.57926 0.52638 0.0
C396 C 0.74437 0.56478 0.49265 0.0
C397 C 0.7337 0.58141 0.58808 0.0
C398 C 0.791 0.58488 0.70337 0.0
H399 H 0.75944 0.62462 0.98573 0.0
H400 H 0.75314 0.61962 0.87806 0.0
H401 H 0.823 0.59968 0.77927 0.0
H402 H 0.77253 0.53958 0.49654 0.0
H403 H 0.77879 0.54293 0.60446 0.0
H404 H 0.70949 0.5623 0.70578 0.0
C405 C 0.76722 0.61006 0.90019 0.0
C406 C 0.79808 0.59127 0.76382 0.0
C407 C 0.77107 0.61318 0.96171 0.0
C408 C 0.76123 0.55098 0.52165 0.0
C409 C 0.76506 0.55316 0.58328 0.0
C410 C 0.73438 0.5706 0.72127 0.0
C411 C 0.78063 0.594 0.86787 0.0
C412 C 0.77341 0.58752 0.80356 0.0
C413 C 0.75205 0.56913 0.61696 0.0
C414 C 0.7591 0.57457 0.68146 0.0
H415 H 0.81691 0.57584 0.98218 0.0
H416 H 0.81007 0.57017 0.87431 0.0
H417 H 0.72172 0.57317 0.8114 0.0
H418 H 0.71688 0.59017 0.50493 0.0
H419 H 0.72355 0.59402 0.61281 0.0
C420 C 0.18952 0.7787 0.75266 0.0
C421 C 0.20368 0.80774 0.7186 0.0
C422 C 0.1941 0.78015 0.81421 0.0
C423 C 0.21954 0.83582 0.94405 0.0
H424 H 0.24344 0.77415 0.01091 0.0
C425 C 0.26359 0.84671 0.18661 0.0
C426 C 0.24985 0.81721 0.2193 0.0
C427 C 0.25985 0.84601 0.12487 0.0
C428 C 0.23652 0.79135 0.99308 0.0
H429 H 0.23254 0.86111 0.72204 0.0
H430 H 0.24052 0.86371 0.82966 0.0
H431 H 0.23053 0.77171 0.90534 0.0
H432 H 0.22259 0.76386 0.21332 0.0
H433 H 0.21583 0.76255 0.10566 0.0
H434 H 0.22532 0.85534 0.03184 0.0
C435 C 0.22576 0.83981 0.80897 0.0
C436 C 0.22903 0.7899 0.9326 0.0
C437 C 0.22121 0.83834 0.74736 0.0
C438 C 0.23358 0.78698 0.18907 0.0
C439 C 0.22976 0.78626 0.12737 0.0
C440 C 0.22695 0.83722 0.0046 0.0
C441 C 0.21291 0.81069 0.84289 0.0
C442 C 0.22036 0.81205 0.90742 0.0
C443 C 0.24222 0.81578 0.09467 0.0
C444 C 0.23549 0.81497 0.02986 0.0
H445 H 0.17585 0.75478 0.73155 0.0
H446 H 0.18338 0.75731 0.83925 0.0
H447 H 0.21263 0.85301 0.92612 0.0
H448 H 0.2763 0.87035 0.2089 0.0
H449 H 0.2703 0.86917 0.10089 0.0
C450 C 0.42216 0.23681 0.60607 0.0
C451 C 0.40919 0.20759 0.63938 0.0
C452 C 0.42415 0.23586 0.54428 0.0
C453 C 0.39227 0.17985 0.41519 0.0
H454 H 0.47444 0.24465 0.3418 0.0
C455 C 0.42247 0.16834 0.17236 0.0
C456 C 0.4347 0.19714 0.13804 0.0
C457 C 0.4204 0.16984 0.23401 0.0
C458 C 0.45127 0.22656 0.36164 0.0
H459 H 0.38719 0.15444 0.63491 0.0
H460 H 0.39087 0.15276 0.52716 0.0
H461 H 0.46682 0.24722 0.44838 0.0
H462 H 0.45546 0.25018 0.1406 0.0
H463 H 0.45181 0.25283 0.2483 0.0
H464 H 0.3768 0.15911 0.32848 0.0
C465 C 0.39923 0.17636 0.54841 0.0
C466 C 0.44685 0.22811 0.42255 0.0
C467 C 0.39726 0.17732 0.61008 0.0
C468 C 0.44593 0.22761 0.16624 0.0
C469 C 0.44396 0.22914 0.22783 0.0
C470 C 0.39672 0.17828 0.35432 0.0
C471 C 0.41316 0.20566 0.51494 0.0
C472 C 0.41733 0.20472 0.44996 0.0
C473 C 0.43064 0.2002 0.26221 0.0
C474 C 0.42629 0.20157 0.32698 0.0
H475 H 0.43145 0.26043 0.6278 0.0
H476 H 0.43454 0.25878 0.51953 0.0
H477 H 0.36909 0.16176 0.43495 0.0
H478 H 0.41371 0.14457 0.1515 0.0
H479 H 0.41048 0.14722 0.25958 0.0
C480 C 0.18818 0.52806 0.15724 0.0
C481 C 0.19457 0.5088 0.19738 0.0
C482 C 0.18993 0.55738 0.17618 0.0
C483 C 0.2296 0.62156 0.28869 0.0
H484 H 0.15452 0.635 0.27637 0.0
C485 C 0.21296 0.70531 0.44929 0.0
C486 C 0.20107 0.72562 0.42829 0.0
C487 C 0.21361 0.68195 0.4122 0.0
C488 C 0.17594 0.63196 0.27911 0.0
H489 H 0.20782 0.50527 0.28874 0.0
H490 H 0.21127 0.5562 0.32097 0.0
H491 H 0.15322 0.58821 0.22538 0.0
H492 H 0.17942 0.73685 0.35292 0.0
H493 H 0.18094 0.69598 0.28711 0.0
H494 H 0.25218 0.66462 0.34317 0.0
C495 C 0.20489 0.54872 0.27506 0.0
C496 C 0.17516 0.60521 0.24999 0.0
C497 C 0.20267 0.51939 0.25656 0.0
C498 C 0.18923 0.72179 0.36971 0.0
C499 C 0.18985 0.69828 0.33234 0.0
C500 C 0.23049 0.64829 0.31733 0.0
C501 C 0.19873 0.56809 0.23513 0.0
C502 C 0.20154 0.59922 0.25634 0.0
C503 C 0.20234 0.6783 0.35316 0.0
C504 C 0.2032 0.6531 0.31472 0.0
H505 H 0.18178 0.52047 0.11142 0.0
H506 H 0.185 0.57195 0.14468 0.0
H507 H 0.25047 0.61772 0.29345 0.0
H508 H 0.22209 0.70764 0.49439 0.0
H509 H 0.22265 0.66644 0.4301 0.0
C510 C 0.69144 0.20323 0.56547 0.0
C511 C 0.71083 0.18966 0.58333 0.0
C512 C 0.66991 0.20529 0.60538 0.0
C513 C 0.62255 0.16963 0.74134 0.0
H514 H 0.61656 0.24924 0.73739 0.0
C515 C 0.52609 0.18827 0.87519 0.0
C516 C 0.50813 0.19778 0.83778 0.0
C517 C 0.55435 0.18853 0.85401 0.0
C518 C 0.61812 0.22695 0.7393 0.0
H519 H 0.72215 0.16632 0.6558 0.0
H520 H 0.68435 0.17006 0.72631 0.0
H521 H 0.65967 0.24696 0.68113 0.0
H522 H 0.50605 0.21549 0.7493 0.0
H523 H 0.555 0.21622 0.71324 0.0
H524 H 0.58014 0.1494 0.7983 0.0
C525 C 0.68599 0.17926 0.68147 0.0
C526 C 0.64266 0.22557 0.70692 0.0
C527 C 0.7077 0.1773 0.64137 0.0
C528 C 0.51914 0.20785 0.77935 0.0
C529 C 0.5474 0.20856 0.7587 0.0
C530 C 0.59792 0.17105 0.77401 0.0
C531 C 0.6672 0.19368 0.664 0.0
C532 C 0.6444 0.19652 0.70582 0.0
C533 C 0.56532 0.19896 0.79565 0.0
C534 C 0.59483 0.19934 0.77146 0.0
H535 H 0.6933 0.2128 0.52086 0.0
H536 H 0.65522 0.21587 0.5902 0.0
H537 H 0.62331 0.14691 0.74128 0.0
H538 H 0.51811 0.18031 0.92036 0.0
H539 H 0.56779 0.18093 0.88324 0.0
C540 C 0.31509 0.47207 0.11403 0.0
C541 C 0.28509 0.4715 0.1053 0.0
C542 C 0.34248 0.49231 0.07885 0.0
C543 C 0.36832 0.53489 0.93637 0.0
H544 H 0.447 0.59917 0.01982 0.0
C545 C 0.47358 0.6489 0.81898 0.0
C546 C 0.50552 0.66355 0.84308 0.0
C547 C 0.44744 0.62162 0.84691 0.0
C548 C 0.42566 0.58095 0.99542 0.0
H549 H 0.26012 0.4915 0.05308 0.0
H550 H 0.30769 0.52592 0.99011 0.0
H551 H 0.39994 0.55818 0.07595 0.0
H552 H 0.53589 0.65993 0.91222 0.0
H553 H 0.49091 0.61124 0.95885 0.0
H554 H 0.394 0.55706 0.85572 0.0
C555 C 0.30995 0.51074 0.02416 0.0
C556 C 0.39859 0.55758 0.02785 0.0
C557 C 0.28278 0.49106 0.06014 0.0
C558 C 0.51135 0.64925 0.89317 0.0
C559 C 0.48544 0.62153 0.92022 0.0
C560 C 0.39567 0.55786 0.90374 0.0
C561 C 0.34013 0.51182 0.03367 0.0
C562 C 0.36953 0.5347 -0.00131 0.0
C563 C 0.45287 0.60802 0.89883 0.0
C564 C 0.42459 0.58159 0.93285 0.0
H565 H 0.31754 0.45727 0.14861 0.0
H566 H 0.36554 0.49277 0.08695 0.0
H567 H 0.34617 0.51726 0.91295 0.0
H568 H 0.46842 0.65969 0.78066 0.0
H569 H 0.42279 0.61233 0.82928 0.0
C570 C 0.77493 0.30058 0.43963 0.0
C571 C 0.78799 0.29987 0.49563 0.0
C572 C 0.77139 0.32726 0.42274 0.0
C573 C 0.80589 0.41487 0.44325 0.0
H574 H 0.7256 0.39916 0.36363 0.0
C575 C 0.79309 0.52037 0.33384 0.0
C576 C 0.77764 0.51305 0.27789 0.0
C577 C 0.79233 0.49531 0.36911 0.0
C578 C 0.74827 0.40399 0.38546 0.0
H579 H 0.80742 0.32655 0.57811 0.0
H580 H 0.80191 0.37407 0.54761 0.0
H581 H 0.72779 0.35339 0.41094 0.0
H582 H 0.74965 0.47412 0.21445 0.0
H583 H 0.74897 0.43058 0.27494 0.0
H584 H 0.82693 0.4652 0.41541 0.0
C585 C 0.79423 0.3536 0.51725 0.0
C586 C 0.74942 0.37781 0.41283 0.0
C587 C 0.79728 0.32646 0.53469 0.0
C588 C 0.76163 0.48039 0.25757 0.0
C589 C 0.76096 0.45541 0.29259 0.0
C590 C 0.80484 0.44111 0.41539 0.0
C591 C 0.78115 0.35413 0.4611 0.0
C592 C 0.7785 0.38281 0.44064 0.0
C593 C 0.77626 0.4625 0.34884 0.0
C594 C 0.77627 0.43576 0.38476 0.0
H595 H 0.76726 0.28038 0.40862 0.0
H596 H 0.76161 0.32717 0.37894 0.0
H597 H 0.82869 0.41933 0.46405 0.0
H598 H 0.80614 0.54551 0.34999 0.0
H599 H 0.80426 0.50163 0.41225 0.0
C600 C 0.31248 0.79224 0.57037 0.0
C601 C 0.3112 0.80394 0.51335 0.0
C602 C 0.33906 0.78852 0.58744 0.0
C603 C 0.42609 0.81994 0.56343 0.0
H604 H 0.40886 0.74053 0.64801 0.0
C605 C 0.51738 0.8135 0.72926 0.0
C606 C 0.51942 0.78463 0.73082 0.0
C607 C 0.4946 0.81569 0.69185 0.0
C608 C 0.4142 0.76268 0.62375 0.0
H609 H 0.33691 0.82093 0.42941 0.0
H610 H 0.38419 0.81504 0.46014 0.0
H611 H 0.36329 0.74363 0.60179 0.0
H612 H 0.50022 0.73586 0.69314 0.0
H613 H 0.46032 0.7396 0.62794 0.0
H614 H 0.47697 0.83938 0.58722 0.0
C615 C 0.36425 0.80859 0.49118 0.0
C616 C 0.38807 0.76452 0.59768 0.0
C617 C 0.33722 0.81184 0.47361 0.0
C618 C 0.49904 0.75837 0.693 0.0
C619 C 0.47617 0.76047 0.65583 0.0
C620 C 0.45229 0.81823 0.5901 0.0
C621 C 0.36526 0.79672 0.54823 0.0
C622 C 0.39364 0.7934 0.56837 0.0
C623 C 0.47331 0.78895 0.65556 0.0
C624 C 0.44649 0.78978 0.62149 0.0
H625 H 0.29277 0.78569 0.602 0.0
H626 H 0.33936 0.77971 0.63191 0.0
H627 H 0.43101 0.84254 0.54132 0.0
H628 H 0.53291 0.83415 0.75785 0.0
H629 H 0.49277 0.83782 0.69311 0.0
C630 C 0.65145 0.51159 0.15714 0.0
C631 C 0.6702 0.50594 0.19933 0.0
C632 C 0.62296 0.48528 0.13296 0.0
C633 C 0.56523 0.394 0.14366 0.0
H634 H 0.5558 0.40386 0.97459 0.0
C635 C 0.49387 0.2855 0.98002 0.0
C636 C 0.47295 0.28849 0.93863 0.0
C637 C 0.514 0.31172 0.01757 0.0
C638 C 0.55782 0.40088 0.02193 0.0
H639 H 0.67365 0.4688 0.25117 0.0
H640 H 0.62457 0.42237 0.20704 0.0
H641 H 0.59786 0.45009 0.0307 0.0
H642 H 0.45657 0.32112 0.90394 0.0
H643 H 0.49259 0.36745 0.96858 0.0
H644 H 0.52604 0.3439 0.13323 0.0
C645 C 0.6311 0.44714 0.19377 0.0
C646 C 0.58185 0.42747 0.0544 0.0
C647 C 0.65927 0.47368 0.2191 0.0
C648 C 0.47247 0.31817 0.93548 0.0
C649 C 0.49302 0.34462 0.97239 0.0
C650 C 0.54146 0.36717 0.11081 0.0
C651 C 0.61312 0.45256 0.14901 0.0
C652 C 0.58604 0.42444 0.11572 0.0
C653 C 0.51408 0.34167 0.0136 0.0
C654 C 0.53767 0.37037 0.04959 0.0
H655 H 0.65937 0.53639 0.14162 0.0
H656 H 0.60925 0.49062 0.1002 0.0
H657 H 0.56733 0.39079 0.19084 0.0
H658 H 0.49513 0.26307 0.98276 0.0
H659 H 0.53035 0.30896 0.04832 0.0
loop_
_geom_bond_atom_site_label_1
_geom_bond_atom_site_label_2
_geom_bond_distance
_geom_bond_site_symmetry_2
_ccdc_geom_bond_type
Dy0 O4 2.398 . S
Dy0 O5 2.491 . S
Dy0 O6 2.403 . S
Dy0 O7 2.664 . S
Dy0 O11 2.326 . S
Dy0 O15 2.310 . S
Dy0 O16 2.351 . S
C1 O12 1.185 . S
C1 O13 1.355 . S
C2 O4 1.185 . S
C2 O5 1.355 . S
Dy3 O7 2.310 . S
Dy3 O10 2.351 . S
Dy3 O12 2.398 . S
Dy3 O13 2.491 . S
Dy3 O14 2.403 . S
Dy3 O15 2.664 . S
Dy3 O17 2.326 . S
O4 Dy0 2.398 . S
O4 C2 1.185 . S
O5 Dy0 2.491 . S
O5 C2 1.355 . S
O6 Dy0 2.403 . S
O6 C8 1.254 . S
O7 Dy0 2.664 . S
O7 Dy3 2.310 . S
O7 C8 1.268 . S
C8 O6 1.254 . S
C8 O7 1.268 . S
C9 O14 1.254 . S
C9 O15 1.268 . S
O10 Dy3 2.351 . S
O10 C18 1.249 . S
O11 Dy0 2.326 . S
O11 C18 1.267 . S
O12 C1 1.185 . S
O12 Dy3 2.398 . S
O13 C1 1.355 . S
O13 Dy3 2.491 . S
O14 Dy3 2.403 . S
O14 C9 1.254 . S
O15 Dy0 2.310 . S
O15 Dy3 2.664 . S
O15 C9 1.268 . S
O16 Dy0 2.351 . S
O16 C19 1.249 . S
O17 Dy3 2.326 . S
O17 C19 1.267 . S
C18 O10 1.249 . S
C18 O11 1.267 . S
C19 O16 1.249 . S
C19 O17 1.267 . S
Dy20 O24 2.398 . S
Dy20 O25 2.491 . S
Dy20 O26 2.403 . S
Dy20 O27 2.664 . S
Dy20 O31 2.326 . S
Dy20 O35 2.310 . S
Dy20 O36 2.351 . S
C21 O32 1.185 . S
C21 O33 1.355 . S
C22 O24 1.185 . S
C22 O25 1.355 . S
Dy23 O27 2.310 . S
Dy23 O30 2.351 . S
Dy23 O32 2.398 . S
Dy23 O33 2.491 . S
Dy23 O34 2.403 . S
Dy23 O35 2.664 . S
Dy23 O37 2.326 . S
O24 Dy20 2.398 . S
O24 C22 1.185 . S
O25 Dy20 2.491 . S
O25 C22 1.355 . S
O26 Dy20 2.403 . S
O26 C28 1.254 . S
O27 Dy20 2.664 . S
O27 Dy23 2.310 . S
O27 C28 1.268 . S
C28 O26 1.254 . S
C28 O27 1.268 . S
C29 O34 1.254 . S
C29 O35 1.268 . S
O30 Dy23 2.351 . S
O30 C38 1.249 . S
O31 Dy20 2.326 . S
O31 C38 1.267 . S
O32 C21 1.185 . S
O32 Dy23 2.398 . S
O33 C21 1.355 . S
O33 Dy23 2.491 . S
O34 Dy23 2.403 . S
O34 C29 1.254 . S
O35 Dy20 2.310 . S
O35 Dy23 2.664 . S
O35 C29 1.268 . S
O36 Dy20 2.351 . S
O36 C39 1.249 . S
O37 Dy23 2.326 . S
O37 C39 1.267 . S
C38 O30 1.249 . S
C38 O31 1.267 . S
C39 O36 1.249 . S
C39 O37 1.267 . S
Dy40 O44 2.398 . S
Dy40 O45 2.491 . S
Dy40 O46 2.403 . S
Dy40 O47 2.664 . S
Dy40 O51 2.326 . S
Dy40 O55 2.310 . S
Dy40 O56 2.351 . S
C41 O52 1.185 . S
C41 O53 1.355 . S
C42 O44 1.185 . S
C42 O45 1.355 . S
Dy43 O47 2.310 1_554 S
Dy43 O50 2.351 1_554 S
Dy43 O52 2.398 . S
Dy43 O53 2.491 . S
Dy43 O54 2.403 . S
Dy43 O55 2.664 1_554 S
Dy43 O57 2.326 . S
O44 Dy40 2.398 . S
O44 C42 1.185 . S
O45 Dy40 2.491 . S
O45 C42 1.355 . S
O46 Dy40 2.403 . S
O46 C48 1.254 . S
O47 Dy40 2.664 . S
O47 Dy43 2.310 1_556 S
O47 C48 1.268 . S
C48 O46 1.254 . S
C48 O47 1.268 . S
C49 O54 1.254 1_556 S
C49 O55 1.268 . S
O50 Dy43 2.351 1_556 S
O50 C58 1.249 . S
O51 Dy40 2.326 . S
O51 C58 1.267 . S
O52 C41 1.185 . S
O52 Dy43 2.398 . S
O53 C41 1.355 . S
O53 Dy43 2.491 . S
O54 Dy43 2.403 . S
O54 C49 1.254 1_554 S
O55 Dy40 2.310 . S
O55 Dy43 2.664 1_556 S
O55 C49 1.268 . S
O56 Dy40 2.351 . S
O56 C59 1.249 1_556 S
O57 Dy43 2.326 . S
O57 C59 1.267 . S
C58 O50 1.249 . S
C58 O51 1.267 . S
C59 O56 1.249 1_554 S
C59 O57 1.267 . S
Dy60 O64 2.398 . S
Dy60 O65 2.491 . S
Dy60 O66 2.403 . S
Dy60 O67 2.664 . S
Dy60 O71 2.326 . S
Dy60 O75 2.310 . S
Dy60 O76 2.351 . S
C61 O72 1.185 . S
C61 O73 1.355 . S
C62 O64 1.185 . S
C62 O65 1.355 . S
Dy63 O67 2.310 1_556 S
Dy63 O70 2.351 1_556 S
Dy63 O72 2.398 . S
Dy63 O73 2.491 . S
Dy63 O74 2.403 1_556 S
Dy63 O75 2.664 1_556 S
Dy63 O77 2.326 . S
O64 Dy60 2.398 . S
O64 C62 1.185 . S
O65 Dy60 2.491 . S
O65 C62 1.355 . S
O66 Dy60 2.403 . S
O66 C68 1.254 . S
O67 Dy60 2.664 . S
O67 Dy63 2.310 1_554 S
O67 C68 1.268 . S
C68 O66 1.254 . S
C68 O67 1.268 . S
C69 O74 1.254 . S
C69 O75 1.268 . S
O70 Dy63 2.351 1_554 S
O70 C78 1.249 . S
O71 Dy60 2.326 . S
O71 C78 1.267 . S
O72 C61 1.185 . S
O72 Dy63 2.398 . S
O73 C61 1.355 . S
O73 Dy63 2.491 . S
O74 Dy63 2.403 1_554 S
O74 C69 1.254 . S
O75 Dy60 2.310 . S
O75 Dy63 2.664 1_554 S
O75 C69 1.268 . S
O76 Dy60 2.351 . S
O76 C79 1.249 . S
O77 Dy63 2.326 . S
O77 C79 1.267 1_556 S
C78 O70 1.249 . S
C78 O71 1.267 . S
C79 O76 1.249 . S
C79 O77 1.267 1_554 S
Dy80 O84 2.398 . S
Dy80 O85 2.491 . S
Dy80 O86 2.403 . S
Dy80 O87 2.664 . S
Dy80 O91 2.326 . S
Dy80 O95 2.310 . S
Dy80 O96 2.351 . S
C81 O92 1.185 . S
C81 O93 1.355 . S
C82 O84 1.185 . S
C82 O85 1.355 . S
Dy83 O87 2.310 . S
Dy83 O90 2.351 . S
Dy83 O92 2.398 . S
Dy83 O93 2.491 . S
Dy83 O94 2.403 . S
Dy83 O95 2.664 . S
Dy83 O97 2.326 . S
O84 Dy80 2.398 . S
O84 C82 1.185 . S
O85 Dy80 2.491 . S
O85 C82 1.355 . S
O86 Dy80 2.403 . S
O86 C88 1.254 . S
O87 Dy80 2.664 . S
O87 Dy83 2.310 . S
O87 C88 1.268 . S
C88 O86 1.254 . S
C88 O87 1.268 . S
C89 O94 1.254 . S
C89 O95 1.268 . S
O90 Dy83 2.351 . S
O90 C98 1.249 . S
O91 Dy80 2.326 . S
O91 C98 1.267 . S
O92 C81 1.185 . S
O92 Dy83 2.398 . S
O93 C81 1.355 . S
O93 Dy83 2.491 . S
O94 Dy83 2.403 . S
O94 C89 1.254 . S
O95 Dy80 2.310 . S
O95 Dy83 2.664 . S
O95 C89 1.268 . S
O96 Dy80 2.351 . S
O96 C99 1.249 . S
O97 Dy83 2.326 . S
O97 C99 1.267 . S
C98 O90 1.249 . S
C98 O91 1.267 . S
C99 O96 1.249 . S
C99 O97 1.267 . S
Dy100 O104 2.398 . S
Dy100 O105 2.491 . S
Dy100 O106 2.403 . S
Dy100 O107 2.664 . S
Dy100 O111 2.326 . S
Dy100 O115 2.310 . S
Dy100 O116 2.351 . S
C101 O112 1.185 . S
C101 O113 1.355 . S
C102 O104 1.185 . S
C102 O105 1.355 . S
Dy103 O107 2.310 . S
Dy103 O110 2.351 . S
Dy103 O112 2.398 . S
Dy103 O113 2.491 . S
Dy103 O114 2.403 . S
Dy103 O115 2.664 . S
Dy103 O117 2.326 . S
O104 Dy100 2.398 . S
O104 C102 1.185 . S
O105 Dy100 2.491 . S
O105 C102 1.355 . S
O106 Dy100 2.403 . S
O106 C108 1.254 . S
O107 Dy100 2.664 . S
O107 Dy103 2.310 . S
O107 C108 1.268 . S
C108 O106 1.254 . S
C108 O107 1.268 . S
C109 O114 1.254 . S
C109 O115 1.268 . S
O110 Dy103 2.351 . S
O110 C118 1.249 . S
O111 Dy100 2.326 . S
O111 C118 1.267 . S
O112 C101 1.185 . S
O112 Dy103 2.398 . S
O113 C101 1.355 . S
O113 Dy103 2.491 . S
O114 Dy103 2.403 . S
O114 C109 1.254 . S
O115 Dy100 2.310 . S
O115 Dy103 2.664 . S
O115 C109 1.268 . S
O116 Dy100 2.351 . S
O116 C119 1.249 . S
O117 Dy103 2.326 . S
O117 C119 1.267 . S
C118 O110 1.249 . S
C118 O111 1.267 . S
C119 O116 1.249 . S
C119 O117 1.267 . S
C120 C121 1.349 . S
C120 C122 1.327 . S
C120 H145 0.950 . S
C121 C120 1.349 . S
C121 C137 1.349 . S
C122 C120 1.327 . S
C122 C141 1.429 . S
C122 H146 0.950 . S
C123 C140 1.574 . S
C123 C142 1.368 1_554 S
C123 H147 0.949 . S
H124 C128 0.949 1_556 S
C125 C126 1.349 . S
C125 C127 1.327 . S
C125 H148 0.950 . S
C126 C125 1.349 . S
C126 C138 1.349 . S
C127 C125 1.327 . S
C127 C143 1.429 . S
C127 H149 0.950 . S
C128 H124 0.949 1_554 S
C128 C136 1.572 1_554 S
C128 C144 1.370 . S
H129 C137 0.950 . S
H130 C135 0.950 . S
H131 C136 0.949 . S
H132 C138 0.950 . S
H133 C139 0.950 . S
H134 C140 0.949 . S
C135 H130 0.950 . S
C135 C137 1.327 . S
C135 C141 1.429 . S
C136 C128 1.572 1_556 S
C136 H131 0.949 . S
C136 C142 1.368 . S
C137 C121 1.349 . S
C137 H129 0.950 . S
C137 C135 1.327 . S
C138 C126 1.349 . S
C138 H132 0.950 . S
C138 C139 1.327 . S
C139 H133 0.950 . S
C139 C138 1.327 . S
C139 C143 1.429 . S
C140 C123 1.574 . S
C140 H134 0.949 . S
C140 C144 1.368 . S
C141 C122 1.429 . S
C141 C135 1.429 . S
C141 C142 1.523 . S
C142 C123 1.368 1_556 S
C142 C136 1.368 . S
C142 C141 1.523 . S
C143 C127 1.429 . S
C143 C139 1.429 . S
C143 C144 1.523 . S
C144 C128 1.370 . S
C144 C140 1.368 . S
C144 C143 1.523 . S
H145 C120 0.950 . S
H146 C122 0.950 . S
H147 C123 0.949 . S
H148 C125 0.950 . S
H149 C127 0.950 . S
C150 C151 1.349 . S
C150 C152 1.327 . S
C150 H175 0.950 . S
C151 C150 1.349 . S
C151 C167 1.349 . S
C152 C150 1.327 . S
C152 C171 1.429 . S
C152 H176 0.950 . S
C153 C170 1.574 1_455 S
C153 C172 1.368 . S
C153 H177 0.949 . S
H154 C158 0.949 . S
C155 C156 1.349 . S
C155 C157 1.327 . S
C155 H178 0.950 . S
C156 C155 1.349 . S
C156 C168 1.349 . S
C157 C155 1.327 . S
C157 C173 1.429 . S
C157 H179 0.950 . S
C158 H154 0.949 . S
C158 C166 1.574 1_655 S
C158 C174 1.368 . S
H159 C167 0.950 . S
H160 C165 0.950 . S
H161 C166 0.949 . S
H162 C168 0.950 . S
H163 C169 0.950 . S
H164 C170 0.949 . S
C165 H160 0.950 . S
C165 C167 1.327 . S
C165 C171 1.429 . S
C166 C158 1.574 1_455 S
C166 H161 0.949 . S
C166 C172 1.368 . S
C167 C151 1.349 . S
C167 H159 0.950 . S
C167 C165 1.327 . S
C168 C156 1.349 . S
C168 H162 0.950 . S
C168 C169 1.327 . S
C169 H163 0.950 . S
C169 C168 1.327 . S
C169 C173 1.429 . S
C170 C153 1.574 1_655 S
C170 H164 0.949 . S
C170 C174 1.368 . S
C171 C152 1.429 . S
C171 C165 1.429 . S
C171 C172 1.523 . S
C172 C153 1.368 . S
C172 C166 1.368 . S
C172 C171 1.523 . S
C173 C157 1.429 . S
C173 C169 1.429 . S
C173 C174 1.523 . S
C174 C158 1.368 . S
C174 C170 1.368 . S
C174 C173 1.523 . S
H175 C150 0.950 . S
H176 C152 0.950 . S
H177 C153 0.949 . S
H178 C155 0.950 . S
H179 C157 0.950 . S
C180 C181 1.349 . S
C180 C182 1.327 . S
C180 H205 0.950 . S
C181 C180 1.349 . S
C181 C197 1.349 . S
C182 C180 1.327 . S
C182 C201 1.429 . S
C182 H206 0.950 . S
C183 C200 1.574 1_545 S
C183 C202 1.368 . S
C183 H207 0.949 . S
H184 C188 0.949 . S
C185 C186 1.349 . S
C185 C187 1.327 . S
C185 H208 0.950 . S
C186 C185 1.349 . S
C186 C198 1.349 . S
C187 C185 1.327 . S
C187 C203 1.429 . S
C187 H209 0.950 . S
C188 H184 0.949 . S
C188 C196 1.574 1_565 S
C188 C204 1.368 . S
H189 C197 0.950 . S
H190 C195 0.950 . S
H191 C196 0.949 . S
H192 C198 0.950 . S
H193 C199 0.950 . S
H194 C200 0.949 . S
C195 H190 0.950 . S
C195 C197 1.327 . S
C195 C201 1.429 . S
C196 C188 1.574 1_545 S
C196 H191 0.949 . S
C196 C202 1.368 . S
C197 C181 1.349 . S
C197 H189 0.950 . S
C197 C195 1.327 . S
C198 C186 1.349 . S
C198 H192 0.950 . S
C198 C199 1.327 . S
C199 H193 0.950 . S
C199 C198 1.327 . S
C199 C203 1.429 . S
C200 C183 1.574 1_565 S
C200 H194 0.949 . S
C200 C204 1.368 . S
C201 C182 1.429 . S
C201 C195 1.429 . S
C201 C202 1.523 . S
C202 C183 1.368 . S
C202 C196 1.368 . S
C202 C201 1.523 . S
C203 C187 1.429 . S
C203 C199 1.429 . S
C203 C204 1.523 . S
C204 C188 1.368 . S
C204 C200 1.368 . S
C204 C203 1.523 . S
H205 C180 0.950 . S
H206 C182 0.950 . S
H207 C183 0.949 . S
H208 C185 0.950 . S
H209 C187 0.950 . S
C210 C211 1.349 1_554 S
C210 C212 1.327 . S
C210 H235 0.950 . S
C211 C210 1.349 1_556 S
C211 C227 1.349 . S
C212 C210 1.327 . S
C212 C231 1.429 . S
C212 H236 0.950 . S
C213 C230 1.574 . S
C213 C232 1.368 1_556 S
C213 H237 0.949 . S
H214 C218 0.949 . S
C215 C216 1.349 1_556 S
C215 C217 1.327 . S
C215 H238 0.950 . S
C216 C215 1.349 1_554 S
C216 C228 1.349 . S
C217 C215 1.327 . S
C217 C233 1.429 1_556 S
C217 H239 0.950 . S
C218 H214 0.949 . S
C218 C226 1.574 . S
C218 C234 1.368 . S
H219 C227 0.950 . S
H220 C225 0.950 . S
H221 C226 0.949 . S
H222 C228 0.950 . S
H223 C229 0.950 . S
H224 C230 0.949 . S
C225 H220 0.950 . S
C225 C227 1.327 . S
C225 C231 1.429 1_556 S
C226 C218 1.574 . S
C226 H221 0.949 . S
C226 C232 1.368 . S
C227 C211 1.349 . S
C227 H219 0.950 . S
C227 C225 1.327 . S
C228 C216 1.349 . S
C228 H222 0.950 . S
C228 C229 1.327 . S
C229 H223 0.950 . S
C229 C228 1.327 . S
C229 C233 1.429 . S
C230 C213 1.574 . S
C230 H224 0.949 . S
C230 C234 1.368 1_556 S
C231 C212 1.429 . S
C231 C225 1.429 1_554 S
C231 C232 1.523 . S
C232 C213 1.368 1_554 S
C232 C226 1.368 . S
C232 C231 1.523 . S
C233 C217 1.429 1_554 S
C233 C229 1.429 . S
C233 C234 1.523 . S
C234 C218 1.368 . S
C234 C230 1.368 1_554 S
C234 C233 1.523 . S
H235 C210 0.950 . S
H236 C212 0.950 . S
H237 C213 0.949 . S
H238 C215 0.950 . S
H239 C217 0.950 . S
C240 C241 1.349 . S
C240 C242 1.327 . S
C240 H265 0.950 . S
C241 C240 1.349 . S
C241 C257 1.349 . S
C242 C240 1.327 . S
C242 C261 1.429 . S
C242 H266 0.950 . S
C243 C260 1.574 . S
C243 C262 1.368 . S
C243 H267 0.949 . S
H244 C248 0.949 . S
C245 C246 1.349 . S
C245 C247 1.327 . S
C245 H268 0.950 . S
C246 C245 1.349 . S
C246 C258 1.349 . S
C247 C245 1.327 . S
C247 C263 1.429 . S
C247 H269 0.950 . S
C248 H244 0.949 . S
C248 C256 1.574 . S
C248 C264 1.368 . S
H249 C257 0.950 . S
H250 C255 0.950 . S
H251 C256 0.949 . S
H252 C258 0.950 . S
H253 C259 0.950 . S
H254 C260 0.949 . S
C255 H250 0.950 . S
C255 C257 1.327 . S
C255 C261 1.429 . S
C256 C248 1.574 . S
C256 H251 0.949 . S
C256 C262 1.368 1_655 S
C257 C241 1.349 . S
C257 H249 0.950 . S
C257 C255 1.327 . S
C258 C246 1.349 . S
C258 H252 0.950 . S
C258 C259 1.327 . S
C259 H253 0.950 . S
C259 C258 1.327 . S
C259 C263 1.429 . S
C260 C243 1.574 . S
C260 H254 0.949 . S
C260 C264 1.368 1_455 S
C261 C242 1.429 . S
C261 C255 1.429 . S
C261 C262 1.523 . S
C262 C243 1.368 . S
C262 C256 1.368 1_455 S
C262 C261 1.523 . S
C263 C247 1.429 . S
C263 C259 1.429 . S
C263 C264 1.523 . S
C264 C248 1.368 . S
C264 C260 1.368 1_655 S
C264 C263 1.523 . S
H265 C240 0.950 . S
H266 C242 0.950 . S
H267 C243 0.949 . S
H268 C245 0.950 . S
H269 C247 0.950 . S
C270 C271 1.349 . S
C270 C272 1.327 . S
C270 H295 0.950 . S
C271 C270 1.349 . S
C271 C287 1.349 . S
C272 C270 1.327 . S
C272 C291 1.429 . S
C272 H296 0.950 . S
C273 C290 1.574 1_545 S
C273 C292 1.368 . S
C273 H297 0.949 . S
H274 C278 0.949 . S
C275 C276 1.349 . S
C275 C277 1.327 . S
C275 H298 0.950 . S
C276 C275 1.349 . S
C276 C288 1.349 . S
C277 C275 1.327 . S
C277 C293 1.429 . S
C277 H299 0.950 . S
C278 H274 0.949 . S
C278 C286 1.574 1_565 S
C278 C294 1.368 . S
H279 C287 0.950 . S
H280 C285 0.950 . S
H281 C286 0.949 . S
H282 C288 0.950 . S
H283 C289 0.950 . S
H284 C290 0.949 . S
C285 H280 0.950 . S
C285 C287 1.327 . S
C285 C291 1.429 . S
C286 C278 1.574 1_545 S
C286 H281 0.949 . S
C286 C292 1.368 . S
C287 C271 1.349 . S
C287 H279 0.950 . S
C287 C285 1.327 . S
C288 C276 1.349 . S
C288 H282 0.950 . S
C288 C289 1.327 . S
C289 H283 0.950 . S
C289 C288 1.327 . S
C289 C293 1.429 . S
C290 C273 1.574 1_565 S
C290 H284 0.949 . S
C290 C294 1.368 . S
C291 C272 1.429 . S
C291 C285 1.429 . S
C291 C292 1.523 . S
C292 C273 1.368 . S
C292 C286 1.368 . S
C292 C291 1.523 . S
C293 C277 1.429 . S
C293 C289 1.429 . S
C293 C294 1.523 . S
C294 C278 1.368 . S
C294 C290 1.368 . S
C294 C293 1.523 . S
H295 C270 0.950 . S
H296 C272 0.950 . S
H297 C273 0.949 . S
H298 C275 0.950 . S
H299 C277 0.950 . S
C300 C301 1.349 . S
C300 C302 1.327 1_554 S
C300 H325 0.950 . S
C301 C300 1.349 . S
C301 C317 1.349 . S
C302 C300 1.327 1_556 S
C302 C321 1.429 . S
C302 H326 0.950 . S
C303 C320 1.574 . S
C303 C322 1.368 . S
C303 H327 0.949 . S
H304 C308 0.949 . S
C305 C306 1.349 . S
C305 C307 1.327 . S
C305 H328 0.950 . S
C306 C305 1.349 . S
C306 C318 1.349 . S
C307 C305 1.327 . S
C307 C323 1.429 . S
C307 H329 0.950 . S
C308 H304 0.949 . S
C308 C316 1.574 . S
C308 C324 1.368 . S
H309 C317 0.950 . S
H310 C315 0.950 . S
H311 C316 0.949 . S
H312 C318 0.950 . S
H313 C319 0.950 . S
H314 C320 0.949 . S
C315 H310 0.950 . S
C315 C317 1.327 1_556 S
C315 C321 1.429 . S
C316 C308 1.574 . S
C316 H311 0.949 . S
C316 C322 1.368 . S
C317 C301 1.349 . S
C317 H309 0.950 . S
C317 C315 1.327 1_554 S
C318 C306 1.349 . S
C318 H312 0.950 . S
C318 C319 1.327 . S
C319 H313 0.950 . S
C319 C318 1.327 . S
C319 C323 1.429 . S
C320 C303 1.574 . S
C320 H314 0.949 . S
C320 C324 1.368 . S
C321 C302 1.429 . S
C321 C315 1.429 . S
C321 C322 1.523 . S
C322 C303 1.368 . S
C322 C316 1.368 . S
C322 C321 1.523 . S
C323 C307 1.429 . S
C323 C319 1.429 . S
C323 C324 1.523 . S
C324 C308 1.368 . S
C324 C320 1.368 . S
C324 C323 1.523 . S
H325 C300 0.950 . S
H326 C302 0.950 . S
H327 C303 0.949 . S
H328 C305 0.950 . S
H329 C307 0.950 . S
C330 C331 1.349 . S
C330 C332 1.327 . S
C330 H355 0.950 . S
C331 C330 1.349 . S
C331 C347 1.349 . S
C332 C330 1.327 . S
C332 C351 1.429 . S
C332 H356 0.950 . S
C333 C350 1.574 . S
C333 C352 1.368 . S
C333 H357 0.949 . S
H334 C338 0.949 . S
C335 C336 1.349 . S
C335 C337 1.327 . S
C335 H358 0.950 . S
C336 C335 1.349 . S
C336 C348 1.349 . S
C337 C335 1.327 . S
C337 C353 1.429 . S
C337 H359 0.950 . S
C338 H334 0.949 . S
C338 C346 1.574 . S
C338 C354 1.368 . S
H339 C347 0.950 . S
H340 C345 0.950 . S
H341 C346 0.949 . S
H342 C348 0.950 . S
H343 C349 0.950 . S
H344 C350 0.949 . S
C345 H340 0.950 . S
C345 C347 1.327 . S
C345 C351 1.429 . S
C346 C338 1.574 . S
C346 H341 0.949 . S
C346 C352 1.368 . S
C347 C331 1.349 . S
C347 H339 0.950 . S
C347 C345 1.327 . S
C348 C336 1.349 . S
C348 H342 0.950 . S
C348 C349 1.327 . S
C349 H343 0.950 . S
C349 C348 1.327 . S
C349 C353 1.429 . S
C350 C333 1.574 . S
C350 H344 0.949 . S
C350 C354 1.368 . S
C351 C332 1.429 . S
C351 C345 1.429 . S
C351 C352 1.523 1_554 S
C352 C333 1.368 . S
C352 C346 1.368 . S
C352 C351 1.523 1_556 S
C353 C337 1.429 . S
C353 C349 1.429 . S
C353 C354 1.523 . S
C354 C338 1.368 . S
C354 C350 1.368 . S
C354 C353 1.523 . S
H355 C330 0.950 . S
H356 C332 0.950 . S
H357 C333 0.949 . S
H358 C335 0.950 . S
H359 C337 0.950 . S
C360 C361 1.349 . S
C360 C362 1.327 . S
C360 H385 0.950 . S
C361 C360 1.349 . S
C361 C377 1.349 . S
C362 C360 1.327 . S
C362 C381 1.429 . S
C362 H386 0.950 . S
C363 C380 1.574 . S
C363 C382 1.368 . S
C363 H387 0.949 . S
H364 C368 0.949 . S
C365 C366 1.349 . S
C365 C367 1.327 . S
C365 H388 0.950 . S
C366 C365 1.349 . S
C366 C378 1.349 . S
C367 C365 1.327 . S
C367 C383 1.429 . S
C367 H389 0.950 . S
C368 H364 0.949 . S
C368 C376 1.574 . S
C368 C384 1.368 . S
H369 C377 0.950 . S
H370 C375 0.950 . S
H371 C376 0.949 . S
H372 C378 0.950 . S
H373 C379 0.950 . S
H374 C380 0.949 . S
C375 H370 0.950 . S
C375 C377 1.327 . S
C375 C381 1.429 . S
C376 C368 1.574 . S
C376 H371 0.949 . S
C376 C382 1.368 . S
C377 C361 1.349 . S
C377 H369 0.950 . S
C377 C375 1.327 . S
C378 C366 1.349 . S
C378 H372 0.950 . S
C378 C379 1.327 . S
C379 H373 0.950 . S
C379 C378 1.327 . S
C379 C383 1.429 . S
C380 C363 1.574 . S
C380 H374 0.949 . S
C380 C384 1.368 . S
C381 C362 1.429 . S
C381 C375 1.429 . S
C381 C382 1.523 . S
C382 C363 1.368 . S
C382 C376 1.368 . S
C382 C381 1.523 . S
C383 C367 1.429 . S
C383 C379 1.429 . S
C383 C384 1.523 . S
C384 C368 1.368 . S
C384 C380 1.368 . S
C384 C383 1.523 . S
H385 C360 0.950 . S
H386 C362 0.950 . S
H387 C363 0.949 . S
H388 C365 0.950 . S
H389 C367 0.950 . S
C390 C391 1.349 . S
C390 C392 1.327 . S
C390 H415 0.950 . S
C391 C390 1.349 . S
C391 C407 1.349 . S
C392 C390 1.327 . S
C392 C411 1.429 . S
C392 H416 0.950 . S
C393 C410 1.574 . S
C393 C412 1.368 . S
C393 H417 0.949 . S
H394 C398 0.949 . S
C395 C396 1.349 . S
C395 C397 1.327 . S
C395 H418 0.950 . S
C396 C395 1.349 . S
C396 C408 1.349 . S
C397 C395 1.327 . S
C397 C413 1.429 . S
C397 H419 0.950 . S
C398 H394 0.949 . S
C398 C406 1.574 . S
C398 C414 1.368 . S
H399 C407 0.950 . S
H400 C405 0.950 . S
H401 C406 0.949 . S
H402 C408 0.950 . S
H403 C409 0.950 . S
H404 C410 0.949 . S
C405 H400 0.950 . S
C405 C407 1.327 . S
C405 C411 1.429 . S
C406 C398 1.574 . S
C406 H401 0.949 . S
C406 C412 1.368 . S
C407 C391 1.349 . S
C407 H399 0.950 . S
C407 C405 1.327 . S
C408 C396 1.349 . S
C408 H402 0.950 . S
C408 C409 1.327 . S
C409 H403 0.950 . S
C409 C408 1.327 . S
C409 C413 1.429 . S
C410 C393 1.574 . S
C410 H404 0.949 . S
C410 C414 1.368 . S
C411 C392 1.429 . S
C411 C405 1.429 . S
C411 C412 1.523 . S
C412 C393 1.368 . S
C412 C406 1.368 . S
C412 C411 1.523 . S
C413 C397 1.429 . S
C413 C409 1.429 . S
C413 C414 1.523 . S
C414 C398 1.368 . S
C414 C410 1.368 . S
C414 C413 1.523 . S
H415 C390 0.950 . S
H416 C392 0.950 . S
H417 C393 0.949 . S
H418 C395 0.950 . S
H419 C397 0.950 . S
C420 C421 1.349 . S
C420 C422 1.327 . S
C420 H445 0.950 . S
C421 C420 1.349 . S
C421 C437 1.349 . S
C422 C420 1.327 . S
C422 C441 1.427 1_556 S
C422 H446 0.950 . S
C423 C440 1.574 . S
C423 C442 1.368 . S
C423 H447 0.949 . S
H424 C428 0.949 . S
C425 C426 1.349 . S
C425 C427 1.327 . S
C425 H448 0.950 . S
C426 C425 1.349 . S
C426 C438 1.349 . S
C427 C425 1.327 . S
C427 C443 1.429 . S
C427 H449 0.950 . S
C428 H424 0.949 . S
C428 C436 1.574 . S
C428 C444 1.368 . S
H429 C437 0.950 . S
H430 C435 0.950 . S
H431 C436 0.949 . S
H432 C438 0.950 . S
H433 C439 0.950 . S
H434 C440 0.949 . S
C435 H430 0.950 . S
C435 C437 1.327 . S
C435 C441 1.427 1_556 S
C436 C428 1.574 . S
C436 H431 0.949 . S
C436 C442 1.368 . S
C437 C421 1.349 . S
C437 H429 0.950 . S
C437 C435 1.327 . S
C438 C426 1.349 . S
C438 H432 0.950 . S
C438 C439 1.327 . S
C439 H433 0.950 . S
C439 C438 1.327 . S
C439 C443 1.429 . S
C440 C423 1.574 . S
C440 H434 0.949 . S
C440 C444 1.368 . S
C441 C422 1.427 1_554 S
C441 C435 1.427 1_554 S
C441 C442 1.526 . S
C442 C423 1.368 . S
C442 C436 1.368 . S
C442 C441 1.526 . S
C443 C427 1.429 . S
C443 C439 1.429 . S
C443 C444 1.523 . S
C444 C428 1.368 . S
C444 C440 1.368 . S
C444 C443 1.523 . S
H445 C420 0.950 . S
H446 C422 0.950 . S
H447 C423 0.949 . S
H448 C425 0.950 . S
H449 C427 0.950 . S
C450 C451 1.349 . S
C450 C452 1.327 . S
C450 H475 0.950 . S
C451 C450 1.349 . S
C451 C467 1.349 . S
C452 C450 1.327 . S
C452 C471 1.429 . S
C452 H476 0.950 . S
C453 C470 1.574 . S
C453 C472 1.368 . S
C453 H477 0.949 . S
H454 C458 0.949 . S
C455 C456 1.349 1_554 S
C455 C457 1.327 . S
C455 H478 0.950 . S
C456 C455 1.349 1_556 S
C456 C468 1.349 1_556 S
C457 C455 1.327 . S
C457 C473 1.429 . S
C457 H479 0.950 . S
C458 H454 0.949 . S
C458 C466 1.574 . S
C458 C474 1.368 . S
H459 C467 0.950 . S
H460 C465 0.950 . S
H461 C466 0.949 . S
H462 C468 0.950 1_556 S
H463 C469 0.950 . S
H464 C470 0.949 . S
C465 H460 0.950 . S
C465 C467 1.327 . S
C465 C471 1.429 . S
C466 C458 1.574 . S
C466 H461 0.949 . S
C466 C472 1.368 . S
C467 C451 1.349 . S
C467 H459 0.950 . S
C467 C465 1.327 . S
C468 C456 1.349 1_554 S
C468 H462 0.950 1_554 S
C468 C469 1.327 . S
C469 H463 0.950 . S
C469 C468 1.327 . S
C469 C473 1.429 . S
C470 C453 1.574 . S
C470 H464 0.949 . S
C470 C474 1.368 . S
C471 C452 1.429 . S
C471 C465 1.429 . S
C471 C472 1.523 . S
C472 C453 1.368 . S
C472 C466 1.368 . S
C472 C471 1.523 . S
C473 C457 1.429 . S
C473 C469 1.429 . S
C473 C474 1.523 . S
C474 C458 1.368 . S
C474 C470 1.368 . S
C474 C473 1.523 . S
H475 C450 0.950 . S
H476 C452 0.950 . S
H477 C453 0.949 . S
H478 C455 0.950 . S
H479 C457 0.950 . S
C480 C481 1.349 . S
C480 C482 1.327 . S
C480 H505 0.950 . S
C481 C480 1.349 . S
C481 C497 1.349 . S
C482 C480 1.327 . S
C482 C501 1.429 . S
C482 H506 0.950 . S
C483 C500 1.574 . S
C483 C502 1.368 . S
C483 H507 0.949 . S
H484 C488 0.949 . S
C485 C486 1.349 . S
C485 C487 1.327 . S
C485 H508 0.950 . S
C486 C485 1.349 . S
C486 C498 1.349 . S
C487 C485 1.327 . S
C487 C503 1.429 . S
C487 H509 0.950 . S
C488 H484 0.949 . S
C488 C496 1.574 . S
C488 C504 1.368 . S
H489 C497 0.950 . S
H490 C495 0.950 . S
H491 C496 0.949 . S
H492 C498 0.950 . S
H493 C499 0.950 . S
H494 C500 0.949 . S
C495 H490 0.950 . S
C495 C497 1.327 . S
C495 C501 1.429 . S
C496 C488 1.574 . S
C496 H491 0.949 . S
C496 C502 1.368 . S
C497 C481 1.349 . S
C497 H489 0.950 . S
C497 C495 1.327 . S
C498 C486 1.349 . S
C498 H492 0.950 . S
C498 C499 1.327 . S
C499 H493 0.950 . S
C499 C498 1.327 . S
C499 C503 1.429 . S
C500 C483 1.574 . S
C500 H494 0.949 . S
C500 C504 1.368 . S
C501 C482 1.429 . S
C501 C495 1.429 . S
C501 C502 1.523 . S
C502 C483 1.368 . S
C502 C496 1.368 . S
C502 C501 1.523 . S
C503 C487 1.429 . S
C503 C499 1.429 . S
C503 C504 1.523 . S
C504 C488 1.368 . S
C504 C500 1.368 . S
C504 C503 1.523 . S
H505 C480 0.950 . S
H506 C482 0.950 . S
H507 C483 0.949 . S
H508 C485 0.950 . S
H509 C487 0.950 . S
C510 C511 1.349 . S
C510 C512 1.327 . S
C510 H535 0.950 . S
C511 C510 1.349 . S
C511 C527 1.349 . S
C512 C510 1.327 . S
C512 C531 1.429 . S
C512 H536 0.950 . S
C513 C530 1.574 . S
C513 C532 1.368 . S
C513 H537 0.949 . S
H514 C518 0.949 . S
C515 C516 1.349 . S
C515 C517 1.327 . S
C515 H538 0.950 . S
C516 C515 1.349 . S
C516 C528 1.349 . S
C517 C515 1.327 . S
C517 C533 1.429 . S
C517 H539 0.950 . S
C518 H514 0.949 . S
C518 C526 1.574 . S
C518 C534 1.368 . S
H519 C527 0.950 . S
H520 C525 0.950 . S
H521 C526 0.949 . S
H522 C528 0.950 . S
H523 C529 0.950 . S
H524 C530 0.949 . S
C525 H520 0.950 . S
C525 C527 1.327 . S
C525 C531 1.429 . S
C526 C518 1.574 . S
C526 H521 0.949 . S
C526 C532 1.368 . S
C527 C511 1.349 . S
C527 H519 0.950 . S
C527 C525 1.327 . S
C528 C516 1.349 . S
C528 H522 0.950 . S
C528 C529 1.327 . S
C529 H523 0.950 . S
C529 C528 1.327 . S
C529 C533 1.429 . S
C530 C513 1.574 . S
C530 H524 0.949 . S
C530 C534 1.368 . S
C531 C512 1.429 . S
C531 C525 1.429 . S
C531 C532 1.523 . S
C532 C513 1.368 . S
C532 C526 1.368 . S
C532 C531 1.523 . S
C533 C517 1.429 . S
C533 C529 1.429 . S
C533 C534 1.523 . S
C534 C518 1.368 . S
C534 C530 1.368 . S
C534 C533 1.523 . S
H535 C510 0.950 . S
H536 C512 0.950 . S
H537 C513 0.949 . S
H538 C515 0.950 . S
H539 C517 0.950 . S
C540 C541 1.349 . S
C540 C542 1.327 . S
C540 H565 0.950 . S
C541 C540 1.349 . S
C541 C557 1.349 . S
C542 C540 1.327 . S
C542 C561 1.429 . S
C542 H566 0.950 . S
C543 C560 1.574 . S
C543 C562 1.368 . S
C543 H567 0.949 . S
H544 C548 0.949 . S
C545 C546 1.349 . S
C545 C547 1.327 . S
C545 H568 0.950 1_554 S
C546 C545 1.349 . S
C546 C558 1.349 . S
C547 C545 1.327 . S
C547 C563 1.429 . S
C547 H569 0.950 . S
C548 H544 0.949 . S
C548 C556 1.574 . S
C548 C564 1.368 . S
H549 C557 0.950 . S
H550 C555 0.950 . S
H551 C556 0.949 . S
H552 C558 0.950 . S
H553 C559 0.950 . S
H554 C560 0.949 . S
C555 H550 0.950 . S
C555 C557 1.327 . S
C555 C561 1.429 . S
C556 C548 1.574 . S
C556 H551 0.949 . S
C556 C562 1.368 . S
C557 C541 1.349 . S
C557 H549 0.950 . S
C557 C555 1.327 . S
C558 C546 1.349 . S
C558 H552 0.950 . S
C558 C559 1.327 . S
C559 H553 0.950 . S
C559 C558 1.327 . S
C559 C563 1.429 . S
C560 C543 1.574 . S
C560 H554 0.949 . S
C560 C564 1.368 . S
C561 C542 1.429 . S
C561 C555 1.429 . S
C561 C562 1.523 . S
C562 C543 1.368 . S
C562 C556 1.368 . S
C562 C561 1.523 . S
C563 C547 1.429 . S
C563 C559 1.429 . S
C563 C564 1.523 . S
C564 C548 1.368 . S
C564 C560 1.368 . S
C564 C563 1.523 . S
H565 C540 0.950 . S
H566 C542 0.950 . S
H567 C543 0.949 . S
H568 C545 0.950 1_556 S
H569 C547 0.950 . S
C570 C571 1.349 . S
C570 C572 1.327 . S
C570 H595 0.950 . S
C571 C570 1.349 . S
C571 C587 1.349 . S
C572 C570 1.327 . S
C572 C591 1.429 . S
C572 H596 0.950 . S
C573 C590 1.574 . S
C573 C592 1.368 . S
C573 H597 0.949 . S
H574 C578 0.949 . S
C575 C576 1.349 . S
C575 C577 1.327 . S
C575 H598 0.950 . S
C576 C575 1.349 . S
C576 C588 1.349 . S
C577 C575 1.327 . S
C577 C593 1.429 . S
C577 H599 0.950 . S
C578 H574 0.949 . S
C578 C586 1.574 . S
C578 C594 1.368 . S
H579 C587 0.950 . S
H580 C585 0.950 . S
H581 C586 0.949 . S
H582 C588 0.950 . S
H583 C589 0.950 . S
H584 C590 0.949 . S
C585 H580 0.950 . S
C585 C587 1.327 . S
C585 C591 1.429 . S
C586 C578 1.574 . S
C586 H581 0.949 . S
C586 C592 1.368 . S
C587 C571 1.349 . S
C587 H579 0.950 . S
C587 C585 1.327 . S
C588 C576 1.349 . S
C588 H582 0.950 . S
C588 C589 1.327 . S
C589 H583 0.950 . S
C589 C588 1.327 . S
C589 C593 1.429 . S
C590 C573 1.574 . S
C590 H584 0.949 . S
C590 C594 1.368 . S
C591 C572 1.429 . S
C591 C585 1.429 . S
C591 C592 1.523 . S
C592 C573 1.368 . S
C592 C586 1.368 . S
C592 C591 1.523 . S
C593 C577 1.429 . S
C593 C589 1.429 . S
C593 C594 1.523 . S
C594 C578 1.368 . S
C594 C590 1.368 . S
C594 C593 1.523 . S
H595 C570 0.950 . S
H596 C572 0.950 . S
H597 C573 0.949 . S
H598 C575 0.950 . S
H599 C577 0.950 . S
C600 C601 1.349 . S
C600 C602 1.327 . S
C600 H625 0.950 . S
C601 C600 1.349 . S
C601 C617 1.349 . S
C602 C600 1.327 . S
C602 C621 1.429 . S
C602 H626 0.950 . S
C603 C620 1.574 . S
C603 C622 1.368 . S
C603 H627 0.949 . S
H604 C608 0.949 . S
C605 C606 1.349 . S
C605 C607 1.327 . S
C605 H628 0.950 . S
C606 C605 1.349 . S
C606 C618 1.349 . S
C607 C605 1.327 . S
C607 C623 1.429 . S
C607 H629 0.950 . S
C608 H604 0.949 . S
C608 C616 1.574 . S
C608 C624 1.368 . S
H609 C617 0.950 . S
H610 C615 0.950 . S
H611 C616 0.949 . S
H612 C618 0.950 . S
H613 C619 0.950 . S
H614 C620 0.949 . S
C615 H610 0.950 . S
C615 C617 1.327 . S
C615 C621 1.429 . S
C616 C608 1.574 . S
C616 H611 0.949 . S
C616 C622 1.368 . S
C617 C601 1.349 . S
C617 H609 0.950 . S
C617 C615 1.327 . S
C618 C606 1.349 . S
C618 H612 0.950 . S
C618 C619 1.327 . S
C619 H613 0.950 . S
C619 C618 1.327 . S
C619 C623 1.429 . S
C620 C603 1.574 . S
C620 H614 0.949 . S
C620 C624 1.368 . S
C621 C602 1.429 . S
C621 C615 1.429 . S
C621 C622 1.523 . S
C622 C603 1.368 . S
C622 C616 1.368 . S
C622 C621 1.523 . S
C623 C607 1.429 . S
C623 C619 1.429 . S
C623 C624 1.523 . S
C624 C608 1.368 . S
C624 C620 1.368 . S
C624 C623 1.523 . S
H625 C600 0.950 . S
H626 C602 0.950 . S
H627 C603 0.949 . S
H628 C605 0.950 . S
H629 C607 0.950 . S
C630 C631 1.349 . S
C630 C632 1.327 . S
C630 H655 0.950 . S
C631 C630 1.349 . S
C631 C647 1.349 1_556 S
C632 C630 1.327 . S
C632 C651 1.429 . S
C632 H656 0.950 . S
C633 C650 1.574 . S
C633 C652 1.368 . S
C633 H657 0.949 . S
H634 C638 0.949 . S
C635 C636 1.349 . S
C635 C637 1.327 . S
C635 H658 0.950 . S
C636 C635 1.349 . S
C636 C648 1.349 . S
C637 C635 1.327 . S
C637 C653 1.429 . S
C637 H659 0.950 . S
C638 H634 0.949 . S
C638 C646 1.574 . S
C638 C654 1.368 . S
H639 C647 0.950 . S
H640 C645 0.950 1_554 S
H641 C646 0.949 . S
H642 C648 0.950 . S
H643 C649 0.950 . S
H644 C650 0.949 . S
C645 H640 0.950 1_556 S
C645 C647 1.327 1_556 S
C645 C651 1.429 . S
C646 C638 1.574 . S
C646 H641 0.949 . S
C646 C652 1.368 . S
C647 C631 1.349 1_554 S
C647 H639 0.950 . S
C647 C645 1.327 1_554 S
C648 C636 1.349 . S
C648 H642 0.950 . S
C648 C649 1.327 . S
C649 H643 0.950 . S
C649 C648 1.327 . S
C649 C653 1.429 . S
C650 C633 1.574 . S
C650 H644 0.949 . S
C650 C654 1.368 . S
C651 C632 1.429 . S
C651 C645 1.429 . S
C651 C652 1.523 . S
C652 C633 1.368 . S
C652 C646 1.368 . S
C652 C651 1.523 . S
C653 C637 1.429 . S
C653 C649 1.429 . S
C653 C654 1.523 . S
C654 C638 1.368 . S
C654 C650 1.368 . S
C654 C653 1.523 . S
H655 C630 0.950 . S
H656 C632 0.950 . S
H657 C633 0.949 . S
H658 C635 0.950 . S
H659 C637 0.950 . S
C121 C118 1.518 . S
C126 C18 1.518 . S
C151 C8 1.447 . S
C156 C28 1.447 . S
C181 C38 1.518 . S
C186 C58 1.518 . S
C211 C48 1.446 . S
C216 C68 1.446 . S
C241 C98 1.518 . S
C246 C78 1.518 . S
C271 C108 1.447 . S
C276 C88 1.447 . S
C301 C2 1.162 . S
C306 C1 1.162 . S
C331 C21 1.162 . S
C336 C22 1.162 . S
C361 C42 1.162 . S
C366 C41 1.162 . S
C391 C61 1.162 . S
C396 C62 1.162 . S
C421 C81 1.162 . S
C426 C82 1.162 . S
C451 C101 1.162 . S
C456 C102 1.162 . S
C481 C19 1.576 . S
C486 C89 1.601 . S
C511 C29 1.601 . S
C516 C119 1.576 . S
C541 C9 1.601 . S
C546 C59 1.576 . S
C571 C39 1.576 . S
C576 C69 1.601 . S
C601 C99 1.576 . S
C606 C49 1.601 . S
C631 C79 1.576 1_556 S
C636 C109 1.601 . S
