# Generated by pormake.
# Topology fee, (5)-cn, num edge types: 1
# Building blocks:
#     Node 0, Type 0, BuildingBlock: XOMCOT_clean_sbu_1, # of connection points: 5
#     Node 1, Type 0, BuildingBlock: XOMCOT_clean_sbu_1, # of connection points: 5
#     Node 2, Type 0, BuildingBlock: XOMCOT_clean_sbu_1, # of connection points: 5
#     Node 3, Type 0, BuildingBlock: XOMCOT_clean_sbu_1, # of connection points: 5
#     Edge 4, Type (0, 0), BuildingBlock: UVAHIK_clean_linker_0, # of connection points: 2
#     Edge 5, Type (0, 0), BuildingBlock: UVAHIK_clean_linker_0, # of connection points: 2
#     Edge 6, Type (0, 0), BuildingBlock: UVAHIK_clean_linker_0, # of connection points: 2
#     Edge 7, Type (0, 0), BuildingBlock: UVAHIK_clean_linker_0, # of connection points: 2
#     Edge 8, Type (0, 0), BuildingBlock: UVAHIK_clean_linker_0, # of connection points: 2
#     Edge 9, Type (0, 0), BuildingBlock: UVAHIK_clean_linker_0, # of connection points: 2
#     Edge 10, Type (0, 0), BuildingBlock: UVAHIK_clean_linker_0, # of connection points: 2
#     Edge 11, Type (0, 0), BuildingBlock: UVAHIK_clean_linker_0, # of connection points: 2
#     Edge 12, Type (0, 0), BuildingBlock: UVAHIK_clean_linker_0, # of connection points: 2
#     Edge 13, Type (0, 0), BuildingBlock: UVAHIK_clean_linker_0, # of connection points: 2
# Relax obj value: 0.109
# Max RMSD: 0.128
# Mean RMSD: 0.118
data_MOF--net-fee--node1-XOMCOT_clean_sbu_1--edge1-UVAHIK_clean_linker_0
_symmetry_space_group_name_H-M    P1
_symmetry_Int_Tables_number       1
_symmetry_cell_setting            triclinic
loop_
_symmetry_equiv_pos_as_xyz
'x, y, z'
_cell_length_a     49.002778
_cell_length_b     48.802569
_cell_length_c     22.004761
_cell_angle_alpha  96.222123
_cell_angle_beta   96.3691
_cell_angle_gamma 89.947353
loop_
_atom_site_label
_atom_site_type_symbol
_atom_site_fract_x
_atom_site_fract_y
_atom_site_fract_z
_atom_type_partial_charge
C0 C 0.16133 0.49046 0.99746 0.0
C1 C 0.15559 0.49063 0.93495 0.0
N2 N 0.16767 0.51306 0.91829 0.0
N3 N 0.17701 0.51263 0.02047 0.0
C4 C 0.18036 0.52617 0.97128 0.0
H5 H 0.15521 0.47471 0.02437 0.0
Co6 Co 0.19106 0.51957 0.1032 0.0
C7 C 0.24297 0.54869 0.07575 0.0
O8 O 0.25892 0.52722 0.0794 0.0
N9 N 0.20461 0.52672 0.18713 0.0
C10 C 0.23246 0.53387 0.27439 0.0
C11 C 0.23111 0.52954 0.21154 0.0
C12 C 0.19024 0.52909 0.2366 0.0
N13 N 0.20675 0.53362 0.29034 0.0
O14 O 0.16501 0.54847 0.11288 0.0
H15 H 0.24862 0.5275 0.18601 0.0
H16 H 0.16812 0.52733 0.23334 0.0
O17 O 0.21759 0.5471 0.08403 0.0
C18 C 0.14129 0.5388 0.1173 0.0
O19 O 0.13832 0.51212 0.11839 0.0
N20 N 0.21462 0.48889 0.09316 0.0
C21 C 0.24224 0.43857 0.07838 0.0
C22 C 0.24238 0.45761 0.03482 0.0
C23 C 0.22768 0.48208 0.04195 0.0
C24 C 0.21317 0.47011 0.13439 0.0
C25 C 0.22687 0.44505 0.12815 0.0
H26 H 0.22706 0.49572 1.00628 0.0
H27 H 0.20056 0.4741 0.1716 0.0
H28 H 0.19227 0.545 0.97414 0.0
H29 H 0.14437 0.47476 0.90395 0.0
H30 H 0.25109 0.53595 0.30601 0.0
H31 H 0.2537 0.45384 0.99529 0.0
H32 H 0.22472 0.43066 0.16147 0.0
C33 C 0.5023 0.1517 0.99668 0.0
C34 C 0.50207 0.14537 0.93412 0.0
N35 N 0.48048 0.15792 0.90596 0.0
N36 N 0.48094 0.16815 1.00806 0.0
C37 C 0.46776 0.17125 0.95185 0.0
H38 H 0.51763 0.14554 0.03168 0.0
Co39 Co 0.47448 0.18347 0.08678 0.0
C40 C 0.43904 0.22945 0.03616 0.0
O41 O 0.459 0.24753 0.03921 0.0
N42 N 0.46753 0.19816 0.16685 0.0
C43 C 0.45655 0.22628 0.2467 0.0
C44 C 0.45924 0.22383 0.18494 0.0
C45 C 0.47005 0.18553 0.21907 0.0
N46 N 0.46342 0.20215 0.26862 0.0
O47 O 0.44902 0.15401 0.08941 0.0
H48 H 0.45581 0.24016 0.15579 0.0
H49 H 0.47724 0.16472 0.22092 0.0
O50 O 0.44361 0.20546 0.05327 0.0
C51 C 0.46058 0.13283 0.1092 0.0
O52 O 0.48722 0.13367 0.12547 0.0
N53 N 0.50201 0.21112 0.08527 0.0
C54 C 0.54522 0.2492 0.08948 0.0
C55 C 0.52796 0.24202 0.03487 0.0
C56 C 0.50706 0.22246 0.03332 0.0
C57 C 0.52009 0.21622 0.13725 0.0
C58 C 0.54143 0.23547 0.14072 0.0
H59 H 0.49422 0.21749 0.99053 0.0
H60 H 0.51837 0.20515 0.17657 0.0
H61 H 0.44982 0.18388 0.94442 0.0
H62 H 0.51743 0.13364 0.91109 0.0
H63 H 0.44997 0.24463 0.27294 0.0
H64 H 0.53012 0.25179 0.99375 0.0
H65 H 0.55506 0.23923 0.18304 0.0
C66 C 0.84737 0.50478 0.20801 0.0
C67 C 0.8517 0.5026 0.27007 0.0
N68 N 0.83514 0.5205 0.29903 0.0
N69 N 0.82835 0.52413 0.19751 0.0
C70 C 0.82123 0.53332 0.25373 0.0
H71 H 0.85718 0.49268 0.17266 0.0
Co72 Co 0.81503 0.53311 0.1198 0.0
C73 C 0.79658 0.58993 0.14906 0.0
O74 O 0.81509 0.59873 0.11667 0.0
N75 N 0.80144 0.54172 0.04101 0.0
C76 C 0.77332 0.55446 0.9628 0.0
C77 C 0.7762 0.55149 0.02455 0.0
C78 C 0.81327 0.53834 0.98806 0.0
N79 N 0.79667 0.54613 0.93988 0.0
O80 O 0.84704 0.55564 0.11976 0.0
H81 H 0.76059 0.55574 0.05528 0.0
H82 H 0.8336 0.53024 0.98448 0.0
O83 O 0.79506 0.56429 0.15549 0.0
C84 C 0.86713 0.54337 0.09711 0.0
O85 O 0.86429 0.51723 0.0755 0.0
N86 N 0.78525 0.50931 0.11898 0.0
C87 C 0.74503 0.46839 0.11319 0.0
C88 C 0.74376 0.49307 0.15207 0.0
C89 C 0.76425 0.5132 0.15474 0.0
C90 C 0.78691 0.48556 0.0811 0.0
C91 C 0.76704 0.46483 0.0774 0.0
H92 H 0.76339 0.53155 0.18639 0.0
H93 H 0.80408 0.48258 0.05422 0.0
H94 H 0.80553 0.5485 0.26103 0.0
H95 H 0.86599 0.48877 0.29181 0.0
H96 H 0.75516 0.56143 0.93647 0.0
H97 H 0.72714 0.49685 0.18035 0.0
H98 H 0.76932 0.44594 0.0478 0.0
C99 C 0.50723 0.83682 0.23215 0.0
C100 C 0.5091 0.84177 0.29509 0.0
N101 N 0.48661 0.83105 0.31402 0.0
N102 N 0.4838 0.82273 0.21126 0.0
C103 C 0.47134 0.81991 0.26226 0.0
H104 H 0.52262 0.84192 0.20346 0.0
Co105 Co 0.47578 0.80859 0.12859 0.0
C106 C 0.44583 0.75768 0.15725 0.0
O107 O 0.46704 0.7415 0.15281 0.0
N108 N 0.46765 0.79526 0.04466 0.0
C109 C 0.46185 0.76784 0.9564 0.0
C110 C 0.46395 0.76884 0.01934 0.0
C111 C 0.46731 0.80997 0.99574 0.0
N112 N 0.46391 0.79371 0.94167 0.0
O113 O 0.44809 0.83603 0.11941 0.0
H114 H 0.46443 0.75108 0.04441 0.0
H115 H 0.47109 0.83196 0.9996 0.0
O116 O 0.44753 0.78316 0.14892 0.0
C117 C 0.45853 0.85954 0.1153 0.0
O118 O 0.48521 0.86166 0.11459 0.0
N119 N 0.50548 0.78332 0.13807 0.0
C120 C 0.55372 0.75266 0.15234 0.0
C121 C 0.53631 0.75584 0.1989 0.0
C122 C 0.51256 0.77152 0.19126 0.0
C123 C 0.52312 0.78159 0.09387 0.0
C124 C 0.54692 0.76586 0.09937 0.0
H125 H 0.49966 0.77378 0.22815 0.0
H126 H 0.51928 0.79299 0.05445 0.0
H127 H 0.45247 0.80839 0.26199 0.0
H128 H 0.52614 0.85168 0.32494 0.0
H129 H 0.45988 0.74945 0.92389 0.0
H130 H 0.54092 0.74618 0.24087 0.0
H131 H 0.56034 0.76479 0.06327 0.0
C132 C 0.14881 0.50941 0.80841 0.0
C133 C 0.16887 0.51972 0.85617 0.0
C134 C 0.15114 0.51376 0.7474 0.0
C135 C 0.20342 0.52928 0.64679 0.0
H136 H 0.14025 0.5405 0.52979 0.0
C137 C 0.21644 0.55084 0.40033 0.0
C138 C 0.19932 0.53606 0.35239 0.0
C139 C 0.21108 0.55111 0.46137 0.0
C140 C 0.15805 0.53718 0.56184 0.0
H141 H 0.20676 0.54354 0.87675 0.0
H142 H 0.21044 0.55175 0.77082 0.0
H143 H 0.13405 0.53754 0.63763 0.0
H144 H 0.16244 0.51082 0.33106 0.0
H145 H 0.15298 0.51129 0.4381 0.0
H146 H 0.22741 0.52878 0.57125 0.0
C147 C 0.19313 0.53979 0.78044 0.0
C148 C 0.15453 0.53547 0.62367 0.0
C149 C 0.19083 0.53538 0.84148 0.0
C150 C 0.17594 0.52252 0.36683 0.0
C151 C 0.17055 0.52278 0.42818 0.0
C152 C 0.20694 0.53108 0.5852 0.0
C153 C 0.17357 0.52864 0.73244 0.0
C154 C 0.17719 0.53145 0.66695 0.0
C155 C 0.18842 0.53661 0.47627 0.0
C156 C 0.18433 0.53504 0.5419 0.0
H157 H 0.13139 0.49764 0.81796 0.0
H158 H 0.13577 0.5047 0.71175 0.0
H159 H 0.22128 0.52555 0.67834 0.0
H160 H 0.23425 0.56204 0.39073 0.0
H161 H 0.22489 0.56252 0.49708 0.0
C162 C 0.46487 0.18442 0.8191 0.0
C163 C 0.47488 0.15988 0.8408 0.0
C164 C 0.46179 0.18718 0.75607 0.0
C165 C 0.48565 0.15662 0.60866 0.0
H166 H 0.42863 0.20245 0.53764 0.0
C167 C 0.46685 0.16854 0.34682 0.0
C168 C 0.46382 0.19582 0.3317 0.0
C169 C 0.46714 0.16264 0.40785 0.0
C170 C 0.44473 0.18966 0.55689 0.0
H171 H 0.48845 0.11864 0.81331 0.0
H172 H 0.48228 0.12301 0.7032 0.0
H173 H 0.43005 0.19442 0.64534 0.0
H174 H 0.4591 0.23822 0.37108 0.0
H175 H 0.45898 0.22773 0.47601 0.0
H176 H 0.50002 0.15168 0.51954 0.0
C177 C 0.47758 0.1405 0.73481 0.0
C178 C 0.44565 0.18513 0.61879 0.0
C179 C 0.48097 0.13789 0.79792 0.0
C180 C 0.46103 0.2169 0.37971 0.0
C181 C 0.46097 0.21093 0.44038 0.0
C182 C 0.48451 0.16089 0.54651 0.0
C183 C 0.46833 0.16535 0.71295 0.0
C184 C 0.46635 0.16885 0.64589 0.0
C185 C 0.46404 0.18377 0.45522 0.0
C186 C 0.46426 0.17776 0.52016 0.0
H187 H 0.46044 0.2019 0.85102 0.0
H188 H 0.4551 0.20682 0.74145 0.0
H189 H 0.50219 0.14434 0.62781 0.0
H190 H 0.46876 0.15157 0.31174 0.0
H191 H 0.46936 0.14145 0.41786 0.0
C192 C 0.81908 0.52449 0.85158 0.0
C193 C 0.80215 0.54498 0.87663 0.0
C194 C 0.82343 0.52278 0.78951 0.0
C195 C 0.79346 0.54508 0.64029 0.0
H196 H 0.86399 0.5229 0.58824 0.0
C197 C 0.81934 0.54779 0.39042 0.0
C198 C 0.83218 0.52426 0.36415 0.0
C199 C 0.81616 0.55113 0.4532 0.0
C200 C 0.84413 0.52896 0.60209 0.0
H201 H 0.77731 0.58034 0.85682 0.0
H202 H 0.78529 0.5778 0.74906 0.0
H203 H 0.85792 0.52755 0.6974 0.0
H204 H 0.8515 0.48569 0.38461 0.0
H205 H 0.84639 0.49187 0.49366 0.0
H206 H 0.77984 0.54677 0.54484 0.0
C207 C 0.79462 0.56251 0.77672 0.0
C208 C 0.8406 0.53154 0.66465 0.0
C209 C 0.79009 0.56404 0.83858 0.0
C210 C 0.84192 0.50432 0.40274 0.0
C211 C 0.83897 0.5078 0.46554 0.0
C212 C 0.79708 0.54273 0.57781 0.0
C213 C 0.81114 0.5417 0.75114 0.0
C214 C 0.81516 0.5395 0.6846 0.0
C215 C 0.82597 0.53118 0.49143 0.0
C216 C 0.8224 0.53449 0.55799 0.0
H217 H 0.82837 0.5093 0.87953 0.0
H218 H 0.83593 0.50621 0.77134 0.0
H219 H 0.77343 0.55075 0.65367 0.0
H220 H 0.81191 0.56385 0.36283 0.0
H221 H 0.80631 0.56953 0.47202 0.0
C222 C 0.44938 0.82251 0.85829 0.0
C223 C 0.46573 0.80142 0.88101 0.0
C224 C 0.44996 0.82848 0.79744 0.0
C225 C 0.49278 0.82919 0.67632 0.0
H226 H 0.43007 0.81029 0.55537 0.0
C227 C 0.50439 0.82181 0.41871 0.0
C228 C 0.48235 0.82858 0.37691 0.0
C229 C 0.50094 0.82025 0.48035 0.0
C230 C 0.44763 0.81626 0.58848 0.0
H231 H 0.49605 0.77071 0.8595 0.0
H232 H 0.49798 0.78191 0.7541 0.0
H233 H 0.42663 0.8062 0.66412 0.0
H234 H 0.43931 0.83881 0.36636 0.0
H235 H 0.43326 0.83729 0.47511 0.0
H236 H 0.51378 0.83994 0.60227 0.0
C237 C 0.48433 0.79338 0.78272 0.0
C238 C 0.44562 0.81379 0.65075 0.0
C239 C 0.4832 0.78696 0.84273 0.0
C240 C 0.45657 0.83346 0.39784 0.0
C241 C 0.45318 0.83247 0.46011 0.0
C242 C 0.49465 0.83222 0.61448 0.0
C243 C 0.4675 0.81393 0.75931 0.0
C244 C 0.46837 0.81971 0.69488 0.0
C245 C 0.47543 0.82603 0.50247 0.0
C246 C 0.47236 0.82511 0.56924 0.0
H247 H 0.43568 0.83377 0.88709 0.0
H248 H 0.43686 0.84446 0.78022 0.0
H249 H 0.51054 0.83401 0.70973 0.0
H250 H 0.52435 0.81742 0.40341 0.0
H251 H 0.51839 0.81425 0.51047 0.0
C252 C 0.91048 0.54804 0.0504 0.0
C253 C 0.89361 0.5575 0.09558 0.0
C254 C 0.93692 0.55876 0.05192 0.0
C255 C 0.99345 0.58496 0.16087 0.0
H256 H 0.02706 0.59329 1.01238 0.0
C257 C 0.11057 0.57606 0.15661 0.0
C258 C 0.11654 0.55559 0.11029 0.0
C259 C 0.08427 0.58756 0.15487 0.0
C260 C 0.018 0.59134 0.05445 0.0
H261 H 0.89066 0.58629 0.17669 0.0
H262 H 0.93763 0.60468 0.18044 0.0
H263 H 0.97711 0.593 1.00924 0.0
H264 H 0.10087 0.53202 0.02467 0.0
H265 H 0.05541 0.55218 0.02077 0.0
H266 H 0.03426 0.58127 0.20507 0.0
C267 C 0.93011 0.58915 0.14345 0.0
C268 C 0.98942 0.5912 0.05264 0.0
C269 C 0.90329 0.57872 0.14119 0.0
C270 C 0.09667 0.54799 0.06055 0.0
C271 C 0.07069 0.55968 0.05827 0.0
C272 C 0.02209 0.58499 0.16264 0.0
C273 C 0.9473 0.57895 0.09923 0.0
C274 C 0.97685 0.58664 0.10508 0.0
C275 C 0.06384 0.57895 0.10632 0.0
C276 C 0.03461 0.58676 0.10866 0.0
H277 H 0.90348 0.53179 0.01454 0.0
H278 H 0.94974 0.55018 0.0177 0.0
H279 H 0.98434 0.58128 0.20196 0.0
H280 H 0.12562 0.58189 0.19577 0.0
H281 H 0.07958 0.60238 0.19249 0.0
C282 C 0.45106 0.90569 0.16769 0.0
C283 C 0.44247 0.88492 0.12044 0.0
C284 C 0.43988 0.93194 0.16788 0.0
C285 C 0.41426 0.97897 0.05979 0.0
H286 H 0.40797 0.0268 0.21013 0.0
C287 C 0.42355 0.09769 0.06997 0.0
C288 C 0.44512 0.10746 0.11447 0.0
C289 C 0.41229 0.07129 0.07064 0.0
C290 C 0.40929 0.01371 0.16756 0.0
H291 H 0.41497 0.87464 0.0372 0.0
H292 H 0.39548 0.9212 0.0366 0.0
H293 H 0.40703 0.97687 0.21154 0.0
H294 H 0.47055 0.09843 0.19665 0.0
H295 H 0.45071 0.05296 0.19868 0.0
H296 H 0.41826 0.01588 0.01674 0.0
C297 C 0.41063 0.91697 0.07401 0.0
C298 C 0.40876 0.98513 0.16836 0.0
C299 C 0.42158 0.89038 0.0745 0.0
C300 C 0.45401 0.0913 0.16166 0.0
C301 C 0.44246 0.06533 0.16306 0.0
C302 C 0.41473 0.00762 0.05897 0.0
C303 C 0.42015 0.93819 0.12008 0.0
C304 C 0.4127 0.96748 0.11525 0.0
C305 C 0.42202 0.05467 0.1167 0.0
C306 C 0.41369 0.02524 0.1136 0.0
H307 H 0.46734 0.9019 0.20326 0.0
H308 H 0.44805 0.94782 0.20346 0.0
H309 H 0.41747 0.96596 0.01816 0.0
H310 H 0.41647 0.10977 0.03292 0.0
H311 H 0.39656 0.06356 0.03433 0.0
C312 C 0.39252 0.23604 0.07047 0.0
C313 C 0.41083 0.23973 0.02719 0.0
C314 C 0.36889 0.2521 0.07246 0.0
C315 C 0.32029 0.29609 0.99386 0.0
H316 H 0.33136 0.34815 0.14071 0.0
C317 C 0.26215 0.39916 1.01336 0.0
C318 C 0.25761 0.41208 0.07173 0.0
C319 C 0.27748 0.37501 1.00754 0.0
C320 C 0.32728 0.33351 0.10012 0.0
H321 H 0.41798 0.26119 0.94925 0.0
H322 H 0.37595 0.28833 0.95091 0.0
H323 H 0.36161 0.309 0.12899 0.0
H324 H 0.26559 0.40877 0.16984 0.0
H325 H 0.29002 0.36589 0.15948 0.0
H326 H 0.28566 0.32005 0.96511 0.0
C327 C 0.38003 0.27335 0.98361 0.0
C328 C 0.34481 0.31109 0.09343 0.0
C329 C 0.404 0.25787 0.98267 0.0
C330 C 0.26815 0.39951 0.12392 0.0
C331 C 0.2828 0.37497 0.118 0.0
C332 C 0.30222 0.31815 1.00119 0.0
C333 C 0.36294 0.27143 0.03012 0.0
C334 C 0.34177 0.29252 0.03986 0.0
C335 C 0.28817 0.36257 0.0598 0.0
C336 C 0.3058 0.33758 0.05391 0.0
H337 H 0.39762 0.22249 0.10587 0.0
H338 H 0.35602 0.25046 0.10891 0.0
H339 H 0.31769 0.28199 0.95204 0.0
H340 H 0.25393 0.4076 0.97175 0.0
H341 H 0.28135 0.36652 0.96184 0.0
C342 C 0.71284 0.4406 0.16463 0.0
C343 C 0.72398 0.44619 0.11095 0.0
C344 C 0.69357 0.41934 0.1627 0.0
C345 C 0.6698 0.35417 0.07418 0.0
H346 H 0.60363 0.36652 0.15443 0.0
C347 C 0.58129 0.27406 0.04247 0.0
C348 C 0.56682 0.27095 0.0931 0.0
C349 C 0.60078 0.29518 0.04526 0.0
C350 C 0.62218 0.36255 0.13256 0.0
H351 H 0.72295 0.43404 1.01281 0.0
H352 H 0.68977 0.3966 1.00993 0.0
H353 H 0.63691 0.40395 0.15849 0.0
H354 H 0.56177 0.28773 0.1866 0.0
H355 H 0.59646 0.32374 0.1923 0.0
H356 H 0.65546 0.31269 0.04908 0.0
C357 C 0.69617 0.40861 0.05352 0.0
C358 C 0.64119 0.38406 0.13474 0.0
C359 C 0.71524 0.43003 0.05528 0.0
C360 C 0.5727 0.28925 0.14692 0.0
C361 C 0.59234 0.31022 0.14988 0.0
C362 C 0.65093 0.33257 0.0725 0.0
C363 C 0.68518 0.40302 0.10721 0.0
C364 C 0.66512 0.38012 0.10537 0.0
C365 C 0.60648 0.31362 0.09892 0.0
C366 C 0.62682 0.33649 0.10148 0.0
H367 H 0.71942 0.45225 0.20852 0.0
H368 H 0.68565 0.41528 0.20494 0.0
H369 H 0.68827 0.35046 0.05183 0.0
H370 H 0.57764 0.26014 1.00055 0.0
H371 H 0.61103 0.29731 1.00486 0.0
C372 C 0.59664 0.73902 0.21487 0.0
C373 C 0.57912 0.73616 0.15939 0.0
C374 C 0.62073 0.72368 0.22105 0.0
C375 C 0.67825 0.70114 0.2035 0.0
H376 H 0.67565 0.62336 0.14359 0.0
C377 C 0.77377 0.63602 0.15313 0.0
C378 C 0.77426 0.60857 0.16724 0.0
C379 C 0.75076 0.6524 0.16151 0.0
C380 C 0.67668 0.64498 0.16116 0.0
H381 H 0.57291 0.71478 0.06726 0.0
H382 H 0.61491 0.68791 0.07813 0.0
H383 H 0.63345 0.64997 0.13868 0.0
H384 H 0.75164 0.57761 0.20552 0.0
H385 H 0.71151 0.60608 0.21955 0.0
H386 H 0.72162 0.69616 0.22508 0.0
C387 C 0.61 0.702 0.11682 0.0
C388 C 0.65256 0.66028 0.15773 0.0
C389 C 0.5861 0.71754 0.11041 0.0
C390 C 0.75186 0.59846 0.19325 0.0
C391 C 0.72879 0.61475 0.20117 0.0
C392 C 0.70247 0.68588 0.20634 0.0
C393 C 0.62761 0.70494 0.17214 0.0
C394 C 0.6531 0.68855 0.17839 0.0
C395 C 0.72771 0.64165 0.18391 0.0
C396 C 0.70195 0.65766 0.18486 0.0
H397 H 0.5919 0.7534 0.25323 0.0
H398 H 0.63384 0.72627 0.26431 0.0
H399 H 0.6793 0.72294 0.21947 0.0
H400 H 0.79069 0.64456 0.13327 0.0
H401 H 0.75051 0.67302 0.14759 0.0
C402 C 0.41847 0.72222 0.19675 0.0
C403 C 0.41915 0.74461 0.16203 0.0
C404 C 0.39522 0.70529 0.19088 0.0
C405 C 0.35787 0.6605 0.12641 0.0
H406 H 0.28102 0.67975 0.09942 0.0
C407 C 0.27922 0.57629 0.0395 0.0
C408 C 0.25608 0.57554 0.07153 0.0
C409 C 0.29553 0.60002 0.04535 0.0
C410 C 0.30241 0.67411 0.10705 0.0
H411 H 0.39552 0.76808 0.09697 0.0
H412 H 0.3548 0.73793 0.08534 0.0
H413 H 0.31601 0.71632 0.12779 0.0
H414 H 0.23072 0.59953 0.13162 0.0
H415 H 0.25977 0.64109 0.14329 0.0
H416 H 0.34474 0.61857 0.10712 0.0
C417 C 0.37212 0.73373 0.11793 0.0
C418 C 0.32243 0.69503 0.12295 0.0
C419 C 0.39539 0.75102 0.12461 0.0
C420 C 0.24841 0.59965 0.10619 0.0
C421 C 0.26506 0.62342 0.11285 0.0
C422 C 0.33804 0.63979 0.1106 0.0
C423 C 0.37229 0.70997 0.14903 0.0
C424 C 0.35041 0.68839 0.13316 0.0
C425 C 0.28944 0.62343 0.08446 0.0
C426 C 0.31007 0.64622 0.10035 0.0
H427 H 0.43646 0.71701 0.22635 0.0
H428 H 0.39576 0.68766 0.21693 0.0
H429 H 0.37921 0.65456 0.13263 0.0
H430 H 0.28538 0.55807 1.01186 0.0
H431 H 0.31369 0.59958 0.02134 0.0
loop_
_geom_bond_atom_site_label_1
_geom_bond_atom_site_label_2
_geom_bond_distance
_geom_bond_site_symmetry_2
_ccdc_geom_bond_type
C0 C1 1.351 . S
C0 N3 1.368 . S
C0 H5 0.931 . S
C1 C0 1.351 . S
C1 N2 1.373 . S
C1 H29 0.930 . S
N2 C1 1.373 . S
N2 C4 1.340 . S
N3 C0 1.368 . S
N3 C4 1.321 . S
N3 Co6 2.135 1_556 S
C4 N2 1.340 . S
C4 N3 1.321 . S
C4 H28 0.930 . S
H5 C0 0.931 . S
Co6 N3 2.135 1_554 S
Co6 N9 2.121 . S
Co6 O14 2.055 . S
Co6 O17 2.039 . S
Co6 N20 2.140 . S
C7 O8 1.227 . S
C7 O17 1.265 . S
O8 C7 1.227 . S
N9 Co6 2.121 . S
N9 C11 1.375 . S
N9 C12 1.313 . S
C10 C11 1.338 . S
C10 N13 1.377 . S
C10 H30 0.930 . S
C11 N9 1.375 . S
C11 C10 1.338 . S
C11 H15 0.931 . S
C12 N9 1.313 . S
C12 N13 1.344 . S
C12 H16 0.930 . S
N13 C10 1.377 . S
N13 C12 1.344 . S
O14 Co6 2.055 . S
O14 C18 1.253 . S
H15 C11 0.931 . S
H16 C12 0.930 . S
O17 Co6 2.039 . S
O17 C7 1.265 . S
C18 O14 1.253 . S
C18 O19 1.227 . S
O19 C18 1.227 . S
N20 Co6 2.140 . S
N20 C23 1.346 . S
N20 C24 1.345 . S
C21 C22 1.387 . S
C21 C25 1.391 . S
C22 C21 1.387 . S
C22 C23 1.369 . S
C22 H31 0.929 1_554 S
C23 N20 1.346 . S
C23 C22 1.369 . S
C23 H26 0.928 1_554 S
C24 N20 1.345 . S
C24 C25 1.371 . S
C24 H27 0.931 . S
C25 C21 1.391 . S
C25 C24 1.371 . S
C25 H32 0.930 . S
H26 C23 0.928 1_556 S
H27 C24 0.931 . S
H28 C4 0.930 . S
H29 C1 0.930 . S
H30 C10 0.930 . S
H31 C22 0.929 1_556 S
H32 C25 0.930 . S
C33 C34 1.351 . S
C33 N36 1.368 . S
C33 H38 0.931 . S
C34 C33 1.351 . S
C34 N35 1.373 . S
C34 H62 0.930 . S
N35 C34 1.373 . S
N35 C37 1.340 . S
N36 C33 1.368 . S
N36 C37 1.321 . S
N36 Co39 2.135 1_556 S
C37 N35 1.340 . S
C37 N36 1.321 . S
C37 H61 0.930 . S
H38 C33 0.931 . S
Co39 N36 2.135 1_554 S
Co39 N42 2.121 . S
Co39 O47 2.055 . S
Co39 O50 2.039 . S
Co39 N53 2.140 . S
C40 O41 1.227 . S
C40 O50 1.265 . S
O41 C40 1.227 . S
N42 Co39 2.121 . S
N42 C44 1.375 . S
N42 C45 1.313 . S
C43 C44 1.338 . S
C43 N46 1.377 . S
C43 H63 0.930 . S
C44 N42 1.375 . S
C44 C43 1.338 . S
C44 H48 0.931 . S
C45 N42 1.313 . S
C45 N46 1.344 . S
C45 H49 0.930 . S
N46 C43 1.377 . S
N46 C45 1.344 . S
O47 Co39 2.055 . S
O47 C51 1.253 . S
H48 C44 0.931 . S
H49 C45 0.930 . S
O50 Co39 2.039 . S
O50 C40 1.265 . S
C51 O47 1.253 . S
C51 O52 1.227 . S
O52 C51 1.227 . S
N53 Co39 2.140 . S
N53 C56 1.346 . S
N53 C57 1.345 . S
C54 C55 1.387 . S
C54 C58 1.391 . S
C55 C54 1.387 . S
C55 C56 1.369 . S
C55 H64 0.929 . S
C56 N53 1.346 . S
C56 C55 1.369 . S
C56 H59 0.928 1_554 S
C57 N53 1.345 . S
C57 C58 1.371 . S
C57 H60 0.931 . S
C58 C54 1.391 . S
C58 C57 1.371 . S
C58 H65 0.930 . S
H59 C56 0.928 1_556 S
H60 C57 0.931 . S
H61 C37 0.930 . S
H62 C34 0.930 . S
H63 C43 0.930 . S
H64 C55 0.929 . S
H65 C58 0.930 . S
C66 C67 1.351 . S
C66 N69 1.368 . S
C66 H71 0.931 . S
C67 C66 1.351 . S
C67 N68 1.373 . S
C67 H95 0.930 . S
N68 C67 1.373 . S
N68 C70 1.340 . S
N69 C66 1.368 . S
N69 C70 1.321 . S
N69 Co72 2.135 . S
C70 N68 1.340 . S
C70 N69 1.321 . S
C70 H94 0.930 . S
H71 C66 0.931 . S
Co72 N69 2.135 . S
Co72 N75 2.121 . S
Co72 O80 2.055 . S
Co72 O83 2.039 . S
Co72 N86 2.140 . S
C73 O74 1.227 . S
C73 O83 1.265 . S
O74 C73 1.227 . S
N75 Co72 2.121 . S
N75 C77 1.375 . S
N75 C78 1.313 . S
C76 C77 1.338 1_556 S
C76 N79 1.377 . S
C76 H96 0.930 . S
C77 N75 1.375 . S
C77 C76 1.338 1_554 S
C77 H81 0.931 . S
C78 N75 1.313 . S
C78 N79 1.344 1_554 S
C78 H82 0.930 . S
N79 C76 1.377 . S
N79 C78 1.344 1_556 S
O80 Co72 2.055 . S
O80 C84 1.253 . S
H81 C77 0.931 . S
H82 C78 0.930 . S
O83 Co72 2.039 . S
O83 C73 1.265 . S
C84 O80 1.253 . S
C84 O85 1.227 . S
O85 C84 1.227 . S
N86 Co72 2.140 . S
N86 C89 1.346 . S
N86 C90 1.345 . S
C87 C88 1.387 . S
C87 C91 1.391 . S
C88 C87 1.387 . S
C88 C89 1.369 . S
C88 H97 0.929 . S
C89 N86 1.346 . S
C89 C88 1.369 . S
C89 H92 0.928 . S
C90 N86 1.345 . S
C90 C91 1.371 . S
C90 H93 0.931 . S
C91 C87 1.391 . S
C91 C90 1.371 . S
C91 H98 0.930 . S
H92 C89 0.928 . S
H93 C90 0.931 . S
H94 C70 0.930 . S
H95 C67 0.930 . S
H96 C76 0.930 . S
H97 C88 0.929 . S
H98 C91 0.930 . S
C99 C100 1.351 . S
C99 N102 1.368 . S
C99 H104 0.931 . S
C100 C99 1.351 . S
C100 N101 1.373 . S
C100 H128 0.930 . S
N101 C100 1.373 . S
N101 C103 1.340 . S
N102 C99 1.368 . S
N102 C103 1.321 . S
N102 Co105 2.135 . S
C103 N101 1.340 . S
C103 N102 1.321 . S
C103 H127 0.930 . S
H104 C99 0.931 . S
Co105 N102 2.135 . S
Co105 N108 2.121 . S
Co105 O113 2.055 . S
Co105 O116 2.039 . S
Co105 N119 2.140 . S
C106 O107 1.227 . S
C106 O116 1.265 . S
O107 C106 1.227 . S
N108 Co105 2.121 . S
N108 C110 1.375 . S
N108 C111 1.313 1_554 S
C109 C110 1.338 1_556 S
C109 N112 1.377 . S
C109 H129 0.930 . S
C110 N108 1.375 . S
C110 C109 1.338 1_554 S
C110 H114 0.931 . S
C111 N108 1.313 1_556 S
C111 N112 1.344 . S
C111 H115 0.930 1_556 S
N112 C109 1.377 . S
N112 C111 1.344 . S
O113 Co105 2.055 . S
O113 C117 1.253 . S
H114 C110 0.931 . S
H115 C111 0.930 1_554 S
O116 Co105 2.039 . S
O116 C106 1.265 . S
C117 O113 1.253 . S
C117 O118 1.227 . S
O118 C117 1.227 . S
N119 Co105 2.140 . S
N119 C122 1.346 . S
N119 C123 1.345 . S
C120 C121 1.387 . S
C120 C124 1.391 . S
C121 C120 1.387 . S
C121 C122 1.369 . S
C121 H130 0.929 . S
C122 N119 1.346 . S
C122 C121 1.369 . S
C122 H125 0.928 . S
C123 N119 1.345 . S
C123 C124 1.371 . S
C123 H126 0.931 . S
C124 C120 1.391 . S
C124 C123 1.371 . S
C124 H131 0.930 . S
H125 C122 0.928 . S
H126 C123 0.931 . S
H127 C103 0.930 . S
H128 C100 0.930 . S
H129 C109 0.930 . S
H130 C121 0.929 . S
H131 C124 0.930 . S
C132 C133 1.349 . S
C132 C134 1.327 . S
C132 H157 0.950 . S
C133 C132 1.349 . S
C133 C149 1.349 . S
C134 C132 1.327 . S
C134 C153 1.429 . S
C134 H158 0.950 . S
C135 C152 1.574 . S
C135 C154 1.368 . S
C135 H159 0.949 . S
H136 C140 0.949 . S
C137 C138 1.349 . S
C137 C139 1.327 . S
C137 H160 0.950 . S
C138 C137 1.349 . S
C138 C150 1.349 . S
C139 C137 1.327 . S
C139 C155 1.429 . S
C139 H161 0.950 . S
C140 H136 0.949 . S
C140 C148 1.574 . S
C140 C156 1.368 . S
H141 C149 0.950 . S
H142 C147 0.950 . S
H143 C148 0.949 . S
H144 C150 0.950 . S
H145 C151 0.950 . S
H146 C152 0.949 . S
C147 H142 0.950 . S
C147 C149 1.327 . S
C147 C153 1.429 . S
C148 C140 1.574 . S
C148 H143 0.949 . S
C148 C154 1.368 . S
C149 C133 1.349 . S
C149 H141 0.950 . S
C149 C147 1.327 . S
C150 C138 1.349 . S
C150 H144 0.950 . S
C150 C151 1.327 . S
C151 H145 0.950 . S
C151 C150 1.327 . S
C151 C155 1.429 . S
C152 C135 1.574 . S
C152 H146 0.949 . S
C152 C156 1.368 . S
C153 C134 1.429 . S
C153 C147 1.429 . S
C153 C154 1.523 . S
C154 C135 1.368 . S
C154 C148 1.368 . S
C154 C153 1.523 . S
C155 C139 1.429 . S
C155 C151 1.429 . S
C155 C156 1.523 . S
C156 C140 1.368 . S
C156 C152 1.368 . S
C156 C155 1.523 . S
H157 C132 0.950 . S
H158 C134 0.950 . S
H159 C135 0.949 . S
H160 C137 0.950 . S
H161 C139 0.950 . S
C162 C163 1.349 . S
C162 C164 1.327 . S
C162 H187 0.950 . S
C163 C162 1.349 . S
C163 C179 1.349 . S
C164 C162 1.327 . S
C164 C183 1.429 . S
C164 H188 0.950 . S
C165 C182 1.574 . S
C165 C184 1.368 . S
C165 H189 0.949 . S
H166 C170 0.949 . S
C167 C168 1.349 . S
C167 C169 1.327 . S
C167 H190 0.950 . S
C168 C167 1.349 . S
C168 C180 1.349 . S
C169 C167 1.327 . S
C169 C185 1.429 . S
C169 H191 0.950 . S
C170 H166 0.949 . S
C170 C178 1.574 . S
C170 C186 1.368 . S
H171 C179 0.950 . S
H172 C177 0.950 . S
H173 C178 0.949 . S
H174 C180 0.950 . S
H175 C181 0.950 . S
H176 C182 0.949 . S
C177 H172 0.950 . S
C177 C179 1.327 . S
C177 C183 1.429 . S
C178 C170 1.574 . S
C178 H173 0.949 . S
C178 C184 1.368 . S
C179 C163 1.349 . S
C179 H171 0.950 . S
C179 C177 1.327 . S
C180 C168 1.349 . S
C180 H174 0.950 . S
C180 C181 1.327 . S
C181 H175 0.950 . S
C181 C180 1.327 . S
C181 C185 1.429 . S
C182 C165 1.574 . S
C182 H176 0.949 . S
C182 C186 1.368 . S
C183 C164 1.429 . S
C183 C177 1.429 . S
C183 C184 1.523 . S
C184 C165 1.368 . S
C184 C178 1.368 . S
C184 C183 1.523 . S
C185 C169 1.429 . S
C185 C181 1.429 . S
C185 C186 1.523 . S
C186 C170 1.368 . S
C186 C182 1.368 . S
C186 C185 1.523 . S
H187 C162 0.950 . S
H188 C164 0.950 . S
H189 C165 0.949 . S
H190 C167 0.950 . S
H191 C169 0.950 . S
C192 C193 1.349 . S
C192 C194 1.327 . S
C192 H217 0.950 . S
C193 C192 1.349 . S
C193 C209 1.349 . S
C194 C192 1.327 . S
C194 C213 1.429 . S
C194 H218 0.950 . S
C195 C212 1.574 . S
C195 C214 1.368 . S
C195 H219 0.949 . S
H196 C200 0.949 . S
C197 C198 1.349 . S
C197 C199 1.327 . S
C197 H220 0.950 . S
C198 C197 1.349 . S
C198 C210 1.349 . S
C199 C197 1.327 . S
C199 C215 1.429 . S
C199 H221 0.950 . S
C200 H196 0.949 . S
C200 C208 1.574 . S
C200 C216 1.368 . S
H201 C209 0.950 . S
H202 C207 0.950 . S
H203 C208 0.949 . S
H204 C210 0.950 . S
H205 C211 0.950 . S
H206 C212 0.949 . S
C207 H202 0.950 . S
C207 C209 1.327 . S
C207 C213 1.429 . S
C208 C200 1.574 . S
C208 H203 0.949 . S
C208 C214 1.368 . S
C209 C193 1.349 . S
C209 H201 0.950 . S
C209 C207 1.327 . S
C210 C198 1.349 . S
C210 H204 0.950 . S
C210 C211 1.327 . S
C211 H205 0.950 . S
C211 C210 1.327 . S
C211 C215 1.429 . S
C212 C195 1.574 . S
C212 H206 0.949 . S
C212 C216 1.368 . S
C213 C194 1.429 . S
C213 C207 1.429 . S
C213 C214 1.523 . S
C214 C195 1.368 . S
C214 C208 1.368 . S
C214 C213 1.523 . S
C215 C199 1.429 . S
C215 C211 1.429 . S
C215 C216 1.523 . S
C216 C200 1.368 . S
C216 C212 1.368 . S
C216 C215 1.523 . S
H217 C192 0.950 . S
H218 C194 0.950 . S
H219 C195 0.949 . S
H220 C197 0.950 . S
H221 C199 0.950 . S
C222 C223 1.349 . S
C222 C224 1.327 . S
C222 H247 0.950 . S
C223 C222 1.349 . S
C223 C239 1.349 . S
C224 C222 1.327 . S
C224 C243 1.429 . S
C224 H248 0.950 . S
C225 C242 1.574 . S
C225 C244 1.368 . S
C225 H249 0.949 . S
H226 C230 0.949 . S
C227 C228 1.349 . S
C227 C229 1.327 . S
C227 H250 0.950 . S
C228 C227 1.349 . S
C228 C240 1.349 . S
C229 C227 1.327 . S
C229 C245 1.429 . S
C229 H251 0.950 . S
C230 H226 0.949 . S
C230 C238 1.574 . S
C230 C246 1.368 . S
H231 C239 0.950 . S
H232 C237 0.950 . S
H233 C238 0.949 . S
H234 C240 0.950 . S
H235 C241 0.950 . S
H236 C242 0.949 . S
C237 H232 0.950 . S
C237 C239 1.327 . S
C237 C243 1.429 . S
C238 C230 1.574 . S
C238 H233 0.949 . S
C238 C244 1.368 . S
C239 C223 1.349 . S
C239 H231 0.950 . S
C239 C237 1.327 . S
C240 C228 1.349 . S
C240 H234 0.950 . S
C240 C241 1.327 . S
C241 H235 0.950 . S
C241 C240 1.327 . S
C241 C245 1.429 . S
C242 C225 1.574 . S
C242 H236 0.949 . S
C242 C246 1.368 . S
C243 C224 1.429 . S
C243 C237 1.429 . S
C243 C244 1.523 . S
C244 C225 1.368 . S
C244 C238 1.368 . S
C244 C243 1.523 . S
C245 C229 1.429 . S
C245 C241 1.429 . S
C245 C246 1.523 . S
C246 C230 1.368 . S
C246 C242 1.368 . S
C246 C245 1.523 . S
H247 C222 0.950 . S
H248 C224 0.950 . S
H249 C225 0.949 . S
H250 C227 0.950 . S
H251 C229 0.950 . S
C252 C253 1.349 . S
C252 C254 1.327 . S
C252 H277 0.950 . S
C253 C252 1.349 . S
C253 C269 1.349 . S
C254 C252 1.327 . S
C254 C273 1.429 . S
C254 H278 0.950 . S
C255 C272 1.574 1_655 S
C255 C274 1.368 . S
C255 H279 0.949 . S
H256 C260 0.949 . S
C257 C258 1.349 . S
C257 C259 1.327 . S
C257 H280 0.950 . S
C258 C257 1.349 . S
C258 C270 1.349 . S
C259 C257 1.327 . S
C259 C275 1.429 . S
C259 H281 0.950 . S
C260 H256 0.949 . S
C260 C268 1.574 1_455 S
C260 C276 1.368 . S
H261 C269 0.950 . S
H262 C267 0.950 . S
H263 C268 0.949 . S
H264 C270 0.950 1_556 S
H265 C271 0.943 1_556 S
H266 C272 0.949 . S
C267 H262 0.950 . S
C267 C269 1.327 . S
C267 C273 1.429 . S
C268 C260 1.574 1_655 S
C268 H263 0.949 . S
C268 C274 1.368 . S
C269 C253 1.349 . S
C269 H261 0.950 . S
C269 C267 1.327 . S
C270 C258 1.349 . S
C270 H264 0.950 1_554 S
C270 C271 1.327 . S
C271 H265 0.943 1_554 S
C271 C270 1.327 . S
C271 C275 1.429 . S
C272 C255 1.574 1_455 S
C272 H266 0.949 . S
C272 C276 1.368 . S
C273 C254 1.429 . S
C273 C267 1.429 . S
C273 C274 1.523 . S
C274 C255 1.368 . S
C274 C268 1.368 . S
C274 C273 1.523 . S
C275 C259 1.429 . S
C275 C271 1.429 . S
C275 C276 1.523 . S
C276 C260 1.368 . S
C276 C272 1.368 . S
C276 C275 1.523 . S
H277 C252 0.950 . S
H278 C254 0.950 . S
H279 C255 0.949 . S
H280 C257 0.950 . S
H281 C259 0.950 . S
C282 C283 1.349 . S
C282 C284 1.327 . S
C282 H307 0.950 . S
C283 C282 1.349 . S
C283 C299 1.349 . S
C284 C282 1.327 . S
C284 C303 1.429 . S
C284 H308 0.950 . S
C285 C302 1.574 1_565 S
C285 C304 1.368 . S
C285 H309 0.949 . S
H286 C290 0.949 . S
C287 C288 1.349 . S
C287 C289 1.327 . S
C287 H310 0.950 1_554 S
C288 C287 1.349 . S
C288 C300 1.349 . S
C289 C287 1.327 . S
C289 C305 1.429 . S
C289 H311 0.950 . S
C290 H286 0.949 . S
C290 C298 1.574 1_545 S
C290 C306 1.368 . S
H291 C299 0.950 . S
H292 C297 0.950 . S
H293 C298 0.949 . S
H294 C300 0.950 . S
H295 C301 0.950 . S
H296 C302 0.949 . S
C297 H292 0.950 . S
C297 C299 1.327 . S
C297 C303 1.429 . S
C298 C290 1.574 1_565 S
C298 H293 0.949 . S
C298 C304 1.368 . S
C299 C283 1.349 . S
C299 H291 0.950 . S
C299 C297 1.327 . S
C300 C288 1.349 . S
C300 H294 0.950 . S
C300 C301 1.327 . S
C301 H295 0.950 . S
C301 C300 1.327 . S
C301 C305 1.429 . S
C302 C285 1.574 1_545 S
C302 H296 0.949 . S
C302 C306 1.368 . S
C303 C284 1.429 . S
C303 C297 1.429 . S
C303 C304 1.523 . S
C304 C285 1.368 . S
C304 C298 1.368 . S
C304 C303 1.523 . S
C305 C289 1.429 . S
C305 C301 1.429 . S
C305 C306 1.523 . S
C306 C290 1.368 . S
C306 C302 1.368 . S
C306 C305 1.523 . S
H307 C282 0.950 . S
H308 C284 0.950 . S
H309 C285 0.949 . S
H310 C287 0.950 1_556 S
H311 C289 0.950 . S
C312 C313 1.349 . S
C312 C314 1.327 . S
C312 H337 0.950 . S
C313 C312 1.349 . S
C313 C329 1.349 1_554 S
C314 C312 1.327 . S
C314 C333 1.429 . S
C314 H338 0.950 . S
C315 C332 1.574 . S
C315 C334 1.368 1_556 S
C315 H339 0.949 . S
H316 C320 0.949 . S
C317 C318 1.349 . S
C317 C319 1.327 1_554 S
C317 H340 0.950 1_554 S
C318 C317 1.349 . S
C318 C330 1.349 . S
C319 C317 1.327 1_556 S
C319 C335 1.428 1_556 S
C319 H341 0.951 . S
C320 H316 0.949 . S
C320 C328 1.574 . S
C320 C336 1.368 . S
H321 C329 0.950 . S
H322 C327 0.950 . S
H323 C328 0.949 . S
H324 C330 0.950 . S
H325 C331 0.950 . S
H326 C332 0.949 . S
C327 H322 0.950 . S
C327 C329 1.327 . S
C327 C333 1.429 1_556 S
C328 C320 1.574 . S
C328 H323 0.949 . S
C328 C334 1.368 . S
C329 C313 1.349 1_556 S
C329 H321 0.950 . S
C329 C327 1.327 . S
C330 C318 1.349 . S
C330 H324 0.950 . S
C330 C331 1.327 . S
C331 H325 0.950 . S
C331 C330 1.327 . S
C331 C335 1.429 . S
C332 C315 1.574 . S
C332 H326 0.949 . S
C332 C336 1.368 1_556 S
C333 C314 1.429 . S
C333 C327 1.429 1_554 S
C333 C334 1.523 . S
C334 C315 1.368 1_554 S
C334 C328 1.368 . S
C334 C333 1.523 . S
C335 C319 1.428 1_554 S
C335 C331 1.429 . S
C335 C336 1.523 . S
C336 C320 1.368 . S
C336 C332 1.368 1_554 S
C336 C335 1.523 . S
H337 C312 0.950 . S
H338 C314 0.950 . S
H339 C315 0.949 . S
H340 C317 0.950 1_556 S
H341 C319 0.951 . S
C342 C343 1.349 . S
C342 C344 1.327 . S
C342 H367 0.950 . S
C343 C342 1.349 . S
C343 C359 1.349 . S
C344 C342 1.327 . S
C344 C363 1.429 . S
C344 H368 0.950 . S
C345 C362 1.574 . S
C345 C364 1.368 . S
C345 H369 0.949 . S
H346 C350 0.949 . S
C347 C348 1.349 . S
C347 C349 1.327 . S
C347 H370 0.950 . S
C348 C347 1.349 . S
C348 C360 1.349 . S
C349 C347 1.327 . S
C349 C365 1.429 . S
C349 H371 0.950 . S
C350 H346 0.949 . S
C350 C358 1.574 . S
C350 C366 1.368 . S
H351 C359 0.950 . S
H352 C357 0.950 . S
H353 C358 0.949 . S
H354 C360 0.950 . S
H355 C361 0.950 . S
H356 C362 0.949 . S
C357 H352 0.950 . S
C357 C359 1.327 . S
C357 C363 1.429 . S
C358 C350 1.574 . S
C358 H353 0.949 . S
C358 C364 1.368 . S
C359 C343 1.349 . S
C359 H351 0.950 . S
C359 C357 1.327 . S
C360 C348 1.349 . S
C360 H354 0.950 . S
C360 C361 1.327 . S
C361 H355 0.950 . S
C361 C360 1.327 . S
C361 C365 1.429 . S
C362 C345 1.574 . S
C362 H356 0.949 . S
C362 C366 1.368 . S
C363 C344 1.429 . S
C363 C357 1.429 . S
C363 C364 1.523 . S
C364 C345 1.368 . S
C364 C358 1.368 . S
C364 C363 1.523 . S
C365 C349 1.429 . S
C365 C361 1.429 . S
C365 C366 1.523 . S
C366 C350 1.368 . S
C366 C362 1.368 . S
C366 C365 1.523 . S
H367 C342 0.950 . S
H368 C344 0.950 . S
H369 C345 0.949 . S
H370 C347 0.950 . S
H371 C349 0.950 . S
C372 C373 1.349 . S
C372 C374 1.327 . S
C372 H397 0.950 . S
C373 C372 1.349 . S
C373 C389 1.349 . S
C374 C372 1.327 . S
C374 C393 1.429 . S
C374 H398 0.950 . S
C375 C392 1.574 . S
C375 C394 1.368 . S
C375 H399 0.949 . S
H376 C380 0.949 . S
C377 C378 1.349 . S
C377 C379 1.327 . S
C377 H400 0.950 . S
C378 C377 1.349 . S
C378 C390 1.349 . S
C379 C377 1.327 . S
C379 C395 1.429 . S
C379 H401 0.950 . S
C380 H376 0.949 . S
C380 C388 1.574 . S
C380 C396 1.368 . S
H381 C389 0.950 . S
H382 C387 0.950 . S
H383 C388 0.949 . S
H384 C390 0.950 . S
H385 C391 0.950 . S
H386 C392 0.949 . S
C387 H382 0.950 . S
C387 C389 1.327 . S
C387 C393 1.429 . S
C388 C380 1.574 . S
C388 H383 0.949 . S
C388 C394 1.368 . S
C389 C373 1.349 . S
C389 H381 0.950 . S
C389 C387 1.327 . S
C390 C378 1.349 . S
C390 H384 0.950 . S
C390 C391 1.327 . S
C391 H385 0.950 . S
C391 C390 1.327 . S
C391 C395 1.429 . S
C392 C375 1.574 . S
C392 H386 0.949 . S
C392 C396 1.368 . S
C393 C374 1.429 . S
C393 C387 1.429 . S
C393 C394 1.523 . S
C394 C375 1.368 . S
C394 C388 1.368 . S
C394 C393 1.523 . S
C395 C379 1.429 . S
C395 C391 1.429 . S
C395 C396 1.523 . S
C396 C380 1.368 . S
C396 C392 1.368 . S
C396 C395 1.523 . S
H397 C372 0.950 . S
H398 C374 0.950 . S
H399 C375 0.949 . S
H400 C377 0.950 . S
H401 C379 0.950 . S
C402 C403 1.349 . S
C402 C404 1.327 . S
C402 H427 0.950 . S
C403 C402 1.349 . S
C403 C419 1.349 . S
C404 C402 1.327 . S
C404 C423 1.429 . S
C404 H428 0.950 . S
C405 C422 1.574 . S
C405 C424 1.368 . S
C405 H429 0.949 . S
H406 C410 0.949 . S
C407 C408 1.349 . S
C407 C409 1.327 . S
C407 H430 0.943 1_554 S
C408 C407 1.349 . S
C408 C420 1.349 . S
C409 C407 1.327 . S
C409 C425 1.429 . S
C409 H431 0.950 . S
C410 H406 0.949 . S
C410 C418 1.574 . S
C410 C426 1.368 . S
H411 C419 0.950 . S
H412 C417 0.950 . S
H413 C418 0.949 . S
H414 C420 0.950 . S
H415 C421 0.950 . S
H416 C422 0.949 . S
C417 H412 0.950 . S
C417 C419 1.327 . S
C417 C423 1.429 . S
C418 C410 1.574 . S
C418 H413 0.949 . S
C418 C424 1.368 . S
C419 C403 1.349 . S
C419 H411 0.950 . S
C419 C417 1.327 . S
C420 C408 1.349 . S
C420 H414 0.950 . S
C420 C421 1.327 . S
C421 H415 0.950 . S
C421 C420 1.327 . S
C421 C425 1.429 . S
C422 C405 1.574 . S
C422 H416 0.949 . S
C422 C426 1.368 . S
C423 C404 1.429 . S
C423 C417 1.429 . S
C423 C424 1.523 . S
C424 C405 1.368 . S
C424 C418 1.368 . S
C424 C423 1.523 . S
C425 C409 1.429 . S
C425 C421 1.429 . S
C425 C426 1.523 . S
C426 C410 1.368 . S
C426 C422 1.368 . S
C426 C425 1.523 . S
H427 C402 0.950 . S
H428 C404 0.950 . S
H429 C405 0.949 . S
H430 C407 0.943 1_556 S
H431 C409 0.950 . S
C133 N2 1.437 . S
C138 N13 1.440 . S
C163 N35 1.440 . S
C168 N46 1.442 . S
C193 N79 1.442 . S
C198 N68 1.440 . S
C223 N112 1.440 . S
C228 N101 1.437 . S
C253 C84 0.986 . S
C258 C18 0.986 . S
C283 C117 0.986 . S
C288 C51 0.986 . S
C313 C40 1.398 . S
C318 C21 1.411 . S
C343 C87 1.201 . S
C348 C54 1.201 . S
C373 C120 1.411 . S
C378 C73 1.398 . S
C403 C106 1.643 . S
C408 C7 1.643 . S
