# Generated by pormake.
# Topology vbn, (6)-cn, num edge types: 1
# Building blocks:
#     Node 0, Type 0, BuildingBlock: VOLQOD_clean_sbu_1, # of connection points: 6
#     Node 1, Type 0, BuildingBlock: VOLQOD_clean_sbu_1, # of connection points: 6
#     Node 2, Type 0, BuildingBlock: VOLQOD_clean_sbu_1, # of connection points: 6
#     Node 3, Type 0, BuildingBlock: VOLQOD_clean_sbu_1, # of connection points: 6
#     Node 4, Type 0, BuildingBlock: VOLQOD_clean_sbu_1, # of connection points: 6
#     Node 5, Type 0, BuildingBlock: VOLQOD_clean_sbu_1, # of connection points: 6
#     Node 6, Type 0, BuildingBlock: VOLQOD_clean_sbu_1, # of connection points: 6
#     Node 7, Type 0, BuildingBlock: VOLQOD_clean_sbu_1, # of connection points: 6
#     Edge 8, Type (0, 0), BuildingBlock: UVAHIK_clean_linker_0, # of connection points: 2
#     Edge 9, Type (0, 0), BuildingBlock: UVAHIK_clean_linker_0, # of connection points: 2
#     Edge 10, Type (0, 0), BuildingBlock: UVAHIK_clean_linker_0, # of connection points: 2
#     Edge 11, Type (0, 0), BuildingBlock: UVAHIK_clean_linker_0, # of connection points: 2
#     Edge 12, Type (0, 0), BuildingBlock: UVAHIK_clean_linker_0, # of connection points: 2
#     Edge 13, Type (0, 0), BuildingBlock: UVAHIK_clean_linker_0, # of connection points: 2
#     Edge 14, Type (0, 0), BuildingBlock: UVAHIK_clean_linker_0, # of connection points: 2
#     Edge 15, Type (0, 0), BuildingBlock: UVAHIK_clean_linker_0, # of connection points: 2
#     Edge 16, Type (0, 0), BuildingBlock: UVAHIK_clean_linker_0, # of connection points: 2
#     Edge 17, Type (0, 0), BuildingBlock: UVAHIK_clean_linker_0, # of connection points: 2
#     Edge 18, Type (0, 0), BuildingBlock: UVAHIK_clean_linker_0, # of connection points: 2
#     Edge 19, Type (0, 0), BuildingBlock: UVAHIK_clean_linker_0, # of connection points: 2
#     Edge 20, Type (0, 0), BuildingBlock: UVAHIK_clean_linker_0, # of connection points: 2
#     Edge 21, Type (0, 0), BuildingBlock: UVAHIK_clean_linker_0, # of connection points: 2
#     Edge 22, Type (0, 0), BuildingBlock: UVAHIK_clean_linker_0, # of connection points: 2
#     Edge 23, Type (0, 0), BuildingBlock: UVAHIK_clean_linker_0, # of connection points: 2
#     Edge 24, Type (0, 0), BuildingBlock: UVAHIK_clean_linker_0, # of connection points: 2
#     Edge 25, Type (0, 0), BuildingBlock: UVAHIK_clean_linker_0, # of connection points: 2
#     Edge 26, Type (0, 0), BuildingBlock: UVAHIK_clean_linker_0, # of connection points: 2
#     Edge 27, Type (0, 0), BuildingBlock: UVAHIK_clean_linker_0, # of connection points: 2
#     Edge 28, Type (0, 0), BuildingBlock: UVAHIK_clean_linker_0, # of connection points: 2
#     Edge 29, Type (0, 0), BuildingBlock: UVAHIK_clean_linker_0, # of connection points: 2
#     Edge 30, Type (0, 0), BuildingBlock: UVAHIK_clean_linker_0, # of connection points: 2
#     Edge 31, Type (0, 0), BuildingBlock: UVAHIK_clean_linker_0, # of connection points: 2
# Relax obj value: 0.302
# Max RMSD: 0.245
# Mean RMSD: 0.245
data_MOF--net-vbn--node1-VOLQOD_clean_sbu_1--edge1-UVAHIK_clean_linker_0
_symmetry_space_group_name_H-M    P1
_symmetry_Int_Tables_number       1
_symmetry_cell_setting            triclinic
loop_
_symmetry_equiv_pos_as_xyz
'x, y, z'
_cell_length_a     34.3135
_cell_length_b     36.891527
_cell_length_c     61.871526
_cell_angle_alpha  90.011158
_cell_angle_beta   89.981441
_cell_angle_gamma 89.992537
loop_
_atom_site_label
_atom_site_type_symbol
_atom_site_fract_x
_atom_site_fract_y
_atom_site_fract_z
_atom_type_partial_charge
O0 O 0.38351 0.33997 0.43754 0.0
Zn1 Zn 0.36246 0.29187 0.42771 0.0
O2 O 0.3632 0.28886 0.39629 0.0
Zn3 Zn 0.31062 0.28226 0.3847 0.0
Zn4 Zn 0.38677 0.33239 0.38472 0.0
Zn5 Zn 0.39565 0.2487 0.38775 0.0
O6 O 0.30588 0.23344 0.36908 0.0
O7 O 0.36279 0.20799 0.37728 0.0
O8 O 0.30777 0.28624 0.43945 0.0
O9 O 0.27268 0.28082 0.40943 0.0
O10 O 0.29417 0.32595 0.36641 0.0
O11 O 0.3461 0.36154 0.37008 0.0
O12 O 0.42571 0.32163 0.36151 0.0
O13 O 0.39997 0.25594 0.44097 0.0
O14 O 0.42926 0.26175 0.36249 0.0
O15 O 0.42949 0.23233 0.41229 0.0
C16 C 0.40396 0.36425 0.42829 0.0
C17 C 0.32886 0.20614 0.36904 0.0
C18 C 0.31178 0.35596 0.36311 0.0
C19 C 0.27501 0.28264 0.42995 0.0
C20 C 0.43862 0.29189 0.35399 0.0
C21 C 0.42667 0.23631 0.43268 0.0
O22 O 0.41022 0.36346 0.408 0.0
O23 O 0.10756 0.16255 0.93887 0.0
Zn24 Zn 0.12957 0.21011 0.92898 0.0
O25 O 0.12818 0.21333 0.89763 0.0
Zn26 Zn 0.18068 0.21783 0.8856 0.0
Zn27 Zn 0.10216 0.1709 0.8862 0.0
Zn28 Zn 0.09773 0.25505 0.88952 0.0
O29 O 0.18754 0.26668 0.87044 0.0
O30 O 0.13259 0.29479 0.87957 0.0
O31 O 0.18461 0.21369 0.94019 0.0
O32 O 0.21949 0.21713 0.90996 0.0
O33 O 0.19422 0.17412 0.86666 0.0
O34 O 0.14073 0.14068 0.87052 0.0
O35 O 0.06226 0.18368 0.86391 0.0
O36 O 0.09363 0.24689 0.94272 0.0
O37 O 0.06311 0.24371 0.86435 0.0
O38 O 0.06483 0.27203 0.9143 0.0
C39 C 0.08621 0.13876 0.92983 0.0
C40 C 0.1664 0.2952 0.87109 0.0
C41 C 0.17503 0.14503 0.86318 0.0
C42 C 0.21735 0.21559 0.9305 0.0
C43 C 0.05118 0.21399 0.8563 0.0
C44 C 0.06764 0.26755 0.93465 0.0
O45 O 0.07905 0.13989 0.90964 0.0
O46 O 0.88337 0.16251 0.55157 0.0
Zn47 Zn 0.86198 0.21041 0.56128 0.0
O48 O 0.86244 0.21348 0.59261 0.0
Zn49 Zn 0.80967 0.22036 0.60394 0.0
Zn50 Zn 0.8858 0.16995 0.6043 0.0
Zn51 Zn 0.89518 0.25349 0.60103 0.0
O52 O 0.80512 0.26951 0.61918 0.0
O53 O 0.86233 0.29453 0.61106 0.0
O54 O 0.80755 0.21538 0.54939 0.0
O55 O 0.77169 0.22124 0.57911 0.0
O56 O 0.79316 0.17701 0.62253 0.0
O57 O 0.84485 0.14107 0.61888 0.0
O58 O 0.92434 0.18076 0.62769 0.0
O59 O 0.89918 0.24642 0.54796 0.0
O60 O 0.9281 0.24062 0.62658 0.0
O61 O 0.92975 0.26909 0.57654 0.0
C62 C 0.90369 0.13817 0.56083 0.0
C63 C 0.82827 0.29669 0.61914 0.0
C64 C 0.81059 0.14692 0.62589 0.0
C65 C 0.77455 0.21895 0.55862 0.0
C66 C 0.93716 0.21052 0.63522 0.0
C67 C 0.92648 0.2654 0.55616 0.0
O68 O 0.90966 0.13879 0.58114 0.0
O69 O 0.60768 0.33924 0.04991 0.0
Zn70 Zn 0.62942 0.29125 0.05951 0.0
O71 O 0.62838 0.2875 0.09087 0.0
Zn72 Zn 0.68081 0.28156 0.10276 0.0
Zn73 Zn 0.60386 0.33043 0.10257 0.0
Zn74 Zn 0.59688 0.2465 0.09903 0.0
O75 O 0.68644 0.23255 0.11794 0.0
O76 O 0.63064 0.20594 0.10889 0.0
O77 O 0.68438 0.28716 0.04815 0.0
O78 O 0.71936 0.28158 0.07823 0.0
O79 O 0.69585 0.32489 0.12164 0.0
O80 O 0.64384 0.36008 0.11742 0.0
O81 O 0.56475 0.31847 0.12542 0.0
O82 O 0.59308 0.25476 0.0458 0.0
O83 O 0.56272 0.25849 0.12433 0.0
O84 O 0.56382 0.23006 0.07423 0.0
C85 C 0.58687 0.36313 0.05927 0.0
C86 C 0.66444 0.2046 0.11731 0.0
C87 C 0.67799 0.35483 0.12475 0.0
C88 C 0.71713 0.284 0.05772 0.0
C89 C 0.55244 0.28842 0.13281 0.0
C90 C 0.56684 0.23437 0.05388 0.0
O91 O 0.58029 0.36176 0.0795 0.0
O92 O 0.60924 0.66091 0.55053 0.0
Zn93 Zn 0.63025 0.70902 0.56046 0.0
O94 O 0.62748 0.71271 0.59176 0.0
Zn95 Zn 0.67907 0.71908 0.6045 0.0
Zn96 Zn 0.60288 0.66964 0.6031 0.0
Zn97 Zn 0.59511 0.75338 0.59938 0.0
O98 O 0.68327 0.76814 0.6197 0.0
O99 O 0.62815 0.79458 0.60922 0.0
O100 O 0.68574 0.71405 0.54989 0.0
O101 O 0.71879 0.71984 0.58061 0.0
O102 O 0.6938 0.67572 0.62344 0.0
O103 O 0.64269 0.63985 0.61803 0.0
O104 O 0.56356 0.68138 0.62594 0.0
O105 O 0.59407 0.7451 0.54627 0.0
O106 O 0.56084 0.74132 0.6246 0.0
O107 O 0.56223 0.76871 0.5742 0.0
C108 C 0.58752 0.63731 0.55952 0.0
C109 C 0.66137 0.7961 0.61835 0.0
C110 C 0.67634 0.64542 0.62596 0.0
C111 C 0.71784 0.71768 0.56006 0.0
C112 C 0.55091 0.7114 0.63321 0.0
C113 C 0.56661 0.7646 0.5539 0.0
O114 O 0.57977 0.63879 0.57963 0.0
O115 O 0.88459 0.84031 0.05148 0.0
Zn116 Zn 0.86297 0.79229 0.0608 0.0
O117 O 0.86334 0.78862 0.09212 0.0
Zn118 Zn 0.81053 0.78167 0.10339 0.0
Zn119 Zn 0.88692 0.83181 0.10414 0.0
Zn120 Zn 0.89587 0.74834 0.10029 0.0
O121 O 0.8056 0.73203 0.11804 0.0
O122 O 0.86285 0.70718 0.10985 0.0
O123 O 0.80846 0.78813 0.04888 0.0
O124 O 0.77256 0.78201 0.07857 0.0
O125 O 0.79436 0.82444 0.12256 0.0
O126 O 0.8462 0.86026 0.11918 0.0
O127 O 0.92571 0.82038 0.12728 0.0
O128 O 0.89998 0.7563 0.04723 0.0
O129 O 0.92868 0.76049 0.12603 0.0
O130 O 0.93042 0.73314 0.07573 0.0
C131 C 0.9046 0.86465 0.06093 0.0
C132 C 0.82871 0.70482 0.11779 0.0
C133 C 0.81199 0.85433 0.12623 0.0
C134 C 0.77542 0.78479 0.0581 0.0
C135 C 0.93813 0.79043 0.13474 0.0
C136 C 0.9272 0.73712 0.05536 0.0
O137 O 0.91043 0.86371 0.08125 0.0
O138 O 0.11071 0.84418 0.43777 0.0
Zn139 Zn 0.13115 0.7957 0.42826 0.0
O140 O 0.12823 0.7913 0.397 0.0
Zn141 Zn 0.17981 0.78488 0.38424 0.0
Zn142 Zn 0.10335 0.83402 0.38537 0.0
Zn143 Zn 0.09604 0.75028 0.38981 0.0
O144 O 0.1842 0.73544 0.36946 0.0
O145 O 0.12924 0.709 0.38021 0.0
O146 O 0.1866 0.79074 0.43879 0.0
O147 O 0.21964 0.78493 0.40807 0.0
O148 O 0.19425 0.82784 0.36489 0.0
O149 O 0.14285 0.86352 0.36994 0.0
O150 O 0.06349 0.82159 0.36298 0.0
O151 O 0.09467 0.76034 0.44287 0.0
O152 O 0.06137 0.76164 0.36466 0.0
O153 O 0.06327 0.73556 0.41518 0.0
C154 C 0.08888 0.86757 0.42869 0.0
C155 C 0.16244 0.70743 0.37106 0.0
C156 C 0.17656 0.85795 0.36206 0.0
C157 C 0.21871 0.78729 0.42861 0.0
C158 C 0.05092 0.79135 0.35599 0.0
C159 C 0.06736 0.7405 0.43543 0.0
O160 O 0.08066 0.86551 0.40866 0.0
O161 O 0.38703 0.6652 0.93882 0.0
Zn162 Zn 0.36473 0.71267 0.92867 0.0
O163 O 0.3658 0.71522 0.89726 0.0
Zn164 Zn 0.31332 0.71937 0.88533 0.0
Zn165 Zn 0.39167 0.67262 0.88604 0.0
Zn166 Zn 0.39609 0.75671 0.88859 0.0
O167 O 0.3064 0.76761 0.8695 0.0
O168 O 0.36101 0.79628 0.87862 0.0
O169 O 0.30968 0.71712 0.94013 0.0
O170 O 0.27496 0.71993 0.90984 0.0
O171 O 0.29928 0.6749 0.86715 0.0
O172 O 0.35278 0.64158 0.87125 0.0
O173 O 0.43048 0.68481 0.86304 0.0
O174 O 0.40112 0.74974 0.94178 0.0
O175 O 0.42975 0.74483 0.86308 0.0
O176 O 0.42966 0.77407 0.91301 0.0
C177 C 0.40876 0.64163 0.92981 0.0
C178 C 0.3273 0.79629 0.87001 0.0
C179 C 0.31835 0.64562 0.86406 0.0
C180 C 0.27698 0.71909 0.93039 0.0
C181 C 0.44121 0.71494 0.85504 0.0
C182 C 0.42712 0.77008 0.93342 0.0
O183 O 0.41576 0.64267 0.9096 0.0
C184 C 0.23715 0.89037 0.34982 0.0
C185 C 0.19636 0.88892 0.35152 0.0
C186 C 0.25568 0.92294 0.34433 0.0
C187 C 0.23732 0.01868 0.32633 0.0
H188 H 0.31992 0.04018 0.36705 0.0
C189 C 0.27691 0.16347 0.35554 0.0
C190 C 0.31631 0.17092 0.35985 0.0
C191 C 0.26539 0.12865 0.34911 0.0
C192 C 0.29738 0.03455 0.35527 0.0
H193 H 0.14294 0.9194 0.34664 0.0
H194 H 0.17496 0.97577 0.33757 0.0
H195 H 0.29562 0.9787 0.36411 0.0
H196 H 0.37479 0.14833 0.35925 0.0
H197 H 0.35472 0.08815 0.34796 0.0
H198 H 0.23806 0.07528 0.31836 0.0
C199 C 0.19291 0.95208 0.34034 0.0
C200 C 0.28353 0.99913 0.35349 0.0
C201 C 0.17448 0.91968 0.34576 0.0
C202 C 0.34408 0.14343 0.35645 0.0
C203 C 0.33262 0.10885 0.35 0.0
C204 C 0.25105 0.05427 0.32823 0.0
C205 C 0.23375 0.95457 0.34043 0.0
C206 C 0.25271 0.99084 0.33937 0.0
C207 C 0.29309 0.10075 0.34682 0.0
C208 C 0.28073 0.06268 0.34303 0.0
H209 H 0.25482 0.86709 0.35402 0.0
H210 H 0.28723 0.92374 0.3441 0.0
H211 H 0.21393 0.01316 0.31505 0.0
H212 H 0.25483 0.18407 0.35796 0.0
H213 H 0.23464 0.12317 0.3469 0.0
C214 C 0.21926 0.33325 0.8542 0.0
C215 C 0.18134 0.33013 0.86259 0.0
C216 C 0.23372 0.36708 0.84777 0.0
C217 C 0.20397 0.46272 0.8362 0.0
H218 H 0.30766 0.48481 0.85714 0.0
C219 C 0.25984 0.60698 0.85633 0.0
C220 C 0.29983 0.61383 0.85381 0.0
C221 C 0.2446 0.57278 0.85126 0.0
C222 C 0.27894 0.47901 0.85075 0.0
H223 H 0.1284 0.36005 0.86995 0.0
H224 H 0.15377 0.41857 0.85929 0.0
H225 H 0.2833 0.42326 0.85967 0.0
H226 H 0.35437 0.59188 0.84184 0.0
H227 H 0.32769 0.53278 0.83258 0.0
H228 H 0.19924 0.51913 0.82818 0.0
C229 C 0.17225 0.39501 0.85731 0.0
C230 C 0.26496 0.44359 0.85219 0.0
C231 C 0.15782 0.36133 0.86365 0.0
C232 C 0.3235 0.58716 0.84427 0.0
C233 C 0.30829 0.55324 0.83907 0.0
C234 C 0.21792 0.49829 0.83486 0.0
C235 C 0.21058 0.39847 0.84962 0.0
C236 C 0.22702 0.4351 0.84534 0.0
C237 C 0.26912 0.54508 0.84346 0.0
C238 C 0.25535 0.50693 0.84246 0.0
H239 H 0.23806 0.30975 0.85301 0.0
H240 H 0.26323 0.36872 0.84164 0.0
H241 H 0.1748 0.45699 0.83045 0.0
H242 H 0.24097 0.62701 0.86372 0.0
H243 H 0.21428 0.56732 0.85488 0.0
C244 C 0.6744 0.58358 0.64208 0.0
C245 C 0.69625 0.61435 0.63632 0.0
C246 C 0.69286 0.55117 0.64744 0.0
C247 C 0.78328 0.50404 0.63407 0.0
H248 H 0.73815 0.42811 0.66952 0.0
C249 C 0.84365 0.35962 0.63128 0.0
C250 C 0.81582 0.33211 0.62809 0.0
C251 C 0.83229 0.39429 0.63762 0.0
C252 C 0.75105 0.44907 0.65956 0.0
H253 H 0.75468 0.6362 0.63368 0.0
H254 H 0.78717 0.57948 0.64345 0.0
H255 H 0.71413 0.49028 0.67281 0.0
H256 H 0.75434 0.31907 0.63021 0.0
H257 H 0.73431 0.38012 0.64106 0.0
H258 H 0.81946 0.46288 0.62043 0.0
C259 C 0.75562 0.58031 0.64331 0.0
C260 C 0.73738 0.48467 0.66145 0.0
C261 C 0.73705 0.6129 0.6379 0.0
C262 C 0.77645 0.33967 0.63246 0.0
C263 C 0.76503 0.37458 0.63878 0.0
C264 C 0.79706 0.46859 0.63229 0.0
C265 C 0.7337 0.54868 0.64726 0.0
C266 C 0.75265 0.51242 0.64831 0.0
C267 C 0.79279 0.40246 0.64089 0.0
C268 C 0.78053 0.44055 0.64464 0.0
H269 H 0.64286 0.58388 0.64129 0.0
H270 H 0.67494 0.52748 0.65023 0.0
H271 H 0.79526 0.52442 0.62338 0.0
H272 H 0.87434 0.35465 0.62842 0.0
H273 H 0.85443 0.41497 0.6395 0.0
C274 C 0.7151 0.16562 0.13549 0.0
C275 C 0.67819 0.16931 0.1259 0.0
C276 C 0.72831 0.13156 0.14232 0.0
C277 C 0.69564 0.03619 0.15254 0.0
H278 H 0.80158 0.01297 0.13592 0.0
C279 C 0.75249 0.892 0.13302 0.0
C280 C 0.79201 0.8848 0.137 0.0
C281 C 0.73678 0.926 0.13818 0.0
C282 C 0.77216 0.01907 0.14111 0.0
H283 H 0.62579 0.1401 0.11662 0.0
H284 H 0.64909 0.08119 0.12789 0.0
H285 H 0.77852 0.07481 0.13258 0.0
H286 H 0.84485 0.90553 0.15168 0.0
H287 H 0.81729 0.96424 0.16112 0.0
H288 H 0.689 0.97973 0.16005 0.0
C289 C 0.66766 0.10449 0.13059 0.0
C290 C 0.75892 0.05468 0.13921 0.0
C291 C 0.65443 0.1384 0.1239 0.0
C292 C 0.81439 0.9106 0.14817 0.0
C293 C 0.7987 0.94429 0.15346 0.0
C294 C 0.70886 1.00041 0.1543 0.0
C295 C 0.70495 0.10047 0.13962 0.0
C296 C 0.72026 0.0636 0.14446 0.0
C297 C 0.76037 0.95306 0.1475 0.0
C298 C 0.74709 0.99138 0.14825 0.0
H299 H 0.73402 0.18889 0.13744 0.0
H300 H 0.75702 0.12952 0.14947 0.0
H301 H 0.66586 0.04222 0.15708 0.0
H302 H 0.73467 0.87264 0.12433 0.0
H303 H 0.70713 0.93196 0.13336 0.0
C304 C 0.81256 0.09013 0.64736 0.0
C305 C 0.79039 0.11626 0.63634 0.0
C306 C 0.79653 0.05652 0.65254 0.0
C307 C 0.70596 1.00136 0.65339 0.0
H308 H 0.77515 0.92588 0.63252 0.0
C309 C 0.6511 0.86249 0.62429 0.0
C310 C 0.67477 0.83162 0.62678 0.0
C311 C 0.66428 0.89661 0.63065 0.0
C312 C 0.75566 0.94634 0.63891 0.0
H313 H 0.73318 0.12902 0.62371 0.0
H314 H 0.70508 0.06981 0.63248 0.0
H315 H 0.79871 0.98762 0.63535 0.0
H316 H 0.73032 0.81234 0.63892 0.0
H317 H 0.75323 0.87204 0.65034 0.0
H318 H 0.66256 0.95994 0.65642 0.0
C319 C 0.7348 0.07546 0.63732 0.0
C320 C 0.76919 0.98189 0.64051 0.0
C321 C 0.75082 0.10939 0.6323 0.0
C322 C 0.71146 0.83556 0.63659 0.0
C323 C 0.72464 0.86981 0.64306 0.0
C324 C 0.69243 0.96564 0.6519 0.0
C325 C 0.7581 0.04813 0.64658 0.0
C326 C 0.74434 0.00995 0.6474 0.0
C327 C 0.70146 0.90085 0.6398 0.0
C328 C 0.71691 0.93783 0.64419 0.0
H329 H 0.84305 0.09492 0.65092 0.0
H330 H 0.81493 0.03638 0.66017 0.0
H331 H 0.68625 0.02232 0.65895 0.0
H332 H 0.6226 0.86057 0.61685 0.0
H333 H 0.64584 0.91986 0.62756 0.0
C334 C 0.84398 0.64152 0.1292 0.0
C335 C 0.8162 0.66918 0.12638 0.0
C336 C 0.83262 0.60675 0.13531 0.0
C337 C 0.752 0.5518 0.15758 0.0
H338 H 0.79533 0.47684 0.12076 0.0
C339 C 0.67599 0.41652 0.14109 0.0
C340 C 0.69795 0.38601 0.13496 0.0
C341 C 0.69429 0.44912 0.14621 0.0
C342 C 0.78362 0.49711 0.13163 0.0
H343 H 0.75478 0.68234 0.12888 0.0
H344 H 0.73475 0.62108 0.13936 0.0
H345 H 0.81907 0.53851 0.11767 0.0
H346 H 0.75651 0.36478 0.13149 0.0
H347 H 0.78872 0.42179 0.14088 0.0
H348 H 0.71587 0.51035 0.1712 0.0
C349 C 0.76544 0.6266 0.13695 0.0
C350 C 0.79712 0.53262 0.12976 0.0
C351 C 0.77687 0.66162 0.13084 0.0
C352 C 0.73878 0.38788 0.13599 0.0
C353 C 0.75719 0.42064 0.14118 0.0
C354 C 0.73863 0.51612 0.15957 0.0
C355 C 0.79316 0.59862 0.13873 0.0
C356 C 0.78093 0.56051 0.14238 0.0
C357 C 0.73507 0.45204 0.14544 0.0
C358 C 0.75363 0.48849 0.14623 0.0
H359 H 0.87465 0.64645 0.12626 0.0
H360 H 0.85473 0.58596 0.13694 0.0
H361 H 0.73938 0.57265 0.16773 0.0
H362 H 0.64443 0.4159 0.14074 0.0
H363 H 0.6762 0.47262 0.14927 0.0
C364 C 0.31389 0.41316 0.34201 0.0
C365 C 0.29166 0.38685 0.35285 0.0
C366 C 0.2979 0.44686 0.33702 0.0
C367 C 0.20726 0.502 0.33637 0.0
H368 H 0.27644 0.57738 0.35732 0.0
C369 C 0.15238 0.64092 0.36549 0.0
C370 C 0.17597 0.6718 0.36284 0.0
C371 C 0.16562 0.60675 0.35924 0.0
C372 C 0.25695 0.55694 0.35093 0.0
H373 H 0.23439 0.37395 0.36537 0.0
H374 H 0.20637 0.43331 0.35693 0.0
H375 H 0.30002 0.51564 0.35439 0.0
H376 H 0.23147 0.69103 0.35059 0.0
H377 H 0.25449 0.63123 0.33938 0.0
H378 H 0.16385 0.54344 0.33345 0.0
C379 C 0.23611 0.42773 0.35209 0.0
C380 C 0.27049 0.5214 0.34925 0.0
C381 C 0.25209 0.39371 0.35692 0.0
C382 C 0.21267 0.6678 0.35303 0.0
C383 C 0.2259 0.6335 0.34668 0.0
C384 C 0.19372 0.5377 0.33795 0.0
C385 C 0.25945 0.45519 0.343 0.0
C386 C 0.24566 0.49338 0.34231 0.0
C387 C 0.20277 0.60247 0.35006 0.0
C388 C 0.2182 0.56548 0.34568 0.0
H389 H 0.34438 0.40839 0.33844 0.0
H390 H 0.31633 0.4671 0.32951 0.0
H391 H 0.18755 0.48108 0.33077 0.0
H392 H 0.12389 0.64287 0.37294 0.0
H393 H 0.14722 0.5835 0.36242 0.0
C394 C 0.16957 0.0873 0.84266 0.0
C395 C 0.19338 0.11366 0.85238 0.0
C396 C 0.18468 0.0535 0.83706 0.0
C397 C 0.27494 0.99838 0.83233 0.0
H398 H 0.20978 0.92336 0.85734 0.0
C399 C 0.33558 0.86224 0.86193 0.0
C400 C 0.31223 0.83092 0.86115 0.0
C401 C 0.321 0.89567 0.85525 0.0
C402 C 0.22805 0.94367 0.84979 0.0
H403 H 0.2524 0.12652 0.86213 0.0
H404 H 0.2789 0.06707 0.85259 0.0
H405 H 0.18529 0.98484 0.85474 0.0
H406 H 0.25567 0.81003 0.85169 0.0
H407 H 0.23023 0.86858 0.83974 0.0
H408 H 0.31815 0.95713 0.82796 0.0
C409 C 0.24855 0.07266 0.84914 0.0
C410 C 0.21399 0.97907 0.84831 0.0
C411 C 0.23341 0.10673 0.85462 0.0
C412 C 0.27434 0.83364 0.85268 0.0
C413 C 0.25973 0.86723 0.84591 0.0
C414 C 0.28897 0.96283 0.83371 0.0
C415 C 0.22389 0.04518 0.84122 0.0
C416 C 0.23754 0.007 0.84001 0.0
C417 C 0.28269 0.89877 0.8475 0.0
C418 C 0.26603 0.93523 0.84297 0.0
H419 H 0.13867 0.0921 0.84044 0.0
H420 H 0.16516 0.03322 0.83049 0.0
H421 H 0.29359 0.01923 0.82563 0.0
H422 H 0.36498 0.86125 0.86827 0.0
H423 H 0.33936 0.91936 0.85704 0.0
C424 C 0.416 0.39401 0.46406 0.0
C425 C 0.42182 0.3932 0.44156 0.0
C426 C 0.43398 0.42045 0.47673 0.0
C427 C 0.48007 0.51057 0.47396 0.0
H428 H 0.52636 0.48208 0.52857 0.0
C429 C 0.5766 0.60729 0.52371 0.0
C430 C 0.5701 0.60826 0.54615 0.0
C431 C 0.55907 0.58071 0.51094 0.0
C432 C 0.51324 0.49051 0.51346 0.0
H433 H 0.45084 0.41986 0.41474 0.0
H434 H 0.48243 0.46585 0.43692 0.0
H435 H 0.4941 0.43669 0.50619 0.0
H436 H 0.54041 0.58168 0.57277 0.0
H437 H 0.50967 0.53542 0.55043 0.0
H438 H 0.49923 0.56439 0.48124 0.0
C439 C 0.46363 0.4462 0.4447 0.0
C440 C 0.49474 0.46454 0.50065 0.0
C441 C 0.44565 0.41973 0.43201 0.0
C442 C 0.54608 0.58172 0.55555 0.0
C443 C 0.52861 0.55509 0.54277 0.0
C444 C 0.4986 0.53653 0.48676 0.0
C445 C 0.45818 0.4467 0.46722 0.0
C446 C 0.4779 0.4743 0.48078 0.0
C447 C 0.53471 0.55445 0.52031 0.0
C448 C 0.51534 0.52678 0.50666 0.0
H449 H 0.39773 0.37407 0.47196 0.0
H450 H 0.42874 0.42046 0.49399 0.0
H451 H 0.4669 0.51903 0.45887 0.0
H452 H 0.59502 0.62724 0.51592 0.0
H453 H 0.56476 0.5806 0.49372 0.0
C454 C 0.91628 0.89502 0.02536 0.0
C455 C 0.92234 0.89385 0.04783 0.0
C456 C 0.93408 0.92165 0.01279 0.0
C457 C 0.97998 0.01171 0.01574 0.0
H458 H 0.02561 0.98371 0.96084 0.0
C459 C 0.07537 0.1089 0.96565 0.0
C460 C 0.06869 0.10983 0.94323 0.0
C461 C 0.05799 0.08232 0.97847 0.0
C462 C 0.01265 0.992 0.97602 0.0
H463 H 0.95159 0.92009 0.07472 0.0
H464 H 0.98291 0.96649 0.05266 0.0
H465 H 0.99399 0.93806 0.9833 0.0
H466 H 0.03875 0.08329 0.91669 0.0
H467 H 0.00822 0.03701 0.93914 0.0
H468 H -0.00134 0.06566 0.00845 0.0
C469 C 0.96406 0.94693 0.04485 0.0
C470 C 0.99454 0.96588 0.98888 0.0
C471 C 0.94623 0.92025 0.05746 0.0
C472 C 0.04456 0.08333 0.9339 0.0
C473 C 0.02721 0.0567 0.94673 0.0
C474 C -0.00188 0.03783 0.00288 0.0
C475 C 0.95837 0.94774 0.02236 0.0
C476 C 0.97792 0.97548 0.00885 0.0
C477 C 0.03358 0.05605 0.96917 0.0
C478 C 0.01458 0.02825 0.98287 0.0
H479 H 0.89792 0.87521 0.0174 0.0
H480 H 0.92863 0.92193 -0.00446 0.0
H481 H 0.96698 0.02001 0.03091 0.0
H482 H 0.09389 0.12882 0.97339 0.0
H483 H 0.06388 0.0822 -0.00433 0.0
C484 C 0.91511 0.10833 0.52506 0.0
C485 C 0.92176 0.10946 0.54748 0.0
C486 C 0.93329 0.08223 0.51224 0.0
C487 C 0.01812 0.02152 0.51097 0.0
H488 H 0.96034 0.97264 0.46566 0.0
C489 C 0.07924 0.8988 0.46422 0.0
C490 C 0.07173 0.89694 0.44191 0.0
C491 C 0.06174 0.92549 0.47692 0.0
C492 C 0.97699 0.9864 0.47806 0.0
H493 H 0.95243 0.08366 0.57403 0.0
H494 H 0.98396 0.03786 0.55159 0.0
H495 H 0.92747 0.01698 0.4885 0.0
H496 H 0.04055 0.92225 0.41537 0.0
H497 H 0.01031 0.96906 0.43755 0.0
H498 H 0.06766 0.99093 0.50052 0.0
C499 C 0.96498 0.05751 0.54395 0.0
C500 C 0.95815 0.01172 0.49117 0.0
C501 C 0.9467 0.0836 0.55681 0.0
C502 C 0.04684 0.92278 0.43252 0.0
C503 C 0.02932 0.94948 0.44524 0.0
C504 C 0.03698 0.9962 0.49785 0.0
C505 C 0.95858 0.05668 0.52152 0.0
C506 C 0.97851 0.02952 0.50777 0.0
C507 C 0.03635 0.95093 0.4676 0.0
C508 C 0.0166 0.97835 0.48127 0.0
H509 H 0.89614 0.12787 0.51731 0.0
H510 H 0.92814 0.08252 0.49497 0.0
H511 H 0.03472 0.03523 0.52341 0.0
H512 H 0.09823 0.87931 0.472 0.0
H513 H 0.0674 0.92565 0.49414 0.0
C514 C 0.42086 0.61223 0.96568 0.0
C515 C 0.42676 0.61292 0.94319 0.0
C516 C 0.43839 0.58555 0.97838 0.0
C517 C 0.51985 0.52049 0.97859 0.0
H518 H 0.46102 0.4744 0.02452 0.0
C519 C 0.57546 0.39407 0.02379 0.0
C520 C 0.56953 0.39269 0.04627 0.0
C521 C 0.55853 0.42152 0.01144 0.0
C522 C 0.47797 0.48733 0.01192 0.0
H523 H 0.45553 0.58587 0.91641 0.0
H524 H 0.48576 0.53911 0.93859 0.0
H525 H 0.43017 0.52095 0.0024 0.0
H526 H 0.54144 0.41938 0.07339 0.0
H527 H 0.51218 0.46745 0.0518 0.0
H528 H 0.56763 0.4868 0.98808 0.0
C529 C 0.46798 0.55953 0.94641 0.0
C530 C 0.4603 0.51397 -0.00075 0.0
C531 C 0.45046 0.58621 0.93369 0.0
C532 C 0.5465 0.41955 0.05611 0.0
C533 C 0.52955 0.44699 0.04374 0.0
C534 C 0.53752 0.49385 0.99126 0.0
C535 C 0.46221 0.55897 0.96889 0.0
C536 C 0.48103 0.53078 0.98242 0.0
C537 C 0.53529 0.4482 0.02126 0.0
C538 C 0.51675 0.47693 0.00803 0.0
H539 H 0.40292 0.63246 0.97355 0.0
H540 H 0.43377 0.5861 -0.0043 0.0
H541 H 0.53678 0.53337 0.96596 0.0
H542 H 0.59295 0.37378 0.01566 0.0
H543 H 0.5631 0.42145 0.99411 0.0
C544 C 0.52262 0.3209 0.16418 0.0
C545 C 0.53111 0.28813 0.15356 0.0
C546 C 0.51033 0.32084 0.18567 0.0
C547 C 0.52109 0.26537 0.23414 0.0
H548 H 0.44585 0.33203 0.25875 0.0
C549 C 0.46805 0.25911 0.32261 0.0
C550 C 0.45931 0.29199 0.33304 0.0
C551 C 0.4796 0.25885 0.30099 0.0
C552 C 0.46738 0.31363 0.25214 0.0
H553 H 0.53007 0.22949 0.15661 0.0
H554 H 0.50815 0.22949 0.19406 0.0
H555 H 0.45495 0.33002 0.21968 0.0
H556 H 0.45919 0.35056 0.32948 0.0
H557 H 0.48 0.35002 0.29185 0.0
H558 H 0.53365 0.24907 0.26659 0.0
C559 C 0.51189 0.2552 0.18587 0.0
C560 C 0.47237 0.31234 0.22977 0.0
C561 C 0.52411 0.25524 0.16435 0.0
C562 C 0.46532 0.32472 0.32189 0.0
C563 C 0.47689 0.32443 0.30027 0.0
C564 C 0.51613 0.26669 0.25651 0.0
C565 C 0.50626 0.28802 0.19695 0.0
C566 C 0.49928 0.2882 0.22055 0.0
C567 C 0.48275 0.29145 0.28939 0.0
C568 C 0.48929 0.29089 0.26574 0.0
H569 H 0.52751 0.34673 0.15631 0.0
H570 H 0.50624 0.34657 0.19379 0.0
H571 H 0.54263 0.247 0.22752 0.0
H572 H 0.46385 0.2334 0.33073 0.0
H573 H 0.48386 0.23298 0.29304 0.0
C574 C 0.02274 0.24757 0.82495 0.0
C575 C 0.02937 0.21458 0.83571 0.0
C576 C 0.01012 0.24778 0.80351 0.0
C577 C 0.96927 0.1911 0.75974 0.0
H578 H 0.03137 0.25342 0.72275 0.0
C579 C 0.96287 0.17786 0.66763 0.0
C580 C 0.95738 0.2105 0.65631 0.0
C581 C 0.97406 0.1783 0.6893 0.0
C582 C 0.01361 0.23608 0.73288 0.0
H583 H 0.02461 0.15605 0.83303 0.0
H584 H 0.00269 0.1565 0.79567 0.0
H585 H 0.04045 0.25559 0.76181 0.0
H586 H 0.96238 0.26909 0.6584 0.0
H587 H 0.98178 0.26977 0.69619 0.0
H588 H 0.94249 0.17155 0.73081 0.0
C589 C 0.00736 0.18218 0.80376 0.0
C590 C 0.01862 0.23746 0.75524 0.0
C591 C 0.02003 0.18195 0.82518 0.0
C592 C 0.9662 0.24344 0.66665 0.0
C593 C 0.97739 0.24386 0.68833 0.0
C594 C 0.96424 0.18974 0.73738 0.0
C595 C 0.00372 0.21504 0.79248 0.0
C596 C -0.00345 0.21494 0.76889 0.0
C597 C 0.98008 0.21136 0.70006 0.0
C598 C 0.98646 0.21213 0.72372 0.0
H599 H 0.02931 0.27323 0.83264 0.0
H600 H 0.0067 0.27354 0.79533 0.0
H601 H 0.95164 0.17367 0.76988 0.0
H602 H 0.95663 0.15198 0.66011 0.0
H603 H 0.9768 0.15279 0.69783 0.0
C604 C 0.46751 0.74779 0.82282 0.0
C605 C 0.46174 0.71507 0.83403 0.0
C606 C 0.47876 0.74749 0.80114 0.0
C607 C 0.47027 0.6889 0.75368 0.0
H608 H 0.53971 0.75864 0.727 0.0
C609 C 0.52364 0.67933 0.66544 0.0
C610 C 0.52986 0.71182 0.65406 0.0
C611 C 0.51187 0.68008 0.68702 0.0
C612 C 0.51975 0.73935 0.73419 0.0
H613 H 0.46671 0.65649 0.8318 0.0
H614 H 0.48692 0.65611 0.79408 0.0
H615 H 0.53155 0.75865 0.76616 0.0
H616 H 0.52518 0.77045 0.65587 0.0
H617 H 0.50406 0.77161 0.69345 0.0
H618 H 0.45849 0.66957 0.72173 0.0
C619 C 0.48173 0.68192 0.80193 0.0
C620 C 0.51529 0.73923 0.75661 0.0
C621 C 0.47048 0.68219 0.8236 0.0
C622 C 0.52103 0.74492 0.66421 0.0
C623 C 0.50927 0.74564 0.68579 0.0
C624 C 0.47472 0.68902 0.73126 0.0
C625 C 0.48456 0.71449 0.79028 0.0
C626 C 0.49059 0.71394 0.76659 0.0
C627 C 0.50599 0.7133 0.69763 0.0
C628 C 0.49952 0.71424 0.72129 0.0
H629 H 0.46115 0.77361 0.83038 0.0
H630 H 0.48069 0.77304 0.79259 0.0
H631 H 0.45037 0.66956 0.76087 0.0
H632 H 0.53001 0.65334 0.6581 0.0
H633 H 0.50963 0.65469 0.69572 0.0
C634 C 0.96531 0.75716 0.16656 0.0
C635 C 0.95821 0.79015 0.15587 0.0
C636 C 0.97616 0.75687 0.18829 0.0
C637 C 0.96493 0.81299 0.23672 0.0
H638 H 0.03789 0.74517 0.26224 0.0
C639 C 0.0211 0.82286 0.32429 0.0
C640 C 0.02906 0.79048 0.33542 0.0
C641 C 0.00834 0.82198 0.30289 0.0
C642 C 0.01694 0.76386 0.25538 0.0
H643 H 0.96029 0.84873 0.15911 0.0
H644 H 0.97991 0.84812 0.19692 0.0
H645 H 0.02909 0.74608 0.22314 0.0
H646 H 0.02649 0.73175 0.33342 0.0
H647 H 0.00373 0.73032 0.29614 0.0
H648 H 0.95294 0.83091 0.26895 0.0
C649 C 0.97602 0.82252 0.18862 0.0
C650 C 0.0121 0.76452 0.23299 0.0
C651 C 0.96515 0.82283 0.1669 0.0
C652 C 0.02099 0.75721 0.32526 0.0
C653 C 0.00827 0.75635 0.30385 0.0
C654 C 0.96978 0.81235 0.2591 0.0
C655 C 0.98024 0.78954 0.19973 0.0
C656 C 0.98621 0.78923 0.22343 0.0
C657 C 0.00322 0.78871 0.29223 0.0
C658 C 0.99593 0.78787 0.26865 0.0
H659 H 0.96032 0.73148 0.15854 0.0
H660 H 0.97918 0.73102 0.19642 0.0
H661 H 0.9441 0.83179 0.22985 0.0
H662 H 0.02681 0.84897 0.33165 0.0
H663 H 0.00474 0.84738 0.29434 0.0
C664 C 0.4913 0.20582 0.43748 0.0
C665 C 0.45834 0.22242 0.4467 0.0
C666 C 0.52456 0.19937 0.44989 0.0
C667 C 0.56359 0.19552 0.50556 0.0
H668 H 0.65731 0.23388 0.47897 0.0
C669 C 0.7022 0.22599 0.55495 0.0
C670 C 0.73852 0.21843 0.54544 0.0
C671 C 0.66794 0.2236 0.54284 0.0
C672 C 0.63163 0.22248 0.48654 0.0
H673 H 0.43349 0.24253 0.47667 0.0
H674 H 0.49154 0.23112 0.49831 0.0
H675 H 0.59712 0.23135 0.45827 0.0
H676 H 0.76725 0.20243 0.51568 0.0
H677 H 0.7075 0.19771 0.49467 0.0
H678 H 0.59811 0.18678 0.53388 0.0
C679 C 0.49164 0.22323 0.48145 0.0
C680 C 0.5971 0.22101 0.47466 0.0
C681 C 0.45839 0.22985 0.46901 0.0
C682 C 0.73981 0.20872 0.52348 0.0
C683 C 0.70551 0.2061 0.51141 0.0
C684 C 0.59824 0.19676 0.51742 0.0
C685 C 0.52552 0.20915 0.47183 0.0
C686 C 0.56263 0.20783 0.48409 0.0
C687 C 0.66913 0.21336 0.52096 0.0
C688 C 0.6326 0.21063 0.50813 0.0
H689 H 0.49223 0.19945 0.42039 0.0
H690 H 0.55003 0.18786 0.44215 0.0
H691 H 0.53754 0.18496 0.51318 0.0
H692 H 0.70013 0.2337 0.5718 0.0
H693 H 0.64054 0.23008 0.55062 0.0
C694 C 0.03557 0.27316 0.97095 0.0
C695 C 0.03646 0.28198 0.94883 0.0
C696 C 0.00228 0.2801 0.9833 0.0
C697 C 0.89732 0.28551 0.9756 0.0
H698 H 0.89506 0.31544 0.03563 0.0
C699 C 0.7532 0.29629 0.02323 0.0
C700 C 0.7536 0.2851 0.04494 0.0
C701 C 0.78795 0.29941 0.0116 0.0
C702 C 0.89525 0.30667 0.01893 0.0
H703 H 0.00425 0.30794 0.92288 0.0
H704 H 0.94638 0.32007 0.94449 0.0
H705 H 0.95638 0.31746 0.01559 0.0
H706 H 0.79085 0.26771 0.07132 0.0
H707 H 0.85123 0.27208 0.05087 0.0
H708 H 0.83673 0.27352 0.97897 0.0
C709 C 0.97119 0.30721 0.95213 0.0
C710 C 0.93034 0.30804 0.00745 0.0
C711 C 0.00449 0.30043 0.9398 0.0
C712 C 0.78949 0.27658 0.05465 0.0
C713 C 0.8242 0.27941 0.04297 0.0
C714 C 0.86237 0.28387 0.98709 0.0
C715 C 0.96923 0.29592 0.97378 0.0
C716 C 0.93175 0.29727 0.98569 0.0
C717 C 0.82391 0.29111 0.02135 0.0
C718 C 0.86092 0.29417 0.00895 0.0
H719 H 0.05971 0.25906 0.97846 0.0
H720 H 0.0016 0.27104 -5e-05 0.0
H721 H 0.89764 0.27635 0.95896 0.0
H722 H 0.7261 0.30339 0.01532 0.0
H723 H 0.78665 0.30895 -0.00493 0.0
C724 C 0.95585 0.27388 0.51941 0.0
C725 C 0.95819 0.27858 0.54192 0.0
C726 C 0.98855 0.27949 0.50638 0.0
C727 C 0.08963 0.3163 0.50564 0.0
H728 H 0.10634 0.23921 0.46401 0.0
C729 C 0.23901 0.28962 0.46509 0.0
C730 C 0.23854 0.28232 0.44278 0.0
C731 C 0.20418 0.29127 0.47682 0.0
C732 C 0.10194 0.26117 0.47538 0.0
H733 H 0.99608 0.29546 0.56816 0.0
H734 H 0.05308 0.30473 0.54551 0.0
H735 H 0.04579 0.24132 0.4844 0.0
H736 H 0.20101 0.27059 0.4154 0.0
H737 H 0.14056 0.27341 0.43583 0.0
H738 H 0.14634 0.33562 0.49681 0.0
C739 C 0.02596 0.29693 0.53787 0.0
C740 C 0.06712 0.26251 0.48701 0.0
C741 C 0.9932 0.29151 0.55089 0.0
C742 C 0.20253 0.27621 0.43256 0.0
C743 C 0.16782 0.2777 0.44428 0.0
C744 C 0.12459 0.31487 0.49403 0.0
C745 C 0.02437 0.28977 0.51557 0.0
C746 C 0.06054 0.29002 0.50233 0.0
C747 C 0.16821 0.28543 0.46651 0.0
C748 C 0.13114 0.28721 0.47883 0.0
H749 H 0.92925 0.2643 0.51193 0.0
H750 H 0.98609 0.27461 0.48917 0.0
H751 H 0.08534 0.33804 0.51716 0.0
H752 H 0.26621 0.29452 0.47348 0.0
H753 H 0.20542 0.29684 0.49399 0.0
C754 C 0.504 0.20108 0.04869 0.0
C755 C 0.53583 0.21976 0.03968 0.0
C756 C 0.47092 0.19385 0.0363 0.0
C757 C 0.43048 0.19189 0.98098 0.0
H758 H 0.33656 0.22669 0.00907 0.0
C759 C 0.28979 0.22223 0.93341 0.0
C760 C 0.25384 0.2142 0.94321 0.0
C761 C 0.32446 0.21942 0.9451 0.0
C762 C 0.36228 0.21623 0.00107 0.0
H763 H 0.55911 0.24266 0.01004 0.0
H764 H 0.50132 0.22989 0.98844 0.0
H765 H 0.39733 0.22448 0.02918 0.0
H766 H 0.22619 0.19662 0.97295 0.0
H767 H 0.28669 0.19101 0.99321 0.0
H768 H 0.3954 0.18372 0.95281 0.0
C769 C 0.50197 0.221 0.00512 0.0
C770 C 0.39715 0.21497 0.01262 0.0
C771 C 0.53506 0.2284 0.01754 0.0
C772 C 0.25334 0.20337 0.96498 0.0
C773 C 0.28807 0.20023 0.97661 0.0
C774 C 0.39545 0.19285 0.96945 0.0
C775 C 0.46904 0.20492 0.01462 0.0
C776 C 0.43168 0.20313 0.00265 0.0
C777 C 0.32408 0.20819 0.96682 0.0
C778 C 0.36101 0.20544 0.97929 0.0
H779 H 0.5037 0.19368 0.06563 0.0
H780 H 0.44618 0.18081 0.04392 0.0
H781 H 0.45663 0.18243 0.97296 0.0
H782 H 0.29119 0.2308 0.91669 0.0
H783 H 0.35154 0.22647 0.93715 0.0
C784 C 0.50153 0.79332 0.54745 0.0
C785 C 0.53609 0.77836 0.53909 0.0
C786 C 0.46966 0.79984 0.53398 0.0
C787 C 0.42833 0.76567 0.48313 0.0
H788 H 0.35222 0.8419 0.49215 0.0
C789 C 0.29134 0.78078 0.42987 0.0
C790 C 0.25599 0.78752 0.44067 0.0
C791 C 0.32673 0.78236 0.44094 0.0
C792 C 0.37315 0.82035 0.48956 0.0
H793 H 0.56531 0.76143 0.50965 0.0
H794 H 0.50999 0.77363 0.48608 0.0
H795 H 0.41338 0.84288 0.51234 0.0
H796 H 0.23025 0.80119 0.47167 0.0
H797 H 0.29217 0.80374 0.49103 0.0
H798 H 0.38803 0.74302 0.46049 0.0
C799 C 0.50717 0.77932 0.50318 0.0
C800 C 0.40818 0.82092 0.50108 0.0
C801 C 0.539 0.7726 0.51668 0.0
C802 C 0.2569 0.79576 0.46286 0.0
C803 C 0.29238 0.79755 0.47391 0.0
C804 C 0.39345 0.76522 0.47155 0.0
C805 C 0.47168 0.79179 0.5118 0.0
C806 C 0.43602 0.79335 0.49818 0.0
C807 C 0.32765 0.7909 0.46306 0.0
C808 C 0.36529 0.79231 0.47481 0.0
H809 H 0.49824 0.79817 0.56462 0.0
H810 H 0.44276 0.80925 0.54121 0.0
H811 H 0.44869 0.74358 0.4808 0.0
H812 H 0.29177 0.77444 0.41277 0.0
H813 H 0.35346 0.77739 0.43211 0.0
C814 C 0.95672 0.72893 0.01861 0.0
C815 C 0.95887 0.72389 0.0411 0.0
C816 C 0.98942 0.72308 0.00561 0.0
C817 C 0.09016 0.68521 0.00502 0.0
H818 H 0.10796 0.76221 0.96351 0.0
C819 C 0.24034 0.71191 0.96533 0.0
C820 C 0.24025 0.71899 0.943 0.0
C821 C 0.2053 0.71015 0.97685 0.0
C822 C 0.10325 0.74029 0.97485 0.0
H823 H 0.99638 0.70622 0.06732 0.0
H824 H 0.05337 0.69663 0.04474 0.0
H825 H 0.04716 0.76052 0.98367 0.0
H826 H 0.20317 0.73017 0.91534 0.0
H827 H 0.14234 0.72723 0.93543 0.0
H828 H 0.14689 0.66558 -0.00356 0.0
C829 C 0.02641 0.70482 0.03707 0.0
C830 C 0.06828 0.73917 0.98635 0.0
C831 C 0.99365 0.71045 0.05006 0.0
C832 C 0.20439 0.7247 0.93253 0.0
C833 C 0.16947 0.72315 0.94405 0.0
C834 C 0.12529 0.68644 0.99357 0.0
C835 C 0.02505 0.71225 0.0148 0.0
C836 C 0.06131 0.7117 0.00163 0.0
C837 C 0.1695 0.71571 0.9663 0.0
C838 C 0.13223 0.71408 0.97842 0.0
H839 H 0.93028 0.7389 0.01112 0.0
H840 H 0.98711 0.72818 0.98842 0.0
H841 H 0.08558 0.66347 0.01651 0.0
H842 H 0.26743 0.7073 0.97389 0.0
H843 H 0.20623 0.70476 0.99405 0.0
C844 C 0.03882 0.73452 0.47259 0.0
C845 C 0.03659 0.72736 0.45031 0.0
C846 C 0.00671 0.72829 0.48599 0.0
C847 C 0.90838 0.68538 0.48825 0.0
H848 H 0.88614 0.76474 0.52749 0.0
C849 C 0.75624 0.70919 0.52586 0.0
C850 C 0.75511 0.71799 0.54797 0.0
C851 C 0.79178 0.70787 0.51482 0.0
C852 C 0.89214 0.74216 0.5168 0.0
H853 H -0.00037 0.70566 0.42493 0.0
H854 H 0.94368 0.6954 0.44815 0.0
H855 H 0.9471 0.76429 0.50739 0.0
H856 H 0.79051 0.7327 0.57571 0.0
H857 H 0.85228 0.73059 0.55639 0.0
H858 H 0.85272 0.66387 0.49732 0.0
C859 C 0.97026 0.70554 0.45537 0.0
C860 C 0.9272 0.74177 0.50534 0.0
C861 C 0.00241 0.71158 0.44201 0.0
C862 C 0.79026 0.72586 0.55869 0.0
C863 C 0.82569 0.72478 0.54761 0.0
C864 C 0.87317 0.6859 0.49962 0.0
C865 C 0.9716 0.7149 0.47739 0.0
C866 C 0.93566 0.71352 0.4908 0.0
C867 C 0.82686 0.71559 0.5256 0.0
C868 C 0.86458 0.71444 0.5139 0.0
H869 H 0.0648 0.74639 0.47958 0.0
H870 H 0.00902 0.73501 0.50298 0.0
H871 H 0.91417 0.66298 0.4774 0.0
H872 H 0.72975 0.7029 0.51712 0.0
H873 H 0.79176 0.70113 0.49777 0.0
C874 C 0.74069 0.79706 0.02318 0.0
C875 C 0.73937 0.78631 0.04497 0.0
C876 C 0.70637 0.8007 0.01122 0.0
C877 C 0.59914 0.8106 0.01755 0.0
H878 H 0.59734 0.77809 0.95798 0.0
C879 C 0.45904 0.77718 0.96963 0.0
C880 C 0.4585 0.78476 0.94735 0.0
C881 C 0.49232 0.78433 0.98194 0.0
C882 C 0.59751 0.78789 0.97448 0.0
H883 H 0.70089 0.77027 0.07112 0.0
H884 H 0.64127 0.77559 0.0501 0.0
H885 H 0.65777 0.77491 0.9784 0.0
H886 H 0.49141 0.8087 0.92098 0.0
H887 H 0.54928 0.82121 0.9425 0.0
H888 H 0.53835 0.82241 0.0137 0.0
C889 C 0.66872 0.78214 0.0424 0.0
C890 C 0.63219 0.78604 0.98621 0.0
C891 C 0.70299 0.77875 0.0544 0.0
C892 C 0.49089 0.80218 0.93804 0.0
C893 C 0.52418 0.80916 0.95033 0.0
C894 C 0.56434 0.81222 0.00583 0.0
C895 C 0.66994 0.79341 0.0207 0.0
C896 C 0.63338 0.79701 0.00796 0.0
C897 C 0.52574 0.79911 0.9722 0.0
C898 C 0.56311 0.80059 0.98423 0.0
H899 H 0.76819 0.80341 0.01546 0.0
H900 H 0.70839 0.80984 -0.00538 0.0
H901 H 0.59918 0.81994 0.03414 0.0
H902 H 0.43458 0.76391 0.97737 0.0
H903 H 0.49267 0.77621 -0.00124 0.0
loop_
_geom_bond_atom_site_label_1
_geom_bond_atom_site_label_2
_geom_bond_distance
_geom_bond_site_symmetry_2
_ccdc_geom_bond_type
O0 Zn1 1.953 . S
O0 C16 1.225 . S
Zn1 O0 1.953 . S
Zn1 O2 1.949 . S
Zn1 O8 1.919 . S
Zn1 O13 1.924 . S
O2 Zn1 1.949 . S
O2 Zn3 1.923 . S
O2 Zn4 1.950 . S
O2 Zn5 1.945 . S
Zn3 O2 1.923 . S
Zn3 O6 1.933 . S
Zn3 O9 1.941 . S
Zn3 O10 1.965 . S
Zn4 O2 1.950 . S
Zn4 O11 1.938 . S
Zn4 O12 1.906 . S
Zn4 O22 1.953 . S
Zn5 O2 1.945 . S
Zn5 O7 1.932 . S
Zn5 O14 1.977 . S
Zn5 O15 1.910 . S
O6 Zn3 1.933 . S
O6 C17 1.226 . S
O7 Zn5 1.932 . S
O7 C17 1.307 . S
O8 Zn1 1.919 . S
O8 C19 1.253 . S
O9 Zn3 1.941 . S
O9 C19 1.283 . S
O10 Zn3 1.965 . S
O10 C18 1.303 . S
O11 Zn4 1.938 . S
O11 C18 1.247 . S
O12 Zn4 1.906 . S
O12 C20 1.304 . S
O13 Zn1 1.924 . S
O13 C21 1.311 . S
O14 Zn5 1.977 . S
O14 C20 1.272 . S
O15 Zn5 1.910 . S
O15 C21 1.231 . S
C16 O0 1.225 . S
C16 O22 1.298 . S
C17 O6 1.226 . S
C17 O7 1.307 . S
C18 O10 1.303 . S
C18 O11 1.247 . S
C19 O8 1.253 . S
C19 O9 1.283 . S
C20 O12 1.304 . S
C20 O14 1.272 . S
C21 O13 1.311 . S
C21 O15 1.231 . S
O22 Zn4 1.953 . S
O22 C16 1.298 . S
O23 Zn24 1.953 . S
O23 C39 1.225 . S
Zn24 O23 1.953 . S
Zn24 O25 1.949 . S
Zn24 O31 1.919 . S
Zn24 O36 1.924 . S
O25 Zn24 1.949 . S
O25 Zn26 1.923 . S
O25 Zn27 1.950 . S
O25 Zn28 1.945 . S
Zn26 O25 1.923 . S
Zn26 O29 1.933 . S
Zn26 O32 1.941 . S
Zn26 O33 1.965 . S
Zn27 O25 1.950 . S
Zn27 O34 1.938 . S
Zn27 O35 1.906 . S
Zn27 O45 1.953 . S
Zn28 O25 1.945 . S
Zn28 O30 1.932 . S
Zn28 O37 1.977 . S
Zn28 O38 1.910 . S
O29 Zn26 1.933 . S
O29 C40 1.226 . S
O30 Zn28 1.932 . S
O30 C40 1.307 . S
O31 Zn24 1.919 . S
O31 C42 1.253 . S
O32 Zn26 1.941 . S
O32 C42 1.283 . S
O33 Zn26 1.965 . S
O33 C41 1.303 . S
O34 Zn27 1.938 . S
O34 C41 1.247 . S
O35 Zn27 1.906 . S
O35 C43 1.304 . S
O36 Zn24 1.924 . S
O36 C44 1.311 . S
O37 Zn28 1.977 . S
O37 C43 1.272 . S
O38 Zn28 1.910 . S
O38 C44 1.231 . S
C39 O23 1.225 . S
C39 O45 1.298 . S
C40 O29 1.226 . S
C40 O30 1.307 . S
C41 O33 1.303 . S
C41 O34 1.247 . S
C42 O31 1.253 . S
C42 O32 1.283 . S
C43 O35 1.304 . S
C43 O37 1.272 . S
C44 O36 1.311 . S
C44 O38 1.231 . S
O45 Zn27 1.953 . S
O45 C39 1.298 . S
O46 Zn47 1.953 . S
O46 C62 1.225 . S
Zn47 O46 1.953 . S
Zn47 O48 1.949 . S
Zn47 O54 1.919 . S
Zn47 O59 1.924 . S
O48 Zn47 1.949 . S
O48 Zn49 1.923 . S
O48 Zn50 1.950 . S
O48 Zn51 1.945 . S
Zn49 O48 1.923 . S
Zn49 O52 1.933 . S
Zn49 O55 1.941 . S
Zn49 O56 1.965 . S
Zn50 O48 1.950 . S
Zn50 O57 1.938 . S
Zn50 O58 1.906 . S
Zn50 O68 1.953 . S
Zn51 O48 1.945 . S
Zn51 O53 1.932 . S
Zn51 O60 1.977 . S
Zn51 O61 1.910 . S
O52 Zn49 1.933 . S
O52 C63 1.226 . S
O53 Zn51 1.932 . S
O53 C63 1.307 . S
O54 Zn47 1.919 . S
O54 C65 1.253 . S
O55 Zn49 1.941 . S
O55 C65 1.283 . S
O56 Zn49 1.965 . S
O56 C64 1.303 . S
O57 Zn50 1.938 . S
O57 C64 1.247 . S
O58 Zn50 1.906 . S
O58 C66 1.304 . S
O59 Zn47 1.924 . S
O59 C67 1.311 . S
O60 Zn51 1.977 . S
O60 C66 1.272 . S
O61 Zn51 1.910 . S
O61 C67 1.231 . S
C62 O46 1.225 . S
C62 O68 1.298 . S
C63 O52 1.226 . S
C63 O53 1.307 . S
C64 O56 1.303 . S
C64 O57 1.247 . S
C65 O54 1.253 . S
C65 O55 1.283 . S
C66 O58 1.304 . S
C66 O60 1.272 . S
C67 O59 1.311 . S
C67 O61 1.231 . S
O68 Zn50 1.953 . S
O68 C62 1.298 . S
O69 Zn70 1.953 . S
O69 C85 1.225 . S
Zn70 O69 1.953 . S
Zn70 O71 1.949 . S
Zn70 O77 1.919 . S
Zn70 O82 1.924 . S
O71 Zn70 1.949 . S
O71 Zn72 1.923 . S
O71 Zn73 1.950 . S
O71 Zn74 1.945 . S
Zn72 O71 1.923 . S
Zn72 O75 1.933 . S
Zn72 O78 1.941 . S
Zn72 O79 1.965 . S
Zn73 O71 1.950 . S
Zn73 O80 1.938 . S
Zn73 O81 1.906 . S
Zn73 O91 1.953 . S
Zn74 O71 1.945 . S
Zn74 O76 1.932 . S
Zn74 O83 1.977 . S
Zn74 O84 1.910 . S
O75 Zn72 1.933 . S
O75 C86 1.226 . S
O76 Zn74 1.932 . S
O76 C86 1.307 . S
O77 Zn70 1.919 . S
O77 C88 1.253 . S
O78 Zn72 1.941 . S
O78 C88 1.283 . S
O79 Zn72 1.965 . S
O79 C87 1.303 . S
O80 Zn73 1.938 . S
O80 C87 1.247 . S
O81 Zn73 1.906 . S
O81 C89 1.304 . S
O82 Zn70 1.924 . S
O82 C90 1.311 . S
O83 Zn74 1.977 . S
O83 C89 1.272 . S
O84 Zn74 1.910 . S
O84 C90 1.231 . S
C85 O69 1.225 . S
C85 O91 1.298 . S
C86 O75 1.226 . S
C86 O76 1.307 . S
C87 O79 1.303 . S
C87 O80 1.247 . S
C88 O77 1.253 . S
C88 O78 1.283 . S
C89 O81 1.304 . S
C89 O83 1.272 . S
C90 O82 1.311 . S
C90 O84 1.231 . S
O91 Zn73 1.953 . S
O91 C85 1.298 . S
O92 Zn93 1.953 . S
O92 C108 1.225 . S
Zn93 O92 1.953 . S
Zn93 O94 1.949 . S
Zn93 O100 1.919 . S
Zn93 O105 1.924 . S
O94 Zn93 1.949 . S
O94 Zn95 1.923 . S
O94 Zn96 1.950 . S
O94 Zn97 1.945 . S
Zn95 O94 1.923 . S
Zn95 O98 1.933 . S
Zn95 O101 1.941 . S
Zn95 O102 1.965 . S
Zn96 O94 1.950 . S
Zn96 O103 1.938 . S
Zn96 O104 1.906 . S
Zn96 O114 1.953 . S
Zn97 O94 1.945 . S
Zn97 O99 1.932 . S
Zn97 O106 1.977 . S
Zn97 O107 1.910 . S
O98 Zn95 1.933 . S
O98 C109 1.226 . S
O99 Zn97 1.932 . S
O99 C109 1.307 . S
O100 Zn93 1.919 . S
O100 C111 1.253 . S
O101 Zn95 1.941 . S
O101 C111 1.283 . S
O102 Zn95 1.965 . S
O102 C110 1.303 . S
O103 Zn96 1.938 . S
O103 C110 1.247 . S
O104 Zn96 1.906 . S
O104 C112 1.304 . S
O105 Zn93 1.924 . S
O105 C113 1.311 . S
O106 Zn97 1.977 . S
O106 C112 1.272 . S
O107 Zn97 1.910 . S
O107 C113 1.231 . S
C108 O92 1.225 . S
C108 O114 1.298 . S
C109 O98 1.226 . S
C109 O99 1.307 . S
C110 O102 1.303 . S
C110 O103 1.247 . S
C111 O100 1.253 . S
C111 O101 1.283 . S
C112 O104 1.304 . S
C112 O106 1.272 . S
C113 O105 1.311 . S
C113 O107 1.231 . S
O114 Zn96 1.953 . S
O114 C108 1.298 . S
O115 Zn116 1.953 . S
O115 C131 1.225 . S
Zn116 O115 1.953 . S
Zn116 O117 1.949 . S
Zn116 O123 1.919 . S
Zn116 O128 1.924 . S
O117 Zn116 1.949 . S
O117 Zn118 1.923 . S
O117 Zn119 1.950 . S
O117 Zn120 1.945 . S
Zn118 O117 1.923 . S
Zn118 O121 1.933 . S
Zn118 O124 1.941 . S
Zn118 O125 1.965 . S
Zn119 O117 1.950 . S
Zn119 O126 1.938 . S
Zn119 O127 1.906 . S
Zn119 O137 1.953 . S
Zn120 O117 1.945 . S
Zn120 O122 1.932 . S
Zn120 O129 1.977 . S
Zn120 O130 1.910 . S
O121 Zn118 1.933 . S
O121 C132 1.226 . S
O122 Zn120 1.932 . S
O122 C132 1.307 . S
O123 Zn116 1.919 . S
O123 C134 1.253 . S
O124 Zn118 1.941 . S
O124 C134 1.283 . S
O125 Zn118 1.965 . S
O125 C133 1.303 . S
O126 Zn119 1.938 . S
O126 C133 1.247 . S
O127 Zn119 1.906 . S
O127 C135 1.304 . S
O128 Zn116 1.924 . S
O128 C136 1.311 . S
O129 Zn120 1.977 . S
O129 C135 1.272 . S
O130 Zn120 1.910 . S
O130 C136 1.231 . S
C131 O115 1.225 . S
C131 O137 1.298 . S
C132 O121 1.226 . S
C132 O122 1.307 . S
C133 O125 1.303 . S
C133 O126 1.247 . S
C134 O123 1.253 . S
C134 O124 1.283 . S
C135 O127 1.304 . S
C135 O129 1.272 . S
C136 O128 1.311 . S
C136 O130 1.231 . S
O137 Zn119 1.953 . S
O137 C131 1.298 . S
O138 Zn139 1.953 . S
O138 C154 1.225 . S
Zn139 O138 1.953 . S
Zn139 O140 1.949 . S
Zn139 O146 1.919 . S
Zn139 O151 1.924 . S
O140 Zn139 1.949 . S
O140 Zn141 1.923 . S
O140 Zn142 1.950 . S
O140 Zn143 1.945 . S
Zn141 O140 1.923 . S
Zn141 O144 1.933 . S
Zn141 O147 1.941 . S
Zn141 O148 1.965 . S
Zn142 O140 1.950 . S
Zn142 O149 1.938 . S
Zn142 O150 1.906 . S
Zn142 O160 1.953 . S
Zn143 O140 1.945 . S
Zn143 O145 1.932 . S
Zn143 O152 1.977 . S
Zn143 O153 1.910 . S
O144 Zn141 1.933 . S
O144 C155 1.226 . S
O145 Zn143 1.932 . S
O145 C155 1.307 . S
O146 Zn139 1.919 . S
O146 C157 1.253 . S
O147 Zn141 1.941 . S
O147 C157 1.283 . S
O148 Zn141 1.965 . S
O148 C156 1.303 . S
O149 Zn142 1.938 . S
O149 C156 1.247 . S
O150 Zn142 1.906 . S
O150 C158 1.304 . S
O151 Zn139 1.924 . S
O151 C159 1.311 . S
O152 Zn143 1.977 . S
O152 C158 1.272 . S
O153 Zn143 1.910 . S
O153 C159 1.231 . S
C154 O138 1.225 . S
C154 O160 1.298 . S
C155 O144 1.226 . S
C155 O145 1.307 . S
C156 O148 1.303 . S
C156 O149 1.247 . S
C157 O146 1.253 . S
C157 O147 1.283 . S
C158 O150 1.304 . S
C158 O152 1.272 . S
C159 O151 1.311 . S
C159 O153 1.231 . S
O160 Zn142 1.953 . S
O160 C154 1.298 . S
O161 Zn162 1.953 . S
O161 C177 1.225 . S
Zn162 O161 1.953 . S
Zn162 O163 1.949 . S
Zn162 O169 1.919 . S
Zn162 O174 1.924 . S
O163 Zn162 1.949 . S
O163 Zn164 1.923 . S
O163 Zn165 1.950 . S
O163 Zn166 1.945 . S
Zn164 O163 1.923 . S
Zn164 O167 1.933 . S
Zn164 O170 1.941 . S
Zn164 O171 1.965 . S
Zn165 O163 1.950 . S
Zn165 O172 1.938 . S
Zn165 O173 1.906 . S
Zn165 O183 1.953 . S
Zn166 O163 1.945 . S
Zn166 O168 1.932 . S
Zn166 O175 1.977 . S
Zn166 O176 1.910 . S
O167 Zn164 1.933 . S
O167 C178 1.226 . S
O168 Zn166 1.932 . S
O168 C178 1.307 . S
O169 Zn162 1.919 . S
O169 C180 1.253 . S
O170 Zn164 1.941 . S
O170 C180 1.283 . S
O171 Zn164 1.965 . S
O171 C179 1.303 . S
O172 Zn165 1.938 . S
O172 C179 1.247 . S
O173 Zn165 1.906 . S
O173 C181 1.304 . S
O174 Zn162 1.924 . S
O174 C182 1.311 . S
O175 Zn166 1.977 . S
O175 C181 1.272 . S
O176 Zn166 1.910 . S
O176 C182 1.231 . S
C177 O161 1.225 . S
C177 O183 1.298 . S
C178 O167 1.226 . S
C178 O168 1.307 . S
C179 O171 1.303 . S
C179 O172 1.247 . S
C180 O169 1.253 . S
C180 O170 1.283 . S
C181 O173 1.304 . S
C181 O175 1.272 . S
C182 O174 1.311 . S
C182 O176 1.231 . S
O183 Zn165 1.953 . S
O183 C177 1.298 . S
C184 C185 1.349 . S
C184 C186 1.327 . S
C184 H209 0.950 . S
C185 C184 1.349 . S
C185 C201 1.349 . S
C186 C184 1.327 . S
C186 C205 1.429 . S
C186 H210 0.950 . S
C187 C204 1.574 . S
C187 C206 1.368 . S
C187 H211 0.949 . S
H188 C192 0.949 . S
C189 C190 1.349 . S
C189 C191 1.327 . S
C189 H212 0.950 . S
C190 C189 1.349 . S
C190 C202 1.349 . S
C191 C189 1.327 . S
C191 C207 1.429 . S
C191 H213 0.950 . S
C192 H188 0.949 . S
C192 C200 1.574 . S
C192 C208 1.368 . S
H193 C201 0.950 . S
H194 C199 0.950 . S
H195 C200 0.949 . S
H196 C202 0.950 . S
H197 C203 0.950 . S
H198 C204 0.949 . S
C199 H194 0.950 . S
C199 C201 1.327 . S
C199 C205 1.429 . S
C200 C192 1.574 . S
C200 H195 0.949 . S
C200 C206 1.368 . S
C201 C185 1.349 . S
C201 H193 0.950 . S
C201 C199 1.327 . S
C202 C190 1.349 . S
C202 H196 0.950 . S
C202 C203 1.327 . S
C203 H197 0.950 . S
C203 C202 1.327 . S
C203 C207 1.429 . S
C204 C187 1.574 . S
C204 H198 0.949 . S
C204 C208 1.368 . S
C205 C186 1.429 . S
C205 C199 1.429 . S
C205 C206 1.523 1_565 S
C206 C187 1.368 . S
C206 C200 1.368 . S
C206 C205 1.523 1_545 S
C207 C191 1.429 . S
C207 C203 1.429 . S
C207 C208 1.523 . S
C208 C192 1.368 . S
C208 C204 1.368 . S
C208 C207 1.523 . S
H209 C184 0.950 . S
H210 C186 0.950 . S
H211 C187 0.949 . S
H212 C189 0.950 . S
H213 C191 0.950 . S
C214 C215 1.349 . S
C214 C216 1.327 . S
C214 H239 0.950 . S
C215 C214 1.349 . S
C215 C231 1.349 . S
C216 C214 1.327 . S
C216 C235 1.429 . S
C216 H240 0.950 . S
C217 C234 1.574 . S
C217 C236 1.368 . S
C217 H241 0.949 . S
H218 C222 0.949 . S
C219 C220 1.349 . S
C219 C221 1.327 . S
C219 H242 0.950 . S
C220 C219 1.349 . S
C220 C232 1.349 . S
C221 C219 1.327 . S
C221 C237 1.429 . S
C221 H243 0.950 . S
C222 H218 0.949 . S
C222 C230 1.574 . S
C222 C238 1.368 . S
H223 C231 0.950 . S
H224 C229 0.950 . S
H225 C230 0.949 . S
H226 C232 0.950 . S
H227 C233 0.950 . S
H228 C234 0.949 . S
C229 H224 0.950 . S
C229 C231 1.327 . S
C229 C235 1.429 . S
C230 C222 1.574 . S
C230 H225 0.949 . S
C230 C236 1.368 . S
C231 C215 1.349 . S
C231 H223 0.950 . S
C231 C229 1.327 . S
C232 C220 1.349 . S
C232 H226 0.950 . S
C232 C233 1.327 . S
C233 H227 0.950 . S
C233 C232 1.327 . S
C233 C237 1.429 . S
C234 C217 1.574 . S
C234 H228 0.949 . S
C234 C238 1.368 . S
C235 C216 1.429 . S
C235 C229 1.429 . S
C235 C236 1.523 . S
C236 C217 1.368 . S
C236 C230 1.368 . S
C236 C235 1.523 . S
C237 C221 1.429 . S
C237 C233 1.429 . S
C237 C238 1.523 . S
C238 C222 1.368 . S
C238 C234 1.368 . S
C238 C237 1.523 . S
H239 C214 0.950 . S
H240 C216 0.950 . S
H241 C217 0.949 . S
H242 C219 0.950 . S
H243 C221 0.950 . S
C244 C245 1.349 . S
C244 C246 1.327 . S
C244 H269 0.950 . S
C245 C244 1.349 . S
C245 C261 1.349 . S
C246 C244 1.327 . S
C246 C265 1.429 . S
C246 H270 0.950 . S
C247 C264 1.574 . S
C247 C266 1.368 . S
C247 H271 0.949 . S
H248 C252 0.949 . S
C249 C250 1.349 . S
C249 C251 1.327 . S
C249 H272 0.950 . S
C250 C249 1.349 . S
C250 C262 1.349 . S
C251 C249 1.327 . S
C251 C267 1.429 . S
C251 H273 0.950 . S
C252 H248 0.949 . S
C252 C260 1.574 . S
C252 C268 1.368 . S
H253 C261 0.950 . S
H254 C259 0.950 . S
H255 C260 0.949 . S
H256 C262 0.950 . S
H257 C263 0.950 . S
H258 C264 0.949 . S
C259 H254 0.950 . S
C259 C261 1.327 . S
C259 C265 1.429 . S
C260 C252 1.574 . S
C260 H255 0.949 . S
C260 C266 1.368 . S
C261 C245 1.349 . S
C261 H253 0.950 . S
C261 C259 1.327 . S
C262 C250 1.349 . S
C262 H256 0.950 . S
C262 C263 1.327 . S
C263 H257 0.950 . S
C263 C262 1.327 . S
C263 C267 1.429 . S
C264 C247 1.574 . S
C264 H258 0.949 . S
C264 C268 1.368 . S
C265 C246 1.429 . S
C265 C259 1.429 . S
C265 C266 1.523 . S
C266 C247 1.368 . S
C266 C260 1.368 . S
C266 C265 1.523 . S
C267 C251 1.429 . S
C267 C263 1.429 . S
C267 C268 1.523 . S
C268 C252 1.368 . S
C268 C264 1.368 . S
C268 C267 1.523 . S
H269 C244 0.950 . S
H270 C246 0.950 . S
H271 C247 0.949 . S
H272 C249 0.950 . S
H273 C251 0.950 . S
C274 C275 1.349 . S
C274 C276 1.327 . S
C274 H299 0.950 . S
C275 C274 1.349 . S
C275 C291 1.349 . S
C276 C274 1.327 . S
C276 C295 1.429 . S
C276 H300 0.950 . S
C277 C294 1.574 . S
C277 C296 1.368 . S
C277 H301 0.949 . S
H278 C282 0.949 . S
C279 C280 1.349 . S
C279 C281 1.327 . S
C279 H302 0.950 . S
C280 C279 1.349 . S
C280 C292 1.349 . S
C281 C279 1.327 . S
C281 C297 1.429 . S
C281 H303 0.950 . S
C282 H278 0.949 . S
C282 C290 1.574 . S
C282 C298 1.368 . S
H283 C291 0.950 . S
H284 C289 0.950 . S
H285 C290 0.949 . S
H286 C292 0.950 . S
H287 C293 0.972 . S
H288 C294 0.949 . S
C289 H284 0.950 . S
C289 C291 1.327 . S
C289 C295 1.429 . S
C290 C282 1.574 . S
C290 H285 0.949 . S
C290 C296 1.368 . S
C291 C275 1.349 . S
C291 H283 0.950 . S
C291 C289 1.327 . S
C292 C280 1.349 . S
C292 H286 0.950 . S
C292 C293 1.327 . S
C293 H287 0.972 . S
C293 C292 1.327 . S
C293 C297 1.429 . S
C294 C277 1.574 . S
C294 H288 0.949 . S
C294 C298 1.368 . S
C295 C276 1.429 . S
C295 C289 1.429 . S
C295 C296 1.523 . S
C296 C277 1.368 . S
C296 C290 1.368 . S
C296 C295 1.523 . S
C297 C281 1.429 . S
C297 C293 1.429 . S
C297 C298 1.523 1_565 S
C298 C282 1.368 . S
C298 C294 1.368 . S
C298 C297 1.523 1_545 S
H299 C274 0.950 . S
H300 C276 0.950 . S
H301 C277 0.949 . S
H302 C279 0.950 . S
H303 C281 0.950 . S
C304 C305 1.349 . S
C304 C306 1.327 . S
C304 H329 0.950 . S
C305 C304 1.349 . S
C305 C321 1.349 . S
C306 C304 1.327 . S
C306 C325 1.429 . S
C306 H330 0.950 . S
C307 C324 1.574 . S
C307 C326 1.368 . S
C307 H331 0.949 . S
H308 C312 0.949 . S
C309 C310 1.349 . S
C309 C311 1.327 . S
C309 H332 0.950 . S
C310 C309 1.349 . S
C310 C322 1.349 . S
C311 C309 1.327 . S
C311 C327 1.429 . S
C311 H333 0.950 . S
C312 H308 0.949 . S
C312 C320 1.574 . S
C312 C328 1.368 . S
H313 C321 0.950 . S
H314 C319 0.950 . S
H315 C320 0.949 . S
H316 C322 0.950 . S
H317 C323 0.950 . S
H318 C324 0.949 . S
C319 H314 0.950 . S
C319 C321 1.327 . S
C319 C325 1.429 . S
C320 C312 1.574 . S
C320 H315 0.949 . S
C320 C326 1.368 . S
C321 C305 1.349 . S
C321 H313 0.950 . S
C321 C319 1.327 . S
C322 C310 1.349 . S
C322 H316 0.950 . S
C322 C323 1.327 . S
C323 H317 0.950 . S
C323 C322 1.327 . S
C323 C327 1.429 . S
C324 C307 1.574 . S
C324 H318 0.949 . S
C324 C328 1.368 . S
C325 C306 1.429 . S
C325 C319 1.429 . S
C325 C326 1.523 1_545 S
C326 C307 1.368 . S
C326 C320 1.368 . S
C326 C325 1.523 1_565 S
C327 C311 1.429 . S
C327 C323 1.429 . S
C327 C328 1.523 . S
C328 C312 1.368 . S
C328 C324 1.368 . S
C328 C327 1.523 . S
H329 C304 0.950 . S
H330 C306 0.950 . S
H331 C307 0.949 . S
H332 C309 0.950 . S
H333 C311 0.950 . S
C334 C335 1.349 . S
C334 C336 1.327 . S
C334 H359 0.950 . S
C335 C334 1.349 . S
C335 C351 1.349 . S
C336 C334 1.327 . S
C336 C355 1.429 . S
C336 H360 0.950 . S
C337 C354 1.574 . S
C337 C356 1.368 . S
C337 H361 0.949 . S
H338 C342 0.949 . S
C339 C340 1.349 . S
C339 C341 1.327 . S
C339 H362 0.950 . S
C340 C339 1.349 . S
C340 C352 1.349 . S
C341 C339 1.327 . S
C341 C357 1.429 . S
C341 H363 0.950 . S
C342 H338 0.949 . S
C342 C350 1.574 . S
C342 C358 1.368 . S
H343 C351 0.950 . S
H344 C349 0.950 . S
H345 C350 0.949 . S
H346 C352 0.950 . S
H347 C353 0.950 . S
H348 C354 0.949 . S
C349 H344 0.950 . S
C349 C351 1.327 . S
C349 C355 1.429 . S
C350 C342 1.574 . S
C350 H345 0.949 . S
C350 C356 1.368 . S
C351 C335 1.349 . S
C351 H343 0.950 . S
C351 C349 1.327 . S
C352 C340 1.349 . S
C352 H346 0.950 . S
C352 C353 1.327 . S
C353 H347 0.950 . S
C353 C352 1.327 . S
C353 C357 1.429 . S
C354 C337 1.574 . S
C354 H348 0.949 . S
C354 C358 1.368 . S
C355 C336 1.429 . S
C355 C349 1.429 . S
C355 C356 1.523 . S
C356 C337 1.368 . S
C356 C350 1.368 . S
C356 C355 1.523 . S
C357 C341 1.429 . S
C357 C353 1.429 . S
C357 C358 1.523 . S
C358 C342 1.368 . S
C358 C354 1.368 . S
C358 C357 1.523 . S
H359 C334 0.950 . S
H360 C336 0.950 . S
H361 C337 0.949 . S
H362 C339 0.950 . S
H363 C341 0.950 . S
C364 C365 1.349 . S
C364 C366 1.327 . S
C364 H389 0.950 . S
C365 C364 1.349 . S
C365 C381 1.349 . S
C366 C364 1.327 . S
C366 C385 1.429 . S
C366 H390 0.950 . S
C367 C384 1.574 . S
C367 C386 1.368 . S
C367 H391 0.949 . S
H368 C372 0.949 . S
C369 C370 1.349 . S
C369 C371 1.327 . S
C369 H392 0.950 . S
C370 C369 1.349 . S
C370 C382 1.349 . S
C371 C369 1.327 . S
C371 C387 1.429 . S
C371 H393 0.950 . S
C372 H368 0.949 . S
C372 C380 1.574 . S
C372 C388 1.368 . S
H373 C381 0.950 . S
H374 C379 0.950 . S
H375 C380 0.949 . S
H376 C382 0.950 . S
H377 C383 0.950 . S
H378 C384 0.949 . S
C379 H374 0.950 . S
C379 C381 1.327 . S
C379 C385 1.429 . S
C380 C372 1.574 . S
C380 H375 0.949 . S
C380 C386 1.368 . S
C381 C365 1.349 . S
C381 H373 0.950 . S
C381 C379 1.327 . S
C382 C370 1.349 . S
C382 H376 0.950 . S
C382 C383 1.327 . S
C383 H377 0.950 . S
C383 C382 1.327 . S
C383 C387 1.429 . S
C384 C367 1.574 . S
C384 H378 0.949 . S
C384 C388 1.368 . S
C385 C366 1.429 . S
C385 C379 1.429 . S
C385 C386 1.523 . S
C386 C367 1.368 . S
C386 C380 1.368 . S
C386 C385 1.523 . S
C387 C371 1.429 . S
C387 C383 1.429 . S
C387 C388 1.523 . S
C388 C372 1.368 . S
C388 C384 1.368 . S
C388 C387 1.523 . S
H389 C364 0.950 . S
H390 C366 0.950 . S
H391 C367 0.949 . S
H392 C369 0.950 . S
H393 C371 0.950 . S
C394 C395 1.349 . S
C394 C396 1.327 . S
C394 H419 0.950 . S
C395 C394 1.349 . S
C395 C411 1.349 . S
C396 C394 1.327 . S
C396 C415 1.429 . S
C396 H420 0.950 . S
C397 C414 1.574 . S
C397 C416 1.368 . S
C397 H421 0.949 . S
H398 C402 0.949 . S
C399 C400 1.349 . S
C399 C401 1.327 . S
C399 H422 0.950 . S
C400 C399 1.349 . S
C400 C412 1.349 . S
C401 C399 1.327 . S
C401 C417 1.429 . S
C401 H423 0.950 . S
C402 H398 0.949 . S
C402 C410 1.574 . S
C402 C418 1.368 . S
H403 C411 0.950 . S
H404 C409 0.950 . S
H405 C410 0.949 . S
H406 C412 0.950 . S
H407 C413 0.950 . S
H408 C414 0.949 . S
C409 H404 0.950 . S
C409 C411 1.327 . S
C409 C415 1.429 . S
C410 C402 1.574 . S
C410 H405 0.949 . S
C410 C416 1.368 . S
C411 C395 1.349 . S
C411 H403 0.950 . S
C411 C409 1.327 . S
C412 C400 1.349 . S
C412 H406 0.950 . S
C412 C413 1.327 . S
C413 H407 0.950 . S
C413 C412 1.327 . S
C413 C417 1.429 . S
C414 C397 1.574 . S
C414 H408 0.949 . S
C414 C418 1.368 . S
C415 C396 1.429 . S
C415 C409 1.429 . S
C415 C416 1.523 1_545 S
C416 C397 1.368 . S
C416 C410 1.368 . S
C416 C415 1.523 1_565 S
C417 C401 1.429 . S
C417 C413 1.429 . S
C417 C418 1.523 . S
C418 C402 1.368 . S
C418 C414 1.368 . S
C418 C417 1.523 . S
H419 C394 0.950 . S
H420 C396 0.950 . S
H421 C397 0.949 . S
H422 C399 0.950 . S
H423 C401 0.950 . S
C424 C425 1.349 . S
C424 C426 1.327 . S
C424 H449 0.950 . S
C425 C424 1.349 . S
C425 C441 1.349 . S
C426 C424 1.327 . S
C426 C445 1.429 . S
C426 H450 0.950 . S
C427 C444 1.574 . S
C427 C446 1.368 . S
C427 H451 0.949 . S
H428 C432 0.949 . S
C429 C430 1.349 . S
C429 C431 1.327 . S
C429 H452 0.950 . S
C430 C429 1.349 . S
C430 C442 1.349 . S
C431 C429 1.327 . S
C431 C447 1.429 . S
C431 H453 0.950 . S
C432 H428 0.949 . S
C432 C440 1.574 . S
C432 C448 1.368 . S
H433 C441 0.950 . S
H434 C439 0.950 . S
H435 C440 0.949 . S
H436 C442 0.950 . S
H437 C443 0.950 . S
H438 C444 0.949 . S
C439 H434 0.950 . S
C439 C441 1.327 . S
C439 C445 1.429 . S
C440 C432 1.574 . S
C440 H435 0.949 . S
C440 C446 1.368 . S
C441 C425 1.349 . S
C441 H433 0.950 . S
C441 C439 1.327 . S
C442 C430 1.349 . S
C442 H436 0.950 . S
C442 C443 1.327 . S
C443 H437 0.950 . S
C443 C442 1.327 . S
C443 C447 1.429 . S
C444 C427 1.574 . S
C444 H438 0.949 . S
C444 C448 1.368 . S
C445 C426 1.429 . S
C445 C439 1.429 . S
C445 C446 1.523 . S
C446 C427 1.368 . S
C446 C440 1.368 . S
C446 C445 1.523 . S
C447 C431 1.429 . S
C447 C443 1.429 . S
C447 C448 1.523 . S
C448 C432 1.368 . S
C448 C444 1.368 . S
C448 C447 1.523 . S
H449 C424 0.950 . S
H450 C426 0.950 . S
H451 C427 0.949 . S
H452 C429 0.950 . S
H453 C431 0.950 . S
C454 C455 1.349 . S
C454 C456 1.327 . S
C454 H479 0.950 . S
C455 C454 1.349 . S
C455 C471 1.349 . S
C456 C454 1.327 . S
C456 C475 1.429 . S
C456 H480 0.950 . S
C457 C474 1.574 . S
C457 C476 1.368 1_445 S
C457 H481 0.949 . S
H458 C462 0.949 . S
C459 C460 1.349 . S
C459 C461 1.327 . S
C459 H482 0.950 . S
C460 C459 1.349 . S
C460 C472 1.349 . S
C461 C459 1.327 . S
C461 C477 1.429 . S
C461 H483 0.950 . S
C462 H458 0.949 . S
C462 C470 1.574 . S
C462 C478 1.368 1_665 S
H463 C471 0.950 . S
H464 C469 0.950 1_455 S
H465 C470 0.949 . S
H466 C472 0.950 . S
H467 C473 0.950 1_655 S
H468 C474 0.949 . S
C469 H464 0.950 1_655 S
C469 C471 1.327 . S
C469 C475 1.429 . S
C470 C462 1.574 . S
C470 H465 0.949 . S
C470 C476 1.368 1_556 S
C471 C455 1.349 . S
C471 H463 0.950 . S
C471 C469 1.327 . S
C472 C460 1.349 . S
C472 H466 0.950 . S
C472 C473 1.327 . S
C473 H467 0.950 1_455 S
C473 C472 1.327 . S
C473 C477 1.429 . S
C474 C457 1.574 . S
C474 H468 0.949 . S
C474 C478 1.368 1_554 S
C475 C456 1.429 . S
C475 C469 1.429 . S
C475 C476 1.523 . S
C476 C457 1.368 1_665 S
C476 C470 1.368 1_554 S
C476 C475 1.523 . S
C477 C461 1.429 . S
C477 C473 1.429 . S
C477 C478 1.523 . S
C478 C462 1.368 1_445 S
C478 C474 1.368 1_556 S
C478 C477 1.523 . S
H479 C454 0.950 . S
H480 C456 0.950 . S
H481 C457 0.949 . S
H482 C459 0.950 . S
H483 C461 0.950 . S
C484 C485 1.349 . S
C484 C486 1.327 . S
C484 H509 0.950 . S
C485 C484 1.349 . S
C485 C501 1.349 . S
C486 C484 1.327 . S
C486 C505 1.429 . S
C486 H510 0.950 . S
C487 C504 1.574 . S
C487 C506 1.368 1_455 S
C487 H511 0.949 . S
H488 C492 0.949 . S
C489 C490 1.349 . S
C489 C491 1.327 . S
C489 H512 0.950 . S
C490 C489 1.349 . S
C490 C502 1.349 . S
C491 C489 1.327 . S
C491 C507 1.429 . S
C491 H513 0.950 . S
C492 H488 0.949 . S
C492 C500 1.574 . S
C492 C508 1.368 1_655 S
H493 C501 0.950 . S
H494 C499 0.950 1_455 S
H495 C500 0.949 . S
H496 C502 0.950 . S
H497 C503 0.950 1_655 S
H498 C504 0.949 . S
C499 H494 0.950 1_655 S
C499 C501 1.327 . S
C499 C505 1.429 . S
C500 C492 1.574 . S
C500 H495 0.949 . S
C500 C506 1.368 1_565 S
C501 C485 1.349 . S
C501 H493 0.950 . S
C501 C499 1.327 . S
C502 C490 1.349 . S
C502 H496 0.950 . S
C502 C503 1.327 . S
C503 H497 0.950 1_455 S
C503 C502 1.327 . S
C503 C507 1.429 . S
C504 C487 1.574 . S
C504 H498 0.949 . S
C504 C508 1.368 1_545 S
C505 C486 1.429 . S
C505 C499 1.429 . S
C505 C506 1.523 . S
C506 C487 1.368 1_655 S
C506 C500 1.368 1_545 S
C506 C505 1.523 . S
C507 C491 1.429 . S
C507 C503 1.429 . S
C507 C508 1.523 . S
C508 C492 1.368 1_455 S
C508 C504 1.368 1_565 S
C508 C507 1.523 . S
H509 C484 0.950 . S
H510 C486 0.950 . S
H511 C487 0.949 . S
H512 C489 0.950 . S
H513 C491 0.950 . S
C514 C515 1.349 . S
C514 C516 1.327 . S
C514 H539 0.950 . S
C515 C514 1.349 . S
C515 C531 1.349 . S
C516 C514 1.327 . S
C516 C535 1.429 . S
C516 H540 0.950 . S
C517 C534 1.574 . S
C517 C536 1.368 . S
C517 H541 0.949 . S
H518 C522 0.949 . S
C519 C520 1.349 . S
C519 C521 1.327 . S
C519 H542 0.950 . S
C520 C519 1.349 . S
C520 C532 1.349 . S
C521 C519 1.327 . S
C521 C537 1.429 . S
C521 H543 0.950 . S
C522 H518 0.949 . S
C522 C530 1.574 . S
C522 C538 1.368 . S
H523 C531 0.950 . S
H524 C529 0.950 . S
H525 C530 0.949 . S
H526 C532 0.950 . S
H527 C533 0.950 . S
H528 C534 0.949 . S
C529 H524 0.950 . S
C529 C531 1.327 . S
C529 C535 1.429 . S
C530 C522 1.574 . S
C530 H525 0.949 . S
C530 C536 1.368 1_554 S
C531 C515 1.349 . S
C531 H523 0.950 . S
C531 C529 1.327 . S
C532 C520 1.349 . S
C532 H526 0.950 . S
C532 C533 1.327 . S
C533 H527 0.950 . S
C533 C532 1.327 . S
C533 C537 1.429 . S
C534 C517 1.574 . S
C534 H528 0.949 . S
C534 C538 1.368 1_556 S
C535 C516 1.429 . S
C535 C529 1.429 . S
C535 C536 1.523 . S
C536 C517 1.368 . S
C536 C530 1.368 1_556 S
C536 C535 1.523 . S
C537 C521 1.429 . S
C537 C533 1.429 . S
C537 C538 1.523 . S
C538 C522 1.368 . S
C538 C534 1.368 1_554 S
C538 C537 1.523 . S
H539 C514 0.950 . S
H540 C516 0.950 . S
H541 C517 0.949 . S
H542 C519 0.950 . S
H543 C521 0.950 . S
C544 C545 1.349 . S
C544 C546 1.327 . S
C544 H569 0.950 . S
C545 C544 1.349 . S
C545 C561 1.349 . S
C546 C544 1.327 . S
C546 C565 1.429 . S
C546 H570 0.950 . S
C547 C564 1.574 . S
C547 C566 1.368 . S
C547 H571 0.949 . S
H548 C552 0.949 . S
C549 C550 1.349 . S
C549 C551 1.327 . S
C549 H572 0.950 . S
C550 C549 1.349 . S
C550 C562 1.349 . S
C551 C549 1.327 . S
C551 C567 1.429 . S
C551 H573 0.950 . S
C552 H548 0.949 . S
C552 C560 1.574 . S
C552 C568 1.368 . S
H553 C561 0.950 . S
H554 C559 0.950 . S
H555 C560 0.949 . S
H556 C562 0.950 . S
H557 C563 0.950 . S
H558 C564 0.949 . S
C559 H554 0.950 . S
C559 C561 1.327 . S
C559 C565 1.429 . S
C560 C552 1.574 . S
C560 H555 0.949 . S
C560 C566 1.368 . S
C561 C545 1.349 . S
C561 H553 0.950 . S
C561 C559 1.327 . S
C562 C550 1.349 . S
C562 H556 0.950 . S
C562 C563 1.327 . S
C563 H557 0.950 . S
C563 C562 1.327 . S
C563 C567 1.429 . S
C564 C547 1.574 . S
C564 H558 0.949 . S
C564 C568 1.368 . S
C565 C546 1.429 . S
C565 C559 1.429 . S
C565 C566 1.523 . S
C566 C547 1.368 . S
C566 C560 1.368 . S
C566 C565 1.523 . S
C567 C551 1.429 . S
C567 C563 1.429 . S
C567 C568 1.523 . S
C568 C552 1.368 . S
C568 C564 1.368 . S
C568 C567 1.523 . S
H569 C544 0.950 . S
H570 C546 0.950 . S
H571 C547 0.949 . S
H572 C549 0.950 . S
H573 C551 0.950 . S
C574 C575 1.349 . S
C574 C576 1.327 . S
C574 H599 0.950 . S
C575 C574 1.349 . S
C575 C591 1.349 . S
C576 C574 1.327 . S
C576 C595 1.429 . S
C576 H600 0.950 . S
C577 C594 1.574 . S
C577 C596 1.368 1_655 S
C577 H601 0.949 . S
H578 C582 0.949 . S
C579 C580 1.349 . S
C579 C581 1.327 . S
C579 H602 0.950 . S
C580 C579 1.349 . S
C580 C592 1.349 . S
C581 C579 1.327 . S
C581 C597 1.429 . S
C581 H603 0.950 . S
C582 H578 0.949 . S
C582 C590 1.574 . S
C582 C598 1.368 1_455 S
H583 C591 0.950 . S
H584 C589 0.950 1_655 S
H585 C590 0.949 . S
H586 C592 0.950 . S
H587 C593 0.950 1_455 S
H588 C594 0.949 . S
C589 H584 0.950 1_455 S
C589 C591 1.327 . S
C589 C595 1.429 . S
C590 C582 1.574 . S
C590 H585 0.949 . S
C590 C596 1.368 . S
C591 C575 1.349 . S
C591 H583 0.950 . S
C591 C589 1.327 . S
C592 C580 1.349 . S
C592 H586 0.950 . S
C592 C593 1.327 . S
C593 H587 0.950 1_655 S
C593 C592 1.327 . S
C593 C597 1.429 . S
C594 C577 1.574 . S
C594 H588 0.949 . S
C594 C598 1.368 . S
C595 C576 1.429 . S
C595 C589 1.429 . S
C595 C596 1.523 . S
C596 C577 1.368 1_455 S
C596 C590 1.368 . S
C596 C595 1.523 . S
C597 C581 1.429 . S
C597 C593 1.429 . S
C597 C598 1.523 . S
C598 C582 1.368 1_655 S
C598 C594 1.368 . S
C598 C597 1.523 . S
H599 C574 0.950 . S
H600 C576 0.950 . S
H601 C577 0.949 . S
H602 C579 0.950 . S
H603 C581 0.950 . S
C604 C605 1.349 . S
C604 C606 1.327 . S
C604 H629 0.950 . S
C605 C604 1.349 . S
C605 C621 1.349 . S
C606 C604 1.327 . S
C606 C625 1.429 . S
C606 H630 0.950 . S
C607 C624 1.574 . S
C607 C626 1.368 . S
C607 H631 0.949 . S
H608 C612 0.949 . S
C609 C610 1.349 . S
C609 C611 1.327 . S
C609 H632 0.950 . S
C610 C609 1.349 . S
C610 C622 1.349 . S
C611 C609 1.327 . S
C611 C627 1.429 . S
C611 H633 0.950 . S
C612 H608 0.949 . S
C612 C620 1.574 . S
C612 C628 1.368 . S
H613 C621 0.950 . S
H614 C619 0.950 . S
H615 C620 0.949 . S
H616 C622 0.950 . S
H617 C623 0.950 . S
H618 C624 0.949 . S
C619 H614 0.950 . S
C619 C621 1.327 . S
C619 C625 1.429 . S
C620 C612 1.574 . S
C620 H615 0.949 . S
C620 C626 1.368 . S
C621 C605 1.349 . S
C621 H613 0.950 . S
C621 C619 1.327 . S
C622 C610 1.349 . S
C622 H616 0.950 . S
C622 C623 1.327 . S
C623 H617 0.950 . S
C623 C622 1.327 . S
C623 C627 1.429 . S
C624 C607 1.574 . S
C624 H618 0.949 . S
C624 C628 1.368 . S
C625 C606 1.429 . S
C625 C619 1.429 . S
C625 C626 1.523 . S
C626 C607 1.368 . S
C626 C620 1.368 . S
C626 C625 1.523 . S
C627 C611 1.429 . S
C627 C623 1.429 . S
C627 C628 1.523 . S
C628 C612 1.368 . S
C628 C624 1.368 . S
C628 C627 1.523 . S
H629 C604 0.950 . S
H630 C606 0.950 . S
H631 C607 0.949 . S
H632 C609 0.950 . S
H633 C611 0.950 . S
C634 C635 1.349 . S
C634 C636 1.327 . S
C634 H659 0.950 . S
C635 C634 1.349 . S
C635 C651 1.349 . S
C636 C634 1.327 . S
C636 C655 1.429 . S
C636 H660 0.950 1_655 S
C637 C654 1.574 . S
C637 C656 1.368 . S
C637 H661 0.949 . S
H638 C642 0.949 . S
C639 C640 1.349 . S
C639 C641 1.327 . S
C639 H662 0.950 . S
C640 C639 1.349 . S
C640 C652 1.349 . S
C641 C639 1.327 . S
C641 C657 1.429 . S
C641 H663 0.950 1_455 S
C642 H638 0.949 . S
C642 C650 1.574 . S
C642 C658 1.368 . S
H643 C651 0.950 . S
H644 C649 0.950 . S
H645 C650 0.949 . S
H646 C652 0.950 . S
H647 C653 0.950 . S
H648 C654 0.949 . S
C649 H644 0.950 . S
C649 C651 1.327 . S
C649 C655 1.429 . S
C650 C642 1.574 . S
C650 H645 0.949 . S
C650 C656 1.368 1_455 S
C651 C635 1.349 . S
C651 H643 0.950 . S
C651 C649 1.327 . S
C652 C640 1.349 . S
C652 H646 0.950 . S
C652 C653 1.327 . S
C653 H647 0.950 . S
C653 C652 1.327 . S
C653 C657 1.429 . S
C654 C637 1.574 . S
C654 H648 0.949 . S
C654 C658 1.368 1_655 S
C655 C636 1.429 . S
C655 C649 1.429 . S
C655 C656 1.523 . S
C656 C637 1.368 . S
C656 C650 1.368 1_655 S
C656 C655 1.523 . S
C657 C641 1.429 . S
C657 C653 1.429 . S
C657 C658 1.523 . S
C658 C642 1.368 . S
C658 C654 1.368 1_455 S
C658 C657 1.523 . S
H659 C634 0.950 . S
H660 C636 0.950 1_455 S
H661 C637 0.949 . S
H662 C639 0.950 . S
H663 C641 0.950 1_655 S
C664 C665 1.349 . S
C664 C666 1.327 . S
C664 H689 0.950 . S
C665 C664 1.349 . S
C665 C681 1.349 . S
C666 C664 1.327 . S
C666 C685 1.429 . S
C666 H690 0.950 . S
C667 C684 1.574 . S
C667 C686 1.368 . S
C667 H691 0.949 . S
H668 C672 0.949 . S
C669 C670 1.349 . S
C669 C671 1.327 . S
C669 H692 0.950 . S
C670 C669 1.349 . S
C670 C682 1.349 . S
C671 C669 1.327 . S
C671 C687 1.429 . S
C671 H693 0.950 . S
C672 H668 0.949 . S
C672 C680 1.574 . S
C672 C688 1.368 . S
H673 C681 0.950 . S
H674 C679 0.950 . S
H675 C680 0.949 . S
H676 C682 0.950 . S
H677 C683 0.950 . S
H678 C684 0.949 . S
C679 H674 0.950 . S
C679 C681 1.327 . S
C679 C685 1.429 . S
C680 C672 1.574 . S
C680 H675 0.949 . S
C680 C686 1.368 . S
C681 C665 1.349 . S
C681 H673 0.950 . S
C681 C679 1.327 . S
C682 C670 1.349 . S
C682 H676 0.950 . S
C682 C683 1.327 . S
C683 H677 0.950 . S
C683 C682 1.327 . S
C683 C687 1.429 . S
C684 C667 1.574 . S
C684 H678 0.949 . S
C684 C688 1.368 . S
C685 C666 1.429 . S
C685 C679 1.429 . S
C685 C686 1.523 . S
C686 C667 1.368 . S
C686 C680 1.368 . S
C686 C685 1.523 . S
C687 C671 1.429 . S
C687 C683 1.429 . S
C687 C688 1.523 . S
C688 C672 1.368 . S
C688 C684 1.368 . S
C688 C687 1.523 . S
H689 C664 0.950 . S
H690 C666 0.950 . S
H691 C667 0.949 . S
H692 C669 0.950 . S
H693 C671 0.950 . S
C694 C695 1.349 . S
C694 C696 1.327 . S
C694 H719 0.950 1_655 S
C695 C694 1.349 . S
C695 C711 1.349 . S
C696 C694 1.327 . S
C696 C715 1.429 . S
C696 H720 0.950 . S
C697 C714 1.574 . S
C697 C716 1.368 . S
C697 H721 0.949 . S
H698 C702 0.949 . S
C699 C700 1.349 . S
C699 C701 1.327 . S
C699 H722 0.950 . S
C700 C699 1.349 . S
C700 C712 1.349 . S
C701 C699 1.327 . S
C701 C717 1.429 . S
C701 H723 0.950 1_554 S
C702 H698 0.949 . S
C702 C710 1.564 1_554 S
C702 C718 1.368 . S
H703 C711 0.950 . S
H704 C709 0.950 . S
H705 C710 0.942 1_554 S
H706 C712 0.950 . S
H707 C713 0.950 . S
H708 C714 0.949 . S
C709 H704 0.950 . S
C709 C711 1.327 . S
C709 C715 1.429 . S
C710 C702 1.564 1_556 S
C710 H705 0.942 1_556 S
C710 C716 1.386 . S
C711 C695 1.349 . S
C711 H703 0.950 . S
C711 C709 1.327 . S
C712 C700 1.349 . S
C712 H706 0.950 . S
C712 C713 1.327 . S
C713 H707 0.950 . S
C713 C712 1.327 . S
C713 C717 1.429 . S
C714 C697 1.574 . S
C714 H708 0.949 . S
C714 C718 1.368 1_556 S
C715 C696 1.429 . S
C715 C709 1.429 . S
C715 C716 1.523 . S
C716 C697 1.368 . S
C716 C710 1.386 . S
C716 C715 1.523 . S
C717 C701 1.429 . S
C717 C713 1.429 . S
C717 C718 1.523 . S
C718 C702 1.368 . S
C718 C714 1.368 1_554 S
C718 C717 1.523 . S
H719 C694 0.950 1_455 S
H720 C696 0.950 . S
H721 C697 0.949 . S
H722 C699 0.950 . S
H723 C701 0.950 1_556 S
C724 C725 1.349 . S
C724 C726 1.327 . S
C724 H749 0.957 . S
C725 C724 1.349 . S
C725 C741 1.349 . S
C726 C724 1.327 . S
C726 C745 1.429 . S
C726 H750 0.950 . S
C727 C744 1.574 . S
C727 C746 1.368 . S
C727 H751 0.949 . S
H728 C732 0.949 . S
C729 C730 1.349 . S
C729 C731 1.327 . S
C729 H752 0.950 . S
C730 C729 1.349 . S
C730 C742 1.349 . S
C731 C729 1.327 . S
C731 C747 1.429 . S
C731 H753 0.950 . S
C732 H728 0.949 . S
C732 C740 1.574 . S
C732 C748 1.368 . S
H733 C741 0.950 . S
H734 C739 0.950 . S
H735 C740 0.949 . S
H736 C742 0.950 . S
H737 C743 0.950 . S
H738 C744 0.949 . S
C739 H734 0.950 . S
C739 C741 1.327 . S
C739 C745 1.429 . S
C740 C732 1.574 . S
C740 H735 0.949 . S
C740 C746 1.368 . S
C741 C725 1.349 . S
C741 H733 0.950 . S
C741 C739 1.327 . S
C742 C730 1.349 . S
C742 H736 0.950 . S
C742 C743 1.327 . S
C743 H737 0.950 . S
C743 C742 1.327 . S
C743 C747 1.429 . S
C744 C727 1.574 . S
C744 H738 0.949 . S
C744 C748 1.368 . S
C745 C726 1.429 . S
C745 C739 1.429 . S
C745 C746 1.523 . S
C746 C727 1.368 . S
C746 C740 1.368 . S
C746 C745 1.523 . S
C747 C731 1.429 . S
C747 C743 1.429 . S
C747 C748 1.523 . S
C748 C732 1.368 . S
C748 C744 1.368 . S
C748 C747 1.523 . S
H749 C724 0.957 . S
H750 C726 0.950 . S
H751 C727 0.949 . S
H752 C729 0.950 . S
H753 C731 0.950 . S
C754 C755 1.349 . S
C754 C756 1.327 . S
C754 H779 0.950 . S
C755 C754 1.349 . S
C755 C771 1.349 . S
C756 C754 1.327 . S
C756 C775 1.429 . S
C756 H780 0.950 . S
C757 C774 1.574 1_554 S
C757 C776 1.368 . S
C757 H781 0.949 1_554 S
H758 C762 0.949 . S
C759 C760 1.349 . S
C759 C761 1.327 . S
C759 H782 0.950 . S
C760 C759 1.349 . S
C760 C772 1.349 . S
C761 C759 1.327 . S
C761 C777 1.429 . S
C761 H783 0.950 . S
C762 H758 0.949 . S
C762 C770 1.574 . S
C762 C778 1.368 1_554 S
H763 C771 0.950 . S
H764 C769 0.950 . S
H765 C770 0.949 . S
H766 C772 0.950 . S
H767 C773 0.950 1_554 S
H768 C774 0.949 . S
C769 H764 0.950 . S
C769 C771 1.327 . S
C769 C775 1.429 . S
C770 C762 1.574 . S
C770 H765 0.949 . S
C770 C776 1.368 . S
C771 C755 1.349 . S
C771 H763 0.950 . S
C771 C769 1.327 . S
C772 C760 1.349 . S
C772 H766 0.950 . S
C772 C773 1.327 . S
C773 H767 0.950 1_556 S
C773 C772 1.327 . S
C773 C777 1.429 . S
C774 C757 1.574 1_556 S
C774 H768 0.949 . S
C774 C778 1.368 . S
C775 C756 1.429 . S
C775 C769 1.429 . S
C775 C776 1.523 . S
C776 C757 1.368 . S
C776 C770 1.368 . S
C776 C775 1.523 . S
C777 C761 1.429 . S
C777 C773 1.429 . S
C777 C778 1.523 . S
C778 C762 1.368 1_556 S
C778 C774 1.368 . S
C778 C777 1.523 . S
H779 C754 0.950 . S
H780 C756 0.950 . S
H781 C757 0.949 1_556 S
H782 C759 0.950 . S
H783 C761 0.950 . S
C784 C785 1.349 . S
C784 C786 1.327 . S
C784 H809 0.950 . S
C785 C784 1.349 . S
C785 C801 1.349 . S
C786 C784 1.327 . S
C786 C805 1.429 . S
C786 H810 0.950 . S
C787 C804 1.574 . S
C787 C806 1.368 . S
C787 H811 0.949 . S
H788 C792 0.949 . S
C789 C790 1.349 . S
C789 C791 1.327 . S
C789 H812 0.950 . S
C790 C789 1.349 . S
C790 C802 1.349 . S
C791 C789 1.327 . S
C791 C807 1.429 . S
C791 H813 0.950 . S
C792 H788 0.949 . S
C792 C800 1.574 . S
C792 C808 1.368 . S
H793 C801 0.950 . S
H794 C799 0.950 . S
H795 C800 0.949 . S
H796 C802 0.950 . S
H797 C803 0.950 . S
H798 C804 0.949 . S
C799 H794 0.950 . S
C799 C801 1.327 . S
C799 C805 1.429 . S
C800 C792 1.574 . S
C800 H795 0.949 . S
C800 C806 1.368 . S
C801 C785 1.349 . S
C801 H793 0.950 . S
C801 C799 1.327 . S
C802 C790 1.349 . S
C802 H796 0.950 . S
C802 C803 1.327 . S
C803 H797 0.950 . S
C803 C802 1.327 . S
C803 C807 1.429 . S
C804 C787 1.574 . S
C804 H798 0.949 . S
C804 C808 1.368 . S
C805 C786 1.429 . S
C805 C799 1.429 . S
C805 C806 1.523 . S
C806 C787 1.368 . S
C806 C800 1.368 . S
C806 C805 1.523 . S
C807 C791 1.429 . S
C807 C803 1.429 . S
C807 C808 1.523 . S
C808 C792 1.368 . S
C808 C804 1.368 . S
C808 C807 1.523 . S
H809 C784 0.950 . S
H810 C786 0.950 . S
H811 C787 0.949 . S
H812 C789 0.950 . S
H813 C791 0.950 . S
C814 C815 1.349 . S
C814 C816 1.327 . S
C814 H839 0.950 . S
C815 C814 1.349 . S
C815 C831 1.349 . S
C816 C814 1.327 . S
C816 C835 1.429 . S
C816 H840 0.950 . S
C817 C834 1.574 . S
C817 C836 1.368 . S
C817 H841 0.949 . S
H818 C822 0.958 . S
C819 C820 1.349 . S
C819 C821 1.327 . S
C819 H842 0.950 . S
C820 C819 1.349 . S
C820 C832 1.349 . S
C821 C819 1.327 . S
C821 C837 1.429 . S
C821 H843 0.950 . S
C822 H818 0.958 . S
C822 C830 1.563 1_556 S
C822 C838 1.370 . S
H823 C831 0.950 . S
H824 C829 0.950 . S
H825 C830 0.949 . S
H826 C832 0.950 . S
H827 C833 0.950 . S
H828 C834 0.949 . S
C829 H824 0.950 . S
C829 C831 1.327 . S
C829 C835 1.429 . S
C830 C822 1.563 1_554 S
C830 H825 0.949 . S
C830 C836 1.368 . S
C831 C815 1.349 . S
C831 H823 0.950 . S
C831 C829 1.327 . S
C832 C820 1.349 . S
C832 H826 0.950 . S
C832 C833 1.327 . S
C833 H827 0.950 . S
C833 C832 1.327 . S
C833 C837 1.429 . S
C834 C817 1.574 . S
C834 H828 0.949 . S
C834 C838 1.368 1_554 S
C835 C816 1.429 . S
C835 C829 1.429 . S
C835 C836 1.523 . S
C836 C817 1.368 . S
C836 C830 1.368 . S
C836 C835 1.523 . S
C837 C821 1.429 . S
C837 C833 1.429 . S
C837 C838 1.523 . S
C838 C822 1.370 . S
C838 C834 1.368 1_556 S
C838 C837 1.523 . S
H839 C814 0.950 . S
H840 C816 0.950 . S
H841 C817 0.949 . S
H842 C819 0.950 . S
H843 C821 0.950 . S
C844 C845 1.349 . S
C844 C846 1.327 . S
C844 H869 0.950 . S
C845 C844 1.349 . S
C845 C861 1.349 . S
C846 C844 1.327 . S
C846 C865 1.429 . S
C846 H870 0.950 . S
C847 C864 1.574 . S
C847 C866 1.368 . S
C847 H871 0.949 . S
H848 C852 0.949 . S
C849 C850 1.349 . S
C849 C851 1.327 . S
C849 H872 0.950 . S
C850 C849 1.349 . S
C850 C862 1.349 . S
C851 C849 1.327 . S
C851 C867 1.429 . S
C851 H873 0.950 . S
C852 H848 0.949 . S
C852 C860 1.574 . S
C852 C868 1.368 . S
H853 C861 0.950 1_455 S
H854 C859 0.950 . S
H855 C860 0.949 . S
H856 C862 0.950 . S
H857 C863 0.950 . S
H858 C864 0.949 . S
C859 H854 0.950 . S
C859 C861 1.327 . S
C859 C865 1.429 . S
C860 C852 1.574 . S
C860 H855 0.949 . S
C860 C866 1.368 . S
C861 C845 1.349 . S
C861 H853 0.950 1_655 S
C861 C859 1.327 . S
C862 C850 1.349 . S
C862 H856 0.950 . S
C862 C863 1.327 . S
C863 H857 0.950 . S
C863 C862 1.327 . S
C863 C867 1.429 . S
C864 C847 1.574 . S
C864 H858 0.949 . S
C864 C868 1.368 . S
C865 C846 1.429 . S
C865 C859 1.429 . S
C865 C866 1.523 . S
C866 C847 1.368 . S
C866 C860 1.368 . S
C866 C865 1.523 . S
C867 C851 1.429 . S
C867 C863 1.429 . S
C867 C868 1.523 . S
C868 C852 1.368 . S
C868 C864 1.368 . S
C868 C867 1.523 . S
H869 C844 0.950 . S
H870 C846 0.950 . S
H871 C847 0.949 . S
H872 C849 0.950 . S
H873 C851 0.950 . S
C874 C875 1.349 . S
C874 C876 1.327 . S
C874 H899 0.950 . S
C875 C874 1.349 . S
C875 C891 1.349 . S
C876 C874 1.327 . S
C876 C895 1.429 . S
C876 H900 0.950 1_554 S
C877 C894 1.574 1_554 S
C877 C896 1.368 . S
C877 H901 0.949 . S
H878 C882 0.949 . S
C879 C880 1.349 . S
C879 C881 1.327 . S
C879 H902 0.950 . S
C880 C879 1.349 . S
C880 C892 1.349 . S
C881 C879 1.327 . S
C881 C897 1.429 . S
C881 H903 0.950 . S
C882 H878 0.949 . S
C882 C890 1.574 . S
C882 C898 1.368 . S
H883 C891 0.950 . S
H884 C889 0.950 . S
H885 C890 0.949 . S
H886 C892 0.950 . S
H887 C893 0.950 . S
H888 C894 0.949 1_554 S
C889 H884 0.950 . S
C889 C891 1.327 . S
C889 C895 1.429 . S
C890 C882 1.574 . S
C890 H885 0.949 . S
C890 C896 1.368 1_556 S
C891 C875 1.349 . S
C891 H883 0.950 . S
C891 C889 1.327 . S
C892 C880 1.349 . S
C892 H886 0.950 . S
C892 C893 1.327 . S
C893 H887 0.950 . S
C893 C892 1.327 . S
C893 C897 1.429 . S
C894 C877 1.574 1_556 S
C894 H888 0.949 1_556 S
C894 C898 1.368 . S
C895 C876 1.429 . S
C895 C889 1.429 . S
C895 C896 1.523 . S
C896 C877 1.368 . S
C896 C890 1.368 1_554 S
C896 C895 1.523 . S
C897 C881 1.429 . S
C897 C893 1.429 . S
C897 C898 1.523 . S
C898 C882 1.368 . S
C898 C894 1.368 . S
C898 C897 1.523 . S
H899 C874 0.950 . S
H900 C876 0.950 1_556 S
H901 C877 0.949 . S
H902 C879 0.950 . S
H903 C881 0.950 . S
C185 C156 1.527 . S
C190 C17 1.511 . S
C215 C40 1.511 . S
C220 C179 1.527 . S
C245 C110 1.527 . S
C250 C63 1.511 . S
C275 C86 1.511 . S
C280 C133 1.527 . S
C305 C64 1.527 . S
C310 C109 1.511 . S
C335 C132 1.511 . S
C340 C87 1.527 . S
C365 C18 1.527 . S
C370 C155 1.511 . S
C395 C41 1.527 . S
C400 C178 1.511 . S
C425 C16 0.643 . S
C430 C108 0.643 . S
C455 C131 0.643 . S
C460 C39 0.643 . S
C485 C62 0.643 . S
C490 C154 0.643 . S
C515 C177 0.643 . S
C520 C85 0.643 . S
C545 C89 1.258 . S
C550 C20 1.258 . S
C575 C43 1.258 . S
C580 C66 1.258 . S
C605 C181 1.258 . S
C610 C112 1.258 . S
C635 C135 1.258 . S
C640 C158 1.258 . S
C665 C21 1.643 . S
C670 C65 1.604 . S
C695 C44 1.643 1_655 S
C700 C88 1.604 . S
C725 C67 1.643 1_455 S
C730 C19 1.604 . S
C755 C90 1.643 . S
C760 C42 1.604 . S
C785 C113 1.643 . S
C790 C157 1.604 . S
C815 C136 1.643 1_455 S
C820 C180 1.604 . S
C845 C159 1.643 1_655 S
C850 C111 1.604 . S
C875 C134 1.604 . S
C880 C182 1.643 . S
