# Generated by pormake.
# Topology zfg, (5)-cn, num edge types: 1
# Building blocks:
#     Node 0, Type 0, BuildingBlock: XOMCOT_clean_sbu_1, # of connection points: 5
#     Node 1, Type 0, BuildingBlock: XOMCOT_clean_sbu_1, # of connection points: 5
#     Node 2, Type 0, BuildingBlock: XOMCOT_clean_sbu_1, # of connection points: 5
#     Node 3, Type 0, BuildingBlock: XOMCOT_clean_sbu_1, # of connection points: 5
#     Node 4, Type 0, BuildingBlock: XOMCOT_clean_sbu_1, # of connection points: 5
#     Node 5, Type 0, BuildingBlock: XOMCOT_clean_sbu_1, # of connection points: 5
#     Node 6, Type 0, BuildingBlock: XOMCOT_clean_sbu_1, # of connection points: 5
#     Node 7, Type 0, BuildingBlock: XOMCOT_clean_sbu_1, # of connection points: 5
#     Node 8, Type 0, BuildingBlock: XOMCOT_clean_sbu_1, # of connection points: 5
#     Node 9, Type 0, BuildingBlock: XOMCOT_clean_sbu_1, # of connection points: 5
#     Node 10, Type 0, BuildingBlock: XOMCOT_clean_sbu_1, # of connection points: 5
#     Node 11, Type 0, BuildingBlock: XOMCOT_clean_sbu_1, # of connection points: 5
#     Node 12, Type 0, BuildingBlock: XOMCOT_clean_sbu_1, # of connection points: 5
#     Node 13, Type 0, BuildingBlock: XOMCOT_clean_sbu_1, # of connection points: 5
#     Node 14, Type 0, BuildingBlock: XOMCOT_clean_sbu_1, # of connection points: 5
#     Node 15, Type 0, BuildingBlock: XOMCOT_clean_sbu_1, # of connection points: 5
#     Edge 16, Type (0, 0), BuildingBlock: ZUJKAS_clean_linker_0, # of connection points: 2
#     Edge 17, Type (0, 0), BuildingBlock: ZUJKAS_clean_linker_0, # of connection points: 2
#     Edge 18, Type (0, 0), BuildingBlock: ZUJKAS_clean_linker_0, # of connection points: 2
#     Edge 19, Type (0, 0), BuildingBlock: ZUJKAS_clean_linker_0, # of connection points: 2
#     Edge 20, Type (0, 0), BuildingBlock: ZUJKAS_clean_linker_0, # of connection points: 2
#     Edge 21, Type (0, 0), BuildingBlock: ZUJKAS_clean_linker_0, # of connection points: 2
#     Edge 22, Type (0, 0), BuildingBlock: ZUJKAS_clean_linker_0, # of connection points: 2
#     Edge 23, Type (0, 0), BuildingBlock: ZUJKAS_clean_linker_0, # of connection points: 2
#     Edge 24, Type (0, 0), BuildingBlock: ZUJKAS_clean_linker_0, # of connection points: 2
#     Edge 25, Type (0, 0), BuildingBlock: ZUJKAS_clean_linker_0, # of connection points: 2
#     Edge 26, Type (0, 0), BuildingBlock: ZUJKAS_clean_linker_0, # of connection points: 2
#     Edge 27, Type (0, 0), BuildingBlock: ZUJKAS_clean_linker_0, # of connection points: 2
#     Edge 28, Type (0, 0), BuildingBlock: ZUJKAS_clean_linker_0, # of connection points: 2
#     Edge 29, Type (0, 0), BuildingBlock: ZUJKAS_clean_linker_0, # of connection points: 2
#     Edge 30, Type (0, 0), BuildingBlock: ZUJKAS_clean_linker_0, # of connection points: 2
#     Edge 31, Type (0, 0), BuildingBlock: ZUJKAS_clean_linker_0, # of connection points: 2
#     Edge 32, Type (0, 0), BuildingBlock: ZUJKAS_clean_linker_0, # of connection points: 2
#     Edge 33, Type (0, 0), BuildingBlock: ZUJKAS_clean_linker_0, # of connection points: 2
#     Edge 34, Type (0, 0), BuildingBlock: ZUJKAS_clean_linker_0, # of connection points: 2
#     Edge 35, Type (0, 0), BuildingBlock: ZUJKAS_clean_linker_0, # of connection points: 2
#     Edge 36, Type (0, 0), BuildingBlock: ZUJKAS_clean_linker_0, # of connection points: 2
#     Edge 37, Type (0, 0), BuildingBlock: ZUJKAS_clean_linker_0, # of connection points: 2
#     Edge 38, Type (0, 0), BuildingBlock: ZUJKAS_clean_linker_0, # of connection points: 2
#     Edge 39, Type (0, 0), BuildingBlock: ZUJKAS_clean_linker_0, # of connection points: 2
#     Edge 40, Type (0, 0), BuildingBlock: ZUJKAS_clean_linker_0, # of connection points: 2
#     Edge 41, Type (0, 0), BuildingBlock: ZUJKAS_clean_linker_0, # of connection points: 2
#     Edge 42, Type (0, 0), BuildingBlock: ZUJKAS_clean_linker_0, # of connection points: 2
#     Edge 43, Type (0, 0), BuildingBlock: ZUJKAS_clean_linker_0, # of connection points: 2
#     Edge 44, Type (0, 0), BuildingBlock: ZUJKAS_clean_linker_0, # of connection points: 2
#     Edge 45, Type (0, 0), BuildingBlock: ZUJKAS_clean_linker_0, # of connection points: 2
#     Edge 46, Type (0, 0), BuildingBlock: ZUJKAS_clean_linker_0, # of connection points: 2
#     Edge 47, Type (0, 0), BuildingBlock: ZUJKAS_clean_linker_0, # of connection points: 2
#     Edge 48, Type (0, 0), BuildingBlock: ZUJKAS_clean_linker_0, # of connection points: 2
#     Edge 49, Type (0, 0), BuildingBlock: ZUJKAS_clean_linker_0, # of connection points: 2
#     Edge 50, Type (0, 0), BuildingBlock: ZUJKAS_clean_linker_0, # of connection points: 2
#     Edge 51, Type (0, 0), BuildingBlock: ZUJKAS_clean_linker_0, # of connection points: 2
#     Edge 52, Type (0, 0), BuildingBlock: ZUJKAS_clean_linker_0, # of connection points: 2
#     Edge 53, Type (0, 0), BuildingBlock: ZUJKAS_clean_linker_0, # of connection points: 2
#     Edge 54, Type (0, 0), BuildingBlock: ZUJKAS_clean_linker_0, # of connection points: 2
#     Edge 55, Type (0, 0), BuildingBlock: ZUJKAS_clean_linker_0, # of connection points: 2
# Relax obj value: 0.105
# Max RMSD: 0.143
# Mean RMSD: 0.143
data_MOF--net-zfg--node1-XOMCOT_clean_sbu_1--edge1-ZUJKAS_clean_linker_0
_symmetry_space_group_name_H-M    P1
_symmetry_Int_Tables_number       1
_symmetry_cell_setting            triclinic
loop_
_symmetry_equiv_pos_as_xyz
'x, y, z'
_cell_length_a     53.097399
_cell_length_b     53.074691
_cell_length_c     68.128189
_cell_angle_alpha  90.112065
_cell_angle_beta   89.989884
_cell_angle_gamma 89.966452
loop_
_atom_site_label
_atom_site_type_symbol
_atom_site_fract_x
_atom_site_fract_y
_atom_site_fract_z
_atom_type_partial_charge
C0 C 0.04254 0.24971 0.1749 0.0
C1 C 0.05729 0.22841 0.17544 0.0
N2 N 0.07644 0.23142 0.16268 0.0
N3 N 0.05242 0.2661 0.16194 0.0
C4 C 0.07309 0.25446 0.15474 0.0
H5 H 0.02546 0.25295 0.18319 0.0
Co6 Co 0.03865 0.29721 0.15561 0.0
C7 C 0.07098 0.31411 0.12285 0.0
O8 O 0.07625 0.33501 0.13236 0.0
N9 N 0.02462 0.32853 0.14919 0.0
C10 C 0.00607 0.35928 0.13247 0.0
C11 C 0.01407 0.33469 0.13181 0.0
C12 C 0.0228 0.3497 0.16017 0.0
N13 N 0.01162 0.36872 0.15031 0.0
O14 O 0.06554 0.31361 0.16987 0.0
H15 H 0.01259 0.32216 0.11933 0.0
H16 H 0.02948 0.3512 0.17511 0.0
O17 O 0.05704 0.29754 0.13092 0.0
C18 C 0.06021 0.31303 0.18816 0.0
O19 O 0.03867 0.30287 0.19341 0.0
N20 N 0.01154 0.28073 0.14362 0.0
C21 C 0.96949 0.25319 0.13172 0.0
C22 C 0.993 0.24929 0.12277 0.0
C23 C 0.01388 0.2633 0.12895 0.0
C24 C 0.98885 0.28486 0.15237 0.0
C25 C 0.96752 0.27154 0.14649 0.0
H26 H 0.03207 0.25931 0.12258 0.0
H27 H 0.98748 0.2981 0.16442 0.0
H28 H 0.08551 0.2627 0.14392 0.0
H29 H 0.05383 0.21174 0.18417 0.0
H30 H 0.99751 0.36961 0.12052 0.0
H31 H 0.99534 0.23515 0.11143 0.0
H32 H 0.94991 0.27473 0.15412 0.0
C33 C 0.74016 0.07164 0.18404 0.0
C34 C 0.76085 0.08667 0.18151 0.0
N35 N 0.76515 0.08903 0.16212 0.0
N36 N 0.73125 0.06456 0.16637 0.0
C37 C 0.74685 0.0755 0.15318 0.0
H38 H 0.73248 0.06567 0.19796 0.0
Co39 Co 0.705 0.04174 0.16411 0.0
C40 C 0.68652 0.04296 0.12233 0.0
O41 O 0.67677 0.02043 0.12454 0.0
N42 N 0.67824 0.01821 0.16303 0.0
C43 C 0.65523 0.98332 0.16578 0.0
C44 C 0.67925 0.99294 0.16541 0.0
C45 C 0.65328 0.02338 0.1621 0.0
N46 N 0.63888 0.00252 0.16377 0.0
O47 O 0.68245 0.06666 0.17517 0.0
H48 H 0.6962 0.98197 0.16721 0.0
H49 H 0.64577 0.04224 0.16071 0.0
O50 O 0.69839 0.05336 0.13665 0.0
C51 C 0.67849 0.06106 0.19316 0.0
O52 O 0.68879 0.0404 0.20013 0.0
N53 N 0.72816 0.01724 0.15604 0.0
C54 C 0.76353 0.97861 0.15268 0.0
C55 C 0.7527 0.98937 0.13585 0.0
C56 C 0.7352 0.00903 0.13782 0.0
C57 C 0.73907 0.00743 0.17242 0.0
C58 C 0.75666 0.98811 0.17111 0.0
H59 H 0.72763 0.0174 0.12473 0.0
H60 H 0.73348 0.01434 0.18671 0.0
H61 H 0.74547 0.07278 0.13748 0.0
H62 H 0.772 0.09513 0.19307 0.0
H63 H 0.65026 0.96368 0.16754 0.0
H64 H 0.75787 0.98282 0.12134 0.0
H65 H 0.76431 0.98024 0.1845 0.0
C66 C 0.9694 0.75469 0.17555 0.0
C67 C 0.95527 0.77567 0.17982 0.0
N68 N 0.93091 0.77039 0.17613 0.0
N69 N 0.95417 0.73631 0.16873 0.0
C70 C 0.93072 0.74608 0.17016 0.0
H71 H 0.98964 0.75329 0.17677 0.0
Co72 Co 0.96457 0.70439 0.15993 0.0
C73 C 0.93179 0.72159 0.12481 0.0
O74 O 0.92898 0.7451 0.13038 0.0
N75 N 0.97509 0.67254 0.15146 0.0
C76 C 0.9893 0.64211 0.132 0.0
C77 C 0.98361 0.66725 0.13326 0.0
C78 C 0.97583 0.65026 0.16105 0.0
N79 N 0.98428 0.63131 0.14946 0.0
O80 O 0.93716 0.68939 0.17439 0.0
H81 H 0.98561 0.68086 0.12157 0.0
H82 H 0.96987 0.6479 0.1761 0.0
O83 O 0.94448 0.70626 0.13544 0.0
C84 C 0.94393 0.68893 0.1924 0.0
O85 O 0.96657 0.69724 0.19677 0.0
N86 N 0.99292 0.71892 0.14783 0.0
C87 C 0.03734 0.74441 0.13875 0.0
C88 C 0.01497 0.74966 0.1286 0.0
C89 C 0.9929 0.73671 0.13336 0.0
C90 C 0.01477 0.71273 0.15715 0.0
C91 C 0.03724 0.72511 0.15276 0.0
H92 H 0.97581 0.74221 0.12618 0.0
H93 H 0.01444 0.699 0.16886 0.0
H94 H 0.91392 0.73586 0.16598 0.0
H95 H 0.96263 0.79384 0.18418 0.0
H96 H 0.9968 0.63266 0.11919 0.0
H97 H 0.01429 0.76435 0.1176 0.0
H98 H 0.05397 0.72068 0.16116 0.0
C99 C 0.25176 0.95767 0.17414 0.0
C100 C 0.23051 0.94288 0.17434 0.0
N101 N 0.23446 0.92295 0.16244 0.0
N102 N 0.26896 0.94719 0.16207 0.0
C103 C 0.258 0.92593 0.15531 0.0
H104 H 0.25437 0.97523 0.18196 0.0
Co105 Co 0.30001 0.96106 0.15561 0.0
C106 C 0.31496 0.93095 0.12119 0.0
O107 O 0.33579 0.9245 0.13029 0.0
N108 N 0.33114 0.97515 0.14889 0.0
C109 C 0.36104 0.99434 0.13173 0.0
C110 C 0.33625 0.98714 0.13189 0.0
C111 C 0.35315 0.97531 0.15885 0.0
N112 N 0.37171 0.98687 0.14868 0.0
O113 O 0.3166 0.93288 0.16795 0.0
H114 H 0.32287 0.99002 0.12013 0.0
H115 H 0.35557 0.96705 0.17322 0.0
O116 O 0.29883 0.94478 0.12998 0.0
C117 C 0.31557 0.93657 0.18647 0.0
O118 O 0.30507 0.95745 0.19288 0.0
N119 N 0.2835 0.98943 0.14588 0.0
C120 C 0.25418 0.03231 0.14023 0.0
C121 C 0.25091 0.01101 0.12822 0.0
C122 C 0.26572 0.98954 0.1314 0.0
C123 C 0.28763 0.0103 0.15706 0.0
C124 C 0.27334 0.032 0.15438 0.0
H125 H 0.26186 0.97264 0.12307 0.0
H126 H 0.30136 0.00964 0.16878 0.0
H127 H 0.26677 0.9133 0.14487 0.0
H128 H 0.21344 0.94657 0.18255 0.0
H129 H 0.37066 0.00361 0.11974 0.0
H130 H 0.23609 0.01041 0.11731 0.0
H131 H 0.27667 0.0481 0.16382 0.0
C132 C 0.5368 0.25616 0.36448 0.0
C133 C 0.55219 0.27697 0.36333 0.0
N134 N 0.57269 0.27277 0.37453 0.0
N135 N 0.54761 0.23896 0.37631 0.0
C136 C 0.56948 0.24953 0.38214 0.0
H137 H 0.51873 0.2538 0.35739 0.0
Co138 Co 0.53418 0.20789 0.38307 0.0
C139 C 0.56746 0.19168 0.41546 0.0
O140 O 0.57273 0.17073 0.40599 0.0
N141 N 0.52064 0.1766 0.39004 0.0
C142 C 0.50356 0.14598 0.40776 0.0
C143 C 0.51074 0.17079 0.40772 0.0
C144 C 0.51912 0.15502 0.37954 0.0
N145 N 0.50895 0.13599 0.39005 0.0
O146 O 0.56077 0.19151 0.36845 0.0
H147 H 0.50915 0.18373 0.41994 0.0
H148 H 0.52599 0.15306 0.36468 0.0
O149 O 0.55321 0.20807 0.40747 0.0
C150 C 0.55465 0.19235 0.35032 0.0
O151 O 0.53288 0.20257 0.34574 0.0
N152 N 0.50725 0.22431 0.39536 0.0
C153 C 0.46511 0.25116 0.40793 0.0
C154 C 0.48886 0.25579 0.41624 0.0
C155 C 0.50979 0.24207 0.40975 0.0
C156 C 0.48434 0.21957 0.38717 0.0
C157 C 0.46295 0.23251 0.39343 0.0
H158 H 0.52814 0.24651 0.41566 0.0
H159 H 0.4828 0.20606 0.37532 0.0
H160 H 0.58289 0.24032 0.39169 0.0
H161 H 0.54828 0.29408 0.35527 0.0
H162 H 0.49504 0.1361 0.41995 0.0
H163 H 0.4913 0.27023 0.42733 0.0
H164 H 0.44509 0.22879 0.38632 0.0
C165 C 0.74853 0.54337 0.36457 0.0
C166 C 0.72938 0.56041 0.36174 0.0
N167 N 0.73706 0.58304 0.36839 0.0
N168 N 0.76817 0.55508 0.37326 0.0
C169 C 0.76086 0.57941 0.37476 0.0
H170 H 0.74776 0.52362 0.36084 0.0
Co171 Co 0.7991 0.54123 0.38129 0.0
C172 C 0.77955 0.5661 0.41845 0.0
O173 O 0.75591 0.56319 0.41323 0.0
N174 N 0.8298 0.52758 0.3891 0.0
C175 C 0.85962 0.51029 0.40751 0.0
C176 C 0.83527 0.51892 0.40722 0.0
C177 C 0.8511 0.524 0.37861 0.0
N178 N 0.86961 0.51349 0.38951 0.0
O179 O 0.81626 0.56949 0.36949 0.0
H180 H 0.82245 0.51906 0.41955 0.0
H181 H 0.85298 0.52894 0.36329 0.0
O182 O 0.79717 0.55847 0.40704 0.0
C183 C 0.81634 0.5654 0.35098 0.0
O184 O 0.80627 0.54431 0.34457 0.0
N185 N 0.78284 0.512 0.39032 0.0
C186 C 0.75606 0.46708 0.39398 0.0
C187 C 0.75739 0.48414 0.40972 0.0
C188 C 0.77116 0.50649 0.40768 0.0
C189 C 0.7836 0.49455 0.37566 0.0
C190 C 0.77024 0.47209 0.37709 0.0
H191 H 0.77204 0.51905 0.42002 0.0
H192 H 0.7937 0.49876 0.36228 0.0
H193 H 0.77249 0.59399 0.38119 0.0
H194 H 0.71081 0.55614 0.35608 0.0
H195 H 0.86943 0.50289 0.42018 0.0
H196 H 0.74715 0.48074 0.4232 0.0
H197 H 0.77048 0.45908 0.36483 0.0
C198 C 0.46587 0.75263 0.35801 0.0
C199 C 0.4531 0.73013 0.35846 0.0
N200 N 0.43398 0.73224 0.37139 0.0
N201 N 0.4549 0.76888 0.37059 0.0
C202 C 0.43541 0.75602 0.37842 0.0
H203 H 0.48246 0.75678 0.34938 0.0
Co204 Co 0.4669 0.80094 0.37637 0.0
C205 C 0.436 0.8153 0.41073 0.0
O206 O 0.42807 0.83546 0.40142 0.0
N207 N 0.47919 0.83302 0.38232 0.0
C208 C 0.49701 0.86462 0.39854 0.0
C209 C 0.4905 0.83966 0.3993 0.0
C210 C 0.47905 0.85429 0.37144 0.0
N211 N 0.48982 0.87384 0.38101 0.0
O212 O 0.43782 0.81548 0.36374 0.0
H213 H 0.49356 0.82715 0.41159 0.0
H214 H 0.4713 0.85543 0.35679 0.0
O215 O 0.45073 0.7999 0.40204 0.0
C216 C 0.4412 0.81421 0.34519 0.0
O217 O 0.46241 0.80455 0.33866 0.0
N218 N 0.49611 0.78645 0.38657 0.0
C219 C 0.54081 0.76092 0.39449 0.0
C220 C 0.519 0.7561 0.40553 0.0
C221 C 0.49671 0.76905 0.40129 0.0
C222 C 0.5172 0.79175 0.37599 0.0
C223 C 0.5398 0.77939 0.37981 0.0
H224 H 0.47973 0.76413 0.40909 0.0
H225 H 0.51615 0.80496 0.36394 0.0
H226 H 0.42301 0.76365 0.38954 0.0
H227 H 0.45762 0.7135 0.34994 0.0
H228 H 0.50574 0.87533 0.41024 0.0
H229 H 0.51896 0.74191 0.41694 0.0
H230 H 0.55596 0.78331 0.37061 0.0
C231 C 0.25385 0.45082 0.36185 0.0
C232 C 0.27416 0.43596 0.36631 0.0
N233 N 0.26875 0.42291 0.38269 0.0
N234 N 0.2357 0.44738 0.37542 0.0
C235 C 0.2452 0.42997 0.38787 0.0
H236 H 0.25254 0.46371 0.34963 0.0
Co237 Co 0.20623 0.4662 0.37513 0.0
C238 C 0.18421 0.46417 0.41546 0.0
O239 O 0.17437 0.48655 0.41258 0.0
N240 N 0.17622 0.48563 0.37372 0.0
C241 C 0.14852 0.51661 0.3691 0.0
C242 C 0.17352 0.51076 0.37102 0.0
C243 C 0.15225 0.47676 0.37338 0.0
N244 N 0.13513 0.49523 0.37049 0.0
O245 O 0.18901 0.43865 0.36239 0.0
H246 H 0.18842 0.52444 0.37034 0.0
H247 H 0.14745 0.45705 0.37489 0.0
O248 O 0.19724 0.45374 0.4018 0.0
C249 C 0.19092 0.44208 0.34389 0.0
O250 O 0.20326 0.46204 0.3378 0.0
N251 N 0.22461 0.4935 0.38528 0.0
C252 C 0.25565 0.53472 0.39302 0.0
C253 C 0.24847 0.51837 0.4082 0.0
C254 C 0.23309 0.49757 0.40397 0.0
C255 C 0.2329 0.50828 0.3703 0.0
C256 C 0.24793 0.52921 0.37385 0.0
H257 H 0.22883 0.48457 0.41563 0.0
H258 H 0.22731 0.50396 0.3554 0.0
H259 H 0.23544 0.42308 0.40071 0.0
H260 H 0.29159 0.43476 0.35811 0.0
H261 H 0.14078 0.53528 0.36696 0.0
H262 H 0.25476 0.52155 0.42312 0.0
H263 H 0.25386 0.54073 0.36158 0.0
C264 C 0.96751 0.75337 0.86473 0.0
C265 C 0.95245 0.77378 0.86076 0.0
N266 N 0.92865 0.76805 0.86594 0.0
N267 N 0.95342 0.73491 0.87275 0.0
C268 C 0.92966 0.74407 0.87251 0.0
H269 H 0.98761 0.75245 0.86241 0.0
Co270 Co 0.96504 0.70363 0.8817 0.0
C271 C 0.93536 0.72249 0.91771 0.0
O272 O 0.93461 0.74623 0.91237 0.0
N273 N 0.97676 0.67235 0.89039 0.0
C274 C 0.99213 0.64263 0.90992 0.0
C275 C 0.98561 0.66758 0.90857 0.0
C276 C 0.97826 0.65 0.8809 0.0
N277 N 0.9874 0.6315 0.89251 0.0
O278 O 0.93699 0.68764 0.86875 0.0
H279 H 0.98718 0.68139 0.9202 0.0
H280 H 0.97231 0.64717 0.8659 0.0
O281 O 0.94629 0.70619 0.90675 0.0
C282 C 0.94356 0.68458 0.85086 0.0
O283 O 0.96618 0.69209 0.84561 0.0
N284 N 0.99402 0.71896 0.89218 0.0
C285 C 0.03938 0.74431 0.89856 0.0
C286 C 0.01886 0.74775 0.91129 0.0
C287 C 0.99628 0.73488 0.90786 0.0
C288 C 0.01421 0.71431 0.88037 0.0
C289 C 0.03701 0.72678 0.88324 0.0
H290 H 0.98076 0.73852 0.91751 0.0
H291 H 0.01211 0.70177 0.86795 0.0
H292 H 0.91358 0.73371 0.87798 0.0
H293 H 0.95886 0.79191 0.85553 0.0
H294 H 0.99992 0.63351 0.92274 0.0
H295 H 0.01999 0.76075 0.92353 0.0
H296 H 0.05213 0.72367 0.87285 0.0
C297 C 0.25554 0.95505 0.85441 0.0
C298 C 0.23484 0.93958 0.85301 0.0
N299 N 0.23667 0.92156 0.86689 0.0
N300 N 0.27043 0.94685 0.86905 0.0
C301 C 0.25856 0.92639 0.87632 0.0
H302 H 0.25936 0.97147 0.84552 0.0
Co303 Co 0.30004 0.96226 0.87731 0.0
C304 C 0.31522 0.93083 0.9109 0.0
O305 O 0.33659 0.92576 0.902 0.0
N306 N 0.32981 0.9779 0.88586 0.0
C307 C 0.35714 0.99727 0.90544 0.0
C308 C 0.33289 0.98874 0.90365 0.0
C309 C 0.35251 0.98027 0.87702 0.0
N310 N 0.36955 0.99184 0.88872 0.0
O311 O 0.319 0.936 0.86436 0.0
H312 H 0.31846 0.98998 0.91482 0.0
H313 H 0.35674 0.97296 0.86257 0.0
O314 O 0.29874 0.94429 0.90221 0.0
C315 C 0.32041 0.94199 0.84623 0.0
O316 O 0.31116 0.96392 0.8409 0.0
N317 N 0.28105 0.98871 0.88773 0.0
C318 C 0.25015 0.02969 0.89646 0.0
C319 C 0.24659 0.00643 0.90587 0.0
C320 C 0.26229 0.98607 0.90127 0.0
C321 C 0.2849 0.01117 0.87858 0.0
C322 C 0.26987 0.03198 0.88289 0.0
H323 H 0.25864 0.96798 0.9079 0.0
H324 H 0.29928 0.01268 0.86739 0.0
H325 H 0.2655 0.91566 0.88864 0.0
H326 H 0.21966 0.94158 0.84254 0.0
H327 H 0.36503 0.00666 0.91814 0.0
H328 H 0.23147 0.00386 0.91635 0.0
H329 H 0.27293 0.04937 0.87494 0.0
C330 C 0.03809 0.24775 0.86178 0.0
C331 C 0.05171 0.22571 0.8612 0.0
N332 N 0.07201 0.22837 0.87291 0.0
N333 N 0.04969 0.2642 0.87384 0.0
C334 C 0.07041 0.25197 0.88027 0.0
H335 H 0.02053 0.25141 0.85427 0.0
Co336 Co 0.03719 0.29569 0.88073 0.0
C337 C 0.07103 0.31158 0.91281 0.0
O338 O 0.07646 0.3323 0.90317 0.0
N339 N 0.02441 0.32734 0.88779 0.0
C340 C 0.00741 0.35816 0.90549 0.0
C341 C 0.01469 0.33336 0.9055 0.0
C342 C 0.02286 0.34883 0.87724 0.0
N343 N 0.01258 0.3679 0.88771 0.0
O344 O 0.06406 0.31134 0.86603 0.0
H345 H 0.0133 0.32058 0.91781 0.0
H346 H 0.02909 0.35054 0.86219 0.0
O347 O 0.05652 0.29525 0.905 0.0
C348 C 0.05808 0.31124 0.84786 0.0
O349 O 0.03606 0.30182 0.84296 0.0
N350 N 0.01002 0.28 0.89322 0.0
C351 C 0.96745 0.25435 0.90636 0.0
C352 C 0.99117 0.24956 0.91467 0.0
C353 C 0.01231 0.26263 0.90788 0.0
C354 C 0.98715 0.28492 0.88503 0.0
C355 C 0.96556 0.27255 0.89154 0.0
H356 H 0.03059 0.25804 0.91383 0.0
H357 H 0.98579 0.29812 0.87299 0.0
H358 H 0.08359 0.25988 0.8907 0.0
H359 H 0.04694 0.209 0.85287 0.0
H360 H 0.99964 0.36842 0.91783 0.0
H361 H 0.99342 0.23551 0.92604 0.0
H362 H 0.94774 0.2764 0.88441 0.0
C363 C 0.75293 0.05973 0.86022 0.0
C364 C 0.77316 0.07483 0.86435 0.0
N365 N 0.76867 0.08677 0.88143 0.0
N366 N 0.73569 0.06193 0.87466 0.0
C367 C 0.7457 0.07883 0.88734 0.0
H368 H 0.75111 0.04752 0.84759 0.0
Co369 Co 0.70653 0.04247 0.87503 0.0
C370 C 0.68747 0.04224 0.91644 0.0
O371 O 0.67756 0.01993 0.91335 0.0
N372 N 0.67692 0.02248 0.87439 0.0
C373 C 0.64976 0.99062 0.87213 0.0
C374 C 0.67471 0.9972 0.87236 0.0
C375 C 0.65275 0.03075 0.87511 0.0
N376 N 0.63594 0.01172 0.87387 0.0
O377 O 0.68777 0.07036 0.86432 0.0
H378 H 0.68996 0.9839 0.87121 0.0
H379 H 0.64755 0.05033 0.87695 0.0
O380 O 0.6995 0.05327 0.90255 0.0
C381 C 0.68964 0.06922 0.84564 0.0
O382 O 0.70274 0.0507 0.8379 0.0
N383 N 0.72622 0.01498 0.88304 0.0
C384 C 0.75979 0.97485 0.88693 0.0
C385 C 0.7521 0.9887 0.90346 0.0
C386 C 0.73562 0.00916 0.90116 0.0
C387 C 0.73399 0.00196 0.86689 0.0
C388 C 0.75047 0.98174 0.86849 0.0
H389 H 0.7313 0.02056 0.91381 0.0
H390 H 0.72704 0.0073 0.85257 0.0
H391 H 0.73675 0.08472 0.90084 0.0
H392 H 0.78991 0.07692 0.85544 0.0
H393 H 0.64238 0.97172 0.87053 0.0
H394 H 0.75945 0.98433 0.91789 0.0
H395 H 0.75583 0.97154 0.85535 0.0
C396 C 0.47172 0.74684 0.66985 0.0
C397 C 0.45788 0.72531 0.67251 0.0
N398 N 0.43372 0.73035 0.66798 0.0
N399 N 0.45655 0.76538 0.66323 0.0
C400 C 0.43327 0.75504 0.66318 0.0
H401 H 0.49175 0.74857 0.67224 0.0
Co402 Co 0.46688 0.79809 0.65636 0.0
C403 C 0.43824 0.78147 0.61915 0.0
O404 O 0.43776 0.75743 0.6236 0.0
N405 N 0.47738 0.83053 0.64991 0.0
C406 C 0.49279 0.8627 0.63297 0.0
C407 C 0.48641 0.83768 0.63227 0.0
C408 C 0.47844 0.85153 0.66113 0.0
N409 N 0.48779 0.87143 0.65114 0.0
O410 O 0.43802 0.81179 0.66996 0.0
H411 H 0.48834 0.82542 0.61966 0.0
H412 H 0.47277 0.85218 0.67638 0.0
O413 O 0.44867 0.79727 0.63087 0.0
C414 C 0.44263 0.81062 0.68835 0.0
O415 O 0.46431 0.80103 0.69395 0.0
N416 N 0.49663 0.78507 0.64526 0.0
C417 C 0.54275 0.76146 0.63818 0.0
C418 C 0.52242 0.75821 0.62524 0.0
C419 C 0.49946 0.77019 0.62903 0.0
C420 C 0.51663 0.78971 0.65726 0.0
C421 C 0.53982 0.77812 0.65403 0.0
H422 H 0.48403 0.76647 0.61932 0.0
H423 H 0.51405 0.80135 0.67016 0.0
H424 H 0.4166 0.765 0.65833 0.0
H425 H 0.46519 0.70716 0.67697 0.0
H426 H 0.50011 0.87373 0.62091 0.0
H427 H 0.52398 0.74584 0.61263 0.0
H428 H 0.55478 0.78103 0.66458 0.0
C429 C 0.2539 0.45327 0.674 0.0
C430 C 0.27426 0.43842 0.66958 0.0
N431 N 0.26788 0.4231 0.65463 0.0
N432 N 0.23476 0.4476 0.66178 0.0
C433 C 0.24371 0.42884 0.65025 0.0
H434 H 0.25313 0.46744 0.6854 0.0
Co435 Co 0.20417 0.46463 0.66245 0.0
C436 C 0.18359 0.46364 0.62181 0.0
O437 O 0.17359 0.48588 0.62512 0.0
N438 N 0.17291 0.48202 0.66405 0.0
C439 C 0.14271 0.51067 0.66841 0.0
C440 C 0.16816 0.50678 0.66719 0.0
C441 C 0.14969 0.47138 0.66345 0.0
N442 N 0.13105 0.48839 0.66615 0.0
O443 O 0.18852 0.43564 0.67429 0.0
H444 H 0.18186 0.52159 0.66847 0.0
H445 H 0.14651 0.45144 0.66127 0.0
O446 O 0.19625 0.45276 0.63542 0.0
C447 C 0.19138 0.43768 0.69284 0.0
O448 O 0.20402 0.45719 0.69952 0.0
N449 N 0.22097 0.49343 0.65321 0.0
C450 C 0.2505 0.53609 0.64682 0.0
C451 C 0.24547 0.51922 0.63142 0.0
C452 C 0.23082 0.49771 0.63497 0.0
C453 C 0.22716 0.50883 0.66848 0.0
C454 C 0.24129 0.53053 0.66556 0.0
H455 H 0.22841 0.48425 0.62326 0.0
H456 H 0.2208 0.50422 0.68312 0.0
H457 H 0.23296 0.41985 0.63872 0.0
H458 H 0.29231 0.43862 0.67699 0.0
H459 H 0.13352 0.52867 0.67055 0.0
H460 H 0.25306 0.52243 0.61688 0.0
H461 H 0.24562 0.54246 0.67803 0.0
C462 C 0.53306 0.2542 0.67701 0.0
C463 C 0.54584 0.27671 0.67772 0.0
N464 N 0.5662 0.27491 0.66597 0.0
N465 N 0.54524 0.2383 0.66484 0.0
C466 C 0.56549 0.25134 0.65846 0.0
H467 H 0.5156 0.24987 0.68446 0.0
Co468 Co 0.53356 0.2066 0.65756 0.0
C469 C 0.56793 0.1923 0.62535 0.0
O470 O 0.57408 0.17167 0.63485 0.0
N471 N 0.52162 0.17478 0.65009 0.0
C472 C 0.50596 0.14395 0.63173 0.0
C473 C 0.51203 0.16903 0.63229 0.0
C474 C 0.52108 0.15284 0.66015 0.0
N475 N 0.51178 0.13367 0.64922 0.0
O476 O 0.56085 0.19129 0.67202 0.0
H477 H 0.50985 0.18224 0.62034 0.0
H478 H 0.52795 0.15081 0.675 0.0
O479 O 0.55284 0.20804 0.63327 0.0
C480 C 0.55544 0.19154 0.69029 0.0
O481 O 0.53352 0.20082 0.69563 0.0
N482 N 0.50595 0.22192 0.64534 0.0
C483 C 0.463 0.24787 0.63331 0.0
C484 C 0.48651 0.25299 0.62477 0.0
C485 C 0.50785 0.23978 0.63102 0.0
C486 C 0.48325 0.21649 0.65361 0.0
C487 C 0.46147 0.22902 0.64765 0.0
H488 H 0.52599 0.24477 0.62502 0.0
H489 H 0.48221 0.20287 0.66538 0.0
H490 H 0.5789 0.24408 0.64792 0.0
H491 H 0.54042 0.29318 0.68611 0.0
H492 H 0.49782 0.13412 0.61934 0.0
H493 H 0.4885 0.2675 0.61372 0.0
H494 H 0.44383 0.22486 0.65494 0.0
C495 C 0.7563 0.54963 0.68442 0.0
C496 C 0.73632 0.56605 0.68584 0.0
N497 N 0.73779 0.58267 0.67092 0.0
N498 N 0.77035 0.55585 0.66872 0.0
C499 C 0.75871 0.57608 0.66084 0.0
H500 H 0.76025 0.53398 0.69409 0.0
Co501 Co 0.79882 0.53862 0.66038 0.0
C502 C 0.81579 0.56799 0.62637 0.0
O503 O 0.83775 0.57091 0.63495 0.0
N504 N 0.82756 0.52097 0.65185 0.0
C505 C 0.85339 0.49883 0.63274 0.0
C506 C 0.82997 0.50961 0.63418 0.0
C507 C 0.8498 0.5167 0.66092 0.0
N508 N 0.8659 0.50332 0.64957 0.0
O509 O 0.81929 0.56413 0.67268 0.0
H510 H 0.81567 0.50952 0.62287 0.0
H511 H 0.85421 0.52319 0.67555 0.0
O512 O 0.79826 0.55621 0.6353 0.0
C513 C 0.82256 0.55809 0.69063 0.0
O514 O 0.81355 0.53639 0.69671 0.0
N515 N 0.77828 0.51306 0.65054 0.0
C516 C 0.74533 0.47346 0.64267 0.0
C517 C 0.74324 0.49638 0.6325 0.0
C518 C 0.75997 0.51607 0.63667 0.0
C519 C 0.78071 0.49092 0.6604 0.0
C520 C 0.76462 0.47079 0.65656 0.0
H521 H 0.75755 0.53395 0.62936 0.0
H522 H 0.79481 0.48918 0.67178 0.0
H523 H 0.7651 0.58541 0.64767 0.0
H524 H 0.7219 0.56571 0.69706 0.0
H525 H 0.86086 0.48912 0.62003 0.0
H526 H 0.72852 0.49924 0.62173 0.0
H527 H 0.76657 0.4537 0.66508 0.0
H528 H 0.06534 0.27043 0.93662 0.0
H529 H 0.07049 0.26856 0.97224 0.0
H530 H 0.09615 0.34559 0.97273 0.0
H531 H 0.09135 0.34757 0.93703 0.0
H532 H 0.12316 0.31433 0.99867 0.0
H533 H 0.01995 0.3034 1.00855 0.0
H534 H 0.03405 0.27994 0.99303 0.0
H535 H 0.03381 0.31236 0.98542 0.0
C536 C 0.07231 0.28693 0.94424 0.0
C537 C 0.0776 0.30927 0.93394 0.0
C538 C 0.07515 0.28585 0.96465 0.0
C539 C 0.08314 0.30712 0.97523 0.0
C540 C 0.08978 0.329 0.9649 0.0
H541 H 0.09181 0.34955 0.09847 0.0
H542 H 0.09722 0.34686 0.06287 0.0
C543 C 0.08704 0.33008 0.94446 0.0
C544 C 0.08335 0.30697 0.99709 0.0
H545 H 0.04504 0.30033 0.03705 0.0
C546 C 0.1061 0.31128 1.00708 0.0
C547 C 0.06104 0.30311 1.00807 0.0
C548 C 0.03577 0.29967 0.99827 0.0
C549 C 0.10719 0.31141 0.02774 0.0
C550 C 0.08487 0.3075 0.03869 0.0
C551 C 0.06217 0.30316 0.02867 0.0
C552 C 0.08429 0.30831 0.06054 0.0
C553 C 0.13228 0.3153 0.03766 0.0
C554 C 0.07526 0.28755 0.07117 0.0
C555 C 0.07204 0.28906 0.09152 0.0
C556 C 0.07758 0.31147 0.10173 0.0
C557 C 0.08746 0.33196 0.09114 0.0
C558 C 0.09067 0.33042 0.07075 0.0
H559 H 0.14822 0.31112 0.02759 0.0
H560 H 0.1339 0.33526 0.04236 0.0
H561 H 0.13404 0.30322 0.05088 0.0
H562 H 0.07017 0.2703 0.06363 0.0
H563 H 0.06456 0.27284 0.09917 0.0
H564 H 0.71989 0.07667 0.93357 0.0
H565 H 0.7223 0.08811 0.96854 0.0
H566 H 0.65796 0.04109 0.9805 0.0
H567 H 0.65536 0.02978 0.94586 0.0
H568 H 0.65707 0.08889 1.00021 0.0
H569 H 0.74774 0.03777 1.01084 0.0
H570 H 0.74642 0.06127 0.99187 0.0
H571 H 0.72835 0.0329 0.98941 0.0
C572 C 0.70602 0.06913 0.9436 0.0
C573 C 0.68751 0.0522 0.93689 0.0
C574 C 0.70756 0.0755 0.96363 0.0
C575 C 0.69052 0.06517 0.97723 0.0
C576 C 0.67139 0.04923 0.97035 0.0
H577 H 0.65241 0.0341 0.09367 0.0
H578 H 0.65488 0.04548 0.05915 0.0
C579 C 0.66996 0.04274 0.95049 0.0
C580 C 0.6928 0.06979 0.99878 0.0
H581 H 0.72737 0.05285 0.03903 0.0
C582 C 0.67267 0.0814 1.00866 0.0
C583 C 0.71321 0.06018 1.00987 0.0
C584 C 0.73517 0.04719 1.00009 0.0
C585 C 0.67188 0.08268 0.02929 0.0
C586 C 0.69147 0.07159 0.04043 0.0
C587 C 0.71233 0.06134 0.03054 0.0
C588 C 0.68905 0.06737 0.06202 0.0
C589 C 0.64971 0.09542 0.03896 0.0
C590 C 0.70748 0.07582 0.07536 0.0
C591 C 0.70605 0.06933 0.09537 0.0
C592 C 0.68643 0.05386 0.10224 0.0
C593 C 0.66775 0.04608 0.08891 0.0
C594 C 0.66905 0.05272 0.06911 0.0
H595 H 0.64162 0.11025 0.02935 0.0
H596 H 0.63475 0.08125 0.04169 0.0
H597 H 0.65508 0.10408 0.05321 0.0
H598 H 0.72323 0.08696 0.07023 0.0
H599 H 0.72089 0.07537 0.1052 0.0
H600 H 0.91309 0.7528 0.94514 0.0
H601 H 0.90741 0.7444 0.98006 0.0
H602 H 0.93606 0.66907 0.97201 0.0
H603 H 0.94207 0.67737 0.93694 0.0
H604 H 0.88061 0.70734 1.00151 0.0
H605 H 0.9842 0.69995 1.01284 0.0
H606 H 0.97074 0.71236 0.99054 0.0
H607 H 0.97078 0.679 0.99491 0.0
C608 C 0.91796 0.73432 0.95069 0.0
C609 C 0.92843 0.7159 0.93822 0.0
C610 C 0.91464 0.72954 0.97069 0.0
C611 C 0.92176 0.70629 0.97874 0.0
C612 C 0.9309 0.68734 0.96619 0.0
H613 H 0.94198 0.67747 0.10491 0.0
H614 H 0.93662 0.66946 0.06972 0.0
C615 C 0.93421 0.69208 0.94611 0.0
C616 C 0.92087 0.70271 1.00038 0.0
H617 H 0.9586 0.69715 0.04078 0.0
C618 C 0.89763 0.70483 1.0101 0.0
C619 C 0.94307 0.69936 1.01159 0.0
C620 C 0.96868 0.6977 1.00204 0.0
C621 C 0.89606 0.70424 0.03071 0.0
C622 C 0.91838 0.70199 0.04194 0.0
C623 C 0.94149 0.69884 0.03219 0.0
C624 C 0.91863 0.70521 0.06366 0.0
C625 C 0.87049 0.70622 0.04024 0.0
C626 C 0.91003 0.7278 0.07206 0.0
C627 C 0.9131 0.73244 0.09212 0.0
C628 C 0.92509 0.7147 0.10429 0.0
C629 C 0.93277 0.69161 0.09601 0.0
C630 C 0.92973 0.687 0.07587 0.0
H631 H 0.85546 0.69907 0.03035 0.0
H632 H 0.86978 0.69556 0.05424 0.0
H633 H 0.86635 0.72632 0.04342 0.0
H634 H 0.90193 0.7424 0.06294 0.0
H635 H 0.90693 0.75043 0.09791 0.0
H636 H 0.34922 0.9084 0.93563 0.0
H637 H 0.34605 0.90367 0.97123 0.0
H638 H 0.27119 0.93512 0.96993 0.0
H639 H 0.27425 0.94012 0.93435 0.0
H640 H 0.30227 0.95865 0.99666 0.0
H641 H 0.30742 0.85511 1.00643 0.0
H642 H 0.33244 0.86778 0.99172 0.0
H643 H 0.3005 0.86953 0.98305 0.0
C644 C 0.33187 0.91389 0.94283 0.0
C645 C 0.31203 0.92475 0.93206 0.0
C646 C 0.33005 0.91105 0.96322 0.0
C647 C 0.30828 0.91881 0.97328 0.0
C648 C 0.28814 0.92892 0.9625 0.0
H649 H 0.27384 0.94013 0.09791 0.0
H650 H 0.27076 0.93562 0.06226 0.0
C651 C 0.28993 0.93176 0.94212 0.0
C652 C 0.30737 0.91846 0.99513 0.0
H653 H 0.31278 0.88018 0.03525 0.0
C654 C 0.3043 0.94145 1.00509 0.0
C655 C 0.3102 0.89605 1.00615 0.0
C656 C 0.3126 0.87067 0.99632 0.0
C657 C 0.30462 0.94276 0.02569 0.0
C658 C 0.30757 0.92037 0.03673 0.0
C659 C 0.31046 0.89733 0.0268 0.0
C660 C 0.30842 0.92074 0.05858 0.0
C661 C 0.30266 0.96827 0.03543 0.0
C662 C 0.33016 0.91278 0.06852 0.0
C663 C 0.33193 0.91516 0.08896 0.0
C664 C 0.31194 0.92554 0.09989 0.0
C665 C 0.28972 0.93237 0.08997 0.0
C666 C 0.28796 0.92991 0.06955 0.0
H667 H 0.30686 0.98381 0.02503 0.0
H668 H 0.28319 0.97099 0.04095 0.0
H669 H 0.31576 0.96971 0.04808 0.0
H670 H 0.34614 0.9055 0.0604 0.0
H671 H 0.34929 0.90963 0.09609 0.0
H672 H 0.58798 0.1562 0.43998 0.0
H673 H 0.59305 0.159 0.47565 0.0
H674 H 0.5671 0.23595 0.47446 0.0
H675 H 0.56179 0.2333 0.43888 0.0
H676 H 0.62027 0.19196 0.50118 0.0
H677 H 0.5168 0.20072 0.51117 0.0
H678 H 0.5308 0.19111 0.48821 0.0
H679 H 0.53045 0.2238 0.49514 0.0
C680 C 0.58367 0.17385 0.44724 0.0
C681 C 0.57411 0.19441 0.43655 0.0
C682 C 0.58657 0.1754 0.46766 0.0
C683 C 0.57995 0.1975 0.47778 0.0
C684 C 0.5718 0.21851 0.46702 0.0
H685 H 0.5596 0.23301 0.60152 0.0
H686 H 0.56531 0.23544 0.56599 0.0
C687 C 0.56884 0.21698 0.44664 0.0
C688 C 0.58026 0.19816 0.49963 0.0
H689 H 0.54189 0.20465 0.53958 0.0
C690 C 0.60316 0.19473 0.5096 0.0
C691 C 0.55789 0.2017 0.51061 0.0
C692 C 0.53254 0.20432 0.5008 0.0
C693 C 0.60433 0.19516 0.53026 0.0
C694 C 0.58193 0.19865 0.54123 0.0
C695 C 0.55908 0.20213 0.53121 0.0
C696 C 0.5814 0.19816 0.56309 0.0
C697 C 0.62959 0.1923 0.54013 0.0
C698 C 0.58887 0.17652 0.57342 0.0
C699 C 0.58566 0.17508 0.59381 0.0
C700 C 0.57466 0.19516 0.60428 0.0
C701 C 0.568 0.21713 0.59397 0.0
C702 C 0.57126 0.21857 0.57361 0.0
H703 H 0.64529 0.19713 0.53004 0.0
H704 H 0.6309 0.20442 0.55339 0.0
H705 H 0.63207 0.17241 0.54473 0.0
H706 H 0.59625 0.16032 0.56564 0.0
H707 H 0.59086 0.15781 0.60121 0.0
H708 H 0.82596 0.57149 0.43597 0.0
H709 H 0.83474 0.5779 0.47093 0.0
H710 H 0.75504 0.58144 0.48281 0.0
H711 H 0.74614 0.57602 0.44798 0.0
H712 H 0.77972 0.61516 0.5047 0.0
H713 H 0.82772 0.52249 0.51056 0.0
H714 H 0.84215 0.54349 0.49331 0.0
H715 H 0.81082 0.53191 0.48883 0.0
C716 C 0.81032 0.57397 0.44599 0.0
C717 C 0.78533 0.57297 0.43914 0.0
C718 C 0.81536 0.57739 0.46603 0.0
C719 C 0.79554 0.57947 0.47964 0.0
C720 C 0.77067 0.5797 0.47267 0.0
H721 H 0.77231 0.56847 0.60465 0.0
H722 H 0.76826 0.57423 0.56912 0.0
C723 C 0.76562 0.57655 0.45268 0.0
C724 C 0.8004 0.58049 0.50119 0.0
H725 H 0.8266 0.54758 0.53918 0.0
C726 C 0.79005 0.6004 0.51221 0.0
C727 C 0.81373 0.56115 0.51108 0.0
C728 C 0.82404 0.53843 0.5004 0.0
C729 C 0.79261 0.60145 0.53275 0.0
C730 C 0.80582 0.58209 0.54256 0.0
C731 C 0.81658 0.56246 0.53157 0.0
C732 C 0.80791 0.58121 0.56429 0.0
C733 C 0.78119 0.62323 0.54387 0.0
C734 C 0.83152 0.58337 0.57338 0.0
C735 C 0.83389 0.58023 0.59369 0.0
C736 C 0.81273 0.57445 0.60529 0.0
C737 C 0.78899 0.57289 0.59618 0.0
C738 C 0.78662 0.57628 0.57588 0.0
H739 H 0.77618 0.6391 0.534 0.0
H740 H 0.76377 0.61679 0.55135 0.0
H741 H 0.79439 0.63018 0.55531 0.0
H742 H 0.8482 0.58703 0.56468 0.0
H743 H 0.85247 0.58144 0.60018 0.0
H744 H 0.41511 0.75294 0.59106 0.0
H745 H 0.41047 0.76242 0.55621 0.0
H746 H 0.44197 0.83625 0.56575 0.0
H747 H 0.4468 0.82693 0.60078 0.0
H748 H 0.38591 0.80175 0.53467 0.0
H749 H 0.49004 0.80242 0.5255 0.0
H750 H 0.47495 0.79016 0.54721 0.0
H751 H 0.4776 0.82358 0.54372 0.0
C752 C 0.42079 0.77136 0.58587 0.0
C753 C 0.43173 0.78902 0.59875 0.0
C754 C 0.41805 0.77675 0.5659 0.0
C755 C 0.42629 0.79985 0.5583 0.0
C756 C 0.43588 0.81812 0.57125 0.0
H757 H 0.41049 0.84746 0.43536 0.0
H758 H 0.40635 0.84447 0.4711 0.0
C759 C 0.43854 0.81279 0.5913 0.0
C760 C 0.4263 0.80393 0.53669 0.0
H761 H 0.46565 0.80972 0.49725 0.0
C762 C 0.40331 0.80371 0.52648 0.0
C763 C 0.44906 0.80608 0.526 0.0
C764 C 0.47437 0.80539 0.53607 0.0
C765 C 0.4025 0.80556 0.50587 0.0
C766 C 0.42527 0.80777 0.49521 0.0
C767 C 0.44821 0.80812 0.50545 0.0
C768 C 0.42593 0.80885 0.47339 0.0
C769 C 0.37738 0.80435 0.49559 0.0
C770 C 0.43824 0.7898 0.46276 0.0
C771 C 0.44062 0.79143 0.44235 0.0
C772 C 0.43097 0.8123 0.43209 0.0
C773 C 0.41809 0.83108 0.44274 0.0
C774 C 0.41563 0.82938 0.46319 0.0
H775 H 0.36219 0.79754 0.50546 0.0
H776 H 0.37219 0.82347 0.4904 0.0
H777 H 0.3784 0.79176 0.48257 0.0
H778 H 0.44632 0.77378 0.47031 0.0
H779 H 0.45054 0.77655 0.4347 0.0
H780 H 0.21566 0.42926 0.60426 0.0
H781 H 0.21765 0.41826 0.56918 0.0
H782 H 0.15313 0.46548 0.55807 0.0
H783 H 0.1509 0.47627 0.59282 0.0
H784 H 0.15182 0.41903 0.53757 0.0
H785 H 0.2433 0.46878 0.52764 0.0
H786 H 0.24203 0.44451 0.546 0.0
H787 H 0.22425 0.47296 0.54935 0.0
C788 C 0.20165 0.43691 0.59438 0.0
C789 C 0.18321 0.45377 0.60135 0.0
C790 C 0.20295 0.43081 0.5743 0.0
C791 C 0.18578 0.44138 0.56089 0.0
C792 C 0.16667 0.45717 0.56805 0.0
H793 H 0.14963 0.47434 0.44369 0.0
H794 H 0.1511 0.46318 0.47834 0.0
C795 C 0.16545 0.46336 0.58797 0.0
C796 C 0.18796 0.43726 0.53928 0.0
H797 H 0.22307 0.45409 0.49928 0.0
C798 C 0.1676 0.42634 0.52922 0.0
C799 C 0.20859 0.44667 0.52833 0.0
C800 C 0.23078 0.45904 0.53826 0.0
C801 C 0.16685 0.42547 0.50858 0.0
C802 C 0.18676 0.43624 0.49761 0.0
C803 C 0.20778 0.44586 0.50766 0.0
C804 C 0.1848 0.44044 0.476 0.0
C805 C 0.14445 0.41342 0.49871 0.0
C806 C 0.20331 0.43145 0.46294 0.0
C807 C 0.20247 0.43782 0.44292 0.0
C808 C 0.18336 0.45367 0.43568 0.0
C809 C 0.16458 0.46204 0.44873 0.0
C810 C 0.1653 0.45553 0.46858 0.0
H811 H 0.13578 0.39883 0.50824 0.0
H812 H 0.12997 0.42805 0.49586 0.0
H813 H 0.14978 0.40463 0.4845 0.0
H814 H 0.21869 0.41997 0.46833 0.0
H815 H 0.21742 0.43134 0.43335 0.0
H816 H 0.23197 0.05611 0.17103 0.0
H817 H 0.20326 0.09191 0.17038 0.0
H818 H 0.20728 0.0934 0.10715 0.0
H819 H 0.23608 0.05711 0.10771 0.0
H820 H 0.21171 0.1394 0.15605 0.0
H821 H 0.13152 0.0938 0.11719 0.0
H822 H 0.15739 0.07593 0.12726 0.0
H823 H 0.1613 0.0929 0.10468 0.0
C824 C 0.22689 0.06411 0.15696 0.0
C825 C 0.23645 0.05392 0.13941 0.0
C826 C 0.21039 0.08452 0.15661 0.0
C827 C 0.20299 0.09524 0.13873 0.0
C828 C 0.21241 0.08514 0.12111 0.0
H829 H 0.09966 0.22454 0.12761 0.0
H830 H 0.13194 0.19294 0.11974 0.0
C831 C 0.22889 0.06449 0.12144 0.0
C832 C 0.18573 0.11723 0.13894 0.0
H833 H 0.12612 0.13607 0.12698 0.0
C834 C 0.19309 0.13874 0.14953 0.0
C835 C 0.16145 0.11637 0.13039 0.0
C836 C 0.15226 0.09348 0.11935 0.0
C837 C 0.17657 0.15906 0.15231 0.0
C838 C 0.15206 0.15781 0.14435 0.0
C839 C 0.14499 0.13686 0.13305 0.0
C840 C 0.13293 0.17718 0.14897 0.0
C841 C 0.1852 0.18155 0.16408 0.0
C842 C 0.12283 0.1786 0.16796 0.0
C843 C 0.10441 0.19648 0.17246 0.0
C844 C 0.09584 0.21337 0.15807 0.0
C845 C 0.10613 0.21199 0.13905 0.0
C846 C 0.12441 0.19389 0.1345 0.0
H847 H 0.20602 0.18204 0.16566 0.0
H848 H 0.17884 0.19934 0.1571 0.0
H849 H 0.17678 0.18067 0.17897 0.0
H850 H 0.1291 0.16572 0.17927 0.0
H851 H 0.09699 0.19722 0.18724 0.0
H852 H 0.76463 0.11565 0.1281 0.0
H853 H 0.79819 0.14372 0.11612 0.0
H854 H 0.84532 0.12133 0.16461 0.0
H855 H 0.81211 0.09359 0.17653 0.0
H856 H 0.83708 0.17382 0.16133 0.0
H857 H 0.86905 0.13097 0.09094 0.0
H858 H 0.83568 0.13517 0.09439 0.0
H859 H 0.85244 0.11311 0.10941 0.0
C860 C 0.78238 0.11639 0.13589 0.0
C861 C 0.78567 0.10275 0.15339 0.0
C862 C 0.80151 0.13236 0.12905 0.0
C863 C 0.82422 0.13459 0.13951 0.0
C864 C 0.8279 0.11998 0.15638 0.0
H865 H 0.96893 0.20197 0.12766 0.0
H866 H 0.93195 0.17454 0.12605 0.0
C867 C 0.80887 0.10423 0.16323 0.0
C868 C 0.84338 0.15375 0.13431 0.0
H869 H 0.88919 0.16849 0.10103 0.0
C870 C 0.84831 0.17284 0.14805 0.0
C871 C 0.85805 0.15225 0.11703 0.0
C872 C 0.85378 0.13173 0.10207 0.0
C873 C 0.86798 0.19005 0.14531 0.0
C874 C 0.88284 0.18853 0.1281 0.0
C875 C 0.87761 0.16975 0.11411 0.0
C876 C 0.90501 0.20513 0.12534 0.0
C877 C 0.87339 0.209 0.16134 0.0
C878 C 0.90216 0.2314 0.12463 0.0
C879 C 0.92324 0.24711 0.12567 0.0
C880 C 0.94757 0.2368 0.12718 0.0
C881 C 0.95046 0.21048 0.12639 0.0
C882 C 0.92934 0.19478 0.1255 0.0
H883 H 0.86378 0.20412 0.17531 0.0
H884 H 0.89394 0.21036 0.16418 0.0
H885 H 0.8666 0.22784 0.15668 0.0
H886 H 0.88355 0.23976 0.12415 0.0
H887 H 0.92047 0.26733 0.12595 0.0
H888 H 0.75997 0.93607 0.12994 0.0
H889 H 0.78719 0.89868 0.13113 0.0
H890 H 0.83407 0.93517 0.17434 0.0
H891 H 0.80745 0.97265 0.17287 0.0
H892 H 0.86127 0.90965 0.14528 0.0
H893 H 0.78644 0.84915 0.17758 0.0
H894 H 0.77877 0.86426 0.15476 0.0
H895 H 0.78369 0.88301 0.17639 0.0
C896 C 0.77634 0.93624 0.13942 0.0
C897 C 0.78144 0.95718 0.15146 0.0
C898 C 0.79168 0.91478 0.14026 0.0
C899 C 0.81231 0.91398 0.15315 0.0
C900 C 0.81809 0.93531 0.16445 0.0
H901 H 0.92627 0.81394 0.19662 0.0
H902 H 0.89617 0.84787 0.19041 0.0
C903 C 0.80282 0.95667 0.16364 0.0
C904 C 0.82776 0.89089 0.15535 0.0
H905 H 0.82614 0.83036 0.17236 0.0
C906 C 0.85357 0.89227 0.15109 0.0
C907 C 0.81762 0.86824 0.16294 0.0
C908 C 0.79016 0.86597 0.16835 0.0
C909 C 0.8696 0.87171 0.15443 0.0
C910 C 0.85961 0.84932 0.16253 0.0
C911 C 0.8337 0.84763 0.16626 0.0
C912 C 0.87606 0.82778 0.16764 0.0
C913 C 0.89714 0.8741 0.14926 0.0
C914 C 0.87393 0.80483 0.15756 0.0
C915 C 0.89114 0.78537 0.16107 0.0
C916 C 0.91074 0.78855 0.17479 0.0
C917 C 0.91177 0.81106 0.18569 0.0
C918 C 0.8946 0.83047 0.18215 0.0
H919 H 0.90055 0.8898 0.13883 0.0
H920 H 0.90808 0.87795 0.16282 0.0
H921 H 0.90437 0.85636 0.14267 0.0
H922 H 0.85961 0.80235 0.1464 0.0
H923 H 0.88977 0.7684 0.15233 0.0
H924 H 0.24491 0.87444 0.15294 0.0
H925 H 0.21444 0.84124 0.14478 0.0
H926 H 0.15352 0.89401 0.15279 0.0
H927 H 0.18376 0.9272 0.16077 0.0
H928 H 0.17227 0.8254 0.17034 0.0
H929 H 0.14134 0.86075 0.09757 0.0
H930 H 0.17092 0.86979 0.10866 0.0
H931 H 0.14202 0.88394 0.11683 0.0
C932 C 0.22504 0.87898 0.15276 0.0
C933 C 0.21672 0.90341 0.15753 0.0
C934 C 0.20769 0.86002 0.14817 0.0
C935 C 0.18181 0.86532 0.14796 0.0
C936 C 0.17346 0.88967 0.15263 0.0
H937 H 0.03862 0.79565 0.13662 0.0
H938 H 0.0756 0.82292 0.13691 0.0
C939 C 0.19074 0.90853 0.15739 0.0
C940 C 0.16326 0.84524 0.14376 0.0
H941 H 0.11592 0.82904 0.11231 0.0
C942 C 0.16015 0.82589 0.15752 0.0
C943 C 0.14752 0.84612 0.12706 0.0
C944 C 0.15066 0.86613 0.11156 0.0
C945 C 0.14083 0.80802 0.15553 0.0
C946 C 0.12464 0.80922 0.13902 0.0
C947 C 0.12835 0.82812 0.12492 0.0
C948 C 0.10256 0.79232 0.13695 0.0
C949 C 0.13714 0.78886 0.17162 0.0
C950 C 0.10542 0.76603 0.13626 0.0
C951 C 0.08424 0.75034 0.13615 0.0
C952 C 0.05986 0.76071 0.13643 0.0
C953 C 0.05712 0.78706 0.13615 0.0
C954 C 0.07825 0.80268 0.13641 0.0
H955 H 0.14736 0.79415 0.18525 0.0
H956 H 0.11685 0.78665 0.17519 0.0
H957 H 0.14445 0.77034 0.16664 0.0
H958 H 0.12401 0.75763 0.13617 0.0
H959 H 0.08692 0.73011 0.13613 0.0
H960 H 0.72548 0.45047 0.36469 0.0
H961 H 0.69724 0.41432 0.36488 0.0
H962 H 0.719 0.39757 0.42443 0.0
H963 H 0.74759 0.43396 0.42435 0.0
H964 H 0.70931 0.36355 0.37102 0.0
H965 H 0.64154 0.3994 0.4269 0.0
H966 H 0.66419 0.41963 0.41502 0.0
H967 H 0.67412 0.39846 0.43403 0.0
C968 C 0.72449 0.439 0.3778 0.0
C969 C 0.73893 0.44498 0.39447 0.0
C970 C 0.70823 0.41841 0.3779 0.0
C971 C 0.7059 0.40338 0.39469 0.0
C972 C 0.72025 0.40919 0.41142 0.0
H973 H 0.60136 0.27608 0.40738 0.0
H974 H 0.63585 0.30574 0.41354 0.0
C975 C 0.73657 0.42993 0.41134 0.0
C976 C 0.6885 0.38158 0.39428 0.0
H977 H 0.63262 0.36004 0.41253 0.0
C978 C 0.69266 0.36265 0.38022 0.0
C979 C 0.66686 0.38043 0.40636 0.0
C980 C 0.66118 0.4006 0.42136 0.0
C981 C 0.6754 0.34296 0.37755 0.0
C982 C 0.65328 0.34237 0.38907 0.0
C983 C 0.6496 0.36065 0.4037 0.0
C984 C 0.63298 0.32391 0.38524 0.0
C985 C 0.68082 0.32309 0.36225 0.0
C986 C 0.61988 0.32449 0.36737 0.0
C987 C 0.60023 0.30763 0.36382 0.0
C988 C 0.59329 0.28984 0.37808 0.0
C989 C 0.60649 0.2893 0.39599 0.0
C990 C 0.62608 0.30631 0.39958 0.0
H991 H 0.70119 0.32226 0.35855 0.0
H992 H 0.67466 0.3042 0.36734 0.0
H993 H 0.67031 0.32765 0.34864 0.0
H994 H 0.62471 0.3382 0.35622 0.0
H995 H 0.59056 0.30841 0.34985 0.0
H996 H 0.54356 0.7099 0.39913 0.0
H997 H 0.58119 0.6835 0.39805 0.0
H998 H 0.6277 0.74976 0.39304 0.0
H999 H 0.59005 0.77639 0.39417 0.0
H1000 H 0.63739 0.71497 0.36435 0.0
H1001 H 0.63716 0.66864 0.43707 0.0
H1002 H 0.60749 0.66581 0.42465 0.0
H1003 H 0.61869 0.69644 0.43191 0.0
C1004 C 0.56183 0.71892 0.39839 0.0
C1005 C 0.56382 0.74525 0.39674 0.0
C1006 C 0.58334 0.70379 0.39776 0.0
C1007 C 0.60728 0.71467 0.39566 0.0
C1008 C 0.60941 0.74099 0.39471 0.0
H1009 H 0.74143 0.61865 0.39683 0.0
H1010 H 0.71251 0.65359 0.40323 0.0
C1011 C 0.58789 0.75615 0.39531 0.0
C1012 C 0.62969 0.69847 0.3926 0.0
H1013 H 0.66197 0.64875 0.41192 0.0
C1014 C 0.643 0.70072 0.37487 0.0
C1015 C 0.63717 0.6801 0.40642 0.0
C1016 C 0.62454 0.67774 0.42617 0.0
C1017 C 0.66289 0.68435 0.37023 0.0
C1018 C 0.66935 0.66499 0.38353 0.0
C1019 C 0.65681 0.66345 0.40164 0.0
C1020 C 0.68818 0.64535 0.37858 0.0
C1021 C 0.67669 0.68784 0.35107 0.0
C1022 C 0.68419 0.62927 0.36251 0.0
C1023 C 0.70078 0.60941 0.35873 0.0
C1024 C 0.72159 0.60512 0.37103 0.0
C1025 C 0.72585 0.62164 0.38687 0.0
C1026 C 0.70922 0.6415 0.39066 0.0
H1027 H 0.67488 0.70746 0.34558 0.0
H1028 H 0.697 0.68324 0.35261 0.0
H1029 H 0.66846 0.67507 0.33986 0.0
H1030 H 0.66782 0.63162 0.3532 0.0
H1031 H 0.69705 0.59712 0.34637 0.0
H1032 H 0.24934 0.58224 0.37898 0.0
H1033 H 0.27978 0.61677 0.37971 0.0
H1034 H 0.32957 0.57197 0.41543 0.0
H1035 H 0.29914 0.5371 0.41467 0.0
H1036 H 0.32445 0.62832 0.42502 0.0
H1037 H 0.3473 0.60465 0.34746 0.0
H1038 H 0.3144 0.60864 0.35293 0.0
H1039 H 0.33147 0.5829 0.36365 0.0
C1040 C 0.26662 0.57986 0.38722 0.0
C1041 C 0.27205 0.55688 0.39655 0.0
C1042 C 0.28392 0.59961 0.38767 0.0
C1043 C 0.30698 0.59673 0.3974 0.0
C1044 C 0.31183 0.57447 0.40783 0.0
H1045 H 0.44164 0.68177 0.37024 0.0
H1046 H 0.41145 0.6488 0.37847 0.0
C1047 C 0.29444 0.55464 0.40743 0.0
C1048 C 0.32682 0.616 0.39497 0.0
H1049 H 0.36549 0.64172 0.36042 0.0
C1050 C 0.33356 0.63125 0.41096 0.0
C1051 C 0.33879 0.61949 0.37664 0.0
C1052 C 0.33285 0.60296 0.35918 0.0
C1053 C 0.35168 0.65039 0.40893 0.0
C1054 C 0.36306 0.65438 0.39041 0.0
C1055 C 0.35664 0.63872 0.37458 0.0
C1056 C 0.38179 0.67458 0.38695 0.0
C1057 C 0.35869 0.666 0.42663 0.0
C1058 C 0.37511 0.70004 0.38895 0.0
C1059 C 0.39232 0.719 0.38411 0.0
C1060 C 0.41645 0.71281 0.37703 0.0
C1061 C 0.42311 0.68724 0.37531 0.0
C1062 C 0.40594 0.66835 0.38017 0.0
H1063 H 0.35319 0.6566 0.44054 0.0
H1064 H 0.37926 0.66974 0.42695 0.0
H1065 H 0.34877 0.68438 0.4259 0.0
H1066 H 0.35637 0.70527 0.39373 0.0
H1067 H 0.38648 0.73847 0.38539 0.0
H1068 H 0.25616 0.37863 0.39978 0.0
H1069 H 0.28563 0.3466 0.41232 0.0
H1070 H 0.34802 0.39595 0.39964 0.0
H1071 H 0.31882 0.42768 0.38714 0.0
H1072 H 0.32523 0.32645 0.38723 0.0
H1073 H 0.36364 0.36839 0.45549 0.0
H1074 H 0.33365 0.37765 0.44518 0.0
H1075 H 0.36247 0.38978 0.4351 0.0
C1076 C 0.27612 0.38274 0.40013 0.0
C1077 C 0.2853 0.40548 0.3924 0.0
C1078 C 0.2929 0.3645 0.40723 0.0
C1079 C 0.31896 0.36906 0.40709 0.0
C1080 C 0.32797 0.39221 0.40017 0.0
H1081 H 0.46317 0.30241 0.41008 0.0
H1082 H 0.42562 0.32884 0.41305 0.0
C1083 C 0.31132 0.41022 0.39287 0.0
C1084 C 0.33717 0.34884 0.41186 0.0
H1085 H 0.38859 0.3361 0.44023 0.0
C1086 C 0.33877 0.32817 0.39908 0.0
C1087 C 0.35489 0.35138 0.4272 0.0
C1088 C 0.35352 0.37288 0.44166 0.0
C1089 C 0.35861 0.31077 0.40045 0.0
C1090 C 0.37691 0.31374 0.41542 0.0
C1091 C 0.37458 0.33381 0.42878 0.0
C1092 C 0.39974 0.29761 0.41628 0.0
C1093 C 0.36063 0.29037 0.38504 0.0
C1094 C 0.39782 0.27131 0.41787 0.0
C1095 C 0.41924 0.25616 0.41596 0.0
C1096 C 0.44302 0.26709 0.41285 0.0
C1097 C 0.44512 0.29347 0.41259 0.0
C1098 C 0.42366 0.30859 0.41424 0.0
H1099 H 0.34852 0.2943 0.3721 0.0
H1100 H 0.38037 0.28823 0.37991 0.0
H1101 H 0.35448 0.27217 0.39142 0.0
H1102 H 0.37966 0.26246 0.41998 0.0
H1103 H 0.41716 0.23587 0.41647 0.0
H1104 H 0.89049 0.76694 0.89253 0.0
H1105 H 0.85961 0.80021 0.89866 0.0
H1106 H 0.88965 0.84288 0.85024 0.0
H1107 H 0.92048 0.80962 0.8439 0.0
H1108 H 0.88727 0.86931 0.88671 0.0
H1109 H 0.79619 0.8232 0.86815 0.0
H1110 H 0.81671 0.80619 0.88442 0.0
H1111 H 0.82607 0.81133 0.85944 0.0
C1112 C 0.89012 0.78305 0.88283 0.0
C1113 C 0.90807 0.78566 0.86775 0.0
C1114 C 0.87247 0.8021 0.8864 0.0
C1115 C 0.87233 0.82397 0.87487 0.0
C1116 C 0.88951 0.82616 0.85934 0.0
H1117 H 0.80091 0.96635 0.86408 0.0
H1118 H 0.82835 0.92947 0.86395 0.0
C1119 C 0.90714 0.80717 0.85576 0.0
C1120 C 0.85567 0.84546 0.87982 0.0
H1121 H 0.79428 0.86458 0.88081 0.0
C1122 C 0.86693 0.86825 0.8855 0.0
C1123 C 0.82915 0.84389 0.87849 0.0
C1124 C 0.8162 0.81993 0.87217 0.0
C1125 C 0.8524 0.88973 0.88948 0.0
C1126 C 0.82594 0.88847 0.8874 0.0
C1127 C 0.81458 0.86545 0.88241 0.0
C1128 C 0.81002 0.91136 0.88853 0.0
C1129 C 0.86552 0.91363 0.89577 0.0
C1130 C 0.79048 0.91335 0.90235 0.0
C1131 C 0.77464 0.93449 0.90241 0.0
C1132 C 0.77792 0.95368 0.88845 0.0
C1133 C 0.79781 0.95176 0.87491 0.0
C1134 C 0.81363 0.9308 0.87492 0.0
H1135 H 0.88416 0.9096 0.90247 0.0
H1136 H 0.86868 0.92568 0.88271 0.0
H1137 H 0.85394 0.92439 0.90647 0.0
H1138 H 0.78733 0.89844 0.9129 0.0
H1139 H 0.75933 0.93541 0.91289 0.0
H1140 H 0.24467 0.87824 0.88746 0.0
H1141 H 0.21365 0.84587 0.89545 0.0
H1142 H 0.15664 0.88739 0.86422 0.0
H1143 H 0.18713 0.92027 0.85663 0.0
H1144 H 0.16329 0.85426 0.91554 0.0
H1145 H 0.15806 0.81312 0.8405 0.0
H1146 H 0.18469 0.83141 0.84886 0.0
H1147 H 0.15595 0.84691 0.84206 0.0
C1148 C 0.22553 0.88074 0.88241 0.0
C1149 C 0.21857 0.90203 0.87132 0.0
C1150 C 0.20785 0.86209 0.88694 0.0
C1151 C 0.18298 0.86422 0.88029 0.0
C1152 C 0.17588 0.88533 0.86928 0.0
H1153 H 0.04192 0.79461 0.90727 0.0
H1154 H 0.07868 0.82209 0.90536 0.0
C1155 C 0.19344 0.90406 0.86487 0.0
C1156 C 0.16427 0.84446 0.88487 0.0
H1157 H 0.12748 0.79946 0.86348 0.0
C1158 C 0.15557 0.8421 0.90423 0.0
C1159 C 0.15448 0.82854 0.87009 0.0
C1160 C 0.16384 0.82987 0.84921 0.0
C1161 C 0.13663 0.8247 0.90906 0.0
C1162 C 0.12616 0.80944 0.89412 0.0
C1163 C 0.1355 0.81125 0.8749 0.0
C1164 C 0.10472 0.79226 0.8978 0.0
C1165 C 0.12788 0.82283 0.93007 0.0
C1166 C 0.10722 0.76632 0.89434 0.0
C1167 C 0.08625 0.75048 0.89556 0.0
C1168 C 0.0623 0.76035 0.90003 0.0
C1169 C 0.0601 0.78626 0.90414 0.0
C1170 C 0.0811 0.80204 0.90301 0.0
H1171 H 0.1419 0.83091 0.94042 0.0
H1172 H 0.11002 0.83348 0.93178 0.0
H1173 H 0.12425 0.80291 0.93417 0.0
H1174 H 0.1253 0.75842 0.89027 0.0
H1175 H 0.0887 0.73058 0.89256 0.0
H1176 H 0.2612 0.07967 0.90123 0.0
H1177 H 0.23166 0.1151 0.90147 0.0
H1178 H 0.16938 0.06318 0.89754 0.0
H1179 H 0.19877 0.02774 0.89748 0.0
H1180 H 0.20013 0.1267 0.87175 0.0
H1181 H 0.1444 0.11113 0.93933 0.0
H1182 H 0.17393 0.09527 0.93479 0.0
H1183 H 0.14531 0.08384 0.92377 0.0
C1184 C 0.24118 0.07582 0.90072 0.0
C1185 C 0.2323 0.05092 0.89935 0.0
C1186 C 0.22433 0.09606 0.9009 0.0
C1187 C 0.19828 0.09181 0.89974 0.0
C1188 C 0.18934 0.06693 0.89895 0.0
H1189 H 0.06573 0.1777 0.87263 0.0
H1190 H 0.09744 0.14567 0.87994 0.0
C1191 C 0.20618 0.04667 0.89889 0.0
C1192 C 0.18067 0.11333 0.89744 0.0
H1193 H 0.12672 0.13952 0.91569 0.0
C1194 C 0.18428 0.12971 0.88152 0.0
C1195 C 0.15995 0.1172 0.91017 0.0
C1196 C 0.15577 0.10107 0.92808 0.0
C1197 C 0.16729 0.14932 0.87758 0.0
C1198 C 0.14627 0.15279 0.89003 0.0
C1199 C 0.14285 0.13673 0.90615 0.0
C1200 C 0.12712 0.17243 0.88607 0.0
C1201 C 0.17145 0.16563 0.85976 0.0
C1202 C 0.13328 0.19809 0.88727 0.0
C1203 C 0.11521 0.21647 0.883 0.0
C1204 C 0.09066 0.20949 0.87744 0.0
C1205 C 0.08454 0.18373 0.87651 0.0
C1206 C 0.10257 0.16539 0.88086 0.0
H1207 H 0.1857 0.15747 0.84963 0.0
H1208 H 0.15356 0.16831 0.85158 0.0
H1209 H 0.17819 0.18446 0.86452 0.0
H1210 H 0.15208 0.20388 0.89148 0.0
H1211 H 0.12057 0.23611 0.88377 0.0
H1212 H 0.75638 0.12893 0.9019 0.0
H1213 H 0.78597 0.16078 0.9146 0.0
H1214 H 0.84848 0.11516 0.89528 0.0
H1215 H 0.8192 0.08352 0.88269 0.0
H1216 H 0.85229 0.14008 0.93545 0.0
H1217 H 0.82831 0.2033 0.87284 0.0
H1218 H 0.80322 0.19026 0.88743 0.0
H1219 H 0.82165 0.16996 0.87203 0.0
C1220 C 0.77644 0.12558 0.90074 0.0
C1221 C 0.78555 0.10398 0.8911 0.0
C1222 C 0.79327 0.14375 0.9079 0.0
C1223 C 0.81936 0.14033 0.90571 0.0
C1224 C 0.82842 0.11814 0.89707 0.0
H1225 H 0.96473 0.20333 0.91035 0.0
H1226 H 0.92696 0.17771 0.91441 0.0
C1227 C 0.81169 0.10019 0.88977 0.0
C1228 C 0.83748 0.16048 0.91074 0.0
H1229 H 0.86319 0.21414 0.89198 0.0
C1230 C 0.85445 0.15657 0.92622 0.0
C1231 C 0.84013 0.18195 0.89869 0.0
C1232 C 0.82249 0.18678 0.88174 0.0
C1233 C 0.87461 0.17317 0.92954 0.0
C1234 C 0.87826 0.19377 0.91667 0.0
C1235 C 0.86046 0.19834 0.90183 0.0
C1236 C 0.90146 0.20943 0.917 0.0
C1237 C 0.89192 0.16826 0.94667 0.0
C1238 C 0.89982 0.23585 0.91693 0.0
C1239 C 0.92142 0.25054 0.91431 0.0
C1240 C 0.94509 0.2391 0.91177 0.0
C1241 C 0.94684 0.2127 0.91262 0.0
C1242 C 0.92522 0.19803 0.91504 0.0
H1243 H 0.88177 0.15862 0.95877 0.0
H1244 H 0.90744 0.15567 0.94185 0.0
H1245 H 0.90021 0.186 0.95243 0.0
H1246 H 0.88171 0.24509 0.91831 0.0
H1247 H 0.91953 0.27085 0.91381 0.0
H1248 H 0.43904 0.68141 0.65771 0.0
H1249 H 0.40574 0.65084 0.65185 0.0
H1250 H 0.34983 0.70706 0.66585 0.0
H1251 H 0.38335 0.73807 0.6716 0.0
H1252 H 0.37078 0.63304 0.67685 0.0
H1253 H 0.32397 0.68002 0.61386 0.0
H1254 H 0.35447 0.68961 0.62285 0.0
H1255 H 0.32634 0.69918 0.63553 0.0
C1256 C 0.4197 0.68729 0.65976 0.0
C1257 C 0.41385 0.71218 0.66526 0.0
C1258 C 0.40065 0.6698 0.65624 0.0
C1259 C 0.37528 0.67672 0.65813 0.0
C1260 C 0.36927 0.70146 0.66384 0.0
H1261 H 0.24138 0.584 0.65934 0.0
H1262 H 0.27114 0.61926 0.66016 0.0
C1263 C 0.38841 0.71911 0.66724 0.0
C1264 C 0.35541 0.65756 0.65472 0.0
H1265 H 0.30408 0.64335 0.62649 0.0
C1266 C 0.35627 0.63529 0.66579 0.0
C1267 C 0.3365 0.66051 0.64025 0.0
C1268 C 0.33531 0.6835 0.6273 0.0
C1269 C 0.3387 0.61596 0.66286 0.0
C1270 C 0.31984 0.61891 0.64844 0.0
C1271 C 0.31871 0.6412 0.63747 0.0
C1272 C 0.3008 0.59908 0.64511 0.0
C1273 C 0.3402 0.59253 0.67533 0.0
C1274 C 0.30746 0.57642 0.63579 0.0
C1275 C 0.29047 0.55629 0.63523 0.0
C1276 C 0.26671 0.55853 0.64413 0.0
C1277 C 0.25966 0.58174 0.6525 0.0
C1278 C 0.27656 0.60189 0.65292 0.0
H1279 H 0.35385 0.59457 0.68759 0.0
H1280 H 0.3214 0.58795 0.68151 0.0
H1281 H 0.3462 0.57638 0.66606 0.0
H1282 H 0.32615 0.574 0.62969 0.0
H1283 H 0.29645 0.53856 0.62883 0.0
H1284 H 0.31767 0.42722 0.6481 0.0
H1285 H 0.34623 0.39405 0.637 0.0
H1286 H 0.28337 0.34339 0.63013 0.0
H1287 H 0.25455 0.37679 0.64137 0.0
H1288 H 0.32373 0.32551 0.65436 0.0
H1289 H 0.35934 0.36068 0.58313 0.0
H1290 H 0.35986 0.38402 0.60224 0.0
H1291 H 0.3302 0.37162 0.59392 0.0
C1292 C 0.3099 0.40912 0.64397 0.0
C1293 C 0.28395 0.40449 0.6457 0.0
C1294 C 0.32619 0.39027 0.63744 0.0
C1295 C 0.31689 0.36636 0.63252 0.0
C1296 C 0.29086 0.36182 0.63366 0.0
H1297 H 0.4146 0.23216 0.62655 0.0
H1298 H 0.37694 0.25854 0.62314 0.0
C1299 C 0.27444 0.38087 0.64001 0.0
C1300 C 0.33488 0.34566 0.62842 0.0
H1301 H 0.38522 0.33013 0.59965 0.0
C1302 C 0.33685 0.32612 0.64216 0.0
C1303 C 0.35202 0.34669 0.61257 0.0
C1304 C 0.35016 0.36676 0.59701 0.0
C1305 C 0.35654 0.30848 0.64122 0.0
C1306 C 0.37434 0.31008 0.62578 0.0
C1307 C 0.37161 0.32893 0.61149 0.0
C1308 C 0.39712 0.29386 0.62526 0.0
C1309 C 0.35898 0.28933 0.65747 0.0
C1310 C 0.42107 0.30494 0.62655 0.0
C1311 C 0.44259 0.28994 0.62825 0.0
C1312 C 0.44057 0.26354 0.62875 0.0
C1313 C 0.41668 0.25246 0.6265 0.0
C1314 C 0.39517 0.26749 0.62462 0.0
H1315 H 0.3471 0.2942 0.67037 0.0
H1316 H 0.35284 0.27063 0.65197 0.0
H1317 H 0.37884 0.2877 0.66242 0.0
H1318 H 0.42304 0.32525 0.62705 0.0
H1319 H 0.46068 0.29905 0.63013 0.0
H1320 H 0.55743 0.32518 0.66587 0.0
H1321 H 0.58756 0.35862 0.65859 0.0
H1322 H 0.64546 0.30302 0.6486 0.0
H1323 H 0.61527 0.2694 0.65575 0.0
H1324 H 0.63065 0.36989 0.67786 0.0
H1325 H 0.65246 0.34682 0.60024 0.0
H1326 H 0.62609 0.33317 0.61313 0.0
H1327 H 0.65736 0.32101 0.6168 0.0
C1328 C 0.57658 0.32004 0.66217 0.0
C1329 C 0.58396 0.2946 0.66142 0.0
C1330 C 0.59375 0.33918 0.65789 0.0
C1331 C 0.61867 0.33334 0.65275 0.0
C1332 C 0.62616 0.30797 0.65203 0.0
H1333 H 0.75382 0.42271 0.63985 0.0
H1334 H 0.72242 0.38892 0.6408 0.0
C1335 C 0.60892 0.28877 0.65619 0.0
C1336 C 0.63702 0.35394 0.6492 0.0
H1337 H 0.67839 0.37779 0.61556 0.0
C1338 C 0.64093 0.37171 0.66418 0.0
C1339 C 0.65048 0.35626 0.63134 0.0
C1340 C 0.64625 0.33845 0.61438 0.0
C1341 C 0.6582 0.39149 0.66194 0.0
C1342 C 0.67172 0.39373 0.64415 0.0
C1343 C 0.6679 0.376 0.62915 0.0
C1344 C 0.69039 0.41409 0.64122 0.0
C1345 C 0.66226 0.40955 0.67879 0.0
C1346 C 0.68269 0.43937 0.6405 0.0
C1347 C 0.70056 0.45871 0.63997 0.0
C1348 C 0.72644 0.45306 0.6402 0.0
C1349 C 0.73402 0.42764 0.63991 0.0
C1350 C 0.71614 0.40834 0.64036 0.0
H1351 H 0.65417 0.40234 0.69273 0.0
H1352 H 0.68266 0.41318 0.68101 0.0
H1353 H 0.65304 0.42778 0.67536 0.0
H1354 H 0.66286 0.44415 0.64097 0.0
H1355 H 0.69411 0.47806 0.64034 0.0
H1356 H 0.59181 0.77559 0.64477 0.0
H1357 H 0.62868 0.74802 0.64697 0.0
H1358 H 0.58295 0.68435 0.6304 0.0
H1359 H 0.546 0.71155 0.62848 0.0
H1360 H 0.63129 0.70737 0.67307 0.0
H1361 H 0.6464 0.67552 0.5964 0.0
H1362 H 0.62803 0.70313 0.60248 0.0
H1363 H 0.61446 0.67224 0.6047 0.0
C1364 C 0.58965 0.75576 0.64137 0.0
C1365 C 0.5659 0.74579 0.63649 0.0
C1366 C 0.61076 0.74008 0.64255 0.0
C1367 C 0.60859 0.7142 0.63867 0.0
C1368 C 0.58516 0.70436 0.63304 0.0
H1369 H 0.68895 0.58659 0.68255 0.0
H1370 H 0.65935 0.62017 0.67461 0.0
C1371 C 0.56404 0.71999 0.63191 0.0
C1372 C 0.63004 0.69704 0.64249 0.0
H1373 H 0.6667 0.65142 0.62156 0.0
C1374 C 0.63925 0.69536 0.66176 0.0
C1375 C 0.64048 0.6815 0.62769 0.0
C1376 C 0.63203 0.68329 0.60661 0.0
C1377 C 0.65798 0.67788 0.66677 0.0
C1378 C 0.66757 0.66154 0.65217 0.0
C1379 C 0.6591 0.66385 0.63275 0.0
C1380 C 0.68576 0.64135 0.657 0.0
C1381 C 0.66723 0.67683 0.68769 0.0
C1382 C 0.71034 0.642 0.64953 0.0
C1383 C 0.72748 0.62291 0.65421 0.0
C1384 C 0.72025 0.60263 0.66628 0.0
C1385 C 0.69543 0.60203 0.67355 0.0
C1386 C 0.6784 0.62119 0.66896 0.0
H1387 H 0.66245 0.69427 0.69594 0.0
H1388 H 0.65824 0.66067 0.69526 0.0
H1389 H 0.68795 0.67402 0.68817 0.0
H1390 H 0.71634 0.65744 0.64026 0.0
H1391 H 0.74644 0.62426 0.64851 0.0
H1392 H 0.19857 0.44282 0.30456 0.0
H1393 H 0.17773 0.41817 0.27927 0.0
H1394 H 0.13587 0.37819 0.32359 0.0
H1395 H 0.15661 0.40339 0.34934 0.0
H1396 H 0.17611 0.36708 0.27206 0.0
H1397 H 0.08049 0.40509 0.28734 0.0
H1398 H 0.10861 0.41897 0.29757 0.0
H1399 H 0.09595 0.39053 0.30786 0.0
C1400 C 0.18497 0.42878 0.30907 0.0
C1401 C 0.17912 0.42525 0.32905 0.0
C1402 C 0.17311 0.41461 0.2945 0.0
C1403 C 0.15497 0.39656 0.29943 0.0
C1404 C 0.14951 0.39235 0.3194 0.0
H1405 H 0.05655 0.30546 0.22735 0.0
H1406 H 0.08084 0.32476 0.25359 0.0
C1407 C 0.16149 0.40661 0.33411 0.0
C1408 C 0.14165 0.38279 0.28343 0.0
H1409 H 0.08392 0.37475 0.26219 0.0
C1410 C 0.15593 0.36867 0.26993 0.0
C1411 C 0.11537 0.38508 0.28052 0.0
C1412 C 0.09915 0.40089 0.29395 0.0
C1413 C 0.14461 0.35655 0.25379 0.0
C1414 C 0.11834 0.35895 0.25084 0.0
C1415 C 0.10407 0.37297 0.2644 0.0
C1416 C 0.10495 0.34628 0.23432 0.0
C1417 C 0.1608 0.3409 0.24025 0.0
C1418 C 0.11048 0.35173 0.21455 0.0
C1419 C 0.09655 0.34051 0.1993 0.0
C1420 C 0.07671 0.32389 0.20362 0.0
C1421 C 0.07158 0.31829 0.22342 0.0
C1422 C 0.08548 0.32933 0.23852 0.0
H1423 H 0.17913 0.33597 0.24712 0.0
H1424 H 0.15102 0.32323 0.23598 0.0
H1425 H 0.16472 0.35178 0.22671 0.0
H1426 H 0.12514 0.3651 0.21093 0.0
H1427 H 0.10085 0.34534 0.18423 0.0
H1428 H 0.65301 0.04524 0.22511 0.0
H1429 H 0.63258 0.07065 0.25031 0.0
H1430 H 0.64984 0.13814 0.2179 0.0
H1431 H 0.67052 0.1125 0.19225 0.0
H1432 H 0.66384 0.13689 0.261 0.0
H1433 H 0.5645 0.1104 0.24602 0.0
H1434 H 0.58629 0.08449 0.24696 0.0
H1435 H 0.58908 0.10754 0.22781 0.0
C1436 C 0.65222 0.06548 0.22315 0.0
C1437 C 0.66333 0.07688 0.20666 0.0
C1438 C 0.6405 0.07996 0.23759 0.0
C1439 C 0.63965 0.10625 0.23599 0.0
C1440 C 0.65028 0.11783 0.21938 0.0
H1441 H 0.54942 0.2009 0.3114 0.0
H1442 H 0.57193 0.18149 0.28426 0.0
C1443 C 0.66187 0.1032 0.20468 0.0
C1444 C 0.62821 0.12125 0.25213 0.0
H1445 H 0.57279 0.13051 0.2765 0.0
C1446 C 0.64389 0.13576 0.26431 0.0
C1447 C 0.60223 0.11963 0.25644 0.0
C1448 C 0.58444 0.10485 0.24356 0.0
C1449 C 0.63428 0.14834 0.28094 0.0
C1450 C 0.60838 0.14614 0.28555 0.0
C1451 C 0.59269 0.13199 0.27311 0.0
C1452 C 0.59667 0.15932 0.30257 0.0
C1453 C 0.6518 0.16409 0.29332 0.0
C1454 C 0.60328 0.15361 0.32209 0.0
C1455 C 0.59033 0.16483 0.33787 0.0
C1456 C 0.57045 0.18174 0.33431 0.0
C1457 C 0.56446 0.1878 0.31475 0.0
C1458 C 0.57735 0.17673 0.29913 0.0
H1459 H 0.66973 0.16822 0.28555 0.0
H1460 H 0.64272 0.18217 0.29752 0.0
H1461 H 0.65636 0.15371 0.30699 0.0
H1462 H 0.6179 0.13992 0.32511 0.0
H1463 H 0.59531 0.1597 0.35275 0.0
H1464 H 0.8059 0.56692 0.31219 0.0
H1465 H 0.82587 0.59213 0.28685 0.0
H1466 H 0.87102 0.62945 0.33073 0.0
H1467 H 0.851 0.60378 0.35653 0.0
H1468 H 0.82966 0.64441 0.28096 0.0
H1469 H 0.92316 0.59924 0.29213 0.0
H1470 H 0.8946 0.58657 0.30254 0.0
H1471 H 0.90922 0.61373 0.3134 0.0
C1472 C 0.82 0.58056 0.31658 0.0
C1473 C 0.82708 0.58313 0.3364 0.0
C1474 C 0.83132 0.59506 0.30201 0.0
C1475 C 0.85018 0.61243 0.3068 0.0
C1476 C 0.85673 0.61586 0.32667 0.0
H1477 H 0.9512 0.69566 0.23138 0.0
H1478 H 0.92708 0.67866 0.25858 0.0
C1479 C 0.84519 0.60135 0.3414 0.0
C1480 C 0.86348 0.62582 0.29067 0.0
H1481 H 0.92012 0.62946 0.26708 0.0
C1482 C 0.84949 0.6413 0.27798 0.0
C1483 C 0.88926 0.6215 0.28666 0.0
C1484 C 0.905 0.60422 0.29926 0.0
C1485 C 0.86065 0.65276 0.26151 0.0
C1486 C 0.88637 0.64821 0.25738 0.0
C1487 C 0.90037 0.63288 0.27018 0.0
C1488 C 0.89959 0.6598 0.24034 0.0
C1489 C 0.8449 0.66995 0.24887 0.0
C1490 C 0.89209 0.65511 0.22083 0.0
C1491 C 0.90593 0.66503 0.20502 0.0
C1492 C 0.92763 0.67952 0.20852 0.0
C1493 C 0.93472 0.68443 0.22807 0.0
C1494 C 0.92091 0.67471 0.24373 0.0
H1495 H 0.82769 0.67646 0.25666 0.0
H1496 H 0.85588 0.68669 0.24418 0.0
H1497 H 0.8389 0.65958 0.23551 0.0
H1498 H 0.87595 0.64326 0.21782 0.0
H1499 H 0.90007 0.6608 0.19015 0.0
H1500 H 0.40961 0.8553 0.34792 0.0
H1501 H 0.38461 0.8738 0.321 0.0
H1502 H 0.40717 0.81296 0.28283 0.0
H1503 H 0.43218 0.79476 0.30932 0.0
H1504 H 0.40906 0.88616 0.28133 0.0
H1505 H 0.32774 0.82038 0.27674 0.0
H1506 H 0.3455 0.82507 0.29909 0.0
H1507 H 0.35842 0.80639 0.27956 0.0
C1508 C 0.40868 0.84565 0.33391 0.0
C1509 C 0.42275 0.8236 0.33069 0.0
C1510 C 0.39459 0.85627 0.31854 0.0
C1511 C 0.394 0.84465 0.29996 0.0
C1512 C 0.40719 0.82211 0.29707 0.0
H1513 H 0.35694 0.90527 0.18348 0.0
H1514 H 0.37642 0.88103 0.21041 0.0
C1515 C 0.4215 0.81177 0.31223 0.0
C1516 C 0.38128 0.85675 0.28302 0.0
H1517 H 0.33256 0.84954 0.2507 0.0
C1518 C 0.39227 0.87825 0.27467 0.0
C1519 C 0.35952 0.84623 0.27429 0.0
C1520 C 0.3469 0.82333 0.28288 0.0
C1521 C 0.38215 0.88942 0.25771 0.0
C1522 C 0.36055 0.87875 0.24885 0.0
C1523 C 0.34937 0.85742 0.25734 0.0
C1524 C 0.34801 0.89097 0.23187 0.0
C1525 C 0.39435 0.91279 0.24949 0.0
C1526 C 0.32535 0.90389 0.23492 0.0
C1527 C 0.31444 0.91772 0.21975 0.0
C1528 C 0.32573 0.91868 0.20109 0.0
C1529 C 0.34777 0.90468 0.19767 0.0
C1530 C 0.35895 0.89102 0.21305 0.0
H1531 H 0.40919 0.92038 0.25935 0.0
H1532 H 0.40305 0.9083 0.23509 0.0
H1533 H 0.37997 0.92766 0.24702 0.0
H1534 H 0.31657 0.90405 0.24928 0.0
H1535 H 0.29737 0.92823 0.22279 0.0
H1536 H 0.89163 0.68358 0.84793 0.0
H1537 H 0.8668 0.66634 0.82043 0.0
H1538 H 0.93518 0.63972 0.79311 0.0
H1539 H 0.95975 0.65741 0.8199 0.0
H1540 H 0.90673 0.66387 0.76712 0.0
H1541 H 0.84786 0.59468 0.80759 0.0
H1542 H 0.84523 0.62671 0.81588 0.0
H1543 H 0.87452 0.61013 0.81873 0.0
C1544 C 0.90119 0.6737 0.83616 0.0
C1545 C 0.9276 0.67187 0.83603 0.0
C1546 C 0.88704 0.66385 0.82045 0.0
C1547 C 0.89909 0.65162 0.80465 0.0
C1548 C 0.92539 0.64923 0.80497 0.0
H1549 H 0.84986 0.54287 0.72182 0.0
H1550 H 0.86697 0.56847 0.74834 0.0
C1551 C 0.93943 0.65929 0.82037 0.0
C1552 C 0.88496 0.64164 0.78738 0.0
H1553 H 0.84192 0.59728 0.77347 0.0
C1554 C 0.8924 0.64942 0.76851 0.0
C1555 C 0.86631 0.62276 0.78915 0.0
C1556 C 0.85809 0.61287 0.80889 0.0
C1557 C 0.88262 0.63812 0.75145 0.0
C1558 C 0.86427 0.61893 0.75322 0.0
C1559 C 0.856 0.61196 0.77208 0.0
C1560 C 0.8551 0.60411 0.73602 0.0
C1561 C 0.89305 0.64591 0.73177 0.0
C1562 C 0.84319 0.61556 0.71985 0.0
C1563 C 0.83379 0.60083 0.70431 0.0
C1564 C 0.8357 0.57444 0.70496 0.0
C1565 C 0.84805 0.56317 0.72093 0.0
C1566 C 0.85773 0.5778 0.73618 0.0
H1567 H 0.91106 0.6564 0.73325 0.0
H1568 H 0.89631 0.62925 0.72222 0.0
H1569 H 0.87931 0.65844 0.72435 0.0
H1570 H 0.84049 0.63577 0.71949 0.0
H1571 H 0.82399 0.60996 0.69232 0.0
H1572 H 0.40625 0.84773 0.68531 0.0
H1573 H 0.38293 0.86742 0.71265 0.0
H1574 H 0.41698 0.81515 0.7531 0.0
H1575 H 0.44034 0.79586 0.72622 0.0
H1576 H 0.34925 0.84819 0.74203 0.0
H1577 H 0.4378 0.88381 0.77522 0.0
H1578 H 0.43631 0.87189 0.75042 0.0
H1579 H 0.43777 0.85046 0.77081 0.0
C1580 C 0.4084 0.84026 0.7 0.0
C1581 C 0.42534 0.82046 0.70365 0.0
C1582 C 0.39518 0.85155 0.71561 0.0
C1583 C 0.39872 0.84315 0.735 0.0
C1584 C 0.41445 0.8224 0.73838 0.0
H1585 H 0.34768 0.8978 0.85067 0.0
H1586 H 0.36575 0.87153 0.82426 0.0
C1587 C 0.42771 0.81132 0.72294 0.0
C1588 C 0.38685 0.85637 0.75194 0.0
H1589 H 0.40074 0.88811 0.79434 0.0
C1590 C 0.36049 0.85698 0.75343 0.0
C1591 C 0.40154 0.86773 0.7669 0.0
C1592 C 0.42991 0.8687 0.76574 0.0
C1593 C 0.34847 0.86846 0.76955 0.0
C1594 C 0.36317 0.87989 0.78445 0.0
C1595 C 0.38951 0.87908 0.78304 0.0
C1596 C 0.35161 0.89479 0.80063 0.0
C1597 C 0.32009 0.86809 0.77059 0.0
C1598 C 0.33803 0.91665 0.79612 0.0
C1599 C 0.32799 0.93162 0.81103 0.0
C1600 C 0.33123 0.9252 0.83092 0.0
C1601 C 0.34479 0.90322 0.83552 0.0
C1602 C 0.35509 0.88823 0.82046 0.0
H1603 H 0.31203 0.85276 0.76142 0.0
H1604 H 0.31352 0.86567 0.78594 0.0
H1605 H 0.31265 0.88628 0.76504 0.0
H1606 H 0.33553 0.92239 0.781 0.0
H1607 H 0.31766 0.94837 0.80685 0.0
H1608 H 0.05103 0.30739 0.80855 0.0
H1609 H 0.07572 0.32586 0.78224 0.0
H1610 H 0.12659 0.35815 0.82471 0.0
H1611 H 0.10185 0.33924 0.85148 0.0
H1612 H 0.08419 0.37599 0.77568 0.0
H1613 H 0.17473 0.32507 0.78529 0.0
H1614 H 0.14587 0.31488 0.79684 0.0
H1615 H 0.16332 0.34088 0.80688 0.0
C1616 C 0.06755 0.31828 0.81243 0.0
C1617 C 0.07443 0.32185 0.83221 0.0
C1618 C 0.08168 0.32884 0.79728 0.0
C1619 C 0.10314 0.34324 0.8014 0.0
C1620 C 0.11033 0.34673 0.82112 0.0
H1621 H 0.20299 0.43334 0.73139 0.0
H1622 H 0.1816 0.40877 0.75644 0.0
C1623 C 0.09614 0.33602 0.83642 0.0
C1624 C 0.11702 0.35535 0.78492 0.0
H1625 H 0.17403 0.35784 0.76168 0.0
C1626 C 0.10381 0.37193 0.77257 0.0
C1627 C 0.14258 0.34999 0.7808 0.0
C1628 C 0.15747 0.33157 0.79301 0.0
C1629 C 0.11555 0.38369 0.75652 0.0
C1630 C 0.14115 0.37839 0.75242 0.0
C1631 C 0.15435 0.36173 0.76472 0.0
C1632 C 0.15507 0.39154 0.73645 0.0
C1633 C 0.10065 0.40231 0.74448 0.0
C1634 C 0.14776 0.38958 0.71662 0.0
C1635 C 0.16006 0.40377 0.70208 0.0
C1636 C 0.17984 0.42011 0.70719 0.0
C1637 C 0.18768 0.42113 0.72692 0.0
C1638 C 0.17551 0.407 0.74132 0.0
H1639 H 0.08312 0.40833 0.75206 0.0
H1640 H 0.11209 0.41931 0.7412 0.0
H1641 H 0.09528 0.39343 0.73033 0.0
H1642 H 0.13231 0.3774 0.71245 0.0
H1643 H 0.15359 0.40256 0.68703 0.0
H1644 H 0.59348 0.15624 0.68679 0.0
H1645 H 0.61815 0.13746 0.71376 0.0
H1646 H 0.58012 0.18559 0.7553 0.0
H1647 H 0.55551 0.20408 0.72878 0.0
H1648 H 0.63669 0.181 0.75875 0.0
H1649 H 0.5834 0.09061 0.75762 0.0
H1650 H 0.59524 0.10252 0.73465 0.0
H1651 H 0.57077 0.11927 0.74727 0.0
C1652 C 0.59066 0.16296 0.70165 0.0
C1653 C 0.57247 0.18152 0.70567 0.0
C1654 C 0.60462 0.15216 0.71703 0.0
C1655 C 0.60078 0.16003 0.73654 0.0
C1656 C 0.58332 0.17918 0.7404 0.0
H1657 H 0.64339 0.09241 0.84933 0.0
H1658 H 0.62124 0.11664 0.82368 0.0
C1659 C 0.56923 0.18969 0.72518 0.0
C1660 C 0.6142 0.14802 0.75321 0.0
H1661 H 0.61563 0.09466 0.78123 0.0
C1662 C 0.63219 0.16209 0.76362 0.0
C1663 C 0.60793 0.12354 0.75975 0.0
C1664 C 0.58819 0.10801 0.74939 0.0
C1665 C 0.64441 0.1521 0.7802 0.0
C1666 C 0.63833 0.12752 0.7866 0.0
C1667 C 0.6201 0.11358 0.77636 0.0
C1668 C 0.65211 0.11521 0.80295 0.0
C1669 C 0.66372 0.16782 0.79085 0.0
C1670 C 0.67677 0.10676 0.79984 0.0
C1671 C 0.68922 0.09289 0.81427 0.0
C1672 C 0.6774 0.08737 0.83223 0.0
C1673 C 0.65304 0.09673 0.83574 0.0
C1674 C 0.64036 0.11037 0.82107 0.0
H1675 H 0.66319 0.18786 0.7862 0.0
H1676 H 0.66064 0.16683 0.80696 0.0
H1677 H 0.6828 0.16023 0.78776 0.0
H1678 H 0.6861 0.11014 0.78595 0.0
H1679 H 0.70796 0.08586 0.81115 0.0
H1680 H 0.98948 0.6104 0.18581 0.0
H1681 H 0.99528 0.56556 0.19337 0.0
H1682 H 0.99141 0.5477 0.13172 0.0
H1683 H 0.98491 0.59193 0.12404 0.0
H1684 H 0.96192 0.52187 0.18046 0.0
H1685 H 0.06029 0.5176 0.15312 0.0
H1686 H 0.0454 0.54668 0.16069 0.0
H1687 H 0.0386 0.53336 0.13701 0.0
C1688 C 0.98962 0.59693 0.17387 0.0
C1689 C 0.98703 0.60495 0.15427 0.0
C1690 C 0.99306 0.57135 0.17823 0.0
C1691 C 0.99416 0.55348 0.16306 0.0
C1692 C 0.99106 0.56132 0.14359 0.0
H1693 H 0.97423 0.40014 0.13922 0.0
H1694 H 0.97027 0.44485 0.1471 0.0
C1695 C 0.98748 0.58671 0.13924 0.0
C1696 C 0.9984 0.52647 0.16717 0.0
H1697 H 0.03859 0.47833 0.15615 0.0
C1698 C 0.97886 0.51234 0.17554 0.0
C1699 C 0.02065 0.5142 0.16094 0.0
C1700 C 0.04257 0.52872 0.15259 0.0
C1701 C 0.98036 0.48595 0.17664 0.0
C1702 C 0.00183 0.47352 0.169 0.0
C1703 C 0.02206 0.48785 0.16188 0.0
C1704 C 0.00272 0.44582 0.16631 0.0
C1705 C 0.95869 0.47156 0.1855 0.0
C1706 C 0.02238 0.4315 0.17439 0.0
C1707 C 0.02479 0.40589 0.16977 0.0
C1708 C 0.00778 0.39431 0.15675 0.0
C1709 C 0.98776 0.40859 0.14913 0.0
C1710 C 0.98528 0.43407 0.15383 0.0
H1711 H 0.94807 0.48337 0.19615 0.0
H1712 H 0.94549 0.46589 0.17366 0.0
H1713 H 0.96534 0.45427 0.19306 0.0
H1714 H 0.0362 0.44029 0.18388 0.0
H1715 H 0.04055 0.39546 0.17571 0.0
H1716 H 0.40379 0.02344 0.13701 0.0
H1717 H 0.44909 0.02542 0.14295 0.0
H1718 H 0.44451 0.9585 0.17855 0.0
H1719 H 0.39915 0.95595 0.17219 0.0
H1720 H 0.47713 0.02825 0.17804 0.0
H1721 H 0.49697 0.94023 0.13632 0.0
H1722 H 0.4671 0.95635 0.13489 0.0
H1723 H 0.4745 0.93738 0.15592 0.0
C1724 C 0.4124 0.00908 0.14606 0.0
C1725 C 0.39791 0.98934 0.1539 0.0
C1726 C 0.43826 0.01035 0.14955 0.0
C1727 C 0.45019 0.99188 0.16091 0.0
C1728 C 0.43569 0.97271 0.16947 0.0
H1729 H 0.61028 0.96707 0.18177 0.0
H1730 H 0.56435 0.96469 0.18246 0.0
C1731 C 0.40974 0.97143 0.16598 0.0
C1732 C 0.47793 0.99244 0.16316 0.0
H1733 H 0.53164 0.96082 0.15072 0.0
C1734 C 0.48908 0.01347 0.17216 0.0
C1735 C 0.49343 0.97313 0.15542 0.0
C1736 C 0.4825 0.95056 0.14494 0.0
C1737 C 0.51535 0.01574 0.17361 0.0
C1738 C 0.53084 0.99666 0.16553 0.0
C1739 C 0.51969 0.97541 0.15687 0.0
C1740 C 0.55868 0.9986 0.16548 0.0
C1741 C 0.5263 0.03842 0.18391 0.0
C1742 C 0.57073 0.01831 0.15549 0.0
C1743 C 0.59701 0.01965 0.15496 0.0
C1744 C 0.61176 1.0012 0.1643 0.0
C1745 C 0.59956 0.98141 0.17421 0.0
C1746 C 0.57329 0.9801 0.17474 0.0
H1747 H 0.51234 0.04747 0.19382 0.0
H1748 H 0.54319 0.03319 0.19261 0.0
H1749 H 0.53206 0.05254 0.17278 0.0
H1750 H 0.5598 0.03245 0.14784 0.0
H1751 H 0.60577 0.03488 0.14693 0.0
H1752 H 0.50771 0.09522 0.41383 0.0
H1753 H 0.50187 0.05145 0.40425 0.0
H1754 H 0.49767 0.07337 0.34344 0.0
H1755 H 0.50321 0.11765 0.35296 0.0
H1756 H 0.46023 0.03065 0.38262 0.0
H1757 H 0.55284 0.01713 0.3455 0.0
H1758 H 0.54713 0.04303 0.36215 0.0
H1759 H 0.53356 0.04335 0.33805 0.0
C1760 C 0.50528 0.09091 0.39843 0.0
C1761 C 0.50579 0.11005 0.38419 0.0
C1762 C 0.50207 0.06581 0.39297 0.0
C1763 C 0.49943 0.0592 0.37316 0.0
C1764 C 0.49996 0.07811 0.3588 0.0
H1765 H 0.45863 0.89916 0.35629 0.0
H1766 H 0.4598 0.94441 0.34901 0.0
C1767 C 0.50317 0.10337 0.36427 0.0
C1768 C 0.49606 0.03233 0.36795 0.0
H1769 H 0.52774 0.98123 0.3501 0.0
C1770 C 0.47471 0.01984 0.37515 0.0
C1771 C 0.51509 0.01843 0.35828 0.0
C1772 C 0.53857 0.031 0.35059 0.0
C1773 C 0.47249 0.99355 0.37392 0.0
C1774 C 0.49201 0.97948 0.36496 0.0
C1775 C 0.51276 0.99213 0.35683 0.0
C1776 C 0.49298 0.95167 0.36658 0.0
C1777 C 0.45011 0.98094 0.38341 0.0
C1778 C 0.51186 0.94066 0.3781 0.0
C1779 C 0.51134 0.91493 0.38214 0.0
C1780 C 0.49193 0.89964 0.37472 0.0
C1781 C 0.47382 0.91044 0.36222 0.0
C1782 C 0.47435 0.9363 0.35817 0.0
H1783 H 0.43872 0.99432 0.39231 0.0
H1784 H 0.43778 0.97289 0.37185 0.0
H1785 H 0.45636 0.96528 0.39304 0.0
H1786 H 0.52647 0.95217 0.38466 0.0
H1787 H 0.52586 0.90709 0.39146 0.0
H1788 H 0.9003 0.47769 0.40456 0.0
H1789 H 0.94514 0.472 0.3978 0.0
H1790 H 0.94199 0.53111 0.35455 0.0
H1791 H 0.89718 0.53741 0.36162 0.0
H1792 H 0.97256 0.46141 0.36259 0.0
H1793 H 0.99554 0.5552 0.39441 0.0
H1794 H 0.96536 0.54025 0.39794 0.0
H1795 H 0.97254 0.55545 0.37507 0.0
C1796 C 0.90912 0.48949 0.39361 0.0
C1797 C 0.89525 0.50827 0.38385 0.0
C1798 C 0.93469 0.48607 0.38966 0.0
C1799 C 0.94692 0.50139 0.37591 0.0
C1800 C 0.93292 0.51933 0.36542 0.0
H1801 H 0.10421 0.52405 0.34853 0.0
H1802 H 0.05826 0.52344 0.34834 0.0
C1803 C 0.90729 0.52276 0.36936 0.0
C1804 C 0.97456 0.49948 0.37345 0.0
H1805 H 0.02915 0.53196 0.38093 0.0
C1806 C 0.98499 0.47682 0.36653 0.0
C1807 C 0.99066 0.51958 0.37877 0.0
C1808 C 0.98057 0.54394 0.38713 0.0
C1809 C 0.01117 0.47387 0.36451 0.0
C1810 C 0.02725 0.49397 0.36988 0.0
C1811 C 0.01677 0.51661 0.37676 0.0
C1812 C 0.05506 0.4922 0.36853 0.0
C1813 C 0.02137 0.44947 0.35636 0.0
C1814 C 0.06856 0.47461 0.37978 0.0
C1815 C 0.09494 0.47493 0.37991 0.0
C1816 C 0.10816 0.49308 0.36901 0.0
C1817 C 0.09455 0.51014 0.35735 0.0
C1818 C 0.06829 0.50972 0.35713 0.0
H1819 H 0.00669 0.43873 0.34829 0.0
H1820 H 0.03747 0.45297 0.34632 0.0
H1821 H 0.02817 0.43757 0.36864 0.0
H1822 H 0.05872 0.46124 0.38899 0.0
H1823 H 0.10494 0.46173 0.38917 0.0
H1824 H 0.99365 0.61061 0.85626 0.0
H1825 H 0.99919 0.56578 0.84861 0.0
H1826 H 0.99425 0.54794 0.91018 0.0
H1827 H 0.98824 0.5923 0.91794 0.0
H1828 H 0.03683 0.52611 0.88884 0.0
H1829 H 0.94366 0.50933 0.85349 0.0
H1830 H 0.96222 0.53565 0.84521 0.0
H1831 H 0.9492 0.53593 0.86949 0.0
C1832 C 0.99348 0.59714 0.86815 0.0
C1833 C 0.99059 0.60517 0.88775 0.0
C1834 C 0.99672 0.57155 0.86374 0.0
C1835 C 0.99706 0.55362 0.87884 0.0
C1836 C 0.99416 0.56154 0.89834 0.0
H1837 H 0.97657 0.39995 0.90036 0.0
H1838 H 0.97397 0.44512 0.89397 0.0
C1839 C 0.99087 0.58698 0.90275 0.0
C1840 C 1.00064 0.52649 0.87469 0.0
H1841 H 0.96965 0.47407 0.85853 0.0
C1842 C 0.0224 0.51472 0.88189 0.0
C1843 C 0.98164 0.51183 0.86571 0.0
C1844 C 0.95774 0.52365 0.85807 0.0
C1845 C 0.02523 0.48846 0.88112 0.0
C1846 C 0.00586 0.47367 0.87272 0.0
C1847 C 0.98453 0.48554 0.8648 0.0
C1848 C 0.00602 0.44586 0.87437 0.0
C1849 C 0.04822 0.47664 0.89033 0.0
C1850 C 0.0245 0.4312 0.86503 0.0
C1851 C 0.02611 0.40531 0.86876 0.0
C1852 C 0.00929 0.39378 0.88193 0.0
C1853 C 0.99007 0.40838 0.89045 0.0
C1854 C 0.98843 0.43414 0.88668 0.0
H1855 H 0.05957 0.49051 0.89877 0.0
H1856 H 0.04267 0.4611 0.90033 0.0
H1857 H 0.06034 0.46853 0.87865 0.0
H1858 H 0.03808 0.4399 0.85531 0.0
H1859 H 0.04114 0.39457 0.86201 0.0
H1860 H 0.60643 0.04972 0.86033 0.0
H1861 H 0.56018 0.05055 0.85952 0.0
H1862 H 0.55815 0.97775 0.88752 0.0
H1863 H 0.60404 0.97679 0.88826 0.0
H1864 H 0.52719 0.98052 0.85503 0.0
H1865 H 0.51153 0.06177 0.90531 0.0
H1866 H 0.53158 0.06764 0.88456 0.0
H1867 H 0.54158 0.04609 0.9033 0.0
C1868 C 0.59605 0.03408 0.86652 0.0
C1869 C 0.60885 0.01314 0.8743 0.0
C1870 C 0.56967 0.03455 0.86604 0.0
C1871 C 0.55573 0.01425 0.87355 0.0
C1872 C 0.56852 0.99355 0.88154 0.0
H1873 H 0.4071 0.99388 0.91547 0.0
H1874 H 0.45165 1.00133 0.90932 0.0
C1875 C 0.59476 0.993 0.88192 0.0
C1876 C 0.52781 0.01398 0.87294 0.0
H1877 H 0.47552 0.04208 0.89225 0.0
C1878 C 0.51583 0.99411 0.863 0.0
C1879 C 0.51312 0.03168 0.88344 0.0
C1880 C 0.52501 0.05292 0.8949 0.0
C1881 C 0.48961 0.99095 0.86381 0.0
C1882 C 0.47494 0.00844 0.87454 0.0
C1883 C 0.48684 0.02878 0.88395 0.0
C1884 C 0.44759 0.00463 0.87783 0.0
C1885 C 0.478 0.96823 0.85401 0.0
C1886 C 0.43042 0.00411 0.86215 0.0
C1887 C 0.40478 0.99978 0.86564 0.0
C1888 C 0.3959 0.99618 0.88489 0.0
C1889 C 0.41319 0.99696 0.90051 0.0
C1890 C 0.43872 1.00116 0.89701 0.0
H1891 H 0.49239 0.954 0.8498 0.0
H1892 H 0.46402 0.95913 0.86382 0.0
H1893 H 0.46808 0.97427 0.84048 0.0
H1894 H 0.43681 0.00717 0.84725 0.0
H1895 H 0.39188 0.9996 0.85335 0.0
H1896 H 0.45999 0.89629 0.67852 0.0
H1897 H 0.46296 0.94121 0.68696 0.0
H1898 H 0.52548 0.94927 0.64706 0.0
H1899 H 0.52301 0.90455 0.63897 0.0
H1900 H 0.53115 0.97632 0.6831 0.0
H1901 H 0.43902 0.99404 0.64635 0.0
H1902 H 0.43957 0.97119 0.6658 0.0
H1903 H 0.45594 0.96481 0.64328 0.0
C1904 C 0.47466 0.90757 0.67186 0.0
C1905 C 0.49103 0.89699 0.65785 0.0
C1906 C 0.47622 0.93323 0.67659 0.0
C1907 C 0.49422 0.9486 0.66741 0.0
C1908 C 0.5114 0.93775 0.65425 0.0
H1909 H 0.51141 0.09362 0.62455 0.0
H1910 H 0.50572 0.04953 0.63306 0.0
C1911 C 0.50981 0.91224 0.6495 0.0
C1912 C 0.49423 0.97632 0.67005 0.0
H1913 H 0.46258 0.02924 0.65585 0.0
C1914 C 0.51595 0.98796 0.67756 0.0
C1915 C 0.47442 0.99138 0.66264 0.0
C1916 C 0.45094 0.97986 0.65394 0.0
C1917 C 0.51885 0.01427 0.67701 0.0
C1918 C 0.49951 0.02918 0.6688 0.0
C1919 C 0.47729 0.01765 0.66221 0.0
C1920 C 0.5033 0.05617 0.66432 0.0
C1921 C 0.54315 0.02589 0.68405 0.0
C1922 C 0.50393 0.07456 0.67914 0.0
C1923 C 0.50697 0.10004 0.67429 0.0
C1924 C 0.50938 0.10746 0.65453 0.0
C1925 C 0.50907 0.08879 0.63985 0.0
C1926 C 0.50597 0.06349 0.64469 0.0
H1927 H 0.55703 0.01148 0.68883 0.0
H1928 H 0.55168 0.03737 0.67217 0.0
H1929 H 0.53923 0.03867 0.69659 0.0
H1930 H 0.50172 0.06923 0.69439 0.0
H1931 H 0.50694 0.11392 0.68594 0.0
H1932 H 0.89218 0.46391 0.63463 0.0
H1933 H 0.93684 0.45469 0.63952 0.0
H1934 H 0.94289 0.51818 0.67882 0.0
H1935 H 0.89831 0.52765 0.6739 0.0
H1936 H 0.97589 0.48703 0.63022 0.0
H1937 H 0.97882 0.46229 0.70916 0.0
H1938 H 0.94989 0.46285 0.69522 0.0
H1939 H 0.96329 0.49169 0.70437 0.0
C1940 C 0.90297 0.47586 0.64438 0.0
C1941 C 0.89165 0.49659 0.65381 0.0
C1942 C 0.92845 0.47046 0.64725 0.0
C1943 C 0.9431 0.48555 0.65971 0.0
C1944 C 0.93179 0.50593 0.66949 0.0
H1945 H 0.09625 0.51576 0.68583 0.0
H1946 H 0.05063 0.51137 0.68415 0.0
C1947 C 0.90628 0.51134 0.66664 0.0
C1948 C 0.97062 0.48129 0.66122 0.0
H1949 H 0.01833 0.47195 0.69398 0.0
C1950 C 0.98518 0.48335 0.6441 0.0
C1951 C 0.98262 0.47648 0.67935 0.0
C1952 C 0.96784 0.47295 0.69805 0.0
C1953 C 0.01156 0.48195 0.64475 0.0
C1954 C 0.02363 0.47789 0.66299 0.0
C1955 C 0.00901 0.47502 0.68002 0.0
C1956 C 0.05141 0.47889 0.66494 0.0
C1957 C 0.02631 0.48609 0.62609 0.0
C1958 C 0.06705 0.46169 0.65504 0.0
C1959 C 0.09328 0.46433 0.6558 0.0
C1960 C 0.10423 0.48418 0.66652 0.0
C1961 C 0.08844 0.50064 0.67707 0.0
C1962 C 0.06234 0.49801 0.67629 0.0
H1963 H 0.0144 0.49396 0.61417 0.0
H1964 H 0.04234 0.4991 0.6287 0.0
H1965 H 0.03406 0.46782 0.62094 0.0
H1966 H 0.05896 0.44652 0.64647 0.0
H1967 H 0.1049 0.45135 0.64753 0.0
loop_
_geom_bond_atom_site_label_1
_geom_bond_atom_site_label_2
_geom_bond_distance
_geom_bond_site_symmetry_2
_ccdc_geom_bond_type
C0 C1 1.351 . S
C0 N3 1.368 . S
C0 H5 0.931 . S
C1 C0 1.351 . S
C1 N2 1.373 . S
C1 H29 0.930 . S
N2 C1 1.373 . S
N2 C4 1.340 . S
N3 C0 1.368 . S
N3 C4 1.321 . S
N3 Co6 2.135 . S
C4 N2 1.340 . S
C4 N3 1.321 . S
C4 H28 0.930 . S
H5 C0 0.931 . S
Co6 N3 2.135 . S
Co6 N9 2.121 . S
Co6 O14 2.055 . S
Co6 O17 2.039 . S
Co6 N20 2.140 . S
C7 O8 1.227 . S
C7 O17 1.265 . S
O8 C7 1.227 . S
N9 Co6 2.121 . S
N9 C11 1.375 . S
N9 C12 1.313 . S
C10 C11 1.338 . S
C10 N13 1.377 . S
C10 H30 0.930 . S
C11 N9 1.375 . S
C11 C10 1.338 . S
C11 H15 0.931 . S
C12 N9 1.313 . S
C12 N13 1.344 . S
C12 H16 0.930 . S
N13 C10 1.377 . S
N13 C12 1.344 . S
O14 Co6 2.055 . S
O14 C18 1.253 . S
H15 C11 0.931 . S
H16 C12 0.930 . S
O17 Co6 2.039 . S
O17 C7 1.265 . S
C18 O14 1.253 . S
C18 O19 1.227 . S
O19 C18 1.227 . S
N20 Co6 2.140 . S
N20 C23 1.346 . S
N20 C24 1.345 . S
C21 C22 1.382 1_655 S
C21 C25 1.389 1_655 S
C22 C21 1.382 1_455 S
C22 C23 1.369 . S
C22 H31 0.929 . S
C23 N20 1.346 . S
C23 C22 1.369 . S
C23 H26 0.928 . S
C24 N20 1.345 . S
C24 C25 1.371 . S
C24 H27 0.931 . S
C25 C21 1.389 1_455 S
C25 C24 1.371 . S
C25 H32 0.930 1_455 S
H26 C23 0.928 . S
H27 C24 0.931 . S
H28 C4 0.930 . S
H29 C1 0.930 . S
H30 C10 0.930 . S
H31 C22 0.929 . S
H32 C25 0.930 1_655 S
C33 C34 1.351 . S
C33 N36 1.368 . S
C33 H38 0.931 . S
C34 C33 1.351 . S
C34 N35 1.373 . S
C34 H62 0.930 . S
N35 C34 1.373 . S
N35 C37 1.340 . S
N36 C33 1.368 . S
N36 C37 1.321 . S
N36 Co39 2.135 . S
C37 N35 1.340 . S
C37 N36 1.321 . S
C37 H61 0.930 . S
H38 C33 0.931 . S
Co39 N36 2.135 . S
Co39 N42 2.121 . S
Co39 O47 2.055 . S
Co39 O50 2.039 . S
Co39 N53 2.140 . S
C40 O41 1.227 . S
C40 O50 1.265 . S
O41 C40 1.227 . S
N42 Co39 2.121 . S
N42 C44 1.375 . S
N42 C45 1.313 . S
C43 C44 1.338 . S
C43 N46 1.377 . S
C43 H63 0.930 . S
C44 N42 1.375 . S
C44 C43 1.338 . S
C44 H48 0.931 . S
C45 N42 1.313 . S
C45 N46 1.344 . S
C45 H49 0.930 . S
N46 C43 1.377 . S
N46 C45 1.344 . S
O47 Co39 2.055 . S
O47 C51 1.253 . S
H48 C44 0.931 . S
H49 C45 0.930 . S
O50 Co39 2.039 . S
O50 C40 1.265 . S
C51 O47 1.253 . S
C51 O52 1.227 . S
O52 C51 1.227 . S
N53 Co39 2.140 . S
N53 C56 1.346 . S
N53 C57 1.345 . S
C54 C55 1.382 1_565 S
C54 C58 1.389 1_565 S
C55 C54 1.382 1_545 S
C55 C56 1.369 . S
C55 H64 0.929 . S
C56 N53 1.346 . S
C56 C55 1.369 . S
C56 H59 0.928 . S
C57 N53 1.345 . S
C57 C58 1.371 . S
C57 H60 0.931 . S
C58 C54 1.389 1_545 S
C58 C57 1.371 . S
C58 H65 0.930 1_545 S
H59 C56 0.928 . S
H60 C57 0.931 . S
H61 C37 0.930 . S
H62 C34 0.930 . S
H63 C43 0.930 . S
H64 C55 0.929 . S
H65 C58 0.930 1_565 S
C66 C67 1.351 . S
C66 N69 1.368 . S
C66 H71 0.931 . S
C67 C66 1.351 . S
C67 N68 1.373 . S
C67 H95 0.930 . S
N68 C67 1.373 . S
N68 C70 1.340 . S
N69 C66 1.368 . S
N69 C70 1.321 . S
N69 Co72 2.135 . S
C70 N68 1.340 . S
C70 N69 1.321 . S
C70 H94 0.930 . S
H71 C66 0.931 . S
Co72 N69 2.135 . S
Co72 N75 2.121 . S
Co72 O80 2.055 . S
Co72 O83 2.039 . S
Co72 N86 2.140 . S
C73 O74 1.227 . S
C73 O83 1.265 . S
O74 C73 1.227 . S
N75 Co72 2.121 . S
N75 C77 1.375 . S
N75 C78 1.313 . S
C76 C77 1.338 . S
C76 N79 1.377 . S
C76 H96 0.930 . S
C77 N75 1.375 . S
C77 C76 1.338 . S
C77 H81 0.931 . S
C78 N75 1.313 . S
C78 N79 1.344 . S
C78 H82 0.930 . S
N79 C76 1.377 . S
N79 C78 1.344 . S
O80 Co72 2.055 . S
O80 C84 1.253 . S
H81 C77 0.931 . S
H82 C78 0.930 . S
O83 Co72 2.039 . S
O83 C73 1.265 . S
C84 O80 1.253 . S
C84 O85 1.227 . S
O85 C84 1.227 . S
N86 Co72 2.140 . S
N86 C89 1.346 . S
N86 C90 1.345 . S
C87 C88 1.382 1_455 S
C87 C91 1.389 1_455 S
C88 C87 1.382 1_655 S
C88 C89 1.369 . S
C88 H97 0.929 . S
C89 N86 1.346 . S
C89 C88 1.369 . S
C89 H92 0.928 . S
C90 N86 1.345 . S
C90 C91 1.371 . S
C90 H93 0.931 . S
C91 C87 1.389 1_655 S
C91 C90 1.371 . S
C91 H98 0.930 1_655 S
H92 C89 0.928 . S
H93 C90 0.931 . S
H94 C70 0.930 . S
H95 C67 0.930 . S
H96 C76 0.930 . S
H97 C88 0.929 . S
H98 C91 0.930 1_455 S
C99 C100 1.351 . S
C99 N102 1.368 . S
C99 H104 0.931 . S
C100 C99 1.351 . S
C100 N101 1.373 . S
C100 H128 0.930 . S
N101 C100 1.373 . S
N101 C103 1.340 . S
N102 C99 1.368 . S
N102 C103 1.321 . S
N102 Co105 2.135 . S
C103 N101 1.340 . S
C103 N102 1.321 . S
C103 H127 0.930 . S
H104 C99 0.931 . S
Co105 N102 2.135 . S
Co105 N108 2.121 . S
Co105 O113 2.055 . S
Co105 O116 2.039 . S
Co105 N119 2.140 . S
C106 O107 1.227 . S
C106 O116 1.265 . S
O107 C106 1.227 . S
N108 Co105 2.121 . S
N108 C110 1.375 . S
N108 C111 1.313 . S
C109 C110 1.338 . S
C109 N112 1.377 . S
C109 H129 0.930 . S
C110 N108 1.375 . S
C110 C109 1.338 . S
C110 H114 0.931 . S
C111 N108 1.313 . S
C111 N112 1.344 . S
C111 H115 0.930 . S
N112 C109 1.377 . S
N112 C111 1.344 . S
O113 Co105 2.055 . S
O113 C117 1.253 . S
H114 C110 0.931 . S
H115 C111 0.930 . S
O116 Co105 2.039 . S
O116 C106 1.265 . S
C117 O113 1.253 . S
C117 O118 1.227 . S
O118 C117 1.227 . S
N119 Co105 2.140 . S
N119 C122 1.346 . S
N119 C123 1.345 . S
C120 C121 1.382 1_545 S
C120 C124 1.389 1_545 S
C121 C120 1.382 1_565 S
C121 C122 1.369 . S
C121 H130 0.929 . S
C122 N119 1.346 . S
C122 C121 1.369 . S
C122 H125 0.928 . S
C123 N119 1.345 . S
C123 C124 1.371 . S
C123 H126 0.931 . S
C124 C120 1.389 1_565 S
C124 C123 1.371 . S
C124 H131 0.930 1_565 S
H125 C122 0.928 . S
H126 C123 0.931 . S
H127 C103 0.930 . S
H128 C100 0.930 . S
H129 C109 0.930 . S
H130 C121 0.929 . S
H131 C124 0.930 1_545 S
C132 C133 1.351 . S
C132 N135 1.368 . S
C132 H137 0.931 . S
C133 C132 1.351 . S
C133 N134 1.373 . S
C133 H161 0.930 . S
N134 C133 1.373 . S
N134 C136 1.340 . S
N135 C132 1.368 . S
N135 C136 1.321 . S
N135 Co138 2.135 . S
C136 N134 1.340 . S
C136 N135 1.321 . S
C136 H160 0.930 . S
H137 C132 0.931 . S
Co138 N135 2.135 . S
Co138 N141 2.121 . S
Co138 O146 2.055 . S
Co138 O149 2.039 . S
Co138 N152 2.140 . S
C139 O140 1.227 . S
C139 O149 1.265 . S
O140 C139 1.227 . S
N141 Co138 2.121 . S
N141 C143 1.375 . S
N141 C144 1.313 . S
C142 C143 1.338 . S
C142 N145 1.377 . S
C142 H162 0.930 . S
C143 N141 1.375 . S
C143 C142 1.338 . S
C143 H147 0.931 . S
C144 N141 1.313 . S
C144 N145 1.344 . S
C144 H148 0.930 . S
N145 C142 1.377 . S
N145 C144 1.344 . S
O146 Co138 2.055 . S
O146 C150 1.253 . S
H147 C143 0.931 . S
H148 C144 0.930 . S
O149 Co138 2.039 . S
O149 C139 1.265 . S
C150 O146 1.253 . S
C150 O151 1.227 . S
O151 C150 1.227 . S
N152 Co138 2.140 . S
N152 C155 1.346 . S
N152 C156 1.345 . S
C153 C154 1.387 . S
C153 C157 1.391 . S
C154 C153 1.387 . S
C154 C155 1.369 . S
C154 H163 0.929 . S
C155 N152 1.346 . S
C155 C154 1.369 . S
C155 H158 0.928 . S
C156 N152 1.345 . S
C156 C157 1.371 . S
C156 H159 0.931 . S
C157 C153 1.391 . S
C157 C156 1.371 . S
C157 H164 0.930 . S
H158 C155 0.928 . S
H159 C156 0.931 . S
H160 C136 0.930 . S
H161 C133 0.930 . S
H162 C142 0.930 . S
H163 C154 0.929 . S
H164 C157 0.930 . S
C165 C166 1.351 . S
C165 N168 1.368 . S
C165 H170 0.931 . S
C166 C165 1.351 . S
C166 N167 1.373 . S
C166 H194 0.930 . S
N167 C166 1.373 . S
N167 C169 1.340 . S
N168 C165 1.368 . S
N168 C169 1.321 . S
N168 Co171 2.135 . S
C169 N167 1.340 . S
C169 N168 1.321 . S
C169 H193 0.930 . S
H170 C165 0.931 . S
Co171 N168 2.135 . S
Co171 N174 2.121 . S
Co171 O179 2.055 . S
Co171 O182 2.039 . S
Co171 N185 2.140 . S
C172 O173 1.227 . S
C172 O182 1.265 . S
O173 C172 1.227 . S
N174 Co171 2.121 . S
N174 C176 1.375 . S
N174 C177 1.313 . S
C175 C176 1.338 . S
C175 N178 1.377 . S
C175 H195 0.930 . S
C176 N174 1.375 . S
C176 C175 1.338 . S
C176 H180 0.931 . S
C177 N174 1.313 . S
C177 N178 1.344 . S
C177 H181 0.930 . S
N178 C175 1.377 . S
N178 C177 1.344 . S
O179 Co171 2.055 . S
O179 C183 1.253 . S
H180 C176 0.931 . S
H181 C177 0.930 . S
O182 Co171 2.039 . S
O182 C172 1.265 . S
C183 O179 1.253 . S
C183 O184 1.227 . S
O184 C183 1.227 . S
N185 Co171 2.140 . S
N185 C188 1.346 . S
N185 C189 1.345 . S
C186 C187 1.387 . S
C186 C190 1.391 . S
C187 C186 1.387 . S
C187 C188 1.369 . S
C187 H196 0.929 . S
C188 N185 1.346 . S
C188 C187 1.369 . S
C188 H191 0.928 . S
C189 N185 1.345 . S
C189 C190 1.371 . S
C189 H192 0.931 . S
C190 C186 1.391 . S
C190 C189 1.371 . S
C190 H197 0.930 . S
H191 C188 0.928 . S
H192 C189 0.931 . S
H193 C169 0.930 . S
H194 C166 0.930 . S
H195 C175 0.930 . S
H196 C187 0.929 . S
H197 C190 0.930 . S
C198 C199 1.351 . S
C198 N201 1.368 . S
C198 H203 0.931 . S
C199 C198 1.351 . S
C199 N200 1.373 . S
C199 H227 0.930 . S
N200 C199 1.373 . S
N200 C202 1.340 . S
N201 C198 1.368 . S
N201 C202 1.321 . S
N201 Co204 2.135 . S
C202 N200 1.340 . S
C202 N201 1.321 . S
C202 H226 0.930 . S
H203 C198 0.931 . S
Co204 N201 2.135 . S
Co204 N207 2.121 . S
Co204 O212 2.055 . S
Co204 O215 2.039 . S
Co204 N218 2.140 . S
C205 O206 1.227 . S
C205 O215 1.265 . S
O206 C205 1.227 . S
N207 Co204 2.121 . S
N207 C209 1.375 . S
N207 C210 1.313 . S
C208 C209 1.338 . S
C208 N211 1.377 . S
C208 H228 0.930 . S
C209 N207 1.375 . S
C209 C208 1.338 . S
C209 H213 0.931 . S
C210 N207 1.313 . S
C210 N211 1.344 . S
C210 H214 0.930 . S
N211 C208 1.377 . S
N211 C210 1.344 . S
O212 Co204 2.055 . S
O212 C216 1.253 . S
H213 C209 0.931 . S
H214 C210 0.930 . S
O215 Co204 2.039 . S
O215 C205 1.265 . S
C216 O212 1.253 . S
C216 O217 1.227 . S
O217 C216 1.227 . S
N218 Co204 2.140 . S
N218 C221 1.346 . S
N218 C222 1.345 . S
C219 C220 1.387 . S
C219 C223 1.391 . S
C220 C219 1.387 . S
C220 C221 1.369 . S
C220 H229 0.929 . S
C221 N218 1.346 . S
C221 C220 1.369 . S
C221 H224 0.928 . S
C222 N218 1.345 . S
C222 C223 1.371 . S
C222 H225 0.931 . S
C223 C219 1.391 . S
C223 C222 1.371 . S
C223 H230 0.930 . S
H224 C221 0.928 . S
H225 C222 0.931 . S
H226 C202 0.930 . S
H227 C199 0.930 . S
H228 C208 0.930 . S
H229 C220 0.929 . S
H230 C223 0.930 . S
C231 C232 1.351 . S
C231 N234 1.368 . S
C231 H236 0.931 . S
C232 C231 1.351 . S
C232 N233 1.373 . S
C232 H260 0.930 . S
N233 C232 1.373 . S
N233 C235 1.340 . S
N234 C231 1.368 . S
N234 C235 1.321 . S
N234 Co237 2.135 . S
C235 N233 1.340 . S
C235 N234 1.321 . S
C235 H259 0.930 . S
H236 C231 0.931 . S
Co237 N234 2.135 . S
Co237 N240 2.121 . S
Co237 O245 2.055 . S
Co237 O248 2.039 . S
Co237 N251 2.140 . S
C238 O239 1.227 . S
C238 O248 1.265 . S
O239 C238 1.227 . S
N240 Co237 2.121 . S
N240 C242 1.375 . S
N240 C243 1.313 . S
C241 C242 1.338 . S
C241 N244 1.377 . S
C241 H261 0.930 . S
C242 N240 1.375 . S
C242 C241 1.338 . S
C242 H246 0.931 . S
C243 N240 1.313 . S
C243 N244 1.344 . S
C243 H247 0.930 . S
N244 C241 1.377 . S
N244 C243 1.344 . S
O245 Co237 2.055 . S
O245 C249 1.253 . S
H246 C242 0.931 . S
H247 C243 0.930 . S
O248 Co237 2.039 . S
O248 C238 1.265 . S
C249 O245 1.253 . S
C249 O250 1.227 . S
O250 C249 1.227 . S
N251 Co237 2.140 . S
N251 C254 1.346 . S
N251 C255 1.345 . S
C252 C253 1.387 . S
C252 C256 1.391 . S
C253 C252 1.387 . S
C253 C254 1.369 . S
C253 H262 0.929 . S
C254 N251 1.346 . S
C254 C253 1.369 . S
C254 H257 0.928 . S
C255 N251 1.345 . S
C255 C256 1.371 . S
C255 H258 0.931 . S
C256 C252 1.391 . S
C256 C255 1.371 . S
C256 H263 0.930 . S
H257 C254 0.928 . S
H258 C255 0.931 . S
H259 C235 0.930 . S
H260 C232 0.930 . S
H261 C241 0.930 . S
H262 C253 0.929 . S
H263 C256 0.930 . S
C264 C265 1.351 . S
C264 N267 1.368 . S
C264 H269 0.931 . S
C265 C264 1.351 . S
C265 N266 1.373 . S
C265 H293 0.930 . S
N266 C265 1.373 . S
N266 C268 1.340 . S
N267 C264 1.368 . S
N267 C268 1.321 . S
N267 Co270 2.135 . S
C268 N266 1.340 . S
C268 N267 1.321 . S
C268 H292 0.930 . S
H269 C264 0.931 . S
Co270 N267 2.135 . S
Co270 N273 2.121 . S
Co270 O278 2.055 . S
Co270 O281 2.039 . S
Co270 N284 2.140 . S
C271 O272 1.227 . S
C271 O281 1.265 . S
O272 C271 1.227 . S
N273 Co270 2.121 . S
N273 C275 1.375 . S
N273 C276 1.313 . S
C274 C275 1.338 . S
C274 N277 1.377 . S
C274 H294 0.930 . S
C275 N273 1.375 . S
C275 C274 1.338 . S
C275 H279 0.931 . S
C276 N273 1.313 . S
C276 N277 1.344 . S
C276 H280 0.930 . S
N277 C274 1.377 . S
N277 C276 1.344 . S
O278 Co270 2.055 . S
O278 C282 1.253 . S
H279 C275 0.931 . S
H280 C276 0.930 . S
O281 Co270 2.039 . S
O281 C271 1.265 . S
C282 O278 1.253 . S
C282 O283 1.227 . S
O283 C282 1.227 . S
N284 Co270 2.140 . S
N284 C287 1.346 . S
N284 C288 1.345 . S
C285 C286 1.382 1_455 S
C285 C289 1.389 1_455 S
C286 C285 1.382 1_655 S
C286 C287 1.369 . S
C286 H295 0.929 . S
C287 N284 1.346 . S
C287 C286 1.369 . S
C287 H290 0.928 . S
C288 N284 1.345 . S
C288 C289 1.371 . S
C288 H291 0.931 . S
C289 C285 1.389 1_655 S
C289 C288 1.371 . S
C289 H296 0.930 1_655 S
H290 C287 0.928 . S
H291 C288 0.931 . S
H292 C268 0.930 . S
H293 C265 0.930 . S
H294 C274 0.930 . S
H295 C286 0.929 . S
H296 C289 0.930 1_455 S
C297 C298 1.351 . S
C297 N300 1.368 . S
C297 H302 0.931 . S
C298 C297 1.351 . S
C298 N299 1.373 . S
C298 H326 0.930 . S
N299 C298 1.373 . S
N299 C301 1.340 . S
N300 C297 1.368 . S
N300 C301 1.321 . S
N300 Co303 2.135 . S
C301 N299 1.340 . S
C301 N300 1.321 . S
C301 H325 0.930 . S
H302 C297 0.931 . S
Co303 N300 2.135 . S
Co303 N306 2.121 . S
Co303 O311 2.055 . S
Co303 O314 2.039 . S
Co303 N317 2.140 . S
C304 O305 1.227 . S
C304 O314 1.265 . S
O305 C304 1.227 . S
N306 Co303 2.121 . S
N306 C308 1.375 . S
N306 C309 1.313 . S
C307 C308 1.338 . S
C307 N310 1.377 . S
C307 H327 0.930 . S
C308 N306 1.375 . S
C308 C307 1.338 . S
C308 H312 0.931 . S
C309 N306 1.313 . S
C309 N310 1.344 . S
C309 H313 0.930 . S
N310 C307 1.377 . S
N310 C309 1.344 . S
O311 Co303 2.055 . S
O311 C315 1.253 . S
H312 C308 0.931 . S
H313 C309 0.930 . S
O314 Co303 2.039 . S
O314 C304 1.265 . S
C315 O311 1.253 . S
C315 O316 1.227 . S
O316 C315 1.227 . S
N317 Co303 2.140 . S
N317 C320 1.346 . S
N317 C321 1.345 . S
C318 C319 1.382 1_545 S
C318 C322 1.389 1_545 S
C319 C318 1.382 1_565 S
C319 C320 1.369 . S
C319 H328 0.929 . S
C320 N317 1.346 . S
C320 C319 1.369 . S
C320 H323 0.928 . S
C321 N317 1.345 . S
C321 C322 1.371 . S
C321 H324 0.931 . S
C322 C318 1.389 1_565 S
C322 C321 1.371 . S
C322 H329 0.930 1_565 S
H323 C320 0.928 . S
H324 C321 0.931 . S
H325 C301 0.930 . S
H326 C298 0.930 . S
H327 C307 0.930 . S
H328 C319 0.929 . S
H329 C322 0.930 1_545 S
C330 C331 1.351 . S
C330 N333 1.368 . S
C330 H335 0.931 . S
C331 C330 1.351 . S
C331 N332 1.373 . S
C331 H359 0.930 . S
N332 C331 1.373 . S
N332 C334 1.340 . S
N333 C330 1.368 . S
N333 C334 1.321 . S
N333 Co336 2.135 . S
C334 N332 1.340 . S
C334 N333 1.321 . S
C334 H358 0.930 . S
H335 C330 0.931 . S
Co336 N333 2.135 . S
Co336 N339 2.121 . S
Co336 O344 2.055 . S
Co336 O347 2.039 . S
Co336 N350 2.140 . S
C337 O338 1.227 . S
C337 O347 1.265 . S
O338 C337 1.227 . S
N339 Co336 2.121 . S
N339 C341 1.375 . S
N339 C342 1.313 . S
C340 C341 1.338 . S
C340 N343 1.377 . S
C340 H360 0.930 . S
C341 N339 1.375 . S
C341 C340 1.338 . S
C341 H345 0.931 . S
C342 N339 1.313 . S
C342 N343 1.344 . S
C342 H346 0.930 . S
N343 C340 1.377 . S
N343 C342 1.344 . S
O344 Co336 2.055 . S
O344 C348 1.253 . S
H345 C341 0.931 . S
H346 C342 0.930 . S
O347 Co336 2.039 . S
O347 C337 1.265 . S
C348 O344 1.253 . S
C348 O349 1.227 . S
O349 C348 1.227 . S
N350 Co336 2.140 . S
N350 C353 1.346 . S
N350 C354 1.345 . S
C351 C352 1.382 1_655 S
C351 C355 1.389 1_655 S
C352 C351 1.382 1_455 S
C352 C353 1.369 . S
C352 H361 0.929 . S
C353 N350 1.346 . S
C353 C352 1.369 . S
C353 H356 0.928 . S
C354 N350 1.345 . S
C354 C355 1.371 . S
C354 H357 0.931 . S
C355 C351 1.389 1_455 S
C355 C354 1.371 . S
C355 H362 0.930 1_455 S
H356 C353 0.928 . S
H357 C354 0.931 . S
H358 C334 0.930 . S
H359 C331 0.930 . S
H360 C340 0.930 . S
H361 C352 0.929 . S
H362 C355 0.930 1_655 S
C363 C364 1.351 . S
C363 N366 1.368 . S
C363 H368 0.931 . S
C364 C363 1.351 . S
C364 N365 1.373 . S
C364 H392 0.930 . S
N365 C364 1.373 . S
N365 C367 1.340 . S
N366 C363 1.368 . S
N366 C367 1.321 . S
N366 Co369 2.135 . S
C367 N365 1.340 . S
C367 N366 1.321 . S
C367 H391 0.930 . S
H368 C363 0.931 . S
Co369 N366 2.135 . S
Co369 N372 2.121 . S
Co369 O377 2.055 . S
Co369 O380 2.039 . S
Co369 N383 2.140 . S
C370 O371 1.227 . S
C370 O380 1.265 . S
O371 C370 1.227 . S
N372 Co369 2.121 . S
N372 C374 1.375 . S
N372 C375 1.313 . S
C373 C374 1.338 . S
C373 N376 1.377 . S
C373 H393 0.930 . S
C374 N372 1.375 . S
C374 C373 1.338 . S
C374 H378 0.931 . S
C375 N372 1.313 . S
C375 N376 1.344 . S
C375 H379 0.930 . S
N376 C373 1.377 . S
N376 C375 1.344 . S
O377 Co369 2.055 . S
O377 C381 1.253 . S
H378 C374 0.931 . S
H379 C375 0.930 . S
O380 Co369 2.039 . S
O380 C370 1.265 . S
C381 O377 1.253 . S
C381 O382 1.227 . S
O382 C381 1.227 . S
N383 Co369 2.140 . S
N383 C386 1.346 . S
N383 C387 1.345 . S
C384 C385 1.382 1_565 S
C384 C388 1.389 1_565 S
C385 C384 1.382 1_545 S
C385 C386 1.369 . S
C385 H394 0.929 . S
C386 N383 1.346 . S
C386 C385 1.369 . S
C386 H389 0.928 . S
C387 N383 1.345 . S
C387 C388 1.371 . S
C387 H390 0.931 . S
C388 C384 1.389 1_545 S
C388 C387 1.371 . S
C388 H395 0.930 1_545 S
H389 C386 0.928 . S
H390 C387 0.931 . S
H391 C367 0.930 . S
H392 C364 0.930 . S
H393 C373 0.930 . S
H394 C385 0.929 . S
H395 C388 0.930 1_565 S
C396 C397 1.351 . S
C396 N399 1.368 . S
C396 H401 0.931 . S
C397 C396 1.351 . S
C397 N398 1.373 . S
C397 H425 0.930 . S
N398 C397 1.373 . S
N398 C400 1.340 . S
N399 C396 1.368 . S
N399 C400 1.321 . S
N399 Co402 2.135 . S
C400 N398 1.340 . S
C400 N399 1.321 . S
C400 H424 0.930 . S
H401 C396 0.931 . S
Co402 N399 2.135 . S
Co402 N405 2.121 . S
Co402 O410 2.055 . S
Co402 O413 2.039 . S
Co402 N416 2.140 . S
C403 O404 1.227 . S
C403 O413 1.265 . S
O404 C403 1.227 . S
N405 Co402 2.121 . S
N405 C407 1.375 . S
N405 C408 1.313 . S
C406 C407 1.338 . S
C406 N409 1.377 . S
C406 H426 0.930 . S
C407 N405 1.375 . S
C407 C406 1.338 . S
C407 H411 0.931 . S
C408 N405 1.313 . S
C408 N409 1.344 . S
C408 H412 0.930 . S
N409 C406 1.377 . S
N409 C408 1.344 . S
O410 Co402 2.055 . S
O410 C414 1.253 . S
H411 C407 0.931 . S
H412 C408 0.930 . S
O413 Co402 2.039 . S
O413 C403 1.265 . S
C414 O410 1.253 . S
C414 O415 1.227 . S
O415 C414 1.227 . S
N416 Co402 2.140 . S
N416 C419 1.346 . S
N416 C420 1.345 . S
C417 C418 1.387 . S
C417 C421 1.391 . S
C418 C417 1.387 . S
C418 C419 1.369 . S
C418 H427 0.929 . S
C419 N416 1.346 . S
C419 C418 1.369 . S
C419 H422 0.928 . S
C420 N416 1.345 . S
C420 C421 1.371 . S
C420 H423 0.931 . S
C421 C417 1.391 . S
C421 C420 1.371 . S
C421 H428 0.930 . S
H422 C419 0.928 . S
H423 C420 0.931 . S
H424 C400 0.930 . S
H425 C397 0.930 . S
H426 C406 0.930 . S
H427 C418 0.929 . S
H428 C421 0.930 . S
C429 C430 1.351 . S
C429 N432 1.368 . S
C429 H434 0.931 . S
C430 C429 1.351 . S
C430 N431 1.373 . S
C430 H458 0.930 . S
N431 C430 1.373 . S
N431 C433 1.340 . S
N432 C429 1.368 . S
N432 C433 1.321 . S
N432 Co435 2.135 . S
C433 N431 1.340 . S
C433 N432 1.321 . S
C433 H457 0.930 . S
H434 C429 0.931 . S
Co435 N432 2.135 . S
Co435 N438 2.121 . S
Co435 O443 2.055 . S
Co435 O446 2.039 . S
Co435 N449 2.140 . S
C436 O437 1.227 . S
C436 O446 1.265 . S
O437 C436 1.227 . S
N438 Co435 2.121 . S
N438 C440 1.375 . S
N438 C441 1.313 . S
C439 C440 1.338 . S
C439 N442 1.377 . S
C439 H459 0.930 . S
C440 N438 1.375 . S
C440 C439 1.338 . S
C440 H444 0.931 . S
C441 N438 1.313 . S
C441 N442 1.344 . S
C441 H445 0.930 . S
N442 C439 1.377 . S
N442 C441 1.344 . S
O443 Co435 2.055 . S
O443 C447 1.253 . S
H444 C440 0.931 . S
H445 C441 0.930 . S
O446 Co435 2.039 . S
O446 C436 1.265 . S
C447 O443 1.253 . S
C447 O448 1.227 . S
O448 C447 1.227 . S
N449 Co435 2.140 . S
N449 C452 1.346 . S
N449 C453 1.345 . S
C450 C451 1.387 . S
C450 C454 1.391 . S
C451 C450 1.387 . S
C451 C452 1.369 . S
C451 H460 0.929 . S
C452 N449 1.346 . S
C452 C451 1.369 . S
C452 H455 0.928 . S
C453 N449 1.345 . S
C453 C454 1.371 . S
C453 H456 0.931 . S
C454 C450 1.391 . S
C454 C453 1.371 . S
C454 H461 0.930 . S
H455 C452 0.928 . S
H456 C453 0.931 . S
H457 C433 0.930 . S
H458 C430 0.930 . S
H459 C439 0.930 . S
H460 C451 0.929 . S
H461 C454 0.930 . S
C462 C463 1.351 . S
C462 N465 1.368 . S
C462 H467 0.931 . S
C463 C462 1.351 . S
C463 N464 1.373 . S
C463 H491 0.930 . S
N464 C463 1.373 . S
N464 C466 1.340 . S
N465 C462 1.368 . S
N465 C466 1.321 . S
N465 Co468 2.135 . S
C466 N464 1.340 . S
C466 N465 1.321 . S
C466 H490 0.930 . S
H467 C462 0.931 . S
Co468 N465 2.135 . S
Co468 N471 2.121 . S
Co468 O476 2.055 . S
Co468 O479 2.039 . S
Co468 N482 2.140 . S
C469 O470 1.227 . S
C469 O479 1.265 . S
O470 C469 1.227 . S
N471 Co468 2.121 . S
N471 C473 1.375 . S
N471 C474 1.313 . S
C472 C473 1.338 . S
C472 N475 1.377 . S
C472 H492 0.930 . S
C473 N471 1.375 . S
C473 C472 1.338 . S
C473 H477 0.931 . S
C474 N471 1.313 . S
C474 N475 1.344 . S
C474 H478 0.930 . S
N475 C472 1.377 . S
N475 C474 1.344 . S
O476 Co468 2.055 . S
O476 C480 1.253 . S
H477 C473 0.931 . S
H478 C474 0.930 . S
O479 Co468 2.039 . S
O479 C469 1.265 . S
C480 O476 1.253 . S
C480 O481 1.227 . S
O481 C480 1.227 . S
N482 Co468 2.140 . S
N482 C485 1.346 . S
N482 C486 1.345 . S
C483 C484 1.387 . S
C483 C487 1.391 . S
C484 C483 1.387 . S
C484 C485 1.369 . S
C484 H493 0.929 . S
C485 N482 1.346 . S
C485 C484 1.369 . S
C485 H488 0.928 . S
C486 N482 1.345 . S
C486 C487 1.371 . S
C486 H489 0.931 . S
C487 C483 1.391 . S
C487 C486 1.371 . S
C487 H494 0.930 . S
H488 C485 0.928 . S
H489 C486 0.931 . S
H490 C466 0.930 . S
H491 C463 0.930 . S
H492 C472 0.930 . S
H493 C484 0.929 . S
H494 C487 0.930 . S
C495 C496 1.351 . S
C495 N498 1.368 . S
C495 H500 0.931 . S
C496 C495 1.351 . S
C496 N497 1.373 . S
C496 H524 0.930 . S
N497 C496 1.373 . S
N497 C499 1.340 . S
N498 C495 1.368 . S
N498 C499 1.321 . S
N498 Co501 2.135 . S
C499 N497 1.340 . S
C499 N498 1.321 . S
C499 H523 0.930 . S
H500 C495 0.931 . S
Co501 N498 2.135 . S
Co501 N504 2.121 . S
Co501 O509 2.055 . S
Co501 O512 2.039 . S
Co501 N515 2.140 . S
C502 O503 1.227 . S
C502 O512 1.265 . S
O503 C502 1.227 . S
N504 Co501 2.121 . S
N504 C506 1.375 . S
N504 C507 1.313 . S
C505 C506 1.338 . S
C505 N508 1.377 . S
C505 H525 0.930 . S
C506 N504 1.375 . S
C506 C505 1.338 . S
C506 H510 0.931 . S
C507 N504 1.313 . S
C507 N508 1.344 . S
C507 H511 0.930 . S
N508 C505 1.377 . S
N508 C507 1.344 . S
O509 Co501 2.055 . S
O509 C513 1.253 . S
H510 C506 0.931 . S
H511 C507 0.930 . S
O512 Co501 2.039 . S
O512 C502 1.265 . S
C513 O509 1.253 . S
C513 O514 1.227 . S
O514 C513 1.227 . S
N515 Co501 2.140 . S
N515 C518 1.346 . S
N515 C519 1.345 . S
C516 C517 1.387 . S
C516 C520 1.391 . S
C517 C516 1.387 . S
C517 C518 1.369 . S
C517 H526 0.929 . S
C518 N515 1.346 . S
C518 C517 1.369 . S
C518 H521 0.928 . S
C519 N515 1.345 . S
C519 C520 1.371 . S
C519 H522 0.931 . S
C520 C516 1.391 . S
C520 C519 1.371 . S
C520 H527 0.930 . S
H521 C518 0.928 . S
H522 C519 0.931 . S
H523 C499 0.930 . S
H524 C496 0.930 . S
H525 C505 0.930 . S
H526 C517 0.929 . S
H527 C520 0.930 . S
H528 C536 0.929 . S
H529 C538 0.930 . S
H530 C540 0.930 . S
H531 C543 0.929 . S
H532 C546 0.930 . S
H533 C548 0.960 . S
H534 C548 0.960 . S
H535 C548 0.960 . S
C536 H528 0.929 . S
C536 C537 1.377 . S
C536 C538 1.384 . S
C537 C536 1.377 . S
C537 C543 1.390 . S
C538 H529 0.930 . S
C538 C536 1.384 . S
C538 C539 1.372 . S
C539 C538 1.372 . S
C539 C540 1.400 . S
C539 C544 1.490 . S
C540 H530 0.930 . S
C540 C539 1.400 . S
C540 C543 1.386 . S
H541 C557 0.930 . S
H542 C558 0.931 . S
C543 H531 0.929 . S
C543 C537 1.390 . S
C543 C540 1.386 . S
C544 C539 1.490 . S
C544 C546 1.395 . S
C544 C547 1.403 . S
H545 C551 0.930 . S
C546 H532 0.930 . S
C546 C544 1.395 . S
C546 C549 1.403 1_556 S
C547 C544 1.403 . S
C547 C548 1.524 . S
C547 C551 1.400 1_556 S
C548 H533 0.960 . S
C548 H534 0.960 . S
C548 H535 0.960 . S
C548 C547 1.524 . S
C549 C546 1.403 1_554 S
C549 C550 1.392 . S
C549 C553 1.495 . S
C550 C549 1.392 . S
C550 C551 1.385 . S
C550 C552 1.478 . S
C551 H545 0.930 . S
C551 C547 1.400 1_554 S
C551 C550 1.385 . S
C552 C550 1.478 . S
C552 C554 1.381 . S
C552 C558 1.383 . S
C553 C549 1.495 . S
C553 H559 0.959 . S
C553 H560 0.961 . S
C553 H561 0.960 . S
C554 C552 1.381 . S
C554 C555 1.394 . S
C554 H562 0.930 . S
C555 C554 1.394 . S
C555 C556 1.383 . S
C555 H563 0.929 . S
C556 C555 1.383 . S
C556 C557 1.377 . S
C557 H541 0.930 . S
C557 C556 1.377 . S
C557 C558 1.379 . S
C558 H542 0.931 . S
C558 C552 1.383 . S
C558 C557 1.379 . S
H559 C553 0.959 . S
H560 C553 0.961 . S
H561 C553 0.960 . S
H562 C554 0.930 . S
H563 C555 0.929 . S
H564 C572 0.929 . S
H565 C574 0.930 . S
H566 C576 0.930 . S
H567 C579 0.929 . S
H568 C582 0.930 . S
H569 C584 0.960 . S
H570 C584 0.960 . S
H571 C584 0.960 . S
C572 H564 0.929 . S
C572 C573 1.377 . S
C572 C574 1.384 . S
C573 C572 1.377 . S
C573 C579 1.390 . S
C574 H565 0.930 . S
C574 C572 1.384 . S
C574 C575 1.372 . S
C575 C574 1.372 . S
C575 C576 1.400 . S
C575 C580 1.490 . S
C576 H566 0.930 . S
C576 C575 1.400 . S
C576 C579 1.386 . S
H577 C593 0.930 . S
H578 C594 0.931 . S
C579 H567 0.929 . S
C579 C573 1.390 . S
C579 C576 1.386 . S
C580 C575 1.490 . S
C580 C582 1.395 . S
C580 C583 1.403 . S
H581 C587 0.930 . S
C582 H568 0.930 . S
C582 C580 1.395 . S
C582 C585 1.403 1_556 S
C583 C580 1.403 . S
C583 C584 1.524 . S
C583 C587 1.400 1_556 S
C584 H569 0.960 . S
C584 H570 0.960 . S
C584 H571 0.960 . S
C584 C583 1.524 . S
C585 C582 1.403 1_554 S
C585 C586 1.392 . S
C585 C589 1.495 . S
C586 C585 1.392 . S
C586 C587 1.385 . S
C586 C588 1.478 . S
C587 H581 0.930 . S
C587 C583 1.400 1_554 S
C587 C586 1.385 . S
C588 C586 1.478 . S
C588 C590 1.381 . S
C588 C594 1.383 . S
C589 C585 1.495 . S
C589 H595 0.959 . S
C589 H596 0.961 . S
C589 H597 0.960 . S
C590 C588 1.381 . S
C590 C591 1.394 . S
C590 H598 0.930 . S
C591 C590 1.394 . S
C591 C592 1.383 . S
C591 H599 0.929 . S
C592 C591 1.383 . S
C592 C593 1.377 . S
C593 H577 0.930 . S
C593 C592 1.377 . S
C593 C594 1.379 . S
C594 H578 0.931 . S
C594 C588 1.383 . S
C594 C593 1.379 . S
H595 C589 0.959 . S
H596 C589 0.961 . S
H597 C589 0.960 . S
H598 C590 0.930 . S
H599 C591 0.929 . S
H600 C608 0.929 . S
H601 C610 0.930 . S
H602 C612 0.930 . S
H603 C615 0.929 . S
H604 C618 0.930 . S
H605 C620 0.960 . S
H606 C620 0.960 . S
H607 C620 0.960 . S
C608 H600 0.929 . S
C608 C609 1.377 . S
C608 C610 1.384 . S
C609 C608 1.377 . S
C609 C615 1.390 . S
C610 H601 0.930 . S
C610 C608 1.384 . S
C610 C611 1.372 . S
C611 C610 1.372 . S
C611 C612 1.400 . S
C611 C616 1.490 . S
C612 H602 0.930 . S
C612 C611 1.400 . S
C612 C615 1.386 . S
H613 C629 0.930 . S
H614 C630 0.931 . S
C615 H603 0.929 . S
C615 C609 1.390 . S
C615 C612 1.386 . S
C616 C611 1.490 . S
C616 C618 1.395 . S
C616 C619 1.403 . S
H617 C623 0.930 . S
C618 H604 0.930 . S
C618 C616 1.395 . S
C618 C621 1.403 1_556 S
C619 C616 1.403 . S
C619 C620 1.524 . S
C619 C623 1.400 1_556 S
C620 H605 0.960 . S
C620 H606 0.960 . S
C620 H607 0.960 . S
C620 C619 1.524 . S
C621 C618 1.403 1_554 S
C621 C622 1.392 . S
C621 C625 1.495 . S
C622 C621 1.392 . S
C622 C623 1.385 . S
C622 C624 1.478 . S
C623 H617 0.930 . S
C623 C619 1.400 1_554 S
C623 C622 1.385 . S
C624 C622 1.478 . S
C624 C626 1.381 . S
C624 C630 1.383 . S
C625 C621 1.495 . S
C625 H631 0.959 . S
C625 H632 0.961 . S
C625 H633 0.960 . S
C626 C624 1.381 . S
C626 C627 1.394 . S
C626 H634 0.930 . S
C627 C626 1.394 . S
C627 C628 1.383 . S
C627 H635 0.929 . S
C628 C627 1.383 . S
C628 C629 1.377 . S
C629 H613 0.930 . S
C629 C628 1.377 . S
C629 C630 1.379 . S
C630 H614 0.931 . S
C630 C624 1.383 . S
C630 C629 1.379 . S
H631 C625 0.959 . S
H632 C625 0.961 . S
H633 C625 0.960 . S
H634 C626 0.930 . S
H635 C627 0.929 . S
H636 C644 0.929 . S
H637 C646 0.930 . S
H638 C648 0.930 . S
H639 C651 0.929 . S
H640 C654 0.930 . S
H641 C656 0.960 . S
H642 C656 0.960 . S
H643 C656 0.960 . S
C644 H636 0.929 . S
C644 C645 1.377 . S
C644 C646 1.384 . S
C645 C644 1.377 . S
C645 C651 1.390 . S
C646 H637 0.930 . S
C646 C644 1.384 . S
C646 C647 1.372 . S
C647 C646 1.372 . S
C647 C648 1.400 . S
C647 C652 1.490 . S
C648 H638 0.930 . S
C648 C647 1.400 . S
C648 C651 1.386 . S
H649 C665 0.930 . S
H650 C666 0.931 . S
C651 H639 0.929 . S
C651 C645 1.390 . S
C651 C648 1.386 . S
C652 C647 1.490 . S
C652 C654 1.395 . S
C652 C655 1.403 . S
H653 C659 0.930 . S
C654 H640 0.930 . S
C654 C652 1.395 . S
C654 C657 1.403 1_556 S
C655 C652 1.403 . S
C655 C656 1.524 . S
C655 C659 1.400 1_556 S
C656 H641 0.960 . S
C656 H642 0.960 . S
C656 H643 0.960 . S
C656 C655 1.524 . S
C657 C654 1.403 1_554 S
C657 C658 1.392 . S
C657 C661 1.495 . S
C658 C657 1.392 . S
C658 C659 1.385 . S
C658 C660 1.478 . S
C659 H653 0.930 . S
C659 C655 1.400 1_554 S
C659 C658 1.385 . S
C660 C658 1.478 . S
C660 C662 1.381 . S
C660 C666 1.383 . S
C661 C657 1.495 . S
C661 H667 0.959 . S
C661 H668 0.961 . S
C661 H669 0.960 . S
C662 C660 1.381 . S
C662 C663 1.394 . S
C662 H670 0.930 . S
C663 C662 1.394 . S
C663 C664 1.383 . S
C663 H671 0.929 . S
C664 C663 1.383 . S
C664 C665 1.377 . S
C665 H649 0.930 . S
C665 C664 1.377 . S
C665 C666 1.379 . S
C666 H650 0.931 . S
C666 C660 1.383 . S
C666 C665 1.379 . S
H667 C661 0.959 . S
H668 C661 0.961 . S
H669 C661 0.960 . S
H670 C662 0.930 . S
H671 C663 0.929 . S
H672 C680 0.929 . S
H673 C682 0.930 . S
H674 C684 0.930 . S
H675 C687 0.929 . S
H676 C690 0.930 . S
H677 C692 0.960 . S
H678 C692 0.960 . S
H679 C692 0.960 . S
C680 H672 0.929 . S
C680 C681 1.377 . S
C680 C682 1.384 . S
C681 C680 1.377 . S
C681 C687 1.390 . S
C682 H673 0.930 . S
C682 C680 1.384 . S
C682 C683 1.372 . S
C683 C682 1.372 . S
C683 C684 1.400 . S
C683 C688 1.490 . S
C684 H674 0.930 . S
C684 C683 1.400 . S
C684 C687 1.386 . S
H685 C701 0.930 . S
H686 C702 0.931 . S
C687 H675 0.929 . S
C687 C681 1.390 . S
C687 C684 1.386 . S
C688 C683 1.490 . S
C688 C690 1.395 . S
C688 C691 1.403 . S
H689 C695 0.930 . S
C690 H676 0.930 . S
C690 C688 1.395 . S
C690 C693 1.403 . S
C691 C688 1.403 . S
C691 C692 1.524 . S
C691 C695 1.400 . S
C692 H677 0.960 . S
C692 H678 0.960 . S
C692 H679 0.960 . S
C692 C691 1.524 . S
C693 C690 1.403 . S
C693 C694 1.392 . S
C693 C697 1.495 . S
C694 C693 1.392 . S
C694 C695 1.385 . S
C694 C696 1.478 . S
C695 H689 0.930 . S
C695 C691 1.400 . S
C695 C694 1.385 . S
C696 C694 1.478 . S
C696 C698 1.381 . S
C696 C702 1.383 . S
C697 C693 1.495 . S
C697 H703 0.959 . S
C697 H704 0.961 . S
C697 H705 0.960 . S
C698 C696 1.381 . S
C698 C699 1.394 . S
C698 H706 0.930 . S
C699 C698 1.394 . S
C699 C700 1.383 . S
C699 H707 0.929 . S
C700 C699 1.383 . S
C700 C701 1.377 . S
C701 H685 0.930 . S
C701 C700 1.377 . S
C701 C702 1.379 . S
C702 H686 0.931 . S
C702 C696 1.383 . S
C702 C701 1.379 . S
H703 C697 0.959 . S
H704 C697 0.961 . S
H705 C697 0.960 . S
H706 C698 0.930 . S
H707 C699 0.929 . S
H708 C716 0.929 . S
H709 C718 0.930 . S
H710 C720 0.930 . S
H711 C723 0.929 . S
H712 C726 0.930 . S
H713 C728 0.960 . S
H714 C728 0.960 . S
H715 C728 0.960 . S
C716 H708 0.929 . S
C716 C717 1.377 . S
C716 C718 1.384 . S
C717 C716 1.377 . S
C717 C723 1.390 . S
C718 H709 0.930 . S
C718 C716 1.384 . S
C718 C719 1.372 . S
C719 C718 1.372 . S
C719 C720 1.400 . S
C719 C724 1.490 . S
C720 H710 0.930 . S
C720 C719 1.400 . S
C720 C723 1.386 . S
H721 C737 0.930 . S
H722 C738 0.931 . S
C723 H711 0.929 . S
C723 C717 1.390 . S
C723 C720 1.386 . S
C724 C719 1.490 . S
C724 C726 1.395 . S
C724 C727 1.403 . S
H725 C731 0.930 . S
C726 H712 0.930 . S
C726 C724 1.395 . S
C726 C729 1.403 . S
C727 C724 1.403 . S
C727 C728 1.524 . S
C727 C731 1.400 . S
C728 H713 0.960 . S
C728 H714 0.960 . S
C728 H715 0.960 . S
C728 C727 1.524 . S
C729 C726 1.403 . S
C729 C730 1.392 . S
C729 C733 1.495 . S
C730 C729 1.392 . S
C730 C731 1.385 . S
C730 C732 1.478 . S
C731 H725 0.930 . S
C731 C727 1.400 . S
C731 C730 1.385 . S
C732 C730 1.478 . S
C732 C734 1.381 . S
C732 C738 1.383 . S
C733 C729 1.495 . S
C733 H739 0.959 . S
C733 H740 0.961 . S
C733 H741 0.960 . S
C734 C732 1.381 . S
C734 C735 1.394 . S
C734 H742 0.930 . S
C735 C734 1.394 . S
C735 C736 1.383 . S
C735 H743 0.929 . S
C736 C735 1.383 . S
C736 C737 1.377 . S
C737 H721 0.930 . S
C737 C736 1.377 . S
C737 C738 1.379 . S
C738 H722 0.931 . S
C738 C732 1.383 . S
C738 C737 1.379 . S
H739 C733 0.959 . S
H740 C733 0.961 . S
H741 C733 0.960 . S
H742 C734 0.930 . S
H743 C735 0.929 . S
H744 C752 0.929 . S
H745 C754 0.930 . S
H746 C756 0.930 . S
H747 C759 0.929 . S
H748 C762 0.930 . S
H749 C764 0.960 . S
H750 C764 0.960 . S
H751 C764 0.960 . S
C752 H744 0.929 . S
C752 C753 1.377 . S
C752 C754 1.384 . S
C753 C752 1.377 . S
C753 C759 1.390 . S
C754 H745 0.930 . S
C754 C752 1.384 . S
C754 C755 1.372 . S
C755 C754 1.372 . S
C755 C756 1.400 . S
C755 C760 1.490 . S
C756 H746 0.930 . S
C756 C755 1.400 . S
C756 C759 1.386 . S
H757 C773 0.930 . S
H758 C774 0.931 . S
C759 H747 0.929 . S
C759 C753 1.390 . S
C759 C756 1.386 . S
C760 C755 1.490 . S
C760 C762 1.395 . S
C760 C763 1.403 . S
H761 C767 0.930 . S
C762 H748 0.930 . S
C762 C760 1.395 . S
C762 C765 1.403 . S
C763 C760 1.403 . S
C763 C764 1.524 . S
C763 C767 1.400 . S
C764 H749 0.960 . S
C764 H750 0.960 . S
C764 H751 0.960 . S
C764 C763 1.524 . S
C765 C762 1.403 . S
C765 C766 1.392 . S
C765 C769 1.495 . S
C766 C765 1.392 . S
C766 C767 1.385 . S
C766 C768 1.478 . S
C767 H761 0.930 . S
C767 C763 1.400 . S
C767 C766 1.385 . S
C768 C766 1.478 . S
C768 C770 1.381 . S
C768 C774 1.383 . S
C769 C765 1.495 . S
C769 H775 0.959 . S
C769 H776 0.961 . S
C769 H777 0.960 . S
C770 C768 1.381 . S
C770 C771 1.394 . S
C770 H778 0.930 . S
C771 C770 1.394 . S
C771 C772 1.383 . S
C771 H779 0.929 . S
C772 C771 1.383 . S
C772 C773 1.377 . S
C773 H757 0.930 . S
C773 C772 1.377 . S
C773 C774 1.379 . S
C774 H758 0.931 . S
C774 C768 1.383 . S
C774 C773 1.379 . S
H775 C769 0.959 . S
H776 C769 0.961 . S
H777 C769 0.960 . S
H778 C770 0.930 . S
H779 C771 0.929 . S
H780 C788 0.929 . S
H781 C790 0.930 . S
H782 C792 0.930 . S
H783 C795 0.929 . S
H784 C798 0.930 . S
H785 C800 0.960 . S
H786 C800 0.960 . S
H787 C800 0.960 . S
C788 H780 0.929 . S
C788 C789 1.377 . S
C788 C790 1.384 . S
C789 C788 1.377 . S
C789 C795 1.390 . S
C790 H781 0.930 . S
C790 C788 1.384 . S
C790 C791 1.372 . S
C791 C790 1.372 . S
C791 C792 1.400 . S
C791 C796 1.490 . S
C792 H782 0.930 . S
C792 C791 1.400 . S
C792 C795 1.386 . S
H793 C809 0.930 . S
H794 C810 0.931 . S
C795 H783 0.929 . S
C795 C789 1.390 . S
C795 C792 1.386 . S
C796 C791 1.490 . S
C796 C798 1.395 . S
C796 C799 1.403 . S
H797 C803 0.930 . S
C798 H784 0.930 . S
C798 C796 1.395 . S
C798 C801 1.403 . S
C799 C796 1.403 . S
C799 C800 1.524 . S
C799 C803 1.400 . S
C800 H785 0.960 . S
C800 H786 0.960 . S
C800 H787 0.960 . S
C800 C799 1.524 . S
C801 C798 1.403 . S
C801 C802 1.392 . S
C801 C805 1.495 . S
C802 C801 1.392 . S
C802 C803 1.385 . S
C802 C804 1.478 . S
C803 H797 0.930 . S
C803 C799 1.400 . S
C803 C802 1.385 . S
C804 C802 1.478 . S
C804 C806 1.381 . S
C804 C810 1.383 . S
C805 C801 1.495 . S
C805 H811 0.959 . S
C805 H812 0.961 . S
C805 H813 0.960 . S
C806 C804 1.381 . S
C806 C807 1.394 . S
C806 H814 0.930 . S
C807 C806 1.394 . S
C807 C808 1.383 . S
C807 H815 0.929 . S
C808 C807 1.383 . S
C808 C809 1.377 . S
C809 H793 0.930 . S
C809 C808 1.377 . S
C809 C810 1.379 . S
C810 H794 0.931 . S
C810 C804 1.383 . S
C810 C809 1.379 . S
H811 C805 0.959 . S
H812 C805 0.961 . S
H813 C805 0.960 . S
H814 C806 0.930 . S
H815 C807 0.929 . S
H816 C824 0.929 . S
H817 C826 0.930 . S
H818 C828 0.930 . S
H819 C831 0.929 . S
H820 C834 0.930 . S
H821 C836 0.960 . S
H822 C836 0.960 . S
H823 C836 0.960 . S
C824 H816 0.929 . S
C824 C825 1.377 . S
C824 C826 1.384 . S
C825 C824 1.377 . S
C825 C831 1.390 . S
C826 H817 0.930 . S
C826 C824 1.384 . S
C826 C827 1.372 . S
C827 C826 1.372 . S
C827 C828 1.400 . S
C827 C832 1.490 . S
C828 H818 0.930 . S
C828 C827 1.400 . S
C828 C831 1.386 . S
H829 C845 0.930 . S
H830 C846 0.931 . S
C831 H819 0.929 . S
C831 C825 1.390 . S
C831 C828 1.386 . S
C832 C827 1.490 . S
C832 C834 1.395 . S
C832 C835 1.403 . S
H833 C839 0.930 . S
C834 H820 0.930 . S
C834 C832 1.395 . S
C834 C837 1.403 . S
C835 C832 1.403 . S
C835 C836 1.524 . S
C835 C839 1.400 . S
C836 H821 0.960 . S
C836 H822 0.960 . S
C836 H823 0.960 . S
C836 C835 1.524 . S
C837 C834 1.403 . S
C837 C838 1.392 . S
C837 C841 1.495 . S
C838 C837 1.392 . S
C838 C839 1.385 . S
C838 C840 1.478 . S
C839 H833 0.930 . S
C839 C835 1.400 . S
C839 C838 1.385 . S
C840 C838 1.478 . S
C840 C842 1.381 . S
C840 C846 1.383 . S
C841 C837 1.495 . S
C841 H847 0.959 . S
C841 H848 0.961 . S
C841 H849 0.960 . S
C842 C840 1.381 . S
C842 C843 1.394 . S
C842 H850 0.930 . S
C843 C842 1.394 . S
C843 C844 1.383 . S
C843 H851 0.929 . S
C844 C843 1.383 . S
C844 C845 1.377 . S
C845 H829 0.930 . S
C845 C844 1.377 . S
C845 C846 1.379 . S
C846 H830 0.931 . S
C846 C840 1.383 . S
C846 C845 1.379 . S
H847 C841 0.959 . S
H848 C841 0.961 . S
H849 C841 0.960 . S
H850 C842 0.930 . S
H851 C843 0.929 . S
H852 C860 0.929 . S
H853 C862 0.930 . S
H854 C864 0.930 . S
H855 C867 0.929 . S
H856 C870 0.930 . S
H857 C872 0.960 . S
H858 C872 0.960 . S
H859 C872 0.960 . S
C860 H852 0.929 . S
C860 C861 1.377 . S
C860 C862 1.384 . S
C861 C860 1.377 . S
C861 C867 1.390 . S
C862 H853 0.930 . S
C862 C860 1.384 . S
C862 C863 1.372 . S
C863 C862 1.372 . S
C863 C864 1.400 . S
C863 C868 1.490 . S
C864 H854 0.930 . S
C864 C863 1.400 . S
C864 C867 1.386 . S
H865 C881 0.930 . S
H866 C882 0.931 . S
C867 H855 0.929 . S
C867 C861 1.390 . S
C867 C864 1.386 . S
C868 C863 1.490 . S
C868 C870 1.395 . S
C868 C871 1.403 . S
H869 C875 0.930 . S
C870 H856 0.930 . S
C870 C868 1.395 . S
C870 C873 1.403 . S
C871 C868 1.403 . S
C871 C872 1.524 . S
C871 C875 1.400 . S
C872 H857 0.960 . S
C872 H858 0.960 . S
C872 H859 0.960 . S
C872 C871 1.524 . S
C873 C870 1.403 . S
C873 C874 1.392 . S
C873 C877 1.495 . S
C874 C873 1.392 . S
C874 C875 1.385 . S
C874 C876 1.478 . S
C875 H869 0.930 . S
C875 C871 1.400 . S
C875 C874 1.385 . S
C876 C874 1.478 . S
C876 C878 1.381 . S
C876 C882 1.383 . S
C877 C873 1.495 . S
C877 H883 0.959 . S
C877 H884 0.961 . S
C877 H885 0.960 . S
C878 C876 1.381 . S
C878 C879 1.394 . S
C878 H886 0.930 . S
C879 C878 1.394 . S
C879 C880 1.383 . S
C879 H887 0.929 . S
C880 C879 1.383 . S
C880 C881 1.377 . S
C881 H865 0.930 . S
C881 C880 1.377 . S
C881 C882 1.379 . S
C882 H866 0.931 . S
C882 C876 1.383 . S
C882 C881 1.379 . S
H883 C877 0.959 . S
H884 C877 0.961 . S
H885 C877 0.960 . S
H886 C878 0.930 . S
H887 C879 0.929 . S
H888 C896 0.929 . S
H889 C898 0.930 . S
H890 C900 0.930 . S
H891 C903 0.929 . S
H892 C906 0.930 . S
H893 C908 0.960 . S
H894 C908 0.960 . S
H895 C908 0.960 . S
C896 H888 0.929 . S
C896 C897 1.377 . S
C896 C898 1.384 . S
C897 C896 1.377 . S
C897 C903 1.390 . S
C898 H889 0.930 . S
C898 C896 1.384 . S
C898 C899 1.372 . S
C899 C898 1.372 . S
C899 C900 1.400 . S
C899 C904 1.490 . S
C900 H890 0.930 . S
C900 C899 1.400 . S
C900 C903 1.386 . S
H901 C917 0.930 . S
H902 C918 0.931 . S
C903 H891 0.929 . S
C903 C897 1.390 . S
C903 C900 1.386 . S
C904 C899 1.490 . S
C904 C906 1.395 . S
C904 C907 1.403 . S
H905 C911 0.930 . S
C906 H892 0.930 . S
C906 C904 1.395 . S
C906 C909 1.403 . S
C907 C904 1.403 . S
C907 C908 1.524 . S
C907 C911 1.400 . S
C908 H893 0.960 . S
C908 H894 0.960 . S
C908 H895 0.960 . S
C908 C907 1.524 . S
C909 C906 1.403 . S
C909 C910 1.392 . S
C909 C913 1.495 . S
C910 C909 1.392 . S
C910 C911 1.385 . S
C910 C912 1.478 . S
C911 H905 0.930 . S
C911 C907 1.400 . S
C911 C910 1.385 . S
C912 C910 1.478 . S
C912 C914 1.381 . S
C912 C918 1.383 . S
C913 C909 1.495 . S
C913 H919 0.959 . S
C913 H920 0.961 . S
C913 H921 0.960 . S
C914 C912 1.381 . S
C914 C915 1.394 . S
C914 H922 0.930 . S
C915 C914 1.394 . S
C915 C916 1.383 . S
C915 H923 0.929 . S
C916 C915 1.383 . S
C916 C917 1.377 . S
C917 H901 0.930 . S
C917 C916 1.377 . S
C917 C918 1.379 . S
C918 H902 0.931 . S
C918 C912 1.383 . S
C918 C917 1.379 . S
H919 C913 0.959 . S
H920 C913 0.961 . S
H921 C913 0.960 . S
H922 C914 0.930 . S
H923 C915 0.929 . S
H924 C932 0.929 . S
H925 C934 0.930 . S
H926 C936 0.930 . S
H927 C939 0.929 . S
H928 C942 0.930 . S
H929 C944 0.960 . S
H930 C944 0.960 . S
H931 C944 0.960 . S
C932 H924 0.929 . S
C932 C933 1.377 . S
C932 C934 1.384 . S
C933 C932 1.377 . S
C933 C939 1.390 . S
C934 H925 0.930 . S
C934 C932 1.384 . S
C934 C935 1.372 . S
C935 C934 1.372 . S
C935 C936 1.400 . S
C935 C940 1.490 . S
C936 H926 0.930 . S
C936 C935 1.400 . S
C936 C939 1.386 . S
H937 C953 0.930 . S
H938 C954 0.931 . S
C939 H927 0.929 . S
C939 C933 1.390 . S
C939 C936 1.386 . S
C940 C935 1.490 . S
C940 C942 1.395 . S
C940 C943 1.403 . S
H941 C947 0.930 . S
C942 H928 0.930 . S
C942 C940 1.395 . S
C942 C945 1.403 . S
C943 C940 1.403 . S
C943 C944 1.524 . S
C943 C947 1.400 . S
C944 H929 0.960 . S
C944 H930 0.960 . S
C944 H931 0.960 . S
C944 C943 1.524 . S
C945 C942 1.403 . S
C945 C946 1.392 . S
C945 C949 1.495 . S
C946 C945 1.392 . S
C946 C947 1.385 . S
C946 C948 1.478 . S
C947 H941 0.930 . S
C947 C943 1.400 . S
C947 C946 1.385 . S
C948 C946 1.478 . S
C948 C950 1.381 . S
C948 C954 1.383 . S
C949 C945 1.495 . S
C949 H955 0.959 . S
C949 H956 0.961 . S
C949 H957 0.960 . S
C950 C948 1.381 . S
C950 C951 1.394 . S
C950 H958 0.930 . S
C951 C950 1.394 . S
C951 C952 1.383 . S
C951 H959 0.929 . S
C952 C951 1.383 . S
C952 C953 1.377 . S
C953 H937 0.930 . S
C953 C952 1.377 . S
C953 C954 1.379 . S
C954 H938 0.931 . S
C954 C948 1.383 . S
C954 C953 1.379 . S
H955 C949 0.959 . S
H956 C949 0.961 . S
H957 C949 0.960 . S
H958 C950 0.930 . S
H959 C951 0.929 . S
H960 C968 0.929 . S
H961 C970 0.930 . S
H962 C972 0.930 . S
H963 C975 0.929 . S
H964 C978 0.930 . S
H965 C980 0.960 . S
H966 C980 0.960 . S
H967 C980 0.960 . S
C968 H960 0.929 . S
C968 C969 1.377 . S
C968 C970 1.384 . S
C969 C968 1.377 . S
C969 C975 1.390 . S
C970 H961 0.930 . S
C970 C968 1.384 . S
C970 C971 1.372 . S
C971 C970 1.372 . S
C971 C972 1.400 . S
C971 C976 1.490 . S
C972 H962 0.930 . S
C972 C971 1.400 . S
C972 C975 1.386 . S
H973 C989 0.930 . S
H974 C990 0.931 . S
C975 H963 0.929 . S
C975 C969 1.390 . S
C975 C972 1.386 . S
C976 C971 1.490 . S
C976 C978 1.395 . S
C976 C979 1.403 . S
H977 C983 0.930 . S
C978 H964 0.930 . S
C978 C976 1.395 . S
C978 C981 1.403 . S
C979 C976 1.403 . S
C979 C980 1.524 . S
C979 C983 1.400 . S
C980 H965 0.960 . S
C980 H966 0.960 . S
C980 H967 0.960 . S
C980 C979 1.524 . S
C981 C978 1.403 . S
C981 C982 1.392 . S
C981 C985 1.495 . S
C982 C981 1.392 . S
C982 C983 1.385 . S
C982 C984 1.478 . S
C983 H977 0.930 . S
C983 C979 1.400 . S
C983 C982 1.385 . S
C984 C982 1.478 . S
C984 C986 1.381 . S
C984 C990 1.383 . S
C985 C981 1.495 . S
C985 H991 0.959 . S
C985 H992 0.961 . S
C985 H993 0.960 . S
C986 C984 1.381 . S
C986 C987 1.394 . S
C986 H994 0.930 . S
C987 C986 1.394 . S
C987 C988 1.383 . S
C987 H995 0.929 . S
C988 C987 1.383 . S
C988 C989 1.377 . S
C989 H973 0.930 . S
C989 C988 1.377 . S
C989 C990 1.379 . S
C990 H974 0.931 . S
C990 C984 1.383 . S
C990 C989 1.379 . S
H991 C985 0.959 . S
H992 C985 0.961 . S
H993 C985 0.960 . S
H994 C986 0.930 . S
H995 C987 0.929 . S
H996 C1004 0.929 . S
H997 C1006 0.930 . S
H998 C1008 0.930 . S
H999 C1011 0.929 . S
H1000 C1014 0.930 . S
H1001 C1016 0.960 . S
H1002 C1016 0.960 . S
H1003 C1016 0.960 . S
C1004 H996 0.929 . S
C1004 C1005 1.377 . S
C1004 C1006 1.384 . S
C1005 C1004 1.377 . S
C1005 C1011 1.390 . S
C1006 H997 0.930 . S
C1006 C1004 1.384 . S
C1006 C1007 1.372 . S
C1007 C1006 1.372 . S
C1007 C1008 1.400 . S
C1007 C1012 1.490 . S
C1008 H998 0.930 . S
C1008 C1007 1.400 . S
C1008 C1011 1.386 . S
H1009 C1025 0.930 . S
H1010 C1026 0.931 . S
C1011 H999 0.929 . S
C1011 C1005 1.390 . S
C1011 C1008 1.386 . S
C1012 C1007 1.490 . S
C1012 C1014 1.395 . S
C1012 C1015 1.403 . S
H1013 C1019 0.930 . S
C1014 H1000 0.930 . S
C1014 C1012 1.395 . S
C1014 C1017 1.403 . S
C1015 C1012 1.403 . S
C1015 C1016 1.524 . S
C1015 C1019 1.400 . S
C1016 H1001 0.960 . S
C1016 H1002 0.960 . S
C1016 H1003 0.960 . S
C1016 C1015 1.524 . S
C1017 C1014 1.403 . S
C1017 C1018 1.392 . S
C1017 C1021 1.495 . S
C1018 C1017 1.392 . S
C1018 C1019 1.385 . S
C1018 C1020 1.478 . S
C1019 H1013 0.930 . S
C1019 C1015 1.400 . S
C1019 C1018 1.385 . S
C1020 C1018 1.478 . S
C1020 C1022 1.381 . S
C1020 C1026 1.383 . S
C1021 C1017 1.495 . S
C1021 H1027 0.959 . S
C1021 H1028 0.961 . S
C1021 H1029 0.960 . S
C1022 C1020 1.381 . S
C1022 C1023 1.394 . S
C1022 H1030 0.930 . S
C1023 C1022 1.394 . S
C1023 C1024 1.383 . S
C1023 H1031 0.929 . S
C1024 C1023 1.383 . S
C1024 C1025 1.377 . S
C1025 H1009 0.930 . S
C1025 C1024 1.377 . S
C1025 C1026 1.379 . S
C1026 H1010 0.931 . S
C1026 C1020 1.383 . S
C1026 C1025 1.379 . S
H1027 C1021 0.959 . S
H1028 C1021 0.961 . S
H1029 C1021 0.960 . S
H1030 C1022 0.930 . S
H1031 C1023 0.929 . S
H1032 C1040 0.929 . S
H1033 C1042 0.930 . S
H1034 C1044 0.930 . S
H1035 C1047 0.929 . S
H1036 C1050 0.930 . S
H1037 C1052 0.960 . S
H1038 C1052 0.960 . S
H1039 C1052 0.960 . S
C1040 H1032 0.929 . S
C1040 C1041 1.377 . S
C1040 C1042 1.384 . S
C1041 C1040 1.377 . S
C1041 C1047 1.390 . S
C1042 H1033 0.930 . S
C1042 C1040 1.384 . S
C1042 C1043 1.372 . S
C1043 C1042 1.372 . S
C1043 C1044 1.400 . S
C1043 C1048 1.490 . S
C1044 H1034 0.930 . S
C1044 C1043 1.400 . S
C1044 C1047 1.386 . S
H1045 C1061 0.930 . S
H1046 C1062 0.931 . S
C1047 H1035 0.929 . S
C1047 C1041 1.390 . S
C1047 C1044 1.386 . S
C1048 C1043 1.490 . S
C1048 C1050 1.395 . S
C1048 C1051 1.403 . S
H1049 C1055 0.930 . S
C1050 H1036 0.930 . S
C1050 C1048 1.395 . S
C1050 C1053 1.403 . S
C1051 C1048 1.403 . S
C1051 C1052 1.524 . S
C1051 C1055 1.400 . S
C1052 H1037 0.960 . S
C1052 H1038 0.960 . S
C1052 H1039 0.960 . S
C1052 C1051 1.524 . S
C1053 C1050 1.403 . S
C1053 C1054 1.392 . S
C1053 C1057 1.495 . S
C1054 C1053 1.392 . S
C1054 C1055 1.385 . S
C1054 C1056 1.478 . S
C1055 H1049 0.930 . S
C1055 C1051 1.400 . S
C1055 C1054 1.385 . S
C1056 C1054 1.478 . S
C1056 C1058 1.381 . S
C1056 C1062 1.383 . S
C1057 C1053 1.495 . S
C1057 H1063 0.959 . S
C1057 H1064 0.961 . S
C1057 H1065 0.960 . S
C1058 C1056 1.381 . S
C1058 C1059 1.394 . S
C1058 H1066 0.930 . S
C1059 C1058 1.394 . S
C1059 C1060 1.383 . S
C1059 H1067 0.929 . S
C1060 C1059 1.383 . S
C1060 C1061 1.377 . S
C1061 H1045 0.930 . S
C1061 C1060 1.377 . S
C1061 C1062 1.379 . S
C1062 H1046 0.931 . S
C1062 C1056 1.383 . S
C1062 C1061 1.379 . S
H1063 C1057 0.959 . S
H1064 C1057 0.961 . S
H1065 C1057 0.960 . S
H1066 C1058 0.930 . S
H1067 C1059 0.929 . S
H1068 C1076 0.929 . S
H1069 C1078 0.930 . S
H1070 C1080 0.930 . S
H1071 C1083 0.929 . S
H1072 C1086 0.930 . S
H1073 C1088 0.960 . S
H1074 C1088 0.960 . S
H1075 C1088 0.960 . S
C1076 H1068 0.929 . S
C1076 C1077 1.377 . S
C1076 C1078 1.384 . S
C1077 C1076 1.377 . S
C1077 C1083 1.390 . S
C1078 H1069 0.930 . S
C1078 C1076 1.384 . S
C1078 C1079 1.372 . S
C1079 C1078 1.372 . S
C1079 C1080 1.400 . S
C1079 C1084 1.490 . S
C1080 H1070 0.930 . S
C1080 C1079 1.400 . S
C1080 C1083 1.386 . S
H1081 C1097 0.930 . S
H1082 C1098 0.931 . S
C1083 H1071 0.929 . S
C1083 C1077 1.390 . S
C1083 C1080 1.386 . S
C1084 C1079 1.490 . S
C1084 C1086 1.395 . S
C1084 C1087 1.403 . S
H1085 C1091 0.930 . S
C1086 H1072 0.930 . S
C1086 C1084 1.395 . S
C1086 C1089 1.403 . S
C1087 C1084 1.403 . S
C1087 C1088 1.524 . S
C1087 C1091 1.400 . S
C1088 H1073 0.960 . S
C1088 H1074 0.960 . S
C1088 H1075 0.960 . S
C1088 C1087 1.524 . S
C1089 C1086 1.403 . S
C1089 C1090 1.392 . S
C1089 C1093 1.495 . S
C1090 C1089 1.392 . S
C1090 C1091 1.385 . S
C1090 C1092 1.478 . S
C1091 H1085 0.930 . S
C1091 C1087 1.400 . S
C1091 C1090 1.385 . S
C1092 C1090 1.478 . S
C1092 C1094 1.381 . S
C1092 C1098 1.383 . S
C1093 C1089 1.495 . S
C1093 H1099 0.959 . S
C1093 H1100 0.961 . S
C1093 H1101 0.960 . S
C1094 C1092 1.381 . S
C1094 C1095 1.394 . S
C1094 H1102 0.930 . S
C1095 C1094 1.394 . S
C1095 C1096 1.383 . S
C1095 H1103 0.929 . S
C1096 C1095 1.383 . S
C1096 C1097 1.377 . S
C1097 H1081 0.930 . S
C1097 C1096 1.377 . S
C1097 C1098 1.379 . S
C1098 H1082 0.931 . S
C1098 C1092 1.383 . S
C1098 C1097 1.379 . S
H1099 C1093 0.959 . S
H1100 C1093 0.961 . S
H1101 C1093 0.960 . S
H1102 C1094 0.930 . S
H1103 C1095 0.929 . S
H1104 C1112 0.929 . S
H1105 C1114 0.930 . S
H1106 C1116 0.930 . S
H1107 C1119 0.929 . S
H1108 C1122 0.930 . S
H1109 C1124 0.960 . S
H1110 C1124 0.960 . S
H1111 C1124 0.960 . S
C1112 H1104 0.929 . S
C1112 C1113 1.377 . S
C1112 C1114 1.384 . S
C1113 C1112 1.377 . S
C1113 C1119 1.390 . S
C1114 H1105 0.930 . S
C1114 C1112 1.384 . S
C1114 C1115 1.372 . S
C1115 C1114 1.372 . S
C1115 C1116 1.400 . S
C1115 C1120 1.490 . S
C1116 H1106 0.930 . S
C1116 C1115 1.400 . S
C1116 C1119 1.386 . S
H1117 C1133 0.930 . S
H1118 C1134 0.931 . S
C1119 H1107 0.929 . S
C1119 C1113 1.390 . S
C1119 C1116 1.386 . S
C1120 C1115 1.490 . S
C1120 C1122 1.395 . S
C1120 C1123 1.403 . S
H1121 C1127 0.930 . S
C1122 H1108 0.930 . S
C1122 C1120 1.395 . S
C1122 C1125 1.403 . S
C1123 C1120 1.403 . S
C1123 C1124 1.524 . S
C1123 C1127 1.400 . S
C1124 H1109 0.960 . S
C1124 H1110 0.960 . S
C1124 H1111 0.960 . S
C1124 C1123 1.524 . S
C1125 C1122 1.403 . S
C1125 C1126 1.392 . S
C1125 C1129 1.495 . S
C1126 C1125 1.392 . S
C1126 C1127 1.385 . S
C1126 C1128 1.478 . S
C1127 H1121 0.930 . S
C1127 C1123 1.400 . S
C1127 C1126 1.385 . S
C1128 C1126 1.478 . S
C1128 C1130 1.381 . S
C1128 C1134 1.383 . S
C1129 C1125 1.495 . S
C1129 H1135 0.959 . S
C1129 H1136 0.961 . S
C1129 H1137 0.960 . S
C1130 C1128 1.381 . S
C1130 C1131 1.394 . S
C1130 H1138 0.930 . S
C1131 C1130 1.394 . S
C1131 C1132 1.383 . S
C1131 H1139 0.929 . S
C1132 C1131 1.383 . S
C1132 C1133 1.377 . S
C1133 H1117 0.930 . S
C1133 C1132 1.377 . S
C1133 C1134 1.379 . S
C1134 H1118 0.931 . S
C1134 C1128 1.383 . S
C1134 C1133 1.379 . S
H1135 C1129 0.959 . S
H1136 C1129 0.961 . S
H1137 C1129 0.960 . S
H1138 C1130 0.930 . S
H1139 C1131 0.929 . S
H1140 C1148 0.929 . S
H1141 C1150 0.930 . S
H1142 C1152 0.930 . S
H1143 C1155 0.929 . S
H1144 C1158 0.930 . S
H1145 C1160 0.960 . S
H1146 C1160 0.960 . S
H1147 C1160 0.960 . S
C1148 H1140 0.929 . S
C1148 C1149 1.377 . S
C1148 C1150 1.384 . S
C1149 C1148 1.377 . S
C1149 C1155 1.390 . S
C1150 H1141 0.930 . S
C1150 C1148 1.384 . S
C1150 C1151 1.372 . S
C1151 C1150 1.372 . S
C1151 C1152 1.400 . S
C1151 C1156 1.490 . S
C1152 H1142 0.930 . S
C1152 C1151 1.400 . S
C1152 C1155 1.386 . S
H1153 C1169 0.930 . S
H1154 C1170 0.931 . S
C1155 H1143 0.929 . S
C1155 C1149 1.390 . S
C1155 C1152 1.386 . S
C1156 C1151 1.490 . S
C1156 C1158 1.395 . S
C1156 C1159 1.403 . S
H1157 C1163 0.930 . S
C1158 H1144 0.930 . S
C1158 C1156 1.395 . S
C1158 C1161 1.403 . S
C1159 C1156 1.403 . S
C1159 C1160 1.524 . S
C1159 C1163 1.400 . S
C1160 H1145 0.960 . S
C1160 H1146 0.960 . S
C1160 H1147 0.960 . S
C1160 C1159 1.524 . S
C1161 C1158 1.403 . S
C1161 C1162 1.392 . S
C1161 C1165 1.495 . S
C1162 C1161 1.392 . S
C1162 C1163 1.385 . S
C1162 C1164 1.478 . S
C1163 H1157 0.930 . S
C1163 C1159 1.400 . S
C1163 C1162 1.385 . S
C1164 C1162 1.478 . S
C1164 C1166 1.381 . S
C1164 C1170 1.383 . S
C1165 C1161 1.495 . S
C1165 H1171 0.959 . S
C1165 H1172 0.961 . S
C1165 H1173 0.960 . S
C1166 C1164 1.381 . S
C1166 C1167 1.394 . S
C1166 H1174 0.930 . S
C1167 C1166 1.394 . S
C1167 C1168 1.383 . S
C1167 H1175 0.929 . S
C1168 C1167 1.383 . S
C1168 C1169 1.377 . S
C1169 H1153 0.930 . S
C1169 C1168 1.377 . S
C1169 C1170 1.379 . S
C1170 H1154 0.931 . S
C1170 C1164 1.383 . S
C1170 C1169 1.379 . S
H1171 C1165 0.959 . S
H1172 C1165 0.961 . S
H1173 C1165 0.960 . S
H1174 C1166 0.930 . S
H1175 C1167 0.929 . S
H1176 C1184 0.929 . S
H1177 C1186 0.930 . S
H1178 C1188 0.930 . S
H1179 C1191 0.929 . S
H1180 C1194 0.930 . S
H1181 C1196 0.960 . S
H1182 C1196 0.960 . S
H1183 C1196 0.960 . S
C1184 H1176 0.929 . S
C1184 C1185 1.377 . S
C1184 C1186 1.384 . S
C1185 C1184 1.377 . S
C1185 C1191 1.390 . S
C1186 H1177 0.930 . S
C1186 C1184 1.384 . S
C1186 C1187 1.372 . S
C1187 C1186 1.372 . S
C1187 C1188 1.400 . S
C1187 C1192 1.490 . S
C1188 H1178 0.930 . S
C1188 C1187 1.400 . S
C1188 C1191 1.386 . S
H1189 C1205 0.930 . S
H1190 C1206 0.931 . S
C1191 H1179 0.929 . S
C1191 C1185 1.390 . S
C1191 C1188 1.386 . S
C1192 C1187 1.490 . S
C1192 C1194 1.395 . S
C1192 C1195 1.403 . S
H1193 C1199 0.930 . S
C1194 H1180 0.930 . S
C1194 C1192 1.395 . S
C1194 C1197 1.403 . S
C1195 C1192 1.403 . S
C1195 C1196 1.524 . S
C1195 C1199 1.400 . S
C1196 H1181 0.960 . S
C1196 H1182 0.960 . S
C1196 H1183 0.960 . S
C1196 C1195 1.524 . S
C1197 C1194 1.403 . S
C1197 C1198 1.392 . S
C1197 C1201 1.495 . S
C1198 C1197 1.392 . S
C1198 C1199 1.385 . S
C1198 C1200 1.478 . S
C1199 H1193 0.930 . S
C1199 C1195 1.400 . S
C1199 C1198 1.385 . S
C1200 C1198 1.478 . S
C1200 C1202 1.381 . S
C1200 C1206 1.383 . S
C1201 C1197 1.495 . S
C1201 H1207 0.959 . S
C1201 H1208 0.961 . S
C1201 H1209 0.960 . S
C1202 C1200 1.381 . S
C1202 C1203 1.394 . S
C1202 H1210 0.930 . S
C1203 C1202 1.394 . S
C1203 C1204 1.383 . S
C1203 H1211 0.929 . S
C1204 C1203 1.383 . S
C1204 C1205 1.377 . S
C1205 H1189 0.930 . S
C1205 C1204 1.377 . S
C1205 C1206 1.379 . S
C1206 H1190 0.931 . S
C1206 C1200 1.383 . S
C1206 C1205 1.379 . S
H1207 C1201 0.959 . S
H1208 C1201 0.961 . S
H1209 C1201 0.960 . S
H1210 C1202 0.930 . S
H1211 C1203 0.929 . S
H1212 C1220 0.929 . S
H1213 C1222 0.930 . S
H1214 C1224 0.930 . S
H1215 C1227 0.929 . S
H1216 C1230 0.930 . S
H1217 C1232 0.960 . S
H1218 C1232 0.960 . S
H1219 C1232 0.960 . S
C1220 H1212 0.929 . S
C1220 C1221 1.377 . S
C1220 C1222 1.384 . S
C1221 C1220 1.377 . S
C1221 C1227 1.390 . S
C1222 H1213 0.930 . S
C1222 C1220 1.384 . S
C1222 C1223 1.372 . S
C1223 C1222 1.372 . S
C1223 C1224 1.400 . S
C1223 C1228 1.490 . S
C1224 H1214 0.930 . S
C1224 C1223 1.400 . S
C1224 C1227 1.386 . S
H1225 C1241 0.930 . S
H1226 C1242 0.931 . S
C1227 H1215 0.929 . S
C1227 C1221 1.390 . S
C1227 C1224 1.386 . S
C1228 C1223 1.490 . S
C1228 C1230 1.395 . S
C1228 C1231 1.403 . S
H1229 C1235 0.930 . S
C1230 H1216 0.930 . S
C1230 C1228 1.395 . S
C1230 C1233 1.403 . S
C1231 C1228 1.403 . S
C1231 C1232 1.524 . S
C1231 C1235 1.400 . S
C1232 H1217 0.960 . S
C1232 H1218 0.960 . S
C1232 H1219 0.960 . S
C1232 C1231 1.524 . S
C1233 C1230 1.403 . S
C1233 C1234 1.392 . S
C1233 C1237 1.495 . S
C1234 C1233 1.392 . S
C1234 C1235 1.385 . S
C1234 C1236 1.478 . S
C1235 H1229 0.930 . S
C1235 C1231 1.400 . S
C1235 C1234 1.385 . S
C1236 C1234 1.478 . S
C1236 C1238 1.381 . S
C1236 C1242 1.383 . S
C1237 C1233 1.495 . S
C1237 H1243 0.959 . S
C1237 H1244 0.961 . S
C1237 H1245 0.960 . S
C1238 C1236 1.381 . S
C1238 C1239 1.394 . S
C1238 H1246 0.930 . S
C1239 C1238 1.394 . S
C1239 C1240 1.383 . S
C1239 H1247 0.929 . S
C1240 C1239 1.383 . S
C1240 C1241 1.377 . S
C1241 H1225 0.930 . S
C1241 C1240 1.377 . S
C1241 C1242 1.379 . S
C1242 H1226 0.931 . S
C1242 C1236 1.383 . S
C1242 C1241 1.379 . S
H1243 C1237 0.959 . S
H1244 C1237 0.961 . S
H1245 C1237 0.960 . S
H1246 C1238 0.930 . S
H1247 C1239 0.929 . S
H1248 C1256 0.929 . S
H1249 C1258 0.930 . S
H1250 C1260 0.930 . S
H1251 C1263 0.929 . S
H1252 C1266 0.930 . S
H1253 C1268 0.960 . S
H1254 C1268 0.960 . S
H1255 C1268 0.960 . S
C1256 H1248 0.929 . S
C1256 C1257 1.377 . S
C1256 C1258 1.384 . S
C1257 C1256 1.377 . S
C1257 C1263 1.390 . S
C1258 H1249 0.930 . S
C1258 C1256 1.384 . S
C1258 C1259 1.372 . S
C1259 C1258 1.372 . S
C1259 C1260 1.400 . S
C1259 C1264 1.490 . S
C1260 H1250 0.930 . S
C1260 C1259 1.400 . S
C1260 C1263 1.386 . S
H1261 C1277 0.930 . S
H1262 C1278 0.931 . S
C1263 H1251 0.929 . S
C1263 C1257 1.390 . S
C1263 C1260 1.386 . S
C1264 C1259 1.490 . S
C1264 C1266 1.395 . S
C1264 C1267 1.403 . S
H1265 C1271 0.930 . S
C1266 H1252 0.930 . S
C1266 C1264 1.395 . S
C1266 C1269 1.403 . S
C1267 C1264 1.403 . S
C1267 C1268 1.524 . S
C1267 C1271 1.400 . S
C1268 H1253 0.960 . S
C1268 H1254 0.960 . S
C1268 H1255 0.960 . S
C1268 C1267 1.524 . S
C1269 C1266 1.403 . S
C1269 C1270 1.392 . S
C1269 C1273 1.495 . S
C1270 C1269 1.392 . S
C1270 C1271 1.385 . S
C1270 C1272 1.478 . S
C1271 H1265 0.930 . S
C1271 C1267 1.400 . S
C1271 C1270 1.385 . S
C1272 C1270 1.478 . S
C1272 C1274 1.381 . S
C1272 C1278 1.383 . S
C1273 C1269 1.495 . S
C1273 H1279 0.959 . S
C1273 H1280 0.961 . S
C1273 H1281 0.960 . S
C1274 C1272 1.381 . S
C1274 C1275 1.394 . S
C1274 H1282 0.930 . S
C1275 C1274 1.394 . S
C1275 C1276 1.383 . S
C1275 H1283 0.929 . S
C1276 C1275 1.383 . S
C1276 C1277 1.377 . S
C1277 H1261 0.930 . S
C1277 C1276 1.377 . S
C1277 C1278 1.379 . S
C1278 H1262 0.931 . S
C1278 C1272 1.383 . S
C1278 C1277 1.379 . S
H1279 C1273 0.959 . S
H1280 C1273 0.961 . S
H1281 C1273 0.960 . S
H1282 C1274 0.930 . S
H1283 C1275 0.929 . S
H1284 C1292 0.929 . S
H1285 C1294 0.930 . S
H1286 C1296 0.930 . S
H1287 C1299 0.929 . S
H1288 C1302 0.930 . S
H1289 C1304 0.960 . S
H1290 C1304 0.960 . S
H1291 C1304 0.960 . S
C1292 H1284 0.929 . S
C1292 C1293 1.377 . S
C1292 C1294 1.384 . S
C1293 C1292 1.377 . S
C1293 C1299 1.390 . S
C1294 H1285 0.930 . S
C1294 C1292 1.384 . S
C1294 C1295 1.372 . S
C1295 C1294 1.372 . S
C1295 C1296 1.400 . S
C1295 C1300 1.490 . S
C1296 H1286 0.930 . S
C1296 C1295 1.400 . S
C1296 C1299 1.386 . S
H1297 C1313 0.930 . S
H1298 C1314 0.931 . S
C1299 H1287 0.929 . S
C1299 C1293 1.390 . S
C1299 C1296 1.386 . S
C1300 C1295 1.490 . S
C1300 C1302 1.395 . S
C1300 C1303 1.403 . S
H1301 C1307 0.930 . S
C1302 H1288 0.930 . S
C1302 C1300 1.395 . S
C1302 C1305 1.403 . S
C1303 C1300 1.403 . S
C1303 C1304 1.524 . S
C1303 C1307 1.400 . S
C1304 H1289 0.960 . S
C1304 H1290 0.960 . S
C1304 H1291 0.960 . S
C1304 C1303 1.524 . S
C1305 C1302 1.403 . S
C1305 C1306 1.392 . S
C1305 C1309 1.495 . S
C1306 C1305 1.392 . S
C1306 C1307 1.385 . S
C1306 C1308 1.478 . S
C1307 H1301 0.930 . S
C1307 C1303 1.400 . S
C1307 C1306 1.385 . S
C1308 C1306 1.478 . S
C1308 C1310 1.381 . S
C1308 C1314 1.383 . S
C1309 C1305 1.495 . S
C1309 H1315 0.959 . S
C1309 H1316 0.961 . S
C1309 H1317 0.960 . S
C1310 C1308 1.381 . S
C1310 C1311 1.394 . S
C1310 H1318 0.930 . S
C1311 C1310 1.394 . S
C1311 C1312 1.383 . S
C1311 H1319 0.929 . S
C1312 C1311 1.383 . S
C1312 C1313 1.377 . S
C1313 H1297 0.930 . S
C1313 C1312 1.377 . S
C1313 C1314 1.379 . S
C1314 H1298 0.931 . S
C1314 C1308 1.383 . S
C1314 C1313 1.379 . S
H1315 C1309 0.959 . S
H1316 C1309 0.961 . S
H1317 C1309 0.960 . S
H1318 C1310 0.930 . S
H1319 C1311 0.929 . S
H1320 C1328 0.929 . S
H1321 C1330 0.930 . S
H1322 C1332 0.930 . S
H1323 C1335 0.929 . S
H1324 C1338 0.930 . S
H1325 C1340 0.960 . S
H1326 C1340 0.960 . S
H1327 C1340 0.960 . S
C1328 H1320 0.929 . S
C1328 C1329 1.377 . S
C1328 C1330 1.384 . S
C1329 C1328 1.377 . S
C1329 C1335 1.390 . S
C1330 H1321 0.930 . S
C1330 C1328 1.384 . S
C1330 C1331 1.372 . S
C1331 C1330 1.372 . S
C1331 C1332 1.400 . S
C1331 C1336 1.490 . S
C1332 H1322 0.930 . S
C1332 C1331 1.400 . S
C1332 C1335 1.386 . S
H1333 C1349 0.930 . S
H1334 C1350 0.931 . S
C1335 H1323 0.929 . S
C1335 C1329 1.390 . S
C1335 C1332 1.386 . S
C1336 C1331 1.490 . S
C1336 C1338 1.395 . S
C1336 C1339 1.403 . S
H1337 C1343 0.930 . S
C1338 H1324 0.930 . S
C1338 C1336 1.395 . S
C1338 C1341 1.403 . S
C1339 C1336 1.403 . S
C1339 C1340 1.524 . S
C1339 C1343 1.400 . S
C1340 H1325 0.960 . S
C1340 H1326 0.960 . S
C1340 H1327 0.960 . S
C1340 C1339 1.524 . S
C1341 C1338 1.403 . S
C1341 C1342 1.392 . S
C1341 C1345 1.495 . S
C1342 C1341 1.392 . S
C1342 C1343 1.385 . S
C1342 C1344 1.478 . S
C1343 H1337 0.930 . S
C1343 C1339 1.400 . S
C1343 C1342 1.385 . S
C1344 C1342 1.478 . S
C1344 C1346 1.381 . S
C1344 C1350 1.383 . S
C1345 C1341 1.495 . S
C1345 H1351 0.959 . S
C1345 H1352 0.961 . S
C1345 H1353 0.960 . S
C1346 C1344 1.381 . S
C1346 C1347 1.394 . S
C1346 H1354 0.930 . S
C1347 C1346 1.394 . S
C1347 C1348 1.383 . S
C1347 H1355 0.929 . S
C1348 C1347 1.383 . S
C1348 C1349 1.377 . S
C1349 H1333 0.930 . S
C1349 C1348 1.377 . S
C1349 C1350 1.379 . S
C1350 H1334 0.931 . S
C1350 C1344 1.383 . S
C1350 C1349 1.379 . S
H1351 C1345 0.959 . S
H1352 C1345 0.961 . S
H1353 C1345 0.960 . S
H1354 C1346 0.930 . S
H1355 C1347 0.929 . S
H1356 C1364 0.929 . S
H1357 C1366 0.930 . S
H1358 C1368 0.930 . S
H1359 C1371 0.929 . S
H1360 C1374 0.930 . S
H1361 C1376 0.960 . S
H1362 C1376 0.960 . S
H1363 C1376 0.960 . S
C1364 H1356 0.929 . S
C1364 C1365 1.377 . S
C1364 C1366 1.384 . S
C1365 C1364 1.377 . S
C1365 C1371 1.390 . S
C1366 H1357 0.930 . S
C1366 C1364 1.384 . S
C1366 C1367 1.372 . S
C1367 C1366 1.372 . S
C1367 C1368 1.400 . S
C1367 C1372 1.490 . S
C1368 H1358 0.930 . S
C1368 C1367 1.400 . S
C1368 C1371 1.386 . S
H1369 C1385 0.930 . S
H1370 C1386 0.931 . S
C1371 H1359 0.929 . S
C1371 C1365 1.390 . S
C1371 C1368 1.386 . S
C1372 C1367 1.490 . S
C1372 C1374 1.395 . S
C1372 C1375 1.403 . S
H1373 C1379 0.930 . S
C1374 H1360 0.930 . S
C1374 C1372 1.395 . S
C1374 C1377 1.403 . S
C1375 C1372 1.403 . S
C1375 C1376 1.524 . S
C1375 C1379 1.400 . S
C1376 H1361 0.960 . S
C1376 H1362 0.960 . S
C1376 H1363 0.960 . S
C1376 C1375 1.524 . S
C1377 C1374 1.403 . S
C1377 C1378 1.392 . S
C1377 C1381 1.495 . S
C1378 C1377 1.392 . S
C1378 C1379 1.385 . S
C1378 C1380 1.478 . S
C1379 H1373 0.930 . S
C1379 C1375 1.400 . S
C1379 C1378 1.385 . S
C1380 C1378 1.478 . S
C1380 C1382 1.381 . S
C1380 C1386 1.383 . S
C1381 C1377 1.495 . S
C1381 H1387 0.959 . S
C1381 H1388 0.961 . S
C1381 H1389 0.960 . S
C1382 C1380 1.381 . S
C1382 C1383 1.394 . S
C1382 H1390 0.930 . S
C1383 C1382 1.394 . S
C1383 C1384 1.383 . S
C1383 H1391 0.929 . S
C1384 C1383 1.383 . S
C1384 C1385 1.377 . S
C1385 H1369 0.930 . S
C1385 C1384 1.377 . S
C1385 C1386 1.379 . S
C1386 H1370 0.931 . S
C1386 C1380 1.383 . S
C1386 C1385 1.379 . S
H1387 C1381 0.959 . S
H1388 C1381 0.961 . S
H1389 C1381 0.960 . S
H1390 C1382 0.930 . S
H1391 C1383 0.929 . S
H1392 C1400 0.929 . S
H1393 C1402 0.930 . S
H1394 C1404 0.930 . S
H1395 C1407 0.929 . S
H1396 C1410 0.930 . S
H1397 C1412 0.960 . S
H1398 C1412 0.960 . S
H1399 C1412 0.960 . S
C1400 H1392 0.929 . S
C1400 C1401 1.377 . S
C1400 C1402 1.384 . S
C1401 C1400 1.377 . S
C1401 C1407 1.390 . S
C1402 H1393 0.930 . S
C1402 C1400 1.384 . S
C1402 C1403 1.372 . S
C1403 C1402 1.372 . S
C1403 C1404 1.400 . S
C1403 C1408 1.490 . S
C1404 H1394 0.930 . S
C1404 C1403 1.400 . S
C1404 C1407 1.386 . S
H1405 C1421 0.930 . S
H1406 C1422 0.931 . S
C1407 H1395 0.929 . S
C1407 C1401 1.390 . S
C1407 C1404 1.386 . S
C1408 C1403 1.490 . S
C1408 C1410 1.395 . S
C1408 C1411 1.403 . S
H1409 C1415 0.930 . S
C1410 H1396 0.930 . S
C1410 C1408 1.395 . S
C1410 C1413 1.403 . S
C1411 C1408 1.403 . S
C1411 C1412 1.524 . S
C1411 C1415 1.400 . S
C1412 H1397 0.960 . S
C1412 H1398 0.960 . S
C1412 H1399 0.960 . S
C1412 C1411 1.524 . S
C1413 C1410 1.403 . S
C1413 C1414 1.392 . S
C1413 C1417 1.495 . S
C1414 C1413 1.392 . S
C1414 C1415 1.385 . S
C1414 C1416 1.478 . S
C1415 H1409 0.930 . S
C1415 C1411 1.400 . S
C1415 C1414 1.385 . S
C1416 C1414 1.478 . S
C1416 C1418 1.381 . S
C1416 C1422 1.383 . S
C1417 C1413 1.495 . S
C1417 H1423 0.959 . S
C1417 H1424 0.961 . S
C1417 H1425 0.960 . S
C1418 C1416 1.381 . S
C1418 C1419 1.394 . S
C1418 H1426 0.930 . S
C1419 C1418 1.394 . S
C1419 C1420 1.383 . S
C1419 H1427 0.929 . S
C1420 C1419 1.383 . S
C1420 C1421 1.377 . S
C1421 H1405 0.930 . S
C1421 C1420 1.377 . S
C1421 C1422 1.379 . S
C1422 H1406 0.931 . S
C1422 C1416 1.383 . S
C1422 C1421 1.379 . S
H1423 C1417 0.959 . S
H1424 C1417 0.961 . S
H1425 C1417 0.960 . S
H1426 C1418 0.930 . S
H1427 C1419 0.929 . S
H1428 C1436 0.929 . S
H1429 C1438 0.930 . S
H1430 C1440 0.930 . S
H1431 C1443 0.929 . S
H1432 C1446 0.930 . S
H1433 C1448 0.960 . S
H1434 C1448 0.960 . S
H1435 C1448 0.960 . S
C1436 H1428 0.929 . S
C1436 C1437 1.377 . S
C1436 C1438 1.384 . S
C1437 C1436 1.377 . S
C1437 C1443 1.390 . S
C1438 H1429 0.930 . S
C1438 C1436 1.384 . S
C1438 C1439 1.372 . S
C1439 C1438 1.372 . S
C1439 C1440 1.400 . S
C1439 C1444 1.490 . S
C1440 H1430 0.930 . S
C1440 C1439 1.400 . S
C1440 C1443 1.386 . S
H1441 C1457 0.930 . S
H1442 C1458 0.931 . S
C1443 H1431 0.929 . S
C1443 C1437 1.390 . S
C1443 C1440 1.386 . S
C1444 C1439 1.490 . S
C1444 C1446 1.395 . S
C1444 C1447 1.403 . S
H1445 C1451 0.930 . S
C1446 H1432 0.930 . S
C1446 C1444 1.395 . S
C1446 C1449 1.403 . S
C1447 C1444 1.403 . S
C1447 C1448 1.524 . S
C1447 C1451 1.400 . S
C1448 H1433 0.960 . S
C1448 H1434 0.960 . S
C1448 H1435 0.960 . S
C1448 C1447 1.524 . S
C1449 C1446 1.403 . S
C1449 C1450 1.392 . S
C1449 C1453 1.495 . S
C1450 C1449 1.392 . S
C1450 C1451 1.385 . S
C1450 C1452 1.478 . S
C1451 H1445 0.930 . S
C1451 C1447 1.400 . S
C1451 C1450 1.385 . S
C1452 C1450 1.478 . S
C1452 C1454 1.381 . S
C1452 C1458 1.383 . S
C1453 C1449 1.495 . S
C1453 H1459 0.959 . S
C1453 H1460 0.961 . S
C1453 H1461 0.960 . S
C1454 C1452 1.381 . S
C1454 C1455 1.394 . S
C1454 H1462 0.930 . S
C1455 C1454 1.394 . S
C1455 C1456 1.383 . S
C1455 H1463 0.929 . S
C1456 C1455 1.383 . S
C1456 C1457 1.377 . S
C1457 H1441 0.930 . S
C1457 C1456 1.377 . S
C1457 C1458 1.379 . S
C1458 H1442 0.931 . S
C1458 C1452 1.383 . S
C1458 C1457 1.379 . S
H1459 C1453 0.959 . S
H1460 C1453 0.961 . S
H1461 C1453 0.960 . S
H1462 C1454 0.930 . S
H1463 C1455 0.929 . S
H1464 C1472 0.929 . S
H1465 C1474 0.930 . S
H1466 C1476 0.930 . S
H1467 C1479 0.929 . S
H1468 C1482 0.930 . S
H1469 C1484 0.960 . S
H1470 C1484 0.960 . S
H1471 C1484 0.960 . S
C1472 H1464 0.929 . S
C1472 C1473 1.377 . S
C1472 C1474 1.384 . S
C1473 C1472 1.377 . S
C1473 C1479 1.390 . S
C1474 H1465 0.930 . S
C1474 C1472 1.384 . S
C1474 C1475 1.372 . S
C1475 C1474 1.372 . S
C1475 C1476 1.400 . S
C1475 C1480 1.490 . S
C1476 H1466 0.930 . S
C1476 C1475 1.400 . S
C1476 C1479 1.386 . S
H1477 C1493 0.930 . S
H1478 C1494 0.931 . S
C1479 H1467 0.929 . S
C1479 C1473 1.390 . S
C1479 C1476 1.386 . S
C1480 C1475 1.490 . S
C1480 C1482 1.395 . S
C1480 C1483 1.403 . S
H1481 C1487 0.930 . S
C1482 H1468 0.930 . S
C1482 C1480 1.395 . S
C1482 C1485 1.403 . S
C1483 C1480 1.403 . S
C1483 C1484 1.524 . S
C1483 C1487 1.400 . S
C1484 H1469 0.960 . S
C1484 H1470 0.960 . S
C1484 H1471 0.960 . S
C1484 C1483 1.524 . S
C1485 C1482 1.403 . S
C1485 C1486 1.392 . S
C1485 C1489 1.495 . S
C1486 C1485 1.392 . S
C1486 C1487 1.385 . S
C1486 C1488 1.478 . S
C1487 H1481 0.930 . S
C1487 C1483 1.400 . S
C1487 C1486 1.385 . S
C1488 C1486 1.478 . S
C1488 C1490 1.381 . S
C1488 C1494 1.383 . S
C1489 C1485 1.495 . S
C1489 H1495 0.959 . S
C1489 H1496 0.961 . S
C1489 H1497 0.960 . S
C1490 C1488 1.381 . S
C1490 C1491 1.394 . S
C1490 H1498 0.930 . S
C1491 C1490 1.394 . S
C1491 C1492 1.383 . S
C1491 H1499 0.929 . S
C1492 C1491 1.383 . S
C1492 C1493 1.377 . S
C1493 H1477 0.930 . S
C1493 C1492 1.377 . S
C1493 C1494 1.379 . S
C1494 H1478 0.931 . S
C1494 C1488 1.383 . S
C1494 C1493 1.379 . S
H1495 C1489 0.959 . S
H1496 C1489 0.961 . S
H1497 C1489 0.960 . S
H1498 C1490 0.930 . S
H1499 C1491 0.929 . S
H1500 C1508 0.929 . S
H1501 C1510 0.930 . S
H1502 C1512 0.930 . S
H1503 C1515 0.929 . S
H1504 C1518 0.930 . S
H1505 C1520 0.960 . S
H1506 C1520 0.960 . S
H1507 C1520 0.960 . S
C1508 H1500 0.929 . S
C1508 C1509 1.377 . S
C1508 C1510 1.384 . S
C1509 C1508 1.377 . S
C1509 C1515 1.390 . S
C1510 H1501 0.930 . S
C1510 C1508 1.384 . S
C1510 C1511 1.372 . S
C1511 C1510 1.372 . S
C1511 C1512 1.400 . S
C1511 C1516 1.490 . S
C1512 H1502 0.930 . S
C1512 C1511 1.400 . S
C1512 C1515 1.386 . S
H1513 C1529 0.930 . S
H1514 C1530 0.931 . S
C1515 H1503 0.929 . S
C1515 C1509 1.390 . S
C1515 C1512 1.386 . S
C1516 C1511 1.490 . S
C1516 C1518 1.395 . S
C1516 C1519 1.403 . S
H1517 C1523 0.930 . S
C1518 H1504 0.930 . S
C1518 C1516 1.395 . S
C1518 C1521 1.403 . S
C1519 C1516 1.403 . S
C1519 C1520 1.524 . S
C1519 C1523 1.400 . S
C1520 H1505 0.960 . S
C1520 H1506 0.960 . S
C1520 H1507 0.960 . S
C1520 C1519 1.524 . S
C1521 C1518 1.403 . S
C1521 C1522 1.392 . S
C1521 C1525 1.495 . S
C1522 C1521 1.392 . S
C1522 C1523 1.385 . S
C1522 C1524 1.478 . S
C1523 H1517 0.930 . S
C1523 C1519 1.400 . S
C1523 C1522 1.385 . S
C1524 C1522 1.478 . S
C1524 C1526 1.381 . S
C1524 C1530 1.383 . S
C1525 C1521 1.495 . S
C1525 H1531 0.959 . S
C1525 H1532 0.961 . S
C1525 H1533 0.960 . S
C1526 C1524 1.381 . S
C1526 C1527 1.394 . S
C1526 H1534 0.930 . S
C1527 C1526 1.394 . S
C1527 C1528 1.383 . S
C1527 H1535 0.929 . S
C1528 C1527 1.383 . S
C1528 C1529 1.377 . S
C1529 H1513 0.930 . S
C1529 C1528 1.377 . S
C1529 C1530 1.379 . S
C1530 H1514 0.931 . S
C1530 C1524 1.383 . S
C1530 C1529 1.379 . S
H1531 C1525 0.959 . S
H1532 C1525 0.961 . S
H1533 C1525 0.960 . S
H1534 C1526 0.930 . S
H1535 C1527 0.929 . S
H1536 C1544 0.929 . S
H1537 C1546 0.930 . S
H1538 C1548 0.930 . S
H1539 C1551 0.929 . S
H1540 C1554 0.930 . S
H1541 C1556 0.960 . S
H1542 C1556 0.960 . S
H1543 C1556 0.960 . S
C1544 H1536 0.929 . S
C1544 C1545 1.377 . S
C1544 C1546 1.384 . S
C1545 C1544 1.377 . S
C1545 C1551 1.390 . S
C1546 H1537 0.930 . S
C1546 C1544 1.384 . S
C1546 C1547 1.372 . S
C1547 C1546 1.372 . S
C1547 C1548 1.400 . S
C1547 C1552 1.490 . S
C1548 H1538 0.930 . S
C1548 C1547 1.400 . S
C1548 C1551 1.386 . S
H1549 C1565 0.930 . S
H1550 C1566 0.931 . S
C1551 H1539 0.929 . S
C1551 C1545 1.390 . S
C1551 C1548 1.386 . S
C1552 C1547 1.490 . S
C1552 C1554 1.395 . S
C1552 C1555 1.403 . S
H1553 C1559 0.930 . S
C1554 H1540 0.930 . S
C1554 C1552 1.395 . S
C1554 C1557 1.403 . S
C1555 C1552 1.403 . S
C1555 C1556 1.524 . S
C1555 C1559 1.400 . S
C1556 H1541 0.960 . S
C1556 H1542 0.960 . S
C1556 H1543 0.960 . S
C1556 C1555 1.524 . S
C1557 C1554 1.403 . S
C1557 C1558 1.392 . S
C1557 C1561 1.495 . S
C1558 C1557 1.392 . S
C1558 C1559 1.385 . S
C1558 C1560 1.478 . S
C1559 H1553 0.930 . S
C1559 C1555 1.400 . S
C1559 C1558 1.385 . S
C1560 C1558 1.478 . S
C1560 C1562 1.381 . S
C1560 C1566 1.383 . S
C1561 C1557 1.495 . S
C1561 H1567 0.959 . S
C1561 H1568 0.961 . S
C1561 H1569 0.960 . S
C1562 C1560 1.381 . S
C1562 C1563 1.394 . S
C1562 H1570 0.930 . S
C1563 C1562 1.394 . S
C1563 C1564 1.383 . S
C1563 H1571 0.929 . S
C1564 C1563 1.383 . S
C1564 C1565 1.377 . S
C1565 H1549 0.930 . S
C1565 C1564 1.377 . S
C1565 C1566 1.379 . S
C1566 H1550 0.931 . S
C1566 C1560 1.383 . S
C1566 C1565 1.379 . S
H1567 C1561 0.959 . S
H1568 C1561 0.961 . S
H1569 C1561 0.960 . S
H1570 C1562 0.930 . S
H1571 C1563 0.929 . S
H1572 C1580 0.929 . S
H1573 C1582 0.930 . S
H1574 C1584 0.930 . S
H1575 C1587 0.929 . S
H1576 C1590 0.930 . S
H1577 C1592 0.960 . S
H1578 C1592 0.960 . S
H1579 C1592 0.960 . S
C1580 H1572 0.929 . S
C1580 C1581 1.377 . S
C1580 C1582 1.384 . S
C1581 C1580 1.377 . S
C1581 C1587 1.390 . S
C1582 H1573 0.930 . S
C1582 C1580 1.384 . S
C1582 C1583 1.372 . S
C1583 C1582 1.372 . S
C1583 C1584 1.400 . S
C1583 C1588 1.490 . S
C1584 H1574 0.930 . S
C1584 C1583 1.400 . S
C1584 C1587 1.386 . S
H1585 C1601 0.930 . S
H1586 C1602 0.931 . S
C1587 H1575 0.929 . S
C1587 C1581 1.390 . S
C1587 C1584 1.386 . S
C1588 C1583 1.490 . S
C1588 C1590 1.395 . S
C1588 C1591 1.403 . S
H1589 C1595 0.930 . S
C1590 H1576 0.930 . S
C1590 C1588 1.395 . S
C1590 C1593 1.403 . S
C1591 C1588 1.403 . S
C1591 C1592 1.524 . S
C1591 C1595 1.400 . S
C1592 H1577 0.960 . S
C1592 H1578 0.960 . S
C1592 H1579 0.960 . S
C1592 C1591 1.524 . S
C1593 C1590 1.403 . S
C1593 C1594 1.392 . S
C1593 C1597 1.495 . S
C1594 C1593 1.392 . S
C1594 C1595 1.385 . S
C1594 C1596 1.478 . S
C1595 H1589 0.930 . S
C1595 C1591 1.400 . S
C1595 C1594 1.385 . S
C1596 C1594 1.478 . S
C1596 C1598 1.381 . S
C1596 C1602 1.383 . S
C1597 C1593 1.495 . S
C1597 H1603 0.959 . S
C1597 H1604 0.961 . S
C1597 H1605 0.960 . S
C1598 C1596 1.381 . S
C1598 C1599 1.394 . S
C1598 H1606 0.930 . S
C1599 C1598 1.394 . S
C1599 C1600 1.383 . S
C1599 H1607 0.929 . S
C1600 C1599 1.383 . S
C1600 C1601 1.377 . S
C1601 H1585 0.930 . S
C1601 C1600 1.377 . S
C1601 C1602 1.379 . S
C1602 H1586 0.931 . S
C1602 C1596 1.383 . S
C1602 C1601 1.379 . S
H1603 C1597 0.959 . S
H1604 C1597 0.961 . S
H1605 C1597 0.960 . S
H1606 C1598 0.930 . S
H1607 C1599 0.929 . S
H1608 C1616 0.929 . S
H1609 C1618 0.930 . S
H1610 C1620 0.930 . S
H1611 C1623 0.929 . S
H1612 C1626 0.930 . S
H1613 C1628 0.960 . S
H1614 C1628 0.960 . S
H1615 C1628 0.960 . S
C1616 H1608 0.929 . S
C1616 C1617 1.377 . S
C1616 C1618 1.384 . S
C1617 C1616 1.377 . S
C1617 C1623 1.390 . S
C1618 H1609 0.930 . S
C1618 C1616 1.384 . S
C1618 C1619 1.372 . S
C1619 C1618 1.372 . S
C1619 C1620 1.400 . S
C1619 C1624 1.490 . S
C1620 H1610 0.930 . S
C1620 C1619 1.400 . S
C1620 C1623 1.386 . S
H1621 C1637 0.930 . S
H1622 C1638 0.931 . S
C1623 H1611 0.929 . S
C1623 C1617 1.390 . S
C1623 C1620 1.386 . S
C1624 C1619 1.490 . S
C1624 C1626 1.395 . S
C1624 C1627 1.403 . S
H1625 C1631 0.930 . S
C1626 H1612 0.930 . S
C1626 C1624 1.395 . S
C1626 C1629 1.403 . S
C1627 C1624 1.403 . S
C1627 C1628 1.524 . S
C1627 C1631 1.400 . S
C1628 H1613 0.960 . S
C1628 H1614 0.960 . S
C1628 H1615 0.960 . S
C1628 C1627 1.524 . S
C1629 C1626 1.403 . S
C1629 C1630 1.392 . S
C1629 C1633 1.495 . S
C1630 C1629 1.392 . S
C1630 C1631 1.385 . S
C1630 C1632 1.478 . S
C1631 H1625 0.930 . S
C1631 C1627 1.400 . S
C1631 C1630 1.385 . S
C1632 C1630 1.478 . S
C1632 C1634 1.381 . S
C1632 C1638 1.383 . S
C1633 C1629 1.495 . S
C1633 H1639 0.959 . S
C1633 H1640 0.961 . S
C1633 H1641 0.960 . S
C1634 C1632 1.381 . S
C1634 C1635 1.394 . S
C1634 H1642 0.930 . S
C1635 C1634 1.394 . S
C1635 C1636 1.383 . S
C1635 H1643 0.929 . S
C1636 C1635 1.383 . S
C1636 C1637 1.377 . S
C1637 H1621 0.930 . S
C1637 C1636 1.377 . S
C1637 C1638 1.379 . S
C1638 H1622 0.931 . S
C1638 C1632 1.383 . S
C1638 C1637 1.379 . S
H1639 C1633 0.959 . S
H1640 C1633 0.961 . S
H1641 C1633 0.960 . S
H1642 C1634 0.930 . S
H1643 C1635 0.929 . S
H1644 C1652 0.929 . S
H1645 C1654 0.930 . S
H1646 C1656 0.930 . S
H1647 C1659 0.929 . S
H1648 C1662 0.930 . S
H1649 C1664 0.960 . S
H1650 C1664 0.960 . S
H1651 C1664 0.960 . S
C1652 H1644 0.929 . S
C1652 C1653 1.377 . S
C1652 C1654 1.384 . S
C1653 C1652 1.377 . S
C1653 C1659 1.390 . S
C1654 H1645 0.930 . S
C1654 C1652 1.384 . S
C1654 C1655 1.372 . S
C1655 C1654 1.372 . S
C1655 C1656 1.400 . S
C1655 C1660 1.490 . S
C1656 H1646 0.930 . S
C1656 C1655 1.400 . S
C1656 C1659 1.386 . S
H1657 C1673 0.930 . S
H1658 C1674 0.931 . S
C1659 H1647 0.929 . S
C1659 C1653 1.390 . S
C1659 C1656 1.386 . S
C1660 C1655 1.490 . S
C1660 C1662 1.395 . S
C1660 C1663 1.403 . S
H1661 C1667 0.930 . S
C1662 H1648 0.930 . S
C1662 C1660 1.395 . S
C1662 C1665 1.403 . S
C1663 C1660 1.403 . S
C1663 C1664 1.524 . S
C1663 C1667 1.400 . S
C1664 H1649 0.960 . S
C1664 H1650 0.960 . S
C1664 H1651 0.960 . S
C1664 C1663 1.524 . S
C1665 C1662 1.403 . S
C1665 C1666 1.392 . S
C1665 C1669 1.495 . S
C1666 C1665 1.392 . S
C1666 C1667 1.385 . S
C1666 C1668 1.478 . S
C1667 H1661 0.930 . S
C1667 C1663 1.400 . S
C1667 C1666 1.385 . S
C1668 C1666 1.478 . S
C1668 C1670 1.381 . S
C1668 C1674 1.383 . S
C1669 C1665 1.495 . S
C1669 H1675 0.959 . S
C1669 H1676 0.961 . S
C1669 H1677 0.960 . S
C1670 C1668 1.381 . S
C1670 C1671 1.394 . S
C1670 H1678 0.930 . S
C1671 C1670 1.394 . S
C1671 C1672 1.383 . S
C1671 H1679 0.929 . S
C1672 C1671 1.383 . S
C1672 C1673 1.377 . S
C1673 H1657 0.930 . S
C1673 C1672 1.377 . S
C1673 C1674 1.379 . S
C1674 H1658 0.931 . S
C1674 C1668 1.383 . S
C1674 C1673 1.379 . S
H1675 C1669 0.959 . S
H1676 C1669 0.961 . S
H1677 C1669 0.960 . S
H1678 C1670 0.930 . S
H1679 C1671 0.929 . S
H1680 C1688 0.929 . S
H1681 C1690 0.930 1_455 S
H1682 C1692 0.930 . S
H1683 C1695 0.929 . S
H1684 C1698 0.930 . S
H1685 C1700 0.960 . S
H1686 C1700 0.960 . S
H1687 C1700 0.960 1_655 S
C1688 H1680 0.929 . S
C1688 C1689 1.377 . S
C1688 C1690 1.384 . S
C1689 C1688 1.377 . S
C1689 C1695 1.390 . S
C1690 H1681 0.930 1_655 S
C1690 C1688 1.384 . S
C1690 C1691 1.372 . S
C1691 C1690 1.372 . S
C1691 C1692 1.400 . S
C1691 C1696 1.490 . S
C1692 H1682 0.930 . S
C1692 C1691 1.400 . S
C1692 C1695 1.386 . S
H1693 C1709 0.930 . S
H1694 C1710 0.931 1_655 S
C1695 H1683 0.929 . S
C1695 C1689 1.390 . S
C1695 C1692 1.386 . S
C1696 C1691 1.490 . S
C1696 C1698 1.395 . S
C1696 C1699 1.403 1_655 S
H1697 C1703 0.930 . S
C1698 H1684 0.930 . S
C1698 C1696 1.395 . S
C1698 C1701 1.403 . S
C1699 C1696 1.403 1_455 S
C1699 C1700 1.524 . S
C1699 C1703 1.400 . S
C1700 H1685 0.960 . S
C1700 H1686 0.960 . S
C1700 H1687 0.960 1_455 S
C1700 C1699 1.524 . S
C1701 C1698 1.403 . S
C1701 C1702 1.392 1_655 S
C1701 C1705 1.495 . S
C1702 C1701 1.392 1_455 S
C1702 C1703 1.385 . S
C1702 C1704 1.478 . S
C1703 H1697 0.930 . S
C1703 C1699 1.400 . S
C1703 C1702 1.385 . S
C1704 C1702 1.478 . S
C1704 C1706 1.381 . S
C1704 C1710 1.383 . S
C1705 C1701 1.495 . S
C1705 H1711 0.959 . S
C1705 H1712 0.961 . S
C1705 H1713 0.960 1_655 S
C1706 C1704 1.381 . S
C1706 C1707 1.394 . S
C1706 H1714 0.930 . S
C1707 C1706 1.394 . S
C1707 C1708 1.383 . S
C1707 H1715 0.929 . S
C1708 C1707 1.383 . S
C1708 C1709 1.377 . S
C1709 H1693 0.930 . S
C1709 C1708 1.377 . S
C1709 C1710 1.379 . S
C1710 H1694 0.931 1_455 S
C1710 C1704 1.383 . S
C1710 C1709 1.379 . S
H1711 C1705 0.959 . S
H1712 C1705 0.961 . S
H1713 C1705 0.960 1_455 S
H1714 C1706 0.930 . S
H1715 C1707 0.929 . S
H1716 C1724 0.929 1_545 S
H1717 C1726 0.928 1_545 S
H1718 C1728 0.930 . S
H1719 C1731 0.929 . S
H1720 C1734 0.930 . S
H1721 C1736 0.968 . S
H1722 C1736 0.960 1_545 S
H1723 C1736 0.960 . S
C1724 H1716 0.929 1_565 S
C1724 C1725 1.377 . S
C1724 C1726 1.385 . S
C1725 C1724 1.377 . S
C1725 C1731 1.390 . S
C1726 H1717 0.928 1_565 S
C1726 C1724 1.385 . S
C1726 C1727 1.373 . S
C1727 C1726 1.373 . S
C1727 C1728 1.400 . S
C1727 C1732 1.490 . S
C1728 H1718 0.930 . S
C1728 C1727 1.400 . S
C1728 C1731 1.386 . S
H1729 C1745 0.930 1_565 S
H1730 C1746 0.934 . S
C1731 H1719 0.929 . S
C1731 C1725 1.390 . S
C1731 C1728 1.386 . S
C1732 C1727 1.490 . S
C1732 C1734 1.395 . S
C1732 C1735 1.403 . S
H1733 C1739 0.930 . S
C1734 H1720 0.930 . S
C1734 C1732 1.395 . S
C1734 C1737 1.403 1_565 S
C1735 C1732 1.403 . S
C1735 C1736 1.524 . S
C1735 C1739 1.400 1_565 S
C1736 H1721 0.968 . S
C1736 H1722 0.960 1_565 S
C1736 H1723 0.960 . S
C1736 C1735 1.524 . S
C1737 C1734 1.403 1_545 S
C1737 C1738 1.392 . S
C1737 C1741 1.495 . S
C1738 C1737 1.392 . S
C1738 C1739 1.385 . S
C1738 C1740 1.478 . S
C1739 H1733 0.930 . S
C1739 C1735 1.400 1_545 S
C1739 C1738 1.385 . S
C1740 C1738 1.478 . S
C1740 C1742 1.381 . S
C1740 C1746 1.381 1_545 S
C1741 C1737 1.495 . S
C1741 H1747 0.959 . S
C1741 H1748 0.961 1_545 S
C1741 H1749 0.960 . S
C1742 C1740 1.381 . S
C1742 C1743 1.394 . S
C1742 H1750 0.930 . S
C1743 C1742 1.394 . S
C1743 C1744 1.383 . S
C1743 H1751 0.929 . S
C1744 C1743 1.383 . S
C1744 C1745 1.377 . S
C1745 H1729 0.930 1_545 S
C1745 C1744 1.377 . S
C1745 C1746 1.379 1_545 S
C1746 H1730 0.934 . S
C1746 C1740 1.381 1_565 S
C1746 C1745 1.379 1_565 S
H1747 C1741 0.959 . S
H1748 C1741 0.961 1_565 S
H1749 C1741 0.960 . S
H1750 C1742 0.930 . S
H1751 C1743 0.929 . S
H1752 C1760 0.929 . S
H1753 C1762 0.930 . S
H1754 C1764 0.930 . S
H1755 C1767 0.929 . S
H1756 C1770 0.930 . S
H1757 C1772 0.960 1_565 S
H1758 C1772 0.960 . S
H1759 C1772 0.960 . S
C1760 H1752 0.929 . S
C1760 C1761 1.377 . S
C1760 C1762 1.384 . S
C1761 C1760 1.377 . S
C1761 C1767 1.390 . S
C1762 H1753 0.930 . S
C1762 C1760 1.384 . S
C1762 C1763 1.372 . S
C1763 C1762 1.372 . S
C1763 C1764 1.400 . S
C1763 C1768 1.490 . S
C1764 H1754 0.930 . S
C1764 C1763 1.400 . S
C1764 C1767 1.386 . S
H1765 C1781 0.930 . S
H1766 C1782 0.931 . S
C1767 H1755 0.929 . S
C1767 C1761 1.390 . S
C1767 C1764 1.386 . S
C1768 C1763 1.490 . S
C1768 C1770 1.395 . S
C1768 C1771 1.403 . S
H1769 C1775 0.930 . S
C1770 H1756 0.930 . S
C1770 C1768 1.395 . S
C1770 C1773 1.403 1_545 S
C1771 C1768 1.403 . S
C1771 C1772 1.524 . S
C1771 C1775 1.400 1_545 S
C1772 H1757 0.960 1_545 S
C1772 H1758 0.960 . S
C1772 H1759 0.960 . S
C1772 C1771 1.524 . S
C1773 C1770 1.403 1_565 S
C1773 C1774 1.392 . S
C1773 C1777 1.495 . S
C1774 C1773 1.392 . S
C1774 C1775 1.385 . S
C1774 C1776 1.478 . S
C1775 H1769 0.930 . S
C1775 C1771 1.400 1_565 S
C1775 C1774 1.385 . S
C1776 C1774 1.478 . S
C1776 C1778 1.381 . S
C1776 C1782 1.383 . S
C1777 C1773 1.495 . S
C1777 H1783 0.959 1_565 S
C1777 H1784 0.961 . S
C1777 H1785 0.960 . S
C1778 C1776 1.381 . S
C1778 C1779 1.394 . S
C1778 H1786 0.930 . S
C1779 C1778 1.394 . S
C1779 C1780 1.383 . S
C1779 H1787 0.929 . S
C1780 C1779 1.383 . S
C1780 C1781 1.377 . S
C1781 H1765 0.930 . S
C1781 C1780 1.377 . S
C1781 C1782 1.379 . S
C1782 H1766 0.931 . S
C1782 C1776 1.383 . S
C1782 C1781 1.379 . S
H1783 C1777 0.959 1_545 S
H1784 C1777 0.961 . S
H1785 C1777 0.960 . S
H1786 C1778 0.930 . S
H1787 C1779 0.929 . S
H1788 C1796 0.929 . S
H1789 C1798 0.930 . S
H1790 C1800 0.930 . S
H1791 C1803 0.929 . S
H1792 C1806 0.930 . S
H1793 C1808 0.960 . S
H1794 C1808 0.960 . S
H1795 C1808 0.960 . S
C1796 H1788 0.929 . S
C1796 C1797 1.377 . S
C1796 C1798 1.384 . S
C1797 C1796 1.377 . S
C1797 C1803 1.390 . S
C1798 H1789 0.930 . S
C1798 C1796 1.384 . S
C1798 C1799 1.372 . S
C1799 C1798 1.372 . S
C1799 C1800 1.400 . S
C1799 C1804 1.490 . S
C1800 H1790 0.930 . S
C1800 C1799 1.400 . S
C1800 C1803 1.386 . S
H1801 C1817 0.930 . S
H1802 C1818 0.931 . S
C1803 H1791 0.929 . S
C1803 C1797 1.390 . S
C1803 C1800 1.386 . S
C1804 C1799 1.490 . S
C1804 C1806 1.395 . S
C1804 C1807 1.403 . S
H1805 C1811 0.930 . S
C1806 H1792 0.930 . S
C1806 C1804 1.395 . S
C1806 C1809 1.403 1_655 S
C1807 C1804 1.403 . S
C1807 C1808 1.524 . S
C1807 C1811 1.400 1_655 S
C1808 H1793 0.960 . S
C1808 H1794 0.960 . S
C1808 H1795 0.960 . S
C1808 C1807 1.524 . S
C1809 C1806 1.403 1_455 S
C1809 C1810 1.392 . S
C1809 C1813 1.495 . S
C1810 C1809 1.392 . S
C1810 C1811 1.385 . S
C1810 C1812 1.478 . S
C1811 H1805 0.930 . S
C1811 C1807 1.400 1_455 S
C1811 C1810 1.385 . S
C1812 C1810 1.478 . S
C1812 C1814 1.381 . S
C1812 C1818 1.383 . S
C1813 C1809 1.495 . S
C1813 H1819 0.959 . S
C1813 H1820 0.961 . S
C1813 H1821 0.960 . S
C1814 C1812 1.381 . S
C1814 C1815 1.394 . S
C1814 H1822 0.930 . S
C1815 C1814 1.394 . S
C1815 C1816 1.383 . S
C1815 H1823 0.929 . S
C1816 C1815 1.383 . S
C1816 C1817 1.377 . S
C1817 H1801 0.930 . S
C1817 C1816 1.377 . S
C1817 C1818 1.379 . S
C1818 H1802 0.931 . S
C1818 C1812 1.383 . S
C1818 C1817 1.379 . S
H1819 C1813 0.959 . S
H1820 C1813 0.961 . S
H1821 C1813 0.960 . S
H1822 C1814 0.930 . S
H1823 C1815 0.929 . S
H1824 C1832 0.929 . S
H1825 C1834 0.930 . S
H1826 C1836 0.930 . S
H1827 C1839 0.929 . S
H1828 C1842 0.930 . S
H1829 C1844 0.960 . S
H1830 C1844 0.960 . S
H1831 C1844 0.960 . S
C1832 H1824 0.929 . S
C1832 C1833 1.377 . S
C1832 C1834 1.384 . S
C1833 C1832 1.377 . S
C1833 C1839 1.390 . S
C1834 H1825 0.930 . S
C1834 C1832 1.384 . S
C1834 C1835 1.372 . S
C1835 C1834 1.372 . S
C1835 C1836 1.400 . S
C1835 C1840 1.490 . S
C1836 H1826 0.930 . S
C1836 C1835 1.400 . S
C1836 C1839 1.386 . S
H1837 C1853 0.930 . S
H1838 C1854 0.931 . S
C1839 H1827 0.929 . S
C1839 C1833 1.390 . S
C1839 C1836 1.386 . S
C1840 C1835 1.490 . S
C1840 C1842 1.395 1_655 S
C1840 C1843 1.403 . S
H1841 C1847 0.930 . S
C1842 H1828 0.930 . S
C1842 C1840 1.395 1_455 S
C1842 C1845 1.403 . S
C1843 C1840 1.403 . S
C1843 C1844 1.524 . S
C1843 C1847 1.400 . S
C1844 H1829 0.960 . S
C1844 H1830 0.960 . S
C1844 H1831 0.960 . S
C1844 C1843 1.524 . S
C1845 C1842 1.403 . S
C1845 C1846 1.392 . S
C1845 C1849 1.495 . S
C1846 C1845 1.392 . S
C1846 C1847 1.385 1_455 S
C1846 C1848 1.478 . S
C1847 H1841 0.930 . S
C1847 C1843 1.400 . S
C1847 C1846 1.385 1_655 S
C1848 C1846 1.478 . S
C1848 C1850 1.381 . S
C1848 C1854 1.383 . S
C1849 C1845 1.495 . S
C1849 H1855 0.959 . S
C1849 H1856 0.961 . S
C1849 H1857 0.960 . S
C1850 C1848 1.381 . S
C1850 C1851 1.394 . S
C1850 H1858 0.930 . S
C1851 C1850 1.394 . S
C1851 C1852 1.383 . S
C1851 H1859 0.929 . S
C1852 C1851 1.383 . S
C1852 C1853 1.377 . S
C1853 H1837 0.930 . S
C1853 C1852 1.377 . S
C1853 C1854 1.379 . S
C1854 H1838 0.931 . S
C1854 C1848 1.383 . S
C1854 C1853 1.379 . S
H1855 C1849 0.959 . S
H1856 C1849 0.961 . S
H1857 C1849 0.960 . S
H1858 C1850 0.930 . S
H1859 C1851 0.929 . S
H1860 C1868 0.929 . S
H1861 C1870 0.930 . S
H1862 C1872 0.930 . S
H1863 C1875 0.929 . S
H1864 C1878 0.930 . S
H1865 C1880 0.960 . S
H1866 C1880 0.960 . S
H1867 C1880 0.960 . S
C1868 H1860 0.929 . S
C1868 C1869 1.377 . S
C1868 C1870 1.384 . S
C1869 C1868 1.377 . S
C1869 C1875 1.390 . S
C1870 H1861 0.930 . S
C1870 C1868 1.384 . S
C1870 C1871 1.372 . S
C1871 C1870 1.372 . S
C1871 C1872 1.400 . S
C1871 C1876 1.490 . S
C1872 H1862 0.930 . S
C1872 C1871 1.400 . S
C1872 C1875 1.386 . S
H1873 C1889 0.930 . S
H1874 C1890 0.931 . S
C1875 H1863 0.929 . S
C1875 C1869 1.390 . S
C1875 C1872 1.386 . S
C1876 C1871 1.490 . S
C1876 C1878 1.395 1_545 S
C1876 C1879 1.403 . S
H1877 C1883 0.930 . S
C1878 H1864 0.930 . S
C1878 C1876 1.395 1_565 S
C1878 C1881 1.403 . S
C1879 C1876 1.403 . S
C1879 C1880 1.524 . S
C1879 C1883 1.400 . S
C1880 H1865 0.960 . S
C1880 H1866 0.960 . S
C1880 H1867 0.960 . S
C1880 C1879 1.524 . S
C1881 C1878 1.403 . S
C1881 C1882 1.392 . S
C1881 C1885 1.495 . S
C1882 C1881 1.392 . S
C1882 C1883 1.385 1_565 S
C1882 C1884 1.478 . S
C1883 H1877 0.930 . S
C1883 C1879 1.400 . S
C1883 C1882 1.385 1_545 S
C1884 C1882 1.478 . S
C1884 C1886 1.381 . S
C1884 C1890 1.383 . S
C1885 C1881 1.495 . S
C1885 H1891 0.959 . S
C1885 H1892 0.961 . S
C1885 H1893 0.960 . S
C1886 C1884 1.381 . S
C1886 C1887 1.394 . S
C1886 H1894 0.930 . S
C1887 C1886 1.394 . S
C1887 C1888 1.383 . S
C1887 H1895 0.929 . S
C1888 C1887 1.383 . S
C1888 C1889 1.377 . S
C1889 H1873 0.930 . S
C1889 C1888 1.377 . S
C1889 C1890 1.379 . S
C1890 H1874 0.931 . S
C1890 C1884 1.383 . S
C1890 C1889 1.379 . S
H1891 C1885 0.959 . S
H1892 C1885 0.961 . S
H1893 C1885 0.960 . S
H1894 C1886 0.930 . S
H1895 C1887 0.929 . S
H1896 C1904 0.929 . S
H1897 C1906 0.930 . S
H1898 C1908 0.930 . S
H1899 C1911 0.929 . S
H1900 C1914 0.930 . S
H1901 C1916 0.960 . S
H1902 C1916 0.960 . S
H1903 C1916 0.960 . S
C1904 H1896 0.929 . S
C1904 C1905 1.377 . S
C1904 C1906 1.384 . S
C1905 C1904 1.377 . S
C1905 C1911 1.390 . S
C1906 H1897 0.930 . S
C1906 C1904 1.384 . S
C1906 C1907 1.372 . S
C1907 C1906 1.372 . S
C1907 C1908 1.400 . S
C1907 C1912 1.490 . S
C1908 H1898 0.930 . S
C1908 C1907 1.400 . S
C1908 C1911 1.386 . S
H1909 C1925 0.930 . S
H1910 C1926 0.931 . S
C1911 H1899 0.929 . S
C1911 C1905 1.390 . S
C1911 C1908 1.386 . S
C1912 C1907 1.490 . S
C1912 C1914 1.395 . S
C1912 C1915 1.403 . S
H1913 C1919 0.930 . S
C1914 H1900 0.930 . S
C1914 C1912 1.395 . S
C1914 C1917 1.403 1_565 S
C1915 C1912 1.403 . S
C1915 C1916 1.524 . S
C1915 C1919 1.400 1_565 S
C1916 H1901 0.960 . S
C1916 H1902 0.960 . S
C1916 H1903 0.960 . S
C1916 C1915 1.524 . S
C1917 C1914 1.403 1_545 S
C1917 C1918 1.392 . S
C1917 C1921 1.495 . S
C1918 C1917 1.392 . S
C1918 C1919 1.385 . S
C1918 C1920 1.478 . S
C1919 H1913 0.930 . S
C1919 C1915 1.400 1_545 S
C1919 C1918 1.385 . S
C1920 C1918 1.478 . S
C1920 C1922 1.381 . S
C1920 C1926 1.383 . S
C1921 C1917 1.495 . S
C1921 H1927 0.959 . S
C1921 H1928 0.961 . S
C1921 H1929 0.960 . S
C1922 C1920 1.381 . S
C1922 C1923 1.394 . S
C1922 H1930 0.930 . S
C1923 C1922 1.394 . S
C1923 C1924 1.383 . S
C1923 H1931 0.929 . S
C1924 C1923 1.383 . S
C1924 C1925 1.377 . S
C1925 H1909 0.930 . S
C1925 C1924 1.377 . S
C1925 C1926 1.379 . S
C1926 H1910 0.931 . S
C1926 C1920 1.383 . S
C1926 C1925 1.379 . S
H1927 C1921 0.959 . S
H1928 C1921 0.961 . S
H1929 C1921 0.960 . S
H1930 C1922 0.930 . S
H1931 C1923 0.929 . S
H1932 C1940 0.929 . S
H1933 C1942 0.930 . S
H1934 C1944 0.930 . S
H1935 C1947 0.929 . S
H1936 C1950 0.930 . S
H1937 C1952 0.960 . S
H1938 C1952 0.960 . S
H1939 C1952 0.960 . S
C1940 H1932 0.929 . S
C1940 C1941 1.377 . S
C1940 C1942 1.384 . S
C1941 C1940 1.377 . S
C1941 C1947 1.390 . S
C1942 H1933 0.930 . S
C1942 C1940 1.384 . S
C1942 C1943 1.372 . S
C1943 C1942 1.372 . S
C1943 C1944 1.400 . S
C1943 C1948 1.490 . S
C1944 H1934 0.930 . S
C1944 C1943 1.400 . S
C1944 C1947 1.386 . S
H1945 C1961 0.930 . S
H1946 C1962 0.931 . S
C1947 H1935 0.929 . S
C1947 C1941 1.390 . S
C1947 C1944 1.386 . S
C1948 C1943 1.490 . S
C1948 C1950 1.395 . S
C1948 C1951 1.403 . S
H1949 C1955 0.930 . S
C1950 H1936 0.930 . S
C1950 C1948 1.395 . S
C1950 C1953 1.403 1_655 S
C1951 C1948 1.403 . S
C1951 C1952 1.524 . S
C1951 C1955 1.400 1_655 S
C1952 H1937 0.960 . S
C1952 H1938 0.960 . S
C1952 H1939 0.960 . S
C1952 C1951 1.524 . S
C1953 C1950 1.403 1_455 S
C1953 C1954 1.392 . S
C1953 C1957 1.495 . S
C1954 C1953 1.392 . S
C1954 C1955 1.385 . S
C1954 C1956 1.478 . S
C1955 H1949 0.930 . S
C1955 C1951 1.400 1_455 S
C1955 C1954 1.385 . S
C1956 C1954 1.478 . S
C1956 C1958 1.381 . S
C1956 C1962 1.383 . S
C1957 C1953 1.495 . S
C1957 H1963 0.959 . S
C1957 H1964 0.961 . S
C1957 H1965 0.960 . S
C1958 C1956 1.381 . S
C1958 C1959 1.394 . S
C1958 H1966 0.930 . S
C1959 C1958 1.394 . S
C1959 C1960 1.383 . S
C1959 H1967 0.929 . S
C1960 C1959 1.383 . S
C1960 C1961 1.377 . S
C1961 H1945 0.930 . S
C1961 C1960 1.377 . S
C1961 C1962 1.379 . S
C1962 H1946 0.931 . S
C1962 C1956 1.383 . S
C1962 C1961 1.379 . S
H1963 C1957 0.959 . S
H1964 C1957 0.961 . S
H1965 C1957 0.960 . S
H1966 C1958 0.930 . S
H1967 C1959 0.929 . S
C537 C337 1.209 . S
C556 C7 1.231 . S
C573 C370 1.214 . S
C592 C40 1.210 . S
C609 C271 1.208 . S
C628 C73 1.198 . S
C645 C304 1.213 . S
C664 C106 1.185 . S
C681 C139 1.210 . S
C700 C469 1.230 . S
C717 C172 1.214 . S
C736 C502 1.216 . S
C753 C403 1.208 . S
C772 C205 1.198 . S
C789 C436 1.215 . S
C808 C238 1.193 . S
C825 C120 1.505 . S
C844 N2 1.423 . S
C861 N35 1.451 . S
C880 C21 1.504 . S
C897 C54 1.501 . S
C916 N68 1.447 . S
C933 N101 1.450 . S
C952 C87 1.508 . S
C969 C186 1.499 . S
C988 N134 1.433 . S
C1005 C219 1.497 . S
C1024 N167 1.414 . S
C1041 C252 1.499 . S
C1060 N200 1.458 . S
C1077 N233 1.446 . S
C1096 C153 1.506 . S
C1113 N266 1.449 . S
C1132 C384 1.499 . S
C1149 N299 1.441 . S
C1168 C285 1.488 . S
C1185 C318 1.502 . S
C1204 N332 1.413 . S
C1221 N365 1.439 . S
C1240 C351 1.491 . S
C1257 N398 1.450 . S
C1276 C450 1.503 . S
C1293 N431 1.449 . S
C1312 C483 1.506 . S
C1329 N464 1.450 . S
C1348 C516 1.503 . S
C1365 C417 1.495 . S
C1384 N497 1.428 . S
C1401 C249 0.892 . S
C1420 C18 0.912 . S
C1437 C51 0.894 . S
C1456 C150 0.915 . S
C1473 C183 0.892 . S
C1492 C84 0.893 . S
C1509 C216 0.900 . S
C1528 C117 0.881 . S
C1545 C282 0.900 . S
C1564 C513 0.914 . S
C1581 C414 0.898 . S
C1600 C315 0.906 . S
C1617 C348 0.893 . S
C1636 C447 0.881 . S
C1653 C480 0.898 . S
C1672 C381 0.903 . S
C1689 N79 1.584 . S
C1708 N13 1.599 . S
C1725 N112 1.582 . S
C1744 N46 1.601 . S
C1761 N145 1.580 . S
C1780 N211 1.575 . S
C1797 N178 1.581 . S
C1816 N244 1.599 . S
C1833 N277 1.585 . S
C1852 N343 1.592 . S
C1869 N376 1.585 . S
C1888 N310 1.590 . S
C1905 N409 1.584 . S
C1924 N475 1.597 . S
C1941 N508 1.586 . S
C1960 N442 1.560 . S
