# Generated by pormake.
# Topology nbo, (4)-cn, num edge types: 1
# Building blocks:
#     Node 0, Type 0, BuildingBlock: MUDLON_clean_sbu_0, # of connection points: 4
#     Node 1, Type 0, BuildingBlock: MUDLON_clean_sbu_0, # of connection points: 4
#     Node 2, Type 0, BuildingBlock: MUDLON_clean_sbu_0, # of connection points: 4
#     Node 3, Type 0, BuildingBlock: MUDLON_clean_sbu_0, # of connection points: 4
#     Node 4, Type 0, BuildingBlock: MUDLON_clean_sbu_0, # of connection points: 4
#     Node 5, Type 0, BuildingBlock: MUDLON_clean_sbu_0, # of connection points: 4
#     Edge 6, Type (0, 0), BuildingBlock: ZUJKAS_clean_linker_0, # of connection points: 2
#     Edge 7, Type (0, 0), BuildingBlock: ZUJKAS_clean_linker_0, # of connection points: 2
#     Edge 8, Type (0, 0), BuildingBlock: ZUJKAS_clean_linker_0, # of connection points: 2
#     Edge 9, Type (0, 0), BuildingBlock: ZUJKAS_clean_linker_0, # of connection points: 2
#     Edge 10, Type (0, 0), BuildingBlock: ZUJKAS_clean_linker_0, # of connection points: 2
#     Edge 11, Type (0, 0), BuildingBlock: ZUJKAS_clean_linker_0, # of connection points: 2
#     Edge 12, Type (0, 0), BuildingBlock: ZUJKAS_clean_linker_0, # of connection points: 2
#     Edge 13, Type (0, 0), BuildingBlock: ZUJKAS_clean_linker_0, # of connection points: 2
#     Edge 14, Type (0, 0), BuildingBlock: ZUJKAS_clean_linker_0, # of connection points: 2
#     Edge 15, Type (0, 0), BuildingBlock: ZUJKAS_clean_linker_0, # of connection points: 2
#     Edge 16, Type (0, 0), BuildingBlock: ZUJKAS_clean_linker_0, # of connection points: 2
#     Edge 17, Type (0, 0), BuildingBlock: ZUJKAS_clean_linker_0, # of connection points: 2
# Relax obj value: 0.000
# Max RMSD: 0.009
# Mean RMSD: 0.009
data_MOF--net-nbo--node1-MUDLON_clean_sbu_0--edge1-ZUJKAS_clean_linker_0
_symmetry_space_group_name_H-M    P1
_symmetry_Int_Tables_number       1
_symmetry_cell_setting            triclinic
loop_
_symmetry_equiv_pos_as_xyz
'x, y, z'
_cell_length_a     39.535162
_cell_length_b     39.543347
_cell_length_c     39.642673
_cell_angle_alpha  91.221801
_cell_angle_beta   91.193153
_cell_angle_gamma 91.16727
loop_
_atom_site_label
_atom_site_type_symbol
_atom_site_fract_x
_atom_site_fract_y
_atom_site_fract_z
_atom_type_partial_charge
Mg0 Mg 0.05145 0.06241 0.54431 0.0
C1 C 0.06281 0.13366 0.51481 0.0
O2 O 0.07451 0.1141 0.49071 0.0
C3 C 0.05015 0.98576 0.52172 0.0
O4 O 0.04496 0.99985 0.49239 0.0
C5 C 0.97663 0.07446 0.51936 0.0
O6 O 0.99279 0.09139 0.49628 0.0
O7 O 0.9936 0.05942 0.54192 0.0
O8 O 0.05048 0.12003 0.54072 0.0
O9 O 0.10902 0.06636 0.54787 0.0
C10 C 0.12829 0.05214 0.52686 0.0
O11 O 0.11492 0.03344 0.50205 0.0
O12 O 0.05341 1.00464 0.54803 0.0
Mg13 Mg 0.51686 0.98619 0.05177 0.0
C14 C 0.53991 0.06272 0.06448 0.0
O15 O 0.565 0.04861 0.08081 0.0
C16 C 0.54003 0.91022 0.05575 0.0
O17 O 0.5703 0.92448 0.05498 0.0
C18 C 0.54883 0.98457 0.98044 0.0
O19 O 0.57604 0.98846 0.99985 0.0
O20 O 0.52006 0.98291 0.99415 0.0
O21 O 0.51727 0.04395 0.04993 0.0
O22 O 0.51402 0.98872 0.10936 0.0
C23 C 0.54013 0.98229 0.12719 0.0
O24 O 0.56849 0.97552 0.11198 0.0
O25 O 0.51412 0.92866 0.05401 0.0
Mg26 Mg 0.98176 0.53941 0.98339 0.0
C27 C 0.05664 0.51845 0.96681 0.0
O28 O 0.04005 0.49929 0.94431 0.0
C29 C 0.90473 0.52045 0.99362 0.0
O30 O 0.91849 0.49637 0.01129 0.0
C31 C 0.96491 0.51846 0.90814 0.0
O32 O 0.9457 0.49643 0.92359 0.0
O33 O 0.98329 0.53923 0.9257 0.0
O34 O 0.04005 0.53736 0.98661 0.0
O35 O 0.97919 0.54105 0.04115 0.0
C36 C 0.99643 0.52215 0.06021 0.0
O37 O 0.01698 0.5003 0.04658 0.0
O38 O 0.92388 0.54203 0.97969 0.0
Mg39 Mg 0.48786 0.49178 0.02672 0.0
C40 C 0.47341 0.55563 0.06707 0.0
O41 O 0.44234 0.54807 0.05675 0.0
C42 C 0.49631 0.41906 0.02552 0.0
O43 O 0.49125 0.4273 0.99389 0.0
C44 C 0.42174 0.51173 0.98802 0.0
O45 O 0.44065 0.53476 0.97363 0.0
O46 O 0.43534 0.49144 1.00848 0.0
O47 O 0.49662 0.53461 0.06133 0.0
O48 O 0.52818 0.49697 0.99035 0.0
C49 C 0.54335 0.52547 0.98771 0.0
O50 O 0.52989 0.55237 1.00155 0.0
O51 O 0.49613 0.44241 0.0481 0.0
Mg52 Mg 0.02583 0.55757 0.4932 0.0
C53 C 0.05202 0.6231 0.52664 0.0
O54 O 0.0405 0.60816 0.55349 0.0
C55 C 0.06301 0.49323 0.4752 0.0
O56 O 0.05504 0.50244 0.44447 0.0
C57 C 0.02243 0.56742 0.41994 0.0
O58 O 0.05155 0.58146 0.42959 0.0
O59 O 1.00358 0.55486 0.44233 0.0
O60 O 0.05151 0.6068 0.4986 0.0
O61 O 0.99055 0.55513 0.5345 0.0
C62 C 0.98471 0.5268 0.54807 0.0
O63 O 0.99533 0.49914 0.53311 0.0
O64 O 0.057 0.51317 0.49987 0.0
Mg65 Mg 0.55409 0.0139 0.55406 0.0
C66 C 0.6145 0.04867 0.52367 0.0
O67 O 0.59874 0.03776 0.49591 0.0
C68 C 0.48352 0.02581 0.57097 0.0
O69 O 0.48975 0.99573 0.58279 0.0
C70 C 0.52458 0.98434 0.48845 0.0
O71 O 0.49727 0.99788 0.50071 0.0
O72 O 0.55143 0.98437 0.50675 0.0
O73 O 0.60018 0.04476 0.5518 0.0
O74 O 0.55689 0.9856 0.60075 0.0
C75 C 0.58234 0.98926 0.62076 0.0
O76 O 0.60898 1.0064 0.61078 0.0
O77 O 0.50747 0.04214 0.55726 0.0
H78 H 0.08156 0.17006 0.46023 0.0
H79 H 0.08556 0.23159 0.45568 0.0
H80 H 0.05269 0.24338 0.55818 0.0
H81 H 0.04849 0.18175 0.56302 0.0
H82 H 0.03031 0.27871 0.46741 0.0
H83 H 0.14224 0.30235 0.5527 0.0
H84 H 0.1326 0.26135 0.53347 0.0
H85 H 0.1086 0.27618 0.56853 0.0
C86 C 0.07523 0.18568 0.48187 0.0
C87 C 0.06475 0.17097 0.51202 0.0
C88 C 0.07755 0.22083 0.47921 0.0
C89 C 0.06984 0.24196 0.50672 0.0
C90 C 0.05924 0.22745 0.53683 0.0
H91 H 0.06355 0.46012 0.5353 0.0
H92 H 0.06732 0.3991 0.54321 0.0
C93 C 0.05666 0.19225 0.53945 0.0
C94 C 0.07178 0.27919 0.5034 0.0
H95 H 0.11535 0.35036 0.53094 0.0
C96 C 0.04895 0.29441 0.48119 0.0
C97 C 0.09598 0.29951 0.52164 0.0
C98 C 0.12148 0.28416 0.54531 0.0
C99 C 0.04937 0.32956 0.47696 0.0
C100 C 0.07398 0.34994 0.49473 0.0
C101 C 0.0967 0.3347 0.51716 0.0
C102 C 0.07599 0.38717 0.49061 0.0
C103 C 0.02286 0.34459 0.45413 0.0
C104 C 0.08117 0.40088 0.45872 0.0
C105 C 0.07887 0.4357 0.45406 0.0
C106 C 0.07176 0.45757 0.48133 0.0
C107 C 0.06902 0.44402 0.51374 0.0
C108 C 0.07108 0.40911 0.51831 0.0
H109 H 1.00072 0.32713 0.44997 0.0
H110 H 0.01383 0.36891 0.46477 0.0
H111 H 0.03398 0.34952 0.42919 0.0
H112 H 0.08592 0.3845 0.43716 0.0
H113 H 0.08144 0.44533 0.42885 0.0
H114 H 0.93308 0.10871 0.47855 0.0
H115 H 0.87122 0.10834 0.47981 0.0
H116 H 0.87337 0.03881 0.56209 0.0
H117 H 0.93525 0.03888 0.56099 0.0
H118 H 0.82726 0.0205 0.50805 0.0
H119 H 0.81197 0.15335 0.55285 0.0
H120 H 0.83846 0.14797 0.51689 0.0
H121 H 0.8515 0.13152 0.55687 0.0
C122 C 0.92043 0.09335 0.49696 0.0
C123 C 0.93914 0.07388 0.51974 0.0
C124 C 0.88508 0.09336 0.49777 0.0
C125 C 0.86778 0.07394 0.52136 0.0
C126 C 0.8863 0.05415 0.54384 0.0
H127 H 0.65664 0.06791 0.57682 0.0
H128 H 0.71815 0.07651 0.57577 0.0
C129 C 0.92166 0.05423 0.54317 0.0
C130 C 0.83031 0.07341 0.52193 0.0
H131 H 0.76187 0.12281 0.53612 0.0
C132 C 0.81295 0.04284 0.51421 0.0
C133 C 0.81178 0.10255 0.53028 0.0
C134 C 0.82928 0.1357 0.53998 0.0
C135 C 0.77747 0.04074 0.51414 0.0
C136 C 0.75892 0.07004 0.52173 0.0
C137 C 0.77623 0.10051 0.52998 0.0
C138 C 0.72146 0.06907 0.52176 0.0
C139 C 0.76006 1.00708 0.50634 0.0
C140 C 0.70295 0.06328 0.49157 0.0
C141 C 0.66785 0.0585 0.49202 0.0
C142 C 0.65062 0.05934 0.52273 0.0
C143 C 0.6691 0.067 0.55275 0.0
C144 C 0.70424 0.0719 0.55223 0.0
H145 H 0.77791 0.98578 0.50758 0.0
H146 H 0.73929 1.0024 0.52421 0.0
H147 H 0.74877 1.00734 0.48048 0.0
H148 H 0.71581 0.06143 0.46775 0.0
H149 H 0.65443 0.05282 0.46841 0.0
H150 H 0.06498 0.66462 0.47376 0.0
H151 H 0.06994 0.7263 0.47526 0.0
H152 H 0.06208 0.72691 0.58362 0.0
H153 H 0.05633 0.66521 0.58228 0.0
H154 H 0.01822 0.76953 0.55494 0.0
H155 H 0.14521 0.79221 0.50251 0.0
H156 H 0.11877 0.76532 0.47566 0.0
H157 H 0.13144 0.75125 0.51683 0.0
C158 C 0.06497 0.67779 0.49801 0.0
C159 C 0.06018 0.65992 0.52791 0.0
C160 C 0.06799 0.71312 0.49883 0.0
C161 C 0.06676 0.73131 0.52959 0.0
C162 C 0.06319 0.71344 0.55959 0.0
H163 H 0.05724 0.9479 0.57854 0.0
H164 H 0.0621 0.88638 0.58164 0.0
C165 C 0.05998 0.67813 0.55878 0.0
C166 C 0.06622 0.76893 0.5302 0.0
H167 H 0.10867 0.83974 0.5046 0.0
C168 C 0.03821 0.78488 0.54429 0.0
C169 C 0.09223 0.789 0.51619 0.0
C170 C 0.12377 0.7736 0.50225 0.0
C171 C 0.03506 0.82019 0.54393 0.0
C172 C 0.06076 0.84016 0.52941 0.0
C173 C 0.08895 0.82433 0.51564 0.0
C174 C 0.05842 0.87749 0.52765 0.0
C175 C 1.00378 0.83582 0.55821 0.0
C176 C 0.05527 0.89293 0.49624 0.0
C177 C 0.05243 0.92805 0.49436 0.0
C178 C 0.05298 0.94849 0.52388 0.0
C179 C 0.05657 0.93293 0.55532 0.0
C180 C 0.05925 0.89777 0.55717 0.0
H181 H 0.98338 0.81665 0.56213 0.0
H182 H 1.01029 0.84818 0.58296 0.0
H183 H 0.99393 0.85548 0.54122 0.0
H184 H 0.05466 0.87774 0.47316 0.0
H185 H 0.04986 0.93915 0.46973 0.0
H186 H 0.45902 0.08396 0.54323 0.0
H187 H 0.39952 0.10012 0.53783 0.0
H188 H 0.36927 1.00984 0.58948 0.0
H189 H 0.42806 0.99416 0.5958 0.0
H190 H 0.34907 0.06682 0.5043 0.0
H191 H 0.31452 0.07882 0.63794 0.0
H192 H 0.35799 0.07713 0.62506 0.0
H193 H 0.3334 0.03871 0.63001 0.0
C194 C 0.43968 0.06796 0.55399 0.0
C195 C 0.44831 0.03784 0.57004 0.0
C196 C 0.40572 0.07716 0.55081 0.0
C197 C 0.37995 0.0565 0.56379 0.0
C198 C 0.38868 0.02671 0.58013 0.0
H199 H 0.1771 0.01485 0.49671 0.0
H200 H 0.23838 0.02109 0.5045 0.0
C201 C 0.42242 0.01764 0.58347 0.0
C202 C 0.34371 0.0642 0.55817 0.0
H203 H 0.26827 0.06568 0.59833 0.0
C204 C 0.33145 0.06724 0.52491 0.0
C205 C 0.32073 0.06544 0.58504 0.0
C206 C 0.33244 0.06523 0.62151 0.0
C207 C 0.29664 0.06938 0.51767 0.0
C208 C 0.27347 0.06742 0.54435 0.0
C209 C 0.28591 0.06652 0.57775 0.0
C210 C 0.23629 0.06476 0.53829 0.0
C211 C 0.28516 0.07351 0.48149 0.0
C212 C 0.21457 0.08652 0.55547 0.0
C213 C 0.17949 0.0825 0.55165 0.0
C214 C 0.16542 0.05671 0.53042 0.0
C215 C 0.18717 0.03514 0.51299 0.0
C216 C 0.22225 0.0389 0.51718 0.0
H217 H 0.30494 0.08655 0.46675 0.0
H218 H 0.28042 0.04816 0.46958 0.0
H219 H 0.26152 0.08811 0.47975 0.0
H220 H 0.22478 0.10652 0.57205 0.0
H221 H 0.1634 0.09962 0.56533 0.0
H222 H 0.47192 0.9828 0.44282 0.0
H223 H 0.4748 0.97777 0.38147 0.0
H224 H 0.58226 0.96227 0.38953 0.0
H225 H 0.57967 0.96712 0.45111 0.0
H226 H 0.51458 0.02261 0.34344 0.0
H227 H 0.54928 0.8888 0.32 0.0
H228 H 0.53141 0.90326 0.35919 0.0
H229 H 0.57522 0.91169 0.35088 0.0
C230 C 0.4961 0.97763 0.43167 0.0
C231 C 0.5256 0.97547 0.45194 0.0
C232 C 0.49768 0.97483 0.39656 0.0
C233 C 0.52869 0.96954 0.38094 0.0
C234 C 0.55797 0.96587 0.40108 0.0
H235 H 0.59159 0.97014 0.17219 0.0
H236 H 0.58875 0.96758 0.23364 0.0
C237 C 0.55644 0.9687 0.4363 0.0
C238 C 0.53071 0.97094 0.34367 0.0
H239 H 0.55021 0.92497 0.27307 0.0
C240 C 0.52221 1.00122 0.328 0.0
C241 C 0.54094 0.94309 0.32369 0.0
C242 C 0.5495 0.90974 0.33916 0.0
C243 C 0.524 1.00455 0.29291 0.0
C244 C 0.53387 0.97659 0.27282 0.0
C245 C 0.54256 0.94634 0.2885 0.0
C246 C 0.53538 0.97829 0.23551 0.0
C247 C 0.51607 0.03826 0.27776 0.0
C248 C 0.50624 0.98491 0.21609 0.0
C249 C 0.50779 0.98657 0.18094 0.0
C250 C 0.53849 0.98133 0.16449 0.0
C251 C 0.56756 0.97441 0.18402 0.0
C252 C 0.56599 0.97284 0.21916 0.0
H253 H 0.51806 0.05918 0.2969 0.0
H254 H 0.53338 0.04409 0.25686 0.0
H255 H 0.48977 0.0374 0.26742 0.0
H256 H 0.48219 0.98853 0.22812 0.0
H257 H 0.48487 0.99168 0.16667 0.0
H258 H 0.94992 0.55721 0.0965 0.0
H259 H 0.94722 0.56398 0.15787 0.0
H260 H 0.03507 0.50204 0.16946 0.0
H261 H 0.03737 0.49435 0.1082 0.0
H262 H 0.98724 0.48653 0.21506 0.0
H263 H 1.00943 0.62561 0.21423 0.0
H264 H 0.97303 0.61123 0.18977 0.0
H265 H 0.0146 0.59901 0.17727 0.0
C266 C 0.96866 0.54499 0.11211 0.0
C267 C 0.99407 0.52548 0.09742 0.0
C268 C 0.96716 0.54902 0.14721 0.0
C269 C 0.99134 0.53409 0.16829 0.0
C270 C 0.01621 0.51392 0.15371 0.0
H271 H 0.06044 0.58816 0.36756 0.0
H272 H 0.04904 0.57948 0.30744 0.0
C273 C 0.01754 0.50961 0.11865 0.0
C274 C 0.99125 0.53983 0.20548 0.0
H275 H 0.99884 0.6015 0.26698 0.0
C276 C 0.98962 0.51167 0.22646 0.0
C277 C 0.99466 0.57265 0.22031 0.0
C278 C 0.99836 0.60385 0.1993 0.0
C279 C 0.99187 0.51537 0.2618 0.0
C280 C 0.99507 0.54821 0.2766 0.0
C281 C 0.99605 0.57637 0.25562 0.0
C282 C 1.00073 0.55389 0.31349 0.0
C283 C 0.99223 0.48403 0.28286 0.0
C284 C 0.97709 0.54282 0.33709 0.0
C285 C 0.98367 0.54757 0.37181 0.0
C286 C 0.01387 0.56376 0.38342 0.0
C287 C 0.03695 0.57555 0.35961 0.0
C288 C 0.03046 0.57064 0.32512 0.0
H289 H 0.99716 0.46093 0.26743 0.0
H290 H 0.0118 0.48641 0.30331 0.0
H291 H 0.96723 0.48061 0.29468 0.0
H292 H 0.95362 0.53047 0.3287 0.0
H293 H 0.96531 0.53834 0.38948 0.0
H294 H 0.63235 0.99197 0.66939 0.0
H295 H 0.62621 0.9856 0.73012 0.0
H296 H 0.5201 0.96129 0.71479 0.0
H297 H 0.52612 0.96701 0.65389 0.0
H298 H 0.58585 0.0253 0.76872 0.0
H299 H 0.54812 0.89038 0.78193 0.0
H300 H 0.56639 0.9064 0.74392 0.0
H301 H 0.52241 0.91269 0.75229 0.0
C302 C 0.60784 0.98454 0.67881 0.0
C303 C 0.57972 0.98006 0.65673 0.0
C304 C 0.60436 0.98099 0.71359 0.0
C305 C 0.57275 0.97278 0.72706 0.0
C306 C 0.54489 0.967 0.70499 0.0
H307 H 0.49811 0.97403 0.93278 0.0
H308 H 0.50346 0.97096 0.8713 0.0
C309 C 0.54837 0.9704 0.67013 0.0
C310 C 0.56848 0.97338 0.76424 0.0
H311 H 0.54319 0.92601 0.83068 0.0
C312 C 0.57672 1.0035 0.78227 0.0
C313 C 0.55625 0.94505 0.78189 0.0
C314 C 0.54805 0.91169 0.76411 0.0
C315 C 0.5729 1.00615 0.81734 0.0
C316 C 0.56095 0.97777 0.83502 0.0
C317 C 0.55236 0.94773 0.81704 0.0
C318 C 0.55778 0.97878 0.87228 0.0
C319 C 0.58113 0.03953 0.83512 0.0
C320 C 0.58659 0.98374 0.8932 0.0
C321 C 0.58364 0.98551 0.92828 0.0
C322 C 0.55179 0.98226 0.94319 0.0
C323 C 0.52299 0.97679 0.92215 0.0
C324 C 0.526 0.97493 0.88701 0.0
H325 H 0.58173 0.06079 0.81724 0.0
H326 H 0.56238 0.0451 0.85484 0.0
H327 H 0.60646 0.03827 0.84757 0.0
H328 H 0.61142 0.98623 0.88238 0.0
H329 H 0.60638 0.98955 0.94368 0.0
H330 H 0.96833 0.57997 0.58984 0.0
H331 H 0.96016 0.57847 0.65086 0.0
H332 H 0.96806 0.46991 0.64771 0.0
H333 H 0.97627 0.47102 0.58681 0.0
H334 H 0.91257 0.54036 0.69338 0.0
H335 H 0.04753 0.5066 0.71135 0.0
H336 H 0.03122 0.52371 0.67256 0.0
H337 H 0.02327 0.4801 0.68199 0.0
C338 C 0.96765 0.55569 0.60197 0.0
C339 C 0.97333 0.52564 0.58345 0.0
C340 C 0.96302 0.55491 0.63686 0.0
C341 C 0.96412 0.52415 0.65378 0.0
C342 C 0.96762 0.49395 0.63512 0.0
H343 H 0.92517 0.48078 0.86359 0.0
H344 H 0.92408 0.48305 0.80198 0.0
C345 C 0.97216 0.49466 0.60027 0.0
C346 C 0.964 0.52381 0.69114 0.0
H347 H 0.01396 0.5075 0.75996 0.0
C348 C 0.93467 0.53317 0.708 0.0
C349 C 0.99309 0.51491 0.71006 0.0
C350 C 0.02572 0.50601 0.69321 0.0
C351 C 0.9335 0.53327 0.74343 0.0
C352 C 0.96235 0.52353 0.76231 0.0
C353 C 0.99182 0.51473 0.7454 0.0
C354 C 0.96264 0.52249 0.79967 0.0
C355 C 0.90163 0.54428 0.76041 0.0
C356 C 0.98524 0.54338 0.81878 0.0
C357 C 0.98606 0.54207 0.85401 0.0
C358 C 0.96444 0.51961 0.87079 0.0
C359 C 0.94209 0.49845 0.85151 0.0
C360 C 0.94123 0.49986 0.81628 0.0
H361 H 0.88495 0.55849 0.74309 0.0
H362 H 0.88734 0.52159 0.76867 0.0
H363 H 0.90773 0.56042 0.78308 0.0
H364 H 1.00214 0.56085 0.8064 0.0
H365 H 1.00363 0.55864 0.86807 0.0
H366 H 0.09936 0.49074 0.92108 0.0
H367 H 0.16108 0.4901 0.92371 0.0
H368 H 0.16093 0.54404 0.01942 0.0
H369 H 0.09901 0.54572 0.01644 0.0
H370 H 0.20869 0.56932 0.97973 0.0
H371 H 0.21882 0.42992 0.97984 0.0
H372 H 0.19546 0.44425 0.94382 0.0
H373 H 0.17915 0.45081 0.98548 0.0
C374 C 0.1124 0.50238 0.94279 0.0
C375 C 0.09419 0.51809 0.96868 0.0
C376 C 0.14776 0.5018 0.94434 0.0
C377 C 0.16575 0.51634 0.97212 0.0
C378 C 0.14766 0.53245 0.99782 0.0
H379 H 0.3751 0.47645 0.02395 0.0
H380 H 0.3136 0.47877 0.01962 0.0
C381 C 0.11224 0.53337 0.99611 0.0
C382 C 0.20339 0.51518 0.97407 0.0
H383 H 0.26981 0.46129 0.9712 0.0
C384 C 0.22206 0.54568 0.97801 0.0
C385 C 0.22092 0.48432 0.97232 0.0
C386 C 0.20256 0.45046 0.97049 0.0
C387 C 0.25764 0.54621 0.97987 0.0
C388 C 0.27518 0.51544 0.97673 0.0
C389 C 0.25648 0.48494 0.97314 0.0
C390 C 0.31283 0.51404 0.97861 0.0
C391 C 0.27597 0.57968 0.98611 0.0
C392 C 0.33314 0.53263 0.9566 0.0
C393 C 0.36853 0.53163 0.95927 0.0
C394 C 0.38432 0.51154 0.9836 0.0
C395 C 0.36388 0.49217 1.00487 0.0
C396 C 0.32861 0.49348 1.00244 0.0
H397 H 0.25918 0.5988 0.99751 0.0
H398 H 0.29839 0.57688 1.00309 0.0
H399 H 0.28472 0.58956 0.96173 0.0
H400 H 0.32165 0.54793 0.93734 0.0
H401 H 0.38349 0.54666 0.94233 0.0
H402 H 0.49953 0.36545 0.98169 0.0
H403 H 0.5095 0.30647 0.99439 0.0
H404 H 0.5175 0.33211 0.10055 0.0
H405 H 0.50718 0.39168 0.08806 0.0
H406 H 0.5662 0.27892 0.02771 0.0
H407 H 0.44613 0.25369 0.09458 0.0
H408 H 0.45219 0.29018 0.06858 0.0
H409 H 0.47164 0.2892 0.10985 0.0
C410 C 0.5033 0.35869 1.00781 0.0
C411 C 0.50242 0.38332 0.0339 0.0
C412 C 0.50909 0.32491 0.01499 0.0
C413 C 0.51397 0.31486 0.04839 0.0
C414 C 0.51334 0.3393 0.07461 0.0
H415 H 0.58358 0.11041 0.09308 0.0
H416 H 0.57888 0.17205 0.09202 0.0
C417 C 0.50757 0.3733 0.06743 0.0
C418 C 0.51982 0.2787 0.05519 0.0
H419 H 0.48319 0.2082 0.08833 0.0
C420 C 0.54826 0.26347 0.04127 0.0
C421 C 0.49615 0.25864 0.07258 0.0
C422 C 0.46464 0.27355 0.08711 0.0
C423 C 0.55337 0.22857 0.04369 0.0
C424 C 0.52958 0.20845 0.06086 0.0
C425 C 0.50145 0.22377 0.07533 0.0
C426 C 0.53235 0.17116 0.06228 0.0
C427 C 0.58345 0.21328 0.02672 0.0
C428 C 0.50746 0.15025 0.0464 0.0
C429 C 0.51001 0.11507 0.04697 0.0
C430 C 0.53746 0.10007 0.06365 0.0
C431 C 0.56222 0.12112 0.07984 0.0
C432 C 0.55965 0.15635 0.0792 0.0
H433 H 0.59545 0.23099 0.00893 0.0
H434 H 0.60267 0.20682 0.0462 0.0
H435 H 0.57589 0.18963 0.01267 0.0
H436 H 0.48617 0.16119 0.03322 0.0
H437 H 0.49044 0.09967 0.03435 0.0
H438 H 0.8682 0.56187 0.95266 0.0
H439 H 0.80652 0.56436 0.94619 0.0
H440 H 0.79513 0.48514 0.01835 0.0
H441 H 0.85667 0.48241 0.02503 0.0
H442 H 0.75817 0.50927 0.92706 0.0
H443 H 0.73748 0.56525 0.05458 0.0
H444 H 0.77824 0.56632 0.03483 0.0
H445 H 0.76301 0.52814 0.05359 0.0
C446 C 0.85259 0.54501 0.96723 0.0
C447 C 0.8674 0.52207 0.98954 0.0
C448 C 0.81736 0.5464 0.96338 0.0
C449 C 0.7963 0.52514 0.982 0.0
C450 C 0.81096 0.50202 1.00402 0.0
H451 H 0.5831 0.47304 0.96719 0.0
H452 H 0.64457 0.47445 0.96124 0.0
C453 C 0.84615 0.50046 1.00774 0.0
C454 C 0.75896 0.5273 0.9787 0.0
H455 H 0.68869 0.54712 0.023 0.0
C456 C 0.74292 0.51768 0.94794 0.0
C457 C 0.73923 0.53864 1.00587 0.0
C458 C 0.75527 0.55047 0.03904 0.0
C459 C 0.70749 0.51833 0.94393 0.0
C460 C 0.6877 0.52872 0.97145 0.0
C461 C 0.70388 0.53906 1.00193 0.0
C462 C 0.65012 0.52853 0.96972 0.0
C463 C 0.69152 0.50814 0.91026 0.0
C464 C 0.6327 0.55853 0.97588 0.0
C465 C 0.59757 0.55783 0.97931 0.0
C466 C 0.57912 0.52702 0.977 0.0
C467 C 0.59644 0.49723 0.969 0.0
C468 C 0.63163 0.49799 0.9655 0.0
H469 H 0.71011 0.50919 0.88966 0.0
H470 H 0.68156 0.48176 0.91147 0.0
H471 H 0.67007 0.52471 0.90392 0.0
H472 H 0.64648 0.58237 0.97925 0.0
H473 H 0.58513 0.58126 0.98543 0.0
H474 H 0.53677 0.58314 0.07937 0.0
H475 H 0.552 0.6432 0.0858 0.0
H476 H 0.44632 0.66815 0.08338 0.0
H477 H 0.43081 0.60826 0.07738 0.0
H478 H 0.53581 0.68912 0.03703 0.0
H479 H 0.48352 0.7297 0.15958 0.0
H480 H 0.48993 0.68579 0.14848 0.0
H481 H 0.45316 0.70708 0.13292 0.0
C482 C 0.51671 0.6013 0.08115 0.0
C483 C 0.48254 0.59086 0.07771 0.0
C484 C 0.52549 0.63565 0.08471 0.0
C485 C 0.50032 0.66015 0.08527 0.0
C486 C 0.46617 0.64969 0.08364 0.0
H487 H 0.481 0.87329 0.05837 0.0
H488 H 0.47407 0.81253 0.06658 0.0
C489 C 0.45735 0.61537 0.08004 0.0
C490 C 0.50959 0.6966 0.0836 0.0
H491 H 0.49692 0.77372 0.12106 0.0
C492 C 0.52777 0.7076 0.05567 0.0
C493 C 0.4989 0.72064 0.10783 0.0
C494 C 0.48057 0.71021 0.13906 0.0
C495 C 0.5344 0.7421 0.0506 0.0
C496 C 0.52302 0.7662 0.07443 0.0
C497 C 0.50553 0.75517 0.10278 0.0
C498 C 0.52773 0.80306 0.06964 0.0
C499 C 0.55228 0.75255 0.01909 0.0
C500 C 0.56024 0.81792 0.06879 0.0
C501 C 0.56432 0.8527 0.06394 0.0
C502 C 0.53593 0.87325 0.06006 0.0
C503 C 0.50341 0.85824 0.06115 0.0
C504 C 0.49938 0.82351 0.06596 0.0
H505 H 0.55259 0.7317 0.99987 0.0
H506 H 0.54001 0.77472 1.0077 0.0
H507 H 0.57889 0.75985 0.02569 0.0
H508 H 0.58244 0.80266 0.07212 0.0
H509 H 0.58971 0.86349 0.06348 0.0
loop_
_geom_bond_atom_site_label_1
_geom_bond_atom_site_label_2
_geom_bond_distance
_geom_bond_site_symmetry_2
_ccdc_geom_bond_type
Mg0 O7 2.141 1_455 S
Mg0 O8 2.048 . S
Mg0 O9 2.048 . S
Mg0 O12 2.141 1_545 S
C1 O2 1.313 . S
C1 O8 1.195 . S
O2 C1 1.313 . S
C3 O4 1.245 . S
C3 O12 1.289 . S
O4 C3 1.245 . S
C5 O6 1.245 . S
C5 O7 1.289 . S
O6 C5 1.245 . S
O7 Mg0 2.141 1_655 S
O7 C5 1.289 . S
O8 Mg0 2.048 . S
O8 C1 1.195 . S
O9 Mg0 2.048 . S
O9 C10 1.195 . S
C10 O9 1.195 . S
C10 O11 1.313 . S
O11 C10 1.313 . S
O12 Mg0 2.141 1_565 S
O12 C3 1.289 . S
Mg13 O20 2.141 1_554 S
Mg13 O21 2.048 . S
Mg13 O22 2.048 . S
Mg13 O25 2.141 1_545 S
C14 O15 1.313 . S
C14 O21 1.195 . S
O15 C14 1.313 . S
C16 O17 1.245 . S
C16 O25 1.289 . S
O17 C16 1.245 . S
C18 O19 1.245 . S
C18 O20 1.289 . S
O19 C18 1.245 . S
O20 Mg13 2.141 1_556 S
O20 C18 1.289 . S
O21 Mg13 2.048 . S
O21 C14 1.195 . S
O22 Mg13 2.048 . S
O22 C23 1.195 . S
C23 O22 1.195 . S
C23 O24 1.313 . S
O24 C23 1.313 . S
O25 Mg13 2.141 1_565 S
O25 C16 1.289 . S
Mg26 O33 2.141 1_554 S
Mg26 O34 2.048 . S
Mg26 O35 2.048 . S
Mg26 O38 2.141 1_455 S
C27 O28 1.313 . S
C27 O34 1.195 . S
O28 C27 1.313 . S
C29 O30 1.245 . S
C29 O38 1.289 . S
O30 C29 1.245 . S
C31 O32 1.245 . S
C31 O33 1.289 . S
O32 C31 1.245 . S
O33 Mg26 2.141 1_556 S
O33 C31 1.289 . S
O34 Mg26 2.048 . S
O34 C27 1.195 . S
O35 Mg26 2.048 . S
O35 C36 1.195 . S
C36 O35 1.195 . S
C36 O37 1.313 . S
O37 C36 1.313 . S
O38 Mg26 2.141 1_655 S
O38 C29 1.289 . S
Mg39 O46 2.141 . S
Mg39 O47 2.048 . S
Mg39 O48 2.048 . S
Mg39 O51 2.141 . S
C40 O41 1.313 1_554 S
C40 O47 1.195 . S
O41 C40 1.313 1_556 S
C42 O43 1.245 1_554 S
C42 O51 1.289 . S
O43 C42 1.245 1_556 S
C44 O45 1.245 1_554 S
C44 O46 1.289 . S
O45 C44 1.245 1_556 S
O46 Mg39 2.141 . S
O46 C44 1.289 . S
O47 Mg39 2.048 . S
O47 C40 1.195 . S
O48 Mg39 2.048 . S
O48 C49 1.195 . S
C49 O48 1.195 . S
C49 O50 1.313 1_554 S
O50 C49 1.313 1_556 S
O51 Mg39 2.141 . S
O51 C42 1.289 . S
Mg52 O59 2.141 1_455 S
Mg52 O60 2.048 . S
Mg52 O61 2.048 . S
Mg52 O64 2.141 1_455 S
C53 O54 1.313 . S
C53 O60 1.195 . S
O54 C53 1.313 . S
C55 O56 1.245 . S
C55 O64 1.285 1_455 S
O56 C55 1.245 . S
C57 O58 1.245 . S
C57 O59 1.285 1_455 S
O58 C57 1.245 . S
O59 Mg52 2.141 1_655 S
O59 C57 1.285 1_655 S
O60 Mg52 2.048 . S
O60 C53 1.195 . S
O61 Mg52 2.048 . S
O61 C62 1.195 . S
C62 O61 1.195 . S
C62 O63 1.313 . S
O63 C62 1.313 . S
O64 Mg52 2.141 1_655 S
O64 C55 1.285 1_655 S
Mg65 O72 2.141 . S
Mg65 O73 2.048 . S
Mg65 O74 2.048 . S
Mg65 O77 2.141 . S
C66 O67 1.313 1_545 S
C66 O73 1.195 . S
O67 C66 1.313 1_565 S
C68 O69 1.245 1_545 S
C68 O77 1.289 . S
O69 C68 1.245 1_565 S
C70 O71 1.245 1_545 S
C70 O72 1.289 . S
O71 C70 1.245 1_565 S
O72 Mg65 2.141 . S
O72 C70 1.289 . S
O73 Mg65 2.048 . S
O73 C66 1.195 . S
O74 Mg65 2.048 . S
O74 C75 1.195 . S
C75 O74 1.195 . S
C75 O76 1.313 1_545 S
O76 C75 1.313 1_565 S
O77 Mg65 2.141 . S
O77 C68 1.289 . S
H78 C86 0.929 . S
H79 C88 0.930 . S
H80 C90 0.930 . S
H81 C93 0.929 . S
H82 C96 0.930 . S
H83 C98 0.960 . S
H84 C98 0.960 . S
H85 C98 0.960 . S
C86 H78 0.929 . S
C86 C87 1.377 . S
C86 C88 1.384 . S
C87 C86 1.377 . S
C87 C93 1.390 1_455 S
C88 H79 0.930 . S
C88 C86 1.384 . S
C88 C89 1.372 . S
C89 C88 1.372 . S
C89 C90 1.400 1_455 S
C89 C94 1.490 . S
C90 H80 0.930 . S
C90 C89 1.400 1_655 S
C90 C93 1.386 . S
H91 C107 0.930 . S
H92 C108 0.931 . S
C93 H81 0.929 . S
C93 C87 1.390 1_655 S
C93 C90 1.386 . S
C94 C89 1.490 . S
C94 C96 1.395 . S
C94 C97 1.403 . S
H95 C101 0.930 . S
C96 H82 0.930 . S
C96 C94 1.395 . S
C96 C99 1.403 . S
C97 C94 1.403 . S
C97 C98 1.524 . S
C97 C101 1.400 . S
C98 H83 0.960 . S
C98 H84 0.960 . S
C98 H85 0.960 . S
C98 C97 1.524 . S
C99 C96 1.403 . S
C99 C100 1.392 . S
C99 C103 1.495 1_455 S
C100 C99 1.392 . S
C100 C101 1.385 . S
C100 C102 1.478 . S
C101 H95 0.930 . S
C101 C97 1.400 . S
C101 C100 1.385 . S
C102 C100 1.478 . S
C102 C104 1.381 . S
C102 C108 1.383 1_455 S
C103 C99 1.495 1_655 S
C103 H109 0.959 . S
C103 H110 0.961 . S
C103 H111 0.960 1_655 S
C104 C102 1.381 . S
C104 C105 1.394 . S
C104 H112 0.930 . S
C105 C104 1.394 . S
C105 C106 1.383 . S
C105 H113 0.929 . S
C106 C105 1.383 . S
C106 C107 1.377 1_455 S
C107 H91 0.930 . S
C107 C106 1.377 1_655 S
C107 C108 1.379 . S
C108 H92 0.931 . S
C108 C102 1.383 1_655 S
C108 C107 1.379 . S
H109 C103 0.959 . S
H110 C103 0.961 . S
H111 C103 0.960 1_455 S
H112 C104 0.930 . S
H113 C105 0.929 . S
H114 C122 0.929 . S
H115 C124 0.930 . S
H116 C126 0.930 . S
H117 C129 0.929 . S
H118 C132 0.930 . S
H119 C134 0.960 . S
H120 C134 0.960 . S
H121 C134 0.960 . S
C122 H114 0.929 . S
C122 C123 1.377 1_565 S
C122 C124 1.384 . S
C123 C122 1.377 1_545 S
C123 C129 1.390 . S
C124 H115 0.930 . S
C124 C122 1.384 . S
C124 C125 1.372 1_565 S
C125 C124 1.372 1_545 S
C125 C126 1.400 . S
C125 C130 1.490 . S
C126 H116 0.930 . S
C126 C125 1.400 . S
C126 C129 1.386 . S
H127 C143 0.930 . S
H128 C144 0.931 . S
C129 H117 0.929 . S
C129 C123 1.390 . S
C129 C126 1.386 . S
C130 C125 1.490 . S
C130 C132 1.395 1_545 S
C130 C133 1.403 . S
H131 C137 0.930 . S
C132 H118 0.930 . S
C132 C130 1.395 1_565 S
C132 C135 1.403 . S
C133 C130 1.403 . S
C133 C134 1.524 . S
C133 C137 1.400 . S
C134 H119 0.960 . S
C134 H120 0.960 . S
C134 H121 0.960 . S
C134 C133 1.524 . S
C135 C132 1.403 . S
C135 C136 1.392 1_565 S
C135 C139 1.495 . S
C136 C135 1.392 1_545 S
C136 C137 1.385 . S
C136 C138 1.478 . S
C137 H131 0.930 . S
C137 C133 1.400 . S
C137 C136 1.385 . S
C138 C136 1.478 . S
C138 C140 1.381 1_545 S
C138 C144 1.383 . S
C139 C135 1.495 . S
C139 H145 0.959 . S
C139 H146 0.961 . S
C139 H147 0.960 . S
C140 C138 1.381 1_565 S
C140 C141 1.394 . S
C140 H148 0.930 . S
C141 C140 1.394 . S
C141 C142 1.383 1_565 S
C141 H149 0.929 . S
C142 C141 1.383 1_545 S
C142 C143 1.377 . S
C143 H127 0.930 . S
C143 C142 1.377 . S
C143 C144 1.379 . S
C144 H128 0.931 . S
C144 C138 1.383 . S
C144 C143 1.379 . S
H145 C139 0.959 . S
H146 C139 0.961 . S
H147 C139 0.960 . S
H148 C140 0.930 . S
H149 C141 0.929 . S
H150 C158 0.929 . S
H151 C160 0.930 . S
H152 C162 0.930 . S
H153 C165 0.929 . S
H154 C168 0.930 . S
H155 C170 0.960 . S
H156 C170 0.960 . S
H157 C170 0.960 . S
C158 H150 0.929 . S
C158 C159 1.377 1_655 S
C158 C160 1.384 . S
C159 C158 1.377 1_455 S
C159 C165 1.390 . S
C160 H151 0.930 . S
C160 C158 1.384 . S
C160 C161 1.372 1_655 S
C161 C160 1.372 1_455 S
C161 C162 1.400 . S
C161 C166 1.490 . S
C162 H152 0.930 . S
C162 C161 1.400 . S
C162 C165 1.386 . S
H163 C179 0.930 . S
H164 C180 0.931 . S
C165 H153 0.929 . S
C165 C159 1.390 . S
C165 C162 1.386 . S
C166 C161 1.490 . S
C166 C168 1.395 1_455 S
C166 C169 1.403 . S
H167 C173 0.930 . S
C168 H154 0.930 . S
C168 C166 1.395 1_655 S
C168 C171 1.403 . S
C169 C166 1.403 . S
C169 C170 1.524 . S
C169 C173 1.400 . S
C170 H155 0.960 . S
C170 H156 0.960 . S
C170 H157 0.960 . S
C170 C169 1.524 . S
C171 C168 1.403 . S
C171 C172 1.392 1_655 S
C171 C175 1.495 . S
C172 C171 1.392 1_455 S
C172 C173 1.385 . S
C172 C174 1.478 . S
C173 H167 0.930 . S
C173 C169 1.400 . S
C173 C172 1.385 . S
C174 C172 1.478 . S
C174 C176 1.381 1_455 S
C174 C180 1.383 . S
C175 C171 1.495 . S
C175 H181 0.959 . S
C175 H182 0.961 . S
C175 H183 0.960 . S
C176 C174 1.381 1_655 S
C176 C177 1.394 . S
C176 H184 0.930 . S
C177 C176 1.394 . S
C177 C178 1.383 1_655 S
C177 H185 0.929 . S
C178 C177 1.383 1_455 S
C178 C179 1.377 . S
C179 H163 0.930 . S
C179 C178 1.377 . S
C179 C180 1.379 . S
C180 H164 0.931 . S
C180 C174 1.383 . S
C180 C179 1.379 . S
H181 C175 0.959 . S
H182 C175 0.961 . S
H183 C175 0.960 . S
H184 C176 0.930 . S
H185 C177 0.929 . S
H186 C194 0.929 . S
H187 C196 0.930 . S
H188 C198 0.930 . S
H189 C201 0.929 . S
H190 C204 0.930 . S
H191 C206 0.960 . S
H192 C206 0.960 1_545 S
H193 C206 0.960 . S
C194 H186 0.929 . S
C194 C195 1.377 . S
C194 C196 1.384 . S
C195 C194 1.377 . S
C195 C201 1.390 1_545 S
C196 H187 0.930 . S
C196 C194 1.384 . S
C196 C197 1.372 . S
C197 C196 1.372 . S
C197 C198 1.400 1_545 S
C197 C202 1.490 . S
C198 H188 0.930 . S
C198 C197 1.400 1_565 S
C198 C201 1.386 . S
H199 C215 0.930 . S
H200 C216 0.931 . S
C201 H189 0.929 . S
C201 C195 1.390 1_565 S
C201 C198 1.386 . S
C202 C197 1.490 . S
C202 C204 1.395 . S
C202 C205 1.403 . S
H203 C209 0.930 1_565 S
C204 H190 0.930 . S
C204 C202 1.395 . S
C204 C207 1.403 . S
C205 C202 1.403 . S
C205 C206 1.524 1_545 S
C205 C209 1.400 . S
C206 H191 0.960 . S
C206 H192 0.960 1_565 S
C206 H193 0.960 . S
C206 C205 1.524 1_565 S
C207 C204 1.403 . S
C207 C208 1.392 . S
C207 C211 1.495 . S
C208 C207 1.392 . S
C208 C209 1.385 . S
C208 C210 1.478 . S
C209 H203 0.930 1_545 S
C209 C205 1.400 . S
C209 C208 1.385 . S
C210 C208 1.478 . S
C210 C212 1.381 . S
C210 C216 1.383 1_545 S
C211 C207 1.495 . S
C211 H217 0.959 . S
C211 H218 0.961 . S
C211 H219 0.960 . S
C212 C210 1.381 . S
C212 C213 1.394 . S
C212 H220 0.930 . S
C213 C212 1.394 . S
C213 C214 1.383 . S
C213 H221 0.929 . S
C214 C213 1.383 . S
C214 C215 1.377 1_545 S
C215 H199 0.930 . S
C215 C214 1.377 1_565 S
C215 C216 1.379 . S
C216 H200 0.931 . S
C216 C210 1.383 1_565 S
C216 C215 1.379 . S
H217 C211 0.959 . S
H218 C211 0.961 . S
H219 C211 0.960 . S
H220 C212 0.930 . S
H221 C213 0.929 . S
H222 C230 0.929 . S
H223 C232 0.930 . S
H224 C234 0.930 . S
H225 C237 0.929 . S
H226 C240 0.930 . S
H227 C242 0.960 . S
H228 C242 0.960 1_565 S
H229 C242 0.960 . S
C230 H222 0.929 . S
C230 C231 1.377 1_565 S
C230 C232 1.384 . S
C231 C230 1.377 1_545 S
C231 C237 1.390 . S
C232 H223 0.930 . S
C232 C230 1.384 . S
C232 C233 1.372 1_565 S
C233 C232 1.372 1_545 S
C233 C234 1.400 . S
C233 C238 1.490 . S
C234 H224 0.930 . S
C234 C233 1.400 . S
C234 C237 1.386 . S
H235 C251 0.930 . S
H236 C252 0.931 . S
C237 H225 0.929 . S
C237 C231 1.390 . S
C237 C234 1.386 . S
C238 C233 1.490 . S
C238 C240 1.395 . S
C238 C241 1.403 . S
H239 C245 0.930 . S
C240 H226 0.930 . S
C240 C238 1.395 . S
C240 C243 1.403 . S
C241 C238 1.403 . S
C241 C242 1.524 . S
C241 C245 1.400 . S
C242 H227 0.960 . S
C242 H228 0.960 1_545 S
C242 H229 0.960 . S
C242 C241 1.524 . S
C243 C240 1.403 . S
C243 C244 1.392 . S
C243 C247 1.495 . S
C244 C243 1.392 . S
C244 C245 1.385 . S
C244 C246 1.478 . S
C245 H239 0.930 . S
C245 C241 1.400 . S
C245 C244 1.385 . S
C246 C244 1.478 . S
C246 C248 1.381 1_545 S
C246 C252 1.383 . S
C247 C243 1.495 . S
C247 H253 0.959 . S
C247 H254 0.961 . S
C247 H255 0.960 . S
C248 C246 1.381 1_565 S
C248 C249 1.394 . S
C248 H256 0.930 . S
C249 C248 1.394 . S
C249 C250 1.383 1_565 S
C249 H257 0.929 . S
C250 C249 1.383 1_545 S
C250 C251 1.377 . S
C251 H235 0.930 . S
C251 C250 1.377 . S
C251 C252 1.379 . S
C252 H236 0.931 . S
C252 C246 1.383 . S
C252 C251 1.379 . S
H253 C247 0.959 . S
H254 C247 0.961 . S
H255 C247 0.960 . S
H256 C248 0.930 . S
H257 C249 0.929 . S
H258 C266 0.929 . S
H259 C268 0.930 . S
H260 C270 0.930 . S
H261 C273 0.929 . S
H262 C276 0.930 . S
H263 C278 0.960 . S
H264 C278 0.960 . S
H265 C278 0.960 . S
C266 H258 0.929 . S
C266 C267 1.377 1_655 S
C266 C268 1.384 . S
C267 C266 1.377 1_455 S
C267 C273 1.390 . S
C268 H259 0.930 . S
C268 C266 1.384 . S
C268 C269 1.372 1_655 S
C269 C268 1.372 1_455 S
C269 C270 1.400 . S
C269 C274 1.490 . S
C270 H260 0.930 . S
C270 C269 1.400 . S
C270 C273 1.386 . S
H271 C287 0.930 . S
H272 C288 0.931 . S
C273 H261 0.929 . S
C273 C267 1.390 . S
C273 C270 1.386 . S
C274 C269 1.490 . S
C274 C276 1.395 1_455 S
C274 C277 1.403 . S
H275 C281 0.930 . S
C276 H262 0.930 . S
C276 C274 1.395 1_655 S
C276 C279 1.403 . S
C277 C274 1.403 . S
C277 C278 1.524 . S
C277 C281 1.400 . S
C278 H263 0.960 . S
C278 H264 0.960 . S
C278 H265 0.960 . S
C278 C277 1.524 . S
C279 C276 1.403 . S
C279 C280 1.392 1_655 S
C279 C283 1.495 . S
C280 C279 1.392 1_455 S
C280 C281 1.385 . S
C280 C282 1.478 . S
C281 H275 0.930 . S
C281 C277 1.400 . S
C281 C280 1.385 . S
C282 C280 1.478 . S
C282 C284 1.381 1_455 S
C282 C288 1.383 . S
C283 C279 1.495 . S
C283 H289 0.959 . S
C283 H290 0.961 . S
C283 H291 0.960 . S
C284 C282 1.381 1_655 S
C284 C285 1.394 . S
C284 H292 0.930 . S
C285 C284 1.394 . S
C285 C286 1.383 1_655 S
C285 H293 0.929 . S
C286 C285 1.383 1_455 S
C286 C287 1.377 . S
C287 H271 0.930 . S
C287 C286 1.377 . S
C287 C288 1.379 . S
C288 H272 0.931 . S
C288 C282 1.383 . S
C288 C287 1.379 . S
H289 C283 0.959 . S
H290 C283 0.961 . S
H291 C283 0.960 . S
H292 C284 0.930 . S
H293 C285 0.929 . S
H294 C302 0.929 . S
H295 C304 0.930 . S
H296 C306 0.930 . S
H297 C309 0.929 . S
H298 C312 0.930 . S
H299 C314 0.960 . S
H300 C314 0.960 . S
H301 C314 0.960 . S
C302 H294 0.929 . S
C302 C303 1.377 . S
C302 C304 1.384 . S
C303 C302 1.377 . S
C303 C309 1.390 . S
C304 H295 0.930 . S
C304 C302 1.384 . S
C304 C305 1.372 . S
C305 C304 1.372 . S
C305 C306 1.400 . S
C305 C310 1.490 . S
C306 H296 0.930 . S
C306 C305 1.400 . S
C306 C309 1.386 . S
H307 C323 0.930 . S
H308 C324 0.931 . S
C309 H297 0.929 . S
C309 C303 1.390 . S
C309 C306 1.386 . S
C310 C305 1.490 . S
C310 C312 1.395 . S
C310 C313 1.403 1_545 S
H311 C317 0.930 . S
C312 H298 0.930 . S
C312 C310 1.395 . S
C312 C315 1.403 . S
C313 C310 1.403 1_565 S
C313 C314 1.524 . S
C313 C317 1.400 . S
C314 H299 0.960 . S
C314 H300 0.960 . S
C314 H301 0.960 . S
C314 C313 1.524 . S
C315 C312 1.403 . S
C315 C316 1.392 . S
C315 C319 1.495 . S
C316 C315 1.392 . S
C316 C317 1.385 1_545 S
C316 C318 1.478 . S
C317 H311 0.930 . S
C317 C313 1.400 . S
C317 C316 1.385 1_565 S
C318 C316 1.478 . S
C318 C320 1.381 . S
C318 C324 1.383 . S
C319 C315 1.495 . S
C319 H325 0.959 . S
C319 H326 0.961 . S
C319 H327 0.960 . S
C320 C318 1.381 . S
C320 C321 1.394 . S
C320 H328 0.930 . S
C321 C320 1.394 . S
C321 C322 1.383 . S
C321 H329 0.929 . S
C322 C321 1.383 . S
C322 C323 1.377 . S
C323 H307 0.930 . S
C323 C322 1.377 . S
C323 C324 1.379 . S
C324 H308 0.931 . S
C324 C318 1.383 . S
C324 C323 1.379 . S
H325 C319 0.959 . S
H326 C319 0.961 . S
H327 C319 0.960 . S
H328 C320 0.930 . S
H329 C321 0.929 . S
H330 C338 0.929 . S
H331 C340 0.930 . S
H332 C342 0.930 . S
H333 C345 0.929 . S
H334 C348 0.930 . S
H335 C350 0.960 . S
H336 C350 0.960 . S
H337 C350 0.960 . S
C338 H330 0.929 . S
C338 C339 1.377 1_655 S
C338 C340 1.384 . S
C339 C338 1.377 1_455 S
C339 C345 1.390 . S
C340 H331 0.930 . S
C340 C338 1.384 . S
C340 C341 1.372 1_655 S
C341 C340 1.372 1_455 S
C341 C342 1.400 . S
C341 C346 1.490 . S
C342 H332 0.930 . S
C342 C341 1.400 . S
C342 C345 1.386 . S
H343 C359 0.930 . S
H344 C360 0.931 . S
C345 H333 0.929 . S
C345 C339 1.390 . S
C345 C342 1.386 . S
C346 C341 1.490 . S
C346 C348 1.395 1_455 S
C346 C349 1.403 . S
H347 C353 0.930 . S
C348 H334 0.930 . S
C348 C346 1.395 1_655 S
C348 C351 1.403 . S
C349 C346 1.403 . S
C349 C350 1.524 . S
C349 C353 1.400 . S
C350 H335 0.960 . S
C350 H336 0.960 . S
C350 H337 0.960 . S
C350 C349 1.524 . S
C351 C348 1.403 . S
C351 C352 1.392 1_655 S
C351 C355 1.495 . S
C352 C351 1.392 1_455 S
C352 C353 1.385 . S
C352 C354 1.478 . S
C353 H347 0.930 . S
C353 C349 1.400 . S
C353 C352 1.385 . S
C354 C352 1.478 . S
C354 C356 1.381 1_455 S
C354 C360 1.383 . S
C355 C351 1.495 . S
C355 H361 0.959 . S
C355 H362 0.961 . S
C355 H363 0.960 . S
C356 C354 1.381 1_655 S
C356 C357 1.394 . S
C356 H364 0.930 . S
C357 C356 1.394 . S
C357 C358 1.383 1_655 S
C357 H365 0.929 . S
C358 C357 1.383 1_455 S
C358 C359 1.377 . S
C359 H343 0.930 . S
C359 C358 1.377 . S
C359 C360 1.379 . S
C360 H344 0.931 . S
C360 C354 1.383 . S
C360 C359 1.379 . S
H361 C355 0.959 . S
H362 C355 0.961 . S
H363 C355 0.960 . S
H364 C356 0.930 . S
H365 C357 0.929 . S
H366 C374 0.929 . S
H367 C376 0.930 . S
H368 C378 0.930 . S
H369 C381 0.929 . S
H370 C384 0.930 . S
H371 C386 0.960 . S
H372 C386 0.960 . S
H373 C386 0.960 . S
C374 H366 0.929 . S
C374 C375 1.377 1_556 S
C374 C376 1.384 . S
C375 C374 1.377 1_554 S
C375 C381 1.390 . S
C376 H367 0.930 . S
C376 C374 1.384 . S
C376 C377 1.372 1_556 S
C377 C376 1.372 1_554 S
C377 C378 1.400 . S
C377 C382 1.490 . S
C378 H368 0.930 . S
C378 C377 1.400 . S
C378 C381 1.386 . S
H379 C395 0.930 . S
H380 C396 0.931 . S
C381 H369 0.929 . S
C381 C375 1.390 . S
C381 C378 1.386 . S
C382 C377 1.490 . S
C382 C384 1.395 1_554 S
C382 C385 1.403 . S
H383 C389 0.930 . S
C384 H370 0.930 . S
C384 C382 1.395 1_556 S
C384 C387 1.403 . S
C385 C382 1.403 . S
C385 C386 1.524 . S
C385 C389 1.400 . S
C386 H371 0.960 . S
C386 H372 0.960 . S
C386 H373 0.960 . S
C386 C385 1.524 . S
C387 C384 1.403 . S
C387 C388 1.392 1_556 S
C387 C391 1.495 . S
C388 C387 1.392 1_554 S
C388 C389 1.385 . S
C388 C390 1.478 . S
C389 H383 0.930 . S
C389 C385 1.400 . S
C389 C388 1.385 . S
C390 C388 1.478 . S
C390 C392 1.381 1_554 S
C390 C396 1.383 . S
C391 C387 1.495 . S
C391 H397 0.959 . S
C391 H398 0.961 . S
C391 H399 0.960 . S
C392 C390 1.381 1_556 S
C392 C393 1.394 . S
C392 H400 0.930 . S
C393 C392 1.394 . S
C393 C394 1.383 1_556 S
C393 H401 0.929 . S
C394 C393 1.383 1_554 S
C394 C395 1.377 . S
C395 H379 0.930 . S
C395 C394 1.377 . S
C395 C396 1.379 . S
C396 H380 0.931 . S
C396 C390 1.383 . S
C396 C395 1.379 . S
H397 C391 0.959 . S
H398 C391 0.961 . S
H399 C391 0.960 . S
H400 C392 0.930 . S
H401 C393 0.929 . S
H402 C410 0.929 . S
H403 C412 0.930 . S
H404 C414 0.930 . S
H405 C417 0.929 . S
H406 C420 0.930 . S
H407 C422 0.960 . S
H408 C422 0.960 . S
H409 C422 0.960 . S
C410 H402 0.929 . S
C410 C411 1.377 1_556 S
C410 C412 1.384 . S
C411 C410 1.377 1_554 S
C411 C417 1.390 . S
C412 H403 0.930 . S
C412 C410 1.384 . S
C412 C413 1.372 1_556 S
C413 C412 1.372 1_554 S
C413 C414 1.400 . S
C413 C418 1.490 . S
C414 H404 0.930 . S
C414 C413 1.400 . S
C414 C417 1.386 . S
H415 C431 0.930 . S
H416 C432 0.931 . S
C417 H405 0.929 . S
C417 C411 1.390 . S
C417 C414 1.386 . S
C418 C413 1.490 . S
C418 C420 1.395 1_554 S
C418 C421 1.403 . S
H419 C425 0.930 . S
C420 H406 0.930 . S
C420 C418 1.395 1_556 S
C420 C423 1.403 . S
C421 C418 1.403 . S
C421 C422 1.524 . S
C421 C425 1.400 . S
C422 H407 0.960 . S
C422 H408 0.960 . S
C422 H409 0.960 . S
C422 C421 1.524 . S
C423 C420 1.403 . S
C423 C424 1.392 1_556 S
C423 C427 1.495 . S
C424 C423 1.392 1_554 S
C424 C425 1.385 . S
C424 C426 1.478 . S
C425 H419 0.930 . S
C425 C421 1.400 . S
C425 C424 1.385 . S
C426 C424 1.478 . S
C426 C428 1.381 1_554 S
C426 C432 1.383 . S
C427 C423 1.495 . S
C427 H433 0.959 . S
C427 H434 0.961 . S
C427 H435 0.960 . S
C428 C426 1.381 1_556 S
C428 C429 1.394 . S
C428 H436 0.930 . S
C429 C428 1.394 . S
C429 C430 1.383 1_556 S
C429 H437 0.929 . S
C430 C429 1.383 1_554 S
C430 C431 1.377 . S
C431 H415 0.930 . S
C431 C430 1.377 . S
C431 C432 1.379 . S
C432 H416 0.931 . S
C432 C426 1.383 . S
C432 C431 1.379 . S
H433 C427 0.959 . S
H434 C427 0.961 . S
H435 C427 0.960 . S
H436 C428 0.930 . S
H437 C429 0.929 . S
H438 C446 0.929 . S
H439 C448 0.930 . S
H440 C450 0.930 . S
H441 C453 0.929 . S
H442 C456 0.930 . S
H443 C458 0.960 . S
H444 C458 0.960 . S
H445 C458 0.960 . S
C446 H438 0.929 . S
C446 C447 1.377 1_556 S
C446 C448 1.384 . S
C447 C446 1.377 1_554 S
C447 C453 1.390 . S
C448 H439 0.930 . S
C448 C446 1.384 . S
C448 C449 1.372 1_556 S
C449 C448 1.372 1_554 S
C449 C450 1.400 . S
C449 C454 1.490 . S
C450 H440 0.930 . S
C450 C449 1.400 . S
C450 C453 1.386 . S
H451 C467 0.930 . S
H452 C468 0.931 . S
C453 H441 0.929 . S
C453 C447 1.390 . S
C453 C450 1.386 . S
C454 C449 1.490 . S
C454 C456 1.395 1_554 S
C454 C457 1.403 . S
H455 C461 0.930 . S
C456 H442 0.930 . S
C456 C454 1.395 1_556 S
C456 C459 1.403 . S
C457 C454 1.403 . S
C457 C458 1.524 . S
C457 C461 1.400 . S
C458 H443 0.960 . S
C458 H444 0.960 . S
C458 H445 0.960 . S
C458 C457 1.524 . S
C459 C456 1.403 . S
C459 C460 1.392 1_556 S
C459 C463 1.495 . S
C460 C459 1.392 1_554 S
C460 C461 1.385 . S
C460 C462 1.478 . S
C461 H455 0.930 . S
C461 C457 1.400 . S
C461 C460 1.385 . S
C462 C460 1.478 . S
C462 C464 1.381 1_554 S
C462 C468 1.383 . S
C463 C459 1.495 . S
C463 H469 0.959 . S
C463 H470 0.961 . S
C463 H471 0.960 . S
C464 C462 1.381 1_556 S
C464 C465 1.394 . S
C464 H472 0.930 . S
C465 C464 1.394 . S
C465 C466 1.383 1_556 S
C465 H473 0.929 . S
C466 C465 1.383 1_554 S
C466 C467 1.377 . S
C467 H451 0.930 . S
C467 C466 1.377 . S
C467 C468 1.379 . S
C468 H452 0.931 . S
C468 C462 1.383 . S
C468 C467 1.379 . S
H469 C463 0.959 . S
H470 C463 0.961 . S
H471 C463 0.960 . S
H472 C464 0.930 . S
H473 C465 0.929 . S
H474 C482 0.929 . S
H475 C484 0.930 . S
H476 C486 0.930 . S
H477 C489 0.929 . S
H478 C492 0.930 . S
H479 C494 0.960 . S
H480 C494 0.960 . S
H481 C494 0.960 . S
C482 H474 0.929 . S
C482 C483 1.377 . S
C482 C484 1.384 . S
C483 C482 1.377 . S
C483 C489 1.390 . S
C484 H475 0.930 . S
C484 C482 1.384 . S
C484 C485 1.372 . S
C485 C484 1.372 . S
C485 C486 1.400 . S
C485 C490 1.490 . S
C486 H476 0.930 . S
C486 C485 1.400 . S
C486 C489 1.386 . S
H487 C503 0.940 . S
H488 C504 0.931 . S
C489 H477 0.929 . S
C489 C483 1.390 . S
C489 C486 1.386 . S
C490 C485 1.490 . S
C490 C492 1.395 1_554 S
C490 C493 1.403 . S
H491 C497 0.930 . S
C492 H478 0.930 . S
C492 C490 1.395 1_556 S
C492 C495 1.403 . S
C493 C490 1.403 . S
C493 C494 1.524 . S
C493 C497 1.400 . S
C494 H479 0.960 . S
C494 H480 0.960 . S
C494 H481 0.960 . S
C494 C493 1.524 . S
C495 C492 1.403 . S
C495 C496 1.392 1_556 S
C495 C499 1.495 . S
C496 C495 1.392 1_554 S
C496 C497 1.385 . S
C496 C498 1.478 . S
C497 H491 0.930 . S
C497 C493 1.400 . S
C497 C496 1.385 . S
C498 C496 1.478 . S
C498 C500 1.381 . S
C498 C504 1.383 1_554 S
C499 C495 1.495 . S
C499 H505 0.959 . S
C499 H506 0.961 . S
C499 H507 0.960 . S
C500 C498 1.381 . S
C500 C501 1.394 . S
C500 H508 0.930 . S
C501 C500 1.394 . S
C501 C502 1.383 . S
C501 H509 0.929 . S
C502 C501 1.383 . S
C502 C503 1.367 1_554 S
C503 H487 0.940 . S
C503 C502 1.367 1_556 S
C503 C504 1.380 . S
C504 H488 0.931 . S
C504 C498 1.383 1_556 S
C504 C503 1.380 . S
H505 C499 0.959 . S
H506 C499 0.961 . S
H507 C499 0.960 . S
H508 C500 0.930 . S
H509 C501 0.929 . S
C87 C1 1.492 . S
C106 C55 1.492 . S
C123 C5 1.486 . S
C142 C66 1.479 . S
C159 C53 1.497 . S
C178 C3 1.495 . S
C195 C68 1.491 . S
C214 C10 1.479 . S
C231 C70 1.486 . S
C250 C23 1.499 . S
C267 C36 1.495 . S
C286 C57 1.493 . S
C303 C75 1.491 . S
C322 C18 1.486 . S
C339 C62 1.496 . S
C358 C31 1.473 . S
C375 C27 1.491 . S
C394 C44 1.480 . S
C411 C42 1.487 . S
C430 C14 1.488 . S
C447 C29 1.491 . S
C466 C49 1.487 . S
C483 C40 1.494 . S
C502 C16 1.481 . S
