# Generated by pormake.
# Topology umj, (4)-cn, num edge types: 1
# Building blocks:
#     Node 0, Type 0, BuildingBlock: KOZSID_clean_sbu_0, # of connection points: 4
#     Node 1, Type 0, BuildingBlock: KOZSID_clean_sbu_0, # of connection points: 4
#     Node 2, Type 0, BuildingBlock: KOZSID_clean_sbu_0, # of connection points: 4
#     Node 3, Type 0, BuildingBlock: KOZSID_clean_sbu_0, # of connection points: 4
#     Node 4, Type 0, BuildingBlock: KOZSID_clean_sbu_0, # of connection points: 4
#     Node 5, Type 0, BuildingBlock: KOZSID_clean_sbu_0, # of connection points: 4
#     Node 6, Type 0, BuildingBlock: KOZSID_clean_sbu_0, # of connection points: 4
#     Node 7, Type 0, BuildingBlock: KOZSID_clean_sbu_0, # of connection points: 4
#     Node 8, Type 0, BuildingBlock: KOZSID_clean_sbu_0, # of connection points: 4
#     Node 9, Type 0, BuildingBlock: KOZSID_clean_sbu_0, # of connection points: 4
#     Node 10, Type 0, BuildingBlock: KOZSID_clean_sbu_0, # of connection points: 4
#     Node 11, Type 0, BuildingBlock: KOZSID_clean_sbu_0, # of connection points: 4
#     Edge 12, Type (0, 0), BuildingBlock: AJUNOK_clean_linker_0, # of connection points: 2
#     Edge 13, Type (0, 0), BuildingBlock: AJUNOK_clean_linker_0, # of connection points: 2
#     Edge 14, Type (0, 0), BuildingBlock: AJUNOK_clean_linker_0, # of connection points: 2
#     Edge 15, Type (0, 0), BuildingBlock: AJUNOK_clean_linker_0, # of connection points: 2
#     Edge 16, Type (0, 0), BuildingBlock: AJUNOK_clean_linker_0, # of connection points: 2
#     Edge 17, Type (0, 0), BuildingBlock: AJUNOK_clean_linker_0, # of connection points: 2
#     Edge 18, Type (0, 0), BuildingBlock: AJUNOK_clean_linker_0, # of connection points: 2
#     Edge 19, Type (0, 0), BuildingBlock: AJUNOK_clean_linker_0, # of connection points: 2
#     Edge 20, Type (0, 0), BuildingBlock: AJUNOK_clean_linker_0, # of connection points: 2
#     Edge 21, Type (0, 0), BuildingBlock: AJUNOK_clean_linker_0, # of connection points: 2
#     Edge 22, Type (0, 0), BuildingBlock: AJUNOK_clean_linker_0, # of connection points: 2
#     Edge 23, Type (0, 0), BuildingBlock: AJUNOK_clean_linker_0, # of connection points: 2
#     Edge 24, Type (0, 0), BuildingBlock: AJUNOK_clean_linker_0, # of connection points: 2
#     Edge 25, Type (0, 0), BuildingBlock: AJUNOK_clean_linker_0, # of connection points: 2
#     Edge 26, Type (0, 0), BuildingBlock: AJUNOK_clean_linker_0, # of connection points: 2
#     Edge 27, Type (0, 0), BuildingBlock: AJUNOK_clean_linker_0, # of connection points: 2
#     Edge 28, Type (0, 0), BuildingBlock: AJUNOK_clean_linker_0, # of connection points: 2
#     Edge 29, Type (0, 0), BuildingBlock: AJUNOK_clean_linker_0, # of connection points: 2
#     Edge 30, Type (0, 0), BuildingBlock: AJUNOK_clean_linker_0, # of connection points: 2
#     Edge 31, Type (0, 0), BuildingBlock: AJUNOK_clean_linker_0, # of connection points: 2
#     Edge 32, Type (0, 0), BuildingBlock: AJUNOK_clean_linker_0, # of connection points: 2
#     Edge 33, Type (0, 0), BuildingBlock: AJUNOK_clean_linker_0, # of connection points: 2
#     Edge 34, Type (0, 0), BuildingBlock: AJUNOK_clean_linker_0, # of connection points: 2
#     Edge 35, Type (0, 0), BuildingBlock: AJUNOK_clean_linker_0, # of connection points: 2
# Relax obj value: 0.053
# Max RMSD: 0.162
# Mean RMSD: 0.162
data_MOF--net-umj--node1-KOZSID_clean_sbu_0--edge1-AJUNOK_clean_linker_0
_symmetry_space_group_name_H-M    P1
_symmetry_Int_Tables_number       1
_symmetry_cell_setting            triclinic
loop_
_symmetry_equiv_pos_as_xyz
'x, y, z'
_cell_length_a     30.989506
_cell_length_b     30.987196
_cell_length_c     71.081786
_cell_angle_alpha  90.07177
_cell_angle_beta   90.048436
_cell_angle_gamma 120.04157
loop_
_atom_site_label
_atom_site_type_symbol
_atom_site_fract_x
_atom_site_fract_y
_atom_site_fract_z
_atom_type_partial_charge
C0 C 0.0426 0.2536 0.03921 0.0
C1 C 0.99992 0.22565 0.02854 0.0
C2 C 0.96114 0.2257 0.038 0.0
C3 C 0.98134 0.25204 0.05432 0.0
N4 N 0.03039 0.26811 0.0556 0.0
Co5 Co 0.07087 0.29276 0.07892 0.0
N6 N 1.01199 0.26724 0.09553 0.0
C7 C 0.96596 0.25552 0.08989 0.0
C8 C 0.93278 0.24053 0.1046 0.0
C9 C 0.96001 0.24371 0.1204 0.0
C10 C 1.00845 0.26028 0.11445 0.0
N11 N 0.11315 0.31667 0.10177 0.0
C12 C 0.10154 0.30351 0.12 0.0
C13 C 0.14297 0.33026 0.1315 0.0
C14 C 0.18127 0.36213 0.12006 0.0
C15 C 0.16138 0.35288 0.10228 0.0
N16 N 0.13013 0.32046 0.06258 0.0
C17 C 0.17498 0.35966 0.06688 0.0
C18 C 0.20715 0.37614 0.05191 0.0
C19 C 0.18078 0.34519 0.03729 0.0
C20 C 0.13415 0.31084 0.04435 0.0
N21 N 0.07047 0.35719 0.07734 0.0
C22 C 0.05641 0.44169 0.0758 0.0
C23 C 0.05829 0.42024 0.09297 0.0
C24 C 0.06523 0.37865 0.09344 0.0
C25 C 0.06248 0.41979 0.05935 0.0
C26 C 0.06987 0.37819 0.06041 0.0
N27 N 0.06748 0.2268 0.08063 0.0
C28 C 0.10252 0.17217 0.08321 0.0
C29 C 0.05454 0.1292 0.0828 0.0
C30 C 1.01402 0.13678 0.08092 0.0
C31 C 1.02115 0.18489 0.07981 0.0
C32 C 0.10817 0.22065 0.08228 0.0
H33 H 0.98821 0.18751 0.0781 0.0
H34 H 0.14515 0.25298 0.08285 0.0
H35 H 0.0647 0.36299 0.10701 0.0
H36 H 0.07405 0.36238 0.04746 0.0
C37 C 0.95401 0.24965 0.07056 0.0
C38 C 0.09494 0.26907 0.03357 0.0
C39 C 0.05075 0.27201 0.12715 0.0
C40 C 0.18781 0.37374 0.08566 0.0
H41 H 0.9959 0.20486 0.01585 0.0
H42 H 0.92206 0.20475 0.03424 0.0
H43 H 0.89313 0.22692 0.10387 0.0
H44 H 0.94593 0.2349 0.13464 0.0
H45 H 0.14492 0.32838 0.14666 0.0
H46 H 0.21915 0.38852 0.12421 0.0
H47 H 0.24571 0.40571 0.05179 0.0
H48 H 0.19459 0.34723 0.02315 0.0
H49 H 0.05289 0.43454 0.10612 0.0
H50 H 0.06165 0.43475 0.04568 0.0
H51 H 0.13529 0.1684 0.08447 0.0
H52 H 0.97643 0.10535 0.07997 0.0
C53 C 0.80658 0.05213 0.37496 0.0
C54 C 0.78391 0.01757 0.36061 0.0
C55 C 0.74473 0.97586 0.3686 0.0
C56 C 0.74537 0.98713 0.38736 0.0
N57 N 0.78259 0.03318 0.39157 0.0
Co58 Co 0.79691 0.06394 0.41694 0.0
N59 N 0.75728 0.99904 0.42984 0.0
C60 C 0.7222 0.9568 0.42161 0.0
C61 C 0.69959 0.91798 0.43414 0.0
C62 C 0.72159 0.93737 0.45129 0.0
C63 C 0.75657 0.98708 0.44827 0.0
N64 N 0.81278 0.09603 0.44214 0.0
C65 C 0.80911 0.07612 0.45938 0.0
C66 C 0.82393 0.11239 0.47333 0.0
C67 C 0.83652 0.15622 0.46447 0.0
C68 C 0.82892 0.14444 0.44572 0.0
N69 N 0.83615 0.12945 0.40427 0.0
C70 C 0.85044 0.17439 0.412 0.0
C71 C 0.8812 0.21339 0.40061 0.0
C72 C 0.8865 0.19186 0.38468 0.0
C73 C 0.85747 0.1405 0.38702 0.0
N74 N 0.73464 0.0688 0.41564 0.0
C75 C 0.63514 0.05304 0.41287 0.0
C76 C 0.65578 0.04984 0.43012 0.0
C77 C 0.70465 0.05752 0.43119 0.0
C78 C 0.66732 0.0669 0.39715 0.0
C79 C 0.7166 0.07527 0.39888 0.0
N80 N 0.85654 0.05534 0.41815 0.0
C81 C 0.94471 0.08499 0.42302 0.0
C82 C 0.93806 0.03724 0.41934 0.0
C83 C 0.8898 0.99938 0.41489 0.0
C84 C 0.85026 1.00917 0.41419 0.0
C85 C 0.90349 0.09312 0.42259 0.0
H86 H 0.81434 0.97873 0.41027 0.0
H87 H 0.90958 0.12985 0.42578 0.0
H88 H 0.71714 0.05204 0.44466 0.0
H89 H 0.73927 0.08479 0.38636 0.0
C90 C 0.71747 0.95369 0.40185 0.0
C91 C 0.84821 0.10375 0.37214 0.0
C92 C 0.78628 0.02272 0.46326 0.0
C93 C 0.84435 0.17891 0.43116 0.0
H94 H 0.79449 0.02213 0.34593 0.0
H95 H 0.71991 0.94095 0.36165 0.0
H96 H 0.67158 0.87978 0.43112 0.0
H97 H 0.71275 0.91739 0.46449 0.0
H98 H 0.82466 0.10764 0.48838 0.0
H99 H 0.851 0.19258 0.4709 0.0
H100 H 0.90029 0.25276 0.40398 0.0
H101 H 0.90972 0.21209 0.37285 0.0
H102 H 0.63399 0.0405 0.4429 0.0
H103 H 0.65423 0.06937 0.38331 0.0
H104 H 0.98138 0.11569 0.42645 0.0
H105 H 0.88261 0.96223 0.41156 0.0
C106 C 0.77231 0.7892 0.7063 0.0
C107 C 0.77595 0.75957 0.69239 0.0
C108 C 0.77987 0.72214 0.70135 0.0
C109 C 0.77572 0.72891 0.72021 0.0
N110 N 0.76904 0.76781 0.72344 0.0
Co111 Co 0.75042 0.78309 0.74814 0.0
N112 N 0.7791 0.74868 0.7623 0.0
C113 C 0.78698 0.71307 0.7551 0.0
C114 C 0.80433 0.69332 0.76844 0.0
C115 C 0.80665 0.71771 0.78499 0.0
C116 C 0.79054 0.75115 0.78088 0.0
N117 N 0.73206 0.80034 0.77248 0.0
C118 C 0.74954 0.80128 0.79 0.0
C119 C 0.72544 0.81526 0.80311 0.0
C120 C 0.69075 0.82159 0.79345 0.0
C121 C 0.69581 0.8117 0.77504 0.0
N122 N 0.71933 0.81554 0.73426 0.0
C123 C 0.67965 0.81808 0.74039 0.0
C124 C 0.65587 0.82844 0.72632 0.0
C125 C 0.68254 0.83277 0.71036 0.0
C126 C 0.72248 0.82701 0.71583 0.0
N127 N 0.68539 0.7184 0.74743 0.0
C128 C 0.6025 0.61888 0.74564 0.0
C129 C 0.62637 0.64063 0.76276 0.0
C130 C 0.66741 0.68973 0.76334 0.0
C131 C 0.61997 0.64944 0.72958 0.0
C132 C 0.6607 0.69876 0.73079 0.0
N133 N 0.81675 0.84514 0.7487 0.0
C134 C 0.87257 0.93422 0.75252 0.0
C135 C 0.9149 0.92902 0.74967 0.0
C136 C 0.90643 0.88107 0.74615 0.0
C137 C 0.85785 0.84041 0.74546 0.0
C138 C 0.82384 0.89176 0.75217 0.0
H139 H 0.85388 0.80471 0.74219 0.0
H140 H 0.79202 0.89647 0.75467 0.0
H141 H 0.68565 0.70372 0.77669 0.0
H142 H 0.6731 0.72041 0.71803 0.0
C143 C 0.7829 0.70388 0.73547 0.0
C144 C 0.76212 0.83112 0.70333 0.0
C145 C 0.78203 0.78116 0.79507 0.0
C146 C 0.67 0.81625 0.75967 0.0
H147 H 0.77226 0.76179 0.67738 0.0
H148 H 0.78436 0.69308 0.69481 0.0
H149 H 0.81479 0.66516 0.76638 0.0
H150 H 0.81784 0.71094 0.79859 0.0
H151 H 0.73064 0.81832 0.81821 0.0
H152 H 0.66502 0.83217 0.79918 0.0
H153 H 0.62359 0.83304 0.72755 0.0
H154 H 0.67406 0.84009 0.69636 0.0
H155 H 0.61457 0.61916 0.77564 0.0
H156 H 0.60238 0.63533 0.71606 0.0
H157 H 0.87711 0.97066 0.75523 0.0
H158 H 0.93741 0.87497 0.74352 0.0
C159 C 1.01929 0.79201 0.03966 0.0
C160 C 0.0612 0.8196 0.02862 0.0
C161 C 0.10074 0.82036 0.03781 0.0
C162 C 0.08177 0.79493 0.05435 0.0
N163 N 0.03278 0.77871 0.05605 0.0
Co164 Co 0.99409 0.75535 0.07978 0.0
N165 N 0.05425 0.78157 0.09585 0.0
C166 C 0.09982 0.793 0.08975 0.0
C167 C 0.13413 0.80836 0.10413 0.0
C168 C 0.10816 0.80573 0.12021 0.0
C169 C 0.05932 0.7891 0.11477 0.0
N170 N 0.95366 0.73283 0.10309 0.0
C171 C 0.96675 0.74682 0.12121 0.0
C172 C 0.92605 0.72121 0.13309 0.0
C173 C 0.88673 0.68911 0.12204 0.0
C174 C 0.9053 0.69714 0.10409 0.0
N175 N 0.93354 0.72688 0.06399 0.0
C176 C 0.88895 0.68818 0.06883 0.0
C177 C 0.85564 0.67054 0.05419 0.0
C178 C 0.88092 0.70017 0.0392 0.0
C179 C 0.92811 0.73505 0.04572 0.0
N180 N 0.99431 0.6908 0.07826 0.0
C181 C 1.01204 0.60856 0.07652 0.0
C182 C 1.00886 0.62922 0.09375 0.0
C183 C 1.00047 0.6699 0.09431 0.0
C184 C 1.00299 0.62864 0.06018 0.0
C185 C 0.99416 0.66932 0.06133 0.0
N186 N 0.9977 0.82143 0.08133 0.0
C187 C 0.96283 0.87622 0.08383 0.0
C188 C 1.01063 0.91931 0.08236 0.0
C189 C 0.05104 0.91143 0.08051 0.0
C190 C 0.04392 0.86326 0.07996 0.0
C191 C 0.95719 0.82771 0.08331 0.0
H192 H 0.07678 0.86052 0.07825 0.0
H193 H 0.92029 0.79543 0.08437 0.0
H194 H 1.0007 0.68538 0.1079 0.0
H195 H 0.9888 0.68438 0.04841 0.0
C196 C 0.11028 0.79808 0.07033 0.0
C197 C 0.96652 0.77573 0.03432 0.0
C198 C 1.01815 0.77798 0.12793 0.0
C199 C 0.87757 0.67548 0.08776 0.0
H200 H 0.06417 0.8396 0.01584 0.0
H201 H 0.13954 0.84121 0.0337 0.0
H202 H 0.17368 0.82181 0.103 0.0
H203 H 0.12336 0.81497 0.13431 0.0
H204 H 0.92523 0.72398 0.14825 0.0
H205 H 0.84905 0.66336 0.12655 0.0
H206 H 0.81707 0.641 0.05451 0.0
H207 H 0.86603 0.69685 0.02516 0.0
H208 H 1.01331 0.61442 0.10693 0.0
H209 H 1.00432 0.61416 0.04645 0.0
H210 H 0.92992 0.87974 0.08503 0.0
H211 H 0.08874 0.94263 0.07961 0.0
C212 C 0.24214 1.00502 0.37367 0.0
C213 C 0.25544 0.04643 0.36246 0.0
C214 C 0.29357 0.08679 0.37158 0.0
C215 C 0.30066 0.06873 0.38824 0.0
N216 N 0.26889 0.01953 0.3901 0.0
Co217 Co 0.25493 0.98159 0.41398 0.0
N218 N 0.28829 0.04227 0.42984 0.0
C219 C 0.32154 0.08797 0.42354 0.0
C220 C 0.34036 0.1227 0.43779 0.0
C221 C 0.3179 0.09691 0.45399 0.0
C222 C 0.28629 0.04773 0.44874 0.0
N223 N 0.23825 0.94185 0.43745 0.0
C224 C 0.23757 0.95527 0.45554 0.0
C225 C 0.22375 0.91508 0.46757 0.0
C226 C 0.21698 0.87575 0.45664 0.0
C227 C 0.22657 0.89382 0.43861 0.0
N228 N 0.22355 0.92056 0.39837 0.0
C229 C 0.21852 0.87645 0.40342 0.0
C230 C 0.20296 0.84263 0.38895 0.0
C231 C 0.19776 0.86701 0.37384 0.0
C232 C 0.20951 0.91423 0.3801 0.0
N233 N 0.32069 0.98352 0.41247 0.0
C234 C 0.42113 1.00216 0.41086 0.0
C235 C 0.39723 0.99873 0.42805 0.0
C236 C 0.34792 0.98992 0.42855 0.0
C237 C 0.39234 0.99408 0.39445 0.0
C238 C 0.34251 0.98445 0.39555 0.0
N239 N 0.19146 0.98353 0.41561 0.0
C240 C 0.10143 0.94681 0.41811 0.0
C241 C 0.10498 0.99421 0.41719 0.0
C242 C 0.15306 0.03533 0.41555 0.0
C243 C 0.19476 0.02929 0.41458 0.0
C244 C 0.14499 0.94232 0.41742 0.0
H245 H 0.22998 0.06268 0.41287 0.0
H246 H 0.14113 0.9057 0.41817 0.0
H247 H 0.33266 0.9901 0.44213 0.0
H248 H 0.3221 0.97897 0.3826 0.0
C249 C 0.32603 0.09794 0.40409 0.0
C250 C 0.20668 0.95188 0.36839 0.0
C251 C 0.25718 1.00672 0.46208 0.0
C252 C 0.22057 0.86584 0.42238 0.0
H253 H 0.2382 0.04841 0.34955 0.0
H254 H 0.31077 0.12542 0.3673 0.0
H255 H 0.36578 0.16238 0.4365 0.0
H256 H 0.32401 0.11244 0.46803 0.0
H257 H 0.2208 0.91466 0.48275 0.0
H258 H 0.20602 0.8384 0.46129 0.0
H259 H 0.19462 0.8043 0.38946 0.0
H260 H 0.18616 0.85153 0.35986 0.0
H261 H 0.41719 1.00462 0.44118 0.0
H262 H 0.40816 0.99516 0.38077 0.0
H263 H 0.06539 0.91326 0.41903 0.0
H264 H 0.15903 0.07286 0.41509 0.0
C265 C 0.2552 0.22987 0.70684 0.0
C266 C 0.23186 0.24699 0.69475 0.0
C267 C 0.23063 0.28574 0.70384 0.0
C268 C 0.25244 0.29006 0.72112 0.0
N269 N 0.26708 0.25626 0.72333 0.0
Co270 Co 0.28984 0.24153 0.74733 0.0
N271 N 0.26351 0.27607 0.76291 0.0
C272 C 0.25273 0.31039 0.75645 0.0
C273 C 0.23748 0.33009 0.77058 0.0
C274 C 0.23959 0.30712 0.78686 0.0
C275 C 0.25582 0.27435 0.78178 0.0
N276 N 0.31157 0.22385 0.77088 0.0
C277 C 0.29714 0.22336 0.78888 0.0
C278 C 0.32202 0.20795 0.80103 0.0
C279 C 0.35428 0.20038 0.79028 0.0
C280 C 0.34701 0.21092 0.77222 0.0
N281 N 0.31888 0.2094 0.73199 0.0
C282 C 0.35789 0.20433 0.73708 0.0
C283 C 0.37668 0.18972 0.72248 0.0
C284 C 0.34742 0.18525 0.70729 0.0
C285 C 0.31156 0.19619 0.71369 0.0
N286 N 0.35455 0.30635 0.74602 0.0
C287 C 0.43773 0.40616 0.74455 0.0
C288 C 0.4165 0.38232 0.7617 0.0
C289 C 0.37548 0.33333 0.76214 0.0
C290 C 0.41663 0.37743 0.72812 0.0
C291 C 0.3759 0.32795 0.72916 0.0
N292 N 0.22351 0.17908 0.74863 0.0
C293 C 0.16776 0.08924 0.75003 0.0
C294 C 0.12508 0.09463 0.74859 0.0
C295 C 0.13364 0.14334 0.74781 0.0
C296 C 0.18201 0.18406 0.74749 0.0
C297 C 0.21659 0.13189 0.75004 0.0
H298 H 0.18512 0.21989 0.74606 0.0
H299 H 0.24856 0.12676 0.75097 0.0
H300 H 0.35979 0.31812 0.77569 0.0
H301 H 0.36065 0.30781 0.71618 0.0
C302 C 0.24876 0.31579 0.7369 0.0
C303 C 0.26977 0.19165 0.70241 0.0
C304 C 0.26671 0.24472 0.79526 0.0
C305 C 0.3697 0.2053 0.75611 0.0
H306 H 0.21592 0.23273 0.68109 0.0
H307 H 0.21256 0.30581 0.69891 0.0
H308 H 0.22466 0.35662 0.76916 0.0
H309 H 0.23044 0.31381 0.80085 0.0
H310 H 0.3188 0.20454 0.81618 0.0
H311 H 0.3798 0.18842 0.79507 0.0
H312 H 0.40659 0.18129 0.72298 0.0
H313 H 0.35105 0.17375 0.69328 0.0
H314 H 0.4311 0.40156 0.77493 0.0
H315 H 0.43009 0.39337 0.71437 0.0
H316 H 0.16357 0.05245 0.75084 0.0
H317 H 0.10288 0.15053 0.74749 0.0
C318 C 0.78436 0.99727 0.63305 0.0
C319 C 0.80237 0.03726 0.64541 0.0
C320 C 0.80204 0.07581 0.63584 0.0
C321 C 0.78423 0.05761 0.61812 0.0
N322 N 0.77347 1.01014 0.61611 0.0
Co323 Co 0.75248 0.9712 0.59241 0.0
N324 N 0.77628 0.03122 0.57652 0.0
C325 C 0.78506 0.07602 0.58265 0.0
C326 C 0.79915 0.11023 0.56833 0.0
C327 C 0.79848 0.085 0.55226 0.0
C328 C 0.78412 0.03664 0.55765 0.0
N329 N 0.73189 0.93067 0.56906 0.0
C330 C 0.74549 0.94432 0.551 0.0
C331 C 0.72157 0.90349 0.539 0.0
C332 C 0.69105 0.86335 0.54994 0.0
C333 C 0.69822 0.88165 0.56794 0.0
N334 N 0.7272 0.91075 0.6081 0.0
C335 C 0.69175 0.8645 0.6031 0.0
C336 C 0.68006 0.83027 0.61722 0.0
C337 C 0.71021 0.85669 0.63199 0.0
C338 C 0.73906 0.9057 0.62593 0.0
N339 N 0.6861 0.96783 0.5937 0.0
C340 C 0.6034 0.98502 0.59521 0.0
C341 C 0.6242 0.98175 0.57804 0.0
C342 C 0.66506 0.9736 0.57759 0.0
C343 C 0.62322 0.97571 0.6116 0.0
C344 C 0.66404 0.96703 0.61055 0.0
N345 N 0.82005 0.97834 0.59113 0.0
C346 C 0.87761 0.94679 0.58868 0.0
C347 C 0.91937 0.99516 0.59085 0.0
C348 C 0.90954 0.0344 0.59265 0.0
C349 C 0.86056 0.02531 0.59296 0.0
C350 C 0.82838 0.93917 0.58886 0.0
H351 H 0.85591 0.05711 0.59484 0.0
H352 H 0.79716 0.90176 0.58733 0.0
H353 H 0.68081 0.97412 0.56404 0.0
H354 H 0.67899 0.96167 0.6235 0.0
C355 C 0.7873 0.08597 0.60213 0.0
C356 C 0.77575 0.94678 0.63763 0.0
C357 C 0.77487 0.99596 0.54446 0.0
C358 C 0.6788 0.85301 0.58419 0.0
H359 H 0.81522 0.03887 0.65968 0.0
H360 H 0.81607 0.11349 0.64089 0.0
H361 H 0.81007 0.14922 0.56946 0.0
H362 H 0.80717 0.10026 0.53818 0.0
H363 H 0.72458 0.90297 0.52384 0.0
H364 H 0.66717 0.82526 0.54534 0.0
H365 H 0.65465 0.79046 0.61656 0.0
H366 H 0.711 0.84144 0.64559 0.0
H367 H 0.60951 0.98616 0.56482 0.0
H368 H 0.60855 0.9769 0.62528 0.0
H369 H 0.88282 0.91493 0.58712 0.0
H370 H 0.9397 0.0726 0.59366 0.0
C371 C 0.81197 0.78599 0.96493 0.0
C372 C 0.79503 0.8098 0.97688 0.0
C373 C 0.75598 0.81048 0.96782 0.0
C374 C 0.75129 0.78793 0.95067 0.0
N375 N 0.78517 0.77336 0.94853 0.0
Co376 Co 0.79937 0.7496 0.92467 0.0
N377 N 0.76503 0.7758 0.90895 0.0
C378 C 0.73098 0.78707 0.91531 0.0
C379 C 0.71158 0.80234 0.90109 0.0
C380 C 0.73451 0.79979 0.88486 0.0
C381 C 0.76696 0.78326 0.89006 0.0
N382 N 0.81621 0.72658 0.90126 0.0
C383 C 0.81665 0.74046 0.88319 0.0
C384 C 0.83075 0.71425 0.87116 0.0
C385 C 0.83779 0.68193 0.88209 0.0
C386 C 0.82815 0.6904 0.90012 0.0
N387 N 0.83163 0.72103 0.94015 0.0
C388 C 0.8361 0.68149 0.93533 0.0
C389 C 0.85106 0.66337 0.95004 0.0
C390 C 0.85637 0.69362 0.965 0.0
C391 C 0.84552 0.72935 0.95837 0.0
N392 N 0.73454 0.68519 0.9264 0.0
C393 C 0.63548 0.60176 0.92861 0.0
C394 C 0.6579 0.62276 0.91128 0.0
C395 C 0.70667 0.66405 0.91048 0.0
C396 C 0.66503 0.62275 0.94482 0.0
C397 C 0.71417 0.66387 0.94342 0.0
N398 N 0.86188 0.81555 0.92292 0.0
C399 C 0.95142 0.87033 0.91986 0.0
C400 C 0.94639 0.91321 0.92079 0.0
C401 C 0.8984 0.90554 0.92318 0.0
C402 C 0.85748 0.85737 0.92433 0.0
C403 C 0.90863 0.8218 0.92075 0.0
H404 H 0.822 0.85458 0.92657 0.0
H405 H 0.91324 0.78952 0.91976 0.0
H406 H 0.72102 0.6798 0.89685 0.0
H407 H 0.73523 0.67913 0.95622 0.0
C408 C 0.72555 0.79136 0.93485 0.0
C409 C 0.85043 0.77174 0.96937 0.0
C410 C 0.79646 0.77181 0.87669 0.0
C411 C 0.83406 0.66839 0.91639 0.0
H412 H 0.80965 0.82653 0.9904 0.0
H413 H 0.73606 0.8288 0.97263 0.0
H414 H 0.68528 0.81549 0.90241 0.0
H415 H 0.728 0.80882 0.87083 0.0
H416 H 0.83364 0.71668 0.85599 0.0
H417 H 0.8489 0.65564 0.87744 0.0
H418 H 0.85911 0.63318 0.94975 0.0
H419 H 0.86823 0.69065 0.97903 0.0
H420 H 0.63722 0.60841 0.89829 0.0
H421 H 0.65036 0.60756 0.95857 0.0
H422 H 0.98794 0.87423 0.91821 0.0
H423 H 0.89233 0.93693 0.92454 0.0
C424 C 0.04197 0.79924 0.29802 0.0
C425 C 1.0015 0.78345 0.31003 0.0
C426 C 0.96086 0.74536 0.30095 0.0
C427 C 0.97793 0.74012 0.28374 0.0
N428 N 0.02676 0.77275 0.28156 0.0
Co429 Co 0.06408 0.786 0.25761 0.0
N430 N 1.00312 0.75361 0.24198 0.0
C431 C 0.95743 0.72067 0.24838 0.0
C432 C 0.9224 0.70273 0.23422 0.0
C433 C 0.94802 0.72549 0.218 0.0
C434 C 0.99743 0.75634 0.22314 0.0
N435 N 0.10335 0.80189 0.2341 0.0
C436 C 0.08984 0.80321 0.2161 0.0
C437 C 0.12958 0.81595 0.20394 0.0
C438 C 0.16865 0.82138 0.21473 0.0
C439 C 0.15092 0.8121 0.23281 0.0
N440 N 0.12525 0.81641 0.273 0.0
C441 C 0.16857 0.81957 0.26801 0.0
C442 C 0.20208 0.83399 0.28258 0.0
C443 C 0.1782 0.84036 0.29765 0.0
C444 C 0.13178 0.83064 0.29122 0.0
N445 N 0.061 0.71966 0.25905 0.0
C446 C 0.04234 0.61919 0.26059 0.0
C447 C 0.04495 0.64285 0.24343 0.0
C448 C 0.05374 0.69217 0.24296 0.0
C449 C 0.05105 0.64815 0.277 0.0
C450 C 0.06069 0.69799 0.27593 0.0
N451 N 0.06329 0.85002 0.25602 0.0
C452 C 0.10096 0.93986 0.25239 0.0
C453 C 0.05389 0.93672 0.25332 0.0
C454 C 1.01248 0.88951 0.25602 0.0
C455 C 1.01792 0.84751 0.25751 0.0
C456 C 0.10482 0.896 0.25356 0.0
H457 H 0.98449 0.8127 0.25993 0.0
H458 H 0.14109 0.89916 0.25247 0.0
H459 H 0.05301 0.70732 0.22941 0.0
H460 H 0.06678 0.71859 0.28887 0.0
C461 C 0.94805 0.7153 0.26792 0.0
C462 C 0.09521 0.83642 0.30249 0.0
C463 C 0.03849 0.78541 0.20979 0.0
C464 C 0.17888 0.8171 0.24901 0.0
H465 H 1.00017 0.79832 0.32358 0.0
H466 H 0.92264 0.72655 0.3058 0.0
H467 H 0.88268 0.67765 0.23559 0.0
H468 H 0.93224 0.72002 0.20402 0.0
H469 H 0.12983 0.81914 0.18878 0.0
H470 H 0.20564 0.83129 0.20996 0.0
H471 H 0.23998 0.84104 0.28214 0.0
H472 H 0.19365 0.85209 0.31162 0.0
H473 H 0.03851 0.62272 0.2303 0.0
H474 H 0.05052 0.63247 0.29065 0.0
H475 H 0.13434 0.97568 0.25045 0.0
H476 H 0.97557 0.88494 0.25723 0.0
C477 C 0.25182 0.02363 0.63209 0.0
C478 C 0.22294 0.98167 0.64294 0.0
C479 C 0.2215 0.94181 0.63375 0.0
C480 C 0.24787 0.96068 0.61737 0.0
N481 N 0.26541 1.00995 0.61581 0.0
Co482 Co 0.29032 0.04899 0.59223 0.0
N483 N 0.26331 0.98909 0.57598 0.0
C484 C 0.25063 0.9431 0.58197 0.0
C485 C 0.23482 0.90904 0.56749 0.0
C486 C 0.23845 0.93561 0.55147 0.0
C487 C 0.25608 0.98455 0.55706 0.0
N488 N 0.31431 0.08984 0.56907 0.0
C489 C 0.30066 0.07734 0.55089 0.0
C490 C 0.32769 0.11803 0.53915 0.0
C491 C 0.36021 0.15671 0.55037 0.0
C492 C 0.35106 0.1378 0.56828 0.0
N493 N 0.31956 0.1092 0.60822 0.0
C494 C 0.35909 0.15345 0.6036 0.0
C495 C 0.37637 0.18658 0.61832 0.0
C496 C 0.3456 0.16154 0.6331 0.0
C497 C 0.3105 0.11466 0.62639 0.0
N498 N 0.35403 0.04704 0.59391 0.0
C499 C 0.4377 0.0315 0.59562 0.0
C500 C 0.41609 0.03308 0.57842 0.0
C501 C 0.37491 0.0407 0.57787 0.0
C502 C 0.41631 0.03857 0.61201 0.0
C503 C 0.37514 0.04669 0.61087 0.0
N504 N 0.22515 0.04731 0.5905 0.0
C505 C 0.17256 0.08485 0.58906 0.0
C506 C 0.12872 0.03754 0.58942 0.0
C507 C 0.13486 0.99596 0.59033 0.0
C508 C 0.18244 1.00155 0.59104 0.0
C509 C 0.22038 0.08891 0.58943 0.0
H510 H 0.18396 0.96791 0.59237 0.0
H511 H 0.25333 0.12546 0.58901 0.0
H512 H 0.35913 0.0399 0.56429 0.0
H513 H 0.3598 0.05171 0.62378 0.0
C514 C 0.24456 0.93222 0.60136 0.0
C515 C 0.26878 0.07654 0.6375 0.0
C516 C 0.26839 0.02625 0.54401 0.0
C517 C 0.37264 0.16497 0.58474 0.0
H518 H 0.20251 0.97893 0.65558 0.0
H519 H 0.1996 0.90296 0.6377 0.0
H520 H 0.22034 0.86928 0.56852 0.0
H521 H 0.22918 0.92074 0.53733 0.0
H522 H 0.32555 0.11921 0.52397 0.0
H523 H 0.38698 0.19421 0.54599 0.0
H524 H 0.40635 0.22497 0.61815 0.0
H525 H 0.3483 0.17641 0.64711 0.0
H526 H 0.42998 0.02695 0.56531 0.0
H527 H 0.43138 0.03801 0.6257 0.0
H528 H 0.16997 0.11837 0.58832 0.0
H529 H 0.1027 0.95876 0.59097 0.0
C530 C 0.2469 0.2525 0.965 0.0
C531 C 0.26362 0.22904 0.9772 0.0
C532 C 0.30261 0.22779 0.96835 0.0
C533 C 0.30745 0.24966 0.95107 0.0
N534 N 0.2737 0.26431 0.94865 0.0
Co535 Co 0.25963 0.28711 0.92457 0.0
N536 N 0.29379 0.26003 0.90923 0.0
C537 C 0.32773 0.24888 0.91582 0.0
C538 C 0.34652 0.23232 0.90181 0.0
C539 C 0.32324 0.23385 0.88549 0.0
C540 C 0.29127 0.25115 0.89043 0.0
N541 N 0.24304 0.30925 0.90091 0.0
C542 C 0.24232 0.29428 0.88298 0.0
C543 C 0.22915 0.32056 0.87062 0.0
C544 C 0.22266 0.35382 0.88123 0.0
C545 C 0.23185 0.34589 0.89941 0.0
N546 N 0.22751 0.31654 0.93962 0.0
C547 C 0.22337 0.35606 0.9345 0.0
C548 C 0.20842 0.37487 0.94898 0.0
C549 C 0.2028 0.34513 0.96412 0.0
C550 C 0.21349 0.309 0.95782 0.0
N551 N 0.32458 0.35146 0.92619 0.0
C552 C 0.42389 0.43503 0.92839 0.0
C553 C 0.40148 0.41301 0.91109 0.0
C554 C 0.35263 0.37181 0.9103 0.0
C555 C 0.3941 0.41445 0.94457 0.0
C556 C 0.3449 0.37342 0.94317 0.0
N557 N 0.19697 0.22121 0.92297 0.0
C558 C 0.10742 0.16641 0.9198 0.0
C559 C 0.11198 0.12332 0.92169 0.0
C560 C 0.16015 0.13126 0.92415 0.0
C561 C 0.20119 0.17942 0.92488 0.0
C562 C 0.15033 0.21493 0.92042 0.0
H563 H 0.23667 0.18221 0.92716 0.0
H564 H 0.14587 0.24722 0.91899 0.0
H565 H 0.33828 0.35556 0.89669 0.0
H566 H 0.32388 0.3585 0.95596 0.0
C567 C 0.33315 0.24543 0.93541 0.0
C568 C 0.20858 0.26712 0.96912 0.0
C569 C 0.26108 0.26137 0.87695 0.0
C570 C 0.22593 0.36865 0.91548 0.0
H571 H 0.24887 0.21286 0.99076 0.0
H572 H 0.32236 0.20951 0.9734 0.0
H573 H 0.37246 0.21879 0.90334 0.0
H574 H 0.32907 0.22343 0.87159 0.0
H575 H 0.2264 0.31745 0.85545 0.0
H576 H 0.21215 0.3803 0.87628 0.0
H577 H 0.20067 0.40525 0.94844 0.0
H578 H 0.19096 0.3488 0.97806 0.0
H579 H 0.42172 0.4272 0.89805 0.0
H580 H 0.40903 0.42862 0.95841 0.0
H581 H 0.07108 0.16291 0.91818 0.0
H582 H 0.16664 0.10013 0.92541 0.0
C583 C 0.99248 0.23426 0.29686 0.0
C584 C 0.02653 0.25704 0.31135 0.0
C585 C 0.06853 0.29608 0.30348 0.0
C586 C 0.05794 0.29525 0.28465 0.0
N587 N 1.01203 0.25802 0.28025 0.0
Co588 Co 0.98215 0.24378 0.2547 0.0
N589 N 0.0475 0.28375 0.2421 0.0
C590 C 0.08943 0.31871 0.25055 0.0
C591 C 0.12863 0.34192 0.23821 0.0
C592 C 0.10987 0.32049 0.22095 0.0
C593 C 0.06011 0.28524 0.2237 0.0
N594 N 0.95093 0.22801 0.22932 0.0
C595 C 0.97148 0.2323 0.21215 0.0
C596 C 0.93555 0.21716 0.19805 0.0
C597 C 0.89132 0.2038 0.20672 0.0
C598 C 0.90251 0.21126 0.22551 0.0
N599 N 0.91621 0.20414 0.26708 0.0
C600 C 0.87145 0.18929 0.25908 0.0
C601 C 0.83214 0.15822 0.27028 0.0
C602 C 0.85322 0.1533 0.2864 0.0
C603 C 0.90462 0.18288 0.28435 0.0
N604 N 0.97696 0.30591 0.25589 0.0
C605 C 0.99232 0.40534 0.25859 0.0
C606 C 0.9959 0.38475 0.24137 0.0
C607 C 0.98844 0.33595 0.24034 0.0
C608 C 0.9783 0.37311 0.2743 0.0
C609 C 0.97008 0.32388 0.2726 0.0
N610 N 0.99102 0.18427 0.25361 0.0
C611 C 0.96209 0.09643 0.24815 0.0
C612 C 1.00955 0.10266 0.25242 0.0
C613 C 0.0468 0.15098 0.2574 0.0
C614 C 0.03687 0.19043 0.25804 0.0
C615 C 0.95377 0.13753 0.24868 0.0
H616 H 0.06703 0.22632 0.26217 0.0
H617 H 0.91719 0.13145 0.2452 0.0
H618 H 0.99424 0.32355 0.22691 0.0
H619 H 0.96033 0.30119 0.28511 0.0
C620 C 0.09183 0.32322 0.27031 0.0
C621 C 0.94073 0.19281 0.29955 0.0
C622 C 1.02507 0.25634 0.20843 0.0
C623 C 0.86756 0.19534 0.23989 0.0
H624 H 1.02142 0.24668 0.32606 0.0
H625 H 0.10318 0.321 0.31057 0.0
H626 H 0.16665 0.37007 0.24143 0.0
H627 H 0.13024 0.33 0.20782 0.0
H628 H 0.94078 0.21683 0.18301 0.0
H629 H 0.85511 0.18901 0.20014 0.0
H630 H 0.79291 0.13875 0.26669 0.0
H631 H 0.83269 0.13002 0.29817 0.0
H632 H 1.00536 0.40652 0.22858 0.0
H633 H 0.97558 0.38612 0.28812 0.0
H634 H 0.93114 0.05999 0.2447 0.0
H635 H 0.08419 0.15884 0.26065 0.0
C636 C 0.04012 0.2261 0.17767 0.0
C637 C 0.0403 0.26467 0.18823 0.0
C638 C 0.04255 0.22806 0.15786 0.0
C639 C 0.04392 0.26803 0.148 0.0
H640 H 0.03654 0.19353 0.18475 0.0
H641 H 0.04291 0.198 0.15021 0.0
S642 S 0.0448 0.37795 0.16901 0.0
N643 N 0.0422 0.34388 0.1873 0.0
N644 N 0.04625 0.34732 0.1502 0.0
C645 C 0.04453 0.30691 0.1584 0.0
C646 C 0.04286 0.3053 0.17848 0.0
C647 C 0.73984 1.00356 0.49373 0.0
C648 C 0.7807 1.00798 0.48348 0.0
C649 C 0.73916 1.00169 0.5135 0.0
C650 C 0.77934 1.00429 0.52371 0.0
H651 H 0.7091 1.00346 0.48642 0.0
H652 H 0.70688 0.9979 0.52089 0.0
S653 S 0.8945 1.01521 0.50355 0.0
N654 N 0.86218 1.01498 0.485 0.0
N655 N 0.86016 1.00991 0.52213 0.0
C656 C 0.81989 1.00781 0.51364 0.0
C657 C 0.82076 1.01007 0.49353 0.0
C658 C 0.82736 0.81561 0.82573 0.0
C659 C 0.78872 0.77598 0.81563 0.0
C660 C 0.82902 0.81499 0.84556 0.0
C661 C 0.79132 0.7754 0.85591 0.0
H662 H 0.856 0.84759 0.81826 0.0
H663 H 0.85996 0.84556 0.85285 0.0
S664 S 0.68162 0.66349 0.83616 0.0
N665 N 0.71185 0.69645 0.81749 0.0
N666 N 0.71453 0.69569 0.8546 0.0
C667 C 0.75245 0.73582 0.84595 0.0
C668 C 0.75125 0.73601 0.82586 0.0
C669 C 1.02472 0.74238 0.15882 0.0
C670 C 0.02655 0.78236 0.14875 0.0
C671 C 0.02607 0.74255 0.1786 0.0
C672 C 0.02935 0.78272 0.18904 0.0
H673 H 1.02143 0.71042 0.15131 0.0
H674 H 0.02553 0.7115 0.18582 0.0
S675 S 0.03518 0.89621 0.16943 0.0
N676 N 0.03107 0.86269 0.15069 0.0
N677 N 0.03509 0.86366 0.18786 0.0
C678 C 0.03139 0.82291 0.17915 0.0
C679 C 0.02959 0.82255 0.15901 0.0
C680 C 0.22455 0.01727 0.51308 0.0
C681 C 0.26411 0.01822 0.52317 0.0
C682 C 0.22322 1.01537 0.49324 0.0
C683 C 0.26202 1.0156 0.48287 0.0
H684 H 0.19464 0.01826 0.52058 0.0
H685 H 0.19152 1.01329 0.48596 0.0
S686 S 0.37407 0.01839 0.50265 0.0
N687 N 0.34286 0.01938 0.52132 0.0
N688 N 0.34075 1.01658 0.48419 0.0
C689 C 0.30185 1.01693 0.49284 0.0
C690 C 0.30281 0.01807 0.51294 0.0
C691 C 0.30426 0.28691 0.82601 0.0
C692 C 0.26285 0.25011 0.81601 0.0
C693 C 0.30441 0.28872 0.84578 0.0
C694 C 0.26313 0.25383 0.85627 0.0
H695 H 0.33709 0.31393 0.81845 0.0
H696 H 0.33661 0.31818 0.85294 0.0
S697 S 0.14536 0.15094 0.83684 0.0
N698 N 0.17972 0.17814 0.81805 0.0
N699 N 0.17939 0.18245 0.8552 0.0
C700 C 0.22139 0.21729 0.84644 0.0
C701 C 0.22141 0.21518 0.82631 0.0
C702 C 0.15445 0.24522 0.01918 0.0
C703 C 0.11229 0.25113 0.01677 0.0
C704 C 0.18451 0.24721 0.00392 0.0
C705 C 0.17095 0.24937 0.98518 0.0
H706 H 0.16796 0.24529 0.03326 0.0
H707 H 0.22052 0.25184 0.00722 0.0
S708 S 0.05893 0.25492 0.97032 0.0
N709 N 0.05868 0.25835 0.99348 0.0
N710 N 0.10628 0.24693 0.96506 0.0
C711 C 0.1244 0.24685 0.98249 0.0
C712 C 0.09718 0.25126 0.99807 0.0
C713 C 0.86009 0.1569 0.34368 0.0
C714 C 0.87032 0.1229 0.35299 0.0
C715 C 0.88599 0.18204 0.32739 0.0
C716 C 0.9207 0.17166 0.31874 0.0
H717 H 0.83299 0.16556 0.34948 0.0
H718 H 0.87738 0.20863 0.32105 0.0
S719 S 0.95964 0.08419 0.33686 0.0
N720 N 0.9185 0.08074 0.35248 0.0
N721 N 0.96354 0.12425 0.32066 0.0
C722 C 0.93061 0.13695 0.32762 0.0
C723 C 0.90578 0.11294 0.34481 0.0
C724 C 0.77021 0.91042 0.68889 0.0
C725 C 0.78206 0.87162 0.68795 0.0
C726 C 0.77176 0.93819 0.673 0.0
C727 C 0.79042 0.9326 0.65581 0.0
H728 H 0.7563 0.91774 0.70172 0.0
H729 H 0.75503 0.96153 0.67398 0.0
S730 S 0.85585 0.86131 0.64863 0.0
N731 N 0.83392 0.84702 0.67028 0.0
N732 N 0.83755 0.89947 0.64053 0.0
C733 C 0.81275 0.90263 0.65574 0.0
C734 C 0.80946 0.87286 0.67183 0.0
C735 C 0.90585 0.79748 0.0194 0.0
C736 C 0.94807 0.79157 0.01721 0.0
C737 C 0.87532 0.79414 0.00406 0.0
C738 C 0.88839 0.79056 0.98539 0.0
H739 H 0.89277 0.79862 0.03343 0.0
H740 H 0.83938 0.78973 0.00731 0.0
S741 S 1.00021 0.78413 0.97098 0.0
N742 N 1.00104 0.78248 0.99417 0.0
N743 N 0.95266 0.79161 0.96548 0.0
C744 C 0.93492 0.79295 0.98284 0.0
C745 C 0.9626 0.78985 0.99855 0.0
C746 C 0.09829 0.86004 0.33742 0.0
C747 C 0.11532 0.87361 0.3188 0.0
C748 C 0.12512 0.89017 0.35293 0.0
C749 C 0.1732 0.93268 0.35101 0.0
H750 H 0.06652 0.82407 0.34047 0.0
H751 H 0.11042 0.87679 0.36687 0.0
S752 S 0.23463 0.98538 0.30513 0.0
N753 N 0.17975 0.93796 0.29929 0.0
N754 N 0.2362 0.98588 0.32833 0.0
C755 C 0.19018 0.94737 0.33244 0.0
C756 C 0.15994 0.91992 0.31653 0.0
C757 C 0.2473 0.13779 0.65215 0.0
C758 C 0.25247 0.09515 0.65444 0.0
C759 C 0.24967 0.16791 0.66751 0.0
C760 C 0.25177 0.15415 0.68622 0.0
H761 H 0.2473 0.15137 0.63811 0.0
H762 H 0.25443 0.20403 0.66432 0.0
S763 S 0.2564 0.04146 0.70075 0.0
N764 N 0.25949 0.04122 0.67759 0.0
N765 N 0.24901 0.08912 0.70616 0.0
C766 C 0.2489 0.10741 0.68878 0.0
C767 C 0.25277 0.08001 0.67311 0.0
C768 C 1.00115 0.5263 0.06328 0.0
C769 C 0.02531 0.56722 0.0758 0.0
C770 C 1.01196 0.48677 0.06302 0.0
C771 C 0.04743 0.48581 0.0753 0.0
H772 H 0.97269 0.52411 0.05384 0.0
H773 H 0.99132 0.45599 0.05341 0.0
S774 S 0.12655 0.58669 0.109 0.0
N775 N 0.09051 0.6059 0.09948 0.0
N776 N 0.10986 0.53227 0.09916 0.0
C777 C 0.073 0.52724 0.08741 0.0
C778 C 0.06226 0.56751 0.08762 0.0
C779 C 0.54342 1.0027 0.42307 0.0
C780 C 0.58045 0.04025 0.41152 0.0
C781 C 0.49278 0.99053 0.42261 0.0
C782 C 0.47547 1.01451 0.41037 0.0
H783 H 0.5534 0.98187 0.43259 0.0
H784 H 0.46672 0.96156 0.43193 0.0
S785 S 0.55582 0.11724 0.37772 0.0
N786 N 0.59489 0.10285 0.38789 0.0
N787 N 0.50041 0.07897 0.38669 0.0
C788 C 0.51167 0.05183 0.39863 0.0
C789 C 0.56357 0.0648 0.39926 0.0
C790 C 0.48172 0.4956 0.7574 0.0
C791 C 0.48005 0.46059 0.74414 0.0
C792 C 0.52078 0.54598 0.75775 0.0
C793 C 0.56034 0.56485 0.74468 0.0
H794 H 0.45219 0.48423 0.76765 0.0
H795 H 0.51962 0.57061 0.7683 0.0
S796 S 0.57695 0.48964 0.70765 0.0
N797 N 0.52442 0.44938 0.71808 0.0
N798 N 0.59618 0.54348 0.71843 0.0
C799 C 0.55936 0.53058 0.73131 0.0
C800 C 0.51988 0.47899 0.73109 0.0
C801 C 0.48225 0.98657 0.60856 0.0
C802 C 0.4815 0.02193 0.59619 0.0
C803 C 0.52146 0.97524 0.60837 0.0
C804 C 0.56229 0.99874 0.59583 0.0
H805 H 0.45155 0.96642 0.61821 0.0
H806 H 0.51907 0.94689 0.6179 0.0
S807 S 0.58233 0.09957 0.56241 0.0
N808 N 0.52812 0.08358 0.57222 0.0
N809 N 0.60117 0.06337 0.57204 0.0
C810 C 0.56281 0.03562 0.58393 0.0
C811 C 0.52284 0.04685 0.58406 0.0
C812 C 0.51434 0.47867 0.91691 0.0
C813 C 0.47803 0.47768 0.92927 0.0
C814 C 0.56451 0.5181 0.91695 0.0
C815 C 0.58181 0.55885 0.92949 0.0
H816 H 0.50412 0.44835 0.90707 0.0
H817 H 0.59018 0.51639 0.90706 0.0
S818 S 0.50265 0.57717 0.96416 0.0
N819 N 0.46382 0.52352 0.95399 0.0
N820 N 0.5575 0.59627 0.95429 0.0
C821 C 0.5462 0.55846 0.942 0.0
C822 C 0.49484 0.51847 0.94185 0.0
C823 C 0.05411 0.54767 0.24875 0.0
C824 C 0.03019 0.5649 0.26106 0.0
C825 C 0.04217 0.49708 0.2483 0.0
C826 C 1.00486 0.46 0.25991 0.0
H827 H 0.08288 0.57376 0.23937 0.0
H828 H 0.063 0.4872 0.23873 0.0
S829 S 0.92807 0.48446 0.29391 0.0
N830 N 0.96608 0.53987 0.28488 0.0
N831 N 0.94249 0.44547 0.28368 0.0
C832 C 0.98033 0.47682 0.27223 0.0
C833 C 0.99313 0.52867 0.27287 0.0
C834 C 0.06884 0.05966 0.07118 0.0
C835 C 0.04519 0.07636 0.08373 0.0
C836 C 0.05652 1.0091 0.07057 0.0
C837 C 1.02014 0.97245 0.08259 0.0
H838 H 0.09622 0.08562 0.06136 0.0
H839 H 0.07556 0.99859 0.06037 0.0
S840 S 0.94983 0.99748 0.11913 0.0
N841 N 0.98489 0.05224 0.10908 0.0
N842 N 0.96261 0.9582 0.10816 0.0
C843 C 0.99675 0.98895 0.0954 0.0
C844 C 1.00911 0.04041 0.09594 0.0
C845 C 1.02247 0.05323 0.40788 0.0
C846 C 0.98057 0.02634 0.41947 0.0
C847 C 0.06102 0.04147 0.40686 0.0
C848 C 0.06049 1.00267 0.41765 0.0
H849 H 1.02504 0.08307 0.39916 0.0
H850 H 0.09157 0.06312 0.39733 0.0
S851 S 0.9598 0.92221 0.45105 0.0
N852 N 0.94096 0.95927 0.44219 0.0
N853 N 1.01374 0.93847 0.44089 0.0
C854 C 1.01866 0.97564 0.4294 0.0
C855 C 0.97895 0.9872 0.4302 0.0
C856 C 0.05556 1.01017 0.76037 0.0
C857 C 0.07176 0.05119 0.7481 0.0
C858 C 1.00499 0.97162 0.76106 0.0
C859 C 0.96784 0.97238 0.74971 0.0
H860 H 0.08198 1.00819 0.7698 0.0
H861 H 0.99476 0.94095 0.77069 0.0
S862 S 0.99057 0.0674 0.71349 0.0
N863 N 0.04605 0.08676 0.72289 0.0
N864 N 0.95185 1.01589 0.72483 0.0
C865 C 0.98355 1.01246 0.73715 0.0
C866 C 0.03504 0.05123 0.73618 0.0
C867 C 0.98923 0.98278 0.57787 0.0
C868 C 0.9729 1.00584 0.59094 0.0
C869 C 0.03957 0.99433 0.57714 0.0
C870 C 0.07643 0.0298 0.58933 0.0
H871 H 0.96305 0.95598 0.56791 0.0
H872 H 0.04976 0.97517 0.56686 0.0
S873 S 0.0532 0.09757 0.6274 0.0
N874 N 0.99811 0.06362 0.61737 0.0
N875 N 0.09196 0.08568 0.6156 0.0
C876 C 0.06064 0.05279 0.60256 0.0
C877 C 1.00932 0.04072 0.60347 0.0
C878 C 0.02986 0.98282 0.93266 0.0
C879 C 0.98978 0.96606 0.91995 0.0
C880 C 0.06791 0.03344 0.9334 0.0
C881 C 0.06836 0.07011 0.92133 0.0
H882 H 0.03117 0.95684 0.9425 0.0
H883 H 0.09717 0.04396 0.94375 0.0
S884 S 0.97332 0.04491 0.88455 0.0
N885 N 0.95364 0.99012 0.89456 0.0
N886 N 1.02528 0.08427 0.89561 0.0
C887 C 0.02865 0.05353 0.90839 0.0
C888 C 0.98964 1.00201 0.90775 0.0
C889 C 0.06671 0.01999 0.26515 0.0
C890 C 0.04616 0.98112 0.25182 0.0
C891 C 0.05436 0.05829 0.2653 0.0
C892 C 1.02111 0.06019 0.25201 0.0
H893 H 0.0913 0.01994 0.27597 0.0
H894 H 0.07045 0.0862 0.27628 0.0
S895 S 0.9603 0.96902 0.21306 0.0
N896 N 0.99238 0.94791 0.22448 0.0
N897 N 0.97066 0.02004 0.22428 0.0
C898 C 1.00133 0.02193 0.23831 0.0
C899 C 1.01351 0.98267 0.23832 0.0
loop_
_geom_bond_atom_site_label_1
_geom_bond_atom_site_label_2
_geom_bond_distance
_geom_bond_site_symmetry_2
_ccdc_geom_bond_type
C0 C1 1.443 1_455 S
C0 N4 1.376 1_455 S
C0 C38 1.389 . S
C1 C0 1.443 1_655 S
C1 C2 1.340 . S
C1 H41 0.951 . S
C2 C1 1.340 . S
C2 C3 1.439 . S
C2 H42 0.950 . S
C3 C2 1.439 . S
C3 N4 1.374 . S
C3 C37 1.395 . S
N4 C0 1.376 1_655 S
N4 C3 1.374 . S
N4 Co5 2.008 1_655 S
Co5 N4 2.008 1_455 S
Co5 N6 1.995 1_455 S
Co5 N11 2.008 . S
Co5 N16 1.995 . S
Co5 N21 2.282 . S
Co5 N27 2.282 . S
N6 Co5 1.995 1_655 S
N6 C7 1.376 . S
N6 C10 1.383 . S
C7 N6 1.376 . S
C7 C8 1.446 . S
C7 C37 1.391 . S
C8 C7 1.446 . S
C8 C9 1.339 . S
C8 H43 0.949 . S
C9 C8 1.339 . S
C9 C10 1.439 . S
C9 H44 0.950 . S
C10 N6 1.383 . S
C10 C9 1.439 . S
C10 C39 1.392 . S
N11 Co5 2.008 . S
N11 C12 1.376 . S
N11 C15 1.374 . S
C12 N11 1.376 . S
C12 C13 1.443 . S
C12 C39 1.389 1_455 S
C13 C12 1.443 . S
C13 C14 1.340 . S
C13 H45 0.951 . S
C14 C13 1.340 . S
C14 C15 1.439 . S
C14 H46 0.950 . S
C15 N11 1.374 . S
C15 C14 1.439 . S
C15 C40 1.395 . S
N16 Co5 1.995 . S
N16 C17 1.376 . S
N16 C20 1.383 . S
C17 N16 1.376 . S
C17 C18 1.446 . S
C17 C40 1.391 . S
C18 C17 1.446 . S
C18 C19 1.339 . S
C18 H47 0.949 . S
C19 C18 1.339 . S
C19 C20 1.439 . S
C19 H48 0.950 . S
C20 N16 1.383 . S
C20 C19 1.439 . S
C20 C38 1.392 . S
N21 Co5 2.282 . S
N21 C24 1.332 . S
N21 C26 1.332 1_455 S
C22 C23 1.386 . S
C22 C25 1.388 1_455 S
C23 C22 1.386 . S
C23 C24 1.382 . S
C23 H49 0.950 . S
C24 N21 1.332 . S
C24 C23 1.382 . S
C24 H35 0.952 . S
C25 C22 1.388 1_655 S
C25 C26 1.382 . S
C25 H50 0.950 . S
C26 N21 1.332 1_655 S
C26 C25 1.382 . S
C26 H36 0.948 . S
N27 Co5 2.282 . S
N27 C31 1.332 1_455 S
N27 C32 1.332 . S
C28 C29 1.388 . S
C28 C32 1.382 . S
C28 H51 0.950 . S
C29 C28 1.388 . S
C29 C30 1.386 1_455 S
C30 C29 1.386 1_655 S
C30 C31 1.382 . S
C30 H52 0.950 . S
C31 N27 1.332 1_655 S
C31 C30 1.382 . S
C31 H33 0.952 . S
C32 N27 1.332 . S
C32 C28 1.382 . S
C32 H34 0.948 . S
H33 C31 0.952 . S
H34 C32 0.948 . S
H35 C24 0.952 . S
H36 C26 0.948 . S
C37 C3 1.395 . S
C37 C7 1.391 . S
C38 C0 1.389 . S
C38 C20 1.392 . S
C39 C10 1.392 . S
C39 C12 1.389 1_655 S
C40 C15 1.395 . S
C40 C17 1.391 . S
H41 C1 0.951 . S
H42 C2 0.950 . S
H43 C8 0.949 . S
H44 C9 0.950 . S
H45 C13 0.951 . S
H46 C14 0.950 . S
H47 C18 0.949 . S
H48 C19 0.950 . S
H49 C23 0.950 . S
H50 C25 0.950 . S
H51 C28 0.950 . S
H52 C30 0.950 . S
C53 C54 1.443 1_545 S
C53 N57 1.376 1_545 S
C53 C91 1.389 . S
C54 C53 1.443 1_565 S
C54 C55 1.340 . S
C54 H94 0.951 . S
C55 C54 1.340 . S
C55 C56 1.439 . S
C55 H95 0.950 . S
C56 C55 1.439 . S
C56 N57 1.374 . S
C56 C90 1.395 . S
N57 C53 1.376 1_565 S
N57 C56 1.374 . S
N57 Co58 2.008 1_565 S
Co58 N57 2.008 1_545 S
Co58 N59 1.995 1_545 S
Co58 N64 2.008 . S
Co58 N69 1.995 . S
Co58 N74 2.282 . S
Co58 N80 2.282 . S
N59 Co58 1.995 1_565 S
N59 C60 1.376 . S
N59 C63 1.383 . S
C60 N59 1.376 . S
C60 C61 1.446 . S
C60 C90 1.391 . S
C61 C60 1.446 . S
C61 C62 1.339 . S
C61 H96 0.949 . S
C62 C61 1.339 . S
C62 C63 1.439 . S
C62 H97 0.950 . S
C63 N59 1.383 . S
C63 C62 1.439 . S
C63 C92 1.392 . S
N64 Co58 2.008 . S
N64 C65 1.376 . S
N64 C68 1.374 . S
C65 N64 1.376 . S
C65 C66 1.443 . S
C65 C92 1.389 1_545 S
C66 C65 1.443 . S
C66 C67 1.340 . S
C66 H98 0.951 . S
C67 C66 1.340 . S
C67 C68 1.439 . S
C67 H99 0.950 . S
C68 N64 1.374 . S
C68 C67 1.439 . S
C68 C93 1.395 . S
N69 Co58 1.995 . S
N69 C70 1.376 . S
N69 C73 1.383 . S
C70 N69 1.376 . S
C70 C71 1.446 . S
C70 C93 1.391 . S
C71 C70 1.446 . S
C71 C72 1.339 . S
C71 H100 0.949 . S
C72 C71 1.339 . S
C72 C73 1.439 . S
C72 H101 0.950 . S
C73 N69 1.383 . S
C73 C72 1.439 . S
C73 C91 1.392 . S
N74 Co58 2.282 . S
N74 C77 1.332 . S
N74 C79 1.332 1_545 S
C75 C76 1.386 . S
C75 C78 1.388 1_545 S
C76 C75 1.386 . S
C76 C77 1.382 . S
C76 H102 0.950 . S
C77 N74 1.332 . S
C77 C76 1.382 . S
C77 H88 0.952 . S
C78 C75 1.388 1_565 S
C78 C79 1.382 . S
C78 H103 0.950 . S
C79 N74 1.332 1_565 S
C79 C78 1.382 . S
C79 H89 0.948 . S
N80 Co58 2.282 . S
N80 C84 1.332 1_545 S
N80 C85 1.332 . S
C81 C82 1.388 . S
C81 C85 1.382 . S
C81 H104 0.950 . S
C82 C81 1.388 . S
C82 C83 1.386 1_545 S
C83 C82 1.386 1_565 S
C83 C84 1.382 . S
C83 H105 0.950 . S
C84 N80 1.332 1_565 S
C84 C83 1.382 . S
C84 H86 0.952 . S
C85 N80 1.332 . S
C85 C81 1.382 . S
C85 H87 0.948 . S
H86 C84 0.952 . S
H87 C85 0.948 . S
H88 C77 0.952 . S
H89 C79 0.948 . S
C90 C56 1.395 . S
C90 C60 1.391 . S
C91 C53 1.389 . S
C91 C73 1.392 . S
C92 C63 1.392 . S
C92 C65 1.389 1_565 S
C93 C68 1.395 . S
C93 C70 1.391 . S
H94 C54 0.951 . S
H95 C55 0.950 . S
H96 C61 0.949 . S
H97 C62 0.950 . S
H98 C66 0.951 . S
H99 C67 0.950 . S
H100 C71 0.949 . S
H101 C72 0.950 . S
H102 C76 0.950 . S
H103 C78 0.950 . S
H104 C81 0.950 . S
H105 C83 0.950 . S
C106 C107 1.443 . S
C106 N110 1.376 . S
C106 C144 1.389 . S
C107 C106 1.443 . S
C107 C108 1.340 . S
C107 H147 0.951 . S
C108 C107 1.340 . S
C108 C109 1.439 . S
C108 H148 0.950 . S
C109 C108 1.439 . S
C109 N110 1.374 . S
C109 C143 1.395 . S
N110 C106 1.376 . S
N110 C109 1.374 . S
N110 Co111 2.008 . S
Co111 N110 2.008 . S
Co111 N112 1.995 . S
Co111 N117 2.008 . S
Co111 N122 1.995 . S
Co111 N127 2.282 . S
Co111 N133 2.282 . S
N112 Co111 1.995 . S
N112 C113 1.376 . S
N112 C116 1.383 . S
C113 N112 1.376 . S
C113 C114 1.446 . S
C113 C143 1.391 . S
C114 C113 1.446 . S
C114 C115 1.339 . S
C114 H149 0.949 . S
C115 C114 1.339 . S
C115 C116 1.439 . S
C115 H150 0.950 . S
C116 N112 1.383 . S
C116 C115 1.439 . S
C116 C145 1.392 . S
N117 Co111 2.008 . S
N117 C118 1.376 . S
N117 C121 1.374 . S
C118 N117 1.376 . S
C118 C119 1.443 . S
C118 C145 1.389 . S
C119 C118 1.443 . S
C119 C120 1.340 . S
C119 H151 0.951 . S
C120 C119 1.340 . S
C120 C121 1.439 . S
C120 H152 0.950 . S
C121 N117 1.374 . S
C121 C120 1.439 . S
C121 C146 1.395 . S
N122 Co111 1.995 . S
N122 C123 1.376 . S
N122 C126 1.383 . S
C123 N122 1.376 . S
C123 C124 1.446 . S
C123 C146 1.391 . S
C124 C123 1.446 . S
C124 C125 1.339 . S
C124 H153 0.949 . S
C125 C124 1.339 . S
C125 C126 1.439 . S
C125 H154 0.950 . S
C126 N122 1.383 . S
C126 C125 1.439 . S
C126 C144 1.392 . S
N127 Co111 2.282 . S
N127 C130 1.332 . S
N127 C132 1.332 . S
C128 C129 1.386 . S
C128 C131 1.388 . S
C129 C128 1.386 . S
C129 C130 1.382 . S
C129 H155 0.950 . S
C130 N127 1.332 . S
C130 C129 1.382 . S
C130 H141 0.952 . S
C131 C128 1.388 . S
C131 C132 1.382 . S
C131 H156 0.950 . S
C132 N127 1.332 . S
C132 C131 1.382 . S
C132 H142 0.948 . S
N133 Co111 2.282 . S
N133 C137 1.332 . S
N133 C138 1.332 . S
C134 C135 1.388 . S
C134 C138 1.382 . S
C134 H157 0.950 . S
C135 C134 1.388 . S
C135 C136 1.386 . S
C136 C135 1.386 . S
C136 C137 1.382 . S
C136 H158 0.950 . S
C137 N133 1.332 . S
C137 C136 1.382 . S
C137 H139 0.952 . S
C138 N133 1.332 . S
C138 C134 1.382 . S
C138 H140 0.948 . S
H139 C137 0.952 . S
H140 C138 0.948 . S
H141 C130 0.952 . S
H142 C132 0.948 . S
C143 C109 1.395 . S
C143 C113 1.391 . S
C144 C106 1.389 . S
C144 C126 1.392 . S
C145 C116 1.392 . S
C145 C118 1.389 . S
C146 C121 1.395 . S
C146 C123 1.391 . S
H147 C107 0.951 . S
H148 C108 0.950 . S
H149 C114 0.949 . S
H150 C115 0.950 . S
H151 C119 0.951 . S
H152 C120 0.950 . S
H153 C124 0.949 . S
H154 C125 0.950 . S
H155 C129 0.950 . S
H156 C131 0.950 . S
H157 C134 0.950 . S
H158 C136 0.950 . S
C159 C160 1.443 1_655 S
C159 N163 1.376 1_655 S
C159 C197 1.389 . S
C160 C159 1.443 1_455 S
C160 C161 1.340 . S
C160 H200 0.951 . S
C161 C160 1.340 . S
C161 C162 1.439 . S
C161 H201 0.950 . S
C162 C161 1.439 . S
C162 N163 1.374 . S
C162 C196 1.395 . S
N163 C159 1.376 1_455 S
N163 C162 1.374 . S
N163 Co164 2.008 1_455 S
Co164 N163 2.008 1_655 S
Co164 N165 1.995 1_655 S
Co164 N170 2.008 . S
Co164 N175 1.995 . S
Co164 N180 2.282 . S
Co164 N186 2.282 . S
N165 Co164 1.995 1_455 S
N165 C166 1.376 . S
N165 C169 1.383 . S
C166 N165 1.376 . S
C166 C167 1.446 . S
C166 C196 1.391 . S
C167 C166 1.446 . S
C167 C168 1.339 . S
C167 H202 0.949 . S
C168 C167 1.339 . S
C168 C169 1.439 . S
C168 H203 0.950 . S
C169 N165 1.383 . S
C169 C168 1.439 . S
C169 C198 1.392 . S
N170 Co164 2.008 . S
N170 C171 1.376 . S
N170 C174 1.374 . S
C171 N170 1.376 . S
C171 C172 1.443 . S
C171 C198 1.389 1_655 S
C172 C171 1.443 . S
C172 C173 1.340 . S
C172 H204 0.951 . S
C173 C172 1.340 . S
C173 C174 1.439 . S
C173 H205 0.950 . S
C174 N170 1.374 . S
C174 C173 1.439 . S
C174 C199 1.395 . S
N175 Co164 1.995 . S
N175 C176 1.376 . S
N175 C179 1.383 . S
C176 N175 1.376 . S
C176 C177 1.446 . S
C176 C199 1.391 . S
C177 C176 1.446 . S
C177 C178 1.339 . S
C177 H206 0.949 . S
C178 C177 1.339 . S
C178 C179 1.439 . S
C178 H207 0.950 . S
C179 N175 1.383 . S
C179 C178 1.439 . S
C179 C197 1.392 . S
N180 Co164 2.282 . S
N180 C183 1.332 . S
N180 C185 1.332 1_655 S
C181 C182 1.386 . S
C181 C184 1.388 1_655 S
C182 C181 1.386 . S
C182 C183 1.382 . S
C182 H208 0.950 . S
C183 N180 1.332 . S
C183 C182 1.382 . S
C183 H194 0.952 . S
C184 C181 1.388 1_455 S
C184 C185 1.382 . S
C184 H209 0.950 . S
C185 N180 1.332 1_455 S
C185 C184 1.382 . S
C185 H195 0.948 . S
N186 Co164 2.282 . S
N186 C190 1.332 1_655 S
N186 C191 1.332 . S
C187 C188 1.388 . S
C187 C191 1.382 . S
C187 H210 0.950 . S
C188 C187 1.388 . S
C188 C189 1.386 1_655 S
C189 C188 1.386 1_455 S
C189 C190 1.382 . S
C189 H211 0.950 . S
C190 N186 1.332 1_455 S
C190 C189 1.382 . S
C190 H192 0.952 . S
C191 N186 1.332 . S
C191 C187 1.382 . S
C191 H193 0.948 . S
H192 C190 0.952 . S
H193 C191 0.948 . S
H194 C183 0.952 . S
H195 C185 0.948 . S
C196 C162 1.395 . S
C196 C166 1.391 . S
C197 C159 1.389 . S
C197 C179 1.392 . S
C198 C169 1.392 . S
C198 C171 1.389 1_455 S
C199 C174 1.395 . S
C199 C176 1.391 . S
H200 C160 0.951 . S
H201 C161 0.950 . S
H202 C167 0.949 . S
H203 C168 0.950 . S
H204 C172 0.951 . S
H205 C173 0.950 . S
H206 C177 0.949 . S
H207 C178 0.950 . S
H208 C182 0.950 . S
H209 C184 0.950 . S
H210 C187 0.950 . S
H211 C189 0.950 . S
C212 C213 1.443 1_565 S
C212 N216 1.376 1_565 S
C212 C250 1.389 . S
C213 C212 1.443 1_545 S
C213 C214 1.340 . S
C213 H253 0.951 . S
C214 C213 1.340 . S
C214 C215 1.439 . S
C214 H254 0.950 . S
C215 C214 1.439 . S
C215 N216 1.374 . S
C215 C249 1.395 . S
N216 C212 1.376 1_545 S
N216 C215 1.374 . S
N216 Co217 2.008 1_545 S
Co217 N216 2.008 1_565 S
Co217 N218 1.995 1_565 S
Co217 N223 2.008 . S
Co217 N228 1.995 . S
Co217 N233 2.282 . S
Co217 N239 2.282 . S
N218 Co217 1.995 1_545 S
N218 C219 1.376 . S
N218 C222 1.383 . S
C219 N218 1.376 . S
C219 C220 1.446 . S
C219 C249 1.391 . S
C220 C219 1.446 . S
C220 C221 1.339 . S
C220 H255 0.949 . S
C221 C220 1.339 . S
C221 C222 1.439 . S
C221 H256 0.950 . S
C222 N218 1.383 . S
C222 C221 1.439 . S
C222 C251 1.392 . S
N223 Co217 2.008 . S
N223 C224 1.376 . S
N223 C227 1.374 . S
C224 N223 1.376 . S
C224 C225 1.443 . S
C224 C251 1.389 1_565 S
C225 C224 1.443 . S
C225 C226 1.340 . S
C225 H257 0.951 . S
C226 C225 1.340 . S
C226 C227 1.439 . S
C226 H258 0.950 . S
C227 N223 1.374 . S
C227 C226 1.439 . S
C227 C252 1.395 . S
N228 Co217 1.995 . S
N228 C229 1.376 . S
N228 C232 1.383 . S
C229 N228 1.376 . S
C229 C230 1.446 . S
C229 C252 1.391 . S
C230 C229 1.446 . S
C230 C231 1.339 . S
C230 H259 0.949 . S
C231 C230 1.339 . S
C231 C232 1.439 . S
C231 H260 0.950 . S
C232 N228 1.383 . S
C232 C231 1.439 . S
C232 C250 1.392 . S
N233 Co217 2.282 . S
N233 C236 1.332 . S
N233 C238 1.332 1_565 S
C234 C235 1.386 . S
C234 C237 1.388 1_565 S
C235 C234 1.386 . S
C235 C236 1.382 . S
C235 H261 0.950 . S
C236 N233 1.332 . S
C236 C235 1.382 . S
C236 H247 0.952 . S
C237 C234 1.388 1_545 S
C237 C238 1.382 . S
C237 H262 0.950 . S
C238 N233 1.332 1_545 S
C238 C237 1.382 . S
C238 H248 0.948 . S
N239 Co217 2.282 . S
N239 C243 1.332 1_565 S
N239 C244 1.332 . S
C240 C241 1.388 . S
C240 C244 1.382 . S
C240 H263 0.950 . S
C241 C240 1.388 . S
C241 C242 1.386 1_565 S
C242 C241 1.386 1_545 S
C242 C243 1.382 . S
C242 H264 0.950 . S
C243 N239 1.332 1_545 S
C243 C242 1.382 . S
C243 H245 0.952 . S
C244 N239 1.332 . S
C244 C240 1.382 . S
C244 H246 0.948 . S
H245 C243 0.952 . S
H246 C244 0.948 . S
H247 C236 0.952 . S
H248 C238 0.948 . S
C249 C215 1.395 . S
C249 C219 1.391 . S
C250 C212 1.389 . S
C250 C232 1.392 . S
C251 C222 1.392 . S
C251 C224 1.389 1_545 S
C252 C227 1.395 . S
C252 C229 1.391 . S
H253 C213 0.951 . S
H254 C214 0.950 . S
H255 C220 0.949 . S
H256 C221 0.950 . S
H257 C225 0.951 . S
H258 C226 0.950 . S
H259 C230 0.949 . S
H260 C231 0.950 . S
H261 C235 0.950 . S
H262 C237 0.950 . S
H263 C240 0.950 . S
H264 C242 0.950 . S
C265 C266 1.443 . S
C265 N269 1.376 . S
C265 C303 1.389 . S
C266 C265 1.443 . S
C266 C267 1.340 . S
C266 H306 0.951 . S
C267 C266 1.340 . S
C267 C268 1.439 . S
C267 H307 0.950 . S
C268 C267 1.439 . S
C268 N269 1.374 . S
C268 C302 1.395 . S
N269 C265 1.376 . S
N269 C268 1.374 . S
N269 Co270 2.008 . S
Co270 N269 2.008 . S
Co270 N271 1.995 . S
Co270 N276 2.008 . S
Co270 N281 1.995 . S
Co270 N286 2.282 . S
Co270 N292 2.282 . S
N271 Co270 1.995 . S
N271 C272 1.376 . S
N271 C275 1.383 . S
C272 N271 1.376 . S
C272 C273 1.446 . S
C272 C302 1.391 . S
C273 C272 1.446 . S
C273 C274 1.339 . S
C273 H308 0.949 . S
C274 C273 1.339 . S
C274 C275 1.439 . S
C274 H309 0.950 . S
C275 N271 1.383 . S
C275 C274 1.439 . S
C275 C304 1.392 . S
N276 Co270 2.008 . S
N276 C277 1.376 . S
N276 C280 1.374 . S
C277 N276 1.376 . S
C277 C278 1.443 . S
C277 C304 1.389 . S
C278 C277 1.443 . S
C278 C279 1.340 . S
C278 H310 0.951 . S
C279 C278 1.340 . S
C279 C280 1.439 . S
C279 H311 0.950 . S
C280 N276 1.374 . S
C280 C279 1.439 . S
C280 C305 1.395 . S
N281 Co270 1.995 . S
N281 C282 1.376 . S
N281 C285 1.383 . S
C282 N281 1.376 . S
C282 C283 1.446 . S
C282 C305 1.391 . S
C283 C282 1.446 . S
C283 C284 1.339 . S
C283 H312 0.949 . S
C284 C283 1.339 . S
C284 C285 1.439 . S
C284 H313 0.950 . S
C285 N281 1.383 . S
C285 C284 1.439 . S
C285 C303 1.392 . S
N286 Co270 2.282 . S
N286 C289 1.332 . S
N286 C291 1.332 . S
C287 C288 1.386 . S
C287 C290 1.388 . S
C288 C287 1.386 . S
C288 C289 1.382 . S
C288 H314 0.950 . S
C289 N286 1.332 . S
C289 C288 1.382 . S
C289 H300 0.952 . S
C290 C287 1.388 . S
C290 C291 1.382 . S
C290 H315 0.950 . S
C291 N286 1.332 . S
C291 C290 1.382 . S
C291 H301 0.948 . S
N292 Co270 2.282 . S
N292 C296 1.332 . S
N292 C297 1.332 . S
C293 C294 1.388 . S
C293 C297 1.382 . S
C293 H316 0.950 . S
C294 C293 1.388 . S
C294 C295 1.386 . S
C295 C294 1.386 . S
C295 C296 1.382 . S
C295 H317 0.950 . S
C296 N292 1.332 . S
C296 C295 1.382 . S
C296 H298 0.952 . S
C297 N292 1.332 . S
C297 C293 1.382 . S
C297 H299 0.948 . S
H298 C296 0.952 . S
H299 C297 0.948 . S
H300 C289 0.952 . S
H301 C291 0.948 . S
C302 C268 1.395 . S
C302 C272 1.391 . S
C303 C265 1.389 . S
C303 C285 1.392 . S
C304 C275 1.392 . S
C304 C277 1.389 . S
C305 C280 1.395 . S
C305 C282 1.391 . S
H306 C266 0.951 . S
H307 C267 0.950 . S
H308 C273 0.949 . S
H309 C274 0.950 . S
H310 C278 0.951 . S
H311 C279 0.950 . S
H312 C283 0.949 . S
H313 C284 0.950 . S
H314 C288 0.950 . S
H315 C290 0.950 . S
H316 C293 0.950 . S
H317 C295 0.950 . S
C318 C319 1.443 1_565 S
C318 N322 1.376 1_565 S
C318 C356 1.389 . S
C319 C318 1.443 1_545 S
C319 C320 1.340 . S
C319 H359 0.951 . S
C320 C319 1.340 . S
C320 C321 1.439 . S
C320 H360 0.950 . S
C321 C320 1.439 . S
C321 N322 1.374 . S
C321 C355 1.395 . S
N322 C318 1.376 1_545 S
N322 C321 1.374 . S
N322 Co323 2.008 1_545 S
Co323 N322 2.008 1_565 S
Co323 N324 1.995 1_565 S
Co323 N329 2.008 . S
Co323 N334 1.995 . S
Co323 N339 2.282 . S
Co323 N345 2.282 . S
N324 Co323 1.995 1_545 S
N324 C325 1.376 . S
N324 C328 1.383 . S
C325 N324 1.376 . S
C325 C326 1.446 . S
C325 C355 1.391 . S
C326 C325 1.446 . S
C326 C327 1.339 . S
C326 H361 0.949 . S
C327 C326 1.339 . S
C327 C328 1.439 . S
C327 H362 0.950 . S
C328 N324 1.383 . S
C328 C327 1.439 . S
C328 C357 1.392 . S
N329 Co323 2.008 . S
N329 C330 1.376 . S
N329 C333 1.374 . S
C330 N329 1.376 . S
C330 C331 1.443 . S
C330 C357 1.389 1_565 S
C331 C330 1.443 . S
C331 C332 1.340 . S
C331 H363 0.951 . S
C332 C331 1.340 . S
C332 C333 1.439 . S
C332 H364 0.950 . S
C333 N329 1.374 . S
C333 C332 1.439 . S
C333 C358 1.395 . S
N334 Co323 1.995 . S
N334 C335 1.376 . S
N334 C338 1.383 . S
C335 N334 1.376 . S
C335 C336 1.446 . S
C335 C358 1.391 . S
C336 C335 1.446 . S
C336 C337 1.339 . S
C336 H365 0.949 . S
C337 C336 1.339 . S
C337 C338 1.439 . S
C337 H366 0.950 . S
C338 N334 1.383 . S
C338 C337 1.439 . S
C338 C356 1.392 . S
N339 Co323 2.282 . S
N339 C342 1.332 . S
N339 C344 1.332 1_565 S
C340 C341 1.386 . S
C340 C343 1.388 1_565 S
C341 C340 1.386 . S
C341 C342 1.382 . S
C341 H367 0.950 . S
C342 N339 1.332 . S
C342 C341 1.382 . S
C342 H353 0.952 . S
C343 C340 1.388 1_545 S
C343 C344 1.382 . S
C343 H368 0.950 . S
C344 N339 1.332 1_545 S
C344 C343 1.382 . S
C344 H354 0.948 . S
N345 Co323 2.282 . S
N345 C349 1.332 1_565 S
N345 C350 1.332 . S
C346 C347 1.388 . S
C346 C350 1.382 . S
C346 H369 0.950 . S
C347 C346 1.388 . S
C347 C348 1.386 1_565 S
C348 C347 1.386 1_545 S
C348 C349 1.382 . S
C348 H370 0.950 . S
C349 N345 1.332 1_545 S
C349 C348 1.382 . S
C349 H351 0.952 . S
C350 N345 1.332 . S
C350 C346 1.382 . S
C350 H352 0.948 . S
H351 C349 0.952 . S
H352 C350 0.948 . S
H353 C342 0.952 . S
H354 C344 0.948 . S
C355 C321 1.395 . S
C355 C325 1.391 . S
C356 C318 1.389 . S
C356 C338 1.392 . S
C357 C328 1.392 . S
C357 C330 1.389 1_545 S
C358 C333 1.395 . S
C358 C335 1.391 . S
H359 C319 0.951 . S
H360 C320 0.950 . S
H361 C326 0.949 . S
H362 C327 0.950 . S
H363 C331 0.951 . S
H364 C332 0.950 . S
H365 C336 0.949 . S
H366 C337 0.950 . S
H367 C341 0.950 . S
H368 C343 0.950 . S
H369 C346 0.950 . S
H370 C348 0.950 . S
C371 C372 1.443 . S
C371 N375 1.376 . S
C371 C409 1.389 . S
C372 C371 1.443 . S
C372 C373 1.340 . S
C372 H412 0.951 . S
C373 C372 1.340 . S
C373 C374 1.439 . S
C373 H413 0.950 . S
C374 C373 1.439 . S
C374 N375 1.374 . S
C374 C408 1.395 . S
N375 C371 1.376 . S
N375 C374 1.374 . S
N375 Co376 2.008 . S
Co376 N375 2.008 . S
Co376 N377 1.995 . S
Co376 N382 2.008 . S
Co376 N387 1.995 . S
Co376 N392 2.282 . S
Co376 N398 2.282 . S
N377 Co376 1.995 . S
N377 C378 1.376 . S
N377 C381 1.383 . S
C378 N377 1.376 . S
C378 C379 1.446 . S
C378 C408 1.391 . S
C379 C378 1.446 . S
C379 C380 1.339 . S
C379 H414 0.949 . S
C380 C379 1.339 . S
C380 C381 1.439 . S
C380 H415 0.950 . S
C381 N377 1.383 . S
C381 C380 1.439 . S
C381 C410 1.392 . S
N382 Co376 2.008 . S
N382 C383 1.376 . S
N382 C386 1.374 . S
C383 N382 1.376 . S
C383 C384 1.443 . S
C383 C410 1.389 . S
C384 C383 1.443 . S
C384 C385 1.340 . S
C384 H416 0.951 . S
C385 C384 1.340 . S
C385 C386 1.439 . S
C385 H417 0.950 . S
C386 N382 1.374 . S
C386 C385 1.439 . S
C386 C411 1.395 . S
N387 Co376 1.995 . S
N387 C388 1.376 . S
N387 C391 1.383 . S
C388 N387 1.376 . S
C388 C389 1.446 . S
C388 C411 1.391 . S
C389 C388 1.446 . S
C389 C390 1.339 . S
C389 H418 0.949 . S
C390 C389 1.339 . S
C390 C391 1.439 . S
C390 H419 0.950 . S
C391 N387 1.383 . S
C391 C390 1.439 . S
C391 C409 1.392 . S
N392 Co376 2.282 . S
N392 C395 1.332 . S
N392 C397 1.332 . S
C393 C394 1.386 . S
C393 C396 1.388 . S
C394 C393 1.386 . S
C394 C395 1.382 . S
C394 H420 0.950 . S
C395 N392 1.332 . S
C395 C394 1.382 . S
C395 H406 0.952 . S
C396 C393 1.388 . S
C396 C397 1.382 . S
C396 H421 0.950 . S
C397 N392 1.332 . S
C397 C396 1.382 . S
C397 H407 0.948 . S
N398 Co376 2.282 . S
N398 C402 1.332 . S
N398 C403 1.332 . S
C399 C400 1.388 . S
C399 C403 1.382 . S
C399 H422 0.950 . S
C400 C399 1.388 . S
C400 C401 1.386 . S
C401 C400 1.386 . S
C401 C402 1.382 . S
C401 H423 0.950 . S
C402 N398 1.332 . S
C402 C401 1.382 . S
C402 H404 0.952 . S
C403 N398 1.332 . S
C403 C399 1.382 . S
C403 H405 0.948 . S
H404 C402 0.952 . S
H405 C403 0.948 . S
H406 C395 0.952 . S
H407 C397 0.948 . S
C408 C374 1.395 . S
C408 C378 1.391 . S
C409 C371 1.389 . S
C409 C391 1.392 . S
C410 C381 1.392 . S
C410 C383 1.389 . S
C411 C386 1.395 . S
C411 C388 1.391 . S
H412 C372 0.951 . S
H413 C373 0.950 . S
H414 C379 0.949 . S
H415 C380 0.950 . S
H416 C384 0.951 . S
H417 C385 0.950 . S
H418 C389 0.949 . S
H419 C390 0.950 . S
H420 C394 0.950 . S
H421 C396 0.950 . S
H422 C399 0.950 . S
H423 C401 0.950 . S
C424 C425 1.443 1_455 S
C424 N428 1.376 1_455 S
C424 C462 1.389 . S
C425 C424 1.443 1_655 S
C425 C426 1.340 . S
C425 H465 0.951 . S
C426 C425 1.340 . S
C426 C427 1.439 . S
C426 H466 0.950 . S
C427 C426 1.439 . S
C427 N428 1.374 . S
C427 C461 1.395 . S
N428 C424 1.376 1_655 S
N428 C427 1.374 . S
N428 Co429 2.008 1_655 S
Co429 N428 2.008 1_455 S
Co429 N430 1.995 1_455 S
Co429 N435 2.008 . S
Co429 N440 1.995 . S
Co429 N445 2.282 . S
Co429 N451 2.282 . S
N430 Co429 1.995 1_655 S
N430 C431 1.376 . S
N430 C434 1.383 . S
C431 N430 1.376 . S
C431 C432 1.446 . S
C431 C461 1.391 . S
C432 C431 1.446 . S
C432 C433 1.339 . S
C432 H467 0.949 . S
C433 C432 1.339 . S
C433 C434 1.439 . S
C433 H468 0.950 . S
C434 N430 1.383 . S
C434 C433 1.439 . S
C434 C463 1.392 . S
N435 Co429 2.008 . S
N435 C436 1.376 . S
N435 C439 1.374 . S
C436 N435 1.376 . S
C436 C437 1.443 . S
C436 C463 1.389 1_455 S
C437 C436 1.443 . S
C437 C438 1.340 . S
C437 H469 0.951 . S
C438 C437 1.340 . S
C438 C439 1.439 . S
C438 H470 0.950 . S
C439 N435 1.374 . S
C439 C438 1.439 . S
C439 C464 1.395 . S
N440 Co429 1.995 . S
N440 C441 1.376 . S
N440 C444 1.383 . S
C441 N440 1.376 . S
C441 C442 1.446 . S
C441 C464 1.391 . S
C442 C441 1.446 . S
C442 C443 1.339 . S
C442 H471 0.949 . S
C443 C442 1.339 . S
C443 C444 1.439 . S
C443 H472 0.950 . S
C444 N440 1.383 . S
C444 C443 1.439 . S
C444 C462 1.392 . S
N445 Co429 2.282 . S
N445 C448 1.332 . S
N445 C450 1.332 1_455 S
C446 C447 1.386 . S
C446 C449 1.388 1_455 S
C447 C446 1.386 . S
C447 C448 1.382 . S
C447 H473 0.950 . S
C448 N445 1.332 . S
C448 C447 1.382 . S
C448 H459 0.952 . S
C449 C446 1.388 1_655 S
C449 C450 1.382 . S
C449 H474 0.950 . S
C450 N445 1.332 1_655 S
C450 C449 1.382 . S
C450 H460 0.948 . S
N451 Co429 2.282 . S
N451 C455 1.332 1_455 S
N451 C456 1.332 . S
C452 C453 1.388 . S
C452 C456 1.382 . S
C452 H475 0.950 . S
C453 C452 1.388 . S
C453 C454 1.386 1_455 S
C454 C453 1.386 1_655 S
C454 C455 1.382 . S
C454 H476 0.950 . S
C455 N451 1.332 1_655 S
C455 C454 1.382 . S
C455 H457 0.952 . S
C456 N451 1.332 . S
C456 C452 1.382 . S
C456 H458 0.948 . S
H457 C455 0.952 . S
H458 C456 0.948 . S
H459 C448 0.952 . S
H460 C450 0.948 . S
C461 C427 1.395 . S
C461 C431 1.391 . S
C462 C424 1.389 . S
C462 C444 1.392 . S
C463 C434 1.392 . S
C463 C436 1.389 1_655 S
C464 C439 1.395 . S
C464 C441 1.391 . S
H465 C425 0.951 . S
H466 C426 0.950 . S
H467 C432 0.949 . S
H468 C433 0.950 . S
H469 C437 0.951 . S
H470 C438 0.950 . S
H471 C442 0.949 . S
H472 C443 0.950 . S
H473 C447 0.950 . S
H474 C449 0.950 . S
H475 C452 0.950 . S
H476 C454 0.950 . S
C477 C478 1.443 1_545 S
C477 N481 1.376 1_545 S
C477 C515 1.389 . S
C478 C477 1.443 1_565 S
C478 C479 1.340 . S
C478 H518 0.951 . S
C479 C478 1.340 . S
C479 C480 1.439 . S
C479 H519 0.950 . S
C480 C479 1.439 . S
C480 N481 1.374 . S
C480 C514 1.395 . S
N481 C477 1.376 1_565 S
N481 C480 1.374 . S
N481 Co482 2.008 1_565 S
Co482 N481 2.008 1_545 S
Co482 N483 1.995 1_545 S
Co482 N488 2.008 . S
Co482 N493 1.995 . S
Co482 N498 2.282 . S
Co482 N504 2.282 . S
N483 Co482 1.995 1_565 S
N483 C484 1.376 . S
N483 C487 1.383 . S
C484 N483 1.376 . S
C484 C485 1.446 . S
C484 C514 1.391 . S
C485 C484 1.446 . S
C485 C486 1.339 . S
C485 H520 0.949 . S
C486 C485 1.339 . S
C486 C487 1.439 . S
C486 H521 0.950 . S
C487 N483 1.383 . S
C487 C486 1.439 . S
C487 C516 1.392 . S
N488 Co482 2.008 . S
N488 C489 1.376 . S
N488 C492 1.374 . S
C489 N488 1.376 . S
C489 C490 1.443 . S
C489 C516 1.389 1_545 S
C490 C489 1.443 . S
C490 C491 1.340 . S
C490 H522 0.951 . S
C491 C490 1.340 . S
C491 C492 1.439 . S
C491 H523 0.950 . S
C492 N488 1.374 . S
C492 C491 1.439 . S
C492 C517 1.395 . S
N493 Co482 1.995 . S
N493 C494 1.376 . S
N493 C497 1.383 . S
C494 N493 1.376 . S
C494 C495 1.446 . S
C494 C517 1.391 . S
C495 C494 1.446 . S
C495 C496 1.339 . S
C495 H524 0.949 . S
C496 C495 1.339 . S
C496 C497 1.439 . S
C496 H525 0.950 . S
C497 N493 1.383 . S
C497 C496 1.439 . S
C497 C515 1.392 . S
N498 Co482 2.282 . S
N498 C501 1.332 . S
N498 C503 1.332 1_545 S
C499 C500 1.386 . S
C499 C502 1.388 1_545 S
C500 C499 1.386 . S
C500 C501 1.382 . S
C500 H526 0.950 . S
C501 N498 1.332 . S
C501 C500 1.382 . S
C501 H512 0.952 . S
C502 C499 1.388 1_565 S
C502 C503 1.382 . S
C502 H527 0.950 . S
C503 N498 1.332 1_565 S
C503 C502 1.382 . S
C503 H513 0.948 . S
N504 Co482 2.282 . S
N504 C508 1.332 1_545 S
N504 C509 1.332 . S
C505 C506 1.388 . S
C505 C509 1.382 . S
C505 H528 0.950 . S
C506 C505 1.388 . S
C506 C507 1.386 1_545 S
C507 C506 1.386 1_565 S
C507 C508 1.382 . S
C507 H529 0.950 . S
C508 N504 1.332 1_565 S
C508 C507 1.382 . S
C508 H510 0.952 . S
C509 N504 1.332 . S
C509 C505 1.382 . S
C509 H511 0.948 . S
H510 C508 0.952 . S
H511 C509 0.948 . S
H512 C501 0.952 . S
H513 C503 0.948 . S
C514 C480 1.395 . S
C514 C484 1.391 . S
C515 C477 1.389 . S
C515 C497 1.392 . S
C516 C487 1.392 . S
C516 C489 1.389 1_565 S
C517 C492 1.395 . S
C517 C494 1.391 . S
H518 C478 0.951 . S
H519 C479 0.950 . S
H520 C485 0.949 . S
H521 C486 0.950 . S
H522 C490 0.951 . S
H523 C491 0.950 . S
H524 C495 0.949 . S
H525 C496 0.950 . S
H526 C500 0.950 . S
H527 C502 0.950 . S
H528 C505 0.950 . S
H529 C507 0.950 . S
C530 C531 1.443 . S
C530 N534 1.376 . S
C530 C568 1.389 . S
C531 C530 1.443 . S
C531 C532 1.340 . S
C531 H571 0.951 . S
C532 C531 1.340 . S
C532 C533 1.439 . S
C532 H572 0.950 . S
C533 C532 1.439 . S
C533 N534 1.374 . S
C533 C567 1.395 . S
N534 C530 1.376 . S
N534 C533 1.374 . S
N534 Co535 2.008 . S
Co535 N534 2.008 . S
Co535 N536 1.995 . S
Co535 N541 2.008 . S
Co535 N546 1.995 . S
Co535 N551 2.282 . S
Co535 N557 2.282 . S
N536 Co535 1.995 . S
N536 C537 1.376 . S
N536 C540 1.383 . S
C537 N536 1.376 . S
C537 C538 1.446 . S
C537 C567 1.391 . S
C538 C537 1.446 . S
C538 C539 1.339 . S
C538 H573 0.949 . S
C539 C538 1.339 . S
C539 C540 1.439 . S
C539 H574 0.950 . S
C540 N536 1.383 . S
C540 C539 1.439 . S
C540 C569 1.392 . S
N541 Co535 2.008 . S
N541 C542 1.376 . S
N541 C545 1.374 . S
C542 N541 1.376 . S
C542 C543 1.443 . S
C542 C569 1.389 . S
C543 C542 1.443 . S
C543 C544 1.340 . S
C543 H575 0.951 . S
C544 C543 1.340 . S
C544 C545 1.439 . S
C544 H576 0.950 . S
C545 N541 1.374 . S
C545 C544 1.439 . S
C545 C570 1.395 . S
N546 Co535 1.995 . S
N546 C547 1.376 . S
N546 C550 1.383 . S
C547 N546 1.376 . S
C547 C548 1.446 . S
C547 C570 1.391 . S
C548 C547 1.446 . S
C548 C549 1.339 . S
C548 H577 0.949 . S
C549 C548 1.339 . S
C549 C550 1.439 . S
C549 H578 0.950 . S
C550 N546 1.383 . S
C550 C549 1.439 . S
C550 C568 1.392 . S
N551 Co535 2.282 . S
N551 C554 1.332 . S
N551 C556 1.332 . S
C552 C553 1.386 . S
C552 C555 1.388 . S
C553 C552 1.386 . S
C553 C554 1.382 . S
C553 H579 0.950 . S
C554 N551 1.332 . S
C554 C553 1.382 . S
C554 H565 0.952 . S
C555 C552 1.388 . S
C555 C556 1.382 . S
C555 H580 0.950 . S
C556 N551 1.332 . S
C556 C555 1.382 . S
C556 H566 0.948 . S
N557 Co535 2.282 . S
N557 C561 1.332 . S
N557 C562 1.332 . S
C558 C559 1.388 . S
C558 C562 1.382 . S
C558 H581 0.950 . S
C559 C558 1.388 . S
C559 C560 1.386 . S
C560 C559 1.386 . S
C560 C561 1.382 . S
C560 H582 0.950 . S
C561 N557 1.332 . S
C561 C560 1.382 . S
C561 H563 0.952 . S
C562 N557 1.332 . S
C562 C558 1.382 . S
C562 H564 0.948 . S
H563 C561 0.952 . S
H564 C562 0.948 . S
H565 C554 0.952 . S
H566 C556 0.948 . S
C567 C533 1.395 . S
C567 C537 1.391 . S
C568 C530 1.389 . S
C568 C550 1.392 . S
C569 C540 1.392 . S
C569 C542 1.389 . S
C570 C545 1.395 . S
C570 C547 1.391 . S
H571 C531 0.951 . S
H572 C532 0.950 . S
H573 C538 0.949 . S
H574 C539 0.950 . S
H575 C543 0.951 . S
H576 C544 0.950 . S
H577 C548 0.949 . S
H578 C549 0.950 . S
H579 C553 0.950 . S
H580 C555 0.950 . S
H581 C558 0.950 . S
H582 C560 0.950 . S
C583 C584 1.443 1_655 S
C583 N587 1.376 1_655 S
C583 C621 1.389 . S
C584 C583 1.443 1_455 S
C584 C585 1.340 . S
C584 H624 0.951 . S
C585 C584 1.340 . S
C585 C586 1.439 . S
C585 H625 0.950 . S
C586 C585 1.439 . S
C586 N587 1.374 . S
C586 C620 1.395 . S
N587 C583 1.376 1_455 S
N587 C586 1.374 . S
N587 Co588 2.008 1_455 S
Co588 N587 2.008 1_655 S
Co588 N589 1.995 1_655 S
Co588 N594 2.008 . S
Co588 N599 1.995 . S
Co588 N604 2.282 . S
Co588 N610 2.282 . S
N589 Co588 1.995 1_455 S
N589 C590 1.376 . S
N589 C593 1.383 . S
C590 N589 1.376 . S
C590 C591 1.446 . S
C590 C620 1.391 . S
C591 C590 1.446 . S
C591 C592 1.339 . S
C591 H626 0.949 . S
C592 C591 1.339 . S
C592 C593 1.439 . S
C592 H627 0.950 . S
C593 N589 1.383 . S
C593 C592 1.439 . S
C593 C622 1.392 . S
N594 Co588 2.008 . S
N594 C595 1.376 . S
N594 C598 1.374 . S
C595 N594 1.376 . S
C595 C596 1.443 . S
C595 C622 1.389 1_655 S
C596 C595 1.443 . S
C596 C597 1.340 . S
C596 H628 0.951 . S
C597 C596 1.340 . S
C597 C598 1.439 . S
C597 H629 0.950 . S
C598 N594 1.374 . S
C598 C597 1.439 . S
C598 C623 1.395 . S
N599 Co588 1.995 . S
N599 C600 1.376 . S
N599 C603 1.383 . S
C600 N599 1.376 . S
C600 C601 1.446 . S
C600 C623 1.391 . S
C601 C600 1.446 . S
C601 C602 1.339 . S
C601 H630 0.949 . S
C602 C601 1.339 . S
C602 C603 1.439 . S
C602 H631 0.950 . S
C603 N599 1.383 . S
C603 C602 1.439 . S
C603 C621 1.392 . S
N604 Co588 2.282 . S
N604 C607 1.332 . S
N604 C609 1.332 1_655 S
C605 C606 1.386 . S
C605 C608 1.388 1_655 S
C606 C605 1.386 . S
C606 C607 1.382 . S
C606 H632 0.950 . S
C607 N604 1.332 . S
C607 C606 1.382 . S
C607 H618 0.952 . S
C608 C605 1.388 1_455 S
C608 C609 1.382 . S
C608 H633 0.950 . S
C609 N604 1.332 1_455 S
C609 C608 1.382 . S
C609 H619 0.948 . S
N610 Co588 2.282 . S
N610 C614 1.332 1_655 S
N610 C615 1.332 . S
C611 C612 1.388 . S
C611 C615 1.382 . S
C611 H634 0.950 . S
C612 C611 1.388 . S
C612 C613 1.386 1_655 S
C613 C612 1.386 1_455 S
C613 C614 1.382 . S
C613 H635 0.950 . S
C614 N610 1.332 1_455 S
C614 C613 1.382 . S
C614 H616 0.952 . S
C615 N610 1.332 . S
C615 C611 1.382 . S
C615 H617 0.948 . S
H616 C614 0.952 . S
H617 C615 0.948 . S
H618 C607 0.952 . S
H619 C609 0.948 . S
C620 C586 1.395 . S
C620 C590 1.391 . S
C621 C583 1.389 . S
C621 C603 1.392 . S
C622 C593 1.392 . S
C622 C595 1.389 1_455 S
C623 C598 1.395 . S
C623 C600 1.391 . S
H624 C584 0.951 . S
H625 C585 0.950 . S
H626 C591 0.949 . S
H627 C592 0.950 . S
H628 C596 0.951 . S
H629 C597 0.950 . S
H630 C601 0.949 . S
H631 C602 0.950 . S
H632 C606 0.950 . S
H633 C608 0.950 . S
H634 C611 0.950 . S
H635 C613 0.950 . S
C636 C637 1.369 1_655 S
C636 C638 1.419 . S
C636 H640 0.930 . S
C637 C636 1.369 1_455 S
C637 C646 1.429 . S
C638 C636 1.419 . S
C638 C639 1.363 . S
C638 H641 0.929 . S
C639 C638 1.363 . S
C639 C645 1.428 1_655 S
H640 C636 0.930 . S
H641 C638 0.929 . S
S642 N643 1.613 . S
S642 N644 1.610 . S
N643 S642 1.613 . S
N643 C646 1.350 . S
N644 S642 1.610 . S
N644 C645 1.351 . S
C645 C639 1.428 1_455 S
C645 N644 1.351 . S
C645 C646 1.434 . S
C646 C637 1.429 . S
C646 N643 1.350 . S
C646 C645 1.434 . S
C647 C648 1.369 1_545 S
C647 C649 1.419 . S
C647 H651 0.930 . S
C648 C647 1.369 1_565 S
C648 C657 1.429 . S
C649 C647 1.419 . S
C649 C650 1.363 . S
C649 H652 0.929 . S
C650 C649 1.363 . S
C650 C656 1.428 1_545 S
H651 C647 0.930 . S
H652 C649 0.929 . S
S653 N654 1.613 . S
S653 N655 1.610 . S
N654 S653 1.613 . S
N654 C657 1.350 . S
N655 S653 1.610 . S
N655 C656 1.351 . S
C656 C650 1.428 1_565 S
C656 N655 1.351 . S
C656 C657 1.434 . S
C657 C648 1.429 . S
C657 N654 1.350 . S
C657 C656 1.434 . S
C658 C659 1.369 . S
C658 C660 1.419 . S
C658 H662 0.930 . S
C659 C658 1.369 . S
C659 C668 1.429 . S
C660 C658 1.419 . S
C660 C661 1.363 . S
C660 H663 0.929 . S
C661 C660 1.363 . S
C661 C667 1.428 . S
H662 C658 0.930 . S
H663 C660 0.929 . S
S664 N665 1.613 . S
S664 N666 1.610 . S
N665 S664 1.613 . S
N665 C668 1.350 . S
N666 S664 1.610 . S
N666 C667 1.351 . S
C667 C661 1.428 . S
C667 N666 1.351 . S
C667 C668 1.434 . S
C668 C659 1.429 . S
C668 N665 1.350 . S
C668 C667 1.434 . S
C669 C670 1.369 1_655 S
C669 C671 1.419 . S
C669 H673 0.930 . S
C670 C669 1.369 1_455 S
C670 C679 1.429 . S
C671 C669 1.419 . S
C671 C672 1.363 . S
C671 H674 0.929 . S
C672 C671 1.363 . S
C672 C678 1.428 1_655 S
H673 C669 0.930 . S
H674 C671 0.929 . S
S675 N676 1.613 . S
S675 N677 1.610 . S
N676 S675 1.613 . S
N676 C679 1.350 . S
N677 S675 1.610 . S
N677 C678 1.351 . S
C678 C672 1.428 1_455 S
C678 N677 1.351 . S
C678 C679 1.434 . S
C679 C670 1.429 . S
C679 N676 1.350 . S
C679 C678 1.434 . S
C680 C681 1.369 . S
C680 C682 1.419 1_565 S
C680 H684 0.930 . S
C681 C680 1.369 . S
C681 C690 1.429 . S
C682 C680 1.419 1_545 S
C682 C683 1.363 . S
C682 H685 0.929 . S
C683 C682 1.363 . S
C683 C689 1.428 . S
H684 C680 0.930 . S
H685 C682 0.929 . S
S686 N687 1.613 1_545 S
S686 N688 1.610 . S
N687 S686 1.613 1_565 S
N687 C690 1.350 . S
N688 S686 1.610 . S
N688 C689 1.351 . S
C689 C683 1.428 . S
C689 N688 1.351 . S
C689 C690 1.434 1_545 S
C690 C681 1.429 . S
C690 N687 1.350 . S
C690 C689 1.434 1_565 S
C691 C692 1.369 . S
C691 C693 1.419 . S
C691 H695 0.930 . S
C692 C691 1.369 . S
C692 C701 1.429 . S
C693 C691 1.419 . S
C693 C694 1.363 . S
C693 H696 0.929 . S
C694 C693 1.363 . S
C694 C700 1.428 . S
H695 C691 0.930 . S
H696 C693 0.929 . S
S697 N698 1.613 . S
S697 N699 1.610 . S
N698 S697 1.613 . S
N698 C701 1.350 . S
N699 S697 1.610 . S
N699 C700 1.351 . S
C700 C694 1.428 . S
C700 N699 1.351 . S
C700 C701 1.434 . S
C701 C692 1.429 . S
C701 N698 1.350 . S
C701 C700 1.434 . S
C702 C703 1.369 . S
C702 C704 1.419 . S
C702 H706 0.930 . S
C703 C702 1.369 . S
C703 C712 1.429 1_554 S
C704 C702 1.419 . S
C704 C705 1.363 1_554 S
C704 H707 0.929 . S
C705 C704 1.363 1_556 S
C705 C711 1.428 . S
H706 C702 0.930 . S
H707 C704 0.929 . S
S708 N709 1.613 . S
S708 N710 1.610 . S
N709 S708 1.613 . S
N709 C712 1.350 . S
N710 S708 1.610 . S
N710 C711 1.351 . S
C711 C705 1.428 . S
C711 N710 1.351 . S
C711 C712 1.434 . S
C712 C703 1.429 1_556 S
C712 N709 1.350 . S
C712 C711 1.434 . S
C713 C714 1.369 . S
C713 C715 1.419 . S
C713 H717 0.930 . S
C714 C713 1.369 . S
C714 C723 1.429 . S
C715 C713 1.419 . S
C715 C716 1.363 . S
C715 H718 0.929 . S
C716 C715 1.363 . S
C716 C722 1.428 . S
H717 C713 0.930 . S
H718 C715 0.929 . S
S719 N720 1.613 . S
S719 N721 1.610 . S
N720 S719 1.613 . S
N720 C723 1.350 . S
N721 S719 1.610 . S
N721 C722 1.351 . S
C722 C716 1.428 . S
C722 N721 1.351 . S
C722 C723 1.434 . S
C723 C714 1.429 . S
C723 N720 1.350 . S
C723 C722 1.434 . S
C724 C725 1.369 . S
C724 C726 1.419 . S
C724 H728 0.930 . S
C725 C724 1.369 . S
C725 C734 1.429 . S
C726 C724 1.419 . S
C726 C727 1.363 . S
C726 H729 0.929 . S
C727 C726 1.363 . S
C727 C733 1.428 . S
H728 C724 0.930 . S
H729 C726 0.929 . S
S730 N731 1.613 . S
S730 N732 1.610 . S
N731 S730 1.613 . S
N731 C734 1.350 . S
N732 S730 1.610 . S
N732 C733 1.351 . S
C733 C727 1.428 . S
C733 N732 1.351 . S
C733 C734 1.434 . S
C734 C725 1.429 . S
C734 N731 1.350 . S
C734 C733 1.434 . S
C735 C736 1.369 . S
C735 C737 1.419 . S
C735 H739 0.930 . S
C736 C735 1.369 . S
C736 C745 1.429 1_554 S
C737 C735 1.419 . S
C737 C738 1.363 1_554 S
C737 H740 0.929 . S
C738 C737 1.363 1_556 S
C738 C744 1.428 . S
H739 C735 0.930 . S
H740 C737 0.929 . S
S741 N742 1.613 . S
S741 N743 1.610 . S
N742 S741 1.613 . S
N742 C745 1.350 . S
N743 S741 1.610 . S
N743 C744 1.351 . S
C744 C738 1.428 . S
C744 N743 1.351 . S
C744 C745 1.434 . S
C745 C736 1.429 1_556 S
C745 N742 1.350 . S
C745 C744 1.434 . S
C746 C747 1.369 . S
C746 C748 1.419 . S
C746 H750 0.930 . S
C747 C746 1.369 . S
C747 C756 1.429 . S
C748 C746 1.419 . S
C748 C749 1.363 . S
C748 H751 0.929 . S
C749 C748 1.363 . S
C749 C755 1.428 . S
H750 C746 0.930 . S
H751 C748 0.929 . S
S752 N753 1.613 . S
S752 N754 1.610 . S
N753 S752 1.613 . S
N753 C756 1.350 . S
N754 S752 1.610 . S
N754 C755 1.351 . S
C755 C749 1.428 . S
C755 N754 1.351 . S
C755 C756 1.434 . S
C756 C747 1.429 . S
C756 N753 1.350 . S
C756 C755 1.434 . S
C757 C758 1.369 . S
C757 C759 1.419 . S
C757 H761 0.930 . S
C758 C757 1.369 . S
C758 C767 1.429 . S
C759 C757 1.419 . S
C759 C760 1.363 . S
C759 H762 0.929 . S
C760 C759 1.363 . S
C760 C766 1.428 . S
H761 C757 0.930 . S
H762 C759 0.929 . S
S763 N764 1.613 . S
S763 N765 1.610 . S
N764 S763 1.613 . S
N764 C767 1.350 . S
N765 S763 1.610 . S
N765 C766 1.351 . S
C766 C760 1.428 . S
C766 N765 1.351 . S
C766 C767 1.434 . S
C767 C758 1.429 . S
C767 N764 1.350 . S
C767 C766 1.434 . S
C768 C769 1.369 . S
C768 C770 1.419 . S
C768 H772 0.930 . S
C769 C768 1.369 . S
C769 C778 1.429 1_655 S
C770 C768 1.419 . S
C770 C771 1.363 1_655 S
C770 H773 0.929 . S
C771 C770 1.363 1_455 S
C771 C777 1.428 . S
H772 C768 0.930 . S
H773 C770 0.929 . S
S774 N775 1.613 . S
S774 N776 1.610 . S
N775 S774 1.613 . S
N775 C778 1.350 . S
N776 S774 1.610 . S
N776 C777 1.351 . S
C777 C771 1.428 . S
C777 N776 1.351 . S
C777 C778 1.434 . S
C778 C769 1.429 1_455 S
C778 N775 1.350 . S
C778 C777 1.434 . S
C779 C780 1.369 1_565 S
C779 C781 1.419 . S
C779 H783 0.930 . S
C780 C779 1.369 1_545 S
C780 C789 1.429 . S
C781 C779 1.419 . S
C781 C782 1.363 . S
C781 H784 0.929 . S
C782 C781 1.363 . S
C782 C788 1.428 1_565 S
H783 C779 0.930 . S
H784 C781 0.929 . S
S785 N786 1.613 . S
S785 N787 1.610 . S
N786 S785 1.613 . S
N786 C789 1.350 . S
N787 S785 1.610 . S
N787 C788 1.351 . S
C788 C782 1.428 1_545 S
C788 N787 1.351 . S
C788 C789 1.434 . S
C789 C780 1.429 . S
C789 N786 1.350 . S
C789 C788 1.434 . S
C790 C791 1.369 . S
C790 C792 1.419 . S
C790 H794 0.930 . S
C791 C790 1.369 . S
C791 C800 1.429 . S
C792 C790 1.419 . S
C792 C793 1.363 . S
C792 H795 0.929 . S
C793 C792 1.363 . S
C793 C799 1.428 . S
H794 C790 0.930 . S
H795 C792 0.929 . S
S796 N797 1.613 . S
S796 N798 1.610 . S
N797 S796 1.613 . S
N797 C800 1.350 . S
N798 S796 1.610 . S
N798 C799 1.351 . S
C799 C793 1.428 . S
C799 N798 1.351 . S
C799 C800 1.434 . S
C800 C791 1.429 . S
C800 N797 1.350 . S
C800 C799 1.434 . S
C801 C802 1.369 1_565 S
C801 C803 1.419 . S
C801 H805 0.930 . S
C802 C801 1.369 1_545 S
C802 C811 1.429 . S
C803 C801 1.419 . S
C803 C804 1.363 . S
C803 H806 0.929 . S
C804 C803 1.363 . S
C804 C810 1.428 1_565 S
H805 C801 0.930 . S
H806 C803 0.929 . S
S807 N808 1.613 . S
S807 N809 1.610 . S
N808 S807 1.613 . S
N808 C811 1.350 . S
N809 S807 1.610 . S
N809 C810 1.351 . S
C810 C804 1.428 1_545 S
C810 N809 1.351 . S
C810 C811 1.434 . S
C811 C802 1.429 . S
C811 N808 1.350 . S
C811 C810 1.434 . S
C812 C813 1.369 . S
C812 C814 1.419 . S
C812 H816 0.930 . S
C813 C812 1.369 . S
C813 C822 1.429 . S
C814 C812 1.419 . S
C814 C815 1.363 . S
C814 H817 0.929 . S
C815 C814 1.363 . S
C815 C821 1.428 . S
H816 C812 0.930 . S
H817 C814 0.929 . S
S818 N819 1.613 . S
S818 N820 1.610 . S
N819 S818 1.613 . S
N819 C822 1.350 . S
N820 S818 1.610 . S
N820 C821 1.351 . S
C821 C815 1.428 . S
C821 N820 1.351 . S
C821 C822 1.434 . S
C822 C813 1.429 . S
C822 N819 1.350 . S
C822 C821 1.434 . S
C823 C824 1.369 . S
C823 C825 1.419 . S
C823 H827 0.930 . S
C824 C823 1.369 . S
C824 C833 1.429 1_455 S
C825 C823 1.419 . S
C825 C826 1.363 1_455 S
C825 H828 0.929 . S
C826 C825 1.363 1_655 S
C826 C832 1.428 . S
H827 C823 0.930 . S
H828 C825 0.929 . S
S829 N830 1.613 . S
S829 N831 1.610 . S
N830 S829 1.613 . S
N830 C833 1.350 . S
N831 S829 1.610 . S
N831 C832 1.351 . S
C832 C826 1.428 . S
C832 N831 1.351 . S
C832 C833 1.434 . S
C833 C824 1.429 1_655 S
C833 N830 1.350 . S
C833 C832 1.434 . S
C834 C835 1.369 . S
C834 C836 1.419 1_545 S
C834 H838 0.930 . S
C835 C834 1.369 . S
C835 C844 1.429 1_455 S
C836 C834 1.419 1_565 S
C836 C837 1.363 1_455 S
C836 H839 0.929 . S
C837 C836 1.363 1_655 S
C837 C843 1.428 . S
H838 C834 0.930 . S
H839 C836 0.929 . S
S840 N841 1.613 1_565 S
S840 N842 1.610 . S
N841 S840 1.613 1_545 S
N841 C844 1.350 . S
N842 S840 1.610 . S
N842 C843 1.351 . S
C843 C837 1.428 . S
C843 N842 1.351 . S
C843 C844 1.434 1_565 S
C844 C835 1.429 1_655 S
C844 N841 1.350 . S
C844 C843 1.434 1_545 S
C845 C846 1.369 . S
C845 C847 1.419 1_655 S
C845 H849 0.930 . S
C846 C845 1.369 . S
C846 C855 1.429 1_545 S
C847 C845 1.419 1_455 S
C847 C848 1.363 1_545 S
C847 H850 0.929 . S
C848 C847 1.363 1_565 S
C848 C854 1.428 . S
H849 C845 0.930 . S
H850 C847 0.929 . S
S851 N852 1.613 . S
S851 N853 1.611 . S
N852 S851 1.613 . S
N852 C855 1.350 . S
N853 S851 1.611 . S
N853 C854 1.351 1_655 S
C854 C848 1.428 . S
C854 N853 1.351 1_455 S
C854 C855 1.434 1_455 S
C855 C846 1.429 1_565 S
C855 N852 1.350 . S
C855 C854 1.434 1_655 S
C856 C857 1.369 1_565 S
C856 C858 1.419 1_455 S
C856 H860 0.930 . S
C857 C856 1.369 1_545 S
C857 C866 1.429 . S
C858 C856 1.419 1_655 S
C858 C859 1.363 . S
C858 H861 0.929 . S
C859 C858 1.363 . S
C859 C865 1.428 1_565 S
H860 C856 0.930 . S
H861 C858 0.929 . S
S862 N863 1.613 1_655 S
S862 N864 1.610 . S
N863 S862 1.613 1_455 S
N863 C866 1.350 . S
N864 S862 1.610 . S
N864 C865 1.351 . S
C865 C859 1.428 1_545 S
C865 N864 1.351 . S
C865 C866 1.434 1_655 S
C866 C857 1.429 . S
C866 N863 1.350 . S
C866 C865 1.434 1_455 S
C867 C868 1.369 . S
C867 C869 1.419 1_655 S
C867 H871 0.930 . S
C868 C867 1.369 . S
C868 C877 1.429 1_565 S
C869 C867 1.419 1_455 S
C869 C870 1.363 1_565 S
C869 H872 0.929 . S
C870 C869 1.363 1_545 S
C870 C876 1.428 . S
H871 C867 0.930 . S
H872 C869 0.929 . S
S873 N874 1.613 1_455 S
S873 N875 1.610 . S
N874 S873 1.613 1_655 S
N874 C877 1.350 . S
N875 S873 1.610 . S
N875 C876 1.351 . S
C876 C870 1.428 . S
C876 N875 1.351 . S
C876 C877 1.434 1_455 S
C877 C868 1.429 1_545 S
C877 N874 1.350 . S
C877 C876 1.434 1_655 S
C878 C879 1.369 1_455 S
C878 C880 1.419 1_565 S
C878 H882 0.930 . S
C879 C878 1.369 1_655 S
C879 C888 1.429 . S
C880 C878 1.419 1_545 S
C880 C881 1.363 . S
C880 H883 0.929 . S
C881 C880 1.363 . S
C881 C887 1.428 1_455 S
H882 C878 0.930 . S
H883 C880 0.929 . S
S884 N885 1.613 1_545 S
S884 N886 1.610 . S
N885 S884 1.613 1_565 S
N885 C888 1.350 . S
N886 S884 1.610 . S
N886 C887 1.351 . S
C887 C881 1.428 1_655 S
C887 N886 1.351 . S
C887 C888 1.434 1_545 S
C888 C879 1.429 . S
C888 N885 1.350 . S
C888 C887 1.434 1_565 S
C889 C890 1.369 . S
C889 C891 1.419 1_565 S
C889 H893 0.930 . S
C890 C889 1.369 . S
C890 C899 1.429 1_455 S
C891 C889 1.419 1_545 S
C891 C892 1.363 1_455 S
C891 H894 0.929 . S
C892 C891 1.363 1_655 S
C892 C898 1.428 . S
H893 C889 0.930 . S
H894 C891 0.929 . S
S895 N896 1.613 . S
S895 N897 1.610 1_565 S
N896 S895 1.613 . S
N896 C899 1.350 . S
N897 S895 1.610 1_545 S
N897 C898 1.351 . S
C898 C892 1.428 . S
C898 N897 1.351 . S
C898 C899 1.434 1_545 S
C899 C890 1.429 1_655 S
C899 N896 1.350 . S
C899 C898 1.434 1_565 S
C637 C622 1.838 . S
C639 C39 1.837 . S
C648 C92 1.839 . S
C650 C357 1.833 . S
C659 C145 1.840 . S
C661 C410 1.835 . S
C670 C198 1.840 . S
C672 C463 1.833 . S
C681 C516 1.836 . S
C683 C251 1.839 . S
C692 C304 1.840 . S
C694 C569 1.833 . S
C703 C38 1.833 . S
C705 C568 1.828 . S
C714 C91 1.830 . S
C716 C621 1.830 . S
C725 C144 1.832 . S
C727 C356 1.829 . S
C736 C197 1.834 . S
C738 C409 1.828 . S
C747 C462 1.827 . S
C749 C250 1.833 . S
C758 C515 1.833 . S
C760 C303 1.828 . S
C769 C181 1.547 . S
C771 C22 1.550 . S
C780 C75 1.550 . S
C782 C234 1.547 . S
C791 C287 1.549 . S
C793 C128 1.547 . S
C802 C499 1.550 . S
C804 C340 1.549 . S
C813 C552 1.550 . S
C815 C393 1.547 . S
C824 C446 1.547 . S
C826 C605 1.549 . S
C835 C29 1.600 . S
C837 C188 1.604 . S
C846 C82 1.601 . S
C848 C241 1.602 . S
C857 C294 1.600 . S
C859 C135 1.605 . S
C868 C347 1.600 . S
C870 C506 1.604 . S
C879 C400 1.600 . S
C881 C559 1.603 . S
C890 C453 1.602 . S
C892 C612 1.602 . S
