# Generated by pormake.
# Topology snp, (6)-cn, num edge types: 1
# Building blocks:
#     Node 0, Type 0, BuildingBlock: KUMBUR_clean_sbu_0, # of connection points: 6
#     Node 1, Type 0, BuildingBlock: KUMBUR_clean_sbu_0, # of connection points: 6
#     Node 2, Type 0, BuildingBlock: KUMBUR_clean_sbu_0, # of connection points: 6
#     Node 3, Type 0, BuildingBlock: KUMBUR_clean_sbu_0, # of connection points: 6
#     Edge 4, Type (0, 0), BuildingBlock: XIVTED_clean_linker_0, # of connection points: 2
#     Edge 5, Type (0, 0), BuildingBlock: XIVTED_clean_linker_0, # of connection points: 2
#     Edge 6, Type (0, 0), BuildingBlock: XIVTED_clean_linker_0, # of connection points: 2
#     Edge 7, Type (0, 0), BuildingBlock: XIVTED_clean_linker_0, # of connection points: 2
#     Edge 8, Type (0, 0), BuildingBlock: XIVTED_clean_linker_0, # of connection points: 2
#     Edge 9, Type (0, 0), BuildingBlock: XIVTED_clean_linker_0, # of connection points: 2
#     Edge 10, Type (0, 0), BuildingBlock: XIVTED_clean_linker_0, # of connection points: 2
#     Edge 11, Type (0, 0), BuildingBlock: XIVTED_clean_linker_0, # of connection points: 2
#     Edge 12, Type (0, 0), BuildingBlock: XIVTED_clean_linker_0, # of connection points: 2
#     Edge 13, Type (0, 0), BuildingBlock: XIVTED_clean_linker_0, # of connection points: 2
#     Edge 14, Type (0, 0), BuildingBlock: XIVTED_clean_linker_0, # of connection points: 2
#     Edge 15, Type (0, 0), BuildingBlock: XIVTED_clean_linker_0, # of connection points: 2
# Relax obj value: 0.231
# Max RMSD: 0.260
# Mean RMSD: 0.235
data_MOF--net-snp--node1-KUMBUR_clean_sbu_0--edge1-XIVTED_clean_linker_0
_symmetry_space_group_name_H-M    P1
_symmetry_Int_Tables_number       1
_symmetry_cell_setting            triclinic
loop_
_symmetry_equiv_pos_as_xyz
'x, y, z'
_cell_length_a     24.821074
_cell_length_b     26.263275
_cell_length_c     33.197905
_cell_angle_alpha  116.68605
_cell_angle_beta   97.767146
_cell_angle_gamma 94.640448
loop_
_atom_site_label
_atom_site_type_symbol
_atom_site_fract_x
_atom_site_fract_y
_atom_site_fract_z
_atom_type_partial_charge
Tb0 Tb 0.36792 0.15826 0.2511 0.0
C1 C 0.45823 0.94343 0.23725 0.0
C2 C 0.41627 0.8677 0.16128 0.0
C3 C 0.50664 0.86379 0.19735 0.0
C4 C 0.41508 0.92024 0.20024 0.0
C5 C 0.50431 0.91513 0.23657 0.0
C6 C 0.46268 0.84012 0.15973 0.0
C7 C 0.54112 0.98877 0.31411 0.0
N8 N 0.4547 0.99375 0.2742 0.0
C9 C 0.49468 0.01535 0.31321 0.0
C10 C 0.54631 0.93885 0.27547 0.0
Tb11 Tb 0.37603 0.03365 0.2685 0.0
N12 N 0.3709 0.948 0.2032 0.0
C13 C 0.32473 0.92292 0.16953 0.0
C14 C 0.37025 0.84378 0.12556 0.0
C15 C 0.32396 0.87118 0.13001 0.0
H16 H 0.49185 0.05324 0.34398 0.0
H17 H 0.28761 0.85251 0.10305 0.0
H18 H 0.46453 0.79997 0.12998 0.0
H19 H 0.57283 1.00676 0.3448 0.0
H20 H 0.28855 0.94306 0.17243 0.0
H21 H 0.56602 0.26363 0.37393 0.0
H22 H 0.36953 0.80358 0.095 0.0
H23 H 0.25043 0.20722 0.25924 0.0
H24 H 0.49682 0.18189 0.32234 0.0
H25 H 0.21622 0.29937 0.29432 0.0
H26 H 0.54186 0.84164 0.19605 0.0
H27 H 0.54563 0.36266 0.40025 0.0
H28 H 0.47542 0.42679 0.40435 0.0
H29 H 0.58235 0.9184 0.27635 0.0
H30 H 0.37891 0.43647 0.38506 0.0
N31 N 0.43705 0.23103 0.31001 0.0
C32 C 0.48689 0.22367 0.32916 0.0
C33 C 0.51501 0.32634 0.37539 0.0
C34 C 0.46238 0.33409 0.36092 0.0
C35 C 0.52669 0.27066 0.36046 0.0
C36 C 0.42388 0.28513 0.32848 0.0
H37 H 0.2817 0.38903 0.3456 0.0
N38 N 0.33375 0.24194 0.29077 0.0
C39 C 0.25968 0.29775 0.30178 0.0
C40 C 0.36998 0.29063 0.31865 0.0
C41 C 0.27912 0.24513 0.28218 0.0
C42 C 0.2967 0.34817 0.33038 0.0
C43 C 0.35261 0.34505 0.33943 0.0
O44 O 0.30228 0.14179 0.19788 0.0
O45 O 0.35325 0.06417 0.21857 0.0
O46 O 0.45516 0.05359 0.25098 0.0
O47 O 0.45217 0.14025 0.24562 0.0
O48 O 0.39441 0.10298 0.18765 0.0
O49 O 0.37239 0.20683 0.21439 0.0
O50 O 0.35575 0.03947 0.33019 0.0
O51 O 0.36653 0.12402 0.298 0.0
O52 O 0.29212 0.1323 0.27038 0.0
O53 O 0.29206 0.03476 0.23838 0.0
O54 O 0.42061 0.10085 0.3357 0.0
O55 O 0.32429 0.9644 0.26693 0.0
C56 C 0.37342 0.05358 0.18289 0.0
C57 C 0.28936 0.20684 0.16651 0.0
C58 C 0.27225 0.24251 0.10998 0.0
C59 C 0.30864 0.22578 0.13665 0.0
C60 C 0.21716 0.24339 0.11554 0.0
C61 C 0.23333 0.2057 0.16963 0.0
C62 C 0.19802 0.22535 0.14534 0.0
C63 C 0.47735 0.09667 0.2446 0.0
C64 C 0.3255 0.17866 0.18681 0.0
C65 C 0.39132 0.3943 0.36918 0.0
C66 C 0.44624 0.38881 0.37994 0.0
C67 C 0.39893 0.14362 0.33592 0.0
C68 C 0.339 0.95266 0.33422 0.0
C69 C 0.30562 0.94869 0.36439 0.0
C70 C 0.31715 0.91465 0.38663 0.0
C71 C 0.36352 0.88647 0.37919 0.0
C72 C 0.38413 0.92302 0.32697 0.0
C73 C 0.39651 0.89061 0.34962 0.0
C74 C 0.26461 0.07891 0.25064 0.0
C75 C 0.32717 0.98836 0.31103 0.0
H76 H 0.35086 0.2236 0.13174 0.0
H77 H 0.18847 0.25656 0.09579 0.0
H78 H 0.21582 0.18744 0.18914 0.0
H79 H 0.15505 0.22439 0.14821 0.0
H80 H 0.27022 0.97087 0.36964 0.0
H81 H 0.37435 0.86091 0.39626 0.0
H82 H 0.40984 0.92478 0.30374 0.0
H83 H 0.43174 0.86827 0.34403 0.0
Tb84 Tb 0.11072 0.259 0.59541 0.0
C85 C 0.31346 0.4486 0.70855 0.0
C86 C 0.39124 0.42182 0.67137 0.0
C87 C 0.38374 0.52318 0.71469 0.0
C88 C 0.34076 0.40656 0.68136 0.0
C89 C 0.33486 0.50753 0.72621 0.0
C90 C 0.41195 0.48033 0.6873 0.0
C91 C 0.25997 0.53084 0.76739 0.0
N92 N 0.26655 0.4315 0.71887 0.0
C93 C 0.24052 0.47185 0.74915 0.0
C94 C 0.30705 0.54882 0.75553 0.0
Tb95 Tb 0.23532 0.33368 0.68455 0.0
N96 N 0.31955 0.35074 0.66718 0.0
C97 C 0.35008 0.30833 0.64661 0.0
C98 C 0.42028 0.37799 0.6471 0.0
C99 C 0.40007 0.32107 0.63545 0.0
H100 H 0.20363 0.45916 0.75834 0.0
H101 H 0.42304 0.2869 0.61798 0.0
H102 H 0.45037 0.4929 0.67963 0.0
H103 H 0.23846 0.56241 0.79048 0.0
H104 H 0.33613 0.26409 0.63793 0.0
H105 H 0.94536 0.32038 0.68942 0.0
H106 H 0.45916 0.3878 0.63866 0.0
H107 H 0.12322 0.13452 0.51063 0.0
H108 H 0.02768 0.33709 0.66057 0.0
H109 H 0.07831 0.03263 0.47406 0.0
H110 H 0.40067 0.5682 0.7276 0.0
H111 H 0.90219 0.22072 0.66669 0.0
H112 H 0.89858 0.11389 0.61761 0.0
H113 H 0.32206 0.59453 0.76976 0.0
H114 H 0.93384 0.03526 0.55759 0.0
N115 N 0.03358 0.2478 0.6236 0.0
C116 C 0.00981 0.2933 0.65049 0.0
C117 C 0.93878 0.22779 0.65423 0.0
C118 C 0.96077 0.18132 0.62386 0.0
C119 C 0.96291 0.28406 0.66697 0.0
C120 C 0.00862 0.19304 0.60893 0.0
H121 H 0.00053 1.00454 0.5033 0.0
N122 N 0.07251 0.16345 0.56087 0.0
C123 C 0.06399 0.06493 0.50283 0.0
C124 C 0.02865 0.14911 0.57596 0.0
C125 C 0.08933 0.12266 0.52364 0.0
C126 C 0.02024 0.04921 0.51951 0.0
C127 C 0.00142 0.09171 0.55607 0.0
O128 O 0.09161 0.23926 0.52558 0.0
O129 O 0.1955 0.29743 0.61414 0.0
O130 O 0.20622 0.39096 0.65822 0.0
O131 O 0.11321 0.3522 0.63685 0.0
O132 O 0.16686 0.24163 0.5465 0.0
O133 O 0.05544 0.30444 0.57621 0.0
O134 O 0.24429 0.35244 0.75408 0.0
O135 O 0.15112 0.28726 0.66589 0.0
O136 O 0.15168 0.19585 0.60797 0.0
O137 O 0.24285 0.24326 0.64146 0.0
O138 O 0.17352 0.35879 0.72797 0.0
O139 O 0.28841 0.29066 0.70865 0.0
C140 C 0.20918 0.2763 0.57545 0.0
C141 C 0.00213 0.25148 0.50075 0.0
C142 C 0.94461 0.22776 0.42656 0.0
C143 C -0.00378 0.2486 0.45685 0.0
C144 C 0.89941 0.2092 0.4408 0.0
C145 C 0.95632 0.23245 0.51386 0.0
C146 C 0.90538 0.21143 0.484 0.0
C147 C 0.15386 0.39456 0.6475 0.0
C148 C 0.05604 0.27465 0.53254 0.0
C149 C 0.95518 0.07915 0.57216 0.0
C150 C 0.93511 0.1239 0.60631 0.0
C151 C 0.13422 0.317 0.70245 0.0
C152 C 0.32513 0.33465 0.78862 0.0
C153 C 0.31822 0.32112 0.82418 0.0
C154 C 0.36172 0.33584 0.86141 0.0
C155 C 0.41238 0.36522 0.86247 0.0
C156 C 0.37572 0.36406 0.79034 0.0
C157 C 0.41913 0.37927 0.82725 0.0
C158 C 0.20514 0.19621 0.62011 0.0
C159 C 0.27863 0.31641 0.75015 0.0
H160 H 0.0315 0.26333 0.44662 0.0
H161 H 0.85945 0.192 0.41819 0.0
H162 H 0.95973 0.234 0.54721 0.0
H163 H 0.87029 0.19673 0.49437 0.0
H164 H 0.27845 0.29942 0.82281 0.0
H165 H 0.44709 0.37667 0.89013 0.0
H166 H 0.38164 0.37496 0.76323 0.0
H167 H 0.45831 0.40174 0.82843 0.0
Tb168 Tb 0.83758 0.10412 1.01169 0.0
C169 C 0.87613 0.8638 0.96577 0.0
C170 C 0.80893 0.80645 0.8955 0.0
C171 C 0.89623 0.77449 0.90654 0.0
C172 C 0.82502 0.85561 0.93899 0.0
C173 C 0.91101 0.82176 0.95065 0.0
C174 C 0.84543 0.76704 0.87891 0.0
C175 C 0.96861 0.87131 0.02613 0.0
N176 N 0.88956 0.91017 1.00816 0.0
C177 C 0.93306 0.91205 0.03947 0.0
C178 C 0.95838 0.82684 0.98113 0.0
Tb179 Tb 0.82747 0.9738 0.02579 0.0
N180 N 0.79027 0.89425 0.95625 0.0
C181 C 0.73721 0.88318 0.93273 0.0
C182 C 0.75609 0.79743 0.87033 0.0
C183 C 0.71985 0.83542 0.88938 0.0
H184 H 0.94212 0.94694 0.07425 0.0
H185 H 0.67828 0.82786 0.87072 0.0
H186 H 0.83395 0.72954 0.84539 0.0
H187 H 0.0041 0.87454 0.0505 0.0
H188 H 0.70731 0.91054 0.9462 0.0
H189 H 0.94112 0.2801 0.17494 0.0
H190 H 0.74233 0.76035 0.83679 0.0
H191 H 0.71991 0.09212 0.94168 0.0
H192 H 0.93124 0.18741 0.10517 0.0
H193 H 0.6444 0.14684 0.9438 0.0
H194 H 0.92298 0.74238 0.89407 0.0
H195 H 0.86565 0.33827 0.18596 0.0
H196 H 0.77255 0.35084 0.15442 0.0
H197 H 0.98602 0.79531 0.97085 0.0
H198 H 0.69207 0.31482 0.09124 0.0
N199 N 0.85042 0.19094 0.07721 0.0
C200 C 0.89794 0.21181 0.10945 0.0
C201 C 0.86106 0.29726 0.15528 0.0
C202 C 0.81355 0.27718 0.12114 0.0
C203 C 0.90373 0.26464 0.14915 0.0
C204 C 0.80965 0.22339 0.08197 0.0
H205 H 0.64418 0.23904 1.01245 0.0
N206 N 0.76344 0.15151 1.0095 0.0
C207 C 0.67789 0.1631 0.97312 0.0
C208 C 0.76475 0.20335 0.04666 0.0
C209 C 0.72131 0.13203 0.9722 0.0
C210 C 0.6779 0.21513 1.0119 0.0
C211 C 0.7219 0.23617 0.04917 0.0
O212 O 0.8521 0.10087 0.94935 0.0
O213 O 0.83505 0.01164 0.98121 0.0
O214 O 0.91329 0.99615 1.02156 0.0
O215 O 0.91997 0.09304 0.03812 0.0
O216 O 0.79226 0.04183 0.94286 0.0
O217 O 0.90055 0.16456 1.01291 0.0
O218 O 0.84778 0.96481 0.08568 0.0
O219 O 0.85229 0.06755 0.05865 0.0
O220 O 0.76063 0.0938 0.03427 0.0
O221 O 0.74687 0.9949 1.00848 0.0
O222 O 0.81374 0.0346 0.09335 0.0
O223 O 0.77181 0.91848 0.03635 0.0
C224 C 0.8066 0.99565 0.94208 0.0
C225 C 0.88497 0.18896 0.95188 0.0
C226 C 0.91071 0.23333 0.9043 0.0
C227 C 0.91733 0.19251 0.92085 0.0
C228 C 0.87011 0.26873 0.91826 0.0
C229 C 0.84589 0.22586 0.96561 0.0
C230 C 0.83827 0.26506 0.94864 0.0
C231 C 0.94271 0.0466 0.03225 0.0
C232 C 0.89036 0.14566 0.96872 0.0
C233 C 0.72471 0.28911 0.08853 0.0
C234 C 0.77047 0.30957 0.12451 0.0
C235 C 0.83571 0.08191 0.09605 0.0
C236 C 0.81313 0.87409 0.07886 0.0
C237 C 0.81736 0.87564 0.12225 0.0
C238 C 0.82499 0.82583 0.12716 0.0
C239 C 0.83031 0.7753 0.08823 0.0
C240 C 0.81686 0.8225 0.04052 0.0
C241 C 0.8262 0.77376 0.04537 0.0
C242 C 0.73077 0.04583 0.02795 0.0
C243 C 0.80412 0.92622 0.07404 0.0
H244 H 0.94799 0.16449 0.91038 0.0
H245 H 0.86284 0.29956 0.90561 0.0
H246 H 0.82096 0.22428 0.98932 0.0
H247 H 0.80752 0.2929 0.95918 0.0
H248 H 0.81316 0.91502 0.15174 0.0
H249 H 0.83746 0.73665 0.09084 0.0
H250 H 0.81217 0.81956 1.00672 0.0
H251 H 0.8297 0.73438 1.01565 0.0
Tb252 Tb 0.97757 0.81148 0.59613 0.0
C253 C 0.1922 0.98452 0.70304 0.0
C254 C 0.25722 0.95077 0.65256 0.0
C255 C 0.26732 0.0527 0.70663 0.0
C256 C 0.20974 0.94021 0.6684 0.0
C257 C 0.2217 0.04108 0.72378 0.0
C258 C 0.28486 1.00759 0.6708 0.0
C259 C 0.16239 0.06862 0.77962 0.0
N260 N 0.14858 0.97111 0.71884 0.0
C261 C 0.13443 0.01178 0.75768 0.0
C262 C 0.20578 0.08357 0.76221 0.0
Tb263 Tb 0.10617 0.87677 0.68237 0.0
N264 N 0.18284 0.886 0.65298 0.0
C265 C 0.20443 0.83967 0.62449 0.0
C266 C 0.2769 0.90365 0.62058 0.0
C267 C 0.25097 0.84778 0.60717 0.0
H268 H 0.10075 1.00064 0.77122 0.0
H269 H 0.26675 0.81089 0.58347 0.0
H270 H 0.32106 0.01674 0.65874 0.0
H271 H 0.15028 0.10087 0.80978 0.0
H272 H 0.18503 0.79617 0.61372 0.0
H273 H 0.79765 0.87002 0.67231 0.0
H274 H 0.31314 0.90981 0.60739 0.0
H275 H -0.00143 0.68432 0.51696 0.0
H276 H 0.88364 0.8879 0.64891 0.0
H277 H 0.9578 0.58217 0.48365 0.0
H278 H 0.29019 0.09601 0.72168 0.0
H279 H 0.75662 0.77037 0.6514 0.0
H280 H 0.75863 0.66386 0.60778 0.0
H281 H 0.22741 0.12758 0.77923 0.0
H282 H 0.80169 0.58518 0.55541 0.0
N283 N 0.89467 0.79944 0.61722 0.0
C284 C 0.86736 0.84408 0.6399 0.0
C285 C 0.79502 0.77796 0.64135 0.0
C286 C 0.82059 0.73203 0.61488 0.0
C287 C 0.81798 0.83419 0.65312 0.0
C288 C 0.8706 0.74442 0.60288 0.0
H289 H 0.87548 0.55433 0.50821 0.0
N290 N 0.94051 0.71509 0.5609 0.0
C291 C 0.93952 0.61503 0.50895 0.0
C292 C 0.89418 0.70053 0.57327 0.0
C293 C 0.96236 0.67329 0.52784 0.0
C294 C 0.89317 0.59946 0.52298 0.0
C295 C 0.8694 0.64248 0.55506 0.0
O296 O 0.96457 0.79391 0.5267 0.0
O297 O 0.06334 0.8528 0.61329 0.0
O298 O 0.06987 0.94385 0.67269 0.0
O299 O 0.9766 0.90306 0.64159 0.0
O300 O 0.03601 0.78479 0.54959 0.0
O301 O 0.92714 0.85955 0.57561 0.0
O302 O 0.12492 0.8916 0.75102 0.0
O303 O 0.0202 0.84261 0.66532 0.0
O304 O 0.00491 0.74938 0.61796 0.0
O305 O 0.09895 0.78379 0.63771 0.0
O306 O 0.0521 0.89652 0.73287 0.0
O307 O 0.16032 0.82806 0.69857 0.0
C308 C 0.07757 0.82356 0.57537 0.0
C309 C 0.88124 0.81374 0.49776 0.0
C310 C 0.83438 0.80356 0.42403 0.0
C311 C 0.88218 0.82102 0.4583 0.0
C312 C 0.78551 0.77949 0.43048 0.0
C313 C 0.83221 0.78909 0.50308 0.0
C314 C 0.78458 0.77234 0.46963 0.0
C315 C 0.01712 0.94763 0.66249 0.0
C316 C 0.9319 0.83193 0.53275 0.0
C317 C 0.82115 0.62951 0.56868 0.0
C318 C 0.79673 0.67428 0.59856 0.0
C319 C 0.00824 0.86431 0.70464 0.0
C320 C 0.21436 0.87797 0.77414 0.0
C321 C 0.21974 0.88239 0.81856 0.0
C322 C 0.27121 0.90356 0.84915 0.0
C323 C 0.31683 0.92066 0.8345 0.0
C324 C 0.26067 0.89543 0.76068 0.0
C325 C 0.31148 0.9166 0.79072 0.0
C326 C 0.05679 0.74258 0.62619 0.0
C327 C 0.16024 0.85588 0.74249 0.0
H328 H 0.92041 0.83926 0.45398 0.0
H329 H 0.74772 0.76649 0.40536 0.0
H330 H 0.83067 0.78291 0.53303 0.0
H331 H 0.74673 0.75367 0.47405 0.0
H332 H 0.18404 0.86886 0.82901 0.0
H333 H 0.35669 0.93828 0.85722 0.0
H334 H 0.25773 0.89279 0.72698 0.0
H335 H 0.34691 0.93021 0.78009 0.0
H336 H 0.01275 0.96715 1.01348 0.0
H337 H 0.18672 0.15137 0.26849 0.0
H338 H 0.00674 0.14667 0.09947 0.0
H339 H 0.21037 0.98025 0.17535 0.0
H340 H 0.1141 0.14747 0.20879 0.0
H341 H 0.08812 0.97143 0.07108 0.0
C342 C 0.02781 1.00764 0.04428 0.0
C343 C 0.00089 0.05538 0.05349 0.0
C344 C 0.13556 0.1109 0.20142 0.0
C345 C 0.08637 0.06095 0.11912 0.0
C346 C 0.1769 0.11321 0.23538 0.0
C347 C 0.20803 0.06838 0.22518 0.0
C348 C 0.12473 0.06254 0.15772 0.0
C349 C 0.18988 0.01739 0.18377 0.0
C350 C 0.07043 0.01004 0.07726 0.0
C351 C 0.02427 0.10793 0.09212 0.0
N352 N 0.15029 0.01633 0.15098 0.0
N353 N 0.06475 0.109 0.12438 0.0
H354 H 0.03602 0.05898 0.73391 0.0
H355 H 0.19208 0.08456 0.54954 0.0
H356 H 0.97842 0.96181 0.58846 0.0
H357 H 0.24901 0.18511 0.69479 0.0
H358 H 0.12283 0.02564 0.56324 0.0
H359 H 0.11059 0.11306 0.72086 0.0
C360 C 0.03773 0.05072 0.6991 0.0
C361 C 0.00707 1.00089 0.66179 0.0
C362 C 0.15056 0.0607 0.59226 0.0
C363 C 0.09035 0.06041 0.64657 0.0
C364 C 0.19155 0.09267 0.58447 0.0
C365 C 0.21956 0.14438 0.62148 0.0
C366 C 0.14204 0.07985 0.63743 0.0
C367 C 0.22272 0.14915 0.6654 0.0
C368 C 0.08172 0.0796 0.69168 0.0
C369 C 0.006 0.99619 0.61806 0.0
N370 N 0.18077 0.12042 0.67295 0.0
N371 N 0.05024 0.02239 0.6109 0.0
H372 H 0.69372 0.14494 0.08222 0.0
H373 H 0.51473 0.99604 0.19426 0.0
H374 H 0.66997 0.9614 0.03772 0.0
H375 H 0.54924 0.18013 0.24364 0.0
H376 H 0.57584 0.98238 0.13993 0.0
H377 H 0.63936 0.1578 0.14071 0.0
C378 C 0.67627 0.1071 0.08406 0.0
C379 C 0.68698 0.052 0.0551 0.0
C380 C 0.57081 0.02584 0.16321 0.0
C381 C 0.62549 0.06675 0.123 0.0
C382 C 0.53664 0.03378 0.19494 0.0
C383 C 0.52656 0.08933 0.22343 0.0
C384 C 0.59487 0.07381 0.15999 0.0
C385 C 0.55542 0.13648 0.22198 0.0
C386 C 0.64575 0.11464 0.118 0.0
C387 C 0.6631 1.00475 0.05938 0.0
N388 N 0.58765 0.12759 0.19028 0.0
N389 N 0.63382 0.01327 0.09299 0.0
H390 H 0.22451 0.48384 0.65342 0.0
H391 H 0.98432 0.65345 0.61917 0.0
H392 H 0.05168 0.42327 0.63651 0.0
H393 H 0.15693 0.70799 0.62956 0.0
H394 H 0.00748 0.56729 0.62355 0.0
H395 H 0.20003 0.56707 0.64534 0.0
C396 C 0.18145 0.48825 0.64834 0.0
C397 C 0.14005 0.44667 0.64561 0.0
C398 C 0.04018 0.59807 0.62465 0.0
C399 C 0.11173 0.54113 0.63567 0.0
C400 C 0.02695 0.64703 0.62189 0.0
C401 C 0.06882 0.68801 0.62433 0.0
C402 C 0.09558 0.59049 0.63003 0.0
C403 C 0.12338 0.67778 0.62804 0.0
C404 C 0.16746 0.53555 0.6434 0.0
C405 C 0.0849 0.45424 0.63861 0.0
N406 N 0.13521 0.63011 0.63104 0.0
N407 N 0.0723 0.50065 0.6338 0.0
H408 H 0.27572 0.19602 0.55182 0.0
H409 H 0.31735 0.2118 0.35201 0.0
H410 H 0.25735 0.36324 0.563 0.0
H411 H 0.46196 0.18126 0.42028 0.0
H412 H 0.2939 0.27056 0.42621 0.0
H413 H 0.3447 0.18808 0.50416 0.0
C414 C 0.28827 0.23223 0.54595 0.0
C415 C 0.2626 0.28127 0.56259 0.0
C416 C 0.33202 0.25298 0.42501 0.0
C417 C 0.3378 0.27045 0.50527 0.0
C418 C 0.34575 0.21967 0.38245 0.0
C419 C 0.39193 0.19174 0.37966 0.0
C420 C 0.36322 0.25594 0.4647 0.0
C421 C 0.42569 0.20169 0.42086 0.0
C422 C 0.32737 0.22762 0.51866 0.0
C423 C 0.27787 0.3257 0.55194 0.0
N424 N 0.40957 0.23116 0.46164 0.0
N425 N 0.31328 0.31844 0.5225 0.0
H426 H 0.09568 0.20576 0.68787 0.0
H427 H 0.95832 0.3352 0.912 0.0
H428 H 0.08542 0.38536 0.76975 0.0
H429 H 0.94424 0.15143 0.8272 0.0
H430 H 0.00756 0.35147 0.8595 0.0
H431 H 0.03969 0.18186 0.73536 0.0
C432 C 0.08101 0.2399 0.71525 0.0
C433 C 0.09458 0.29768 0.72458 0.0
C434 C 0.99384 0.30739 0.85199 0.0
C435 C 0.0334 0.27083 0.78003 0.0
C436 C 0.96552 0.29803 0.88216 0.0
C437 C 0.94617 0.2418 0.8739 0.0
C438 C 0.00377 0.26033 0.81277 0.0
C439 C 0.95832 0.19554 0.83504 0.0
C440 C 0.04977 0.22629 0.74261 0.0
C441 C 0.07566 0.34028 0.76116 0.0
N442 N 0.98613 0.20578 0.80578 0.0
N443 N 0.04652 0.3261 0.78744 0.0
H444 H 0.88673 0.89312 0.41398 0.0
H445 H 0.775 0.7405 0.14156 0.0
H446 H 0.78406 0.72624 0.33595 0.0
H447 H 0.87549 0.90892 0.2149 0.0
H448 H 0.77878 0.73608 0.21346 0.0
H449 H 0.88489 0.90077 0.34273 0.0
C450 C 0.86403 0.85798 0.38194 0.0
C451 C 0.83519 0.80907 0.38119 0.0
C452 C 0.80009 0.77414 0.21408 0.0
C453 C 0.83259 0.81782 0.29953 0.0
C454 C 0.79818 0.77658 0.17282 0.0
C455 C 0.82545 0.82492 0.17189 0.0
C456 C 0.82951 0.82038 0.25526 0.0
C457 C 0.85367 0.87087 0.21392 0.0
C458 C 0.86274 0.86257 0.34131 0.0
C459 C 0.80611 0.76523 0.33858 0.0
N460 N 0.8552 0.86738 0.25386 0.0
N461 N 0.80559 0.77069 0.29973 0.0
H462 H 0.20118 0.94125 0.91091 0.0
H463 H 0.42842 0.98113 0.12148 0.0
H464 H 0.3571 0.88001 0.89624 0.0
H465 H 0.2682 0.03011 0.13595 0.0
H466 H 0.39766 0.93057 0.03785 0.0
H467 H 0.21918 0.9617 0.99159 0.0
C468 C 0.23878 0.93121 0.92435 0.0
C469 C 0.27801 0.90965 0.89669 0.0
C470 C 0.36856 0.95094 0.05924 0.0
C471 C 0.29925 0.93362 0.98946 0.0
C472 C 0.38602 0.97923 0.107 0.0
C473 C 0.35027 0.00841 0.13562 0.0
C474 C 0.31537 0.95337 0.03985 0.0
C475 C 0.29633 1.00644 0.11516 0.0
C476 C 0.24918 0.94316 0.97057 0.0
C477 C 0.32618 0.89792 0.91637 0.0
N478 N 0.28072 0.98018 0.06856 0.0
N479 N 0.33563 0.91057 0.96146 0.0
H480 H 0.89809 0.9431 0.93081 0.0
H481 H 0.95149 0.77521 0.70987 0.0
H482 H 0.7473 0.95354 0.85555 0.0
H483 H 0.951 0.95187 0.73748 0.0
H484 H 0.88467 0.78672 0.76102 0.0
H485 H 0.92722 0.88652 0.85832 0.0
C486 C 0.87002 0.93135 0.89902 0.0
C487 C 0.81939 0.95145 0.89911 0.0
C488 C 0.89734 0.82176 0.75383 0.0
C489 C 0.85416 0.89009 0.81647 0.0
C490 C 0.93495 0.81521 0.72466 0.0
C491 C 0.95544 0.86238 0.71895 0.0
C492 C 0.88015 0.87546 0.77643 0.0
C493 C 0.93506 0.9143 0.74042 0.0
C494 C 0.88677 0.89924 0.8577 0.0
C495 C 0.78619 0.93782 0.85675 0.0
N496 N 0.89858 0.91957 0.76842 0.0
N497 N 0.80497 0.90953 0.81702 0.0
H498 H 0.26922 0.99468 0.45415 0.0
H499 H 0.12667 0.75345 0.50924 0.0
H500 H 0.28163 0.81352 0.38624 0.0
H501 H 0.11946 0.93381 0.59075 0.0
H502 H 0.18486 0.77783 0.46511 0.0
H503 H 0.21397 0.97657 0.50433 0.0
C504 C 0.26014 0.95117 0.44958 0.0
C505 C 0.28064 0.90563 0.41606 0.0
C506 C 0.17121 0.81251 0.49281 0.0
C507 C 0.21796 0.8848 0.47347 0.0
C508 C 0.13808 0.79848 0.51818 0.0
C509 C 0.119 0.84166 0.55413 0.0
C510 C 0.18483 0.87037 0.50252 0.0
C511 C 0.13423 0.89933 0.56377 0.0
C512 C 0.22901 0.94099 0.47848 0.0
C513 C 0.26773 0.85024 0.41196 0.0
N514 N 0.16617 0.9121 0.53795 0.0
N515 N 0.23752 0.84158 0.44014 0.0
H516 H 0.40444 0.3979 0.95449 0.0
H517 H 0.22125 0.19418 1.02044 0.0
H518 H 0.30109 0.23838 0.85391 0.0
H519 H 0.36228 0.31588 0.11565 0.0
H520 H 0.24653 0.21483 0.96012 0.0
H521 H 0.38738 0.3731 1.01498 0.0
C522 C 0.3786 0.35746 0.94492 0.0
C523 C 0.35383 0.32053 0.89876 0.0
C524 C 0.27219 0.23693 0.9941 0.0
C525 C 0.33335 0.29255 0.96824 0.0
C526 C 0.25759 0.22539 0.02861 0.0
C527 C 0.2895 0.25373 0.07318 0.0
C528 C 0.31875 0.27777 1.00416 0.0
C529 C 0.33663 0.29314 0.08171 0.0
C530 C 0.36872 0.34351 0.9796 0.0
C531 C 0.32009 0.26909 0.88889 0.0
N532 N 0.34958 0.30449 0.0476 0.0
N533 N 0.31058 0.25695 0.92327 0.0
H534 H 0.94148 0.0963 0.13783 0.0
H535 H 0.86015 0.25776 0.38368 0.0
H536 H 0.78952 0.16298 0.15975 0.0
H537 H 0.01164 0.18865 0.36259 0.0
H538 H 0.84164 0.23922 0.30376 0.0
H539 H 0.97667 0.14724 0.22085 0.0
C540 C 0.91676 0.1243 0.16006 0.0
C541 C 0.86336 0.12717 0.14193 0.0
C542 C 0.87928 0.22865 0.31662 0.0
C543 C 0.90156 0.18243 0.23726 0.0
C544 C 0.88978 0.23902 0.36229 0.0
C545 C 0.93713 0.2239 0.3798 0.0
C546 C 0.91613 0.20248 0.28776 0.0
C547 C 0.97458 0.20091 0.35063 0.0
C548 C 0.9363 0.1524 0.20758 0.0
C549 C 0.83141 0.16086 0.17242 0.0
N550 N 0.96291 0.19016 0.30593 0.0
N551 N 0.85073 0.18666 0.21857 0.0
loop_
_geom_bond_atom_site_label_1
_geom_bond_atom_site_label_2
_geom_bond_distance
_geom_bond_site_symmetry_2
_ccdc_geom_bond_type
Tb0 N31 2.660 . S
Tb0 N38 2.600 . S
Tb0 O44 2.546 . S
Tb0 O45 2.610 1_545 S
Tb0 O47 2.320 . S
Tb0 O48 2.552 . S
Tb0 O49 2.413 . S
Tb0 O51 2.362 . S
Tb0 O52 2.421 . S
Tb0 C64 2.833 . S
C1 C4 1.432 . S
C1 C5 1.414 . S
C1 N8 1.359 . S
C2 C4 1.417 . S
C2 C6 1.432 . S
C2 C14 1.410 . S
C3 C5 1.444 . S
C3 C6 1.317 . S
C3 H26 0.929 . S
C4 C1 1.432 . S
C4 C2 1.417 . S
C4 N12 1.360 . S
C5 C1 1.414 . S
C5 C3 1.444 . S
C5 C10 1.385 . S
C6 C2 1.432 . S
C6 C3 1.317 . S
C6 H18 0.930 1_554 S
C7 C9 1.392 . S
C7 C10 1.370 . S
C7 H19 0.931 . S
N8 C1 1.359 . S
N8 C9 1.327 . S
N8 Tb11 2.600 . S
C9 C7 1.392 . S
C9 N8 1.327 . S
C9 H16 0.930 . S
C10 C5 1.385 . S
C10 C7 1.370 . S
C10 H29 0.930 . S
Tb11 N8 2.600 . S
Tb11 N12 2.660 . S
Tb11 O45 2.362 . S
Tb11 O46 2.421 . S
Tb11 O50 2.546 . S
Tb11 O51 2.610 1_565 S
Tb11 O53 2.320 . S
Tb11 O54 2.552 1_565 S
Tb11 O55 2.413 . S
Tb11 C75 2.833 . S
N12 C4 1.360 . S
N12 Tb11 2.660 . S
N12 C13 1.305 . S
C13 N12 1.305 . S
C13 C15 1.407 . S
C13 H20 0.930 . S
C14 C2 1.410 . S
C14 C15 1.345 . S
C14 H22 0.930 1_554 S
C15 C13 1.407 . S
C15 C14 1.345 . S
C15 H17 0.930 . S
H16 C9 0.930 . S
H17 C15 0.930 . S
H18 C6 0.930 1_556 S
H19 C7 0.931 . S
H20 C13 0.930 . S
H21 C35 0.930 . S
H22 C14 0.930 1_556 S
H23 C41 0.930 . S
H24 C32 0.930 . S
H25 C39 0.931 . S
H26 C3 0.929 . S
H27 C33 0.930 . S
H28 C66 0.930 . S
H29 C10 0.930 . S
H30 C65 0.929 . S
N31 Tb0 2.660 . S
N31 C32 1.305 . S
N31 C36 1.360 . S
C32 H24 0.930 . S
C32 N31 1.305 . S
C32 C35 1.407 . S
C33 H27 0.930 . S
C33 C34 1.410 . S
C33 C35 1.345 . S
C34 C33 1.410 . S
C34 C36 1.417 . S
C34 C66 1.432 . S
C35 H21 0.930 . S
C35 C32 1.407 . S
C35 C33 1.345 . S
C36 N31 1.360 . S
C36 C34 1.417 . S
C36 C40 1.432 . S
H37 C42 0.930 . S
N38 Tb0 2.600 . S
N38 C40 1.359 . S
N38 C41 1.327 . S
C39 H25 0.931 . S
C39 C41 1.392 . S
C39 C42 1.370 . S
C40 C36 1.432 . S
C40 N38 1.359 . S
C40 C43 1.414 . S
C41 H23 0.930 . S
C41 N38 1.327 . S
C41 C39 1.392 . S
C42 H37 0.930 . S
C42 C39 1.370 . S
C42 C43 1.385 . S
C43 C40 1.414 . S
C43 C42 1.385 . S
C43 C65 1.444 . S
O44 Tb0 2.546 . S
O44 C64 1.251 . S
O45 Tb0 2.610 1_565 S
O45 Tb11 2.362 . S
O45 C56 1.283 . S
O46 Tb11 2.421 . S
O46 C63 1.262 1_565 S
O47 Tb0 2.320 . S
O47 C63 1.260 . S
O48 Tb0 2.552 . S
O48 C56 1.243 1_545 S
O49 Tb0 2.413 . S
O49 C64 1.256 . S
O50 Tb11 2.546 . S
O50 C75 1.251 . S
O51 Tb0 2.362 . S
O51 Tb11 2.610 1_545 S
O51 C67 1.283 . S
O52 Tb0 2.421 . S
O52 C74 1.262 . S
O53 Tb11 2.320 . S
O53 C74 1.260 1_565 S
O54 Tb11 2.552 1_545 S
O54 C67 1.243 . S
O55 Tb11 2.413 . S
O55 C75 1.256 . S
C56 O45 1.283 . S
C56 O48 1.243 1_565 S
C57 C59 1.382 . S
C57 C61 1.393 . S
C57 C64 1.500 . S
C58 C59 1.400 . S
C58 C60 1.384 . S
C59 C57 1.382 . S
C59 C58 1.400 . S
C59 H76 0.930 . S
C60 C58 1.384 . S
C60 C62 1.392 . S
C60 H77 0.931 . S
C61 C57 1.393 . S
C61 C62 1.401 . S
C61 H78 0.930 . S
C62 C60 1.392 . S
C62 C61 1.401 . S
C62 H79 0.930 . S
C63 O46 1.262 1_545 S
C63 O47 1.260 . S
C64 Tb0 2.833 . S
C64 O44 1.251 . S
C64 O49 1.256 . S
C64 C57 1.500 . S
C65 H30 0.929 . S
C65 C43 1.444 . S
C65 C66 1.317 . S
C66 H28 0.930 . S
C66 C34 1.432 . S
C66 C65 1.317 . S
C67 O51 1.283 . S
C67 O54 1.243 . S
C68 C69 1.382 . S
C68 C72 1.393 . S
C68 C75 1.500 . S
C69 C68 1.382 . S
C69 C70 1.400 . S
C69 H80 0.930 . S
C70 C69 1.400 . S
C70 C71 1.384 . S
C71 C70 1.384 . S
C71 C73 1.392 . S
C71 H81 0.931 . S
C72 C68 1.393 . S
C72 C73 1.401 . S
C72 H82 0.930 . S
C73 C71 1.392 . S
C73 C72 1.401 . S
C73 H83 0.930 . S
C74 O52 1.262 . S
C74 O53 1.260 1_545 S
C75 Tb11 2.833 . S
C75 O50 1.251 . S
C75 O55 1.256 . S
C75 C68 1.500 . S
H76 C59 0.930 . S
H77 C60 0.931 . S
H78 C61 0.930 . S
H79 C62 0.930 . S
H80 C69 0.930 . S
H81 C71 0.931 . S
H82 C72 0.930 . S
H83 C73 0.930 . S
Tb84 N115 2.660 . S
Tb84 N122 2.600 . S
Tb84 O128 2.546 . S
Tb84 O129 2.610 . S
Tb84 O131 2.320 . S
Tb84 O132 2.552 . S
Tb84 O133 2.413 . S
Tb84 O135 2.362 . S
Tb84 O136 2.421 . S
Tb84 C148 2.833 . S
C85 C88 1.432 . S
C85 C89 1.414 . S
C85 N92 1.359 . S
C86 C88 1.417 . S
C86 C90 1.432 . S
C86 C98 1.410 . S
C87 C89 1.444 . S
C87 C90 1.317 . S
C87 H110 0.929 . S
C88 C85 1.432 . S
C88 C86 1.417 . S
C88 N96 1.360 . S
C89 C85 1.414 . S
C89 C87 1.444 . S
C89 C94 1.385 . S
C90 C86 1.432 . S
C90 C87 1.317 . S
C90 H102 0.930 . S
C91 C93 1.392 . S
C91 C94 1.370 . S
C91 H103 0.931 . S
N92 C85 1.359 . S
N92 C93 1.327 . S
N92 Tb95 2.600 . S
C93 C91 1.392 . S
C93 N92 1.327 . S
C93 H100 0.930 . S
C94 C89 1.385 . S
C94 C91 1.370 . S
C94 H113 0.930 . S
Tb95 N92 2.600 . S
Tb95 N96 2.660 . S
Tb95 O129 2.362 . S
Tb95 O130 2.421 . S
Tb95 O134 2.546 . S
Tb95 O135 2.610 . S
Tb95 O137 2.320 . S
Tb95 O138 2.552 . S
Tb95 O139 2.413 . S
Tb95 C159 2.833 . S
N96 C88 1.360 . S
N96 Tb95 2.660 . S
N96 C97 1.305 . S
C97 N96 1.305 . S
C97 C99 1.407 . S
C97 H104 0.930 . S
C98 C86 1.410 . S
C98 C99 1.345 . S
C98 H106 0.930 . S
C99 C97 1.407 . S
C99 C98 1.345 . S
C99 H101 0.930 . S
H100 C93 0.930 . S
H101 C99 0.930 . S
H102 C90 0.930 . S
H103 C91 0.931 . S
H104 C97 0.930 . S
H105 C119 0.930 . S
H106 C98 0.930 . S
H107 C125 0.930 . S
H108 C116 0.930 . S
H109 C123 0.931 . S
H110 C87 0.929 . S
H111 C117 0.930 . S
H112 C150 0.930 . S
H113 C94 0.930 . S
H114 C149 0.929 . S
N115 Tb84 2.660 . S
N115 C116 1.305 . S
N115 C120 1.360 1_455 S
C116 H108 0.930 . S
C116 N115 1.305 . S
C116 C119 1.407 . S
C117 H111 0.930 . S
C117 C118 1.410 . S
C117 C119 1.345 1_655 S
C118 C117 1.410 . S
C118 C120 1.417 . S
C118 C150 1.432 . S
C119 H105 0.930 . S
C119 C116 1.407 . S
C119 C117 1.345 1_455 S
C120 N115 1.360 1_655 S
C120 C118 1.417 . S
C120 C124 1.432 . S
H121 C126 0.930 . S
N122 Tb84 2.600 . S
N122 C124 1.359 1_455 S
N122 C125 1.327 . S
C123 H109 0.931 . S
C123 C125 1.392 1_655 S
C123 C126 1.370 . S
C124 C120 1.432 . S
C124 N122 1.359 1_655 S
C124 C127 1.414 . S
C125 H107 0.930 . S
C125 N122 1.327 . S
C125 C123 1.392 1_455 S
C126 H121 0.930 . S
C126 C123 1.370 . S
C126 C127 1.385 . S
C127 C124 1.414 . S
C127 C126 1.385 . S
C127 C149 1.444 . S
O128 Tb84 2.546 . S
O128 C148 1.251 . S
O129 Tb84 2.610 . S
O129 Tb95 2.362 . S
O129 C140 1.283 . S
O130 Tb95 2.421 . S
O130 C147 1.262 . S
O131 Tb84 2.320 . S
O131 C147 1.260 . S
O132 Tb84 2.552 . S
O132 C140 1.243 . S
O133 Tb84 2.413 . S
O133 C148 1.256 . S
O134 Tb95 2.546 . S
O134 C159 1.251 . S
O135 Tb84 2.362 . S
O135 Tb95 2.610 . S
O135 C151 1.283 . S
O136 Tb84 2.421 . S
O136 C158 1.262 . S
O137 Tb95 2.320 . S
O137 C158 1.260 . S
O138 Tb95 2.552 . S
O138 C151 1.243 . S
O139 Tb95 2.413 . S
O139 C159 1.256 . S
C140 O129 1.283 . S
C140 O132 1.243 . S
C141 C143 1.382 . S
C141 C145 1.393 1_455 S
C141 C148 1.500 . S
C142 C143 1.400 . S
C142 C144 1.384 1_455 S
C143 C141 1.382 . S
C143 C142 1.400 . S
C143 H160 0.930 . S
C144 C142 1.384 1_655 S
C144 C146 1.392 . S
C144 H161 0.931 . S
C145 C141 1.393 1_655 S
C145 C146 1.401 . S
C145 H162 0.930 . S
C146 C144 1.392 . S
C146 C145 1.401 . S
C146 H163 0.930 . S
C147 O130 1.262 . S
C147 O131 1.260 . S
C148 Tb84 2.833 . S
C148 O128 1.251 . S
C148 O133 1.256 . S
C148 C141 1.500 . S
C149 H114 0.929 . S
C149 C127 1.444 . S
C149 C150 1.317 . S
C150 H112 0.930 . S
C150 C118 1.432 . S
C150 C149 1.317 . S
C151 O135 1.283 . S
C151 O138 1.243 . S
C152 C153 1.382 . S
C152 C156 1.393 . S
C152 C159 1.500 . S
C153 C152 1.382 . S
C153 C154 1.400 . S
C153 H164 0.930 . S
C154 C153 1.400 . S
C154 C155 1.384 . S
C155 C154 1.384 . S
C155 C157 1.392 . S
C155 H165 0.931 . S
C156 C152 1.393 . S
C156 C157 1.401 . S
C156 H166 0.930 . S
C157 C155 1.392 . S
C157 C156 1.401 . S
C157 H167 0.930 . S
C158 O136 1.262 . S
C158 O137 1.260 . S
C159 Tb95 2.833 . S
C159 O134 1.251 . S
C159 O139 1.256 . S
C159 C152 1.500 . S
H160 C143 0.930 . S
H161 C144 0.931 . S
H162 C145 0.930 . S
H163 C146 0.930 . S
H164 C153 0.930 . S
H165 C155 0.931 . S
H166 C156 0.930 . S
H167 C157 0.930 . S
Tb168 N199 2.660 . S
Tb168 N206 2.600 . S
Tb168 O212 2.546 . S
Tb168 O213 2.610 . S
Tb168 O215 2.320 . S
Tb168 O216 2.552 1_554 S
Tb168 O217 2.413 . S
Tb168 O219 2.362 . S
Tb168 O220 2.421 . S
Tb168 C232 2.833 . S
C169 C172 1.432 . S
C169 C173 1.414 . S
C169 N176 1.359 1_556 S
C170 C172 1.417 . S
C170 C174 1.432 . S
C170 C182 1.410 . S
C171 C173 1.444 . S
C171 C174 1.317 . S
C171 H194 0.929 . S
C172 C169 1.432 . S
C172 C170 1.417 . S
C172 N180 1.360 1_556 S
C173 C169 1.414 . S
C173 C171 1.444 . S
C173 C178 1.385 . S
C174 C170 1.432 . S
C174 C171 1.317 . S
C174 H186 0.930 . S
C175 C177 1.392 1_455 S
C175 C178 1.370 1_454 S
C175 H187 0.931 . S
N176 C169 1.359 1_554 S
N176 C177 1.327 . S
N176 Tb179 2.600 1_565 S
C177 C175 1.392 1_655 S
C177 N176 1.327 . S
C177 H184 0.929 . S
C178 C173 1.385 . S
C178 C175 1.370 1_656 S
C178 H197 0.930 . S
Tb179 N176 2.600 1_545 S
Tb179 N180 2.660 1_545 S
Tb179 O213 2.362 . S
Tb179 O214 2.421 . S
Tb179 O218 2.546 1_545 S
Tb179 O219 2.610 . S
Tb179 O221 2.320 . S
Tb179 O222 2.552 . S
Tb179 O223 2.413 1_545 S
Tb179 C243 2.833 1_545 S
N180 C172 1.360 1_554 S
N180 Tb179 2.660 1_565 S
N180 C181 1.305 1_554 S
C181 N180 1.305 1_556 S
C181 C183 1.407 . S
C181 H188 0.930 1_556 S
C182 C170 1.410 . S
C182 C183 1.345 . S
C182 H190 0.930 . S
C183 C181 1.407 . S
C183 C182 1.345 . S
C183 H185 0.930 . S
H184 C177 0.929 . S
H185 C183 0.930 . S
H186 C174 0.930 . S
H187 C175 0.931 . S
H188 C181 0.930 1_554 S
H189 C203 0.930 . S
H190 C182 0.930 . S
H191 C209 0.930 . S
H192 C200 0.930 1_455 S
H193 C207 0.931 . S
H194 C171 0.929 . S
H195 C201 0.930 . S
H196 C234 0.930 . S
H197 C178 0.930 . S
H198 C233 0.929 . S
N199 Tb168 2.660 . S
N199 C200 1.305 . S
N199 C204 1.360 . S
C200 H192 0.930 1_655 S
C200 N199 1.305 . S
C200 C203 1.407 1_655 S
C201 H195 0.930 . S
C201 C202 1.410 1_455 S
C201 C203 1.345 . S
C202 C201 1.410 1_655 S
C202 C204 1.417 . S
C202 C234 1.432 . S
C203 H189 0.930 . S
C203 C200 1.407 1_455 S
C203 C201 1.345 . S
C204 N199 1.360 . S
C204 C202 1.417 . S
C204 C208 1.432 . S
H205 C210 0.930 . S
N206 Tb168 2.600 . S
N206 C208 1.359 . S
N206 C209 1.327 . S
C207 H193 0.931 . S
C207 C209 1.392 . S
C207 C210 1.370 . S
C208 C204 1.432 . S
C208 N206 1.359 . S
C208 C211 1.414 . S
C209 H191 0.930 . S
C209 N206 1.327 . S
C209 C207 1.392 . S
C210 H205 0.930 . S
C210 C207 1.370 . S
C210 C211 1.385 . S
C211 C208 1.414 . S
C211 C210 1.385 . S
C211 C233 1.444 . S
O212 Tb168 2.546 . S
O212 C232 1.251 . S
O213 Tb168 2.610 . S
O213 Tb179 2.362 . S
O213 C224 1.283 1_554 S
O214 Tb179 2.421 . S
O214 C231 1.262 . S
O215 Tb168 2.320 . S
O215 C231 1.260 . S
O216 Tb168 2.552 1_556 S
O216 C224 1.243 . S
O217 Tb168 2.413 . S
O217 C232 1.256 . S
O218 Tb179 2.546 1_565 S
O218 C243 1.251 . S
O219 Tb168 2.362 . S
O219 Tb179 2.610 . S
O219 C235 1.283 . S
O220 Tb168 2.421 . S
O220 C242 1.262 . S
O221 Tb179 2.320 . S
O221 C242 1.260 . S
O222 Tb179 2.552 . S
O222 C235 1.243 . S
O223 Tb179 2.413 1_565 S
O223 C243 1.256 . S
C224 O213 1.283 1_556 S
C224 O216 1.243 . S
C225 C227 1.382 . S
C225 C229 1.393 . S
C225 C232 1.500 1_556 S
C226 C227 1.400 . S
C226 C228 1.384 . S
C227 C225 1.382 . S
C227 C226 1.400 . S
C227 H244 0.930 . S
C228 C226 1.384 . S
C228 C230 1.392 . S
C228 H245 0.931 . S
C229 C225 1.393 . S
C229 C230 1.401 . S
C229 H246 0.930 . S
C230 C228 1.392 . S
C230 C229 1.401 . S
C230 H247 0.930 . S
C231 O214 1.262 . S
C231 O215 1.260 . S
C232 Tb168 2.833 . S
C232 O212 1.251 . S
C232 O217 1.256 . S
C232 C225 1.500 1_554 S
C233 H198 0.929 . S
C233 C211 1.444 . S
C233 C234 1.317 . S
C234 H196 0.930 . S
C234 C202 1.432 . S
C234 C233 1.317 . S
C235 O219 1.283 . S
C235 O222 1.243 . S
C236 C237 1.382 . S
C236 C240 1.393 . S
C236 C243 1.500 . S
C237 C236 1.382 . S
C237 C238 1.400 . S
C237 H248 0.930 . S
C238 C237 1.400 . S
C238 C239 1.384 . S
C239 C238 1.384 . S
C239 C241 1.392 . S
C239 H249 0.931 . S
C240 C236 1.393 . S
C240 C241 1.401 . S
C240 H250 0.930 . S
C241 C239 1.392 . S
C241 C240 1.401 . S
C241 H251 0.930 . S
C242 O220 1.262 . S
C242 O221 1.260 . S
C243 Tb179 2.833 1_565 S
C243 O218 1.251 . S
C243 O223 1.256 . S
C243 C236 1.500 . S
H244 C227 0.930 . S
H245 C228 0.931 . S
H246 C229 0.930 . S
H247 C230 0.930 . S
H248 C237 0.930 . S
H249 C239 0.931 . S
H250 C240 0.930 . S
H251 C241 0.930 . S
Tb252 N283 2.660 . S
Tb252 N290 2.600 . S
Tb252 O296 2.546 . S
Tb252 O297 2.610 1_655 S
Tb252 O299 2.320 . S
Tb252 O300 2.552 1_655 S
Tb252 O301 2.413 . S
Tb252 O303 2.362 . S
Tb252 O304 2.421 . S
Tb252 C316 2.833 . S
C253 C256 1.432 . S
C253 C257 1.414 . S
C253 N260 1.359 . S
C254 C256 1.417 . S
C254 C258 1.432 . S
C254 C266 1.410 . S
C255 C257 1.444 . S
C255 C258 1.317 . S
C255 H278 0.929 . S
C256 C253 1.432 . S
C256 C254 1.417 . S
C256 N264 1.360 . S
C257 C253 1.414 . S
C257 C255 1.444 . S
C257 C262 1.385 . S
C258 C254 1.432 . S
C258 C255 1.317 . S
C258 H270 0.930 . S
C259 C261 1.392 1_545 S
C259 C262 1.370 1_545 S
C259 H271 0.931 . S
N260 C253 1.359 . S
N260 C261 1.327 . S
N260 Tb263 2.600 . S
C261 C259 1.392 1_565 S
C261 N260 1.327 . S
C261 H268 0.930 . S
C262 C257 1.385 . S
C262 C259 1.370 1_565 S
C262 H281 0.930 1_565 S
Tb263 N260 2.600 . S
Tb263 N264 2.660 . S
Tb263 O297 2.362 . S
Tb263 O298 2.421 . S
Tb263 O302 2.546 . S
Tb263 O303 2.610 1_455 S
Tb263 O305 2.320 . S
Tb263 O306 2.552 . S
Tb263 O307 2.413 . S
Tb263 C327 2.833 . S
N264 C256 1.360 . S
N264 Tb263 2.660 . S
N264 C265 1.305 . S
C265 N264 1.305 . S
C265 C267 1.407 . S
C265 H272 0.930 . S
C266 C254 1.410 . S
C266 C267 1.345 . S
C266 H274 0.930 . S
C267 C265 1.407 . S
C267 C266 1.345 . S
C267 H269 0.930 . S
H268 C261 0.930 . S
H269 C267 0.930 . S
H270 C258 0.930 . S
H271 C259 0.931 . S
H272 C265 0.930 . S
H273 C287 0.930 . S
H274 C266 0.930 . S
H275 C293 0.930 . S
H276 C284 0.930 . S
H277 C291 0.931 . S
H278 C255 0.929 . S
H279 C285 0.930 . S
H280 C318 0.930 . S
H281 C262 0.930 1_545 S
H282 C317 0.929 . S
N283 Tb252 2.660 . S
N283 C284 1.305 . S
N283 C288 1.360 . S
C284 H276 0.930 . S
C284 N283 1.305 . S
C284 C287 1.407 . S
C285 H279 0.930 . S
C285 C286 1.410 . S
C285 C287 1.345 . S
C286 C285 1.410 . S
C286 C288 1.417 . S
C286 C318 1.432 . S
C287 H273 0.930 . S
C287 C284 1.407 . S
C287 C285 1.345 . S
C288 N283 1.360 . S
C288 C286 1.417 . S
C288 C292 1.432 . S
H289 C294 0.930 . S
N290 Tb252 2.600 . S
N290 C292 1.359 . S
N290 C293 1.327 . S
C291 H277 0.931 . S
C291 C293 1.392 . S
C291 C294 1.370 . S
C292 C288 1.432 . S
C292 N290 1.359 . S
C292 C295 1.414 . S
C293 H275 0.930 . S
C293 N290 1.327 . S
C293 C291 1.392 . S
C294 H289 0.930 . S
C294 C291 1.370 . S
C294 C295 1.385 . S
C295 C292 1.414 . S
C295 C294 1.385 . S
C295 C317 1.444 . S
O296 Tb252 2.546 . S
O296 C316 1.251 . S
O297 Tb252 2.610 1_455 S
O297 Tb263 2.362 . S
O297 C308 1.283 . S
O298 Tb263 2.421 . S
O298 C315 1.262 . S
O299 Tb252 2.320 . S
O299 C315 1.260 1_655 S
O300 Tb252 2.552 1_455 S
O300 C308 1.243 . S
O301 Tb252 2.413 . S
O301 C316 1.256 . S
O302 Tb263 2.546 . S
O302 C327 1.251 . S
O303 Tb252 2.362 . S
O303 Tb263 2.610 1_655 S
O303 C319 1.283 . S
O304 Tb252 2.421 . S
O304 C326 1.262 1_655 S
O305 Tb263 2.320 . S
O305 C326 1.260 . S
O306 Tb263 2.552 . S
O306 C319 1.243 1_455 S
O307 Tb263 2.413 . S
O307 C327 1.256 . S
C308 O297 1.283 . S
C308 O300 1.243 . S
C309 C311 1.382 . S
C309 C313 1.393 . S
C309 C316 1.500 . S
C310 C311 1.400 . S
C310 C312 1.384 . S
C311 C309 1.382 . S
C311 C310 1.400 . S
C311 H328 0.930 . S
C312 C310 1.384 . S
C312 C314 1.392 . S
C312 H329 0.931 . S
C313 C309 1.393 . S
C313 C314 1.401 . S
C313 H330 0.930 . S
C314 C312 1.392 . S
C314 C313 1.401 . S
C314 H331 0.930 . S
C315 O298 1.262 . S
C315 O299 1.260 1_455 S
C316 Tb252 2.833 . S
C316 O296 1.251 . S
C316 O301 1.256 . S
C316 C309 1.500 . S
C317 H282 0.929 . S
C317 C295 1.444 . S
C317 C318 1.317 . S
C318 H280 0.930 . S
C318 C286 1.432 . S
C318 C317 1.317 . S
C319 O303 1.283 . S
C319 O306 1.243 1_655 S
C320 C321 1.382 . S
C320 C324 1.393 . S
C320 C327 1.500 . S
C321 C320 1.382 . S
C321 C322 1.400 . S
C321 H332 0.930 . S
C322 C321 1.400 . S
C322 C323 1.384 . S
C323 C322 1.384 . S
C323 C325 1.392 . S
C323 H333 0.931 . S
C324 C320 1.393 . S
C324 C325 1.401 . S
C324 H334 0.930 . S
C325 C323 1.392 . S
C325 C324 1.401 . S
C325 H335 0.930 . S
C326 O304 1.262 1_455 S
C326 O305 1.260 . S
C327 Tb263 2.833 . S
C327 O302 1.251 . S
C327 O307 1.256 . S
C327 C320 1.500 . S
H328 C311 0.930 . S
H329 C312 0.931 . S
H330 C313 0.930 . S
H331 C314 0.930 . S
H332 C321 0.930 . S
H333 C323 0.931 . S
H334 C324 0.930 . S
H335 C325 0.930 . S
H336 C342 0.930 . S
H337 C346 0.930 . S
H338 C351 0.929 . S
H339 C349 0.929 . S
H340 C344 0.929 . S
H341 C350 0.929 1_565 S
C342 H336 0.930 . S
C342 C343 1.367 . S
C342 C350 1.378 . S
C343 C342 1.367 . S
C343 C351 1.433 . S
C344 H340 0.929 . S
C344 C346 1.378 . S
C344 C348 1.350 . S
C345 C348 1.463 . S
C345 C350 1.350 . S
C345 N353 1.427 . S
C346 H337 0.930 . S
C346 C344 1.378 . S
C346 C347 1.367 . S
C347 C346 1.367 . S
C347 C349 1.433 1_545 S
C348 C344 1.350 . S
C348 C345 1.463 . S
C348 N352 1.427 1_545 S
C349 H339 0.929 . S
C349 C347 1.433 1_565 S
C349 N352 1.384 . S
C350 H341 0.929 1_545 S
C350 C342 1.378 . S
C350 C345 1.350 . S
C351 H338 0.929 . S
C351 C343 1.433 . S
C351 N353 1.384 . S
N352 C348 1.427 1_565 S
N352 C349 1.384 . S
N353 C345 1.427 . S
N353 C351 1.384 . S
H354 C360 0.930 . S
H355 C364 0.930 . S
H356 C369 0.929 . S
H357 C367 0.929 . S
H358 C362 0.929 . S
H359 C368 0.929 . S
C360 H354 0.930 . S
C360 C361 1.367 . S
C360 C368 1.378 1_565 S
C361 C360 1.367 . S
C361 C369 1.433 . S
C362 H358 0.929 . S
C362 C364 1.378 . S
C362 C366 1.350 . S
C363 C366 1.463 . S
C363 C368 1.350 . S
C363 N371 1.427 1_545 S
C364 H355 0.930 . S
C364 C362 1.378 . S
C364 C365 1.367 . S
C365 C364 1.367 . S
C365 C367 1.433 . S
C366 C362 1.350 . S
C366 C363 1.463 . S
C366 N370 1.427 . S
C367 H357 0.929 . S
C367 C365 1.433 . S
C367 N370 1.384 . S
C368 H359 0.929 . S
C368 C360 1.378 1_545 S
C368 C363 1.350 . S
C369 H356 0.929 . S
C369 C361 1.433 . S
C369 N371 1.384 . S
N370 C366 1.427 . S
N370 C367 1.384 . S
N371 C363 1.427 1_565 S
N371 C369 1.384 . S
H372 C378 0.930 . S
H373 C382 0.930 . S
H374 C387 0.929 . S
H375 C385 0.929 1_565 S
H376 C380 0.929 . S
H377 C386 0.929 . S
C378 H372 0.930 . S
C378 C379 1.367 . S
C378 C386 1.378 . S
C379 C378 1.367 . S
C379 C387 1.433 . S
C380 H376 0.929 . S
C380 C382 1.378 . S
C380 C384 1.350 . S
C381 C384 1.463 . S
C381 C386 1.350 . S
C381 N389 1.427 . S
C382 H373 0.930 . S
C382 C380 1.378 . S
C382 C383 1.367 . S
C383 C382 1.367 . S
C383 C385 1.433 . S
C384 C380 1.350 . S
C384 C381 1.463 . S
C384 N388 1.427 . S
C385 H375 0.929 1_545 S
C385 C383 1.433 . S
C385 N388 1.384 . S
C386 H377 0.929 . S
C386 C378 1.378 . S
C386 C381 1.350 . S
C387 H374 0.929 . S
C387 C379 1.433 . S
C387 N389 1.384 . S
N388 C384 1.427 . S
N388 C385 1.384 . S
N389 C381 1.427 . S
N389 C387 1.384 . S
H390 C396 0.930 . S
H391 C400 0.930 . S
H392 C405 0.929 . S
H393 C403 0.929 . S
H394 C398 0.929 . S
H395 C404 0.929 . S
C396 H390 0.930 . S
C396 C397 1.367 . S
C396 C404 1.378 . S
C397 C396 1.367 . S
C397 C405 1.433 . S
C398 H394 0.929 . S
C398 C400 1.378 . S
C398 C402 1.350 . S
C399 C402 1.463 . S
C399 C404 1.350 . S
C399 N407 1.427 . S
C400 H391 0.930 . S
C400 C398 1.378 . S
C400 C401 1.367 . S
C401 C400 1.367 . S
C401 C403 1.433 . S
C402 C398 1.350 . S
C402 C399 1.463 . S
C402 N406 1.427 . S
C403 H393 0.929 . S
C403 C401 1.433 . S
C403 N406 1.384 . S
C404 H395 0.929 . S
C404 C396 1.378 . S
C404 C399 1.350 . S
C405 H392 0.929 . S
C405 C397 1.433 . S
C405 N407 1.384 . S
N406 C402 1.427 . S
N406 C403 1.384 . S
N407 C399 1.427 . S
N407 C405 1.384 . S
H408 C414 0.930 . S
H409 C418 0.930 . S
H410 C423 0.929 . S
H411 C421 0.929 . S
H412 C416 0.929 . S
H413 C422 0.929 . S
C414 H408 0.930 . S
C414 C415 1.367 . S
C414 C422 1.378 . S
C415 C414 1.367 . S
C415 C423 1.433 . S
C416 H412 0.929 . S
C416 C418 1.378 . S
C416 C420 1.350 . S
C417 C420 1.463 . S
C417 C422 1.350 . S
C417 N425 1.427 . S
C418 H409 0.930 . S
C418 C416 1.378 . S
C418 C419 1.367 . S
C419 C418 1.367 . S
C419 C421 1.433 . S
C420 C416 1.350 . S
C420 C417 1.463 . S
C420 N424 1.427 . S
C421 H411 0.929 . S
C421 C419 1.433 . S
C421 N424 1.384 . S
C422 H413 0.929 . S
C422 C414 1.378 . S
C422 C417 1.350 . S
C423 H410 0.929 . S
C423 C415 1.433 . S
C423 N425 1.384 . S
N424 C420 1.427 . S
N424 C421 1.384 . S
N425 C417 1.427 . S
N425 C423 1.384 . S
H426 C432 0.930 . S
H427 C436 0.930 . S
H428 C441 0.929 . S
H429 C439 0.929 . S
H430 C434 0.929 . S
H431 C440 0.929 1_655 S
C432 H426 0.930 . S
C432 C433 1.367 . S
C432 C440 1.378 . S
C433 C432 1.367 . S
C433 C441 1.433 . S
C434 H430 0.929 . S
C434 C436 1.378 . S
C434 C438 1.350 . S
C435 C438 1.463 . S
C435 C440 1.350 . S
C435 N443 1.427 . S
C436 H427 0.930 . S
C436 C434 1.378 . S
C436 C437 1.367 1_455 S
C437 C436 1.367 1_655 S
C437 C439 1.433 . S
C438 C434 1.350 . S
C438 C435 1.463 . S
C438 N442 1.427 1_455 S
C439 H429 0.929 . S
C439 C437 1.433 . S
C439 N442 1.384 . S
C440 H431 0.929 1_455 S
C440 C432 1.378 . S
C440 C435 1.350 . S
C441 H428 0.929 . S
C441 C433 1.433 . S
C441 N443 1.384 . S
N442 C438 1.427 1_655 S
N442 C439 1.384 . S
N443 C435 1.427 . S
N443 C441 1.384 . S
H444 C450 0.930 . S
H445 C454 0.930 . S
H446 C459 0.929 . S
H447 C457 0.929 1_545 S
H448 C452 0.929 . S
H449 C458 0.929 . S
C450 H444 0.930 . S
C450 C451 1.367 . S
C450 C458 1.378 . S
C451 C450 1.367 . S
C451 C459 1.433 . S
C452 H448 0.929 . S
C452 C454 1.378 . S
C452 C456 1.350 . S
C453 C456 1.463 . S
C453 C458 1.350 . S
C453 N461 1.427 . S
C454 H445 0.930 . S
C454 C452 1.378 . S
C454 C455 1.367 . S
C455 C454 1.367 . S
C455 C457 1.433 . S
C456 C452 1.350 . S
C456 C453 1.463 . S
C456 N460 1.427 . S
C457 H447 0.929 1_565 S
C457 C455 1.433 . S
C457 N460 1.384 . S
C458 H449 0.929 . S
C458 C450 1.378 . S
C458 C453 1.350 . S
C459 H446 0.929 . S
C459 C451 1.433 . S
C459 N461 1.384 . S
N460 C456 1.427 . S
N460 C457 1.384 . S
N461 C453 1.427 . S
N461 C459 1.384 . S
H462 C468 0.930 . S
H463 C472 0.930 . S
H464 C477 0.929 . S
H465 C475 0.929 . S
H466 C470 0.929 . S
H467 C476 0.929 . S
C468 H462 0.930 . S
C468 C469 1.367 . S
C468 C476 1.378 . S
C469 C468 1.367 . S
C469 C477 1.433 . S
C470 H466 0.929 . S
C470 C472 1.378 1_556 S
C470 C474 1.350 . S
C471 C474 1.463 . S
C471 C476 1.350 . S
C471 N479 1.427 . S
C472 H463 0.930 . S
C472 C470 1.378 1_554 S
C472 C473 1.367 . S
C473 C472 1.367 . S
C473 C475 1.433 . S
C474 C470 1.350 . S
C474 C471 1.463 . S
C474 N478 1.427 1_556 S
C475 H465 0.929 . S
C475 C473 1.433 . S
C475 N478 1.385 . S
C476 H467 0.929 . S
C476 C468 1.378 . S
C476 C471 1.350 . S
C477 H464 0.929 . S
C477 C469 1.433 . S
C477 N479 1.384 . S
N478 C474 1.427 1_554 S
N478 C475 1.385 . S
N479 C471 1.427 . S
N479 C477 1.384 . S
H480 C486 0.930 . S
H481 C490 0.930 . S
H482 C495 0.929 . S
H483 C493 0.929 . S
H484 C488 0.929 . S
H485 C494 0.929 1_545 S
C486 H480 0.930 . S
C486 C487 1.367 1_545 S
C486 C494 1.378 1_545 S
C487 C486 1.367 1_565 S
C487 C495 1.433 . S
C488 H484 0.929 . S
C488 C490 1.378 . S
C488 C492 1.350 . S
C489 C492 1.463 . S
C489 C494 1.350 . S
C489 N497 1.427 . S
C490 H481 0.930 . S
C490 C488 1.378 . S
C490 C491 1.367 . S
C491 C490 1.367 . S
C491 C493 1.433 . S
C492 C488 1.350 . S
C492 C489 1.463 . S
C492 N496 1.427 . S
C493 H483 0.929 . S
C493 C491 1.433 . S
C493 N496 1.384 . S
C494 H485 0.929 1_565 S
C494 C486 1.378 1_565 S
C494 C489 1.350 . S
C495 H482 0.929 . S
C495 C487 1.433 . S
C495 N497 1.384 . S
N496 C492 1.427 . S
N496 C493 1.384 . S
N497 C489 1.427 . S
N497 C495 1.384 . S
H498 C504 0.930 . S
H499 C508 0.930 . S
H500 C513 0.929 . S
H501 C511 0.929 . S
H502 C506 0.929 . S
H503 C512 0.929 . S
C504 H498 0.930 . S
C504 C505 1.367 . S
C504 C512 1.378 . S
C505 C504 1.367 . S
C505 C513 1.433 . S
C506 H502 0.929 . S
C506 C508 1.378 . S
C506 C510 1.350 . S
C507 C510 1.463 . S
C507 C512 1.350 . S
C507 N515 1.427 . S
C508 H499 0.930 . S
C508 C506 1.378 . S
C508 C509 1.367 . S
C509 C508 1.367 . S
C509 C511 1.433 . S
C510 C506 1.350 . S
C510 C507 1.463 . S
C510 N514 1.427 . S
C511 H501 0.929 . S
C511 C509 1.433 . S
C511 N514 1.384 . S
C512 H503 0.929 . S
C512 C504 1.378 . S
C512 C507 1.350 . S
C513 H500 0.929 . S
C513 C505 1.433 . S
C513 N515 1.384 . S
N514 C510 1.427 . S
N514 C511 1.384 . S
N515 C507 1.427 . S
N515 C513 1.384 . S
H516 C522 0.930 . S
H517 C526 0.930 . S
H518 C531 0.929 . S
H519 C529 0.929 . S
H520 C524 0.929 . S
H521 C530 0.929 . S
C522 H516 0.930 . S
C522 C523 1.367 . S
C522 C530 1.378 . S
C523 C522 1.367 . S
C523 C531 1.433 . S
C524 H520 0.929 . S
C524 C526 1.378 . S
C524 C528 1.350 . S
C525 C528 1.463 . S
C525 C530 1.350 . S
C525 N533 1.427 . S
C526 H517 0.930 . S
C526 C524 1.378 . S
C526 C527 1.367 1_556 S
C527 C526 1.367 1_554 S
C527 C529 1.433 . S
C528 C524 1.350 . S
C528 C525 1.463 . S
C528 N532 1.427 . S
C529 H519 0.929 . S
C529 C527 1.433 . S
C529 N532 1.384 1_554 S
C530 H521 0.929 . S
C530 C522 1.378 . S
C530 C525 1.350 . S
C531 H518 0.929 . S
C531 C523 1.433 . S
C531 N533 1.384 . S
N532 C528 1.427 . S
N532 C529 1.384 1_556 S
N533 C525 1.427 . S
N533 C531 1.384 . S
H534 C540 0.930 . S
H535 C544 0.930 . S
H536 C549 0.929 . S
H537 C547 0.929 . S
H538 C542 0.929 . S
H539 C548 0.929 1_455 S
C540 H534 0.930 . S
C540 C541 1.367 . S
C540 C548 1.378 . S
C541 C540 1.367 . S
C541 C549 1.433 . S
C542 H538 0.929 . S
C542 C544 1.378 . S
C542 C546 1.350 . S
C543 C546 1.463 . S
C543 C548 1.350 . S
C543 N551 1.427 . S
C544 H535 0.930 . S
C544 C542 1.378 . S
C544 C545 1.367 1_655 S
C545 C544 1.367 1_455 S
C545 C547 1.433 . S
C546 C542 1.350 . S
C546 C543 1.463 . S
C546 N550 1.427 1_655 S
C547 H537 0.929 . S
C547 C545 1.433 . S
C547 N550 1.384 . S
C548 H539 0.929 1_655 S
C548 C540 1.378 . S
C548 C543 1.350 . S
C549 H536 0.929 . S
C549 C541 1.433 . S
C549 N551 1.384 . S
N550 C546 1.427 1_455 S
N550 C547 1.384 . S
N551 C543 1.427 . S
N551 C549 1.384 . S
C343 C231 0.781 1_455 S
C347 C74 0.781 . S
C361 C315 0.560 . S
C365 C158 0.560 . S
C379 C242 1.271 . S
C383 C63 1.271 . S
C397 C147 1.354 . S
C401 C326 1.354 . S
C415 C140 1.944 . S
C419 C67 2.091 . S
C433 C151 2.080 . S
C437 C226 2.094 . S
C451 C310 1.118 . S
C455 C238 0.934 . S
C469 C322 0.803 . S
C473 C56 0.876 . S
C487 C224 2.084 1_565 S
C491 C319 1.946 . S
C505 C70 2.095 . S
C509 C308 2.077 . S
C523 C154 1.106 . S
C527 C58 0.954 . S
C541 C235 0.849 . S
C545 C142 0.798 . S
