# Generated by pormake.
# Topology wji, (4)-cn, num edge types: 1
# Building blocks:
#     Node 0, Type 0, BuildingBlock: CEKHIL_clean_sbu_0, # of connection points: 4
#     Node 1, Type 0, BuildingBlock: CEKHIL_clean_sbu_0, # of connection points: 4
#     Node 2, Type 0, BuildingBlock: CEKHIL_clean_sbu_0, # of connection points: 4
#     Node 3, Type 0, BuildingBlock: CEKHIL_clean_sbu_0, # of connection points: 4
#     Node 4, Type 0, BuildingBlock: CEKHIL_clean_sbu_0, # of connection points: 4
#     Node 5, Type 0, BuildingBlock: CEKHIL_clean_sbu_0, # of connection points: 4
#     Node 6, Type 0, BuildingBlock: CEKHIL_clean_sbu_0, # of connection points: 4
#     Node 7, Type 0, BuildingBlock: CEKHIL_clean_sbu_0, # of connection points: 4
#     Node 8, Type 0, BuildingBlock: CEKHIL_clean_sbu_0, # of connection points: 4
#     Node 9, Type 0, BuildingBlock: CEKHIL_clean_sbu_0, # of connection points: 4
#     Node 10, Type 0, BuildingBlock: CEKHIL_clean_sbu_0, # of connection points: 4
#     Node 11, Type 0, BuildingBlock: CEKHIL_clean_sbu_0, # of connection points: 4
#     Edge 12, Type (0, 0), BuildingBlock: XIVTED_clean_linker_0, # of connection points: 2
#     Edge 13, Type (0, 0), BuildingBlock: XIVTED_clean_linker_0, # of connection points: 2
#     Edge 14, Type (0, 0), BuildingBlock: XIVTED_clean_linker_0, # of connection points: 2
#     Edge 15, Type (0, 0), BuildingBlock: XIVTED_clean_linker_0, # of connection points: 2
#     Edge 16, Type (0, 0), BuildingBlock: XIVTED_clean_linker_0, # of connection points: 2
#     Edge 17, Type (0, 0), BuildingBlock: XIVTED_clean_linker_0, # of connection points: 2
#     Edge 18, Type (0, 0), BuildingBlock: XIVTED_clean_linker_0, # of connection points: 2
#     Edge 19, Type (0, 0), BuildingBlock: XIVTED_clean_linker_0, # of connection points: 2
#     Edge 20, Type (0, 0), BuildingBlock: XIVTED_clean_linker_0, # of connection points: 2
#     Edge 21, Type (0, 0), BuildingBlock: XIVTED_clean_linker_0, # of connection points: 2
#     Edge 22, Type (0, 0), BuildingBlock: XIVTED_clean_linker_0, # of connection points: 2
#     Edge 23, Type (0, 0), BuildingBlock: XIVTED_clean_linker_0, # of connection points: 2
#     Edge 24, Type (0, 0), BuildingBlock: XIVTED_clean_linker_0, # of connection points: 2
#     Edge 25, Type (0, 0), BuildingBlock: XIVTED_clean_linker_0, # of connection points: 2
#     Edge 26, Type (0, 0), BuildingBlock: XIVTED_clean_linker_0, # of connection points: 2
#     Edge 27, Type (0, 0), BuildingBlock: XIVTED_clean_linker_0, # of connection points: 2
#     Edge 28, Type (0, 0), BuildingBlock: XIVTED_clean_linker_0, # of connection points: 2
#     Edge 29, Type (0, 0), BuildingBlock: XIVTED_clean_linker_0, # of connection points: 2
#     Edge 30, Type (0, 0), BuildingBlock: XIVTED_clean_linker_0, # of connection points: 2
#     Edge 31, Type (0, 0), BuildingBlock: XIVTED_clean_linker_0, # of connection points: 2
#     Edge 32, Type (0, 0), BuildingBlock: XIVTED_clean_linker_0, # of connection points: 2
#     Edge 33, Type (0, 0), BuildingBlock: XIVTED_clean_linker_0, # of connection points: 2
#     Edge 34, Type (0, 0), BuildingBlock: XIVTED_clean_linker_0, # of connection points: 2
#     Edge 35, Type (0, 0), BuildingBlock: XIVTED_clean_linker_0, # of connection points: 2
# Relax obj value: 0.218
# Max RMSD: 0.136
# Mean RMSD: 0.136
data_MOF--net-wji--node1-CEKHIL_clean_sbu_0--edge1-XIVTED_clean_linker_0
_symmetry_space_group_name_H-M    P1
_symmetry_Int_Tables_number       1
_symmetry_cell_setting            triclinic
loop_
_symmetry_equiv_pos_as_xyz
'x, y, z'
_cell_length_a     56.670589
_cell_length_b     56.703488
_cell_length_c     23.016382
_cell_angle_alpha  89.978695
_cell_angle_beta   89.971308
_cell_angle_gamma 120.00173
loop_
_atom_site_label
_atom_site_type_symbol
_atom_site_fract_x
_atom_site_fract_y
_atom_site_fract_z
_atom_type_partial_charge
Co0 Co 0.42501 0.32893 0.44972 0.0
O1 O 0.43485 0.31269 0.51139 0.0
O2 O 0.4097 0.28993 0.43592 0.0
C3 C 0.46727 0.36543 0.43874 0.0
O4 O 0.41106 0.33998 0.3778 0.0
Co5 Co 0.43143 0.38617 0.47208 0.0
O6 O 0.42014 0.38323 0.39031 0.0
C7 C 0.38299 0.33657 0.51634 0.0
C8 C 0.42085 0.28956 0.48523 0.0
C9 C 0.4106 0.36147 0.36041 0.0
O10 O 0.39127 0.32124 0.494 0.0
O11 O 0.39656 0.36261 0.51458 0.0
O12 O 0.46068 0.34267 0.41253 0.0
O13 O 0.44916 0.36473 0.47369 0.0
Co14 Co 0.10087 0.42306 0.60418 0.0
O15 O 0.12662 0.43517 0.6671 0.0
O16 O 0.12577 0.40889 0.59524 0.0
C17 C 0.10442 0.46415 0.58823 0.0
O18 O 0.07716 0.40735 0.53092 0.0
Co19 Co 0.04773 0.42657 0.61941 0.0
O20 O 0.0409 0.41364 0.53857 0.0
C21 C 0.05113 0.38043 0.67005 0.0
C22 C 0.13694 0.42164 0.64347 0.0
C23 C 0.0548 0.40523 0.51116 0.0
O24 O 0.07522 0.38945 0.64955 0.0
O25 O 0.03761 0.39286 0.66509 0.0
O26 O 0.12218 0.45863 0.56587 0.0
O27 O 0.08695 0.44589 0.6228 0.0
Co28 Co 0.6792 0.09676 0.77984 0.0
O29 O 0.69323 0.12302 0.84167 0.0
O30 O 0.71816 0.12184 0.76908 0.0
C31 C 0.64132 0.0999 0.76506 0.0
O32 O 0.67058 0.0723 0.70761 0.0
Co33 Co 0.62295 0.04363 0.79897 0.0
O34 O 0.62808 0.03625 0.71785 0.0
C35 C 0.67337 0.04772 0.84635 0.0
C36 C 0.71689 0.13332 0.81715 0.0
C37 C 0.65012 0.04974 0.68925 0.0
O38 O 0.68794 0.07176 0.82533 0.0
O39 O 0.64737 0.03391 0.84272 0.0
O40 O 0.66434 0.1175 0.74147 0.0
O41 O 0.64257 0.08286 0.80014 0.0
Co42 Co 0.58474 0.6784 0.93976 0.0
O43 O 0.57258 0.69231 0.00204 0.0
O44 O 0.59744 0.71703 0.92781 0.0
C45 C 0.54416 0.63972 0.92787 0.0
O46 O 0.60017 0.66987 0.86659 0.0
Co47 Co 0.5839 0.62329 0.959 0.0
O48 O 0.59562 0.62816 0.87735 0.0
C49 C 0.62924 0.67456 0.00564 0.0
C50 C 0.58511 0.71578 0.9765 0.0
C51 C 0.60288 0.64979 0.84812 0.0
O52 O 0.61924 0.68849 0.98368 0.0
O53 O 0.61761 0.64859 0.00298 0.0
O54 O 0.54856 0.66227 0.9036 0.0
O55 O 0.56324 0.64186 0.96169 0.0
Co56 Co 0.9125 0.58566 0.11728 0.0
O57 O 0.88772 0.578 0.18082 0.0
O58 O 0.88881 0.60083 0.10212 0.0
C59 C 0.90608 0.54307 0.11181 0.0
O60 O 0.93584 0.59677 0.04259 0.0
Co61 Co 0.96354 0.5797 0.13712 0.0
O62 O 0.96428 0.57998 0.05147 0.0
C63 C 0.96318 0.62875 0.17933 0.0
C64 C 0.87815 0.5912 0.15297 0.0
C65 C 0.95346 0.59093 0.02144 0.0
O66 O 0.93956 0.62039 0.15696 0.0
O67 O 0.97556 0.61507 0.17815 0.0
O68 O 0.88953 0.54912 0.08545 0.0
O69 O 0.92439 0.56206 0.14384 0.0
Co70 Co 0.33044 0.90891 0.2781 0.0
O71 O 0.31497 0.88357 0.3414 0.0
O72 O 0.29179 0.88362 0.26431 0.0
C73 C 0.36841 0.90545 0.26947 0.0
O74 O 0.34066 0.93277 0.20439 0.0
Co75 Co 0.38629 0.96209 0.29971 0.0
O76 O 0.38278 0.96907 0.21736 0.0
C77 C 0.33509 0.95801 0.34204 0.0
C78 C 0.29182 0.87307 0.31464 0.0
C79 C 0.36141 0.95536 0.1869 0.0
O80 O 0.32088 0.93431 0.31931 0.0
O81 O 0.36116 0.97155 0.34153 0.0
O82 O 0.34585 0.8877 0.24466 0.0
O83 O 0.36658 0.92288 0.30227 0.0
Co84 Co 0.67859 0.58354 0.38132 0.0
O85 O 0.69548 0.57407 0.32035 0.0
O86 O 0.71757 0.59942 0.39614 0.0
C87 C 0.64239 0.54109 0.39187 0.0
O88 O 0.66685 0.59718 0.45265 0.0
Co89 Co 0.62114 0.57635 0.35738 0.0
O90 O 0.62337 0.58723 0.4393 0.0
C91 C 0.67064 0.62523 0.31431 0.0
C92 C 0.71844 0.58843 0.34698 0.0
C93 C 0.64505 0.59714 0.4696 0.0
O94 O 0.68605 0.61712 0.33685 0.0
O95 O 0.64458 0.61147 0.31562 0.0
O96 O 0.66511 0.54796 0.41864 0.0
O97 O 0.64299 0.55904 0.35662 0.0
Co98 Co 0.09889 0.67723 0.55319 0.0
O99 O 0.12217 0.6932 0.4868 0.0
O100 O 0.12468 0.71571 0.56704 0.0
C101 C 0.10267 0.63937 0.55525 0.0
O102 O 0.07766 0.66637 0.63075 0.0
Co103 Co 0.0451 0.62164 0.53841 0.0
O104 O 0.04672 0.62163 0.6239 0.0
C105 C 0.04805 0.67253 0.49762 0.0
C106 C 0.13372 0.71605 0.51475 0.0
C107 C 0.05949 0.64348 0.65329 0.0
O108 O 0.07219 0.68683 0.51841 0.0
O109 O 0.03454 0.64646 0.49888 0.0
O110 O 0.12117 0.66172 0.57948 0.0
O111 O 0.08405 0.64131 0.52706 0.0
Co112 Co 0.42285 0.09419 0.71323 0.0
O113 O 0.43264 0.11933 0.64955 0.0
O114 O 0.40944 0.11946 0.7266 0.0
C115 C 0.46431 0.0977 0.72212 0.0
O116 O 0.40928 0.07053 0.78725 0.0
Co117 Co 0.4256 0.04099 0.69223 0.0
O118 O 0.4152 0.03427 0.77467 0.0
C119 C 0.37838 0.04485 0.64989 0.0
C120 C 0.41996 0.12986 0.67611 0.0
C121 C 0.40751 0.04801 0.80497 0.0
O122 O 0.38786 0.0686 0.67233 0.0
O123 O 0.39095 0.03136 0.65055 0.0
O124 O 0.45952 0.11556 0.7465 0.0
O125 O 0.44505 0.0802 0.68944 0.0
Co126 Co 0.32926 0.42268 0.89222 0.0
O127 O 0.31492 0.435 0.8311 0.0
O128 O 0.29051 0.40933 0.90479 0.0
C129 C 0.36758 0.4635 0.90489 0.0
O130 O 0.33828 0.40699 0.96429 0.0
Co131 Co 0.38484 0.4247 0.87127 0.0
O132 O 0.38034 0.41248 0.95255 0.0
C133 C 0.33385 0.37926 0.82378 0.0
C134 C 0.29151 0.422 0.85677 0.0
C135 C 0.35866 0.4046 0.98207 0.0
O136 O 0.31963 0.38869 0.84679 0.0
O137 O 0.35987 0.39124 0.82622 0.0
O138 O 0.34494 0.4585 0.92977 0.0
O139 O 0.36572 0.44484 0.87015 0.0
Co140 Co 0.90882 0.32969 0.05284 0.0
O141 O 0.88015 0.31386 0.99621 0.0
O142 O 0.8853 0.29077 0.06775 0.0
C143 C 0.90457 0.36684 0.06809 0.0
O144 O 0.93611 0.34026 0.12038 0.0
Co145 Co 0.95972 0.38632 0.02639 0.0
O146 O 0.97014 0.38344 0.10655 0.0
C147 C 0.95601 0.33614 0.97855 0.0
C148 C 0.87165 0.29076 0.02214 0.0
C149 C 0.9585 0.36159 0.13635 0.0
O150 O 0.93269 0.3212 0.00249 0.0
O151 O 0.96928 0.36216 0.98112 0.0
O152 O 0.88901 0.34431 0.09583 0.0
O153 O 0.9205 0.3656 0.0298 0.0
Co154 Co 0.58566 0.90844 0.22194 0.0
O155 O 0.57323 0.8816 0.16122 0.0
O156 O 0.59924 0.88326 0.2345 0.0
C157 C 0.54486 0.9059 0.23559 0.0
O158 O 0.60163 0.93346 0.29336 0.0
Co159 Co 0.58326 0.96177 0.20024 0.0
O160 O 0.59548 0.96959 0.28148 0.0
C161 C 0.62917 0.95664 0.15387 0.0
C162 C 0.58645 0.87141 0.18674 0.0
C163 C 0.60384 0.95618 0.31088 0.0
O164 O 0.61954 0.9328 0.17602 0.0
O165 O 0.61721 0.97069 0.15652 0.0
O166 O 0.54997 0.88832 0.26032 0.0
O167 O 0.56331 0.92254 0.20023 0.0
H168 H 0.33852 0.40954 0.08788 0.0
H169 H 0.40491 0.33297 0.25858 0.0
H170 H 0.37705 0.36971 0.00329 0.0
H171 H 0.38459 0.38955 0.33758 0.0
H172 H 0.38546 0.33766 0.16646 0.0
H173 H 0.3455 0.39334 0.18209 0.0
C174 C 0.34786 0.39691 0.08908 0.0
C175 C 0.35756 0.39125 0.03803 0.0
C176 C 0.38508 0.34882 0.20428 0.0
C177 C 0.36574 0.37282 0.14492 0.0
C178 C 0.39612 0.34609 0.25673 0.0
C179 C 0.39688 0.36129 0.30542 0.0
C180 C 0.37441 0.36655 0.20102 0.0
C181 C 0.38502 0.3779 0.30075 0.0
C182 C 0.35204 0.38783 0.14272 0.0
C183 C 0.36966 0.37488 0.04189 0.0
N184 N 0.37446 0.38018 0.2496 0.0
N185 N 0.37361 0.36643 0.09431 0.0
H186 H 0.08021 0.41149 0.40539 0.0
H187 H 0.93702 0.33176 0.23712 0.0
H188 H 1.00217 0.36809 0.49075 0.0
H189 H 0.01285 0.39069 0.15742 0.0
H190 H 0.96189 0.33622 0.32787 0.0
H191 H 0.05711 0.39492 0.31122 0.0
C192 C 0.05836 0.39794 0.40433 0.0
C193 C 0.043 0.39137 0.45554 0.0
C194 C 0.97306 0.34793 0.29019 0.0
C195 C 0.01647 0.3726 0.34882 0.0
C196 C 0.95887 0.34533 0.23849 0.0
C197 C 0.97277 0.36125 0.19007 0.0
C198 C 1.00133 0.3663 0.29303 0.0
C199 C 1.00117 0.37844 0.19411 0.0
C200 C 0.04513 0.38866 0.35075 0.0
C201 C 0.01467 0.37389 0.45197 0.0
N202 N 0.01443 0.38063 0.24464 0.0
N203 N 1.0023 0.36532 0.3996 0.0
H204 H 0.60403 0.93168 0.41476 0.0
H205 H 0.67461 0.07452 0.58541 0.0
H206 H 0.63545 0.01005 0.33219 0.0
H207 H 0.62883 0.99602 0.66806 0.0
H208 H 0.66967 0.05128 0.49202 0.0
H209 H 0.6222 0.95505 0.50805 0.0
C210 C 0.61513 0.95373 0.41611 0.0
C211 C 0.6178 0.96893 0.36606 0.0
C212 C 0.66104 0.03919 0.53087 0.0
C213 C 0.63859 0.99575 0.47188 0.0
C214 C 0.664 0.05248 0.58405 0.0
C215 C 0.6517 0.03718 0.63414 0.0
C216 C 0.64593 0.0105 0.52824 0.0
C217 C 0.63816 0.0086 0.63012 0.0
C218 C 0.62539 0.96708 0.46924 0.0
C219 C 0.63243 0.99752 0.37008 0.0
N220 N 0.63544 0.99623 0.57816 0.0
N221 N 0.64205 0.00996 0.422 0.0
H222 H 0.67533 0.6056 0.56996 0.0
H223 H 0.59496 0.66752 0.74211 0.0
H224 H 0.61426 0.62024 0.49362 0.0
H225 H 0.64002 0.63439 0.8261 0.0
H226 H 0.61055 0.66029 0.64737 0.0
H227 H 0.67071 0.62544 0.66153 0.0
C228 C 0.66119 0.61317 0.57227 0.0
C229 C 0.64478 0.61073 0.52449 0.0
C230 C 0.61737 0.65502 0.68669 0.0
C231 C 0.63964 0.6337 0.62825 0.0
C232 C 0.60864 0.65937 0.7406 0.0
C233 C 0.61598 0.65124 0.79168 0.0
C234 C 0.63367 0.64271 0.68425 0.0
C235 C 0.63362 0.64059 0.78747 0.0
C236 C 0.65852 0.62446 0.6244 0.0
C237 C 0.6269 0.6211 0.52974 0.0
N238 N 0.64167 0.63641 0.73479 0.0
N239 N 0.62473 0.63196 0.58056 0.0
H240 H 0.04637 0.67784 0.71209 0.0
H241 H 0.96208 0.56022 0.94477 0.0
H242 H 0.04889 0.60348 0.72995 0.0
H243 H 0.97091 0.63982 0.96431 0.0
H244 H 0.99026 0.57575 0.858 0.0
H245 H 0.01811 0.66586 0.80085 0.0
C246 C 0.04177 0.65951 0.73575 0.0
C247 C 0.05005 0.64165 0.71391 0.0
C248 C 0.98596 0.58992 0.88067 0.0
C249 C 0.01706 0.62737 0.81336 0.0
C250 C 0.96952 0.58089 0.92985 0.0
C251 C 0.96408 0.59871 0.96161 0.0
C252 C 0.99743 0.61717 0.86283 0.0
C253 C 0.97438 0.62536 0.94053 0.0
C254 C 0.02531 0.65248 0.78577 0.0
C255 C 0.04297 0.61783 0.74532 0.0
N256 N 0.99085 0.63394 0.89258 0.0
N257 N 0.02675 0.61131 0.79283 0.0
H258 H 0.4088 0.07298 0.90938 0.0
H259 H 0.33745 0.93051 0.08263 0.0
H260 H 0.37623 0.99428 0.82789 0.0
H261 H 0.38423 0.00915 0.16402 0.0
H262 H 0.34301 0.95361 0.98872 0.0
H263 H 0.39144 0.04992 0.00344 0.0
C264 C 0.39767 0.05093 0.91116 0.0
C265 C 0.39441 0.03555 0.86112 0.0
C266 C 0.35179 0.96576 0.0274 0.0
C267 C 0.37449 0.00908 0.96778 0.0
C268 C 0.34849 0.95255 0.08087 0.0
C269 C 0.36083 0.9679 0.13084 0.0
C270 C 0.36723 0.99443 0.02433 0.0
C271 C 0.37488 0.99648 0.12625 0.0
C272 C 0.38786 0.03776 0.96471 0.0
C273 C 0.37973 0.00697 0.86572 0.0
N274 N 0.37786 0.00878 0.07405 0.0
N275 N 0.37053 0.9947 0.91799 0.0
H276 H 0.62616 0.50851 0.4885 0.0
H277 H 0.50018 0.38152 0.34258 0.0
H278 H 0.60237 0.5131 0.31277 0.0
H279 H 0.49473 0.40584 0.51731 0.0
H280 H 0.54403 0.42406 0.33085 0.0
H281 H 0.58374 0.46455 0.50024 0.0
C282 C 0.61211 0.50015 0.45239 0.0
C283 C 0.61756 0.5144 0.39976 0.0
C284 C 0.53317 0.4199 0.37173 0.0
C285 C 0.56979 0.46426 0.41234 0.0
C286 C 0.50832 0.39572 0.37848 0.0
C287 C 0.49387 0.39038 0.43082 0.0
C288 C 0.54388 0.43829 0.41827 0.0
C289 C 0.5052 0.40939 0.47609 0.0
C290 C 0.58799 0.47524 0.45914 0.0
C291 C 0.59873 0.50279 0.35421 0.0
N292 N 0.52969 0.43244 0.46899 0.0
N293 N 0.57575 0.47825 0.36134 0.0
H294 H 0.14728 0.51339 0.55438 0.0
H295 H 0.06023 0.58811 0.53626 0.0
H296 H 0.06192 0.47342 0.59862 0.0
H297 H 0.14547 0.63168 0.58194 0.0
H298 H 0.06087 0.54532 0.54062 0.0
H299 H 0.14737 0.55669 0.5451 0.0
C300 C 0.12853 0.51369 0.56143 0.0
C301 C 0.10457 0.48988 0.57741 0.0
C302 C 0.07941 0.56426 0.54973 0.0
C303 C 0.1045 0.53895 0.56652 0.0
C304 C 0.07909 0.58867 0.54721 0.0
C305 C 0.1028 0.61344 0.55911 0.0
C306 C 0.10376 0.56465 0.56301 0.0
C307 C 0.12669 0.61297 0.57294 0.0
C308 C 0.12865 0.53835 0.55659 0.0
C309 C 0.08085 0.49135 0.58651 0.0
N310 N 0.12664 0.58894 0.57412 0.0
N311 N 0.08138 0.51543 0.58066 0.0
H312 H 0.47328 0.05513 0.7074 0.0
H313 H 0.63457 0.14221 0.72907 0.0
H314 H 0.51417 0.14031 0.75281 0.0
H315 H 0.58959 0.05758 0.77896 0.0
H316 H 0.59127 0.14207 0.71929 0.0
H317 H 0.51665 0.05575 0.71618 0.0
C318 C 0.49139 0.07396 0.71927 0.0
C319 C 0.49017 0.09769 0.72964 0.0
C320 C 0.59099 0.12357 0.73222 0.0
C321 C 0.53983 0.09864 0.73849 0.0
C322 C 0.61559 0.12357 0.73736 0.0
C323 C 0.61559 0.09987 0.75489 0.0
C324 C 0.56631 0.09954 0.74337 0.0
C325 C 0.59048 0.0763 0.76556 0.0
C326 C 0.51608 0.07427 0.72433 0.0
C327 C 0.51426 0.12154 0.7449 0.0
N328 N 0.56683 0.07667 0.75926 0.0
N329 N 0.53822 0.1215 0.74834 0.0
H330 H 0.53633 0.58863 0.94171 0.0
H331 H 0.37474 0.51304 0.93817 0.0
H332 H 0.49364 0.63159 0.89999 0.0
H333 H 0.41905 0.47293 0.88647 0.0
H334 H 0.41798 0.55656 0.94164 0.0
H335 H 0.49313 0.54554 0.93736 0.0
C336 C 0.51785 0.58896 0.93137 0.0
C337 C 0.51851 0.61364 0.92094 0.0
C338 C 0.41813 0.53816 0.92969 0.0
C339 C 0.46904 0.56456 0.9173 0.0
C340 C 0.39358 0.51336 0.92821 0.0
C341 C 0.3934 0.48943 0.91202 0.0
C342 C 0.44261 0.53879 0.91615 0.0
C343 C 0.41831 0.49095 0.899 0.0
C344 C 0.49326 0.5644 0.92889 0.0
C345 C 0.49398 0.61293 0.9078 0.0
N346 N 0.44194 0.51518 0.90171 0.0
N347 N 0.47012 0.58876 0.90698 0.0
H348 H 0.89148 0.38472 0.16722 0.0
H349 H 0.88716 0.50854 0.01886 0.0
H350 H 0.91486 0.40593 0.98807 0.0
H351 H 0.92105 0.51708 0.19046 0.0
H352 H 0.88558 0.46457 0.00896 0.0
H353 H 0.89081 0.42762 0.17915 0.0
C354 C 0.89629 0.39832 0.13047 0.0
C355 C 0.90339 0.39199 0.07672 0.0
C356 C 0.89323 0.47611 0.04879 0.0
C357 C 0.90198 0.44024 0.08958 0.0
C358 C 0.89406 0.50104 0.05452 0.0
C359 C 0.90437 0.51639 0.1054 0.0
C360 C 0.90202 0.46621 0.09494 0.0
C361 C 0.91316 0.50588 0.15036 0.0
C362 C 0.89599 0.4227 0.13732 0.0
C363 C 0.90951 0.41023 0.03035 0.0
N364 N 0.91157 0.48127 0.14432 0.0
N365 N 0.90842 0.43343 0.03766 0.0
H366 H 0.37539 0.86284 0.23747 0.0
H367 H 0.53651 0.94885 0.22187 0.0
H368 H 0.42003 0.94745 0.28737 0.0
H369 H 0.49501 0.86376 0.26835 0.0
H370 H 0.49337 0.94868 0.23038 0.0
H371 H 0.4186 0.86259 0.23212 0.0
C372 C 0.39429 0.88139 0.24682 0.0
C373 C 0.39421 0.90521 0.26288 0.0
C374 C 0.49376 0.9301 0.239 0.0
C375 C 0.44341 0.90509 0.25642 0.0
C376 C 0.51831 0.93016 0.2341 0.0
C377 C 0.51928 0.9063 0.24464 0.0
C378 C 0.46986 0.90584 0.2531 0.0
C379 C 0.49511 0.88262 0.26032 0.0
C380 C 0.41883 0.88116 0.24421 0.0
C381 C 0.4192 0.92864 0.27499 0.0
N382 N 0.47124 0.88288 0.26344 0.0
N383 N 0.44284 0.92807 0.27106 0.0
H384 H 0.29495 0.36679 0.74108 0.0
H385 H 0.36474 0.29454 0.59374 0.0
H386 H 0.34249 0.33634 0.82428 0.0
H387 H 0.34364 0.35047 0.51494 0.0
H388 H 0.33187 0.28603 0.67158 0.0
H389 H 0.28753 0.33663 0.65843 0.0
C390 C 0.30274 0.35282 0.74306 0.0
C391 C 0.32025 0.35465 0.78792 0.0
C392 C 0.33359 0.29927 0.63588 0.0
C393 C 0.31221 0.32068 0.69424 0.0
C394 C 0.35235 0.30413 0.5916 0.0
C395 C 0.35752 0.32406 0.5497 0.0
C396 C 0.32033 0.31462 0.63781 0.0
C397 C 0.34081 0.33571 0.54806 0.0
C398 C 0.29854 0.33564 0.69596 0.0
C399 C 0.32965 0.33605 0.78913 0.0
N400 N 0.32334 0.33129 0.59239 0.0
N401 N 0.32608 0.32024 0.74211 0.0
H402 H 0.00742 0.34489 0.98549 0.0
H403 H 0.99946 0.33803 0.66321 0.0
H404 H 0.93212 0.29878 0.89187 0.0
H405 H 0.07445 0.36699 0.75798 0.0
H406 H 0.9748 0.30715 0.74282 0.0
H407 H 0.03148 0.33652 0.90782 0.0
C408 C 0.99588 0.33225 0.94911 0.0
C409 C 0.96806 0.32328 0.9436 0.0
C410 C 0.99676 0.31951 0.7458 0.0
C411 C 0.99546 0.31473 0.85341 0.0
C412 C 0.01081 0.33714 0.70022 0.0
C413 C 0.03874 0.35563 0.70546 0.0
C414 C 0.01066 0.32152 0.79777 0.0
C415 C 0.05273 0.35341 0.75327 0.0
C416 C 0.00957 0.3274 0.9047 0.0
C417 C 0.95378 0.30655 0.8967 0.0
N418 N 0.03837 0.33735 0.79876 0.0
N419 N 0.96782 0.30357 0.85218 0.0
H420 H 0.67255 0.0078 0.15947 0.0
H421 H 0.66402 0.996 0.84042 0.0
H422 H 0.64226 0.93155 0.0692 0.0
H423 H 0.71243 0.07211 0.92975 0.0
H424 H 0.67308 0.97248 0.91807 0.0
H425 H 0.70417 0.03094 0.08 0.0
C426 C 0.67328 0.99584 0.12351 0.0
C427 C 0.6542 0.96805 0.11929 0.0
C428 C 0.68255 0.99444 0.9202 0.0
C429 C 0.68911 0.9944 0.02702 0.0
C430 C 0.67728 0.00782 0.8758 0.0
C431 C 0.6866 0.03573 0.88036 0.0
C432 C 0.69595 0.00896 0.97059 0.0
C433 C 0.70426 0.05036 0.92581 0.0
C434 C 0.69135 0.00901 0.07802 0.0
C435 C 0.65626 0.95323 0.07296 0.0
N436 N 0.7076 0.03664 0.97048 0.0
N437 N 0.67272 0.96677 0.02734 0.0
H438 H 0.67307 0.66737 0.0025 0.0
H439 H 0.65743 0.66501 0.31865 0.0
H440 H 0.64106 0.7125 0.09011 0.0
H441 H 0.71187 0.64322 0.23505 0.0
H442 H 0.66673 0.69839 0.24265 0.0
H443 H 0.70325 0.67522 0.08439 0.0
C444 C 0.67318 0.67981 0.03835 0.0
C445 C 0.65396 0.6884 0.04107 0.0
C446 C 0.67744 0.68705 0.24151 0.0
C447 C 0.68718 0.69621 0.13604 0.0
C448 C 0.67199 0.6679 0.28492 0.0
C449 C 0.6831 0.65077 0.28139 0.0
C450 C 0.69289 0.68787 0.19294 0.0
C451 C 0.70236 0.65566 0.2381 0.0
C452 C 0.69042 0.68434 0.08526 0.0
C453 C 0.65519 0.70493 0.08743 0.0
N454 N 0.70594 0.67315 0.19416 0.0
N455 N 0.67081 0.70746 0.13436 0.0
H456 H 0.07501 0.71465 0.42201 0.0
H457 H 0.93741 0.64606 0.25327 0.0
H458 H 0.99519 0.66059 0.49206 0.0
H459 H 0.01677 0.66753 0.18656 0.0
H460 H 0.95924 0.67655 0.33588 0.0
H461 H 0.05374 0.72267 0.33753 0.0
C462 C 0.05304 0.70554 0.42099 0.0
C463 C 0.03668 0.68612 0.46256 0.0
C464 C 0.97187 0.67552 0.30174 0.0
C465 C 0.01246 0.69504 0.36666 0.0
C466 C 0.95945 0.65814 0.25465 0.0
C467 C 0.97543 0.65366 0.21461 0.0
C468 C 1.00029 0.68828 0.30818 0.0
C469 C 1.00382 0.66988 0.21787 0.0
C470 C 0.04093 0.71008 0.37274 0.0
C471 C 0.0084 0.67502 0.45964 0.0
N472 N 0.0154 0.68608 0.26474 0.0
N473 N 0.99709 0.67911 0.41156 0.0
H474 H 0.29299 0.93157 0.41824 0.0
H475 H 0.36244 0.07107 0.57384 0.0
H476 H 0.34604 0.01042 0.34308 0.0
H477 H 0.33708 0.99233 0.64901 0.0
H478 H 0.33078 0.04872 0.49324 0.0
H479 H 0.28354 0.95377 0.49899 0.0
C480 C 0.30165 0.95348 0.41744 0.0
C481 C 0.32121 0.96943 0.37578 0.0
C482 C 0.33123 0.03641 0.52877 0.0
C483 C 0.31074 0.99471 0.46731 0.0
C484 C 0.34929 0.04915 0.57468 0.0
C485 C 0.35304 0.03329 0.61629 0.0
C486 C 0.31728 0.00783 0.52489 0.0
C487 C 0.33538 0.00509 0.61617 0.0
C488 C 0.29625 0.96613 0.46343 0.0
C489 C 0.33163 0.99761 0.37594 0.0
N490 N 0.31867 0.99313 0.57021 0.0
N491 N 0.32678 0.00948 0.42197 0.0
H492 H 0.42497 0.2813 0.59998 0.0
H493 H 0.42534 0.14275 0.5612 0.0
H494 H 0.40863 0.24054 0.43436 0.0
H495 H 0.40786 0.16684 0.72609 0.0
H496 H 0.4223 0.17973 0.51397 0.0
H497 H 0.4217 0.24114 0.6468 0.0
C498 C 0.42064 0.26383 0.57338 0.0
C499 C 0.41725 0.26435 0.513 0.0
C500 C 0.41895 0.17685 0.56039 0.0
C501 C 0.41373 0.21826 0.56663 0.0
C502 C 0.42085 0.15584 0.58756 0.0
C503 C 0.41704 0.1518 0.64788 0.0
C504 C 0.41372 0.19441 0.59378 0.0
C505 C 0.41098 0.16924 0.67958 0.0
C506 C 0.41863 0.24085 0.60031 0.0
C507 C 0.41139 0.24101 0.48096 0.0
N508 N 0.40984 0.19 0.65225 0.0
N509 N 0.41017 0.21901 0.50808 0.0
H510 H 0.2903 0.46427 0.80553 0.0
H511 H 0.14844 0.37976 0.64642 0.0
H512 H 0.23896 0.37916 0.84593 0.0
H513 H 0.17736 0.46167 0.70687 0.0
H514 H 0.18515 0.37875 0.70237 0.0
H515 H 0.25243 0.46355 0.75285 0.0
C516 C 0.27091 0.44547 0.80368 0.0
C517 C 0.26758 0.42183 0.83067 0.0
C518 C 0.18336 0.39689 0.70308 0.0
C519 C 0.2245 0.42062 0.76865 0.0
C520 C 0.16269 0.39759 0.67079 0.0
C521 C 0.15999 0.42088 0.67193 0.0
C522 C 0.20175 0.4199 0.73519 0.0
C523 C 0.17873 0.44332 0.70482 0.0
C524 C 0.24937 0.44507 0.77354 0.0
C525 C 0.24214 0.39791 0.82646 0.0
N526 N 0.19893 0.44237 0.73461 0.0
N527 N 0.22157 0.39779 0.79528 0.0
H528 H 0.82536 0.28683 0.98019 0.0
H529 H 0.77084 0.14632 0.81581 0.0
H530 H 0.8646 0.23935 0.00731 0.0
H531 H 0.71695 0.17299 0.88256 0.0
H532 H 0.80876 0.18358 0.87023 0.0
H533 H 0.78815 0.24821 0.92965 0.0
C534 C 0.82593 0.26808 0.97603 0.0
C535 C 0.84783 0.26609 -0.00142 0.0
C536 C 0.78859 0.18116 0.87268 0.0
C537 C 0.8058 0.22214 0.93887 0.0
C538 C 0.76709 0.16018 0.84125 0.0
C539 C 0.74079 0.15668 0.84457 0.0
C540 C 0.78373 0.19903 0.90624 0.0
C541 C 0.7369 0.17495 0.87879 0.0
C542 C 0.80476 0.24612 0.94705 0.0
C543 C 0.84779 0.24147 0.99137 0.0
N544 N 0.75812 0.19541 0.90779 0.0
N545 N 0.82721 0.22047 0.96139 0.0
H546 H 0.62901 0.86102 0.1811 0.0
H547 H 0.54372 0.71603 0.03451 0.0
H548 H 0.54519 0.82883 0.13066 0.0
H549 H 0.6271 0.76898 0.98248 0.0
H550 H 0.54464 0.75388 0.08761 0.0
H551 H 0.62967 0.82376 0.12672 0.0
C552 C 0.61069 0.84589 0.15943 0.0
C553 C 0.58695 0.84784 0.16052 0.0
C554 C 0.56269 0.75726 0.06435 0.0
C555 C 0.58755 0.80549 0.09901 0.0
C556 C 0.56218 0.73574 0.03398 0.0
C557 C 0.58527 0.73952 0.00355 0.0
C558 C 0.58674 0.78263 0.06594 0.0
C559 C 0.60875 0.7654 0.0047 0.0
C560 C 0.61117 0.82492 0.12798 0.0
C561 C 0.56387 0.82801 0.13095 0.0
N562 N 0.60903 0.78599 0.03607 0.0
N563 N 0.56466 0.80757 0.10191 0.0
H564 H 0.76807 0.60369 0.39858 0.0
H565 H 0.84077 0.6019 0.10002 0.0
H566 H 0.72701 0.58299 0.23294 0.0
H567 H 0.86662 0.58952 0.26793 0.0
H568 H 0.80328 0.6046 0.14772 0.0
H569 H 0.80894 0.60797 0.35069 0.0
C570 C 0.76772 0.60025 0.35222 0.0
C571 C 0.74403 0.59267 0.31985 0.0
C572 C 0.81732 0.60147 0.17401 0.0
C573 C 0.79061 0.59793 0.26478 0.0
C574 C 0.83873 0.60004 0.14683 0.0
C575 C 0.85663 0.59519 0.17996 0.0
C576 C 0.81417 0.59854 0.23475 0.0
C577 C 0.85306 0.59294 0.2406 0.0
C578 C 0.79096 0.60263 0.32494 0.0
C579 C 0.74471 0.58852 0.25977 0.0
N580 N 0.8323 0.59463 0.266 0.0
N581 N 0.76756 0.59123 0.23422 0.0
H582 H 0.17248 0.76385 0.56591 0.0
H583 H 0.24238 0.83702 0.26462 0.0
H584 H 0.14481 0.72492 0.39919 0.0
H585 H 0.28456 0.85913 0.42898 0.0
H586 H 0.20243 0.79993 0.3138 0.0
H587 H 0.20992 0.80345 0.51675 0.0
C588 C 0.17416 0.76372 0.51905 0.0
C589 C 0.15566 0.74098 0.48669 0.0
C590 C 0.22046 0.81301 0.33897 0.0
C591 C 0.19813 0.78616 0.43019 0.0
C592 C 0.24319 0.83417 0.31095 0.0
C593 C 0.26691 0.85102 0.34259 0.0
C594 C 0.22133 0.80905 0.39916 0.0
C595 C 0.26682 0.84645 0.40268 0.0
C596 C 0.19554 0.78624 0.49103 0.0
C597 C 0.15879 0.7419 0.42595 0.0
N598 N 0.24443 0.826 0.42896 0.0
N599 N 0.17954 0.76408 0.39971 0.0
loop_
_geom_bond_atom_site_label_1
_geom_bond_atom_site_label_2
_geom_bond_distance
_geom_bond_site_symmetry_2
_ccdc_geom_bond_type
Co0 O1 2.216 . S
Co0 O2 2.091 . S
Co0 O4 2.004 . S
Co0 O10 2.021 . S
Co0 O12 2.137 . S
Co0 O13 2.244 . S
O1 Co0 2.216 . S
O1 C8 1.247 . S
O2 Co0 2.091 . S
O2 C8 1.261 . S
C3 O12 1.247 . S
C3 O13 1.272 . S
O4 Co0 2.004 . S
O4 C9 1.259 . S
Co5 O6 2.061 . S
Co5 O11 2.052 . S
Co5 O13 2.135 . S
O6 Co5 2.061 . S
O6 C9 1.235 . S
C7 O10 1.238 . S
C7 O11 1.241 . S
C8 O1 1.247 . S
C8 O2 1.261 . S
C9 O4 1.259 . S
C9 O6 1.235 . S
O10 Co0 2.021 . S
O10 C7 1.238 . S
O11 Co5 2.052 . S
O11 C7 1.241 . S
O12 Co0 2.137 . S
O12 C3 1.247 . S
O13 Co0 2.244 . S
O13 C3 1.272 . S
O13 Co5 2.135 . S
Co14 O15 2.216 . S
Co14 O16 2.091 . S
Co14 O18 2.004 . S
Co14 O24 2.021 . S
Co14 O26 2.137 . S
Co14 O27 2.244 . S
O15 Co14 2.216 . S
O15 C22 1.247 . S
O16 Co14 2.091 . S
O16 C22 1.261 . S
C17 O26 1.247 . S
C17 O27 1.272 . S
O18 Co14 2.004 . S
O18 C23 1.259 . S
Co19 O20 2.061 . S
Co19 O25 2.052 . S
Co19 O27 2.135 . S
O20 Co19 2.061 . S
O20 C23 1.235 . S
C21 O24 1.238 . S
C21 O25 1.241 . S
C22 O15 1.247 . S
C22 O16 1.261 . S
C23 O18 1.259 . S
C23 O20 1.235 . S
O24 Co14 2.021 . S
O24 C21 1.238 . S
O25 Co19 2.052 . S
O25 C21 1.241 . S
O26 Co14 2.137 . S
O26 C17 1.247 . S
O27 Co14 2.244 . S
O27 C17 1.272 . S
O27 Co19 2.135 . S
Co28 O29 2.216 . S
Co28 O30 2.091 . S
Co28 O32 2.004 . S
Co28 O38 2.021 . S
Co28 O40 2.137 . S
Co28 O41 2.244 . S
O29 Co28 2.216 . S
O29 C36 1.247 . S
O30 Co28 2.091 . S
O30 C36 1.261 . S
C31 O40 1.247 . S
C31 O41 1.272 . S
O32 Co28 2.004 . S
O32 C37 1.259 . S
Co33 O34 2.061 . S
Co33 O39 2.052 . S
Co33 O41 2.135 . S
O34 Co33 2.061 . S
O34 C37 1.235 . S
C35 O38 1.238 . S
C35 O39 1.241 . S
C36 O29 1.247 . S
C36 O30 1.261 . S
C37 O32 1.259 . S
C37 O34 1.235 . S
O38 Co28 2.021 . S
O38 C35 1.238 . S
O39 Co33 2.052 . S
O39 C35 1.241 . S
O40 Co28 2.137 . S
O40 C31 1.247 . S
O41 Co28 2.244 . S
O41 C31 1.272 . S
O41 Co33 2.135 . S
Co42 O43 2.216 . S
Co42 O44 2.091 . S
Co42 O46 2.004 . S
Co42 O52 2.021 . S
Co42 O54 2.137 . S
Co42 O55 2.244 . S
O43 Co42 2.216 . S
O43 C50 1.247 . S
O44 Co42 2.091 . S
O44 C50 1.261 . S
C45 O54 1.247 . S
C45 O55 1.272 . S
O46 Co42 2.004 . S
O46 C51 1.259 . S
Co47 O48 2.061 . S
Co47 O53 2.052 1_556 S
Co47 O55 2.135 . S
O48 Co47 2.061 . S
O48 C51 1.235 . S
C49 O52 1.238 1_554 S
C49 O53 1.241 . S
C50 O43 1.247 . S
C50 O44 1.261 . S
C51 O46 1.259 . S
C51 O48 1.235 . S
O52 Co42 2.021 . S
O52 C49 1.238 1_556 S
O53 Co47 2.052 1_554 S
O53 C49 1.241 . S
O54 Co42 2.137 . S
O54 C45 1.247 . S
O55 Co42 2.244 . S
O55 C45 1.272 . S
O55 Co47 2.135 . S
Co56 O57 2.216 . S
Co56 O58 2.091 . S
Co56 O60 2.004 . S
Co56 O66 2.021 . S
Co56 O68 2.137 . S
Co56 O69 2.244 . S
O57 Co56 2.216 . S
O57 C64 1.247 . S
O58 Co56 2.091 . S
O58 C64 1.261 . S
C59 O68 1.247 . S
C59 O69 1.272 . S
O60 Co56 2.004 . S
O60 C65 1.259 . S
Co61 O62 2.061 . S
Co61 O67 2.052 . S
Co61 O69 2.135 . S
O62 Co61 2.061 . S
O62 C65 1.235 . S
C63 O66 1.238 . S
C63 O67 1.241 . S
C64 O57 1.247 . S
C64 O58 1.261 . S
C65 O60 1.259 . S
C65 O62 1.235 . S
O66 Co56 2.021 . S
O66 C63 1.238 . S
O67 Co61 2.052 . S
O67 C63 1.241 . S
O68 Co56 2.137 . S
O68 C59 1.247 . S
O69 Co56 2.244 . S
O69 C59 1.272 . S
O69 Co61 2.135 . S
Co70 O71 2.216 . S
Co70 O72 2.091 . S
Co70 O74 2.004 . S
Co70 O80 2.021 . S
Co70 O82 2.137 . S
Co70 O83 2.244 . S
O71 Co70 2.216 . S
O71 C78 1.247 . S
O72 Co70 2.091 . S
O72 C78 1.261 . S
C73 O82 1.247 . S
C73 O83 1.272 . S
O74 Co70 2.004 . S
O74 C79 1.259 . S
Co75 O76 2.061 . S
Co75 O81 2.052 . S
Co75 O83 2.135 . S
O76 Co75 2.061 . S
O76 C79 1.235 . S
C77 O80 1.238 . S
C77 O81 1.241 . S
C78 O71 1.247 . S
C78 O72 1.261 . S
C79 O74 1.259 . S
C79 O76 1.235 . S
O80 Co70 2.021 . S
O80 C77 1.238 . S
O81 Co75 2.052 . S
O81 C77 1.241 . S
O82 Co70 2.137 . S
O82 C73 1.247 . S
O83 Co70 2.244 . S
O83 C73 1.272 . S
O83 Co75 2.135 . S
Co84 O85 2.216 . S
Co84 O86 2.091 . S
Co84 O88 2.004 . S
Co84 O94 2.021 . S
Co84 O96 2.137 . S
Co84 O97 2.244 . S
O85 Co84 2.216 . S
O85 C92 1.247 . S
O86 Co84 2.091 . S
O86 C92 1.261 . S
C87 O96 1.247 . S
C87 O97 1.272 . S
O88 Co84 2.004 . S
O88 C93 1.259 . S
Co89 O90 2.061 . S
Co89 O95 2.052 . S
Co89 O97 2.135 . S
O90 Co89 2.061 . S
O90 C93 1.235 . S
C91 O94 1.238 . S
C91 O95 1.241 . S
C92 O85 1.247 . S
C92 O86 1.261 . S
C93 O88 1.259 . S
C93 O90 1.235 . S
O94 Co84 2.021 . S
O94 C91 1.238 . S
O95 Co89 2.052 . S
O95 C91 1.241 . S
O96 Co84 2.137 . S
O96 C87 1.247 . S
O97 Co84 2.244 . S
O97 C87 1.272 . S
O97 Co89 2.135 . S
Co98 O99 2.216 . S
Co98 O100 2.091 . S
Co98 O102 2.004 . S
Co98 O108 2.021 . S
Co98 O110 2.137 . S
Co98 O111 2.244 . S
O99 Co98 2.216 . S
O99 C106 1.247 . S
O100 Co98 2.091 . S
O100 C106 1.261 . S
C101 O110 1.247 . S
C101 O111 1.272 . S
O102 Co98 2.004 . S
O102 C107 1.259 . S
Co103 O104 2.061 . S
Co103 O109 2.052 . S
Co103 O111 2.135 . S
O104 Co103 2.061 . S
O104 C107 1.235 . S
C105 O108 1.238 . S
C105 O109 1.241 . S
C106 O99 1.247 . S
C106 O100 1.261 . S
C107 O102 1.259 . S
C107 O104 1.235 . S
O108 Co98 2.021 . S
O108 C105 1.238 . S
O109 Co103 2.052 . S
O109 C105 1.241 . S
O110 Co98 2.137 . S
O110 C101 1.247 . S
O111 Co98 2.244 . S
O111 C101 1.272 . S
O111 Co103 2.135 . S
Co112 O113 2.216 . S
Co112 O114 2.091 . S
Co112 O116 2.004 . S
Co112 O122 2.021 . S
Co112 O124 2.137 . S
Co112 O125 2.244 . S
O113 Co112 2.216 . S
O113 C120 1.247 . S
O114 Co112 2.091 . S
O114 C120 1.261 . S
C115 O124 1.247 . S
C115 O125 1.272 . S
O116 Co112 2.004 . S
O116 C121 1.259 . S
Co117 O118 2.061 . S
Co117 O123 2.052 . S
Co117 O125 2.135 . S
O118 Co117 2.061 . S
O118 C121 1.235 . S
C119 O122 1.238 . S
C119 O123 1.241 . S
C120 O113 1.247 . S
C120 O114 1.261 . S
C121 O116 1.259 . S
C121 O118 1.235 . S
O122 Co112 2.021 . S
O122 C119 1.238 . S
O123 Co117 2.052 . S
O123 C119 1.241 . S
O124 Co112 2.137 . S
O124 C115 1.247 . S
O125 Co112 2.244 . S
O125 C115 1.272 . S
O125 Co117 2.135 . S
Co126 O127 2.216 . S
Co126 O128 2.091 . S
Co126 O130 2.004 . S
Co126 O136 2.021 . S
Co126 O138 2.137 . S
Co126 O139 2.244 . S
O127 Co126 2.216 . S
O127 C134 1.247 . S
O128 Co126 2.091 . S
O128 C134 1.261 . S
C129 O138 1.247 . S
C129 O139 1.272 . S
O130 Co126 2.004 . S
O130 C135 1.259 . S
Co131 O132 2.061 . S
Co131 O137 2.052 . S
Co131 O139 2.135 . S
O132 Co131 2.061 . S
O132 C135 1.235 . S
C133 O136 1.238 . S
C133 O137 1.241 . S
C134 O127 1.247 . S
C134 O128 1.261 . S
C135 O130 1.259 . S
C135 O132 1.235 . S
O136 Co126 2.021 . S
O136 C133 1.238 . S
O137 Co131 2.052 . S
O137 C133 1.241 . S
O138 Co126 2.137 . S
O138 C129 1.247 . S
O139 Co126 2.244 . S
O139 C129 1.272 . S
O139 Co131 2.135 . S
Co140 O141 2.216 . S
Co140 O142 2.091 . S
Co140 O144 2.004 . S
Co140 O150 2.021 . S
Co140 O152 2.137 . S
Co140 O153 2.244 . S
O141 Co140 2.216 . S
O141 C148 1.247 . S
O142 Co140 2.091 . S
O142 C148 1.261 . S
C143 O152 1.247 . S
C143 O153 1.272 . S
O144 Co140 2.004 . S
O144 C149 1.259 . S
Co145 O146 2.061 . S
Co145 O151 2.052 1_554 S
Co145 O153 2.135 . S
O146 Co145 2.061 . S
O146 C149 1.235 . S
C147 O150 1.238 1_556 S
C147 O151 1.241 . S
C148 O141 1.247 . S
C148 O142 1.261 . S
C149 O144 1.259 . S
C149 O146 1.235 . S
O150 Co140 2.021 . S
O150 C147 1.238 1_554 S
O151 Co145 2.052 1_556 S
O151 C147 1.241 . S
O152 Co140 2.137 . S
O152 C143 1.247 . S
O153 Co140 2.244 . S
O153 C143 1.272 . S
O153 Co145 2.135 . S
Co154 O155 2.216 . S
Co154 O156 2.091 . S
Co154 O158 2.004 . S
Co154 O164 2.021 . S
Co154 O166 2.137 . S
Co154 O167 2.244 . S
O155 Co154 2.216 . S
O155 C162 1.247 . S
O156 Co154 2.091 . S
O156 C162 1.261 . S
C157 O166 1.247 . S
C157 O167 1.272 . S
O158 Co154 2.004 . S
O158 C163 1.259 . S
Co159 O160 2.061 . S
Co159 O165 2.052 . S
Co159 O167 2.135 . S
O160 Co159 2.061 . S
O160 C163 1.235 . S
C161 O164 1.238 . S
C161 O165 1.241 . S
C162 O155 1.247 . S
C162 O156 1.261 . S
C163 O158 1.259 . S
C163 O160 1.235 . S
O164 Co154 2.021 . S
O164 C161 1.238 . S
O165 Co159 2.052 . S
O165 C161 1.241 . S
O166 Co154 2.137 . S
O166 C157 1.247 . S
O167 Co154 2.244 . S
O167 C157 1.272 . S
O167 Co159 2.135 . S
H168 C174 0.930 . S
H169 C178 0.930 . S
H170 C183 0.929 . S
H171 C181 0.929 . S
H172 C176 0.929 . S
H173 C182 0.929 . S
C174 H168 0.930 . S
C174 C175 1.367 . S
C174 C182 1.378 . S
C175 C174 1.367 . S
C175 C183 1.433 . S
C176 H172 0.929 . S
C176 C178 1.378 . S
C176 C180 1.350 . S
C177 C180 1.463 . S
C177 C182 1.350 . S
C177 N185 1.427 . S
C178 H169 0.930 . S
C178 C176 1.378 . S
C178 C179 1.367 . S
C179 C178 1.367 . S
C179 C181 1.433 . S
C180 C176 1.350 . S
C180 C177 1.463 . S
C180 N184 1.427 . S
C181 H171 0.929 . S
C181 C179 1.433 . S
C181 N184 1.384 . S
C182 H173 0.929 . S
C182 C174 1.378 . S
C182 C177 1.350 . S
C183 H170 0.929 . S
C183 C175 1.433 . S
C183 N185 1.384 . S
N184 C180 1.427 . S
N184 C181 1.384 . S
N185 C177 1.427 . S
N185 C183 1.384 . S
H186 C192 0.930 . S
H187 C196 0.930 . S
H188 C201 0.929 . S
H189 C199 0.929 . S
H190 C194 0.929 . S
H191 C200 0.929 . S
C192 H186 0.930 . S
C192 C193 1.367 . S
C192 C200 1.378 . S
C193 C192 1.367 . S
C193 C201 1.433 . S
C194 H190 0.929 . S
C194 C196 1.378 . S
C194 C198 1.350 . S
C195 C198 1.463 1_455 S
C195 C200 1.350 . S
C195 N203 1.423 1_455 S
C196 H187 0.930 . S
C196 C194 1.378 . S
C196 C197 1.367 . S
C197 C196 1.367 . S
C197 C199 1.433 . S
C198 C194 1.350 . S
C198 C195 1.463 1_655 S
C198 N202 1.423 1_655 S
C199 H189 0.929 . S
C199 C197 1.433 . S
C199 N202 1.377 1_655 S
C200 H191 0.929 . S
C200 C192 1.378 . S
C200 C195 1.350 . S
C201 H188 0.929 . S
C201 C193 1.433 . S
C201 N203 1.377 1_455 S
N202 C198 1.423 1_455 S
N202 C199 1.377 1_455 S
N203 C195 1.423 1_655 S
N203 C201 1.377 1_655 S
H204 C210 0.930 . S
H205 C214 0.930 . S
H206 C219 0.929 . S
H207 C217 0.929 . S
H208 C212 0.929 . S
H209 C218 0.929 . S
C210 H204 0.930 . S
C210 C211 1.367 . S
C210 C218 1.378 . S
C211 C210 1.367 . S
C211 C219 1.433 . S
C212 H208 0.929 . S
C212 C214 1.378 . S
C212 C216 1.350 . S
C213 C216 1.463 1_565 S
C213 C218 1.350 . S
C213 N221 1.427 . S
C214 H205 0.930 . S
C214 C212 1.378 . S
C214 C215 1.367 . S
C215 C214 1.367 . S
C215 C217 1.433 . S
C216 C212 1.350 . S
C216 C213 1.463 1_545 S
C216 N220 1.427 . S
C217 H207 0.929 . S
C217 C215 1.433 . S
C217 N220 1.384 . S
C218 H209 0.929 . S
C218 C210 1.378 . S
C218 C213 1.350 . S
C219 H206 0.929 . S
C219 C211 1.433 . S
C219 N221 1.384 . S
N220 C216 1.427 . S
N220 C217 1.384 . S
N221 C213 1.427 . S
N221 C219 1.384 . S
H222 C228 0.930 . S
H223 C232 0.930 . S
H224 C237 0.929 . S
H225 C235 0.929 . S
H226 C230 0.929 . S
H227 C236 0.929 . S
C228 H222 0.930 . S
C228 C229 1.367 . S
C228 C236 1.378 . S
C229 C228 1.367 . S
C229 C237 1.433 . S
C230 H226 0.929 . S
C230 C232 1.378 . S
C230 C234 1.350 . S
C231 C234 1.463 . S
C231 C236 1.350 . S
C231 N239 1.427 . S
C232 H223 0.930 . S
C232 C230 1.378 . S
C232 C233 1.367 . S
C233 C232 1.367 . S
C233 C235 1.433 . S
C234 C230 1.350 . S
C234 C231 1.463 . S
C234 N238 1.427 . S
C235 H225 0.929 . S
C235 C233 1.433 . S
C235 N238 1.384 . S
C236 H227 0.929 . S
C236 C228 1.378 . S
C236 C231 1.350 . S
C237 H224 0.929 . S
C237 C229 1.433 . S
C237 N239 1.384 . S
N238 C234 1.427 . S
N238 C235 1.384 . S
N239 C231 1.427 . S
N239 C237 1.384 . S
H240 C246 0.930 . S
H241 C250 0.930 . S
H242 C255 0.929 . S
H243 C253 0.929 . S
H244 C248 0.929 . S
H245 C254 0.929 . S
C246 H240 0.930 . S
C246 C247 1.367 . S
C246 C254 1.378 . S
C247 C246 1.367 . S
C247 C255 1.433 . S
C248 H244 0.929 . S
C248 C250 1.378 . S
C248 C252 1.350 . S
C249 C252 1.463 1_455 S
C249 C254 1.350 . S
C249 N257 1.427 . S
C250 H241 0.930 . S
C250 C248 1.378 . S
C250 C251 1.367 . S
C251 C250 1.367 . S
C251 C253 1.433 . S
C252 C248 1.350 . S
C252 C249 1.463 1_655 S
C252 N256 1.427 . S
C253 H243 0.929 . S
C253 C251 1.433 . S
C253 N256 1.384 . S
C254 H245 0.929 . S
C254 C246 1.378 . S
C254 C249 1.350 . S
C255 H242 0.929 . S
C255 C247 1.433 . S
C255 N257 1.384 . S
N256 C252 1.427 . S
N256 C253 1.384 . S
N257 C249 1.427 . S
N257 C255 1.384 . S
H258 C264 0.930 . S
H259 C268 0.930 . S
H260 C273 0.929 . S
H261 C271 0.929 . S
H262 C266 0.929 1_556 S
H263 C272 0.929 1_554 S
C264 H258 0.930 . S
C264 C265 1.367 . S
C264 C272 1.378 . S
C265 C264 1.367 . S
C265 C273 1.433 . S
C266 H262 0.929 1_554 S
C266 C268 1.378 . S
C266 C270 1.350 . S
C267 C270 1.463 1_546 S
C267 C272 1.350 . S
C267 N275 1.427 . S
C268 H259 0.930 . S
C268 C266 1.378 . S
C268 C269 1.367 . S
C269 C268 1.367 . S
C269 C271 1.433 . S
C270 C266 1.350 . S
C270 C267 1.463 1_564 S
C270 N274 1.427 . S
C271 H261 0.929 . S
C271 C269 1.433 . S
C271 N274 1.384 . S
C272 H263 0.929 1_556 S
C272 C264 1.378 . S
C272 C267 1.350 . S
C273 H260 0.929 . S
C273 C265 1.433 . S
C273 N275 1.384 . S
N274 C270 1.427 . S
N274 C271 1.384 . S
N275 C267 1.427 . S
N275 C273 1.384 . S
H276 C282 0.930 . S
H277 C286 0.930 . S
H278 C291 0.929 . S
H279 C289 0.929 . S
H280 C284 0.929 . S
H281 C290 0.929 . S
C282 H276 0.930 . S
C282 C283 1.367 . S
C282 C290 1.378 . S
C283 C282 1.367 . S
C283 C291 1.433 . S
C284 H280 0.929 . S
C284 C286 1.378 . S
C284 C288 1.350 . S
C285 C288 1.463 . S
C285 C290 1.350 . S
C285 N293 1.427 . S
C286 H277 0.930 . S
C286 C284 1.378 . S
C286 C287 1.367 . S
C287 C286 1.367 . S
C287 C289 1.433 . S
C288 C284 1.350 . S
C288 C285 1.463 . S
C288 N292 1.427 . S
C289 H279 0.929 . S
C289 C287 1.433 . S
C289 N292 1.384 . S
C290 H281 0.929 . S
C290 C282 1.378 . S
C290 C285 1.350 . S
C291 H278 0.929 . S
C291 C283 1.433 . S
C291 N293 1.384 . S
N292 C288 1.427 . S
N292 C289 1.384 . S
N293 C285 1.427 . S
N293 C291 1.384 . S
H294 C300 0.930 . S
H295 C304 0.930 . S
H296 C309 0.929 . S
H297 C307 0.929 . S
H298 C302 0.929 . S
H299 C308 0.929 . S
C300 H294 0.930 . S
C300 C301 1.367 . S
C300 C308 1.378 . S
C301 C300 1.367 . S
C301 C309 1.433 . S
C302 H298 0.929 . S
C302 C304 1.378 . S
C302 C306 1.350 . S
C303 C306 1.463 . S
C303 C308 1.350 . S
C303 N311 1.427 . S
C304 H295 0.930 . S
C304 C302 1.378 . S
C304 C305 1.367 . S
C305 C304 1.367 . S
C305 C307 1.433 . S
C306 C302 1.350 . S
C306 C303 1.463 . S
C306 N310 1.427 . S
C307 H297 0.929 . S
C307 C305 1.433 . S
C307 N310 1.384 . S
C308 H299 0.929 . S
C308 C300 1.378 . S
C308 C303 1.350 . S
C309 H296 0.929 . S
C309 C301 1.433 . S
C309 N311 1.384 . S
N310 C306 1.427 . S
N310 C307 1.384 . S
N311 C303 1.427 . S
N311 C309 1.384 . S
H312 C318 0.930 . S
H313 C322 0.930 . S
H314 C327 0.929 . S
H315 C325 0.929 . S
H316 C320 0.929 . S
H317 C326 0.929 . S
C318 H312 0.930 . S
C318 C319 1.367 . S
C318 C326 1.378 . S
C319 C318 1.367 . S
C319 C327 1.433 . S
C320 H316 0.929 . S
C320 C322 1.378 . S
C320 C324 1.350 . S
C321 C324 1.463 . S
C321 C326 1.350 . S
C321 N329 1.427 . S
C322 H313 0.930 . S
C322 C320 1.378 . S
C322 C323 1.367 . S
C323 C322 1.367 . S
C323 C325 1.433 . S
C324 C320 1.350 . S
C324 C321 1.463 . S
C324 N328 1.427 . S
C325 H315 0.929 . S
C325 C323 1.433 . S
C325 N328 1.384 . S
C326 H317 0.929 . S
C326 C318 1.378 . S
C326 C321 1.350 . S
C327 H314 0.929 . S
C327 C319 1.433 . S
C327 N329 1.384 . S
N328 C324 1.427 . S
N328 C325 1.384 . S
N329 C321 1.427 . S
N329 C327 1.384 . S
H330 C336 0.930 . S
H331 C340 0.930 . S
H332 C345 0.929 . S
H333 C343 0.929 . S
H334 C338 0.929 . S
H335 C344 0.929 . S
C336 H330 0.930 . S
C336 C337 1.367 . S
C336 C344 1.378 . S
C337 C336 1.367 . S
C337 C345 1.433 . S
C338 H334 0.929 . S
C338 C340 1.378 . S
C338 C342 1.350 . S
C339 C342 1.463 . S
C339 C344 1.350 . S
C339 N347 1.427 . S
C340 H331 0.930 . S
C340 C338 1.378 . S
C340 C341 1.367 . S
C341 C340 1.367 . S
C341 C343 1.433 . S
C342 C338 1.350 . S
C342 C339 1.463 . S
C342 N346 1.427 . S
C343 H333 0.929 . S
C343 C341 1.433 . S
C343 N346 1.384 . S
C344 H335 0.929 . S
C344 C336 1.378 . S
C344 C339 1.350 . S
C345 H332 0.929 . S
C345 C337 1.433 . S
C345 N347 1.384 . S
N346 C342 1.427 . S
N346 C343 1.384 . S
N347 C339 1.427 . S
N347 C345 1.384 . S
H348 C354 0.930 . S
H349 C358 0.930 1_556 S
H350 C363 0.929 . S
H351 C361 0.929 . S
H352 C356 0.929 1_556 S
H353 C362 0.929 . S
C354 H348 0.930 . S
C354 C355 1.367 . S
C354 C362 1.378 . S
C355 C354 1.367 . S
C355 C363 1.433 . S
C356 H352 0.929 1_554 S
C356 C358 1.378 . S
C356 C360 1.350 . S
C357 C360 1.463 . S
C357 C362 1.350 . S
C357 N365 1.427 . S
C358 H349 0.930 1_554 S
C358 C356 1.378 . S
C358 C359 1.367 . S
C359 C358 1.367 . S
C359 C361 1.433 . S
C360 C356 1.350 . S
C360 C357 1.463 . S
C360 N364 1.427 . S
C361 H351 0.929 . S
C361 C359 1.433 . S
C361 N364 1.384 . S
C362 H353 0.929 . S
C362 C354 1.378 . S
C362 C357 1.350 . S
C363 H350 0.929 . S
C363 C355 1.433 . S
C363 N365 1.384 . S
N364 C360 1.427 . S
N364 C361 1.384 . S
N365 C357 1.427 . S
N365 C363 1.384 . S
H366 C372 0.930 . S
H367 C376 0.930 . S
H368 C381 0.929 . S
H369 C379 0.929 . S
H370 C374 0.929 . S
H371 C380 0.929 . S
C372 H366 0.930 . S
C372 C373 1.367 . S
C372 C380 1.378 . S
C373 C372 1.367 . S
C373 C381 1.433 . S
C374 H370 0.929 . S
C374 C376 1.378 . S
C374 C378 1.350 . S
C375 C378 1.463 . S
C375 C380 1.350 . S
C375 N383 1.427 . S
C376 H367 0.930 . S
C376 C374 1.378 . S
C376 C377 1.367 . S
C377 C376 1.367 . S
C377 C379 1.433 . S
C378 C374 1.350 . S
C378 C375 1.463 . S
C378 N382 1.427 . S
C379 H369 0.929 . S
C379 C377 1.433 . S
C379 N382 1.384 . S
C380 H371 0.929 . S
C380 C372 1.378 . S
C380 C375 1.350 . S
C381 H368 0.929 . S
C381 C373 1.433 . S
C381 N383 1.384 . S
N382 C378 1.427 . S
N382 C379 1.384 . S
N383 C375 1.427 . S
N383 C381 1.384 . S
H384 C390 0.930 . S
H385 C394 0.930 . S
H386 C399 0.929 . S
H387 C397 0.929 . S
H388 C392 0.929 . S
H389 C398 0.929 . S
C390 H384 0.930 . S
C390 C391 1.367 . S
C390 C398 1.378 . S
C391 C390 1.367 . S
C391 C399 1.433 . S
C392 H388 0.929 . S
C392 C394 1.378 . S
C392 C396 1.350 . S
C393 C396 1.463 . S
C393 C398 1.350 . S
C393 N401 1.427 . S
C394 H385 0.930 . S
C394 C392 1.378 . S
C394 C395 1.367 . S
C395 C394 1.367 . S
C395 C397 1.433 . S
C396 C392 1.350 . S
C396 C393 1.463 . S
C396 N400 1.427 . S
C397 H387 0.929 . S
C397 C395 1.433 . S
C397 N400 1.384 . S
C398 H389 0.929 . S
C398 C390 1.378 . S
C398 C393 1.350 . S
C399 H386 0.929 . S
C399 C391 1.433 . S
C399 N401 1.384 . S
N400 C396 1.427 . S
N400 C397 1.384 . S
N401 C393 1.427 . S
N401 C399 1.384 . S
H402 C408 0.930 . S
H403 C412 0.930 . S
H404 C417 0.929 . S
H405 C415 0.929 . S
H406 C410 0.929 1_655 S
H407 C416 0.929 1_455 S
C408 H402 0.930 . S
C408 C409 1.367 . S
C408 C416 1.378 . S
C409 C408 1.367 . S
C409 C417 1.433 . S
C410 H406 0.929 1_455 S
C410 C412 1.378 . S
C410 C414 1.350 . S
C411 C414 1.463 1_655 S
C411 C416 1.350 . S
C411 N419 1.427 . S
C412 H403 0.930 . S
C412 C410 1.378 . S
C412 C413 1.367 . S
C413 C412 1.367 . S
C413 C415 1.433 . S
C414 C410 1.350 . S
C414 C411 1.463 1_455 S
C414 N418 1.427 . S
C415 H405 0.929 . S
C415 C413 1.433 . S
C415 N418 1.384 . S
C416 H407 0.929 1_655 S
C416 C408 1.378 . S
C416 C411 1.350 . S
C417 H404 0.929 . S
C417 C409 1.433 . S
C417 N419 1.384 . S
N418 C414 1.427 . S
N418 C415 1.384 . S
N419 C411 1.427 . S
N419 C417 1.384 . S
H420 C426 0.930 . S
H421 C430 0.930 . S
H422 C435 0.929 . S
H423 C433 0.929 . S
H424 C428 0.911 1_565 S
H425 C434 0.911 1_545 S
C426 H420 0.930 . S
C426 C427 1.367 . S
C426 C434 1.393 . S
C427 C426 1.367 . S
C427 C435 1.433 . S
C428 H424 0.911 1_545 S
C428 C430 1.393 . S
C428 C432 1.353 . S
C429 C432 1.463 1_564 S
C429 C434 1.353 . S
C429 N437 1.427 . S
C430 H421 0.930 . S
C430 C428 1.393 . S
C430 C431 1.367 . S
C431 C430 1.367 . S
C431 C433 1.433 . S
C432 C428 1.353 . S
C432 C429 1.463 1_546 S
C432 N436 1.427 . S
C433 H423 0.929 . S
C433 C431 1.433 . S
C433 N436 1.384 . S
C434 H425 0.911 1_565 S
C434 C426 1.393 . S
C434 C429 1.353 . S
C435 H422 0.929 . S
C435 C427 1.433 . S
C435 N437 1.384 . S
N436 C432 1.427 . S
N436 C433 1.384 . S
N437 C429 1.427 . S
N437 C435 1.384 . S
H438 C444 0.930 . S
H439 C448 0.930 . S
H440 C453 0.929 . S
H441 C451 0.929 . S
H442 C446 0.929 . S
H443 C452 0.929 . S
C444 H438 0.930 . S
C444 C445 1.367 . S
C444 C452 1.378 . S
C445 C444 1.367 . S
C445 C453 1.433 . S
C446 H442 0.929 . S
C446 C448 1.378 . S
C446 C450 1.350 . S
C447 C450 1.463 . S
C447 C452 1.350 . S
C447 N455 1.427 . S
C448 H439 0.930 . S
C448 C446 1.378 . S
C448 C449 1.367 . S
C449 C448 1.367 . S
C449 C451 1.433 . S
C450 C446 1.350 . S
C450 C447 1.463 . S
C450 N454 1.427 . S
C451 H441 0.929 . S
C451 C449 1.433 . S
C451 N454 1.384 . S
C452 H443 0.929 . S
C452 C444 1.378 . S
C452 C447 1.350 . S
C453 H440 0.929 . S
C453 C445 1.433 . S
C453 N455 1.384 . S
N454 C450 1.427 . S
N454 C451 1.384 . S
N455 C447 1.427 . S
N455 C453 1.384 . S
H456 C462 0.930 . S
H457 C466 0.930 . S
H458 C471 0.929 . S
H459 C469 0.929 . S
H460 C464 0.929 . S
H461 C470 0.929 . S
C462 H456 0.930 . S
C462 C463 1.367 . S
C462 C470 1.378 . S
C463 C462 1.367 . S
C463 C471 1.433 . S
C464 H460 0.929 . S
C464 C466 1.378 . S
C464 C468 1.350 . S
C465 C468 1.463 1_455 S
C465 C470 1.350 . S
C465 N473 1.423 1_455 S
C466 H457 0.930 . S
C466 C464 1.378 . S
C466 C467 1.367 . S
C467 C466 1.367 . S
C467 C469 1.433 . S
C468 C464 1.350 . S
C468 C465 1.463 1_655 S
C468 N472 1.423 1_655 S
C469 H459 0.929 . S
C469 C467 1.433 . S
C469 N472 1.374 1_655 S
C470 H461 0.929 . S
C470 C462 1.378 . S
C470 C465 1.350 . S
C471 H458 0.929 . S
C471 C463 1.433 . S
C471 N473 1.375 1_455 S
N472 C468 1.423 1_455 S
N472 C469 1.374 1_455 S
N473 C465 1.423 1_655 S
N473 C471 1.375 1_655 S
H474 C480 0.930 . S
H475 C484 0.930 . S
H476 C489 0.929 . S
H477 C487 0.929 . S
H478 C482 0.929 . S
H479 C488 0.929 . S
C480 H474 0.930 . S
C480 C481 1.367 . S
C480 C488 1.378 . S
C481 C480 1.367 . S
C481 C489 1.433 . S
C482 H478 0.929 . S
C482 C484 1.378 . S
C482 C486 1.350 . S
C483 C486 1.463 1_565 S
C483 C488 1.350 . S
C483 N491 1.427 . S
C484 H475 0.930 . S
C484 C482 1.378 . S
C484 C485 1.367 . S
C485 C484 1.367 . S
C485 C487 1.433 . S
C486 C482 1.350 . S
C486 C483 1.463 1_545 S
C486 N490 1.427 . S
C487 H477 0.929 . S
C487 C485 1.433 . S
C487 N490 1.384 . S
C488 H479 0.929 . S
C488 C480 1.378 . S
C488 C483 1.350 . S
C489 H476 0.929 . S
C489 C481 1.433 . S
C489 N491 1.384 . S
N490 C486 1.427 . S
N490 C487 1.384 . S
N491 C483 1.427 . S
N491 C489 1.384 . S
H492 C498 0.930 . S
H493 C502 0.930 . S
H494 C507 0.929 . S
H495 C505 0.929 . S
H496 C500 0.929 . S
H497 C506 0.929 . S
C498 H492 0.930 . S
C498 C499 1.367 . S
C498 C506 1.378 . S
C499 C498 1.367 . S
C499 C507 1.433 . S
C500 H496 0.929 . S
C500 C502 1.378 . S
C500 C504 1.350 . S
C501 C504 1.463 . S
C501 C506 1.350 . S
C501 N509 1.427 . S
C502 H493 0.930 . S
C502 C500 1.378 . S
C502 C503 1.367 . S
C503 C502 1.367 . S
C503 C505 1.433 . S
C504 C500 1.350 . S
C504 C501 1.463 . S
C504 N508 1.427 . S
C505 H495 0.929 . S
C505 C503 1.433 . S
C505 N508 1.384 . S
C506 H497 0.929 . S
C506 C498 1.378 . S
C506 C501 1.350 . S
C507 H494 0.929 . S
C507 C499 1.433 . S
C507 N509 1.384 . S
N508 C504 1.427 . S
N508 C505 1.384 . S
N509 C501 1.427 . S
N509 C507 1.384 . S
H510 C516 0.930 . S
H511 C520 0.930 . S
H512 C525 0.929 . S
H513 C523 0.929 . S
H514 C518 0.929 . S
H515 C524 0.929 . S
C516 H510 0.930 . S
C516 C517 1.367 . S
C516 C524 1.378 . S
C517 C516 1.367 . S
C517 C525 1.433 . S
C518 H514 0.929 . S
C518 C520 1.378 . S
C518 C522 1.350 . S
C519 C522 1.463 . S
C519 C524 1.350 . S
C519 N527 1.427 . S
C520 H511 0.930 . S
C520 C518 1.378 . S
C520 C521 1.367 . S
C521 C520 1.367 . S
C521 C523 1.433 . S
C522 C518 1.350 . S
C522 C519 1.463 . S
C522 N526 1.427 . S
C523 H513 0.929 . S
C523 C521 1.433 . S
C523 N526 1.384 . S
C524 H515 0.929 . S
C524 C516 1.378 . S
C524 C519 1.350 . S
C525 H512 0.929 . S
C525 C517 1.433 . S
C525 N527 1.384 . S
N526 C522 1.427 . S
N526 C523 1.384 . S
N527 C519 1.427 . S
N527 C525 1.384 . S
H528 C534 0.930 1_554 S
H529 C538 0.930 . S
H530 C543 0.929 . S
H531 C541 0.929 . S
H532 C536 0.929 . S
H533 C542 0.929 . S
C534 H528 0.930 1_556 S
C534 C535 1.367 1_556 S
C534 C542 1.378 . S
C535 C534 1.367 1_554 S
C535 C543 1.433 1_554 S
C536 H532 0.929 . S
C536 C538 1.378 . S
C536 C540 1.350 . S
C537 C540 1.463 . S
C537 C542 1.350 . S
C537 N545 1.427 . S
C538 H529 0.930 . S
C538 C536 1.378 . S
C538 C539 1.367 . S
C539 C538 1.367 . S
C539 C541 1.433 . S
C540 C536 1.350 . S
C540 C537 1.463 . S
C540 N544 1.427 . S
C541 H531 0.929 . S
C541 C539 1.433 . S
C541 N544 1.384 . S
C542 H533 0.929 . S
C542 C534 1.378 . S
C542 C537 1.350 . S
C543 H530 0.929 . S
C543 C535 1.433 1_556 S
C543 N545 1.384 . S
N544 C540 1.427 . S
N544 C541 1.384 . S
N545 C537 1.427 . S
N545 C543 1.384 . S
H546 C552 0.930 . S
H547 C556 0.930 . S
H548 C561 0.929 . S
H549 C559 0.929 . S
H550 C554 0.929 . S
H551 C560 0.929 . S
C552 H546 0.930 . S
C552 C553 1.367 . S
C552 C560 1.378 . S
C553 C552 1.367 . S
C553 C561 1.433 . S
C554 H550 0.929 . S
C554 C556 1.378 . S
C554 C558 1.350 . S
C555 C558 1.463 . S
C555 C560 1.350 . S
C555 N563 1.427 . S
C556 H547 0.930 . S
C556 C554 1.378 . S
C556 C557 1.353 1_554 S
C557 C556 1.353 1_556 S
C557 C559 1.436 . S
C558 C554 1.350 . S
C558 C555 1.463 . S
C558 N562 1.427 . S
C559 H549 0.929 . S
C559 C557 1.436 . S
C559 N562 1.384 1_556 S
C560 H551 0.929 . S
C560 C552 1.378 . S
C560 C555 1.350 . S
C561 H548 0.929 . S
C561 C553 1.433 . S
C561 N563 1.384 . S
N562 C558 1.427 . S
N562 C559 1.384 1_554 S
N563 C555 1.427 . S
N563 C561 1.384 . S
H564 C570 0.930 . S
H565 C574 0.930 . S
H566 C579 0.929 . S
H567 C577 0.929 . S
H568 C572 0.929 . S
H569 C578 0.929 . S
C570 H564 0.930 . S
C570 C571 1.367 . S
C570 C578 1.378 . S
C571 C570 1.367 . S
C571 C579 1.433 . S
C572 H568 0.929 . S
C572 C574 1.378 . S
C572 C576 1.350 . S
C573 C576 1.463 . S
C573 C578 1.350 . S
C573 N581 1.427 . S
C574 H565 0.930 . S
C574 C572 1.378 . S
C574 C575 1.367 . S
C575 C574 1.367 . S
C575 C577 1.433 . S
C576 C572 1.350 . S
C576 C573 1.463 . S
C576 N580 1.427 . S
C577 H567 0.929 . S
C577 C575 1.433 . S
C577 N580 1.384 . S
C578 H569 0.929 . S
C578 C570 1.378 . S
C578 C573 1.350 . S
C579 H566 0.929 . S
C579 C571 1.433 . S
C579 N581 1.384 . S
N580 C576 1.427 . S
N580 C577 1.384 . S
N581 C573 1.427 . S
N581 C579 1.384 . S
H582 C588 0.930 . S
H583 C592 0.930 . S
H584 C597 0.929 . S
H585 C595 0.929 . S
H586 C590 0.929 . S
H587 C596 0.929 . S
C588 H582 0.930 . S
C588 C589 1.367 . S
C588 C596 1.378 . S
C589 C588 1.367 . S
C589 C597 1.433 . S
C590 H586 0.929 . S
C590 C592 1.378 . S
C590 C594 1.350 . S
C591 C594 1.463 . S
C591 C596 1.350 . S
C591 N599 1.427 . S
C592 H583 0.930 . S
C592 C590 1.378 . S
C592 C593 1.367 . S
C593 C592 1.367 . S
C593 C595 1.433 . S
C594 C590 1.350 . S
C594 C591 1.463 . S
C594 N598 1.427 . S
C595 H585 0.929 . S
C595 C593 1.433 . S
C595 N598 1.384 . S
C596 H587 0.929 . S
C596 C588 1.378 . S
C596 C591 1.350 . S
C597 H584 0.929 . S
C597 C589 1.433 . S
C597 N599 1.384 . S
N598 C594 1.427 . S
N598 C595 1.384 . S
N599 C591 1.427 . S
N599 C597 1.384 . S
C175 C135 1.553 1_554 S
C179 C9 1.559 . S
C193 C23 1.557 . S
C197 C149 1.556 . S
C211 C163 1.553 . S
C215 C37 1.559 . S
C229 C93 1.559 . S
C233 C51 1.554 . S
C247 C107 1.559 . S
C251 C65 1.550 1_556 S
C265 C121 1.560 . S
C269 C79 1.553 . S
C283 C87 1.526 . S
C287 C3 1.526 . S
C301 C17 1.524 . S
C305 C101 1.519 . S
C319 C115 1.521 . S
C323 C31 1.527 . S
C337 C45 1.521 . S
C341 C129 1.527 . S
C355 C143 1.525 . S
C359 C59 1.526 . S
C373 C73 1.526 . S
C377 C157 1.520 . S
C391 C133 1.306 . S
C395 C7 1.320 . S
C409 C147 1.303 . S
C413 C21 1.313 . S
C427 C161 1.310 . S
C431 C35 1.304 . S
C445 C49 1.303 . S
C449 C91 1.312 . S
C463 C105 1.315 . S
C467 C63 1.313 . S
C481 C77 1.305 . S
C485 C119 1.320 . S
C499 C8 1.194 . S
C503 C120 1.194 . S
C517 C134 1.197 . S
C521 C22 1.196 . S
C535 C148 1.197 . S
C539 C36 1.196 . S
C553 C162 1.195 . S
C557 C50 1.206 . S
C571 C92 1.200 . S
C575 C64 1.200 . S
C589 C106 1.199 . S
C593 C78 1.199 . S
