# Generated by pormake.
# Topology xfw, (5)-cn, num edge types: 1
# Building blocks:
#     Node 0, Type 0, BuildingBlock: XOMCOT_clean_sbu_1, # of connection points: 5
#     Node 1, Type 0, BuildingBlock: XOMCOT_clean_sbu_1, # of connection points: 5
#     Node 2, Type 0, BuildingBlock: XOMCOT_clean_sbu_1, # of connection points: 5
#     Node 3, Type 0, BuildingBlock: XOMCOT_clean_sbu_1, # of connection points: 5
#     Node 4, Type 0, BuildingBlock: XOMCOT_clean_sbu_1, # of connection points: 5
#     Node 5, Type 0, BuildingBlock: XOMCOT_clean_sbu_1, # of connection points: 5
#     Node 6, Type 0, BuildingBlock: XOMCOT_clean_sbu_1, # of connection points: 5
#     Node 7, Type 0, BuildingBlock: XOMCOT_clean_sbu_1, # of connection points: 5
#     Edge 8, Type (0, 0), BuildingBlock: EZIPEK_clean_linker_0, # of connection points: 2
#     Edge 9, Type (0, 0), BuildingBlock: EZIPEK_clean_linker_0, # of connection points: 2
#     Edge 10, Type (0, 0), BuildingBlock: EZIPEK_clean_linker_0, # of connection points: 2
#     Edge 11, Type (0, 0), BuildingBlock: EZIPEK_clean_linker_0, # of connection points: 2
#     Edge 12, Type (0, 0), BuildingBlock: EZIPEK_clean_linker_0, # of connection points: 2
#     Edge 13, Type (0, 0), BuildingBlock: EZIPEK_clean_linker_0, # of connection points: 2
#     Edge 14, Type (0, 0), BuildingBlock: EZIPEK_clean_linker_0, # of connection points: 2
#     Edge 15, Type (0, 0), BuildingBlock: EZIPEK_clean_linker_0, # of connection points: 2
#     Edge 16, Type (0, 0), BuildingBlock: EZIPEK_clean_linker_0, # of connection points: 2
#     Edge 17, Type (0, 0), BuildingBlock: EZIPEK_clean_linker_0, # of connection points: 2
#     Edge 18, Type (0, 0), BuildingBlock: EZIPEK_clean_linker_0, # of connection points: 2
#     Edge 19, Type (0, 0), BuildingBlock: EZIPEK_clean_linker_0, # of connection points: 2
#     Edge 20, Type (0, 0), BuildingBlock: EZIPEK_clean_linker_0, # of connection points: 2
#     Edge 21, Type (0, 0), BuildingBlock: EZIPEK_clean_linker_0, # of connection points: 2
#     Edge 22, Type (0, 0), BuildingBlock: EZIPEK_clean_linker_0, # of connection points: 2
#     Edge 23, Type (0, 0), BuildingBlock: EZIPEK_clean_linker_0, # of connection points: 2
#     Edge 24, Type (0, 0), BuildingBlock: EZIPEK_clean_linker_0, # of connection points: 2
#     Edge 25, Type (0, 0), BuildingBlock: EZIPEK_clean_linker_0, # of connection points: 2
#     Edge 26, Type (0, 0), BuildingBlock: EZIPEK_clean_linker_0, # of connection points: 2
#     Edge 27, Type (0, 0), BuildingBlock: EZIPEK_clean_linker_0, # of connection points: 2
# Relax obj value: 0.609
# Max RMSD: 0.303
# Mean RMSD: 0.303
data_MOF--net-xfw--node1-XOMCOT_clean_sbu_1--edge1-EZIPEK_clean_linker_0
_symmetry_space_group_name_H-M    P1
_symmetry_Int_Tables_number       1
_symmetry_cell_setting            triclinic
loop_
_symmetry_equiv_pos_as_xyz
'x, y, z'
_cell_length_a     19.703951
_cell_length_b     19.379037
_cell_length_c     47.2716
_cell_angle_alpha  90.262045
_cell_angle_beta   90.052435
_cell_angle_gamma 89.077378
loop_
_atom_site_label
_atom_site_type_symbol
_atom_site_fract_x
_atom_site_fract_y
_atom_site_fract_z
_atom_type_partial_charge
C0 C 0.37501 0.09762 0.57258 0.0
C1 C 0.38206 0.05052 0.55096 0.0
N2 N 0.31961 0.03134 0.54325 0.0
N3 N 0.30853 0.10758 0.57863 0.0
C4 C 0.27597 0.06627 0.56015 0.0
H5 H 0.41593 0.12456 0.58261 0.0
Co6 Co 0.27805 0.17229 0.60524 0.0
C7 C 0.14251 0.1252 0.62755 0.0
O8 O 0.12597 0.19047 0.63138 0.0
N9 N 0.25134 0.23929 0.6323 0.0
C10 C 0.22749 0.33784 0.65511 0.0
C11 C 0.23889 0.30775 0.62905 0.0
C12 C 0.24771 0.22939 0.66057 0.0
N13 N 0.23352 0.2883 0.67474 0.0
O14 O 0.34217 0.13096 0.63199 0.0
H15 H 0.23949 0.33519 0.60928 0.0
H16 H 0.25629 0.18 0.67068 0.0
O17 O 0.20199 0.10997 0.6176 0.0
C18 C 0.39485 0.16475 0.63927 0.0
O19 O 0.39353 0.23229 0.637 0.0
N20 N 0.22294 0.21353 0.5769 0.0
C21 C 0.165 0.26712 0.52766 0.0
C22 C 0.13362 0.21415 0.54232 0.0
C23 C 0.16336 0.18792 0.56671 0.0
C24 C 0.25483 0.26457 0.56247 0.0
C25 C 0.22595 0.29339 0.53807 0.0
H26 H 0.14018 0.1435 0.57556 0.0
H27 H 0.30384 0.28194 0.56967 0.0
H28 H 0.22164 0.06356 0.55807 0.0
H29 H 0.42887 0.03374 0.5409 0.0
H30 H 0.21693 0.39185 0.65942 0.0
H31 H 0.08718 0.19174 0.53444 0.0
H32 H 0.25179 0.33409 0.52699 0.0
C33 C 0.08119 0.66393 0.42016 0.0
C34 C 0.03826 0.65289 0.44251 0.0
N35 N 0.99184 0.70448 0.44292 0.0
N36 N 0.06158 0.72167 0.40639 0.0
C37 C 1.00618 0.74481 0.42058 0.0
H38 H 0.12706 0.63485 0.41552 0.0
Co39 Co 0.11493 0.75677 0.37754 0.0
C40 C 0.05416 0.89957 0.36621 0.0
O41 O 0.11108 0.92738 0.37427 0.0
N42 N 0.17201 0.78979 0.34769 0.0
C43 C 0.22847 0.86109 0.31968 0.0
C44 C 0.20808 0.8485 0.34679 0.0
C45 C 0.17893 0.76409 0.32111 0.0
N46 N 0.21118 0.80726 0.30327 0.0
O47 O 0.06882 0.69323 0.3522 0.0
H48 H 0.21849 0.88199 0.36448 0.0
H49 H 0.15965 0.71487 0.31464 0.0
O50 O 0.04661 0.8335 0.36796 0.0
C51 C 0.09609 0.63321 0.34904 0.0
O52 O 0.16033 0.62526 0.35598 0.0
N53 N 0.15994 0.81084 0.40475 0.0
C54 C 0.2276 0.87308 0.44944 0.0
C55 C 0.15872 0.88643 0.44508 0.0
C56 C 0.12551 0.85376 0.42299 0.0
C57 C 0.2267 0.79489 0.40954 0.0
C58 C 0.26207 0.82637 0.43168 0.0
H59 H 0.07195 0.86375 0.42056 0.0
H60 H 0.25242 0.75726 0.39621 0.0
H61 H 0.98032 0.79315 0.41633 0.0
H62 H 0.04437 0.614 0.45873 0.0
H63 H 0.25222 0.90791 0.31266 0.0
H64 H 0.13062 0.9213 0.4589 0.0
H65 H 0.31529 0.81415 0.43505 0.0
C66 C 0.64003 0.99788 0.5701 0.0
C67 C 0.62547 0.04561 0.54955 0.0
N68 N 0.68098 0.08388 0.54568 0.0
N69 N 0.70393 1.00667 0.57959 0.0
C70 C 0.72707 0.06094 0.56475 0.0
H71 H 0.60716 0.95687 0.57667 0.0
Co72 Co 0.74098 0.94765 0.60688 0.0
C73 C 0.89117 0.98225 0.60783 0.0
O74 O 0.90495 0.91915 0.59949 0.0
N75 N 0.77417 0.8866 0.63582 0.0
C76 C 0.84145 0.82142 0.66308 0.0
C77 C 0.82713 0.84129 0.63593 0.0
C78 C 0.75297 0.88635 0.66311 0.0
N79 N 0.79435 0.84953 0.68038 0.0
O80 O 0.69651 1.00633 0.63478 0.0
H81 H 0.85468 0.82281 0.61769 0.0
H82 H 0.70878 0.91407 0.67068 0.0
O83 O 0.8286 1.00285 0.61044 0.0
C84 C 0.63381 0.9942 0.63926 0.0
O85 O 0.60978 0.9354 0.62998 0.0
N86 N 0.77783 0.89103 0.57748 0.0
C87 C 0.83011 0.81027 0.53346 0.0
C88 C 0.84016 0.88123 0.534 0.0
C89 C 0.8133 0.92058 0.55596 0.0
C90 C 0.76208 0.82267 0.57588 0.0
C91 C 0.78945 0.78057 0.55432 0.0
H92 H 0.8248 0.9745 0.55631 0.0
H93 H 0.7302 0.80019 0.59189 0.0
H94 H 0.77812 0.08036 0.56643 0.0
H95 H 0.58021 0.04776 0.53655 0.0
H96 H 0.88416 0.78939 0.66954 0.0
H97 H 0.87105 0.90575 0.51809 0.0
H98 H 0.78018 0.72565 0.55422 0.0
C99 C 0.94641 0.3945 0.40017 0.0
C100 C 0.99383 0.40267 0.42108 0.0
N101 N 0.02126 0.34031 0.42668 0.0
N102 N 0.94435 0.32749 0.39238 0.0
C103 C 0.99159 0.29567 0.40869 0.0
H104 H 0.91281 0.43446 0.39215 0.0
Co105 Co 0.87898 0.29953 0.36669 0.0
C106 C 0.89354 0.14743 0.35635 0.0
O107 O 0.82715 0.14619 0.35453 0.0
N108 N 0.81156 0.27638 0.33965 0.0
C109 C 0.71765 0.24805 0.31606 0.0
C110 C 0.74394 0.26581 0.34203 0.0
C111 C 0.82428 0.26596 0.31179 0.0
N112 N 0.76832 0.24887 0.2971 0.0
O113 O 0.9333 0.34092 0.33767 0.0
H114 H 0.71475 0.26852 0.36124 0.0
H115 H 0.87407 0.26926 0.30232 0.0
O116 O 0.92369 0.20558 0.36039 0.0
C117 C 0.92002 0.40394 0.3318 0.0
O118 O 0.86065 0.42913 0.33973 0.0
N119 N 0.82805 0.26541 0.39748 0.0
C120 C 0.76331 0.22827 0.44745 0.0
C121 C 0.82245 0.19415 0.43877 0.0
C122 C 0.85418 0.21373 0.41403 0.0
C123 C 0.77361 0.30345 0.40701 0.0
C124 C 0.73872 0.28423 0.43158 0.0
H125 H 0.901 0.1875 0.40893 0.0
H126 H 0.75688 0.34858 0.39539 0.0
H127 H 1.00156 0.24065 0.40869 0.0
H128 H 1.00359 0.44953 0.43286 0.0
H129 H 0.66544 0.23567 0.31139 0.0
H130 H 0.84375 0.15178 0.45097 0.0
H131 H 0.6936 0.31263 0.43814 0.0
C132 C 0.6944 0.05448 0.04926 0.0
C133 C 0.70033 1.00268 0.02954 0.0
N134 N 0.74782 0.95756 0.03853 0.0
N135 N 0.73838 0.04307 0.07077 0.0
C136 C 0.7698 0.98247 0.06369 0.0
H137 H 0.66061 0.09851 0.04739 0.0
Co138 Co 0.75039 0.10348 0.10206 0.0
C139 C 0.88923 0.06709 0.12661 0.0
O140 O 0.89239 0.1269 0.13958 0.0
N141 N 0.7606 0.16416 0.13331 0.0
C142 C 0.77318 0.25899 0.15953 0.0
C143 C 0.76925 0.23324 0.13246 0.0
C144 C 0.75804 0.14959 0.16135 0.0
N145 N 0.76579 0.20639 0.17764 0.0
O146 O 0.69525 0.04235 0.12437 0.0
H147 H 0.77178 0.2638 0.11346 0.0
H148 H 0.75072 0.09838 0.16974 0.0
O149 O 0.83633 0.05221 0.11202 0.0
C150 C 0.63667 0.06475 0.13223 0.0
O151 O 0.62294 0.13119 0.13064 0.0
N152 N 0.79601 0.1654 0.07805 0.0
C153 C 0.84346 0.23179 0.03037 0.0
C154 C 0.88888 0.2064 0.05064 0.0
C155 C 0.86411 0.17378 0.07452 0.0
C156 C 0.75153 0.19989 0.06078 0.0
C157 C 0.77398 0.2317 0.03612 0.0
H158 H 0.90071 0.15332 0.08891 0.0
H159 H 0.69777 0.19838 0.06515 0.0
H160 H 0.80944 0.95798 0.0761 0.0
H161 H 0.67331 0.99932 0.00964 0.0
H162 H 0.77937 0.3125 0.16554 0.0
H163 H 0.94319 0.20766 0.04708 0.0
H164 H 0.7376 0.25252 0.0211 0.0
C165 C 0.11624 0.34322 0.93027 0.0
C166 C 0.06842 0.33905 0.95115 0.0
N167 N 0.01985 0.29631 0.9422 0.0
N168 N 0.09902 0.30202 0.90837 0.0
C169 C 0.03873 0.27543 0.91603 0.0
H170 H 0.15913 0.3771 0.93069 0.0
Co171 Co 0.14864 0.29137 0.87491 0.0
C172 C 0.10134 0.15649 0.84757 0.0
O173 O 0.15085 0.15673 0.82908 0.0
N174 N 0.19916 0.28377 0.84105 0.0
C175 C 0.28109 0.26266 0.80959 0.0
C176 C 0.26457 0.26298 0.83783 0.0
C177 C 0.17808 0.29823 0.81437 0.0
N178 N 0.22666 0.28502 0.79486 0.0
O179 O 0.08048 0.35128 0.85649 0.0
H180 H 0.2987 0.24857 0.85477 0.0
H181 H 0.12735 0.31581 0.80907 0.0
O182 O 0.09541 0.20646 0.86544 0.0
C183 C 0.09191 0.4152 0.85189 0.0
O184 O 0.15307 0.43869 0.85653 0.0
N185 N 0.21564 0.23717 0.89539 0.0
C186 C 0.27374 0.16591 0.94072 0.0
C187 C 0.25068 0.13021 0.91691 0.0
C188 C 0.2231 0.16695 0.89416 0.0
C189 C 0.25066 0.27233 0.91568 0.0
C190 C 0.27787 0.23788 0.93927 0.0
H191 H 0.2049 0.13776 0.87659 0.0
H192 H 0.25255 0.32789 0.91487 0.0
H193 H 1.0091 0.24139 0.90288 0.0
H194 H 0.06843 0.36629 0.9712 0.0
H195 H 0.32961 0.24776 0.8005 0.0
H196 H 0.24976 0.07432 0.91669 0.0
H197 H 0.29815 0.26725 0.9568 0.0
C198 C 0.33628 0.87523 0.04863 0.0
C199 C 0.34188 0.91861 0.02594 0.0
N200 N 0.31512 0.98028 0.03328 0.0
N201 N 0.30594 0.90898 0.07037 0.0
C202 C 0.29426 0.97364 0.06045 0.0
H203 H 0.35133 0.82134 0.049 0.0
Co204 Co 0.27971 0.86106 0.103 0.0
C205 C 0.14233 0.92042 0.11812 0.0
O206 O 0.11854 0.85788 0.11736 0.0
N207 N 0.25439 0.8098 0.13599 0.0
C208 C 0.18915 0.75285 0.16596 0.0
C209 C 0.20381 0.7638 0.1382 0.0
C210 C 0.27454 0.81873 0.1632 0.0
N211 N 0.23447 0.7862 0.1821 0.0
O212 O 0.34538 0.91351 0.12431 0.0
H213 H 0.17368 0.74389 0.12104 0.0
H214 H 0.31691 0.84985 0.16911 0.0
O215 O 0.20509 0.9313 0.11195 0.0
C216 C 0.40373 0.88552 0.12864 0.0
O217 O 0.41226 0.81944 0.12317 0.0
N218 N 0.22293 0.80896 0.07987 0.0
C219 C 0.17243 0.73968 0.03338 0.0
C220 C 0.14864 0.80588 0.03995 0.0
C221 C 0.17588 0.84033 0.06282 0.0
C222 C 0.24458 0.74293 0.0744 0.0
C223 C 0.21917 0.70661 0.05122 0.0
H224 H 0.16393 0.89431 0.06496 0.0
H225 H 0.28521 0.72039 0.0869 0.0
H226 H 0.26851 1.01402 0.07231 0.0
H227 H 0.36141 0.9052 0.0052 0.0
H228 H 0.14559 0.72504 0.17344 0.0
H229 H 0.11424 0.83326 0.02585 0.0
H230 H 0.23969 0.65599 0.04597 0.0
C231 C 0.04296 0.70223 0.87938 0.0
C232 C 0.08833 0.68339 0.89995 0.0
N233 N 0.06966 0.71614 0.92373 0.0
N234 N 0.99429 0.74488 0.89038 0.0
C235 C 0.01401 0.75436 0.91747 0.0
H236 H 0.04647 0.68601 0.85753 0.0
Co237 Co 0.92123 0.78085 0.86862 0.0
C238 C 0.99352 0.88412 0.86156 0.0
O239 O 0.96141 0.88712 0.88595 0.0
N240 N 0.85396 0.81752 0.84444 0.0
C241 C 0.81757 0.90264 0.81682 0.0
C242 C 0.84137 0.88607 0.84318 0.0
C243 C 0.83227 0.79309 0.81921 0.0
N244 N 0.81246 0.84421 0.80145 0.0
O245 O 0.9288 0.69478 0.84655 0.0
H246 H 0.85576 0.92296 0.8592 0.0
H247 H 0.8373 0.73977 0.81281 0.0
O248 O 0.98732 0.82935 0.84645 0.0
C249 C 0.89427 0.63953 0.84589 0.0
O250 O 0.82986 0.64169 0.85297 0.0
N251 N 0.85356 0.74405 0.89442 0.0
C252 C 0.80532 0.77086 0.94878 0.0
C253 C 0.85247 0.71709 0.9441 0.0
C254 C 0.87332 0.70201 0.91625 0.0
C255 C 0.79663 0.78472 0.89831 0.0
C256 C 0.77228 0.79945 0.9254 0.0
H257 H 0.91347 0.66429 0.9132 0.0
H258 H 0.77389 0.81377 0.88139 0.0
H259 H 0.98766 0.78715 0.93249 0.0
H260 H 0.13201 0.64922 0.89768 0.0
H261 H 0.81071 0.95453 0.80881 0.0
H262 H 0.87754 0.69184 0.96172 0.0
H263 H 0.7336 0.8393 0.92817 0.0
C264 C 0.30515 1.01703 0.4919 0.0
C265 C 0.30243 0.98901 0.51945 0.0
C266 C 0.25782 0.88094 0.50077 0.0
C267 C 0.26198 0.90849 0.47306 0.0
N268 N 0.30001 0.99665 0.44126 0.0
N269 N 0.28692 0.89314 0.55051 0.0
C270 C 0.28937 0.97462 0.46832 0.0
C271 C 0.28204 0.92037 0.52397 0.0
N272 N 0.31961 0.08524 0.48857 0.0
N273 N 0.22867 0.8182 0.50485 0.0
H274 H 0.30385 0.92176 0.56782 0.0
H275 H 0.27884 0.84147 0.55512 0.0
H276 H 0.21327 0.78666 0.48816 0.0
H277 H 0.21677 0.7986 0.52466 0.0
H278 H 0.31591 0.1111 0.46938 0.0
H279 H 0.33057 0.11768 0.50558 0.0
H280 H 0.32568 0.04152 0.43631 0.0
H281 H 0.28787 0.9671 0.42352 0.0
C282 C 0.94011 0.76382 0.51561 0.0
C283 C 0.86871 0.76868 0.51234 0.0
C284 C 0.87867 0.71935 0.46464 0.0
C285 C 0.95009 0.72394 0.46666 0.0
N286 N 0.04897 0.7617 0.49205 0.0
N287 N 0.76891 0.75517 0.48348 0.0
C288 C 0.98102 0.74862 0.49171 0.0
C289 C 0.8374 0.7468 0.48686 0.0
N290 N 0.96864 0.77426 0.54162 0.0
N291 N 0.85083 0.68835 0.44149 0.0
H292 H 0.73727 0.77345 0.49963 0.0
H293 H 0.74394 0.74745 0.46433 0.0
H294 H 0.8805 0.66879 0.42492 0.0
H295 H 0.79944 0.67753 0.43965 0.0
H296 H 0.01993 0.76539 0.54586 0.0
H297 H 0.93973 0.78523 0.55963 0.0
H298 H 0.07307 0.78667 0.50873 0.0
H299 H 0.08023 0.75395 0.47451 0.0
C300 C 0.7104 0.1949 0.52354 0.0
C301 C 0.69515 0.12404 0.52092 0.0
C302 C 0.70109 0.1328 0.46949 0.0
C303 C 0.7271 0.20012 0.47221 0.0
N304 N 0.76214 0.29455 0.50195 0.0
N305 N 0.69204 1.02164 0.49171 0.0
C306 C 0.73265 0.23157 0.49929 0.0
C307 C 0.69417 0.09189 0.49394 0.0
N308 N 0.70309 0.22682 0.54917 0.0
N309 N 0.6846 0.10754 0.44338 0.0
H310 H 0.69303 0.98916 0.50921 0.0
H311 H 0.69762 0.99535 0.47255 0.0
H312 H 0.68905 0.13682 0.42501 0.0
H313 H 0.6602 0.06074 0.44043 0.0
H314 H 0.70762 0.27986 0.55206 0.0
H315 H 0.68702 0.20055 0.56713 0.0
H316 H 0.77454 0.31651 0.52139 0.0
H317 H 0.77788 0.32313 0.48458 0.0
C318 C 0.1623 0.27901 0.47448 0.0
C319 C 0.13271 0.29326 0.50136 0.0
C320 C 0.02736 0.33071 0.47846 0.0
C321 C 0.05888 0.32295 0.45173 0.0
N322 N 0.1585 0.30023 0.42387 0.0
N323 N 0.04312 0.34744 0.52872 0.0
C324 C 0.1272 0.30031 0.44962 0.0
C325 C 0.06708 0.32396 0.50325 0.0
N326 N 0.22189 0.24226 0.47261 0.0
N327 N 0.95873 0.3411 0.48013 0.0
H328 H 0.07168 0.34463 0.5473 0.0
H329 H 0.99803 0.37582 0.53083 0.0
H330 H 0.92749 0.34276 0.46232 0.0
H331 H 0.93204 0.34047 0.49915 0.0
H332 H 0.2419 0.22414 0.45353 0.0
H333 H 0.24887 0.22511 0.49027 0.0
H334 H 0.2103 0.2908 0.42122 0.0
H335 H 0.13326 0.315 0.40539 0.0
C336 C 0.84197 0.86804 0.98031 0.0
C337 C 0.8012 0.80872 0.97633 0.0
C338 C 0.73444 0.8407 0.01838 0.0
C339 C 0.77394 0.90069 0.02173 0.0
N340 N 0.8741 0.96369 0.01046 0.0
N341 N 0.71802 0.73084 -0.00579 0.0
C342 C 0.83118 0.9111 0.00436 0.0
C343 C 0.75067 0.79227 -0.00357 0.0
N344 N 0.88758 0.88619 0.95997 0.0
N345 N 0.67968 0.83216 0.03562 0.0
H346 H 0.72892 0.69523 0.97815 0.0
H347 H 0.684 0.71291 0.0092 0.0
H348 H 0.66901 0.86575 0.05243 0.0
H349 H 0.64386 0.79386 0.03282 0.0
H350 H 0.91278 0.93299 0.95981 0.0
H351 H 0.89682 0.85672 0.94188 0.0
H352 H 0.9212 0.96943 0.00086 0.0
H353 H 0.86495 0.99877 0.02679 0.0
C354 C 0.89847 0.194 0.98583 0.0
C355 C 0.86996 0.24866 0.00207 0.0
C356 C 0.91906 0.3314 0.96963 0.0
C357 C 0.96096 0.27795 0.95832 0.0
N358 N 0.99433 0.15744 0.95769 0.0
N359 N 0.85084 0.37052 0.00942 0.0
C360 C 0.95068 0.20856 0.96638 0.0
C361 C 0.87842 0.31791 -0.00632 0.0
N362 N 0.87677 0.12815 -0.01032 0.0
N363 N 0.91879 0.39478 0.95725 0.0
H364 H 0.81978 0.36199 0.02687 0.0
H365 H 0.86171 0.42226 0.00604 0.0
H366 H 0.94671 0.40404 0.93897 0.0
H367 H 0.88602 0.435 0.96317 0.0
H368 H 0.8917 0.08718 0.97663 0.0
H369 H 0.83819 0.11642 0.00392 0.0
H370 H 0.99296 0.10718 0.96538 0.0
H371 H 0.0361 0.16663 0.94498 0.0
C372 C 0.35132 0.1137 0.97809 0.0
C373 C 0.28491 0.12789 0.96778 0.0
C374 C 0.23746 0.04936 0.00294 0.0
C375 C 0.30341 0.03651 0.01383 0.0
N376 N 0.42115 0.06514 0.01583 0.0
N377 N 0.16399 0.1247 0.97545 0.0
C378 C 0.35973 0.07192 0.00268 0.0
C379 C 0.22771 0.10076 0.98193 0.0
N380 N 0.40623 0.13753 0.96371 0.0
N381 N 0.18486 1.00914 0.01119 0.0
H382 H 0.15508 0.16312 0.96045 0.0
H383 H 0.12102 0.11169 0.98695 0.0
H384 H 0.19059 0.96954 0.02584 0.0
H385 H 0.13715 1.01092 0.00169 0.0
H386 H 0.4561 0.1231 0.96836 0.0
H387 H 0.40165 0.16876 0.94588 0.0
H388 H 0.46356 0.09365 0.01049 0.0
H389 H 0.42772 0.03473 0.03382 0.0
C390 C 0.07215 0.67119 0.97211 0.0
C391 C 0.10242 0.71056 0.95056 0.0
C392 C 0.19459 0.7418 0.98216 0.0
C393 C 0.15763 0.71341 0.0049 0.0
N394 N 0.06296 0.64967 0.02248 0.0
N395 N 0.19031 0.78502 0.93419 0.0
C396 C 0.09733 0.67653 0.00011 0.0
C397 C 0.16384 0.74539 0.95517 0.0
N398 N 0.01989 0.62859 0.9655 0.0
N399 N 0.25824 0.76663 0.98671 0.0
H400 H 0.16866 0.78839 0.91411 0.0
H401 H 0.23078 0.81817 0.93714 0.0
H402 H 0.28181 0.76475 0.00645 0.0
H403 H 0.28999 0.7832 0.97061 0.0
H404 H 0.9986 0.59432 0.97974 0.0
H405 H 1.00168 0.62352 0.94489 0.0
H406 H 0.01464 0.62905 0.02089 0.0
H407 H 0.0823 0.65052 0.04305 0.0
C408 C 0.52518 0.02884 0.66406 0.0
C409 C 0.58377 0.04878 0.64875 0.0
C410 C 0.52118 0.14824 0.62984 0.0
C411 C 0.46128 0.12791 0.64447 0.0
N412 N 0.41261 0.05994 0.68162 0.0
N413 N 0.64384 0.14489 0.62904 0.0
C414 C 0.46527 0.07154 0.66356 0.0
C415 C 0.58404 0.11435 0.63573 0.0
N416 N 0.52699 0.96849 0.67886 0.0
N417 N 0.51821 0.19607 0.60867 0.0
H418 H 0.69083 0.12495 0.63527 0.0
H419 H 0.64628 0.19505 0.62128 0.0
H420 H 0.47365 0.21993 0.6017 0.0
H421 H 0.55933 0.20602 0.59553 0.0
H422 H 0.48424 0.94583 0.68751 0.0
H423 H 0.57201 0.94028 0.68187 0.0
H424 H 0.41438 0.0234 0.69768 0.0
H425 H 0.36913 0.09135 0.68224 0.0
C426 C 1.00378 0.57676 0.31898 0.0
C427 C 0.05582 0.57136 0.33989 0.0
C428 C 0.03844 0.44594 0.3405 0.0
C429 C 0.97575 0.45436 0.3263 0.0
N430 N 0.90246 0.5271 0.29825 0.0
N431 N 0.1107 0.49765 0.37511 0.0
C432 C 0.95982 0.51971 0.31424 0.0
C433 C 0.0705 0.50499 0.35173 0.0
N434 N 0.99774 0.63491 0.30293 0.0
N435 N 0.06794 0.38217 0.3433 0.0
H436 H 0.12969 0.53888 0.38658 0.0
H437 H 0.11736 0.45054 0.38542 0.0
H438 H 0.05009 0.33898 0.3326 0.0
H439 H 0.11571 0.37475 0.35243 0.0
H440 H 0.96501 0.63934 0.28571 0.0
H441 H 0.03034 0.67628 0.30495 0.0
H442 H 0.88264 0.57475 0.29195 0.0
H443 H 0.87387 0.4848 0.29194 0.0
C444 C 0.5549 0.98685 0.15776 0.0
C445 C 0.57829 1.01723 0.13237 0.0
C446 C 0.49477 0.95276 0.10532 0.0
C447 C 0.46497 0.92924 0.13067 0.0
N448 N 0.46385 0.92655 0.1816 0.0
N449 N 0.55564 0.04465 0.08342 0.0
C450 C 0.49424 0.94704 0.15717 0.0
C451 C 0.54384 1.00482 0.10658 0.0
N452 N 0.59076 0.9958 0.1822 0.0
N453 N 0.47852 0.92345 0.07995 0.0
H454 H 0.58748 0.08691 0.08398 0.0
H455 H 0.52757 0.04094 0.0648 0.0
H456 H 0.44734 0.88085 0.07845 0.0
H457 H 0.50324 0.93519 0.06113 0.0
H458 H 0.58023 0.97011 0.20094 0.0
H459 H 0.63418 0.02589 0.18316 0.0
H460 H 0.47848 0.94328 0.20162 0.0
H461 H 0.4211 0.89558 0.18167 0.0
C462 C 0.01941 0.49675 0.82195 0.0
C463 C 0.03459 0.46629 0.84856 0.0
C464 C 0.94132 0.53355 0.86997 0.0
C465 C 0.93268 0.57209 0.8447 0.0
N466 N 0.96549 0.592 0.79645 0.0
N467 N 0.02316 0.47455 0.8992 0.0
C468 C 0.97227 0.5539 0.82054 0.0
C469 C 0.99887 0.48947 0.87289 0.0
N470 N 0.05019 0.47131 0.79814 0.0
N471 N 0.8954 0.53872 0.89151 0.0
H472 H 0.06812 0.44696 0.90229 0.0
H473 H 1.00401 0.49792 0.91751 0.0
H474 H 0.85101 0.56824 0.89045 0.0
H475 H 0.89784 0.50718 0.90931 0.0
H476 H 0.03705 0.48668 0.77776 0.0
H477 H 0.08598 0.43111 0.79876 0.0
H478 H 0.99782 0.58702 0.77913 0.0
H479 H 0.92863 0.6309 0.79433 0.0
C480 C 0.07369 0.03391 0.60275 0.0
C481 C 0.08413 0.07553 0.62692 0.0
C482 C 0.96442 0.05527 0.64054 0.0
C483 C 0.95187 0.02615 0.61338 0.0
N484 N 0.99418 1.00266 0.56629 0.0
N485 N 0.04047 0.11989 0.67098 0.0
C486 C 1.00646 1.02056 0.59377 0.0
C487 C 0.02941 0.0846 0.64642 0.0
N488 N 0.12738 1.00333 0.58923 0.0
N489 N 0.91607 0.05164 0.66115 0.0
H490 H 0.08929 0.13279 0.67748 0.0
H491 H 1.00185 0.13674 0.68448 0.0
H492 H 0.86818 0.03124 0.65767 0.0
H493 H 0.9247 0.06483 0.68221 0.0
H494 H 0.12162 0.96915 0.57233 0.0
H495 H 0.17612 1.00333 0.59776 0.0
H496 H 0.03176 1.00295 0.55077 0.0
H497 H 0.94523 0.99545 0.55854 0.0
C498 C 0.93996 0.95771 0.37152 0.0
C499 C 1.00081 0.94962 0.35616 0.0
C500 C 0.98325 0.0662 0.33606 0.0
C501 C 0.93096 0.07935 0.35611 0.0
N502 N 0.86127 0.03641 0.3944 0.0
N503 N 0.07683 0.99179 0.32069 0.0
C504 C 0.90917 0.0245 0.37399 0.0
C505 C 0.02081 1.00256 0.33725 0.0
N506 N 0.9107 0.90129 0.38322 0.0
N507 N 0.99522 0.1132 0.31524 0.0
H508 H 0.10068 0.94345 0.31905 0.0
H509 H 0.10041 0.03043 0.30927 0.0
H510 H 0.96822 0.15971 0.3135 0.0
H511 H 0.02787 0.10401 0.29829 0.0
H512 H 0.86321 0.90257 0.39289 0.0
H513 H 0.92957 0.85156 0.37963 0.0
H514 H 0.85028 1.00104 0.41021 0.0
H515 H 0.83614 0.08339 0.39726 0.0
C516 C 0.05411 0.97552 0.14864 0.0
C517 C 0.09041 0.97574 0.12273 0.0
C518 C 0.98998 0.02223 0.09847 0.0
C519 C 0.95396 0.02585 0.12456 0.0
N520 N 0.95357 1.01042 0.17514 0.0
N521 N 0.09999 1.01983 0.07567 0.0
C522 C 0.987 1.00437 0.14991 0.0
C523 C 0.06055 1.00606 0.09857 0.0
N524 N 0.08334 0.94497 0.17175 0.0
N525 N 0.9569 0.03136 0.07337 0.0
H526 H 0.15223 1.01124 0.07601 0.0
H527 H 0.08264 0.04737 0.05815 0.0
H528 H 0.9048 0.03897 0.07192 0.0
H529 H 0.97989 0.02317 0.05378 0.0
H530 H 0.05758 0.93492 0.19046 0.0
H531 H 0.13379 0.92754 0.17171 0.0
H532 H 0.97693 1.00412 0.19474 0.0
H533 H 0.90213 0.02361 0.17643 0.0
C534 C 0.01475 0.98614 0.8292 0.0
C535 C 0.03211 0.9467 0.8535 0.0
C536 C 0.07715 0.05006 0.87636 0.0
C537 C 0.06576 0.08919 0.85139 0.0
N538 N 0.02635 0.09325 0.80314 0.0
N539 N 0.09906 0.93669 0.8958 0.0
C540 C 0.03566 0.05651 0.82746 0.0
C541 C 0.06997 0.97748 0.87548 0.0
N542 N 0.97631 0.95749 0.80832 0.0
N543 N 0.09184 0.08165 0.90141 0.0
H544 H 0.09555 0.88299 0.89529 0.0
H545 H 0.13249 0.95536 0.91103 0.0
H546 H 0.09244 0.1348 0.90391 0.0
H547 H 0.09491 0.05532 0.92056 0.0
H548 H 0.95398 0.98572 0.792 0.0
H549 H 0.96493 0.90524 0.80775 0.0
H550 H 0.01324 0.07102 0.78384 0.0
H551 H 0.03358 0.14639 0.80221 0.0
C552 C 0.2803 0.32617 0.72068 0.0
C553 C 0.2275 0.296 0.70487 0.0
C554 C 0.1716 0.26079 0.74837 0.0
C555 C 0.22289 0.29357 0.76452 0.0
N556 N 0.3138 0.37513 0.76571 0.0
N557 N 0.11389 0.25415 0.7032 0.0
C558 C 0.27364 0.33178 0.75052 0.0
C559 C 0.17013 0.26969 0.71864 0.0
N560 N 0.33765 0.34721 0.7073 0.0
N561 N 0.1271 0.21745 0.76094 0.0
H562 H 0.11172 0.26146 0.68135 0.0
H563 H 0.06783 0.24099 0.71237 0.0
H564 H 0.12846 0.20664 0.78237 0.0
H565 H 0.09337 0.18699 0.74961 0.0
H566 H 0.3808 0.36322 0.71809 0.0
H567 H 0.34384 0.34342 0.68543 0.0
H568 H 0.34809 0.40845 0.75637 0.0
H569 H 0.30721 0.38327 0.78737 0.0
C570 C 0.20078 0.73845 0.22888 0.0
C571 C 0.23473 0.78934 0.21291 0.0
C572 C 0.27107 0.83755 0.25807 0.0
C573 C 0.22084 0.79985 0.27284 0.0
N574 N 0.11665 0.73669 0.26504 0.0
N575 N 0.27979 0.90583 0.21621 0.0
C576 C 0.17935 0.75583 0.2564 0.0
C577 C 0.26435 0.84455 0.22839 0.0
N578 N 0.19075 0.67352 0.21881 0.0
N579 N 0.32624 0.8638 0.27141 0.0
H580 H 0.26096 0.92031 0.19649 0.0
H581 H 0.30031 0.94624 0.22795 0.0
H582 H 0.33928 0.85006 0.29203 0.0
H583 H 0.36363 0.89003 0.26033 0.0
H584 H 0.16645 0.63637 0.23094 0.0
H585 H 0.21485 0.65506 0.20058 0.0
H586 H 0.08603 0.70538 0.2525 0.0
H587 H 0.09177 0.7617 0.28172 0.0
C588 C 0.7597 0.89023 0.75744 0.0
C589 C 0.80211 0.84068 0.77105 0.0
C590 C 0.81883 0.78593 0.72501 0.0
C591 C 0.7924 0.84519 0.71104 0.0
N592 N 0.75933 0.96594 0.7175 0.0
N593 N 0.8935 0.75648 0.76317 0.0
C594 C 0.76811 0.9011 0.7281 0.0
C595 C 0.83769 0.7919 0.75374 0.0
N596 N 0.71154 0.92664 0.77212 0.0
N597 N 0.82517 0.72403 0.71143 0.0
H598 H 0.91855 0.76925 0.78183 0.0
H599 H 0.92096 0.72272 0.75007 0.0
H600 H 0.80471 0.71565 0.69137 0.0
H601 H 0.8424 0.67967 0.72183 0.0
H602 H 0.67818 0.96121 0.76218 0.0
H603 H 0.6998 0.91551 0.79311 0.0
H604 H 0.74433 1.00755 0.73026 0.0
H605 H 0.77737 0.98025 0.69772 0.0
C606 C 0.71999 0.27405 0.24976 0.0
C607 C 0.76417 0.23446 0.2672 0.0
C608 C 0.81105 0.17678 0.22524 0.0
C609 C 0.76268 0.21184 0.20808 0.0
N610 N 0.65981 0.28001 0.20514 0.0
N611 N 0.83945 0.13618 0.27222 0.0
C612 C 0.71352 0.25622 0.22074 0.0
C613 C 0.80598 0.18201 0.25512 0.0
N614 N 0.68713 0.33093 0.26046 0.0
N615 N 0.86397 0.14172 0.21304 0.0
H616 H 0.83428 0.13698 0.29417 0.0
H617 H 0.86628 0.09331 0.26451 0.0
H618 H 0.87089 0.14011 0.19126 0.0
H619 H 0.90433 0.12062 0.22453 0.0
H620 H 0.65921 0.36522 0.24794 0.0
H621 H 0.69366 0.3479 0.28122 0.0
H622 H 0.61928 0.30788 0.21391 0.0
H623 H 0.65233 0.26532 0.18412 0.0
loop_
_geom_bond_atom_site_label_1
_geom_bond_atom_site_label_2
_geom_bond_distance
_geom_bond_site_symmetry_2
_ccdc_geom_bond_type
C0 C1 1.351 . S
C0 N3 1.368 . S
C0 H5 0.931 . S
C1 C0 1.351 . S
C1 N2 1.373 1_545 S
C1 H29 0.930 . S
N2 C1 1.373 1_565 S
N2 C4 1.340 . S
N3 C0 1.368 . S
N3 C4 1.321 1_545 S
N3 Co6 2.135 . S
C4 N2 1.340 . S
C4 N3 1.321 1_565 S
C4 H28 0.930 . S
H5 C0 0.931 . S
Co6 N3 2.135 . S
Co6 N9 2.121 . S
Co6 O14 2.055 . S
Co6 O17 2.039 . S
Co6 N20 2.140 . S
C7 O8 1.227 . S
C7 O17 1.265 . S
O8 C7 1.227 . S
N9 Co6 2.121 . S
N9 C11 1.375 . S
N9 C12 1.313 . S
C10 C11 1.338 . S
C10 N13 1.377 . S
C10 H30 0.930 . S
C11 N9 1.375 . S
C11 C10 1.338 . S
C11 H15 0.931 . S
C12 N9 1.313 . S
C12 N13 1.344 . S
C12 H16 0.930 . S
N13 C10 1.377 . S
N13 C12 1.344 . S
O14 Co6 2.055 . S
O14 C18 1.253 . S
H15 C11 0.931 . S
H16 C12 0.930 . S
O17 Co6 2.039 . S
O17 C7 1.265 . S
C18 O14 1.253 . S
C18 O19 1.227 . S
O19 C18 1.227 . S
N20 Co6 2.140 . S
N20 C23 1.346 . S
N20 C24 1.345 . S
C21 C22 1.387 . S
C21 C25 1.391 . S
C22 C21 1.387 . S
C22 C23 1.369 . S
C22 H31 0.929 . S
C23 N20 1.346 . S
C23 C22 1.369 . S
C23 H26 0.928 . S
C24 N20 1.345 . S
C24 C25 1.371 . S
C24 H27 0.931 . S
C25 C21 1.391 . S
C25 C24 1.371 . S
C25 H32 0.930 . S
H26 C23 0.928 . S
H27 C24 0.931 . S
H28 C4 0.930 . S
H29 C1 0.930 . S
H30 C10 0.930 . S
H31 C22 0.929 . S
H32 C25 0.930 . S
C33 C34 1.351 . S
C33 N36 1.368 . S
C33 H38 0.931 . S
C34 C33 1.351 . S
C34 N35 1.373 1_455 S
C34 H62 0.930 . S
N35 C34 1.373 1_655 S
N35 C37 1.340 . S
N36 C33 1.368 . S
N36 C37 1.321 1_455 S
N36 Co39 2.135 . S
C37 N35 1.340 . S
C37 N36 1.321 1_655 S
C37 H61 0.930 . S
H38 C33 0.931 . S
Co39 N36 2.135 . S
Co39 N42 2.121 . S
Co39 O47 2.055 . S
Co39 O50 2.039 . S
Co39 N53 2.140 . S
C40 O41 1.227 . S
C40 O50 1.265 . S
O41 C40 1.227 . S
N42 Co39 2.121 . S
N42 C44 1.375 . S
N42 C45 1.313 . S
C43 C44 1.338 . S
C43 N46 1.377 . S
C43 H63 0.930 . S
C44 N42 1.375 . S
C44 C43 1.338 . S
C44 H48 0.931 . S
C45 N42 1.313 . S
C45 N46 1.344 . S
C45 H49 0.930 . S
N46 C43 1.377 . S
N46 C45 1.344 . S
O47 Co39 2.055 . S
O47 C51 1.253 . S
H48 C44 0.931 . S
H49 C45 0.930 . S
O50 Co39 2.039 . S
O50 C40 1.265 . S
C51 O47 1.253 . S
C51 O52 1.227 . S
O52 C51 1.227 . S
N53 Co39 2.140 . S
N53 C56 1.346 . S
N53 C57 1.345 . S
C54 C55 1.387 . S
C54 C58 1.391 . S
C55 C54 1.387 . S
C55 C56 1.369 . S
C55 H64 0.929 . S
C56 N53 1.346 . S
C56 C55 1.369 . S
C56 H59 0.928 . S
C57 N53 1.345 . S
C57 C58 1.371 . S
C57 H60 0.931 . S
C58 C54 1.391 . S
C58 C57 1.371 . S
C58 H65 0.930 . S
H59 C56 0.928 . S
H60 C57 0.931 . S
H61 C37 0.930 . S
H62 C34 0.930 . S
H63 C43 0.930 . S
H64 C55 0.929 . S
H65 C58 0.930 . S
C66 C67 1.351 . S
C66 N69 1.368 . S
C66 H71 0.931 . S
C67 C66 1.351 . S
C67 N68 1.373 1_565 S
C67 H95 0.930 . S
N68 C67 1.373 1_545 S
N68 C70 1.340 . S
N69 C66 1.368 . S
N69 C70 1.321 1_565 S
N69 Co72 2.135 . S
C70 N68 1.340 . S
C70 N69 1.321 1_545 S
C70 H94 0.930 . S
H71 C66 0.931 . S
Co72 N69 2.135 . S
Co72 N75 2.121 . S
Co72 O80 2.055 . S
Co72 O83 2.039 . S
Co72 N86 2.140 . S
C73 O74 1.227 . S
C73 O83 1.265 . S
O74 C73 1.227 . S
N75 Co72 2.121 . S
N75 C77 1.375 . S
N75 C78 1.313 . S
C76 C77 1.338 . S
C76 N79 1.377 . S
C76 H96 0.930 . S
C77 N75 1.375 . S
C77 C76 1.338 . S
C77 H81 0.931 . S
C78 N75 1.313 . S
C78 N79 1.344 . S
C78 H82 0.930 . S
N79 C76 1.377 . S
N79 C78 1.344 . S
O80 Co72 2.055 . S
O80 C84 1.253 . S
H81 C77 0.931 . S
H82 C78 0.930 . S
O83 Co72 2.039 . S
O83 C73 1.265 . S
C84 O80 1.253 . S
C84 O85 1.227 . S
O85 C84 1.227 . S
N86 Co72 2.140 . S
N86 C89 1.346 . S
N86 C90 1.345 . S
C87 C88 1.387 . S
C87 C91 1.391 . S
C88 C87 1.387 . S
C88 C89 1.369 . S
C88 H97 0.929 . S
C89 N86 1.346 . S
C89 C88 1.369 . S
C89 H92 0.928 . S
C90 N86 1.345 . S
C90 C91 1.371 . S
C90 H93 0.931 . S
C91 C87 1.391 . S
C91 C90 1.371 . S
C91 H98 0.930 . S
H92 C89 0.928 . S
H93 C90 0.931 . S
H94 C70 0.930 . S
H95 C67 0.930 . S
H96 C76 0.930 . S
H97 C88 0.929 . S
H98 C91 0.930 . S
C99 C100 1.351 . S
C99 N102 1.368 . S
C99 H104 0.931 . S
C100 C99 1.351 . S
C100 N101 1.373 1_655 S
C100 H128 0.930 . S
N101 C100 1.373 1_455 S
N101 C103 1.340 . S
N102 C99 1.368 . S
N102 C103 1.321 1_655 S
N102 Co105 2.135 . S
C103 N101 1.340 . S
C103 N102 1.321 1_455 S
C103 H127 0.930 . S
H104 C99 0.931 . S
Co105 N102 2.135 . S
Co105 N108 2.121 . S
Co105 O113 2.055 . S
Co105 O116 2.039 . S
Co105 N119 2.140 . S
C106 O107 1.227 . S
C106 O116 1.265 . S
O107 C106 1.227 . S
N108 Co105 2.121 . S
N108 C110 1.375 . S
N108 C111 1.313 . S
C109 C110 1.338 . S
C109 N112 1.377 . S
C109 H129 0.930 . S
C110 N108 1.375 . S
C110 C109 1.338 . S
C110 H114 0.931 . S
C111 N108 1.313 . S
C111 N112 1.344 . S
C111 H115 0.930 . S
N112 C109 1.377 . S
N112 C111 1.344 . S
O113 Co105 2.055 . S
O113 C117 1.253 . S
H114 C110 0.931 . S
H115 C111 0.930 . S
O116 Co105 2.039 . S
O116 C106 1.265 . S
C117 O113 1.253 . S
C117 O118 1.227 . S
O118 C117 1.227 . S
N119 Co105 2.140 . S
N119 C122 1.346 . S
N119 C123 1.345 . S
C120 C121 1.387 . S
C120 C124 1.391 . S
C121 C120 1.387 . S
C121 C122 1.369 . S
C121 H130 0.929 . S
C122 N119 1.346 . S
C122 C121 1.369 . S
C122 H125 0.928 . S
C123 N119 1.345 . S
C123 C124 1.371 . S
C123 H126 0.931 . S
C124 C120 1.391 . S
C124 C123 1.371 . S
C124 H131 0.930 . S
H125 C122 0.928 . S
H126 C123 0.931 . S
H127 C103 0.930 . S
H128 C100 0.930 . S
H129 C109 0.930 . S
H130 C121 0.929 . S
H131 C124 0.930 . S
C132 C133 1.351 . S
C132 N135 1.368 . S
C132 H137 0.931 . S
C133 C132 1.351 . S
C133 N134 1.373 1_545 S
C133 H161 0.930 . S
N134 C133 1.373 1_565 S
N134 C136 1.340 . S
N135 C132 1.368 . S
N135 C136 1.321 1_545 S
N135 Co138 2.135 . S
C136 N134 1.340 . S
C136 N135 1.321 1_565 S
C136 H160 0.930 . S
H137 C132 0.931 . S
Co138 N135 2.135 . S
Co138 N141 2.121 . S
Co138 O146 2.055 . S
Co138 O149 2.039 . S
Co138 N152 2.140 . S
C139 O140 1.227 . S
C139 O149 1.265 . S
O140 C139 1.227 . S
N141 Co138 2.121 . S
N141 C143 1.375 . S
N141 C144 1.313 . S
C142 C143 1.338 . S
C142 N145 1.377 . S
C142 H162 0.930 . S
C143 N141 1.375 . S
C143 C142 1.338 . S
C143 H147 0.931 . S
C144 N141 1.313 . S
C144 N145 1.344 . S
C144 H148 0.930 . S
N145 C142 1.377 . S
N145 C144 1.344 . S
O146 Co138 2.055 . S
O146 C150 1.253 . S
H147 C143 0.931 . S
H148 C144 0.930 . S
O149 Co138 2.039 . S
O149 C139 1.265 . S
C150 O146 1.253 . S
C150 O151 1.227 . S
O151 C150 1.227 . S
N152 Co138 2.140 . S
N152 C155 1.346 . S
N152 C156 1.345 . S
C153 C154 1.387 . S
C153 C157 1.391 . S
C154 C153 1.387 . S
C154 C155 1.369 . S
C154 H163 0.929 . S
C155 N152 1.346 . S
C155 C154 1.369 . S
C155 H158 0.928 . S
C156 N152 1.345 . S
C156 C157 1.371 . S
C156 H159 0.931 . S
C157 C153 1.391 . S
C157 C156 1.371 . S
C157 H164 0.930 . S
H158 C155 0.928 . S
H159 C156 0.931 . S
H160 C136 0.930 . S
H161 C133 0.930 . S
H162 C142 0.930 . S
H163 C154 0.929 . S
H164 C157 0.930 . S
C165 C166 1.351 . S
C165 N168 1.368 . S
C165 H170 0.931 . S
C166 C165 1.351 . S
C166 N167 1.373 1_455 S
C166 H194 0.930 . S
N167 C166 1.373 1_655 S
N167 C169 1.340 . S
N168 C165 1.368 . S
N168 C169 1.321 1_455 S
N168 Co171 2.135 . S
C169 N167 1.340 . S
C169 N168 1.321 1_655 S
C169 H193 0.930 . S
H170 C165 0.931 . S
Co171 N168 2.135 . S
Co171 N174 2.121 . S
Co171 O179 2.055 . S
Co171 O182 2.039 . S
Co171 N185 2.140 . S
C172 O173 1.227 . S
C172 O182 1.265 . S
O173 C172 1.227 . S
N174 Co171 2.121 . S
N174 C176 1.375 . S
N174 C177 1.313 . S
C175 C176 1.338 . S
C175 N178 1.377 . S
C175 H195 0.930 . S
C176 N174 1.375 . S
C176 C175 1.338 . S
C176 H180 0.931 . S
C177 N174 1.313 . S
C177 N178 1.344 . S
C177 H181 0.930 . S
N178 C175 1.377 . S
N178 C177 1.344 . S
O179 Co171 2.055 . S
O179 C183 1.253 . S
H180 C176 0.931 . S
H181 C177 0.930 . S
O182 Co171 2.039 . S
O182 C172 1.265 . S
C183 O179 1.253 . S
C183 O184 1.227 . S
O184 C183 1.227 . S
N185 Co171 2.140 . S
N185 C188 1.346 . S
N185 C189 1.345 . S
C186 C187 1.387 . S
C186 C190 1.391 . S
C187 C186 1.387 . S
C187 C188 1.369 . S
C187 H196 0.929 . S
C188 N185 1.346 . S
C188 C187 1.369 . S
C188 H191 0.928 . S
C189 N185 1.345 . S
C189 C190 1.371 . S
C189 H192 0.931 . S
C190 C186 1.391 . S
C190 C189 1.371 . S
C190 H197 0.930 . S
H191 C188 0.928 . S
H192 C189 0.931 . S
H193 C169 0.930 . S
H194 C166 0.930 . S
H195 C175 0.930 . S
H196 C187 0.929 . S
H197 C190 0.930 . S
C198 C199 1.351 . S
C198 N201 1.368 . S
C198 H203 0.931 . S
C199 C198 1.351 . S
C199 N200 1.373 1_565 S
C199 H227 0.930 . S
N200 C199 1.373 1_545 S
N200 C202 1.340 . S
N201 C198 1.368 . S
N201 C202 1.321 1_565 S
N201 Co204 2.135 . S
C202 N200 1.340 . S
C202 N201 1.321 1_545 S
C202 H226 0.930 . S
H203 C198 0.931 . S
Co204 N201 2.135 . S
Co204 N207 2.121 . S
Co204 O212 2.055 . S
Co204 O215 2.039 . S
Co204 N218 2.140 . S
C205 O206 1.227 . S
C205 O215 1.265 . S
O206 C205 1.227 . S
N207 Co204 2.121 . S
N207 C209 1.375 . S
N207 C210 1.313 . S
C208 C209 1.338 . S
C208 N211 1.377 . S
C208 H228 0.930 . S
C209 N207 1.375 . S
C209 C208 1.338 . S
C209 H213 0.931 . S
C210 N207 1.313 . S
C210 N211 1.344 . S
C210 H214 0.930 . S
N211 C208 1.377 . S
N211 C210 1.344 . S
O212 Co204 2.055 . S
O212 C216 1.253 . S
H213 C209 0.931 . S
H214 C210 0.930 . S
O215 Co204 2.039 . S
O215 C205 1.265 . S
C216 O212 1.253 . S
C216 O217 1.227 . S
O217 C216 1.227 . S
N218 Co204 2.140 . S
N218 C221 1.346 . S
N218 C222 1.345 . S
C219 C220 1.387 . S
C219 C223 1.391 . S
C220 C219 1.387 . S
C220 C221 1.369 . S
C220 H229 0.929 . S
C221 N218 1.346 . S
C221 C220 1.369 . S
C221 H224 0.928 . S
C222 N218 1.345 . S
C222 C223 1.371 . S
C222 H225 0.931 . S
C223 C219 1.391 . S
C223 C222 1.371 . S
C223 H230 0.930 . S
H224 C221 0.928 . S
H225 C222 0.931 . S
H226 C202 0.930 . S
H227 C199 0.930 . S
H228 C208 0.930 . S
H229 C220 0.929 . S
H230 C223 0.930 . S
C231 C232 1.351 . S
C231 N234 1.368 . S
C231 H236 0.931 . S
C232 C231 1.351 . S
C232 N233 1.373 1_655 S
C232 H260 0.930 . S
N233 C232 1.373 1_455 S
N233 C235 1.340 . S
N234 C231 1.368 . S
N234 C235 1.321 1_655 S
N234 Co237 2.135 . S
C235 N233 1.340 . S
C235 N234 1.321 1_455 S
C235 H259 0.930 . S
H236 C231 0.931 . S
Co237 N234 2.135 . S
Co237 N240 2.121 . S
Co237 O245 2.055 . S
Co237 O248 2.039 . S
Co237 N251 2.140 . S
C238 O239 1.227 . S
C238 O248 1.265 . S
O239 C238 1.227 . S
N240 Co237 2.121 . S
N240 C242 1.375 . S
N240 C243 1.313 . S
C241 C242 1.338 . S
C241 N244 1.377 . S
C241 H261 0.930 . S
C242 N240 1.375 . S
C242 C241 1.338 . S
C242 H246 0.931 . S
C243 N240 1.313 . S
C243 N244 1.344 . S
C243 H247 0.930 . S
N244 C241 1.377 . S
N244 C243 1.344 . S
O245 Co237 2.055 . S
O245 C249 1.253 . S
H246 C242 0.931 . S
H247 C243 0.930 . S
O248 Co237 2.039 . S
O248 C238 1.265 . S
C249 O245 1.253 . S
C249 O250 1.227 . S
O250 C249 1.227 . S
N251 Co237 2.140 . S
N251 C254 1.346 . S
N251 C255 1.345 . S
C252 C253 1.387 . S
C252 C256 1.391 . S
C253 C252 1.387 . S
C253 C254 1.369 . S
C253 H262 0.929 . S
C254 N251 1.346 . S
C254 C253 1.369 . S
C254 H257 0.928 . S
C255 N251 1.345 . S
C255 C256 1.371 . S
C255 H258 0.931 . S
C256 C252 1.391 . S
C256 C255 1.371 . S
C256 H263 0.930 . S
H257 C254 0.928 . S
H258 C255 0.931 . S
H259 C235 0.930 . S
H260 C232 0.930 . S
H261 C241 0.930 . S
H262 C253 0.929 . S
H263 C256 0.930 . S
C264 C265 1.363 . S
C264 C270 1.379 . S
C264 N272 1.356 . S
C265 C264 1.363 . S
C265 C271 1.363 . S
C266 C267 1.363 . S
C266 C271 1.379 . S
C266 N273 1.356 . S
C267 C266 1.363 . S
C267 C270 1.363 . S
N268 C270 1.356 . S
N268 H280 0.984 . S
N268 H281 0.985 . S
N269 C271 1.356 . S
N269 H274 0.984 . S
N269 H275 0.985 . S
C270 C264 1.379 . S
C270 C267 1.363 . S
C270 N268 1.356 . S
C271 C265 1.363 . S
C271 C266 1.379 . S
C271 N269 1.356 . S
N272 C264 1.356 . S
N272 H278 0.984 1_565 S
N272 H279 0.984 1_565 S
N273 C266 1.356 . S
N273 H276 0.984 . S
N273 H277 0.985 . S
H274 N269 0.984 . S
H275 N269 0.985 . S
H276 N273 0.984 . S
H277 N273 0.985 . S
H278 N272 0.984 1_545 S
H279 N272 0.984 1_545 S
H280 N268 0.984 . S
H281 N268 0.985 . S
C282 C283 1.363 . S
C282 C288 1.379 . S
C282 N290 1.356 . S
C283 C282 1.363 . S
C283 C289 1.363 . S
C284 C285 1.363 . S
C284 C289 1.379 . S
C284 N291 1.356 . S
C285 C284 1.363 . S
C285 C288 1.363 . S
N286 C288 1.356 . S
N286 H298 0.984 1_655 S
N286 H299 0.985 1_655 S
N287 C289 1.356 . S
N287 H292 0.984 . S
N287 H293 0.985 . S
C288 C282 1.379 . S
C288 C285 1.363 . S
C288 N286 1.356 . S
C289 C283 1.363 . S
C289 C284 1.379 . S
C289 N287 1.356 . S
N290 C282 1.356 . S
N290 H296 0.984 . S
N290 H297 0.984 . S
N291 C284 1.356 . S
N291 H294 0.984 . S
N291 H295 0.985 . S
H292 N287 0.984 . S
H293 N287 0.985 . S
H294 N291 0.984 . S
H295 N291 0.985 . S
H296 N290 0.984 . S
H297 N290 0.984 . S
H298 N286 0.984 1_455 S
H299 N286 0.985 1_455 S
C300 C301 1.363 . S
C300 C306 1.379 . S
C300 N308 1.356 . S
C301 C300 1.363 . S
C301 C307 1.363 . S
C302 C303 1.363 . S
C302 C307 1.379 . S
C302 N309 1.356 . S
C303 C302 1.363 . S
C303 C306 1.363 . S
N304 C306 1.356 . S
N304 H316 0.984 . S
N304 H317 0.985 . S
N305 C307 1.356 . S
N305 H310 0.984 1_545 S
N305 H311 0.985 1_545 S
C306 C300 1.379 . S
C306 C303 1.363 . S
C306 N304 1.356 . S
C307 C301 1.363 . S
C307 C302 1.379 . S
C307 N305 1.356 . S
N308 C300 1.356 . S
N308 H314 0.984 . S
N308 H315 0.984 . S
N309 C302 1.356 . S
N309 H312 0.984 . S
N309 H313 0.985 . S
H310 N305 0.984 1_565 S
H311 N305 0.985 1_565 S
H312 N309 0.984 . S
H313 N309 0.985 . S
H314 N308 0.984 . S
H315 N308 0.984 . S
H316 N304 0.984 . S
H317 N304 0.985 . S
C318 C319 1.363 . S
C318 C324 1.379 . S
C318 N326 1.356 . S
C319 C318 1.363 . S
C319 C325 1.363 . S
C320 C321 1.363 . S
C320 C325 1.379 . S
C320 N327 1.356 . S
C321 C320 1.363 . S
C321 C324 1.363 . S
N322 C324 1.356 . S
N322 H334 0.984 . S
N322 H335 0.985 . S
N323 C325 1.356 . S
N323 H328 0.984 . S
N323 H329 0.985 . S
C324 C318 1.379 . S
C324 C321 1.363 . S
C324 N322 1.356 . S
C325 C319 1.363 . S
C325 C320 1.379 . S
C325 N323 1.356 . S
N326 C318 1.356 . S
N326 H332 0.984 . S
N326 H333 0.984 . S
N327 C320 1.356 . S
N327 H330 0.984 1_455 S
N327 H331 0.985 1_455 S
H328 N323 0.984 . S
H329 N323 0.985 . S
H330 N327 0.984 1_655 S
H331 N327 0.985 1_655 S
H332 N326 0.984 . S
H333 N326 0.984 . S
H334 N322 0.984 . S
H335 N322 0.985 . S
C336 C337 1.363 . S
C336 C342 1.379 . S
C336 N344 1.356 . S
C337 C336 1.363 . S
C337 C343 1.363 . S
C338 C339 1.363 . S
C338 C343 1.379 1_554 S
C338 N345 1.356 . S
C339 C338 1.363 . S
C339 C342 1.363 1_554 S
N340 C342 1.356 . S
N340 H352 0.984 . S
N340 H353 0.985 1_556 S
N341 C343 1.356 . S
N341 H346 0.984 . S
N341 H347 0.985 1_556 S
C342 C336 1.379 . S
C342 C339 1.363 1_556 S
C342 N340 1.356 . S
C343 C337 1.363 . S
C343 C338 1.379 1_556 S
C343 N341 1.356 . S
N344 C336 1.356 . S
N344 H350 0.984 . S
N344 H351 0.984 . S
N345 C338 1.356 . S
N345 H348 0.984 . S
N345 H349 0.985 . S
H346 N341 0.984 . S
H347 N341 0.985 1_554 S
H348 N345 0.984 . S
H349 N345 0.985 . S
H350 N344 0.984 . S
H351 N344 0.984 . S
H352 N340 0.984 . S
H353 N340 0.985 1_554 S
C354 C355 1.363 . S
C354 C360 1.379 . S
C354 N362 1.356 . S
C355 C354 1.363 . S
C355 C361 1.363 . S
C356 C357 1.363 . S
C356 C361 1.379 1_556 S
C356 N363 1.356 . S
C357 C356 1.363 . S
C357 C360 1.363 1_556 S
N358 C360 1.356 1_556 S
N358 H370 0.980 1_556 S
N358 H371 0.985 . S
N359 C361 1.356 . S
N359 H364 0.984 . S
N359 H365 0.985 . S
C360 C354 1.379 . S
C360 C357 1.363 1_554 S
C360 N358 1.356 1_554 S
C361 C355 1.363 . S
C361 C356 1.379 1_554 S
C361 N359 1.356 . S
N362 C354 1.356 . S
N362 H368 0.984 . S
N362 H369 0.984 . S
N363 C356 1.356 . S
N363 H366 0.984 1_655 S
N363 H367 0.985 . S
H364 N359 0.984 . S
H365 N359 0.985 . S
H366 N363 0.984 1_455 S
H367 N363 0.985 . S
H368 N362 0.984 . S
H369 N362 0.984 . S
H370 N358 0.980 1_554 S
H371 N358 0.985 . S
C372 C373 1.363 . S
C372 C378 1.379 1_556 S
C372 N380 1.356 . S
C373 C372 1.363 . S
C373 C379 1.363 . S
C374 C375 1.363 1_556 S
C374 C379 1.379 . S
C374 N381 1.368 . S
C375 C374 1.363 1_554 S
C375 C378 1.363 . S
N376 C378 1.356 . S
N376 H388 0.984 . S
N376 H389 0.985 . S
N377 C379 1.356 . S
N377 H382 0.984 . S
N377 H383 0.985 . S
C378 C372 1.379 1_554 S
C378 C375 1.363 . S
C378 N376 1.356 . S
C379 C373 1.363 . S
C379 C374 1.379 . S
C379 N377 1.356 . S
N380 C372 1.356 . S
N380 H386 0.984 . S
N380 H387 0.984 . S
N381 C374 1.368 . S
N381 H384 0.955 1_556 S
N381 H385 1.003 . S
H382 N377 0.984 . S
H383 N377 0.985 . S
H384 N381 0.955 1_554 S
H385 N381 1.003 . S
H386 N380 0.984 . S
H387 N380 0.984 . S
H388 N376 0.984 . S
H389 N376 0.985 . S
C390 C391 1.363 1_554 S
C390 C396 1.379 . S
C390 N398 1.356 1_454 S
C391 C390 1.363 1_556 S
C391 C397 1.363 . S
C392 C393 1.363 . S
C392 C397 1.379 1_554 S
C392 N399 1.356 . S
C393 C392 1.363 . S
C393 C396 1.363 . S
N394 C396 1.356 . S
N394 H406 0.984 . S
N394 H407 0.985 . S
N395 C397 1.356 . S
N395 H400 0.984 . S
N395 H401 0.985 . S
C396 C390 1.379 . S
C396 C393 1.363 . S
C396 N394 1.356 . S
C397 C391 1.363 . S
C397 C392 1.379 1_556 S
C397 N395 1.356 . S
N398 C390 1.356 1_656 S
N398 H404 0.973 1_556 S
N398 H405 0.984 . S
N399 C392 1.356 . S
N399 H402 0.984 . S
N399 H403 0.985 . S
H400 N395 0.984 . S
H401 N395 0.985 . S
H402 N399 0.984 . S
H403 N399 0.985 . S
H404 N398 0.973 1_554 S
H405 N398 0.984 . S
H406 N394 0.984 . S
H407 N394 0.985 . S
C408 C409 1.363 . S
C408 C414 1.386 . S
C408 N416 1.356 . S
C409 C408 1.363 . S
C409 C415 1.355 1_565 S
C410 C411 1.363 . S
C410 C415 1.386 . S
C410 N417 1.356 . S
C411 C410 1.363 . S
C411 C414 1.355 1_545 S
N412 C414 1.354 1_545 S
N412 H424 0.984 1_545 S
N412 H425 0.985 . S
N413 C415 1.354 1_565 S
N413 H418 0.984 . S
N413 H419 0.985 1_565 S
C414 C408 1.386 . S
C414 C411 1.355 1_565 S
C414 N412 1.354 1_565 S
C415 C409 1.355 1_545 S
C415 C410 1.386 . S
C415 N413 1.354 1_545 S
N416 C408 1.356 . S
N416 H422 0.984 . S
N416 H423 0.984 . S
N417 C410 1.356 . S
N417 H420 0.984 . S
N417 H421 0.985 . S
H418 N413 0.984 . S
H419 N413 0.985 1_545 S
H420 N417 0.984 . S
H421 N417 0.985 . S
H422 N416 0.984 . S
H423 N416 0.984 . S
H424 N412 0.984 1_565 S
H425 N412 0.985 . S
C426 C427 1.355 1_655 S
C426 C432 1.386 . S
C426 N434 1.354 1_655 S
C427 C426 1.355 1_455 S
C427 C433 1.363 . S
C428 C429 1.355 1_455 S
C428 C433 1.386 . S
C428 N435 1.354 1_455 S
C429 C428 1.355 1_655 S
C429 C432 1.363 . S
N430 C432 1.356 . S
N430 H442 0.984 . S
N430 H443 0.985 . S
N431 C433 1.356 . S
N431 H436 0.984 . S
N431 H437 0.985 . S
C432 C426 1.386 . S
C432 C429 1.363 . S
C432 N430 1.356 . S
C433 C427 1.363 . S
C433 C428 1.386 . S
C433 N431 1.356 . S
N434 C426 1.354 1_455 S
N434 H440 0.984 1_455 S
N434 H441 0.984 . S
N435 C428 1.354 1_655 S
N435 H438 0.984 . S
N435 H439 0.985 1_655 S
H436 N431 0.984 . S
H437 N431 0.985 . S
H438 N435 0.984 . S
H439 N435 0.985 1_455 S
H440 N434 0.984 1_655 S
H441 N434 0.984 . S
H442 N430 0.984 . S
H443 N430 0.985 . S
C444 C445 1.355 1_565 S
C444 C450 1.386 . S
C444 N452 1.354 1_565 S
C445 C444 1.355 1_545 S
C445 C451 1.363 . S
C446 C447 1.355 1_545 S
C446 C451 1.386 . S
C446 N453 1.354 1_545 S
C447 C446 1.355 1_565 S
C447 C450 1.363 . S
N448 C450 1.356 . S
N448 H460 0.984 . S
N448 H461 0.985 . S
N449 C451 1.356 . S
N449 H454 0.984 . S
N449 H455 0.985 . S
C450 C444 1.386 . S
C450 C447 1.363 . S
C450 N448 1.356 . S
C451 C445 1.363 . S
C451 C446 1.386 . S
C451 N449 1.356 . S
N452 C444 1.354 1_545 S
N452 H458 0.984 1_545 S
N452 H459 0.984 . S
N453 C446 1.354 1_565 S
N453 H456 0.984 . S
N453 H457 0.985 1_565 S
H454 N449 0.984 . S
H455 N449 0.985 . S
H456 N453 0.984 . S
H457 N453 0.985 1_545 S
H458 N452 0.984 1_565 S
H459 N452 0.984 . S
H460 N448 0.984 . S
H461 N448 0.985 . S
C462 C463 1.363 . S
C462 C468 1.386 . S
C462 N470 1.356 . S
C463 C462 1.363 . S
C463 C469 1.355 1_455 S
C464 C465 1.363 . S
C464 C469 1.386 . S
C464 N471 1.356 . S
C465 C464 1.363 . S
C465 C468 1.355 1_655 S
N466 C468 1.354 1_655 S
N466 H478 0.984 1_655 S
N466 H479 0.985 . S
N467 C469 1.354 1_455 S
N467 H472 0.984 . S
N467 H473 0.985 1_455 S
C468 C462 1.386 . S
C468 C465 1.355 1_455 S
C468 N466 1.354 1_455 S
C469 C463 1.355 1_655 S
C469 C464 1.386 . S
C469 N467 1.354 1_655 S
N470 C462 1.356 . S
N470 H476 0.984 . S
N470 H477 0.984 . S
N471 C464 1.356 . S
N471 H474 0.984 . S
N471 H475 0.985 . S
H472 N467 0.984 . S
H473 N467 0.985 1_655 S
H474 N471 0.984 . S
H475 N471 0.985 . S
H476 N470 0.984 . S
H477 N470 0.984 . S
H478 N466 0.984 1_455 S
H479 N466 0.985 . S
C480 C481 1.363 . S
C480 C486 1.379 1_455 S
C480 N488 1.356 . S
C481 C480 1.363 . S
C481 C487 1.363 1_545 S
C482 C483 1.363 . S
C482 C487 1.379 1_655 S
C482 N489 1.356 . S
C483 C482 1.363 . S
C483 C486 1.363 1_565 S
N484 C486 1.356 . S
N484 H496 0.984 . S
N484 H497 0.985 . S
N485 C487 1.356 . S
N485 H490 0.984 . S
N485 H491 0.985 . S
C486 C480 1.379 1_655 S
C486 C483 1.363 1_545 S
C486 N484 1.356 . S
C487 C481 1.363 1_565 S
C487 C482 1.379 1_455 S
C487 N485 1.356 . S
N488 C480 1.356 . S
N488 H494 0.984 . S
N488 H495 0.984 . S
N489 C482 1.356 . S
N489 H492 0.984 . S
N489 H493 0.985 . S
H490 N485 0.984 . S
H491 N485 0.985 . S
H492 N489 0.984 . S
H493 N489 0.985 . S
H494 N488 0.984 . S
H495 N488 0.984 . S
H496 N484 0.984 . S
H497 N484 0.985 . S
C498 C499 1.363 1_655 S
C498 C504 1.379 1_565 S
C498 N506 1.356 . S
C499 C498 1.363 1_455 S
C499 C505 1.363 . S
C500 C501 1.363 1_455 S
C500 C505 1.379 1_545 S
C500 N507 1.356 . S
C501 C500 1.363 1_655 S
C501 C504 1.363 . S
N502 C504 1.356 . S
N502 H514 0.984 . S
N502 H515 0.985 . S
N503 C505 1.356 . S
N503 H508 0.984 . S
N503 H509 0.985 . S
C504 C498 1.379 1_545 S
C504 C501 1.363 . S
C504 N502 1.356 . S
C505 C499 1.363 . S
C505 C500 1.379 1_565 S
C505 N503 1.356 . S
N506 C498 1.356 . S
N506 H512 0.984 . S
N506 H513 0.984 . S
N507 C500 1.356 . S
N507 H510 0.984 . S
N507 H511 0.985 . S
H508 N503 0.984 . S
H509 N503 0.985 . S
H510 N507 0.984 . S
H511 N507 0.985 . S
H512 N506 0.984 . S
H513 N506 0.984 . S
H514 N502 0.984 . S
H515 N502 0.985 . S
C516 C517 1.363 . S
C516 C522 1.379 1_455 S
C516 N524 1.356 . S
C517 C516 1.363 . S
C517 C523 1.363 1_565 S
C518 C519 1.363 . S
C518 C523 1.379 1_655 S
C518 N525 1.356 . S
C519 C518 1.363 . S
C519 C522 1.363 1_545 S
N520 C522 1.356 . S
N520 H532 0.984 . S
N520 H533 0.985 . S
N521 C523 1.356 . S
N521 H526 0.984 . S
N521 H527 0.985 . S
C522 C516 1.379 1_655 S
C522 C519 1.363 1_565 S
C522 N520 1.356 . S
C523 C517 1.363 1_545 S
C523 C518 1.379 1_455 S
C523 N521 1.356 . S
N524 C516 1.356 . S
N524 H530 0.984 . S
N524 H531 0.984 . S
N525 C518 1.356 . S
N525 H528 0.984 . S
N525 H529 0.985 . S
H526 N521 0.984 . S
H527 N521 0.985 . S
H528 N525 0.984 . S
H529 N525 0.985 . S
H530 N524 0.984 . S
H531 N524 0.984 . S
H532 N520 0.984 . S
H533 N520 0.985 . S
C534 C535 1.363 1_455 S
C534 C540 1.379 1_565 S
C534 N542 1.356 . S
C535 C534 1.363 1_655 S
C535 C541 1.363 . S
C536 C537 1.363 1_655 S
C536 C541 1.379 1_545 S
C536 N543 1.356 . S
C537 C536 1.363 1_455 S
C537 C540 1.363 . S
N538 C540 1.356 . S
N538 H550 0.984 . S
N538 H551 0.985 . S
N539 C541 1.356 . S
N539 H544 0.984 . S
N539 H545 0.985 . S
C540 C534 1.379 1_545 S
C540 C537 1.363 . S
C540 N538 1.356 . S
C541 C535 1.363 . S
C541 C536 1.379 1_565 S
C541 N539 1.356 . S
N542 C534 1.356 . S
N542 H548 0.984 . S
N542 H549 0.984 . S
N543 C536 1.356 . S
N543 H546 0.984 . S
N543 H547 0.985 . S
H544 N539 0.984 . S
H545 N539 0.985 . S
H546 N543 0.984 . S
H547 N543 0.985 . S
H548 N542 0.984 . S
H549 N542 0.984 . S
H550 N538 0.984 . S
H551 N538 0.985 . S
C552 C553 1.363 . S
C552 C558 1.379 . S
C552 N560 1.356 . S
C553 C552 1.363 . S
C553 C559 1.363 . S
C554 C555 1.363 . S
C554 C559 1.379 . S
C554 N561 1.356 . S
C555 C554 1.363 . S
C555 C558 1.363 . S
N556 C558 1.356 . S
N556 H568 0.984 . S
N556 H569 0.985 . S
N557 C559 1.356 . S
N557 H562 0.984 . S
N557 H563 0.985 . S
C558 C552 1.379 . S
C558 C555 1.363 . S
C558 N556 1.356 . S
C559 C553 1.363 . S
C559 C554 1.379 . S
C559 N557 1.356 . S
N560 C552 1.356 . S
N560 H566 0.984 . S
N560 H567 0.984 . S
N561 C554 1.356 . S
N561 H564 0.984 . S
N561 H565 0.985 . S
H562 N557 0.984 . S
H563 N557 0.985 . S
H564 N561 0.984 . S
H565 N561 0.985 . S
H566 N560 0.984 . S
H567 N560 0.984 . S
H568 N556 0.984 . S
H569 N556 0.985 . S
C570 C571 1.363 . S
C570 C576 1.379 . S
C570 N578 1.356 . S
C571 C570 1.363 . S
C571 C577 1.363 . S
C572 C573 1.363 . S
C572 C577 1.379 . S
C572 N579 1.356 . S
C573 C572 1.363 . S
C573 C576 1.363 . S
N574 C576 1.356 . S
N574 H586 0.984 . S
N574 H587 0.985 . S
N575 C577 1.356 . S
N575 H580 0.984 . S
N575 H581 0.985 . S
C576 C570 1.379 . S
C576 C573 1.363 . S
C576 N574 1.356 . S
C577 C571 1.363 . S
C577 C572 1.379 . S
C577 N575 1.356 . S
N578 C570 1.356 . S
N578 H584 0.984 . S
N578 H585 0.984 . S
N579 C572 1.356 . S
N579 H582 0.984 . S
N579 H583 0.985 . S
H580 N575 0.984 . S
H581 N575 0.985 . S
H582 N579 0.984 . S
H583 N579 0.985 . S
H584 N578 0.984 . S
H585 N578 0.984 . S
H586 N574 0.984 . S
H587 N574 0.985 . S
C588 C589 1.363 . S
C588 C594 1.379 . S
C588 N596 1.356 . S
C589 C588 1.363 . S
C589 C595 1.363 . S
C590 C591 1.363 . S
C590 C595 1.379 . S
C590 N597 1.356 . S
C591 C590 1.363 . S
C591 C594 1.363 . S
N592 C594 1.356 . S
N592 H604 0.984 . S
N592 H605 0.985 . S
N593 C595 1.356 . S
N593 H598 0.984 . S
N593 H599 0.985 . S
C594 C588 1.379 . S
C594 C591 1.363 . S
C594 N592 1.356 . S
C595 C589 1.363 . S
C595 C590 1.379 . S
C595 N593 1.356 . S
N596 C588 1.356 . S
N596 H602 0.984 . S
N596 H603 0.984 . S
N597 C590 1.356 . S
N597 H600 0.984 . S
N597 H601 0.985 . S
H598 N593 0.984 . S
H599 N593 0.985 . S
H600 N597 0.984 . S
H601 N597 0.985 . S
H602 N596 0.984 . S
H603 N596 0.984 . S
H604 N592 0.984 . S
H605 N592 0.985 . S
C606 C607 1.363 . S
C606 C612 1.379 . S
C606 N614 1.356 . S
C607 C606 1.363 . S
C607 C613 1.363 . S
C608 C609 1.363 . S
C608 C613 1.379 . S
C608 N615 1.356 . S
C609 C608 1.363 . S
C609 C612 1.363 . S
N610 C612 1.356 . S
N610 H622 0.984 . S
N610 H623 0.985 . S
N611 C613 1.356 . S
N611 H616 0.984 . S
N611 H617 0.985 . S
C612 C606 1.379 . S
C612 C609 1.363 . S
C612 N610 1.356 . S
C613 C607 1.363 . S
C613 C608 1.379 . S
C613 N611 1.356 . S
N614 C606 1.356 . S
N614 H620 0.984 . S
N614 H621 0.984 . S
N615 C608 1.356 . S
N615 H618 0.984 . S
N615 H619 0.985 . S
H616 N611 0.984 . S
H617 N611 0.985 . S
H618 N615 0.984 . S
H619 N615 0.985 . S
H620 N614 0.984 . S
H621 N614 0.984 . S
H622 N610 0.984 . S
H623 N610 0.985 . S
C265 N2 1.322 . S
C267 C54 1.142 . S
C283 C87 1.142 . S
C285 N35 1.322 . S
C301 N68 1.322 . S
C303 C120 1.142 . S
C319 C21 1.142 . S
C321 N101 1.322 . S
C337 C252 1.142 . S
C339 N134 1.322 . S
C355 C153 1.142 . S
C357 N167 1.322 . S
C373 C186 1.142 . S
C375 N200 1.322 . S
C391 N233 1.322 . S
C393 C219 1.142 . S
C409 C84 1.618 . S
C411 C18 1.618 . S
C427 C51 1.618 . S
C429 C117 1.618 . S
C445 C150 1.618 . S
C447 C216 1.618 . S
C463 C183 1.618 . S
C465 C249 1.618 . S
C481 C7 1.249 . S
C483 C73 1.249 . S
C499 C40 1.249 . S
C501 C106 1.249 . S
C517 C205 1.249 . S
C519 C139 1.249 . S
C535 C238 1.249 . S
C537 C172 1.249 . S
C553 N13 1.675 . S
C555 N178 1.675 . S
C571 N211 1.675 . S
C573 N46 1.675 . S
C589 N244 1.675 . S
C591 N79 1.675 . S
C607 N112 1.675 . S
C609 N145 1.675 . S
