# Generated by pormake.
# Topology unf, (4)-cn, num edge types: 1
# Building blocks:
#     Node 0, Type 0, BuildingBlock: QUQFOY_clean_sbu_1, # of connection points: 4
#     Node 1, Type 0, BuildingBlock: QUQFOY_clean_sbu_1, # of connection points: 4
#     Node 2, Type 0, BuildingBlock: QUQFOY_clean_sbu_1, # of connection points: 4
#     Node 3, Type 0, BuildingBlock: QUQFOY_clean_sbu_1, # of connection points: 4
#     Node 4, Type 0, BuildingBlock: QUQFOY_clean_sbu_1, # of connection points: 4
#     Node 5, Type 0, BuildingBlock: QUQFOY_clean_sbu_1, # of connection points: 4
#     Node 6, Type 0, BuildingBlock: QUQFOY_clean_sbu_1, # of connection points: 4
#     Node 7, Type 0, BuildingBlock: QUQFOY_clean_sbu_1, # of connection points: 4
#     Node 8, Type 0, BuildingBlock: QUQFOY_clean_sbu_1, # of connection points: 4
#     Node 9, Type 0, BuildingBlock: QUQFOY_clean_sbu_1, # of connection points: 4
#     Node 10, Type 0, BuildingBlock: QUQFOY_clean_sbu_1, # of connection points: 4
#     Node 11, Type 0, BuildingBlock: QUQFOY_clean_sbu_1, # of connection points: 4
#     Edge 12, Type (0, 0), BuildingBlock: EZIPEK_clean_linker_0, # of connection points: 2
#     Edge 13, Type (0, 0), BuildingBlock: EZIPEK_clean_linker_0, # of connection points: 2
#     Edge 14, Type (0, 0), BuildingBlock: EZIPEK_clean_linker_0, # of connection points: 2
#     Edge 15, Type (0, 0), BuildingBlock: EZIPEK_clean_linker_0, # of connection points: 2
#     Edge 16, Type (0, 0), BuildingBlock: EZIPEK_clean_linker_0, # of connection points: 2
#     Edge 17, Type (0, 0), BuildingBlock: EZIPEK_clean_linker_0, # of connection points: 2
#     Edge 18, Type (0, 0), BuildingBlock: EZIPEK_clean_linker_0, # of connection points: 2
#     Edge 19, Type (0, 0), BuildingBlock: EZIPEK_clean_linker_0, # of connection points: 2
#     Edge 20, Type (0, 0), BuildingBlock: EZIPEK_clean_linker_0, # of connection points: 2
#     Edge 21, Type (0, 0), BuildingBlock: EZIPEK_clean_linker_0, # of connection points: 2
#     Edge 22, Type (0, 0), BuildingBlock: EZIPEK_clean_linker_0, # of connection points: 2
#     Edge 23, Type (0, 0), BuildingBlock: EZIPEK_clean_linker_0, # of connection points: 2
#     Edge 24, Type (0, 0), BuildingBlock: EZIPEK_clean_linker_0, # of connection points: 2
#     Edge 25, Type (0, 0), BuildingBlock: EZIPEK_clean_linker_0, # of connection points: 2
#     Edge 26, Type (0, 0), BuildingBlock: EZIPEK_clean_linker_0, # of connection points: 2
#     Edge 27, Type (0, 0), BuildingBlock: EZIPEK_clean_linker_0, # of connection points: 2
#     Edge 28, Type (0, 0), BuildingBlock: EZIPEK_clean_linker_0, # of connection points: 2
#     Edge 29, Type (0, 0), BuildingBlock: EZIPEK_clean_linker_0, # of connection points: 2
#     Edge 30, Type (0, 0), BuildingBlock: EZIPEK_clean_linker_0, # of connection points: 2
#     Edge 31, Type (0, 0), BuildingBlock: EZIPEK_clean_linker_0, # of connection points: 2
#     Edge 32, Type (0, 0), BuildingBlock: EZIPEK_clean_linker_0, # of connection points: 2
#     Edge 33, Type (0, 0), BuildingBlock: EZIPEK_clean_linker_0, # of connection points: 2
#     Edge 34, Type (0, 0), BuildingBlock: EZIPEK_clean_linker_0, # of connection points: 2
#     Edge 35, Type (0, 0), BuildingBlock: EZIPEK_clean_linker_0, # of connection points: 2
# Relax obj value: 0.112
# Max RMSD: 0.152
# Mean RMSD: 0.152
data_MOF--net-unf--node1-QUQFOY_clean_sbu_1--edge1-EZIPEK_clean_linker_0
_symmetry_space_group_name_H-M    P1
_symmetry_Int_Tables_number       1
_symmetry_cell_setting            triclinic
loop_
_symmetry_equiv_pos_as_xyz
'x, y, z'
_cell_length_a     30.221145
_cell_length_b     30.294298
_cell_length_c     30.368359
_cell_angle_alpha  90.332184
_cell_angle_beta   90.131098
_cell_angle_gamma 119.85205
loop_
_atom_site_label
_atom_site_type_symbol
_atom_site_fract_x
_atom_site_fract_y
_atom_site_fract_z
_atom_type_partial_charge
O0 O 0.11153 0.31815 0.07017 0.0
Cd1 Cd 0.06577 0.31396 0.12189 0.0
Cd2 Cd 0.04531 0.36814 0.05148 0.0
O3 O 0.11415 0.37916 0.02877 0.0
O4 O 0.08796 0.28314 0.16915 0.0
O5 O 0.09834 0.36048 0.17468 0.0
C6 C 0.10496 0.32496 0.19114 0.0
C7 C 0.01839 0.4252 0.03159 0.0
C8 C 0.12979 0.34838 0.03782 0.0
C9 C 0.96551 0.26052 0.07873 0.0
O10 O -0.01555 0.29562 0.05037 0.0
O11 O -0.01096 0.26319 0.11423 0.0
O12 O 0.02319 0.39662 1.00283 0.0
O13 O 0.03175 0.42387 0.07174 0.0
O14 O 0.6606 0.77602 0.04612 0.0
Cd15 Cd 0.66241 0.7408 0.10339 0.0
Cd16 Cd 0.6241 0.65813 0.03478 0.0
O17 O 0.62164 0.71318 0.99744 0.0
O18 O 0.68213 0.79696 0.14747 0.0
O19 O 0.60955 0.72426 0.15118 0.0
C20 C 0.63953 0.76911 0.16711 0.0
C21 C 0.57033 0.57368 0.01322 0.0
C22 C 0.64223 0.75992 0.00789 0.0
C23 C 0.72902 0.69869 0.07968 0.0
O24 O 0.69568 0.67253 0.05077 0.0
O25 O 0.72224 0.72651 0.10714 0.0
O26 O 0.60748 0.60452 0.98892 0.0
O27 O 0.56244 0.59064 0.04968 0.0
O28 O 0.18555 0.85086 0.04653 0.0
Cd29 Cd 0.22067 0.8959 0.10101 0.0
Cd30 Cd 0.305 0.91991 0.04275 0.0
O31 O 0.25105 0.85826 0.00811 0.0
O32 O 0.16432 0.87015 0.14486 0.0
O33 O 0.23542 0.8675 0.15559 0.0
C34 C 0.19116 0.85789 0.16948 0.0
C35 C 0.38939 0.94075 0.03315 0.0
C36 C 0.20344 0.83874 0.01375 0.0
C37 C 0.2741 -0.00058 0.0648 0.0
O38 O 0.29799 0.98348 0.04141 0.0
O39 O 0.24295 0.97175 0.09414 0.0
O40 O 0.36279 0.94313 1.00126 0.0
O41 O 0.3678 0.92454 0.07078 0.0
O42 O 0.6623 0.88777 0.44039 0.0
Cd43 Cd 0.64309 0.91776 0.38767 0.0
Cd44 Cd 0.59503 0.93309 0.46568 0.0
O45 O 0.59538 0.86752 0.482 0.0
O46 O 0.67207 0.89826 0.33701 0.0
O47 O 0.58953 0.87078 0.34351 0.0
C48 C 0.62638 0.87084 0.32205 0.0
C49 C 0.54169 0.95495 0.50327 0.0
C50 C 0.63394 0.86327 0.47248 0.0
C51 C 0.68735 0.02024 0.421 0.0
O52 O 0.66267 -0.00112 0.45554 0.0
O53 O 0.6793 -0.00429 0.38514 0.0
O54 O 0.57812 0.95297 0.52328 0.0
O55 O 0.53277 0.94085 0.46251 0.0
O56 O 0.11112 0.79318 0.45712 0.0
Cd57 Cd 0.06116 0.75527 0.40611 0.0
Cd58 Cd 0.05125 0.67783 0.45503 0.0
O59 O 0.11974 0.72977 0.48263 0.0
O60 O 0.08419 0.80518 0.35729 0.0
O61 O 0.08565 0.73267 0.35376 0.0
C62 C 0.09567 0.77533 0.336 0.0
C63 C 0.02599 0.59239 0.45319 0.0
C64 C 0.13297 0.77657 0.4824 0.0
C65 C 0.96622 0.70298 0.45329 0.0
O66 O -0.01036 0.68399 0.47314 0.0
O67 O -0.01455 0.73043 0.41951 0.0
O68 O 0.03448 0.61679 0.48976 0.0
O69 O 0.03586 0.61721 0.41678 0.0
O70 O 0.18283 0.32018 0.47345 0.0
Cd71 Cd 0.22938 0.31739 0.42579 0.0
Cd72 Cd 0.29553 0.37101 0.5016 0.0
O73 O 0.23394 0.3762 0.52327 0.0
O74 O 0.17891 0.28499 0.37655 0.0
O75 O 0.24483 0.3629 0.37258 0.0
C76 C 0.20361 0.32672 0.35507 0.0
C77 C 0.37902 0.43203 0.51836 0.0
C78 C 0.18953 0.34625 0.50828 0.0
C79 C 0.27403 0.265 0.47371 0.0
O80 O 0.28734 0.30012 0.50225 0.0
O81 O 0.25475 0.26663 0.43697 0.0
O82 O 0.3616 0.42799 0.47877 0.0
O83 O 0.34822 0.40417 0.54861 0.0
O84 O 0.90638 0.70695 0.95942 0.0
Cd85 Cd 0.92315 0.68353 0.90064 0.0
Cd86 Cd 0.9259 0.6209 0.96164 0.0
O87 O 0.8678 0.63034 0.98676 0.0
O88 O 0.90106 0.7148 0.85397 0.0
O89 O 0.86689 0.63145 0.86159 0.0
C90 C 0.86829 0.6694 0.8411 0.0
C91 C 0.93391 0.55045 0.97826 0.0
C92 C 0.87513 0.6754 0.9867 0.0
C93 C 0.02257 0.70973 0.92637 0.0
O94 O -0.00177 0.68327 0.95929 0.0
O95 O -0.001 0.70793 0.89125 0.0
O96 O 0.94011 0.5835 0.00796 0.0
O97 O 0.91769 0.55427 0.93987 0.0
O98 O 0.27156 0.17959 0.95489 0.0
Cd99 Cd 0.285 0.2273 0.90332 0.0
Cd100 Cd 0.3623 0.2881 0.95522 0.0
O101 O 0.35187 0.21825 0.97593 0.0
O102 O 0.2605 0.18349 0.8497 0.0
O103 O 0.34215 0.24008 0.86219 0.0
C104 C 0.3077 0.20372 0.83819 0.0
C105 C 0.43803 0.3638 0.96497 0.0
C106 C 0.30719 0.17968 0.97695 0.0
C107 C 0.26583 0.29804 0.94719 0.0
O108 O 0.30577 0.30542 0.96738 0.0
O109 O 0.25157 0.27094 0.91241 0.0
O110 O 0.41246 0.33724 0.99811 0.0
O111 O 0.42421 0.34437 0.92596 0.0
O112 O 0.79959 0.09655 0.95446 0.0
Cd113 Cd 0.75415 0.05342 0.90207 0.0
Cd114 Cd 0.68053 0.02924 0.97354 0.0
O115 O 0.74241 0.08655 1.00481 0.0
O116 O 0.80202 0.07847 0.85121 0.0
O117 O 0.7334 0.08686 0.85525 0.0
C118 C 0.77364 0.09453 0.83413 0.0
C119 C 0.60013 0.01469 0.99178 0.0
C120 C 0.78824 0.10694 0.99196 0.0
C121 C 0.69582 0.94589 0.9324 0.0
O122 O 0.67883 0.96206 0.9628 0.0
O123 O 0.72404 0.97521 0.90225 0.0
O124 O 0.62729 0.00643 0.01952 0.0
O125 O 0.61964 0.03423 0.95415 0.0
O126 O 0.27356 0.07574 0.57406 0.0
Cd127 Cd 0.29418 0.04404 0.62455 0.0
Cd128 Cd 0.35481 0.0539 0.56462 0.0
O129 O 0.35217 0.11861 0.5503 0.0
O130 O 0.2673 0.05878 0.67904 0.0
O131 O 0.35007 0.09329 0.66498 0.0
C132 C 0.31401 0.09045 0.68976 0.0
C133 C 0.42529 0.04379 0.56304 0.0
C134 C 0.30745 0.11239 0.55199 0.0
C135 C 0.26639 0.95331 0.57819 0.0
O136 O 0.29118 0.9861 0.54902 0.0
O137 O 0.27008 0.96737 0.61815 0.0
O138 O 0.40616 0.05025 0.5273 0.0
O139 O 0.40807 0.04923 0.60041 0.0
O140 O 0.83804 0.17969 0.54243 0.0
Cd141 Cd 0.88376 0.21553 0.59599 0.0
Cd142 Cd 0.90018 0.30641 0.53566 0.0
O143 O 0.84508 0.24387 0.50217 0.0
O144 O 0.86247 0.16139 0.64135 0.0
O145 O 0.85572 0.23043 0.65077 0.0
C146 C 0.84909 0.1877 0.66568 0.0
C147 C 0.92362 0.38361 0.50149 0.0
C148 C 0.8265 0.19659 0.5087 0.0
C149 C -0.01186 0.28758 0.56735 0.0
O150 O 0.96856 0.31236 0.55117 0.0
O151 O 0.96085 0.24543 0.58645 0.0
O152 O 0.92872 0.34876 0.48217 0.0
O153 O 0.90085 0.37345 0.539 0.0
O154 O 0.78982 0.69864 0.5715 0.0
Cd155 Cd 0.74062 0.69517 0.6192 0.0
Cd156 Cd 0.67614 0.62553 0.56095 0.0
O157 O 0.74036 0.62368 0.54063 0.0
O158 O 0.78449 0.72237 0.67272 0.0
O159 O 0.72108 0.64264 0.6667 0.0
C160 C 0.75965 0.67712 0.6887 0.0
C161 C 0.59401 0.55712 0.55525 0.0
C162 C 0.78376 0.66351 0.54501 0.0
C163 C 0.68462 0.72989 0.56797 0.0
O164 O 0.67361 0.6899 0.54606 0.0
O165 O 0.70739 0.73833 0.6049 0.0
O166 O 0.6211 0.5773 0.52077 0.0
O167 O 0.61522 0.57221 0.59352 0.0
C168 C 0.20733 0.34085 0.03575 0.0
C169 C 0.17071 0.34712 0.012 0.0
C170 C 0.20565 0.33388 0.94356 0.0
C171 C 0.23328 0.31592 0.96851 0.0
N172 N 0.24537 0.28815 0.04043 0.0
N173 N 0.13077 0.34331 0.9416 0.0
C174 C 0.23041 0.31576 0.01528 0.0
C175 C 0.1688 0.34246 0.96526 0.0
N176 N 0.21949 0.35805 0.07812 0.0
N177 N 0.21525 0.34407 0.89979 0.0
H178 H 0.10228 0.34838 0.95578 0.0
H179 H 0.12519 0.33464 0.90806 0.0
H180 H 0.24374 0.34086 0.8833 0.0
H181 H 0.19889 0.3612 0.88129 0.0
H182 H 0.24869 0.35693 0.09558 0.0
H183 H 0.20448 0.37862 0.09348 0.0
H184 H 0.2404 0.28508 0.07448 0.0
H185 H 0.25538 0.26251 0.02725 0.0
C186 C 0.61415 0.80996 0.96188 0.0
C187 C 0.65219 0.79806 0.97379 0.0
C188 C 0.71877 0.87748 0.94221 0.0
C189 C 0.68131 0.8916 0.93385 0.0
N190 N 0.59321 0.86583 0.92089 0.0
N191 N 0.73594 0.80979 0.9616 0.0
C192 C 0.62872 0.85555 0.93843 0.0
C193 C 0.70297 0.82824 0.95898 0.0
N194 N 0.56498 0.7793 0.97511 0.0
N195 N 0.76941 0.91212 0.93762 0.0
H196 H 0.72478 0.77353 0.97362 0.0
H197 H 0.77229 0.82801 0.94795 0.0
H198 H 0.78262 0.94816 0.92441 0.0
H199 H 0.79851 0.90603 0.94884 0.0
H200 H 0.53647 0.78886 0.97191 0.0
H201 H 0.55324 0.74485 0.99112 0.0
H202 H 0.5542 0.84 0.92046 0.0
H203 H 0.60369 0.8989 0.90297 0.0
C204 C 0.1505 0.75477 0.97574 0.0
C205 C 0.16787 0.80745 0.9786 0.0
C206 C 0.09795 0.79804 0.93165 0.0
C207 C 0.07793 0.74457 0.93186 0.0
N208 N 0.09304 0.67434 0.93972 0.0
N209 N 0.17075 0.88141 0.94699 0.0
C210 C 0.10731 0.72382 0.94894 0.0
C211 C 0.14585 0.8298 0.9521 0.0
N212 N 0.17359 0.73421 1.00029 0.0
N213 N 0.06975 0.81824 0.91533 0.0
H214 H 0.20635 0.90522 0.96137 0.0
H215 H 0.15887 0.89986 0.92514 0.0
H216 H 0.03508 0.79679 0.89898 0.0
H217 H 0.0796 0.85616 0.91988 0.0
H218 H 0.15921 0.69523 1.00347 0.0
H219 H 0.20633 0.75654 0.01909 0.0
H220 H 0.11425 0.65728 0.94875 0.0
H221 H 0.06216 0.65207 0.91897 0.0
C222 C 0.68775 0.77808 0.50117 0.0
C223 C 0.67574 0.76851 0.54647 0.0
C224 C 0.64343 0.82818 0.5453 0.0
C225 C 0.64661 0.82966 0.49847 0.0
N226 N 0.65949 0.79319 0.43179 0.0
N227 N 0.63374 0.77839 0.61034 0.0
C228 C 0.66526 0.80095 0.4763 0.0
C229 C 0.65126 0.79189 0.56839 0.0
N230 N 0.72171 0.76663 0.48196 0.0
N231 N 0.63561 0.86271 0.56805 0.0
H232 H 0.63763 0.75116 0.62808 0.0
H233 H 0.61116 0.79087 0.62585 0.0
H234 H 0.63329 0.89231 0.55298 0.0
H235 H 0.63749 0.86554 0.60231 0.0
H236 H 0.7343 0.77672 0.44969 0.0
H237 H 0.74193 0.75297 0.49975 0.0
H238 H 0.66909 0.76891 0.41519 0.0
H239 H 0.63934 0.80555 0.41241 0.0
C240 C 0.14972 0.82541 0.55193 0.0
C241 C 0.16931 0.81156 0.51543 0.0
C242 C 0.25521 0.87888 0.53418 0.0
C243 C 0.23405 0.89969 0.56401 0.0
N244 N 0.15971 0.89358 0.59999 0.0
N245 N 0.24032 0.82299 0.47155 0.0
C246 C 0.18104 0.87264 0.5735 0.0
C247 C 0.22216 0.83709 0.50691 0.0
N248 N 0.10094 0.79346 0.56548 0.0
N249 N 0.3069 0.89929 0.53209 0.0
H250 H 0.21703 0.79127 0.452 0.0
H251 H 0.27768 0.84404 0.46035 0.0
H252 H 0.33188 0.92971 0.55206 0.0
H253 H 0.32461 0.88328 0.51386 0.0
H254 H 0.08573 0.7993 0.59422 0.0
H255 H 0.07764 0.75826 0.55035 0.0
H256 H 0.12046 0.87808 0.6034 0.0
H257 H 0.1806 0.92841 0.61614 0.0
C258 C 0.05695 0.32095 0.51127 0.0
C259 C 0.04173 0.30478 0.55527 0.0
C260 C 0.12821 0.32172 0.57199 0.0
C261 C 0.14357 0.34209 0.52909 0.0
N262 N 0.12648 0.37681 0.46441 0.0
N263 N 0.06592 0.3 0.63018 0.0
C264 C 0.10921 0.34733 0.50115 0.0
C265 C 0.07828 0.30827 0.58663 0.0
N266 N 0.02166 0.30781 0.4782 0.0
N267 N 0.15999 0.31289 0.59782 0.0
H268 H 0.03003 0.2909 0.64202 0.0
H269 H 0.09262 0.30668 0.65484 0.0
H270 H 0.19692 0.32272 0.58848 0.0
H271 H 0.14842 0.29279 0.62722 0.0
H272 H 0.03178 0.31571 0.44518 0.0
H273 H 0.9827 0.2833 0.48268 0.0
H274 H 0.10306 0.38495 0.44484 0.0
H275 H 0.16517 0.39732 0.45649 0.0
C276 C 0.79331 0.67003 0.08353 0.0
C277 C 0.78046 0.70706 0.07133 0.0
C278 C 0.83371 0.72831 1.00642 0.0
C279 C 0.84731 0.69094 0.01806 0.0
N280 N 0.85602 0.64294 0.07785 0.0
N281 N 0.8048 0.78498 0.03326 0.0
C282 C 0.83227 0.66699 0.05997 0.0
C283 C 0.80743 0.74153 0.03747 0.0
N284 N 0.76732 0.63699 0.11659 0.0
N285 N 0.84052 0.74759 0.96481 0.0
H286 H 0.78457 0.79465 0.05541 0.0
H287 H 0.82705 0.81345 0.01092 0.0
H288 H 0.85388 0.73568 0.93847 0.0
H289 H 0.82643 0.77114 0.9548 0.0
H290 H 0.77122 0.60547 0.12373 0.0
H291 H 0.74024 0.64038 0.13538 0.0
H292 H 0.84827 0.6278 0.10946 0.0
H293 H 0.88786 0.64398 0.06352 0.0
C294 C 0.31487 0.13813 0.04632 0.0
C295 C 0.29599 0.13374 1.00254 0.0
C296 C 0.24791 0.04124 0.01009 0.0
C297 C 0.27444 0.0455 0.04958 0.0
N298 N 0.33567 0.09724 0.10498 0.0
N299 N 0.25184 0.07892 0.9398 0.0
C300 C 0.30858 0.09378 0.06782 0.0
C301 C 0.26404 0.0847 0.98366 0.0
N302 N 0.33658 0.18383 0.06807 0.0
N303 N 0.20764 -0.00468 0.99755 0.0
H304 H 0.26524 0.109 0.91783 0.0
H305 H 0.2331 0.04353 0.92409 0.0
H306 H 0.19466 0.96269 0.01667 0.0
H307 H 0.18397 -0.00895 0.97091 0.0
H308 H 0.34693 0.18794 0.10122 0.0
H309 H 0.33922 0.2166 0.05454 0.0
H310 H 0.36545 0.13155 0.11699 0.0
H311 H 0.33001 0.0652 0.12232 0.0
C312 C 0.8738 0.2239 0.06124 0.0
C313 C 0.91557 0.21588 0.06827 0.0
C314 C 0.86701 0.13066 0.03586 0.0
C315 C 0.82953 0.14266 0.02158 0.0
N316 N 0.79799 0.20186 0.01819 0.0
N317 N 0.95388 0.16279 0.06107 0.0
C318 C 0.83255 0.18926 0.03421 0.0
C319 C 0.91246 0.16919 0.056 0.0
N320 N 0.87398 0.26492 0.08043 0.0
N321 N 0.85871 0.08223 0.03076 0.0
H322 H -0.01251 0.1896 0.07662 0.0
H323 H 0.95606 0.13227 0.04755 0.0
H324 H 0.82549 0.05294 0.01651 0.0
H325 H 0.88233 0.06992 0.04434 0.0
H326 H 0.84284 0.27079 0.07979 0.0
H327 H 0.90376 0.29046 0.10081 0.0
H328 H 0.8017 0.2377 0.02226 0.0
H329 H 0.76751 0.17787 0.99778 0.0
C330 C 0.26504 0.16565 0.55068 0.0
C331 C 0.29459 0.14752 0.52893 0.0
C332 C 0.30653 0.20323 0.46639 0.0
C333 C 0.27493 0.21895 0.48749 0.0
N334 N 0.21086 0.20263 0.54203 0.0
N335 N 0.33006 0.13788 0.46055 0.0
C336 C 0.24966 0.19576 0.52704 0.0
C337 C 0.31139 0.16291 0.48503 0.0
N338 N 0.25439 0.15734 0.5946 0.0
N339 N 0.33346 0.22794 0.4298 0.0
H340 H 0.33155 0.10629 0.47206 0.0
H341 H 0.33865 0.14486 0.42722 0.0
H342 H 0.3302 0.25714 0.41491 0.0
H343 H 0.36156 0.2218 0.41615 0.0
H344 H 0.23775 0.17472 0.61247 0.0
H345 H 0.26692 0.13791 0.61454 0.0
H346 H 0.18806 0.18278 0.56867 0.0
H347 H 0.19791 0.22382 0.52485 0.0
C348 C 0.74564 0.15159 0.46405 0.0
C349 C 0.7951 0.16002 0.47405 0.0
C350 C 0.77882 0.08448 0.43175 0.0
C351 C 0.728 0.0736 0.42526 0.0
N352 N 0.66802 0.10335 0.4208 0.0
N353 N 0.8647 0.14618 0.45517 0.0
C354 C 0.71335 0.10988 0.43631 0.0
C355 C 0.81372 0.13031 0.4536 0.0
N356 N 0.72848 0.18112 0.48327 0.0
N357 N 0.7926 0.04945 0.41982 0.0
H358 H 0.89118 0.18013 0.47057 0.0
H359 H 0.88132 0.1285 0.43778 0.0
H360 H 0.7684 0.01643 0.40213 0.0
H361 H 0.82707 0.05205 0.42889 0.0
H362 H 0.69096 0.17351 0.48086 0.0
H363 H 0.75124 0.21207 0.50372 0.0
H364 H 0.65637 0.1302 0.42468 0.0
H365 H 0.64418 0.07257 0.40049 0.0
C366 C 0.92122 0.70832 0.51926 0.0
C367 C 0.91924 0.69675 0.47381 0.0
C368 C 0.82732 0.66543 0.47341 0.0
C369 C 0.82869 0.67024 0.52012 0.0
N370 N 0.876 0.68448 0.58805 0.0
N371 N 0.86905 0.65672 0.40855 0.0
C372 C 0.87541 0.68819 0.54323 0.0
C373 C 0.87191 0.67321 0.45096 0.0
N374 N 0.96693 0.73992 0.53931 0.0
N375 N 0.78465 0.65602 0.45024 0.0
H376 H 0.90088 0.66186 0.39102 0.0
H377 H 0.83455 0.63439 0.39209 0.0
H378 H 0.75167 0.65169 0.46507 0.0
H379 H 0.78373 0.65736 0.41599 0.0
H380 H 0.96991 0.75291 0.57164 0.0
H381 H 0.00118 0.75791 0.52201 0.0
H382 H 0.90886 0.69297 0.60586 0.0
H383 H 0.84283 0.66745 0.60682 0.0
C384 C 0.2063 0.33526 0.27264 0.0
C385 C 0.1823 0.33352 0.31315 0.0
C386 C 0.11237 0.33611 0.27357 0.0
C387 C 0.13352 0.33221 0.23305 0.0
N388 N 0.19983 0.32737 0.19296 0.0
N389 N 0.11301 0.33219 0.35347 0.0
C390 C 0.18049 0.33194 0.23233 0.0
C391 C 0.13563 0.33433 0.31394 0.0
N392 N 0.25379 0.3401 0.27281 0.0
N393 N 0.06989 0.34127 0.27343 0.0
H394 H 0.13045 0.33435 0.38368 0.0
H395 H 0.07619 0.32625 0.35678 0.0
H396 H 0.05015 0.33983 0.24478 0.0
H397 H 0.05556 0.34993 0.30123 0.0
H398 H 0.27605 0.34708 0.24484 0.0
H399 H 0.2728 0.34046 0.30162 0.0
H400 H 0.23017 0.32052 0.18994 0.0
H401 H 0.18397 0.32819 0.16271 0.0
C402 C 0.61563 0.76574 0.24732 0.0
C403 C 0.62545 0.78993 0.2057 0.0
C404 C 0.6271 0.86446 0.23979 0.0
C405 C 0.61755 0.84037 0.28127 0.0
N406 N 0.58899 0.76376 0.32305 0.0
N407 N 0.62584 0.85519 0.16034 0.0
C408 C 0.60704 0.78939 0.28445 0.0
C409 C 0.6266 0.83716 0.20135 0.0
N410 N 0.61779 0.72201 0.25209 0.0
N411 N 0.63805 0.91392 0.23733 0.0
H412 H 0.62394 0.83536 0.13152 0.0
H413 H 0.62193 0.88698 0.15487 0.0
H414 H 0.63606 0.93408 0.26451 0.0
H415 H 0.65161 0.93574 0.20898 0.0
H416 H 0.61689 0.70592 0.28252 0.0
H417 H 0.62443 0.70367 0.22595 0.0
H418 H 0.57632 0.72511 0.3265 0.0
H419 H 0.58186 0.78013 0.35047 0.0
C420 C 0.19459 0.85844 0.25224 0.0
C421 C 0.17072 0.83299 0.21237 0.0
C422 C 0.09852 0.76696 0.2537 0.0
C423 C 0.12294 0.79189 0.29354 0.0
N424 N 0.19911 0.85357 0.33167 0.0
N425 N 0.1065 0.75756 0.17516 0.0
C426 C 0.17258 0.83525 0.29306 0.0
C427 C 0.12463 0.78547 0.21314 0.0
N428 N 0.23669 0.90597 0.2512 0.0
N429 N 0.04958 0.72711 0.25443 0.0
H430 H 0.1251 0.76974 0.14503 0.0
H431 H 0.07591 0.72046 0.17417 0.0
H432 H 0.02954 0.71211 0.28354 0.0
H433 H 0.02753 0.71116 0.2262 0.0
H434 H 0.25209 0.9289 0.27905 0.0
H435 H 0.25413 0.92432 0.22205 0.0
H436 H 0.23736 0.88176 0.33314 0.0
H437 H 0.18434 0.8372 0.36216 0.0
C438 C 0.83607 0.64015 0.76372 0.0
C439 C 0.83274 0.6619 0.80421 0.0
C440 C 0.77444 0.68661 0.77042 0.0
C441 C 0.77794 0.66514 0.72989 0.0
N442 N 0.80192 0.61108 0.69018 0.0
N443 N 0.78833 0.6926 0.84949 0.0
C444 C 0.80514 0.63814 0.72741 0.0
C445 C 0.79866 0.68112 0.80856 0.0
N446 N 0.87107 0.62437 0.75907 0.0
N447 N 0.7487 0.71303 0.77221 0.0
H448 H 0.80392 0.68683 0.87806 0.0
H449 H 0.76062 0.70268 0.85559 0.0
H450 H 0.72786 0.71501 0.7456 0.0
H451 H 0.74996 0.73494 0.79924 0.0
H452 H 0.87989 0.61408 0.72899 0.0
H453 H 0.89418 0.62494 0.78485 0.0
H454 H 0.81659 0.5865 0.68794 0.0
H455 H 0.78073 0.60967 0.66256 0.0
C456 C 0.32389 0.20019 0.75738 0.0
C457 C 0.32169 0.18184 0.80055 0.0
C458 C 0.3239 0.10736 0.77123 0.0
C459 C 0.32497 0.12508 0.72799 0.0
N460 N 0.34095 0.1945 0.68006 0.0
N461 N 0.33569 0.12761 0.84935 0.0
C462 C 0.32999 0.17369 0.72113 0.0
C463 C 0.32691 0.13842 0.80772 0.0
N464 N 0.31843 0.24184 0.75101 0.0
N465 N 0.31861 0.06032 0.77735 0.0
H466 H 0.3402 0.15109 0.87625 0.0
H467 H 0.34373 0.09876 0.85652 0.0
H468 H 0.31877 0.03778 0.7513 0.0
H469 H 0.3115 0.04263 0.80787 0.0
H470 H 0.31367 0.25371 0.72013 0.0
H471 H 0.31601 0.26313 0.77708 0.0
H472 H 0.34907 0.23146 0.67341 0.0
H473 H 0.34675 0.17638 0.65321 0.0
C474 C 0.76026 0.09842 0.7528 0.0
C475 C 0.7883 0.12212 0.79174 0.0
C476 C 0.85443 0.19177 0.74834 0.0
C477 C 0.82614 0.16836 0.70943 0.0
N478 N 0.74754 0.10624 0.67486 0.0
N479 N 0.85535 0.19615 0.82823 0.0
C480 C 0.77753 0.12375 0.71179 0.0
C481 C 0.83334 0.1704 0.78997 0.0
N482 N 0.71859 0.05067 0.7547 0.0
N483 N 0.90248 0.2329 0.74541 0.0
H484 H 0.84066 0.18161 0.85922 0.0
H485 H 0.88523 0.23362 0.82929 0.0
H486 H 0.91893 0.25009 0.71559 0.0
H487 H 0.92746 0.24797 0.77207 0.0
H488 H 0.70011 0.02878 0.72697 0.0
H489 H 0.7043 0.03132 0.78419 0.0
H490 H 0.70973 0.07696 0.67511 0.0
H491 H 0.75905 0.12407 0.64439 0.0
C492 C 0.01999 0.49336 0.98469 0.0
C493 C -0.00386 0.45698 0.01836 0.0
C494 C 0.92801 0.47851 0.02314 0.0
C495 C 0.95042 0.51287 0.98769 0.0
N496 N 0.01202 0.54529 0.92864 0.0
N497 N 0.9224 0.40719 0.06369 0.0
C498 C -0.00559 0.51761 0.96636 0.0
C499 C 0.94876 0.44743 0.0361 0.0
N500 N 0.06837 0.50667 0.97174 0.0
N501 N 0.88693 0.47571 0.0445 0.0
H502 H 0.93607 0.38332 0.07377 0.0
H503 H 0.88516 0.39478 0.07378 0.0
H504 H 0.86806 0.49461 0.03362 0.0
H505 H 0.873 0.45656 0.07406 0.0
H506 H 0.09021 0.53715 0.95107 0.0
H507 H 0.08884 0.49053 0.98509 0.0
H508 H 0.04033 0.54527 0.90918 0.0
H509 H -0.00439 0.56486 0.91432 0.0
C510 C 0.49963 0.50793 0.96687 0.0
C511 C 0.53796 0.52019 0.99919 0.0
C512 C 0.51831 0.4313 1.00035 0.0
C513 C 0.47616 0.41808 0.97197 0.0
N514 N 0.42119 0.44251 0.93393 0.0
N515 N 0.5827 0.49437 0.04928 0.0
C516 C 0.4656 0.45606 0.95626 0.0
C517 C 0.54706 0.48208 0.01668 0.0
N518 N 0.49564 0.54586 0.94631 0.0
N519 N 0.53139 0.3954 0.01072 0.0
H520 H 0.60569 0.53149 0.06091 0.0
H521 H 0.58739 0.46755 0.06681 0.0
H522 H 0.51132 0.35814 0.99864 0.0
H523 H 0.56439 0.40335 0.02794 0.0
H524 H 0.47262 0.53964 0.91875 0.0
H525 H 0.51818 0.58425 0.95468 0.0
H526 H 0.40861 0.46801 0.92663 0.0
H527 H 0.39436 0.40507 0.92582 0.0
C528 C 0.4567 0.9301 0.996 0.0
C529 C 0.44368 0.95768 0.02605 0.0
C530 C 0.53378 0.02235 0.03477 0.0
C531 C 0.54625 -0.00291 1.00179 0.0
N532 N 0.52034 0.92945 0.94802 0.0
N533 N 0.46771 0.0328 0.07023 0.0
C534 C 0.50787 0.95175 0.98139 0.0
C535 C 0.48166 0.0044 0.04474 0.0
N536 N 0.42029 0.88232 0.98276 0.0
N537 N 0.5718 0.06335 0.05665 0.0
H538 H 0.42998 0.02066 0.07878 0.0
H539 H 0.49293 0.06989 0.08051 0.0
H540 H 0.61023 0.07951 0.04835 0.0
H541 H 0.56571 0.07964 0.08459 0.0
H542 H 0.42806 0.85784 0.96447 0.0
H543 H 0.38254 0.86513 0.99338 0.0
H544 H 0.49354 0.89986 0.92842 0.0
H545 H 0.5577 0.94257 0.93776 0.0
C546 C 0.47231 0.95081 0.5511 0.0
C547 C 0.51593 0.97964 0.5249 0.0
C548 C 0.50782 0.05558 0.53488 0.0
C549 C 0.46298 0.0263 0.55968 0.0
N550 N 0.41177 0.95116 0.60301 0.0
N551 N 0.58354 0.06163 0.5017 0.0
C552 C 0.44836 0.9756 0.57181 0.0
C553 C 0.53643 0.03285 0.51999 0.0
N554 N 0.45267 0.89943 0.55473 0.0
N555 N 0.52218 0.1048 0.52473 0.0
H556 H 0.60536 0.04611 0.49011 0.0
H557 H 0.60288 0.10122 0.50125 0.0
H558 H 0.50423 0.12359 0.53815 0.0
H559 H 0.55048 0.12639 0.50207 0.0
H560 H 0.41743 0.87517 0.56882 0.0
H561 H 0.47015 0.88041 0.54089 0.0
H562 H 0.40296 0.91605 0.61609 0.0
H563 H 0.39316 0.96776 0.61892 0.0
C564 C 0.91956 0.45791 0.47056 0.0
C565 C 0.94892 0.43542 0.48329 0.0
C566 C 0.02732 0.51167 0.46034 0.0
C567 C -0.00111 0.53655 0.45421 0.0
N568 N 0.91861 0.53555 0.4535 0.0
N569 N 0.03135 0.44182 0.49443 0.0
C570 C 0.94503 0.51009 0.45878 0.0
C571 C 0.00298 0.4622 0.47866 0.0
N572 N 0.86754 0.42906 0.46885 0.0
N573 N 0.07767 0.53575 0.44893 0.0
H574 H 0.0155 0.40642 0.50953 0.0
H575 H 0.07102 0.46171 0.4961 0.0
H576 H 0.09614 0.57227 0.43563 0.0
H577 H 0.09964 0.51802 0.44861 0.0
H578 H 0.8441 0.44184 0.45572 0.0
H579 H 0.84784 0.39066 0.47731 0.0
H580 H 0.8804 0.52046 0.46182 0.0
H581 H 0.93571 0.57304 0.44251 0.0
C582 C 0.45131 0.50885 0.55422 0.0
C583 C 0.43397 0.46404 0.52844 0.0
C584 C 0.5203 0.47544 0.52819 0.0
C585 C 0.53845 0.52271 0.55024 0.0
N586 N 0.52325 0.58866 0.5787 0.0
N587 N 0.4512 0.40523 0.48831 0.0
C588 C 0.50447 0.54042 0.5622 0.0
C589 C 0.46831 0.44752 0.51459 0.0
N590 N 0.41694 0.52123 0.57111 0.0
N591 N 0.55261 0.45664 0.5216 0.0
H592 H 0.41295 0.38205 0.47964 0.0
H593 H 0.47515 0.39451 0.47286 0.0
H594 H 0.59074 0.4761 0.53169 0.0
H595 H 0.54101 0.4202 0.50966 0.0
H596 H 0.42643 0.54982 0.59456 0.0
H597 H 0.37801 0.5007 0.56388 0.0
H598 H 0.50118 0.60596 0.58292 0.0
H599 H 0.56186 0.61329 0.58511 0.0
loop_
_geom_bond_atom_site_label_1
_geom_bond_atom_site_label_2
_geom_bond_distance
_geom_bond_site_symmetry_2
_ccdc_geom_bond_type
O0 Cd1 2.223 . S
O0 C8 1.315 . S
Cd1 O0 2.223 . S
Cd1 O4 2.297 . S
Cd1 O5 2.439 . S
Cd1 O11 2.240 . S
Cd2 O3 2.240 . S
Cd2 O10 2.223 1_554 S
Cd2 O12 2.295 1_554 S
Cd2 O13 2.439 . S
O3 Cd2 2.240 . S
O3 C8 1.279 . S
O4 Cd1 2.297 . S
O4 C6 1.247 . S
O5 Cd1 2.439 . S
O5 C6 1.208 . S
C6 O4 1.247 . S
C6 O5 1.208 . S
C7 O12 1.234 1_554 S
C7 O13 1.208 . S
C8 O0 1.315 . S
C8 O3 1.279 . S
C9 O10 1.315 1_654 S
C9 O11 1.279 1_655 S
O10 Cd2 2.223 1_556 S
O10 C9 1.315 1_456 S
O11 Cd1 2.240 . S
O11 C9 1.279 1_455 S
O12 Cd2 2.295 1_556 S
O12 C7 1.234 1_556 S
O13 Cd2 2.439 . S
O13 C7 1.208 . S
O14 Cd15 2.223 . S
O14 C22 1.315 . S
Cd15 O14 2.223 . S
Cd15 O18 2.297 . S
Cd15 O19 2.439 . S
Cd15 O25 2.240 . S
Cd16 O17 2.240 . S
Cd16 O24 2.223 1_554 S
Cd16 O26 2.295 1_554 S
Cd16 O27 2.439 . S
O17 Cd16 2.240 . S
O17 C22 1.279 . S
O18 Cd15 2.297 . S
O18 C20 1.247 . S
O19 Cd15 2.439 . S
O19 C20 1.208 . S
C20 O18 1.247 . S
C20 O19 1.208 . S
C21 O26 1.234 1_554 S
C21 O27 1.208 . S
C22 O14 1.315 . S
C22 O17 1.279 . S
C23 O24 1.315 1_554 S
C23 O25 1.279 . S
O24 Cd16 2.223 1_556 S
O24 C23 1.315 1_556 S
O25 Cd15 2.240 . S
O25 C23 1.279 . S
O26 Cd16 2.295 1_556 S
O26 C21 1.234 1_556 S
O27 Cd16 2.439 . S
O27 C21 1.208 . S
O28 Cd29 2.223 . S
O28 C36 1.315 . S
Cd29 O28 2.223 . S
Cd29 O32 2.297 . S
Cd29 O33 2.439 . S
Cd29 O39 2.240 . S
Cd30 O31 2.240 . S
Cd30 O38 2.223 1_554 S
Cd30 O40 2.295 1_554 S
Cd30 O41 2.439 . S
O31 Cd30 2.240 . S
O31 C36 1.279 . S
O32 Cd29 2.297 . S
O32 C34 1.247 . S
O33 Cd29 2.439 . S
O33 C34 1.208 . S
C34 O32 1.247 . S
C34 O33 1.208 . S
C35 O40 1.234 1_554 S
C35 O41 1.208 . S
C36 O28 1.315 . S
C36 O31 1.279 . S
C37 O38 1.315 1_544 S
C37 O39 1.279 1_545 S
O38 Cd30 2.223 1_556 S
O38 C37 1.315 1_566 S
O39 Cd29 2.240 . S
O39 C37 1.279 1_565 S
O40 Cd30 2.295 1_556 S
O40 C35 1.234 1_556 S
O41 Cd30 2.439 . S
O41 C35 1.208 . S
O42 Cd43 2.223 . S
O42 C50 1.315 . S
Cd43 O42 2.223 . S
Cd43 O46 2.297 . S
Cd43 O47 2.439 . S
Cd43 O53 2.240 . S
Cd44 O45 2.240 . S
Cd44 O52 2.223 . S
Cd44 O54 2.297 . S
Cd44 O55 2.439 . S
O45 Cd44 2.240 . S
O45 C50 1.279 . S
O46 Cd43 2.297 . S
O46 C48 1.247 . S
O47 Cd43 2.439 . S
O47 C48 1.208 . S
C48 O46 1.247 . S
C48 O47 1.208 . S
C49 O54 1.247 . S
C49 O55 1.208 . S
C50 O42 1.315 . S
C50 O45 1.279 . S
C51 O52 1.315 1_545 S
C51 O53 1.279 1_545 S
O52 Cd44 2.223 . S
O52 C51 1.315 1_565 S
O53 Cd43 2.240 . S
O53 C51 1.279 1_565 S
O54 Cd44 2.297 . S
O54 C49 1.247 . S
O55 Cd44 2.439 . S
O55 C49 1.208 . S
O56 Cd57 2.223 . S
O56 C64 1.315 . S
Cd57 O56 2.223 . S
Cd57 O60 2.297 . S
Cd57 O61 2.439 . S
Cd57 O67 2.240 . S
Cd58 O59 2.240 . S
Cd58 O66 2.223 . S
Cd58 O68 2.297 . S
Cd58 O69 2.439 . S
O59 Cd58 2.240 . S
O59 C64 1.279 . S
O60 Cd57 2.297 . S
O60 C62 1.247 . S
O61 Cd57 2.439 . S
O61 C62 1.208 . S
C62 O60 1.247 . S
C62 O61 1.208 . S
C63 O68 1.247 . S
C63 O69 1.208 . S
C64 O56 1.315 . S
C64 O59 1.279 . S
C65 O66 1.315 1_655 S
C65 O67 1.279 1_655 S
O66 Cd58 2.223 . S
O66 C65 1.315 1_455 S
O67 Cd57 2.240 . S
O67 C65 1.279 1_455 S
O68 Cd58 2.297 . S
O68 C63 1.247 . S
O69 Cd58 2.439 . S
O69 C63 1.208 . S
O70 Cd71 2.223 . S
O70 C78 1.315 . S
Cd71 O70 2.223 . S
Cd71 O74 2.297 . S
Cd71 O75 2.439 . S
Cd71 O81 2.240 . S
Cd72 O73 2.240 . S
Cd72 O80 2.223 . S
Cd72 O82 2.297 . S
Cd72 O83 2.439 . S
O73 Cd72 2.240 . S
O73 C78 1.279 . S
O74 Cd71 2.297 . S
O74 C76 1.247 . S
O75 Cd71 2.439 . S
O75 C76 1.208 . S
C76 O74 1.247 . S
C76 O75 1.208 . S
C77 O82 1.247 . S
C77 O83 1.208 . S
C78 O70 1.315 . S
C78 O73 1.279 . S
C79 O80 1.315 . S
C79 O81 1.279 . S
O80 Cd72 2.223 . S
O80 C79 1.315 . S
O81 Cd71 2.240 . S
O81 C79 1.279 . S
O82 Cd72 2.297 . S
O82 C77 1.247 . S
O83 Cd72 2.439 . S
O83 C77 1.208 . S
O84 Cd85 2.223 . S
O84 C92 1.315 . S
Cd85 O84 2.223 . S
Cd85 O88 2.297 . S
Cd85 O89 2.439 . S
Cd85 O95 2.240 . S
Cd86 O87 2.240 . S
Cd86 O94 2.223 1_556 S
Cd86 O96 2.295 1_556 S
Cd86 O97 2.439 . S
O87 Cd86 2.240 . S
O87 C92 1.279 . S
O88 Cd85 2.297 . S
O88 C90 1.247 . S
O89 Cd85 2.439 . S
O89 C90 1.208 . S
C90 O88 1.247 . S
C90 O89 1.208 . S
C91 O96 1.234 1_556 S
C91 O97 1.208 . S
C92 O84 1.315 . S
C92 O87 1.279 . S
C93 O94 1.315 1_456 S
C93 O95 1.279 1_455 S
O94 Cd86 2.223 1_554 S
O94 C93 1.315 1_654 S
O95 Cd85 2.240 . S
O95 C93 1.279 1_655 S
O96 Cd86 2.295 1_554 S
O96 C91 1.234 1_554 S
O97 Cd86 2.439 . S
O97 C91 1.208 . S
O98 Cd99 2.223 . S
O98 C106 1.315 . S
Cd99 O98 2.223 . S
Cd99 O102 2.297 . S
Cd99 O103 2.439 . S
Cd99 O109 2.240 . S
Cd100 O101 2.240 . S
Cd100 O108 2.223 1_556 S
Cd100 O110 2.295 1_556 S
Cd100 O111 2.439 . S
O101 Cd100 2.240 . S
O101 C106 1.279 . S
O102 Cd99 2.297 . S
O102 C104 1.247 . S
O103 Cd99 2.439 . S
O103 C104 1.208 . S
C104 O102 1.247 . S
C104 O103 1.208 . S
C105 O110 1.234 1_556 S
C105 O111 1.208 . S
C106 O98 1.315 . S
C106 O101 1.279 . S
C107 O108 1.315 1_556 S
C107 O109 1.279 . S
O108 Cd100 2.223 1_554 S
O108 C107 1.315 1_554 S
O109 Cd99 2.240 . S
O109 C107 1.279 . S
O110 Cd100 2.295 1_554 S
O110 C105 1.234 1_554 S
O111 Cd100 2.439 . S
O111 C105 1.208 . S
O112 Cd113 2.223 . S
O112 C120 1.315 . S
Cd113 O112 2.223 . S
Cd113 O116 2.297 . S
Cd113 O117 2.439 . S
Cd113 O123 2.240 . S
Cd114 O115 2.240 . S
Cd114 O122 2.223 1_556 S
Cd114 O124 2.295 1_556 S
Cd114 O125 2.439 . S
O115 Cd114 2.240 . S
O115 C120 1.279 . S
O116 Cd113 2.297 . S
O116 C118 1.247 . S
O117 Cd113 2.439 . S
O117 C118 1.208 . S
C118 O116 1.247 . S
C118 O117 1.208 . S
C119 O124 1.234 1_556 S
C119 O125 1.208 . S
C120 O112 1.315 . S
C120 O115 1.279 . S
C121 O122 1.315 1_566 S
C121 O123 1.279 1_565 S
O122 Cd114 2.223 1_554 S
O122 C121 1.315 1_544 S
O123 Cd113 2.240 . S
O123 C121 1.279 1_545 S
O124 Cd114 2.295 1_554 S
O124 C119 1.234 1_554 S
O125 Cd114 2.439 . S
O125 C119 1.208 . S
O126 Cd127 2.223 . S
O126 C134 1.315 . S
Cd127 O126 2.223 . S
Cd127 O130 2.297 . S
Cd127 O131 2.439 . S
Cd127 O137 2.240 . S
Cd128 O129 2.240 . S
Cd128 O136 2.223 . S
Cd128 O138 2.297 . S
Cd128 O139 2.439 . S
O129 Cd128 2.240 . S
O129 C134 1.279 . S
O130 Cd127 2.297 . S
O130 C132 1.247 . S
O131 Cd127 2.439 . S
O131 C132 1.208 . S
C132 O130 1.247 . S
C132 O131 1.208 . S
C133 O138 1.247 . S
C133 O139 1.208 . S
C134 O126 1.315 . S
C134 O129 1.279 . S
C135 O136 1.315 1_565 S
C135 O137 1.279 1_565 S
O136 Cd128 2.223 . S
O136 C135 1.315 1_545 S
O137 Cd127 2.240 . S
O137 C135 1.279 1_545 S
O138 Cd128 2.297 . S
O138 C133 1.247 . S
O139 Cd128 2.439 . S
O139 C133 1.208 . S
O140 Cd141 2.223 . S
O140 C148 1.315 . S
Cd141 O140 2.223 . S
Cd141 O144 2.297 . S
Cd141 O145 2.439 . S
Cd141 O151 2.240 . S
Cd142 O143 2.240 . S
Cd142 O150 2.223 . S
Cd142 O152 2.297 . S
Cd142 O153 2.439 . S
O143 Cd142 2.240 . S
O143 C148 1.279 . S
O144 Cd141 2.297 . S
O144 C146 1.247 . S
O145 Cd141 2.439 . S
O145 C146 1.208 . S
C146 O144 1.247 . S
C146 O145 1.208 . S
C147 O152 1.247 . S
C147 O153 1.208 . S
C148 O140 1.315 . S
C148 O143 1.279 . S
C149 O150 1.315 1_455 S
C149 O151 1.279 1_455 S
O150 Cd142 2.223 . S
O150 C149 1.315 1_655 S
O151 Cd141 2.240 . S
O151 C149 1.279 1_655 S
O152 Cd142 2.297 . S
O152 C147 1.247 . S
O153 Cd142 2.439 . S
O153 C147 1.208 . S
O154 Cd155 2.223 . S
O154 C162 1.315 . S
Cd155 O154 2.223 . S
Cd155 O158 2.297 . S
Cd155 O159 2.439 . S
Cd155 O165 2.240 . S
Cd156 O157 2.240 . S
Cd156 O164 2.223 . S
Cd156 O166 2.297 . S
Cd156 O167 2.439 . S
O157 Cd156 2.240 . S
O157 C162 1.279 . S
O158 Cd155 2.297 . S
O158 C160 1.247 . S
O159 Cd155 2.439 . S
O159 C160 1.208 . S
C160 O158 1.247 . S
C160 O159 1.208 . S
C161 O166 1.247 . S
C161 O167 1.208 . S
C162 O154 1.315 . S
C162 O157 1.279 . S
C163 O164 1.315 . S
C163 O165 1.279 . S
O164 Cd156 2.223 . S
O164 C163 1.315 . S
O165 Cd155 2.240 . S
O165 C163 1.279 . S
O166 Cd156 2.297 . S
O166 C161 1.247 . S
O167 Cd156 2.439 . S
O167 C161 1.208 . S
C168 C169 1.363 . S
C168 C174 1.379 . S
C168 N176 1.356 . S
C169 C168 1.363 . S
C169 C175 1.363 1_554 S
C170 C171 1.363 . S
C170 C175 1.379 . S
C170 N177 1.356 . S
C171 C170 1.363 . S
C171 C174 1.363 1_556 S
N172 C174 1.356 . S
N172 H184 0.984 . S
N172 H185 0.985 . S
N173 C175 1.356 . S
N173 H178 0.984 . S
N173 H179 0.985 . S
C174 C168 1.379 . S
C174 C171 1.363 1_554 S
C174 N172 1.356 . S
C175 C169 1.363 1_556 S
C175 C170 1.379 . S
C175 N173 1.356 . S
N176 C168 1.356 . S
N176 H182 0.984 . S
N176 H183 0.984 . S
N177 C170 1.356 . S
N177 H180 0.984 . S
N177 H181 0.985 . S
H178 N173 0.984 . S
H179 N173 0.985 . S
H180 N177 0.984 . S
H181 N177 0.985 . S
H182 N176 0.984 . S
H183 N176 0.984 . S
H184 N172 0.984 . S
H185 N172 0.985 . S
C186 C187 1.363 . S
C186 C192 1.379 . S
C186 N194 1.356 . S
C187 C186 1.363 . S
C187 C193 1.363 1_554 S
C188 C189 1.363 . S
C188 C193 1.379 . S
C188 N195 1.356 . S
C189 C188 1.363 . S
C189 C192 1.363 1_556 S
N190 C192 1.356 . S
N190 H202 0.984 . S
N190 H203 0.985 1_565 S
N191 C193 1.356 . S
N191 H196 0.984 . S
N191 H197 0.985 . S
C192 C186 1.379 . S
C192 C189 1.363 1_554 S
C192 N190 1.356 . S
C193 C187 1.363 1_556 S
C193 C188 1.379 . S
C193 N191 1.356 . S
N194 C186 1.356 . S
N194 H200 0.984 . S
N194 H201 0.984 . S
N195 C188 1.356 . S
N195 H198 0.984 . S
N195 H199 0.985 . S
H196 N191 0.984 . S
H197 N191 0.985 . S
H198 N195 0.984 . S
H199 N195 0.985 . S
H200 N194 0.984 . S
H201 N194 0.984 . S
H202 N190 0.984 . S
H203 N190 0.985 1_545 S
C204 C205 1.363 . S
C204 C210 1.379 . S
C204 N212 1.356 . S
C205 C204 1.363 . S
C205 C211 1.363 1_554 S
C206 C207 1.363 . S
C206 C211 1.379 . S
C206 N213 1.356 . S
C207 C206 1.363 . S
C207 C210 1.363 1_556 S
N208 C210 1.356 . S
N208 H220 0.984 . S
N208 H221 0.994 . S
N209 C211 1.356 . S
N209 H214 0.984 . S
N209 H215 0.985 . S
C210 C204 1.379 . S
C210 C207 1.363 1_554 S
C210 N208 1.356 . S
C211 C205 1.363 1_556 S
C211 C206 1.379 . S
C211 N209 1.356 . S
N212 C204 1.356 . S
N212 H218 0.984 . S
N212 H219 0.984 . S
N213 C206 1.356 . S
N213 H216 0.984 1_455 S
N213 H217 0.985 . S
H214 N209 0.984 . S
H215 N209 0.985 . S
H216 N213 0.984 1_655 S
H217 N213 0.985 . S
H218 N212 0.984 . S
H219 N212 0.984 . S
H220 N208 0.984 . S
H221 N208 0.994 . S
C222 C223 1.363 . S
C222 C228 1.379 . S
C222 N230 1.356 . S
C223 C222 1.363 . S
C223 C229 1.363 . S
C224 C225 1.363 . S
C224 C229 1.379 . S
C224 N231 1.356 . S
C225 C224 1.363 . S
C225 C228 1.363 . S
N226 C228 1.356 . S
N226 H238 0.984 . S
N226 H239 0.985 . S
N227 C229 1.356 . S
N227 H232 0.984 . S
N227 H233 0.985 . S
C228 C222 1.379 . S
C228 C225 1.363 . S
C228 N226 1.356 . S
C229 C223 1.363 . S
C229 C224 1.379 . S
C229 N227 1.356 . S
N230 C222 1.356 . S
N230 H236 0.984 . S
N230 H237 0.984 . S
N231 C224 1.356 . S
N231 H234 0.984 . S
N231 H235 0.985 . S
H232 N227 0.984 . S
H233 N227 0.985 . S
H234 N231 0.984 . S
H235 N231 0.985 . S
H236 N230 0.984 . S
H237 N230 0.984 . S
H238 N226 0.984 . S
H239 N226 0.985 . S
C240 C241 1.363 . S
C240 C246 1.379 . S
C240 N248 1.356 . S
C241 C240 1.363 . S
C241 C247 1.363 . S
C242 C243 1.363 . S
C242 C247 1.379 . S
C242 N249 1.356 . S
C243 C242 1.363 . S
C243 C246 1.363 . S
N244 C246 1.356 . S
N244 H256 0.984 . S
N244 H257 0.985 1_565 S
N245 C247 1.356 . S
N245 H250 0.984 . S
N245 H251 0.985 . S
C246 C240 1.379 . S
C246 C243 1.363 . S
C246 N244 1.356 . S
C247 C241 1.363 . S
C247 C242 1.379 . S
C247 N245 1.356 . S
N248 C240 1.356 . S
N248 H254 0.984 . S
N248 H255 0.984 . S
N249 C242 1.356 . S
N249 H252 0.984 . S
N249 H253 0.985 . S
H250 N245 0.984 . S
H251 N245 0.985 . S
H252 N249 0.984 . S
H253 N249 0.985 . S
H254 N248 0.984 . S
H255 N248 0.984 . S
H256 N244 0.984 . S
H257 N244 0.985 1_545 S
C258 C259 1.363 . S
C258 C264 1.379 . S
C258 N266 1.356 . S
C259 C258 1.363 . S
C259 C265 1.363 . S
C260 C261 1.363 . S
C260 C265 1.379 . S
C260 N267 1.356 . S
C261 C260 1.363 . S
C261 C264 1.363 . S
N262 C264 1.356 . S
N262 H274 0.984 . S
N262 H275 0.985 . S
N263 C265 1.356 . S
N263 H268 0.984 1_455 S
N263 H269 0.985 . S
C264 C258 1.379 . S
C264 C261 1.363 . S
C264 N262 1.356 . S
C265 C259 1.363 . S
C265 C260 1.379 . S
C265 N263 1.356 . S
N266 C258 1.356 . S
N266 H272 0.984 . S
N266 H273 0.984 . S
N267 C260 1.356 . S
N267 H270 0.984 . S
N267 H271 0.985 . S
H268 N263 0.984 1_655 S
H269 N263 0.985 . S
H270 N267 0.984 . S
H271 N267 0.985 . S
H272 N266 0.984 . S
H273 N266 0.984 . S
H274 N262 0.984 . S
H275 N262 0.985 . S
C276 C277 1.363 . S
C276 C282 1.379 . S
C276 N284 1.356 . S
C277 C276 1.363 . S
C277 C283 1.363 1_554 S
C278 C279 1.363 . S
C278 C283 1.379 . S
C278 N285 1.356 . S
C279 C278 1.363 . S
C279 C282 1.363 1_556 S
N280 C282 1.356 . S
N280 H292 0.984 . S
N280 H293 0.985 . S
N281 C283 1.356 . S
N281 H286 0.984 . S
N281 H287 0.985 . S
C282 C276 1.379 . S
C282 C279 1.363 1_554 S
C282 N280 1.356 . S
C283 C277 1.363 1_556 S
C283 C278 1.379 . S
C283 N281 1.356 . S
N284 C276 1.356 . S
N284 H290 0.984 . S
N284 H291 0.984 . S
N285 C278 1.356 . S
N285 H288 0.984 . S
N285 H289 0.985 . S
H286 N281 0.984 . S
H287 N281 0.985 . S
H288 N285 0.984 . S
H289 N285 0.985 . S
H290 N284 0.984 . S
H291 N284 0.984 . S
H292 N280 0.984 . S
H293 N280 0.985 . S
C294 C295 1.363 1_554 S
C294 C300 1.379 . S
C294 N302 1.356 . S
C295 C294 1.363 1_556 S
C295 C301 1.363 . S
C296 C297 1.363 1_556 S
C296 C301 1.379 . S
C296 N303 1.356 1_545 S
C297 C296 1.363 1_554 S
C297 C300 1.363 . S
N298 C300 1.356 . S
N298 H310 0.984 . S
N298 H311 0.985 . S
N299 C301 1.356 . S
N299 H304 0.984 . S
N299 H305 0.985 . S
C300 C294 1.379 . S
C300 C297 1.363 . S
C300 N298 1.356 . S
C301 C295 1.363 . S
C301 C296 1.379 . S
C301 N299 1.356 . S
N302 C294 1.356 . S
N302 H308 0.984 . S
N302 H309 0.984 . S
N303 C296 1.356 1_565 S
N303 H306 0.984 . S
N303 H307 0.985 . S
H304 N299 0.984 . S
H305 N299 0.985 . S
H306 N303 0.984 . S
H307 N303 0.985 . S
H308 N302 0.984 . S
H309 N302 0.984 . S
H310 N298 0.984 . S
H311 N298 0.985 . S
C312 C313 1.363 1_556 S
C312 C318 1.379 . S
C312 N320 1.356 . S
C313 C312 1.363 1_554 S
C313 C319 1.363 . S
C314 C315 1.363 1_554 S
C314 C319 1.379 . S
C314 N321 1.356 . S
C315 C314 1.363 1_556 S
C315 C318 1.363 . S
N316 C318 1.356 . S
N316 H328 0.984 . S
N316 H329 0.985 . S
N317 C319 1.356 . S
N317 H322 0.984 . S
N317 H323 0.985 . S
C318 C312 1.379 . S
C318 C315 1.363 . S
C318 N316 1.356 . S
C319 C313 1.363 . S
C319 C314 1.379 . S
C319 N317 1.356 . S
N320 C312 1.356 . S
N320 H326 0.984 . S
N320 H327 0.984 1_655 S
N321 C314 1.356 . S
N321 H324 0.984 . S
N321 H325 0.985 . S
H322 N317 0.984 . S
H323 N317 0.985 . S
H324 N321 0.984 . S
H325 N321 0.985 . S
H326 N320 0.984 . S
H327 N320 0.984 1_455 S
H328 N316 0.984 . S
H329 N316 0.985 . S
C330 C331 1.363 . S
C330 C336 1.379 . S
C330 N338 1.356 . S
C331 C330 1.363 . S
C331 C337 1.363 . S
C332 C333 1.363 . S
C332 C337 1.379 . S
C332 N339 1.356 . S
C333 C332 1.363 . S
C333 C336 1.363 . S
N334 C336 1.356 . S
N334 H346 0.984 . S
N334 H347 0.985 . S
N335 C337 1.356 . S
N335 H340 0.984 . S
N335 H341 0.985 . S
C336 C330 1.379 . S
C336 C333 1.363 . S
C336 N334 1.356 . S
C337 C331 1.363 . S
C337 C332 1.379 . S
C337 N335 1.356 . S
N338 C330 1.356 . S
N338 H344 0.984 . S
N338 H345 0.984 . S
N339 C332 1.356 . S
N339 H342 0.984 . S
N339 H343 0.985 . S
H340 N335 0.984 . S
H341 N335 0.985 . S
H342 N339 0.984 . S
H343 N339 0.985 . S
H344 N338 0.984 . S
H345 N338 0.984 . S
H346 N334 0.984 . S
H347 N334 0.985 . S
C348 C349 1.363 . S
C348 C354 1.379 . S
C348 N356 1.356 . S
C349 C348 1.363 . S
C349 C355 1.363 . S
C350 C351 1.363 . S
C350 C355 1.379 . S
C350 N357 1.356 1_545 S
C351 C350 1.363 . S
C351 C354 1.363 . S
N352 C354 1.356 . S
N352 H364 0.984 . S
N352 H365 0.985 . S
N353 C355 1.356 . S
N353 H358 0.984 . S
N353 H359 0.985 . S
C354 C348 1.379 . S
C354 C351 1.363 . S
C354 N352 1.356 . S
C355 C349 1.363 . S
C355 C350 1.379 . S
C355 N353 1.356 . S
N356 C348 1.356 . S
N356 H362 0.984 . S
N356 H363 0.984 . S
N357 C350 1.356 1_565 S
N357 H360 0.984 . S
N357 H361 0.985 . S
H358 N353 0.984 . S
H359 N353 0.985 . S
H360 N357 0.984 . S
H361 N357 0.985 . S
H362 N356 0.984 . S
H363 N356 0.984 . S
H364 N352 0.984 . S
H365 N352 0.985 . S
C366 C367 1.363 . S
C366 C372 1.379 . S
C366 N374 1.356 . S
C367 C366 1.363 . S
C367 C373 1.363 . S
C368 C369 1.363 . S
C368 C373 1.379 . S
C368 N375 1.356 . S
C369 C368 1.363 . S
C369 C372 1.363 . S
N370 C372 1.356 . S
N370 H382 0.984 . S
N370 H383 0.985 . S
N371 C373 1.356 . S
N371 H376 0.984 . S
N371 H377 0.985 . S
C372 C366 1.379 . S
C372 C369 1.363 . S
C372 N370 1.356 . S
C373 C367 1.363 . S
C373 C368 1.379 . S
C373 N371 1.356 . S
N374 C366 1.356 . S
N374 H380 0.984 . S
N374 H381 0.984 1_655 S
N375 C368 1.356 . S
N375 H378 0.984 . S
N375 H379 0.985 . S
H376 N371 0.984 . S
H377 N371 0.985 . S
H378 N375 0.984 . S
H379 N375 0.985 . S
H380 N374 0.984 . S
H381 N374 0.984 1_455 S
H382 N370 0.984 . S
H383 N370 0.985 . S
C384 C385 1.363 . S
C384 C390 1.379 . S
C384 N392 1.356 . S
C385 C384 1.363 . S
C385 C391 1.363 . S
C386 C387 1.363 . S
C386 C391 1.379 . S
C386 N393 1.356 . S
C387 C386 1.363 . S
C387 C390 1.363 . S
N388 C390 1.356 . S
N388 H400 0.984 . S
N388 H401 0.985 . S
N389 C391 1.356 . S
N389 H394 0.984 . S
N389 H395 0.985 . S
C390 C384 1.379 . S
C390 C387 1.363 . S
C390 N388 1.356 . S
C391 C385 1.363 . S
C391 C386 1.379 . S
C391 N389 1.356 . S
N392 C384 1.356 . S
N392 H398 0.984 . S
N392 H399 0.984 . S
N393 C386 1.356 . S
N393 H396 0.984 . S
N393 H397 0.985 . S
H394 N389 0.984 . S
H395 N389 0.985 . S
H396 N393 0.984 . S
H397 N393 0.985 . S
H398 N392 0.984 . S
H399 N392 0.984 . S
H400 N388 0.984 . S
H401 N388 0.985 . S
C402 C403 1.363 . S
C402 C408 1.379 . S
C402 N410 1.356 . S
C403 C402 1.363 . S
C403 C409 1.363 . S
C404 C405 1.363 . S
C404 C409 1.379 . S
C404 N411 1.356 . S
C405 C404 1.363 . S
C405 C408 1.363 . S
N406 C408 1.356 . S
N406 H418 0.984 . S
N406 H419 0.985 . S
N407 C409 1.356 . S
N407 H412 0.984 . S
N407 H413 0.985 . S
C408 C402 1.379 . S
C408 C405 1.363 . S
C408 N406 1.356 . S
C409 C403 1.363 . S
C409 C404 1.379 . S
C409 N407 1.356 . S
N410 C402 1.356 . S
N410 H416 0.984 . S
N410 H417 0.984 . S
N411 C404 1.356 . S
N411 H414 0.984 . S
N411 H415 0.985 . S
H412 N407 0.984 . S
H413 N407 0.985 . S
H414 N411 0.984 . S
H415 N411 0.985 . S
H416 N410 0.984 . S
H417 N410 0.984 . S
H418 N406 0.984 . S
H419 N406 0.985 . S
C420 C421 1.363 . S
C420 C426 1.379 . S
C420 N428 1.356 . S
C421 C420 1.363 . S
C421 C427 1.363 . S
C422 C423 1.363 . S
C422 C427 1.379 . S
C422 N429 1.356 . S
C423 C422 1.363 . S
C423 C426 1.363 . S
N424 C426 1.356 . S
N424 H436 0.984 . S
N424 H437 0.985 . S
N425 C427 1.356 . S
N425 H430 0.984 . S
N425 H431 0.985 . S
C426 C420 1.379 . S
C426 C423 1.363 . S
C426 N424 1.356 . S
C427 C421 1.363 . S
C427 C422 1.379 . S
C427 N425 1.356 . S
N428 C420 1.356 . S
N428 H434 0.984 . S
N428 H435 0.984 . S
N429 C422 1.356 . S
N429 H432 0.984 . S
N429 H433 0.985 . S
H430 N425 0.984 . S
H431 N425 0.985 . S
H432 N429 0.984 . S
H433 N429 0.985 . S
H434 N428 0.984 . S
H435 N428 0.984 . S
H436 N424 0.984 . S
H437 N424 0.985 . S
C438 C439 1.363 . S
C438 C444 1.379 . S
C438 N446 1.356 . S
C439 C438 1.363 . S
C439 C445 1.363 . S
C440 C441 1.363 . S
C440 C445 1.379 . S
C440 N447 1.356 . S
C441 C440 1.363 . S
C441 C444 1.363 . S
N442 C444 1.356 . S
N442 H454 0.984 . S
N442 H455 0.985 . S
N443 C445 1.356 . S
N443 H448 0.984 . S
N443 H449 0.985 . S
C444 C438 1.379 . S
C444 C441 1.363 . S
C444 N442 1.356 . S
C445 C439 1.363 . S
C445 C440 1.379 . S
C445 N443 1.356 . S
N446 C438 1.356 . S
N446 H452 0.984 . S
N446 H453 0.984 . S
N447 C440 1.356 . S
N447 H450 0.984 . S
N447 H451 0.985 . S
H448 N443 0.984 . S
H449 N443 0.985 . S
H450 N447 0.984 . S
H451 N447 0.985 . S
H452 N446 0.984 . S
H453 N446 0.984 . S
H454 N442 0.984 . S
H455 N442 0.985 . S
C456 C457 1.363 . S
C456 C462 1.379 . S
C456 N464 1.356 . S
C457 C456 1.363 . S
C457 C463 1.363 . S
C458 C459 1.363 . S
C458 C463 1.379 . S
C458 N465 1.356 . S
C459 C458 1.363 . S
C459 C462 1.363 . S
N460 C462 1.356 . S
N460 H472 0.984 . S
N460 H473 0.985 . S
N461 C463 1.356 . S
N461 H466 0.984 . S
N461 H467 0.985 . S
C462 C456 1.379 . S
C462 C459 1.363 . S
C462 N460 1.356 . S
C463 C457 1.363 . S
C463 C458 1.379 . S
C463 N461 1.356 . S
N464 C456 1.356 . S
N464 H470 0.984 . S
N464 H471 0.984 . S
N465 C458 1.356 . S
N465 H468 0.984 . S
N465 H469 0.985 . S
H466 N461 0.984 . S
H467 N461 0.985 . S
H468 N465 0.984 . S
H469 N465 0.985 . S
H470 N464 0.984 . S
H471 N464 0.984 . S
H472 N460 0.984 . S
H473 N460 0.985 . S
C474 C475 1.363 . S
C474 C480 1.379 . S
C474 N482 1.356 . S
C475 C474 1.363 . S
C475 C481 1.363 . S
C476 C477 1.363 . S
C476 C481 1.379 . S
C476 N483 1.356 . S
C477 C476 1.363 . S
C477 C480 1.363 . S
N478 C480 1.356 . S
N478 H490 0.984 . S
N478 H491 0.985 . S
N479 C481 1.356 . S
N479 H484 0.984 . S
N479 H485 0.985 . S
C480 C474 1.379 . S
C480 C477 1.363 . S
C480 N478 1.356 . S
C481 C475 1.363 . S
C481 C476 1.379 . S
C481 N479 1.356 . S
N482 C474 1.356 . S
N482 H488 0.984 . S
N482 H489 0.984 . S
N483 C476 1.356 . S
N483 H486 0.984 . S
N483 H487 0.985 . S
H484 N479 0.984 . S
H485 N479 0.985 . S
H486 N483 0.984 . S
H487 N483 0.985 . S
H488 N482 0.984 . S
H489 N482 0.984 . S
H490 N478 0.984 . S
H491 N478 0.985 . S
C492 C493 1.363 1_556 S
C492 C498 1.379 . S
C492 N500 1.356 . S
C493 C492 1.363 1_554 S
C493 C499 1.363 1_455 S
C494 C495 1.363 1_554 S
C494 C499 1.379 . S
C494 N501 1.356 . S
C495 C494 1.363 1_556 S
C495 C498 1.363 1_655 S
N496 C498 1.356 . S
N496 H508 0.984 . S
N496 H509 0.985 1_455 S
N497 C499 1.356 . S
N497 H502 0.984 1_655 S
N497 H503 0.985 . S
C498 C492 1.379 . S
C498 C495 1.363 1_455 S
C498 N496 1.356 . S
C499 C493 1.363 1_655 S
C499 C494 1.379 . S
C499 N497 1.356 . S
N500 C492 1.356 . S
N500 H506 0.984 . S
N500 H507 0.993 . S
N501 C494 1.356 . S
N501 H504 0.993 . S
N501 H505 0.985 . S
H502 N497 0.984 1_455 S
H503 N497 0.985 . S
H504 N501 0.993 . S
H505 N501 0.985 . S
H506 N500 0.984 . S
H507 N500 0.993 . S
H508 N496 0.984 . S
H509 N496 0.985 1_655 S
C510 C511 1.363 1_556 S
C510 C516 1.379 . S
C510 N518 1.356 . S
C511 C510 1.363 1_554 S
C511 C517 1.363 . S
C512 C513 1.363 1_554 S
C512 C517 1.379 . S
C512 N519 1.356 . S
C513 C512 1.363 1_556 S
C513 C516 1.363 . S
N514 C516 1.356 . S
N514 H526 0.984 . S
N514 H527 0.985 . S
N515 C517 1.356 . S
N515 H520 0.984 . S
N515 H521 0.985 . S
C516 C510 1.379 . S
C516 C513 1.363 . S
C516 N514 1.356 . S
C517 C511 1.363 . S
C517 C512 1.379 . S
C517 N515 1.356 . S
N518 C510 1.356 . S
N518 H524 0.984 . S
N518 H525 0.984 1_556 S
N519 C512 1.356 . S
N519 H522 0.984 1_554 S
N519 H523 0.985 . S
H520 N515 0.984 . S
H521 N515 0.985 . S
H522 N519 0.984 1_556 S
H523 N519 0.985 . S
H524 N518 0.984 . S
H525 N518 0.984 1_554 S
H526 N514 0.984 . S
H527 N514 0.985 . S
C528 C529 1.363 . S
C528 C534 1.379 1_554 S
C528 N536 1.356 . S
C529 C528 1.363 . S
C529 C535 1.363 1_565 S
C530 C531 1.363 . S
C530 C535 1.379 1_556 S
C530 N537 1.356 . S
C531 C530 1.363 . S
C531 C534 1.363 1_545 S
N532 C534 1.356 . S
N532 H544 0.984 . S
N532 H545 0.985 . S
N533 C535 1.356 . S
N533 H538 0.984 . S
N533 H539 0.985 . S
C534 C528 1.379 1_556 S
C534 C531 1.363 1_565 S
C534 N532 1.356 . S
C535 C529 1.363 1_545 S
C535 C530 1.379 1_554 S
C535 N533 1.356 . S
N536 C528 1.356 . S
N536 H542 0.984 . S
N536 H543 0.984 . S
N537 C530 1.356 . S
N537 H540 0.984 . S
N537 H541 0.985 . S
H538 N533 0.984 . S
H539 N533 0.985 . S
H540 N537 0.984 . S
H541 N537 0.985 . S
H542 N536 0.984 . S
H543 N536 0.984 . S
H544 N532 0.984 . S
H545 N532 0.985 . S
C546 C547 1.363 . S
C546 C552 1.379 . S
C546 N554 1.356 . S
C547 C546 1.363 . S
C547 C553 1.363 1_565 S
C548 C549 1.363 . S
C548 C553 1.379 . S
C548 N555 1.356 . S
C549 C548 1.363 . S
C549 C552 1.363 1_545 S
N550 C552 1.356 1_545 S
N550 H562 0.984 1_545 S
N550 H563 0.985 . S
N551 C553 1.356 1_565 S
N551 H556 0.984 . S
N551 H557 0.985 1_565 S
C552 C546 1.379 . S
C552 C549 1.363 1_565 S
C552 N550 1.356 1_565 S
C553 C547 1.363 1_545 S
C553 C548 1.379 . S
C553 N551 1.356 1_545 S
N554 C546 1.356 . S
N554 H560 0.984 . S
N554 H561 0.984 . S
N555 C548 1.356 . S
N555 H558 0.984 . S
N555 H559 0.985 . S
H556 N551 0.984 . S
H557 N551 0.985 1_545 S
H558 N555 0.984 . S
H559 N555 0.985 . S
H560 N554 0.984 . S
H561 N554 0.984 . S
H562 N550 0.984 1_565 S
H563 N550 0.985 . S
C564 C565 1.363 . S
C564 C570 1.379 . S
C564 N572 1.356 . S
C565 C564 1.363 . S
C565 C571 1.363 1_655 S
C566 C567 1.363 . S
C566 C571 1.379 . S
C566 N573 1.356 . S
C567 C566 1.363 . S
C567 C570 1.363 1_455 S
N568 C570 1.356 . S
N568 H580 0.984 . S
N568 H581 0.985 1_655 S
N569 C571 1.356 . S
N569 H574 0.984 1_455 S
N569 H575 0.985 . S
C570 C564 1.379 . S
C570 C567 1.363 1_655 S
C570 N568 1.356 . S
C571 C565 1.363 1_455 S
C571 C566 1.379 . S
C571 N569 1.356 . S
N572 C564 1.356 . S
N572 H578 0.984 . S
N572 H579 0.984 . S
N573 C566 1.356 . S
N573 H576 0.984 . S
N573 H577 0.985 . S
H574 N569 0.984 1_655 S
H575 N569 0.985 . S
H576 N573 0.984 . S
H577 N573 0.985 . S
H578 N572 0.984 . S
H579 N572 0.984 . S
H580 N568 0.984 . S
H581 N568 0.985 1_455 S
C582 C583 1.363 . S
C582 C588 1.379 . S
C582 N590 1.356 . S
C583 C582 1.363 . S
C583 C589 1.363 . S
C584 C585 1.363 . S
C584 C589 1.379 . S
C584 N591 1.356 . S
C585 C584 1.363 . S
C585 C588 1.363 . S
N586 C588 1.356 . S
N586 H598 0.984 . S
N586 H599 0.985 . S
N587 C589 1.356 . S
N587 H592 0.984 . S
N587 H593 0.985 . S
C588 C582 1.379 . S
C588 C585 1.363 . S
C588 N586 1.356 . S
C589 C583 1.363 . S
C589 C584 1.379 . S
C589 N587 1.356 . S
N590 C582 1.356 . S
N590 H596 0.984 . S
N590 H597 0.984 . S
N591 C584 1.356 . S
N591 H594 0.984 . S
N591 H595 0.985 . S
H592 N587 0.984 . S
H593 N587 0.985 . S
H594 N591 0.984 . S
H595 N591 0.985 . S
H596 N590 0.984 . S
H597 N590 0.984 . S
H598 N586 0.984 . S
H599 N586 0.985 . S
C169 C8 1.221 . S
C171 C107 1.235 . S
C187 C22 1.221 . S
C189 C121 1.234 . S
C205 C36 1.221 . S
C207 C93 1.234 . S
C223 C163 1.235 . S
C225 C50 1.221 . S
C241 C64 1.221 . S
C243 C135 1.234 . S
C259 C149 1.234 . S
C261 C78 1.221 . S
C277 C23 1.235 . S
C279 C92 1.221 . S
C295 C106 1.221 . S
C297 C37 1.234 . S
C313 C9 1.234 . S
C315 C120 1.221 . S
C331 C134 1.221 . S
C333 C79 1.235 . S
C349 C148 1.221 . S
C351 C51 1.234 . S
C367 C65 1.234 . S
C369 C162 1.221 . S
C385 C76 1.473 . S
C387 C6 1.473 . S
C403 C20 1.473 . S
C405 C48 1.473 . S
C421 C34 1.473 . S
C423 C62 1.473 . S
C439 C90 1.473 . S
C441 C160 1.473 . S
C457 C104 1.473 . S
C459 C132 1.473 . S
C475 C118 1.473 . S
C477 C146 1.473 . S
C493 C7 1.584 . S
C495 C91 1.584 . S
C511 C21 1.583 . S
C513 C105 1.583 . S
C529 C35 1.583 . S
C531 C119 1.583 . S
C547 C49 1.584 . S
C549 C133 1.584 . S
C565 C147 1.583 . S
C567 C63 1.583 . S
C583 C77 1.583 . S
C585 C161 1.583 . S
