# Generated by pormake.
# Topology zfr, (5)-cn, num edge types: 1
# Building blocks:
#     Node 0, Type 0, BuildingBlock: XOMCOT_clean_sbu_1, # of connection points: 5
#     Node 1, Type 0, BuildingBlock: XOMCOT_clean_sbu_1, # of connection points: 5
#     Node 2, Type 0, BuildingBlock: XOMCOT_clean_sbu_1, # of connection points: 5
#     Node 3, Type 0, BuildingBlock: XOMCOT_clean_sbu_1, # of connection points: 5
#     Node 4, Type 0, BuildingBlock: XOMCOT_clean_sbu_1, # of connection points: 5
#     Node 5, Type 0, BuildingBlock: XOMCOT_clean_sbu_1, # of connection points: 5
#     Node 6, Type 0, BuildingBlock: XOMCOT_clean_sbu_1, # of connection points: 5
#     Node 7, Type 0, BuildingBlock: XOMCOT_clean_sbu_1, # of connection points: 5
#     Edge 8, Type (0, 0), BuildingBlock: MIFKUJ_clean_linker_0, # of connection points: 2
#     Edge 9, Type (0, 0), BuildingBlock: MIFKUJ_clean_linker_0, # of connection points: 2
#     Edge 10, Type (0, 0), BuildingBlock: MIFKUJ_clean_linker_0, # of connection points: 2
#     Edge 11, Type (0, 0), BuildingBlock: MIFKUJ_clean_linker_0, # of connection points: 2
#     Edge 12, Type (0, 0), BuildingBlock: MIFKUJ_clean_linker_0, # of connection points: 2
#     Edge 13, Type (0, 0), BuildingBlock: MIFKUJ_clean_linker_0, # of connection points: 2
#     Edge 14, Type (0, 0), BuildingBlock: MIFKUJ_clean_linker_0, # of connection points: 2
#     Edge 15, Type (0, 0), BuildingBlock: MIFKUJ_clean_linker_0, # of connection points: 2
#     Edge 16, Type (0, 0), BuildingBlock: MIFKUJ_clean_linker_0, # of connection points: 2
#     Edge 17, Type (0, 0), BuildingBlock: MIFKUJ_clean_linker_0, # of connection points: 2
#     Edge 18, Type (0, 0), BuildingBlock: MIFKUJ_clean_linker_0, # of connection points: 2
#     Edge 19, Type (0, 0), BuildingBlock: MIFKUJ_clean_linker_0, # of connection points: 2
#     Edge 20, Type (0, 0), BuildingBlock: MIFKUJ_clean_linker_0, # of connection points: 2
#     Edge 21, Type (0, 0), BuildingBlock: MIFKUJ_clean_linker_0, # of connection points: 2
#     Edge 22, Type (0, 0), BuildingBlock: MIFKUJ_clean_linker_0, # of connection points: 2
#     Edge 23, Type (0, 0), BuildingBlock: MIFKUJ_clean_linker_0, # of connection points: 2
#     Edge 24, Type (0, 0), BuildingBlock: MIFKUJ_clean_linker_0, # of connection points: 2
#     Edge 25, Type (0, 0), BuildingBlock: MIFKUJ_clean_linker_0, # of connection points: 2
#     Edge 26, Type (0, 0), BuildingBlock: MIFKUJ_clean_linker_0, # of connection points: 2
#     Edge 27, Type (0, 0), BuildingBlock: MIFKUJ_clean_linker_0, # of connection points: 2
# Relax obj value: 0.183
# Max RMSD: 0.172
# Mean RMSD: 0.172
data_MOF--net-zfr--node1-XOMCOT_clean_sbu_1--edge1-MIFKUJ_clean_linker_0
_symmetry_space_group_name_H-M    P1
_symmetry_Int_Tables_number       1
_symmetry_cell_setting            triclinic
loop_
_symmetry_equiv_pos_as_xyz
'x, y, z'
_cell_length_a     65.651642
_cell_length_b     65.612795
_cell_length_c     21.602175
_cell_angle_alpha  90.005121
_cell_angle_beta   90.04008
_cell_angle_gamma 90.025228
loop_
_atom_site_label
_atom_site_type_symbol
_atom_site_fract_x
_atom_site_fract_y
_atom_site_fract_z
_atom_type_partial_charge
C0 C 0.15821 0.3307 0.15932 0.0
C1 C 0.16417 0.32861 0.09866 0.0
N2 N 0.15087 0.31614 0.06984 0.0
N3 N 0.14115 0.31971 0.16866 0.0
C4 C 0.13715 0.31084 0.11365 0.0
H5 H 0.16552 0.34 0.1942 0.0
Co6 Co 0.1271 0.31822 0.24306 0.0
C7 C 0.08415 0.32072 0.20062 0.0
O8 O 0.08111 0.3352 0.24171 0.0
N9 N 0.11402 0.31591 0.32003 0.0
C10 C 0.09505 0.30537 0.39934 0.0
C11 C 0.0961 0.30719 0.33605 0.0
C12 C 0.12401 0.31799 0.37441 0.0
N13 N 0.1127 0.31211 0.42336 0.0
O14 O 0.13331 0.28985 0.24947 0.0
H15 H 0.08508 0.30084 0.30441 0.0
H16 H 0.13974 0.32279 0.37769 0.0
O17 O 0.1016 0.31203 0.19761 0.0
C18 C 0.15168 0.28603 0.26432 0.0
O19 O 0.1647 0.30116 0.26889 0.0
N20 N 0.12214 0.34684 0.23826 0.0
C21 C 0.11745 0.38924 0.23123 0.0
C22 C 0.11216 0.37674 0.18107 0.0
C23 C 0.11493 0.35567 0.18513 0.0
C24 C 0.12833 0.35892 0.28611 0.0
C25 C 0.12584 0.38005 0.28399 0.0
H26 H 0.11124 0.34643 0.14525 0.0
H27 H 0.13584 0.35244 0.32568 0.0
H28 H 0.12431 0.30084 0.10588 0.0
H29 H 0.17686 0.33637 0.07702 0.0
H30 H 0.08285 0.29829 0.4253 0.0
H31 H 0.10585 0.38314 0.13902 0.0
H32 H 0.13098 0.38914 0.32282 0.0
C33 C 0.66473 0.15222 0.38991 0.0
C34 C 0.66501 0.15771 0.32846 0.0
N35 N 0.67797 0.14521 0.2986 0.0
N36 N 0.67721 0.13615 0.39841 0.0
C37 C 0.68529 0.1324 0.34211 0.0
H38 H 0.65558 0.1591 0.42592 0.0
Co39 Co 0.68072 0.12219 0.47268 0.0
C40 C 0.67823 0.0795 0.42766 0.0
O41 O 0.66419 0.07561 0.46942 0.0
N42 N 0.68493 0.10899 0.54898 0.0
C43 C 0.69517 0.08897 0.6264 0.0
C44 C 0.69288 0.09054 0.56333 0.0
C45 C 0.68388 0.11873 0.60405 0.0
N46 N 0.68955 0.10677 0.65176 0.0
O47 O 0.70892 0.12948 0.47335 0.0
H48 H 0.69809 0.07928 0.53069 0.0
H49 H 0.67953 0.13456 0.60893 0.0
O50 O 0.68672 0.09705 0.42585 0.0
C51 C 0.71126 0.14806 0.48887 0.0
O52 O 0.69503 0.15921 0.4996 0.0
N53 N 0.65223 0.1165 0.47351 0.0
C54 C 0.60967 0.11276 0.47333 0.0
C55 C 0.62119 0.10688 0.42168 0.0
C56 C 0.64232 0.10929 0.42217 0.0
C57 C 0.64117 0.12296 0.52321 0.0
C58 C 0.61999 0.121 0.52443 0.0
H59 H 0.6507 0.10555 0.38066 0.0
H60 H 0.64851 0.1305 0.56136 0.0
H61 H 0.69574 0.12002 0.33263 0.0
H62 H 0.65622 0.16979 0.30723 0.0
H63 H 0.70157 0.07618 0.65141 0.0
H64 H 0.61399 0.10057 0.38083 0.0
H65 H 0.61174 0.12662 0.56433 0.0
C66 C 0.85347 0.66227 0.68882 0.0
C67 C 0.84989 0.66176 0.62596 0.0
N68 N 0.86238 0.67536 0.5986 0.0
N69 N 0.86829 0.67597 0.70058 0.0
C70 C 0.87295 0.68403 0.64514 0.0
H71 H 0.84642 0.65262 0.72326 0.0
Co72 Co 0.88157 0.6812 0.77424 0.0
C73 C 0.92546 0.68414 0.73975 0.0
O74 O 0.93057 0.67434 0.79051 0.0
N75 N 0.89475 0.68713 0.84941 0.0
C76 C 0.91083 0.70511 0.92208 0.0
C77 C 0.90666 0.7036 0.85992 0.0
C78 C 0.89154 0.6792 0.90623 0.0
N79 N 0.90113 0.6898 0.95108 0.0
O80 O 0.87284 0.70901 0.7695 0.0
H81 H 0.91112 0.71453 0.82496 0.0
H82 H 0.88144 0.66666 0.91562 0.0
O83 O 0.90665 0.68772 0.72847 0.0
C84 C 0.85864 0.71298 0.80775 0.0
O85 O 0.85224 0.69858 0.84523 0.0
N86 N 0.88824 0.65325 0.7795 0.0
C87 C 0.88999 0.61069 0.78426 0.0
C88 C 0.90228 0.62162 0.74284 0.0
C89 C 0.9008 0.64287 0.74004 0.0
C90 C 0.87562 0.64274 0.81807 0.0
C91 C 0.87652 0.62156 0.8222 0.0
H92 H 0.90887 0.65061 0.70354 0.0
H93 H 0.86394 0.65076 0.84343 0.0
H94 H 0.88424 0.69582 0.63891 0.0
H95 H 0.83971 0.65141 0.60214 0.0
H96 H 0.91908 0.71732 0.94459 0.0
H97 H 0.91217 0.61377 0.71057 0.0
H98 H 0.86638 0.61375 0.85381 0.0
C99 C 0.3365 0.84849 0.92828 0.0
C100 C 0.34017 0.84613 0.86588 0.0
N101 N 0.33257 0.86253 0.83639 0.0
N102 N 0.32651 0.86618 0.93754 0.0
C103 C 0.32429 0.87432 0.88068 0.0
H104 H 0.34108 0.83815 0.9647 0.0
Co105 Co 0.31879 0.87684 0.01315 0.0
C106 C 0.31297 0.92105 0.99022 0.0
O107 O 0.32186 0.92532 0.0432 0.0
N108 N 0.31042 0.88726 0.09002 0.0
C109 C 0.28952 0.89964 0.16213 0.0
C110 C 0.29195 0.89581 0.10008 0.0
C111 C 0.31883 0.88599 0.14695 0.0
N112 N 0.30652 0.8935 0.19126 0.0
O113 O 0.29195 0.86618 0.00191 0.0
H114 H 0.28068 0.89863 0.06455 0.0
H115 H 0.33319 0.8788 0.15712 0.0
O116 O 0.31083 0.90247 0.97358 0.0
C117 C 0.29096 0.84812 0.02319 0.0
O118 O 0.30776 0.83976 0.04446 0.0
N119 N 0.34592 0.8854 0.02491 0.0
C120 C 0.38787 0.89047 0.04003 0.0
C121 C 0.37705 0.90252 0.99768 0.0
C122 C 0.35608 0.89954 0.9901 0.0
C123 C 0.35657 0.87268 0.06288 0.0
C124 C 0.37738 0.87535 0.07271 0.0
H125 H 0.34841 0.90793 0.95408 0.0
H126 H 0.3489 0.85994 0.08443 0.0
H127 H 0.31666 0.88859 0.87139 0.0
H128 H 0.34817 0.83362 0.84409 0.0
H129 H 0.27622 0.90613 0.18421 0.0
H130 H 0.3848 0.91384 0.96981 0.0
H131 H 0.38538 0.86507 0.10355 0.0
C132 C 0.14716 0.65574 0.32114 0.0
C133 C 0.15133 0.65534 0.38363 0.0
N134 N 0.14023 0.67004 0.41118 0.0
N135 N 0.13341 0.67053 0.30981 0.0
C136 C 0.12973 0.67912 0.36522 0.0
H137 H 0.15361 0.64581 0.28636 0.0
Co138 Co 0.12203 0.6782 0.23514 0.0
C139 C 0.07769 0.68307 0.26422 0.0
O140 O 0.07234 0.67555 0.21022 0.0
N141 N 0.11119 0.68678 0.15956 0.0
C142 C 0.09865 0.70832 0.08945 0.0
C143 C 0.0998 0.70376 0.15135 0.0
C144 C 0.11738 0.68181 0.10196 0.0
N145 N 0.10989 0.69455 0.0586 0.0
O146 O 0.13167 0.70536 0.24671 0.0
H147 H 0.09391 0.71317 0.18833 0.0
H148 H 0.12814 0.6699 0.0918 0.0
O149 O 0.09656 0.68484 0.27814 0.0
C150 C 0.1506 0.70744 0.23597 0.0
O151 O 0.16154 0.69109 0.22468 0.0
N152 N 0.11398 0.65083 0.22231 0.0
C153 C 0.11017 0.60846 0.21086 0.0
C154 C 0.098 0.61937 0.25269 0.0
C155 C 0.10043 0.64045 0.25865 0.0
C156 C 0.12626 0.64034 0.18264 0.0
C157 C 0.12433 0.61931 0.17516 0.0
H158 H 0.09239 0.64795 0.29566 0.0
H159 H 0.13868 0.64806 0.1599 0.0
H160 H 0.11967 0.692 0.37148 0.0
H161 H 0.16135 0.64474 0.40699 0.0
H162 H 0.09132 0.72151 0.06922 0.0
H163 H 0.08755 0.61154 0.28335 0.0
H164 H 0.13438 0.61154 0.14322 0.0
C165 C 0.33973 0.15013 0.58714 0.0
C166 C 0.34038 0.155 0.64905 0.0
N167 N 0.32667 0.14328 0.67869 0.0
N168 N 0.32595 0.13516 0.57833 0.0
C169 C 0.31805 0.13148 0.63481 0.0
H170 H 0.34894 0.15683 0.55096 0.0
Co171 Co 0.31993 0.12261 0.5039 0.0
C172 C 0.31811 0.07871 0.5344 0.0
O173 O 0.32899 0.07489 0.48467 0.0
N174 N 0.31309 0.11049 0.4279 0.0
C175 C 0.29389 0.09502 0.35685 0.0
C176 C 0.29701 0.09791 0.41906 0.0
C177 C 0.31903 0.11551 0.36998 0.0
N178 N 0.30777 0.10616 0.3261 0.0
O179 O 0.29233 0.13158 0.51033 0.0
H180 H 0.2873 0.09213 0.45547 0.0
H181 H 0.33007 0.12714 0.35945 0.0
O182 O 0.31325 0.0971 0.5477 0.0
C183 C 0.29043 0.14998 0.49264 0.0
O184 O 0.3069 0.16003 0.47628 0.0
N185 N 0.34781 0.11544 0.49661 0.0
C186 C 0.39023 0.11137 0.48918 0.0
C187 C 0.37905 0.10083 0.53434 0.0
C188 C 0.358 0.10357 0.53851 0.0
C189 C 0.35859 0.12665 0.45482 0.0
C190 C 0.37968 0.12457 0.44944 0.0
H191 H 0.35017 0.0968 0.57727 0.0
H192 H 0.35106 0.13835 0.42833 0.0
H193 H 0.30662 0.11998 0.64396 0.0
H194 H 0.35021 0.16619 0.67067 0.0
H195 H 0.28184 0.08611 0.33596 0.0
H196 H 0.38649 0.09086 0.56724 0.0
H197 H 0.38771 0.13402 0.41638 0.0
C198 C 0.84081 0.32119 0.81942 0.0
C199 C 0.8355 0.32215 0.88094 0.0
N200 N 0.8527 0.32162 0.91502 0.0
N201 N 0.86123 0.31998 0.81475 0.0
C202 C 0.86805 0.32011 0.87365 0.0
H203 H 0.83052 0.32208 0.78041 0.0
Co204 Co 0.87521 0.32099 0.74065 0.0
C205 C 0.91894 0.32004 0.7743 0.0
O206 O 0.92217 0.33406 0.73194 0.0
N207 N 0.88854 0.32163 0.66345 0.0
C208 C 0.90536 0.31057 0.58037 0.0
C209 C 0.90286 0.30839 0.64318 0.0
C210 C 0.88209 0.3311 0.61146 0.0
N211 N 0.8921 0.32473 0.56057 0.0
O212 O 0.86888 0.29287 0.72596 0.0
H213 H 0.90989 0.29671 0.67127 0.0
H214 H 0.86909 0.3411 0.60949 0.0
O215 O 0.90085 0.31325 0.78275 0.0
C216 C 0.85434 0.29137 0.68709 0.0
O217 O 0.84589 0.30819 0.66629 0.0
N218 N 0.87959 0.34921 0.75395 0.0
C219 C 0.8815 0.39157 0.76667 0.0
C220 C 0.89337 0.37886 0.80432 0.0
C221 C 0.89174 0.35771 0.79851 0.0
C222 C 0.8667 0.36134 0.72095 0.0
C223 C 0.86767 0.38254 0.72555 0.0
H224 H 0.89998 0.3484 0.83106 0.0
H225 H 0.85519 0.35452 0.69187 0.0
H226 H 0.884 0.3196 0.88597 0.0
H227 H 0.82023 0.32405 0.8989 0.0
H228 H 0.91476 0.30114 0.55082 0.0
H229 H 0.90343 0.38519 0.83912 0.0
H230 H 0.8577 0.39174 0.69701 0.0
C231 C 0.69146 0.84518 0.09736 0.0
C232 C 0.69665 0.84413 0.15896 0.0
N233 N 0.69042 0.86141 0.18655 0.0
N234 N 0.68225 0.86317 0.08596 0.0
C235 C 0.68171 0.87271 0.14141 0.0
H236 H 0.69414 0.83349 0.06306 0.0
Co237 Co 0.67284 0.87113 0.00846 0.0
C238 C 0.67628 0.91648 0.00217 0.0
O239 O 0.66135 0.9172 0.96176 0.0
N240 N 0.66341 0.87842 0.92826 0.0
C241 C 0.64519 0.88124 0.84166 0.0
C242 C 0.64454 0.8767 0.90361 0.0
C243 C 0.67515 0.88431 0.87983 0.0
N244 N 0.66452 0.88584 0.82656 0.0
O245 O 0.69909 0.86466 0.97457 0.0
H246 H 0.63106 0.87172 0.92757 0.0
H247 H 0.69137 0.887 0.88323 0.0
O248 O 0.68193 0.89928 0.02452 0.0
C249 C 0.69991 0.84898 0.93976 0.0
O250 O 0.68305 0.83891 0.92778 0.0
N251 N 0.64685 0.87558 0.04259 0.0
C252 C 0.60561 0.87752 0.07151 0.0
C253 C 0.61842 0.89414 0.08382 0.0
C254 C 0.63916 0.89281 0.06944 0.0
C255 C 0.6351 0.85852 0.03801 0.0
C256 C 0.6143 0.85926 0.05083 0.0
H257 H 0.64867 0.90577 0.07915 0.0
H258 H 0.64165 0.84469 0.01938 0.0
H259 H 0.67522 0.88768 0.14855 0.0
H260 H 0.70401 0.83146 0.18201 0.0
H261 H 0.63259 0.88001 0.80956 0.0
H262 H 0.61232 0.90833 0.10146 0.0
H263 H 0.60496 0.84594 0.04231 0.0
H264 H 0.28279 0.1904 0.48298 0.0
H265 H 0.2507 0.20691 0.45773 0.0
H266 H 0.22026 0.14864 0.45905 0.0
H267 H 0.25273 0.1318 0.48422 0.0
H268 H 0.2125 0.17075 0.35328 0.0
H269 H 0.20722 0.18318 0.57094 0.0
H270 H 0.22081 0.19284 0.67334 0.0
H271 H 0.23526 0.25255 0.60487 0.0
H272 H 0.22178 0.24325 0.50209 0.0
H273 H 0.13223 0.26039 0.34419 0.0
H274 H 0.14697 0.23001 0.39409 0.0
H275 H 0.20063 0.23601 0.28046 0.0
H276 H 0.18632 0.26659 0.23245 0.0
H277 H 0.18625 0.23256 0.45892 0.0
H278 H 0.21568 0.18689 0.24632 0.0
H279 H 0.20397 0.17784 0.14139 0.0
H280 H 0.14174 0.18461 0.19879 0.0
H281 H 0.15304 0.19339 0.30432 0.0
C282 C 0.26924 0.18106 0.4789 0.0
C283 C 0.27029 0.15979 0.48548 0.0
C284 C 0.25084 0.19056 0.46487 0.0
C285 C 0.233 0.17906 0.4572 0.0
C286 C 0.23382 0.15781 0.46525 0.0
C287 C 0.25233 0.14824 0.47985 0.0
C288 C 0.21421 0.18937 0.43522 0.0
C289 C 0.20645 0.18403 0.37686 0.0
C290 C 0.20613 0.20653 0.46642 0.0
C291 C 0.21348 0.21249 0.52883 0.0
C292 C 0.21328 0.19837 0.57777 0.0
C293 C 0.22097 0.20379 0.63587 0.0
C294 C 0.22894 0.22328 0.64556 0.0
C295 C 0.22911 0.23745 0.59728 0.0
C296 C 0.22133 0.23215 0.5392 0.0
C297 C 0.14689 0.25478 0.32876 0.0
C298 C 0.15814 0.2656 0.28422 0.0
C299 C 0.15533 0.23758 0.35749 0.0
C300 C 0.17481 0.23073 0.3406 0.0
C301 C 0.18548 0.24092 0.29362 0.0
C302 C 0.17732 0.25834 0.2662 0.0
C303 C 0.18529 0.21445 0.37582 0.0
C304 C 0.19167 0.21881 0.4364 0.0
C305 C 0.19215 0.19645 0.34653 0.0
C306 C 0.18524 0.19088 0.28328 0.0
C307 C 0.19949 0.18631 0.23673 0.0
C308 C 0.19292 0.18126 0.17708 0.0
C309 C 0.17213 0.18068 0.16341 0.0
C310 C 0.15785 0.18512 0.20939 0.0
C311 C 0.16433 0.19016 0.26912 0.0
H312 H 0.16708 0.17678 0.1172 0.0
H313 H 0.23492 0.22742 0.69053 0.0
H314 H 0.83509 0.2844 0.57873 0.0
H315 H 0.81716 0.25367 0.54681 0.0
H316 H 0.83796 0.22267 0.71104 0.0
H317 H 0.85627 0.25371 0.74362 0.0
H318 H 0.83382 0.19852 0.58061 0.0
H319 H 0.79745 0.23749 0.73709 0.0
H320 H 0.78579 0.26984 0.78317 0.0
H321 H 0.75408 0.28468 0.6152 0.0
H322 H 0.76586 0.25256 0.56778 0.0
H323 H 0.74451 0.13186 0.54798 0.0
H324 H 0.77476 0.15089 0.5829 0.0
H325 H 0.75322 0.2041 0.48527 0.0
H326 H 0.72292 0.18547 0.45282 0.0
H327 H 0.75994 0.21303 0.60066 0.0
H328 H 0.79661 0.17605 0.44156 0.0
H329 H 0.80927 0.14516 0.38914 0.0
H330 H 0.84045 0.12705 0.55503 0.0
H331 H 0.82776 0.15772 0.60868 0.0
C332 C 0.8362 0.27096 0.6077 0.0
C333 C 0.84672 0.27155 0.66432 0.0
C334 C 0.82609 0.25336 0.58904 0.0
C335 C 0.82615 0.236 0.62677 0.0
C336 C 0.83788 0.23593 0.6812 0.0
C337 C 0.8482 0.25366 0.69987 0.0
C338 C 0.81123 0.21967 0.61346 0.0
C339 C 0.81765 0.20137 0.58611 0.0
C340 C 0.79019 0.22364 0.61984 0.0
C341 C 0.78264 0.2427 0.64882 0.0
C342 C 0.78809 0.24772 0.70988 0.0
C343 C 0.78146 0.266 0.73624 0.0
C344 C 0.76922 0.27932 0.70211 0.0
C345 C 0.76355 0.27435 0.6416 0.0
C346 C 0.77019 0.2561 0.61498 0.0
C347 C 0.74664 0.14744 0.53273 0.0
C348 C 0.73147 0.1573 0.49798 0.0
C349 C 0.76387 0.15831 0.55273 0.0
C350 C 0.7662 0.17901 0.53713 0.0
C351 C 0.75167 0.18825 0.49854 0.0
C352 C 0.73441 0.17758 0.47972 0.0
C353 C 0.78232 0.19193 0.56551 0.0
C354 C 0.77607 0.20975 0.59604 0.0
C355 C 0.8034 0.18744 0.56162 0.0
C356 C 0.81103 0.16904 0.52934 0.0
C357 C 0.80602 0.16539 0.46702 0.0
C358 C 0.81323 0.14794 0.43705 0.0
C359 C 0.8256 0.13412 0.46879 0.0
C360 C 0.83084 0.13774 0.53053 0.0
C361 C 0.82365 0.15516 0.56072 0.0
H362 H 0.83117 0.12062 0.44551 0.0
H363 H 0.76411 0.29348 0.72257 0.0
H364 H 0.85613 0.73766 0.9071 0.0
H365 H 0.83319 0.76668 0.92024 0.0
H366 H 0.81405 0.76085 0.72976 0.0
H367 H 0.83807 0.73251 0.71582 0.0
H368 H 0.81079 0.79879 0.75992 0.0
H369 H 0.78963 0.73706 0.84944 0.0
H370 H 0.78987 0.70594 0.91318 0.0
H371 H 0.79091 0.74224 0.07847 0.0
H372 H 0.79178 0.77359 0.0158 0.0
H373 H 0.70606 0.82834 0.83234 0.0
H374 H 0.73729 0.81101 0.79939 0.0
H375 H 0.76859 0.83423 0.96018 0.0
H376 H 0.73749 0.85202 0.99269 0.0
H377 H 0.76542 0.78874 0.94098 0.0
H378 H 0.78417 0.85149 0.83494 0.0
H379 H 0.7767 0.87919 0.76121 0.0
H380 H 0.77098 0.83563 0.61389 0.0
H381 H 0.77808 0.80763 0.68697 0.0
C382 C 0.84753 0.74311 0.86757 0.0
C383 C 0.84878 0.73302 0.81051 0.0
C384 C 0.8343 0.75954 0.87515 0.0
C385 C 0.82138 0.76558 0.82655 0.0
C386 C 0.82375 0.75644 0.76806 0.0
C387 C 0.83747 0.74029 0.76002 0.0
C388 C 0.80415 0.77976 0.83887 0.0
C389 C 0.80088 0.79652 0.79946 0.0
C390 C 0.7908 0.77664 0.88969 0.0
C391 C 0.79112 0.75774 0.92773 0.0
C392 C 0.79034 0.73844 0.89935 0.0
C393 C 0.79031 0.72073 0.93534 0.0
C394 C 0.79063 0.7221 -0.00014 0.0
C395 C 0.79096 0.74118 0.02849 0.0
C396 C 0.79133 0.75894 0.99275 0.0
C397 C 0.71974 0.83008 0.85995 0.0
C398 C 0.7194 0.84136 0.91529 0.0
C399 C 0.73755 0.82027 0.84092 0.0
C400 C 0.75517 0.82138 0.87744 0.0
C401 C 0.75512 0.83334 0.93132 0.0
C402 C 0.73741 0.8435 0.94974 0.0
C403 C 0.7727 0.80799 0.86375 0.0
C404 C 0.77571 0.79114 0.90236 0.0
C405 C 0.78508 0.81054 0.81085 0.0
C406 C 0.78154 0.82745 0.76655 0.0
C407 C 0.78122 0.84781 0.7869 0.0
C408 C 0.77705 0.86357 0.74521 0.0
C409 C 0.77332 0.85917 0.68293 0.0
C410 C 0.77388 0.83902 0.66215 0.0
C411 C 0.778 0.8232 0.70367 0.0
H412 H 0.77003 0.87138 0.65077 0.0
H413 H 0.79048 0.70838 0.02769 0.0
H414 H 0.13199 0.74246 0.19633 0.0
H415 H 0.14904 0.77375 0.16115 0.0
H416 H 0.207 0.74889 0.21734 0.0
H417 H 0.19016 0.71773 0.25178 0.0
H418 H 0.20381 0.79032 0.24211 0.0
H419 H 0.19143 0.74209 0.07412 0.0
H420 H 0.16875 0.72115 0.00882 0.0
H421 H 0.13702 0.77496 0.94979 0.0
H422 H 0.15933 0.79619 0.01563 0.0
H423 H 0.2857 0.80846 0.05363 0.0
H424 H 0.25444 0.79175 0.08636 0.0
H425 H 0.22033 0.84633 0.04683 0.0
H426 H 0.25195 0.86354 0.01436 0.0
H427 H 0.20397 0.79868 0.01363 0.0
H428 H 0.22258 0.84746 0.17307 0.0
H429 H 0.24797 0.8658 0.23615 0.0
H430 H 0.26954 0.80902 0.31007 0.0
H431 H 0.24453 0.79031 0.24638 0.0
C432 C 0.14829 0.74397 0.20271 0.0
C433 C 0.15981 0.72769 0.22651 0.0
C434 C 0.158 0.76177 0.18232 0.0
C435 C 0.17929 0.76354 0.18624 0.0
C436 C 0.19056 0.74785 0.21401 0.0
C437 C 0.18094 0.73003 0.23348 0.0
C438 C 0.19038 0.78054 0.15611 0.0
C439 C 0.20355 0.79243 0.1923 0.0
C440 C 0.18993 0.78338 0.09108 0.0
C441 C 0.17687 0.77069 0.05035 0.0
C442 C 0.17953 0.74944 0.0475 0.0
C443 C 0.16675 0.73752 0.0104 0.0
C444 C 0.1514 0.74671 0.97534 0.0
C445 C 0.14888 0.76786 0.9771 0.0
C446 C 0.16158 0.77984 0.01431 0.0
C447 C 0.27156 0.8169 0.0508 0.0
C448 C 0.27135 0.83741 0.03209 0.0
C449 C 0.25369 0.80726 0.06929 0.0
C450 C 0.23518 0.81786 0.06928 0.0
C451 C 0.23453 0.83793 0.04689 0.0
C452 C 0.25257 0.84771 0.02846 0.0
C453 C 0.21745 0.80826 0.09974 0.0
C454 C 0.20337 0.79741 0.06366 0.0
C455 C 0.21708 0.80628 0.16491 0.0
C456 C 0.23175 0.81748 0.20467 0.0
C457 C 0.23283 0.83888 0.20245 0.0
C458 C 0.24715 0.84934 0.23834 0.0
C459 C 0.26038 0.83858 0.27706 0.0
C460 C 0.25927 0.81733 0.28006 0.0
C461 C 0.24502 0.80679 0.24412 0.0
H462 H 0.27146 0.8467 0.30482 0.0
H463 H 0.14151 0.73745 0.94671 0.0
H464 H 0.15069 0.30601 0.46948 0.0
H465 H 0.16054 0.305 0.57889 0.0
H466 H 0.09808 0.31563 0.63164 0.0
H467 H 0.08823 0.31692 0.52248 0.0
H468 H 0.12491 0.33995 0.69512 0.0
H469 H 0.11772 0.2694 0.6392 0.0
H470 H 0.12492 0.2386 0.57767 0.0
H471 H 0.18752 0.24064 0.63433 0.0
H472 H 0.18092 0.27184 0.69463 0.0
H473 H 0.11773 0.30478 0.00269 0.0
H474 H 0.11591 0.30077 0.89096 0.0
H475 H 0.17987 0.31384 0.87501 0.0
H476 H 0.18232 0.31691 0.98785 0.0
H477 H 0.156 0.27878 0.79186 0.0
H478 H 0.1623 0.34955 0.85084 0.0
H479 H 0.15398 0.3798 0.91331 0.0
H480 H 0.09217 0.37758 0.84876 0.0
H481 H 0.10002 0.34706 0.78685 0.0
C482 C 0.13911 0.30832 0.5044 0.0
C483 C 0.11868 0.31158 0.48748 0.0
C484 C 0.14473 0.30757 0.56683 0.0
C485 C 0.13002 0.31014 0.61329 0.0
C486 C 0.10966 0.31359 0.59646 0.0
C487 C 0.10403 0.31419 0.53418 0.0
C488 C 0.1357 0.30939 0.67963 0.0
C489 C 0.13164 0.32655 0.71631 0.0
C490 C 0.14488 0.29202 0.70679 0.0
C491 C 0.14888 0.27317 0.67074 0.0
C492 C 0.1331 0.26345 0.6379 0.0
C493 C 0.13709 0.24591 0.6032 0.0
C494 C 0.15674 0.23776 0.60164 0.0
C495 C 0.17239 0.24708 0.63507 0.0
C496 C 0.16854 0.26471 0.66948 0.0
C497 C 0.13157 0.30643 0.97602 0.0
C498 C 0.15013 0.31159 0.00452 0.0
C499 C 0.13036 0.30443 0.91189 0.0
C500 C 0.14751 0.30781 0.87488 0.0
C501 C 0.16639 0.31148 0.903 0.0
C502 C 0.16768 0.31345 0.96739 0.0
C503 C 0.14506 0.30928 0.80704 0.0
C504 C 0.14958 0.29226 0.7703 0.0
C505 C 0.13628 0.32679 0.77963 0.0
C506 C 0.13158 0.34543 0.81608 0.0
C507 C 0.14681 0.35516 0.85113 0.0
C508 C 0.14222 0.37249 0.8861 0.0
C509 C 0.1225 0.38047 0.8856 0.0
C510 C 0.1074 0.37127 0.84958 0.0
C511 C 0.11192 0.35392 0.81465 0.0
H512 H 0.11897 0.39389 0.91268 0.0
H513 H 0.15982 0.22417 0.57481 0.0
H514 H 0.71346 0.13603 0.24188 0.0
H515 H 0.7194 0.13339 0.13021 0.0
H516 H 0.65639 0.14864 0.09621 0.0
H517 H 0.65077 0.15212 0.20737 0.0
H518 H 0.70596 0.10884 0.052 0.0
H519 H 0.64884 0.1696 0.95762 0.0
H520 H 0.63637 0.20379 0.98607 0.0
H521 H 0.69071 0.2145 0.09192 0.0
H522 H 0.70364 0.18051 0.06342 0.0
H523 H 0.67844 0.08334 0.74803 0.0
H524 H 0.67968 0.09236 0.85784 0.0
H525 H 0.70511 0.15105 0.81048 0.0
H526 H 0.70277 0.14231 0.70037 0.0
H527 H 0.6799 0.15704 0.8945 0.0
H528 H 0.73348 0.10903 0.87362 0.0
H529 H 0.75127 0.07701 0.84849 0.0
H530 H 0.71309 0.04445 0.976 0.0
H531 H 0.69472 0.07614 0.00073 0.0
C532 C 0.701 0.13903 0.21032 0.0
C533 C 0.68171 0.1444 0.23307 0.0
C534 C 0.70437 0.13754 0.14659 0.0
C535 C 0.68843 0.14109 0.10445 0.0
C536 C 0.66913 0.14642 0.12738 0.0
C537 C 0.66587 0.14831 0.19098 0.0
C538 C 0.69151 0.13777 0.03697 0.0
C539 C 0.70036 0.11941 0.01764 0.0
C540 C 0.68474 0.15185 0.99178 0.0
C541 C 0.67713 0.17241 0.00875 0.0
C542 C 0.65818 0.17928 0.98672 0.0
C543 C 0.65102 0.19863 0.00292 0.0
C544 C 0.66272 0.21129 0.04092 0.0
C545 C 0.68163 0.20465 0.06268 0.0
C546 C 0.68887 0.18533 0.04659 0.0
C547 C 0.68432 0.09812 0.76139 0.0
C548 C 0.69052 0.11214 0.71614 0.0
C549 C 0.68518 0.10324 0.82407 0.0
C550 C 0.6929 0.12226 0.84286 0.0
C551 C 0.69909 0.13629 0.79739 0.0
C552 C 0.69776 0.13133 0.73456 0.0
C553 C 0.69386 0.12771 0.90971 0.0
C554 C 0.6857 0.14649 0.92889 0.0
C555 C 0.70193 0.11426 0.95486 0.0
C556 C 0.71254 0.09499 0.93846 0.0
C557 C 0.72867 0.09501 0.89566 0.0
C558 C 0.73889 0.0769 0.88156 0.0
C559 C 0.73326 0.05869 0.91042 0.0
C560 C 0.71739 0.05854 0.95344 0.0
C561 C 0.70704 0.07657 0.96744 0.0
H562 H 0.74125 0.04471 0.8996 0.0
H563 H 0.65714 0.22625 0.05342 0.0
H564 H 0.86773 0.67564 0.01043 0.0
H565 H 0.86263 0.67336 0.12184 0.0
H566 H 0.92311 0.697 0.15278 0.0
H567 H 0.92852 0.69893 0.04045 0.0
H568 H 0.91331 0.66472 0.2313 0.0
H569 H 0.88583 0.7284 0.16986 0.0
H570 H 0.86561 0.75203 0.10595 0.0
H571 H 0.81074 0.7208 0.15796 0.0
H572 H 0.83069 0.69677 0.22154 0.0
H573 H 0.89728 0.68852 0.54466 0.0
H574 H 0.90416 0.69188 0.43498 0.0
H575 H 0.84366 0.67021 0.39305 0.0
H576 H 0.83621 0.66774 0.50396 0.0
H577 H 0.85479 0.70258 0.32055 0.0
H578 H 0.88474 0.63811 0.38242 0.0
H579 H 0.9066 0.61641 0.44791 0.0
H580 H 0.95889 0.6521 0.39781 0.0
H581 H 0.9373 0.67409 0.33224 0.0
C582 C 0.88012 0.67999 0.04074 0.0
C583 C 0.89858 0.68743 0.01675 0.0
C584 C 0.8771 0.67886 0.10441 0.0
C585 C 0.89242 0.68521 0.14528 0.0
C586 C 0.9111 0.69208 0.12175 0.0
C587 C 0.91412 0.6933 0.05783 0.0
C588 C 0.88848 0.68525 0.21252 0.0
C589 C 0.9007 0.67319 0.25105 0.0
C590 C 0.87193 0.69622 0.23786 0.0
C591 C 0.85978 0.71067 0.20004 0.0
C592 C 0.86947 0.72646 0.16729 0.0
C593 C 0.85806 0.73995 0.13118 0.0
C594 C 0.83692 0.73791 0.12781 0.0
C595 C 0.82712 0.72237 0.16057 0.0
C596 C 0.83847 0.70881 0.19673 0.0
C597 C 0.88521 0.68487 0.51257 0.0
C598 C 0.8661 0.67795 0.53339 0.0
C599 C 0.88931 0.68653 0.44963 0.0
C600 C 0.87454 0.68096 0.406 0.0
C601 C 0.85529 0.67446 0.42621 0.0
C602 C 0.85111 0.67292 0.48948 0.0
C603 C 0.87938 0.68174 0.33929 0.0
C604 C 0.86737 0.69405 0.30082 0.0
C605 C 0.89633 0.67124 0.31426 0.0
C606 C 0.90939 0.65778 0.35265 0.0
C607 C 0.90089 0.64135 0.3855 0.0
C608 C 0.91323 0.629 0.42258 0.0
C609 C 0.93411 0.63286 0.42693 0.0
C610 C 0.94271 0.64909 0.39421 0.0
C611 C 0.93045 0.66147 0.35697 0.0
H612 H 0.94363 0.62325 0.45558 0.0
H613 H 0.82816 0.74845 0.09999 0.0
H614 H 0.2791 0.88637 0.28169 0.0
H615 H 0.28604 0.88365 0.39262 0.0
H616 H 0.34937 0.89764 0.35924 0.0
H617 H 0.3425 0.8997 0.24806 0.0
H618 H 0.34701 0.86734 0.43455 0.0
H619 H 0.31522 0.932 0.41948 0.0
H620 H 0.2889 0.95714 0.39175 0.0
H621 H 0.24608 0.92706 0.51086 0.0
H622 H 0.27194 0.90135 0.53795 0.0
H623 H 0.33617 0.89962 0.78367 0.0
H624 H 0.33505 0.90751 0.6732 0.0
H625 H 0.32862 0.84345 0.63174 0.0
H626 H 0.33014 0.83552 0.74236 0.0
H627 H 0.30593 0.90269 0.59443 0.0
H628 H 0.34859 0.83242 0.49286 0.0
H629 H 0.37718 0.8098 0.52064 0.0
H630 H 0.40265 0.85671 0.6357 0.0
H631 H 0.37438 0.87971 0.60796 0.0
C632 C 0.29442 0.88907 0.29828 0.0
C633 C 0.31028 0.89323 0.25664 0.0
C634 C 0.29839 0.88754 0.36154 0.0
C635 C 0.3182 0.89066 0.38427 0.0
C636 C 0.33399 0.89512 0.34269 0.0
C637 C 0.33008 0.89631 0.27936 0.0
C638 C 0.32259 0.8886 0.45118 0.0
C639 C 0.33806 0.87513 0.4695 0.0
C640 C 0.31121 0.89913 0.49671 0.0
C641 C 0.29554 0.9146 0.48037 0.0
C642 C 0.30012 0.93056 0.43921 0.0
C643 C 0.28527 0.94493 0.42356 0.0
C644 C 0.26582 0.94369 0.44946 0.0
C645 C 0.26116 0.92802 0.49085 0.0
C646 C 0.27591 0.91352 0.50629 0.0
C647 C 0.33459 0.88724 0.75088 0.0
C648 C 0.33316 0.86696 0.77136 0.0
C649 C 0.33399 0.89176 0.68788 0.0
C650 C 0.33188 0.87608 0.64421 0.0
C651 C 0.33066 0.85577 0.66456 0.0
C652 C 0.3315 0.85123 0.72764 0.0
C653 C 0.32996 0.88103 0.57763 0.0
C654 C 0.31495 0.89503 0.55939 0.0
C655 C 0.34208 0.87139 0.53217 0.0
C656 C 0.35925 0.85772 0.54872 0.0
C657 C 0.36034 0.83794 0.52388 0.0
C658 C 0.37648 0.82505 0.53966 0.0
C659 C 0.39168 0.83179 0.58005 0.0
C660 C 0.39082 0.85148 0.6046 0.0
C661 C 0.37472 0.86443 0.58894 0.0
H662 H 0.40416 0.82179 0.59222 0.0
H663 H 0.25438 0.9549 0.43755 0.0
H664 H 0.08557 0.70767 0.96609 0.0
H665 H 0.09265 0.70604 0.85505 0.0
H666 H 0.15156 0.67974 0.89306 0.0
H667 H 0.14483 0.68192 0.00407 0.0
H668 H 0.15309 0.70763 0.79888 0.0
H669 H 0.11283 0.64939 0.85617 0.0
H670 H 0.08347 0.63156 0.90233 0.0
H671 H 0.04299 0.66257 0.77777 0.0
H672 H 0.07209 0.68086 0.73153 0.0
H673 H 0.16864 0.66271 0.49986 0.0
H674 H 0.16517 0.66901 0.61108 0.0
H675 H 0.10526 0.69408 0.58071 0.0
H676 H 0.10829 0.68726 0.47064 0.0
H677 H 0.10515 0.6667 0.67185 0.0
H678 H 0.14548 0.72475 0.6135 0.0
H679 H 0.17486 0.74246 0.56712 0.0
H680 H 0.21527 0.71164 0.69232 0.0
H681 H 0.18613 0.69351 0.73889 0.0
C682 C 0.10012 0.7018 0.95074 0.0
C683 C 0.11448 0.69457 0.99361 0.0
C684 C 0.1041 0.70079 0.88744 0.0
C685 C 0.12247 0.69244 0.86608 0.0
C686 C 0.13723 0.68607 0.90877 0.0
C687 C 0.13325 0.68708 0.97208 0.0
C688 C 0.12583 0.68934 0.79921 0.0
C689 C 0.14276 0.69851 0.77107 0.0
C690 C 0.11215 0.67766 0.76314 0.0
C691 C 0.09462 0.66666 0.79085 0.0
C692 C 0.09765 0.65255 0.83899 0.0
C693 C 0.08106 0.64234 0.86512 0.0
C694 C 0.06137 0.64598 0.84312 0.0
C695 C 0.05824 0.6598 0.79485 0.0
C696 C 0.07478 0.67009 0.76865 0.0
C697 C 0.15473 0.66951 0.51694 0.0
C698 C 0.13875 0.67448 0.47626 0.0
C699 C 0.15286 0.67329 0.58034 0.0
C700 C 0.13502 0.68215 0.60388 0.0
C701 C 0.11917 0.68729 0.56336 0.0
C702 C 0.12101 0.68351 0.50025 0.0
C703 C 0.13228 0.68519 0.67108 0.0
C704 C 0.11548 0.67588 0.69946 0.0
C705 C 0.1461 0.69671 0.70717 0.0
C706 C 0.16364 0.7076 0.67922 0.0
C707 C 0.16064 0.7216 0.63077 0.0
C708 C 0.17726 0.73175 0.60452 0.0
C709 C 0.19693 0.72814 0.62664 0.0
C710 C 0.20003 0.7144 0.67517 0.0
C711 C 0.18347 0.70419 0.70154 0.0
H712 H 0.20977 0.73602 0.60627 0.0
H713 H 0.04855 0.63804 0.86338 0.0
H714 H 0.34137 0.11452 0.25885 0.0
H715 H 0.34288 0.12206 0.14806 0.0
H716 H 0.27784 0.11359 0.13428 0.0
H717 H 0.27632 0.10585 0.24483 0.0
H718 H 0.29627 0.09628 0.03938 0.0
H719 H 0.29867 0.16135 0.13757 0.0
H720 H 0.31112 0.18738 0.21072 0.0
H721 H 0.37008 0.18583 0.12495 0.0
H722 H 0.35807 0.15955 0.0518 0.0
H723 H 0.29064 0.13783 0.7363 0.0
H724 H 0.28512 0.13372 0.84787 0.0
H725 H 0.34964 0.14118 0.87961 0.0
H726 H 0.35496 0.14612 0.7686 0.0
H727 H 0.32892 0.16009 0.96618 0.0
H728 H 0.32404 0.09388 0.86517 0.0
H729 H 0.3085 0.07064 0.78902 0.0
H730 H 0.25092 0.07546 0.88212 0.0
H731 H 0.26591 0.09946 0.95725 0.0
C732 C 0.32742 0.11431 0.23213 0.0
C733 C 0.30874 0.10967 0.26047 0.0
C734 C 0.32827 0.11864 0.16895 0.0
C735 C 0.31041 0.1187 0.13317 0.0
C736 C 0.2918 0.11364 0.16107 0.0
C737 C 0.29096 0.10915 0.22417 0.0
C738 C 0.31116 0.12413 0.06668 0.0
C739 C 0.30319 0.11035 0.02335 0.0
C740 C 0.32026 0.14245 0.04588 0.0
C741 C 0.32752 0.15834 0.08956 0.0
C742 C 0.31434 0.16645 0.13459 0.0
C743 C 0.32131 0.18126 0.17601 0.0
C744 C 0.34139 0.18822 0.17258 0.0
C745 C 0.35454 0.18041 0.1276 0.0
C746 C 0.34765 0.16557 0.0861 0.0
C747 C 0.30355 0.13872 0.7674 0.0
C748 C 0.32322 0.14216 0.74418 0.0
C749 C 0.30042 0.13634 0.83094 0.0
C750 C 0.31704 0.1367 0.87197 0.0
C751 C 0.3366 0.14079 0.84885 0.0
C752 C 0.33964 0.14361 0.78553 0.0
C753 C 0.31435 0.13209 0.93867 0.0
C754 C 0.32197 0.14604 0.98215 0.0
C755 C 0.30466 0.11404 0.95958 0.0
C756 C 0.29604 0.09872 0.9163 0.0
C757 C 0.30804 0.09009 0.86919 0.0
C758 C 0.29929 0.07684 0.82605 0.0
C759 C 0.27869 0.07166 0.83055 0.0
C760 C 0.26684 0.07958 0.8785 0.0
C761 C 0.27544 0.09308 0.9212 0.0
H762 H 0.27186 0.0615 0.797 0.0
H763 H 0.34676 0.19969 0.2047 0.0
H764 H 0.854 0.32879 0.51482 0.0
H765 H 0.8444 0.33195 0.40571 0.0
H766 H 0.90783 0.33183 0.35399 0.0
H767 H 0.91752 0.32853 0.46345 0.0
H768 H 0.88082 0.36212 0.29071 0.0
H769 H 0.88594 0.28969 0.34328 0.0
H770 H 0.87682 0.26027 0.40872 0.0
H771 H 0.81364 0.2687 0.3641 0.0
H772 H 0.82238 0.29839 0.29907 0.0
H773 H 0.88521 0.33628 0.97863 0.0
H774 H 0.88824 0.34029 0.08984 0.0
H775 H 0.82706 0.31777 0.11387 0.0
H776 H 0.82412 0.3129 0.00202 0.0
H777 H 0.84879 0.30116 0.19546 0.0
H778 H 0.84178 0.37034 0.13545 0.0
H779 H 0.84821 0.40165 0.07535 0.0
H780 H 0.91034 0.40222 0.13748 0.0
H781 H 0.90437 0.37078 0.19733 0.0
C782 C 0.86589 0.32989 0.4803 0.0
C783 C 0.88652 0.32851 0.49731 0.0
C784 C 0.86039 0.33158 0.41812 0.0
C785 C 0.87543 0.33209 0.37214 0.0
C786 C 0.89605 0.33153 0.38907 0.0
C787 C 0.90156 0.32954 0.45125 0.0
C788 C 0.86967 0.33174 0.30611 0.0
C789 C 0.87394 0.34881 0.26946 0.0
C790 C 0.85993 0.31464 0.27956 0.0
C791 C 0.85479 0.29636 0.31682 0.0
C792 C 0.87009 0.28533 0.34768 0.0
C793 C 0.86499 0.26861 0.38468 0.0
C794 C 0.84465 0.26266 0.39073 0.0
C795 C 0.82938 0.27335 0.35945 0.0
C796 C 0.8344 0.2901 0.32247 0.0
C797 C 0.87243 0.33192 0.0073 0.0
C798 C 0.85445 0.32411 0.98113 0.0
C799 C 0.87411 0.33451 0.07111 0.0
C800 C 0.85787 0.32954 0.11048 0.0
C801 C 0.83983 0.32178 0.08457 0.0
C802 C 0.83813 0.31911 0.02053 0.0
C803 C 0.86028 0.33151 0.17867 0.0
C804 C 0.85539 0.3147 0.21616 0.0
C805 C 0.86899 0.34911 0.20626 0.0
C806 C 0.87263 0.36814 0.1707 0.0
C807 C 0.85684 0.37709 0.13606 0.0
C808 C 0.8604 0.39486 0.10205 0.0
C809 C 0.87967 0.4039 0.10257 0.0
C810 C 0.89542 0.3952 0.13717 0.0
C811 C 0.89194 0.37743 0.17125 0.0
H812 H 0.88241 0.41765 0.07624 0.0
H813 H 0.84072 0.24975 0.41956 0.0
H814 H 0.66209 0.8795 0.25779 0.0
H815 H 0.66493 0.88798 0.36799 0.0
H816 H 0.72502 0.86141 0.37268 0.0
H817 H 0.72237 0.85356 0.26175 0.0
H818 H 0.702 0.84801 0.46772 0.0
H819 H 0.72268 0.91141 0.39201 0.0
H820 H 0.725 0.94407 0.33609 0.0
H821 H 0.6665 0.96177 0.40648 0.0
H822 H 0.66379 0.92918 0.46293 0.0
H823 H 0.70257 0.87647 0.78553 0.0
H824 H 0.7142 0.87649 0.67809 0.0
H825 H 0.65577 0.89965 0.6196 0.0
H826 H 0.64441 0.90058 0.727 0.0
H827 H 0.68651 0.91641 0.55356 0.0
H828 H 0.66734 0.84705 0.62169 0.0
H829 H 0.672 0.81807 0.69314 0.0
H830 H 0.73499 0.81394 0.64137 0.0
H831 H 0.73076 0.8431 0.5702 0.0
C832 C 0.67602 0.87588 0.28224 0.0
C833 C 0.69214 0.86629 0.25125 0.0
C834 C 0.67766 0.88069 0.34506 0.0
C835 C 0.69534 0.87562 0.37836 0.0
C836 C 0.71133 0.86563 0.34776 0.0
C837 C 0.70977 0.86107 0.28464 0.0
C838 C 0.69633 0.87959 0.44592 0.0
C839 C 0.69899 0.86306 0.48643 0.0
C840 C 0.69262 0.89921 0.47059 0.0
C841 C 0.69301 0.9178 0.43154 0.0
C842 C 0.71016 0.92212 0.39484 0.0
C843 C 0.71164 0.94071 0.36358 0.0
C844 C 0.69604 0.95508 0.36851 0.0
C845 C 0.67867 0.9507 0.40336 0.0
C846 C 0.67716 0.93218 0.43504 0.0
C847 C 0.69238 0.8821 0.75007 0.0
C848 C 0.67243 0.88832 0.7648 0.0
C849 C 0.69899 0.88189 0.68854 0.0
C850 C 0.68569 0.88765 0.64072 0.0
C851 C 0.66624 0.895 0.65571 0.0
C852 C 0.65969 0.89535 0.71709 0.0
C853 C 0.69115 0.88474 0.57472 0.0
C854 C 0.68973 0.90145 0.53457 0.0
C855 C 0.69649 0.8654 0.55057 0.0
C856 C 0.69875 0.84727 0.59091 0.0
C857 C 0.68217 0.83993 0.62554 0.0
C858 C 0.68476 0.82352 0.66608 0.0
C859 C 0.70381 0.81422 0.67192 0.0
C860 C 0.72027 0.82121 0.63688 0.0
C861 C 0.71778 0.83764 0.59637 0.0
H862 H 0.7058 0.80157 0.70353 0.0
H863 H 0.69737 0.96955 0.34492 0.0
H864 H 0.08328 0.2906 0.11123 0.0
H865 H 0.05547 0.28313 0.03841 0.0
H866 H 0.02027 0.3323 0.11682 0.0
H867 H 0.04737 0.33933 0.19001 0.0
H868 H 0.99626 0.30273 0.10014 0.0
H869 H 0.04808 0.33496 0.97419 0.0
H870 H 0.0794 0.34083 0.91376 0.0
H871 H 0.07111 0.2836 0.82072 0.0
H872 H 0.03995 0.2772 0.88141 0.0
H873 H 0.95578 0.33851 0.78367 0.0
H874 H 0.98296 0.33156 0.85644 0.0
H875 H 0.94816 0.28197 0.93432 0.0
H876 H 0.92014 0.28955 0.86235 0.0
H877 H 0.00702 0.30233 0.87326 0.0
H878 H 0.96295 0.27538 0.08662 0.0
H879 H 0.92917 0.27881 0.13578 0.0
H880 H 0.92132 0.33728 0.04934 0.0
H881 H 0.95494 0.33417 0.00021 0.0
C882 C 0.06952 0.29969 0.11307 0.0
C883 C 0.06754 0.3155 0.15672 0.0
C884 C 0.05368 0.29548 0.07119 0.0
C885 C 0.0357 0.30716 0.07183 0.0
C886 C 0.03382 0.32288 0.11556 0.0
C887 C 0.04945 0.32695 0.15745 0.0
C888 C 0.0187 0.30354 0.02729 0.0
C889 C 0.9987 0.30246 0.05047 0.0
C890 C 0.02166 0.30299 0.96239 0.0
C891 C 0.04185 0.30548 0.93291 0.0
C892 C 0.05321 0.32341 0.94195 0.0
C893 C 0.07083 0.3269 0.90726 0.0
C894 C 0.07706 0.31269 0.86299 0.0
C895 C 0.06616 0.29463 0.8548 0.0
C896 C 0.04858 0.29102 0.88949 0.0
C897 C 0.95382 0.32605 0.81598 0.0
C898 C 0.93574 0.31458 0.81708 0.0
C899 C 0.96949 0.32202 0.85765 0.0
C900 C 0.96772 0.30625 0.90123 0.0
C901 C 0.94984 0.29441 0.90178 0.0
C902 C 0.93388 0.29867 0.8604 0.0
C903 C 0.98469 0.3029 0.94603 0.0
C904 C 0.00466 0.30217 0.92298 0.0
C905 C 0.98171 0.30262 0.01088 0.0
C906 C 0.96127 0.3044 0.0391 0.0
C907 C 0.95392 0.28891 0.07805 0.0
C908 C 0.93481 0.2908 0.10594 0.0
C909 C 0.92301 0.30818 0.09555 0.0
C910 C 0.93031 0.32372 0.0572 0.0
C911 C 0.94939 0.32189 0.02919 0.0
H912 H 0.90828 0.30961 0.11755 0.0
H913 H 0.0903 0.31564 0.83471 0.0
H914 H 0.7111 0.92351 0.06962 0.0
H915 H 0.71919 0.9542 0.13019 0.0
H916 H 0.66429 0.98287 0.06418 0.0
H917 H 0.65662 0.95295 0.00152 0.0
H918 H 0.70968 0.00777 0.09361 0.0
H919 H 0.64264 0.97761 0.22319 0.0
H920 H 0.6249 0.9451 0.24394 0.0
H921 H 0.68236 0.91375 0.24355 0.0
H922 H 0.70018 0.94589 0.22537 0.0
H923 H 0.65064 0.05412 0.37672 0.0
H924 H 0.65582 0.02899 0.29555 0.0
H925 H 0.71971 0.04465 0.28827 0.0
H926 H 0.71409 0.07104 0.36731 0.0
H927 H 0.67467 0.99661 0.29429 0.0
H928 H 0.73979 0.03009 0.14313 0.0
H929 H 0.75398 0.06369 0.11551 0.0
H930 H 0.696 0.09167 0.15073 0.0
H931 H 0.68131 0.05819 0.17631 0.0
C932 C 0.70108 0.93659 0.06671 0.0
C933 C 0.6831 0.93571 0.03144 0.0
C934 C 0.70579 0.95414 0.10092 0.0
C935 C 0.69222 0.97067 0.10188 0.0
C936 C 0.675 0.9703 0.06368 0.0
C937 C 0.67058 0.95308 0.02827 0.0
C938 C 0.69354 0.98638 0.15085 0.0
C939 C 0.70249 0.00533 0.1382 0.0
C940 C 0.68338 0.98337 0.20764 0.0
C941 C 0.6727 0.96405 0.22162 0.0
C942 C 0.65141 0.96372 0.22792 0.0
C943 C 0.64132 0.94533 0.23947 0.0
C944 C 0.6524 0.92724 0.2449 0.0
C945 C 0.6736 0.92757 0.23926 0.0
C946 C 0.68372 0.94588 0.22812 0.0
C947 C 0.66579 0.05226 0.35765 0.0
C948 C 0.682 0.06438 0.37847 0.0
C949 C 0.66877 0.03785 0.3112 0.0
C950 C 0.68817 0.0348 0.28535 0.0
C951 C 0.70451 0.04689 0.30641 0.0
C952 C 0.70135 0.06185 0.35185 0.0
C953 C 0.69099 0.01842 0.2382 0.0
C954 C 0.68243 0.99923 0.25068 0.0
C955 C 0.70117 0.02153 0.18091 0.0
C956 C 0.70956 0.04166 0.16283 0.0
C957 C 0.73004 0.0434 0.14454 0.0
C958 C 0.73816 0.06242 0.12911 0.0
C959 C 0.72596 0.07983 0.13183 0.0
C960 C 0.7055 0.07821 0.14891 0.0
C961 C 0.69724 0.05919 0.16371 0.0
H962 H 0.73237 0.09456 0.12052 0.0
H963 H 0.64456 0.91303 0.25362 0.0
H964 H 0.03732 0.69144 0.24694 0.0
H965 H 0.01088 0.69457 0.32669 0.0
H966 H 0.05599 0.68471 0.46869 0.0
H967 H 0.08247 0.68187 0.38948 0.0
H968 H 0.01949 0.65864 0.47266 0.0
H969 H 0.03977 0.72956 0.45725 0.0
H970 H 0.046 0.76163 0.40087 0.0
H971 H 0.98351 0.76298 0.34216 0.0
H972 H 0.97698 0.73073 0.39751 0.0
H973 H 0.96624 0.67629 0.74639 0.0
H974 H 0.99132 0.67888 0.66363 0.0
H975 H 0.94526 0.70246 0.54046 0.0
H976 H 0.92021 0.70068 0.62409 0.0
H977 H 0.9806 0.72151 0.521 0.0
H978 H 0.95867 0.65295 0.53434 0.0
H979 H 0.95045 0.62016 0.58411 0.0
H980 H 0.01308 0.61279 0.63702 0.0
H981 H 0.02163 0.6457 0.58827 0.0
C982 C 0.04161 0.69018 0.29521 0.0
C983 C 0.06198 0.68655 0.31206 0.0
C984 C 0.02652 0.69199 0.34061 0.0
C985 C 0.03153 0.68988 0.40344 0.0
C986 C 0.05186 0.68642 0.4204 0.0
C987 C 0.06699 0.68497 0.37515 0.0
C988 C 0.01547 0.69042 0.4515 0.0
C989 C 0.01116 0.67243 0.48391 0.0
C990 C 0.00405 0.70821 0.46401 0.0
C991 C 0.00795 0.72762 0.43094 0.0
C992 C 0.02741 0.73659 0.43183 0.0
C993 C 0.03098 0.75482 0.40017 0.0
C994 C 0.01517 0.7643 0.3678 0.0
C995 C 0.99574 0.7556 0.36717 0.0
C996 C 0.9921 0.73735 0.39871 0.0
C997 C 0.96144 0.68226 0.70197 0.0
C998 C 0.94107 0.6879 0.69153 0.0
C999 C 0.9758 0.68363 0.65453 0.0
C1000 C 0.97008 0.69041 0.59537 0.0
C1001 C 0.95 0.69703 0.58558 0.0
C1002 C 0.93565 0.69585 0.63332 0.0
C1003 C 0.98493 0.6898 0.54352 0.0
C1004 C 0.98891 0.70769 0.50996 0.0
C1005 C 0.99577 0.67176 0.52889 0.0
C1006 C 0.99076 0.65188 0.55801 0.0
C1007 C 0.97067 0.6444 0.55691 0.0
C1008 C 0.96595 0.62579 0.58491 0.0
C1009 C 0.98123 0.61441 0.6138 0.0
C1010 C 0.00126 0.62162 0.61464 0.0
C1011 C 0.00606 0.64025 0.58676 0.0
H1012 H 0.97755 0.6 0.63546 0.0
H1013 H 0.01797 0.77842 0.34333 0.0
H1014 H 0.32728 0.96005 0.99281 0.0
H1015 H 0.32309 0.98633 0.91431 0.0
H1016 H 0.28434 0.94611 0.80854 0.0
H1017 H 0.28931 0.91933 0.88593 0.0
H1018 H 0.30861 0.96241 0.73417 0.0
H1019 H 0.26663 0.99027 0.89137 0.0
H1020 H 0.25573 0.00304 0.99343 0.0
H1021 H 0.30231 0.04897 0.98779 0.0
H1022 H 0.31387 0.03612 0.88658 0.0
H1023 H 0.28589 0.0747 0.61377 0.0
H1024 H 0.27957 0.04674 0.68663 0.0
H1025 H 0.3362 0.01858 0.63163 0.0
H1026 H 0.34165 0.04555 0.55599 0.0
H1027 H 0.2967 0.03519 0.78199 0.0
H1028 H 0.33783 0.96854 0.65685 0.0
H1029 H 0.34513 0.95779 0.54978 0.0
H1030 H 0.29214 0.98975 0.48551 0.0
H1031 H 0.28427 1.00037 0.59235 0.0
C1032 C 0.31763 0.95686 0.95328 0.0
C1033 C 0.3086 0.93761 0.94565 0.0
C1034 C 0.31514 0.972 0.90844 0.0
C1035 C 0.30312 0.96842 0.85568 0.0
C1036 C 0.29369 0.94931 0.84873 0.0
C1037 C 0.29648 0.93402 0.8931 0.0
C1038 C 0.30161 0.98412 0.80605 0.0
C1039 C 0.30575 0.97832 0.74465 0.0
C1040 C 0.29756 0.00489 0.81911 0.0
C1041 C 0.29123 0.01208 0.88145 0.0
C1042 C 0.27475 0.00289 0.91226 0.0
C1043 C 0.26843 0.01017 0.96997 0.0
C1044 C 0.27836 0.02676 0.99717 0.0
C1045 C 0.29468 0.03606 0.96682 0.0
C1046 C 0.30114 0.02876 0.90931 0.0
C1047 C 0.29678 0.06234 0.61682 0.0
C1048 C 0.31407 0.06209 0.57871 0.0
C1049 C 0.29322 0.04639 0.65853 0.0
C1050 C 0.30716 0.03016 0.66394 0.0
C1051 C 0.32475 0.03035 0.62692 0.0
C1052 C 0.32796 0.0459 0.58396 0.0
C1053 C 0.30394 0.01368 0.71054 0.0
C1054 C 0.29908 0.0193 0.77138 0.0
C1055 C 0.30669 0.99274 0.69662 0.0
C1056 C 0.31061 0.98548 0.63261 0.0
C1057 C 0.32762 0.97313 0.61999 0.0
C1058 C 0.33189 0.96709 0.55932 0.0
C1059 C 0.31924 0.97329 0.51085 0.0
C1060 C 0.30203 0.98514 0.52307 0.0
C1061 C 0.29764 0.99114 0.58369 0.0
H1062 H 0.32279 0.9689 0.4638 0.0
H1063 H 0.27337 0.03243 0.0417 0.0
H1064 H 0.1043 0.41483 0.32297 0.0
H1065 H 0.10081 0.45189 0.31897 0.0
H1066 H 0.12101 0.4517 0.12902 0.0
H1067 H 0.12471 0.41465 0.13277 0.0
H1068 H 0.12867 0.48075 0.30044 0.0
H1069 H 0.09732 0.49037 0.05117 0.0
H1070 H 0.076 0.47148 0.97657 0.0
H1071 H 0.0462 0.44041 0.12621 0.0
H1072 H 0.06714 0.45931 0.20168 0.0
H1073 H 0.14221 0.58193 0.20234 0.0
H1074 H 0.14126 0.54479 0.20392 0.0
H1075 H 0.07579 0.54629 0.21949 0.0
H1076 H 0.07653 0.58361 0.21571 0.0
H1077 H 0.0879 0.51665 0.14059 0.0
H1078 H 0.10465 0.53814 0.3462 0.0
H1079 H 0.12391 0.55704 0.42573 0.0
H1080 H 0.17866 0.52565 0.3737 0.0
H1081 H 0.15978 0.50677 0.29323 0.0
C1082 C 0.10809 0.42267 0.28039 0.0
C1083 C 0.11478 0.41174 0.22818 0.0
C1084 C 0.10602 0.44385 0.27814 0.0
C1085 C 0.11049 0.45457 0.22358 0.0
C1086 C 0.11714 0.44373 0.17132 0.0
C1087 C 0.11921 0.42253 0.17351 0.0
C1088 C 0.10874 0.47713 0.22194 0.0
C1089 C 0.11974 0.48858 0.2655 0.0
C1090 C 0.09682 0.48737 0.17701 0.0
C1091 C 0.08395 0.47613 0.13202 0.0
C1092 C 0.08616 0.47957 0.06814 0.0
C1093 C 0.07415 0.46885 0.02571 0.0
C1094 C 0.0598 0.45471 0.04663 0.0
C1095 C 0.05738 0.45131 0.11005 0.0
C1096 C 0.06933 0.46201 0.15267 0.0
C1097 C 0.12755 0.57442 0.20491 0.0
C1098 C 0.10942 0.5858 0.20881 0.0
C1099 C 0.12706 0.55315 0.2065 0.0
C1100 C 0.10848 0.54276 0.21266 0.0
C1101 C 0.09031 0.554 0.21494 0.0
C1102 C 0.09077 0.57532 0.21326 0.0
C1103 C 0.10816 0.52021 0.21831 0.0
C1104 C 0.0968 0.50879 0.17552 0.0
C1105 C 0.11947 0.50996 0.26464 0.0
C1106 C 0.13083 0.52116 0.31335 0.0
C1107 C 0.12083 0.53537 0.35144 0.0
C1108 C 0.13167 0.54606 0.39672 0.0
C1109 C 0.1525 0.54258 0.40467 0.0
C1110 C 0.16252 0.52835 0.36745 0.0
C1111 C 0.15176 0.51763 0.32204 0.0
H1112 H 0.16087 0.55088 0.43975 0.0
H1113 H 0.05053 0.44642 0.0137 0.0
H1114 H 0.58445 0.10288 0.57009 0.0
H1115 H 0.54733 0.10164 0.57054 0.0
H1116 H 0.54637 0.11677 0.37619 0.0
H1117 H 0.58344 0.11926 0.37619 0.0
H1118 H 0.51879 0.13795 0.43309 0.0
H1119 H 0.53682 0.06739 0.43104 0.0
H1120 H 0.55431 0.03619 0.466 0.0
H1121 H 0.5248 0.04067 0.64281 0.0
H1122 H 0.50735 0.07207 0.6092 0.0
H1123 H 0.41455 0.11157 0.38587 0.0
H1124 H 0.45176 0.11078 0.38149 0.0
H1125 H 0.45443 0.1062 0.58039 0.0
H1126 H 0.41732 0.10769 0.58562 0.0
H1127 H 0.48077 0.07893 0.51839 0.0
H1128 H 0.46337 0.15035 0.51807 0.0
H1129 H 0.44565 0.181 0.47987 0.0
H1130 H 0.47393 0.17379 0.30204 0.0
H1131 H 0.4916 0.1429 0.33894 0.0
C1132 C 0.57637 0.10612 0.5275 0.0
C1133 C 0.58703 0.11113 0.47307 0.0
C1134 C 0.55511 0.10514 0.52764 0.0
C1135 C 0.54401 0.10879 0.47315 0.0
C1136 C 0.55458 0.11378 0.41875 0.0
C1137 C 0.57584 0.11497 0.4187 0.0
C1138 C 0.52138 0.10798 0.47327 0.0
C1139 C 0.51052 0.12488 0.45084 0.0
C1140 C 0.5105 0.09111 0.49745 0.0
C1141 C 0.52092 0.07219 0.51778 0.0
C1142 C 0.53418 0.06181 0.47754 0.0
C1143 C 0.54406 0.04407 0.49709 0.0
C1144 C 0.5407 0.03648 0.55664 0.0
C1145 C 0.52741 0.04658 0.59672 0.0
C1146 C 0.5175 0.06434 0.57742 0.0
C1147 C 0.42302 0.11054 0.42879 0.0
C1148 C 0.41285 0.10974 0.48611 0.0
C1149 C 0.44428 0.10999 0.42613 0.0
C1150 C 0.45581 0.10854 0.48065 0.0
C1151 C 0.44578 0.10723 0.53778 0.0
C1152 C 0.42453 0.10796 0.54057 0.0
C1153 C 0.47836 0.10885 0.47829 0.0
C1154 C 0.48914 0.0919 0.50037 0.0
C1155 C 0.48918 0.12557 0.45323 0.0
C1156 C 0.47863 0.14419 0.43107 0.0
C1157 C 0.46567 0.15519 0.47065 0.0
C1158 C 0.45566 0.17263 0.44927 0.0
C1159 C 0.45862 0.1793 0.38851 0.0
C1160 C 0.47163 0.16858 0.34906 0.0
C1161 C 0.48166 0.15112 0.3702 0.0
H1162 H 0.45086 0.19281 0.37204 0.0
H1163 H 0.54837 0.02274 0.57169 0.0
H1164 H 0.92295 0.58512 0.78014 0.0
H1165 H 0.92284 0.54778 0.78009 0.0
H1166 H 0.85719 0.54788 0.78867 0.0
H1167 H 0.8572 0.58508 0.789 0.0
H1168 H 0.87229 0.52048 0.86665 0.0
H1169 H 0.88274 0.5383 0.65306 0.0
H1170 H 0.89993 0.55542 0.56592 0.0
H1171 H 0.9554 0.52366 0.60813 0.0
H1172 H 0.93861 0.50655 0.69611 0.0
H1173 H 0.85064 0.41957 0.76964 0.0
H1174 H 0.85359 0.45669 0.77547 0.0
H1175 H 0.91907 0.45157 0.78077 0.0
H1176 H 0.91623 0.41439 0.77403 0.0
H1177 H 0.90581 0.48118 0.69902 0.0
H1178 H 0.89441 0.46213 0.91017 0.0
H1179 H 0.87668 0.44481 0.99579 0.0
H1180 H 0.8223 0.47878 0.95662 0.0
H1181 H 0.83964 0.49612 0.87003 0.0
C1182 C 0.90851 0.57715 0.78178 0.0
C1183 C 0.8901 0.58805 0.78479 0.0
C1184 C 0.90846 0.55583 0.78175 0.0
C1185 C 0.88999 0.54502 0.78389 0.0
C1186 C 0.87162 0.55588 0.78731 0.0
C1187 C 0.87166 0.57716 0.78767 0.0
C1188 C 0.88968 0.5224 0.78228 0.0
C1189 C 0.87944 0.51191 0.82964 0.0
C1190 C 0.8994 0.51117 0.73474 0.0
C1191 C 0.90948 0.52131 0.68157 0.0
C1192 C 0.89865 0.53508 0.64404 0.0
C1193 C 0.90831 0.54476 0.59446 0.0
C1194 C 0.92876 0.54068 0.58161 0.0
C1195 C 0.93957 0.52684 0.6182 0.0
C1196 C 0.92998 0.51713 0.66791 0.0
C1197 C 0.86567 0.42635 0.7717 0.0
C1198 C 0.88321 0.41407 0.77137 0.0
C1199 C 0.86733 0.44754 0.77549 0.0
C1200 C 0.88655 0.45686 0.77901 0.0
C1201 C 0.9041 0.44467 0.77823 0.0
C1202 C 0.90245 0.42345 0.77484 0.0
C1203 C 0.88828 0.47935 0.78304 0.0
C1204 C 0.89877 0.48978 0.73617 0.0
C1205 C 0.87871 0.49054 0.83084 0.0
C1206 C 0.86828 0.48029 0.88324 0.0
C1207 C 0.87863 0.4658 0.91949 0.0
C1208 C 0.86865 0.45599 0.96826 0.0
C1209 C 0.84836 0.46065 0.98157 0.0
C1210 C 0.83802 0.47518 0.94622 0.0
C1211 C 0.84792 0.48501 0.89732 0.0
H1212 H 0.84066 0.45302 0.01935 0.0
H1213 H 0.93622 0.5482 0.54322 0.0
H1214 H 0.58231 0.89197 0.16744 0.0
H1215 H 0.54504 0.89632 0.16884 0.0
H1216 H 0.54154 0.87326 0.98221 0.0
H1217 H 0.57851 0.86849 0.98104 0.0
H1218 H 0.51986 0.912 0.00821 0.0
H1219 H 0.52829 0.84257 0.08265 0.0
H1220 H 0.5419 0.81653 0.15379 0.0
H1221 H 0.51366 0.84681 0.30763 0.0
H1222 H 0.50013 0.87322 0.23741 0.0
H1223 H 0.41646 0.89094 0.94868 0.0
H1224 H 0.45348 0.89119 0.96045 0.0
H1225 H 0.44673 0.89494 0.15896 0.0
H1226 H 0.40962 0.89379 0.14716 0.0
H1227 H 0.47425 0.8688 0.13583 0.0
H1228 H 0.46322 0.93657 0.0654 0.0
H1229 H 0.44987 0.96392 -0.00156 0.0
H1230 H 0.48316 0.9397 0.84404 0.0
H1231 H 0.49649 0.91203 0.90987 0.0
C1232 C 0.57351 0.88776 0.12698 0.0
C1233 C 0.58319 0.87973 0.07435 0.0
C1234 C 0.55231 0.89024 0.1278 0.0
C1235 C 0.54063 0.88511 0.07557 0.0
C1236 C 0.55032 0.87731 0.02289 0.0
C1237 C 0.57138 0.87445 0.02248 0.0
C1238 C 0.51826 0.88783 0.07525 0.0
C1239 C 0.50981 0.90252 0.03577 0.0
C1240 C 0.50532 0.87588 0.11278 0.0
C1241 C 0.51343 0.86001 0.15492 0.0
C1242 C 0.52517 0.8438 0.13173 0.0
C1243 C 0.53283 0.82894 0.17186 0.0
C1244 C 0.52871 0.83005 0.23523 0.0
C1245 C 0.51688 0.846 0.25856 0.0
C1246 C 0.5092 0.86091 0.21862 0.0
C1247 C 0.42291 0.89211 0.99472 0.0
C1248 C 0.41023 0.89247 0.047 0.0
C1249 C 0.44408 0.89232 0.00149 0.0
C1250 C 0.45301 0.89343 0.06062 0.0
C1251 C 0.44028 0.89409 0.11286 0.0
C1252 C 0.4191 0.8935 0.10613 0.0
C1253 C 0.47556 0.8929 0.06792 0.0
C1254 C 0.48415 0.87857 0.10872 0.0
C1255 C 0.48865 0.90546 0.03229 0.0
C1256 C 0.48073 0.92213 0.99251 0.0
C1257 C 0.46759 0.93699 0.01707 0.0
C1258 C 0.46004 0.95256 0.97932 0.0
C1259 C 0.46563 0.95352 0.917 0.0
C1260 C 0.47883 0.93893 0.89232 0.0
C1261 C 0.48641 0.92331 0.92985 0.0
H1262 H 0.45976 0.96559 0.88785 0.0
H1263 H 0.53464 0.81853 0.26622 0.0
loop_
_geom_bond_atom_site_label_1
_geom_bond_atom_site_label_2
_geom_bond_distance
_geom_bond_site_symmetry_2
_ccdc_geom_bond_type
C0 C1 1.351 . S
C0 N3 1.368 . S
C0 H5 0.931 . S
C1 C0 1.351 . S
C1 N2 1.374 . S
C1 H29 0.930 . S
N2 C1 1.374 . S
N2 C4 1.342 . S
N3 C0 1.368 . S
N3 C4 1.321 . S
N3 Co6 2.135 . S
C4 N2 1.342 . S
C4 N3 1.321 . S
C4 H28 0.930 . S
H5 C0 0.931 . S
Co6 N3 2.135 . S
Co6 N9 2.121 . S
Co6 O14 2.055 . S
Co6 O17 2.039 . S
Co6 N20 2.140 . S
C7 O8 1.227 . S
C7 O17 1.265 . S
O8 C7 1.227 . S
N9 Co6 2.121 . S
N9 C11 1.375 . S
N9 C12 1.313 . S
C10 C11 1.338 . S
C10 N13 1.377 . S
C10 H30 0.930 . S
C11 N9 1.375 . S
C11 C10 1.338 . S
C11 H15 0.931 . S
C12 N9 1.313 . S
C12 N13 1.344 . S
C12 H16 0.930 . S
N13 C10 1.377 . S
N13 C12 1.344 . S
O14 Co6 2.055 . S
O14 C18 1.253 . S
H15 C11 0.931 . S
H16 C12 0.930 . S
O17 Co6 2.039 . S
O17 C7 1.265 . S
C18 O14 1.253 . S
C18 O19 1.227 . S
O19 C18 1.227 . S
N20 Co6 2.140 . S
N20 C23 1.346 . S
N20 C24 1.345 . S
C21 C22 1.387 . S
C21 C25 1.391 . S
C22 C21 1.387 . S
C22 C23 1.369 . S
C22 H31 0.929 . S
C23 N20 1.346 . S
C23 C22 1.369 . S
C23 H26 0.928 . S
C24 N20 1.345 . S
C24 C25 1.371 . S
C24 H27 0.931 . S
C25 C21 1.391 . S
C25 C24 1.371 . S
C25 H32 0.930 . S
H26 C23 0.928 . S
H27 C24 0.931 . S
H28 C4 0.930 . S
H29 C1 0.930 . S
H30 C10 0.930 . S
H31 C22 0.929 . S
H32 C25 0.930 . S
C33 C34 1.351 . S
C33 N36 1.368 . S
C33 H38 0.931 . S
C34 C33 1.351 . S
C34 N35 1.373 . S
C34 H62 0.930 . S
N35 C34 1.373 . S
N35 C37 1.340 . S
N36 C33 1.368 . S
N36 C37 1.321 . S
N36 Co39 2.135 . S
C37 N35 1.340 . S
C37 N36 1.321 . S
C37 H61 0.930 . S
H38 C33 0.931 . S
Co39 N36 2.135 . S
Co39 N42 2.121 . S
Co39 O47 2.055 . S
Co39 O50 2.039 . S
Co39 N53 2.140 . S
C40 O41 1.227 . S
C40 O50 1.265 . S
O41 C40 1.227 . S
N42 Co39 2.121 . S
N42 C44 1.375 . S
N42 C45 1.313 . S
C43 C44 1.338 . S
C43 N46 1.377 . S
C43 H63 0.930 . S
C44 N42 1.375 . S
C44 C43 1.338 . S
C44 H48 0.931 . S
C45 N42 1.313 . S
C45 N46 1.344 . S
C45 H49 0.930 . S
N46 C43 1.377 . S
N46 C45 1.344 . S
O47 Co39 2.055 . S
O47 C51 1.253 . S
H48 C44 0.931 . S
H49 C45 0.930 . S
O50 Co39 2.039 . S
O50 C40 1.265 . S
C51 O47 1.253 . S
C51 O52 1.227 . S
O52 C51 1.227 . S
N53 Co39 2.140 . S
N53 C56 1.346 . S
N53 C57 1.345 . S
C54 C55 1.387 . S
C54 C58 1.391 . S
C55 C54 1.387 . S
C55 C56 1.369 . S
C55 H64 0.929 . S
C56 N53 1.346 . S
C56 C55 1.369 . S
C56 H59 0.928 . S
C57 N53 1.345 . S
C57 C58 1.371 . S
C57 H60 0.931 . S
C58 C54 1.391 . S
C58 C57 1.371 . S
C58 H65 0.930 . S
H59 C56 0.928 . S
H60 C57 0.931 . S
H61 C37 0.930 . S
H62 C34 0.930 . S
H63 C43 0.930 . S
H64 C55 0.929 . S
H65 C58 0.930 . S
C66 C67 1.351 . S
C66 N69 1.368 . S
C66 H71 0.931 . S
C67 C66 1.351 . S
C67 N68 1.373 . S
C67 H95 0.930 . S
N68 C67 1.373 . S
N68 C70 1.340 . S
N69 C66 1.368 . S
N69 C70 1.321 . S
N69 Co72 2.135 . S
C70 N68 1.340 . S
C70 N69 1.321 . S
C70 H94 0.930 . S
H71 C66 0.931 . S
Co72 N69 2.135 . S
Co72 N75 2.121 . S
Co72 O80 2.055 . S
Co72 O83 2.039 . S
Co72 N86 2.140 . S
C73 O74 1.227 . S
C73 O83 1.265 . S
O74 C73 1.227 . S
N75 Co72 2.121 . S
N75 C77 1.375 . S
N75 C78 1.313 . S
C76 C77 1.338 . S
C76 N79 1.377 . S
C76 H96 0.930 . S
C77 N75 1.375 . S
C77 C76 1.338 . S
C77 H81 0.931 . S
C78 N75 1.313 . S
C78 N79 1.344 . S
C78 H82 0.930 . S
N79 C76 1.377 . S
N79 C78 1.344 . S
O80 Co72 2.055 . S
O80 C84 1.253 . S
H81 C77 0.931 . S
H82 C78 0.930 . S
O83 Co72 2.039 . S
O83 C73 1.265 . S
C84 O80 1.253 . S
C84 O85 1.227 . S
O85 C84 1.227 . S
N86 Co72 2.140 . S
N86 C89 1.346 . S
N86 C90 1.345 . S
C87 C88 1.387 . S
C87 C91 1.391 . S
C88 C87 1.387 . S
C88 C89 1.369 . S
C88 H97 0.929 . S
C89 N86 1.346 . S
C89 C88 1.369 . S
C89 H92 0.928 . S
C90 N86 1.345 . S
C90 C91 1.371 . S
C90 H93 0.931 . S
C91 C87 1.391 . S
C91 C90 1.371 . S
C91 H98 0.930 . S
H92 C89 0.928 . S
H93 C90 0.931 . S
H94 C70 0.930 . S
H95 C67 0.930 . S
H96 C76 0.930 . S
H97 C88 0.929 . S
H98 C91 0.930 . S
C99 C100 1.351 . S
C99 N102 1.368 . S
C99 H104 0.931 . S
C100 C99 1.351 . S
C100 N101 1.373 . S
C100 H128 0.930 . S
N101 C100 1.373 . S
N101 C103 1.340 . S
N102 C99 1.368 . S
N102 C103 1.321 . S
N102 Co105 2.135 . S
C103 N101 1.340 . S
C103 N102 1.321 . S
C103 H127 0.930 . S
H104 C99 0.931 . S
Co105 N102 2.135 . S
Co105 N108 2.121 1_556 S
Co105 O113 2.055 . S
Co105 O116 2.039 . S
Co105 N119 2.140 . S
C106 O107 1.227 . S
C106 O116 1.265 . S
O107 C106 1.227 . S
N108 Co105 2.121 1_554 S
N108 C110 1.375 . S
N108 C111 1.313 . S
C109 C110 1.338 . S
C109 N112 1.377 . S
C109 H129 0.930 . S
C110 N108 1.375 . S
C110 C109 1.338 . S
C110 H114 0.931 . S
C111 N108 1.313 . S
C111 N112 1.344 . S
C111 H115 0.930 . S
N112 C109 1.377 . S
N112 C111 1.344 . S
O113 Co105 2.055 . S
O113 C117 1.253 . S
H114 C110 0.931 . S
H115 C111 0.930 . S
O116 Co105 2.039 . S
O116 C106 1.265 . S
C117 O113 1.253 . S
C117 O118 1.227 . S
O118 C117 1.227 . S
N119 Co105 2.140 . S
N119 C122 1.346 . S
N119 C123 1.345 . S
C120 C121 1.387 . S
C120 C124 1.391 1_556 S
C121 C120 1.387 . S
C121 C122 1.369 . S
C121 H130 0.929 . S
C122 N119 1.346 . S
C122 C121 1.369 . S
C122 H125 0.928 . S
C123 N119 1.345 . S
C123 C124 1.371 1_556 S
C123 H126 0.931 1_556 S
C124 C120 1.391 1_554 S
C124 C123 1.371 1_554 S
C124 H131 0.930 . S
H125 C122 0.928 . S
H126 C123 0.931 1_554 S
H127 C103 0.930 . S
H128 C100 0.930 . S
H129 C109 0.930 . S
H130 C121 0.929 . S
H131 C124 0.930 . S
C132 C133 1.351 . S
C132 N135 1.368 . S
C132 H137 0.931 . S
C133 C132 1.351 . S
C133 N134 1.373 . S
C133 H161 0.930 . S
N134 C133 1.373 . S
N134 C136 1.340 . S
N135 C132 1.368 . S
N135 C136 1.321 . S
N135 Co138 2.135 . S
C136 N134 1.340 . S
C136 N135 1.321 . S
C136 H160 0.930 . S
H137 C132 0.931 . S
Co138 N135 2.135 . S
Co138 N141 2.121 . S
Co138 O146 2.055 . S
Co138 O149 2.039 . S
Co138 N152 2.140 . S
C139 O140 1.227 . S
C139 O149 1.265 . S
O140 C139 1.227 . S
N141 Co138 2.121 . S
N141 C143 1.375 . S
N141 C144 1.313 . S
C142 C143 1.338 . S
C142 N145 1.377 . S
C142 H162 0.930 . S
C143 N141 1.375 . S
C143 C142 1.338 . S
C143 H147 0.931 . S
C144 N141 1.313 . S
C144 N145 1.344 . S
C144 H148 0.930 . S
N145 C142 1.377 . S
N145 C144 1.344 . S
O146 Co138 2.055 . S
O146 C150 1.253 . S
H147 C143 0.931 . S
H148 C144 0.930 . S
O149 Co138 2.039 . S
O149 C139 1.265 . S
C150 O146 1.253 . S
C150 O151 1.227 . S
O151 C150 1.227 . S
N152 Co138 2.140 . S
N152 C155 1.346 . S
N152 C156 1.345 . S
C153 C154 1.387 . S
C153 C157 1.391 . S
C154 C153 1.387 . S
C154 C155 1.369 . S
C154 H163 0.929 . S
C155 N152 1.346 . S
C155 C154 1.369 . S
C155 H158 0.928 . S
C156 N152 1.345 . S
C156 C157 1.371 . S
C156 H159 0.931 . S
C157 C153 1.391 . S
C157 C156 1.371 . S
C157 H164 0.930 . S
H158 C155 0.928 . S
H159 C156 0.931 . S
H160 C136 0.930 . S
H161 C133 0.930 . S
H162 C142 0.930 . S
H163 C154 0.929 . S
H164 C157 0.930 . S
C165 C166 1.351 . S
C165 N168 1.368 . S
C165 H170 0.931 . S
C166 C165 1.351 . S
C166 N167 1.373 . S
C166 H194 0.930 . S
N167 C166 1.373 . S
N167 C169 1.340 . S
N168 C165 1.368 . S
N168 C169 1.321 . S
N168 Co171 2.135 . S
C169 N167 1.340 . S
C169 N168 1.321 . S
C169 H193 0.930 . S
H170 C165 0.931 . S
Co171 N168 2.135 . S
Co171 N174 2.121 . S
Co171 O179 2.055 . S
Co171 O182 2.039 . S
Co171 N185 2.140 . S
C172 O173 1.227 . S
C172 O182 1.265 . S
O173 C172 1.227 . S
N174 Co171 2.121 . S
N174 C176 1.375 . S
N174 C177 1.313 . S
C175 C176 1.338 . S
C175 N178 1.377 . S
C175 H195 0.930 . S
C176 N174 1.375 . S
C176 C175 1.338 . S
C176 H180 0.931 . S
C177 N174 1.313 . S
C177 N178 1.344 . S
C177 H181 0.930 . S
N178 C175 1.377 . S
N178 C177 1.344 . S
O179 Co171 2.055 . S
O179 C183 1.253 . S
H180 C176 0.931 . S
H181 C177 0.930 . S
O182 Co171 2.039 . S
O182 C172 1.265 . S
C183 O179 1.253 . S
C183 O184 1.227 . S
O184 C183 1.227 . S
N185 Co171 2.140 . S
N185 C188 1.346 . S
N185 C189 1.345 . S
C186 C187 1.387 . S
C186 C190 1.391 . S
C187 C186 1.387 . S
C187 C188 1.369 . S
C187 H196 0.929 . S
C188 N185 1.346 . S
C188 C187 1.369 . S
C188 H191 0.928 . S
C189 N185 1.345 . S
C189 C190 1.371 . S
C189 H192 0.931 . S
C190 C186 1.391 . S
C190 C189 1.371 . S
C190 H197 0.930 . S
H191 C188 0.928 . S
H192 C189 0.931 . S
H193 C169 0.930 . S
H194 C166 0.930 . S
H195 C175 0.930 . S
H196 C187 0.929 . S
H197 C190 0.930 . S
C198 C199 1.351 . S
C198 N201 1.368 . S
C198 H203 0.931 . S
C199 C198 1.351 . S
C199 N200 1.374 . S
C199 H227 0.930 . S
N200 C199 1.374 . S
N200 C202 1.342 . S
N201 C198 1.368 . S
N201 C202 1.321 . S
N201 Co204 2.135 . S
C202 N200 1.342 . S
C202 N201 1.321 . S
C202 H226 0.930 . S
H203 C198 0.931 . S
Co204 N201 2.135 . S
Co204 N207 2.121 . S
Co204 O212 2.055 . S
Co204 O215 2.039 . S
Co204 N218 2.140 . S
C205 O206 1.227 . S
C205 O215 1.265 . S
O206 C205 1.227 . S
N207 Co204 2.121 . S
N207 C209 1.375 . S
N207 C210 1.313 . S
C208 C209 1.338 . S
C208 N211 1.377 . S
C208 H228 0.930 . S
C209 N207 1.375 . S
C209 C208 1.338 . S
C209 H213 0.931 . S
C210 N207 1.313 . S
C210 N211 1.344 . S
C210 H214 0.930 . S
N211 C208 1.377 . S
N211 C210 1.344 . S
O212 Co204 2.055 . S
O212 C216 1.253 . S
H213 C209 0.931 . S
H214 C210 0.930 . S
O215 Co204 2.039 . S
O215 C205 1.265 . S
C216 O212 1.253 . S
C216 O217 1.227 . S
O217 C216 1.227 . S
N218 Co204 2.140 . S
N218 C221 1.346 . S
N218 C222 1.345 . S
C219 C220 1.387 . S
C219 C223 1.391 . S
C220 C219 1.387 . S
C220 C221 1.369 . S
C220 H229 0.929 . S
C221 N218 1.346 . S
C221 C220 1.369 . S
C221 H224 0.928 . S
C222 N218 1.345 . S
C222 C223 1.371 . S
C222 H225 0.931 . S
C223 C219 1.391 . S
C223 C222 1.371 . S
C223 H230 0.930 . S
H224 C221 0.928 . S
H225 C222 0.931 . S
H226 C202 0.930 . S
H227 C199 0.930 . S
H228 C208 0.930 . S
H229 C220 0.929 . S
H230 C223 0.930 . S
C231 C232 1.351 . S
C231 N234 1.368 . S
C231 H236 0.931 . S
C232 C231 1.351 . S
C232 N233 1.373 . S
C232 H260 0.930 . S
N233 C232 1.373 . S
N233 C235 1.340 . S
N234 C231 1.368 . S
N234 C235 1.321 . S
N234 Co237 2.135 . S
C235 N233 1.340 . S
C235 N234 1.321 . S
C235 H259 0.930 . S
H236 C231 0.931 . S
Co237 N234 2.135 . S
Co237 N240 2.121 1_554 S
Co237 O245 2.055 . S
Co237 O248 2.039 . S
Co237 N251 2.140 . S
C238 O239 1.227 . S
C238 O248 1.265 . S
O239 C238 1.227 . S
N240 Co237 2.121 1_556 S
N240 C242 1.375 . S
N240 C243 1.313 . S
C241 C242 1.338 . S
C241 N244 1.377 . S
C241 H261 0.930 . S
C242 N240 1.375 . S
C242 C241 1.338 . S
C242 H246 0.931 . S
C243 N240 1.313 . S
C243 N244 1.344 . S
C243 H247 0.930 . S
N244 C241 1.377 . S
N244 C243 1.344 . S
O245 Co237 2.055 . S
O245 C249 1.253 . S
H246 C242 0.931 . S
H247 C243 0.930 . S
O248 Co237 2.039 . S
O248 C238 1.265 . S
C249 O245 1.253 . S
C249 O250 1.227 . S
O250 C249 1.227 . S
N251 Co237 2.140 . S
N251 C254 1.346 . S
N251 C255 1.345 . S
C252 C253 1.387 . S
C252 C256 1.391 1_554 S
C253 C252 1.387 . S
C253 C254 1.369 . S
C253 H262 0.929 . S
C254 N251 1.346 . S
C254 C253 1.369 . S
C254 H257 0.928 . S
C255 N251 1.345 . S
C255 C256 1.371 1_554 S
C255 H258 0.931 1_554 S
C256 C252 1.391 1_556 S
C256 C255 1.371 1_556 S
C256 H263 0.930 . S
H257 C254 0.928 . S
H258 C255 0.931 1_556 S
H259 C235 0.930 . S
H260 C232 0.930 . S
H261 C241 0.930 . S
H262 C253 0.929 . S
H263 C256 0.930 . S
H264 C282 0.951 . S
H265 C284 0.951 . S
H266 C286 0.950 . S
H267 C287 0.950 . S
H268 C289 0.950 . S
H269 C292 0.950 . S
H270 C293 0.950 . S
H271 C295 0.950 . S
H272 C296 0.950 . S
H273 C297 0.951 . S
H274 C299 0.951 . S
H275 C301 0.950 . S
H276 C302 0.950 . S
H277 C304 0.950 . S
H278 C307 0.950 . S
H279 C308 0.950 . S
H280 C310 0.950 . S
H281 C311 0.950 . S
C282 H264 0.951 . S
C282 C283 1.366 . S
C282 C284 1.388 . S
C283 C282 1.366 . S
C283 C287 1.385 . S
C284 H265 0.951 . S
C284 C282 1.388 . S
C284 C285 1.366 . S
C285 C284 1.366 . S
C285 C286 1.414 . S
C285 C288 1.499 . S
C286 H266 0.950 . S
C286 C285 1.414 . S
C286 C287 1.374 . S
C287 H267 0.950 . S
C287 C283 1.385 . S
C287 C286 1.374 . S
C288 C285 1.499 . S
C288 C289 1.373 . S
C288 C290 1.389 . S
C289 H268 0.950 . S
C289 C288 1.373 . S
C289 C305 1.377 . S
C290 C288 1.389 . S
C290 C291 1.524 . S
C290 C304 1.377 . S
C291 C290 1.524 . S
C291 C292 1.397 . S
C291 C296 1.363 . S
C292 H269 0.950 . S
C292 C291 1.397 . S
C292 C293 1.334 . S
C293 H270 0.950 . S
C293 C292 1.334 . S
C293 C294 1.287 . S
C294 C293 1.287 . S
C294 C295 1.524 . S
C294 H313 0.913 . S
C295 H271 0.950 . S
C295 C294 1.524 . S
C295 C296 1.415 . S
C296 H272 0.950 . S
C296 C291 1.363 . S
C296 C295 1.415 . S
C297 H273 0.951 . S
C297 C298 1.366 . S
C297 C299 1.388 . S
C298 C297 1.366 . S
C298 C302 1.385 . S
C299 H274 0.951 . S
C299 C297 1.388 . S
C299 C300 1.366 . S
C300 C299 1.366 . S
C300 C301 1.414 . S
C300 C303 1.499 . S
C301 H275 0.950 . S
C301 C300 1.414 . S
C301 C302 1.374 . S
C302 H276 0.950 . S
C302 C298 1.385 . S
C302 C301 1.374 . S
C303 C300 1.499 . S
C303 C304 1.373 . S
C303 C305 1.389 . S
C304 H277 0.950 . S
C304 C290 1.377 . S
C304 C303 1.373 . S
C305 C289 1.377 . S
C305 C303 1.389 . S
C305 C306 1.524 . S
C306 C305 1.524 . S
C306 C307 1.397 . S
C306 C311 1.363 . S
C307 H278 0.950 . S
C307 C306 1.397 . S
C307 C308 1.334 . S
C308 H279 0.950 . S
C308 C307 1.334 . S
C308 C309 1.287 . S
C309 C308 1.287 . S
C309 C310 1.524 . S
C309 H312 0.999 . S
C310 H280 0.950 . S
C310 C309 1.524 . S
C310 C311 1.415 . S
C311 H281 0.950 . S
C311 C306 1.363 . S
C311 C310 1.415 . S
H312 C309 0.999 . S
H313 C294 0.913 . S
H314 C332 0.951 . S
H315 C334 0.951 . S
H316 C336 0.950 . S
H317 C337 0.950 . S
H318 C339 0.950 . S
H319 C342 0.950 . S
H320 C343 0.950 . S
H321 C345 0.950 . S
H322 C346 0.950 . S
H323 C347 0.951 . S
H324 C349 0.951 . S
H325 C351 0.950 . S
H326 C352 0.950 . S
H327 C354 0.950 . S
H328 C357 0.950 . S
H329 C358 0.950 . S
H330 C360 0.950 . S
H331 C361 0.950 . S
C332 H314 0.951 . S
C332 C333 1.366 . S
C332 C334 1.388 . S
C333 C332 1.366 . S
C333 C337 1.385 . S
C334 H315 0.951 . S
C334 C332 1.388 . S
C334 C335 1.366 . S
C335 C334 1.366 . S
C335 C336 1.414 . S
C335 C338 1.499 . S
C336 H316 0.950 . S
C336 C335 1.414 . S
C336 C337 1.374 . S
C337 H317 0.950 . S
C337 C333 1.385 . S
C337 C336 1.374 . S
C338 C335 1.499 . S
C338 C339 1.373 . S
C338 C340 1.389 . S
C339 H318 0.950 . S
C339 C338 1.373 . S
C339 C355 1.377 . S
C340 C338 1.389 . S
C340 C341 1.524 . S
C340 C354 1.377 . S
C341 C340 1.524 . S
C341 C342 1.397 . S
C341 C346 1.363 . S
C342 H319 0.950 . S
C342 C341 1.397 . S
C342 C343 1.334 . S
C343 H320 0.950 . S
C343 C342 1.334 . S
C343 C344 1.287 . S
C344 C343 1.287 . S
C344 C345 1.524 . S
C344 H363 0.913 . S
C345 H321 0.950 . S
C345 C344 1.524 . S
C345 C346 1.415 . S
C346 H322 0.950 . S
C346 C341 1.363 . S
C346 C345 1.415 . S
C347 H323 0.951 . S
C347 C348 1.366 . S
C347 C349 1.388 . S
C348 C347 1.366 . S
C348 C352 1.385 . S
C349 H324 0.951 . S
C349 C347 1.388 . S
C349 C350 1.366 . S
C350 C349 1.366 . S
C350 C351 1.414 . S
C350 C353 1.499 . S
C351 H325 0.950 . S
C351 C350 1.414 . S
C351 C352 1.374 . S
C352 H326 0.950 . S
C352 C348 1.385 . S
C352 C351 1.374 . S
C353 C350 1.499 . S
C353 C354 1.373 . S
C353 C355 1.389 . S
C354 H327 0.950 . S
C354 C340 1.377 . S
C354 C353 1.373 . S
C355 C339 1.377 . S
C355 C353 1.389 . S
C355 C356 1.524 . S
C356 C355 1.524 . S
C356 C357 1.397 . S
C356 C361 1.363 . S
C357 H328 0.950 . S
C357 C356 1.397 . S
C357 C358 1.334 . S
C358 H329 0.950 . S
C358 C357 1.334 . S
C358 C359 1.287 . S
C359 C358 1.287 . S
C359 C360 1.524 . S
C359 H362 0.999 . S
C360 H330 0.950 . S
C360 C359 1.524 . S
C360 C361 1.415 . S
C361 H331 0.950 . S
C361 C356 1.363 . S
C361 C360 1.415 . S
H362 C359 0.999 . S
H363 C344 0.913 . S
H364 C382 0.951 . S
H365 C384 0.951 . S
H366 C386 0.950 . S
H367 C387 0.950 . S
H368 C389 0.950 . S
H369 C392 0.950 . S
H370 C393 0.950 . S
H371 C395 0.950 . S
H372 C396 0.950 1_554 S
H373 C397 0.951 . S
H374 C399 0.951 . S
H375 C401 0.950 . S
H376 C402 0.950 . S
H377 C404 0.950 . S
H378 C407 0.950 . S
H379 C408 0.950 . S
H380 C410 0.950 . S
H381 C411 0.950 . S
C382 H364 0.951 . S
C382 C383 1.366 . S
C382 C384 1.388 . S
C383 C382 1.366 . S
C383 C387 1.385 . S
C384 H365 0.951 . S
C384 C382 1.388 . S
C384 C385 1.366 . S
C385 C384 1.366 . S
C385 C386 1.414 . S
C385 C388 1.499 . S
C386 H366 0.950 . S
C386 C385 1.414 . S
C386 C387 1.374 . S
C387 H367 0.950 . S
C387 C383 1.385 . S
C387 C386 1.374 . S
C388 C385 1.499 . S
C388 C389 1.373 . S
C388 C390 1.389 . S
C389 H368 0.950 . S
C389 C388 1.373 . S
C389 C405 1.377 . S
C390 C388 1.389 . S
C390 C391 1.524 . S
C390 C404 1.377 . S
C391 C390 1.524 . S
C391 C392 1.397 . S
C391 C396 1.363 . S
C392 H369 0.950 . S
C392 C391 1.397 . S
C392 C393 1.334 . S
C393 H370 0.950 . S
C393 C392 1.334 . S
C393 C394 1.287 . S
C394 C393 1.287 . S
C394 C395 1.524 1_556 S
C394 H413 0.913 . S
C395 H371 0.950 . S
C395 C394 1.524 1_554 S
C395 C396 1.415 1_554 S
C396 H372 0.950 1_556 S
C396 C391 1.363 . S
C396 C395 1.415 1_556 S
C397 H373 0.951 . S
C397 C398 1.366 1_556 S
C397 C399 1.388 . S
C398 C397 1.366 1_554 S
C398 C402 1.385 . S
C399 H374 0.951 . S
C399 C397 1.388 . S
C399 C400 1.366 . S
C400 C399 1.366 . S
C400 C401 1.414 1_556 S
C400 C403 1.499 . S
C401 H375 0.950 . S
C401 C400 1.414 1_554 S
C401 C402 1.374 . S
C402 H376 0.950 . S
C402 C398 1.385 . S
C402 C401 1.374 . S
C403 C400 1.499 . S
C403 C404 1.373 . S
C403 C405 1.389 . S
C404 H377 0.950 . S
C404 C390 1.377 . S
C404 C403 1.373 . S
C405 C389 1.377 . S
C405 C403 1.389 . S
C405 C406 1.524 . S
C406 C405 1.524 . S
C406 C407 1.397 . S
C406 C411 1.363 . S
C407 H378 0.950 . S
C407 C406 1.397 . S
C407 C408 1.334 . S
C408 H379 0.950 . S
C408 C407 1.334 . S
C408 C409 1.287 . S
C409 C408 1.287 . S
C409 C410 1.524 . S
C409 H412 0.999 . S
C410 H380 0.950 . S
C410 C409 1.524 . S
C410 C411 1.415 . S
C411 H381 0.950 . S
C411 C406 1.363 . S
C411 C410 1.415 . S
H412 C409 0.999 . S
H413 C394 0.913 . S
H414 C432 0.951 . S
H415 C434 0.951 . S
H416 C436 0.950 . S
H417 C437 0.950 . S
H418 C439 0.950 . S
H419 C442 0.950 . S
H420 C443 0.950 . S
H421 C445 0.950 1_556 S
H422 C446 0.950 . S
H423 C447 0.951 . S
H424 C449 0.951 . S
H425 C451 0.950 . S
H426 C452 0.950 1_556 S
H427 C454 0.950 . S
H428 C457 0.950 . S
H429 C458 0.950 . S
H430 C460 0.950 . S
H431 C461 0.950 . S
C432 H414 0.951 . S
C432 C433 1.366 . S
C432 C434 1.388 . S
C433 C432 1.366 . S
C433 C437 1.385 . S
C434 H415 0.951 . S
C434 C432 1.388 . S
C434 C435 1.366 . S
C435 C434 1.366 . S
C435 C436 1.414 . S
C435 C438 1.499 . S
C436 H416 0.950 . S
C436 C435 1.414 . S
C436 C437 1.374 . S
C437 H417 0.950 . S
C437 C433 1.385 . S
C437 C436 1.374 . S
C438 C435 1.499 . S
C438 C439 1.373 . S
C438 C440 1.389 . S
C439 H418 0.950 . S
C439 C438 1.373 . S
C439 C455 1.377 . S
C440 C438 1.389 . S
C440 C441 1.524 . S
C440 C454 1.377 . S
C441 C440 1.524 . S
C441 C442 1.397 . S
C441 C446 1.363 . S
C442 H419 0.950 . S
C442 C441 1.397 . S
C442 C443 1.334 . S
C443 H420 0.950 . S
C443 C442 1.334 . S
C443 C444 1.287 1_554 S
C444 C443 1.287 1_556 S
C444 C445 1.524 1_556 S
C444 H463 0.913 . S
C445 H421 0.950 1_554 S
C445 C444 1.524 1_554 S
C445 C446 1.415 . S
C446 H422 0.950 . S
C446 C441 1.363 . S
C446 C445 1.415 . S
C447 H423 0.951 . S
C447 C448 1.366 1_554 S
C447 C449 1.388 . S
C448 C447 1.366 1_556 S
C448 C452 1.385 1_556 S
C449 H424 0.951 . S
C449 C447 1.388 . S
C449 C450 1.366 . S
C450 C449 1.366 . S
C450 C451 1.414 . S
C450 C453 1.499 . S
C451 H425 0.950 . S
C451 C450 1.414 . S
C451 C452 1.374 . S
C452 H426 0.950 1_554 S
C452 C448 1.385 1_554 S
C452 C451 1.374 . S
C453 C450 1.499 . S
C453 C454 1.373 . S
C453 C455 1.389 . S
C454 H427 0.950 . S
C454 C440 1.377 . S
C454 C453 1.373 . S
C455 C439 1.377 . S
C455 C453 1.389 . S
C455 C456 1.524 . S
C456 C455 1.524 . S
C456 C457 1.397 . S
C456 C461 1.363 . S
C457 H428 0.950 . S
C457 C456 1.397 . S
C457 C458 1.334 . S
C458 H429 0.950 . S
C458 C457 1.334 . S
C458 C459 1.287 . S
C459 C458 1.287 . S
C459 C460 1.524 . S
C459 H462 0.999 . S
C460 H430 0.950 . S
C460 C459 1.524 . S
C460 C461 1.415 . S
C461 H431 0.950 . S
C461 C456 1.363 . S
C461 C460 1.415 . S
H462 C459 0.999 . S
H463 C444 0.913 . S
H464 C482 0.951 . S
H465 C484 0.951 . S
H466 C486 0.950 . S
H467 C487 0.950 . S
H468 C489 0.950 . S
H469 C492 0.950 . S
H470 C493 0.950 . S
H471 C495 0.950 . S
H472 C496 0.950 . S
H473 C497 0.951 . S
H474 C499 0.951 . S
H475 C501 0.950 . S
H476 C502 0.950 . S
H477 C504 0.950 . S
H478 C507 0.950 . S
H479 C508 0.950 . S
H480 C510 0.950 . S
H481 C511 0.950 . S
C482 H464 0.951 . S
C482 C483 1.366 . S
C482 C484 1.388 . S
C483 C482 1.366 . S
C483 C487 1.385 . S
C484 H465 0.951 . S
C484 C482 1.388 . S
C484 C485 1.366 . S
C485 C484 1.366 . S
C485 C486 1.414 . S
C485 C488 1.499 . S
C486 H466 0.950 . S
C486 C485 1.414 . S
C486 C487 1.374 . S
C487 H467 0.950 . S
C487 C483 1.385 . S
C487 C486 1.374 . S
C488 C485 1.499 . S
C488 C489 1.373 . S
C488 C490 1.389 . S
C489 H468 0.950 . S
C489 C488 1.373 . S
C489 C505 1.377 . S
C490 C488 1.389 . S
C490 C491 1.524 . S
C490 C504 1.377 . S
C491 C490 1.524 . S
C491 C492 1.397 . S
C491 C496 1.363 . S
C492 H469 0.950 . S
C492 C491 1.397 . S
C492 C493 1.334 . S
C493 H470 0.950 . S
C493 C492 1.334 . S
C493 C494 1.287 . S
C494 C493 1.287 . S
C494 C495 1.524 . S
C494 H513 0.913 . S
C495 H471 0.950 . S
C495 C494 1.524 . S
C495 C496 1.415 . S
C496 H472 0.950 . S
C496 C491 1.363 . S
C496 C495 1.415 . S
C497 H473 0.951 . S
C497 C498 1.366 . S
C497 C499 1.388 . S
C498 C497 1.366 . S
C498 C502 1.385 . S
C499 H474 0.951 . S
C499 C497 1.388 . S
C499 C500 1.366 . S
C500 C499 1.366 . S
C500 C501 1.414 . S
C500 C503 1.499 . S
C501 H475 0.950 . S
C501 C500 1.414 . S
C501 C502 1.374 . S
C502 H476 0.950 . S
C502 C498 1.385 . S
C502 C501 1.374 . S
C503 C500 1.499 . S
C503 C504 1.373 . S
C503 C505 1.389 . S
C504 H477 0.950 . S
C504 C490 1.377 . S
C504 C503 1.373 . S
C505 C489 1.377 . S
C505 C503 1.389 . S
C505 C506 1.524 . S
C506 C505 1.524 . S
C506 C507 1.397 . S
C506 C511 1.363 . S
C507 H478 0.950 . S
C507 C506 1.397 . S
C507 C508 1.334 . S
C508 H479 0.950 . S
C508 C507 1.334 . S
C508 C509 1.287 . S
C509 C508 1.287 . S
C509 C510 1.524 . S
C509 H512 0.999 . S
C510 H480 0.950 . S
C510 C509 1.524 . S
C510 C511 1.415 . S
C511 H481 0.950 . S
C511 C506 1.363 . S
C511 C510 1.415 . S
H512 C509 0.999 . S
H513 C494 0.913 . S
H514 C532 0.951 . S
H515 C534 0.951 . S
H516 C536 0.950 . S
H517 C537 0.950 . S
H518 C539 0.950 1_554 S
H519 C542 0.950 . S
H520 C543 0.950 . S
H521 C545 0.950 . S
H522 C546 0.950 . S
H523 C547 0.951 . S
H524 C549 0.951 . S
H525 C551 0.950 . S
H526 C552 0.950 . S
H527 C554 0.950 . S
H528 C557 0.950 . S
H529 C558 0.950 . S
H530 C560 0.950 . S
H531 C561 0.950 . S
C532 H514 0.951 . S
C532 C533 1.366 . S
C532 C534 1.388 . S
C533 C532 1.366 . S
C533 C537 1.385 . S
C534 H515 0.951 . S
C534 C532 1.388 . S
C534 C535 1.366 . S
C535 C534 1.366 . S
C535 C536 1.414 . S
C535 C538 1.499 . S
C536 H516 0.950 . S
C536 C535 1.414 . S
C536 C537 1.374 . S
C537 H517 0.950 . S
C537 C533 1.385 . S
C537 C536 1.374 . S
C538 C535 1.499 . S
C538 C539 1.373 1_554 S
C538 C540 1.389 1_554 S
C539 H518 0.950 1_556 S
C539 C538 1.373 1_556 S
C539 C555 1.377 . S
C540 C538 1.389 1_556 S
C540 C541 1.524 . S
C540 C554 1.377 . S
C541 C540 1.524 . S
C541 C542 1.397 1_556 S
C541 C546 1.363 . S
C542 H519 0.950 . S
C542 C541 1.397 1_554 S
C542 C543 1.334 . S
C543 H520 0.950 . S
C543 C542 1.334 . S
C543 C544 1.287 . S
C544 C543 1.287 . S
C544 C545 1.524 1_554 S
C544 H563 0.913 . S
C545 H521 0.950 . S
C545 C544 1.524 1_556 S
C545 C546 1.415 . S
C546 H522 0.950 . S
C546 C541 1.363 . S
C546 C545 1.415 . S
C547 H523 0.951 . S
C547 C548 1.366 . S
C547 C549 1.388 . S
C548 C547 1.366 . S
C548 C552 1.385 . S
C549 H524 0.951 . S
C549 C547 1.388 . S
C549 C550 1.366 . S
C550 C549 1.366 . S
C550 C551 1.414 . S
C550 C553 1.499 . S
C551 H525 0.950 . S
C551 C550 1.414 . S
C551 C552 1.374 . S
C552 H526 0.950 . S
C552 C548 1.385 . S
C552 C551 1.374 . S
C553 C550 1.499 . S
C553 C554 1.373 . S
C553 C555 1.389 . S
C554 H527 0.950 . S
C554 C540 1.377 . S
C554 C553 1.373 . S
C555 C539 1.377 . S
C555 C553 1.389 . S
C555 C556 1.524 . S
C556 C555 1.524 . S
C556 C557 1.397 . S
C556 C561 1.363 . S
C557 H528 0.950 . S
C557 C556 1.397 . S
C557 C558 1.334 . S
C558 H529 0.950 . S
C558 C557 1.334 . S
C558 C559 1.287 . S
C559 C558 1.287 . S
C559 C560 1.524 . S
C559 H562 0.999 . S
C560 H530 0.950 . S
C560 C559 1.524 . S
C560 C561 1.415 . S
C561 H531 0.950 . S
C561 C556 1.363 . S
C561 C560 1.415 . S
H562 C559 0.999 . S
H563 C544 0.913 . S
H564 C582 0.951 . S
H565 C584 0.951 . S
H566 C586 0.950 . S
H567 C587 0.950 . S
H568 C589 0.950 . S
H569 C592 0.950 . S
H570 C593 0.950 . S
H571 C595 0.950 . S
H572 C596 0.950 . S
H573 C597 0.951 . S
H574 C599 0.951 . S
H575 C601 0.950 . S
H576 C602 0.950 . S
H577 C604 0.950 . S
H578 C607 0.950 . S
H579 C608 0.950 . S
H580 C610 0.950 . S
H581 C611 0.950 . S
C582 H564 0.951 . S
C582 C583 1.366 . S
C582 C584 1.388 1_556 S
C583 C582 1.366 . S
C583 C587 1.385 . S
C584 H565 0.951 . S
C584 C582 1.388 1_554 S
C584 C585 1.366 . S
C585 C584 1.366 . S
C585 C586 1.414 . S
C585 C588 1.499 . S
C586 H566 0.950 . S
C586 C585 1.414 . S
C586 C587 1.374 1_554 S
C587 H567 0.950 . S
C587 C583 1.385 . S
C587 C586 1.374 1_556 S
C588 C585 1.499 . S
C588 C589 1.373 . S
C588 C590 1.389 . S
C589 H568 0.950 . S
C589 C588 1.373 . S
C589 C605 1.377 . S
C590 C588 1.389 . S
C590 C591 1.524 . S
C590 C604 1.377 . S
C591 C590 1.524 . S
C591 C592 1.397 . S
C591 C596 1.363 . S
C592 H569 0.950 . S
C592 C591 1.397 . S
C592 C593 1.334 . S
C593 H570 0.950 . S
C593 C592 1.334 . S
C593 C594 1.287 . S
C594 C593 1.287 . S
C594 C595 1.524 . S
C594 H613 0.913 . S
C595 H571 0.950 . S
C595 C594 1.524 . S
C595 C596 1.415 . S
C596 H572 0.950 . S
C596 C591 1.363 . S
C596 C595 1.415 . S
C597 H573 0.951 . S
C597 C598 1.366 . S
C597 C599 1.388 . S
C598 C597 1.366 . S
C598 C602 1.385 . S
C599 H574 0.951 . S
C599 C597 1.388 . S
C599 C600 1.366 . S
C600 C599 1.366 . S
C600 C601 1.414 . S
C600 C603 1.499 . S
C601 H575 0.950 . S
C601 C600 1.414 . S
C601 C602 1.374 . S
C602 H576 0.950 . S
C602 C598 1.385 . S
C602 C601 1.374 . S
C603 C600 1.499 . S
C603 C604 1.373 . S
C603 C605 1.389 . S
C604 H577 0.950 . S
C604 C590 1.377 . S
C604 C603 1.373 . S
C605 C589 1.377 . S
C605 C603 1.389 . S
C605 C606 1.524 . S
C606 C605 1.524 . S
C606 C607 1.397 . S
C606 C611 1.363 . S
C607 H578 0.950 . S
C607 C606 1.397 . S
C607 C608 1.334 . S
C608 H579 0.950 . S
C608 C607 1.334 . S
C608 C609 1.287 . S
C609 C608 1.287 . S
C609 C610 1.524 . S
C609 H612 0.999 . S
C610 H580 0.950 . S
C610 C609 1.524 . S
C610 C611 1.415 . S
C611 H581 0.950 . S
C611 C606 1.363 . S
C611 C610 1.415 . S
H612 C609 0.999 . S
H613 C594 0.913 . S
H614 C632 0.951 . S
H615 C634 0.951 . S
H616 C636 0.950 . S
H617 C637 0.950 . S
H618 C639 0.950 . S
H619 C642 0.950 . S
H620 C643 0.950 . S
H621 C645 0.950 . S
H622 C646 0.950 . S
H623 C647 0.951 . S
H624 C649 0.951 . S
H625 C651 0.950 . S
H626 C652 0.950 . S
H627 C654 0.950 . S
H628 C657 0.950 . S
H629 C658 0.950 . S
H630 C660 0.950 . S
H631 C661 0.950 . S
C632 H614 0.951 . S
C632 C633 1.366 . S
C632 C634 1.388 . S
C633 C632 1.366 . S
C633 C637 1.385 . S
C634 H615 0.951 . S
C634 C632 1.388 . S
C634 C635 1.366 . S
C635 C634 1.366 . S
C635 C636 1.414 . S
C635 C638 1.499 . S
C636 H616 0.950 . S
C636 C635 1.414 . S
C636 C637 1.374 . S
C637 H617 0.950 . S
C637 C633 1.385 . S
C637 C636 1.374 . S
C638 C635 1.499 . S
C638 C639 1.373 . S
C638 C640 1.389 . S
C639 H618 0.950 . S
C639 C638 1.373 . S
C639 C655 1.377 . S
C640 C638 1.389 . S
C640 C641 1.524 . S
C640 C654 1.377 . S
C641 C640 1.524 . S
C641 C642 1.397 . S
C641 C646 1.363 . S
C642 H619 0.950 . S
C642 C641 1.397 . S
C642 C643 1.334 . S
C643 H620 0.950 . S
C643 C642 1.334 . S
C643 C644 1.287 . S
C644 C643 1.287 . S
C644 C645 1.524 . S
C644 H663 0.913 . S
C645 H621 0.950 . S
C645 C644 1.524 . S
C645 C646 1.415 . S
C646 H622 0.950 . S
C646 C641 1.363 . S
C646 C645 1.415 . S
C647 H623 0.951 . S
C647 C648 1.366 . S
C647 C649 1.388 . S
C648 C647 1.366 . S
C648 C652 1.385 . S
C649 H624 0.951 . S
C649 C647 1.388 . S
C649 C650 1.366 . S
C650 C649 1.366 . S
C650 C651 1.414 . S
C650 C653 1.499 . S
C651 H625 0.950 . S
C651 C650 1.414 . S
C651 C652 1.374 . S
C652 H626 0.950 . S
C652 C648 1.385 . S
C652 C651 1.374 . S
C653 C650 1.499 . S
C653 C654 1.373 . S
C653 C655 1.389 . S
C654 H627 0.950 . S
C654 C640 1.377 . S
C654 C653 1.373 . S
C655 C639 1.377 . S
C655 C653 1.389 . S
C655 C656 1.524 . S
C656 C655 1.524 . S
C656 C657 1.397 . S
C656 C661 1.363 . S
C657 H628 0.950 . S
C657 C656 1.397 . S
C657 C658 1.334 . S
C658 H629 0.950 . S
C658 C657 1.334 . S
C658 C659 1.287 . S
C659 C658 1.287 . S
C659 C660 1.524 . S
C659 H662 0.999 . S
C660 H630 0.950 . S
C660 C659 1.524 . S
C660 C661 1.415 . S
C661 H631 0.950 . S
C661 C656 1.363 . S
C661 C660 1.415 . S
H662 C659 0.999 . S
H663 C644 0.913 . S
H664 C682 0.951 . S
H665 C684 0.951 . S
H666 C686 0.950 . S
H667 C687 0.950 . S
H668 C689 0.950 . S
H669 C692 0.950 . S
H670 C693 0.950 . S
H671 C695 0.950 . S
H672 C696 0.950 . S
H673 C697 0.951 . S
H674 C699 0.951 . S
H675 C701 0.950 . S
H676 C702 0.950 . S
H677 C704 0.950 . S
H678 C707 0.950 . S
H679 C708 0.950 . S
H680 C710 0.950 . S
H681 C711 0.950 . S
C682 H664 0.951 . S
C682 C683 1.366 . S
C682 C684 1.388 1_554 S
C683 C682 1.366 . S
C683 C687 1.385 . S
C684 H665 0.951 . S
C684 C682 1.388 1_556 S
C684 C685 1.366 . S
C685 C684 1.366 . S
C685 C686 1.414 . S
C685 C688 1.499 . S
C686 H666 0.950 . S
C686 C685 1.414 . S
C686 C687 1.374 1_556 S
C687 H667 0.950 . S
C687 C683 1.385 . S
C687 C686 1.374 1_554 S
C688 C685 1.499 . S
C688 C689 1.373 . S
C688 C690 1.389 . S
C689 H668 0.950 . S
C689 C688 1.373 . S
C689 C705 1.377 . S
C690 C688 1.389 . S
C690 C691 1.524 . S
C690 C704 1.377 . S
C691 C690 1.524 . S
C691 C692 1.397 . S
C691 C696 1.363 . S
C692 H669 0.950 . S
C692 C691 1.397 . S
C692 C693 1.334 . S
C693 H670 0.950 . S
C693 C692 1.334 . S
C693 C694 1.287 . S
C694 C693 1.287 . S
C694 C695 1.524 . S
C694 H713 0.913 . S
C695 H671 0.950 . S
C695 C694 1.524 . S
C695 C696 1.415 . S
C696 H672 0.950 . S
C696 C691 1.363 . S
C696 C695 1.415 . S
C697 H673 0.951 . S
C697 C698 1.366 . S
C697 C699 1.388 . S
C698 C697 1.366 . S
C698 C702 1.385 . S
C699 H674 0.951 . S
C699 C697 1.388 . S
C699 C700 1.366 . S
C700 C699 1.366 . S
C700 C701 1.414 . S
C700 C703 1.499 . S
C701 H675 0.950 . S
C701 C700 1.414 . S
C701 C702 1.374 . S
C702 H676 0.950 . S
C702 C698 1.385 . S
C702 C701 1.374 . S
C703 C700 1.499 . S
C703 C704 1.373 . S
C703 C705 1.389 . S
C704 H677 0.950 . S
C704 C690 1.377 . S
C704 C703 1.373 . S
C705 C689 1.377 . S
C705 C703 1.389 . S
C705 C706 1.524 . S
C706 C705 1.524 . S
C706 C707 1.397 . S
C706 C711 1.363 . S
C707 H678 0.950 . S
C707 C706 1.397 . S
C707 C708 1.334 . S
C708 H679 0.950 . S
C708 C707 1.334 . S
C708 C709 1.287 . S
C709 C708 1.287 . S
C709 C710 1.524 . S
C709 H712 0.999 . S
C710 H680 0.950 . S
C710 C709 1.524 . S
C710 C711 1.415 . S
C711 H681 0.950 . S
C711 C706 1.363 . S
C711 C710 1.415 . S
H712 C709 0.999 . S
H713 C694 0.913 . S
H714 C732 0.951 . S
H715 C734 0.951 . S
H716 C736 0.950 . S
H717 C737 0.950 . S
H718 C739 0.950 . S
H719 C742 0.950 . S
H720 C743 0.950 . S
H721 C745 0.950 . S
H722 C746 0.950 . S
H723 C747 0.951 . S
H724 C749 0.951 . S
H725 C751 0.950 . S
H726 C752 0.950 . S
H727 C754 0.950 . S
H728 C757 0.950 . S
H729 C758 0.950 . S
H730 C760 0.950 . S
H731 C761 0.950 1_554 S
C732 H714 0.951 . S
C732 C733 1.366 . S
C732 C734 1.388 . S
C733 C732 1.366 . S
C733 C737 1.385 . S
C734 H715 0.951 . S
C734 C732 1.388 . S
C734 C735 1.366 . S
C735 C734 1.366 . S
C735 C736 1.414 . S
C735 C738 1.499 . S
C736 H716 0.950 . S
C736 C735 1.414 . S
C736 C737 1.374 . S
C737 H717 0.950 . S
C737 C733 1.385 . S
C737 C736 1.374 . S
C738 C735 1.499 . S
C738 C739 1.373 . S
C738 C740 1.389 . S
C739 H718 0.950 . S
C739 C738 1.373 . S
C739 C755 1.377 . S
C740 C738 1.389 . S
C740 C741 1.524 . S
C740 C754 1.377 . S
C741 C740 1.524 . S
C741 C742 1.397 . S
C741 C746 1.363 . S
C742 H719 0.950 . S
C742 C741 1.397 . S
C742 C743 1.334 . S
C743 H720 0.950 . S
C743 C742 1.334 . S
C743 C744 1.287 . S
C744 C743 1.287 . S
C744 C745 1.524 . S
C744 H763 0.913 . S
C745 H721 0.950 . S
C745 C744 1.524 . S
C745 C746 1.415 . S
C746 H722 0.950 . S
C746 C741 1.363 . S
C746 C745 1.415 . S
C747 H723 0.951 . S
C747 C748 1.366 . S
C747 C749 1.388 . S
C748 C747 1.366 . S
C748 C752 1.385 . S
C749 H724 0.951 . S
C749 C747 1.388 . S
C749 C750 1.366 . S
C750 C749 1.366 . S
C750 C751 1.414 . S
C750 C753 1.499 . S
C751 H725 0.950 . S
C751 C750 1.414 . S
C751 C752 1.374 . S
C752 H726 0.950 . S
C752 C748 1.385 . S
C752 C751 1.374 . S
C753 C750 1.499 . S
C753 C754 1.373 1_556 S
C753 C755 1.389 1_556 S
C754 H727 0.950 . S
C754 C740 1.377 . S
C754 C753 1.373 1_554 S
C755 C739 1.377 . S
C755 C753 1.389 1_554 S
C755 C756 1.524 1_554 S
C756 C755 1.524 1_556 S
C756 C757 1.397 . S
C756 C761 1.363 . S
C757 H728 0.950 . S
C757 C756 1.397 . S
C757 C758 1.334 . S
C758 H729 0.950 . S
C758 C757 1.334 . S
C758 C759 1.287 . S
C759 C758 1.287 . S
C759 C760 1.524 . S
C759 H762 0.999 . S
C760 H730 0.950 . S
C760 C759 1.524 . S
C760 C761 1.415 . S
C761 H731 0.950 1_556 S
C761 C756 1.363 . S
C761 C760 1.415 . S
H762 C759 0.999 . S
H763 C744 0.913 . S
H764 C782 0.951 . S
H765 C784 0.951 . S
H766 C786 0.950 . S
H767 C787 0.950 . S
H768 C789 0.950 . S
H769 C792 0.950 . S
H770 C793 0.950 . S
H771 C795 0.950 . S
H772 C796 0.950 . S
H773 C797 0.951 . S
H774 C799 0.951 . S
H775 C801 0.950 . S
H776 C802 0.950 . S
H777 C804 0.950 . S
H778 C807 0.950 . S
H779 C808 0.950 . S
H780 C810 0.950 . S
H781 C811 0.950 . S
C782 H764 0.951 . S
C782 C783 1.366 . S
C782 C784 1.388 . S
C783 C782 1.366 . S
C783 C787 1.385 . S
C784 H765 0.951 . S
C784 C782 1.388 . S
C784 C785 1.366 . S
C785 C784 1.366 . S
C785 C786 1.414 . S
C785 C788 1.499 . S
C786 H766 0.950 . S
C786 C785 1.414 . S
C786 C787 1.374 . S
C787 H767 0.950 . S
C787 C783 1.385 . S
C787 C786 1.374 . S
C788 C785 1.499 . S
C788 C789 1.373 . S
C788 C790 1.389 . S
C789 H768 0.950 . S
C789 C788 1.373 . S
C789 C805 1.377 . S
C790 C788 1.389 . S
C790 C791 1.524 . S
C790 C804 1.377 . S
C791 C790 1.524 . S
C791 C792 1.397 . S
C791 C796 1.363 . S
C792 H769 0.950 . S
C792 C791 1.397 . S
C792 C793 1.334 . S
C793 H770 0.950 . S
C793 C792 1.334 . S
C793 C794 1.287 . S
C794 C793 1.287 . S
C794 C795 1.524 . S
C794 H813 0.913 . S
C795 H771 0.950 . S
C795 C794 1.524 . S
C795 C796 1.415 . S
C796 H772 0.950 . S
C796 C791 1.363 . S
C796 C795 1.415 . S
C797 H773 0.951 . S
C797 C798 1.366 . S
C797 C799 1.388 . S
C798 C797 1.366 . S
C798 C802 1.385 . S
C799 H774 0.951 . S
C799 C797 1.388 . S
C799 C800 1.366 . S
C800 C799 1.366 . S
C800 C801 1.414 . S
C800 C803 1.499 . S
C801 H775 0.950 . S
C801 C800 1.414 . S
C801 C802 1.374 . S
C802 H776 0.950 . S
C802 C798 1.385 . S
C802 C801 1.374 . S
C803 C800 1.499 . S
C803 C804 1.373 . S
C803 C805 1.389 . S
C804 H777 0.950 . S
C804 C790 1.377 . S
C804 C803 1.373 . S
C805 C789 1.377 . S
C805 C803 1.389 . S
C805 C806 1.524 . S
C806 C805 1.524 . S
C806 C807 1.397 . S
C806 C811 1.363 . S
C807 H778 0.950 . S
C807 C806 1.397 . S
C807 C808 1.334 . S
C808 H779 0.950 . S
C808 C807 1.334 . S
C808 C809 1.287 . S
C809 C808 1.287 . S
C809 C810 1.524 . S
C809 H812 0.999 . S
C810 H780 0.950 . S
C810 C809 1.524 . S
C810 C811 1.415 . S
C811 H781 0.950 . S
C811 C806 1.363 . S
C811 C810 1.415 . S
H812 C809 0.999 . S
H813 C794 0.913 . S
H814 C832 0.951 . S
H815 C834 0.951 . S
H816 C836 0.950 . S
H817 C837 0.950 . S
H818 C839 0.950 . S
H819 C842 0.950 . S
H820 C843 0.950 . S
H821 C845 0.950 . S
H822 C846 0.950 . S
H823 C847 0.951 . S
H824 C849 0.951 . S
H825 C851 0.950 . S
H826 C852 0.950 . S
H827 C854 0.950 . S
H828 C857 0.950 . S
H829 C858 0.950 . S
H830 C860 0.950 . S
H831 C861 0.950 . S
C832 H814 0.951 . S
C832 C833 1.366 . S
C832 C834 1.388 . S
C833 C832 1.366 . S
C833 C837 1.385 . S
C834 H815 0.951 . S
C834 C832 1.388 . S
C834 C835 1.366 . S
C835 C834 1.366 . S
C835 C836 1.414 . S
C835 C838 1.499 . S
C836 H816 0.950 . S
C836 C835 1.414 . S
C836 C837 1.374 . S
C837 H817 0.950 . S
C837 C833 1.385 . S
C837 C836 1.374 . S
C838 C835 1.499 . S
C838 C839 1.373 . S
C838 C840 1.389 . S
C839 H818 0.950 . S
C839 C838 1.373 . S
C839 C855 1.377 . S
C840 C838 1.389 . S
C840 C841 1.524 . S
C840 C854 1.377 . S
C841 C840 1.524 . S
C841 C842 1.397 . S
C841 C846 1.363 . S
C842 H819 0.950 . S
C842 C841 1.397 . S
C842 C843 1.334 . S
C843 H820 0.950 . S
C843 C842 1.334 . S
C843 C844 1.287 . S
C844 C843 1.287 . S
C844 C845 1.524 . S
C844 H863 0.913 . S
C845 H821 0.950 . S
C845 C844 1.524 . S
C845 C846 1.415 . S
C846 H822 0.950 . S
C846 C841 1.363 . S
C846 C845 1.415 . S
C847 H823 0.951 . S
C847 C848 1.366 . S
C847 C849 1.388 . S
C848 C847 1.366 . S
C848 C852 1.385 . S
C849 H824 0.951 . S
C849 C847 1.388 . S
C849 C850 1.366 . S
C850 C849 1.366 . S
C850 C851 1.414 . S
C850 C853 1.499 . S
C851 H825 0.950 . S
C851 C850 1.414 . S
C851 C852 1.374 . S
C852 H826 0.950 . S
C852 C848 1.385 . S
C852 C851 1.374 . S
C853 C850 1.499 . S
C853 C854 1.373 . S
C853 C855 1.389 . S
C854 H827 0.950 . S
C854 C840 1.377 . S
C854 C853 1.373 . S
C855 C839 1.377 . S
C855 C853 1.389 . S
C855 C856 1.524 . S
C856 C855 1.524 . S
C856 C857 1.397 . S
C856 C861 1.363 . S
C857 H828 0.950 . S
C857 C856 1.397 . S
C857 C858 1.334 . S
C858 H829 0.950 . S
C858 C857 1.334 . S
C858 C859 1.287 . S
C859 C858 1.287 . S
C859 C860 1.524 . S
C859 H862 0.999 . S
C860 H830 0.950 . S
C860 C859 1.524 . S
C860 C861 1.415 . S
C861 H831 0.950 . S
C861 C856 1.363 . S
C861 C860 1.415 . S
H862 C859 0.999 . S
H863 C844 0.913 . S
H864 C882 0.951 . S
H865 C884 0.951 . S
H866 C886 0.950 . S
H867 C887 0.950 . S
H868 C889 0.954 . S
H869 C892 0.950 1_554 S
H870 C893 0.950 . S
H871 C895 0.950 . S
H872 C896 0.950 . S
H873 C897 0.951 . S
H874 C899 0.951 . S
H875 C901 0.950 . S
H876 C902 0.950 . S
H877 C904 0.954 . S
H878 C907 0.950 1_556 S
H879 C908 0.950 . S
H880 C910 0.950 . S
H881 C911 0.950 . S
C882 H864 0.951 . S
C882 C883 1.366 . S
C882 C884 1.388 . S
C883 C882 1.366 . S
C883 C887 1.385 . S
C884 H865 0.951 . S
C884 C882 1.388 . S
C884 C885 1.366 . S
C885 C884 1.366 . S
C885 C886 1.414 . S
C885 C888 1.499 . S
C886 H866 0.950 . S
C886 C885 1.414 . S
C886 C887 1.374 . S
C887 H867 0.950 . S
C887 C883 1.385 . S
C887 C886 1.374 . S
C888 C885 1.499 . S
C888 C889 1.420 . S
C888 C890 1.389 1_554 S
C889 H868 0.954 . S
C889 C888 1.420 . S
C889 C905 1.328 1_455 S
C890 C888 1.389 1_556 S
C890 C891 1.524 . S
C890 C904 1.328 1_455 S
C891 C890 1.524 . S
C891 C892 1.397 . S
C891 C896 1.363 . S
C892 H869 0.950 1_556 S
C892 C891 1.397 . S
C892 C893 1.334 . S
C893 H870 0.950 . S
C893 C892 1.334 . S
C893 C894 1.287 . S
C894 C893 1.287 . S
C894 C895 1.524 . S
C894 H913 0.913 . S
C895 H871 0.950 . S
C895 C894 1.524 . S
C895 C896 1.415 . S
C896 H872 0.950 . S
C896 C891 1.363 . S
C896 C895 1.415 . S
C897 H873 0.951 . S
C897 C898 1.366 . S
C897 C899 1.388 . S
C898 C897 1.366 . S
C898 C902 1.385 . S
C899 H874 0.951 . S
C899 C897 1.388 . S
C899 C900 1.366 . S
C900 C899 1.366 . S
C900 C901 1.414 . S
C900 C903 1.499 . S
C901 H875 0.950 . S
C901 C900 1.414 . S
C901 C902 1.374 . S
C902 H876 0.950 . S
C902 C898 1.385 . S
C902 C901 1.374 . S
C903 C900 1.499 . S
C903 C904 1.420 . S
C903 C905 1.389 1_556 S
C904 H877 0.954 . S
C904 C890 1.328 1_655 S
C904 C903 1.420 . S
C905 C889 1.328 1_655 S
C905 C903 1.389 1_554 S
C905 C906 1.524 . S
C906 C905 1.524 . S
C906 C907 1.397 . S
C906 C911 1.363 . S
C907 H878 0.950 1_554 S
C907 C906 1.397 . S
C907 C908 1.334 . S
C908 H879 0.950 . S
C908 C907 1.334 . S
C908 C909 1.287 . S
C909 C908 1.287 . S
C909 C910 1.524 . S
C909 H912 0.999 . S
C910 H880 0.950 . S
C910 C909 1.524 . S
C910 C911 1.415 . S
C911 H881 0.950 . S
C911 C906 1.363 . S
C911 C910 1.415 . S
H912 C909 0.999 . S
H913 C894 0.913 . S
H914 C932 0.951 . S
H915 C934 0.951 . S
H916 C936 0.950 . S
H917 C937 0.950 . S
H918 C939 0.950 . S
H919 C942 0.950 . S
H920 C943 0.950 . S
H921 C945 0.950 . S
H922 C946 0.950 . S
H923 C947 0.951 . S
H924 C949 0.951 . S
H925 C951 0.950 . S
H926 C952 0.950 . S
H927 C954 0.950 . S
H928 C957 0.950 . S
H929 C958 0.950 . S
H930 C960 0.950 . S
H931 C961 0.950 . S
C932 H914 0.951 . S
C932 C933 1.366 . S
C932 C934 1.388 . S
C933 C932 1.366 . S
C933 C937 1.385 . S
C934 H915 0.951 . S
C934 C932 1.388 . S
C934 C935 1.366 . S
C935 C934 1.366 . S
C935 C936 1.414 . S
C935 C938 1.499 . S
C936 H916 0.950 . S
C936 C935 1.414 . S
C936 C937 1.374 . S
C937 H917 0.950 . S
C937 C933 1.385 . S
C937 C936 1.374 . S
C938 C935 1.499 . S
C938 C939 1.397 . S
C938 C940 1.389 . S
C939 H918 0.950 . S
C939 C938 1.397 . S
C939 C955 1.352 1_565 S
C940 C938 1.389 . S
C940 C941 1.524 . S
C940 C954 1.352 1_565 S
C941 C940 1.524 . S
C941 C942 1.397 . S
C941 C946 1.363 . S
C942 H919 0.950 . S
C942 C941 1.397 . S
C942 C943 1.334 . S
C943 H920 0.950 . S
C943 C942 1.334 . S
C943 C944 1.287 . S
C944 C943 1.287 . S
C944 C945 1.524 . S
C944 H963 0.913 . S
C945 H921 0.950 . S
C945 C944 1.524 . S
C945 C946 1.415 . S
C946 H922 0.950 . S
C946 C941 1.363 . S
C946 C945 1.415 . S
C947 H923 0.951 . S
C947 C948 1.366 . S
C947 C949 1.388 . S
C948 C947 1.366 . S
C948 C952 1.385 . S
C949 H924 0.951 . S
C949 C947 1.388 . S
C949 C950 1.366 . S
C950 C949 1.366 . S
C950 C951 1.414 . S
C950 C953 1.499 . S
C951 H925 0.950 . S
C951 C950 1.414 . S
C951 C952 1.374 . S
C952 H926 0.950 . S
C952 C948 1.385 . S
C952 C951 1.374 . S
C953 C950 1.499 . S
C953 C954 1.397 . S
C953 C955 1.389 . S
C954 H927 0.950 . S
C954 C940 1.352 1_545 S
C954 C953 1.397 . S
C955 C939 1.352 1_545 S
C955 C953 1.389 . S
C955 C956 1.524 . S
C956 C955 1.524 . S
C956 C957 1.397 . S
C956 C961 1.363 . S
C957 H928 0.950 . S
C957 C956 1.397 . S
C957 C958 1.334 . S
C958 H929 0.950 . S
C958 C957 1.334 . S
C958 C959 1.287 . S
C959 C958 1.287 . S
C959 C960 1.524 . S
C959 H962 0.999 . S
C960 H930 0.950 . S
C960 C959 1.524 . S
C960 C961 1.415 . S
C961 H931 0.950 . S
C961 C956 1.363 . S
C961 C960 1.415 . S
H962 C959 0.999 . S
H963 C944 0.913 . S
H964 C982 0.951 . S
H965 C984 0.951 . S
H966 C986 0.950 . S
H967 C987 0.950 . S
H968 C989 0.950 . S
H969 C992 0.950 . S
H970 C993 0.950 . S
H971 C995 0.950 1_655 S
H972 C996 0.950 1_655 S
H973 C997 0.951 . S
H974 C999 0.951 . S
H975 C1001 0.950 . S
H976 C1002 0.950 . S
H977 C1004 0.950 . S
H978 C1007 0.950 . S
H979 C1008 0.950 . S
H980 C1010 0.950 1_455 S
H981 C1011 0.950 1_455 S
C982 H964 0.951 . S
C982 C983 1.366 . S
C982 C984 1.388 . S
C983 C982 1.366 . S
C983 C987 1.385 . S
C984 H965 0.951 . S
C984 C982 1.388 . S
C984 C985 1.366 . S
C985 C984 1.366 . S
C985 C986 1.414 . S
C985 C988 1.499 . S
C986 H966 0.950 . S
C986 C985 1.414 . S
C986 C987 1.374 . S
C987 H967 0.950 . S
C987 C983 1.385 . S
C987 C986 1.374 . S
C988 C985 1.499 . S
C988 C989 1.373 . S
C988 C990 1.389 . S
C989 H968 0.950 . S
C989 C988 1.373 . S
C989 C1005 1.377 1_455 S
C990 C988 1.389 . S
C990 C991 1.524 . S
C990 C1004 1.377 1_455 S
C991 C990 1.524 . S
C991 C992 1.397 . S
C991 C996 1.363 . S
C992 H969 0.950 . S
C992 C991 1.397 . S
C992 C993 1.334 . S
C993 H970 0.950 . S
C993 C992 1.334 . S
C993 C994 1.287 . S
C994 C993 1.287 . S
C994 C995 1.524 . S
C994 H1013 0.913 . S
C995 H971 0.950 1_455 S
C995 C994 1.524 . S
C995 C996 1.415 . S
C996 H972 0.950 1_455 S
C996 C991 1.363 . S
C996 C995 1.415 . S
C997 H973 0.951 . S
C997 C998 1.366 . S
C997 C999 1.388 . S
C998 C997 1.366 . S
C998 C1002 1.385 . S
C999 H974 0.951 . S
C999 C997 1.388 . S
C999 C1000 1.366 . S
C1000 C999 1.366 . S
C1000 C1001 1.414 . S
C1000 C1003 1.499 . S
C1001 H975 0.950 . S
C1001 C1000 1.414 . S
C1001 C1002 1.374 . S
C1002 H976 0.950 . S
C1002 C998 1.385 . S
C1002 C1001 1.374 . S
C1003 C1000 1.499 . S
C1003 C1004 1.373 . S
C1003 C1005 1.389 . S
C1004 H977 0.950 . S
C1004 C990 1.377 1_655 S
C1004 C1003 1.373 . S
C1005 C989 1.377 1_655 S
C1005 C1003 1.389 . S
C1005 C1006 1.524 . S
C1006 C1005 1.524 . S
C1006 C1007 1.397 . S
C1006 C1011 1.363 . S
C1007 H978 0.950 . S
C1007 C1006 1.397 . S
C1007 C1008 1.334 . S
C1008 H979 0.950 . S
C1008 C1007 1.334 . S
C1008 C1009 1.287 . S
C1009 C1008 1.287 . S
C1009 C1010 1.524 . S
C1009 H1012 0.999 . S
C1010 H980 0.950 1_655 S
C1010 C1009 1.524 . S
C1010 C1011 1.415 . S
C1011 H981 0.950 1_655 S
C1011 C1006 1.363 . S
C1011 C1010 1.415 . S
H1012 C1009 0.999 . S
H1013 C994 0.913 . S
H1014 C1032 0.951 . S
H1015 C1034 0.951 . S
H1016 C1036 0.950 . S
H1017 C1037 0.950 . S
H1018 C1039 0.950 . S
H1019 C1042 0.950 . S
H1020 C1043 0.950 1_554 S
H1021 C1045 0.950 . S
H1022 C1046 0.950 . S
H1023 C1047 0.951 . S
H1024 C1049 0.951 . S
H1025 C1051 0.950 . S
H1026 C1052 0.950 . S
H1027 C1054 0.950 . S
H1028 C1057 0.950 . S
H1029 C1058 0.950 . S
H1030 C1060 0.950 . S
H1031 C1061 0.950 . S
C1032 H1014 0.951 . S
C1032 C1033 1.366 . S
C1032 C1034 1.388 . S
C1033 C1032 1.366 . S
C1033 C1037 1.385 . S
C1034 H1015 0.951 . S
C1034 C1032 1.388 . S
C1034 C1035 1.366 . S
C1035 C1034 1.366 . S
C1035 C1036 1.414 . S
C1035 C1038 1.499 . S
C1036 H1016 0.950 . S
C1036 C1035 1.414 . S
C1036 C1037 1.374 . S
C1037 H1017 0.950 . S
C1037 C1033 1.385 . S
C1037 C1036 1.374 . S
C1038 C1035 1.499 . S
C1038 C1039 1.373 . S
C1038 C1040 1.359 1_565 S
C1039 H1018 0.950 . S
C1039 C1038 1.373 . S
C1039 C1055 1.405 . S
C1040 C1038 1.359 1_545 S
C1040 C1041 1.528 . S
C1040 C1054 1.405 . S
C1041 C1040 1.528 . S
C1041 C1042 1.397 1_545 S
C1041 C1046 1.363 . S
C1042 H1019 0.950 . S
C1042 C1041 1.397 1_565 S
C1042 C1043 1.334 . S
C1043 H1020 0.950 1_556 S
C1043 C1042 1.334 . S
C1043 C1044 1.287 1_566 S
C1044 C1043 1.287 1_544 S
C1044 C1045 1.524 1_554 S
C1044 H1063 0.913 . S
C1045 H1021 0.950 . S
C1045 C1044 1.524 1_556 S
C1045 C1046 1.415 . S
C1046 H1022 0.950 . S
C1046 C1041 1.363 . S
C1046 C1045 1.415 . S
C1047 H1023 0.951 . S
C1047 C1048 1.366 . S
C1047 C1049 1.388 . S
C1048 C1047 1.366 . S
C1048 C1052 1.385 . S
C1049 H1024 0.951 . S
C1049 C1047 1.388 . S
C1049 C1050 1.366 . S
C1050 C1049 1.366 . S
C1050 C1051 1.414 . S
C1050 C1053 1.499 . S
C1051 H1025 0.950 . S
C1051 C1050 1.414 . S
C1051 C1052 1.374 . S
C1052 H1026 0.950 . S
C1052 C1048 1.385 . S
C1052 C1051 1.374 . S
C1053 C1050 1.499 . S
C1053 C1054 1.373 . S
C1053 C1055 1.359 1_545 S
C1054 H1027 0.950 . S
C1054 C1040 1.405 . S
C1054 C1053 1.373 . S
C1055 C1039 1.405 . S
C1055 C1053 1.359 1_565 S
C1055 C1056 1.528 . S
C1056 C1055 1.528 . S
C1056 C1057 1.397 1_565 S
C1056 C1061 1.363 . S
C1057 H1028 0.950 . S
C1057 C1056 1.397 1_545 S
C1057 C1058 1.334 . S
C1058 H1029 0.950 . S
C1058 C1057 1.334 . S
C1058 C1059 1.287 1_545 S
C1059 C1058 1.287 1_565 S
C1059 C1060 1.524 . S
C1059 H1062 0.999 . S
C1060 H1030 0.950 . S
C1060 C1059 1.524 . S
C1060 C1061 1.415 . S
C1061 H1031 0.950 . S
C1061 C1056 1.363 . S
C1061 C1060 1.415 . S
H1062 C1059 0.999 . S
H1063 C1044 0.913 . S
H1064 C1082 0.951 . S
H1065 C1084 0.951 . S
H1066 C1086 0.950 . S
H1067 C1087 0.950 . S
H1068 C1089 0.950 . S
H1069 C1092 0.950 . S
H1070 C1093 0.950 . S
H1071 C1095 0.950 . S
H1072 C1096 0.950 . S
H1073 C1097 0.951 . S
H1074 C1099 0.951 . S
H1075 C1101 0.950 . S
H1076 C1102 0.950 . S
H1077 C1104 0.950 . S
H1078 C1107 0.950 . S
H1079 C1108 0.950 . S
H1080 C1110 0.950 . S
H1081 C1111 0.950 . S
C1082 H1064 0.951 . S
C1082 C1083 1.366 . S
C1082 C1084 1.388 . S
C1083 C1082 1.366 . S
C1083 C1087 1.385 . S
C1084 H1065 0.951 . S
C1084 C1082 1.388 . S
C1084 C1085 1.366 . S
C1085 C1084 1.366 . S
C1085 C1086 1.414 . S
C1085 C1088 1.499 . S
C1086 H1066 0.950 . S
C1086 C1085 1.414 . S
C1086 C1087 1.374 . S
C1087 H1067 0.950 . S
C1087 C1083 1.385 . S
C1087 C1086 1.374 . S
C1088 C1085 1.499 . S
C1088 C1089 1.373 . S
C1088 C1090 1.389 . S
C1089 H1068 0.950 . S
C1089 C1088 1.373 . S
C1089 C1105 1.377 . S
C1090 C1088 1.389 . S
C1090 C1091 1.524 . S
C1090 C1104 1.377 . S
C1091 C1090 1.524 . S
C1091 C1092 1.397 . S
C1091 C1096 1.363 . S
C1092 H1069 0.950 . S
C1092 C1091 1.397 . S
C1092 C1093 1.334 . S
C1093 H1070 0.950 . S
C1093 C1092 1.334 . S
C1093 C1094 1.287 . S
C1094 C1093 1.287 . S
C1094 C1095 1.524 . S
C1094 H1113 0.913 . S
C1095 H1071 0.950 . S
C1095 C1094 1.524 . S
C1095 C1096 1.415 . S
C1096 H1072 0.950 . S
C1096 C1091 1.363 . S
C1096 C1095 1.415 . S
C1097 H1073 0.951 . S
C1097 C1098 1.366 . S
C1097 C1099 1.388 . S
C1098 C1097 1.366 . S
C1098 C1102 1.385 . S
C1099 H1074 0.951 . S
C1099 C1097 1.388 . S
C1099 C1100 1.366 . S
C1100 C1099 1.366 . S
C1100 C1101 1.414 . S
C1100 C1103 1.499 . S
C1101 H1075 0.950 . S
C1101 C1100 1.414 . S
C1101 C1102 1.374 . S
C1102 H1076 0.950 . S
C1102 C1098 1.385 . S
C1102 C1101 1.374 . S
C1103 C1100 1.499 . S
C1103 C1104 1.373 . S
C1103 C1105 1.389 . S
C1104 H1077 0.950 . S
C1104 C1090 1.377 . S
C1104 C1103 1.373 . S
C1105 C1089 1.377 . S
C1105 C1103 1.389 . S
C1105 C1106 1.524 . S
C1106 C1105 1.524 . S
C1106 C1107 1.397 . S
C1106 C1111 1.363 . S
C1107 H1078 0.950 . S
C1107 C1106 1.397 . S
C1107 C1108 1.334 . S
C1108 H1079 0.950 . S
C1108 C1107 1.334 . S
C1108 C1109 1.287 . S
C1109 C1108 1.287 . S
C1109 C1110 1.524 . S
C1109 H1112 0.999 . S
C1110 H1080 0.950 . S
C1110 C1109 1.524 . S
C1110 C1111 1.415 . S
C1111 H1081 0.950 . S
C1111 C1106 1.363 . S
C1111 C1110 1.415 . S
H1112 C1109 0.999 . S
H1113 C1094 0.913 . S
H1114 C1132 0.951 . S
H1115 C1134 0.951 . S
H1116 C1136 0.950 . S
H1117 C1137 0.950 . S
H1118 C1139 0.950 . S
H1119 C1142 0.950 . S
H1120 C1143 0.950 . S
H1121 C1145 0.950 . S
H1122 C1146 0.950 . S
H1123 C1147 0.951 . S
H1124 C1149 0.951 . S
H1125 C1151 0.950 . S
H1126 C1152 0.950 . S
H1127 C1154 0.950 . S
H1128 C1157 0.950 . S
H1129 C1158 0.950 . S
H1130 C1160 0.950 . S
H1131 C1161 0.950 . S
C1132 H1114 0.951 . S
C1132 C1133 1.366 . S
C1132 C1134 1.388 . S
C1133 C1132 1.366 . S
C1133 C1137 1.385 . S
C1134 H1115 0.951 . S
C1134 C1132 1.388 . S
C1134 C1135 1.366 . S
C1135 C1134 1.366 . S
C1135 C1136 1.414 . S
C1135 C1138 1.499 . S
C1136 H1116 0.950 . S
C1136 C1135 1.414 . S
C1136 C1137 1.374 . S
C1137 H1117 0.950 . S
C1137 C1133 1.385 . S
C1137 C1136 1.374 . S
C1138 C1135 1.499 . S
C1138 C1139 1.373 . S
C1138 C1140 1.389 . S
C1139 H1118 0.950 . S
C1139 C1138 1.373 . S
C1139 C1155 1.377 . S
C1140 C1138 1.389 . S
C1140 C1141 1.524 . S
C1140 C1154 1.377 . S
C1141 C1140 1.524 . S
C1141 C1142 1.397 . S
C1141 C1146 1.363 . S
C1142 H1119 0.950 . S
C1142 C1141 1.397 . S
C1142 C1143 1.334 . S
C1143 H1120 0.950 . S
C1143 C1142 1.334 . S
C1143 C1144 1.287 . S
C1144 C1143 1.287 . S
C1144 C1145 1.524 . S
C1144 H1163 0.913 . S
C1145 H1121 0.950 . S
C1145 C1144 1.524 . S
C1145 C1146 1.415 . S
C1146 H1122 0.950 . S
C1146 C1141 1.363 . S
C1146 C1145 1.415 . S
C1147 H1123 0.951 . S
C1147 C1148 1.366 . S
C1147 C1149 1.388 . S
C1148 C1147 1.366 . S
C1148 C1152 1.385 . S
C1149 H1124 0.951 . S
C1149 C1147 1.388 . S
C1149 C1150 1.366 . S
C1150 C1149 1.366 . S
C1150 C1151 1.414 . S
C1150 C1153 1.499 . S
C1151 H1125 0.950 . S
C1151 C1150 1.414 . S
C1151 C1152 1.374 . S
C1152 H1126 0.950 . S
C1152 C1148 1.385 . S
C1152 C1151 1.374 . S
C1153 C1150 1.499 . S
C1153 C1154 1.373 . S
C1153 C1155 1.389 . S
C1154 H1127 0.950 . S
C1154 C1140 1.377 . S
C1154 C1153 1.373 . S
C1155 C1139 1.377 . S
C1155 C1153 1.389 . S
C1155 C1156 1.524 . S
C1156 C1155 1.524 . S
C1156 C1157 1.397 . S
C1156 C1161 1.363 . S
C1157 H1128 0.950 . S
C1157 C1156 1.397 . S
C1157 C1158 1.334 . S
C1158 H1129 0.950 . S
C1158 C1157 1.334 . S
C1158 C1159 1.287 . S
C1159 C1158 1.287 . S
C1159 C1160 1.524 . S
C1159 H1162 0.999 . S
C1160 H1130 0.950 . S
C1160 C1159 1.524 . S
C1160 C1161 1.415 . S
C1161 H1131 0.950 . S
C1161 C1156 1.363 . S
C1161 C1160 1.415 . S
H1162 C1159 0.999 . S
H1163 C1144 0.913 . S
H1164 C1182 0.951 . S
H1165 C1184 0.951 . S
H1166 C1186 0.950 . S
H1167 C1187 0.950 . S
H1168 C1189 0.950 . S
H1169 C1192 0.950 . S
H1170 C1193 0.950 . S
H1171 C1195 0.950 . S
H1172 C1196 0.950 . S
H1173 C1197 0.951 . S
H1174 C1199 0.951 . S
H1175 C1201 0.950 . S
H1176 C1202 0.950 . S
H1177 C1204 0.950 . S
H1178 C1207 0.950 . S
H1179 C1208 0.950 . S
H1180 C1210 0.950 . S
H1181 C1211 0.950 . S
C1182 H1164 0.951 . S
C1182 C1183 1.366 . S
C1182 C1184 1.388 . S
C1183 C1182 1.366 . S
C1183 C1187 1.385 . S
C1184 H1165 0.951 . S
C1184 C1182 1.388 . S
C1184 C1185 1.366 . S
C1185 C1184 1.366 . S
C1185 C1186 1.414 . S
C1185 C1188 1.499 . S
C1186 H1166 0.950 . S
C1186 C1185 1.414 . S
C1186 C1187 1.374 . S
C1187 H1167 0.950 . S
C1187 C1183 1.385 . S
C1187 C1186 1.374 . S
C1188 C1185 1.499 . S
C1188 C1189 1.373 . S
C1188 C1190 1.389 . S
C1189 H1168 0.950 . S
C1189 C1188 1.373 . S
C1189 C1205 1.377 . S
C1190 C1188 1.389 . S
C1190 C1191 1.524 . S
C1190 C1204 1.377 . S
C1191 C1190 1.524 . S
C1191 C1192 1.397 . S
C1191 C1196 1.363 . S
C1192 H1169 0.950 . S
C1192 C1191 1.397 . S
C1192 C1193 1.334 . S
C1193 H1170 0.950 . S
C1193 C1192 1.334 . S
C1193 C1194 1.287 . S
C1194 C1193 1.287 . S
C1194 C1195 1.524 . S
C1194 H1213 0.913 . S
C1195 H1171 0.950 . S
C1195 C1194 1.524 . S
C1195 C1196 1.415 . S
C1196 H1172 0.950 . S
C1196 C1191 1.363 . S
C1196 C1195 1.415 . S
C1197 H1173 0.951 . S
C1197 C1198 1.366 . S
C1197 C1199 1.388 . S
C1198 C1197 1.366 . S
C1198 C1202 1.385 . S
C1199 H1174 0.951 . S
C1199 C1197 1.388 . S
C1199 C1200 1.366 . S
C1200 C1199 1.366 . S
C1200 C1201 1.414 . S
C1200 C1203 1.499 . S
C1201 H1175 0.950 . S
C1201 C1200 1.414 . S
C1201 C1202 1.374 . S
C1202 H1176 0.950 . S
C1202 C1198 1.385 . S
C1202 C1201 1.374 . S
C1203 C1200 1.499 . S
C1203 C1204 1.373 . S
C1203 C1205 1.389 . S
C1204 H1177 0.950 . S
C1204 C1190 1.377 . S
C1204 C1203 1.373 . S
C1205 C1189 1.377 . S
C1205 C1203 1.389 . S
C1205 C1206 1.524 . S
C1206 C1205 1.524 . S
C1206 C1207 1.397 . S
C1206 C1211 1.363 . S
C1207 H1178 0.950 . S
C1207 C1206 1.397 . S
C1207 C1208 1.334 . S
C1208 H1179 0.950 . S
C1208 C1207 1.334 . S
C1208 C1209 1.287 . S
C1209 C1208 1.287 . S
C1209 C1210 1.524 . S
C1209 H1212 0.999 . S
C1210 H1180 0.950 . S
C1210 C1209 1.524 . S
C1210 C1211 1.415 . S
C1211 H1181 0.950 . S
C1211 C1206 1.363 . S
C1211 C1210 1.415 . S
H1212 C1209 0.999 . S
H1213 C1194 0.913 . S
H1214 C1232 0.951 . S
H1215 C1234 0.951 . S
H1216 C1236 0.950 . S
H1217 C1237 0.950 . S
H1218 C1239 0.950 . S
H1219 C1242 0.950 1_556 S
H1220 C1243 0.950 . S
H1221 C1245 0.950 . S
H1222 C1246 0.950 . S
H1223 C1247 0.951 . S
H1224 C1249 0.951 . S
H1225 C1251 0.950 . S
H1226 C1252 0.950 . S
H1227 C1254 0.950 . S
H1228 C1257 0.950 1_554 S
H1229 C1258 0.950 . S
H1230 C1260 0.950 . S
H1231 C1261 0.950 . S
C1232 H1214 0.951 . S
C1232 C1233 1.366 . S
C1232 C1234 1.388 . S
C1233 C1232 1.366 . S
C1233 C1237 1.385 1_554 S
C1234 H1215 0.951 . S
C1234 C1232 1.388 . S
C1234 C1235 1.366 . S
C1235 C1234 1.366 . S
C1235 C1236 1.414 1_554 S
C1235 C1238 1.499 . S
C1236 H1216 0.950 . S
C1236 C1235 1.414 1_556 S
C1236 C1237 1.374 . S
C1237 H1217 0.950 . S
C1237 C1233 1.385 1_556 S
C1237 C1236 1.374 . S
C1238 C1235 1.499 . S
C1238 C1239 1.373 1_554 S
C1238 C1240 1.389 . S
C1239 H1218 0.950 . S
C1239 C1238 1.373 1_556 S
C1239 C1255 1.377 . S
C1240 C1238 1.389 . S
C1240 C1241 1.524 . S
C1240 C1254 1.377 . S
C1241 C1240 1.524 . S
C1241 C1242 1.397 . S
C1241 C1246 1.363 . S
C1242 H1219 0.950 1_554 S
C1242 C1241 1.397 . S
C1242 C1243 1.334 . S
C1243 H1220 0.950 . S
C1243 C1242 1.334 . S
C1243 C1244 1.287 . S
C1244 C1243 1.287 . S
C1244 C1245 1.524 . S
C1244 H1263 0.913 . S
C1245 H1221 0.950 . S
C1245 C1244 1.524 . S
C1245 C1246 1.415 . S
C1246 H1222 0.950 . S
C1246 C1241 1.363 . S
C1246 C1245 1.415 . S
C1247 H1223 0.951 . S
C1247 C1248 1.366 . S
C1247 C1249 1.388 . S
C1248 C1247 1.366 . S
C1248 C1252 1.385 1_556 S
C1249 H1224 0.951 . S
C1249 C1247 1.388 . S
C1249 C1250 1.366 . S
C1250 C1249 1.366 . S
C1250 C1251 1.414 1_556 S
C1250 C1253 1.499 . S
C1251 H1225 0.950 . S
C1251 C1250 1.414 1_554 S
C1251 C1252 1.374 . S
C1252 H1226 0.950 . S
C1252 C1248 1.385 1_554 S
C1252 C1251 1.374 . S
C1253 C1250 1.499 . S
C1253 C1254 1.373 1_556 S
C1253 C1255 1.389 . S
C1254 H1227 0.950 . S
C1254 C1240 1.377 . S
C1254 C1253 1.373 1_554 S
C1255 C1239 1.377 . S
C1255 C1253 1.389 . S
C1255 C1256 1.524 . S
C1256 C1255 1.524 . S
C1256 C1257 1.397 . S
C1256 C1261 1.363 . S
C1257 H1228 0.950 1_556 S
C1257 C1256 1.397 . S
C1257 C1258 1.334 . S
C1258 H1229 0.950 . S
C1258 C1257 1.334 . S
C1258 C1259 1.287 . S
C1259 C1258 1.287 . S
C1259 C1260 1.524 . S
C1259 H1262 0.999 . S
C1260 H1230 0.950 . S
C1260 C1259 1.524 . S
C1260 C1261 1.415 . S
C1261 H1231 0.950 . S
C1261 C1256 1.363 . S
C1261 C1260 1.415 . S
H1262 C1259 0.999 . S
H1263 C1244 0.913 . S
C283 C183 1.136 . S
C298 C18 1.136 . S
C333 C216 1.137 . S
C348 C51 1.137 . S
C383 C84 1.137 . S
C398 C249 1.137 . S
C433 C150 1.137 . S
C448 C117 1.137 . S
C483 N13 0.958 . S
C498 N2 0.955 1_556 S
C533 N35 0.958 . S
C548 N46 0.959 . S
C583 N79 0.958 . S
C598 N68 0.957 . S
C633 N112 0.958 . S
C648 N101 0.958 . S
C683 N145 0.959 . S
C698 N134 0.958 . S
C733 N178 0.958 . S
C748 N167 0.958 . S
C783 N211 0.958 . S
C798 N200 0.955 1_554 S
C833 N233 0.958 . S
C848 N244 0.958 . S
C883 C7 1.330 . S
C898 C205 1.329 . S
C933 C238 1.330 . S
C948 C40 1.330 . S
C983 C139 1.329 . S
C998 C73 1.330 . S
C1033 C106 1.329 . S
C1048 C172 1.329 . S
C1083 C21 1.529 . S
C1098 C153 1.528 . S
C1133 C54 1.529 . S
C1148 C186 1.528 . S
C1183 C87 1.528 . S
C1198 C219 1.528 . S
C1233 C252 1.528 . S
C1248 C120 1.529 . S
