# Generated by pormake.
# Topology qtz-f, (3)-cn, num edge types: 1
# Building blocks:
#     Node 0, Type 0, BuildingBlock: OLANEW_clean_sbu_2, # of connection points: 3
#     Node 1, Type 0, BuildingBlock: OLANEW_clean_sbu_2, # of connection points: 3
#     Node 2, Type 0, BuildingBlock: OLANEW_clean_sbu_2, # of connection points: 3
#     Node 3, Type 0, BuildingBlock: OLANEW_clean_sbu_2, # of connection points: 3
#     Node 4, Type 0, BuildingBlock: OLANEW_clean_sbu_2, # of connection points: 3
#     Node 5, Type 0, BuildingBlock: OLANEW_clean_sbu_2, # of connection points: 3
#     Node 6, Type 0, BuildingBlock: OLANEW_clean_sbu_2, # of connection points: 3
#     Node 7, Type 0, BuildingBlock: OLANEW_clean_sbu_2, # of connection points: 3
#     Node 8, Type 0, BuildingBlock: OLANEW_clean_sbu_2, # of connection points: 3
#     Node 9, Type 0, BuildingBlock: OLANEW_clean_sbu_2, # of connection points: 3
#     Node 10, Type 0, BuildingBlock: OLANEW_clean_sbu_2, # of connection points: 3
#     Node 11, Type 0, BuildingBlock: OLANEW_clean_sbu_2, # of connection points: 3
#     Edge 12, Type (0, 0), BuildingBlock: FUNLAD_clean_linker_0, # of connection points: 2
#     Edge 13, Type (0, 0), BuildingBlock: FUNLAD_clean_linker_0, # of connection points: 2
#     Edge 14, Type (0, 0), BuildingBlock: FUNLAD_clean_linker_0, # of connection points: 2
#     Edge 15, Type (0, 0), BuildingBlock: FUNLAD_clean_linker_0, # of connection points: 2
#     Edge 16, Type (0, 0), BuildingBlock: FUNLAD_clean_linker_0, # of connection points: 2
#     Edge 17, Type (0, 0), BuildingBlock: FUNLAD_clean_linker_0, # of connection points: 2
#     Edge 18, Type (0, 0), BuildingBlock: FUNLAD_clean_linker_0, # of connection points: 2
#     Edge 19, Type (0, 0), BuildingBlock: FUNLAD_clean_linker_0, # of connection points: 2
#     Edge 20, Type (0, 0), BuildingBlock: FUNLAD_clean_linker_0, # of connection points: 2
#     Edge 21, Type (0, 0), BuildingBlock: FUNLAD_clean_linker_0, # of connection points: 2
#     Edge 22, Type (0, 0), BuildingBlock: FUNLAD_clean_linker_0, # of connection points: 2
#     Edge 23, Type (0, 0), BuildingBlock: FUNLAD_clean_linker_0, # of connection points: 2
#     Edge 24, Type (0, 0), BuildingBlock: FUNLAD_clean_linker_0, # of connection points: 2
#     Edge 25, Type (0, 0), BuildingBlock: FUNLAD_clean_linker_0, # of connection points: 2
#     Edge 26, Type (0, 0), BuildingBlock: FUNLAD_clean_linker_0, # of connection points: 2
#     Edge 27, Type (0, 0), BuildingBlock: FUNLAD_clean_linker_0, # of connection points: 2
#     Edge 28, Type (0, 0), BuildingBlock: FUNLAD_clean_linker_0, # of connection points: 2
#     Edge 29, Type (0, 0), BuildingBlock: FUNLAD_clean_linker_0, # of connection points: 2
# Relax obj value: 0.008
# Max RMSD: 0.027
# Mean RMSD: 0.027
data_MOF--net-qtz-f--node1-OLANEW_clean_sbu_2--edge1-FUNLAD_clean_linker_0
_symmetry_space_group_name_H-M    P1
_symmetry_Int_Tables_number       1
_symmetry_cell_setting            triclinic
loop_
_symmetry_equiv_pos_as_xyz
'x, y, z'
_cell_length_a     87.513931
_cell_length_b     87.508046
_cell_length_c     26.566624
_cell_angle_alpha  89.718679
_cell_angle_beta   90.206984
_cell_angle_gamma 119.93593
loop_
_atom_site_label
_atom_site_type_symbol
_atom_site_fract_x
_atom_site_fract_y
_atom_site_fract_z
_atom_type_partial_charge
O0 O 0.12117 0.47997 0.15227 0.0
Cd1 Cd 0.11487 0.45029 0.12975 0.0
O2 O 0.11112 0.47213 0.2294 0.0
Cd3 Cd 0.09847 0.44382 0.21515 0.0
O4 O 0.07348 0.41898 0.20997 0.0
C5 C 0.06331 0.41723 0.17345 0.0
O6 O 0.06889 0.42969 0.139 0.0
C7 C 0.11864 0.48407 0.19607 0.0
C8 C 0.1456 0.45027 0.10163 0.0
O9 O 0.13604 0.4524 0.06883 0.0
O10 O 0.14057 0.44806 0.14767 0.0
O11 O 0.62469 0.12803 0.47113 0.0
Cd12 Cd 0.6459 0.12114 0.43277 0.0
O13 O 0.61676 0.10856 0.53257 0.0
Cd14 Cd 0.63159 0.09585 0.50862 0.0
O15 O 0.63136 0.07073 0.50696 0.0
C16 C 0.626 0.06161 0.54712 0.0
O17 O 0.62219 0.0683 0.58605 0.0
C18 C 0.61563 0.12088 0.51046 0.0
C19 C 0.67687 0.15202 0.40696 0.0
O20 O 0.6633 0.14566 0.37823 0.0
O21 O 0.67591 0.14372 0.4478 0.0
O22 O 0.48454 0.64174 0.84944 0.0
Cd23 Cd 0.51517 0.66576 0.85201 0.0
O24 O 0.49179 0.62319 0.81669 0.0
Cd25 Cd 0.52039 0.63968 0.82396 0.0
O26 O 0.54533 0.64033 0.83856 0.0
C27 C 0.55115 0.63434 0.80475 0.0
O28 O 0.54274 0.62943 0.76155 0.0
C29 C 0.48003 0.62663 0.83144 0.0
C30 C 0.5188 0.69605 0.80521 0.0
O31 O 0.52036 0.68442 0.78015 0.0
O32 O 0.51561 0.69339 0.85247 0.0
O33 O 0.84005 0.4917 0.12976 0.0
Cd34 Cd 0.84913 0.52253 0.11182 0.0
O35 O 0.85051 0.49736 0.20701 0.0
Cd36 Cd 0.8646 0.52598 0.19703 0.0
O37 O 0.88924 0.55118 0.19252 0.0
C38 C 0.89786 0.55545 0.15152 0.0
O39 O 0.89102 0.54519 0.11215 0.0
C40 C 0.84218 0.48629 0.17231 0.0
C41 C 0.82075 0.52585 0.07721 0.0
O42 O 0.83074 0.52364 0.04647 0.0
O43 O 0.82425 0.52659 0.12432 0.0
O44 O 0.33013 0.84143 0.49533 0.0
Cd45 Cd 0.30494 0.84591 0.50714 0.0
O46 O 0.34601 0.86695 0.45703 0.0
Cd47 Cd 0.32879 0.87776 0.47316 0.0
O48 O 0.32818 0.90134 0.49694 0.0
C49 C 0.32686 0.91146 0.46489 0.0
O50 O 0.32436 0.9068 0.4173 0.0
C51 C 0.34409 0.85229 0.47216 0.0
C52 C 0.27526 0.8196 0.45775 0.0
O53 O 0.28572 0.8342 0.43568 0.0
O54 O 0.27875 0.81753 0.50334 0.0
O55 O 0.47694 0.34073 0.80728 0.0
Cd56 Cd 0.44665 0.319 0.78422 0.0
O57 O 0.46896 0.35068 0.87213 0.0
Cd58 Cd 0.44075 0.33666 0.85519 0.0
O59 O 0.41653 0.33782 0.84488 0.0
C60 C 0.40765 0.33736 0.88321 0.0
O61 O 0.41255 0.33485 0.92785 0.0
C62 C 0.48103 0.35077 0.84538 0.0
C63 C 0.44506 0.28914 0.74137 0.0
O64 O 0.44739 0.30223 0.71403 0.0
O65 O 0.44339 0.29012 0.78897 0.0
O66 O 0.48569 0.84517 0.55242 0.0
Cd67 Cd 0.51643 0.85356 0.5687 0.0
O68 O 0.49044 0.85416 0.47359 0.0
Cd69 Cd 0.51916 0.86842 0.48048 0.0
O70 O 0.54336 0.89404 0.47676 0.0
C71 C 0.55228 0.90172 0.51584 0.0
O72 O 0.54755 0.89347 0.55936 0.0
C73 C 0.47981 0.84662 0.50988 0.0
C74 C 0.51824 0.82628 0.61833 0.0
O75 O 0.51722 0.83829 0.64301 0.0
O76 O 0.5186 0.82728 0.57015 0.0
O77 O 0.62915 0.49216 0.90761 0.0
Cd78 Cd 0.6517 0.52283 0.92309 0.0
O79 O 0.62383 0.49769 0.83065 0.0
Cd80 Cd 0.63893 0.52638 0.838 0.0
O81 O 0.63929 0.55152 0.8339 0.0
C82 C 0.63078 0.55461 0.86713 0.0
O83 O 0.6234 0.54328 0.90422 0.0
C84 C 0.62117 0.48672 0.86577 0.0
C85 C 0.68288 0.52485 0.95725 0.0
O86 O 0.67103 0.52342 0.98823 0.0
O87 O 0.68004 0.52547 0.91012 0.0
O88 O 0.12624 0.63792 0.20662 0.0
Cd89 Cd 0.11986 0.66212 0.20921 0.0
O90 O 0.10131 0.61926 0.24378 0.0
Cd91 Cd 0.08929 0.63596 0.24344 0.0
O92 O 0.06484 0.63695 0.23862 0.0
C93 C 0.05689 0.63356 0.19649 0.0
O94 O 0.0644 0.63104 0.1571 0.0
C95 C 0.11607 0.62273 0.22514 0.0
C96 C 0.14642 0.69105 0.26043 0.0
O97 O 0.13277 0.67924 0.28367 0.0
O98 O 0.14744 0.68924 0.21292 0.0
O99 O 0.47296 0.13177 0.53857 0.0
Cd100 Cd 0.44234 0.12524 0.54109 0.0
O101 O 0.46819 0.11065 0.59237 0.0
Cd102 Cd 0.43946 0.09825 0.59052 0.0
O103 O 0.41409 0.07476 0.57435 0.0
C104 C 0.41153 0.06908 0.5294 0.0
O105 O 0.42353 0.07824 0.49526 0.0
C106 C 0.47879 0.12369 0.56535 0.0
C107 C 0.44005 0.15328 0.58274 0.0
O108 O 0.43902 0.14078 0.6105 0.0
O109 O 0.44206 0.15246 0.53525 0.0
O110 O 0.33312 0.48255 0.88855 0.0
Cd111 Cd 0.31062 0.45245 0.91121 0.0
O112 O 0.33753 0.47475 0.8138 0.0
Cd113 Cd 0.32282 0.4465 0.8301 0.0
O114 O 0.32369 0.42233 0.84468 0.0
C115 C 0.33181 0.42199 0.88406 0.0
O116 O 0.33799 0.43545 0.91503 0.0
C117 C 0.34062 0.48673 0.84577 0.0
C118 C 0.27922 0.45072 0.94114 0.0
O119 O 0.29119 0.45324 0.97334 0.0
O120 O 0.28209 0.44899 0.89481 0.0
O121 O 0.83784 0.33972 0.24532 0.0
Cd122 Cd 0.84659 0.31885 0.27657 0.0
O123 O 0.85596 0.34895 0.18063 0.0
Cd124 Cd 0.86992 0.33477 0.19933 0.0
O125 O 0.89541 0.33582 0.20276 0.0
C126 C 0.90213 0.33414 0.16227 0.0
O127 O 0.89289 0.33042 0.12048 0.0
C128 C 0.84388 0.3493 0.20619 0.0
C129 C 0.81714 0.28641 0.3007 0.0
O130 O 0.82319 0.29935 0.33154 0.0
O131 O 0.82504 0.28873 0.25844 0.0
C132 C 0.25916 0.45085 1.00815 0.0
C133 C 0.26259 0.44987 0.95698 0.0
C134 C 0.24349 0.45009 0.02316 0.0
C135 C 0.2309 0.44848 0.98716 0.0
C136 C 0.23431 0.44734 0.93608 0.0
C137 C 0.24996 0.44805 0.92112 0.0
C138 C 0.21395 0.44761 1.00082 0.0
C139 C 0.21055 0.45213 0.04616 0.0
C140 C 0.1936 0.4513 0.05892 0.0
C141 C 0.18857 0.44967 0.10968 0.0
C142 C 0.17293 0.44917 0.12352 0.0
C143 C 0.16203 0.45051 0.08687 0.0
H144 H 0.18637 0.45461 0.98286 0.0
C145 C 0.16712 0.45232 0.03608 0.0
C146 C 0.18273 0.45275 0.02221 0.0
H147 H 0.15909 0.45353 1.00694 0.0
H148 H 0.26856 0.4521 0.03679 0.0
H149 H 0.24135 0.45052 0.06301 0.0
H150 H 0.22487 0.44598 0.90745 0.0
H151 H 0.25215 0.44721 0.88138 0.0
H152 H 0.2039 0.4431 0.97172 0.0
H153 H 0.22033 0.45642 0.07588 0.0
H154 H 0.19675 0.44869 0.13881 0.0
H155 H 0.16946 0.44785 0.16302 0.0
C156 C 0.70946 0.17249 0.41403 0.0
C157 C 0.69307 0.16861 0.39371 0.0
C158 C 0.72474 0.18828 0.40169 0.0
C159 C 0.72381 0.20061 0.36955 0.0
C160 C 0.7074 0.19683 0.34986 0.0
C161 C 0.69221 0.18087 0.36118 0.0
C162 C 0.73961 0.21782 0.35781 0.0
C163 C 0.75559 0.21959 0.34991 0.0
C164 C 0.77124 0.23683 0.33743 0.0
C165 C 0.7835 0.23759 0.30216 0.0
C166 C 0.79832 0.25374 0.28969 0.0
C167 C 0.80141 0.26934 0.31345 0.0
H168 H 0.76526 0.25219 0.38931 0.0
C169 C 0.78934 0.26851 0.34961 0.0
C170 C 0.77431 0.25244 0.36118 0.0
H171 H 0.7914 0.28033 0.36858 0.0
H172 H 0.7105 0.16329 0.43927 0.0
H173 H 0.73717 0.19101 0.41824 0.0
H174 H 0.70635 0.2062 0.32533 0.0
H175 H 0.67973 0.17829 0.34527 0.0
H176 H 0.7378 0.22915 0.35273 0.0
H177 H 0.75705 0.20796 0.34966 0.0
H178 H 0.78147 0.22571 0.2837 0.0
H179 H 0.80747 0.25397 0.26193 0.0
C180 C 0.5198 0.79843 0.61727 0.0
C181 C 0.51869 0.81154 0.64466 0.0
C182 C 0.51973 0.78425 0.64204 0.0
C183 C 0.51863 0.78291 0.69492 0.0
C184 C 0.51746 0.79601 0.72215 0.0
C185 C 0.51757 0.8102 0.6974 0.0
C186 C 0.51784 0.76775 0.72292 0.0
C187 C 0.52408 0.75754 0.70477 0.0
C188 C 0.52284 0.74204 0.73205 0.0
C189 C 0.52454 0.72933 0.70437 0.0
C190 C 0.5233 0.71445 0.72807 0.0
C191 C 0.52043 0.71198 0.78022 0.0
H192 H 0.51952 0.7494 0.80774 0.0
C193 C 0.51905 0.72482 0.80819 0.0
C194 C 0.52031 0.73972 0.7845 0.0
H195 H 0.51702 0.72341 0.84853 0.0
H196 H 0.52052 0.79898 0.57656 0.0
H197 H 0.52008 0.7742 0.61936 0.0
H198 H 0.51646 0.79526 0.76283 0.0
H199 H 0.51662 0.82003 0.71966 0.0
H200 H 0.51188 0.76507 0.75998 0.0
H201 H 0.5301 0.76033 0.66776 0.0
H202 H 0.52665 0.7308 0.66405 0.0
H203 H 0.5245 0.70485 0.70541 0.0
C204 C 0.71174 0.52621 0.94097 0.0
C205 C 0.69922 0.52549 0.97532 0.0
C206 C 0.72697 0.52637 0.95796 0.0
C207 C 0.73009 0.52594 1.00989 0.0
C208 C 0.71753 0.5252 0.04409 0.0
C209 C 0.7023 0.52502 0.02709 0.0
C210 C 0.74581 0.52555 0.03009 0.0
C211 C 0.76066 0.53037 1.00356 0.0
C212 C 0.77604 0.5294 0.0238 0.0
C213 C 0.78752 0.52799 0.98978 0.0
C214 C 0.80204 0.52687 1.00705 0.0
C215 C 0.80553 0.52733 0.05886 0.0
H216 H 0.7716 0.53187 0.10316 0.0
C217 C 0.79427 0.5291 0.09296 0.0
C218 C 0.77972 0.53017 0.07569 0.0
H219 H 0.79669 0.52967 0.13311 0.0
H220 H 0.70969 0.52643 0.9008 0.0
H221 H 0.73593 0.52641 0.93003 0.0
H222 H 0.71948 0.52473 0.08425 0.0
H223 H 0.69291 0.5244 0.05459 0.0
H224 H 0.74493 0.521 0.06861 0.0
H225 H 0.76163 0.53481 0.96493 0.0
H226 H 0.78512 0.52753 0.94962 0.0
H227 H 0.81049 0.52561 0.97973 0.0
C228 C 0.17626 0.71826 0.26271 0.0
C229 C 0.16071 0.7062 0.28774 0.0
C230 C 0.18995 0.73231 0.28871 0.0
C231 C 0.18831 0.73474 0.34039 0.0
C232 C 0.17274 0.72265 0.36529 0.0
C233 C 0.15909 0.70856 0.33933 0.0
C234 C 0.20271 0.74916 0.37018 0.0
C235 C 0.21612 0.76386 0.34963 0.0
C236 C 0.23081 0.77805 0.37927 0.0
C237 C 0.24128 0.7946 0.35645 0.0
C238 C 0.25559 0.80814 0.38204 0.0
C239 C 0.25981 0.80543 0.43113 0.0
H240 H 0.22781 0.76269 0.44707 0.0
C241 C 0.24936 0.78891 0.45409 0.0
C242 C 0.23509 0.77534 0.42844 0.0
H243 H 0.25237 0.78633 0.49171 0.0
H244 H 0.178 0.71671 0.22308 0.0
H245 H 0.20187 0.7409 0.26819 0.0
H246 H 0.17113 0.72406 0.40511 0.0
H247 H 0.1473 0.69949 0.3598 0.0
H248 H 0.20178 0.74771 0.41081 0.0
H249 H 0.21623 0.76602 0.30936 0.0
H250 H 0.23842 0.79706 0.31853 0.0
H251 H 0.26339 0.82069 0.36318 0.0
C252 C 0.44226 0.25926 0.7491 0.0
C253 C 0.44451 0.27343 0.71871 0.0
C254 C 0.44203 0.24455 0.72781 0.0
C255 C 0.44394 0.24364 0.67545 0.0
C256 C 0.44629 0.25787 0.64525 0.0
C257 C 0.44651 0.27256 0.66653 0.0
C258 C 0.44424 0.2285 0.65099 0.0
C259 C 0.43739 0.21231 0.67181 0.0
C260 C 0.43803 0.19732 0.64757 0.0
C261 C 0.43641 0.18343 0.67805 0.0
C262 C 0.43702 0.16913 0.65707 0.0
C263 C 0.43913 0.1683 0.60492 0.0
H264 H 0.44051 0.20641 0.56999 0.0
C265 C 0.44043 0.18203 0.5742 0.0
C266 C 0.43983 0.19635 0.59518 0.0
H267 H 0.44188 0.18171 0.5338 0.0
H268 H 0.44085 0.25958 0.78951 0.0
H269 H 0.44075 0.2342 0.75284 0.0
H270 H 0.44793 0.25763 0.6049 0.0
H271 H 0.44834 0.28327 0.64203 0.0
H272 H 0.45035 0.23097 0.61415 0.0
H273 H 0.4313 0.20981 0.70868 0.0
H274 H 0.43484 0.18372 0.71842 0.0
H275 H 0.4359 0.15874 0.68182 0.0
C276 C 0.10992 0.59226 0.24591 0.0
C277 C 0.12091 0.60874 0.22333 0.0
C278 C 0.11367 0.57858 0.24169 0.0
C279 C 0.1286 0.58105 0.215 0.0
C280 C 0.13969 0.59756 0.19283 0.0
C281 C 0.13597 0.61132 0.1972 0.0
C282 C 0.13207 0.56625 0.20634 0.0
C283 C 0.12619 0.55226 0.23761 0.0
C284 C 0.12687 0.53593 0.22673 0.0
C285 C 0.12264 0.52355 0.26568 0.0
C286 C 0.12073 0.50701 0.25616 0.0
C287 C 0.123 0.50239 0.20729 0.0
H288 H 0.13284 0.54051 0.14667 0.0
C289 C 0.12803 0.51503 0.16865 0.0
C290 C 0.12986 0.53159 0.17813 0.0
H291 H 0.12983 0.51189 0.13052 0.0
H292 H 0.09815 0.58976 0.26607 0.0
H293 H 0.10442 0.56592 0.25789 0.0
H294 H 0.15117 0.59978 0.17159 0.0
H295 H 0.14467 0.62382 0.17915 0.0
H296 H 0.13958 0.56702 0.17309 0.0
H297 H 0.12014 0.55252 0.27299 0.0
H298 H 0.12023 0.52646 0.30346 0.0
H299 H 0.11693 0.49764 0.28691 0.0
C300 C 0.50408 0.11992 0.59321 0.0
C301 C 0.49761 0.12857 0.56259 0.0
C302 C 0.52127 0.12308 0.58722 0.0
C303 C 0.53248 0.13508 0.55053 0.0
C304 C 0.52615 0.14407 0.52087 0.0
C305 C 0.50895 0.14096 0.527 0.0
C306 C 0.55004 0.13714 0.53878 0.0
C307 C 0.55941 0.13329 0.57174 0.0
C308 C 0.5752 0.13205 0.55761 0.0
C309 C 0.57948 0.12136 0.58711 0.0
C310 C 0.593 0.11823 0.57274 0.0
C311 C 0.60273 0.12588 0.52864 0.0
H312 H 0.58314 0.14934 0.49205 0.0
C313 C 0.59915 0.13741 0.50057 0.0
C314 C 0.58554 0.1405 0.51489 0.0
H315 H 0.60653 0.14369 0.46672 0.0
H316 H 0.49569 0.11024 0.62088 0.0
H317 H 0.52534 0.11543 0.6099 0.0
H318 H 0.53442 0.15327 0.49205 0.0
H319 H 0.50438 0.14783 0.50268 0.0
H320 H 0.55482 0.14113 0.50065 0.0
H321 H 0.55462 0.12953 0.60998 0.0
H322 H 0.57189 0.11484 0.6205 0.0
H323 H 0.5955 0.10942 0.59557 0.0
C324 C 0.45638 0.59633 0.80727 0.0
C325 C 0.46122 0.61265 0.82967 0.0
C326 C 0.43893 0.58258 0.80866 0.0
C327 C 0.4258 0.58481 0.83227 0.0
C328 C 0.43058 0.60119 0.85406 0.0
C329 C 0.44808 0.61502 0.85251 0.0
C330 C 0.40748 0.56986 0.83853 0.0
C331 C 0.40022 0.55589 0.80724 0.0
C332 C 0.38328 0.53928 0.81666 0.0
C333 C 0.37633 0.52673 0.77796 0.0
C334 C 0.36195 0.50994 0.78676 0.0
C335 C 0.35414 0.50526 0.83463 0.0
H336 H 0.37992 0.54391 0.89532 0.0
C337 C 0.36048 0.51806 0.87277 0.0
C338 C 0.37494 0.53486 0.86404 0.0
H339 H 0.35479 0.51487 0.91014 0.0
H340 H 0.46615 0.59399 0.78957 0.0
H341 H 0.43601 0.57003 0.79289 0.0
H342 H 0.42079 0.60323 0.87297 0.0
H343 H 0.45137 0.6274 0.87033 0.0
H344 H 0.40002 0.57043 0.87024 0.0
H345 H 0.40728 0.55634 0.77324 0.0
H346 H 0.38243 0.5297 0.7411 0.0
H347 H 0.35735 0.50045 0.7564 0.0
C348 C 0.82699 0.36488 0.22491 0.0
C349 C 0.838 0.36201 0.19257 0.0
C350 C 0.82331 0.37845 0.21512 0.0
C351 C 0.83062 0.38946 0.17277 0.0
C352 C 0.84067 0.38585 0.1389 0.0
C353 C 0.84441 0.37237 0.14876 0.0
C354 C 0.82881 0.40527 0.16368 0.0
C355 C 0.82676 0.41445 0.20112 0.0
C356 C 0.82869 0.43219 0.19364 0.0
C357 C 0.83453 0.44397 0.23425 0.0
C358 C 0.83833 0.46137 0.22776 0.0
C359 C 0.83618 0.46735 0.18049 0.0
H360 H 0.82049 0.42901 0.11521 0.0
C361 C 0.82933 0.45528 0.1405 0.0
C362 C 0.82559 0.43787 0.14698 0.0
H363 H 0.82731 0.45939 0.10374 0.0
H364 H 0.82165 0.35701 0.25868 0.0
H365 H 0.81496 0.38039 0.24118 0.0
H366 H 0.84629 0.39397 0.10566 0.0
H367 H 0.85278 0.37042 0.12273 0.0
H368 H 0.83143 0.41065 0.12576 0.0
H369 H 0.82575 0.40989 0.23969 0.0
H370 H 0.83684 0.43992 0.27077 0.0
H371 H 0.84342 0.47025 0.25954 0.0
C372 C 0.45423 0.84192 0.45615 0.0
C373 C 0.46087 0.84091 0.50355 0.0
C374 C 0.43695 0.83865 0.45111 0.0
C375 C 0.42598 0.83451 0.49357 0.0
C376 C 0.43227 0.83242 0.54033 0.0
C377 C 0.44953 0.83562 0.54535 0.0
C378 C 0.40831 0.83308 0.49113 0.0
C379 C 0.40411 0.84166 0.45631 0.0
C380 C 0.38786 0.84306 0.45817 0.0
C381 C 0.38803 0.8574 0.43374 0.0
C382 C 0.37365 0.86011 0.43727 0.0
C383 C 0.35863 0.84843 0.465 0.0
H384 H 0.37163 0.81937 0.5022 0.0
C385 C 0.35808 0.83359 0.48761 0.0
C386 C 0.37253 0.83091 0.48422 0.0
H387 H 0.34663 0.82424 0.50884 0.0
H388 H 0.46251 0.84565 0.42298 0.0
H389 H 0.43239 0.83964 0.41399 0.0
H390 H 0.42404 0.829 0.57356 0.0
H391 H 0.45417 0.83457 0.58236 0.0
H392 H 0.39935 0.82641 0.52216 0.0
H393 H 0.41376 0.84959 0.42794 0.0
H394 H 0.39955 0.86687 0.41295 0.0
H395 H 0.37449 0.8716 0.41898 0.0
C396 C 0.6028 0.4559 0.89941 0.0
C397 C 0.60787 0.46784 0.85888 0.0
C398 C 0.58887 0.43858 0.89415 0.0
C399 C 0.57969 0.43288 0.84821 0.0
C400 C 0.58545 0.44452 0.80702 0.0
C401 C 0.59931 0.46182 0.8123 0.0
C402 C 0.56364 0.41527 0.84211 0.0
C403 C 0.55267 0.4064 0.88048 0.0
C404 C 0.53487 0.39076 0.87297 0.0
C405 C 0.52163 0.38751 0.90806 0.0
C406 C 0.50426 0.37413 0.89994 0.0
C407 C 0.49977 0.36353 0.85673 0.0
H408 H 0.54055 0.38122 0.8041 0.0
C409 C 0.51321 0.36608 0.82306 0.0
C410 C 0.5306 0.37954 0.83108 0.0
H411 H 0.51024 0.35801 0.78969 0.0
H412 H 0.60927 0.46005 0.93565 0.0
H413 H 0.58525 0.42982 0.9263 0.0
H414 H 0.57877 0.44043 0.77103 0.0
H415 H 0.60297 0.4706 0.78012 0.0
H416 H 0.55972 0.41059 0.80387 0.0
H417 H 0.55584 0.41193 0.9181 0.0
H418 H 0.52457 0.39579 0.94096 0.0
H419 H 0.49429 0.37243 0.92697 0.0
C420 C 0.03332 0.40153 0.13409 0.0
C421 C 0.04473 0.40269 0.1731 0.0
C422 C 0.01531 0.38924 0.13645 0.0
C423 C 0.00828 0.37767 0.17784 0.0
C424 C 0.0198 0.37845 0.21599 0.0
C425 C 0.03784 0.39076 0.2136 0.0
C426 C -0.01107 0.36598 0.18489 0.0
C427 C 0.97713 0.36097 0.14694 0.0
C428 C 0.95766 0.35192 0.15413 0.0
C429 C 0.94671 0.34441 0.11201 0.0
C430 C 0.92855 0.33787 0.11523 0.0
C431 C 0.92089 0.33876 0.16072 0.0
H432 H 0.95774 0.35812 0.2335 0.0
C433 C 0.93169 0.34556 0.20349 0.0
C434 C 0.94987 0.35215 0.20026 0.0
H435 H 0.92622 0.3465 0.2391 0.0
H436 H 0.03817 0.41056 0.10243 0.0
H437 H 0.00694 0.38951 0.10684 0.0
H438 H 0.01477 0.36981 0.24847 0.0
H439 H 0.04625 0.3913 0.24435 0.0
H440 H -0.01564 0.36169 0.22303 0.0
H441 H -0.01814 0.36391 0.10843 0.0
H442 H 0.9523 0.34409 0.07596 0.0
H443 H 0.92063 0.33268 0.08155 0.0
C444 C 0.62481 0.03517 0.50623 0.0
C445 C 0.62227 0.04313 0.54877 0.0
C446 C 0.61958 0.0172 0.50672 0.0
C447 C 0.61155 0.00679 0.54977 0.0
C448 C 0.60987 0.01503 0.59295 0.0
C449 C 0.61512 0.03294 0.59248 0.0
C450 C 0.60407 -0.0127 0.55125 0.0
C451 C 0.60006 0.97706 0.50996 0.0
C452 C 0.58957 0.95741 0.51155 0.0
C453 C 0.58068 0.94841 0.46771 0.0
C454 C 0.56915 0.9302 0.46853 0.0
C455 C 0.56624 0.92052 0.51332 0.0
H456 H 0.59467 0.95372 0.58973 0.0
C457 C 0.57592 0.9293 0.55649 0.0
C458 C 0.58755 0.94752 0.5556 0.0
H459 H 0.57421 0.92218 0.5914 0.0
H460 H 0.63049 0.04271 0.47214 0.0
H461 H 0.62173 0.01162 0.47312 0.0
H462 H 0.60394 0.00746 0.62687 0.0
H463 H 0.61311 0.03865 0.62611 0.0
H464 H 0.60015 0.9811 0.58798 0.0
H465 H 0.60287 0.98314 0.47297 0.0
H466 H 0.58213 0.95558 0.43303 0.0
H467 H 0.56203 0.92385 0.43443 0.0
C468 C 0.57094 0.62267 0.7797 0.0
C469 C 0.56556 0.63059 0.81612 0.0
C470 C 0.58279 0.61691 0.79205 0.0
C471 C 0.58968 0.61909 0.84117 0.0
C472 C 0.58484 0.62767 0.87695 0.0
C473 C 0.57297 0.63342 0.86458 0.0
C474 C 0.60025 0.6109 0.85787 0.0
C475 C 0.60857 0.60551 0.82603 0.0
C476 C 0.61613 0.59424 0.84133 0.0
C477 C 0.62759 0.59245 0.80807 0.0
C478 C 0.63307 0.58018 0.81755 0.0
C479 C 0.6271 0.5693 0.86046 0.0
H480 H 0.60162 0.58438 0.91157 0.0
C481 C 0.61625 0.57159 0.89486 0.0
C482 C 0.61075 0.58384 0.88538 0.0
H483 H 0.61137 0.56341 0.92825 0.0
H484 H 0.56547 0.62024 0.74204 0.0
H485 H 0.58573 0.61 0.76349 0.0
H486 H 0.58983 0.62945 0.91512 0.0
H487 H 0.56912 0.63949 0.89356 0.0
H488 H 0.60069 0.60885 0.89804 0.0
H489 H 0.60955 0.60903 0.78648 0.0
H490 H 0.63189 0.60019 0.77374 0.0
H491 H 0.64145 0.57878 0.79027 0.0
C492 C 0.9245 0.57994 0.19375 0.0
C493 C 0.91626 0.57034 0.14998 0.0
C494 C 0.9425 0.59243 0.19377 0.0
C495 C 0.95267 0.59551 0.14997 0.0
C496 C 0.94416 0.58672 0.10552 0.0
C497 C 0.92619 0.57423 0.10551 0.0
C498 C 0.9722 0.60699 0.14939 0.0
C499 C -0.0176 0.61007 0.19057 0.0
C500 C 0.00198 0.61848 0.18928 0.0
C501 C 0.01139 0.62439 0.23469 0.0
C502 C 0.02943 0.63013 0.23668 0.0
C503 C 0.03847 0.62997 0.19326 0.0
H504 H 0.00457 0.61429 0.10971 0.0
C505 C 0.02926 0.62479 0.14737 0.0
C506 C 0.01123 0.61906 0.14535 0.0
H507 H 0.03581 0.62448 0.1132 0.0
H508 H 0.91717 0.57746 0.22849 0.0
H509 H 0.94836 0.59941 0.22835 0.0
H510 H 0.95159 0.58897 0.07106 0.0
H511 H 0.92023 0.56721 0.07098 0.0
H512 H 0.97833 0.61175 0.11293 0.0
H513 H 0.97622 0.60532 0.22699 0.0
H514 H 0.00464 0.62404 0.26917 0.0
H515 H 0.03612 0.63405 0.27267 0.0
C516 C 0.38463 0.04063 0.55418 0.0
C517 C 0.39654 0.05143 0.51687 0.0
C518 C 0.37181 0.0232 0.54338 0.0
C519 C 0.37074 0.01617 0.49503 0.0
C520 C 0.38199 0.02733 0.45719 0.0
C521 C 0.39476 0.04472 0.46794 0.0
C522 C 0.3588 -0.00278 0.48263 0.0
C523 C 0.35194 0.98418 0.51733 0.0
C524 C 0.34317 0.96509 0.50435 0.0
C525 C 0.34277 0.95322 0.54083 0.0
C526 C 0.33667 0.93558 0.52874 0.0
C527 C 0.33078 0.92936 0.47978 0.0
H528 H 0.33541 0.96701 0.42764 0.0
C529 C 0.33007 0.94092 0.44415 0.0
C530 C 0.33609 0.95857 0.45632 0.0
H531 H 0.32531 0.93648 0.40633 0.0
H532 H 0.38549 0.04547 0.59212 0.0
H533 H 0.36299 0.01532 0.57326 0.0
H534 H 0.38137 0.02241 0.41945 0.0
H535 H 0.4036 0.05271 0.43814 0.0
H536 H 0.35732 -0.00615 0.443 0.0
H537 H 0.35451 -0.01254 0.55693 0.0
H538 H 0.34788 0.95776 0.57834 0.0
H539 H 0.33726 0.92701 0.55729 0.0
C540 C 0.38415 0.34208 0.92118 0.0
C541 C 0.39354 0.34196 0.87851 0.0
C542 C 0.37238 0.34848 0.91809 0.0
C543 C 0.36988 0.3551 0.87224 0.0
C544 C 0.37848 0.35398 0.82905 0.0
C545 C 0.3902 0.34753 0.83211 0.0
C546 C 0.35909 0.3639 0.86813 0.0
C547 C 0.35602 0.37173 0.90737 0.0
C548 C 0.34805 0.38324 0.90225 0.0
C549 C 0.35168 0.3959 0.93962 0.0
C550 C 0.34587 0.40807 0.93452 0.0
C551 C 0.33615 0.4078 0.89199 0.0
H552 H 0.33387 0.37242 0.83211 0.0
C553 C 0.33168 0.39455 0.85579 0.0
C554 C 0.33753 0.38236 0.86088 0.0
H555 H 0.32403 0.39385 0.82285 0.0
H556 H 0.38619 0.33762 0.95737 0.0
H557 H 0.36548 0.34839 0.95188 0.0
H558 H 0.37665 0.35874 0.79308 0.0
H559 H 0.3971 0.34749 0.79838 0.0
H560 H 0.35526 0.36556 0.83052 0.0
H561 H 0.36117 0.37128 0.94423 0.0
H562 H 0.35957 0.39679 0.9722 0.0
H563 H 0.34943 0.418 0.96336 0.0
loop_
_geom_bond_atom_site_label_1
_geom_bond_atom_site_label_2
_geom_bond_distance
_geom_bond_site_symmetry_2
_ccdc_geom_bond_type
O0 Cd1 2.300 . S
O0 C7 1.275 . S
Cd1 O0 2.300 . S
Cd1 O9 2.381 . S
Cd1 O10 2.378 . S
O2 Cd3 2.385 . S
O2 C7 1.255 . S
Cd3 O2 2.385 . S
Cd3 O4 2.317 . S
O4 Cd3 2.317 . S
O4 C5 1.232 . S
C5 O4 1.232 . S
C5 O6 1.218 . S
O6 C5 1.218 . S
C7 O0 1.275 . S
C7 O2 1.255 . S
C8 O9 1.258 . S
C8 O10 1.256 . S
O9 Cd1 2.381 . S
O9 C8 1.258 . S
O10 Cd1 2.378 . S
O10 C8 1.256 . S
O11 Cd12 2.300 . S
O11 C18 1.275 . S
Cd12 O11 2.300 . S
Cd12 O20 2.381 . S
Cd12 O21 2.378 . S
O13 Cd14 2.385 . S
O13 C18 1.255 . S
Cd14 O13 2.385 . S
Cd14 O15 2.317 . S
O15 Cd14 2.317 . S
O15 C16 1.232 . S
C16 O15 1.232 . S
C16 O17 1.218 . S
O17 C16 1.218 . S
C18 O11 1.275 . S
C18 O13 1.255 . S
C19 O20 1.258 . S
C19 O21 1.256 . S
O20 Cd12 2.381 . S
O20 C19 1.258 . S
O21 Cd12 2.378 . S
O21 C19 1.256 . S
O22 Cd23 2.300 . S
O22 C29 1.275 . S
Cd23 O22 2.300 . S
Cd23 O31 2.381 . S
Cd23 O32 2.378 . S
O24 Cd25 2.385 . S
O24 C29 1.255 . S
Cd25 O24 2.385 . S
Cd25 O26 2.317 . S
O26 Cd25 2.317 . S
O26 C27 1.232 . S
C27 O26 1.232 . S
C27 O28 1.218 . S
O28 C27 1.218 . S
C29 O22 1.275 . S
C29 O24 1.255 . S
C30 O31 1.258 . S
C30 O32 1.256 . S
O31 Cd23 2.381 . S
O31 C30 1.258 . S
O32 Cd23 2.378 . S
O32 C30 1.256 . S
O33 Cd34 2.300 . S
O33 C40 1.275 . S
Cd34 O33 2.300 . S
Cd34 O42 2.381 . S
Cd34 O43 2.378 . S
O35 Cd36 2.385 . S
O35 C40 1.255 . S
Cd36 O35 2.385 . S
Cd36 O37 2.317 . S
O37 Cd36 2.317 . S
O37 C38 1.232 . S
C38 O37 1.232 . S
C38 O39 1.218 . S
O39 C38 1.218 . S
C40 O33 1.275 . S
C40 O35 1.255 . S
C41 O42 1.258 . S
C41 O43 1.256 . S
O42 Cd34 2.381 . S
O42 C41 1.258 . S
O43 Cd34 2.378 . S
O43 C41 1.256 . S
O44 Cd45 2.300 . S
O44 C51 1.275 . S
Cd45 O44 2.300 . S
Cd45 O53 2.381 . S
Cd45 O54 2.378 . S
O46 Cd47 2.385 . S
O46 C51 1.255 . S
Cd47 O46 2.385 . S
Cd47 O48 2.317 . S
O48 Cd47 2.317 . S
O48 C49 1.232 . S
C49 O48 1.232 . S
C49 O50 1.218 . S
O50 C49 1.218 . S
C51 O44 1.275 . S
C51 O46 1.255 . S
C52 O53 1.258 . S
C52 O54 1.256 . S
O53 Cd45 2.381 . S
O53 C52 1.258 . S
O54 Cd45 2.378 . S
O54 C52 1.256 . S
O55 Cd56 2.300 . S
O55 C62 1.275 . S
Cd56 O55 2.300 . S
Cd56 O64 2.381 . S
Cd56 O65 2.378 . S
O57 Cd58 2.385 . S
O57 C62 1.255 . S
Cd58 O57 2.385 . S
Cd58 O59 2.317 . S
O59 Cd58 2.317 . S
O59 C60 1.232 . S
C60 O59 1.232 . S
C60 O61 1.218 . S
O61 C60 1.218 . S
C62 O55 1.275 . S
C62 O57 1.255 . S
C63 O64 1.258 . S
C63 O65 1.256 . S
O64 Cd56 2.381 . S
O64 C63 1.258 . S
O65 Cd56 2.378 . S
O65 C63 1.256 . S
O66 Cd67 2.300 . S
O66 C73 1.275 . S
Cd67 O66 2.300 . S
Cd67 O75 2.381 . S
Cd67 O76 2.378 . S
O68 Cd69 2.385 . S
O68 C73 1.255 . S
Cd69 O68 2.385 . S
Cd69 O70 2.317 . S
O70 Cd69 2.317 . S
O70 C71 1.232 . S
C71 O70 1.232 . S
C71 O72 1.218 . S
O72 C71 1.218 . S
C73 O66 1.275 . S
C73 O68 1.255 . S
C74 O75 1.258 . S
C74 O76 1.256 . S
O75 Cd67 2.381 . S
O75 C74 1.258 . S
O76 Cd67 2.378 . S
O76 C74 1.256 . S
O77 Cd78 2.300 . S
O77 C84 1.275 . S
Cd78 O77 2.300 . S
Cd78 O86 2.381 . S
Cd78 O87 2.378 . S
O79 Cd80 2.385 . S
O79 C84 1.255 . S
Cd80 O79 2.385 . S
Cd80 O81 2.317 . S
O81 Cd80 2.317 . S
O81 C82 1.232 . S
C82 O81 1.232 . S
C82 O83 1.218 . S
O83 C82 1.218 . S
C84 O77 1.275 . S
C84 O79 1.255 . S
C85 O86 1.258 . S
C85 O87 1.256 . S
O86 Cd78 2.381 . S
O86 C85 1.258 . S
O87 Cd78 2.378 . S
O87 C85 1.256 . S
O88 Cd89 2.300 . S
O88 C95 1.275 . S
Cd89 O88 2.300 . S
Cd89 O97 2.381 . S
Cd89 O98 2.378 . S
O90 Cd91 2.385 . S
O90 C95 1.255 . S
Cd91 O90 2.385 . S
Cd91 O92 2.317 . S
O92 Cd91 2.317 . S
O92 C93 1.232 . S
C93 O92 1.232 . S
C93 O94 1.218 . S
O94 C93 1.218 . S
C95 O88 1.275 . S
C95 O90 1.255 . S
C96 O97 1.258 . S
C96 O98 1.256 . S
O97 Cd89 2.381 . S
O97 C96 1.258 . S
O98 Cd89 2.378 . S
O98 C96 1.256 . S
O99 Cd100 2.300 . S
O99 C106 1.275 . S
Cd100 O99 2.300 . S
Cd100 O108 2.381 . S
Cd100 O109 2.378 . S
O101 Cd102 2.385 . S
O101 C106 1.255 . S
Cd102 O101 2.385 . S
Cd102 O103 2.317 . S
O103 Cd102 2.317 . S
O103 C104 1.232 . S
C104 O103 1.232 . S
C104 O105 1.218 . S
O105 C104 1.218 . S
C106 O99 1.275 . S
C106 O101 1.255 . S
C107 O108 1.258 . S
C107 O109 1.256 . S
O108 Cd100 2.381 . S
O108 C107 1.258 . S
O109 Cd100 2.378 . S
O109 C107 1.256 . S
O110 Cd111 2.300 . S
O110 C117 1.275 . S
Cd111 O110 2.300 . S
Cd111 O119 2.381 . S
Cd111 O120 2.378 . S
O112 Cd113 2.385 . S
O112 C117 1.255 . S
Cd113 O112 2.385 . S
Cd113 O114 2.317 . S
O114 Cd113 2.317 . S
O114 C115 1.232 . S
C115 O114 1.232 . S
C115 O116 1.218 . S
O116 C115 1.218 . S
C117 O110 1.275 . S
C117 O112 1.255 . S
C118 O119 1.258 . S
C118 O120 1.256 . S
O119 Cd111 2.381 . S
O119 C118 1.258 . S
O120 Cd111 2.378 . S
O120 C118 1.256 . S
O121 Cd122 2.300 . S
O121 C128 1.275 . S
Cd122 O121 2.300 . S
Cd122 O130 2.381 . S
Cd122 O131 2.378 . S
O123 Cd124 2.385 . S
O123 C128 1.255 . S
Cd124 O123 2.385 . S
Cd124 O125 2.317 . S
O125 Cd124 2.317 . S
O125 C126 1.232 . S
C126 O125 1.232 . S
C126 O127 1.218 . S
O127 C126 1.218 . S
C128 O121 1.275 . S
C128 O123 1.255 . S
C129 O130 1.258 . S
C129 O131 1.256 . S
O130 Cd122 2.381 . S
O130 C129 1.258 . S
O131 Cd122 2.378 . S
O131 C129 1.256 . S
C132 C133 1.386 . S
C132 C134 1.383 . S
C132 H148 0.951 . S
C133 C132 1.386 . S
C133 C137 1.383 . S
C134 C132 1.383 . S
C134 C135 1.402 . S
C134 H149 0.945 1_556 S
C135 C134 1.402 . S
C135 C136 1.375 . S
C135 C138 1.481 . S
C136 C135 1.375 . S
C136 C137 1.367 . S
C136 H150 0.951 . S
C137 C133 1.383 . S
C137 C136 1.367 . S
C137 H151 0.950 . S
C138 C135 1.481 . S
C138 C139 1.297 1_556 S
C138 H152 0.950 . S
C139 C138 1.297 1_554 S
C139 C140 1.479 . S
C139 H153 0.950 . S
C140 C139 1.479 . S
C140 C141 1.375 . S
C140 C146 1.404 . S
C141 C140 1.375 . S
C141 C142 1.369 . S
C141 H154 0.950 . S
C142 C141 1.369 . S
C142 C143 1.392 . S
C142 H155 0.951 . S
C143 C142 1.392 . S
C143 C145 1.384 . S
H144 C146 0.949 . S
C145 C143 1.384 . S
C145 C146 1.385 . S
C145 H147 0.950 . S
C146 C140 1.404 . S
C146 H144 0.949 . S
C146 C145 1.385 . S
H147 C145 0.950 . S
H148 C132 0.951 . S
H149 C134 0.945 1_554 S
H150 C136 0.951 . S
H151 C137 0.950 . S
H152 C138 0.950 . S
H153 C139 0.950 . S
H154 C141 0.950 . S
H155 C142 0.951 . S
C156 C157 1.386 . S
C156 C158 1.383 . S
C156 H172 0.951 . S
C157 C156 1.386 . S
C157 C161 1.383 . S
C158 C156 1.383 . S
C158 C159 1.402 . S
C158 H173 0.951 . S
C159 C158 1.402 . S
C159 C160 1.375 . S
C159 C162 1.481 . S
C160 C159 1.375 . S
C160 C161 1.367 . S
C160 H174 0.951 . S
C161 C157 1.383 . S
C161 C160 1.367 . S
C161 H175 0.950 . S
C162 C159 1.481 . S
C162 C163 1.297 . S
C162 H176 0.950 . S
C163 C162 1.297 . S
C163 C164 1.479 . S
C163 H177 0.950 . S
C164 C163 1.479 . S
C164 C165 1.375 . S
C164 C170 1.404 . S
C165 C164 1.375 . S
C165 C166 1.369 . S
C165 H178 0.950 . S
C166 C165 1.369 . S
C166 C167 1.392 . S
C166 H179 0.951 . S
C167 C166 1.392 . S
C167 C169 1.384 . S
H168 C170 0.949 . S
C169 C167 1.384 . S
C169 C170 1.385 . S
C169 H171 0.950 . S
C170 C164 1.404 . S
C170 H168 0.949 . S
C170 C169 1.385 . S
H171 C169 0.950 . S
H172 C156 0.951 . S
H173 C158 0.951 . S
H174 C160 0.951 . S
H175 C161 0.950 . S
H176 C162 0.950 . S
H177 C163 0.950 . S
H178 C165 0.950 . S
H179 C166 0.951 . S
C180 C181 1.386 . S
C180 C182 1.383 . S
C180 H196 0.951 . S
C181 C180 1.386 . S
C181 C185 1.383 . S
C182 C180 1.383 . S
C182 C183 1.402 . S
C182 H197 0.951 . S
C183 C182 1.402 . S
C183 C184 1.375 . S
C183 C186 1.481 . S
C184 C183 1.375 . S
C184 C185 1.367 . S
C184 H198 0.951 . S
C185 C181 1.383 . S
C185 C184 1.367 . S
C185 H199 0.950 . S
C186 C183 1.481 . S
C186 C187 1.297 . S
C186 H200 0.950 . S
C187 C186 1.297 . S
C187 C188 1.479 . S
C187 H201 0.950 . S
C188 C187 1.479 . S
C188 C189 1.375 . S
C188 C194 1.404 . S
C189 C188 1.375 . S
C189 C190 1.369 . S
C189 H202 0.950 . S
C190 C189 1.369 . S
C190 C191 1.392 . S
C190 H203 0.951 . S
C191 C190 1.392 . S
C191 C193 1.384 . S
H192 C194 0.949 . S
C193 C191 1.384 . S
C193 C194 1.385 . S
C193 H195 0.950 . S
C194 C188 1.404 . S
C194 H192 0.949 . S
C194 C193 1.385 . S
H195 C193 0.950 . S
H196 C180 0.951 . S
H197 C182 0.951 . S
H198 C184 0.951 . S
H199 C185 0.950 . S
H200 C186 0.950 . S
H201 C187 0.950 . S
H202 C189 0.950 . S
H203 C190 0.951 . S
C204 C205 1.386 . S
C204 C206 1.383 . S
C204 H220 0.951 . S
C205 C204 1.386 . S
C205 C209 1.383 . S
C206 C204 1.383 . S
C206 C207 1.402 . S
C206 H221 0.951 . S
C207 C206 1.402 . S
C207 C208 1.375 . S
C207 C210 1.481 1_556 S
C208 C207 1.375 . S
C208 C209 1.367 . S
C208 H222 0.951 1_556 S
C209 C205 1.383 . S
C209 C208 1.367 . S
C209 H223 0.950 . S
C210 C207 1.481 1_554 S
C210 C211 1.297 1_554 S
C210 H224 0.950 . S
C211 C210 1.297 1_556 S
C211 C212 1.479 1_556 S
C211 H225 0.950 . S
C212 C211 1.479 1_554 S
C212 C213 1.375 . S
C212 C218 1.404 . S
C213 C212 1.375 . S
C213 C214 1.369 . S
C213 H226 0.950 1_554 S
C214 C213 1.369 . S
C214 C215 1.392 . S
C214 H227 0.951 . S
C215 C214 1.392 . S
C215 C217 1.384 . S
H216 C218 0.949 . S
C217 C215 1.384 . S
C217 C218 1.385 . S
C217 H219 0.950 . S
C218 C212 1.404 . S
C218 H216 0.949 . S
C218 C217 1.385 . S
H219 C217 0.950 . S
H220 C204 0.951 . S
H221 C206 0.951 . S
H222 C208 0.951 1_554 S
H223 C209 0.950 . S
H224 C210 0.950 . S
H225 C211 0.950 . S
H226 C213 0.950 1_556 S
H227 C214 0.951 . S
C228 C229 1.386 . S
C228 C230 1.383 . S
C228 H244 0.951 . S
C229 C228 1.386 . S
C229 C233 1.383 . S
C230 C228 1.383 . S
C230 C231 1.402 . S
C230 H245 0.951 . S
C231 C230 1.402 . S
C231 C232 1.375 . S
C231 C234 1.481 . S
C232 C231 1.375 . S
C232 C233 1.367 . S
C232 H246 0.951 . S
C233 C229 1.383 . S
C233 C232 1.367 . S
C233 H247 0.950 . S
C234 C231 1.481 . S
C234 C235 1.297 . S
C234 H248 0.950 . S
C235 C234 1.297 . S
C235 C236 1.479 . S
C235 H249 0.950 . S
C236 C235 1.479 . S
C236 C237 1.375 . S
C236 C242 1.404 . S
C237 C236 1.375 . S
C237 C238 1.369 . S
C237 H250 0.950 . S
C238 C237 1.369 . S
C238 C239 1.392 . S
C238 H251 0.951 . S
C239 C238 1.392 . S
C239 C241 1.384 . S
H240 C242 0.949 . S
C241 C239 1.384 . S
C241 C242 1.385 . S
C241 H243 0.950 . S
C242 C236 1.404 . S
C242 H240 0.949 . S
C242 C241 1.385 . S
H243 C241 0.950 . S
H244 C228 0.951 . S
H245 C230 0.951 . S
H246 C232 0.951 . S
H247 C233 0.950 . S
H248 C234 0.950 . S
H249 C235 0.950 . S
H250 C237 0.950 . S
H251 C238 0.951 . S
C252 C253 1.386 . S
C252 C254 1.383 . S
C252 H268 0.951 . S
C253 C252 1.386 . S
C253 C257 1.383 . S
C254 C252 1.383 . S
C254 C255 1.402 . S
C254 H269 0.951 . S
C255 C254 1.402 . S
C255 C256 1.375 . S
C255 C258 1.481 . S
C256 C255 1.375 . S
C256 C257 1.367 . S
C256 H270 0.951 . S
C257 C253 1.383 . S
C257 C256 1.367 . S
C257 H271 0.950 . S
C258 C255 1.481 . S
C258 C259 1.297 . S
C258 H272 0.950 . S
C259 C258 1.297 . S
C259 C260 1.479 . S
C259 H273 0.950 . S
C260 C259 1.479 . S
C260 C261 1.375 . S
C260 C266 1.404 . S
C261 C260 1.375 . S
C261 C262 1.369 . S
C261 H274 0.950 . S
C262 C261 1.369 . S
C262 C263 1.392 . S
C262 H275 0.951 . S
C263 C262 1.392 . S
C263 C265 1.384 . S
H264 C266 0.949 . S
C265 C263 1.384 . S
C265 C266 1.385 . S
C265 H267 0.950 . S
C266 C260 1.404 . S
C266 H264 0.949 . S
C266 C265 1.385 . S
H267 C265 0.950 . S
H268 C252 0.951 . S
H269 C254 0.951 . S
H270 C256 0.951 . S
H271 C257 0.950 . S
H272 C258 0.950 . S
H273 C259 0.950 . S
H274 C261 0.950 . S
H275 C262 0.951 . S
C276 C277 1.386 . S
C276 C278 1.383 . S
C276 H292 0.951 . S
C277 C276 1.386 . S
C277 C281 1.383 . S
C278 C276 1.383 . S
C278 C279 1.402 . S
C278 H293 0.951 . S
C279 C278 1.402 . S
C279 C280 1.375 . S
C279 C282 1.481 . S
C280 C279 1.375 . S
C280 C281 1.367 . S
C280 H294 0.951 . S
C281 C277 1.383 . S
C281 C280 1.367 . S
C281 H295 0.950 . S
C282 C279 1.481 . S
C282 C283 1.297 . S
C282 H296 0.950 . S
C283 C282 1.297 . S
C283 C284 1.479 . S
C283 H297 0.950 . S
C284 C283 1.479 . S
C284 C285 1.375 . S
C284 C290 1.404 . S
C285 C284 1.375 . S
C285 C286 1.369 . S
C285 H298 0.950 . S
C286 C285 1.369 . S
C286 C287 1.392 . S
C286 H299 0.951 . S
C287 C286 1.392 . S
C287 C289 1.384 . S
H288 C290 0.949 . S
C289 C287 1.384 . S
C289 C290 1.385 . S
C289 H291 0.950 . S
C290 C284 1.404 . S
C290 H288 0.949 . S
C290 C289 1.385 . S
H291 C289 0.950 . S
H292 C276 0.951 . S
H293 C278 0.951 . S
H294 C280 0.951 . S
H295 C281 0.950 . S
H296 C282 0.950 . S
H297 C283 0.950 . S
H298 C285 0.950 . S
H299 C286 0.951 . S
C300 C301 1.386 . S
C300 C302 1.383 . S
C300 H316 0.951 . S
C301 C300 1.386 . S
C301 C305 1.383 . S
C302 C300 1.383 . S
C302 C303 1.402 . S
C302 H317 0.951 . S
C303 C302 1.402 . S
C303 C304 1.375 . S
C303 C306 1.481 . S
C304 C303 1.375 . S
C304 C305 1.367 . S
C304 H318 0.951 . S
C305 C301 1.383 . S
C305 C304 1.367 . S
C305 H319 0.950 . S
C306 C303 1.481 . S
C306 C307 1.297 . S
C306 H320 0.950 . S
C307 C306 1.297 . S
C307 C308 1.479 . S
C307 H321 0.950 . S
C308 C307 1.479 . S
C308 C309 1.375 . S
C308 C314 1.404 . S
C309 C308 1.375 . S
C309 C310 1.369 . S
C309 H322 0.950 . S
C310 C309 1.369 . S
C310 C311 1.392 . S
C310 H323 0.951 . S
C311 C310 1.392 . S
C311 C313 1.384 . S
H312 C314 0.949 . S
C313 C311 1.384 . S
C313 C314 1.385 . S
C313 H315 0.950 . S
C314 C308 1.404 . S
C314 H312 0.949 . S
C314 C313 1.385 . S
H315 C313 0.950 . S
H316 C300 0.951 . S
H317 C302 0.951 . S
H318 C304 0.951 . S
H319 C305 0.950 . S
H320 C306 0.950 . S
H321 C307 0.950 . S
H322 C309 0.950 . S
H323 C310 0.951 . S
C324 C325 1.386 . S
C324 C326 1.383 . S
C324 H340 0.951 . S
C325 C324 1.386 . S
C325 C329 1.383 . S
C326 C324 1.383 . S
C326 C327 1.402 . S
C326 H341 0.951 . S
C327 C326 1.402 . S
C327 C328 1.375 . S
C327 C330 1.481 . S
C328 C327 1.375 . S
C328 C329 1.367 . S
C328 H342 0.951 . S
C329 C325 1.383 . S
C329 C328 1.367 . S
C329 H343 0.950 . S
C330 C327 1.481 . S
C330 C331 1.297 . S
C330 H344 0.950 . S
C331 C330 1.297 . S
C331 C332 1.479 . S
C331 H345 0.950 . S
C332 C331 1.479 . S
C332 C333 1.375 . S
C332 C338 1.404 . S
C333 C332 1.375 . S
C333 C334 1.369 . S
C333 H346 0.950 . S
C334 C333 1.369 . S
C334 C335 1.392 . S
C334 H347 0.951 . S
C335 C334 1.392 . S
C335 C337 1.384 . S
H336 C338 0.949 . S
C337 C335 1.384 . S
C337 C338 1.385 . S
C337 H339 0.950 . S
C338 C332 1.404 . S
C338 H336 0.949 . S
C338 C337 1.385 . S
H339 C337 0.950 . S
H340 C324 0.951 . S
H341 C326 0.951 . S
H342 C328 0.951 . S
H343 C329 0.950 . S
H344 C330 0.950 . S
H345 C331 0.950 . S
H346 C333 0.950 . S
H347 C334 0.951 . S
C348 C349 1.386 . S
C348 C350 1.383 . S
C348 H364 0.951 . S
C349 C348 1.386 . S
C349 C353 1.383 . S
C350 C348 1.383 . S
C350 C351 1.402 . S
C350 H365 0.951 . S
C351 C350 1.402 . S
C351 C352 1.375 . S
C351 C354 1.481 . S
C352 C351 1.375 . S
C352 C353 1.367 . S
C352 H366 0.951 . S
C353 C349 1.383 . S
C353 C352 1.367 . S
C353 H367 0.950 . S
C354 C351 1.481 . S
C354 C355 1.297 . S
C354 H368 0.950 . S
C355 C354 1.297 . S
C355 C356 1.479 . S
C355 H369 0.950 . S
C356 C355 1.479 . S
C356 C357 1.375 . S
C356 C362 1.404 . S
C357 C356 1.375 . S
C357 C358 1.369 . S
C357 H370 0.950 . S
C358 C357 1.369 . S
C358 C359 1.392 . S
C358 H371 0.951 . S
C359 C358 1.392 . S
C359 C361 1.384 . S
H360 C362 0.949 . S
C361 C359 1.384 . S
C361 C362 1.385 . S
C361 H363 0.950 . S
C362 C356 1.404 . S
C362 H360 0.949 . S
C362 C361 1.385 . S
H363 C361 0.950 . S
H364 C348 0.951 . S
H365 C350 0.951 . S
H366 C352 0.951 . S
H367 C353 0.950 . S
H368 C354 0.950 . S
H369 C355 0.950 . S
H370 C357 0.950 . S
H371 C358 0.951 . S
C372 C373 1.386 . S
C372 C374 1.383 . S
C372 H388 0.951 . S
C373 C372 1.386 . S
C373 C377 1.383 . S
C374 C372 1.383 . S
C374 C375 1.402 . S
C374 H389 0.951 . S
C375 C374 1.402 . S
C375 C376 1.375 . S
C375 C378 1.481 . S
C376 C375 1.375 . S
C376 C377 1.367 . S
C376 H390 0.951 . S
C377 C373 1.383 . S
C377 C376 1.367 . S
C377 H391 0.950 . S
C378 C375 1.481 . S
C378 C379 1.297 . S
C378 H392 0.950 . S
C379 C378 1.297 . S
C379 C380 1.479 . S
C379 H393 0.950 . S
C380 C379 1.479 . S
C380 C381 1.375 . S
C380 C386 1.404 . S
C381 C380 1.375 . S
C381 C382 1.369 . S
C381 H394 0.950 . S
C382 C381 1.369 . S
C382 C383 1.392 . S
C382 H395 0.951 . S
C383 C382 1.392 . S
C383 C385 1.384 . S
H384 C386 0.949 . S
C385 C383 1.384 . S
C385 C386 1.385 . S
C385 H387 0.950 . S
C386 C380 1.404 . S
C386 H384 0.949 . S
C386 C385 1.385 . S
H387 C385 0.950 . S
H388 C372 0.951 . S
H389 C374 0.951 . S
H390 C376 0.951 . S
H391 C377 0.950 . S
H392 C378 0.950 . S
H393 C379 0.950 . S
H394 C381 0.950 . S
H395 C382 0.951 . S
C396 C397 1.386 . S
C396 C398 1.383 . S
C396 H412 0.951 . S
C397 C396 1.386 . S
C397 C401 1.383 . S
C398 C396 1.383 . S
C398 C399 1.402 . S
C398 H413 0.951 . S
C399 C398 1.402 . S
C399 C400 1.375 . S
C399 C402 1.481 . S
C400 C399 1.375 . S
C400 C401 1.367 . S
C400 H414 0.951 . S
C401 C397 1.383 . S
C401 C400 1.367 . S
C401 H415 0.950 . S
C402 C399 1.481 . S
C402 C403 1.297 . S
C402 H416 0.950 . S
C403 C402 1.297 . S
C403 C404 1.479 . S
C403 H417 0.950 . S
C404 C403 1.479 . S
C404 C405 1.375 . S
C404 C410 1.404 . S
C405 C404 1.375 . S
C405 C406 1.369 . S
C405 H418 0.950 . S
C406 C405 1.369 . S
C406 C407 1.392 . S
C406 H419 0.951 . S
C407 C406 1.392 . S
C407 C409 1.384 . S
H408 C410 0.949 . S
C409 C407 1.384 . S
C409 C410 1.385 . S
C409 H411 0.950 . S
C410 C404 1.404 . S
C410 H408 0.949 . S
C410 C409 1.385 . S
H411 C409 0.950 . S
H412 C396 0.951 . S
H413 C398 0.951 . S
H414 C400 0.951 . S
H415 C401 0.950 . S
H416 C402 0.950 . S
H417 C403 0.950 . S
H418 C405 0.950 . S
H419 C406 0.951 . S
C420 C421 1.386 . S
C420 C422 1.383 . S
C420 H436 0.951 . S
C421 C420 1.386 . S
C421 C425 1.383 . S
C422 C420 1.383 . S
C422 C423 1.402 . S
C422 H437 0.951 . S
C423 C422 1.402 . S
C423 C424 1.375 . S
C423 C426 1.481 . S
C424 C423 1.375 . S
C424 C425 1.367 . S
C424 H438 0.951 . S
C425 C421 1.383 . S
C425 C424 1.367 . S
C425 H439 0.950 . S
C426 C423 1.481 . S
C426 C427 1.297 1_455 S
C426 H440 0.950 . S
C427 C426 1.297 1_655 S
C427 C428 1.479 . S
C427 H441 0.945 . S
C428 C427 1.479 . S
C428 C429 1.375 . S
C428 C434 1.404 . S
C429 C428 1.375 . S
C429 C430 1.369 . S
C429 H442 0.950 . S
C430 C429 1.369 . S
C430 C431 1.392 . S
C430 H443 0.951 . S
C431 C430 1.392 . S
C431 C433 1.384 . S
H432 C434 0.949 . S
C433 C431 1.384 . S
C433 C434 1.385 . S
C433 H435 0.950 . S
C434 C428 1.404 . S
C434 H432 0.949 . S
C434 C433 1.385 . S
H435 C433 0.950 . S
H436 C420 0.951 . S
H437 C422 0.951 . S
H438 C424 0.951 . S
H439 C425 0.950 . S
H440 C426 0.950 . S
H441 C427 0.945 . S
H442 C429 0.950 . S
H443 C430 0.951 . S
C444 C445 1.386 . S
C444 C446 1.383 . S
C444 H460 0.951 . S
C445 C444 1.386 . S
C445 C449 1.383 . S
C446 C444 1.383 . S
C446 C447 1.402 . S
C446 H461 0.951 . S
C447 C446 1.402 . S
C447 C448 1.375 . S
C447 C450 1.481 . S
C448 C447 1.375 . S
C448 C449 1.367 . S
C448 H462 0.951 . S
C449 C445 1.383 . S
C449 C448 1.367 . S
C449 H463 0.950 . S
C450 C447 1.481 . S
C450 C451 1.297 1_545 S
C450 H464 0.950 . S
C451 C450 1.297 1_565 S
C451 C452 1.479 . S
C451 H465 0.950 . S
C452 C451 1.479 . S
C452 C453 1.375 . S
C452 C458 1.404 . S
C453 C452 1.375 . S
C453 C454 1.369 . S
C453 H466 0.950 . S
C454 C453 1.369 . S
C454 C455 1.392 . S
C454 H467 0.951 . S
C455 C454 1.392 . S
C455 C457 1.384 . S
H456 C458 0.949 . S
C457 C455 1.384 . S
C457 C458 1.385 . S
C457 H459 0.950 . S
C458 C452 1.404 . S
C458 H456 0.949 . S
C458 C457 1.385 . S
H459 C457 0.950 . S
H460 C444 0.951 . S
H461 C446 0.951 . S
H462 C448 0.951 . S
H463 C449 0.950 . S
H464 C450 0.950 . S
H465 C451 0.950 . S
H466 C453 0.950 . S
H467 C454 0.951 . S
C468 C469 1.386 . S
C468 C470 1.383 . S
C468 H484 0.951 . S
C469 C468 1.386 . S
C469 C473 1.383 . S
C470 C468 1.383 . S
C470 C471 1.402 . S
C470 H485 0.951 . S
C471 C470 1.402 . S
C471 C472 1.375 . S
C471 C474 1.481 . S
C472 C471 1.375 . S
C472 C473 1.367 . S
C472 H486 0.951 . S
C473 C469 1.383 . S
C473 C472 1.367 . S
C473 H487 0.950 . S
C474 C471 1.481 . S
C474 C475 1.297 . S
C474 H488 0.950 . S
C475 C474 1.297 . S
C475 C476 1.479 . S
C475 H489 0.950 . S
C476 C475 1.479 . S
C476 C477 1.375 . S
C476 C482 1.404 . S
C477 C476 1.375 . S
C477 C478 1.369 . S
C477 H490 0.950 . S
C478 C477 1.369 . S
C478 C479 1.392 . S
C478 H491 0.951 . S
C479 C478 1.392 . S
C479 C481 1.384 . S
H480 C482 0.949 . S
C481 C479 1.384 . S
C481 C482 1.385 . S
C481 H483 0.950 . S
C482 C476 1.404 . S
C482 H480 0.949 . S
C482 C481 1.385 . S
H483 C481 0.950 . S
H484 C468 0.951 . S
H485 C470 0.951 . S
H486 C472 0.951 . S
H487 C473 0.950 . S
H488 C474 0.950 . S
H489 C475 0.950 . S
H490 C477 0.950 . S
H491 C478 0.951 . S
C492 C493 1.386 . S
C492 C494 1.383 . S
C492 H508 0.951 . S
C493 C492 1.386 . S
C493 C497 1.383 . S
C494 C492 1.383 . S
C494 C495 1.402 . S
C494 H509 0.951 . S
C495 C494 1.402 . S
C495 C496 1.375 . S
C495 C498 1.481 . S
C496 C495 1.375 . S
C496 C497 1.367 . S
C496 H510 0.951 . S
C497 C493 1.383 . S
C497 C496 1.367 . S
C497 H511 0.950 . S
C498 C495 1.481 . S
C498 C499 1.297 1_655 S
C498 H512 0.950 . S
C499 C498 1.297 1_455 S
C499 C500 1.479 . S
C499 H513 0.950 . S
C500 C499 1.479 . S
C500 C501 1.375 . S
C500 C506 1.404 . S
C501 C500 1.375 . S
C501 C502 1.369 . S
C501 H514 0.950 . S
C502 C501 1.369 . S
C502 C503 1.392 . S
C502 H515 0.951 . S
C503 C502 1.392 . S
C503 C505 1.384 . S
H504 C506 0.949 . S
C505 C503 1.384 . S
C505 C506 1.385 . S
C505 H507 0.950 . S
C506 C500 1.404 . S
C506 H504 0.949 . S
C506 C505 1.385 . S
H507 C505 0.950 . S
H508 C492 0.951 . S
H509 C494 0.951 . S
H510 C496 0.951 . S
H511 C497 0.950 . S
H512 C498 0.950 . S
H513 C499 0.950 . S
H514 C501 0.950 . S
H515 C502 0.951 . S
C516 C517 1.386 . S
C516 C518 1.383 . S
C516 H532 0.951 . S
C517 C516 1.386 . S
C517 C521 1.383 . S
C518 C516 1.383 . S
C518 C519 1.402 . S
C518 H533 0.951 . S
C519 C518 1.402 . S
C519 C520 1.375 . S
C519 C522 1.481 . S
C520 C519 1.375 . S
C520 C521 1.367 . S
C520 H534 0.951 . S
C521 C517 1.383 . S
C521 C520 1.367 . S
C521 H535 0.950 . S
C522 C519 1.481 . S
C522 C523 1.297 1_545 S
C522 H536 0.967 . S
C523 C522 1.297 1_565 S
C523 C524 1.479 . S
C523 H537 0.986 . S
C524 C523 1.479 . S
C524 C525 1.375 . S
C524 C530 1.404 . S
C525 C524 1.375 . S
C525 C526 1.369 . S
C525 H538 0.950 . S
C526 C525 1.369 . S
C526 C527 1.392 . S
C526 H539 0.951 . S
C527 C526 1.392 . S
C527 C529 1.384 . S
H528 C530 0.949 . S
C529 C527 1.384 . S
C529 C530 1.385 . S
C529 H531 0.950 . S
C530 C524 1.404 . S
C530 H528 0.949 . S
C530 C529 1.385 . S
H531 C529 0.950 . S
H532 C516 0.951 . S
H533 C518 0.951 . S
H534 C520 0.951 . S
H535 C521 0.950 . S
H536 C522 0.967 . S
H537 C523 0.986 . S
H538 C525 0.950 . S
H539 C526 0.951 . S
C540 C541 1.386 . S
C540 C542 1.383 . S
C540 H556 0.951 . S
C541 C540 1.386 . S
C541 C545 1.383 . S
C542 C540 1.383 . S
C542 C543 1.402 . S
C542 H557 0.951 . S
C543 C542 1.402 . S
C543 C544 1.375 . S
C543 C546 1.481 . S
C544 C543 1.375 . S
C544 C545 1.367 . S
C544 H558 0.951 . S
C545 C541 1.383 . S
C545 C544 1.367 . S
C545 H559 0.950 . S
C546 C543 1.481 . S
C546 C547 1.297 . S
C546 H560 0.950 . S
C547 C546 1.297 . S
C547 C548 1.479 . S
C547 H561 0.950 . S
C548 C547 1.479 . S
C548 C549 1.375 . S
C548 C554 1.404 . S
C549 C548 1.375 . S
C549 C550 1.369 . S
C549 H562 0.950 . S
C550 C549 1.369 . S
C550 C551 1.392 . S
C550 H563 0.951 . S
C551 C550 1.392 . S
C551 C553 1.384 . S
H552 C554 0.949 . S
C553 C551 1.384 . S
C553 C554 1.385 . S
C553 H555 0.950 . S
C554 C548 1.404 . S
C554 H552 0.949 . S
C554 C553 1.385 . S
H555 C553 0.950 . S
H556 C540 0.951 . S
H557 C542 0.951 . S
H558 C544 0.951 . S
H559 C545 0.950 . S
H560 C546 0.950 . S
H561 C547 0.950 . S
H562 C549 0.950 . S
H563 C550 0.951 . S
C133 C118 1.585 . S
C143 C8 1.581 . S
C157 C19 1.585 . S
C167 C129 1.589 . S
C181 C74 1.586 . S
C191 C30 1.591 . S
C205 C85 1.595 . S
C215 C41 1.588 . S
C229 C96 1.595 . S
C239 C52 1.581 . S
C253 C63 1.586 . S
C263 C107 1.591 . S
C277 C95 1.590 . S
C287 C7 1.602 . S
C301 C106 1.585 . S
C311 C18 1.585 . S
C325 C29 1.586 . S
C335 C117 1.588 . S
C349 C128 1.612 . S
C359 C40 1.620 . S
C373 C73 1.585 . S
C383 C51 1.583 . S
C397 C84 1.607 . S
C407 C62 1.620 . S
C421 C5 1.444 . S
C431 C126 1.336 . S
C445 C16 1.384 . S
C455 C71 1.478 . S
C469 C27 1.389 . S
C479 C82 1.416 . S
C493 C38 1.436 . S
C503 C93 1.406 . S
C517 C104 1.377 . S
C527 C49 1.443 . S
C541 C60 1.455 . S
C551 C115 1.335 . S
