# Generated by pormake.
# Topology wmi, (6)-cn, num edge types: 1
# Building blocks:
#     Node 0, Type 0, BuildingBlock: KUMJIN_clean_sbu_1, # of connection points: 6
#     Node 1, Type 0, BuildingBlock: KUMJIN_clean_sbu_1, # of connection points: 6
#     Node 2, Type 0, BuildingBlock: KUMJIN_clean_sbu_1, # of connection points: 6
#     Node 3, Type 0, BuildingBlock: KUMJIN_clean_sbu_1, # of connection points: 6
#     Node 4, Type 0, BuildingBlock: KUMJIN_clean_sbu_1, # of connection points: 6
#     Node 5, Type 0, BuildingBlock: KUMJIN_clean_sbu_1, # of connection points: 6
#     Node 6, Type 0, BuildingBlock: KUMJIN_clean_sbu_1, # of connection points: 6
#     Node 7, Type 0, BuildingBlock: KUMJIN_clean_sbu_1, # of connection points: 6
#     Node 8, Type 0, BuildingBlock: KUMJIN_clean_sbu_1, # of connection points: 6
#     Node 9, Type 0, BuildingBlock: KUMJIN_clean_sbu_1, # of connection points: 6
#     Node 10, Type 0, BuildingBlock: KUMJIN_clean_sbu_1, # of connection points: 6
#     Node 11, Type 0, BuildingBlock: KUMJIN_clean_sbu_1, # of connection points: 6
#     Node 12, Type 0, BuildingBlock: KUMJIN_clean_sbu_1, # of connection points: 6
#     Node 13, Type 0, BuildingBlock: KUMJIN_clean_sbu_1, # of connection points: 6
#     Node 14, Type 0, BuildingBlock: KUMJIN_clean_sbu_1, # of connection points: 6
#     Node 15, Type 0, BuildingBlock: KUMJIN_clean_sbu_1, # of connection points: 6
#     Node 16, Type 0, BuildingBlock: KUMJIN_clean_sbu_1, # of connection points: 6
#     Node 17, Type 0, BuildingBlock: KUMJIN_clean_sbu_1, # of connection points: 6
#     Edge 18, Type (0, 0), BuildingBlock: TEMPAE_clean_linker_10, # of connection points: 2
#     Edge 19, Type (0, 0), BuildingBlock: TEMPAE_clean_linker_10, # of connection points: 2
#     Edge 20, Type (0, 0), BuildingBlock: TEMPAE_clean_linker_10, # of connection points: 2
#     Edge 21, Type (0, 0), BuildingBlock: TEMPAE_clean_linker_10, # of connection points: 2
#     Edge 22, Type (0, 0), BuildingBlock: TEMPAE_clean_linker_10, # of connection points: 2
#     Edge 23, Type (0, 0), BuildingBlock: TEMPAE_clean_linker_10, # of connection points: 2
#     Edge 24, Type (0, 0), BuildingBlock: TEMPAE_clean_linker_10, # of connection points: 2
#     Edge 25, Type (0, 0), BuildingBlock: TEMPAE_clean_linker_10, # of connection points: 2
#     Edge 26, Type (0, 0), BuildingBlock: TEMPAE_clean_linker_10, # of connection points: 2
#     Edge 27, Type (0, 0), BuildingBlock: TEMPAE_clean_linker_10, # of connection points: 2
#     Edge 28, Type (0, 0), BuildingBlock: TEMPAE_clean_linker_10, # of connection points: 2
#     Edge 29, Type (0, 0), BuildingBlock: TEMPAE_clean_linker_10, # of connection points: 2
#     Edge 30, Type (0, 0), BuildingBlock: TEMPAE_clean_linker_10, # of connection points: 2
#     Edge 31, Type (0, 0), BuildingBlock: TEMPAE_clean_linker_10, # of connection points: 2
#     Edge 32, Type (0, 0), BuildingBlock: TEMPAE_clean_linker_10, # of connection points: 2
#     Edge 33, Type (0, 0), BuildingBlock: TEMPAE_clean_linker_10, # of connection points: 2
#     Edge 34, Type (0, 0), BuildingBlock: TEMPAE_clean_linker_10, # of connection points: 2
#     Edge 35, Type (0, 0), BuildingBlock: TEMPAE_clean_linker_10, # of connection points: 2
#     Edge 36, Type (0, 0), BuildingBlock: TEMPAE_clean_linker_10, # of connection points: 2
#     Edge 37, Type (0, 0), BuildingBlock: TEMPAE_clean_linker_10, # of connection points: 2
#     Edge 38, Type (0, 0), BuildingBlock: TEMPAE_clean_linker_10, # of connection points: 2
#     Edge 39, Type (0, 0), BuildingBlock: TEMPAE_clean_linker_10, # of connection points: 2
#     Edge 40, Type (0, 0), BuildingBlock: TEMPAE_clean_linker_10, # of connection points: 2
#     Edge 41, Type (0, 0), BuildingBlock: TEMPAE_clean_linker_10, # of connection points: 2
#     Edge 42, Type (0, 0), BuildingBlock: TEMPAE_clean_linker_10, # of connection points: 2
#     Edge 43, Type (0, 0), BuildingBlock: TEMPAE_clean_linker_10, # of connection points: 2
#     Edge 44, Type (0, 0), BuildingBlock: TEMPAE_clean_linker_10, # of connection points: 2
#     Edge 45, Type (0, 0), BuildingBlock: TEMPAE_clean_linker_10, # of connection points: 2
#     Edge 46, Type (0, 0), BuildingBlock: TEMPAE_clean_linker_10, # of connection points: 2
#     Edge 47, Type (0, 0), BuildingBlock: TEMPAE_clean_linker_10, # of connection points: 2
#     Edge 48, Type (0, 0), BuildingBlock: TEMPAE_clean_linker_10, # of connection points: 2
#     Edge 49, Type (0, 0), BuildingBlock: TEMPAE_clean_linker_10, # of connection points: 2
#     Edge 50, Type (0, 0), BuildingBlock: TEMPAE_clean_linker_10, # of connection points: 2
#     Edge 51, Type (0, 0), BuildingBlock: TEMPAE_clean_linker_10, # of connection points: 2
#     Edge 52, Type (0, 0), BuildingBlock: TEMPAE_clean_linker_10, # of connection points: 2
#     Edge 53, Type (0, 0), BuildingBlock: TEMPAE_clean_linker_10, # of connection points: 2
#     Edge 54, Type (0, 0), BuildingBlock: TEMPAE_clean_linker_10, # of connection points: 2
#     Edge 55, Type (0, 0), BuildingBlock: TEMPAE_clean_linker_10, # of connection points: 2
#     Edge 56, Type (0, 0), BuildingBlock: TEMPAE_clean_linker_10, # of connection points: 2
#     Edge 57, Type (0, 0), BuildingBlock: TEMPAE_clean_linker_10, # of connection points: 2
#     Edge 58, Type (0, 0), BuildingBlock: TEMPAE_clean_linker_10, # of connection points: 2
#     Edge 59, Type (0, 0), BuildingBlock: TEMPAE_clean_linker_10, # of connection points: 2
#     Edge 60, Type (0, 0), BuildingBlock: TEMPAE_clean_linker_10, # of connection points: 2
#     Edge 61, Type (0, 0), BuildingBlock: TEMPAE_clean_linker_10, # of connection points: 2
#     Edge 62, Type (0, 0), BuildingBlock: TEMPAE_clean_linker_10, # of connection points: 2
#     Edge 63, Type (0, 0), BuildingBlock: TEMPAE_clean_linker_10, # of connection points: 2
#     Edge 64, Type (0, 0), BuildingBlock: TEMPAE_clean_linker_10, # of connection points: 2
#     Edge 65, Type (0, 0), BuildingBlock: TEMPAE_clean_linker_10, # of connection points: 2
#     Edge 66, Type (0, 0), BuildingBlock: TEMPAE_clean_linker_10, # of connection points: 2
#     Edge 67, Type (0, 0), BuildingBlock: TEMPAE_clean_linker_10, # of connection points: 2
#     Edge 68, Type (0, 0), BuildingBlock: TEMPAE_clean_linker_10, # of connection points: 2
#     Edge 69, Type (0, 0), BuildingBlock: TEMPAE_clean_linker_10, # of connection points: 2
#     Edge 70, Type (0, 0), BuildingBlock: TEMPAE_clean_linker_10, # of connection points: 2
#     Edge 71, Type (0, 0), BuildingBlock: TEMPAE_clean_linker_10, # of connection points: 2
# Relax obj value: 0.065
# Max RMSD: 0.179
# Mean RMSD: 0.179
data_MOF--net-wmi--node1-KUMJIN_clean_sbu_1--edge1-TEMPAE_clean_linker_10
_symmetry_space_group_name_H-M    P1
_symmetry_Int_Tables_number       1
_symmetry_cell_setting            triclinic
loop_
_symmetry_equiv_pos_as_xyz
'x, y, z'
_cell_length_a     39.672192
_cell_length_b     39.634612
_cell_length_c     81.197155
_cell_angle_alpha  89.941798
_cell_angle_beta   89.974584
_cell_angle_gamma 119.99745
loop_
_atom_site_label
_atom_site_type_symbol
_atom_site_fract_x
_atom_site_fract_y
_atom_site_fract_z
_atom_type_partial_charge
Eu0 Eu 0.44209 0.99028 0.0889 0.0
C1 C 0.58487 0.01389 0.13185 0.0
N2 N 0.55955 0.02715 0.13427 0.0
C3 C 0.55635 0.01276 0.1631 0.0
C4 C 0.5969 0.99944 0.14512 0.0
C5 C 0.54574 0.02744 0.14963 0.0
C6 C 0.58194 0.99859 0.16083 0.0
C7 C 0.62698 1.0035 0.11338 0.0
C8 C 0.59897 0.01489 0.11603 0.0
C9 C 0.63914 0.98929 0.12659 0.0
C10 C 0.62377 0.98679 0.14237 0.0
Eu11 Eu 0.54544 0.05286 0.11079 0.0
N12 N 0.5858 0.02754 0.1033 0.0
C13 C 0.6426 1.00755 0.09757 0.0
C14 C 0.60089 0.03139 0.08787 0.0
C15 C 0.62917 0.02108 0.08473 0.0
H16 H 0.52718 0.03969 0.15168 0.0
H17 H 0.64141 0.02466 0.07251 0.0
H18 H 0.4524 0.9874 0.04792 0.0
H19 H 0.36165 0.0445 0.1243 0.0
H20 H 0.59282 0.04423 0.0781 0.0
H21 H 0.66565 1.00112 0.09521 0.0
H22 H 0.3974 0.0094 0.11987 0.0
H23 H 0.54521 0.01288 0.17525 0.0
H24 H 0.66047 0.98019 0.12475 0.0
H25 H 0.63336 0.97563 0.15242 0.0
H26 H 0.43699 0.01238 0.02274 0.0
H27 H 0.5904 0.9876 0.17133 0.0
H28 H 0.34667 0.07402 0.10058 0.0
N29 N 0.42697 0.0107 0.06404 0.0
C30 C 0.40672 0.02991 0.06543 0.0
C31 C 0.42844 0.01746 0.03468 0.0
C32 C 0.39726 0.04443 0.05138 0.0
C33 C 0.43734 1.00371 0.04896 0.0
C34 C 0.4086 0.03815 0.03589 0.0
N35 N 0.40529 0.02113 0.09433 0.0
C36 C 0.39231 0.02317 0.10961 0.0
C37 C 0.37436 0.05492 0.08282 0.0
C38 C 0.39533 0.03507 0.08098 0.0
C39 C 0.36282 0.05896 0.09865 0.0
C40 C 0.3714 0.04253 0.11207 0.0
H41 H 0.40197 0.0489 0.0248 0.0
H42 H 0.36948 0.07616 0.04254 0.0
H43 H 0.34951 0.08542 0.07007 0.0
O44 O 0.39078 0.9401 0.09959 0.0
O45 O 0.47107 0.05714 0.08819 0.0
O46 O 0.50541 0.07754 0.11238 0.0
O47 O 0.40414 0.94054 0.07368 0.0
O48 O 0.44987 0.98195 0.11599 0.0
O49 O 0.4934 0.04109 0.12704 0.0
O50 O 0.59724 0.10372 0.10112 0.0
O51 O 0.51803 0.98672 0.11118 0.0
O52 O 0.48323 0.96611 0.0871 0.0
O53 O 0.58611 0.09872 0.12737 0.0
O54 O 0.54061 0.06113 0.08286 0.0
O55 O 0.49343 1.00076 0.07362 0.0
C56 C 0.48833 0.08339 0.09983 0.0
C57 C 0.33849 0.90223 0.08145 0.0
C58 C 0.27582 0.84181 0.08037 0.0
C59 C 0.2612 0.86133 0.07076 0.0
C60 C 0.32314 0.92124 0.0722 0.0
C61 C 0.28456 0.9008 0.06693 0.0
C62 C 0.31471 0.86296 0.08578 0.0
C63 C 0.46062 1.00736 0.12799 0.0
C64 C 0.37995 0.92167 0.08557 0.0
C65 C 0.37681 0.06464 0.05319 0.0
C66 C 0.36542 0.06991 0.06887 0.0
C67 C 0.5045 0.96264 0.09867 0.0
C68 C 0.62873 0.16202 0.11644 0.0
C69 C 0.68844 0.22502 0.11314 0.0
C70 C 0.66795 0.24338 0.11876 0.0
C71 C 0.60882 0.18088 0.12175 0.0
C72 C 0.66821 0.18407 0.11199 0.0
C73 C 0.62849 0.22145 0.12292 0.0
C74 C 0.52401 0.035 0.07105 0.0
C75 C 0.60962 0.11939 0.11553 0.0
H76 H 0.2319 0.8461 0.06589 0.0
H77 H 0.34114 0.95152 0.06874 0.0
H78 H 0.27293 0.91538 0.05955 0.0
H79 H 0.32687 0.849 0.09326 0.0
H80 H 0.68249 0.27468 0.12025 0.0
H81 H 0.57832 0.1643 0.1251 0.0
H82 H 0.68302 0.16911 0.10755 0.0
H83 H 0.61324 0.23599 0.12725 0.0
Eu84 Eu 0.06449 0.46483 0.09112 0.0
C85 C 0.04648 0.58833 0.13358 0.0
N86 N 0.03173 0.54963 0.13641 0.0
C87 C 0.04798 0.56209 0.16502 0.0
C88 C 0.06269 0.61554 0.14652 0.0
C89 C 0.03168 0.53612 0.15188 0.0
C90 C 0.06368 0.60198 0.16233 0.0
C91 C 0.05757 0.64031 0.11464 0.0
C92 C 0.04462 0.60067 0.11774 0.0
C93 C 0.07376 0.66748 0.1275 0.0
C94 C 0.07669 0.65519 0.14334 0.0
Eu95 Eu 1.00385 0.50827 0.11352 0.0
N96 N 0.02927 0.57381 0.10545 0.0
C97 C 0.053 0.65133 0.0988 0.0
C98 C 0.02387 0.58432 0.09012 0.0
C99 C 0.03623 0.62325 0.08648 0.0
H100 H 0.01846 0.50528 0.15422 0.0
H101 H 0.03184 0.6314 0.07428 0.0
H102 H 0.07135 0.48311 0.0505 0.0
H103 H 1.00354 0.32639 0.12426 0.0
H104 H 1.00853 0.56272 0.08083 0.0
H105 H 0.0614 0.68125 0.09604 0.0
H106 H 0.03887 0.39787 0.12135 0.0
H107 H 0.04799 0.55128 0.17727 0.0
H108 H 0.08387 0.69805 0.12536 0.0
H109 H 0.0892 0.67651 0.15313 0.0
H110 H 0.0502 0.44607 0.02464 0.0
H111 H 0.07594 0.62198 0.17259 0.0
H112 H 0.97778 0.28479 0.09952 0.0
N113 N 0.04574 0.43254 0.06565 0.0
C114 C 0.02632 0.39295 0.06633 0.0
C115 C 0.04272 0.43073 0.03623 0.0
C116 C 0.01339 0.37063 0.05179 0.0
C117 C 0.05451 0.45167 0.05093 0.0
C118 C 0.02166 0.39007 0.03663 0.0
N119 N 0.0319 0.39687 0.09548 0.0
C120 C 0.02733 0.38012 0.11058 0.0
C121 C 0.99931 0.33361 0.08265 0.0
C122 C 0.01951 0.3746 0.08161 0.0
C123 C 0.99318 0.3162 0.0982 0.0
C124 C 1.00755 0.33958 0.11221 0.0
H125 H 0.0124 0.37397 0.02518 0.0
H126 H 0.98268 0.31218 0.04178 0.0
H127 H 0.97023 0.2798 0.06876 0.0
O128 O 0.11746 0.47056 0.10223 0.0
O129 O 0.99758 0.42652 0.09174 0.0
O130 O 0.9815 0.44438 0.11589 0.0
O131 O 0.11001 0.46526 0.0759 0.0
O132 O 0.07412 0.47988 0.11824 0.0
O133 O 0.01655 0.46832 0.12991 0.0
O134 O 0.95007 0.50538 0.10468 0.0
O135 O 0.0701 0.54526 0.11363 0.0
O136 O 0.08826 0.53004 0.08914 0.0
O137 O 0.95846 0.50168 0.13067 0.0
O138 O 0.99505 0.49541 0.08549 0.0
O139 O 0.05479 0.50661 0.07618 0.0
C140 C 0.97243 0.42036 0.10357 0.0
C141 C 0.17257 0.50886 0.08567 0.0
C142 C 0.24341 0.5432 0.08804 0.0
C143 C 0.24488 0.57649 0.08109 0.0
C144 C 0.17494 0.54235 0.07859 0.0
C145 C 0.21085 0.57601 0.07646 0.0
C146 C 0.20688 0.50936 0.09039 0.0
C147 C 0.04937 0.46717 0.13052 0.0
C148 C 0.13423 0.47372 0.08804 0.0
C149 C 0.99297 0.32979 0.05282 0.0
C150 C 0.98592 0.31134 0.06819 0.0
C151 C 0.09383 0.55488 0.101 0.0
C152 C 0.9258 0.5357 0.12263 0.0
C153 C 0.8833 0.56342 0.11754 0.0
C154 C 0.90555 0.59305 0.12896 0.0
C155 C 0.94702 0.56575 0.13396 0.0
C156 C 0.8937 0.53456 0.11443 0.0
C157 C 0.93709 0.59421 0.13699 0.0
C158 C 0.02092 0.50381 0.07361 0.0
C159 C 0.93742 0.50594 0.11943 0.0
H160 H 0.27246 0.60271 0.07885 0.0
H161 H 0.14907 0.54238 0.07448 0.0
H162 H 0.21233 0.60165 0.071 0.0
H163 H 0.20508 0.48357 0.09588 0.0
H164 H 0.89805 0.61506 0.13206 0.0
H165 H 0.97117 0.56718 0.14069 0.0
H166 H 0.87714 0.51151 0.10567 0.0
H167 H 0.95368 0.61708 0.1458 0.0
Eu168 Eu 0.60014 0.62358 0.08852 0.0
C169 C 0.47519 0.48344 0.1333 0.0
N170 N 0.51467 0.50129 0.13394 0.0
C171 C 0.51247 0.50017 0.16346 0.0
C172 C 0.45276 0.47357 0.14784 0.0
C173 C 0.53346 0.50907 0.14872 0.0
C174 C 0.47196 0.48256 0.16303 0.0
C175 C 0.41619 0.45434 0.1169 0.0
C176 C 0.45711 0.47378 0.11802 0.0
C177 C 0.39375 0.44496 0.13133 0.0
C178 C 0.41199 0.45458 0.14676 0.0
Eu179 Eu 0.54793 0.51612 0.10842 0.0
N180 N 0.47969 0.48398 0.10425 0.0
C181 C 0.39904 0.445 0.10128 0.0
C182 C 0.46306 0.47373 0.08903 0.0
C183 C 0.42259 0.45459 0.0873 0.0
H184 H 0.56466 0.5216 0.1492 0.0
H185 H 0.40957 0.44696 0.07518 0.0
H186 H 0.59808 0.61604 0.04746 0.0
H187 H 0.72467 0.68955 0.13058 0.0
H188 H 0.48077 0.47994 0.07818 0.0
H189 H 0.3677 0.42998 0.09989 0.0
H190 H 0.65645 0.66338 0.12236 0.0
H191 H 0.52754 0.5066 0.17515 0.0
H192 H 0.36228 0.43021 0.1307 0.0
H193 H 0.39428 0.44693 0.15779 0.0
H194 H 0.64418 0.6288 0.02458 0.0
H195 H 0.45576 0.47547 0.17448 0.0
H196 H 0.77376 0.6982 0.10966 0.0
N197 N 0.64168 0.63565 0.06589 0.0
C198 C 0.68022 0.65171 0.06938 0.0
C199 C 0.65455 0.63481 0.03714 0.0
C200 C 0.70739 0.65866 0.05677 0.0
C201 C 0.62854 0.62756 0.05009 0.0
C202 C 0.69407 0.65 0.04051 0.0
N203 N 0.66547 0.65315 0.09763 0.0
C204 C 0.67692 0.66499 0.11339 0.0
C205 C 0.73212 0.67644 0.08966 0.0
C206 C 0.69241 0.66046 0.08568 0.0
C207 C 0.74356 0.68594 0.10609 0.0
C208 C 0.71591 0.68083 0.11796 0.0
H209 H 0.71408 0.6552 0.03045 0.0
H210 H 0.76806 0.67919 0.05126 0.0
H211 H 0.78969 0.69477 0.08002 0.0
O212 O 0.60802 0.67894 0.09781 0.0
O213 O 0.62676 0.58407 0.08544 0.0
O214 O 0.61272 0.5541 0.11035 0.0
O215 O 0.59592 0.66431 0.07189 0.0
O216 O 0.58116 0.61551 0.11502 0.0
O217 O 0.58927 0.56637 0.1256 0.0
O218 O 0.54366 0.46451 0.09621 0.0
O219 O 0.51385 0.54802 0.11015 0.0
O220 O 0.53393 0.59103 0.08821 0.0
O221 O 0.55494 0.47263 0.12219 0.0
O222 O 0.55316 0.52116 0.07971 0.0
O223 O 0.55394 0.5782 0.0728 0.0
C224 C 0.63556 0.56797 0.09758 0.0
C225 C 0.62316 0.73074 0.07902 0.0
C226 C 0.62297 0.7922 0.07756 0.0
C227 C 0.65686 0.80755 0.06776 0.0
C228 C 0.65706 0.74657 0.06947 0.0
C229 C 0.67394 0.78501 0.06395 0.0
C230 C 0.60676 0.75369 0.08331 0.0
C231 C 0.58942 0.59967 0.12736 0.0
C232 C 0.60182 0.68945 0.08342 0.0
C233 C 0.74681 0.67393 0.06077 0.0
C234 C 0.75912 0.68274 0.07716 0.0
C235 C 0.50802 0.56935 0.09941 0.0
C236 C 0.51643 0.40759 0.11301 0.0
C237 C 0.4906 0.33712 0.10988 0.0
C238 C 0.45954 0.33044 0.12036 0.0
C239 C 0.48492 0.39942 0.12336 0.0
C240 C 0.51928 0.37618 0.10625 0.0
C241 C 0.45669 0.36129 0.12691 0.0
C242 C 0.5474 0.5433 0.06906 0.0
C243 C 0.54652 0.4488 0.10986 0.0
H244 H 0.6699 0.8367 0.06273 0.0
H245 H 0.66989 0.72903 0.06602 0.0
H246 H 0.69988 0.79715 0.05638 0.0
H247 H 0.58091 0.74107 0.09097 0.0
H248 H 0.43768 0.30119 0.1239 0.0
H249 H 0.48243 0.42249 0.12906 0.0
H250 H 0.54357 0.38215 0.0983 0.0
H251 H 0.43278 0.35562 0.13505 0.0
Eu252 Eu 1.00007 0.43542 0.93451 0.0
C253 C 1.00718 0.57167 0.89159 0.0
N254 N 0.02871 0.55408 0.88915 0.0
C255 C 0.0179 0.55228 0.86005 0.0
C256 C 0.9897 0.57985 0.87823 0.0
C257 C 0.03472 0.54478 0.87367 0.0
C258 C 0.99513 0.56971 0.86234 0.0
C259 C 0.98119 0.6006 0.91044 0.0
C260 C 1.00286 0.58184 0.90753 0.0
C261 C 0.96333 0.60833 0.89718 0.0
C262 C 0.96756 0.59798 0.88113 0.0
Eu263 Eu 0.05495 0.54158 0.91293 0.0
N264 N 0.02001 0.57341 0.92017 0.0
C265 C 0.9783 0.6112 0.92659 0.0
C266 C 0.01907 0.58562 0.93576 0.0
C267 C 0.99764 0.60401 0.93927 0.0
H268 H 0.05295 0.53207 0.87177 0.0
H269 H 0.99646 0.61305 0.95173 0.0
H270 H 0.9916 0.44221 0.97526 0.0
H271 H 0.07378 0.373 0.89955 0.0
H272 H 0.03529 0.58189 0.94548 0.0
H273 H 0.96194 0.62568 0.92934 0.0
H274 H 0.03134 0.40119 0.90336 0.0
H275 H 0.02265 0.54477 0.84779 0.0
H276 H 0.94631 0.62245 0.8992 0.0
H277 H 0.95375 0.60431 0.87102 0.0
H278 H 0.01616 0.4283 1.0007 0.0
H279 H 0.9822 0.57553 0.85175 0.0
H280 H 0.10365 0.36038 0.9238 0.0
N281 N 0.02125 0.42276 0.95954 0.0
C282 C 0.04421 0.4064 0.95836 0.0
C283 C 0.02477 0.42253 0.98892 0.0
C284 C 0.05936 0.39852 0.97262 0.0
C285 C 1.01099 0.4305 0.97448 0.0
C286 C 0.04944 0.40693 0.98803 0.0
N287 N 0.03807 0.40592 0.92925 0.0
C288 C 0.04441 0.39626 0.91393 0.0
C289 C 0.07699 0.3812 0.94129 0.0
C290 C 0.05268 0.39753 0.94284 0.0
C291 C 0.08498 0.37279 0.92551 0.0
C292 C 0.06829 0.37999 0.91179 0.0
H293 H 0.06032 0.40111 0.99928 0.0
H294 H 0.09579 0.37636 0.98191 0.0
H295 H 0.11146 0.36153 0.9545 0.0
O296 O 0.9501 0.38583 0.92282 0.0
O297 O 0.0671 0.47036 0.93442 0.0
O298 O 0.08362 0.50521 0.9103 0.0
O299 O 0.95614 0.38725 0.94918 0.0
O300 O 0.99018 0.44329 0.90775 0.0
O301 O 0.04636 0.49117 0.89601 0.0
O302 O 0.10618 0.59234 0.92343 0.0
O303 O 0.98831 0.50758 0.91301 0.0
O304 O 0.97053 0.47153 0.93694 0.0
O305 O 0.0993 0.58701 0.89714 0.0
O306 O 0.06224 0.53721 0.94111 0.0
O307 O 1.00473 0.48401 0.95007 0.0
C308 C 0.09218 0.48944 0.92257 0.0
C309 C 0.89299 0.36392 0.93871 0.0
C310 C 0.8228 0.32544 0.93352 0.0
C311 C 0.81791 0.35298 0.94263 0.0
C312 C 0.887 0.39085 0.94761 0.0
C313 C 0.84976 0.38543 0.94948 0.0
C314 C 0.86083 0.33131 0.93158 0.0
C315 C 0.01487 0.45614 0.8955 0.0
C316 C 0.93294 0.37064 0.93677 0.0
C317 C 0.08372 0.38242 0.97109 0.0
C318 C 0.0926 0.37391 0.95547 0.0
C319 C 0.9637 0.49013 0.92516 0.0
C320 C 0.13016 0.65101 0.90823 0.0
C321 C 0.17689 0.72067 0.91172 0.0
C322 C 0.14758 0.72905 0.90742 0.0
C323 C 0.10193 0.66061 0.90359 0.0
C324 C 0.1681 0.68138 0.9121 0.0
C325 C 0.11048 0.69923 0.90328 0.0
C326 C 0.03674 0.51703 0.95282 0.0
C327 C 0.11955 0.60944 0.90929 0.0
H328 H 0.78928 0.34912 0.94484 0.0
H329 H 0.91114 0.41602 0.95329 0.0
H330 H 0.84547 0.40621 0.95648 0.0
H331 H 0.86552 0.31083 0.92452 0.0
H332 H 0.15366 0.75891 0.90698 0.0
H333 H 0.07323 0.63831 0.90009 0.0
H334 H 0.1904 0.67455 0.91555 0.0
H335 H 0.08826 0.70607 0.89976 0.0
Eu336 Eu 0.63674 0.59945 0.92684 0.0
C337 C 0.50049 0.47929 0.88366 0.0
N338 N 0.51913 0.51886 0.88302 0.0
C339 C 0.52726 0.51672 0.85378 0.0
C340 C 0.49584 0.45694 0.86943 0.0
C341 C 0.53042 0.5375 0.86816 0.0
C342 C 0.51058 0.4763 0.85447 0.0
C343 C 0.45992 0.42011 0.8991 0.0
C344 C 0.48291 0.46101 0.89826 0.0
C345 C 0.45701 0.39767 0.88524 0.0
C346 C 0.47506 0.41606 0.87043 0.0
Eu347 Eu 0.52492 0.55163 0.90837 0.0
N348 N 0.4864 0.48351 0.91143 0.0
C349 C 0.43948 0.40315 0.91368 0.0
C350 C 0.46531 0.46742 0.92543 0.0
C351 C 0.44175 0.42697 0.92682 0.0
H352 H 0.5414 0.56843 0.86718 0.0
H353 H 0.42554 0.4142 0.93803 0.0
H354 H 0.61978 0.62634 0.96366 0.0
H355 H 0.75718 0.68369 0.88457 0.0
H356 H 0.46716 0.48594 0.93555 0.0
H357 H 0.42132 0.37183 0.91479 0.0
H358 H 0.70123 0.62433 0.89597 0.0
H359 H 0.53714 0.53185 0.84213 0.0
H360 H 0.43993 0.36615 0.88569 0.0
H361 H 0.47154 0.39844 0.85968 0.0
H362 H 0.64177 0.68643 0.97993 0.0
H363 H 0.50763 0.46023 0.84326 0.0
H364 H 0.77689 0.74791 0.89684 0.0
N365 N 0.65481 0.65576 0.94291 0.0
C366 C 0.68333 0.69001 0.93666 0.0
C367 C 0.65352 0.68791 0.96774 0.0
C368 C 0.69698 0.72505 0.94553 0.0
C369 C 0.6412 0.65393 0.95856 0.0
C370 C 0.68118 0.72373 0.96111 0.0
N371 N 0.68846 0.6549 0.91419 0.0
C372 C 0.70907 0.65233 0.90125 0.0
C373 C 0.73226 0.72422 0.91568 0.0
C374 C 0.70051 0.68957 0.92184 0.0
C375 C 0.75212 0.72204 0.90185 0.0
C376 C 0.74103 0.68581 0.89486 0.0
H377 H 0.69087 0.75002 0.96829 0.0
H378 H 0.73741 0.78723 0.94542 0.0
H379 H 0.76855 0.78649 0.91933 0.0
O380 O 0.69119 0.59759 0.92842 0.0
O381 O 0.60353 0.63324 0.9301 0.0
O382 O 0.56776 0.61529 0.90675 0.0
O383 O 0.65245 0.58042 0.94915 0.0
O384 O 0.62937 0.58674 0.89939 0.0
O385 O 0.57697 0.59397 0.89179 0.0
O386 O 0.47598 0.55439 0.91998 0.0
O387 O 0.5454 0.51151 0.91825 0.0
O388 O 0.61012 0.54383 0.91143 0.0
O389 O 0.48211 0.55763 0.89374 0.0
O390 O 0.53202 0.56049 0.93669 0.0
O391 O 0.58695 0.55615 0.94235 0.0
C392 C 0.58071 0.6376 0.91962 0.0
C393 C 0.68702 0.54668 0.94543 0.0
C394 C 0.72501 0.51363 0.94285 0.0
C395 C 0.69644 0.4824 0.95214 0.0
C396 C 0.65874 0.51473 0.95446 0.0
C397 C 0.6637 0.4831 0.95788 0.0
C398 C 0.72008 0.54588 0.93959 0.0
C399 C 0.61102 0.59645 0.88859 0.0
C400 C 0.68315 0.58158 0.94292 0.0
C401 C 0.72684 0.75996 0.93887 0.0
C402 C 0.74451 0.75954 0.924 0.0
C403 C 0.57787 0.51147 0.91514 0.0
C404 C 0.41794 0.52202 0.90394 0.0
C405 C 0.34749 0.49524 0.90796 0.0
C406 C 0.34079 0.46309 0.89818 0.0
C407 C 0.40967 0.4892 0.89442 0.0
C408 C 0.38662 0.52498 0.91076 0.0
C409 C 0.37154 0.46004 0.89164 0.0
C410 C 0.55509 0.55556 0.9471 0.0
C411 C 0.45924 0.55312 0.90604 0.0
H412 H 0.69984 0.45776 0.95538 0.0
H413 H 0.63304 0.51437 0.95922 0.0
H414 H 0.64237 0.45937 0.96533 0.0
H415 H 0.74194 0.57041 0.9326 0.0
H416 H 0.31155 0.4404 0.89517 0.0
H417 H 0.43272 0.48636 0.88873 0.0
H418 H 0.39272 0.55017 0.91813 0.0
H419 H 0.36575 0.43518 0.88411 0.0
Eu420 Eu 0.47192 0.06954 0.92754 0.0
C421 C 0.60178 0.04908 0.8962 0.0
N422 N 0.56418 0.03323 0.8912 0.0
C423 C 0.5848 0.05133 0.86327 0.0
C424 C 0.63261 0.06792 0.88483 0.0
C425 C 0.5552 0.03301 0.87498 0.0
C426 C 0.62368 0.0691 0.86823 0.0
C427 C 0.64825 0.06405 0.91832 0.0
C428 C 0.6094 0.04713 0.91281 0.0
C429 C 0.67898 0.08318 0.90705 0.0
C430 C 0.67121 0.08512 0.89037 0.0
Eu431 Eu 0.51614 1.00193 0.91154 0.0
N432 N 0.57902 0.02803 0.92346 0.0
C433 C 0.65512 0.06049 0.93495 0.0
C434 C 0.58579 0.02156 0.93933 0.0
C435 C 0.62374 0.03863 0.94543 0.0
H436 H 0.52519 0.01868 0.87106 0.0
H437 H 0.62878 0.03416 0.95814 0.0
H438 H 0.49459 0.0846 0.96834 0.0
H439 H 0.32974 0.02632 0.90144 0.0
H440 H 0.56231 1.00229 0.9473 0.0
H441 H 0.68452 0.07331 0.93967 0.0
H442 H 0.40212 0.06172 0.90256 0.0
H443 H 0.57762 0.0516 0.85043 0.0
H444 H 0.70891 0.09601 0.91109 0.0
H445 H 0.69527 0.09989 0.88184 0.0
H446 H 0.46187 0.05735 0.99495 0.0
H447 H 0.64656 0.08337 0.85914 0.0
H448 H 0.29154 0.98757 0.92547 0.0
N449 N 0.44345 0.0505 0.95415 0.0
C450 C 0.4041 0.02757 0.95456 0.0
C451 C 0.44547 0.04833 0.98364 0.0
C452 C 0.38412 0.01211 0.9695 0.0
C453 C 0.46392 0.06321 0.96851 0.0
C454 C 0.40559 0.02181 0.98411 0.0
N455 N 0.40374 0.04106 0.92643 0.0
C456 C 0.38524 0.0443 0.91291 0.0
C457 C 0.34252 1.00266 0.9403 0.0
C458 C 0.38351 0.02298 0.94023 0.0
C459 C 0.32304 1.00275 0.92593 0.0
C460 C 0.34453 0.02456 0.91231 0.0
H461 H 0.3914 0.01057 0.99587 0.0
H462 H 0.32748 0.97669 0.98079 0.0
H463 H 0.29098 0.96828 0.95514 0.0
O464 O 0.48903 0.12344 0.91388 0.0
O465 O 0.42985 0.00791 0.91839 0.0
O466 O 0.46152 0.9764 0.92714 0.0
O467 O 0.46862 0.11791 0.93878 0.0
O468 O 0.4767 0.06562 0.89974 0.0
O469 O 0.47528 1.00744 0.89292 0.0
O470 O 0.53532 0.95897 0.91321 0.0
O471 O 0.54505 0.0667 0.90506 0.0
O472 O 0.53591 0.0898 0.92912 0.0
O473 O 0.48976 0.94944 0.89622 0.0
O474 O 0.50347 0.99985 0.9393 0.0
O475 O 0.514 0.0618 0.94401 0.0
C476 C 0.42947 0.97567 0.92263 0.0
C477 C 0.52106 0.17853 0.93084 0.0
C478 C 0.55961 0.24963 0.93051 0.0
C479 C 0.58963 0.24749 0.9388 0.0
C480 C 0.55089 0.1774 0.93968 0.0
C481 C 0.58513 0.21163 0.94341 0.0
C482 C 0.52546 0.21476 0.92623 0.0
C483 C 0.46954 0.03698 0.88946 0.0
C484 C 0.48578 0.14165 0.92656 0.0
C485 C 0.3433 0.98932 0.96947 0.0
C486 C 0.3225 0.98458 0.95487 0.0
C487 C 0.5578 0.09385 0.91639 0.0
C488 C 0.48897 0.89323 0.90763 0.0
C489 C 0.49065 0.83412 0.91557 0.0
C490 C 0.44972 0.81403 0.91642 0.0
C491 C 0.4482 0.87225 0.90869 0.0
C492 C 0.51011 0.87394 0.91104 0.0
C493 C 0.42886 0.83295 0.91303 0.0
C494 C 0.51124 0.02914 0.94929 0.0
C495 C 0.50978 0.93493 0.90281 0.0
H496 H 0.6165 0.27369 0.94194 0.0
H497 H 0.54758 0.15002 0.94384 0.0
H498 H 0.60806 0.21042 0.95011 0.0
H499 H 0.50204 0.2158 0.91982 0.0
H500 H 0.43358 0.78329 0.91941 0.0
H501 H 0.43119 0.88608 0.90605 0.0
H502 H 0.5416 0.89001 0.91028 0.0
H503 H 0.39745 0.81686 0.91362 0.0
Eu504 Eu 0.10156 0.33082 0.42276 0.0
C505 C 0.23963 0.34488 0.46744 0.0
N506 N 0.21697 0.36135 0.46953 0.0
C507 C 0.2133 0.34883 0.49855 0.0
C508 C 0.25 0.32964 0.48097 0.0
C509 C 0.20437 0.36422 0.48482 0.0
C510 C 0.23606 0.3313 0.49661 0.0
C511 C 0.2794 0.33013 0.44943 0.0
C512 C 0.2533 0.34408 0.45174 0.0
C513 C 0.28956 0.31468 0.46286 0.0
C514 C 0.27452 0.31399 0.47854 0.0
Eu515 Eu 0.20479 0.38724 0.44557 0.0
N516 N 0.24209 0.35809 0.43883 0.0
C517 C 0.29547 0.33328 0.43378 0.0
C518 C 0.25771 0.36121 0.42357 0.0
C519 C 0.28426 0.34847 0.42076 0.0
H520 H 0.1882 0.37914 0.48659 0.0
H521 H 0.29694 0.35144 0.40866 0.0
H522 H 0.11216 0.32271 0.38213 0.0
H523 H 0.02952 0.39788 0.45552 0.0
H524 H 0.25141 0.37534 0.41374 0.0
H525 H 0.31731 0.325 0.4317 0.0
H526 H 0.0624 0.35937 0.4528 0.0
H527 H 0.20311 0.35102 0.51065 0.0
H528 H 0.30926 0.30345 0.46126 0.0
H529 H 0.28275 0.30211 0.48879 0.0
H530 H 0.09811 0.34531 0.35617 0.0
H531 H 0.24331 0.31983 0.50731 0.0
H532 H 0.0162 0.4255 0.43068 0.0
N533 N 0.08969 0.35079 0.39718 0.0
C534 C 0.07135 0.372 0.39777 0.0
C535 C 0.09098 0.35355 0.36774 0.0
C536 C 0.06312 0.38582 0.38318 0.0
C537 C 0.09912 0.34098 0.38249 0.0
C538 C 0.07336 0.37647 0.36805 0.0
N539 N 0.06889 0.36615 0.42694 0.0
C540 C 0.05714 0.37153 0.44199 0.0
C541 C 0.04148 0.4017 0.41394 0.0
C542 C 0.06037 0.37962 0.41301 0.0
C543 C 0.03072 0.40864 0.42945 0.0
C544 C 0.03829 0.39319 0.44351 0.0
H545 H 0.0673 0.3863 0.35656 0.0
H546 H 0.03826 0.41914 0.37303 0.0
H547 H 0.01957 0.43323 0.39993 0.0
O548 O 0.05352 0.27833 0.43381 0.0
O549 O 0.13283 0.39778 0.42386 0.0
O550 O 0.16677 0.41364 0.44814 0.0
O551 O 0.0546 0.28733 0.4076 0.0
O552 O 0.10637 0.32022 0.44985 0.0
O553 O 0.15278 0.37674 0.46192 0.0
O554 O 0.25584 0.43816 0.43517 0.0
O555 O 0.17426 0.32087 0.44487 0.0
O556 O 0.14032 0.30411 0.42048 0.0
O557 O 0.24917 0.43149 0.4616 0.0
O558 O 0.20202 0.39679 0.4175 0.0
O559 O 0.15203 0.33857 0.40764 0.0
C560 C 0.15145 0.42253 0.43585 0.0
C561 C 0.03437 0.22391 0.41662 0.0
C562 C 0.99674 0.1531 0.41901 0.0
C563 C 0.02691 0.15079 0.41089 0.0
C564 C 0.06397 0.22078 0.40848 0.0
C565 C 0.06032 0.18444 0.40576 0.0
C566 C 1.00086 0.19004 0.42192 0.0
C567 C 0.11808 0.34473 0.46219 0.0
C568 C 0.03889 0.26256 0.4196 0.0
C569 C 0.04463 0.40811 0.38411 0.0
C570 C 0.03392 0.41608 0.39944 0.0
C571 C 0.15925 0.29753 0.43219 0.0
C572 C 0.2915 0.49543 0.45118 0.0
C573 C 0.35183 0.55817 0.44871 0.0
C574 C 0.33303 0.57627 0.45619 0.0
C575 C 0.27337 0.51414 0.45859 0.0
C576 C 0.33065 0.51764 0.44603 0.0
C577 C 0.29409 0.5544 0.46101 0.0
C578 C 0.18432 0.37162 0.40544 0.0
C579 C 0.27104 0.45269 0.44946 0.0
H580 H 0.02439 0.12288 0.40815 0.0
H581 H 0.08977 0.24641 0.40404 0.0
H582 H 0.08326 0.18232 0.39946 0.0
H583 H 0.97822 0.19254 0.42833 0.0
H584 H 0.34858 0.60741 0.45835 0.0
H585 H 0.24351 0.49756 0.46274 0.0
H586 H 0.34496 0.50323 0.44048 0.0
H587 H 0.28014 0.56872 0.46687 0.0
Eu588 Eu 0.72536 0.80078 0.42047 0.0
C589 C 0.7108 0.92336 0.46534 0.0
N590 N 0.69137 0.88391 0.46712 0.0
C591 C 0.70108 0.89054 0.49633 0.0
C592 C 0.72677 0.94798 0.47911 0.0
C593 C 0.68583 0.86725 0.48232 0.0
C594 C 0.72176 0.93106 0.49472 0.0
C595 C 0.73611 0.97998 0.44737 0.0
C596 C 0.7155 0.93922 0.44962 0.0
C597 C 0.75203 1.00452 0.46107 0.0
C598 C 0.74736 0.98858 0.47689 0.0
Eu599 Eu 0.66677 0.84754 0.44268 0.0
N600 N 0.70097 0.91476 0.43648 0.0
C601 C 0.7403 0.99483 0.43138 0.0
C602 C 0.70296 0.92909 0.42104 0.0
C603 C 0.7233 0.96927 0.41818 0.0
H604 H 0.66906 0.83602 0.48375 0.0
H605 H 0.7254 0.98049 0.40584 0.0
H606 H 0.73541 0.82106 0.37999 0.0
H607 H 0.66854 0.6614 0.45222 0.0
H608 H 0.68822 0.90969 0.41099 0.0
H609 H 0.75598 0.02595 0.42914 0.0
H610 H 0.69957 0.73283 0.44995 0.0
H611 H 0.69671 0.87722 0.50837 0.0
H612 H 0.76814 0.03588 0.45956 0.0
H613 H 0.75993 0.00793 0.48733 0.0
H614 H 0.71689 0.78524 0.35365 0.0
H615 H 0.73357 0.94899 0.5056 0.0
H616 H 0.64574 0.62078 0.42709 0.0
N617 N 0.70878 0.76971 0.39465 0.0
C618 C 0.69004 0.73014 0.39493 0.0
C619 C 0.70893 0.76944 0.36516 0.0
C620 C 0.67946 0.70858 0.38016 0.0
C621 C 0.719 0.7896 0.3801 0.0
C622 C 0.68878 0.72877 0.36517 0.0
N623 N 0.69325 0.73268 0.42407 0.0
C624 C 0.68918 0.71546 0.43903 0.0
C625 C 0.66462 0.67015 0.41069 0.0
C626 C 0.68251 0.7111 0.41003 0.0
C627 C 0.65922 0.65216 0.42607 0.0
C628 C 0.67196 0.67497 0.44029 0.0
H629 H 0.68119 0.7133 0.35354 0.0
H630 H 0.65223 0.6507 0.36956 0.0
H631 H 0.63937 0.61709 0.39627 0.0
O632 O 0.77294 0.79688 0.43219 0.0
O633 O 0.65851 0.7634 0.42025 0.0
O634 O 0.6373 0.78227 0.44314 0.0
O635 O 0.77678 0.81263 0.40643 0.0
O636 O 0.732 0.81595 0.44752 0.0
O637 O 0.67437 0.80385 0.4589 0.0
O638 O 0.6187 0.8531 0.43235 0.0
O639 O 0.73309 0.88129 0.44357 0.0
O640 O 0.75155 0.86617 0.41917 0.0
O641 O 0.62239 0.8474 0.45865 0.0
O642 O 0.65926 0.83693 0.41448 0.0
O643 O 0.71777 0.84408 0.40563 0.0
C644 C 0.63094 0.75911 0.43059 0.0
C645 C 0.81289 0.78347 0.41489 0.0
C646 C 0.87346 0.78161 0.41443 0.0
C647 C 0.85487 0.74801 0.40446 0.0
C648 C 0.79475 0.74968 0.40528 0.0
C649 C 0.81571 0.73194 0.40017 0.0
C650 C 0.85169 0.79872 0.41977 0.0
C651 C 0.70615 0.80083 0.4593 0.0
C652 C 0.79344 0.80559 0.4187 0.0
C653 C 0.66067 0.66773 0.38079 0.0
C654 C 0.65335 0.64858 0.396 0.0
C655 C 0.75837 0.88982 0.43162 0.0
C656 C 0.56005 0.82956 0.44765 0.0
C657 C 0.49793 0.82771 0.44327 0.0
C658 C 0.47895 0.79139 0.45137 0.0
C659 C 0.54032 0.79322 0.45551 0.0
C660 C 0.53878 0.84665 0.4415 0.0
C661 C 0.50001 0.77445 0.45743 0.0
C662 C 0.68464 0.84254 0.40271 0.0
C663 C 0.60291 0.85131 0.44662 0.0
H664 H 0.87061 0.73442 0.39962 0.0
H665 H 0.76485 0.73764 0.40139 0.0
H666 H 0.80185 0.70618 0.39251 0.0
H667 H 0.86486 0.82437 0.42753 0.0
H668 H 0.44779 0.77632 0.45338 0.0
H669 H 0.55609 0.7796 0.46034 0.0
H670 H 0.55414 0.87474 0.43543 0.0
H671 H 0.48498 0.74666 0.46372 0.0
Eu672 Eu 0.25023 0.95383 0.4223 0.0
C673 C 0.13055 0.80774 0.46323 0.0
N674 N 0.16915 0.8328 0.46565 0.0
C675 C 0.15842 0.83431 0.49461 0.0
C676 C 0.1043 0.79483 0.4766 0.0
C677 C 0.18349 0.84575 0.48105 0.0
C678 C 0.11866 0.80877 0.49239 0.0
C679 C 0.07769 0.7674 0.44463 0.0
C680 C 0.11719 0.79504 0.44731 0.0
C681 C 0.05163 0.75405 0.45797 0.0
C682 C 0.06477 0.76816 0.47386 0.0
Eu683 Eu 0.20874 0.84819 0.44205 0.0
N684 N 0.14285 0.8091 0.43451 0.0
C685 C 0.0657 0.75333 0.42865 0.0
C686 C 0.13122 0.79524 0.41895 0.0
C687 C 0.09245 0.76761 0.41574 0.0
H688 H 0.21431 0.86428 0.48303 0.0
H689 H 0.08348 0.75647 0.40339 0.0
H690 H 0.25611 0.93884 0.38202 0.0
H691 H 0.36112 0.06339 0.46241 0.0
H692 H 0.15189 0.80369 0.40907 0.0
H693 H 0.036 0.73088 0.42619 0.0
H694 H 0.29451 0.01496 0.45382 0.0
H695 H 0.16987 0.84476 0.50681 0.0
H696 H 0.02119 0.73277 0.45613 0.0
H697 H 0.04421 0.75779 0.48399 0.0
H698 H 0.30705 0.95524 0.36097 0.0
H699 H 0.09938 0.79963 0.50296 0.0
H700 H 0.417 0.0778 0.44436 0.0
N701 N 0.29637 0.96977 0.40109 0.0
C702 C 0.33409 0.99477 0.40516 0.0
C703 C 0.31506 0.96617 0.3734 0.0
C704 C 0.36408 1.00555 0.39349 0.0
C705 C 0.28632 0.95644 0.38538 0.0
C706 C 0.35416 0.99046 0.37751 0.0
N707 N 0.31278 0.99972 0.43186 0.0
C708 C 0.31879 0.0198 0.44619 0.0
C709 C 0.38105 0.03781 0.42529 0.0
C710 C 0.34251 0.01008 0.421 0.0
C711 C 0.38787 0.05605 0.44066 0.0
C712 C 0.35644 0.0478 0.45094 0.0
H713 H 0.37635 0.99808 0.36817 0.0
H714 H 0.42625 0.03994 0.38927 0.0
H715 H 0.44105 0.06864 0.41702 0.0
O716 O 0.24101 1.00183 0.42952 0.0
O717 O 0.28823 0.92486 0.42009 0.0
O718 O 0.27327 0.88805 0.44361 0.0
O719 O 0.24207 0.98858 0.40372 0.0
O720 O 0.23845 0.9467 0.44997 0.0
O721 O 0.25115 0.89848 0.45842 0.0
O722 O 0.20822 0.79698 0.43183 0.0
O723 O 0.17249 0.87767 0.44504 0.0
O724 O 0.18512 0.91259 0.42122 0.0
O725 O 0.21319 0.80641 0.45819 0.0
O726 O 0.22054 0.85468 0.41401 0.0
O727 O 0.20881 0.90391 0.40651 0.0
C728 C 0.2971 0.90692 0.4315 0.0
C729 C 0.26169 0.05365 0.41049 0.0
C730 C 0.26338 0.11605 0.40986 0.0
C731 C 0.29829 0.13173 0.40072 0.0
C732 C 0.29689 0.07006 0.40177 0.0
C733 C 0.31508 0.109 0.39694 0.0
C734 C 0.24552 0.07679 0.41479 0.0
C735 C 0.25127 0.93143 0.46098 0.0
C736 C 0.23992 0.01197 0.41435 0.0
C737 C 0.40276 0.03149 0.39803 0.0
C738 C 0.41121 0.04771 0.41387 0.0
C739 C 0.1614 0.89231 0.43319 0.0
C740 C 0.23542 0.76553 0.44703 0.0
C741 C 0.23998 0.70659 0.44379 0.0
C742 C 0.27831 0.72722 0.44992 0.0
C743 C 0.27364 0.7856 0.45298 0.0
C744 C 0.21894 0.72638 0.44228 0.0
C745 C 0.29493 0.76639 0.4544 0.0
C746 C 0.2114 0.87314 0.40291 0.0
C747 C 0.21121 0.78385 0.44613 0.0
H748 H 0.31251 0.16142 0.39624 0.0
H749 H 0.30987 0.05264 0.3984 0.0
H750 H 0.34195 0.12146 0.38998 0.0
H751 H 0.21886 0.06388 0.42193 0.0
H752 H 0.29526 0.71294 0.45163 0.0
H753 H 0.28674 0.81579 0.4567 0.0
H754 H 0.18952 0.71135 0.43746 0.0
H755 H 0.32428 0.78173 0.45919 0.0
Eu756 Eu 0.66701 0.76363 0.26585 0.0
C757 C 0.68364 0.90169 0.21956 0.0
N758 N 0.69995 0.87875 0.21802 0.0
C759 C 0.6873 0.87281 0.189 0.0
C760 C 0.66848 0.91113 0.20572 0.0
C761 C 0.70264 0.86485 0.20301 0.0
C762 C 0.66997 0.89588 0.19037 0.0
C763 C 0.66992 0.94362 0.23663 0.0
C764 C 0.68355 0.91708 0.23493 0.0
C765 C 0.65431 0.95266 0.22293 0.0
C766 C 0.65322 0.93614 0.20755 0.0
Eu767 Eu 0.7251 0.86718 0.24237 0.0
N768 N 0.69827 0.90735 0.24807 0.0
C769 C 0.67353 0.96122 0.25194 0.0
C770 C 0.70209 0.92472 0.26298 0.0
C771 C 0.68939 0.95152 0.2652 0.0
H772 H 0.71722 0.84819 0.2017 0.0
H773 H 0.69278 0.96544 0.27702 0.0
H774 H 0.69136 0.78345 0.30552 0.0
H775 H 0.69603 0.67443 0.22302 0.0
H776 H 0.71645 0.91948 0.27306 0.0
H777 H 0.66507 0.98308 0.25358 0.0
H778 H 0.66126 0.70684 0.23363 0.0
H779 H 0.68932 0.86157 0.17712 0.0
H780 H 0.64335 0.9727 0.22405 0.0
H781 H 0.64135 0.94364 0.19707 0.0
H782 H 0.73355 0.77583 0.32586 0.0
H783 H 0.65856 0.9024 0.17945 0.0
H784 H 0.74582 0.67147 0.24036 0.0
N785 N 0.70517 0.75632 0.28623 0.0
C786 C 0.72392 0.73691 0.28171 0.0
C787 C 0.73144 0.7652 0.31344 0.0
C788 C 0.74871 0.73245 0.2928 0.0
C789 C 0.7078 0.76967 0.30191 0.0
C790 C 0.75235 0.74694 0.30883 0.0
N791 N 0.69517 0.72766 0.25525 0.0
C792 C 0.68495 0.70848 0.24059 0.0
C793 C 0.73878 0.70304 0.26058 0.0
C794 C 0.71926 0.72275 0.2657 0.0
C795 C 0.73146 0.68688 0.24476 0.0
C796 C 0.70366 0.6888 0.23488 0.0
H797 H 0.77097 0.74392 0.31775 0.0
H798 H 0.7887 0.71064 0.29584 0.0
H799 H 0.77987 0.68472 0.26767 0.0
O800 O 0.6139 0.70635 0.26121 0.0
O801 O 0.73367 0.80175 0.26714 0.0
O802 O 0.74791 0.8257 0.24114 0.0
O803 O 0.63065 0.72943 0.28618 0.0
O804 O 0.65345 0.76667 0.23893 0.0
O805 O 0.71135 0.81281 0.22721 0.0
O806 O 0.77911 0.91673 0.25189 0.0
O807 O 0.65914 0.83871 0.24228 0.0
O808 O 0.63601 0.79893 0.26531 0.0
O809 O 0.77161 0.90689 0.22577 0.0
O810 O 0.72962 0.86573 0.2708 0.0
O811 O 0.6719 0.81364 0.28052 0.0
C812 C 0.75718 0.81366 0.25439 0.0
C813 C 0.57361 0.66584 0.28438 0.0
C814 C 0.508 0.60911 0.28351 0.0
C815 C 0.51376 0.59888 0.29943 0.0
C816 C 0.57845 0.65488 0.30027 0.0
C817 C 0.54869 0.62163 0.30771 0.0
C818 C 0.53815 0.64292 0.276 0.0
C819 C 0.67713 0.78042 0.22622 0.0
C820 C 0.60604 0.70112 0.2769 0.0
C821 C 0.76918 0.71398 0.28754 0.0
C822 C 0.76426 0.69935 0.27148 0.0
C823 C 0.6335 0.82172 0.25411 0.0
C824 C 0.80632 0.97289 0.23467 0.0
C825 C 0.85438 0.04226 0.23811 0.0
C826 C 0.82987 0.05187 0.22936 0.0
C827 C 0.78297 0.9837 0.22565 0.0
C828 C 0.84244 1.00256 0.2409 0.0
C829 C 0.79445 0.02277 0.22318 0.0
C830 C 0.70264 0.84827 0.28232 0.0
C831 C 0.79288 0.93085 0.23735 0.0
H832 H 0.49093 0.57338 0.30558 0.0
H833 H 0.60545 0.67193 0.30694 0.0
H834 H 0.55271 0.61345 0.31997 0.0
H835 H 0.53412 0.65115 0.26373 0.0
H836 H 0.83851 0.08208 0.22709 0.0
H837 H 0.75595 0.96199 0.22029 0.0
H838 H 0.86119 0.99489 0.24767 0.0
H839 H 0.77597 0.03051 0.21627 0.0
Eu840 Eu 0.29032 0.9186 0.26388 0.0
C841 C 0.14692 0.80101 0.2204 0.0
N842 N 0.17227 0.8396 0.21801 0.0
C843 C 0.17586 0.82853 0.18922 0.0
C844 C 0.13504 0.77458 0.20714 0.0
C845 C 0.18631 0.85376 0.20268 0.0
C846 C 0.15022 0.78875 0.19145 0.0
C847 C 0.10418 0.74858 0.23879 0.0
C848 C 0.13215 0.78804 0.23613 0.0
C849 C 0.09209 0.72227 0.22556 0.0
C850 C 0.10783 0.73512 0.20984 0.0
Eu851 Eu 0.18668 0.87985 0.24137 0.0
N852 N 0.1445 0.81414 0.24874 0.0
C853 C 0.08851 0.73691 0.25459 0.0
C854 C 0.12857 0.80302 0.26405 0.0
C855 C 0.1009 0.76419 0.26728 0.0
H856 H 0.20494 0.88459 0.20067 0.0
H857 H 0.08839 0.75555 0.27947 0.0
H858 H 0.28102 0.89893 0.30439 0.0
H859 H 0.36758 0.05795 0.23147 0.0
H860 H 0.13581 0.8241 0.27369 0.0
H861 H 0.06622 0.7071 0.25704 0.0
H862 H 0.32928 0.98644 0.23395 0.0
H863 H 0.18716 0.83986 0.17708 0.0
H864 H 0.07039 0.69191 0.22734 0.0
H865 H 0.09823 0.71443 0.19978 0.0
H866 H 0.30034 0.93526 0.33066 0.0
H867 H 0.14183 0.76935 0.18096 0.0
H868 H 0.38793 0.09875 0.25657 0.0
N869 N 0.30693 0.95007 0.2896 0.0
C870 C 0.32827 0.98962 0.28919 0.0
C871 C 0.30813 0.95083 0.31909 0.0
C872 C 0.33985 0.01142 0.30389 0.0
C873 C 0.29709 0.93041 0.30421 0.0
C874 C 0.32933 0.99149 0.31895 0.0
N875 N 0.32677 0.98669 0.26 0.0
C876 C 0.33755 1.00385 0.2449 0.0
C877 C 0.36096 0.04943 0.2732 0.0
C878 C 0.33887 0.00845 0.274 0.0
C879 C 0.37102 0.06733 0.2577 0.0
C880 C 0.35948 0.0444 0.2435 0.0
H881 H 0.3377 1.00717 0.33052 0.0
H882 H 0.3707 0.06949 0.31429 0.0
H883 H 0.38902 0.10274 0.28745 0.0
O884 O 0.34193 0.9217 0.25258 0.0
O885 O 0.26323 0.95841 0.26499 0.0
O886 O 0.23173 0.94294 0.2405 0.0
O887 O 0.32738 0.90331 0.27796 0.0
O888 O 0.28272 0.90229 0.23685 0.0
O889 O 0.24029 0.91885 0.22532 0.0
O890 O 0.1368 0.88467 0.25009 0.0
O891 O 0.21304 0.84043 0.24084 0.0
O892 O 0.24754 0.8534 0.26506 0.0
O893 O 0.15053 0.89046 0.22423 0.0
O894 O 0.19033 0.89041 0.26963 0.0
O895 O 0.23823 0.87786 0.27876 0.0
C896 C 0.24352 0.96476 0.25356 0.0
C897 C 0.39323 0.93137 0.27047 0.0
C898 C 0.45458 0.93098 0.27205 0.0
C899 C 0.46981 0.96483 0.28187 0.0
C900 C 0.40924 0.9654 0.27994 0.0
C901 C 0.44744 0.98209 0.28556 0.0
C902 C 0.41606 0.91471 0.26629 0.0
C903 C 0.27279 0.91712 0.22465 0.0
C904 C 0.35195 0.91082 0.26599 0.0
C905 C 0.36167 0.05227 0.30312 0.0
C906 C 0.37216 0.07121 0.28783 0.0
C907 C 0.22641 0.82938 0.25324 0.0
C908 C 0.08347 0.85678 0.23155 0.0
C909 C 0.01338 0.82796 0.23686 0.0
C910 C 1.00613 0.79925 0.225 0.0
C911 C 0.07486 0.828 0.21957 0.0
C912 C 0.05242 0.85687 0.24011 0.0
C913 C 0.03659 0.79936 0.21646 0.0
C914 C 0.20782 0.88173 0.28143 0.0
C915 C 0.12472 0.88577 0.23529 0.0
H916 H 0.49879 0.97778 0.28701 0.0
H917 H 0.39201 0.97854 0.28328 0.0
H918 H 0.45954 0.00805 0.29309 0.0
H919 H 0.40343 0.88884 0.25866 0.0
H920 H 0.97663 0.77711 0.22197 0.0
H921 H 0.09764 0.82758 0.21246 0.0
H922 H 0.05861 0.87904 0.24929 0.0
H923 H 0.03049 0.77732 0.20724 0.0
Eu924 Eu 0.1386 0.39431 0.26422 0.0
C925 C 0.26643 0.37347 0.22782 0.0
N926 N 0.22849 0.36111 0.22422 0.0
C927 C 0.24521 0.38067 0.19608 0.0
C928 C 0.29546 0.391 0.21561 0.0
C929 C 0.21739 0.36339 0.20855 0.0
C930 C 0.28443 0.39475 0.19964 0.0
C931 C 0.31566 0.38276 0.24793 0.0
C932 C 0.27639 0.36946 0.2439 0.0
C933 C 0.34452 0.40005 0.23574 0.0
C934 C 0.33448 0.40425 0.21966 0.0
Eu935 Eu 0.18378 0.32982 0.24577 0.0
N936 N 0.24785 0.35241 0.25551 0.0
C937 C 0.32481 0.37791 0.26407 0.0
C938 C 0.25659 0.34618 0.27109 0.0
C939 C 0.29516 0.3595 0.27567 0.0
H940 H 0.18708 0.35142 0.20549 0.0
H941 H 0.30189 0.35478 0.28808 0.0
H942 H 0.15394 0.4004 0.30534 0.0
H943 H 1.00205 0.34972 0.2321 0.0
H944 H 0.23411 0.32982 0.27996 0.0
H945 H 0.35459 0.3876 0.26763 0.0
H946 H 0.07364 0.383 0.23548 0.0
H947 H 0.23633 0.38276 0.1837 0.0
H948 H 0.37477 0.41022 0.23862 0.0
H949 H 0.35715 0.4178 0.21044 0.0
H950 H 0.11623 0.37281 0.33063 0.0
H951 H 0.3059 0.40807 0.18993 0.0
H952 H 0.95908 0.31346 0.25553 0.0
N953 N 0.10497 0.37075 0.28947 0.0
C954 C 0.0655 0.3497 0.28854 0.0
C955 C 0.10158 0.36532 0.31889 0.0
C956 C 0.04258 0.33385 0.30281 0.0
C957 C 0.12301 0.38047 0.30443 0.0
C958 C 0.06128 0.34114 0.31809 0.0
N959 N 0.07072 0.36418 0.26016 0.0
C960 C 0.05494 0.36696 0.24564 0.0
C961 C 1.00693 0.32745 0.2722 0.0
C962 C 0.0478 0.34666 0.27347 0.0
C963 C 0.99038 0.32787 0.25701 0.0
C964 C 0.01453 0.34832 0.24375 0.0
H965 H 0.04477 0.3297 0.32936 0.0
H966 H 0.98377 0.30008 0.31228 0.0
H967 H 0.95254 0.29433 0.28544 0.0
O968 O 0.1411 0.44454 0.25165 0.0
O969 O 0.09765 0.33263 0.25445 0.0
O970 O 0.13075 0.30218 0.26218 0.0
O971 O 0.14504 0.44395 0.27813 0.0
O972 O 0.159 0.40009 0.2381 0.0
O973 O 0.14324 0.33996 0.22844 0.0
O974 O 0.20121 0.28552 0.2461 0.0
O975 O 0.21934 0.39612 0.24345 0.0
O976 O 0.20383 0.41869 0.26667 0.0
O977 O 0.1561 0.27916 0.22942 0.0
O978 O 0.17377 0.32585 0.27387 0.0
O979 O 0.17858 0.38489 0.28107 0.0
C980 C 0.09812 0.30055 0.25812 0.0
C981 C 0.11852 0.48008 0.26702 0.0
C982 C 0.11391 0.53927 0.26748 0.0
C983 C 0.07654 0.51746 0.27458 0.0
C984 C 0.08107 0.45884 0.27375 0.0
C985 C 0.06012 0.47751 0.27739 0.0
C986 C 0.13434 0.51976 0.26349 0.0
C987 C 0.14261 0.37295 0.22694 0.0
C988 C 0.14328 0.46262 0.26531 0.0
C989 C 1.00181 0.31284 0.30148 0.0
C990 C 0.98402 0.30963 0.2862 0.0
C991 C 0.22918 0.42141 0.25551 0.0
C992 C 0.15458 0.22088 0.2388 0.0
C993 C 0.15623 0.16161 0.24633 0.0
C994 C 0.11564 0.14002 0.24418 0.0
C995 C 0.11407 0.1984 0.23679 0.0
C996 C 0.17558 0.2022 0.24348 0.0
C997 C 0.09492 0.15825 0.23939 0.0
C998 C 0.18013 0.35339 0.28471 0.0
C999 C 0.17559 0.2633 0.2353 0.0
H1000 H 0.0601 0.53117 0.27837 0.0
H1001 H 0.06856 0.42823 0.27663 0.0
H1002 H 0.03146 0.4612 0.28287 0.0
H1003 H 0.16295 0.53533 0.25791 0.0
H1004 H 0.09986 0.10869 0.24581 0.0
H1005 H 0.09717 0.21169 0.23302 0.0
H1006 H 0.20691 0.21926 0.24491 0.0
H1007 H 0.06386 0.14096 0.23753 0.0
Eu1008 Eu 0.76204 0.65906 0.7567 0.0
C1009 C 0.91653 0.68425 0.78803 0.0
N1010 N 0.89366 0.6994 0.79229 0.0
C1011 C 0.89609 0.68398 0.82065 0.0
C1012 C 0.92927 0.66734 0.80002 0.0
C1013 C 0.88394 0.70021 0.80834 0.0
C1014 C 0.9187 0.66731 0.81647 0.0
C1015 C 0.94849 0.66754 0.7667 0.0
C1016 C 0.92604 0.68445 0.77152 0.0
C1017 C 0.96109 0.65057 0.7786 0.0
C1018 C 0.95161 0.65056 0.79521 0.0
Eu1019 Eu 0.87575 0.72747 0.77087 0.0
N1020 N 0.91343 0.7011 0.76023 0.0
C1021 C 0.95797 0.6685 0.75005 0.0
C1022 C 0.92499 0.70445 0.74417 0.0
C1023 C 0.94655 0.68745 0.73878 0.0
H1024 H 0.8674 0.71397 0.81175 0.0
H1025 H 0.95492 0.68956 0.72596 0.0
H1026 H 0.76453 0.6371 0.71631 0.0
H1027 H 0.66656 0.7074 0.78236 0.0
H1028 H 0.91871 0.72104 0.73547 0.0
H1029 H 0.97489 0.65558 0.74584 0.0
H1030 H 0.70279 0.67113 0.78178 0.0
H1031 H 0.88817 0.68453 0.83337 0.0
H1032 H 0.97844 0.63758 0.7751 0.0
H1033 H 0.9615 0.63728 0.80424 0.0
H1034 H 0.75538 0.65929 0.68914 0.0
H1035 H 0.92792 0.6546 0.82603 0.0
H1036 H 0.66501 0.74269 0.75748 0.0
N1037 N 0.75028 0.67444 0.72977 0.0
C1038 C 0.73421 0.69767 0.72895 0.0
C1039 C 0.75001 0.67086 0.70025 0.0
C1040 C 0.72771 0.71044 0.71368 0.0
C1041 C 0.75568 0.65881 0.7157 0.0
C1042 C 0.73708 0.6977 0.69923 0.0
N1043 N 0.72364 0.68904 0.75752 0.0
C1044 C 0.70282 0.68749 0.77113 0.0
C1045 C 0.69941 0.72525 0.74285 0.0
C1046 C 0.7201 0.70493 0.74329 0.0
C1047 C 0.68126 0.72739 0.7573 0.0
C1048 C 0.68208 0.7075 0.77139 0.0
H1049 H 0.73245 0.70671 0.68724 0.0
H1050 H 0.70525 0.74404 0.70169 0.0
H1051 H 0.68051 0.75711 0.72729 0.0
O1052 O 0.72445 0.60829 0.77192 0.0
O1053 O 0.7819 0.72144 0.765 0.0
O1054 O 0.84311 0.74833 0.75502 0.0
O1055 O 0.709 0.6102 0.74671 0.0
O1056 O 0.77679 0.66293 0.78394 0.0
O1057 O 0.83037 0.72368 0.78968 0.0
O1058 O 0.935 0.77422 0.7655 0.0
O1059 O 0.84233 0.66235 0.77704 0.0
O1060 O 0.80385 0.63612 0.75436 0.0
O1061 O 0.90341 0.78086 0.78564 0.0
O1062 O 0.86306 0.72578 0.74312 0.0
O1063 O 0.80947 0.66436 0.73923 0.0
C1064 C 0.81475 0.75251 0.76081 0.0
C1065 C 0.69711 0.54993 0.75695 0.0
C1066 C 0.65983 0.47929 0.76023 0.0
C1067 C 0.68905 0.4765 0.75149 0.0
C1068 C 0.72559 0.54635 0.74814 0.0
C1069 C 0.72172 0.50984 0.74557 0.0
C1070 C 0.66435 0.51644 0.76304 0.0
C1071 C 0.79601 0.69339 0.79358 0.0
C1072 C 0.70183 0.58867 0.75976 0.0
C1073 C 0.7099 0.73344 0.71328 0.0
C1074 C 0.69577 0.74085 0.72786 0.0
C1075 C 0.82606 0.63458 0.76598 0.0
C1076 C 0.97268 0.81207 0.78794 0.0
C1077 C 0.04247 0.85857 0.79111 0.0
C1078 C 0.04085 0.84361 0.80698 0.0
C1079 C 0.97206 0.79788 0.80384 0.0
C1080 C 1.00818 0.84228 0.78153 0.0
C1081 C 1.00598 0.81344 0.81323 0.0
C1082 C 0.84053 0.69567 0.73365 0.0
C1083 C 0.93671 0.79563 0.77793 0.0
H1084 H 0.68624 0.44845 0.74881 0.0
H1085 H 0.75062 0.57173 0.74307 0.0
H1086 H 0.7438 0.50733 0.73874 0.0
H1087 H 0.64253 0.51937 0.76991 0.0
H1088 H 0.06675 0.85521 0.81456 0.0
H1089 H 0.94536 0.77492 0.80909 0.0
H1090 H 1.00891 0.85357 0.76929 0.0
H1091 H 1.00519 0.8022 0.82547 0.0
Eu1092 Eu 0.40115 0.12895 0.75749 0.0
C1093 C 0.37879 0.25508 0.79256 0.0
N1094 N 0.36287 0.21679 0.79657 0.0
C1095 C 0.3788 0.23321 0.82497 0.0
C1096 C 0.39656 0.28418 0.80471 0.0
C1097 C 0.3616 0.20539 0.81252 0.0
C1098 C 0.39656 0.27278 0.82104 0.0
C1099 C 0.39566 0.30481 0.77166 0.0
C1100 C 0.3783 0.26517 0.77617 0.0
C1101 C 0.41362 0.33383 0.78371 0.0
C1102 C 0.41405 0.32356 0.80018 0.0
Eu1103 Eu 0.33324 0.17177 0.77504 0.0
N1104 N 0.3604 0.2364 0.76472 0.0
C1105 C 0.39385 0.31418 0.7552 0.0
C1106 C 0.35584 0.24556 0.74896 0.0
C1107 C 0.37337 0.28441 0.74386 0.0
H1108 H 0.34724 0.17484 0.81565 0.0
H1109 H 0.37033 0.29136 0.73125 0.0
H1110 H 0.40953 0.14947 0.71666 0.0
H1111 H 0.36513 0.98967 0.78488 0.0
H1112 H 0.33773 0.22335 0.74029 0.0
H1113 H 0.40705 0.34426 0.75124 0.0
H1114 H 0.3969 0.0618 0.78306 0.0
H1115 H 0.37821 0.22412 0.83759 0.0
H1116 H 0.42684 0.36435 0.78045 0.0
H1117 H 0.428 0.34632 0.80933 0.0
H1118 H 0.38123 0.11503 0.69061 0.0
H1119 H 0.41 0.29428 0.83071 0.0
H1120 H 0.32667 0.94904 0.76134 0.0
N1121 N 0.37928 0.09853 0.73143 0.0
C1122 C 0.35845 0.05899 0.73141 0.0
C1123 C 0.37395 0.09899 0.70203 0.0
C1124 C 0.34249 0.03794 0.71675 0.0
C1125 C 0.38937 0.11848 0.71689 0.0
C1126 C 0.34946 0.05865 0.702 0.0
N1127 N 0.37464 0.06098 0.75929 0.0
C1128 C 0.37952 0.0439 0.77295 0.0
C1129 C 0.33807 0.99858 0.74612 0.0
C1130 C 0.35639 0.03953 0.7458 0.0
C1131 C 0.34023 0.98046 0.76058 0.0
C1132 C 0.36185 1.00331 0.77393 0.0
H1133 H 0.33772 0.04365 0.69046 0.0
H1134 H 0.30901 0.98034 0.70607 0.0
H1135 H 0.30502 0.94579 0.73188 0.0
O1136 O 0.45323 0.13608 0.77022 0.0
O1137 O 0.33951 0.08568 0.76629 0.0
O1138 O 0.30881 0.11871 0.75858 0.0
O1139 O 0.4521 0.13875 0.74371 0.0
O1140 O 0.40025 0.1366 0.78521 0.0
O1141 O 0.34001 0.12946 0.7925 0.0
O1142 O 0.28947 0.18995 0.77366 0.0
O1143 O 0.39775 0.20134 0.78153 0.0
O1144 O 0.42133 0.19308 0.75735 0.0
O1145 O 0.28115 0.14445 0.79057 0.0
O1146 O 0.33161 0.16216 0.74701 0.0
O1147 O 0.39333 0.17242 0.74199 0.0
C1148 C 0.30739 0.08617 0.76285 0.0
C1149 C 0.49332 0.11858 0.755 0.0
C1150 C 0.55629 0.12137 0.75401 0.0
C1151 C 0.53735 0.08361 0.74709 0.0
C1152 C 0.4751 0.08075 0.74857 0.0
C1153 C 0.49711 0.06335 0.74471 0.0
C1154 C 0.53352 0.13838 0.75808 0.0
C1155 C 0.37082 0.12553 0.79551 0.0
C1156 C 0.47197 0.1397 0.75657 0.0
C1157 C 0.32192 0.997 0.71716 0.0
C1158 C 0.31971 0.97733 0.73185 0.0
C1159 C 0.42546 0.21388 0.77047 0.0
C1160 C 0.22395 0.14427 0.78073 0.0
C1161 C 0.16505 0.14709 0.77362 0.0
C1162 C 0.14294 0.10658 0.7762 0.0
C1163 C 0.20089 0.10387 0.78304 0.0
C1164 C 0.20579 0.16583 0.77605 0.0
C1165 C 0.1607 0.08536 0.78088 0.0
C1166 C 0.36089 0.17033 0.73691 0.0
C1167 C 0.26629 0.16455 0.78436 0.0
H1168 H 0.55348 0.0697 0.74314 0.0
H1169 H 0.44418 0.06526 0.74601 0.0
H1170 H 0.4831 0.03444 0.73941 0.0
H1171 H 0.54684 0.16729 0.76337 0.0
H1172 H 0.11155 0.09122 0.77501 0.0
H1173 H 0.21377 0.08661 0.7868 0.0
H1174 H 0.22334 0.19708 0.77439 0.0
H1175 H 0.14301 0.05439 0.78306 0.0
Eu1176 Eu 0.93894 0.3007 0.75933 0.0
C1177 C 0.81429 0.15447 0.80173 0.0
N1178 N 0.85344 0.17775 0.80339 0.0
C1179 C 0.84618 0.18028 0.83262 0.0
C1180 C 0.78952 0.14296 0.81559 0.0
C1181 C 0.8697 0.18991 0.8186 0.0
C1182 C 0.80589 0.15687 0.83111 0.0
C1183 C 0.75947 0.11239 0.78436 0.0
C1184 C 0.79922 0.14013 0.78622 0.0
C1185 C 0.73466 0.10115 0.79811 0.0
C1186 C 0.74954 0.11685 0.81364 0.0
Eu1187 Eu 0.89068 0.19146 0.77898 0.0
N1188 N 0.8238 0.15189 0.77307 0.0
C1189 C 0.74608 0.09586 0.76883 0.0
C1190 C 0.8106 0.13648 0.75785 0.0
C1191 C 0.77158 0.10842 0.75547 0.0
H1192 H 0.90088 0.20634 0.82008 0.0
H1193 H 0.76142 0.09583 0.74341 0.0
H1194 H 0.95503 0.29186 0.71952 0.0
H1195 H 0.04368 0.38556 0.80748 0.0
H1196 H 0.83022 0.14441 0.74762 0.0
H1197 H 0.71614 0.07318 0.76704 0.0
H1198 H 0.97962 0.35254 0.7939 0.0
H1199 H 0.85923 0.19026 0.84463 0.0
H1200 H 0.70396 0.08007 0.79688 0.0
H1201 H 0.73008 0.10767 0.82414 0.0
H1202 H 1.01048 0.30828 0.70093 0.0
H1203 H 0.78783 0.14881 0.84205 0.0
H1204 H 0.102 0.39598 0.79216 0.0
N1205 N 0.99026 0.31649 0.74059 0.0
C1206 C 0.02696 0.33642 0.7468 0.0
C1207 C 0.01552 0.31625 0.71381 0.0
C1208 C 0.05955 0.34631 0.73671 0.0
C1209 C 0.98412 0.30684 0.72433 0.0
C1210 C 0.05341 0.33588 0.72004 0.0
N1211 N 0.99973 0.33674 0.77278 0.0
C1212 C 1.00403 0.35328 0.78788 0.0
C1213 C 0.0695 0.36712 0.77017 0.0
C1214 C 0.03174 0.34607 0.76343 0.0
C1215 C 0.07354 0.37972 0.78651 0.0
C1216 C 0.04069 0.37364 0.79526 0.0
H1217 H 0.07768 0.34289 0.71189 0.0
H1218 H 0.12238 0.37329 0.73605 0.0
H1219 H 0.13115 0.39196 0.76528 0.0
O1220 O 0.93692 0.35319 0.76614 0.0
O1221 O 0.96966 0.26485 0.75548 0.0
O1222 O 0.95415 0.23519 0.78017 0.0
O1223 O 0.93926 0.3404 0.74055 0.0
O1224 O 0.91777 0.28993 0.78575 0.0
O1225 O 0.93095 0.24323 0.79539 0.0
O1226 O 0.89341 0.1415 0.76859 0.0
O1227 O 0.853 0.21954 0.77979 0.0
O1228 O 0.87258 0.263 0.7579 0.0
O1229 O 0.90028 0.15218 0.79464 0.0
O1230 O 0.89694 0.19674 0.7504 0.0
O1231 O 0.89706 0.25341 0.74274 0.0
C1232 C 0.97547 0.24498 0.76697 0.0
C1233 C 0.8995 0.36698 0.7477 0.0
C1234 C 0.86637 0.40502 0.75019 0.0
C1235 C 0.83379 0.37465 0.74221 0.0
C1236 C 0.86629 0.33707 0.73997 0.0
C1237 C 0.83378 0.34099 0.73724 0.0
C1238 C 0.89941 0.40095 0.75283 0.0
C1239 C 0.92695 0.27403 0.79783 0.0
C1240 C 0.93328 0.36175 0.75101 0.0
C1241 C 0.09702 0.36579 0.74357 0.0
C1242 C 0.10199 0.37618 0.76025 0.0
C1243 C 0.84603 0.23881 0.76842 0.0
C1244 C 0.8667 0.08595 0.78628 0.0
C1245 C 0.84424 0.01614 0.78369 0.0
C1246 C 0.81221 1.00782 0.79373 0.0
C1247 C 0.83471 0.07637 0.79662 0.0
C1248 C 0.87136 0.0554 0.77973 0.0
C1249 C 0.80747 0.03774 0.80009 0.0
C1250 C 0.89247 0.21896 0.73932 0.0
C1251 C 0.89528 0.1277 0.78293 0.0
H1252 H 0.80829 0.37702 0.7396 0.0
H1253 H 0.8654 0.31054 0.73602 0.0
H1254 H 0.80842 0.31783 0.73121 0.0
H1255 H 0.92467 0.42372 0.75909 0.0
H1256 H 0.79106 0.97796 0.79685 0.0
H1257 H 0.83102 0.09873 0.80235 0.0
H1258 H 0.89623 0.0621 0.772 0.0
H1259 H 0.78295 0.03101 0.80802 0.0
Eu1260 Eu 0.32842 0.09571 0.59825 0.0
C1261 C 0.36027 0.24286 0.55623 0.0
N1262 N 0.37203 0.21659 0.55329 0.0
C1263 C 0.35881 0.21662 0.5245 0.0
C1264 C 0.34775 0.2575 0.5432 0.0
C1265 C 0.3722 0.20389 0.5377 0.0
C1266 C 0.34652 0.24355 0.52725 0.0
C1267 C 0.35223 0.28515 0.57542 0.0
C1268 C 0.36179 0.25592 0.57226 0.0
C1269 C 0.34126 0.30082 0.56235 0.0
C1270 C 0.33816 0.28645 0.54637 0.0
Eu1271 Eu 0.39731 0.19951 0.57598 0.0
N1272 N 0.37423 0.24146 0.5846 0.0
C1273 C 0.35524 0.29876 0.59154 0.0
C1274 C 0.37956 0.2566 0.60009 0.0
C1275 C 0.36896 0.2844 0.60392 0.0
H1276 H 0.38358 0.18472 0.53531 0.0
H1277 H 0.37283 0.29583 0.6163 0.0
H1278 H 0.32529 0.11342 0.63861 0.0
H1279 H 0.35194 0.98395 0.57074 0.0
H1280 H 0.39387 0.24917 0.60941 0.0
H1281 H 0.3481 0.32113 0.59446 0.0
H1282 H 0.32547 0.02888 0.5727 0.0
H1283 H 0.3588 0.20631 0.51216 0.0
H1284 H 0.33522 0.32426 0.56447 0.0
H1285 H 0.32915 0.29856 0.53648 0.0
H1286 H 0.34952 0.10212 0.66491 0.0
H1287 H 0.33693 0.254 0.51694 0.0
H1288 H 0.3864 0.97634 0.59455 0.0
N1289 N 0.34709 0.08369 0.62431 0.0
C1290 C 0.36368 0.06086 0.62447 0.0
C1291 C 0.35396 0.0907 0.6536 0.0
C1292 C 0.3775 0.05332 0.63921 0.0
C1293 C 0.34072 0.09741 0.63867 0.0
C1294 C 0.37314 0.06927 0.65385 0.0
N1295 N 0.3496 0.04989 0.59619 0.0
C1296 C 0.34272 0.02739 0.5826 0.0
C1297 C 0.3792 0.01715 0.60976 0.0
C1298 C 0.36481 0.04324 0.60995 0.0
C1299 C 0.3759 0.99682 0.59522 0.0
C1300 C 0.35664 1.00122 0.5817 0.0
H1301 H 0.38346 0.06429 0.66544 0.0
H1302 H 0.40516 0.02336 0.65011 0.0
H1303 H 0.40644 0.99146 0.6243 0.0
O1304 O 0.27391 0.04931 0.58779 0.0
O1305 O 0.39469 0.11948 0.59927 0.0
O1306 O 0.41747 0.15589 0.57558 0.0
O1307 O 0.27816 0.06139 0.61392 0.0
O1308 O 0.32836 0.09455 0.5701 0.0
O1309 O 0.38454 0.14788 0.55934 0.0
O1310 O 0.45101 0.25163 0.58397 0.0
O1311 O 0.33197 0.16946 0.57173 0.0
O1312 O 0.30926 0.14085 0.59674 0.0
O1313 O 0.44459 0.23347 0.55867 0.0
O1314 O 0.4035 0.19363 0.60398 0.0
O1315 O 0.34042 0.15073 0.61112 0.0
C1316 C 0.42174 0.13717 0.58791 0.0
C1317 C 0.23602 0.99662 0.60578 0.0
C1318 C 0.17564 0.93372 0.60508 0.0
C1319 C 0.19364 0.9182 0.61511 0.0
C1320 C 0.25347 0.98019 0.61542 0.0
C1321 C 0.23232 0.94115 0.62002 0.0
C1322 C 0.19746 0.97326 0.6004 0.0
C1323 C 0.35312 0.11295 0.55798 0.0
C1324 C 0.25683 0.03853 0.6021 0.0
C1325 C 0.39403 0.02916 0.63893 0.0
C1326 C 0.39481 0.01104 0.62423 0.0
C1327 C 0.30586 0.15774 0.58344 0.0
C1328 C 0.47685 0.30163 0.56377 0.0
C1329 C 0.51643 0.3725 0.56745 0.0
C1330 C 0.49701 0.37747 0.55398 0.0
C1331 C 0.45856 0.3079 0.55023 0.0
C1332 C 0.50612 0.33421 0.57231 0.0
C1333 C 0.46836 0.34545 0.5455 0.0
C1334 C 0.37555 0.17786 0.6151 0.0
C1335 C 0.46483 0.26129 0.5691 0.0
H1336 H 0.17776 0.88843 0.61949 0.0
H1337 H 0.28312 0.99771 0.61969 0.0
H1338 H 0.24574 0.92879 0.62769 0.0
H1339 H 0.18462 0.98613 0.59267 0.0
H1340 H 0.50466 0.40631 0.54967 0.0
H1341 H 0.43671 0.28383 0.54316 0.0
H1342 H 0.52056 0.32976 0.58272 0.0
H1343 H 0.45395 0.34978 0.53507 0.0
Eu1344 Eu 0.96313 0.25326 0.59509 0.0
C1345 C 0.80691 0.13056 0.5592 0.0
N1346 N 0.83197 0.16912 0.55652 0.0
C1347 C 0.83249 0.15726 0.52759 0.0
C1348 C 0.79482 0.1036 0.54611 0.0
C1349 C 0.84363 0.18292 0.54092 0.0
C1350 C 0.80837 0.11738 0.53021 0.0
C1351 C 0.76659 0.07823 0.57812 0.0
C1352 C 0.79311 0.118 0.57509 0.0
C1353 C 0.75507 0.0513 0.56515 0.0
C1354 C 0.76927 0.06392 0.54921 0.0
Eu1355 Eu 0.84976 0.2099 0.57993 0.0
N1356 N 0.80493 0.14463 0.58748 0.0
C1357 C 0.75187 0.06671 0.59405 0.0
C1358 C 0.7896 0.13356 0.60293 0.0
C1359 C 0.76336 0.09451 0.60649 0.0
H1360 H 0.86107 0.21372 0.53854 0.0
H1361 H 0.75148 0.08597 0.61877 0.0
H1362 H 0.96035 0.24677 0.63689 0.0
H1363 H 0.05303 0.38211 0.55779 0.0
H1364 H 0.79638 0.15465 0.61253 0.0
H1365 H 0.73096 0.03659 0.59681 0.0
H1366 H 0.0139 0.31165 0.56391 0.0
H1367 H 0.84223 0.16832 0.51527 0.0
H1368 H 0.73485 0.02066 0.56727 0.0
H1369 H 0.75987 0.0428 0.53932 0.0
H1370 H 0.97316 0.28957 0.66076 0.0
H1371 H 0.79971 0.09759 0.51984 0.0
H1372 H 0.06533 0.43019 0.57978 0.0
N1373 N 0.97821 0.29208 0.61921 0.0
C1374 C 0.99784 0.33133 0.61682 0.0
C1375 C 0.9795 0.30169 0.64844 0.0
C1376 C 1.00733 0.35726 0.63019 0.0
C1377 C 0.97121 0.27726 0.63482 0.0
C1378 C 0.9969 0.34185 0.6461 0.0
N1379 N 1.00234 0.32001 0.58859 0.0
C1380 C 0.01848 0.33248 0.57338 0.0
C1381 C 0.03334 0.38619 0.59831 0.0
C1382 C 1.01086 0.34574 0.60111 0.0
C1383 C 0.04792 0.39933 0.58244 0.0
C1384 C 0.04096 0.37231 0.56998 0.0
H1385 H 1.00371 0.36076 0.6567 0.0
H1386 H 0.03532 0.41796 0.63744 0.0
H1387 H 0.058 0.44328 0.6095 0.0
O1388 O 1.00743 0.24698 0.58155 0.0
O1389 O 0.94268 0.29495 0.58627 0.0
O1390 O 0.8828 0.26051 0.59699 0.0
O1391 O 1.00786 0.24759 0.60815 0.0
O1392 O 0.94279 0.23045 0.56966 0.0
O1393 O 0.89928 0.24885 0.56167 0.0
O1394 O 0.79079 0.20044 0.58364 0.0
O1395 O 0.87755 0.17236 0.57628 0.0
O1396 O 0.92135 0.18777 0.59766 0.0
O1397 O 0.83033 0.24464 0.56616 0.0
O1398 O 0.85691 0.211 0.6082 0.0
O1399 O 0.9173 0.21658 0.614 0.0
C1400 C 0.91032 0.29327 0.59103 0.0
C1401 C 0.06792 0.27038 0.59489 0.0
C1402 C 0.13085 0.27371 0.59269 0.0
C1403 C 0.14887 0.31278 0.59804 0.0
C1404 C 0.08641 0.30937 0.59993 0.0
C1405 C 0.12679 0.33049 0.60141 0.0
C1406 C 0.09009 0.25292 0.59097 0.0
C1407 C 0.93132 0.2471 0.55894 0.0
C1408 C 0.02547 0.24645 0.59483 0.0
C1409 C 0.02815 0.39764 0.62735 0.0
C1410 C 0.04116 0.41207 0.61144 0.0
C1411 C 0.89406 0.1622 0.58778 0.0
C1412 C 0.76579 0.23766 0.56931 0.0
C1413 C 0.70058 0.22897 0.5734 0.0
C1414 C 0.71065 0.2605 0.56264 0.0
C1415 C 0.77488 0.26913 0.55874 0.0
C1416 C 0.72837 0.21742 0.57659 0.0
C1417 C 0.74743 0.28034 0.55542 0.0
C1418 C 0.88131 0.20691 0.6181 0.0
C1419 C 0.79613 0.22754 0.57318 0.0
H1420 H 0.17999 0.3296 0.6 0.0
H1421 H 0.06963 0.32314 0.60309 0.0
H1422 H 0.14099 0.36045 0.60553 0.0
H1423 H 0.07532 0.22297 0.58678 0.0
H1424 H 0.68984 0.26968 0.55965 0.0
H1425 H 0.8034 0.28541 0.55312 0.0
H1426 H 0.72116 0.19337 0.58492 0.0
H1427 H 0.75475 0.30463 0.54724 0.0
Eu1428 Eu 0.80041 0.72406 0.59459 0.0
C1429 C 0.91852 0.69975 0.5509 0.0
N1430 N 0.87961 0.68464 0.54866 0.0
C1431 C 0.8895 0.69806 0.51974 0.0
C1432 C 0.94456 0.71488 0.53751 0.0
C1433 C 0.86473 0.683 0.53335 0.0
C1434 C 0.9296 0.71423 0.52182 0.0
C1435 C 0.97217 0.71316 0.56919 0.0
C1436 C 0.93224 0.69935 0.56663 0.0
C1437 C 0.99821 0.72846 0.55589 0.0
C1438 C 0.98449 0.72959 0.54012 0.0
Eu1439 Eu 0.84032 0.65946 0.57235 0.0
N1440 N 0.90648 0.68516 0.57938 0.0
C1441 C 0.98465 0.71059 0.58502 0.0
C1442 C 0.91846 0.68206 0.59475 0.0
C1443 C 0.95773 0.69517 0.59786 0.0
H1444 H 0.83371 0.66951 0.53152 0.0
H1445 H 0.96709 0.69259 0.61008 0.0
H1446 H 0.80463 0.71572 0.63546 0.0
H1447 H 0.67481 0.68808 0.55537 0.0
H1448 H 0.89783 0.66832 0.60457 0.0
H1449 H 0.01485 0.71966 0.58739 0.0
H1450 H 0.74425 0.72052 0.56271 0.0
H1451 H 0.87761 0.69683 0.50761 0.0
H1452 H 0.02902 0.73934 0.55765 0.0
H1453 H 1.00494 0.7414 0.52998 0.0
H1454 H 0.75919 0.68514 0.65885 0.0
H1455 H 0.94866 0.7256 0.51122 0.0
H1456 H 0.62502 0.65017 0.57651 0.0
N1457 N 0.75957 0.69791 0.61777 0.0
C1458 C 0.72061 0.6801 0.61493 0.0
C1459 C 0.74802 0.68326 0.64653 0.0
C1460 C 0.69369 0.66195 0.62783 0.0
C1461 C 0.77363 0.70037 0.63329 0.0
C1462 C 0.70789 0.66359 0.64377 0.0
N1463 N 0.73446 0.69738 0.58679 0.0
C1464 C 0.72308 0.70213 0.57157 0.0
C1465 C 0.66749 0.66161 0.59563 0.0
C1466 C 0.70768 0.67973 0.59898 0.0
C1467 C 0.65562 0.66361 0.5796 0.0
C1468 C 0.68359 0.6847 0.5676 0.0
H1469 H 0.68817 0.65012 0.65405 0.0
H1470 H 0.63248 0.62849 0.63418 0.0
H1471 H 0.60956 0.6283 0.606 0.0
O1472 O 0.80178 0.77736 0.58616 0.0
O1473 O 0.76373 0.65728 0.59609 0.0
O1474 O 0.77653 0.63948 0.5712 0.0
O1475 O 0.81239 0.77075 0.61179 0.0
O1476 O 0.81652 0.73319 0.56745 0.0
O1477 O 0.80111 0.6737 0.55643 0.0
O1478 O 0.83718 0.60565 0.58153 0.0
O1479 O 0.87942 0.72562 0.57178 0.0
O1480 O 0.86548 0.74732 0.59571 0.0
O1481 O 0.83032 0.61207 0.55565 0.0
O1482 O 0.82943 0.65261 0.6005 0.0
O1483 O 0.84122 0.7129 0.60964 0.0
C1484 C 0.75426 0.63185 0.58411 0.0
C1485 C 0.78802 0.81295 0.60597 0.0
C1486 C 0.78697 0.87412 0.6079 0.0
C1487 C 0.75481 0.85534 0.61865 0.0
C1488 C 0.75547 0.79478 0.61634 0.0
C1489 C 0.73896 0.81596 0.6226 0.0
C1490 C 0.80312 0.85219 0.60151 0.0
C1491 C 0.80333 0.7081 0.55526 0.0
C1492 C 0.8088 0.79273 0.60083 0.0
C1493 C 0.65362 0.64289 0.62444 0.0
C1494 C 0.64056 0.64271 0.60838 0.0
C1495 C 0.88981 0.7505 0.584 0.0
C1496 C 0.86189 0.57657 0.56302 0.0
C1497 C 0.8814 0.52674 0.56473 0.0
C1498 C 0.91315 0.54969 0.5544 0.0
C1499 C 0.89381 0.59845 0.55257 0.0
C1500 C 0.85592 0.54054 0.56925 0.0
C1501 C 0.91936 0.5853 0.54845 0.0
C1502 C 0.83844 0.67896 0.61222 0.0
C1503 C 0.83464 0.59107 0.56691 0.0
H1504 H 0.74212 0.87108 0.62434 0.0
H1505 H 0.74344 0.76457 0.6199 0.0
H1506 H 0.71426 0.80202 0.63085 0.0
H1507 H 0.82775 0.86549 0.59318 0.0
H1508 H 0.93316 0.53984 0.55085 0.0
H1509 H 0.8988 0.62552 0.5473 0.0
H1510 H 0.83126 0.52302 0.57719 0.0
H1511 H 0.94383 0.6026 0.54041 0.0
C1512 C 0.53056 0.92106 0.10964 0.0
C1513 C 0.51855 0.93471 0.09622 0.0
C1514 C 0.54636 0.89661 0.10728 0.0
C1515 C 0.5507 0.88599 0.09109 0.0
C1516 C 0.53842 0.89961 0.07751 0.0
C1517 C 0.5221 0.92341 0.08025 0.0
C1518 C 0.5587 0.88247 0.12211 0.0
C1519 C 0.54358 0.89003 0.06002 0.0
C1520 C 0.62699 0.85633 0.08353 0.0
C1521 C 0.60419 0.81589 0.08148 0.0
C1522 C 0.60993 0.87931 0.08653 0.0
C1523 C 0.56906 0.86155 0.08824 0.0
C1524 C 0.54578 0.82064 0.08669 0.0
C1525 C 0.5635 0.79839 0.08306 0.0
C1526 C 0.63583 0.92272 0.08783 0.0
C1527 C 0.50213 0.80041 0.08871 0.0
H1528 H 0.52772 0.92962 0.12201 0.0
H1529 H 0.51326 0.93421 0.06981 0.0
H1530 H 0.54419 0.85019 0.12198 0.0
H1531 H 0.59053 0.89385 0.12169 0.0
H1532 H 0.55164 0.89184 0.13388 0.0
H1533 H 0.53283 0.90322 0.05083 0.0
H1534 H 0.57485 0.90075 0.05757 0.0
H1535 H 0.52781 0.858 0.05823 0.0
H1536 H 0.6584 0.87026 0.08283 0.0
H1537 H 0.54523 0.76732 0.08122 0.0
H1538 H 0.63516 0.9317 0.10067 0.0
H1539 H 0.62501 0.93771 0.07967 0.0
H1540 H 0.66652 0.93247 0.0845 0.0
H1541 H 0.49461 0.80874 0.10062 0.0
H1542 H 0.48841 0.76818 0.08828 0.0
H1543 H 0.48936 0.80979 0.0788 0.0
C1544 C 0.21055 0.78341 0.08652 0.0
C1545 C 0.25081 0.79951 0.08441 0.0
C1546 C 0.18619 0.74348 0.08936 0.0
C1547 C 0.2024 0.71897 0.09097 0.0
C1548 C 0.24311 0.735 0.08945 0.0
C1549 C 0.26675 0.77489 0.08591 0.0
C1550 C 0.14295 0.72753 0.09052 0.0
C1551 C 0.26162 0.70993 0.0914 0.0
C1552 C 0.13833 0.6216 0.11214 0.0
C1553 C 0.12358 0.59631 0.09866 0.0
C1554 C 0.16484 0.66147 0.10988 0.0
C1555 C 0.17646 0.67638 0.09373 0.0
C1556 C 0.16194 0.6508 0.08009 0.0
C1557 C 0.13601 0.61105 0.08274 0.0
C1558 C 0.17999 0.68764 0.12477 0.0
C1559 C 0.1727 0.66558 0.06264 0.0
H1560 H 0.19779 0.80198 0.08592 0.0
H1561 H 0.29763 0.78649 0.08404 0.0
H1562 H 0.12748 0.70279 0.08187 0.0
H1563 H 0.13305 0.71646 0.10314 0.0
H1564 H 0.13458 0.7498 0.08771 0.0
H1565 H 0.29391 0.72725 0.09091 0.0
H1566 H 0.25278 0.69412 0.10333 0.0
H1567 H 0.25132 0.68767 0.08152 0.0
H1568 H 0.12902 0.61025 0.12448 0.0
H1569 H 0.12455 0.5917 0.07224 0.0
H1570 H 0.16993 0.70918 0.12447 0.0
H1571 H 0.21229 0.70421 0.12459 0.0
H1572 H 0.17006 0.67107 0.1365 0.0
H1573 H 0.16334 0.68717 0.06005 0.0
H1574 H 0.15905 0.64179 0.05341 0.0
H1575 H 0.20473 0.68065 0.06102 0.0
C1576 C 0.31131 0.57738 0.09921 0.0
C1577 C 0.28028 0.54393 0.09217 0.0
C1578 C 0.34788 0.58066 0.10134 0.0
C1579 C 0.35348 0.54952 0.09653 0.0
C1580 C 0.32184 0.51489 0.09017 0.0
C1581 C 0.28558 0.51252 0.08803 0.0
C1582 C 0.3809 0.61803 0.10819 0.0
C1583 C 0.32661 0.48079 0.08525 0.0
C1584 C 0.45605 0.57516 0.08454 0.0
C1585 C 0.46905 0.5656 0.09889 0.0
C1586 C 0.41837 0.56977 0.08359 0.0
C1587 C 0.39304 0.55425 0.0973 0.0
C1588 C 0.40604 0.54466 0.11184 0.0
C1589 C 0.44404 0.55085 0.11252 0.0
C1590 C 0.40566 0.58068 0.0679 0.0
C1591 C 0.37975 0.52758 0.12663 0.0
H1592 H 0.30719 0.60143 0.10277 0.0
H1593 H 0.26182 0.48665 0.08253 0.0
H1594 H 0.39405 0.61174 0.11897 0.0
H1595 H 0.40406 0.63233 0.09874 0.0
H1596 H 0.3713 0.63882 0.11202 0.0
H1597 H 0.29919 0.45599 0.08044 0.0
H1598 H 0.34951 0.48987 0.07568 0.0
H1599 H 0.33622 0.47061 0.09604 0.0
H1600 H 0.47512 0.58636 0.07392 0.0
H1601 H 0.45412 0.54402 0.12375 0.0
H1602 H 0.39738 0.60304 0.07054 0.0
H1603 H 0.37958 0.55484 0.06282 0.0
H1604 H 0.42885 0.59228 0.05835 0.0
H1605 H 0.39505 0.52378 0.13731 0.0
H1606 H 0.35465 0.49875 0.12338 0.0
H1607 H 0.36791 0.5465 0.13042 0.0
C1608 C 0.91138 0.49108 0.94186 0.0
C1609 C 0.92913 0.49489 0.92652 0.0
C1610 C 0.87886 0.4959 0.94347 0.0
C1611 C 0.86396 0.50523 0.92942 0.0
C1612 C 0.88215 0.50974 0.91393 0.0
C1613 C 0.91431 0.50414 0.91264 0.0
C1614 C 0.86026 0.4907 0.96021 0.0
C1615 C 0.86758 0.52036 0.89873 0.0
C1616 C 0.75782 0.47784 0.93219 0.0
C1617 C 0.76058 0.51289 0.93746 0.0
C1618 C 0.79124 0.47526 0.92908 0.0
C1619 C 0.82843 0.50871 0.93096 0.0
C1620 C 0.83148 0.54467 0.9354 0.0
C1621 C 0.79753 0.54631 0.93867 0.0
C1622 C 0.78676 0.4363 0.92445 0.0
C1623 C 0.87068 0.58111 0.93721 0.0
H1624 H 0.92306 0.48456 0.9527 0.0
H1625 H 0.92782 0.50694 0.90073 0.0
H1626 H 0.86016 0.51764 0.9638 0.0
H1627 H 0.8295 0.46683 0.95975 0.0
H1628 H 0.8756 0.48372 0.96991 0.0
H1629 H 0.88509 0.52291 0.88762 0.0
H1630 H 0.8368 0.49805 0.89637 0.0
H1631 H 0.86852 0.54852 0.90065 0.0
H1632 H 0.72942 0.45207 0.93085 0.0
H1633 H 0.80007 0.57346 0.94282 0.0
H1634 H 0.79929 0.42642 0.93428 0.0
H1635 H 0.80305 0.43899 0.91295 0.0
H1636 H 0.75583 0.41356 0.92264 0.0
H1637 H 0.88782 0.57689 0.94695 0.0
H1638 H 0.8681 0.60699 0.94037 0.0
H1639 H 0.88734 0.58711 0.92556 0.0
C1640 C 0.55356 0.29779 0.91219 0.0
C1641 C 0.56357 0.28843 0.9274 0.0
C1642 C 0.55825 0.33499 0.90938 0.0
C1643 C 0.57295 0.36321 0.92212 0.0
C1644 C 0.58265 0.35356 0.93751 0.0
C1645 C 0.57806 0.31653 0.9399 0.0
C1646 C 0.54708 0.344 0.89288 0.0
C1647 C 0.59844 0.38224 0.95153 0.0
C1648 C 0.61023 0.47064 0.91263 0.0
C1649 C 0.57777 0.47406 0.91686 0.0
C1650 C 0.60927 0.43473 0.91425 0.0
C1651 C 0.57486 0.40148 0.91993 0.0
C1652 C 0.5424 0.40506 0.92444 0.0
C1653 C 0.54452 0.44124 0.92308 0.0
C1654 C 0.64512 0.43243 0.91011 0.0
C1655 C 0.50554 0.37075 0.93106 0.0
H1656 H 0.54252 0.27624 0.90245 0.0
H1657 H 0.58538 0.30935 0.95177 0.0
H1658 H 0.52294 0.35026 0.89446 0.0
H1659 H 0.57208 0.37048 0.88753 0.0
H1660 H 0.53771 0.31958 0.88402 0.0
H1661 H 0.59389 0.36737 0.96361 0.0
H1662 H 0.6302 0.40114 0.94969 0.0
H1663 H 0.58505 0.40097 0.95205 0.0
H1664 H 0.63639 0.49596 0.90814 0.0
H1665 H 0.52002 0.44377 0.92715 0.0
H1666 H 0.63819 0.41016 0.90043 0.0
H1667 H 0.6549 0.42316 0.92115 0.0
H1668 H 0.6695 0.46078 0.90577 0.0
H1669 H 0.48366 0.37888 0.93486 0.0
H1670 H 0.51227 0.358 0.94187 0.0
H1671 H 0.4924 0.34776 0.9215 0.0
C1672 C 0.62147 0.1388 0.9024 0.0
C1673 C 0.5992 0.12503 0.91681 0.0
C1674 C 0.66053 0.16906 0.903 0.0
C1675 C 0.67714 0.18671 0.91831 0.0
C1676 C 0.65486 0.17236 0.9329 0.0
C1677 C 0.61641 0.14161 0.93197 0.0
C1678 C 0.68382 0.18249 0.88727 0.0
C1679 C 0.67127 0.19016 0.94951 0.0
C1680 C 0.78477 0.25338 0.92734 0.0
C1681 C 0.78773 0.2902 0.92687 0.0
C1682 C 0.74959 0.21941 0.92345 0.0
C1683 C 0.71646 0.22225 0.91919 0.0
C1684 C 0.7199 0.25944 0.9178 0.0
C1685 C 0.75556 0.29287 0.92135 0.0
C1686 C 0.74758 0.18042 0.92432 0.0
C1687 C 0.68517 0.26388 0.91367 0.0
H1688 H 0.60821 0.12627 0.89065 0.0
H1689 H 0.59962 0.13085 0.94321 0.0
H1690 H 0.6912 0.21281 0.88445 0.0
H1691 H 0.71163 0.18251 0.88876 0.0
H1692 H 0.66777 0.16367 0.87664 0.0
H1693 H 0.65007 0.17552 0.95967 0.0
H1694 H 0.69774 0.18832 0.95213 0.0
H1695 H 0.67997 0.22149 0.94944 0.0
H1696 H 0.80933 0.2508 0.93149 0.0
H1697 H 0.75777 0.32117 0.92038 0.0
H1698 H 0.74221 0.16767 0.91179 0.0
H1699 H 0.72303 0.15989 0.93225 0.0
H1700 H 0.77491 0.18279 0.9291 0.0
H1701 H 0.67093 0.24777 0.90225 0.0
H1702 H 0.69319 0.29485 0.91205 0.0
H1703 H 0.6634 0.25116 0.92374 0.0
C1704 C 0.205 0.12426 0.41514 0.0
C1705 C 0.24563 0.14049 0.41405 0.0
C1706 C 0.18843 0.14746 0.41896 0.0
C1707 C 0.2129 0.18805 0.42111 0.0
C1708 C 0.25371 0.2045 0.41991 0.0
C1709 C 0.26954 0.18052 0.41685 0.0
C1710 C 0.14478 0.12861 0.42059 0.0
C1711 C 0.28091 0.24755 0.42187 0.0
C1712 C 0.172 0.25521 0.41354 0.0
C1713 C 0.16973 0.26702 0.42957 0.0
C1714 C 0.18556 0.22917 0.41064 0.0
C1715 C 0.19604 0.21366 0.42413 0.0
C1716 C 0.19243 0.22441 0.4404 0.0
C1717 C 0.17972 0.25132 0.44291 0.0
C1718 C 0.19037 0.21972 0.39308 0.0
C1719 C 0.2027 0.20812 0.45515 0.0
H1720 H 0.18593 0.09352 0.41279 0.0
H1721 H 0.30089 0.1934 0.41665 0.0
H1722 H 0.13722 0.13641 0.43262 0.0
H1723 H 0.13321 0.13966 0.41084 0.0
H1724 H 0.12997 0.09636 0.41965 0.0
H1725 H 0.31124 0.2565 0.41822 0.0
H1726 H 0.27085 0.26418 0.41433 0.0
H1727 H 0.28103 0.25537 0.43496 0.0
H1728 H 0.1646 0.26747 0.40317 0.0
H1729 H 0.17783 0.26029 0.45532 0.0
H1730 H 0.17384 0.18778 0.39109 0.0
H1731 H 0.2215 0.22969 0.39065 0.0
H1732 H 0.18033 0.23377 0.384 0.0
H1733 H 0.18863 0.17595 0.45421 0.0
H1734 H 0.19371 0.21562 0.46692 0.0
H1735 H 0.23459 0.21996 0.45553 0.0
C1736 C 0.96302 0.08477 0.4298 0.0
C1737 C 0.96071 0.11676 0.42379 0.0
C1738 C 0.92943 0.04863 0.43232 0.0
C1739 C 0.89255 0.04454 0.42908 0.0
C1740 C 0.88977 0.07722 0.424 0.0
C1741 C 0.92394 0.11297 0.42131 0.0
C1742 C 0.93355 0.01437 0.43771 0.0
C1743 C 0.85076 0.07402 0.42083 0.0
C1744 C 0.81315 0.94403 0.41627 0.0
C1745 C 0.79287 0.92925 0.43108 0.0
C1746 C 0.84534 0.98174 0.41544 0.0
C1747 C 0.85731 1.00533 0.42973 0.0
C1748 C 0.83678 0.99072 0.44469 0.0
C1749 C 0.80506 0.95263 0.44523 0.0
C1750 C 0.86679 0.99619 0.39928 0.0
C1751 C 0.84827 0.01528 0.46009 0.0
H1752 H 0.99126 0.08774 0.43215 0.0
H1753 H 0.92184 0.13746 0.41662 0.0
H1754 H 0.91538 1.00038 0.44876 0.0
H1755 H 0.92298 0.99216 0.42779 0.0
H1756 H 0.96417 0.02292 0.44059 0.0
H1757 H 0.85348 0.10262 0.4178 0.0
H1758 H 0.83594 0.05371 0.41046 0.0
H1759 H 0.8318 0.0618 0.43181 0.0
H1760 H 0.80376 0.92621 0.40526 0.0
H1761 H 0.78981 0.94117 0.45676 0.0
H1762 H 0.89752 1.00352 0.40081 0.0
H1763 H 0.86711 0.0232 0.39542 0.0
H1764 H 0.85346 0.97431 0.38928 0.0
H1765 H 0.87909 0.02539 0.46321 0.0
H1766 H 0.82978 0.9992 0.47082 0.0
H1767 H 0.8458 0.04161 0.45795 0.0
C1768 C 0.09495 0.86707 0.44531 0.0
C1769 C 0.11955 0.87945 0.43154 0.0
C1770 C 0.05476 0.85256 0.44361 0.0
C1771 C 0.03881 0.84978 0.42772 0.0
C1772 C 0.06366 0.8625 0.4138 0.0
C1773 C 0.10375 0.87771 0.41592 0.0
C1774 C 0.02938 0.83991 0.4588 0.0
C1775 C 0.0478 0.85893 0.39658 0.0
C1776 C 0.9323 0.77559 0.42054 0.0
C1777 C 0.91555 0.79926 0.41879 0.0
C1778 C 0.97222 0.79169 0.42339 0.0
C1779 C 0.99603 0.83238 0.42547 0.0
C1780 C 0.97921 0.85647 0.42452 0.0
C1781 C 0.93941 0.83979 0.42085 0.0
C1782 C 0.98903 0.7651 0.42379 0.0
C1783 C 1.0034 0.89996 0.42705 0.0
H1784 H 0.10712 0.86867 0.45743 0.0
H1785 H 0.12259 0.88717 0.40521 0.0
H1786 H 0.01196 0.85476 0.45929 0.0
H1787 H 1.00861 0.80813 0.4583 0.0
H1788 H 0.04664 0.84636 0.47031 0.0
H1789 H 0.07106 0.86998 0.38707 0.0
H1790 H 0.02661 0.82795 0.39387 0.0
H1791 H 0.03203 0.87536 0.39557 0.0
H1792 H 0.91432 0.74425 0.41954 0.0
H1793 H 0.92738 0.8588 0.41927 0.0
H1794 H 1.00198 0.76691 0.43604 0.0
H1795 H 0.0125 0.77469 0.41445 0.0
H1796 H 0.96693 0.73421 0.42135 0.0
H1797 H 0.02029 0.90638 0.43865 0.0
H1798 H 0.98528 0.91408 0.42756 0.0
H1799 H 0.02463 0.91326 0.41683 0.0
C1800 C 0.51911 0.93559 0.26656 0.0
C1801 C 0.47858 0.91249 0.26819 0.0
C1802 C 0.54255 0.91888 0.26406 0.0
C1803 C 0.52519 0.87805 0.26223 0.0
C1804 C 0.48421 0.8545 0.26314 0.0
C1805 C 0.46146 0.87186 0.26642 0.0
C1806 C 0.586 0.94522 0.26329 0.0
C1807 C 0.46444 0.81094 0.26079 0.0
C1808 C 0.58982 0.84411 0.24216 0.0
C1809 C 0.6026 0.83203 0.25586 0.0
C1810 C 0.56341 0.85771 0.24394 0.0
C1811 C 0.55015 0.86012 0.25987 0.0
C1812 C 0.56256 0.84739 0.27371 0.0
C1813 C 0.58805 0.83284 0.27149 0.0
C1814 C 0.55036 0.87023 0.22882 0.0
C1815 C 0.55055 0.85102 0.29097 0.0
H1816 H 0.53282 0.96701 0.26728 0.0
H1817 H 0.43032 0.85334 0.26785 0.0
H1818 H 0.60106 0.93302 0.27059 0.0
H1819 H 0.59543 0.94765 0.25029 0.0
H1820 H 0.59526 0.97499 0.2679 0.0
H1821 H 0.43222 0.7971 0.26054 0.0
H1822 H 0.47428 0.80412 0.2491 0.0
H1823 H 0.47264 0.79768 0.27093 0.0
H1824 H 0.60076 0.84325 0.23002 0.0
H1825 H 0.59791 0.82366 0.28213 0.0
H1826 H 0.56226 0.90217 0.22909 0.0
H1827 H 0.51815 0.85619 0.22863 0.0
H1828 H 0.5602 0.86284 0.21725 0.0
H1829 H 0.56144 0.88218 0.29381 0.0
H1830 H 0.56208 0.83904 0.30038 0.0
H1831 H 0.51838 0.83561 0.29199 0.0
C1832 C 0.20635 0.77075 0.27078 0.0
C1833 C 0.21286 0.78749 0.25507 0.0
C1834 C 0.19062 0.73046 0.27275 0.0
C1835 C 0.18241 0.70658 0.25865 0.0
C1836 C 0.18976 0.72356 0.24274 0.0
C1837 C 0.20442 0.76378 0.24114 0.0
C1838 C 0.18185 0.71338 0.2899 0.0
C1839 C 0.18192 0.69924 0.2274 0.0
C1840 C 0.17249 0.60712 0.26553 0.0
C1841 C 0.13188 0.58222 0.26476 0.0
C1842 C 0.18942 0.64747 0.26306 0.0
C1843 C 0.1652 0.66372 0.26055 0.0
C1844 C 0.12437 0.63903 0.26004 0.0
C1845 C 0.10833 0.59869 0.26168 0.0
C1846 C 0.23321 0.67272 0.26322 0.0
C1847 C 0.09748 0.65528 0.25808 0.0
H1848 H 0.21236 0.78899 0.28156 0.0
H1849 H 0.20942 0.77676 0.22898 0.0
H1850 H 0.15051 0.69126 0.29094 0.0
H1851 H 0.19856 0.69837 0.29239 0.0
H1852 H 0.18906 0.73588 0.29953 0.0
H1853 H 0.19189 0.71734 0.21605 0.0
H1854 H 0.19676 0.68185 0.22823 0.0
H1855 H 0.15027 0.67845 0.22626 0.0
H1856 H 0.19133 0.59541 0.26829 0.0
H1857 H 0.07712 0.58015 0.26056 0.0
H1858 H 0.24239 0.69311 0.27379 0.0
H1859 H 0.24326 0.69061 0.25183 0.0
H1860 H 0.24802 0.65529 0.26414 0.0
H1861 H 0.10224 0.67565 0.26834 0.0
H1862 H 0.0663 0.63226 0.25795 0.0
H1863 H 0.10427 0.67196 0.24645 0.0
C1864 C 0.4542 0.54357 0.27522 0.0
C1865 C 0.47007 0.58409 0.27524 0.0
C1866 C 0.41578 0.51857 0.27018 0.0
C1867 C 0.3925 0.53435 0.26494 0.0
C1868 C 0.40906 0.57536 0.26402 0.0
C1869 C 0.44778 0.59983 0.26915 0.0
C1870 C 0.39957 0.47516 0.27119 0.0
C1871 C 0.38519 0.59334 0.25854 0.0
C1872 C 0.29639 0.46429 0.2441 0.0
C1873 C 0.27045 0.4523 0.25744 0.0
C1874 C 0.33609 0.4917 0.2462 0.0
C1875 C 0.35006 0.5078 0.262 0.0
C1876 C 0.32367 0.49668 0.27538 0.0
C1877 C 0.28426 0.46924 0.27292 0.0
C1878 C 0.36319 0.50275 0.23162 0.0
C1879 C 0.33724 0.51288 0.29246 0.0
H1880 H 0.47156 0.53136 0.27973 0.0
H1881 H 0.4599 0.63115 0.26923 0.0
H1882 H 0.37554 0.46223 0.28033 0.0
H1883 H 0.38727 0.46178 0.25911 0.0
H1884 H 0.42194 0.46748 0.27474 0.0
H1885 H 0.40332 0.62534 0.25673 0.0
H1886 H 0.36981 0.57992 0.24686 0.0
H1887 H 0.36267 0.58765 0.26795 0.0
H1888 H 0.28568 0.45217 0.23201 0.0
H1889 H 0.2644 0.46038 0.28328 0.0
H1890 H 0.38472 0.49314 0.23377 0.0
H1891 H 0.37972 0.53487 0.23011 0.0
H1892 H 0.3474 0.48942 0.21999 0.0
H1893 H 0.35805 0.50407 0.29705 0.0
H1894 H 0.31277 0.50253 0.30137 0.0
H1895 H 0.3528 0.54519 0.29212 0.0
C1896 C 0.83241 0.58429 0.75002 0.0
C1897 C 0.83636 0.60341 0.76504 0.0
C1898 C 0.84072 0.55394 0.7487 0.0
C1899 C 0.85372 0.54242 0.76272 0.0
C1900 C 0.85868 0.56219 0.77785 0.0
C1901 C 0.84947 0.59215 0.77888 0.0
C1902 C 0.8345 0.53348 0.73235 0.0
C1903 C 0.87307 0.55125 0.79301 0.0
C1904 C 0.83064 0.43719 0.7617 0.0
C1905 C 0.86525 0.44064 0.75543 0.0
C1906 C 0.82703 0.47013 0.76468 0.0
C1907 C 0.85907 0.50775 0.76166 0.0
C1908 C 0.89483 0.51166 0.75623 0.0
C1909 C 0.89748 0.47808 0.75314 0.0
C1910 C 0.78822 0.46451 0.77029 0.0
C1911 C 0.9298 0.55131 0.7531 0.0
H1912 H 0.82242 0.59282 0.73923 0.0
H1913 H 0.85184 0.60625 0.79058 0.0
H1914 H 0.86151 0.53392 0.72844 0.0
H1915 H 0.81145 0.5025 0.73362 0.0
H1916 H 0.82577 0.54702 0.72249 0.0
H1917 H 0.87634 0.5701 0.80371 0.0
H1918 H 0.85255 0.52051 0.79639 0.0
H1919 H 0.90164 0.55361 0.79042 0.0
H1920 H 0.80584 0.40851 0.76393 0.0
H1921 H 0.92433 0.48118 0.74827 0.0
H1922 H 0.77584 0.47474 0.76053 0.0
H1923 H 0.79195 0.48216 0.78145 0.0
H1924 H 0.7669 0.43354 0.77307 0.0
H1925 H 0.92353 0.56599 0.7429 0.0
H1926 H 0.95612 0.54961 0.74987 0.0
H1927 H 0.93616 0.56982 0.76419 0.0
C1928 C 0.62658 0.41107 0.77126 0.0
C1929 C 0.62411 0.44323 0.7656 0.0
C1930 C 0.59302 0.37498 0.774 0.0
C1931 C 0.55599 0.37111 0.77137 0.0
C1932 C 0.55316 0.40408 0.76681 0.0
C1933 C 0.58728 0.43975 0.7639 0.0
C1934 C 0.59731 0.3404 0.77864 0.0
C1935 C 0.51411 0.40126 0.7644 0.0
C1936 C 0.47813 0.27217 0.75639 0.0
C1937 C 0.45802 0.25449 0.77095 0.0
C1938 C 0.50953 0.31032 0.75637 0.0
C1939 C 0.52087 0.33167 0.77126 0.0
C1940 C 0.50014 0.31439 0.78597 0.0
C1941 C 0.4693 0.27566 0.78569 0.0
C1942 C 0.53105 0.3275 0.74042 0.0
C1943 C 0.51075 0.33664 0.80198 0.0
H1944 H 0.6549 0.41375 0.77303 0.0
H1945 H 0.58499 0.46436 0.75952 0.0
H1946 H 0.57883 0.32506 0.78945 0.0
H1947 H 0.58732 0.31936 0.76827 0.0
H1948 H 0.62791 0.34892 0.78156 0.0
H1949 H 0.51686 0.42958 0.76081 0.0
H1950 H 0.49719 0.3794 0.75478 0.0
H1951 H 0.49719 0.39125 0.776 0.0
H1952 H 0.46948 0.2561 0.74491 0.0
H1953 H 0.4543 0.26183 0.79702 0.0
H1954 H 0.56195 0.33526 0.74174 0.0
H1955 H 0.53073 0.35466 0.73746 0.0
H1956 H 0.51821 0.30709 0.72989 0.0
H1957 H 0.54096 0.34505 0.8055 0.0
H1958 H 0.49087 0.31943 0.81219 0.0
H1959 H 0.50973 0.36393 0.80046 0.0
C1960 C 0.61896 0.12204 0.75953 0.0
C1961 C 0.59952 0.14286 0.75661 0.0
C1962 C 0.65951 0.14096 0.76091 0.0
C1963 C 0.68165 0.18208 0.76048 0.0
C1964 C 0.6624 0.20368 0.75825 0.0
C1965 C 0.62175 0.18387 0.75595 0.0
C1966 C 0.67863 0.11666 0.76276 0.0
C1967 C 0.68473 0.24765 0.75838 0.0
C1968 C 0.78107 0.22066 0.78021 0.0
C1969 C 0.80524 0.22944 0.7664 0.0
C1970 C 0.74123 0.20774 0.77848 0.0
C1971 C 0.72482 0.20195 0.76251 0.0
C1972 C 0.74936 0.21149 0.74851 0.0
C1973 C 0.78942 0.22575 0.75064 0.0
C1974 C 0.71654 0.19891 0.79377 0.0
C1975 C 0.73296 0.20419 0.73128 0.0
H1976 H 0.6026 0.09066 0.76077 0.0
H1977 H 0.6077 0.20073 0.75347 0.0
H1978 H 0.70213 0.12564 0.75348 0.0
H1979 H 0.69189 0.12159 0.77514 0.0
H1980 H 0.65782 0.085 0.76131 0.0
H1981 H 0.66527 0.26022 0.75746 0.0
H1982 H 0.70197 0.25828 0.7699 0.0
H1983 H 0.7056 0.25876 0.74796 0.0
H1984 H 0.79329 0.22347 0.79242 0.0
H1985 H 0.80799 0.23192 0.73994 0.0
H1986 H 0.69941 0.16694 0.79568 0.0
H1987 H 0.6957 0.2097 0.79247 0.0
H1988 H 0.73457 0.21218 0.80493 0.0
H1989 H 0.71379 0.17239 0.72939 0.0
H1990 H 0.75615 0.21543 0.72173 0.0
H1991 H 0.71488 0.21801 0.72948 0.0
C1992 C 0.19244 0.27658 0.58325 0.0
C1993 C 0.15444 0.25461 0.58938 0.0
C1994 C 0.21643 0.26029 0.58148 0.0
C1995 C 0.20176 0.22045 0.58512 0.0
C1996 C 0.16266 0.19734 0.59032 0.0
C1997 C 0.13972 0.21481 0.59273 0.0
C1998 C 0.25784 0.28612 0.5761 0.0
C1999 C 0.14525 0.15428 0.59357 0.0
C2000 C 0.26099 0.17551 0.56921 0.0
C2001 C 0.27865 0.17292 0.5837 0.0
C2002 C 0.23496 0.18986 0.56949 0.0
C2003 C 0.22801 0.20365 0.5845 0.0
C2004 C 0.24693 0.2022 0.59906 0.0
C2005 C 0.27128 0.18605 0.59854 0.0
C2006 C 0.21539 0.19046 0.55364 0.0
C2007 C 0.24229 0.21865 0.61513 0.0
H2008 H 0.20383 0.30689 0.58 0.0
H2009 H 0.11057 0.19731 0.59761 0.0
H2010 H 0.27766 0.28311 0.58481 0.0
H2011 H 0.26186 0.27686 0.56374 0.0
H2012 H 0.26609 0.31732 0.57546 0.0
H2013 H 0.11334 0.13956 0.59572 0.0
H2014 H 0.15096 0.14014 0.58298 0.0
H2015 H 0.15912 0.14975 0.60456 0.0
H2016 H 0.26703 0.1657 0.55769 0.0
H2017 H 0.28557 0.1848 0.6097 0.0
H2018 H 0.23241 0.21953 0.5478 0.0
H2019 H 0.1854 0.18483 0.55585 0.0
H2020 H 0.21405 0.16849 0.54478 0.0
H2021 H 0.25063 0.24966 0.61343 0.0
H2022 H 0.26043 0.21681 0.62513 0.0
H2023 H 0.21142 0.20272 0.61911 0.0
C2024 C 0.78015 0.9334 0.60338 0.0
C2025 C 0.80395 0.91648 0.60377 0.0
C2026 C 0.79574 0.97343 0.60065 0.0
C2027 C 0.83594 0.99724 0.59734 0.0
C2028 C 0.86005 0.98037 0.59704 0.0
C2029 C 0.84399 0.94046 0.60057 0.0
C2030 C 0.76904 0.99022 0.60137 0.0
C2031 C 0.90293 1.00458 0.59317 0.0
C2032 C 0.86629 0.0946 0.57663 0.0
C2033 C 0.88109 0.1204 0.58996 0.0
C2034 C 0.85236 0.05457 0.57875 0.0
C2035 C 0.85274 0.03994 0.59464 0.0
C2036 C 0.86784 0.066 0.60812 0.0
C2037 C 0.88219 0.10594 0.60558 0.0
C2038 C 0.83707 0.02796 0.564 0.0
C2039 C 0.86776 0.05155 0.62535 0.0
H2040 H 0.74907 0.91541 0.60525 0.0
H2041 H 0.86315 0.9284 0.60107 0.0
H2042 H 0.78141 0.01615 0.60951 0.0
H2043 H 0.76622 0.99976 0.58888 0.0
H2044 H 0.7395 0.96881 0.60591 0.0
H2045 H 0.91715 0.98659 0.59219 0.0
H2046 H 0.90722 0.02051 0.5814 0.0
H2047 H 0.91782 0.02669 0.60294 0.0
H2048 H 0.86576 0.10576 0.5645 0.0
H2049 H 0.89322 0.12574 0.61595 0.0
H2050 H 0.80563 1.00689 0.56563 0.0
H2051 H 0.85217 0.01087 0.56286 0.0
H2052 H 0.84097 0.04425 0.55235 0.0
H2053 H 0.83745 0.03059 0.62916 0.0
H2054 H 0.88066 0.07562 0.63448 0.0
H2055 H 0.88431 0.03583 0.62566 0.0
C2056 C 0.11865 0.8687 0.59741 0.0
C2057 C 0.13409 0.9088 0.59994 0.0
C2058 C 0.07902 0.84404 0.59415 0.0
C2059 C 0.05418 0.85986 0.59251 0.0
C2060 C 0.06976 0.90055 0.59413 0.0
C2061 C 0.10933 0.92444 0.59811 0.0
C2062 C 0.06358 0.80084 0.5929 0.0
C2063 C 0.04444 0.91871 0.59204 0.0
C2064 C 0.95614 0.79424 0.5722 0.0
C2065 C 0.93142 0.78005 0.58591 0.0
C2066 C 0.99602 0.82109 0.57408 0.0
C2067 C 0.01158 0.83343 0.59009 0.0
C2068 C 0.98662 0.81917 0.60396 0.0
C2069 C 0.94681 0.79308 0.60167 0.0
C2070 C 0.02149 0.83599 0.55896 0.0
C2071 C 1.00212 0.83051 0.62127 0.0
H2072 H 0.13745 0.85623 0.59818 0.0
H2073 H 0.12044 0.9552 0.60018 0.0
H2074 H 0.03934 0.7851 0.60177 0.0
H2075 H 0.05192 0.79076 0.58036 0.0
H2076 H 0.08624 0.79285 0.5954 0.0
H2077 H 0.06169 0.95105 0.59196 0.0
H2078 H 0.0278 0.90873 0.58036 0.0
H2079 H 0.02298 0.9093 0.60223 0.0
H2080 H 0.94427 0.78438 0.55999 0.0
H2081 H 0.92789 0.78195 0.61233 0.0
H2082 H 0.04283 0.82568 0.559 0.0
H2083 H 0.03825 0.86831 0.55904 0.0
H2084 H 1.00436 0.82601 0.54739 0.0
H2085 H 0.02444 0.82202 0.62363 0.0
H2086 H 0.97887 0.81649 0.63072 0.0
H2087 H 0.01647 0.86256 0.62276 0.0
C2088 C 0.54756 0.01786 0.04601 0.0
C2089 C 0.53803 0.04333 0.05395 0.0
C2090 C 0.54981 0.01719 0.02878 0.0
C2091 C 0.54037 0.04124 0.0192 0.0
C2092 C 0.53344 0.06907 0.0273 0.0
C2093 C 0.53271 0.06991 0.04462 0.0
C2094 C 0.55994 0.98893 0.02089 0.0
C2095 C 0.5244 0.09683 0.0182 0.0
C2096 C 0.55609 0.05859 0.97302 0.0
C2097 C 0.52153 0.02792 0.96664 0.0
C2098 C 0.56367 0.06182 0.99001 0.0
C2099 C 0.53493 0.03505 1.00099 0.0
C2100 C 0.50059 1.00288 0.99442 0.0
C2101 C 0.49475 0.99943 0.97728 0.0
C2102 C 0.60195 0.09467 0.99618 0.0
C2103 C 0.46887 0.97215 1.00507 0.0
H2104 H 0.55147 0.99711 0.05328 0.0
H2105 H 0.52468 0.08916 0.05078 0.0
H2106 H 0.5328 0.96228 0.01717 0.0
H2107 H 0.57806 1.00178 1.00971 0.0
H2108 H 0.57584 0.98013 0.02957 0.0
H2109 H 0.54459 0.12707 0.02237 0.0
H2110 H 0.52661 0.09585 1.00465 0.0
H2111 H 0.49457 0.0904 0.02144 0.0
H2112 H 0.57702 0.08043 0.96471 0.0
H2113 H 0.46793 0.9758 0.9723 0.0
H2114 H 0.61371 0.08437 1.00617 0.0
H2115 H 0.59749 0.11811 1.00127 0.0
H2116 H 0.62393 0.1074 0.98616 0.0
H2117 H 0.46733 0.94378 1.00284 0.0
H2118 H 0.44025 0.96848 1.00141 0.0
H2119 H 0.47306 0.97848 0.01842 0.0
C2120 C 0.06782 0.52895 0.98033 0.0
C2121 C 0.0413 0.53148 0.96982 0.0
C2122 C 0.06337 0.52868 0.99754 0.0
C2123 C 0.032 0.53189 1.00434 0.0
C2124 C 1.00726 0.53784 0.99365 0.0
C2125 C 0.0117 0.53672 0.97655 0.0
C2126 C 0.09166 0.52313 1.00803 0.0
C2127 C 0.9745 0.54295 1.00021 0.0
C2128 C 0.99039 0.48411 0.046 0.0
C2129 C 0.01484 0.51369 0.0568 0.0
C2130 C 0.9945 0.48988 0.02883 0.0
C2131 C 0.02343 0.5265 0.02241 0.0
C2132 C 0.04582 0.55737 0.03344 0.0
C2133 C 0.04172 0.55037 0.05046 0.0
C2134 C 0.96863 0.45567 0.01798 0.0
C2135 C 0.07586 0.59719 0.0273 0.0
H2136 H 0.09008 0.52385 0.97514 0.0
H2137 H 0.99055 0.53772 0.9684 0.0
H2138 H 0.12093 0.54944 1.00695 0.0
H2139 H 0.08367 0.51806 0.02123 0.0
H2140 H 0.09427 0.49823 1.0033 0.0
H2141 H 0.96284 0.55447 0.99066 0.0
H2142 H 0.95043 0.51436 1.00445 0.0
H2143 H 0.98444 0.56304 0.01092 0.0
H2144 H 0.97024 0.45546 0.05088 0.0
H2145 H 0.06113 0.57309 0.05884 0.0
H2146 H 0.93817 0.44944 0.0192 0.0
H2147 H 0.96903 0.42924 0.02226 0.0
H2148 H 0.97671 0.46035 1.00478 0.0
H2149 H 0.10177 0.59617 0.02284 0.0
H2150 H 0.08539 0.61954 0.03716 0.0
H2151 H 0.0642 0.60629 0.01683 0.0
C2152 C 0.50633 0.52791 0.97079 0.0
C2153 C 0.54457 0.54516 0.96482 0.0
C2154 C 0.49792 0.51698 0.98757 0.0
C2155 C 0.52873 0.52529 0.99881 0.0
C2156 C 0.56723 0.54252 0.99267 0.0
C2157 C 0.57423 0.55092 0.97588 0.0
C2158 C 0.45589 0.49654 0.99291 0.0
C2159 C 0.60191 0.55312 1.00369 0.0
C2160 C 0.52237 0.5539 0.04257 0.0
C2161 C 0.53361 0.53099 0.05178 0.0
C2162 C 0.51855 0.55091 0.02544 0.0
C2163 C 0.52263 0.52181 0.01713 0.0
C2164 C 0.5284 0.49481 0.02661 0.0
C2165 C 0.53483 0.5003 0.0438 0.0
C2166 C 0.51323 0.58117 0.01626 0.0
C2167 C 0.53001 0.46129 0.01868 0.0
H2168 H 0.48287 0.5222 0.96238 0.0
H2169 H 0.60381 0.5632 0.97158 0.0
H2170 H 0.45155 0.486 1.00582 0.0
H2171 H 0.44414 0.51658 0.99144 0.0
H2172 H 0.43853 0.47125 0.98472 0.0
H2173 H 0.62918 0.57714 0.99832 0.0
H2174 H 0.5982 0.56218 0.01615 0.0
H2175 H 0.60585 0.52746 1.00497 0.0
H2176 H 0.51931 0.5766 0.04861 0.0
H2177 H 0.54224 0.48156 0.05076 0.0
H2178 H 0.48343 0.56739 0.01109 0.0
H2179 H 0.53422 0.59374 1.00591 0.0
H2180 H 0.5172 0.60547 0.02436 0.0
H2181 H 0.51332 0.4345 0.0262 0.0
H2182 H 0.56061 0.46768 0.01837 0.0
H2183 H 0.51814 0.45537 1.00597 0.0
C2184 C 0.21047 0.35119 0.38234 0.0
C2185 C 0.20071 0.37805 0.38871 0.0
C2186 C 0.21369 0.34746 0.36532 0.0
C2187 C 0.20527 0.36998 0.3543 0.0
C2188 C 0.19755 0.39884 0.36075 0.0
C2189 C 0.1958 0.40274 0.37791 0.0
C2190 C 0.22354 0.3175 0.35917 0.0
C2191 C 0.18908 0.42471 0.34992 0.0
C2192 C 0.22536 0.38057 0.30825 0.0
C2193 C 0.19032 0.35064 0.30188 0.0
C2194 C 0.2316 0.38566 0.32531 0.0
C2195 C 0.20142 0.36108 0.33628 0.0
C2196 C 0.16666 0.32932 0.32981 0.0
C2197 C 0.16186 0.32423 0.31266 0.0
C2198 C 0.26966 0.4187 0.33153 0.0
C2199 C 0.13337 0.30121 0.34062 0.0
H2200 H 0.21343 0.33145 0.39068 0.0
H2201 H 0.18726 0.42283 0.38281 0.0
H2202 H 0.19649 0.29111 0.35517 0.0
H2203 H 0.2435 0.32883 0.34843 0.0
H2204 H 0.2373 0.30875 0.36893 0.0
H2205 H 0.21303 0.45529 0.35126 0.0
H2206 H 0.186 0.41696 0.33669 0.0
H2207 H 0.16201 0.42387 0.35411 0.0
H2208 H 0.2473 0.4011 0.29985 0.0
H2209 H 0.13449 0.30146 0.30769 0.0
H2210 H 0.2804 0.40901 0.34213 0.0
H2211 H 0.26519 0.44274 0.33583 0.0
H2212 H 0.29237 0.43034 0.32177 0.0
H2213 H 0.1319 0.27251 0.34037 0.0
H2214 H 0.10531 0.29663 0.33563 0.0
H2215 H 0.13592 0.31069 0.3536 0.0
C2216 C 0.70518 0.88874 0.37931 0.0
C2217 C 0.67926 0.85168 0.38565 0.0
C2218 C 0.70963 0.89566 0.36227 0.0
C2219 C 0.68951 0.86421 0.35124 0.0
C2220 C 0.66267 0.82675 0.35758 0.0
C2221 C 0.65722 0.8212 0.37473 0.0
C2222 C 0.73791 0.93612 0.35616 0.0
C2223 C 0.64193 0.79187 0.34637 0.0
C2224 C 0.6773 0.87029 0.30518 0.0
C2225 C 0.70724 0.86506 0.29889 0.0
C2226 C 0.6731 0.87333 0.32219 0.0
C2227 C 0.6986 0.86948 0.33322 0.0
C2228 C 0.73096 0.8675 0.32681 0.0
C2229 C 0.73512 0.86583 0.30965 0.0
C2230 C 0.64022 0.87882 0.3283 0.0
C2231 C 0.76086 0.86588 0.33778 0.0
H2232 H 0.72376 0.91197 0.38766 0.0
H2233 H 0.63847 0.7922 0.37963 0.0
H2234 H 0.76562 0.93757 0.35265 0.0
H2235 H 0.72631 0.94339 0.3451 0.0
H2236 H 0.74437 0.95846 0.36578 0.0
H2237 H 0.62585 0.76413 0.35336 0.0
H2238 H 0.6209 0.79511 0.33851 0.0
H2239 H 0.66309 0.78984 0.33807 0.0
H2240 H 0.65594 0.87008 0.29679 0.0
H2241 H 0.75823 0.86165 0.30477 0.0
H2242 H 0.64977 0.89917 0.3389 0.0
H2243 H 0.61578 0.85047 0.3325 0.0
H2244 H 0.62914 0.89023 0.31845 0.0
H2245 H 0.78689 0.89543 0.33843 0.0
H2246 H 0.77053 0.84628 0.3325 0.0
H2247 H 0.75032 0.85621 0.35049 0.0
C2248 C 0.2045 0.90561 0.30925 0.0
C2249 C 0.19334 0.8742 0.29852 0.0
C2250 C 0.20395 0.90036 0.32643 0.0
C2251 C 0.19085 0.86257 0.33299 0.0
C2252 C 0.17736 0.83046 0.32215 0.0
C2253 C 0.17938 0.83677 0.30506 0.0
C2254 C 0.21991 0.93566 0.33748 0.0
C2255 C 0.16322 0.78981 0.32855 0.0
C2256 C 0.22982 0.85832 0.37555 0.0
C2257 C 0.20193 0.85935 0.38573 0.0
C2258 C 0.22601 0.85768 0.35828 0.0
C2259 C 0.19298 0.85715 0.35113 0.0
C2260 C 0.16299 0.85417 0.36154 0.0
C2261 C 0.16814 0.85594 0.37867 0.0
C2262 C 0.25848 0.85909 0.34805 0.0
C2263 C 0.12615 0.85087 0.35461 0.0
H2264 H 0.21684 0.93475 0.30418 0.0
H2265 H 0.17207 0.81267 0.29676 0.0
H2266 H 0.23218 0.9633 0.33038 0.0
H2267 H 0.19655 0.93364 0.34563 0.0
H2268 H 0.24306 0.93678 0.34552 0.0
H2269 H 0.14926 0.76747 0.31875 0.0
H2270 H 0.18824 0.78792 0.33357 0.0
H2271 H 0.14206 0.78297 0.33873 0.0
H2272 H 0.25614 0.86127 0.38098 0.0
H2273 H 0.14636 0.85638 0.38659 0.0
H2274 H 0.25589 0.86307 0.3347 0.0
H2275 H 0.25884 0.8315 0.34984 0.0
H2276 H 0.28696 0.88301 0.35246 0.0
H2277 H 0.13258 0.8792 0.34922 0.0
H2278 H 0.10336 0.84265 0.36421 0.0
H2279 H 0.11441 0.82885 0.34462 0.0
C2280 C 0.85686 0.66569 0.71041 0.0
C2281 C 0.85053 0.69533 0.71621 0.0
C2282 C 0.85962 0.66041 0.69346 0.0
C2283 C 0.85372 0.68398 0.68202 0.0
C2284 C 0.84803 0.71456 0.68794 0.0
C2285 C 0.84756 0.72044 0.70499 0.0
C2286 C 0.8675 0.62875 0.68783 0.0
C2287 C 0.84124 0.74071 0.67654 0.0
C2288 C 0.88085 0.69898 0.63674 0.0
C2289 C 0.84593 0.67176 0.62925 0.0
C2290 C 0.88483 0.701 0.65394 0.0
C2291 C 0.85252 0.6762 0.66394 0.0
C2292 C 0.81802 0.64659 0.65634 0.0
C2293 C 0.81537 0.64456 0.63904 0.0
C2294 C 0.92299 0.73129 0.66132 0.0
C2295 C 0.78268 0.61797 0.66604 0.0
H2296 H 0.85909 0.64625 0.71918 0.0
H2297 H 0.84206 0.74298 0.70954 0.0
H2298 H 0.84034 0.60403 0.68284 0.0
H2299 H 0.88958 0.63966 0.67784 0.0
H2300 H 0.8779 0.61768 0.69808 0.0
H2301 H 0.82048 0.74856 0.6821 0.0
H2302 H 0.86915 0.7682 0.67463 0.0
H2303 H 0.82986 0.72732 0.66436 0.0
H2304 H 0.90449 0.72013 0.62913 0.0
H2305 H 0.78812 0.62385 0.63324 0.0
H2306 H 0.92999 0.71988 0.67251 0.0
H2307 H 0.92088 0.75715 0.66492 0.0
H2308 H 0.94734 0.74097 0.65238 0.0
H2309 H 0.77681 0.588 0.66347 0.0
H2310 H 0.75674 0.61926 0.66182 0.0
H2311 H 0.78564 0.62266 0.67952 0.0
C2312 C 0.35515 0.20182 0.63921 0.0
C2313 C 0.38153 0.1921 0.63227 0.0
C2314 C 0.35304 0.20559 0.65631 0.0
C2315 C 0.37619 0.19699 0.66689 0.0
C2316 C 0.40505 0.19001 0.65979 0.0
C2317 C 0.40772 0.18834 0.64253 0.0
C2318 C 0.32439 0.21667 0.66298 0.0
C2319 C 0.43232 0.18223 0.66996 0.0
C2320 C 0.39121 0.21496 0.71308 0.0
C2321 C 0.35975 0.18105 0.71958 0.0
C2322 C 0.39524 0.2219 0.69603 0.0
C2323 C 0.36849 0.19304 0.68509 0.0
C2324 C 0.33521 0.15974 0.69178 0.0
C2325 C 0.33103 0.15462 0.70896 0.0
C2326 C 0.42916 0.25945 0.68981 0.0
C2327 C 0.30415 0.12803 0.68127 0.0
H2328 H 0.33506 0.20513 0.63125 0.0
H2329 H 0.42801 0.18062 0.63717 0.0
H2330 H 0.29661 0.18988 0.66597 0.0
H2331 H 0.33551 0.23433 0.67437 0.0
H2332 H 0.31799 0.23345 0.65375 0.0
H2333 H 0.43065 0.15471 0.66587 0.0
H2334 H 0.46268 0.20587 0.66772 0.0
H2335 H 0.42664 0.18033 0.68336 0.0
H2336 H 0.4133 0.23568 0.72137 0.0
H2337 H 0.30676 0.12831 0.71401 0.0
H2338 H 0.42124 0.26987 0.67856 0.0
H2339 H 0.45367 0.25464 0.68672 0.0
H2340 H 0.43957 0.28266 0.69932 0.0
H2341 H 0.31024 0.13184 0.6679 0.0
H2342 H 0.27599 0.12687 0.68356 0.0
H2343 H 0.30017 0.09931 0.68505 0.0
C2344 C 0.89354 0.18173 0.64422 0.0
C2345 C 0.86986 0.19225 0.63527 0.0
C2346 C 0.89104 0.17805 0.66137 0.0
C2347 C 0.86099 0.18037 0.66977 0.0
C2348 C 0.83261 0.18396 0.6604 0.0
C2349 C 0.8382 0.19138 0.64333 0.0
C2350 C 0.9226 0.17463 0.67035 0.0
C2351 C 0.79736 0.18222 0.66829 0.0
C2352 C 0.86956 0.16855 0.71625 0.0
C2353 C 0.8814 0.20632 0.72186 0.0
C2354 C 0.8594 0.15838 0.69956 0.0
C2355 C 0.86444 0.18754 0.68795 0.0
C2356 C 0.87706 0.22577 0.69363 0.0
C2357 C 0.88282 0.23374 0.71044 0.0
C2358 C 0.84363 0.11644 0.6947 0.0
C2359 C 0.88613 0.25934 0.68209 0.0
H2360 H 0.91645 0.17942 0.63797 0.0
H2361 H 0.81863 0.19789 0.63653 0.0
H2362 H 0.93231 0.19302 0.68158 0.0
H2363 H 0.91122 0.14389 0.67408 0.0
H2364 H 0.94854 0.1833 0.66244 0.0
H2365 H 0.77091 0.16205 0.6612 0.0
H2366 H 0.7932 0.17224 0.68129 0.0
H2367 H 0.79985 0.21135 0.66769 0.0
H2368 H 0.8677 0.14674 0.72484 0.0
H2369 H 0.89014 0.26268 0.71444 0.0
H2370 H 0.86662 0.10857 0.69636 0.0
H2371 H 0.8329 0.11022 0.68183 0.0
H2372 H 0.81932 0.09727 0.70306 0.0
H2373 H 0.89874 0.25685 0.67027 0.0
H2374 H 0.90705 0.28783 0.6877 0.0
H2375 H 0.85903 0.25992 0.67945 0.0
C2376 C 0.33333 0.92886 0.21006 0.0
C2377 C 0.29949 0.93192 0.21011 0.0
C2378 C 0.36053 0.94407 0.1972 0.0
C2379 C 0.35369 0.96227 0.18365 0.0
C2380 C 0.31956 0.96541 0.18347 0.0
C2381 C 0.29298 0.95045 0.19675 0.0
C2382 C 0.39643 0.94007 0.19804 0.0
C2383 C 0.31091 0.9841 0.16912 0.0
C2384 C 0.44046 0.02336 0.15519 0.0
C2385 C 0.43495 0.99635 0.14283 0.0
C2386 C 0.41391 0.01305 0.16842 0.0
C2387 C 0.38092 0.97501 0.16923 0.0
C2388 C 0.3753 0.9478 0.15675 0.0
C2389 C 0.40239 0.95863 0.14389 0.0
C2390 C 0.42123 0.04276 0.1816 0.0
C2391 C 0.34068 0.90696 0.15702 0.0
H2392 H 0.33891 0.91453 0.22017 0.0
H2393 H 0.26718 0.95326 0.19666 0.0
H2394 H 0.39571 0.92077 0.18799 0.0
H2395 H 0.42298 0.96887 0.19625 0.0
H2396 H 0.39891 0.92774 0.20997 0.0
H2397 H 0.28389 0.98548 0.17103 0.0
H2398 H 0.33554 0.01406 0.16712 0.0
H2399 H 0.30769 0.96736 0.15771 0.0
H2400 H 0.46521 0.05263 0.15445 0.0
H2401 H 0.39759 0.93735 0.13447 0.0
H2402 H 0.42478 0.03191 0.19371 0.0
H2403 H 0.39582 0.04718 0.18264 0.0
H2404 H 0.44764 0.0713 0.17905 0.0
H2405 H 0.34217 0.89115 0.16802 0.0
H2406 H 0.33921 0.89005 0.14587 0.0
H2407 H 0.31329 0.90797 0.15792 0.0
C2408 C 0.03347 0.43249 0.15817 0.0
C2409 C 0.05941 0.45066 0.14504 0.0
C2410 C 0.04312 0.41544 0.17132 0.0
C2411 C 0.07926 0.41612 0.17123 0.0
C2412 C 0.10508 0.4338 0.15786 0.0
C2413 C 0.0951 0.4511 0.14514 0.0
C2414 C 0.01508 0.39749 0.1855 0.0
C2415 C 0.14394 0.43543 0.15715 0.0
C2416 C 0.13196 0.42036 0.21075 0.0
C2417 C 0.12595 0.38235 0.21229 0.0
C2418 C 0.11525 0.43081 0.198 0.0
C2419 C 0.09273 0.40307 0.18589 0.0
C2420 C 0.08668 0.36464 0.18713 0.0
C2421 C 0.10315 0.3546 0.2004 0.0
C2422 C 0.12255 0.47207 0.19734 0.0
C2423 C 0.06337 0.33442 0.17428 0.0
H2424 H 1.00573 0.43161 0.1582 0.0
H2425 H 0.11561 0.46496 0.13516 0.0
H2426 H 1.00885 0.36727 0.1877 0.0
H2427 H 0.02844 0.41428 0.19692 0.0
H2428 H 0.98718 0.39696 0.18329 0.0
H2429 H 0.15894 0.44668 0.14516 0.0
H2430 H 0.16313 0.45468 0.16706 0.0
H2431 H 0.1401 0.40604 0.15923 0.0
H2432 H 0.1499 0.44249 0.21961 0.0
H2433 H 0.09819 0.3252 0.20145 0.0
H2434 H 0.09467 0.47197 0.196 0.0
H2435 H 0.14075 0.48734 0.18645 0.0
H2436 H 0.13762 0.48905 0.20853 0.0
H2437 H 0.03418 0.33148 0.17299 0.0
H2438 H 0.05974 0.30546 0.17734 0.0
H2439 H 0.07807 0.34388 0.16215 0.0
C2440 C 0.62688 0.72479 0.20966 0.0
C2441 C 0.66539 0.75576 0.21107 0.0
C2442 C 0.61567 0.69711 0.19703 0.0
C2443 C 0.64305 0.70115 0.18489 0.0
C2444 C 0.68167 0.73314 0.18583 0.0
C2445 C 0.69252 0.75983 0.19901 0.0
C2446 C 0.57435 0.66341 0.19671 0.0
C2447 C 0.71139 0.7393 0.17282 0.0
C2448 C 0.61804 0.61441 0.15635 0.0
C2449 C 0.6008 0.62265 0.14302 0.0
C2450 C 0.63204 0.63959 0.17015 0.0
C2451 C 0.62973 0.67426 0.17037 0.0
C2452 C 0.61236 0.68251 0.15696 0.0
C2453 C 0.59744 0.65639 0.14378 0.0
C2454 C 0.64932 0.62921 0.18447 0.0
C2455 C 0.60976 0.71929 0.1564 0.0
H2456 H 0.6055 0.72128 0.21883 0.0
H2457 H 0.72233 0.78343 0.2 0.0
H2458 H 0.55891 0.6659 0.1858 0.0
H2459 H 0.57425 0.63545 0.19562 0.0
H2460 H 0.55775 0.66226 0.20792 0.0
H2461 H 0.74019 0.76537 0.17532 0.0
H2462 H 0.71506 0.71338 0.1721 0.0
H2463 H 0.70105 0.7428 0.16059 0.0
H2464 H 0.62112 0.58876 0.15592 0.0
H2465 H 0.58403 0.66337 0.13372 0.0
H2466 H 0.63379 0.62817 0.196 0.0
H2467 H 0.68023 0.652 0.1861 0.0
H2468 H 0.64775 0.60066 0.18274 0.0
H2469 H 0.59054 0.71885 0.16642 0.0
H2470 H 0.59815 0.7229 0.14448 0.0
H2471 H 0.63894 0.74518 0.15838 0.0
C2472 C 0.02731 0.44091 0.86644 0.0
C2473 C 1.00464 0.43018 0.88081 0.0
C2474 C 0.01669 0.41499 0.85297 0.0
C2475 C 0.98358 0.37704 0.85418 0.0
C2476 C 0.96142 0.36588 0.86881 0.0
C2477 C 0.9716 0.39269 0.88164 0.0
C2478 C 0.04069 0.42832 0.83744 0.0
C2479 C 0.92636 0.32563 0.87089 0.0
C2480 C 0.92408 0.32137 0.81698 0.0
C2481 C 0.93774 0.29549 0.81371 0.0
C2482 C 0.9401 0.34904 0.82959 0.0
C2483 C 0.96932 0.34984 0.83983 0.0
C2484 C 0.98173 0.3223 0.83724 0.0
C2485 C 0.96603 0.2956 0.82408 0.0
C2486 C 0.92623 0.37802 0.83171 0.0
C2487 C 0.01193 0.32143 0.84822 0.0
H2488 H 0.05299 0.46954 0.86565 0.0
H2489 H 0.95339 0.38368 0.89247 0.0
H2490 H 0.05631 0.41188 0.83587 0.0
H2491 H 0.02162 0.42233 0.82655 0.0
H2492 H 0.0625 0.45992 0.83771 0.0
H2493 H 0.91482 0.32017 0.88368 0.0
H2494 H 0.9028 0.32203 0.86246 0.0
H2495 H 0.93394 0.30304 0.86763 0.0
H2496 H 0.90208 0.32138 0.80906 0.0
H2497 H 0.97696 0.27595 0.82155 0.0
H2498 H 0.95144 0.40815 0.83159 0.0
H2499 H 0.91149 0.3735 0.84379 0.0
H2500 H 0.9056 0.3755 0.82189 0.0
H2501 H 0.03991 0.34914 0.84694 0.0
H2502 H 0.01685 0.29689 0.8452 0.0
H2503 H 1.00287 0.31884 0.86131 0.0
C2504 C 0.63327 0.59293 0.86017 0.0
C2505 C 0.63252 0.61547 0.87327 0.0
C2506 C 0.65938 0.61014 0.84692 0.0
C2507 C 0.68741 0.65052 0.84733 0.0
C2508 C 0.68567 0.6736 0.8603 0.0
C2509 C 0.65752 0.65591 0.87285 0.0
C2510 C 0.65753 0.58461 0.83278 0.0
C2511 C 0.71484 0.71661 0.86143 0.0
C2512 C 0.77792 0.67087 0.82265 0.0
C2513 C 0.77637 0.69233 0.80927 0.0
C2514 C 0.751 0.65976 0.83573 0.0
C2515 C 0.71985 0.6678 0.83484 0.0
C2516 C 0.71905 0.69055 0.82148 0.0
C2517 C 0.74827 0.70382 0.8093 0.0
C2518 C 0.75522 0.63752 0.84992 0.0
C2519 C 0.68549 0.6977 0.81872 0.0
H2520 H 0.61409 0.56163 0.86048 0.0
H2521 H 0.65699 0.67334 0.88303 0.0
H2522 H 0.66474 0.60072 0.82091 0.0
H2523 H 0.67881 0.57468 0.83485 0.0
H2524 H 0.62818 0.55833 0.83176 0.0
H2525 H 0.74489 0.72137 0.86095 0.0
H2526 H 0.71152 0.7323 0.85082 0.0
H2527 H 0.71136 0.72982 0.8729 0.0
H2528 H 0.79925 0.66137 0.82262 0.0
H2529 H 0.74728 0.72075 0.79902 0.0
H2530 H 0.74297 0.60657 0.84633 0.0
H2531 H 0.74017 0.63875 0.86122 0.0
H2532 H 0.78646 0.6491 0.85284 0.0
H2533 H 0.66553 0.67632 0.80954 0.0
H2534 H 0.69607 0.72729 0.81355 0.0
H2535 H 0.66826 0.69425 0.82996 0.0
C2536 C 0.36081 0.0672 0.81112 0.0
C2537 C 0.37351 0.10712 0.81097 0.0
C2538 C 0.37382 0.0508 0.82321 0.0
C2539 C 0.39829 0.0745 0.83612 0.0
C2540 C 0.40789 0.11414 0.83688 0.0
C2541 C 0.3965 0.13026 0.82401 0.0
C2542 C 0.36363 0.00886 0.82138 0.0
C2543 C 0.43125 0.13997 0.85101 0.0
C2544 C 0.41016 0.02551 0.87456 0.0
C2545 C 0.44977 0.03714 0.87399 0.0
C2546 C 0.39274 0.0369 0.86232 0.0
C2547 C 0.41494 0.05848 0.84849 0.0
C2548 C 0.45401 0.06655 0.847 0.0
C2549 C 0.47133 0.05696 0.86002 0.0
C2550 C 0.35165 0.02857 0.8651 0.0
C2551 C 0.47807 0.08667 0.83195 0.0
H2552 H 0.34275 0.04924 0.80111 0.0
H2553 H 0.40665 0.16124 0.82388 0.0
H2554 H 0.35602 0.99345 0.83338 0.0
H2555 H 0.33894 0.99269 0.81276 0.0
H2556 H 0.38938 0.00809 0.8165 0.0
H2557 H 0.42998 0.16733 0.85139 0.0
H2558 H 0.42042 0.12443 0.86292 0.0
H2559 H 0.46215 0.14781 0.84973 0.0
H2560 H 0.39332 0.00958 0.88521 0.0
H2561 H 0.50208 0.06627 0.85954 0.0
H2562 H 0.3352 1.00284 0.87323 0.0
H2563 H 0.33532 0.02348 0.85344 0.0
H2564 H 0.35284 0.05419 0.8712 0.0
H2565 H 0.50429 0.08348 0.83111 0.0
H2566 H 0.48781 0.11819 0.83245 0.0
H2567 H 0.46053 0.07469 0.82058 0.0
C2568 C 0.98411 0.25247 0.54057 0.0
C2569 C 0.95573 0.26302 0.54382 0.0
C2570 C 0.01147 0.26988 0.52791 0.0
C2571 C 1.00992 0.29776 0.51756 0.0
C2572 C 0.9807 0.30791 0.52035 0.0
C2573 C 0.95409 0.29065 0.53355 0.0
C2574 C 0.04204 0.25814 0.5256 0.0
C2575 C 0.9775 0.33682 0.50933 0.0
C2576 C 0.10074 0.35742 0.49088 0.0
C2577 C 0.09102 0.33447 0.4766 0.0
C2578 C 0.07422 0.34674 0.50418 0.0
C2579 C 0.03677 0.31297 0.503 0.0
C2580 C 0.02651 0.29063 0.48841 0.0
C2581 C 0.05374 0.30122 0.47564 0.0
C2582 C 0.08664 0.37087 0.5197 0.0
C2583 C 0.98698 0.25461 0.48642 0.0
H2584 H 0.98564 0.23086 0.54822 0.0
H2585 H 0.93252 0.29918 0.53597 0.0
H2586 H 0.0374 0.24277 0.51368 0.0
H2587 H 0.07148 0.28436 0.52522 0.0
H2588 H 0.04142 0.23867 0.53559 0.0
H2589 H 0.95347 0.34186 0.51312 0.0
H2590 H 1.00522 0.36504 0.5095 0.0
H2591 H 0.97246 0.32619 0.49643 0.0
H2592 H 0.12912 0.38337 0.49178 0.0
H2593 H 0.04537 0.28308 0.46477 0.0
H2594 H 0.08737 0.35304 0.5301 0.0
H2595 H 0.06522 0.38 0.52294 0.0
H2596 H 0.11586 0.39724 0.51846 0.0
H2597 H 0.98444 0.23145 0.49487 0.0
H2598 H 0.98188 0.24306 0.47364 0.0
H2599 H 0.96361 0.26101 0.48972 0.0
C2600 C 0.69322 0.76973 0.4879 0.0
C2601 C 0.717 0.78509 0.47393 0.0
C2602 C 0.70469 0.75465 0.50126 0.0
C2603 C 0.74016 0.75397 0.50041 0.0
C2604 C 0.76365 0.7687 0.48621 0.0
C2605 C 0.75229 0.78465 0.47347 0.0
C2606 C 0.67929 0.7401 0.51639 0.0
C2607 C 0.80142 0.76829 0.48452 0.0
C2608 C 0.7981 0.75816 0.53841 0.0
C2609 C 0.78923 0.71928 0.54029 0.0
C2610 C 0.78096 0.76923 0.52601 0.0
C2611 C 0.75494 0.7411 0.51471 0.0
C2612 C 0.74658 0.70194 0.51619 0.0
C2613 C 0.76362 0.69142 0.52902 0.0
C2614 C 0.79085 0.81128 0.52499 0.0
C2615 C 0.71978 0.67125 0.50416 0.0
H2616 H 0.66597 0.76978 0.48849 0.0
H2617 H 0.7715 0.79672 0.463 0.0
H2618 H 0.67112 0.70943 0.51892 0.0
H2619 H 0.69574 0.75753 0.52725 0.0
H2620 H 0.65234 0.74186 0.51509 0.0
H2621 H 0.81442 0.77735 0.47205 0.0
H2622 H 0.8228 0.78833 0.49367 0.0
H2623 H 0.79662 0.73869 0.48706 0.0
H2624 H 0.81786 0.78007 0.54699 0.0
H2625 H 0.75626 0.6613 0.53043 0.0
H2626 H 0.76382 0.81307 0.52468 0.0
H2627 H 0.80704 0.82459 0.51344 0.0
H2628 H 0.80891 0.82884 0.53554 0.0
H2629 H 0.69093 0.66937 0.50417 0.0
H2630 H 0.7157 0.64205 0.50709 0.0
H2631 H 0.73174 0.67945 0.4915 0.0
C2632 C 0.30833 0.97255 0.47885 0.0
C2633 C 0.26806 0.95341 0.47634 0.0
C2634 C 0.32581 1.0006 0.49138 0.0
C2635 C 0.30207 1.00706 0.50258 0.0
C2636 C 0.26093 0.98465 0.50093 0.0
C2637 C 0.24459 0.95933 0.48744 0.0
C2638 C 0.36969 0.02401 0.49222 0.0
C2639 C 0.23364 0.98732 0.51314 0.0
C2640 C 0.35318 0.05905 0.54231 0.0
C2641 C 0.34677 0.09066 0.54253 0.0
C2642 C 0.33798 0.03101 0.52974 0.0
C2643 C 0.32006 0.03729 0.51586 0.0
C2644 C 0.31815 0.07218 0.51507 0.0
C2645 C 0.32987 0.09747 0.52874 0.0
C2646 C 0.33933 0.99396 0.53235 0.0
C2647 C 0.30283 0.08278 0.5001 0.0
H2648 H 0.3264 0.96778 0.47022 0.0
H2649 H 0.21333 0.94412 0.48558 0.0
H2650 H 0.38015 0.01284 0.50235 0.0
H2651 H 0.38344 0.02191 0.48063 0.0
H2652 H 0.37978 0.05517 0.4947 0.0
H2653 H 0.20674 0.95858 0.51459 0.0
H2654 H 0.24711 0.99732 0.52545 0.0
H2655 H 0.22471 0.00793 0.50841 0.0
H2656 H 0.36878 0.05524 0.55237 0.0
H2657 H 0.32503 0.12206 0.52872 0.0
H2658 H 0.37001 1.00113 0.53394 0.0
H2659 H 0.32585 0.97234 0.52233 0.0
H2660 H 0.32376 0.9799 0.54393 0.0
H2661 H 0.31842 0.11489 0.49833 0.0
H2662 H 0.27165 0.07326 0.50199 0.0
H2663 H 0.30586 0.06911 0.48869 0.0
C2664 C 0.45842 0.26799 0.09978 0.0
C2665 C 0.49285 0.30269 0.10368 0.0
C2666 C 0.45822 0.23283 0.09739 0.0
C2667 C 0.49359 0.23235 0.09821 0.0
C2668 C 0.52897 0.26785 0.10062 0.0
C2669 C 0.52817 0.30254 0.10351 0.0
C2670 C 0.41969 0.19569 0.09524 0.0
C2671 C 0.56747 0.26882 0.10109 0.0
C2672 C 0.48862 0.13944 0.11381 0.0
C2673 C 0.48816 0.12062 0.09914 0.0
C2674 C 0.49029 0.17564 0.11362 0.0
C2675 C 0.49277 0.19421 0.09838 0.0
C2676 C 0.49262 0.17543 0.0835 0.0
C2677 C 0.48961 0.13848 0.08404 0.0
C2678 C 0.48902 0.19381 0.12979 0.0
C2679 C 0.4964 0.19469 0.06703 0.0
H2680 H 0.43107 0.2679 0.09935 0.0
H2681 H 0.55498 0.329 0.10647 0.0
H2682 H 0.4205 0.17928 0.08434 0.0
H2683 H 0.41391 0.17667 0.10616 0.0
H2684 H 0.39508 0.20131 0.09379 0.0
H2685 H 0.59248 0.29899 0.10011 0.0
H2686 H 0.57003 0.25612 0.11287 0.0
H2687 H 0.56935 0.25104 0.09096 0.0
H2688 H 0.48721 0.12556 0.1255 0.0
H2689 H 0.48963 0.12412 0.07268 0.0
H2690 H 0.46454 0.19984 0.12975 0.0
H2691 H 0.51625 0.22205 0.13146 0.0
H2692 H 0.48544 0.17483 0.1405 0.0
H2693 H 0.47182 0.2001 0.06516 0.0
H2694 H 0.49693 0.17676 0.05663 0.0
H2695 H 0.52357 0.22343 0.06674 0.0
C2696 C 0.74612 0.28559 0.10178 0.0
C2697 C 0.73083 0.24849 0.10892 0.0
C2698 C 0.7863 0.30963 0.09923 0.0
C2699 C 0.81206 0.29608 0.10358 0.0
C2700 C 0.79675 0.25776 0.10977 0.0
C2701 C 0.75645 0.23461 0.11254 0.0
C2702 C 0.80137 0.35043 0.09275 0.0
C2703 C 0.82312 0.24194 0.1143 0.0
C2704 C 0.91747 0.36141 0.08983 0.0
C2705 C 0.93329 0.38495 0.10379 0.0
C2706 C 0.87842 0.33086 0.08975 0.0
C2707 C 0.85484 0.32401 0.10391 0.0
C2708 C 0.87149 0.34635 0.11828 0.0
C2709 C 0.91036 0.37629 0.11806 0.0
C2710 C 0.86202 0.30709 0.07431 0.0
C2711 C 0.84772 0.34003 0.13372 0.0
H2712 H 0.72671 0.29632 0.09845 0.0
H2713 H 0.74535 0.2062 0.11816 0.0
H2714 H 0.81827 0.37183 0.10253 0.0
H2715 H 0.82133 0.35619 0.08221 0.0
H2716 H 0.77752 0.35552 0.08872 0.0
H2717 H 0.80662 0.20987 0.11615 0.0
H2718 H 0.84542 0.249 0.10461 0.0
H2719 H 0.83871 0.25572 0.12589 0.0
H2720 H 0.93505 0.36768 0.07881 0.0
H2721 H 0.92241 0.39377 0.12904 0.0
H2722 H 0.8424 0.31563 0.06819 0.0
H2723 H 0.8445 0.27562 0.07732 0.0
H2724 H 0.8853 0.31156 0.06546 0.0
H2725 H 0.82426 0.34684 0.1312 0.0
H2726 H 0.86559 0.35854 0.14411 0.0
H2727 H 0.83359 0.30911 0.13763 0.0
C2728 C 0.69007 0.56902 0.11324 0.0
C2729 C 0.6734 0.56886 0.09799 0.0
C2730 C 0.7248 0.56792 0.11426 0.0
C2731 C 0.74321 0.56578 0.09966 0.0
C2732 C 0.7268 0.56611 0.08417 0.0
C2733 C 0.69228 0.56809 0.08351 0.0
C2734 C 0.74179 0.56907 0.13104 0.0
C2735 C 0.74512 0.56336 0.06833 0.0
C2736 C 0.85014 0.59791 0.10554 0.0
C2737 C 0.84867 0.56273 0.10974 0.0
C2738 C 0.81636 0.59911 0.10139 0.0
C2739 C 0.78005 0.56413 0.10091 0.0
C2740 C 0.77877 0.52816 0.10371 0.0
C2741 C 0.813 0.52788 0.10821 0.0
C2742 C 0.81919 0.63817 0.09867 0.0
C2743 C 0.74081 0.49009 0.10297 0.0
H2744 H 0.67599 0.57027 0.12449 0.0
H2745 H 0.67948 0.56794 0.0717 0.0
H2746 H 0.743 0.54203 0.13311 0.0
H2747 H 0.77204 0.5939 0.13173 0.0
H2748 H 0.72457 0.57203 0.14115 0.0
H2749 H 0.72982 0.56569 0.0573 0.0
H2750 H 0.77607 0.58666 0.06773 0.0
H2751 H 0.74452 0.53508 0.0679 0.0
H2752 H 0.87766 0.62497 0.10618 0.0
H2753 H 0.81132 0.50051 0.11138 0.0
H2754 H 0.8037 0.64382 0.10872 0.0
H2755 H 0.80486 0.63817 0.08695 0.0
H2756 H 0.84981 0.66245 0.09835 0.0
H2757 H 0.72266 0.48766 0.11379 0.0
H2758 H 0.74535 0.46461 0.10296 0.0
H2759 H 0.72424 0.48895 0.09177 0.0
C2760 C 0.27866 0.46277 0.91866 0.0
C2761 C 0.31296 0.49727 0.91431 0.0
C2762 C 0.24345 0.46225 0.92143 0.0
C2763 C 0.24252 0.49743 0.92065 0.0
C2764 C 0.27765 0.53292 0.91775 0.0
C2765 C 0.31232 0.5324 0.91441 0.0
C2766 C 0.20671 0.42357 0.92408 0.0
C2767 C 0.27824 0.57127 0.91741 0.0
C2768 C 0.14756 0.49118 0.90721 0.0
C2769 C 0.13022 0.49082 0.9223 0.0
C2770 C 0.18392 0.49323 0.90655 0.0
C2771 C 0.20423 0.4963 0.92135 0.0
C2772 C 0.18697 0.49635 0.93665 0.0
C2773 C 0.14982 0.49286 0.93695 0.0
C2774 C 0.20031 0.49147 0.88999 0.0
C2775 C 0.20794 0.50059 0.95268 0.0
H2776 H 0.27886 0.43556 0.91924 0.0
H2777 H 0.3384 0.55929 0.91114 0.0
H2778 H 0.19138 0.42434 0.93537 0.0
H2779 H 0.18657 0.41761 0.91359 0.0
H2780 H 0.2126 0.39904 0.92515 0.0
H2781 H 0.30838 0.59651 0.91755 0.0
H2782 H 0.26355 0.57307 0.9061 0.0
H2783 H 0.26207 0.57354 0.92811 0.0
H2784 H 0.13227 0.48912 0.89585 0.0
H2785 H 0.13654 0.49275 0.94864 0.0
H2786 H 0.20594 0.46671 0.88972 0.0
H2787 H 0.22853 0.51848 0.88787 0.0
H2788 H 0.18038 0.48794 0.87969 0.0
H2789 H 0.21276 0.47558 0.95445 0.0
H2790 H 0.19149 0.50217 0.96345 0.0
H2791 H 0.237 0.52735 0.95236 0.0
C2792 C 0.54292 0.81744 0.90883 0.0
C2793 C 0.512 0.81251 0.91892 0.0
C2794 C 0.55904 0.79292 0.91041 0.0
C2795 C 0.54378 0.76255 0.92228 0.0
C2796 C 0.51432 0.7591 0.93317 0.0
C2797 C 0.49907 0.78419 0.93143 0.0
C2798 C 0.59077 0.79799 0.89868 0.0
C2799 C 0.49695 0.72714 0.94595 0.0
C2800 C 0.54178 0.66837 0.91125 0.0
C2801 C 0.57166 0.66973 0.92102 0.0
C2802 C 0.53279 0.69837 0.91154 0.0
C2803 C 0.55433 0.73114 0.9218 0.0
C2804 C 0.58457 0.73285 0.93175 0.0
C2805 C 0.59266 0.70196 0.93134 0.0
C2806 C 0.49995 0.69478 0.90087 0.0
C2807 C 0.60846 0.76735 0.94276 0.0
H2808 H 0.55321 0.8391 0.89911 0.0
H2809 H 0.4759 0.7807 0.93959 0.0
H2810 H 0.61437 0.79659 0.90541 0.0
H2811 H 0.57866 0.77393 0.88957 0.0
H2812 H 0.60344 0.82609 0.8919 0.0
H2813 H 0.47746 0.73097 0.95463 0.0
H2814 H 0.47981 0.69857 0.93973 0.0
H2815 H 0.52022 0.72611 0.95311 0.0
H2816 H 0.52504 0.64354 0.90329 0.0
H2817 H 0.61571 0.70336 0.93889 0.0
H2818 H 0.51102 0.71973 0.8922 0.0
H2819 H 0.4774 0.69565 0.90865 0.0
H2820 H 0.48598 0.66736 0.89361 0.0
H2821 H 0.62184 0.7946 0.93539 0.0
H2822 H 0.6319 0.76503 0.94923 0.0
H2823 H 0.5894 0.76986 0.95209 0.0
C2824 C 0.38953 0.90516 0.93041 0.0
C2825 C 0.39259 0.93763 0.92207 0.0
C2826 C 0.35547 0.86852 0.92952 0.0
C2827 C 0.32361 0.86402 0.91997 0.0
C2828 C 0.32639 0.89682 0.91165 0.0
C2829 C 0.36071 0.93322 0.91289 0.0
C2830 C 0.35344 0.83479 0.93902 0.0
C2831 C 0.29324 0.89344 0.90131 0.0
C2832 C 0.24756 0.76288 0.90479 0.0
C2833 C 0.21631 0.75383 0.91541 0.0
C2834 C 0.28289 0.79837 0.90628 0.0
C2835 C 0.2872 0.82516 0.91883 0.0
C2836 C 0.25623 0.81521 0.93003 0.0
C2837 C 0.22109 0.77989 0.92808 0.0
C2838 C 0.31496 0.80798 0.89397 0.0
C2839 C 0.2597 0.84251 0.94372 0.0
H2840 H 0.41384 0.90835 0.9377 0.0
H2841 H 0.36279 0.95806 0.9064 0.0
H2842 H 0.33291 0.82741 0.94948 0.0
H2843 H 0.34217 0.80851 0.93113 0.0
H2844 H 0.38226 0.84161 0.94399 0.0
H2845 H 0.30008 0.92162 0.89556 0.0
H2846 H 0.28627 0.87161 0.89143 0.0
H2847 H 0.26675 0.88305 0.909 0.0
H2848 H 0.24365 0.7431 0.89481 0.0
H2849 H 0.19678 0.77303 0.9362 0.0
H2850 H 0.34285 0.81716 0.90041 0.0
H2851 H 0.31913 0.83282 0.88619 0.0
H2852 H 0.30845 0.78293 0.88584 0.0
H2853 H 0.2861 0.85064 0.95117 0.0
H2854 H 0.23393 0.82946 0.952 0.0
H2855 H 0.26291 0.86979 0.93843 0.0
C2856 C 0.18213 0.63847 0.44327 0.0
C2857 C 0.22158 0.66427 0.43968 0.0
C2858 C 0.16534 0.59818 0.44071 0.0
C2859 C 0.18871 0.5831 0.4348 0.0
C2860 C 0.22803 0.609 0.43052 0.0
C2861 C 0.24382 0.64922 0.43283 0.0
C2862 C 0.12309 0.57162 0.44512 0.0
C2863 C 0.25412 0.59405 0.42441 0.0
C2864 C 0.16891 0.48467 0.45009 0.0
C2865 C 0.15563 0.4618 0.43582 0.0
C2866 C 0.1787 0.52382 0.44999 0.0
C2867 C 0.17405 0.54043 0.43534 0.0
C2868 C 0.1579 0.51677 0.42119 0.0
C2869 C 0.14914 0.47769 0.42155 0.0
C2870 C 0.19501 0.5476 0.46549 0.0
C2871 C 0.15116 0.53303 0.40553 0.0
H2872 H 0.16456 0.64946 0.4487 0.0
H2873 H 0.27398 0.66883 0.42959 0.0
H2874 H 0.1083 0.54874 0.43562 0.0
H2875 H 0.1211 0.55675 0.45696 0.0
H2876 H 0.10721 0.58793 0.44648 0.0
H2877 H 0.28357 0.61801 0.42098 0.0
H2878 H 0.25728 0.57617 0.43415 0.0
H2879 H 0.24089 0.57498 0.41355 0.0
H2880 H 0.1728 0.47229 0.46135 0.0
H2881 H 0.13842 0.46005 0.41053 0.0
H2882 H 0.17391 0.55552 0.47052 0.0
H2883 H 0.22231 0.57514 0.46278 0.0
H2884 H 0.20112 0.53155 0.47517 0.0
H2885 H 0.13703 0.5505 0.40826 0.0
H2886 H 0.13274 0.50964 0.39667 0.0
H2887 H 0.17953 0.55268 0.39957 0.0
C2888 C 0.56001 0.73279 0.42728 0.0
C2889 C 0.59106 0.72571 0.42892 0.0
C2890 C 0.52126 0.70228 0.4283 0.0
C2891 C 0.51335 0.66388 0.43161 0.0
C2892 C 0.54471 0.65636 0.4325 0.0
C2893 C 0.58324 0.68742 0.431 0.0
C2894 C 0.48875 0.71134 0.42644 0.0
C2895 C 0.53781 0.61603 0.43609 0.0
C2896 C 0.42066 0.60514 0.45649 0.0
C2897 C 0.39387 0.58182 0.44442 0.0
C2898 C 0.45995 0.63043 0.45258 0.0
C2899 C 0.47285 0.6331 0.43609 0.0
C2900 C 0.44617 0.60866 0.42392 0.0
C2901 C 0.40701 0.58304 0.42827 0.0
C2902 C 0.48738 0.65544 0.46601 0.0
C2903 C 0.45853 0.61083 0.4062 0.0
H2904 H 0.56615 0.76248 0.42558 0.0
H2905 H 0.60718 0.68203 0.43244 0.0
H2906 H 0.46892 0.69344 0.41641 0.0
H2907 H 0.47122 0.70359 0.43791 0.0
H2908 H 0.49972 0.74256 0.4236 0.0
H2909 H 0.56448 0.614 0.43418 0.0
H2910 H 0.52832 0.60834 0.44908 0.0
H2911 H 0.51424 0.59415 0.42818 0.0
H2912 H 0.41065 0.60394 0.46902 0.0
H2913 H 0.3863 0.56513 0.4189 0.0
H2914 H 0.49699 0.68652 0.46358 0.0
H2915 H 0.51377 0.65251 0.46613 0.0
H2916 H 0.47363 0.64764 0.47839 0.0
H2917 H 0.46388 0.63875 0.40074 0.0
H2918 H 0.43604 0.58654 0.39872 0.0
H2919 H 0.48617 0.61028 0.40536 0.0
C2920 C 0.48861 0.88596 0.43961 0.0
C2921 C 0.47488 0.84598 0.43742 0.0
C2922 C 0.46481 0.90215 0.43613 0.0
C2923 C 0.42615 0.87778 0.43057 0.0
C2924 C 0.41309 0.83799 0.42733 0.0
C2925 C 0.43767 0.82275 0.43064 0.0
C2926 C 0.48034 0.94494 0.43927 0.0
C2927 C 0.37237 0.81093 0.42116 0.0
C2928 C 0.34628 0.89593 0.44571 0.0
C2929 C 0.33429 0.90632 0.43123 0.0
C2930 C 0.37696 0.88807 0.44569 0.0
C2931 C 0.39734 0.89171 0.43088 0.0
C2932 C 0.38749 0.90519 0.41645 0.0
C2933 C 0.35581 0.91211 0.41675 0.0
C2934 C 0.38623 0.87397 0.46144 0.0
C2935 C 0.40916 0.91069 0.40052 0.0
H2936 H 0.51727 0.90435 0.44479 0.0
H2937 H 0.42719 0.79214 0.42837 0.0
H2938 H 0.47181 0.95806 0.42918 0.0
H2939 H 0.46772 0.94861 0.45086 0.0
H2940 H 0.51255 0.96121 0.44045 0.0
H2941 H 0.36557 0.78016 0.42053 0.0
H2942 H 0.35066 0.81243 0.42926 0.0
H2943 H 0.36894 0.8202 0.40868 0.0
H2944 H 0.33058 0.89239 0.4571 0.0
H2945 H 0.34699 0.92041 0.40553 0.0
H2946 H 0.41628 0.89503 0.46544 0.0
H2947 H 0.38483 0.84564 0.45936 0.0
H2948 H 0.36594 0.87032 0.47162 0.0
H2949 H 0.44079 0.92319 0.40276 0.0
H2950 H 0.40486 0.92999 0.39189 0.0
H2951 H 0.39825 0.88199 0.39448 0.0
C2952 C 0.81128 0.81176 0.23978 0.0
C2953 C 0.79474 0.81414 0.25467 0.0
C2954 C 0.84785 0.8144 0.23934 0.0
C2955 C 0.86889 0.82016 0.25415 0.0
C2956 C 0.85203 0.82191 0.26931 0.0
C2957 C 0.81495 0.8186 0.26941 0.0
C2958 C 0.86403 0.81123 0.22293 0.0
C2959 C 0.87351 0.82826 0.28536 0.0
C2960 C 0.94713 0.79239 0.24989 0.0
C2961 C 0.97945 0.82782 0.24493 0.0
C2962 C 0.91158 0.78992 0.25406 0.0
C2963 C 0.90825 0.82381 0.25347 0.0
C2964 C 0.94167 0.86025 0.24988 0.0
C2965 C 0.97688 0.86183 0.24561 0.0
C2966 C 0.87679 0.75046 0.25779 0.0
C2967 C 0.93951 0.89718 0.24934 0.0
H2968 H 0.79552 0.80776 0.22837 0.0
H2969 H 0.80228 0.82061 0.28094 0.0
H2970 H 0.8916 0.83858 0.22029 0.0
H2971 H 0.87081 0.78726 0.22331 0.0
H2972 H 0.84348 0.80564 0.21262 0.0
H2973 H 0.85542 0.82641 0.29615 0.0
H2974 H 0.88297 0.80642 0.28687 0.0
H2975 H 0.90014 0.85742 0.28525 0.0
H2976 H 0.94907 0.76606 0.24971 0.0
H2977 H 1.0016 0.88931 0.24179 0.0
H2978 H 0.85598 0.74128 0.24736 0.0
H2979 H 0.86126 0.75181 0.26891 0.0
H2980 H 0.88514 0.72785 0.25973 0.0
H2981 H 0.92293 0.89688 0.23829 0.0
H2982 H 0.96885 0.9236 0.24881 0.0
H2983 H 0.92386 0.89913 0.2603 0.0
C2984 C 0.25506 0.02842 0.26584 0.0
C2985 C 0.23646 0.99821 0.25435 0.0
C2986 C 0.24782 0.05988 0.26612 0.0
C2987 C 0.22078 0.06063 0.25488 0.0
C2988 C 0.20204 0.03012 0.24331 0.0
C2989 C 0.21022 0.99962 0.24315 0.0
C2990 C 0.26876 0.09204 0.27852 0.0
C2991 C 0.17267 0.02923 0.23119 0.0
C2992 C 0.16177 0.11044 0.26244 0.0
C2993 C 0.17767 0.14081 0.25082 0.0
C2994 C 0.17741 0.08588 0.26481 0.0
C2995 C 0.21008 0.09186 0.25545 0.0
C2996 C 0.22819 0.12434 0.24467 0.0
C2997 C 0.21174 0.14839 0.24245 0.0
C2998 C 0.157 0.05165 0.2764 0.0
C2999 C 0.26326 0.13203 0.23456 0.0
H3000 H 0.27528 0.02758 0.27456 0.0
H3001 H 0.19538 0.97638 0.23426 0.0
H3002 H 0.28244 0.12084 0.27231 0.0
H3003 H 0.24759 0.09149 0.2876 0.0
H3004 H 0.29162 0.08921 0.28526 0.0
H3005 H 0.16102 1.00361 0.22286 0.0
H3006 H 0.14792 0.02839 0.23793 0.0
H3007 H 0.18617 0.05605 0.22356 0.0
H3008 H 0.13597 0.10487 0.26924 0.0
H3009 H 0.2243 0.17171 0.23345 0.0
H3010 H 0.17834 0.04934 0.28445 0.0
H3011 H 0.14174 0.02433 0.26915 0.0
H3012 H 0.13526 0.05381 0.28427 0.0
H3013 H 0.28471 0.12897 0.24224 0.0
H3014 H 0.27775 0.16158 0.22896 0.0
H3015 H 0.25409 0.11025 0.22451 0.0
C3016 C 0.89597 0.09432 0.25826 0.0
C3017 C 0.89274 0.07473 0.24347 0.0
C3018 C 0.92942 0.13036 0.26179 0.0
C3019 C 0.96024 0.14736 0.25017 0.0
C3020 C 0.95745 0.12691 0.23543 0.0
C3021 C 0.92371 0.09098 0.23225 0.0
C3022 C 0.9309 0.15121 0.27755 0.0
C3023 C 0.989 0.14389 0.22249 0.0
C3024 C 0.02882 0.25759 0.24886 0.0
C3025 C 0.06207 0.26173 0.2568 0.0
C3026 C 0.99521 0.22078 0.247 0.0
C3027 C 0.9948 0.18701 0.25309 0.0
C3028 C 0.02809 0.19109 0.26135 0.0
C3029 C 0.06117 0.22828 0.26313 0.0
C3030 C 0.96034 0.21801 0.23828 0.0
C3031 C 0.02886 0.15619 0.26836 0.0
H3032 H 0.87155 0.08227 0.26673 0.0
H3033 H 0.92073 0.0764 0.2206 0.0
H3034 H 0.95807 0.15916 0.28437 0.0
H3035 H 0.9312 0.17871 0.27462 0.0
H3036 H 0.90565 0.13325 0.2857 0.0
H3037 H 0.98716 0.12117 0.21393 0.0
H3038 H 0.98578 0.16576 0.21516 0.0
H3039 H 0.01832 0.15897 0.22814 0.0
H3040 H 0.02926 0.28303 0.24377 0.0
H3041 H 0.08654 0.23105 0.26941 0.0
H3042 H 0.93391 0.20192 0.24602 0.0
H3043 H 0.95512 0.20145 0.22665 0.0
H3044 H 0.96425 0.24714 0.23531 0.0
H3045 H 0.05867 0.16324 0.27201 0.0
H3046 H 0.01726 0.13193 0.25935 0.0
H3047 H 1.00993 0.1456 0.27942 0.0
C3048 C 0.79086 0.79808 0.76924 0.0
C3049 C 0.82065 0.7924 0.76304 0.0
C3050 C 0.7966 0.83581 0.77157 0.0
C3051 C 0.83319 0.86883 0.76777 0.0
C3052 C 0.8633 0.86324 0.76144 0.0
C3053 C 0.85666 0.82523 0.75912 0.0
C3054 C 0.7636 0.8403 0.77833 0.0
C3055 C 0.9028 0.89746 0.75734 0.0
C3056 C 0.83698 0.96665 0.76267 0.0
C3057 C 0.84889 0.98287 0.77838 0.0
C3058 C 0.8327 0.92998 0.75886 0.0
C3059 C 0.84046 0.90912 0.77108 0.0
C3060 C 0.85404 0.92631 0.78675 0.0
C3061 C 0.85788 0.96281 0.79022 0.0
C3062 C 0.81813 0.91274 0.74203 0.0
C3063 C 0.86289 0.90537 0.80012 0.0
H3064 H 0.76309 0.77305 0.77242 0.0
H3065 H 0.88 0.82131 0.75436 0.0
H3066 H 0.77202 0.85527 0.79042 0.0
H3067 H 0.75747 0.85869 0.76994 0.0
H3068 H 0.73647 0.81181 0.77996 0.0
H3069 H 0.92286 0.88825 0.75214 0.0
H3070 H 0.89976 0.91682 0.74833 0.0
H3071 H 0.91624 0.91491 0.7686 0.0
H3072 H 0.82916 0.98174 0.75365 0.0
H3073 H 0.86637 0.97506 0.80246 0.0
H3074 H 0.789 0.88629 0.74318 0.0
H3075 H 0.83783 0.90362 0.73643 0.0
H3076 H 0.81583 0.93356 0.73358 0.0
H3077 H 0.83578 0.87848 0.80372 0.0
H3078 H 0.87549 0.9237 0.81126 0.0
H3079 H 0.88358 0.89642 0.79552 0.0
C3080 C 0.23518 0.04921 0.7585 0.0
C3081 C 0.26877 0.05027 0.76464 0.0
C3082 C 0.198 0.01683 0.76118 0.0
C3083 C 0.1941 0.98453 0.77027 0.0
C3084 C 0.22807 0.98471 0.77587 0.0
C3085 C 0.26495 0.01752 0.77298 0.0
C3086 C 0.16295 0.01748 0.75432 0.0
C3087 C 0.22545 0.95067 0.78533 0.0
C3088 C 0.10133 0.92429 0.79509 0.0
C3089 C 0.08001 0.89163 0.78502 0.0
C3090 C 0.13814 0.95468 0.79033 0.0
C3091 C 0.15458 0.95231 0.77518 0.0
C3092 C 0.13303 0.91959 0.76484 0.0
C3093 C 0.09581 0.88979 0.76981 0.0
C3094 C 0.15966 0.9891 0.8017 0.0
C3095 C 0.14967 0.91567 0.74872 0.0
H3096 H 0.23782 0.07406 0.75177 0.0
H3097 H 0.29069 0.01789 0.77768 0.0
H3098 H 0.15215 0.99832 0.74336 0.0
H3099 H 0.13888 1.00624 0.76342 0.0
H3100 H 0.17004 0.04723 0.75047 0.0
H3101 H 0.25447 0.95346 0.78724 0.0
H3102 H 0.21206 0.94865 0.79755 0.0
H3103 H 0.20651 0.92303 0.77872 0.0
H3104 H 0.08914 0.92601 0.8068 0.0
H3105 H 0.0796 0.86445 0.76205 0.0
H3106 H 0.17059 0.01673 0.79478 0.0
H3107 H 0.1853 0.98882 0.80697 0.0
H3108 H 0.14107 0.98883 0.81199 0.0
H3109 H 0.15525 0.94019 0.74044 0.0
H3110 H 0.1299 0.88787 0.74235 0.0
H3111 H 0.17802 0.9172 0.75088 0.0
C3112 C 0.11239 0.15214 0.75848 0.0
C3113 C 0.14455 0.16899 0.76917 0.0
C3114 C 0.08825 0.16834 0.75635 0.0
C3115 C 0.09672 0.2029 0.76482 0.0
C3116 C 0.13093 0.2219 0.77456 0.0
C3117 C 0.15431 0.20464 0.7767 0.0
C3118 C 0.05204 0.1468 0.74596 0.0
C3119 C 0.14154 0.25921 0.78354 0.0
C3120 C 0.0352 0.24942 0.75348 0.0
C3121 C 1.00697 0.23496 0.76597 0.0
C3122 C 0.06557 0.24061 0.75321 0.0
C3123 C 0.06692 0.21559 0.76539 0.0
C3124 C 0.03816 0.20059 0.77789 0.0
C3125 C 1.00895 0.21069 0.77809 0.0
C3126 C 0.09598 0.25785 0.73984 0.0
C3127 C 0.03776 0.17324 0.79097 0.0
H3128 H 0.10511 0.12519 0.75223 0.0
H3129 H 0.17901 0.21806 0.78497 0.0
H3130 H 0.02596 0.13459 0.75403 0.0
H3131 H 0.04972 0.16696 0.73717 0.0
H3132 H 0.05152 0.12252 0.73892 0.0
H3133 H 0.17183 0.27366 0.78829 0.0
H3134 H 0.13829 0.2798 0.77532 0.0
H3135 H 0.12149 0.25279 0.79411 0.0
H3136 H 0.03365 0.26762 0.74393 0.0
H3137 H 0.98725 0.19901 0.78778 0.0
H3138 H 0.09259 0.23451 0.73131 0.0
H3139 H 0.12557 0.27102 0.74524 0.0
H3140 H 0.09372 0.28046 0.73261 0.0
H3141 H 0.03513 0.14674 0.78512 0.0
H3142 H 0.01337 0.16415 0.79984 0.0
H3143 H 0.06552 0.18743 0.79793 0.0
C3144 C 0.47593 0.1347 0.60323 0.0
C3145 C 0.45909 0.13705 0.58841 0.0
C3146 C 0.515 0.14309 0.60365 0.0
C3147 C 0.5375 0.15433 0.58896 0.0
C3148 C 0.51942 0.15366 0.57385 0.0
C3149 C 0.48055 0.1447 0.57377 0.0
C3150 C 0.53272 0.14228 0.61996 0.0
C3151 C 0.54191 0.16542 0.55783 0.0
C3152 C 0.64426 0.23044 0.58663 0.0
C3153 C 0.66083 0.20857 0.58089 0.0
C3154 C 0.60463 0.21264 0.59069 0.0
C3155 C 0.58077 0.17171 0.58924 0.0
C3156 C 0.59808 0.14906 0.58502 0.0
C3157 C 0.63792 0.16776 0.58081 0.0
C3158 C 0.58768 0.23813 0.59513 0.0
C3159 C 0.57395 0.10531 0.58374 0.0
H3160 H 0.45946 0.12855 0.61459 0.0
H3161 H 0.46751 0.1457 0.56217 0.0
H3162 H 0.55289 0.13071 0.61854 0.0
H3163 H 0.54974 0.17238 0.62482 0.0
H3164 H 0.51002 0.12431 0.62917 0.0
H3165 H 0.52293 0.16098 0.54704 0.0
H3166 H 0.56459 0.19669 0.55834 0.0
H3167 H 0.5569 0.14848 0.55587 0.0
H3168 H 0.662 0.26192 0.58717 0.0
H3169 H 0.65045 0.15054 0.57651 0.0
H3170 H 0.56893 0.22666 0.60621 0.0
H3171 H 0.56918 0.23802 0.58485 0.0
H3172 H 0.6106 0.26875 0.59752 0.0
H3173 H 0.55269 0.09313 0.59401 0.0
H3174 H 0.59239 0.09151 0.58382 0.0
H3175 H 0.55722 0.09735 0.57206 0.0
C3176 C 0.86624 0.32199 0.59085 0.0
C3177 C 0.90302 0.32616 0.58782 0.0
C3178 C 0.85872 0.35257 0.58767 0.0
C3179 C 0.88896 0.38875 0.5817 0.0
C3180 C 0.92628 0.39327 0.5788 0.0
C3181 C 0.93269 0.36188 0.58171 0.0
C3182 C 0.81831 0.34602 0.5906 0.0
C3183 C 0.95953 0.43128 0.57253 0.0
C3184 C 0.86802 0.45964 0.5582 0.0
C3185 C 0.87567 0.48827 0.57008 0.0
C3186 C 0.87048 0.4263 0.56202 0.0
C3187 C 0.88155 0.42164 0.57808 0.0
C3188 C 0.88774 0.44973 0.59032 0.0
C3189 C 0.88462 0.48268 0.58618 0.0
C3190 C 0.86301 0.39697 0.54863 0.0
C3191 C 0.8997 0.44604 0.60756 0.0
H3192 H 0.84305 0.29461 0.5956 0.0
H3193 H 0.96109 0.36544 0.57923 0.0
H3194 H 0.81931 0.36666 0.60007 0.0
H3195 H 0.80686 0.35185 0.57914 0.0
H3196 H 0.79765 0.31582 0.59473 0.0
H3197 H 0.9871 0.43057 0.5715 0.0
H3198 H 0.95218 0.43802 0.56023 0.0
H3199 H 0.96436 0.45539 0.58091 0.0
H3200 H 0.86154 0.46417 0.54569 0.0
H3201 H 0.89125 0.50511 0.5953 0.0
H3202 H 0.84192 0.36712 0.55293 0.0
H3203 H 0.89049 0.3974 0.54557 0.0
H3204 H 0.85152 0.40305 0.53722 0.0
H3205 H 0.87917 0.41689 0.61271 0.0
H3206 H 0.90074 0.46867 0.61595 0.0
H3207 H 0.92893 0.44878 0.60726 0.0
C3208 C 0.54461 0.44081 0.57806 0.0
C3209 C 0.54848 0.40782 0.57556 0.0
C3210 C 0.57677 0.47702 0.58221 0.0
C3211 C 0.61375 0.48036 0.5842 0.0
C3212 C 0.61715 0.44645 0.58321 0.0
C3213 C 0.5845 0.41058 0.57883 0.0
C3214 C 0.57173 0.51232 0.58304 0.0
C3215 C 0.65592 0.4486 0.58553 0.0
C3216 C 0.7013 0.57448 0.56971 0.0
C3217 C 0.71709 0.59433 0.58451 0.0
C3218 C 0.66766 0.5377 0.56953 0.0
C3219 C 0.64936 0.5198 0.58458 0.0
C3220 C 0.66478 0.53992 0.59961 0.0
C3221 C 0.69835 0.57719 0.59939 0.0
C3222 C 0.65183 0.51792 0.55317 0.0
C3223 C 0.64642 0.5217 0.61591 0.0
H3224 H 0.51667 0.43876 0.57594 0.0
H3225 H 0.58786 0.38534 0.57695 0.0
H3226 H 0.58663 0.53027 0.59401 0.0
H3227 H 0.58525 0.5308 0.57201 0.0
H3228 H 0.54058 0.50419 0.58345 0.0
H3229 H 0.65269 0.41926 0.58707 0.0
H3230 H 0.67458 0.46271 0.57461 0.0
H3231 H 0.67124 0.46661 0.59644 0.0
H3232 H 0.71533 0.58774 0.55813 0.0
H3233 H 0.71055 0.59238 0.61087 0.0
H3234 H 0.62115 0.51081 0.55175 0.0
H3235 H 0.65214 0.49011 0.55266 0.0
H3236 H 0.6689 0.5363 0.54257 0.0
H3237 H 0.61498 0.5123 0.61584 0.0
H3238 H 0.6605 0.54198 0.62638 0.0
H3239 H 0.6488 0.49527 0.61794 0.0
loop_
_geom_bond_atom_site_label_1
_geom_bond_atom_site_label_2
_geom_bond_distance
_geom_bond_site_symmetry_2
_ccdc_geom_bond_type
Eu0 N29 2.600 . S
Eu0 N35 2.562 . S
Eu0 O44 2.462 . S
Eu0 O45 2.373 1_565 S
Eu0 O47 2.432 . S
Eu0 O48 2.291 . S
Eu0 O52 2.335 . S
Eu0 O55 2.372 . S
Eu0 C64 2.787 . S
C1 N2 1.365 . S
C1 C4 1.405 1_545 S
C1 C8 1.448 . S
N2 C1 1.365 . S
N2 C5 1.319 . S
N2 Eu11 2.600 . S
C3 C5 1.397 1_565 S
C3 C6 1.367 . S
C3 H23 0.935 . S
C4 C1 1.405 1_565 S
C4 C6 1.403 . S
C4 C10 1.439 . S
C5 N2 1.319 . S
C5 C3 1.397 1_545 S
C5 H16 0.930 . S
C6 C3 1.367 . S
C6 C4 1.403 . S
C6 H27 0.929 . S
C7 C8 1.430 1_565 S
C7 C9 1.387 . S
C7 C13 1.404 . S
C8 C1 1.448 . S
C8 C7 1.430 1_545 S
C8 N12 1.351 . S
C9 C7 1.387 . S
C9 C10 1.374 . S
C9 H24 0.931 . S
C10 C4 1.439 . S
C10 C9 1.374 . S
C10 H25 0.931 . S
Eu11 N2 2.600 . S
Eu11 N12 2.562 . S
Eu11 O46 2.335 . S
Eu11 O49 2.372 . S
Eu11 O50 2.462 . S
Eu11 O51 2.373 1_545 S
Eu11 O53 2.432 . S
Eu11 O54 2.291 . S
Eu11 C75 2.787 . S
N12 C8 1.351 . S
N12 Eu11 2.562 . S
N12 C14 1.325 . S
C13 C7 1.404 . S
C13 C15 1.366 1_565 S
C13 H21 0.930 . S
C14 N12 1.325 . S
C14 C15 1.416 . S
C14 H20 0.929 . S
C15 C13 1.366 1_545 S
C15 C14 1.416 . S
C15 H17 0.930 . S
H16 C5 0.930 . S
H17 C15 0.930 . S
H18 C33 0.930 . S
H19 C40 0.930 . S
H20 C14 0.929 . S
H21 C13 0.930 . S
H22 C36 0.929 . S
H23 C3 0.935 . S
H24 C9 0.931 . S
H25 C10 0.931 . S
H26 C31 0.931 . S
H27 C6 0.929 . S
H28 C39 0.930 . S
N29 Eu0 2.600 . S
N29 C30 1.365 1_565 S
N29 C33 1.319 . S
C30 N29 1.365 1_545 S
C30 C32 1.405 . S
C30 C38 1.448 . S
C31 H26 0.931 . S
C31 C33 1.397 1_545 S
C31 C34 1.367 . S
C32 C30 1.405 . S
C32 C34 1.403 . S
C32 C65 1.439 . S
C33 H18 0.930 . S
C33 N29 1.319 . S
C33 C31 1.397 1_565 S
C34 C31 1.367 . S
C34 C32 1.403 . S
C34 H41 0.929 . S
N35 Eu0 2.562 . S
N35 C36 1.325 . S
N35 C38 1.351 1_565 S
C36 H22 0.929 . S
C36 N35 1.325 . S
C36 C40 1.416 1_565 S
C37 C38 1.430 . S
C37 C39 1.404 . S
C37 C66 1.387 . S
C38 C30 1.448 . S
C38 N35 1.351 1_545 S
C38 C37 1.430 . S
C39 H28 0.930 . S
C39 C37 1.404 . S
C39 C40 1.366 . S
C40 H19 0.930 . S
C40 C36 1.416 1_545 S
C40 C39 1.366 . S
H41 C34 0.929 . S
H42 C65 0.931 . S
H43 C66 0.931 . S
O44 Eu0 2.462 . S
O44 C64 1.252 . S
O45 Eu0 2.373 1_545 S
O45 C56 1.249 . S
O46 Eu11 2.335 . S
O46 C56 1.264 . S
O47 Eu0 2.432 . S
O47 C64 1.268 . S
O48 Eu0 2.291 . S
O48 C63 1.255 . S
O49 Eu11 2.372 . S
O49 C63 1.257 1_545 S
O50 Eu11 2.462 . S
O50 C75 1.252 . S
O51 Eu11 2.373 1_565 S
O51 C67 1.249 . S
O52 Eu0 2.335 . S
O52 C67 1.264 . S
O53 Eu11 2.432 . S
O53 C75 1.268 . S
O54 Eu11 2.291 . S
O54 C74 1.255 . S
O55 Eu0 2.372 . S
O55 C74 1.257 1_565 S
C56 O45 1.249 . S
C56 O46 1.264 . S
C57 C60 1.382 . S
C57 C62 1.390 . S
C57 C64 1.506 . S
C58 C59 1.398 . S
C58 C62 1.392 . S
C59 C58 1.398 . S
C59 C61 1.372 . S
C59 H76 0.931 . S
C60 C57 1.382 . S
C60 C61 1.390 . S
C60 H77 0.931 . S
C61 C59 1.372 . S
C61 C60 1.390 . S
C61 H78 0.929 . S
C62 C57 1.390 . S
C62 C58 1.392 . S
C62 H79 0.930 . S
C63 O48 1.255 . S
C63 O49 1.257 1_565 S
C64 Eu0 2.787 . S
C64 O44 1.252 . S
C64 O47 1.268 . S
C64 C57 1.506 . S
C65 C32 1.439 . S
C65 H42 0.931 . S
C65 C66 1.374 . S
C66 C37 1.387 . S
C66 H43 0.931 . S
C66 C65 1.374 . S
C67 O51 1.249 . S
C67 O52 1.264 . S
C68 C71 1.382 . S
C68 C72 1.390 . S
C68 C75 1.506 . S
C69 C70 1.398 . S
C69 C72 1.392 . S
C70 C69 1.398 . S
C70 C73 1.372 . S
C70 H80 0.931 . S
C71 C68 1.382 . S
C71 C73 1.390 . S
C71 H81 0.931 . S
C72 C68 1.390 . S
C72 C69 1.392 . S
C72 H82 0.930 . S
C73 C70 1.372 . S
C73 C71 1.390 . S
C73 H83 0.929 . S
C74 O54 1.255 . S
C74 O55 1.257 1_545 S
C75 Eu11 2.787 . S
C75 O50 1.252 . S
C75 O53 1.268 . S
C75 C68 1.506 . S
H76 C59 0.931 . S
H77 C60 0.931 . S
H78 C61 0.929 . S
H79 C62 0.930 . S
H80 C70 0.931 . S
H81 C71 0.931 . S
H82 C72 0.930 . S
H83 C73 0.929 . S
Eu84 N113 2.600 . S
Eu84 N119 2.562 . S
Eu84 O128 2.462 . S
Eu84 O129 2.373 1_455 S
Eu84 O131 2.432 . S
Eu84 O132 2.291 . S
Eu84 O136 2.335 . S
Eu84 O139 2.372 . S
Eu84 C148 2.787 . S
C85 N86 1.365 . S
C85 C88 1.405 . S
C85 C92 1.448 . S
N86 C85 1.365 . S
N86 C89 1.319 . S
N86 Eu95 2.600 . S
C87 C89 1.397 . S
C87 C90 1.367 . S
C87 H107 0.931 . S
C88 C85 1.405 . S
C88 C90 1.403 . S
C88 C94 1.439 . S
C89 N86 1.319 . S
C89 C87 1.397 . S
C89 H100 0.930 . S
C90 C87 1.367 . S
C90 C88 1.403 . S
C90 H111 0.929 . S
C91 C92 1.430 . S
C91 C93 1.387 . S
C91 C97 1.404 . S
C92 C85 1.448 . S
C92 C91 1.430 . S
C92 N96 1.351 . S
C93 C91 1.387 . S
C93 C94 1.374 . S
C93 H108 0.931 . S
C94 C88 1.439 . S
C94 C93 1.374 . S
C94 H109 0.931 . S
Eu95 N86 2.600 . S
Eu95 N96 2.562 . S
Eu95 O130 2.335 1_455 S
Eu95 O133 2.372 . S
Eu95 O134 2.462 1_455 S
Eu95 O135 2.373 . S
Eu95 O137 2.432 1_455 S
Eu95 O138 2.291 . S
Eu95 C159 2.787 1_455 S
N96 C92 1.351 . S
N96 Eu95 2.562 . S
N96 C98 1.325 . S
C97 C91 1.404 . S
C97 C99 1.366 . S
C97 H105 0.930 . S
C98 N96 1.325 . S
C98 C99 1.416 . S
C98 H104 0.929 . S
C99 C97 1.366 . S
C99 C98 1.416 . S
C99 H101 0.930 . S
H100 C89 0.930 . S
H101 C99 0.930 . S
H102 C117 0.930 . S
H103 C124 0.930 . S
H104 C98 0.929 . S
H105 C97 0.930 . S
H106 C120 0.929 . S
H107 C87 0.931 . S
H108 C93 0.931 . S
H109 C94 0.931 . S
H110 C115 0.931 . S
H111 C90 0.929 . S
H112 C123 0.930 . S
N113 Eu84 2.600 . S
N113 C114 1.365 . S
N113 C117 1.319 . S
C114 N113 1.365 . S
C114 C116 1.405 . S
C114 C122 1.448 . S
C115 H110 0.931 . S
C115 C117 1.397 . S
C115 C118 1.367 . S
C116 C114 1.405 . S
C116 C118 1.403 . S
C116 C149 1.439 1_455 S
C117 H102 0.930 . S
C117 N113 1.319 . S
C117 C115 1.397 . S
C118 C115 1.367 . S
C118 C116 1.403 . S
C118 H125 0.929 . S
N119 Eu84 2.562 . S
N119 C120 1.325 . S
N119 C122 1.351 . S
C120 H106 0.929 . S
C120 N119 1.325 . S
C120 C124 1.416 . S
C121 C122 1.430 . S
C121 C123 1.404 . S
C121 C150 1.386 1_455 S
C122 C114 1.448 . S
C122 N119 1.351 . S
C122 C121 1.430 . S
C123 H112 0.930 . S
C123 C121 1.404 . S
C123 C124 1.366 . S
C124 H103 0.930 . S
C124 C120 1.416 . S
C124 C123 1.366 . S
H125 C118 0.929 . S
H126 C149 0.931 . S
H127 C150 0.927 . S
O128 Eu84 2.462 . S
O128 C148 1.252 . S
O129 Eu84 2.373 1_655 S
O129 C140 1.249 . S
O130 Eu95 2.335 1_655 S
O130 C140 1.264 . S
O131 Eu84 2.432 . S
O131 C148 1.268 . S
O132 Eu84 2.291 . S
O132 C147 1.255 . S
O133 Eu95 2.372 . S
O133 C147 1.257 . S
O134 Eu95 2.462 1_655 S
O134 C159 1.252 . S
O135 Eu95 2.373 . S
O135 C151 1.249 . S
O136 Eu84 2.335 . S
O136 C151 1.264 . S
O137 Eu95 2.432 1_655 S
O137 C159 1.268 . S
O138 Eu95 2.291 . S
O138 C158 1.255 . S
O139 Eu84 2.372 . S
O139 C158 1.257 . S
C140 O129 1.249 . S
C140 O130 1.264 . S
C141 C144 1.382 . S
C141 C146 1.390 . S
C141 C148 1.506 . S
C142 C143 1.398 . S
C142 C146 1.392 . S
C143 C142 1.398 . S
C143 C145 1.372 . S
C143 H160 0.931 . S
C144 C141 1.382 . S
C144 C145 1.390 . S
C144 H161 0.931 . S
C145 C143 1.372 . S
C145 C144 1.390 . S
C145 H162 0.929 . S
C146 C141 1.390 . S
C146 C142 1.392 . S
C146 H163 0.930 . S
C147 O132 1.255 . S
C147 O133 1.257 . S
C148 Eu84 2.787 . S
C148 O128 1.252 . S
C148 O131 1.268 . S
C148 C141 1.506 . S
C149 C116 1.439 1_655 S
C149 H126 0.931 . S
C149 C150 1.380 . S
C150 C121 1.386 1_655 S
C150 H127 0.927 . S
C150 C149 1.380 . S
C151 O135 1.249 . S
C151 O136 1.264 . S
C152 C155 1.382 . S
C152 C156 1.390 . S
C152 C159 1.506 . S
C153 C154 1.398 . S
C153 C156 1.392 . S
C154 C153 1.398 . S
C154 C157 1.372 . S
C154 H164 0.931 . S
C155 C152 1.382 . S
C155 C157 1.390 . S
C155 H165 0.931 . S
C156 C152 1.390 . S
C156 C153 1.392 . S
C156 H166 0.930 . S
C157 C154 1.372 . S
C157 C155 1.390 . S
C157 H167 0.929 . S
C158 O138 1.255 . S
C158 O139 1.257 . S
C159 Eu95 2.787 1_655 S
C159 O134 1.252 . S
C159 O137 1.268 . S
C159 C152 1.506 . S
H160 C143 0.931 . S
H161 C144 0.931 . S
H162 C145 0.929 . S
H163 C146 0.930 . S
H164 C154 0.931 . S
H165 C155 0.931 . S
H166 C156 0.930 . S
H167 C157 0.929 . S
Eu168 N197 2.600 . S
Eu168 N203 2.562 . S
Eu168 O212 2.462 . S
Eu168 O213 2.373 . S
Eu168 O215 2.432 . S
Eu168 O216 2.291 . S
Eu168 O220 2.335 . S
Eu168 O223 2.372 . S
Eu168 C232 2.787 . S
C169 N170 1.365 . S
C169 C172 1.405 . S
C169 C176 1.448 . S
N170 C169 1.365 . S
N170 C173 1.319 . S
N170 Eu179 2.600 . S
C171 C173 1.397 . S
C171 C174 1.367 . S
C171 H191 0.931 . S
C172 C169 1.405 . S
C172 C174 1.403 . S
C172 C178 1.439 . S
C173 N170 1.319 . S
C173 C171 1.397 . S
C173 H184 0.930 . S
C174 C171 1.367 . S
C174 C172 1.403 . S
C174 H195 0.929 . S
C175 C176 1.430 . S
C175 C177 1.387 . S
C175 C181 1.404 . S
C176 C169 1.448 . S
C176 C175 1.430 . S
C176 N180 1.351 . S
C177 C175 1.387 . S
C177 C178 1.374 . S
C177 H192 0.931 . S
C178 C172 1.439 . S
C178 C177 1.374 . S
C178 H193 0.931 . S
Eu179 N170 2.600 . S
Eu179 N180 2.562 . S
Eu179 O214 2.335 . S
Eu179 O217 2.372 . S
Eu179 O218 2.462 . S
Eu179 O219 2.373 . S
Eu179 O221 2.432 . S
Eu179 O222 2.291 . S
Eu179 C243 2.787 . S
N180 C176 1.351 . S
N180 Eu179 2.562 . S
N180 C182 1.325 . S
C181 C175 1.404 . S
C181 C183 1.366 . S
C181 H189 0.930 . S
C182 N180 1.325 . S
C182 C183 1.416 . S
C182 H188 0.929 . S
C183 C181 1.366 . S
C183 C182 1.416 . S
C183 H185 0.930 . S
H184 C173 0.930 . S
H185 C183 0.930 . S
H186 C201 0.930 . S
H187 C208 0.930 . S
H188 C182 0.929 . S
H189 C181 0.930 . S
H190 C204 0.929 . S
H191 C171 0.931 . S
H192 C177 0.931 . S
H193 C178 0.931 . S
H194 C199 0.931 . S
H195 C174 0.929 . S
H196 C207 0.930 . S
N197 Eu168 2.600 . S
N197 C198 1.365 . S
N197 C201 1.319 . S
C198 N197 1.365 . S
C198 C200 1.405 . S
C198 C206 1.448 . S
C199 H194 0.931 . S
C199 C201 1.397 . S
C199 C202 1.367 . S
C200 C198 1.405 . S
C200 C202 1.403 . S
C200 C233 1.439 . S
C201 H186 0.930 . S
C201 N197 1.319 . S
C201 C199 1.397 . S
C202 C199 1.367 . S
C202 C200 1.403 . S
C202 H209 0.929 . S
N203 Eu168 2.562 . S
N203 C204 1.325 . S
N203 C206 1.351 . S
C204 H190 0.929 . S
C204 N203 1.325 . S
C204 C208 1.416 . S
C205 C206 1.430 . S
C205 C207 1.404 . S
C205 C234 1.387 . S
C206 C198 1.448 . S
C206 N203 1.351 . S
C206 C205 1.430 . S
C207 H196 0.930 . S
C207 C205 1.404 . S
C207 C208 1.366 . S
C208 H187 0.930 . S
C208 C204 1.416 . S
C208 C207 1.366 . S
H209 C202 0.929 . S
H210 C233 0.931 . S
H211 C234 0.931 . S
O212 Eu168 2.462 . S
O212 C232 1.252 . S
O213 Eu168 2.373 . S
O213 C224 1.249 . S
O214 Eu179 2.335 . S
O214 C224 1.264 . S
O215 Eu168 2.432 . S
O215 C232 1.268 . S
O216 Eu168 2.291 . S
O216 C231 1.255 . S
O217 Eu179 2.372 . S
O217 C231 1.257 . S
O218 Eu179 2.462 . S
O218 C243 1.252 . S
O219 Eu179 2.373 . S
O219 C235 1.249 . S
O220 Eu168 2.335 . S
O220 C235 1.264 . S
O221 Eu179 2.432 . S
O221 C243 1.268 . S
O222 Eu179 2.291 . S
O222 C242 1.255 . S
O223 Eu168 2.372 . S
O223 C242 1.257 . S
C224 O213 1.249 . S
C224 O214 1.264 . S
C225 C228 1.382 . S
C225 C230 1.390 . S
C225 C232 1.506 . S
C226 C227 1.398 . S
C226 C230 1.392 . S
C227 C226 1.398 . S
C227 C229 1.372 . S
C227 H244 0.931 . S
C228 C225 1.382 . S
C228 C229 1.390 . S
C228 H245 0.931 . S
C229 C227 1.372 . S
C229 C228 1.390 . S
C229 H246 0.929 . S
C230 C225 1.390 . S
C230 C226 1.392 . S
C230 H247 0.930 . S
C231 O216 1.255 . S
C231 O217 1.257 . S
C232 Eu168 2.787 . S
C232 O212 1.252 . S
C232 O215 1.268 . S
C232 C225 1.506 . S
C233 C200 1.439 . S
C233 H210 0.931 . S
C233 C234 1.374 . S
C234 C205 1.387 . S
C234 H211 0.931 . S
C234 C233 1.374 . S
C235 O219 1.249 . S
C235 O220 1.264 . S
C236 C239 1.382 . S
C236 C240 1.390 . S
C236 C243 1.506 . S
C237 C238 1.398 . S
C237 C240 1.392 . S
C238 C237 1.398 . S
C238 C241 1.372 . S
C238 H248 0.931 . S
C239 C236 1.382 . S
C239 C241 1.390 . S
C239 H249 0.931 . S
C240 C236 1.390 . S
C240 C237 1.392 . S
C240 H250 0.930 . S
C241 C238 1.372 . S
C241 C239 1.390 . S
C241 H251 0.929 . S
C242 O222 1.255 . S
C242 O223 1.257 . S
C243 Eu179 2.787 . S
C243 O218 1.252 . S
C243 O221 1.268 . S
C243 C236 1.506 . S
H244 C227 0.931 . S
H245 C228 0.931 . S
H246 C229 0.929 . S
H247 C230 0.930 . S
H248 C238 0.931 . S
H249 C239 0.931 . S
H250 C240 0.930 . S
H251 C241 0.929 . S
Eu252 N281 2.600 . S
Eu252 N287 2.562 . S
Eu252 O296 2.462 . S
Eu252 O297 2.373 1_655 S
Eu252 O299 2.432 . S
Eu252 O300 2.291 . S
Eu252 O304 2.335 . S
Eu252 O307 2.372 . S
Eu252 C316 2.787 . S
C253 N254 1.365 . S
C253 C256 1.405 1_455 S
C253 C260 1.448 . S
N254 C253 1.365 . S
N254 C257 1.319 . S
N254 Eu263 2.600 . S
C255 C257 1.397 1_655 S
C255 C258 1.367 . S
C255 H275 0.935 . S
C256 C253 1.405 1_655 S
C256 C258 1.403 . S
C256 C262 1.439 . S
C257 N254 1.319 . S
C257 C255 1.397 1_455 S
C257 H268 0.930 . S
C258 C255 1.367 . S
C258 C256 1.403 . S
C258 H279 0.929 . S
C259 C260 1.430 1_655 S
C259 C261 1.387 . S
C259 C265 1.404 . S
C260 C253 1.448 . S
C260 C259 1.430 1_455 S
C260 N264 1.351 . S
C261 C259 1.387 . S
C261 C262 1.374 . S
C261 H276 0.931 . S
C262 C256 1.439 . S
C262 C261 1.374 . S
C262 H277 0.931 . S
Eu263 N254 2.600 . S
Eu263 N264 2.562 . S
Eu263 O298 2.335 . S
Eu263 O301 2.372 . S
Eu263 O302 2.462 . S
Eu263 O303 2.373 1_455 S
Eu263 O305 2.432 . S
Eu263 O306 2.291 . S
Eu263 C327 2.787 . S
N264 C260 1.351 . S
N264 Eu263 2.562 . S
N264 C266 1.325 . S
C265 C259 1.404 . S
C265 C267 1.366 1_655 S
C265 H273 0.930 . S
C266 N264 1.325 . S
C266 C267 1.416 . S
C266 H272 0.929 . S
C267 C265 1.366 1_455 S
C267 C266 1.416 . S
C267 H269 0.930 . S
H268 C257 0.930 . S
H269 C267 0.930 . S
H270 C285 0.930 . S
H271 C292 0.930 . S
H272 C266 0.929 . S
H273 C265 0.930 . S
H274 C288 0.929 . S
H275 C255 0.935 . S
H276 C261 0.931 . S
H277 C262 0.931 . S
H278 C283 0.931 . S
H279 C258 0.929 . S
H280 C291 0.930 . S
N281 Eu252 2.600 . S
N281 C282 1.365 1_655 S
N281 C285 1.319 . S
C282 N281 1.365 1_455 S
C282 C284 1.405 . S
C282 C290 1.448 . S
C283 H278 0.931 . S
C283 C285 1.397 1_455 S
C283 C286 1.367 . S
C284 C282 1.405 . S
C284 C286 1.403 . S
C284 C317 1.439 . S
C285 H270 0.930 . S
C285 N281 1.319 . S
C285 C283 1.397 1_655 S
C286 C283 1.367 . S
C286 C284 1.403 . S
C286 H293 0.929 . S
N287 Eu252 2.562 . S
N287 C288 1.325 . S
N287 C290 1.351 1_655 S
C288 H274 0.929 . S
C288 N287 1.325 . S
C288 C292 1.416 1_655 S
C289 C290 1.430 . S
C289 C291 1.404 . S
C289 C318 1.387 . S
C290 C282 1.448 . S
C290 N287 1.351 1_455 S
C290 C289 1.430 . S
C291 H280 0.930 . S
C291 C289 1.404 . S
C291 C292 1.366 . S
C292 H271 0.930 . S
C292 C288 1.416 1_455 S
C292 C291 1.366 . S
H293 C286 0.929 . S
H294 C317 0.931 . S
H295 C318 0.931 . S
O296 Eu252 2.462 . S
O296 C316 1.252 . S
O297 Eu252 2.373 1_455 S
O297 C308 1.249 . S
O298 Eu263 2.335 . S
O298 C308 1.264 . S
O299 Eu252 2.432 . S
O299 C316 1.268 . S
O300 Eu252 2.291 . S
O300 C315 1.255 . S
O301 Eu263 2.372 . S
O301 C315 1.257 1_455 S
O302 Eu263 2.462 . S
O302 C327 1.252 . S
O303 Eu263 2.373 1_655 S
O303 C319 1.249 . S
O304 Eu252 2.335 . S
O304 C319 1.264 . S
O305 Eu263 2.432 . S
O305 C327 1.268 . S
O306 Eu263 2.291 . S
O306 C326 1.255 . S
O307 Eu252 2.372 . S
O307 C326 1.257 1_655 S
C308 O297 1.249 . S
C308 O298 1.264 . S
C309 C312 1.382 . S
C309 C314 1.390 . S
C309 C316 1.506 . S
C310 C311 1.398 . S
C310 C314 1.392 . S
C311 C310 1.398 . S
C311 C313 1.372 . S
C311 H328 0.931 . S
C312 C309 1.382 . S
C312 C313 1.390 . S
C312 H329 0.931 . S
C313 C311 1.372 . S
C313 C312 1.390 . S
C313 H330 0.929 . S
C314 C309 1.390 . S
C314 C310 1.392 . S
C314 H331 0.930 . S
C315 O300 1.255 . S
C315 O301 1.257 1_655 S
C316 Eu252 2.787 . S
C316 O296 1.252 . S
C316 O299 1.268 . S
C316 C309 1.506 . S
C317 C284 1.439 . S
C317 H294 0.931 . S
C317 C318 1.374 . S
C318 C289 1.387 . S
C318 H295 0.931 . S
C318 C317 1.374 . S
C319 O303 1.249 . S
C319 O304 1.264 . S
C320 C323 1.382 . S
C320 C324 1.390 . S
C320 C327 1.506 . S
C321 C322 1.398 . S
C321 C324 1.392 . S
C322 C321 1.398 . S
C322 C325 1.372 . S
C322 H332 0.931 . S
C323 C320 1.382 . S
C323 C325 1.390 . S
C323 H333 0.931 . S
C324 C320 1.390 . S
C324 C321 1.392 . S
C324 H334 0.930 . S
C325 C322 1.372 . S
C325 C323 1.390 . S
C325 H335 0.929 . S
C326 O306 1.255 . S
C326 O307 1.257 1_455 S
C327 Eu263 2.787 . S
C327 O302 1.252 . S
C327 O305 1.268 . S
C327 C320 1.506 . S
H328 C311 0.931 . S
H329 C312 0.931 . S
H330 C313 0.929 . S
H331 C314 0.930 . S
H332 C322 0.931 . S
H333 C323 0.931 . S
H334 C324 0.930 . S
H335 C325 0.929 . S
Eu336 N365 2.600 . S
Eu336 N371 2.562 . S
Eu336 O380 2.462 . S
Eu336 O381 2.373 . S
Eu336 O383 2.432 . S
Eu336 O384 2.291 . S
Eu336 O388 2.335 . S
Eu336 O391 2.372 . S
Eu336 C400 2.787 . S
C337 N338 1.365 . S
C337 C340 1.405 . S
C337 C344 1.448 . S
N338 C337 1.365 . S
N338 C341 1.319 . S
N338 Eu347 2.600 . S
C339 C341 1.397 . S
C339 C342 1.367 . S
C339 H359 0.931 . S
C340 C337 1.405 . S
C340 C342 1.403 . S
C340 C346 1.439 . S
C341 N338 1.319 . S
C341 C339 1.397 . S
C341 H352 0.930 . S
C342 C339 1.367 . S
C342 C340 1.403 . S
C342 H363 0.929 . S
C343 C344 1.430 . S
C343 C345 1.387 . S
C343 C349 1.404 . S
C344 C337 1.448 . S
C344 C343 1.430 . S
C344 N348 1.351 . S
C345 C343 1.387 . S
C345 C346 1.374 . S
C345 H360 0.931 . S
C346 C340 1.439 . S
C346 C345 1.374 . S
C346 H361 0.931 . S
Eu347 N338 2.600 . S
Eu347 N348 2.562 . S
Eu347 O382 2.335 . S
Eu347 O385 2.372 . S
Eu347 O386 2.462 . S
Eu347 O387 2.373 . S
Eu347 O389 2.432 . S
Eu347 O390 2.291 . S
Eu347 C411 2.787 . S
N348 C344 1.351 . S
N348 Eu347 2.562 . S
N348 C350 1.325 . S
C349 C343 1.404 . S
C349 C351 1.366 . S
C349 H357 0.930 . S
C350 N348 1.325 . S
C350 C351 1.416 . S
C350 H356 0.929 . S
C351 C349 1.366 . S
C351 C350 1.416 . S
C351 H353 0.930 . S
H352 C341 0.930 . S
H353 C351 0.930 . S
H354 C369 0.930 . S
H355 C376 0.930 . S
H356 C350 0.929 . S
H357 C349 0.930 . S
H358 C372 0.929 . S
H359 C339 0.931 . S
H360 C345 0.931 . S
H361 C346 0.931 . S
H362 C367 0.931 . S
H363 C342 0.929 . S
H364 C375 0.930 . S
N365 Eu336 2.600 . S
N365 C366 1.365 . S
N365 C369 1.319 . S
C366 N365 1.365 . S
C366 C368 1.405 . S
C366 C374 1.448 . S
C367 H362 0.931 . S
C367 C369 1.397 . S
C367 C370 1.367 . S
C368 C366 1.405 . S
C368 C370 1.403 . S
C368 C401 1.439 . S
C369 H354 0.930 . S
C369 N365 1.319 . S
C369 C367 1.397 . S
C370 C367 1.367 . S
C370 C368 1.403 . S
C370 H377 0.929 . S
N371 Eu336 2.562 . S
N371 C372 1.325 . S
N371 C374 1.351 . S
C372 H358 0.929 . S
C372 N371 1.325 . S
C372 C376 1.416 . S
C373 C374 1.430 . S
C373 C375 1.404 . S
C373 C402 1.387 . S
C374 C366 1.448 . S
C374 N371 1.351 . S
C374 C373 1.430 . S
C375 H364 0.930 . S
C375 C373 1.404 . S
C375 C376 1.366 . S
C376 H355 0.930 . S
C376 C372 1.416 . S
C376 C375 1.366 . S
H377 C370 0.929 . S
H378 C401 0.931 . S
H379 C402 0.931 . S
O380 Eu336 2.462 . S
O380 C400 1.252 . S
O381 Eu336 2.373 . S
O381 C392 1.249 . S
O382 Eu347 2.335 . S
O382 C392 1.264 . S
O383 Eu336 2.432 . S
O383 C400 1.268 . S
O384 Eu336 2.291 . S
O384 C399 1.255 . S
O385 Eu347 2.372 . S
O385 C399 1.257 . S
O386 Eu347 2.462 . S
O386 C411 1.252 . S
O387 Eu347 2.373 . S
O387 C403 1.249 . S
O388 Eu336 2.335 . S
O388 C403 1.264 . S
O389 Eu347 2.432 . S
O389 C411 1.268 . S
O390 Eu347 2.291 . S
O390 C410 1.255 . S
O391 Eu336 2.372 . S
O391 C410 1.257 . S
C392 O381 1.249 . S
C392 O382 1.264 . S
C393 C396 1.382 . S
C393 C398 1.390 . S
C393 C400 1.506 . S
C394 C395 1.398 . S
C394 C398 1.392 . S
C395 C394 1.398 . S
C395 C397 1.372 . S
C395 H412 0.931 . S
C396 C393 1.382 . S
C396 C397 1.390 . S
C396 H413 0.931 . S
C397 C395 1.372 . S
C397 C396 1.390 . S
C397 H414 0.929 . S
C398 C393 1.390 . S
C398 C394 1.392 . S
C398 H415 0.930 . S
C399 O384 1.255 . S
C399 O385 1.257 . S
C400 Eu336 2.787 . S
C400 O380 1.252 . S
C400 O383 1.268 . S
C400 C393 1.506 . S
C401 C368 1.439 . S
C401 H378 0.931 . S
C401 C402 1.374 . S
C402 C373 1.387 . S
C402 H379 0.931 . S
C402 C401 1.374 . S
C403 O387 1.249 . S
C403 O388 1.264 . S
C404 C407 1.382 . S
C404 C408 1.390 . S
C404 C411 1.506 . S
C405 C406 1.398 . S
C405 C408 1.392 . S
C406 C405 1.398 . S
C406 C409 1.372 . S
C406 H416 0.931 . S
C407 C404 1.382 . S
C407 C409 1.390 . S
C407 H417 0.931 . S
C408 C404 1.390 . S
C408 C405 1.392 . S
C408 H418 0.930 . S
C409 C406 1.372 . S
C409 C407 1.390 . S
C409 H419 0.929 . S
C410 O390 1.255 . S
C410 O391 1.257 . S
C411 Eu347 2.787 . S
C411 O386 1.252 . S
C411 O389 1.268 . S
C411 C404 1.506 . S
H412 C395 0.931 . S
H413 C396 0.931 . S
H414 C397 0.929 . S
H415 C398 0.930 . S
H416 C406 0.931 . S
H417 C407 0.931 . S
H418 C408 0.930 . S
H419 C409 0.929 . S
Eu420 N449 2.600 . S
Eu420 N455 2.562 . S
Eu420 O464 2.462 . S
Eu420 O465 2.373 1_545 S
Eu420 O467 2.432 . S
Eu420 O468 2.291 . S
Eu420 O472 2.335 . S
Eu420 O475 2.372 . S
Eu420 C484 2.787 . S
C421 N422 1.365 . S
C421 C424 1.405 . S
C421 C428 1.448 . S
N422 C421 1.365 . S
N422 C425 1.319 . S
N422 Eu431 2.600 . S
C423 C425 1.397 . S
C423 C426 1.367 . S
C423 H443 0.931 . S
C424 C421 1.405 . S
C424 C426 1.403 . S
C424 C430 1.439 . S
C425 N422 1.319 . S
C425 C423 1.397 . S
C425 H436 0.930 . S
C426 C423 1.367 . S
C426 C424 1.403 . S
C426 H447 0.929 . S
C427 C428 1.430 . S
C427 C429 1.387 . S
C427 C433 1.404 . S
C428 C421 1.448 . S
C428 C427 1.430 . S
C428 N432 1.351 . S
C429 C427 1.387 . S
C429 C430 1.374 . S
C429 H444 0.931 . S
C430 C424 1.439 . S
C430 C429 1.374 . S
C430 H445 0.931 . S
Eu431 N422 2.600 . S
Eu431 N432 2.562 . S
Eu431 O466 2.335 1_545 S
Eu431 O469 2.372 . S
Eu431 O470 2.462 1_545 S
Eu431 O471 2.373 . S
Eu431 O473 2.432 1_545 S
Eu431 O474 2.291 . S
Eu431 C495 2.787 1_545 S
N432 C428 1.351 . S
N432 Eu431 2.562 . S
N432 C434 1.325 . S
C433 C427 1.404 . S
C433 C435 1.366 . S
C433 H441 0.930 . S
C434 N432 1.325 . S
C434 C435 1.416 . S
C434 H440 0.929 . S
C435 C433 1.366 . S
C435 C434 1.416 . S
C435 H437 0.930 . S
H436 C425 0.930 . S
H437 C435 0.930 . S
H438 C453 0.930 . S
H439 C460 0.930 . S
H440 C434 0.929 . S
H441 C433 0.930 . S
H442 C456 0.929 . S
H443 C423 0.931 . S
H444 C429 0.931 . S
H445 C430 0.931 . S
H446 C451 0.931 . S
H447 C426 0.929 . S
H448 C459 0.930 . S
N449 Eu420 2.600 . S
N449 C450 1.365 . S
N449 C453 1.319 . S
C450 N449 1.365 . S
C450 C452 1.405 . S
C450 C458 1.448 . S
C451 H446 0.931 . S
C451 C453 1.397 . S
C451 C454 1.367 . S
C452 C450 1.405 . S
C452 C454 1.403 . S
C452 C485 1.439 1_545 S
C453 H438 0.930 . S
C453 N449 1.319 . S
C453 C451 1.397 . S
C454 C451 1.367 . S
C454 C452 1.403 . S
C454 H461 0.929 . S
N455 Eu420 2.562 . S
N455 C456 1.325 . S
N455 C458 1.351 . S
C456 H442 0.929 . S
C456 N455 1.325 . S
C456 C460 1.416 . S
C457 C458 1.430 . S
C457 C459 1.404 . S
C457 C486 1.386 1_545 S
C458 C450 1.448 . S
C458 N455 1.351 . S
C458 C457 1.430 . S
C459 H448 0.930 . S
C459 C457 1.404 . S
C459 C460 1.366 . S
C460 H439 0.930 . S
C460 C456 1.416 . S
C460 C459 1.366 . S
H461 C454 0.929 . S
H462 C485 0.931 . S
H463 C486 0.927 . S
O464 Eu420 2.462 . S
O464 C484 1.252 . S
O465 Eu420 2.373 1_565 S
O465 C476 1.249 . S
O466 Eu431 2.335 1_565 S
O466 C476 1.264 . S
O467 Eu420 2.432 . S
O467 C484 1.268 . S
O468 Eu420 2.291 . S
O468 C483 1.255 . S
O469 Eu431 2.372 . S
O469 C483 1.257 . S
O470 Eu431 2.462 1_565 S
O470 C495 1.252 . S
O471 Eu431 2.373 . S
O471 C487 1.249 . S
O472 Eu420 2.335 . S
O472 C487 1.264 . S
O473 Eu431 2.432 1_565 S
O473 C495 1.268 . S
O474 Eu431 2.291 . S
O474 C494 1.255 . S
O475 Eu420 2.372 . S
O475 C494 1.257 . S
C476 O465 1.249 . S
C476 O466 1.264 . S
C477 C480 1.382 . S
C477 C482 1.390 . S
C477 C484 1.506 . S
C478 C479 1.398 . S
C478 C482 1.392 . S
C479 C478 1.398 . S
C479 C481 1.372 . S
C479 H496 0.931 . S
C480 C477 1.382 . S
C480 C481 1.390 . S
C480 H497 0.931 . S
C481 C479 1.372 . S
C481 C480 1.390 . S
C481 H498 0.929 . S
C482 C477 1.390 . S
C482 C478 1.392 . S
C482 H499 0.930 . S
C483 O468 1.255 . S
C483 O469 1.257 . S
C484 Eu420 2.787 . S
C484 O464 1.252 . S
C484 O467 1.268 . S
C484 C477 1.506 . S
C485 C452 1.439 1_565 S
C485 H462 0.931 . S
C485 C486 1.380 . S
C486 C457 1.386 1_565 S
C486 H463 0.927 . S
C486 C485 1.380 . S
C487 O471 1.249 . S
C487 O472 1.264 . S
C488 C491 1.382 . S
C488 C492 1.390 . S
C488 C495 1.506 . S
C489 C490 1.398 . S
C489 C492 1.392 . S
C490 C489 1.398 . S
C490 C493 1.372 . S
C490 H500 0.931 . S
C491 C488 1.382 . S
C491 C493 1.390 . S
C491 H501 0.931 . S
C492 C488 1.390 . S
C492 C489 1.392 . S
C492 H502 0.930 . S
C493 C490 1.372 . S
C493 C491 1.390 . S
C493 H503 0.929 . S
C494 O474 1.255 . S
C494 O475 1.257 . S
C495 Eu431 2.787 1_565 S
C495 O470 1.252 . S
C495 O473 1.268 . S
C495 C488 1.506 . S
H496 C479 0.931 . S
H497 C480 0.931 . S
H498 C481 0.929 . S
H499 C482 0.930 . S
H500 C490 0.931 . S
H501 C491 0.931 . S
H502 C492 0.930 . S
H503 C493 0.929 . S
Eu504 N533 2.600 . S
Eu504 N539 2.562 . S
Eu504 O548 2.462 . S
Eu504 O549 2.373 . S
Eu504 O551 2.432 . S
Eu504 O552 2.291 . S
Eu504 O556 2.335 . S
Eu504 O559 2.372 . S
Eu504 C568 2.787 . S
C505 N506 1.365 . S
C505 C508 1.405 . S
C505 C512 1.448 . S
N506 C505 1.365 . S
N506 C509 1.319 . S
N506 Eu515 2.600 . S
C507 C509 1.397 . S
C507 C510 1.367 . S
C507 H527 0.931 . S
C508 C505 1.405 . S
C508 C510 1.403 . S
C508 C514 1.439 . S
C509 N506 1.319 . S
C509 C507 1.397 . S
C509 H520 0.930 . S
C510 C507 1.367 . S
C510 C508 1.403 . S
C510 H531 0.929 . S
C511 C512 1.430 . S
C511 C513 1.387 . S
C511 C517 1.404 . S
C512 C505 1.448 . S
C512 C511 1.430 . S
C512 N516 1.351 . S
C513 C511 1.387 . S
C513 C514 1.374 . S
C513 H528 0.931 . S
C514 C508 1.439 . S
C514 C513 1.374 . S
C514 H529 0.931 . S
Eu515 N506 2.600 . S
Eu515 N516 2.562 . S
Eu515 O550 2.335 . S
Eu515 O553 2.372 . S
Eu515 O554 2.462 . S
Eu515 O555 2.373 . S
Eu515 O557 2.432 . S
Eu515 O558 2.291 . S
Eu515 C579 2.787 . S
N516 C512 1.351 . S
N516 Eu515 2.562 . S
N516 C518 1.325 . S
C517 C511 1.404 . S
C517 C519 1.366 . S
C517 H525 0.930 . S
C518 N516 1.325 . S
C518 C519 1.416 . S
C518 H524 0.929 . S
C519 C517 1.366 . S
C519 C518 1.416 . S
C519 H521 0.930 . S
H520 C509 0.930 . S
H521 C519 0.930 . S
H522 C537 0.930 . S
H523 C544 0.930 . S
H524 C518 0.929 . S
H525 C517 0.930 . S
H526 C540 0.929 . S
H527 C507 0.931 . S
H528 C513 0.931 . S
H529 C514 0.931 . S
H530 C535 0.931 . S
H531 C510 0.929 . S
H532 C543 0.930 1_655 S
N533 Eu504 2.600 . S
N533 C534 1.365 . S
N533 C537 1.319 . S
C534 N533 1.365 . S
C534 C536 1.405 . S
C534 C542 1.448 . S
C535 H530 0.931 . S
C535 C537 1.397 . S
C535 C538 1.367 . S
C536 C534 1.405 . S
C536 C538 1.403 . S
C536 C569 1.439 . S
C537 H522 0.930 . S
C537 N533 1.319 . S
C537 C535 1.397 . S
C538 C535 1.367 . S
C538 C536 1.403 . S
C538 H545 0.929 . S
N539 Eu504 2.562 . S
N539 C540 1.325 . S
N539 C542 1.351 . S
C540 H526 0.929 . S
C540 N539 1.325 . S
C540 C544 1.416 . S
C541 C542 1.430 . S
C541 C543 1.404 . S
C541 C570 1.387 . S
C542 C534 1.448 . S
C542 N539 1.351 . S
C542 C541 1.430 . S
C543 H532 0.930 1_455 S
C543 C541 1.404 . S
C543 C544 1.366 . S
C544 H523 0.930 . S
C544 C540 1.416 . S
C544 C543 1.366 . S
H545 C538 0.929 . S
H546 C569 0.931 . S
H547 C570 0.931 1_655 S
O548 Eu504 2.462 . S
O548 C568 1.252 . S
O549 Eu504 2.373 . S
O549 C560 1.249 . S
O550 Eu515 2.335 . S
O550 C560 1.264 . S
O551 Eu504 2.432 . S
O551 C568 1.268 . S
O552 Eu504 2.291 . S
O552 C567 1.255 . S
O553 Eu515 2.372 . S
O553 C567 1.257 . S
O554 Eu515 2.462 . S
O554 C579 1.252 . S
O555 Eu515 2.373 . S
O555 C571 1.249 . S
O556 Eu504 2.335 . S
O556 C571 1.264 . S
O557 Eu515 2.432 . S
O557 C579 1.268 . S
O558 Eu515 2.291 . S
O558 C578 1.255 . S
O559 Eu504 2.372 . S
O559 C578 1.257 . S
C560 O549 1.249 . S
C560 O550 1.264 . S
C561 C564 1.382 . S
C561 C566 1.390 1_455 S
C561 C568 1.506 . S
C562 C563 1.398 . S
C562 C566 1.392 . S
C563 C562 1.398 . S
C563 C565 1.372 . S
C563 H580 0.931 . S
C564 C561 1.382 . S
C564 C565 1.390 1_455 S
C564 H581 0.931 . S
C565 C563 1.372 . S
C565 C564 1.390 1_655 S
C565 H582 0.929 . S
C566 C561 1.390 1_655 S
C566 C562 1.392 . S
C566 H583 0.930 1_655 S
C567 O552 1.255 . S
C567 O553 1.257 . S
C568 Eu504 2.787 . S
C568 O548 1.252 . S
C568 O551 1.268 . S
C568 C561 1.506 . S
C569 C536 1.439 . S
C569 H546 0.931 . S
C569 C570 1.374 . S
C570 C541 1.387 . S
C570 H547 0.931 1_455 S
C570 C569 1.374 . S
C571 O555 1.249 . S
C571 O556 1.264 . S
C572 C575 1.382 . S
C572 C576 1.390 . S
C572 C579 1.506 . S
C573 C574 1.398 . S
C573 C576 1.392 . S
C574 C573 1.398 . S
C574 C577 1.372 . S
C574 H584 0.931 . S
C575 C572 1.382 . S
C575 C577 1.390 . S
C575 H585 0.931 . S
C576 C572 1.390 . S
C576 C573 1.392 . S
C576 H586 0.930 . S
C577 C574 1.372 . S
C577 C575 1.390 . S
C577 H587 0.929 . S
C578 O558 1.255 . S
C578 O559 1.257 . S
C579 Eu515 2.787 . S
C579 O554 1.252 . S
C579 O557 1.268 . S
C579 C572 1.506 . S
H580 C563 0.931 . S
H581 C564 0.931 . S
H582 C565 0.929 . S
H583 C566 0.930 1_455 S
H584 C574 0.931 . S
H585 C575 0.931 . S
H586 C576 0.930 . S
H587 C577 0.929 . S
Eu588 N617 2.600 . S
Eu588 N623 2.562 . S
Eu588 O632 2.462 . S
Eu588 O633 2.373 . S
Eu588 O635 2.432 . S
Eu588 O636 2.291 . S
Eu588 O640 2.335 . S
Eu588 O643 2.372 . S
Eu588 C652 2.787 . S
C589 N590 1.365 . S
C589 C592 1.405 . S
C589 C596 1.448 . S
N590 C589 1.365 . S
N590 C593 1.319 . S
N590 Eu599 2.600 . S
C591 C593 1.397 . S
C591 C594 1.367 . S
C591 H611 0.931 . S
C592 C589 1.405 . S
C592 C594 1.403 . S
C592 C598 1.439 1_565 S
C593 N590 1.319 . S
C593 C591 1.397 . S
C593 H604 0.930 . S
C594 C591 1.367 . S
C594 C592 1.403 . S
C594 H615 0.929 . S
C595 C596 1.430 1_545 S
C595 C597 1.387 . S
C595 C601 1.404 . S
C596 C589 1.448 . S
C596 C595 1.430 1_565 S
C596 N600 1.351 . S
C597 C595 1.387 . S
C597 C598 1.374 . S
C597 H612 0.931 . S
C598 C592 1.439 1_545 S
C598 C597 1.374 . S
C598 H613 0.931 . S
Eu599 N590 2.600 . S
Eu599 N600 2.562 . S
Eu599 O634 2.335 . S
Eu599 O637 2.372 . S
Eu599 O638 2.462 . S
Eu599 O639 2.373 . S
Eu599 O641 2.432 . S
Eu599 O642 2.291 . S
Eu599 C663 2.787 . S
N600 C596 1.351 . S
N600 Eu599 2.562 . S
N600 C602 1.325 . S
C601 C595 1.404 . S
C601 C603 1.366 1_545 S
C601 H609 0.930 . S
C602 N600 1.325 . S
C602 C603 1.416 . S
C602 H608 0.929 . S
C603 C601 1.366 1_565 S
C603 C602 1.416 . S
C603 H605 0.930 . S
H604 C593 0.930 . S
H605 C603 0.930 . S
H606 C621 0.930 . S
H607 C628 0.930 . S
H608 C602 0.929 . S
H609 C601 0.930 . S
H610 C624 0.929 . S
H611 C591 0.931 . S
H612 C597 0.931 . S
H613 C598 0.931 . S
H614 C619 0.931 . S
H615 C594 0.929 . S
H616 C627 0.930 . S
N617 Eu588 2.600 . S
N617 C618 1.365 . S
N617 C621 1.319 . S
C618 N617 1.365 . S
C618 C620 1.405 . S
C618 C626 1.448 . S
C619 H614 0.931 . S
C619 C621 1.397 . S
C619 C622 1.367 . S
C620 C618 1.405 . S
C620 C622 1.403 . S
C620 C653 1.439 . S
C621 H606 0.930 . S
C621 N617 1.319 . S
C621 C619 1.397 . S
C622 C619 1.367 . S
C622 C620 1.403 . S
C622 H629 0.929 . S
N623 Eu588 2.562 . S
N623 C624 1.325 . S
N623 C626 1.351 . S
C624 H610 0.929 . S
C624 N623 1.325 . S
C624 C628 1.416 . S
C625 C626 1.430 . S
C625 C627 1.404 . S
C625 C654 1.387 . S
C626 C618 1.448 . S
C626 N623 1.351 . S
C626 C625 1.430 . S
C627 H616 0.930 . S
C627 C625 1.404 . S
C627 C628 1.366 . S
C628 H607 0.930 . S
C628 C624 1.416 . S
C628 C627 1.366 . S
H629 C622 0.929 . S
H630 C653 0.931 . S
H631 C654 0.931 . S
O632 Eu588 2.462 . S
O632 C652 1.252 . S
O633 Eu588 2.373 . S
O633 C644 1.249 . S
O634 Eu599 2.335 . S
O634 C644 1.264 . S
O635 Eu588 2.432 . S
O635 C652 1.268 . S
O636 Eu588 2.291 . S
O636 C651 1.255 . S
O637 Eu599 2.372 . S
O637 C651 1.257 . S
O638 Eu599 2.462 . S
O638 C663 1.252 . S
O639 Eu599 2.373 . S
O639 C655 1.249 . S
O640 Eu588 2.335 . S
O640 C655 1.264 . S
O641 Eu599 2.432 . S
O641 C663 1.268 . S
O642 Eu599 2.291 . S
O642 C662 1.255 . S
O643 Eu588 2.372 . S
O643 C662 1.257 . S
C644 O633 1.249 . S
C644 O634 1.264 . S
C645 C648 1.382 . S
C645 C650 1.390 . S
C645 C652 1.506 . S
C646 C647 1.398 . S
C646 C650 1.392 . S
C647 C646 1.398 . S
C647 C649 1.372 . S
C647 H664 0.931 . S
C648 C645 1.382 . S
C648 C649 1.390 . S
C648 H665 0.931 . S
C649 C647 1.372 . S
C649 C648 1.390 . S
C649 H666 0.929 . S
C650 C645 1.390 . S
C650 C646 1.392 . S
C650 H667 0.930 . S
C651 O636 1.255 . S
C651 O637 1.257 . S
C652 Eu588 2.787 . S
C652 O632 1.252 . S
C652 O635 1.268 . S
C652 C645 1.506 . S
C653 C620 1.439 . S
C653 H630 0.931 . S
C653 C654 1.374 . S
C654 C625 1.387 . S
C654 H631 0.931 . S
C654 C653 1.374 . S
C655 O639 1.249 . S
C655 O640 1.264 . S
C656 C659 1.382 . S
C656 C660 1.390 . S
C656 C663 1.506 . S
C657 C658 1.398 . S
C657 C660 1.392 . S
C658 C657 1.398 . S
C658 C661 1.372 . S
C658 H668 0.931 . S
C659 C656 1.382 . S
C659 C661 1.390 . S
C659 H669 0.931 . S
C660 C656 1.390 . S
C660 C657 1.392 . S
C660 H670 0.930 . S
C661 C658 1.372 . S
C661 C659 1.390 . S
C661 H671 0.929 . S
C662 O642 1.255 . S
C662 O643 1.257 . S
C663 Eu599 2.787 . S
C663 O638 1.252 . S
C663 O641 1.268 . S
C663 C656 1.506 . S
H664 C647 0.931 . S
H665 C648 0.931 . S
H666 C649 0.929 . S
H667 C650 0.930 . S
H668 C658 0.931 . S
H669 C659 0.931 . S
H670 C660 0.930 . S
H671 C661 0.929 . S
Eu672 N701 2.600 . S
Eu672 N707 2.562 . S
Eu672 O716 2.462 . S
Eu672 O717 2.373 . S
Eu672 O719 2.432 . S
Eu672 O720 2.291 . S
Eu672 O724 2.335 . S
Eu672 O727 2.372 . S
Eu672 C736 2.787 . S
C673 N674 1.365 . S
C673 C676 1.405 . S
C673 C680 1.448 . S
N674 C673 1.365 . S
N674 C677 1.319 . S
N674 Eu683 2.600 . S
C675 C677 1.397 . S
C675 C678 1.367 . S
C675 H695 0.931 . S
C676 C673 1.405 . S
C676 C678 1.403 . S
C676 C682 1.439 . S
C677 N674 1.319 . S
C677 C675 1.397 . S
C677 H688 0.930 . S
C678 C675 1.367 . S
C678 C676 1.403 . S
C678 H699 0.929 . S
C679 C680 1.430 . S
C679 C681 1.387 . S
C679 C685 1.404 . S
C680 C673 1.448 . S
C680 C679 1.430 . S
C680 N684 1.351 . S
C681 C679 1.387 . S
C681 C682 1.374 . S
C681 H696 0.931 1_455 S
C682 C676 1.439 . S
C682 C681 1.374 . S
C682 H697 0.931 1_455 S
Eu683 N674 2.600 . S
Eu683 N684 2.562 . S
Eu683 O718 2.335 . S
Eu683 O721 2.372 . S
Eu683 O722 2.462 . S
Eu683 O723 2.373 . S
Eu683 O725 2.432 . S
Eu683 O726 2.291 . S
Eu683 C747 2.787 . S
N684 C680 1.351 . S
N684 Eu683 2.562 . S
N684 C686 1.325 . S
C685 C679 1.404 . S
C685 C687 1.366 . S
C685 H693 0.930 1_455 S
C686 N684 1.325 . S
C686 C687 1.416 . S
C686 H692 0.929 . S
C687 C685 1.366 . S
C687 C686 1.416 . S
C687 H689 0.930 . S
H688 C677 0.930 . S
H689 C687 0.930 . S
H690 C705 0.930 . S
H691 C712 0.930 . S
H692 C686 0.929 . S
H693 C685 0.930 1_655 S
H694 C708 0.929 . S
H695 C675 0.931 . S
H696 C681 0.931 1_655 S
H697 C682 0.931 1_655 S
H698 C703 0.931 . S
H699 C678 0.929 . S
H700 C711 0.930 . S
N701 Eu672 2.600 . S
N701 C702 1.365 . S
N701 C705 1.319 . S
C702 N701 1.365 . S
C702 C704 1.405 . S
C702 C710 1.448 . S
C703 H698 0.931 . S
C703 C705 1.397 . S
C703 C706 1.367 . S
C704 C702 1.405 . S
C704 C706 1.403 . S
C704 C737 1.439 1_565 S
C705 H690 0.930 . S
C705 N701 1.319 . S
C705 C703 1.397 . S
C706 C703 1.367 . S
C706 C704 1.403 . S
C706 H713 0.929 . S
N707 Eu672 2.562 . S
N707 C708 1.325 . S
N707 C710 1.351 . S
C708 H694 0.929 . S
C708 N707 1.325 . S
C708 C712 1.416 1_565 S
C709 C710 1.430 1_545 S
C709 C711 1.404 . S
C709 C738 1.387 . S
C710 C702 1.448 . S
C710 N707 1.351 . S
C710 C709 1.430 1_565 S
C711 H700 0.930 . S
C711 C709 1.404 . S
C711 C712 1.366 . S
C712 H691 0.930 . S
C712 C708 1.416 1_545 S
C712 C711 1.366 . S
H713 C706 0.929 . S
H714 C737 0.931 . S
H715 C738 0.931 . S
O716 Eu672 2.462 . S
O716 C736 1.252 . S
O717 Eu672 2.373 . S
O717 C728 1.249 . S
O718 Eu683 2.335 . S
O718 C728 1.264 . S
O719 Eu672 2.432 . S
O719 C736 1.268 . S
O720 Eu672 2.291 . S
O720 C735 1.255 . S
O721 Eu683 2.372 . S
O721 C735 1.257 . S
O722 Eu683 2.462 . S
O722 C747 1.252 . S
O723 Eu683 2.373 . S
O723 C739 1.249 . S
O724 Eu672 2.335 . S
O724 C739 1.264 . S
O725 Eu683 2.432 . S
O725 C747 1.268 . S
O726 Eu683 2.291 . S
O726 C746 1.255 . S
O727 Eu672 2.372 . S
O727 C746 1.257 . S
C728 O717 1.249 . S
C728 O718 1.264 . S
C729 C732 1.382 . S
C729 C734 1.390 . S
C729 C736 1.506 1_545 S
C730 C731 1.398 . S
C730 C734 1.392 . S
C731 C730 1.398 . S
C731 C733 1.372 . S
C731 H748 0.931 . S
C732 C729 1.382 . S
C732 C733 1.390 . S
C732 H749 0.931 . S
C733 C731 1.372 . S
C733 C732 1.390 . S
C733 H750 0.929 . S
C734 C729 1.390 . S
C734 C730 1.392 . S
C734 H751 0.930 . S
C735 O720 1.255 . S
C735 O721 1.257 . S
C736 Eu672 2.787 . S
C736 O716 1.252 . S
C736 O719 1.268 . S
C736 C729 1.506 1_565 S
C737 C704 1.439 1_545 S
C737 H714 0.931 . S
C737 C738 1.374 . S
C738 C709 1.387 . S
C738 H715 0.931 . S
C738 C737 1.374 . S
C739 O723 1.249 . S
C739 O724 1.264 . S
C740 C743 1.382 . S
C740 C744 1.390 . S
C740 C747 1.506 . S
C741 C742 1.398 . S
C741 C744 1.392 . S
C742 C741 1.398 . S
C742 C745 1.372 . S
C742 H752 0.931 . S
C743 C740 1.382 . S
C743 C745 1.390 . S
C743 H753 0.931 . S
C744 C740 1.390 . S
C744 C741 1.392 . S
C744 H754 0.930 . S
C745 C742 1.372 . S
C745 C743 1.390 . S
C745 H755 0.929 . S
C746 O726 1.255 . S
C746 O727 1.257 . S
C747 Eu683 2.787 . S
C747 O722 1.252 . S
C747 O725 1.268 . S
C747 C740 1.506 . S
H748 C731 0.931 . S
H749 C732 0.931 . S
H750 C733 0.929 . S
H751 C734 0.930 . S
H752 C742 0.931 . S
H753 C743 0.931 . S
H754 C744 0.930 . S
H755 C745 0.929 . S
Eu756 N785 2.600 . S
Eu756 N791 2.562 . S
Eu756 O800 2.462 . S
Eu756 O801 2.373 . S
Eu756 O803 2.432 . S
Eu756 O804 2.291 . S
Eu756 O808 2.335 . S
Eu756 O811 2.372 . S
Eu756 C820 2.787 . S
C757 N758 1.365 . S
C757 C760 1.405 . S
C757 C764 1.448 . S
N758 C757 1.365 . S
N758 C761 1.319 . S
N758 Eu767 2.600 . S
C759 C761 1.397 . S
C759 C762 1.367 . S
C759 H779 0.931 . S
C760 C757 1.405 . S
C760 C762 1.403 . S
C760 C766 1.439 . S
C761 N758 1.319 . S
C761 C759 1.397 . S
C761 H772 0.930 . S
C762 C759 1.367 . S
C762 C760 1.403 . S
C762 H783 0.929 . S
C763 C764 1.430 . S
C763 C765 1.387 . S
C763 C769 1.404 . S
C764 C757 1.448 . S
C764 C763 1.430 . S
C764 N768 1.351 . S
C765 C763 1.387 . S
C765 C766 1.374 . S
C765 H780 0.931 1_565 S
C766 C760 1.439 . S
C766 C765 1.374 . S
C766 H781 0.931 . S
Eu767 N758 2.600 . S
Eu767 N768 2.562 . S
Eu767 O802 2.335 . S
Eu767 O805 2.372 . S
Eu767 O806 2.462 . S
Eu767 O807 2.373 . S
Eu767 O809 2.432 . S
Eu767 O810 2.291 . S
Eu767 C831 2.787 . S
N768 C764 1.351 . S
N768 Eu767 2.562 . S
N768 C770 1.325 . S
C769 C763 1.404 . S
C769 C771 1.366 . S
C769 H777 0.930 1_565 S
C770 N768 1.325 . S
C770 C771 1.416 . S
C770 H776 0.929 . S
C771 C769 1.366 . S
C771 C770 1.416 . S
C771 H773 0.930 . S
H772 C761 0.930 . S
H773 C771 0.930 . S
H774 C789 0.930 . S
H775 C796 0.930 . S
H776 C770 0.929 . S
H777 C769 0.930 1_545 S
H778 C792 0.929 . S
H779 C759 0.931 . S
H780 C765 0.931 1_545 S
H781 C766 0.931 . S
H782 C787 0.931 . S
H783 C762 0.929 . S
H784 C795 0.930 . S
N785 Eu756 2.600 . S
N785 C786 1.365 . S
N785 C789 1.319 . S
C786 N785 1.365 . S
C786 C788 1.405 . S
C786 C794 1.448 . S
C787 H782 0.931 . S
C787 C789 1.397 . S
C787 C790 1.367 . S
C788 C786 1.405 . S
C788 C790 1.403 . S
C788 C821 1.439 . S
C789 H774 0.930 . S
C789 N785 1.319 . S
C789 C787 1.397 . S
C790 C787 1.367 . S
C790 C788 1.403 . S
C790 H797 0.929 . S
N791 Eu756 2.562 . S
N791 C792 1.325 . S
N791 C794 1.351 . S
C792 H778 0.929 . S
C792 N791 1.325 . S
C792 C796 1.416 . S
C793 C794 1.430 . S
C793 C795 1.404 . S
C793 C822 1.387 . S
C794 C786 1.448 . S
C794 N791 1.351 . S
C794 C793 1.430 . S
C795 H784 0.930 . S
C795 C793 1.404 . S
C795 C796 1.366 . S
C796 H775 0.930 . S
C796 C792 1.416 . S
C796 C795 1.366 . S
H797 C790 0.929 . S
H798 C821 0.931 . S
H799 C822 0.931 . S
O800 Eu756 2.462 . S
O800 C820 1.252 . S
O801 Eu756 2.373 . S
O801 C812 1.249 . S
O802 Eu767 2.335 . S
O802 C812 1.264 . S
O803 Eu756 2.432 . S
O803 C820 1.268 . S
O804 Eu756 2.291 . S
O804 C819 1.255 . S
O805 Eu767 2.372 . S
O805 C819 1.257 . S
O806 Eu767 2.462 . S
O806 C831 1.252 . S
O807 Eu767 2.373 . S
O807 C823 1.249 . S
O808 Eu756 2.335 . S
O808 C823 1.264 . S
O809 Eu767 2.432 . S
O809 C831 1.268 . S
O810 Eu767 2.291 . S
O810 C830 1.255 . S
O811 Eu756 2.372 . S
O811 C830 1.257 . S
C812 O801 1.249 . S
C812 O802 1.264 . S
C813 C816 1.382 . S
C813 C818 1.390 . S
C813 C820 1.506 . S
C814 C815 1.398 . S
C814 C818 1.392 . S
C815 C814 1.398 . S
C815 C817 1.372 . S
C815 H832 0.931 . S
C816 C813 1.382 . S
C816 C817 1.390 . S
C816 H833 0.931 . S
C817 C815 1.372 . S
C817 C816 1.390 . S
C817 H834 0.929 . S
C818 C813 1.390 . S
C818 C814 1.392 . S
C818 H835 0.930 . S
C819 O804 1.255 . S
C819 O805 1.257 . S
C820 Eu756 2.787 . S
C820 O800 1.252 . S
C820 O803 1.268 . S
C820 C813 1.506 . S
C821 C788 1.439 . S
C821 H798 0.931 . S
C821 C822 1.374 . S
C822 C793 1.387 . S
C822 H799 0.931 . S
C822 C821 1.374 . S
C823 O807 1.249 . S
C823 O808 1.264 . S
C824 C827 1.382 . S
C824 C828 1.390 1_565 S
C824 C831 1.506 . S
C825 C826 1.398 . S
C825 C828 1.392 . S
C826 C825 1.398 . S
C826 C829 1.372 . S
C826 H836 0.931 . S
C827 C824 1.382 . S
C827 C829 1.388 1_565 S
C827 H837 0.933 . S
C828 C824 1.390 1_545 S
C828 C825 1.392 . S
C828 H838 0.930 1_545 S
C829 C826 1.372 . S
C829 C827 1.388 1_545 S
C829 H839 0.929 . S
C830 O810 1.255 . S
C830 O811 1.257 . S
C831 Eu767 2.787 . S
C831 O806 1.252 . S
C831 O809 1.268 . S
C831 C824 1.506 . S
H832 C815 0.931 . S
H833 C816 0.931 . S
H834 C817 0.929 . S
H835 C818 0.930 . S
H836 C826 0.931 . S
H837 C827 0.933 . S
H838 C828 0.930 1_565 S
H839 C829 0.929 . S
Eu840 N869 2.600 . S
Eu840 N875 2.562 . S
Eu840 O884 2.462 . S
Eu840 O885 2.373 . S
Eu840 O887 2.432 . S
Eu840 O888 2.291 . S
Eu840 O892 2.335 . S
Eu840 O895 2.372 . S
Eu840 C904 2.787 . S
C841 N842 1.365 . S
C841 C844 1.405 . S
C841 C848 1.448 . S
N842 C841 1.365 . S
N842 C845 1.319 . S
N842 Eu851 2.600 . S
C843 C845 1.397 . S
C843 C846 1.367 . S
C843 H863 0.931 . S
C844 C841 1.405 . S
C844 C846 1.403 . S
C844 C850 1.439 . S
C845 N842 1.319 . S
C845 C843 1.397 . S
C845 H856 0.930 . S
C846 C843 1.367 . S
C846 C844 1.403 . S
C846 H867 0.929 . S
C847 C848 1.430 . S
C847 C849 1.387 . S
C847 C853 1.404 . S
C848 C841 1.448 . S
C848 C847 1.430 . S
C848 N852 1.351 . S
C849 C847 1.387 . S
C849 C850 1.374 . S
C849 H864 0.931 . S
C850 C844 1.439 . S
C850 C849 1.374 . S
C850 H865 0.931 . S
Eu851 N842 2.600 . S
Eu851 N852 2.562 . S
Eu851 O886 2.335 . S
Eu851 O889 2.372 . S
Eu851 O890 2.462 . S
Eu851 O891 2.373 . S
Eu851 O893 2.432 . S
Eu851 O894 2.291 . S
Eu851 C915 2.787 . S
N852 C848 1.351 . S
N852 Eu851 2.562 . S
N852 C854 1.325 . S
C853 C847 1.404 . S
C853 C855 1.366 . S
C853 H861 0.930 . S
C854 N852 1.325 . S
C854 C855 1.416 . S
C854 H860 0.929 . S
C855 C853 1.366 . S
C855 C854 1.416 . S
C855 H857 0.930 . S
H856 C845 0.930 . S
H857 C855 0.930 . S
H858 C873 0.930 . S
H859 C880 0.930 . S
H860 C854 0.929 . S
H861 C853 0.930 . S
H862 C876 0.929 . S
H863 C843 0.931 . S
H864 C849 0.931 . S
H865 C850 0.931 . S
H866 C871 0.931 . S
H867 C846 0.929 . S
H868 C879 0.930 . S
N869 Eu840 2.600 . S
N869 C870 1.365 . S
N869 C873 1.319 . S
C870 N869 1.365 . S
C870 C872 1.405 . S
C870 C878 1.448 . S
C871 H866 0.931 . S
C871 C873 1.397 . S
C871 C874 1.367 . S
C872 C870 1.405 . S
C872 C874 1.403 . S
C872 C905 1.439 1_565 S
C873 H858 0.930 . S
C873 N869 1.319 . S
C873 C871 1.397 . S
C874 C871 1.367 . S
C874 C872 1.403 . S
C874 H881 0.929 1_565 S
N875 Eu840 2.562 . S
N875 C876 1.325 . S
N875 C878 1.351 . S
C876 H862 0.929 . S
C876 N875 1.325 . S
C876 C880 1.416 1_565 S
C877 C878 1.430 1_545 S
C877 C879 1.404 . S
C877 C906 1.387 . S
C878 C870 1.448 . S
C878 N875 1.351 . S
C878 C877 1.430 1_565 S
C879 H868 0.930 . S
C879 C877 1.404 . S
C879 C880 1.366 . S
C880 H859 0.930 . S
C880 C876 1.416 1_545 S
C880 C879 1.366 . S
H881 C874 0.929 1_545 S
H882 C905 0.931 . S
H883 C906 0.931 . S
O884 Eu840 2.462 . S
O884 C904 1.252 . S
O885 Eu840 2.373 . S
O885 C896 1.249 . S
O886 Eu851 2.335 . S
O886 C896 1.264 . S
O887 Eu840 2.432 . S
O887 C904 1.268 . S
O888 Eu840 2.291 . S
O888 C903 1.255 . S
O889 Eu851 2.372 . S
O889 C903 1.257 . S
O890 Eu851 2.462 . S
O890 C915 1.252 . S
O891 Eu851 2.373 . S
O891 C907 1.249 . S
O892 Eu840 2.335 . S
O892 C907 1.264 . S
O893 Eu851 2.432 . S
O893 C915 1.268 . S
O894 Eu851 2.291 . S
O894 C914 1.255 . S
O895 Eu840 2.372 . S
O895 C914 1.257 . S
C896 O885 1.249 . S
C896 O886 1.264 . S
C897 C900 1.382 . S
C897 C902 1.390 . S
C897 C904 1.506 . S
C898 C899 1.398 . S
C898 C902 1.392 . S
C899 C898 1.398 . S
C899 C901 1.372 . S
C899 H916 0.931 . S
C900 C897 1.382 . S
C900 C901 1.390 . S
C900 H917 0.931 . S
C901 C899 1.372 . S
C901 C900 1.390 . S
C901 H918 0.929 . S
C902 C897 1.390 . S
C902 C898 1.392 . S
C902 H919 0.930 . S
C903 O888 1.255 . S
C903 O889 1.257 . S
C904 Eu840 2.787 . S
C904 O884 1.252 . S
C904 O887 1.268 . S
C904 C897 1.506 . S
C905 C872 1.439 1_545 S
C905 H882 0.931 . S
C905 C906 1.374 . S
C906 C877 1.387 . S
C906 H883 0.931 . S
C906 C905 1.374 . S
C907 O891 1.249 . S
C907 O892 1.264 . S
C908 C911 1.382 . S
C908 C912 1.390 . S
C908 C915 1.506 . S
C909 C910 1.409 . S
C909 C912 1.367 1_655 S
C910 C909 1.409 . S
C910 C913 1.372 1_655 S
C910 H920 0.931 . S
C911 C908 1.382 . S
C911 C913 1.390 . S
C911 H921 0.931 . S
C912 C908 1.390 . S
C912 C909 1.367 1_455 S
C912 H922 0.930 . S
C913 C910 1.372 1_455 S
C913 C911 1.390 . S
C913 H923 0.920 1_455 S
C914 O894 1.255 . S
C914 O895 1.257 . S
C915 Eu851 2.787 . S
C915 O890 1.252 . S
C915 O893 1.268 . S
C915 C908 1.506 . S
H916 C899 0.931 . S
H917 C900 0.931 . S
H918 C901 0.929 . S
H919 C902 0.930 . S
H920 C910 0.931 . S
H921 C911 0.931 . S
H922 C912 0.930 . S
H923 C913 0.920 1_655 S
Eu924 N953 2.600 . S
Eu924 N959 2.562 . S
Eu924 O968 2.462 . S
Eu924 O969 2.373 . S
Eu924 O971 2.432 . S
Eu924 O972 2.291 . S
Eu924 O976 2.335 . S
Eu924 O979 2.372 . S
Eu924 C988 2.787 . S
C925 N926 1.365 . S
C925 C928 1.405 . S
C925 C932 1.448 . S
N926 C925 1.365 . S
N926 C929 1.319 . S
N926 Eu935 2.600 . S
C927 C929 1.397 . S
C927 C930 1.367 . S
C927 H947 0.931 . S
C928 C925 1.405 . S
C928 C930 1.403 . S
C928 C934 1.439 . S
C929 N926 1.319 . S
C929 C927 1.397 . S
C929 H940 0.930 . S
C930 C927 1.367 . S
C930 C928 1.403 . S
C930 H951 0.929 . S
C931 C932 1.430 . S
C931 C933 1.387 . S
C931 C937 1.404 . S
C932 C925 1.448 . S
C932 C931 1.430 . S
C932 N936 1.351 . S
C933 C931 1.387 . S
C933 C934 1.374 . S
C933 H948 0.931 . S
C934 C928 1.439 . S
C934 C933 1.374 . S
C934 H949 0.931 . S
Eu935 N926 2.600 . S
Eu935 N936 2.562 . S
Eu935 O970 2.335 . S
Eu935 O973 2.372 . S
Eu935 O974 2.462 . S
Eu935 O975 2.373 . S
Eu935 O977 2.432 . S
Eu935 O978 2.291 . S
Eu935 C999 2.787 . S
N936 C932 1.351 . S
N936 Eu935 2.562 . S
N936 C938 1.325 . S
C937 C931 1.404 . S
C937 C939 1.366 . S
C937 H945 0.930 . S
C938 N936 1.325 . S
C938 C939 1.416 . S
C938 H944 0.929 . S
C939 C937 1.366 . S
C939 C938 1.416 . S
C939 H941 0.930 . S
H940 C929 0.930 . S
H941 C939 0.930 . S
H942 C957 0.930 . S
H943 C964 0.930 . S
H944 C938 0.929 . S
H945 C937 0.930 . S
H946 C960 0.929 . S
H947 C927 0.931 . S
H948 C933 0.931 . S
H949 C934 0.931 . S
H950 C955 0.931 . S
H951 C930 0.929 . S
H952 C963 0.930 1_655 S
N953 Eu924 2.600 . S
N953 C954 1.365 . S
N953 C957 1.319 . S
C954 N953 1.365 . S
C954 C956 1.405 . S
C954 C962 1.448 . S
C955 H950 0.931 . S
C955 C957 1.397 . S
C955 C958 1.367 . S
C956 C954 1.405 . S
C956 C958 1.403 . S
C956 C989 1.439 . S
C957 H942 0.930 . S
C957 N953 1.319 . S
C957 C955 1.397 . S
C958 C955 1.367 . S
C958 C956 1.403 . S
C958 H965 0.929 . S
N959 Eu924 2.562 . S
N959 C960 1.325 . S
N959 C962 1.351 . S
C960 H946 0.929 . S
C960 N959 1.325 . S
C960 C964 1.416 . S
C961 C962 1.430 . S
C961 C963 1.404 . S
C961 C990 1.387 1_455 S
C962 C954 1.448 . S
C962 N959 1.351 . S
C962 C961 1.430 . S
C963 H952 0.930 1_455 S
C963 C961 1.404 . S
C963 C964 1.366 . S
C964 H943 0.930 . S
C964 C960 1.416 . S
C964 C963 1.366 . S
H965 C958 0.929 . S
H966 C989 0.931 1_655 S
H967 C990 0.931 . S
O968 Eu924 2.462 . S
O968 C988 1.252 . S
O969 Eu924 2.373 . S
O969 C980 1.249 . S
O970 Eu935 2.335 . S
O970 C980 1.264 . S
O971 Eu924 2.432 . S
O971 C988 1.268 . S
O972 Eu924 2.291 . S
O972 C987 1.255 . S
O973 Eu935 2.372 . S
O973 C987 1.257 . S
O974 Eu935 2.462 . S
O974 C999 1.252 . S
O975 Eu935 2.373 . S
O975 C991 1.249 . S
O976 Eu924 2.335 . S
O976 C991 1.264 . S
O977 Eu935 2.432 . S
O977 C999 1.268 . S
O978 Eu935 2.291 . S
O978 C998 1.255 . S
O979 Eu924 2.372 . S
O979 C998 1.257 . S
C980 O969 1.249 . S
C980 O970 1.264 . S
C981 C984 1.382 . S
C981 C986 1.390 . S
C981 C988 1.506 . S
C982 C983 1.398 . S
C982 C986 1.392 . S
C983 C982 1.398 . S
C983 C985 1.372 . S
C983 H1000 0.931 . S
C984 C981 1.382 . S
C984 C985 1.390 . S
C984 H1001 0.931 . S
C985 C983 1.372 . S
C985 C984 1.390 . S
C985 H1002 0.929 . S
C986 C981 1.390 . S
C986 C982 1.392 . S
C986 H1003 0.930 . S
C987 O972 1.255 . S
C987 O973 1.257 . S
C988 Eu924 2.787 . S
C988 O968 1.252 . S
C988 O971 1.268 . S
C988 C981 1.506 . S
C989 C956 1.439 . S
C989 H966 0.931 1_455 S
C989 C990 1.374 1_455 S
C990 C961 1.387 1_655 S
C990 H967 0.931 . S
C990 C989 1.374 1_655 S
C991 O975 1.249 . S
C991 O976 1.264 . S
C992 C995 1.382 . S
C992 C996 1.390 . S
C992 C999 1.506 . S
C993 C994 1.398 . S
C993 C996 1.392 . S
C994 C993 1.398 . S
C994 C997 1.372 . S
C994 H1004 0.931 . S
C995 C992 1.382 . S
C995 C997 1.390 . S
C995 H1005 0.931 . S
C996 C992 1.390 . S
C996 C993 1.392 . S
C996 H1006 0.930 . S
C997 C994 1.372 . S
C997 C995 1.390 . S
C997 H1007 0.929 . S
C998 O978 1.255 . S
C998 O979 1.257 . S
C999 Eu935 2.787 . S
C999 O974 1.252 . S
C999 O977 1.268 . S
C999 C992 1.506 . S
H1000 C983 0.931 . S
H1001 C984 0.931 . S
H1002 C985 0.929 . S
H1003 C986 0.930 . S
H1004 C994 0.931 . S
H1005 C995 0.931 . S
H1006 C996 0.930 . S
H1007 C997 0.929 . S
Eu1008 N1037 2.600 . S
Eu1008 N1043 2.562 . S
Eu1008 O1052 2.462 . S
Eu1008 O1053 2.373 . S
Eu1008 O1055 2.432 . S
Eu1008 O1056 2.291 . S
Eu1008 O1060 2.335 . S
Eu1008 O1063 2.372 . S
Eu1008 C1072 2.787 . S
C1009 N1010 1.365 . S
C1009 C1012 1.405 . S
C1009 C1016 1.448 . S
N1010 C1009 1.365 . S
N1010 C1013 1.319 . S
N1010 Eu1019 2.600 . S
C1011 C1013 1.397 . S
C1011 C1014 1.367 . S
C1011 H1031 0.931 . S
C1012 C1009 1.405 . S
C1012 C1014 1.403 . S
C1012 C1018 1.439 . S
C1013 N1010 1.319 . S
C1013 C1011 1.397 . S
C1013 H1024 0.930 . S
C1014 C1011 1.367 . S
C1014 C1012 1.403 . S
C1014 H1035 0.929 . S
C1015 C1016 1.430 . S
C1015 C1017 1.387 . S
C1015 C1021 1.404 . S
C1016 C1009 1.448 . S
C1016 C1015 1.430 . S
C1016 N1020 1.351 . S
C1017 C1015 1.387 . S
C1017 C1018 1.374 . S
C1017 H1032 0.931 1_655 S
C1018 C1012 1.439 . S
C1018 C1017 1.374 . S
C1018 H1033 0.931 . S
Eu1019 N1010 2.600 . S
Eu1019 N1020 2.562 . S
Eu1019 O1054 2.335 . S
Eu1019 O1057 2.372 . S
Eu1019 O1058 2.462 . S
Eu1019 O1059 2.373 . S
Eu1019 O1061 2.432 . S
Eu1019 O1062 2.291 . S
Eu1019 C1083 2.787 . S
N1020 C1016 1.351 . S
N1020 Eu1019 2.562 . S
N1020 C1022 1.325 . S
C1021 C1015 1.404 . S
C1021 C1023 1.366 . S
C1021 H1029 0.930 1_655 S
C1022 N1020 1.325 . S
C1022 C1023 1.416 . S
C1022 H1028 0.929 . S
C1023 C1021 1.366 . S
C1023 C1022 1.416 . S
C1023 H1025 0.930 . S
H1024 C1013 0.930 . S
H1025 C1023 0.930 . S
H1026 C1041 0.930 . S
H1027 C1048 0.930 . S
H1028 C1022 0.929 . S
H1029 C1021 0.930 1_455 S
H1030 C1044 0.929 . S
H1031 C1011 0.931 . S
H1032 C1017 0.931 1_455 S
H1033 C1018 0.931 . S
H1034 C1039 0.931 . S
H1035 C1014 0.929 . S
H1036 C1047 0.930 . S
N1037 Eu1008 2.600 . S
N1037 C1038 1.365 . S
N1037 C1041 1.319 . S
C1038 N1037 1.365 . S
C1038 C1040 1.405 . S
C1038 C1046 1.448 . S
C1039 H1034 0.931 . S
C1039 C1041 1.397 . S
C1039 C1042 1.367 . S
C1040 C1038 1.405 . S
C1040 C1042 1.403 . S
C1040 C1073 1.439 . S
C1041 H1026 0.930 . S
C1041 N1037 1.319 . S
C1041 C1039 1.397 . S
C1042 C1039 1.367 . S
C1042 C1040 1.403 . S
C1042 H1049 0.929 . S
N1043 Eu1008 2.562 . S
N1043 C1044 1.325 . S
N1043 C1046 1.351 . S
C1044 H1030 0.929 . S
C1044 N1043 1.325 . S
C1044 C1048 1.416 . S
C1045 C1046 1.430 . S
C1045 C1047 1.404 . S
C1045 C1074 1.387 . S
C1046 C1038 1.448 . S
C1046 N1043 1.351 . S
C1046 C1045 1.430 . S
C1047 H1036 0.930 . S
C1047 C1045 1.404 . S
C1047 C1048 1.366 . S
C1048 H1027 0.930 . S
C1048 C1044 1.416 . S
C1048 C1047 1.366 . S
H1049 C1042 0.929 . S
H1050 C1073 0.931 . S
H1051 C1074 0.931 . S
O1052 Eu1008 2.462 . S
O1052 C1072 1.252 . S
O1053 Eu1008 2.373 . S
O1053 C1064 1.249 . S
O1054 Eu1019 2.335 . S
O1054 C1064 1.264 . S
O1055 Eu1008 2.432 . S
O1055 C1072 1.268 . S
O1056 Eu1008 2.291 . S
O1056 C1071 1.255 . S
O1057 Eu1019 2.372 . S
O1057 C1071 1.257 . S
O1058 Eu1019 2.462 . S
O1058 C1083 1.252 . S
O1059 Eu1019 2.373 . S
O1059 C1075 1.249 . S
O1060 Eu1008 2.335 . S
O1060 C1075 1.264 . S
O1061 Eu1019 2.432 . S
O1061 C1083 1.268 . S
O1062 Eu1019 2.291 . S
O1062 C1082 1.255 . S
O1063 Eu1008 2.372 . S
O1063 C1082 1.257 . S
C1064 O1053 1.249 . S
C1064 O1054 1.264 . S
C1065 C1068 1.382 . S
C1065 C1070 1.390 . S
C1065 C1072 1.506 . S
C1066 C1067 1.398 . S
C1066 C1070 1.392 . S
C1067 C1066 1.398 . S
C1067 C1069 1.372 . S
C1067 H1084 0.931 . S
C1068 C1065 1.382 . S
C1068 C1069 1.390 . S
C1068 H1085 0.931 . S
C1069 C1067 1.372 . S
C1069 C1068 1.390 . S
C1069 H1086 0.929 . S
C1070 C1065 1.390 . S
C1070 C1066 1.392 . S
C1070 H1087 0.930 . S
C1071 O1056 1.255 . S
C1071 O1057 1.257 . S
C1072 Eu1008 2.787 . S
C1072 O1052 1.252 . S
C1072 O1055 1.268 . S
C1072 C1065 1.506 . S
C1073 C1040 1.439 . S
C1073 H1050 0.931 . S
C1073 C1074 1.374 . S
C1074 C1045 1.387 . S
C1074 H1051 0.931 . S
C1074 C1073 1.374 . S
C1075 O1059 1.249 . S
C1075 O1060 1.264 . S
C1076 C1079 1.382 . S
C1076 C1080 1.390 1_655 S
C1076 C1083 1.506 . S
C1077 C1078 1.398 . S
C1077 C1080 1.392 . S
C1078 C1077 1.398 . S
C1078 C1081 1.372 . S
C1078 H1088 0.931 . S
C1079 C1076 1.382 . S
C1079 C1081 1.388 1_655 S
C1079 H1089 0.933 . S
C1080 C1076 1.390 1_455 S
C1080 C1077 1.392 . S
C1080 H1090 0.930 1_455 S
C1081 C1078 1.372 . S
C1081 C1079 1.388 1_455 S
C1081 H1091 0.929 . S
C1082 O1062 1.255 . S
C1082 O1063 1.257 . S
C1083 Eu1019 2.787 . S
C1083 O1058 1.252 . S
C1083 O1061 1.268 . S
C1083 C1076 1.506 . S
H1084 C1067 0.931 . S
H1085 C1068 0.931 . S
H1086 C1069 0.929 . S
H1087 C1070 0.930 . S
H1088 C1078 0.931 . S
H1089 C1079 0.933 . S
H1090 C1080 0.930 1_655 S
H1091 C1081 0.929 . S
Eu1092 N1121 2.600 . S
Eu1092 N1127 2.562 . S
Eu1092 O1136 2.462 . S
Eu1092 O1137 2.373 . S
Eu1092 O1139 2.432 . S
Eu1092 O1140 2.291 . S
Eu1092 O1144 2.335 . S
Eu1092 O1147 2.372 . S
Eu1092 C1156 2.787 . S
C1093 N1094 1.365 . S
C1093 C1096 1.405 . S
C1093 C1100 1.448 . S
N1094 C1093 1.365 . S
N1094 C1097 1.319 . S
N1094 Eu1103 2.600 . S
C1095 C1097 1.397 . S
C1095 C1098 1.367 . S
C1095 H1115 0.931 . S
C1096 C1093 1.405 . S
C1096 C1098 1.403 . S
C1096 C1102 1.439 . S
C1097 N1094 1.319 . S
C1097 C1095 1.397 . S
C1097 H1108 0.930 . S
C1098 C1095 1.367 . S
C1098 C1096 1.403 . S
C1098 H1119 0.929 . S
C1099 C1100 1.430 . S
C1099 C1101 1.387 . S
C1099 C1105 1.404 . S
C1100 C1093 1.448 . S
C1100 C1099 1.430 . S
C1100 N1104 1.351 . S
C1101 C1099 1.387 . S
C1101 C1102 1.374 . S
C1101 H1116 0.931 . S
C1102 C1096 1.439 . S
C1102 C1101 1.374 . S
C1102 H1117 0.931 . S
Eu1103 N1094 2.600 . S
Eu1103 N1104 2.562 . S
Eu1103 O1138 2.335 . S
Eu1103 O1141 2.372 . S
Eu1103 O1142 2.462 . S
Eu1103 O1143 2.373 . S
Eu1103 O1145 2.432 . S
Eu1103 O1146 2.291 . S
Eu1103 C1167 2.787 . S
N1104 C1100 1.351 . S
N1104 Eu1103 2.562 . S
N1104 C1106 1.325 . S
C1105 C1099 1.404 . S
C1105 C1107 1.366 . S
C1105 H1113 0.930 . S
C1106 N1104 1.325 . S
C1106 C1107 1.416 . S
C1106 H1112 0.929 . S
C1107 C1105 1.366 . S
C1107 C1106 1.416 . S
C1107 H1109 0.930 . S
H1108 C1097 0.930 . S
H1109 C1107 0.930 . S
H1110 C1125 0.930 . S
H1111 C1132 0.930 . S
H1112 C1106 0.929 . S
H1113 C1105 0.930 . S
H1114 C1128 0.929 . S
H1115 C1095 0.931 . S
H1116 C1101 0.931 . S
H1117 C1102 0.931 . S
H1118 C1123 0.931 . S
H1119 C1098 0.929 . S
H1120 C1131 0.930 1_565 S
N1121 Eu1092 2.600 . S
N1121 C1122 1.365 . S
N1121 C1125 1.319 . S
C1122 N1121 1.365 . S
C1122 C1124 1.405 . S
C1122 C1130 1.448 . S
C1123 H1118 0.931 . S
C1123 C1125 1.397 . S
C1123 C1126 1.367 . S
C1124 C1122 1.405 . S
C1124 C1126 1.403 . S
C1124 C1157 1.439 . S
C1125 H1110 0.930 . S
C1125 N1121 1.319 . S
C1125 C1123 1.397 . S
C1126 C1123 1.367 . S
C1126 C1124 1.403 . S
C1126 H1133 0.929 . S
N1127 Eu1092 2.562 . S
N1127 C1128 1.325 . S
N1127 C1130 1.351 . S
C1128 H1114 0.929 . S
C1128 N1127 1.325 . S
C1128 C1132 1.416 . S
C1129 C1130 1.430 . S
C1129 C1131 1.404 . S
C1129 C1158 1.387 1_545 S
C1130 C1122 1.448 . S
C1130 N1127 1.351 . S
C1130 C1129 1.430 . S
C1131 H1120 0.930 1_545 S
C1131 C1129 1.404 . S
C1131 C1132 1.366 . S
C1132 H1111 0.930 . S
C1132 C1128 1.416 . S
C1132 C1131 1.366 . S
H1133 C1126 0.929 . S
H1134 C1157 0.931 1_565 S
H1135 C1158 0.931 . S
O1136 Eu1092 2.462 . S
O1136 C1156 1.252 . S
O1137 Eu1092 2.373 . S
O1137 C1148 1.249 . S
O1138 Eu1103 2.335 . S
O1138 C1148 1.264 . S
O1139 Eu1092 2.432 . S
O1139 C1156 1.268 . S
O1140 Eu1092 2.291 . S
O1140 C1155 1.255 . S
O1141 Eu1103 2.372 . S
O1141 C1155 1.257 . S
O1142 Eu1103 2.462 . S
O1142 C1167 1.252 . S
O1143 Eu1103 2.373 . S
O1143 C1159 1.249 . S
O1144 Eu1092 2.335 . S
O1144 C1159 1.264 . S
O1145 Eu1103 2.432 . S
O1145 C1167 1.268 . S
O1146 Eu1103 2.291 . S
O1146 C1166 1.255 . S
O1147 Eu1092 2.372 . S
O1147 C1166 1.257 . S
C1148 O1137 1.249 . S
C1148 O1138 1.264 . S
C1149 C1152 1.382 . S
C1149 C1154 1.390 . S
C1149 C1156 1.506 . S
C1150 C1151 1.398 . S
C1150 C1154 1.392 . S
C1151 C1150 1.398 . S
C1151 C1153 1.372 . S
C1151 H1168 0.931 . S
C1152 C1149 1.382 . S
C1152 C1153 1.390 . S
C1152 H1169 0.931 . S
C1153 C1151 1.372 . S
C1153 C1152 1.390 . S
C1153 H1170 0.929 . S
C1154 C1149 1.390 . S
C1154 C1150 1.392 . S
C1154 H1171 0.930 . S
C1155 O1140 1.255 . S
C1155 O1141 1.257 . S
C1156 Eu1092 2.787 . S
C1156 O1136 1.252 . S
C1156 O1139 1.268 . S
C1156 C1149 1.506 . S
C1157 C1124 1.439 . S
C1157 H1134 0.931 1_545 S
C1157 C1158 1.374 1_545 S
C1158 C1129 1.387 1_565 S
C1158 H1135 0.931 . S
C1158 C1157 1.374 1_565 S
C1159 O1143 1.249 . S
C1159 O1144 1.264 . S
C1160 C1163 1.382 . S
C1160 C1164 1.390 . S
C1160 C1167 1.506 . S
C1161 C1162 1.398 . S
C1161 C1164 1.392 . S
C1162 C1161 1.398 . S
C1162 C1165 1.372 . S
C1162 H1172 0.931 . S
C1163 C1160 1.382 . S
C1163 C1165 1.390 . S
C1163 H1173 0.931 . S
C1164 C1160 1.390 . S
C1164 C1161 1.392 . S
C1164 H1174 0.930 . S
C1165 C1162 1.372 . S
C1165 C1163 1.390 . S
C1165 H1175 0.929 . S
C1166 O1146 1.255 . S
C1166 O1147 1.257 . S
C1167 Eu1103 2.787 . S
C1167 O1142 1.252 . S
C1167 O1145 1.268 . S
C1167 C1160 1.506 . S
H1168 C1151 0.931 . S
H1169 C1152 0.931 . S
H1170 C1153 0.929 . S
H1171 C1154 0.930 . S
H1172 C1162 0.931 . S
H1173 C1163 0.931 . S
H1174 C1164 0.930 . S
H1175 C1165 0.929 . S
Eu1176 N1205 2.600 . S
Eu1176 N1211 2.562 . S
Eu1176 O1220 2.462 . S
Eu1176 O1221 2.373 . S
Eu1176 O1223 2.432 . S
Eu1176 O1224 2.291 . S
Eu1176 O1228 2.335 . S
Eu1176 O1231 2.372 . S
Eu1176 C1240 2.787 . S
C1177 N1178 1.365 . S
C1177 C1180 1.405 . S
C1177 C1184 1.448 . S
N1178 C1177 1.365 . S
N1178 C1181 1.319 . S
N1178 Eu1187 2.600 . S
C1179 C1181 1.397 . S
C1179 C1182 1.367 . S
C1179 H1199 0.931 . S
C1180 C1177 1.405 . S
C1180 C1182 1.403 . S
C1180 C1186 1.439 . S
C1181 N1178 1.319 . S
C1181 C1179 1.397 . S
C1181 H1192 0.930 . S
C1182 C1179 1.367 . S
C1182 C1180 1.403 . S
C1182 H1203 0.929 . S
C1183 C1184 1.430 . S
C1183 C1185 1.387 . S
C1183 C1189 1.404 . S
C1184 C1177 1.448 . S
C1184 C1183 1.430 . S
C1184 N1188 1.351 . S
C1185 C1183 1.387 . S
C1185 C1186 1.374 . S
C1185 H1200 0.931 . S
C1186 C1180 1.439 . S
C1186 C1185 1.374 . S
C1186 H1201 0.931 . S
Eu1187 N1178 2.600 . S
Eu1187 N1188 2.562 . S
Eu1187 O1222 2.335 . S
Eu1187 O1225 2.372 . S
Eu1187 O1226 2.462 . S
Eu1187 O1227 2.373 . S
Eu1187 O1229 2.432 . S
Eu1187 O1230 2.291 . S
Eu1187 C1251 2.787 . S
N1188 C1184 1.351 . S
N1188 Eu1187 2.562 . S
N1188 C1190 1.325 . S
C1189 C1183 1.404 . S
C1189 C1191 1.366 . S
C1189 H1197 0.930 . S
C1190 N1188 1.325 . S
C1190 C1191 1.416 . S
C1190 H1196 0.929 . S
C1191 C1189 1.366 . S
C1191 C1190 1.416 . S
C1191 H1193 0.930 . S
H1192 C1181 0.930 . S
H1193 C1191 0.930 . S
H1194 C1209 0.930 . S
H1195 C1216 0.930 . S
H1196 C1190 0.929 . S
H1197 C1189 0.930 . S
H1198 C1212 0.929 . S
H1199 C1179 0.931 . S
H1200 C1185 0.931 . S
H1201 C1186 0.931 . S
H1202 C1207 0.931 . S
H1203 C1182 0.929 . S
H1204 C1215 0.930 . S
N1205 Eu1176 2.600 . S
N1205 C1206 1.365 . S
N1205 C1209 1.319 . S
C1206 N1205 1.365 . S
C1206 C1208 1.405 . S
C1206 C1214 1.448 . S
C1207 H1202 0.931 . S
C1207 C1209 1.397 . S
C1207 C1210 1.367 . S
C1208 C1206 1.405 . S
C1208 C1210 1.403 . S
C1208 C1241 1.439 1_655 S
C1209 H1194 0.930 . S
C1209 N1205 1.319 . S
C1209 C1207 1.397 . S
C1210 C1207 1.367 . S
C1210 C1208 1.403 . S
C1210 H1217 0.929 1_655 S
N1211 Eu1176 2.562 . S
N1211 C1212 1.325 . S
N1211 C1214 1.351 . S
C1212 H1198 0.929 . S
C1212 N1211 1.325 . S
C1212 C1216 1.416 1_655 S
C1213 C1214 1.430 1_455 S
C1213 C1215 1.404 . S
C1213 C1242 1.387 . S
C1214 C1206 1.448 . S
C1214 N1211 1.351 . S
C1214 C1213 1.430 1_655 S
C1215 H1204 0.930 . S
C1215 C1213 1.404 . S
C1215 C1216 1.366 . S
C1216 H1195 0.930 . S
C1216 C1212 1.416 1_455 S
C1216 C1215 1.366 . S
H1217 C1210 0.929 1_455 S
H1218 C1241 0.931 . S
H1219 C1242 0.931 . S
O1220 Eu1176 2.462 . S
O1220 C1240 1.252 . S
O1221 Eu1176 2.373 . S
O1221 C1232 1.249 . S
O1222 Eu1187 2.335 . S
O1222 C1232 1.264 . S
O1223 Eu1176 2.432 . S
O1223 C1240 1.268 . S
O1224 Eu1176 2.291 . S
O1224 C1239 1.255 . S
O1225 Eu1187 2.372 . S
O1225 C1239 1.257 . S
O1226 Eu1187 2.462 . S
O1226 C1251 1.252 . S
O1227 Eu1187 2.373 . S
O1227 C1243 1.249 . S
O1228 Eu1176 2.335 . S
O1228 C1243 1.264 . S
O1229 Eu1187 2.432 . S
O1229 C1251 1.268 . S
O1230 Eu1187 2.291 . S
O1230 C1250 1.255 . S
O1231 Eu1176 2.372 . S
O1231 C1250 1.257 . S
C1232 O1221 1.249 . S
C1232 O1222 1.264 . S
C1233 C1236 1.382 . S
C1233 C1238 1.390 . S
C1233 C1240 1.506 . S
C1234 C1235 1.398 . S
C1234 C1238 1.392 . S
C1235 C1234 1.398 . S
C1235 C1237 1.372 . S
C1235 H1252 0.931 . S
C1236 C1233 1.382 . S
C1236 C1237 1.390 . S
C1236 H1253 0.931 . S
C1237 C1235 1.372 . S
C1237 C1236 1.390 . S
C1237 H1254 0.929 . S
C1238 C1233 1.390 . S
C1238 C1234 1.392 . S
C1238 H1255 0.930 . S
C1239 O1224 1.255 . S
C1239 O1225 1.257 . S
C1240 Eu1176 2.787 . S
C1240 O1220 1.252 . S
C1240 O1223 1.268 . S
C1240 C1233 1.506 . S
C1241 C1208 1.439 1_455 S
C1241 H1218 0.931 . S
C1241 C1242 1.374 . S
C1242 C1213 1.387 . S
C1242 H1219 0.931 . S
C1242 C1241 1.374 . S
C1243 O1227 1.249 . S
C1243 O1228 1.264 . S
C1244 C1247 1.382 . S
C1244 C1248 1.390 . S
C1244 C1251 1.506 . S
C1245 C1246 1.409 . S
C1245 C1248 1.367 1_565 S
C1246 C1245 1.409 . S
C1246 C1249 1.372 1_565 S
C1246 H1256 0.931 . S
C1247 C1244 1.382 . S
C1247 C1249 1.390 . S
C1247 H1257 0.931 . S
C1248 C1244 1.390 . S
C1248 C1245 1.367 1_545 S
C1248 H1258 0.930 . S
C1249 C1246 1.372 1_545 S
C1249 C1247 1.390 . S
C1249 H1259 0.920 1_545 S
C1250 O1230 1.255 . S
C1250 O1231 1.257 . S
C1251 Eu1187 2.787 . S
C1251 O1226 1.252 . S
C1251 O1229 1.268 . S
C1251 C1244 1.506 . S
H1252 C1235 0.931 . S
H1253 C1236 0.931 . S
H1254 C1237 0.929 . S
H1255 C1238 0.930 . S
H1256 C1246 0.931 . S
H1257 C1247 0.931 . S
H1258 C1248 0.930 . S
H1259 C1249 0.920 1_565 S
Eu1260 N1289 2.600 . S
Eu1260 N1295 2.562 . S
Eu1260 O1304 2.462 . S
Eu1260 O1305 2.373 . S
Eu1260 O1307 2.432 . S
Eu1260 O1308 2.291 . S
Eu1260 O1312 2.335 . S
Eu1260 O1315 2.372 . S
Eu1260 C1324 2.787 . S
C1261 N1262 1.365 . S
C1261 C1264 1.405 . S
C1261 C1268 1.448 . S
N1262 C1261 1.365 . S
N1262 C1265 1.319 . S
N1262 Eu1271 2.600 . S
C1263 C1265 1.397 . S
C1263 C1266 1.367 . S
C1263 H1283 0.931 . S
C1264 C1261 1.405 . S
C1264 C1266 1.403 . S
C1264 C1270 1.439 . S
C1265 N1262 1.319 . S
C1265 C1263 1.397 . S
C1265 H1276 0.930 . S
C1266 C1263 1.367 . S
C1266 C1264 1.403 . S
C1266 H1287 0.929 . S
C1267 C1268 1.430 . S
C1267 C1269 1.387 . S
C1267 C1273 1.404 . S
C1268 C1261 1.448 . S
C1268 C1267 1.430 . S
C1268 N1272 1.351 . S
C1269 C1267 1.387 . S
C1269 C1270 1.374 . S
C1269 H1284 0.931 . S
C1270 C1264 1.439 . S
C1270 C1269 1.374 . S
C1270 H1285 0.931 . S
Eu1271 N1262 2.600 . S
Eu1271 N1272 2.562 . S
Eu1271 O1306 2.335 . S
Eu1271 O1309 2.372 . S
Eu1271 O1310 2.462 . S
Eu1271 O1311 2.373 . S
Eu1271 O1313 2.432 . S
Eu1271 O1314 2.291 . S
Eu1271 C1335 2.787 . S
N1272 C1268 1.351 . S
N1272 Eu1271 2.562 . S
N1272 C1274 1.325 . S
C1273 C1267 1.404 . S
C1273 C1275 1.366 . S
C1273 H1281 0.930 . S
C1274 N1272 1.325 . S
C1274 C1275 1.416 . S
C1274 H1280 0.929 . S
C1275 C1273 1.366 . S
C1275 C1274 1.416 . S
C1275 H1277 0.930 . S
H1276 C1265 0.930 . S
H1277 C1275 0.930 . S
H1278 C1293 0.930 . S
H1279 C1300 0.930 . S
H1280 C1274 0.929 . S
H1281 C1273 0.930 . S
H1282 C1296 0.929 . S
H1283 C1263 0.931 . S
H1284 C1269 0.931 . S
H1285 C1270 0.931 . S
H1286 C1291 0.931 . S
H1287 C1266 0.929 . S
H1288 C1299 0.930 1_565 S
N1289 Eu1260 2.600 . S
N1289 C1290 1.365 . S
N1289 C1293 1.319 . S
C1290 N1289 1.365 . S
C1290 C1292 1.405 . S
C1290 C1298 1.448 . S
C1291 H1286 0.931 . S
C1291 C1293 1.397 . S
C1291 C1294 1.367 . S
C1292 C1290 1.405 . S
C1292 C1294 1.403 . S
C1292 C1325 1.439 . S
C1293 H1278 0.930 . S
C1293 N1289 1.319 . S
C1293 C1291 1.397 . S
C1294 C1291 1.367 . S
C1294 C1292 1.403 . S
C1294 H1301 0.929 . S
N1295 Eu1260 2.562 . S
N1295 C1296 1.325 . S
N1295 C1298 1.351 . S
C1296 H1282 0.929 . S
C1296 N1295 1.325 . S
C1296 C1300 1.416 . S
C1297 C1298 1.430 . S
C1297 C1299 1.404 . S
C1297 C1326 1.387 . S
C1298 C1290 1.448 . S
C1298 N1295 1.351 . S
C1298 C1297 1.430 . S
C1299 H1288 0.930 1_545 S
C1299 C1297 1.404 . S
C1299 C1300 1.366 . S
C1300 H1279 0.930 . S
C1300 C1296 1.416 . S
C1300 C1299 1.366 . S
H1301 C1294 0.929 . S
H1302 C1325 0.931 . S
H1303 C1326 0.931 1_565 S
O1304 Eu1260 2.462 . S
O1304 C1324 1.252 . S
O1305 Eu1260 2.373 . S
O1305 C1316 1.249 . S
O1306 Eu1271 2.335 . S
O1306 C1316 1.264 . S
O1307 Eu1260 2.432 . S
O1307 C1324 1.268 . S
O1308 Eu1260 2.291 . S
O1308 C1323 1.255 . S
O1309 Eu1271 2.372 . S
O1309 C1323 1.257 . S
O1310 Eu1271 2.462 . S
O1310 C1335 1.252 . S
O1311 Eu1271 2.373 . S
O1311 C1327 1.249 . S
O1312 Eu1260 2.335 . S
O1312 C1327 1.264 . S
O1313 Eu1271 2.432 . S
O1313 C1335 1.268 . S
O1314 Eu1271 2.291 . S
O1314 C1334 1.255 . S
O1315 Eu1260 2.372 . S
O1315 C1334 1.257 . S
C1316 O1305 1.249 . S
C1316 O1306 1.264 . S
C1317 C1320 1.382 . S
C1317 C1322 1.390 1_545 S
C1317 C1324 1.506 . S
C1318 C1319 1.398 . S
C1318 C1322 1.392 . S
C1319 C1318 1.398 . S
C1319 C1321 1.372 . S
C1319 H1336 0.931 . S
C1320 C1317 1.382 . S
C1320 C1321 1.390 1_545 S
C1320 H1337 0.931 . S
C1321 C1319 1.372 . S
C1321 C1320 1.390 1_565 S
C1321 H1338 0.929 . S
C1322 C1317 1.390 1_565 S
C1322 C1318 1.392 . S
C1322 H1339 0.930 1_565 S
C1323 O1308 1.255 . S
C1323 O1309 1.257 . S
C1324 Eu1260 2.787 . S
C1324 O1304 1.252 . S
C1324 O1307 1.268 . S
C1324 C1317 1.506 . S
C1325 C1292 1.439 . S
C1325 H1302 0.931 . S
C1325 C1326 1.374 . S
C1326 C1297 1.387 . S
C1326 H1303 0.931 1_545 S
C1326 C1325 1.374 . S
C1327 O1311 1.249 . S
C1327 O1312 1.264 . S
C1328 C1331 1.382 . S
C1328 C1332 1.390 . S
C1328 C1335 1.506 . S
C1329 C1330 1.398 . S
C1329 C1332 1.392 . S
C1330 C1329 1.398 . S
C1330 C1333 1.372 . S
C1330 H1340 0.931 . S
C1331 C1328 1.382 . S
C1331 C1333 1.390 . S
C1331 H1341 0.931 . S
C1332 C1328 1.390 . S
C1332 C1329 1.392 . S
C1332 H1342 0.930 . S
C1333 C1330 1.372 . S
C1333 C1331 1.390 . S
C1333 H1343 0.929 . S
C1334 O1314 1.255 . S
C1334 O1315 1.257 . S
C1335 Eu1271 2.787 . S
C1335 O1310 1.252 . S
C1335 O1313 1.268 . S
C1335 C1328 1.506 . S
H1336 C1319 0.931 . S
H1337 C1320 0.931 . S
H1338 C1321 0.929 . S
H1339 C1322 0.930 1_545 S
H1340 C1330 0.931 . S
H1341 C1331 0.931 . S
H1342 C1332 0.930 . S
H1343 C1333 0.929 . S
Eu1344 N1373 2.600 . S
Eu1344 N1379 2.562 . S
Eu1344 O1388 2.462 . S
Eu1344 O1389 2.373 . S
Eu1344 O1391 2.432 . S
Eu1344 O1392 2.291 . S
Eu1344 O1396 2.335 . S
Eu1344 O1399 2.372 . S
Eu1344 C1408 2.787 . S
C1345 N1346 1.365 . S
C1345 C1348 1.405 . S
C1345 C1352 1.448 . S
N1346 C1345 1.365 . S
N1346 C1349 1.319 . S
N1346 Eu1355 2.600 . S
C1347 C1349 1.397 . S
C1347 C1350 1.367 . S
C1347 H1367 0.931 . S
C1348 C1345 1.405 . S
C1348 C1350 1.403 . S
C1348 C1354 1.439 . S
C1349 N1346 1.319 . S
C1349 C1347 1.397 . S
C1349 H1360 0.930 . S
C1350 C1347 1.367 . S
C1350 C1348 1.403 . S
C1350 H1371 0.929 . S
C1351 C1352 1.430 . S
C1351 C1353 1.387 . S
C1351 C1357 1.404 . S
C1352 C1345 1.448 . S
C1352 C1351 1.430 . S
C1352 N1356 1.351 . S
C1353 C1351 1.387 . S
C1353 C1354 1.374 . S
C1353 H1368 0.931 1_545 S
C1354 C1348 1.439 . S
C1354 C1353 1.374 . S
C1354 H1369 0.931 1_545 S
Eu1355 N1346 2.600 . S
Eu1355 N1356 2.562 . S
Eu1355 O1390 2.335 . S
Eu1355 O1393 2.372 . S
Eu1355 O1394 2.462 . S
Eu1355 O1395 2.373 . S
Eu1355 O1397 2.432 . S
Eu1355 O1398 2.291 . S
Eu1355 C1419 2.787 . S
N1356 C1352 1.351 . S
N1356 Eu1355 2.562 . S
N1356 C1358 1.325 . S
C1357 C1351 1.404 . S
C1357 C1359 1.366 . S
C1357 H1365 0.930 1_545 S
C1358 N1356 1.325 . S
C1358 C1359 1.416 . S
C1358 H1364 0.929 . S
C1359 C1357 1.366 . S
C1359 C1358 1.416 . S
C1359 H1361 0.930 . S
H1360 C1349 0.930 . S
H1361 C1359 0.930 . S
H1362 C1377 0.930 . S
H1363 C1384 0.930 . S
H1364 C1358 0.929 . S
H1365 C1357 0.930 1_565 S
H1366 C1380 0.929 . S
H1367 C1347 0.931 . S
H1368 C1353 0.931 1_565 S
H1369 C1354 0.931 1_565 S
H1370 C1375 0.931 . S
H1371 C1350 0.929 . S
H1372 C1383 0.930 . S
N1373 Eu1344 2.600 . S
N1373 C1374 1.365 . S
N1373 C1377 1.319 . S
C1374 N1373 1.365 . S
C1374 C1376 1.405 . S
C1374 C1382 1.448 . S
C1375 H1370 0.931 . S
C1375 C1377 1.397 . S
C1375 C1378 1.367 . S
C1376 C1374 1.405 . S
C1376 C1378 1.403 . S
C1376 C1409 1.439 1_655 S
C1377 H1362 0.930 . S
C1377 N1373 1.319 . S
C1377 C1375 1.397 . S
C1378 C1375 1.367 . S
C1378 C1376 1.403 . S
C1378 H1385 0.929 . S
N1379 Eu1344 2.562 . S
N1379 C1380 1.325 . S
N1379 C1382 1.351 . S
C1380 H1366 0.929 . S
C1380 N1379 1.325 . S
C1380 C1384 1.416 1_655 S
C1381 C1382 1.430 1_455 S
C1381 C1383 1.404 . S
C1381 C1410 1.387 . S
C1382 C1374 1.448 . S
C1382 N1379 1.351 . S
C1382 C1381 1.430 1_655 S
C1383 H1372 0.930 . S
C1383 C1381 1.404 . S
C1383 C1384 1.366 . S
C1384 H1363 0.930 . S
C1384 C1380 1.416 1_455 S
C1384 C1383 1.366 . S
H1385 C1378 0.929 . S
H1386 C1409 0.931 . S
H1387 C1410 0.931 . S
O1388 Eu1344 2.462 . S
O1388 C1408 1.252 . S
O1389 Eu1344 2.373 . S
O1389 C1400 1.249 . S
O1390 Eu1355 2.335 . S
O1390 C1400 1.264 . S
O1391 Eu1344 2.432 . S
O1391 C1408 1.268 . S
O1392 Eu1344 2.291 . S
O1392 C1407 1.255 . S
O1393 Eu1355 2.372 . S
O1393 C1407 1.257 . S
O1394 Eu1355 2.462 . S
O1394 C1419 1.252 . S
O1395 Eu1355 2.373 . S
O1395 C1411 1.249 . S
O1396 Eu1344 2.335 . S
O1396 C1411 1.264 . S
O1397 Eu1355 2.432 . S
O1397 C1419 1.268 . S
O1398 Eu1355 2.291 . S
O1398 C1418 1.255 . S
O1399 Eu1344 2.372 . S
O1399 C1418 1.257 . S
C1400 O1389 1.249 . S
C1400 O1390 1.264 . S
C1401 C1404 1.382 . S
C1401 C1406 1.390 . S
C1401 C1408 1.506 1_455 S
C1402 C1403 1.398 . S
C1402 C1406 1.392 . S
C1403 C1402 1.398 . S
C1403 C1405 1.372 . S
C1403 H1420 0.931 . S
C1404 C1401 1.382 . S
C1404 C1405 1.390 . S
C1404 H1421 0.931 . S
C1405 C1403 1.372 . S
C1405 C1404 1.390 . S
C1405 H1422 0.929 . S
C1406 C1401 1.390 . S
C1406 C1402 1.392 . S
C1406 H1423 0.930 . S
C1407 O1392 1.255 . S
C1407 O1393 1.257 . S
C1408 Eu1344 2.787 . S
C1408 O1388 1.252 . S
C1408 O1391 1.268 . S
C1408 C1401 1.506 1_655 S
C1409 C1376 1.439 1_455 S
C1409 H1386 0.931 . S
C1409 C1410 1.374 . S
C1410 C1381 1.387 . S
C1410 H1387 0.931 . S
C1410 C1409 1.374 . S
C1411 O1395 1.249 . S
C1411 O1396 1.264 . S
C1412 C1415 1.382 . S
C1412 C1416 1.390 . S
C1412 C1419 1.506 . S
C1413 C1414 1.398 . S
C1413 C1416 1.392 . S
C1414 C1413 1.398 . S
C1414 C1417 1.372 . S
C1414 H1424 0.931 . S
C1415 C1412 1.382 . S
C1415 C1417 1.390 . S
C1415 H1425 0.931 . S
C1416 C1412 1.390 . S
C1416 C1413 1.392 . S
C1416 H1426 0.930 . S
C1417 C1414 1.372 . S
C1417 C1415 1.390 . S
C1417 H1427 0.929 . S
C1418 O1398 1.255 . S
C1418 O1399 1.257 . S
C1419 Eu1355 2.787 . S
C1419 O1394 1.252 . S
C1419 O1397 1.268 . S
C1419 C1412 1.506 . S
H1420 C1403 0.931 . S
H1421 C1404 0.931 . S
H1422 C1405 0.929 . S
H1423 C1406 0.930 . S
H1424 C1414 0.931 . S
H1425 C1415 0.931 . S
H1426 C1416 0.930 . S
H1427 C1417 0.929 . S
Eu1428 N1457 2.600 . S
Eu1428 N1463 2.562 . S
Eu1428 O1472 2.462 . S
Eu1428 O1473 2.373 . S
Eu1428 O1475 2.432 . S
Eu1428 O1476 2.291 . S
Eu1428 O1480 2.335 . S
Eu1428 O1483 2.372 . S
Eu1428 C1492 2.787 . S
C1429 N1430 1.365 . S
C1429 C1432 1.405 . S
C1429 C1436 1.448 . S
N1430 C1429 1.365 . S
N1430 C1433 1.319 . S
N1430 Eu1439 2.600 . S
C1431 C1433 1.397 . S
C1431 C1434 1.367 . S
C1431 H1451 0.931 . S
C1432 C1429 1.405 . S
C1432 C1434 1.403 . S
C1432 C1438 1.439 1_655 S
C1433 N1430 1.319 . S
C1433 C1431 1.397 . S
C1433 H1444 0.930 . S
C1434 C1431 1.367 . S
C1434 C1432 1.403 . S
C1434 H1455 0.929 . S
C1435 C1436 1.430 1_455 S
C1435 C1437 1.387 . S
C1435 C1441 1.404 . S
C1436 C1429 1.448 . S
C1436 C1435 1.430 1_655 S
C1436 N1440 1.351 . S
C1437 C1435 1.387 . S
C1437 C1438 1.374 . S
C1437 H1452 0.931 . S
C1438 C1432 1.439 1_455 S
C1438 C1437 1.374 . S
C1438 H1453 0.931 . S
Eu1439 N1430 2.600 . S
Eu1439 N1440 2.562 . S
Eu1439 O1474 2.335 . S
Eu1439 O1477 2.372 . S
Eu1439 O1478 2.462 . S
Eu1439 O1479 2.373 . S
Eu1439 O1481 2.432 . S
Eu1439 O1482 2.291 . S
Eu1439 C1503 2.787 . S
N1440 C1436 1.351 . S
N1440 Eu1439 2.562 . S
N1440 C1442 1.325 . S
C1441 C1435 1.404 . S
C1441 C1443 1.366 1_455 S
C1441 H1449 0.930 . S
C1442 N1440 1.325 . S
C1442 C1443 1.416 . S
C1442 H1448 0.929 . S
C1443 C1441 1.366 1_655 S
C1443 C1442 1.416 . S
C1443 H1445 0.930 . S
H1444 C1433 0.930 . S
H1445 C1443 0.930 . S
H1446 C1461 0.930 . S
H1447 C1468 0.930 . S
H1448 C1442 0.929 . S
H1449 C1441 0.930 . S
H1450 C1464 0.929 . S
H1451 C1431 0.931 . S
H1452 C1437 0.931 . S
H1453 C1438 0.931 . S
H1454 C1459 0.931 . S
H1455 C1434 0.929 . S
H1456 C1467 0.930 . S
N1457 Eu1428 2.600 . S
N1457 C1458 1.365 . S
N1457 C1461 1.319 . S
C1458 N1457 1.365 . S
C1458 C1460 1.405 . S
C1458 C1466 1.448 . S
C1459 H1454 0.931 . S
C1459 C1461 1.397 . S
C1459 C1462 1.367 . S
C1460 C1458 1.405 . S
C1460 C1462 1.403 . S
C1460 C1493 1.439 . S
C1461 H1446 0.930 . S
C1461 N1457 1.319 . S
C1461 C1459 1.397 . S
C1462 C1459 1.367 . S
C1462 C1460 1.403 . S
C1462 H1469 0.929 . S
N1463 Eu1428 2.562 . S
N1463 C1464 1.325 . S
N1463 C1466 1.351 . S
C1464 H1450 0.929 . S
C1464 N1463 1.325 . S
C1464 C1468 1.416 . S
C1465 C1466 1.430 . S
C1465 C1467 1.404 . S
C1465 C1494 1.387 . S
C1466 C1458 1.448 . S
C1466 N1463 1.351 . S
C1466 C1465 1.430 . S
C1467 H1456 0.930 . S
C1467 C1465 1.404 . S
C1467 C1468 1.366 . S
C1468 H1447 0.930 . S
C1468 C1464 1.416 . S
C1468 C1467 1.366 . S
H1469 C1462 0.929 . S
H1470 C1493 0.931 . S
H1471 C1494 0.931 . S
O1472 Eu1428 2.462 . S
O1472 C1492 1.252 . S
O1473 Eu1428 2.373 . S
O1473 C1484 1.249 . S
O1474 Eu1439 2.335 . S
O1474 C1484 1.264 . S
O1475 Eu1428 2.432 . S
O1475 C1492 1.268 . S
O1476 Eu1428 2.291 . S
O1476 C1491 1.255 . S
O1477 Eu1439 2.372 . S
O1477 C1491 1.257 . S
O1478 Eu1439 2.462 . S
O1478 C1503 1.252 . S
O1479 Eu1439 2.373 . S
O1479 C1495 1.249 . S
O1480 Eu1428 2.335 . S
O1480 C1495 1.264 . S
O1481 Eu1439 2.432 . S
O1481 C1503 1.268 . S
O1482 Eu1439 2.291 . S
O1482 C1502 1.255 . S
O1483 Eu1428 2.372 . S
O1483 C1502 1.257 . S
C1484 O1473 1.249 . S
C1484 O1474 1.264 . S
C1485 C1488 1.382 . S
C1485 C1490 1.390 . S
C1485 C1492 1.506 . S
C1486 C1487 1.398 . S
C1486 C1490 1.392 . S
C1487 C1486 1.398 . S
C1487 C1489 1.372 . S
C1487 H1504 0.931 . S
C1488 C1485 1.382 . S
C1488 C1489 1.390 . S
C1488 H1505 0.931 . S
C1489 C1487 1.372 . S
C1489 C1488 1.390 . S
C1489 H1506 0.929 . S
C1490 C1485 1.390 . S
C1490 C1486 1.392 . S
C1490 H1507 0.930 . S
C1491 O1476 1.255 . S
C1491 O1477 1.257 . S
C1492 Eu1428 2.787 . S
C1492 O1472 1.252 . S
C1492 O1475 1.268 . S
C1492 C1485 1.506 . S
C1493 C1460 1.439 . S
C1493 H1470 0.931 . S
C1493 C1494 1.374 . S
C1494 C1465 1.387 . S
C1494 H1471 0.931 . S
C1494 C1493 1.374 . S
C1495 O1479 1.249 . S
C1495 O1480 1.264 . S
C1496 C1499 1.382 . S
C1496 C1500 1.390 . S
C1496 C1503 1.506 . S
C1497 C1498 1.398 . S
C1497 C1500 1.392 . S
C1498 C1497 1.398 . S
C1498 C1501 1.372 . S
C1498 H1508 0.931 . S
C1499 C1496 1.382 . S
C1499 C1501 1.390 . S
C1499 H1509 0.931 . S
C1500 C1496 1.390 . S
C1500 C1497 1.392 . S
C1500 H1510 0.930 . S
C1501 C1498 1.372 . S
C1501 C1499 1.390 . S
C1501 H1511 0.929 . S
C1502 O1482 1.255 . S
C1502 O1483 1.257 . S
C1503 Eu1439 2.787 . S
C1503 O1478 1.252 . S
C1503 O1481 1.268 . S
C1503 C1496 1.506 . S
H1504 C1487 0.931 . S
H1505 C1488 0.931 . S
H1506 C1489 0.929 . S
H1507 C1490 0.930 . S
H1508 C1498 0.931 . S
H1509 C1499 0.931 . S
H1510 C1500 0.930 . S
H1511 C1501 0.929 . S
C1512 C1513 1.391 . S
C1512 C1514 1.394 . S
C1512 H1528 0.931 . S
C1513 C1512 1.391 . S
C1513 C1517 1.376 . S
C1514 C1512 1.394 . S
C1514 C1515 1.369 . S
C1514 C1518 1.531 . S
C1515 C1514 1.369 . S
C1515 C1516 1.410 . S
C1515 C1523 1.503 . S
C1516 C1515 1.410 . S
C1516 C1517 1.392 . S
C1516 C1519 1.511 . S
C1517 C1513 1.376 . S
C1517 C1516 1.392 . S
C1517 H1529 0.929 . S
C1518 C1514 1.531 . S
C1518 H1530 0.960 . S
C1518 H1531 0.962 . S
C1518 H1532 0.960 . S
C1519 C1516 1.511 . S
C1519 H1533 0.961 . S
C1519 H1534 0.961 . S
C1519 H1535 0.961 . S
C1520 C1521 1.370 . S
C1520 C1522 1.363 . S
C1520 H1536 0.931 . S
C1521 C1520 1.370 . S
C1521 C1525 1.408 . S
C1522 C1520 1.363 . S
C1522 C1523 1.370 . S
C1522 C1526 1.524 . S
C1523 C1515 1.503 . S
C1523 C1522 1.370 . S
C1523 C1524 1.403 . S
C1524 C1523 1.403 . S
C1524 C1525 1.404 . S
C1524 C1527 1.539 . S
C1525 C1521 1.408 . S
C1525 C1524 1.404 . S
C1525 H1537 0.930 . S
C1526 C1522 1.524 . S
C1526 H1538 0.956 . S
C1526 H1539 0.961 . S
C1526 H1540 0.961 . S
C1527 C1524 1.539 . S
C1527 H1541 0.958 . S
C1527 H1542 0.961 . S
C1527 H1543 0.960 . S
H1528 C1512 0.931 . S
H1529 C1517 0.929 . S
H1530 C1518 0.960 . S
H1531 C1518 0.962 . S
H1532 C1518 0.960 . S
H1533 C1519 0.961 . S
H1534 C1519 0.961 . S
H1535 C1519 0.961 . S
H1536 C1520 0.931 . S
H1537 C1525 0.930 . S
H1538 C1526 0.956 . S
H1539 C1526 0.961 . S
H1540 C1526 0.961 . S
H1541 C1527 0.958 . S
H1542 C1527 0.961 . S
H1543 C1527 0.960 . S
C1544 C1545 1.391 . S
C1544 C1546 1.394 . S
C1544 H1560 0.931 . S
C1545 C1544 1.391 . S
C1545 C1549 1.376 . S
C1546 C1544 1.394 . S
C1546 C1547 1.369 . S
C1546 C1550 1.531 . S
C1547 C1546 1.369 . S
C1547 C1548 1.410 . S
C1547 C1555 1.503 . S
C1548 C1547 1.410 . S
C1548 C1549 1.392 . S
C1548 C1551 1.511 . S
C1549 C1545 1.376 . S
C1549 C1548 1.392 . S
C1549 H1561 0.929 . S
C1550 C1546 1.531 . S
C1550 H1562 0.960 . S
C1550 H1563 0.962 . S
C1550 H1564 0.960 . S
C1551 C1548 1.511 . S
C1551 H1565 0.961 . S
C1551 H1566 0.961 . S
C1551 H1567 0.961 . S
C1552 C1553 1.370 . S
C1552 C1554 1.363 . S
C1552 H1568 0.931 . S
C1553 C1552 1.370 . S
C1553 C1557 1.408 . S
C1554 C1552 1.363 . S
C1554 C1555 1.370 . S
C1554 C1558 1.524 . S
C1555 C1547 1.503 . S
C1555 C1554 1.370 . S
C1555 C1556 1.403 . S
C1556 C1555 1.403 . S
C1556 C1557 1.404 . S
C1556 C1559 1.539 . S
C1557 C1553 1.408 . S
C1557 C1556 1.404 . S
C1557 H1569 0.930 . S
C1558 C1554 1.524 . S
C1558 H1570 0.956 . S
C1558 H1571 0.961 . S
C1558 H1572 0.961 . S
C1559 C1556 1.539 . S
C1559 H1573 0.958 . S
C1559 H1574 0.961 . S
C1559 H1575 0.960 . S
H1560 C1544 0.931 . S
H1561 C1549 0.929 . S
H1562 C1550 0.960 . S
H1563 C1550 0.962 . S
H1564 C1550 0.960 . S
H1565 C1551 0.961 . S
H1566 C1551 0.961 . S
H1567 C1551 0.961 . S
H1568 C1552 0.931 . S
H1569 C1557 0.930 . S
H1570 C1558 0.956 . S
H1571 C1558 0.961 . S
H1572 C1558 0.961 . S
H1573 C1559 0.958 . S
H1574 C1559 0.961 . S
H1575 C1559 0.960 . S
C1576 C1577 1.391 . S
C1576 C1578 1.394 . S
C1576 H1592 0.931 . S
C1577 C1576 1.391 . S
C1577 C1581 1.376 . S
C1578 C1576 1.394 . S
C1578 C1579 1.369 . S
C1578 C1582 1.531 . S
C1579 C1578 1.369 . S
C1579 C1580 1.410 . S
C1579 C1587 1.503 . S
C1580 C1579 1.410 . S
C1580 C1581 1.392 . S
C1580 C1583 1.511 . S
C1581 C1577 1.376 . S
C1581 C1580 1.392 . S
C1581 H1593 0.929 . S
C1582 C1578 1.531 . S
C1582 H1594 0.960 . S
C1582 H1595 0.962 . S
C1582 H1596 0.960 . S
C1583 C1580 1.511 . S
C1583 H1597 0.961 . S
C1583 H1598 0.961 . S
C1583 H1599 0.961 . S
C1584 C1585 1.370 . S
C1584 C1586 1.363 . S
C1584 H1600 0.931 . S
C1585 C1584 1.370 . S
C1585 C1589 1.408 . S
C1586 C1584 1.363 . S
C1586 C1587 1.370 . S
C1586 C1590 1.524 . S
C1587 C1579 1.503 . S
C1587 C1586 1.370 . S
C1587 C1588 1.403 . S
C1588 C1587 1.403 . S
C1588 C1589 1.404 . S
C1588 C1591 1.539 . S
C1589 C1585 1.408 . S
C1589 C1588 1.404 . S
C1589 H1601 0.930 . S
C1590 C1586 1.524 . S
C1590 H1602 0.956 . S
C1590 H1603 0.961 . S
C1590 H1604 0.961 . S
C1591 C1588 1.539 . S
C1591 H1605 0.958 . S
C1591 H1606 0.961 . S
C1591 H1607 0.960 . S
H1592 C1576 0.931 . S
H1593 C1581 0.929 . S
H1594 C1582 0.960 . S
H1595 C1582 0.962 . S
H1596 C1582 0.960 . S
H1597 C1583 0.961 . S
H1598 C1583 0.961 . S
H1599 C1583 0.961 . S
H1600 C1584 0.931 . S
H1601 C1589 0.930 . S
H1602 C1590 0.956 . S
H1603 C1590 0.961 . S
H1604 C1590 0.961 . S
H1605 C1591 0.958 . S
H1606 C1591 0.961 . S
H1607 C1591 0.960 . S
C1608 C1609 1.391 . S
C1608 C1610 1.394 . S
C1608 H1624 0.931 . S
C1609 C1608 1.391 . S
C1609 C1613 1.376 . S
C1610 C1608 1.394 . S
C1610 C1611 1.369 . S
C1610 C1614 1.531 . S
C1611 C1610 1.369 . S
C1611 C1612 1.410 . S
C1611 C1619 1.503 . S
C1612 C1611 1.410 . S
C1612 C1613 1.392 . S
C1612 C1615 1.511 . S
C1613 C1609 1.376 . S
C1613 C1612 1.392 . S
C1613 H1625 0.929 . S
C1614 C1610 1.531 . S
C1614 H1626 0.960 . S
C1614 H1627 0.962 . S
C1614 H1628 0.960 . S
C1615 C1612 1.511 . S
C1615 H1629 0.961 . S
C1615 H1630 0.961 . S
C1615 H1631 0.961 . S
C1616 C1617 1.370 . S
C1616 C1618 1.363 . S
C1616 H1632 0.931 . S
C1617 C1616 1.370 . S
C1617 C1621 1.408 . S
C1618 C1616 1.363 . S
C1618 C1619 1.370 . S
C1618 C1622 1.524 . S
C1619 C1611 1.503 . S
C1619 C1618 1.370 . S
C1619 C1620 1.403 . S
C1620 C1619 1.403 . S
C1620 C1621 1.404 . S
C1620 C1623 1.539 . S
C1621 C1617 1.408 . S
C1621 C1620 1.404 . S
C1621 H1633 0.930 . S
C1622 C1618 1.524 . S
C1622 H1634 0.956 . S
C1622 H1635 0.961 . S
C1622 H1636 0.961 . S
C1623 C1620 1.539 . S
C1623 H1637 0.958 . S
C1623 H1638 0.961 . S
C1623 H1639 0.960 . S
H1624 C1608 0.931 . S
H1625 C1613 0.929 . S
H1626 C1614 0.960 . S
H1627 C1614 0.962 . S
H1628 C1614 0.960 . S
H1629 C1615 0.961 . S
H1630 C1615 0.961 . S
H1631 C1615 0.961 . S
H1632 C1616 0.931 . S
H1633 C1621 0.930 . S
H1634 C1622 0.956 . S
H1635 C1622 0.961 . S
H1636 C1622 0.961 . S
H1637 C1623 0.958 . S
H1638 C1623 0.961 . S
H1639 C1623 0.960 . S
C1640 C1641 1.391 . S
C1640 C1642 1.394 . S
C1640 H1656 0.931 . S
C1641 C1640 1.391 . S
C1641 C1645 1.376 . S
C1642 C1640 1.394 . S
C1642 C1643 1.369 . S
C1642 C1646 1.531 . S
C1643 C1642 1.369 . S
C1643 C1644 1.410 . S
C1643 C1651 1.503 . S
C1644 C1643 1.410 . S
C1644 C1645 1.392 . S
C1644 C1647 1.511 . S
C1645 C1641 1.376 . S
C1645 C1644 1.392 . S
C1645 H1657 0.929 . S
C1646 C1642 1.531 . S
C1646 H1658 0.960 . S
C1646 H1659 0.962 . S
C1646 H1660 0.960 . S
C1647 C1644 1.511 . S
C1647 H1661 0.961 . S
C1647 H1662 0.961 . S
C1647 H1663 0.961 . S
C1648 C1649 1.370 . S
C1648 C1650 1.363 . S
C1648 H1664 0.931 . S
C1649 C1648 1.370 . S
C1649 C1653 1.408 . S
C1650 C1648 1.363 . S
C1650 C1651 1.370 . S
C1650 C1654 1.524 . S
C1651 C1643 1.503 . S
C1651 C1650 1.370 . S
C1651 C1652 1.403 . S
C1652 C1651 1.403 . S
C1652 C1653 1.404 . S
C1652 C1655 1.539 . S
C1653 C1649 1.408 . S
C1653 C1652 1.404 . S
C1653 H1665 0.930 . S
C1654 C1650 1.524 . S
C1654 H1666 0.956 . S
C1654 H1667 0.961 . S
C1654 H1668 0.961 . S
C1655 C1652 1.539 . S
C1655 H1669 0.958 . S
C1655 H1670 0.961 . S
C1655 H1671 0.960 . S
H1656 C1640 0.931 . S
H1657 C1645 0.929 . S
H1658 C1646 0.960 . S
H1659 C1646 0.962 . S
H1660 C1646 0.960 . S
H1661 C1647 0.961 . S
H1662 C1647 0.961 . S
H1663 C1647 0.961 . S
H1664 C1648 0.931 . S
H1665 C1653 0.930 . S
H1666 C1654 0.956 . S
H1667 C1654 0.961 . S
H1668 C1654 0.961 . S
H1669 C1655 0.958 . S
H1670 C1655 0.961 . S
H1671 C1655 0.960 . S
C1672 C1673 1.391 . S
C1672 C1674 1.394 . S
C1672 H1688 0.931 . S
C1673 C1672 1.391 . S
C1673 C1677 1.376 . S
C1674 C1672 1.394 . S
C1674 C1675 1.369 . S
C1674 C1678 1.531 . S
C1675 C1674 1.369 . S
C1675 C1676 1.410 . S
C1675 C1683 1.503 . S
C1676 C1675 1.410 . S
C1676 C1677 1.392 . S
C1676 C1679 1.511 . S
C1677 C1673 1.376 . S
C1677 C1676 1.392 . S
C1677 H1689 0.929 . S
C1678 C1674 1.531 . S
C1678 H1690 0.960 . S
C1678 H1691 0.962 . S
C1678 H1692 0.960 . S
C1679 C1676 1.511 . S
C1679 H1693 0.961 . S
C1679 H1694 0.961 . S
C1679 H1695 0.961 . S
C1680 C1681 1.370 . S
C1680 C1682 1.363 . S
C1680 H1696 0.931 . S
C1681 C1680 1.370 . S
C1681 C1685 1.408 . S
C1682 C1680 1.363 . S
C1682 C1683 1.370 . S
C1682 C1686 1.524 . S
C1683 C1675 1.503 . S
C1683 C1682 1.370 . S
C1683 C1684 1.403 . S
C1684 C1683 1.403 . S
C1684 C1685 1.404 . S
C1684 C1687 1.539 . S
C1685 C1681 1.408 . S
C1685 C1684 1.404 . S
C1685 H1697 0.930 . S
C1686 C1682 1.524 . S
C1686 H1698 0.956 . S
C1686 H1699 0.961 . S
C1686 H1700 0.961 . S
C1687 C1684 1.539 . S
C1687 H1701 0.958 . S
C1687 H1702 0.961 . S
C1687 H1703 0.960 . S
H1688 C1672 0.931 . S
H1689 C1677 0.929 . S
H1690 C1678 0.960 . S
H1691 C1678 0.962 . S
H1692 C1678 0.960 . S
H1693 C1679 0.961 . S
H1694 C1679 0.961 . S
H1695 C1679 0.961 . S
H1696 C1680 0.931 . S
H1697 C1685 0.930 . S
H1698 C1686 0.956 . S
H1699 C1686 0.961 . S
H1700 C1686 0.961 . S
H1701 C1687 0.958 . S
H1702 C1687 0.961 . S
H1703 C1687 0.960 . S
C1704 C1705 1.391 . S
C1704 C1706 1.394 . S
C1704 H1720 0.931 . S
C1705 C1704 1.391 . S
C1705 C1709 1.376 . S
C1706 C1704 1.394 . S
C1706 C1707 1.369 . S
C1706 C1710 1.531 . S
C1707 C1706 1.369 . S
C1707 C1708 1.410 . S
C1707 C1715 1.503 . S
C1708 C1707 1.410 . S
C1708 C1709 1.392 . S
C1708 C1711 1.511 . S
C1709 C1705 1.376 . S
C1709 C1708 1.392 . S
C1709 H1721 0.929 . S
C1710 C1706 1.531 . S
C1710 H1722 0.960 . S
C1710 H1723 0.962 . S
C1710 H1724 0.960 . S
C1711 C1708 1.511 . S
C1711 H1725 0.961 . S
C1711 H1726 0.961 . S
C1711 H1727 0.961 . S
C1712 C1713 1.370 . S
C1712 C1714 1.363 . S
C1712 H1728 0.931 . S
C1713 C1712 1.370 . S
C1713 C1717 1.408 . S
C1714 C1712 1.363 . S
C1714 C1715 1.370 . S
C1714 C1718 1.524 . S
C1715 C1707 1.503 . S
C1715 C1714 1.370 . S
C1715 C1716 1.403 . S
C1716 C1715 1.403 . S
C1716 C1717 1.404 . S
C1716 C1719 1.539 . S
C1717 C1713 1.408 . S
C1717 C1716 1.404 . S
C1717 H1729 0.930 . S
C1718 C1714 1.524 . S
C1718 H1730 0.956 . S
C1718 H1731 0.961 . S
C1718 H1732 0.961 . S
C1719 C1716 1.539 . S
C1719 H1733 0.958 . S
C1719 H1734 0.961 . S
C1719 H1735 0.960 . S
H1720 C1704 0.931 . S
H1721 C1709 0.929 . S
H1722 C1710 0.960 . S
H1723 C1710 0.962 . S
H1724 C1710 0.960 . S
H1725 C1711 0.961 . S
H1726 C1711 0.961 . S
H1727 C1711 0.961 . S
H1728 C1712 0.931 . S
H1729 C1717 0.930 . S
H1730 C1718 0.956 . S
H1731 C1718 0.961 . S
H1732 C1718 0.961 . S
H1733 C1719 0.958 . S
H1734 C1719 0.961 . S
H1735 C1719 0.960 . S
C1736 C1737 1.391 . S
C1736 C1738 1.394 . S
C1736 H1752 0.931 . S
C1737 C1736 1.391 . S
C1737 C1741 1.376 . S
C1738 C1736 1.394 . S
C1738 C1739 1.369 . S
C1738 C1742 1.531 . S
C1739 C1738 1.369 . S
C1739 C1740 1.410 . S
C1739 C1747 1.503 . S
C1740 C1739 1.410 . S
C1740 C1741 1.392 . S
C1740 C1743 1.511 . S
C1741 C1737 1.376 . S
C1741 C1740 1.392 . S
C1741 H1753 0.929 . S
C1742 C1738 1.531 . S
C1742 H1754 0.960 . S
C1742 H1755 0.962 . S
C1742 H1756 0.960 . S
C1743 C1740 1.511 . S
C1743 H1757 0.961 . S
C1743 H1758 0.961 . S
C1743 H1759 0.961 . S
C1744 C1745 1.370 . S
C1744 C1746 1.363 . S
C1744 H1760 0.931 . S
C1745 C1744 1.370 . S
C1745 C1749 1.408 . S
C1746 C1744 1.363 . S
C1746 C1747 1.370 1_565 S
C1746 C1750 1.524 1_565 S
C1747 C1739 1.503 . S
C1747 C1746 1.370 1_545 S
C1747 C1748 1.403 . S
C1748 C1747 1.403 . S
C1748 C1749 1.404 1_545 S
C1748 C1751 1.539 . S
C1749 C1745 1.408 . S
C1749 C1748 1.404 1_565 S
C1749 H1761 0.930 . S
C1750 C1746 1.524 1_545 S
C1750 H1762 0.956 . S
C1750 H1763 0.961 . S
C1750 H1764 0.961 1_545 S
C1751 C1748 1.539 . S
C1751 H1765 0.958 . S
C1751 H1766 0.961 . S
C1751 H1767 0.960 . S
H1752 C1736 0.931 . S
H1753 C1741 0.929 . S
H1754 C1742 0.960 . S
H1755 C1742 0.962 . S
H1756 C1742 0.960 . S
H1757 C1743 0.961 . S
H1758 C1743 0.961 . S
H1759 C1743 0.961 . S
H1760 C1744 0.931 . S
H1761 C1749 0.930 . S
H1762 C1750 0.956 . S
H1763 C1750 0.961 . S
H1764 C1750 0.961 1_565 S
H1765 C1751 0.958 . S
H1766 C1751 0.961 . S
H1767 C1751 0.960 . S
C1768 C1769 1.391 . S
C1768 C1770 1.394 . S
C1768 H1784 0.931 . S
C1769 C1768 1.391 . S
C1769 C1773 1.376 . S
C1770 C1768 1.394 . S
C1770 C1771 1.369 . S
C1770 C1774 1.531 . S
C1771 C1770 1.369 . S
C1771 C1772 1.410 . S
C1771 C1779 1.503 1_455 S
C1772 C1771 1.410 . S
C1772 C1773 1.392 . S
C1772 C1775 1.511 . S
C1773 C1769 1.376 . S
C1773 C1772 1.392 . S
C1773 H1785 0.929 . S
C1774 C1770 1.531 . S
C1774 H1786 0.960 . S
C1774 H1787 0.962 . S
C1774 H1788 0.960 . S
C1775 C1772 1.511 . S
C1775 H1789 0.961 . S
C1775 H1790 0.961 . S
C1775 H1791 0.961 . S
C1776 C1777 1.370 . S
C1776 C1778 1.363 . S
C1776 H1792 0.931 . S
C1777 C1776 1.370 . S
C1777 C1781 1.408 . S
C1778 C1776 1.363 . S
C1778 C1779 1.370 . S
C1778 C1782 1.524 . S
C1779 C1771 1.503 1_655 S
C1779 C1778 1.370 . S
C1779 C1780 1.403 . S
C1780 C1779 1.403 . S
C1780 C1781 1.404 . S
C1780 C1783 1.539 1_655 S
C1781 C1777 1.408 . S
C1781 C1780 1.404 . S
C1781 H1793 0.930 . S
C1782 C1778 1.524 . S
C1782 H1794 0.956 . S
C1782 H1795 0.961 . S
C1782 H1796 0.961 . S
C1783 C1780 1.539 1_455 S
C1783 H1797 0.958 . S
C1783 H1798 0.961 . S
C1783 H1799 0.960 . S
H1784 C1768 0.931 . S
H1785 C1773 0.929 . S
H1786 C1774 0.960 . S
H1787 C1774 0.962 . S
H1788 C1774 0.960 . S
H1789 C1775 0.961 . S
H1790 C1775 0.961 . S
H1791 C1775 0.961 . S
H1792 C1776 0.931 . S
H1793 C1781 0.930 . S
H1794 C1782 0.956 . S
H1795 C1782 0.961 . S
H1796 C1782 0.961 . S
H1797 C1783 0.958 . S
H1798 C1783 0.961 . S
H1799 C1783 0.960 . S
C1800 C1801 1.391 . S
C1800 C1802 1.394 . S
C1800 H1816 0.931 . S
C1801 C1800 1.391 . S
C1801 C1805 1.376 . S
C1802 C1800 1.394 . S
C1802 C1803 1.369 . S
C1802 C1806 1.531 . S
C1803 C1802 1.369 . S
C1803 C1804 1.410 . S
C1803 C1811 1.503 . S
C1804 C1803 1.410 . S
C1804 C1805 1.392 . S
C1804 C1807 1.511 . S
C1805 C1801 1.376 . S
C1805 C1804 1.392 . S
C1805 H1817 0.929 . S
C1806 C1802 1.531 . S
C1806 H1818 0.960 . S
C1806 H1819 0.962 . S
C1806 H1820 0.960 . S
C1807 C1804 1.511 . S
C1807 H1821 0.961 . S
C1807 H1822 0.961 . S
C1807 H1823 0.961 . S
C1808 C1809 1.370 . S
C1808 C1810 1.363 . S
C1808 H1824 0.931 . S
C1809 C1808 1.370 . S
C1809 C1813 1.408 . S
C1810 C1808 1.363 . S
C1810 C1811 1.370 . S
C1810 C1814 1.524 . S
C1811 C1803 1.503 . S
C1811 C1810 1.370 . S
C1811 C1812 1.403 . S
C1812 C1811 1.403 . S
C1812 C1813 1.404 . S
C1812 C1815 1.539 . S
C1813 C1809 1.408 . S
C1813 C1812 1.404 . S
C1813 H1825 0.930 . S
C1814 C1810 1.524 . S
C1814 H1826 0.956 . S
C1814 H1827 0.961 . S
C1814 H1828 0.961 . S
C1815 C1812 1.539 . S
C1815 H1829 0.958 . S
C1815 H1830 0.961 . S
C1815 H1831 0.960 . S
H1816 C1800 0.931 . S
H1817 C1805 0.929 . S
H1818 C1806 0.960 . S
H1819 C1806 0.962 . S
H1820 C1806 0.960 . S
H1821 C1807 0.961 . S
H1822 C1807 0.961 . S
H1823 C1807 0.961 . S
H1824 C1808 0.931 . S
H1825 C1813 0.930 . S
H1826 C1814 0.956 . S
H1827 C1814 0.961 . S
H1828 C1814 0.961 . S
H1829 C1815 0.958 . S
H1830 C1815 0.961 . S
H1831 C1815 0.960 . S
C1832 C1833 1.391 . S
C1832 C1834 1.394 . S
C1832 H1848 0.931 . S
C1833 C1832 1.391 . S
C1833 C1837 1.376 . S
C1834 C1832 1.394 . S
C1834 C1835 1.369 . S
C1834 C1838 1.531 . S
C1835 C1834 1.369 . S
C1835 C1836 1.410 . S
C1835 C1843 1.503 . S
C1836 C1835 1.410 . S
C1836 C1837 1.392 . S
C1836 C1839 1.511 . S
C1837 C1833 1.376 . S
C1837 C1836 1.392 . S
C1837 H1849 0.929 . S
C1838 C1834 1.531 . S
C1838 H1850 0.960 . S
C1838 H1851 0.962 . S
C1838 H1852 0.960 . S
C1839 C1836 1.511 . S
C1839 H1853 0.961 . S
C1839 H1854 0.961 . S
C1839 H1855 0.961 . S
C1840 C1841 1.370 . S
C1840 C1842 1.363 . S
C1840 H1856 0.931 . S
C1841 C1840 1.370 . S
C1841 C1845 1.408 . S
C1842 C1840 1.363 . S
C1842 C1843 1.370 . S
C1842 C1846 1.524 . S
C1843 C1835 1.503 . S
C1843 C1842 1.370 . S
C1843 C1844 1.403 . S
C1844 C1843 1.403 . S
C1844 C1845 1.404 . S
C1844 C1847 1.539 . S
C1845 C1841 1.408 . S
C1845 C1844 1.404 . S
C1845 H1857 0.930 . S
C1846 C1842 1.524 . S
C1846 H1858 0.956 . S
C1846 H1859 0.961 . S
C1846 H1860 0.961 . S
C1847 C1844 1.539 . S
C1847 H1861 0.958 . S
C1847 H1862 0.961 . S
C1847 H1863 0.960 . S
H1848 C1832 0.931 . S
H1849 C1837 0.929 . S
H1850 C1838 0.960 . S
H1851 C1838 0.962 . S
H1852 C1838 0.960 . S
H1853 C1839 0.961 . S
H1854 C1839 0.961 . S
H1855 C1839 0.961 . S
H1856 C1840 0.931 . S
H1857 C1845 0.930 . S
H1858 C1846 0.956 . S
H1859 C1846 0.961 . S
H1860 C1846 0.961 . S
H1861 C1847 0.958 . S
H1862 C1847 0.961 . S
H1863 C1847 0.960 . S
C1864 C1865 1.391 . S
C1864 C1866 1.394 . S
C1864 H1880 0.931 . S
C1865 C1864 1.391 . S
C1865 C1869 1.376 . S
C1866 C1864 1.394 . S
C1866 C1867 1.369 . S
C1866 C1870 1.531 . S
C1867 C1866 1.369 . S
C1867 C1868 1.410 . S
C1867 C1875 1.503 . S
C1868 C1867 1.410 . S
C1868 C1869 1.392 . S
C1868 C1871 1.511 . S
C1869 C1865 1.376 . S
C1869 C1868 1.392 . S
C1869 H1881 0.929 . S
C1870 C1866 1.531 . S
C1870 H1882 0.960 . S
C1870 H1883 0.962 . S
C1870 H1884 0.960 . S
C1871 C1868 1.511 . S
C1871 H1885 0.961 . S
C1871 H1886 0.961 . S
C1871 H1887 0.961 . S
C1872 C1873 1.370 . S
C1872 C1874 1.363 . S
C1872 H1888 0.931 . S
C1873 C1872 1.370 . S
C1873 C1877 1.408 . S
C1874 C1872 1.363 . S
C1874 C1875 1.370 . S
C1874 C1878 1.524 . S
C1875 C1867 1.503 . S
C1875 C1874 1.370 . S
C1875 C1876 1.403 . S
C1876 C1875 1.403 . S
C1876 C1877 1.404 . S
C1876 C1879 1.539 . S
C1877 C1873 1.408 . S
C1877 C1876 1.404 . S
C1877 H1889 0.930 . S
C1878 C1874 1.524 . S
C1878 H1890 0.956 . S
C1878 H1891 0.961 . S
C1878 H1892 0.961 . S
C1879 C1876 1.539 . S
C1879 H1893 0.958 . S
C1879 H1894 0.961 . S
C1879 H1895 0.960 . S
H1880 C1864 0.931 . S
H1881 C1869 0.929 . S
H1882 C1870 0.960 . S
H1883 C1870 0.962 . S
H1884 C1870 0.960 . S
H1885 C1871 0.961 . S
H1886 C1871 0.961 . S
H1887 C1871 0.961 . S
H1888 C1872 0.931 . S
H1889 C1877 0.930 . S
H1890 C1878 0.956 . S
H1891 C1878 0.961 . S
H1892 C1878 0.961 . S
H1893 C1879 0.958 . S
H1894 C1879 0.961 . S
H1895 C1879 0.960 . S
C1896 C1897 1.391 . S
C1896 C1898 1.394 . S
C1896 H1912 0.931 . S
C1897 C1896 1.391 . S
C1897 C1901 1.376 . S
C1898 C1896 1.394 . S
C1898 C1899 1.369 . S
C1898 C1902 1.531 . S
C1899 C1898 1.369 . S
C1899 C1900 1.410 . S
C1899 C1907 1.503 . S
C1900 C1899 1.410 . S
C1900 C1901 1.392 . S
C1900 C1903 1.511 . S
C1901 C1897 1.376 . S
C1901 C1900 1.392 . S
C1901 H1913 0.929 . S
C1902 C1898 1.531 . S
C1902 H1914 0.960 . S
C1902 H1915 0.962 . S
C1902 H1916 0.960 . S
C1903 C1900 1.511 . S
C1903 H1917 0.961 . S
C1903 H1918 0.961 . S
C1903 H1919 0.961 . S
C1904 C1905 1.370 . S
C1904 C1906 1.363 . S
C1904 H1920 0.931 . S
C1905 C1904 1.370 . S
C1905 C1909 1.408 . S
C1906 C1904 1.363 . S
C1906 C1907 1.370 . S
C1906 C1910 1.524 . S
C1907 C1899 1.503 . S
C1907 C1906 1.370 . S
C1907 C1908 1.403 . S
C1908 C1907 1.403 . S
C1908 C1909 1.404 . S
C1908 C1911 1.539 . S
C1909 C1905 1.408 . S
C1909 C1908 1.404 . S
C1909 H1921 0.930 . S
C1910 C1906 1.524 . S
C1910 H1922 0.956 . S
C1910 H1923 0.961 . S
C1910 H1924 0.961 . S
C1911 C1908 1.539 . S
C1911 H1925 0.958 . S
C1911 H1926 0.961 . S
C1911 H1927 0.960 . S
H1912 C1896 0.931 . S
H1913 C1901 0.929 . S
H1914 C1902 0.960 . S
H1915 C1902 0.962 . S
H1916 C1902 0.960 . S
H1917 C1903 0.961 . S
H1918 C1903 0.961 . S
H1919 C1903 0.961 . S
H1920 C1904 0.931 . S
H1921 C1909 0.930 . S
H1922 C1910 0.956 . S
H1923 C1910 0.961 . S
H1924 C1910 0.961 . S
H1925 C1911 0.958 . S
H1926 C1911 0.961 . S
H1927 C1911 0.960 . S
C1928 C1929 1.391 . S
C1928 C1930 1.394 . S
C1928 H1944 0.931 . S
C1929 C1928 1.391 . S
C1929 C1933 1.376 . S
C1930 C1928 1.394 . S
C1930 C1931 1.369 . S
C1930 C1934 1.531 . S
C1931 C1930 1.369 . S
C1931 C1932 1.410 . S
C1931 C1939 1.503 . S
C1932 C1931 1.410 . S
C1932 C1933 1.392 . S
C1932 C1935 1.511 . S
C1933 C1929 1.376 . S
C1933 C1932 1.392 . S
C1933 H1945 0.929 . S
C1934 C1930 1.531 . S
C1934 H1946 0.960 . S
C1934 H1947 0.962 . S
C1934 H1948 0.960 . S
C1935 C1932 1.511 . S
C1935 H1949 0.961 . S
C1935 H1950 0.961 . S
C1935 H1951 0.961 . S
C1936 C1937 1.370 . S
C1936 C1938 1.363 . S
C1936 H1952 0.931 . S
C1937 C1936 1.370 . S
C1937 C1941 1.408 . S
C1938 C1936 1.363 . S
C1938 C1939 1.370 . S
C1938 C1942 1.524 . S
C1939 C1931 1.503 . S
C1939 C1938 1.370 . S
C1939 C1940 1.403 . S
C1940 C1939 1.403 . S
C1940 C1941 1.404 . S
C1940 C1943 1.539 . S
C1941 C1937 1.408 . S
C1941 C1940 1.404 . S
C1941 H1953 0.930 . S
C1942 C1938 1.524 . S
C1942 H1954 0.956 . S
C1942 H1955 0.961 . S
C1942 H1956 0.961 . S
C1943 C1940 1.539 . S
C1943 H1957 0.958 . S
C1943 H1958 0.961 . S
C1943 H1959 0.960 . S
H1944 C1928 0.931 . S
H1945 C1933 0.929 . S
H1946 C1934 0.960 . S
H1947 C1934 0.962 . S
H1948 C1934 0.960 . S
H1949 C1935 0.961 . S
H1950 C1935 0.961 . S
H1951 C1935 0.961 . S
H1952 C1936 0.931 . S
H1953 C1941 0.930 . S
H1954 C1942 0.956 . S
H1955 C1942 0.961 . S
H1956 C1942 0.961 . S
H1957 C1943 0.958 . S
H1958 C1943 0.961 . S
H1959 C1943 0.960 . S
C1960 C1961 1.391 . S
C1960 C1962 1.394 . S
C1960 H1976 0.931 . S
C1961 C1960 1.391 . S
C1961 C1965 1.376 . S
C1962 C1960 1.394 . S
C1962 C1963 1.369 . S
C1962 C1966 1.531 . S
C1963 C1962 1.369 . S
C1963 C1964 1.410 . S
C1963 C1971 1.503 . S
C1964 C1963 1.410 . S
C1964 C1965 1.392 . S
C1964 C1967 1.511 . S
C1965 C1961 1.376 . S
C1965 C1964 1.392 . S
C1965 H1977 0.929 . S
C1966 C1962 1.531 . S
C1966 H1978 0.960 . S
C1966 H1979 0.962 . S
C1966 H1980 0.960 . S
C1967 C1964 1.511 . S
C1967 H1981 0.961 . S
C1967 H1982 0.961 . S
C1967 H1983 0.961 . S
C1968 C1969 1.370 . S
C1968 C1970 1.363 . S
C1968 H1984 0.931 . S
C1969 C1968 1.370 . S
C1969 C1973 1.408 . S
C1970 C1968 1.363 . S
C1970 C1971 1.370 . S
C1970 C1974 1.524 . S
C1971 C1963 1.503 . S
C1971 C1970 1.370 . S
C1971 C1972 1.403 . S
C1972 C1971 1.403 . S
C1972 C1973 1.404 . S
C1972 C1975 1.539 . S
C1973 C1969 1.408 . S
C1973 C1972 1.404 . S
C1973 H1985 0.930 . S
C1974 C1970 1.524 . S
C1974 H1986 0.956 . S
C1974 H1987 0.961 . S
C1974 H1988 0.961 . S
C1975 C1972 1.539 . S
C1975 H1989 0.958 . S
C1975 H1990 0.961 . S
C1975 H1991 0.960 . S
H1976 C1960 0.931 . S
H1977 C1965 0.929 . S
H1978 C1966 0.960 . S
H1979 C1966 0.962 . S
H1980 C1966 0.960 . S
H1981 C1967 0.961 . S
H1982 C1967 0.961 . S
H1983 C1967 0.961 . S
H1984 C1968 0.931 . S
H1985 C1973 0.930 . S
H1986 C1974 0.956 . S
H1987 C1974 0.961 . S
H1988 C1974 0.961 . S
H1989 C1975 0.958 . S
H1990 C1975 0.961 . S
H1991 C1975 0.960 . S
C1992 C1993 1.391 . S
C1992 C1994 1.394 . S
C1992 H2008 0.931 . S
C1993 C1992 1.391 . S
C1993 C1997 1.376 . S
C1994 C1992 1.394 . S
C1994 C1995 1.369 . S
C1994 C1998 1.531 . S
C1995 C1994 1.369 . S
C1995 C1996 1.410 . S
C1995 C2003 1.503 . S
C1996 C1995 1.410 . S
C1996 C1997 1.392 . S
C1996 C1999 1.511 . S
C1997 C1993 1.376 . S
C1997 C1996 1.392 . S
C1997 H2009 0.929 . S
C1998 C1994 1.531 . S
C1998 H2010 0.960 . S
C1998 H2011 0.962 . S
C1998 H2012 0.960 . S
C1999 C1996 1.511 . S
C1999 H2013 0.961 . S
C1999 H2014 0.961 . S
C1999 H2015 0.961 . S
C2000 C2001 1.370 . S
C2000 C2002 1.363 . S
C2000 H2016 0.931 . S
C2001 C2000 1.370 . S
C2001 C2005 1.408 . S
C2002 C2000 1.363 . S
C2002 C2003 1.370 . S
C2002 C2006 1.524 . S
C2003 C1995 1.503 . S
C2003 C2002 1.370 . S
C2003 C2004 1.403 . S
C2004 C2003 1.403 . S
C2004 C2005 1.404 . S
C2004 C2007 1.539 . S
C2005 C2001 1.408 . S
C2005 C2004 1.404 . S
C2005 H2017 0.930 . S
C2006 C2002 1.524 . S
C2006 H2018 0.956 . S
C2006 H2019 0.961 . S
C2006 H2020 0.961 . S
C2007 C2004 1.539 . S
C2007 H2021 0.958 . S
C2007 H2022 0.961 . S
C2007 H2023 0.960 . S
H2008 C1992 0.931 . S
H2009 C1997 0.929 . S
H2010 C1998 0.960 . S
H2011 C1998 0.962 . S
H2012 C1998 0.960 . S
H2013 C1999 0.961 . S
H2014 C1999 0.961 . S
H2015 C1999 0.961 . S
H2016 C2000 0.931 . S
H2017 C2005 0.930 . S
H2018 C2006 0.956 . S
H2019 C2006 0.961 . S
H2020 C2006 0.961 . S
H2021 C2007 0.958 . S
H2022 C2007 0.961 . S
H2023 C2007 0.960 . S
C2024 C2025 1.391 . S
C2024 C2026 1.394 . S
C2024 H2040 0.931 . S
C2025 C2024 1.391 . S
C2025 C2029 1.376 . S
C2026 C2024 1.394 . S
C2026 C2027 1.369 . S
C2026 C2030 1.531 . S
C2027 C2026 1.369 . S
C2027 C2028 1.410 . S
C2027 C2035 1.503 1_565 S
C2028 C2027 1.410 . S
C2028 C2029 1.392 . S
C2028 C2031 1.511 1_565 S
C2029 C2025 1.376 . S
C2029 C2028 1.392 . S
C2029 H2041 0.929 . S
C2030 C2026 1.531 . S
C2030 H2042 0.960 . S
C2030 H2043 0.962 . S
C2030 H2044 0.960 . S
C2031 C2028 1.511 1_545 S
C2031 H2045 0.961 . S
C2031 H2046 0.961 . S
C2031 H2047 0.961 . S
C2032 C2033 1.370 . S
C2032 C2034 1.363 . S
C2032 H2048 0.931 . S
C2033 C2032 1.370 . S
C2033 C2037 1.408 . S
C2034 C2032 1.363 . S
C2034 C2035 1.370 . S
C2034 C2038 1.524 . S
C2035 C2027 1.503 1_545 S
C2035 C2034 1.370 . S
C2035 C2036 1.403 . S
C2036 C2035 1.403 . S
C2036 C2037 1.404 . S
C2036 C2039 1.539 . S
C2037 C2033 1.408 . S
C2037 C2036 1.404 . S
C2037 H2049 0.930 . S
C2038 C2034 1.524 . S
C2038 H2050 0.956 1_545 S
C2038 H2051 0.961 . S
C2038 H2052 0.961 . S
C2039 C2036 1.539 . S
C2039 H2053 0.958 . S
C2039 H2054 0.961 . S
C2039 H2055 0.960 . S
H2040 C2024 0.931 . S
H2041 C2029 0.929 . S
H2042 C2030 0.960 . S
H2043 C2030 0.962 . S
H2044 C2030 0.960 . S
H2045 C2031 0.961 . S
H2046 C2031 0.961 . S
H2047 C2031 0.961 . S
H2048 C2032 0.931 . S
H2049 C2037 0.930 . S
H2050 C2038 0.956 1_565 S
H2051 C2038 0.961 . S
H2052 C2038 0.961 . S
H2053 C2039 0.958 . S
H2054 C2039 0.961 . S
H2055 C2039 0.960 . S
C2056 C2057 1.391 . S
C2056 C2058 1.394 . S
C2056 H2072 0.931 . S
C2057 C2056 1.391 . S
C2057 C2061 1.376 . S
C2058 C2056 1.394 . S
C2058 C2059 1.369 . S
C2058 C2062 1.531 . S
C2059 C2058 1.369 . S
C2059 C2060 1.410 . S
C2059 C2067 1.503 . S
C2060 C2059 1.410 . S
C2060 C2061 1.392 . S
C2060 C2063 1.511 . S
C2061 C2057 1.376 . S
C2061 C2060 1.392 . S
C2061 H2073 0.929 . S
C2062 C2058 1.531 . S
C2062 H2074 0.960 . S
C2062 H2075 0.962 . S
C2062 H2076 0.960 . S
C2063 C2060 1.511 . S
C2063 H2077 0.961 . S
C2063 H2078 0.961 . S
C2063 H2079 0.961 . S
C2064 C2065 1.370 . S
C2064 C2066 1.363 . S
C2064 H2080 0.931 . S
C2065 C2064 1.370 . S
C2065 C2069 1.408 . S
C2066 C2064 1.363 . S
C2066 C2067 1.370 1_655 S
C2066 C2070 1.524 1_655 S
C2067 C2059 1.503 . S
C2067 C2066 1.370 1_455 S
C2067 C2068 1.403 1_455 S
C2068 C2067 1.403 1_655 S
C2068 C2069 1.404 . S
C2068 C2071 1.539 1_655 S
C2069 C2065 1.408 . S
C2069 C2068 1.404 . S
C2069 H2081 0.930 . S
C2070 C2066 1.524 1_455 S
C2070 H2082 0.956 . S
C2070 H2083 0.961 . S
C2070 H2084 0.961 . S
C2071 C2068 1.539 1_455 S
C2071 H2085 0.958 . S
C2071 H2086 0.961 1_455 S
C2071 H2087 0.960 . S
H2072 C2056 0.931 . S
H2073 C2061 0.929 . S
H2074 C2062 0.960 . S
H2075 C2062 0.962 . S
H2076 C2062 0.960 . S
H2077 C2063 0.961 . S
H2078 C2063 0.961 . S
H2079 C2063 0.961 . S
H2080 C2064 0.931 . S
H2081 C2069 0.930 . S
H2082 C2070 0.956 . S
H2083 C2070 0.961 . S
H2084 C2070 0.961 . S
H2085 C2071 0.958 . S
H2086 C2071 0.961 1_655 S
H2087 C2071 0.960 . S
C2088 C2089 1.391 . S
C2088 C2090 1.394 . S
C2088 H2104 0.931 1_545 S
C2089 C2088 1.391 . S
C2089 C2093 1.376 . S
C2090 C2088 1.394 . S
C2090 C2091 1.369 . S
C2090 C2094 1.531 1_545 S
C2091 C2090 1.369 . S
C2091 C2092 1.410 . S
C2091 C2099 1.503 1_554 S
C2092 C2091 1.410 . S
C2092 C2093 1.392 . S
C2092 C2095 1.511 . S
C2093 C2089 1.376 . S
C2093 C2092 1.392 . S
C2093 H2105 0.929 . S
C2094 C2090 1.531 1_565 S
C2094 H2106 0.959 . S
C2094 H2107 0.962 1_565 S
C2094 H2108 0.960 . S
C2095 C2092 1.511 . S
C2095 H2109 0.961 . S
C2095 H2110 0.961 1_554 S
C2095 H2111 0.961 . S
C2096 C2097 1.370 . S
C2096 C2098 1.363 . S
C2096 H2112 0.931 . S
C2097 C2096 1.370 . S
C2097 C2101 1.408 1_545 S
C2098 C2096 1.363 . S
C2098 C2099 1.370 . S
C2098 C2102 1.524 . S
C2099 C2091 1.503 1_556 S
C2099 C2098 1.370 . S
C2099 C2100 1.403 1_545 S
C2100 C2099 1.403 1_565 S
C2100 C2101 1.404 . S
C2100 C2103 1.539 . S
C2101 C2097 1.408 1_565 S
C2101 C2100 1.404 . S
C2101 H2113 0.930 . S
C2102 C2098 1.524 . S
C2102 H2114 0.956 . S
C2102 H2115 0.961 . S
C2102 H2116 0.961 . S
C2103 C2100 1.539 . S
C2103 H2117 0.958 . S
C2103 H2118 0.961 . S
C2103 H2119 0.960 1_556 S
H2104 C2088 0.931 1_565 S
H2105 C2093 0.929 . S
H2106 C2094 0.959 . S
H2107 C2094 0.962 1_545 S
H2108 C2094 0.960 . S
H2109 C2095 0.961 . S
H2110 C2095 0.961 1_556 S
H2111 C2095 0.961 . S
H2112 C2096 0.931 . S
H2113 C2101 0.930 . S
H2114 C2102 0.956 . S
H2115 C2102 0.961 . S
H2116 C2102 0.961 . S
H2117 C2103 0.958 . S
H2118 C2103 0.961 . S
H2119 C2103 0.960 1_554 S
C2120 C2121 1.391 . S
C2120 C2122 1.394 . S
C2120 H2136 0.931 . S
C2121 C2120 1.391 . S
C2121 C2125 1.376 1_455 S
C2122 C2120 1.394 . S
C2122 C2123 1.369 . S
C2122 C2126 1.531 . S
C2123 C2122 1.369 . S
C2123 C2124 1.410 1_455 S
C2123 C2131 1.503 1_556 S
C2124 C2123 1.410 1_655 S
C2124 C2125 1.392 . S
C2124 C2127 1.511 . S
C2125 C2121 1.376 1_655 S
C2125 C2124 1.392 . S
C2125 H2137 0.929 . S
C2126 C2122 1.531 . S
C2126 H2138 0.960 1_556 S
C2126 H2139 0.962 . S
C2126 H2140 0.960 . S
C2127 C2124 1.511 . S
C2127 H2141 0.961 . S
C2127 H2142 0.982 . S
C2127 H2143 0.961 . S
C2128 C2129 1.370 . S
C2128 C2130 1.363 . S
C2128 H2144 0.931 . S
C2129 C2128 1.370 . S
C2129 C2133 1.408 . S
C2130 C2128 1.363 . S
C2130 C2131 1.370 . S
C2130 C2134 1.524 . S
C2131 C2123 1.503 1_554 S
C2131 C2130 1.370 . S
C2131 C2132 1.403 . S
C2132 C2131 1.403 . S
C2132 C2133 1.404 . S
C2132 C2135 1.539 . S
C2133 C2129 1.408 . S
C2133 C2132 1.404 . S
C2133 H2145 0.930 . S
C2134 C2130 1.524 . S
C2134 H2146 0.956 . S
C2134 H2147 0.961 1_554 S
C2134 H2148 0.961 . S
C2135 C2132 1.539 . S
C2135 H2149 0.958 . S
C2135 H2150 0.961 1_455 S
C2135 H2151 0.921 1_454 S
H2136 C2120 0.931 . S
H2137 C2125 0.929 . S
H2138 C2126 0.960 1_554 S
H2139 C2126 0.962 . S
H2140 C2126 0.960 . S
H2141 C2127 0.961 . S
H2142 C2127 0.982 . S
H2143 C2127 0.961 . S
H2144 C2128 0.931 . S
H2145 C2133 0.930 . S
H2146 C2134 0.956 . S
H2147 C2134 0.961 1_556 S
H2148 C2134 0.961 . S
H2149 C2135 0.958 . S
H2150 C2135 0.961 1_655 S
H2151 C2135 0.921 1_656 S
C2152 C2153 1.391 . S
C2152 C2154 1.394 . S
C2152 H2168 0.931 . S
C2153 C2152 1.391 . S
C2153 C2157 1.376 . S
C2154 C2152 1.394 . S
C2154 C2155 1.369 . S
C2154 C2158 1.531 . S
C2155 C2154 1.369 . S
C2155 C2156 1.410 . S
C2155 C2163 1.503 1_556 S
C2156 C2155 1.410 . S
C2156 C2157 1.392 . S
C2156 C2159 1.511 . S
C2157 C2153 1.376 . S
C2157 C2156 1.392 . S
C2157 H2169 0.929 . S
C2158 C2154 1.531 . S
C2158 H2170 0.960 1_556 S
C2158 H2171 0.962 . S
C2158 H2172 0.960 . S
C2159 C2156 1.511 . S
C2159 H2173 0.961 . S
C2159 H2174 0.933 1_556 S
C2159 H2175 0.961 . S
C2160 C2161 1.370 . S
C2160 C2162 1.363 . S
C2160 H2176 0.931 . S
C2161 C2160 1.370 . S
C2161 C2165 1.408 . S
C2162 C2160 1.363 . S
C2162 C2163 1.370 . S
C2162 C2166 1.524 . S
C2163 C2155 1.503 1_554 S
C2163 C2162 1.370 . S
C2163 C2164 1.403 . S
C2164 C2163 1.403 . S
C2164 C2165 1.404 . S
C2164 C2167 1.539 . S
C2165 C2161 1.408 . S
C2165 C2164 1.404 . S
C2165 H2177 0.930 . S
C2166 C2162 1.524 . S
C2166 H2178 0.956 . S
C2166 H2179 0.970 . S
C2166 H2180 0.961 . S
C2167 C2164 1.539 . S
C2167 H2181 0.958 . S
C2167 H2182 0.961 . S
C2167 H2183 0.960 1_554 S
H2168 C2152 0.931 . S
H2169 C2157 0.929 . S
H2170 C2158 0.960 1_554 S
H2171 C2158 0.962 . S
H2172 C2158 0.960 . S
H2173 C2159 0.961 . S
H2174 C2159 0.933 1_554 S
H2175 C2159 0.961 . S
H2176 C2160 0.931 . S
H2177 C2165 0.930 . S
H2178 C2166 0.956 . S
H2179 C2166 0.970 . S
H2180 C2166 0.961 . S
H2181 C2167 0.958 . S
H2182 C2167 0.961 . S
H2183 C2167 0.960 1_556 S
C2184 C2185 1.391 . S
C2184 C2186 1.394 . S
C2184 H2200 0.931 . S
C2185 C2184 1.391 . S
C2185 C2189 1.376 . S
C2186 C2184 1.394 . S
C2186 C2187 1.369 . S
C2186 C2190 1.531 . S
C2187 C2186 1.369 . S
C2187 C2188 1.410 . S
C2187 C2195 1.503 . S
C2188 C2187 1.410 . S
C2188 C2189 1.392 . S
C2188 C2191 1.511 . S
C2189 C2185 1.376 . S
C2189 C2188 1.392 . S
C2189 H2201 0.929 . S
C2190 C2186 1.531 . S
C2190 H2202 0.960 . S
C2190 H2203 0.962 . S
C2190 H2204 0.960 . S
C2191 C2188 1.511 . S
C2191 H2205 0.961 . S
C2191 H2206 0.961 . S
C2191 H2207 0.961 . S
C2192 C2193 1.370 . S
C2192 C2194 1.363 . S
C2192 H2208 0.931 . S
C2193 C2192 1.370 . S
C2193 C2197 1.408 . S
C2194 C2192 1.363 . S
C2194 C2195 1.370 . S
C2194 C2198 1.524 . S
C2195 C2187 1.503 . S
C2195 C2194 1.370 . S
C2195 C2196 1.403 . S
C2196 C2195 1.403 . S
C2196 C2197 1.404 . S
C2196 C2199 1.539 . S
C2197 C2193 1.408 . S
C2197 C2196 1.404 . S
C2197 H2209 0.930 . S
C2198 C2194 1.524 . S
C2198 H2210 0.956 . S
C2198 H2211 0.961 . S
C2198 H2212 0.961 . S
C2199 C2196 1.539 . S
C2199 H2213 0.958 . S
C2199 H2214 0.961 . S
C2199 H2215 0.960 . S
H2200 C2184 0.931 . S
H2201 C2189 0.929 . S
H2202 C2190 0.960 . S
H2203 C2190 0.962 . S
H2204 C2190 0.960 . S
H2205 C2191 0.961 . S
H2206 C2191 0.961 . S
H2207 C2191 0.961 . S
H2208 C2192 0.931 . S
H2209 C2197 0.930 . S
H2210 C2198 0.956 . S
H2211 C2198 0.961 . S
H2212 C2198 0.961 . S
H2213 C2199 0.958 . S
H2214 C2199 0.961 . S
H2215 C2199 0.960 . S
C2216 C2217 1.391 . S
C2216 C2218 1.394 . S
C2216 H2232 0.931 . S
C2217 C2216 1.391 . S
C2217 C2221 1.376 . S
C2218 C2216 1.394 . S
C2218 C2219 1.369 . S
C2218 C2222 1.531 . S
C2219 C2218 1.369 . S
C2219 C2220 1.410 . S
C2219 C2227 1.503 . S
C2220 C2219 1.410 . S
C2220 C2221 1.392 . S
C2220 C2223 1.511 . S
C2221 C2217 1.376 . S
C2221 C2220 1.392 . S
C2221 H2233 0.929 . S
C2222 C2218 1.531 . S
C2222 H2234 0.960 . S
C2222 H2235 0.962 . S
C2222 H2236 0.960 . S
C2223 C2220 1.511 . S
C2223 H2237 0.961 . S
C2223 H2238 0.961 . S
C2223 H2239 0.961 . S
C2224 C2225 1.370 . S
C2224 C2226 1.363 . S
C2224 H2240 0.931 . S
C2225 C2224 1.370 . S
C2225 C2229 1.408 . S
C2226 C2224 1.363 . S
C2226 C2227 1.370 . S
C2226 C2230 1.524 . S
C2227 C2219 1.503 . S
C2227 C2226 1.370 . S
C2227 C2228 1.403 . S
C2228 C2227 1.403 . S
C2228 C2229 1.404 . S
C2228 C2231 1.539 . S
C2229 C2225 1.408 . S
C2229 C2228 1.404 . S
C2229 H2241 0.930 . S
C2230 C2226 1.524 . S
C2230 H2242 0.956 . S
C2230 H2243 0.961 . S
C2230 H2244 0.961 . S
C2231 C2228 1.539 . S
C2231 H2245 0.958 . S
C2231 H2246 0.961 . S
C2231 H2247 0.960 . S
H2232 C2216 0.931 . S
H2233 C2221 0.929 . S
H2234 C2222 0.960 . S
H2235 C2222 0.962 . S
H2236 C2222 0.960 . S
H2237 C2223 0.961 . S
H2238 C2223 0.961 . S
H2239 C2223 0.961 . S
H2240 C2224 0.931 . S
H2241 C2229 0.930 . S
H2242 C2230 0.956 . S
H2243 C2230 0.961 . S
H2244 C2230 0.961 . S
H2245 C2231 0.958 . S
H2246 C2231 0.961 . S
H2247 C2231 0.960 . S
C2248 C2249 1.391 . S
C2248 C2250 1.394 . S
C2248 H2264 0.931 . S
C2249 C2248 1.391 . S
C2249 C2253 1.376 . S
C2250 C2248 1.394 . S
C2250 C2251 1.369 . S
C2250 C2254 1.531 . S
C2251 C2250 1.369 . S
C2251 C2252 1.410 . S
C2251 C2259 1.503 . S
C2252 C2251 1.410 . S
C2252 C2253 1.392 . S
C2252 C2255 1.511 . S
C2253 C2249 1.376 . S
C2253 C2252 1.392 . S
C2253 H2265 0.929 . S
C2254 C2250 1.531 . S
C2254 H2266 0.960 . S
C2254 H2267 0.962 . S
C2254 H2268 0.960 . S
C2255 C2252 1.511 . S
C2255 H2269 0.961 . S
C2255 H2270 0.961 . S
C2255 H2271 0.961 . S
C2256 C2257 1.370 . S
C2256 C2258 1.363 . S
C2256 H2272 0.931 . S
C2257 C2256 1.370 . S
C2257 C2261 1.408 . S
C2258 C2256 1.363 . S
C2258 C2259 1.370 . S
C2258 C2262 1.524 . S
C2259 C2251 1.503 . S
C2259 C2258 1.370 . S
C2259 C2260 1.403 . S
C2260 C2259 1.403 . S
C2260 C2261 1.404 . S
C2260 C2263 1.539 . S
C2261 C2257 1.408 . S
C2261 C2260 1.404 . S
C2261 H2273 0.930 . S
C2262 C2258 1.524 . S
C2262 H2274 0.956 . S
C2262 H2275 0.961 . S
C2262 H2276 0.961 . S
C2263 C2260 1.539 . S
C2263 H2277 0.958 . S
C2263 H2278 0.961 . S
C2263 H2279 0.960 . S
H2264 C2248 0.931 . S
H2265 C2253 0.929 . S
H2266 C2254 0.960 . S
H2267 C2254 0.962 . S
H2268 C2254 0.960 . S
H2269 C2255 0.961 . S
H2270 C2255 0.961 . S
H2271 C2255 0.961 . S
H2272 C2256 0.931 . S
H2273 C2261 0.930 . S
H2274 C2262 0.956 . S
H2275 C2262 0.961 . S
H2276 C2262 0.961 . S
H2277 C2263 0.958 . S
H2278 C2263 0.961 . S
H2279 C2263 0.960 . S
C2280 C2281 1.391 . S
C2280 C2282 1.394 . S
C2280 H2296 0.931 . S
C2281 C2280 1.391 . S
C2281 C2285 1.376 . S
C2282 C2280 1.394 . S
C2282 C2283 1.369 . S
C2282 C2286 1.531 . S
C2283 C2282 1.369 . S
C2283 C2284 1.410 . S
C2283 C2291 1.503 . S
C2284 C2283 1.410 . S
C2284 C2285 1.392 . S
C2284 C2287 1.511 . S
C2285 C2281 1.376 . S
C2285 C2284 1.392 . S
C2285 H2297 0.929 . S
C2286 C2282 1.531 . S
C2286 H2298 0.960 . S
C2286 H2299 0.962 . S
C2286 H2300 0.960 . S
C2287 C2284 1.511 . S
C2287 H2301 0.961 . S
C2287 H2302 0.961 . S
C2287 H2303 0.961 . S
C2288 C2289 1.370 . S
C2288 C2290 1.363 . S
C2288 H2304 0.931 . S
C2289 C2288 1.370 . S
C2289 C2293 1.408 . S
C2290 C2288 1.363 . S
C2290 C2291 1.370 . S
C2290 C2294 1.524 . S
C2291 C2283 1.503 . S
C2291 C2290 1.370 . S
C2291 C2292 1.403 . S
C2292 C2291 1.403 . S
C2292 C2293 1.404 . S
C2292 C2295 1.539 . S
C2293 C2289 1.408 . S
C2293 C2292 1.404 . S
C2293 H2305 0.930 . S
C2294 C2290 1.524 . S
C2294 H2306 0.956 . S
C2294 H2307 0.961 . S
C2294 H2308 0.961 . S
C2295 C2292 1.539 . S
C2295 H2309 0.958 . S
C2295 H2310 0.961 . S
C2295 H2311 0.960 . S
H2296 C2280 0.931 . S
H2297 C2285 0.929 . S
H2298 C2286 0.960 . S
H2299 C2286 0.962 . S
H2300 C2286 0.960 . S
H2301 C2287 0.961 . S
H2302 C2287 0.961 . S
H2303 C2287 0.961 . S
H2304 C2288 0.931 . S
H2305 C2293 0.930 . S
H2306 C2294 0.956 . S
H2307 C2294 0.961 . S
H2308 C2294 0.961 . S
H2309 C2295 0.958 . S
H2310 C2295 0.961 . S
H2311 C2295 0.960 . S
C2312 C2313 1.391 . S
C2312 C2314 1.394 . S
C2312 H2328 0.931 . S
C2313 C2312 1.391 . S
C2313 C2317 1.376 . S
C2314 C2312 1.394 . S
C2314 C2315 1.369 . S
C2314 C2318 1.531 . S
C2315 C2314 1.369 . S
C2315 C2316 1.410 . S
C2315 C2323 1.503 . S
C2316 C2315 1.410 . S
C2316 C2317 1.392 . S
C2316 C2319 1.511 . S
C2317 C2313 1.376 . S
C2317 C2316 1.392 . S
C2317 H2329 0.929 . S
C2318 C2314 1.531 . S
C2318 H2330 0.960 . S
C2318 H2331 0.962 . S
C2318 H2332 0.960 . S
C2319 C2316 1.511 . S
C2319 H2333 0.961 . S
C2319 H2334 0.961 . S
C2319 H2335 0.961 . S
C2320 C2321 1.370 . S
C2320 C2322 1.363 . S
C2320 H2336 0.931 . S
C2321 C2320 1.370 . S
C2321 C2325 1.408 . S
C2322 C2320 1.363 . S
C2322 C2323 1.370 . S
C2322 C2326 1.524 . S
C2323 C2315 1.503 . S
C2323 C2322 1.370 . S
C2323 C2324 1.403 . S
C2324 C2323 1.403 . S
C2324 C2325 1.404 . S
C2324 C2327 1.539 . S
C2325 C2321 1.408 . S
C2325 C2324 1.404 . S
C2325 H2337 0.930 . S
C2326 C2322 1.524 . S
C2326 H2338 0.956 . S
C2326 H2339 0.961 . S
C2326 H2340 0.961 . S
C2327 C2324 1.539 . S
C2327 H2341 0.958 . S
C2327 H2342 0.961 . S
C2327 H2343 0.960 . S
H2328 C2312 0.931 . S
H2329 C2317 0.929 . S
H2330 C2318 0.960 . S
H2331 C2318 0.962 . S
H2332 C2318 0.960 . S
H2333 C2319 0.961 . S
H2334 C2319 0.961 . S
H2335 C2319 0.961 . S
H2336 C2320 0.931 . S
H2337 C2325 0.930 . S
H2338 C2326 0.956 . S
H2339 C2326 0.961 . S
H2340 C2326 0.961 . S
H2341 C2327 0.958 . S
H2342 C2327 0.961 . S
H2343 C2327 0.960 . S
C2344 C2345 1.391 . S
C2344 C2346 1.394 . S
C2344 H2360 0.931 . S
C2345 C2344 1.391 . S
C2345 C2349 1.376 . S
C2346 C2344 1.394 . S
C2346 C2347 1.369 . S
C2346 C2350 1.531 . S
C2347 C2346 1.369 . S
C2347 C2348 1.410 . S
C2347 C2355 1.503 . S
C2348 C2347 1.410 . S
C2348 C2349 1.392 . S
C2348 C2351 1.511 . S
C2349 C2345 1.376 . S
C2349 C2348 1.392 . S
C2349 H2361 0.929 . S
C2350 C2346 1.531 . S
C2350 H2362 0.960 . S
C2350 H2363 0.962 . S
C2350 H2364 0.960 . S
C2351 C2348 1.511 . S
C2351 H2365 0.961 . S
C2351 H2366 0.961 . S
C2351 H2367 0.961 . S
C2352 C2353 1.370 . S
C2352 C2354 1.363 . S
C2352 H2368 0.931 . S
C2353 C2352 1.370 . S
C2353 C2357 1.408 . S
C2354 C2352 1.363 . S
C2354 C2355 1.370 . S
C2354 C2358 1.524 . S
C2355 C2347 1.503 . S
C2355 C2354 1.370 . S
C2355 C2356 1.403 . S
C2356 C2355 1.403 . S
C2356 C2357 1.404 . S
C2356 C2359 1.539 . S
C2357 C2353 1.408 . S
C2357 C2356 1.404 . S
C2357 H2369 0.930 . S
C2358 C2354 1.524 . S
C2358 H2370 0.956 . S
C2358 H2371 0.961 . S
C2358 H2372 0.961 . S
C2359 C2356 1.539 . S
C2359 H2373 0.958 . S
C2359 H2374 0.961 . S
C2359 H2375 0.960 . S
H2360 C2344 0.931 . S
H2361 C2349 0.929 . S
H2362 C2350 0.960 . S
H2363 C2350 0.962 . S
H2364 C2350 0.960 . S
H2365 C2351 0.961 . S
H2366 C2351 0.961 . S
H2367 C2351 0.961 . S
H2368 C2352 0.931 . S
H2369 C2357 0.930 . S
H2370 C2358 0.956 . S
H2371 C2358 0.961 . S
H2372 C2358 0.961 . S
H2373 C2359 0.958 . S
H2374 C2359 0.961 . S
H2375 C2359 0.960 . S
C2376 C2377 1.391 . S
C2376 C2378 1.394 . S
C2376 H2392 0.931 . S
C2377 C2376 1.391 . S
C2377 C2381 1.376 . S
C2378 C2376 1.394 . S
C2378 C2379 1.369 . S
C2378 C2382 1.531 . S
C2379 C2378 1.369 . S
C2379 C2380 1.410 . S
C2379 C2387 1.503 . S
C2380 C2379 1.410 . S
C2380 C2381 1.392 . S
C2380 C2383 1.511 . S
C2381 C2377 1.376 . S
C2381 C2380 1.392 . S
C2381 H2393 0.929 . S
C2382 C2378 1.531 . S
C2382 H2394 0.960 . S
C2382 H2395 0.962 . S
C2382 H2396 0.960 . S
C2383 C2380 1.511 . S
C2383 H2397 0.961 . S
C2383 H2398 0.961 . S
C2383 H2399 0.961 . S
C2384 C2385 1.370 . S
C2384 C2386 1.363 . S
C2384 H2400 0.931 1_565 S
C2385 C2384 1.370 . S
C2385 C2389 1.408 . S
C2386 C2384 1.363 . S
C2386 C2387 1.370 . S
C2386 C2390 1.524 . S
C2387 C2379 1.503 . S
C2387 C2386 1.370 . S
C2387 C2388 1.403 . S
C2388 C2387 1.403 . S
C2388 C2389 1.404 . S
C2388 C2391 1.539 . S
C2389 C2385 1.408 . S
C2389 C2388 1.404 . S
C2389 H2401 0.930 . S
C2390 C2386 1.524 . S
C2390 H2402 0.956 . S
C2390 H2403 0.961 . S
C2390 H2404 0.961 1_565 S
C2391 C2388 1.539 . S
C2391 H2405 0.958 . S
C2391 H2406 0.961 . S
C2391 H2407 0.960 . S
H2392 C2376 0.931 . S
H2393 C2381 0.929 . S
H2394 C2382 0.960 . S
H2395 C2382 0.962 . S
H2396 C2382 0.960 . S
H2397 C2383 0.961 . S
H2398 C2383 0.961 . S
H2399 C2383 0.961 . S
H2400 C2384 0.931 1_545 S
H2401 C2389 0.930 . S
H2402 C2390 0.956 . S
H2403 C2390 0.961 . S
H2404 C2390 0.961 1_545 S
H2405 C2391 0.958 . S
H2406 C2391 0.961 . S
H2407 C2391 0.960 . S
C2408 C2409 1.391 . S
C2408 C2410 1.394 . S
C2408 H2424 0.931 . S
C2409 C2408 1.391 . S
C2409 C2413 1.376 . S
C2410 C2408 1.394 . S
C2410 C2411 1.369 . S
C2410 C2414 1.531 . S
C2411 C2410 1.369 . S
C2411 C2412 1.410 . S
C2411 C2419 1.503 . S
C2412 C2411 1.410 . S
C2412 C2413 1.392 . S
C2412 C2415 1.511 . S
C2413 C2409 1.376 . S
C2413 C2412 1.392 . S
C2413 H2425 0.929 . S
C2414 C2410 1.531 . S
C2414 H2426 0.960 . S
C2414 H2427 0.962 . S
C2414 H2428 0.960 . S
C2415 C2412 1.511 . S
C2415 H2429 0.961 . S
C2415 H2430 0.961 . S
C2415 H2431 0.961 . S
C2416 C2417 1.370 . S
C2416 C2418 1.363 . S
C2416 H2432 0.931 . S
C2417 C2416 1.370 . S
C2417 C2421 1.408 . S
C2418 C2416 1.363 . S
C2418 C2419 1.370 . S
C2418 C2422 1.524 . S
C2419 C2411 1.503 . S
C2419 C2418 1.370 . S
C2419 C2420 1.403 . S
C2420 C2419 1.403 . S
C2420 C2421 1.404 . S
C2420 C2423 1.539 . S
C2421 C2417 1.408 . S
C2421 C2420 1.404 . S
C2421 H2433 0.930 . S
C2422 C2418 1.524 . S
C2422 H2434 0.956 . S
C2422 H2435 0.961 . S
C2422 H2436 0.961 . S
C2423 C2420 1.539 . S
C2423 H2437 0.958 . S
C2423 H2438 0.961 . S
C2423 H2439 0.960 . S
H2424 C2408 0.931 . S
H2425 C2413 0.929 . S
H2426 C2414 0.960 . S
H2427 C2414 0.962 . S
H2428 C2414 0.960 . S
H2429 C2415 0.961 . S
H2430 C2415 0.961 . S
H2431 C2415 0.961 . S
H2432 C2416 0.931 . S
H2433 C2421 0.930 . S
H2434 C2422 0.956 . S
H2435 C2422 0.961 . S
H2436 C2422 0.961 . S
H2437 C2423 0.958 . S
H2438 C2423 0.961 . S
H2439 C2423 0.960 . S
C2440 C2441 1.391 . S
C2440 C2442 1.394 . S
C2440 H2456 0.931 . S
C2441 C2440 1.391 . S
C2441 C2445 1.376 . S
C2442 C2440 1.394 . S
C2442 C2443 1.369 . S
C2442 C2446 1.531 . S
C2443 C2442 1.369 . S
C2443 C2444 1.410 . S
C2443 C2451 1.503 . S
C2444 C2443 1.410 . S
C2444 C2445 1.392 . S
C2444 C2447 1.511 . S
C2445 C2441 1.376 . S
C2445 C2444 1.392 . S
C2445 H2457 0.929 . S
C2446 C2442 1.531 . S
C2446 H2458 0.960 . S
C2446 H2459 0.962 . S
C2446 H2460 0.960 . S
C2447 C2444 1.511 . S
C2447 H2461 0.961 . S
C2447 H2462 0.961 . S
C2447 H2463 0.961 . S
C2448 C2449 1.370 . S
C2448 C2450 1.363 . S
C2448 H2464 0.931 . S
C2449 C2448 1.370 . S
C2449 C2453 1.408 . S
C2450 C2448 1.363 . S
C2450 C2451 1.370 . S
C2450 C2454 1.524 . S
C2451 C2443 1.503 . S
C2451 C2450 1.370 . S
C2451 C2452 1.403 . S
C2452 C2451 1.403 . S
C2452 C2453 1.404 . S
C2452 C2455 1.539 . S
C2453 C2449 1.408 . S
C2453 C2452 1.404 . S
C2453 H2465 0.930 . S
C2454 C2450 1.524 . S
C2454 H2466 0.956 . S
C2454 H2467 0.961 . S
C2454 H2468 0.961 . S
C2455 C2452 1.539 . S
C2455 H2469 0.958 . S
C2455 H2470 0.961 . S
C2455 H2471 0.960 . S
H2456 C2440 0.931 . S
H2457 C2445 0.929 . S
H2458 C2446 0.960 . S
H2459 C2446 0.962 . S
H2460 C2446 0.960 . S
H2461 C2447 0.961 . S
H2462 C2447 0.961 . S
H2463 C2447 0.961 . S
H2464 C2448 0.931 . S
H2465 C2453 0.930 . S
H2466 C2454 0.956 . S
H2467 C2454 0.961 . S
H2468 C2454 0.961 . S
H2469 C2455 0.958 . S
H2470 C2455 0.961 . S
H2471 C2455 0.960 . S
C2472 C2473 1.391 . S
C2472 C2474 1.394 . S
C2472 H2488 0.931 . S
C2473 C2472 1.391 . S
C2473 C2477 1.376 . S
C2474 C2472 1.394 . S
C2474 C2475 1.369 . S
C2474 C2478 1.531 . S
C2475 C2474 1.369 . S
C2475 C2476 1.410 . S
C2475 C2483 1.503 . S
C2476 C2475 1.410 . S
C2476 C2477 1.392 . S
C2476 C2479 1.511 . S
C2477 C2473 1.376 . S
C2477 C2476 1.392 . S
C2477 H2489 0.929 . S
C2478 C2474 1.531 . S
C2478 H2490 0.960 . S
C2478 H2491 0.962 . S
C2478 H2492 0.960 . S
C2479 C2476 1.511 . S
C2479 H2493 0.961 . S
C2479 H2494 0.961 . S
C2479 H2495 0.961 . S
C2480 C2481 1.370 . S
C2480 C2482 1.363 . S
C2480 H2496 0.931 . S
C2481 C2480 1.370 . S
C2481 C2485 1.408 . S
C2482 C2480 1.363 . S
C2482 C2483 1.370 . S
C2482 C2486 1.524 . S
C2483 C2475 1.503 . S
C2483 C2482 1.370 . S
C2483 C2484 1.403 . S
C2484 C2483 1.403 . S
C2484 C2485 1.404 . S
C2484 C2487 1.539 . S
C2485 C2481 1.408 . S
C2485 C2484 1.404 . S
C2485 H2497 0.930 . S
C2486 C2482 1.524 . S
C2486 H2498 0.956 . S
C2486 H2499 0.961 . S
C2486 H2500 0.961 . S
C2487 C2484 1.539 . S
C2487 H2501 0.958 1_655 S
C2487 H2502 0.961 1_655 S
C2487 H2503 0.960 1_655 S
H2488 C2472 0.931 . S
H2489 C2477 0.929 . S
H2490 C2478 0.960 . S
H2491 C2478 0.962 . S
H2492 C2478 0.960 . S
H2493 C2479 0.961 . S
H2494 C2479 0.961 . S
H2495 C2479 0.961 . S
H2496 C2480 0.931 . S
H2497 C2485 0.930 . S
H2498 C2486 0.956 . S
H2499 C2486 0.961 . S
H2500 C2486 0.961 . S
H2501 C2487 0.958 1_455 S
H2502 C2487 0.961 1_455 S
H2503 C2487 0.960 1_455 S
C2504 C2505 1.391 . S
C2504 C2506 1.394 . S
C2504 H2520 0.931 . S
C2505 C2504 1.391 . S
C2505 C2509 1.376 . S
C2506 C2504 1.394 . S
C2506 C2507 1.369 . S
C2506 C2510 1.531 . S
C2507 C2506 1.369 . S
C2507 C2508 1.410 . S
C2507 C2515 1.503 . S
C2508 C2507 1.410 . S
C2508 C2509 1.392 . S
C2508 C2511 1.511 . S
C2509 C2505 1.376 . S
C2509 C2508 1.392 . S
C2509 H2521 0.929 . S
C2510 C2506 1.531 . S
C2510 H2522 0.960 . S
C2510 H2523 0.962 . S
C2510 H2524 0.960 . S
C2511 C2508 1.511 . S
C2511 H2525 0.961 . S
C2511 H2526 0.961 . S
C2511 H2527 0.961 . S
C2512 C2513 1.370 . S
C2512 C2514 1.363 . S
C2512 H2528 0.931 . S
C2513 C2512 1.370 . S
C2513 C2517 1.408 . S
C2514 C2512 1.363 . S
C2514 C2515 1.370 . S
C2514 C2518 1.524 . S
C2515 C2507 1.503 . S
C2515 C2514 1.370 . S
C2515 C2516 1.403 . S
C2516 C2515 1.403 . S
C2516 C2517 1.404 . S
C2516 C2519 1.539 . S
C2517 C2513 1.408 . S
C2517 C2516 1.404 . S
C2517 H2529 0.930 . S
C2518 C2514 1.524 . S
C2518 H2530 0.956 . S
C2518 H2531 0.961 . S
C2518 H2532 0.961 . S
C2519 C2516 1.539 . S
C2519 H2533 0.958 . S
C2519 H2534 0.961 . S
C2519 H2535 0.960 . S
H2520 C2504 0.931 . S
H2521 C2509 0.929 . S
H2522 C2510 0.960 . S
H2523 C2510 0.962 . S
H2524 C2510 0.960 . S
H2525 C2511 0.961 . S
H2526 C2511 0.961 . S
H2527 C2511 0.961 . S
H2528 C2512 0.931 . S
H2529 C2517 0.930 . S
H2530 C2518 0.956 . S
H2531 C2518 0.961 . S
H2532 C2518 0.961 . S
H2533 C2519 0.958 . S
H2534 C2519 0.961 . S
H2535 C2519 0.960 . S
C2536 C2537 1.391 . S
C2536 C2538 1.394 . S
C2536 H2552 0.931 . S
C2537 C2536 1.391 . S
C2537 C2541 1.376 . S
C2538 C2536 1.394 . S
C2538 C2539 1.369 . S
C2538 C2542 1.531 . S
C2539 C2538 1.369 . S
C2539 C2540 1.410 . S
C2539 C2547 1.503 . S
C2540 C2539 1.410 . S
C2540 C2541 1.392 . S
C2540 C2543 1.511 . S
C2541 C2537 1.376 . S
C2541 C2540 1.392 . S
C2541 H2553 0.929 . S
C2542 C2538 1.531 . S
C2542 H2554 0.960 . S
C2542 H2555 0.962 . S
C2542 H2556 0.960 . S
C2543 C2540 1.511 . S
C2543 H2557 0.961 . S
C2543 H2558 0.961 . S
C2543 H2559 0.961 . S
C2544 C2545 1.370 . S
C2544 C2546 1.363 . S
C2544 H2560 0.931 . S
C2545 C2544 1.370 . S
C2545 C2549 1.408 . S
C2546 C2544 1.363 . S
C2546 C2547 1.370 . S
C2546 C2550 1.524 . S
C2547 C2539 1.503 . S
C2547 C2546 1.370 . S
C2547 C2548 1.403 . S
C2548 C2547 1.403 . S
C2548 C2549 1.404 . S
C2548 C2551 1.539 . S
C2549 C2545 1.408 . S
C2549 C2548 1.404 . S
C2549 H2561 0.930 . S
C2550 C2546 1.524 . S
C2550 H2562 0.956 . S
C2550 H2563 0.961 . S
C2550 H2564 0.961 . S
C2551 C2548 1.539 . S
C2551 H2565 0.958 . S
C2551 H2566 0.961 . S
C2551 H2567 0.960 . S
H2552 C2536 0.931 . S
H2553 C2541 0.929 . S
H2554 C2542 0.960 . S
H2555 C2542 0.962 . S
H2556 C2542 0.960 . S
H2557 C2543 0.961 . S
H2558 C2543 0.961 . S
H2559 C2543 0.961 . S
H2560 C2544 0.931 . S
H2561 C2549 0.930 . S
H2562 C2550 0.956 . S
H2563 C2550 0.961 . S
H2564 C2550 0.961 . S
H2565 C2551 0.958 . S
H2566 C2551 0.961 . S
H2567 C2551 0.960 . S
C2568 C2569 1.391 . S
C2568 C2570 1.416 . S
C2568 H2584 0.931 . S
C2569 C2568 1.391 . S
C2569 C2573 1.376 . S
C2570 C2568 1.416 . S
C2570 C2571 1.368 . S
C2570 C2574 1.499 1_655 S
C2571 C2570 1.368 . S
C2571 C2572 1.442 . S
C2571 C2579 1.481 1_655 S
C2572 C2571 1.442 . S
C2572 C2573 1.392 . S
C2572 C2575 1.511 . S
C2573 C2569 1.376 . S
C2573 C2572 1.392 . S
C2573 H2585 0.929 . S
C2574 C2570 1.499 1_455 S
C2574 H2586 0.960 . S
C2574 H2587 0.962 . S
C2574 H2588 0.960 . S
C2575 C2572 1.511 . S
C2575 H2589 0.961 . S
C2575 H2590 0.961 . S
C2575 H2591 0.961 . S
C2576 C2577 1.370 . S
C2576 C2578 1.363 . S
C2576 H2592 0.931 . S
C2577 C2576 1.370 . S
C2577 C2581 1.408 . S
C2578 C2576 1.363 . S
C2578 C2579 1.370 . S
C2578 C2582 1.524 . S
C2579 C2571 1.481 1_455 S
C2579 C2578 1.370 . S
C2579 C2580 1.403 . S
C2580 C2579 1.403 . S
C2580 C2581 1.404 . S
C2580 C2583 1.539 . S
C2581 C2577 1.408 . S
C2581 C2580 1.404 . S
C2581 H2593 0.930 . S
C2582 C2578 1.524 . S
C2582 H2594 0.956 . S
C2582 H2595 0.961 . S
C2582 H2596 0.961 . S
C2583 C2580 1.539 . S
C2583 H2597 0.958 . S
C2583 H2598 0.961 . S
C2583 H2599 0.960 1_455 S
H2584 C2568 0.931 . S
H2585 C2573 0.929 . S
H2586 C2574 0.960 . S
H2587 C2574 0.962 . S
H2588 C2574 0.960 . S
H2589 C2575 0.961 . S
H2590 C2575 0.961 . S
H2591 C2575 0.961 . S
H2592 C2576 0.931 . S
H2593 C2581 0.930 . S
H2594 C2582 0.956 . S
H2595 C2582 0.961 . S
H2596 C2582 0.961 . S
H2597 C2583 0.958 . S
H2598 C2583 0.961 . S
H2599 C2583 0.960 1_655 S
C2600 C2601 1.391 . S
C2600 C2602 1.394 . S
C2600 H2616 0.931 . S
C2601 C2600 1.391 . S
C2601 C2605 1.376 . S
C2602 C2600 1.394 . S
C2602 C2603 1.369 . S
C2602 C2606 1.531 . S
C2603 C2602 1.369 . S
C2603 C2604 1.410 . S
C2603 C2611 1.503 . S
C2604 C2603 1.410 . S
C2604 C2605 1.392 . S
C2604 C2607 1.511 . S
C2605 C2601 1.376 . S
C2605 C2604 1.392 . S
C2605 H2617 0.929 . S
C2606 C2602 1.531 . S
C2606 H2618 0.960 . S
C2606 H2619 0.962 . S
C2606 H2620 0.960 . S
C2607 C2604 1.511 . S
C2607 H2621 0.961 . S
C2607 H2622 0.961 . S
C2607 H2623 0.961 . S
C2608 C2609 1.370 . S
C2608 C2610 1.363 . S
C2608 H2624 0.931 . S
C2609 C2608 1.370 . S
C2609 C2613 1.408 . S
C2610 C2608 1.363 . S
C2610 C2611 1.370 . S
C2610 C2614 1.524 . S
C2611 C2603 1.503 . S
C2611 C2610 1.370 . S
C2611 C2612 1.403 . S
C2612 C2611 1.403 . S
C2612 C2613 1.404 . S
C2612 C2615 1.539 . S
C2613 C2609 1.408 . S
C2613 C2612 1.404 . S
C2613 H2625 0.930 . S
C2614 C2610 1.524 . S
C2614 H2626 0.956 . S
C2614 H2627 0.961 . S
C2614 H2628 0.961 . S
C2615 C2612 1.539 . S
C2615 H2629 0.958 . S
C2615 H2630 0.961 . S
C2615 H2631 0.960 . S
H2616 C2600 0.931 . S
H2617 C2605 0.929 . S
H2618 C2606 0.960 . S
H2619 C2606 0.962 . S
H2620 C2606 0.960 . S
H2621 C2607 0.961 . S
H2622 C2607 0.961 . S
H2623 C2607 0.961 . S
H2624 C2608 0.931 . S
H2625 C2613 0.930 . S
H2626 C2614 0.956 . S
H2627 C2614 0.961 . S
H2628 C2614 0.961 . S
H2629 C2615 0.958 . S
H2630 C2615 0.961 . S
H2631 C2615 0.960 . S
C2632 C2633 1.391 . S
C2632 C2634 1.394 1_565 S
C2632 H2648 0.931 . S
C2633 C2632 1.391 . S
C2633 C2637 1.376 . S
C2634 C2632 1.394 1_545 S
C2634 C2635 1.369 . S
C2634 C2638 1.531 . S
C2635 C2634 1.369 . S
C2635 C2636 1.410 1_545 S
C2635 C2643 1.503 . S
C2636 C2635 1.410 1_565 S
C2636 C2637 1.392 . S
C2636 C2639 1.511 . S
C2637 C2633 1.376 . S
C2637 C2636 1.392 . S
C2637 H2649 0.929 . S
C2638 C2634 1.531 . S
C2638 H2650 0.960 . S
C2638 H2651 0.962 . S
C2638 H2652 0.960 . S
C2639 C2636 1.511 . S
C2639 H2653 0.961 . S
C2639 H2654 0.961 . S
C2639 H2655 0.961 . S
C2640 C2641 1.370 . S
C2640 C2642 1.363 . S
C2640 H2656 0.931 . S
C2641 C2640 1.370 . S
C2641 C2645 1.408 . S
C2642 C2640 1.363 . S
C2642 C2643 1.370 . S
C2642 C2646 1.524 1_545 S
C2643 C2635 1.503 . S
C2643 C2642 1.370 . S
C2643 C2644 1.403 . S
C2644 C2643 1.403 . S
C2644 C2645 1.404 . S
C2644 C2647 1.539 . S
C2645 C2641 1.408 . S
C2645 C2644 1.404 . S
C2645 H2657 0.930 . S
C2646 C2642 1.524 1_565 S
C2646 H2658 0.956 . S
C2646 H2659 0.961 . S
C2646 H2660 0.961 1_565 S
C2647 C2644 1.539 . S
C2647 H2661 0.958 . S
C2647 H2662 0.961 . S
C2647 H2663 0.960 . S
H2648 C2632 0.931 . S
H2649 C2637 0.929 . S
H2650 C2638 0.960 . S
H2651 C2638 0.962 . S
H2652 C2638 0.960 . S
H2653 C2639 0.961 . S
H2654 C2639 0.961 . S
H2655 C2639 0.961 . S
H2656 C2640 0.931 . S
H2657 C2645 0.930 . S
H2658 C2646 0.956 . S
H2659 C2646 0.961 . S
H2660 C2646 0.961 1_545 S
H2661 C2647 0.958 . S
H2662 C2647 0.961 . S
H2663 C2647 0.960 . S
C2664 C2665 1.391 . S
C2664 C2666 1.394 . S
C2664 H2680 0.931 . S
C2665 C2664 1.391 . S
C2665 C2669 1.376 . S
C2666 C2664 1.394 . S
C2666 C2667 1.369 . S
C2666 C2670 1.531 . S
C2667 C2666 1.369 . S
C2667 C2668 1.410 . S
C2667 C2675 1.503 . S
C2668 C2667 1.410 . S
C2668 C2669 1.392 . S
C2668 C2671 1.511 . S
C2669 C2665 1.376 . S
C2669 C2668 1.392 . S
C2669 H2681 0.929 . S
C2670 C2666 1.531 . S
C2670 H2682 0.960 . S
C2670 H2683 0.962 . S
C2670 H2684 0.960 . S
C2671 C2668 1.511 . S
C2671 H2685 0.961 . S
C2671 H2686 0.961 . S
C2671 H2687 0.961 . S
C2672 C2673 1.370 . S
C2672 C2674 1.363 . S
C2672 H2688 0.931 . S
C2673 C2672 1.370 . S
C2673 C2677 1.408 . S
C2674 C2672 1.363 . S
C2674 C2675 1.370 . S
C2674 C2678 1.524 . S
C2675 C2667 1.503 . S
C2675 C2674 1.370 . S
C2675 C2676 1.403 . S
C2676 C2675 1.403 . S
C2676 C2677 1.404 . S
C2676 C2679 1.539 . S
C2677 C2673 1.408 . S
C2677 C2676 1.404 . S
C2677 H2689 0.930 . S
C2678 C2674 1.524 . S
C2678 H2690 0.956 . S
C2678 H2691 0.961 . S
C2678 H2692 0.961 . S
C2679 C2676 1.539 . S
C2679 H2693 0.958 . S
C2679 H2694 0.961 . S
C2679 H2695 0.960 . S
H2680 C2664 0.931 . S
H2681 C2669 0.929 . S
H2682 C2670 0.960 . S
H2683 C2670 0.962 . S
H2684 C2670 0.960 . S
H2685 C2671 0.961 . S
H2686 C2671 0.961 . S
H2687 C2671 0.961 . S
H2688 C2672 0.931 . S
H2689 C2677 0.930 . S
H2690 C2678 0.956 . S
H2691 C2678 0.961 . S
H2692 C2678 0.961 . S
H2693 C2679 0.958 . S
H2694 C2679 0.961 . S
H2695 C2679 0.960 . S
C2696 C2697 1.391 . S
C2696 C2698 1.394 . S
C2696 H2712 0.931 . S
C2697 C2696 1.391 . S
C2697 C2701 1.376 . S
C2698 C2696 1.394 . S
C2698 C2699 1.369 . S
C2698 C2702 1.531 . S
C2699 C2698 1.369 . S
C2699 C2700 1.410 . S
C2699 C2707 1.503 . S
C2700 C2699 1.410 . S
C2700 C2701 1.392 . S
C2700 C2703 1.511 . S
C2701 C2697 1.376 . S
C2701 C2700 1.392 . S
C2701 H2713 0.929 . S
C2702 C2698 1.531 . S
C2702 H2714 0.960 . S
C2702 H2715 0.962 . S
C2702 H2716 0.960 . S
C2703 C2700 1.511 . S
C2703 H2717 0.961 . S
C2703 H2718 0.961 . S
C2703 H2719 0.961 . S
C2704 C2705 1.370 . S
C2704 C2706 1.363 . S
C2704 H2720 0.931 . S
C2705 C2704 1.370 . S
C2705 C2709 1.408 . S
C2706 C2704 1.363 . S
C2706 C2707 1.370 . S
C2706 C2710 1.524 . S
C2707 C2699 1.503 . S
C2707 C2706 1.370 . S
C2707 C2708 1.403 . S
C2708 C2707 1.403 . S
C2708 C2709 1.404 . S
C2708 C2711 1.539 . S
C2709 C2705 1.408 . S
C2709 C2708 1.404 . S
C2709 H2721 0.930 . S
C2710 C2706 1.524 . S
C2710 H2722 0.956 . S
C2710 H2723 0.961 . S
C2710 H2724 0.961 . S
C2711 C2708 1.539 . S
C2711 H2725 0.958 . S
C2711 H2726 0.961 . S
C2711 H2727 0.960 . S
H2712 C2696 0.931 . S
H2713 C2701 0.929 . S
H2714 C2702 0.960 . S
H2715 C2702 0.962 . S
H2716 C2702 0.960 . S
H2717 C2703 0.961 . S
H2718 C2703 0.961 . S
H2719 C2703 0.961 . S
H2720 C2704 0.931 . S
H2721 C2709 0.930 . S
H2722 C2710 0.956 . S
H2723 C2710 0.961 . S
H2724 C2710 0.961 . S
H2725 C2711 0.958 . S
H2726 C2711 0.961 . S
H2727 C2711 0.960 . S
C2728 C2729 1.391 . S
C2728 C2730 1.394 . S
C2728 H2744 0.931 . S
C2729 C2728 1.391 . S
C2729 C2733 1.376 . S
C2730 C2728 1.394 . S
C2730 C2731 1.369 . S
C2730 C2734 1.531 . S
C2731 C2730 1.369 . S
C2731 C2732 1.410 . S
C2731 C2739 1.503 . S
C2732 C2731 1.410 . S
C2732 C2733 1.392 . S
C2732 C2735 1.511 . S
C2733 C2729 1.376 . S
C2733 C2732 1.392 . S
C2733 H2745 0.929 . S
C2734 C2730 1.531 . S
C2734 H2746 0.960 . S
C2734 H2747 0.962 . S
C2734 H2748 0.960 . S
C2735 C2732 1.511 . S
C2735 H2749 0.961 . S
C2735 H2750 0.961 . S
C2735 H2751 0.961 . S
C2736 C2737 1.370 . S
C2736 C2738 1.363 . S
C2736 H2752 0.931 . S
C2737 C2736 1.370 . S
C2737 C2741 1.408 . S
C2738 C2736 1.363 . S
C2738 C2739 1.370 . S
C2738 C2742 1.524 . S
C2739 C2731 1.503 . S
C2739 C2738 1.370 . S
C2739 C2740 1.403 . S
C2740 C2739 1.403 . S
C2740 C2741 1.404 . S
C2740 C2743 1.539 . S
C2741 C2737 1.408 . S
C2741 C2740 1.404 . S
C2741 H2753 0.930 . S
C2742 C2738 1.524 . S
C2742 H2754 0.956 . S
C2742 H2755 0.961 . S
C2742 H2756 0.961 . S
C2743 C2740 1.539 . S
C2743 H2757 0.958 . S
C2743 H2758 0.961 . S
C2743 H2759 0.960 . S
H2744 C2728 0.931 . S
H2745 C2733 0.929 . S
H2746 C2734 0.960 . S
H2747 C2734 0.962 . S
H2748 C2734 0.960 . S
H2749 C2735 0.961 . S
H2750 C2735 0.961 . S
H2751 C2735 0.961 . S
H2752 C2736 0.931 . S
H2753 C2741 0.930 . S
H2754 C2742 0.956 . S
H2755 C2742 0.961 . S
H2756 C2742 0.961 . S
H2757 C2743 0.958 . S
H2758 C2743 0.961 . S
H2759 C2743 0.960 . S
C2760 C2761 1.391 . S
C2760 C2762 1.394 . S
C2760 H2776 0.931 . S
C2761 C2760 1.391 . S
C2761 C2765 1.376 . S
C2762 C2760 1.394 . S
C2762 C2763 1.369 . S
C2762 C2766 1.531 . S
C2763 C2762 1.369 . S
C2763 C2764 1.410 . S
C2763 C2771 1.503 . S
C2764 C2763 1.410 . S
C2764 C2765 1.392 . S
C2764 C2767 1.511 . S
C2765 C2761 1.376 . S
C2765 C2764 1.392 . S
C2765 H2777 0.929 . S
C2766 C2762 1.531 . S
C2766 H2778 0.960 . S
C2766 H2779 0.962 . S
C2766 H2780 0.960 . S
C2767 C2764 1.511 . S
C2767 H2781 0.961 . S
C2767 H2782 0.961 . S
C2767 H2783 0.961 . S
C2768 C2769 1.370 . S
C2768 C2770 1.363 . S
C2768 H2784 0.931 . S
C2769 C2768 1.370 . S
C2769 C2773 1.408 . S
C2770 C2768 1.363 . S
C2770 C2771 1.370 . S
C2770 C2774 1.524 . S
C2771 C2763 1.503 . S
C2771 C2770 1.370 . S
C2771 C2772 1.403 . S
C2772 C2771 1.403 . S
C2772 C2773 1.404 . S
C2772 C2775 1.539 . S
C2773 C2769 1.408 . S
C2773 C2772 1.404 . S
C2773 H2785 0.930 . S
C2774 C2770 1.524 . S
C2774 H2786 0.956 . S
C2774 H2787 0.961 . S
C2774 H2788 0.961 . S
C2775 C2772 1.539 . S
C2775 H2789 0.958 . S
C2775 H2790 0.961 . S
C2775 H2791 0.960 . S
H2776 C2760 0.931 . S
H2777 C2765 0.929 . S
H2778 C2766 0.960 . S
H2779 C2766 0.962 . S
H2780 C2766 0.960 . S
H2781 C2767 0.961 . S
H2782 C2767 0.961 . S
H2783 C2767 0.961 . S
H2784 C2768 0.931 . S
H2785 C2773 0.930 . S
H2786 C2774 0.956 . S
H2787 C2774 0.961 . S
H2788 C2774 0.961 . S
H2789 C2775 0.958 . S
H2790 C2775 0.961 . S
H2791 C2775 0.960 . S
C2792 C2793 1.391 . S
C2792 C2794 1.394 . S
C2792 H2808 0.931 . S
C2793 C2792 1.391 . S
C2793 C2797 1.376 . S
C2794 C2792 1.394 . S
C2794 C2795 1.369 . S
C2794 C2798 1.531 . S
C2795 C2794 1.369 . S
C2795 C2796 1.410 . S
C2795 C2803 1.503 . S
C2796 C2795 1.410 . S
C2796 C2797 1.392 . S
C2796 C2799 1.511 . S
C2797 C2793 1.376 . S
C2797 C2796 1.392 . S
C2797 H2809 0.929 . S
C2798 C2794 1.531 . S
C2798 H2810 0.960 . S
C2798 H2811 0.962 . S
C2798 H2812 0.960 . S
C2799 C2796 1.511 . S
C2799 H2813 0.961 . S
C2799 H2814 0.961 . S
C2799 H2815 0.961 . S
C2800 C2801 1.370 . S
C2800 C2802 1.363 . S
C2800 H2816 0.931 . S
C2801 C2800 1.370 . S
C2801 C2805 1.408 . S
C2802 C2800 1.363 . S
C2802 C2803 1.370 . S
C2802 C2806 1.524 . S
C2803 C2795 1.503 . S
C2803 C2802 1.370 . S
C2803 C2804 1.403 . S
C2804 C2803 1.403 . S
C2804 C2805 1.404 . S
C2804 C2807 1.539 . S
C2805 C2801 1.408 . S
C2805 C2804 1.404 . S
C2805 H2817 0.930 . S
C2806 C2802 1.524 . S
C2806 H2818 0.956 . S
C2806 H2819 0.961 . S
C2806 H2820 0.961 . S
C2807 C2804 1.539 . S
C2807 H2821 0.958 . S
C2807 H2822 0.961 . S
C2807 H2823 0.960 . S
H2808 C2792 0.931 . S
H2809 C2797 0.929 . S
H2810 C2798 0.960 . S
H2811 C2798 0.962 . S
H2812 C2798 0.960 . S
H2813 C2799 0.961 . S
H2814 C2799 0.961 . S
H2815 C2799 0.961 . S
H2816 C2800 0.931 . S
H2817 C2805 0.930 . S
H2818 C2806 0.956 . S
H2819 C2806 0.961 . S
H2820 C2806 0.961 . S
H2821 C2807 0.958 . S
H2822 C2807 0.961 . S
H2823 C2807 0.960 . S
C2824 C2825 1.391 . S
C2824 C2826 1.394 . S
C2824 H2840 0.931 . S
C2825 C2824 1.391 . S
C2825 C2829 1.376 . S
C2826 C2824 1.394 . S
C2826 C2827 1.369 . S
C2826 C2830 1.531 . S
C2827 C2826 1.369 . S
C2827 C2828 1.410 . S
C2827 C2835 1.503 . S
C2828 C2827 1.410 . S
C2828 C2829 1.392 . S
C2828 C2831 1.511 . S
C2829 C2825 1.376 . S
C2829 C2828 1.392 . S
C2829 H2841 0.929 . S
C2830 C2826 1.531 . S
C2830 H2842 0.960 . S
C2830 H2843 0.962 . S
C2830 H2844 0.960 . S
C2831 C2828 1.511 . S
C2831 H2845 0.961 . S
C2831 H2846 0.961 . S
C2831 H2847 0.961 . S
C2832 C2833 1.370 . S
C2832 C2834 1.363 . S
C2832 H2848 0.931 . S
C2833 C2832 1.370 . S
C2833 C2837 1.408 . S
C2834 C2832 1.363 . S
C2834 C2835 1.370 . S
C2834 C2838 1.524 . S
C2835 C2827 1.503 . S
C2835 C2834 1.370 . S
C2835 C2836 1.403 . S
C2836 C2835 1.403 . S
C2836 C2837 1.404 . S
C2836 C2839 1.539 . S
C2837 C2833 1.408 . S
C2837 C2836 1.404 . S
C2837 H2849 0.930 . S
C2838 C2834 1.524 . S
C2838 H2850 0.956 . S
C2838 H2851 0.961 . S
C2838 H2852 0.961 . S
C2839 C2836 1.539 . S
C2839 H2853 0.958 . S
C2839 H2854 0.961 . S
C2839 H2855 0.960 . S
H2840 C2824 0.931 . S
H2841 C2829 0.929 . S
H2842 C2830 0.960 . S
H2843 C2830 0.962 . S
H2844 C2830 0.960 . S
H2845 C2831 0.961 . S
H2846 C2831 0.961 . S
H2847 C2831 0.961 . S
H2848 C2832 0.931 . S
H2849 C2837 0.930 . S
H2850 C2838 0.956 . S
H2851 C2838 0.961 . S
H2852 C2838 0.961 . S
H2853 C2839 0.958 . S
H2854 C2839 0.961 . S
H2855 C2839 0.960 . S
C2856 C2857 1.391 . S
C2856 C2858 1.394 . S
C2856 H2872 0.931 . S
C2857 C2856 1.391 . S
C2857 C2861 1.376 . S
C2858 C2856 1.394 . S
C2858 C2859 1.369 . S
C2858 C2862 1.531 . S
C2859 C2858 1.369 . S
C2859 C2860 1.410 . S
C2859 C2867 1.503 . S
C2860 C2859 1.410 . S
C2860 C2861 1.392 . S
C2860 C2863 1.511 . S
C2861 C2857 1.376 . S
C2861 C2860 1.392 . S
C2861 H2873 0.929 . S
C2862 C2858 1.531 . S
C2862 H2874 0.960 . S
C2862 H2875 0.962 . S
C2862 H2876 0.960 . S
C2863 C2860 1.511 . S
C2863 H2877 0.961 . S
C2863 H2878 0.961 . S
C2863 H2879 0.961 . S
C2864 C2865 1.370 . S
C2864 C2866 1.363 . S
C2864 H2880 0.931 . S
C2865 C2864 1.370 . S
C2865 C2869 1.408 . S
C2866 C2864 1.363 . S
C2866 C2867 1.370 . S
C2866 C2870 1.524 . S
C2867 C2859 1.503 . S
C2867 C2866 1.370 . S
C2867 C2868 1.403 . S
C2868 C2867 1.403 . S
C2868 C2869 1.404 . S
C2868 C2871 1.539 . S
C2869 C2865 1.408 . S
C2869 C2868 1.404 . S
C2869 H2881 0.930 . S
C2870 C2866 1.524 . S
C2870 H2882 0.956 . S
C2870 H2883 0.961 . S
C2870 H2884 0.961 . S
C2871 C2868 1.539 . S
C2871 H2885 0.958 . S
C2871 H2886 0.961 . S
C2871 H2887 0.960 . S
H2872 C2856 0.931 . S
H2873 C2861 0.929 . S
H2874 C2862 0.960 . S
H2875 C2862 0.962 . S
H2876 C2862 0.960 . S
H2877 C2863 0.961 . S
H2878 C2863 0.961 . S
H2879 C2863 0.961 . S
H2880 C2864 0.931 . S
H2881 C2869 0.930 . S
H2882 C2870 0.956 . S
H2883 C2870 0.961 . S
H2884 C2870 0.961 . S
H2885 C2871 0.958 . S
H2886 C2871 0.961 . S
H2887 C2871 0.960 . S
C2888 C2889 1.391 . S
C2888 C2890 1.394 . S
C2888 H2904 0.931 . S
C2889 C2888 1.391 . S
C2889 C2893 1.376 . S
C2890 C2888 1.394 . S
C2890 C2891 1.369 . S
C2890 C2894 1.531 . S
C2891 C2890 1.369 . S
C2891 C2892 1.410 . S
C2891 C2899 1.503 . S
C2892 C2891 1.410 . S
C2892 C2893 1.392 . S
C2892 C2895 1.511 . S
C2893 C2889 1.376 . S
C2893 C2892 1.392 . S
C2893 H2905 0.929 . S
C2894 C2890 1.531 . S
C2894 H2906 0.960 . S
C2894 H2907 0.962 . S
C2894 H2908 0.960 . S
C2895 C2892 1.511 . S
C2895 H2909 0.961 . S
C2895 H2910 0.961 . S
C2895 H2911 0.961 . S
C2896 C2897 1.370 . S
C2896 C2898 1.363 . S
C2896 H2912 0.931 . S
C2897 C2896 1.370 . S
C2897 C2901 1.408 . S
C2898 C2896 1.363 . S
C2898 C2899 1.370 . S
C2898 C2902 1.524 . S
C2899 C2891 1.503 . S
C2899 C2898 1.370 . S
C2899 C2900 1.403 . S
C2900 C2899 1.403 . S
C2900 C2901 1.404 . S
C2900 C2903 1.539 . S
C2901 C2897 1.408 . S
C2901 C2900 1.404 . S
C2901 H2913 0.930 . S
C2902 C2898 1.524 . S
C2902 H2914 0.956 . S
C2902 H2915 0.961 . S
C2902 H2916 0.961 . S
C2903 C2900 1.539 . S
C2903 H2917 0.958 . S
C2903 H2918 0.961 . S
C2903 H2919 0.960 . S
H2904 C2888 0.931 . S
H2905 C2893 0.929 . S
H2906 C2894 0.960 . S
H2907 C2894 0.962 . S
H2908 C2894 0.960 . S
H2909 C2895 0.961 . S
H2910 C2895 0.961 . S
H2911 C2895 0.961 . S
H2912 C2896 0.931 . S
H2913 C2901 0.930 . S
H2914 C2902 0.956 . S
H2915 C2902 0.961 . S
H2916 C2902 0.961 . S
H2917 C2903 0.958 . S
H2918 C2903 0.961 . S
H2919 C2903 0.960 . S
C2920 C2921 1.391 . S
C2920 C2922 1.394 . S
C2920 H2936 0.931 . S
C2921 C2920 1.391 . S
C2921 C2925 1.376 . S
C2922 C2920 1.394 . S
C2922 C2923 1.369 . S
C2922 C2926 1.531 . S
C2923 C2922 1.369 . S
C2923 C2924 1.410 . S
C2923 C2931 1.503 . S
C2924 C2923 1.410 . S
C2924 C2925 1.392 . S
C2924 C2927 1.511 . S
C2925 C2921 1.376 . S
C2925 C2924 1.392 . S
C2925 H2937 0.929 . S
C2926 C2922 1.531 . S
C2926 H2938 0.960 . S
C2926 H2939 0.962 . S
C2926 H2940 0.960 . S
C2927 C2924 1.511 . S
C2927 H2941 0.961 . S
C2927 H2942 0.961 . S
C2927 H2943 0.961 . S
C2928 C2929 1.370 . S
C2928 C2930 1.363 . S
C2928 H2944 0.931 . S
C2929 C2928 1.370 . S
C2929 C2933 1.408 . S
C2930 C2928 1.363 . S
C2930 C2931 1.370 . S
C2930 C2934 1.524 . S
C2931 C2923 1.503 . S
C2931 C2930 1.370 . S
C2931 C2932 1.403 . S
C2932 C2931 1.403 . S
C2932 C2933 1.404 . S
C2932 C2935 1.539 . S
C2933 C2929 1.408 . S
C2933 C2932 1.404 . S
C2933 H2945 0.930 . S
C2934 C2930 1.524 . S
C2934 H2946 0.956 . S
C2934 H2947 0.961 . S
C2934 H2948 0.961 . S
C2935 C2932 1.539 . S
C2935 H2949 0.958 . S
C2935 H2950 0.961 . S
C2935 H2951 0.960 . S
H2936 C2920 0.931 . S
H2937 C2925 0.929 . S
H2938 C2926 0.960 . S
H2939 C2926 0.962 . S
H2940 C2926 0.960 . S
H2941 C2927 0.961 . S
H2942 C2927 0.961 . S
H2943 C2927 0.961 . S
H2944 C2928 0.931 . S
H2945 C2933 0.930 . S
H2946 C2934 0.956 . S
H2947 C2934 0.961 . S
H2948 C2934 0.961 . S
H2949 C2935 0.958 . S
H2950 C2935 0.961 . S
H2951 C2935 0.960 . S
C2952 C2953 1.391 . S
C2952 C2954 1.394 . S
C2952 H2968 0.931 . S
C2953 C2952 1.391 . S
C2953 C2957 1.376 . S
C2954 C2952 1.394 . S
C2954 C2955 1.369 . S
C2954 C2958 1.531 . S
C2955 C2954 1.369 . S
C2955 C2956 1.410 . S
C2955 C2963 1.503 . S
C2956 C2955 1.410 . S
C2956 C2957 1.392 . S
C2956 C2959 1.511 . S
C2957 C2953 1.376 . S
C2957 C2956 1.392 . S
C2957 H2969 0.929 . S
C2958 C2954 1.531 . S
C2958 H2970 0.960 . S
C2958 H2971 0.962 . S
C2958 H2972 0.960 . S
C2959 C2956 1.511 . S
C2959 H2973 0.961 . S
C2959 H2974 0.961 . S
C2959 H2975 0.961 . S
C2960 C2961 1.370 . S
C2960 C2962 1.363 . S
C2960 H2976 0.931 . S
C2961 C2960 1.370 . S
C2961 C2965 1.408 . S
C2962 C2960 1.363 . S
C2962 C2963 1.370 . S
C2962 C2966 1.524 . S
C2963 C2955 1.503 . S
C2963 C2962 1.370 . S
C2963 C2964 1.403 . S
C2964 C2963 1.403 . S
C2964 C2965 1.404 . S
C2964 C2967 1.539 . S
C2965 C2961 1.408 . S
C2965 C2964 1.404 . S
C2965 H2977 0.930 . S
C2966 C2962 1.524 . S
C2966 H2978 0.956 . S
C2966 H2979 0.961 . S
C2966 H2980 0.961 . S
C2967 C2964 1.539 . S
C2967 H2981 0.958 . S
C2967 H2982 0.961 . S
C2967 H2983 0.960 . S
H2968 C2952 0.931 . S
H2969 C2957 0.929 . S
H2970 C2958 0.960 . S
H2971 C2958 0.962 . S
H2972 C2958 0.960 . S
H2973 C2959 0.961 . S
H2974 C2959 0.961 . S
H2975 C2959 0.961 . S
H2976 C2960 0.931 . S
H2977 C2965 0.930 . S
H2978 C2966 0.956 . S
H2979 C2966 0.961 . S
H2980 C2966 0.961 . S
H2981 C2967 0.958 . S
H2982 C2967 0.961 . S
H2983 C2967 0.960 . S
C2984 C2985 1.391 1_545 S
C2984 C2986 1.394 . S
C2984 H3000 0.931 . S
C2985 C2984 1.391 1_565 S
C2985 C2989 1.376 . S
C2986 C2984 1.394 . S
C2986 C2987 1.369 . S
C2986 C2990 1.531 . S
C2987 C2986 1.369 . S
C2987 C2988 1.410 1_545 S
C2987 C2995 1.503 . S
C2988 C2987 1.410 1_565 S
C2988 C2989 1.392 . S
C2988 C2991 1.511 . S
C2989 C2985 1.376 . S
C2989 C2988 1.392 . S
C2989 H3001 0.929 . S
C2990 C2986 1.531 . S
C2990 H3002 0.960 . S
C2990 H3003 0.962 . S
C2990 H3004 0.960 . S
C2991 C2988 1.511 . S
C2991 H3005 0.961 . S
C2991 H3006 0.961 1_565 S
C2991 H3007 0.961 . S
C2992 C2993 1.370 . S
C2992 C2994 1.363 . S
C2992 H3008 0.931 . S
C2993 C2992 1.370 . S
C2993 C2997 1.408 . S
C2994 C2992 1.363 . S
C2994 C2995 1.370 . S
C2994 C2998 1.524 . S
C2995 C2987 1.503 . S
C2995 C2994 1.370 . S
C2995 C2996 1.403 . S
C2996 C2995 1.403 . S
C2996 C2997 1.404 . S
C2996 C2999 1.539 . S
C2997 C2993 1.408 . S
C2997 C2996 1.404 . S
C2997 H3009 0.930 . S
C2998 C2994 1.524 . S
C2998 H3010 0.956 . S
C2998 H3011 0.961 . S
C2998 H3012 0.961 . S
C2999 C2996 1.539 . S
C2999 H3013 0.958 . S
C2999 H3014 0.961 . S
C2999 H3015 0.960 . S
H3000 C2984 0.931 . S
H3001 C2989 0.929 . S
H3002 C2990 0.960 . S
H3003 C2990 0.962 . S
H3004 C2990 0.960 . S
H3005 C2991 0.961 . S
H3006 C2991 0.961 1_545 S
H3007 C2991 0.961 . S
H3008 C2992 0.931 . S
H3009 C2997 0.930 . S
H3010 C2998 0.956 . S
H3011 C2998 0.961 . S
H3012 C2998 0.961 . S
H3013 C2999 0.958 . S
H3014 C2999 0.961 . S
H3015 C2999 0.960 . S
C3016 C3017 1.391 . S
C3016 C3018 1.394 . S
C3016 H3032 0.931 . S
C3017 C3016 1.391 . S
C3017 C3021 1.376 . S
C3018 C3016 1.394 . S
C3018 C3019 1.369 . S
C3018 C3022 1.531 . S
C3019 C3018 1.369 . S
C3019 C3020 1.410 . S
C3019 C3027 1.503 1_655 S
C3020 C3019 1.410 . S
C3020 C3021 1.392 . S
C3020 C3023 1.511 . S
C3021 C3017 1.376 . S
C3021 C3020 1.392 . S
C3021 H3033 0.929 . S
C3022 C3018 1.531 . S
C3022 H3034 0.960 . S
C3022 H3035 0.962 . S
C3022 H3036 0.960 . S
C3023 C3020 1.511 . S
C3023 H3037 0.961 . S
C3023 H3038 0.961 . S
C3023 H3039 0.961 1_655 S
C3024 C3025 1.370 . S
C3024 C3026 1.363 . S
C3024 H3040 0.931 . S
C3025 C3024 1.370 . S
C3025 C3029 1.408 . S
C3026 C3024 1.363 . S
C3026 C3027 1.370 . S
C3026 C3030 1.524 1_455 S
C3027 C3019 1.503 1_455 S
C3027 C3026 1.370 . S
C3027 C3028 1.403 . S
C3028 C3027 1.403 . S
C3028 C3029 1.404 . S
C3028 C3031 1.539 . S
C3029 C3025 1.408 . S
C3029 C3028 1.404 . S
C3029 H3041 0.930 . S
C3030 C3026 1.524 1_655 S
C3030 H3042 0.956 . S
C3030 H3043 0.961 . S
C3030 H3044 0.961 . S
C3031 C3028 1.539 . S
C3031 H3045 0.958 . S
C3031 H3046 0.961 . S
C3031 H3047 0.960 . S
H3032 C3016 0.931 . S
H3033 C3021 0.929 . S
H3034 C3022 0.960 . S
H3035 C3022 0.962 . S
H3036 C3022 0.960 . S
H3037 C3023 0.961 . S
H3038 C3023 0.961 . S
H3039 C3023 0.961 1_455 S
H3040 C3024 0.931 . S
H3041 C3029 0.930 . S
H3042 C3030 0.956 . S
H3043 C3030 0.961 . S
H3044 C3030 0.961 . S
H3045 C3031 0.958 . S
H3046 C3031 0.961 . S
H3047 C3031 0.960 . S
C3048 C3049 1.391 . S
C3048 C3050 1.394 . S
C3048 H3064 0.931 . S
C3049 C3048 1.391 . S
C3049 C3053 1.376 . S
C3050 C3048 1.394 . S
C3050 C3051 1.369 . S
C3050 C3054 1.531 . S
C3051 C3050 1.369 . S
C3051 C3052 1.410 . S
C3051 C3059 1.503 . S
C3052 C3051 1.410 . S
C3052 C3053 1.392 . S
C3052 C3055 1.511 . S
C3053 C3049 1.376 . S
C3053 C3052 1.392 . S
C3053 H3065 0.929 . S
C3054 C3050 1.531 . S
C3054 H3066 0.960 . S
C3054 H3067 0.962 . S
C3054 H3068 0.960 . S
C3055 C3052 1.511 . S
C3055 H3069 0.961 . S
C3055 H3070 0.961 . S
C3055 H3071 0.961 . S
C3056 C3057 1.370 . S
C3056 C3058 1.363 . S
C3056 H3072 0.931 . S
C3057 C3056 1.370 . S
C3057 C3061 1.408 . S
C3058 C3056 1.363 . S
C3058 C3059 1.370 . S
C3058 C3062 1.524 . S
C3059 C3051 1.503 . S
C3059 C3058 1.370 . S
C3059 C3060 1.403 . S
C3060 C3059 1.403 . S
C3060 C3061 1.404 . S
C3060 C3063 1.539 . S
C3061 C3057 1.408 . S
C3061 C3060 1.404 . S
C3061 H3073 0.930 . S
C3062 C3058 1.524 . S
C3062 H3074 0.956 . S
C3062 H3075 0.961 . S
C3062 H3076 0.961 . S
C3063 C3060 1.539 . S
C3063 H3077 0.958 . S
C3063 H3078 0.961 . S
C3063 H3079 0.960 . S
H3064 C3048 0.931 . S
H3065 C3053 0.929 . S
H3066 C3054 0.960 . S
H3067 C3054 0.962 . S
H3068 C3054 0.960 . S
H3069 C3055 0.961 . S
H3070 C3055 0.961 . S
H3071 C3055 0.961 . S
H3072 C3056 0.931 . S
H3073 C3061 0.930 . S
H3074 C3062 0.956 . S
H3075 C3062 0.961 . S
H3076 C3062 0.961 . S
H3077 C3063 0.958 . S
H3078 C3063 0.961 . S
H3079 C3063 0.960 . S
C3080 C3081 1.391 . S
C3080 C3082 1.394 . S
C3080 H3096 0.931 . S
C3081 C3080 1.391 . S
C3081 C3085 1.376 . S
C3082 C3080 1.394 . S
C3082 C3083 1.369 . S
C3082 C3086 1.531 . S
C3083 C3082 1.369 . S
C3083 C3084 1.410 . S
C3083 C3091 1.503 1_545 S
C3084 C3083 1.410 . S
C3084 C3085 1.392 . S
C3084 C3087 1.511 1_545 S
C3085 C3081 1.376 . S
C3085 C3084 1.392 . S
C3085 H3097 0.929 . S
C3086 C3082 1.531 . S
C3086 H3098 0.960 . S
C3086 H3099 0.962 . S
C3086 H3100 0.960 . S
C3087 C3084 1.511 1_565 S
C3087 H3101 0.961 . S
C3087 H3102 0.961 . S
C3087 H3103 0.961 . S
C3088 C3089 1.370 . S
C3088 C3090 1.363 . S
C3088 H3104 0.931 . S
C3089 C3088 1.370 . S
C3089 C3093 1.408 . S
C3090 C3088 1.363 . S
C3090 C3091 1.370 . S
C3090 C3094 1.524 1_565 S
C3091 C3083 1.503 1_565 S
C3091 C3090 1.370 . S
C3091 C3092 1.403 . S
C3092 C3091 1.403 . S
C3092 C3093 1.404 . S
C3092 C3095 1.539 . S
C3093 C3089 1.408 . S
C3093 C3092 1.404 . S
C3093 H3105 0.930 . S
C3094 C3090 1.524 1_545 S
C3094 H3106 0.956 . S
C3094 H3107 0.961 . S
C3094 H3108 0.961 1_545 S
C3095 C3092 1.539 . S
C3095 H3109 0.958 . S
C3095 H3110 0.961 . S
C3095 H3111 0.960 . S
H3096 C3080 0.931 . S
H3097 C3085 0.929 . S
H3098 C3086 0.960 . S
H3099 C3086 0.962 . S
H3100 C3086 0.960 . S
H3101 C3087 0.961 . S
H3102 C3087 0.961 . S
H3103 C3087 0.961 . S
H3104 C3088 0.931 . S
H3105 C3093 0.930 . S
H3106 C3094 0.956 . S
H3107 C3094 0.961 . S
H3108 C3094 0.961 1_565 S
H3109 C3095 0.958 . S
H3110 C3095 0.961 . S
H3111 C3095 0.960 . S
C3112 C3113 1.391 . S
C3112 C3114 1.394 . S
C3112 H3128 0.931 . S
C3113 C3112 1.391 . S
C3113 C3117 1.376 . S
C3114 C3112 1.394 . S
C3114 C3115 1.369 . S
C3114 C3118 1.531 . S
C3115 C3114 1.369 . S
C3115 C3116 1.410 . S
C3115 C3123 1.503 . S
C3116 C3115 1.410 . S
C3116 C3117 1.392 . S
C3116 C3119 1.511 . S
C3117 C3113 1.376 . S
C3117 C3116 1.392 . S
C3117 H3129 0.929 . S
C3118 C3114 1.531 . S
C3118 H3130 0.960 . S
C3118 H3131 0.962 . S
C3118 H3132 0.960 . S
C3119 C3116 1.511 . S
C3119 H3133 0.961 . S
C3119 H3134 0.961 . S
C3119 H3135 0.961 . S
C3120 C3121 1.370 . S
C3120 C3122 1.363 1_655 S
C3120 H3136 0.931 . S
C3121 C3120 1.370 . S
C3121 C3125 1.408 . S
C3122 C3120 1.363 1_455 S
C3122 C3123 1.370 . S
C3122 C3126 1.524 . S
C3123 C3115 1.503 . S
C3123 C3122 1.370 . S
C3123 C3124 1.402 1_455 S
C3124 C3123 1.402 1_655 S
C3124 C3125 1.404 . S
C3124 C3127 1.539 1_655 S
C3125 C3121 1.408 . S
C3125 C3124 1.404 . S
C3125 H3137 0.930 . S
C3126 C3122 1.524 . S
C3126 H3138 0.956 . S
C3126 H3139 0.961 . S
C3126 H3140 0.961 . S
C3127 C3124 1.539 1_455 S
C3127 H3141 0.958 1_455 S
C3127 H3142 0.961 1_455 S
C3127 H3143 0.960 . S
H3128 C3112 0.931 . S
H3129 C3117 0.929 . S
H3130 C3118 0.960 . S
H3131 C3118 0.962 . S
H3132 C3118 0.960 . S
H3133 C3119 0.961 . S
H3134 C3119 0.961 . S
H3135 C3119 0.961 . S
H3136 C3120 0.931 . S
H3137 C3125 0.930 . S
H3138 C3126 0.956 . S
H3139 C3126 0.961 . S
H3140 C3126 0.961 . S
H3141 C3127 0.958 1_655 S
H3142 C3127 0.961 1_655 S
H3143 C3127 0.960 . S
C3144 C3145 1.391 . S
C3144 C3146 1.394 . S
C3144 H3160 0.931 . S
C3145 C3144 1.391 . S
C3145 C3149 1.376 . S
C3146 C3144 1.394 . S
C3146 C3147 1.369 . S
C3146 C3150 1.531 . S
C3147 C3146 1.369 . S
C3147 C3148 1.410 . S
C3147 C3155 1.503 . S
C3148 C3147 1.410 . S
C3148 C3149 1.392 . S
C3148 C3151 1.511 . S
C3149 C3145 1.376 . S
C3149 C3148 1.392 . S
C3149 H3161 0.929 . S
C3150 C3146 1.531 . S
C3150 H3162 0.960 . S
C3150 H3163 0.962 . S
C3150 H3164 0.960 . S
C3151 C3148 1.511 . S
C3151 H3165 0.961 . S
C3151 H3166 0.961 . S
C3151 H3167 0.961 . S
C3152 C3153 1.370 . S
C3152 C3154 1.363 . S
C3152 H3168 0.931 . S
C3153 C3152 1.370 . S
C3153 C3157 1.408 . S
C3154 C3152 1.363 . S
C3154 C3155 1.370 . S
C3154 C3158 1.524 . S
C3155 C3147 1.503 . S
C3155 C3154 1.370 . S
C3155 C3156 1.403 . S
C3156 C3155 1.403 . S
C3156 C3157 1.404 . S
C3156 C3159 1.539 . S
C3157 C3153 1.408 . S
C3157 C3156 1.404 . S
C3157 H3169 0.930 . S
C3158 C3154 1.524 . S
C3158 H3170 0.956 . S
C3158 H3171 0.961 . S
C3158 H3172 0.961 . S
C3159 C3156 1.539 . S
C3159 H3173 0.958 . S
C3159 H3174 0.961 . S
C3159 H3175 0.960 . S
H3160 C3144 0.931 . S
H3161 C3149 0.929 . S
H3162 C3150 0.960 . S
H3163 C3150 0.962 . S
H3164 C3150 0.960 . S
H3165 C3151 0.961 . S
H3166 C3151 0.961 . S
H3167 C3151 0.961 . S
H3168 C3152 0.931 . S
H3169 C3157 0.930 . S
H3170 C3158 0.956 . S
H3171 C3158 0.961 . S
H3172 C3158 0.961 . S
H3173 C3159 0.958 . S
H3174 C3159 0.961 . S
H3175 C3159 0.960 . S
C3176 C3177 1.391 . S
C3176 C3178 1.394 . S
C3176 H3192 0.931 . S
C3177 C3176 1.391 . S
C3177 C3181 1.376 . S
C3178 C3176 1.394 . S
C3178 C3179 1.369 . S
C3178 C3182 1.531 . S
C3179 C3178 1.369 . S
C3179 C3180 1.410 . S
C3179 C3187 1.503 . S
C3180 C3179 1.410 . S
C3180 C3181 1.392 . S
C3180 C3183 1.511 . S
C3181 C3177 1.376 . S
C3181 C3180 1.392 . S
C3181 H3193 0.929 . S
C3182 C3178 1.531 . S
C3182 H3194 0.960 . S
C3182 H3195 0.962 . S
C3182 H3196 0.960 . S
C3183 C3180 1.511 . S
C3183 H3197 0.961 . S
C3183 H3198 0.961 . S
C3183 H3199 0.961 . S
C3184 C3185 1.370 . S
C3184 C3186 1.363 . S
C3184 H3200 0.931 . S
C3185 C3184 1.370 . S
C3185 C3189 1.408 . S
C3186 C3184 1.363 . S
C3186 C3187 1.370 . S
C3186 C3190 1.524 . S
C3187 C3179 1.503 . S
C3187 C3186 1.370 . S
C3187 C3188 1.403 . S
C3188 C3187 1.403 . S
C3188 C3189 1.404 . S
C3188 C3191 1.539 . S
C3189 C3185 1.408 . S
C3189 C3188 1.404 . S
C3189 H3201 0.930 . S
C3190 C3186 1.524 . S
C3190 H3202 0.956 . S
C3190 H3203 0.961 . S
C3190 H3204 0.961 . S
C3191 C3188 1.539 . S
C3191 H3205 0.958 . S
C3191 H3206 0.961 . S
C3191 H3207 0.960 . S
H3192 C3176 0.931 . S
H3193 C3181 0.929 . S
H3194 C3182 0.960 . S
H3195 C3182 0.962 . S
H3196 C3182 0.960 . S
H3197 C3183 0.961 . S
H3198 C3183 0.961 . S
H3199 C3183 0.961 . S
H3200 C3184 0.931 . S
H3201 C3189 0.930 . S
H3202 C3190 0.956 . S
H3203 C3190 0.961 . S
H3204 C3190 0.961 . S
H3205 C3191 0.958 . S
H3206 C3191 0.961 . S
H3207 C3191 0.960 . S
C3208 C3209 1.391 . S
C3208 C3210 1.394 . S
C3208 H3224 0.931 . S
C3209 C3208 1.391 . S
C3209 C3213 1.376 . S
C3210 C3208 1.394 . S
C3210 C3211 1.369 . S
C3210 C3214 1.531 . S
C3211 C3210 1.369 . S
C3211 C3212 1.410 . S
C3211 C3219 1.503 . S
C3212 C3211 1.410 . S
C3212 C3213 1.392 . S
C3212 C3215 1.511 . S
C3213 C3209 1.376 . S
C3213 C3212 1.392 . S
C3213 H3225 0.929 . S
C3214 C3210 1.531 . S
C3214 H3226 0.960 . S
C3214 H3227 0.962 . S
C3214 H3228 0.960 . S
C3215 C3212 1.511 . S
C3215 H3229 0.961 . S
C3215 H3230 0.961 . S
C3215 H3231 0.961 . S
C3216 C3217 1.370 . S
C3216 C3218 1.363 . S
C3216 H3232 0.931 . S
C3217 C3216 1.370 . S
C3217 C3221 1.408 . S
C3218 C3216 1.363 . S
C3218 C3219 1.370 . S
C3218 C3222 1.524 . S
C3219 C3211 1.503 . S
C3219 C3218 1.370 . S
C3219 C3220 1.403 . S
C3220 C3219 1.403 . S
C3220 C3221 1.404 . S
C3220 C3223 1.539 . S
C3221 C3217 1.408 . S
C3221 C3220 1.404 . S
C3221 H3233 0.930 . S
C3222 C3218 1.524 . S
C3222 H3234 0.956 . S
C3222 H3235 0.961 . S
C3222 H3236 0.961 . S
C3223 C3220 1.539 . S
C3223 H3237 0.958 . S
C3223 H3238 0.961 . S
C3223 H3239 0.960 . S
H3224 C3208 0.931 . S
H3225 C3213 0.929 . S
H3226 C3214 0.960 . S
H3227 C3214 0.962 . S
H3228 C3214 0.960 . S
H3229 C3215 0.961 . S
H3230 C3215 0.961 . S
H3231 C3215 0.961 . S
H3232 C3216 0.931 . S
H3233 C3221 0.930 . S
H3234 C3222 0.956 . S
H3235 C3222 0.961 . S
H3236 C3222 0.961 . S
H3237 C3223 0.958 . S
H3238 C3223 0.961 . S
H3239 C3223 0.960 . S
C1513 C67 0.987 . S
C1521 C226 0.860 . S
C1545 C58 0.839 . S
C1553 C151 0.977 . S
C1577 C142 0.931 . S
C1585 C235 0.968 . S
C1609 C319 0.983 . S
C1617 C394 0.874 . S
C1641 C478 0.919 . S
C1649 C403 0.969 . S
C1673 C487 0.951 . S
C1681 C310 0.919 . S
C1705 C730 0.973 . S
C1713 C571 0.962 . S
C1737 C562 0.954 . S
C1745 C655 0.965 . S
C1769 C739 0.964 . S
C1777 C646 0.895 . S
C1801 C898 0.811 . S
C1809 C823 0.979 . S
C1833 C907 0.951 . S
C1841 C982 0.924 . S
C1865 C814 0.807 . S
C1873 C991 0.979 . S
C1897 C1075 0.988 . S
C1905 C1234 0.863 . S
C1929 C1066 0.968 . S
C1937 C1159 0.963 . S
C1961 C1150 0.842 . S
C1969 C1243 0.977 . S
C1993 C1402 0.818 . S
C2001 C1327 0.979 . S
C2025 C1486 0.815 . S
C2033 C1411 0.978 . S
C2057 C1318 0.805 . S
C2065 C1495 0.980 . S
C2089 C74 1.848 . S
C2097 C494 1.890 . S
C2121 C326 1.891 . S
C2129 C158 1.895 . S
C2153 C410 1.868 . S
C2161 C242 1.898 . S
C2185 C578 1.848 . S
C2193 C998 1.887 . S
C2217 C662 1.853 . S
C2225 C830 1.895 . S
C2249 C914 1.897 . S
C2257 C746 1.871 . S
C2281 C1082 1.848 . S
C2289 C1502 1.890 . S
C2313 C1334 1.859 . S
C2321 C1166 1.877 . S
C2345 C1418 1.883 . S
C2353 C1250 1.871 . S
C2377 C903 2.092 . S
C2385 C63 2.094 . S
C2409 C147 2.077 . S
C2417 C987 2.095 . S
C2441 C819 2.089 . S
C2449 C231 2.082 . S
C2473 C315 2.076 . S
C2481 C1239 2.082 . S
C2505 C399 2.082 . S
C2513 C1071 2.082 . S
C2537 C1155 2.079 . S
C2545 C483 2.095 . S
C2569 C1407 2.100 . S
C2577 C567 2.088 . S
C2601 C651 2.072 . S
C2609 C1491 2.084 . S
C2633 C735 2.081 . S
C2641 C1323 2.095 . S
C2665 C237 1.560 . S
C2673 C56 1.702 . S
C2697 C69 1.473 . S
C2705 C140 1.714 . S
C2729 C224 1.708 . S
C2737 C153 1.510 . S
C2761 C405 1.551 . S
C2769 C308 1.703 . S
C2793 C489 1.548 . S
C2801 C392 1.707 . S
C2825 C476 1.699 . S
C2833 C321 1.539 . S
C2857 C741 1.561 . S
C2865 C560 1.705 . S
C2889 C644 1.694 . S
C2897 C573 1.543 . S
C2921 C657 1.568 . S
C2929 C728 1.703 . S
C2953 C812 1.709 . S
C2961 C909 1.532 . S
C2985 C896 1.716 . S
C2993 C993 1.504 . S
C3017 C825 1.536 . S
C3025 C980 1.704 . S
C3049 C1064 1.711 . S
C3057 C1245 1.530 . S
C3081 C1148 1.704 . S
C3089 C1077 1.533 . S
C3113 C1161 1.486 . S
C3121 C1232 1.710 . S
C3145 C1316 1.712 . S
C3153 C1413 1.521 . S
C3177 C1400 1.695 . S
C3185 C1497 1.542 . S
C3209 C1329 1.562 . S
C3217 C1484 1.702 . S
