# Generated by pormake.
# Topology umo, (4)-cn, num edge types: 1
# Building blocks:
#     Node 0, Type 0, BuildingBlock: KUFVIS_clean_sbu_0, # of connection points: 4
#     Node 1, Type 0, BuildingBlock: KUFVIS_clean_sbu_0, # of connection points: 4
#     Node 2, Type 0, BuildingBlock: KUFVIS_clean_sbu_0, # of connection points: 4
#     Node 3, Type 0, BuildingBlock: KUFVIS_clean_sbu_0, # of connection points: 4
#     Node 4, Type 0, BuildingBlock: KUFVIS_clean_sbu_0, # of connection points: 4
#     Node 5, Type 0, BuildingBlock: KUFVIS_clean_sbu_0, # of connection points: 4
#     Node 6, Type 0, BuildingBlock: KUFVIS_clean_sbu_0, # of connection points: 4
#     Node 7, Type 0, BuildingBlock: KUFVIS_clean_sbu_0, # of connection points: 4
#     Node 8, Type 0, BuildingBlock: KUFVIS_clean_sbu_0, # of connection points: 4
#     Node 9, Type 0, BuildingBlock: KUFVIS_clean_sbu_0, # of connection points: 4
#     Node 10, Type 0, BuildingBlock: KUFVIS_clean_sbu_0, # of connection points: 4
#     Node 11, Type 0, BuildingBlock: KUFVIS_clean_sbu_0, # of connection points: 4
#     Edge 12, Type (0, 0), BuildingBlock: XUDNAN_clean_linker_2, # of connection points: 2
#     Edge 13, Type (0, 0), BuildingBlock: XUDNAN_clean_linker_2, # of connection points: 2
#     Edge 14, Type (0, 0), BuildingBlock: XUDNAN_clean_linker_2, # of connection points: 2
#     Edge 15, Type (0, 0), BuildingBlock: XUDNAN_clean_linker_2, # of connection points: 2
#     Edge 16, Type (0, 0), BuildingBlock: XUDNAN_clean_linker_2, # of connection points: 2
#     Edge 17, Type (0, 0), BuildingBlock: XUDNAN_clean_linker_2, # of connection points: 2
#     Edge 18, Type (0, 0), BuildingBlock: XUDNAN_clean_linker_2, # of connection points: 2
#     Edge 19, Type (0, 0), BuildingBlock: XUDNAN_clean_linker_2, # of connection points: 2
#     Edge 20, Type (0, 0), BuildingBlock: XUDNAN_clean_linker_2, # of connection points: 2
#     Edge 21, Type (0, 0), BuildingBlock: XUDNAN_clean_linker_2, # of connection points: 2
#     Edge 22, Type (0, 0), BuildingBlock: XUDNAN_clean_linker_2, # of connection points: 2
#     Edge 23, Type (0, 0), BuildingBlock: XUDNAN_clean_linker_2, # of connection points: 2
#     Edge 24, Type (0, 0), BuildingBlock: XUDNAN_clean_linker_2, # of connection points: 2
#     Edge 25, Type (0, 0), BuildingBlock: XUDNAN_clean_linker_2, # of connection points: 2
#     Edge 26, Type (0, 0), BuildingBlock: XUDNAN_clean_linker_2, # of connection points: 2
#     Edge 27, Type (0, 0), BuildingBlock: XUDNAN_clean_linker_2, # of connection points: 2
#     Edge 28, Type (0, 0), BuildingBlock: XUDNAN_clean_linker_2, # of connection points: 2
#     Edge 29, Type (0, 0), BuildingBlock: XUDNAN_clean_linker_2, # of connection points: 2
#     Edge 30, Type (0, 0), BuildingBlock: XUDNAN_clean_linker_2, # of connection points: 2
#     Edge 31, Type (0, 0), BuildingBlock: XUDNAN_clean_linker_2, # of connection points: 2
#     Edge 32, Type (0, 0), BuildingBlock: XUDNAN_clean_linker_2, # of connection points: 2
#     Edge 33, Type (0, 0), BuildingBlock: XUDNAN_clean_linker_2, # of connection points: 2
#     Edge 34, Type (0, 0), BuildingBlock: XUDNAN_clean_linker_2, # of connection points: 2
#     Edge 35, Type (0, 0), BuildingBlock: XUDNAN_clean_linker_2, # of connection points: 2
# Relax obj value: 0.193
# Max RMSD: 0.246
# Mean RMSD: 0.246
data_MOF--net-umo--node1-KUFVIS_clean_sbu_0--edge1-XUDNAN_clean_linker_2
_symmetry_space_group_name_H-M    P1
_symmetry_Int_Tables_number       1
_symmetry_cell_setting            triclinic
loop_
_symmetry_equiv_pos_as_xyz
'x, y, z'
_cell_length_a     46.929869
_cell_length_b     46.900771
_cell_length_c     38.304827
_cell_angle_alpha  90.019783
_cell_angle_beta   89.960516
_cell_angle_gamma 119.91251
loop_
_atom_site_label
_atom_site_type_symbol
_atom_site_fract_x
_atom_site_fract_y
_atom_site_fract_z
_atom_type_partial_charge
Mn0 Mn 0.18423 0.57361 0.39447 0.0
Mn1 Mn 0.15082 0.62305 0.39682 0.0
C2 C 0.21719 0.62846 0.40534 0.0
C3 C 0.20433 0.54777 0.35705 0.0
C4 C 0.15106 0.58374 0.4594 0.0
O5 O 0.13793 0.54364 0.37734 0.0
O6 O 0.1193 0.57927 0.37777 0.0
C7 C 0.14976 0.62866 0.31995 0.0
N8 N 0.15965 0.64326 0.35179 0.0
C9 C 0.19054 0.69683 0.32555 0.0
C10 C 0.18053 0.68239 0.29248 0.0
C11 C 0.16009 0.64815 0.28968 0.0
C12 C 0.17973 0.67611 0.35474 0.0
H13 H 0.13425 0.60233 0.31766 0.0
C14 C 0.11545 0.55069 0.37232 0.0
O15 O 0.1947 0.53688 0.38863 0.0
O16 O 0.20204 0.57298 0.34773 0.0
N17 N 0.17731 0.66667 0.41456 0.0
C18 C 0.1803 0.67703 0.4483 0.0
C19 C 0.19886 0.71079 0.45583 0.0
C20 C 0.21302 0.73361 0.4285 0.0
C21 C 0.2074 0.72251 0.39384 0.0
C22 C 0.18867 0.68857 0.388 0.0
H23 H 0.16907 0.65955 0.46933 0.0
O24 O 0.22822 0.60837 0.41 0.0
O25 O 0.18836 0.61644 0.39094 0.0
O26 O 0.16636 0.57012 0.44528 0.0
O27 O 0.14348 0.60313 0.44349 0.0
C28 C 0.2188 0.74383 0.36486 0.0
C29 C 0.21059 0.73097 0.33072 0.0
H30 H 0.18832 0.69736 0.26909 0.0
H31 H 0.15234 0.63681 0.26425 0.0
H32 H 0.20225 0.71919 0.48262 0.0
H33 H 0.22741 0.75962 0.43438 0.0
H34 H 0.23356 0.77018 0.36854 0.0
H35 H 0.21938 0.74762 0.30864 0.0
Mn36 Mn 0.62661 0.1693 0.57868 0.0
Mn37 Mn 0.54477 0.12025 0.57237 0.0
C38 C 0.59376 0.19259 0.57641 0.0
C39 C 0.67475 0.19367 0.54436 0.0
C40 C 0.58262 0.13245 0.64038 0.0
O41 O 0.62053 0.12413 0.56903 0.0
O42 O 0.56753 0.09789 0.55204 0.0
C43 C 0.53844 0.11938 0.49541 0.0
N44 N 0.53024 0.12562 0.52748 0.0
C45 C 0.49618 0.14501 0.5019 0.0
C46 C 0.50394 0.13836 0.46864 0.0
C47 C 0.52522 0.12555 0.46539 0.0
C48 C 0.50997 0.13819 0.53088 0.0
H49 H 0.55514 0.11 0.49276 0.0
C50 C 0.59574 0.10003 0.55489 0.0
O51 O 0.67628 0.18928 0.57775 0.0
O52 O 0.64605 0.18422 0.5316 0.0
N53 N 0.51981 0.13917 0.59055 0.0
C54 C 0.51444 0.14396 0.62449 0.0
C55 C 0.49384 0.15686 0.6322 0.0
C56 C 0.47865 0.16439 0.605 0.0
C57 C 0.48373 0.15837 0.57035 0.0
C58 C 0.50418 0.14505 0.56428 0.0
H59 H 0.52576 0.13807 0.64561 0.0
O60 O 0.62442 0.21033 0.58509 0.0
O61 O 0.58411 0.16263 0.56712 0.0
O62 O 0.61086 0.15565 0.62997 0.0
O63 O 0.55847 0.11523 0.61977 0.0
C64 C 0.46941 0.1652 0.5416 0.0
C65 C 0.47569 0.1586 0.50739 0.0
H66 H 0.49393 0.14326 0.44541 0.0
H67 H 0.53156 0.1206 0.4398 0.0
H68 H 0.48974 0.16105 0.65905 0.0
H69 H 0.46301 0.17463 0.61103 0.0
H70 H 0.45366 0.17569 0.54549 0.0
H71 H 0.46473 0.16418 0.48547 0.0
Mn72 Mn 0.4634 0.63726 0.73397 0.0
Mn73 Mn 0.41388 0.56175 0.76912 0.0
C74 C 0.40722 0.61482 0.72841 0.0
C75 C 0.4932 0.66951 0.68615 0.0
C76 C 0.4486 0.62433 0.81192 0.0
O77 O 0.49468 0.61978 0.74178 0.0
O78 O 0.45808 0.56849 0.75885 0.0
C79 C 0.40888 0.51861 0.71023 0.0
N80 N 0.39421 0.52747 0.7353 0.0
C81 C 0.34141 0.48011 0.72358 0.0
C82 C 0.35592 0.4704 0.69761 0.0
C83 C 0.38978 0.48979 0.69085 0.0
C84 C 0.36173 0.50885 0.74227 0.0
H85 H 0.43496 0.53329 0.70531 0.0
C86 C 0.4871 0.59051 0.74995 0.0
O87 O 0.49971 0.68113 0.71774 0.0
O88 O 0.47096 0.63889 0.68268 0.0
N89 N 0.36998 0.55064 0.78085 0.0
C90 C 0.35932 0.56588 0.80326 0.0
C91 C 0.32569 0.55085 0.81137 0.0
C92 C 0.30352 0.52016 0.79671 0.0
C93 C 0.31511 0.50497 0.77367 0.0
C94 C 0.34889 0.52103 0.76671 0.0
H95 H 0.37635 0.58927 0.81486 0.0
O96 O 0.42745 0.64608 0.72566 0.0
O97 O 0.42037 0.59633 0.73465 0.0
O98 O 0.46173 0.64517 0.78712 0.0
O99 O 0.43178 0.59346 0.80726 0.0
C100 C 0.29433 0.4753 0.7561 0.0
C101 C 0.30746 0.4629 0.73105 0.0
H102 H 0.34125 0.44832 0.68244 0.0
H103 H 0.40115 0.48247 0.67085 0.0
H104 H 0.31689 0.56284 0.82894 0.0
H105 H 0.27757 0.50881 0.80277 0.0
H106 H 0.26809 0.46231 0.76093 0.0
H107 H 0.29112 0.4405 0.71713 0.0
Mn108 Mn 0.80566 0.4352 0.91078 0.0
Mn109 Mn 0.8376 0.38575 0.92538 0.0
C110 C 0.77186 0.38035 0.92253 0.0
C111 C 0.78619 0.45637 0.86633 0.0
C112 C 0.8355 0.43106 0.98073 0.0
O113 O 0.85295 0.46316 0.89501 0.0
O114 O 0.87017 0.4264 0.90126 0.0
C115 C 0.84153 0.36966 0.85143 0.0
N116 N 0.83023 0.35961 0.88447 0.0
C117 C 0.80046 0.30292 0.86649 0.0
C118 C 0.812 0.31264 0.83233 0.0
C119 C 0.83259 0.34616 0.82477 0.0
C120 C 0.81023 0.32745 0.89197 0.0
H121 H 0.85712 0.39542 0.84543 0.0
C122 C 0.87461 0.45452 0.89185 0.0
O123 O 0.79495 0.47085 0.89663 0.0
O124 O 0.78988 0.4312 0.86206 0.0
N125 N 0.80855 0.34516 0.94831 0.0
C126 C 0.79998 0.33984 0.98269 0.0
C127 C 0.78008 0.30752 0.99475 0.0
C128 C 0.7693 0.28103 0.97139 0.0
C129 C 0.77868 0.28708 0.93622 0.0
C130 C 0.79913 0.31976 0.92587 0.0
H131 H 0.80835 0.36005 1.00083 0.0
O132 O 0.76075 0.4006 0.92527 0.0
O133 O 0.80182 0.39268 0.91178 0.0
O134 O 0.82042 0.44292 0.96301 0.0
O135 O 0.84423 0.41119 0.96845 0.0
C136 C 0.76866 0.26196 0.91106 0.0
C137 C 0.77941 0.26989 0.87618 0.0
H138 H 0.80508 0.2946 0.81167 0.0
H139 H 0.84145 0.35387 0.79843 0.0
H140 H 0.77309 0.30304 0.02199 0.0
H141 H 0.75401 0.25612 0.98078 0.0
H142 H 0.7526 0.23648 0.91824 0.0
H143 H 0.77137 0.25039 0.85702 0.0
Mn144 Mn 0.34754 0.8057 0.08159 0.0
Mn145 Mn 0.42888 0.85816 0.09338 0.0
C146 C 0.3816 0.78499 0.09405 0.0
C147 C 0.30559 0.77842 0.04043 0.0
C148 C 0.37806 0.84072 0.15047 0.0
O149 O 0.35337 0.84984 0.06666 0.0
O150 O 0.40856 0.87968 0.06693 0.0
C151 C 0.44657 0.86067 0.01876 0.0
N152 N 0.45092 0.85511 0.0527 0.0
C153 C 0.49016 0.83866 0.03633 0.0
C154 C 0.48656 0.84487 1.00128 0.0
C155 C 0.46455 0.85578 0.99245 0.0
C156 C 0.47137 0.84373 0.06136 0.0
H157 H 0.42918 0.86833 1.01179 0.0
C158 C 0.38025 0.87588 0.06002 0.0
O159 O 0.299 0.78448 0.07166 0.0
O160 O 0.33607 0.78849 0.03328 0.0
N161 N 0.45327 0.84193 0.11831 0.0
C162 C 0.45711 0.84128 0.15355 0.0
C163 C 0.47924 0.83212 0.16694 0.0
C164 C 0.49798 0.82471 0.14399 0.0
C165 C 0.4953 0.82775 0.10791 0.0
C166 C 0.47308 0.83736 0.09615 0.0
H167 H 0.44333 0.84756 0.17138 0.0
O168 O 0.34998 0.76604 0.09547 0.0
O169 O 0.39226 0.81458 0.08245 0.0
O170 O 0.35279 0.81955 0.13327 0.0
O171 O 0.40635 0.85958 0.13669 0.0
C172 C 0.51447 0.8225 0.08321 0.0
C173 C 0.51168 0.82766 0.0474 0.0
H174 H 0.50045 0.84119 0.98093 0.0
H175 H 0.46132 0.86027 0.96542 0.0
H176 H 0.48181 0.83077 0.19487 0.0
H177 H 0.51489 0.81746 0.15437 0.0
H178 H 0.53158 0.8147 0.0915 0.0
H179 H 0.52648 0.82347 0.02864 0.0
Mn180 Mn 0.5143 0.34457 0.24838 0.0
Mn181 Mn 0.56334 0.42671 0.25474 0.0
C182 C 0.56842 0.36543 0.26348 0.0
C183 C 0.49248 0.30191 0.2063 0.0
C184 C 0.51731 0.38481 0.31278 0.0
O185 O 0.48642 0.36272 0.22886 0.0
O186 O 0.52483 0.41605 0.22496 0.0
C187 C 0.58437 0.43713 0.18074 0.0
N188 N 0.59216 0.44063 0.21532 0.0
C189 C 0.64995 0.46721 0.20228 0.0
C190 C 0.64257 0.46431 0.16655 0.0
C191 C 0.60961 0.44902 0.15574 0.0
C192 C 0.62372 0.45439 0.22597 0.0
H193 H 0.55907 0.42513 0.1723 0.0
C194 C 0.49625 0.39186 0.21849 0.0
O195 O 0.47786 0.29805 0.2363 0.0
O196 O 0.51866 0.32979 0.20131 0.0
N197 N 0.60229 0.44194 0.28232 0.0
C198 C 0.60543 0.44573 0.31768 0.0
C199 C 0.63689 0.46135 0.33277 0.0
C200 C 0.66485 0.47388 0.31134 0.0
C201 C 0.66108 0.47138 0.27499 0.0
C202 C 0.62912 0.45558 0.26144 0.0
H203 H 0.58413 0.43695 0.3343 0.0
O204 O 0.54801 0.33419 0.26642 0.0
O205 O 0.55705 0.38281 0.24938 0.0
O206 O 0.50703 0.35616 0.29901 0.0
O207 O 0.53492 0.41216 0.29671 0.0
C208 C 0.68782 0.48486 0.25165 0.0
C209 C 0.68229 0.48254 0.21533 0.0
H210 H 0.662 0.47367 0.1472 0.0
H211 H 0.60368 0.44644 0.1282 0.0
H212 H 0.6396 0.46394 0.36082 0.0
H213 H 0.68909 0.48593 0.32305 0.0
H214 H 0.71273 0.49746 0.2614 0.0
H215 H 0.7031 0.4929 0.19767 0.0
Mn216 Mn 0.46901 0.82571 0.45878 0.0
Mn217 Mn 0.44018 0.87901 0.45171 0.0
C218 C 0.41397 0.80695 0.4656 0.0
C219 C 0.49268 0.80248 0.49451 0.0
C220 C 0.45197 0.84707 0.38907 0.0
O221 O 0.51094 0.87 0.45936 0.0
O222 O 0.48849 0.90244 0.45606 0.0
C223 C 0.45795 0.90447 0.52387 0.0
N224 N 0.43471 0.88943 0.49862 0.0
C225 C 0.39162 0.88211 0.53804 0.0
C226 C 0.41509 0.89759 0.56443 0.0
C227 C 0.4484 0.9088 0.55731 0.0
C228 C 0.40256 0.87821 0.50533 0.0
H229 H 0.48356 0.91299 0.51861 0.0
C230 C 0.51323 0.89812 0.45818 0.0
O231 O 0.49496 0.8022 0.46066 0.0
O232 O 0.47768 0.81698 0.50722 0.0
N233 N 0.39369 0.86079 0.44749 0.0
C234 C 0.37531 0.8519 0.41774 0.0
C235 C 0.34168 0.84169 0.41972 0.0
C236 C 0.32752 0.84163 0.45204 0.0
C237 C 0.34748 0.85331 0.4818 0.0
C238 C 0.3809 0.86343 0.47813 0.0
H239 H 0.38619 0.85227 0.39276 0.0
O240 O 0.42465 0.78657 0.46097 0.0
O241 O 0.43604 0.83786 0.46887 0.0
O242 O 0.46229 0.83012 0.40576 0.0
O243 O 0.44419 0.86691 0.4035 0.0
C244 C 0.3358 0.85647 0.51463 0.0
C245 C 0.35784 0.87071 0.5428 0.0
H246 H 0.40785 0.90114 0.59021 0.0
H247 H 0.46667 0.92076 0.57754 0.0
H248 H 0.3268 0.8342 0.39634 0.0
H249 H 0.30156 0.83369 0.45346 0.0
H250 H 0.31003 0.84859 0.51835 0.0
H251 H 0.34863 0.87332 0.56783 0.0
Mn252 Mn 0.61366 0.43439 0.62174 0.0
Mn253 Mn 0.5307 0.39345 0.61711 0.0
C254 C 0.58651 0.3798 0.60711 0.0
C255 C 0.65779 0.45284 0.66189 0.0
C256 C 0.57455 0.43572 0.55795 0.0
O257 O 0.60113 0.4664 0.64199 0.0
O258 O 0.54633 0.43405 0.64535 0.0
C259 C 0.51898 0.37505 0.69183 0.0
N260 N 0.51463 0.36605 0.65757 0.0
C261 C 0.48429 0.30865 0.67278 0.0
C262 C 0.48818 0.31732 0.70821 0.0
C263 C 0.50566 0.35067 0.71776 0.0
C264 C 0.49827 0.33402 0.64812 0.0
H265 H 0.53268 0.40063 0.69931 0.0
C266 C 0.57296 0.46085 0.65176 0.0
O267 O 0.6619 0.46718 0.63169 0.0
O268 O 0.62879 0.42864 0.66821 0.0
N269 N 0.51117 0.35326 0.59103 0.0
C270 C 0.50748 0.3491 0.55575 0.0
C271 C 0.49003 0.31718 0.54185 0.0
C272 C 0.47586 0.28991 0.56434 0.0
C273 C 0.47852 0.29487 0.60056 0.0
C274 C 0.496 0.32727 0.61289 0.0
H275 H 0.51795 0.36993 0.5383 0.0
O276 O 0.6181 0.3972 0.60314 0.0
O277 O 0.5723 0.3942 0.62216 0.0
O278 O 0.60268 0.44335 0.57147 0.0
O279 O 0.54703 0.42017 0.57418 0.0
C280 C 0.46416 0.26895 0.6249 0.0
C281 C 0.46718 0.27583 0.66099 0.0
H282 H 0.47792 0.29859 0.72829 0.0
H283 H 0.50893 0.35756 0.74505 0.0
H284 H 0.48754 0.31361 0.51388 0.0
H285 H 0.4626 0.26532 0.55353 0.0
H286 H 0.45074 0.24363 0.61614 0.0
H287 H 0.45616 0.25568 0.67946 0.0
Mn288 Mn 0.16719 0.61749 0.78595 0.0
Mn289 Mn 0.13399 0.54025 0.75243 0.0
C290 C 0.20184 0.59924 0.76727 0.0
C291 C 0.18281 0.6511 0.83571 0.0
C292 C 0.14304 0.59884 0.71042 0.0
O293 O 0.11927 0.59708 0.79853 0.0
O294 O 0.10079 0.54571 0.77908 0.0
C295 C 0.12188 0.50501 0.8197 0.0
N296 N 0.13468 0.51118 0.78685 0.0
C297 C 0.15156 0.47069 0.79271 0.0
C298 C 0.13834 0.46369 0.82654 0.0
C299 C 0.12354 0.48102 0.84013 0.0
C300 C 0.14907 0.49477 0.77356 0.0
H301 H 0.11047 0.51828 0.83018 0.0
C302 C 0.0966 0.56751 0.79449 0.0
O303 O 0.17575 0.6605 0.80664 0.0
O304 O 0.17992 0.62218 0.836 0.0
N305 N 0.16175 0.52952 0.72559 0.0
C306 C 0.17527 0.54079 0.6935 0.0
C307 C 0.1919 0.52675 0.67663 0.0
C308 C 0.19393 0.50085 0.69259 0.0
C309 C 0.17935 0.48926 0.72535 0.0
C310 C 0.16284 0.50403 0.74078 0.0
H311 H 0.17344 0.56036 0.68092 0.0
O312 O 0.2123 0.63014 0.77299 0.0
O313 O 0.1711 0.57873 0.77519 0.0
O314 O 0.15659 0.62109 0.73399 0.0
O315 O 0.133 0.56837 0.71525 0.0
C316 C 0.18146 0.4644 0.74382 0.0
C317 C 0.16766 0.45519 0.7775 0.0
H318 H 0.13968 0.4453 0.84243 0.0
H319 H 0.11343 0.47588 0.86627 0.0
H320 H 0.20311 0.53582 0.65137 0.0
H321 H 0.20709 0.49033 0.67966 0.0
H322 H 0.1942 0.45265 0.73262 0.0
H323 H 0.16993 0.43643 0.79167 0.0
Mn324 Mn 0.5075 0.16177 0.94962 0.0
Mn325 Mn 0.55182 0.12359 0.93729 0.0
C326 C 0.56246 0.19235 0.93813 0.0
C327 C 0.48754 0.18263 0.9939 0.0
C328 C 0.51305 0.13233 0.87927 0.0
O329 O 0.47565 0.115 0.96419 0.0
O330 O 0.5081 0.09294 0.95717 0.0
C331 C 0.56008 0.11666 1.01285 0.0
N332 N 0.57359 0.12784 0.98077 0.0
C333 C 0.62835 0.15345 1.00444 0.0
C334 C 0.61503 0.14205 0.03771 0.0
C335 C 0.58075 0.12364 0.04193 0.0
C336 C 0.60652 0.14609 0.97653 0.0
H337 H 0.53374 0.10271 0.01625 0.0
C338 C 0.48079 0.09092 0.96555 0.0
O339 O 0.4739 0.17558 0.96311 0.0
O340 O 0.51129 0.17682 0.9985 0.0
N341 N 0.59499 0.14899 0.91802 0.0
C342 C 0.60373 0.15363 0.88364 0.0
C343 C 0.63719 0.17006 0.87449 0.0
C344 C 0.66125 0.18061 0.90073 0.0
C345 C 0.65158 0.17347 0.93575 0.0
C346 C 0.61786 0.15676 0.9432 0.0
H347 H 0.58531 0.14517 0.86336 0.0
O348 O 0.54419 0.20576 0.93633 0.0
O349 O 0.54856 0.16219 0.94914 0.0
O350 O 0.50114 0.14768 0.89677 0.0
O351 O 0.53084 0.12132 0.89231 0.0
C352 C 0.67402 0.18131 0.96344 0.0
C353 C 0.66241 0.17159 0.99782 0.0
H354 H 0.63089 0.14722 0.06017 0.0
H355 H 0.57028 0.11485 0.06754 0.0
H356 H 0.64439 0.17465 0.84732 0.0
H357 H 0.68704 0.19344 0.89362 0.0
H358 H 0.70025 0.19456 0.95854 0.0
H359 H 0.6799 0.17773 0.01889 0.0
Mn360 Mn 0.38222 0.56327 0.13237 0.0
Mn361 Mn 0.46412 0.59728 0.11791 0.0
C362 C 0.41601 0.61862 0.14008 0.0
C363 C 0.33914 0.53652 0.17276 0.0
C364 C 0.41505 0.58329 0.05974 0.0
O365 O 0.38785 0.52329 0.12788 0.0
O366 O 0.44276 0.54894 0.12241 0.0
C367 C 0.47964 0.58139 0.18765 0.0
N368 N 0.48395 0.60414 0.163 0.0
C369 C 0.52004 0.64862 0.20078 0.0
C370 C 0.51606 0.62566 0.22652 0.0
C371 C 0.49577 0.59191 0.21992 0.0
C372 C 0.50315 0.63669 0.16923 0.0
H373 H 0.46391 0.55542 0.18281 0.0
C374 C 0.41465 0.52291 0.12505 0.0
O375 O 0.33323 0.53491 0.13941 0.0
O376 O 0.36959 0.55249 0.18219 0.0
N377 N 0.48894 0.64407 0.11317 0.0
C378 C 0.49465 0.66236 0.08363 0.0
C379 C 0.51558 0.69659 0.08509 0.0
C380 C 0.53138 0.71147 0.11653 0.0
C381 C 0.52721 0.6918 0.1458 0.0
C382 C 0.5061 0.65782 0.1427 0.0
H383 H 0.48284 0.65094 0.05929 0.0
O384 O 0.38447 0.60609 0.13873 0.0
O385 O 0.42698 0.59807 0.13958 0.0
O386 O 0.38891 0.57184 0.07874 0.0
O387 O 0.44375 0.59185 0.07165 0.0
C388 C 0.54404 0.70442 0.17751 0.0
C389 C 0.54034 0.68285 0.20505 0.0
H390 H 0.52857 0.63367 0.25139 0.0
H391 H 0.49255 0.57404 0.23967 0.0
H392 H 0.51966 0.71144 0.06202 0.0
H393 H 0.54751 0.73788 0.11757 0.0
H394 H 0.56033 0.73062 0.18079 0.0
H395 H 0.55365 0.69282 0.2292 0.0
Mn396 Mn 0.81408 0.36451 0.30176 0.0
Mn397 Mn 0.8417 0.44517 0.28788 0.0
C398 C 0.7774 0.38286 0.29341 0.0
C399 C 0.79955 0.32454 0.34639 0.0
C400 C 0.83933 0.3988 0.23102 0.0
O401 O 0.86262 0.3857 0.31375 0.0
O402 O 0.8763 0.43888 0.30959 0.0
C403 C 0.84745 0.46444 0.36224 0.0
N404 N 0.83494 0.46308 0.32981 0.0
C405 C 0.80508 0.48922 0.35015 0.0
C406 C 0.81787 0.49118 0.38371 0.0
C407 C 0.83906 0.47863 0.38979 0.0
C408 C 0.81418 0.47464 0.32378 0.0
H409 H 0.86357 0.45462 0.36708 0.0
C410 C 0.88301 0.4163 0.31703 0.0
O411 O 0.80629 0.31903 0.31493 0.0
O412 O 0.8021 0.35284 0.35144 0.0
N413 N 0.81084 0.45538 0.26707 0.0
C414 C 0.80156 0.45253 0.23296 0.0
C415 C 0.78122 0.46488 0.22221 0.0
C416 C 0.77079 0.48016 0.24655 0.0
C417 C 0.78102 0.48323 0.2814 0.0
C418 C 0.80184 0.47105 0.29043 0.0
H419 H 0.8098 0.44117 0.21402 0.0
O420 O 0.76766 0.3518 0.291 0.0
O421 O 0.80774 0.40185 0.30232 0.0
O422 O 0.82564 0.37176 0.24863 0.0
O423 O 0.84768 0.42712 0.24385 0.0
C424 C 0.77179 0.4983 0.30744 0.0
C425 C 0.78359 0.50104 0.34185 0.0
H426 H 0.81148 0.50214 0.40501 0.0
H427 H 0.84889 0.47988 0.41565 0.0
H428 H 0.77375 0.46279 0.19517 0.0
H429 H 0.75529 0.48981 0.23803 0.0
H430 H 0.75569 0.50793 0.30136 0.0
H431 H 0.77615 0.51249 0.36168 0.0
H432 H 0.25792 0.68306 0.36957 0.0
H433 H 0.22251 0.64559 0.47304 0.0
H434 H 0.26238 0.69922 0.49859 0.0
H435 H 0.33542 0.71301 0.39229 0.0
H436 H 0.35315 0.74825 0.36373 0.0
H437 H 0.31454 0.71311 0.3528 0.0
H438 H 0.28836 0.75017 0.34912 0.0
H439 H 0.32702 0.7857 0.36085 0.0
H440 H 0.29051 0.77492 0.38606 0.0
H441 H 0.31072 0.75197 0.51365 0.0
H442 H 0.37032 0.7915 0.51847 0.0
H443 H 0.37965 0.79005 0.40638 0.0
C444 C 0.25759 0.68711 0.39737 0.0
C445 C 0.23607 0.6615 0.41938 0.0
C446 C 0.23794 0.66589 0.45592 0.0
C447 C 0.26028 0.69628 0.47052 0.0
C448 C 0.2815 0.72146 0.44821 0.0
C449 C 0.2809 0.71681 0.41237 0.0
C450 C 0.31177 0.74329 0.39521 0.0
C451 C 0.32976 0.72851 0.37489 0.0
C452 C 0.30396 0.76483 0.3714 0.0
C453 C 0.33073 0.76208 0.42717 0.0
C454 C 0.31203 0.75055 0.45721 0.0
C455 C 0.32541 0.76185 0.4903 0.0
C456 C 0.35915 0.78424 0.49288 0.0
C457 C 0.37882 0.79425 0.46261 0.0
C458 C 0.36446 0.78352 0.42954 0.0
H459 H 0.57415 0.21434 0.6308 0.0
H460 H 0.5713 0.20723 0.51828 0.0
H461 H 0.55129 0.24683 0.51495 0.0
H462 H 0.50117 0.23378 0.63855 0.0
H463 H 0.52213 0.26142 0.67431 0.0
H464 H 0.5243 0.22434 0.66935 0.0
H465 H 0.5874 0.25789 0.66957 0.0
H466 H 0.58616 0.29513 0.67472 0.0
H467 H 0.60842 0.29091 0.63857 0.0
H468 H 0.55618 0.30005 0.5225 0.0
H469 H 0.57445 0.35688 0.54114 0.0
H470 H 0.56582 0.3276 0.64922 0.0
C471 C 0.56733 0.21988 0.60577 0.0
C472 C 0.57325 0.2076 0.57486 0.0
C473 C 0.56584 0.21598 0.54216 0.0
C474 C 0.55437 0.23828 0.54013 0.0
C475 C 0.5502 0.25145 0.57112 0.0
C476 C 0.55525 0.24161 0.60354 0.0
C477 C 0.55468 0.26335 0.63239 0.0
C478 C 0.52369 0.2446 0.65495 0.0
C479 C 0.58604 0.27767 0.65505 0.0
C480 C 0.5532 0.28953 0.6108 0.0
C481 C 0.54992 0.28185 0.5755 0.0
C482 C 0.55656 0.30557 0.54998 0.0
C483 C 0.56714 0.3378 0.56067 0.0
C484 C 0.56951 0.34556 0.59645 0.0
C485 C 0.56191 0.32121 0.62178 0.0
H486 H 0.253 0.63781 0.7266 0.0
H487 H 0.20989 0.54643 0.78328 0.0
H488 H 0.25097 0.53389 0.75771 0.0
H489 H 0.30385 0.62859 0.65722 0.0
H490 H 0.33964 0.66656 0.67 0.0
H491 H 0.29922 0.66171 0.67474 0.0
H492 H 0.31045 0.67644 0.74056 0.0
H493 H 0.35073 0.68153 0.73585 0.0
H494 H 0.3228 0.6532 0.7679 0.0
H495 H 0.29754 0.53281 0.71539 0.0
H496 H 0.35767 0.55294 0.70821 0.0
H497 H 0.37886 0.65259 0.7194 0.0
C498 C 0.25108 0.61425 0.73205 0.0
C499 C 0.22525 0.59041 0.75247 0.0
C500 C 0.22636 0.56225 0.76322 0.0
C501 C 0.24994 0.55536 0.7492 0.0
C502 C 0.2742 0.57871 0.72741 0.0
C503 C 0.27651 0.60898 0.72205 0.0
C504 C 0.3113 0.63538 0.71384 0.0
C505 C 0.31363 0.64884 0.67674 0.0
C506 C 0.32459 0.66323 0.74118 0.0
C507 C 0.3282 0.61532 0.71618 0.0
C508 C 0.30593 0.58232 0.71988 0.0
C509 C 0.31553 0.55875 0.71665 0.0
C510 C 0.34933 0.56986 0.71444 0.0
C511 C 0.37227 0.60307 0.72093 0.0
C512 C 0.36168 0.62641 0.71844 0.0
H513 H 0.73493 0.34128 0.97563 0.0
H514 H 0.75541 0.34277 0.86524 0.0
H515 H 0.70677 0.28754 0.85853 0.0
H516 H 0.69895 0.24727 0.98732 0.0
H517 H 0.66908 0.24541 0.01804 0.0
H518 H 0.70935 0.2815 0.0161 0.0
H519 H 0.6829 0.31773 1.00663 0.0
H520 H 0.64263 0.28205 1.00816 0.0
H521 H 0.65486 0.30888 0.97072 0.0
H522 H 0.64843 0.24609 0.8605 0.0
H523 H 0.58991 0.20802 0.87414 0.0
H524 H 0.61074 0.22506 0.98444 0.0
C525 C 0.72986 0.32902 0.95056 0.0
C526 C 0.74868 0.34538 0.92103 0.0
C527 C 0.74128 0.32983 0.88813 0.0
C528 C 0.71387 0.29862 0.88414 0.0
C529 C 0.69489 0.28335 0.91354 0.0
C530 C 0.70327 0.29729 0.94647 0.0
C531 C 0.6769 0.27715 0.97298 0.0
C532 C 0.68935 0.26194 1.00022 0.0
C533 C 0.66355 0.29768 0.99061 0.0
C534 C 0.65157 0.25112 0.94932 0.0
C535 C 0.66218 0.25561 0.915 0.0
C536 C 0.64046 0.24045 0.88738 0.0
C537 C 0.60741 0.21911 0.89523 0.0
C538 C 0.5971 0.212 0.93026 0.0
C539 C 0.61915 0.22833 0.95762 0.0
H540 H 0.41153 0.76022 0.05481 0.0
H541 H 0.3941 0.77797 0.16114 0.0
H542 H 0.42436 0.75111 0.18282 0.0
H543 H 0.38442 0.68234 0.07027 0.0
H544 H 0.41057 0.67627 0.04025 0.0
H545 H 0.40202 0.70887 0.0329 0.0
H546 H 0.46513 0.75145 0.03279 0.0
H547 H 0.47231 0.71746 0.0391 0.0
H548 H 0.49 0.75178 0.06883 0.0
H549 H 0.44778 0.71603 0.19361 0.0
H550 H 0.44059 0.66024 0.1946 0.0
H551 H 0.43019 0.65474 0.08249 0.0
C552 C 0.41584 0.7598 0.08254 0.0
C553 C 0.40284 0.7729 0.10649 0.0
C554 C 0.40564 0.76942 0.14264 0.0
C555 C 0.4231 0.75458 0.15505 0.0
C556 C 0.43617 0.74194 0.13088 0.0
C557 C 0.4315 0.74325 0.09526 0.0
C558 C 0.43703 0.71848 0.07562 0.0
C559 C 0.4067 0.69511 0.05356 0.0
C560 C 0.46798 0.73587 0.05276 0.0
C561 C 0.44242 0.7011 0.10601 0.0
C562 C 0.44503 0.71702 0.13726 0.0
C563 C 0.44655 0.70369 0.16932 0.0
C564 C 0.44258 0.67209 0.16972 0.0
C565 C 0.43607 0.65415 0.13843 0.0
C566 C 0.43699 0.66908 0.10632 0.0
H567 H 0.7407 0.38128 0.23837 0.0
H568 H 0.75843 0.40527 0.34824 0.0
H569 H 0.70921 0.4116 0.35101 0.0
H570 H 0.70631 0.43763 0.21794 0.0
H571 H 0.6764 0.4083 0.18823 0.0
H572 H 0.71591 0.41101 0.19282 0.0
H573 H 0.68794 0.34934 0.20771 0.0
H574 H 0.64824 0.34586 0.20302 0.0
H575 H 0.65877 0.33322 0.24313 0.0
H576 H 0.65122 0.39764 0.34555 0.0
H577 H 0.59379 0.37962 0.32864 0.0
H578 H 0.61756 0.37506 0.22049 0.0
C579 C 0.73481 0.38927 0.2625 0.0
C580 C 0.75323 0.39357 0.29293 0.0
C581 C 0.74468 0.40274 0.3246 0.0
C582 C 0.71691 0.40635 0.32636 0.0
C583 C 0.6986 0.40118 0.29603 0.0
C584 C 0.70777 0.39398 0.26435 0.0
C585 C 0.68228 0.38676 0.23644 0.0
C586 C 0.69607 0.41248 0.20712 0.0
C587 C 0.66851 0.35172 0.22175 0.0
C588 C 0.6568 0.38973 0.25773 0.0
C589 C 0.66635 0.39729 0.29223 0.0
C590 C 0.64415 0.3939 0.31832 0.0
C591 C 0.61172 0.38361 0.30863 0.0
C592 C 0.60256 0.37857 0.27316 0.0
C593 C 0.6251 0.38131 0.24745 0.0
H594 H 0.19129 0.61904 0.66218 0.0
H595 H 0.08953 0.5924 0.67668 0.0
H596 H 0.08041 0.58451 0.61297 0.0
H597 H 0.2036 0.6593 0.57356 0.0
H598 H 0.2288 0.64257 0.55909 0.0
H599 H 0.22861 0.65259 0.60449 0.0
H600 H 0.21328 0.59311 0.62086 0.0
H601 H 0.21201 0.58233 0.57555 0.0
H602 H 0.17653 0.55904 0.60293 0.0
H603 H 0.0806 0.57279 0.54938 0.0
H604 H 0.09187 0.56548 0.48802 0.0
H605 H 0.19284 0.59614 0.51474 0.0
C606 C 0.16767 0.61348 0.65156 0.0
C607 C 0.14136 0.60759 0.674 0.0
C608 C 0.1102 0.59832 0.65966 0.0
C609 C 0.10474 0.59327 0.62361 0.0
C610 C 0.13066 0.59727 0.60239 0.0
C611 C 0.16174 0.60785 0.61565 0.0
C612 C 0.18455 0.60758 0.58764 0.0
C613 C 0.21308 0.64259 0.58078 0.0
C614 C 0.19734 0.58412 0.59734 0.0
C615 C 0.16129 0.59462 0.55674 0.0
C616 C 0.13037 0.58895 0.5659 0.0
C617 C 0.10472 0.57725 0.5419 0.0
C618 C 0.11121 0.57275 0.50724 0.0
C619 C 0.14295 0.5795 0.49692 0.0
C620 C 0.16811 0.58984 0.52218 0.0
H621 H 0.59826 0.17847 0.69304 0.0
H622 H 0.54502 0.07367 0.67189 0.0
H623 H 0.51622 0.06373 0.7282 0.0
H624 H 0.60666 0.17028 0.78916 0.0
H625 H 0.60176 0.20513 0.79913 0.0
H626 H 0.61993 0.20354 0.75827 0.0
H627 H 0.57628 0.21191 0.72558 0.0
H628 H 0.55719 0.21225 0.7663 0.0
H629 H 0.53326 0.18329 0.73261 0.0
H630 H 0.49007 0.0649 0.78436 0.0
H631 H 0.47701 0.07597 0.84352 0.0
H632 H 0.54647 0.17967 0.83011 0.0
C633 C 0.5816 0.15336 0.70099 0.0
C634 C 0.57428 0.12675 0.67815 0.0
C635 C 0.55136 0.09435 0.68906 0.0
C636 C 0.53453 0.08849 0.72084 0.0
C637 C 0.54086 0.11526 0.74181 0.0
C638 C 0.56453 0.14698 0.73299 0.0
C639 C 0.56652 0.17115 0.76076 0.0
C640 C 0.60074 0.18855 0.77784 0.0
C641 C 0.5578 0.19613 0.74538 0.0
C642 C 0.54025 0.14801 0.78633 0.0
C643 C 0.52549 0.11595 0.77448 0.0
C644 C 0.50134 0.08993 0.79386 0.0
C645 C 0.49355 0.09648 0.8272 0.0
C646 C 0.50976 0.12877 0.84096 0.0
C647 C 0.53262 0.15499 0.8197 0.0
H648 H 0.45242 0.57981 1.00752 0.0
H649 H 0.37681 0.60507 0.02782 0.0
H650 H 0.38327 0.62675 0.96742 0.0
H651 H 0.50471 0.64963 0.95543 0.0
H652 H 0.51586 0.62692 0.92581 0.0
H653 H 0.50509 0.61336 0.97032 0.0
H654 H 0.45951 0.55586 0.94945 0.0
H655 H 0.47105 0.56889 0.90501 0.0
H656 H 0.42909 0.55306 0.91879 0.0
H657 H 0.39905 0.64604 0.90378 0.0
H658 H 0.41538 0.65196 0.84145 0.0
H659 H 0.48057 0.61414 0.86442 0.0
C660 C 0.43686 0.5895 0.99914 0.0
C661 C 0.41388 0.59048 0.02224 0.0
C662 C 0.3941 0.60347 1.01032 0.0
C663 C 0.39801 0.61631 0.97625 0.0
C664 C 0.42174 0.61588 0.9545 0.0
C665 C 0.44032 0.60217 0.96541 0.0
C666 C 0.46316 0.6032 0.93692 0.0
C667 C 0.49935 0.62455 0.94779 0.0
C668 C 0.45521 0.56818 0.92694 0.0
C669 C 0.45441 0.61934 0.90791 0.0
C670 C 0.43088 0.62705 0.91858 0.0
C671 C 0.41777 0.64049 0.89539 0.0
C672 C 0.42762 0.64437 0.86014 0.0
C673 C 0.45012 0.63464 0.84848 0.0
C674 C 0.46442 0.62309 0.87299 0.0
H675 H 0.79288 0.37581 0.17932 0.0
H676 H 0.89784 0.42683 0.19791 0.0
H677 H 0.90792 0.44444 0.13618 0.0
H678 H 0.79619 0.34932 0.08747 0.0
H679 H 0.76296 0.3555 0.07374 0.0
H680 H 0.76463 0.34373 0.11812 0.0
H681 H 0.76157 0.39455 0.13963 0.0
H682 H 0.76122 0.4072 0.09531 0.0
H683 H 0.79222 0.43502 0.12535 0.0
H684 H 0.9067 0.46022 0.07399 0.0
H685 H 0.89448 0.46575 1.01239 0.0
H686 H 0.79028 0.40595 0.03339 0.0
C687 C 0.81794 0.38923 0.16982 0.0
C688 C 0.8447 0.39896 0.19302 0.0
C689 C 0.87715 0.41819 0.18023 0.0
C690 C 0.88305 0.42871 0.14535 0.0
C691 C 0.8562 0.42002 0.12351 0.0
C692 C 0.82427 0.40006 0.13491 0.0
C693 C 0.79989 0.39527 0.1062 0.0
C694 C 0.77973 0.35879 0.09577 0.0
C695 C 0.7774 0.40882 0.1173 0.0
C696 C 0.82309 0.41584 0.07707 0.0
C697 C 0.85546 0.43005 0.08779 0.0
C698 C 0.88146 0.44936 0.06535 0.0
C699 C 0.87432 0.45284 0.03056 0.0
C700 C 0.84148 0.43742 0.01851 0.0
C701 C 0.81553 0.4193 0.04233 0.0
H702 H 0.41447 0.88856 0.19886 0.0
H703 H 0.3435 0.78465 0.18833 0.0
H704 H 0.35753 0.77464 0.24733 0.0
H705 H 0.47465 0.88072 0.24136 0.0
H706 H 0.48707 0.91455 0.27131 0.0
H707 H 0.46921 0.91498 0.22987 0.0
H708 H 0.42362 0.92174 0.26037 0.0
H709 H 0.44216 0.92285 0.30188 0.0
H710 H 0.39942 0.89342 0.29444 0.0
H711 H 0.38619 0.7746 0.30321 0.0
H712 H 0.41596 0.78675 0.35948 0.0
H713 H 0.46452 0.89098 0.33621 0.0
C714 C 0.40085 0.86396 0.20959 0.0
C715 C 0.37775 0.83745 0.18897 0.0
C716 C 0.36087 0.80549 0.20374 0.0
C717 C 0.36909 0.79943 0.23707 0.0
C718 C 0.3936 0.82574 0.25571 0.0
C719 C 0.40825 0.85758 0.24314 0.0
C720 C 0.43383 0.88147 0.26848 0.0
C721 C 0.46822 0.89895 0.25174 0.0
C722 C 0.42417 0.90633 0.28211 0.0
C723 C 0.43163 0.85803 0.29697 0.0
C724 C 0.40881 0.8259 0.28873 0.0
C725 C 0.40369 0.79974 0.31022 0.0
C726 C 0.42106 0.8068 0.34186 0.0
C727 C 0.44257 0.83973 0.35202 0.0
C728 C 0.44839 0.86556 0.32889 0.0
H729 H 0.54203 0.36383 0.36488 0.0
H730 H 0.49155 0.41831 0.3454 0.0
H731 H 0.50412 0.44047 0.40552 0.0
H732 H 0.52038 0.34622 0.45929 0.0
H733 H 0.56026 0.35203 0.47029 0.0
H734 H 0.54306 0.3369 0.4277 0.0
H735 H 0.5953 0.38458 0.39926 0.0
H736 H 0.61232 0.4002 0.44178 0.0
H737 H 0.60764 0.42644 0.41074 0.0
H738 H 0.52508 0.45935 0.46668 0.0
H739 H 0.54784 0.46883 0.52654 0.0
H740 H 0.58909 0.40618 0.505 0.0
C741 C 0.53221 0.37908 0.37395 0.0
C742 C 0.51464 0.38834 0.3509 0.0
C743 C 0.50394 0.40998 0.36302 0.0
C744 C 0.51144 0.42307 0.39696 0.0
C745 C 0.5302 0.41476 0.41844 0.0
C746 C 0.54008 0.39289 0.40764 0.0
C747 C 0.56161 0.38958 0.43516 0.0
C748 C 0.54536 0.35408 0.44893 0.0
C749 C 0.59626 0.40087 0.42086 0.0
C750 C 0.5624 0.41307 0.46301 0.0
C751 C 0.54404 0.42728 0.45282 0.0
C752 C 0.53977 0.44861 0.47476 0.0
C753 C 0.55322 0.45432 0.50854 0.0
C754 C 0.57132 0.43933 0.51998 0.0
C755 C 0.57665 0.41915 0.49646 0.0
H756 H 0.92435 0.47438 0.34764 0.0
H757 H 0.91805 0.38353 0.31223 0.0
H758 H 0.97754 0.40695 0.32457 0.0
H759 H -0.00168 0.5273 0.30893 0.0
H760 H 0.01294 0.55707 0.3438 0.0
H761 H 0.96951 0.53155 0.33653 0.0
H762 H 0.96123 0.51064 0.40047 0.0
H763 H 0.00461 0.53662 0.40821 0.0
H764 H 0.98513 0.49312 0.4169 0.0
H765 H 0.03951 0.44345 0.3364 0.0
H766 H 0.09637 0.48781 0.34923 0.0
H767 H 0.05916 0.55358 0.3744 0.0
C768 C 0.93525 0.45909 0.34296 0.0
C769 C 0.91674 0.42724 0.32888 0.0
C770 C 0.93188 0.40798 0.32327 0.0
C771 C 0.9656 0.42112 0.33005 0.0
C772 C 0.98341 0.45327 0.3427 0.0
C773 C 0.96848 0.47171 0.34949 0.0
C774 C -0.00726 0.50606 0.36127 0.0
C775 C -0.00659 0.532 0.33612 0.0
C776 C 0.9855 0.51194 0.39895 0.0
C777 C 0.02401 0.5046 0.35916 0.0
C778 C 0.01838 0.47399 0.34881 0.0
C779 C 0.0441 0.46743 0.34474 0.0
C780 C 0.07628 0.49278 0.35191 0.0
C781 C 0.08225 0.52425 0.36257 0.0
C782 C 0.05563 0.52998 0.36599 0.0
H783 H 0.53534 0.9562 0.42637 0.0
H784 H 0.56011 0.90682 0.50582 0.0
H785 H 0.59914 0.96044 0.53195 0.0
H786 H 0.61905 0.04089 0.42807 0.0
H787 H 0.59585 0.06173 0.42249 0.0
H788 H 0.5826 0.02274 0.40132 0.0
H789 H 0.52542 0.0001 0.43004 0.0
H790 H 0.53847 0.03819 0.45213 0.0
H791 H 0.52243 0.00064 0.47698 0.0
H792 H 0.61953 0.01496 0.55999 0.0
H793 H 0.62091 0.06444 0.58494 0.0
H794 H 0.57974 0.07729 0.48927 0.0
C795 C 0.55071 0.95706 0.4479 0.0
C796 C 0.5451 0.92781 0.46409 0.0
C797 C 0.56468 0.92918 0.49272 0.0
C798 C 0.5868 0.9596 0.50779 0.0
C799 C 0.58922 0.98812 0.49345 0.0
C800 C 0.57224 0.98712 0.46341 0.0
C801 C 0.57273 0.01923 0.45744 0.0
C802 C 0.59383 0.03722 0.42543 0.0
C803 C 0.53771 0.01419 0.45401 0.0
C804 C 0.58923 0.03701 0.49067 0.0
C805 C 0.59999 0.01952 0.51043 0.0
C806 C 0.61218 0.02934 0.54423 0.0
C807 C 0.61267 0.05724 0.55832 0.0
C808 C 0.60011 0.07412 0.53889 0.0
C809 C 0.58934 0.06453 0.50446 0.0
H810 H 0.47726 0.52879 0.75912 0.0
H811 H 0.55109 0.62696 0.72644 0.0
H812 H 0.58611 0.60485 0.7056 0.0
H813 H 0.53379 0.49622 0.78123 0.0
H814 H 0.50506 0.45665 0.76312 0.0
H815 H 0.49026 0.48145 0.78352 0.0
H816 H 0.4582 0.4779 0.72705 0.0
H817 H 0.47325 0.45369 0.70626 0.0
H818 H 0.48012 0.4914 0.68626 0.0
H819 H 0.60859 0.5705 0.67975 0.0
H820 H 0.61575 0.5274 0.65055 0.0
H821 H 0.52475 0.45228 0.69709 0.0
C822 C 0.5013 0.54603 0.74879 0.0
C823 C 0.51144 0.57966 0.74454 0.0
C824 C 0.54287 0.60111 0.73023 0.0
C825 C 0.56295 0.58877 0.71836 0.0
C826 C 0.55124 0.55506 0.72118 0.0
C827 C 0.52118 0.53407 0.73634 0.0
C828 C 0.51161 0.49843 0.73162 0.0
C829 C 0.51011 0.48224 0.76698 0.0
C830 C 0.47889 0.47927 0.7116 0.0
C831 C 0.54028 0.50246 0.71006 0.0
C832 C 0.56336 0.53523 0.70503 0.0
C833 C 0.59094 0.54478 0.68402 0.0
C834 C 0.59476 0.52018 0.66749 0.0
C835 C 0.57069 0.48659 0.6715 0.0
C836 C 0.54349 0.47777 0.69351 0.0
H837 H 0.04792 0.5052 0.80882 0.0
H838 H 0.07135 0.60716 0.81277 0.0
H839 H 0.01596 0.58951 0.83658 0.0
H840 H 0.96328 0.46986 0.78401 0.0
H841 H 0.95009 0.43395 0.811 0.0
H842 H 0.9911 0.45479 0.79327 0.0
H843 H 0.01528 0.46156 0.8556 0.0
H844 H 0.97436 0.44066 0.8735 0.0
H845 H 0.00385 0.48114 0.88892 0.0
H846 H 0.95742 0.55999 0.85977 0.0
H847 H 0.90221 0.52148 0.88358 0.0
H848 H 0.91956 0.43999 0.86519 0.0
C849 C 0.0414 0.52387 0.81439 0.0
C850 C 0.06378 0.5575 0.80873 0.0
C851 C 0.05448 0.58121 0.81694 0.0
C852 C 0.0231 0.57143 0.83032 0.0
C853 C 0.00159 0.53797 0.83552 0.0
C854 C 0.0105 0.51464 0.828 0.0
C855 C 0.98357 0.4804 0.83708 0.0
C856 C 0.97129 0.45847 0.80439 0.0
C857 C -0.00505 0.46505 0.86547 0.0
C858 C 0.95801 0.48802 0.85086 0.0
C859 C 0.9686 0.52127 0.84958 0.0
C860 C 0.94888 0.5339 0.86096 0.0
C861 C 0.91759 0.51188 0.87432 0.0
C862 C 0.9067 0.4778 0.87641 0.0
C863 C 0.92722 0.46592 0.86425 0.0
H864 H 0.472 0.03176 0.94618 0.0
H865 H 0.43004 0.07735 1.0109 0.0
H866 H 0.38999 0.02261 0.03487 0.0
H867 H 0.39349 0.95169 0.93091 0.0
H868 H 0.41538 0.92924 0.9329 0.0
H869 H 0.43543 0.97059 0.91589 0.0
H870 H 0.48261 0.98772 0.96079 0.0
H871 H 0.46282 0.94664 0.97777 0.0
H872 H 0.47279 0.98072 1.00663 0.0
H873 H 0.36203 0.96454 0.05924 0.0
H874 H 0.35046 0.91019 0.08198 0.0
H875 H 0.41062 0.90409 1.0 0.0
C876 C 0.45388 0.03015 0.96482 0.0
C877 C 0.45409 0.05859 0.97691 0.0
C878 C 0.43006 0.05566 1.00123 0.0
C879 C 0.4072 0.02471 0.01483 0.0
C880 C 0.40838 -0.00289 1.00312 0.0
C881 C 0.43094 -0.00034 0.97825 0.0
C882 C 0.43018 0.96747 0.97277 0.0
C883 C 0.41787 0.95395 0.93593 0.0
C884 C 0.46408 0.97086 0.97995 0.0
C885 C 0.40526 0.94682 1.0001 0.0
C886 C 0.39218 0.96386 0.01682 0.0
C887 C 0.37142 0.95068 0.0457 0.0
C888 C 0.3649 0.91987 0.05841 0.0
C889 C 0.37961 0.90323 0.04243 0.0
C890 C 0.3989 0.91631 1.01233 0.0
H891 H 0.46375 0.51118 0.1075 0.0
H892 H 0.36594 0.46449 0.1525 0.0
H893 H 0.3724 0.41761 0.17128 0.0
H894 H 0.46617 0.43317 0.08454 0.0
H895 H 0.50876 0.45281 0.09736 0.0
H896 H 0.49246 0.47678 0.07809 0.0
H897 H 0.51283 0.51581 0.1316 0.0
H898 H 0.52864 0.49187 0.15125 0.0
H899 H 0.4994 0.49893 0.17471 0.0
H900 H 0.39425 0.38251 0.19619 0.0
H901 H 0.42933 0.36377 0.22502 0.0
H902 H 0.51334 0.43601 0.16622 0.0
C903 C 0.44314 0.49052 0.12011 0.0
C904 C 0.4144 0.49146 0.12858 0.0
C905 C 0.3881 0.46411 0.14542 0.0
C906 C 0.39156 0.43736 0.15616 0.0
C907 C 0.42124 0.43827 0.1494 0.0
C908 C 0.44641 0.46407 0.13128 0.0
C909 C 0.4778 0.46259 0.13243 0.0
C910 C 0.48681 0.45593 0.09593 0.0
C911 C 0.50629 0.49414 0.14847 0.0
C912 C 0.46713 0.4333 0.15605 0.0
C913 C 0.43419 0.41879 0.16469 0.0
C914 C 0.41985 0.39319 0.18894 0.0
C915 C 0.4399 0.38276 0.20523 0.0
C916 C 0.47394 0.39862 0.19778 0.0
C917 C 0.48734 0.42346 0.17225 0.0
H918 H 0.21 0.55583 0.28657 0.0
H919 H 0.23243 0.50962 0.37198 0.0
H920 H 0.2636 0.49425 0.33109 0.0
H921 H 0.20271 0.49647 0.21723 0.0
H922 H 0.22122 0.52866 0.18501 0.0
H923 H 0.1972 0.53179 0.21999 0.0
H924 H 0.2464 0.5884 0.23742 0.0
H925 H 0.27052 0.58545 0.20264 0.0
H926 H 0.28558 0.59171 0.24685 0.0
H927 H 0.29994 0.4927 0.28286 0.0
H928 H 0.33567 0.50248 0.23146 0.0
H929 H 0.28663 0.5465 0.17657 0.0
C930 C 0.2208 0.54177 0.29659 0.0
C931 C 0.21875 0.53385 0.33251 0.0
C932 C 0.23341 0.51565 0.34456 0.0
C933 C 0.25118 0.50688 0.32148 0.0
C934 C 0.25347 0.51592 0.28634 0.0
C935 C 0.23818 0.53252 0.27389 0.0
C936 C 0.24608 0.54145 0.23566 0.0
C937 C 0.21495 0.52351 0.21314 0.0
C938 C 0.26317 0.57897 0.23036 0.0
C939 C 0.26936 0.5285 0.22869 0.0
C940 C 0.27319 0.51368 0.25821 0.0
C941 C 0.29635 0.50332 0.25936 0.0
C942 C 0.31649 0.5089 0.23004 0.0
C943 C 0.31311 0.52423 0.19973 0.0
C944 C 0.28868 0.5334 0.19883 0.0
H945 H 0.78505 0.33398 0.41266 0.0
H946 H 0.78576 0.25956 0.34602 0.0
H947 H 0.76105 0.21895 0.39426 0.0
H948 H 0.80176 0.30621 0.49615 0.0
H949 H 0.77436 0.31581 0.51977 0.0
H950 H 0.79573 0.33941 0.4817 0.0
H951 H 0.74024 0.32622 0.45361 0.0
H952 H 0.71881 0.3029 0.49161 0.0
H953 H 0.70822 0.28392 0.4491 0.0
H954 H 0.73024 0.18521 0.44842 0.0
H955 H 0.69484 0.16168 0.50063 0.0
H956 H 0.71489 0.25874 0.531 0.0
C957 C 0.78069 0.30931 0.40821 0.0
C958 C 0.78764 0.30007 0.37545 0.0
C959 C 0.78097 0.26735 0.37088 0.0
C960 C 0.76697 0.24416 0.39822 0.0
C961 C 0.75999 0.25413 0.43003 0.0
C962 C 0.76674 0.28606 0.435 0.0
C963 C 0.75452 0.2903 0.47022 0.0
C964 C 0.78332 0.31436 0.49332 0.0
C965 C 0.72893 0.30147 0.46586 0.0
C966 C 0.73899 0.25555 0.48427 0.0
C967 C 0.74273 0.23504 0.46098 0.0
C968 C 0.72796 0.20127 0.46711 0.0
C969 C 0.70815 0.18811 0.49703 0.0
C970 C 0.70339 0.20862 0.52061 0.0
C971 C 0.7195 0.24279 0.51436 0.0
H972 H 0.50304 0.73148 0.67865 0.0
H973 H 0.50827 0.65399 0.62275 0.0
H974 H 0.51782 0.68485 0.56751 0.0
H975 H 0.45495 0.74052 0.61813 0.0
H976 H 0.47245 0.78437 0.62267 0.0
H977 H 0.47409 0.7606 0.65858 0.0
H978 H 0.53745 0.79741 0.66125 0.0
H979 H 0.536 0.82158 0.62542 0.0
H980 H 0.56161 0.80307 0.62255 0.0
H981 H 0.51934 0.72057 0.51735 0.0
H982 H 0.50949 0.75593 0.47688 0.0
H983 H 0.49951 0.80801 0.56537 0.0
C984 C 0.50778 0.72184 0.65502 0.0
C985 C 0.50594 0.69087 0.65502 0.0
C986 C 0.51036 0.67805 0.62332 0.0
C987 C 0.51578 0.69542 0.59185 0.0
C988 C 0.51628 0.72542 0.59244 0.0
C989 C 0.51237 0.73851 0.62327 0.0
C990 C 0.50888 0.76844 0.6163 0.0
C991 C 0.47562 0.76314 0.6297 0.0
C992 C 0.53771 0.79946 0.63233 0.0
C993 C 0.51045 0.76958 0.57678 0.0
C994 C 0.51549 0.74506 0.56347 0.0
C995 C 0.51586 0.74015 0.52753 0.0
C996 C 0.51029 0.76037 0.5047 0.0
C997 C 0.50383 0.78478 0.51792 0.0
C998 C 0.50463 0.78973 0.55442 0.0
H999 H 0.73716 0.41388 0.82469 0.0
H1000 H 0.79944 0.51826 0.84334 0.0
H1001 H 0.77567 0.53009 0.79075 0.0
H1002 H 0.74117 0.4151 0.73265 0.0
H1003 H 0.6988 0.38371 0.727 0.0
H1004 H 0.72059 0.38429 0.76589 0.0
H1005 H 0.67611 0.38622 0.80435 0.0
H1006 H 0.65388 0.38505 0.7656 0.0
H1007 H 0.66566 0.41784 0.79677 0.0
H1008 H 0.74558 0.52887 0.7318 0.0
H1009 H 0.70825 0.51504 0.68051 0.0
H1010 H 0.66527 0.41155 0.70501 0.0
C1011 C 0.74572 0.43932 0.81793 0.0
C1012 C 0.77024 0.46518 0.83802 0.0
C1013 C 0.7805 0.49807 0.82845 0.0
C1014 C 0.7673 0.50494 0.79844 0.0
C1015 C 0.74354 0.47861 0.77869 0.0
C1016 C 0.73251 0.44645 0.78873 0.0
C1017 C 0.70624 0.42218 0.76439 0.0
C1018 C 0.71739 0.40003 0.74643 0.0
C1019 C 0.67354 0.40163 0.78394 0.0
C1020 C 0.70411 0.44544 0.73863 0.0
C1021 C 0.72596 0.47795 0.74672 0.0
C1022 C 0.72831 0.50345 0.7256 0.0
C1023 C 0.70726 0.49542 0.6963 0.0
C1024 C 0.68389 0.46223 0.68875 0.0
C1025 C 0.68283 0.43717 0.71011 0.0
H1026 H 0.30022 0.72881 0.99992 0.0
H1027 H 0.25449 0.78766 0.02036 0.0
H1028 H 0.2169 0.76132 0.96996 0.0
H1029 H 0.29838 0.72972 0.90855 0.0
H1030 H 0.28859 0.68761 0.90317 0.0
H1031 H 0.31073 0.71039 0.94122 0.0
H1032 H 0.26658 0.66564 0.98131 0.0
H1033 H 0.24446 0.6425 0.94337 0.0
H1034 H 0.22399 0.65392 0.97563 0.0
H1035 H 0.18867 0.73204 0.91232 0.0
H1036 H 0.16708 0.69711 0.85924 0.0
H1037 H 0.2282 0.65422 0.88161 0.0
C1038 C 0.28194 0.73577 0.99405 0.0
C1039 C 0.28011 0.76019 1.01382 0.0
C1040 C 0.25595 0.76874 1.00559 0.0
C1041 C 0.23472 0.75406 0.97692 0.0
C1042 C 0.23758 0.73038 0.95744 0.0
C1043 C 0.26012 0.72078 0.96631 0.0
C1044 C 0.25814 0.69448 0.94191 0.0
C1045 C 0.2909 0.70627 0.92257 0.0
C1046 C 0.24766 0.66222 0.96174 0.0
C1047 C 0.23147 0.69115 0.91731 0.0
C1048 C 0.2201 0.7123 0.92624 0.0
C1049 C 0.19698 0.71496 0.90559 0.0
C1050 C 0.18497 0.69521 0.87543 0.0
C1051 C 0.19562 0.67269 0.86673 0.0
C1052 C 0.21911 0.67075 0.88806 0.0
H1053 H 0.53217 0.29005 0.16587 0.0
H1054 H 0.42934 0.25836 0.18225 0.0
H1055 H 0.41525 0.22443 0.12806 0.0
H1056 H 0.53355 0.29875 0.07521 0.0
H1057 H 0.56188 0.28397 0.06775 0.0
H1058 H 0.56278 0.30355 0.10847 0.0
H1059 H 0.55467 0.25235 0.14273 0.0
H1060 H 0.55446 0.23289 0.10214 0.0
H1061 H 0.52051 0.2124 0.13209 0.0
H1062 H 0.41457 0.19703 0.06702 0.0
H1063 H 0.42656 0.17486 1.01315 0.0
H1064 H 0.52976 0.22529 0.04087 0.0
C1065 C 0.50654 0.2755 0.15846 0.0
C1066 C 0.48181 0.27666 0.17834 0.0
C1067 C 0.44862 0.2574 0.16768 0.0
C1068 C 0.44052 0.23837 0.13672 0.0
C1069 C 0.46589 0.23865 0.11706 0.0
C1070 C 0.49818 0.25639 0.1282 0.0
C1071 C 0.52135 0.25323 0.10321 0.0
C1072 C 0.54635 0.28687 0.08776 0.0
C1073 C 0.53876 0.23672 0.12111 0.0
C1074 C 0.49735 0.23113 0.07583 0.0
C1075 C 0.46541 0.22298 0.0837 0.0
C1076 C 0.43953 0.20318 0.06101 0.0
C1077 C 0.44652 0.19091 0.0303 0.0
C1078 C 0.47906 0.19825 0.02286 0.0
C1079 C 0.50455 0.21897 0.04588 0.0
loop_
_geom_bond_atom_site_label_1
_geom_bond_atom_site_label_2
_geom_bond_distance
_geom_bond_site_symmetry_2
_ccdc_geom_bond_type
Mn0 O5 2.095 . S
Mn0 O15 2.162 . S
Mn0 O16 2.297 . S
Mn0 O24 2.385 . S
Mn0 O25 2.209 . S
Mn0 O26 2.094 . S
Mn1 O6 2.121 . S
Mn1 N8 2.257 . S
Mn1 N17 2.282 . S
Mn1 O25 2.215 . S
Mn1 O27 2.117 . S
C2 O24 1.234 . S
C2 O25 1.283 . S
C3 O15 1.281 . S
C3 O16 1.236 . S
C4 O26 1.240 . S
C4 O27 1.264 . S
O5 Mn0 2.095 . S
O5 C14 1.250 . S
O6 Mn1 2.121 . S
O6 C14 1.258 . S
C7 N8 1.326 . S
C7 C11 1.460 . S
C7 H13 0.929 . S
N8 Mn1 2.257 . S
N8 C7 1.326 . S
N8 C12 1.362 . S
C9 C10 1.258 . S
C9 C12 1.431 . S
C9 C29 1.449 . S
C10 C9 1.258 . S
C10 C11 1.477 . S
C10 H30 0.931 . S
C11 C7 1.460 . S
C11 C10 1.477 . S
C11 H31 0.930 . S
C12 N8 1.362 . S
C12 C9 1.431 . S
C12 C22 1.476 . S
H13 C7 0.929 . S
C14 O5 1.250 . S
C14 O6 1.258 . S
O15 Mn0 2.162 . S
O15 C3 1.281 . S
O16 Mn0 2.297 . S
O16 C3 1.236 . S
N17 Mn1 2.282 . S
N17 C18 1.328 . S
N17 C22 1.318 . S
C18 N17 1.328 . S
C18 C19 1.457 . S
C18 H23 0.929 . S
C19 C18 1.457 . S
C19 C20 1.291 . S
C19 H32 0.931 . S
C20 C19 1.291 . S
C20 C21 1.373 . S
C20 H33 0.929 . S
C21 C20 1.373 . S
C21 C22 1.396 . S
C21 C28 1.403 . S
C22 C12 1.476 . S
C22 N17 1.318 . S
C22 C21 1.396 . S
H23 C18 0.929 . S
O24 Mn0 2.385 . S
O24 C2 1.234 . S
O25 Mn0 2.209 . S
O25 Mn1 2.215 . S
O25 C2 1.283 . S
O26 Mn0 2.094 . S
O26 C4 1.240 . S
O27 Mn1 2.117 . S
O27 C4 1.264 . S
C28 C21 1.403 . S
C28 C29 1.399 . S
C28 H34 0.929 . S
C29 C9 1.449 . S
C29 C28 1.399 . S
C29 H35 0.930 . S
H30 C10 0.931 . S
H31 C11 0.930 . S
H32 C19 0.931 . S
H33 C20 0.929 . S
H34 C28 0.929 . S
H35 C29 0.930 . S
Mn36 O41 2.095 . S
Mn36 O51 2.162 . S
Mn36 O52 2.297 . S
Mn36 O60 2.385 . S
Mn36 O61 2.209 . S
Mn36 O62 2.094 . S
Mn37 O42 2.121 . S
Mn37 N44 2.257 . S
Mn37 N53 2.282 . S
Mn37 O61 2.215 . S
Mn37 O63 2.117 . S
C38 O60 1.234 . S
C38 O61 1.283 . S
C39 O51 1.281 . S
C39 O52 1.236 . S
C40 O62 1.240 . S
C40 O63 1.264 . S
O41 Mn36 2.095 . S
O41 C50 1.250 . S
O42 Mn37 2.121 . S
O42 C50 1.258 . S
C43 N44 1.326 . S
C43 C47 1.460 . S
C43 H49 0.929 . S
N44 Mn37 2.257 . S
N44 C43 1.326 . S
N44 C48 1.362 . S
C45 C46 1.258 . S
C45 C48 1.431 . S
C45 C65 1.449 . S
C46 C45 1.258 . S
C46 C47 1.477 . S
C46 H66 0.931 . S
C47 C43 1.460 . S
C47 C46 1.477 . S
C47 H67 0.930 . S
C48 N44 1.362 . S
C48 C45 1.431 . S
C48 C58 1.476 . S
H49 C43 0.929 . S
C50 O41 1.250 . S
C50 O42 1.258 . S
O51 Mn36 2.162 . S
O51 C39 1.281 . S
O52 Mn36 2.297 . S
O52 C39 1.236 . S
N53 Mn37 2.282 . S
N53 C54 1.328 . S
N53 C58 1.318 . S
C54 N53 1.328 . S
C54 C55 1.457 . S
C54 H59 0.929 . S
C55 C54 1.457 . S
C55 C56 1.291 . S
C55 H68 0.931 . S
C56 C55 1.291 . S
C56 C57 1.373 . S
C56 H69 0.929 . S
C57 C56 1.373 . S
C57 C58 1.396 . S
C57 C64 1.403 . S
C58 C48 1.476 . S
C58 N53 1.318 . S
C58 C57 1.396 . S
H59 C54 0.929 . S
O60 Mn36 2.385 . S
O60 C38 1.234 . S
O61 Mn36 2.209 . S
O61 Mn37 2.215 . S
O61 C38 1.283 . S
O62 Mn36 2.094 . S
O62 C40 1.240 . S
O63 Mn37 2.117 . S
O63 C40 1.264 . S
C64 C57 1.403 . S
C64 C65 1.399 . S
C64 H70 0.929 . S
C65 C45 1.449 . S
C65 C64 1.399 . S
C65 H71 0.930 . S
H66 C46 0.931 . S
H67 C47 0.930 . S
H68 C55 0.931 . S
H69 C56 0.929 . S
H70 C64 0.929 . S
H71 C65 0.930 . S
Mn72 O77 2.095 . S
Mn72 O87 2.162 . S
Mn72 O88 2.297 . S
Mn72 O96 2.385 . S
Mn72 O97 2.209 . S
Mn72 O98 2.094 . S
Mn73 O78 2.121 . S
Mn73 N80 2.257 . S
Mn73 N89 2.282 . S
Mn73 O97 2.215 . S
Mn73 O99 2.117 . S
C74 O96 1.234 . S
C74 O97 1.283 . S
C75 O87 1.281 . S
C75 O88 1.236 . S
C76 O98 1.240 . S
C76 O99 1.264 . S
O77 Mn72 2.095 . S
O77 C86 1.250 . S
O78 Mn73 2.121 . S
O78 C86 1.258 . S
C79 N80 1.326 . S
C79 C83 1.460 . S
C79 H85 0.929 . S
N80 Mn73 2.257 . S
N80 C79 1.326 . S
N80 C84 1.362 . S
C81 C82 1.258 . S
C81 C84 1.431 . S
C81 C101 1.449 . S
C82 C81 1.258 . S
C82 C83 1.477 . S
C82 H102 0.931 . S
C83 C79 1.460 . S
C83 C82 1.477 . S
C83 H103 0.930 . S
C84 N80 1.362 . S
C84 C81 1.431 . S
C84 C94 1.476 . S
H85 C79 0.929 . S
C86 O77 1.250 . S
C86 O78 1.258 . S
O87 Mn72 2.162 . S
O87 C75 1.281 . S
O88 Mn72 2.297 . S
O88 C75 1.236 . S
N89 Mn73 2.282 . S
N89 C90 1.328 . S
N89 C94 1.318 . S
C90 N89 1.328 . S
C90 C91 1.457 . S
C90 H95 0.929 . S
C91 C90 1.457 . S
C91 C92 1.291 . S
C91 H104 0.931 . S
C92 C91 1.291 . S
C92 C93 1.373 . S
C92 H105 0.929 . S
C93 C92 1.373 . S
C93 C94 1.396 . S
C93 C100 1.403 . S
C94 C84 1.476 . S
C94 N89 1.318 . S
C94 C93 1.396 . S
H95 C90 0.929 . S
O96 Mn72 2.385 . S
O96 C74 1.234 . S
O97 Mn72 2.209 . S
O97 Mn73 2.215 . S
O97 C74 1.283 . S
O98 Mn72 2.094 . S
O98 C76 1.240 . S
O99 Mn73 2.117 . S
O99 C76 1.264 . S
C100 C93 1.403 . S
C100 C101 1.399 . S
C100 H106 0.929 . S
C101 C81 1.449 . S
C101 C100 1.399 . S
C101 H107 0.930 . S
H102 C82 0.931 . S
H103 C83 0.930 . S
H104 C91 0.931 . S
H105 C92 0.929 . S
H106 C100 0.929 . S
H107 C101 0.930 . S
Mn108 O113 2.095 . S
Mn108 O123 2.162 . S
Mn108 O124 2.297 . S
Mn108 O132 2.385 . S
Mn108 O133 2.209 . S
Mn108 O134 2.094 . S
Mn109 O114 2.121 . S
Mn109 N116 2.257 . S
Mn109 N125 2.282 . S
Mn109 O133 2.215 . S
Mn109 O135 2.117 . S
C110 O132 1.234 . S
C110 O133 1.283 . S
C111 O123 1.281 . S
C111 O124 1.236 . S
C112 O134 1.240 . S
C112 O135 1.264 . S
O113 Mn108 2.095 . S
O113 C122 1.250 . S
O114 Mn109 2.121 . S
O114 C122 1.258 . S
C115 N116 1.326 . S
C115 C119 1.460 . S
C115 H121 0.929 . S
N116 Mn109 2.257 . S
N116 C115 1.326 . S
N116 C120 1.362 . S
C117 C118 1.258 . S
C117 C120 1.431 . S
C117 C137 1.449 . S
C118 C117 1.258 . S
C118 C119 1.477 . S
C118 H138 0.931 . S
C119 C115 1.460 . S
C119 C118 1.477 . S
C119 H139 0.930 . S
C120 N116 1.362 . S
C120 C117 1.431 . S
C120 C130 1.476 . S
H121 C115 0.929 . S
C122 O113 1.250 . S
C122 O114 1.258 . S
O123 Mn108 2.162 . S
O123 C111 1.281 . S
O124 Mn108 2.297 . S
O124 C111 1.236 . S
N125 Mn109 2.282 . S
N125 C126 1.328 . S
N125 C130 1.318 . S
C126 N125 1.328 . S
C126 C127 1.457 . S
C126 H131 0.929 . S
C127 C126 1.457 . S
C127 C128 1.291 . S
C127 H140 0.931 1_556 S
C128 C127 1.291 . S
C128 C129 1.373 . S
C128 H141 0.930 1_556 S
C129 C128 1.373 . S
C129 C130 1.396 . S
C129 C136 1.403 . S
C130 C120 1.476 . S
C130 N125 1.318 . S
C130 C129 1.396 . S
H131 C126 0.929 . S
O132 Mn108 2.385 . S
O132 C110 1.234 . S
O133 Mn108 2.209 . S
O133 Mn109 2.215 . S
O133 C110 1.283 . S
O134 Mn108 2.094 . S
O134 C112 1.240 . S
O135 Mn109 2.117 . S
O135 C112 1.264 . S
C136 C129 1.403 . S
C136 C137 1.399 . S
C136 H142 0.929 . S
C137 C117 1.449 . S
C137 C136 1.399 . S
C137 H143 0.930 . S
H138 C118 0.931 . S
H139 C119 0.930 . S
H140 C127 0.931 1_554 S
H141 C128 0.930 1_554 S
H142 C136 0.929 . S
H143 C137 0.930 . S
Mn144 O149 2.095 . S
Mn144 O159 2.162 . S
Mn144 O160 2.297 . S
Mn144 O168 2.385 . S
Mn144 O169 2.209 . S
Mn144 O170 2.094 . S
Mn145 O150 2.121 . S
Mn145 N152 2.257 . S
Mn145 N161 2.282 . S
Mn145 O169 2.215 . S
Mn145 O171 2.117 . S
C146 O168 1.234 . S
C146 O169 1.283 . S
C147 O159 1.281 . S
C147 O160 1.236 . S
C148 O170 1.240 . S
C148 O171 1.264 . S
O149 Mn144 2.095 . S
O149 C158 1.250 . S
O150 Mn145 2.121 . S
O150 C158 1.258 . S
C151 N152 1.326 . S
C151 C155 1.460 . S
C151 H157 0.929 . S
N152 Mn145 2.257 . S
N152 C151 1.326 . S
N152 C156 1.362 . S
C153 C154 1.258 . S
C153 C156 1.431 . S
C153 C173 1.449 . S
C154 C153 1.258 . S
C154 C155 1.477 . S
C154 H174 0.931 . S
C155 C151 1.460 . S
C155 C154 1.477 . S
C155 H175 0.930 . S
C156 N152 1.362 . S
C156 C153 1.431 . S
C156 C166 1.476 . S
H157 C151 0.929 . S
C158 O149 1.250 . S
C158 O150 1.258 . S
O159 Mn144 2.162 . S
O159 C147 1.281 . S
O160 Mn144 2.297 . S
O160 C147 1.236 . S
N161 Mn145 2.282 . S
N161 C162 1.328 . S
N161 C166 1.318 . S
C162 N161 1.328 . S
C162 C163 1.457 . S
C162 H167 0.929 . S
C163 C162 1.457 . S
C163 C164 1.291 . S
C163 H176 0.931 . S
C164 C163 1.291 . S
C164 C165 1.373 . S
C164 H177 0.929 . S
C165 C164 1.373 . S
C165 C166 1.396 . S
C165 C172 1.403 . S
C166 C156 1.476 . S
C166 N161 1.318 . S
C166 C165 1.396 . S
H167 C162 0.929 . S
O168 Mn144 2.385 . S
O168 C146 1.234 . S
O169 Mn144 2.209 . S
O169 Mn145 2.215 . S
O169 C146 1.283 . S
O170 Mn144 2.094 . S
O170 C148 1.240 . S
O171 Mn145 2.117 . S
O171 C148 1.264 . S
C172 C165 1.403 . S
C172 C173 1.399 . S
C172 H178 0.929 . S
C173 C153 1.449 . S
C173 C172 1.399 . S
C173 H179 0.930 . S
H174 C154 0.931 . S
H175 C155 0.930 . S
H176 C163 0.931 . S
H177 C164 0.929 . S
H178 C172 0.929 . S
H179 C173 0.930 . S
Mn180 O185 2.095 . S
Mn180 O195 2.162 . S
Mn180 O196 2.297 . S
Mn180 O204 2.385 . S
Mn180 O205 2.209 . S
Mn180 O206 2.094 . S
Mn181 O186 2.121 . S
Mn181 N188 2.257 . S
Mn181 N197 2.282 . S
Mn181 O205 2.215 . S
Mn181 O207 2.117 . S
C182 O204 1.234 . S
C182 O205 1.283 . S
C183 O195 1.281 . S
C183 O196 1.236 . S
C184 O206 1.240 . S
C184 O207 1.264 . S
O185 Mn180 2.095 . S
O185 C194 1.250 . S
O186 Mn181 2.121 . S
O186 C194 1.258 . S
C187 N188 1.326 . S
C187 C191 1.460 . S
C187 H193 0.929 . S
N188 Mn181 2.257 . S
N188 C187 1.326 . S
N188 C192 1.362 . S
C189 C190 1.258 . S
C189 C192 1.431 . S
C189 C209 1.449 . S
C190 C189 1.258 . S
C190 C191 1.477 . S
C190 H210 0.931 . S
C191 C187 1.460 . S
C191 C190 1.477 . S
C191 H211 0.930 . S
C192 N188 1.362 . S
C192 C189 1.431 . S
C192 C202 1.476 . S
H193 C187 0.929 . S
C194 O185 1.250 . S
C194 O186 1.258 . S
O195 Mn180 2.162 . S
O195 C183 1.281 . S
O196 Mn180 2.297 . S
O196 C183 1.236 . S
N197 Mn181 2.282 . S
N197 C198 1.328 . S
N197 C202 1.318 . S
C198 N197 1.328 . S
C198 C199 1.457 . S
C198 H203 0.929 . S
C199 C198 1.457 . S
C199 C200 1.291 . S
C199 H212 0.931 . S
C200 C199 1.291 . S
C200 C201 1.373 . S
C200 H213 0.929 . S
C201 C200 1.373 . S
C201 C202 1.396 . S
C201 C208 1.403 . S
C202 C192 1.476 . S
C202 N197 1.318 . S
C202 C201 1.396 . S
H203 C198 0.929 . S
O204 Mn180 2.385 . S
O204 C182 1.234 . S
O205 Mn180 2.209 . S
O205 Mn181 2.215 . S
O205 C182 1.283 . S
O206 Mn180 2.094 . S
O206 C184 1.240 . S
O207 Mn181 2.117 . S
O207 C184 1.264 . S
C208 C201 1.403 . S
C208 C209 1.399 . S
C208 H214 0.929 . S
C209 C189 1.449 . S
C209 C208 1.399 . S
C209 H215 0.930 . S
H210 C190 0.931 . S
H211 C191 0.930 . S
H212 C199 0.931 . S
H213 C200 0.929 . S
H214 C208 0.929 . S
H215 C209 0.930 . S
Mn216 O221 2.095 . S
Mn216 O231 2.162 . S
Mn216 O232 2.297 . S
Mn216 O240 2.385 . S
Mn216 O241 2.209 . S
Mn216 O242 2.094 . S
Mn217 O222 2.121 . S
Mn217 N224 2.257 . S
Mn217 N233 2.282 . S
Mn217 O241 2.215 . S
Mn217 O243 2.117 . S
C218 O240 1.234 . S
C218 O241 1.283 . S
C219 O231 1.281 . S
C219 O232 1.236 . S
C220 O242 1.240 . S
C220 O243 1.264 . S
O221 Mn216 2.095 . S
O221 C230 1.250 . S
O222 Mn217 2.121 . S
O222 C230 1.258 . S
C223 N224 1.326 . S
C223 C227 1.460 . S
C223 H229 0.929 . S
N224 Mn217 2.257 . S
N224 C223 1.326 . S
N224 C228 1.362 . S
C225 C226 1.258 . S
C225 C228 1.431 . S
C225 C245 1.449 . S
C226 C225 1.258 . S
C226 C227 1.477 . S
C226 H246 0.931 . S
C227 C223 1.460 . S
C227 C226 1.477 . S
C227 H247 0.930 . S
C228 N224 1.362 . S
C228 C225 1.431 . S
C228 C238 1.476 . S
H229 C223 0.929 . S
C230 O221 1.250 . S
C230 O222 1.258 . S
O231 Mn216 2.162 . S
O231 C219 1.281 . S
O232 Mn216 2.297 . S
O232 C219 1.236 . S
N233 Mn217 2.282 . S
N233 C234 1.328 . S
N233 C238 1.318 . S
C234 N233 1.328 . S
C234 C235 1.457 . S
C234 H239 0.929 . S
C235 C234 1.457 . S
C235 C236 1.291 . S
C235 H248 0.931 . S
C236 C235 1.291 . S
C236 C237 1.373 . S
C236 H249 0.929 . S
C237 C236 1.373 . S
C237 C238 1.396 . S
C237 C244 1.403 . S
C238 C228 1.476 . S
C238 N233 1.318 . S
C238 C237 1.396 . S
H239 C234 0.929 . S
O240 Mn216 2.385 . S
O240 C218 1.234 . S
O241 Mn216 2.209 . S
O241 Mn217 2.215 . S
O241 C218 1.283 . S
O242 Mn216 2.094 . S
O242 C220 1.240 . S
O243 Mn217 2.117 . S
O243 C220 1.264 . S
C244 C237 1.403 . S
C244 C245 1.399 . S
C244 H250 0.929 . S
C245 C225 1.449 . S
C245 C244 1.399 . S
C245 H251 0.930 . S
H246 C226 0.931 . S
H247 C227 0.930 . S
H248 C235 0.931 . S
H249 C236 0.929 . S
H250 C244 0.929 . S
H251 C245 0.930 . S
Mn252 O257 2.095 . S
Mn252 O267 2.162 . S
Mn252 O268 2.297 . S
Mn252 O276 2.385 . S
Mn252 O277 2.209 . S
Mn252 O278 2.094 . S
Mn253 O258 2.121 . S
Mn253 N260 2.257 . S
Mn253 N269 2.282 . S
Mn253 O277 2.215 . S
Mn253 O279 2.117 . S
C254 O276 1.234 . S
C254 O277 1.283 . S
C255 O267 1.281 . S
C255 O268 1.236 . S
C256 O278 1.240 . S
C256 O279 1.264 . S
O257 Mn252 2.095 . S
O257 C266 1.250 . S
O258 Mn253 2.121 . S
O258 C266 1.258 . S
C259 N260 1.326 . S
C259 C263 1.460 . S
C259 H265 0.929 . S
N260 Mn253 2.257 . S
N260 C259 1.326 . S
N260 C264 1.362 . S
C261 C262 1.258 . S
C261 C264 1.431 . S
C261 C281 1.449 . S
C262 C261 1.258 . S
C262 C263 1.477 . S
C262 H282 0.931 . S
C263 C259 1.460 . S
C263 C262 1.477 . S
C263 H283 0.930 . S
C264 N260 1.362 . S
C264 C261 1.431 . S
C264 C274 1.476 . S
H265 C259 0.929 . S
C266 O257 1.250 . S
C266 O258 1.258 . S
O267 Mn252 2.162 . S
O267 C255 1.281 . S
O268 Mn252 2.297 . S
O268 C255 1.236 . S
N269 Mn253 2.282 . S
N269 C270 1.328 . S
N269 C274 1.318 . S
C270 N269 1.328 . S
C270 C271 1.457 . S
C270 H275 0.929 . S
C271 C270 1.457 . S
C271 C272 1.291 . S
C271 H284 0.931 . S
C272 C271 1.291 . S
C272 C273 1.373 . S
C272 H285 0.929 . S
C273 C272 1.373 . S
C273 C274 1.396 . S
C273 C280 1.403 . S
C274 C264 1.476 . S
C274 N269 1.318 . S
C274 C273 1.396 . S
H275 C270 0.929 . S
O276 Mn252 2.385 . S
O276 C254 1.234 . S
O277 Mn252 2.209 . S
O277 Mn253 2.215 . S
O277 C254 1.283 . S
O278 Mn252 2.094 . S
O278 C256 1.240 . S
O279 Mn253 2.117 . S
O279 C256 1.264 . S
C280 C273 1.403 . S
C280 C281 1.399 . S
C280 H286 0.929 . S
C281 C261 1.449 . S
C281 C280 1.399 . S
C281 H287 0.930 . S
H282 C262 0.931 . S
H283 C263 0.930 . S
H284 C271 0.931 . S
H285 C272 0.929 . S
H286 C280 0.929 . S
H287 C281 0.930 . S
Mn288 O293 2.095 . S
Mn288 O303 2.162 . S
Mn288 O304 2.297 . S
Mn288 O312 2.385 . S
Mn288 O313 2.209 . S
Mn288 O314 2.094 . S
Mn289 O294 2.121 . S
Mn289 N296 2.257 . S
Mn289 N305 2.282 . S
Mn289 O313 2.215 . S
Mn289 O315 2.117 . S
C290 O312 1.234 . S
C290 O313 1.283 . S
C291 O303 1.281 . S
C291 O304 1.236 . S
C292 O314 1.240 . S
C292 O315 1.264 . S
O293 Mn288 2.095 . S
O293 C302 1.250 . S
O294 Mn289 2.121 . S
O294 C302 1.258 . S
C295 N296 1.326 . S
C295 C299 1.460 . S
C295 H301 0.929 . S
N296 Mn289 2.257 . S
N296 C295 1.326 . S
N296 C300 1.362 . S
C297 C298 1.258 . S
C297 C300 1.431 . S
C297 C317 1.449 . S
C298 C297 1.258 . S
C298 C299 1.477 . S
C298 H318 0.931 . S
C299 C295 1.460 . S
C299 C298 1.477 . S
C299 H319 0.930 . S
C300 N296 1.362 . S
C300 C297 1.431 . S
C300 C310 1.476 . S
H301 C295 0.929 . S
C302 O293 1.250 . S
C302 O294 1.258 . S
O303 Mn288 2.162 . S
O303 C291 1.281 . S
O304 Mn288 2.297 . S
O304 C291 1.236 . S
N305 Mn289 2.282 . S
N305 C306 1.328 . S
N305 C310 1.318 . S
C306 N305 1.328 . S
C306 C307 1.457 . S
C306 H311 0.929 . S
C307 C306 1.457 . S
C307 C308 1.291 . S
C307 H320 0.931 . S
C308 C307 1.291 . S
C308 C309 1.373 . S
C308 H321 0.929 . S
C309 C308 1.373 . S
C309 C310 1.396 . S
C309 C316 1.403 . S
C310 C300 1.476 . S
C310 N305 1.318 . S
C310 C309 1.396 . S
H311 C306 0.929 . S
O312 Mn288 2.385 . S
O312 C290 1.234 . S
O313 Mn288 2.209 . S
O313 Mn289 2.215 . S
O313 C290 1.283 . S
O314 Mn288 2.094 . S
O314 C292 1.240 . S
O315 Mn289 2.117 . S
O315 C292 1.264 . S
C316 C309 1.403 . S
C316 C317 1.399 . S
C316 H322 0.929 . S
C317 C297 1.449 . S
C317 C316 1.399 . S
C317 H323 0.930 . S
H318 C298 0.931 . S
H319 C299 0.930 . S
H320 C307 0.931 . S
H321 C308 0.929 . S
H322 C316 0.929 . S
H323 C317 0.930 . S
Mn324 O329 2.095 . S
Mn324 O339 2.162 . S
Mn324 O340 2.297 . S
Mn324 O348 2.385 . S
Mn324 O349 2.209 . S
Mn324 O350 2.094 . S
Mn325 O330 2.121 . S
Mn325 N332 2.257 . S
Mn325 N341 2.282 . S
Mn325 O349 2.215 . S
Mn325 O351 2.117 . S
C326 O348 1.234 . S
C326 O349 1.283 . S
C327 O339 1.281 . S
C327 O340 1.236 . S
C328 O350 1.240 . S
C328 O351 1.264 . S
O329 Mn324 2.095 . S
O329 C338 1.250 . S
O330 Mn325 2.121 . S
O330 C338 1.258 . S
C331 N332 1.326 . S
C331 C335 1.460 . S
C331 H337 0.929 . S
N332 Mn325 2.257 . S
N332 C331 1.326 . S
N332 C336 1.362 . S
C333 C334 1.258 . S
C333 C336 1.431 . S
C333 C353 1.449 . S
C334 C333 1.258 . S
C334 C335 1.477 . S
C334 H354 0.931 . S
C335 C331 1.460 . S
C335 C334 1.477 . S
C335 H355 0.930 . S
C336 N332 1.362 . S
C336 C333 1.431 . S
C336 C346 1.476 . S
H337 C331 0.929 . S
C338 O329 1.250 . S
C338 O330 1.258 . S
O339 Mn324 2.162 . S
O339 C327 1.281 . S
O340 Mn324 2.297 . S
O340 C327 1.236 . S
N341 Mn325 2.282 . S
N341 C342 1.328 . S
N341 C346 1.318 . S
C342 N341 1.328 . S
C342 C343 1.457 . S
C342 H347 0.929 . S
C343 C342 1.457 . S
C343 C344 1.291 . S
C343 H356 0.931 . S
C344 C343 1.291 . S
C344 C345 1.373 . S
C344 H357 0.929 . S
C345 C344 1.373 . S
C345 C346 1.396 . S
C345 C352 1.403 . S
C346 C336 1.476 . S
C346 N341 1.318 . S
C346 C345 1.396 . S
H347 C342 0.929 . S
O348 Mn324 2.385 . S
O348 C326 1.234 . S
O349 Mn324 2.209 . S
O349 Mn325 2.215 . S
O349 C326 1.283 . S
O350 Mn324 2.094 . S
O350 C328 1.240 . S
O351 Mn325 2.117 . S
O351 C328 1.264 . S
C352 C345 1.403 . S
C352 C353 1.399 . S
C352 H358 0.929 . S
C353 C333 1.449 . S
C353 C352 1.399 . S
C353 H359 0.930 . S
H354 C334 0.931 . S
H355 C335 0.930 . S
H356 C343 0.931 . S
H357 C344 0.929 . S
H358 C352 0.929 . S
H359 C353 0.930 . S
Mn360 O365 2.095 . S
Mn360 O375 2.162 . S
Mn360 O376 2.297 . S
Mn360 O384 2.385 . S
Mn360 O385 2.209 . S
Mn360 O386 2.094 . S
Mn361 O366 2.121 . S
Mn361 N368 2.257 . S
Mn361 N377 2.282 . S
Mn361 O385 2.215 . S
Mn361 O387 2.117 . S
C362 O384 1.234 . S
C362 O385 1.283 . S
C363 O375 1.281 . S
C363 O376 1.236 . S
C364 O386 1.240 . S
C364 O387 1.264 . S
O365 Mn360 2.095 . S
O365 C374 1.250 . S
O366 Mn361 2.121 . S
O366 C374 1.258 . S
C367 N368 1.326 . S
C367 C371 1.460 . S
C367 H373 0.929 . S
N368 Mn361 2.257 . S
N368 C367 1.326 . S
N368 C372 1.362 . S
C369 C370 1.258 . S
C369 C372 1.431 . S
C369 C389 1.449 . S
C370 C369 1.258 . S
C370 C371 1.477 . S
C370 H390 0.931 . S
C371 C367 1.460 . S
C371 C370 1.477 . S
C371 H391 0.930 . S
C372 N368 1.362 . S
C372 C369 1.431 . S
C372 C382 1.476 . S
H373 C367 0.929 . S
C374 O365 1.250 . S
C374 O366 1.258 . S
O375 Mn360 2.162 . S
O375 C363 1.281 . S
O376 Mn360 2.297 . S
O376 C363 1.236 . S
N377 Mn361 2.282 . S
N377 C378 1.328 . S
N377 C382 1.318 . S
C378 N377 1.328 . S
C378 C379 1.457 . S
C378 H383 0.929 . S
C379 C378 1.457 . S
C379 C380 1.291 . S
C379 H392 0.931 1_554 S
C380 C379 1.291 . S
C380 C381 1.373 . S
C380 H393 0.930 1_554 S
C381 C380 1.373 . S
C381 C382 1.396 . S
C381 C388 1.403 . S
C382 C372 1.476 . S
C382 N377 1.318 . S
C382 C381 1.396 . S
H383 C378 0.929 . S
O384 Mn360 2.385 . S
O384 C362 1.234 . S
O385 Mn360 2.209 . S
O385 Mn361 2.215 . S
O385 C362 1.283 . S
O386 Mn360 2.094 . S
O386 C364 1.240 . S
O387 Mn361 2.117 . S
O387 C364 1.264 . S
C388 C381 1.403 . S
C388 C389 1.399 . S
C388 H394 0.929 . S
C389 C369 1.449 . S
C389 C388 1.399 . S
C389 H395 0.930 . S
H390 C370 0.931 . S
H391 C371 0.930 . S
H392 C379 0.931 1_556 S
H393 C380 0.930 1_556 S
H394 C388 0.929 . S
H395 C389 0.930 . S
Mn396 O401 2.095 . S
Mn396 O411 2.162 . S
Mn396 O412 2.297 . S
Mn396 O420 2.385 . S
Mn396 O421 2.209 . S
Mn396 O422 2.094 . S
Mn397 O402 2.121 . S
Mn397 N404 2.257 . S
Mn397 N413 2.282 . S
Mn397 O421 2.215 . S
Mn397 O423 2.117 . S
C398 O420 1.234 . S
C398 O421 1.283 . S
C399 O411 1.281 . S
C399 O412 1.236 . S
C400 O422 1.240 . S
C400 O423 1.264 . S
O401 Mn396 2.095 . S
O401 C410 1.250 . S
O402 Mn397 2.121 . S
O402 C410 1.258 . S
C403 N404 1.326 . S
C403 C407 1.460 . S
C403 H409 0.929 . S
N404 Mn397 2.257 . S
N404 C403 1.326 . S
N404 C408 1.362 . S
C405 C406 1.258 . S
C405 C408 1.431 . S
C405 C425 1.449 . S
C406 C405 1.258 . S
C406 C407 1.477 . S
C406 H426 0.931 . S
C407 C403 1.460 . S
C407 C406 1.477 . S
C407 H427 0.930 . S
C408 N404 1.362 . S
C408 C405 1.431 . S
C408 C418 1.476 . S
H409 C403 0.929 . S
C410 O401 1.250 . S
C410 O402 1.258 . S
O411 Mn396 2.162 . S
O411 C399 1.281 . S
O412 Mn396 2.297 . S
O412 C399 1.236 . S
N413 Mn397 2.282 . S
N413 C414 1.328 . S
N413 C418 1.318 . S
C414 N413 1.328 . S
C414 C415 1.457 . S
C414 H419 0.929 . S
C415 C414 1.457 . S
C415 C416 1.291 . S
C415 H428 0.931 . S
C416 C415 1.291 . S
C416 C417 1.373 . S
C416 H429 0.929 . S
C417 C416 1.373 . S
C417 C418 1.396 . S
C417 C424 1.403 . S
C418 C408 1.476 . S
C418 N413 1.318 . S
C418 C417 1.396 . S
H419 C414 0.929 . S
O420 Mn396 2.385 . S
O420 C398 1.234 . S
O421 Mn396 2.209 . S
O421 Mn397 2.215 . S
O421 C398 1.283 . S
O422 Mn396 2.094 . S
O422 C400 1.240 . S
O423 Mn397 2.117 . S
O423 C400 1.264 . S
C424 C417 1.403 . S
C424 C425 1.399 . S
C424 H430 0.929 . S
C425 C405 1.449 . S
C425 C424 1.399 . S
C425 H431 0.930 . S
H426 C406 0.931 . S
H427 C407 0.930 . S
H428 C415 0.931 . S
H429 C416 0.929 . S
H430 C424 0.929 . S
H431 C425 0.930 . S
H432 C444 0.930 . S
H433 C446 0.930 . S
H434 C447 0.930 . S
H435 C451 0.959 . S
H436 C451 0.959 . S
H437 C451 0.961 . S
H438 C452 0.960 . S
H439 C452 0.961 . S
H440 C452 0.959 . S
H441 C455 0.929 . S
H442 C456 0.931 . S
H443 C458 0.930 . S
C444 H432 0.930 . S
C444 C445 1.399 . S
C444 C449 1.399 . S
C445 C444 1.399 . S
C445 C446 1.376 . S
C446 H433 0.930 . S
C446 C445 1.376 . S
C446 C447 1.388 . S
C447 H434 0.930 . S
C447 C446 1.388 . S
C447 C448 1.390 . S
C448 C447 1.390 . S
C448 C449 1.394 . S
C448 C454 1.465 . S
C449 C444 1.399 . S
C449 C448 1.394 . S
C449 C450 1.516 . S
C450 C449 1.516 . S
C450 C451 1.502 . S
C450 C452 1.561 . S
C450 C453 1.526 . S
C451 H435 0.959 . S
C451 H436 0.959 . S
C451 H437 0.961 . S
C451 C450 1.502 . S
C452 H438 0.960 . S
C452 H439 0.961 . S
C452 H440 0.959 . S
C452 C450 1.561 . S
C453 C450 1.526 . S
C453 C454 1.396 . S
C453 C458 1.390 . S
C454 C448 1.465 . S
C454 C453 1.396 . S
C454 C455 1.399 . S
C455 H441 0.929 . S
C455 C454 1.399 . S
C455 C456 1.385 . S
C456 H442 0.931 . S
C456 C455 1.385 . S
C456 C457 1.389 . S
C457 C456 1.389 . S
C457 C458 1.387 . S
C458 H443 0.930 . S
C458 C453 1.390 . S
C458 C457 1.387 . S
H459 C471 0.930 . S
H460 C473 0.930 . S
H461 C474 0.930 . S
H462 C478 0.959 . S
H463 C478 0.959 . S
H464 C478 0.961 . S
H465 C479 0.960 . S
H466 C479 0.961 . S
H467 C479 0.959 . S
H468 C482 0.929 . S
H469 C483 0.931 . S
H470 C485 0.930 . S
C471 H459 0.930 . S
C471 C472 1.399 . S
C471 C476 1.399 . S
C472 C471 1.399 . S
C472 C473 1.376 . S
C473 H460 0.930 . S
C473 C472 1.376 . S
C473 C474 1.388 . S
C474 H461 0.930 . S
C474 C473 1.388 . S
C474 C475 1.390 . S
C475 C474 1.390 . S
C475 C476 1.394 . S
C475 C481 1.465 . S
C476 C471 1.399 . S
C476 C475 1.394 . S
C476 C477 1.516 . S
C477 C476 1.516 . S
C477 C478 1.502 . S
C477 C479 1.561 . S
C477 C480 1.526 . S
C478 H462 0.959 . S
C478 H463 0.959 . S
C478 H464 0.961 . S
C478 C477 1.502 . S
C479 H465 0.960 . S
C479 H466 0.961 . S
C479 H467 0.959 . S
C479 C477 1.561 . S
C480 C477 1.526 . S
C480 C481 1.396 . S
C480 C485 1.390 . S
C481 C475 1.465 . S
C481 C480 1.396 . S
C481 C482 1.399 . S
C482 H468 0.929 . S
C482 C481 1.399 . S
C482 C483 1.385 . S
C483 H469 0.931 . S
C483 C482 1.385 . S
C483 C484 1.389 . S
C484 C483 1.389 . S
C484 C485 1.387 . S
C485 H470 0.930 . S
C485 C480 1.390 . S
C485 C484 1.387 . S
H486 C498 0.930 . S
H487 C500 0.930 . S
H488 C501 0.930 . S
H489 C505 0.959 . S
H490 C505 0.959 . S
H491 C505 0.961 . S
H492 C506 0.960 . S
H493 C506 0.961 . S
H494 C506 0.959 . S
H495 C509 0.929 . S
H496 C510 0.931 . S
H497 C512 0.930 . S
C498 H486 0.930 . S
C498 C499 1.399 . S
C498 C503 1.399 . S
C499 C498 1.399 . S
C499 C500 1.376 . S
C500 H487 0.930 . S
C500 C499 1.376 . S
C500 C501 1.388 . S
C501 H488 0.930 . S
C501 C500 1.388 . S
C501 C502 1.390 . S
C502 C501 1.390 . S
C502 C503 1.394 . S
C502 C508 1.465 . S
C503 C498 1.399 . S
C503 C502 1.394 . S
C503 C504 1.516 . S
C504 C503 1.516 . S
C504 C505 1.502 . S
C504 C506 1.561 . S
C504 C507 1.526 . S
C505 H489 0.959 . S
C505 H490 0.959 . S
C505 H491 0.961 . S
C505 C504 1.502 . S
C506 H492 0.960 . S
C506 H493 0.961 . S
C506 H494 0.959 . S
C506 C504 1.561 . S
C507 C504 1.526 . S
C507 C508 1.396 . S
C507 C512 1.390 . S
C508 C502 1.465 . S
C508 C507 1.396 . S
C508 C509 1.399 . S
C509 H495 0.929 . S
C509 C508 1.399 . S
C509 C510 1.385 . S
C510 H496 0.931 . S
C510 C509 1.385 . S
C510 C511 1.389 . S
C511 C510 1.389 . S
C511 C512 1.387 . S
C512 H497 0.930 . S
C512 C507 1.390 . S
C512 C511 1.387 . S
H513 C525 0.930 . S
H514 C527 0.930 . S
H515 C528 0.930 . S
H516 C532 0.959 . S
H517 C532 0.959 . S
H518 C532 0.961 . S
H519 C533 0.960 . S
H520 C533 0.961 1_554 S
H521 C533 0.959 . S
H522 C536 0.929 . S
H523 C537 0.931 . S
H524 C539 0.930 . S
C525 H513 0.930 . S
C525 C526 1.399 . S
C525 C530 1.399 . S
C526 C525 1.399 . S
C526 C527 1.376 . S
C527 H514 0.930 . S
C527 C526 1.376 . S
C527 C528 1.388 . S
C528 H515 0.930 . S
C528 C527 1.388 . S
C528 C529 1.390 . S
C529 C528 1.390 . S
C529 C530 1.394 . S
C529 C535 1.465 . S
C530 C525 1.399 . S
C530 C529 1.394 . S
C530 C531 1.516 . S
C531 C530 1.516 . S
C531 C532 1.502 . S
C531 C533 1.561 . S
C531 C534 1.526 . S
C532 H516 0.959 . S
C532 H517 0.959 . S
C532 H518 0.961 . S
C532 C531 1.502 . S
C533 H519 0.960 . S
C533 H520 0.961 1_556 S
C533 H521 0.959 . S
C533 C531 1.561 . S
C534 C531 1.526 . S
C534 C535 1.396 . S
C534 C539 1.390 . S
C535 C529 1.465 . S
C535 C534 1.396 . S
C535 C536 1.399 . S
C536 H522 0.929 . S
C536 C535 1.399 . S
C536 C537 1.385 . S
C537 H523 0.931 . S
C537 C536 1.385 . S
C537 C538 1.389 . S
C538 C537 1.389 . S
C538 C539 1.387 . S
C539 H524 0.930 . S
C539 C534 1.390 . S
C539 C538 1.387 . S
H540 C552 0.930 . S
H541 C554 0.930 . S
H542 C555 0.930 . S
H543 C559 0.959 . S
H544 C559 0.959 . S
H545 C559 0.961 . S
H546 C560 0.960 1_556 S
H547 C560 0.961 . S
H548 C560 0.959 . S
H549 C563 0.929 . S
H550 C564 0.931 . S
H551 C566 0.930 . S
C552 H540 0.930 . S
C552 C553 1.399 . S
C552 C557 1.399 . S
C553 C552 1.399 . S
C553 C554 1.376 . S
C554 H541 0.930 . S
C554 C553 1.376 . S
C554 C555 1.388 . S
C555 H542 0.930 . S
C555 C554 1.388 . S
C555 C556 1.390 . S
C556 C555 1.390 . S
C556 C557 1.394 . S
C556 C562 1.465 . S
C557 C552 1.399 . S
C557 C556 1.394 . S
C557 C558 1.516 . S
C558 C557 1.516 . S
C558 C559 1.502 . S
C558 C560 1.561 . S
C558 C561 1.526 . S
C559 H543 0.959 . S
C559 H544 0.959 . S
C559 H545 0.961 . S
C559 C558 1.502 . S
C560 H546 0.960 1_554 S
C560 H547 0.961 . S
C560 H548 0.959 . S
C560 C558 1.561 . S
C561 C558 1.526 . S
C561 C562 1.396 . S
C561 C566 1.390 . S
C562 C556 1.465 . S
C562 C561 1.396 . S
C562 C563 1.399 . S
C563 H549 0.929 . S
C563 C562 1.399 . S
C563 C564 1.385 . S
C564 H550 0.931 . S
C564 C563 1.385 . S
C564 C565 1.389 . S
C565 C564 1.389 . S
C565 C566 1.387 . S
C566 H551 0.930 . S
C566 C561 1.390 . S
C566 C565 1.387 . S
H567 C579 0.930 . S
H568 C581 0.930 . S
H569 C582 0.930 . S
H570 C586 0.959 . S
H571 C586 0.959 . S
H572 C586 0.961 . S
H573 C587 0.960 . S
H574 C587 0.961 . S
H575 C587 0.959 . S
H576 C590 0.929 . S
H577 C591 0.931 . S
H578 C593 0.930 . S
C579 H567 0.930 . S
C579 C580 1.399 . S
C579 C584 1.399 . S
C580 C579 1.399 . S
C580 C581 1.376 . S
C581 H568 0.930 . S
C581 C580 1.376 . S
C581 C582 1.388 . S
C582 H569 0.930 . S
C582 C581 1.388 . S
C582 C583 1.390 . S
C583 C582 1.390 . S
C583 C584 1.394 . S
C583 C589 1.465 . S
C584 C579 1.399 . S
C584 C583 1.394 . S
C584 C585 1.516 . S
C585 C584 1.516 . S
C585 C586 1.502 . S
C585 C587 1.561 . S
C585 C588 1.526 . S
C586 H570 0.959 . S
C586 H571 0.959 . S
C586 H572 0.961 . S
C586 C585 1.502 . S
C587 H573 0.960 . S
C587 H574 0.961 . S
C587 H575 0.959 . S
C587 C585 1.561 . S
C588 C585 1.526 . S
C588 C589 1.396 . S
C588 C593 1.390 . S
C589 C583 1.465 . S
C589 C588 1.396 . S
C589 C590 1.399 . S
C590 H576 0.929 . S
C590 C589 1.399 . S
C590 C591 1.385 . S
C591 H577 0.931 . S
C591 C590 1.385 . S
C591 C592 1.389 . S
C592 C591 1.389 . S
C592 C593 1.387 . S
C593 H578 0.930 . S
C593 C588 1.390 . S
C593 C592 1.387 . S
H594 C606 0.930 . S
H595 C608 0.930 . S
H596 C609 0.930 . S
H597 C613 0.959 . S
H598 C613 0.959 . S
H599 C613 0.961 . S
H600 C614 0.960 . S
H601 C614 0.961 . S
H602 C614 0.959 . S
H603 C617 0.929 . S
H604 C618 0.931 . S
H605 C620 0.930 . S
C606 H594 0.930 . S
C606 C607 1.399 . S
C606 C611 1.399 . S
C607 C606 1.399 . S
C607 C608 1.376 . S
C608 H595 0.930 . S
C608 C607 1.376 . S
C608 C609 1.388 . S
C609 H596 0.930 . S
C609 C608 1.388 . S
C609 C610 1.390 . S
C610 C609 1.390 . S
C610 C611 1.394 . S
C610 C616 1.465 . S
C611 C606 1.399 . S
C611 C610 1.394 . S
C611 C612 1.516 . S
C612 C611 1.516 . S
C612 C613 1.502 . S
C612 C614 1.561 . S
C612 C615 1.526 . S
C613 H597 0.959 . S
C613 H598 0.959 . S
C613 H599 0.961 . S
C613 C612 1.502 . S
C614 H600 0.960 . S
C614 H601 0.961 . S
C614 H602 0.959 . S
C614 C612 1.561 . S
C615 C612 1.526 . S
C615 C616 1.396 . S
C615 C620 1.390 . S
C616 C610 1.465 . S
C616 C615 1.396 . S
C616 C617 1.399 . S
C617 H603 0.929 . S
C617 C616 1.399 . S
C617 C618 1.385 . S
C618 H604 0.931 . S
C618 C617 1.385 . S
C618 C619 1.389 . S
C619 C618 1.389 . S
C619 C620 1.387 . S
C620 H605 0.930 . S
C620 C615 1.390 . S
C620 C619 1.387 . S
H621 C633 0.930 . S
H622 C635 0.930 . S
H623 C636 0.930 . S
H624 C640 0.959 . S
H625 C640 0.959 . S
H626 C640 0.961 . S
H627 C641 0.960 . S
H628 C641 0.961 . S
H629 C641 0.959 . S
H630 C644 0.929 . S
H631 C645 0.931 . S
H632 C647 0.930 . S
C633 H621 0.930 . S
C633 C634 1.399 . S
C633 C638 1.399 . S
C634 C633 1.399 . S
C634 C635 1.376 . S
C635 H622 0.930 . S
C635 C634 1.376 . S
C635 C636 1.388 . S
C636 H623 0.930 . S
C636 C635 1.388 . S
C636 C637 1.390 . S
C637 C636 1.390 . S
C637 C638 1.394 . S
C637 C643 1.465 . S
C638 C633 1.399 . S
C638 C637 1.394 . S
C638 C639 1.516 . S
C639 C638 1.516 . S
C639 C640 1.502 . S
C639 C641 1.561 . S
C639 C642 1.526 . S
C640 H624 0.959 . S
C640 H625 0.959 . S
C640 H626 0.961 . S
C640 C639 1.502 . S
C641 H627 0.960 . S
C641 H628 0.961 . S
C641 H629 0.959 . S
C641 C639 1.561 . S
C642 C639 1.526 . S
C642 C643 1.396 . S
C642 C647 1.390 . S
C643 C637 1.465 . S
C643 C642 1.396 . S
C643 C644 1.399 . S
C644 H630 0.929 . S
C644 C643 1.399 . S
C644 C645 1.385 . S
C645 H631 0.931 . S
C645 C644 1.385 . S
C645 C646 1.389 . S
C646 C645 1.389 . S
C646 C647 1.387 . S
C647 H632 0.930 . S
C647 C642 1.390 . S
C647 C646 1.387 . S
H648 C660 0.930 . S
H649 C662 0.930 1_554 S
H650 C663 0.930 . S
H651 C667 0.959 . S
H652 C667 0.959 . S
H653 C667 0.961 . S
H654 C668 0.960 . S
H655 C668 0.961 . S
H656 C668 0.959 . S
H657 C671 0.929 . S
H658 C672 0.931 . S
H659 C674 0.930 . S
C660 H648 0.930 . S
C660 C661 1.399 . S
C660 C665 1.399 . S
C661 C660 1.399 . S
C661 C662 1.376 . S
C662 H649 0.930 1_556 S
C662 C661 1.376 . S
C662 C663 1.388 . S
C663 H650 0.930 . S
C663 C662 1.388 . S
C663 C664 1.390 . S
C664 C663 1.390 . S
C664 C665 1.394 . S
C664 C670 1.465 . S
C665 C660 1.399 . S
C665 C664 1.394 . S
C665 C666 1.516 . S
C666 C665 1.516 . S
C666 C667 1.502 . S
C666 C668 1.561 . S
C666 C669 1.526 . S
C667 H651 0.959 . S
C667 H652 0.959 . S
C667 H653 0.961 . S
C667 C666 1.502 . S
C668 H654 0.960 . S
C668 H655 0.961 . S
C668 H656 0.959 . S
C668 C666 1.561 . S
C669 C666 1.526 . S
C669 C670 1.396 . S
C669 C674 1.390 . S
C670 C664 1.465 . S
C670 C669 1.396 . S
C670 C671 1.399 . S
C671 H657 0.929 . S
C671 C670 1.399 . S
C671 C672 1.385 . S
C672 H658 0.931 . S
C672 C671 1.385 . S
C672 C673 1.389 . S
C673 C672 1.389 . S
C673 C674 1.387 . S
C674 H659 0.930 . S
C674 C669 1.390 . S
C674 C673 1.387 . S
H675 C687 0.930 . S
H676 C689 0.930 . S
H677 C690 0.930 . S
H678 C694 0.959 . S
H679 C694 0.959 . S
H680 C694 0.961 . S
H681 C695 0.960 . S
H682 C695 0.961 . S
H683 C695 0.959 . S
H684 C698 0.929 . S
H685 C699 0.949 . S
H686 C701 0.930 . S
C687 H675 0.930 . S
C687 C688 1.399 . S
C687 C692 1.399 . S
C688 C687 1.399 . S
C688 C689 1.376 . S
C689 H676 0.930 . S
C689 C688 1.376 . S
C689 C690 1.388 . S
C690 H677 0.930 . S
C690 C689 1.388 . S
C690 C691 1.390 . S
C691 C690 1.390 . S
C691 C692 1.394 . S
C691 C697 1.465 . S
C692 C687 1.399 . S
C692 C691 1.394 . S
C692 C693 1.516 . S
C693 C692 1.516 . S
C693 C694 1.502 . S
C693 C695 1.561 . S
C693 C696 1.526 . S
C694 H678 0.959 . S
C694 H679 0.959 . S
C694 H680 0.961 . S
C694 C693 1.502 . S
C695 H681 0.960 . S
C695 H682 0.961 . S
C695 H683 0.959 . S
C695 C693 1.561 . S
C696 C693 1.526 . S
C696 C697 1.396 . S
C696 C701 1.390 . S
C697 C691 1.465 . S
C697 C696 1.396 . S
C697 C698 1.399 . S
C698 H684 0.929 . S
C698 C697 1.399 . S
C698 C699 1.368 1_554 S
C699 H685 0.949 . S
C699 C698 1.368 1_556 S
C699 C700 1.389 1_556 S
C700 C699 1.389 1_554 S
C700 C701 1.406 . S
C701 H686 0.930 . S
C701 C696 1.390 . S
C701 C700 1.406 . S
H702 C714 0.930 . S
H703 C716 0.930 . S
H704 C717 0.930 . S
H705 C721 0.959 . S
H706 C721 0.959 . S
H707 C721 0.961 . S
H708 C722 0.960 . S
H709 C722 0.961 . S
H710 C722 0.959 . S
H711 C725 0.929 . S
H712 C726 0.931 . S
H713 C728 0.930 . S
C714 H702 0.930 . S
C714 C715 1.399 . S
C714 C719 1.399 . S
C715 C714 1.399 . S
C715 C716 1.376 . S
C716 H703 0.930 . S
C716 C715 1.376 . S
C716 C717 1.388 . S
C717 H704 0.930 . S
C717 C716 1.388 . S
C717 C718 1.390 . S
C718 C717 1.390 . S
C718 C719 1.394 . S
C718 C724 1.465 . S
C719 C714 1.399 . S
C719 C718 1.394 . S
C719 C720 1.516 . S
C720 C719 1.516 . S
C720 C721 1.502 . S
C720 C722 1.561 . S
C720 C723 1.526 . S
C721 H705 0.959 . S
C721 H706 0.959 . S
C721 H707 0.961 . S
C721 C720 1.502 . S
C722 H708 0.960 . S
C722 H709 0.961 . S
C722 H710 0.959 . S
C722 C720 1.561 . S
C723 C720 1.526 . S
C723 C724 1.396 . S
C723 C728 1.390 . S
C724 C718 1.465 . S
C724 C723 1.396 . S
C724 C725 1.399 . S
C725 H711 0.929 . S
C725 C724 1.399 . S
C725 C726 1.385 . S
C726 H712 0.931 . S
C726 C725 1.385 . S
C726 C727 1.389 . S
C727 C726 1.389 . S
C727 C728 1.387 . S
C728 H713 0.930 . S
C728 C723 1.390 . S
C728 C727 1.387 . S
H729 C741 0.930 . S
H730 C743 0.930 . S
H731 C744 0.930 . S
H732 C748 0.959 . S
H733 C748 0.959 . S
H734 C748 0.961 . S
H735 C749 0.960 . S
H736 C749 0.961 . S
H737 C749 0.959 . S
H738 C752 0.929 . S
H739 C753 0.931 . S
H740 C755 0.930 . S
C741 H729 0.930 . S
C741 C742 1.399 . S
C741 C746 1.399 . S
C742 C741 1.399 . S
C742 C743 1.376 . S
C743 H730 0.930 . S
C743 C742 1.376 . S
C743 C744 1.388 . S
C744 H731 0.930 . S
C744 C743 1.388 . S
C744 C745 1.390 . S
C745 C744 1.390 . S
C745 C746 1.394 . S
C745 C751 1.465 . S
C746 C741 1.399 . S
C746 C745 1.394 . S
C746 C747 1.516 . S
C747 C746 1.516 . S
C747 C748 1.502 . S
C747 C749 1.561 . S
C747 C750 1.526 . S
C748 H732 0.959 . S
C748 H733 0.959 . S
C748 H734 0.961 . S
C748 C747 1.502 . S
C749 H735 0.960 . S
C749 H736 0.961 . S
C749 H737 0.959 . S
C749 C747 1.561 . S
C750 C747 1.526 . S
C750 C751 1.396 . S
C750 C755 1.390 . S
C751 C745 1.465 . S
C751 C750 1.396 . S
C751 C752 1.399 . S
C752 H738 0.929 . S
C752 C751 1.399 . S
C752 C753 1.385 . S
C753 H739 0.931 . S
C753 C752 1.385 . S
C753 C754 1.389 . S
C754 C753 1.389 . S
C754 C755 1.387 . S
C755 H740 0.930 . S
C755 C750 1.390 . S
C755 C754 1.387 . S
H756 C768 0.930 . S
H757 C770 0.930 . S
H758 C771 0.930 . S
H759 C775 0.959 . S
H760 C775 0.959 . S
H761 C775 0.961 . S
H762 C776 0.960 . S
H763 C776 0.961 1_455 S
H764 C776 0.959 . S
H765 C779 0.929 . S
H766 C780 0.931 . S
H767 C782 0.930 . S
C768 H756 0.930 . S
C768 C769 1.399 . S
C768 C773 1.399 . S
C769 C768 1.399 . S
C769 C770 1.376 . S
C770 H757 0.930 . S
C770 C769 1.376 . S
C770 C771 1.388 . S
C771 H758 0.930 . S
C771 C770 1.388 . S
C771 C772 1.390 . S
C772 C771 1.390 . S
C772 C773 1.394 . S
C772 C778 1.465 1_655 S
C773 C768 1.399 . S
C773 C772 1.394 . S
C773 C774 1.516 . S
C774 C773 1.516 . S
C774 C775 1.502 . S
C774 C776 1.561 . S
C774 C777 1.526 1_655 S
C775 H759 0.959 . S
C775 H760 0.959 . S
C775 H761 0.961 . S
C775 C774 1.502 . S
C776 H762 0.960 . S
C776 H763 0.961 1_655 S
C776 H764 0.959 . S
C776 C774 1.561 . S
C777 C774 1.526 1_455 S
C777 C778 1.396 . S
C777 C782 1.390 . S
C778 C772 1.465 1_455 S
C778 C777 1.396 . S
C778 C779 1.399 . S
C779 H765 0.929 . S
C779 C778 1.399 . S
C779 C780 1.385 . S
C780 H766 0.931 . S
C780 C779 1.385 . S
C780 C781 1.389 . S
C781 C780 1.389 . S
C781 C782 1.387 . S
C782 H767 0.930 . S
C782 C777 1.390 . S
C782 C781 1.387 . S
H783 C795 0.930 . S
H784 C797 0.930 . S
H785 C798 0.930 . S
H786 C802 0.959 . S
H787 C802 0.959 . S
H788 C802 0.961 1_565 S
H789 C803 0.960 . S
H790 C803 0.961 . S
H791 C803 0.959 . S
H792 C806 0.929 . S
H793 C807 0.931 . S
H794 C809 0.930 . S
C795 H783 0.930 . S
C795 C796 1.399 . S
C795 C800 1.399 . S
C796 C795 1.399 . S
C796 C797 1.376 . S
C797 H784 0.930 . S
C797 C796 1.376 . S
C797 C798 1.388 . S
C798 H785 0.930 . S
C798 C797 1.388 . S
C798 C799 1.390 . S
C799 C798 1.390 . S
C799 C800 1.394 . S
C799 C805 1.465 1_565 S
C800 C795 1.399 . S
C800 C799 1.394 . S
C800 C801 1.516 1_565 S
C801 C800 1.516 1_545 S
C801 C802 1.502 . S
C801 C803 1.561 . S
C801 C804 1.526 . S
C802 H786 0.959 . S
C802 H787 0.959 . S
C802 H788 0.961 1_545 S
C802 C801 1.502 . S
C803 H789 0.960 . S
C803 H790 0.961 . S
C803 H791 0.959 . S
C803 C801 1.561 . S
C804 C801 1.526 . S
C804 C805 1.396 . S
C804 C809 1.390 . S
C805 C799 1.465 1_545 S
C805 C804 1.396 . S
C805 C806 1.399 . S
C806 H792 0.929 . S
C806 C805 1.399 . S
C806 C807 1.385 . S
C807 H793 0.931 . S
C807 C806 1.385 . S
C807 C808 1.389 . S
C808 C807 1.389 . S
C808 C809 1.387 . S
C809 H794 0.930 . S
C809 C804 1.390 . S
C809 C808 1.387 . S
H810 C822 0.930 . S
H811 C824 0.930 . S
H812 C825 0.930 . S
H813 C829 0.959 . S
H814 C829 0.959 . S
H815 C829 0.961 . S
H816 C830 0.960 . S
H817 C830 0.961 . S
H818 C830 0.959 . S
H819 C833 0.929 . S
H820 C834 0.931 . S
H821 C836 0.930 . S
C822 H810 0.930 . S
C822 C823 1.399 . S
C822 C827 1.399 . S
C823 C822 1.399 . S
C823 C824 1.376 . S
C824 H811 0.930 . S
C824 C823 1.376 . S
C824 C825 1.388 . S
C825 H812 0.930 . S
C825 C824 1.388 . S
C825 C826 1.390 . S
C826 C825 1.390 . S
C826 C827 1.394 . S
C826 C832 1.465 . S
C827 C822 1.399 . S
C827 C826 1.394 . S
C827 C828 1.516 . S
C828 C827 1.516 . S
C828 C829 1.502 . S
C828 C830 1.561 . S
C828 C831 1.526 . S
C829 H813 0.959 . S
C829 H814 0.959 . S
C829 H815 0.961 . S
C829 C828 1.502 . S
C830 H816 0.960 . S
C830 H817 0.961 . S
C830 H818 0.959 . S
C830 C828 1.561 . S
C831 C828 1.526 . S
C831 C832 1.396 . S
C831 C836 1.390 . S
C832 C826 1.465 . S
C832 C831 1.396 . S
C832 C833 1.399 . S
C833 H819 0.929 . S
C833 C832 1.399 . S
C833 C834 1.385 . S
C834 H820 0.931 . S
C834 C833 1.385 . S
C834 C835 1.389 . S
C835 C834 1.389 . S
C835 C836 1.387 . S
C836 H821 0.930 . S
C836 C831 1.390 . S
C836 C835 1.387 . S
H837 C849 0.930 . S
H838 C851 0.930 . S
H839 C852 0.930 . S
H840 C856 0.959 . S
H841 C856 0.959 . S
H842 C856 0.961 . S
H843 C857 0.960 . S
H844 C857 0.961 1_655 S
H845 C857 0.959 1_655 S
H846 C860 0.929 . S
H847 C861 0.931 . S
H848 C863 0.930 . S
C849 H837 0.930 . S
C849 C850 1.399 . S
C849 C854 1.399 . S
C850 C849 1.399 . S
C850 C851 1.376 . S
C851 H838 0.930 . S
C851 C850 1.376 . S
C851 C852 1.388 . S
C852 H839 0.930 . S
C852 C851 1.388 . S
C852 C853 1.390 . S
C853 C852 1.390 . S
C853 C854 1.394 . S
C853 C859 1.465 1_455 S
C854 C849 1.399 . S
C854 C853 1.394 . S
C854 C855 1.516 . S
C855 C854 1.516 . S
C855 C856 1.502 . S
C855 C857 1.561 . S
C855 C858 1.526 1_455 S
C856 H840 0.959 . S
C856 H841 0.959 . S
C856 H842 0.961 . S
C856 C855 1.502 . S
C857 H843 0.960 . S
C857 H844 0.961 1_455 S
C857 H845 0.959 1_455 S
C857 C855 1.561 . S
C858 C855 1.526 1_655 S
C858 C859 1.396 . S
C858 C863 1.390 . S
C859 C853 1.465 1_655 S
C859 C858 1.396 . S
C859 C860 1.399 . S
C860 H846 0.929 . S
C860 C859 1.399 . S
C860 C861 1.385 . S
C861 H847 0.931 . S
C861 C860 1.385 . S
C861 C862 1.389 . S
C862 C861 1.389 . S
C862 C863 1.387 . S
C863 H848 0.930 . S
C863 C858 1.390 . S
C863 C862 1.387 . S
H864 C876 0.930 . S
H865 C878 0.930 . S
H866 C879 0.930 . S
H867 C883 0.959 . S
H868 C883 0.959 . S
H869 C883 0.961 . S
H870 C884 0.960 1_545 S
H871 C884 0.961 . S
H872 C884 0.959 . S
H873 C887 0.929 . S
H874 C888 0.931 . S
H875 C890 0.930 1_556 S
C876 H864 0.930 . S
C876 C877 1.399 . S
C876 C881 1.399 . S
C877 C876 1.399 . S
C877 C878 1.376 1_556 S
C878 H865 0.930 . S
C878 C877 1.376 1_554 S
C878 C879 1.388 . S
C879 H866 0.930 . S
C879 C878 1.388 . S
C879 C880 1.390 . S
C880 C879 1.390 . S
C880 C881 1.394 1_554 S
C880 C886 1.465 1_545 S
C881 C876 1.399 . S
C881 C880 1.394 1_556 S
C881 C882 1.516 1_545 S
C882 C881 1.516 1_565 S
C882 C883 1.502 . S
C882 C884 1.561 . S
C882 C885 1.526 . S
C883 H867 0.959 . S
C883 H868 0.959 . S
C883 H869 0.961 . S
C883 C882 1.502 . S
C884 H870 0.960 1_565 S
C884 H871 0.961 . S
C884 H872 0.959 . S
C884 C882 1.561 . S
C885 C882 1.526 . S
C885 C886 1.396 1_556 S
C885 C890 1.390 1_556 S
C886 C880 1.465 1_565 S
C886 C885 1.396 1_554 S
C886 C887 1.399 . S
C887 H873 0.929 . S
C887 C886 1.399 . S
C887 C888 1.385 . S
C888 H874 0.931 . S
C888 C887 1.385 . S
C888 C889 1.389 . S
C889 C888 1.389 . S
C889 C890 1.387 . S
C890 H875 0.930 1_554 S
C890 C885 1.390 1_554 S
C890 C889 1.387 . S
H891 C903 0.930 . S
H892 C905 0.930 . S
H893 C906 0.930 . S
H894 C910 0.959 . S
H895 C910 0.959 . S
H896 C910 0.961 . S
H897 C911 0.960 . S
H898 C911 0.961 . S
H899 C911 0.959 . S
H900 C914 0.929 . S
H901 C915 0.931 . S
H902 C917 0.930 . S
C903 H891 0.930 . S
C903 C904 1.399 . S
C903 C908 1.399 . S
C904 C903 1.399 . S
C904 C905 1.376 . S
C905 H892 0.930 . S
C905 C904 1.376 . S
C905 C906 1.388 . S
C906 H893 0.930 . S
C906 C905 1.388 . S
C906 C907 1.390 . S
C907 C906 1.390 . S
C907 C908 1.394 . S
C907 C913 1.465 . S
C908 C903 1.399 . S
C908 C907 1.394 . S
C908 C909 1.516 . S
C909 C908 1.516 . S
C909 C910 1.502 . S
C909 C911 1.561 . S
C909 C912 1.526 . S
C910 H894 0.959 . S
C910 H895 0.959 . S
C910 H896 0.961 . S
C910 C909 1.502 . S
C911 H897 0.960 . S
C911 H898 0.961 . S
C911 H899 0.959 . S
C911 C909 1.561 . S
C912 C909 1.526 . S
C912 C913 1.396 . S
C912 C917 1.390 . S
C913 C907 1.465 . S
C913 C912 1.396 . S
C913 C914 1.399 . S
C914 H900 0.929 . S
C914 C913 1.399 . S
C914 C915 1.385 . S
C915 H901 0.931 . S
C915 C914 1.385 . S
C915 C916 1.389 . S
C916 C915 1.389 . S
C916 C917 1.387 . S
C917 H902 0.930 . S
C917 C912 1.390 . S
C917 C916 1.387 . S
H918 C930 0.930 . S
H919 C932 0.930 . S
H920 C933 0.930 . S
H921 C937 0.959 . S
H922 C937 0.959 . S
H923 C937 0.961 . S
H924 C938 0.960 . S
H925 C938 0.961 . S
H926 C938 0.959 . S
H927 C941 0.929 . S
H928 C942 0.931 . S
H929 C944 0.930 . S
C930 H918 0.930 . S
C930 C931 1.399 . S
C930 C935 1.399 . S
C931 C930 1.399 . S
C931 C932 1.376 . S
C932 H919 0.930 . S
C932 C931 1.376 . S
C932 C933 1.388 . S
C933 H920 0.930 . S
C933 C932 1.388 . S
C933 C934 1.390 . S
C934 C933 1.390 . S
C934 C935 1.394 . S
C934 C940 1.465 . S
C935 C930 1.399 . S
C935 C934 1.394 . S
C935 C936 1.516 . S
C936 C935 1.516 . S
C936 C937 1.502 . S
C936 C938 1.561 . S
C936 C939 1.526 . S
C937 H921 0.959 . S
C937 H922 0.959 . S
C937 H923 0.961 . S
C937 C936 1.502 . S
C938 H924 0.960 . S
C938 H925 0.961 . S
C938 H926 0.959 . S
C938 C936 1.561 . S
C939 C936 1.526 . S
C939 C940 1.396 . S
C939 C944 1.390 . S
C940 C934 1.465 . S
C940 C939 1.396 . S
C940 C941 1.399 . S
C941 H927 0.929 . S
C941 C940 1.399 . S
C941 C942 1.385 . S
C942 H928 0.931 . S
C942 C941 1.385 . S
C942 C943 1.389 . S
C943 C942 1.389 . S
C943 C944 1.387 . S
C944 H929 0.930 . S
C944 C939 1.390 . S
C944 C943 1.387 . S
H945 C957 0.930 . S
H946 C959 0.930 . S
H947 C960 0.930 . S
H948 C964 0.959 . S
H949 C964 0.959 . S
H950 C964 0.961 . S
H951 C965 0.960 . S
H952 C965 0.961 . S
H953 C965 0.959 . S
H954 C968 0.929 . S
H955 C969 0.931 . S
H956 C971 0.930 . S
C957 H945 0.930 . S
C957 C958 1.399 . S
C957 C962 1.399 . S
C958 C957 1.399 . S
C958 C959 1.376 . S
C959 H946 0.930 . S
C959 C958 1.376 . S
C959 C960 1.388 . S
C960 H947 0.930 . S
C960 C959 1.388 . S
C960 C961 1.390 . S
C961 C960 1.390 . S
C961 C962 1.394 . S
C961 C967 1.465 . S
C962 C957 1.399 . S
C962 C961 1.394 . S
C962 C963 1.516 . S
C963 C962 1.516 . S
C963 C964 1.502 . S
C963 C965 1.561 . S
C963 C966 1.526 . S
C964 H948 0.959 . S
C964 H949 0.959 . S
C964 H950 0.961 . S
C964 C963 1.502 . S
C965 H951 0.960 . S
C965 H952 0.961 . S
C965 H953 0.959 . S
C965 C963 1.561 . S
C966 C963 1.526 . S
C966 C967 1.396 . S
C966 C971 1.390 . S
C967 C961 1.465 . S
C967 C966 1.396 . S
C967 C968 1.399 . S
C968 H954 0.929 . S
C968 C967 1.399 . S
C968 C969 1.385 . S
C969 H955 0.931 . S
C969 C968 1.385 . S
C969 C970 1.389 . S
C970 C969 1.389 . S
C970 C971 1.387 . S
C971 H956 0.930 . S
C971 C966 1.390 . S
C971 C970 1.387 . S
H972 C984 0.930 . S
H973 C986 0.930 . S
H974 C987 0.930 . S
H975 C991 0.959 . S
H976 C991 0.959 . S
H977 C991 0.961 . S
H978 C992 0.960 . S
H979 C992 0.961 . S
H980 C992 0.959 . S
H981 C995 0.929 . S
H982 C996 0.931 . S
H983 C998 0.930 . S
C984 H972 0.930 . S
C984 C985 1.399 . S
C984 C989 1.399 . S
C985 C984 1.399 . S
C985 C986 1.376 . S
C986 H973 0.930 . S
C986 C985 1.376 . S
C986 C987 1.388 . S
C987 H974 0.930 . S
C987 C986 1.388 . S
C987 C988 1.390 . S
C988 C987 1.390 . S
C988 C989 1.394 . S
C988 C994 1.465 . S
C989 C984 1.399 . S
C989 C988 1.394 . S
C989 C990 1.516 . S
C990 C989 1.516 . S
C990 C991 1.502 . S
C990 C992 1.561 . S
C990 C993 1.526 . S
C991 H975 0.959 . S
C991 H976 0.959 . S
C991 H977 0.961 . S
C991 C990 1.502 . S
C992 H978 0.960 . S
C992 H979 0.961 . S
C992 H980 0.959 . S
C992 C990 1.561 . S
C993 C990 1.526 . S
C993 C994 1.396 . S
C993 C998 1.390 . S
C994 C988 1.465 . S
C994 C993 1.396 . S
C994 C995 1.399 . S
C995 H981 0.929 . S
C995 C994 1.399 . S
C995 C996 1.385 . S
C996 H982 0.931 . S
C996 C995 1.385 . S
C996 C997 1.389 . S
C997 C996 1.389 . S
C997 C998 1.387 . S
C998 H983 0.930 . S
C998 C993 1.390 . S
C998 C997 1.387 . S
H999 C1011 0.930 . S
H1000 C1013 0.930 . S
H1001 C1014 0.930 . S
H1002 C1018 0.959 . S
H1003 C1018 0.959 . S
H1004 C1018 0.961 . S
H1005 C1019 0.960 . S
H1006 C1019 0.961 . S
H1007 C1019 0.959 . S
H1008 C1022 0.929 . S
H1009 C1023 0.931 . S
H1010 C1025 0.930 . S
C1011 H999 0.930 . S
C1011 C1012 1.399 . S
C1011 C1016 1.399 . S
C1012 C1011 1.399 . S
C1012 C1013 1.376 . S
C1013 H1000 0.930 . S
C1013 C1012 1.376 . S
C1013 C1014 1.388 . S
C1014 H1001 0.930 . S
C1014 C1013 1.388 . S
C1014 C1015 1.390 . S
C1015 C1014 1.390 . S
C1015 C1016 1.394 . S
C1015 C1021 1.465 . S
C1016 C1011 1.399 . S
C1016 C1015 1.394 . S
C1016 C1017 1.516 . S
C1017 C1016 1.516 . S
C1017 C1018 1.502 . S
C1017 C1019 1.561 . S
C1017 C1020 1.526 . S
C1018 H1002 0.959 . S
C1018 H1003 0.959 . S
C1018 H1004 0.961 . S
C1018 C1017 1.502 . S
C1019 H1005 0.960 . S
C1019 H1006 0.961 . S
C1019 H1007 0.959 . S
C1019 C1017 1.561 . S
C1020 C1017 1.526 . S
C1020 C1021 1.396 . S
C1020 C1025 1.390 . S
C1021 C1015 1.465 . S
C1021 C1020 1.396 . S
C1021 C1022 1.399 . S
C1022 H1008 0.929 . S
C1022 C1021 1.399 . S
C1022 C1023 1.385 . S
C1023 H1009 0.931 . S
C1023 C1022 1.385 . S
C1023 C1024 1.389 . S
C1024 C1023 1.389 . S
C1024 C1025 1.387 . S
C1025 H1010 0.930 . S
C1025 C1020 1.390 . S
C1025 C1024 1.387 . S
H1026 C1038 0.930 . S
H1027 C1040 0.930 . S
H1028 C1041 0.930 . S
H1029 C1045 0.959 . S
H1030 C1045 0.959 . S
H1031 C1045 0.961 . S
H1032 C1046 0.960 . S
H1033 C1046 0.961 . S
H1034 C1046 0.959 . S
H1035 C1049 0.929 . S
H1036 C1050 0.931 . S
H1037 C1052 0.930 . S
C1038 H1026 0.930 . S
C1038 C1039 1.399 . S
C1038 C1043 1.399 . S
C1039 C1038 1.399 . S
C1039 C1040 1.376 . S
C1040 H1027 0.930 . S
C1040 C1039 1.376 . S
C1040 C1041 1.388 . S
C1041 H1028 0.930 . S
C1041 C1040 1.388 . S
C1041 C1042 1.390 . S
C1042 C1041 1.390 . S
C1042 C1043 1.394 . S
C1042 C1048 1.465 . S
C1043 C1038 1.399 . S
C1043 C1042 1.394 . S
C1043 C1044 1.516 . S
C1044 C1043 1.516 . S
C1044 C1045 1.502 . S
C1044 C1046 1.561 . S
C1044 C1047 1.526 . S
C1045 H1029 0.959 . S
C1045 H1030 0.959 . S
C1045 H1031 0.961 . S
C1045 C1044 1.502 . S
C1046 H1032 0.960 . S
C1046 H1033 0.961 . S
C1046 H1034 0.959 . S
C1046 C1044 1.561 . S
C1047 C1044 1.526 . S
C1047 C1048 1.396 . S
C1047 C1052 1.390 . S
C1048 C1042 1.465 . S
C1048 C1047 1.396 . S
C1048 C1049 1.399 . S
C1049 H1035 0.929 . S
C1049 C1048 1.399 . S
C1049 C1050 1.385 . S
C1050 H1036 0.931 . S
C1050 C1049 1.385 . S
C1050 C1051 1.389 . S
C1051 C1050 1.389 . S
C1051 C1052 1.387 . S
C1052 H1037 0.930 . S
C1052 C1047 1.390 . S
C1052 C1051 1.387 . S
H1053 C1065 0.930 . S
H1054 C1067 0.930 . S
H1055 C1068 0.930 . S
H1056 C1072 0.959 . S
H1057 C1072 0.959 . S
H1058 C1072 0.961 . S
H1059 C1073 0.960 . S
H1060 C1073 0.961 . S
H1061 C1073 0.959 . S
H1062 C1076 0.929 . S
H1063 C1077 0.931 1_556 S
H1064 C1079 0.930 . S
C1065 H1053 0.930 . S
C1065 C1066 1.399 . S
C1065 C1070 1.399 . S
C1066 C1065 1.399 . S
C1066 C1067 1.376 . S
C1067 H1054 0.930 . S
C1067 C1066 1.376 . S
C1067 C1068 1.388 . S
C1068 H1055 0.930 . S
C1068 C1067 1.388 . S
C1068 C1069 1.390 . S
C1069 C1068 1.390 . S
C1069 C1070 1.394 . S
C1069 C1075 1.465 . S
C1070 C1065 1.399 . S
C1070 C1069 1.394 . S
C1070 C1071 1.516 . S
C1071 C1070 1.516 . S
C1071 C1072 1.502 . S
C1071 C1073 1.561 . S
C1071 C1074 1.526 . S
C1072 H1056 0.959 . S
C1072 H1057 0.959 . S
C1072 H1058 0.961 . S
C1072 C1071 1.502 . S
C1073 H1059 0.960 . S
C1073 H1060 0.961 . S
C1073 H1061 0.959 . S
C1073 C1071 1.561 . S
C1074 C1071 1.526 . S
C1074 C1075 1.396 . S
C1074 C1079 1.390 . S
C1075 C1069 1.465 . S
C1075 C1074 1.396 . S
C1075 C1076 1.399 . S
C1076 H1062 0.929 . S
C1076 C1075 1.399 . S
C1076 C1077 1.385 . S
C1077 H1063 0.931 1_554 S
C1077 C1076 1.385 . S
C1077 C1078 1.389 . S
C1078 C1077 1.389 . S
C1078 C1079 1.387 . S
C1079 H1064 0.930 . S
C1079 C1074 1.390 . S
C1079 C1078 1.387 . S
C445 C2 0.698 . S
C457 C218 0.712 . S
C472 C38 0.594 . S
C484 C254 0.532 . S
C499 C290 0.713 . S
C511 C74 0.671 . S
C526 C110 0.593 . S
C538 C326 0.531 . S
C553 C146 0.667 . S
C565 C362 0.709 . S
C580 C398 0.638 . S
C592 C182 0.563 . S
C607 C292 1.321 . S
C619 C4 1.422 . S
C634 C40 1.324 . S
C646 C328 1.420 . S
C661 C364 1.344 1_556 S
C673 C76 1.391 . S
C688 C400 1.425 . S
C700 C112 1.296 1_554 S
C715 C148 1.394 . S
C727 C220 1.343 . S
C742 C184 1.425 . S
C754 C256 1.317 . S
C769 C410 1.171 . S
C781 C14 1.234 . S
C796 C230 1.198 . S
C808 C50 1.172 . S
C823 C86 1.226 . S
C835 C266 1.168 . S
C850 C302 1.168 . S
C862 C122 1.228 . S
C877 C338 1.240 . S
C889 C158 1.178 . S
C904 C374 1.245 . S
C916 C194 1.193 . S
C931 C3 1.564 . S
C943 C363 1.564 . S
C958 C399 1.579 . S
C970 C39 1.578 . S
C985 C75 1.576 . S
C997 C219 1.578 . S
C1012 C111 1.592 . S
C1024 C255 1.593 . S
C1039 C147 1.593 1_556 S
C1051 C291 1.594 . S
C1066 C183 1.580 . S
C1078 C327 1.583 1_554 S
