# Generated by pormake.
# Topology snp, (6)-cn, num edge types: 1
# Building blocks:
#     Node 0, Type 0, BuildingBlock: KUMBUR_clean_sbu_0, # of connection points: 6
#     Node 1, Type 0, BuildingBlock: KUMBUR_clean_sbu_0, # of connection points: 6
#     Node 2, Type 0, BuildingBlock: KUMBUR_clean_sbu_0, # of connection points: 6
#     Node 3, Type 0, BuildingBlock: KUMBUR_clean_sbu_0, # of connection points: 6
#     Edge 4, Type (0, 0), BuildingBlock: FUNLAD_clean_linker_1, # of connection points: 2
#     Edge 5, Type (0, 0), BuildingBlock: FUNLAD_clean_linker_1, # of connection points: 2
#     Edge 6, Type (0, 0), BuildingBlock: FUNLAD_clean_linker_1, # of connection points: 2
#     Edge 7, Type (0, 0), BuildingBlock: FUNLAD_clean_linker_1, # of connection points: 2
#     Edge 8, Type (0, 0), BuildingBlock: FUNLAD_clean_linker_1, # of connection points: 2
#     Edge 9, Type (0, 0), BuildingBlock: FUNLAD_clean_linker_1, # of connection points: 2
#     Edge 10, Type (0, 0), BuildingBlock: FUNLAD_clean_linker_1, # of connection points: 2
#     Edge 11, Type (0, 0), BuildingBlock: FUNLAD_clean_linker_1, # of connection points: 2
#     Edge 12, Type (0, 0), BuildingBlock: FUNLAD_clean_linker_1, # of connection points: 2
#     Edge 13, Type (0, 0), BuildingBlock: FUNLAD_clean_linker_1, # of connection points: 2
#     Edge 14, Type (0, 0), BuildingBlock: FUNLAD_clean_linker_1, # of connection points: 2
#     Edge 15, Type (0, 0), BuildingBlock: FUNLAD_clean_linker_1, # of connection points: 2
# Relax obj value: 0.229
# Max RMSD: 0.257
# Mean RMSD: 0.232
data_MOF--net-snp--node1-KUMBUR_clean_sbu_0--edge1-FUNLAD_clean_linker_1
_symmetry_space_group_name_H-M    P1
_symmetry_Int_Tables_number       1
_symmetry_cell_setting            triclinic
loop_
_symmetry_equiv_pos_as_xyz
'x, y, z'
_cell_length_a     25.696003
_cell_length_b     26.67012
_cell_length_c     34.427985
_cell_angle_alpha  115.96851
_cell_angle_beta   98.714195
_cell_angle_gamma 93.873096
loop_
_atom_site_label
_atom_site_type_symbol
_atom_site_fract_x
_atom_site_fract_y
_atom_site_fract_z
_atom_type_partial_charge
Tb0 Tb 0.36772 0.16585 0.22701 0.0
C1 C 0.43059 0.9405 0.21509 0.0
C2 C 0.37248 0.86666 0.15011 0.0
C3 C 0.46078 0.85089 0.17494 0.0
C4 C 0.38282 0.92172 0.18532 0.0
C5 C 0.4701 0.9053 0.21061 0.0
C6 C 0.412 0.83158 0.14473 0.0
C7 C 0.52398 0.97958 0.27775 0.0
N8 N 0.43794 0.99338 0.24892 0.0
C9 C 0.48348 1.01286 0.28081 0.0
C10 C 0.51744 0.92569 0.24235 0.0
Tb11 Tb 0.36965 0.04499 0.25048 0.0
N12 N 0.34577 0.95688 0.19185 0.0
C13 C 0.29609 0.93819 0.16559 0.0
C14 C 0.32243 0.84826 0.12192 0.0
C15 C 0.2839 0.88406 0.12997 0.0
H16 H 0.48937 0.05448 0.30821 0.0
H17 H 0.24476 0.87002 0.10879 0.0
H18 H 0.40498 0.78927 0.1177 0.0
H19 H 0.56025 0.99555 0.3027 0.0
H20 H 0.26585 0.96514 0.17143 0.0
H21 H 0.50795 0.32362 0.36868 0.0
H22 H 0.3129 0.80633 0.09437 0.0
H23 H 0.24966 0.17135 0.17646 0.0
H24 H 0.47772 0.23142 0.30322 0.0
H25 H 0.18453 0.23797 0.1896 0.0
H26 H 0.49072 0.82323 0.17074 0.0
H27 H 0.44697 0.39475 0.39018 0.0
H28 H 0.35777 0.4227 0.37358 0.0
H29 H 0.54885 0.9 0.24011 0.0
H30 H 0.26924 0.39897 0.32547 0.0
N31 N 0.3995 0.24901 0.28896 0.0
C32 C 0.45044 0.26173 0.3126 0.0
C33 C 0.43325 0.35406 0.36174 0.0
C34 C 0.38174 0.34147 0.33643 0.0
C35 C 0.4678 0.31403 0.34967 0.0
C36 C 0.36583 0.2878 0.29995 0.0
H37 H 0.20416 0.3301 0.25668 0.0
N38 N 0.30415 0.22371 0.23676 0.0
C39 C 0.22137 0.24878 0.2134 0.0
C40 C 0.31636 0.27471 0.27284 0.0
C41 C 0.25833 0.21108 0.2061 0.0
C42 C 0.23254 0.30065 0.25135 0.0
C43 C 0.28097 0.31462 0.28126 0.0
O44 O 0.35665 0.16635 0.16567 0.0
O45 O 0.36209 0.07589 0.20174 0.0
O46 O 0.43733 0.04799 0.22011 0.0
O47 O 0.4489 0.14252 0.2334 0.0
O48 O 0.31597 0.10415 0.16497 0.0
O49 O 0.42724 0.21296 0.21511 0.0
O50 O 0.37349 0.04682 0.31253 0.0
O51 O 0.37469 0.13392 0.27407 0.0
O52 O 0.29792 0.15729 0.25384 0.0
O53 O 0.28805 0.06067 0.23269 0.0
O54 O 0.41786 0.10967 0.31397 0.0
O55 O 0.30433 1.00319 0.26068 0.0
C56 C 0.32951 0.05898 0.16573 0.0
C57 C 0.39387 0.24831 0.1648 0.0
C58 C 0.38146 0.28079 0.10794 0.0
C59 C 0.39396 0.23933 0.12132 0.0
C60 C 0.37132 0.3327 0.13956 0.0
C61 C 0.38373 0.30038 0.19562 0.0
C62 C 0.37276 0.34232 0.18305 0.0
C63 C 0.46491 0.09215 0.22069 0.0
C64 C 0.40008 0.20135 0.1761 0.0
C65 C 0.29587 0.36767 0.31831 0.0
C66 C 0.34629 0.38118 0.34569 0.0
C67 C 0.40235 0.15356 0.31213 0.0
C68 C 0.32366 0.97152 0.31521 0.0
C69 C 0.29805 0.97847 0.35026 0.0
C70 C 0.29686 0.93794 0.36617 0.0
C71 C 0.32073 0.88948 0.34547 0.0
C72 C 0.34754 0.92328 0.29548 0.0
C73 C 0.34584 0.88243 0.31049 0.0
C74 C 0.26822 0.10859 0.24222 0.0
C75 C 0.32698 0.01623 0.30114 0.0
H76 H 0.40262 0.19949 0.09764 0.0
H77 H 0.36337 0.36646 0.13118 0.0
H78 H 0.3841 0.30863 0.2293 0.0
H79 H 0.36512 0.38247 0.2071 0.0
H80 H 0.27966 1.01591 0.36558 0.0
H81 H 0.3193 0.85629 0.35546 0.0
H82 H 0.36749 0.91724 0.26861 0.0
H83 H 0.36401 0.84502 0.29487 0.0
Tb84 Tb 0.0827 0.2631 0.57073 0.0
C85 C 0.31049 0.30663 0.60332 0.0
C86 C 0.35575 0.22714 0.5951 0.0
C87 C 0.38811 0.29217 0.56911 0.0
C88 C 0.31348 0.25792 0.60742 0.0
C89 C 0.34845 0.32507 0.58484 0.0
C90 C 0.39187 0.24326 0.57436 0.0
C91 C 0.30653 0.4081 0.60047 0.0
N92 N 0.27079 0.33652 0.61815 0.0
C93 C 0.26964 0.38788 0.61826 0.0
C94 C 0.34561 0.37617 0.58304 0.0
Tb95 Tb 0.21001 0.2964 0.64336 0.0
N96 N 0.27785 0.24378 0.62749 0.0
C97 C 0.2883 0.20639 0.6438 0.0
C98 C 0.36214 0.18323 0.60635 0.0
C99 C 0.32945 0.17418 0.63223 0.0
H100 H 0.24076 0.41403 0.63179 0.0
H101 H 0.33676 0.14305 0.64364 0.0
H102 H 0.42388 0.21938 0.56372 0.0
H103 H 0.30464 0.44833 0.60013 0.0
H104 H 0.26398 0.20156 0.66514 0.0
H105 H 0.97304 0.3853 0.69261 0.0
H106 H 0.39414 0.15854 0.59764 0.0
H107 H 0.05273 0.13544 0.48705 0.0
H108 H 0.04852 0.36773 0.65466 0.0
H109 H 0.97804 0.05663 0.4546 0.0
H110 H 0.41691 0.30502 0.554 0.0
H111 H 0.89762 0.30892 0.66961 0.0
H112 H 0.85344 0.21021 0.6164 0.0
H113 H 0.37385 0.39176 0.56902 0.0
H114 H 0.85488 0.12051 0.55163 0.0
N115 N 0.01821 0.28112 0.61198 0.0
C116 C 0.01655 0.33368 0.64461 0.0
C117 C 0.93123 0.30066 0.6533 0.0
C118 C 0.9319 0.24782 0.61841 0.0
C119 C 0.97363 0.3439 0.66626 0.0
C120 C 0.97679 0.23915 0.59855 0.0
H121 H 0.90087 0.06312 0.49084 0.0
N122 N 0.02044 0.18396 0.54315 0.0
C123 C 0.97758 0.09335 0.4852 0.0
C124 C 0.97783 0.18875 0.56265 0.0
C125 C 0.02006 0.13779 0.50393 0.0
C126 C 0.9342 0.09713 0.50578 0.0
C127 C 0.93361 0.14552 0.5447 0.0
O128 O 0.05503 0.24657 0.5046 0.0
O129 O 0.1672 0.29016 0.58178 0.0
O130 O 0.17834 0.37633 0.65935 0.0
O131 O 0.10769 0.35343 0.60051 0.0
O132 O 0.12913 0.22745 0.51982 0.0
O133 O 0.03805 0.31952 0.55856 0.0
O134 O 0.26806 0.36051 0.69471 0.0
O135 O 0.1235 0.28712 0.63755 0.0
O136 O 0.10562 0.18385 0.56922 0.0
O137 O 0.19846 0.20634 0.59523 0.0
O138 O 0.16716 0.24514 0.66639 0.0
O139 O 0.21891 0.30449 0.70783 0.0
C140 C 0.17359 0.25873 0.54304 0.0
C141 C 0.97438 0.28024 0.49167 0.0
C142 C 0.91446 0.26586 0.42424 0.0
C143 C 0.96589 0.27048 0.44753 0.0
C144 C 0.87107 0.26966 0.44537 0.0
C145 C 0.93061 0.28412 0.51231 0.0
C146 C 0.87927 0.27855 0.48911 0.0
C147 C 0.14181 0.39032 0.63594 0.0
C148 C 0.02942 0.28959 0.51597 0.0
C149 C 0.88919 0.15327 0.56482 0.0
C150 C 0.88833 0.20438 0.60163 0.0
C151 C 0.12013 0.25624 0.65696 0.0
C152 C 0.30567 0.33322 0.74925 0.0
C153 C 0.29981 0.32796 0.78745 0.0
C154 C 0.34136 0.31377 0.81072 0.0
C155 C 0.38956 0.30601 0.79555 0.0
C156 C 0.35403 0.32499 0.73477 0.0
C157 C 0.39562 0.31153 0.75788 0.0
C158 C 0.15384 0.16963 0.57484 0.0
C159 C 0.25968 0.34357 0.72368 0.0
H160 H -0.00039 0.26757 0.43152 0.0
H161 H 0.83078 0.26469 0.428 0.0
H162 H 0.936 0.29208 0.54639 0.0
H163 H 0.8457 0.28132 0.50515 0.0
H164 H 0.26243 0.33404 0.79866 0.0
H165 H 0.42319 0.29689 0.8131 0.0
H166 H 0.35961 0.32841 0.70542 0.0
H167 H 0.43285 0.30543 0.74656 0.0
Tb168 Tb 0.84248 0.12491 1.00961 0.0
C169 C 0.91507 0.91029 1.00436 0.0
C170 C 0.85525 0.83563 0.94102 0.0
C171 C 0.94458 0.82038 0.96399 0.0
C172 C 0.86621 0.89102 0.97577 0.0
C173 C 0.95461 0.87504 0.99934 0.0
C174 C 0.89494 0.80067 0.93494 0.0
C175 C 0.00894 0.94876 0.0667 0.0
N176 N 0.92306 0.96308 0.03822 0.0
C177 C 0.96814 0.98173 0.07046 0.0
C178 C 0.00239 0.89534 0.03069 0.0
Tb179 Tb 0.85381 1.0133 0.04228 0.0
N180 N 0.8287 0.92579 0.98319 0.0
C181 C 0.77851 0.90694 0.9577 0.0
C182 C 0.8044 0.81671 0.91406 0.0
C183 C 0.76584 0.85249 0.92256 0.0
H184 H 0.97287 0.02263 0.09853 0.0
H185 H 0.72624 0.83807 0.90213 0.0
H186 H 0.88734 0.75804 0.90832 0.0
H187 H 0.04519 0.96442 0.09169 0.0
H188 H 0.74809 0.93381 0.96387 0.0
H189 H 0.95387 0.31443 0.14731 0.0
H190 H 0.79439 0.77447 0.88694 0.0
H191 H 0.72494 0.10221 0.94438 0.0
H192 H 0.93929 0.21529 0.09171 0.0
H193 H 0.6498 0.15391 0.94147 0.0
H194 H 0.9745 0.79266 0.95937 0.0
H195 H 0.88119 0.372 0.15308 0.0
H196 H 0.78766 0.37915 0.12359 0.0
H197 H 0.03383 0.86961 0.02798 0.0
H198 H 0.7048 0.33543 0.0675 0.0
N199 N 0.85882 0.21561 0.06516 0.0
C200 C 0.90701 0.23942 0.09338 0.0
C201 C 0.8745 0.3283 0.12826 0.0
C202 C 0.82564 0.30416 0.09875 0.0
C203 C 0.91561 0.29596 0.12507 0.0
C204 C 0.81928 0.24724 0.06691 0.0
H205 H 0.65317 0.25154 0.99919 0.0
N206 N 0.77037 0.16923 1.00394 0.0
C207 C 0.68427 0.17387 0.96811 0.0
C208 C 0.77328 0.22314 0.03519 0.0
C209 C 0.72712 0.14471 0.96985 0.0
C210 C 0.68626 0.22892 1.00078 0.0
C211 C 0.73144 0.25452 0.03462 0.0
O212 O 0.8408 0.12093 0.94703 0.0
O213 O 0.84736 0.03794 0.99078 0.0
O214 O 0.92374 0.02502 1.01704 0.0
O215 O 0.92601 0.11995 0.03502 0.0
O216 O 0.8009 0.05376 0.94671 0.0
O217 O 0.9081 0.16706 1.00027 0.0
O218 O 0.86959 1.01441 0.10443 0.0
O219 O 0.84769 0.10049 0.06144 0.0
O220 O 0.77036 0.11507 0.0339 0.0
O221 O 0.76923 0.02405 0.02834 0.0
O222 O 0.8953 0.08516 0.10518 0.0
O223 O 0.79703 0.96727 0.057 0.0
C224 C 0.82076 1.01375 0.95211 0.0
C225 C 0.891 0.19648 0.94457 0.0
C226 C 0.92646 0.23223 0.89783 0.0
C227 C 0.92326 0.19214 0.91402 0.0
C228 C 0.89795 0.27805 0.91411 0.0
C229 C 0.86251 0.24193 0.95984 0.0
C230 C 0.86625 0.28262 0.9448 0.0
C231 C 0.95005 0.07495 0.02787 0.0
C232 C 0.88695 0.15249 0.95927 0.0
C233 C 0.73656 0.31061 0.06723 0.0
C234 C 0.78369 0.33546 0.0992 0.0
C235 C 0.87514 0.12512 0.09979 0.0
C236 C 0.83639 0.92918 0.10374 0.0
C237 C 0.86037 0.93878 0.14656 0.0
C238 C 0.86581 0.89354 0.15687 0.0
C239 C 0.85001 0.83807 0.12283 0.0
C240 C 0.82063 0.8734 0.07051 0.0
C241 C 0.82791 0.82828 0.08004 0.0
C242 C 0.74625 0.06946 0.03396 0.0
C243 C 0.82756 0.97764 0.09457 0.0
H244 H 0.94532 0.15689 0.90229 0.0
H245 H 0.90041 0.31102 0.90395 0.0
H246 H 0.83752 0.24601 0.98333 0.0
H247 H 0.8445 0.31793 0.957 0.0
H248 H 0.87415 0.98151 0.17213 0.0
H249 H 0.8554 0.80206 0.12892 0.0
H250 H 0.80277 0.86449 0.03715 0.0
H251 H 0.81608 0.78544 0.05413 0.0
Tb252 Tb 0.03101 0.86786 0.61953 0.0
C253 C 0.25454 0.97113 0.70982 0.0
C254 C 0.29881 0.91242 0.65242 0.0
C255 C 0.34185 1.00707 0.7053 0.0
C256 C 0.25475 0.92086 0.67336 0.0
C257 C 0.2989 1.0142 0.72708 0.0
C258 C 0.34184 0.9562 0.66805 0.0
C259 C 0.25853 0.06483 0.78934 0.0
N260 N 0.21306 0.97578 0.73065 0.0
C261 C 0.21568 0.02086 0.77108 0.0
C262 C 0.30013 0.06177 0.76703 0.0
Tb263 Tb 0.14901 0.89752 0.70168 0.0
N264 N 0.2134 0.87879 0.66022 0.0
C265 C 0.21503 0.82618 0.62765 0.0
C266 C 0.29925 0.85952 0.61751 0.0
C267 C 0.25743 0.81601 0.60542 0.0
H268 H 0.18444 0.02279 0.7893 0.0
H269 H 0.25803 0.77449 0.57925 0.0
H270 H 0.37587 0.95065 0.65224 0.0
H271 H 0.25977 0.10069 0.82087 0.0
H272 H 0.18387 0.79183 0.61859 0.0
H273 H 0.8724 0.96937 0.69846 0.0
H274 H 0.33231 0.8514 0.60055 0.0
H275 H 0.01144 0.73472 0.53531 0.0
H276 H 0.95071 0.96516 0.66595 0.0
H277 H 0.95919 0.64342 0.51527 0.0
H278 H 0.37601 0.0399 0.7178 0.0
H279 H 0.8253 0.88325 0.69496 0.0
H280 H 0.81396 0.77799 0.66461 0.0
H281 H 0.3336 0.09562 0.78148 0.0
H282 H 0.83873 0.68787 0.61482 0.0
N283 N 0.9529 0.87718 0.64645 0.0
C284 C 0.93282 0.92695 0.66512 0.0
C285 C 0.86055 0.88095 0.68087 0.0
C286 C 0.87767 0.82932 0.65784 0.0
C287 C 0.88723 0.92965 0.68316 0.0
C288 C 0.92387 0.82873 0.64004 0.0
H289 H 0.89219 0.63711 0.55804 0.0
N290 N 0.97892 0.78028 0.59252 0.0
C291 C 0.95338 0.68085 0.54333 0.0
C292 C 0.9381 0.77837 0.61274 0.0
C293 C 0.98317 0.73304 0.55515 0.0
C294 C 0.91578 0.67744 0.5676 0.0
C295 C 0.90607 0.72691 0.60154 0.0
O296 O 0.02842 0.83733 0.55125 0.0
O297 O 0.11858 0.88037 0.63371 0.0
O298 O 0.12501 0.97975 0.71314 0.0
O299 O 0.03864 0.95548 0.66996 0.0
O300 O 0.07996 0.92931 0.60996 0.0
O301 O 0.9804 0.89937 0.58457 0.0
O302 O 0.18098 0.91203 0.76659 0.0
O303 O 0.06345 0.87451 0.684 0.0
O304 O 0.07167 0.79324 0.6051 0.0
O305 O 0.11259 0.81038 0.67477 0.0
O306 O 0.09745 0.9264 0.74964 0.0
O307 O 0.1885 0.83585 0.71072 0.0
C308 C 0.12573 0.91631 0.61935 0.0
C309 C 0.94879 0.84122 0.50851 0.0
C310 C 0.90713 0.82625 0.43464 0.0
C311 C 0.94933 0.85173 0.47183 0.0
C312 C 0.86485 0.79019 0.43497 0.0
C313 C 0.90551 0.80619 0.50836 0.0
C314 C 0.86393 0.78061 0.47163 0.0
C315 C 0.07844 0.99232 0.70055 0.0
C316 C 0.99305 0.86825 0.54698 0.0
C317 C 0.86303 0.72701 0.62227 0.0
C318 C 0.84881 0.77829 0.65045 0.0
C319 C 0.05308 0.90022 0.7223 0.0
C320 C 0.25967 0.87245 0.77268 0.0
C321 C 0.27484 0.88801 0.81787 0.0
C322 C 0.32885 0.89483 0.83745 0.0
C323 C 0.36747 0.88661 0.81135 0.0
C324 C 0.29895 0.86294 0.74694 0.0
C325 C 0.35249 0.87028 0.7663 0.0
C326 C 0.09111 0.77525 0.63363 0.0
C327 C 0.2029 0.86641 0.75316 0.0
H328 H 0.98281 0.8791 0.47239 0.0
H329 H 0.83205 0.76966 0.40684 0.0
H330 H 0.90369 0.79879 0.53662 0.0
H331 H 0.83077 0.75328 0.47157 0.0
H332 H 0.24463 0.89622 0.8378 0.0
H333 H 0.40931 0.89263 0.82583 0.0
H334 H 0.28852 0.84993 0.71195 0.0
H335 H 0.38252 0.86347 0.74632 0.0
H336 H 0.02472 0.04212 0.03036 0.0
C337 C 0.00756 0.081 0.04316 0.0
H338 H 0.01439 0.1618 0.09603 0.0
H339 H 0.10726 0.07388 0.23087 0.0
H340 H 0.02649 0.10705 0.2547 0.0
H341 H 0.96666 0.14291 0.21318 0.0
H342 H 0.98794 0.14647 0.14782 0.0
C343 C 0.03267 0.12402 0.08166 0.0
C344 C 0.07388 0.11224 0.11084 0.0
C345 C 0.06223 0.11265 0.15011 0.0
C346 C 0.0967 0.09229 0.17434 0.0
C347 C 0.083 0.09058 0.21213 0.0
C348 C 0.0366 0.10898 0.22593 0.0
C349 C 0.00295 0.12922 0.20251 0.0
C350 C 0.01557 0.13121 0.16517 0.0
H351 H 0.19613 0.1462 0.2382 0.0
C352 C 0.21142 0.10619 0.22659 0.0
H353 H 0.20088 0.02285 0.17605 0.0
H354 H 0.11161 0.11179 0.04056 0.0
H355 H 0.18779 0.06977 1.01302 0.0
H356 H 0.24185 0.02496 0.05081 0.0
H357 H 0.22254 0.02537 0.11746 0.0
C358 C 0.18476 0.0621 0.18934 0.0
C359 C 0.14315 0.07234 0.15982 0.0
C360 C 0.15367 0.06952 0.11967 0.0
C361 C 0.12029 0.09172 0.09621 0.0
C362 C 0.13427 0.09283 0.05831 0.0
C363 C 0.17806 0.06935 0.0424 0.0
C364 C 0.20888 0.0447 0.0639 0.0
C365 C 0.19738 0.04526 0.1023 0.0
H366 H 0.057 0.05796 0.75907 0.0
C367 C 0.06598 0.04863 0.727 0.0
H368 H 0.04798 0.12583 0.7326 0.0
H369 H 0.22798 0.0915 0.61278 0.0
H370 H 0.28775 0.11903 0.68349 0.0
H371 H 0.25245 0.1426 0.75061 0.0
H372 H 0.15781 0.12577 0.74684 0.0
C373 C 0.06034 0.08666 0.71173 0.0
C374 C 0.07991 0.08186 0.67191 0.0
C375 C 0.13488 0.09663 0.67544 0.0
C376 C 0.15475 0.09069 0.63758 0.0
C377 C 0.2105 0.09829 0.64101 0.0
C378 C 0.2452 0.11432 0.68121 0.0
C379 C 0.22542 0.12646 0.71907 0.0
C380 C 0.17095 0.11706 0.71641 0.0
H381 H 0.17792 0.0995 0.52118 0.0
C382 C 0.15921 0.11005 0.54948 0.0
H383 H 0.14217 0.02519 0.5331 0.0
H384 H 0.97345 0.04489 0.65327 0.0
H385 H 0.91481 1.00355 0.58098 0.0
H386 H 0.94923 0.99408 0.51536 0.0
H387 H 0.04175 0.0284 0.52184 0.0
C388 C 0.14004 0.06774 0.55703 0.0
C389 C 0.11903 0.07476 0.59697 0.0
C390 C 0.06434 0.05696 0.59294 0.0
C391 C 0.04474 0.06078 0.63054 0.0
C392 C 0.99027 0.04199 0.62554 0.0
C393 C 0.95628 0.0184 0.58433 0.0
C394 C 0.97562 1.01334 0.54742 0.0
C395 C 0.02879 0.03309 0.55157 0.0
H396 H 0.68333 0.11641 0.06224 0.0
C397 C 0.69586 0.07499 0.05004 0.0
H398 H 0.68329 0.99359 0.04537 0.0
H399 H 0.61255 0.08977 0.22934 0.0
H400 H 0.68146 0.03563 0.23783 0.0
H401 H 0.72655 0.98443 0.17672 0.0
H402 H 0.70811 0.99308 0.10915 0.0
C403 C 0.67039 0.03471 0.05683 0.0
C404 C 0.63186 0.04913 0.08722 0.0
C405 C 0.64374 0.04374 0.12673 0.0
C406 C 0.6142 0.06869 0.16046 0.0
C407 C 0.63062 0.06775 0.20131 0.0
C408 C 0.67069 0.03751 0.2069 0.0
C409 C 0.69662 1.00938 0.17273 0.0
C410 C 0.68503 1.01415 0.13376 0.0
H411 H 0.51981 0.03729 0.18687 0.0
C412 C 0.51045 0.08003 0.19856 0.0
H413 H 0.52354 0.1569 0.19547 0.0
H414 H 0.5907 0.05379 1.01112 0.0
H415 H 0.51096 0.09201 0.99698 0.0
H416 H 0.45655 0.13064 0.05353 0.0
H417 H 0.48171 0.13221 0.12476 0.0
C418 C 0.5347 0.11521 0.18618 0.0
C419 C 0.56939 0.09407 0.15294 0.0
C420 C 0.55449 0.09462 0.11166 0.0
C421 C 0.58589 0.07237 0.07891 0.0
C422 C 0.56923 0.07184 0.03759 0.0
C423 C 0.52322 0.09304 0.02886 0.0
C424 C 0.49255 0.11478 0.06072 0.0
C425 C 0.50769 0.1156 0.10162 0.0
H426 H 0.16285 0.48257 0.67936 0.0
C427 C 0.14111 0.45044 0.6474 0.0
H428 H 0.09512 0.43303 0.58526 0.0
H429 H 0.00671 0.65993 0.63263 0.0
H430 H 0.92654 0.59589 0.6179 0.0
H431 H 0.9313 0.49862 0.60698 0.0
H432 H 0.01627 0.46495 0.61089 0.0
C433 C 0.11649 0.46523 0.61735 0.0
C434 C 0.11468 0.52463 0.6259 0.0
C435 C 0.06449 0.54348 0.62325 0.0
C436 C 0.06166 0.59944 0.62941 0.0
C437 C 0.01117 0.61761 0.6276 0.0
C438 C 0.96477 0.58132 0.61931 0.0
C439 C 0.96746 0.52657 0.61317 0.0
C440 C 0.01657 0.50772 0.61529 0.0
H441 H 0.07552 0.68436 0.58539 0.0
C442 C 0.0903 0.71444 0.61977 0.0
H443 H 0.12303 0.72632 0.68404 0.0
H444 H 0.21667 0.49939 0.62572 0.0
H445 H 0.29658 0.56356 0.64036 0.0
H446 H 0.29188 0.66211 0.65474 0.0
H447 H 0.20696 0.69655 0.65373 0.0
C448 C 0.10728 0.69642 0.64974 0.0
C449 C 0.10902 0.63627 0.63816 0.0
C450 C 0.15908 0.61729 0.64013 0.0
C451 C 0.16192 0.56104 0.63318 0.0
C452 C 0.21223 0.54229 0.6327 0.0
C453 C 0.25848 0.57862 0.64064 0.0
C454 C 0.25584 0.63405 0.64865 0.0
C455 C 0.20683 0.65333 0.64819 0.0
H456 H 0.24559 0.30167 0.53625 0.0
C457 C 0.2197 0.26218 0.5232 0.0
H458 H 0.20018 0.17922 0.47245 0.0
H459 H 0.38596 0.30531 0.41192 0.0
H460 H 0.33365 0.38201 0.42555 0.0
H461 H 0.25006 0.38063 0.45217 0.0
H462 H 0.22042 0.3055 0.46878 0.0
C463 C 0.22719 0.2188 0.48641 0.0
C464 C 0.27551 0.21957 0.46717 0.0
C465 C 0.28879 0.26079 0.45315 0.0
C466 C 0.33391 0.25849 0.43326 0.0
C467 C 0.35001 0.30343 0.4243 0.0
C468 C 0.3205 0.34756 0.43202 0.0
C469 C 0.27374 0.34712 0.44752 0.0
C470 C 0.25759 0.30406 0.4576 0.0
H471 H 0.34526 0.20848 0.34249 0.0
C472 C 0.38244 0.19441 0.35011 0.0
H473 H 0.43633 0.18576 0.39804 0.0
H474 H 0.26875 0.14151 0.49855 0.0
H475 H 0.32106 0.06585 0.48545 0.0
H476 H 0.39096 0.05373 0.44165 0.0
H477 H 0.40996 0.11804 0.41187 0.0
C478 C 0.39931 0.20042 0.39114 0.0
C479 C 0.36187 0.21163 0.42253 0.0
C480 C 0.35005 0.17176 0.43827 0.0
C481 C 0.30789 0.17685 0.46167 0.0
C482 C 0.29874 0.13833 0.47898 0.0
C483 C 0.32878 0.09482 0.47202 0.0
C484 C 0.36826 0.08822 0.44755 0.0
C485 C 0.37878 0.12582 0.43063 0.0
H486 H 0.04529 0.27472 0.6831 0.0
C487 C 0.07851 0.25196 0.68142 0.0
H488 H 0.12083 0.20685 0.70905 0.0
H489 H 0.04972 0.29915 0.89008 0.0
H490 H 0.14442 0.33332 0.91142 0.0
H491 H 0.19802 0.32276 0.85539 0.0
H492 H 0.15722 0.27866 0.77783 0.0
C493 C 0.0856 0.22662 0.70768 0.0
C494 C 0.05219 0.23283 0.74103 0.0
C495 C 0.0767 0.2591 0.78651 0.0
C496 C 0.04589 0.26461 0.8189 0.0
C497 C 0.07126 0.29251 0.86402 0.0
C498 C 0.12564 0.31269 0.87679 0.0
C499 C 0.15581 0.30678 0.84526 0.0
C500 C 0.13181 0.28094 0.8007 0.0
H501 H 0.98933 0.1962 0.86055 0.0
C502 C 0.96062 0.22541 0.86485 0.0
H503 H 0.92609 0.27814 0.84002 0.0
H504 H 0.99488 0.17029 0.65671 0.0
H505 H 0.90314 0.12482 0.63557 0.0
H506 H 0.84936 0.13654 0.69147 0.0
H507 H 0.88786 0.19089 0.7694 0.0
C508 C 0.95691 0.25213 0.83935 0.0
C509 C 0.99071 0.24297 0.80579 0.0
C510 C 0.96684 0.21433 0.76029 0.0
C511 C 0.99749 0.20916 0.72787 0.0
C512 C 0.97322 0.17715 0.68276 0.0
C513 C 0.92052 0.15084 0.67009 0.0
C514 C 0.89032 0.15701 0.70162 0.0
C515 C 0.91289 0.18852 0.74623 0.0
H516 H 0.87846 0.8034 0.36433 0.0
C517 C 0.90578 0.83406 0.39416 0.0
H518 H 0.95907 0.91087 0.42133 0.0
H519 H 0.93436 0.79491 0.20106 0.0
H520 H 0.98604 0.72628 0.20977 0.0
H521 H 0.01198 0.7287 0.28264 0.0
H522 H 0.98606 0.79946 0.34713 0.0
C523 C 0.93379 0.87709 0.39203 0.0
C524 C 0.92654 0.88157 0.34971 0.0
C525 C 0.94244 0.84039 0.31233 0.0
C526 C 0.9278 0.83932 0.27036 0.0
C527 C 0.94394 0.79735 0.23361 0.0
C528 C 0.97385 0.75788 0.23819 0.0
C529 C 0.98843 0.75921 0.2792 0.0
C530 C 0.97305 0.79988 0.31592 0.0
H531 H 0.91615 0.94368 0.22406 0.0
C532 C 0.88844 0.9051 0.2031 0.0
H533 H 0.84536 0.83273 0.20005 0.0
H534 H 0.89728 0.97137 0.41569 0.0
H535 H 0.85014 0.04343 0.40803 0.0
H536 H 0.82297 0.04064 0.33518 0.0
H537 H 0.84309 0.96624 0.26961 0.0
C538 C 0.87385 0.87081 0.22027 0.0
C539 C 0.8976 0.87967 0.26567 0.0
C540 C 0.88531 0.92359 0.30371 0.0
C541 C 0.90032 0.9248 0.34581 0.0
C542 C 0.88691 0.96854 0.38307 0.0
C543 C 0.85977 1.01008 0.37911 0.0
C544 C 0.84452 1.00854 0.33808 0.0
C545 C 0.8566 0.96566 0.30067 0.0
H546 H 0.38516 0.94108 0.90152 0.0
C547 C 0.34639 0.91499 0.88559 0.0
H548 H 0.27865 0.8757 0.89546 0.0
H549 H 0.39265 0.92069 0.08827 0.0
H550 H 0.39555 0.8203 0.04783 0.0
H551 H 0.36947 0.77088 0.96663 0.0
H552 H 0.34036 0.82151 0.92523 0.0
C553 C 0.31607 0.9043 0.91046 0.0
C554 C 0.33168 0.93362 0.95943 0.0
C555 C 0.34835 0.90341 0.98306 0.0
C556 C 0.363 0.9318 0.02995 0.0
C557 C 0.38021 0.90087 0.05273 0.0
C558 C 0.38231 0.84337 0.02992 0.0
C559 C 0.36768 0.81554 0.98416 0.0
C560 C 0.35101 0.84503 0.96081 0.0
H561 H 0.30045 0.97923 0.10561 0.0
C562 C 0.33462 1.01199 0.1239 0.0
H563 H 0.40255 0.05592 0.11916 0.0
H564 H 0.29475 1.0026 0.92461 0.0
H565 H 0.28987 0.10201 0.96494 0.0
H566 H 0.31834 0.15193 0.04568 0.0
H567 H 0.35328 0.10288 0.0865 0.0
C568 C 0.3712 0.01965 0.10215 0.0
C569 C 0.36073 0.99024 0.05302 0.0
C570 C 0.34463 0.02058 0.02922 0.0
C571 C 0.32889 0.99199 0.98252 0.0
C572 C 0.30896 0.02244 0.95995 0.0
C573 C 0.30554 0.07956 0.98269 0.0
C574 C 0.32177 0.10771 0.02818 0.0
C575 C 0.34148 0.07893 0.05125 0.0
H576 H 0.8809 0.96057 0.92515 0.0
C577 C 0.84298 0.97229 0.91596 0.0
H578 H 0.78846 0.97493 0.86521 0.0
H579 H 0.96374 0.02077 0.77091 0.0
H580 H 0.91584 0.10034 0.78678 0.0
H581 H 0.84359 0.11231 0.8283 0.0
H582 H 0.81941 0.0456 0.85473 0.0
C583 C 0.82603 0.96225 0.87384 0.0
C584 C 0.86372 0.94977 0.84265 0.0
C585 C 0.87744 0.98973 0.82749 0.0
C586 C 0.91943 0.98318 0.80379 0.0
C587 C 0.9327 0.02404 0.78956 0.0
C588 C 0.90533 0.06982 0.79819 0.0
C589 C 0.8646 0.07646 0.82147 0.0
C590 C 0.85103 0.03748 0.8364 0.0
H591 H 0.97238 0.86068 0.71857 0.0
C592 C 0.00268 0.89701 0.73728 0.0
H593 H 0.02804 0.97263 0.79586 0.0
H594 H 0.83888 0.85924 0.85701 0.0
H595 H 0.88587 0.77837 0.84006 0.0
H596 H 0.96339 0.77071 0.80451 0.0
H597 H 0.99332 0.84248 0.78438 0.0
C598 C 0.99701 0.93633 0.77692 0.0
C599 C 0.94774 0.9368 0.79508 0.0
C600 C 0.93203 0.89515 0.80797 0.0
C601 C 0.88916 0.90108 0.83082 0.0
C602 C 0.87269 0.85782 0.84151 0.0
C603 C 0.89909 0.81116 0.83174 0.0
C604 C 0.94254 0.80668 0.81147 0.0
C605 C 0.95911 0.84812 0.79979 0.0
H606 H 0.23905 0.97461 0.40912 0.0
C607 C 0.26861 0.94618 0.40298 0.0
H608 H 0.30996 0.89531 0.42607 0.0
H609 H 0.25341 0.99328 0.6144 0.0
H610 H 0.34449 0.03956 0.63282 0.0
H611 H 0.39256 0.03352 0.5746 0.0
H612 H 0.34963 0.98179 0.49735 0.0
C613 C 0.27793 0.92042 0.42894 0.0
C614 C 0.24727 0.92718 0.46417 0.0
C615 C 0.2733 0.95587 0.5092 0.0
C616 C 0.24549 0.95928 0.54293 0.0
C617 C 0.27245 0.98924 0.58748 0.0
C618 C 0.32483 1.0159 0.59855 0.0
C619 C 0.3519 1.0126 0.56574 0.0
C620 C 0.32678 0.98272 0.52154 0.0
H621 H 0.19812 0.89258 0.59029 0.0
C622 C 0.1663 0.91741 0.59296 0.0
H623 H 0.12482 0.96295 0.56543 0.0
H624 H 0.18585 0.86578 0.38119 0.0
H625 H 0.09346 0.82386 0.36285 0.0
H626 H 0.04475 0.83153 0.4212 0.0
H627 H 0.08817 0.88107 0.4982 0.0
C628 C 0.15956 0.94239 0.56639 0.0
C629 C 0.19136 0.9343 0.53165 0.0
C630 C 0.16524 0.90582 0.48658 0.0
C631 C 0.19324 0.90183 0.45286 0.0
C632 C 0.16637 0.87142 0.40822 0.0
C633 C 0.11329 0.84681 0.39716 0.0
C634 C 0.08585 0.85117 0.43 0.0
C635 C 0.1113 0.88002 0.47416 0.0
H636 H 0.30502 0.33303 0.86934 0.0
C637 C 0.33422 0.31001 0.85171 0.0
H638 H 0.39091 0.25565 0.8508 0.0
H639 H 0.4476 0.34776 0.05738 0.0
H640 H 0.52607 0.38882 0.04464 0.0
H641 H 0.52961 0.38172 0.97126 0.0
H642 H 0.45437 0.33389 0.91024 0.0
C643 C 0.36215 0.27992 0.86797 0.0
C644 C 0.35929 0.2829 0.912 0.0
C645 C 0.40414 0.30969 0.94722 0.0
C646 C 0.40241 0.31299 0.98946 0.0
C647 C 0.44702 0.34247 0.02435 0.0
C648 C 0.49235 0.36664 1.01758 0.0
C649 C 0.49433 0.36268 0.97628 0.0
C650 C 0.45084 0.33487 0.94148 0.0
H651 H 0.40569 0.23981 0.04305 0.0
C652 C 0.38125 0.26987 0.06146 0.0
H653 H 0.3246 0.32247 0.05779 0.0
H654 H 0.26778 0.2248 0.85109 0.0
H655 H 0.18926 0.183 0.86357 0.0
H656 H 0.18635 0.18826 0.93657 0.0
H657 H 0.26201 0.2356 0.99765 0.0
C658 C 0.35247 0.2957 0.04148 0.0
C659 C 0.35614 0.28837 0.99634 0.0
C660 C 0.31156 0.26084 0.96092 0.0
C661 C 0.31314 0.25797 0.91874 0.0
C662 C 0.26839 0.22921 0.88393 0.0
C663 C 0.22313 0.20473 0.89058 0.0
C664 C 0.22151 0.20768 0.93168 0.0
C665 C 0.26511 0.23518 0.96651 0.0
H666 H 0.81381 0.16951 0.13402 0.0
C667 C 0.85648 0.16923 0.13692 0.0
H668 H 0.93135 0.19922 0.17935 0.0
H669 H 0.88848 0.36713 0.35902 0.0
H670 H 0.91763 0.43467 0.33401 0.0
H671 H 0.92458 0.40311 0.25625 0.0
H672 H 0.90241 0.30379 0.20329 0.0
C673 C 0.88881 0.1965 0.17681 0.0
C674 C 0.86998 0.21693 0.21938 0.0
C675 C 0.88179 0.27499 0.24993 0.0
C676 C 0.87756 0.2932 0.29469 0.0
C677 C 0.89098 0.35125 0.32466 0.0
C678 C 0.90768 0.39037 0.31072 0.0
C679 C 0.91164 0.37261 0.26696 0.0
C680 C 0.899 0.31563 0.23688 0.0
H681 H 0.93641 0.23239 0.35886 0.0
C682 C 0.90728 0.25429 0.37736 0.0
H683 H 0.83957 0.29497 0.37458 0.0
H684 H 0.84111 0.1018 0.16995 0.0
H685 H 0.80972 0.03654 0.19497 0.0
H686 H 0.79793 0.06897 0.27147 0.0
H687 H 0.81979 0.1682 0.32406 0.0
C688 C 0.86753 0.26986 0.35681 0.0
C689 C 0.86187 0.25318 0.30891 0.0
C690 C 0.84559 0.1959 0.27782 0.0
C691 C 0.8504 0.17744 0.23316 0.0
C692 C 0.83755 0.11908 0.20392 0.0
C693 C 0.8193 0.08074 0.21793 0.0
C694 C 0.81284 0.09905 0.26104 0.0
C695 C 0.82571 0.15598 0.29083 0.0
loop_
_geom_bond_atom_site_label_1
_geom_bond_atom_site_label_2
_geom_bond_distance
_geom_bond_site_symmetry_2
_ccdc_geom_bond_type
Tb0 N31 2.660 . S
Tb0 N38 2.600 . S
Tb0 O44 2.546 . S
Tb0 O45 2.610 1_545 S
Tb0 O47 2.320 . S
Tb0 O48 2.552 . S
Tb0 O49 2.413 . S
Tb0 O51 2.362 . S
Tb0 O52 2.421 . S
Tb0 C64 2.833 . S
C1 C4 1.432 . S
C1 C5 1.414 . S
C1 N8 1.359 . S
C2 C4 1.417 . S
C2 C6 1.432 . S
C2 C14 1.410 . S
C3 C5 1.444 . S
C3 C6 1.317 . S
C3 H26 0.929 . S
C4 C1 1.432 . S
C4 C2 1.417 . S
C4 N12 1.360 . S
C5 C1 1.414 . S
C5 C3 1.444 . S
C5 C10 1.385 . S
C6 C2 1.432 . S
C6 C3 1.317 . S
C6 H18 0.930 1_554 S
C7 C9 1.392 . S
C7 C10 1.370 . S
C7 H19 0.931 . S
N8 C1 1.359 . S
N8 C9 1.327 . S
N8 Tb11 2.600 . S
C9 C7 1.392 . S
C9 N8 1.327 . S
C9 H16 0.930 . S
C10 C5 1.385 . S
C10 C7 1.370 . S
C10 H29 0.930 . S
Tb11 N8 2.600 . S
Tb11 N12 2.660 . S
Tb11 O45 2.362 . S
Tb11 O46 2.421 . S
Tb11 O50 2.546 . S
Tb11 O51 2.610 1_565 S
Tb11 O53 2.320 . S
Tb11 O54 2.552 1_565 S
Tb11 O55 2.413 . S
Tb11 C75 2.833 . S
N12 C4 1.360 . S
N12 Tb11 2.660 . S
N12 C13 1.305 . S
C13 N12 1.305 . S
C13 C15 1.407 . S
C13 H20 0.930 . S
C14 C2 1.410 . S
C14 C15 1.345 . S
C14 H22 0.928 . S
C15 C13 1.407 . S
C15 C14 1.345 . S
C15 H17 0.930 . S
H16 C9 0.930 . S
H17 C15 0.930 . S
H18 C6 0.930 1_556 S
H19 C7 0.931 . S
H20 C13 0.930 . S
H21 C35 0.930 . S
H22 C14 0.928 . S
H23 C41 0.930 . S
H24 C32 0.930 . S
H25 C39 0.931 . S
H26 C3 0.929 . S
H27 C33 0.930 . S
H28 C66 0.930 . S
H29 C10 0.930 . S
H30 C65 0.929 . S
N31 Tb0 2.660 . S
N31 C32 1.305 . S
N31 C36 1.360 . S
C32 H24 0.930 . S
C32 N31 1.305 . S
C32 C35 1.407 . S
C33 H27 0.930 . S
C33 C34 1.410 . S
C33 C35 1.345 . S
C34 C33 1.410 . S
C34 C36 1.417 . S
C34 C66 1.432 . S
C35 H21 0.930 . S
C35 C32 1.407 . S
C35 C33 1.345 . S
C36 N31 1.360 . S
C36 C34 1.417 . S
C36 C40 1.432 . S
H37 C42 0.930 . S
N38 Tb0 2.600 . S
N38 C40 1.359 . S
N38 C41 1.327 . S
C39 H25 0.931 . S
C39 C41 1.392 . S
C39 C42 1.370 . S
C40 C36 1.432 . S
C40 N38 1.359 . S
C40 C43 1.414 . S
C41 H23 0.930 . S
C41 N38 1.327 . S
C41 C39 1.392 . S
C42 H37 0.930 . S
C42 C39 1.370 . S
C42 C43 1.385 . S
C43 C40 1.414 . S
C43 C42 1.385 . S
C43 C65 1.444 . S
O44 Tb0 2.546 . S
O44 C64 1.251 . S
O45 Tb0 2.610 1_565 S
O45 Tb11 2.362 . S
O45 C56 1.283 . S
O46 Tb11 2.421 . S
O46 C63 1.262 1_565 S
O47 Tb0 2.320 . S
O47 C63 1.260 . S
O48 Tb0 2.552 . S
O48 C56 1.243 1_545 S
O49 Tb0 2.413 . S
O49 C64 1.256 . S
O50 Tb11 2.546 . S
O50 C75 1.251 . S
O51 Tb0 2.362 . S
O51 Tb11 2.610 1_545 S
O51 C67 1.283 . S
O52 Tb0 2.421 . S
O52 C74 1.262 . S
O53 Tb11 2.320 . S
O53 C74 1.260 1_565 S
O54 Tb11 2.552 1_545 S
O54 C67 1.243 . S
O55 Tb11 2.413 . S
O55 C75 1.256 . S
C56 O45 1.283 . S
C56 O48 1.243 1_565 S
C57 C59 1.382 . S
C57 C61 1.393 . S
C57 C64 1.500 . S
C58 C59 1.400 . S
C58 C60 1.384 . S
C59 C57 1.382 . S
C59 C58 1.400 . S
C59 H76 0.930 . S
C60 C58 1.384 . S
C60 C62 1.392 . S
C60 H77 0.931 . S
C61 C57 1.393 . S
C61 C62 1.401 . S
C61 H78 0.930 . S
C62 C60 1.392 . S
C62 C61 1.401 . S
C62 H79 0.930 . S
C63 O46 1.262 1_545 S
C63 O47 1.260 . S
C64 Tb0 2.833 . S
C64 O44 1.251 . S
C64 O49 1.256 . S
C64 C57 1.500 . S
C65 H30 0.929 . S
C65 C43 1.444 . S
C65 C66 1.317 . S
C66 H28 0.930 . S
C66 C34 1.432 . S
C66 C65 1.317 . S
C67 O51 1.283 . S
C67 O54 1.243 . S
C68 C69 1.382 . S
C68 C72 1.393 . S
C68 C75 1.500 . S
C69 C68 1.382 . S
C69 C70 1.400 . S
C69 H80 0.930 . S
C70 C69 1.400 . S
C70 C71 1.384 . S
C71 C70 1.384 . S
C71 C73 1.392 . S
C71 H81 0.931 . S
C72 C68 1.393 . S
C72 C73 1.401 . S
C72 H82 0.930 . S
C73 C71 1.392 . S
C73 C72 1.401 . S
C73 H83 0.930 . S
C74 O52 1.262 . S
C74 O53 1.260 1_545 S
C75 Tb11 2.833 . S
C75 O50 1.251 . S
C75 O55 1.256 . S
C75 C68 1.500 . S
H76 C59 0.930 . S
H77 C60 0.931 . S
H78 C61 0.930 . S
H79 C62 0.930 . S
H80 C69 0.930 . S
H81 C71 0.931 . S
H82 C72 0.930 . S
H83 C73 0.930 . S
Tb84 N115 2.660 . S
Tb84 N122 2.600 . S
Tb84 O128 2.546 . S
Tb84 O129 2.610 . S
Tb84 O131 2.320 . S
Tb84 O132 2.552 . S
Tb84 O133 2.413 . S
Tb84 O135 2.362 . S
Tb84 O136 2.421 . S
Tb84 C148 2.833 . S
C85 C88 1.432 . S
C85 C89 1.414 . S
C85 N92 1.359 . S
C86 C88 1.417 . S
C86 C90 1.432 . S
C86 C98 1.410 . S
C87 C89 1.444 . S
C87 C90 1.317 . S
C87 H110 0.929 . S
C88 C85 1.432 . S
C88 C86 1.417 . S
C88 N96 1.360 . S
C89 C85 1.414 . S
C89 C87 1.444 . S
C89 C94 1.385 . S
C90 C86 1.432 . S
C90 C87 1.317 . S
C90 H102 0.930 . S
C91 C93 1.392 . S
C91 C94 1.370 . S
C91 H103 0.931 . S
N92 C85 1.359 . S
N92 C93 1.327 . S
N92 Tb95 2.600 . S
C93 C91 1.392 . S
C93 N92 1.327 . S
C93 H100 0.930 . S
C94 C89 1.385 . S
C94 C91 1.370 . S
C94 H113 0.930 . S
Tb95 N92 2.600 . S
Tb95 N96 2.660 . S
Tb95 O129 2.362 . S
Tb95 O130 2.421 . S
Tb95 O134 2.546 . S
Tb95 O135 2.610 . S
Tb95 O137 2.320 . S
Tb95 O138 2.552 . S
Tb95 O139 2.413 . S
Tb95 C159 2.833 . S
N96 C88 1.360 . S
N96 Tb95 2.660 . S
N96 C97 1.305 . S
C97 N96 1.305 . S
C97 C99 1.407 . S
C97 H104 0.930 . S
C98 C86 1.410 . S
C98 C99 1.345 . S
C98 H106 0.930 . S
C99 C97 1.407 . S
C99 C98 1.345 . S
C99 H101 0.930 . S
H100 C93 0.930 . S
H101 C99 0.930 . S
H102 C90 0.930 . S
H103 C91 0.931 . S
H104 C97 0.930 . S
H105 C119 0.930 . S
H106 C98 0.930 . S
H107 C125 0.930 . S
H108 C116 0.930 . S
H109 C123 0.931 . S
H110 C87 0.929 . S
H111 C117 0.930 . S
H112 C150 0.930 . S
H113 C94 0.930 . S
H114 C149 0.929 . S
N115 Tb84 2.660 . S
N115 C116 1.305 . S
N115 C120 1.360 . S
C116 H108 0.930 . S
C116 N115 1.305 . S
C116 C119 1.407 . S
C117 H111 0.930 . S
C117 C118 1.410 . S
C117 C119 1.345 1_655 S
C118 C117 1.410 . S
C118 C120 1.417 1_655 S
C118 C150 1.432 . S
C119 H105 0.930 . S
C119 C116 1.407 . S
C119 C117 1.345 1_455 S
C120 N115 1.360 . S
C120 C118 1.417 1_455 S
C120 C124 1.432 . S
H121 C126 0.930 . S
N122 Tb84 2.600 . S
N122 C124 1.359 . S
N122 C125 1.327 . S
C123 H109 0.931 . S
C123 C125 1.392 1_655 S
C123 C126 1.370 . S
C124 C120 1.432 . S
C124 N122 1.359 . S
C124 C127 1.414 1_455 S
C125 H107 0.930 . S
C125 N122 1.327 . S
C125 C123 1.392 1_455 S
C126 H121 0.930 . S
C126 C123 1.370 . S
C126 C127 1.385 . S
C127 C124 1.414 1_655 S
C127 C126 1.385 . S
C127 C149 1.444 . S
O128 Tb84 2.546 . S
O128 C148 1.251 . S
O129 Tb84 2.610 . S
O129 Tb95 2.362 . S
O129 C140 1.283 . S
O130 Tb95 2.421 . S
O130 C147 1.262 . S
O131 Tb84 2.320 . S
O131 C147 1.260 . S
O132 Tb84 2.552 . S
O132 C140 1.243 . S
O133 Tb84 2.413 . S
O133 C148 1.256 . S
O134 Tb95 2.546 . S
O134 C159 1.251 . S
O135 Tb84 2.362 . S
O135 Tb95 2.610 . S
O135 C151 1.283 . S
O136 Tb84 2.421 . S
O136 C158 1.262 . S
O137 Tb95 2.320 . S
O137 C158 1.260 . S
O138 Tb95 2.552 . S
O138 C151 1.243 . S
O139 Tb95 2.413 . S
O139 C159 1.256 . S
C140 O129 1.283 . S
C140 O132 1.243 . S
C141 C143 1.382 . S
C141 C145 1.393 . S
C141 C148 1.500 . S
C142 C143 1.400 . S
C142 C144 1.384 1_455 S
C143 C141 1.382 . S
C143 C142 1.400 . S
C143 H160 0.930 . S
C144 C142 1.384 1_655 S
C144 C146 1.392 . S
C144 H161 0.931 . S
C145 C141 1.393 . S
C145 C146 1.401 1_455 S
C145 H162 0.930 1_455 S
C146 C144 1.392 . S
C146 C145 1.401 1_655 S
C146 H163 0.930 . S
C147 O130 1.262 . S
C147 O131 1.260 . S
C148 Tb84 2.833 . S
C148 O128 1.251 . S
C148 O133 1.256 . S
C148 C141 1.500 . S
C149 H114 0.929 . S
C149 C127 1.444 . S
C149 C150 1.317 . S
C150 H112 0.930 . S
C150 C118 1.432 . S
C150 C149 1.317 . S
C151 O135 1.283 . S
C151 O138 1.243 . S
C152 C153 1.382 . S
C152 C156 1.393 . S
C152 C159 1.500 . S
C153 C152 1.382 . S
C153 C154 1.400 . S
C153 H164 0.930 . S
C154 C153 1.400 . S
C154 C155 1.384 . S
C155 C154 1.384 . S
C155 C157 1.392 . S
C155 H165 0.931 . S
C156 C152 1.393 . S
C156 C157 1.401 . S
C156 H166 0.930 . S
C157 C155 1.392 . S
C157 C156 1.401 . S
C157 H167 0.930 . S
C158 O136 1.262 . S
C158 O137 1.260 . S
C159 Tb95 2.833 . S
C159 O134 1.251 . S
C159 O139 1.256 . S
C159 C152 1.500 . S
H160 C143 0.930 . S
H161 C144 0.931 . S
H162 C145 0.930 1_655 S
H163 C146 0.930 . S
H164 C153 0.930 . S
H165 C155 0.931 . S
H166 C156 0.930 . S
H167 C157 0.930 . S
Tb168 N199 2.660 . S
Tb168 N206 2.600 . S
Tb168 O212 2.546 . S
Tb168 O213 2.610 . S
Tb168 O215 2.320 . S
Tb168 O216 2.552 1_554 S
Tb168 O217 2.413 . S
Tb168 O219 2.362 . S
Tb168 O220 2.421 . S
Tb168 C232 2.833 . S
C169 C172 1.432 . S
C169 C173 1.414 . S
C169 N176 1.359 1_556 S
C170 C172 1.417 . S
C170 C174 1.432 . S
C170 C182 1.410 . S
C171 C173 1.444 . S
C171 C174 1.317 . S
C171 H194 0.929 . S
C172 C169 1.432 . S
C172 C170 1.417 . S
C172 N180 1.360 1_556 S
C173 C169 1.414 . S
C173 C171 1.444 . S
C173 C178 1.385 . S
C174 C170 1.432 . S
C174 C171 1.317 . S
C174 H186 0.930 . S
C175 C177 1.392 1_455 S
C175 C178 1.370 1_454 S
C175 H187 0.931 . S
N176 C169 1.359 1_554 S
N176 C177 1.327 . S
N176 Tb179 2.600 1_565 S
C177 C175 1.392 1_655 S
C177 N176 1.327 . S
C177 H184 0.930 1_655 S
C178 C173 1.385 . S
C178 C175 1.370 1_656 S
C178 H197 0.930 . S
Tb179 N176 2.600 1_545 S
Tb179 N180 2.660 1_545 S
Tb179 O213 2.362 . S
Tb179 O214 2.421 . S
Tb179 O218 2.546 1_545 S
Tb179 O219 2.610 . S
Tb179 O221 2.320 . S
Tb179 O222 2.552 . S
Tb179 O223 2.413 1_545 S
Tb179 C243 2.833 1_545 S
N180 C172 1.360 1_554 S
N180 Tb179 2.660 1_565 S
N180 C181 1.305 1_554 S
C181 N180 1.305 1_556 S
C181 C183 1.407 . S
C181 H188 0.930 1_556 S
C182 C170 1.410 . S
C182 C183 1.345 . S
C182 H190 0.930 . S
C183 C181 1.407 . S
C183 C182 1.345 . S
C183 H185 0.930 . S
H184 C177 0.930 1_455 S
H185 C183 0.930 . S
H186 C174 0.930 . S
H187 C175 0.931 . S
H188 C181 0.930 1_554 S
H189 C203 0.930 . S
H190 C182 0.930 . S
H191 C209 0.930 . S
H192 C200 0.930 1_455 S
H193 C207 0.931 . S
H194 C171 0.929 . S
H195 C201 0.930 . S
H196 C234 0.930 . S
H197 C178 0.930 . S
H198 C233 0.929 . S
N199 Tb168 2.660 . S
N199 C200 1.305 . S
N199 C204 1.360 . S
C200 H192 0.930 1_655 S
C200 N199 1.305 . S
C200 C203 1.407 1_655 S
C201 H195 0.930 . S
C201 C202 1.410 1_455 S
C201 C203 1.345 . S
C202 C201 1.410 1_655 S
C202 C204 1.417 . S
C202 C234 1.432 . S
C203 H189 0.930 . S
C203 C200 1.407 1_455 S
C203 C201 1.345 . S
C204 N199 1.360 . S
C204 C202 1.417 . S
C204 C208 1.432 . S
H205 C210 0.930 . S
N206 Tb168 2.600 . S
N206 C208 1.359 . S
N206 C209 1.327 . S
C207 H193 0.931 . S
C207 C209 1.392 . S
C207 C210 1.370 . S
C208 C204 1.432 . S
C208 N206 1.359 . S
C208 C211 1.414 . S
C209 H191 0.930 . S
C209 N206 1.327 . S
C209 C207 1.392 . S
C210 H205 0.930 . S
C210 C207 1.370 . S
C210 C211 1.385 . S
C211 C208 1.414 . S
C211 C210 1.385 . S
C211 C233 1.444 . S
O212 Tb168 2.546 . S
O212 C232 1.251 . S
O213 Tb168 2.610 . S
O213 Tb179 2.362 . S
O213 C224 1.283 1_554 S
O214 Tb179 2.421 . S
O214 C231 1.262 . S
O215 Tb168 2.320 . S
O215 C231 1.260 . S
O216 Tb168 2.552 1_556 S
O216 C224 1.243 . S
O217 Tb168 2.413 . S
O217 C232 1.256 . S
O218 Tb179 2.546 1_565 S
O218 C243 1.251 . S
O219 Tb168 2.362 . S
O219 Tb179 2.610 . S
O219 C235 1.283 . S
O220 Tb168 2.421 . S
O220 C242 1.262 . S
O221 Tb179 2.320 . S
O221 C242 1.260 . S
O222 Tb179 2.552 . S
O222 C235 1.243 . S
O223 Tb179 2.413 1_565 S
O223 C243 1.256 . S
C224 O213 1.283 1_556 S
C224 O216 1.243 . S
C225 C227 1.382 . S
C225 C229 1.393 . S
C225 C232 1.500 1_556 S
C226 C227 1.400 . S
C226 C228 1.384 . S
C227 C225 1.382 . S
C227 C226 1.400 . S
C227 H244 0.930 . S
C228 C226 1.384 . S
C228 C230 1.392 . S
C228 H245 0.931 . S
C229 C225 1.393 . S
C229 C230 1.401 . S
C229 H246 0.930 . S
C230 C228 1.392 . S
C230 C229 1.401 . S
C230 H247 0.930 . S
C231 O214 1.262 . S
C231 O215 1.260 . S
C232 Tb168 2.833 . S
C232 O212 1.251 . S
C232 O217 1.256 . S
C232 C225 1.500 1_554 S
C233 H198 0.929 . S
C233 C211 1.444 . S
C233 C234 1.317 . S
C234 H196 0.930 . S
C234 C202 1.432 . S
C234 C233 1.317 . S
C235 O219 1.283 . S
C235 O222 1.243 . S
C236 C237 1.382 . S
C236 C240 1.393 . S
C236 C243 1.500 . S
C237 C236 1.382 . S
C237 C238 1.400 . S
C237 H248 0.930 . S
C238 C237 1.400 . S
C238 C239 1.384 . S
C239 C238 1.384 . S
C239 C241 1.392 . S
C239 H249 0.931 . S
C240 C236 1.393 . S
C240 C241 1.401 . S
C240 H250 0.930 . S
C241 C239 1.392 . S
C241 C240 1.401 . S
C241 H251 0.930 . S
C242 O220 1.262 . S
C242 O221 1.260 . S
C243 Tb179 2.833 1_565 S
C243 O218 1.251 . S
C243 O223 1.256 . S
C243 C236 1.500 . S
H244 C227 0.930 . S
H245 C228 0.931 . S
H246 C229 0.930 . S
H247 C230 0.930 . S
H248 C237 0.930 . S
H249 C239 0.931 . S
H250 C240 0.930 . S
H251 C241 0.930 . S
Tb252 N283 2.660 . S
Tb252 N290 2.600 . S
Tb252 O296 2.546 . S
Tb252 O297 2.610 1_655 S
Tb252 O299 2.320 . S
Tb252 O300 2.552 1_655 S
Tb252 O301 2.413 . S
Tb252 O303 2.362 . S
Tb252 O304 2.421 . S
Tb252 C316 2.833 . S
C253 C256 1.432 . S
C253 C257 1.414 . S
C253 N260 1.359 . S
C254 C256 1.417 . S
C254 C258 1.432 . S
C254 C266 1.410 . S
C255 C257 1.444 . S
C255 C258 1.317 . S
C255 H278 0.929 . S
C256 C253 1.432 . S
C256 C254 1.417 . S
C256 N264 1.360 . S
C257 C253 1.414 . S
C257 C255 1.444 . S
C257 C262 1.385 . S
C258 C254 1.432 . S
C258 C255 1.317 . S
C258 H270 0.930 . S
C259 C261 1.392 1_545 S
C259 C262 1.370 1_545 S
C259 H271 0.931 . S
N260 C253 1.359 . S
N260 C261 1.327 . S
N260 Tb263 2.600 . S
C261 C259 1.392 1_565 S
C261 N260 1.327 . S
C261 H268 0.930 . S
C262 C257 1.385 . S
C262 C259 1.370 1_565 S
C262 H281 0.930 1_565 S
Tb263 N260 2.600 . S
Tb263 N264 2.660 . S
Tb263 O297 2.362 . S
Tb263 O298 2.421 . S
Tb263 O302 2.546 . S
Tb263 O303 2.610 1_455 S
Tb263 O305 2.320 . S
Tb263 O306 2.552 . S
Tb263 O307 2.413 . S
Tb263 C327 2.833 . S
N264 C256 1.360 . S
N264 Tb263 2.660 . S
N264 C265 1.305 . S
C265 N264 1.305 . S
C265 C267 1.407 . S
C265 H272 0.930 . S
C266 C254 1.410 . S
C266 C267 1.345 . S
C266 H274 0.930 . S
C267 C265 1.407 . S
C267 C266 1.345 . S
C267 H269 0.930 . S
H268 C261 0.930 . S
H269 C267 0.930 . S
H270 C258 0.930 . S
H271 C259 0.931 . S
H272 C265 0.930 . S
H273 C287 0.930 . S
H274 C266 0.930 . S
H275 C293 0.930 . S
H276 C284 0.930 . S
H277 C291 0.931 . S
H278 C255 0.929 . S
H279 C285 0.930 . S
H280 C318 0.930 . S
H281 C262 0.930 1_545 S
H282 C317 0.929 . S
N283 Tb252 2.660 . S
N283 C284 1.305 . S
N283 C288 1.360 . S
C284 H276 0.930 . S
C284 N283 1.305 . S
C284 C287 1.407 . S
C285 H279 0.930 . S
C285 C286 1.410 . S
C285 C287 1.345 . S
C286 C285 1.410 . S
C286 C288 1.417 . S
C286 C318 1.432 . S
C287 H273 0.930 . S
C287 C284 1.407 . S
C287 C285 1.345 . S
C288 N283 1.360 . S
C288 C286 1.417 . S
C288 C292 1.432 . S
H289 C294 0.930 . S
N290 Tb252 2.600 . S
N290 C292 1.359 . S
N290 C293 1.327 . S
C291 H277 0.931 . S
C291 C293 1.392 . S
C291 C294 1.370 . S
C292 C288 1.432 . S
C292 N290 1.359 . S
C292 C295 1.414 . S
C293 H275 0.930 . S
C293 N290 1.327 . S
C293 C291 1.392 . S
C294 H289 0.930 . S
C294 C291 1.370 . S
C294 C295 1.385 . S
C295 C292 1.414 . S
C295 C294 1.385 . S
C295 C317 1.444 . S
O296 Tb252 2.546 . S
O296 C316 1.251 . S
O297 Tb252 2.610 1_455 S
O297 Tb263 2.362 . S
O297 C308 1.283 . S
O298 Tb263 2.421 . S
O298 C315 1.262 . S
O299 Tb252 2.320 . S
O299 C315 1.260 1_655 S
O300 Tb252 2.552 1_455 S
O300 C308 1.243 . S
O301 Tb252 2.413 . S
O301 C316 1.256 . S
O302 Tb263 2.546 . S
O302 C327 1.251 . S
O303 Tb252 2.362 . S
O303 Tb263 2.610 1_655 S
O303 C319 1.283 . S
O304 Tb252 2.421 . S
O304 C326 1.262 1_655 S
O305 Tb263 2.320 . S
O305 C326 1.260 . S
O306 Tb263 2.552 . S
O306 C319 1.243 1_455 S
O307 Tb263 2.413 . S
O307 C327 1.256 . S
C308 O297 1.283 . S
C308 O300 1.243 . S
C309 C311 1.382 . S
C309 C313 1.393 . S
C309 C316 1.500 . S
C310 C311 1.400 . S
C310 C312 1.384 . S
C311 C309 1.382 . S
C311 C310 1.400 . S
C311 H328 0.930 . S
C312 C310 1.384 . S
C312 C314 1.392 . S
C312 H329 0.931 . S
C313 C309 1.393 . S
C313 C314 1.401 . S
C313 H330 0.930 . S
C314 C312 1.392 . S
C314 C313 1.401 . S
C314 H331 0.930 . S
C315 O298 1.262 . S
C315 O299 1.260 1_455 S
C316 Tb252 2.833 . S
C316 O296 1.251 . S
C316 O301 1.256 . S
C316 C309 1.500 . S
C317 H282 0.929 . S
C317 C295 1.444 . S
C317 C318 1.317 . S
C318 H280 0.930 . S
C318 C286 1.432 . S
C318 C317 1.317 . S
C319 O303 1.283 . S
C319 O306 1.243 1_655 S
C320 C321 1.382 . S
C320 C324 1.393 . S
C320 C327 1.500 . S
C321 C320 1.382 . S
C321 C322 1.400 . S
C321 H332 0.930 . S
C322 C321 1.400 . S
C322 C323 1.384 . S
C323 C322 1.384 . S
C323 C325 1.392 . S
C323 H333 0.931 . S
C324 C320 1.393 . S
C324 C325 1.401 . S
C324 H334 0.930 . S
C325 C323 1.392 . S
C325 C324 1.401 . S
C325 H335 0.930 . S
C326 O304 1.262 1_455 S
C326 O305 1.260 . S
C327 Tb263 2.833 . S
C327 O302 1.251 . S
C327 O307 1.256 . S
C327 C320 1.500 . S
H328 C311 0.930 . S
H329 C312 0.931 . S
H330 C313 0.930 . S
H331 C314 0.930 . S
H332 C321 0.930 . S
H333 C323 0.931 . S
H334 C324 0.930 . S
H335 C325 0.930 . S
H336 C337 0.951 . S
C337 H336 0.951 . S
C337 C343 1.265 . S
H338 C343 0.950 1_655 S
H339 C347 0.949 . S
H340 C348 0.950 . S
H341 C349 0.951 1_655 S
H342 C350 0.951 1_645 S
C343 C337 1.265 . S
C343 H338 0.950 1_455 S
C343 C344 1.478 . S
C344 C343 1.478 . S
C344 C345 1.397 . S
C344 C361 1.394 . S
C345 C344 1.397 . S
C345 C346 1.438 . S
C345 C350 1.429 1_545 S
C346 C345 1.438 . S
C346 C347 1.428 1_545 S
C346 C359 1.394 . S
C347 H339 0.949 . S
C347 C346 1.428 1_565 S
C347 C348 1.345 . S
C348 H340 0.950 . S
C348 C347 1.345 . S
C348 C349 1.424 . S
C349 H341 0.951 1_455 S
C349 C348 1.424 . S
C349 C350 1.347 . S
C350 H342 0.951 1_465 S
C350 C345 1.429 1_565 S
C350 C349 1.347 . S
H351 C352 0.951 . S
C352 H351 0.951 . S
C352 C358 1.265 . S
H353 C358 0.950 . S
H354 C362 0.949 . S
H355 C363 0.950 . S
H356 C364 0.951 . S
H357 C365 0.951 . S
C358 C352 1.265 . S
C358 H353 0.950 . S
C358 C359 1.478 . S
C359 C346 1.394 . S
C359 C358 1.478 . S
C359 C360 1.397 . S
C360 C359 1.397 . S
C360 C361 1.438 . S
C360 C365 1.429 . S
C361 C344 1.394 . S
C361 C360 1.438 . S
C361 C362 1.428 . S
C362 H354 0.949 . S
C362 C361 1.428 . S
C362 C363 1.345 . S
C363 H355 0.950 . S
C363 C362 1.345 . S
C363 C364 1.424 . S
C364 H356 0.951 . S
C364 C363 1.424 . S
C364 C365 1.347 . S
C365 H357 0.951 . S
C365 C360 1.429 . S
C365 C364 1.347 . S
H366 C367 0.951 . S
C367 H366 0.951 . S
C367 C373 1.265 . S
H368 C373 0.950 1_655 S
H369 C377 0.949 . S
H370 C378 0.950 . S
H371 C379 0.951 . S
H372 C380 0.951 . S
C373 C367 1.265 . S
C373 H368 0.950 1_455 S
C373 C374 1.478 1_565 S
C374 C373 1.478 1_545 S
C374 C375 1.397 . S
C374 C391 1.394 . S
C375 C374 1.397 . S
C375 C376 1.438 . S
C375 C380 1.429 . S
C376 C375 1.438 . S
C376 C377 1.428 . S
C376 C389 1.394 . S
C377 H369 0.949 . S
C377 C376 1.428 . S
C377 C378 1.345 . S
C378 H370 0.950 . S
C378 C377 1.345 . S
C378 C379 1.424 . S
C379 H371 0.951 . S
C379 C378 1.424 . S
C379 C380 1.347 . S
C380 H372 0.951 . S
C380 C375 1.429 . S
C380 C379 1.347 . S
H381 C382 0.951 . S
C382 H381 0.951 . S
C382 C388 1.265 . S
H383 C388 0.950 . S
H384 C392 0.949 . S
H385 C393 0.950 . S
H386 C394 0.951 . S
H387 C395 0.951 . S
C388 C382 1.265 . S
C388 H383 0.950 . S
C388 C389 1.478 . S
C389 C376 1.394 . S
C389 C388 1.478 . S
C389 C390 1.397 . S
C390 C389 1.397 . S
C390 C391 1.438 . S
C390 C395 1.429 . S
C391 C374 1.394 . S
C391 C390 1.438 . S
C391 C392 1.428 1_545 S
C392 H384 0.949 . S
C392 C391 1.428 1_565 S
C392 C393 1.345 . S
C393 H385 0.950 . S
C393 C392 1.345 . S
C393 C394 1.424 . S
C394 H386 0.951 . S
C394 C393 1.424 . S
C394 C395 1.347 1_565 S
C395 H387 0.951 . S
C395 C390 1.429 . S
C395 C394 1.347 1_545 S
H396 C397 0.951 . S
C397 H396 0.951 . S
C397 C403 1.265 . S
H398 C403 0.950 . S
H399 C407 0.949 . S
H400 C408 0.950 . S
H401 C409 0.951 1_556 S
H402 C410 0.951 . S
C403 C397 1.265 . S
C403 H398 0.950 . S
C403 C404 1.478 . S
C404 C403 1.478 . S
C404 C405 1.397 . S
C404 C421 1.394 . S
C405 C404 1.397 . S
C405 C406 1.438 . S
C405 C410 1.429 1_545 S
C406 C405 1.438 . S
C406 C407 1.428 1_545 S
C406 C419 1.394 . S
C407 H399 0.949 . S
C407 C406 1.428 1_565 S
C407 C408 1.345 . S
C408 H400 0.950 . S
C408 C407 1.345 . S
C408 C409 1.424 . S
C409 H401 0.951 1_554 S
C409 C408 1.424 . S
C409 C410 1.347 . S
C410 H402 0.951 . S
C410 C405 1.429 1_565 S
C410 C409 1.347 . S
H411 C412 0.951 . S
C412 H411 0.951 . S
C412 C418 1.265 . S
H413 C418 0.950 . S
H414 C422 0.949 . S
H415 C423 0.950 . S
H416 C424 0.951 . S
H417 C425 0.951 . S
C418 C412 1.265 . S
C418 H413 0.950 . S
C418 C419 1.478 . S
C419 C406 1.394 . S
C419 C418 1.478 . S
C419 C420 1.397 . S
C420 C419 1.397 . S
C420 C421 1.438 . S
C420 C425 1.429 . S
C421 C404 1.394 . S
C421 C420 1.438 . S
C421 C422 1.428 . S
C422 H414 0.949 . S
C422 C421 1.428 . S
C422 C423 1.345 . S
C423 H415 0.950 . S
C423 C422 1.345 . S
C423 C424 1.424 . S
C424 H416 0.951 . S
C424 C423 1.424 . S
C424 C425 1.347 . S
C425 H417 0.951 . S
C425 C420 1.429 . S
C425 C424 1.347 . S
H426 C427 0.951 . S
C427 H426 0.951 . S
C427 C433 1.265 . S
H428 C433 0.950 . S
H429 C437 0.944 1_655 S
H430 C438 0.950 . S
H431 C439 0.951 . S
H432 C440 0.951 . S
C433 C427 1.265 . S
C433 H428 0.950 . S
C433 C434 1.478 . S
C434 C433 1.478 . S
C434 C435 1.397 . S
C434 C451 1.394 . S
C435 C434 1.397 . S
C435 C436 1.438 . S
C435 C440 1.429 . S
C436 C435 1.438 . S
C436 C437 1.437 . S
C436 C449 1.394 . S
C437 H429 0.944 1_455 S
C437 C436 1.437 . S
C437 C438 1.341 1_455 S
C438 H430 0.950 . S
C438 C437 1.341 1_655 S
C438 C439 1.424 . S
C439 H431 0.951 . S
C439 C438 1.424 . S
C439 C440 1.347 1_655 S
C440 H432 0.951 . S
C440 C435 1.429 . S
C440 C439 1.347 1_455 S
H441 C442 0.951 . S
C442 H441 0.951 . S
C442 C448 1.265 . S
H443 C448 0.950 . S
H444 C452 0.949 . S
H445 C453 0.950 . S
H446 C454 0.951 . S
H447 C455 0.951 . S
C448 C442 1.265 . S
C448 H443 0.950 . S
C448 C449 1.478 . S
C449 C436 1.394 . S
C449 C448 1.478 . S
C449 C450 1.397 . S
C450 C449 1.397 . S
C450 C451 1.438 . S
C450 C455 1.429 . S
C451 C434 1.394 . S
C451 C450 1.438 . S
C451 C452 1.428 . S
C452 H444 0.949 . S
C452 C451 1.428 . S
C452 C453 1.345 . S
C453 H445 0.950 . S
C453 C452 1.345 . S
C453 C454 1.424 . S
C454 H446 0.951 . S
C454 C453 1.424 . S
C454 C455 1.347 . S
C455 H447 0.951 . S
C455 C450 1.429 . S
C455 C454 1.347 . S
H456 C457 0.951 . S
C457 H456 0.951 . S
C457 C463 1.265 . S
H458 C463 0.950 . S
H459 C467 0.949 . S
H460 C468 0.950 . S
H461 C469 0.951 . S
H462 C470 0.951 . S
C463 C457 1.265 . S
C463 H458 0.950 . S
C463 C464 1.478 . S
C464 C463 1.478 . S
C464 C465 1.397 . S
C464 C481 1.394 . S
C465 C464 1.397 . S
C465 C466 1.438 . S
C465 C470 1.429 . S
C466 C465 1.438 . S
C466 C467 1.428 . S
C466 C479 1.394 . S
C467 H459 0.949 . S
C467 C466 1.428 . S
C467 C468 1.345 . S
C468 H460 0.950 . S
C468 C467 1.345 . S
C468 C469 1.424 . S
C469 H461 0.951 . S
C469 C468 1.424 . S
C469 C470 1.347 . S
C470 H462 0.951 . S
C470 C465 1.429 . S
C470 C469 1.347 . S
H471 C472 0.951 . S
C472 H471 0.951 . S
C472 C478 1.265 . S
H473 C478 0.950 . S
H474 C482 0.949 . S
H475 C483 0.950 . S
H476 C484 0.951 . S
H477 C485 0.951 . S
C478 C472 1.265 . S
C478 H473 0.950 . S
C478 C479 1.478 . S
C479 C466 1.394 . S
C479 C478 1.478 . S
C479 C480 1.397 . S
C480 C479 1.397 . S
C480 C481 1.438 . S
C480 C485 1.429 . S
C481 C464 1.394 . S
C481 C480 1.438 . S
C481 C482 1.428 . S
C482 H474 0.949 . S
C482 C481 1.428 . S
C482 C483 1.345 . S
C483 H475 0.950 . S
C483 C482 1.345 . S
C483 C484 1.424 . S
C484 H476 0.951 . S
C484 C483 1.424 . S
C484 C485 1.347 . S
C485 H477 0.951 . S
C485 C480 1.429 . S
C485 C484 1.347 . S
H486 C487 0.951 . S
C487 H486 0.951 . S
C487 C493 1.265 . S
H488 C493 0.950 . S
H489 C497 0.949 . S
H490 C498 0.950 . S
H491 C499 0.951 . S
H492 C500 0.951 . S
C493 C487 1.265 . S
C493 H488 0.950 . S
C493 C494 1.478 . S
C494 C493 1.478 . S
C494 C495 1.397 . S
C494 C511 1.394 . S
C495 C494 1.397 . S
C495 C496 1.438 . S
C495 C500 1.429 . S
C496 C495 1.438 . S
C496 C497 1.428 . S
C496 C509 1.394 . S
C497 H489 0.949 . S
C497 C496 1.428 . S
C497 C498 1.345 . S
C498 H490 0.950 . S
C498 C497 1.345 . S
C498 C499 1.424 . S
C499 H491 0.951 . S
C499 C498 1.424 . S
C499 C500 1.347 . S
C500 H492 0.951 . S
C500 C495 1.429 . S
C500 C499 1.347 . S
H501 C502 0.951 1_455 S
C502 H501 0.951 1_655 S
C502 C508 1.265 . S
H503 C508 0.950 . S
H504 C512 0.949 1_455 S
H505 C513 0.950 . S
H506 C514 0.951 . S
H507 C515 0.951 . S
C508 C502 1.265 . S
C508 H503 0.950 . S
C508 C509 1.478 1_655 S
C509 C496 1.394 . S
C509 C508 1.478 1_455 S
C509 C510 1.397 1_455 S
C510 C509 1.397 1_655 S
C510 C511 1.438 1_655 S
C510 C515 1.429 . S
C511 C494 1.394 . S
C511 C510 1.438 1_455 S
C511 C512 1.428 1_455 S
C512 H504 0.949 1_655 S
C512 C511 1.428 1_655 S
C512 C513 1.345 . S
C513 H505 0.950 . S
C513 C512 1.345 . S
C513 C514 1.424 . S
C514 H506 0.951 . S
C514 C513 1.424 . S
C514 C515 1.347 . S
C515 H507 0.951 . S
C515 C510 1.429 . S
C515 C514 1.347 . S
H516 C517 0.951 . S
C517 H516 0.951 . S
C517 C523 1.265 . S
H518 C523 0.950 . S
H519 C527 0.949 . S
H520 C528 0.950 . S
H521 C529 0.951 . S
H522 C530 0.951 . S
C523 C517 1.265 . S
C523 H518 0.950 . S
C523 C524 1.478 . S
C524 C523 1.478 . S
C524 C525 1.397 . S
C524 C541 1.394 . S
C525 C524 1.397 . S
C525 C526 1.438 . S
C525 C530 1.429 . S
C526 C525 1.438 . S
C526 C527 1.428 . S
C526 C539 1.394 . S
C527 H519 0.949 . S
C527 C526 1.428 . S
C527 C528 1.345 . S
C528 H520 0.950 . S
C528 C527 1.345 . S
C528 C529 1.424 . S
C529 H521 0.951 . S
C529 C528 1.424 . S
C529 C530 1.347 . S
C530 H522 0.951 . S
C530 C525 1.429 . S
C530 C529 1.347 . S
H531 C532 0.951 . S
C532 H531 0.951 . S
C532 C538 1.265 . S
H533 C538 0.950 . S
H534 C542 0.949 . S
H535 C543 0.950 . S
H536 C544 0.951 1_545 S
H537 C545 0.951 . S
C538 C532 1.265 . S
C538 H533 0.950 . S
C538 C539 1.478 . S
C539 C526 1.394 . S
C539 C538 1.478 . S
C539 C540 1.397 . S
C540 C539 1.397 . S
C540 C541 1.438 . S
C540 C545 1.429 . S
C541 C524 1.394 . S
C541 C540 1.438 . S
C541 C542 1.428 . S
C542 H534 0.949 . S
C542 C541 1.428 . S
C542 C543 1.345 . S
C543 H535 0.950 . S
C543 C542 1.345 . S
C543 C544 1.424 . S
C544 H536 0.951 1_565 S
C544 C543 1.424 . S
C544 C545 1.347 . S
C545 H537 0.951 . S
C545 C540 1.429 . S
C545 C544 1.347 . S
H546 C547 0.951 . S
C547 H546 0.951 . S
C547 C553 1.265 . S
H548 C553 0.950 . S
H549 C557 0.949 1_554 S
H550 C558 0.950 . S
H551 C559 0.951 . S
H552 C560 0.951 . S
C553 C547 1.265 . S
C553 H548 0.950 . S
C553 C554 1.478 . S
C554 C553 1.478 . S
C554 C555 1.397 . S
C554 C571 1.394 . S
C555 C554 1.397 . S
C555 C556 1.438 . S
C555 C560 1.429 . S
C556 C555 1.438 . S
C556 C557 1.428 . S
C556 C569 1.394 . S
C557 H549 0.949 1_556 S
C557 C556 1.428 . S
C557 C558 1.345 . S
C558 H550 0.950 . S
C558 C557 1.345 . S
C558 C559 1.424 . S
C559 H551 0.951 . S
C559 C558 1.424 . S
C559 C560 1.347 . S
C560 H552 0.951 . S
C560 C555 1.429 . S
C560 C559 1.347 . S
H561 C562 0.951 . S
C562 H561 0.951 . S
C562 C568 1.265 . S
H563 C568 0.950 . S
H564 C572 0.949 . S
H565 C573 0.950 1_545 S
H566 C574 0.951 . S
H567 C575 0.951 1_544 S
C568 C562 1.265 . S
C568 H563 0.950 . S
C568 C569 1.478 1_554 S
C569 C556 1.394 . S
C569 C568 1.478 1_556 S
C569 C570 1.397 . S
C570 C569 1.397 . S
C570 C571 1.438 . S
C570 C575 1.429 . S
C571 C554 1.394 . S
C571 C570 1.438 . S
C571 C572 1.428 . S
C572 H564 0.949 . S
C572 C571 1.428 . S
C572 C573 1.345 . S
C573 H565 0.950 1_565 S
C573 C572 1.345 . S
C573 C574 1.424 1_565 S
C574 H566 0.951 . S
C574 C573 1.424 1_545 S
C574 C575 1.347 1_545 S
C575 H567 0.951 1_566 S
C575 C570 1.429 . S
C575 C574 1.347 1_565 S
H576 C577 0.951 . S
C577 H576 0.951 . S
C577 C583 1.265 1_545 S
H578 C583 0.950 . S
H579 C587 0.949 . S
H580 C588 0.950 . S
H581 C589 0.951 . S
H582 C590 0.951 . S
C583 C577 1.265 1_565 S
C583 H578 0.950 . S
C583 C584 1.478 . S
C584 C583 1.478 . S
C584 C585 1.397 . S
C584 C601 1.394 . S
C585 C584 1.397 . S
C585 C586 1.438 . S
C585 C590 1.429 1_565 S
C586 C585 1.438 . S
C586 C587 1.428 . S
C586 C599 1.394 . S
C587 H579 0.949 . S
C587 C586 1.428 . S
C587 C588 1.345 1_565 S
C588 H580 0.950 . S
C588 C587 1.345 1_545 S
C588 C589 1.424 . S
C589 H581 0.951 . S
C589 C588 1.424 . S
C589 C590 1.347 . S
C590 H582 0.951 . S
C590 C585 1.429 1_545 S
C590 C589 1.347 . S
H591 C592 0.951 . S
C592 H591 0.951 . S
C592 C598 1.265 . S
H593 C598 0.950 1_455 S
H594 C602 0.949 . S
H595 C603 0.950 . S
H596 C604 0.951 . S
H597 C605 0.951 . S
C598 C592 1.265 . S
C598 H593 0.950 1_655 S
C598 C599 1.478 . S
C599 C586 1.394 . S
C599 C598 1.478 . S
C599 C600 1.397 . S
C600 C599 1.397 . S
C600 C601 1.438 . S
C600 C605 1.429 . S
C601 C584 1.394 . S
C601 C600 1.438 . S
C601 C602 1.428 . S
C602 H594 0.949 . S
C602 C601 1.428 . S
C602 C603 1.345 . S
C603 H595 0.950 . S
C603 C602 1.345 . S
C603 C604 1.424 . S
C604 H596 0.951 . S
C604 C603 1.424 . S
C604 C605 1.347 . S
C605 H597 0.951 . S
C605 C600 1.429 . S
C605 C604 1.347 . S
H606 C607 0.951 . S
C607 H606 0.951 . S
C607 C613 1.265 . S
H608 C613 0.950 . S
H609 C617 0.949 . S
H610 C618 0.950 . S
H611 C619 0.951 . S
H612 C620 0.951 . S
C613 C607 1.265 . S
C613 H608 0.950 . S
C613 C614 1.478 . S
C614 C613 1.478 . S
C614 C615 1.397 . S
C614 C631 1.394 . S
C615 C614 1.397 . S
C615 C616 1.438 . S
C615 C620 1.429 . S
C616 C615 1.438 . S
C616 C617 1.428 . S
C616 C629 1.394 . S
C617 H609 0.949 . S
C617 C616 1.428 . S
C617 C618 1.345 . S
C618 H610 0.950 . S
C618 C617 1.345 . S
C618 C619 1.424 . S
C619 H611 0.951 . S
C619 C618 1.424 . S
C619 C620 1.347 . S
C620 H612 0.951 . S
C620 C615 1.429 . S
C620 C619 1.347 . S
H621 C622 0.951 . S
C622 H621 0.951 . S
C622 C628 1.265 . S
H623 C628 0.950 . S
H624 C632 0.949 . S
H625 C633 0.950 . S
H626 C634 0.951 . S
H627 C635 0.951 . S
C628 C622 1.265 . S
C628 H623 0.950 . S
C628 C629 1.478 . S
C629 C616 1.394 . S
C629 C628 1.478 . S
C629 C630 1.397 . S
C630 C629 1.397 . S
C630 C631 1.438 . S
C630 C635 1.429 . S
C631 C614 1.394 . S
C631 C630 1.438 . S
C631 C632 1.428 . S
C632 H624 0.949 . S
C632 C631 1.428 . S
C632 C633 1.345 . S
C633 H625 0.950 . S
C633 C632 1.345 . S
C633 C634 1.424 . S
C634 H626 0.951 . S
C634 C633 1.424 . S
C634 C635 1.347 . S
C635 H627 0.951 . S
C635 C630 1.429 . S
C635 C634 1.347 . S
H636 C637 0.951 . S
C637 H636 0.951 . S
C637 C643 1.265 . S
H638 C643 0.950 . S
H639 C647 0.949 . S
H640 C648 0.950 . S
H641 C649 0.951 . S
H642 C650 0.951 . S
C643 C637 1.265 . S
C643 H638 0.950 . S
C643 C644 1.478 . S
C644 C643 1.478 . S
C644 C645 1.397 . S
C644 C661 1.394 . S
C645 C644 1.397 . S
C645 C646 1.438 . S
C645 C650 1.429 . S
C646 C645 1.438 . S
C646 C647 1.428 1_556 S
C646 C659 1.394 . S
C647 H639 0.949 . S
C647 C646 1.428 1_554 S
C647 C648 1.345 . S
C648 H640 0.950 . S
C648 C647 1.345 . S
C648 C649 1.424 1_554 S
C649 H641 0.951 . S
C649 C648 1.424 1_556 S
C649 C650 1.347 . S
C650 H642 0.951 . S
C650 C645 1.429 . S
C650 C649 1.347 . S
H651 C652 0.951 1_556 S
C652 H651 0.951 1_554 S
C652 C658 1.279 . S
H653 C658 0.968 . S
H654 C662 0.949 . S
H655 C663 0.950 . S
H656 C664 0.951 . S
H657 C665 0.951 . S
C658 C652 1.279 . S
C658 H653 0.968 . S
C658 C659 1.448 1_554 S
C659 C646 1.394 . S
C659 C658 1.448 1_556 S
C659 C660 1.397 . S
C660 C659 1.397 . S
C660 C661 1.438 . S
C660 C665 1.429 . S
C661 C644 1.394 . S
C661 C660 1.438 . S
C661 C662 1.428 . S
C662 H654 0.949 . S
C662 C661 1.428 . S
C662 C663 1.345 . S
C663 H655 0.950 . S
C663 C662 1.345 . S
C663 C664 1.424 . S
C664 H656 0.951 . S
C664 C663 1.424 . S
C664 C665 1.347 . S
C665 H657 0.951 . S
C665 C660 1.429 . S
C665 C664 1.347 . S
H666 C667 0.951 . S
C667 H666 0.951 . S
C667 C673 1.265 . S
H668 C673 0.950 . S
H669 C677 0.949 . S
H670 C678 0.950 . S
H671 C679 0.951 . S
H672 C680 0.951 . S
C673 C667 1.265 . S
C673 H668 0.950 . S
C673 C674 1.478 . S
C674 C673 1.478 . S
C674 C675 1.397 . S
C674 C691 1.394 . S
C675 C674 1.397 . S
C675 C676 1.438 1_655 S
C675 C680 1.429 1_655 S
C676 C675 1.438 1_455 S
C676 C677 1.428 . S
C676 C689 1.394 1_455 S
C677 H669 0.949 . S
C677 C676 1.428 . S
C677 C678 1.345 . S
C678 H670 0.950 . S
C678 C677 1.345 . S
C678 C679 1.424 . S
C679 H671 0.951 . S
C679 C678 1.424 . S
C679 C680 1.347 . S
C680 H672 0.951 . S
C680 C675 1.429 1_455 S
C680 C679 1.347 . S
H681 C682 0.951 . S
C682 H681 0.951 . S
C682 C688 1.265 1_455 S
H683 C688 0.950 . S
H684 C692 0.949 . S
H685 C693 0.950 . S
H686 C694 0.951 . S
H687 C695 0.951 . S
C688 C682 1.265 1_655 S
C688 H683 0.950 . S
C688 C689 1.478 . S
C689 C676 1.394 1_655 S
C689 C688 1.478 . S
C689 C690 1.397 . S
C690 C689 1.397 . S
C690 C691 1.438 . S
C690 C695 1.429 . S
C691 C674 1.394 . S
C691 C690 1.438 . S
C691 C692 1.428 . S
C692 H684 0.949 . S
C692 C691 1.428 . S
C692 C693 1.345 . S
C693 H685 0.950 . S
C693 C692 1.345 . S
C693 C694 1.424 . S
C694 H686 0.951 . S
C694 C693 1.424 . S
C694 C695 1.347 . S
C695 H687 0.951 . S
C695 C690 1.429 . S
C695 C694 1.347 . S
C337 C231 0.913 1_455 S
C352 C74 0.913 . S
C367 C315 0.411 . S
C382 C158 0.411 . S
C397 C242 1.261 . S
C412 C63 1.261 . S
C427 C147 1.316 . S
C442 C326 1.316 . S
C457 C140 1.970 . S
C472 C67 2.075 . S
C487 C151 2.101 . S
C502 C226 2.133 . S
C517 C310 1.038 . S
C532 C238 0.824 . S
C547 C322 0.694 . S
C562 C56 0.816 . S
C577 C224 2.073 . S
C592 C319 1.973 . S
C607 C70 2.134 . S
C622 C308 2.117 . S
C637 C154 1.108 . S
C652 C58 1.062 . S
C667 C235 0.927 . S
C682 C142 0.816 . S
