# Generated by pormake.
# Topology fcp, (5)-cn, num edge types: 1
# Building blocks:
#     Node 0, Type 0, BuildingBlock: XOMCOT_clean_sbu_1, # of connection points: 5
#     Node 1, Type 0, BuildingBlock: XOMCOT_clean_sbu_1, # of connection points: 5
#     Node 2, Type 0, BuildingBlock: XOMCOT_clean_sbu_1, # of connection points: 5
#     Node 3, Type 0, BuildingBlock: XOMCOT_clean_sbu_1, # of connection points: 5
#     Node 4, Type 0, BuildingBlock: XOMCOT_clean_sbu_1, # of connection points: 5
#     Node 5, Type 0, BuildingBlock: XOMCOT_clean_sbu_1, # of connection points: 5
#     Node 6, Type 0, BuildingBlock: XOMCOT_clean_sbu_1, # of connection points: 5
#     Node 7, Type 0, BuildingBlock: XOMCOT_clean_sbu_1, # of connection points: 5
#     Node 8, Type 0, BuildingBlock: XOMCOT_clean_sbu_1, # of connection points: 5
#     Node 9, Type 0, BuildingBlock: XOMCOT_clean_sbu_1, # of connection points: 5
#     Node 10, Type 0, BuildingBlock: XOMCOT_clean_sbu_1, # of connection points: 5
#     Node 11, Type 0, BuildingBlock: XOMCOT_clean_sbu_1, # of connection points: 5
#     Node 12, Type 0, BuildingBlock: XOMCOT_clean_sbu_1, # of connection points: 5
#     Node 13, Type 0, BuildingBlock: XOMCOT_clean_sbu_1, # of connection points: 5
#     Node 14, Type 0, BuildingBlock: XOMCOT_clean_sbu_1, # of connection points: 5
#     Node 15, Type 0, BuildingBlock: XOMCOT_clean_sbu_1, # of connection points: 5
#     Node 16, Type 0, BuildingBlock: XOMCOT_clean_sbu_1, # of connection points: 5
#     Node 17, Type 0, BuildingBlock: XOMCOT_clean_sbu_1, # of connection points: 5
#     Node 18, Type 0, BuildingBlock: XOMCOT_clean_sbu_1, # of connection points: 5
#     Node 19, Type 0, BuildingBlock: XOMCOT_clean_sbu_1, # of connection points: 5
#     Node 20, Type 0, BuildingBlock: XOMCOT_clean_sbu_1, # of connection points: 5
#     Node 21, Type 0, BuildingBlock: XOMCOT_clean_sbu_1, # of connection points: 5
#     Node 22, Type 0, BuildingBlock: XOMCOT_clean_sbu_1, # of connection points: 5
#     Node 23, Type 0, BuildingBlock: XOMCOT_clean_sbu_1, # of connection points: 5
#     Edge 24, Type (0, 0), BuildingBlock: OJICUG_clean_linker_0, # of connection points: 2
#     Edge 25, Type (0, 0), BuildingBlock: OJICUG_clean_linker_0, # of connection points: 2
#     Edge 26, Type (0, 0), BuildingBlock: OJICUG_clean_linker_0, # of connection points: 2
#     Edge 27, Type (0, 0), BuildingBlock: OJICUG_clean_linker_0, # of connection points: 2
#     Edge 28, Type (0, 0), BuildingBlock: OJICUG_clean_linker_0, # of connection points: 2
#     Edge 29, Type (0, 0), BuildingBlock: OJICUG_clean_linker_0, # of connection points: 2
#     Edge 30, Type (0, 0), BuildingBlock: OJICUG_clean_linker_0, # of connection points: 2
#     Edge 31, Type (0, 0), BuildingBlock: OJICUG_clean_linker_0, # of connection points: 2
#     Edge 32, Type (0, 0), BuildingBlock: OJICUG_clean_linker_0, # of connection points: 2
#     Edge 33, Type (0, 0), BuildingBlock: OJICUG_clean_linker_0, # of connection points: 2
#     Edge 34, Type (0, 0), BuildingBlock: OJICUG_clean_linker_0, # of connection points: 2
#     Edge 35, Type (0, 0), BuildingBlock: OJICUG_clean_linker_0, # of connection points: 2
#     Edge 36, Type (0, 0), BuildingBlock: OJICUG_clean_linker_0, # of connection points: 2
#     Edge 37, Type (0, 0), BuildingBlock: OJICUG_clean_linker_0, # of connection points: 2
#     Edge 38, Type (0, 0), BuildingBlock: OJICUG_clean_linker_0, # of connection points: 2
#     Edge 39, Type (0, 0), BuildingBlock: OJICUG_clean_linker_0, # of connection points: 2
#     Edge 40, Type (0, 0), BuildingBlock: OJICUG_clean_linker_0, # of connection points: 2
#     Edge 41, Type (0, 0), BuildingBlock: OJICUG_clean_linker_0, # of connection points: 2
#     Edge 42, Type (0, 0), BuildingBlock: OJICUG_clean_linker_0, # of connection points: 2
#     Edge 43, Type (0, 0), BuildingBlock: OJICUG_clean_linker_0, # of connection points: 2
#     Edge 44, Type (0, 0), BuildingBlock: OJICUG_clean_linker_0, # of connection points: 2
#     Edge 45, Type (0, 0), BuildingBlock: OJICUG_clean_linker_0, # of connection points: 2
#     Edge 46, Type (0, 0), BuildingBlock: OJICUG_clean_linker_0, # of connection points: 2
#     Edge 47, Type (0, 0), BuildingBlock: OJICUG_clean_linker_0, # of connection points: 2
#     Edge 48, Type (0, 0), BuildingBlock: OJICUG_clean_linker_0, # of connection points: 2
#     Edge 49, Type (0, 0), BuildingBlock: OJICUG_clean_linker_0, # of connection points: 2
#     Edge 50, Type (0, 0), BuildingBlock: OJICUG_clean_linker_0, # of connection points: 2
#     Edge 51, Type (0, 0), BuildingBlock: OJICUG_clean_linker_0, # of connection points: 2
#     Edge 52, Type (0, 0), BuildingBlock: OJICUG_clean_linker_0, # of connection points: 2
#     Edge 53, Type (0, 0), BuildingBlock: OJICUG_clean_linker_0, # of connection points: 2
#     Edge 54, Type (0, 0), BuildingBlock: OJICUG_clean_linker_0, # of connection points: 2
#     Edge 55, Type (0, 0), BuildingBlock: OJICUG_clean_linker_0, # of connection points: 2
#     Edge 56, Type (0, 0), BuildingBlock: OJICUG_clean_linker_0, # of connection points: 2
#     Edge 57, Type (0, 0), BuildingBlock: OJICUG_clean_linker_0, # of connection points: 2
#     Edge 58, Type (0, 0), BuildingBlock: OJICUG_clean_linker_0, # of connection points: 2
#     Edge 59, Type (0, 0), BuildingBlock: OJICUG_clean_linker_0, # of connection points: 2
#     Edge 60, Type (0, 0), BuildingBlock: OJICUG_clean_linker_0, # of connection points: 2
#     Edge 61, Type (0, 0), BuildingBlock: OJICUG_clean_linker_0, # of connection points: 2
#     Edge 62, Type (0, 0), BuildingBlock: OJICUG_clean_linker_0, # of connection points: 2
#     Edge 63, Type (0, 0), BuildingBlock: OJICUG_clean_linker_0, # of connection points: 2
#     Edge 64, Type (0, 0), BuildingBlock: OJICUG_clean_linker_0, # of connection points: 2
#     Edge 65, Type (0, 0), BuildingBlock: OJICUG_clean_linker_0, # of connection points: 2
#     Edge 66, Type (0, 0), BuildingBlock: OJICUG_clean_linker_0, # of connection points: 2
#     Edge 67, Type (0, 0), BuildingBlock: OJICUG_clean_linker_0, # of connection points: 2
#     Edge 68, Type (0, 0), BuildingBlock: OJICUG_clean_linker_0, # of connection points: 2
#     Edge 69, Type (0, 0), BuildingBlock: OJICUG_clean_linker_0, # of connection points: 2
#     Edge 70, Type (0, 0), BuildingBlock: OJICUG_clean_linker_0, # of connection points: 2
#     Edge 71, Type (0, 0), BuildingBlock: OJICUG_clean_linker_0, # of connection points: 2
#     Edge 72, Type (0, 0), BuildingBlock: OJICUG_clean_linker_0, # of connection points: 2
#     Edge 73, Type (0, 0), BuildingBlock: OJICUG_clean_linker_0, # of connection points: 2
#     Edge 74, Type (0, 0), BuildingBlock: OJICUG_clean_linker_0, # of connection points: 2
#     Edge 75, Type (0, 0), BuildingBlock: OJICUG_clean_linker_0, # of connection points: 2
#     Edge 76, Type (0, 0), BuildingBlock: OJICUG_clean_linker_0, # of connection points: 2
#     Edge 77, Type (0, 0), BuildingBlock: OJICUG_clean_linker_0, # of connection points: 2
#     Edge 78, Type (0, 0), BuildingBlock: OJICUG_clean_linker_0, # of connection points: 2
#     Edge 79, Type (0, 0), BuildingBlock: OJICUG_clean_linker_0, # of connection points: 2
#     Edge 80, Type (0, 0), BuildingBlock: OJICUG_clean_linker_0, # of connection points: 2
#     Edge 81, Type (0, 0), BuildingBlock: OJICUG_clean_linker_0, # of connection points: 2
#     Edge 82, Type (0, 0), BuildingBlock: OJICUG_clean_linker_0, # of connection points: 2
#     Edge 83, Type (0, 0), BuildingBlock: OJICUG_clean_linker_0, # of connection points: 2
# Relax obj value: 0.095
# Max RMSD: 0.137
# Mean RMSD: 0.137
data_MOF--net-fcp--node1-XOMCOT_clean_sbu_1--edge1-OJICUG_clean_linker_0
_symmetry_space_group_name_H-M    P1
_symmetry_Int_Tables_number       1
_symmetry_cell_setting            triclinic
loop_
_symmetry_equiv_pos_as_xyz
'x, y, z'
_cell_length_a     39.152641
_cell_length_b     39.153461
_cell_length_c     39.154436
_cell_angle_alpha  90.001218
_cell_angle_beta   89.998676
_cell_angle_gamma 90.000861
loop_
_atom_site_label
_atom_site_type_symbol
_atom_site_fract_x
_atom_site_fract_y
_atom_site_fract_z
_atom_type_partial_charge
C0 C 0.0286 0.33354 0.17325 0.0
C1 C 0.99986 0.34023 0.19238 0.0
N2 N 1.00915 0.35894 0.21976 0.0
N3 N 0.05582 0.3483 0.18828 0.0
C4 C 0.04326 0.36325 0.21673 0.0
H5 H 0.02967 0.31892 0.14983 0.0
Co6 Co 0.10075 0.34649 0.17264 0.0
C7 C 0.11649 0.42056 0.19077 0.0
O8 O 0.11588 0.43212 0.15929 0.0
N9 N 0.14636 0.34337 0.15762 0.0
C10 C 0.20034 0.35161 0.14158 0.0
C11 C 0.17039 0.36733 0.15123 0.0
C12 C 0.16236 0.31343 0.15141 0.0
N13 N 0.19518 0.31764 0.14165 0.0
O14 O 0.1131 0.32154 0.21284 0.0
H15 H 0.16685 0.3945 0.15309 0.0
H16 H 0.15008 0.28885 0.15411 0.0
O17 O 0.11116 0.38893 0.1968 0.0
C18 C 0.10524 0.28998 0.21165 0.0
O19 O 0.08953 0.27841 0.18433 0.0
N20 N 0.08723 0.36835 0.13144 0.0
C21 C 0.05378 0.38168 0.06961 0.0
C22 C 0.04611 0.40077 0.09895 0.0
C23 C 0.06294 0.39349 0.12976 0.0
C24 C 0.09607 0.35095 0.10256 0.0
C25 C 0.08019 0.35762 0.07145 0.0
H26 H 0.0545 0.4062 0.15278 0.0
H27 H 0.11353 0.32968 0.10385 0.0
H28 H 0.05882 0.37723 0.23478 0.0
H29 H 0.97424 0.33144 0.18686 0.0
H30 H 0.22385 0.36426 0.13442 0.0
H31 H 0.0255 0.41922 0.0988 0.0
H32 H 0.08703 0.34233 0.04941 0.0
C33 C 0.83361 0.49099 0.3461 0.0
C34 C 0.84029 0.51973 0.32697 0.0
N35 N 0.85899 0.51045 0.29958 0.0
N36 N 0.84838 0.46378 0.33107 0.0
C37 C 0.86331 0.47634 0.30261 0.0
H38 H 0.819 0.48991 0.36952 0.0
Co39 Co 0.84658 0.41885 0.3467 0.0
C40 C 0.92066 0.40313 0.32856 0.0
O41 O 0.93221 0.40374 0.36005 0.0
N42 N 0.84348 0.37323 0.3617 0.0
C43 C 0.85173 0.31926 0.37773 0.0
C44 C 0.86744 0.34921 0.36807 0.0
C45 C 0.81353 0.35723 0.36793 0.0
N46 N 0.81776 0.32442 0.37769 0.0
O47 O 0.82162 0.4065 0.30649 0.0
H48 H 0.89461 0.35275 0.36619 0.0
H49 H 0.78896 0.36951 0.36526 0.0
O50 O 0.88902 0.40845 0.32252 0.0
C51 C 0.79006 0.41435 0.30771 0.0
O52 O 0.77851 0.43005 0.33505 0.0
N53 N 0.86845 0.43237 0.38789 0.0
C54 C 0.88177 0.46579 0.44974 0.0
C55 C 0.90086 0.47348 0.4204 0.0
C56 C 0.89358 0.45666 0.38958 0.0
C57 C 0.85106 0.4235 0.41677 0.0
C58 C 0.85772 0.43937 0.4479 0.0
H59 H 0.90627 0.46513 0.36656 0.0
H60 H 0.82979 0.40603 0.41549 0.0
H61 H 0.87729 0.46078 0.28455 0.0
H62 H 0.83149 0.54535 0.33249 0.0
H63 H 0.86438 0.29574 0.38488 0.0
H64 H 0.9193 0.4941 0.42056 0.0
H65 H 0.84245 0.43251 0.46993 0.0
C66 C 0.99102 0.68599 0.17332 0.0
C67 C 0.01974 0.6793 0.19246 0.0
N68 N 0.01044 0.66059 0.21984 0.0
N69 N 0.96379 0.67123 0.18833 0.0
C70 C 0.97633 0.65627 0.21678 0.0
H71 H 0.98995 0.70062 0.14991 0.0
Co72 Co 0.91887 0.67303 0.17267 0.0
C73 C 0.90315 0.59895 0.19077 0.0
O74 O 0.90379 0.58739 0.15929 0.0
N75 N 0.87326 0.67613 0.15763 0.0
C76 C 0.81931 0.66786 0.14153 0.0
C77 C 0.84926 0.65216 0.15118 0.0
C78 C 0.85723 0.70607 0.15145 0.0
N79 N 0.82443 0.70183 0.14166 0.0
O80 O 0.90649 0.69796 0.21287 0.0
H81 H 0.85284 0.62499 0.15299 0.0
H82 H 0.86948 0.73066 0.1542 0.0
O83 O 0.90845 0.63058 0.19681 0.0
C84 C 0.91435 0.72953 0.21169 0.0
O85 O 0.93006 0.7411 0.18437 0.0
N86 N 0.93241 0.65118 0.13147 0.0
C87 C 0.96586 0.63787 0.06963 0.0
C88 C 0.97353 0.61878 0.09897 0.0
C89 C 0.9567 0.62605 0.12978 0.0
C90 C 0.92357 0.66859 0.10259 0.0
C91 C 0.93945 0.66193 0.07147 0.0
H92 H 0.96515 0.61334 0.1528 0.0
H93 H 0.9061 0.68985 0.10388 0.0
H94 H 0.96076 0.64229 0.23482 0.0
H95 H 0.04536 0.6881 0.18696 0.0
H96 H 0.79581 0.6552 0.13432 0.0
H97 H 0.99414 0.60033 0.09881 0.0
H98 H 0.9326 0.67721 0.04944 0.0
C99 C 0.18591 0.52847 0.34617 0.0
C100 C 0.17924 0.49974 0.32703 0.0
N101 N 0.16055 0.50903 0.29963 0.0
N102 N 0.17114 0.55569 0.33115 0.0
C103 C 0.15622 0.54314 0.30268 0.0
H104 H 0.20051 0.52955 0.3696 0.0
Co105 Co 0.17294 0.60062 0.3468 0.0
C106 C 0.09886 0.61634 0.32867 0.0
O107 O 0.08729 0.61571 0.36014 0.0
N108 N 0.17604 0.64623 0.36182 0.0
C109 C 0.16779 0.70018 0.3779 0.0
C110 C 0.15208 0.67023 0.36825 0.0
C111 C 0.20598 0.66224 0.36802 0.0
N112 N 0.20175 0.69505 0.3778 0.0
O113 O 0.19788 0.61299 0.30659 0.0
H114 H 0.1249 0.66667 0.36642 0.0
H115 H 0.23057 0.64998 0.36529 0.0
O116 O 0.1305 0.61102 0.32264 0.0
C117 C 0.22945 0.60513 0.30776 0.0
O118 O 0.24103 0.58941 0.33507 0.0
N119 N 0.15108 0.58708 0.38799 0.0
C120 C 0.13775 0.55364 0.44983 0.0
C121 C 0.11866 0.54597 0.42048 0.0
C122 C 0.12595 0.56279 0.38967 0.0
C123 C 0.16848 0.59593 0.41687 0.0
C124 C 0.16181 0.58005 0.44799 0.0
H125 H 0.11324 0.55434 0.36665 0.0
H126 H 0.18975 0.61339 0.41558 0.0
H127 H 0.14225 0.5587 0.28462 0.0
H128 H 0.18804 0.47413 0.33254 0.0
H129 H 0.15513 0.72368 0.3851 0.0
H130 H 0.10021 0.52536 0.42064 0.0
H131 H 0.17709 0.58689 0.47002 0.0
C132 C 0.02825 0.68608 0.84603 0.0
C133 C 0.99954 0.67935 0.82687 0.0
N134 N 1.00887 0.66059 0.79954 0.0
N135 N 0.05549 0.6713 0.83107 0.0
C136 C 0.04298 0.65629 0.80262 0.0
H137 H 0.02929 0.70074 0.86942 0.0
Co138 Co 0.1004 0.67312 0.84678 0.0
C139 C 0.11616 0.59904 0.82867 0.0
O140 O 0.11543 0.58745 0.86014 0.0
N141 N 0.14599 0.67624 0.86186 0.0
C142 C 0.19989 0.66793 0.8781 0.0
C143 C 0.16992 0.65225 0.86846 0.0
C144 C 0.16206 0.70617 0.86795 0.0
N145 N 0.19484 0.70191 0.87782 0.0
O146 O 0.11281 0.69805 0.80657 0.0
H147 H 0.16628 0.62508 0.86679 0.0
H148 H 0.14987 0.73077 0.86508 0.0
O149 O 0.11086 0.63068 0.82265 0.0
C150 C 0.10494 0.72962 0.80773 0.0
O151 O 0.08919 0.7412 0.83502 0.0
N152 N 0.08682 0.65128 0.88796 0.0
C153 C 0.05334 0.63794 0.94978 0.0
C154 C 0.0457 0.61885 0.92043 0.0
C155 C 0.06254 0.62614 0.88963 0.0
C156 C 0.09563 0.66869 0.91684 0.0
C157 C 0.07974 0.66202 0.94795 0.0
H158 H 0.05411 0.61343 0.8666 0.0
H159 H 0.11309 0.68997 0.91556 0.0
H160 H 0.05857 0.64228 0.78462 0.0
H161 H 0.97391 0.68814 0.83235 0.0
H162 H 0.22334 0.65525 0.88542 0.0
H163 H 0.0251 0.60039 0.92057 0.0
H164 H 0.08656 0.67731 0.96999 0.0
C165 C 0.186 0.49124 0.67338 0.0
C166 C 0.17929 0.51996 0.69252 0.0
N167 N 0.16055 0.51064 0.71988 0.0
N168 N 0.17121 0.46401 0.68836 0.0
C169 C 0.15623 0.47654 0.71681 0.0
H170 H 0.20064 0.49018 0.64997 0.0
Co171 Co 0.17302 0.4191 0.67266 0.0
C172 C 0.09894 0.40335 0.6908 0.0
O173 O 0.08734 0.40406 0.65933 0.0
N174 N 0.17612 0.37351 0.65759 0.0
C175 C 0.16783 0.31959 0.64139 0.0
C176 C 0.15214 0.34955 0.65104 0.0
C177 C 0.20606 0.35746 0.65146 0.0
N178 N 0.20181 0.32467 0.64161 0.0
O179 O 0.19796 0.4067 0.71286 0.0
H180 H 0.12497 0.35317 0.65277 0.0
H181 H 0.23065 0.36968 0.65427 0.0
O182 O 0.13058 0.40865 0.69681 0.0
C183 C 0.22953 0.41457 0.71171 0.0
O184 O 0.24111 0.43031 0.68442 0.0
N185 N 0.15116 0.43267 0.63148 0.0
C186 C 0.13781 0.46615 0.56967 0.0
C187 C 0.11872 0.47379 0.59902 0.0
C188 C 0.12602 0.45695 0.62983 0.0
C189 C 0.16856 0.42385 0.6026 0.0
C190 C 0.16188 0.43975 0.57149 0.0
H191 H 0.11332 0.46539 0.65285 0.0
H192 H 0.18983 0.40639 0.60387 0.0
H193 H 0.14222 0.46096 0.73482 0.0
H194 H 0.18809 0.54558 0.68704 0.0
H195 H 0.15515 0.29613 0.63411 0.0
H196 H 0.10026 0.4944 0.59888 0.0
H197 H 0.17716 0.43292 0.54945 0.0
C198 C 0.99122 0.33338 0.8461 0.0
C199 C 0.01993 0.34011 0.82694 0.0
N200 N 0.0106 0.35886 0.79961 0.0
N201 N 0.96398 0.34817 0.83115 0.0
C202 C 0.9765 0.36317 0.8027 0.0
H203 H 0.99018 0.31873 0.8695 0.0
Co204 Co 0.91908 0.34636 0.84687 0.0
C205 C 0.90333 0.42044 0.82873 0.0
O206 O 0.90406 0.43206 0.86019 0.0
N207 N 0.8735 0.34326 0.86198 0.0
C208 C 0.8196 0.35158 0.87823 0.0
C209 C 0.84957 0.36726 0.86858 0.0
C210 C 0.85743 0.31333 0.86809 0.0
N211 N 0.82465 0.3176 0.87796 0.0
O212 O 0.90665 0.32142 0.80669 0.0
H213 H 0.85321 0.39443 0.86688 0.0
H214 H 0.86962 0.28873 0.86523 0.0
O215 O 0.90862 0.3888 0.82273 0.0
C216 C 0.91451 0.28985 0.80783 0.0
O217 O 0.93028 0.27827 0.83511 0.0
N218 N 0.93268 0.36823 0.88804 0.0
C219 C 0.96621 0.38159 0.94982 0.0
C220 C 0.97383 0.40067 0.92046 0.0
C221 C 0.95697 0.39337 0.88968 0.0
C222 C 0.92389 0.35083 0.91693 0.0
C223 C 0.93981 0.3575 0.94803 0.0
H224 H 0.96538 0.40607 0.86664 0.0
H225 H 0.90643 0.32955 0.91567 0.0
H226 H 0.96091 0.37718 0.7847 0.0
H227 H 0.04556 0.33131 0.83242 0.0
H228 H 0.79615 0.36426 0.88555 0.0
H229 H 0.99443 0.41913 0.92059 0.0
H230 H 0.933 0.34223 0.97007 0.0
C231 C 0.83351 0.52814 0.67336 0.0
C232 C 0.84022 0.49943 0.69252 0.0
N233 N 0.85895 0.50876 0.71988 0.0
N234 N 0.84829 0.55538 0.68833 0.0
C235 C 0.86326 0.54287 0.71679 0.0
H236 H 0.81887 0.52918 0.64995 0.0
Co237 Co 0.84647 0.60028 0.67262 0.0
C238 C 0.92055 0.61605 0.69074 0.0
O239 O 0.93215 0.61532 0.65928 0.0
N240 N 0.84335 0.64587 0.65754 0.0
C241 C 0.85165 0.69977 0.64129 0.0
C242 C 0.86734 0.66981 0.65094 0.0
C243 C 0.81341 0.66193 0.65144 0.0
N244 N 0.81767 0.69471 0.64157 0.0
O245 O 0.82153 0.61269 0.71283 0.0
H246 H 0.89451 0.66618 0.65263 0.0
H247 H 0.78882 0.64973 0.6543 0.0
O248 O 0.88891 0.61075 0.69676 0.0
C249 C 0.78997 0.60481 0.71169 0.0
O250 O 0.77837 0.58906 0.68441 0.0
N251 N 0.86832 0.58671 0.63144 0.0
C252 C 0.88168 0.55324 0.56962 0.0
C253 C 0.90077 0.54559 0.59897 0.0
C254 C 0.89346 0.56243 0.62978 0.0
C255 C 0.85091 0.59552 0.60256 0.0
C256 C 0.85759 0.57963 0.57145 0.0
H257 H 0.90617 0.554 0.6528 0.0
H258 H 0.82963 0.61297 0.60384 0.0
H259 H 0.87726 0.55846 0.7348 0.0
H260 H 0.83142 0.47381 0.68705 0.0
H261 H 0.86433 0.72322 0.63398 0.0
H262 H 0.91923 0.525 0.59883 0.0
H263 H 0.84231 0.58645 0.54941 0.0
C264 C 0.17343 0.02833 0.33344 0.0
C265 C 0.19258 0.99961 0.34016 0.0
N266 N 0.21994 1.00893 0.35889 0.0
N267 N 0.18842 0.05556 0.34822 0.0
C268 C 0.21687 0.04303 0.3632 0.0
H269 H 0.15003 0.02938 0.3188 0.0
Co270 Co 0.17274 0.10048 0.34639 0.0
C271 C 0.19083 0.11623 0.42048 0.0
O272 O 0.15936 0.11553 0.43205 0.0
N273 N 0.15769 0.14608 0.34328 0.0
C274 C 0.14151 0.2 0.35156 0.0
C275 C 0.15114 0.17003 0.36725 0.0
C276 C 0.15158 0.16213 0.31334 0.0
N277 N 0.14174 0.19492 0.31759 0.0
O278 O 0.21296 0.11285 0.32147 0.0
H279 H 0.15286 0.16642 0.39443 0.0
H280 H 0.1544 0.14991 0.28875 0.0
O281 O 0.19687 0.11092 0.38884 0.0
C282 C 0.21179 0.10498 0.2899 0.0
O283 O 0.18448 0.08925 0.27833 0.0
N284 N 0.13154 0.08693 0.36824 0.0
C285 C 0.0697 0.05348 0.38155 0.0
C286 C 0.09904 0.04582 0.40065 0.0
C287 C 0.12985 0.06264 0.39337 0.0
C288 C 0.10266 0.09576 0.35082 0.0
C289 C 0.07154 0.07989 0.35748 0.0
H290 H 0.15287 0.05419 0.40608 0.0
H291 H 0.10396 0.11322 0.32955 0.0
H292 H 0.23489 0.05861 0.37719 0.0
H293 H 0.18709 0.97399 0.33136 0.0
H294 H 0.13423 0.22347 0.36423 0.0
H295 H 0.09888 0.02521 0.41911 0.0
H296 H 0.04951 0.08672 0.34219 0.0
C297 C 0.52832 0.3461 0.18602 0.0
C298 C 0.49962 0.32693 0.17932 0.0
N299 N 0.50896 0.29957 0.16059 0.0
N300 N 0.55557 0.33114 0.17125 0.0
C301 C 0.54306 0.30267 0.15628 0.0
H302 H 0.52936 0.36951 0.20065 0.0
Co303 Co 0.60047 0.34685 0.17306 0.0
C304 C 0.61622 0.32874 0.09897 0.0
O305 O 0.61549 0.3602 0.08738 0.0
N306 N 0.64606 0.36195 0.17615 0.0
C307 C 0.69997 0.37818 0.16784 0.0
C308 C 0.66999 0.36854 0.15216 0.0
C309 C 0.66214 0.36804 0.20609 0.0
N310 N 0.69492 0.37791 0.20182 0.0
O311 O 0.61289 0.30666 0.19799 0.0
H312 H 0.66636 0.36685 0.12499 0.0
H313 H 0.64994 0.36518 0.23068 0.0
O314 O 0.61093 0.32272 0.13061 0.0
C315 C 0.60502 0.30782 0.22955 0.0
O316 O 0.58928 0.33512 0.24113 0.0
N317 N 0.58688 0.38803 0.15121 0.0
C318 C 0.55339 0.44984 0.13787 0.0
C319 C 0.54575 0.42049 0.11878 0.0
C320 C 0.56259 0.38969 0.12607 0.0
C321 C 0.5957 0.41692 0.16861 0.0
C322 C 0.57979 0.44803 0.16195 0.0
H323 H 0.55417 0.36666 0.11337 0.0
H324 H 0.61316 0.41564 0.18988 0.0
H325 H 0.55866 0.28466 0.14228 0.0
H326 H 0.47399 0.3324 0.18811 0.0
H327 H 0.72342 0.38549 0.15515 0.0
H328 H 0.52514 0.42063 0.10033 0.0
H329 H 0.58661 0.47006 0.17723 0.0
C330 C 0.84607 0.99116 0.33345 0.0
C331 C 0.82692 0.01988 0.34016 0.0
N332 N 0.79957 0.01056 0.35889 0.0
N333 N 0.83109 0.96393 0.34823 0.0
C334 C 0.80263 0.97646 0.36321 0.0
H335 H 0.86948 0.9901 0.31881 0.0
Co336 Co 0.84677 0.91902 0.34642 0.0
C337 C 0.82868 0.90328 0.4205 0.0
O338 O 0.86015 0.90398 0.43208 0.0
N339 N 0.86183 0.87342 0.34331 0.0
C340 C 0.87802 0.8195 0.3516 0.0
C341 C 0.86837 0.84946 0.36729 0.0
C342 C 0.86796 0.85737 0.31337 0.0
N343 N 0.8778 0.82458 0.31762 0.0
O344 O 0.80656 0.90662 0.32149 0.0
H345 H 0.86665 0.85307 0.39446 0.0
H346 H 0.86514 0.86959 0.28878 0.0
O347 O 0.82264 0.90858 0.38887 0.0
C348 C 0.80772 0.91449 0.28993 0.0
O349 O 0.83502 0.93022 0.27835 0.0
N350 N 0.88797 0.93258 0.36825 0.0
C351 C 0.9498 0.96604 0.38156 0.0
C352 C 0.92046 0.9737 0.40066 0.0
C353 C 0.88965 0.95687 0.39339 0.0
C354 C 0.91685 0.92375 0.35084 0.0
C355 C 0.94796 0.93964 0.35749 0.0
H356 H 0.86663 0.96531 0.4061 0.0
H357 H 0.91556 0.90629 0.32957 0.0
H358 H 0.78461 0.96088 0.37721 0.0
H359 H 0.83241 0.0455 0.33136 0.0
H360 H 0.88529 0.79603 0.36427 0.0
H361 H 0.92062 0.99431 0.41912 0.0
H362 H 0.96999 0.9328 0.34221 0.0
C363 C 0.49103 0.67338 0.18594 0.0
C364 C 0.51976 0.69253 0.17924 0.0
N365 N 0.51045 0.7199 0.16052 0.0
N366 N 0.46381 0.68838 0.17117 0.0
C367 C 0.47634 0.71684 0.15621 0.0
H368 H 0.48997 0.64997 0.20057 0.0
Co369 Co 0.41889 0.67272 0.17298 0.0
C370 C 0.40316 0.69082 0.0989 0.0
O371 O 0.40381 0.65934 0.08733 0.0
N372 N 0.37328 0.65767 0.17608 0.0
C373 C 0.31933 0.64156 0.16782 0.0
C374 C 0.34929 0.65121 0.15211 0.0
C375 C 0.35725 0.65151 0.20602 0.0
N376 N 0.32445 0.64171 0.20178 0.0
O377 O 0.40651 0.71292 0.19792 0.0
H378 H 0.35287 0.653 0.12494 0.0
H379 H 0.36949 0.65427 0.23061 0.0
O380 O 0.40846 0.69686 0.13053 0.0
C381 C 0.41437 0.71174 0.22948 0.0
O382 O 0.43008 0.68441 0.24104 0.0
N383 N 0.43243 0.63152 0.15113 0.0
C384 C 0.46589 0.56969 0.13781 0.0
C385 C 0.47356 0.59903 0.11872 0.0
C386 C 0.45672 0.62984 0.126 0.0
C387 C 0.42359 0.60264 0.16853 0.0
C388 C 0.43948 0.57152 0.16187 0.0
H389 H 0.46517 0.65286 0.11329 0.0
H390 H 0.40613 0.60393 0.1898 0.0
H391 H 0.46077 0.73487 0.14222 0.0
H392 H 0.54538 0.68703 0.18804 0.0
H393 H 0.29584 0.63435 0.15515 0.0
H394 H 0.49417 0.59887 0.10027 0.0
H395 H 0.43264 0.54949 0.17716 0.0
C396 C 0.17334 0.99117 0.68596 0.0
C397 C 0.19247 0.0199 0.67926 0.0
N398 N 0.21984 0.0106 0.66053 0.0
N399 N 0.18833 0.96395 0.67118 0.0
C400 C 0.21678 0.97649 0.65621 0.0
H401 H 0.14993 0.9901 0.7006 0.0
Co402 Co 0.17266 0.91903 0.67299 0.0
C403 C 0.19079 0.9033 0.59891 0.0
O404 O 0.15931 0.90397 0.58732 0.0
N405 N 0.15761 0.87343 0.67609 0.0
C406 C 0.14146 0.8195 0.66782 0.0
C407 C 0.15112 0.84946 0.65212 0.0
C408 C 0.15146 0.8574 0.70603 0.0
N409 N 0.14163 0.8246 0.70179 0.0
O410 O 0.21288 0.90665 0.69791 0.0
H411 H 0.15288 0.85305 0.62495 0.0
H412 H 0.15424 0.86963 0.73062 0.0
O413 O 0.19681 0.9086 0.63054 0.0
C414 C 0.21174 0.91451 0.72948 0.0
O415 O 0.18444 0.93025 0.74108 0.0
N416 N 0.13147 0.93258 0.65114 0.0
C417 C 0.06964 0.96604 0.63782 0.0
C418 C 0.09898 0.9737 0.61872 0.0
C419 C 0.12979 0.95687 0.62601 0.0
C420 C 0.10259 0.92375 0.66855 0.0
C421 C 0.07147 0.93963 0.66189 0.0
H422 H 0.15281 0.96531 0.6133 0.0
H423 H 0.10388 0.9063 0.68982 0.0
H424 H 0.23481 0.96093 0.64221 0.0
H425 H 0.18697 0.04552 0.68806 0.0
H426 H 0.13421 0.79602 0.65515 0.0
H427 H 0.09883 0.9943 0.60027 0.0
H428 H 0.04944 0.9328 0.67718 0.0
C429 C 0.49106 0.34617 0.83352 0.0
C430 C 0.51979 0.32703 0.84023 0.0
N431 N 0.51049 0.29966 0.85895 0.0
N432 N 0.46384 0.33117 0.84829 0.0
C433 C 0.47638 0.30272 0.86326 0.0
H434 H 0.49 0.36958 0.81889 0.0
Co435 Co 0.41892 0.34685 0.84649 0.0
C436 C 0.40317 0.32868 0.92055 0.0
O437 O 0.40382 0.36015 0.93215 0.0
N438 N 0.37332 0.3619 0.84339 0.0
C439 C 0.31937 0.37801 0.85165 0.0
C440 C 0.34932 0.36835 0.86735 0.0
C441 C 0.3573 0.3681 0.81344 0.0
N442 N 0.3245 0.3779 0.81768 0.0
O443 O 0.40653 0.30666 0.82153 0.0
H444 H 0.35289 0.36653 0.89452 0.0
H445 H 0.36955 0.36535 0.78886 0.0
O446 O 0.40849 0.32267 0.88892 0.0
C447 C 0.41439 0.30783 0.78996 0.0
O448 O 0.43012 0.33515 0.7784 0.0
N449 N 0.43247 0.38802 0.86837 0.0
C450 C 0.46597 0.44982 0.88174 0.0
C451 C 0.4736 0.42047 0.90082 0.0
C452 C 0.45675 0.38967 0.89351 0.0
C453 C 0.42365 0.41691 0.85098 0.0
C454 C 0.43956 0.44802 0.85767 0.0
H455 H 0.46518 0.36664 0.90621 0.0
H456 H 0.4062 0.41565 0.82971 0.0
H457 H 0.46081 0.28469 0.87725 0.0
H458 H 0.54541 0.33254 0.83143 0.0
H459 H 0.29587 0.38522 0.86431 0.0
H460 H 0.49421 0.4206 0.91927 0.0
H461 H 0.43274 0.47006 0.84239 0.0
C462 C 0.84608 0.02834 0.68603 0.0
C463 C 0.82696 0.9996 0.67933 0.0
N464 N 0.7996 1.00889 0.66059 0.0
N465 N 0.83108 0.05555 0.67125 0.0
C466 C 0.80264 0.043 0.65627 0.0
H467 H 0.86949 0.02942 0.70067 0.0
Co468 Co 0.84674 0.10048 0.67306 0.0
C469 C 0.82862 0.11622 0.59898 0.0
O470 O 0.8601 0.11557 0.58741 0.0
N471 N 0.86177 0.14608 0.67617 0.0
C472 C 0.87788 0.20003 0.66791 0.0
C473 C 0.86822 0.17008 0.6522 0.0
C474 C 0.86797 0.1621 0.70611 0.0
N475 N 0.87776 0.1949 0.70188 0.0
O476 O 0.80653 0.11285 0.698 0.0
H477 H 0.8664 0.16651 0.62503 0.0
H478 H 0.86523 0.14984 0.73069 0.0
O479 O 0.82258 0.1109 0.63061 0.0
C480 C 0.8077 0.10499 0.72956 0.0
O481 O 0.83501 0.08927 0.74114 0.0
N482 N 0.88793 0.08694 0.6512 0.0
C483 C 0.94977 0.0535 0.63784 0.0
C484 C 0.92042 0.04583 0.61876 0.0
C485 C 0.8896 0.06265 0.62606 0.0
C486 C 0.91681 0.09578 0.66859 0.0
C487 C 0.94793 0.07991 0.66191 0.0
H488 H 0.86658 0.0542 0.61336 0.0
H489 H 0.91553 0.11324 0.68986 0.0
H490 H 0.78461 0.05855 0.64226 0.0
H491 H 0.83247 0.97399 0.68813 0.0
H492 H 0.88509 0.22353 0.65525 0.0
H493 H 0.92057 0.02522 0.60031 0.0
H494 H 0.96997 0.08675 0.67719 0.0
C495 C 0.52847 0.67323 0.83353 0.0
C496 C 0.49974 0.69237 0.84021 0.0
N497 N 0.50904 0.71975 0.85891 0.0
N498 N 0.55569 0.68824 0.84829 0.0
C499 C 0.54315 0.71671 0.86323 0.0
H500 H 0.52954 0.6498 0.81891 0.0
Co501 Co 0.60061 0.67257 0.8465 0.0
C502 C 0.61635 0.69074 0.92056 0.0
O503 O 0.61572 0.65927 0.93215 0.0
N504 N 0.64622 0.65752 0.8434 0.0
C505 C 0.70017 0.64143 0.85165 0.0
C506 C 0.67022 0.6511 0.86736 0.0
C507 C 0.66222 0.6513 0.81345 0.0
N508 N 0.69503 0.64151 0.81768 0.0
O509 O 0.61299 0.71276 0.82153 0.0
H510 H 0.66666 0.65295 0.89453 0.0
H511 H 0.64996 0.65402 0.78887 0.0
O512 O 0.61103 0.69675 0.88892 0.0
C513 C 0.60514 0.71157 0.78997 0.0
O514 O 0.58941 0.68426 0.7784 0.0
N515 N 0.58706 0.63139 0.86838 0.0
C516 C 0.55357 0.56959 0.88174 0.0
C517 C 0.54592 0.59895 0.90082 0.0
C518 C 0.56277 0.62975 0.89352 0.0
C519 C 0.59588 0.6025 0.851 0.0
C520 C 0.57998 0.5714 0.85768 0.0
H521 H 0.55434 0.65278 0.90621 0.0
H522 H 0.61334 0.60376 0.82973 0.0
H523 H 0.55871 0.73475 0.87721 0.0
H524 H 0.47412 0.68686 0.83142 0.0
H525 H 0.72367 0.63424 0.86431 0.0
H526 H 0.52531 0.59882 0.91927 0.0
H527 H 0.5868 0.54935 0.84241 0.0
C528 C 0.33363 0.17323 0.02832 0.0
C529 C 0.34031 0.19239 0.99961 0.0
N530 N 0.35901 0.21977 1.00893 0.0
N531 N 0.34839 0.18823 0.05555 0.0
C532 C 0.36333 0.2167 0.04303 0.0
H533 H 0.31901 0.14981 0.02938 0.0
Co534 Co 0.34658 0.17254 0.10046 0.0
C535 C 0.42066 0.19069 0.11622 0.0
O536 O 0.43226 0.15922 0.11553 0.0
N537 N 0.34347 0.15747 0.14606 0.0
C538 C 0.35175 0.14129 0.19998 0.0
C539 C 0.36744 0.15094 0.17002 0.0
C540 C 0.31353 0.15134 0.1621 0.0
N541 N 0.31777 0.1415 0.19489 0.0
O542 O 0.32164 0.21274 0.11286 0.0
H543 H 0.39462 0.15267 0.16641 0.0
H544 H 0.28894 0.15416 0.14987 0.0
O545 O 0.38902 0.19669 0.11091 0.0
C546 C 0.29008 0.21161 0.10498 0.0
O547 O 0.27848 0.18432 0.08923 0.0
N548 N 0.36844 0.13136 0.0869 0.0
C549 C 0.38178 0.06955 0.05341 0.0
C550 C 0.40088 0.0989 0.04577 0.0
C551 C 0.39359 0.1297 0.06262 0.0
C552 C 0.35103 0.10247 0.09571 0.0
C553 C 0.3577 0.07137 0.0798 0.0
H554 H 0.4063 0.15273 0.0542 0.0
H555 H 0.32975 0.10375 0.11316 0.0
H556 H 0.37731 0.23474 0.05861 0.0
H557 H 0.33152 0.1869 0.97399 0.0
H558 H 0.36441 0.13402 0.22345 0.0
H559 H 0.41934 0.09876 0.02517 0.0
H560 H 0.34241 0.04933 0.08662 0.0
C561 C 0.33354 0.84612 0.99096 0.0
C562 C 0.34022 0.82699 0.0197 0.0
N563 N 0.35893 0.79961 0.01041 0.0
N564 N 0.34831 0.8311 0.96375 0.0
C565 C 0.36326 0.80265 0.9763 0.0
H566 H 0.31892 0.86954 0.98989 0.0
Co567 Co 0.34653 0.84676 0.91883 0.0
C568 C 0.42059 0.8286 0.9031 0.0
O569 O 0.43217 0.86008 0.90372 0.0
N570 N 0.34343 0.8618 0.87322 0.0
C571 C 0.35169 0.87785 0.81925 0.0
C572 C 0.3674 0.86818 0.8492 0.0
C573 C 0.31349 0.86803 0.85721 0.0
N574 N 0.31773 0.8778 0.8244 0.0
O575 O 0.32155 0.80658 0.90645 0.0
H576 H 0.39457 0.86631 0.85275 0.0
H577 H 0.28891 0.86534 0.86948 0.0
O578 O 0.38896 0.82257 0.90841 0.0
C579 C 0.28998 0.80779 0.9143 0.0
O580 O 0.27844 0.83513 0.93001 0.0
N581 N 0.36842 0.88794 0.93237 0.0
C582 C 0.38178 0.94975 0.96584 0.0
C583 C 0.40085 0.92039 0.9735 0.0
C584 C 0.39355 0.88959 0.95666 0.0
C585 C 0.35104 0.91684 0.92353 0.0
C586 C 0.35773 0.94794 0.93942 0.0
H587 H 0.40623 0.86656 0.96511 0.0
H588 H 0.32978 0.91557 0.90607 0.0
H589 H 0.37725 0.7846 0.96074 0.0
H590 H 0.33142 0.83251 0.04531 0.0
H591 H 0.36436 0.88502 0.79575 0.0
H592 H 0.41929 0.92052 0.99412 0.0
H593 H 0.34246 0.96999 0.93259 0.0
C594 C 0.34607 0.1861 0.52835 0.0
C595 C 0.32694 0.17938 0.49962 0.0
N596 N 0.29958 0.16064 0.50892 0.0
N597 N 0.33108 0.17131 0.55557 0.0
C598 C 0.30264 0.15633 0.54303 0.0
H599 H 0.36948 0.20074 0.52941 0.0
Co600 Co 0.34675 0.17312 0.60049 0.0
C601 C 0.32863 0.09904 0.61622 0.0
O602 O 0.36011 0.08747 0.61555 0.0
N603 N 0.3618 0.17623 0.64609 0.0
C604 C 0.37794 0.16794 0.70002 0.0
C605 C 0.36829 0.15225 0.67006 0.0
C606 C 0.36796 0.20616 0.66213 0.0
N607 N 0.37777 0.20191 0.69492 0.0
O608 O 0.30655 0.19806 0.61287 0.0
H609 H 0.36652 0.12508 0.66646 0.0
H610 H 0.36518 0.23075 0.6499 0.0
O611 O 0.3226 0.13068 0.61091 0.0
C612 C 0.30773 0.22963 0.60501 0.0
O613 O 0.33505 0.2412 0.58929 0.0
N614 N 0.38794 0.15126 0.58693 0.0
C615 C 0.44977 0.13792 0.55348 0.0
C616 C 0.42042 0.11884 0.54581 0.0
C617 C 0.38961 0.12613 0.56264 0.0
C618 C 0.41683 0.16866 0.59577 0.0
C619 C 0.44794 0.16199 0.57989 0.0
H620 H 0.36659 0.11343 0.5542 0.0
H621 H 0.41555 0.18993 0.61323 0.0
H622 H 0.28462 0.14232 0.55859 0.0
H623 H 0.33244 0.18818 0.474 0.0
H624 H 0.38518 0.15527 0.7235 0.0
H625 H 0.42057 0.10039 0.52521 0.0
H626 H 0.46998 0.17727 0.58673 0.0
C627 C 0.68597 0.17341 0.99115 0.0
C628 C 0.67928 0.19256 0.01987 0.0
N629 N 0.66055 0.21993 0.01057 0.0
N630 N 0.6712 0.18841 0.96392 0.0
C631 C 0.65623 0.21686 0.97646 0.0
H632 H 0.70061 0.15 0.99008 0.0
Co633 Co 0.67299 0.17273 0.91901 0.0
C634 C 0.59892 0.19087 0.90328 0.0
O635 O 0.58734 0.1594 0.90395 0.0
N636 N 0.67609 0.15768 0.8734 0.0
C637 C 0.6678 0.14154 0.81947 0.0
C638 C 0.65211 0.15121 0.84943 0.0
C639 C 0.70602 0.15149 0.85737 0.0
N640 N 0.70177 0.14168 0.82457 0.0
O641 O 0.69796 0.21292 0.90662 0.0
H642 H 0.62494 0.15301 0.85302 0.0
H643 H 0.73062 0.15425 0.86961 0.0
O644 O 0.63056 0.1969 0.90858 0.0
C645 C 0.72952 0.21172 0.91448 0.0
O646 O 0.74107 0.18439 0.93019 0.0
N647 N 0.65112 0.13155 0.93256 0.0
C648 C 0.63777 0.06973 0.96603 0.0
C649 C 0.61869 0.09908 0.97369 0.0
C650 C 0.62599 0.12989 0.95686 0.0
C651 C 0.6685 0.10266 0.92372 0.0
C652 C 0.66183 0.07155 0.93961 0.0
H653 H 0.6133 0.15292 0.96531 0.0
H654 H 0.68977 0.10393 0.90626 0.0
H655 H 0.64224 0.23489 0.96089 0.0
H656 H 0.68808 0.18706 0.04549 0.0
H657 H 0.65512 0.13432 0.79599 0.0
H658 H 0.60025 0.09894 0.99431 0.0
H659 H 0.6771 0.04951 0.93277 0.0
C660 C 0.67345 0.83334 0.52835 0.0
C661 C 0.69259 0.84007 0.49963 0.0
N662 N 0.71994 0.85882 0.50893 0.0
N663 N 0.68844 0.84813 0.55558 0.0
C664 C 0.71688 0.86312 0.54304 0.0
H665 H 0.65005 0.81869 0.52942 0.0
Co666 Co 0.67276 0.84631 0.6005 0.0
C667 C 0.69086 0.92039 0.61624 0.0
O668 O 0.65938 0.93195 0.61557 0.0
N669 N 0.65771 0.8432 0.6461 0.0
C670 C 0.64157 0.85147 0.70003 0.0
C671 C 0.65121 0.86717 0.67007 0.0
C672 C 0.65156 0.81326 0.66214 0.0
N673 N 0.64174 0.8175 0.69493 0.0
O674 O 0.71297 0.82136 0.61288 0.0
H675 H 0.65298 0.89434 0.66648 0.0
H676 H 0.65433 0.78867 0.6499 0.0
O677 O 0.69691 0.88876 0.61094 0.0
C678 C 0.71178 0.7898 0.60502 0.0
O679 O 0.68445 0.77824 0.5893 0.0
N680 N 0.63157 0.86817 0.58695 0.0
C681 C 0.56974 0.88151 0.5535 0.0
C682 C 0.59909 0.90059 0.54583 0.0
C683 C 0.6299 0.8933 0.56266 0.0
C684 C 0.60268 0.85077 0.59578 0.0
C685 C 0.57157 0.85744 0.57991 0.0
H686 H 0.65292 0.906 0.55421 0.0
H687 H 0.60396 0.8295 0.61324 0.0
H688 H 0.73489 0.87714 0.55861 0.0
H689 H 0.68709 0.83127 0.47401 0.0
H690 H 0.63432 0.86414 0.72351 0.0
H691 H 0.59894 0.91905 0.52523 0.0
H692 H 0.54953 0.84217 0.58675 0.0
C693 C 0.6859 0.84617 0.02835 0.0
C694 C 0.67922 0.82702 0.99964 0.0
N695 N 0.66052 0.79963 1.00895 0.0
N696 N 0.67114 0.83117 0.05558 0.0
C697 C 0.6562 0.8027 0.04305 0.0
H698 H 0.70052 0.86959 0.02941 0.0
Co699 Co 0.67295 0.84685 0.1005 0.0
C700 C 0.59886 0.82873 0.11624 0.0
O701 O 0.58729 0.8602 0.11558 0.0
N702 N 0.67605 0.8619 0.1461 0.0
C703 C 0.66778 0.87804 0.20004 0.0
C704 C 0.65208 0.86839 0.17008 0.0
C705 C 0.706 0.86805 0.16213 0.0
N706 N 0.70176 0.87787 0.19493 0.0
O707 O 0.69788 0.80664 0.11289 0.0
H708 H 0.62491 0.86662 0.16649 0.0
H709 H 0.73058 0.86527 0.1499 0.0
O710 O 0.6305 0.8227 0.11093 0.0
C711 C 0.72945 0.8078 0.10502 0.0
O712 O 0.74103 0.8351 0.08928 0.0
N713 N 0.65109 0.88804 0.08695 0.0
C714 C 0.63776 0.94987 0.0535 0.0
C715 C 0.61867 0.92052 0.04584 0.0
C716 C 0.62596 0.88971 0.06267 0.0
C717 C 0.6685 0.91692 0.09578 0.0
C718 C 0.66183 0.94804 0.0799 0.0
H719 H 0.61325 0.86669 0.05423 0.0
H720 H 0.68977 0.91563 0.11324 0.0
H721 H 0.64222 0.78466 0.05863 0.0
H722 H 0.68801 0.83251 0.97402 0.0
H723 H 0.65512 0.88528 0.22352 0.0
H724 H 0.60021 0.92068 0.02524 0.0
H725 H 0.67712 0.97007 0.08673 0.0
C726 C 0.34613 0.8335 0.49114 0.0
C727 C 0.32698 0.84021 0.51986 0.0
N728 N 0.29962 0.85894 0.51054 0.0
N729 N 0.33115 0.84827 0.46391 0.0
C730 C 0.3027 0.86325 0.47643 0.0
H731 H 0.36954 0.81885 0.49009 0.0
Co732 Co 0.34684 0.84645 0.419 0.0
C733 C 0.32875 0.92054 0.40326 0.0
O734 O 0.36022 0.93213 0.40396 0.0
N735 N 0.36191 0.84334 0.3734 0.0
C736 C 0.37812 0.85163 0.31949 0.0
C737 C 0.36848 0.86732 0.34946 0.0
C738 C 0.368 0.8134 0.35734 0.0
N739 N 0.37786 0.81766 0.32456 0.0
O740 O 0.30662 0.82154 0.4066 0.0
H741 H 0.36679 0.8945 0.35309 0.0
H742 H 0.36516 0.78881 0.36955 0.0
O743 O 0.32272 0.88891 0.40856 0.0
C744 C 0.30776 0.78998 0.41448 0.0
O745 O 0.33505 0.77838 0.43022 0.0
N746 N 0.38804 0.86828 0.43256 0.0
C747 C 0.44987 0.88157 0.46603 0.0
C748 C 0.42054 0.90069 0.47368 0.0
C749 C 0.38972 0.89342 0.45685 0.0
C750 C 0.41691 0.85085 0.42374 0.0
C751 C 0.44803 0.8575 0.43963 0.0
H752 H 0.36671 0.90614 0.46528 0.0
H753 H 0.41561 0.82958 0.40628 0.0
H754 H 0.28468 0.87725 0.46085 0.0
H755 H 0.33246 0.83142 0.54548 0.0
H756 H 0.38542 0.86431 0.29603 0.0
H757 H 0.4207 0.91914 0.49429 0.0
H758 H 0.47005 0.8422 0.43281 0.0
C759 C 0.67335 0.18601 0.49112 0.0
C760 C 0.69248 0.1793 0.51985 0.0
N761 N 0.71984 0.16056 0.51054 0.0
N762 N 0.68834 0.17123 0.4639 0.0
C763 C 0.71678 0.15625 0.47644 0.0
H764 H 0.64995 0.20066 0.49006 0.0
Co765 Co 0.67266 0.17305 0.41898 0.0
C766 C 0.69075 0.09896 0.40324 0.0
O767 O 0.65928 0.08738 0.40391 0.0
N768 N 0.65761 0.17617 0.37339 0.0
C769 C 0.64144 0.1679 0.31946 0.0
C770 C 0.65108 0.15219 0.34942 0.0
C771 C 0.65148 0.20611 0.35735 0.0
N772 N 0.64164 0.20187 0.32456 0.0
O773 O 0.71288 0.19796 0.40659 0.0
H774 H 0.65283 0.12502 0.35301 0.0
H775 H 0.65428 0.2307 0.36958 0.0
O776 O 0.69678 0.1306 0.40855 0.0
C777 C 0.71176 0.22953 0.41446 0.0
O778 O 0.68447 0.24113 0.43021 0.0
N779 N 0.63146 0.15122 0.43254 0.0
C780 C 0.56963 0.1379 0.466 0.0
C781 C 0.59897 0.1188 0.47365 0.0
C782 C 0.62978 0.12608 0.45682 0.0
C783 C 0.60259 0.16864 0.42372 0.0
C784 C 0.57147 0.16198 0.4396 0.0
H785 H 0.6528 0.11336 0.46525 0.0
H786 H 0.60388 0.18991 0.40626 0.0
H787 H 0.7348 0.14224 0.46087 0.0
H788 H 0.68698 0.1881 0.54547 0.0
H789 H 0.63418 0.15523 0.29598 0.0
H790 H 0.59881 0.10034 0.49425 0.0
H791 H 0.54944 0.17728 0.43278 0.0
C792 C 0.14307 0.50007 0.2395 0.0
C793 C 0.14831 0.48715 0.27259 0.0
H794 H 0.129 0.4893 0.18777 0.0
C795 C 0.14185 0.45236 0.27875 0.0
H796 H 0.14808 0.52664 0.23378 0.0
C797 C 0.13089 0.43091 0.25238 0.0
C798 C 0.12632 0.44368 0.21912 0.0
H799 H 0.14511 0.4417 0.30404 0.0
H800 H 0.1264 0.4042 0.25803 0.0
C801 C 0.13229 0.47858 0.21306 0.0
C802 C 1.00017 0.37648 0.27988 0.0
C803 C 0.98727 0.37121 0.24679 0.0
H804 H 0.9894 0.39061 0.33158 0.0
C805 C 0.95248 0.37768 0.24061 0.0
H806 H 0.02674 0.37148 0.28561 0.0
C807 C 0.93102 0.38867 0.26696 0.0
C808 C 0.94378 0.39327 0.30022 0.0
H809 H 0.94182 0.3744 0.21532 0.0
H810 H 0.90431 0.39317 0.2613 0.0
C811 C 0.97868 0.3873 0.3063 0.0
C812 C 0.87652 0.51943 0.23945 0.0
C813 C 0.87124 0.53234 0.27255 0.0
H814 H 0.89063 0.5302 0.18775 0.0
C815 C 0.8777 0.56712 0.27872 0.0
H816 H 0.87152 0.49286 0.23373 0.0
C817 C 0.88868 0.58859 0.25237 0.0
C818 C 0.89328 0.57582 0.21911 0.0
H819 H 0.87442 0.57778 0.30401 0.0
H820 H 0.89317 0.6153 0.25803 0.0
C821 C 0.88733 0.54092 0.21303 0.0
C822 C 0.04085 0.63219 0.30638 0.0
C823 C 0.07575 0.62622 0.30032 0.0
H824 H 0.9928 0.64802 0.28567 0.0
C825 C 0.08854 0.63084 0.26707 0.0
H826 H 0.03012 0.62887 0.33166 0.0
C827 C 0.06709 0.64184 0.24071 0.0
C828 C 0.0323 0.64831 0.24687 0.0
H829 H 0.11525 0.62634 0.26142 0.0
H830 H 0.07777 0.64514 0.21543 0.0
C831 C 0.01937 0.64302 0.27995 0.0
C832 C 0.1429 0.51957 0.77997 0.0
C833 C 0.14824 0.53251 0.7469 0.0
H834 H 0.12868 0.5303 0.83166 0.0
C835 C 0.14179 0.5673 0.74075 0.0
H836 H 0.14789 0.49299 0.78569 0.0
C837 C 0.13075 0.58874 0.7671 0.0
C838 C 0.12608 0.57594 0.80033 0.0
H839 H 0.14512 0.57798 0.71548 0.0
H840 H 0.12627 0.61545 0.76145 0.0
C841 C 0.13203 0.54104 0.80639 0.0
C842 C 0.06724 0.37765 0.77873 0.0
C843 C 0.03245 0.37119 0.77258 0.0
H844 H 0.11538 0.3932 0.75801 0.0
C845 C 0.01949 0.37655 0.73952 0.0
H846 H 0.07794 0.37431 0.80399 0.0
C847 C 0.04095 0.38744 0.7131 0.0
C848 C 0.07585 0.3934 0.71915 0.0
H849 H 0.99292 0.37155 0.73381 0.0
H850 H 0.0302 0.39081 0.68784 0.0
C851 C 0.08867 0.38872 0.75237 0.0
C852 C 0.88874 0.4307 0.76715 0.0
C853 C 0.8934 0.44352 0.80038 0.0
H854 H 0.87438 0.44142 0.71552 0.0
C855 C 0.88745 0.47843 0.80641 0.0
H856 H 0.89322 0.40399 0.76152 0.0
C857 C 0.87659 0.49988 0.77998 0.0
C858 C 0.87126 0.48692 0.74691 0.0
H859 H 0.8908 0.48918 0.83167 0.0
H860 H 0.87159 0.52646 0.78568 0.0
C861 C 0.87771 0.45212 0.74078 0.0
C862 C 0.95224 0.64178 0.77866 0.0
C863 C 0.98703 0.64824 0.77252 0.0
H864 H 0.9041 0.62622 0.75795 0.0
C865 C 0.99999 0.64288 0.73946 0.0
H866 H 0.94154 0.64514 0.80392 0.0
C867 C 0.97853 0.63197 0.71304 0.0
C868 C 0.94363 0.62601 0.71909 0.0
H869 H 0.02656 0.64788 0.73375 0.0
H870 H 0.98929 0.6286 0.68778 0.0
C871 C 0.93082 0.63071 0.75231 0.0
C872 C 0.21309 0.13211 0.47849 0.0
C873 C 0.21917 0.12615 0.44359 0.0
H874 H 0.23376 0.14798 0.52654 0.0
C875 C 0.25241 0.13082 0.43081 0.0
H876 H 0.18781 0.12875 0.48922 0.0
C877 C 0.27875 0.14187 0.45226 0.0
C878 C 0.27257 0.14832 0.48705 0.0
H879 H 0.25807 0.12634 0.4041 0.0
H880 H 0.30403 0.1452 0.44159 0.0
C881 C 0.2395 0.14298 0.49997 0.0
C882 C 0.63079 0.26716 0.08867 0.0
C883 C 0.62613 0.30039 0.07587 0.0
H884 H 0.64514 0.21553 0.07791 0.0
C885 C 0.63208 0.30645 0.04097 0.0
H886 H 0.62631 0.26151 0.11538 0.0
C887 C 0.64293 0.28003 0.0195 0.0
C888 C 0.64826 0.24695 0.03243 0.0
H889 H 0.62873 0.33172 0.03023 0.0
H890 H 0.64792 0.28574 0.99292 0.0
C891 C 0.64182 0.2408 0.06723 0.0
C892 C 0.78002 0.8765 0.49999 0.0
C893 C 0.74694 0.87115 0.48706 0.0
H894 H 0.8317 0.89075 0.48924 0.0
C895 C 0.74077 0.8776 0.45228 0.0
H896 H 0.78575 0.8715 0.52656 0.0
C897 C 0.76711 0.88866 0.43083 0.0
C898 C 0.80035 0.89334 0.44362 0.0
H899 H 0.71549 0.87426 0.44161 0.0
H900 H 0.76145 0.89315 0.40412 0.0
C901 C 0.80642 0.88739 0.47851 0.0
C902 C 0.3765 0.7395 0.01938 0.0
C903 C 0.3712 0.77259 0.03229 0.0
H904 H 0.39064 0.6878 0.03016 0.0
C905 C 0.37766 0.77876 0.06708 0.0
H906 H 0.3715 0.73376 0.99281 0.0
C907 C 0.38866 0.75241 0.08854 0.0
C908 C 0.39328 0.71916 0.07577 0.0
H909 H 0.37436 0.80405 0.07774 0.0
H910 H 0.39314 0.75807 0.11525 0.0
C911 C 0.38732 0.71308 0.04088 0.0
C912 C 0.23952 0.87657 0.51945 0.0
C913 C 0.27259 0.87125 0.53239 0.0
H914 H 0.18782 0.89076 0.53017 0.0
C915 C 0.27874 0.87772 0.56718 0.0
H916 H 0.23381 0.87157 0.49287 0.0
C917 C 0.25238 0.88875 0.58861 0.0
C918 C 0.21914 0.89339 0.57581 0.0
H919 H 0.30401 0.8744 0.57787 0.0
H920 H 0.25802 0.89324 0.61532 0.0
C921 C 0.21309 0.88743 0.54091 0.0
C922 C 0.38871 0.26707 0.93085 0.0
C923 C 0.3933 0.30031 0.94365 0.0
H924 H 0.37445 0.21542 0.94159 0.0
C925 C 0.38734 0.30635 0.97855 0.0
H926 H 0.3932 0.26144 0.90413 0.0
C927 C 0.37654 0.27991 1.00002 0.0
C928 C 0.37127 0.24683 0.98707 0.0
H929 H 0.39064 0.33163 0.9893 0.0
H930 H 0.37153 0.28561 0.02659 0.0
C931 C 0.37773 0.24069 0.95228 0.0
C932 C 0.76703 0.13076 0.58865 0.0
C933 C 0.80028 0.12611 0.57586 0.0
H934 H 0.71541 0.1451 0.57787 0.0
C935 C 0.80635 0.13207 0.54097 0.0
H936 H 0.76138 0.12627 0.61536 0.0
C937 C 0.77994 0.14293 0.51949 0.0
C938 C 0.74685 0.14825 0.53241 0.0
H939 H 0.83163 0.12874 0.53024 0.0
H940 H 0.78566 0.14793 0.49292 0.0
C941 C 0.74068 0.14179 0.5672 0.0
C942 C 0.64299 0.7395 1.00003 0.0
C943 C 0.64826 0.77259 0.98709 0.0
H944 H 0.62888 0.68778 0.9893 0.0
C945 C 0.6418 0.77873 0.9523 0.0
H946 H 0.64799 0.7338 0.0266 0.0
C947 C 0.63082 0.75235 0.93086 0.0
C948 C 0.62622 0.7191 0.94366 0.0
H949 H 0.64508 0.804 0.94161 0.0
H950 H 0.62632 0.75798 0.90415 0.0
C951 C 0.63218 0.71306 0.97856 0.0
C952 C 0.45233 0.27865 0.14182 0.0
C953 C 0.48712 0.27253 0.14829 0.0
H954 H 0.4042 0.2579 0.1263 0.0
C955 C 0.50009 0.23946 0.14297 0.0
H956 H 0.44162 0.30392 0.14514 0.0
C957 C 0.47864 0.21302 0.13211 0.0
C958 C 0.44374 0.21905 0.12614 0.0
H959 H 0.52666 0.23377 0.14797 0.0
H960 H 0.4894 0.18776 0.12877 0.0
C961 C 0.43091 0.25228 0.13079 0.0
C962 C 0.47861 0.80631 0.88727 0.0
C963 C 0.44371 0.80024 0.89323 0.0
H964 H 0.52666 0.7856 0.87145 0.0
C965 C 0.43092 0.767 0.88863 0.0
H966 H 0.48934 0.83159 0.89058 0.0
C967 C 0.45237 0.74063 0.87764 0.0
C968 C 0.48716 0.74679 0.87118 0.0
H969 H 0.40421 0.76135 0.89312 0.0
H970 H 0.4417 0.71535 0.87435 0.0
C971 C 0.50009 0.77988 0.87646 0.0
C972 C 0.24069 0.06726 0.64178 0.0
C973 C 0.24686 0.03247 0.64823 0.0
H974 H 0.26139 0.11542 0.62628 0.0
C975 C 0.27994 0.01955 0.64292 0.0
H976 H 0.21541 0.07794 0.6451 0.0
C977 C 0.30636 0.04103 0.63207 0.0
C978 C 0.30029 0.07593 0.62612 0.0
H979 H 0.28566 0.99298 0.64791 0.0
H980 H 0.33163 0.0303 0.62873 0.0
C981 C 0.26705 0.08871 0.63076 0.0
C982 C 0.56715 0.27881 0.8777 0.0
C983 C 0.53236 0.27264 0.87125 0.0
H984 H 0.61531 0.25811 0.89322 0.0
C985 C 0.51943 0.23956 0.87657 0.0
H986 H 0.57782 0.30409 0.87439 0.0
C987 C 0.54091 0.21315 0.88742 0.0
C988 C 0.57581 0.21922 0.89338 0.0
H989 H 0.49286 0.23384 0.87157 0.0
H990 H 0.53018 0.18787 0.89076 0.0
C991 C 0.5886 0.25246 0.88873 0.0
C992 C 0.77878 0.95221 0.64183 0.0
C993 C 0.77259 0.987 0.64828 0.0
H994 H 0.75811 0.90404 0.62633 0.0
C995 C 0.73951 0.99991 0.64296 0.0
H996 H 0.80406 0.94155 0.64516 0.0
C997 C 0.7131 0.97841 0.6321 0.0
C998 C 0.71919 0.94352 0.62615 0.0
H999 H 0.73377 0.02648 0.64795 0.0
H1000 H 0.68782 0.98913 0.62875 0.0
C1001 C 0.75244 0.93075 0.63081 0.0
C1002 C 0.51938 0.78001 0.14294 0.0
C1003 C 0.53232 0.74693 0.14824 0.0
H1004 H 0.53012 0.83171 0.12877 0.0
C1005 C 0.56711 0.74077 0.14178 0.0
H1006 H 0.49281 0.78573 0.14794 0.0
C1007 C 0.58855 0.76714 0.13076 0.0
C1008 C 0.57576 0.80038 0.12613 0.0
H1009 H 0.57779 0.7155 0.14508 0.0
H1010 H 0.61526 0.76149 0.12627 0.0
C1011 C 0.54086 0.80644 0.1321 0.0
C1012 C 0.24081 0.95228 0.37766 0.0
C1013 C 0.24696 0.98707 0.37119 0.0
H1014 H 0.26152 0.90413 0.39318 0.0
C1015 C 0.28004 1.00001 0.37652 0.0
H1016 H 0.21554 0.9416 0.37434 0.0
C1017 C 0.30646 0.97854 0.38738 0.0
C1018 C 0.3004 0.94364 0.39334 0.0
H1019 H 0.28575 0.02658 0.37152 0.0
H1020 H 0.33173 0.98928 0.39072 0.0
C1021 C 0.26717 0.93084 0.38869 0.0
C1022 C 0.7787 0.06721 0.37766 0.0
C1023 C 0.77254 0.03242 0.37119 0.0
H1024 H 0.75799 0.11536 0.39317 0.0
C1025 C 0.73946 0.01949 0.37651 0.0
H1026 H 0.80397 0.07789 0.37434 0.0
C1027 C 0.71304 0.04096 0.38737 0.0
C1028 C 0.7191 0.07586 0.39333 0.0
H1029 H 0.73375 0.99291 0.37151 0.0
H1030 H 0.68776 0.03022 0.39071 0.0
C1031 C 0.75234 0.08865 0.38869 0.0
C1032 C 0.99943 0.41384 0.99516 0.0
C1033 C 0.98846 0.38282 0.98065 0.0
H1034 H 0.02855 0.438 0.03511 0.0
C1035 C 0.99946 0.35203 0.99542 0.0
H1036 H 0.99138 0.43796 0.98429 0.0
C1037 C 0.02059 0.35205 0.02401 0.0
C1038 C 0.03154 0.38287 0.03878 0.0
H1039 H 0.99203 0.32767 0.98461 0.0
H1040 H 0.02805 0.32771 0.03484 0.0
C1041 C 0.02054 0.41386 0.02424 0.0
C1042 C 0.85215 0.49894 0.49537 0.0
C1043 C 0.88296 0.488 0.4806 0.0
H1044 H 0.82776 0.52744 0.53482 0.0
C1045 C 0.91396 0.499 0.49514 0.0
H1046 H 0.8278 0.49148 0.48454 0.0
C1047 C 0.91393 0.52007 0.52425 0.0
C1048 C 0.88292 0.53102 0.53878 0.0
H1049 H 0.9381 0.491 0.48426 0.0
H1050 H 0.93806 0.52812 0.53513 0.0
C1051 C 0.85212 0.52003 0.52399 0.0
C1052 C 0.02016 0.6057 0.99514 0.0
C1053 C 0.03112 0.63671 0.98062 0.0
H1054 H 0.99106 0.58154 0.03512 0.0
C1055 C 0.02014 0.66751 0.9954 0.0
H1056 H 0.0282 0.58157 0.98426 0.0
C1057 C 0.99903 0.66749 0.02401 0.0
C1058 C 0.98808 0.63668 0.03878 0.0
H1059 H 0.02756 0.69186 0.98458 0.0
H1060 H 0.99158 0.69184 0.03485 0.0
C1061 C 0.99907 0.60568 0.02425 0.0
C1062 C 0.10557 0.49934 0.52431 0.0
C1063 C 0.13658 0.48837 0.53883 0.0
H1064 H 0.08141 0.52844 0.48434 0.0
C1065 C 0.16738 0.49936 0.52405 0.0
H1066 H 0.08144 0.4913 0.53519 0.0
C1067 C 0.16736 0.52046 0.49544 0.0
C1068 C 0.13655 0.53142 0.48067 0.0
H1069 H 0.19173 0.49192 0.53487 0.0
H1070 H 0.19171 0.52791 0.48461 0.0
C1071 C 0.10555 0.52043 0.49521 0.0
C1072 C 0.99543 0.99922 0.35197 0.0
C1073 C 0.98066 0.98826 0.38277 0.0
H1074 H 0.03488 0.02775 0.32761 0.0
C1075 C 0.99519 0.99923 0.41378 0.0
H1076 H 0.9846 0.99179 0.32762 0.0
C1077 C 0.0243 0.0203 0.41377 0.0
C1078 C 0.03884 0.03128 0.38277 0.0
H1079 H 0.98432 0.99121 0.43791 0.0
H1080 H 0.03519 0.02832 0.43791 0.0
C1081 C 0.02405 0.02031 0.35197 0.0
C1082 C 0.5202 0.4952 0.10563 0.0
C1083 C 0.53116 0.48068 0.13664 0.0
H1084 H 0.49109 0.53517 0.08148 0.0
C1085 C 0.52018 0.49546 0.16744 0.0
H1086 H 0.52823 0.48433 0.08151 0.0
C1087 C 0.49907 0.52407 0.16743 0.0
C1088 C 0.48811 0.53884 0.13662 0.0
H1089 H 0.52761 0.48464 0.1918 0.0
H1090 H 0.49162 0.5349 0.19177 0.0
C1091 C 0.4991 0.5243 0.10562 0.0
C1092 C 0.02425 0.99922 0.60561 0.0
C1093 C 0.03879 0.98826 0.63661 0.0
H1094 H 0.98426 0.02832 0.58149 0.0
C1095 C 0.02402 0.99923 0.66742 0.0
H1096 H 0.03512 0.9912 0.58148 0.0
C1097 C 0.99541 0.02033 0.66743 0.0
C1098 C 0.98062 0.03129 0.63663 0.0
H1099 H 0.03486 0.9918 0.69177 0.0
H1100 H 0.98459 0.02777 0.69178 0.0
C1101 C 0.99514 0.02031 0.60562 0.0
C1102 C 0.52033 0.524 0.85215 0.0
C1103 C 0.53132 0.53877 0.88296 0.0
H1104 H 0.49175 0.48459 0.8278 0.0
C1105 C 0.52032 0.52425 0.91396 0.0
H1106 H 0.52779 0.53482 0.8278 0.0
C1107 C 0.4992 0.49517 0.91396 0.0
C1108 C 0.48821 0.48065 0.88295 0.0
H1109 H 0.52835 0.53512 0.93809 0.0
H1110 H 0.49117 0.4843 0.93809 0.0
C1111 C 0.4992 0.49541 0.85215 0.0
C1112 C 0.414 0.02418 0.02019 0.0
C1113 C 0.383 0.03872 0.03116 0.0
H1114 H 0.43814 0.98422 0.99107 0.0
C1115 C 0.35219 0.02397 0.02016 0.0
H1116 H 0.43814 0.03504 0.02824 0.0
C1117 C 0.35219 0.99537 0.99904 0.0
C1118 C 0.383 0.98059 0.98808 0.0
H1119 H 0.32784 0.0348 0.0276 0.0
H1120 H 0.32784 0.98456 0.99158 0.0
C1121 C 0.414 0.9951 0.99909 0.0
C1122 C 0.49514 0.1057 0.52028 0.0
C1123 C 0.48062 0.13671 0.53126 0.0
H1124 H 0.53511 0.08156 0.49115 0.0
C1125 C 0.49541 0.16751 0.5203 0.0
H1126 H 0.48425 0.08157 0.52829 0.0
C1127 C 0.52402 0.1675 0.4992 0.0
C1128 C 0.53878 0.1367 0.48822 0.0
H1129 H 0.48459 0.19186 0.52775 0.0
H1130 H 0.53486 0.19185 0.49177 0.0
C1131 C 0.52424 0.10569 0.49919 0.0
C1132 C 0.60554 0.02436 0.99923 0.0
C1133 C 0.63655 0.03888 0.98825 0.0
H1134 H 0.58141 0.98438 0.02834 0.0
C1135 C 0.66735 0.0241 0.99921 0.0
H1136 H 0.58141 0.03524 0.99121 0.0
C1137 C 0.66735 0.99549 0.02031 0.0
C1138 C 0.63655 0.98072 0.03128 0.0
H1139 H 0.69171 0.03492 0.99176 0.0
H1140 H 0.6917 0.98466 0.02774 0.0
C1141 C 0.60554 0.99526 0.02031 0.0
C1142 C 0.49547 0.85196 0.49924 0.0
C1143 C 0.48071 0.88277 0.48826 0.0
H1144 H 0.53489 0.82758 0.52778 0.0
C1145 C 0.49527 0.91377 0.49922 0.0
H1146 H 0.48462 0.82761 0.4918 0.0
C1147 C 0.52437 0.91375 0.52031 0.0
C1148 C 0.53888 0.88274 0.53129 0.0
H1149 H 0.48441 0.9379 0.49119 0.0
H1150 H 0.53527 0.93788 0.52832 0.0
C1151 C 0.52408 0.85194 0.52034 0.0
C1152 C 0.10964 0.23071 0.23477 0.0
C1153 C 0.11459 0.26599 0.23938 0.0
H1154 H 0.11414 0.18063 0.25598 0.0
C1155 C 0.12859 0.27761 0.27031 0.0
H1156 H 0.0989 0.22082 0.21128 0.0
C1157 C 0.13736 0.25436 0.29608 0.0
C1158 C 0.13258 0.21904 0.29128 0.0
H1159 H 0.13274 0.30462 0.27462 0.0
H1160 H 0.14834 0.26397 0.31956 0.0
C1161 C 0.11862 0.20756 0.26033 0.0
C1162 C 0.73077 0.40994 0.28464 0.0
C1163 C 0.76605 0.40502 0.27999 0.0
H1164 H 0.68068 0.40543 0.26347 0.0
C1165 C 0.77765 0.39105 0.24903 0.0
H1166 H 0.72089 0.42064 0.30815 0.0
C1167 C 0.75438 0.38231 0.22327 0.0
C1168 C 0.71906 0.38706 0.22811 0.0
H1169 H 0.80466 0.38693 0.24469 0.0
H1170 H 0.76398 0.37136 0.19977 0.0
C1171 C 0.7076 0.40098 0.25909 0.0
C1172 C 0.90095 0.81194 0.26037 0.0
C1173 C 0.88697 0.80046 0.29132 0.0
H1174 H 0.92068 0.79869 0.21132 0.0
C1175 C 0.8822 0.76514 0.29612 0.0
H1176 H 0.90542 0.83887 0.25602 0.0
C1177 C 0.89097 0.74188 0.27034 0.0
C1178 C 0.90499 0.75351 0.23941 0.0
H1179 H 0.87121 0.75552 0.31958 0.0
H1180 H 0.88682 0.71487 0.27465 0.0
C1181 C 0.90994 0.78879 0.23481 0.0
C1182 C 0.26502 0.63734 0.22334 0.0
C1183 C 0.30034 0.63252 0.22809 0.0
H1184 H 0.21477 0.63274 0.24484 0.0
C1185 C 0.31183 0.61849 0.25901 0.0
H1186 H 0.25539 0.64836 0.19989 0.0
C1187 C 0.28869 0.60949 0.28458 0.0
C1188 C 0.25342 0.61449 0.28002 0.0
H1189 H 0.33876 0.61398 0.26333 0.0
H1190 H 0.2986 0.59871 0.30805 0.0
C1191 C 0.24178 0.62855 0.24912 0.0
C1192 C 0.1284 0.74194 0.7491 0.0
C1193 C 0.11434 0.75358 0.78 0.0
H1194 H 0.14823 0.75555 0.69988 0.0
C1195 C 0.10937 0.78886 0.78457 0.0
H1196 H 0.13256 0.71493 0.74482 0.0
C1197 C 0.11839 0.812 0.75901 0.0
C1198 C 0.13242 0.8005 0.72809 0.0
H1199 H 0.09859 0.79878 0.80804 0.0
H1200 H 0.11391 0.83893 0.76333 0.0
C1201 C 0.13721 0.76518 0.72333 0.0
C1202 C 0.3119 0.40116 0.76047 0.0
C1203 C 0.3004 0.38711 0.79138 0.0
H1204 H 0.29868 0.42098 0.71145 0.0
C1205 C 0.26507 0.38229 0.79612 0.0
H1206 H 0.33883 0.40567 0.75616 0.0
C1207 C 0.24184 0.39109 0.77033 0.0
C1208 C 0.25349 0.40518 0.73945 0.0
H1209 H 0.25544 0.37124 0.81955 0.0
H1210 H 0.21483 0.38691 0.7746 0.0
C1211 C 0.28877 0.41018 0.7349 0.0
C1212 C 0.891 0.27755 0.74923 0.0
C1213 C 0.9051 0.26589 0.7801 0.0
H1214 H 0.87112 0.26396 0.70002 0.0
C1215 C 0.91009 0.23062 0.78464 0.0
H1216 H 0.88682 0.30456 0.74496 0.0
C1217 C 0.90105 0.20749 0.75908 0.0
C1218 C 0.88699 0.219 0.72818 0.0
H1219 H 0.92091 0.2207 0.80809 0.0
H1220 H 0.90556 0.18056 0.76338 0.0
C1221 C 0.88217 0.25432 0.72345 0.0
C1222 C 0.70761 0.61821 0.76048 0.0
C1223 C 0.71912 0.63229 0.79138 0.0
H1224 H 0.72081 0.59836 0.71147 0.0
C1225 C 0.75444 0.63713 0.7961 0.0
H1226 H 0.68068 0.61368 0.75619 0.0
C1227 C 0.77767 0.62832 0.77031 0.0
C1228 C 0.76601 0.6142 0.73944 0.0
H1229 H 0.76409 0.64819 0.81952 0.0
H1230 H 0.80468 0.63252 0.77456 0.0
C1231 C 0.73073 0.60918 0.73491 0.0
C1232 C 0.23495 0.10937 0.23065 0.0
C1233 C 0.23953 0.11433 0.26593 0.0
H1234 H 0.25618 0.11387 0.18058 0.0
C1235 C 0.27045 0.12835 0.27757 0.0
H1236 H 0.21146 0.09863 0.22075 0.0
C1237 C 0.29624 0.13712 0.25432 0.0
C1238 C 0.29146 0.13233 0.219 0.0
H1239 H 0.27475 0.13251 0.30458 0.0
H1240 H 0.31971 0.1481 0.26394 0.0
C1241 C 0.26051 0.11835 0.20751 0.0
C1242 C 0.61846 0.25912 0.31195 0.0
C1243 C 0.63246 0.22818 0.30045 0.0
H1244 H 0.5987 0.30815 0.29871 0.0
C1245 C 0.63724 0.2234 0.26513 0.0
H1246 H 0.61398 0.26345 0.33887 0.0
C1247 C 0.62845 0.24918 0.24189 0.0
C1248 C 0.61441 0.28009 0.25353 0.0
H1249 H 0.64824 0.19994 0.2555 0.0
H1250 H 0.6326 0.24489 0.21488 0.0
C1251 C 0.60946 0.28468 0.28881 0.0
C1252 C 0.78456 0.91008 0.23068 0.0
C1253 C 0.77998 0.90511 0.26596 0.0
H1254 H 0.76332 0.90557 0.18062 0.0
C1255 C 0.74908 0.89106 0.2776 0.0
H1256 H 0.80803 0.92086 0.22077 0.0
C1257 C 0.7233 0.88227 0.25436 0.0
C1258 C 0.72806 0.88706 0.21904 0.0
H1259 H 0.74479 0.88689 0.30461 0.0
H1260 H 0.69985 0.87125 0.26398 0.0
C1261 C 0.75899 0.90108 0.20754 0.0
C1262 C 0.40994 0.73484 0.28875 0.0
C1263 C 0.40501 0.73946 0.25347 0.0
H1264 H 0.40542 0.75603 0.33883 0.0
C1265 C 0.39102 0.7704 0.24185 0.0
H1266 H 0.42066 0.71133 0.29864 0.0
C1267 C 0.38226 0.79617 0.26511 0.0
C1268 C 0.38702 0.79136 0.30043 0.0
H1269 H 0.38689 0.77472 0.21484 0.0
H1270 H 0.3713 0.81965 0.2555 0.0
C1271 C 0.40096 0.76039 0.31191 0.0
C1272 C 0.29613 0.88218 0.76499 0.0
C1273 C 0.29142 0.88703 0.80031 0.0
H1274 H 0.27459 0.88678 0.71476 0.0
C1275 C 0.26054 0.90114 0.81183 0.0
H1276 H 0.31955 0.8711 0.75535 0.0
C1277 C 0.23496 0.91016 0.7887 0.0
C1278 C 0.23948 0.90513 0.75343 0.0
H1279 H 0.25625 0.90568 0.83875 0.0
H1280 H 0.21153 0.921 0.79863 0.0
C1281 C 0.27035 0.891 0.74177 0.0
C1282 C 0.39096 0.24921 0.77761 0.0
C1283 C 0.40501 0.28011 0.76598 0.0
H1284 H 0.37115 0.19998 0.76398 0.0
C1285 C 0.40998 0.2847 0.7307 0.0
H1286 H 0.3868 0.24491 0.80462 0.0
C1287 C 0.40098 0.25915 0.70755 0.0
C1288 C 0.38696 0.22821 0.71904 0.0
H1289 H 0.42076 0.30818 0.72081 0.0
H1290 H 0.40547 0.26348 0.68063 0.0
C1291 C 0.38217 0.22343 0.75436 0.0
C1292 C 0.74908 0.12846 0.7419 0.0
C1293 C 0.77997 0.11438 0.75354 0.0
H1294 H 0.69986 0.1483 0.75552 0.0
C1295 C 0.78454 0.1094 0.78881 0.0
H1296 H 0.74479 0.13263 0.71489 0.0
C1297 C 0.75899 0.11842 0.81196 0.0
C1298 C 0.72807 0.13246 0.80046 0.0
H1299 H 0.80801 0.0986 0.79872 0.0
H1300 H 0.76331 0.11392 0.83888 0.0
C1301 C 0.7233 0.13727 0.76514 0.0
C1302 C 0.62856 0.77021 0.77761 0.0
C1303 C 0.61451 0.73929 0.76598 0.0
H1304 H 0.64836 0.81943 0.76398 0.0
C1305 C 0.60955 0.73471 0.73071 0.0
H1306 H 0.63273 0.7745 0.80462 0.0
C1307 C 0.61855 0.76026 0.70756 0.0
C1308 C 0.63255 0.7912 0.71905 0.0
H1309 H 0.59878 0.71123 0.72081 0.0
H1310 H 0.61406 0.75593 0.68064 0.0
C1311 C 0.63735 0.79598 0.75436 0.0
C1312 C 0.23086 0.23486 0.10933 0.0
C1313 C 0.26613 0.23936 0.11436 0.0
H1314 H 0.18081 0.25616 0.1138 0.0
C1315 C 0.2778 0.27023 0.12849 0.0
H1316 H 0.22093 0.21142 0.09849 0.0
C1317 C 0.25458 0.29603 0.13729 0.0
C1318 C 0.21926 0.29132 0.13243 0.0
H1319 H 0.30481 0.27446 0.13271 0.0
H1320 H 0.26423 0.31944 0.14837 0.0
C1321 C 0.20774 0.26044 0.11834 0.0
C1322 C 0.27758 0.74913 0.89098 0.0
C1323 C 0.26597 0.78008 0.90494 0.0
H1324 H 0.2639 0.69987 0.87128 0.0
C1325 C 0.23069 0.78473 0.90985 0.0
H1326 H 0.30459 0.74478 0.88687 0.0
C1327 C 0.20752 0.75919 0.90088 0.0
C1328 C 0.21898 0.7282 0.88696 0.0
H1329 H 0.22081 0.80825 0.92055 0.0
H1330 H 0.1806 0.76357 0.90533 0.0
C1331 C 0.2543 0.72336 0.88223 0.0
C1332 C 0.28461 0.28889 0.60944 0.0
C1333 C 0.28001 0.25361 0.61438 0.0
H1334 H 0.2634 0.33897 0.61397 0.0
C1335 C 0.24908 0.24198 0.6284 0.0
H1336 H 0.3081 0.29879 0.59869 0.0
C1337 C 0.22331 0.26523 0.63719 0.0
C1338 C 0.2281 0.30056 0.63242 0.0
H1339 H 0.24477 0.21497 0.63254 0.0
H1340 H 0.19984 0.25562 0.64817 0.0
C1341 C 0.25905 0.31204 0.61844 0.0
C1342 C 0.76519 0.29614 0.88238 0.0
C1343 C 0.80051 0.29131 0.88713 0.0
H1344 H 0.71491 0.27472 0.88703 0.0
C1345 C 0.81198 0.26033 0.90106 0.0
H1346 H 0.75559 0.31963 0.87143 0.0
C1347 C 0.78881 0.23479 0.91003 0.0
C1348 C 0.75353 0.23943 0.90512 0.0
H1349 H 0.8389 0.25596 0.9055 0.0
H1350 H 0.79869 0.21128 0.92074 0.0
C1351 C 0.74192 0.27038 0.89115 0.0
C1352 C 0.73486 0.73053 0.60947 0.0
C1353 C 0.73949 0.7658 0.61439 0.0
H1354 H 0.75604 0.68044 0.61402 0.0
C1355 C 0.77043 0.77743 0.62837 0.0
H1356 H 0.71135 0.72063 0.59876 0.0
C1357 C 0.7962 0.75416 0.63714 0.0
C1358 C 0.79138 0.71884 0.6324 0.0
H1359 H 0.77476 0.80444 0.63248 0.0
H1360 H 0.81969 0.76377 0.6481 0.0
C1361 C 0.76041 0.70736 0.61846 0.0
C1362 C 0.765 0.72339 0.13728 0.0
C1363 C 0.80032 0.72814 0.13246 0.0
H1364 H 0.71476 0.7449 0.13267 0.0
C1365 C 0.81183 0.75905 0.1184 0.0
H1366 H 0.75537 0.69995 0.14832 0.0
C1367 C 0.78869 0.78461 0.1094 0.0
C1368 C 0.75341 0.78006 0.11439 0.0
H1369 H 0.83875 0.76336 0.11389 0.0
H1370 H 0.7986 0.80807 0.09859 0.0
C1371 C 0.74177 0.74917 0.12848 0.0
C1372 C 0.25896 0.70762 0.40109 0.0
C1373 C 0.22807 0.71914 0.38702 0.0
H1374 H 0.30799 0.72083 0.42092 0.0
C1375 C 0.22334 0.75446 0.38218 0.0
H1376 H 0.26325 0.6807 0.40562 0.0
C1377 C 0.24914 0.77768 0.39099 0.0
C1378 C 0.28001 0.76602 0.40509 0.0
H1379 H 0.19992 0.7641 0.37112 0.0
H1380 H 0.24488 0.8047 0.38679 0.0
C1381 C 0.28454 0.73075 0.41011 0.0
C1382 C 0.77035 0.2418 0.39091 0.0
C1383 C 0.73951 0.25347 0.40506 0.0
H1384 H 0.81955 0.25537 0.37097 0.0
C1385 C 0.73501 0.28874 0.41011 0.0
H1386 H 0.77459 0.21479 0.38668 0.0
C1387 C 0.76058 0.31186 0.40106 0.0
C1388 C 0.79145 0.30033 0.38694 0.0
H1389 H 0.71158 0.29867 0.42096 0.0
H1390 H 0.75631 0.33878 0.40561 0.0
C1391 C 0.79615 0.26501 0.38207 0.0
loop_
_geom_bond_atom_site_label_1
_geom_bond_atom_site_label_2
_geom_bond_distance
_geom_bond_site_symmetry_2
_ccdc_geom_bond_type
C0 C1 1.351 1_455 S
C0 N3 1.368 . S
C0 H5 0.931 . S
C1 C0 1.351 1_655 S
C1 N2 1.373 . S
C1 H29 0.930 . S
N2 C1 1.373 . S
N2 C4 1.340 1_655 S
N3 C0 1.368 . S
N3 C4 1.321 . S
N3 Co6 2.135 . S
C4 N2 1.340 1_455 S
C4 N3 1.321 . S
C4 H28 0.930 . S
H5 C0 0.931 . S
Co6 N3 2.135 . S
Co6 N9 2.121 . S
Co6 O14 2.055 . S
Co6 O17 2.039 . S
Co6 N20 2.140 . S
C7 O8 1.227 . S
C7 O17 1.265 . S
O8 C7 1.227 . S
N9 Co6 2.121 . S
N9 C11 1.375 . S
N9 C12 1.313 . S
C10 C11 1.338 . S
C10 N13 1.377 . S
C10 H30 0.930 . S
C11 N9 1.375 . S
C11 C10 1.338 . S
C11 H15 0.931 . S
C12 N9 1.313 . S
C12 N13 1.344 . S
C12 H16 0.930 . S
N13 C10 1.377 . S
N13 C12 1.344 . S
O14 Co6 2.055 . S
O14 C18 1.253 . S
H15 C11 0.931 . S
H16 C12 0.930 . S
O17 Co6 2.039 . S
O17 C7 1.265 . S
C18 O14 1.253 . S
C18 O19 1.227 . S
O19 C18 1.227 . S
N20 Co6 2.140 . S
N20 C23 1.346 . S
N20 C24 1.345 . S
C21 C22 1.387 . S
C21 C25 1.391 . S
C22 C21 1.387 . S
C22 C23 1.369 . S
C22 H31 0.929 . S
C23 N20 1.346 . S
C23 C22 1.369 . S
C23 H26 0.928 . S
C24 N20 1.345 . S
C24 C25 1.371 . S
C24 H27 0.931 . S
C25 C21 1.391 . S
C25 C24 1.371 . S
C25 H32 0.930 . S
H26 C23 0.928 . S
H27 C24 0.931 . S
H28 C4 0.930 . S
H29 C1 0.930 . S
H30 C10 0.930 . S
H31 C22 0.929 . S
H32 C25 0.930 . S
C33 C34 1.351 . S
C33 N36 1.368 . S
C33 H38 0.931 . S
C34 C33 1.351 . S
C34 N35 1.373 . S
C34 H62 0.930 . S
N35 C34 1.373 . S
N35 C37 1.340 . S
N36 C33 1.368 . S
N36 C37 1.321 . S
N36 Co39 2.135 . S
C37 N35 1.340 . S
C37 N36 1.321 . S
C37 H61 0.930 . S
H38 C33 0.931 . S
Co39 N36 2.135 . S
Co39 N42 2.121 . S
Co39 O47 2.055 . S
Co39 O50 2.039 . S
Co39 N53 2.140 . S
C40 O41 1.227 . S
C40 O50 1.265 . S
O41 C40 1.227 . S
N42 Co39 2.121 . S
N42 C44 1.375 . S
N42 C45 1.313 . S
C43 C44 1.338 . S
C43 N46 1.377 . S
C43 H63 0.930 . S
C44 N42 1.375 . S
C44 C43 1.338 . S
C44 H48 0.931 . S
C45 N42 1.313 . S
C45 N46 1.344 . S
C45 H49 0.930 . S
N46 C43 1.377 . S
N46 C45 1.344 . S
O47 Co39 2.055 . S
O47 C51 1.253 . S
H48 C44 0.931 . S
H49 C45 0.930 . S
O50 Co39 2.039 . S
O50 C40 1.265 . S
C51 O47 1.253 . S
C51 O52 1.227 . S
O52 C51 1.227 . S
N53 Co39 2.140 . S
N53 C56 1.346 . S
N53 C57 1.345 . S
C54 C55 1.387 . S
C54 C58 1.391 . S
C55 C54 1.387 . S
C55 C56 1.369 . S
C55 H64 0.929 . S
C56 N53 1.346 . S
C56 C55 1.369 . S
C56 H59 0.928 . S
C57 N53 1.345 . S
C57 C58 1.371 . S
C57 H60 0.931 . S
C58 C54 1.391 . S
C58 C57 1.371 . S
C58 H65 0.930 . S
H59 C56 0.928 . S
H60 C57 0.931 . S
H61 C37 0.930 . S
H62 C34 0.930 . S
H63 C43 0.930 . S
H64 C55 0.929 . S
H65 C58 0.930 . S
C66 C67 1.351 1_655 S
C66 N69 1.368 . S
C66 H71 0.931 . S
C67 C66 1.351 1_455 S
C67 N68 1.373 . S
C67 H95 0.930 . S
N68 C67 1.373 . S
N68 C70 1.340 1_455 S
N69 C66 1.368 . S
N69 C70 1.321 . S
N69 Co72 2.135 . S
C70 N68 1.340 1_655 S
C70 N69 1.321 . S
C70 H94 0.930 . S
H71 C66 0.931 . S
Co72 N69 2.135 . S
Co72 N75 2.121 . S
Co72 O80 2.055 . S
Co72 O83 2.039 . S
Co72 N86 2.140 . S
C73 O74 1.227 . S
C73 O83 1.265 . S
O74 C73 1.227 . S
N75 Co72 2.121 . S
N75 C77 1.375 . S
N75 C78 1.313 . S
C76 C77 1.338 . S
C76 N79 1.377 . S
C76 H96 0.930 . S
C77 N75 1.375 . S
C77 C76 1.338 . S
C77 H81 0.931 . S
C78 N75 1.313 . S
C78 N79 1.344 . S
C78 H82 0.930 . S
N79 C76 1.377 . S
N79 C78 1.344 . S
O80 Co72 2.055 . S
O80 C84 1.253 . S
H81 C77 0.931 . S
H82 C78 0.930 . S
O83 Co72 2.039 . S
O83 C73 1.265 . S
C84 O80 1.253 . S
C84 O85 1.227 . S
O85 C84 1.227 . S
N86 Co72 2.140 . S
N86 C89 1.346 . S
N86 C90 1.345 . S
C87 C88 1.387 . S
C87 C91 1.391 . S
C88 C87 1.387 . S
C88 C89 1.369 . S
C88 H97 0.929 . S
C89 N86 1.346 . S
C89 C88 1.369 . S
C89 H92 0.928 . S
C90 N86 1.345 . S
C90 C91 1.371 . S
C90 H93 0.931 . S
C91 C87 1.391 . S
C91 C90 1.371 . S
C91 H98 0.930 . S
H92 C89 0.928 . S
H93 C90 0.931 . S
H94 C70 0.930 . S
H95 C67 0.930 . S
H96 C76 0.930 . S
H97 C88 0.929 . S
H98 C91 0.930 . S
C99 C100 1.351 . S
C99 N102 1.368 . S
C99 H104 0.931 . S
C100 C99 1.351 . S
C100 N101 1.373 . S
C100 H128 0.930 . S
N101 C100 1.373 . S
N101 C103 1.340 . S
N102 C99 1.368 . S
N102 C103 1.321 . S
N102 Co105 2.135 . S
C103 N101 1.340 . S
C103 N102 1.321 . S
C103 H127 0.930 . S
H104 C99 0.931 . S
Co105 N102 2.135 . S
Co105 N108 2.121 . S
Co105 O113 2.055 . S
Co105 O116 2.039 . S
Co105 N119 2.140 . S
C106 O107 1.227 . S
C106 O116 1.265 . S
O107 C106 1.227 . S
N108 Co105 2.121 . S
N108 C110 1.375 . S
N108 C111 1.313 . S
C109 C110 1.338 . S
C109 N112 1.377 . S
C109 H129 0.930 . S
C110 N108 1.375 . S
C110 C109 1.338 . S
C110 H114 0.931 . S
C111 N108 1.313 . S
C111 N112 1.344 . S
C111 H115 0.930 . S
N112 C109 1.377 . S
N112 C111 1.344 . S
O113 Co105 2.055 . S
O113 C117 1.253 . S
H114 C110 0.931 . S
H115 C111 0.930 . S
O116 Co105 2.039 . S
O116 C106 1.265 . S
C117 O113 1.253 . S
C117 O118 1.227 . S
O118 C117 1.227 . S
N119 Co105 2.140 . S
N119 C122 1.346 . S
N119 C123 1.345 . S
C120 C121 1.387 . S
C120 C124 1.391 . S
C121 C120 1.387 . S
C121 C122 1.369 . S
C121 H130 0.929 . S
C122 N119 1.346 . S
C122 C121 1.369 . S
C122 H125 0.928 . S
C123 N119 1.345 . S
C123 C124 1.371 . S
C123 H126 0.931 . S
C124 C120 1.391 . S
C124 C123 1.371 . S
C124 H131 0.930 . S
H125 C122 0.928 . S
H126 C123 0.931 . S
H127 C103 0.930 . S
H128 C100 0.930 . S
H129 C109 0.930 . S
H130 C121 0.929 . S
H131 C124 0.930 . S
C132 C133 1.351 1_455 S
C132 N135 1.368 . S
C132 H137 0.931 . S
C133 C132 1.351 1_655 S
C133 N134 1.373 . S
C133 H161 0.930 . S
N134 C133 1.373 . S
N134 C136 1.340 1_655 S
N135 C132 1.368 . S
N135 C136 1.321 . S
N135 Co138 2.135 . S
C136 N134 1.340 1_455 S
C136 N135 1.321 . S
C136 H160 0.930 . S
H137 C132 0.931 . S
Co138 N135 2.135 . S
Co138 N141 2.121 . S
Co138 O146 2.055 . S
Co138 O149 2.039 . S
Co138 N152 2.140 . S
C139 O140 1.227 . S
C139 O149 1.265 . S
O140 C139 1.227 . S
N141 Co138 2.121 . S
N141 C143 1.375 . S
N141 C144 1.313 . S
C142 C143 1.338 . S
C142 N145 1.377 . S
C142 H162 0.930 . S
C143 N141 1.375 . S
C143 C142 1.338 . S
C143 H147 0.931 . S
C144 N141 1.313 . S
C144 N145 1.344 . S
C144 H148 0.930 . S
N145 C142 1.377 . S
N145 C144 1.344 . S
O146 Co138 2.055 . S
O146 C150 1.253 . S
H147 C143 0.931 . S
H148 C144 0.930 . S
O149 Co138 2.039 . S
O149 C139 1.265 . S
C150 O146 1.253 . S
C150 O151 1.227 . S
O151 C150 1.227 . S
N152 Co138 2.140 . S
N152 C155 1.346 . S
N152 C156 1.345 . S
C153 C154 1.387 . S
C153 C157 1.391 . S
C154 C153 1.387 . S
C154 C155 1.369 . S
C154 H163 0.929 . S
C155 N152 1.346 . S
C155 C154 1.369 . S
C155 H158 0.928 . S
C156 N152 1.345 . S
C156 C157 1.371 . S
C156 H159 0.931 . S
C157 C153 1.391 . S
C157 C156 1.371 . S
C157 H164 0.930 . S
H158 C155 0.928 . S
H159 C156 0.931 . S
H160 C136 0.930 . S
H161 C133 0.930 . S
H162 C142 0.930 . S
H163 C154 0.929 . S
H164 C157 0.930 . S
C165 C166 1.351 . S
C165 N168 1.368 . S
C165 H170 0.931 . S
C166 C165 1.351 . S
C166 N167 1.373 . S
C166 H194 0.930 . S
N167 C166 1.373 . S
N167 C169 1.340 . S
N168 C165 1.368 . S
N168 C169 1.321 . S
N168 Co171 2.135 . S
C169 N167 1.340 . S
C169 N168 1.321 . S
C169 H193 0.930 . S
H170 C165 0.931 . S
Co171 N168 2.135 . S
Co171 N174 2.121 . S
Co171 O179 2.055 . S
Co171 O182 2.039 . S
Co171 N185 2.140 . S
C172 O173 1.227 . S
C172 O182 1.265 . S
O173 C172 1.227 . S
N174 Co171 2.121 . S
N174 C176 1.375 . S
N174 C177 1.313 . S
C175 C176 1.338 . S
C175 N178 1.377 . S
C175 H195 0.930 . S
C176 N174 1.375 . S
C176 C175 1.338 . S
C176 H180 0.931 . S
C177 N174 1.313 . S
C177 N178 1.344 . S
C177 H181 0.930 . S
N178 C175 1.377 . S
N178 C177 1.344 . S
O179 Co171 2.055 . S
O179 C183 1.253 . S
H180 C176 0.931 . S
H181 C177 0.930 . S
O182 Co171 2.039 . S
O182 C172 1.265 . S
C183 O179 1.253 . S
C183 O184 1.227 . S
O184 C183 1.227 . S
N185 Co171 2.140 . S
N185 C188 1.346 . S
N185 C189 1.345 . S
C186 C187 1.387 . S
C186 C190 1.391 . S
C187 C186 1.387 . S
C187 C188 1.369 . S
C187 H196 0.929 . S
C188 N185 1.346 . S
C188 C187 1.369 . S
C188 H191 0.928 . S
C189 N185 1.345 . S
C189 C190 1.371 . S
C189 H192 0.931 . S
C190 C186 1.391 . S
C190 C189 1.371 . S
C190 H197 0.930 . S
H191 C188 0.928 . S
H192 C189 0.931 . S
H193 C169 0.930 . S
H194 C166 0.930 . S
H195 C175 0.930 . S
H196 C187 0.929 . S
H197 C190 0.930 . S
C198 C199 1.351 1_655 S
C198 N201 1.368 . S
C198 H203 0.931 . S
C199 C198 1.351 1_455 S
C199 N200 1.373 . S
C199 H227 0.930 . S
N200 C199 1.373 . S
N200 C202 1.340 1_455 S
N201 C198 1.368 . S
N201 C202 1.321 . S
N201 Co204 2.135 . S
C202 N200 1.340 1_655 S
C202 N201 1.321 . S
C202 H226 0.930 . S
H203 C198 0.931 . S
Co204 N201 2.135 . S
Co204 N207 2.121 . S
Co204 O212 2.055 . S
Co204 O215 2.039 . S
Co204 N218 2.140 . S
C205 O206 1.227 . S
C205 O215 1.265 . S
O206 C205 1.227 . S
N207 Co204 2.121 . S
N207 C209 1.375 . S
N207 C210 1.313 . S
C208 C209 1.338 . S
C208 N211 1.377 . S
C208 H228 0.930 . S
C209 N207 1.375 . S
C209 C208 1.338 . S
C209 H213 0.931 . S
C210 N207 1.313 . S
C210 N211 1.344 . S
C210 H214 0.930 . S
N211 C208 1.377 . S
N211 C210 1.344 . S
O212 Co204 2.055 . S
O212 C216 1.253 . S
H213 C209 0.931 . S
H214 C210 0.930 . S
O215 Co204 2.039 . S
O215 C205 1.265 . S
C216 O212 1.253 . S
C216 O217 1.227 . S
O217 C216 1.227 . S
N218 Co204 2.140 . S
N218 C221 1.346 . S
N218 C222 1.345 . S
C219 C220 1.387 . S
C219 C223 1.391 . S
C220 C219 1.387 . S
C220 C221 1.369 . S
C220 H229 0.929 . S
C221 N218 1.346 . S
C221 C220 1.369 . S
C221 H224 0.928 . S
C222 N218 1.345 . S
C222 C223 1.371 . S
C222 H225 0.931 . S
C223 C219 1.391 . S
C223 C222 1.371 . S
C223 H230 0.930 . S
H224 C221 0.928 . S
H225 C222 0.931 . S
H226 C202 0.930 . S
H227 C199 0.930 . S
H228 C208 0.930 . S
H229 C220 0.929 . S
H230 C223 0.930 . S
C231 C232 1.351 . S
C231 N234 1.368 . S
C231 H236 0.931 . S
C232 C231 1.351 . S
C232 N233 1.373 . S
C232 H260 0.930 . S
N233 C232 1.373 . S
N233 C235 1.340 . S
N234 C231 1.368 . S
N234 C235 1.321 . S
N234 Co237 2.135 . S
C235 N233 1.340 . S
C235 N234 1.321 . S
C235 H259 0.930 . S
H236 C231 0.931 . S
Co237 N234 2.135 . S
Co237 N240 2.121 . S
Co237 O245 2.055 . S
Co237 O248 2.039 . S
Co237 N251 2.140 . S
C238 O239 1.227 . S
C238 O248 1.265 . S
O239 C238 1.227 . S
N240 Co237 2.121 . S
N240 C242 1.375 . S
N240 C243 1.313 . S
C241 C242 1.338 . S
C241 N244 1.377 . S
C241 H261 0.930 . S
C242 N240 1.375 . S
C242 C241 1.338 . S
C242 H246 0.931 . S
C243 N240 1.313 . S
C243 N244 1.344 . S
C243 H247 0.930 . S
N244 C241 1.377 . S
N244 C243 1.344 . S
O245 Co237 2.055 . S
O245 C249 1.253 . S
H246 C242 0.931 . S
H247 C243 0.930 . S
O248 Co237 2.039 . S
O248 C238 1.265 . S
C249 O245 1.253 . S
C249 O250 1.227 . S
O250 C249 1.227 . S
N251 Co237 2.140 . S
N251 C254 1.346 . S
N251 C255 1.345 . S
C252 C253 1.387 . S
C252 C256 1.391 . S
C253 C252 1.387 . S
C253 C254 1.369 . S
C253 H262 0.929 . S
C254 N251 1.346 . S
C254 C253 1.369 . S
C254 H257 0.928 . S
C255 N251 1.345 . S
C255 C256 1.371 . S
C255 H258 0.931 . S
C256 C252 1.391 . S
C256 C255 1.371 . S
C256 H263 0.930 . S
H257 C254 0.928 . S
H258 C255 0.931 . S
H259 C235 0.930 . S
H260 C232 0.930 . S
H261 C241 0.930 . S
H262 C253 0.929 . S
H263 C256 0.930 . S
C264 C265 1.351 1_545 S
C264 N267 1.368 . S
C264 H269 0.931 . S
C265 C264 1.351 1_565 S
C265 N266 1.373 . S
C265 H293 0.930 . S
N266 C265 1.373 . S
N266 C268 1.340 1_565 S
N267 C264 1.368 . S
N267 C268 1.321 . S
N267 Co270 2.135 . S
C268 N266 1.340 1_545 S
C268 N267 1.321 . S
C268 H292 0.930 . S
H269 C264 0.931 . S
Co270 N267 2.135 . S
Co270 N273 2.121 . S
Co270 O278 2.055 . S
Co270 O281 2.039 . S
Co270 N284 2.140 . S
C271 O272 1.227 . S
C271 O281 1.265 . S
O272 C271 1.227 . S
N273 Co270 2.121 . S
N273 C275 1.375 . S
N273 C276 1.313 . S
C274 C275 1.338 . S
C274 N277 1.377 . S
C274 H294 0.930 . S
C275 N273 1.375 . S
C275 C274 1.338 . S
C275 H279 0.931 . S
C276 N273 1.313 . S
C276 N277 1.344 . S
C276 H280 0.930 . S
N277 C274 1.377 . S
N277 C276 1.344 . S
O278 Co270 2.055 . S
O278 C282 1.253 . S
H279 C275 0.931 . S
H280 C276 0.930 . S
O281 Co270 2.039 . S
O281 C271 1.265 . S
C282 O278 1.253 . S
C282 O283 1.227 . S
O283 C282 1.227 . S
N284 Co270 2.140 . S
N284 C287 1.346 . S
N284 C288 1.345 . S
C285 C286 1.387 . S
C285 C289 1.391 . S
C286 C285 1.387 . S
C286 C287 1.369 . S
C286 H295 0.929 . S
C287 N284 1.346 . S
C287 C286 1.369 . S
C287 H290 0.928 . S
C288 N284 1.345 . S
C288 C289 1.371 . S
C288 H291 0.931 . S
C289 C285 1.391 . S
C289 C288 1.371 . S
C289 H296 0.930 . S
H290 C287 0.928 . S
H291 C288 0.931 . S
H292 C268 0.930 . S
H293 C265 0.930 . S
H294 C274 0.930 . S
H295 C286 0.929 . S
H296 C289 0.930 . S
C297 C298 1.351 . S
C297 N300 1.368 . S
C297 H302 0.931 . S
C298 C297 1.351 . S
C298 N299 1.373 . S
C298 H326 0.930 . S
N299 C298 1.373 . S
N299 C301 1.340 . S
N300 C297 1.368 . S
N300 C301 1.321 . S
N300 Co303 2.135 . S
C301 N299 1.340 . S
C301 N300 1.321 . S
C301 H325 0.930 . S
H302 C297 0.931 . S
Co303 N300 2.135 . S
Co303 N306 2.121 . S
Co303 O311 2.055 . S
Co303 O314 2.039 . S
Co303 N317 2.140 . S
C304 O305 1.227 . S
C304 O314 1.265 . S
O305 C304 1.227 . S
N306 Co303 2.121 . S
N306 C308 1.375 . S
N306 C309 1.313 . S
C307 C308 1.338 . S
C307 N310 1.377 . S
C307 H327 0.930 . S
C308 N306 1.375 . S
C308 C307 1.338 . S
C308 H312 0.931 . S
C309 N306 1.313 . S
C309 N310 1.344 . S
C309 H313 0.930 . S
N310 C307 1.377 . S
N310 C309 1.344 . S
O311 Co303 2.055 . S
O311 C315 1.253 . S
H312 C308 0.931 . S
H313 C309 0.930 . S
O314 Co303 2.039 . S
O314 C304 1.265 . S
C315 O311 1.253 . S
C315 O316 1.227 . S
O316 C315 1.227 . S
N317 Co303 2.140 . S
N317 C320 1.346 . S
N317 C321 1.345 . S
C318 C319 1.387 . S
C318 C322 1.391 . S
C319 C318 1.387 . S
C319 C320 1.369 . S
C319 H328 0.929 . S
C320 N317 1.346 . S
C320 C319 1.369 . S
C320 H323 0.928 . S
C321 N317 1.345 . S
C321 C322 1.371 . S
C321 H324 0.931 . S
C322 C318 1.391 . S
C322 C321 1.371 . S
C322 H329 0.930 . S
H323 C320 0.928 . S
H324 C321 0.931 . S
H325 C301 0.930 . S
H326 C298 0.930 . S
H327 C307 0.930 . S
H328 C319 0.929 . S
H329 C322 0.930 . S
C330 C331 1.351 1_565 S
C330 N333 1.368 . S
C330 H335 0.931 . S
C331 C330 1.351 1_545 S
C331 N332 1.373 . S
C331 H359 0.930 . S
N332 C331 1.373 . S
N332 C334 1.340 1_545 S
N333 C330 1.368 . S
N333 C334 1.321 . S
N333 Co336 2.135 . S
C334 N332 1.340 1_565 S
C334 N333 1.321 . S
C334 H358 0.930 . S
H335 C330 0.931 . S
Co336 N333 2.135 . S
Co336 N339 2.121 . S
Co336 O344 2.055 . S
Co336 O347 2.039 . S
Co336 N350 2.140 . S
C337 O338 1.227 . S
C337 O347 1.265 . S
O338 C337 1.227 . S
N339 Co336 2.121 . S
N339 C341 1.375 . S
N339 C342 1.313 . S
C340 C341 1.338 . S
C340 N343 1.377 . S
C340 H360 0.930 . S
C341 N339 1.375 . S
C341 C340 1.338 . S
C341 H345 0.931 . S
C342 N339 1.313 . S
C342 N343 1.344 . S
C342 H346 0.930 . S
N343 C340 1.377 . S
N343 C342 1.344 . S
O344 Co336 2.055 . S
O344 C348 1.253 . S
H345 C341 0.931 . S
H346 C342 0.930 . S
O347 Co336 2.039 . S
O347 C337 1.265 . S
C348 O344 1.253 . S
C348 O349 1.227 . S
O349 C348 1.227 . S
N350 Co336 2.140 . S
N350 C353 1.346 . S
N350 C354 1.345 . S
C351 C352 1.387 . S
C351 C355 1.391 . S
C352 C351 1.387 . S
C352 C353 1.369 . S
C352 H361 0.929 . S
C353 N350 1.346 . S
C353 C352 1.369 . S
C353 H356 0.928 . S
C354 N350 1.345 . S
C354 C355 1.371 . S
C354 H357 0.931 . S
C355 C351 1.391 . S
C355 C354 1.371 . S
C355 H362 0.930 . S
H356 C353 0.928 . S
H357 C354 0.931 . S
H358 C334 0.930 . S
H359 C331 0.930 . S
H360 C340 0.930 . S
H361 C352 0.929 . S
H362 C355 0.930 . S
C363 C364 1.351 . S
C363 N366 1.368 . S
C363 H368 0.931 . S
C364 C363 1.351 . S
C364 N365 1.373 . S
C364 H392 0.930 . S
N365 C364 1.373 . S
N365 C367 1.340 . S
N366 C363 1.368 . S
N366 C367 1.321 . S
N366 Co369 2.135 . S
C367 N365 1.340 . S
C367 N366 1.321 . S
C367 H391 0.930 . S
H368 C363 0.931 . S
Co369 N366 2.135 . S
Co369 N372 2.121 . S
Co369 O377 2.055 . S
Co369 O380 2.039 . S
Co369 N383 2.140 . S
C370 O371 1.227 . S
C370 O380 1.265 . S
O371 C370 1.227 . S
N372 Co369 2.121 . S
N372 C374 1.375 . S
N372 C375 1.313 . S
C373 C374 1.338 . S
C373 N376 1.377 . S
C373 H393 0.930 . S
C374 N372 1.375 . S
C374 C373 1.338 . S
C374 H378 0.931 . S
C375 N372 1.313 . S
C375 N376 1.344 . S
C375 H379 0.930 . S
N376 C373 1.377 . S
N376 C375 1.344 . S
O377 Co369 2.055 . S
O377 C381 1.253 . S
H378 C374 0.931 . S
H379 C375 0.930 . S
O380 Co369 2.039 . S
O380 C370 1.265 . S
C381 O377 1.253 . S
C381 O382 1.227 . S
O382 C381 1.227 . S
N383 Co369 2.140 . S
N383 C386 1.346 . S
N383 C387 1.345 . S
C384 C385 1.387 . S
C384 C388 1.391 . S
C385 C384 1.387 . S
C385 C386 1.369 . S
C385 H394 0.929 . S
C386 N383 1.346 . S
C386 C385 1.369 . S
C386 H389 0.928 . S
C387 N383 1.345 . S
C387 C388 1.371 . S
C387 H390 0.931 . S
C388 C384 1.391 . S
C388 C387 1.371 . S
C388 H395 0.930 . S
H389 C386 0.928 . S
H390 C387 0.931 . S
H391 C367 0.930 . S
H392 C364 0.930 . S
H393 C373 0.930 . S
H394 C385 0.929 . S
H395 C388 0.930 . S
C396 C397 1.351 1_565 S
C396 N399 1.368 . S
C396 H401 0.931 . S
C397 C396 1.351 1_545 S
C397 N398 1.373 . S
C397 H425 0.930 . S
N398 C397 1.373 . S
N398 C400 1.340 1_545 S
N399 C396 1.368 . S
N399 C400 1.321 . S
N399 Co402 2.135 . S
C400 N398 1.340 1_565 S
C400 N399 1.321 . S
C400 H424 0.930 . S
H401 C396 0.931 . S
Co402 N399 2.135 . S
Co402 N405 2.121 . S
Co402 O410 2.055 . S
Co402 O413 2.039 . S
Co402 N416 2.140 . S
C403 O404 1.227 . S
C403 O413 1.265 . S
O404 C403 1.227 . S
N405 Co402 2.121 . S
N405 C407 1.375 . S
N405 C408 1.313 . S
C406 C407 1.338 . S
C406 N409 1.377 . S
C406 H426 0.930 . S
C407 N405 1.375 . S
C407 C406 1.338 . S
C407 H411 0.931 . S
C408 N405 1.313 . S
C408 N409 1.344 . S
C408 H412 0.930 . S
N409 C406 1.377 . S
N409 C408 1.344 . S
O410 Co402 2.055 . S
O410 C414 1.253 . S
H411 C407 0.931 . S
H412 C408 0.930 . S
O413 Co402 2.039 . S
O413 C403 1.265 . S
C414 O410 1.253 . S
C414 O415 1.227 . S
O415 C414 1.227 . S
N416 Co402 2.140 . S
N416 C419 1.346 . S
N416 C420 1.345 . S
C417 C418 1.387 . S
C417 C421 1.391 . S
C418 C417 1.387 . S
C418 C419 1.369 . S
C418 H427 0.929 . S
C419 N416 1.346 . S
C419 C418 1.369 . S
C419 H422 0.928 . S
C420 N416 1.345 . S
C420 C421 1.371 . S
C420 H423 0.931 . S
C421 C417 1.391 . S
C421 C420 1.371 . S
C421 H428 0.930 . S
H422 C419 0.928 . S
H423 C420 0.931 . S
H424 C400 0.930 . S
H425 C397 0.930 . S
H426 C406 0.930 . S
H427 C418 0.929 . S
H428 C421 0.930 . S
C429 C430 1.351 . S
C429 N432 1.368 . S
C429 H434 0.931 . S
C430 C429 1.351 . S
C430 N431 1.373 . S
C430 H458 0.930 . S
N431 C430 1.373 . S
N431 C433 1.340 . S
N432 C429 1.368 . S
N432 C433 1.321 . S
N432 Co435 2.135 . S
C433 N431 1.340 . S
C433 N432 1.321 . S
C433 H457 0.930 . S
H434 C429 0.931 . S
Co435 N432 2.135 . S
Co435 N438 2.121 . S
Co435 O443 2.055 . S
Co435 O446 2.039 . S
Co435 N449 2.140 . S
C436 O437 1.227 . S
C436 O446 1.265 . S
O437 C436 1.227 . S
N438 Co435 2.121 . S
N438 C440 1.375 . S
N438 C441 1.313 . S
C439 C440 1.338 . S
C439 N442 1.377 . S
C439 H459 0.930 . S
C440 N438 1.375 . S
C440 C439 1.338 . S
C440 H444 0.931 . S
C441 N438 1.313 . S
C441 N442 1.344 . S
C441 H445 0.930 . S
N442 C439 1.377 . S
N442 C441 1.344 . S
O443 Co435 2.055 . S
O443 C447 1.253 . S
H444 C440 0.931 . S
H445 C441 0.930 . S
O446 Co435 2.039 . S
O446 C436 1.265 . S
C447 O443 1.253 . S
C447 O448 1.227 . S
O448 C447 1.227 . S
N449 Co435 2.140 . S
N449 C452 1.346 . S
N449 C453 1.345 . S
C450 C451 1.387 . S
C450 C454 1.391 . S
C451 C450 1.387 . S
C451 C452 1.369 . S
C451 H460 0.929 . S
C452 N449 1.346 . S
C452 C451 1.369 . S
C452 H455 0.928 . S
C453 N449 1.345 . S
C453 C454 1.371 . S
C453 H456 0.931 . S
C454 C450 1.391 . S
C454 C453 1.371 . S
C454 H461 0.930 . S
H455 C452 0.928 . S
H456 C453 0.931 . S
H457 C433 0.930 . S
H458 C430 0.930 . S
H459 C439 0.930 . S
H460 C451 0.929 . S
H461 C454 0.930 . S
C462 C463 1.351 1_545 S
C462 N465 1.368 . S
C462 H467 0.931 . S
C463 C462 1.351 1_565 S
C463 N464 1.373 . S
C463 H491 0.930 . S
N464 C463 1.373 . S
N464 C466 1.340 1_565 S
N465 C462 1.368 . S
N465 C466 1.321 . S
N465 Co468 2.135 . S
C466 N464 1.340 1_545 S
C466 N465 1.321 . S
C466 H490 0.930 . S
H467 C462 0.931 . S
Co468 N465 2.135 . S
Co468 N471 2.121 . S
Co468 O476 2.055 . S
Co468 O479 2.039 . S
Co468 N482 2.140 . S
C469 O470 1.227 . S
C469 O479 1.265 . S
O470 C469 1.227 . S
N471 Co468 2.121 . S
N471 C473 1.375 . S
N471 C474 1.313 . S
C472 C473 1.338 . S
C472 N475 1.377 . S
C472 H492 0.930 . S
C473 N471 1.375 . S
C473 C472 1.338 . S
C473 H477 0.931 . S
C474 N471 1.313 . S
C474 N475 1.344 . S
C474 H478 0.930 . S
N475 C472 1.377 . S
N475 C474 1.344 . S
O476 Co468 2.055 . S
O476 C480 1.253 . S
H477 C473 0.931 . S
H478 C474 0.930 . S
O479 Co468 2.039 . S
O479 C469 1.265 . S
C480 O476 1.253 . S
C480 O481 1.227 . S
O481 C480 1.227 . S
N482 Co468 2.140 . S
N482 C485 1.346 . S
N482 C486 1.345 . S
C483 C484 1.387 . S
C483 C487 1.391 . S
C484 C483 1.387 . S
C484 C485 1.369 . S
C484 H493 0.929 . S
C485 N482 1.346 . S
C485 C484 1.369 . S
C485 H488 0.928 . S
C486 N482 1.345 . S
C486 C487 1.371 . S
C486 H489 0.931 . S
C487 C483 1.391 . S
C487 C486 1.371 . S
C487 H494 0.930 . S
H488 C485 0.928 . S
H489 C486 0.931 . S
H490 C466 0.930 . S
H491 C463 0.930 . S
H492 C472 0.930 . S
H493 C484 0.929 . S
H494 C487 0.930 . S
C495 C496 1.351 . S
C495 N498 1.368 . S
C495 H500 0.931 . S
C496 C495 1.351 . S
C496 N497 1.373 . S
C496 H524 0.930 . S
N497 C496 1.373 . S
N497 C499 1.340 . S
N498 C495 1.368 . S
N498 C499 1.321 . S
N498 Co501 2.135 . S
C499 N497 1.340 . S
C499 N498 1.321 . S
C499 H523 0.930 . S
H500 C495 0.931 . S
Co501 N498 2.135 . S
Co501 N504 2.121 . S
Co501 O509 2.055 . S
Co501 O512 2.039 . S
Co501 N515 2.140 . S
C502 O503 1.227 . S
C502 O512 1.265 . S
O503 C502 1.227 . S
N504 Co501 2.121 . S
N504 C506 1.375 . S
N504 C507 1.313 . S
C505 C506 1.338 . S
C505 N508 1.377 . S
C505 H525 0.930 . S
C506 N504 1.375 . S
C506 C505 1.338 . S
C506 H510 0.931 . S
C507 N504 1.313 . S
C507 N508 1.344 . S
C507 H511 0.930 . S
N508 C505 1.377 . S
N508 C507 1.344 . S
O509 Co501 2.055 . S
O509 C513 1.253 . S
H510 C506 0.931 . S
H511 C507 0.930 . S
O512 Co501 2.039 . S
O512 C502 1.265 . S
C513 O509 1.253 . S
C513 O514 1.227 . S
O514 C513 1.227 . S
N515 Co501 2.140 . S
N515 C518 1.346 . S
N515 C519 1.345 . S
C516 C517 1.387 . S
C516 C520 1.391 . S
C517 C516 1.387 . S
C517 C518 1.369 . S
C517 H526 0.929 . S
C518 N515 1.346 . S
C518 C517 1.369 . S
C518 H521 0.928 . S
C519 N515 1.345 . S
C519 C520 1.371 . S
C519 H522 0.931 . S
C520 C516 1.391 . S
C520 C519 1.371 . S
C520 H527 0.930 . S
H521 C518 0.928 . S
H522 C519 0.931 . S
H523 C499 0.930 . S
H524 C496 0.930 . S
H525 C505 0.930 . S
H526 C517 0.929 . S
H527 C520 0.930 . S
C528 C529 1.351 1_554 S
C528 N531 1.368 . S
C528 H533 0.931 . S
C529 C528 1.351 1_556 S
C529 N530 1.373 . S
C529 H557 0.930 . S
N530 C529 1.373 . S
N530 C532 1.340 1_556 S
N531 C528 1.368 . S
N531 C532 1.321 . S
N531 Co534 2.135 . S
C532 N530 1.340 1_554 S
C532 N531 1.321 . S
C532 H556 0.930 . S
H533 C528 0.931 . S
Co534 N531 2.135 . S
Co534 N537 2.121 . S
Co534 O542 2.055 . S
Co534 O545 2.039 . S
Co534 N548 2.140 . S
C535 O536 1.227 . S
C535 O545 1.265 . S
O536 C535 1.227 . S
N537 Co534 2.121 . S
N537 C539 1.375 . S
N537 C540 1.313 . S
C538 C539 1.338 . S
C538 N541 1.377 . S
C538 H558 0.930 . S
C539 N537 1.375 . S
C539 C538 1.338 . S
C539 H543 0.931 . S
C540 N537 1.313 . S
C540 N541 1.344 . S
C540 H544 0.930 . S
N541 C538 1.377 . S
N541 C540 1.344 . S
O542 Co534 2.055 . S
O542 C546 1.253 . S
H543 C539 0.931 . S
H544 C540 0.930 . S
O545 Co534 2.039 . S
O545 C535 1.265 . S
C546 O542 1.253 . S
C546 O547 1.227 . S
O547 C546 1.227 . S
N548 Co534 2.140 . S
N548 C551 1.346 . S
N548 C552 1.345 . S
C549 C550 1.387 . S
C549 C553 1.391 . S
C550 C549 1.387 . S
C550 C551 1.369 . S
C550 H559 0.929 . S
C551 N548 1.346 . S
C551 C550 1.369 . S
C551 H554 0.928 . S
C552 N548 1.345 . S
C552 C553 1.371 . S
C552 H555 0.931 . S
C553 C549 1.391 . S
C553 C552 1.371 . S
C553 H560 0.930 . S
H554 C551 0.928 . S
H555 C552 0.931 . S
H556 C532 0.930 . S
H557 C529 0.930 . S
H558 C538 0.930 . S
H559 C550 0.929 . S
H560 C553 0.930 . S
C561 C562 1.351 1_556 S
C561 N564 1.368 . S
C561 H566 0.931 . S
C562 C561 1.351 1_554 S
C562 N563 1.373 . S
C562 H590 0.930 . S
N563 C562 1.373 . S
N563 C565 1.340 1_554 S
N564 C561 1.368 . S
N564 C565 1.321 . S
N564 Co567 2.135 . S
C565 N563 1.340 1_556 S
C565 N564 1.321 . S
C565 H589 0.930 . S
H566 C561 0.931 . S
Co567 N564 2.135 . S
Co567 N570 2.121 . S
Co567 O575 2.055 . S
Co567 O578 2.039 . S
Co567 N581 2.140 . S
C568 O569 1.227 . S
C568 O578 1.265 . S
O569 C568 1.227 . S
N570 Co567 2.121 . S
N570 C572 1.375 . S
N570 C573 1.313 . S
C571 C572 1.338 . S
C571 N574 1.377 . S
C571 H591 0.930 . S
C572 N570 1.375 . S
C572 C571 1.338 . S
C572 H576 0.931 . S
C573 N570 1.313 . S
C573 N574 1.344 . S
C573 H577 0.930 . S
N574 C571 1.377 . S
N574 C573 1.344 . S
O575 Co567 2.055 . S
O575 C579 1.253 . S
H576 C572 0.931 . S
H577 C573 0.930 . S
O578 Co567 2.039 . S
O578 C568 1.265 . S
C579 O575 1.253 . S
C579 O580 1.227 . S
O580 C579 1.227 . S
N581 Co567 2.140 . S
N581 C584 1.346 . S
N581 C585 1.345 . S
C582 C583 1.387 . S
C582 C586 1.391 . S
C583 C582 1.387 . S
C583 C584 1.369 . S
C583 H592 0.929 . S
C584 N581 1.346 . S
C584 C583 1.369 . S
C584 H587 0.928 . S
C585 N581 1.345 . S
C585 C586 1.371 . S
C585 H588 0.931 . S
C586 C582 1.391 . S
C586 C585 1.371 . S
C586 H593 0.930 . S
H587 C584 0.928 . S
H588 C585 0.931 . S
H589 C565 0.930 . S
H590 C562 0.930 . S
H591 C571 0.930 . S
H592 C583 0.929 . S
H593 C586 0.930 . S
C594 C595 1.351 . S
C594 N597 1.368 . S
C594 H599 0.931 . S
C595 C594 1.351 . S
C595 N596 1.373 . S
C595 H623 0.930 . S
N596 C595 1.373 . S
N596 C598 1.340 . S
N597 C594 1.368 . S
N597 C598 1.321 . S
N597 Co600 2.135 . S
C598 N596 1.340 . S
C598 N597 1.321 . S
C598 H622 0.930 . S
H599 C594 0.931 . S
Co600 N597 2.135 . S
Co600 N603 2.121 . S
Co600 O608 2.055 . S
Co600 O611 2.039 . S
Co600 N614 2.140 . S
C601 O602 1.227 . S
C601 O611 1.265 . S
O602 C601 1.227 . S
N603 Co600 2.121 . S
N603 C605 1.375 . S
N603 C606 1.313 . S
C604 C605 1.338 . S
C604 N607 1.377 . S
C604 H624 0.930 . S
C605 N603 1.375 . S
C605 C604 1.338 . S
C605 H609 0.931 . S
C606 N603 1.313 . S
C606 N607 1.344 . S
C606 H610 0.930 . S
N607 C604 1.377 . S
N607 C606 1.344 . S
O608 Co600 2.055 . S
O608 C612 1.253 . S
H609 C605 0.931 . S
H610 C606 0.930 . S
O611 Co600 2.039 . S
O611 C601 1.265 . S
C612 O608 1.253 . S
C612 O613 1.227 . S
O613 C612 1.227 . S
N614 Co600 2.140 . S
N614 C617 1.346 . S
N614 C618 1.345 . S
C615 C616 1.387 . S
C615 C619 1.391 . S
C616 C615 1.387 . S
C616 C617 1.369 . S
C616 H625 0.929 . S
C617 N614 1.346 . S
C617 C616 1.369 . S
C617 H620 0.928 . S
C618 N614 1.345 . S
C618 C619 1.371 . S
C618 H621 0.931 . S
C619 C615 1.391 . S
C619 C618 1.371 . S
C619 H626 0.930 . S
H620 C617 0.928 . S
H621 C618 0.931 . S
H622 C598 0.930 . S
H623 C595 0.930 . S
H624 C604 0.930 . S
H625 C616 0.929 . S
H626 C619 0.930 . S
C627 C628 1.351 1_556 S
C627 N630 1.368 . S
C627 H632 0.931 . S
C628 C627 1.351 1_554 S
C628 N629 1.373 . S
C628 H656 0.930 . S
N629 C628 1.373 . S
N629 C631 1.340 1_554 S
N630 C627 1.368 . S
N630 C631 1.321 . S
N630 Co633 2.135 . S
C631 N629 1.340 1_556 S
C631 N630 1.321 . S
C631 H655 0.930 . S
H632 C627 0.931 . S
Co633 N630 2.135 . S
Co633 N636 2.121 . S
Co633 O641 2.055 . S
Co633 O644 2.039 . S
Co633 N647 2.140 . S
C634 O635 1.227 . S
C634 O644 1.265 . S
O635 C634 1.227 . S
N636 Co633 2.121 . S
N636 C638 1.375 . S
N636 C639 1.313 . S
C637 C638 1.338 . S
C637 N640 1.377 . S
C637 H657 0.930 . S
C638 N636 1.375 . S
C638 C637 1.338 . S
C638 H642 0.931 . S
C639 N636 1.313 . S
C639 N640 1.344 . S
C639 H643 0.930 . S
N640 C637 1.377 . S
N640 C639 1.344 . S
O641 Co633 2.055 . S
O641 C645 1.253 . S
H642 C638 0.931 . S
H643 C639 0.930 . S
O644 Co633 2.039 . S
O644 C634 1.265 . S
C645 O641 1.253 . S
C645 O646 1.227 . S
O646 C645 1.227 . S
N647 Co633 2.140 . S
N647 C650 1.346 . S
N647 C651 1.345 . S
C648 C649 1.387 . S
C648 C652 1.391 . S
C649 C648 1.387 . S
C649 C650 1.369 . S
C649 H658 0.929 . S
C650 N647 1.346 . S
C650 C649 1.369 . S
C650 H653 0.928 . S
C651 N647 1.345 . S
C651 C652 1.371 . S
C651 H654 0.931 . S
C652 C648 1.391 . S
C652 C651 1.371 . S
C652 H659 0.930 . S
H653 C650 0.928 . S
H654 C651 0.931 . S
H655 C631 0.930 . S
H656 C628 0.930 . S
H657 C637 0.930 . S
H658 C649 0.929 . S
H659 C652 0.930 . S
C660 C661 1.351 . S
C660 N663 1.368 . S
C660 H665 0.931 . S
C661 C660 1.351 . S
C661 N662 1.373 . S
C661 H689 0.930 . S
N662 C661 1.373 . S
N662 C664 1.340 . S
N663 C660 1.368 . S
N663 C664 1.321 . S
N663 Co666 2.135 . S
C664 N662 1.340 . S
C664 N663 1.321 . S
C664 H688 0.930 . S
H665 C660 0.931 . S
Co666 N663 2.135 . S
Co666 N669 2.121 . S
Co666 O674 2.055 . S
Co666 O677 2.039 . S
Co666 N680 2.140 . S
C667 O668 1.227 . S
C667 O677 1.265 . S
O668 C667 1.227 . S
N669 Co666 2.121 . S
N669 C671 1.375 . S
N669 C672 1.313 . S
C670 C671 1.338 . S
C670 N673 1.377 . S
C670 H690 0.930 . S
C671 N669 1.375 . S
C671 C670 1.338 . S
C671 H675 0.931 . S
C672 N669 1.313 . S
C672 N673 1.344 . S
C672 H676 0.930 . S
N673 C670 1.377 . S
N673 C672 1.344 . S
O674 Co666 2.055 . S
O674 C678 1.253 . S
H675 C671 0.931 . S
H676 C672 0.930 . S
O677 Co666 2.039 . S
O677 C667 1.265 . S
C678 O674 1.253 . S
C678 O679 1.227 . S
O679 C678 1.227 . S
N680 Co666 2.140 . S
N680 C683 1.346 . S
N680 C684 1.345 . S
C681 C682 1.387 . S
C681 C685 1.391 . S
C682 C681 1.387 . S
C682 C683 1.369 . S
C682 H691 0.929 . S
C683 N680 1.346 . S
C683 C682 1.369 . S
C683 H686 0.928 . S
C684 N680 1.345 . S
C684 C685 1.371 . S
C684 H687 0.931 . S
C685 C681 1.391 . S
C685 C684 1.371 . S
C685 H692 0.930 . S
H686 C683 0.928 . S
H687 C684 0.931 . S
H688 C664 0.930 . S
H689 C661 0.930 . S
H690 C670 0.930 . S
H691 C682 0.929 . S
H692 C685 0.930 . S
C693 C694 1.351 1_554 S
C693 N696 1.368 . S
C693 H698 0.931 . S
C694 C693 1.351 1_556 S
C694 N695 1.373 . S
C694 H722 0.930 . S
N695 C694 1.373 . S
N695 C697 1.340 1_556 S
N696 C693 1.368 . S
N696 C697 1.321 . S
N696 Co699 2.135 . S
C697 N695 1.340 1_554 S
C697 N696 1.321 . S
C697 H721 0.930 . S
H698 C693 0.931 . S
Co699 N696 2.135 . S
Co699 N702 2.121 . S
Co699 O707 2.055 . S
Co699 O710 2.039 . S
Co699 N713 2.140 . S
C700 O701 1.227 . S
C700 O710 1.265 . S
O701 C700 1.227 . S
N702 Co699 2.121 . S
N702 C704 1.375 . S
N702 C705 1.313 . S
C703 C704 1.338 . S
C703 N706 1.377 . S
C703 H723 0.930 . S
C704 N702 1.375 . S
C704 C703 1.338 . S
C704 H708 0.931 . S
C705 N702 1.313 . S
C705 N706 1.344 . S
C705 H709 0.930 . S
N706 C703 1.377 . S
N706 C705 1.344 . S
O707 Co699 2.055 . S
O707 C711 1.253 . S
H708 C704 0.931 . S
H709 C705 0.930 . S
O710 Co699 2.039 . S
O710 C700 1.265 . S
C711 O707 1.253 . S
C711 O712 1.227 . S
O712 C711 1.227 . S
N713 Co699 2.140 . S
N713 C716 1.346 . S
N713 C717 1.345 . S
C714 C715 1.387 . S
C714 C718 1.391 . S
C715 C714 1.387 . S
C715 C716 1.369 . S
C715 H724 0.929 . S
C716 N713 1.346 . S
C716 C715 1.369 . S
C716 H719 0.928 . S
C717 N713 1.345 . S
C717 C718 1.371 . S
C717 H720 0.931 . S
C718 C714 1.391 . S
C718 C717 1.371 . S
C718 H725 0.930 . S
H719 C716 0.928 . S
H720 C717 0.931 . S
H721 C697 0.930 . S
H722 C694 0.930 . S
H723 C703 0.930 . S
H724 C715 0.929 . S
H725 C718 0.930 . S
C726 C727 1.351 . S
C726 N729 1.368 . S
C726 H731 0.931 . S
C727 C726 1.351 . S
C727 N728 1.373 . S
C727 H755 0.930 . S
N728 C727 1.373 . S
N728 C730 1.340 . S
N729 C726 1.368 . S
N729 C730 1.321 . S
N729 Co732 2.135 . S
C730 N728 1.340 . S
C730 N729 1.321 . S
C730 H754 0.930 . S
H731 C726 0.931 . S
Co732 N729 2.135 . S
Co732 N735 2.121 . S
Co732 O740 2.055 . S
Co732 O743 2.039 . S
Co732 N746 2.140 . S
C733 O734 1.227 . S
C733 O743 1.265 . S
O734 C733 1.227 . S
N735 Co732 2.121 . S
N735 C737 1.375 . S
N735 C738 1.313 . S
C736 C737 1.338 . S
C736 N739 1.377 . S
C736 H756 0.930 . S
C737 N735 1.375 . S
C737 C736 1.338 . S
C737 H741 0.931 . S
C738 N735 1.313 . S
C738 N739 1.344 . S
C738 H742 0.930 . S
N739 C736 1.377 . S
N739 C738 1.344 . S
O740 Co732 2.055 . S
O740 C744 1.253 . S
H741 C737 0.931 . S
H742 C738 0.930 . S
O743 Co732 2.039 . S
O743 C733 1.265 . S
C744 O740 1.253 . S
C744 O745 1.227 . S
O745 C744 1.227 . S
N746 Co732 2.140 . S
N746 C749 1.346 . S
N746 C750 1.345 . S
C747 C748 1.387 . S
C747 C751 1.391 . S
C748 C747 1.387 . S
C748 C749 1.369 . S
C748 H757 0.929 . S
C749 N746 1.346 . S
C749 C748 1.369 . S
C749 H752 0.928 . S
C750 N746 1.345 . S
C750 C751 1.371 . S
C750 H753 0.931 . S
C751 C747 1.391 . S
C751 C750 1.371 . S
C751 H758 0.930 . S
H752 C749 0.928 . S
H753 C750 0.931 . S
H754 C730 0.930 . S
H755 C727 0.930 . S
H756 C736 0.930 . S
H757 C748 0.929 . S
H758 C751 0.930 . S
C759 C760 1.351 . S
C759 N762 1.368 . S
C759 H764 0.931 . S
C760 C759 1.351 . S
C760 N761 1.373 . S
C760 H788 0.930 . S
N761 C760 1.373 . S
N761 C763 1.340 . S
N762 C759 1.368 . S
N762 C763 1.321 . S
N762 Co765 2.135 . S
C763 N761 1.340 . S
C763 N762 1.321 . S
C763 H787 0.930 . S
H764 C759 0.931 . S
Co765 N762 2.135 . S
Co765 N768 2.121 . S
Co765 O773 2.055 . S
Co765 O776 2.039 . S
Co765 N779 2.140 . S
C766 O767 1.227 . S
C766 O776 1.265 . S
O767 C766 1.227 . S
N768 Co765 2.121 . S
N768 C770 1.375 . S
N768 C771 1.313 . S
C769 C770 1.338 . S
C769 N772 1.377 . S
C769 H789 0.930 . S
C770 N768 1.375 . S
C770 C769 1.338 . S
C770 H774 0.931 . S
C771 N768 1.313 . S
C771 N772 1.344 . S
C771 H775 0.930 . S
N772 C769 1.377 . S
N772 C771 1.344 . S
O773 Co765 2.055 . S
O773 C777 1.253 . S
H774 C770 0.931 . S
H775 C771 0.930 . S
O776 Co765 2.039 . S
O776 C766 1.265 . S
C777 O773 1.253 . S
C777 O778 1.227 . S
O778 C777 1.227 . S
N779 Co765 2.140 . S
N779 C782 1.346 . S
N779 C783 1.345 . S
C780 C781 1.387 . S
C780 C784 1.391 . S
C781 C780 1.387 . S
C781 C782 1.369 . S
C781 H790 0.929 . S
C782 N779 1.346 . S
C782 C781 1.369 . S
C782 H785 0.928 . S
C783 N779 1.345 . S
C783 C784 1.371 . S
C783 H786 0.931 . S
C784 C780 1.391 . S
C784 C783 1.371 . S
C784 H791 0.930 . S
H785 C782 0.928 . S
H786 C783 0.931 . S
H787 C763 0.930 . S
H788 C760 0.930 . S
H789 C769 0.930 . S
H790 C781 0.929 . S
H791 C784 0.930 . S
C792 C793 1.387 . S
C792 H796 0.950 . S
C792 C801 1.390 . S
C793 C792 1.387 . S
C793 C795 1.387 . S
H794 C801 0.950 . S
C795 C793 1.387 . S
C795 C797 1.390 . S
C795 H799 0.950 . S
H796 C792 0.950 . S
C797 C795 1.390 . S
C797 C798 1.387 . S
C797 H800 0.950 . S
C798 C797 1.387 . S
C798 C801 1.387 . S
H799 C795 0.950 . S
H800 C797 0.950 . S
C801 C792 1.390 . S
C801 H794 0.950 . S
C801 C798 1.387 . S
C802 C803 1.387 . S
C802 H806 0.950 . S
C802 C811 1.390 . S
C803 C802 1.387 . S
C803 C805 1.387 . S
H804 C811 0.950 . S
C805 C803 1.387 . S
C805 C807 1.390 . S
C805 H809 0.950 . S
H806 C802 0.950 . S
C807 C805 1.390 . S
C807 C808 1.387 . S
C807 H810 0.950 . S
C808 C807 1.387 . S
C808 C811 1.387 . S
H809 C805 0.950 . S
H810 C807 0.950 . S
C811 C802 1.390 . S
C811 H804 0.950 . S
C811 C808 1.387 . S
C812 C813 1.387 . S
C812 H816 0.950 . S
C812 C821 1.390 . S
C813 C812 1.387 . S
C813 C815 1.387 . S
H814 C821 0.950 . S
C815 C813 1.387 . S
C815 C817 1.390 . S
C815 H819 0.950 . S
H816 C812 0.950 . S
C817 C815 1.390 . S
C817 C818 1.387 . S
C817 H820 0.950 . S
C818 C817 1.387 . S
C818 C821 1.387 . S
H819 C815 0.950 . S
H820 C817 0.950 . S
C821 C812 1.390 . S
C821 H814 0.950 . S
C821 C818 1.387 . S
C822 C823 1.387 . S
C822 H826 0.950 . S
C822 C831 1.390 . S
C823 C822 1.387 . S
C823 C825 1.387 . S
H824 C831 0.974 . S
C825 C823 1.387 . S
C825 C827 1.390 . S
C825 H829 0.950 . S
H826 C822 0.950 . S
C827 C825 1.390 . S
C827 C828 1.387 . S
C827 H830 0.950 . S
C828 C827 1.387 . S
C828 C831 1.387 . S
H829 C825 0.950 . S
H830 C827 0.950 . S
C831 C822 1.390 . S
C831 H824 0.974 . S
C831 C828 1.387 . S
C832 C833 1.387 . S
C832 H836 0.950 . S
C832 C841 1.390 . S
C833 C832 1.387 . S
C833 C835 1.387 . S
H834 C841 0.950 . S
C835 C833 1.387 . S
C835 C837 1.390 . S
C835 H839 0.950 . S
H836 C832 0.950 . S
C837 C835 1.390 . S
C837 C838 1.387 . S
C837 H840 0.950 . S
C838 C837 1.387 . S
C838 C841 1.387 . S
H839 C835 0.950 . S
H840 C837 0.950 . S
C841 C832 1.390 . S
C841 H834 0.950 . S
C841 C838 1.387 . S
C842 C843 1.387 . S
C842 H846 0.950 . S
C842 C851 1.390 . S
C843 C842 1.387 . S
C843 C845 1.387 . S
H844 C851 0.950 . S
C845 C843 1.387 . S
C845 C847 1.390 . S
C845 H849 0.950 . S
H846 C842 0.950 . S
C847 C845 1.390 . S
C847 C848 1.387 . S
C847 H850 0.950 . S
C848 C847 1.387 . S
C848 C851 1.387 . S
H849 C845 0.950 . S
H850 C847 0.950 . S
C851 C842 1.390 . S
C851 H844 0.950 . S
C851 C848 1.387 . S
C852 C853 1.387 . S
C852 H856 0.950 . S
C852 C861 1.390 . S
C853 C852 1.387 . S
C853 C855 1.387 . S
H854 C861 0.950 . S
C855 C853 1.387 . S
C855 C857 1.390 . S
C855 H859 0.950 . S
H856 C852 0.950 . S
C857 C855 1.390 . S
C857 C858 1.387 . S
C857 H860 0.950 . S
C858 C857 1.387 . S
C858 C861 1.387 . S
H859 C855 0.950 . S
H860 C857 0.950 . S
C861 C852 1.390 . S
C861 H854 0.950 . S
C861 C858 1.387 . S
C862 C863 1.387 . S
C862 H866 0.950 . S
C862 C871 1.390 . S
C863 C862 1.387 . S
C863 C865 1.387 . S
H864 C871 0.950 . S
C865 C863 1.387 . S
C865 C867 1.390 . S
C865 H869 0.950 . S
H866 C862 0.950 . S
C867 C865 1.390 . S
C867 C868 1.387 . S
C867 H870 0.950 . S
C868 C867 1.387 . S
C868 C871 1.387 . S
H869 C865 0.950 . S
H870 C867 0.950 . S
C871 C862 1.390 . S
C871 H864 0.950 . S
C871 C868 1.387 . S
C872 C873 1.387 . S
C872 H876 0.950 . S
C872 C881 1.390 . S
C873 C872 1.387 . S
C873 C875 1.387 . S
H874 C881 0.950 . S
C875 C873 1.387 . S
C875 C877 1.390 . S
C875 H879 0.950 . S
H876 C872 0.950 . S
C877 C875 1.390 . S
C877 C878 1.387 . S
C877 H880 0.950 . S
C878 C877 1.387 . S
C878 C881 1.387 . S
H879 C875 0.950 . S
H880 C877 0.950 . S
C881 C872 1.390 . S
C881 H874 0.950 . S
C881 C878 1.387 . S
C882 C883 1.387 . S
C882 H886 0.950 . S
C882 C891 1.390 . S
C883 C882 1.387 . S
C883 C885 1.387 . S
H884 C891 0.950 . S
C885 C883 1.387 . S
C885 C887 1.390 . S
C885 H889 0.950 . S
H886 C882 0.950 . S
C887 C885 1.390 . S
C887 C888 1.387 . S
C887 H890 0.950 . S
C888 C887 1.387 . S
C888 C891 1.387 . S
H889 C885 0.950 . S
H890 C887 0.950 . S
C891 C882 1.390 . S
C891 H884 0.950 . S
C891 C888 1.387 . S
C892 C893 1.387 . S
C892 H896 0.950 . S
C892 C901 1.390 . S
C893 C892 1.387 . S
C893 C895 1.387 . S
H894 C901 0.950 . S
C895 C893 1.387 . S
C895 C897 1.390 . S
C895 H899 0.950 . S
H896 C892 0.950 . S
C897 C895 1.390 . S
C897 C898 1.387 . S
C897 H900 0.950 . S
C898 C897 1.387 . S
C898 C901 1.387 . S
H899 C895 0.950 . S
H900 C897 0.950 . S
C901 C892 1.390 . S
C901 H894 0.950 . S
C901 C898 1.387 . S
C902 C903 1.387 . S
C902 H906 0.950 . S
C902 C911 1.390 . S
C903 C902 1.387 . S
C903 C905 1.387 . S
H904 C911 0.950 . S
C905 C903 1.387 . S
C905 C907 1.390 . S
C905 H909 0.950 . S
H906 C902 0.950 . S
C907 C905 1.390 . S
C907 C908 1.387 . S
C907 H910 0.950 . S
C908 C907 1.387 . S
C908 C911 1.387 . S
H909 C905 0.950 . S
H910 C907 0.950 . S
C911 C902 1.390 . S
C911 H904 0.950 . S
C911 C908 1.387 . S
C912 C913 1.387 . S
C912 H916 0.950 . S
C912 C921 1.390 . S
C913 C912 1.387 . S
C913 C915 1.387 . S
H914 C921 0.950 . S
C915 C913 1.387 . S
C915 C917 1.390 . S
C915 H919 0.950 . S
H916 C912 0.950 . S
C917 C915 1.390 . S
C917 C918 1.387 . S
C917 H920 0.950 . S
C918 C917 1.387 . S
C918 C921 1.387 . S
H919 C915 0.950 . S
H920 C917 0.950 . S
C921 C912 1.390 . S
C921 H914 0.950 . S
C921 C918 1.387 . S
C922 C923 1.387 . S
C922 H926 0.950 . S
C922 C931 1.390 . S
C923 C922 1.387 . S
C923 C925 1.387 . S
H924 C931 0.950 . S
C925 C923 1.387 . S
C925 C927 1.390 . S
C925 H929 0.950 . S
H926 C922 0.950 . S
C927 C925 1.390 . S
C927 C928 1.387 . S
C927 H930 0.950 . S
C928 C927 1.387 . S
C928 C931 1.387 . S
H929 C925 0.950 . S
H930 C927 0.950 . S
C931 C922 1.390 . S
C931 H924 0.950 . S
C931 C928 1.387 . S
C932 C933 1.387 . S
C932 H936 0.950 . S
C932 C941 1.390 . S
C933 C932 1.387 . S
C933 C935 1.387 . S
H934 C941 0.950 . S
C935 C933 1.387 . S
C935 C937 1.390 . S
C935 H939 0.950 . S
H936 C932 0.950 . S
C937 C935 1.390 . S
C937 C938 1.387 . S
C937 H940 0.950 . S
C938 C937 1.387 . S
C938 C941 1.387 . S
H939 C935 0.950 . S
H940 C937 0.950 . S
C941 C932 1.390 . S
C941 H934 0.950 . S
C941 C938 1.387 . S
C942 C943 1.387 . S
C942 H946 0.950 . S
C942 C951 1.390 . S
C943 C942 1.387 . S
C943 C945 1.387 . S
H944 C951 0.950 . S
C945 C943 1.387 . S
C945 C947 1.390 . S
C945 H949 0.950 . S
H946 C942 0.950 . S
C947 C945 1.390 . S
C947 C948 1.387 . S
C947 H950 0.950 . S
C948 C947 1.387 . S
C948 C951 1.387 . S
H949 C945 0.950 . S
H950 C947 0.950 . S
C951 C942 1.390 . S
C951 H944 0.950 . S
C951 C948 1.387 . S
C952 C953 1.387 . S
C952 H956 0.950 . S
C952 C961 1.390 . S
C953 C952 1.387 . S
C953 C955 1.387 . S
H954 C961 0.950 . S
C955 C953 1.387 . S
C955 C957 1.390 . S
C955 H959 0.950 . S
H956 C952 0.950 . S
C957 C955 1.390 . S
C957 C958 1.387 . S
C957 H960 0.950 . S
C958 C957 1.387 . S
C958 C961 1.387 . S
H959 C955 0.950 . S
H960 C957 0.950 . S
C961 C952 1.390 . S
C961 H954 0.950 . S
C961 C958 1.387 . S
C962 C963 1.387 . S
C962 H966 0.950 . S
C962 C971 1.390 . S
C963 C962 1.387 . S
C963 C965 1.387 . S
H964 C971 0.950 . S
C965 C963 1.387 . S
C965 C967 1.390 . S
C965 H969 0.950 . S
H966 C962 0.950 . S
C967 C965 1.390 . S
C967 C968 1.387 . S
C967 H970 0.950 . S
C968 C967 1.387 . S
C968 C971 1.387 . S
H969 C965 0.950 . S
H970 C967 0.950 . S
C971 C962 1.390 . S
C971 H964 0.950 . S
C971 C968 1.387 . S
C972 C973 1.387 . S
C972 H976 0.950 . S
C972 C981 1.390 . S
C973 C972 1.387 . S
C973 C975 1.387 . S
H974 C981 0.950 . S
C975 C973 1.387 . S
C975 C977 1.390 . S
C975 H979 0.950 . S
H976 C972 0.950 . S
C977 C975 1.390 . S
C977 C978 1.387 . S
C977 H980 0.950 . S
C978 C977 1.387 . S
C978 C981 1.387 . S
H979 C975 0.950 . S
H980 C977 0.950 . S
C981 C972 1.390 . S
C981 H974 0.950 . S
C981 C978 1.387 . S
C982 C983 1.387 . S
C982 H986 0.950 . S
C982 C991 1.390 . S
C983 C982 1.387 . S
C983 C985 1.387 . S
H984 C991 0.950 . S
C985 C983 1.387 . S
C985 C987 1.390 . S
C985 H989 0.950 . S
H986 C982 0.950 . S
C987 C985 1.390 . S
C987 C988 1.387 . S
C987 H990 0.950 . S
C988 C987 1.387 . S
C988 C991 1.387 . S
H989 C985 0.950 . S
H990 C987 0.950 . S
C991 C982 1.390 . S
C991 H984 0.950 . S
C991 C988 1.387 . S
C992 C993 1.387 . S
C992 H996 0.950 . S
C992 C1001 1.390 . S
C993 C992 1.387 . S
C993 C995 1.387 . S
H994 C1001 0.950 . S
C995 C993 1.387 . S
C995 C997 1.390 . S
C995 H999 0.976 . S
H996 C992 0.950 . S
C997 C995 1.390 . S
C997 C998 1.387 . S
C997 H1000 0.950 . S
C998 C997 1.387 . S
C998 C1001 1.387 . S
H999 C995 0.976 . S
H1000 C997 0.950 . S
C1001 C992 1.390 . S
C1001 H994 0.950 . S
C1001 C998 1.387 . S
C1002 C1003 1.387 . S
C1002 H1006 0.950 . S
C1002 C1011 1.390 . S
C1003 C1002 1.387 . S
C1003 C1005 1.387 . S
H1004 C1011 0.950 . S
C1005 C1003 1.387 . S
C1005 C1007 1.390 . S
C1005 H1009 0.950 . S
H1006 C1002 0.950 . S
C1007 C1005 1.390 . S
C1007 C1008 1.387 . S
C1007 H1010 0.950 . S
C1008 C1007 1.387 . S
C1008 C1011 1.387 . S
H1009 C1005 0.950 . S
H1010 C1007 0.950 . S
C1011 C1002 1.390 . S
C1011 H1004 0.950 . S
C1011 C1008 1.387 . S
C1012 C1013 1.387 . S
C1012 H1016 0.950 . S
C1012 C1021 1.390 . S
C1013 C1012 1.387 . S
C1013 C1015 1.387 . S
H1014 C1021 0.950 . S
C1015 C1013 1.387 . S
C1015 C1017 1.390 . S
C1015 H1019 0.950 . S
H1016 C1012 0.950 . S
C1017 C1015 1.390 . S
C1017 C1018 1.387 . S
C1017 H1020 0.950 . S
C1018 C1017 1.387 . S
C1018 C1021 1.387 . S
H1019 C1015 0.950 . S
H1020 C1017 0.950 . S
C1021 C1012 1.390 . S
C1021 H1014 0.950 . S
C1021 C1018 1.387 . S
C1022 C1023 1.387 . S
C1022 H1026 0.950 . S
C1022 C1031 1.390 . S
C1023 C1022 1.387 . S
C1023 C1025 1.387 . S
H1024 C1031 0.950 . S
C1025 C1023 1.387 . S
C1025 C1027 1.390 . S
C1025 H1029 0.950 . S
H1026 C1022 0.950 . S
C1027 C1025 1.390 . S
C1027 C1028 1.387 . S
C1027 H1030 0.950 . S
C1028 C1027 1.387 . S
C1028 C1031 1.387 . S
H1029 C1025 0.950 . S
H1030 C1027 0.950 . S
C1031 C1022 1.390 . S
C1031 H1024 0.950 . S
C1031 C1028 1.387 . S
C1032 C1033 1.387 . S
C1032 H1036 0.950 . S
C1032 C1041 1.390 1_656 S
C1033 C1032 1.387 . S
C1033 C1035 1.387 . S
H1034 C1041 0.950 . S
C1035 C1033 1.387 . S
C1035 C1037 1.390 1_656 S
C1035 H1039 0.950 . S
H1036 C1032 0.950 . S
C1037 C1035 1.390 1_454 S
C1037 C1038 1.387 . S
C1037 H1040 0.950 . S
C1038 C1037 1.387 . S
C1038 C1041 1.387 . S
H1039 C1035 0.950 . S
H1040 C1037 0.950 . S
C1041 C1032 1.390 1_454 S
C1041 H1034 0.950 . S
C1041 C1038 1.387 . S
C1042 C1043 1.387 . S
C1042 H1046 0.950 . S
C1042 C1051 1.390 . S
C1043 C1042 1.387 . S
C1043 C1045 1.387 . S
H1044 C1051 0.950 . S
C1045 C1043 1.387 . S
C1045 C1047 1.390 . S
C1045 H1049 0.950 . S
H1046 C1042 0.950 . S
C1047 C1045 1.390 . S
C1047 C1048 1.387 . S
C1047 H1050 0.950 . S
C1048 C1047 1.387 . S
C1048 C1051 1.387 . S
H1049 C1045 0.950 . S
H1050 C1047 0.950 . S
C1051 C1042 1.390 . S
C1051 H1044 0.950 . S
C1051 C1048 1.387 . S
C1052 C1053 1.387 . S
C1052 H1056 0.950 . S
C1052 C1061 1.390 1_456 S
C1053 C1052 1.387 . S
C1053 C1055 1.387 . S
H1054 C1061 0.950 . S
C1055 C1053 1.387 . S
C1055 C1057 1.390 1_456 S
C1055 H1059 0.950 . S
H1056 C1052 0.950 . S
C1057 C1055 1.390 1_654 S
C1057 C1058 1.387 . S
C1057 H1060 0.950 . S
C1058 C1057 1.387 . S
C1058 C1061 1.387 . S
H1059 C1055 0.950 . S
H1060 C1057 0.950 . S
C1061 C1052 1.390 1_654 S
C1061 H1054 0.950 . S
C1061 C1058 1.387 . S
C1062 C1063 1.387 . S
C1062 H1066 0.950 . S
C1062 C1071 1.390 . S
C1063 C1062 1.387 . S
C1063 C1065 1.387 . S
H1064 C1071 0.950 . S
C1065 C1063 1.387 . S
C1065 C1067 1.390 . S
C1065 H1069 0.950 . S
H1066 C1062 0.950 . S
C1067 C1065 1.390 . S
C1067 C1068 1.387 . S
C1067 H1070 0.950 . S
C1068 C1067 1.387 . S
C1068 C1071 1.387 . S
H1069 C1065 0.950 . S
H1070 C1067 0.950 . S
C1071 C1062 1.390 . S
C1071 H1064 0.950 . S
C1071 C1068 1.387 . S
C1072 C1073 1.387 . S
C1072 H1076 0.950 . S
C1072 C1081 1.390 1_665 S
C1073 C1072 1.387 . S
C1073 C1075 1.387 . S
H1074 C1081 0.950 . S
C1075 C1073 1.387 . S
C1075 C1077 1.390 1_665 S
C1075 H1079 0.950 . S
H1076 C1072 0.950 . S
C1077 C1075 1.390 1_445 S
C1077 C1078 1.387 . S
C1077 H1080 0.950 . S
C1078 C1077 1.387 . S
C1078 C1081 1.387 . S
H1079 C1075 0.950 . S
H1080 C1077 0.950 . S
C1081 C1072 1.390 1_445 S
C1081 H1074 0.950 . S
C1081 C1078 1.387 . S
C1082 C1083 1.387 . S
C1082 H1086 0.950 . S
C1082 C1091 1.390 . S
C1083 C1082 1.387 . S
C1083 C1085 1.387 . S
H1084 C1091 0.950 . S
C1085 C1083 1.387 . S
C1085 C1087 1.390 . S
C1085 H1089 0.950 . S
H1086 C1082 0.950 . S
C1087 C1085 1.390 . S
C1087 C1088 1.387 . S
C1087 H1090 0.950 . S
C1088 C1087 1.387 . S
C1088 C1091 1.387 . S
H1089 C1085 0.950 . S
H1090 C1087 0.950 . S
C1091 C1082 1.390 . S
C1091 H1084 0.950 . S
C1091 C1088 1.387 . S
C1092 C1093 1.387 . S
C1092 H1096 0.950 . S
C1092 C1101 1.390 1_465 S
C1093 C1092 1.387 . S
C1093 C1095 1.387 . S
H1094 C1101 0.950 . S
C1095 C1093 1.387 . S
C1095 C1097 1.390 1_465 S
C1095 H1099 0.950 . S
H1096 C1092 0.950 . S
C1097 C1095 1.390 1_645 S
C1097 C1098 1.387 . S
C1097 H1100 0.950 . S
C1098 C1097 1.387 . S
C1098 C1101 1.387 . S
H1099 C1095 0.950 . S
H1100 C1097 0.950 . S
C1101 C1092 1.390 1_645 S
C1101 H1094 0.950 . S
C1101 C1098 1.387 . S
C1102 C1103 1.387 . S
C1102 H1106 0.950 . S
C1102 C1111 1.390 . S
C1103 C1102 1.387 . S
C1103 C1105 1.387 . S
H1104 C1111 0.950 . S
C1105 C1103 1.387 . S
C1105 C1107 1.390 . S
C1105 H1109 0.950 . S
H1106 C1102 0.950 . S
C1107 C1105 1.390 . S
C1107 C1108 1.387 . S
C1107 H1110 0.950 . S
C1108 C1107 1.387 . S
C1108 C1111 1.387 . S
H1109 C1105 0.950 . S
H1110 C1107 0.950 . S
C1111 C1102 1.390 . S
C1111 H1104 0.950 . S
C1111 C1108 1.387 . S
C1112 C1113 1.387 . S
C1112 H1116 0.950 . S
C1112 C1121 1.390 1_544 S
C1113 C1112 1.387 . S
C1113 C1115 1.387 . S
H1114 C1121 0.950 . S
C1115 C1113 1.387 . S
C1115 C1117 1.390 1_544 S
C1115 H1119 0.950 . S
H1116 C1112 0.950 . S
C1117 C1115 1.390 1_566 S
C1117 C1118 1.387 . S
C1117 H1120 0.950 . S
C1118 C1117 1.387 . S
C1118 C1121 1.387 . S
H1119 C1115 0.950 . S
H1120 C1117 0.950 . S
C1121 C1112 1.390 1_566 S
C1121 H1114 0.950 . S
C1121 C1118 1.387 . S
C1122 C1123 1.387 . S
C1122 H1126 0.950 . S
C1122 C1131 1.390 . S
C1123 C1122 1.387 . S
C1123 C1125 1.387 . S
H1124 C1131 0.950 . S
C1125 C1123 1.387 . S
C1125 C1127 1.390 . S
C1125 H1129 0.950 . S
H1126 C1122 0.950 . S
C1127 C1125 1.390 . S
C1127 C1128 1.387 . S
C1127 H1130 0.950 . S
C1128 C1127 1.387 . S
C1128 C1131 1.387 . S
H1129 C1125 0.950 . S
H1130 C1127 0.950 . S
C1131 C1122 1.390 . S
C1131 H1124 0.950 . S
C1131 C1128 1.387 . S
C1132 C1133 1.387 . S
C1132 H1136 0.950 . S
C1132 C1141 1.390 1_546 S
C1133 C1132 1.387 . S
C1133 C1135 1.387 . S
H1134 C1141 0.950 . S
C1135 C1133 1.387 . S
C1135 C1137 1.390 1_546 S
C1135 H1139 0.950 . S
H1136 C1132 0.950 . S
C1137 C1135 1.390 1_564 S
C1137 C1138 1.387 . S
C1137 H1140 0.950 . S
C1138 C1137 1.387 . S
C1138 C1141 1.387 . S
H1139 C1135 0.950 . S
H1140 C1137 0.950 . S
C1141 C1132 1.390 1_564 S
C1141 H1134 0.950 . S
C1141 C1138 1.387 . S
C1142 C1143 1.387 . S
C1142 H1146 0.950 . S
C1142 C1151 1.390 . S
C1143 C1142 1.387 . S
C1143 C1145 1.387 . S
H1144 C1151 0.950 . S
C1145 C1143 1.387 . S
C1145 C1147 1.390 . S
C1145 H1149 0.950 . S
H1146 C1142 0.950 . S
C1147 C1145 1.390 . S
C1147 C1148 1.387 . S
C1147 H1150 0.950 . S
C1148 C1147 1.387 . S
C1148 C1151 1.387 . S
H1149 C1145 0.950 . S
H1150 C1147 0.950 . S
C1151 C1142 1.390 . S
C1151 H1144 0.950 . S
C1151 C1148 1.387 . S
C1152 C1153 1.387 . S
C1152 H1156 0.950 . S
C1152 C1161 1.390 . S
C1153 C1152 1.387 . S
C1153 C1155 1.387 . S
H1154 C1161 0.950 . S
C1155 C1153 1.387 . S
C1155 C1157 1.390 . S
C1155 H1159 0.950 . S
H1156 C1152 0.950 . S
C1157 C1155 1.390 . S
C1157 C1158 1.387 . S
C1157 H1160 0.950 . S
C1158 C1157 1.387 . S
C1158 C1161 1.387 . S
H1159 C1155 0.950 . S
H1160 C1157 0.950 . S
C1161 C1152 1.390 . S
C1161 H1154 0.950 . S
C1161 C1158 1.387 . S
C1162 C1163 1.387 . S
C1162 H1166 0.950 . S
C1162 C1171 1.390 . S
C1163 C1162 1.387 . S
C1163 C1165 1.387 . S
H1164 C1171 0.950 . S
C1165 C1163 1.387 . S
C1165 C1167 1.390 . S
C1165 H1169 0.950 . S
H1166 C1162 0.950 . S
C1167 C1165 1.390 . S
C1167 C1168 1.387 . S
C1167 H1170 0.950 . S
C1168 C1167 1.387 . S
C1168 C1171 1.387 . S
H1169 C1165 0.950 . S
H1170 C1167 0.950 . S
C1171 C1162 1.390 . S
C1171 H1164 0.950 . S
C1171 C1168 1.387 . S
C1172 C1173 1.387 . S
C1172 H1176 0.950 . S
C1172 C1181 1.390 . S
C1173 C1172 1.387 . S
C1173 C1175 1.387 . S
H1174 C1181 0.950 . S
C1175 C1173 1.387 . S
C1175 C1177 1.390 . S
C1175 H1179 0.950 . S
H1176 C1172 0.950 . S
C1177 C1175 1.390 . S
C1177 C1178 1.387 . S
C1177 H1180 0.950 . S
C1178 C1177 1.387 . S
C1178 C1181 1.387 . S
H1179 C1175 0.950 . S
H1180 C1177 0.950 . S
C1181 C1172 1.390 . S
C1181 H1174 0.950 . S
C1181 C1178 1.387 . S
C1182 C1183 1.387 . S
C1182 H1186 0.950 . S
C1182 C1191 1.390 . S
C1183 C1182 1.387 . S
C1183 C1185 1.387 . S
H1184 C1191 0.950 . S
C1185 C1183 1.387 . S
C1185 C1187 1.390 . S
C1185 H1189 0.950 . S
H1186 C1182 0.950 . S
C1187 C1185 1.390 . S
C1187 C1188 1.387 . S
C1187 H1190 0.950 . S
C1188 C1187 1.387 . S
C1188 C1191 1.387 . S
H1189 C1185 0.950 . S
H1190 C1187 0.950 . S
C1191 C1182 1.390 . S
C1191 H1184 0.950 . S
C1191 C1188 1.387 . S
C1192 C1193 1.387 . S
C1192 H1196 0.950 . S
C1192 C1201 1.390 . S
C1193 C1192 1.387 . S
C1193 C1195 1.387 . S
H1194 C1201 0.950 . S
C1195 C1193 1.387 . S
C1195 C1197 1.390 . S
C1195 H1199 0.950 . S
H1196 C1192 0.950 . S
C1197 C1195 1.390 . S
C1197 C1198 1.387 . S
C1197 H1200 0.950 . S
C1198 C1197 1.387 . S
C1198 C1201 1.387 . S
H1199 C1195 0.950 . S
H1200 C1197 0.950 . S
C1201 C1192 1.390 . S
C1201 H1194 0.950 . S
C1201 C1198 1.387 . S
C1202 C1203 1.387 . S
C1202 H1206 0.950 . S
C1202 C1211 1.390 . S
C1203 C1202 1.387 . S
C1203 C1205 1.387 . S
H1204 C1211 0.950 . S
C1205 C1203 1.387 . S
C1205 C1207 1.390 . S
C1205 H1209 0.950 . S
H1206 C1202 0.950 . S
C1207 C1205 1.390 . S
C1207 C1208 1.387 . S
C1207 H1210 0.950 . S
C1208 C1207 1.387 . S
C1208 C1211 1.387 . S
H1209 C1205 0.950 . S
H1210 C1207 0.950 . S
C1211 C1202 1.390 . S
C1211 H1204 0.950 . S
C1211 C1208 1.387 . S
C1212 C1213 1.387 . S
C1212 H1216 0.950 . S
C1212 C1221 1.390 . S
C1213 C1212 1.387 . S
C1213 C1215 1.387 . S
H1214 C1221 0.950 . S
C1215 C1213 1.387 . S
C1215 C1217 1.390 . S
C1215 H1219 0.950 . S
H1216 C1212 0.950 . S
C1217 C1215 1.390 . S
C1217 C1218 1.387 . S
C1217 H1220 0.950 . S
C1218 C1217 1.387 . S
C1218 C1221 1.387 . S
H1219 C1215 0.950 . S
H1220 C1217 0.950 . S
C1221 C1212 1.390 . S
C1221 H1214 0.950 . S
C1221 C1218 1.387 . S
C1222 C1223 1.387 . S
C1222 H1226 0.950 . S
C1222 C1231 1.390 . S
C1223 C1222 1.387 . S
C1223 C1225 1.387 . S
H1224 C1231 0.950 . S
C1225 C1223 1.387 . S
C1225 C1227 1.390 . S
C1225 H1229 0.950 . S
H1226 C1222 0.950 . S
C1227 C1225 1.390 . S
C1227 C1228 1.387 . S
C1227 H1230 0.950 . S
C1228 C1227 1.387 . S
C1228 C1231 1.387 . S
H1229 C1225 0.950 . S
H1230 C1227 0.950 . S
C1231 C1222 1.390 . S
C1231 H1224 0.950 . S
C1231 C1228 1.387 . S
C1232 C1233 1.387 . S
C1232 H1236 0.950 . S
C1232 C1241 1.390 . S
C1233 C1232 1.387 . S
C1233 C1235 1.387 . S
H1234 C1241 0.950 . S
C1235 C1233 1.387 . S
C1235 C1237 1.390 . S
C1235 H1239 0.950 . S
H1236 C1232 0.950 . S
C1237 C1235 1.390 . S
C1237 C1238 1.387 . S
C1237 H1240 0.950 . S
C1238 C1237 1.387 . S
C1238 C1241 1.387 . S
H1239 C1235 0.950 . S
H1240 C1237 0.950 . S
C1241 C1232 1.390 . S
C1241 H1234 0.950 . S
C1241 C1238 1.387 . S
C1242 C1243 1.387 . S
C1242 H1246 0.950 . S
C1242 C1251 1.390 . S
C1243 C1242 1.387 . S
C1243 C1245 1.387 . S
H1244 C1251 0.950 . S
C1245 C1243 1.387 . S
C1245 C1247 1.390 . S
C1245 H1249 0.950 . S
H1246 C1242 0.950 . S
C1247 C1245 1.390 . S
C1247 C1248 1.387 . S
C1247 H1250 0.950 . S
C1248 C1247 1.387 . S
C1248 C1251 1.387 . S
H1249 C1245 0.950 . S
H1250 C1247 0.950 . S
C1251 C1242 1.390 . S
C1251 H1244 0.950 . S
C1251 C1248 1.387 . S
C1252 C1253 1.387 . S
C1252 H1256 0.950 . S
C1252 C1261 1.390 . S
C1253 C1252 1.387 . S
C1253 C1255 1.387 . S
H1254 C1261 0.950 . S
C1255 C1253 1.387 . S
C1255 C1257 1.390 . S
C1255 H1259 0.950 . S
H1256 C1252 0.950 . S
C1257 C1255 1.390 . S
C1257 C1258 1.387 . S
C1257 H1260 0.950 . S
C1258 C1257 1.387 . S
C1258 C1261 1.387 . S
H1259 C1255 0.950 . S
H1260 C1257 0.950 . S
C1261 C1252 1.390 . S
C1261 H1254 0.950 . S
C1261 C1258 1.387 . S
C1262 C1263 1.387 . S
C1262 H1266 0.950 . S
C1262 C1271 1.390 . S
C1263 C1262 1.387 . S
C1263 C1265 1.387 . S
H1264 C1271 0.950 . S
C1265 C1263 1.387 . S
C1265 C1267 1.390 . S
C1265 H1269 0.950 . S
H1266 C1262 0.950 . S
C1267 C1265 1.390 . S
C1267 C1268 1.387 . S
C1267 H1270 0.950 . S
C1268 C1267 1.387 . S
C1268 C1271 1.387 . S
H1269 C1265 0.950 . S
H1270 C1267 0.950 . S
C1271 C1262 1.390 . S
C1271 H1264 0.950 . S
C1271 C1268 1.387 . S
C1272 C1273 1.387 . S
C1272 H1276 0.950 . S
C1272 C1281 1.390 . S
C1273 C1272 1.387 . S
C1273 C1275 1.387 . S
H1274 C1281 0.950 . S
C1275 C1273 1.387 . S
C1275 C1277 1.390 . S
C1275 H1279 0.950 . S
H1276 C1272 0.950 . S
C1277 C1275 1.390 . S
C1277 C1278 1.387 . S
C1277 H1280 0.950 . S
C1278 C1277 1.387 . S
C1278 C1281 1.387 . S
H1279 C1275 0.950 . S
H1280 C1277 0.950 . S
C1281 C1272 1.390 . S
C1281 H1274 0.950 . S
C1281 C1278 1.387 . S
C1282 C1283 1.387 . S
C1282 H1286 0.950 . S
C1282 C1291 1.390 . S
C1283 C1282 1.387 . S
C1283 C1285 1.387 . S
H1284 C1291 0.950 . S
C1285 C1283 1.387 . S
C1285 C1287 1.390 . S
C1285 H1289 0.950 . S
H1286 C1282 0.950 . S
C1287 C1285 1.390 . S
C1287 C1288 1.387 . S
C1287 H1290 0.950 . S
C1288 C1287 1.387 . S
C1288 C1291 1.387 . S
H1289 C1285 0.950 . S
H1290 C1287 0.950 . S
C1291 C1282 1.390 . S
C1291 H1284 0.950 . S
C1291 C1288 1.387 . S
C1292 C1293 1.387 . S
C1292 H1296 0.950 . S
C1292 C1301 1.390 . S
C1293 C1292 1.387 . S
C1293 C1295 1.387 . S
H1294 C1301 0.950 . S
C1295 C1293 1.387 . S
C1295 C1297 1.390 . S
C1295 H1299 0.950 . S
H1296 C1292 0.950 . S
C1297 C1295 1.390 . S
C1297 C1298 1.387 . S
C1297 H1300 0.950 . S
C1298 C1297 1.387 . S
C1298 C1301 1.387 . S
H1299 C1295 0.950 . S
H1300 C1297 0.950 . S
C1301 C1292 1.390 . S
C1301 H1294 0.950 . S
C1301 C1298 1.387 . S
C1302 C1303 1.387 . S
C1302 H1306 0.950 . S
C1302 C1311 1.390 . S
C1303 C1302 1.387 . S
C1303 C1305 1.387 . S
H1304 C1311 0.950 . S
C1305 C1303 1.387 . S
C1305 C1307 1.390 . S
C1305 H1309 0.950 . S
H1306 C1302 0.950 . S
C1307 C1305 1.390 . S
C1307 C1308 1.387 . S
C1307 H1310 0.950 . S
C1308 C1307 1.387 . S
C1308 C1311 1.387 . S
H1309 C1305 0.950 . S
H1310 C1307 0.950 . S
C1311 C1302 1.390 . S
C1311 H1304 0.950 . S
C1311 C1308 1.387 . S
C1312 C1313 1.387 . S
C1312 H1316 0.950 . S
C1312 C1321 1.390 . S
C1313 C1312 1.387 . S
C1313 C1315 1.387 . S
H1314 C1321 0.950 . S
C1315 C1313 1.387 . S
C1315 C1317 1.390 . S
C1315 H1319 0.950 . S
H1316 C1312 0.950 . S
C1317 C1315 1.390 . S
C1317 C1318 1.387 . S
C1317 H1320 0.950 . S
C1318 C1317 1.387 . S
C1318 C1321 1.387 . S
H1319 C1315 0.950 . S
H1320 C1317 0.950 . S
C1321 C1312 1.390 . S
C1321 H1314 0.950 . S
C1321 C1318 1.387 . S
C1322 C1323 1.387 . S
C1322 H1326 0.950 . S
C1322 C1331 1.390 . S
C1323 C1322 1.387 . S
C1323 C1325 1.387 . S
H1324 C1331 0.950 . S
C1325 C1323 1.387 . S
C1325 C1327 1.390 . S
C1325 H1329 0.950 . S
H1326 C1322 0.950 . S
C1327 C1325 1.390 . S
C1327 C1328 1.387 . S
C1327 H1330 0.950 . S
C1328 C1327 1.387 . S
C1328 C1331 1.387 . S
H1329 C1325 0.950 . S
H1330 C1327 0.950 . S
C1331 C1322 1.390 . S
C1331 H1324 0.950 . S
C1331 C1328 1.387 . S
C1332 C1333 1.387 . S
C1332 H1336 0.950 . S
C1332 C1341 1.390 . S
C1333 C1332 1.387 . S
C1333 C1335 1.387 . S
H1334 C1341 0.950 . S
C1335 C1333 1.387 . S
C1335 C1337 1.390 . S
C1335 H1339 0.950 . S
H1336 C1332 0.950 . S
C1337 C1335 1.390 . S
C1337 C1338 1.387 . S
C1337 H1340 0.950 . S
C1338 C1337 1.387 . S
C1338 C1341 1.387 . S
H1339 C1335 0.950 . S
H1340 C1337 0.950 . S
C1341 C1332 1.390 . S
C1341 H1334 0.950 . S
C1341 C1338 1.387 . S
C1342 C1343 1.387 . S
C1342 H1346 0.950 . S
C1342 C1351 1.390 . S
C1343 C1342 1.387 . S
C1343 C1345 1.387 . S
H1344 C1351 0.950 . S
C1345 C1343 1.387 . S
C1345 C1347 1.390 . S
C1345 H1349 0.950 . S
H1346 C1342 0.950 . S
C1347 C1345 1.390 . S
C1347 C1348 1.387 . S
C1347 H1350 0.950 . S
C1348 C1347 1.387 . S
C1348 C1351 1.387 . S
H1349 C1345 0.950 . S
H1350 C1347 0.950 . S
C1351 C1342 1.390 . S
C1351 H1344 0.950 . S
C1351 C1348 1.387 . S
C1352 C1353 1.387 . S
C1352 H1356 0.950 . S
C1352 C1361 1.390 . S
C1353 C1352 1.387 . S
C1353 C1355 1.387 . S
H1354 C1361 0.950 . S
C1355 C1353 1.387 . S
C1355 C1357 1.390 . S
C1355 H1359 0.950 . S
H1356 C1352 0.950 . S
C1357 C1355 1.390 . S
C1357 C1358 1.387 . S
C1357 H1360 0.950 . S
C1358 C1357 1.387 . S
C1358 C1361 1.387 . S
H1359 C1355 0.950 . S
H1360 C1357 0.950 . S
C1361 C1352 1.390 . S
C1361 H1354 0.950 . S
C1361 C1358 1.387 . S
C1362 C1363 1.387 . S
C1362 H1366 0.950 . S
C1362 C1371 1.390 . S
C1363 C1362 1.387 . S
C1363 C1365 1.387 . S
H1364 C1371 0.950 . S
C1365 C1363 1.387 . S
C1365 C1367 1.390 . S
C1365 H1369 0.950 . S
H1366 C1362 0.950 . S
C1367 C1365 1.390 . S
C1367 C1368 1.387 . S
C1367 H1370 0.950 . S
C1368 C1367 1.387 . S
C1368 C1371 1.387 . S
H1369 C1365 0.950 . S
H1370 C1367 0.950 . S
C1371 C1362 1.390 . S
C1371 H1364 0.950 . S
C1371 C1368 1.387 . S
C1372 C1373 1.387 . S
C1372 H1376 0.950 . S
C1372 C1381 1.390 . S
C1373 C1372 1.387 . S
C1373 C1375 1.387 . S
H1374 C1381 0.950 . S
C1375 C1373 1.387 . S
C1375 C1377 1.390 . S
C1375 H1379 0.950 . S
H1376 C1372 0.950 . S
C1377 C1375 1.390 . S
C1377 C1378 1.387 . S
C1377 H1380 0.950 . S
C1378 C1377 1.387 . S
C1378 C1381 1.387 . S
H1379 C1375 0.950 . S
H1380 C1377 0.950 . S
C1381 C1372 1.390 . S
C1381 H1374 0.950 . S
C1381 C1378 1.387 . S
C1382 C1383 1.387 . S
C1382 H1386 0.950 . S
C1382 C1391 1.390 . S
C1383 C1382 1.387 . S
C1383 C1385 1.387 . S
H1384 C1391 0.950 . S
C1385 C1383 1.387 . S
C1385 C1387 1.390 . S
C1385 H1389 0.950 . S
H1386 C1382 0.950 . S
C1387 C1385 1.390 . S
C1387 C1388 1.387 . S
C1387 H1390 0.950 . S
C1388 C1387 1.387 . S
C1388 C1391 1.387 . S
H1389 C1385 0.950 . S
H1390 C1387 0.950 . S
C1391 C1382 1.390 . S
C1391 H1384 0.950 . S
C1391 C1388 1.387 . S
C793 N101 1.339 . S
C798 C7 1.371 . S
C803 N2 1.339 . S
C808 C40 1.371 . S
C813 N35 1.340 . S
C818 C73 1.372 . S
C823 C106 1.370 . S
C828 N68 1.337 . S
C833 N167 1.340 . S
C838 C139 1.372 . S
C843 N200 1.340 . S
C848 C172 1.372 . S
C853 C205 1.371 . S
C858 N233 1.338 . S
C863 N134 1.339 . S
C868 C238 1.372 . S
C873 C271 1.372 . S
C878 N596 1.341 . S
C883 C304 1.372 . S
C888 N629 1.340 . S
C893 N662 1.340 . S
C898 C337 1.372 . S
C903 N563 1.337 . S
C908 C370 1.370 . S
C913 N728 1.340 . S
C918 C403 1.372 . S
C923 C436 1.372 . S
C928 N530 1.340 . S
C933 C469 1.370 . S
C938 N761 1.338 . S
C943 N695 1.339 . S
C948 C502 1.371 . S
C953 N299 1.337 . S
C958 C535 1.370 . S
C963 C568 1.371 . S
C968 N497 1.339 . S
C973 N398 1.339 . S
C978 C601 1.372 . S
C983 N431 1.338 . S
C988 C634 1.371 . S
C993 N464 1.340 . S
C998 C667 1.372 . S
C1003 N365 1.340 . S
C1008 C700 1.372 . S
C1013 N266 1.340 . S
C1018 C733 1.372 . S
C1023 N332 1.340 . S
C1028 C766 1.372 . S
C1033 C219 1.723 . S
C1038 C21 1.723 . S
C1043 C54 1.723 . S
C1048 C252 1.723 . S
C1053 C153 1.723 . S
C1058 C87 1.723 . S
C1063 C186 1.722 . S
C1068 C120 1.722 . S
C1073 C351 1.722 . S
C1078 C285 1.722 . S
C1083 C318 1.722 . S
C1088 C384 1.722 . S
C1093 C417 1.723 . S
C1098 C483 1.723 . S
C1103 C516 1.723 . S
C1108 C450 1.723 . S
C1113 C549 1.723 . S
C1118 C582 1.723 . S
C1123 C615 1.722 . S
C1128 C780 1.722 . S
C1133 C648 1.723 . S
C1138 C714 1.723 . S
C1143 C747 1.723 . S
C1148 C681 1.723 . S
C1153 C18 1.313 . S
C1158 N277 1.349 . S
C1163 C51 1.311 . S
C1168 N310 1.348 . S
C1173 N343 1.349 . S
C1178 C84 1.313 . S
C1183 N376 1.348 . S
C1188 C117 1.311 . S
C1193 C150 1.311 . S
C1198 N409 1.349 . S
C1203 N442 1.348 . S
C1208 C183 1.311 . S
C1213 C216 1.312 . S
C1218 N475 1.349 . S
C1223 N508 1.348 . S
C1228 C249 1.310 . S
C1233 C282 1.313 . S
C1238 N541 1.349 . S
C1243 N772 1.348 . S
C1248 C315 1.310 . S
C1253 C348 1.313 . S
C1258 N706 1.349 . S
C1263 C381 1.311 . S
C1268 N739 1.348 . S
C1273 N574 1.349 . S
C1278 C414 1.313 . S
C1283 C447 1.311 . S
C1288 N607 1.349 . S
C1293 C480 1.312 . S
C1298 N640 1.349 . S
C1303 C513 1.313 . S
C1308 N673 1.349 . S
C1313 C546 1.311 . S
C1318 N13 1.348 . S
C1323 C579 1.310 . S
C1328 N145 1.348 . S
C1333 C612 1.311 . S
C1338 N178 1.348 . S
C1343 N211 1.348 . S
C1348 C645 1.311 . S
C1353 C678 1.312 . S
C1358 N244 1.349 . S
C1363 N79 1.348 . S
C1368 C711 1.310 . S
C1373 N112 1.349 . S
C1378 C744 1.313 . S
C1383 C777 1.311 . S
C1388 N46 1.349 . S
