# Generated by pormake.
# Topology smc, (6)-cn, num edge types: 1
# Building blocks:
#     Node 0, Type 0, BuildingBlock: VOLQOD_clean_sbu_1, # of connection points: 6
#     Node 1, Type 0, BuildingBlock: VOLQOD_clean_sbu_1, # of connection points: 6
#     Node 2, Type 0, BuildingBlock: VOLQOD_clean_sbu_1, # of connection points: 6
#     Node 3, Type 0, BuildingBlock: VOLQOD_clean_sbu_1, # of connection points: 6
#     Node 4, Type 0, BuildingBlock: VOLQOD_clean_sbu_1, # of connection points: 6
#     Node 5, Type 0, BuildingBlock: VOLQOD_clean_sbu_1, # of connection points: 6
#     Node 6, Type 0, BuildingBlock: VOLQOD_clean_sbu_1, # of connection points: 6
#     Node 7, Type 0, BuildingBlock: VOLQOD_clean_sbu_1, # of connection points: 6
#     Node 8, Type 0, BuildingBlock: VOLQOD_clean_sbu_1, # of connection points: 6
#     Edge 9, Type (0, 0), BuildingBlock: EZIPEK_clean_linker_0, # of connection points: 2
#     Edge 10, Type (0, 0), BuildingBlock: EZIPEK_clean_linker_0, # of connection points: 2
#     Edge 11, Type (0, 0), BuildingBlock: EZIPEK_clean_linker_0, # of connection points: 2
#     Edge 12, Type (0, 0), BuildingBlock: EZIPEK_clean_linker_0, # of connection points: 2
#     Edge 13, Type (0, 0), BuildingBlock: EZIPEK_clean_linker_0, # of connection points: 2
#     Edge 14, Type (0, 0), BuildingBlock: EZIPEK_clean_linker_0, # of connection points: 2
#     Edge 15, Type (0, 0), BuildingBlock: EZIPEK_clean_linker_0, # of connection points: 2
#     Edge 16, Type (0, 0), BuildingBlock: EZIPEK_clean_linker_0, # of connection points: 2
#     Edge 17, Type (0, 0), BuildingBlock: EZIPEK_clean_linker_0, # of connection points: 2
#     Edge 18, Type (0, 0), BuildingBlock: EZIPEK_clean_linker_0, # of connection points: 2
#     Edge 19, Type (0, 0), BuildingBlock: EZIPEK_clean_linker_0, # of connection points: 2
#     Edge 20, Type (0, 0), BuildingBlock: EZIPEK_clean_linker_0, # of connection points: 2
#     Edge 21, Type (0, 0), BuildingBlock: EZIPEK_clean_linker_0, # of connection points: 2
#     Edge 22, Type (0, 0), BuildingBlock: EZIPEK_clean_linker_0, # of connection points: 2
#     Edge 23, Type (0, 0), BuildingBlock: EZIPEK_clean_linker_0, # of connection points: 2
#     Edge 24, Type (0, 0), BuildingBlock: EZIPEK_clean_linker_0, # of connection points: 2
#     Edge 25, Type (0, 0), BuildingBlock: EZIPEK_clean_linker_0, # of connection points: 2
#     Edge 26, Type (0, 0), BuildingBlock: EZIPEK_clean_linker_0, # of connection points: 2
#     Edge 27, Type (0, 0), BuildingBlock: EZIPEK_clean_linker_0, # of connection points: 2
#     Edge 28, Type (0, 0), BuildingBlock: EZIPEK_clean_linker_0, # of connection points: 2
#     Edge 29, Type (0, 0), BuildingBlock: EZIPEK_clean_linker_0, # of connection points: 2
#     Edge 30, Type (0, 0), BuildingBlock: EZIPEK_clean_linker_0, # of connection points: 2
#     Edge 31, Type (0, 0), BuildingBlock: EZIPEK_clean_linker_0, # of connection points: 2
#     Edge 32, Type (0, 0), BuildingBlock: EZIPEK_clean_linker_0, # of connection points: 2
#     Edge 33, Type (0, 0), BuildingBlock: EZIPEK_clean_linker_0, # of connection points: 2
#     Edge 34, Type (0, 0), BuildingBlock: EZIPEK_clean_linker_0, # of connection points: 2
#     Edge 35, Type (0, 0), BuildingBlock: EZIPEK_clean_linker_0, # of connection points: 2
# Relax obj value: 0.339
# Max RMSD: 0.274
# Mean RMSD: 0.261
data_MOF--net-smc--node1-VOLQOD_clean_sbu_1--edge1-EZIPEK_clean_linker_0
_symmetry_space_group_name_H-M    P1
_symmetry_Int_Tables_number       1
_symmetry_cell_setting            triclinic
loop_
_symmetry_equiv_pos_as_xyz
'x, y, z'
_cell_length_a     23.865013
_cell_length_b     24.198319
_cell_length_c     36.691351
_cell_angle_alpha  89.622502
_cell_angle_beta   90.958721
_cell_angle_gamma 120.66437
loop_
_atom_site_label
_atom_site_type_symbol
_atom_site_fract_x
_atom_site_fract_y
_atom_site_fract_z
_atom_type_partial_charge
O0 O 0.87908 0.47286 0.9899 0.0
Zn1 Zn 0.94975 0.45948 0.96974 0.0
O2 O -0.02321 0.4191 0.00615 0.0
Zn3 Zn 0.96555 0.33873 0.98951 0.0
Zn4 Zn 0.92448 0.40328 0.04715 0.0
Zn5 Zn 0.06281 0.4752 0.02371 0.0
O6 O 0.0521 0.34209 0.98982 0.0
O7 O 0.11798 0.44647 1.00199 0.0
O8 O 0.92208 0.40768 0.92247 0.0
O9 O 0.93512 0.32528 0.93717 0.0
O10 O 0.89353 0.2647 0.01737 0.0
O11 O 0.84723 0.31615 0.04097 0.0
O12 O -0.0294 0.40267 0.09315 0.0
O13 O 0.0227 0.5506 0.96112 0.0
O14 O 0.07343 0.46963 0.07863 0.0
O15 O 0.09207 0.56406 0.00643 0.0
C16 C 0.87462 0.4867 0.02285 0.0
C17 C 0.1087 0.39211 0.99225 0.0
C18 C 0.84479 0.26449 0.03134 0.0
C19 C 0.91939 0.35512 0.91438 0.0
C20 C 0.03086 0.43368 0.1017 0.0
C21 C 0.07374 0.58629 0.98017 0.0
O22 O 0.89876 0.47036 0.04907 0.0
O23 O 0.46912 0.41126 0.993 0.0
Zn24 Zn 0.4973 0.49931 0.97736 0.0
O25 O 0.54467 0.55517 0.01696 0.0
Zn26 Zn 0.62303 0.62992 1.00024 0.0
Zn27 Zn 0.56615 0.5132 0.05337 0.0
Zn28 Zn 0.48586 0.57426 0.03966 0.0
O29 O 0.61128 0.70755 1.00392 0.0
O30 O 0.50662 0.65823 0.02013 0.0
O31 O 0.5481 0.52442 0.93085 0.0
O32 O 0.6326 0.61975 0.94663 0.0
O33 O 0.70374 0.63404 0.02402 0.0
O34 O 0.65454 0.53261 0.04303 0.0
O35 O 0.57159 0.55464 0.10238 0.0
O36 O 0.41172 0.49209 0.96853 0.0
O37 O 0.49995 0.58593 0.09397 0.0
O38 O 0.39393 0.50923 0.02548 0.0
C39 C 0.47243 0.38369 0.02186 0.0
C40 C 0.55831 0.70746 0.00905 0.0
C41 C 0.70588 0.58461 0.03458 0.0
C42 C 0.60081 0.57581 0.92305 0.0
C43 C 0.54122 0.58144 0.11424 0.0
C44 C 0.3732 0.48668 0.9936 0.0
O45 O 0.50605 0.4162 0.04957 0.0
O46 O 0.45431 0.89336 0.02808 0.0
Zn47 Zn 0.4458 0.9682 0.04317 0.0
O48 O 0.40714 -0.0088 1.00368 0.0
Zn49 Zn 0.32482 -0.01938 0.01745 0.0
Zn50 Zn 0.39953 0.94133 0.96172 0.0
Zn51 Zn 0.46236 0.07764 0.99057 0.0
O52 O 0.32403 0.06391 0.00999 0.0
O53 O 0.43152 0.1293 0.0152 0.0
O54 O 0.39669 0.95354 0.09033 0.0
O55 O 0.31564 0.9677 0.07173 0.0
O56 O 0.25256 0.89903 0.99326 0.0
O57 O 0.30908 0.86575 0.9615 0.0
O58 O 0.41423 -0.00887 0.91469 0.0
O59 O 0.53941 0.03725 0.05054 0.0
O60 O 0.45767 0.09031 0.9365 0.0
O61 O 0.5531 0.10594 0.00607 0.0
C62 C 0.47068 0.88437 0.99673 0.0
C63 C 0.37383 0.11918 0.01669 0.0
C64 C 0.25561 0.85652 0.97418 0.0
C65 C 0.34647 0.95743 0.09696 0.0
C66 C 0.43761 0.0511 0.90981 0.0
C67 C 0.57571 0.08669 0.03158 0.0
O68 O 0.46123 0.90835 0.96786 0.0
O69 O 0.5721 0.82747 0.32056 0.0
Zn70 Zn 0.64879 0.81736 0.30921 0.0
O71 O 0.66357 0.77475 0.34948 0.0
Zn72 Zn 0.64816 0.69189 0.33473 0.0
Zn73 Zn 0.61038 0.76724 0.38957 0.0
Zn74 Zn 0.75046 0.8254 0.36687 0.0
O75 O 0.73382 0.69266 0.3326 0.0
O76 O 0.80357 0.79732 0.34163 0.0
O77 O 0.63472 0.76768 0.26131 0.0
O78 O 0.61261 0.67336 0.28365 0.0
O79 O 0.57829 0.62143 0.365 0.0
O80 O 0.53917 0.67646 0.39154 0.0
O81 O 0.65733 0.78185 0.43801 0.0
O82 O 0.72134 0.90988 0.30754 0.0
O83 O 0.75663 0.80924 0.42031 0.0
O84 O 0.78291 0.91785 0.3559 0.0
C85 C 0.55289 0.8358 0.35122 0.0
C86 C 0.79133 0.74169 0.33238 0.0
C87 C 0.53485 0.62316 0.38387 0.0
C88 C 0.61557 0.70818 0.25678 0.0
C89 C 0.71462 0.79305 0.44521 0.0
C90 C 0.76765 0.94344 0.33005 0.0
O91 O 0.56987 0.8216 0.38136 0.0
O92 O 0.19097 0.77438 0.32393 0.0
Zn93 Zn 0.18525 0.8505 0.30629 0.0
O94 O 0.2228 0.91711 0.34225 0.0
Zn95 Zn 0.30261 -0.01288 0.32526 0.0
Zn96 Zn 0.23586 0.87657 0.38252 0.0
Zn97 Zn 0.16665 0.94485 0.35803 0.0
O98 O 0.3053 0.07112 0.33456 0.0
O99 O 0.19731 0.03007 0.33515 0.0
O100 O 0.225 0.88369 0.25678 0.0
O101 O 0.30238 -0.01785 0.27103 0.0
O102 O 0.37701 0.97505 0.34258 0.0
O103 O 0.32178 0.88497 0.37509 0.0
O104 O 0.23581 0.91841 0.42926 0.0
O105 O 0.08942 0.81725 0.30326 0.0
O106 O 0.17617 0.96122 0.41254 0.0
O107 O 0.07514 0.87819 0.34321 0.0
C108 C 0.16678 0.74857 0.35455 0.0
C109 C 0.25528 0.07742 0.33197 0.0
C110 C 0.37361 0.92728 0.35972 0.0
C111 C 0.26956 0.9397 0.2471 0.0
C112 C 0.2077 0.94955 0.43669 0.0
C113 C 0.0528 0.8315 0.32065 0.0
O114 O 0.16764 0.78297 0.38086 0.0
O115 O 0.25022 0.44817 0.33228 0.0
Zn116 Zn 0.16644 0.37483 0.31047 0.0
O117 O 0.09802 0.34517 0.34571 0.0
Zn118 Zn 0.02558 0.34971 0.32676 0.0
Zn119 Zn 0.13377 0.39788 0.38712 0.0
Zn120 Zn 0.07137 0.2625 0.36397 0.0
O121 O 0.9417 0.2639 0.33476 0.0
O122 O -0.01243 0.20334 0.33995 0.0
O123 O 0.13797 0.39797 0.26195 0.0
O124 O 0.03304 0.36005 0.27233 0.0
O125 O 0.03392 0.43346 0.34564 0.0
O126 O 0.12547 0.47348 0.37918 0.0
O127 O 0.08733 0.3552 0.43269 0.0
O128 O 0.18976 0.30575 0.30443 0.0
O129 O 0.05132 0.25361 0.41821 0.0
O130 O 0.13803 0.23996 0.35096 0.0
C131 C 0.26825 0.45202 0.36563 0.0
C132 C 0.93823 0.20934 0.33423 0.0
C133 C 0.081 0.47953 0.36357 0.0
C134 C 0.08128 0.38509 0.25096 0.0
C135 C 0.05817 0.2961 0.44106 0.0
C136 C 0.1789 0.2588 0.32517 0.0
O137 O 0.22722 0.42536 0.39096 0.0
O138 O 0.22643 0.15966 0.66252 0.0
Zn139 Zn 0.29717 0.14952 0.64098 0.0
O140 O 0.32674 0.1093 0.67521 0.0
Zn141 Zn 0.30578 0.02664 0.65666 0.0
Zn142 Zn 0.28404 0.10344 0.71924 0.0
Zn143 Zn 0.41659 0.16108 0.68758 0.0
O144 O 0.38718 0.0198 0.65631 0.0
O145 O 0.461 0.12475 0.66066 0.0
O146 O 0.2691 0.10373 0.59261 0.0
O147 O 0.27818 0.01826 0.604 0.0
O148 O 0.2255 0.95808 0.68207 0.0
O149 O 0.20508 0.01863 0.71894 0.0
O150 O 0.33594 0.10552 0.76257 0.0
O151 O 0.36872 0.23897 0.6332 0.0
O152 O 0.43623 0.1548 0.7413 0.0
O153 O 0.44785 0.25173 0.67187 0.0
C154 C 0.22583 0.17825 0.69486 0.0
C155 C 0.44541 0.0672 0.65347 0.0
C156 C 0.18847 0.96513 0.70393 0.0
C157 C 0.26484 0.05151 0.58251 0.0
C158 C 0.39653 0.1274 0.76723 0.0
C159 C 0.4238 0.27376 0.6487 0.0
O160 O 0.2574 0.17032 0.7207 0.0
O161 O 0.80217 0.07316 0.64963 0.0
Zn162 Zn 0.83021 0.16179 0.63395 0.0
O163 O 0.87456 0.21829 0.67425 0.0
Zn164 Zn 0.95385 0.29417 0.65963 0.0
Zn165 Zn 0.89379 0.1762 0.71211 0.0
Zn166 Zn 0.81452 0.23822 0.6941 0.0
O167 O 0.94472 0.3726 0.66732 0.0
O168 O 0.83726 0.32333 0.67566 0.0
O169 O 0.88621 0.18928 0.58927 0.0
O170 O 0.9681 0.28593 0.60612 0.0
O171 O 0.03199 0.29849 0.68595 0.0
O172 O -0.01543 0.19764 0.70578 0.0
O173 O 0.88953 0.21088 0.76135 0.0
O174 O 0.74329 0.15189 0.6228 0.0
O175 O 0.82494 0.24974 0.74862 0.0
O176 O 0.72359 0.17337 0.67834 0.0
C177 C 0.80329 0.04727 0.6797 0.0
C178 C 0.89202 0.37378 0.67008 0.0
C179 C 0.03541 0.25063 0.69797 0.0
C180 C 0.93912 0.24128 0.58249 0.0
C181 C 0.85918 0.23881 0.77117 0.0
C182 C 0.70385 0.14844 0.64684 0.0
O183 O 0.83481 0.08075 0.7075 0.0
O184 O 0.82175 0.59112 0.70519 0.0
Zn185 Zn 0.79778 0.65482 0.7203 0.0
O186 O 0.74798 0.66293 0.68117 0.0
Zn187 Zn 0.66551 0.64939 0.69716 0.0
Zn188 Zn 0.74034 0.61355 0.63878 0.0
Zn189 Zn 0.79554 0.74877 0.6666 0.0
O190 O 0.66069 0.72975 0.68902 0.0
O191 O 0.76685 0.79757 0.69552 0.0
O192 O 0.7474 0.63002 0.76713 0.0
O193 O 0.65657 0.62941 0.75084 0.0
O194 O 0.59374 0.57414 0.67018 0.0
O195 O 0.64738 0.54494 0.63379 0.0
O196 O 0.75886 0.66543 0.59208 0.0
O197 O 0.88447 0.73516 0.7279 0.0
O198 O 0.779 0.75907 0.61414 0.0
O199 O 0.88919 0.78406 0.67565 0.0
C200 C 0.82022 0.56412 0.6752 0.0
C201 C 0.70876 0.78624 0.69449 0.0
C202 C 0.59403 0.53674 0.64601 0.0
C203 C 0.6921 0.62281 0.77475 0.0
C204 C 0.76756 0.72157 0.58737 0.0
C205 C 0.91648 0.77758 0.70403 0.0
O206 O 0.79357 0.5708 0.64634 0.0
C207 C 0.27332 0.46527 0.95811 0.0
C208 C 0.30258 0.44825 0.9866 0.0
C209 C 0.19569 0.36967 0.01003 0.0
C210 C 0.16721 0.39027 0.98324 0.0
N211 N 0.17359 0.43756 0.92477 0.0
N212 N 0.29237 0.36918 0.03072 0.0
C213 C 0.2046 0.4306 0.9545 0.0
C214 C 0.2639 0.39518 0.00963 0.0
N215 N 0.31028 0.51742 0.93657 0.0
N216 N 0.15828 0.32937 0.03711 0.0
H217 H 0.34225 0.38599 0.03026 0.0
H218 H 0.26595 0.32724 0.04579 0.0
H219 H 0.10769 0.30813 0.03706 0.0
H220 H 0.17753 0.31919 0.06013 0.0
H221 H 0.29044 0.53577 0.91802 0.0
H222 H 0.36079 0.54574 0.93909 0.0
H223 H 0.1977 0.46273 0.90147 0.0
H224 H 0.1228 0.41234 0.92235 0.0
C225 C 0.5592 0.86344 0.01594 0.0
C226 C 0.50265 0.84602 0.99422 0.0
C227 C 0.50484 0.75261 0.97153 0.0
C228 C 0.55214 0.7629 0.99866 0.0
N229 N 0.6241 0.8267 0.04769 0.0
N230 N 0.41767 0.77053 0.95333 0.0
C231 C 0.58026 0.81857 0.02077 0.0
C232 C 0.47501 0.79032 0.97191 0.0
N233 N 0.59317 0.92312 0.03143 0.0
N234 N 0.48767 0.70562 0.94594 0.0
H235 H 0.39253 0.79528 0.95376 0.0
H236 H 0.39178 0.72637 0.94004 0.0
H237 H 0.5086 0.67686 0.94542 0.0
H238 H 0.45782 0.69946 0.92343 0.0
H239 H 0.63797 0.94058 0.04475 0.0
H240 H 0.5797 0.95755 0.02782 0.0
H241 H 0.63998 0.86216 0.06768 0.0
H242 H 0.64186 0.79554 0.05123 0.0
C243 C 0.17707 0.75491 0.94048 0.0
C244 C 0.19962 0.78983 0.97368 0.0
C245 C 0.12152 0.69467 0.00698 0.0
C246 C 0.1088 0.6568 0.9754 0.0
N247 N 0.12792 0.65013 0.91154 0.0
N248 N 0.20606 0.78493 0.0394 0.0
C249 C 0.13665 0.68665 0.94168 0.0
C250 C 0.17474 0.758 0.00725 0.0
N251 N 0.19447 0.78689 0.90804 0.0
N252 N 0.08352 0.66991 0.03702 0.0
H253 H 0.25012 0.82839 0.04086 0.0
H254 H 0.19282 0.75965 0.06392 0.0
H255 H 0.04237 0.62384 0.03734 0.0
H256 H 0.08889 0.69789 0.0598 0.0
H257 H 0.17514 0.76466 0.88301 0.0
H258 H 0.22374 0.83681 0.9066 0.0
H259 H 0.15285 0.66911 0.88737 0.0
H260 H 0.09935 0.60017 0.91146 0.0
C261 C 0.38084 0.20851 0.05352 0.0
C262 C 0.36879 0.17698 0.01954 0.0
C263 C 0.42581 0.27871 0.98843 0.0
C264 C 0.43591 0.31217 0.02198 0.0
N265 N 0.40061 0.30493 0.08449 0.0
N266 N 0.35297 0.18152 0.95539 0.0
C267 C 0.40653 0.27607 0.05415 0.0
C268 C 0.38101 0.21227 0.98728 0.0
N269 N 0.36946 0.17425 0.08495 0.0
N270 N 0.46284 0.30813 0.95858 0.0
H271 H 0.3181 0.1326 0.95512 0.0
H272 H 0.35832 0.20606 0.93101 0.0
H273 H 0.50394 0.35408 0.95936 0.0
H274 H 0.45847 0.28324 0.93459 0.0
H275 H 0.38399 0.19581 0.11057 0.0
H276 H 0.34793 0.12429 0.08477 0.0
H277 H 0.37559 0.27914 0.10746 0.0
H278 H 0.41338 0.35299 0.08513 0.0
C279 C 0.67922 0.15272 0.06769 0.0
C280 C 0.64687 0.11818 0.03564 0.0
C281 C 0.74924 0.16717 1.00282 0.0
C282 C 0.78163 0.20413 0.03444 0.0
N283 N 0.78271 0.21689 0.09949 0.0
N284 N 0.65269 0.07429 0.97804 0.0
C285 C 0.74818 0.1914 0.06785 0.0
C286 C 0.68268 0.11912 1.00505 0.0
N287 N 0.64415 0.15177 0.097 0.0
N288 N 0.7797 0.18107 0.96996 0.0
H289 H 0.60363 0.03842 0.97893 0.0
H290 H 0.67783 0.06861 0.95683 0.0
H291 H 0.82823 0.21602 0.96628 0.0
H292 H 0.75526 0.16076 0.94547 0.0
H293 H 0.66487 0.18192 0.11949 0.0
H294 H 0.59352 0.12349 0.0979 0.0
H295 H 0.7618 0.20539 0.12517 0.0
H296 H 0.83352 0.2446 0.10013 0.0
C297 C 0.80158 0.51063 0.06077 0.0
C298 C 0.84281 0.52463 0.03035 0.0
C299 C 0.80867 0.59817 0.00671 0.0
C300 C 0.76742 0.58352 0.03711 0.0
N301 N 0.74771 0.54923 0.09961 0.0
N302 N 0.90537 0.60258 0.98395 0.0
C303 C 0.77295 0.54855 0.06662 0.0
C304 C 0.85285 0.57522 0.00634 0.0
N305 N 0.7846 0.45819 0.08224 0.0
N306 N 0.80366 0.63033 0.97731 0.0
H307 H 0.94127 0.59016 0.98483 0.0
H308 H 0.91735 0.64287 0.96804 0.0
H309 H 0.77388 0.65011 0.97648 0.0
H310 H 0.82703 0.63439 0.95283 0.0
H311 H 0.75003 0.44379 0.10265 0.0
H312 H 0.79846 0.42459 0.0772 0.0
H313 H 0.75426 0.52797 0.12284 0.0
H314 H 0.72658 0.57716 0.10423 0.0
C315 C 0.88038 0.72187 0.34929 0.0
C316 C 0.84751 0.73644 0.32194 0.0
C317 C 0.94769 0.79723 0.28755 0.0
C318 C -0.01817 0.78934 0.31711 0.0
N319 N -0.01889 0.72847 0.36945 0.0
N320 N 0.84233 0.76875 0.2607 0.0
C321 C 0.94805 0.74588 0.34573 0.0
C322 C 0.87886 0.76707 0.28927 0.0
N323 N 0.84771 0.68928 0.37972 0.0
N324 N -0.01857 0.83638 0.25915 0.0
H325 H 0.79173 0.74683 0.26213 0.0
H326 H 0.86079 0.78685 0.23506 0.0
H327 H 0.03181 0.85764 0.25691 0.0
H328 H 0.96026 0.84955 0.23845 0.0
H329 H 0.87018 0.68375 0.40286 0.0
H330 H 0.79747 0.66915 0.38204 0.0
H331 H 0.95869 0.69331 0.38933 0.0
H332 H 0.03084 0.74553 0.36712 0.0
C333 C 0.21078 0.18998 0.2906 0.0
C334 C 0.21808 0.22776 0.32167 0.0
C335 C 0.27513 0.18251 0.35496 0.0
C336 C 0.26224 0.14061 0.32523 0.0
N337 N 0.23876 0.11738 0.2615 0.0
N338 N 0.27408 0.27551 0.37838 0.0
C339 C 0.2376 0.14938 0.29175 0.0
C340 C 0.25638 0.2294 0.35215 0.0
N341 N 0.17432 0.18927 0.26128 0.0
N342 N 0.30111 0.17439 0.38658 0.0
H343 H 0.26037 0.31011 0.37711 0.0
H344 H 0.30669 0.283 0.39962 0.0
H345 H 0.31801 0.14235 0.38864 0.0
H346 H 0.30394 0.19753 0.41095 0.0
H347 H 0.16097 0.15724 0.2396 0.0
H348 H 0.15426 0.21868 0.25939 0.0
H349 H 0.22616 0.12491 0.23541 0.0
H350 H 0.25842 0.08745 0.26224 0.0
C351 C 0.8651 0.11605 0.2962 0.0
C352 C 0.8758 0.14906 0.32952 0.0
C353 C 0.8006 0.04859 0.35997 0.0
C354 C 0.80037 0.01433 0.3285 0.0
N355 N 0.83406 0.01503 0.26662 0.0
N356 N 0.85261 0.14994 0.39281 0.0
C357 C 0.83174 0.04785 0.2962 0.0
C358 C 0.84188 0.11634 0.36113 0.0
N359 N 0.88888 0.15064 0.26492 0.0
N360 N 0.76109 0.01644 0.38857 0.0
H361 H 0.87969 0.20002 0.39363 0.0
H362 H 0.837 0.1286 0.41822 0.0
H363 H 0.73089 0.96667 0.38916 0.0
H364 H 0.75408 0.03922 0.4105 0.0
H365 H 0.87876 0.13015 0.23901 0.0
H366 H 0.91376 0.20082 0.26493 0.0
H367 H 0.86189 0.03732 0.24375 0.0
H368 H 0.8123 0.9652 0.26589 0.0
C369 C 0.10642 0.63767 0.32797 0.0
C370 C 0.13611 0.67786 0.35882 0.0
C371 C 0.10694 0.5815 0.39488 0.0
C372 C 0.09109 0.54498 0.36236 0.0
N373 N 0.10138 0.5486 0.29686 0.0
N374 N 0.17727 0.68632 0.42096 0.0
C375 C 0.09714 0.57542 0.32844 0.0
C376 C 0.13931 0.64952 0.39244 0.0
N377 N 0.08649 0.65797 0.29835 0.0
N378 N 0.09259 0.55154 0.42794 0.0
H379 H 0.20816 0.73586 0.41954 0.0
H380 H 0.18457 0.66654 0.44461 0.0
H381 H 0.06835 0.50161 0.43041 0.0
H382 H 0.09871 0.57596 0.45235 0.0
H383 H 0.06202 0.62775 0.27625 0.0
H384 H 0.08651 0.70107 0.29809 0.0
H385 H 0.11113 0.57265 0.27196 0.0
H386 H 0.10446 0.50716 0.29653 0.0
C387 C 0.38199 0.47185 0.3596 0.0
C388 C 0.33818 0.48803 0.37565 0.0
C389 C 0.42709 0.56887 0.41345 0.0
C390 C 0.47176 0.56343 0.39131 0.0
N391 N 0.49193 0.4894 0.35922 0.0
N392 N 0.32009 0.55533 0.41677 0.0
C393 C 0.44945 0.50853 0.369 0.0
C394 C 0.3606 0.53637 0.40302 0.0
N395 N 0.35938 0.42242 0.33512 0.0
N396 N 0.44896 0.60516 0.44444 0.0
H397 H 0.27179 0.53614 0.40823 0.0
H398 H 0.33626 0.59483 0.43399 0.0
H399 H 0.49772 0.62697 0.45288 0.0
H400 H 0.41811 0.60716 0.46347 0.0
H401 H 0.38934 0.413 0.31929 0.0
H402 H 0.31006 0.39154 0.32951 0.0
H403 H 0.47881 0.44782 0.34451 0.0
H404 H 0.53912 0.51103 0.37009 0.0
C405 C 0.4089 0.85762 0.33151 0.0
C406 C 0.42433 0.91081 0.35432 0.0
C407 C 0.52891 0.92106 0.37043 0.0
C408 C 0.50926 0.86243 0.35177 0.0
N409 N 0.42603 0.76935 0.31924 0.0
N410 N 0.49596 -0.00884 0.3976 0.0
C411 C 0.44818 0.82933 0.33333 0.0
C412 C 0.48371 0.94234 0.37427 0.0
N413 N 0.35714 0.83482 0.30765 0.0
N414 N 0.59138 0.95743 0.3833 0.0
H415 H 0.46451 0.00896 0.40006 0.0
H416 H 0.53502 0.01126 0.41605 0.0
H417 H 0.62584 0.94366 0.38036 0.0
H418 H 0.6106 0.00356 0.39387 0.0
H419 H 0.34741 0.80029 0.28784 0.0
H420 H 0.32769 0.85503 0.30513 0.0
H421 H 0.37879 0.74018 0.30912 0.0
H422 H 0.45253 0.74595 0.32079 0.0
C423 C 0.60259 0.12512 0.61172 0.0
C424 C 0.6331 0.10893 0.63985 0.0
C425 C 0.52784 0.03619 0.66725 0.0
C426 C 0.49879 0.0583 0.64173 0.0
N427 N 0.50039 0.10144 0.58259 0.0
N428 N 0.62387 0.03166 0.68475 0.0
C429 C 0.53368 0.09439 0.61111 0.0
C430 C 0.59516 0.0582 0.66436 0.0
N431 N 0.63908 0.17306 0.58763 0.0
N432 N 0.49234 -0.00166 0.69559 0.0
H433 H 0.67302 0.0463 0.68228 0.0
H434 H 0.59802 -0.00863 0.70115 0.0
H435 H 0.44227 -0.02036 0.69738 0.0
H436 H 0.51273 -0.01266 0.71775 0.0
H437 H 0.61931 0.19158 0.56915 0.0
H438 H 0.68979 0.19718 0.5874 0.0
H439 H 0.52191 0.12361 0.55814 0.0
H440 H 0.44962 0.07922 0.58252 0.0
C441 C 0.86556 0.44224 0.70582 0.0
C442 C 0.89303 0.43473 0.6738 0.0
C443 C 0.88842 0.52439 0.64616 0.0
C444 C 0.84748 0.52128 0.67487 0.0
N445 N 0.78615 0.46561 0.72865 0.0
N446 N 0.9293 0.46676 0.61231 0.0
C447 C 0.83363 0.47764 0.70414 0.0
C448 C 0.90495 0.47579 0.64365 0.0
N449 N 0.86829 0.41363 0.73749 0.0
N450 N 0.913 0.5744 0.62213 0.0
H451 H 0.94347 0.43266 0.61012 0.0
H452 H 0.9319 0.49061 0.58808 0.0
H453 H 0.90449 0.61247 0.62417 0.0
H454 H 0.94729 0.58149 0.60264 0.0
H455 H 0.85309 0.4216 0.76238 0.0
H456 H 0.89241 0.38782 0.73937 0.0
H457 H 0.7711 0.4299 0.74844 0.0
H458 H 0.756 0.485 0.72655 0.0
C459 C 0.53429 0.43739 0.60801 0.0
C460 C 0.53295 0.47606 0.63636 0.0
C461 C 0.44607 0.38212 0.66624 0.0
C462 C 0.45715 0.34299 0.64228 0.0
N463 N 0.50515 0.33044 0.58795 0.0
N464 N 0.46175 0.48778 0.67711 0.0
C465 C 0.49824 0.36963 0.61184 0.0
C466 C 0.48055 0.44938 0.66084 0.0
N467 N 0.56854 0.46618 0.57728 0.0
N468 N 0.40481 0.35534 0.6949 0.0
H469 H 0.48147 0.53586 0.66981 0.0
H470 H 0.42094 0.47033 0.69348 0.0
H471 H 0.37744 0.30588 0.69931 0.0
H472 H 0.40069 0.38234 0.71554 0.0
H473 H 0.5689 0.44133 0.55434 0.0
H474 H 0.59132 0.5158 0.57359 0.0
H475 H 0.53939 0.34715 0.56735 0.0
H476 H 0.47823 0.28042 0.58977 0.0
C477 C 0.70334 0.87882 0.71836 0.0
C478 C 0.7024 0.84249 0.68827 0.0
C479 C 0.764 0.9386 0.65222 0.0
C480 C 0.76542 0.9764 0.68217 0.0
N481 N 0.71574 -0.02069 0.73879 0.0
N482 N 0.70711 0.83393 0.62345 0.0
C483 C 0.72843 0.94564 0.71382 0.0
C484 C 0.72292 0.87138 0.65389 0.0
N485 N 0.68277 0.84987 0.75142 0.0
N486 N 0.80607 0.96546 0.62391 0.0
H487 H 0.6773 0.78402 0.62467 0.0
H488 H 0.71782 0.85283 0.59717 0.0
H489 H 0.84311 0.01349 0.62331 0.0
H490 H 0.80972 0.93822 0.6032 0.0
H491 H 0.68937 0.87528 0.77548 0.0
H492 H 0.66149 0.80024 0.75457 0.0
H493 H 0.68492 0.95754 0.76073 0.0
H494 H 0.72987 0.02748 0.73541 0.0
C495 C 0.00666 0.88978 0.70595 0.0
C496 C -0.01401 0.82406 0.70986 0.0
C497 C 0.09953 0.85114 0.71565 0.0
C498 C 0.1193 0.91519 0.7058 0.0
N499 N 0.0893 -0.00993 0.68111 0.0
N500 N 0.01229 0.73992 0.71364 0.0
C501 C 0.07228 0.93324 0.69813 0.0
C502 C 0.03217 0.80381 0.71373 0.0
N503 N 0.96362 0.91074 0.70981 0.0
N504 N 0.14454 0.83587 0.72745 0.0
H505 H 0.96349 0.70369 0.71184 0.0
H506 H 0.04455 0.723 0.71241 0.0
H507 H 0.1942 0.86969 0.72939 0.0
H508 H 0.13194 0.79114 0.73827 0.0
H509 H -0.02191 0.95932 0.71017 0.0
H510 H 0.91503 0.88008 0.71675 0.0
H511 H 0.05514 0.0022 0.67239 0.0
H512 H 0.13598 0.02135 0.67152 0.0
C513 C 0.14545 0.19419 0.7308 0.0
C514 C 0.18914 0.21148 0.70135 0.0
C515 C 0.14236 0.27089 0.67281 0.0
C516 C 0.09859 0.25336 0.70225 0.0
N517 N 0.07698 0.22135 0.76512 0.0
N518 N 0.24568 0.28696 0.65294 0.0
C519 C 0.1071 0.22334 0.73341 0.0
C520 C 0.19322 0.25698 0.67528 0.0
N521 N 0.136 0.14645 0.75448 0.0
N522 N 0.13317 0.29602 0.64136 0.0
H523 H 0.28482 0.27927 0.65482 0.0
H524 H 0.25357 0.32454 0.63564 0.0
H525 H 0.09673 0.30707 0.63753 0.0
H526 H 0.15929 0.30153 0.61778 0.0
H527 H 0.09949 0.12817 0.7739 0.0
H528 H 0.15969 0.12049 0.75267 0.0
H529 H 0.08543 0.20425 0.78951 0.0
H530 H 0.04938 0.24346 0.76768 0.0
C531 C 0.03645 0.43345 0.20556 0.0
C532 C 0.07039 0.39978 0.21254 0.0
C533 C 0.08797 0.3985 0.14654 0.0
C534 C 0.0504 0.42802 0.13968 0.0
N535 N -0.01346 0.47169 0.16183 0.0
N536 N 0.11576 0.33837 0.18879 0.0
C537 C 0.02423 0.44504 0.16901 0.0
C538 C 0.09348 0.3798 0.1828 0.0
N539 N 0.01729 0.45638 0.23375 0.0
N540 N 0.11751 0.38712 0.11833 0.0
H541 H 0.11694 0.32016 0.21443 0.0
H542 H 0.12661 0.31638 0.16803 0.0
H543 H 0.11109 0.39552 0.09112 0.0
H544 H 0.15219 0.37354 0.12201 0.0
H545 H 0.00275 0.49004 0.23066 0.0
H546 H 0.01857 0.44489 0.26088 0.0
H547 H 0.95672 0.47527 0.18089 0.0
H548 H -0.0173 0.48814 0.13609 0.0
C549 C 0.60952 0.62706 0.21115 0.0
C550 C 0.59788 0.67776 0.21965 0.0
C551 C 0.55961 0.67225 0.1567 0.0
C552 C 0.55873 0.61353 0.15088 0.0
N553 N 0.56729 0.52698 0.17864 0.0
N554 N 0.54302 0.73498 0.20133 0.0
C555 C 0.57887 0.58832 0.17994 0.0
C556 C 0.56727 0.69645 0.19275 0.0
N557 N 0.65237 0.61752 0.23143 0.0
N558 N 0.55743 0.7076 0.12811 0.0
H559 H 0.54207 0.74954 0.22785 0.0
H560 H 0.51627 0.74539 0.18264 0.0
H561 H 0.55994 0.69684 0.10097 0.0
H562 H 0.56266 0.75275 0.13165 0.0
H563 H 0.66508 0.58373 0.22427 0.0
H564 H 0.68183 0.6488 0.25203 0.0
H565 H 0.57745 0.50585 0.20068 0.0
H566 H 0.54018 0.49487 0.15778 0.0
C567 C 0.26106 0.91019 0.14542 0.0
C568 C 0.32585 0.95561 0.1352 0.0
C569 C 0.34613 0.00608 0.19562 0.0
C570 C 0.28507 0.95423 0.20738 0.0
N571 N 0.17429 0.88185 0.188 0.0
N572 N 0.43096 0.04787 0.15048 0.0
C573 C 0.23938 0.91315 0.1807 0.0
C574 C 0.36877 0.00367 0.16034 0.0
N575 N 0.22081 0.86228 0.12192 0.0
N576 N 0.37862 0.06122 0.21584 0.0
H577 H 0.44782 0.0531 0.12394 0.0
H578 H 0.46724 0.07734 0.16916 0.0
H579 H 0.35755 0.07139 0.2374 0.0
H580 H 0.42126 0.10199 0.2076 0.0
H581 H 0.17622 0.82299 0.12935 0.0
H582 H 0.23463 0.85912 0.09576 0.0
H583 H 0.13792 0.85562 0.16864 0.0
H584 H 0.15629 0.88996 0.21184 0.0
C585 C 0.39169 0.10051 0.86811 0.0
C586 C 0.43281 0.07475 0.87317 0.0
C587 C 0.45534 0.08655 0.80767 0.0
C588 C 0.41892 0.11815 0.80363 0.0
N589 N 0.36952 0.17169 0.83265 0.0
N590 N 0.51361 0.05394 0.84917 0.0
C591 C 0.39286 0.13062 0.83478 0.0
C592 C 0.46799 0.0713 0.84338 0.0
N593 N 0.34773 0.09212 0.89405 0.0
N594 N 0.47415 0.06713 0.77773 0.0
H595 H 0.52336 0.0419 0.87492 0.0
H596 H 0.54543 0.05687 0.82912 0.0
H597 H 0.46482 0.07547 0.75107 0.0
H598 H 0.49427 0.03778 0.77933 0.0
H599 H 0.31136 0.10326 0.88945 0.0
H600 H 0.34279 0.06738 0.9183 0.0
H601 H 0.35483 0.18619 0.8555 0.0
H602 H 0.37186 0.19662 0.80886 0.0
C603 C 0.95163 0.35083 0.85044 0.0
C604 C 0.902 0.32944 0.87676 0.0
C605 C 0.82417 0.24632 0.83446 0.0
C606 C 0.8732 0.26944 0.80765 0.0
N607 N -0.02089 0.35178 0.78708 0.0
N608 N 0.78913 0.26457 0.89274 0.0
C609 C 0.93573 0.32401 0.81479 0.0
C610 C 0.83756 0.27945 0.8684 0.0
N611 N 0.01449 0.39551 0.85986 0.0
N612 N 0.76574 0.19149 0.82786 0.0
H613 H 0.79768 0.28785 0.91783 0.0
H614 H 0.73997 0.23287 0.88717 0.0
H615 H 0.75444 0.16655 0.8032 0.0
H616 H 0.73022 0.1681 0.84749 0.0
H617 H 0.0542 0.40701 0.84349 0.0
H618 H 0.02773 0.41828 0.88522 0.0
H619 H 0.02239 0.39574 0.78956 0.0
H620 H -0.03046 0.33391 0.76049 0.0
C621 C 0.65881 0.55388 0.831 0.0
C622 C 0.6701 0.61067 0.81296 0.0
C623 C 0.62958 0.64048 0.86569 0.0
C624 C 0.62399 0.58696 0.88505 0.0
N625 N 0.64361 0.49862 0.88863 0.0
N626 N 0.67959 0.71481 0.8158 0.0
C627 C 0.6414 0.54514 0.8684 0.0
C628 C 0.65924 0.65593 0.83105 0.0
N629 N 0.66234 0.50728 0.8121 0.0
N630 N 0.60418 0.67514 0.87971 0.0
H631 H 0.703 0.72878 0.7908 0.0
H632 H 0.67915 0.75213 0.82953 0.0
H633 H 0.58088 0.66474 0.90472 0.0
H634 H 0.60052 0.71017 0.86501 0.0
H635 H 0.64776 0.46197 0.82271 0.0
H636 H 0.67462 0.51179 0.78465 0.0
H637 H 0.66264 0.47123 0.87905 0.0
H638 H 0.6317 0.49111 0.91615 0.0
C639 C 0.785 0.82067 0.5022 0.0
C640 C 0.72885 0.77621 0.48187 0.0
C641 C 0.69544 0.69984 0.53242 0.0
C642 C 0.75543 0.74049 0.55081 0.0
N643 N 0.86217 0.836 0.55063 0.0
N644 N 0.64041 0.66634 0.4741 0.0
C645 C 0.80167 0.8001 0.53502 0.0
C646 C 0.68679 0.71373 0.49594 0.0
N647 N 0.82115 0.88295 0.49084 0.0
N648 N 0.64518 0.64963 0.55019 0.0
H649 H 0.63448 0.67273 0.44648 0.0
H650 H 0.6129 0.61859 0.48239 0.0
H651 H 0.64764 0.63954 0.57764 0.0
H652 H 0.59852 0.62264 0.53882 0.0
H653 H 0.85868 0.91906 0.50645 0.0
H654 H 0.80971 0.89981 0.4673 0.0
H655 H 0.89997 0.87666 0.53842 0.0
H656 H 0.87655 0.82182 0.57417 0.0
C657 C 0.27985 0.0354 0.48082 0.0
C658 C 0.21892 -0.02063 0.47309 0.0
C659 C 0.18389 -0.02138 0.5356 0.0
C660 C 0.24738 0.03012 0.54429 0.0
N661 N 0.35794 0.10478 0.52681 0.0
N662 N 0.11371 0.89482 0.49248 0.0
C663 C 0.29584 0.05822 0.51727 0.0
C664 C 0.17081 0.95043 0.50023 0.0
N665 N 0.32191 0.06737 0.4531 0.0
N666 N 0.13608 0.95757 0.56106 0.0
H667 H 0.10211 0.87399 0.46658 0.0
H668 H 0.07945 0.86722 0.51198 0.0
H669 H 0.14444 -0.02294 0.58726 0.0
H670 H 0.08724 0.92445 0.55559 0.0
H671 H 0.36383 0.1123 0.45616 0.0
H672 H 0.3123 0.05145 0.42612 0.0
H673 H 0.39741 0.12156 0.50947 0.0
H674 H 0.37123 0.12395 0.55305 0.0
C675 C 0.94306 0.27369 0.51733 0.0
C676 C 0.96712 0.25107 0.54573 0.0
C677 C 0.05061 0.25614 0.50531 0.0
C678 C 0.02492 0.27647 0.47653 0.0
N679 N 0.94043 0.294 0.4527 0.0
N680 N 0.03661 0.2115 0.5663 0.0
C681 C -0.03078 0.28211 0.48185 0.0
C682 C 0.01881 0.23946 0.53956 0.0
N683 N 0.89675 0.28929 0.52462 0.0
N684 N 0.10677 0.25523 0.50024 0.0
H685 H 0.01498 0.19971 0.59185 0.0
H686 H 0.06941 0.19584 0.56253 0.0
H687 H 0.13043 0.26593 0.47529 0.0
H688 H 0.13231 0.2479 0.52113 0.0
H689 H 0.88272 0.31326 0.50635 0.0
H690 H 0.87525 0.28232 0.55007 0.0
H691 H 0.89566 0.29154 0.45386 0.0
H692 H 0.95857 0.3012 0.42634 0.0
loop_
_geom_bond_atom_site_label_1
_geom_bond_atom_site_label_2
_geom_bond_distance
_geom_bond_site_symmetry_2
_ccdc_geom_bond_type
O0 Zn1 1.953 . S
O0 C16 1.225 1_556 S
Zn1 O0 1.953 . S
Zn1 O2 1.949 1_656 S
Zn1 O8 1.919 . S
Zn1 O13 1.924 1_655 S
O2 Zn1 1.949 1_454 S
O2 Zn3 1.923 1_454 S
O2 Zn4 1.950 1_455 S
O2 Zn5 1.945 . S
Zn3 O2 1.923 1_656 S
Zn3 O6 1.933 1_655 S
Zn3 O9 1.941 . S
Zn3 O10 1.966 1_556 S
Zn4 O2 1.950 1_655 S
Zn4 O11 1.938 . S
Zn4 O12 1.906 . S
Zn4 O22 1.953 . S
Zn5 O2 1.945 . S
Zn5 O7 1.932 . S
Zn5 O14 1.977 . S
Zn5 O15 1.910 . S
O6 Zn3 1.933 1_455 S
O6 C17 1.226 1_556 S
O7 Zn5 1.932 . S
O7 C17 1.307 . S
O8 Zn1 1.919 . S
O8 C19 1.253 . S
O9 Zn3 1.941 . S
O9 C19 1.283 . S
O10 Zn3 1.966 1_554 S
O10 C18 1.302 . S
O11 Zn4 1.938 . S
O11 C18 1.247 . S
O12 Zn4 1.906 . S
O12 C20 1.304 1_655 S
O13 Zn1 1.924 1_455 S
O13 C21 1.311 . S
O14 Zn5 1.977 . S
O14 C20 1.272 . S
O15 Zn5 1.910 . S
O15 C21 1.231 1_554 S
C16 O0 1.225 1_554 S
C16 O22 1.298 . S
C17 O6 1.226 1_554 S
C17 O7 1.307 . S
C18 O10 1.302 . S
C18 O11 1.247 . S
C19 O8 1.253 . S
C19 O9 1.283 . S
C20 O12 1.304 1_455 S
C20 O14 1.272 . S
C21 O13 1.311 . S
C21 O15 1.231 1_556 S
O22 Zn4 1.953 . S
O22 C16 1.298 . S
O23 Zn24 1.953 . S
O23 C39 1.225 1_556 S
Zn24 O23 1.953 . S
Zn24 O25 1.949 1_556 S
Zn24 O31 1.919 . S
Zn24 O36 1.924 . S
O25 Zn24 1.949 1_554 S
O25 Zn26 1.923 1_554 S
O25 Zn27 1.950 . S
O25 Zn28 1.945 . S
Zn26 O25 1.923 1_556 S
Zn26 O29 1.933 . S
Zn26 O32 1.941 . S
Zn26 O33 1.965 . S
Zn27 O25 1.950 . S
Zn27 O34 1.938 . S
Zn27 O35 1.906 . S
Zn27 O45 1.953 . S
Zn28 O25 1.945 . S
Zn28 O30 1.932 . S
Zn28 O37 1.977 . S
Zn28 O38 1.910 . S
O29 Zn26 1.933 . S
O29 C40 1.226 . S
O30 Zn28 1.932 . S
O30 C40 1.307 1_554 S
O31 Zn24 1.919 . S
O31 C42 1.253 . S
O32 Zn26 1.941 . S
O32 C42 1.283 . S
O33 Zn26 1.965 . S
O33 C41 1.303 1_556 S
O34 Zn27 1.938 . S
O34 C41 1.247 . S
O35 Zn27 1.906 . S
O35 C43 1.304 . S
O36 Zn24 1.924 . S
O36 C44 1.311 . S
O37 Zn28 1.977 . S
O37 C43 1.272 . S
O38 Zn28 1.910 . S
O38 C44 1.231 1_554 S
C39 O23 1.225 1_554 S
C39 O45 1.298 . S
C40 O29 1.226 . S
C40 O30 1.307 1_556 S
C41 O33 1.303 1_554 S
C41 O34 1.247 . S
C42 O31 1.253 . S
C42 O32 1.283 . S
C43 O35 1.304 . S
C43 O37 1.272 . S
C44 O36 1.311 . S
C44 O38 1.231 1_556 S
O45 Zn27 1.953 . S
O45 C39 1.298 . S
O46 Zn47 1.953 1_565 S
O46 C62 1.225 . S
Zn47 O46 1.953 1_545 S
Zn47 O48 1.949 . S
Zn47 O54 1.919 . S
Zn47 O59 1.924 . S
O48 Zn47 1.949 . S
O48 Zn49 1.923 . S
O48 Zn50 1.950 1_544 S
O48 Zn51 1.945 1_554 S
Zn49 O48 1.923 . S
Zn49 O52 1.933 . S
Zn49 O55 1.941 1_545 S
Zn49 O56 1.965 1_545 S
Zn50 O48 1.950 1_566 S
Zn50 O57 1.938 . S
Zn50 O58 1.906 . S
Zn50 O68 1.953 . S
Zn51 O48 1.945 1_556 S
Zn51 O53 1.932 . S
Zn51 O60 1.977 . S
Zn51 O61 1.910 . S
O52 Zn49 1.933 . S
O52 C63 1.226 . S
O53 Zn51 1.932 . S
O53 C63 1.307 1_556 S
O54 Zn47 1.919 . S
O54 C65 1.253 . S
O55 Zn49 1.941 1_565 S
O55 C65 1.283 1_565 S
O56 Zn49 1.965 1_565 S
O56 C64 1.303 1_554 S
O57 Zn50 1.938 . S
O57 C64 1.247 . S
O58 Zn50 1.906 . S
O58 C66 1.304 1_565 S
O59 Zn47 1.924 . S
O59 C67 1.311 . S
O60 Zn51 1.977 . S
O60 C66 1.272 . S
O61 Zn51 1.910 . S
O61 C67 1.231 1_556 S
C62 O46 1.225 . S
C62 O68 1.298 1_554 S
C63 O52 1.226 . S
C63 O53 1.307 1_554 S
C64 O56 1.303 1_556 S
C64 O57 1.247 . S
C65 O54 1.253 . S
C65 O55 1.283 1_545 S
C66 O58 1.304 1_545 S
C66 O60 1.272 . S
C67 O59 1.311 . S
C67 O61 1.231 1_554 S
O68 Zn50 1.953 . S
O68 C62 1.298 1_556 S
O69 Zn70 1.953 . S
O69 C85 1.225 . S
Zn70 O69 1.953 . S
Zn70 O71 1.949 . S
Zn70 O77 1.919 . S
Zn70 O82 1.924 . S
O71 Zn70 1.949 . S
O71 Zn72 1.923 . S
O71 Zn73 1.950 . S
O71 Zn74 1.945 . S
Zn72 O71 1.923 . S
Zn72 O75 1.933 . S
Zn72 O78 1.941 . S
Zn72 O79 1.965 . S
Zn73 O71 1.950 . S
Zn73 O80 1.938 . S
Zn73 O81 1.906 . S
Zn73 O91 1.953 . S
Zn74 O71 1.945 . S
Zn74 O76 1.932 . S
Zn74 O83 1.977 . S
Zn74 O84 1.910 . S
O75 Zn72 1.933 . S
O75 C86 1.226 . S
O76 Zn74 1.932 . S
O76 C86 1.307 . S
O77 Zn70 1.919 . S
O77 C88 1.253 . S
O78 Zn72 1.941 . S
O78 C88 1.283 . S
O79 Zn72 1.965 . S
O79 C87 1.303 . S
O80 Zn73 1.938 . S
O80 C87 1.247 . S
O81 Zn73 1.906 . S
O81 C89 1.304 . S
O82 Zn70 1.924 . S
O82 C90 1.311 . S
O83 Zn74 1.977 . S
O83 C89 1.272 . S
O84 Zn74 1.910 . S
O84 C90 1.231 . S
C85 O69 1.225 . S
C85 O91 1.298 . S
C86 O75 1.226 . S
C86 O76 1.307 . S
C87 O79 1.303 . S
C87 O80 1.247 . S
C88 O77 1.253 . S
C88 O78 1.283 . S
C89 O81 1.304 . S
C89 O83 1.272 . S
C90 O82 1.311 . S
C90 O84 1.231 . S
O91 Zn73 1.953 . S
O91 C85 1.298 . S
O92 Zn93 1.953 . S
O92 C108 1.225 . S
Zn93 O92 1.953 . S
Zn93 O94 1.949 . S
Zn93 O100 1.919 . S
Zn93 O105 1.924 . S
O94 Zn93 1.949 . S
O94 Zn95 1.923 1_565 S
O94 Zn96 1.950 . S
O94 Zn97 1.945 . S
Zn95 O94 1.923 1_545 S
Zn95 O98 1.933 . S
Zn95 O101 1.941 1_545 S
Zn95 O102 1.965 . S
Zn96 O94 1.950 . S
Zn96 O103 1.938 . S
Zn96 O104 1.906 . S
Zn96 O114 1.953 . S
Zn97 O94 1.945 . S
Zn97 O99 1.932 1_565 S
Zn97 O106 1.977 . S
Zn97 O107 1.910 . S
O98 Zn95 1.933 . S
O98 C109 1.226 . S
O99 Zn97 1.932 1_545 S
O99 C109 1.307 . S
O100 Zn93 1.919 . S
O100 C111 1.253 . S
O101 Zn95 1.941 1_565 S
O101 C111 1.283 . S
O102 Zn95 1.965 . S
O102 C110 1.303 1_545 S
O103 Zn96 1.938 . S
O103 C110 1.247 . S
O104 Zn96 1.906 . S
O104 C112 1.304 . S
O105 Zn93 1.924 . S
O105 C113 1.311 . S
O106 Zn97 1.977 . S
O106 C112 1.272 . S
O107 Zn97 1.910 . S
O107 C113 1.231 . S
C108 O92 1.225 . S
C108 O114 1.298 . S
C109 O98 1.226 . S
C109 O99 1.307 . S
C110 O102 1.303 1_565 S
C110 O103 1.247 . S
C111 O100 1.253 . S
C111 O101 1.283 . S
C112 O104 1.304 . S
C112 O106 1.272 . S
C113 O105 1.311 . S
C113 O107 1.231 . S
O114 Zn96 1.953 . S
O114 C108 1.298 . S
O115 Zn116 1.953 . S
O115 C131 1.225 . S
Zn116 O115 1.953 . S
Zn116 O117 1.949 . S
Zn116 O123 1.919 . S
Zn116 O128 1.924 . S
O117 Zn116 1.949 . S
O117 Zn118 1.923 . S
O117 Zn119 1.950 . S
O117 Zn120 1.945 . S
Zn118 O117 1.923 . S
Zn118 O121 1.933 1_455 S
Zn118 O124 1.941 . S
Zn118 O125 1.965 . S
Zn119 O117 1.950 . S
Zn119 O126 1.938 . S
Zn119 O127 1.906 . S
Zn119 O137 1.953 . S
Zn120 O117 1.945 . S
Zn120 O122 1.932 1_455 S
Zn120 O129 1.977 . S
Zn120 O130 1.910 . S
O121 Zn118 1.933 1_655 S
O121 C132 1.226 . S
O122 Zn120 1.932 1_655 S
O122 C132 1.307 . S
O123 Zn116 1.919 . S
O123 C134 1.253 . S
O124 Zn118 1.941 . S
O124 C134 1.283 . S
O125 Zn118 1.965 . S
O125 C133 1.303 . S
O126 Zn119 1.938 . S
O126 C133 1.247 . S
O127 Zn119 1.906 . S
O127 C135 1.304 . S
O128 Zn116 1.924 . S
O128 C136 1.311 . S
O129 Zn120 1.977 . S
O129 C135 1.272 . S
O130 Zn120 1.910 . S
O130 C136 1.231 . S
C131 O115 1.225 . S
C131 O137 1.298 . S
C132 O121 1.226 . S
C132 O122 1.307 . S
C133 O125 1.303 . S
C133 O126 1.247 . S
C134 O123 1.253 . S
C134 O124 1.283 . S
C135 O127 1.304 . S
C135 O129 1.272 . S
C136 O128 1.311 . S
C136 O130 1.231 . S
O137 Zn119 1.953 . S
O137 C131 1.298 . S
O138 Zn139 1.953 . S
O138 C154 1.225 . S
Zn139 O138 1.953 . S
Zn139 O140 1.949 . S
Zn139 O146 1.919 . S
Zn139 O151 1.924 . S
O140 Zn139 1.949 . S
O140 Zn141 1.923 . S
O140 Zn142 1.950 . S
O140 Zn143 1.945 . S
Zn141 O140 1.923 . S
Zn141 O144 1.933 . S
Zn141 O147 1.941 . S
Zn141 O148 1.965 1_545 S
Zn142 O140 1.950 . S
Zn142 O149 1.938 1_545 S
Zn142 O150 1.906 . S
Zn142 O160 1.953 . S
Zn143 O140 1.945 . S
Zn143 O145 1.932 . S
Zn143 O152 1.977 . S
Zn143 O153 1.910 . S
O144 Zn141 1.933 . S
O144 C155 1.226 . S
O145 Zn143 1.932 . S
O145 C155 1.307 . S
O146 Zn139 1.919 . S
O146 C157 1.253 . S
O147 Zn141 1.941 . S
O147 C157 1.283 . S
O148 Zn141 1.965 1_565 S
O148 C156 1.303 . S
O149 Zn142 1.938 1_565 S
O149 C156 1.247 . S
O150 Zn142 1.906 . S
O150 C158 1.304 . S
O151 Zn139 1.924 . S
O151 C159 1.311 . S
O152 Zn143 1.977 . S
O152 C158 1.272 . S
O153 Zn143 1.910 . S
O153 C159 1.231 . S
C154 O138 1.225 . S
C154 O160 1.298 . S
C155 O144 1.226 . S
C155 O145 1.307 . S
C156 O148 1.303 . S
C156 O149 1.247 . S
C157 O146 1.253 . S
C157 O147 1.283 . S
C158 O150 1.304 . S
C158 O152 1.272 . S
C159 O151 1.311 . S
C159 O153 1.231 . S
O160 Zn142 1.953 . S
O160 C154 1.298 . S
O161 Zn162 1.953 . S
O161 C177 1.225 . S
Zn162 O161 1.953 . S
Zn162 O163 1.949 . S
Zn162 O169 1.919 . S
Zn162 O174 1.924 . S
O163 Zn162 1.949 . S
O163 Zn164 1.923 . S
O163 Zn165 1.950 . S
O163 Zn166 1.945 . S
Zn164 O163 1.923 . S
Zn164 O167 1.932 . S
Zn164 O170 1.941 . S
Zn164 O171 1.965 1_655 S
Zn165 O163 1.950 . S
Zn165 O172 1.938 1_655 S
Zn165 O173 1.906 . S
Zn165 O183 1.953 . S
Zn166 O163 1.945 . S
Zn166 O168 1.932 . S
Zn166 O175 1.977 . S
Zn166 O176 1.910 . S
O167 Zn164 1.932 . S
O167 C178 1.231 . S
O168 Zn166 1.932 . S
O168 C178 1.307 . S
O169 Zn162 1.919 . S
O169 C180 1.253 . S
O170 Zn164 1.941 . S
O170 C180 1.283 . S
O171 Zn164 1.965 1_455 S
O171 C179 1.303 . S
O172 Zn165 1.938 1_455 S
O172 C179 1.247 . S
O173 Zn165 1.906 . S
O173 C181 1.304 . S
O174 Zn162 1.924 . S
O174 C182 1.311 . S
O175 Zn166 1.977 . S
O175 C181 1.272 . S
O176 Zn166 1.910 . S
O176 C182 1.231 . S
C177 O161 1.225 . S
C177 O183 1.298 . S
C178 O167 1.231 . S
C178 O168 1.307 . S
C179 O171 1.303 . S
C179 O172 1.247 . S
C180 O169 1.253 . S
C180 O170 1.283 . S
C181 O173 1.304 . S
C181 O175 1.272 . S
C182 O174 1.311 . S
C182 O176 1.231 . S
O183 Zn165 1.953 . S
O183 C177 1.298 . S
O184 Zn185 1.953 . S
O184 C200 1.225 . S
Zn185 O184 1.953 . S
Zn185 O186 1.949 . S
Zn185 O192 1.919 . S
Zn185 O197 1.924 . S
O186 Zn185 1.949 . S
O186 Zn187 1.923 . S
O186 Zn188 1.950 . S
O186 Zn189 1.945 . S
Zn187 O186 1.923 . S
Zn187 O190 1.933 . S
Zn187 O193 1.941 . S
Zn187 O194 1.965 . S
Zn188 O186 1.950 . S
Zn188 O195 1.938 . S
Zn188 O196 1.906 . S
Zn188 O206 1.953 . S
Zn189 O186 1.945 . S
Zn189 O191 1.932 . S
Zn189 O198 1.977 . S
Zn189 O199 1.910 . S
O190 Zn187 1.933 . S
O190 C201 1.226 . S
O191 Zn189 1.932 . S
O191 C201 1.307 . S
O192 Zn185 1.919 . S
O192 C203 1.253 . S
O193 Zn187 1.941 . S
O193 C203 1.283 . S
O194 Zn187 1.965 . S
O194 C202 1.303 . S
O195 Zn188 1.938 . S
O195 C202 1.247 . S
O196 Zn188 1.906 . S
O196 C204 1.304 . S
O197 Zn185 1.924 . S
O197 C205 1.311 . S
O198 Zn189 1.977 . S
O198 C204 1.272 . S
O199 Zn189 1.910 . S
O199 C205 1.231 . S
C200 O184 1.225 . S
C200 O206 1.298 . S
C201 O190 1.226 . S
C201 O191 1.307 . S
C202 O194 1.303 . S
C202 O195 1.247 . S
C203 O192 1.253 . S
C203 O193 1.283 . S
C204 O196 1.304 . S
C204 O198 1.272 . S
C205 O197 1.311 . S
C205 O199 1.231 . S
O206 Zn188 1.953 . S
O206 C200 1.298 . S
C207 C208 1.351 1_556 S
C207 C213 1.379 . S
C207 N215 1.356 . S
C208 C207 1.351 1_554 S
C208 C214 1.375 . S
C209 C210 1.358 1_554 S
C209 C214 1.379 . S
C209 N216 1.356 . S
C210 C209 1.358 1_556 S
C210 C213 1.368 . S
N211 C213 1.356 . S
N211 H223 0.984 . S
N211 H224 0.985 . S
N212 C214 1.356 . S
N212 H217 0.984 . S
N212 H218 0.985 . S
C213 C207 1.379 . S
C213 C210 1.368 . S
C213 N211 1.356 . S
C214 C208 1.375 . S
C214 C209 1.379 . S
C214 N212 1.356 . S
N215 C207 1.356 . S
N215 H221 0.984 . S
N215 H222 0.984 . S
N216 C209 1.356 . S
N216 H219 0.984 . S
N216 H220 0.985 . S
H217 N212 0.984 . S
H218 N212 0.985 . S
H219 N216 0.984 . S
H220 N216 0.985 . S
H221 N215 0.984 . S
H222 N215 0.984 . S
H223 N211 0.984 . S
H224 N211 0.985 . S
C225 C226 1.357 1_554 S
C225 C231 1.379 . S
C225 N233 1.356 . S
C226 C225 1.357 1_556 S
C226 C232 1.369 . S
C227 C228 1.363 . S
C227 C232 1.379 . S
C227 N234 1.356 . S
C228 C227 1.363 . S
C228 C231 1.363 1_556 S
N229 C231 1.356 . S
N229 H241 0.984 . S
N229 H242 0.985 . S
N230 C232 1.356 . S
N230 H235 0.984 . S
N230 H236 0.985 . S
C231 C225 1.379 . S
C231 C228 1.363 1_554 S
C231 N229 1.356 . S
C232 C226 1.369 . S
C232 C227 1.379 . S
C232 N230 1.356 . S
N233 C225 1.356 . S
N233 H239 0.984 . S
N233 H240 0.984 . S
N234 C227 1.356 . S
N234 H237 0.984 . S
N234 H238 0.985 . S
H235 N230 0.984 . S
H236 N230 0.985 . S
H237 N234 0.984 . S
H238 N234 0.985 . S
H239 N233 0.984 . S
H240 N233 0.984 . S
H241 N229 0.984 . S
H242 N229 0.985 . S
C243 C244 1.363 1_556 S
C243 C249 1.379 . S
C243 N251 1.356 . S
C244 C243 1.363 1_554 S
C244 C250 1.363 . S
C245 C246 1.385 . S
C245 C250 1.379 . S
C245 N252 1.356 . S
C246 C245 1.385 . S
C246 C249 1.341 1_554 S
N247 C249 1.356 . S
N247 H259 0.984 . S
N247 H260 0.985 . S
N248 C250 1.356 . S
N248 H253 0.984 . S
N248 H254 0.985 . S
C249 C243 1.379 . S
C249 C246 1.341 1_556 S
C249 N247 1.356 . S
C250 C244 1.363 . S
C250 C245 1.379 . S
C250 N248 1.356 . S
N251 C243 1.356 . S
N251 H257 0.984 . S
N251 H258 0.984 . S
N252 C245 1.356 . S
N252 H255 0.984 . S
N252 H256 0.985 . S
H253 N248 0.984 . S
H254 N248 0.985 . S
H255 N252 0.984 . S
H256 N252 0.985 . S
H257 N251 0.984 . S
H258 N251 0.984 . S
H259 N247 0.984 . S
H260 N247 0.985 . S
C261 C262 1.363 . S
C261 C267 1.379 . S
C261 N269 1.356 . S
C262 C261 1.363 . S
C262 C268 1.363 1_554 S
C263 C264 1.363 1_556 S
C263 C268 1.379 . S
C263 N270 1.356 . S
C264 C263 1.363 1_554 S
C264 C267 1.363 . S
N265 C267 1.356 . S
N265 H277 0.984 . S
N265 H278 0.985 . S
N266 C268 1.356 . S
N266 H271 0.984 . S
N266 H272 0.985 . S
C267 C261 1.379 . S
C267 C264 1.363 . S
C267 N265 1.356 . S
C268 C262 1.363 1_556 S
C268 C263 1.379 . S
C268 N266 1.356 . S
N269 C261 1.356 . S
N269 H275 0.984 . S
N269 H276 0.984 . S
N270 C263 1.356 . S
N270 H273 0.984 . S
N270 H274 0.985 . S
H271 N266 0.984 . S
H272 N266 0.985 . S
H273 N270 0.984 . S
H274 N270 0.985 . S
H275 N269 0.984 . S
H276 N269 0.984 . S
H277 N265 0.984 . S
H278 N265 0.985 . S
C279 C280 1.363 . S
C279 C285 1.379 . S
C279 N287 1.356 . S
C280 C279 1.363 . S
C280 C286 1.363 1_554 S
C281 C282 1.363 1_556 S
C281 C286 1.379 . S
C281 N288 1.356 . S
C282 C281 1.363 1_554 S
C282 C285 1.363 . S
N283 C285 1.356 . S
N283 H295 0.984 . S
N283 H296 0.985 . S
N284 C286 1.356 . S
N284 H289 0.984 . S
N284 H290 0.985 . S
C285 C279 1.379 . S
C285 C282 1.363 . S
C285 N283 1.356 . S
C286 C280 1.363 1_556 S
C286 C281 1.379 . S
C286 N284 1.356 . S
N287 C279 1.356 . S
N287 H293 0.984 . S
N287 H294 0.984 . S
N288 C281 1.356 . S
N288 H291 0.984 . S
N288 H292 0.985 . S
H289 N284 0.984 . S
H290 N284 0.985 . S
H291 N288 0.984 . S
H292 N288 0.985 . S
H293 N287 0.984 . S
H294 N287 0.984 . S
H295 N283 0.984 . S
H296 N283 0.985 . S
C297 C298 1.363 . S
C297 C303 1.379 . S
C297 N305 1.356 . S
C298 C297 1.363 . S
C298 C304 1.363 1_554 S
C299 C300 1.363 1_556 S
C299 C304 1.379 . S
C299 N306 1.356 . S
C300 C299 1.363 1_554 S
C300 C303 1.363 . S
N301 C303 1.356 . S
N301 H313 0.984 . S
N301 H314 0.985 . S
N302 C304 1.356 . S
N302 H307 0.984 . S
N302 H308 0.985 . S
C303 C297 1.379 . S
C303 C300 1.363 . S
C303 N301 1.356 . S
C304 C298 1.363 1_556 S
C304 C299 1.379 . S
C304 N302 1.356 . S
N305 C297 1.356 . S
N305 H311 0.984 . S
N305 H312 0.984 . S
N306 C299 1.356 . S
N306 H309 0.984 . S
N306 H310 0.985 . S
H307 N302 0.984 . S
H308 N302 0.985 . S
H309 N306 0.984 . S
H310 N306 0.985 . S
H311 N305 0.984 . S
H312 N305 0.984 . S
H313 N301 0.984 . S
H314 N301 0.985 . S
C315 C316 1.363 . S
C315 C321 1.379 . S
C315 N323 1.356 . S
C316 C315 1.363 . S
C316 C322 1.363 . S
C317 C318 1.363 1_655 S
C317 C322 1.379 . S
C317 N324 1.356 1_655 S
C318 C317 1.363 1_455 S
C318 C321 1.363 1_455 S
N319 C321 1.356 1_455 S
N319 H331 0.984 . S
N319 H332 0.985 . S
N320 C322 1.356 . S
N320 H325 0.984 . S
N320 H326 0.985 . S
C321 C315 1.379 . S
C321 C318 1.363 1_655 S
C321 N319 1.356 1_655 S
C322 C316 1.363 . S
C322 C317 1.379 . S
C322 N320 1.356 . S
N323 C315 1.356 . S
N323 H329 0.984 . S
N323 H330 0.984 . S
N324 C317 1.356 1_455 S
N324 H327 0.984 . S
N324 H328 0.985 . S
H325 N320 0.984 . S
H326 N320 0.985 . S
H327 N324 0.984 . S
H328 N324 0.985 . S
H329 N323 0.984 . S
H330 N323 0.984 . S
H331 N319 0.984 . S
H332 N319 0.985 . S
C333 C334 1.363 . S
C333 C339 1.379 . S
C333 N341 1.356 . S
C334 C333 1.363 . S
C334 C340 1.363 . S
C335 C336 1.363 . S
C335 C340 1.379 . S
C335 N342 1.356 . S
C336 C335 1.363 . S
C336 C339 1.363 . S
N337 C339 1.356 . S
N337 H349 0.984 . S
N337 H350 0.985 . S
N338 C340 1.356 . S
N338 H343 0.984 . S
N338 H344 0.985 . S
C339 C333 1.379 . S
C339 C336 1.363 . S
C339 N337 1.356 . S
C340 C334 1.363 . S
C340 C335 1.379 . S
C340 N338 1.356 . S
N341 C333 1.356 . S
N341 H347 0.984 . S
N341 H348 0.984 . S
N342 C335 1.356 . S
N342 H345 0.984 . S
N342 H346 0.985 . S
H343 N338 0.984 . S
H344 N338 0.985 . S
H345 N342 0.984 . S
H346 N342 0.985 . S
H347 N341 0.984 . S
H348 N341 0.984 . S
H349 N337 0.984 . S
H350 N337 0.985 . S
C351 C352 1.363 . S
C351 C357 1.379 . S
C351 N359 1.356 . S
C352 C351 1.363 . S
C352 C358 1.363 . S
C353 C354 1.363 . S
C353 C358 1.379 . S
C353 N360 1.356 . S
C354 C353 1.363 . S
C354 C357 1.363 . S
N355 C357 1.356 . S
N355 H367 0.984 . S
N355 H368 0.985 1_545 S
N356 C358 1.356 . S
N356 H361 0.984 . S
N356 H362 0.985 . S
C357 C351 1.379 . S
C357 C354 1.363 . S
C357 N355 1.356 . S
C358 C352 1.363 . S
C358 C353 1.379 . S
C358 N356 1.356 . S
N359 C351 1.356 . S
N359 H365 0.984 . S
N359 H366 0.984 . S
N360 C353 1.356 . S
N360 H363 0.984 1_545 S
N360 H364 0.985 . S
H361 N356 0.984 . S
H362 N356 0.985 . S
H363 N360 0.984 1_565 S
H364 N360 0.985 . S
H365 N359 0.984 . S
H366 N359 0.984 . S
H367 N355 0.984 . S
H368 N355 0.985 1_565 S
C369 C370 1.363 . S
C369 C375 1.379 . S
C369 N377 1.356 . S
C370 C369 1.363 . S
C370 C376 1.363 . S
C371 C372 1.363 . S
C371 C376 1.379 . S
C371 N378 1.356 . S
C372 C371 1.363 . S
C372 C375 1.363 . S
N373 C375 1.356 . S
N373 H385 0.984 . S
N373 H386 0.985 . S
N374 C376 1.356 . S
N374 H379 0.984 . S
N374 H380 0.985 . S
C375 C369 1.379 . S
C375 C372 1.363 . S
C375 N373 1.356 . S
C376 C370 1.363 . S
C376 C371 1.379 . S
C376 N374 1.356 . S
N377 C369 1.356 . S
N377 H383 0.984 . S
N377 H384 0.984 . S
N378 C371 1.356 . S
N378 H381 0.984 . S
N378 H382 0.985 . S
H379 N374 0.984 . S
H380 N374 0.985 . S
H381 N378 0.984 . S
H382 N378 0.985 . S
H383 N377 0.984 . S
H384 N377 0.984 . S
H385 N373 0.984 . S
H386 N373 0.985 . S
C387 C388 1.363 . S
C387 C393 1.379 . S
C387 N395 1.356 . S
C388 C387 1.363 . S
C388 C394 1.363 . S
C389 C390 1.363 . S
C389 C394 1.379 . S
C389 N396 1.356 . S
C390 C389 1.363 . S
C390 C393 1.363 . S
N391 C393 1.356 . S
N391 H403 0.984 . S
N391 H404 0.985 . S
N392 C394 1.356 . S
N392 H397 0.984 . S
N392 H398 0.985 . S
C393 C387 1.379 . S
C393 C390 1.363 . S
C393 N391 1.356 . S
C394 C388 1.363 . S
C394 C389 1.379 . S
C394 N392 1.356 . S
N395 C387 1.356 . S
N395 H401 0.984 . S
N395 H402 0.984 . S
N396 C389 1.356 . S
N396 H399 0.984 . S
N396 H400 0.985 . S
H397 N392 0.984 . S
H398 N392 0.985 . S
H399 N396 0.984 . S
H400 N396 0.985 . S
H401 N395 0.984 . S
H402 N395 0.984 . S
H403 N391 0.984 . S
H404 N391 0.985 . S
C405 C406 1.363 . S
C405 C411 1.379 . S
C405 N413 1.356 . S
C406 C405 1.363 . S
C406 C412 1.363 . S
C407 C408 1.363 . S
C407 C412 1.379 . S
C407 N414 1.356 . S
C408 C407 1.363 . S
C408 C411 1.363 . S
N409 C411 1.356 . S
N409 H421 0.984 . S
N409 H422 0.985 . S
N410 C412 1.356 1_545 S
N410 H415 0.984 . S
N410 H416 0.985 . S
C411 C405 1.379 . S
C411 C408 1.363 . S
C411 N409 1.356 . S
C412 C406 1.363 . S
C412 C407 1.379 . S
C412 N410 1.356 1_565 S
N413 C405 1.356 . S
N413 H419 0.984 . S
N413 H420 0.984 . S
N414 C407 1.356 . S
N414 H417 0.984 . S
N414 H418 0.985 . S
H415 N410 0.984 . S
H416 N410 0.985 . S
H417 N414 0.984 . S
H418 N414 0.985 . S
H419 N413 0.984 . S
H420 N413 0.984 . S
H421 N409 0.984 . S
H422 N409 0.985 . S
C423 C424 1.363 . S
C423 C429 1.379 . S
C423 N431 1.356 . S
C424 C423 1.363 . S
C424 C430 1.363 . S
C425 C426 1.363 . S
C425 C430 1.379 . S
C425 N432 1.356 . S
C426 C425 1.363 . S
C426 C429 1.363 . S
N427 C429 1.356 . S
N427 H439 0.984 . S
N427 H440 0.985 . S
N428 C430 1.356 . S
N428 H433 0.984 . S
N428 H434 0.985 . S
C429 C423 1.379 . S
C429 C426 1.363 . S
C429 N427 1.356 . S
C430 C424 1.363 . S
C430 C425 1.379 . S
C430 N428 1.356 . S
N431 C423 1.356 . S
N431 H437 0.984 . S
N431 H438 0.984 . S
N432 C425 1.356 . S
N432 H435 0.984 1_545 S
N432 H436 0.985 1_545 S
H433 N428 0.984 . S
H434 N428 0.985 . S
H435 N432 0.984 1_565 S
H436 N432 0.985 1_565 S
H437 N431 0.984 . S
H438 N431 0.984 . S
H439 N427 0.984 . S
H440 N427 0.985 . S
C441 C442 1.363 . S
C441 C447 1.379 . S
C441 N449 1.356 . S
C442 C441 1.363 . S
C442 C448 1.363 . S
C443 C444 1.363 . S
C443 C448 1.379 . S
C443 N450 1.356 . S
C444 C443 1.363 . S
C444 C447 1.363 . S
N445 C447 1.356 . S
N445 H457 0.984 . S
N445 H458 0.985 . S
N446 C448 1.356 1_455 S
N446 H451 0.984 . S
N446 H452 0.985 . S
C447 C441 1.379 . S
C447 C444 1.363 . S
C447 N445 1.356 . S
C448 C442 1.363 . S
C448 C443 1.379 . S
C448 N446 1.356 1_655 S
N449 C441 1.356 . S
N449 H455 0.984 . S
N449 H456 0.984 . S
N450 C443 1.356 . S
N450 H453 0.984 . S
N450 H454 0.985 . S
H451 N446 0.984 . S
H452 N446 0.985 . S
H453 N450 0.984 . S
H454 N450 0.985 . S
H455 N449 0.984 . S
H456 N449 0.984 . S
H457 N445 0.984 . S
H458 N445 0.985 . S
C459 C460 1.363 . S
C459 C465 1.379 . S
C459 N467 1.356 . S
C460 C459 1.363 . S
C460 C466 1.363 . S
C461 C462 1.363 . S
C461 C466 1.379 . S
C461 N468 1.356 . S
C462 C461 1.363 . S
C462 C465 1.363 . S
N463 C465 1.356 . S
N463 H475 0.984 . S
N463 H476 0.985 . S
N464 C466 1.356 . S
N464 H469 0.984 . S
N464 H470 0.985 . S
C465 C459 1.379 . S
C465 C462 1.363 . S
C465 N463 1.356 . S
C466 C460 1.363 . S
C466 C461 1.379 . S
C466 N464 1.356 . S
N467 C459 1.356 . S
N467 H473 0.984 . S
N467 H474 0.984 . S
N468 C461 1.356 . S
N468 H471 0.984 . S
N468 H472 0.985 . S
H469 N464 0.984 . S
H470 N464 0.985 . S
H471 N468 0.984 . S
H472 N468 0.985 . S
H473 N467 0.984 . S
H474 N467 0.984 . S
H475 N463 0.984 . S
H476 N463 0.985 . S
C477 C478 1.363 . S
C477 C483 1.379 . S
C477 N485 1.356 . S
C478 C477 1.363 . S
C478 C484 1.363 . S
C479 C480 1.363 1_565 S
C479 C484 1.379 . S
C479 N486 1.356 1_565 S
C480 C479 1.363 1_545 S
C480 C483 1.363 1_545 S
N481 C483 1.356 1_545 S
N481 H493 0.984 . S
N481 H494 0.985 . S
N482 C484 1.356 . S
N482 H487 0.984 . S
N482 H488 0.985 . S
C483 C477 1.379 . S
C483 C480 1.363 1_565 S
C483 N481 1.356 1_565 S
C484 C478 1.363 . S
C484 C479 1.379 . S
C484 N482 1.356 . S
N485 C477 1.356 . S
N485 H491 0.984 . S
N485 H492 0.984 . S
N486 C479 1.356 1_545 S
N486 H489 0.984 . S
N486 H490 0.985 1_545 S
H487 N482 0.984 . S
H488 N482 0.985 . S
H489 N486 0.984 . S
H490 N486 0.985 1_565 S
H491 N485 0.984 . S
H492 N485 0.984 . S
H493 N481 0.984 . S
H494 N481 0.985 . S
C495 C496 1.363 . S
C495 C501 1.379 . S
C495 N503 1.356 1_455 S
C496 C495 1.363 . S
C496 C502 1.363 . S
C497 C498 1.363 . S
C497 C502 1.379 . S
C497 N504 1.356 . S
C498 C497 1.363 . S
C498 C501 1.363 . S
N499 C501 1.356 1_545 S
N499 H511 0.984 . S
N499 H512 0.985 . S
N500 C502 1.356 . S
N500 H505 0.984 1_455 S
N500 H506 0.985 . S
C501 C495 1.379 . S
C501 C498 1.363 . S
C501 N499 1.356 1_565 S
C502 C496 1.363 . S
C502 C497 1.379 . S
C502 N500 1.356 . S
N503 C495 1.356 1_655 S
N503 H509 0.984 . S
N503 H510 0.984 . S
N504 C497 1.356 . S
N504 H507 0.984 . S
N504 H508 0.985 . S
H505 N500 0.984 1_655 S
H506 N500 0.985 . S
H507 N504 0.984 . S
H508 N504 0.985 . S
H509 N503 0.984 . S
H510 N503 0.984 . S
H511 N499 0.984 . S
H512 N499 0.985 . S
C513 C514 1.363 . S
C513 C519 1.379 . S
C513 N521 1.356 . S
C514 C513 1.363 . S
C514 C520 1.363 . S
C515 C516 1.363 . S
C515 C520 1.379 . S
C515 N522 1.356 . S
C516 C515 1.363 . S
C516 C519 1.363 . S
N517 C519 1.356 . S
N517 H529 0.984 . S
N517 H530 0.985 . S
N518 C520 1.356 . S
N518 H523 0.984 . S
N518 H524 0.985 . S
C519 C513 1.379 . S
C519 C516 1.363 . S
C519 N517 1.356 . S
C520 C514 1.363 . S
C520 C515 1.379 . S
C520 N518 1.356 . S
N521 C513 1.356 . S
N521 H527 0.984 . S
N521 H528 0.984 . S
N522 C515 1.356 . S
N522 H525 0.984 . S
N522 H526 0.985 . S
H523 N518 0.984 . S
H524 N518 0.985 . S
H525 N522 0.984 . S
H526 N522 0.985 . S
H527 N521 0.984 . S
H528 N521 0.984 . S
H529 N517 0.984 . S
H530 N517 0.985 . S
C531 C532 1.363 . S
C531 C537 1.379 . S
C531 N539 1.356 . S
C532 C531 1.363 . S
C532 C538 1.363 . S
C533 C534 1.363 . S
C533 C538 1.379 . S
C533 N540 1.356 . S
C534 C533 1.363 . S
C534 C537 1.363 . S
N535 C537 1.356 . S
N535 H547 0.984 1_455 S
N535 H548 0.985 . S
N536 C538 1.356 . S
N536 H541 0.984 . S
N536 H542 0.985 . S
C537 C531 1.379 . S
C537 C534 1.363 . S
C537 N535 1.356 . S
C538 C532 1.363 . S
C538 C533 1.379 . S
C538 N536 1.356 . S
N539 C531 1.356 . S
N539 H545 0.984 . S
N539 H546 0.984 . S
N540 C533 1.356 . S
N540 H543 0.984 . S
N540 H544 0.985 . S
H541 N536 0.984 . S
H542 N536 0.985 . S
H543 N540 0.984 . S
H544 N540 0.985 . S
H545 N539 0.984 . S
H546 N539 0.984 . S
H547 N535 0.984 1_655 S
H548 N535 0.985 . S
C549 C550 1.363 . S
C549 C555 1.379 . S
C549 N557 1.356 . S
C550 C549 1.363 . S
C550 C556 1.363 . S
C551 C552 1.363 . S
C551 C556 1.379 . S
C551 N558 1.356 . S
C552 C551 1.363 . S
C552 C555 1.363 . S
N553 C555 1.356 . S
N553 H565 0.984 . S
N553 H566 0.985 . S
N554 C556 1.356 . S
N554 H559 0.984 . S
N554 H560 0.985 . S
C555 C549 1.379 . S
C555 C552 1.363 . S
C555 N553 1.356 . S
C556 C550 1.363 . S
C556 C551 1.379 . S
C556 N554 1.356 . S
N557 C549 1.356 . S
N557 H563 0.984 . S
N557 H564 0.984 . S
N558 C551 1.356 . S
N558 H561 0.984 . S
N558 H562 0.985 . S
H559 N554 0.984 . S
H560 N554 0.985 . S
H561 N558 0.984 . S
H562 N558 0.985 . S
H563 N557 0.984 . S
H564 N557 0.984 . S
H565 N553 0.984 . S
H566 N553 0.985 . S
C567 C568 1.363 1_565 S
C567 C573 1.379 . S
C567 N575 1.356 . S
C568 C567 1.363 1_545 S
C568 C574 1.363 . S
C569 C570 1.363 1_545 S
C569 C574 1.379 . S
C569 N576 1.356 . S
C570 C569 1.363 1_565 S
C570 C573 1.363 . S
N571 C573 1.356 . S
N571 H583 0.984 . S
N571 H584 0.985 . S
N572 C574 1.356 . S
N572 H577 0.984 . S
N572 H578 0.985 . S
C573 C567 1.379 . S
C573 C570 1.363 . S
C573 N571 1.356 . S
C574 C568 1.363 . S
C574 C569 1.379 . S
C574 N572 1.356 . S
N575 C567 1.356 . S
N575 H581 0.984 . S
N575 H582 0.984 . S
N576 C569 1.356 . S
N576 H579 0.984 . S
N576 H580 0.985 . S
H577 N572 0.984 . S
H578 N572 0.985 . S
H579 N576 0.984 . S
H580 N576 0.985 . S
H581 N575 0.984 . S
H582 N575 0.984 . S
H583 N571 0.984 . S
H584 N571 0.985 . S
C585 C586 1.363 . S
C585 C591 1.379 . S
C585 N593 1.356 . S
C586 C585 1.363 . S
C586 C592 1.363 . S
C587 C588 1.363 . S
C587 C592 1.379 . S
C587 N594 1.356 . S
C588 C587 1.363 . S
C588 C591 1.363 . S
N589 C591 1.356 . S
N589 H601 0.984 . S
N589 H602 0.985 . S
N590 C592 1.356 1_565 S
N590 H595 0.984 . S
N590 H596 0.985 . S
C591 C585 1.379 . S
C591 C588 1.363 . S
C591 N589 1.356 . S
C592 C586 1.363 . S
C592 C587 1.379 . S
C592 N590 1.356 1_545 S
N593 C585 1.356 . S
N593 H599 0.984 . S
N593 H600 0.984 . S
N594 C587 1.356 . S
N594 H597 0.984 . S
N594 H598 0.985 1_545 S
H595 N590 0.984 . S
H596 N590 0.985 . S
H597 N594 0.984 . S
H598 N594 0.985 1_565 S
H599 N593 0.984 . S
H600 N593 0.984 . S
H601 N589 0.984 . S
H602 N589 0.985 . S
C603 C604 1.363 1_455 S
C603 C609 1.379 1_455 S
C603 N611 1.356 . S
C604 C603 1.363 1_655 S
C604 C610 1.363 . S
C605 C606 1.363 . S
C605 C610 1.379 . S
C605 N612 1.356 . S
C606 C605 1.363 . S
C606 C609 1.363 . S
N607 C609 1.356 1_455 S
N607 H619 0.984 . S
N607 H620 0.985 1_455 S
N608 C610 1.356 . S
N608 H613 0.984 . S
N608 H614 0.985 . S
C609 C603 1.379 1_655 S
C609 C606 1.363 . S
C609 N607 1.356 1_655 S
C610 C604 1.363 . S
C610 C605 1.379 . S
C610 N608 1.356 . S
N611 C603 1.356 . S
N611 H617 0.984 . S
N611 H618 0.984 . S
N612 C605 1.356 . S
N612 H615 0.984 . S
N612 H616 0.985 . S
H613 N608 0.984 . S
H614 N608 0.985 . S
H615 N612 0.984 . S
H616 N612 0.985 . S
H617 N611 0.984 . S
H618 N611 0.984 . S
H619 N607 0.984 . S
H620 N607 0.985 1_655 S
C621 C622 1.363 . S
C621 C627 1.379 . S
C621 N629 1.356 . S
C622 C621 1.363 . S
C622 C628 1.363 . S
C623 C624 1.363 . S
C623 C628 1.379 . S
C623 N630 1.356 . S
C624 C623 1.363 . S
C624 C627 1.363 . S
N625 C627 1.356 . S
N625 H637 0.984 . S
N625 H638 0.985 . S
N626 C628 1.356 . S
N626 H631 0.984 . S
N626 H632 0.985 . S
C627 C621 1.379 . S
C627 C624 1.363 . S
C627 N625 1.356 . S
C628 C622 1.363 . S
C628 C623 1.379 . S
C628 N626 1.356 . S
N629 C621 1.356 . S
N629 H635 0.984 . S
N629 H636 0.984 . S
N630 C623 1.356 . S
N630 H633 0.984 . S
N630 H634 0.985 . S
H631 N626 0.984 . S
H632 N626 0.985 . S
H633 N630 0.984 . S
H634 N630 0.985 . S
H635 N629 0.984 . S
H636 N629 0.984 . S
H637 N625 0.984 . S
H638 N625 0.985 . S
C639 C640 1.363 . S
C639 C645 1.379 . S
C639 N647 1.356 . S
C640 C639 1.363 . S
C640 C646 1.363 . S
C641 C642 1.363 . S
C641 C646 1.379 . S
C641 N648 1.356 . S
C642 C641 1.363 . S
C642 C645 1.363 . S
N643 C645 1.356 . S
N643 H655 0.984 . S
N643 H656 0.985 . S
N644 C646 1.356 . S
N644 H649 0.984 . S
N644 H650 0.985 . S
C645 C639 1.379 . S
C645 C642 1.363 . S
C645 N643 1.356 . S
C646 C640 1.363 . S
C646 C641 1.379 . S
C646 N644 1.356 . S
N647 C639 1.356 . S
N647 H653 0.984 . S
N647 H654 0.984 . S
N648 C641 1.356 . S
N648 H651 0.984 . S
N648 H652 0.985 . S
H649 N644 0.984 . S
H650 N644 0.985 . S
H651 N648 0.984 . S
H652 N648 0.985 . S
H653 N647 0.984 . S
H654 N647 0.984 . S
H655 N643 0.984 . S
H656 N643 0.985 . S
C657 C658 1.363 . S
C657 C663 1.379 . S
C657 N665 1.356 1_545 S
C658 C657 1.363 . S
C658 C664 1.363 . S
C659 C660 1.363 . S
C659 C664 1.379 . S
C659 N666 1.356 . S
C660 C659 1.363 . S
C660 C663 1.363 . S
N661 C663 1.356 . S
N661 H673 0.984 . S
N661 H674 0.985 . S
N662 C664 1.356 . S
N662 H667 0.984 1_545 S
N662 H668 0.985 . S
C663 C657 1.379 . S
C663 C660 1.363 . S
C663 N661 1.356 . S
C664 C658 1.363 . S
C664 C659 1.379 . S
C664 N662 1.356 . S
N665 C657 1.356 1_565 S
N665 H671 0.984 1_565 S
N665 H672 0.984 . S
N666 C659 1.356 . S
N666 H669 0.984 . S
N666 H670 0.985 . S
H667 N662 0.984 1_565 S
H668 N662 0.985 . S
H669 N666 0.984 . S
H670 N666 0.985 . S
H671 N665 0.984 1_545 S
H672 N665 0.984 . S
H673 N661 0.984 . S
H674 N661 0.985 . S
C675 C676 1.363 . S
C675 C681 1.379 1_655 S
C675 N683 1.356 . S
C676 C675 1.363 . S
C676 C682 1.363 . S
C677 C678 1.363 . S
C677 C682 1.379 1_455 S
C677 N684 1.356 . S
C678 C677 1.363 . S
C678 C681 1.363 . S
N679 C681 1.356 . S
N679 H691 0.984 . S
N679 H692 0.985 . S
N680 C682 1.356 . S
N680 H685 0.984 . S
N680 H686 0.985 . S
C681 C675 1.379 1_455 S
C681 C678 1.363 . S
C681 N679 1.356 . S
C682 C676 1.363 . S
C682 C677 1.379 1_655 S
C682 N680 1.356 . S
N683 C675 1.356 . S
N683 H689 0.984 . S
N683 H690 0.984 . S
N684 C677 1.356 . S
N684 H687 0.984 . S
N684 H688 0.985 . S
H685 N680 0.984 . S
H686 N680 0.985 . S
H687 N684 0.984 . S
H688 N684 0.985 . S
H689 N683 0.984 . S
H690 N683 0.984 . S
H691 N679 0.984 . S
H692 N679 0.985 . S
C208 C44 1.338 1_554 S
C210 C17 1.228 1_556 S
C226 C62 1.526 1_556 S
C228 C40 1.402 . S
C244 C64 1.266 1_554 S
C246 C21 1.279 1_554 S
C262 C63 1.272 . S
C264 C39 1.380 . S
C280 C67 0.968 . S
C282 C18 0.962 . S
C298 C16 1.322 . S
C300 C41 1.299 . S
C316 C86 1.299 . S
C318 C113 1.392 . S
C334 C136 1.521 . S
C336 C109 1.400 . S
C352 C132 1.180 . S
C354 C90 1.282 1_545 S
C370 C108 1.263 . S
C372 C133 1.244 . S
C388 C131 1.026 . S
C390 C87 1.014 . S
C406 C110 1.129 . S
C408 C85 1.147 . S
C424 C182 1.204 . S
C426 C155 1.135 . S
C442 C178 1.443 . S
C444 C200 1.555 . S
C460 C202 1.158 . S
C462 C159 1.164 . S
C478 C201 1.165 . S
C480 C177 1.263 . S
C496 C205 1.017 1_455 S
C498 C156 1.011 . S
C514 C154 1.213 . S
C516 C179 1.197 . S
C532 C134 1.560 . S
C534 C20 1.653 . S
C550 C88 1.724 . S
C552 C43 1.859 . S
C568 C65 1.655 . S
C570 C111 1.632 . S
C586 C66 1.590 . S
C588 C158 1.590 . S
C604 C19 1.630 . S
C606 C181 1.748 . S
C622 C203 1.755 . S
C624 C42 1.754 . S
C640 C89 1.716 . S
C642 C204 1.714 . S
C658 C112 1.635 1_545 S
C660 C157 1.535 . S
C676 C180 1.691 . S
C678 C135 1.804 . S
