# Generated by pormake.
# Topology ukb, (4)-cn, num edge types: 1
# Building blocks:
#     Node 0, Type 0, BuildingBlock: ICAMEG_clean_sbu_1, # of connection points: 4
#     Node 1, Type 0, BuildingBlock: ICAMEG_clean_sbu_1, # of connection points: 4
#     Node 2, Type 0, BuildingBlock: ICAMEG_clean_sbu_1, # of connection points: 4
#     Node 3, Type 0, BuildingBlock: ICAMEG_clean_sbu_1, # of connection points: 4
#     Node 4, Type 0, BuildingBlock: ICAMEG_clean_sbu_1, # of connection points: 4
#     Node 5, Type 0, BuildingBlock: ICAMEG_clean_sbu_1, # of connection points: 4
#     Node 6, Type 0, BuildingBlock: ICAMEG_clean_sbu_1, # of connection points: 4
#     Node 7, Type 0, BuildingBlock: ICAMEG_clean_sbu_1, # of connection points: 4
#     Node 8, Type 0, BuildingBlock: ICAMEG_clean_sbu_1, # of connection points: 4
#     Node 9, Type 0, BuildingBlock: ICAMEG_clean_sbu_1, # of connection points: 4
#     Node 10, Type 0, BuildingBlock: ICAMEG_clean_sbu_1, # of connection points: 4
#     Node 11, Type 0, BuildingBlock: ICAMEG_clean_sbu_1, # of connection points: 4
#     Node 12, Type 0, BuildingBlock: ICAMEG_clean_sbu_1, # of connection points: 4
#     Node 13, Type 0, BuildingBlock: ICAMEG_clean_sbu_1, # of connection points: 4
#     Node 14, Type 0, BuildingBlock: ICAMEG_clean_sbu_1, # of connection points: 4
#     Node 15, Type 0, BuildingBlock: ICAMEG_clean_sbu_1, # of connection points: 4
#     Edge 16, Type (0, 0), BuildingBlock: AJUNOK_clean_linker_0, # of connection points: 2
#     Edge 17, Type (0, 0), BuildingBlock: AJUNOK_clean_linker_0, # of connection points: 2
#     Edge 18, Type (0, 0), BuildingBlock: AJUNOK_clean_linker_0, # of connection points: 2
#     Edge 19, Type (0, 0), BuildingBlock: AJUNOK_clean_linker_0, # of connection points: 2
#     Edge 20, Type (0, 0), BuildingBlock: AJUNOK_clean_linker_0, # of connection points: 2
#     Edge 21, Type (0, 0), BuildingBlock: AJUNOK_clean_linker_0, # of connection points: 2
#     Edge 22, Type (0, 0), BuildingBlock: AJUNOK_clean_linker_0, # of connection points: 2
#     Edge 23, Type (0, 0), BuildingBlock: AJUNOK_clean_linker_0, # of connection points: 2
#     Edge 24, Type (0, 0), BuildingBlock: AJUNOK_clean_linker_0, # of connection points: 2
#     Edge 25, Type (0, 0), BuildingBlock: AJUNOK_clean_linker_0, # of connection points: 2
#     Edge 26, Type (0, 0), BuildingBlock: AJUNOK_clean_linker_0, # of connection points: 2
#     Edge 27, Type (0, 0), BuildingBlock: AJUNOK_clean_linker_0, # of connection points: 2
#     Edge 28, Type (0, 0), BuildingBlock: AJUNOK_clean_linker_0, # of connection points: 2
#     Edge 29, Type (0, 0), BuildingBlock: AJUNOK_clean_linker_0, # of connection points: 2
#     Edge 30, Type (0, 0), BuildingBlock: AJUNOK_clean_linker_0, # of connection points: 2
#     Edge 31, Type (0, 0), BuildingBlock: AJUNOK_clean_linker_0, # of connection points: 2
#     Edge 32, Type (0, 0), BuildingBlock: AJUNOK_clean_linker_0, # of connection points: 2
#     Edge 33, Type (0, 0), BuildingBlock: AJUNOK_clean_linker_0, # of connection points: 2
#     Edge 34, Type (0, 0), BuildingBlock: AJUNOK_clean_linker_0, # of connection points: 2
#     Edge 35, Type (0, 0), BuildingBlock: AJUNOK_clean_linker_0, # of connection points: 2
#     Edge 36, Type (0, 0), BuildingBlock: AJUNOK_clean_linker_0, # of connection points: 2
#     Edge 37, Type (0, 0), BuildingBlock: AJUNOK_clean_linker_0, # of connection points: 2
#     Edge 38, Type (0, 0), BuildingBlock: AJUNOK_clean_linker_0, # of connection points: 2
#     Edge 39, Type (0, 0), BuildingBlock: AJUNOK_clean_linker_0, # of connection points: 2
#     Edge 40, Type (0, 0), BuildingBlock: AJUNOK_clean_linker_0, # of connection points: 2
#     Edge 41, Type (0, 0), BuildingBlock: AJUNOK_clean_linker_0, # of connection points: 2
#     Edge 42, Type (0, 0), BuildingBlock: AJUNOK_clean_linker_0, # of connection points: 2
#     Edge 43, Type (0, 0), BuildingBlock: AJUNOK_clean_linker_0, # of connection points: 2
#     Edge 44, Type (0, 0), BuildingBlock: AJUNOK_clean_linker_0, # of connection points: 2
#     Edge 45, Type (0, 0), BuildingBlock: AJUNOK_clean_linker_0, # of connection points: 2
#     Edge 46, Type (0, 0), BuildingBlock: AJUNOK_clean_linker_0, # of connection points: 2
#     Edge 47, Type (0, 0), BuildingBlock: AJUNOK_clean_linker_0, # of connection points: 2
# Relax obj value: 0.075
# Max RMSD: 0.090
# Mean RMSD: 0.090
data_MOF--net-ukb--node1-ICAMEG_clean_sbu_1--edge1-AJUNOK_clean_linker_0
_symmetry_space_group_name_H-M    P1
_symmetry_Int_Tables_number       1
_symmetry_cell_setting            triclinic
loop_
_symmetry_equiv_pos_as_xyz
'x, y, z'
_cell_length_a     34.972414
_cell_length_b     34.969601
_cell_length_c     32.433444
_cell_angle_alpha  89.998614
_cell_angle_beta   89.958465
_cell_angle_gamma 90.018987
loop_
_atom_site_label
_atom_site_type_symbol
_atom_site_fract_x
_atom_site_fract_y
_atom_site_fract_z
_atom_type_partial_charge
Co0 Co 0.58785 0.19109 0.14754 0.0
Co1 Co 0.53353 0.18746 0.23617 0.0
O2 O 0.53902 0.18085 0.17586 0.0
C3 C 0.52771 0.21821 0.08539 0.0
O4 O 0.49822 0.20753 0.1076 0.0
C5 C 0.50019 0.11001 0.22293 0.0
O6 O 0.52741 0.10252 0.19627 0.0
O7 O 0.5777 0.15284 0.24679 0.0
O8 O 0.61683 0.17014 0.1955 0.0
H9 H 0.58136 0.21053 0.38016 0.0
H10 H 0.52746 0.14264 0.10807 0.0
O11 O 0.56187 0.2132 0.09775 0.0
H12 H 0.64348 0.06296 0.10986 0.0
H13 H 0.67832 0.19723 0.0265 0.0
H14 H 0.6621 0.22315 0.17493 0.0
H15 H 0.64471 0.12832 0.13794 0.0
H16 H 0.61741 0.18232 0.06138 0.0
O17 O 0.49796 0.14266 0.23999 0.0
H18 H 0.58734 0.20287 0.30488 0.0
H19 H 0.46763 0.18477 0.29473 0.0
H20 H 0.72363 0.23784 0.14143 0.0
H21 H 0.52509 0.07781 0.07906 0.0
H22 H 0.73202 0.22511 0.06663 0.0
H23 H 0.58339 0.03729 0.07988 0.0
O24 O 0.58984 0.24348 0.17151 0.0
H25 H 0.40913 0.22486 0.17037 0.0
H26 H 0.51144 0.26544 0.26536 0.0
H27 H 0.45758 0.30904 0.25134 0.0
H28 H 0.40588 0.28878 0.20361 0.0
H29 H 0.46374 0.1823 0.18498 0.0
H30 H 0.46038 0.19192 0.36997 0.0
H31 H 0.51749 0.20505 0.41321 0.0
O32 O 0.56891 0.23234 0.23566 0.0
C33 C 0.61054 0.15342 0.22978 0.0
C34 C 0.55622 0.20501 0.36163 0.0
C35 C 0.48834 0.19451 0.35592 0.0
N36 N 0.52784 0.19385 0.29533 0.0
C37 C 0.55942 0.20082 0.31895 0.0
C38 C 0.49264 0.19045 0.31332 0.0
C39 C 0.52039 0.20188 0.38016 0.0
C40 C 0.55316 0.12578 0.10783 0.0
N41 N 0.58636 0.13988 0.12399 0.0
C42 C 0.55156 0.08879 0.09166 0.0
C43 C 0.58423 0.06603 0.09224 0.0
C44 C 0.61793 0.0804 0.10907 0.0
C45 C 0.61842 0.1175 0.12499 0.0
C46 C 0.67503 0.2029 0.05912 0.0
C47 C 0.66559 0.21715 0.14245 0.0
C48 C 0.64056 0.19462 0.07902 0.0
N49 N 0.63623 0.20162 0.12025 0.0
C50 C 0.70048 0.22569 0.1236 0.0
C51 C 0.70516 0.21853 0.08164 0.0
C52 C 0.58573 0.25324 0.20904 0.0
C53 C 0.43144 0.23399 0.19127 0.0
C54 C 0.48918 0.25651 0.24436 0.0
C55 C 0.45868 0.28127 0.23665 0.0
C56 C 0.42966 0.26987 0.2099 0.0
N57 N 0.49068 0.22135 0.226 0.0
C58 C 0.46236 0.20998 0.19974 0.0
Co59 Co 0.30133 0.58724 0.64137 0.0
Co60 Co 0.3189 0.53334 0.72743 0.0
O61 O 0.32108 0.54059 0.66733 0.0
C62 C 0.28279 0.52372 0.57938 0.0
O63 O 0.3002 0.49674 0.60027 0.0
C64 C 0.39729 0.50743 0.74715 0.0
O65 O 0.39902 0.53689 0.7722 0.0
O66 O 0.34848 0.58147 0.73524 0.0
O67 O 0.31969 0.61918 0.68891 0.0
H68 H 0.30224 0.57632 0.87425 0.0
H69 H 0.35831 0.53708 0.59821 0.0
O70 O 0.28161 0.55807 0.59241 0.0
H71 H 0.41441 0.66624 0.59693 0.0
H72 H 0.27076 0.67399 0.52192 0.0
H73 H 0.25571 0.65318 0.67143 0.0
H74 H 0.35179 0.65481 0.62935 0.0
H75 H 0.30123 0.61874 0.55579 0.0
O76 O 0.36775 0.50275 0.72451 0.0
H77 H 0.30414 0.58431 0.79876 0.0
H78 H 0.3311 0.46669 0.7838 0.0
H79 H 0.22503 0.70899 0.63885 0.0
H80 H 0.42055 0.54733 0.56488 0.0
H81 H 0.23188 0.71912 0.56342 0.0
H82 H 0.44917 0.61233 0.56405 0.0
O83 O 0.25112 0.57939 0.66873 0.0
H84 H 0.29057 0.40658 0.66128 0.0
H85 H 0.24647 0.50181 0.76286 0.0
H86 H 0.20846 0.44339 0.7514 0.0
H87 H 0.23057 0.39516 0.70045 0.0
H88 H 0.32738 0.4657 0.67329 0.0
H89 H 0.3296 0.45746 0.85917 0.0
H90 H 0.31504 0.51252 0.90494 0.0
O91 O 0.27022 0.56337 0.73211 0.0
C92 C 0.34117 0.61442 0.72034 0.0
C93 C 0.30854 0.55208 0.85463 0.0
C94 C 0.32389 0.48538 0.84617 0.0
N95 N 0.31746 0.52597 0.78684 0.0
C96 C 0.30959 0.55642 0.81184 0.0
C97 C 0.32466 0.49078 0.80351 0.0
C98 C 0.31573 0.51628 0.87183 0.0
C99 C 0.36993 0.56554 0.59737 0.0
N100 N 0.35062 0.5954 0.6148 0.0
C101 C 0.4055 0.57114 0.57871 0.0
C102 C 0.42159 0.60759 0.57834 0.0
C103 C 0.40211 0.63783 0.59676 0.0
C104 C 0.36659 0.63114 0.61508 0.0
C105 C 0.26757 0.6698 0.55481 0.0
C106 C 0.25951 0.65789 0.63876 0.0
C107 C 0.28478 0.63859 0.57419 0.0
N108 N 0.28065 0.63295 0.61569 0.0
C109 C 0.24192 0.68945 0.62045 0.0
C110 C 0.24587 0.69523 0.57815 0.0
C111 C 0.24491 0.57581 0.70719 0.0
C112 C 0.28069 0.42731 0.68366 0.0
C113 C 0.25617 0.48111 0.74042 0.0
C114 C 0.23458 0.448 0.73418 0.0
C115 C 0.24701 0.42095 0.70561 0.0
N116 N 0.28931 0.48703 0.71895 0.0
C117 C 0.30151 0.46075 0.69071 0.0
Co118 Co 0.91477 0.31516 0.1507 0.0
Co119 Co 0.96873 0.30634 0.24051 0.0
O120 O 0.96316 0.31861 0.18138 0.0
C121 C 0.97398 0.2793 0.09318 0.0
O122 O 0.0027 0.28601 0.11812 0.0
C123 C 0.99447 0.38706 0.23432 0.0
O124 O 0.96756 0.39293 0.2069 0.0
O125 O 0.92122 0.3351 0.25556 0.0
O126 O 0.88759 0.34095 0.19691 0.0
H127 H 0.92402 0.25865 0.37858 0.0
H128 H 0.98393 0.35408 0.11517 0.0
O129 O 0.93987 0.28871 0.10263 0.0
H130 H 0.8802 0.44889 0.10714 0.0
H131 H 0.8307 0.31925 0.02445 0.0
H132 H 0.83507 0.29619 0.17437 0.0
H133 H 0.86816 0.38493 0.13608 0.0
H134 H 0.89128 0.32583 0.06268 0.0
O135 O 0.99937 0.35405 0.25 0.0
H136 H 0.91761 0.27396 0.30474 0.0
H137 H 0.03296 0.31188 0.30081 0.0
H138 H 0.77377 0.2901 0.13748 0.0
H139 H 0.99702 0.41723 0.08536 0.0
H140 H 0.77134 0.30135 0.06191 0.0
H141 H 0.945 0.46538 0.08124 0.0
O142 O 0.90325 0.26406 0.17509 0.0
H143 H 0.09741 0.28935 0.17403 0.0
H144 H 0.99813 0.22827 0.25969 0.0
H145 H 0.05646 0.19223 0.24198 0.0
H146 H 0.10666 0.22282 0.19894 0.0
H147 H 0.03839 0.3242 0.19207 0.0
H148 H 0.04052 0.2973 0.37474 0.0
H149 H 0.98582 0.2704 0.41413 0.0
O150 O 0.93824 0.25886 0.23303 0.0
C151 C 0.89205 0.3465 0.23545 0.0
C152 C 0.94808 0.27035 0.36177 0.0
C153 C 0.01344 0.29209 0.35962 0.0
N154 N 0.97482 0.29391 0.29847 0.0
C155 C 0.94463 0.27904 0.31991 0.0
C156 C 0.00894 0.30043 0.31778 0.0
C157 C 0.98274 0.27698 0.38169 0.0
C158 C 0.96085 0.37424 0.11278 0.0
N159 N 0.92507 0.36517 0.12665 0.0
C160 C 0.96857 0.41028 0.09618 0.0
C161 C 0.93941 0.43732 0.09398 0.0
C162 C 0.90308 0.4281 0.10852 0.0
C163 C 0.89645 0.39178 0.12495 0.0
C164 C 0.83138 0.31425 0.05738 0.0
C165 C 0.8342 0.30159 0.14158 0.0
C166 C 0.86565 0.31779 0.07919 0.0
N167 N 0.86673 0.31157 0.12081 0.0
C168 C 0.79942 0.2979 0.12081 0.0
C169 C 0.79809 0.30423 0.07841 0.0
C170 C 0.91432 0.24595 0.20702 0.0
C171 C 0.07578 0.27574 0.19287 0.0
C172 C 0.01971 0.2417 0.24071 0.0
C173 C 0.05275 0.22119 0.23091 0.0
C174 C 0.08093 0.23839 0.20681 0.0
N175 N 0.01489 0.27833 0.22693 0.0
C176 C 0.04238 0.29538 0.20331 0.0
Co177 Co 0.18975 0.91904 0.64492 0.0
Co178 Co 0.18637 0.96882 0.73709 0.0
O179 O 0.1794 0.96587 0.67677 0.0
C180 C 0.21837 0.98324 0.58821 0.0
O181 O 0.20842 0.01123 0.61289 0.0
C182 C 0.10723 0.99823 0.72615 0.0
O183 O 0.10109 0.97159 0.69844 0.0
O184 O 0.15435 0.92239 0.74578 0.0
O185 O 0.168 0.88679 0.69022 0.0
H186 H 0.21446 0.91596 0.87796 0.0
H187 H 0.14254 0.98259 0.60993 0.0
O188 O 0.21257 0.9484 0.59765 0.0
H189 H 0.06173 0.86759 0.60057 0.0
H190 H 0.19973 0.8404 0.51538 0.0
H191 H 0.22171 0.84267 0.66558 0.0
H192 H 0.12671 0.86363 0.62945 0.0
H193 H 0.1814 0.89666 0.5566 0.0
O194 O 0.13978 0.00163 0.74319 0.0
H195 H 0.20603 0.91299 0.80258 0.0
H196 H 0.18047 0.03164 0.79915 0.0
H197 H 0.24005 0.78552 0.62548 0.0
H198 H 0.07813 0.98776 0.5803 0.0
H199 H 0.2297 0.78468 0.54958 0.0
H200 H 0.03705 0.92999 0.57551 0.0
O201 O 0.24187 0.91482 0.66945 0.0
H202 H 0.21608 0.09837 0.67838 0.0
H203 H 0.2635 0.99355 0.76626 0.0
H204 H 0.30393 0.05039 0.75494 0.0
H205 H 0.28022 0.10336 0.71081 0.0
H206 H 0.17675 0.0408 0.69018 0.0
H207 H 0.18825 0.03586 0.87457 0.0
H208 H 0.20551 0.97775 0.9145 0.0
O209 O 0.23292 0.9361 0.73394 0.0
C210 C 0.15333 0.89091 0.726 0.0
C211 C 0.20714 0.94153 0.8609 0.0
C212 C 0.19235 0.00879 0.859 0.0
N213 N 0.1932 0.97215 0.79638 0.0
C214 C 0.20252 0.94005 0.81817 0.0
C215 C 0.18793 0.00621 0.81629 0.0
C216 C 0.20205 0.97619 0.88138 0.0
C217 C 0.12539 0.95716 0.60731 0.0
N218 N 0.13891 0.92272 0.62084 0.0
C219 C 0.08866 0.96033 0.59077 0.0
C220 C 0.06559 0.92795 0.58821 0.0
C221 C 0.07941 0.89295 0.60229 0.0
C222 C 0.11625 0.8909 0.61871 0.0
C223 C 0.20442 0.84055 0.54837 0.0
C224 C 0.21641 0.84209 0.63275 0.0
C225 C 0.19415 0.87234 0.5719 0.0
N226 N 0.20038 0.87294 0.61353 0.0
C227 C 0.22701 0.80974 0.61018 0.0
C228 C 0.22115 0.80918 0.56767 0.0
C229 C 0.25292 0.91925 0.70658 0.0
C230 C 0.22671 0.07551 0.69772 0.0
C231 C 0.25308 0.01636 0.74678 0.0
C232 C 0.27605 0.04854 0.74061 0.0
C233 C 0.26271 0.07827 0.71588 0.0
N234 N 0.21779 0.0139 0.72888 0.0
C235 C 0.20452 0.04291 0.70461 0.0
Co236 Co 0.59227 0.3175 0.86092 0.0
Co237 Co 0.53497 0.30516 0.77453 0.0
O238 O 0.54293 0.31989 0.83239 0.0
C239 C 0.54238 0.27107 0.91767 0.0
O240 O 0.52919 0.2516 0.8861 0.0
C241 C 0.5087 0.38573 0.77587 0.0
O242 O 0.54044 0.39385 0.79563 0.0
O243 O 0.58078 0.335 0.75558 0.0
O244 O 0.61858 0.33861 0.81156 0.0
H245 H 0.57465 0.25524 0.63564 0.0
H246 H 0.52639 0.35748 0.89893 0.0
O247 O 0.56714 0.29726 0.91209 0.0
H248 H 0.62805 0.45472 0.888 0.0
H249 H 0.68117 0.33221 0.98237 0.0
H250 H 0.67067 0.2951 0.83625 0.0
H251 H 0.63947 0.38851 0.86487 0.0
H252 H 0.61923 0.33577 0.94634 0.0
O253 O 0.50167 0.35126 0.76562 0.0
H254 H 0.58436 0.27418 0.70811 0.0
H255 H 0.46702 0.30339 0.71902 0.0
H256 H 0.73331 0.29229 0.87049 0.0
H257 H 0.51383 0.42327 0.92286 0.0
H258 H 0.73893 0.31045 0.94434 0.0
H259 H 0.56485 0.47244 0.91732 0.0
O260 O 0.60177 0.26425 0.84057 0.0
H261 H 0.41216 0.28495 0.85198 0.0
H262 H 0.50761 0.22539 0.76025 0.0
H263 H 0.45241 0.18749 0.78417 0.0
H264 H 0.40416 0.2173 0.83029 0.0
H265 H 0.46801 0.32172 0.82765 0.0
H266 H 0.45601 0.28524 0.64651 0.0
H267 H 0.51008 0.26081 0.60433 0.0
O268 O 0.56772 0.25931 0.78187 0.0
C269 C 0.61182 0.34457 0.77353 0.0
C270 C 0.55089 0.26597 0.65363 0.0
C271 C 0.48432 0.28285 0.65972 0.0
N272 N 0.52638 0.29031 0.71763 0.0
C273 C 0.55623 0.27678 0.69468 0.0
C274 C 0.49076 0.29335 0.70069 0.0
C275 C 0.51465 0.2691 0.63609 0.0
C276 C 0.54878 0.37869 0.89664 0.0
N277 N 0.58359 0.36921 0.88045 0.0
C278 C 0.54148 0.4159 0.91015 0.0
C279 C 0.57011 0.44348 0.907 0.0
C280 C 0.60557 0.43357 0.89053 0.0
C281 C 0.61182 0.39608 0.87733 0.0
C282 C 0.67911 0.32396 0.95028 0.0
C283 C 0.67281 0.3033 0.86823 0.0
C284 C 0.64401 0.32564 0.92981 0.0
N285 N 0.64118 0.31535 0.88926 0.0
C286 C 0.70841 0.30151 0.88757 0.0
C287 C 0.71151 0.31179 0.92894 0.0
C288 C 0.59109 0.24618 0.80833 0.0
C289 C 0.43294 0.27168 0.8318 0.0
C290 C 0.4868 0.23854 0.78043 0.0
C291 C 0.45556 0.21696 0.79379 0.0
C292 C 0.42849 0.23371 0.81965 0.0
N293 N 0.4909 0.27581 0.79237 0.0
C294 C 0.46453 0.2924 0.8178 0.0
Co295 Co 0.18999 0.58337 0.35482 0.0
Co296 Co 0.18386 0.53329 0.26447 0.0
O297 O 0.17698 0.53667 0.32448 0.0
C298 C 0.23265 0.52892 0.41006 0.0
O299 O 0.25414 0.51788 0.37905 0.0
C300 C 0.10543 0.50315 0.27779 0.0
O301 O 0.09978 0.53015 0.30518 0.0
O302 O 0.15158 0.57955 0.25634 0.0
O303 O 0.17413 0.61643 0.30722 0.0
H304 H 0.21021 0.58576 0.12302 0.0
H305 H 0.13843 0.52682 0.39411 0.0
O306 O 0.20545 0.55249 0.40412 0.0
H307 H 0.06353 0.64604 0.38596 0.0
H308 H 0.19578 0.66761 0.48084 0.0
H309 H 0.23405 0.65371 0.33528 0.0
H310 H 0.12993 0.64391 0.3605 0.0
H311 H 0.1766 0.61073 0.44097 0.0
O312 O 0.13739 0.50009 0.25938 0.0
H313 H 0.20223 0.58907 0.19847 0.0
H314 H 0.17799 0.47013 0.20288 0.0
H315 H 0.25352 0.7112 0.37385 0.0
H316 H 0.07224 0.52782 0.42045 0.0
H317 H 0.23438 0.71847 0.44722 0.0
H318 H 0.03428 0.58773 0.41632 0.0
O319 O 0.24305 0.58165 0.33258 0.0
H320 H 0.21588 0.40563 0.32635 0.0
H321 H 0.26033 0.5082 0.2336 0.0
H322 H 0.30149 0.45205 0.24564 0.0
H323 H 0.27927 0.40022 0.29225 0.0
H324 H 0.17576 0.46246 0.31368 0.0
H325 H 0.18534 0.46559 0.1274 0.0
H326 H 0.20175 0.52366 0.08697 0.0
O327 O 0.23058 0.5663 0.2669 0.0
C328 C 0.15585 0.61209 0.27346 0.0
C329 C 0.20324 0.56022 0.14031 0.0
C330 C 0.18923 0.49279 0.14277 0.0
N331 N 0.19016 0.52976 0.20514 0.0
C332 C 0.19884 0.56189 0.18307 0.0
C333 C 0.18506 0.49555 0.1855 0.0
C334 C 0.19844 0.52538 0.1201 0.0
C335 C 0.12221 0.55309 0.3926 0.0
N336 N 0.13805 0.58526 0.37583 0.0
C337 C 0.0847 0.55345 0.4074 0.0
C338 C 0.06339 0.58705 0.405 0.0
C339 C 0.07976 0.61976 0.38791 0.0
C340 C 0.11733 0.61833 0.37338 0.0
C341 C 0.20409 0.66491 0.44881 0.0
C342 C 0.22525 0.65678 0.36705 0.0
C343 C 0.1933 0.63275 0.42605 0.0
N344 N 0.20361 0.62913 0.38555 0.0
C345 C 0.2365 0.68937 0.3888 0.0
C346 C 0.22578 0.69342 0.42995 0.0
C347 C 0.25264 0.57965 0.29472 0.0
C348 C 0.22583 0.42797 0.30588 0.0
C349 C 0.2505 0.48581 0.254 0.0
C350 C 0.2739 0.45405 0.26064 0.0
C351 C 0.26141 0.42497 0.28678 0.0
N352 N 0.21558 0.48847 0.27275 0.0
C353 C 0.20318 0.46014 0.2985 0.0
Co354 Co 0.91745 0.19315 0.86312 0.0
Co355 Co 0.96979 0.19119 0.77344 0.0
O356 O 0.96478 0.18135 0.83289 0.0
C357 C 0.97032 0.2338 0.92198 0.0
O358 O 0.98192 0.25676 0.89247 0.0
C359 C 0.99628 0.11048 0.78009 0.0
O360 O 0.9691 0.10368 0.80701 0.0
O361 O 0.92257 0.16109 0.76185 0.0
O362 O 0.88534 0.17911 0.81446 0.0
H363 H 0.92123 0.22904 0.6335 0.0
H364 H 0.97392 0.14032 0.90032 0.0
O365 O 0.94728 0.20663 0.91388 0.0
H366 H 0.85537 0.06495 0.88688 0.0
H367 H 0.83095 0.19285 0.98758 0.0
H368 H 0.8467 0.23644 0.84404 0.0
H369 H 0.85725 0.13242 0.86507 0.0
H370 H 0.88862 0.17572 0.94793 0.0
O371 O 1.00115 0.14386 0.76547 0.0
H372 H 0.91636 0.21704 0.70824 0.0
H373 H 0.03359 0.18551 0.7124 0.0
H374 H 0.78854 0.25393 0.88236 0.0
H375 H 0.97316 0.07301 0.92311 0.0
H376 H 0.78029 0.23225 0.95476 0.0
H377 H 0.9136 0.03482 0.91629 0.0
O378 O 0.91878 0.24743 0.84353 0.0
H379 H 0.09723 0.2139 0.84026 0.0
H380 H 0.99932 0.26782 0.74772 0.0
H381 H 0.05706 0.30552 0.76356 0.0
H382 H 0.10657 0.27853 0.81008 0.0
H383 H 0.03883 0.17732 0.82382 0.0
H384 H 0.03959 0.19668 0.6376 0.0
H385 H 0.98319 0.21878 0.59767 0.0
O386 O 0.93891 0.23893 0.77863 0.0
C387 C 0.89003 0.16328 0.7794 0.0
C388 C 0.94605 0.21952 0.65058 0.0
C389 C 0.01246 0.20133 0.65288 0.0
N390 N 0.97471 0.20086 0.71474 0.0
C391 C 0.94349 0.21278 0.69294 0.0
C392 C 0.00886 0.19497 0.69522 0.0
C393 C 0.98081 0.21373 0.63049 0.0
C394 C 0.9478 0.12398 0.89764 0.0
N395 N 0.91568 0.14032 0.88142 0.0
C396 C 0.94758 0.08584 0.91043 0.0
C397 C 0.91417 0.06441 0.90653 0.0
C398 C 0.88151 0.08128 0.88999 0.0
C399 C 0.8828 0.11948 0.8775 0.0
C400 C 0.83414 0.20248 0.95605 0.0
C401 C 0.84335 0.2267 0.87545 0.0
C402 C 0.8668 0.19295 0.93346 0.0
N403 N 0.87106 0.20497 0.8936 0.0
C404 C 0.81031 0.23676 0.89705 0.0
C405 C 0.80573 0.22458 0.93764 0.0
C406 C 0.92378 0.25946 0.80675 0.0
C407 C 0.07589 0.22595 0.8199 0.0
C408 C 0.02061 0.25597 0.76815 0.0
C409 C 0.05332 0.2774 0.77691 0.0
C410 C 0.0811 0.26223 0.80299 0.0
N411 N 0.01575 0.22039 0.7848 0.0
C412 C 0.04283 0.20534 0.81042 0.0
Co413 Co 0.31078 0.91864 0.36429 0.0
Co414 Co 0.30956 0.96664 0.27184 0.0
O415 O 0.31915 0.96528 0.33163 0.0
C416 C 0.26684 0.97277 0.41926 0.0
O417 O 0.24383 0.98165 0.38873 0.0
C418 C 0.38774 0.99922 0.27805 0.0
O419 O 0.39579 0.97311 0.30576 0.0
O420 O 0.34354 0.92176 0.26304 0.0
O421 O 0.32785 0.88552 0.31735 0.0
H422 H 0.2782 0.90885 0.13407 0.0
H423 H 0.35884 0.98077 0.39839 0.0
O424 O 0.29451 0.94979 0.41328 0.0
H425 H 0.44251 0.86736 0.39419 0.0
H426 H 0.3135 0.83834 0.49343 0.0
H427 H 0.27573 0.84303 0.34708 0.0
H428 H 0.37553 0.86322 0.37103 0.0
H429 H 0.32692 0.89554 0.45142 0.0
O430 O 0.35429 0.0016 0.26288 0.0
H431 H 0.28935 0.90831 0.20908 0.0
H432 H 0.31051 0.02792 0.20773 0.0
H433 H 0.26226 0.78505 0.38779 0.0
H434 H 0.42552 0.98609 0.42248 0.0
H435 H 0.281 0.78249 0.46161 0.0
H436 H 0.46789 0.92913 0.42031 0.0
O437 O 0.25687 0.91511 0.34438 0.0
H438 H 0.27478 0.09476 0.33077 0.0
H439 H 0.23063 0.98719 0.24473 0.0
H440 H 0.18761 0.04191 0.25702 0.0
H441 H 0.20967 0.09624 0.30024 0.0
H442 H 0.31676 0.03927 0.31793 0.0
H443 H 0.30002 0.02968 0.13257 0.0
H444 H 0.28358 0.96986 0.09525 0.0
O445 O 0.26485 0.93159 0.27803 0.0
C446 C 0.34342 0.88988 0.28204 0.0
C447 C 0.28521 0.93513 0.14999 0.0
C448 C 0.2975 0.00294 0.14915 0.0
N449 N 0.30028 0.96809 0.21286 0.0
C450 C 0.29142 0.93503 0.19252 0.0
C451 C 0.30347 0.00175 0.1917 0.0
C452 C 0.28828 0.96936 0.12823 0.0
C453 C 0.37703 0.95579 0.39767 0.0
N454 N 0.3633 0.92174 0.38328 0.0
C455 C 0.41479 0.95901 0.41121 0.0
C456 C 0.43856 0.92705 0.40993 0.0
C457 C 0.42435 0.8924 0.39523 0.0
C458 C 0.38644 0.89027 0.38195 0.0
C459 C 0.30518 0.83909 0.4613 0.0
C460 C 0.28427 0.84208 0.37908 0.0
C461 C 0.31257 0.8715 0.43738 0.0
N462 N 0.3021 0.87273 0.3968 0.0
C463 C 0.27648 0.80916 0.40201 0.0
C464 C 0.28697 0.80776 0.44343 0.0
C465 C 0.24537 0.91679 0.30714 0.0
C466 C 0.26488 0.0713 0.3118 0.0
C467 C 0.24039 0.01068 0.26367 0.0
C468 C 0.21593 0.04162 0.27045 0.0
C469 C 0.22834 0.0721 0.29469 0.0
N470 N 0.27623 0.01019 0.28045 0.0
C471 C 0.28856 0.0399 0.30433 0.0
Co472 Co 0.4221 0.81123 0.84869 0.0
Co473 Co 0.4686 0.81257 0.75464 0.0
O474 O 0.46799 0.8193 0.81494 0.0
C475 C 0.45088 0.75799 0.91316 0.0
O476 O 0.4283 0.7319 0.89723 0.0
C477 C 0.49991 0.89036 0.76591 0.0
O478 O 0.47288 0.89637 0.79323 0.0
O479 O 0.42315 0.84629 0.74783 0.0
O480 O 0.38872 0.83271 0.80429 0.0
H481 H 0.41077 0.78574 0.61573 0.0
H482 H 0.4878 0.85361 0.88375 0.0
O483 O 0.45449 0.79034 0.89521 0.0
H484 H 0.37967 0.94393 0.88876 0.0
H485 H 0.34382 0.81382 0.97948 0.0
H486 H 0.34505 0.77961 0.83199 0.0
H487 H 0.37078 0.87861 0.86191 0.0
H488 H 0.40099 0.82581 0.9369 0.0
O489 O 0.50293 0.85807 0.74815 0.0
H490 H 0.41034 0.79402 0.69117 0.0
H491 H 0.52944 0.81758 0.6903 0.0
H492 H 0.28706 0.76771 0.87323 0.0
H493 H 0.49786 0.91848 0.91153 0.0
H494 H 0.28621 0.7846 0.94761 0.0
H495 H 0.4436 0.96422 0.91395 0.0
O496 O 0.41528 0.75912 0.8246 0.0
H497 H 0.59817 0.77698 0.8092 0.0
H498 H 0.48954 0.73506 0.72348 0.0
H499 H 0.54503 0.69233 0.73232 0.0
H500 H 0.59992 0.71329 0.77533 0.0
H501 H 0.5419 0.81866 0.79984 0.0
H502 H 0.53114 0.80995 0.61472 0.0
H503 H 0.47153 0.79378 0.57694 0.0
O504 O 0.43399 0.7674 0.75887 0.0
C505 C 0.39219 0.84761 0.76854 0.0
C506 C 0.43698 0.79265 0.63184 0.0
C507 C 0.50451 0.80631 0.63128 0.0
N508 N 0.46984 0.80599 0.69521 0.0
C509 C 0.43693 0.7972 0.67461 0.0
C510 C 0.50334 0.81069 0.67407 0.0
C511 C 0.47106 0.79722 0.6101 0.0
C512 C 0.46394 0.8732 0.88513 0.0
N513 N 0.42871 0.86227 0.87121 0.0
C514 C 0.46985 0.90996 0.90072 0.0
C515 C 0.43942 0.93563 0.902 0.0
C516 C 0.40356 0.92429 0.88781 0.0
C517 C 0.39872 0.8873 0.87241 0.0
C518 C 0.34384 0.8062 0.94714 0.0
C519 C 0.34494 0.78718 0.86431 0.0
C520 C 0.37623 0.81276 0.92292 0.0
N521 N 0.37658 0.80312 0.88207 0.0
C522 C 0.31199 0.78032 0.88752 0.0
C523 C 0.31154 0.78983 0.92924 0.0
C524 C 0.41761 0.74819 0.7872 0.0
C525 C 0.57447 0.76756 0.7903 0.0
C526 C 0.51324 0.74431 0.7424 0.0
C527 C 0.54462 0.72003 0.7472 0.0
C528 C 0.57542 0.73182 0.77132 0.0
N529 N 0.51261 0.77939 0.76099 0.0
C530 C 0.54261 0.79108 0.7848 0.0
Co531 Co 0.69064 0.41242 0.36347 0.0
Co532 Co 0.68968 0.46703 0.27521 0.0
O533 O 0.68067 0.46089 0.33476 0.0
C534 C 0.73335 0.4643 0.42197 0.0
O535 O 0.75397 0.47809 0.39154 0.0
C536 C 0.61011 0.49535 0.28497 0.0
O537 O 0.60328 0.46755 0.31111 0.0
O538 O 0.65819 0.42093 0.26241 0.0
O539 O 0.67385 0.38226 0.31458 0.0
H540 H 0.72338 0.4211 0.13297 0.0
H541 H 0.64199 0.47101 0.40333 0.0
O542 O 0.70697 0.44014 0.41466 0.0
H543 H 0.55988 0.35698 0.39048 0.0
H544 H 0.6881 0.32225 0.48469 0.0
H545 H 0.72816 0.33966 0.34011 0.0
H546 H 0.62673 0.3555 0.36656 0.0
H547 H 0.67412 0.38236 0.44796 0.0
O548 O 0.64312 0.49976 0.26929 0.0
H549 H 0.71324 0.41473 0.20789 0.0
H550 H 0.68449 0.53249 0.21628 0.0
H551 H 0.74303 0.27941 0.37564 0.0
H552 H 0.57541 0.47359 0.42833 0.0
H553 H 0.7225 0.27009 0.44846 0.0
H554 H 0.53381 0.41633 0.4218 0.0
O555 O 0.74448 0.4115 0.34243 0.0
H556 H 0.71708 0.59187 0.34574 0.0
H557 H 0.76662 0.49513 0.24891 0.0
H558 H 0.80626 0.55126 0.26594 0.0
H559 H 0.78149 0.60016 0.31466 0.0
H560 H 0.67851 0.53509 0.32804 0.0
H561 H 0.69397 0.54004 0.14137 0.0
H562 H 0.71366 0.4841 0.0992 0.0
O563 O 0.73655 0.43477 0.27862 0.0
C564 C 0.65872 0.38811 0.27944 0.0
C565 C 0.71493 0.44572 0.15103 0.0
C566 C 0.69837 0.51246 0.15574 0.0
N567 N 0.69854 0.47325 0.21651 0.0
C568 C 0.70926 0.44232 0.1935 0.0
C569 C 0.69299 0.50799 0.19814 0.0
C570 C 0.70943 0.48106 0.1321 0.0
C571 C 0.62416 0.44587 0.40072 0.0
N572 N 0.63825 0.41316 0.38338 0.0
C573 C 0.58644 0.44755 0.41478 0.0
C574 C 0.5631 0.41544 0.41105 0.0
C575 C 0.57768 0.38215 0.39342 0.0
C576 C 0.61553 0.38154 0.37967 0.0
C577 C 0.69709 0.32588 0.45299 0.0
C578 C 0.71934 0.33601 0.37181 0.0
C579 C 0.68941 0.35993 0.4321 0.0
N580 N 0.70051 0.36465 0.392 0.0
C581 C 0.72776 0.3017 0.39179 0.0
C582 C 0.71642 0.29661 0.43263 0.0
C583 C 0.75653 0.41764 0.30582 0.0
C584 C 0.72817 0.57079 0.32443 0.0
C585 C 0.75572 0.51617 0.27026 0.0
C586 C 0.77825 0.54797 0.2797 0.0
C587 C 0.76432 0.57541 0.30701 0.0
N588 N 0.72028 0.51187 0.28744 0.0
C589 C 0.70643 0.53865 0.31422 0.0
Co590 Co 0.08877 0.69094 0.8601 0.0
Co591 Co 0.03427 0.68558 0.77109 0.0
O592 O 0.04002 0.68103 0.83154 0.0
C593 C 0.0285 0.7243 0.91875 0.0
O594 O 0.99911 0.71252 0.89709 0.0
C595 C 0.00395 0.60736 0.78642 0.0
O596 O 0.03184 0.60106 0.81258 0.0
O597 O 0.07918 0.65176 0.76139 0.0
O598 O 0.11763 0.66506 0.81473 0.0
H599 H 0.08095 0.70573 0.6261 0.0
H600 H 0.02484 0.64727 0.90002 0.0
O601 O 0.06272 0.71767 0.90731 0.0
H602 H 0.13798 0.56428 0.91149 0.0
H603 H 0.17656 0.70276 0.98281 0.0
H604 H 0.16507 0.71698 0.83205 0.0
H605 H 0.14276 0.62725 0.87806 0.0
H606 H 0.11588 0.68771 0.94764 0.0
O607 O 1.00006 0.63977 0.76922 0.0
H608 H 0.08724 0.70125 0.70165 0.0
H609 H 0.96844 0.67833 0.71296 0.0
H610 H 0.22642 0.73155 0.86585 0.0
H611 H 0.0189 0.585 0.93431 0.0
H612 H 0.23246 0.7247 0.94183 0.0
H613 H 0.07572 0.54279 0.94022 0.0
O614 O 0.09384 0.74151 0.83218 0.0
H615 H 0.90876 0.72148 0.83564 0.0
H616 H 0.01 0.76191 0.7391 0.0
H617 H 0.95486 0.80432 0.75147 0.0
H618 H 0.90368 0.78413 0.79996 0.0
H619 H 0.96464 0.6801 0.82265 0.0
H620 H 0.96093 0.68211 0.63749 0.0
H621 H 0.01742 0.69601 0.59351 0.0
O622 O 0.06819 0.73137 0.76983 0.0
C623 C 0.11118 0.64928 0.77996 0.0
C624 C 0.05607 0.69984 0.64493 0.0
C625 C 0.98873 0.68651 0.65133 0.0
N626 N 0.02822 0.68991 0.71177 0.0
C627 C 0.05943 0.69747 0.68776 0.0
C628 C 0.99318 0.68436 0.69406 0.0
C629 C 0.02044 0.69432 0.62667 0.0
C630 C 0.04992 0.62976 0.90311 0.0
N631 N 0.08431 0.64164 0.88772 0.0
C632 C 0.04629 0.59417 0.92229 0.0
C633 C 0.07813 0.57046 0.92549 0.0
C634 C 0.11304 0.58249 0.90937 0.0
C635 C 0.11555 0.61824 0.89037 0.0
C636 C 0.17432 0.70581 0.94969 0.0
C637 C 0.16755 0.71346 0.86505 0.0
C638 C 0.13999 0.69746 0.9296 0.0
N639 N 0.13698 0.70119 0.88774 0.0
C640 C 0.20234 0.72195 0.88407 0.0
C641 C 0.20568 0.71812 0.92668 0.0
C642 C 0.08715 0.75168 0.79517 0.0
C643 C 0.93084 0.73058 0.8144 0.0
C644 C 0.98799 0.75302 0.76046 0.0
C645 C 0.95676 0.77711 0.76722 0.0
C646 C 0.92804 0.76574 0.79441 0.0
N647 N 0.99051 0.71856 0.78018 0.0
C648 C 0.96248 0.70723 0.80685 0.0
Co649 Co 0.80974 0.084 0.35693 0.0
Co650 Co 0.81335 0.03216 0.26754 0.0
O651 O 0.8214 0.03654 0.32718 0.0
C652 C 0.76721 0.03197 0.41502 0.0
O653 O 0.74455 0.02093 0.38503 0.0
C654 C 0.89262 0.00373 0.27717 0.0
O655 O 0.89916 0.03207 0.30273 0.0
O656 O 0.84562 0.07817 0.25761 0.0
O657 O 0.8245 0.11627 0.30827 0.0
H658 H 0.7838 0.08239 0.12591 0.0
H659 H 0.8615 0.02725 0.3954 0.0
O660 O 0.79517 0.05425 0.40747 0.0
H661 H 0.93851 0.14468 0.38114 0.0
H662 H 0.81121 0.17085 0.48083 0.0
H663 H 0.76556 0.15435 0.33817 0.0
H664 H 0.87114 0.14351 0.35886 0.0
H665 H 0.82743 0.11282 0.44145 0.0
O666 O 0.85961 0.99891 0.26161 0.0
H667 H 0.79407 0.08697 0.20094 0.0
H668 H 0.81728 0.96793 0.20705 0.0
H669 H 0.74845 0.21257 0.37639 0.0
H670 H 0.92869 0.02729 0.41852 0.0
H671 H 0.77179 0.22145 0.44825 0.0
H672 H 0.9677 0.08629 0.41131 0.0
O673 O 0.75588 0.08287 0.33628 0.0
H674 H 0.78257 0.9054 0.33231 0.0
H675 H 0.73594 0.00701 0.23966 0.0
H676 H 0.69491 0.95116 0.25392 0.0
H677 H 0.71822 0.89982 0.30048 0.0
H678 H 0.82254 0.96195 0.31745 0.0
H679 H 0.80773 0.9621 0.13196 0.0
H680 H 0.79063 0.01957 0.09091 0.0
O681 O 0.76703 0.06534 0.27085 0.0
C682 C 0.84181 0.11104 0.27408 0.0
C683 C 0.79103 0.05709 0.14349 0.0
C684 C 0.80451 0.9896 0.14688 0.0
N685 N 0.80564 0.02768 0.20848 0.0
C686 C 0.79668 0.05949 0.18603 0.0
C687 C 0.80991 0.99309 0.18939 0.0
C688 C 0.79491 0.02185 0.12387 0.0
C689 C 0.87818 0.05315 0.39259 0.0
N690 N 0.86236 0.08534 0.37592 0.0
C691 C 0.91626 0.05295 0.40556 0.0
C692 C 0.93815 0.08604 0.40143 0.0
C693 C 0.9218 0.1188 0.38445 0.0
C694 C 0.88367 0.11791 0.37174 0.0
C695 C 0.8012 0.16754 0.44946 0.0
C696 C 0.77595 0.15798 0.36926 0.0
C697 C 0.81029 0.13472 0.42698 0.0
N698 N 0.79795 0.1304 0.38725 0.0
C699 C 0.76613 0.19108 0.39084 0.0
C700 C 0.77903 0.19591 0.43115 0.0
C701 C 0.74574 0.07998 0.29862 0.0
C702 C 0.77214 0.92753 0.31188 0.0
C703 C 0.74625 0.98483 0.26004 0.0
C704 C 0.72292 0.95324 0.26793 0.0
C705 C 0.73602 0.92444 0.29404 0.0
N706 N 0.78169 0.98758 0.27755 0.0
C707 C 0.79469 0.95953 0.30326 0.0
Co708 Co 0.42162 0.69106 0.15472 0.0
Co709 Co 0.46778 0.68725 0.24843 0.0
O710 O 0.46744 0.68156 0.18811 0.0
C711 C 0.45022 0.7426 0.08889 0.0
O712 O 0.4267 0.76839 0.10373 0.0
C713 C 0.49897 0.60939 0.23661 0.0
O714 O 0.47206 0.60343 0.20918 0.0
O715 O 0.42246 0.65328 0.25398 0.0
O716 O 0.38754 0.67029 0.1991 0.0
H717 H 0.40841 0.70967 0.38752 0.0
H718 H 0.48606 0.64653 0.12002 0.0
O719 O 0.45464 0.71105 0.10818 0.0
H720 H 0.37489 0.56 0.11375 0.0
H721 H 0.34263 0.69072 0.02446 0.0
H722 H 0.34604 0.7259 0.17164 0.0
H723 H 0.36809 0.62542 0.14101 0.0
H724 H 0.39943 0.6767 0.06669 0.0
O725 O 0.50206 0.64169 0.25432 0.0
H726 H 0.40872 0.70315 0.31184 0.0
H727 H 0.52824 0.68187 0.3131 0.0
H728 H 0.28867 0.74047 0.13058 0.0
H729 H 0.49405 0.58153 0.09187 0.0
H730 H 0.2866 0.72278 0.05639 0.0
H731 H 0.43823 0.5377 0.08873 0.0
O732 O 0.4166 0.74342 0.1792 0.0
H733 H 0.59769 0.72394 0.19547 0.0
H734 H 0.48858 0.76412 0.28157 0.0
H735 H 0.54415 0.80701 0.27404 0.0
H736 H 0.59928 0.78693 0.23084 0.0
H737 H 0.54133 0.68208 0.20354 0.0
H738 H 0.5292 0.68779 0.38887 0.0
H739 H 0.46899 0.70195 0.42658 0.0
O740 O 0.43332 0.73263 0.24498 0.0
C741 C 0.39122 0.65348 0.23383 0.0
C742 C 0.43488 0.70372 0.37143 0.0
C743 C 0.50265 0.69136 0.37219 0.0
N744 N 0.46851 0.69263 0.308 0.0
C745 C 0.43526 0.7002 0.32855 0.0
C746 C 0.50191 0.68799 0.32928 0.0
C747 C 0.46886 0.69931 0.39333 0.0
C748 C 0.46153 0.62777 0.11838 0.0
N749 N 0.42659 0.63988 0.13202 0.0
C750 C 0.46627 0.59093 0.10256 0.0
C751 C 0.43496 0.56634 0.10088 0.0
C752 C 0.39944 0.57882 0.11495 0.0
C753 C 0.39578 0.61586 0.13057 0.0
C754 C 0.34313 0.69857 0.05674 0.0
C755 C 0.34546 0.71814 0.13939 0.0
C756 C 0.3753 0.69077 0.0808 0.0
N757 N 0.37626 0.70067 0.12157 0.0
C758 C 0.31281 0.72642 0.11629 0.0
C759 C 0.31171 0.71655 0.07468 0.0
C760 C 0.41808 0.75329 0.21706 0.0
C761 C 0.57388 0.73297 0.21445 0.0
C762 C 0.51238 0.75526 0.26255 0.0
C763 C 0.54381 0.77963 0.2585 0.0
C764 C 0.57474 0.76833 0.23428 0.0
N765 N 0.51183 0.72057 0.24314 0.0
C766 C 0.54196 0.70935 0.21922 0.0
Co767 Co 0.818 0.41464 0.65274 0.0
Co768 Co 0.81018 0.47066 0.74117 0.0
O769 O 0.82223 0.46379 0.68207 0.0
C770 C 0.78325 0.47233 0.59226 0.0
O771 O 0.79099 0.50226 0.61516 0.0
C772 C 0.89115 0.49595 0.73537 0.0
O773 O 0.89745 0.46831 0.70886 0.0
O774 O 0.83884 0.42337 0.75736 0.0
O775 O 0.84386 0.38855 0.6995 0.0
H776 H 0.76228 0.42851 0.88003 0.0
H777 H 0.85821 0.48287 0.61671 0.0
O778 O 0.79166 0.43857 0.60399 0.0
H779 H 0.95103 0.37737 0.60886 0.0
H780 H 0.82131 0.32661 0.52949 0.0
H781 H 0.79979 0.33575 0.67943 0.0
H782 H 0.88688 0.36658 0.63782 0.0
H783 H 0.8271 0.38862 0.56518 0.0
O784 O 0.85792 0.50125 0.75026 0.0
H785 H 0.77824 0.42063 0.80647 0.0
H786 H 0.81529 0.53617 0.80006 0.0
H787 H 0.79561 0.2731 0.64537 0.0
H788 H 0.9216 0.49473 0.58697 0.0
H789 H 0.80568 0.26816 0.56968 0.0
H790 H 0.96877 0.44181 0.58294 0.0
O791 O 0.76643 0.40432 0.67737 0.0
H792 H 0.79425 0.59731 0.67022 0.0
H793 H 0.73279 0.50201 0.7606 0.0
H794 H 0.69736 0.56021 0.7411 0.0
H795 H 0.72817 0.60842 0.69566 0.0
H796 H 0.82844 0.53844 0.69013 0.0
H797 H 0.8 0.54522 0.87366 0.0
H798 H 0.77318 0.49118 0.91413 0.0
O799 O 0.76248 0.44056 0.73422 0.0
C800 C 0.8501 0.39385 0.73775 0.0
C801 C 0.77391 0.4523 0.86272 0.0
C802 C 0.79514 0.51778 0.85915 0.0
N803 N 0.79767 0.47789 0.79896 0.0
C804 C 0.78295 0.44802 0.82104 0.0
C805 C 0.80387 0.51244 0.81751 0.0
C806 C 0.78006 0.48745 0.88184 0.0
C807 C 0.87789 0.45939 0.61434 0.0
N808 N 0.86812 0.42381 0.62827 0.0
C809 C 0.9141 0.46641 0.59776 0.0
C810 C 0.94059 0.43676 0.59563 0.0
C811 C 0.93066 0.40063 0.61017 0.0
C812 C 0.89421 0.39471 0.62659 0.0
C813 C 0.81664 0.32836 0.56243 0.0
C814 C 0.8049 0.33387 0.64663 0.0
C815 C 0.81963 0.36345 0.58279 0.0
N816 N 0.81392 0.36584 0.62444 0.0
C817 C 0.8021 0.29829 0.62739 0.0
C818 C 0.80789 0.29558 0.58499 0.0
C819 C 0.74854 0.4162 0.7092 0.0
C820 C 0.78052 0.57654 0.69006 0.0
C821 C 0.74624 0.52266 0.74053 0.0
C822 C 0.72611 0.55566 0.72974 0.0
C823 C 0.74343 0.58273 0.7043 0.0
N824 N 0.7826 0.51678 0.72642 0.0
C825 C 0.79978 0.54321 0.70153 0.0
Co826 Co 0.09136 0.8123 0.14841 0.0
Co827 Co 0.03514 0.81432 0.23468 0.0
O828 O 0.04263 0.8243 0.17557 0.0
C829 C 0.03739 0.77624 0.08752 0.0
O830 O 0.02132 0.75664 0.11743 0.0
C831 C 0.00672 0.89386 0.22588 0.0
O832 O 0.03572 0.90149 0.20156 0.0
O833 O 0.08068 0.84613 0.24829 0.0
O834 O 0.12103 0.82521 0.19964 0.0
H835 H 0.07782 0.78074 0.37816 0.0
H836 H 0.03843 0.86659 0.10777 0.0
O837 O 0.06418 0.79973 0.09561 0.0
H838 H 0.15723 0.93947 0.13104 0.0
H839 H 0.18593 0.81386 0.03098 0.0
H840 H 0.15936 0.7662 0.1711 0.0
H841 H 0.15258 0.87191 0.15209 0.0
H842 H 0.12598 0.83092 0.06646 0.0
O843 O 0.00167 0.86041 0.24018 0.0
H844 H 0.08621 0.7922 0.30373 0.0
H845 H 0.968 0.8174 0.29146 0.0
H846 H 0.21969 0.74864 0.13704 0.0
H847 H 0.04207 0.93399 0.08561 0.0
H848 H 0.2335 0.77265 0.06641 0.0
H849 H 0.10176 0.97093 0.09735 0.0
O850 O 0.08746 0.75801 0.16689 0.0
H851 H 0.91183 0.78585 0.16167 0.0
H852 H 0.00834 0.73635 0.25875 0.0
H853 H 0.9531 0.69603 0.24014 0.0
H854 H 0.90432 0.72079 0.19133 0.0
H855 H 0.96771 0.82511 0.18091 0.0
H856 H 0.95838 0.80672 0.3659 0.0
H857 H 0.01351 0.78806 0.40976 0.0
O858 O 0.06847 0.76795 0.23202 0.0
C859 C 0.11434 0.84224 0.23374 0.0
C860 C 0.05353 0.78868 0.35935 0.0
C861 C 0.98652 0.8033 0.35247 0.0
N862 N 0.02759 0.80498 0.29313 0.0
C863 C 0.05809 0.79503 0.31712 0.0
C864 C 0.99216 0.80936 0.31034 0.0
C865 C 0.01745 0.79284 0.37707 0.0
C866 C 0.06462 0.88239 0.11262 0.0
N867 N 0.09525 0.86529 0.1311 0.0
C868 C 0.06646 0.92058 0.10017 0.0
C869 C 0.09994 0.9413 0.10683 0.0
C870 C 0.13105 0.92369 0.12577 0.0
C871 C 0.12818 0.88546 0.1378 0.0
C872 C 0.18039 0.80337 0.06181 0.0
C873 C 0.16514 0.77696 0.14053 0.0
C874 C 0.14641 0.81288 0.08203 0.0
N875 N 0.13924 0.79991 0.12104 0.0
C876 C 0.1994 0.76684 0.12131 0.0
C877 C 0.20705 0.78024 0.08169 0.0
C878 C 0.08339 0.74707 0.2041 0.0
C879 C 0.93283 0.77479 0.18305 0.0
C880 C 0.98729 0.74728 0.2374 0.0
C881 C 0.95603 0.72435 0.22704 0.0
C882 C 0.92866 0.73827 0.19967 0.0
N883 N 0.99109 0.78311 0.22106 0.0
C884 C 0.96445 0.79692 0.19415 0.0
Co885 Co 0.69588 0.09136 0.64839 0.0
Co886 Co 0.69039 0.03591 0.73545 0.0
O887 O 0.68366 0.04264 0.67562 0.0
C888 C 0.71821 0.03007 0.58547 0.0
O889 O 0.70655 0.00152 0.60852 0.0
C890 C 0.61251 0.00457 0.72123 0.0
O891 O 0.60577 0.03246 0.69519 0.0
O892 O 0.65661 0.08056 0.7464 0.0
O893 O 0.6781 0.12109 0.69806 0.0
H894 H 0.7123 0.08053 0.88093 0.0
H895 H 0.6435 0.03553 0.60673 0.0
O896 O 0.71516 0.06465 0.59748 0.0
H897 H 0.56993 0.15509 0.61834 0.0
H898 H 0.70014 0.18388 0.52921 0.0
H899 H 0.73637 0.16189 0.67406 0.0
H900 H 0.63585 0.15149 0.64464 0.0
H901 H 0.68439 0.12293 0.56361 0.0
O902 O 0.64502 1.00115 0.73832 0.0
H903 H 0.70492 0.08819 0.80584 0.0
H904 H 0.68707 0.96882 0.79225 0.0
H905 H 0.7511 0.22373 0.64164 0.0
H906 H 0.5781 0.0381 0.57931 0.0
H907 H 0.73334 0.23508 0.56846 0.0
H908 H 0.54066 0.09818 0.58511 0.0
O909 O 0.74873 0.08962 0.6711 0.0
H910 H 0.72567 0.91149 0.6681 0.0
H911 H 0.76805 0.01234 0.76404 0.0
H912 H 0.81075 0.95791 0.74933 0.0
H913 H 0.78958 0.90693 0.70113 0.0
H914 H 0.68403 0.96666 0.68341 0.0
H915 H 0.69364 0.95984 0.8673 0.0
H916 H 0.70659 0.01592 0.91219 0.0
O917 O 0.73586 0.07075 0.73566 0.0
C918 C 0.66033 0.11416 0.7317 0.0
C919 C 0.70696 0.05581 0.86168 0.0
C920 C 0.69644 0.9881 0.85403 0.0
N921 N 0.6964 0.02897 0.79451 0.0
C922 C 0.70303 0.05998 0.81907 0.0
C923 C 0.69276 0.99337 0.81153 0.0
C924 C 0.70369 0.01957 0.8792 0.0
C925 C 0.62798 0.062 0.60865 0.0
N926 N 0.64408 0.09348 0.62656 0.0
C927 C 0.59066 0.0632 0.59338 0.0
C928 C 0.56962 0.09687 0.59675 0.0
C929 C 0.58601 0.12878 0.61541 0.0
C930 C 0.62339 0.12651 0.63032 0.0
C931 C 0.70786 0.17945 0.56117 0.0
C932 C 0.72766 0.16689 0.64263 0.0
C933 C 0.69908 0.14497 0.5808 0.0
N934 N 0.7085 0.13928 0.62127 0.0
C935 C 0.73654 0.20184 0.62418 0.0
C936 C 0.72652 0.20814 0.58317 0.0
C937 C 0.75764 0.0864 0.70898 0.0
C938 C 0.73521 0.9335 0.68919 0.0
C939 C 0.75875 0.99044 0.74278 0.0
C940 C 0.78299 0.9596 0.7347 0.0
C941 C 0.77108 0.93099 0.70769 0.0
N942 N 0.7236 0.99267 0.72452 0.0
C943 C 0.71172 0.96475 0.69803 0.0
C944 C 0.46699 0.07324 0.27822 0.0
C945 C 0.47307 0.07997 0.23591 0.0
C946 C 0.4402 0.04604 0.29173 0.0
C947 C 0.41766 0.02575 0.26338 0.0
H948 H 0.48313 0.0891 0.30104 0.0
H949 H 0.43628 0.04173 0.32455 0.0
S950 S 0.42258 0.03286 0.14939 0.0
N951 N 0.45516 0.06351 0.16585 0.0
N952 N 0.40343 0.01374 0.19118 0.0
C953 C 0.42347 0.03222 0.22102 0.0
C954 C 0.45159 0.05899 0.20727 0.0
C955 C 0.46005 0.4832 0.77393 0.0
C956 C 0.42672 0.47677 0.75055 0.0
C957 C 0.48653 0.45384 0.7814 0.0
C958 C 0.48078 0.41663 0.76601 0.0
H959 H 0.46557 0.51105 0.78727 0.0
H960 H 0.51137 0.46035 0.80005 0.0
S961 S 0.39878 0.38485 0.7016 0.0
N962 N 0.39011 0.4304 0.71094 0.0
N963 N 0.43956 0.37539 0.72499 0.0
C964 C 0.44796 0.40997 0.7418 0.0
C965 C 0.42109 0.43996 0.73402 0.0
C966 C 0.03765 0.44126 0.21582 0.0
C967 C 0.02046 0.41839 0.24625 0.0
C968 C 0.06498 0.46899 0.2264 0.0
C969 C 0.07486 0.47566 0.26783 0.0
H970 H 0.03098 0.43673 0.18356 0.0
H971 H 0.07859 0.48525 0.20202 0.0
S972 S 0.03669 0.4246 0.35903 0.0
N973 N 0.01481 0.40448 0.31943 0.0
N974 N 0.06476 0.45799 0.33938 0.0
C975 C 0.05692 0.45391 0.29859 0.0
C976 C 0.03006 0.42486 0.28776 0.0
C977 C 0.06898 0.03017 0.78116 0.0
C978 C 0.0763 0.02435 0.73892 0.0
C979 C 0.04158 0.05686 0.79441 0.0
C980 C 0.02167 0.07949 0.76583 0.0
H981 H 0.08477 0.01414 0.80412 0.0
H982 H 0.03707 0.0609 0.82718 0.0
S983 S 0.0303 0.07512 0.65194 0.0
N984 N 0.0607 0.04247 0.6687 0.0
N985 N 0.01055 0.09398 0.69353 0.0
C986 C 0.02855 0.07372 0.72355 0.0
C987 C 0.05553 0.04575 0.71007 0.0
C988 C 0.53576 0.92842 0.71347 0.0
C989 C 0.52699 0.9211 0.75511 0.0
C990 C 0.5624 0.95672 0.70243 0.0
C991 C 0.582 0.97756 0.73279 0.0
H992 H 0.52186 0.91219 0.68927 0.0
H993 H 0.56863 0.96142 0.6701 0.0
S994 S 0.56957 0.96905 0.84598 0.0
N995 N 0.53937 0.93747 0.82661 0.0
N996 N 0.59078 0.98932 0.80602 0.0
C997 C 0.57348 0.9705 0.77447 0.0
C998 C 0.54557 0.94259 0.78562 0.0
C999 C 0.53393 0.57203 0.29018 0.0
C1000 C 0.52538 0.57836 0.2483 0.0
C1001 C 0.56013 0.54371 0.30215 0.0
C1002 C 0.57947 0.52178 0.2725 0.0
H1003 H 0.52028 0.58914 0.31384 0.0
H1004 H 0.56634 0.53992 0.33462 0.0
S1005 S 0.56736 0.5272 0.15911 0.0
N1006 N 0.53755 0.55973 0.17738 0.0
N1007 N 0.58822 0.5078 0.19973 0.0
C1008 C 0.57108 0.52771 0.23062 0.0
C1009 C 0.5436 0.55568 0.21852 0.0
C1010 C 0.95416 0.5584 0.8027 0.0
C1011 C 0.97815 0.57621 0.77379 0.0
C1012 C 0.92627 0.532 0.78998 0.0
C1013 C 0.92239 0.52173 0.74817 0.0
H1014 H 0.95595 0.56605 0.83501 0.0
H1015 H 0.90741 0.5197 0.81295 0.0
S1016 S 0.97948 0.55943 0.66092 0.0
N1017 N 0.99671 0.58168 0.70184 0.0
N1018 N 0.9455 0.53076 0.67823 0.0
C1019 C 0.94717 0.53838 0.71927 0.0
C1020 C 0.97475 0.56602 0.73203 0.0
C1021 C 0.92841 0.96836 0.22268 0.0
C1022 C 0.92381 0.97785 0.26461 0.0
C1023 C 0.95668 0.9424 0.20993 0.0
C1024 C 0.98034 0.92432 0.23888 0.0
H1025 H 0.90993 0.98102 0.19961 0.0
H1026 H 0.95911 0.93541 0.17749 0.0
S1027 S 0.97959 0.93893 0.35206 0.0
N1028 N 0.94576 0.96774 0.33476 0.0
N1029 N 0.99763 0.91749 0.31102 0.0
C1030 C 0.97611 0.93359 0.28078 0.0
C1031 C 0.94815 0.96083 0.29362 0.0
C1032 C 0.62023 0.28777 0.26424 0.0
C1033 C 0.60466 0.28829 0.22439 0.0
C1034 C 0.63805 0.31987 0.28091 0.0
C1035 C 0.64056 0.35457 0.25894 0.0
H1036 H 0.61915 0.26204 0.28279 0.0
H1037 H 0.6498 0.31713 0.31162 0.0
S1038 S 0.60533 0.37054 0.15224 0.0
N1039 N 0.59401 0.3256 0.16225 0.0
N1040 N 0.62674 0.38693 0.19407 0.0
C1041 C 0.62552 0.35545 0.21858 0.0
C1042 C 0.60782 0.32213 0.2012 0.0
C1043 C 0.2077 0.60104 0.76688 0.0
C1044 C 0.20881 0.59114 0.72486 0.0
C1045 C 0.17591 0.61917 0.78414 0.0
C1046 C 0.14322 0.62769 0.76052 0.0
H1047 H 0.23215 0.59602 0.7866 0.0
H1048 H 0.17749 0.62708 0.81632 0.0
S1049 S 0.13034 0.60538 0.64934 0.0
N1050 N 0.1738 0.58988 0.66008 0.0
N1051 N 0.11333 0.62295 0.6929 0.0
C1052 C 0.14327 0.61667 0.71868 0.0
C1053 C 0.17616 0.59871 0.70081 0.0
C1054 C 0.89169 0.14206 0.22938 0.0
C1055 C 0.85803 0.14506 0.25311 0.0
C1056 C 0.90946 0.17479 0.21294 0.0
C1057 C 0.89356 0.21123 0.21895 0.0
H1058 H 0.90521 0.1145 0.22492 0.0
H1059 H 0.9362 0.17172 0.19636 0.0
S1060 S 0.80494 0.23466 0.27601 0.0
N1061 N 0.80874 0.18771 0.27965 0.0
N1062 N 0.84221 0.2487 0.24867 0.0
C1063 C 0.85942 0.21453 0.24118 0.0
C1064 C 0.84157 0.18153 0.25824 0.0
C1065 C 0.2931 0.89108 0.76194 0.0
C1066 C 0.28938 0.90176 0.72036 0.0
C1067 C 0.32628 0.8738 0.77674 0.0
C1068 C 0.35792 0.86693 0.75094 0.0
H1069 H 0.26984 0.89536 0.78344 0.0
H1070 H 0.32675 0.86562 0.8089 0.0
S1071 S 0.36311 0.88977 0.6391 0.0
N1072 N 0.31999 0.90404 0.65309 0.0
N1073 N 0.3833 0.87245 0.68117 0.0
C1074 C 0.35486 0.87774 0.70912 0.0
C1075 C 0.32042 0.89484 0.69379 0.0
C1076 C 0.59424 0.17537 0.79795 0.0
C1077 C 0.61177 0.21149 0.796 0.0
C1078 C 0.61086 0.14345 0.77845 0.0
C1079 C 0.64473 0.14711 0.75519 0.0
H1080 H 0.567 0.17207 0.81348 0.0
H1081 H 0.59622 0.11619 0.78005 0.0
S1082 S 0.70154 0.23608 0.74161 0.0
N1083 N 0.66483 0.24913 0.77032 0.0
N1084 N 0.69564 0.18995 0.73306 0.0
C1085 C 0.66264 0.18318 0.75388 0.0
C1086 C 0.64621 0.2152 0.77438 0.0
C1087 C 0.32451 0.62919 0.22583 0.0
C1088 C 0.35703 0.63362 0.25094 0.0
C1089 C 0.29155 0.61115 0.24028 0.0
C1090 C 0.28904 0.59722 0.28086 0.0
H1091 H 0.32413 0.63992 0.19453 0.0
H1092 H 0.26747 0.60893 0.21946 0.0
S1093 S 0.36546 0.60175 0.35994 0.0
N1094 N 0.38455 0.62217 0.31887 0.0
N1095 N 0.32172 0.58915 0.34638 0.0
C1096 C 0.32101 0.6016 0.3067 0.0
C1097 C 0.35515 0.61949 0.29167 0.0
C1098 C 0.89899 0.34242 0.73673 0.0
C1099 C 0.87218 0.36365 0.7594 0.0
C1100 C 0.91686 0.31032 0.75338 0.0
C1101 C 0.90884 0.29757 0.79371 0.0
H1102 H 0.90571 0.35006 0.70524 0.0
H1103 H 0.93617 0.29464 0.73352 0.0
S1104 S 0.84398 0.34593 0.86805 0.0
N1105 N 0.84073 0.37192 0.82566 0.0
N1106 N 0.87476 0.31144 0.85754 0.0
C1107 C 0.88393 0.32005 0.81791 0.0
C1108 C 0.86554 0.35307 0.80067 0.0
C1109 C 0.14266 0.88824 0.28537 0.0
C1110 C 0.14753 0.85814 0.25681 0.0
C1111 C 0.17438 0.90623 0.30386 0.0
C1112 C 0.21177 0.89439 0.29456 0.0
H1113 H 0.11433 0.89905 0.29215 0.0
H1114 H 0.16974 0.93051 0.324 0.0
S1115 S 0.24032 0.8142 0.22666 0.0
N1116 N 0.19323 0.81532 0.22377 0.0
N1117 N 0.25209 0.84915 0.25836 0.0
C1118 C 0.21694 0.86322 0.26805 0.0
C1119 C 0.18502 0.84505 0.24923 0.0
C1120 C 0.38656 0.64529 0.77092 0.0
C1121 C 0.35837 0.64897 0.73997 0.0
C1122 C 0.4049 0.67757 0.7877 0.0
C1123 C 0.3957 0.71448 0.77396 0.0
H1124 H 0.39525 0.6173 0.78163 0.0
H1125 H 0.42724 0.67358 0.81043 0.0
S1126 S 0.32124 0.74089 0.69802 0.0
N1127 N 0.32016 0.69374 0.69951 0.0
N1128 N 0.35481 0.75362 0.73098 0.0
C1129 C 0.36665 0.71881 0.74466 0.0
C1130 C 0.34791 0.68627 0.72769 0.0
C1131 C 0.83971 0.39452 0.23508 0.0
C1132 C 0.86105 0.3674 0.25714 0.0
C1133 C 0.80729 0.41164 0.25204 0.0
C1134 C 0.7943 0.40243 0.29201 0.0
H1135 H 0.84764 0.40218 0.2039 0.0
H1136 H 0.79169 0.43148 0.23274 0.0
S1137 S 0.8417 0.33483 0.36405 0.0
N1138 N 0.86841 0.33347 0.32206 0.0
N1139 N 0.80721 0.3658 0.35434 0.0
C1140 C 0.81644 0.37663 0.31537 0.0
C1141 C 0.84984 0.35913 0.29789 0.0
C1142 C 0.11297 0.79065 0.7373 0.0
C1143 C 0.10354 0.78794 0.77934 0.0
C1144 C 0.12868 0.82399 0.72071 0.0
C1145 C 0.13512 0.85667 0.74514 0.0
H1146 H 0.10885 0.76649 0.71692 0.0
H1147 H 0.13599 0.82381 0.68829 0.0
S1148 S 0.11416 0.86487 0.85722 0.0
N1149 N 0.10138 0.82076 0.84533 0.0
N1150 N 0.12989 0.88421 0.81396 0.0
C1151 C 0.12525 0.85462 0.78731 0.0
C1152 C 0.10983 0.82012 0.80443 0.0
C1153 C 0.67881 0.1334 0.2283 0.0
C1154 C 0.64384 0.13445 0.24983 0.0
C1155 C 0.71108 0.116 0.24489 0.0
C1156 C 0.71042 0.09893 0.28406 0.0
H1157 H 0.6817 0.14614 0.19805 0.0
H1158 H 0.73705 0.11638 0.22673 0.0
S1159 S 0.62726 0.09515 0.35482 0.0
N1160 N 0.61094 0.11766 0.31363 0.0
N1161 N 0.67257 0.08517 0.3451 0.0
C1162 C 0.67623 0.10044 0.3068 0.0
C1163 C 0.64275 0.11799 0.28959 0.0
C1164 C 0.38238 0.78921 0.27073 0.0
C1165 C 0.39855 0.78866 0.23105 0.0
C1166 C 0.36437 0.82175 0.28627 0.0
C1167 C 0.36201 0.85576 0.26316 0.0
H1168 H 0.38327 0.76404 0.29012 0.0
H1169 H 0.35239 0.81998 0.317 0.0
S1170 S 0.39891 0.8692 0.15663 0.0
N1171 N 0.41024 0.82462 0.1682 0.0
N1172 N 0.37668 0.88644 0.19755 0.0
C1173 C 0.37759 0.85559 0.223 0.0
C1174 C 0.3957 0.82195 0.20692 0.0
C1175 C 0.68955 0.41622 0.75277 0.0
C1176 C 0.71027 0.4 0.7198 0.0
C1177 C 0.65619 0.39929 0.76784 0.0
C1178 C 0.64175 0.36546 0.75065 0.0
H1179 H 0.69978 0.44158 0.76838 0.0
H1180 H 0.64222 0.41219 0.79419 0.0
S1181 S 0.68219 0.31285 0.66155 0.0
N1182 N 0.71171 0.34921 0.6683 0.0
N1183 N 0.64869 0.31744 0.69716 0.0
C1184 C 0.66048 0.34995 0.71617 0.0
C1185 C 0.6948 0.36719 0.70065 0.0
C1186 C 0.11308 0.64357 0.22058 0.0
C1187 C 0.13934 0.64677 0.25352 0.0
C1188 C 0.09571 0.67616 0.20319 0.0
C1189 C 0.10397 0.71283 0.21837 0.0
H1190 H 0.1052 0.61571 0.20874 0.0
H1191 H 0.07489 0.67257 0.17879 0.0
S1192 S 0.17374 0.7379 0.29993 0.0
N1193 N 0.17493 0.69082 0.29745 0.0
N1194 N 0.14213 0.75113 0.26507 0.0
C1195 C 0.13114 0.7166 0.24982 0.0
C1196 C 0.14888 0.68383 0.26733 0.0
C1197 C 0.8595 0.12242 0.72409 0.0
C1198 C 0.85582 0.14593 0.75929 0.0
C1199 C 0.82758 0.1037 0.70687 0.0
C1200 C 0.79114 0.10749 0.72469 0.0
H1201 H 0.88729 0.11779 0.71019 0.0
H1202 H 0.8316 0.08533 0.68033 0.0
S1203 S 0.76463 0.16914 0.81317 0.0
N1204 N 0.81122 0.17455 0.80826 0.0
N1205 N 0.75236 0.13894 0.77652 0.0
C1206 C 0.78681 0.13193 0.75861 0.0
C1207 C 0.81883 0.15126 0.77575 0.0
C1208 C 0.51085 0.21207 0.01074 0.0
C1209 C 0.52276 0.23491 0.04401 0.0
C1210 C 0.51526 0.22471 0.96975 0.0
C1211 C 0.53178 0.26058 0.96079 0.0
H1212 H 0.50035 0.18338 0.01631 0.0
H1213 H 0.50755 0.20541 0.94499 0.0
S1214 S 0.56243 0.33289 0.03817 0.0
N1215 N 0.54849 0.29588 0.06596 0.0
N1216 N 0.55545 0.32049 0.98964 0.0
C1217 C 0.54113 0.28461 0.99429 0.0
C1218 C 0.53706 0.27151 0.03572 0.0
C1219 C 0.22034 0.53479 0.48571 0.0
C1220 C 0.24296 0.51967 0.45356 0.0
C1221 C 0.23248 0.53365 0.52676 0.0
C1222 C 0.26725 0.51646 0.53776 0.0
H1223 H 0.19381 0.54951 0.47909 0.0
H1224 H 0.21519 0.54778 0.54995 0.0
S1225 S 0.33524 0.46858 0.46694 0.0
N1226 N 0.30066 0.48399 0.43649 0.0
N1227 N 0.32288 0.48119 0.5142 0.0
C1228 C 0.28887 0.4986 0.50674 0.0
C1229 C 0.27683 0.50029 0.46452 0.0
C1230 C 0.95996 0.23189 0.03849 0.0
C1231 C 0.98054 0.26412 0.05136 0.0
C1232 C 0.95934 0.22087 0.99701 0.0
C1233 C 0.97819 0.24244 0.96627 0.0
H1234 H 0.9431 0.21577 0.06052 0.0
H1235 H 0.94228 0.19617 0.98893 0.0
S1236 S 0.03826 0.3283 0.98511 0.0
N1237 N 0.02243 0.31621 0.03132 0.0
N1238 N 0.02045 0.2964 0.95279 0.0
C1239 C 1.00045 0.27385 0.97922 0.0
C1240 C 0.00171 0.28453 0.02186 0.0
C1241 C 0.2208 0.99751 0.47289 0.0
C1242 C 0.2576 0.98404 0.46255 0.0
C1243 C 0.20911 1.00074 0.51432 0.0
C1244 C 0.23385 0.99081 0.54673 0.0
H1245 H 0.20004 0.00331 0.44893 0.0
H1246 H 0.17974 0.0085 0.52092 0.0
S1247 S 0.33446 0.95926 0.53717 0.0
N1248 N 0.32012 0.9654 0.48913 0.0
N1249 N 0.29735 0.97019 0.56636 0.0
C1250 C 0.27129 0.97982 0.53707 0.0
C1251 C 0.28341 0.97691 0.49514 0.0
C1252 C 0.46296 0.78625 0.98296 0.0
C1253 C 0.46251 0.75393 0.95706 0.0
C1254 C 0.46223 0.7824 0.02606 0.0
C1255 C 0.46237 0.74615 0.04499 0.0
H1256 H 0.46072 0.81472 0.97006 0.0
H1257 H 0.45925 0.808 0.0446 0.0
S1258 S 0.47141 0.65298 0.99081 0.0
N1259 N 0.46866 0.68485 0.95335 0.0
N1260 N 0.46975 0.67763 0.03418 0.0
C1261 C 0.46706 0.71388 0.01943 0.0
C1262 C 0.46651 0.71777 0.97551 0.0
C1263 C 0.73752 0.4519 0.53824 0.0
C1264 C 0.76696 0.47664 0.55046 0.0
C1265 C 0.72557 0.45004 0.49714 0.0
C1266 C 0.74332 0.47199 0.46599 0.0
H1267 H 0.72429 0.43294 0.56052 0.0
H1268 H 0.7032 0.42986 0.48971 0.0
S1269 S 0.82069 0.54307 0.4828 0.0
N1270 N 0.81227 0.5254 0.52919 0.0
N1271 N 0.79064 0.52124 0.4513 0.0
C1272 C 0.7719 0.49809 0.47819 0.0
C1273 C 0.78353 0.50054 0.52053 0.0
C1274 C 0.00699 0.73493 0.03268 0.0
C1275 C 0.02867 0.7675 0.04341 0.0
C1276 C 0.00423 0.72256 0.99143 0.0
C1277 C 0.02327 0.74218 0.95962 0.0
H1278 H 0.99368 0.7177 0.05644 0.0
H1279 H 0.98926 0.69614 0.9848 0.0
S1280 S 0.07857 0.83199 0.96963 0.0
N1281 N 0.06498 0.82188 0.01715 0.0
N1282 N 0.06113 0.79743 0.94055 0.0
C1283 C 0.04287 0.77592 0.96941 0.0
C1284 C 0.04515 0.78894 0.01104 0.0
C1285 C 0.76655 0.04302 0.53137 0.0
C1286 C 0.73344 0.02343 0.54359 0.0
C1287 C 0.77855 0.04312 0.49022 0.0
C1288 C 0.75727 0.02461 0.45909 0.0
H1289 H 0.78275 0.05945 0.55368 0.0
H1290 H 0.80387 0.05948 0.48268 0.0
S1291 S 0.66949 0.96682 0.47606 0.0
N1292 N 0.68084 0.98265 0.52246 0.0
N1293 N 0.70257 0.98365 0.44448 0.0
C1294 C 0.72496 0.00328 0.47136 0.0
C1295 C 0.71321 0.00255 0.51373 0.0
loop_
_geom_bond_atom_site_label_1
_geom_bond_atom_site_label_2
_geom_bond_distance
_geom_bond_site_symmetry_2
_ccdc_geom_bond_type
Co0 O2 2.143 . S
Co0 O8 2.074 . S
Co0 O11 2.093 . S
Co0 O24 2.097 . S
Co0 N41 2.151 . S
Co0 N49 2.214 . S
Co1 O2 2.160 . S
Co1 O7 2.058 . S
Co1 O17 2.057 . S
Co1 O32 2.037 . S
Co1 N36 2.145 . S
Co1 N57 2.257 . S
O2 Co0 2.143 . S
O2 Co1 2.160 . S
C3 O4 1.278 . S
C3 O11 1.224 . S
O4 C3 1.278 . S
C5 O6 1.245 . S
C5 O17 1.232 . S
O6 C5 1.245 . S
O7 Co1 2.058 . S
O7 C33 1.269 . S
O8 Co0 2.074 . S
O8 C33 1.257 . S
H9 C34 0.930 . S
H10 C40 0.930 . S
O11 Co0 2.093 . S
O11 C3 1.224 . S
H12 C44 0.929 . S
H13 C46 0.930 . S
H14 C47 0.930 . S
H15 C45 0.929 . S
H16 C48 0.928 . S
O17 Co1 2.057 . S
O17 C5 1.232 . S
H18 C37 0.929 . S
H19 C38 0.929 . S
H20 C50 0.931 . S
H21 C42 0.929 . S
H22 C51 0.930 . S
H23 C43 0.931 . S
O24 Co0 2.097 . S
O24 C52 1.214 . S
H25 C53 0.929 . S
H26 C54 0.929 . S
H27 C55 0.930 . S
H28 C56 0.929 . S
H29 C58 0.930 . S
H30 C35 0.930 . S
H31 C39 0.930 . S
O32 Co1 2.037 . S
O32 C52 1.234 . S
C33 O7 1.269 . S
C33 O8 1.257 . S
C34 H9 0.930 . S
C34 C37 1.388 . S
C34 C39 1.418 . S
C35 H30 0.930 . S
C35 C38 1.404 . S
C35 C39 1.353 . S
N36 Co1 2.145 . S
N36 C37 1.397 . S
N36 C38 1.334 . S
C37 H18 0.929 . S
C37 C34 1.388 . S
C37 N36 1.397 . S
C38 H19 0.929 . S
C38 C35 1.404 . S
C38 N36 1.334 . S
C39 H31 0.930 . S
C39 C34 1.418 . S
C39 C35 1.353 . S
C40 H10 0.930 . S
C40 N41 1.330 . S
C40 C42 1.446 . S
N41 Co0 2.151 . S
N41 C40 1.330 . S
N41 C45 1.418 . S
C42 H21 0.929 . S
C42 C40 1.446 . S
C42 C43 1.332 . S
C43 H23 0.931 . S
C43 C42 1.332 . S
C43 C44 1.267 . S
C44 H12 0.929 . S
C44 C43 1.267 . S
C44 C45 1.251 . S
C45 H15 0.929 . S
C45 N41 1.418 . S
C45 C44 1.251 . S
C46 H13 0.930 . S
C46 C48 1.406 . S
C46 C51 1.261 . S
C47 H14 0.930 . S
C47 N49 1.325 . S
C47 C50 1.357 . S
C48 H16 0.928 . S
C48 C46 1.406 . S
C48 N49 1.261 . S
N49 Co0 2.214 . S
N49 C47 1.325 . S
N49 C48 1.261 . S
C50 H20 0.931 . S
C50 C47 1.357 . S
C50 C51 1.312 . S
C51 H22 0.930 . S
C51 C46 1.261 . S
C51 C50 1.312 . S
C52 O24 1.214 . S
C52 O32 1.234 . S
C53 H25 0.929 . S
C53 C56 1.391 . S
C53 C58 1.391 . S
C54 H26 0.929 . S
C54 C55 1.390 . S
C54 N57 1.391 . S
C55 H27 0.930 . S
C55 C54 1.390 . S
C55 C56 1.392 . S
C56 H28 0.929 . S
C56 C53 1.391 . S
C56 C55 1.392 . S
N57 Co1 2.257 . S
N57 C54 1.391 . S
N57 C58 1.388 . S
C58 H29 0.930 . S
C58 C53 1.391 . S
C58 N57 1.388 . S
Co59 O61 2.143 . S
Co59 O67 2.074 . S
Co59 O70 2.093 . S
Co59 O83 2.097 . S
Co59 N100 2.151 . S
Co59 N108 2.214 . S
Co60 O61 2.160 . S
Co60 O66 2.058 . S
Co60 O76 2.057 . S
Co60 O91 2.037 . S
Co60 N95 2.145 . S
Co60 N116 2.257 . S
O61 Co59 2.143 . S
O61 Co60 2.160 . S
C62 O63 1.278 . S
C62 O70 1.224 . S
O63 C62 1.278 . S
C64 O65 1.245 . S
C64 O76 1.232 . S
O65 C64 1.245 . S
O66 Co60 2.058 . S
O66 C92 1.269 . S
O67 Co59 2.074 . S
O67 C92 1.257 . S
H68 C93 0.930 . S
H69 C99 0.930 . S
O70 Co59 2.093 . S
O70 C62 1.224 . S
H71 C103 0.929 . S
H72 C105 0.930 . S
H73 C106 0.930 . S
H74 C104 0.929 . S
H75 C107 0.928 . S
O76 Co60 2.057 . S
O76 C64 1.232 . S
H77 C96 0.929 . S
H78 C97 0.929 . S
H79 C109 0.931 . S
H80 C101 0.929 . S
H81 C110 0.930 . S
H82 C102 0.931 . S
O83 Co59 2.097 . S
O83 C111 1.214 . S
H84 C112 0.929 . S
H85 C113 0.929 . S
H86 C114 0.930 . S
H87 C115 0.929 . S
H88 C117 0.930 . S
H89 C94 0.930 . S
H90 C98 0.930 . S
O91 Co60 2.037 . S
O91 C111 1.234 . S
C92 O66 1.269 . S
C92 O67 1.257 . S
C93 H68 0.930 . S
C93 C96 1.388 . S
C93 C98 1.418 . S
C94 H89 0.930 . S
C94 C97 1.404 . S
C94 C98 1.353 . S
N95 Co60 2.145 . S
N95 C96 1.397 . S
N95 C97 1.334 . S
C96 H77 0.929 . S
C96 C93 1.388 . S
C96 N95 1.397 . S
C97 H78 0.929 . S
C97 C94 1.404 . S
C97 N95 1.334 . S
C98 H90 0.930 . S
C98 C93 1.418 . S
C98 C94 1.353 . S
C99 H69 0.930 . S
C99 N100 1.330 . S
C99 C101 1.446 . S
N100 Co59 2.151 . S
N100 C99 1.330 . S
N100 C104 1.418 . S
C101 H80 0.929 . S
C101 C99 1.446 . S
C101 C102 1.332 . S
C102 H82 0.931 . S
C102 C101 1.332 . S
C102 C103 1.267 . S
C103 H71 0.929 . S
C103 C102 1.267 . S
C103 C104 1.251 . S
C104 H74 0.929 . S
C104 N100 1.418 . S
C104 C103 1.251 . S
C105 H72 0.930 . S
C105 C107 1.406 . S
C105 C110 1.261 . S
C106 H73 0.930 . S
C106 N108 1.325 . S
C106 C109 1.357 . S
C107 H75 0.928 . S
C107 C105 1.406 . S
C107 N108 1.261 . S
N108 Co59 2.214 . S
N108 C106 1.325 . S
N108 C107 1.261 . S
C109 H79 0.931 . S
C109 C106 1.357 . S
C109 C110 1.312 . S
C110 H81 0.930 . S
C110 C105 1.261 . S
C110 C109 1.312 . S
C111 O83 1.214 . S
C111 O91 1.234 . S
C112 H84 0.929 . S
C112 C115 1.391 . S
C112 C117 1.391 . S
C113 H85 0.929 . S
C113 C114 1.390 . S
C113 N116 1.391 . S
C114 H86 0.930 . S
C114 C113 1.390 . S
C114 C115 1.392 . S
C115 H87 0.929 . S
C115 C112 1.391 . S
C115 C114 1.392 . S
N116 Co60 2.257 . S
N116 C113 1.391 . S
N116 C117 1.388 . S
C117 H88 0.930 . S
C117 C112 1.391 . S
C117 N116 1.388 . S
Co118 O120 2.143 . S
Co118 O126 2.074 . S
Co118 O129 2.093 . S
Co118 O142 2.097 . S
Co118 N159 2.151 . S
Co118 N167 2.214 . S
Co119 O120 2.160 . S
Co119 O125 2.058 . S
Co119 O135 2.057 1_655 S
Co119 O150 2.037 . S
Co119 N154 2.145 . S
Co119 N175 2.257 1_655 S
O120 Co118 2.143 . S
O120 Co119 2.160 . S
C121 O122 1.278 1_655 S
C121 O129 1.224 . S
O122 C121 1.278 1_455 S
C123 O124 1.245 . S
C123 O135 1.232 . S
O124 C123 1.245 . S
O125 Co119 2.058 . S
O125 C151 1.269 . S
O126 Co118 2.074 . S
O126 C151 1.257 . S
H127 C152 0.930 . S
H128 C158 0.930 . S
O129 Co118 2.093 . S
O129 C121 1.224 . S
H130 C162 0.929 . S
H131 C164 0.930 . S
H132 C165 0.930 . S
H133 C163 0.929 . S
H134 C166 0.928 . S
O135 Co119 2.057 1_455 S
O135 C123 1.232 . S
H136 C155 0.929 . S
H137 C156 0.929 . S
H138 C168 0.931 . S
H139 C160 0.929 . S
H140 C169 0.930 . S
H141 C161 0.931 . S
O142 Co118 2.097 . S
O142 C170 1.214 . S
H143 C171 0.929 . S
H144 C172 0.929 . S
H145 C173 0.930 . S
H146 C174 0.929 . S
H147 C176 0.930 . S
H148 C153 0.930 . S
H149 C157 0.930 . S
O150 Co119 2.037 . S
O150 C170 1.234 . S
C151 O125 1.269 . S
C151 O126 1.257 . S
C152 H127 0.930 . S
C152 C155 1.388 . S
C152 C157 1.418 1_655 S
C153 H148 0.930 . S
C153 C156 1.404 . S
C153 C157 1.353 . S
N154 Co119 2.145 . S
N154 C155 1.397 . S
N154 C156 1.334 1_655 S
C155 H136 0.929 . S
C155 C152 1.388 . S
C155 N154 1.397 . S
C156 H137 0.929 . S
C156 C153 1.404 . S
C156 N154 1.334 1_455 S
C157 H149 0.930 . S
C157 C152 1.418 1_455 S
C157 C153 1.353 . S
C158 H128 0.930 . S
C158 N159 1.330 . S
C158 C160 1.446 . S
N159 Co118 2.151 . S
N159 C158 1.330 . S
N159 C163 1.418 . S
C160 H139 0.929 . S
C160 C158 1.446 . S
C160 C161 1.332 . S
C161 H141 0.931 . S
C161 C160 1.332 . S
C161 C162 1.267 . S
C162 H130 0.929 . S
C162 C161 1.267 . S
C162 C163 1.251 . S
C163 H133 0.929 . S
C163 N159 1.418 . S
C163 C162 1.251 . S
C164 H131 0.930 . S
C164 C166 1.406 . S
C164 C169 1.261 . S
C165 H132 0.930 . S
C165 N167 1.325 . S
C165 C168 1.357 . S
C166 H134 0.928 . S
C166 C164 1.406 . S
C166 N167 1.261 . S
N167 Co118 2.214 . S
N167 C165 1.325 . S
N167 C166 1.261 . S
C168 H138 0.931 . S
C168 C165 1.357 . S
C168 C169 1.312 . S
C169 H140 0.930 . S
C169 C164 1.261 . S
C169 C168 1.312 . S
C170 O142 1.214 . S
C170 O150 1.234 . S
C171 H143 0.929 . S
C171 C174 1.391 . S
C171 C176 1.391 . S
C172 H144 0.929 . S
C172 C173 1.390 . S
C172 N175 1.391 . S
C173 H145 0.930 . S
C173 C172 1.390 . S
C173 C174 1.392 . S
C174 H146 0.929 . S
C174 C171 1.391 . S
C174 C173 1.392 . S
N175 Co119 2.257 1_455 S
N175 C172 1.391 . S
N175 C176 1.388 . S
C176 H147 0.930 . S
C176 C171 1.391 . S
C176 N175 1.388 . S
Co177 O179 2.143 . S
Co177 O185 2.074 . S
Co177 O188 2.093 . S
Co177 O201 2.097 . S
Co177 N218 2.151 . S
Co177 N226 2.214 . S
Co178 O179 2.160 . S
Co178 O184 2.058 . S
Co178 O194 2.057 1_565 S
Co178 O209 2.037 . S
Co178 N213 2.145 . S
Co178 N234 2.257 1_565 S
O179 Co177 2.143 . S
O179 Co178 2.160 . S
C180 O181 1.278 1_565 S
C180 O188 1.224 . S
O181 C180 1.278 1_545 S
C182 O183 1.245 . S
C182 O194 1.232 . S
O183 C182 1.245 . S
O184 Co178 2.058 . S
O184 C210 1.269 . S
O185 Co177 2.074 . S
O185 C210 1.257 . S
H186 C211 0.930 . S
H187 C217 0.930 . S
O188 Co177 2.093 . S
O188 C180 1.224 . S
H189 C221 0.929 . S
H190 C223 0.930 . S
H191 C224 0.930 . S
H192 C222 0.929 . S
H193 C225 0.928 . S
O194 Co178 2.057 1_545 S
O194 C182 1.232 . S
H195 C214 0.929 . S
H196 C215 0.929 . S
H197 C227 0.931 . S
H198 C219 0.929 . S
H199 C228 0.930 . S
H200 C220 0.931 . S
O201 Co177 2.097 . S
O201 C229 1.214 . S
H202 C230 0.929 . S
H203 C231 0.929 . S
H204 C232 0.930 . S
H205 C233 0.929 . S
H206 C235 0.930 . S
H207 C212 0.930 . S
H208 C216 0.930 . S
O209 Co178 2.037 . S
O209 C229 1.234 . S
C210 O184 1.269 . S
C210 O185 1.257 . S
C211 H186 0.930 . S
C211 C214 1.388 . S
C211 C216 1.418 1_565 S
C212 H207 0.930 . S
C212 C215 1.404 . S
C212 C216 1.353 . S
N213 Co178 2.145 . S
N213 C214 1.397 . S
N213 C215 1.334 1_565 S
C214 H195 0.929 . S
C214 C211 1.388 . S
C214 N213 1.397 . S
C215 H196 0.929 . S
C215 C212 1.404 . S
C215 N213 1.334 1_545 S
C216 H208 0.930 . S
C216 C211 1.418 1_545 S
C216 C212 1.353 . S
C217 H187 0.930 . S
C217 N218 1.330 . S
C217 C219 1.446 . S
N218 Co177 2.151 . S
N218 C217 1.330 . S
N218 C222 1.418 . S
C219 H198 0.929 . S
C219 C217 1.446 . S
C219 C220 1.332 . S
C220 H200 0.931 . S
C220 C219 1.332 . S
C220 C221 1.267 . S
C221 H189 0.929 . S
C221 C220 1.267 . S
C221 C222 1.251 . S
C222 H192 0.929 . S
C222 N218 1.418 . S
C222 C221 1.251 . S
C223 H190 0.930 . S
C223 C225 1.406 . S
C223 C228 1.261 . S
C224 H191 0.930 . S
C224 N226 1.325 . S
C224 C227 1.357 . S
C225 H193 0.928 . S
C225 C223 1.406 . S
C225 N226 1.261 . S
N226 Co177 2.214 . S
N226 C224 1.325 . S
N226 C225 1.261 . S
C227 H197 0.931 . S
C227 C224 1.357 . S
C227 C228 1.312 . S
C228 H199 0.930 . S
C228 C223 1.261 . S
C228 C227 1.312 . S
C229 O201 1.214 . S
C229 O209 1.234 . S
C230 H202 0.929 . S
C230 C233 1.391 . S
C230 C235 1.391 . S
C231 H203 0.929 . S
C231 C232 1.390 . S
C231 N234 1.391 . S
C232 H204 0.930 . S
C232 C231 1.390 . S
C232 C233 1.392 . S
C233 H205 0.929 . S
C233 C230 1.391 . S
C233 C232 1.392 . S
N234 Co178 2.257 1_545 S
N234 C231 1.391 . S
N234 C235 1.388 . S
C235 H206 0.930 . S
C235 C230 1.391 . S
C235 N234 1.388 . S
Co236 O238 2.143 . S
Co236 O244 2.074 . S
Co236 O247 2.093 . S
Co236 O260 2.097 . S
Co236 N277 2.151 . S
Co236 N285 2.214 . S
Co237 O238 2.160 . S
Co237 O243 2.058 . S
Co237 O253 2.057 . S
Co237 O268 2.037 . S
Co237 N272 2.145 . S
Co237 N293 2.257 . S
O238 Co236 2.143 . S
O238 Co237 2.160 . S
C239 O240 1.278 . S
C239 O247 1.224 . S
O240 C239 1.278 . S
C241 O242 1.245 . S
C241 O253 1.232 . S
O242 C241 1.245 . S
O243 Co237 2.058 . S
O243 C269 1.269 . S
O244 Co236 2.074 . S
O244 C269 1.257 . S
H245 C270 0.930 . S
H246 C276 0.930 . S
O247 Co236 2.093 . S
O247 C239 1.224 . S
H248 C280 0.929 . S
H249 C282 0.930 . S
H250 C283 0.930 . S
H251 C281 0.929 . S
H252 C284 0.928 . S
O253 Co237 2.057 . S
O253 C241 1.232 . S
H254 C273 0.929 . S
H255 C274 0.929 . S
H256 C286 0.931 . S
H257 C278 0.929 . S
H258 C287 0.930 . S
H259 C279 0.931 . S
O260 Co236 2.097 . S
O260 C288 1.214 . S
H261 C289 0.929 . S
H262 C290 0.929 . S
H263 C291 0.930 . S
H264 C292 0.929 . S
H265 C294 0.930 . S
H266 C271 0.930 . S
H267 C275 0.930 . S
O268 Co237 2.037 . S
O268 C288 1.234 . S
C269 O243 1.269 . S
C269 O244 1.257 . S
C270 H245 0.930 . S
C270 C273 1.388 . S
C270 C275 1.418 . S
C271 H266 0.930 . S
C271 C274 1.404 . S
C271 C275 1.353 . S
N272 Co237 2.145 . S
N272 C273 1.397 . S
N272 C274 1.334 . S
C273 H254 0.929 . S
C273 C270 1.388 . S
C273 N272 1.397 . S
C274 H255 0.929 . S
C274 C271 1.404 . S
C274 N272 1.334 . S
C275 H267 0.930 . S
C275 C270 1.418 . S
C275 C271 1.353 . S
C276 H246 0.930 . S
C276 N277 1.330 . S
C276 C278 1.446 . S
N277 Co236 2.151 . S
N277 C276 1.330 . S
N277 C281 1.418 . S
C278 H257 0.929 . S
C278 C276 1.446 . S
C278 C279 1.332 . S
C279 H259 0.931 . S
C279 C278 1.332 . S
C279 C280 1.267 . S
C280 H248 0.929 . S
C280 C279 1.267 . S
C280 C281 1.251 . S
C281 H251 0.929 . S
C281 N277 1.418 . S
C281 C280 1.251 . S
C282 H249 0.930 . S
C282 C284 1.406 . S
C282 C287 1.261 . S
C283 H250 0.930 . S
C283 N285 1.325 . S
C283 C286 1.357 . S
C284 H252 0.928 . S
C284 C282 1.406 . S
C284 N285 1.261 . S
N285 Co236 2.214 . S
N285 C283 1.325 . S
N285 C284 1.261 . S
C286 H256 0.931 . S
C286 C283 1.357 . S
C286 C287 1.312 . S
C287 H258 0.930 . S
C287 C282 1.261 . S
C287 C286 1.312 . S
C288 O260 1.214 . S
C288 O268 1.234 . S
C289 H261 0.929 . S
C289 C292 1.391 . S
C289 C294 1.391 . S
C290 H262 0.929 . S
C290 C291 1.390 . S
C290 N293 1.391 . S
C291 H263 0.930 . S
C291 C290 1.390 . S
C291 C292 1.392 . S
C292 H264 0.929 . S
C292 C289 1.391 . S
C292 C291 1.392 . S
N293 Co237 2.257 . S
N293 C290 1.391 . S
N293 C294 1.388 . S
C294 H265 0.930 . S
C294 C289 1.391 . S
C294 N293 1.388 . S
Co295 O297 2.143 . S
Co295 O303 2.074 . S
Co295 O306 2.093 . S
Co295 O319 2.097 . S
Co295 N336 2.151 . S
Co295 N344 2.214 . S
Co296 O297 2.160 . S
Co296 O302 2.058 . S
Co296 O312 2.057 . S
Co296 O327 2.037 . S
Co296 N331 2.145 . S
Co296 N352 2.257 . S
O297 Co295 2.143 . S
O297 Co296 2.160 . S
C298 O299 1.278 . S
C298 O306 1.224 . S
O299 C298 1.278 . S
C300 O301 1.245 . S
C300 O312 1.232 . S
O301 C300 1.245 . S
O302 Co296 2.058 . S
O302 C328 1.269 . S
O303 Co295 2.074 . S
O303 C328 1.257 . S
H304 C329 0.930 . S
H305 C335 0.930 . S
O306 Co295 2.093 . S
O306 C298 1.224 . S
H307 C339 0.929 . S
H308 C341 0.930 . S
H309 C342 0.930 . S
H310 C340 0.929 . S
H311 C343 0.928 . S
O312 Co296 2.057 . S
O312 C300 1.232 . S
H313 C332 0.929 . S
H314 C333 0.929 . S
H315 C345 0.931 . S
H316 C337 0.929 . S
H317 C346 0.930 . S
H318 C338 0.931 . S
O319 Co295 2.097 . S
O319 C347 1.214 . S
H320 C348 0.929 . S
H321 C349 0.929 . S
H322 C350 0.930 . S
H323 C351 0.929 . S
H324 C353 0.930 . S
H325 C330 0.930 . S
H326 C334 0.930 . S
O327 Co296 2.037 . S
O327 C347 1.234 . S
C328 O302 1.269 . S
C328 O303 1.257 . S
C329 H304 0.930 . S
C329 C332 1.388 . S
C329 C334 1.418 . S
C330 H325 0.930 . S
C330 C333 1.404 . S
C330 C334 1.353 . S
N331 Co296 2.145 . S
N331 C332 1.397 . S
N331 C333 1.334 . S
C332 H313 0.929 . S
C332 C329 1.388 . S
C332 N331 1.397 . S
C333 H314 0.929 . S
C333 C330 1.404 . S
C333 N331 1.334 . S
C334 H326 0.930 . S
C334 C329 1.418 . S
C334 C330 1.353 . S
C335 H305 0.930 . S
C335 N336 1.330 . S
C335 C337 1.446 . S
N336 Co295 2.151 . S
N336 C335 1.330 . S
N336 C340 1.418 . S
C337 H316 0.929 . S
C337 C335 1.446 . S
C337 C338 1.332 . S
C338 H318 0.931 . S
C338 C337 1.332 . S
C338 C339 1.267 . S
C339 H307 0.929 . S
C339 C338 1.267 . S
C339 C340 1.251 . S
C340 H310 0.929 . S
C340 N336 1.418 . S
C340 C339 1.251 . S
C341 H308 0.930 . S
C341 C343 1.406 . S
C341 C346 1.261 . S
C342 H309 0.930 . S
C342 N344 1.325 . S
C342 C345 1.357 . S
C343 H311 0.928 . S
C343 C341 1.406 . S
C343 N344 1.261 . S
N344 Co295 2.214 . S
N344 C342 1.325 . S
N344 C343 1.261 . S
C345 H315 0.931 . S
C345 C342 1.357 . S
C345 C346 1.312 . S
C346 H317 0.930 . S
C346 C341 1.261 . S
C346 C345 1.312 . S
C347 O319 1.214 . S
C347 O327 1.234 . S
C348 H320 0.929 . S
C348 C351 1.391 . S
C348 C353 1.391 . S
C349 H321 0.929 . S
C349 C350 1.390 . S
C349 N352 1.391 . S
C350 H322 0.930 . S
C350 C349 1.390 . S
C350 C351 1.392 . S
C351 H323 0.929 . S
C351 C348 1.391 . S
C351 C350 1.392 . S
N352 Co296 2.257 . S
N352 C349 1.391 . S
N352 C353 1.388 . S
C353 H324 0.930 . S
C353 C348 1.391 . S
C353 N352 1.388 . S
Co354 O356 2.143 . S
Co354 O362 2.074 . S
Co354 O365 2.093 . S
Co354 O378 2.097 . S
Co354 N395 2.151 . S
Co354 N403 2.214 . S
Co355 O356 2.160 . S
Co355 O361 2.058 . S
Co355 O371 2.057 1_655 S
Co355 O386 2.037 . S
Co355 N390 2.145 . S
Co355 N411 2.257 1_655 S
O356 Co354 2.143 . S
O356 Co355 2.160 . S
C357 O358 1.278 1_655 S
C357 O365 1.224 . S
O358 C357 1.278 1_455 S
C359 O360 1.245 . S
C359 O371 1.232 . S
O360 C359 1.245 . S
O361 Co355 2.058 . S
O361 C387 1.269 . S
O362 Co354 2.074 . S
O362 C387 1.257 . S
H363 C388 0.930 . S
H364 C394 0.930 . S
O365 Co354 2.093 . S
O365 C357 1.224 . S
H366 C398 0.929 . S
H367 C400 0.930 . S
H368 C401 0.930 . S
H369 C399 0.929 . S
H370 C402 0.928 . S
O371 Co355 2.057 1_455 S
O371 C359 1.232 . S
H372 C391 0.929 . S
H373 C392 0.929 . S
H374 C404 0.931 . S
H375 C396 0.929 . S
H376 C405 0.930 . S
H377 C397 0.931 . S
O378 Co354 2.097 . S
O378 C406 1.214 . S
H379 C407 0.929 . S
H380 C408 0.929 . S
H381 C409 0.930 . S
H382 C410 0.929 . S
H383 C412 0.930 . S
H384 C389 0.930 . S
H385 C393 0.930 . S
O386 Co355 2.037 . S
O386 C406 1.234 . S
C387 O361 1.269 . S
C387 O362 1.257 . S
C388 H363 0.930 . S
C388 C391 1.388 . S
C388 C393 1.418 1_655 S
C389 H384 0.930 . S
C389 C392 1.404 . S
C389 C393 1.353 . S
N390 Co355 2.145 . S
N390 C391 1.397 . S
N390 C392 1.334 1_655 S
C391 H372 0.929 . S
C391 C388 1.388 . S
C391 N390 1.397 . S
C392 H373 0.929 . S
C392 C389 1.404 . S
C392 N390 1.334 1_455 S
C393 H385 0.930 . S
C393 C388 1.418 1_455 S
C393 C389 1.353 . S
C394 H364 0.930 . S
C394 N395 1.330 . S
C394 C396 1.446 . S
N395 Co354 2.151 . S
N395 C394 1.330 . S
N395 C399 1.418 . S
C396 H375 0.929 . S
C396 C394 1.446 . S
C396 C397 1.332 . S
C397 H377 0.931 . S
C397 C396 1.332 . S
C397 C398 1.267 . S
C398 H366 0.929 . S
C398 C397 1.267 . S
C398 C399 1.251 . S
C399 H369 0.929 . S
C399 N395 1.418 . S
C399 C398 1.251 . S
C400 H367 0.930 . S
C400 C402 1.406 . S
C400 C405 1.261 . S
C401 H368 0.930 . S
C401 N403 1.325 . S
C401 C404 1.357 . S
C402 H370 0.928 . S
C402 C400 1.406 . S
C402 N403 1.261 . S
N403 Co354 2.214 . S
N403 C401 1.325 . S
N403 C402 1.261 . S
C404 H374 0.931 . S
C404 C401 1.357 . S
C404 C405 1.312 . S
C405 H376 0.930 . S
C405 C400 1.261 . S
C405 C404 1.312 . S
C406 O378 1.214 . S
C406 O386 1.234 . S
C407 H379 0.929 . S
C407 C410 1.391 . S
C407 C412 1.391 . S
C408 H380 0.929 . S
C408 C409 1.390 . S
C408 N411 1.391 . S
C409 H381 0.930 . S
C409 C408 1.390 . S
C409 C410 1.392 . S
C410 H382 0.929 . S
C410 C407 1.391 . S
C410 C409 1.392 . S
N411 Co355 2.257 1_455 S
N411 C408 1.391 . S
N411 C412 1.388 . S
C412 H383 0.930 . S
C412 C407 1.391 . S
C412 N411 1.388 . S
Co413 O415 2.143 . S
Co413 O421 2.074 . S
Co413 O424 2.093 . S
Co413 O437 2.097 . S
Co413 N454 2.151 . S
Co413 N462 2.214 . S
Co414 O415 2.160 . S
Co414 O420 2.058 . S
Co414 O430 2.057 1_565 S
Co414 O445 2.037 . S
Co414 N449 2.145 . S
Co414 N470 2.257 1_565 S
O415 Co413 2.143 . S
O415 Co414 2.160 . S
C416 O417 1.278 1_565 S
C416 O424 1.224 . S
O417 C416 1.278 1_545 S
C418 O419 1.245 . S
C418 O430 1.232 . S
O419 C418 1.245 . S
O420 Co414 2.058 . S
O420 C446 1.269 . S
O421 Co413 2.074 . S
O421 C446 1.257 . S
H422 C447 0.930 . S
H423 C453 0.930 . S
O424 Co413 2.093 . S
O424 C416 1.224 . S
H425 C457 0.929 . S
H426 C459 0.930 . S
H427 C460 0.930 . S
H428 C458 0.929 . S
H429 C461 0.928 . S
O430 Co414 2.057 1_545 S
O430 C418 1.232 . S
H431 C450 0.929 . S
H432 C451 0.929 . S
H433 C463 0.931 . S
H434 C455 0.929 . S
H435 C464 0.930 . S
H436 C456 0.931 . S
O437 Co413 2.097 . S
O437 C465 1.214 . S
H438 C466 0.929 . S
H439 C467 0.929 . S
H440 C468 0.930 . S
H441 C469 0.929 . S
H442 C471 0.930 . S
H443 C448 0.930 . S
H444 C452 0.930 . S
O445 Co414 2.037 . S
O445 C465 1.234 . S
C446 O420 1.269 . S
C446 O421 1.257 . S
C447 H422 0.930 . S
C447 C450 1.388 . S
C447 C452 1.418 1_565 S
C448 H443 0.930 . S
C448 C451 1.404 . S
C448 C452 1.353 . S
N449 Co414 2.145 . S
N449 C450 1.397 . S
N449 C451 1.334 1_565 S
C450 H431 0.929 . S
C450 C447 1.388 . S
C450 N449 1.397 . S
C451 H432 0.929 . S
C451 C448 1.404 . S
C451 N449 1.334 1_545 S
C452 H444 0.930 . S
C452 C447 1.418 1_545 S
C452 C448 1.353 . S
C453 H423 0.930 . S
C453 N454 1.330 . S
C453 C455 1.446 . S
N454 Co413 2.151 . S
N454 C453 1.330 . S
N454 C458 1.418 . S
C455 H434 0.929 . S
C455 C453 1.446 . S
C455 C456 1.332 . S
C456 H436 0.931 . S
C456 C455 1.332 . S
C456 C457 1.267 . S
C457 H425 0.929 . S
C457 C456 1.267 . S
C457 C458 1.251 . S
C458 H428 0.929 . S
C458 N454 1.418 . S
C458 C457 1.251 . S
C459 H426 0.930 . S
C459 C461 1.406 . S
C459 C464 1.261 . S
C460 H427 0.930 . S
C460 N462 1.325 . S
C460 C463 1.357 . S
C461 H429 0.928 . S
C461 C459 1.406 . S
C461 N462 1.261 . S
N462 Co413 2.214 . S
N462 C460 1.325 . S
N462 C461 1.261 . S
C463 H433 0.931 . S
C463 C460 1.357 . S
C463 C464 1.312 . S
C464 H435 0.930 . S
C464 C459 1.261 . S
C464 C463 1.312 . S
C465 O437 1.214 . S
C465 O445 1.234 . S
C466 H438 0.929 . S
C466 C469 1.391 . S
C466 C471 1.391 . S
C467 H439 0.929 . S
C467 C468 1.390 . S
C467 N470 1.391 . S
C468 H440 0.930 . S
C468 C467 1.390 . S
C468 C469 1.392 . S
C469 H441 0.929 . S
C469 C466 1.391 . S
C469 C468 1.392 . S
N470 Co414 2.257 1_545 S
N470 C467 1.391 . S
N470 C471 1.388 . S
C471 H442 0.930 . S
C471 C466 1.391 . S
C471 N470 1.388 . S
Co472 O474 2.143 . S
Co472 O480 2.074 . S
Co472 O483 2.093 . S
Co472 O496 2.097 . S
Co472 N513 2.151 . S
Co472 N521 2.214 . S
Co473 O474 2.160 . S
Co473 O479 2.058 . S
Co473 O489 2.057 . S
Co473 O504 2.037 . S
Co473 N508 2.145 . S
Co473 N529 2.257 . S
O474 Co472 2.143 . S
O474 Co473 2.160 . S
C475 O476 1.278 . S
C475 O483 1.224 . S
O476 C475 1.278 . S
C477 O478 1.245 . S
C477 O489 1.232 . S
O478 C477 1.245 . S
O479 Co473 2.058 . S
O479 C505 1.269 . S
O480 Co472 2.074 . S
O480 C505 1.257 . S
H481 C506 0.930 . S
H482 C512 0.930 . S
O483 Co472 2.093 . S
O483 C475 1.224 . S
H484 C516 0.929 . S
H485 C518 0.930 . S
H486 C519 0.930 . S
H487 C517 0.929 . S
H488 C520 0.928 . S
O489 Co473 2.057 . S
O489 C477 1.232 . S
H490 C509 0.929 . S
H491 C510 0.929 . S
H492 C522 0.931 . S
H493 C514 0.929 . S
H494 C523 0.930 . S
H495 C515 0.931 . S
O496 Co472 2.097 . S
O496 C524 1.214 . S
H497 C525 0.929 . S
H498 C526 0.929 . S
H499 C527 0.930 . S
H500 C528 0.929 . S
H501 C530 0.930 . S
H502 C507 0.930 . S
H503 C511 0.930 . S
O504 Co473 2.037 . S
O504 C524 1.234 . S
C505 O479 1.269 . S
C505 O480 1.257 . S
C506 H481 0.930 . S
C506 C509 1.388 . S
C506 C511 1.418 . S
C507 H502 0.930 . S
C507 C510 1.404 . S
C507 C511 1.353 . S
N508 Co473 2.145 . S
N508 C509 1.397 . S
N508 C510 1.334 . S
C509 H490 0.929 . S
C509 C506 1.388 . S
C509 N508 1.397 . S
C510 H491 0.929 . S
C510 C507 1.404 . S
C510 N508 1.334 . S
C511 H503 0.930 . S
C511 C506 1.418 . S
C511 C507 1.353 . S
C512 H482 0.930 . S
C512 N513 1.330 . S
C512 C514 1.446 . S
N513 Co472 2.151 . S
N513 C512 1.330 . S
N513 C517 1.418 . S
C514 H493 0.929 . S
C514 C512 1.446 . S
C514 C515 1.332 . S
C515 H495 0.931 . S
C515 C514 1.332 . S
C515 C516 1.267 . S
C516 H484 0.929 . S
C516 C515 1.267 . S
C516 C517 1.251 . S
C517 H487 0.929 . S
C517 N513 1.418 . S
C517 C516 1.251 . S
C518 H485 0.930 . S
C518 C520 1.406 . S
C518 C523 1.261 . S
C519 H486 0.930 . S
C519 N521 1.325 . S
C519 C522 1.357 . S
C520 H488 0.928 . S
C520 C518 1.406 . S
C520 N521 1.261 . S
N521 Co472 2.214 . S
N521 C519 1.325 . S
N521 C520 1.261 . S
C522 H492 0.931 . S
C522 C519 1.357 . S
C522 C523 1.312 . S
C523 H494 0.930 . S
C523 C518 1.261 . S
C523 C522 1.312 . S
C524 O496 1.214 . S
C524 O504 1.234 . S
C525 H497 0.929 . S
C525 C528 1.391 . S
C525 C530 1.391 . S
C526 H498 0.929 . S
C526 C527 1.390 . S
C526 N529 1.391 . S
C527 H499 0.930 . S
C527 C526 1.390 . S
C527 C528 1.392 . S
C528 H500 0.929 . S
C528 C525 1.391 . S
C528 C527 1.392 . S
N529 Co473 2.257 . S
N529 C526 1.391 . S
N529 C530 1.388 . S
C530 H501 0.930 . S
C530 C525 1.391 . S
C530 N529 1.388 . S
Co531 O533 2.143 . S
Co531 O539 2.074 . S
Co531 O542 2.093 . S
Co531 O555 2.097 . S
Co531 N572 2.151 . S
Co531 N580 2.214 . S
Co532 O533 2.160 . S
Co532 O538 2.058 . S
Co532 O548 2.057 . S
Co532 O563 2.037 . S
Co532 N567 2.145 . S
Co532 N588 2.257 . S
O533 Co531 2.143 . S
O533 Co532 2.160 . S
C534 O535 1.278 . S
C534 O542 1.224 . S
O535 C534 1.278 . S
C536 O537 1.245 . S
C536 O548 1.232 . S
O537 C536 1.245 . S
O538 Co532 2.058 . S
O538 C564 1.269 . S
O539 Co531 2.074 . S
O539 C564 1.257 . S
H540 C565 0.930 . S
H541 C571 0.930 . S
O542 Co531 2.093 . S
O542 C534 1.224 . S
H543 C575 0.929 . S
H544 C577 0.930 . S
H545 C578 0.930 . S
H546 C576 0.929 . S
H547 C579 0.928 . S
O548 Co532 2.057 . S
O548 C536 1.232 . S
H549 C568 0.929 . S
H550 C569 0.929 . S
H551 C581 0.931 . S
H552 C573 0.929 . S
H553 C582 0.930 . S
H554 C574 0.931 . S
O555 Co531 2.097 . S
O555 C583 1.214 . S
H556 C584 0.929 . S
H557 C585 0.929 . S
H558 C586 0.930 . S
H559 C587 0.929 . S
H560 C589 0.930 . S
H561 C566 0.930 . S
H562 C570 0.930 . S
O563 Co532 2.037 . S
O563 C583 1.234 . S
C564 O538 1.269 . S
C564 O539 1.257 . S
C565 H540 0.930 . S
C565 C568 1.388 . S
C565 C570 1.418 . S
C566 H561 0.930 . S
C566 C569 1.404 . S
C566 C570 1.353 . S
N567 Co532 2.145 . S
N567 C568 1.397 . S
N567 C569 1.334 . S
C568 H549 0.929 . S
C568 C565 1.388 . S
C568 N567 1.397 . S
C569 H550 0.929 . S
C569 C566 1.404 . S
C569 N567 1.334 . S
C570 H562 0.930 . S
C570 C565 1.418 . S
C570 C566 1.353 . S
C571 H541 0.930 . S
C571 N572 1.330 . S
C571 C573 1.446 . S
N572 Co531 2.151 . S
N572 C571 1.330 . S
N572 C576 1.418 . S
C573 H552 0.929 . S
C573 C571 1.446 . S
C573 C574 1.332 . S
C574 H554 0.931 . S
C574 C573 1.332 . S
C574 C575 1.267 . S
C575 H543 0.929 . S
C575 C574 1.267 . S
C575 C576 1.251 . S
C576 H546 0.929 . S
C576 N572 1.418 . S
C576 C575 1.251 . S
C577 H544 0.930 . S
C577 C579 1.406 . S
C577 C582 1.261 . S
C578 H545 0.930 . S
C578 N580 1.325 . S
C578 C581 1.357 . S
C579 H547 0.928 . S
C579 C577 1.406 . S
C579 N580 1.261 . S
N580 Co531 2.214 . S
N580 C578 1.325 . S
N580 C579 1.261 . S
C581 H551 0.931 . S
C581 C578 1.357 . S
C581 C582 1.312 . S
C582 H553 0.930 . S
C582 C577 1.261 . S
C582 C581 1.312 . S
C583 O555 1.214 . S
C583 O563 1.234 . S
C584 H556 0.929 . S
C584 C587 1.391 . S
C584 C589 1.391 . S
C585 H557 0.929 . S
C585 C586 1.390 . S
C585 N588 1.391 . S
C586 H558 0.930 . S
C586 C585 1.390 . S
C586 C587 1.392 . S
C587 H559 0.929 . S
C587 C584 1.391 . S
C587 C586 1.392 . S
N588 Co532 2.257 . S
N588 C585 1.391 . S
N588 C589 1.388 . S
C589 H560 0.930 . S
C589 C584 1.391 . S
C589 N588 1.388 . S
Co590 O592 2.143 . S
Co590 O598 2.074 . S
Co590 O601 2.093 . S
Co590 O614 2.097 . S
Co590 N631 2.151 . S
Co590 N639 2.214 . S
Co591 O592 2.160 . S
Co591 O597 2.058 . S
Co591 O607 2.057 1_455 S
Co591 O622 2.037 . S
Co591 N626 2.145 . S
Co591 N647 2.257 1_455 S
O592 Co590 2.143 . S
O592 Co591 2.160 . S
C593 O594 1.278 1_455 S
C593 O601 1.224 . S
O594 C593 1.278 1_655 S
C595 O596 1.245 . S
C595 O607 1.232 . S
O596 C595 1.245 . S
O597 Co591 2.058 . S
O597 C623 1.269 . S
O598 Co590 2.074 . S
O598 C623 1.257 . S
H599 C624 0.930 . S
H600 C630 0.930 . S
O601 Co590 2.093 . S
O601 C593 1.224 . S
H602 C634 0.929 . S
H603 C636 0.930 . S
H604 C637 0.930 . S
H605 C635 0.929 . S
H606 C638 0.928 . S
O607 Co591 2.057 1_655 S
O607 C595 1.232 . S
H608 C627 0.929 . S
H609 C628 0.929 . S
H610 C640 0.931 . S
H611 C632 0.929 . S
H612 C641 0.930 . S
H613 C633 0.931 . S
O614 Co590 2.097 . S
O614 C642 1.214 . S
H615 C643 0.929 . S
H616 C644 0.929 . S
H617 C645 0.930 . S
H618 C646 0.929 . S
H619 C648 0.930 . S
H620 C625 0.930 . S
H621 C629 0.930 . S
O622 Co591 2.037 . S
O622 C642 1.234 . S
C623 O597 1.269 . S
C623 O598 1.257 . S
C624 H599 0.930 . S
C624 C627 1.388 . S
C624 C629 1.418 1_455 S
C625 H620 0.930 . S
C625 C628 1.404 . S
C625 C629 1.353 . S
N626 Co591 2.145 . S
N626 C627 1.397 . S
N626 C628 1.334 1_455 S
C627 H608 0.929 . S
C627 C624 1.388 . S
C627 N626 1.397 . S
C628 H609 0.929 . S
C628 C625 1.404 . S
C628 N626 1.334 1_655 S
C629 H621 0.930 . S
C629 C624 1.418 1_655 S
C629 C625 1.353 . S
C630 H600 0.930 . S
C630 N631 1.330 . S
C630 C632 1.446 . S
N631 Co590 2.151 . S
N631 C630 1.330 . S
N631 C635 1.418 . S
C632 H611 0.929 . S
C632 C630 1.446 . S
C632 C633 1.332 . S
C633 H613 0.931 . S
C633 C632 1.332 . S
C633 C634 1.267 . S
C634 H602 0.929 . S
C634 C633 1.267 . S
C634 C635 1.251 . S
C635 H605 0.929 . S
C635 N631 1.418 . S
C635 C634 1.251 . S
C636 H603 0.930 . S
C636 C638 1.406 . S
C636 C641 1.261 . S
C637 H604 0.930 . S
C637 N639 1.325 . S
C637 C640 1.357 . S
C638 H606 0.928 . S
C638 C636 1.406 . S
C638 N639 1.261 . S
N639 Co590 2.214 . S
N639 C637 1.325 . S
N639 C638 1.261 . S
C640 H610 0.931 . S
C640 C637 1.357 . S
C640 C641 1.312 . S
C641 H612 0.930 . S
C641 C636 1.261 . S
C641 C640 1.312 . S
C642 O614 1.214 . S
C642 O622 1.234 . S
C643 H615 0.929 . S
C643 C646 1.391 . S
C643 C648 1.391 . S
C644 H616 0.929 . S
C644 C645 1.390 . S
C644 N647 1.391 . S
C645 H617 0.930 . S
C645 C644 1.390 . S
C645 C646 1.392 . S
C646 H618 0.929 . S
C646 C643 1.391 . S
C646 C645 1.392 . S
N647 Co591 2.257 1_655 S
N647 C644 1.391 . S
N647 C648 1.388 . S
C648 H619 0.930 . S
C648 C643 1.391 . S
C648 N647 1.388 . S
Co649 O651 2.143 . S
Co649 O657 2.074 . S
Co649 O660 2.093 . S
Co649 O673 2.097 . S
Co649 N690 2.151 . S
Co649 N698 2.214 . S
Co650 O651 2.160 . S
Co650 O656 2.058 . S
Co650 O666 2.057 1_545 S
Co650 O681 2.037 . S
Co650 N685 2.145 . S
Co650 N706 2.257 1_545 S
O651 Co649 2.143 . S
O651 Co650 2.160 . S
C652 O653 1.278 1_545 S
C652 O660 1.224 . S
O653 C652 1.278 1_565 S
C654 O655 1.245 . S
C654 O666 1.232 . S
O655 C654 1.245 . S
O656 Co650 2.058 . S
O656 C682 1.269 . S
O657 Co649 2.074 . S
O657 C682 1.257 . S
H658 C683 0.930 . S
H659 C689 0.930 . S
O660 Co649 2.093 . S
O660 C652 1.224 . S
H661 C693 0.929 . S
H662 C695 0.930 . S
H663 C696 0.930 . S
H664 C694 0.929 . S
H665 C697 0.928 . S
O666 Co650 2.057 1_565 S
O666 C654 1.232 . S
H667 C686 0.929 . S
H668 C687 0.929 . S
H669 C699 0.931 . S
H670 C691 0.929 . S
H671 C700 0.930 . S
H672 C692 0.931 . S
O673 Co649 2.097 . S
O673 C701 1.214 . S
H674 C702 0.929 . S
H675 C703 0.929 . S
H676 C704 0.930 . S
H677 C705 0.929 . S
H678 C707 0.930 . S
H679 C684 0.930 . S
H680 C688 0.930 . S
O681 Co650 2.037 . S
O681 C701 1.234 . S
C682 O656 1.269 . S
C682 O657 1.257 . S
C683 H658 0.930 . S
C683 C686 1.388 . S
C683 C688 1.418 1_545 S
C684 H679 0.930 . S
C684 C687 1.404 . S
C684 C688 1.353 . S
N685 Co650 2.145 . S
N685 C686 1.397 . S
N685 C687 1.334 1_545 S
C686 H667 0.929 . S
C686 C683 1.388 . S
C686 N685 1.397 . S
C687 H668 0.929 . S
C687 C684 1.404 . S
C687 N685 1.334 1_565 S
C688 H680 0.930 . S
C688 C683 1.418 1_565 S
C688 C684 1.353 . S
C689 H659 0.930 . S
C689 N690 1.330 . S
C689 C691 1.446 . S
N690 Co649 2.151 . S
N690 C689 1.330 . S
N690 C694 1.418 . S
C691 H670 0.929 . S
C691 C689 1.446 . S
C691 C692 1.332 . S
C692 H672 0.931 . S
C692 C691 1.332 . S
C692 C693 1.267 . S
C693 H661 0.929 . S
C693 C692 1.267 . S
C693 C694 1.251 . S
C694 H664 0.929 . S
C694 N690 1.418 . S
C694 C693 1.251 . S
C695 H662 0.930 . S
C695 C697 1.406 . S
C695 C700 1.261 . S
C696 H663 0.930 . S
C696 N698 1.325 . S
C696 C699 1.357 . S
C697 H665 0.928 . S
C697 C695 1.406 . S
C697 N698 1.261 . S
N698 Co649 2.214 . S
N698 C696 1.325 . S
N698 C697 1.261 . S
C699 H669 0.931 . S
C699 C696 1.357 . S
C699 C700 1.312 . S
C700 H671 0.930 . S
C700 C695 1.261 . S
C700 C699 1.312 . S
C701 O673 1.214 . S
C701 O681 1.234 . S
C702 H674 0.929 . S
C702 C705 1.391 . S
C702 C707 1.391 . S
C703 H675 0.929 . S
C703 C704 1.390 . S
C703 N706 1.391 . S
C704 H676 0.930 . S
C704 C703 1.390 . S
C704 C705 1.392 . S
C705 H677 0.929 . S
C705 C702 1.391 . S
C705 C704 1.392 . S
N706 Co650 2.257 1_565 S
N706 C703 1.391 . S
N706 C707 1.388 . S
C707 H678 0.930 . S
C707 C702 1.391 . S
C707 N706 1.388 . S
Co708 O710 2.143 . S
Co708 O716 2.074 . S
Co708 O719 2.093 . S
Co708 O732 2.097 . S
Co708 N749 2.151 . S
Co708 N757 2.214 . S
Co709 O710 2.160 . S
Co709 O715 2.058 . S
Co709 O725 2.057 . S
Co709 O740 2.037 . S
Co709 N744 2.145 . S
Co709 N765 2.257 . S
O710 Co708 2.143 . S
O710 Co709 2.160 . S
C711 O712 1.278 . S
C711 O719 1.224 . S
O712 C711 1.278 . S
C713 O714 1.245 . S
C713 O725 1.232 . S
O714 C713 1.245 . S
O715 Co709 2.058 . S
O715 C741 1.269 . S
O716 Co708 2.074 . S
O716 C741 1.257 . S
H717 C742 0.930 . S
H718 C748 0.930 . S
O719 Co708 2.093 . S
O719 C711 1.224 . S
H720 C752 0.929 . S
H721 C754 0.930 . S
H722 C755 0.930 . S
H723 C753 0.929 . S
H724 C756 0.928 . S
O725 Co709 2.057 . S
O725 C713 1.232 . S
H726 C745 0.929 . S
H727 C746 0.929 . S
H728 C758 0.931 . S
H729 C750 0.929 . S
H730 C759 0.930 . S
H731 C751 0.931 . S
O732 Co708 2.097 . S
O732 C760 1.214 . S
H733 C761 0.929 . S
H734 C762 0.929 . S
H735 C763 0.930 . S
H736 C764 0.929 . S
H737 C766 0.930 . S
H738 C743 0.930 . S
H739 C747 0.930 . S
O740 Co709 2.037 . S
O740 C760 1.234 . S
C741 O715 1.269 . S
C741 O716 1.257 . S
C742 H717 0.930 . S
C742 C745 1.388 . S
C742 C747 1.418 . S
C743 H738 0.930 . S
C743 C746 1.404 . S
C743 C747 1.353 . S
N744 Co709 2.145 . S
N744 C745 1.397 . S
N744 C746 1.334 . S
C745 H726 0.929 . S
C745 C742 1.388 . S
C745 N744 1.397 . S
C746 H727 0.929 . S
C746 C743 1.404 . S
C746 N744 1.334 . S
C747 H739 0.930 . S
C747 C742 1.418 . S
C747 C743 1.353 . S
C748 H718 0.930 . S
C748 N749 1.330 . S
C748 C750 1.446 . S
N749 Co708 2.151 . S
N749 C748 1.330 . S
N749 C753 1.418 . S
C750 H729 0.929 . S
C750 C748 1.446 . S
C750 C751 1.332 . S
C751 H731 0.931 . S
C751 C750 1.332 . S
C751 C752 1.267 . S
C752 H720 0.929 . S
C752 C751 1.267 . S
C752 C753 1.251 . S
C753 H723 0.929 . S
C753 N749 1.418 . S
C753 C752 1.251 . S
C754 H721 0.930 . S
C754 C756 1.406 . S
C754 C759 1.261 . S
C755 H722 0.930 . S
C755 N757 1.325 . S
C755 C758 1.357 . S
C756 H724 0.928 . S
C756 C754 1.406 . S
C756 N757 1.261 . S
N757 Co708 2.214 . S
N757 C755 1.325 . S
N757 C756 1.261 . S
C758 H728 0.931 . S
C758 C755 1.357 . S
C758 C759 1.312 . S
C759 H730 0.930 . S
C759 C754 1.261 . S
C759 C758 1.312 . S
C760 O732 1.214 . S
C760 O740 1.234 . S
C761 H733 0.929 . S
C761 C764 1.391 . S
C761 C766 1.391 . S
C762 H734 0.929 . S
C762 C763 1.390 . S
C762 N765 1.391 . S
C763 H735 0.930 . S
C763 C762 1.390 . S
C763 C764 1.392 . S
C764 H736 0.929 . S
C764 C761 1.391 . S
C764 C763 1.392 . S
N765 Co709 2.257 . S
N765 C762 1.391 . S
N765 C766 1.388 . S
C766 H737 0.930 . S
C766 C761 1.391 . S
C766 N765 1.388 . S
Co767 O769 2.143 . S
Co767 O775 2.074 . S
Co767 O778 2.093 . S
Co767 O791 2.097 . S
Co767 N808 2.151 . S
Co767 N816 2.214 . S
Co768 O769 2.160 . S
Co768 O774 2.058 . S
Co768 O784 2.057 . S
Co768 O799 2.037 . S
Co768 N803 2.145 . S
Co768 N824 2.257 . S
O769 Co767 2.143 . S
O769 Co768 2.160 . S
C770 O771 1.278 . S
C770 O778 1.224 . S
O771 C770 1.278 . S
C772 O773 1.245 . S
C772 O784 1.232 . S
O773 C772 1.245 . S
O774 Co768 2.058 . S
O774 C800 1.269 . S
O775 Co767 2.074 . S
O775 C800 1.257 . S
H776 C801 0.930 . S
H777 C807 0.930 . S
O778 Co767 2.093 . S
O778 C770 1.224 . S
H779 C811 0.929 . S
H780 C813 0.930 . S
H781 C814 0.930 . S
H782 C812 0.929 . S
H783 C815 0.928 . S
O784 Co768 2.057 . S
O784 C772 1.232 . S
H785 C804 0.929 . S
H786 C805 0.929 . S
H787 C817 0.931 . S
H788 C809 0.929 . S
H789 C818 0.930 . S
H790 C810 0.931 . S
O791 Co767 2.097 . S
O791 C819 1.214 . S
H792 C820 0.929 . S
H793 C821 0.929 . S
H794 C822 0.930 . S
H795 C823 0.929 . S
H796 C825 0.930 . S
H797 C802 0.930 . S
H798 C806 0.930 . S
O799 Co768 2.037 . S
O799 C819 1.234 . S
C800 O774 1.269 . S
C800 O775 1.257 . S
C801 H776 0.930 . S
C801 C804 1.388 . S
C801 C806 1.418 . S
C802 H797 0.930 . S
C802 C805 1.404 . S
C802 C806 1.353 . S
N803 Co768 2.145 . S
N803 C804 1.397 . S
N803 C805 1.334 . S
C804 H785 0.929 . S
C804 C801 1.388 . S
C804 N803 1.397 . S
C805 H786 0.929 . S
C805 C802 1.404 . S
C805 N803 1.334 . S
C806 H798 0.930 . S
C806 C801 1.418 . S
C806 C802 1.353 . S
C807 H777 0.930 . S
C807 N808 1.330 . S
C807 C809 1.446 . S
N808 Co767 2.151 . S
N808 C807 1.330 . S
N808 C812 1.418 . S
C809 H788 0.929 . S
C809 C807 1.446 . S
C809 C810 1.332 . S
C810 H790 0.931 . S
C810 C809 1.332 . S
C810 C811 1.267 . S
C811 H779 0.929 . S
C811 C810 1.267 . S
C811 C812 1.251 . S
C812 H782 0.929 . S
C812 N808 1.418 . S
C812 C811 1.251 . S
C813 H780 0.930 . S
C813 C815 1.406 . S
C813 C818 1.261 . S
C814 H781 0.930 . S
C814 N816 1.325 . S
C814 C817 1.357 . S
C815 H783 0.928 . S
C815 C813 1.406 . S
C815 N816 1.261 . S
N816 Co767 2.214 . S
N816 C814 1.325 . S
N816 C815 1.261 . S
C817 H787 0.931 . S
C817 C814 1.357 . S
C817 C818 1.312 . S
C818 H789 0.930 . S
C818 C813 1.261 . S
C818 C817 1.312 . S
C819 O791 1.214 . S
C819 O799 1.234 . S
C820 H792 0.929 . S
C820 C823 1.391 . S
C820 C825 1.391 . S
C821 H793 0.929 . S
C821 C822 1.390 . S
C821 N824 1.391 . S
C822 H794 0.930 . S
C822 C821 1.390 . S
C822 C823 1.392 . S
C823 H795 0.929 . S
C823 C820 1.391 . S
C823 C822 1.392 . S
N824 Co768 2.257 . S
N824 C821 1.391 . S
N824 C825 1.388 . S
C825 H796 0.930 . S
C825 C820 1.391 . S
C825 N824 1.388 . S
Co826 O828 2.143 . S
Co826 O834 2.074 . S
Co826 O837 2.093 . S
Co826 O850 2.097 . S
Co826 N867 2.151 . S
Co826 N875 2.214 . S
Co827 O828 2.160 . S
Co827 O833 2.058 . S
Co827 O843 2.057 1_455 S
Co827 O858 2.037 . S
Co827 N862 2.145 . S
Co827 N883 2.257 1_455 S
O828 Co826 2.143 . S
O828 Co827 2.160 . S
C829 O830 1.278 1_455 S
C829 O837 1.224 . S
O830 C829 1.278 1_655 S
C831 O832 1.245 . S
C831 O843 1.232 . S
O832 C831 1.245 . S
O833 Co827 2.058 . S
O833 C859 1.269 . S
O834 Co826 2.074 . S
O834 C859 1.257 . S
H835 C860 0.930 . S
H836 C866 0.930 . S
O837 Co826 2.093 . S
O837 C829 1.224 . S
H838 C870 0.929 . S
H839 C872 0.930 . S
H840 C873 0.930 . S
H841 C871 0.929 . S
H842 C874 0.928 . S
O843 Co827 2.057 1_655 S
O843 C831 1.232 . S
H844 C863 0.929 . S
H845 C864 0.929 . S
H846 C876 0.931 . S
H847 C868 0.929 . S
H848 C877 0.930 . S
H849 C869 0.931 . S
O850 Co826 2.097 . S
O850 C878 1.214 . S
H851 C879 0.929 . S
H852 C880 0.929 . S
H853 C881 0.930 . S
H854 C882 0.929 . S
H855 C884 0.930 . S
H856 C861 0.930 . S
H857 C865 0.930 . S
O858 Co827 2.037 . S
O858 C878 1.234 . S
C859 O833 1.269 . S
C859 O834 1.257 . S
C860 H835 0.930 . S
C860 C863 1.388 . S
C860 C865 1.418 1_455 S
C861 H856 0.930 . S
C861 C864 1.404 . S
C861 C865 1.353 . S
N862 Co827 2.145 . S
N862 C863 1.397 . S
N862 C864 1.334 1_455 S
C863 H844 0.929 . S
C863 C860 1.388 . S
C863 N862 1.397 . S
C864 H845 0.929 . S
C864 C861 1.404 . S
C864 N862 1.334 1_655 S
C865 H857 0.930 . S
C865 C860 1.418 1_655 S
C865 C861 1.353 . S
C866 H836 0.930 . S
C866 N867 1.330 . S
C866 C868 1.446 . S
N867 Co826 2.151 . S
N867 C866 1.330 . S
N867 C871 1.418 . S
C868 H847 0.929 . S
C868 C866 1.446 . S
C868 C869 1.332 . S
C869 H849 0.931 . S
C869 C868 1.332 . S
C869 C870 1.267 . S
C870 H838 0.929 . S
C870 C869 1.267 . S
C870 C871 1.251 . S
C871 H841 0.929 . S
C871 N867 1.418 . S
C871 C870 1.251 . S
C872 H839 0.930 . S
C872 C874 1.406 . S
C872 C877 1.261 . S
C873 H840 0.930 . S
C873 N875 1.325 . S
C873 C876 1.357 . S
C874 H842 0.928 . S
C874 C872 1.406 . S
C874 N875 1.261 . S
N875 Co826 2.214 . S
N875 C873 1.325 . S
N875 C874 1.261 . S
C876 H846 0.931 . S
C876 C873 1.357 . S
C876 C877 1.312 . S
C877 H848 0.930 . S
C877 C872 1.261 . S
C877 C876 1.312 . S
C878 O850 1.214 . S
C878 O858 1.234 . S
C879 H851 0.929 . S
C879 C882 1.391 . S
C879 C884 1.391 . S
C880 H852 0.929 . S
C880 C881 1.390 . S
C880 N883 1.391 . S
C881 H853 0.930 . S
C881 C880 1.390 . S
C881 C882 1.392 . S
C882 H854 0.929 . S
C882 C879 1.391 . S
C882 C881 1.392 . S
N883 Co827 2.257 1_655 S
N883 C880 1.391 . S
N883 C884 1.388 . S
C884 H855 0.930 . S
C884 C879 1.391 . S
C884 N883 1.388 . S
Co885 O887 2.143 . S
Co885 O893 2.074 . S
Co885 O896 2.093 . S
Co885 O909 2.097 . S
Co885 N926 2.151 . S
Co885 N934 2.214 . S
Co886 O887 2.160 . S
Co886 O892 2.058 . S
Co886 O902 2.057 1_545 S
Co886 O917 2.037 . S
Co886 N921 2.145 . S
Co886 N942 2.257 1_545 S
O887 Co885 2.143 . S
O887 Co886 2.160 . S
C888 O889 1.278 1_545 S
C888 O896 1.224 . S
O889 C888 1.278 1_565 S
C890 O891 1.245 . S
C890 O902 1.232 . S
O891 C890 1.245 . S
O892 Co886 2.058 . S
O892 C918 1.269 . S
O893 Co885 2.074 . S
O893 C918 1.257 . S
H894 C919 0.930 . S
H895 C925 0.930 . S
O896 Co885 2.093 . S
O896 C888 1.224 . S
H897 C929 0.929 . S
H898 C931 0.930 . S
H899 C932 0.930 . S
H900 C930 0.929 . S
H901 C933 0.928 . S
O902 Co886 2.057 1_565 S
O902 C890 1.232 . S
H903 C922 0.929 . S
H904 C923 0.929 . S
H905 C935 0.931 . S
H906 C927 0.929 . S
H907 C936 0.930 . S
H908 C928 0.931 . S
O909 Co885 2.097 . S
O909 C937 1.214 . S
H910 C938 0.929 . S
H911 C939 0.929 . S
H912 C940 0.930 . S
H913 C941 0.929 . S
H914 C943 0.930 . S
H915 C920 0.930 . S
H916 C924 0.930 . S
O917 Co886 2.037 . S
O917 C937 1.234 . S
C918 O892 1.269 . S
C918 O893 1.257 . S
C919 H894 0.930 . S
C919 C922 1.388 . S
C919 C924 1.418 1_545 S
C920 H915 0.930 . S
C920 C923 1.404 . S
C920 C924 1.353 . S
N921 Co886 2.145 . S
N921 C922 1.397 . S
N921 C923 1.334 1_545 S
C922 H903 0.929 . S
C922 C919 1.388 . S
C922 N921 1.397 . S
C923 H904 0.929 . S
C923 C920 1.404 . S
C923 N921 1.334 1_565 S
C924 H916 0.930 . S
C924 C919 1.418 1_565 S
C924 C920 1.353 . S
C925 H895 0.930 . S
C925 N926 1.330 . S
C925 C927 1.446 . S
N926 Co885 2.151 . S
N926 C925 1.330 . S
N926 C930 1.418 . S
C927 H906 0.929 . S
C927 C925 1.446 . S
C927 C928 1.332 . S
C928 H908 0.931 . S
C928 C927 1.332 . S
C928 C929 1.267 . S
C929 H897 0.929 . S
C929 C928 1.267 . S
C929 C930 1.251 . S
C930 H900 0.929 . S
C930 N926 1.418 . S
C930 C929 1.251 . S
C931 H898 0.930 . S
C931 C933 1.406 . S
C931 C936 1.261 . S
C932 H899 0.930 . S
C932 N934 1.325 . S
C932 C935 1.357 . S
C933 H901 0.928 . S
C933 C931 1.406 . S
C933 N934 1.261 . S
N934 Co885 2.214 . S
N934 C932 1.325 . S
N934 C933 1.261 . S
C935 H905 0.931 . S
C935 C932 1.357 . S
C935 C936 1.312 . S
C936 H907 0.930 . S
C936 C931 1.261 . S
C936 C935 1.312 . S
C937 O909 1.214 . S
C937 O917 1.234 . S
C938 H910 0.929 . S
C938 C941 1.391 . S
C938 C943 1.391 . S
C939 H911 0.929 . S
C939 C940 1.390 . S
C939 N942 1.391 . S
C940 H912 0.930 . S
C940 C939 1.390 . S
C940 C941 1.392 . S
C941 H913 0.929 . S
C941 C938 1.391 . S
C941 C940 1.392 . S
N942 Co886 2.257 1_565 S
N942 C939 1.391 . S
N942 C943 1.388 . S
C943 H914 0.930 . S
C943 C938 1.391 . S
C943 N942 1.388 . S
C944 C945 1.369 . S
C944 C946 1.419 . S
C944 H948 0.930 . S
C945 C944 1.369 . S
C945 C954 1.429 . S
C946 C944 1.419 . S
C946 C947 1.363 . S
C946 H949 0.929 . S
C947 C946 1.363 . S
C947 C953 1.428 . S
H948 C944 0.930 . S
H949 C946 0.929 . S
S950 N951 1.613 . S
S950 N952 1.610 . S
N951 S950 1.613 . S
N951 C954 1.350 . S
N952 S950 1.610 . S
N952 C953 1.351 . S
C953 C947 1.428 . S
C953 N952 1.351 . S
C953 C954 1.434 . S
C954 C945 1.429 . S
C954 N951 1.350 . S
C954 C953 1.434 . S
C955 C956 1.369 . S
C955 C957 1.419 . S
C955 H959 0.930 . S
C956 C955 1.369 . S
C956 C965 1.429 . S
C957 C955 1.419 . S
C957 C958 1.363 . S
C957 H960 0.929 . S
C958 C957 1.363 . S
C958 C964 1.428 . S
H959 C955 0.930 . S
H960 C957 0.929 . S
S961 N962 1.613 . S
S961 N963 1.610 . S
N962 S961 1.613 . S
N962 C965 1.350 . S
N963 S961 1.610 . S
N963 C964 1.351 . S
C964 C958 1.428 . S
C964 N963 1.351 . S
C964 C965 1.434 . S
C965 C956 1.429 . S
C965 N962 1.350 . S
C965 C964 1.434 . S
C966 C967 1.369 . S
C966 C968 1.419 . S
C966 H970 0.930 . S
C967 C966 1.369 . S
C967 C976 1.429 . S
C968 C966 1.419 . S
C968 C969 1.363 . S
C968 H971 0.929 . S
C969 C968 1.363 . S
C969 C975 1.428 . S
H970 C966 0.930 . S
H971 C968 0.929 . S
S972 N973 1.613 . S
S972 N974 1.610 . S
N973 S972 1.613 . S
N973 C976 1.350 . S
N974 S972 1.610 . S
N974 C975 1.351 . S
C975 C969 1.428 . S
C975 N974 1.351 . S
C975 C976 1.434 . S
C976 C967 1.429 . S
C976 N973 1.350 . S
C976 C975 1.434 . S
C977 C978 1.369 . S
C977 C979 1.419 . S
C977 H981 0.930 . S
C978 C977 1.369 . S
C978 C987 1.429 . S
C979 C977 1.419 . S
C979 C980 1.363 . S
C979 H982 0.929 . S
C980 C979 1.363 . S
C980 C986 1.428 . S
H981 C977 0.930 . S
H982 C979 0.929 . S
S983 N984 1.613 . S
S983 N985 1.610 . S
N984 S983 1.613 . S
N984 C987 1.350 . S
N985 S983 1.610 . S
N985 C986 1.351 . S
C986 C980 1.428 . S
C986 N985 1.351 . S
C986 C987 1.434 . S
C987 C978 1.429 . S
C987 N984 1.350 . S
C987 C986 1.434 . S
C988 C989 1.369 . S
C988 C990 1.419 . S
C988 H992 0.930 . S
C989 C988 1.369 . S
C989 C998 1.429 . S
C990 C988 1.419 . S
C990 C991 1.363 . S
C990 H993 0.929 . S
C991 C990 1.363 . S
C991 C997 1.428 . S
H992 C988 0.930 . S
H993 C990 0.929 . S
S994 N995 1.613 . S
S994 N996 1.610 . S
N995 S994 1.613 . S
N995 C998 1.350 . S
N996 S994 1.610 . S
N996 C997 1.351 . S
C997 C991 1.428 . S
C997 N996 1.351 . S
C997 C998 1.434 . S
C998 C989 1.429 . S
C998 N995 1.350 . S
C998 C997 1.434 . S
C999 C1000 1.369 . S
C999 C1001 1.419 . S
C999 H1003 0.930 . S
C1000 C999 1.369 . S
C1000 C1009 1.429 . S
C1001 C999 1.419 . S
C1001 C1002 1.363 . S
C1001 H1004 0.929 . S
C1002 C1001 1.363 . S
C1002 C1008 1.428 . S
H1003 C999 0.930 . S
H1004 C1001 0.929 . S
S1005 N1006 1.613 . S
S1005 N1007 1.610 . S
N1006 S1005 1.613 . S
N1006 C1009 1.350 . S
N1007 S1005 1.610 . S
N1007 C1008 1.351 . S
C1008 C1002 1.428 . S
C1008 N1007 1.351 . S
C1008 C1009 1.434 . S
C1009 C1000 1.429 . S
C1009 N1006 1.350 . S
C1009 C1008 1.434 . S
C1010 C1011 1.369 . S
C1010 C1012 1.419 . S
C1010 H1014 0.930 . S
C1011 C1010 1.369 . S
C1011 C1020 1.429 . S
C1012 C1010 1.419 . S
C1012 C1013 1.363 . S
C1012 H1015 0.929 . S
C1013 C1012 1.363 . S
C1013 C1019 1.428 . S
H1014 C1010 0.930 . S
H1015 C1012 0.929 . S
S1016 N1017 1.613 . S
S1016 N1018 1.610 . S
N1017 S1016 1.613 . S
N1017 C1020 1.350 . S
N1018 S1016 1.610 . S
N1018 C1019 1.351 . S
C1019 C1013 1.428 . S
C1019 N1018 1.351 . S
C1019 C1020 1.434 . S
C1020 C1011 1.429 . S
C1020 N1017 1.350 . S
C1020 C1019 1.434 . S
C1021 C1022 1.369 . S
C1021 C1023 1.419 . S
C1021 H1025 0.930 . S
C1022 C1021 1.369 . S
C1022 C1031 1.429 . S
C1023 C1021 1.419 . S
C1023 C1024 1.363 . S
C1023 H1026 0.929 . S
C1024 C1023 1.363 . S
C1024 C1030 1.428 . S
H1025 C1021 0.930 . S
H1026 C1023 0.929 . S
S1027 N1028 1.613 . S
S1027 N1029 1.610 . S
N1028 S1027 1.613 . S
N1028 C1031 1.350 . S
N1029 S1027 1.610 . S
N1029 C1030 1.351 . S
C1030 C1024 1.428 . S
C1030 N1029 1.351 . S
C1030 C1031 1.434 . S
C1031 C1022 1.429 . S
C1031 N1028 1.350 . S
C1031 C1030 1.434 . S
C1032 C1033 1.369 . S
C1032 C1034 1.419 . S
C1032 H1036 0.930 . S
C1033 C1032 1.369 . S
C1033 C1042 1.429 . S
C1034 C1032 1.419 . S
C1034 C1035 1.363 . S
C1034 H1037 0.929 . S
C1035 C1034 1.363 . S
C1035 C1041 1.428 . S
H1036 C1032 0.930 . S
H1037 C1034 0.929 . S
S1038 N1039 1.613 . S
S1038 N1040 1.610 . S
N1039 S1038 1.613 . S
N1039 C1042 1.350 . S
N1040 S1038 1.610 . S
N1040 C1041 1.351 . S
C1041 C1035 1.428 . S
C1041 N1040 1.351 . S
C1041 C1042 1.434 . S
C1042 C1033 1.429 . S
C1042 N1039 1.350 . S
C1042 C1041 1.434 . S
C1043 C1044 1.369 . S
C1043 C1045 1.419 . S
C1043 H1047 0.930 . S
C1044 C1043 1.369 . S
C1044 C1053 1.429 . S
C1045 C1043 1.419 . S
C1045 C1046 1.363 . S
C1045 H1048 0.929 . S
C1046 C1045 1.363 . S
C1046 C1052 1.428 . S
H1047 C1043 0.930 . S
H1048 C1045 0.929 . S
S1049 N1050 1.613 . S
S1049 N1051 1.610 . S
N1050 S1049 1.613 . S
N1050 C1053 1.350 . S
N1051 S1049 1.610 . S
N1051 C1052 1.351 . S
C1052 C1046 1.428 . S
C1052 N1051 1.351 . S
C1052 C1053 1.434 . S
C1053 C1044 1.429 . S
C1053 N1050 1.350 . S
C1053 C1052 1.434 . S
C1054 C1055 1.369 . S
C1054 C1056 1.419 . S
C1054 H1058 0.930 . S
C1055 C1054 1.369 . S
C1055 C1064 1.429 . S
C1056 C1054 1.419 . S
C1056 C1057 1.363 . S
C1056 H1059 0.929 . S
C1057 C1056 1.363 . S
C1057 C1063 1.428 . S
H1058 C1054 0.930 . S
H1059 C1056 0.929 . S
S1060 N1061 1.613 . S
S1060 N1062 1.610 . S
N1061 S1060 1.613 . S
N1061 C1064 1.350 . S
N1062 S1060 1.610 . S
N1062 C1063 1.351 . S
C1063 C1057 1.428 . S
C1063 N1062 1.351 . S
C1063 C1064 1.434 . S
C1064 C1055 1.429 . S
C1064 N1061 1.350 . S
C1064 C1063 1.434 . S
C1065 C1066 1.369 . S
C1065 C1067 1.419 . S
C1065 H1069 0.930 . S
C1066 C1065 1.369 . S
C1066 C1075 1.429 . S
C1067 C1065 1.419 . S
C1067 C1068 1.363 . S
C1067 H1070 0.929 . S
C1068 C1067 1.363 . S
C1068 C1074 1.428 . S
H1069 C1065 0.930 . S
H1070 C1067 0.929 . S
S1071 N1072 1.613 . S
S1071 N1073 1.610 . S
N1072 S1071 1.613 . S
N1072 C1075 1.350 . S
N1073 S1071 1.610 . S
N1073 C1074 1.351 . S
C1074 C1068 1.428 . S
C1074 N1073 1.351 . S
C1074 C1075 1.434 . S
C1075 C1066 1.429 . S
C1075 N1072 1.350 . S
C1075 C1074 1.434 . S
C1076 C1077 1.369 . S
C1076 C1078 1.419 . S
C1076 H1080 0.930 . S
C1077 C1076 1.369 . S
C1077 C1086 1.429 . S
C1078 C1076 1.419 . S
C1078 C1079 1.363 . S
C1078 H1081 0.929 . S
C1079 C1078 1.363 . S
C1079 C1085 1.428 . S
H1080 C1076 0.930 . S
H1081 C1078 0.929 . S
S1082 N1083 1.613 . S
S1082 N1084 1.610 . S
N1083 S1082 1.613 . S
N1083 C1086 1.350 . S
N1084 S1082 1.610 . S
N1084 C1085 1.351 . S
C1085 C1079 1.428 . S
C1085 N1084 1.351 . S
C1085 C1086 1.434 . S
C1086 C1077 1.429 . S
C1086 N1083 1.350 . S
C1086 C1085 1.434 . S
C1087 C1088 1.369 . S
C1087 C1089 1.419 . S
C1087 H1091 0.930 . S
C1088 C1087 1.369 . S
C1088 C1097 1.429 . S
C1089 C1087 1.419 . S
C1089 C1090 1.363 . S
C1089 H1092 0.929 . S
C1090 C1089 1.363 . S
C1090 C1096 1.428 . S
H1091 C1087 0.930 . S
H1092 C1089 0.929 . S
S1093 N1094 1.613 . S
S1093 N1095 1.610 . S
N1094 S1093 1.613 . S
N1094 C1097 1.350 . S
N1095 S1093 1.610 . S
N1095 C1096 1.351 . S
C1096 C1090 1.428 . S
C1096 N1095 1.351 . S
C1096 C1097 1.434 . S
C1097 C1088 1.429 . S
C1097 N1094 1.350 . S
C1097 C1096 1.434 . S
C1098 C1099 1.369 . S
C1098 C1100 1.419 . S
C1098 H1102 0.930 . S
C1099 C1098 1.369 . S
C1099 C1108 1.429 . S
C1100 C1098 1.419 . S
C1100 C1101 1.363 . S
C1100 H1103 0.929 . S
C1101 C1100 1.363 . S
C1101 C1107 1.428 . S
H1102 C1098 0.930 . S
H1103 C1100 0.929 . S
S1104 N1105 1.613 . S
S1104 N1106 1.610 . S
N1105 S1104 1.613 . S
N1105 C1108 1.350 . S
N1106 S1104 1.610 . S
N1106 C1107 1.351 . S
C1107 C1101 1.428 . S
C1107 N1106 1.351 . S
C1107 C1108 1.434 . S
C1108 C1099 1.429 . S
C1108 N1105 1.350 . S
C1108 C1107 1.434 . S
C1109 C1110 1.369 . S
C1109 C1111 1.419 . S
C1109 H1113 0.930 . S
C1110 C1109 1.369 . S
C1110 C1119 1.429 . S
C1111 C1109 1.419 . S
C1111 C1112 1.363 . S
C1111 H1114 0.929 . S
C1112 C1111 1.363 . S
C1112 C1118 1.428 . S
H1113 C1109 0.930 . S
H1114 C1111 0.929 . S
S1115 N1116 1.613 . S
S1115 N1117 1.610 . S
N1116 S1115 1.613 . S
N1116 C1119 1.350 . S
N1117 S1115 1.610 . S
N1117 C1118 1.351 . S
C1118 C1112 1.428 . S
C1118 N1117 1.351 . S
C1118 C1119 1.434 . S
C1119 C1110 1.429 . S
C1119 N1116 1.350 . S
C1119 C1118 1.434 . S
C1120 C1121 1.369 . S
C1120 C1122 1.419 . S
C1120 H1124 0.930 . S
C1121 C1120 1.369 . S
C1121 C1130 1.429 . S
C1122 C1120 1.419 . S
C1122 C1123 1.363 . S
C1122 H1125 0.929 . S
C1123 C1122 1.363 . S
C1123 C1129 1.428 . S
H1124 C1120 0.930 . S
H1125 C1122 0.929 . S
S1126 N1127 1.613 . S
S1126 N1128 1.610 . S
N1127 S1126 1.613 . S
N1127 C1130 1.350 . S
N1128 S1126 1.610 . S
N1128 C1129 1.351 . S
C1129 C1123 1.428 . S
C1129 N1128 1.351 . S
C1129 C1130 1.434 . S
C1130 C1121 1.429 . S
C1130 N1127 1.350 . S
C1130 C1129 1.434 . S
C1131 C1132 1.369 . S
C1131 C1133 1.419 . S
C1131 H1135 0.930 . S
C1132 C1131 1.369 . S
C1132 C1141 1.429 . S
C1133 C1131 1.419 . S
C1133 C1134 1.363 . S
C1133 H1136 0.929 . S
C1134 C1133 1.363 . S
C1134 C1140 1.428 . S
H1135 C1131 0.930 . S
H1136 C1133 0.929 . S
S1137 N1138 1.613 . S
S1137 N1139 1.610 . S
N1138 S1137 1.613 . S
N1138 C1141 1.350 . S
N1139 S1137 1.610 . S
N1139 C1140 1.351 . S
C1140 C1134 1.428 . S
C1140 N1139 1.351 . S
C1140 C1141 1.434 . S
C1141 C1132 1.429 . S
C1141 N1138 1.350 . S
C1141 C1140 1.434 . S
C1142 C1143 1.369 . S
C1142 C1144 1.419 . S
C1142 H1146 0.930 . S
C1143 C1142 1.369 . S
C1143 C1152 1.429 . S
C1144 C1142 1.419 . S
C1144 C1145 1.363 . S
C1144 H1147 0.929 . S
C1145 C1144 1.363 . S
C1145 C1151 1.428 . S
H1146 C1142 0.930 . S
H1147 C1144 0.929 . S
S1148 N1149 1.613 . S
S1148 N1150 1.610 . S
N1149 S1148 1.613 . S
N1149 C1152 1.350 . S
N1150 S1148 1.610 . S
N1150 C1151 1.351 . S
C1151 C1145 1.428 . S
C1151 N1150 1.351 . S
C1151 C1152 1.434 . S
C1152 C1143 1.429 . S
C1152 N1149 1.350 . S
C1152 C1151 1.434 . S
C1153 C1154 1.369 . S
C1153 C1155 1.419 . S
C1153 H1157 0.930 . S
C1154 C1153 1.369 . S
C1154 C1163 1.429 . S
C1155 C1153 1.419 . S
C1155 C1156 1.363 . S
C1155 H1158 0.929 . S
C1156 C1155 1.363 . S
C1156 C1162 1.428 . S
H1157 C1153 0.930 . S
H1158 C1155 0.929 . S
S1159 N1160 1.613 . S
S1159 N1161 1.610 . S
N1160 S1159 1.613 . S
N1160 C1163 1.350 . S
N1161 S1159 1.610 . S
N1161 C1162 1.351 . S
C1162 C1156 1.428 . S
C1162 N1161 1.351 . S
C1162 C1163 1.434 . S
C1163 C1154 1.429 . S
C1163 N1160 1.350 . S
C1163 C1162 1.434 . S
C1164 C1165 1.369 . S
C1164 C1166 1.419 . S
C1164 H1168 0.930 . S
C1165 C1164 1.369 . S
C1165 C1174 1.429 . S
C1166 C1164 1.419 . S
C1166 C1167 1.363 . S
C1166 H1169 0.929 . S
C1167 C1166 1.363 . S
C1167 C1173 1.428 . S
H1168 C1164 0.930 . S
H1169 C1166 0.929 . S
S1170 N1171 1.613 . S
S1170 N1172 1.610 . S
N1171 S1170 1.613 . S
N1171 C1174 1.350 . S
N1172 S1170 1.610 . S
N1172 C1173 1.351 . S
C1173 C1167 1.428 . S
C1173 N1172 1.351 . S
C1173 C1174 1.434 . S
C1174 C1165 1.429 . S
C1174 N1171 1.350 . S
C1174 C1173 1.434 . S
C1175 C1176 1.369 . S
C1175 C1177 1.419 . S
C1175 H1179 0.930 . S
C1176 C1175 1.369 . S
C1176 C1185 1.429 . S
C1177 C1175 1.419 . S
C1177 C1178 1.363 . S
C1177 H1180 0.929 . S
C1178 C1177 1.363 . S
C1178 C1184 1.428 . S
H1179 C1175 0.930 . S
H1180 C1177 0.929 . S
S1181 N1182 1.613 . S
S1181 N1183 1.610 . S
N1182 S1181 1.613 . S
N1182 C1185 1.350 . S
N1183 S1181 1.610 . S
N1183 C1184 1.351 . S
C1184 C1178 1.428 . S
C1184 N1183 1.351 . S
C1184 C1185 1.434 . S
C1185 C1176 1.429 . S
C1185 N1182 1.350 . S
C1185 C1184 1.434 . S
C1186 C1187 1.369 . S
C1186 C1188 1.419 . S
C1186 H1190 0.930 . S
C1187 C1186 1.369 . S
C1187 C1196 1.429 . S
C1188 C1186 1.419 . S
C1188 C1189 1.363 . S
C1188 H1191 0.929 . S
C1189 C1188 1.363 . S
C1189 C1195 1.428 . S
H1190 C1186 0.930 . S
H1191 C1188 0.929 . S
S1192 N1193 1.613 . S
S1192 N1194 1.610 . S
N1193 S1192 1.613 . S
N1193 C1196 1.350 . S
N1194 S1192 1.610 . S
N1194 C1195 1.351 . S
C1195 C1189 1.428 . S
C1195 N1194 1.351 . S
C1195 C1196 1.434 . S
C1196 C1187 1.429 . S
C1196 N1193 1.350 . S
C1196 C1195 1.434 . S
C1197 C1198 1.369 . S
C1197 C1199 1.419 . S
C1197 H1201 0.930 . S
C1198 C1197 1.369 . S
C1198 C1207 1.429 . S
C1199 C1197 1.419 . S
C1199 C1200 1.363 . S
C1199 H1202 0.929 . S
C1200 C1199 1.363 . S
C1200 C1206 1.428 . S
H1201 C1197 0.930 . S
H1202 C1199 0.929 . S
S1203 N1204 1.613 . S
S1203 N1205 1.610 . S
N1204 S1203 1.613 . S
N1204 C1207 1.350 . S
N1205 S1203 1.610 . S
N1205 C1206 1.351 . S
C1206 C1200 1.428 . S
C1206 N1205 1.351 . S
C1206 C1207 1.434 . S
C1207 C1198 1.429 . S
C1207 N1204 1.350 . S
C1207 C1206 1.434 . S
C1208 C1209 1.369 . S
C1208 C1210 1.419 1_554 S
C1208 H1212 0.930 . S
C1209 C1208 1.369 . S
C1209 C1218 1.429 . S
C1210 C1208 1.419 1_556 S
C1210 C1211 1.363 . S
C1210 H1213 0.929 . S
C1211 C1210 1.363 . S
C1211 C1217 1.428 . S
H1212 C1208 0.930 . S
H1213 C1210 0.929 . S
S1214 N1215 1.613 . S
S1214 N1216 1.610 1_554 S
N1215 S1214 1.613 . S
N1215 C1218 1.350 . S
N1216 S1214 1.610 1_556 S
N1216 C1217 1.351 . S
C1217 C1211 1.428 . S
C1217 N1216 1.351 . S
C1217 C1218 1.434 1_556 S
C1218 C1209 1.429 . S
C1218 N1215 1.350 . S
C1218 C1217 1.434 1_554 S
C1219 C1220 1.369 . S
C1219 C1221 1.419 . S
C1219 H1223 0.930 . S
C1220 C1219 1.369 . S
C1220 C1229 1.429 . S
C1221 C1219 1.419 . S
C1221 C1222 1.363 . S
C1221 H1224 0.929 . S
C1222 C1221 1.363 . S
C1222 C1228 1.428 . S
H1223 C1219 0.930 . S
H1224 C1221 0.929 . S
S1225 N1226 1.613 . S
S1225 N1227 1.610 . S
N1226 S1225 1.613 . S
N1226 C1229 1.350 . S
N1227 S1225 1.610 . S
N1227 C1228 1.351 . S
C1228 C1222 1.428 . S
C1228 N1227 1.351 . S
C1228 C1229 1.434 . S
C1229 C1220 1.429 . S
C1229 N1226 1.350 . S
C1229 C1228 1.434 . S
C1230 C1231 1.369 . S
C1230 C1232 1.419 1_554 S
C1230 H1234 0.930 . S
C1231 C1230 1.369 . S
C1231 C1240 1.429 1_655 S
C1232 C1230 1.419 1_556 S
C1232 C1233 1.363 . S
C1232 H1235 0.929 . S
C1233 C1232 1.363 . S
C1233 C1239 1.428 1_655 S
H1234 C1230 0.930 . S
H1235 C1232 0.929 . S
S1236 N1237 1.613 1_556 S
S1236 N1238 1.610 . S
N1237 S1236 1.613 1_554 S
N1237 C1240 1.350 . S
N1238 S1236 1.610 . S
N1238 C1239 1.351 . S
C1239 C1233 1.428 1_455 S
C1239 N1238 1.351 . S
C1239 C1240 1.434 1_556 S
C1240 C1231 1.429 1_455 S
C1240 N1237 1.350 . S
C1240 C1239 1.434 1_554 S
C1241 C1242 1.369 1_545 S
C1241 C1243 1.419 . S
C1241 H1245 0.930 . S
C1242 C1241 1.369 1_565 S
C1242 C1251 1.429 . S
C1243 C1241 1.419 . S
C1243 C1244 1.363 1_545 S
C1243 H1246 0.929 . S
C1244 C1243 1.363 1_565 S
C1244 C1250 1.428 . S
H1245 C1241 0.930 . S
H1246 C1243 0.929 . S
S1247 N1248 1.613 . S
S1247 N1249 1.610 . S
N1248 S1247 1.613 . S
N1248 C1251 1.350 . S
N1249 S1247 1.610 . S
N1249 C1250 1.351 . S
C1250 C1244 1.428 . S
C1250 N1249 1.351 . S
C1250 C1251 1.434 . S
C1251 C1242 1.429 . S
C1251 N1248 1.350 . S
C1251 C1250 1.434 . S
C1252 C1253 1.369 . S
C1252 C1254 1.419 1_556 S
C1252 H1256 0.930 . S
C1253 C1252 1.369 . S
C1253 C1262 1.429 . S
C1254 C1252 1.419 1_554 S
C1254 C1255 1.363 . S
C1254 H1257 0.929 . S
C1255 C1254 1.363 . S
C1255 C1261 1.428 . S
H1256 C1252 0.930 . S
H1257 C1254 0.929 . S
S1258 N1259 1.613 . S
S1258 N1260 1.610 1_556 S
N1259 S1258 1.613 . S
N1259 C1262 1.350 . S
N1260 S1258 1.610 1_554 S
N1260 C1261 1.351 . S
C1261 C1255 1.428 . S
C1261 N1260 1.351 . S
C1261 C1262 1.434 1_554 S
C1262 C1253 1.429 . S
C1262 N1259 1.350 . S
C1262 C1261 1.434 1_556 S
C1263 C1264 1.369 . S
C1263 C1265 1.419 . S
C1263 H1267 0.930 . S
C1264 C1263 1.369 . S
C1264 C1273 1.429 . S
C1265 C1263 1.419 . S
C1265 C1266 1.363 . S
C1265 H1268 0.929 . S
C1266 C1265 1.363 . S
C1266 C1272 1.428 . S
H1267 C1263 0.930 . S
H1268 C1265 0.929 . S
S1269 N1270 1.613 . S
S1269 N1271 1.610 . S
N1270 S1269 1.613 . S
N1270 C1273 1.350 . S
N1271 S1269 1.610 . S
N1271 C1272 1.351 . S
C1272 C1266 1.428 . S
C1272 N1271 1.351 . S
C1272 C1273 1.434 . S
C1273 C1264 1.429 . S
C1273 N1270 1.350 . S
C1273 C1272 1.434 . S
C1274 C1275 1.369 1_655 S
C1274 C1276 1.419 1_554 S
C1274 H1278 0.930 . S
C1275 C1274 1.369 1_455 S
C1275 C1284 1.429 . S
C1276 C1274 1.419 1_556 S
C1276 C1277 1.363 1_655 S
C1276 H1279 0.929 . S
C1277 C1276 1.363 1_455 S
C1277 C1283 1.428 . S
H1278 C1274 0.930 . S
H1279 C1276 0.929 . S
S1280 N1281 1.613 1_556 S
S1280 N1282 1.610 . S
N1281 S1280 1.613 1_554 S
N1281 C1284 1.350 . S
N1282 S1280 1.610 . S
N1282 C1283 1.351 . S
C1283 C1277 1.428 . S
C1283 N1282 1.351 . S
C1283 C1284 1.434 1_556 S
C1284 C1275 1.429 . S
C1284 N1281 1.350 . S
C1284 C1283 1.434 1_554 S
C1285 C1286 1.369 . S
C1285 C1287 1.419 . S
C1285 H1289 0.930 . S
C1286 C1285 1.369 . S
C1286 C1295 1.429 1_545 S
C1287 C1285 1.419 . S
C1287 C1288 1.363 . S
C1287 H1290 0.929 . S
C1288 C1287 1.363 . S
C1288 C1294 1.428 1_545 S
H1289 C1285 0.930 . S
H1290 C1287 0.929 . S
S1291 N1292 1.613 . S
S1291 N1293 1.610 . S
N1292 S1291 1.613 . S
N1292 C1295 1.350 . S
N1293 S1291 1.610 . S
N1293 C1294 1.351 . S
C1294 C1288 1.428 1_565 S
C1294 N1293 1.351 . S
C1294 C1295 1.434 . S
C1295 C1286 1.429 1_565 S
C1295 N1292 1.350 . S
C1295 C1294 1.434 . S
C945 C5 1.495 . S
C947 C418 1.492 . S
C956 C64 1.494 . S
C958 C241 1.494 . S
C967 C123 1.492 . S
C969 C300 1.495 . S
C978 C182 1.495 . S
C980 C359 1.493 . S
C989 C477 1.494 . S
C991 C890 1.491 . S
C1000 C713 1.491 . S
C1002 C536 1.491 . S
C1011 C595 1.490 . S
C1013 C772 1.493 . S
C1022 C654 1.493 . S
C1024 C831 1.491 . S
C1033 C52 1.591 . S
C1035 C564 1.590 . S
C1044 C111 1.591 . S
C1046 C623 1.589 . S
C1055 C682 1.590 . S
C1057 C170 1.591 . S
C1066 C229 1.593 . S
C1068 C505 1.589 . S
C1077 C288 1.592 . S
C1079 C918 1.588 . S
C1088 C741 1.588 . S
C1090 C347 1.593 . S
C1099 C800 1.591 . S
C1101 C406 1.591 . S
C1110 C859 1.587 . S
C1112 C465 1.593 . S
C1121 C92 1.589 . S
C1123 C524 1.592 . S
C1132 C151 1.591 . S
C1134 C583 1.591 . S
C1143 C642 1.591 . S
C1145 C210 1.590 . S
C1154 C33 1.589 . S
C1156 C701 1.593 . S
C1165 C760 1.591 . S
C1167 C446 1.590 . S
C1176 C819 1.591 . S
C1178 C269 1.590 . S
C1187 C328 1.588 . S
C1189 C878 1.592 . S
C1198 C387 1.587 . S
C1200 C937 1.593 . S
C1209 C3 1.654 . S
C1211 C239 1.654 . S
C1220 C298 1.657 . S
C1222 C62 1.656 . S
C1231 C121 1.656 . S
C1233 C357 1.656 . S
C1242 C416 1.653 . S
C1244 C180 1.653 . S
C1253 C475 1.654 . S
C1255 C711 1.654 . S
C1264 C770 1.658 . S
C1266 C534 1.658 . S
C1275 C829 1.654 . S
C1277 C593 1.655 . S
C1286 C888 1.658 . S
C1288 C652 1.657 . S
