# Generated by pormake.
# Topology noo, (5)-cn, num edge types: 1
# Building blocks:
#     Node 0, Type 0, BuildingBlock: XOMCOT_clean_sbu_1, # of connection points: 5
#     Node 1, Type 0, BuildingBlock: XOMCOT_clean_sbu_1, # of connection points: 5
#     Node 2, Type 0, BuildingBlock: XOMCOT_clean_sbu_1, # of connection points: 5
#     Node 3, Type 0, BuildingBlock: XOMCOT_clean_sbu_1, # of connection points: 5
#     Node 4, Type 0, BuildingBlock: XOMCOT_clean_sbu_1, # of connection points: 5
#     Node 5, Type 0, BuildingBlock: XOMCOT_clean_sbu_1, # of connection points: 5
#     Node 6, Type 0, BuildingBlock: XOMCOT_clean_sbu_1, # of connection points: 5
#     Node 7, Type 0, BuildingBlock: XOMCOT_clean_sbu_1, # of connection points: 5
#     Edge 8, Type (0, 0), BuildingBlock: OJICUG_clean_linker_0, # of connection points: 2
#     Edge 9, Type (0, 0), BuildingBlock: OJICUG_clean_linker_0, # of connection points: 2
#     Edge 10, Type (0, 0), BuildingBlock: OJICUG_clean_linker_0, # of connection points: 2
#     Edge 11, Type (0, 0), BuildingBlock: OJICUG_clean_linker_0, # of connection points: 2
#     Edge 12, Type (0, 0), BuildingBlock: OJICUG_clean_linker_0, # of connection points: 2
#     Edge 13, Type (0, 0), BuildingBlock: OJICUG_clean_linker_0, # of connection points: 2
#     Edge 14, Type (0, 0), BuildingBlock: OJICUG_clean_linker_0, # of connection points: 2
#     Edge 15, Type (0, 0), BuildingBlock: OJICUG_clean_linker_0, # of connection points: 2
#     Edge 16, Type (0, 0), BuildingBlock: OJICUG_clean_linker_0, # of connection points: 2
#     Edge 17, Type (0, 0), BuildingBlock: OJICUG_clean_linker_0, # of connection points: 2
#     Edge 18, Type (0, 0), BuildingBlock: OJICUG_clean_linker_0, # of connection points: 2
#     Edge 19, Type (0, 0), BuildingBlock: OJICUG_clean_linker_0, # of connection points: 2
#     Edge 20, Type (0, 0), BuildingBlock: OJICUG_clean_linker_0, # of connection points: 2
#     Edge 21, Type (0, 0), BuildingBlock: OJICUG_clean_linker_0, # of connection points: 2
#     Edge 22, Type (0, 0), BuildingBlock: OJICUG_clean_linker_0, # of connection points: 2
#     Edge 23, Type (0, 0), BuildingBlock: OJICUG_clean_linker_0, # of connection points: 2
#     Edge 24, Type (0, 0), BuildingBlock: OJICUG_clean_linker_0, # of connection points: 2
#     Edge 25, Type (0, 0), BuildingBlock: OJICUG_clean_linker_0, # of connection points: 2
#     Edge 26, Type (0, 0), BuildingBlock: OJICUG_clean_linker_0, # of connection points: 2
#     Edge 27, Type (0, 0), BuildingBlock: OJICUG_clean_linker_0, # of connection points: 2
# Relax obj value: 0.064
# Max RMSD: 0.098
# Mean RMSD: 0.098
data_MOF--net-noo--node1-XOMCOT_clean_sbu_1--edge1-OJICUG_clean_linker_0
_symmetry_space_group_name_H-M    P1
_symmetry_Int_Tables_number       1
_symmetry_cell_setting            triclinic
loop_
_symmetry_equiv_pos_as_xyz
'x, y, z'
_cell_length_a     32.227508
_cell_length_b     32.256198
_cell_length_c     18.070441
_cell_angle_alpha  89.988836
_cell_angle_beta   90.147762
_cell_angle_gamma 90.203178
loop_
_atom_site_label
_atom_site_type_symbol
_atom_site_fract_x
_atom_site_fract_y
_atom_site_fract_z
_atom_type_partial_charge
C0 C 0.43892 0.28298 1.00831 0.0
C1 C 0.41708 0.31928 1.012 0.0
N2 N 0.38539 0.31393 1.05949 0.0
N3 N 0.42132 0.25472 1.05344 0.0
C4 C 0.38832 0.27431 0.0835 0.0
H5 H 0.46699 0.2779 0.97696 0.0
Co6 Co 0.44655 0.20385 1.07119 0.0
C7 C 0.41698 0.19189 0.23078 0.0
O8 O 0.45267 0.20253 0.26033 0.0
N9 N 0.47265 0.15228 0.08872 0.0
C10 C 0.51341 0.10374 0.1375 0.0
C11 C 0.49817 0.14299 0.14598 0.0
C12 C 0.47227 0.1174 1.04701 0.0
N13 N 0.49716 0.08778 0.07526 0.0
O14 O 0.40501 0.177 1.01087 0.0
H15 H 0.50634 0.16367 0.19064 0.0
H16 H 0.45444 0.11354 0.99674 0.0
O17 O 0.41205 0.19347 0.16035 0.0
C18 C 0.41325 0.18101 0.94198 0.0
O19 O 0.44715 0.20114 0.92331 0.0
N20 N 0.49007 0.23223 0.11975 0.0
C21 C 0.55807 0.28452 0.14227 0.0
C22 C 0.52108 0.29084 0.18148 0.0
C23 C 0.48694 0.26453 0.16849 0.0
C24 C 0.52621 0.22589 0.08227 0.0
C25 C 0.56067 0.25095 0.09386 0.0
H26 H 0.45731 0.27206 0.19291 0.0
H27 H 0.52754 0.2028 1.03897 0.0
H28 H 0.36808 0.26061 0.12455 0.0
H29 H 0.42421 0.34767 0.98262 0.0
H30 H 0.53397 0.08764 0.17519 0.0
H31 H 0.5176 0.31758 0.21713 0.0
H32 H 0.5883 0.24596 1.061 0.0
C33 C 0.73052 0.45245 1.07332 0.0
C34 C 0.69243 0.43367 1.06903 0.0
N35 N 0.69256 0.40028 0.11382 0.0
N36 N 0.75482 0.43121 0.12067 0.0
C37 C 0.73088 0.3994 0.14469 0.0
H38 H 0.73983 0.48049 1.04492 0.0
Co39 Co 0.80841 0.44941 0.14223 0.0
C40 C 0.80963 0.41694 0.30216 0.0
O41 O 0.79543 0.45114 0.33191 0.0
N42 N 0.8626 0.46772 0.16227 0.0
C43 C 0.91919 0.4925 0.21758 0.0
C44 C 0.87846 0.48114 0.22728 0.0
C45 C 0.89423 0.47152 0.11384 0.0
N46 N 0.9291 0.48642 0.14608 0.0
O47 O 0.83021 0.4045 0.08294 0.0
H48 H 0.86143 0.48364 0.27836 0.0
H49 H 0.89145 0.46455 1.05556 0.0
O50 O 0.81287 0.41393 0.23161 0.0
C51 C 0.82762 0.41185 1.01349 0.0
O52 O 0.81244 0.44771 0.99229 0.0
N53 N 0.78565 0.49637 0.19118 0.0
C54 C 0.73577 0.56723 0.19668 0.0
C55 C 0.72343 0.53045 0.23206 0.0
C56 C 0.74874 0.4953 0.2285 0.0
C57 C 0.79948 0.53302 0.16213 0.0
C58 C 0.77541 0.56883 0.16529 0.0
H59 H 0.73619 0.46618 0.24797 0.0
H60 H 0.82703 0.53383 0.12827 0.0
H61 H 0.74131 0.37612 0.18359 0.0
H62 H 0.66636 0.44423 1.03627 0.0
H63 H 0.93983 0.50426 0.26005 0.0
H64 H 0.69297 0.52783 0.25688 0.0
H65 H 0.78595 0.59618 0.13596 0.0
C66 C 0.57922 0.72029 1.0099 0.0
C67 C 0.60083 0.68459 1.02464 0.0
N68 N 0.62639 0.69179 0.08237 0.0
N69 N 0.59103 0.75003 1.05797 0.0
C70 C 0.62021 0.73187 0.10109 0.0
H71 H 0.55474 0.7237 0.96936 0.0
Co72 Co 0.5632 0.80036 1.06766 0.0
C73 C 0.58765 0.81653 0.22928 0.0
O74 O 0.55193 0.80482 0.25715 0.0
N75 N 0.53491 0.85149 0.0789 0.0
C76 C 0.49187 0.8993 0.12318 0.0
C77 C 0.50683 0.86004 0.13239 0.0
C78 C 0.5373 0.88705 1.03917 0.0
N79 N 0.51098 0.91619 1.06461 0.0
O80 O 0.6057 0.82727 1.01056 0.0
H81 H 0.49743 0.83913 0.17591 0.0
H82 H 0.55816 0.89201 0.99324 0.0
O83 O 0.59387 0.81402 0.15945 0.0
C84 C 0.59776 0.82244 0.94165 0.0
O85 O 0.56404 0.80188 0.92309 0.0
N86 N 0.51863 0.77152 0.11154 0.0
C87 C 0.44883 0.72061 0.12792 0.0
C88 C 0.48437 0.71443 0.17202 0.0
C89 C 0.51926 0.74035 0.16284 0.0
C90 C 0.48459 0.77676 1.06747 0.0
C91 C 0.44918 0.75283 0.07634 0.0
H92 H 0.54743 0.73358 0.193 0.0
H93 H 0.48559 0.79856 1.02204 0.0
H94 H 0.63469 0.74672 0.14824 0.0
H95 H 0.5972 0.65525 0.99624 0.0
H96 H 0.47002 0.91504 0.15883 0.0
H97 H 0.4858 0.68882 0.21068 0.0
H98 H 0.42339 0.7575 1.03868 0.0
C99 C 0.28971 0.56523 0.96572 0.0
C100 C 0.32679 0.58262 0.9869 0.0
N101 N 0.31909 0.61218 1.03765 0.0
N102 N 0.25856 0.58355 1.00285 0.0
C103 C 0.27732 0.61261 1.04557 0.0
H104 H 0.28573 0.53946 0.92804 0.0
Co105 Co 0.20458 0.56253 0.99863 0.0
C106 C 0.18128 0.58824 0.15607 0.0
O107 O 0.18423 0.55033 0.18189 0.0
N108 N 0.15054 0.54122 0.9905 0.0
C109 C 0.0941 0.51546 0.93593 0.0
C110 C 0.13428 0.52845 0.92543 0.0
C111 C 0.11953 0.53568 1.03979 0.0
N112 N 0.08482 0.52014 1.008 0.0
O113 O 0.18774 0.60779 0.93557 0.0
H114 H 0.15072 0.52842 0.87339 0.0
H115 H 0.12205 0.54243 0.09791 0.0
O116 O 0.18821 0.59546 0.08733 0.0
C117 C 0.19674 0.60405 0.86699 0.0
O118 O 0.22086 0.57332 0.84687 0.0
N119 N 0.22247 0.51529 1.05341 0.0
C120 C 0.26753 0.44434 0.09245 0.0
C121 C 0.27396 0.48201 0.12968 0.0
C122 C 0.25137 0.51715 0.10903 0.0
C123 C 0.21443 0.4782 1.01968 0.0
C124 C 0.23602 0.44238 1.03908 0.0
H125 H 0.25933 0.54646 0.13432 0.0
H126 H 0.19401 0.47663 0.97243 0.0
H127 H 0.26104 0.63204 0.08462 0.0
H128 H 0.35715 0.57391 0.96684 0.0
H129 H 0.07316 0.5042 0.89347 0.0
H130 H 0.29809 0.48497 0.1712 0.0
H131 H 0.23069 0.41435 1.00739 0.0
C132 C 0.94093 0.21716 0.68823 0.0
C133 C 0.92352 0.18014 0.66699 0.0
N134 N 0.89415 0.18786 0.61568 0.0
N135 N 0.92278 0.24831 0.65063 0.0
C136 C 0.89382 0.2296 0.60753 0.0
H137 H 0.96661 0.22109 0.72626 0.0
Co138 Co 0.94401 0.30217 0.65464 0.0
C139 C 0.91825 0.32562 0.49708 0.0
O140 O 0.9562 0.32275 0.47147 0.0
N141 N 0.96555 0.35609 0.66257 0.0
C142 C 0.99164 0.41235 0.717 0.0
C143 C 0.97861 0.3722 0.72755 0.0
C144 C 0.97092 0.38718 0.61329 0.0
N145 N 0.98667 0.42177 0.64498 0.0
O146 O 0.89882 0.31916 0.71755 0.0
H147 H 0.97881 0.35569 0.77957 0.0
H148 H 0.96388 0.3848 0.55524 0.0
O149 O 0.91101 0.31863 0.5658 0.0
C150 C 0.90261 0.31022 0.7862 0.0
O151 O 0.93335 0.2861 0.80659 0.0
N152 N 0.99116 0.28413 0.6 0.0
C153 C 0.06198 0.23903 0.56074 0.0
C154 C 0.02419 0.23279 0.52354 0.0
C155 C 0.98912 0.25539 0.54433 0.0
C156 C 0.02836 0.29196 0.63378 0.0
C157 C 0.06412 0.27034 0.61427 0.0
H158 H 0.95973 0.2476 0.51899 0.0
H159 H 0.03005 0.31225 0.68108 0.0
H160 H 0.87459 0.24588 0.56798 0.0
H161 H 0.93215 0.1498 0.68733 0.0
H162 H 1.00311 0.43317 0.7594 0.0
H163 H 0.0211 0.20883 0.48189 0.0
H164 H 0.09224 0.27551 0.64594 0.0
C165 C 0.78695 0.92814 0.63941 0.0
C166 C 0.82265 0.9065 0.62498 0.0
N167 N 0.81531 0.88069 0.56778 0.0
N168 N 0.75707 0.91612 0.59165 0.0
C169 C 0.77515 0.88676 0.54908 0.0
H170 H 0.78362 0.95278 0.67952 0.0
Co171 Co 0.70658 0.94375 0.58166 0.0
C172 C 0.69122 0.91892 0.41978 0.0
O173 O 0.70402 0.95411 0.39131 0.0
N174 N 0.65533 0.97171 0.57005 0.0
C175 C 0.60717 0.01405 0.5244 0.0
C176 C 0.64639 0.99892 0.51521 0.0
C177 C 0.62008 0.96999 0.61065 0.0
N178 N 0.59073 0.99591 0.58437 0.0
O179 O 0.6798 0.90113 0.63871 0.0
H180 H 0.66705 0.00761 0.47088 0.0
H181 H 0.6155 0.94992 0.65786 0.0
O182 O 0.69298 0.91315 0.48985 0.0
C183 C 0.68475 0.90895 0.70762 0.0
O184 O 0.70542 0.94258 0.72616 0.0
N185 N 0.73523 0.98853 0.5378 0.0
C186 C 0.78612 0.05843 0.52234 0.0
C187 C 0.79284 0.02284 0.47893 0.0
C188 C 0.76692 0.98792 0.48762 0.0
C189 C 0.72936 0.0227 0.58104 0.0
C190 C 0.75328 0.05814 0.57256 0.0
H191 H 0.77418 0.95971 0.45819 0.0
H192 H 0.7072 0.02177 0.62583 0.0
H193 H 0.76014 0.87204 0.50232 0.0
H194 H 0.85208 0.91026 0.65325 0.0
H195 H 0.59115 0.03533 0.48792 0.0
H196 H 0.8189 0.02137 0.44133 0.0
H197 H 0.74815 0.08398 0.60972 0.0
C198 C 0.05436 0.77582 0.57839 0.0
C199 C 0.07313 0.81389 0.58258 0.0
N200 N 0.10652 0.8138 0.53789 0.0
N201 N 0.0756 0.75157 0.5312 0.0
C202 C 0.10741 0.77552 0.50716 0.0
H203 H 0.02631 0.7665 0.60673 0.0
Co204 Co 0.05735 0.69804 0.50985 0.0
C205 C 0.08978 0.69669 0.35004 0.0
O206 O 0.05553 0.71083 0.32007 0.0
N207 N 0.03895 0.6439 0.49005 0.0
C208 C 0.01399 0.58741 0.43499 0.0
C209 C 0.02539 0.62809 0.42511 0.0
C210 C 0.0352 0.61228 0.53861 0.0
N211 N 0.0202 0.57747 0.50652 0.0
O212 O 0.1023 0.67624 0.56943 0.0
H213 H 0.02282 0.64511 0.37397 0.0
H214 H 0.04229 0.61503 0.59688 0.0
O215 O 0.09284 0.69352 0.42063 0.0
C216 C 0.09494 0.67884 0.63883 0.0
O217 O 0.05905 0.69399 0.65978 0.0
N218 N 0.01036 0.72081 0.46059 0.0
C219 C 0.93956 0.77083 0.45476 0.0
C220 C 0.97635 0.78304 0.41929 0.0
C221 C 0.01147 0.75766 0.42302 0.0
C222 C 0.97368 0.70711 0.48973 0.0
C223 C 0.9379 0.73125 0.48641 0.0
H224 H 0.04062 0.77012 0.40349 0.0
H225 H 0.97285 0.6796 0.52376 0.0
H226 H 0.13068 0.76514 0.46836 0.0
H227 H 0.06256 0.83992 0.6152 0.0
H228 H 1.00212 0.5668 0.39261 0.0
H229 H 0.97902 0.81344 0.39425 0.0
H230 H 0.91055 0.72081 0.51582 0.0
C231 C 0.22352 0.06727 0.6428 0.0
C232 C 0.18718 0.08911 0.63929 0.0
N233 N 0.19246 0.12095 0.59205 0.0
N234 N 0.25173 0.08503 0.59778 0.0
C235 C 0.23207 0.11812 0.56798 0.0
H236 H 0.22868 0.03913 0.674 0.0
Co237 Co 0.30267 0.05997 0.58009 0.0
C238 C 0.31448 0.08954 0.42046 0.0
O239 O 0.30398 0.05382 0.3911 0.0
N240 N 0.35433 0.03403 0.56263 0.0
C241 C 0.40292 0.99338 0.51409 0.0
C242 C 0.36354 0.00842 0.50565 0.0
C243 C 0.3894 0.03468 0.6041 0.0
N244 N 0.41903 0.00985 0.576 0.0
O245 O 0.32952 0.10149 0.64031 0.0
H246 H 0.34274 1.00007 0.46119 0.0
H247 H 0.39338 0.05267 0.65407 0.0
O248 O 0.31286 0.09452 0.49084 0.0
C249 C 0.32562 0.09318 0.70921 0.0
O250 O 0.3056 0.05923 0.72791 0.0
N251 N 0.2743 0.01646 0.53165 0.0
C252 C 0.22209 0.94841 0.50924 0.0
C253 C 0.21567 0.98537 0.46986 0.0
C254 C 0.24194 0.01954 0.4828 0.0
C255 C 0.28074 0.98036 0.56933 0.0
C256 C 0.25572 0.94587 0.55779 0.0
H257 H 0.23433 0.04912 0.45823 0.0
H258 H 0.30387 0.97908 0.6127 0.0
H259 H 0.24574 0.13853 0.52715 0.0
H260 H 0.15883 0.08189 0.66869 0.0
H261 H 0.41899 0.97279 0.47659 0.0
H262 H 0.18888 0.98879 0.43411 0.0
H263 H 0.2608 0.91828 0.59078 0.0
C264 C 0.54442 0.98385 1.04882 0.0
C265 C 0.50866 0.9591 1.04509 0.0
H266 H 0.56843 0.04551 1.06205 0.0
C267 C 0.46969 0.97799 1.03764 0.0
H268 H 0.57464 0.96975 1.05553 0.0
C269 C 0.46619 0.02111 1.03998 0.0
C270 C 0.50156 0.04565 1.05171 0.0
H271 H 0.44181 0.95919 1.03524 0.0
H272 H 0.43565 0.035 1.03951 0.0
C273 C 0.54083 0.02692 1.053 0.0
C274 C 0.99571 0.52463 0.14104 0.0
C275 C 0.96846 0.49481 0.11129 0.0
H276 H 0.05366 0.55651 0.13107 0.0
C277 C 0.98033 0.47328 1.04718 0.0
H278 H 0.98732 0.54228 0.18964 0.0
C279 C 0.01849 0.48145 1.01355 0.0
C280 C 0.04569 0.51133 1.04325 0.0
H281 H 0.96043 0.44964 1.02349 0.0
H282 H 0.02688 0.46392 0.96482 0.0
C283 C 0.03385 0.53279 0.10745 0.0
C284 C 0.97373 0.47286 0.54558 0.0
C285 C 0.9954 0.46092 0.60969 0.0
H286 H 0.96406 0.51944 0.46336 0.0
C287 C 0.02542 0.48804 0.63922 0.0
H288 H 0.94989 0.45312 0.52209 0.0
C289 C 0.03354 0.52619 0.60551 0.0
C290 C 0.01183 0.53814 0.54146 0.0
H291 H 0.0431 0.47957 0.68788 0.0
H292 H 0.05729 0.54602 0.62906 0.0
C293 C 0.98185 0.51099 0.51189 0.0
C294 C 0.52311 0.96282 0.60298 0.0
C295 C 0.54794 0.99854 0.60463 0.0
H296 H 0.46127 0.93878 0.59187 0.0
C297 C 0.52915 0.03759 0.61065 0.0
H298 H 0.53714 0.93253 0.59736 0.0
C299 C 0.48598 0.04113 0.60896 0.0
C300 C 0.46131 0.00568 0.59928 0.0
H301 H 0.54802 0.06544 0.61141 0.0
H302 H 0.4721 0.07165 0.60825 0.0
C303 C 0.47999 0.96641 0.59942 0.0
C304 C 0.28472 0.36802 0.09628 0.0
C305 C 0.29777 0.40974 0.09883 0.0
H306 H 0.30286 0.30435 0.08263 0.0
C307 C 0.3405 0.41849 0.09694 0.0
H308 H 0.252 0.36028 0.09793 0.0
C309 C 0.36924 0.3867 0.08771 0.0
C310 C 0.3561 0.34532 0.08071 0.0
H311 H 0.3517 0.45019 0.09783 0.0
H312 H 0.40183 0.3946 0.08337 0.0
C313 C 0.31371 0.33603 0.08787 0.0
C314 C 0.61796 0.32379 0.19921 0.0
C315 C 0.5911 0.31634 0.13932 0.0
H316 H 0.67224 0.35647 0.23771 0.0
C317 C 0.59792 0.33695 1.07213 0.0
H318 H 0.6134 0.30781 0.2513 0.0
C319 C 0.63115 0.36422 1.06426 0.0
C320 C 0.65862 0.37154 0.12333 0.0
H321 H 0.57775 0.33137 1.02504 0.0
H322 H 0.63583 0.37897 1.01112 0.0
C323 C 0.65175 0.3511 0.19111 0.0
C324 C 0.69046 0.67294 0.15059 0.0
C325 C 0.65205 0.66163 0.11946 0.0
H326 H 0.74717 0.65195 0.20053 0.0
C327 C 0.63966 0.61984 0.12226 0.0
H328 H 0.70074 0.70492 0.14932 0.0
C329 C 0.66586 0.58971 0.152 0.0
C330 C 0.70531 0.60051 0.17938 0.0
H331 H 0.60992 0.61026 0.10002 0.0
H332 H 0.65601 0.55759 0.14974 0.0
C333 C 0.71699 0.64263 0.17977 0.0
C334 C 0.34093 0.67845 0.09494 0.0
C335 C 0.34975 0.63735 0.07503 0.0
H336 H 0.36566 0.73716 0.12936 0.0
C337 C 0.39018 0.6222 0.08668 0.0
H338 H 0.31013 0.69096 0.08693 0.0
C339 C 0.42189 0.64849 0.11153 0.0
C340 C 0.41386 0.69054 0.12488 0.0
H341 H 0.39773 0.59037 1.07357 0.0
H342 H 0.45326 0.63664 0.11469 0.0
C343 C 0.37272 0.70483 0.11935 0.0
C344 C 0.8582 0.08523 0.54113 0.0
C345 C 0.81624 0.09334 0.5264 0.0
H346 H 0.91608 0.10924 0.58081 0.0
C347 C 0.80196 0.13446 0.5314 0.0
H348 H 0.87003 0.05388 0.53842 0.0
C349 C 0.82822 0.16615 0.55658 0.0
C350 C 0.86916 0.15726 0.57779 0.0
H351 H 0.76971 0.14158 0.5203 0.0
H352 H 0.81568 0.19695 0.56409 0.0
C353 C 0.88435 0.11685 0.56673 0.0
C354 C 0.86418 0.7898 0.47158 0.0
C355 C 0.90636 0.80137 0.47183 0.0
H356 H 0.80192 0.80625 0.50183 0.0
C357 C 0.91731 0.84082 0.49876 0.0
H358 H 0.85474 0.75964 0.45116 0.0
C359 C 0.88725 0.86713 0.52819 0.0
C360 C 0.8454 0.85487 0.53112 0.0
H361 H 0.94948 0.85058 0.50091 0.0
H362 H 0.89695 0.89687 0.55005 0.0
C363 C 0.83395 0.81644 0.50046 0.0
C364 C 0.16981 0.90841 0.57943 0.0
C365 C 0.19033 0.91533 0.51223 0.0
H366 H 0.12791 0.8704 0.64049 0.0
C367 C 0.18285 0.88853 0.4524 0.0
H368 H 0.17541 0.92853 0.62648 0.0
C369 C 0.15559 0.85471 0.46055 0.0
C370 C 0.13524 0.84774 0.52834 0.0
H371 H 0.19876 0.89316 0.40031 0.0
H372 H 0.15019 0.83427 0.41399 0.0
C373 C 0.14259 0.87515 0.58735 0.0
C374 C 0.08776 0.16612 0.55549 0.0
C375 C 0.09657 0.20881 0.55402 0.0
H376 H 0.11163 0.10475 0.56828 0.0
C377 C 0.13835 0.22179 0.55655 0.0
H378 H 0.05602 0.15496 0.5546 0.0
C379 C 0.17036 0.19274 0.56452 0.0
C380 C 0.16102 0.15036 0.57124 0.0
H381 H 0.14614 0.25447 0.55521 0.0
H382 H 0.20209 0.20351 0.56976 0.0
C383 C 0.11958 0.13732 0.56427 0.0
C384 C 0.38762 0.17509 0.35637 0.0
C385 C 0.38541 0.17125 0.27875 0.0
H386 H 0.36648 0.15315 0.46197 0.0
C387 C 0.35592 0.14379 0.24856 0.0
H388 H 0.40986 0.19603 0.38163 0.0
C389 C 0.33135 0.11881 0.29478 0.0
C390 C 0.33513 0.12108 0.37241 0.0
H391 H 0.35338 0.13987 0.18918 0.0
H392 H 0.31041 0.09657 0.26953 0.0
C393 C 0.3626 0.15057 0.40259 0.0
C394 C 0.8257 0.3876 0.42823 0.0
C395 C 0.83187 0.38706 0.35102 0.0
H396 H 0.84758 0.36805 0.53511 0.0
C397 C 0.86365 0.36201 0.32251 0.0
H398 H 0.8015 0.40654 0.45214 0.0
C399 C 0.89038 0.3405 0.37015 0.0
C400 C 0.88565 0.34289 0.44747 0.0
H401 H 0.86954 0.36093 0.26355 0.0
H402 H 0.91577 0.32312 0.34637 0.0
C403 C 0.85207 0.36548 0.4759 0.0
C404 C 0.67267 0.89063 0.29383 0.0
C405 C 0.66892 0.88858 0.37139 0.0
H406 H 0.65079 0.86906 0.1883 0.0
C407 C 0.64081 0.85973 0.40159 0.0
H408 H 0.69405 0.91237 0.26856 0.0
C409 C 0.61555 0.83527 0.35545 0.0
C410 C 0.61821 0.83843 0.27787 0.0
H411 H 0.63693 0.85734 0.46097 0.0
H412 H 0.59315 0.81458 0.38069 0.0
C413 C 0.64792 0.86564 0.2477 0.0
C414 C 0.11914 0.68064 0.22418 0.0
C415 C 0.1197 0.67449 0.30143 0.0
H416 H 0.13871 0.65879 0.11751 0.0
C417 C 0.14481 0.64275 0.33022 0.0
H418 H 0.10015 0.70479 0.20007 0.0
C419 C 0.16636 0.61607 0.2828 0.0
C420 C 0.16395 0.62079 0.20545 0.0
H421 H 0.1459 0.63688 0.38921 0.0
H422 H 0.18378 0.59073 0.3068 0.0
C423 C 0.14129 0.65431 0.17675 0.0
C424 C 0.61454 0.8327 0.80752 0.0
C425 C 0.62296 0.84196 0.8824 0.0
H426 H 0.62748 0.84619 0.69353 0.0
C427 C 0.65374 0.87136 0.89886 0.0
H428 H 0.59113 0.80997 0.79276 0.0
C429 C 0.67451 0.89211 0.84175 0.0
C430 C 0.66512 0.88382 0.76687 0.0
H431 H 0.66099 0.87921 0.95574 0.0
H432 H 0.69744 0.91532 0.85651 0.0
C433 C 0.63544 0.85331 0.75041 0.0
C434 C 0.11592 0.67075 0.77169 0.0
C435 C 0.12414 0.66327 0.69625 0.0
H436 H 0.1325 0.65864 0.88458 0.0
C437 C 0.15892 0.63941 0.67771 0.0
H438 H 0.08958 0.68933 0.78816 0.0
C439 C 0.18368 0.62187 0.73342 0.0
C440 C 0.17433 0.6279 0.80891 0.0
H441 H 0.16623 0.63316 0.62032 0.0
H442 H 0.20944 0.60244 0.71715 0.0
C443 C 0.1407 0.65337 0.82726 0.0
C444 C 0.33659 0.11036 0.8432 0.0
C445 C 0.34552 0.11848 0.76817 0.0
H446 H 0.35053 0.12378 0.95696 0.0
C447 C 0.37494 0.14914 0.75122 0.0
H448 H 0.31387 0.08705 0.85833 0.0
C449 C 0.39601 0.17007 0.80797 0.0
C450 C 0.38797 0.16105 0.883 0.0
H451 H 0.38255 0.15615 0.69421 0.0
H452 H 0.4192 0.19291 0.79285 0.0
C453 C 0.35747 0.13147 0.89995 0.0
C454 C 0.88478 0.32328 0.91964 0.0
C455 C 0.87873 0.33261 0.84407 0.0
H456 H 0.87345 0.34069 1.03258 0.0
C457 C 0.85321 0.36618 0.82542 0.0
H458 H 0.90426 0.29757 0.93613 0.0
C459 C 0.83577 0.39091 0.88078 0.0
C460 C 0.84326 0.3827 0.95629 0.0
H461 H 0.84792 0.37436 0.76803 0.0
H462 H 0.81714 0.4172 0.86408 0.0
C463 C 0.86718 0.34799 0.97513 0.0
loop_
_geom_bond_atom_site_label_1
_geom_bond_atom_site_label_2
_geom_bond_distance
_geom_bond_site_symmetry_2
_ccdc_geom_bond_type
C0 C1 1.351 . S
C0 N3 1.368 . S
C0 H5 0.931 . S
C1 C0 1.351 . S
C1 N2 1.373 1_556 S
C1 H29 0.930 . S
N2 C1 1.373 1_554 S
N2 C4 1.340 . S
N3 C0 1.368 . S
N3 C4 1.321 1_556 S
N3 Co6 2.136 . S
C4 N2 1.340 . S
C4 N3 1.321 1_554 S
C4 H28 0.930 . S
H5 C0 0.931 . S
Co6 N3 2.136 . S
Co6 N9 2.120 1_556 S
Co6 O14 2.059 . S
Co6 O17 2.034 1_556 S
Co6 N20 2.140 1_556 S
C7 O8 1.227 . S
C7 O17 1.265 . S
O8 C7 1.227 . S
N9 Co6 2.120 1_554 S
N9 C11 1.375 . S
N9 C12 1.313 1_554 S
C10 C11 1.338 . S
C10 N13 1.362 1_554 S
C10 H30 0.930 . S
C11 N9 1.375 . S
C11 C10 1.338 . S
C11 H15 0.931 . S
C12 N9 1.313 1_556 S
C12 N13 1.350 . S
C12 H16 0.930 . S
N13 C10 1.362 1_556 S
N13 C12 1.350 . S
O14 Co6 2.059 . S
O14 C18 1.253 . S
H15 C11 0.931 . S
H16 C12 0.930 . S
O17 Co6 2.034 1_554 S
O17 C7 1.265 . S
C18 O14 1.253 . S
C18 O19 1.227 . S
O19 C18 1.227 . S
N20 Co6 2.140 1_554 S
N20 C23 1.346 . S
N20 C24 1.345 1_554 S
C21 C22 1.387 . S
C21 C25 1.391 1_554 S
C22 C21 1.387 . S
C22 C23 1.369 . S
C22 H31 0.929 . S
C23 N20 1.346 . S
C23 C22 1.369 . S
C23 H26 0.928 . S
C24 N20 1.345 1_556 S
C24 C25 1.371 . S
C24 H27 0.931 . S
C25 C21 1.391 1_556 S
C25 C24 1.371 . S
C25 H32 0.930 . S
H26 C23 0.928 . S
H27 C24 0.931 . S
H28 C4 0.930 . S
H29 C1 0.930 . S
H30 C10 0.930 . S
H31 C22 0.929 . S
H32 C25 0.930 . S
C33 C34 1.351 . S
C33 N36 1.368 . S
C33 H38 0.931 . S
C34 C33 1.351 . S
C34 N35 1.373 1_556 S
C34 H62 0.930 . S
N35 C34 1.373 1_554 S
N35 C37 1.340 . S
N36 C33 1.368 . S
N36 C37 1.321 1_556 S
N36 Co39 2.136 . S
C37 N35 1.340 . S
C37 N36 1.321 1_554 S
C37 H61 0.930 . S
H38 C33 0.931 . S
Co39 N36 2.136 . S
Co39 N42 2.120 1_556 S
Co39 O47 2.059 . S
Co39 O50 2.034 1_556 S
Co39 N53 2.140 1_556 S
C40 O41 1.227 . S
C40 O50 1.265 . S
O41 C40 1.227 . S
N42 Co39 2.120 1_554 S
N42 C44 1.375 . S
N42 C45 1.313 1_554 S
C43 C44 1.338 . S
C43 N46 1.362 1_554 S
C43 H63 0.930 . S
C44 N42 1.375 . S
C44 C43 1.338 . S
C44 H48 0.931 . S
C45 N42 1.313 1_556 S
C45 N46 1.350 . S
C45 H49 0.930 . S
N46 C43 1.362 1_556 S
N46 C45 1.350 . S
O47 Co39 2.059 . S
O47 C51 1.253 . S
H48 C44 0.931 . S
H49 C45 0.930 . S
O50 Co39 2.034 1_554 S
O50 C40 1.265 . S
C51 O47 1.253 . S
C51 O52 1.227 . S
O52 C51 1.227 . S
N53 Co39 2.140 1_554 S
N53 C56 1.346 . S
N53 C57 1.345 1_554 S
C54 C55 1.387 . S
C54 C58 1.391 1_554 S
C55 C54 1.387 . S
C55 C56 1.369 . S
C55 H64 0.929 . S
C56 N53 1.346 . S
C56 C55 1.369 . S
C56 H59 0.928 . S
C57 N53 1.345 1_556 S
C57 C58 1.371 . S
C57 H60 0.931 . S
C58 C54 1.391 1_556 S
C58 C57 1.371 . S
C58 H65 0.930 . S
H59 C56 0.928 . S
H60 C57 0.931 . S
H61 C37 0.930 . S
H62 C34 0.930 . S
H63 C43 0.930 . S
H64 C55 0.929 . S
H65 C58 0.930 . S
C66 C67 1.351 . S
C66 N69 1.368 . S
C66 H71 0.931 . S
C67 C66 1.351 . S
C67 N68 1.373 1_556 S
C67 H95 0.930 . S
N68 C67 1.373 1_554 S
N68 C70 1.340 . S
N69 C66 1.368 . S
N69 C70 1.321 1_556 S
N69 Co72 2.136 . S
C70 N68 1.340 . S
C70 N69 1.321 1_554 S
C70 H94 0.930 . S
H71 C66 0.931 . S
Co72 N69 2.136 . S
Co72 N75 2.120 1_556 S
Co72 O80 2.059 . S
Co72 O83 2.034 1_556 S
Co72 N86 2.140 1_556 S
C73 O74 1.227 . S
C73 O83 1.265 . S
O74 C73 1.227 . S
N75 Co72 2.120 1_554 S
N75 C77 1.375 . S
N75 C78 1.313 1_554 S
C76 C77 1.338 . S
C76 N79 1.362 1_554 S
C76 H96 0.930 . S
C77 N75 1.375 . S
C77 C76 1.338 . S
C77 H81 0.931 . S
C78 N75 1.313 1_556 S
C78 N79 1.350 . S
C78 H82 0.930 . S
N79 C76 1.362 1_556 S
N79 C78 1.350 . S
O80 Co72 2.059 . S
O80 C84 1.253 . S
H81 C77 0.931 . S
H82 C78 0.930 . S
O83 Co72 2.034 1_554 S
O83 C73 1.265 . S
C84 O80 1.253 . S
C84 O85 1.227 . S
O85 C84 1.227 . S
N86 Co72 2.140 1_554 S
N86 C89 1.346 . S
N86 C90 1.345 1_554 S
C87 C88 1.387 . S
C87 C91 1.391 1_554 S
C88 C87 1.387 . S
C88 C89 1.369 . S
C88 H97 0.929 . S
C89 N86 1.346 . S
C89 C88 1.369 . S
C89 H92 0.928 . S
C90 N86 1.345 1_556 S
C90 C91 1.371 . S
C90 H93 0.931 . S
C91 C87 1.391 1_556 S
C91 C90 1.371 . S
C91 H98 0.930 . S
H92 C89 0.928 . S
H93 C90 0.931 . S
H94 C70 0.930 . S
H95 C67 0.930 . S
H96 C76 0.930 . S
H97 C88 0.929 . S
H98 C91 0.930 . S
C99 C100 1.351 . S
C99 N102 1.368 . S
C99 H104 0.931 . S
C100 C99 1.351 . S
C100 N101 1.373 1_556 S
C100 H128 0.930 . S
N101 C100 1.373 1_554 S
N101 C103 1.340 . S
N102 C99 1.368 . S
N102 C103 1.321 1_556 S
N102 Co105 2.136 . S
C103 N101 1.340 . S
C103 N102 1.321 1_554 S
C103 H127 0.930 . S
H104 C99 0.931 . S
Co105 N102 2.136 . S
Co105 N108 2.120 1_556 S
Co105 O113 2.059 . S
Co105 O116 2.034 1_556 S
Co105 N119 2.140 1_556 S
C106 O107 1.227 . S
C106 O116 1.265 . S
O107 C106 1.227 . S
N108 Co105 2.120 1_554 S
N108 C110 1.375 . S
N108 C111 1.313 1_554 S
C109 C110 1.338 . S
C109 N112 1.362 1_554 S
C109 H129 0.930 . S
C110 N108 1.375 . S
C110 C109 1.338 . S
C110 H114 0.931 . S
C111 N108 1.313 1_556 S
C111 N112 1.350 . S
C111 H115 0.930 . S
N112 C109 1.362 1_556 S
N112 C111 1.350 . S
O113 Co105 2.059 . S
O113 C117 1.253 . S
H114 C110 0.931 . S
H115 C111 0.930 . S
O116 Co105 2.034 1_554 S
O116 C106 1.265 . S
C117 O113 1.253 . S
C117 O118 1.227 . S
O118 C117 1.227 . S
N119 Co105 2.140 1_554 S
N119 C122 1.346 . S
N119 C123 1.345 1_554 S
C120 C121 1.387 . S
C120 C124 1.391 1_554 S
C121 C120 1.387 . S
C121 C122 1.369 . S
C121 H130 0.929 . S
C122 N119 1.346 . S
C122 C121 1.369 . S
C122 H125 0.928 . S
C123 N119 1.345 1_556 S
C123 C124 1.371 . S
C123 H126 0.931 . S
C124 C120 1.391 1_556 S
C124 C123 1.371 . S
C124 H131 0.930 . S
H125 C122 0.928 . S
H126 C123 0.931 . S
H127 C103 0.930 . S
H128 C100 0.930 . S
H129 C109 0.930 . S
H130 C121 0.929 . S
H131 C124 0.930 . S
C132 C133 1.351 . S
C132 N135 1.368 . S
C132 H137 0.931 . S
C133 C132 1.351 . S
C133 N134 1.373 . S
C133 H161 0.930 . S
N134 C133 1.373 . S
N134 C136 1.340 . S
N135 C132 1.368 . S
N135 C136 1.321 . S
N135 Co138 2.135 . S
C136 N134 1.340 . S
C136 N135 1.321 . S
C136 H160 0.930 . S
H137 C132 0.931 . S
Co138 N135 2.135 . S
Co138 N141 2.121 . S
Co138 O146 2.055 . S
Co138 O149 2.039 . S
Co138 N152 2.140 . S
C139 O140 1.227 . S
C139 O149 1.265 . S
O140 C139 1.227 . S
N141 Co138 2.121 . S
N141 C143 1.375 . S
N141 C144 1.313 . S
C142 C143 1.338 . S
C142 N145 1.377 . S
C142 H162 0.930 . S
C143 N141 1.375 . S
C143 C142 1.338 . S
C143 H147 0.931 . S
C144 N141 1.313 . S
C144 N145 1.344 . S
C144 H148 0.930 . S
N145 C142 1.377 . S
N145 C144 1.344 . S
O146 Co138 2.055 . S
O146 C150 1.253 . S
H147 C143 0.931 . S
H148 C144 0.930 . S
O149 Co138 2.039 . S
O149 C139 1.265 . S
C150 O146 1.253 . S
C150 O151 1.227 . S
O151 C150 1.227 . S
N152 Co138 2.140 . S
N152 C155 1.346 . S
N152 C156 1.345 . S
C153 C154 1.387 1_455 S
C153 C157 1.391 . S
C154 C153 1.387 1_655 S
C154 C155 1.369 . S
C154 H163 0.929 . S
C155 N152 1.346 . S
C155 C154 1.369 . S
C155 H158 0.928 . S
C156 N152 1.345 . S
C156 C157 1.371 1_655 S
C156 H159 0.931 . S
C157 C153 1.391 . S
C157 C156 1.371 1_455 S
C157 H164 0.930 . S
H158 C155 0.928 . S
H159 C156 0.931 . S
H160 C136 0.930 . S
H161 C133 0.930 . S
H162 C142 0.930 . S
H163 C154 0.929 . S
H164 C157 0.930 . S
C165 C166 1.351 . S
C165 N168 1.368 . S
C165 H170 0.931 . S
C166 C165 1.351 . S
C166 N167 1.373 . S
C166 H194 0.930 . S
N167 C166 1.373 . S
N167 C169 1.340 . S
N168 C165 1.368 . S
N168 C169 1.321 . S
N168 Co171 2.135 . S
C169 N167 1.340 . S
C169 N168 1.321 . S
C169 H193 0.930 . S
H170 C165 0.931 . S
Co171 N168 2.135 . S
Co171 N174 2.121 . S
Co171 O179 2.055 . S
Co171 O182 2.039 . S
Co171 N185 2.140 . S
C172 O173 1.227 . S
C172 O182 1.265 . S
O173 C172 1.227 . S
N174 Co171 2.121 . S
N174 C176 1.375 . S
N174 C177 1.313 . S
C175 C176 1.338 . S
C175 N178 1.377 . S
C175 H195 0.930 . S
C176 N174 1.375 . S
C176 C175 1.338 . S
C176 H180 0.931 . S
C177 N174 1.313 . S
C177 N178 1.344 . S
C177 H181 0.930 . S
N178 C175 1.377 . S
N178 C177 1.344 . S
O179 Co171 2.055 . S
O179 C183 1.253 . S
H180 C176 0.931 . S
H181 C177 0.930 . S
O182 Co171 2.039 . S
O182 C172 1.265 . S
C183 O179 1.253 . S
C183 O184 1.227 . S
O184 C183 1.227 . S
N185 Co171 2.140 . S
N185 C188 1.346 . S
N185 C189 1.345 . S
C186 C187 1.387 1_545 S
C186 C190 1.391 . S
C187 C186 1.387 1_565 S
C187 C188 1.369 . S
C187 H196 0.929 . S
C188 N185 1.346 . S
C188 C187 1.369 . S
C188 H191 0.928 . S
C189 N185 1.345 . S
C189 C190 1.371 1_565 S
C189 H192 0.931 . S
C190 C186 1.391 . S
C190 C189 1.371 1_545 S
C190 H197 0.930 . S
H191 C188 0.928 . S
H192 C189 0.931 . S
H193 C169 0.930 . S
H194 C166 0.930 . S
H195 C175 0.930 . S
H196 C187 0.929 . S
H197 C190 0.930 . S
C198 C199 1.351 . S
C198 N201 1.368 . S
C198 H203 0.931 . S
C199 C198 1.351 . S
C199 N200 1.373 . S
C199 H227 0.930 . S
N200 C199 1.373 . S
N200 C202 1.340 . S
N201 C198 1.368 . S
N201 C202 1.321 . S
N201 Co204 2.135 . S
C202 N200 1.340 . S
C202 N201 1.321 . S
C202 H226 0.930 . S
H203 C198 0.931 . S
Co204 N201 2.135 . S
Co204 N207 2.121 . S
Co204 O212 2.055 . S
Co204 O215 2.039 . S
Co204 N218 2.140 . S
C205 O206 1.227 . S
C205 O215 1.265 . S
O206 C205 1.227 . S
N207 Co204 2.121 . S
N207 C209 1.375 . S
N207 C210 1.313 . S
C208 C209 1.338 . S
C208 N211 1.377 . S
C208 H228 0.930 . S
C209 N207 1.375 . S
C209 C208 1.338 . S
C209 H213 0.931 . S
C210 N207 1.313 . S
C210 N211 1.344 . S
C210 H214 0.930 . S
N211 C208 1.377 . S
N211 C210 1.344 . S
O212 Co204 2.055 . S
O212 C216 1.253 . S
H213 C209 0.931 . S
H214 C210 0.930 . S
O215 Co204 2.039 . S
O215 C205 1.265 . S
C216 O212 1.253 . S
C216 O217 1.227 . S
O217 C216 1.227 . S
N218 Co204 2.140 . S
N218 C221 1.346 . S
N218 C222 1.345 . S
C219 C220 1.387 1_655 S
C219 C223 1.391 . S
C220 C219 1.387 1_455 S
C220 C221 1.369 . S
C220 H229 0.929 . S
C221 N218 1.346 . S
C221 C220 1.369 . S
C221 H224 0.928 . S
C222 N218 1.345 . S
C222 C223 1.371 1_455 S
C222 H225 0.931 . S
C223 C219 1.391 . S
C223 C222 1.371 1_655 S
C223 H230 0.930 . S
H224 C221 0.928 . S
H225 C222 0.931 . S
H226 C202 0.930 . S
H227 C199 0.930 . S
H228 C208 0.930 . S
H229 C220 0.929 . S
H230 C223 0.930 . S
C231 C232 1.351 . S
C231 N234 1.368 . S
C231 H236 0.931 . S
C232 C231 1.351 . S
C232 N233 1.373 . S
C232 H260 0.930 . S
N233 C232 1.373 . S
N233 C235 1.340 . S
N234 C231 1.368 . S
N234 C235 1.321 . S
N234 Co237 2.135 . S
C235 N233 1.340 . S
C235 N234 1.321 . S
C235 H259 0.930 . S
H236 C231 0.931 . S
Co237 N234 2.135 . S
Co237 N240 2.121 . S
Co237 O245 2.055 . S
Co237 O248 2.039 . S
Co237 N251 2.140 . S
C238 O239 1.227 . S
C238 O248 1.265 . S
O239 C238 1.227 . S
N240 Co237 2.121 . S
N240 C242 1.375 . S
N240 C243 1.313 . S
C241 C242 1.338 . S
C241 N244 1.377 . S
C241 H261 0.930 . S
C242 N240 1.375 . S
C242 C241 1.338 . S
C242 H246 0.931 . S
C243 N240 1.313 . S
C243 N244 1.344 . S
C243 H247 0.930 . S
N244 C241 1.377 . S
N244 C243 1.344 . S
O245 Co237 2.055 . S
O245 C249 1.253 . S
H246 C242 0.931 . S
H247 C243 0.930 . S
O248 Co237 2.039 . S
O248 C238 1.265 . S
C249 O245 1.253 . S
C249 O250 1.227 . S
O250 C249 1.227 . S
N251 Co237 2.140 . S
N251 C254 1.346 . S
N251 C255 1.345 . S
C252 C253 1.387 1_565 S
C252 C256 1.391 . S
C253 C252 1.387 1_545 S
C253 C254 1.369 . S
C253 H262 0.929 . S
C254 N251 1.346 . S
C254 C253 1.369 . S
C254 H257 0.928 . S
C255 N251 1.345 . S
C255 C256 1.371 1_545 S
C255 H258 0.931 . S
C256 C252 1.391 . S
C256 C255 1.371 1_565 S
C256 H263 0.930 . S
H257 C254 0.928 . S
H258 C255 0.931 . S
H259 C235 0.930 . S
H260 C232 0.930 . S
H261 C241 0.930 . S
H262 C253 0.929 . S
H263 C256 0.930 . S
C264 C265 1.387 1_554 S
C264 H268 0.950 . S
C264 C273 1.390 1_565 S
C265 C264 1.387 1_556 S
C265 C267 1.387 . S
H266 C273 0.950 . S
C267 C265 1.387 . S
C267 C269 1.390 1_565 S
C267 H271 0.950 . S
H268 C264 0.950 . S
C269 C267 1.390 1_545 S
C269 C270 1.387 . S
C269 H272 0.950 . S
C270 C269 1.387 . S
C270 C273 1.387 1_556 S
H271 C267 0.950 . S
H272 C269 0.950 . S
C273 C264 1.390 1_545 S
C273 H266 0.950 . S
C273 C270 1.387 1_554 S
C274 C275 1.387 1_554 S
C274 H278 0.950 . S
C274 C283 1.390 1_655 S
C275 C274 1.387 1_556 S
C275 C277 1.387 . S
H276 C283 0.950 . S
C277 C275 1.387 . S
C277 C279 1.390 1_655 S
C277 H281 0.950 . S
H278 C274 0.950 . S
C279 C277 1.390 1_455 S
C279 C280 1.387 . S
C279 H282 0.950 . S
C280 C279 1.387 . S
C280 C283 1.387 1_556 S
H281 C277 0.950 . S
H282 C279 0.950 . S
C283 C274 1.390 1_455 S
C283 H276 0.950 . S
C283 C280 1.387 1_554 S
C284 C285 1.387 . S
C284 H288 0.950 . S
C284 C293 1.390 1_655 S
C285 C284 1.387 . S
C285 C287 1.387 . S
H286 C293 0.950 . S
C287 C285 1.387 . S
C287 C289 1.390 1_655 S
C287 H291 0.950 . S
H288 C284 0.950 . S
C289 C287 1.390 1_455 S
C289 C290 1.387 . S
C289 H292 0.950 . S
C290 C289 1.387 . S
C290 C293 1.387 . S
H291 C287 0.950 . S
H292 C289 0.950 . S
C293 C284 1.390 1_455 S
C293 H286 0.950 . S
C293 C290 1.387 . S
C294 C295 1.387 . S
C294 H298 0.950 . S
C294 C303 1.390 1_565 S
C295 C294 1.387 . S
C295 C297 1.387 . S
H296 C303 0.950 . S
C297 C295 1.387 . S
C297 C299 1.390 1_565 S
C297 H301 0.950 . S
H298 C294 0.950 . S
C299 C297 1.390 1_545 S
C299 C300 1.387 . S
C299 H302 0.950 . S
C300 C299 1.387 . S
C300 C303 1.387 . S
H301 C297 0.950 . S
H302 C299 0.950 . S
C303 C294 1.390 1_545 S
C303 H296 0.950 . S
C303 C300 1.387 . S
C304 C305 1.387 . S
C304 H308 0.950 . S
C304 C313 1.390 . S
C305 C304 1.387 . S
C305 C307 1.387 1_554 S
H306 C313 0.950 . S
C307 C305 1.387 1_556 S
C307 C309 1.390 . S
C307 H311 0.950 . S
H308 C304 0.950 . S
C309 C307 1.390 . S
C309 C310 1.387 1_556 S
C309 H312 0.950 . S
C310 C309 1.387 1_554 S
C310 C313 1.387 . S
H311 C307 0.950 . S
H312 C309 0.950 . S
C313 C304 1.390 . S
C313 H306 0.950 . S
C313 C310 1.387 . S
C314 C315 1.387 . S
C314 H318 0.950 . S
C314 C323 1.390 . S
C315 C314 1.387 . S
C315 C317 1.387 1_554 S
H316 C323 0.950 . S
C317 C315 1.387 1_556 S
C317 C319 1.390 . S
C317 H321 0.950 . S
H318 C314 0.950 . S
C319 C317 1.390 . S
C319 C320 1.387 1_556 S
C319 H322 0.950 . S
C320 C319 1.387 1_554 S
C320 C323 1.387 . S
H321 C317 0.950 . S
H322 C319 0.950 . S
C323 C314 1.390 . S
C323 H316 0.950 . S
C323 C320 1.387 . S
C324 C325 1.387 . S
C324 H328 0.950 . S
C324 C333 1.390 . S
C325 C324 1.387 . S
C325 C327 1.387 1_554 S
H326 C333 0.950 . S
C327 C325 1.387 1_556 S
C327 C329 1.390 . S
C327 H331 0.950 . S
H328 C324 0.950 . S
C329 C327 1.390 . S
C329 C330 1.387 1_556 S
C329 H332 0.950 . S
C330 C329 1.387 1_554 S
C330 C333 1.387 . S
H331 C327 0.950 . S
H332 C329 0.950 . S
C333 C324 1.390 . S
C333 H326 0.950 . S
C333 C330 1.387 . S
C334 C335 1.387 . S
C334 H338 0.950 . S
C334 C343 1.390 . S
C335 C334 1.387 . S
C335 C337 1.387 1_554 S
H336 C343 0.950 . S
C337 C335 1.387 1_556 S
C337 C339 1.390 . S
C337 H341 0.950 . S
H338 C334 0.950 . S
C339 C337 1.390 . S
C339 C340 1.387 1_556 S
C339 H342 0.950 . S
C340 C339 1.387 1_554 S
C340 C343 1.387 . S
H341 C337 0.950 . S
H342 C339 0.950 . S
C343 C334 1.390 . S
C343 H336 0.950 . S
C343 C340 1.387 . S
C344 C345 1.387 . S
C344 H348 0.950 . S
C344 C353 1.390 . S
C345 C344 1.387 . S
C345 C347 1.387 . S
H346 C353 0.950 . S
C347 C345 1.387 . S
C347 C349 1.390 . S
C347 H351 0.950 . S
H348 C344 0.950 . S
C349 C347 1.390 . S
C349 C350 1.387 . S
C349 H352 0.950 . S
C350 C349 1.387 . S
C350 C353 1.387 . S
H351 C347 0.950 . S
H352 C349 0.950 . S
C353 C344 1.390 . S
C353 H346 0.950 . S
C353 C350 1.387 . S
C354 C355 1.387 . S
C354 H358 0.950 . S
C354 C363 1.390 . S
C355 C354 1.387 . S
C355 C357 1.387 . S
H356 C363 0.950 . S
C357 C355 1.387 . S
C357 C359 1.390 . S
C357 H361 0.950 . S
H358 C354 0.950 . S
C359 C357 1.390 . S
C359 C360 1.387 . S
C359 H362 0.950 . S
C360 C359 1.387 . S
C360 C363 1.387 . S
H361 C357 0.950 . S
H362 C359 0.950 . S
C363 C354 1.390 . S
C363 H356 0.950 . S
C363 C360 1.387 . S
C364 C365 1.387 . S
C364 H368 0.950 . S
C364 C373 1.390 . S
C365 C364 1.387 . S
C365 C367 1.387 . S
H366 C373 0.950 . S
C367 C365 1.387 . S
C367 C369 1.390 . S
C367 H371 0.950 . S
H368 C364 0.950 . S
C369 C367 1.390 . S
C369 C370 1.387 . S
C369 H372 0.950 . S
C370 C369 1.387 . S
C370 C373 1.387 . S
H371 C367 0.950 . S
H372 C369 0.950 . S
C373 C364 1.390 . S
C373 H366 0.950 . S
C373 C370 1.387 . S
C374 C375 1.387 . S
C374 H378 0.950 . S
C374 C383 1.390 . S
C375 C374 1.387 . S
C375 C377 1.387 . S
H376 C383 0.950 . S
C377 C375 1.387 . S
C377 C379 1.390 . S
C377 H381 0.950 . S
H378 C374 0.950 . S
C379 C377 1.390 . S
C379 C380 1.387 . S
C379 H382 0.950 . S
C380 C379 1.387 . S
C380 C383 1.387 . S
H381 C377 0.950 . S
H382 C379 0.950 . S
C383 C374 1.390 . S
C383 H376 0.950 . S
C383 C380 1.387 . S
C384 C385 1.387 . S
C384 H388 0.950 . S
C384 C393 1.390 . S
C385 C384 1.387 . S
C385 C387 1.387 . S
H386 C393 0.950 . S
C387 C385 1.387 . S
C387 C389 1.390 . S
C387 H391 0.950 . S
H388 C384 0.950 . S
C389 C387 1.390 . S
C389 C390 1.387 . S
C389 H392 0.950 . S
C390 C389 1.387 . S
C390 C393 1.387 . S
H391 C387 0.950 . S
H392 C389 0.950 . S
C393 C384 1.390 . S
C393 H386 0.950 . S
C393 C390 1.387 . S
C394 C395 1.387 . S
C394 H398 0.950 . S
C394 C403 1.390 . S
C395 C394 1.387 . S
C395 C397 1.387 . S
H396 C403 0.950 . S
C397 C395 1.387 . S
C397 C399 1.390 . S
C397 H401 0.950 . S
H398 C394 0.950 . S
C399 C397 1.390 . S
C399 C400 1.387 . S
C399 H402 0.950 . S
C400 C399 1.387 . S
C400 C403 1.387 . S
H401 C397 0.950 . S
H402 C399 0.950 . S
C403 C394 1.390 . S
C403 H396 0.950 . S
C403 C400 1.387 . S
C404 C405 1.387 . S
C404 H408 0.950 . S
C404 C413 1.390 . S
C405 C404 1.387 . S
C405 C407 1.387 . S
H406 C413 0.950 . S
C407 C405 1.387 . S
C407 C409 1.390 . S
C407 H411 0.950 . S
H408 C404 0.950 . S
C409 C407 1.390 . S
C409 C410 1.387 . S
C409 H412 0.950 . S
C410 C409 1.387 . S
C410 C413 1.387 . S
H411 C407 0.950 . S
H412 C409 0.950 . S
C413 C404 1.390 . S
C413 H406 0.950 . S
C413 C410 1.387 . S
C414 C415 1.387 . S
C414 H418 0.950 . S
C414 C423 1.390 . S
C415 C414 1.387 . S
C415 C417 1.387 . S
H416 C423 0.950 . S
C417 C415 1.387 . S
C417 C419 1.390 . S
C417 H421 0.950 . S
H418 C414 0.950 . S
C419 C417 1.390 . S
C419 C420 1.387 . S
C419 H422 0.950 . S
C420 C419 1.387 . S
C420 C423 1.387 . S
H421 C417 0.950 . S
H422 C419 0.950 . S
C423 C414 1.390 . S
C423 H416 0.950 . S
C423 C420 1.387 . S
C424 C425 1.387 . S
C424 H428 0.950 . S
C424 C433 1.390 . S
C425 C424 1.387 . S
C425 C427 1.387 . S
H426 C433 0.950 . S
C427 C425 1.387 . S
C427 C429 1.390 . S
C427 H431 0.950 . S
H428 C424 0.950 . S
C429 C427 1.390 . S
C429 C430 1.387 . S
C429 H432 0.950 . S
C430 C429 1.387 . S
C430 C433 1.387 . S
H431 C427 0.950 . S
H432 C429 0.950 . S
C433 C424 1.390 . S
C433 H426 0.950 . S
C433 C430 1.387 . S
C434 C435 1.387 . S
C434 H438 0.950 . S
C434 C443 1.390 . S
C435 C434 1.387 . S
C435 C437 1.387 . S
H436 C443 0.950 . S
C437 C435 1.387 . S
C437 C439 1.390 . S
C437 H441 0.950 . S
H438 C434 0.950 . S
C439 C437 1.390 . S
C439 C440 1.387 . S
C439 H442 0.950 . S
C440 C439 1.387 . S
C440 C443 1.387 . S
H441 C437 0.950 . S
H442 C439 0.950 . S
C443 C434 1.390 . S
C443 H436 0.950 . S
C443 C440 1.387 . S
C444 C445 1.387 . S
C444 H448 0.950 . S
C444 C453 1.390 . S
C445 C444 1.387 . S
C445 C447 1.387 . S
H446 C453 0.950 . S
C447 C445 1.387 . S
C447 C449 1.390 . S
C447 H451 0.950 . S
H448 C444 0.950 . S
C449 C447 1.390 . S
C449 C450 1.387 . S
C449 H452 0.950 . S
C450 C449 1.387 . S
C450 C453 1.387 . S
H451 C447 0.950 . S
H452 C449 0.950 . S
C453 C444 1.390 . S
C453 H446 0.950 . S
C453 C450 1.387 . S
C454 C455 1.387 . S
C454 H458 0.950 . S
C454 C463 1.390 . S
C455 C454 1.387 . S
C455 C457 1.387 . S
H456 C463 0.950 . S
C457 C455 1.387 . S
C457 C459 1.390 . S
C457 H461 0.950 . S
H458 C454 0.950 . S
C459 C457 1.390 . S
C459 C460 1.387 . S
C459 H462 0.950 . S
C460 C459 1.387 . S
C460 C463 1.387 . S
H461 C457 0.950 . S
H462 C459 0.950 . S
C463 C454 1.390 . S
C463 H456 0.950 . S
C463 C460 1.387 . S
C265 N79 1.325 . S
C270 N13 1.325 . S
C275 N46 1.325 . S
C280 N112 1.325 . S
C285 N145 1.321 . S
C290 N211 1.321 . S
C295 N178 1.321 . S
C300 N244 1.321 . S
C305 C120 1.559 . S
C310 N2 1.506 . S
C315 C21 1.559 . S
C320 N35 1.506 . S
C325 N68 1.506 . S
C330 C54 1.559 . S
C335 N101 1.506 . S
C340 C87 1.559 . S
C345 C186 1.558 . S
C350 N134 1.506 . S
C355 C219 1.559 . S
C360 N167 1.506 . S
C365 C252 1.558 . S
C370 N200 1.506 . S
C375 C153 1.558 . S
C380 N233 1.506 . S
C385 C7 1.551 . S
C390 C238 1.552 . S
C395 C40 1.551 . S
C400 C139 1.552 . S
C405 C172 1.551 . S
C410 C73 1.552 . S
C415 C205 1.551 . S
C420 C106 1.552 . S
C425 C84 1.484 . S
C430 C183 1.484 . S
C435 C216 1.484 . S
C440 C117 1.484 . S
C445 C249 1.484 . S
C450 C18 1.483 . S
C455 C150 1.484 . S
C460 C51 1.484 . S
