# Generated by pormake.
# Topology wiv, (6)-cn, num edge types: 1
# Building blocks:
#     Node 0, Type 0, BuildingBlock: CIFDUS_clean_sbu_1, # of connection points: 6
#     Node 1, Type 0, BuildingBlock: CIFDUS_clean_sbu_1, # of connection points: 6
#     Node 2, Type 0, BuildingBlock: CIFDUS_clean_sbu_1, # of connection points: 6
#     Node 3, Type 0, BuildingBlock: CIFDUS_clean_sbu_1, # of connection points: 6
#     Node 4, Type 0, BuildingBlock: CIFDUS_clean_sbu_1, # of connection points: 6
#     Node 5, Type 0, BuildingBlock: CIFDUS_clean_sbu_1, # of connection points: 6
#     Node 6, Type 0, BuildingBlock: CIFDUS_clean_sbu_1, # of connection points: 6
#     Node 7, Type 0, BuildingBlock: CIFDUS_clean_sbu_1, # of connection points: 6
#     Node 8, Type 0, BuildingBlock: CIFDUS_clean_sbu_1, # of connection points: 6
#     Node 9, Type 0, BuildingBlock: CIFDUS_clean_sbu_1, # of connection points: 6
#     Node 10, Type 0, BuildingBlock: CIFDUS_clean_sbu_1, # of connection points: 6
#     Node 11, Type 0, BuildingBlock: CIFDUS_clean_sbu_1, # of connection points: 6
#     Node 12, Type 0, BuildingBlock: CIFDUS_clean_sbu_1, # of connection points: 6
#     Node 13, Type 0, BuildingBlock: CIFDUS_clean_sbu_1, # of connection points: 6
#     Node 14, Type 0, BuildingBlock: CIFDUS_clean_sbu_1, # of connection points: 6
#     Node 15, Type 0, BuildingBlock: CIFDUS_clean_sbu_1, # of connection points: 6
#     Edge 16, Type (0, 0), BuildingBlock: AJUNOK_clean_linker_0, # of connection points: 2
#     Edge 17, Type (0, 0), BuildingBlock: AJUNOK_clean_linker_0, # of connection points: 2
#     Edge 18, Type (0, 0), BuildingBlock: AJUNOK_clean_linker_0, # of connection points: 2
#     Edge 19, Type (0, 0), BuildingBlock: AJUNOK_clean_linker_0, # of connection points: 2
#     Edge 20, Type (0, 0), BuildingBlock: AJUNOK_clean_linker_0, # of connection points: 2
#     Edge 21, Type (0, 0), BuildingBlock: AJUNOK_clean_linker_0, # of connection points: 2
#     Edge 22, Type (0, 0), BuildingBlock: AJUNOK_clean_linker_0, # of connection points: 2
#     Edge 23, Type (0, 0), BuildingBlock: AJUNOK_clean_linker_0, # of connection points: 2
#     Edge 24, Type (0, 0), BuildingBlock: AJUNOK_clean_linker_0, # of connection points: 2
#     Edge 25, Type (0, 0), BuildingBlock: AJUNOK_clean_linker_0, # of connection points: 2
#     Edge 26, Type (0, 0), BuildingBlock: AJUNOK_clean_linker_0, # of connection points: 2
#     Edge 27, Type (0, 0), BuildingBlock: AJUNOK_clean_linker_0, # of connection points: 2
#     Edge 28, Type (0, 0), BuildingBlock: AJUNOK_clean_linker_0, # of connection points: 2
#     Edge 29, Type (0, 0), BuildingBlock: AJUNOK_clean_linker_0, # of connection points: 2
#     Edge 30, Type (0, 0), BuildingBlock: AJUNOK_clean_linker_0, # of connection points: 2
#     Edge 31, Type (0, 0), BuildingBlock: AJUNOK_clean_linker_0, # of connection points: 2
#     Edge 32, Type (0, 0), BuildingBlock: AJUNOK_clean_linker_0, # of connection points: 2
#     Edge 33, Type (0, 0), BuildingBlock: AJUNOK_clean_linker_0, # of connection points: 2
#     Edge 34, Type (0, 0), BuildingBlock: AJUNOK_clean_linker_0, # of connection points: 2
#     Edge 35, Type (0, 0), BuildingBlock: AJUNOK_clean_linker_0, # of connection points: 2
#     Edge 36, Type (0, 0), BuildingBlock: AJUNOK_clean_linker_0, # of connection points: 2
#     Edge 37, Type (0, 0), BuildingBlock: AJUNOK_clean_linker_0, # of connection points: 2
#     Edge 38, Type (0, 0), BuildingBlock: AJUNOK_clean_linker_0, # of connection points: 2
#     Edge 39, Type (0, 0), BuildingBlock: AJUNOK_clean_linker_0, # of connection points: 2
#     Edge 40, Type (0, 0), BuildingBlock: AJUNOK_clean_linker_0, # of connection points: 2
#     Edge 41, Type (0, 0), BuildingBlock: AJUNOK_clean_linker_0, # of connection points: 2
#     Edge 42, Type (0, 0), BuildingBlock: AJUNOK_clean_linker_0, # of connection points: 2
#     Edge 43, Type (0, 0), BuildingBlock: AJUNOK_clean_linker_0, # of connection points: 2
#     Edge 44, Type (0, 0), BuildingBlock: AJUNOK_clean_linker_0, # of connection points: 2
#     Edge 45, Type (0, 0), BuildingBlock: AJUNOK_clean_linker_0, # of connection points: 2
#     Edge 46, Type (0, 0), BuildingBlock: AJUNOK_clean_linker_0, # of connection points: 2
#     Edge 47, Type (0, 0), BuildingBlock: AJUNOK_clean_linker_0, # of connection points: 2
#     Edge 48, Type (0, 0), BuildingBlock: AJUNOK_clean_linker_0, # of connection points: 2
#     Edge 49, Type (0, 0), BuildingBlock: AJUNOK_clean_linker_0, # of connection points: 2
#     Edge 50, Type (0, 0), BuildingBlock: AJUNOK_clean_linker_0, # of connection points: 2
#     Edge 51, Type (0, 0), BuildingBlock: AJUNOK_clean_linker_0, # of connection points: 2
#     Edge 52, Type (0, 0), BuildingBlock: AJUNOK_clean_linker_0, # of connection points: 2
#     Edge 53, Type (0, 0), BuildingBlock: AJUNOK_clean_linker_0, # of connection points: 2
#     Edge 54, Type (0, 0), BuildingBlock: AJUNOK_clean_linker_0, # of connection points: 2
#     Edge 55, Type (0, 0), BuildingBlock: AJUNOK_clean_linker_0, # of connection points: 2
#     Edge 56, Type (0, 0), BuildingBlock: AJUNOK_clean_linker_0, # of connection points: 2
#     Edge 57, Type (0, 0), BuildingBlock: AJUNOK_clean_linker_0, # of connection points: 2
#     Edge 58, Type (0, 0), BuildingBlock: AJUNOK_clean_linker_0, # of connection points: 2
#     Edge 59, Type (0, 0), BuildingBlock: AJUNOK_clean_linker_0, # of connection points: 2
#     Edge 60, Type (0, 0), BuildingBlock: AJUNOK_clean_linker_0, # of connection points: 2
#     Edge 61, Type (0, 0), BuildingBlock: AJUNOK_clean_linker_0, # of connection points: 2
#     Edge 62, Type (0, 0), BuildingBlock: AJUNOK_clean_linker_0, # of connection points: 2
#     Edge 63, Type (0, 0), BuildingBlock: AJUNOK_clean_linker_0, # of connection points: 2
# Relax obj value: 0.082
# Max RMSD: 0.121
# Mean RMSD: 0.121
data_MOF--net-wiv--node1-CIFDUS_clean_sbu_1--edge1-AJUNOK_clean_linker_0
_symmetry_space_group_name_H-M    P1
_symmetry_Int_Tables_number       1
_symmetry_cell_setting            triclinic
loop_
_symmetry_equiv_pos_as_xyz
'x, y, z'
_cell_length_a     44.516036
_cell_length_b     44.686408
_cell_length_c     11.595787
_cell_angle_alpha  89.948271
_cell_angle_beta   90.047226
_cell_angle_gamma 90.061459
loop_
_atom_site_label
_atom_site_type_symbol
_atom_site_fract_x
_atom_site_fract_y
_atom_site_fract_z
_atom_type_partial_charge
O0 O 0.32667 0.13595 0.06291 0.0
Mn1 Mn 0.37208 0.12844 0.11648 0.0
O2 O 0.3075 0.0916 0.01717 0.0
Mn3 Mn 0.34509 0.07545 -0.00401 0.0
O4 O 0.42015 0.12105 0.15004 0.0
O5 O 0.37311 0.17629 0.12584 0.0
Mn6 Mn 0.40264 0.16536 0.22598 0.0
O7 O 0.35936 0.1244 0.2914 0.0
O8 O 0.43906 0.16631 0.1574 0.0
O9 O 0.38242 0.13113 0.93933 0.0
O10 O 0.3634 0.08855 0.86448 0.0
O11 O 0.38578 0.19546 0.29713 0.0
O12 O 0.40354 0.1383 0.34434 0.0
C13 C 0.36945 0.05222 0.11971 0.0
C14 C 0.30499 0.11979 0.02318 0.0
C15 C 0.44354 0.13854 0.14892 0.0
C16 C 0.36998 0.19765 0.20456 0.0
C17 C 0.37976 0.12531 0.36811 0.0
C18 C 0.37688 0.11341 0.85416 0.0
O19 O 0.36954 0.08175 0.11387 0.0
O20 O 0.35322 0.03816 0.04424 0.0
O21 O 0.13618 0.69189 0.90581 0.0
Mn22 Mn 0.13196 0.64505 0.86819 0.0
O23 O 0.10259 0.69689 0.04445 0.0
Mn24 Mn 0.0779 0.66697 -0.00557 0.0
O25 O 0.12991 0.59544 0.84669 0.0
O26 O 0.17979 0.64795 0.85809 0.0
Mn27 Mn 0.17151 0.61777 0.75737 0.0
O28 O 0.12711 0.65555 0.69205 0.0
O29 O 0.17749 0.58331 0.83208 0.0
O30 O 0.13302 0.63699 0.04981 0.0
O31 O 0.08405 0.6368 0.0986 0.0
O32 O 0.2012 0.63618 0.68856 0.0
O33 O 0.14362 0.61252 0.64072 0.0
C34 C 0.0639 0.65816 0.81782 0.0
C35 C 0.12593 0.70578 -0.00512 0.0
C36 C 0.15097 0.57499 0.85016 0.0
C37 C 0.2015 0.65228 0.78079 0.0
C38 C 0.12866 0.63512 0.61657 0.0
C39 C 0.11162 0.63246 0.12428 0.0
O40 O 0.08531 0.64363 0.87057 0.0
O41 O 0.05592 0.68163 0.87346 0.0
O42 O 0.68903 0.88709 0.07232 0.0
Mn43 Mn 0.64198 0.89154 0.10991 0.0
O44 O 0.69519 0.9228 0.93908 0.0
Mn45 Mn 0.66126 0.94523 0.96915 0.0
O46 O 0.59479 0.89458 0.12909 0.0
O47 O 0.64097 0.84386 0.11452 0.0
Mn48 Mn 0.62538 0.84727 0.25516 0.0
O49 O 0.64907 0.8976 0.29215 0.0
O50 O 0.58964 0.86675 0.28384 0.0
O51 O 0.63482 0.88858 0.93033 0.0
O52 O 0.63184 0.93567 0.86602 0.0
O53 O 0.61789 0.80987 0.23739 0.0
O54 O 0.65607 0.8524 0.35345 0.0
C55 C 0.65281 0.96306 0.1373 0.0
C56 C 0.70387 0.89895 0.98751 0.0
C57 C 0.5783 0.88379 0.20917 0.0
C58 C 0.63395 0.81606 0.14706 0.0
C59 C 0.65688 0.87964 0.37376 0.0
C60 C 0.62942 0.90765 0.84895 0.0
O61 O 0.64195 0.93766 0.10008 0.0
O62 O 0.66741 0.97787 0.05949 0.0
O63 O 0.88349 0.32691 0.9195 0.0
Mn64 Mn 0.89123 0.3737 0.87859 0.0
O65 O 0.92777 0.30605 0.9138 0.0
Mn66 Mn 0.94259 0.34176 0.96587 0.0
O67 O 0.89488 0.42068 0.85726 0.0
O68 O 0.84313 0.37639 0.88093 0.0
Mn69 Mn 0.84994 0.38718 0.73419 0.0
O70 O 0.89683 0.36608 0.69761 0.0
O71 O 0.86982 0.42221 0.69526 0.0
O72 O 0.89066 0.37998 0.05846 0.0
O73 O 0.93018 0.35197 0.11023 0.0
O74 O 0.81318 0.39743 0.73841 0.0
O75 O 0.8523 0.35483 0.64158 0.0
C76 C 0.96823 0.37052 0.87261 0.0
C77 C 0.89995 0.30337 0.93001 0.0
C78 C 0.88484 0.4356 0.77141 0.0
C79 C 0.81664 0.38498 0.83849 0.0
C80 C 0.8794 0.35597 0.61901 0.0
C81 C 0.90791 0.36831 0.1359 0.0
O82 O 0.93852 0.37272 0.87177 0.0
O83 O 0.98059 0.34972 0.93477 0.0
O84 O 0.33319 0.37899 0.17326 0.0
Mn85 Mn 0.3797 0.38696 0.12294 0.0
O86 O 0.31316 0.42367 0.18215 0.0
Mn87 Mn 0.34995 0.43786 0.22678 0.0
O88 O 0.42702 0.39393 0.09377 0.0
O89 O 0.38327 0.34058 0.1212 0.0
Mn90 Mn 0.41488 0.34063 0.02558 0.0
O91 O 0.37107 0.38746 0.94523 0.0
O92 O 0.44718 0.34924 0.11635 0.0
O93 O 0.38899 0.38535 0.29925 0.0
O94 O 0.36397 0.42482 0.3675 0.0
O95 O 0.39535 0.30697 0.98931 0.0
O96 O 0.41352 0.36485 0.89745 0.0
C97 C 0.37541 0.46397 0.12137 0.0
C98 C 0.31034 0.39591 0.19553 0.0
C99 C 0.45028 0.37741 0.11513 0.0
C100 C 0.3756 0.31654 0.06241 0.0
C101 C 0.39096 0.3803 0.87004 0.0
C102 C 0.37944 0.40145 0.38276 0.0
O103 O 0.37791 0.43434 0.11847 0.0
O104 O 0.35669 0.4758 0.19393 0.0
O105 O 0.3801 0.68638 0.81782 0.0
Mn106 Mn 0.38988 0.6407 0.86237 0.0
O107 O 0.42254 0.70361 0.73574 0.0
Mn108 Mn 0.4433 0.66816 0.74383 0.0
O109 O 0.40079 0.5942 0.89475 0.0
O110 O 0.34345 0.63335 0.85638 0.0
Mn111 Mn 0.34515 0.60119 0.94837 0.0
O112 O 0.38817 0.64854 0.04013 0.0
O113 O 0.3588 0.56955 0.8635 0.0
O114 O 0.39039 0.63275 0.68292 0.0
O115 O 0.43627 0.64438 0.61919 0.0
O116 O 0.30828 0.61505 0.9735 0.0
O117 O 0.3657 0.60586 0.0858 0.0
C118 C 0.46516 0.6517 0.88773 0.0
C119 C 0.39505 0.70671 0.76197 0.0
C120 C 0.38703 0.56912 0.87522 0.0
C121 C 0.31808 0.63753 0.91328 0.0
C122 C 0.37981 0.6292 0.1155 0.0
C123 C 0.4099 0.63495 0.60162 0.0
O124 O 0.43598 0.64824 0.87278 0.0
O125 O 0.47967 0.66667 0.80969 0.0
O126 O 0.65471 0.62602 0.94813 0.0
Mn127 Mn 0.64363 0.62906 0.1246 0.0
O128 O 0.61085 0.64134 0.89321 0.0
Mn129 Mn 0.61518 0.67332 0.99053 0.0
O130 O 0.6345 0.62986 0.30173 0.0
O131 O 0.64575 0.58164 0.12137 0.0
Mn132 Mn 0.67721 0.58067 0.21665 0.0
O133 O 0.6893 0.63834 0.17645 0.0
O134 O 0.66677 0.59442 0.36066 0.0
O135 O 0.59547 0.62473 0.09642 0.0
O136 O 0.58142 0.6723 0.07857 0.0
O137 O 0.67145 0.54218 0.19385 0.0
O138 O 0.712 0.59605 0.1567 0.0
C139 C 0.65491 0.69419 0.04811 0.0
C140 C 0.63421 0.62712 0.87132 0.0
C141 C 0.64795 0.61495 0.38159 0.0
C142 C 0.64997 0.55227 0.12879 0.0
C143 C 0.71359 0.6231 0.18473 0.0
C144 C 0.57463 0.64523 0.10017 0.0
O145 O 0.64051 0.67522 0.11373 0.0
O146 O 0.64985 0.69103 0.94046 0.0
O147 O 0.63643 0.32836 0.80448 0.0
Mn148 Mn 0.62781 0.37373 0.86307 0.0
O149 O 0.59191 0.30912 0.75535 0.0
Mn150 Mn 0.57437 0.34623 0.73777 0.0
O151 O 0.62005 0.42034 0.90385 0.0
O152 O 0.67348 0.3796 0.87178 0.0
Mn153 Mn 0.67349 0.4059 0.99003 0.0
O154 O 0.62562 0.36214 0.03978 0.0
O155 O 0.66573 0.44015 0.90817 0.0
O156 O 0.62981 0.38503 0.68745 0.0
O157 O 0.58666 0.36762 0.6109 0.0
O158 O 0.69792 0.37526 0.03287 0.0
O159 O 0.64493 0.40468 0.10129 0.0
C160 C 0.55296 0.36902 0.8718 0.0
C161 C 0.62025 0.30674 0.7621 0.0
C162 C 0.63743 0.44371 0.90171 0.0
C163 C 0.6951 0.36649 0.9282 0.0
C164 C 0.63022 0.38141 0.11993 0.0
C165 C 0.61162 0.38129 0.60235 0.0
O166 O 0.5821 0.36875 0.85834 0.0
O167 O 0.53758 0.35377 0.79721 0.0
O168 O 0.82847 0.63286 0.57017 0.0
Mn169 Mn 0.87487 0.62814 0.61125 0.0
O170 O 0.82257 0.596 0.44176 0.0
Mn171 Mn 0.85925 0.57765 0.46833 0.0
O172 O 0.92325 0.62556 0.64284 0.0
O173 O 0.87608 0.67464 0.62561 0.0
Mn174 Mn 0.90024 0.67524 0.75131 0.0
O175 O 0.86492 0.62195 0.78774 0.0
O176 O 0.93559 0.67336 0.6697 0.0
O177 O 0.88308 0.63357 0.43046 0.0
O178 O 0.88935 0.58728 0.37075 0.0
O179 O 0.86217 0.68581 0.79892 0.0
O180 O 0.9058 0.64341 0.84609 0.0
C181 C 0.86972 0.5514 0.60434 0.0
C182 C 0.81295 0.61942 0.49167 0.0
C183 C 0.9437 0.64642 0.65238 0.0
C184 C 0.85999 0.6918 0.69238 0.0
C185 C 0.88535 0.62513 0.86374 0.0
C186 C 0.89078 0.61479 0.35173 0.0
O187 O 0.87217 0.58094 0.61201 0.0
O188 O 0.85933 0.53973 0.5099 0.0
O189 O 0.64218 0.18693 0.42431 0.0
Mn190 Mn 0.63204 0.142 0.37029 0.0
O191 O 0.59974 0.21086 0.41293 0.0
Mn192 Mn 0.58348 0.1753 0.45841 0.0
O193 O 0.62329 0.09422 0.33718 0.0
O194 O 0.68021 0.14061 0.36726 0.0
Mn195 Mn 0.67238 0.10854 0.27754 0.0
O196 O 0.63154 0.15384 0.19625 0.0
O197 O 0.66774 0.07499 0.36197 0.0
O198 O 0.63152 0.13289 0.54839 0.0
O199 O 0.59478 0.16389 0.60366 0.0
O200 O 0.70789 0.11796 0.22833 0.0
O201 O 0.65003 0.11081 0.1432 0.0
C202 C 0.55477 0.14998 0.3648 0.0
C203 C 0.62739 0.21138 0.43357 0.0
C204 C 0.63992 0.071 0.35908 0.0
C205 C 0.70408 0.14035 0.29755 0.0
C206 C 0.63809 0.13533 0.11699 0.0
C207 C 0.61576 0.14576 0.62751 0.0
O208 O 0.58422 0.14467 0.35981 0.0
O209 O 0.54505 0.17164 0.4293 0.0
O210 O 0.19133 0.38189 0.56325 0.0
Mn211 Mn 0.14601 0.38997 0.6135 0.0
O212 O 0.20045 0.42092 0.44538 0.0
Mn213 Mn 0.16562 0.44243 0.47346 0.0
O214 O 0.09882 0.39892 0.64776 0.0
O215 O 0.14034 0.34341 0.62565 0.0
Mn216 Mn 0.1133 0.35087 0.73881 0.0
O217 O 0.15865 0.39278 0.78863 0.0
O218 O 0.07778 0.35432 0.66271 0.0
O219 O 0.13575 0.38683 0.43394 0.0
O220 O 0.13487 0.43404 0.37629 0.0
O221 O 0.1382 0.32391 0.80103 0.0
O222 O 0.11426 0.38001 0.84839 0.0
C223 C 0.15466 0.46544 0.62205 0.0
C224 C 0.20759 0.39548 0.4868 0.0
C225 C 0.07486 0.38228 0.64807 0.0
C226 C 0.14861 0.32211 0.69797 0.0
C227 C 0.13918 0.39136 0.86878 0.0
C228 C 0.13077 0.40669 0.35551 0.0
O229 O 0.15185 0.43617 0.61351 0.0
O230 O 0.16627 0.47936 0.53464 0.0
O231 O 0.3805 0.82942 0.43176 0.0
Mn232 Mn 0.38693 0.87557 0.3818 0.0
O233 O 0.42447 0.81602 0.50968 0.0
Mn234 Mn 0.43984 0.8541 0.50975 0.0
O235 O 0.39449 0.92251 0.34409 0.0
O236 O 0.34027 0.87634 0.37234 0.0
Mn237 Mn 0.33626 0.91014 0.29437 0.0
O238 O 0.38687 0.86802 0.20426 0.0
O239 O 0.35047 0.94303 0.37108 0.0
O240 O 0.38383 0.88483 0.55961 0.0
O241 O 0.42909 0.87655 0.63416 0.0
O242 O 0.29817 0.9002 0.32155 0.0
O243 O 0.35207 0.90213 0.14936 0.0
C244 C 0.46385 0.87051 0.37505 0.0
C245 C 0.39712 0.81051 0.48803 0.0
C246 C 0.37837 0.94611 0.36074 0.0
C247 C 0.31075 0.87674 0.36647 0.0
C248 C 0.37212 0.88259 0.12638 0.0
C249 C 0.40217 0.88484 0.64502 0.0
O250 O 0.43412 0.87258 0.37656 0.0
O251 O 0.47733 0.85852 0.46294 0.0
O252 O 0.83116 0.8855 0.6731 0.0
Mn253 Mn 0.87841 0.88944 0.63593 0.0
O254 O 0.82231 0.92536 0.78633 0.0
Mn255 Mn 0.85955 0.94337 0.76877 0.0
O256 O 0.92597 0.8923 0.61901 0.0
O257 O 0.87898 0.84151 0.63143 0.0
Mn258 Mn 0.89426 0.84615 0.49044 0.0
O259 O 0.87208 0.89564 0.4544 0.0
O260 O 0.92985 0.8659 0.46081 0.0
O261 O 0.88515 0.88579 0.81594 0.0
O262 O 0.88642 0.93266 0.87912 0.0
O263 O 0.90251 0.80884 0.50483 0.0
O264 O 0.86363 0.85107 0.39084 0.0
C265 C 0.87615 0.96549 0.62606 0.0
C266 C 0.8144 0.90013 0.74551 0.0
C267 C 0.9421 0.88163 0.53758 0.0
C268 C 0.88598 0.81401 0.59476 0.0
C269 C 0.86429 0.87836 0.37117 0.0
C270 C 0.89029 0.90505 0.89621 0.0
O271 O 0.87648 0.93604 0.63421 0.0
O272 O 0.86364 0.9802 0.70955 0.0
O273 O 0.87944 0.18879 0.31026 0.0
Mn274 Mn 0.8882 0.14344 0.36997 0.0
O275 O 0.92338 0.21061 0.31494 0.0
Mn276 Mn 0.9408 0.1753 0.26926 0.0
O277 O 0.89516 0.09554 0.40608 0.0
O278 O 0.84165 0.13922 0.37412 0.0
Mn279 Mn 0.84274 0.11063 0.48351 0.0
O280 O 0.8893 0.15523 0.54459 0.0
O281 O 0.84918 0.07649 0.40467 0.0
O282 O 0.88837 0.13367 0.19349 0.0
O283 O 0.9281 0.16034 0.12929 0.0
O284 O 0.80899 0.13013 0.51476 0.0
O285 O 0.86777 0.11415 0.60989 0.0
C286 C 0.96453 0.1487 0.38249 0.0
C287 C 0.89589 0.21202 0.28935 0.0
C288 C 0.87719 0.07252 0.3958 0.0
C289 C 0.81792 0.14793 0.43335 0.0
C290 C 0.88321 0.13729 0.62704 0.0
C291 C 0.90541 0.14364 0.11219 0.0
O292 O 0.93498 0.14734 0.37494 0.0
O293 O 0.97831 0.16739 0.31527 0.0
O294 O 0.14775 0.11993 0.44255 0.0
Mn295 Mn 0.14313 0.12499 0.62493 0.0
O296 O 0.14923 0.16523 0.37592 0.0
Mn297 Mn 0.12219 0.1707 0.48909 0.0
O298 O 0.13834 0.12451 0.80676 0.0
O299 O 0.14619 0.07917 0.62817 0.0
Mn300 Mn 0.17178 0.07237 0.74403 0.0
O301 O 0.18987 0.1336 0.65006 0.0
O302 O 0.14384 0.07608 0.85757 0.0
O303 O 0.096 0.1187 0.61029 0.0
O304 O 0.08483 0.1529 0.47857 0.0
O305 O 0.18178 0.04642 0.62969 0.0
O306 O 0.20235 0.09839 0.77661 0.0
C307 C 0.13383 0.20099 0.59983 0.0
C308 C 0.15169 0.13799 0.35813 0.0
C309 C 0.13705 0.10304 0.88231 0.0
C310 C 0.15902 0.05708 0.57452 0.0
C311 C 0.20736 0.12314 0.729 0.0
C312 C 0.07694 0.13165 0.54381 0.0
O313 O 0.13985 0.17262 0.62714 0.0
O314 O 0.11867 0.20849 0.50857 0.0
O315 O 0.1399 0.82996 0.31492 0.0
Mn316 Mn 0.13359 0.87577 0.35947 0.0
O317 O 0.10108 0.82312 0.19384 0.0
Mn318 Mn 0.08199 0.85895 0.22307 0.0
O319 O 0.12527 0.92185 0.39599 0.0
O320 O 0.17986 0.87823 0.36323 0.0
Mn321 Mn 0.18492 0.91205 0.43907 0.0
O322 O 0.13485 0.86944 0.53826 0.0
O323 O 0.16825 0.94394 0.36243 0.0
O324 O 0.13666 0.88459 0.18032 0.0
O325 O 0.09051 0.88752 0.11521 0.0
O326 O 0.22262 0.90168 0.40234 0.0
O327 O 0.17076 0.90325 0.587 0.0
C328 C 0.05699 0.86777 0.3671 0.0
C329 C 0.12595 0.81464 0.23657 0.0
C330 C 0.14036 0.94587 0.37748 0.0
C331 C 0.2093 0.87783 0.36414 0.0
C332 C 0.15048 0.88409 0.61378 0.0
C333 C 0.11827 0.89044 0.09833 0.0
O334 O 0.08657 0.87119 0.3684 0.0
O335 O 0.04443 0.8581 0.27314 0.0
C336 C 0.40426 0.98159 0.22421 0.0
C337 C 0.38852 0.97703 0.32804 0.0
C338 C 0.40249 0.00915 0.1647 0.0
C339 C 0.38513 0.03329 0.20659 0.0
H340 H 0.41489 0.96283 0.18152 0.0
H341 H 0.41174 0.01028 0.07835 0.0
S342 S 0.34526 0.03499 0.48618 0.0
N343 N 0.35945 1.00088 0.47955 0.0
N344 N 0.35618 0.05216 0.36716 0.0
C345 C 0.37287 0.0303 0.31724 0.0
C346 C 0.3745 1.00229 0.37782 0.0
C347 C 0.99949 0.63602 0.61821 0.0
C348 C 0.97492 0.63922 0.69426 0.0
C349 C 0.02966 0.63833 0.65829 0.0
C350 C 0.0363 0.64204 0.77654 0.0
H351 H 0.99542 0.63459 0.52632 0.0
H352 H 0.04758 0.63974 0.59573 0.0
S353 S 0.98102 0.65174 0.01155 0.0
N354 N 0.96079 0.64906 0.89314 0.0
N355 N 0.01573 0.64561 0.96948 0.0
C356 C 0.01191 0.64132 0.85391 0.0
C357 C 0.98176 0.64234 0.81264 0.0
C358 C 0.61757 1.00435 0.18077 0.0
C359 C 0.63752 0.98232 0.22342 0.0
C360 C 0.61445 0.03245 0.2351 0.0
C361 C 0.63074 0.03935 0.33565 0.0
H362 H 0.60743 1.00139 0.09654 0.0
H363 H 0.60218 0.04989 0.1904 0.0
S364 S 0.68083 0.98732 0.4951 0.0
N365 N 0.67063 0.96821 0.37965 0.0
N366 N 0.66305 0.01968 0.48677 0.0
C367 C 0.64723 0.01589 0.38755 0.0
C368 C 0.65113 0.98775 0.33023 0.0
C369 C 0.0157 0.39858 0.8652 0.0
C370 C 0.9894 0.38967 0.8066 0.0
C371 C 0.04334 0.40108 0.80787 0.0
C372 C 0.04584 0.39459 0.68962 0.0
H373 H 0.01574 0.39983 0.95859 0.0
H374 H 0.06327 0.40459 0.85952 0.0
S375 S 0.98242 0.38119 0.49054 0.0
N376 N 0.9664 0.38249 0.61909 0.0
N377 N 0.01873 0.38644 0.51147 0.0
C378 C 0.01913 0.39031 0.62742 0.0
C379 C 0.99075 0.38822 0.68582 0.0
C380 C 0.40113 0.51283 0.10577 0.0
C381 C 0.39299 0.48575 0.05109 0.0
C382 C 0.40415 0.53967 0.0438 0.0
C383 C 0.39901 0.54066 0.92424 0.0
H384 H 0.40173 0.51404 0.19914 0.0
H385 H 0.40684 0.56024 0.09213 0.0
S386 S 0.38725 0.47462 0.73568 0.0
N387 N 0.38733 0.46046 0.86747 0.0
N388 N 0.39261 0.51107 0.75036 0.0
C389 C 0.39536 0.5131 0.86664 0.0
C390 C 0.39258 0.48555 0.93014 0.0
C391 C 0.53259 0.61574 0.01034 0.0
C392 C 0.542 0.63804 0.08815 0.0
C393 C 0.50378 0.61677 0.95943 0.0
C394 C 0.4833 0.63997 0.98471 0.0
H395 H 0.54866 0.59964 0.97782 0.0
H396 H 0.49906 0.60162 0.88872 0.0
S397 S 0.49527 0.70073 0.19641 0.0
N398 N 0.52687 0.68142 0.19993 0.0
N399 N 0.47323 0.68324 0.1037 0.0
C400 C 0.49114 0.65998 0.07283 0.0
C401 C 0.52038 0.65909 0.12437 0.0
C402 C 0.6269 0.50219 0.12764 0.0
C403 C 0.6323 0.52897 0.0668 0.0
C404 C 0.62407 0.4747 0.07073 0.0
C405 C 0.62657 0.4726 0.95016 0.0
H406 H 0.62825 0.50193 0.22103 0.0
H407 H 0.62314 0.45476 0.12311 0.0
S408 S 0.63077 0.53687 0.74885 0.0
N409 N 0.63275 0.55246 0.87798 0.0
N410 N 0.6278 0.5004 0.77052 0.0
C411 C 0.62772 0.49955 0.88746 0.0
C412 C 0.63032 0.52785 0.94587 0.0
C413 C 0.48527 0.40509 0.98607 0.0
C414 C 0.48104 0.38817 0.08712 0.0
C415 C 0.51239 0.40342 0.92446 0.0
C416 C 0.53615 0.38499 0.96211 0.0
H417 H 0.46641 0.41633 0.94591 0.0
H418 H 0.51315 0.41325 0.83897 0.0
S419 S 0.5392 0.34343 0.23755 0.0
N420 N 0.50515 0.35809 0.23511 0.0
N421 N 0.55586 0.35475 0.11795 0.0
C422 C 0.53388 0.37209 0.07179 0.0
C423 C 0.50629 0.37371 0.13466 0.0
C424 C 0.9072 0.48782 0.75507 0.0
C425 C 0.88227 0.4689 0.77208 0.0
C426 C 0.90329 0.51789 0.71885 0.0
C427 C 0.87439 0.52992 0.69991 0.0
H428 H 0.92968 0.47864 0.75874 0.0
H429 H 0.92291 0.53058 0.69307 0.0
S430 S 0.80203 0.49048 0.74401 0.0
N431 N 0.8278 0.46537 0.77727 0.0
N432 N 0.82074 0.52128 0.71193 0.0
C433 C 0.84954 0.51207 0.72915 0.0
C434 C 0.8534 0.48166 0.76376 0.0
C435 C 0.50404 0.12831 0.3706 0.0
C436 C 0.53062 0.13231 0.30642 0.0
C437 C 0.47586 0.12678 0.31722 0.0
C438 C 0.47279 0.12818 0.1967 0.0
H439 H 0.50459 0.13012 0.46385 0.0
H440 H 0.45639 0.12759 0.37211 0.0
S441 S 0.53542 0.12714 0.98807 0.0
N442 N 0.55238 0.12949 0.1149 0.0
N443 N 0.49897 0.1267 0.01419 0.0
C444 C 0.49924 0.12777 0.13103 0.0
C445 C 0.52827 0.12944 0.18588 0.0
C446 C 0.1209 0.53137 0.77034 0.0
C447 C 0.14577 0.54195 0.83361 0.0
C448 C 0.12153 0.50301 0.71589 0.0
C449 C 0.14681 0.484 0.72356 0.0
H450 H 0.10231 0.54625 0.75203 0.0
H451 H 0.10352 0.49743 0.65676 0.0
S452 S 0.21634 0.49936 0.8876 0.0
N453 N 0.19526 0.5292 0.90965 0.0
N454 N 0.19596 0.47672 0.80689 0.0
C455 C 0.17029 0.49295 0.796 0.0
C456 C 0.16988 0.52167 0.85098 0.0
C457 C 0.52765 0.90879 0.23306 0.0
C458 C 0.54492 0.88362 0.2028 0.0
C459 C 0.49743 0.90554 0.26926 0.0
C460 C 0.48364 0.87712 0.27581 0.0
H461 H 0.53835 0.93047 0.24066 0.0
H462 H 0.48617 0.92478 0.30603 0.0
S463 S 0.51864 0.80485 0.19565 0.0
N464 N 0.54517 0.82993 0.17189 0.0
N465 N 0.48898 0.82406 0.23792 0.0
C466 C 0.49977 0.85254 0.23243 0.0
C467 C 0.53034 0.8557 0.19743 0.0
C468 C 0.90937 1.00514 0.54868 0.0
C469 C 0.88688 0.9835 0.52699 0.0
C470 C 0.90938 0.03324 0.49248 0.0
C471 C 0.88687 0.04061 0.41202 0.0
H472 H 0.92471 1.00188 0.6202 0.0
H473 H 0.92475 0.05034 0.52266 0.0
S474 S 0.82695 0.98937 0.30706 0.0
N475 N 0.84436 0.96994 0.4081 0.0
N476 N 0.84526 0.02144 0.29735 0.0
C477 C 0.86718 0.01736 0.37758 0.0
C478 C 0.86684 0.98918 0.43654 0.0
C479 C 0.03321 0.107 0.44994 0.0
C480 C 0.04444 0.12397 0.54254 0.0
C481 C 1.0034 0.11046 0.4111 0.0
C482 C 0.98379 0.13135 0.46221 0.0
H483 H 0.04848 0.09363 0.39868 0.0
H484 H 0.99711 0.09989 0.3305 0.0
S485 S 1.00083 0.17797 0.71782 0.0
N486 N 0.03239 0.15959 0.69333 0.0
N487 N 0.97661 0.16606 0.62003 0.0
C488 C 0.99364 0.14557 0.56345 0.0
C489 C 0.02398 0.1421 0.6031 0.0
C490 C 0.13177 1.00092 0.35673 0.0
C491 C 0.13036 0.97492 0.42563 0.0
C492 C 0.13672 0.0294 0.40603 0.0
C493 C 0.14039 0.0326 0.52565 0.0
H494 H 0.13222 0.99884 0.26371 0.0
H495 H 0.14075 0.04828 0.34971 0.0
S496 S 0.13636 0.97208 0.74454 0.0
N497 N 0.13093 0.95493 0.62025 0.0
N498 N 0.13898 1.00796 0.71257 0.0
C499 C 0.13532 1.00728 0.59595 0.0
C500 C 0.13075 0.97849 0.54601 0.0
C501 C 0.01759 0.84671 0.48885 0.0
C502 C 0.03649 0.87131 0.46737 0.0
C503 C 0.98786 0.8506 0.52487 0.0
C504 C 0.97559 0.87927 0.54313 0.0
H505 H 0.02449 0.82447 0.46261 0.0
H506 H 0.97349 0.831 0.52776 0.0
S507 S 0.01901 0.95007 0.54147 0.0
N508 N 0.04332 0.9247 0.49606 0.0
N509 N 0.98717 0.93207 0.5669 0.0
C510 C 0.99556 0.9037 0.54085 0.0
C511 C 0.02614 0.89967 0.50259 0.0
C512 C 0.37494 0.25174 0.24802 0.0
C513 C 0.36153 0.22937 0.17782 0.0
C514 C 0.37395 0.28188 0.22046 0.0
C515 C 0.36012 0.2916 0.11951 0.0
H516 H 0.38878 0.24623 0.32183 0.0
H517 H 0.38786 0.29701 0.27056 0.0
S518 S 0.31272 0.24533 0.92558 0.0
N519 N 0.3271 0.2208 0.01745 0.0
N520 N 0.32642 0.2784 0.96248 0.0
C521 C 0.34322 0.27061 0.0555 0.0
C522 C 0.34381 0.2393 0.08471 0.0
C523 C 0.28536 0.65602 0.75792 0.0
C524 C 0.29402 0.65785 0.87346 0.0
C525 C 0.25521 0.6596 0.72645 0.0
C526 C 0.23225 0.66373 0.81005 0.0
H527 H 0.30103 0.64793 0.69363 0.0
H528 H 0.24964 0.6552 0.6371 0.0
S529 S 0.24597 0.68352 0.11557 0.0
N530 N 0.2795 0.67447 0.06519 0.0
N531 N 0.22226 0.67958 0.00674 0.0
C532 C 0.24151 0.6711 0.92213 0.0
C533 C 0.27258 0.66841 0.95354 0.0
C534 C 0.629 0.77406 0.01913 0.0
C535 C 0.64727 0.7897 0.09549 0.0
C536 C 0.63104 0.74315 0.01103 0.0
C537 C 0.65248 0.72645 0.07478 0.0
H538 H 0.61098 0.78538 0.9737 0.0
H539 H 0.61517 0.73209 0.95427 0.0
S540 S 0.70484 0.75749 0.29152 0.0
N541 N 0.68641 0.78691 0.24172 0.0
N542 N 0.69195 0.72828 0.21916 0.0
C543 C 0.67151 0.74193 0.14994 0.0
C544 C 0.66877 0.7737 0.16068 0.0
C545 C 0.7683 0.4017 0.89815 0.0
C546 C 0.78817 0.37753 0.89114 0.0
C547 C 0.73767 0.39753 0.88462 0.0
C548 C 0.72512 0.36861 0.87887 0.0
H549 H 0.77676 0.42444 0.90299 0.0
H550 H 0.72334 0.41706 0.89096 0.0
S551 S 0.76741 0.29795 0.84739 0.0
N552 N 0.79366 0.32397 0.86016 0.0
N553 N 0.73481 0.31543 0.85952 0.0
C554 C 0.74453 0.34401 0.87357 0.0
C555 C 0.77629 0.34857 0.87651 0.0
C556 C 0.85174 0.73825 0.57351 0.0
C557 C 0.86186 0.72482 0.67537 0.0
C558 C 0.85604 0.769 0.55516 0.0
C559 C 0.87085 0.78722 0.63729 0.0
H560 H 0.84151 0.72482 0.5063 0.0
H561 H 0.84987 0.77823 0.47193 0.0
S562 S 0.90116 0.76397 0.91877 0.0
N563 N 0.88692 0.73324 0.86224 0.0
N564 N 0.89448 0.79054 0.82357 0.0
C565 C 0.8796 0.77472 0.7412 0.0
C566 C 0.87543 0.74359 0.7609 0.0
C567 C 0.78551 0.15798 0.26636 0.0
C568 C 0.79305 0.16495 0.38037 0.0
C569 C 0.75533 0.15509 0.2343 0.0
C570 C 0.73186 0.15833 0.31608 0.0
H571 H 0.80258 0.15018 0.20694 0.0
H572 H 0.7507 0.14625 0.1491 0.0
S573 S 0.74038 0.19133 0.60641 0.0
N574 N 0.77519 0.18649 0.56035 0.0
N575 N 0.71823 0.17968 0.50112 0.0
C576 C 0.73907 0.17181 0.42132 0.0
C577 C 0.76991 0.17561 0.4529 0.0
C578 C 0.17209 0.27293 0.64011 0.0
C579 C 0.14658 0.29043 0.66336 0.0
C580 C 0.16991 0.24137 0.63834 0.0
C581 C 0.14288 0.22668 0.66845 0.0
H582 H 0.19345 0.28356 0.62186 0.0
H583 H 0.18875 0.2285 0.60626 0.0
S584 S 0.0712 0.26231 0.74996 0.0
N585 N 0.09362 0.29035 0.71628 0.0
N586 N 0.09183 0.23192 0.73579 0.0
C587 C 0.1186 0.24408 0.70373 0.0
C588 C 0.11959 0.27556 0.6921 0.0
C589 C 0.27615 0.84348 0.26972 0.0
C590 C 0.29126 0.85006 0.3741 0.0
C591 C 0.24456 0.84497 0.26414 0.0
C592 C 0.22782 0.85045 0.36441 0.0
H593 H 0.28841 0.84466 0.18908 0.0
H594 H 0.23406 0.8475 0.1804 0.0
S595 S 0.25665 0.84884 0.66284 0.0
N596 N 0.28714 0.84912 0.58173 0.0
N597 N 0.22793 0.84692 0.57289 0.0
C598 C 0.24257 0.84548 0.47029 0.0
C599 C 0.27464 0.84664 0.47544 0.0
C600 C 0.26225 0.12835 0.74283 0.0
C601 C 0.23398 0.13892 0.77746 0.0
C602 C 0.28592 0.12506 0.82243 0.0
C603 C 0.28285 0.13291 0.93983 0.0
H604 H 0.26487 0.11856 0.65796 0.0
H605 H 0.30586 0.11338 0.79409 0.0
S606 S 0.2153 0.16716 0.07024 0.0
N607 N 0.20565 0.16131 0.93437 0.0
N608 N 0.25053 0.15588 0.08249 0.0
C609 C 0.25606 0.14702 0.9726 0.0
C610 C 0.23171 0.15013 0.89142 0.0
C611 C 0.14073 0.73343 0.17219 0.0
C612 C 0.13971 0.73277 0.0498 0.0
C613 C 0.1407 0.76036 0.23538 0.0
C614 C 0.13923 0.78795 0.17857 0.0
H615 H 0.13775 0.71294 0.22019 0.0
H616 H 0.13831 0.75937 0.32828 0.0
S617 S 0.139 0.79939 0.86097 0.0
N618 N 0.14 0.76264 0.87586 0.0
N619 N 0.13956 0.81321 0.993 0.0
C620 C 0.14106 0.78774 0.05662 0.0
C621 C 0.14138 0.76026 0.99249 0.0
C622 C 0.73203 0.88383 0.80973 0.0
C623 C 0.73127 0.88543 0.93215 0.0
C624 C 0.75928 0.88466 0.74654 0.0
C625 C 0.78711 0.88678 0.80323 0.0
H626 H 0.71117 0.88511 0.76176 0.0
H627 H 0.75829 0.8866 0.65351 0.0
S628 S 0.79797 0.88563 0.12129 0.0
N629 N 0.76114 0.88464 0.10592 0.0
N630 N 0.81209 0.88578 0.98954 0.0
C631 C 0.78663 0.88464 0.9253 0.0
C632 C 0.7589 0.88395 0.98922 0.0
C633 C 0.91095 0.25205 0.00476 0.0
C634 C 0.89052 0.27607 -2e-05 0.0
C635 C 0.91083 0.23114 0.09492 0.0
C636 C 0.88955 0.23173 0.18512 0.0
H637 H 0.92918 0.25072 0.94311 0.0
H638 H 0.92908 0.21524 0.0968 0.0
S639 S 0.82514 0.28439 0.1977 0.0
N640 N 0.84444 0.29589 0.08401 0.0
N641 N 0.8433 0.25511 0.25041 0.0
C642 C 0.86638 0.25317 0.17443 0.0
C643 C 0.86699 0.27547 0.08275 0.0
C644 C 0.26336 0.36739 0.26654 0.0
C645 C 0.28739 0.38738 0.28633 0.0
C646 C 0.23837 0.3661 0.34327 0.0
C647 C 0.23702 0.38382 0.44458 0.0
H648 H 0.26253 0.35474 0.18697 0.0
H649 H 0.21887 0.35322 0.3179 0.0
S650 S 0.2944 0.4378 0.54166 0.0
N651 N 0.30718 0.42503 0.41778 0.0
N652 N 0.26314 0.41907 0.56538 0.0
C653 C 0.26225 0.40105 0.47088 0.0
C654 C 0.28647 0.4039 0.39072 0.0
C655 C 0.37146 0.73337 0.59467 0.0
C656 C 0.38095 0.7341 0.71155 0.0
C657 C 0.37314 0.75901 0.5221 0.0
C658 C 0.38423 0.78642 0.56432 0.0
H659 H 0.36587 0.71207 0.55558 0.0
H660 H 0.36846 0.75656 0.43094 0.0
S661 S 0.40917 0.80088 0.86553 0.0
N662 N 0.39934 0.76527 0.8662 0.0
N663 N 0.4022 0.81296 0.73375 0.0
C664 C 0.39089 0.78788 0.68362 0.0
C665 C 0.3893 0.76197 0.7562 0.0
C666 C 0.737 0.60761 0.37131 0.0
C667 C 0.73482 0.62941 0.28339 0.0
C668 C 0.75989 0.60801 0.45418 0.0
C669 C 0.78265 0.62968 0.45224 0.0
H670 H 0.72214 0.58848 0.37174 0.0
H671 H 0.76174 0.58903 0.51204 0.0
S672 S 0.78414 0.69612 0.25882 0.0
N673 N 0.75436 0.67705 0.2148 0.0
N674 N 0.7987 0.67696 0.36754 0.0
C675 C 0.77896 0.65383 0.37427 0.0
C676 C 0.75485 0.65382 0.29033 0.0
C677 C 0.64711 0.233 0.62272 0.0
C678 C 0.63806 0.23714 0.50625 0.0
C679 C 0.64464 0.25641 0.70602 0.0
C680 C 0.63303 0.2848 0.67577 0.0
H681 H 0.65329 0.21083 0.65225 0.0
H682 H 0.64942 0.25145 0.79561 0.0
S683 S 0.6053 0.30588 0.38428 0.0
N684 N 0.61824 0.27174 0.36684 0.0
N685 N 0.61204 0.3144 0.5202 0.0
C686 C 0.62564 0.28913 0.55835 0.0
C687 C 0.62869 0.2658 0.47465 0.0
C688 C 0.3553 0.13478 0.55586 0.0
C689 C 0.37612 0.11847 0.4906 0.0
C690 C 0.35821 0.13671 0.67622 0.0
C691 C 0.38189 0.12231 0.73467 0.0
H692 H 0.3375 0.14712 0.51342 0.0
H693 H 0.34124 0.14869 0.72441 0.0
S694 S 0.44386 0.07953 0.60202 0.0
N695 N 0.42237 0.0895 0.49237 0.0
N696 N 0.42735 0.09299 0.71842 0.0
C697 C 0.40323 0.10678 0.67006 0.0
C698 C 0.40032 0.10469 0.5483 0.0
C699 C 0.09901 0.6216 0.44434 0.0
C700 C 0.12156 0.63936 0.49419 0.0
C701 C 0.09689 0.61831 0.32441 0.0
C702 C 0.11816 0.63139 0.24975 0.0
H703 H 0.08346 0.60938 0.49862 0.0
H704 H 0.07845 0.60526 0.28969 0.0
S705 S 0.18392 0.67693 0.34044 0.0
N706 N 0.16646 0.66886 0.46214 0.0
N707 N 0.16394 0.66112 0.23679 0.0
C708 C 0.14162 0.64822 0.29938 0.0
C709 C 0.14293 0.6526 0.42143 0.0
C710 C 0.63675 0.91372 0.52565 0.0
C711 C 0.652 0.88734 0.49662 0.0
C712 C 0.62731 0.91909 0.63874 0.0
C713 C 0.63205 0.89798 0.72737 0.0
H714 H 0.63123 0.93006 0.4602 0.0
H715 H 0.61673 0.94037 0.65727 0.0
S716 S 0.66672 0.82293 0.6939 0.0
N717 N 0.66933 0.83848 0.56523 0.0
N718 N 0.64994 0.84804 0.77548 0.0
C719 C 0.64553 0.87059 0.69836 0.0
C720 C 0.65608 0.86549 0.58409 0.0
C721 C 0.92106 0.35511 0.33792 0.0
C722 C 0.9013 0.36996 0.26087 0.0
C723 C 0.91383 0.35063 0.45345 0.0
C724 C 0.88691 0.3613 0.49755 0.0
H725 H 0.94208 0.34567 0.30847 0.0
H726 H 0.9291 0.33811 0.50795 0.0
S727 S 0.82947 0.40623 0.34039 0.0
N728 N 0.85487 0.39811 0.24155 0.0
N729 N 0.84165 0.39082 0.46115 0.0
C730 C 0.86766 0.37802 0.4245 0.0
C731 C 0.87485 0.38223 0.30574 0.0
C732 C 0.35808 0.38695 0.57125 0.0
C733 C 0.38365 0.39214 0.50267 0.0
C734 C 0.36013 0.3848 0.69141 0.0
C735 C 0.38805 0.38707 0.74631 0.0
H736 H 0.33626 0.38456 0.53161 0.0
H737 H 0.33996 0.38046 0.74095 0.0
S738 S 0.46219 0.39735 0.60322 0.0
N739 N 0.4377 0.39755 0.49612 0.0
N740 N 0.44226 0.39266 0.72198 0.0
C741 C 0.41403 0.3909 0.67758 0.0
C742 C 0.41173 0.39342 0.55553 0.0
C743 C 0.3792 0.60837 0.31589 0.0
C744 C 0.38635 0.63238 0.24056 0.0
C745 C 0.38579 0.60946 0.43388 0.0
C746 C 0.40015 0.63443 0.48058 0.0
H747 H 0.36878 0.58813 0.28358 0.0
H748 H 0.38053 0.59035 0.48782 0.0
S749 S 0.41914 0.70515 0.32853 0.0
N750 N 0.40529 0.68331 0.22662 0.0
N751 N 0.41822 0.68516 0.44825 0.0
C752 C 0.40611 0.65919 0.40855 0.0
C753 C 0.39914 0.65822 0.28855 0.0
C754 C 0.66609 0.62719 0.69455 0.0
C755 C 0.63879 0.62037 0.74863 0.0
C756 C 0.6682 0.62725 0.57395 0.0
C757 C 0.64304 0.62097 0.50406 0.0
H758 H 0.68556 0.63346 0.7452 0.0
H759 H 0.68977 0.63204 0.53472 0.0
S760 S 0.56704 0.60006 0.60431 0.0
N761 N 0.58638 0.60595 0.72372 0.0
N762 N 0.59064 0.60631 0.49703 0.0
C763 C 0.61579 0.61383 0.55691 0.0
C764 C 0.61365 0.61341 0.67928 0.0
C765 C 0.64335 0.36932 0.43394 0.0
C766 C 0.621 0.38738 0.48367 0.0
C767 C 0.64411 0.36457 0.31419 0.0
C768 C 0.62255 0.37767 0.24111 0.0
H769 H 0.65889 0.35707 0.48831 0.0
H770 H 0.6619 0.3509 0.27831 0.0
S771 S 0.56613 0.43431 0.32709 0.0
N772 N 0.58106 0.42304 0.45009 0.0
N773 N 0.58317 0.41499 0.22502 0.0
C774 C 0.60218 0.39806 0.28956 0.0
C775 C 0.60134 0.40278 0.4107 0.0
C776 C 0.91123 0.61067 0.04157 0.0
C777 C 0.88369 0.61566 0.98447 0.0
C778 C 0.91409 0.61424 0.16069 0.0
C779 C 0.88928 0.62197 0.22842 0.0
H780 H 0.93112 0.60518 0.99242 0.0
H781 H 0.93565 0.60981 0.2007 0.0
S782 S 0.81076 0.62924 0.12322 0.0
N783 N 0.83056 0.6245 0.00471 0.0
N784 N 0.83502 0.62884 0.23125 0.0
C785 C 0.86108 0.62463 0.17323 0.0
C786 C 0.85842 0.62169 0.05093 0.0
C787 C 0.60104 0.1526 0.83318 0.0
C788 C 0.62252 0.14249 0.75202 0.0
C789 C 0.60723 0.1532 0.95143 0.0
C790 C 0.6343 0.14199 0.99362 0.0
H791 H 0.5792 0.16051 0.80535 0.0
H792 H 0.59053 0.16178 0.01017 0.0
S793 S 0.7008 0.12061 0.82008 0.0
N794 N 0.6743 0.12702 0.72336 0.0
N795 N 0.68499 0.12611 0.94707 0.0
C796 C 0.65671 0.13375 0.91429 0.0
C797 C 0.6509 0.13412 0.79328 0.0
C798 C 0.1214 0.42215 0.15415 0.0
C799 C 0.13077 0.39946 0.23083 0.0
C800 C 0.12848 0.42132 0.03712 0.0
C801 C 0.14471 0.39748 0.99029 0.0
H802 H 0.10902 0.44135 0.18561 0.0
H803 H 0.11962 0.4387 0.98132 0.0
S804 S 0.17133 0.33022 0.1479 0.0
N805 N 0.1559 0.35129 0.2489 0.0
N806 N 0.16758 0.34896 0.02578 0.0
C807 C 0.15339 0.37396 0.06409 0.0
C808 C 0.14659 0.37499 0.1847 0.0
C809 C 0.40506 0.8971 0.9653 0.0
C810 C 0.38054 0.8803 0.0048 0.0
C811 C 0.41051 0.90045 0.84719 0.0
C812 C 0.39136 0.88749 0.7645 0.0
H813 H 0.41983 0.90816 0.02621 0.0
H814 H 0.43028 0.91275 0.82018 0.0
S815 S 0.32537 0.8393 0.82598 0.0
N816 N 0.33758 0.84958 0.95451 0.0
N817 N 0.34774 0.85572 0.73136 0.0
C818 C 0.36657 0.87071 0.80334 0.0
C819 C 0.36123 0.86709 0.92394 0.0
C820 C 0.86791 0.86404 0.16396 0.0
C821 C 0.87152 0.88616 0.25021 0.0
C822 C 0.87746 0.86873 0.05068 0.0
C823 C 0.89072 0.89592 0.01847 0.0
H824 H 0.85705 0.84291 0.18336 0.0
H825 H 0.87237 0.8518 0.98672 0.0
S826 S 0.91201 0.95815 0.21473 0.0
N827 N 0.8943 0.93401 0.29826 0.0
N828 N 0.91178 0.9432 0.08471 0.0
C829 C 0.89693 0.91714 0.10536 0.0
C830 C 0.88721 0.91232 0.2209 0.0
C831 C 0.9151 0.1219 0.91997 0.0
C832 C 0.89717 0.1399 0.99104 0.0
C833 C 0.91212 0.123 0.79975 0.0
C834 C 0.89194 0.14294 0.74686 0.0
H835 H 0.93168 0.10708 0.95764 0.0
H836 H 0.92521 0.10768 0.74767 0.0
S837 S 0.84173 0.19656 0.89533 0.0
N838 N 0.85968 0.17928 0.00093 0.0
N839 N 0.85441 0.1817 0.77425 0.0
C840 C 0.87455 0.16171 0.81696 0.0
C841 C 0.87713 0.16014 0.9394 0.0
C842 C 0.15322 0.0924 0.084 0.0
C843 C 0.13697 0.11057 0.00584 0.0
C844 C 0.15791 0.10117 0.19836 0.0
C845 C 0.14651 0.12834 0.23835 0.0
H846 H 0.16358 0.07176 0.05572 0.0
H847 H 0.17123 0.08707 0.25462 0.0
S848 S 0.09887 0.18197 0.07265 0.0
N849 N 0.10741 0.15555 0.97903 0.0
N850 N 0.11531 0.17202 0.19437 0.0
C851 C 0.12892 0.14606 0.16247 0.0
C852 C 0.12439 0.13717 0.04612 0.0
C853 C 0.11441 0.89415 0.77169 0.0
C854 C 0.14231 0.8828 0.73694 0.0
C855 C 0.10777 0.89847 0.88865 0.0
C856 C 0.12861 0.89124 0.97613 0.0
H857 H 0.09789 0.90065 0.70769 0.0
H858 H 0.08579 0.90713 0.91068 0.0
S859 S 0.20461 0.85912 0.92857 0.0
N860 N 0.19089 0.86393 0.79742 0.0
N861 N 0.17837 0.87116 0.01783 0.0
C862 C 0.15679 0.87988 0.94191 0.0
C863 C 0.16358 0.87577 0.82232 0.0
loop_
_geom_bond_atom_site_label_1
_geom_bond_atom_site_label_2
_geom_bond_distance
_geom_bond_site_symmetry_2
_ccdc_geom_bond_type
O0 Mn1 2.163 . S
O0 C14 1.244 . S
Mn1 O0 2.163 . S
Mn1 O4 2.160 . S
Mn1 O5 2.221 . S
Mn1 O7 2.163 . S
Mn1 O9 2.160 1_554 S
Mn1 O19 2.221 . S
O2 Mn3 2.087 1_554 S
O2 C14 1.256 . S
Mn3 O2 2.087 1_556 S
Mn3 O10 2.089 . S
Mn3 O19 2.290 1_556 S
Mn3 O20 2.251 1_556 S
O4 Mn1 2.160 . S
O4 C15 1.239 . S
O5 Mn1 2.221 . S
O5 Mn6 2.290 . S
O5 C16 1.278 . S
Mn6 O5 2.290 . S
Mn6 O8 2.089 . S
Mn6 O11 2.251 . S
Mn6 O12 2.087 . S
O7 Mn1 2.163 . S
O7 C17 1.244 . S
O8 Mn6 2.089 . S
O8 C15 1.256 . S
O9 Mn1 2.160 1_556 S
O9 C18 1.239 . S
O10 Mn3 2.089 . S
O10 C18 1.256 . S
O11 Mn6 2.251 . S
O11 C16 1.241 . S
O12 Mn6 2.087 . S
O12 C17 1.256 . S
C13 O19 1.278 . S
C13 O20 1.241 . S
C14 O0 1.244 . S
C14 O2 1.256 . S
C15 O4 1.239 . S
C15 O8 1.256 . S
C16 O5 1.278 . S
C16 O11 1.241 . S
C17 O7 1.244 . S
C17 O12 1.256 . S
C18 O9 1.239 . S
C18 O10 1.256 . S
O19 Mn1 2.221 . S
O19 Mn3 2.290 1_554 S
O19 C13 1.278 . S
O20 Mn3 2.251 1_554 S
O20 C13 1.241 . S
O21 Mn22 2.163 . S
O21 C35 1.244 . S
Mn22 O21 2.163 . S
Mn22 O25 2.160 . S
Mn22 O26 2.221 . S
Mn22 O28 2.163 . S
Mn22 O30 2.160 1_556 S
Mn22 O40 2.221 . S
O23 Mn24 2.087 1_556 S
O23 C35 1.256 . S
Mn24 O23 2.087 1_554 S
Mn24 O31 2.089 . S
Mn24 O40 2.290 1_554 S
Mn24 O41 2.251 1_554 S
O25 Mn22 2.160 . S
O25 C36 1.239 . S
O26 Mn22 2.221 . S
O26 Mn27 2.290 . S
O26 C37 1.278 . S
Mn27 O26 2.290 . S
Mn27 O29 2.089 . S
Mn27 O32 2.251 . S
Mn27 O33 2.087 . S
O28 Mn22 2.163 . S
O28 C38 1.244 . S
O29 Mn27 2.089 . S
O29 C36 1.256 . S
O30 Mn22 2.160 1_554 S
O30 C39 1.239 . S
O31 Mn24 2.089 . S
O31 C39 1.256 . S
O32 Mn27 2.251 . S
O32 C37 1.241 . S
O33 Mn27 2.087 . S
O33 C38 1.256 . S
C34 O40 1.278 . S
C34 O41 1.241 . S
C35 O21 1.244 . S
C35 O23 1.256 . S
C36 O25 1.239 . S
C36 O29 1.256 . S
C37 O26 1.278 . S
C37 O32 1.241 . S
C38 O28 1.244 . S
C38 O33 1.256 . S
C39 O30 1.239 . S
C39 O31 1.256 . S
O40 Mn22 2.221 . S
O40 Mn24 2.290 1_556 S
O40 C34 1.278 . S
O41 Mn24 2.251 1_556 S
O41 C34 1.241 . S
O42 Mn43 2.163 . S
O42 C56 1.244 . S
Mn43 O42 2.163 . S
Mn43 O46 2.160 . S
Mn43 O47 2.221 . S
Mn43 O49 2.163 . S
Mn43 O51 2.160 1_554 S
Mn43 O61 2.221 . S
O44 Mn45 2.087 1_554 S
O44 C56 1.256 . S
Mn45 O44 2.087 1_556 S
Mn45 O52 2.089 . S
Mn45 O61 2.290 1_556 S
Mn45 O62 2.251 1_556 S
O46 Mn43 2.160 . S
O46 C57 1.239 . S
O47 Mn43 2.221 . S
O47 Mn48 2.290 . S
O47 C58 1.278 . S
Mn48 O47 2.290 . S
Mn48 O50 2.089 . S
Mn48 O53 2.251 . S
Mn48 O54 2.087 . S
O49 Mn43 2.163 . S
O49 C59 1.244 . S
O50 Mn48 2.089 . S
O50 C57 1.256 . S
O51 Mn43 2.160 1_556 S
O51 C60 1.239 . S
O52 Mn45 2.089 . S
O52 C60 1.256 . S
O53 Mn48 2.251 . S
O53 C58 1.241 . S
O54 Mn48 2.087 . S
O54 C59 1.256 . S
C55 O61 1.278 . S
C55 O62 1.241 . S
C56 O42 1.244 . S
C56 O44 1.256 . S
C57 O46 1.239 . S
C57 O50 1.256 . S
C58 O47 1.278 . S
C58 O53 1.241 . S
C59 O49 1.244 . S
C59 O54 1.256 . S
C60 O51 1.239 . S
C60 O52 1.256 . S
O61 Mn43 2.221 . S
O61 Mn45 2.290 1_554 S
O61 C55 1.278 . S
O62 Mn45 2.251 1_554 S
O62 C55 1.241 . S
O63 Mn64 2.163 . S
O63 C77 1.244 . S
Mn64 O63 2.163 . S
Mn64 O67 2.160 . S
Mn64 O68 2.221 . S
Mn64 O70 2.163 . S
Mn64 O72 2.160 1_556 S
Mn64 O82 2.221 . S
O65 Mn66 2.087 1_556 S
O65 C77 1.256 . S
Mn66 O65 2.087 1_554 S
Mn66 O73 2.089 . S
Mn66 O82 2.290 1_554 S
Mn66 O83 2.251 1_554 S
O67 Mn64 2.160 . S
O67 C78 1.239 . S
O68 Mn64 2.221 . S
O68 Mn69 2.290 . S
O68 C79 1.278 . S
Mn69 O68 2.290 . S
Mn69 O71 2.089 . S
Mn69 O74 2.251 . S
Mn69 O75 2.087 . S
O70 Mn64 2.163 . S
O70 C80 1.244 . S
O71 Mn69 2.089 . S
O71 C78 1.256 . S
O72 Mn64 2.160 1_554 S
O72 C81 1.239 . S
O73 Mn66 2.089 . S
O73 C81 1.256 . S
O74 Mn69 2.251 . S
O74 C79 1.241 . S
O75 Mn69 2.087 . S
O75 C80 1.256 . S
C76 O82 1.278 . S
C76 O83 1.241 . S
C77 O63 1.244 . S
C77 O65 1.256 . S
C78 O67 1.239 . S
C78 O71 1.256 . S
C79 O68 1.278 . S
C79 O74 1.241 . S
C80 O70 1.244 . S
C80 O75 1.256 . S
C81 O72 1.239 . S
C81 O73 1.256 . S
O82 Mn64 2.221 . S
O82 Mn66 2.290 1_556 S
O82 C76 1.278 . S
O83 Mn66 2.251 1_556 S
O83 C76 1.241 . S
O84 Mn85 2.163 . S
O84 C98 1.244 . S
Mn85 O84 2.163 . S
Mn85 O88 2.160 . S
Mn85 O89 2.221 . S
Mn85 O91 2.163 1_554 S
Mn85 O93 2.160 . S
Mn85 O103 2.221 . S
O86 Mn87 2.087 . S
O86 C98 1.256 . S
Mn87 O86 2.087 . S
Mn87 O94 2.089 . S
Mn87 O103 2.290 . S
Mn87 O104 2.251 . S
O88 Mn85 2.160 . S
O88 C99 1.239 . S
O89 Mn85 2.221 . S
O89 Mn90 2.290 1_554 S
O89 C100 1.278 . S
Mn90 O89 2.290 1_556 S
Mn90 O92 2.089 . S
Mn90 O95 2.251 1_556 S
Mn90 O96 2.087 . S
O91 Mn85 2.163 1_556 S
O91 C101 1.244 . S
O92 Mn90 2.089 . S
O92 C99 1.256 1_556 S
O93 Mn85 2.160 . S
O93 C102 1.239 . S
O94 Mn87 2.089 . S
O94 C102 1.256 . S
O95 Mn90 2.251 1_554 S
O95 C100 1.241 . S
O96 Mn90 2.087 . S
O96 C101 1.256 . S
C97 O103 1.278 . S
C97 O104 1.241 . S
C98 O84 1.244 . S
C98 O86 1.256 . S
C99 O88 1.239 . S
C99 O92 1.256 1_554 S
C100 O89 1.278 . S
C100 O95 1.241 . S
C101 O91 1.244 . S
C101 O96 1.256 . S
C102 O93 1.239 . S
C102 O94 1.256 . S
O103 Mn85 2.221 . S
O103 Mn87 2.290 . S
O103 C97 1.278 . S
O104 Mn87 2.251 . S
O104 C97 1.241 . S
O105 Mn106 2.163 . S
O105 C119 1.244 . S
Mn106 O105 2.163 . S
Mn106 O109 2.160 . S
Mn106 O110 2.221 . S
Mn106 O112 2.163 1_556 S
Mn106 O114 2.160 . S
Mn106 O124 2.221 . S
O107 Mn108 2.087 . S
O107 C119 1.256 . S
Mn108 O107 2.087 . S
Mn108 O115 2.089 . S
Mn108 O124 2.290 . S
Mn108 O125 2.251 . S
O109 Mn106 2.160 . S
O109 C120 1.239 . S
O110 Mn106 2.221 . S
O110 Mn111 2.290 1_556 S
O110 C121 1.278 . S
Mn111 O110 2.290 1_554 S
Mn111 O113 2.089 . S
Mn111 O116 2.251 1_554 S
Mn111 O117 2.087 . S
O112 Mn106 2.163 1_554 S
O112 C122 1.244 . S
O113 Mn111 2.089 . S
O113 C120 1.256 1_554 S
O114 Mn106 2.160 . S
O114 C123 1.239 . S
O115 Mn108 2.089 . S
O115 C123 1.256 . S
O116 Mn111 2.251 1_556 S
O116 C121 1.241 . S
O117 Mn111 2.087 . S
O117 C122 1.256 . S
C118 O124 1.278 . S
C118 O125 1.241 . S
C119 O105 1.244 . S
C119 O107 1.256 . S
C120 O109 1.239 . S
C120 O113 1.256 1_556 S
C121 O110 1.278 . S
C121 O116 1.241 . S
C122 O112 1.244 . S
C122 O117 1.256 . S
C123 O114 1.239 . S
C123 O115 1.256 . S
O124 Mn106 2.221 . S
O124 Mn108 2.290 . S
O124 C118 1.278 . S
O125 Mn108 2.251 . S
O125 C118 1.241 . S
O126 Mn127 2.163 1_556 S
O126 C140 1.244 . S
Mn127 O126 2.163 1_554 S
Mn127 O130 2.160 . S
Mn127 O131 2.221 . S
Mn127 O133 2.163 . S
Mn127 O135 2.160 . S
Mn127 O145 2.221 . S
O128 Mn129 2.087 . S
O128 C140 1.256 . S
Mn129 O128 2.087 . S
Mn129 O136 2.089 . S
Mn129 O145 2.290 1_556 S
Mn129 O146 2.251 1_556 S
O130 Mn127 2.160 . S
O130 C141 1.239 . S
O131 Mn127 2.221 . S
O131 Mn132 2.290 . S
O131 C142 1.278 . S
Mn132 O131 2.290 . S
Mn132 O134 2.089 . S
Mn132 O137 2.251 . S
Mn132 O138 2.087 . S
O133 Mn127 2.163 . S
O133 C143 1.244 . S
O134 Mn132 2.089 . S
O134 C141 1.256 . S
O135 Mn127 2.160 . S
O135 C144 1.239 . S
O136 Mn129 2.089 . S
O136 C144 1.256 1_556 S
O137 Mn132 2.251 . S
O137 C142 1.241 . S
O138 Mn132 2.087 . S
O138 C143 1.256 . S
C139 O145 1.278 . S
C139 O146 1.241 . S
C140 O126 1.244 . S
C140 O128 1.256 . S
C141 O130 1.239 . S
C141 O134 1.256 . S
C142 O131 1.278 . S
C142 O137 1.241 . S
C143 O133 1.244 . S
C143 O138 1.256 . S
C144 O135 1.239 . S
C144 O136 1.256 1_554 S
O145 Mn127 2.221 . S
O145 Mn129 2.290 1_554 S
O145 C139 1.278 . S
O146 Mn129 2.251 1_554 S
O146 C139 1.241 . S
O147 Mn148 2.163 . S
O147 C161 1.244 . S
Mn148 O147 2.163 . S
Mn148 O151 2.160 . S
Mn148 O152 2.221 . S
Mn148 O154 2.163 1_556 S
Mn148 O156 2.160 . S
Mn148 O166 2.221 . S
O149 Mn150 2.087 . S
O149 C161 1.256 . S
Mn150 O149 2.087 . S
Mn150 O157 2.089 . S
Mn150 O166 2.290 . S
Mn150 O167 2.251 . S
O151 Mn148 2.160 . S
O151 C162 1.239 . S
O152 Mn148 2.221 . S
O152 Mn153 2.290 1_556 S
O152 C163 1.278 . S
Mn153 O152 2.290 1_554 S
Mn153 O155 2.089 . S
Mn153 O158 2.251 1_554 S
Mn153 O159 2.087 . S
O154 Mn148 2.163 1_554 S
O154 C164 1.244 . S
O155 Mn153 2.089 . S
O155 C162 1.256 1_554 S
O156 Mn148 2.160 . S
O156 C165 1.239 . S
O157 Mn150 2.089 . S
O157 C165 1.256 . S
O158 Mn153 2.251 1_556 S
O158 C163 1.241 . S
O159 Mn153 2.087 . S
O159 C164 1.256 . S
C160 O166 1.278 . S
C160 O167 1.241 . S
C161 O147 1.244 . S
C161 O149 1.256 . S
C162 O151 1.239 . S
C162 O155 1.256 1_556 S
C163 O152 1.278 . S
C163 O158 1.241 . S
C164 O154 1.244 . S
C164 O159 1.256 . S
C165 O156 1.239 . S
C165 O157 1.256 . S
O166 Mn148 2.221 . S
O166 Mn150 2.290 . S
O166 C160 1.278 . S
O167 Mn150 2.251 . S
O167 C160 1.241 . S
O168 Mn169 2.163 . S
O168 C182 1.244 . S
Mn169 O168 2.163 . S
Mn169 O172 2.160 . S
Mn169 O173 2.221 . S
Mn169 O175 2.163 . S
Mn169 O177 2.160 . S
Mn169 O187 2.221 . S
O170 Mn171 2.087 . S
O170 C182 1.256 . S
Mn171 O170 2.087 . S
Mn171 O178 2.089 . S
Mn171 O187 2.290 . S
Mn171 O188 2.251 . S
O172 Mn169 2.160 . S
O172 C183 1.239 . S
O173 Mn169 2.221 . S
O173 Mn174 2.290 . S
O173 C184 1.278 . S
Mn174 O173 2.290 . S
Mn174 O176 2.089 . S
Mn174 O179 2.251 . S
Mn174 O180 2.087 . S
O175 Mn169 2.163 . S
O175 C185 1.244 . S
O176 Mn174 2.089 . S
O176 C183 1.256 . S
O177 Mn169 2.160 . S
O177 C186 1.239 . S
O178 Mn171 2.089 . S
O178 C186 1.256 . S
O179 Mn174 2.251 . S
O179 C184 1.241 . S
O180 Mn174 2.087 . S
O180 C185 1.256 . S
C181 O187 1.278 . S
C181 O188 1.241 . S
C182 O168 1.244 . S
C182 O170 1.256 . S
C183 O172 1.239 . S
C183 O176 1.256 . S
C184 O173 1.278 . S
C184 O179 1.241 . S
C185 O175 1.244 . S
C185 O180 1.256 . S
C186 O177 1.239 . S
C186 O178 1.256 . S
O187 Mn169 2.221 . S
O187 Mn171 2.290 . S
O187 C181 1.278 . S
O188 Mn171 2.251 . S
O188 C181 1.241 . S
O189 Mn190 2.163 . S
O189 C203 1.244 . S
Mn190 O189 2.163 . S
Mn190 O193 2.160 . S
Mn190 O194 2.221 . S
Mn190 O196 2.163 . S
Mn190 O198 2.160 . S
Mn190 O208 2.221 . S
O191 Mn192 2.087 . S
O191 C203 1.256 . S
Mn192 O191 2.087 . S
Mn192 O199 2.089 . S
Mn192 O208 2.290 . S
Mn192 O209 2.251 . S
O193 Mn190 2.160 . S
O193 C204 1.239 . S
O194 Mn190 2.221 . S
O194 Mn195 2.290 . S
O194 C205 1.278 . S
Mn195 O194 2.290 . S
Mn195 O197 2.089 . S
Mn195 O200 2.251 . S
Mn195 O201 2.087 . S
O196 Mn190 2.163 . S
O196 C206 1.244 . S
O197 Mn195 2.089 . S
O197 C204 1.256 . S
O198 Mn190 2.160 . S
O198 C207 1.239 . S
O199 Mn192 2.089 . S
O199 C207 1.256 . S
O200 Mn195 2.251 . S
O200 C205 1.241 . S
O201 Mn195 2.087 . S
O201 C206 1.256 . S
C202 O208 1.278 . S
C202 O209 1.241 . S
C203 O189 1.244 . S
C203 O191 1.256 . S
C204 O193 1.239 . S
C204 O197 1.256 . S
C205 O194 1.278 . S
C205 O200 1.241 . S
C206 O196 1.244 . S
C206 O201 1.256 . S
C207 O198 1.239 . S
C207 O199 1.256 . S
O208 Mn190 2.221 . S
O208 Mn192 2.290 . S
O208 C202 1.278 . S
O209 Mn192 2.251 . S
O209 C202 1.241 . S
O210 Mn211 2.163 . S
O210 C224 1.244 . S
Mn211 O210 2.163 . S
Mn211 O214 2.160 . S
Mn211 O215 2.221 . S
Mn211 O217 2.163 . S
Mn211 O219 2.160 . S
Mn211 O229 2.221 . S
O212 Mn213 2.087 . S
O212 C224 1.256 . S
Mn213 O212 2.087 . S
Mn213 O220 2.089 . S
Mn213 O229 2.290 . S
Mn213 O230 2.251 . S
O214 Mn211 2.160 . S
O214 C225 1.239 . S
O215 Mn211 2.221 . S
O215 Mn216 2.290 . S
O215 C226 1.278 . S
Mn216 O215 2.290 . S
Mn216 O218 2.089 . S
Mn216 O221 2.251 . S
Mn216 O222 2.087 . S
O217 Mn211 2.163 . S
O217 C227 1.244 . S
O218 Mn216 2.089 . S
O218 C225 1.256 . S
O219 Mn211 2.160 . S
O219 C228 1.239 . S
O220 Mn213 2.089 . S
O220 C228 1.256 . S
O221 Mn216 2.251 . S
O221 C226 1.241 . S
O222 Mn216 2.087 . S
O222 C227 1.256 . S
C223 O229 1.278 . S
C223 O230 1.241 . S
C224 O210 1.244 . S
C224 O212 1.256 . S
C225 O214 1.239 . S
C225 O218 1.256 . S
C226 O215 1.278 . S
C226 O221 1.241 . S
C227 O217 1.244 . S
C227 O222 1.256 . S
C228 O219 1.239 . S
C228 O220 1.256 . S
O229 Mn211 2.221 . S
O229 Mn213 2.290 . S
O229 C223 1.278 . S
O230 Mn213 2.251 . S
O230 C223 1.241 . S
O231 Mn232 2.163 . S
O231 C245 1.244 . S
Mn232 O231 2.163 . S
Mn232 O235 2.160 . S
Mn232 O236 2.221 . S
Mn232 O238 2.163 . S
Mn232 O240 2.160 . S
Mn232 O250 2.221 . S
O233 Mn234 2.087 . S
O233 C245 1.256 . S
Mn234 O233 2.087 . S
Mn234 O241 2.089 . S
Mn234 O250 2.290 . S
Mn234 O251 2.251 . S
O235 Mn232 2.160 . S
O235 C246 1.239 . S
O236 Mn232 2.221 . S
O236 Mn237 2.290 . S
O236 C247 1.278 . S
Mn237 O236 2.290 . S
Mn237 O239 2.089 . S
Mn237 O242 2.251 . S
Mn237 O243 2.087 . S
O238 Mn232 2.163 . S
O238 C248 1.244 . S
O239 Mn237 2.089 . S
O239 C246 1.256 . S
O240 Mn232 2.160 . S
O240 C249 1.239 . S
O241 Mn234 2.089 . S
O241 C249 1.256 . S
O242 Mn237 2.251 . S
O242 C247 1.241 . S
O243 Mn237 2.087 . S
O243 C248 1.256 . S
C244 O250 1.278 . S
C244 O251 1.241 . S
C245 O231 1.244 . S
C245 O233 1.256 . S
C246 O235 1.239 . S
C246 O239 1.256 . S
C247 O236 1.278 . S
C247 O242 1.241 . S
C248 O238 1.244 . S
C248 O243 1.256 . S
C249 O240 1.239 . S
C249 O241 1.256 . S
O250 Mn232 2.221 . S
O250 Mn234 2.290 . S
O250 C244 1.278 . S
O251 Mn234 2.251 . S
O251 C244 1.241 . S
O252 Mn253 2.163 . S
O252 C266 1.244 . S
Mn253 O252 2.163 . S
Mn253 O256 2.160 . S
Mn253 O257 2.221 . S
Mn253 O259 2.163 . S
Mn253 O261 2.160 . S
Mn253 O271 2.221 . S
O254 Mn255 2.087 . S
O254 C266 1.256 . S
Mn255 O254 2.087 . S
Mn255 O262 2.089 . S
Mn255 O271 2.290 . S
Mn255 O272 2.251 . S
O256 Mn253 2.160 . S
O256 C267 1.239 . S
O257 Mn253 2.221 . S
O257 Mn258 2.290 . S
O257 C268 1.278 . S
Mn258 O257 2.290 . S
Mn258 O260 2.089 . S
Mn258 O263 2.251 . S
Mn258 O264 2.087 . S
O259 Mn253 2.163 . S
O259 C269 1.244 . S
O260 Mn258 2.089 . S
O260 C267 1.256 . S
O261 Mn253 2.160 . S
O261 C270 1.239 . S
O262 Mn255 2.089 . S
O262 C270 1.256 . S
O263 Mn258 2.251 . S
O263 C268 1.241 . S
O264 Mn258 2.087 . S
O264 C269 1.256 . S
C265 O271 1.278 . S
C265 O272 1.241 . S
C266 O252 1.244 . S
C266 O254 1.256 . S
C267 O256 1.239 . S
C267 O260 1.256 . S
C268 O257 1.278 . S
C268 O263 1.241 . S
C269 O259 1.244 . S
C269 O264 1.256 . S
C270 O261 1.239 . S
C270 O262 1.256 . S
O271 Mn253 2.221 . S
O271 Mn255 2.290 . S
O271 C265 1.278 . S
O272 Mn255 2.251 . S
O272 C265 1.241 . S
O273 Mn274 2.163 . S
O273 C287 1.244 . S
Mn274 O273 2.163 . S
Mn274 O277 2.160 . S
Mn274 O278 2.221 . S
Mn274 O280 2.163 . S
Mn274 O282 2.160 . S
Mn274 O292 2.221 . S
O275 Mn276 2.087 . S
O275 C287 1.256 . S
Mn276 O275 2.087 . S
Mn276 O283 2.089 . S
Mn276 O292 2.290 . S
Mn276 O293 2.251 . S
O277 Mn274 2.160 . S
O277 C288 1.239 . S
O278 Mn274 2.221 . S
O278 Mn279 2.290 . S
O278 C289 1.278 . S
Mn279 O278 2.290 . S
Mn279 O281 2.089 . S
Mn279 O284 2.251 . S
Mn279 O285 2.087 . S
O280 Mn274 2.163 . S
O280 C290 1.244 . S
O281 Mn279 2.089 . S
O281 C288 1.256 . S
O282 Mn274 2.160 . S
O282 C291 1.239 . S
O283 Mn276 2.089 . S
O283 C291 1.256 . S
O284 Mn279 2.251 . S
O284 C289 1.241 . S
O285 Mn279 2.087 . S
O285 C290 1.256 . S
C286 O292 1.278 . S
C286 O293 1.241 . S
C287 O273 1.244 . S
C287 O275 1.256 . S
C288 O277 1.239 . S
C288 O281 1.256 . S
C289 O278 1.278 . S
C289 O284 1.241 . S
C290 O280 1.244 . S
C290 O285 1.256 . S
C291 O282 1.239 . S
C291 O283 1.256 . S
O292 Mn274 2.221 . S
O292 Mn276 2.290 . S
O292 C286 1.278 . S
O293 Mn276 2.251 . S
O293 C286 1.241 . S
O294 Mn295 2.163 . S
O294 C308 1.244 . S
Mn295 O294 2.163 . S
Mn295 O298 2.160 . S
Mn295 O299 2.221 . S
Mn295 O301 2.163 . S
Mn295 O303 2.160 . S
Mn295 O313 2.221 . S
O296 Mn297 2.087 . S
O296 C308 1.256 . S
Mn297 O296 2.087 . S
Mn297 O304 2.089 . S
Mn297 O313 2.290 . S
Mn297 O314 2.251 . S
O298 Mn295 2.160 . S
O298 C309 1.239 . S
O299 Mn295 2.221 . S
O299 Mn300 2.290 . S
O299 C310 1.278 . S
Mn300 O299 2.290 . S
Mn300 O302 2.089 . S
Mn300 O305 2.251 . S
Mn300 O306 2.087 . S
O301 Mn295 2.163 . S
O301 C311 1.244 . S
O302 Mn300 2.089 . S
O302 C309 1.256 . S
O303 Mn295 2.160 . S
O303 C312 1.239 . S
O304 Mn297 2.089 . S
O304 C312 1.256 . S
O305 Mn300 2.251 . S
O305 C310 1.241 . S
O306 Mn300 2.087 . S
O306 C311 1.256 . S
C307 O313 1.278 . S
C307 O314 1.241 . S
C308 O294 1.244 . S
C308 O296 1.256 . S
C309 O298 1.239 . S
C309 O302 1.256 . S
C310 O299 1.278 . S
C310 O305 1.241 . S
C311 O301 1.244 . S
C311 O306 1.256 . S
C312 O303 1.239 . S
C312 O304 1.256 . S
O313 Mn295 2.221 . S
O313 Mn297 2.290 . S
O313 C307 1.278 . S
O314 Mn297 2.251 . S
O314 C307 1.241 . S
O315 Mn316 2.163 . S
O315 C329 1.244 . S
Mn316 O315 2.163 . S
Mn316 O319 2.160 . S
Mn316 O320 2.221 . S
Mn316 O322 2.163 . S
Mn316 O324 2.160 . S
Mn316 O334 2.221 . S
O317 Mn318 2.087 . S
O317 C329 1.256 . S
Mn318 O317 2.087 . S
Mn318 O325 2.089 . S
Mn318 O334 2.290 . S
Mn318 O335 2.251 . S
O319 Mn316 2.160 . S
O319 C330 1.239 . S
O320 Mn316 2.221 . S
O320 Mn321 2.290 . S
O320 C331 1.278 . S
Mn321 O320 2.290 . S
Mn321 O323 2.089 . S
Mn321 O326 2.251 . S
Mn321 O327 2.087 . S
O322 Mn316 2.163 . S
O322 C332 1.244 . S
O323 Mn321 2.089 . S
O323 C330 1.256 . S
O324 Mn316 2.160 . S
O324 C333 1.239 . S
O325 Mn318 2.089 . S
O325 C333 1.256 . S
O326 Mn321 2.251 . S
O326 C331 1.241 . S
O327 Mn321 2.087 . S
O327 C332 1.256 . S
C328 O334 1.278 . S
C328 O335 1.241 . S
C329 O315 1.244 . S
C329 O317 1.256 . S
C330 O319 1.239 . S
C330 O323 1.256 . S
C331 O320 1.278 . S
C331 O326 1.241 . S
C332 O322 1.244 . S
C332 O327 1.256 . S
C333 O324 1.239 . S
C333 O325 1.256 . S
O334 Mn316 2.221 . S
O334 Mn318 2.290 . S
O334 C328 1.278 . S
O335 Mn318 2.251 . S
O335 C328 1.241 . S
C336 C337 1.369 . S
C336 C338 1.419 1_565 S
C336 H340 0.930 . S
C337 C336 1.369 . S
C337 C346 1.429 . S
C338 C336 1.419 1_545 S
C338 C339 1.363 . S
C338 H341 0.929 . S
C339 C338 1.363 . S
C339 C345 1.428 . S
H340 C336 0.930 . S
H341 C338 0.929 . S
S342 N343 1.613 1_545 S
S342 N344 1.610 . S
N343 S342 1.613 1_565 S
N343 C346 1.350 . S
N344 S342 1.610 . S
N344 C345 1.351 . S
C345 C339 1.428 . S
C345 N344 1.351 . S
C345 C346 1.434 1_545 S
C346 C337 1.429 . S
C346 N343 1.350 . S
C346 C345 1.434 1_565 S
C347 C348 1.369 . S
C347 C349 1.419 1_655 S
C347 H351 0.930 . S
C348 C347 1.369 . S
C348 C357 1.429 . S
C349 C347 1.419 1_455 S
C349 C350 1.363 . S
C349 H352 0.929 . S
C350 C349 1.363 . S
C350 C356 1.428 . S
H351 C347 0.930 . S
H352 C349 0.929 . S
S353 N354 1.613 . S
S353 N355 1.610 1_655 S
N354 S353 1.613 . S
N354 C357 1.350 . S
N355 S353 1.610 1_455 S
N355 C356 1.351 . S
C356 C350 1.428 . S
C356 N355 1.351 . S
C356 C357 1.434 1_455 S
C357 C348 1.429 . S
C357 N354 1.350 . S
C357 C356 1.434 1_655 S
C358 C359 1.369 . S
C358 C360 1.419 1_565 S
C358 H362 0.930 . S
C359 C358 1.369 . S
C359 C368 1.429 . S
C360 C358 1.419 1_545 S
C360 C361 1.363 . S
C360 H363 0.929 . S
C361 C360 1.363 . S
C361 C367 1.428 . S
H362 C358 0.930 . S
H363 C360 0.929 . S
S364 N365 1.613 . S
S364 N366 1.610 1_565 S
N365 S364 1.613 . S
N365 C368 1.350 . S
N366 S364 1.610 1_545 S
N366 C367 1.351 . S
C367 C361 1.428 . S
C367 N366 1.351 . S
C367 C368 1.434 1_545 S
C368 C359 1.429 . S
C368 N365 1.350 . S
C368 C367 1.434 1_565 S
C369 C370 1.369 . S
C369 C371 1.419 1_655 S
C369 H373 0.930 . S
C370 C369 1.369 . S
C370 C379 1.429 . S
C371 C369 1.419 1_455 S
C371 C372 1.363 . S
C371 H374 0.929 . S
C372 C371 1.363 . S
C372 C378 1.428 . S
H373 C369 0.930 . S
H374 C371 0.929 . S
S375 N376 1.613 . S
S375 N377 1.610 1_655 S
N376 S375 1.613 . S
N376 C379 1.350 . S
N377 S375 1.610 1_455 S
N377 C378 1.351 . S
C378 C372 1.428 . S
C378 N377 1.351 . S
C378 C379 1.434 1_455 S
C379 C370 1.429 . S
C379 N376 1.350 . S
C379 C378 1.434 1_655 S
C380 C381 1.369 . S
C380 C382 1.419 . S
C380 H384 0.930 . S
C381 C380 1.369 . S
C381 C390 1.429 1_554 S
C382 C380 1.419 . S
C382 C383 1.363 1_554 S
C382 H385 0.929 . S
C383 C382 1.363 1_556 S
C383 C389 1.428 . S
H384 C380 0.930 . S
H385 C382 0.929 . S
S386 N387 1.613 . S
S386 N388 1.610 . S
N387 S386 1.613 . S
N387 C390 1.350 . S
N388 S386 1.610 . S
N388 C389 1.351 . S
C389 C383 1.428 . S
C389 N388 1.351 . S
C389 C390 1.434 . S
C390 C381 1.429 1_556 S
C390 N387 1.350 . S
C390 C389 1.434 . S
C391 C392 1.369 1_556 S
C391 C393 1.419 . S
C391 H395 0.930 . S
C392 C391 1.369 1_554 S
C392 C401 1.429 . S
C393 C391 1.419 . S
C393 C394 1.363 . S
C393 H396 0.929 . S
C394 C393 1.363 . S
C394 C400 1.428 1_556 S
H395 C391 0.930 . S
H396 C393 0.929 . S
S397 N398 1.613 . S
S397 N399 1.610 . S
N398 S397 1.613 . S
N398 C401 1.350 . S
N399 S397 1.610 . S
N399 C400 1.351 . S
C400 C394 1.428 1_554 S
C400 N399 1.351 . S
C400 C401 1.434 . S
C401 C392 1.429 . S
C401 N398 1.350 . S
C401 C400 1.434 . S
C402 C403 1.369 . S
C402 C404 1.419 . S
C402 H406 0.930 . S
C403 C402 1.369 . S
C403 C412 1.429 1_554 S
C404 C402 1.419 . S
C404 C405 1.363 1_554 S
C404 H407 0.929 . S
C405 C404 1.363 1_556 S
C405 C411 1.428 . S
H406 C402 0.930 . S
H407 C404 0.929 . S
S408 N409 1.613 . S
S408 N410 1.610 . S
N409 S408 1.613 . S
N409 C412 1.350 . S
N410 S408 1.610 . S
N410 C411 1.351 . S
C411 C405 1.428 . S
C411 N410 1.351 . S
C411 C412 1.434 . S
C412 C403 1.429 1_556 S
C412 N409 1.350 . S
C412 C411 1.434 . S
C413 C414 1.369 1_556 S
C413 C415 1.419 . S
C413 H417 0.930 . S
C414 C413 1.369 1_554 S
C414 C423 1.429 . S
C415 C413 1.419 . S
C415 C416 1.363 . S
C415 H418 0.929 . S
C416 C415 1.363 . S
C416 C422 1.428 1_556 S
H417 C413 0.930 . S
H418 C415 0.929 . S
S419 N420 1.613 . S
S419 N421 1.610 . S
N420 S419 1.613 . S
N420 C423 1.350 . S
N421 S419 1.610 . S
N421 C422 1.351 . S
C422 C416 1.428 1_554 S
C422 N421 1.351 . S
C422 C423 1.434 . S
C423 C414 1.429 . S
C423 N420 1.350 . S
C423 C422 1.434 . S
C424 C425 1.369 . S
C424 C426 1.419 . S
C424 H428 0.930 . S
C425 C424 1.369 . S
C425 C434 1.429 . S
C426 C424 1.419 . S
C426 C427 1.363 . S
C426 H429 0.929 . S
C427 C426 1.363 . S
C427 C433 1.428 . S
H428 C424 0.930 . S
H429 C426 0.929 . S
S430 N431 1.613 . S
S430 N432 1.610 . S
N431 S430 1.613 . S
N431 C434 1.350 . S
N432 S430 1.610 . S
N432 C433 1.351 . S
C433 C427 1.428 . S
C433 N432 1.351 . S
C433 C434 1.434 . S
C434 C425 1.429 . S
C434 N431 1.350 . S
C434 C433 1.434 . S
C435 C436 1.369 . S
C435 C437 1.419 . S
C435 H439 0.930 . S
C436 C435 1.369 . S
C436 C445 1.429 . S
C437 C435 1.419 . S
C437 C438 1.363 . S
C437 H440 0.929 . S
C438 C437 1.363 . S
C438 C444 1.428 . S
H439 C435 0.930 . S
H440 C437 0.929 . S
S441 N442 1.613 1_556 S
S441 N443 1.610 1_556 S
N442 S441 1.613 1_554 S
N442 C445 1.350 . S
N443 S441 1.610 1_554 S
N443 C444 1.351 . S
C444 C438 1.428 . S
C444 N443 1.351 . S
C444 C445 1.434 . S
C445 C436 1.429 . S
C445 N442 1.350 . S
C445 C444 1.434 . S
C446 C447 1.369 . S
C446 C448 1.419 . S
C446 H450 0.930 . S
C447 C446 1.369 . S
C447 C456 1.429 . S
C448 C446 1.419 . S
C448 C449 1.363 . S
C448 H451 0.929 . S
C449 C448 1.363 . S
C449 C455 1.428 . S
H450 C446 0.930 . S
H451 C448 0.929 . S
S452 N453 1.613 . S
S452 N454 1.610 . S
N453 S452 1.613 . S
N453 C456 1.350 . S
N454 S452 1.610 . S
N454 C455 1.351 . S
C455 C449 1.428 . S
C455 N454 1.351 . S
C455 C456 1.434 . S
C456 C447 1.429 . S
C456 N453 1.350 . S
C456 C455 1.434 . S
C457 C458 1.369 . S
C457 C459 1.419 . S
C457 H461 0.930 . S
C458 C457 1.369 . S
C458 C467 1.429 . S
C459 C457 1.419 . S
C459 C460 1.363 . S
C459 H462 0.929 . S
C460 C459 1.363 . S
C460 C466 1.428 . S
H461 C457 0.930 . S
H462 C459 0.929 . S
S463 N464 1.613 . S
S463 N465 1.610 . S
N464 S463 1.613 . S
N464 C467 1.350 . S
N465 S463 1.610 . S
N465 C466 1.351 . S
C466 C460 1.428 . S
C466 N465 1.351 . S
C466 C467 1.434 . S
C467 C458 1.429 . S
C467 N464 1.350 . S
C467 C466 1.434 . S
C468 C469 1.369 . S
C468 C470 1.419 1_565 S
C468 H472 0.930 . S
C469 C468 1.369 . S
C469 C478 1.429 . S
C470 C468 1.419 1_545 S
C470 C471 1.363 . S
C470 H473 0.929 . S
C471 C470 1.363 . S
C471 C477 1.428 . S
H472 C468 0.930 . S
H473 C470 0.929 . S
S474 N475 1.642 . S
S474 N476 1.581 1_565 S
N475 S474 1.642 . S
N475 C478 1.350 . S
N476 S474 1.581 1_545 S
N476 C477 1.351 . S
C477 C471 1.428 . S
C477 N476 1.351 . S
C477 C478 1.434 1_545 S
C478 C469 1.429 . S
C478 N475 1.350 . S
C478 C477 1.434 1_565 S
C479 C480 1.369 . S
C479 C481 1.419 1_455 S
C479 H483 0.930 . S
C480 C479 1.369 . S
C480 C489 1.429 . S
C481 C479 1.419 1_655 S
C481 C482 1.363 . S
C481 H484 0.929 . S
C482 C481 1.363 . S
C482 C488 1.428 . S
H483 C479 0.930 . S
H484 C481 0.929 . S
S485 N486 1.613 1_655 S
S485 N487 1.610 . S
N486 S485 1.613 1_455 S
N486 C489 1.350 . S
N487 S485 1.610 . S
N487 C488 1.351 . S
C488 C482 1.428 . S
C488 N487 1.351 . S
C488 C489 1.434 1_655 S
C489 C480 1.429 . S
C489 N486 1.350 . S
C489 C488 1.434 1_455 S
C490 C491 1.369 . S
C490 C492 1.419 1_565 S
C490 H494 0.930 . S
C491 C490 1.369 . S
C491 C500 1.429 . S
C492 C490 1.419 1_545 S
C492 C493 1.363 . S
C492 H495 0.929 . S
C493 C492 1.363 . S
C493 C499 1.428 . S
H494 C490 0.930 . S
H495 C492 0.929 . S
S496 N497 1.613 . S
S496 N498 1.610 1_565 S
N497 S496 1.613 . S
N497 C500 1.350 . S
N498 S496 1.610 1_545 S
N498 C499 1.351 . S
C499 C493 1.428 . S
C499 N498 1.351 . S
C499 C500 1.434 1_545 S
C500 C491 1.429 . S
C500 N497 1.350 . S
C500 C499 1.434 1_565 S
C501 C502 1.369 . S
C501 C503 1.419 1_455 S
C501 H505 0.930 . S
C502 C501 1.369 . S
C502 C511 1.429 . S
C503 C501 1.419 1_655 S
C503 C504 1.363 . S
C503 H506 0.929 . S
C504 C503 1.363 . S
C504 C510 1.428 . S
H505 C501 0.930 . S
H506 C503 0.929 . S
S507 N508 1.613 . S
S507 N509 1.610 1_455 S
N508 S507 1.613 . S
N508 C511 1.350 . S
N509 S507 1.610 1_655 S
N509 C510 1.351 . S
C510 C504 1.428 . S
C510 N509 1.351 . S
C510 C511 1.434 1_655 S
C511 C502 1.429 . S
C511 N508 1.350 . S
C511 C510 1.434 1_455 S
C512 C513 1.369 . S
C512 C514 1.419 . S
C512 H516 0.930 . S
C513 C512 1.369 . S
C513 C522 1.429 . S
C514 C512 1.419 . S
C514 C515 1.363 . S
C514 H517 0.929 . S
C515 C514 1.363 . S
C515 C521 1.428 . S
H516 C512 0.930 . S
H517 C514 0.929 . S
S518 N519 1.613 . S
S518 N520 1.610 . S
N519 S518 1.613 . S
N519 C522 1.350 1_556 S
N520 S518 1.610 . S
N520 C521 1.351 1_556 S
C521 C515 1.428 . S
C521 N520 1.351 1_554 S
C521 C522 1.434 . S
C522 C513 1.429 . S
C522 N519 1.350 1_554 S
C522 C521 1.434 . S
C523 C524 1.369 . S
C523 C525 1.419 . S
C523 H527 0.930 . S
C524 C523 1.369 . S
C524 C533 1.429 . S
C525 C523 1.419 . S
C525 C526 1.363 . S
C525 H528 0.929 . S
C526 C525 1.363 . S
C526 C532 1.428 . S
H527 C523 0.930 . S
H528 C525 0.929 . S
S529 N530 1.613 . S
S529 N531 1.610 . S
N530 S529 1.613 . S
N530 C533 1.350 1_554 S
N531 S529 1.610 . S
N531 C532 1.351 1_554 S
C532 C526 1.428 . S
C532 N531 1.351 1_556 S
C532 C533 1.434 . S
C533 C524 1.429 . S
C533 N530 1.350 1_556 S
C533 C532 1.434 . S
C534 C535 1.369 . S
C534 C536 1.419 . S
C534 H538 0.930 1_554 S
C535 C534 1.369 . S
C535 C544 1.429 . S
C536 C534 1.419 . S
C536 C537 1.363 . S
C536 H539 0.929 . S
C537 C536 1.363 . S
C537 C543 1.428 . S
H538 C534 0.930 1_556 S
H539 C536 0.929 . S
S540 N541 1.613 . S
S540 N542 1.610 . S
N541 S540 1.613 . S
N541 C544 1.350 . S
N542 S540 1.610 . S
N542 C543 1.351 . S
C543 C537 1.428 . S
C543 N542 1.351 . S
C543 C544 1.434 . S
C544 C535 1.429 . S
C544 N541 1.350 . S
C544 C543 1.434 . S
C545 C546 1.369 . S
C545 C547 1.419 . S
C545 H549 0.930 . S
C546 C545 1.369 . S
C546 C555 1.429 . S
C547 C545 1.419 . S
C547 C548 1.363 . S
C547 H550 0.929 . S
C548 C547 1.363 . S
C548 C554 1.428 . S
H549 C545 0.930 . S
H550 C547 0.929 . S
S551 N552 1.613 . S
S551 N553 1.610 . S
N552 S551 1.613 . S
N552 C555 1.350 . S
N553 S551 1.610 . S
N553 C554 1.351 . S
C554 C548 1.428 . S
C554 N553 1.351 . S
C554 C555 1.434 . S
C555 C546 1.429 . S
C555 N552 1.350 . S
C555 C554 1.434 . S
C556 C557 1.369 . S
C556 C558 1.419 . S
C556 H560 0.930 . S
C557 C556 1.369 . S
C557 C566 1.429 . S
C558 C556 1.419 . S
C558 C559 1.363 . S
C558 H561 0.929 . S
C559 C558 1.363 . S
C559 C565 1.428 . S
H560 C556 0.930 . S
H561 C558 0.929 . S
S562 N563 1.613 . S
S562 N564 1.610 . S
N563 S562 1.613 . S
N563 C566 1.350 . S
N564 S562 1.610 . S
N564 C565 1.351 . S
C565 C559 1.428 . S
C565 N564 1.351 . S
C565 C566 1.434 . S
C566 C557 1.429 . S
C566 N563 1.350 . S
C566 C565 1.434 . S
C567 C568 1.369 . S
C567 C569 1.419 . S
C567 H571 0.930 . S
C568 C567 1.369 . S
C568 C577 1.429 . S
C569 C567 1.419 . S
C569 C570 1.363 . S
C569 H572 0.929 . S
C570 C569 1.363 . S
C570 C576 1.428 . S
H571 C567 0.930 . S
H572 C569 0.929 . S
S573 N574 1.613 . S
S573 N575 1.610 . S
N574 S573 1.613 . S
N574 C577 1.350 . S
N575 S573 1.610 . S
N575 C576 1.351 . S
C576 C570 1.428 . S
C576 N575 1.351 . S
C576 C577 1.434 . S
C577 C568 1.429 . S
C577 N574 1.350 . S
C577 C576 1.434 . S
C578 C579 1.369 . S
C578 C580 1.419 . S
C578 H582 0.930 . S
C579 C578 1.369 . S
C579 C588 1.429 . S
C580 C578 1.419 . S
C580 C581 1.363 . S
C580 H583 0.929 . S
C581 C580 1.363 . S
C581 C587 1.428 . S
H582 C578 0.930 . S
H583 C580 0.929 . S
S584 N585 1.613 . S
S584 N586 1.610 . S
N585 S584 1.613 . S
N585 C588 1.350 . S
N586 S584 1.610 . S
N586 C587 1.351 . S
C587 C581 1.428 . S
C587 N586 1.351 . S
C587 C588 1.434 . S
C588 C579 1.429 . S
C588 N585 1.350 . S
C588 C587 1.434 . S
C589 C590 1.369 . S
C589 C591 1.419 . S
C589 H593 0.930 . S
C590 C589 1.369 . S
C590 C599 1.429 . S
C591 C589 1.419 . S
C591 C592 1.363 . S
C591 H594 0.929 . S
C592 C591 1.363 . S
C592 C598 1.428 . S
H593 C589 0.930 . S
H594 C591 0.929 . S
S595 N596 1.613 . S
S595 N597 1.610 . S
N596 S595 1.613 . S
N596 C599 1.350 . S
N597 S595 1.610 . S
N597 C598 1.351 . S
C598 C592 1.428 . S
C598 N597 1.351 . S
C598 C599 1.434 . S
C599 C590 1.429 . S
C599 N596 1.350 . S
C599 C598 1.434 . S
C600 C601 1.369 . S
C600 C602 1.419 . S
C600 H604 0.930 . S
C601 C600 1.369 . S
C601 C610 1.429 . S
C602 C600 1.419 . S
C602 C603 1.363 . S
C602 H605 0.929 . S
C603 C602 1.363 . S
C603 C609 1.428 . S
H604 C600 0.930 . S
H605 C602 0.929 . S
S606 N607 1.613 1_554 S
S606 N608 1.610 . S
N607 S606 1.613 1_556 S
N607 C610 1.350 . S
N608 S606 1.610 . S
N608 C609 1.351 1_554 S
C609 C603 1.428 . S
C609 N608 1.351 1_556 S
C609 C610 1.434 . S
C610 C601 1.429 . S
C610 N607 1.350 . S
C610 C609 1.434 . S
C611 C612 1.369 . S
C611 C613 1.419 . S
C611 H615 0.930 . S
C612 C611 1.369 . S
C612 C621 1.429 . S
C613 C611 1.419 . S
C613 C614 1.363 . S
C613 H616 0.929 . S
C614 C613 1.363 . S
C614 C620 1.428 . S
H615 C611 0.930 . S
H616 C613 0.929 . S
S617 N618 1.613 . S
S617 N619 1.610 1_556 S
N618 S617 1.613 . S
N618 C621 1.350 1_556 S
N619 S617 1.610 1_554 S
N619 C620 1.351 . S
C620 C614 1.428 . S
C620 N619 1.351 . S
C620 C621 1.434 . S
C621 C612 1.429 . S
C621 N618 1.350 1_554 S
C621 C620 1.434 . S
C622 C623 1.369 . S
C622 C624 1.419 . S
C622 H626 0.930 . S
C623 C622 1.369 . S
C623 C632 1.429 . S
C624 C622 1.419 . S
C624 C625 1.363 . S
C624 H627 0.929 . S
C625 C624 1.363 . S
C625 C631 1.428 . S
H626 C622 0.930 . S
H627 C624 0.929 . S
S628 N629 1.613 . S
S628 N630 1.610 1_554 S
N629 S628 1.613 . S
N629 C632 1.350 1_554 S
N630 S628 1.610 1_556 S
N630 C631 1.351 . S
C631 C625 1.428 . S
C631 N630 1.351 . S
C631 C632 1.434 . S
C632 C623 1.429 . S
C632 N629 1.350 1_556 S
C632 C631 1.434 . S
C633 C634 1.369 . S
C633 C635 1.419 . S
C633 H637 0.930 . S
C634 C633 1.369 . S
C634 C643 1.429 . S
C635 C633 1.419 . S
C635 C636 1.363 . S
C635 H638 0.929 . S
C636 C635 1.363 . S
C636 C642 1.428 . S
H637 C633 0.930 . S
H638 C635 0.929 . S
S639 N640 1.613 . S
S639 N641 1.610 . S
N640 S639 1.613 . S
N640 C643 1.350 . S
N641 S639 1.610 . S
N641 C642 1.351 . S
C642 C636 1.428 . S
C642 N641 1.351 . S
C642 C643 1.434 . S
C643 C634 1.429 . S
C643 N640 1.350 . S
C643 C642 1.434 . S
C644 C645 1.369 . S
C644 C646 1.419 . S
C644 H648 0.930 . S
C645 C644 1.369 . S
C645 C654 1.429 . S
C646 C644 1.419 . S
C646 C647 1.363 . S
C646 H649 0.929 . S
C647 C646 1.363 . S
C647 C653 1.428 . S
H648 C644 0.930 . S
H649 C646 0.929 . S
S650 N651 1.613 . S
S650 N652 1.610 . S
N651 S650 1.613 . S
N651 C654 1.350 . S
N652 S650 1.610 . S
N652 C653 1.351 . S
C653 C647 1.428 . S
C653 N652 1.351 . S
C653 C654 1.434 . S
C654 C645 1.429 . S
C654 N651 1.350 . S
C654 C653 1.434 . S
C655 C656 1.369 . S
C655 C657 1.419 . S
C655 H659 0.930 . S
C656 C655 1.369 . S
C656 C665 1.429 . S
C657 C655 1.419 . S
C657 C658 1.363 . S
C657 H660 0.929 . S
C658 C657 1.363 . S
C658 C664 1.428 . S
H659 C655 0.930 . S
H660 C657 0.929 . S
S661 N662 1.613 . S
S661 N663 1.610 . S
N662 S661 1.613 . S
N662 C665 1.350 . S
N663 S661 1.610 . S
N663 C664 1.351 . S
C664 C658 1.428 . S
C664 N663 1.351 . S
C664 C665 1.434 . S
C665 C656 1.429 . S
C665 N662 1.350 . S
C665 C664 1.434 . S
C666 C667 1.369 . S
C666 C668 1.419 . S
C666 H670 0.930 . S
C667 C666 1.369 . S
C667 C676 1.429 . S
C668 C666 1.419 . S
C668 C669 1.363 . S
C668 H671 0.929 . S
C669 C668 1.363 . S
C669 C675 1.428 . S
H670 C666 0.930 . S
H671 C668 0.929 . S
S672 N673 1.613 . S
S672 N674 1.610 . S
N673 S672 1.613 . S
N673 C676 1.350 . S
N674 S672 1.610 . S
N674 C675 1.351 . S
C675 C669 1.428 . S
C675 N674 1.351 . S
C675 C676 1.434 . S
C676 C667 1.429 . S
C676 N673 1.350 . S
C676 C675 1.434 . S
C677 C678 1.369 . S
C677 C679 1.419 . S
C677 H681 0.930 . S
C678 C677 1.369 . S
C678 C687 1.429 . S
C679 C677 1.419 . S
C679 C680 1.363 . S
C679 H682 0.929 . S
C680 C679 1.363 . S
C680 C686 1.428 . S
H681 C677 0.930 . S
H682 C679 0.929 . S
S683 N684 1.613 . S
S683 N685 1.610 . S
N684 S683 1.613 . S
N684 C687 1.350 . S
N685 S683 1.610 . S
N685 C686 1.351 . S
C686 C680 1.428 . S
C686 N685 1.351 . S
C686 C687 1.434 . S
C687 C678 1.429 . S
C687 N684 1.350 . S
C687 C686 1.434 . S
C688 C689 1.369 . S
C688 C690 1.419 . S
C688 H692 0.930 . S
C689 C688 1.369 . S
C689 C698 1.429 . S
C690 C688 1.419 . S
C690 C691 1.363 . S
C690 H693 0.929 . S
C691 C690 1.363 . S
C691 C697 1.428 . S
H692 C688 0.930 . S
H693 C690 0.929 . S
S694 N695 1.613 . S
S694 N696 1.610 . S
N695 S694 1.613 . S
N695 C698 1.350 . S
N696 S694 1.610 . S
N696 C697 1.351 . S
C697 C691 1.428 . S
C697 N696 1.351 . S
C697 C698 1.434 . S
C698 C689 1.429 . S
C698 N695 1.350 . S
C698 C697 1.434 . S
C699 C700 1.369 . S
C699 C701 1.419 . S
C699 H703 0.930 . S
C700 C699 1.369 . S
C700 C709 1.429 . S
C701 C699 1.419 . S
C701 C702 1.363 . S
C701 H704 0.929 . S
C702 C701 1.363 . S
C702 C708 1.428 . S
H703 C699 0.930 . S
H704 C701 0.929 . S
S705 N706 1.613 . S
S705 N707 1.610 . S
N706 S705 1.613 . S
N706 C709 1.350 . S
N707 S705 1.610 . S
N707 C708 1.351 . S
C708 C702 1.428 . S
C708 N707 1.351 . S
C708 C709 1.434 . S
C709 C700 1.429 . S
C709 N706 1.350 . S
C709 C708 1.434 . S
C710 C711 1.369 . S
C710 C712 1.419 . S
C710 H714 0.930 . S
C711 C710 1.369 . S
C711 C720 1.429 . S
C712 C710 1.419 . S
C712 C713 1.363 . S
C712 H715 0.929 . S
C713 C712 1.363 . S
C713 C719 1.428 . S
H714 C710 0.930 . S
H715 C712 0.929 . S
S716 N717 1.613 . S
S716 N718 1.610 . S
N717 S716 1.613 . S
N717 C720 1.350 . S
N718 S716 1.610 . S
N718 C719 1.351 . S
C719 C713 1.428 . S
C719 N718 1.351 . S
C719 C720 1.434 . S
C720 C711 1.429 . S
C720 N717 1.350 . S
C720 C719 1.434 . S
C721 C722 1.369 . S
C721 C723 1.419 . S
C721 H725 0.930 . S
C722 C721 1.369 . S
C722 C731 1.429 . S
C723 C721 1.419 . S
C723 C724 1.363 . S
C723 H726 0.929 . S
C724 C723 1.363 . S
C724 C730 1.428 . S
H725 C721 0.930 . S
H726 C723 0.929 . S
S727 N728 1.613 . S
S727 N729 1.610 . S
N728 S727 1.613 . S
N728 C731 1.350 . S
N729 S727 1.610 . S
N729 C730 1.351 . S
C730 C724 1.428 . S
C730 N729 1.351 . S
C730 C731 1.434 . S
C731 C722 1.429 . S
C731 N728 1.350 . S
C731 C730 1.434 . S
C732 C733 1.369 . S
C732 C734 1.419 . S
C732 H736 0.930 . S
C733 C732 1.369 . S
C733 C742 1.429 . S
C734 C732 1.419 . S
C734 C735 1.363 . S
C734 H737 0.929 . S
C735 C734 1.363 . S
C735 C741 1.428 . S
H736 C732 0.930 . S
H737 C734 0.929 . S
S738 N739 1.613 . S
S738 N740 1.610 . S
N739 S738 1.613 . S
N739 C742 1.350 . S
N740 S738 1.610 . S
N740 C741 1.351 . S
C741 C735 1.428 . S
C741 N740 1.351 . S
C741 C742 1.434 . S
C742 C733 1.429 . S
C742 N739 1.350 . S
C742 C741 1.434 . S
C743 C744 1.369 . S
C743 C745 1.419 . S
C743 H747 0.930 . S
C744 C743 1.369 . S
C744 C753 1.429 . S
C745 C743 1.419 . S
C745 C746 1.363 . S
C745 H748 0.929 . S
C746 C745 1.363 . S
C746 C752 1.428 . S
H747 C743 0.930 . S
H748 C745 0.929 . S
S749 N750 1.613 . S
S749 N751 1.610 . S
N750 S749 1.613 . S
N750 C753 1.350 . S
N751 S749 1.610 . S
N751 C752 1.351 . S
C752 C746 1.428 . S
C752 N751 1.351 . S
C752 C753 1.434 . S
C753 C744 1.429 . S
C753 N750 1.350 . S
C753 C752 1.434 . S
C754 C755 1.369 . S
C754 C756 1.419 . S
C754 H758 0.930 . S
C755 C754 1.369 . S
C755 C764 1.429 . S
C756 C754 1.419 . S
C756 C757 1.363 . S
C756 H759 0.929 . S
C757 C756 1.363 . S
C757 C763 1.428 . S
H758 C754 0.930 . S
H759 C756 0.929 . S
S760 N761 1.613 . S
S760 N762 1.610 . S
N761 S760 1.613 . S
N761 C764 1.350 . S
N762 S760 1.610 . S
N762 C763 1.351 . S
C763 C757 1.428 . S
C763 N762 1.351 . S
C763 C764 1.434 . S
C764 C755 1.429 . S
C764 N761 1.350 . S
C764 C763 1.434 . S
C765 C766 1.369 . S
C765 C767 1.419 . S
C765 H769 0.930 . S
C766 C765 1.369 . S
C766 C775 1.429 . S
C767 C765 1.419 . S
C767 C768 1.363 . S
C767 H770 0.929 . S
C768 C767 1.363 . S
C768 C774 1.428 . S
H769 C765 0.930 . S
H770 C767 0.929 . S
S771 N772 1.613 . S
S771 N773 1.610 . S
N772 S771 1.613 . S
N772 C775 1.350 . S
N773 S771 1.610 . S
N773 C774 1.351 . S
C774 C768 1.428 . S
C774 N773 1.351 . S
C774 C775 1.434 . S
C775 C766 1.429 . S
C775 N772 1.350 . S
C775 C774 1.434 . S
C776 C777 1.369 1_554 S
C776 C778 1.419 . S
C776 H780 0.930 1_554 S
C777 C776 1.369 1_556 S
C777 C786 1.429 1_556 S
C778 C776 1.419 . S
C778 C779 1.363 . S
C778 H781 0.929 . S
C779 C778 1.363 . S
C779 C785 1.428 . S
H780 C776 0.930 1_556 S
H781 C778 0.929 . S
S782 N783 1.613 . S
S782 N784 1.610 . S
N783 S782 1.613 . S
N783 C786 1.350 . S
N784 S782 1.610 . S
N784 C785 1.351 . S
C785 C779 1.428 . S
C785 N784 1.351 . S
C785 C786 1.434 . S
C786 C777 1.429 1_554 S
C786 N783 1.350 . S
C786 C785 1.434 . S
C787 C788 1.369 . S
C787 C789 1.419 . S
C787 H791 0.930 . S
C788 C787 1.369 . S
C788 C797 1.429 . S
C789 C787 1.419 . S
C789 C790 1.363 1_556 S
C789 H792 0.929 . S
C790 C789 1.363 1_554 S
C790 C796 1.428 1_554 S
H791 C787 0.930 . S
H792 C789 0.929 . S
S793 N794 1.613 . S
S793 N795 1.610 1_556 S
N794 S793 1.613 . S
N794 C797 1.350 . S
N795 S793 1.610 1_554 S
N795 C796 1.351 1_554 S
C796 C790 1.428 1_556 S
C796 N795 1.351 1_556 S
C796 C797 1.434 . S
C797 C788 1.429 . S
C797 N794 1.350 . S
C797 C796 1.434 . S
C798 C799 1.369 . S
C798 C800 1.419 . S
C798 H802 0.930 . S
C799 C798 1.369 . S
C799 C808 1.429 . S
C800 C798 1.419 . S
C800 C801 1.363 1_554 S
C800 H803 0.929 . S
C801 C800 1.363 1_556 S
C801 C807 1.428 1_556 S
H802 C798 0.930 . S
H803 C800 0.929 . S
S804 N805 1.613 . S
S804 N806 1.610 . S
N805 S804 1.613 . S
N805 C808 1.350 . S
N806 S804 1.610 . S
N806 C807 1.351 . S
C807 C801 1.428 1_554 S
C807 N806 1.351 . S
C807 C808 1.434 . S
C808 C799 1.429 . S
C808 N805 1.350 . S
C808 C807 1.434 . S
C809 C810 1.369 1_556 S
C809 C811 1.419 . S
C809 H813 0.930 . S
C810 C809 1.369 1_554 S
C810 C819 1.429 1_554 S
C811 C809 1.419 . S
C811 C812 1.363 . S
C811 H814 0.929 . S
C812 C811 1.363 . S
C812 C818 1.428 . S
H813 C809 0.930 . S
H814 C811 0.929 . S
S815 N816 1.613 . S
S815 N817 1.610 . S
N816 S815 1.613 . S
N816 C819 1.350 . S
N817 S815 1.610 . S
N817 C818 1.351 . S
C818 C812 1.428 . S
C818 N817 1.351 . S
C818 C819 1.434 . S
C819 C810 1.429 1_556 S
C819 N816 1.350 . S
C819 C818 1.434 . S
C820 C821 1.369 . S
C820 C822 1.419 . S
C820 H824 0.930 . S
C821 C820 1.369 . S
C821 C830 1.429 . S
C822 C820 1.419 . S
C822 C823 1.363 . S
C822 H825 0.929 . S
C823 C822 1.363 . S
C823 C829 1.428 . S
H824 C820 0.930 . S
H825 C822 0.929 . S
S826 N827 1.613 . S
S826 N828 1.610 . S
N827 S826 1.613 . S
N827 C830 1.350 . S
N828 S826 1.610 . S
N828 C829 1.351 . S
C829 C823 1.428 . S
C829 N828 1.351 . S
C829 C830 1.434 . S
C830 C821 1.429 . S
C830 N827 1.350 . S
C830 C829 1.434 . S
C831 C832 1.369 . S
C831 C833 1.419 . S
C831 H835 0.930 . S
C832 C831 1.369 . S
C832 C841 1.429 . S
C833 C831 1.419 . S
C833 C834 1.363 . S
C833 H836 0.929 . S
C834 C833 1.363 . S
C834 C840 1.428 . S
H835 C831 0.930 . S
H836 C833 0.929 . S
S837 N838 1.613 . S
S837 N839 1.610 . S
N838 S837 1.613 . S
N838 C841 1.350 . S
N839 S837 1.610 . S
N839 C840 1.351 . S
C840 C834 1.428 . S
C840 N839 1.351 . S
C840 C841 1.434 . S
C841 C832 1.429 . S
C841 N838 1.350 . S
C841 C840 1.434 . S
C842 C843 1.369 . S
C842 C844 1.419 . S
C842 H846 0.930 . S
C843 C842 1.369 . S
C843 C852 1.429 . S
C844 C842 1.419 . S
C844 C845 1.363 . S
C844 H847 0.929 . S
C845 C844 1.363 . S
C845 C851 1.428 . S
H846 C842 0.930 . S
H847 C844 0.929 . S
S848 N849 1.613 . S
S848 N850 1.610 . S
N849 S848 1.613 . S
N849 C852 1.350 . S
N850 S848 1.610 . S
N850 C851 1.351 . S
C851 C845 1.428 . S
C851 N850 1.351 . S
C851 C852 1.434 . S
C852 C843 1.429 . S
C852 N849 1.350 . S
C852 C851 1.434 . S
C853 C854 1.369 . S
C853 C855 1.419 . S
C853 H857 0.930 . S
C854 C853 1.369 . S
C854 C863 1.429 . S
C855 C853 1.419 . S
C855 C856 1.363 . S
C855 H858 0.929 . S
C856 C855 1.363 . S
C856 C862 1.428 . S
H857 C853 0.930 . S
H858 C855 0.929 . S
S859 N860 1.613 . S
S859 N861 1.610 . S
N860 S859 1.613 . S
N860 C863 1.350 . S
N861 S859 1.610 . S
N861 C862 1.351 . S
C862 C856 1.428 . S
C862 N861 1.351 . S
C862 C863 1.434 . S
C863 C854 1.429 . S
C863 N860 1.350 . S
C863 C862 1.434 . S
C337 C246 1.456 . S
C339 C13 1.378 . S
C348 C183 1.453 . S
C350 C34 1.372 . S
C359 C55 1.384 . S
C361 C204 1.460 . S
C370 C76 1.383 . S
C372 C225 1.460 . S
C381 C97 1.384 . S
C383 C120 1.462 . S
C392 C144 1.457 . S
C394 C118 1.379 . S
C403 C142 1.384 . S
C405 C162 1.462 . S
C414 C99 1.460 . S
C416 C160 1.381 . S
C425 C78 1.454 . S
C427 C181 1.371 . S
C436 C202 1.382 . S
C438 C15 1.460 . S
C447 C36 1.453 . S
C449 C223 1.373 . S
C458 C57 1.454 . S
C460 C244 1.373 . S
C469 C265 1.378 . S
C471 C288 1.457 . S
C480 C312 1.459 . S
C482 C286 1.380 . S
C491 C330 1.455 . S
C493 C310 1.372 . S
C502 C328 1.385 . S
C504 C267 1.462 . S
C513 C16 1.143 . S
C515 C100 1.127 . S
C524 C121 1.122 . S
C526 C37 1.139 . S
C535 C58 1.132 . S
C537 C139 1.140 . S
C546 C79 1.130 . S
C548 C163 1.140 . S
C557 C184 1.122 . S
C559 C268 1.139 . S
C568 C289 1.123 . S
C570 C205 1.140 . S
C579 C226 1.120 . S
C581 C307 1.133 . S
C590 C247 1.143 . S
C592 C331 1.127 . S
C601 C311 1.712 . S
C603 C14 1.715 1_556 S
C612 C35 1.716 1_554 S
C614 C329 1.710 . S
C623 C56 1.713 1_556 S
C625 C266 1.708 . S
C634 C77 1.712 1_554 S
C636 C287 1.715 . S
C645 C98 1.707 . S
C647 C224 1.714 . S
C656 C119 1.714 . S
C658 C245 1.708 . S
C667 C143 1.716 . S
C669 C182 1.710 . S
C678 C203 1.715 . S
C680 C161 1.709 . S
C689 C17 1.183 . S
C691 C18 1.173 . S
C700 C38 1.187 . S
C702 C39 1.168 . S
C711 C59 1.176 . S
C713 C60 1.176 . S
C722 C81 1.179 . S
C724 C80 1.177 . S
C733 C102 1.179 . S
C735 C101 1.178 . S
C744 C122 1.189 . S
C746 C123 1.166 . S
C755 C140 1.183 . S
C757 C141 1.173 . S
C766 C165 1.171 . S
C768 C164 1.184 . S
C777 C185 1.183 . S
C779 C186 1.169 . S
C788 C207 1.179 . S
C790 C206 1.177 . S
C799 C228 1.171 . S
C801 C227 1.181 . S
C810 C248 1.182 . S
C812 C249 1.171 . S
C821 C269 1.188 . S
C823 C270 1.169 1_554 S
C832 C291 1.173 1_556 S
C834 C290 1.181 . S
C843 C309 1.178 1_554 S
C845 C308 1.177 . S
C854 C332 1.183 . S
C856 C333 1.170 1_556 S
