# Generated by pormake.
# Topology whk, (6)-cn, num edge types: 1
# Building blocks:
#     Node 0, Type 0, BuildingBlock: BETDEL_clean_sbu_0, # of connection points: 6
#     Node 1, Type 0, BuildingBlock: BETDEL_clean_sbu_0, # of connection points: 6
#     Node 2, Type 0, BuildingBlock: BETDEL_clean_sbu_0, # of connection points: 6
#     Node 3, Type 0, BuildingBlock: BETDEL_clean_sbu_0, # of connection points: 6
#     Node 4, Type 0, BuildingBlock: BETDEL_clean_sbu_0, # of connection points: 6
#     Node 5, Type 0, BuildingBlock: BETDEL_clean_sbu_0, # of connection points: 6
#     Node 6, Type 0, BuildingBlock: BETDEL_clean_sbu_0, # of connection points: 6
#     Node 7, Type 0, BuildingBlock: BETDEL_clean_sbu_0, # of connection points: 6
#     Node 8, Type 0, BuildingBlock: BETDEL_clean_sbu_0, # of connection points: 6
#     Node 9, Type 0, BuildingBlock: BETDEL_clean_sbu_0, # of connection points: 6
#     Node 10, Type 0, BuildingBlock: BETDEL_clean_sbu_0, # of connection points: 6
#     Node 11, Type 0, BuildingBlock: BETDEL_clean_sbu_0, # of connection points: 6
#     Node 12, Type 0, BuildingBlock: BETDEL_clean_sbu_0, # of connection points: 6
#     Node 13, Type 0, BuildingBlock: BETDEL_clean_sbu_0, # of connection points: 6
#     Node 14, Type 0, BuildingBlock: BETDEL_clean_sbu_0, # of connection points: 6
#     Node 15, Type 0, BuildingBlock: BETDEL_clean_sbu_0, # of connection points: 6
#     Edge 16, Type (0, 0), BuildingBlock: OJICUG_clean_linker_0, # of connection points: 2
#     Edge 17, Type (0, 0), BuildingBlock: OJICUG_clean_linker_0, # of connection points: 2
#     Edge 18, Type (0, 0), BuildingBlock: OJICUG_clean_linker_0, # of connection points: 2
#     Edge 19, Type (0, 0), BuildingBlock: OJICUG_clean_linker_0, # of connection points: 2
#     Edge 20, Type (0, 0), BuildingBlock: OJICUG_clean_linker_0, # of connection points: 2
#     Edge 21, Type (0, 0), BuildingBlock: OJICUG_clean_linker_0, # of connection points: 2
#     Edge 22, Type (0, 0), BuildingBlock: OJICUG_clean_linker_0, # of connection points: 2
#     Edge 23, Type (0, 0), BuildingBlock: OJICUG_clean_linker_0, # of connection points: 2
#     Edge 24, Type (0, 0), BuildingBlock: OJICUG_clean_linker_0, # of connection points: 2
#     Edge 25, Type (0, 0), BuildingBlock: OJICUG_clean_linker_0, # of connection points: 2
#     Edge 26, Type (0, 0), BuildingBlock: OJICUG_clean_linker_0, # of connection points: 2
#     Edge 27, Type (0, 0), BuildingBlock: OJICUG_clean_linker_0, # of connection points: 2
#     Edge 28, Type (0, 0), BuildingBlock: OJICUG_clean_linker_0, # of connection points: 2
#     Edge 29, Type (0, 0), BuildingBlock: OJICUG_clean_linker_0, # of connection points: 2
#     Edge 30, Type (0, 0), BuildingBlock: OJICUG_clean_linker_0, # of connection points: 2
#     Edge 31, Type (0, 0), BuildingBlock: OJICUG_clean_linker_0, # of connection points: 2
#     Edge 32, Type (0, 0), BuildingBlock: OJICUG_clean_linker_0, # of connection points: 2
#     Edge 33, Type (0, 0), BuildingBlock: OJICUG_clean_linker_0, # of connection points: 2
#     Edge 34, Type (0, 0), BuildingBlock: OJICUG_clean_linker_0, # of connection points: 2
#     Edge 35, Type (0, 0), BuildingBlock: OJICUG_clean_linker_0, # of connection points: 2
#     Edge 36, Type (0, 0), BuildingBlock: OJICUG_clean_linker_0, # of connection points: 2
#     Edge 37, Type (0, 0), BuildingBlock: OJICUG_clean_linker_0, # of connection points: 2
#     Edge 38, Type (0, 0), BuildingBlock: OJICUG_clean_linker_0, # of connection points: 2
#     Edge 39, Type (0, 0), BuildingBlock: OJICUG_clean_linker_0, # of connection points: 2
#     Edge 40, Type (0, 0), BuildingBlock: OJICUG_clean_linker_0, # of connection points: 2
#     Edge 41, Type (0, 0), BuildingBlock: OJICUG_clean_linker_0, # of connection points: 2
#     Edge 42, Type (0, 0), BuildingBlock: OJICUG_clean_linker_0, # of connection points: 2
#     Edge 43, Type (0, 0), BuildingBlock: OJICUG_clean_linker_0, # of connection points: 2
#     Edge 44, Type (0, 0), BuildingBlock: OJICUG_clean_linker_0, # of connection points: 2
#     Edge 45, Type (0, 0), BuildingBlock: OJICUG_clean_linker_0, # of connection points: 2
#     Edge 46, Type (0, 0), BuildingBlock: OJICUG_clean_linker_0, # of connection points: 2
#     Edge 47, Type (0, 0), BuildingBlock: OJICUG_clean_linker_0, # of connection points: 2
#     Edge 48, Type (0, 0), BuildingBlock: OJICUG_clean_linker_0, # of connection points: 2
#     Edge 49, Type (0, 0), BuildingBlock: OJICUG_clean_linker_0, # of connection points: 2
#     Edge 50, Type (0, 0), BuildingBlock: OJICUG_clean_linker_0, # of connection points: 2
#     Edge 51, Type (0, 0), BuildingBlock: OJICUG_clean_linker_0, # of connection points: 2
#     Edge 52, Type (0, 0), BuildingBlock: OJICUG_clean_linker_0, # of connection points: 2
#     Edge 53, Type (0, 0), BuildingBlock: OJICUG_clean_linker_0, # of connection points: 2
#     Edge 54, Type (0, 0), BuildingBlock: OJICUG_clean_linker_0, # of connection points: 2
#     Edge 55, Type (0, 0), BuildingBlock: OJICUG_clean_linker_0, # of connection points: 2
#     Edge 56, Type (0, 0), BuildingBlock: OJICUG_clean_linker_0, # of connection points: 2
#     Edge 57, Type (0, 0), BuildingBlock: OJICUG_clean_linker_0, # of connection points: 2
#     Edge 58, Type (0, 0), BuildingBlock: OJICUG_clean_linker_0, # of connection points: 2
#     Edge 59, Type (0, 0), BuildingBlock: OJICUG_clean_linker_0, # of connection points: 2
#     Edge 60, Type (0, 0), BuildingBlock: OJICUG_clean_linker_0, # of connection points: 2
#     Edge 61, Type (0, 0), BuildingBlock: OJICUG_clean_linker_0, # of connection points: 2
#     Edge 62, Type (0, 0), BuildingBlock: OJICUG_clean_linker_0, # of connection points: 2
#     Edge 63, Type (0, 0), BuildingBlock: OJICUG_clean_linker_0, # of connection points: 2
# Relax obj value: 0.475
# Max RMSD: 0.291
# Mean RMSD: 0.291
data_MOF--net-whk--node1-BETDEL_clean_sbu_0--edge1-OJICUG_clean_linker_0
_symmetry_space_group_name_H-M    P1
_symmetry_Int_Tables_number       1
_symmetry_cell_setting            triclinic
loop_
_symmetry_equiv_pos_as_xyz
'x, y, z'
_cell_length_a     29.030254
_cell_length_b     29.068777
_cell_length_c     28.817982
_cell_angle_alpha  89.957373
_cell_angle_beta   90.182296
_cell_angle_gamma 89.975907
loop_
_atom_site_label
_atom_site_type_symbol
_atom_site_fract_x
_atom_site_fract_y
_atom_site_fract_z
_atom_type_partial_charge
Dy0 Dy 0.585 0.22503 0.41195 0.0
C1 C 0.44217 0.11917 0.45771 0.0
C2 C 0.65934 0.26366 0.3705 0.0
Dy3 Dy 0.51922 0.17181 0.46582 0.0
O4 O 0.62939 0.23764 0.3503 0.0
O5 O 0.6472 0.27039 0.41327 0.0
O6 O 0.54983 0.19594 0.34939 0.0
O7 O 0.5627 0.15386 0.40623 0.0
C8 C 0.55004 0.15381 0.36418 0.0
C9 C 0.56138 0.2353 0.51755 0.0
O10 O 0.58031 0.12972 0.48693 0.0
O11 O 0.63264 0.18197 0.45658 0.0
O12 O 0.45771 0.13527 0.49721 0.0
O13 O 0.46928 0.13083 0.42413 0.0
O14 O 0.54595 0.19664 0.53507 0.0
O15 O 0.54868 0.23947 0.47582 0.0
O16 O 0.52968 0.27805 0.40738 0.0
O17 O 0.47503 0.23273 0.44325 0.0
C18 C 0.62322 0.14451 0.48125 0.0
C19 C 0.48711 0.27162 0.4222 0.0
Dy20 Dy 0.28447 0.58503 0.41384 0.0
C21 C 0.39168 0.44171 0.45768 0.0
C22 C 0.24363 0.66047 0.37622 0.0
Dy23 Dy 0.33872 0.51844 0.46626 0.0
O24 O 0.26456 0.62859 0.35327 0.0
O25 O 0.24325 0.64956 0.41986 0.0
O26 O 0.31339 0.55254 0.34996 0.0
O27 O 0.35585 0.56304 0.40708 0.0
C28 C 0.35554 0.55134 0.3648 0.0
C29 C 0.275 0.55914 0.51869 0.0
O30 O 0.38076 0.57915 0.48839 0.0
O31 O 0.32877 0.63189 0.45789 0.0
O32 O 0.37493 0.45638 0.49712 0.0
O33 O 0.38063 0.4696 0.4244 0.0
O34 O 0.31394 0.54386 0.53597 0.0
O35 O 0.27085 0.54713 0.47685 0.0
O36 O 0.23141 0.5298 0.40973 0.0
O37 O 0.27809 0.47429 0.44264 0.0
C38 C 0.36614 0.62211 0.48273 0.0
C39 C 0.23859 0.48676 0.42276 0.0
Dy40 Dy 0.92544 0.28386 0.41481 0.0
C41 C 0.06902 0.39068 0.45847 0.0
C42 C 0.84986 0.24321 0.37719 0.0
Dy43 Dy 0.99221 0.33791 0.46723 0.0
O44 O 0.88177 0.26409 0.35423 0.0
O45 O 0.8608 0.24279 0.42086 0.0
O46 O 0.95803 0.31266 0.35091 0.0
O47 O 0.94761 0.35507 0.40785 0.0
C48 C 0.95937 0.35473 0.36562 0.0
C49 C 0.95135 0.27441 0.51976 0.0
O50 O 0.93142 0.37997 0.48906 0.0
O51 O 0.87855 0.32822 0.4585 0.0
O52 O 0.05448 0.37389 0.49798 0.0
O53 O 0.04098 0.37976 0.42525 0.0
O54 O 0.9667 0.31325 0.53695 0.0
O55 O 0.96338 0.27023 0.47796 0.0
O56 O 0.98067 0.2308 0.4109 0.0
O57 O 0.0363 0.27715 0.44406 0.0
C58 C 0.88837 0.3655 0.48326 0.0
C59 C 0.02375 0.23783 0.42409 0.0
Dy60 Dy 0.2255 0.92497 0.41225 0.0
C61 C 0.11991 0.06789 0.45824 0.0
C62 C 0.26402 0.85073 0.37055 0.0
Dy63 Dy 0.17226 0.99068 0.46618 0.0
O64 O 0.23793 0.88071 0.35044 0.0
O65 O 0.27087 0.86276 0.41338 0.0
O66 O 0.19653 0.96037 0.34975 0.0
O67 O 0.15429 0.94744 0.40629 0.0
C68 C 0.15432 0.96018 0.36429 0.0
C69 C 0.23577 0.94842 0.51796 0.0
O70 O 0.13003 0.92973 0.48689 0.0
O71 O 0.18229 0.87741 0.45653 0.0
O72 O 0.13605 0.05227 0.49772 0.0
O73 O 0.1313 0.04073 0.4246 0.0
O74 O 0.19707 0.96385 0.53541 0.0
O75 O 0.23995 0.96115 0.47629 0.0
O76 O 0.27867 0.98012 0.40812 0.0
O77 O 0.23331 0.03472 0.44401 0.0
C78 C 0.14479 0.88685 0.4811 0.0
C79 C 0.27223 0.02264 0.42305 0.0
Dy80 Dy 0.08617 0.78361 0.18507 0.0
C81 C 0.94263 0.8905 0.14102 0.0
C82 C 0.16169 0.74287 0.22285 0.0
Dy83 Dy 0.01951 0.83772 0.13245 0.0
O84 O 0.12976 0.76379 0.24574 0.0
O85 O 0.15078 0.74244 0.17917 0.0
O86 O 0.05345 0.81239 0.24891 0.0
O87 O 0.06394 0.8548 0.19193 0.0
C88 C 0.05214 0.85448 0.23415 0.0
C89 C 0.06074 0.77439 0.07998 0.0
O90 O 0.0803 0.87999 0.11115 0.0
O91 O 0.13317 0.82811 0.14163 0.0
O92 O 0.95742 0.87398 0.10151 0.0
O93 O 0.97045 0.87928 0.17436 0.0
O94 O 0.04536 0.81327 0.0628 0.0
O95 O 0.04853 0.77007 0.12171 0.0
O96 O 0.03095 0.73058 0.18881 0.0
O97 O 0.9754 0.77694 0.1554 0.0
C98 C 0.12335 0.86553 0.11702 0.0
C99 C 0.98792 0.7376 0.17542 0.0
Dy100 Dy 0.72685 0.08498 0.18591 0.0
C101 C 0.61991 0.94151 0.14212 0.0
C102 C 0.76772 0.16044 0.22327 0.0
Dy103 Dy 0.67256 0.01844 0.13343 0.0
O104 O 0.74704 0.12849 0.24637 0.0
O105 O 0.76782 0.14961 0.17962 0.0
O106 O 0.69804 0.0524 0.24986 0.0
O107 O 0.65556 0.06282 0.19274 0.0
C108 C 0.65589 0.0511 0.23503 0.0
C109 C 0.73588 0.05975 0.08091 0.0
O110 O 0.63013 0.07917 0.11196 0.0
O111 O 0.68213 0.13193 0.14228 0.0
O112 O 0.63621 0.95651 0.10258 0.0
O113 O 0.63126 0.96917 0.17545 0.0
O114 O 0.69695 0.04438 0.06372 0.0
O115 O 0.74025 0.04746 0.12267 0.0
O116 O 0.78004 0.02978 0.18972 0.0
O117 O 0.73354 0.97438 0.15649 0.0
C118 C 0.64461 0.12216 0.1177 0.0
C119 C 0.77301 0.98684 0.1764 0.0
Dy120 Dy 0.42642 0.72488 0.1872 0.0
C121 C 0.56926 0.61892 0.14201 0.0
C122 C 0.35214 0.76349 0.22877 0.0
Dy123 Dy 0.49228 0.67165 0.13364 0.0
O124 O 0.38223 0.73758 0.24897 0.0
O125 O 0.36407 0.7701 0.18592 0.0
O126 O 0.46153 0.69577 0.24983 0.0
O127 O 0.44861 0.65365 0.19309 0.0
C128 C 0.46124 0.65364 0.23517 0.0
C129 C 0.45059 0.73534 0.08177 0.0
O130 O 0.43121 0.62988 0.11185 0.0
O131 O 0.37885 0.68204 0.1423 0.0
O132 O 0.554 0.6353 0.10249 0.0
O133 O 0.54189 0.63031 0.17546 0.0
O134 O 0.46599 0.69666 0.06428 0.0
O135 O 0.46307 0.73939 0.12356 0.0
O136 O 0.48169 0.77791 0.19187 0.0
O137 O 0.53648 0.73248 0.15639 0.0
C138 C 0.3883 0.64475 0.11743 0.0
C139 C 0.52435 0.7714 0.17732 0.0
Dy140 Dy 0.78597 0.42509 0.18751 0.0
C141 C 0.89163 0.56789 0.14118 0.0
C142 C 0.74777 0.35078 0.22942 0.0
Dy143 Dy 0.83903 0.49087 0.13349 0.0
O144 O 0.77427 0.38051 0.24929 0.0
O145 O 0.74033 0.3631 0.18675 0.0
O146 O 0.81502 0.46049 0.24989 0.0
O147 O 0.85719 0.4475 0.1933 0.0
C148 C 0.85719 0.46027 0.23527 0.0
C149 C 0.77518 0.44902 0.08191 0.0
O150 O 0.88099 0.42991 0.11223 0.0
O151 O 0.82881 0.37764 0.1428 0.0
O152 O 0.87494 0.55261 0.10184 0.0
O153 O 0.88066 0.54049 0.17481 0.0
O154 O 0.81383 0.46441 0.06432 0.0
O155 O 0.77122 0.46156 0.12364 0.0
O156 O 0.73286 0.48028 0.19197 0.0
O157 O 0.77825 0.53497 0.15625 0.0
C158 C 0.86615 0.38707 0.118 0.0
C159 C 0.73935 0.52287 0.17724 0.0
Dy160 Dy 0.49199 0.8376 0.63382 0.0
C161 C 0.35212 0.74574 0.72919 0.0
C162 C 0.56894 0.89034 0.64188 0.0
Dy163 Dy 0.42637 0.78438 0.68757 0.0
O164 O 0.55354 0.87403 0.60243 0.0
O165 O 0.54172 0.87888 0.67544 0.0
O166 O 0.46593 0.81263 0.56448 0.0
O167 O 0.46282 0.76979 0.62384 0.0
C168 C 0.45056 0.77393 0.58196 0.0
C169 C 0.46119 0.85585 0.73523 0.0
O170 O 0.48174 0.73143 0.6923 0.0
O171 O 0.53635 0.77687 0.65657 0.0
O172 O 0.38204 0.77188 0.74929 0.0
O173 O 0.36425 0.7389 0.68644 0.0
O174 O 0.46169 0.81372 0.74999 0.0
O175 O 0.44827 0.85565 0.69326 0.0
O176 O 0.43087 0.87932 0.61208 0.0
O177 O 0.37868 0.82702 0.64255 0.0
C178 C 0.52433 0.73795 0.67759 0.0
C179 C 0.38802 0.86435 0.61766 0.0
Dy180 Dy 0.67243 0.49099 0.63345 0.0
C181 C 0.76467 0.35093 0.72906 0.0
C182 C 0.61976 0.56792 0.64195 0.0
Dy183 Dy 0.72591 0.42519 0.68724 0.0
O184 O 0.63578 0.55273 0.60238 0.0
O185 O 0.63144 0.54049 0.67538 0.0
O186 O 0.69749 0.46531 0.56411 0.0
O187 O 0.74035 0.4619 0.62359 0.0
C188 C 0.73623 0.44985 0.58169 0.0
C189 C 0.65444 0.45988 0.73482 0.0
O190 O 0.77896 0.48048 0.69191 0.0
O191 O 0.73331 0.53517 0.65621 0.0
O192 O 0.73867 0.3809 0.74911 0.0
O193 O 0.77131 0.36301 0.68623 0.0
O194 O 0.69664 0.46027 0.74962 0.0
O195 O 0.65455 0.44708 0.69287 0.0
O196 O 0.63069 0.43001 0.61157 0.0
O197 O 0.68311 0.37775 0.64217 0.0
C198 C 0.77235 0.52309 0.67723 0.0
C199 C 0.6457 0.38717 0.61719 0.0
Dy200 Dy 0.01913 0.6718 0.63259 0.0
C201 C 0.16159 0.76625 0.72261 0.0
C202 C 0.94221 0.6191 0.64152 0.0
Dy203 Dy 0.08593 0.72575 0.68498 0.0
O204 O 0.95698 0.63549 0.60193 0.0
O205 O 0.97005 0.63044 0.67478 0.0
O206 O 0.04447 0.69628 0.56279 0.0
O207 O 0.04817 0.73947 0.62172 0.0
C208 C 0.05999 0.73511 0.57985 0.0
C209 C 0.0518 0.65476 0.73404 0.0
O210 O 0.03082 0.77892 0.6889 0.0
O211 O 0.97516 0.7327 0.65563 0.0
O212 O 0.12967 0.74537 0.74557 0.0
O213 O 0.15062 0.76675 0.67896 0.0
O214 O 0.05307 0.69683 0.74878 0.0
O215 O 0.06381 0.65458 0.6919 0.0
O216 O 0.07989 0.62955 0.61099 0.0
O217 O 0.13282 0.68134 0.64135 0.0
C218 C 0.98776 0.77199 0.67563 0.0
C219 C 0.12296 0.64399 0.61674 0.0
Dy220 Dy 0.83863 0.01888 0.63356 0.0
C221 C 0.74393 0.16071 0.72335 0.0
C222 C 0.8914 0.94192 0.64171 0.0
Dy223 Dy 0.78456 0.08526 0.68585 0.0
O224 O 0.87462 0.95704 0.60233 0.0
O225 O 0.88047 0.96949 0.67519 0.0
O226 O 0.81416 0.04459 0.56375 0.0
O227 O 0.77081 0.04786 0.62252 0.0
C228 C 0.7752 0.05989 0.58069 0.0
C229 C 0.85569 0.05107 0.73514 0.0
O230 O 0.73139 0.03017 0.68956 0.0
O231 O 0.77792 0.97474 0.65666 0.0
O232 O 0.76489 0.12876 0.74637 0.0
O233 O 0.74338 0.14984 0.67971 0.0
O234 O 0.81353 0.05216 0.74971 0.0
O235 O 0.85587 0.0632 0.69298 0.0
O236 O 0.88093 0.07959 0.6122 0.0
O237 O 0.82896 0.1323 0.64236 0.0
C238 C 0.73849 0.98721 0.6764 0.0
C239 C 0.86641 0.12256 0.61789 0.0
Dy240 Dy 0.99172 0.17171 0.96704 0.0
C241 C 0.85151 0.2637 0.87111 0.0
C242 C 0.06879 0.11921 0.95856 0.0
Dy243 Dy 0.92584 0.22502 0.91305 0.0
O244 O 0.0535 0.13501 0.99819 0.0
O245 O 0.04143 0.13106 0.92507 0.0
O246 O 0.96563 0.19645 1.03632 0.0
O247 O 0.96231 0.2394 0.97703 0.0
C248 C 0.95007 0.23513 1.01883 0.0
C249 C 0.96086 0.15374 0.86544 0.0
O250 O 0.98114 0.27803 0.90872 0.0
O251 O 0.03584 0.23272 0.94492 0.0
O252 O 0.88151 0.23773 0.85109 0.0
O253 O 0.86359 0.27037 0.91398 0.0
O254 O 0.96113 0.19588 0.85072 0.0
O255 O 0.94797 0.15384 0.90733 0.0
O256 O 0.93067 0.12974 0.98813 0.0
O257 O 0.87828 0.18204 0.95755 0.0
C258 C 0.02374 0.27159 0.92376 0.0
C259 C 0.88774 0.1446 0.98231 0.0
Dy260 Dy 0.33862 0.99103 0.96615 0.0
C261 C 0.2434 0.84922 0.87642 0.0
C262 C 0.39137 0.06786 0.95751 0.0
Dy263 Dy 0.28433 0.92463 0.91386 0.0
O264 O 0.37485 0.05301 0.997 0.0
O265 O 0.38023 0.04009 0.92421 0.0
O266 O 0.31412 0.96579 1.03597 0.0
O267 O 0.27078 0.96232 0.97693 0.0
C268 C 0.27514 0.9505 1.01884 0.0
C269 C 0.35552 0.95835 0.86481 0.0
O270 O 0.2312 0.97987 0.90987 0.0
O271 O 0.27785 0.03526 0.94287 0.0
O272 O 0.26417 0.88115 0.85336 0.0
O273 O 0.24325 0.86005 0.92006 0.0
O274 O 0.31335 0.95732 0.85 0.0
O275 O 0.35571 0.94638 0.90701 0.0
O276 O 0.38071 0.93029 0.98827 0.0
O277 O 0.32864 0.87765 0.95788 0.0
C278 C 0.23834 0.02285 0.92303 0.0
C279 C 0.36605 0.88736 0.98266 0.0
Dy280 Dy 0.51908 0.3375 0.96587 0.0
C281 C 0.6611 0.24271 0.87663 0.0
C282 C 0.44233 0.3906 0.95726 0.0
Dy283 Dy 0.58559 0.28343 0.91395 0.0
O284 O 0.45715 0.3737 0.99669 0.0
O285 O 0.47006 0.37958 0.92397 0.0
O286 O 0.54426 0.31284 1.03581 0.0
O287 O 0.54774 0.26963 0.97688 0.0
C288 C 0.55952 0.2739 1.01883 0.0
C289 C 0.55181 0.35462 0.86464 0.0
O290 O 0.53037 0.23042 0.90968 0.0
O291 O 0.4748 0.27698 0.94224 0.0
O292 O 0.62908 0.26352 0.85353 0.0
O293 O 0.65026 0.24235 0.92025 0.0
O294 O 0.5528 0.31252 0.84997 0.0
O295 O 0.56382 0.35476 0.90687 0.0
O296 O 0.5799 0.37936 0.98824 0.0
O297 O 0.63264 0.32744 0.95808 0.0
C298 C 0.48729 0.23757 0.92249 0.0
C299 C 0.6229 0.36472 0.98281 0.0
Dy300 Dy 0.17246 0.51872 0.96592 0.0
C301 C 0.2635 0.65887 0.86995 0.0
C302 C 0.11995 0.44159 0.95802 0.0
Dy303 Dy 0.22545 0.5845 0.9119 0.0
O304 O 0.13615 0.45713 0.99747 0.0
O305 O 0.1314 0.46875 0.92438 0.0
O306 O 0.1975 0.54502 1.03517 0.0
O307 O 0.24025 0.54824 0.97589 0.0
C308 C 0.23613 0.56057 1.0177 0.0
C309 C 0.15407 0.54913 0.86429 0.0
O310 O 0.27862 0.5294 0.9074 0.0
O311 O 0.23339 0.47472 0.94335 0.0
O312 O 0.23692 0.62917 0.85014 0.0
O313 O 0.27111 0.64647 0.91257 0.0
O314 O 0.19625 0.54884 0.84965 0.0
O315 O 0.15424 0.56216 0.90617 0.0
O316 O 0.13034 0.57968 0.98692 0.0
O317 O 0.1826 0.63197 0.95656 0.0
C318 C 0.27224 0.48685 0.92228 0.0
C319 C 0.14517 0.62253 0.9812 0.0
C320 C 0.59683 0.08314 0.34708 0.0
C321 C 0.5659 0.11727 0.33172 0.0
H322 H 0.64956 0.03496 0.32817 0.0
C323 C 0.55812 0.12185 0.28373 0.0
H324 H 0.60372 0.07859 0.38377 0.0
C325 C 0.58405 0.0963 0.25181 0.0
C326 C 0.61879 0.06607 0.26723 0.0
H327 H 0.53449 0.14773 0.27077 0.0
H328 H 0.57962 0.10334 0.21514 0.0
C329 C 0.62322 0.05807 0.31517 0.0
C330 C 0.45325 0.62189 0.31573 0.0
C331 C 0.44543 0.61718 0.26777 0.0
H332 H 0.43179 0.6036 0.38442 0.0
C333 C 0.4145 0.58302 0.25258 0.0
H334 H 0.47688 0.64779 0.32856 0.0
C335 C 0.38815 0.55806 0.28462 0.0
C336 C 0.39262 0.5662 0.33253 0.0
H337 H 0.40758 0.57837 0.21592 0.0
H338 H 0.36182 0.53491 0.27176 0.0
C339 C 0.42736 0.59645 0.34779 0.0
C340 C 0.91443 0.4266 0.3482 0.0
C341 C 0.94469 0.39185 0.33318 0.0
H342 H 0.86305 0.47611 0.32859 0.0
C343 C 0.95292 0.38739 0.28533 0.0
H344 H 0.90723 0.43104 0.38479 0.0
C345 C 0.92799 0.41373 0.25309 0.0
C346 C 0.89376 0.44463 0.26804 0.0
H347 H 0.97609 0.36104 0.27266 0.0
H348 H 0.93267 0.40679 0.21648 0.0
C349 C 0.88901 0.45249 0.31595 0.0
C350 C 0.12258 0.9522 0.28361 0.0
C351 C 0.11782 0.94442 0.33154 0.0
H352 H 0.10435 0.9307 0.21483 0.0
C353 C 0.08362 0.91351 0.34657 0.0
H354 H 0.14851 0.97581 0.27091 0.0
C355 C 0.0587 0.88714 0.3144 0.0
C356 C 0.0669 0.89157 0.26653 0.0
H357 H 0.07894 0.90663 0.3832 0.0
H358 H 0.03555 0.86082 0.32714 0.0
C359 C 0.09716 0.92629 0.25143 0.0
C360 C 0.4273 0.91311 0.84779 0.0
C361 C 0.39254 0.94338 0.8325 0.0
H362 H 0.47685 0.86175 0.82864 0.0
C363 C 0.38801 0.95145 0.78457 0.0
H364 H 0.43179 0.90601 0.88443 0.0
C365 C 0.41434 0.92645 0.75255 0.0
C366 C 0.44532 0.89231 0.76779 0.0
H367 H 0.36166 0.97461 0.77168 0.0
H368 H 0.40738 0.93107 0.71589 0.0
C369 C 0.45318 0.88764 0.81576 0.0
C370 C 0.59719 0.4262 0.84743 0.0
C371 C 0.56679 0.39158 0.83224 0.0
H372 H 0.64869 0.47553 0.82815 0.0
C373 C 0.55862 0.3871 0.78432 0.0
H374 H 0.60436 0.43065 0.88407 0.0
C375 C 0.58367 0.41331 0.75223 0.0
C376 C 0.61794 0.44414 0.76739 0.0
H377 H 0.53537 0.36084 0.7715 0.0
H378 H 0.57898 0.40638 0.71558 0.0
C379 C 0.6227 0.45198 0.81533 0.0
C380 C 0.09678 0.58289 0.75141 0.0
C381 C 0.06652 0.61763 0.76647 0.0
H382 H 0.14816 0.53336 0.77095 0.0
C383 C 0.05831 0.62206 0.81432 0.0
H384 H 0.10394 0.57846 0.71481 0.0
C385 C 0.08327 0.5957 0.84653 0.0
C386 C 0.1175 0.56481 0.83155 0.0
H387 H 0.03515 0.6484 0.82702 0.0
H388 H 0.07861 0.60262 0.88315 0.0
C389 C 0.12221 0.55698 0.78363 0.0
C390 C 0.88818 0.05788 0.81557 0.0
C391 C 0.8927 0.06601 0.76769 0.0
H392 H 0.90741 0.07831 0.88439 0.0
C393 C 0.92736 0.09638 0.75265 0.0
H394 H 0.8619 0.03466 0.82827 0.0
C395 C 0.95311 0.12193 0.78487 0.0
C396 C 0.94521 0.11722 0.83277 0.0
H397 H 0.93185 0.10352 0.71604 0.0
H398 H 0.97667 0.14791 0.77217 0.0
C399 C 0.91438 0.08296 0.84778 0.0
C400 C 0.39245 0.06955 0.40838 0.0
C401 C 0.39831 0.09482 0.44957 0.0
H402 H 0.34767 0.02713 0.36742 0.0
C403 C 0.36117 0.09912 0.48021 0.0
H404 H 0.42052 0.06601 0.38394 0.0
C405 C 0.31888 0.07819 0.46984 0.0
C406 C 0.31342 0.05187 0.42915 0.0
H407 H 0.36466 0.11893 0.51185 0.0
H408 H 0.29108 0.08103 0.49467 0.0
C409 C 0.35066 0.04777 0.39858 0.0
C410 C 0.44105 0.39219 0.40811 0.0
C411 C 0.41565 0.39778 0.44919 0.0
H412 H 0.48329 0.34758 0.36704 0.0
C413 C 0.41081 0.3603 0.47942 0.0
H414 H 0.44497 0.42051 0.38397 0.0
C415 C 0.43142 0.318 0.46882 0.0
C416 C 0.45794 0.31282 0.42828 0.0
H417 H 0.39086 0.36357 0.51095 0.0
H418 H 0.42822 0.28997 0.49339 0.0
C419 C 0.46249 0.35035 0.39806 0.0
C420 C 0.15074 0.40945 0.47976 0.0
C421 C 0.11291 0.41469 0.44988 0.0
H422 H 0.22129 0.42675 0.49334 0.0
C423 C 0.11804 0.44057 0.40898 0.0
H424 H 0.1478 0.38912 0.51112 0.0
C425 C 0.15979 0.46214 0.39883 0.0
C426 C 0.19767 0.45724 0.42871 0.0
H427 H 0.08943 0.44481 0.38512 0.0
H428 H 0.16221 0.48339 0.36802 0.0
C429 C 0.19297 0.43019 0.46901 0.0
C430 C 0.07045 0.11784 0.40898 0.0
C431 C 0.09586 0.11187 0.45017 0.0
H432 H 0.02798 0.16274 0.36816 0.0
C433 C 0.10059 0.149 0.48082 0.0
H434 H 0.06659 0.08979 0.38453 0.0
C435 C 0.07983 0.19137 0.47051 0.0
C436 C 0.05329 0.19688 0.42987 0.0
H437 H 0.12054 0.14541 0.51245 0.0
H438 H 0.08286 0.21914 0.49538 0.0
C439 C 0.04886 0.15969 0.39925 0.0
C440 C 0.89351 0.94036 0.19042 0.0
C441 C 0.89877 0.91465 0.14946 0.0
H442 H 0.84925 0.9831 0.23134 0.0
C443 C 0.86106 0.90972 0.11937 0.0
H444 H 0.92201 0.94437 0.21444 0.0
C445 C 0.81883 0.93055 0.13 0.0
C446 C 0.814 0.95738 0.17039 0.0
H447 H 0.8641 0.88954 0.08795 0.0
H448 H 0.79061 0.92731 0.10554 0.0
C449 C 0.85177 0.96202 0.20046 0.0
C450 C 0.5492 0.84997 0.20167 0.0
C451 C 0.55357 0.81258 0.1713 0.0
H452 H 0.5669 0.92001 0.21599 0.0
C453 C 0.57996 0.81791 0.13069 0.0
H454 H 0.52849 0.84708 0.23275 0.0
C455 C 0.6006 0.86023 0.12017 0.0
C456 C 0.59595 0.89756 0.15056 0.0
H457 H 0.58301 0.79001 0.10599 0.0
H458 H 0.62042 0.86362 0.08857 0.0
C459 C 0.57069 0.89181 0.19172 0.0
C460 C 0.65048 0.59939 0.11996 0.0
C461 C 0.61318 0.59474 0.15035 0.0
H462 H 0.72072 0.58168 0.10583 0.0
C463 C 0.61894 0.56934 0.19151 0.0
H464 H 0.64706 0.61933 0.08836 0.0
C465 C 0.66079 0.54772 0.2015 0.0
C466 C 0.69817 0.55211 0.17114 0.0
H467 H 0.59074 0.56555 0.21577 0.0
H468 H 0.6637 0.52693 0.23259 0.0
C469 C 0.69281 0.57861 0.1305 0.0
C470 C 0.96312 0.65929 0.20001 0.0
C471 C 0.9584 0.69667 0.16961 0.0
H472 H 0.94559 0.58929 0.21451 0.0
C473 C 0.93153 0.69142 0.12916 0.0
H474 H 0.98423 0.66213 0.23095 0.0
C475 C 0.91072 0.64913 0.11882 0.0
C476 C 0.91575 0.6118 0.14924 0.0
H477 H 0.92826 0.71936 0.10447 0.0
H478 H 0.89049 0.64575 0.08736 0.0
C479 C 0.9415 0.6175 0.19023 0.0
C480 C 0.66018 0.96208 0.70084 0.0
C481 C 0.69758 0.95763 0.67053 0.0
H482 H 0.59021 0.94412 0.71523 0.0
C483 C 0.69238 0.9309 0.63009 0.0
H484 H 0.66299 0.98309 0.73176 0.0
C485 C 0.65012 0.90993 0.61968 0.0
C486 C 0.61279 0.91464 0.65003 0.0
H487 H 0.72033 0.92784 0.60546 0.0
H488 H 0.64678 0.88982 0.58822 0.0
C489 C 0.61843 0.94028 0.69101 0.0
C490 C 0.5708 0.61757 0.69174 0.0
C491 C 0.59574 0.61183 0.65039 0.0
H492 H 0.52893 0.66229 0.73308 0.0
C493 C 0.60012 0.64914 0.6199 0.0
H494 H 0.56723 0.58937 0.71608 0.0
C495 C 0.57955 0.69146 0.63054 0.0
C496 C 0.55352 0.69679 0.67138 0.0
H497 H 0.6197 0.64574 0.58814 0.0
H498 H 0.58238 0.71937 0.60578 0.0
C499 C 0.54939 0.65941 0.70183 0.0
C500 C 0.89293 0.56959 0.69126 0.0
C501 C 0.89833 0.595 0.65009 0.0
H502 H 0.84854 0.52715 0.73242 0.0
C503 C 0.86073 0.59965 0.61981 0.0
H504 H 0.92134 0.56579 0.71544 0.0
C505 C 0.8185 0.57888 0.63045 0.0
C506 C 0.8135 0.55235 0.67108 0.0
H507 H 0.86386 0.61959 0.5882 0.0
H508 H 0.79038 0.58196 0.60584 0.0
C509 C 0.85116 0.54796 0.70134 0.0
C510 C 0.91035 0.86067 0.61942 0.0
C511 C 0.91546 0.89794 0.64984 0.0
H512 H 0.92785 0.79047 0.60494 0.0
C513 C 0.94132 0.89214 0.69076 0.0
H514 H 0.89005 0.86413 0.588 0.0
C515 C 0.963 0.8503 0.70042 0.0
C516 C 0.95821 0.81298 0.66999 0.0
H517 H 0.94547 0.92029 0.71503 0.0
H518 H 0.98422 0.84737 0.73128 0.0
C519 C 0.9312 0.81834 0.62965 0.0
C520 C 0.11803 0.06971 0.90896 0.0
C521 C 0.11263 0.095 0.95017 0.0
H522 H 0.16237 0.0273 0.86779 0.0
C523 C 0.15019 0.09952 0.9805 0.0
H524 H 0.08963 0.06602 0.88476 0.0
C525 C 0.19243 0.07872 0.96983 0.0
C526 C 0.19739 0.05234 0.92915 0.0
H527 H 0.14705 0.11937 1.01213 0.0
H528 H 0.22055 0.08162 0.99445 0.0
C529 C 0.15976 0.04806 0.89888 0.0
C530 C 0.41026 0.14929 0.97919 0.0
C531 C 0.41528 0.1118 0.94905 0.0
H532 H 0.4277 0.21961 0.99315 0.0
C533 C 0.44087 0.11735 0.90809 0.0
H534 H 0.39016 0.14603 1.01062 0.0
C535 C 0.46239 0.15915 0.89812 0.0
C536 C 0.45771 0.19668 0.92827 0.0
H537 H 0.44494 0.08902 0.88403 0.0
H538 H 0.48345 0.16188 0.86726 0.0
C539 C 0.43094 0.19158 0.96864 0.0
C540 C 0.39275 0.44049 0.90789 0.0
C541 C 0.39842 0.41478 0.94886 0.0
H542 H 0.34806 0.48322 0.86705 0.0
C543 C 0.36103 0.4099 0.97912 0.0
H544 H 0.421 0.44446 0.88373 0.0
C545 C 0.31872 0.43076 0.96866 0.0
C546 C 0.31346 0.45759 0.92824 0.0
H547 H 0.36437 0.38972 1.01057 0.0
H548 H 0.29077 0.42749 0.99324 0.0
C549 C 0.35091 0.46219 0.89799 0.0
C550 C 0.07051 0.3917 0.90868 0.0
C551 C 0.09573 0.39769 0.94998 0.0
H552 H 0.02822 0.34682 0.86773 0.0
C553 C 0.10011 0.36063 0.98083 0.0
H554 H 0.06692 0.41968 0.88407 0.0
C555 C 0.07927 0.31832 0.97058 0.0
C556 C 0.05298 0.31275 0.92977 0.0
H557 H 0.11988 0.36422 1.01256 0.0
H558 H 0.08213 0.29061 0.99557 0.0
C559 C 0.04884 0.34989 0.89897 0.0
C560 C 0.72686 0.21737 0.35114 0.0
C561 C 0.70757 0.2612 0.35827 0.0
H562 H 0.78864 0.17678 0.35273 0.0
C563 C 0.73589 0.29934 0.36507 0.0
H564 H 0.7051 0.18736 0.34685 0.0
C565 C 0.78331 0.29331 0.3671 0.0
C566 C 0.80223 0.24897 0.36384 0.0
H567 H 0.72131 0.33303 0.37161 0.0
H568 H 0.805 0.32276 0.37461 0.0
C569 C 0.77423 0.2111 0.35482 0.0
C570 C 0.29375 0.7269 0.36637 0.0
C571 C 0.24935 0.70803 0.363 0.0
H572 H 0.33352 0.78879 0.37128 0.0
C573 C 0.21138 0.73605 0.35416 0.0
H574 H 0.32328 0.70521 0.37376 0.0
C575 C 0.21762 0.78337 0.35079 0.0
C576 C 0.26152 0.80259 0.35806 0.0
H577 H 0.17701 0.72168 0.352 0.0
H578 H 0.18754 0.80512 0.34665 0.0
C579 C 0.29976 0.77426 0.36466 0.0
C580 C 0.27555 0.79909 0.23471 0.0
C581 C 0.30397 0.76094 0.24123 0.0
H582 H 0.20636 0.82248 0.22562 0.0
C583 C 0.2848 0.71707 0.24839 0.0
H584 H 0.29004 0.83282 0.22818 0.0
C585 C 0.23742 0.71077 0.24496 0.0
C586 C 0.20931 0.74865 0.23619 0.0
H587 H 0.30663 0.68706 0.25247 0.0
H588 H 0.22309 0.67642 0.24701 0.0
C589 C 0.22813 0.79303 0.23296 0.0
C590 C 0.71183 0.27439 0.23484 0.0
C591 C 0.7501 0.30256 0.24176 0.0
H592 H 0.68818 0.20546 0.22537 0.0
C593 C 0.79391 0.28314 0.24924 0.0
H594 H 0.67815 0.28907 0.22808 0.0
C595 C 0.80004 0.23582 0.24574 0.0
C596 C 0.76205 0.20798 0.23655 0.0
H597 H 0.82402 0.30476 0.25366 0.0
H598 H 0.83436 0.22132 0.24808 0.0
C599 C 0.71772 0.22702 0.23299 0.0
C600 C 0.22814 0.7161 0.7325 0.0
C601 C 0.20922 0.76043 0.73591 0.0
H602 H 0.29013 0.67638 0.72786 0.0
C603 C 0.23723 0.79827 0.74504 0.0
H604 H 0.20644 0.68668 0.7249 0.0
C605 C 0.2846 0.79198 0.74872 0.0
C606 C 0.30389 0.74817 0.74145 0.0
H607 H 0.22283 0.83259 0.74726 0.0
H608 H 0.30635 0.82198 0.75311 0.0
C609 C 0.27555 0.71005 0.73451 0.0
C610 C 0.79424 0.22706 0.73305 0.0
C611 C 0.74984 0.20825 0.73653 0.0
H612 H 0.83406 0.28889 0.72806 0.0
C613 C 0.712 0.23631 0.74551 0.0
H614 H 0.82366 0.20533 0.72555 0.0
C615 C 0.71835 0.28361 0.74894 0.0
C616 C 0.76222 0.30278 0.74156 0.0
H617 H 0.67762 0.22199 0.74777 0.0
H618 H 0.68835 0.30539 0.75322 0.0
C619 C 0.80034 0.2744 0.73479 0.0
C620 C 0.78414 0.21733 0.85107 0.0
C621 C 0.80328 0.26118 0.85854 0.0
H622 H 0.72252 0.17656 0.85213 0.0
C623 C 0.77483 0.29921 0.86537 0.0
H624 H 0.806 0.18741 0.84675 0.0
C625 C 0.72744 0.29304 0.8671 0.0
C626 C 0.70867 0.24867 0.86352 0.0
H627 H 0.7893 0.33291 0.87217 0.0
H628 H 0.70565 0.32239 0.87466 0.0
C629 C 0.7368 0.21091 0.85447 0.0
C630 C 0.21113 0.77383 0.8539 0.0
C631 C 0.24909 0.80168 0.86315 0.0
H632 H 0.1872 0.70489 0.8458 0.0
C633 C 0.29343 0.78266 0.86673 0.0
H634 H 0.1768 0.78831 0.85155 0.0
C635 C 0.29936 0.7353 0.86477 0.0
C636 C 0.26112 0.70711 0.85773 0.0
H637 H 0.32295 0.80422 0.87442 0.0
H638 H 0.33305 0.72064 0.87152 0.0
C639 C 0.2173 0.72652 0.85029 0.0
C640 C 0.65411 0.09384 0.54467 0.0
C641 C 0.66194 0.12008 0.50453 0.0
H642 H 0.68382 0.05491 0.60036 0.0
C643 C 0.70749 0.12479 0.48838 0.0
H644 H 0.61959 0.08975 0.55822 0.0
C645 C 0.74438 0.10404 0.51214 0.0
C646 C 0.73652 0.07913 0.5531 0.0
H647 H 0.7147 0.14476 0.45748 0.0
H648 H 0.7791 0.10863 0.49929 0.0
C649 C 0.691 0.07408 0.56895 0.0
C650 C 0.40696 0.74291 0.51325 0.0
C651 C 0.43132 0.73516 0.55467 0.0
H652 H 0.36681 0.71325 0.45822 0.0
C653 C 0.43598 0.68974 0.571 0.0
H654 H 0.4027 0.77753 0.49998 0.0
C655 C 0.41637 0.65286 0.5467 0.0
C656 C 0.39069 0.66063 0.50606 0.0
H657 H 0.45473 0.68265 0.60278 0.0
H658 H 0.4201 0.61842 0.5606 0.0
C659 C 0.38637 0.70608 0.48947 0.0
C660 C 0.85751 0.41564 0.54697 0.0
C661 C 0.84979 0.39009 0.50635 0.0
H662 H 0.8276 0.45386 0.60286 0.0
C663 C 0.80431 0.38592 0.48955 0.0
H664 H 0.89197 0.41925 0.56102 0.0
C665 C 0.7674 0.40649 0.51312 0.0
C666 C 0.7751 0.43069 0.55454 0.0
H667 H 0.79717 0.36646 0.4583 0.0
H668 H 0.73275 0.40232 0.49971 0.0
C669 C 0.82055 0.43524 0.57107 0.0
C670 C 0.10409 0.76589 0.51145 0.0
C671 C 0.07925 0.77373 0.5524 0.0
H672 H 0.14483 0.7955 0.45699 0.0
C673 C 0.0743 0.81919 0.5684 0.0
H674 H 0.1086 0.73121 0.49848 0.0
C675 C 0.0941 0.85602 0.54429 0.0
C676 C 0.12029 0.8482 0.50417 0.0
H677 H 0.05518 0.82637 0.5998 0.0
H678 H 0.0901 0.89048 0.55797 0.0
C679 C 0.12489 0.8027 0.48786 0.0
C680 C 0.2443 0.90662 0.08729 0.0
C681 C 0.23644 0.9314 1.04622 0.0
H682 H 0.21468 0.86589 0.14171 0.0
C683 C 0.19093 0.93636 1.02999 0.0
H684 H 0.27901 0.90212 0.10044 0.0
C685 C 0.15405 0.91654 0.05398 0.0
C686 C 0.1619 0.89034 0.09419 0.0
H687 H 0.18376 0.95545 0.99848 0.0
H688 H 0.11954 0.92047 1.04012 0.0
C689 C 0.20744 0.88583 0.11076 0.0
C690 C 0.62425 0.20615 0.11113 0.0
C691 C 0.61972 0.16069 0.09471 0.0
H692 H 0.60796 0.27765 0.10053 0.0
C693 C 0.59346 0.15289 0.05447 0.0
H694 H 0.64423 0.21334 0.1421 0.0
C695 C 0.57361 0.18976 1.03031 0.0
C696 C 0.5786 0.2352 1.04639 0.0
H697 H 0.58952 0.11844 1.04072 0.0
H698 H 0.55449 0.18264 0.99878 0.0
C699 C 0.60343 0.24299 0.08749 0.0
C700 C 0.26719 0.60434 0.08632 0.0
C701 C 0.27493 0.58002 1.045 0.0
H702 H 0.29691 0.64436 0.1414 0.0
C703 C 0.32041 0.57549 1.02883 0.0
H704 H 0.23252 0.60852 0.09947 0.0
C705 C 0.35733 0.59505 0.05323 0.0
C706 C 0.34959 0.6206 0.09382 0.0
H707 H 0.32752 0.5568 0.99713 0.0
H708 H 0.39181 0.59133 1.03948 0.0
C709 C 0.30407 0.62491 0.11019 0.0
C710 C 0.916 0.35616 0.05414 0.0
C711 C 0.89033 0.34841 0.09463 0.0
H712 H 0.95428 0.3264 0.99824 0.0
C713 C 0.8859 0.30294 0.11108 0.0
H714 H 0.91983 0.39062 1.04034 0.0
C715 C 0.90641 0.26609 0.08734 0.0
C716 C 0.9308 0.27386 1.0461 0.0
H717 H 0.86635 0.29578 0.14223 0.0
H718 H 0.9021 0.23145 0.10051 0.0
C719 C 0.93552 0.31929 1.02988 0.0
C720 C 0.30374 0.88388 0.61034 0.0
C721 C 0.34926 0.88844 0.59406 0.0
H722 H 0.23215 0.90006 0.59952 0.0
C723 C 0.35699 0.91419 0.55356 0.0
H724 H 0.29661 0.86427 0.64148 0.0
C725 C 0.32004 0.93374 0.52916 0.0
C726 C 0.27457 0.92896 0.54525 0.0
H727 H 0.39148 0.9181 0.5399 0.0
H728 H 0.32713 0.95261 0.49755 0.0
C729 C 0.26682 0.90442 0.58646 0.0
C730 C 0.5958 0.35633 0.55297 0.0
C731 C 0.62157 0.34852 0.59356 0.0
H732 H 0.55731 0.32664 0.49691 0.0
C733 C 0.62609 0.30302 0.60994 0.0
H734 H 0.5919 0.3908 0.53921 0.0
C735 C 0.60549 0.26621 0.58609 0.0
C736 C 0.58092 0.27402 0.54479 0.0
H737 H 0.64572 0.29581 0.64115 0.0
H738 H 0.60983 0.23156 0.59925 0.0
C739 C 0.57619 0.31948 0.52859 0.0
C740 C 0.19072 0.57359 0.52947 0.0
C741 C 0.23619 0.57828 0.54591 0.0
H742 H 0.11931 0.58963 0.53943 0.0
C743 C 0.24392 0.60275 0.58715 0.0
H744 H 0.18364 0.55475 0.49781 0.0
C745 C 0.20701 0.62348 0.6106 0.0
C746 C 0.16152 0.61921 0.59385 0.0
H747 H 0.27858 0.60704 0.60049 0.0
H748 H 0.21417 0.64316 0.6417 0.0
C749 C 0.15377 0.59335 0.55344 0.0
C750 C 0.91722 0.15338 0.5548 0.0
C751 C 0.89118 0.16111 0.59502 0.0
H752 H 0.95599 0.18322 0.49928 0.0
C753 C 0.88677 0.20653 0.61159 0.0
H754 H 0.92104 0.11897 0.54094 0.0
C755 C 0.90755 0.24339 0.58812 0.0
C756 C 0.93218 0.23567 0.54704 0.0
H757 H 0.86696 0.21365 0.64255 0.0
H758 H 0.90316 0.27801 0.60128 0.0
C759 C 0.93701 0.19028 0.5308 0.0
C760 C 0.85693 0.09401 1.04568 0.0
C761 C 0.84905 0.12021 1.00546 0.0
H762 H 0.82731 0.05505 0.10121 0.0
C763 C 0.80347 0.12488 0.98906 0.0
H764 H 0.89146 0.08997 0.05943 0.0
C765 C 0.76663 0.10408 1.01262 0.0
C766 C 0.77453 0.07916 0.05362 0.0
H767 H 0.79621 0.14482 0.95812 0.0
H768 H 0.7319 0.10861 0.99953 0.0
C769 C 0.82008 0.07421 0.06975 0.0
C770 C 0.38626 0.80337 0.9894 0.0
C771 C 0.39061 0.84879 1.00597 0.0
H772 H 0.40258 0.73189 0.99989 0.0
C773 C 0.41636 0.85648 1.04657 0.0
H774 H 0.36665 0.79626 0.95818 0.0
C775 C 0.43599 0.81955 0.07085 0.0
C776 C 0.43129 0.77417 0.05452 0.0
H777 H 0.42011 0.8909 0.06045 0.0
H778 H 0.45479 0.82658 0.10259 0.0
C779 C 0.40687 0.76649 1.01315 0.0
C780 C 0.7439 0.40548 1.01337 0.0
C781 C 0.73627 0.42969 0.05475 0.0
H782 H 0.71406 0.36553 0.95837 0.0
C783 C 0.69085 0.43421 0.07111 0.0
H784 H 0.77852 0.40134 1.00009 0.0
C785 C 0.65386 0.41465 1.04682 0.0
C786 C 0.66151 0.38915 1.00619 0.0
H787 H 0.68386 0.45284 0.10286 0.0
H788 H 0.61941 0.41827 0.0607 0.0
C789 C 0.70696 0.38495 0.98962 0.0
C790 C 0.07507 0.69026 0.06872 0.0
C791 C 0.08 0.73572 0.05264 0.0
H792 H 0.09076 0.61894 0.05832 0.0
C793 C 0.10474 0.74353 1.01161 0.0
H794 H 0.05603 0.68312 0.10019 0.0
C795 C 0.12541 0.70668 0.988 0.0
C796 C 0.1208 0.66119 1.00437 0.0
H797 H 0.10922 0.77819 0.99856 0.0
H798 H 0.14524 0.71386 0.95704 0.0
C799 C 0.09475 0.65341 1.0446 0.0
loop_
_geom_bond_atom_site_label_1
_geom_bond_atom_site_label_2
_geom_bond_distance
_geom_bond_site_symmetry_2
_ccdc_geom_bond_type
Dy0 O4 2.398 . S
Dy0 O5 2.491 . S
Dy0 O6 2.403 . S
Dy0 O7 2.664 . S
Dy0 O11 2.326 . S
Dy0 O15 2.310 . S
Dy0 O16 2.351 . S
C1 O12 1.185 . S
C1 O13 1.355 . S
C2 O4 1.185 . S
C2 O5 1.355 . S
Dy3 O7 2.310 . S
Dy3 O10 2.351 . S
Dy3 O12 2.398 . S
Dy3 O13 2.491 . S
Dy3 O14 2.403 . S
Dy3 O15 2.664 . S
Dy3 O17 2.326 . S
O4 Dy0 2.398 . S
O4 C2 1.185 . S
O5 Dy0 2.491 . S
O5 C2 1.355 . S
O6 Dy0 2.403 . S
O6 C8 1.254 . S
O7 Dy0 2.664 . S
O7 Dy3 2.310 . S
O7 C8 1.268 . S
C8 O6 1.254 . S
C8 O7 1.268 . S
C9 O14 1.254 . S
C9 O15 1.268 . S
O10 Dy3 2.351 . S
O10 C18 1.249 . S
O11 Dy0 2.326 . S
O11 C18 1.267 . S
O12 C1 1.185 . S
O12 Dy3 2.398 . S
O13 C1 1.355 . S
O13 Dy3 2.491 . S
O14 Dy3 2.403 . S
O14 C9 1.254 . S
O15 Dy0 2.310 . S
O15 Dy3 2.664 . S
O15 C9 1.268 . S
O16 Dy0 2.351 . S
O16 C19 1.249 . S
O17 Dy3 2.326 . S
O17 C19 1.267 . S
C18 O10 1.249 . S
C18 O11 1.267 . S
C19 O16 1.249 . S
C19 O17 1.267 . S
Dy20 O24 2.398 . S
Dy20 O25 2.491 . S
Dy20 O26 2.403 . S
Dy20 O27 2.664 . S
Dy20 O31 2.326 . S
Dy20 O35 2.310 . S
Dy20 O36 2.351 . S
C21 O32 1.185 . S
C21 O33 1.355 . S
C22 O24 1.185 . S
C22 O25 1.355 . S
Dy23 O27 2.310 . S
Dy23 O30 2.351 . S
Dy23 O32 2.398 . S
Dy23 O33 2.491 . S
Dy23 O34 2.403 . S
Dy23 O35 2.664 . S
Dy23 O37 2.326 . S
O24 Dy20 2.398 . S
O24 C22 1.185 . S
O25 Dy20 2.491 . S
O25 C22 1.355 . S
O26 Dy20 2.403 . S
O26 C28 1.254 . S
O27 Dy20 2.664 . S
O27 Dy23 2.310 . S
O27 C28 1.268 . S
C28 O26 1.254 . S
C28 O27 1.268 . S
C29 O34 1.254 . S
C29 O35 1.268 . S
O30 Dy23 2.351 . S
O30 C38 1.249 . S
O31 Dy20 2.326 . S
O31 C38 1.267 . S
O32 C21 1.185 . S
O32 Dy23 2.398 . S
O33 C21 1.355 . S
O33 Dy23 2.491 . S
O34 Dy23 2.403 . S
O34 C29 1.254 . S
O35 Dy20 2.310 . S
O35 Dy23 2.664 . S
O35 C29 1.268 . S
O36 Dy20 2.351 . S
O36 C39 1.249 . S
O37 Dy23 2.326 . S
O37 C39 1.267 . S
C38 O30 1.249 . S
C38 O31 1.267 . S
C39 O36 1.249 . S
C39 O37 1.267 . S
Dy40 O44 2.398 . S
Dy40 O45 2.491 . S
Dy40 O46 2.403 . S
Dy40 O47 2.664 . S
Dy40 O51 2.326 . S
Dy40 O55 2.310 . S
Dy40 O56 2.351 . S
C41 O52 1.185 . S
C41 O53 1.355 . S
C42 O44 1.185 . S
C42 O45 1.355 . S
Dy43 O47 2.310 . S
Dy43 O50 2.351 . S
Dy43 O52 2.398 1_655 S
Dy43 O53 2.491 1_655 S
Dy43 O54 2.403 . S
Dy43 O55 2.664 . S
Dy43 O57 2.326 1_655 S
O44 Dy40 2.398 . S
O44 C42 1.185 . S
O45 Dy40 2.491 . S
O45 C42 1.355 . S
O46 Dy40 2.403 . S
O46 C48 1.254 . S
O47 Dy40 2.664 . S
O47 Dy43 2.310 . S
O47 C48 1.268 . S
C48 O46 1.254 . S
C48 O47 1.268 . S
C49 O54 1.254 . S
C49 O55 1.268 . S
O50 Dy43 2.351 . S
O50 C58 1.249 . S
O51 Dy40 2.326 . S
O51 C58 1.267 . S
O52 C41 1.185 . S
O52 Dy43 2.398 1_455 S
O53 C41 1.355 . S
O53 Dy43 2.491 1_455 S
O54 Dy43 2.403 . S
O54 C49 1.254 . S
O55 Dy40 2.310 . S
O55 Dy43 2.664 . S
O55 C49 1.268 . S
O56 Dy40 2.351 . S
O56 C59 1.249 1_655 S
O57 Dy43 2.326 1_455 S
O57 C59 1.267 . S
C58 O50 1.249 . S
C58 O51 1.267 . S
C59 O56 1.249 1_455 S
C59 O57 1.267 . S
Dy60 O64 2.398 . S
Dy60 O65 2.491 . S
Dy60 O66 2.403 . S
Dy60 O67 2.664 . S
Dy60 O71 2.326 . S
Dy60 O75 2.310 . S
Dy60 O76 2.351 . S
C61 O72 1.185 . S
C61 O73 1.355 . S
C62 O64 1.185 . S
C62 O65 1.355 . S
Dy63 O67 2.310 . S
Dy63 O70 2.351 . S
Dy63 O72 2.398 1_565 S
Dy63 O73 2.491 1_565 S
Dy63 O74 2.403 . S
Dy63 O75 2.664 . S
Dy63 O77 2.326 1_565 S
O64 Dy60 2.398 . S
O64 C62 1.185 . S
O65 Dy60 2.491 . S
O65 C62 1.355 . S
O66 Dy60 2.403 . S
O66 C68 1.254 . S
O67 Dy60 2.664 . S
O67 Dy63 2.310 . S
O67 C68 1.268 . S
C68 O66 1.254 . S
C68 O67 1.268 . S
C69 O74 1.254 . S
C69 O75 1.268 . S
O70 Dy63 2.351 . S
O70 C78 1.249 . S
O71 Dy60 2.326 . S
O71 C78 1.267 . S
O72 C61 1.185 . S
O72 Dy63 2.398 1_545 S
O73 C61 1.355 . S
O73 Dy63 2.491 1_545 S
O74 Dy63 2.403 . S
O74 C69 1.254 . S
O75 Dy60 2.310 . S
O75 Dy63 2.664 . S
O75 C69 1.268 . S
O76 Dy60 2.351 . S
O76 C79 1.249 1_565 S
O77 Dy63 2.326 1_545 S
O77 C79 1.267 . S
C78 O70 1.249 . S
C78 O71 1.267 . S
C79 O76 1.249 1_545 S
C79 O77 1.267 . S
Dy80 O84 2.398 . S
Dy80 O85 2.491 . S
Dy80 O86 2.403 . S
Dy80 O87 2.664 . S
Dy80 O91 2.326 . S
Dy80 O95 2.310 . S
Dy80 O96 2.351 . S
C81 O92 1.185 . S
C81 O93 1.355 . S
C82 O84 1.185 . S
C82 O85 1.355 . S
Dy83 O87 2.310 . S
Dy83 O90 2.351 . S
Dy83 O92 2.398 1_455 S
Dy83 O93 2.491 1_455 S
Dy83 O94 2.403 . S
Dy83 O95 2.664 . S
Dy83 O97 2.326 1_455 S
O84 Dy80 2.398 . S
O84 C82 1.185 . S
O85 Dy80 2.491 . S
O85 C82 1.355 . S
O86 Dy80 2.403 . S
O86 C88 1.254 . S
O87 Dy80 2.664 . S
O87 Dy83 2.310 . S
O87 C88 1.268 . S
C88 O86 1.254 . S
C88 O87 1.268 . S
C89 O94 1.254 . S
C89 O95 1.268 . S
O90 Dy83 2.351 . S
O90 C98 1.249 . S
O91 Dy80 2.326 . S
O91 C98 1.267 . S
O92 C81 1.185 . S
O92 Dy83 2.398 1_655 S
O93 C81 1.355 . S
O93 Dy83 2.491 1_655 S
O94 Dy83 2.403 . S
O94 C89 1.254 . S
O95 Dy80 2.310 . S
O95 Dy83 2.664 . S
O95 C89 1.268 . S
O96 Dy80 2.351 . S
O96 C99 1.249 1_455 S
O97 Dy83 2.326 1_655 S
O97 C99 1.267 . S
C98 O90 1.249 . S
C98 O91 1.267 . S
C99 O96 1.249 1_655 S
C99 O97 1.267 . S
Dy100 O104 2.398 . S
Dy100 O105 2.491 . S
Dy100 O106 2.403 . S
Dy100 O107 2.664 . S
Dy100 O111 2.326 . S
Dy100 O115 2.310 . S
Dy100 O116 2.351 . S
C101 O112 1.185 . S
C101 O113 1.355 . S
C102 O104 1.185 . S
C102 O105 1.355 . S
Dy103 O107 2.310 . S
Dy103 O110 2.351 . S
Dy103 O112 2.398 1_545 S
Dy103 O113 2.491 1_545 S
Dy103 O114 2.403 . S
Dy103 O115 2.664 . S
Dy103 O117 2.326 1_545 S
O104 Dy100 2.398 . S
O104 C102 1.185 . S
O105 Dy100 2.491 . S
O105 C102 1.355 . S
O106 Dy100 2.403 . S
O106 C108 1.254 . S
O107 Dy100 2.664 . S
O107 Dy103 2.310 . S
O107 C108 1.268 . S
C108 O106 1.254 . S
C108 O107 1.268 . S
C109 O114 1.254 . S
C109 O115 1.268 . S
O110 Dy103 2.351 . S
O110 C118 1.249 . S
O111 Dy100 2.326 . S
O111 C118 1.267 . S
O112 C101 1.185 . S
O112 Dy103 2.398 1_565 S
O113 C101 1.355 . S
O113 Dy103 2.491 1_565 S
O114 Dy103 2.403 . S
O114 C109 1.254 . S
O115 Dy100 2.310 . S
O115 Dy103 2.664 . S
O115 C109 1.268 . S
O116 Dy100 2.351 . S
O116 C119 1.249 1_545 S
O117 Dy103 2.326 1_565 S
O117 C119 1.267 . S
C118 O110 1.249 . S
C118 O111 1.267 . S
C119 O116 1.249 1_565 S
C119 O117 1.267 . S
Dy120 O124 2.398 . S
Dy120 O125 2.491 . S
Dy120 O126 2.403 . S
Dy120 O127 2.664 . S
Dy120 O131 2.326 . S
Dy120 O135 2.310 . S
Dy120 O136 2.351 . S
C121 O132 1.185 . S
C121 O133 1.355 . S
C122 O124 1.185 . S
C122 O125 1.355 . S
Dy123 O127 2.310 . S
Dy123 O130 2.351 . S
Dy123 O132 2.398 . S
Dy123 O133 2.491 . S
Dy123 O134 2.403 . S
Dy123 O135 2.664 . S
Dy123 O137 2.326 . S
O124 Dy120 2.398 . S
O124 C122 1.185 . S
O125 Dy120 2.491 . S
O125 C122 1.355 . S
O126 Dy120 2.403 . S
O126 C128 1.254 . S
O127 Dy120 2.664 . S
O127 Dy123 2.310 . S
O127 C128 1.268 . S
C128 O126 1.254 . S
C128 O127 1.268 . S
C129 O134 1.254 . S
C129 O135 1.268 . S
O130 Dy123 2.351 . S
O130 C138 1.249 . S
O131 Dy120 2.326 . S
O131 C138 1.267 . S
O132 C121 1.185 . S
O132 Dy123 2.398 . S
O133 C121 1.355 . S
O133 Dy123 2.491 . S
O134 Dy123 2.403 . S
O134 C129 1.254 . S
O135 Dy120 2.310 . S
O135 Dy123 2.664 . S
O135 C129 1.268 . S
O136 Dy120 2.351 . S
O136 C139 1.249 . S
O137 Dy123 2.326 . S
O137 C139 1.267 . S
C138 O130 1.249 . S
C138 O131 1.267 . S
C139 O136 1.249 . S
C139 O137 1.267 . S
Dy140 O144 2.398 . S
Dy140 O145 2.491 . S
Dy140 O146 2.403 . S
Dy140 O147 2.664 . S
Dy140 O151 2.326 . S
Dy140 O155 2.310 . S
Dy140 O156 2.351 . S
C141 O152 1.185 . S
C141 O153 1.355 . S
C142 O144 1.185 . S
C142 O145 1.355 . S
Dy143 O147 2.310 . S
Dy143 O150 2.351 . S
Dy143 O152 2.398 . S
Dy143 O153 2.491 . S
Dy143 O154 2.403 . S
Dy143 O155 2.664 . S
Dy143 O157 2.326 . S
O144 Dy140 2.398 . S
O144 C142 1.185 . S
O145 Dy140 2.491 . S
O145 C142 1.355 . S
O146 Dy140 2.403 . S
O146 C148 1.254 . S
O147 Dy140 2.664 . S
O147 Dy143 2.310 . S
O147 C148 1.268 . S
C148 O146 1.254 . S
C148 O147 1.268 . S
C149 O154 1.254 . S
C149 O155 1.268 . S
O150 Dy143 2.351 . S
O150 C158 1.249 . S
O151 Dy140 2.326 . S
O151 C158 1.267 . S
O152 C141 1.185 . S
O152 Dy143 2.398 . S
O153 C141 1.355 . S
O153 Dy143 2.491 . S
O154 Dy143 2.403 . S
O154 C149 1.254 . S
O155 Dy140 2.310 . S
O155 Dy143 2.664 . S
O155 C149 1.268 . S
O156 Dy140 2.351 . S
O156 C159 1.249 . S
O157 Dy143 2.326 . S
O157 C159 1.267 . S
C158 O150 1.249 . S
C158 O151 1.267 . S
C159 O156 1.249 . S
C159 O157 1.267 . S
Dy160 O164 2.398 . S
Dy160 O165 2.491 . S
Dy160 O166 2.403 . S
Dy160 O167 2.664 . S
Dy160 O171 2.326 . S
Dy160 O175 2.310 . S
Dy160 O176 2.351 . S
C161 O172 1.185 . S
C161 O173 1.355 . S
C162 O164 1.185 . S
C162 O165 1.355 . S
Dy163 O167 2.310 . S
Dy163 O170 2.351 . S
Dy163 O172 2.398 . S
Dy163 O173 2.491 . S
Dy163 O174 2.403 . S
Dy163 O175 2.664 . S
Dy163 O177 2.326 . S
O164 Dy160 2.398 . S
O164 C162 1.185 . S
O165 Dy160 2.491 . S
O165 C162 1.355 . S
O166 Dy160 2.403 . S
O166 C168 1.254 . S
O167 Dy160 2.664 . S
O167 Dy163 2.310 . S
O167 C168 1.268 . S
C168 O166 1.254 . S
C168 O167 1.268 . S
C169 O174 1.254 . S
C169 O175 1.268 . S
O170 Dy163 2.351 . S
O170 C178 1.249 . S
O171 Dy160 2.326 . S
O171 C178 1.267 . S
O172 C161 1.185 . S
O172 Dy163 2.398 . S
O173 C161 1.355 . S
O173 Dy163 2.491 . S
O174 Dy163 2.403 . S
O174 C169 1.254 . S
O175 Dy160 2.310 . S
O175 Dy163 2.664 . S
O175 C169 1.268 . S
O176 Dy160 2.351 . S
O176 C179 1.249 . S
O177 Dy163 2.326 . S
O177 C179 1.267 . S
C178 O170 1.249 . S
C178 O171 1.267 . S
C179 O176 1.249 . S
C179 O177 1.267 . S
Dy180 O184 2.398 . S
Dy180 O185 2.491 . S
Dy180 O186 2.403 . S
Dy180 O187 2.664 . S
Dy180 O191 2.326 . S
Dy180 O195 2.310 . S
Dy180 O196 2.351 . S
C181 O192 1.185 . S
C181 O193 1.355 . S
C182 O184 1.185 . S
C182 O185 1.355 . S
Dy183 O187 2.310 . S
Dy183 O190 2.351 . S
Dy183 O192 2.398 . S
Dy183 O193 2.491 . S
Dy183 O194 2.403 . S
Dy183 O195 2.664 . S
Dy183 O197 2.326 . S
O184 Dy180 2.398 . S
O184 C182 1.185 . S
O185 Dy180 2.491 . S
O185 C182 1.355 . S
O186 Dy180 2.403 . S
O186 C188 1.254 . S
O187 Dy180 2.664 . S
O187 Dy183 2.310 . S
O187 C188 1.268 . S
C188 O186 1.254 . S
C188 O187 1.268 . S
C189 O194 1.254 . S
C189 O195 1.268 . S
O190 Dy183 2.351 . S
O190 C198 1.249 . S
O191 Dy180 2.326 . S
O191 C198 1.267 . S
O192 C181 1.185 . S
O192 Dy183 2.398 . S
O193 C181 1.355 . S
O193 Dy183 2.491 . S
O194 Dy183 2.403 . S
O194 C189 1.254 . S
O195 Dy180 2.310 . S
O195 Dy183 2.664 . S
O195 C189 1.268 . S
O196 Dy180 2.351 . S
O196 C199 1.249 . S
O197 Dy183 2.326 . S
O197 C199 1.267 . S
C198 O190 1.249 . S
C198 O191 1.267 . S
C199 O196 1.249 . S
C199 O197 1.267 . S
Dy200 O204 2.398 1_455 S
Dy200 O205 2.491 1_455 S
Dy200 O206 2.403 . S
Dy200 O207 2.664 . S
Dy200 O211 2.326 1_455 S
Dy200 O215 2.310 . S
Dy200 O216 2.351 . S
C201 O212 1.185 . S
C201 O213 1.355 . S
C202 O204 1.185 . S
C202 O205 1.355 . S
Dy203 O207 2.310 . S
Dy203 O210 2.351 . S
Dy203 O212 2.398 . S
Dy203 O213 2.491 . S
Dy203 O214 2.403 . S
Dy203 O215 2.664 . S
Dy203 O217 2.326 . S
O204 Dy200 2.398 1_655 S
O204 C202 1.185 . S
O205 Dy200 2.491 1_655 S
O205 C202 1.355 . S
O206 Dy200 2.403 . S
O206 C208 1.254 . S
O207 Dy200 2.664 . S
O207 Dy203 2.310 . S
O207 C208 1.268 . S
C208 O206 1.254 . S
C208 O207 1.268 . S
C209 O214 1.254 . S
C209 O215 1.268 . S
O210 Dy203 2.351 . S
O210 C218 1.249 1_455 S
O211 Dy200 2.326 1_655 S
O211 C218 1.267 . S
O212 C201 1.185 . S
O212 Dy203 2.398 . S
O213 C201 1.355 . S
O213 Dy203 2.491 . S
O214 Dy203 2.403 . S
O214 C209 1.254 . S
O215 Dy200 2.310 . S
O215 Dy203 2.664 . S
O215 C209 1.268 . S
O216 Dy200 2.351 . S
O216 C219 1.249 . S
O217 Dy203 2.326 . S
O217 C219 1.267 . S
C218 O210 1.249 1_655 S
C218 O211 1.267 . S
C219 O216 1.249 . S
C219 O217 1.267 . S
Dy220 O224 2.398 1_545 S
Dy220 O225 2.491 1_545 S
Dy220 O226 2.403 . S
Dy220 O227 2.664 . S
Dy220 O231 2.326 1_545 S
Dy220 O235 2.310 . S
Dy220 O236 2.351 . S
C221 O232 1.185 . S
C221 O233 1.355 . S
C222 O224 1.185 . S
C222 O225 1.355 . S
Dy223 O227 2.310 . S
Dy223 O230 2.351 . S
Dy223 O232 2.398 . S
Dy223 O233 2.491 . S
Dy223 O234 2.403 . S
Dy223 O235 2.664 . S
Dy223 O237 2.326 . S
O224 Dy220 2.398 1_565 S
O224 C222 1.185 . S
O225 Dy220 2.491 1_565 S
O225 C222 1.355 . S
O226 Dy220 2.403 . S
O226 C228 1.254 . S
O227 Dy220 2.664 . S
O227 Dy223 2.310 . S
O227 C228 1.268 . S
C228 O226 1.254 . S
C228 O227 1.268 . S
C229 O234 1.254 . S
C229 O235 1.268 . S
O230 Dy223 2.351 . S
O230 C238 1.249 1_545 S
O231 Dy220 2.326 1_565 S
O231 C238 1.267 . S
O232 C221 1.185 . S
O232 Dy223 2.398 . S
O233 C221 1.355 . S
O233 Dy223 2.491 . S
O234 Dy223 2.403 . S
O234 C229 1.254 . S
O235 Dy220 2.310 . S
O235 Dy223 2.664 . S
O235 C229 1.268 . S
O236 Dy220 2.351 . S
O236 C239 1.249 . S
O237 Dy223 2.326 . S
O237 C239 1.267 . S
C238 O230 1.249 1_565 S
C238 O231 1.267 . S
C239 O236 1.249 . S
C239 O237 1.267 . S
Dy240 O244 2.398 1_655 S
Dy240 O245 2.491 1_655 S
Dy240 O246 2.403 . S
Dy240 O247 2.664 . S
Dy240 O251 2.326 1_655 S
Dy240 O255 2.310 . S
Dy240 O256 2.351 . S
C241 O252 1.185 . S
C241 O253 1.355 . S
C242 O244 1.185 . S
C242 O245 1.355 . S
Dy243 O247 2.310 . S
Dy243 O250 2.351 . S
Dy243 O252 2.398 . S
Dy243 O253 2.491 . S
Dy243 O254 2.403 . S
Dy243 O255 2.664 . S
Dy243 O257 2.326 . S
O244 Dy240 2.398 1_455 S
O244 C242 1.185 . S
O245 Dy240 2.491 1_455 S
O245 C242 1.355 . S
O246 Dy240 2.403 . S
O246 C248 1.254 . S
O247 Dy240 2.664 . S
O247 Dy243 2.310 . S
O247 C248 1.268 . S
C248 O246 1.254 . S
C248 O247 1.268 . S
C249 O254 1.254 . S
C249 O255 1.268 . S
O250 Dy243 2.351 . S
O250 C258 1.249 1_655 S
O251 Dy240 2.326 1_455 S
O251 C258 1.267 . S
O252 C241 1.185 . S
O252 Dy243 2.398 . S
O253 C241 1.355 . S
O253 Dy243 2.491 . S
O254 Dy243 2.403 . S
O254 C249 1.254 . S
O255 Dy240 2.310 . S
O255 Dy243 2.664 . S
O255 C249 1.268 . S
O256 Dy240 2.351 . S
O256 C259 1.249 . S
O257 Dy243 2.326 . S
O257 C259 1.267 . S
C258 O250 1.249 1_455 S
C258 O251 1.267 . S
C259 O256 1.249 . S
C259 O257 1.267 . S
Dy260 O264 2.398 1_565 S
Dy260 O265 2.491 1_565 S
Dy260 O266 2.403 . S
Dy260 O267 2.664 . S
Dy260 O271 2.326 1_565 S
Dy260 O275 2.310 . S
Dy260 O276 2.351 . S
C261 O272 1.185 . S
C261 O273 1.355 . S
C262 O264 1.185 . S
C262 O265 1.355 . S
Dy263 O267 2.310 . S
Dy263 O270 2.351 . S
Dy263 O272 2.398 . S
Dy263 O273 2.491 . S
Dy263 O274 2.403 . S
Dy263 O275 2.664 . S
Dy263 O277 2.326 . S
O264 Dy260 2.398 1_545 S
O264 C262 1.185 . S
O265 Dy260 2.491 1_545 S
O265 C262 1.355 . S
O266 Dy260 2.403 . S
O266 C268 1.254 . S
O267 Dy260 2.664 . S
O267 Dy263 2.310 . S
O267 C268 1.268 . S
C268 O266 1.254 . S
C268 O267 1.268 . S
C269 O274 1.254 . S
C269 O275 1.268 . S
O270 Dy263 2.351 . S
O270 C278 1.249 1_565 S
O271 Dy260 2.326 1_545 S
O271 C278 1.267 . S
O272 C261 1.185 . S
O272 Dy263 2.398 . S
O273 C261 1.355 . S
O273 Dy263 2.491 . S
O274 Dy263 2.403 . S
O274 C269 1.254 . S
O275 Dy260 2.310 . S
O275 Dy263 2.664 . S
O275 C269 1.268 . S
O276 Dy260 2.351 . S
O276 C279 1.249 . S
O277 Dy263 2.326 . S
O277 C279 1.267 . S
C278 O270 1.249 1_545 S
C278 O271 1.267 . S
C279 O276 1.249 . S
C279 O277 1.267 . S
Dy280 O284 2.398 . S
Dy280 O285 2.491 . S
Dy280 O286 2.403 . S
Dy280 O287 2.664 . S
Dy280 O291 2.326 . S
Dy280 O295 2.310 . S
Dy280 O296 2.351 . S
C281 O292 1.185 . S
C281 O293 1.355 . S
C282 O284 1.185 . S
C282 O285 1.355 . S
Dy283 O287 2.310 . S
Dy283 O290 2.351 . S
Dy283 O292 2.398 . S
Dy283 O293 2.491 . S
Dy283 O294 2.403 . S
Dy283 O295 2.664 . S
Dy283 O297 2.326 . S
O284 Dy280 2.398 . S
O284 C282 1.185 . S
O285 Dy280 2.491 . S
O285 C282 1.355 . S
O286 Dy280 2.403 . S
O286 C288 1.254 . S
O287 Dy280 2.664 . S
O287 Dy283 2.310 . S
O287 C288 1.268 . S
C288 O286 1.254 . S
C288 O287 1.268 . S
C289 O294 1.254 . S
C289 O295 1.268 . S
O290 Dy283 2.351 . S
O290 C298 1.249 . S
O291 Dy280 2.326 . S
O291 C298 1.267 . S
O292 C281 1.185 . S
O292 Dy283 2.398 . S
O293 C281 1.355 . S
O293 Dy283 2.491 . S
O294 Dy283 2.403 . S
O294 C289 1.254 . S
O295 Dy280 2.310 . S
O295 Dy283 2.664 . S
O295 C289 1.268 . S
O296 Dy280 2.351 . S
O296 C299 1.249 . S
O297 Dy283 2.326 . S
O297 C299 1.267 . S
C298 O290 1.249 . S
C298 O291 1.267 . S
C299 O296 1.249 . S
C299 O297 1.267 . S
Dy300 O304 2.398 . S
Dy300 O305 2.491 . S
Dy300 O306 2.403 . S
Dy300 O307 2.664 . S
Dy300 O311 2.326 . S
Dy300 O315 2.310 . S
Dy300 O316 2.351 . S
C301 O312 1.185 . S
C301 O313 1.355 . S
C302 O304 1.185 . S
C302 O305 1.355 . S
Dy303 O307 2.310 . S
Dy303 O310 2.351 . S
Dy303 O312 2.398 . S
Dy303 O313 2.491 . S
Dy303 O314 2.403 . S
Dy303 O315 2.664 . S
Dy303 O317 2.326 . S
O304 Dy300 2.398 . S
O304 C302 1.185 . S
O305 Dy300 2.491 . S
O305 C302 1.355 . S
O306 Dy300 2.403 . S
O306 C308 1.254 . S
O307 Dy300 2.664 . S
O307 Dy303 2.310 . S
O307 C308 1.268 . S
C308 O306 1.254 . S
C308 O307 1.268 . S
C309 O314 1.254 . S
C309 O315 1.268 . S
O310 Dy303 2.351 . S
O310 C318 1.249 . S
O311 Dy300 2.326 . S
O311 C318 1.267 . S
O312 C301 1.185 . S
O312 Dy303 2.398 . S
O313 C301 1.355 . S
O313 Dy303 2.491 . S
O314 Dy303 2.403 . S
O314 C309 1.254 . S
O315 Dy300 2.310 . S
O315 Dy303 2.664 . S
O315 C309 1.268 . S
O316 Dy300 2.351 . S
O316 C319 1.249 . S
O317 Dy303 2.326 . S
O317 C319 1.267 . S
C318 O310 1.249 . S
C318 O311 1.267 . S
C319 O316 1.249 . S
C319 O317 1.267 . S
C320 C321 1.387 . S
C320 H324 0.950 . S
C320 C329 1.390 . S
C321 C320 1.387 . S
C321 C323 1.387 . S
H322 C329 0.950 . S
C323 C321 1.387 . S
C323 C325 1.390 . S
C323 H327 0.950 . S
H324 C320 0.950 . S
C325 C323 1.390 . S
C325 C326 1.387 . S
C325 H328 0.950 . S
C326 C325 1.387 . S
C326 C329 1.387 . S
H327 C323 0.950 . S
H328 C325 0.950 . S
C329 C320 1.390 . S
C329 H322 0.950 . S
C329 C326 1.387 . S
C330 C331 1.387 . S
C330 H334 0.950 . S
C330 C339 1.390 . S
C331 C330 1.387 . S
C331 C333 1.387 . S
H332 C339 0.950 . S
C333 C331 1.387 . S
C333 C335 1.390 . S
C333 H337 0.950 . S
H334 C330 0.950 . S
C335 C333 1.390 . S
C335 C336 1.387 . S
C335 H338 0.950 . S
C336 C335 1.387 . S
C336 C339 1.387 . S
H337 C333 0.950 . S
H338 C335 0.950 . S
C339 C330 1.390 . S
C339 H332 0.950 . S
C339 C336 1.387 . S
C340 C341 1.387 . S
C340 H344 0.950 . S
C340 C349 1.390 . S
C341 C340 1.387 . S
C341 C343 1.387 . S
H342 C349 0.950 . S
C343 C341 1.387 . S
C343 C345 1.390 . S
C343 H347 0.950 . S
H344 C340 0.950 . S
C345 C343 1.390 . S
C345 C346 1.387 . S
C345 H348 0.950 . S
C346 C345 1.387 . S
C346 C349 1.387 . S
H347 C343 0.950 . S
H348 C345 0.950 . S
C349 C340 1.390 . S
C349 H342 0.950 . S
C349 C346 1.387 . S
C350 C351 1.387 . S
C350 H354 0.950 . S
C350 C359 1.390 . S
C351 C350 1.387 . S
C351 C353 1.387 . S
H352 C359 0.950 . S
C353 C351 1.387 . S
C353 C355 1.390 . S
C353 H357 0.950 . S
H354 C350 0.950 . S
C355 C353 1.390 . S
C355 C356 1.387 . S
C355 H358 0.950 . S
C356 C355 1.387 . S
C356 C359 1.387 . S
H357 C353 0.950 . S
H358 C355 0.950 . S
C359 C350 1.390 . S
C359 H352 0.950 . S
C359 C356 1.387 . S
C360 C361 1.387 . S
C360 H364 0.950 . S
C360 C369 1.390 . S
C361 C360 1.387 . S
C361 C363 1.387 . S
H362 C369 0.950 . S
C363 C361 1.387 . S
C363 C365 1.390 . S
C363 H367 0.950 . S
H364 C360 0.950 . S
C365 C363 1.390 . S
C365 C366 1.387 . S
C365 H368 0.950 . S
C366 C365 1.387 . S
C366 C369 1.387 . S
H367 C363 0.950 . S
H368 C365 0.950 . S
C369 C360 1.390 . S
C369 H362 0.950 . S
C369 C366 1.387 . S
C370 C371 1.387 . S
C370 H374 0.950 . S
C370 C379 1.390 . S
C371 C370 1.387 . S
C371 C373 1.387 . S
H372 C379 0.950 . S
C373 C371 1.387 . S
C373 C375 1.390 . S
C373 H377 0.950 . S
H374 C370 0.950 . S
C375 C373 1.390 . S
C375 C376 1.387 . S
C375 H378 0.950 . S
C376 C375 1.387 . S
C376 C379 1.387 . S
H377 C373 0.950 . S
H378 C375 0.950 . S
C379 C370 1.390 . S
C379 H372 0.950 . S
C379 C376 1.387 . S
C380 C381 1.387 . S
C380 H384 0.950 . S
C380 C389 1.390 . S
C381 C380 1.387 . S
C381 C383 1.387 . S
H382 C389 0.950 . S
C383 C381 1.387 . S
C383 C385 1.390 . S
C383 H387 0.950 . S
H384 C380 0.950 . S
C385 C383 1.390 . S
C385 C386 1.387 . S
C385 H388 0.950 . S
C386 C385 1.387 . S
C386 C389 1.387 . S
H387 C383 0.950 . S
H388 C385 0.950 . S
C389 C380 1.390 . S
C389 H382 0.950 . S
C389 C386 1.387 . S
C390 C391 1.387 . S
C390 H394 0.950 . S
C390 C399 1.390 . S
C391 C390 1.387 . S
C391 C393 1.387 . S
H392 C399 0.950 . S
C393 C391 1.387 . S
C393 C395 1.390 . S
C393 H397 0.950 . S
H394 C390 0.950 . S
C395 C393 1.390 . S
C395 C396 1.387 . S
C395 H398 0.950 . S
C396 C395 1.387 . S
C396 C399 1.387 . S
H397 C393 0.950 . S
H398 C395 0.950 . S
C399 C390 1.390 . S
C399 H392 0.950 . S
C399 C396 1.387 . S
C400 C401 1.387 . S
C400 H404 0.950 . S
C400 C409 1.390 . S
C401 C400 1.387 . S
C401 C403 1.387 . S
H402 C409 0.950 . S
C403 C401 1.387 . S
C403 C405 1.390 . S
C403 H407 0.950 . S
H404 C400 0.950 . S
C405 C403 1.390 . S
C405 C406 1.387 . S
C405 H408 0.950 . S
C406 C405 1.387 . S
C406 C409 1.387 . S
H407 C403 0.950 . S
H408 C405 0.950 . S
C409 C400 1.390 . S
C409 H402 0.950 . S
C409 C406 1.387 . S
C410 C411 1.387 . S
C410 H414 0.950 . S
C410 C419 1.390 . S
C411 C410 1.387 . S
C411 C413 1.387 . S
H412 C419 0.950 . S
C413 C411 1.387 . S
C413 C415 1.390 . S
C413 H417 0.950 . S
H414 C410 0.950 . S
C415 C413 1.390 . S
C415 C416 1.387 . S
C415 H418 0.950 . S
C416 C415 1.387 . S
C416 C419 1.387 . S
H417 C413 0.950 . S
H418 C415 0.950 . S
C419 C410 1.390 . S
C419 H412 0.950 . S
C419 C416 1.387 . S
C420 C421 1.387 . S
C420 H424 0.950 . S
C420 C429 1.390 . S
C421 C420 1.387 . S
C421 C423 1.387 . S
H422 C429 0.950 . S
C423 C421 1.387 . S
C423 C425 1.390 . S
C423 H427 0.950 . S
H424 C420 0.950 . S
C425 C423 1.390 . S
C425 C426 1.387 . S
C425 H428 0.950 . S
C426 C425 1.387 . S
C426 C429 1.387 . S
H427 C423 0.950 . S
H428 C425 0.950 . S
C429 C420 1.390 . S
C429 H422 0.950 . S
C429 C426 1.387 . S
C430 C431 1.387 . S
C430 H434 0.950 . S
C430 C439 1.390 . S
C431 C430 1.387 . S
C431 C433 1.387 . S
H432 C439 0.950 . S
C433 C431 1.387 . S
C433 C435 1.390 . S
C433 H437 0.950 . S
H434 C430 0.950 . S
C435 C433 1.390 . S
C435 C436 1.387 . S
C435 H438 0.950 . S
C436 C435 1.387 . S
C436 C439 1.387 . S
H437 C433 0.950 . S
H438 C435 0.950 . S
C439 C430 1.390 . S
C439 H432 0.950 . S
C439 C436 1.387 . S
C440 C441 1.387 . S
C440 H444 0.950 . S
C440 C449 1.390 . S
C441 C440 1.387 . S
C441 C443 1.387 . S
H442 C449 0.950 . S
C443 C441 1.387 . S
C443 C445 1.390 . S
C443 H447 0.950 . S
H444 C440 0.950 . S
C445 C443 1.390 . S
C445 C446 1.387 . S
C445 H448 0.950 . S
C446 C445 1.387 . S
C446 C449 1.387 . S
H447 C443 0.950 . S
H448 C445 0.950 . S
C449 C440 1.390 . S
C449 H442 0.950 . S
C449 C446 1.387 . S
C450 C451 1.387 . S
C450 H454 0.950 . S
C450 C459 1.390 . S
C451 C450 1.387 . S
C451 C453 1.387 . S
H452 C459 0.950 . S
C453 C451 1.387 . S
C453 C455 1.390 . S
C453 H457 0.950 . S
H454 C450 0.950 . S
C455 C453 1.390 . S
C455 C456 1.387 . S
C455 H458 0.950 . S
C456 C455 1.387 . S
C456 C459 1.387 . S
H457 C453 0.950 . S
H458 C455 0.950 . S
C459 C450 1.390 . S
C459 H452 0.950 . S
C459 C456 1.387 . S
C460 C461 1.387 . S
C460 H464 0.950 . S
C460 C469 1.390 . S
C461 C460 1.387 . S
C461 C463 1.387 . S
H462 C469 0.950 . S
C463 C461 1.387 . S
C463 C465 1.390 . S
C463 H467 0.950 . S
H464 C460 0.950 . S
C465 C463 1.390 . S
C465 C466 1.387 . S
C465 H468 0.950 . S
C466 C465 1.387 . S
C466 C469 1.387 . S
H467 C463 0.950 . S
H468 C465 0.950 . S
C469 C460 1.390 . S
C469 H462 0.950 . S
C469 C466 1.387 . S
C470 C471 1.387 . S
C470 H474 0.950 . S
C470 C479 1.390 . S
C471 C470 1.387 . S
C471 C473 1.387 . S
H472 C479 0.950 . S
C473 C471 1.387 . S
C473 C475 1.390 . S
C473 H477 0.950 . S
H474 C470 0.950 . S
C475 C473 1.390 . S
C475 C476 1.387 . S
C475 H478 0.950 . S
C476 C475 1.387 . S
C476 C479 1.387 . S
H477 C473 0.950 . S
H478 C475 0.950 . S
C479 C470 1.390 . S
C479 H472 0.950 . S
C479 C476 1.387 . S
C480 C481 1.387 . S
C480 H484 0.950 . S
C480 C489 1.390 . S
C481 C480 1.387 . S
C481 C483 1.387 . S
H482 C489 0.950 . S
C483 C481 1.387 . S
C483 C485 1.390 . S
C483 H487 0.950 . S
H484 C480 0.950 . S
C485 C483 1.390 . S
C485 C486 1.387 . S
C485 H488 0.950 . S
C486 C485 1.387 . S
C486 C489 1.387 . S
H487 C483 0.950 . S
H488 C485 0.950 . S
C489 C480 1.390 . S
C489 H482 0.950 . S
C489 C486 1.387 . S
C490 C491 1.387 . S
C490 H494 0.950 . S
C490 C499 1.390 . S
C491 C490 1.387 . S
C491 C493 1.387 . S
H492 C499 0.950 . S
C493 C491 1.387 . S
C493 C495 1.390 . S
C493 H497 0.950 . S
H494 C490 0.950 . S
C495 C493 1.390 . S
C495 C496 1.387 . S
C495 H498 0.950 . S
C496 C495 1.387 . S
C496 C499 1.387 . S
H497 C493 0.950 . S
H498 C495 0.950 . S
C499 C490 1.390 . S
C499 H492 0.950 . S
C499 C496 1.387 . S
C500 C501 1.387 . S
C500 H504 0.950 . S
C500 C509 1.390 . S
C501 C500 1.387 . S
C501 C503 1.387 . S
H502 C509 0.950 . S
C503 C501 1.387 . S
C503 C505 1.390 . S
C503 H507 0.950 . S
H504 C500 0.950 . S
C505 C503 1.390 . S
C505 C506 1.387 . S
C505 H508 0.950 . S
C506 C505 1.387 . S
C506 C509 1.387 . S
H507 C503 0.950 . S
H508 C505 0.950 . S
C509 C500 1.390 . S
C509 H502 0.950 . S
C509 C506 1.387 . S
C510 C511 1.387 . S
C510 H514 0.950 . S
C510 C519 1.390 . S
C511 C510 1.387 . S
C511 C513 1.387 . S
H512 C519 0.950 . S
C513 C511 1.387 . S
C513 C515 1.390 . S
C513 H517 0.950 . S
H514 C510 0.950 . S
C515 C513 1.390 . S
C515 C516 1.387 . S
C515 H518 0.950 . S
C516 C515 1.387 . S
C516 C519 1.387 . S
H517 C513 0.950 . S
H518 C515 0.950 . S
C519 C510 1.390 . S
C519 H512 0.950 . S
C519 C516 1.387 . S
C520 C521 1.387 . S
C520 H524 0.950 . S
C520 C529 1.390 . S
C521 C520 1.387 . S
C521 C523 1.387 . S
H522 C529 0.950 . S
C523 C521 1.387 . S
C523 C525 1.390 . S
C523 H527 0.950 . S
H524 C520 0.950 . S
C525 C523 1.390 . S
C525 C526 1.387 . S
C525 H528 0.950 . S
C526 C525 1.387 . S
C526 C529 1.387 . S
H527 C523 0.950 . S
H528 C525 0.950 . S
C529 C520 1.390 . S
C529 H522 0.950 . S
C529 C526 1.387 . S
C530 C531 1.387 . S
C530 H534 0.950 . S
C530 C539 1.390 . S
C531 C530 1.387 . S
C531 C533 1.387 . S
H532 C539 0.950 . S
C533 C531 1.387 . S
C533 C535 1.390 . S
C533 H537 0.950 . S
H534 C530 0.950 . S
C535 C533 1.390 . S
C535 C536 1.387 . S
C535 H538 0.950 . S
C536 C535 1.387 . S
C536 C539 1.387 . S
H537 C533 0.950 . S
H538 C535 0.950 . S
C539 C530 1.390 . S
C539 H532 0.950 . S
C539 C536 1.387 . S
C540 C541 1.387 . S
C540 H544 0.950 . S
C540 C549 1.390 . S
C541 C540 1.387 . S
C541 C543 1.387 . S
H542 C549 0.950 . S
C543 C541 1.387 . S
C543 C545 1.390 . S
C543 H547 0.950 . S
H544 C540 0.950 . S
C545 C543 1.390 . S
C545 C546 1.387 . S
C545 H548 0.950 . S
C546 C545 1.387 . S
C546 C549 1.387 . S
H547 C543 0.950 . S
H548 C545 0.950 . S
C549 C540 1.390 . S
C549 H542 0.950 . S
C549 C546 1.387 . S
C550 C551 1.387 . S
C550 H554 0.950 . S
C550 C559 1.390 . S
C551 C550 1.387 . S
C551 C553 1.387 . S
H552 C559 0.950 . S
C553 C551 1.387 . S
C553 C555 1.390 . S
C553 H557 0.950 . S
H554 C550 0.950 . S
C555 C553 1.390 . S
C555 C556 1.387 . S
C555 H558 0.950 . S
C556 C555 1.387 . S
C556 C559 1.387 . S
H557 C553 0.950 . S
H558 C555 0.950 . S
C559 C550 1.390 . S
C559 H552 0.950 . S
C559 C556 1.387 . S
C560 C561 1.387 . S
C560 H564 0.950 . S
C560 C569 1.390 . S
C561 C560 1.387 . S
C561 C563 1.387 . S
H562 C569 0.950 . S
C563 C561 1.387 . S
C563 C565 1.390 . S
C563 H567 0.950 . S
H564 C560 0.950 . S
C565 C563 1.390 . S
C565 C566 1.387 . S
C565 H568 0.950 . S
C566 C565 1.387 . S
C566 C569 1.387 . S
H567 C563 0.950 . S
H568 C565 0.950 . S
C569 C560 1.390 . S
C569 H562 0.950 . S
C569 C566 1.387 . S
C570 C571 1.387 . S
C570 H574 0.950 . S
C570 C579 1.390 . S
C571 C570 1.387 . S
C571 C573 1.387 . S
H572 C579 0.950 . S
C573 C571 1.387 . S
C573 C575 1.390 . S
C573 H577 0.950 . S
H574 C570 0.950 . S
C575 C573 1.390 . S
C575 C576 1.387 . S
C575 H578 0.950 . S
C576 C575 1.387 . S
C576 C579 1.387 . S
H577 C573 0.950 . S
H578 C575 0.950 . S
C579 C570 1.390 . S
C579 H572 0.950 . S
C579 C576 1.387 . S
C580 C581 1.387 . S
C580 H584 0.950 . S
C580 C589 1.390 . S
C581 C580 1.387 . S
C581 C583 1.387 . S
H582 C589 0.950 . S
C583 C581 1.387 . S
C583 C585 1.390 . S
C583 H587 0.950 . S
H584 C580 0.950 . S
C585 C583 1.390 . S
C585 C586 1.387 . S
C585 H588 0.950 . S
C586 C585 1.387 . S
C586 C589 1.387 . S
H587 C583 0.950 . S
H588 C585 0.950 . S
C589 C580 1.390 . S
C589 H582 0.950 . S
C589 C586 1.387 . S
C590 C591 1.387 . S
C590 H594 0.950 . S
C590 C599 1.390 . S
C591 C590 1.387 . S
C591 C593 1.387 . S
H592 C599 0.950 . S
C593 C591 1.387 . S
C593 C595 1.390 . S
C593 H597 0.950 . S
H594 C590 0.950 . S
C595 C593 1.390 . S
C595 C596 1.387 . S
C595 H598 0.950 . S
C596 C595 1.387 . S
C596 C599 1.387 . S
H597 C593 0.950 . S
H598 C595 0.950 . S
C599 C590 1.390 . S
C599 H592 0.950 . S
C599 C596 1.387 . S
C600 C601 1.387 . S
C600 H604 0.950 . S
C600 C609 1.390 . S
C601 C600 1.387 . S
C601 C603 1.387 . S
H602 C609 0.950 . S
C603 C601 1.387 . S
C603 C605 1.390 . S
C603 H607 0.950 . S
H604 C600 0.950 . S
C605 C603 1.390 . S
C605 C606 1.387 . S
C605 H608 0.950 . S
C606 C605 1.387 . S
C606 C609 1.387 . S
H607 C603 0.950 . S
H608 C605 0.950 . S
C609 C600 1.390 . S
C609 H602 0.950 . S
C609 C606 1.387 . S
C610 C611 1.387 . S
C610 H614 0.950 . S
C610 C619 1.390 . S
C611 C610 1.387 . S
C611 C613 1.387 . S
H612 C619 0.950 . S
C613 C611 1.387 . S
C613 C615 1.390 . S
C613 H617 0.950 . S
H614 C610 0.950 . S
C615 C613 1.390 . S
C615 C616 1.387 . S
C615 H618 0.950 . S
C616 C615 1.387 . S
C616 C619 1.387 . S
H617 C613 0.950 . S
H618 C615 0.950 . S
C619 C610 1.390 . S
C619 H612 0.950 . S
C619 C616 1.387 . S
C620 C621 1.387 . S
C620 H624 0.950 . S
C620 C629 1.390 . S
C621 C620 1.387 . S
C621 C623 1.387 . S
H622 C629 0.950 . S
C623 C621 1.387 . S
C623 C625 1.390 . S
C623 H627 0.950 . S
H624 C620 0.950 . S
C625 C623 1.390 . S
C625 C626 1.387 . S
C625 H628 0.950 . S
C626 C625 1.387 . S
C626 C629 1.387 . S
H627 C623 0.950 . S
H628 C625 0.950 . S
C629 C620 1.390 . S
C629 H622 0.950 . S
C629 C626 1.387 . S
C630 C631 1.387 . S
C630 H634 0.950 . S
C630 C639 1.390 . S
C631 C630 1.387 . S
C631 C633 1.387 . S
H632 C639 0.950 . S
C633 C631 1.387 . S
C633 C635 1.390 . S
C633 H637 0.950 . S
H634 C630 0.950 . S
C635 C633 1.390 . S
C635 C636 1.387 . S
C635 H638 0.950 . S
C636 C635 1.387 . S
C636 C639 1.387 . S
H637 C633 0.950 . S
H638 C635 0.950 . S
C639 C630 1.390 . S
C639 H632 0.950 . S
C639 C636 1.387 . S
C640 C641 1.387 . S
C640 H644 0.950 . S
C640 C649 1.390 . S
C641 C640 1.387 . S
C641 C643 1.387 . S
H642 C649 0.950 . S
C643 C641 1.387 . S
C643 C645 1.390 . S
C643 H647 0.950 . S
H644 C640 0.950 . S
C645 C643 1.390 . S
C645 C646 1.387 . S
C645 H648 0.950 . S
C646 C645 1.387 . S
C646 C649 1.387 . S
H647 C643 0.950 . S
H648 C645 0.950 . S
C649 C640 1.390 . S
C649 H642 0.950 . S
C649 C646 1.387 . S
C650 C651 1.387 . S
C650 H654 0.950 . S
C650 C659 1.390 . S
C651 C650 1.387 . S
C651 C653 1.387 . S
H652 C659 0.950 . S
C653 C651 1.387 . S
C653 C655 1.390 . S
C653 H657 0.950 . S
H654 C650 0.950 . S
C655 C653 1.390 . S
C655 C656 1.387 . S
C655 H658 0.950 . S
C656 C655 1.387 . S
C656 C659 1.387 . S
H657 C653 0.950 . S
H658 C655 0.950 . S
C659 C650 1.390 . S
C659 H652 0.950 . S
C659 C656 1.387 . S
C660 C661 1.387 . S
C660 H664 0.950 . S
C660 C669 1.390 . S
C661 C660 1.387 . S
C661 C663 1.387 . S
H662 C669 0.950 . S
C663 C661 1.387 . S
C663 C665 1.390 . S
C663 H667 0.950 . S
H664 C660 0.950 . S
C665 C663 1.390 . S
C665 C666 1.387 . S
C665 H668 0.950 . S
C666 C665 1.387 . S
C666 C669 1.387 . S
H667 C663 0.950 . S
H668 C665 0.950 . S
C669 C660 1.390 . S
C669 H662 0.950 . S
C669 C666 1.387 . S
C670 C671 1.387 . S
C670 H674 0.950 . S
C670 C679 1.390 . S
C671 C670 1.387 . S
C671 C673 1.387 . S
H672 C679 0.950 . S
C673 C671 1.387 . S
C673 C675 1.390 . S
C673 H677 0.950 . S
H674 C670 0.950 . S
C675 C673 1.390 . S
C675 C676 1.387 . S
C675 H678 0.950 . S
C676 C675 1.387 . S
C676 C679 1.387 . S
H677 C673 0.950 . S
H678 C675 0.950 . S
C679 C670 1.390 . S
C679 H672 0.950 . S
C679 C676 1.387 . S
C680 C681 1.387 1_556 S
C680 H684 0.950 . S
C680 C689 1.390 1_556 S
C681 C680 1.387 1_554 S
C681 C683 1.387 . S
H682 C689 0.950 . S
C683 C681 1.387 . S
C683 C685 1.390 . S
C683 H687 0.950 . S
H684 C680 0.950 . S
C685 C683 1.390 . S
C685 C686 1.387 . S
C685 H688 0.950 . S
C686 C685 1.387 . S
C686 C689 1.387 . S
H687 C683 0.950 . S
H688 C685 0.950 . S
C689 C680 1.390 1_554 S
C689 H682 0.950 . S
C689 C686 1.387 . S
C690 C691 1.387 . S
C690 H694 0.950 . S
C690 C699 1.390 . S
C691 C690 1.387 . S
C691 C693 1.387 1_554 S
H692 C699 0.950 . S
C693 C691 1.387 1_556 S
C693 C695 1.390 . S
C693 H697 0.950 . S
H694 C690 0.950 . S
C695 C693 1.390 . S
C695 C696 1.387 1_556 S
C695 H698 0.950 . S
C696 C695 1.387 1_554 S
C696 C699 1.387 . S
H697 C693 0.950 . S
H698 C695 0.950 . S
C699 C690 1.390 . S
C699 H692 0.950 . S
C699 C696 1.387 . S
C700 C701 1.387 . S
C700 H704 0.950 1_554 S
C700 C709 1.390 . S
C701 C700 1.387 . S
C701 C703 1.387 . S
H702 C709 0.950 . S
C703 C701 1.387 . S
C703 C705 1.390 . S
C703 H707 0.950 . S
H704 C700 0.950 1_556 S
C705 C703 1.390 . S
C705 C706 1.387 . S
C705 H708 0.950 . S
C706 C705 1.387 . S
C706 C709 1.387 . S
H707 C703 0.950 . S
H708 C705 0.950 . S
C709 C700 1.390 . S
C709 H702 0.950 . S
C709 C706 1.387 . S
C710 C711 1.387 . S
C710 H714 0.950 1_554 S
C710 C719 1.390 1_554 S
C711 C710 1.387 . S
C711 C713 1.387 . S
H712 C719 0.950 . S
C713 C711 1.387 . S
C713 C715 1.390 . S
C713 H717 0.950 . S
H714 C710 0.950 1_556 S
C715 C713 1.390 . S
C715 C716 1.387 . S
C715 H718 0.950 . S
C716 C715 1.387 . S
C716 C719 1.387 1_554 S
H717 C713 0.950 . S
H718 C715 0.950 . S
C719 C710 1.390 1_556 S
C719 H712 0.950 . S
C719 C716 1.387 1_556 S
C720 C721 1.387 . S
C720 H724 0.950 . S
C720 C729 1.390 . S
C721 C720 1.387 . S
C721 C723 1.387 . S
H722 C729 0.950 . S
C723 C721 1.387 . S
C723 C725 1.390 . S
C723 H727 0.950 . S
H724 C720 0.950 . S
C725 C723 1.390 . S
C725 C726 1.387 . S
C725 H728 0.950 . S
C726 C725 1.387 . S
C726 C729 1.387 . S
H727 C723 0.950 . S
H728 C725 0.950 . S
C729 C720 1.390 . S
C729 H722 0.950 . S
C729 C726 1.387 . S
C730 C731 1.387 . S
C730 H734 0.950 . S
C730 C739 1.390 . S
C731 C730 1.387 . S
C731 C733 1.387 . S
H732 C739 0.950 . S
C733 C731 1.387 . S
C733 C735 1.390 . S
C733 H737 0.950 . S
H734 C730 0.950 . S
C735 C733 1.390 . S
C735 C736 1.387 . S
C735 H738 0.950 . S
C736 C735 1.387 . S
C736 C739 1.387 . S
H737 C733 0.950 . S
H738 C735 0.950 . S
C739 C730 1.390 . S
C739 H732 0.950 . S
C739 C736 1.387 . S
C740 C741 1.387 . S
C740 H744 0.950 . S
C740 C749 1.390 . S
C741 C740 1.387 . S
C741 C743 1.387 . S
H742 C749 0.950 . S
C743 C741 1.387 . S
C743 C745 1.390 . S
C743 H747 0.950 . S
H744 C740 0.950 . S
C745 C743 1.390 . S
C745 C746 1.387 . S
C745 H748 0.950 . S
C746 C745 1.387 . S
C746 C749 1.387 . S
H747 C743 0.950 . S
H748 C745 0.950 . S
C749 C740 1.390 . S
C749 H742 0.950 . S
C749 C746 1.387 . S
C750 C751 1.387 . S
C750 H754 0.950 . S
C750 C759 1.390 . S
C751 C750 1.387 . S
C751 C753 1.387 . S
H752 C759 0.950 . S
C753 C751 1.387 . S
C753 C755 1.390 . S
C753 H757 0.950 . S
H754 C750 0.950 . S
C755 C753 1.390 . S
C755 C756 1.387 . S
C755 H758 0.950 . S
C756 C755 1.387 . S
C756 C759 1.387 . S
H757 C753 0.950 . S
H758 C755 0.950 . S
C759 C750 1.390 . S
C759 H752 0.950 . S
C759 C756 1.387 . S
C760 C761 1.387 1_554 S
C760 H764 0.950 . S
C760 C769 1.390 . S
C761 C760 1.387 1_556 S
C761 C763 1.387 . S
H762 C769 0.950 . S
C763 C761 1.387 . S
C763 C765 1.390 . S
C763 H767 0.950 . S
H764 C760 0.950 . S
C765 C763 1.390 . S
C765 C766 1.387 . S
C765 H768 0.950 . S
C766 C765 1.387 . S
C766 C769 1.387 1_556 S
H767 C763 0.950 . S
H768 C765 0.950 . S
C769 C760 1.390 . S
C769 H762 0.950 . S
C769 C766 1.387 1_554 S
C770 C771 1.387 . S
C770 H774 0.950 . S
C770 C779 1.390 . S
C771 C770 1.387 . S
C771 C773 1.387 1_556 S
H772 C779 0.950 . S
C773 C771 1.387 1_554 S
C773 C775 1.390 . S
C773 H777 0.950 . S
H774 C770 0.950 . S
C775 C773 1.390 . S
C775 C776 1.387 1_554 S
C775 H778 0.950 . S
C776 C775 1.387 1_556 S
C776 C779 1.387 . S
H777 C773 0.950 . S
H778 C775 0.950 . S
C779 C770 1.390 . S
C779 H772 0.950 . S
C779 C776 1.387 . S
C780 C781 1.387 . S
C780 H784 0.950 . S
C780 C789 1.390 . S
C781 C780 1.387 . S
C781 C783 1.387 1_556 S
H782 C789 0.950 . S
C783 C781 1.387 1_554 S
C783 C785 1.390 1_554 S
C783 H787 0.950 . S
H784 C780 0.950 . S
C785 C783 1.390 1_556 S
C785 C786 1.387 . S
C785 H788 0.950 1_556 S
C786 C785 1.387 . S
C786 C789 1.387 . S
H787 C783 0.950 . S
H788 C785 0.950 1_554 S
C789 C780 1.390 . S
C789 H782 0.950 . S
C789 C786 1.387 . S
C790 C791 1.387 1_554 S
C790 H794 0.950 . S
C790 C799 1.390 1_554 S
C791 C790 1.387 1_556 S
C791 C793 1.387 . S
H792 C799 0.950 1_554 S
C793 C791 1.387 . S
C793 C795 1.390 . S
C793 H797 0.950 . S
H794 C790 0.950 . S
C795 C793 1.390 . S
C795 C796 1.387 . S
C795 H798 0.950 . S
C796 C795 1.387 . S
C796 C799 1.387 . S
H797 C793 0.950 . S
H798 C795 0.950 . S
C799 C790 1.390 1_556 S
C799 H792 0.950 1_556 S
C799 C796 1.387 . S
C321 C8 1.836 . S
C326 C108 1.839 . S
C331 C128 1.840 . S
C336 C28 1.836 . S
C341 C48 1.837 . S
C346 C148 1.838 . S
C351 C68 1.838 . S
C356 C88 1.837 . S
C361 C269 1.840 . S
C366 C169 1.836 . S
C371 C289 1.840 . S
C376 C189 1.836 . S
C381 C209 1.839 . S
C386 C309 1.837 . S
C391 C229 1.837 . S
C396 C249 1.839 . S
C401 C1 1.851 . S
C406 C79 1.685 . S
C411 C21 1.851 . S
C416 C19 1.685 . S
C421 C41 1.849 . S
C426 C39 1.689 . S
C431 C61 1.851 . S
C436 C59 1.684 . S
C441 C81 1.851 . S
C446 C119 1.686 . S
C451 C139 1.685 . S
C456 C101 1.851 . S
C461 C121 1.849 . S
C466 C159 1.687 . S
C471 C99 1.686 . S
C476 C141 1.851 . S
C481 C238 1.688 . S
C486 C162 1.851 . S
C491 C182 1.849 . S
C496 C178 1.688 . S
C501 C202 1.849 . S
C506 C198 1.687 . S
C511 C222 1.852 . S
C516 C218 1.686 . S
C521 C242 1.849 . S
C526 C278 1.688 . S
C531 C262 1.851 . S
C536 C298 1.684 . S
C541 C282 1.849 . S
C546 C318 1.687 . S
C551 C302 1.849 . S
C556 C258 1.688 . S
C561 C2 0.494 . S
C566 C42 0.494 . S
C571 C22 0.487 . S
C576 C62 0.487 . S
C581 C122 0.487 . S
C586 C82 0.487 . S
C591 C142 0.487 . S
C596 C102 0.487 . S
C601 C201 0.494 . S
C606 C161 0.494 . S
C611 C221 0.494 . S
C616 C181 0.494 . S
C621 C241 0.487 . S
C626 C281 0.487 . S
C631 C261 0.487 . S
C636 C301 0.487 . S
C641 C18 1.740 . S
C646 C228 1.734 . S
C651 C168 1.734 . S
C656 C38 1.740 . S
C661 C58 1.740 . S
C666 C188 1.734 . S
C671 C208 1.734 . S
C676 C78 1.740 . S
C681 C268 1.734 1_554 S
C686 C98 1.740 . S
C691 C118 1.740 . S
C696 C288 1.734 1_554 S
C701 C308 1.734 1_554 S
C706 C138 1.740 . S
C711 C158 1.740 . S
C716 C248 1.734 1_554 S
C721 C179 1.740 . S
C726 C69 1.735 . S
C731 C199 1.740 . S
C736 C9 1.734 . S
C741 C29 1.734 . S
C746 C219 1.740 . S
C751 C239 1.740 . S
C756 C49 1.734 . S
C761 C259 1.740 . S
C766 C109 1.734 1_556 S
C771 C279 1.740 . S
C776 C129 1.734 1_556 S
C781 C149 1.734 1_556 S
C786 C299 1.740 . S
C791 C89 1.734 1_556 S
C796 C319 1.740 . S
