# Generated by pormake.
# Topology pcb, (4)-cn, num edge types: 1
# Building blocks:
#     Node 0, Type 0, BuildingBlock: KUFVIS_clean_sbu_0, # of connection points: 4
#     Node 1, Type 0, BuildingBlock: KUFVIS_clean_sbu_0, # of connection points: 4
#     Node 2, Type 0, BuildingBlock: KUFVIS_clean_sbu_0, # of connection points: 4
#     Node 3, Type 0, BuildingBlock: KUFVIS_clean_sbu_0, # of connection points: 4
#     Node 4, Type 0, BuildingBlock: KUFVIS_clean_sbu_0, # of connection points: 4
#     Node 5, Type 0, BuildingBlock: KUFVIS_clean_sbu_0, # of connection points: 4
#     Node 6, Type 0, BuildingBlock: KUFVIS_clean_sbu_0, # of connection points: 4
#     Node 7, Type 0, BuildingBlock: KUFVIS_clean_sbu_0, # of connection points: 4
#     Node 8, Type 0, BuildingBlock: KUFVIS_clean_sbu_0, # of connection points: 4
#     Node 9, Type 0, BuildingBlock: KUFVIS_clean_sbu_0, # of connection points: 4
#     Node 10, Type 0, BuildingBlock: KUFVIS_clean_sbu_0, # of connection points: 4
#     Node 11, Type 0, BuildingBlock: KUFVIS_clean_sbu_0, # of connection points: 4
#     Node 12, Type 0, BuildingBlock: KUFVIS_clean_sbu_0, # of connection points: 4
#     Node 13, Type 0, BuildingBlock: KUFVIS_clean_sbu_0, # of connection points: 4
#     Node 14, Type 0, BuildingBlock: KUFVIS_clean_sbu_0, # of connection points: 4
#     Node 15, Type 0, BuildingBlock: KUFVIS_clean_sbu_0, # of connection points: 4
#     Edge 16, Type (0, 0), BuildingBlock: MIFKUJ_clean_linker_0, # of connection points: 2
#     Edge 17, Type (0, 0), BuildingBlock: MIFKUJ_clean_linker_0, # of connection points: 2
#     Edge 18, Type (0, 0), BuildingBlock: MIFKUJ_clean_linker_0, # of connection points: 2
#     Edge 19, Type (0, 0), BuildingBlock: MIFKUJ_clean_linker_0, # of connection points: 2
#     Edge 20, Type (0, 0), BuildingBlock: MIFKUJ_clean_linker_0, # of connection points: 2
#     Edge 21, Type (0, 0), BuildingBlock: MIFKUJ_clean_linker_0, # of connection points: 2
#     Edge 22, Type (0, 0), BuildingBlock: MIFKUJ_clean_linker_0, # of connection points: 2
#     Edge 23, Type (0, 0), BuildingBlock: MIFKUJ_clean_linker_0, # of connection points: 2
#     Edge 24, Type (0, 0), BuildingBlock: MIFKUJ_clean_linker_0, # of connection points: 2
#     Edge 25, Type (0, 0), BuildingBlock: MIFKUJ_clean_linker_0, # of connection points: 2
#     Edge 26, Type (0, 0), BuildingBlock: MIFKUJ_clean_linker_0, # of connection points: 2
#     Edge 27, Type (0, 0), BuildingBlock: MIFKUJ_clean_linker_0, # of connection points: 2
#     Edge 28, Type (0, 0), BuildingBlock: MIFKUJ_clean_linker_0, # of connection points: 2
#     Edge 29, Type (0, 0), BuildingBlock: MIFKUJ_clean_linker_0, # of connection points: 2
#     Edge 30, Type (0, 0), BuildingBlock: MIFKUJ_clean_linker_0, # of connection points: 2
#     Edge 31, Type (0, 0), BuildingBlock: MIFKUJ_clean_linker_0, # of connection points: 2
#     Edge 32, Type (0, 0), BuildingBlock: MIFKUJ_clean_linker_0, # of connection points: 2
#     Edge 33, Type (0, 0), BuildingBlock: MIFKUJ_clean_linker_0, # of connection points: 2
#     Edge 34, Type (0, 0), BuildingBlock: MIFKUJ_clean_linker_0, # of connection points: 2
#     Edge 35, Type (0, 0), BuildingBlock: MIFKUJ_clean_linker_0, # of connection points: 2
#     Edge 36, Type (0, 0), BuildingBlock: MIFKUJ_clean_linker_0, # of connection points: 2
#     Edge 37, Type (0, 0), BuildingBlock: MIFKUJ_clean_linker_0, # of connection points: 2
#     Edge 38, Type (0, 0), BuildingBlock: MIFKUJ_clean_linker_0, # of connection points: 2
#     Edge 39, Type (0, 0), BuildingBlock: MIFKUJ_clean_linker_0, # of connection points: 2
#     Edge 40, Type (0, 0), BuildingBlock: MIFKUJ_clean_linker_0, # of connection points: 2
#     Edge 41, Type (0, 0), BuildingBlock: MIFKUJ_clean_linker_0, # of connection points: 2
#     Edge 42, Type (0, 0), BuildingBlock: MIFKUJ_clean_linker_0, # of connection points: 2
#     Edge 43, Type (0, 0), BuildingBlock: MIFKUJ_clean_linker_0, # of connection points: 2
#     Edge 44, Type (0, 0), BuildingBlock: MIFKUJ_clean_linker_0, # of connection points: 2
#     Edge 45, Type (0, 0), BuildingBlock: MIFKUJ_clean_linker_0, # of connection points: 2
#     Edge 46, Type (0, 0), BuildingBlock: MIFKUJ_clean_linker_0, # of connection points: 2
#     Edge 47, Type (0, 0), BuildingBlock: MIFKUJ_clean_linker_0, # of connection points: 2
# Relax obj value: 0.290
# Max RMSD: 0.148
# Mean RMSD: 0.148
data_MOF--net-pcb--node1-KUFVIS_clean_sbu_0--edge1-MIFKUJ_clean_linker_0
_symmetry_space_group_name_H-M    P1
_symmetry_Int_Tables_number       1
_symmetry_cell_setting            triclinic
loop_
_symmetry_equiv_pos_as_xyz
'x, y, z'
_cell_length_a     50.521783
_cell_length_b     63.335697
_cell_length_c     63.326022
_cell_angle_alpha  90.011859
_cell_angle_beta   90.016614
_cell_angle_gamma 89.990688
loop_
_atom_site_label
_atom_site_type_symbol
_atom_site_fract_x
_atom_site_fract_y
_atom_site_fract_z
_atom_type_partial_charge
Mn0 Mn 0.1844 0.16599 0.13458 0.0
Mn1 Mn 0.16014 0.20863 0.10911 0.0
C2 C 0.14259 0.17896 0.14297 0.0
C3 C 0.19224 0.12974 0.13721 0.0
C4 C 0.20219 0.21132 0.14314 0.0
O5 O 0.20732 0.16769 0.10805 0.0
O6 O 0.18683 0.19441 0.09113 0.0
C7 C 0.13301 0.18794 0.07322 0.0
N8 N 0.13203 0.20056 0.09062 0.0
C9 C 0.08654 0.20945 0.08387 0.0
C10 C 0.08711 0.19669 0.06577 0.0
C11 C 0.11036 0.1857 0.06056 0.0
C12 C 0.10953 0.21068 0.09614 0.0
H13 H 0.15101 0.17982 0.06888 0.0
C14 C 0.20384 0.17943 0.09187 0.0
O15 O 0.20728 0.14347 0.1465 0.0
O16 O 0.17248 0.13704 0.12627 0.0
N17 N 0.13367 0.2237 0.12462 0.0
C18 C 0.13678 0.23636 0.14187 0.0
C19 C 0.11519 0.24818 0.14932 0.0
C20 C 0.09084 0.24728 0.1387 0.0
C21 C 0.08834 0.23466 0.12062 0.0
C22 C 0.11041 0.22298 0.1141 0.0
H23 H 0.15556 0.23749 0.14992 0.0
O24 O 0.15554 0.16727 0.15629 0.0
O25 O 0.15444 0.18251 0.12517 0.0
O26 O 0.20228 0.19176 0.14773 0.0
O27 O 0.18839 0.21901 0.12811 0.0
C28 C 0.06504 0.23375 0.10847 0.0
C29 C 0.06427 0.22138 0.08997 0.0
H30 H 0.06991 0.19529 0.05568 0.0
H31 H 0.11095 0.17581 0.04663 0.0
H32 H 0.11736 0.25812 0.16309 0.0
H33 H 0.07432 0.25659 0.14437 0.0
H34 H 0.04775 0.24279 0.11298 0.0
H35 H 0.0465 0.2214 0.08045 0.0
Mn36 Mn 0.82461 0.1351 0.16612 0.0
Mn37 Mn 0.85769 0.11299 0.20679 0.0
C38 C 0.86572 0.14824 0.17607 0.0
C39 C 0.81315 0.1369 0.13045 0.0
C40 C 0.81023 0.14181 0.21245 0.0
O41 O 0.80684 0.10627 0.16939 0.0
O42 O 0.83318 0.09184 0.19431 0.0
C43 C 0.8895 0.08138 0.18337 0.0
N44 N 0.8881 0.09784 0.19717 0.0
C45 C 0.93531 0.09741 0.20235 0.0
C46 C 0.93723 0.08035 0.18836 0.0
C47 C 0.91428 0.07251 0.17863 0.0
C48 C 0.91016 0.10584 0.20625 0.0
H49 H 0.87188 0.07527 0.17586 0.0
C50 C 0.81445 0.09064 0.18068 0.0
O51 O 0.7979 0.14447 0.14508 0.0
O52 O 0.83495 0.12787 0.13654 0.0
N53 N 0.88239 0.13177 0.21989 0.0
C54 C 0.87759 0.1499 0.23083 0.0
C55 C 0.89865 0.16044 0.2407 0.0
C56 C 0.92437 0.15219 0.2393 0.0
C57 C 0.92891 0.13367 0.22773 0.0
C58 C 0.90711 0.12377 0.21835 0.0
H59 H 0.85785 0.15626 0.2321 0.0
O60 O 0.84922 0.15995 0.16557 0.0
O61 O 0.8576 0.12927 0.18041 0.0
O62 O 0.80723 0.14627 0.19301 0.0
O63 O 0.82743 0.12861 0.21902 0.0
C64 C 0.95421 0.12477 0.22494 0.0
C65 C 0.95746 0.10679 0.21207 0.0
H66 H 0.95627 0.07344 0.18462 0.0
H67 H 0.91585 0.05979 0.16736 0.0
H68 H 0.89505 0.17482 0.24948 0.0
H69 H 0.94045 0.16025 0.24713 0.0
H70 H 0.97136 0.13174 0.2324 0.0
H71 H 0.97713 0.10046 0.20954 0.0
Mn72 Mn 0.81284 0.83601 0.13165 0.0
Mn73 Mn 0.83968 0.79276 0.10877 0.0
C74 C 0.85591 0.82633 0.13993 0.0
C75 C 0.80289 0.87204 0.13179 0.0
C76 C 0.79925 0.79071 0.14413 0.0
O77 O 0.78917 0.83112 0.10602 0.0
O78 O 0.81083 0.80402 0.09072 0.0
C79 C 0.86297 0.81144 0.07012 0.0
N80 N 0.86579 0.79996 0.08817 0.0
C81 C 0.91148 0.79269 0.08029 0.0
C82 C 0.90904 0.80437 0.06158 0.0
C83 C 0.8847 0.81382 0.05651 0.0
C84 C 0.88909 0.79072 0.09317 0.0
H85 H 0.84429 0.81872 0.06615 0.0
C86 C 0.7928 0.81825 0.09076 0.0
O87 O 0.78897 0.85856 0.14249 0.0
O88 O 0.82238 0.86453 0.12071 0.0
N89 N 0.86831 0.78063 0.12437 0.0
C90 C 0.86799 0.77156 0.14388 0.0
C91 C 0.89104 0.76191 0.15165 0.0
C92 C 0.9141 0.76165 0.13927 0.0
C93 C 0.91408 0.77139 0.11941 0.0
C94 C 0.89043 0.7805 0.11237 0.0
H95 H 0.85026 0.77158 0.15339 0.0
O96 O 0.8421 0.83794 0.15276 0.0
O97 O 0.84399 0.8205 0.12264 0.0
O98 O 0.79734 0.81051 0.1472 0.0
O99 O 0.8136 0.78271 0.12964 0.0
C100 C 0.93669 0.77268 0.10646 0.0
C101 C 0.93542 0.78337 0.08693 0.0
H102 H 0.9258 0.80637 0.0511 0.0
H103 H 0.88269 0.82293 0.04214 0.0
H104 H 0.89099 0.75457 0.16708 0.0
H105 H 0.93176 0.754 0.1452 0.0
H106 H 0.95528 0.76582 0.11152 0.0
H107 H 0.95306 0.78461 0.0773 0.0
Mn108 Mn 0.18016 0.86744 0.15462 0.0
Mn109 Mn 0.14149 0.88567 0.19417 0.0
C110 C 0.13761 0.85459 0.15878 0.0
C111 C 0.19673 0.86888 0.12037 0.0
C112 C 0.18713 0.85524 0.20089 0.0
O113 O 0.19795 0.89523 0.1629 0.0
O114 O 0.16832 0.90734 0.18669 0.0
C115 C 0.11464 0.92145 0.17299 0.0
N116 N 0.11326 0.90282 0.18368 0.0
C117 C 0.06562 0.9038 0.18355 0.0
C118 C 0.06655 0.92304 0.17264 0.0
C119 C 0.09117 0.93188 0.16731 0.0
C120 C 0.08967 0.89422 0.18898 0.0
H121 H 0.1335 0.92828 0.16881 0.0
C122 C 0.18889 0.9097 0.17503 0.0
O123 O 0.20948 0.85941 0.13539 0.0
O124 O 0.17467 0.8782 0.1253 0.0
N125 N 0.11434 0.86614 0.20223 0.0
C126 C 0.11684 0.84661 0.21105 0.0
C127 C 0.09402 0.83509 0.2163 0.0
C128 C 0.06889 0.84378 0.2125 0.0
C129 C 0.0668 0.86394 0.20352 0.0
C130 C 0.09024 0.87475 0.19875 0.0
H131 H 0.13608 0.83978 0.21394 0.0
O132 O 0.15524 0.84354 0.14877 0.0
O133 O 0.14545 0.87267 0.16616 0.0
O134 O 0.19293 0.85288 0.1815 0.0
O135 O 0.16921 0.86792 0.20727 0.0
C136 C 0.04237 0.8735 0.19861 0.0
C137 C 0.04179 0.89343 0.18867 0.0
H138 H 0.0485 0.93104 0.16804 0.0
H139 H 0.09204 0.94667 0.15879 0.0
H140 H 0.09581 0.81952 0.22318 0.0
H141 H 0.05133 0.83475 0.21635 0.0
H142 H 0.02393 0.86548 0.20204 0.0
H143 H 0.02289 0.90043 0.18462 0.0
Mn144 Mn 0.17884 0.83561 0.86483 0.0
Mn145 Mn 0.15179 0.79359 0.8897 0.0
C146 C 0.13566 0.82591 0.85708 0.0
C147 C 0.18972 0.87134 0.86333 0.0
C148 C 0.19232 0.78978 0.85452 0.0
O149 O 0.20243 0.83168 0.89052 0.0
O150 O 0.18061 0.80566 0.90743 0.0
C151 C 0.12838 0.81325 0.92783 0.0
N152 N 0.12555 0.80154 0.90994 0.0
C153 C 0.07985 0.79438 0.91797 0.0
C154 C 0.08227 0.80641 0.93645 0.0
C155 C 0.10665 0.81586 0.94141 0.0
C156 C 0.10227 0.79212 0.90517 0.0
H157 H 0.14712 0.82046 0.93177 0.0
C158 C 0.19875 0.81981 0.90652 0.0
O159 O 0.20336 0.85722 0.85326 0.0
O160 O 0.16968 0.86476 0.87435 0.0
N161 N 0.12325 0.78089 0.87444 0.0
C162 C 0.12364 0.77121 0.85522 0.0
C163 C 0.10063 0.76136 0.84767 0.0
C164 C 0.07749 0.76154 0.85996 0.0
C165 C 0.07741 0.77192 0.8795 0.0
C166 C 0.10103 0.78125 0.88632 0.0
H167 H 0.14141 0.77092 0.84577 0.0
O168 O 0.14959 0.83679 0.84369 0.0
O169 O 0.14757 0.82075 0.8746 0.0
O170 O 0.19426 0.8094 0.85051 0.0
O171 O 0.17792 0.78257 0.86936 0.0
C172 C 0.05474 0.77363 0.89233 0.0
C173 C 0.05595 0.78487 0.91154 0.0
H174 H 0.06551 0.8086 0.9469 0.0
H175 H 0.10867 0.82507 0.95571 0.0
H176 H 0.10075 0.75354 0.83248 0.0
H177 H 0.05984 0.75374 0.85419 0.0
H178 H 0.03618 0.76661 0.88743 0.0
H179 H 0.03828 0.78634 0.92112 0.0
Mn180 Mn 0.1864 0.13087 0.83967 0.0
Mn181 Mn 0.15482 0.11123 0.79685 0.0
C182 C 0.1442 0.14279 0.83147 0.0
C183 C 0.19813 0.12942 0.87533 0.0
C184 C 0.19915 0.14336 0.79422 0.0
O185 O 0.20669 0.10372 0.8334 0.0
O186 O 0.18192 0.09091 0.80677 0.0
C187 C 0.12802 0.07428 0.81596 0.0
N188 N 0.1268 0.09254 0.80463 0.0
C189 C 0.08013 0.08808 0.79853 0.0
C190 C 0.0809 0.06917 0.81003 0.0
C191 C 0.10493 0.06229 0.81884 0.0
C192 C 0.10379 0.09932 0.79609 0.0
H193 H 0.14645 0.06893 0.82275 0.0
C194 C 0.20066 0.08918 0.82027 0.0
O195 O 0.21264 0.1392 0.86155 0.0
O196 O 0.17697 0.1201 0.86832 0.0
N197 N 0.12759 0.12908 0.78585 0.0
C198 C 0.12978 0.14856 0.7769 0.0
C199 C 0.10738 0.15799 0.76778 0.0
C200 C 0.08304 0.14728 0.76792 0.0
C201 C 0.08116 0.12743 0.77758 0.0
C202 C 0.10423 0.11867 0.78612 0.0
H203 H 0.1485 0.15676 0.77654 0.0
O204 O 0.16003 0.15412 0.84299 0.0
O205 O 0.15358 0.12476 0.82495 0.0
O206 O 0.2024 0.14578 0.814 0.0
O207 O 0.18274 0.13027 0.78634 0.0
C208 C 0.05724 0.11612 0.7793 0.0
C209 C 0.0567 0.0965 0.78985 0.0
H210 H 0.0631 0.05993 0.8124 0.0
H211 H 0.10565 0.04777 0.82784 0.0
H212 H 0.10888 0.17339 0.76052 0.0
H213 H 0.06588 0.15447 0.76063 0.0
H214 H 0.03906 0.12254 0.77289 0.0
H215 H 0.0381 0.08815 0.79144 0.0
Mn216 Mn 0.82165 0.16315 0.8683 0.0
Mn217 Mn 0.85217 0.20475 0.89125 0.0
C218 C 0.86367 0.17276 0.85767 0.0
C219 C 0.81073 0.12743 0.86672 0.0
C220 C 0.80816 0.20933 0.85904 0.0
O221 O 0.80156 0.16681 0.89589 0.0
O222 O 0.82472 0.19347 0.91081 0.0
C223 C 0.87863 0.18344 0.92715 0.0
N224 N 0.88013 0.19553 0.9094 0.0
C225 C 0.92736 0.19896 0.91304 0.0
C226 C 0.92628 0.18667 0.93144 0.0
C227 C 0.90181 0.17886 0.9385 0.0
C228 C 0.90356 0.20326 0.90254 0.0
H229 H 0.85991 0.17729 0.93259 0.0
C230 C 0.80674 0.17917 0.91128 0.0
O231 O 0.79586 0.14174 0.85813 0.0
O232 O 0.83178 0.13387 0.87659 0.0
N233 N 0.87965 0.21648 0.87403 0.0
C234 C 0.87765 0.2262 0.8549 0.0
C235 C 0.90059 0.23383 0.84498 0.0
C236 C 0.92531 0.23143 0.85483 0.0
C237 C 0.92688 0.22141 0.87453 0.0
C238 C 0.90332 0.21427 0.88375 0.0
H239 H 0.85874 0.22793 0.84715 0.0
O240 O 0.84834 0.16217 0.84504 0.0
O241 O 0.85372 0.17769 0.87596 0.0
O242 O 0.80511 0.1897 0.85556 0.0
O243 O 0.8244 0.21655 0.87267 0.0
C244 C 0.95099 0.21768 0.88508 0.0
C245 C 0.95122 0.20651 0.90435 0.0
H246 H 0.94415 0.18288 0.9401 0.0
H247 H 0.90084 0.16925 0.95261 0.0
H248 H 0.89923 0.24143 0.82972 0.0
H249 H 0.943 0.23712 0.84701 0.0
H250 H 0.96952 0.22298 0.87831 0.0
H251 H 0.96993 0.20338 0.9121 0.0
Mn252 Mn 0.81168 0.86723 0.84112 0.0
Mn253 Mn 0.85068 0.88535 0.80176 0.0
C254 C 0.85394 0.85385 0.83677 0.0
C255 C 0.79584 0.86904 0.87567 0.0
C256 C 0.80467 0.85536 0.79469 0.0
O257 O 0.79437 0.89518 0.83316 0.0
O258 O 0.82361 0.90696 0.80895 0.0
C259 C 0.87689 0.92102 0.82361 0.0
N260 N 0.8786 0.90254 0.81268 0.0
C261 C 0.92621 0.90361 0.81352 0.0
C262 C 0.92495 0.92274 0.82464 0.0
C263 C 0.90018 0.93144 0.82975 0.0
C264 C 0.90233 0.89404 0.80764 0.0
H265 H 0.85791 0.92773 0.82767 0.0
C266 C 0.80315 0.90942 0.82069 0.0
O267 O 0.78235 0.85991 0.8608 0.0
O268 O 0.81813 0.87768 0.87031 0.0
N269 N 0.87807 0.86598 0.79388 0.0
C270 C 0.87582 0.84648 0.78494 0.0
C271 C 0.89879 0.83504 0.77994 0.0
C272 C 0.92381 0.84378 0.7841 0.0
C273 C 0.92563 0.86391 0.79321 0.0
C274 C 0.90205 0.87464 0.79772 0.0
H275 H 0.85666 0.83962 0.7818 0.0
O276 O 0.83609 0.84291 0.84666 0.0
O277 O 0.8464 0.87207 0.82955 0.0
O278 O 0.7983 0.85322 0.81403 0.0
O279 O 0.82323 0.86755 0.78851 0.0
C280 C 0.94991 0.87349 0.79854 0.0
C281 C 0.9502 0.89334 0.80865 0.0
H282 H 0.94287 0.93072 0.8296 0.0
H283 H 0.89904 0.94611 0.83848 0.0
H284 H 0.89721 0.81948 0.77297 0.0
H285 H 0.94149 0.8348 0.78045 0.0
H286 H 0.96845 0.86552 0.79532 0.0
H287 H 0.96897 0.90034 0.81304 0.0
Mn288 Mn 0.68144 0.6623 0.63735 0.0
Mn289 Mn 0.64967 0.70328 0.61452 0.0
C290 C 0.64002 0.67268 0.64927 0.0
C291 C 0.69191 0.62649 0.63911 0.0
C292 C 0.69544 0.7087 0.64502 0.0
O293 O 0.70039 0.6653 0.60906 0.0
O294 O 0.67616 0.6915 0.59461 0.0
C295 C 0.62163 0.6802 0.58053 0.0
N296 N 0.62091 0.69303 0.59779 0.0
C297 C 0.57364 0.69672 0.5951 0.0
C298 C 0.57388 0.68363 0.57724 0.0
C299 C 0.59797 0.67526 0.56999 0.0
C300 C 0.5978 0.70093 0.60507 0.0
H301 H 0.64011 0.67382 0.57482 0.0
C302 C 0.69434 0.67741 0.59366 0.0
O303 O 0.70739 0.64075 0.6471 0.0
O304 O 0.67052 0.63306 0.62983 0.0
N305 N 0.62301 0.71581 0.632 0.0
C306 C 0.62605 0.7276 0.64985 0.0
C307 C 0.60372 0.7367 0.65942 0.0
C308 C 0.57857 0.73382 0.65041 0.0
C309 C 0.57598 0.72183 0.63191 0.0
C310 C 0.59892 0.71308 0.62311 0.0
H311 H 0.64533 0.73001 0.65679 0.0
O312 O 0.65568 0.662 0.66154 0.0
O313 O 0.64913 0.67691 0.63063 0.0
O314 O 0.69881 0.68912 0.64881 0.0
O315 O 0.67829 0.71558 0.6319 0.0
C316 C 0.55152 0.71817 0.62187 0.0
C317 C 0.55036 0.70566 0.60345 0.0
H318 H 0.55567 0.67984 0.56902 0.0
H319 H 0.59831 0.6651 0.55625 0.0
H320 H 0.60589 0.74595 0.67368 0.0
H321 H 0.56139 0.74083 0.65785 0.0
H322 H 0.53342 0.72473 0.62829 0.0
H323 H 0.53139 0.70279 0.596 0.0
Mn324 Mn 0.3191 0.63862 0.65786 0.0
Mn325 Mn 0.35508 0.61635 0.69695 0.0
C326 C 0.36044 0.65179 0.66632 0.0
C327 C 0.30573 0.64033 0.62265 0.0
C328 C 0.30914 0.64604 0.70507 0.0
O329 O 0.30169 0.60988 0.66141 0.0
O330 O 0.32763 0.59619 0.68698 0.0
C331 C 0.38088 0.58287 0.67158 0.0
N332 N 0.3828 0.59985 0.6847 0.0
C333 C 0.43037 0.59787 0.68452 0.0
C334 C 0.42888 0.58026 0.67114 0.0
C335 C 0.40403 0.5728 0.66458 0.0
C336 C 0.40663 0.60731 0.69093 0.0
H337 H 0.36184 0.57703 0.66649 0.0
C338 C 0.30865 0.59486 0.67363 0.0
O339 O 0.2911 0.64783 0.63774 0.0
O340 O 0.32799 0.63164 0.62806 0.0
N341 N 0.38282 0.63384 0.70786 0.0
C342 C 0.38089 0.65147 0.7201 0.0
C343 C 0.40402 0.66109 0.72777 0.0
C344 C 0.42887 0.65239 0.72294 0.0
C345 C 0.43037 0.63415 0.71044 0.0
C346 C 0.40663 0.62518 0.70336 0.0
H347 H 0.36186 0.65818 0.72397 0.0
O348 O 0.34336 0.6636 0.65657 0.0
O349 O 0.35283 0.63272 0.67072 0.0
O350 O 0.30347 0.64929 0.68572 0.0
O351 O 0.32761 0.6336 0.71102 0.0
C352 C 0.45448 0.6246 0.70462 0.0
C353 C 0.45449 0.60657 0.69154 0.0
H354 H 0.44669 0.57244 0.66571 0.0
H355 H 0.40271 0.55926 0.65419 0.0
H356 H 0.4027 0.67517 0.73739 0.0
H357 H 0.44665 0.65988 0.72886 0.0
H358 H 0.47316 0.63109 0.70994 0.0
H359 H 0.47317 0.59957 0.6869 0.0
Mn360 Mn 0.3211 0.33711 0.63584 0.0
Mn361 Mn 0.34276 0.2946 0.60885 0.0
C362 C 0.36309 0.32364 0.64232 0.0
C363 C 0.31421 0.37335 0.63912 0.0
C364 C 0.30263 0.2921 0.64434 0.0
O365 O 0.29631 0.33582 0.6104 0.0
O366 O 0.31572 0.30964 0.59182 0.0
C367 C 0.36907 0.31526 0.57256 0.0
N368 N 0.37035 0.30236 0.58974 0.0
C369 C 0.41549 0.2931 0.58202 0.0
C370 C 0.41461 0.30615 0.56415 0.0
C371 C 0.39138 0.31744 0.55952 0.0
C372 C 0.39283 0.2919 0.59467 0.0
H373 H 0.3511 0.32366 0.56872 0.0
C374 C 0.29886 0.32464 0.59371 0.0
O375 O 0.29973 0.35975 0.64914 0.0
O376 O 0.33276 0.36593 0.62699 0.0
N377 N 0.36942 0.27887 0.62351 0.0
C378 C 0.36672 0.2662 0.64079 0.0
C379 C 0.38834 0.2541 0.64769 0.0
C380 C 0.41232 0.25478 0.63654 0.0
C381 C 0.41442 0.26747 0.61849 0.0
C382 C 0.39231 0.2794 0.61249 0.0
H383 H 0.34824 0.26528 0.64928 0.0
O384 O 0.35131 0.3354 0.65624 0.0
O385 O 0.35002 0.3204 0.62499 0.0
O386 O 0.30376 0.31148 0.64952 0.0
O387 O 0.315 0.28453 0.62848 0.0
C388 C 0.43736 0.26832 0.60592 0.0
C389 C 0.43777 0.28091 0.58758 0.0
H390 H 0.43158 0.30759 0.55381 0.0
H391 H 0.39056 0.32758 0.54578 0.0
H392 H 0.38649 0.24415 0.66148 0.0
H393 H 0.42889 0.24529 0.64182 0.0
H394 H 0.45466 0.2591 0.61004 0.0
H395 H 0.45527 0.28085 0.57776 0.0
Mn396 Mn 0.68172 0.36394 0.66374 0.0
Mn397 Mn 0.651 0.38638 0.70542 0.0
C398 C 0.6404 0.35194 0.67422 0.0
C399 C 0.69187 0.36263 0.62783 0.0
C400 C 0.69633 0.35541 0.70989 0.0
O401 O 0.70104 0.39202 0.66707 0.0
O402 O 0.67761 0.40633 0.69382 0.0
C403 C 0.62282 0.42036 0.68247 0.0
N404 N 0.62231 0.40354 0.69585 0.0
C405 C 0.57512 0.40647 0.70009 0.0
C406 C 0.57518 0.42401 0.68658 0.0
C407 C 0.5991 0.43084 0.67756 0.0
C408 C 0.59934 0.39657 0.70428 0.0
H409 H 0.64117 0.42568 0.67552 0.0
C410 C 0.69565 0.4072 0.67964 0.0
O411 O 0.70742 0.35442 0.64192 0.0
O412 O 0.67057 0.37188 0.63461 0.0
N413 N 0.62443 0.36894 0.71793 0.0
C414 C 0.6274 0.35049 0.72873 0.0
C415 C 0.6052 0.34098 0.73804 0.0
C416 C 0.58027 0.35058 0.73621 0.0
C417 C 0.57763 0.36944 0.72482 0.0
C418 C 0.6005 0.3783 0.71608 0.0
H419 H 0.64656 0.34311 0.73031 0.0
O420 O 0.65602 0.33987 0.66328 0.0
O421 O 0.64954 0.37059 0.67873 0.0
O422 O 0.69924 0.35181 0.69023 0.0
O423 O 0.67965 0.36866 0.71719 0.0
C424 C 0.55319 0.37968 0.7216 0.0
C425 C 0.5519 0.39807 0.70909 0.0
H426 H 0.55694 0.43214 0.68275 0.0
H427 H 0.59926 0.4442 0.66691 0.0
H428 H 0.60732 0.32635 0.7467 0.0
H429 H 0.56334 0.34332 0.74362 0.0
H430 H 0.53522 0.3734 0.72843 0.0
H431 H 0.5329 0.40548 0.70628 0.0
Mn432 Mn 0.68266 0.33605 0.36645 0.0
Mn433 Mn 0.64604 0.29685 0.38767 0.0
C434 C 0.64074 0.32888 0.35352 0.0
C435 C 0.69592 0.37138 0.36646 0.0
C436 C 0.69121 0.28907 0.35699 0.0
O437 O 0.70109 0.33067 0.39457 0.0
O438 O 0.67403 0.30572 0.40779 0.0
C439 C 0.62155 0.32147 0.42231 0.0
N440 N 0.61895 0.30897 0.40491 0.0
C441 C 0.57146 0.30986 0.4075 0.0
C442 C 0.57363 0.32259 0.42554 0.0
C443 C 0.5988 0.32848 0.43292 0.0
C444 C 0.59484 0.3034 0.39755 0.0
H445 H 0.64083 0.3261 0.42804 0.0
C446 C 0.69376 0.31832 0.40939 0.0
O447 O 0.71041 0.35685 0.35773 0.0
O448 O 0.67418 0.36528 0.37543 0.0
N449 N 0.6177 0.28701 0.37015 0.0
C450 C 0.61898 0.27535 0.35209 0.0
C451 C 0.59547 0.26844 0.34248 0.0
C452 C 0.57092 0.27339 0.35165 0.0
C453 C 0.57009 0.28522 0.37035 0.0
C454 C 0.59418 0.2916 0.37925 0.0
H455 H 0.63779 0.27139 0.34503 0.0
O456 O 0.65774 0.33901 0.34198 0.0
O457 O 0.64873 0.32347 0.37222 0.0
O458 O 0.6973 0.30844 0.35412 0.0
O459 O 0.67292 0.28308 0.36959 0.0
C460 C 0.54633 0.29107 0.38043 0.0
C461 C 0.547 0.30352 0.39889 0.0
H462 H 0.55612 0.32805 0.43376 0.0
H463 H 0.60065 0.33841 0.44676 0.0
H464 H 0.59626 0.25931 0.32806 0.0
H465 H 0.55283 0.26807 0.34415 0.0
H466 H 0.52739 0.28622 0.37405 0.0
H467 H 0.52858 0.30818 0.4063 0.0
Mn468 Mn 0.6757 0.63362 0.33924 0.0
Mn469 Mn 0.64446 0.61412 0.29647 0.0
C470 C 0.6344 0.64706 0.32996 0.0
C471 C 0.68654 0.63227 0.37505 0.0
C472 C 0.69171 0.64349 0.29409 0.0
O473 O 0.69449 0.60556 0.33363 0.0
O474 O 0.66762 0.59192 0.30868 0.0
C475 C 0.61055 0.58135 0.316 0.0
N476 N 0.61303 0.59922 0.30421 0.0
C477 C 0.5663 0.59979 0.29686 0.0
C478 C 0.56336 0.58114 0.30847 0.0
C479 C 0.58547 0.57211 0.31841 0.0
C480 C 0.59169 0.60844 0.29519 0.0
H481 H 0.6276 0.57415 0.32336 0.0
C482 C 0.68669 0.59031 0.32195 0.0
O483 O 0.70187 0.6413 0.36134 0.0
O484 O 0.66502 0.6236 0.3679 0.0
N485 N 0.62118 0.63392 0.28312 0.0
C486 C 0.62754 0.65119 0.27129 0.0
C487 C 0.60751 0.66218 0.26052 0.0
C488 C 0.58122 0.65512 0.26169 0.0
C489 C 0.57524 0.63698 0.27344 0.0
C490 C 0.59604 0.62667 0.28386 0.0
H491 H 0.64771 0.65658 0.26997 0.0
O492 O 0.6504 0.65778 0.3419 0.0
O493 O 0.64318 0.62874 0.32391 0.0
O494 O 0.69295 0.64753 0.31373 0.0
O495 O 0.67603 0.62972 0.28633 0.0
C496 C 0.54949 0.62864 0.27508 0.0
C497 C 0.54502 0.61004 0.28677 0.0
H498 H 0.54415 0.5737 0.30999 0.0
H499 H 0.58308 0.55802 0.32782 0.0
H500 H 0.61236 0.67601 0.25126 0.0
H501 H 0.56582 0.66363 0.25337 0.0
H502 H 0.533 0.63633 0.26731 0.0
H503 H 0.52515 0.60371 0.28785 0.0
Mn504 Mn 0.31164 0.6649 0.36445 0.0
Mn505 Mn 0.33695 0.70928 0.38599 0.0
C506 C 0.35392 0.67597 0.35526 0.0
C507 C 0.30297 0.6287 0.36526 0.0
C508 C 0.29488 0.70941 0.35186 0.0
O509 O 0.28844 0.66975 0.39046 0.0
O510 O 0.30988 0.69733 0.40519 0.0
C511 C 0.36373 0.69187 0.42377 0.0
N512 N 0.3648 0.70303 0.40541 0.0
C513 C 0.41086 0.71107 0.41075 0.0
C514 C 0.41024 0.69973 0.42976 0.0
C515 C 0.38659 0.69004 0.43626 0.0
C516 C 0.38745 0.7124 0.39899 0.0
H517 H 0.34557 0.68445 0.42885 0.0
C518 C 0.29225 0.6828 0.40557 0.0
O519 O 0.2885 0.64163 0.35436 0.0
O520 O 0.32248 0.63679 0.37591 0.0
N521 N 0.36379 0.72197 0.36894 0.0
C522 C 0.36158 0.73082 0.34941 0.0
C523 C 0.38368 0.74063 0.34028 0.0
C524 C 0.4077 0.74138 0.35139 0.0
C525 C 0.40962 0.73193 0.37135 0.0
C526 C 0.38691 0.72244 0.37968 0.0
H527 H 0.34309 0.73046 0.34086 0.0
O528 O 0.34065 0.66345 0.34292 0.0
O529 O 0.34204 0.68157 0.37258 0.0
O530 O 0.29466 0.68958 0.34865 0.0
O531 O 0.30887 0.71814 0.36616 0.0
C532 C 0.4332 0.73138 0.38322 0.0
C533 C 0.43387 0.72084 0.40284 0.0
H534 H 0.42786 0.69821 0.4394 0.0
H535 H 0.38598 0.6812 0.45088 0.0
H536 H 0.3822 0.74771 0.32478 0.0
H537 H 0.42447 0.74929 0.34443 0.0
H538 H 0.45099 0.73885 0.37735 0.0
H539 H 0.45224 0.72021 0.41164 0.0
Mn540 Mn 0.32004 0.36633 0.3417 0.0
Mn541 Mn 0.35351 0.3879 0.30094 0.0
C542 C 0.36201 0.35422 0.33318 0.0
C543 C 0.30748 0.36642 0.37712 0.0
C544 C 0.3079 0.35719 0.29542 0.0
O545 O 0.30063 0.3942 0.33649 0.0
O546 O 0.3277 0.40865 0.31218 0.0
C547 C 0.38263 0.42212 0.32284 0.0
N548 N 0.38282 0.40421 0.31091 0.0
C549 C 0.4302 0.40573 0.30728 0.0
C550 C 0.4305 0.42418 0.31949 0.0
C551 C 0.40662 0.43239 0.3273 0.0
C552 C 0.40572 0.39614 0.30338 0.0
H553 H 0.36432 0.4286 0.32878 0.0
C554 C 0.30831 0.40977 0.32519 0.0
O555 O 0.29325 0.35715 0.3628 0.0
O556 O 0.32892 0.37583 0.37087 0.0
N557 N 0.37963 0.36942 0.2891 0.0
C558 C 0.37606 0.35134 0.27776 0.0
C559 C 0.39812 0.34099 0.2691 0.0
C560 C 0.42356 0.34945 0.27193 0.0
C561 C 0.42672 0.36819 0.28342 0.0
C562 C 0.40403 0.37777 0.29177 0.0
H563 H 0.35657 0.34481 0.27533 0.0
O564 O 0.3461 0.34251 0.34421 0.0
O565 O 0.35301 0.37262 0.32782 0.0
O566 O 0.30464 0.35313 0.31494 0.0
O567 O 0.32432 0.37096 0.28868 0.0
C568 C 0.45151 0.37774 0.28691 0.0
C569 C 0.45324 0.39653 0.29879 0.0
H570 H 0.44895 0.4322 0.32293 0.0
H571 H 0.40674 0.44671 0.33655 0.0
H572 H 0.39555 0.32656 0.2602 0.0
H573 H 0.44052 0.3414 0.26524 0.0
H574 H 0.46941 0.37069 0.28066 0.0
H575 H 0.47244 0.40366 0.30148 0.0
H576 H 0.28476 0.31865 0.30165 0.0
H577 H 0.26704 0.29473 0.27483 0.0
H578 H 0.28195 0.34128 0.22665 0.0
H579 H 0.30016 0.36527 0.25332 0.0
H580 H 0.23002 0.31879 0.22471 0.0
H581 H 0.32461 0.3059 0.22953 0.0
H582 H 0.3657 0.29807 0.24902 0.0
H583 H 0.33202 0.24014 0.27173 0.0
H584 H 0.29058 0.24774 0.25253 0.0
H585 H 0.21359 0.25307 0.13609 0.0
H586 H 0.23247 0.27835 0.16101 0.0
H587 H 0.241 0.22886 0.20733 0.0
H588 H 0.22302 0.20336 0.18227 0.0
H589 H 0.28145 0.25359 0.21016 0.0
H590 H 0.18818 0.26458 0.20899 0.0
H591 H 0.14442 0.2707 0.19295 0.0
H592 H 0.17158 0.32965 0.1674 0.0
H593 H 0.21561 0.32383 0.18332 0.0
C594 C 0.2839 0.32399 0.28541 0.0
C595 C 0.29394 0.3439 0.27964 0.0
C596 C 0.27387 0.31024 0.27011 0.0
C597 C 0.27338 0.31621 0.24878 0.0
C598 C 0.28219 0.33641 0.24305 0.0
C599 C 0.29262 0.35007 0.2583 0.0
C600 C 0.26493 0.30093 0.23238 0.0
C601 C 0.24142 0.30469 0.22125 0.0
C602 C 0.27939 0.28221 0.22846 0.0
C603 C 0.30442 0.27749 0.23976 0.0
C604 C 0.3259 0.29157 0.23881 0.0
C605 C 0.34926 0.28717 0.24979 0.0
C606 C 0.35144 0.26867 0.26168 0.0
C607 C 0.33029 0.25448 0.26254 0.0
C608 C 0.30688 0.25881 0.25158 0.0
C609 C 0.21982 0.24748 0.15147 0.0
C610 C 0.21663 0.22616 0.15718 0.0
C611 C 0.23044 0.26201 0.16579 0.0
C612 C 0.23761 0.25565 0.18627 0.0
C613 C 0.23554 0.23421 0.19168 0.0
C614 C 0.22524 0.21961 0.17728 0.0
C615 C 0.24644 0.2714 0.20227 0.0
C616 C 0.27003 0.26773 0.21343 0.0
C617 C 0.23169 0.28995 0.2066 0.0
C618 C 0.20524 0.29367 0.19714 0.0
C619 C 0.18486 0.27879 0.19984 0.0
C620 C 0.16001 0.28221 0.19078 0.0
C621 C 0.15525 0.30049 0.17903 0.0
C622 C 0.17531 0.31547 0.17646 0.0
C623 C 0.20021 0.31215 0.18554 0.0
H624 H 0.136 0.30308 0.17199 0.0
H625 H 0.36955 0.26531 0.27018 0.0
H626 H 0.68223 0.24639 0.3569 0.0
H627 H 0.70214 0.21977 0.33406 0.0
H628 H 0.75017 0.26767 0.30454 0.0
H629 H 0.73058 0.29448 0.32749 0.0
H630 H 0.7005 0.21605 0.29202 0.0
H631 H 0.80882 0.2455 0.28913 0.0
H632 H 0.84071 0.26439 0.31179 0.0
H633 H 0.79987 0.24266 0.36712 0.0
H634 H 0.76795 0.22341 0.34481 0.0
H635 H 0.77222 0.17204 0.20548 0.0
H636 H 0.75118 0.19494 0.23158 0.0
H637 H 0.7926 0.16256 0.28154 0.0
H638 H 0.81395 0.1397 0.25561 0.0
H639 H 0.79729 0.20445 0.28576 0.0
H640 H 0.7265 0.15544 0.27444 0.0
H641 H 0.69446 0.13485 0.25348 0.0
H642 H 0.65996 0.19219 0.23001 0.0
H643 H 0.69204 0.21314 0.25061 0.0
C644 C 0.69723 0.25132 0.34572 0.0
C645 C 0.7048 0.27267 0.34413 0.0
C646 C 0.70849 0.23604 0.33258 0.0
C647 C 0.72771 0.24168 0.31762 0.0
C648 C 0.73559 0.2629 0.31613 0.0
C649 C 0.72432 0.27823 0.32927 0.0
C650 C 0.739 0.22542 0.30328 0.0
C651 C 0.72167 0.21351 0.29066 0.0
C652 C 0.76659 0.22188 0.30168 0.0
C653 C 0.78585 0.23319 0.31527 0.0
C654 C 0.80671 0.24469 0.30613 0.0
C655 C 0.82478 0.25547 0.31892 0.0
C656 C 0.82227 0.25479 0.34088 0.0
C657 C 0.80173 0.24325 0.35011 0.0
C658 C 0.78362 0.23243 0.3374 0.0
C659 C 0.77662 0.16955 0.22203 0.0
C660 C 0.79486 0.15397 0.22837 0.0
C661 C 0.76452 0.18267 0.23696 0.0
C662 C 0.77028 0.18046 0.25854 0.0
C663 C 0.78792 0.1646 0.26497 0.0
C664 C 0.79999 0.15145 0.25009 0.0
C665 C 0.75881 0.19526 0.27431 0.0
C666 C 0.77612 0.20696 0.28714 0.0
C667 C 0.73119 0.1984 0.2763 0.0
C668 C 0.71183 0.18585 0.26393 0.0
C669 C 0.71221 0.16366 0.26468 0.0
C670 C 0.69402 0.15192 0.25289 0.0
C671 C 0.67523 0.1622 0.24038 0.0
C672 C 0.67455 0.18425 0.23968 0.0
C673 C 0.69271 0.19606 0.25143 0.0
H674 H 0.66116 0.15309 0.23127 0.0
H675 H 0.83626 0.26316 0.35075 0.0
H676 H 0.78915 0.7487 0.13833 0.0
H677 H 0.77101 0.72371 0.16388 0.0
H678 H 0.76166 0.774 0.20916 0.0
H679 H 0.77967 0.79925 0.18361 0.0
H680 H 0.78781 0.7377 0.2252 0.0
H681 H 0.70855 0.75528 0.1868 0.0
H682 H 0.68127 0.75983 0.15483 0.0
H683 H 0.69084 0.69416 0.13982 0.0
H684 H 0.7185 0.68927 0.17156 0.0
H685 H 0.71258 0.6825 0.30175 0.0
H686 H 0.73162 0.70693 0.27628 0.0
H687 H 0.72446 0.65977 0.22739 0.0
H688 H 0.70418 0.63552 0.25271 0.0
H689 H 0.70727 0.69466 0.21282 0.0
H690 H 0.78623 0.6761 0.25003 0.0
H691 H 0.81506 0.67056 0.28097 0.0
H692 H 0.80858 0.73623 0.29702 0.0
H693 H 0.77942 0.74211 0.26632 0.0
C694 C 0.78298 0.75454 0.15363 0.0
C695 C 0.78583 0.77601 0.15889 0.0
C696 C 0.77259 0.74021 0.16821 0.0
C697 C 0.76498 0.74702 0.18839 0.0
C698 C 0.76744 0.76845 0.19365 0.0
C699 C 0.77756 0.78287 0.17898 0.0
C700 C 0.75523 0.73157 0.20419 0.0
C701 C 0.76999 0.72847 0.22269 0.0
C702 C 0.73253 0.71906 0.2005 0.0
C703 C 0.71581 0.72196 0.18145 0.0
C704 C 0.70502 0.74184 0.17659 0.0
C705 C 0.68945 0.74448 0.15852 0.0
C706 C 0.68438 0.72731 0.14527 0.0
C707 C 0.69481 0.70745 0.15009 0.0
C708 C 0.71041 0.70473 0.16812 0.0
C709 C 0.71549 0.67714 0.28567 0.0
C710 C 0.70693 0.65699 0.2793 0.0
C711 C 0.72648 0.69117 0.27108 0.0
C712 C 0.72983 0.6852 0.24988 0.0
C713 C 0.72207 0.66481 0.24363 0.0
C714 C 0.71062 0.6509 0.25815 0.0
C715 C 0.73987 0.70062 0.23401 0.0
C716 C 0.72515 0.70378 0.21543 0.0
C717 C 0.76286 0.71297 0.23751 0.0
C718 C 0.78044 0.7095 0.25597 0.0
C719 C 0.79079 0.68933 0.26024 0.0
C720 C 0.80722 0.68613 0.27772 0.0
C721 C 0.81359 0.70302 0.29098 0.0
C722 C 0.8036 0.72316 0.28675 0.0
C723 C 0.78715 0.72643 0.2693 0.0
H724 H 0.82632 0.70052 0.3045 0.0
H725 H 0.67232 0.72938 0.1313 0.0
H726 H 0.28182 0.70177 0.31072 0.0
H727 H 0.26221 0.7266 0.28548 0.0
H728 H 0.2546 0.77316 0.33475 0.0
H729 H 0.27489 0.74866 0.36 0.0
H730 H 0.20754 0.76589 0.30331 0.0
H731 H 0.30129 0.78303 0.30933 0.0
H732 H 0.34848 0.77319 0.30973 0.0
H733 H 0.34149 0.74808 0.24696 0.0
H734 H 0.29408 0.7576 0.24632 0.0
H735 H 0.18471 0.85803 0.24405 0.0
H736 H 0.20274 0.83333 0.26989 0.0
H737 H 0.23643 0.79606 0.2196 0.0
H738 H 0.21909 0.82099 0.19364 0.0
H739 H 0.26977 0.79758 0.25157 0.0
H740 H 0.17795 0.78222 0.24337 0.0
H741 H 0.13028 0.79043 0.24201 0.0
H742 H 0.13203 0.80929 0.30713 0.0
H743 H 0.17987 0.80158 0.30877 0.0
C744 C 0.27556 0.71716 0.31627 0.0
C745 C 0.27993 0.72329 0.33733 0.0
C746 C 0.26443 0.73132 0.30183 0.0
C747 C 0.25702 0.75165 0.30831 0.0
C748 C 0.26014 0.75748 0.32952 0.0
C749 C 0.2718 0.74351 0.34387 0.0
C750 C 0.24789 0.76734 0.29261 0.0
C751 C 0.22111 0.77305 0.29214 0.0
C752 C 0.26556 0.77614 0.27773 0.0
C753 C 0.29412 0.77081 0.27787 0.0
C754 C 0.30977 0.77525 0.29568 0.0
C755 C 0.33656 0.76976 0.29594 0.0
C756 C 0.34797 0.75991 0.27842 0.0
C757 C 0.33262 0.75567 0.26055 0.0
C758 C 0.30579 0.76114 0.26021 0.0
C759 C 0.19619 0.84471 0.23845 0.0
C760 C 0.20027 0.84146 0.21671 0.0
C761 C 0.20637 0.83052 0.25326 0.0
C762 C 0.22048 0.81258 0.24668 0.0
C763 C 0.22552 0.80973 0.22506 0.0
C764 C 0.21554 0.82403 0.21023 0.0
C765 C 0.22927 0.79647 0.26227 0.0
C766 C 0.25605 0.79053 0.26269 0.0
C767 C 0.21145 0.78726 0.27693 0.0
C768 C 0.18256 0.79151 0.27614 0.0
C769 C 0.16821 0.78825 0.25737 0.0
C770 C 0.14116 0.79281 0.25654 0.0
C771 C 0.12815 0.80043 0.27445 0.0
C772 C 0.14215 0.80342 0.29325 0.0
C773 C 0.16924 0.79895 0.29415 0.0
H774 H 0.10721 0.80397 0.27377 0.0
H775 H 0.36871 0.75564 0.27867 0.0
H776 H 0.31764 0.64617 0.74786 0.0
H777 H 0.29737 0.66918 0.77422 0.0
H778 H 0.24922 0.69789 0.72587 0.0
H779 H 0.26911 0.67481 0.69938 0.0
H780 H 0.29891 0.71146 0.77703 0.0
H781 H 0.19058 0.71358 0.74768 0.0
H782 H 0.15872 0.69056 0.72919 0.0
H783 H 0.19968 0.63566 0.75192 0.0
H784 H 0.23156 0.65835 0.77077 0.0
H785 H 0.22695 0.79783 0.82198 0.0
H786 H 0.2469 0.77227 0.79775 0.0
H787 H 0.20839 0.72141 0.83097 0.0
H788 H 0.18829 0.7467 0.85514 0.0
H789 H 0.20213 0.71762 0.78875 0.0
H790 H 0.27356 0.72965 0.83732 0.0
H791 H 0.30554 0.75114 0.85743 0.0
H792 H 0.33866 0.77454 0.79956 0.0
H793 H 0.30663 0.7534 0.77909 0.0
C794 C 0.30249 0.65717 0.74281 0.0
C795 C 0.29503 0.65856 0.72142 0.0
C796 C 0.29104 0.67042 0.75792 0.0
C797 C 0.27174 0.68523 0.75205 0.0
C798 C 0.26386 0.68642 0.73082 0.0
C799 C 0.27531 0.6732 0.71567 0.0
C800 C 0.26044 0.69986 0.76803 0.0
C801 C 0.27775 0.7128 0.77959 0.0
C802 C 0.23285 0.70149 0.77152 0.0
C803 C 0.2136 0.68768 0.76046 0.0
C804 C 0.19272 0.69659 0.7488 0.0
C805 C 0.17467 0.68361 0.73824 0.0
C806 C 0.17722 0.66166 0.73932 0.0
C807 C 0.19778 0.65266 0.75103 0.0
C808 C 0.21587 0.66558 0.76162 0.0
C809 C 0.22287 0.7812 0.82425 0.0
C810 C 0.20601 0.77438 0.84058 0.0
C811 C 0.23433 0.7666 0.81039 0.0
C812 C 0.22917 0.74492 0.81259 0.0
C813 C 0.21258 0.73806 0.82895 0.0
C814 C 0.20123 0.75259 0.84284 0.0
C815 C 0.24059 0.72935 0.79761 0.0
C816 C 0.2233 0.71629 0.78617 0.0
C817 C 0.2682 0.72743 0.79443 0.0
C818 C 0.28753 0.7401 0.80669 0.0
C819 C 0.28753 0.73951 0.82889 0.0
C820 C 0.30568 0.7516 0.84035 0.0
C821 C 0.32407 0.76424 0.82978 0.0
C822 C 0.32438 0.76476 0.80772 0.0
C823 C 0.30625 0.75272 0.79618 0.0
H824 H 0.33812 0.77358 0.83868 0.0
H825 H 0.16324 0.65164 0.73113 0.0
H826 H 0.21877 0.18279 0.80226 0.0
H827 H 0.23663 0.20799 0.7766 0.0
H828 H 0.229 0.16149 0.72726 0.0
H829 H 0.21068 0.13631 0.75269 0.0
H830 H 0.27875 0.18604 0.72772 0.0
H831 H 0.18343 0.19442 0.72877 0.0
H832 H 0.14056 0.20009 0.74644 0.0
H833 H 0.16793 0.25962 0.77043 0.0
H834 H 0.21115 0.25417 0.75308 0.0
H835 H 0.29231 0.25007 0.63789 0.0
H836 H 0.27412 0.22489 0.66319 0.0
H837 H 0.26372 0.27497 0.70861 0.0
H838 H 0.28123 0.30038 0.68325 0.0
H839 H 0.22343 0.24863 0.71091 0.0
H840 H 0.3175 0.24186 0.71122 0.0
H841 H 0.36183 0.23723 0.69569 0.0
H842 H 0.33924 0.17636 0.67186 0.0
H843 H 0.29463 0.18071 0.68714 0.0
C844 C 0.22132 0.1778 0.78603 0.0
C845 C 0.21327 0.15757 0.77948 0.0
C846 C 0.23139 0.19224 0.77139 0.0
C847 C 0.23393 0.18659 0.75006 0.0
C848 C 0.22716 0.16611 0.74367 0.0
C849 C 0.21665 0.15178 0.7582 0.0
C850 C 0.24232 0.20239 0.73419 0.0
C851 C 0.26657 0.1996 0.72382 0.0
C852 C 0.22668 0.22034 0.72961 0.0
C853 C 0.20061 0.22378 0.73982 0.0
C854 C 0.18039 0.20863 0.73796 0.0
C855 C 0.15601 0.21182 0.74789 0.0
C856 C 0.15154 0.23015 0.75963 0.0
C857 C 0.17143 0.2454 0.76137 0.0
C858 C 0.19586 0.24228 0.75147 0.0
C859 C 0.28582 0.25582 0.65315 0.0
C860 C 0.28846 0.27727 0.65855 0.0
C861 C 0.27557 0.24136 0.66766 0.0
C862 C 0.2681 0.24795 0.68799 0.0
C863 C 0.26947 0.26948 0.69307 0.0
C864 C 0.27952 0.28401 0.67851 0.0
C865 C 0.25991 0.23229 0.70421 0.0
C866 C 0.23569 0.23509 0.71472 0.0
C867 C 0.2758 0.21452 0.70918 0.0
C868 C 0.30266 0.2117 0.70014 0.0
C869 C 0.32193 0.22754 0.70255 0.0
C870 C 0.34712 0.22496 0.69381 0.0
C871 C 0.35333 0.20655 0.68271 0.0
C872 C 0.33439 0.19063 0.68043 0.0
C873 C 0.30916 0.19312 0.68916 0.0
H874 H 0.37284 0.20459 0.67592 0.0
H875 H 0.13265 0.23258 0.76732 0.0
H876 H 0.79988 0.25158 0.86591 0.0
H877 H 0.78079 0.2773 0.84134 0.0
H878 H 0.76669 0.22768 0.79612 0.0
H879 H 0.7853 0.20181 0.82063 0.0
H880 H 0.79486 0.26423 0.7802 0.0
H881 H 0.71607 0.24613 0.81954 0.0
H882 H 0.68966 0.24167 0.85197 0.0
H883 H 0.69957 0.3074 0.8666 0.0
H884 H 0.72638 0.31219 0.83439 0.0
H885 H 0.71773 0.3164 0.70325 0.0
H886 H 0.73729 0.29282 0.72934 0.0
H887 H 0.72846 0.34086 0.7772 0.0
H888 H 0.70759 0.36417 0.75128 0.0
H889 H 0.71344 0.30609 0.79299 0.0
H890 H 0.79085 0.32569 0.75471 0.0
H891 H 0.81908 0.3315 0.72349 0.0
H892 H 0.81501 0.26549 0.70837 0.0
H893 H 0.78646 0.25932 0.73935 0.0
C894 C 0.79239 0.24608 0.85086 0.0
C895 C 0.79407 0.22461 0.84528 0.0
C896 C 0.78151 0.26081 0.83685 0.0
C897 C 0.77242 0.25437 0.81692 0.0
C898 C 0.77365 0.23294 0.81143 0.0
C899 C 0.78413 0.21817 0.82553 0.0
C900 C 0.76249 0.27007 0.80147 0.0
C901 C 0.7769 0.27326 0.78282 0.0
C902 C 0.73963 0.28232 0.80534 0.0
C903 C 0.72348 0.27946 0.82468 0.0
C904 C 0.71283 0.25959 0.82977 0.0
C905 C 0.69774 0.25701 0.84809 0.0
C906 C 0.693 0.27422 0.86137 0.0
C907 C 0.70329 0.29407 0.85632 0.0
C908 C 0.71842 0.29673 0.83803 0.0
C909 C 0.72033 0.32209 0.71925 0.0
C910 C 0.71122 0.34222 0.72516 0.0
C911 C 0.73163 0.30858 0.73419 0.0
C912 C 0.73478 0.31509 0.75527 0.0
C913 C 0.72626 0.3354 0.76108 0.0
C914 C 0.71446 0.34878 0.74622 0.0
C915 C 0.74571 0.30032 0.77141 0.0
C916 C 0.73152 0.29726 0.79028 0.0
C917 C 0.76909 0.28844 0.7679 0.0
C918 C 0.78632 0.29208 0.74926 0.0
C919 C 0.79582 0.31243 0.74464 0.0
C920 C 0.8119 0.31579 0.727 0.0
C921 C 0.81878 0.29889 0.71393 0.0
C922 C 0.80965 0.27858 0.7185 0.0
C923 C 0.79354 0.27513 0.73611 0.0
H924 H 0.83124 0.30152 0.70028 0.0
H925 H 0.68131 0.2722 0.87554 0.0
H926 H 0.76673 0.82492 0.80099 0.0
H927 H 0.74841 0.80057 0.77481 0.0
H928 H 0.79366 0.83121 0.7259 0.0
H929 H 0.81235 0.85541 0.75187 0.0
H930 H 0.71968 0.80471 0.7388 0.0
H931 H 0.81747 0.79354 0.69254 0.0
H932 H 0.86551 0.7965 0.69895 0.0
H933 H 0.85353 0.78289 0.76468 0.0
H934 H 0.80552 0.77944 0.75858 0.0
H935 H 0.69187 0.75188 0.64369 0.0
H936 H 0.71158 0.77718 0.66812 0.0
H937 H 0.75178 0.72652 0.70037 0.0
H938 H 0.73241 0.70102 0.67588 0.0
H939 H 0.78305 0.76149 0.69727 0.0
H940 H 0.69481 0.74458 0.71926 0.0
H941 H 0.64667 0.74038 0.71437 0.0
H942 H 0.63923 0.80662 0.70124 0.0
H943 H 0.68744 0.81114 0.70562 0.0
C944 C 0.77261 0.82665 0.78463 0.0
C945 C 0.79124 0.84205 0.77862 0.0
C946 C 0.76206 0.81272 0.76968 0.0
C947 C 0.76998 0.81388 0.74847 0.0
C948 C 0.7876 0.82982 0.74225 0.0
C949 C 0.7982 0.8437 0.75715 0.0
C950 C 0.76079 0.79785 0.73301 0.0
C951 C 0.73352 0.79531 0.72969 0.0
C952 C 0.77887 0.78526 0.72143 0.0
C953 C 0.80786 0.78644 0.72511 0.0
C954 C 0.82511 0.79102 0.70832 0.0
C955 C 0.85234 0.7928 0.71191 0.0
C956 C 0.86255 0.78995 0.73222 0.0
C957 C 0.84559 0.78515 0.74896 0.0
C958 C 0.81837 0.78328 0.74545 0.0
C959 C 0.70523 0.74607 0.65574 0.0
C960 C 0.7103 0.72432 0.6579 0.0
C961 C 0.7164 0.7606 0.66976 0.0
C962 C 0.73278 0.75369 0.68627 0.0
C963 C 0.73911 0.73218 0.68778 0.0
C964 C 0.72794 0.71761 0.67377 0.0
C965 C 0.74196 0.76872 0.70271 0.0
C966 C 0.76922 0.77099 0.7063 0.0
C967 C 0.72385 0.78076 0.71483 0.0
C968 C 0.69478 0.77816 0.71259 0.0
C969 C 0.68294 0.75823 0.71519 0.0
C970 C 0.65564 0.75579 0.71251 0.0
C971 C 0.63991 0.77322 0.70747 0.0
C972 C 0.65145 0.79313 0.70513 0.0
C973 C 0.67876 0.79564 0.70771 0.0
H974 H 0.61878 0.77131 0.70543 0.0
H975 H 0.88362 0.79143 0.73498 0.0
H976 H 0.16811 0.1152 0.90835 0.0
H977 H 0.17631 0.12063 0.94607 0.0
H978 H 0.25064 0.1508 0.93165 0.0
H979 H 0.2426 0.14548 0.89391 0.0
H980 H 0.25292 0.12499 0.96835 0.0
H981 H 0.19984 0.18101 0.93826 0.0
H982 H 0.16181 0.19537 0.9185 0.0
H983 H 0.10825 0.16717 0.96294 0.0
H984 H 0.14599 0.15237 0.98279 0.0
H985 H 0.21558 0.20535 0.05894 0.0
H986 H 0.2233 0.19464 0.02246 0.0
H987 H 0.226 0.12938 0.04182 0.0
H988 H 0.21877 0.14007 0.07852 0.0
H989 H 0.18731 0.17242 0.00223 0.0
H990 H 0.25737 0.10031 0.0025 0.0
H991 H 0.29646 0.08725 0.02186 0.0
H992 H 0.31872 0.15092 0.03694 0.0
H993 H 0.27997 0.16437 0.01745 0.0
C994 C 0.18641 0.12268 0.91321 0.0
C995 C 0.20456 0.13014 0.89814 0.0
C996 C 0.19107 0.12575 0.93477 0.0
C997 C 0.21398 0.13628 0.94163 0.0
C998 C 0.23287 0.14261 0.92669 0.0
C999 C 0.22815 0.13967 0.90512 0.0
C1000 C 0.21691 0.14268 0.96405 0.0
C1001 C 0.23858 0.1353 0.97584 0.0
C1002 C 0.19841 0.15639 0.97369 0.0
C1003 C 0.17571 0.1654 0.96187 0.0
C1004 C 0.17994 0.17774 0.94372 0.0
C1005 C 0.15845 0.18597 0.93252 0.0
C1006 C 0.13263 0.18213 0.93943 0.0
C1007 C 0.12826 0.1701 0.95759 0.0
C1008 C 0.14969 0.16179 0.96882 0.0
C1009 C 0.21876 0.18877 0.05555 0.0
C1010 C 0.2164 0.17355 0.07159 0.0
C1011 C 0.22302 0.18265 0.03466 0.0
C1012 C 0.22491 0.16119 0.02932 0.0
C1013 C 0.2248 0.14604 0.04554 0.0
C1014 C 0.22077 0.15219 0.06656 0.0
C1015 C 0.22337 0.15477 0.00676 0.0
C1016 C 0.20175 0.16208 0.99488 0.0
C1017 C 0.24207 0.14119 0.99711 0.0
C1018 C 0.26561 0.13332 0.00868 0.0
C1019 C 0.27067 0.11152 0.00988 0.0
C1020 C 0.29275 0.10405 0.02089 0.0
C1021 C 0.31002 0.11824 0.03068 0.0
C1022 C 0.30527 0.13994 0.02942 0.0
C1023 C 0.28322 0.14749 0.01842 0.0
H1024 H 0.3271 0.11242 0.0392 0.0
H1025 H 0.11601 0.18853 0.93074 0.0
H1026 H 0.80693 0.14094 0.92963 0.0
H1027 H 0.80048 0.13315 0.9668 0.0
H1028 H 0.77516 0.19746 0.97751 0.0
H1029 H 0.78446 0.20571 0.94041 0.0
H1030 H 0.80578 0.18984 0.00569 0.0
H1031 H 0.73308 0.14861 0.98207 0.0
H1032 H 0.70878 0.12271 0.9604 0.0
H1033 H 0.76036 0.07333 0.98198 0.0
H1034 H 0.7852 0.09897 0.00356 0.0
H1035 H 0.77652 0.16341 0.11323 0.0
H1036 H 0.76776 0.16971 0.07573 0.0
H1037 H 0.82553 0.12248 0.05904 0.0
H1038 H 0.83488 0.11637 0.09659 0.0
H1039 H 0.77265 0.12243 0.03548 0.0
H1040 H 0.84674 0.16782 0.05653 0.0
H1041 H 0.86703 0.19498 0.07927 0.0
H1042 H 0.80491 0.23841 0.06323 0.0
H1043 H 0.78405 0.21136 0.04062 0.0
C1044 C 0.7992 0.15324 0.93981 0.0
C1045 C 0.79581 0.17385 0.93216 0.0
C1046 C 0.79534 0.14875 0.96117 0.0
C1047 C 0.78679 0.16455 0.97522 0.0
C1048 C 0.78183 0.18492 0.96717 0.0
C1049 C 0.78681 0.18963 0.94593 0.0
C1050 C 0.78605 0.16042 0.99847 0.0
C1051 C 0.79785 0.17527 0.01207 0.0
C1052 C 0.77614 0.14131 0.00719 0.0
C1053 C 0.7611 0.12577 0.99436 0.0
C1054 C 0.73933 0.13225 0.98211 0.0
C1055 C 0.72545 0.11761 0.96985 0.0
C1056 C 0.73305 0.09639 0.96979 0.0
C1057 C 0.75449 0.08977 0.98204 0.0
C1058 C 0.76845 0.10434 0.99433 0.0
C1059 C 0.78719 0.1542 0.1016 0.0
C1060 C 0.80649 0.13945 0.10784 0.0
C1061 C 0.78214 0.15783 0.0802 0.0
C1062 C 0.796 0.14656 0.06469 0.0
C1063 C 0.81457 0.13126 0.07084 0.0
C1064 C 0.81997 0.12787 0.09225 0.0
C1065 C 0.79242 0.15173 0.04206 0.0
C1066 C 0.77997 0.13707 0.02879 0.0
C1067 C 0.80096 0.17123 0.03369 0.0
C1068 C 0.8137 0.18751 0.04709 0.0
C1069 C 0.8373 0.1831 0.058 0.0
C1070 C 0.84892 0.19848 0.07084 0.0
C1071 C 0.83723 0.21839 0.07275 0.0
C1072 C 0.81393 0.22297 0.06177 0.0
C1073 C 0.80221 0.20763 0.04893 0.0
H1074 H 0.84625 0.23028 0.08269 0.0
H1075 H 0.72229 0.08508 0.96027 0.0
H1076 H 0.82081 0.88593 0.90998 0.0
H1077 H 0.81122 0.87901 0.94717 0.0
H1078 H 0.74301 0.84218 0.92933 0.0
H1079 H 0.75233 0.84915 0.89203 0.0
H1080 H 0.73502 0.8656 0.96689 0.0
H1081 H 0.79821 0.81692 0.93675 0.0
H1082 H 0.83883 0.80767 0.91723 0.0
H1083 H 0.88583 0.84051 0.96322 0.0
H1084 H 0.84541 0.85019 0.98288 0.0
H1085 H 0.78552 0.79054 0.05829 0.0
H1086 H 0.77579 0.79961 0.02168 0.0
H1087 H 0.76128 0.86418 0.03998 0.0
H1088 H 0.77059 0.85516 0.07675 0.0
H1089 H 0.8076 0.8255 0.00125 0.0
H1090 H 0.72471 0.88877 0.00077 0.0
H1091 H 0.68318 0.89678 0.01961 0.0
H1092 H 0.67333 0.8311 0.03444 0.0
H1093 H 0.7146 0.82265 0.01546 0.0
C1094 C 0.80346 0.87671 0.91395 0.0
C1095 C 0.78754 0.86783 0.89805 0.0
C1096 C 0.798 0.87278 0.93522 0.0
C1097 C 0.77662 0.85984 0.94096 0.0
C1098 C 0.75961 0.85219 0.92521 0.0
C1099 C 0.76505 0.85612 0.90391 0.0
C1100 C 0.77395 0.85231 0.96304 0.0
C1101 C 0.75085 0.85686 0.97448 0.0
C1102 C 0.79441 0.84055 0.97274 0.0
C1103 C 0.81878 0.83442 0.96118 0.0
C1104 C 0.8172 0.82227 0.94264 0.0
C1105 C 0.84018 0.81694 0.93156 0.0
C1106 C 0.86489 0.82353 0.93896 0.0
C1107 C 0.86667 0.83542 0.9575 0.0
C1108 C 0.84373 0.84082 0.96863 0.0
C1109 C 0.77936 0.80652 0.05467 0.0
C1110 C 0.77912 0.82217 0.07043 0.0
C1111 C 0.77391 0.8117 0.03369 0.0
C1112 C 0.76812 0.83262 0.02802 0.0
C1113 C 0.76552 0.8479 0.04397 0.0
C1114 C 0.7708 0.84269 0.06504 0.0
C1115 C 0.76868 0.83889 0.00541 0.0
C1116 C 0.7916 0.83417 0.99379 0.0
C1117 C 0.74791 0.85026 0.99559 0.0
C1118 C 0.7229 0.85512 0.00685 0.0
C1119 C 0.71363 0.87602 0.00798 0.0
C1120 C 0.69014 0.88064 0.0187 0.0
C1121 C 0.67567 0.86447 0.02827 0.0
C1122 C 0.68462 0.84363 0.02709 0.0
C1123 C 0.70809 0.83892 0.01639 0.0
H1124 H 0.6575 0.86808 0.03657 0.0
H1125 H 0.88265 0.81938 0.93036 0.0
H1126 H 0.2169 0.83432 0.10139 0.0
H1127 H 0.22716 0.82955 0.06418 0.0
H1128 H 0.20851 0.89514 0.05251 0.0
H1129 H 0.19564 0.8992 0.08964 0.0
H1130 H 0.1895 0.8765 0.02327 0.0
H1131 H 0.27587 0.87109 0.0501 0.0
H1132 H 0.31272 0.86001 0.07309 0.0
H1133 H 0.30278 0.79578 0.0529 0.0
H1134 H 0.26561 0.8064 0.03001 0.0
H1135 H 0.22348 0.85685 0.91681 0.0
H1136 H 0.23492 0.86879 0.95236 0.0
H1137 H 0.21635 0.80713 0.97704 0.0
H1138 H 0.20459 0.79505 0.94162 0.0
H1139 H 0.26147 0.82986 0.99748 0.0
H1140 H 0.16861 0.84074 0.97338 0.0
H1141 H 0.13667 0.85672 0.94854 0.0
H1142 H 0.16737 0.91833 0.96235 0.0
H1143 H 0.19981 0.90276 0.98698 0.0
C1144 C 0.21529 0.84776 0.09088 0.0
C1145 C 0.2056 0.86714 0.09829 0.0
C1146 C 0.22149 0.84512 0.06958 0.0
C1147 C 0.21937 0.86209 0.05534 0.0
C1148 C 0.21038 0.88172 0.063 0.0
C1149 C 0.20312 0.88411 0.08422 0.0
C1150 C 0.22424 0.85872 0.03229 0.0
C1151 C 0.20573 0.86674 0.01777 0.0
C1152 C 0.24544 0.8461 0.02465 0.0
C1153 C 0.26782 0.83956 0.0384 0.0
C1154 C 0.28141 0.85458 0.05066 0.0
C1155 C 0.30238 0.84838 0.06367 0.0
C1156 C 0.31006 0.8272 0.06448 0.0
C1157 C 0.29681 0.81218 0.05225 0.0
C1158 C 0.27582 0.81829 0.03922 0.0
C1159 C 0.22272 0.84556 0.92964 0.0
C1160 C 0.21278 0.82504 0.9264 0.0
C1161 C 0.2292 0.85248 0.94997 0.0
C1162 C 0.22613 0.83891 0.9673 0.0
C1163 C 0.21881 0.81783 0.96384 0.0
C1164 C 0.21203 0.81097 0.94358 0.0
C1165 C 0.22649 0.84723 0.98914 0.0
C1166 C 0.24582 0.84005 0.00328 0.0
C1167 C 0.20679 0.86137 0.99631 0.0
C1168 C 0.1868 0.87058 0.98185 0.0
C1169 C 0.16866 0.85768 0.97103 0.0
C1170 C 0.15047 0.86665 0.957 0.0
C1171 C 0.15004 0.88847 0.95385 0.0
C1172 C 0.16775 0.90142 0.96477 0.0
C1173 C 0.18604 0.89254 0.97876 0.0
H1174 H 0.13594 0.89536 0.94297 0.0
H1175 H 0.3263 0.82244 0.07456 0.0
H1176 H 0.10757 0.1532 0.12447 0.0
H1177 H 0.06044 0.15093 0.13087 0.0
H1178 H 0.06472 0.20692 0.16989 0.0
H1179 H 0.1129 0.20596 0.16703 0.0
H1180 H 0.03458 0.18663 0.18766 0.0
H1181 H 0.0197 0.19872 0.10846 0.0
H1182 H 0.02506 0.19046 0.0704 0.0
H1183 H 0.01746 0.12438 0.08362 0.0
H1184 H 0.01065 0.13229 0.12141 0.0
H1185 H 0.88747 0.18668 0.18547 0.0
H1186 H 0.93393 0.19706 0.18104 0.0
H1187 H 0.95369 0.13314 0.16363 0.0
H1188 H 0.90711 0.12355 0.16559 0.0
H1189 H 0.96889 0.16251 0.13494 0.0
H1190 H 0.0063 0.15565 0.21607 0.0
H1191 H 0.99878 0.16454 0.25358 0.0
H1192 H 0.96078 0.22237 0.23529 0.0
H1193 H 0.96907 0.21412 0.19778 0.0
C1194 C 0.09823 0.16511 0.13425 0.0
C1195 C 0.11362 0.18025 0.14467 0.0
C1196 C 0.07092 0.16419 0.13749 0.0
C1197 C 0.05797 0.17932 0.15011 0.0
C1198 C 0.07365 0.19491 0.16004 0.0
C1199 C 0.10126 0.19476 0.15807 0.0
C1200 C 0.0289 0.17762 0.15497 0.0
C1201 C 0.02035 0.18192 0.17574 0.0
C1202 C 0.00965 0.1708 0.14006 0.0
C1203 C 0.01563 0.16606 0.11772 0.0
C1204 C 0.01972 0.18245 0.10322 0.0
C1205 C 0.02276 0.17785 0.08173 0.0
C1206 C 0.0223 0.15694 0.07472 0.0
C1207 C 0.01814 0.14056 0.08909 0.0
C1208 C 0.0144 0.14509 0.11047 0.0
C1209 C 0.90196 0.17482 0.18119 0.0
C1210 C 0.89397 0.15403 0.17687 0.0
C1211 C 0.92862 0.18067 0.17904 0.0
C1212 C 0.94768 0.16569 0.17291 0.0
C1213 C 0.93956 0.14488 0.16892 0.0
C1214 C 0.91296 0.13928 0.17035 0.0
C1215 C 0.97513 0.17188 0.16719 0.0
C1216 C 0.9833 0.16806 0.1464 0.0
C1217 C 0.99384 0.17941 0.18192 0.0
C1218 C 0.98709 0.18377 0.20418 0.0
C1219 C 0.99597 0.17009 0.22011 0.0
C1220 C 0.99195 0.17516 0.24135 0.0
C1221 C 0.97903 0.1939 0.24682 0.0
C1222 C 0.97043 0.20772 0.23104 0.0
C1223 C 0.97477 0.20284 0.20979 0.0
H1224 H 0.97581 0.19776 0.26327 0.0
H1225 H 0.0248 0.15346 0.0581 0.0
H1226 H 0.76594 0.89234 0.15602 0.0
H1227 H 0.76111 0.93041 0.16134 0.0
H1228 H 0.82327 0.94176 0.11605 0.0
H1229 H 0.82848 0.90375 0.1109 0.0
H1230 H 0.83312 0.96158 0.15149 0.0
H1231 H 0.7585 0.95514 0.10571 0.0
H1232 H 0.71606 0.94067 0.09306 0.0
H1233 H 0.67814 0.96033 0.15046 0.0
H1234 H 0.72046 0.97465 0.16361 0.0
H1235 H 0.78811 0.07697 0.1452 0.0
H1236 H 0.77948 0.04024 0.1351 0.0
H1237 H 0.80815 0.01924 0.19569 0.0
H1238 H 0.81712 0.05568 0.20579 0.0
H1239 H 0.75161 0.00527 0.14966 0.0
H1240 H 0.8491 0.97942 0.18888 0.0
H1241 H 0.89344 0.99336 0.19751 0.0
H1242 H 0.88714 0.03803 0.1467 0.0
H1243 H 0.84281 0.02447 0.13797 0.0
C1244 C 0.77832 0.90296 0.14695 0.0
C1245 C 0.79778 0.89502 0.13317 0.0
C1246 C 0.77541 0.92474 0.14992 0.0
C1247 C 0.79177 0.93898 0.13906 0.0
C1248 C 0.81045 0.93108 0.12464 0.0
C1249 C 0.81341 0.90933 0.12171 0.0
C1250 C 0.79146 0.96187 0.1443 0.0
C1251 C 0.81523 0.97106 0.15102 0.0
C1252 C 0.76821 0.97438 0.14358 0.0
C1253 C 0.74273 0.9658 0.13572 0.0
C1254 C 0.74117 0.95622 0.11572 0.0
C1255 C 0.71712 0.94807 0.10844 0.0
C1256 C 0.69444 0.94953 0.12097 0.0
C1257 C 0.69574 0.95919 0.14079 0.0
C1258 C 0.71975 0.96734 0.14815 0.0
C1259 C 0.79193 0.06458 0.15659 0.0
C1260 C 0.80364 0.06928 0.17621 0.0
C1261 C 0.78701 0.04358 0.15076 0.0
C1262 C 0.79368 0.02698 0.16447 0.0
C1263 C 0.8033 0.03177 0.1847 0.0
C1264 C 0.80836 0.05266 0.19047 0.0
C1265 C 0.7932 0.0047 0.15707 0.0
C1266 C 0.76937 0.99566 0.15007 0.0
C1267 C 0.81646 0.99225 0.15718 0.0
C1268 C 0.84262 0.00107 0.16291 0.0
C1269 C 0.85719 0.99229 0.17965 0.0
C1270 C 0.88229 1.00014 0.18459 0.0
C1271 C 0.89309 0.01662 0.17274 0.0
C1272 C 0.87873 0.02539 0.15602 0.0
C1273 C 0.85356 0.01769 0.15112 0.0
H1274 H 0.91266 0.02248 0.17647 0.0
H1275 H 0.67584 0.94322 0.11531 0.0
H1276 H 0.89258 0.82929 0.10906 0.0
H1277 H 0.94017 0.82728 0.11208 0.0
H1278 H 0.93247 0.82976 0.18012 0.0
H1279 H 0.88465 0.82593 0.17652 0.0
H1280 H 0.97209 0.8502 0.12032 0.0
H1281 H 0.98768 0.82428 0.20696 0.0
H1282 H 0.96929 0.79953 0.23325 0.0
H1283 H 0.94144 0.75927 0.18347 0.0
H1284 H 0.95989 0.78381 0.15683 0.0
H1285 H 0.09909 0.8811 0.14632 0.0
H1286 H 0.05191 0.87423 0.14416 0.0
H1287 H 0.06588 0.8087 0.1597 0.0
H1288 H 0.11318 0.81646 0.16432 0.0
H1289 H 0.02485 0.81785 0.17769 0.0
H1290 H 0.04925 0.82945 0.10641 0.0
H1291 H 0.06992 0.84735 0.07602 0.0
H1292 H 0.02082 0.90172 0.08632 0.0
H1293 H 7e-05 0.88425 0.11694 0.0
C1294 C 0.90116 0.82734 0.12456 0.0
C1295 C 0.88498 0.82553 0.14236 0.0
C1296 C 0.92861 0.82724 0.12646 0.0
C1297 C 0.94082 0.82785 0.14646 0.0
C1298 C 0.92434 0.82786 0.16445 0.0
C1299 C 0.89678 0.8261 0.16242 0.0
C1300 C 0.97036 0.83023 0.14802 0.0
C1301 C 0.98338 0.84255 0.13268 0.0
C1302 C 0.98593 0.82069 0.16413 0.0
C1303 C 0.97476 0.80596 0.17994 0.0
C1304 C 0.97762 0.81014 0.20163 0.0
C1305 C 0.96719 0.79618 0.21657 0.0
C1306 C 0.95406 0.77791 0.21 0.0
C1307 C 0.95143 0.77352 0.18847 0.0
C1308 C 0.9618 0.78744 0.17347 0.0
C1309 C 0.09194 0.86535 0.14975 0.0
C1310 C 0.10938 0.84954 0.15646 0.0
C1311 C 0.06498 0.86125 0.14797 0.0
C1312 C 0.05504 0.84081 0.1514 0.0
C1313 C 0.07283 0.82467 0.15716 0.0
C1314 C 0.09984 0.82902 0.15966 0.0
C1315 C 0.02613 0.83655 0.14931 0.0
C1316 C 0.01332 0.82454 0.16488 0.0
C1317 C 0.01093 0.845 0.13254 0.0
C1318 C 0.02323 0.85558 0.11405 0.0
C1319 C 0.04295 0.84527 0.10225 0.0
C1320 C 0.05468 0.85533 0.08498 0.0
C1321 C 0.04672 0.87567 0.07926 0.0
C1322 C 0.02697 0.88597 0.09077 0.0
C1323 C 0.01519 0.87598 0.10807 0.0
H1324 H 0.05583 0.88344 0.06589 0.0
H1325 H 0.94601 0.76712 0.22158 0.0
H1326 H 0.23676 0.11081 0.15247 0.0
H1327 H 0.24503 0.07312 0.15719 0.0
H1328 H 0.1673 0.0592 0.13253 0.0
H1329 H 0.15936 0.09691 0.12703 0.0
H1330 H 0.22402 0.04585 0.18115 0.0
H1331 H 0.16467 0.01162 0.10983 0.0
H1332 H 0.1545 0.02116 0.07295 0.0
H1333 H 0.22429 0.05976 0.07033 0.0
H1334 H 0.23509 0.05021 0.10709 0.0
H1335 H 0.17682 0.94386 0.19953 0.0
H1336 H 0.18674 0.98061 0.1923 0.0
H1337 H 0.23574 0.96215 0.13965 0.0
H1338 H 0.22513 0.92503 0.14638 0.0
H1339 H 0.20352 0.99133 0.12735 0.0
H1340 H 0.26243 0.98579 0.18485 0.0
H1341 H 0.27807 0.97616 0.22045 0.0
H1342 H 0.21971 0.01689 0.24819 0.0
H1343 H 0.20344 0.02655 0.21277 0.0
C1344 C 0.22151 0.09971 0.14787 0.0
C1345 C 0.1974 0.10683 0.13935 0.0
C1346 C 0.22625 0.07814 0.15063 0.0
C1347 C 0.20694 0.0632 0.14506 0.0
C1348 C 0.18281 0.07032 0.13652 0.0
C1349 C 0.1782 0.0919 0.13349 0.0
C1350 C 0.21151 0.04029 0.14909 0.0
C1351 C 0.21969 0.03395 0.16933 0.0
C1352 C 0.20676 0.02469 0.13351 0.0
C1353 C 0.20056 0.03032 0.11129 0.0
C1354 C 0.17792 0.02205 0.10136 0.0
C1355 C 0.17203 0.02748 0.08048 0.0
C1356 C 0.1887 0.0411 0.06933 0.0
C1357 C 0.21135 0.04927 0.07901 0.0
C1358 C 0.21734 0.04387 0.09988 0.0
C1359 C 0.1902 0.94746 0.18666 0.0
C1360 C 0.20002 0.93137 0.17347 0.0
C1361 C 0.19597 0.9686 0.1826 0.0
C1362 C 0.21209 0.97426 0.16546 0.0
C1363 C 0.22319 0.9582 0.15294 0.0
C1364 C 0.21729 0.93695 0.15694 0.0
C1365 C 0.21508 0.99692 0.15963 0.0
C1366 C 0.20826 0.00324 0.13907 0.0
C1367 C 0.2219 0.0125 0.17472 0.0
C1368 C 0.23162 0.00681 0.19612 0.0
C1369 C 0.2528 0.99259 0.19854 0.0
C1370 C 0.2618 0.98714 0.21869 0.0
C1371 C 0.24987 0.99589 0.23657 0.0
C1372 C 0.22894 0.01013 0.23433 0.0
C1373 C 0.21985 0.01563 0.21421 0.0
H1374 H 0.25686 0.99164 0.25216 0.0
H1375 H 0.18409 0.0453 0.05317 0.0
H1376 H 0.87834 0.81563 0.83147 0.0
H1377 H 0.92551 0.80773 0.83672 0.0
H1378 H 0.9394 0.87321 0.85254 0.0
H1379 H 0.89231 0.88019 0.84981 0.0
H1380 H 0.96688 0.81657 0.81941 0.0
H1381 H 0.99052 0.88329 0.88042 0.0
H1382 H 0.96914 0.90054 0.9109 0.0
H1383 H 0.92019 0.84596 0.92041 0.0
H1384 H 0.94149 0.82826 0.89016 0.0
H1385 H 0.10668 0.82479 0.82062 0.0
H1386 H 0.05888 0.82864 0.81709 0.0
H1387 H 0.05154 0.82785 0.8852 0.0
H1388 H 0.09913 0.83006 0.88797 0.0
H1389 H 0.01881 0.84967 0.87684 0.0
H1390 H 0.03195 0.78312 0.84135 0.0
H1391 H 0.05082 0.75813 0.81533 0.0
H1392 H 0.02289 0.79715 0.76459 0.0
H1393 H 0.00409 0.82234 0.79027 0.0
C1394 C 0.89163 0.82814 0.83632 0.0
C1395 C 0.8821 0.84869 0.83943 0.0
C1396 C 0.91857 0.82372 0.83919 0.0
C1397 C 0.9363 0.8398 0.84521 0.0
C1398 C 0.92637 0.86026 0.84854 0.0
C1399 C 0.89947 0.86443 0.84642 0.0
C1400 C 0.96519 0.83551 0.84762 0.0
C1401 C 0.97823 0.82342 0.83224 0.0
C1402 C 0.98014 0.84406 0.86449 0.0
C1403 C 0.9675 0.85451 0.88292 0.0
C1404 C 0.97532 0.87491 0.8891 0.0
C1405 C 0.96317 0.88478 0.90631 0.0
C1406 C 0.94328 0.87437 0.91755 0.0
C1407 C 0.93554 0.85403 0.91165 0.0
C1408 C 0.94763 0.84408 0.89446 0.0
C1409 C 0.09463 0.82536 0.83475 0.0
C1410 C 0.10655 0.82528 0.85477 0.0
C1411 C 0.06707 0.82711 0.83277 0.0
C1412 C 0.05065 0.82749 0.85081 0.0
C1413 C 0.06299 0.82748 0.87077 0.0
C1414 C 0.09046 0.82766 0.87257 0.0
C1415 C 0.02103 0.82954 0.84924 0.0
C1416 C 0.00773 0.84184 0.86447 0.0
C1417 C 0.00565 0.81969 0.8332 0.0
C1418 C 0.01701 0.80468 0.81773 0.0
C1419 C 0.0301 0.78638 0.82464 0.0
C1420 C 0.04072 0.77221 0.80997 0.0
C1421 C 0.03819 0.77613 0.78835 0.0
C1422 C 0.02491 0.79417 0.78134 0.0
C1423 C 0.01425 0.80837 0.79594 0.0
H1424 H 0.04642 0.76514 0.77703 0.0
H1425 H 0.93388 0.88204 0.93085 0.0
H1426 H 0.15687 0.90507 0.86877 0.0
H1427 H 0.1671 0.94232 0.86268 0.0
H1428 H 0.24843 0.92595 0.84953 0.0
H1429 H 0.23778 0.8886 0.85433 0.0
H1430 H 0.19547 0.97096 0.87839 0.0
H1431 H 0.2755 0.95888 0.81412 0.0
H1432 H 0.28809 0.93287 0.78688 0.0
H1433 H 0.20763 0.91131 0.78331 0.0
H1434 H 0.19453 0.93735 0.81033 0.0
H1435 H 0.23196 0.07443 0.8527 0.0
H1436 H 0.24065 0.03735 0.86104 0.0
H1437 H 0.20335 0.01863 0.80267 0.0
H1438 H 0.19559 0.05538 0.79385 0.0
H1439 H 0.23966 0.99147 0.8115 0.0
H1440 H 0.16776 0.02407 0.84932 0.0
H1441 H 0.14793 0.05094 0.87265 0.0
H1442 H 0.19916 0.03158 0.9232 0.0
H1443 H 0.21957 0.00477 0.90002 0.0
C1444 C 0.17693 0.90947 0.86465 0.0
C1445 C 0.19645 0.89397 0.86172 0.0
C1446 C 0.18283 0.93078 0.86124 0.0
C1447 C 0.20846 0.93702 0.85522 0.0
C1448 C 0.22832 0.92157 0.85353 0.0
C1449 C 0.22227 0.90023 0.85638 0.0
C1450 C 0.21396 0.95952 0.8499 0.0
C1451 C 0.20532 0.97537 0.86382 0.0
C1452 C 0.22651 0.96549 0.83077 0.0
C1453 C 0.23414 0.94987 0.81443 0.0
C1454 C 0.2605 0.94861 0.80748 0.0
C1455 C 0.26772 0.93386 0.79209 0.0
C1456 C 0.24869 0.92039 0.78344 0.0
C1457 C 0.22237 0.92169 0.79009 0.0
C1458 C 0.21505 0.93642 0.80546 0.0
C1459 C 0.22645 0.06247 0.84129 0.0
C1460 C 0.21256 0.06791 0.8228 0.0
C1461 C 0.23125 0.04124 0.84617 0.0
C1462 C 0.22193 0.02516 0.83278 0.0
C1463 C 0.21054 0.03069 0.81336 0.0
C1464 C 0.206 0.05182 0.80838 0.0
C1465 C 0.22086 0.00278 0.83983 0.0
C1466 C 0.23033 0.98698 0.82626 0.0
C1467 C 0.20798 0.99684 0.85879 0.0
C1468 C 0.19538 0.0126 0.8729 0.0
C1469 C 0.17486 0.02561 0.86539 0.0
C1470 C 0.16353 0.04083 0.87857 0.0
C1471 C 0.17233 0.04301 0.89938 0.0
C1472 C 0.19241 0.0299 0.90707 0.0
C1473 C 0.20386 0.01469 0.89392 0.0
H1474 H 0.16357 0.05482 0.90956 0.0
H1475 H 0.25432 0.90897 0.77153 0.0
H1476 H 0.10378 0.11517 0.8348 0.0
H1477 H 0.05683 0.12219 0.8336 0.0
H1478 H 0.07347 0.18918 0.83657 0.0
H1479 H 0.12049 0.18163 0.83199 0.0
H1480 H 0.02689 0.13287 0.85727 0.0
H1481 H 0.02213 0.22023 0.83233 0.0
H1482 H 0.04374 0.2452 0.80786 0.0
H1483 H 0.0635 0.19407 0.76625 0.0
H1484 H 0.04179 0.1688 0.79057 0.0
H1485 H 0.90142 0.16254 0.88585 0.0
H1486 H 0.94902 0.16193 0.88077 0.0
H1487 H 0.9381 0.17715 0.81482 0.0
H1488 H 0.89027 0.18078 0.8209 0.0
H1489 H 0.98048 0.19371 0.825 0.0
H1490 H 0.94945 0.12384 0.83566 0.0
H1491 H 0.92547 0.09476 0.85311 0.0
H1492 H 0.97377 0.10214 0.90843 0.0
H1493 H 0.99782 0.13146 0.89141 0.0
C1494 C 0.09725 0.13133 0.83319 0.0
C1495 C 0.11563 0.14769 0.83129 0.0
C1496 C 0.07022 0.13552 0.83354 0.0
C1497 C 0.06073 0.15642 0.83453 0.0
C1498 C 0.07947 0.17294 0.83444 0.0
C1499 C 0.10657 0.16863 0.83224 0.0
C1500 C 0.0316 0.16036 0.83732 0.0
C1501 C 0.01699 0.146 0.84967 0.0
C1502 C 0.01788 0.17759 0.82795 0.0
C1503 C 0.03079 0.19263 0.81333 0.0
C1504 C 0.0311 0.21434 0.81795 0.0
C1505 C 0.04337 0.22852 0.80415 0.0
C1506 C 0.05516 0.22118 0.78559 0.0
C1507 C 0.05457 0.19966 0.78074 0.0
C1508 C 0.04237 0.18541 0.79452 0.0
C1509 C 0.9093 0.16667 0.87051 0.0
C1510 C 0.89242 0.17274 0.85405 0.0
C1511 C 0.93652 0.16571 0.86741 0.0
C1512 C 0.94737 0.16895 0.84725 0.0
C1513 C 0.93038 0.17468 0.83057 0.0
C1514 C 0.90308 0.1766 0.83397 0.0
C1515 C 0.97618 0.16544 0.84358 0.0
C1516 C 0.99064 0.1802 0.83173 0.0
C1517 C 0.98954 0.14769 0.85202 0.0
C1518 C 0.9753 0.12994 0.86231 0.0
C1519 C 0.95487 0.11932 0.85159 0.0
C1520 C 0.94127 0.1028 0.8614 0.0
C1521 C 0.94806 0.09663 0.88188 0.0
C1522 C 0.96852 0.10694 0.89257 0.0
C1523 C 0.98217 0.1235 0.88284 0.0
H1524 H 0.93749 0.08385 0.88946 0.0
H1525 H 0.06465 0.23217 0.77492 0.0
H1526 H 0.81312 0.94301 0.79479 0.0
H1527 H 0.80541 0.98007 0.80281 0.0
H1528 H 0.76073 0.96245 0.85808 0.0
H1529 H 0.76882 0.92517 0.85044 0.0
H1530 H 0.76681 0.00804 0.8097 0.0
H1531 H 0.78207 0.9933 0.8987 0.0
H1532 H 0.8011 0.96598 0.92202 0.0
H1533 H 0.85473 0.94728 0.87283 0.0
H1534 H 0.83631 0.97468 0.84939 0.0
H1535 H 0.76333 0.10953 0.85639 0.0
H1536 H 0.75412 0.07218 0.84984 0.0
H1537 H 0.83554 0.05698 0.86394 0.0
H1538 H 0.84443 0.09414 0.87151 0.0
H1539 H 0.80685 0.02744 0.87861 0.0
H1540 H 0.81037 0.06316 0.81164 0.0
H1541 H 0.79776 0.08984 0.78511 0.0
H1542 H 0.71793 0.06659 0.78532 0.0
H1543 H 0.73001 0.03991 0.81205 0.0
C1544 C 0.80106 0.94691 0.80837 0.0
C1545 C 0.79207 0.93106 0.82221 0.0
C1546 C 0.79658 0.96818 0.81289 0.0
C1547 C 0.78302 0.97403 0.8313 0.0
C1548 C 0.77164 0.95825 0.84397 0.0
C1549 C 0.77617 0.93692 0.8395 0.0
C1550 C 0.78402 0.99632 0.8385 0.0
C1551 C 0.77522 0.01231 0.82488 0.0
C1552 C 0.79577 0.00191 0.85802 0.0
C1553 C 0.80758 0.98586 0.87225 0.0
C1554 C 0.79801 0.98342 0.89293 0.0
C1555 C 0.80868 0.96792 0.90615 0.0
C1556 C 0.82903 0.95485 0.89889 0.0
C1557 C 0.8389 0.95736 0.87843 0.0
C1558 C 0.82836 0.97287 0.86518 0.0
C1559 C 0.77917 0.09816 0.8583 0.0
C1560 C 0.80464 0.10474 0.86433 0.0
C1561 C 0.77393 0.07683 0.85444 0.0
C1562 C 0.79425 0.06174 0.85594 0.0
C1563 C 0.81949 0.06826 0.86265 0.0
C1564 C 0.8246 0.08952 0.86693 0.0
C1565 C 0.78965 0.03934 0.8498 0.0
C1566 C 0.79787 0.02327 0.86362 0.0
C1567 C 0.77831 0.03372 0.83008 0.0
C1568 C 0.77102 0.04972 0.81401 0.0
C1569 C 0.79008 0.06384 0.80613 0.0
C1570 C 0.78304 0.07894 0.79105 0.0
C1571 C 0.75704 0.07995 0.78358 0.0
C1572 C 0.73805 0.06581 0.79115 0.0
C1573 C 0.74498 0.0507 0.80625 0.0
H1574 H 0.75163 0.09166 0.7719 0.0
H1575 H 0.83719 0.94281 0.90912 0.0
H1576 H 0.65648 0.61758 0.40788 0.0
H1577 H 0.66442 0.62281 0.44567 0.0
H1578 H 0.73791 0.65447 0.43165 0.0
H1579 H 0.73031 0.64909 0.39392 0.0
H1580 H 0.74229 0.62989 0.46719 0.0
H1581 H 0.68344 0.68305 0.43941 0.0
H1582 H 0.64375 0.69579 0.42064 0.0
H1583 H 0.59392 0.66393 0.46537 0.0
H1584 H 0.63336 0.65075 0.48423 0.0
H1585 H 0.69993 0.70497 0.56099 0.0
H1586 H 0.7066 0.69599 0.52391 0.0
H1587 H 0.71846 0.63072 0.54095 0.0
H1588 H 0.71245 0.63973 0.57821 0.0
H1589 H 0.67332 0.67225 0.50345 0.0
H1590 H 0.75079 0.60499 0.50059 0.0
H1591 H 0.79188 0.59435 0.51878 0.0
H1592 H 0.80762 0.65903 0.53475 0.0
H1593 H 0.76682 0.67009 0.51645 0.0
C1594 C 0.67453 0.62536 0.41286 0.0
C1595 C 0.69262 0.63313 0.3979 0.0
C1596 C 0.67903 0.62835 0.43445 0.0
C1597 C 0.7016 0.63927 0.44146 0.0
C1598 C 0.72037 0.64601 0.42661 0.0
C1599 C 0.7159 0.64302 0.40503 0.0
C1600 C 0.7045 0.64533 0.46399 0.0
C1601 C 0.7272 0.63909 0.47519 0.0
C1602 C 0.68507 0.65768 0.47429 0.0
C1603 C 0.66134 0.66574 0.46309 0.0
C1604 C 0.66402 0.67864 0.44515 0.0
C1605 C 0.64157 0.68596 0.43451 0.0
C1606 C 0.61633 0.68063 0.44177 0.0
C1607 C 0.61349 0.66802 0.45974 0.0
C1608 C 0.63588 0.66063 0.47042 0.0
C1609 C 0.70482 0.68882 0.55691 0.0
C1610 C 0.70552 0.67305 0.57251 0.0
C1611 C 0.70848 0.68368 0.53569 0.0
C1612 C 0.71275 0.66265 0.52957 0.0
C1613 C 0.71543 0.64709 0.54525 0.0
C1614 C 0.71206 0.65228 0.56659 0.0
C1615 C 0.71113 0.6568 0.50686 0.0
C1616 C 0.6885 0.66302 0.49558 0.0
C1617 C 0.73084 0.64475 0.4965 0.0
C1618 C 0.7556 0.63832 0.50732 0.0
C1619 C 0.76308 0.61695 0.50792 0.0
C1620 C 0.7863 0.61085 0.51826 0.0
C1621 C 0.8023 0.626 0.52797 0.0
C1622 C 0.79515 0.6473 0.5273 0.0
C1623 C 0.77195 0.65349 0.51697 0.0
H1624 H 0.82027 0.62124 0.53598 0.0
H1625 H 0.59898 0.6863 0.43351 0.0
H1626 H 0.33376 0.62798 0.58795 0.0
H1627 H 0.3229 0.63436 0.55089 0.0
H1628 H 0.24959 0.66391 0.56939 0.0
H1629 H 0.26024 0.65749 0.6066 0.0
H1630 H 0.2444 0.6386 0.53294 0.0
H1631 H 0.29947 0.69467 0.55942 0.0
H1632 H 0.33857 0.70944 0.57747 0.0
H1633 H 0.38955 0.68053 0.53157 0.0
H1634 H 0.35074 0.66534 0.51339 0.0
H1635 H 0.28099 0.71187 0.43588 0.0
H1636 H 0.27301 0.70463 0.47318 0.0
H1637 H 0.26828 0.63797 0.45966 0.0
H1638 H 0.27575 0.64519 0.42219 0.0
H1639 H 0.3087 0.68389 0.49484 0.0
H1640 H 0.23697 0.61263 0.50092 0.0
H1641 H 0.19665 0.59923 0.4835 0.0
H1642 H 0.17596 0.66223 0.46469 0.0
H1643 H 0.21594 0.67605 0.48224 0.0
C1644 C 0.31518 0.63561 0.58415 0.0
C1645 C 0.29799 0.64244 0.60021 0.0
C1646 C 0.309 0.63924 0.56296 0.0
C1647 C 0.28556 0.64979 0.55743 0.0
C1648 C 0.26775 0.65573 0.57335 0.0
C1649 C 0.27395 0.65215 0.59459 0.0
C1650 C 0.28082 0.65612 0.53521 0.0
C1651 C 0.25839 0.64851 0.52454 0.0
C1652 C 0.29884 0.66938 0.52445 0.0
C1653 C 0.32221 0.67872 0.53516 0.0
C1654 C 0.31903 0.69135 0.55325 0.0
C1655 C 0.34113 0.69981 0.56349 0.0
C1656 C 0.36653 0.69589 0.55569 0.0
C1657 C 0.36987 0.68354 0.5376 0.0
C1658 C 0.34782 0.67502 0.52731 0.0
C1659 C 0.27726 0.69574 0.44073 0.0
C1660 C 0.27921 0.67909 0.42614 0.0
C1661 C 0.27283 0.69161 0.46208 0.0
C1662 C 0.27037 0.67075 0.46929 0.0
C1663 C 0.26991 0.65422 0.45448 0.0
C1664 C 0.2741 0.65837 0.43301 0.0
C1665 C 0.27234 0.66623 0.49226 0.0
C1666 C 0.29449 0.67409 0.50313 0.0
C1667 C 0.25386 0.65345 0.50316 0.0
C1668 C 0.2296 0.64534 0.49275 0.0
C1669 C 0.22376 0.62363 0.49315 0.0
C1670 C 0.20097 0.61596 0.48323 0.0
C1671 C 0.1838 0.62986 0.47294 0.0
C1672 C 0.18933 0.65147 0.47259 0.0
C1673 C 0.21208 0.65923 0.48249 0.0
H1674 H 0.16618 0.62389 0.46527 0.0
H1675 H 0.3836 0.70247 0.56364 0.0
H1676 H 0.32039 0.39448 0.40816 0.0
H1677 H 0.31001 0.39199 0.44581 0.0
H1678 H 0.26901 0.33321 0.43468 0.0
H1679 H 0.27788 0.33645 0.39688 0.0
H1680 H 0.24402 0.35225 0.46347 0.0
H1681 H 0.33622 0.33706 0.45345 0.0
H1682 H 0.38203 0.34348 0.44162 0.0
H1683 H 0.3862 0.39874 0.48078 0.0
H1684 H 0.34027 0.39278 0.49265 0.0
H1685 H 0.28153 0.3001 0.56116 0.0
H1686 H 0.27274 0.31203 0.52506 0.0
H1687 H 0.28039 0.37675 0.54517 0.0
H1688 H 0.28839 0.36497 0.58146 0.0
H1689 H 0.31928 0.35875 0.51335 0.0
H1690 H 0.22651 0.36806 0.52694 0.0
H1691 H 0.18233 0.35703 0.53923 0.0
H1692 H 0.1816 0.30682 0.49367 0.0
H1693 H 0.22597 0.31735 0.48131 0.0
C1694 C 0.30896 0.38115 0.41378 0.0
C1695 C 0.30014 0.36556 0.39968 0.0
C1696 C 0.30314 0.37966 0.43532 0.0
C1697 C 0.28927 0.36211 0.4433 0.0
C1698 C 0.27976 0.34688 0.42904 0.0
C1699 C 0.28494 0.34869 0.40742 0.0
C1700 C 0.2857 0.35907 0.46648 0.0
C1701 C 0.26056 0.35357 0.47431 0.0
C1702 C 0.30712 0.36098 0.48084 0.0
C1703 C 0.33472 0.36462 0.47373 0.0
C1704 C 0.34685 0.35066 0.45941 0.0
C1705 C 0.37284 0.35421 0.45272 0.0
C1706 C 0.38698 0.37155 0.46039 0.0
C1707 C 0.37519 0.38534 0.47482 0.0
C1708 C 0.34919 0.38189 0.48154 0.0
C1709 C 0.28019 0.31688 0.55806 0.0
C1710 C 0.28561 0.3316 0.57411 0.0
C1711 C 0.27521 0.32367 0.53744 0.0
C1712 C 0.27604 0.34524 0.5325 0.0
C1713 C 0.27954 0.36004 0.54875 0.0
C1714 C 0.28391 0.35328 0.56949 0.0
C1715 C 0.27779 0.35187 0.51013 0.0
C1716 C 0.30271 0.35784 0.50247 0.0
C1717 C 0.2564 0.34974 0.49594 0.0
C1718 C 0.22969 0.3434 0.50332 0.0
C1719 C 0.21705 0.35454 0.51967 0.0
C1720 C 0.19194 0.34841 0.52662 0.0
C1721 C 0.17919 0.33121 0.51727 0.0
C1722 C 0.19151 0.32013 0.50091 0.0
C1723 C 0.21662 0.32619 0.49391 0.0
H1724 H 0.15975 0.32649 0.52267 0.0
H1725 H 0.4071 0.37426 0.45519 0.0
H1726 H 0.68756 0.29232 0.4434 0.0
H1727 H 0.69655 0.30088 0.48012 0.0
H1728 H 0.73589 0.35818 0.4609 0.0
H1729 H 0.72626 0.35002 0.42391 0.0
H1730 H 0.73527 0.30904 0.50656 0.0
H1731 H 0.71556 0.39765 0.49348 0.0
H1732 H 0.6943 0.42082 0.4671 0.0
H1733 H 0.6418 0.37053 0.44931 0.0
H1734 H 0.66247 0.34722 0.47579 0.0
H1735 H 0.73927 0.35362 0.60911 0.0
H1736 H 0.74795 0.34809 0.5715 0.0
H1737 H 0.6657 0.36041 0.55766 0.0
H1738 H 0.65731 0.367 0.59506 0.0
H1739 H 0.69287 0.37638 0.52805 0.0
H1740 H 0.69339 0.3086 0.56235 0.0
H1741 H 0.70791 0.28189 0.58822 0.0
H1742 H 0.78706 0.28501 0.56371 0.0
H1743 H 0.77304 0.31195 0.53785 0.0
C1744 C 0.69867 0.30653 0.44686 0.0
C1745 C 0.70569 0.3207 0.43067 0.0
C1746 C 0.70391 0.31136 0.46794 0.0
C1747 C 0.71635 0.33041 0.47331 0.0
C1748 C 0.72581 0.34357 0.45711 0.0
C1749 C 0.72044 0.3388 0.43594 0.0
C1750 C 0.71626 0.33745 0.4957 0.0
C1751 C 0.72635 0.3239 0.51127 0.0
C1752 C 0.7039 0.35654 0.50191 0.0
C1753 C 0.69078 0.37066 0.48643 0.0
C1754 C 0.69939 0.3916 0.484 0.0
C1755 C 0.68745 0.40475 0.46903 0.0
C1756 C 0.66678 0.39714 0.45648 0.0
C1757 C 0.65786 0.3764 0.45899 0.0
C1758 C 0.66968 0.36322 0.47398 0.0
C1759 C 0.72312 0.35534 0.59799 0.0
C1760 C 0.69757 0.3606 0.60502 0.0
C1761 C 0.72806 0.35207 0.5765 0.0
C1762 C 0.70739 0.35339 0.56169 0.0
C1763 C 0.68203 0.35928 0.56869 0.0
C1764 C 0.67721 0.36299 0.59011 0.0
C1765 C 0.71172 0.34788 0.53907 0.0
C1766 C 0.70237 0.36173 0.52342 0.0
C1767 C 0.72378 0.32863 0.53284 0.0
C1768 C 0.73224 0.31246 0.54836 0.0
C1769 C 0.71393 0.3037 0.56259 0.0
C1770 C 0.72206 0.2885 0.57723 0.0
C1771 C 0.74841 0.28181 0.57766 0.0
C1772 C 0.76667 0.29025 0.56339 0.0
C1773 C 0.75864 0.30547 0.54874 0.0
H1774 H 0.75467 0.27004 0.589 0.0
H1775 H 0.65764 0.40731 0.44485 0.0
H1776 H 0.61362 0.69188 0.68189 0.0
H1777 H 0.56542 0.69346 0.68688 0.0
H1778 H 0.55492 0.65352 0.63212 0.0
H1779 H 0.6025 0.65375 0.62621 0.0
H1780 H 0.52102 0.67983 0.62914 0.0
H1781 H 0.54738 0.63788 0.68847 0.0
H1782 H 0.57116 0.62889 0.72128 0.0
H1783 H 0.53596 0.68211 0.75252 0.0
H1784 H 0.5122 0.69156 0.7198 0.0
H1785 H 0.40018 0.6299 0.64864 0.0
H1786 H 0.4472 0.63903 0.64781 0.0
H1787 H 0.43096 0.69618 0.68255 0.0
H1788 H 0.38342 0.68714 0.68308 0.0
H1789 H 0.47608 0.66838 0.69761 0.0
H1790 H 0.44347 0.70442 0.63641 0.0
H1791 H 0.41817 0.70784 0.60327 0.0
H1792 H 0.4651 0.65891 0.57499 0.0
H1793 H 0.49035 0.65489 0.60807 0.0
C1794 C 0.60079 0.68358 0.67099 0.0
C1795 C 0.61144 0.67309 0.65345 0.0
C1796 C 0.5733 0.68424 0.67393 0.0
C1797 C 0.55624 0.67346 0.65999 0.0
C1798 C 0.56734 0.66225 0.64299 0.0
C1799 C 0.59457 0.66227 0.63964 0.0
C1800 C 0.52686 0.67414 0.6624 0.0
C1801 C 0.51143 0.6773 0.64418 0.0
C1802 C 0.51385 0.67109 0.68202 0.0
C1803 C 0.52836 0.66561 0.70161 0.0
C1804 C 0.54493 0.64778 0.70228 0.0
C1805 C 0.55835 0.64258 0.72087 0.0
C1806 C 0.55516 0.65497 0.73895 0.0
C1807 C 0.53848 0.67257 0.73849 0.0
C1808 C 0.52503 0.67785 0.71993 0.0
C1809 C 0.40671 0.64436 0.65617 0.0
C1810 C 0.38854 0.65762 0.66636 0.0
C1811 C 0.43345 0.6496 0.6556 0.0
C1812 C 0.44245 0.66824 0.66514 0.0
C1813 C 0.4243 0.68169 0.67518 0.0
C1814 C 0.39731 0.67658 0.67544 0.0
C1815 C 0.47095 0.67333 0.66431 0.0
C1816 C 0.48605 0.67133 0.68276 0.0
C1817 C 0.48375 0.67677 0.64482 0.0
C1818 C 0.46867 0.67925 0.62482 0.0
C1819 C 0.44824 0.69425 0.6232 0.0
C1820 C 0.43393 0.69631 0.6044 0.0
C1821 C 0.43999 0.68357 0.58706 0.0
C1822 C 0.46041 0.66876 0.58845 0.0
C1823 C 0.47474 0.66659 0.60721 0.0
H1824 H 0.42891 0.68519 0.57252 0.0
H1825 H 0.56556 0.65091 0.75333 0.0
H1826 H 0.29375 0.56561 0.70286 0.0
H1827 H 0.28711 0.52785 0.69658 0.0
H1828 H 0.29657 0.53801 0.62958 0.0
H1829 H 0.3011 0.57591 0.63578 0.0
H1830 H 0.26626 0.50668 0.63373 0.0
H1831 H 0.3502 0.52411 0.66474 0.0
H1832 H 0.38062 0.53926 0.6912 0.0
H1833 H 0.3471 0.49951 0.73911 0.0
H1834 H 0.31635 0.48418 0.71298 0.0
H1835 H 0.33001 0.40553 0.61311 0.0
H1836 H 0.32271 0.44356 0.61828 0.0
H1837 H 0.28201 0.43077 0.6767 0.0
H1838 H 0.28855 0.39285 0.67141 0.0
H1839 H 0.32688 0.46254 0.67679 0.0
H1840 H 0.2447 0.44373 0.64176 0.0
H1841 H 0.21875 0.42822 0.61266 0.0
H1842 H 0.25514 0.47094 0.56875 0.0
H1843 H 0.28164 0.48649 0.59757 0.0
C1844 C 0.2934 0.55981 0.68677 0.0
C1845 C 0.29791 0.57359 0.6698 0.0
C1846 C 0.29 0.5382 0.68318 0.0
C1847 C 0.2924 0.52989 0.66266 0.0
C1848 C 0.29485 0.54392 0.64557 0.0
C1849 C 0.29733 0.56562 0.64911 0.0
C1850 C 0.2947 0.50668 0.65916 0.0
C1851 C 0.27968 0.49712 0.64308 0.0
C1852 C 0.31225 0.49402 0.67125 0.0
C1853 C 0.33081 0.50315 0.68696 0.0
C1854 C 0.34922 0.51868 0.68094 0.0
C1855 C 0.36652 0.52729 0.69587 0.0
C1856 C 0.36571 0.52043 0.71682 0.0
C1857 C 0.34767 0.50484 0.72288 0.0
C1858 C 0.33033 0.49616 0.70802 0.0
C1859 C 0.31942 0.41085 0.62699 0.0
C1860 C 0.30986 0.39626 0.64187 0.0
C1861 C 0.31519 0.43252 0.62987 0.0
C1862 C 0.30175 0.43987 0.64783 0.0
C1863 C 0.29234 0.42534 0.66272 0.0
C1864 C 0.29607 0.40372 0.65965 0.0
C1865 C 0.29839 0.46276 0.65158 0.0
C1866 C 0.31337 0.4722 0.66761 0.0
C1867 C 0.28144 0.47534 0.63906 0.0
C1868 C 0.26536 0.46611 0.62178 0.0
C1869 C 0.24737 0.44968 0.62587 0.0
C1870 C 0.23251 0.44091 0.60943 0.0
C1871 C 0.23535 0.44855 0.58886 0.0
C1872 C 0.25299 0.46502 0.58469 0.0
C1873 C 0.26791 0.47382 0.60107 0.0
H1874 H 0.22384 0.44173 0.57615 0.0
H1875 H 0.37912 0.52713 0.72834 0.0
H1876 H 0.59987 0.37779 0.66423 0.0
H1877 H 0.55292 0.36919 0.66215 0.0
H1878 H 0.57041 0.30489 0.67966 0.0
H1879 H 0.61726 0.31417 0.6839 0.0
H1880 H 0.53691 0.33968 0.63332 0.0
H1881 H 0.53525 0.28933 0.69786 0.0
H1882 H 0.54212 0.28225 0.73578 0.0
H1883 H 0.50473 0.34113 0.75133 0.0
H1884 H 0.49872 0.34888 0.71341 0.0
H1885 H 0.39307 0.29617 0.66545 0.0
H1886 H 0.44127 0.29518 0.66789 0.0
H1887 H 0.44513 0.35088 0.62843 0.0
H1888 H 0.39785 0.3487 0.62256 0.0
H1889 H 0.47056 0.3164 0.68584 0.0
H1890 H 0.4976 0.36958 0.61894 0.0
H1891 H 0.49017 0.37732 0.58121 0.0
H1892 H 0.4769 0.31163 0.56904 0.0
H1893 H 0.48294 0.30353 0.60708 0.0
C1894 C 0.59346 0.36217 0.66892 0.0
C1895 C 0.61193 0.34695 0.67533 0.0
C1896 C 0.56665 0.35716 0.66746 0.0
C1897 C 0.55783 0.33653 0.67145 0.0
C1898 C 0.57634 0.32115 0.67762 0.0
C1899 C 0.60319 0.32637 0.67968 0.0
C1900 C 0.53026 0.33081 0.66565 0.0
C1901 C 0.52235 0.33433 0.64473 0.0
C1902 C 0.51133 0.32366 0.68038 0.0
C1903 C 0.51763 0.32009 0.70286 0.0
C1904 C 0.5294 0.30109 0.70935 0.0
C1905 C 0.53292 0.29687 0.73084 0.0
C1906 C 0.52403 0.31129 0.74597 0.0
C1907 C 0.51174 0.33002 0.73961 0.0
C1908 C 0.50858 0.33444 0.71813 0.0
C1909 C 0.4046 0.30727 0.65628 0.0
C1910 C 0.39206 0.3218 0.643 0.0
C1911 C 0.43221 0.3071 0.658 0.0
C1912 C 0.44775 0.32271 0.64798 0.0
C1913 C 0.43469 0.33769 0.63525 0.0
C1914 C 0.40733 0.33679 0.63226 0.0
C1915 C 0.47671 0.32468 0.65303 0.0
C1916 C 0.48496 0.32088 0.67397 0.0
C1917 C 0.49607 0.33141 0.6382 0.0
C1918 C 0.49017 0.33602 0.6158 0.0
C1919 C 0.49262 0.35682 0.60825 0.0
C1920 C 0.48849 0.36127 0.5869 0.0
C1921 C 0.48255 0.34495 0.57285 0.0
C1922 C 0.48068 0.3242 0.58016 0.0
C1923 C 0.48418 0.3197 0.60162 0.0
H1924 H 0.4797 0.34835 0.55625 0.0
H1925 H 0.52657 0.30793 0.7626 0.0
H1926 H 0.73781 0.60803 0.65285 0.0
H1927 H 0.74594 0.57033 0.65896 0.0
H1928 H 0.66716 0.55596 0.63704 0.0
H1929 H 0.65898 0.59347 0.63068 0.0
H1930 H 0.67975 0.53881 0.67683 0.0
H1931 H 0.71636 0.54397 0.60661 0.0
H1932 H 0.74627 0.55841 0.57946 0.0
H1933 H 0.81369 0.53921 0.61602 0.0
H1934 H 0.78415 0.52493 0.64356 0.0
H1935 H 0.70649 0.42539 0.64174 0.0
H1936 H 0.71388 0.46297 0.63529 0.0
H1937 H 0.71969 0.47382 0.70243 0.0
H1938 H 0.71055 0.43644 0.70892 0.0
H1939 H 0.74678 0.49377 0.64147 0.0
H1940 H 0.6922 0.51922 0.71571 0.0
H1941 H 0.66067 0.50576 0.74226 0.0
H1942 H 0.62617 0.46482 0.69587 0.0
H1943 H 0.65759 0.47789 0.66901 0.0
C1944 C 0.72233 0.5968 0.64913 0.0
C1945 C 0.69771 0.60371 0.64136 0.0
C1946 C 0.72705 0.57529 0.65256 0.0
C1947 C 0.70714 0.56041 0.64845 0.0
C1948 C 0.68276 0.56724 0.64032 0.0
C1949 C 0.67815 0.58866 0.63665 0.0
C1950 C 0.71095 0.53783 0.65376 0.0
C1951 C 0.69449 0.52897 0.66917 0.0
C1952 C 0.73028 0.52509 0.64384 0.0
C1953 C 0.74804 0.5336 0.62726 0.0
C1954 C 0.73756 0.54301 0.60896 0.0
C1955 C 0.75445 0.55112 0.59348 0.0
C1956 C 0.78187 0.54978 0.59604 0.0
C1957 C 0.79245 0.54027 0.61407 0.0
C1958 C 0.77564 0.53215 0.62962 0.0
C1959 C 0.71007 0.4357 0.65509 0.0
C1960 C 0.70768 0.42809 0.67583 0.0
C1961 C 0.71424 0.45723 0.6514 0.0
C1962 C 0.7165 0.47141 0.66838 0.0
C1963 C 0.71709 0.46335 0.68906 0.0
C1964 C 0.71215 0.44196 0.69277 0.0
C1965 C 0.71527 0.49458 0.66444 0.0
C1966 C 0.73225 0.50362 0.64934 0.0
C1967 C 0.69628 0.50759 0.67458 0.0
C1968 C 0.67737 0.49939 0.69046 0.0
C1969 C 0.67788 0.50731 0.71119 0.0
C1970 C 0.66009 0.49971 0.72628 0.0
C1971 C 0.64154 0.48432 0.72075 0.0
C1972 C 0.64072 0.47655 0.70011 0.0
C1973 C 0.65853 0.48402 0.68496 0.0
H1974 H 0.62773 0.47847 0.73243 0.0
H1975 H 0.79491 0.55607 0.58403 0.0
H1976 H 0.38689 0.32053 0.31485 0.0
H1977 H 0.43478 0.3141 0.31335 0.0
H1978 H 0.44794 0.36975 0.35152 0.0
H1979 H 0.40061 0.37706 0.35112 0.0
H1980 H 0.48219 0.37067 0.32535 0.0
H1981 H 0.45254 0.31361 0.36897 0.0
H1982 H 0.42692 0.28199 0.37892 0.0
H1983 H 0.46027 0.24792 0.32667 0.0
H1984 H 0.48585 0.27944 0.31627 0.0
H1985 H 0.60173 0.34644 0.37635 0.0
H1986 H 0.55466 0.34862 0.36744 0.0
H1987 H 0.56931 0.31535 0.30917 0.0
H1988 H 0.61689 0.31356 0.31792 0.0
H1989 H 0.52321 0.30093 0.33856 0.0
H1990 H 0.55837 0.35988 0.30025 0.0
H1991 H 0.58545 0.39191 0.29554 0.0
H1992 H 0.54186 0.42305 0.34472 0.0
H1993 H 0.51482 0.39107 0.34999 0.0
C1994 C 0.40023 0.33134 0.32275 0.0
C1995 C 0.39042 0.34949 0.33268 0.0
C1996 C 0.42755 0.32756 0.32215 0.0
C1997 C 0.44525 0.34129 0.33252 0.0
C1998 C 0.43499 0.359 0.34314 0.0
C1999 C 0.40792 0.36316 0.34302 0.0
C2000 C 0.47447 0.33783 0.33201 0.0
C2001 C 0.49091 0.35536 0.32831 0.0
C2002 C 0.48635 0.31784 0.3356 0.0
C2003 C 0.47078 0.29897 0.34166 0.0
C2004 C 0.4542 0.29943 0.35949 0.0
C2005 C 0.43974 0.28152 0.36523 0.0
C2006 C 0.44188 0.26299 0.35338 0.0
C2007 C 0.45856 0.26231 0.33579 0.0
C2008 C 0.47305 0.28019 0.32997 0.0
C2009 C 0.59483 0.3395 0.3617 0.0
C2010 C 0.61256 0.32939 0.348 0.0
C2011 C 0.56807 0.34083 0.3566 0.0
C2012 C 0.55864 0.33209 0.3377 0.0
C2013 C 0.57633 0.32208 0.32386 0.0
C2014 C 0.60333 0.3211 0.32881 0.0
C2015 C 0.53019 0.33385 0.33271 0.0
C2016 C 0.51408 0.31605 0.33529 0.0
C2017 C 0.51852 0.35369 0.32879 0.0
C2018 C 0.53474 0.37298 0.32565 0.0
C2019 C 0.55474 0.37347 0.31022 0.0
C2020 C 0.57005 0.39164 0.30741 0.0
C2021 C 0.56543 0.40949 0.31986 0.0
C2022 C 0.54544 0.40921 0.3351 0.0
C2023 C 0.53011 0.39107 0.33799 0.0
H2024 H 0.57729 0.42354 0.31766 0.0
H2025 H 0.43068 0.24913 0.35786 0.0
H2026 H 0.73478 0.39035 0.34276 0.0
H2027 H 0.74103 0.42835 0.33705 0.0
H2028 H 0.67838 0.44156 0.3814 0.0
H2029 H 0.67186 0.40385 0.38697 0.0
H2030 H 0.66955 0.46024 0.34464 0.0
H2031 H 0.74228 0.4538 0.39272 0.0
H2032 H 0.78424 0.43926 0.40629 0.0
H2033 H 0.82419 0.45898 0.3498 0.0
H2034 H 0.78236 0.47338 0.33575 0.0
H2035 H 0.71251 0.57516 0.35699 0.0
H2036 H 0.72189 0.53809 0.36518 0.0
H2037 H 0.69547 0.52002 0.303 0.0
H2038 H 0.68556 0.55682 0.29485 0.0
H2039 H 0.75059 0.50419 0.3498 0.0
H2040 H 0.65536 0.47843 0.30714 0.0
H2041 H 0.61172 0.49258 0.29681 0.0
H2042 H 0.61499 0.53701 0.34802 0.0
H2043 H 0.65854 0.52309 0.35862 0.0
C2044 C 0.72269 0.40139 0.35157 0.0
C2045 C 0.70261 0.3941 0.36512 0.0
C2046 C 0.72635 0.4231 0.34835 0.0
C2047 C 0.71011 0.43781 0.35875 0.0
C2048 C 0.69104 0.43051 0.37311 0.0
C2049 C 0.68733 0.40892 0.37627 0.0
C2050 C 0.71082 0.46059 0.35315 0.0
C2051 C 0.68734 0.46978 0.34576 0.0
C2052 C 0.73395 0.47312 0.35469 0.0
C2053 C 0.75912 0.46447 0.36309 0.0
C2054 C 0.75995 0.45487 0.38311 0.0
C2055 C 0.78373 0.44669 0.3909 0.0
C2056 C 0.80685 0.44814 0.37889 0.0
C2057 C 0.80625 0.45784 0.35907 0.0
C2058 C 0.78252 0.46603 0.3512 0.0
C2059 C 0.70934 0.56336 0.34486 0.0
C2060 C 0.69791 0.56892 0.32537 0.0
C2061 C 0.71472 0.54216 0.34958 0.0
C2062 C 0.70887 0.52624 0.33486 0.0
C2063 C 0.69968 0.532 0.31474 0.0
C2064 C 0.69405 0.55308 0.3101 0.0
C2065 C 0.70934 0.50365 0.3412 0.0
C2066 C 0.73294 0.49452 0.34861 0.0
C2067 C 0.68622 0.49109 0.34001 0.0
C2068 C 0.66027 0.49986 0.33352 0.0
C2069 C 0.64674 0.49125 0.31615 0.0
C2070 C 0.62204 0.49923 0.31023 0.0
C2071 C 0.61061 0.51573 0.32168 0.0
C2072 C 0.62389 0.52432 0.33905 0.0
C2073 C 0.64862 0.51643 0.34499 0.0
H2074 H 0.5914 0.52175 0.31713 0.0
H2075 H 0.82524 0.44181 0.38496 0.0
H2076 H 0.60357 0.63579 0.36255 0.0
H2077 H 0.55725 0.64426 0.36835 0.0
H2078 H 0.55417 0.67395 0.30684 0.0
H2079 H 0.60199 0.67005 0.30404 0.0
H2080 H 0.52478 0.69365 0.32585 0.0
H2081 H 0.52575 0.61365 0.33015 0.0
H2082 H 0.53844 0.5798 0.34717 0.0
H2083 H 0.51305 0.60336 0.40722 0.0
H2084 H 0.50002 0.63707 0.39076 0.0
H2085 H 0.38095 0.6837 0.31871 0.0
H2086 H 0.42892 0.68152 0.31345 0.0
H2087 H 0.43963 0.67073 0.38017 0.0
H2088 H 0.39177 0.67052 0.38489 0.0
H2089 H 0.46351 0.64204 0.35823 0.0
H2090 H 0.48826 0.7236 0.35559 0.0
H2091 H 0.479 0.75952 0.34229 0.0
H2092 H 0.45491 0.73371 0.28257 0.0
H2093 H 0.46515 0.69779 0.29534 0.0
C2094 C 0.59277 0.64409 0.35031 0.0
C2095 C 0.60583 0.65102 0.33206 0.0
C2096 C 0.56593 0.64849 0.35336 0.0
C2097 C 0.55098 0.65852 0.33747 0.0
C2098 C 0.56455 0.66585 0.3194 0.0
C2099 C 0.59189 0.66304 0.31731 0.0
C2100 C 0.52181 0.66259 0.33991 0.0
C2101 C 0.51154 0.68191 0.33244 0.0
C2102 C 0.50395 0.64817 0.34961 0.0
C2103 C 0.5122 0.6279 0.35924 0.0
C2104 C 0.52305 0.61159 0.34697 0.0
C2105 C 0.53026 0.59248 0.35649 0.0
C2106 C 0.52676 0.58955 0.37817 0.0
C2107 C 0.51584 0.60565 0.39043 0.0
C2108 C 0.50846 0.62471 0.38103 0.0
C2109 C 0.39371 0.68135 0.33226 0.0
C2110 C 0.38277 0.67822 0.35239 0.0
C2111 C 0.4212 0.68049 0.32932 0.0
C2112 C 0.4382 0.67679 0.34652 0.0
C2113 C 0.42711 0.67403 0.36667 0.0
C2114 C 0.39972 0.67423 0.36946 0.0
C2115 C 0.46691 0.67247 0.34339 0.0
C2116 C 0.47697 0.65328 0.35101 0.0
C2117 C 0.48455 0.68693 0.33394 0.0
C2118 C 0.47624 0.70805 0.32673 0.0
C2119 C 0.48056 0.72564 0.33975 0.0
C2120 C 0.4756 0.74599 0.33219 0.0
C2121 C 0.46605 0.74888 0.31168 0.0
C2122 C 0.46194 0.73144 0.29856 0.0
C2123 C 0.46742 0.7111 0.30592 0.0
H2124 H 0.46201 0.76464 0.30591 0.0
H2125 H 0.5324 0.57475 0.38544 0.0
H2126 H 0.31876 0.44619 0.30373 0.0
H2127 H 0.31013 0.48208 0.31545 0.0
H2128 H 0.26477 0.45851 0.36799 0.0
H2129 H 0.27381 0.42212 0.35668 0.0
H2130 H 0.24497 0.49872 0.34536 0.0
H2131 H 0.31636 0.46951 0.38368 0.0
H2132 H 0.3574 0.44945 0.38999 0.0
H2133 H 0.4 0.49141 0.34902 0.0
H2134 H 0.35903 0.5115 0.34211 0.0
H2135 H 0.31948 0.59891 0.39366 0.0
H2136 H 0.31192 0.56075 0.39222 0.0
H2137 H 0.26874 0.56849 0.33386 0.0
H2138 H 0.27499 0.60658 0.33595 0.0
H2139 H 0.3285 0.53341 0.36773 0.0
H2140 H 0.22657 0.52968 0.32359 0.0
H2141 H 0.18412 0.5489 0.32338 0.0
H2142 H 0.19914 0.57146 0.38619 0.0
H2143 H 0.2415 0.55214 0.38692 0.0
C2144 C 0.30644 0.44847 0.31754 0.0
C2145 C 0.29731 0.43114 0.32941 0.0
C2146 C 0.30154 0.46908 0.3242 0.0
C2147 C 0.28713 0.47289 0.34269 0.0
C2148 C 0.27599 0.45582 0.35366 0.0
C2149 C 0.28114 0.43504 0.34713 0.0
C2150 C 0.2865 0.49458 0.35141 0.0
C2151 C 0.26309 0.50639 0.3504 0.0
C2152 C 0.30997 0.50424 0.35875 0.0
C2153 C 0.33456 0.49189 0.36223 0.0
C2154 C 0.33439 0.47429 0.37577 0.0
C2155 C 0.35765 0.46296 0.37952 0.0
C2156 C 0.3813 0.4692 0.36997 0.0
C2157 C 0.38167 0.48665 0.35646 0.0
C2158 C 0.35842 0.498 0.35261 0.0
C2159 C 0.30808 0.59244 0.3807 0.0
C2160 C 0.29779 0.60571 0.36494 0.0
C2161 C 0.30376 0.57062 0.37986 0.0
C2162 C 0.28942 0.56159 0.36307 0.0
C2163 C 0.27915 0.57495 0.34735 0.0
C2164 C 0.28296 0.59677 0.34844 0.0
C2165 C 0.28705 0.53819 0.36099 0.0
C2166 C 0.31008 0.52594 0.36308 0.0
C2167 C 0.26293 0.52805 0.35548 0.0
C2168 C 0.23733 0.53956 0.35523 0.0
C2169 C 0.22076 0.53864 0.33741 0.0
C2170 C 0.19672 0.54958 0.33719 0.0
C2171 C 0.18897 0.56144 0.35474 0.0
C2172 C 0.20521 0.56233 0.37258 0.0
C2173 C 0.22926 0.55141 0.37289 0.0
H2174 H 0.17036 0.5699 0.35453 0.0
H2175 H 0.39934 0.46052 0.37306 0.0
loop_
_geom_bond_atom_site_label_1
_geom_bond_atom_site_label_2
_geom_bond_distance
_geom_bond_site_symmetry_2
_ccdc_geom_bond_type
Mn0 O5 2.095 . S
Mn0 O15 2.162 . S
Mn0 O16 2.297 . S
Mn0 O24 2.385 . S
Mn0 O25 2.209 . S
Mn0 O26 2.094 . S
Mn1 O6 2.121 . S
Mn1 N8 2.257 . S
Mn1 N17 2.282 . S
Mn1 O25 2.215 . S
Mn1 O27 2.117 . S
C2 O24 1.234 . S
C2 O25 1.283 . S
C3 O15 1.281 . S
C3 O16 1.236 . S
C4 O26 1.240 . S
C4 O27 1.264 . S
O5 Mn0 2.095 . S
O5 C14 1.250 . S
O6 Mn1 2.121 . S
O6 C14 1.258 . S
C7 N8 1.326 . S
C7 C11 1.460 . S
C7 H13 0.929 . S
N8 Mn1 2.257 . S
N8 C7 1.326 . S
N8 C12 1.362 . S
C9 C10 1.258 . S
C9 C12 1.431 . S
C9 C29 1.449 . S
C10 C9 1.258 . S
C10 C11 1.477 . S
C10 H30 0.931 . S
C11 C7 1.460 . S
C11 C10 1.477 . S
C11 H31 0.930 . S
C12 N8 1.362 . S
C12 C9 1.431 . S
C12 C22 1.476 . S
H13 C7 0.929 . S
C14 O5 1.250 . S
C14 O6 1.258 . S
O15 Mn0 2.162 . S
O15 C3 1.281 . S
O16 Mn0 2.297 . S
O16 C3 1.236 . S
N17 Mn1 2.282 . S
N17 C18 1.328 . S
N17 C22 1.318 . S
C18 N17 1.328 . S
C18 C19 1.457 . S
C18 H23 0.929 . S
C19 C18 1.457 . S
C19 C20 1.291 . S
C19 H32 0.931 . S
C20 C19 1.291 . S
C20 C21 1.373 . S
C20 H33 0.929 . S
C21 C20 1.373 . S
C21 C22 1.396 . S
C21 C28 1.403 . S
C22 C12 1.476 . S
C22 N17 1.318 . S
C22 C21 1.396 . S
H23 C18 0.929 . S
O24 Mn0 2.385 . S
O24 C2 1.234 . S
O25 Mn0 2.209 . S
O25 Mn1 2.215 . S
O25 C2 1.283 . S
O26 Mn0 2.094 . S
O26 C4 1.240 . S
O27 Mn1 2.117 . S
O27 C4 1.264 . S
C28 C21 1.403 . S
C28 C29 1.399 . S
C28 H34 0.929 . S
C29 C9 1.449 . S
C29 C28 1.399 . S
C29 H35 0.930 . S
H30 C10 0.931 . S
H31 C11 0.930 . S
H32 C19 0.931 . S
H33 C20 0.929 . S
H34 C28 0.929 . S
H35 C29 0.930 . S
Mn36 O41 2.095 . S
Mn36 O51 2.162 . S
Mn36 O52 2.297 . S
Mn36 O60 2.385 . S
Mn36 O61 2.209 . S
Mn36 O62 2.094 . S
Mn37 O42 2.121 . S
Mn37 N44 2.257 . S
Mn37 N53 2.282 . S
Mn37 O61 2.215 . S
Mn37 O63 2.117 . S
C38 O60 1.234 . S
C38 O61 1.283 . S
C39 O51 1.281 . S
C39 O52 1.236 . S
C40 O62 1.240 . S
C40 O63 1.264 . S
O41 Mn36 2.095 . S
O41 C50 1.250 . S
O42 Mn37 2.121 . S
O42 C50 1.258 . S
C43 N44 1.326 . S
C43 C47 1.460 . S
C43 H49 0.929 . S
N44 Mn37 2.257 . S
N44 C43 1.326 . S
N44 C48 1.362 . S
C45 C46 1.258 . S
C45 C48 1.431 . S
C45 C65 1.449 . S
C46 C45 1.258 . S
C46 C47 1.477 . S
C46 H66 0.931 . S
C47 C43 1.460 . S
C47 C46 1.477 . S
C47 H67 0.930 . S
C48 N44 1.362 . S
C48 C45 1.431 . S
C48 C58 1.476 . S
H49 C43 0.929 . S
C50 O41 1.250 . S
C50 O42 1.258 . S
O51 Mn36 2.162 . S
O51 C39 1.281 . S
O52 Mn36 2.297 . S
O52 C39 1.236 . S
N53 Mn37 2.282 . S
N53 C54 1.328 . S
N53 C58 1.318 . S
C54 N53 1.328 . S
C54 C55 1.457 . S
C54 H59 0.929 . S
C55 C54 1.457 . S
C55 C56 1.291 . S
C55 H68 0.931 . S
C56 C55 1.291 . S
C56 C57 1.373 . S
C56 H69 0.929 . S
C57 C56 1.373 . S
C57 C58 1.396 . S
C57 C64 1.403 . S
C58 C48 1.476 . S
C58 N53 1.318 . S
C58 C57 1.396 . S
H59 C54 0.929 . S
O60 Mn36 2.385 . S
O60 C38 1.234 . S
O61 Mn36 2.209 . S
O61 Mn37 2.215 . S
O61 C38 1.283 . S
O62 Mn36 2.094 . S
O62 C40 1.240 . S
O63 Mn37 2.117 . S
O63 C40 1.264 . S
C64 C57 1.403 . S
C64 C65 1.399 . S
C64 H70 0.929 . S
C65 C45 1.449 . S
C65 C64 1.399 . S
C65 H71 0.930 . S
H66 C46 0.931 . S
H67 C47 0.930 . S
H68 C55 0.931 . S
H69 C56 0.929 . S
H70 C64 0.929 . S
H71 C65 0.930 . S
Mn72 O77 2.095 . S
Mn72 O87 2.162 . S
Mn72 O88 2.297 . S
Mn72 O96 2.385 . S
Mn72 O97 2.209 . S
Mn72 O98 2.094 . S
Mn73 O78 2.121 . S
Mn73 N80 2.257 . S
Mn73 N89 2.282 . S
Mn73 O97 2.215 . S
Mn73 O99 2.117 . S
C74 O96 1.234 . S
C74 O97 1.283 . S
C75 O87 1.281 . S
C75 O88 1.236 . S
C76 O98 1.240 . S
C76 O99 1.264 . S
O77 Mn72 2.095 . S
O77 C86 1.250 . S
O78 Mn73 2.121 . S
O78 C86 1.258 . S
C79 N80 1.326 . S
C79 C83 1.460 . S
C79 H85 0.929 . S
N80 Mn73 2.257 . S
N80 C79 1.326 . S
N80 C84 1.362 . S
C81 C82 1.258 . S
C81 C84 1.431 . S
C81 C101 1.449 . S
C82 C81 1.258 . S
C82 C83 1.477 . S
C82 H102 0.931 . S
C83 C79 1.460 . S
C83 C82 1.477 . S
C83 H103 0.930 . S
C84 N80 1.362 . S
C84 C81 1.431 . S
C84 C94 1.476 . S
H85 C79 0.929 . S
C86 O77 1.250 . S
C86 O78 1.258 . S
O87 Mn72 2.162 . S
O87 C75 1.281 . S
O88 Mn72 2.297 . S
O88 C75 1.236 . S
N89 Mn73 2.282 . S
N89 C90 1.328 . S
N89 C94 1.318 . S
C90 N89 1.328 . S
C90 C91 1.457 . S
C90 H95 0.929 . S
C91 C90 1.457 . S
C91 C92 1.291 . S
C91 H104 0.931 . S
C92 C91 1.291 . S
C92 C93 1.373 . S
C92 H105 0.929 . S
C93 C92 1.373 . S
C93 C94 1.396 . S
C93 C100 1.403 . S
C94 C84 1.476 . S
C94 N89 1.318 . S
C94 C93 1.396 . S
H95 C90 0.929 . S
O96 Mn72 2.385 . S
O96 C74 1.234 . S
O97 Mn72 2.209 . S
O97 Mn73 2.215 . S
O97 C74 1.283 . S
O98 Mn72 2.094 . S
O98 C76 1.240 . S
O99 Mn73 2.117 . S
O99 C76 1.264 . S
C100 C93 1.403 . S
C100 C101 1.399 . S
C100 H106 0.929 . S
C101 C81 1.449 . S
C101 C100 1.399 . S
C101 H107 0.930 . S
H102 C82 0.931 . S
H103 C83 0.930 . S
H104 C91 0.931 . S
H105 C92 0.929 . S
H106 C100 0.929 . S
H107 C101 0.930 . S
Mn108 O113 2.095 . S
Mn108 O123 2.162 . S
Mn108 O124 2.297 . S
Mn108 O132 2.385 . S
Mn108 O133 2.209 . S
Mn108 O134 2.094 . S
Mn109 O114 2.121 . S
Mn109 N116 2.257 . S
Mn109 N125 2.282 . S
Mn109 O133 2.215 . S
Mn109 O135 2.117 . S
C110 O132 1.234 . S
C110 O133 1.283 . S
C111 O123 1.281 . S
C111 O124 1.236 . S
C112 O134 1.240 . S
C112 O135 1.264 . S
O113 Mn108 2.095 . S
O113 C122 1.250 . S
O114 Mn109 2.121 . S
O114 C122 1.258 . S
C115 N116 1.326 . S
C115 C119 1.460 . S
C115 H121 0.929 . S
N116 Mn109 2.257 . S
N116 C115 1.326 . S
N116 C120 1.362 . S
C117 C118 1.258 . S
C117 C120 1.431 . S
C117 C137 1.449 . S
C118 C117 1.258 . S
C118 C119 1.477 . S
C118 H138 0.931 . S
C119 C115 1.460 . S
C119 C118 1.477 . S
C119 H139 0.930 . S
C120 N116 1.362 . S
C120 C117 1.431 . S
C120 C130 1.476 . S
H121 C115 0.929 . S
C122 O113 1.250 . S
C122 O114 1.258 . S
O123 Mn108 2.162 . S
O123 C111 1.281 . S
O124 Mn108 2.297 . S
O124 C111 1.236 . S
N125 Mn109 2.282 . S
N125 C126 1.328 . S
N125 C130 1.318 . S
C126 N125 1.328 . S
C126 C127 1.457 . S
C126 H131 0.929 . S
C127 C126 1.457 . S
C127 C128 1.291 . S
C127 H140 0.931 . S
C128 C127 1.291 . S
C128 C129 1.373 . S
C128 H141 0.929 . S
C129 C128 1.373 . S
C129 C130 1.396 . S
C129 C136 1.403 . S
C130 C120 1.476 . S
C130 N125 1.318 . S
C130 C129 1.396 . S
H131 C126 0.929 . S
O132 Mn108 2.385 . S
O132 C110 1.234 . S
O133 Mn108 2.209 . S
O133 Mn109 2.215 . S
O133 C110 1.283 . S
O134 Mn108 2.094 . S
O134 C112 1.240 . S
O135 Mn109 2.117 . S
O135 C112 1.264 . S
C136 C129 1.403 . S
C136 C137 1.399 . S
C136 H142 0.929 . S
C137 C117 1.449 . S
C137 C136 1.399 . S
C137 H143 0.930 . S
H138 C118 0.931 . S
H139 C119 0.930 . S
H140 C127 0.931 . S
H141 C128 0.929 . S
H142 C136 0.929 . S
H143 C137 0.930 . S
Mn144 O149 2.095 . S
Mn144 O159 2.162 . S
Mn144 O160 2.297 . S
Mn144 O168 2.385 . S
Mn144 O169 2.209 . S
Mn144 O170 2.094 . S
Mn145 O150 2.121 . S
Mn145 N152 2.257 . S
Mn145 N161 2.282 . S
Mn145 O169 2.215 . S
Mn145 O171 2.117 . S
C146 O168 1.234 . S
C146 O169 1.283 . S
C147 O159 1.281 . S
C147 O160 1.236 . S
C148 O170 1.240 . S
C148 O171 1.264 . S
O149 Mn144 2.095 . S
O149 C158 1.250 . S
O150 Mn145 2.121 . S
O150 C158 1.258 . S
C151 N152 1.326 . S
C151 C155 1.460 . S
C151 H157 0.929 . S
N152 Mn145 2.257 . S
N152 C151 1.326 . S
N152 C156 1.362 . S
C153 C154 1.258 . S
C153 C156 1.431 . S
C153 C173 1.449 . S
C154 C153 1.258 . S
C154 C155 1.477 . S
C154 H174 0.931 . S
C155 C151 1.460 . S
C155 C154 1.477 . S
C155 H175 0.930 . S
C156 N152 1.362 . S
C156 C153 1.431 . S
C156 C166 1.476 . S
H157 C151 0.929 . S
C158 O149 1.250 . S
C158 O150 1.258 . S
O159 Mn144 2.162 . S
O159 C147 1.281 . S
O160 Mn144 2.297 . S
O160 C147 1.236 . S
N161 Mn145 2.282 . S
N161 C162 1.328 . S
N161 C166 1.318 . S
C162 N161 1.328 . S
C162 C163 1.457 . S
C162 H167 0.929 . S
C163 C162 1.457 . S
C163 C164 1.291 . S
C163 H176 0.931 . S
C164 C163 1.291 . S
C164 C165 1.373 . S
C164 H177 0.929 . S
C165 C164 1.373 . S
C165 C166 1.396 . S
C165 C172 1.403 . S
C166 C156 1.476 . S
C166 N161 1.318 . S
C166 C165 1.396 . S
H167 C162 0.929 . S
O168 Mn144 2.385 . S
O168 C146 1.234 . S
O169 Mn144 2.209 . S
O169 Mn145 2.215 . S
O169 C146 1.283 . S
O170 Mn144 2.094 . S
O170 C148 1.240 . S
O171 Mn145 2.117 . S
O171 C148 1.264 . S
C172 C165 1.403 . S
C172 C173 1.399 . S
C172 H178 0.929 . S
C173 C153 1.449 . S
C173 C172 1.399 . S
C173 H179 0.930 . S
H174 C154 0.931 . S
H175 C155 0.930 . S
H176 C163 0.931 . S
H177 C164 0.929 . S
H178 C172 0.929 . S
H179 C173 0.930 . S
Mn180 O185 2.095 . S
Mn180 O195 2.162 . S
Mn180 O196 2.297 . S
Mn180 O204 2.385 . S
Mn180 O205 2.209 . S
Mn180 O206 2.094 . S
Mn181 O186 2.121 . S
Mn181 N188 2.257 . S
Mn181 N197 2.282 . S
Mn181 O205 2.215 . S
Mn181 O207 2.117 . S
C182 O204 1.234 . S
C182 O205 1.283 . S
C183 O195 1.281 . S
C183 O196 1.236 . S
C184 O206 1.240 . S
C184 O207 1.264 . S
O185 Mn180 2.095 . S
O185 C194 1.250 . S
O186 Mn181 2.121 . S
O186 C194 1.258 . S
C187 N188 1.326 . S
C187 C191 1.460 . S
C187 H193 0.929 . S
N188 Mn181 2.257 . S
N188 C187 1.326 . S
N188 C192 1.362 . S
C189 C190 1.258 . S
C189 C192 1.431 . S
C189 C209 1.449 . S
C190 C189 1.258 . S
C190 C191 1.477 . S
C190 H210 0.931 . S
C191 C187 1.460 . S
C191 C190 1.477 . S
C191 H211 0.930 . S
C192 N188 1.362 . S
C192 C189 1.431 . S
C192 C202 1.476 . S
H193 C187 0.929 . S
C194 O185 1.250 . S
C194 O186 1.258 . S
O195 Mn180 2.162 . S
O195 C183 1.281 . S
O196 Mn180 2.297 . S
O196 C183 1.236 . S
N197 Mn181 2.282 . S
N197 C198 1.328 . S
N197 C202 1.318 . S
C198 N197 1.328 . S
C198 C199 1.457 . S
C198 H203 0.929 . S
C199 C198 1.457 . S
C199 C200 1.291 . S
C199 H212 0.931 . S
C200 C199 1.291 . S
C200 C201 1.373 . S
C200 H213 0.929 . S
C201 C200 1.373 . S
C201 C202 1.396 . S
C201 C208 1.403 . S
C202 C192 1.476 . S
C202 N197 1.318 . S
C202 C201 1.396 . S
H203 C198 0.929 . S
O204 Mn180 2.385 . S
O204 C182 1.234 . S
O205 Mn180 2.209 . S
O205 Mn181 2.215 . S
O205 C182 1.283 . S
O206 Mn180 2.094 . S
O206 C184 1.240 . S
O207 Mn181 2.117 . S
O207 C184 1.264 . S
C208 C201 1.403 . S
C208 C209 1.399 . S
C208 H214 0.929 . S
C209 C189 1.449 . S
C209 C208 1.399 . S
C209 H215 0.930 . S
H210 C190 0.931 . S
H211 C191 0.930 . S
H212 C199 0.931 . S
H213 C200 0.929 . S
H214 C208 0.929 . S
H215 C209 0.930 . S
Mn216 O221 2.095 . S
Mn216 O231 2.162 . S
Mn216 O232 2.297 . S
Mn216 O240 2.385 . S
Mn216 O241 2.209 . S
Mn216 O242 2.094 . S
Mn217 O222 2.121 . S
Mn217 N224 2.257 . S
Mn217 N233 2.282 . S
Mn217 O241 2.215 . S
Mn217 O243 2.117 . S
C218 O240 1.234 . S
C218 O241 1.283 . S
C219 O231 1.281 . S
C219 O232 1.236 . S
C220 O242 1.240 . S
C220 O243 1.264 . S
O221 Mn216 2.095 . S
O221 C230 1.250 . S
O222 Mn217 2.121 . S
O222 C230 1.258 . S
C223 N224 1.326 . S
C223 C227 1.460 . S
C223 H229 0.929 . S
N224 Mn217 2.257 . S
N224 C223 1.326 . S
N224 C228 1.362 . S
C225 C226 1.258 . S
C225 C228 1.431 . S
C225 C245 1.449 . S
C226 C225 1.258 . S
C226 C227 1.477 . S
C226 H246 0.931 . S
C227 C223 1.460 . S
C227 C226 1.477 . S
C227 H247 0.930 . S
C228 N224 1.362 . S
C228 C225 1.431 . S
C228 C238 1.476 . S
H229 C223 0.929 . S
C230 O221 1.250 . S
C230 O222 1.258 . S
O231 Mn216 2.162 . S
O231 C219 1.281 . S
O232 Mn216 2.297 . S
O232 C219 1.236 . S
N233 Mn217 2.282 . S
N233 C234 1.328 . S
N233 C238 1.318 . S
C234 N233 1.328 . S
C234 C235 1.457 . S
C234 H239 0.929 . S
C235 C234 1.457 . S
C235 C236 1.291 . S
C235 H248 0.931 . S
C236 C235 1.291 . S
C236 C237 1.373 . S
C236 H249 0.929 . S
C237 C236 1.373 . S
C237 C238 1.396 . S
C237 C244 1.403 . S
C238 C228 1.476 . S
C238 N233 1.318 . S
C238 C237 1.396 . S
H239 C234 0.929 . S
O240 Mn216 2.385 . S
O240 C218 1.234 . S
O241 Mn216 2.209 . S
O241 Mn217 2.215 . S
O241 C218 1.283 . S
O242 Mn216 2.094 . S
O242 C220 1.240 . S
O243 Mn217 2.117 . S
O243 C220 1.264 . S
C244 C237 1.403 . S
C244 C245 1.399 . S
C244 H250 0.929 . S
C245 C225 1.449 . S
C245 C244 1.399 . S
C245 H251 0.930 . S
H246 C226 0.931 . S
H247 C227 0.930 . S
H248 C235 0.931 . S
H249 C236 0.929 . S
H250 C244 0.929 . S
H251 C245 0.930 . S
Mn252 O257 2.095 . S
Mn252 O267 2.162 . S
Mn252 O268 2.297 . S
Mn252 O276 2.385 . S
Mn252 O277 2.209 . S
Mn252 O278 2.094 . S
Mn253 O258 2.121 . S
Mn253 N260 2.257 . S
Mn253 N269 2.282 . S
Mn253 O277 2.215 . S
Mn253 O279 2.117 . S
C254 O276 1.234 . S
C254 O277 1.283 . S
C255 O267 1.281 . S
C255 O268 1.236 . S
C256 O278 1.240 . S
C256 O279 1.264 . S
O257 Mn252 2.095 . S
O257 C266 1.250 . S
O258 Mn253 2.121 . S
O258 C266 1.258 . S
C259 N260 1.326 . S
C259 C263 1.460 . S
C259 H265 0.929 . S
N260 Mn253 2.257 . S
N260 C259 1.326 . S
N260 C264 1.362 . S
C261 C262 1.258 . S
C261 C264 1.431 . S
C261 C281 1.449 . S
C262 C261 1.258 . S
C262 C263 1.477 . S
C262 H282 0.931 . S
C263 C259 1.460 . S
C263 C262 1.477 . S
C263 H283 0.930 . S
C264 N260 1.362 . S
C264 C261 1.431 . S
C264 C274 1.476 . S
H265 C259 0.929 . S
C266 O257 1.250 . S
C266 O258 1.258 . S
O267 Mn252 2.162 . S
O267 C255 1.281 . S
O268 Mn252 2.297 . S
O268 C255 1.236 . S
N269 Mn253 2.282 . S
N269 C270 1.328 . S
N269 C274 1.318 . S
C270 N269 1.328 . S
C270 C271 1.457 . S
C270 H275 0.929 . S
C271 C270 1.457 . S
C271 C272 1.291 . S
C271 H284 0.931 . S
C272 C271 1.291 . S
C272 C273 1.373 . S
C272 H285 0.929 . S
C273 C272 1.373 . S
C273 C274 1.396 . S
C273 C280 1.403 . S
C274 C264 1.476 . S
C274 N269 1.318 . S
C274 C273 1.396 . S
H275 C270 0.929 . S
O276 Mn252 2.385 . S
O276 C254 1.234 . S
O277 Mn252 2.209 . S
O277 Mn253 2.215 . S
O277 C254 1.283 . S
O278 Mn252 2.094 . S
O278 C256 1.240 . S
O279 Mn253 2.117 . S
O279 C256 1.264 . S
C280 C273 1.403 . S
C280 C281 1.399 . S
C280 H286 0.929 . S
C281 C261 1.449 . S
C281 C280 1.399 . S
C281 H287 0.930 . S
H282 C262 0.931 . S
H283 C263 0.930 . S
H284 C271 0.931 . S
H285 C272 0.929 . S
H286 C280 0.929 . S
H287 C281 0.930 . S
Mn288 O293 2.095 . S
Mn288 O303 2.162 . S
Mn288 O304 2.297 . S
Mn288 O312 2.385 . S
Mn288 O313 2.209 . S
Mn288 O314 2.094 . S
Mn289 O294 2.121 . S
Mn289 N296 2.257 . S
Mn289 N305 2.282 . S
Mn289 O313 2.215 . S
Mn289 O315 2.117 . S
C290 O312 1.234 . S
C290 O313 1.283 . S
C291 O303 1.281 . S
C291 O304 1.236 . S
C292 O314 1.240 . S
C292 O315 1.264 . S
O293 Mn288 2.095 . S
O293 C302 1.250 . S
O294 Mn289 2.121 . S
O294 C302 1.258 . S
C295 N296 1.326 . S
C295 C299 1.460 . S
C295 H301 0.929 . S
N296 Mn289 2.257 . S
N296 C295 1.326 . S
N296 C300 1.362 . S
C297 C298 1.258 . S
C297 C300 1.431 . S
C297 C317 1.449 . S
C298 C297 1.258 . S
C298 C299 1.477 . S
C298 H318 0.931 . S
C299 C295 1.460 . S
C299 C298 1.477 . S
C299 H319 0.930 . S
C300 N296 1.362 . S
C300 C297 1.431 . S
C300 C310 1.476 . S
H301 C295 0.929 . S
C302 O293 1.250 . S
C302 O294 1.258 . S
O303 Mn288 2.162 . S
O303 C291 1.281 . S
O304 Mn288 2.297 . S
O304 C291 1.236 . S
N305 Mn289 2.282 . S
N305 C306 1.328 . S
N305 C310 1.318 . S
C306 N305 1.328 . S
C306 C307 1.457 . S
C306 H311 0.929 . S
C307 C306 1.457 . S
C307 C308 1.291 . S
C307 H320 0.931 . S
C308 C307 1.291 . S
C308 C309 1.373 . S
C308 H321 0.929 . S
C309 C308 1.373 . S
C309 C310 1.396 . S
C309 C316 1.403 . S
C310 C300 1.476 . S
C310 N305 1.318 . S
C310 C309 1.396 . S
H311 C306 0.929 . S
O312 Mn288 2.385 . S
O312 C290 1.234 . S
O313 Mn288 2.209 . S
O313 Mn289 2.215 . S
O313 C290 1.283 . S
O314 Mn288 2.094 . S
O314 C292 1.240 . S
O315 Mn289 2.117 . S
O315 C292 1.264 . S
C316 C309 1.403 . S
C316 C317 1.399 . S
C316 H322 0.929 . S
C317 C297 1.449 . S
C317 C316 1.399 . S
C317 H323 0.930 . S
H318 C298 0.931 . S
H319 C299 0.930 . S
H320 C307 0.931 . S
H321 C308 0.929 . S
H322 C316 0.929 . S
H323 C317 0.930 . S
Mn324 O329 2.095 . S
Mn324 O339 2.162 . S
Mn324 O340 2.297 . S
Mn324 O348 2.385 . S
Mn324 O349 2.209 . S
Mn324 O350 2.094 . S
Mn325 O330 2.121 . S
Mn325 N332 2.257 . S
Mn325 N341 2.282 . S
Mn325 O349 2.215 . S
Mn325 O351 2.117 . S
C326 O348 1.234 . S
C326 O349 1.283 . S
C327 O339 1.281 . S
C327 O340 1.236 . S
C328 O350 1.240 . S
C328 O351 1.264 . S
O329 Mn324 2.095 . S
O329 C338 1.250 . S
O330 Mn325 2.121 . S
O330 C338 1.258 . S
C331 N332 1.326 . S
C331 C335 1.460 . S
C331 H337 0.929 . S
N332 Mn325 2.257 . S
N332 C331 1.326 . S
N332 C336 1.362 . S
C333 C334 1.258 . S
C333 C336 1.431 . S
C333 C353 1.449 . S
C334 C333 1.258 . S
C334 C335 1.477 . S
C334 H354 0.931 . S
C335 C331 1.460 . S
C335 C334 1.477 . S
C335 H355 0.930 . S
C336 N332 1.362 . S
C336 C333 1.431 . S
C336 C346 1.476 . S
H337 C331 0.929 . S
C338 O329 1.250 . S
C338 O330 1.258 . S
O339 Mn324 2.162 . S
O339 C327 1.281 . S
O340 Mn324 2.297 . S
O340 C327 1.236 . S
N341 Mn325 2.282 . S
N341 C342 1.328 . S
N341 C346 1.318 . S
C342 N341 1.328 . S
C342 C343 1.457 . S
C342 H347 0.929 . S
C343 C342 1.457 . S
C343 C344 1.291 . S
C343 H356 0.931 . S
C344 C343 1.291 . S
C344 C345 1.373 . S
C344 H357 0.929 . S
C345 C344 1.373 . S
C345 C346 1.396 . S
C345 C352 1.403 . S
C346 C336 1.476 . S
C346 N341 1.318 . S
C346 C345 1.396 . S
H347 C342 0.929 . S
O348 Mn324 2.385 . S
O348 C326 1.234 . S
O349 Mn324 2.209 . S
O349 Mn325 2.215 . S
O349 C326 1.283 . S
O350 Mn324 2.094 . S
O350 C328 1.240 . S
O351 Mn325 2.117 . S
O351 C328 1.264 . S
C352 C345 1.403 . S
C352 C353 1.399 . S
C352 H358 0.929 . S
C353 C333 1.449 . S
C353 C352 1.399 . S
C353 H359 0.930 . S
H354 C334 0.931 . S
H355 C335 0.930 . S
H356 C343 0.931 . S
H357 C344 0.929 . S
H358 C352 0.929 . S
H359 C353 0.930 . S
Mn360 O365 2.095 . S
Mn360 O375 2.162 . S
Mn360 O376 2.297 . S
Mn360 O384 2.385 . S
Mn360 O385 2.209 . S
Mn360 O386 2.094 . S
Mn361 O366 2.121 . S
Mn361 N368 2.257 . S
Mn361 N377 2.282 . S
Mn361 O385 2.215 . S
Mn361 O387 2.117 . S
C362 O384 1.234 . S
C362 O385 1.283 . S
C363 O375 1.281 . S
C363 O376 1.236 . S
C364 O386 1.240 . S
C364 O387 1.264 . S
O365 Mn360 2.095 . S
O365 C374 1.250 . S
O366 Mn361 2.121 . S
O366 C374 1.258 . S
C367 N368 1.326 . S
C367 C371 1.460 . S
C367 H373 0.929 . S
N368 Mn361 2.257 . S
N368 C367 1.326 . S
N368 C372 1.362 . S
C369 C370 1.258 . S
C369 C372 1.431 . S
C369 C389 1.449 . S
C370 C369 1.258 . S
C370 C371 1.477 . S
C370 H390 0.931 . S
C371 C367 1.460 . S
C371 C370 1.477 . S
C371 H391 0.930 . S
C372 N368 1.362 . S
C372 C369 1.431 . S
C372 C382 1.476 . S
H373 C367 0.929 . S
C374 O365 1.250 . S
C374 O366 1.258 . S
O375 Mn360 2.162 . S
O375 C363 1.281 . S
O376 Mn360 2.297 . S
O376 C363 1.236 . S
N377 Mn361 2.282 . S
N377 C378 1.328 . S
N377 C382 1.318 . S
C378 N377 1.328 . S
C378 C379 1.457 . S
C378 H383 0.929 . S
C379 C378 1.457 . S
C379 C380 1.291 . S
C379 H392 0.931 . S
C380 C379 1.291 . S
C380 C381 1.373 . S
C380 H393 0.929 . S
C381 C380 1.373 . S
C381 C382 1.396 . S
C381 C388 1.403 . S
C382 C372 1.476 . S
C382 N377 1.318 . S
C382 C381 1.396 . S
H383 C378 0.929 . S
O384 Mn360 2.385 . S
O384 C362 1.234 . S
O385 Mn360 2.209 . S
O385 Mn361 2.215 . S
O385 C362 1.283 . S
O386 Mn360 2.094 . S
O386 C364 1.240 . S
O387 Mn361 2.117 . S
O387 C364 1.264 . S
C388 C381 1.403 . S
C388 C389 1.399 . S
C388 H394 0.929 . S
C389 C369 1.449 . S
C389 C388 1.399 . S
C389 H395 0.930 . S
H390 C370 0.931 . S
H391 C371 0.930 . S
H392 C379 0.931 . S
H393 C380 0.929 . S
H394 C388 0.929 . S
H395 C389 0.930 . S
Mn396 O401 2.095 . S
Mn396 O411 2.162 . S
Mn396 O412 2.297 . S
Mn396 O420 2.385 . S
Mn396 O421 2.209 . S
Mn396 O422 2.094 . S
Mn397 O402 2.121 . S
Mn397 N404 2.257 . S
Mn397 N413 2.282 . S
Mn397 O421 2.215 . S
Mn397 O423 2.117 . S
C398 O420 1.234 . S
C398 O421 1.283 . S
C399 O411 1.281 . S
C399 O412 1.236 . S
C400 O422 1.240 . S
C400 O423 1.264 . S
O401 Mn396 2.095 . S
O401 C410 1.250 . S
O402 Mn397 2.121 . S
O402 C410 1.258 . S
C403 N404 1.326 . S
C403 C407 1.460 . S
C403 H409 0.929 . S
N404 Mn397 2.257 . S
N404 C403 1.326 . S
N404 C408 1.362 . S
C405 C406 1.258 . S
C405 C408 1.431 . S
C405 C425 1.449 . S
C406 C405 1.258 . S
C406 C407 1.477 . S
C406 H426 0.931 . S
C407 C403 1.460 . S
C407 C406 1.477 . S
C407 H427 0.930 . S
C408 N404 1.362 . S
C408 C405 1.431 . S
C408 C418 1.476 . S
H409 C403 0.929 . S
C410 O401 1.250 . S
C410 O402 1.258 . S
O411 Mn396 2.162 . S
O411 C399 1.281 . S
O412 Mn396 2.297 . S
O412 C399 1.236 . S
N413 Mn397 2.282 . S
N413 C414 1.328 . S
N413 C418 1.318 . S
C414 N413 1.328 . S
C414 C415 1.457 . S
C414 H419 0.929 . S
C415 C414 1.457 . S
C415 C416 1.291 . S
C415 H428 0.931 . S
C416 C415 1.291 . S
C416 C417 1.373 . S
C416 H429 0.929 . S
C417 C416 1.373 . S
C417 C418 1.396 . S
C417 C424 1.403 . S
C418 C408 1.476 . S
C418 N413 1.318 . S
C418 C417 1.396 . S
H419 C414 0.929 . S
O420 Mn396 2.385 . S
O420 C398 1.234 . S
O421 Mn396 2.209 . S
O421 Mn397 2.215 . S
O421 C398 1.283 . S
O422 Mn396 2.094 . S
O422 C400 1.240 . S
O423 Mn397 2.117 . S
O423 C400 1.264 . S
C424 C417 1.403 . S
C424 C425 1.399 . S
C424 H430 0.929 . S
C425 C405 1.449 . S
C425 C424 1.399 . S
C425 H431 0.930 . S
H426 C406 0.931 . S
H427 C407 0.930 . S
H428 C415 0.931 . S
H429 C416 0.929 . S
H430 C424 0.929 . S
H431 C425 0.930 . S
Mn432 O437 2.095 . S
Mn432 O447 2.162 . S
Mn432 O448 2.297 . S
Mn432 O456 2.385 . S
Mn432 O457 2.209 . S
Mn432 O458 2.094 . S
Mn433 O438 2.121 . S
Mn433 N440 2.257 . S
Mn433 N449 2.282 . S
Mn433 O457 2.215 . S
Mn433 O459 2.117 . S
C434 O456 1.234 . S
C434 O457 1.283 . S
C435 O447 1.281 . S
C435 O448 1.236 . S
C436 O458 1.240 . S
C436 O459 1.264 . S
O437 Mn432 2.095 . S
O437 C446 1.250 . S
O438 Mn433 2.121 . S
O438 C446 1.258 . S
C439 N440 1.326 . S
C439 C443 1.460 . S
C439 H445 0.929 . S
N440 Mn433 2.257 . S
N440 C439 1.326 . S
N440 C444 1.362 . S
C441 C442 1.258 . S
C441 C444 1.431 . S
C441 C461 1.449 . S
C442 C441 1.258 . S
C442 C443 1.477 . S
C442 H462 0.931 . S
C443 C439 1.460 . S
C443 C442 1.477 . S
C443 H463 0.930 . S
C444 N440 1.362 . S
C444 C441 1.431 . S
C444 C454 1.476 . S
H445 C439 0.929 . S
C446 O437 1.250 . S
C446 O438 1.258 . S
O447 Mn432 2.162 . S
O447 C435 1.281 . S
O448 Mn432 2.297 . S
O448 C435 1.236 . S
N449 Mn433 2.282 . S
N449 C450 1.328 . S
N449 C454 1.318 . S
C450 N449 1.328 . S
C450 C451 1.457 . S
C450 H455 0.929 . S
C451 C450 1.457 . S
C451 C452 1.291 . S
C451 H464 0.931 . S
C452 C451 1.291 . S
C452 C453 1.373 . S
C452 H465 0.929 . S
C453 C452 1.373 . S
C453 C454 1.396 . S
C453 C460 1.403 . S
C454 C444 1.476 . S
C454 N449 1.318 . S
C454 C453 1.396 . S
H455 C450 0.929 . S
O456 Mn432 2.385 . S
O456 C434 1.234 . S
O457 Mn432 2.209 . S
O457 Mn433 2.215 . S
O457 C434 1.283 . S
O458 Mn432 2.094 . S
O458 C436 1.240 . S
O459 Mn433 2.117 . S
O459 C436 1.264 . S
C460 C453 1.403 . S
C460 C461 1.399 . S
C460 H466 0.929 . S
C461 C441 1.449 . S
C461 C460 1.399 . S
C461 H467 0.930 . S
H462 C442 0.931 . S
H463 C443 0.930 . S
H464 C451 0.931 . S
H465 C452 0.929 . S
H466 C460 0.929 . S
H467 C461 0.930 . S
Mn468 O473 2.095 . S
Mn468 O483 2.162 . S
Mn468 O484 2.297 . S
Mn468 O492 2.385 . S
Mn468 O493 2.209 . S
Mn468 O494 2.094 . S
Mn469 O474 2.121 . S
Mn469 N476 2.257 . S
Mn469 N485 2.282 . S
Mn469 O493 2.215 . S
Mn469 O495 2.117 . S
C470 O492 1.234 . S
C470 O493 1.283 . S
C471 O483 1.281 . S
C471 O484 1.236 . S
C472 O494 1.240 . S
C472 O495 1.264 . S
O473 Mn468 2.095 . S
O473 C482 1.250 . S
O474 Mn469 2.121 . S
O474 C482 1.258 . S
C475 N476 1.326 . S
C475 C479 1.460 . S
C475 H481 0.929 . S
N476 Mn469 2.257 . S
N476 C475 1.326 . S
N476 C480 1.362 . S
C477 C478 1.258 . S
C477 C480 1.431 . S
C477 C497 1.449 . S
C478 C477 1.258 . S
C478 C479 1.477 . S
C478 H498 0.931 . S
C479 C475 1.460 . S
C479 C478 1.477 . S
C479 H499 0.930 . S
C480 N476 1.362 . S
C480 C477 1.431 . S
C480 C490 1.476 . S
H481 C475 0.929 . S
C482 O473 1.250 . S
C482 O474 1.258 . S
O483 Mn468 2.162 . S
O483 C471 1.281 . S
O484 Mn468 2.297 . S
O484 C471 1.236 . S
N485 Mn469 2.282 . S
N485 C486 1.328 . S
N485 C490 1.318 . S
C486 N485 1.328 . S
C486 C487 1.457 . S
C486 H491 0.929 . S
C487 C486 1.457 . S
C487 C488 1.291 . S
C487 H500 0.931 . S
C488 C487 1.291 . S
C488 C489 1.373 . S
C488 H501 0.929 . S
C489 C488 1.373 . S
C489 C490 1.396 . S
C489 C496 1.403 . S
C490 C480 1.476 . S
C490 N485 1.318 . S
C490 C489 1.396 . S
H491 C486 0.929 . S
O492 Mn468 2.385 . S
O492 C470 1.234 . S
O493 Mn468 2.209 . S
O493 Mn469 2.215 . S
O493 C470 1.283 . S
O494 Mn468 2.094 . S
O494 C472 1.240 . S
O495 Mn469 2.117 . S
O495 C472 1.264 . S
C496 C489 1.403 . S
C496 C497 1.399 . S
C496 H502 0.929 . S
C497 C477 1.449 . S
C497 C496 1.399 . S
C497 H503 0.930 . S
H498 C478 0.931 . S
H499 C479 0.930 . S
H500 C487 0.931 . S
H501 C488 0.929 . S
H502 C496 0.929 . S
H503 C497 0.930 . S
Mn504 O509 2.095 . S
Mn504 O519 2.162 . S
Mn504 O520 2.297 . S
Mn504 O528 2.385 . S
Mn504 O529 2.209 . S
Mn504 O530 2.094 . S
Mn505 O510 2.121 . S
Mn505 N512 2.257 . S
Mn505 N521 2.282 . S
Mn505 O529 2.215 . S
Mn505 O531 2.117 . S
C506 O528 1.234 . S
C506 O529 1.283 . S
C507 O519 1.281 . S
C507 O520 1.236 . S
C508 O530 1.240 . S
C508 O531 1.264 . S
O509 Mn504 2.095 . S
O509 C518 1.250 . S
O510 Mn505 2.121 . S
O510 C518 1.258 . S
C511 N512 1.326 . S
C511 C515 1.460 . S
C511 H517 0.929 . S
N512 Mn505 2.257 . S
N512 C511 1.326 . S
N512 C516 1.362 . S
C513 C514 1.258 . S
C513 C516 1.431 . S
C513 C533 1.449 . S
C514 C513 1.258 . S
C514 C515 1.477 . S
C514 H534 0.931 . S
C515 C511 1.460 . S
C515 C514 1.477 . S
C515 H535 0.930 . S
C516 N512 1.362 . S
C516 C513 1.431 . S
C516 C526 1.476 . S
H517 C511 0.929 . S
C518 O509 1.250 . S
C518 O510 1.258 . S
O519 Mn504 2.162 . S
O519 C507 1.281 . S
O520 Mn504 2.297 . S
O520 C507 1.236 . S
N521 Mn505 2.282 . S
N521 C522 1.328 . S
N521 C526 1.318 . S
C522 N521 1.328 . S
C522 C523 1.457 . S
C522 H527 0.929 . S
C523 C522 1.457 . S
C523 C524 1.291 . S
C523 H536 0.931 . S
C524 C523 1.291 . S
C524 C525 1.373 . S
C524 H537 0.929 . S
C525 C524 1.373 . S
C525 C526 1.396 . S
C525 C532 1.403 . S
C526 C516 1.476 . S
C526 N521 1.318 . S
C526 C525 1.396 . S
H527 C522 0.929 . S
O528 Mn504 2.385 . S
O528 C506 1.234 . S
O529 Mn504 2.209 . S
O529 Mn505 2.215 . S
O529 C506 1.283 . S
O530 Mn504 2.094 . S
O530 C508 1.240 . S
O531 Mn505 2.117 . S
O531 C508 1.264 . S
C532 C525 1.403 . S
C532 C533 1.399 . S
C532 H538 0.929 . S
C533 C513 1.449 . S
C533 C532 1.399 . S
C533 H539 0.930 . S
H534 C514 0.931 . S
H535 C515 0.930 . S
H536 C523 0.931 . S
H537 C524 0.929 . S
H538 C532 0.929 . S
H539 C533 0.930 . S
Mn540 O545 2.095 . S
Mn540 O555 2.162 . S
Mn540 O556 2.297 . S
Mn540 O564 2.385 . S
Mn540 O565 2.209 . S
Mn540 O566 2.094 . S
Mn541 O546 2.121 . S
Mn541 N548 2.257 . S
Mn541 N557 2.282 . S
Mn541 O565 2.215 . S
Mn541 O567 2.117 . S
C542 O564 1.234 . S
C542 O565 1.283 . S
C543 O555 1.281 . S
C543 O556 1.236 . S
C544 O566 1.240 . S
C544 O567 1.264 . S
O545 Mn540 2.095 . S
O545 C554 1.250 . S
O546 Mn541 2.121 . S
O546 C554 1.258 . S
C547 N548 1.326 . S
C547 C551 1.460 . S
C547 H553 0.929 . S
N548 Mn541 2.257 . S
N548 C547 1.326 . S
N548 C552 1.362 . S
C549 C550 1.258 . S
C549 C552 1.431 . S
C549 C569 1.449 . S
C550 C549 1.258 . S
C550 C551 1.477 . S
C550 H570 0.931 . S
C551 C547 1.460 . S
C551 C550 1.477 . S
C551 H571 0.930 . S
C552 N548 1.362 . S
C552 C549 1.431 . S
C552 C562 1.476 . S
H553 C547 0.929 . S
C554 O545 1.250 . S
C554 O546 1.258 . S
O555 Mn540 2.162 . S
O555 C543 1.281 . S
O556 Mn540 2.297 . S
O556 C543 1.236 . S
N557 Mn541 2.282 . S
N557 C558 1.328 . S
N557 C562 1.318 . S
C558 N557 1.328 . S
C558 C559 1.457 . S
C558 H563 0.929 . S
C559 C558 1.457 . S
C559 C560 1.291 . S
C559 H572 0.931 . S
C560 C559 1.291 . S
C560 C561 1.373 . S
C560 H573 0.929 . S
C561 C560 1.373 . S
C561 C562 1.396 . S
C561 C568 1.403 . S
C562 C552 1.476 . S
C562 N557 1.318 . S
C562 C561 1.396 . S
H563 C558 0.929 . S
O564 Mn540 2.385 . S
O564 C542 1.234 . S
O565 Mn540 2.209 . S
O565 Mn541 2.215 . S
O565 C542 1.283 . S
O566 Mn540 2.094 . S
O566 C544 1.240 . S
O567 Mn541 2.117 . S
O567 C544 1.264 . S
C568 C561 1.403 . S
C568 C569 1.399 . S
C568 H574 0.929 . S
C569 C549 1.449 . S
C569 C568 1.399 . S
C569 H575 0.930 . S
H570 C550 0.931 . S
H571 C551 0.930 . S
H572 C559 0.931 . S
H573 C560 0.929 . S
H574 C568 0.929 . S
H575 C569 0.930 . S
H576 C594 0.951 . S
H577 C596 0.951 . S
H578 C598 0.950 . S
H579 C599 0.950 . S
H580 C601 0.950 . S
H581 C604 0.950 . S
H582 C605 0.950 . S
H583 C607 0.950 . S
H584 C608 0.950 . S
H585 C609 0.951 . S
H586 C611 0.951 . S
H587 C613 0.950 . S
H588 C614 0.950 . S
H589 C616 0.950 . S
H590 C619 0.950 . S
H591 C620 0.950 . S
H592 C622 0.950 . S
H593 C623 0.950 . S
C594 H576 0.951 . S
C594 C595 1.366 . S
C594 C596 1.388 . S
C595 C594 1.366 . S
C595 C599 1.385 . S
C596 H577 0.951 . S
C596 C594 1.388 . S
C596 C597 1.366 . S
C597 C596 1.366 . S
C597 C598 1.414 . S
C597 C600 1.499 . S
C598 H578 0.950 . S
C598 C597 1.414 . S
C598 C599 1.374 . S
C599 H579 0.950 . S
C599 C595 1.385 . S
C599 C598 1.374 . S
C600 C597 1.499 . S
C600 C601 1.373 . S
C600 C602 1.389 . S
C601 H580 0.950 . S
C601 C600 1.373 . S
C601 C617 1.377 . S
C602 C600 1.389 . S
C602 C603 1.524 . S
C602 C616 1.377 . S
C603 C602 1.524 . S
C603 C604 1.397 . S
C603 C608 1.363 . S
C604 H581 0.950 . S
C604 C603 1.397 . S
C604 C605 1.334 . S
C605 H582 0.950 . S
C605 C604 1.334 . S
C605 C606 1.287 . S
C606 C605 1.287 . S
C606 C607 1.524 . S
C606 H625 0.913 . S
C607 H583 0.950 . S
C607 C606 1.524 . S
C607 C608 1.415 . S
C608 H584 0.950 . S
C608 C603 1.363 . S
C608 C607 1.415 . S
C609 H585 0.951 . S
C609 C610 1.366 . S
C609 C611 1.388 . S
C610 C609 1.366 . S
C610 C614 1.385 . S
C611 H586 0.951 . S
C611 C609 1.388 . S
C611 C612 1.366 . S
C612 C611 1.366 . S
C612 C613 1.414 . S
C612 C615 1.499 . S
C613 H587 0.950 . S
C613 C612 1.414 . S
C613 C614 1.374 . S
C614 H588 0.950 . S
C614 C610 1.385 . S
C614 C613 1.374 . S
C615 C612 1.499 . S
C615 C616 1.373 . S
C615 C617 1.389 . S
C616 H589 0.950 . S
C616 C602 1.377 . S
C616 C615 1.373 . S
C617 C601 1.377 . S
C617 C615 1.389 . S
C617 C618 1.524 . S
C618 C617 1.524 . S
C618 C619 1.397 . S
C618 C623 1.363 . S
C619 H590 0.950 . S
C619 C618 1.397 . S
C619 C620 1.334 . S
C620 H591 0.950 . S
C620 C619 1.334 . S
C620 C621 1.287 . S
C621 C620 1.287 . S
C621 C622 1.524 . S
C621 H624 0.999 . S
C622 H592 0.950 . S
C622 C621 1.524 . S
C622 C623 1.415 . S
C623 H593 0.950 . S
C623 C618 1.363 . S
C623 C622 1.415 . S
H624 C621 0.999 . S
H625 C606 0.913 . S
H626 C644 0.951 . S
H627 C646 0.951 . S
H628 C648 0.950 . S
H629 C649 0.950 . S
H630 C651 0.950 . S
H631 C654 0.950 . S
H632 C655 0.950 . S
H633 C657 0.950 . S
H634 C658 0.950 . S
H635 C659 0.951 . S
H636 C661 0.951 . S
H637 C663 0.950 . S
H638 C664 0.950 . S
H639 C666 0.950 . S
H640 C669 0.950 . S
H641 C670 0.950 . S
H642 C672 0.950 . S
H643 C673 0.950 . S
C644 H626 0.951 . S
C644 C645 1.366 . S
C644 C646 1.388 . S
C645 C644 1.366 . S
C645 C649 1.385 . S
C646 H627 0.951 . S
C646 C644 1.388 . S
C646 C647 1.366 . S
C647 C646 1.366 . S
C647 C648 1.414 . S
C647 C650 1.499 . S
C648 H628 0.950 . S
C648 C647 1.414 . S
C648 C649 1.374 . S
C649 H629 0.950 . S
C649 C645 1.385 . S
C649 C648 1.374 . S
C650 C647 1.499 . S
C650 C651 1.373 . S
C650 C652 1.389 . S
C651 H630 0.950 . S
C651 C650 1.373 . S
C651 C667 1.377 . S
C652 C650 1.389 . S
C652 C653 1.524 . S
C652 C666 1.377 . S
C653 C652 1.524 . S
C653 C654 1.397 . S
C653 C658 1.363 . S
C654 H631 0.950 . S
C654 C653 1.397 . S
C654 C655 1.334 . S
C655 H632 0.950 . S
C655 C654 1.334 . S
C655 C656 1.287 . S
C656 C655 1.287 . S
C656 C657 1.524 . S
C656 H675 0.913 . S
C657 H633 0.950 . S
C657 C656 1.524 . S
C657 C658 1.415 . S
C658 H634 0.950 . S
C658 C653 1.363 . S
C658 C657 1.415 . S
C659 H635 0.951 . S
C659 C660 1.366 . S
C659 C661 1.388 . S
C660 C659 1.366 . S
C660 C664 1.385 . S
C661 H636 0.951 . S
C661 C659 1.388 . S
C661 C662 1.366 . S
C662 C661 1.366 . S
C662 C663 1.414 . S
C662 C665 1.499 . S
C663 H637 0.950 . S
C663 C662 1.414 . S
C663 C664 1.374 . S
C664 H638 0.950 . S
C664 C660 1.385 . S
C664 C663 1.374 . S
C665 C662 1.499 . S
C665 C666 1.373 . S
C665 C667 1.389 . S
C666 H639 0.950 . S
C666 C652 1.377 . S
C666 C665 1.373 . S
C667 C651 1.377 . S
C667 C665 1.389 . S
C667 C668 1.524 . S
C668 C667 1.524 . S
C668 C669 1.397 . S
C668 C673 1.363 . S
C669 H640 0.950 . S
C669 C668 1.397 . S
C669 C670 1.334 . S
C670 H641 0.950 . S
C670 C669 1.334 . S
C670 C671 1.287 . S
C671 C670 1.287 . S
C671 C672 1.524 . S
C671 H674 0.999 . S
C672 H642 0.950 . S
C672 C671 1.524 . S
C672 C673 1.415 . S
C673 H643 0.950 . S
C673 C668 1.363 . S
C673 C672 1.415 . S
H674 C671 0.999 . S
H675 C656 0.913 . S
H676 C694 0.951 . S
H677 C696 0.951 . S
H678 C698 0.950 . S
H679 C699 0.950 . S
H680 C701 0.950 . S
H681 C704 0.950 . S
H682 C705 0.950 . S
H683 C707 0.950 . S
H684 C708 0.950 . S
H685 C709 0.951 . S
H686 C711 0.951 . S
H687 C713 0.950 . S
H688 C714 0.950 . S
H689 C716 0.950 . S
H690 C719 0.950 . S
H691 C720 0.950 . S
H692 C722 0.950 . S
H693 C723 0.950 . S
C694 H676 0.951 . S
C694 C695 1.366 . S
C694 C696 1.388 . S
C695 C694 1.366 . S
C695 C699 1.385 . S
C696 H677 0.951 . S
C696 C694 1.388 . S
C696 C697 1.366 . S
C697 C696 1.366 . S
C697 C698 1.414 . S
C697 C700 1.499 . S
C698 H678 0.950 . S
C698 C697 1.414 . S
C698 C699 1.374 . S
C699 H679 0.950 . S
C699 C695 1.385 . S
C699 C698 1.374 . S
C700 C697 1.499 . S
C700 C701 1.373 . S
C700 C702 1.389 . S
C701 H680 0.950 . S
C701 C700 1.373 . S
C701 C717 1.377 . S
C702 C700 1.389 . S
C702 C703 1.524 . S
C702 C716 1.377 . S
C703 C702 1.524 . S
C703 C704 1.397 . S
C703 C708 1.363 . S
C704 H681 0.950 . S
C704 C703 1.397 . S
C704 C705 1.334 . S
C705 H682 0.950 . S
C705 C704 1.334 . S
C705 C706 1.287 . S
C706 C705 1.287 . S
C706 C707 1.524 . S
C706 H725 0.913 . S
C707 H683 0.950 . S
C707 C706 1.524 . S
C707 C708 1.415 . S
C708 H684 0.950 . S
C708 C703 1.363 . S
C708 C707 1.415 . S
C709 H685 0.951 . S
C709 C710 1.366 . S
C709 C711 1.388 . S
C710 C709 1.366 . S
C710 C714 1.385 . S
C711 H686 0.951 . S
C711 C709 1.388 . S
C711 C712 1.366 . S
C712 C711 1.366 . S
C712 C713 1.414 . S
C712 C715 1.499 . S
C713 H687 0.950 . S
C713 C712 1.414 . S
C713 C714 1.374 . S
C714 H688 0.950 . S
C714 C710 1.385 . S
C714 C713 1.374 . S
C715 C712 1.499 . S
C715 C716 1.373 . S
C715 C717 1.389 . S
C716 H689 0.950 . S
C716 C702 1.377 . S
C716 C715 1.373 . S
C717 C701 1.377 . S
C717 C715 1.389 . S
C717 C718 1.524 . S
C718 C717 1.524 . S
C718 C719 1.397 . S
C718 C723 1.363 . S
C719 H690 0.950 . S
C719 C718 1.397 . S
C719 C720 1.334 . S
C720 H691 0.950 . S
C720 C719 1.334 . S
C720 C721 1.287 . S
C721 C720 1.287 . S
C721 C722 1.524 . S
C721 H724 0.999 . S
C722 H692 0.950 . S
C722 C721 1.524 . S
C722 C723 1.415 . S
C723 H693 0.950 . S
C723 C718 1.363 . S
C723 C722 1.415 . S
H724 C721 0.999 . S
H725 C706 0.913 . S
H726 C744 0.951 . S
H727 C746 0.951 . S
H728 C748 0.950 . S
H729 C749 0.950 . S
H730 C751 0.950 . S
H731 C754 0.950 . S
H732 C755 0.950 . S
H733 C757 0.950 . S
H734 C758 0.950 . S
H735 C759 0.951 . S
H736 C761 0.951 . S
H737 C763 0.950 . S
H738 C764 0.950 . S
H739 C766 0.950 . S
H740 C769 0.950 . S
H741 C770 0.950 . S
H742 C772 0.950 . S
H743 C773 0.950 . S
C744 H726 0.951 . S
C744 C745 1.366 . S
C744 C746 1.388 . S
C745 C744 1.366 . S
C745 C749 1.385 . S
C746 H727 0.951 . S
C746 C744 1.388 . S
C746 C747 1.366 . S
C747 C746 1.366 . S
C747 C748 1.414 . S
C747 C750 1.499 . S
C748 H728 0.950 . S
C748 C747 1.414 . S
C748 C749 1.374 . S
C749 H729 0.950 . S
C749 C745 1.385 . S
C749 C748 1.374 . S
C750 C747 1.499 . S
C750 C751 1.373 . S
C750 C752 1.389 . S
C751 H730 0.950 . S
C751 C750 1.373 . S
C751 C767 1.377 . S
C752 C750 1.389 . S
C752 C753 1.524 . S
C752 C766 1.377 . S
C753 C752 1.524 . S
C753 C754 1.397 . S
C753 C758 1.363 . S
C754 H731 0.950 . S
C754 C753 1.397 . S
C754 C755 1.334 . S
C755 H732 0.950 . S
C755 C754 1.334 . S
C755 C756 1.287 . S
C756 C755 1.287 . S
C756 C757 1.524 . S
C756 H775 0.913 . S
C757 H733 0.950 . S
C757 C756 1.524 . S
C757 C758 1.415 . S
C758 H734 0.950 . S
C758 C753 1.363 . S
C758 C757 1.415 . S
C759 H735 0.951 . S
C759 C760 1.366 . S
C759 C761 1.388 . S
C760 C759 1.366 . S
C760 C764 1.385 . S
C761 H736 0.951 . S
C761 C759 1.388 . S
C761 C762 1.366 . S
C762 C761 1.366 . S
C762 C763 1.414 . S
C762 C765 1.499 . S
C763 H737 0.950 . S
C763 C762 1.414 . S
C763 C764 1.374 . S
C764 H738 0.950 . S
C764 C760 1.385 . S
C764 C763 1.374 . S
C765 C762 1.499 . S
C765 C766 1.373 . S
C765 C767 1.389 . S
C766 H739 0.950 . S
C766 C752 1.377 . S
C766 C765 1.373 . S
C767 C751 1.377 . S
C767 C765 1.389 . S
C767 C768 1.524 . S
C768 C767 1.524 . S
C768 C769 1.397 . S
C768 C773 1.363 . S
C769 H740 0.950 . S
C769 C768 1.397 . S
C769 C770 1.334 . S
C770 H741 0.950 . S
C770 C769 1.334 . S
C770 C771 1.287 . S
C771 C770 1.287 . S
C771 C772 1.524 . S
C771 H774 0.999 . S
C772 H742 0.950 . S
C772 C771 1.524 . S
C772 C773 1.415 . S
C773 H743 0.950 . S
C773 C768 1.363 . S
C773 C772 1.415 . S
H774 C771 0.999 . S
H775 C756 0.913 . S
H776 C794 0.951 . S
H777 C796 0.951 . S
H778 C798 0.950 . S
H779 C799 0.950 . S
H780 C801 0.950 . S
H781 C804 0.950 . S
H782 C805 0.950 . S
H783 C807 0.950 . S
H784 C808 0.950 . S
H785 C809 0.951 . S
H786 C811 0.951 . S
H787 C813 0.950 . S
H788 C814 0.950 . S
H789 C816 0.950 . S
H790 C819 0.950 . S
H791 C820 0.950 . S
H792 C822 0.950 . S
H793 C823 0.950 . S
C794 H776 0.951 . S
C794 C795 1.366 . S
C794 C796 1.388 . S
C795 C794 1.366 . S
C795 C799 1.385 . S
C796 H777 0.951 . S
C796 C794 1.388 . S
C796 C797 1.366 . S
C797 C796 1.366 . S
C797 C798 1.414 . S
C797 C800 1.499 . S
C798 H778 0.950 . S
C798 C797 1.414 . S
C798 C799 1.374 . S
C799 H779 0.950 . S
C799 C795 1.385 . S
C799 C798 1.374 . S
C800 C797 1.499 . S
C800 C801 1.373 . S
C800 C802 1.389 . S
C801 H780 0.950 . S
C801 C800 1.373 . S
C801 C817 1.377 . S
C802 C800 1.389 . S
C802 C803 1.524 . S
C802 C816 1.377 . S
C803 C802 1.524 . S
C803 C804 1.397 . S
C803 C808 1.363 . S
C804 H781 0.950 . S
C804 C803 1.397 . S
C804 C805 1.334 . S
C805 H782 0.950 . S
C805 C804 1.334 . S
C805 C806 1.287 . S
C806 C805 1.287 . S
C806 C807 1.524 . S
C806 H825 0.913 . S
C807 H783 0.950 . S
C807 C806 1.524 . S
C807 C808 1.415 . S
C808 H784 0.950 . S
C808 C803 1.363 . S
C808 C807 1.415 . S
C809 H785 0.951 . S
C809 C810 1.366 . S
C809 C811 1.388 . S
C810 C809 1.366 . S
C810 C814 1.385 . S
C811 H786 0.951 . S
C811 C809 1.388 . S
C811 C812 1.366 . S
C812 C811 1.366 . S
C812 C813 1.414 . S
C812 C815 1.499 . S
C813 H787 0.950 . S
C813 C812 1.414 . S
C813 C814 1.374 . S
C814 H788 0.950 . S
C814 C810 1.385 . S
C814 C813 1.374 . S
C815 C812 1.499 . S
C815 C816 1.373 . S
C815 C817 1.389 . S
C816 H789 0.950 . S
C816 C802 1.377 . S
C816 C815 1.373 . S
C817 C801 1.377 . S
C817 C815 1.389 . S
C817 C818 1.524 . S
C818 C817 1.524 . S
C818 C819 1.397 . S
C818 C823 1.363 . S
C819 H790 0.950 . S
C819 C818 1.397 . S
C819 C820 1.334 . S
C820 H791 0.950 . S
C820 C819 1.334 . S
C820 C821 1.287 . S
C821 C820 1.287 . S
C821 C822 1.524 . S
C821 H824 0.999 . S
C822 H792 0.950 . S
C822 C821 1.524 . S
C822 C823 1.415 . S
C823 H793 0.950 . S
C823 C818 1.363 . S
C823 C822 1.415 . S
H824 C821 0.999 . S
H825 C806 0.913 . S
H826 C844 0.951 . S
H827 C846 0.951 . S
H828 C848 0.950 . S
H829 C849 0.950 . S
H830 C851 0.950 . S
H831 C854 0.950 . S
H832 C855 0.950 . S
H833 C857 0.950 . S
H834 C858 0.950 . S
H835 C859 0.951 . S
H836 C861 0.951 . S
H837 C863 0.950 . S
H838 C864 0.950 . S
H839 C866 0.950 . S
H840 C869 0.950 . S
H841 C870 0.950 . S
H842 C872 0.950 . S
H843 C873 0.950 . S
C844 H826 0.951 . S
C844 C845 1.366 . S
C844 C846 1.388 . S
C845 C844 1.366 . S
C845 C849 1.385 . S
C846 H827 0.951 . S
C846 C844 1.388 . S
C846 C847 1.366 . S
C847 C846 1.366 . S
C847 C848 1.414 . S
C847 C850 1.499 . S
C848 H828 0.950 . S
C848 C847 1.414 . S
C848 C849 1.374 . S
C849 H829 0.950 . S
C849 C845 1.385 . S
C849 C848 1.374 . S
C850 C847 1.499 . S
C850 C851 1.373 . S
C850 C852 1.389 . S
C851 H830 0.950 . S
C851 C850 1.373 . S
C851 C867 1.377 . S
C852 C850 1.389 . S
C852 C853 1.524 . S
C852 C866 1.377 . S
C853 C852 1.524 . S
C853 C854 1.397 . S
C853 C858 1.363 . S
C854 H831 0.950 . S
C854 C853 1.397 . S
C854 C855 1.334 . S
C855 H832 0.950 . S
C855 C854 1.334 . S
C855 C856 1.287 . S
C856 C855 1.287 . S
C856 C857 1.524 . S
C856 H875 0.913 . S
C857 H833 0.950 . S
C857 C856 1.524 . S
C857 C858 1.415 . S
C858 H834 0.950 . S
C858 C853 1.363 . S
C858 C857 1.415 . S
C859 H835 0.951 . S
C859 C860 1.366 . S
C859 C861 1.388 . S
C860 C859 1.366 . S
C860 C864 1.385 . S
C861 H836 0.951 . S
C861 C859 1.388 . S
C861 C862 1.366 . S
C862 C861 1.366 . S
C862 C863 1.414 . S
C862 C865 1.499 . S
C863 H837 0.950 . S
C863 C862 1.414 . S
C863 C864 1.374 . S
C864 H838 0.950 . S
C864 C860 1.385 . S
C864 C863 1.374 . S
C865 C862 1.499 . S
C865 C866 1.373 . S
C865 C867 1.389 . S
C866 H839 0.950 . S
C866 C852 1.377 . S
C866 C865 1.373 . S
C867 C851 1.377 . S
C867 C865 1.389 . S
C867 C868 1.524 . S
C868 C867 1.524 . S
C868 C869 1.397 . S
C868 C873 1.363 . S
C869 H840 0.950 . S
C869 C868 1.397 . S
C869 C870 1.334 . S
C870 H841 0.950 . S
C870 C869 1.334 . S
C870 C871 1.287 . S
C871 C870 1.287 . S
C871 C872 1.524 . S
C871 H874 0.999 . S
C872 H842 0.950 . S
C872 C871 1.524 . S
C872 C873 1.415 . S
C873 H843 0.950 . S
C873 C868 1.363 . S
C873 C872 1.415 . S
H874 C871 0.999 . S
H875 C856 0.913 . S
H876 C894 0.951 . S
H877 C896 0.951 . S
H878 C898 0.950 . S
H879 C899 0.950 . S
H880 C901 0.950 . S
H881 C904 0.950 . S
H882 C905 0.950 . S
H883 C907 0.950 . S
H884 C908 0.950 . S
H885 C909 0.951 . S
H886 C911 0.951 . S
H887 C913 0.950 . S
H888 C914 0.950 . S
H889 C916 0.950 . S
H890 C919 0.950 . S
H891 C920 0.950 . S
H892 C922 0.950 . S
H893 C923 0.950 . S
C894 H876 0.951 . S
C894 C895 1.366 . S
C894 C896 1.388 . S
C895 C894 1.366 . S
C895 C899 1.385 . S
C896 H877 0.951 . S
C896 C894 1.388 . S
C896 C897 1.366 . S
C897 C896 1.366 . S
C897 C898 1.414 . S
C897 C900 1.499 . S
C898 H878 0.950 . S
C898 C897 1.414 . S
C898 C899 1.374 . S
C899 H879 0.950 . S
C899 C895 1.385 . S
C899 C898 1.374 . S
C900 C897 1.499 . S
C900 C901 1.373 . S
C900 C902 1.389 . S
C901 H880 0.950 . S
C901 C900 1.373 . S
C901 C917 1.377 . S
C902 C900 1.389 . S
C902 C903 1.524 . S
C902 C916 1.377 . S
C903 C902 1.524 . S
C903 C904 1.397 . S
C903 C908 1.363 . S
C904 H881 0.950 . S
C904 C903 1.397 . S
C904 C905 1.334 . S
C905 H882 0.950 . S
C905 C904 1.334 . S
C905 C906 1.287 . S
C906 C905 1.287 . S
C906 C907 1.524 . S
C906 H925 0.913 . S
C907 H883 0.950 . S
C907 C906 1.524 . S
C907 C908 1.415 . S
C908 H884 0.950 . S
C908 C903 1.363 . S
C908 C907 1.415 . S
C909 H885 0.951 . S
C909 C910 1.366 . S
C909 C911 1.388 . S
C910 C909 1.366 . S
C910 C914 1.385 . S
C911 H886 0.951 . S
C911 C909 1.388 . S
C911 C912 1.366 . S
C912 C911 1.366 . S
C912 C913 1.414 . S
C912 C915 1.499 . S
C913 H887 0.950 . S
C913 C912 1.414 . S
C913 C914 1.374 . S
C914 H888 0.950 . S
C914 C910 1.385 . S
C914 C913 1.374 . S
C915 C912 1.499 . S
C915 C916 1.373 . S
C915 C917 1.389 . S
C916 H889 0.950 . S
C916 C902 1.377 . S
C916 C915 1.373 . S
C917 C901 1.377 . S
C917 C915 1.389 . S
C917 C918 1.524 . S
C918 C917 1.524 . S
C918 C919 1.397 . S
C918 C923 1.363 . S
C919 H890 0.950 . S
C919 C918 1.397 . S
C919 C920 1.334 . S
C920 H891 0.950 . S
C920 C919 1.334 . S
C920 C921 1.287 . S
C921 C920 1.287 . S
C921 C922 1.524 . S
C921 H924 0.999 . S
C922 H892 0.950 . S
C922 C921 1.524 . S
C922 C923 1.415 . S
C923 H893 0.950 . S
C923 C918 1.363 . S
C923 C922 1.415 . S
H924 C921 0.999 . S
H925 C906 0.913 . S
H926 C944 0.951 . S
H927 C946 0.951 . S
H928 C948 0.950 . S
H929 C949 0.950 . S
H930 C951 0.950 . S
H931 C954 0.950 . S
H932 C955 0.950 . S
H933 C957 0.950 . S
H934 C958 0.950 . S
H935 C959 0.951 . S
H936 C961 0.951 . S
H937 C963 0.950 . S
H938 C964 0.950 . S
H939 C966 0.950 . S
H940 C969 0.950 . S
H941 C970 0.950 . S
H942 C972 0.950 . S
H943 C973 0.950 . S
C944 H926 0.951 . S
C944 C945 1.366 . S
C944 C946 1.388 . S
C945 C944 1.366 . S
C945 C949 1.385 . S
C946 H927 0.951 . S
C946 C944 1.388 . S
C946 C947 1.366 . S
C947 C946 1.366 . S
C947 C948 1.414 . S
C947 C950 1.499 . S
C948 H928 0.950 . S
C948 C947 1.414 . S
C948 C949 1.374 . S
C949 H929 0.950 . S
C949 C945 1.385 . S
C949 C948 1.374 . S
C950 C947 1.499 . S
C950 C951 1.373 . S
C950 C952 1.389 . S
C951 H930 0.950 . S
C951 C950 1.373 . S
C951 C967 1.377 . S
C952 C950 1.389 . S
C952 C953 1.524 . S
C952 C966 1.377 . S
C953 C952 1.524 . S
C953 C954 1.397 . S
C953 C958 1.363 . S
C954 H931 0.950 . S
C954 C953 1.397 . S
C954 C955 1.334 . S
C955 H932 0.950 . S
C955 C954 1.334 . S
C955 C956 1.287 . S
C956 C955 1.287 . S
C956 C957 1.524 . S
C956 H975 0.913 . S
C957 H933 0.950 . S
C957 C956 1.524 . S
C957 C958 1.415 . S
C958 H934 0.950 . S
C958 C953 1.363 . S
C958 C957 1.415 . S
C959 H935 0.951 . S
C959 C960 1.366 . S
C959 C961 1.388 . S
C960 C959 1.366 . S
C960 C964 1.385 . S
C961 H936 0.951 . S
C961 C959 1.388 . S
C961 C962 1.366 . S
C962 C961 1.366 . S
C962 C963 1.414 . S
C962 C965 1.499 . S
C963 H937 0.950 . S
C963 C962 1.414 . S
C963 C964 1.374 . S
C964 H938 0.950 . S
C964 C960 1.385 . S
C964 C963 1.374 . S
C965 C962 1.499 . S
C965 C966 1.373 . S
C965 C967 1.389 . S
C966 H939 0.950 . S
C966 C952 1.377 . S
C966 C965 1.373 . S
C967 C951 1.377 . S
C967 C965 1.389 . S
C967 C968 1.524 . S
C968 C967 1.524 . S
C968 C969 1.397 . S
C968 C973 1.363 . S
C969 H940 0.950 . S
C969 C968 1.397 . S
C969 C970 1.334 . S
C970 H941 0.950 . S
C970 C969 1.334 . S
C970 C971 1.287 . S
C971 C970 1.287 . S
C971 C972 1.524 . S
C971 H974 0.999 . S
C972 H942 0.950 . S
C972 C971 1.524 . S
C972 C973 1.415 . S
C973 H943 0.950 . S
C973 C968 1.363 . S
C973 C972 1.415 . S
H974 C971 0.999 . S
H975 C956 0.913 . S
H976 C994 0.951 . S
H977 C996 0.951 . S
H978 C998 0.950 . S
H979 C999 0.950 . S
H980 C1001 0.950 . S
H981 C1004 0.950 . S
H982 C1005 0.950 . S
H983 C1007 0.950 . S
H984 C1008 0.950 . S
H985 C1009 0.951 . S
H986 C1011 0.951 . S
H987 C1013 0.950 . S
H988 C1014 0.950 . S
H989 C1016 0.950 . S
H990 C1019 0.950 . S
H991 C1020 0.950 . S
H992 C1022 0.950 . S
H993 C1023 0.950 . S
C994 H976 0.951 . S
C994 C995 1.366 . S
C994 C996 1.388 . S
C995 C994 1.366 . S
C995 C999 1.385 . S
C996 H977 0.951 . S
C996 C994 1.388 . S
C996 C997 1.366 . S
C997 C996 1.366 . S
C997 C998 1.414 . S
C997 C1000 1.499 . S
C998 H978 0.950 . S
C998 C997 1.414 . S
C998 C999 1.374 . S
C999 H979 0.950 . S
C999 C995 1.385 . S
C999 C998 1.374 . S
C1000 C997 1.499 . S
C1000 C1001 1.373 . S
C1000 C1002 1.389 . S
C1001 H980 0.950 . S
C1001 C1000 1.373 . S
C1001 C1017 1.377 1_556 S
C1002 C1000 1.389 . S
C1002 C1003 1.524 . S
C1002 C1016 1.377 1_556 S
C1003 C1002 1.524 . S
C1003 C1004 1.397 . S
C1003 C1008 1.363 . S
C1004 H981 0.950 . S
C1004 C1003 1.397 . S
C1004 C1005 1.334 . S
C1005 H982 0.950 . S
C1005 C1004 1.334 . S
C1005 C1006 1.287 . S
C1006 C1005 1.287 . S
C1006 C1007 1.524 . S
C1006 H1025 0.913 . S
C1007 H983 0.950 . S
C1007 C1006 1.524 . S
C1007 C1008 1.415 . S
C1008 H984 0.950 . S
C1008 C1003 1.363 . S
C1008 C1007 1.415 . S
C1009 H985 0.951 . S
C1009 C1010 1.366 . S
C1009 C1011 1.388 . S
C1010 C1009 1.366 . S
C1010 C1014 1.385 . S
C1011 H986 0.951 . S
C1011 C1009 1.388 . S
C1011 C1012 1.366 . S
C1012 C1011 1.366 . S
C1012 C1013 1.414 . S
C1012 C1015 1.499 . S
C1013 H987 0.950 . S
C1013 C1012 1.414 . S
C1013 C1014 1.374 . S
C1014 H988 0.950 . S
C1014 C1010 1.385 . S
C1014 C1013 1.374 . S
C1015 C1012 1.499 . S
C1015 C1016 1.373 . S
C1015 C1017 1.389 . S
C1016 H989 0.950 . S
C1016 C1002 1.377 1_554 S
C1016 C1015 1.373 . S
C1017 C1001 1.377 1_554 S
C1017 C1015 1.389 . S
C1017 C1018 1.524 . S
C1018 C1017 1.524 . S
C1018 C1019 1.397 . S
C1018 C1023 1.363 . S
C1019 H990 0.950 . S
C1019 C1018 1.397 . S
C1019 C1020 1.334 . S
C1020 H991 0.950 . S
C1020 C1019 1.334 . S
C1020 C1021 1.287 . S
C1021 C1020 1.287 . S
C1021 C1022 1.524 . S
C1021 H1024 0.999 . S
C1022 H992 0.950 . S
C1022 C1021 1.524 . S
C1022 C1023 1.415 . S
C1023 H993 0.950 . S
C1023 C1018 1.363 . S
C1023 C1022 1.415 . S
H1024 C1021 0.999 . S
H1025 C1006 0.913 . S
H1026 C1044 0.951 . S
H1027 C1046 0.951 . S
H1028 C1048 0.950 . S
H1029 C1049 0.950 . S
H1030 C1051 0.950 . S
H1031 C1054 0.950 . S
H1032 C1055 0.950 . S
H1033 C1057 0.950 . S
H1034 C1058 0.950 . S
H1035 C1059 0.951 . S
H1036 C1061 0.951 . S
H1037 C1063 0.950 . S
H1038 C1064 0.950 . S
H1039 C1066 0.950 . S
H1040 C1069 0.950 . S
H1041 C1070 0.950 . S
H1042 C1072 0.950 . S
H1043 C1073 0.950 . S
C1044 H1026 0.951 . S
C1044 C1045 1.366 . S
C1044 C1046 1.388 . S
C1045 C1044 1.366 . S
C1045 C1049 1.385 . S
C1046 H1027 0.951 . S
C1046 C1044 1.388 . S
C1046 C1047 1.366 . S
C1047 C1046 1.366 . S
C1047 C1048 1.414 . S
C1047 C1050 1.499 . S
C1048 H1028 0.950 . S
C1048 C1047 1.414 . S
C1048 C1049 1.374 . S
C1049 H1029 0.950 . S
C1049 C1045 1.385 . S
C1049 C1048 1.374 . S
C1050 C1047 1.499 . S
C1050 C1051 1.373 . S
C1050 C1052 1.389 . S
C1051 H1030 0.950 . S
C1051 C1050 1.373 . S
C1051 C1067 1.377 1_556 S
C1052 C1050 1.389 . S
C1052 C1053 1.524 . S
C1052 C1066 1.377 1_556 S
C1053 C1052 1.524 . S
C1053 C1054 1.397 . S
C1053 C1058 1.363 . S
C1054 H1031 0.950 . S
C1054 C1053 1.397 . S
C1054 C1055 1.334 . S
C1055 H1032 0.950 . S
C1055 C1054 1.334 . S
C1055 C1056 1.287 . S
C1056 C1055 1.287 . S
C1056 C1057 1.524 . S
C1056 H1075 0.913 . S
C1057 H1033 0.950 . S
C1057 C1056 1.524 . S
C1057 C1058 1.415 . S
C1058 H1034 0.950 . S
C1058 C1053 1.363 . S
C1058 C1057 1.415 . S
C1059 H1035 0.951 . S
C1059 C1060 1.366 . S
C1059 C1061 1.388 . S
C1060 C1059 1.366 . S
C1060 C1064 1.385 . S
C1061 H1036 0.951 . S
C1061 C1059 1.388 . S
C1061 C1062 1.366 . S
C1062 C1061 1.366 . S
C1062 C1063 1.414 . S
C1062 C1065 1.499 . S
C1063 H1037 0.950 . S
C1063 C1062 1.414 . S
C1063 C1064 1.374 . S
C1064 H1038 0.950 . S
C1064 C1060 1.385 . S
C1064 C1063 1.374 . S
C1065 C1062 1.499 . S
C1065 C1066 1.373 . S
C1065 C1067 1.389 . S
C1066 H1039 0.950 . S
C1066 C1052 1.377 1_554 S
C1066 C1065 1.373 . S
C1067 C1051 1.377 1_554 S
C1067 C1065 1.389 . S
C1067 C1068 1.524 . S
C1068 C1067 1.524 . S
C1068 C1069 1.397 . S
C1068 C1073 1.363 . S
C1069 H1040 0.950 . S
C1069 C1068 1.397 . S
C1069 C1070 1.334 . S
C1070 H1041 0.950 . S
C1070 C1069 1.334 . S
C1070 C1071 1.287 . S
C1071 C1070 1.287 . S
C1071 C1072 1.524 . S
C1071 H1074 0.999 . S
C1072 H1042 0.950 . S
C1072 C1071 1.524 . S
C1072 C1073 1.415 . S
C1073 H1043 0.950 . S
C1073 C1068 1.363 . S
C1073 C1072 1.415 . S
H1074 C1071 0.999 . S
H1075 C1056 0.913 . S
H1076 C1094 0.951 . S
H1077 C1096 0.951 . S
H1078 C1098 0.950 . S
H1079 C1099 0.950 . S
H1080 C1101 0.950 . S
H1081 C1104 0.950 . S
H1082 C1105 0.950 . S
H1083 C1107 0.950 . S
H1084 C1108 0.950 . S
H1085 C1109 0.951 . S
H1086 C1111 0.951 . S
H1087 C1113 0.950 . S
H1088 C1114 0.950 . S
H1089 C1116 0.950 . S
H1090 C1119 0.950 . S
H1091 C1120 0.950 . S
H1092 C1122 0.950 . S
H1093 C1123 0.950 . S
C1094 H1076 0.951 . S
C1094 C1095 1.366 . S
C1094 C1096 1.388 . S
C1095 C1094 1.366 . S
C1095 C1099 1.385 . S
C1096 H1077 0.951 . S
C1096 C1094 1.388 . S
C1096 C1097 1.366 . S
C1097 C1096 1.366 . S
C1097 C1098 1.414 . S
C1097 C1100 1.499 . S
C1098 H1078 0.950 . S
C1098 C1097 1.414 . S
C1098 C1099 1.374 . S
C1099 H1079 0.950 . S
C1099 C1095 1.385 . S
C1099 C1098 1.374 . S
C1100 C1097 1.499 . S
C1100 C1101 1.373 . S
C1100 C1102 1.389 . S
C1101 H1080 0.950 . S
C1101 C1100 1.373 . S
C1101 C1117 1.377 1_556 S
C1102 C1100 1.389 . S
C1102 C1103 1.524 . S
C1102 C1116 1.377 1_556 S
C1103 C1102 1.524 . S
C1103 C1104 1.397 . S
C1103 C1108 1.363 . S
C1104 H1081 0.950 . S
C1104 C1103 1.397 . S
C1104 C1105 1.334 . S
C1105 H1082 0.950 . S
C1105 C1104 1.334 . S
C1105 C1106 1.287 . S
C1106 C1105 1.287 . S
C1106 C1107 1.524 . S
C1106 H1125 0.913 . S
C1107 H1083 0.950 . S
C1107 C1106 1.524 . S
C1107 C1108 1.415 . S
C1108 H1084 0.950 . S
C1108 C1103 1.363 . S
C1108 C1107 1.415 . S
C1109 H1085 0.951 . S
C1109 C1110 1.366 . S
C1109 C1111 1.388 . S
C1110 C1109 1.366 . S
C1110 C1114 1.385 . S
C1111 H1086 0.951 . S
C1111 C1109 1.388 . S
C1111 C1112 1.366 . S
C1112 C1111 1.366 . S
C1112 C1113 1.414 . S
C1112 C1115 1.499 . S
C1113 H1087 0.950 . S
C1113 C1112 1.414 . S
C1113 C1114 1.374 . S
C1114 H1088 0.950 . S
C1114 C1110 1.385 . S
C1114 C1113 1.374 . S
C1115 C1112 1.499 . S
C1115 C1116 1.373 . S
C1115 C1117 1.389 . S
C1116 H1089 0.950 . S
C1116 C1102 1.377 1_554 S
C1116 C1115 1.373 . S
C1117 C1101 1.377 1_554 S
C1117 C1115 1.389 . S
C1117 C1118 1.524 . S
C1118 C1117 1.524 . S
C1118 C1119 1.397 . S
C1118 C1123 1.363 . S
C1119 H1090 0.950 . S
C1119 C1118 1.397 . S
C1119 C1120 1.334 . S
C1120 H1091 0.950 . S
C1120 C1119 1.334 . S
C1120 C1121 1.287 . S
C1121 C1120 1.287 . S
C1121 C1122 1.524 . S
C1121 H1124 0.999 . S
C1122 H1092 0.950 . S
C1122 C1121 1.524 . S
C1122 C1123 1.415 . S
C1123 H1093 0.950 . S
C1123 C1118 1.363 . S
C1123 C1122 1.415 . S
H1124 C1121 0.999 . S
H1125 C1106 0.913 . S
H1126 C1144 0.951 . S
H1127 C1146 0.951 . S
H1128 C1148 0.950 . S
H1129 C1149 0.950 . S
H1130 C1151 0.950 . S
H1131 C1154 0.950 . S
H1132 C1155 0.950 . S
H1133 C1157 0.950 . S
H1134 C1158 0.950 . S
H1135 C1159 0.951 . S
H1136 C1161 0.951 . S
H1137 C1163 0.950 . S
H1138 C1164 0.950 . S
H1139 C1166 0.950 . S
H1140 C1169 0.950 . S
H1141 C1170 0.950 . S
H1142 C1172 0.950 . S
H1143 C1173 0.950 . S
C1144 H1126 0.951 . S
C1144 C1145 1.366 . S
C1144 C1146 1.388 . S
C1145 C1144 1.366 . S
C1145 C1149 1.385 . S
C1146 H1127 0.951 . S
C1146 C1144 1.388 . S
C1146 C1147 1.366 . S
C1147 C1146 1.366 . S
C1147 C1148 1.414 . S
C1147 C1150 1.499 . S
C1148 H1128 0.950 . S
C1148 C1147 1.414 . S
C1148 C1149 1.374 . S
C1149 H1129 0.950 . S
C1149 C1145 1.385 . S
C1149 C1148 1.374 . S
C1150 C1147 1.499 . S
C1150 C1151 1.373 . S
C1150 C1152 1.389 . S
C1151 H1130 0.950 . S
C1151 C1150 1.373 . S
C1151 C1167 1.377 1_554 S
C1152 C1150 1.389 . S
C1152 C1153 1.524 . S
C1152 C1166 1.377 1_554 S
C1153 C1152 1.524 . S
C1153 C1154 1.397 . S
C1153 C1158 1.363 . S
C1154 H1131 0.950 . S
C1154 C1153 1.397 . S
C1154 C1155 1.334 . S
C1155 H1132 0.950 . S
C1155 C1154 1.334 . S
C1155 C1156 1.287 . S
C1156 C1155 1.287 . S
C1156 C1157 1.524 . S
C1156 H1175 0.913 . S
C1157 H1133 0.950 . S
C1157 C1156 1.524 . S
C1157 C1158 1.415 . S
C1158 H1134 0.950 . S
C1158 C1153 1.363 . S
C1158 C1157 1.415 . S
C1159 H1135 0.951 . S
C1159 C1160 1.366 . S
C1159 C1161 1.388 . S
C1160 C1159 1.366 . S
C1160 C1164 1.385 . S
C1161 H1136 0.951 . S
C1161 C1159 1.388 . S
C1161 C1162 1.366 . S
C1162 C1161 1.366 . S
C1162 C1163 1.414 . S
C1162 C1165 1.499 . S
C1163 H1137 0.950 . S
C1163 C1162 1.414 . S
C1163 C1164 1.374 . S
C1164 H1138 0.950 . S
C1164 C1160 1.385 . S
C1164 C1163 1.374 . S
C1165 C1162 1.499 . S
C1165 C1166 1.373 . S
C1165 C1167 1.389 . S
C1166 H1139 0.950 . S
C1166 C1152 1.377 1_556 S
C1166 C1165 1.373 . S
C1167 C1151 1.377 1_556 S
C1167 C1165 1.389 . S
C1167 C1168 1.524 . S
C1168 C1167 1.524 . S
C1168 C1169 1.397 . S
C1168 C1173 1.363 . S
C1169 H1140 0.950 . S
C1169 C1168 1.397 . S
C1169 C1170 1.334 . S
C1170 H1141 0.950 . S
C1170 C1169 1.334 . S
C1170 C1171 1.287 . S
C1171 C1170 1.287 . S
C1171 C1172 1.524 . S
C1171 H1174 0.999 . S
C1172 H1142 0.950 . S
C1172 C1171 1.524 . S
C1172 C1173 1.415 . S
C1173 H1143 0.950 . S
C1173 C1168 1.363 . S
C1173 C1172 1.415 . S
H1174 C1171 0.999 . S
H1175 C1156 0.913 . S
H1176 C1194 0.951 . S
H1177 C1196 0.951 . S
H1178 C1198 0.950 . S
H1179 C1199 0.950 . S
H1180 C1201 0.950 . S
H1181 C1204 0.950 . S
H1182 C1205 0.950 . S
H1183 C1207 0.950 . S
H1184 C1208 0.950 . S
H1185 C1209 0.951 . S
H1186 C1211 0.951 . S
H1187 C1213 0.950 . S
H1188 C1214 0.950 . S
H1189 C1216 0.950 . S
H1190 C1219 0.950 . S
H1191 C1220 0.950 . S
H1192 C1222 0.950 . S
H1193 C1223 0.950 . S
C1194 H1176 0.951 . S
C1194 C1195 1.366 . S
C1194 C1196 1.388 . S
C1195 C1194 1.366 . S
C1195 C1199 1.385 . S
C1196 H1177 0.951 . S
C1196 C1194 1.388 . S
C1196 C1197 1.366 . S
C1197 C1196 1.366 . S
C1197 C1198 1.414 . S
C1197 C1200 1.499 . S
C1198 H1178 0.950 . S
C1198 C1197 1.414 . S
C1198 C1199 1.374 . S
C1199 H1179 0.950 . S
C1199 C1195 1.385 . S
C1199 C1198 1.374 . S
C1200 C1197 1.499 . S
C1200 C1201 1.373 . S
C1200 C1202 1.389 . S
C1201 H1180 0.950 . S
C1201 C1200 1.373 . S
C1201 C1217 1.377 1_455 S
C1202 C1200 1.389 . S
C1202 C1203 1.524 . S
C1202 C1216 1.377 1_455 S
C1203 C1202 1.524 . S
C1203 C1204 1.397 . S
C1203 C1208 1.363 . S
C1204 H1181 0.950 . S
C1204 C1203 1.397 . S
C1204 C1205 1.334 . S
C1205 H1182 0.950 . S
C1205 C1204 1.334 . S
C1205 C1206 1.287 . S
C1206 C1205 1.287 . S
C1206 C1207 1.524 . S
C1206 H1225 0.913 . S
C1207 H1183 0.950 . S
C1207 C1206 1.524 . S
C1207 C1208 1.415 . S
C1208 H1184 0.950 . S
C1208 C1203 1.363 . S
C1208 C1207 1.415 . S
C1209 H1185 0.951 . S
C1209 C1210 1.366 . S
C1209 C1211 1.388 . S
C1210 C1209 1.366 . S
C1210 C1214 1.385 . S
C1211 H1186 0.951 . S
C1211 C1209 1.388 . S
C1211 C1212 1.366 . S
C1212 C1211 1.366 . S
C1212 C1213 1.414 . S
C1212 C1215 1.499 . S
C1213 H1187 0.950 . S
C1213 C1212 1.414 . S
C1213 C1214 1.374 . S
C1214 H1188 0.950 . S
C1214 C1210 1.385 . S
C1214 C1213 1.374 . S
C1215 C1212 1.499 . S
C1215 C1216 1.373 . S
C1215 C1217 1.389 . S
C1216 H1189 0.950 . S
C1216 C1202 1.377 1_655 S
C1216 C1215 1.373 . S
C1217 C1201 1.377 1_655 S
C1217 C1215 1.389 . S
C1217 C1218 1.524 . S
C1218 C1217 1.524 . S
C1218 C1219 1.397 . S
C1218 C1223 1.363 . S
C1219 H1190 0.950 . S
C1219 C1218 1.397 . S
C1219 C1220 1.334 . S
C1220 H1191 0.950 . S
C1220 C1219 1.334 . S
C1220 C1221 1.287 . S
C1221 C1220 1.287 . S
C1221 C1222 1.524 . S
C1221 H1224 0.999 . S
C1222 H1192 0.950 . S
C1222 C1221 1.524 . S
C1222 C1223 1.415 . S
C1223 H1193 0.950 . S
C1223 C1218 1.363 . S
C1223 C1222 1.415 . S
H1224 C1221 0.999 . S
H1225 C1206 0.913 . S
H1226 C1244 0.951 . S
H1227 C1246 0.951 . S
H1228 C1248 0.950 . S
H1229 C1249 0.950 . S
H1230 C1251 0.950 . S
H1231 C1254 0.950 . S
H1232 C1255 0.950 . S
H1233 C1257 0.950 . S
H1234 C1258 0.950 . S
H1235 C1259 0.951 . S
H1236 C1261 0.951 . S
H1237 C1263 0.950 . S
H1238 C1264 0.950 . S
H1239 C1266 0.950 . S
H1240 C1269 0.950 . S
H1241 C1270 0.950 . S
H1242 C1272 0.950 . S
H1243 C1273 0.950 . S
C1244 H1226 0.951 . S
C1244 C1245 1.366 . S
C1244 C1246 1.388 . S
C1245 C1244 1.366 . S
C1245 C1249 1.385 . S
C1246 H1227 0.951 . S
C1246 C1244 1.388 . S
C1246 C1247 1.366 . S
C1247 C1246 1.366 . S
C1247 C1248 1.414 . S
C1247 C1250 1.499 . S
C1248 H1228 0.950 . S
C1248 C1247 1.414 . S
C1248 C1249 1.374 . S
C1249 H1229 0.950 . S
C1249 C1245 1.385 . S
C1249 C1248 1.374 . S
C1250 C1247 1.499 . S
C1250 C1251 1.373 . S
C1250 C1252 1.389 . S
C1251 H1230 0.950 . S
C1251 C1250 1.373 . S
C1251 C1267 1.377 1_565 S
C1252 C1250 1.389 . S
C1252 C1253 1.524 . S
C1252 C1266 1.377 1_565 S
C1253 C1252 1.524 . S
C1253 C1254 1.397 . S
C1253 C1258 1.363 . S
C1254 H1231 0.950 . S
C1254 C1253 1.397 . S
C1254 C1255 1.334 . S
C1255 H1232 0.950 . S
C1255 C1254 1.334 . S
C1255 C1256 1.287 . S
C1256 C1255 1.287 . S
C1256 C1257 1.524 . S
C1256 H1275 0.913 . S
C1257 H1233 0.950 . S
C1257 C1256 1.524 . S
C1257 C1258 1.415 . S
C1258 H1234 0.950 . S
C1258 C1253 1.363 . S
C1258 C1257 1.415 . S
C1259 H1235 0.951 . S
C1259 C1260 1.366 . S
C1259 C1261 1.388 . S
C1260 C1259 1.366 . S
C1260 C1264 1.385 . S
C1261 H1236 0.951 . S
C1261 C1259 1.388 . S
C1261 C1262 1.366 . S
C1262 C1261 1.366 . S
C1262 C1263 1.414 . S
C1262 C1265 1.499 . S
C1263 H1237 0.950 . S
C1263 C1262 1.414 . S
C1263 C1264 1.374 . S
C1264 H1238 0.950 . S
C1264 C1260 1.385 . S
C1264 C1263 1.374 . S
C1265 C1262 1.499 . S
C1265 C1266 1.373 . S
C1265 C1267 1.389 . S
C1266 H1239 0.950 . S
C1266 C1252 1.377 1_545 S
C1266 C1265 1.373 . S
C1267 C1251 1.377 1_545 S
C1267 C1265 1.389 . S
C1267 C1268 1.524 . S
C1268 C1267 1.524 . S
C1268 C1269 1.397 . S
C1268 C1273 1.363 . S
C1269 H1240 0.950 . S
C1269 C1268 1.397 . S
C1269 C1270 1.334 . S
C1270 H1241 0.950 . S
C1270 C1269 1.334 . S
C1270 C1271 1.287 . S
C1271 C1270 1.287 . S
C1271 C1272 1.524 . S
C1271 H1274 0.999 . S
C1272 H1242 0.950 . S
C1272 C1271 1.524 . S
C1272 C1273 1.415 . S
C1273 H1243 0.950 . S
C1273 C1268 1.363 . S
C1273 C1272 1.415 . S
H1274 C1271 0.999 . S
H1275 C1256 0.913 . S
H1276 C1294 0.951 . S
H1277 C1296 0.951 . S
H1278 C1298 0.950 . S
H1279 C1299 0.950 . S
H1280 C1301 0.950 . S
H1281 C1304 0.950 . S
H1282 C1305 0.950 . S
H1283 C1307 0.950 . S
H1284 C1308 0.950 . S
H1285 C1309 0.951 . S
H1286 C1311 0.951 . S
H1287 C1313 0.950 . S
H1288 C1314 0.950 . S
H1289 C1316 0.950 . S
H1290 C1319 0.950 . S
H1291 C1320 0.950 . S
H1292 C1322 0.950 . S
H1293 C1323 0.950 . S
C1294 H1276 0.951 . S
C1294 C1295 1.366 . S
C1294 C1296 1.388 . S
C1295 C1294 1.366 . S
C1295 C1299 1.385 . S
C1296 H1277 0.951 . S
C1296 C1294 1.388 . S
C1296 C1297 1.366 . S
C1297 C1296 1.366 . S
C1297 C1298 1.414 . S
C1297 C1300 1.499 . S
C1298 H1278 0.950 . S
C1298 C1297 1.414 . S
C1298 C1299 1.374 . S
C1299 H1279 0.950 . S
C1299 C1295 1.385 . S
C1299 C1298 1.374 . S
C1300 C1297 1.499 . S
C1300 C1301 1.373 . S
C1300 C1302 1.389 . S
C1301 H1280 0.950 . S
C1301 C1300 1.373 . S
C1301 C1317 1.377 1_655 S
C1302 C1300 1.389 . S
C1302 C1303 1.524 . S
C1302 C1316 1.377 1_655 S
C1303 C1302 1.524 . S
C1303 C1304 1.397 . S
C1303 C1308 1.363 . S
C1304 H1281 0.950 . S
C1304 C1303 1.397 . S
C1304 C1305 1.334 . S
C1305 H1282 0.950 . S
C1305 C1304 1.334 . S
C1305 C1306 1.287 . S
C1306 C1305 1.287 . S
C1306 C1307 1.524 . S
C1306 H1325 0.913 . S
C1307 H1283 0.950 . S
C1307 C1306 1.524 . S
C1307 C1308 1.415 . S
C1308 H1284 0.950 . S
C1308 C1303 1.363 . S
C1308 C1307 1.415 . S
C1309 H1285 0.951 . S
C1309 C1310 1.366 . S
C1309 C1311 1.388 . S
C1310 C1309 1.366 . S
C1310 C1314 1.385 . S
C1311 H1286 0.951 . S
C1311 C1309 1.388 . S
C1311 C1312 1.366 . S
C1312 C1311 1.366 . S
C1312 C1313 1.414 . S
C1312 C1315 1.499 . S
C1313 H1287 0.950 . S
C1313 C1312 1.414 . S
C1313 C1314 1.374 . S
C1314 H1288 0.950 . S
C1314 C1310 1.385 . S
C1314 C1313 1.374 . S
C1315 C1312 1.499 . S
C1315 C1316 1.373 . S
C1315 C1317 1.389 . S
C1316 H1289 0.950 . S
C1316 C1302 1.377 1_455 S
C1316 C1315 1.373 . S
C1317 C1301 1.377 1_455 S
C1317 C1315 1.389 . S
C1317 C1318 1.524 . S
C1318 C1317 1.524 . S
C1318 C1319 1.397 . S
C1318 C1323 1.363 . S
C1319 H1290 0.950 . S
C1319 C1318 1.397 . S
C1319 C1320 1.334 . S
C1320 H1291 0.950 . S
C1320 C1319 1.334 . S
C1320 C1321 1.287 . S
C1321 C1320 1.287 . S
C1321 C1322 1.524 . S
C1321 H1324 0.999 . S
C1322 H1292 0.950 . S
C1322 C1321 1.524 . S
C1322 C1323 1.415 . S
C1323 H1293 0.950 . S
C1323 C1318 1.363 . S
C1323 C1322 1.415 . S
H1324 C1321 0.999 . S
H1325 C1306 0.913 . S
H1326 C1344 0.951 . S
H1327 C1346 0.951 . S
H1328 C1348 0.950 . S
H1329 C1349 0.950 . S
H1330 C1351 0.950 . S
H1331 C1354 0.950 . S
H1332 C1355 0.950 . S
H1333 C1357 0.950 . S
H1334 C1358 0.950 . S
H1335 C1359 0.951 . S
H1336 C1361 0.951 . S
H1337 C1363 0.950 . S
H1338 C1364 0.950 . S
H1339 C1366 0.950 . S
H1340 C1369 0.950 . S
H1341 C1370 0.950 . S
H1342 C1372 0.950 . S
H1343 C1373 0.950 . S
C1344 H1326 0.951 . S
C1344 C1345 1.366 . S
C1344 C1346 1.388 . S
C1345 C1344 1.366 . S
C1345 C1349 1.385 . S
C1346 H1327 0.951 . S
C1346 C1344 1.388 . S
C1346 C1347 1.366 . S
C1347 C1346 1.366 . S
C1347 C1348 1.414 . S
C1347 C1350 1.499 . S
C1348 H1328 0.950 . S
C1348 C1347 1.414 . S
C1348 C1349 1.374 . S
C1349 H1329 0.950 . S
C1349 C1345 1.385 . S
C1349 C1348 1.374 . S
C1350 C1347 1.499 . S
C1350 C1351 1.373 . S
C1350 C1352 1.389 . S
C1351 H1330 0.950 . S
C1351 C1350 1.373 . S
C1351 C1367 1.377 1_545 S
C1352 C1350 1.389 . S
C1352 C1353 1.524 . S
C1352 C1366 1.377 1_545 S
C1353 C1352 1.524 . S
C1353 C1354 1.397 . S
C1353 C1358 1.363 . S
C1354 H1331 0.950 . S
C1354 C1353 1.397 . S
C1354 C1355 1.334 . S
C1355 H1332 0.950 . S
C1355 C1354 1.334 . S
C1355 C1356 1.287 . S
C1356 C1355 1.287 . S
C1356 C1357 1.524 . S
C1356 H1375 0.913 . S
C1357 H1333 0.950 . S
C1357 C1356 1.524 . S
C1357 C1358 1.415 . S
C1358 H1334 0.950 . S
C1358 C1353 1.363 . S
C1358 C1357 1.415 . S
C1359 H1335 0.951 . S
C1359 C1360 1.366 . S
C1359 C1361 1.388 . S
C1360 C1359 1.366 . S
C1360 C1364 1.385 . S
C1361 H1336 0.951 . S
C1361 C1359 1.388 . S
C1361 C1362 1.366 . S
C1362 C1361 1.366 . S
C1362 C1363 1.414 . S
C1362 C1365 1.499 . S
C1363 H1337 0.950 . S
C1363 C1362 1.414 . S
C1363 C1364 1.374 . S
C1364 H1338 0.950 . S
C1364 C1360 1.385 . S
C1364 C1363 1.374 . S
C1365 C1362 1.499 . S
C1365 C1366 1.373 . S
C1365 C1367 1.389 . S
C1366 H1339 0.950 . S
C1366 C1352 1.377 1_565 S
C1366 C1365 1.373 . S
C1367 C1351 1.377 1_565 S
C1367 C1365 1.389 . S
C1367 C1368 1.524 . S
C1368 C1367 1.524 . S
C1368 C1369 1.397 . S
C1368 C1373 1.363 . S
C1369 H1340 0.950 . S
C1369 C1368 1.397 . S
C1369 C1370 1.334 . S
C1370 H1341 0.950 . S
C1370 C1369 1.334 . S
C1370 C1371 1.287 . S
C1371 C1370 1.287 . S
C1371 C1372 1.524 . S
C1371 H1374 0.999 . S
C1372 H1342 0.950 . S
C1372 C1371 1.524 . S
C1372 C1373 1.415 . S
C1373 H1343 0.950 . S
C1373 C1368 1.363 . S
C1373 C1372 1.415 . S
H1374 C1371 0.999 . S
H1375 C1356 0.913 . S
H1376 C1394 0.951 . S
H1377 C1396 0.951 . S
H1378 C1398 0.950 . S
H1379 C1399 0.950 . S
H1380 C1401 0.950 . S
H1381 C1404 0.950 . S
H1382 C1405 0.950 . S
H1383 C1407 0.950 . S
H1384 C1408 0.950 . S
H1385 C1409 0.951 . S
H1386 C1411 0.951 . S
H1387 C1413 0.950 . S
H1388 C1414 0.950 . S
H1389 C1416 0.950 . S
H1390 C1419 0.950 . S
H1391 C1420 0.950 . S
H1392 C1422 0.950 . S
H1393 C1423 0.950 . S
C1394 H1376 0.951 . S
C1394 C1395 1.366 . S
C1394 C1396 1.388 . S
C1395 C1394 1.366 . S
C1395 C1399 1.385 . S
C1396 H1377 0.951 . S
C1396 C1394 1.388 . S
C1396 C1397 1.366 . S
C1397 C1396 1.366 . S
C1397 C1398 1.414 . S
C1397 C1400 1.499 . S
C1398 H1378 0.950 . S
C1398 C1397 1.414 . S
C1398 C1399 1.374 . S
C1399 H1379 0.950 . S
C1399 C1395 1.385 . S
C1399 C1398 1.374 . S
C1400 C1397 1.499 . S
C1400 C1401 1.373 . S
C1400 C1402 1.389 . S
C1401 H1380 0.950 . S
C1401 C1400 1.373 . S
C1401 C1417 1.377 1_655 S
C1402 C1400 1.389 . S
C1402 C1403 1.524 . S
C1402 C1416 1.377 1_655 S
C1403 C1402 1.524 . S
C1403 C1404 1.397 . S
C1403 C1408 1.363 . S
C1404 H1381 0.950 . S
C1404 C1403 1.397 . S
C1404 C1405 1.334 . S
C1405 H1382 0.950 . S
C1405 C1404 1.334 . S
C1405 C1406 1.287 . S
C1406 C1405 1.287 . S
C1406 C1407 1.524 . S
C1406 H1425 0.913 . S
C1407 H1383 0.950 . S
C1407 C1406 1.524 . S
C1407 C1408 1.415 . S
C1408 H1384 0.950 . S
C1408 C1403 1.363 . S
C1408 C1407 1.415 . S
C1409 H1385 0.951 . S
C1409 C1410 1.366 . S
C1409 C1411 1.388 . S
C1410 C1409 1.366 . S
C1410 C1414 1.385 . S
C1411 H1386 0.951 . S
C1411 C1409 1.388 . S
C1411 C1412 1.366 . S
C1412 C1411 1.366 . S
C1412 C1413 1.414 . S
C1412 C1415 1.499 . S
C1413 H1387 0.950 . S
C1413 C1412 1.414 . S
C1413 C1414 1.374 . S
C1414 H1388 0.950 . S
C1414 C1410 1.385 . S
C1414 C1413 1.374 . S
C1415 C1412 1.499 . S
C1415 C1416 1.373 . S
C1415 C1417 1.389 . S
C1416 H1389 0.950 . S
C1416 C1402 1.377 1_455 S
C1416 C1415 1.373 . S
C1417 C1401 1.377 1_455 S
C1417 C1415 1.389 . S
C1417 C1418 1.524 . S
C1418 C1417 1.524 . S
C1418 C1419 1.397 . S
C1418 C1423 1.363 . S
C1419 H1390 0.950 . S
C1419 C1418 1.397 . S
C1419 C1420 1.334 . S
C1420 H1391 0.950 . S
C1420 C1419 1.334 . S
C1420 C1421 1.287 . S
C1421 C1420 1.287 . S
C1421 C1422 1.524 . S
C1421 H1424 0.999 . S
C1422 H1392 0.950 . S
C1422 C1421 1.524 . S
C1422 C1423 1.415 . S
C1423 H1393 0.950 . S
C1423 C1418 1.363 . S
C1423 C1422 1.415 . S
H1424 C1421 0.999 . S
H1425 C1406 0.913 . S
H1426 C1444 0.951 . S
H1427 C1446 0.951 . S
H1428 C1448 0.950 . S
H1429 C1449 0.950 . S
H1430 C1451 0.950 . S
H1431 C1454 0.950 . S
H1432 C1455 0.950 . S
H1433 C1457 0.950 . S
H1434 C1458 0.950 . S
H1435 C1459 0.951 . S
H1436 C1461 0.951 . S
H1437 C1463 0.950 . S
H1438 C1464 0.950 . S
H1439 C1466 0.950 . S
H1440 C1469 0.950 . S
H1441 C1470 0.950 . S
H1442 C1472 0.950 . S
H1443 C1473 0.950 . S
C1444 H1426 0.951 . S
C1444 C1445 1.366 . S
C1444 C1446 1.388 . S
C1445 C1444 1.366 . S
C1445 C1449 1.385 . S
C1446 H1427 0.951 . S
C1446 C1444 1.388 . S
C1446 C1447 1.366 . S
C1447 C1446 1.366 . S
C1447 C1448 1.414 . S
C1447 C1450 1.499 . S
C1448 H1428 0.950 . S
C1448 C1447 1.414 . S
C1448 C1449 1.374 . S
C1449 H1429 0.950 . S
C1449 C1445 1.385 . S
C1449 C1448 1.374 . S
C1450 C1447 1.499 . S
C1450 C1451 1.373 . S
C1450 C1452 1.389 . S
C1451 H1430 0.950 . S
C1451 C1450 1.373 . S
C1451 C1467 1.377 1_565 S
C1452 C1450 1.389 . S
C1452 C1453 1.524 . S
C1452 C1466 1.377 1_565 S
C1453 C1452 1.524 . S
C1453 C1454 1.397 . S
C1453 C1458 1.363 . S
C1454 H1431 0.950 . S
C1454 C1453 1.397 . S
C1454 C1455 1.334 . S
C1455 H1432 0.950 . S
C1455 C1454 1.334 . S
C1455 C1456 1.287 . S
C1456 C1455 1.287 . S
C1456 C1457 1.524 . S
C1456 H1475 0.913 . S
C1457 H1433 0.950 . S
C1457 C1456 1.524 . S
C1457 C1458 1.415 . S
C1458 H1434 0.950 . S
C1458 C1453 1.363 . S
C1458 C1457 1.415 . S
C1459 H1435 0.951 . S
C1459 C1460 1.366 . S
C1459 C1461 1.388 . S
C1460 C1459 1.366 . S
C1460 C1464 1.385 . S
C1461 H1436 0.951 . S
C1461 C1459 1.388 . S
C1461 C1462 1.366 . S
C1462 C1461 1.366 . S
C1462 C1463 1.414 . S
C1462 C1465 1.499 . S
C1463 H1437 0.950 . S
C1463 C1462 1.414 . S
C1463 C1464 1.374 . S
C1464 H1438 0.950 . S
C1464 C1460 1.385 . S
C1464 C1463 1.374 . S
C1465 C1462 1.499 . S
C1465 C1466 1.373 . S
C1465 C1467 1.389 . S
C1466 H1439 0.950 . S
C1466 C1452 1.377 1_545 S
C1466 C1465 1.373 . S
C1467 C1451 1.377 1_545 S
C1467 C1465 1.389 . S
C1467 C1468 1.524 . S
C1468 C1467 1.524 . S
C1468 C1469 1.397 . S
C1468 C1473 1.363 . S
C1469 H1440 0.950 . S
C1469 C1468 1.397 . S
C1469 C1470 1.334 . S
C1470 H1441 0.950 . S
C1470 C1469 1.334 . S
C1470 C1471 1.287 . S
C1471 C1470 1.287 . S
C1471 C1472 1.524 . S
C1471 H1474 0.999 . S
C1472 H1442 0.950 . S
C1472 C1471 1.524 . S
C1472 C1473 1.415 . S
C1473 H1443 0.950 . S
C1473 C1468 1.363 . S
C1473 C1472 1.415 . S
H1474 C1471 0.999 . S
H1475 C1456 0.913 . S
H1476 C1494 0.951 . S
H1477 C1496 0.951 . S
H1478 C1498 0.950 . S
H1479 C1499 0.950 . S
H1480 C1501 0.950 . S
H1481 C1504 0.950 . S
H1482 C1505 0.950 . S
H1483 C1507 0.950 . S
H1484 C1508 0.950 . S
H1485 C1509 0.951 . S
H1486 C1511 0.951 . S
H1487 C1513 0.950 . S
H1488 C1514 0.950 . S
H1489 C1516 0.950 . S
H1490 C1519 0.950 . S
H1491 C1520 0.950 . S
H1492 C1522 0.950 . S
H1493 C1523 0.950 . S
C1494 H1476 0.951 . S
C1494 C1495 1.366 . S
C1494 C1496 1.388 . S
C1495 C1494 1.366 . S
C1495 C1499 1.385 . S
C1496 H1477 0.951 . S
C1496 C1494 1.388 . S
C1496 C1497 1.366 . S
C1497 C1496 1.366 . S
C1497 C1498 1.414 . S
C1497 C1500 1.499 . S
C1498 H1478 0.950 . S
C1498 C1497 1.414 . S
C1498 C1499 1.374 . S
C1499 H1479 0.950 . S
C1499 C1495 1.385 . S
C1499 C1498 1.374 . S
C1500 C1497 1.499 . S
C1500 C1501 1.373 . S
C1500 C1502 1.389 . S
C1501 H1480 0.950 . S
C1501 C1500 1.373 . S
C1501 C1517 1.377 1_455 S
C1502 C1500 1.389 . S
C1502 C1503 1.524 . S
C1502 C1516 1.377 1_455 S
C1503 C1502 1.524 . S
C1503 C1504 1.397 . S
C1503 C1508 1.363 . S
C1504 H1481 0.950 . S
C1504 C1503 1.397 . S
C1504 C1505 1.334 . S
C1505 H1482 0.950 . S
C1505 C1504 1.334 . S
C1505 C1506 1.287 . S
C1506 C1505 1.287 . S
C1506 C1507 1.524 . S
C1506 H1525 0.913 . S
C1507 H1483 0.950 . S
C1507 C1506 1.524 . S
C1507 C1508 1.415 . S
C1508 H1484 0.950 . S
C1508 C1503 1.363 . S
C1508 C1507 1.415 . S
C1509 H1485 0.951 . S
C1509 C1510 1.366 . S
C1509 C1511 1.388 . S
C1510 C1509 1.366 . S
C1510 C1514 1.385 . S
C1511 H1486 0.951 . S
C1511 C1509 1.388 . S
C1511 C1512 1.366 . S
C1512 C1511 1.366 . S
C1512 C1513 1.414 . S
C1512 C1515 1.499 . S
C1513 H1487 0.950 . S
C1513 C1512 1.414 . S
C1513 C1514 1.374 . S
C1514 H1488 0.950 . S
C1514 C1510 1.385 . S
C1514 C1513 1.374 . S
C1515 C1512 1.499 . S
C1515 C1516 1.373 . S
C1515 C1517 1.389 . S
C1516 H1489 0.950 . S
C1516 C1502 1.377 1_655 S
C1516 C1515 1.373 . S
C1517 C1501 1.377 1_655 S
C1517 C1515 1.389 . S
C1517 C1518 1.524 . S
C1518 C1517 1.524 . S
C1518 C1519 1.397 . S
C1518 C1523 1.363 . S
C1519 H1490 0.950 . S
C1519 C1518 1.397 . S
C1519 C1520 1.334 . S
C1520 H1491 0.950 . S
C1520 C1519 1.334 . S
C1520 C1521 1.287 . S
C1521 C1520 1.287 . S
C1521 C1522 1.524 . S
C1521 H1524 0.999 . S
C1522 H1492 0.950 . S
C1522 C1521 1.524 . S
C1522 C1523 1.415 . S
C1523 H1493 0.950 . S
C1523 C1518 1.363 . S
C1523 C1522 1.415 . S
H1524 C1521 0.999 . S
H1525 C1506 0.913 . S
H1526 C1544 0.951 . S
H1527 C1546 0.951 . S
H1528 C1548 0.950 . S
H1529 C1549 0.950 . S
H1530 C1551 0.950 . S
H1531 C1554 0.950 . S
H1532 C1555 0.950 . S
H1533 C1557 0.950 . S
H1534 C1558 0.950 . S
H1535 C1559 0.951 . S
H1536 C1561 0.951 . S
H1537 C1563 0.950 . S
H1538 C1564 0.950 . S
H1539 C1566 0.950 . S
H1540 C1569 0.950 . S
H1541 C1570 0.950 . S
H1542 C1572 0.950 . S
H1543 C1573 0.950 . S
C1544 H1526 0.951 . S
C1544 C1545 1.366 . S
C1544 C1546 1.388 . S
C1545 C1544 1.366 . S
C1545 C1549 1.385 . S
C1546 H1527 0.951 . S
C1546 C1544 1.388 . S
C1546 C1547 1.366 . S
C1547 C1546 1.366 . S
C1547 C1548 1.414 . S
C1547 C1550 1.499 . S
C1548 H1528 0.950 . S
C1548 C1547 1.414 . S
C1548 C1549 1.374 . S
C1549 H1529 0.950 . S
C1549 C1545 1.385 . S
C1549 C1548 1.374 . S
C1550 C1547 1.499 . S
C1550 C1551 1.373 . S
C1550 C1552 1.389 . S
C1551 H1530 0.950 . S
C1551 C1550 1.373 . S
C1551 C1567 1.377 1_565 S
C1552 C1550 1.389 . S
C1552 C1553 1.524 . S
C1552 C1566 1.377 1_565 S
C1553 C1552 1.524 . S
C1553 C1554 1.397 . S
C1553 C1558 1.363 . S
C1554 H1531 0.950 . S
C1554 C1553 1.397 . S
C1554 C1555 1.334 . S
C1555 H1532 0.950 . S
C1555 C1554 1.334 . S
C1555 C1556 1.287 . S
C1556 C1555 1.287 . S
C1556 C1557 1.524 . S
C1556 H1575 0.913 . S
C1557 H1533 0.950 . S
C1557 C1556 1.524 . S
C1557 C1558 1.415 . S
C1558 H1534 0.950 . S
C1558 C1553 1.363 . S
C1558 C1557 1.415 . S
C1559 H1535 0.951 . S
C1559 C1560 1.366 . S
C1559 C1561 1.388 . S
C1560 C1559 1.366 . S
C1560 C1564 1.385 . S
C1561 H1536 0.951 . S
C1561 C1559 1.388 . S
C1561 C1562 1.366 . S
C1562 C1561 1.366 . S
C1562 C1563 1.414 . S
C1562 C1565 1.499 . S
C1563 H1537 0.950 . S
C1563 C1562 1.414 . S
C1563 C1564 1.374 . S
C1564 H1538 0.950 . S
C1564 C1560 1.385 . S
C1564 C1563 1.374 . S
C1565 C1562 1.499 . S
C1565 C1566 1.373 . S
C1565 C1567 1.389 . S
C1566 H1539 0.950 . S
C1566 C1552 1.377 1_545 S
C1566 C1565 1.373 . S
C1567 C1551 1.377 1_545 S
C1567 C1565 1.389 . S
C1567 C1568 1.524 . S
C1568 C1567 1.524 . S
C1568 C1569 1.397 . S
C1568 C1573 1.363 . S
C1569 H1540 0.950 . S
C1569 C1568 1.397 . S
C1569 C1570 1.334 . S
C1570 H1541 0.950 . S
C1570 C1569 1.334 . S
C1570 C1571 1.287 . S
C1571 C1570 1.287 . S
C1571 C1572 1.524 . S
C1571 H1574 0.999 . S
C1572 H1542 0.950 . S
C1572 C1571 1.524 . S
C1572 C1573 1.415 . S
C1573 H1543 0.950 . S
C1573 C1568 1.363 . S
C1573 C1572 1.415 . S
H1574 C1571 0.999 . S
H1575 C1556 0.913 . S
H1576 C1594 0.951 . S
H1577 C1596 0.951 . S
H1578 C1598 0.950 . S
H1579 C1599 0.950 . S
H1580 C1601 0.950 . S
H1581 C1604 0.950 . S
H1582 C1605 0.950 . S
H1583 C1607 0.950 . S
H1584 C1608 0.950 . S
H1585 C1609 0.951 . S
H1586 C1611 0.951 . S
H1587 C1613 0.950 . S
H1588 C1614 0.950 . S
H1589 C1616 0.950 . S
H1590 C1619 0.950 . S
H1591 C1620 0.950 . S
H1592 C1622 0.950 . S
H1593 C1623 0.950 . S
C1594 H1576 0.951 . S
C1594 C1595 1.366 . S
C1594 C1596 1.388 . S
C1595 C1594 1.366 . S
C1595 C1599 1.385 . S
C1596 H1577 0.951 . S
C1596 C1594 1.388 . S
C1596 C1597 1.366 . S
C1597 C1596 1.366 . S
C1597 C1598 1.414 . S
C1597 C1600 1.499 . S
C1598 H1578 0.950 . S
C1598 C1597 1.414 . S
C1598 C1599 1.374 . S
C1599 H1579 0.950 . S
C1599 C1595 1.385 . S
C1599 C1598 1.374 . S
C1600 C1597 1.499 . S
C1600 C1601 1.373 . S
C1600 C1602 1.389 . S
C1601 H1580 0.950 . S
C1601 C1600 1.373 . S
C1601 C1617 1.377 . S
C1602 C1600 1.389 . S
C1602 C1603 1.524 . S
C1602 C1616 1.377 . S
C1603 C1602 1.524 . S
C1603 C1604 1.397 . S
C1603 C1608 1.363 . S
C1604 H1581 0.950 . S
C1604 C1603 1.397 . S
C1604 C1605 1.334 . S
C1605 H1582 0.950 . S
C1605 C1604 1.334 . S
C1605 C1606 1.287 . S
C1606 C1605 1.287 . S
C1606 C1607 1.524 . S
C1606 H1625 0.913 . S
C1607 H1583 0.950 . S
C1607 C1606 1.524 . S
C1607 C1608 1.415 . S
C1608 H1584 0.950 . S
C1608 C1603 1.363 . S
C1608 C1607 1.415 . S
C1609 H1585 0.951 . S
C1609 C1610 1.366 . S
C1609 C1611 1.388 . S
C1610 C1609 1.366 . S
C1610 C1614 1.385 . S
C1611 H1586 0.951 . S
C1611 C1609 1.388 . S
C1611 C1612 1.366 . S
C1612 C1611 1.366 . S
C1612 C1613 1.414 . S
C1612 C1615 1.499 . S
C1613 H1587 0.950 . S
C1613 C1612 1.414 . S
C1613 C1614 1.374 . S
C1614 H1588 0.950 . S
C1614 C1610 1.385 . S
C1614 C1613 1.374 . S
C1615 C1612 1.499 . S
C1615 C1616 1.373 . S
C1615 C1617 1.389 . S
C1616 H1589 0.950 . S
C1616 C1602 1.377 . S
C1616 C1615 1.373 . S
C1617 C1601 1.377 . S
C1617 C1615 1.389 . S
C1617 C1618 1.524 . S
C1618 C1617 1.524 . S
C1618 C1619 1.397 . S
C1618 C1623 1.363 . S
C1619 H1590 0.950 . S
C1619 C1618 1.397 . S
C1619 C1620 1.334 . S
C1620 H1591 0.950 . S
C1620 C1619 1.334 . S
C1620 C1621 1.287 . S
C1621 C1620 1.287 . S
C1621 C1622 1.524 . S
C1621 H1624 0.999 . S
C1622 H1592 0.950 . S
C1622 C1621 1.524 . S
C1622 C1623 1.415 . S
C1623 H1593 0.950 . S
C1623 C1618 1.363 . S
C1623 C1622 1.415 . S
H1624 C1621 0.999 . S
H1625 C1606 0.913 . S
H1626 C1644 0.951 . S
H1627 C1646 0.951 . S
H1628 C1648 0.950 . S
H1629 C1649 0.950 . S
H1630 C1651 0.950 . S
H1631 C1654 0.950 . S
H1632 C1655 0.950 . S
H1633 C1657 0.950 . S
H1634 C1658 0.950 . S
H1635 C1659 0.951 . S
H1636 C1661 0.951 . S
H1637 C1663 0.950 . S
H1638 C1664 0.950 . S
H1639 C1666 0.950 . S
H1640 C1669 0.950 . S
H1641 C1670 0.950 . S
H1642 C1672 0.950 . S
H1643 C1673 0.950 . S
C1644 H1626 0.951 . S
C1644 C1645 1.366 . S
C1644 C1646 1.388 . S
C1645 C1644 1.366 . S
C1645 C1649 1.385 . S
C1646 H1627 0.951 . S
C1646 C1644 1.388 . S
C1646 C1647 1.366 . S
C1647 C1646 1.366 . S
C1647 C1648 1.414 . S
C1647 C1650 1.499 . S
C1648 H1628 0.950 . S
C1648 C1647 1.414 . S
C1648 C1649 1.374 . S
C1649 H1629 0.950 . S
C1649 C1645 1.385 . S
C1649 C1648 1.374 . S
C1650 C1647 1.499 . S
C1650 C1651 1.373 . S
C1650 C1652 1.389 . S
C1651 H1630 0.950 . S
C1651 C1650 1.373 . S
C1651 C1667 1.377 . S
C1652 C1650 1.389 . S
C1652 C1653 1.524 . S
C1652 C1666 1.377 . S
C1653 C1652 1.524 . S
C1653 C1654 1.397 . S
C1653 C1658 1.363 . S
C1654 H1631 0.950 . S
C1654 C1653 1.397 . S
C1654 C1655 1.334 . S
C1655 H1632 0.950 . S
C1655 C1654 1.334 . S
C1655 C1656 1.287 . S
C1656 C1655 1.287 . S
C1656 C1657 1.524 . S
C1656 H1675 0.913 . S
C1657 H1633 0.950 . S
C1657 C1656 1.524 . S
C1657 C1658 1.415 . S
C1658 H1634 0.950 . S
C1658 C1653 1.363 . S
C1658 C1657 1.415 . S
C1659 H1635 0.951 . S
C1659 C1660 1.366 . S
C1659 C1661 1.388 . S
C1660 C1659 1.366 . S
C1660 C1664 1.385 . S
C1661 H1636 0.951 . S
C1661 C1659 1.388 . S
C1661 C1662 1.366 . S
C1662 C1661 1.366 . S
C1662 C1663 1.414 . S
C1662 C1665 1.499 . S
C1663 H1637 0.950 . S
C1663 C1662 1.414 . S
C1663 C1664 1.374 . S
C1664 H1638 0.950 . S
C1664 C1660 1.385 . S
C1664 C1663 1.374 . S
C1665 C1662 1.499 . S
C1665 C1666 1.373 . S
C1665 C1667 1.389 . S
C1666 H1639 0.950 . S
C1666 C1652 1.377 . S
C1666 C1665 1.373 . S
C1667 C1651 1.377 . S
C1667 C1665 1.389 . S
C1667 C1668 1.524 . S
C1668 C1667 1.524 . S
C1668 C1669 1.397 . S
C1668 C1673 1.363 . S
C1669 H1640 0.950 . S
C1669 C1668 1.397 . S
C1669 C1670 1.334 . S
C1670 H1641 0.950 . S
C1670 C1669 1.334 . S
C1670 C1671 1.287 . S
C1671 C1670 1.287 . S
C1671 C1672 1.524 . S
C1671 H1674 0.999 . S
C1672 H1642 0.950 . S
C1672 C1671 1.524 . S
C1672 C1673 1.415 . S
C1673 H1643 0.950 . S
C1673 C1668 1.363 . S
C1673 C1672 1.415 . S
H1674 C1671 0.999 . S
H1675 C1656 0.913 . S
H1676 C1694 0.951 . S
H1677 C1696 0.951 . S
H1678 C1698 0.950 . S
H1679 C1699 0.950 . S
H1680 C1701 0.950 . S
H1681 C1704 0.950 . S
H1682 C1705 0.950 . S
H1683 C1707 0.950 . S
H1684 C1708 0.950 . S
H1685 C1709 0.951 . S
H1686 C1711 0.951 . S
H1687 C1713 0.950 . S
H1688 C1714 0.950 . S
H1689 C1716 0.950 . S
H1690 C1719 0.950 . S
H1691 C1720 0.950 . S
H1692 C1722 0.950 . S
H1693 C1723 0.950 . S
C1694 H1676 0.951 . S
C1694 C1695 1.366 . S
C1694 C1696 1.388 . S
C1695 C1694 1.366 . S
C1695 C1699 1.385 . S
C1696 H1677 0.951 . S
C1696 C1694 1.388 . S
C1696 C1697 1.366 . S
C1697 C1696 1.366 . S
C1697 C1698 1.414 . S
C1697 C1700 1.499 . S
C1698 H1678 0.950 . S
C1698 C1697 1.414 . S
C1698 C1699 1.374 . S
C1699 H1679 0.950 . S
C1699 C1695 1.385 . S
C1699 C1698 1.374 . S
C1700 C1697 1.499 . S
C1700 C1701 1.373 . S
C1700 C1702 1.389 . S
C1701 H1680 0.950 . S
C1701 C1700 1.373 . S
C1701 C1717 1.377 . S
C1702 C1700 1.389 . S
C1702 C1703 1.524 . S
C1702 C1716 1.377 . S
C1703 C1702 1.524 . S
C1703 C1704 1.397 . S
C1703 C1708 1.363 . S
C1704 H1681 0.950 . S
C1704 C1703 1.397 . S
C1704 C1705 1.334 . S
C1705 H1682 0.950 . S
C1705 C1704 1.334 . S
C1705 C1706 1.287 . S
C1706 C1705 1.287 . S
C1706 C1707 1.524 . S
C1706 H1725 0.913 . S
C1707 H1683 0.950 . S
C1707 C1706 1.524 . S
C1707 C1708 1.415 . S
C1708 H1684 0.950 . S
C1708 C1703 1.363 . S
C1708 C1707 1.415 . S
C1709 H1685 0.951 . S
C1709 C1710 1.366 . S
C1709 C1711 1.388 . S
C1710 C1709 1.366 . S
C1710 C1714 1.385 . S
C1711 H1686 0.951 . S
C1711 C1709 1.388 . S
C1711 C1712 1.366 . S
C1712 C1711 1.366 . S
C1712 C1713 1.414 . S
C1712 C1715 1.499 . S
C1713 H1687 0.950 . S
C1713 C1712 1.414 . S
C1713 C1714 1.374 . S
C1714 H1688 0.950 . S
C1714 C1710 1.385 . S
C1714 C1713 1.374 . S
C1715 C1712 1.499 . S
C1715 C1716 1.373 . S
C1715 C1717 1.389 . S
C1716 H1689 0.950 . S
C1716 C1702 1.377 . S
C1716 C1715 1.373 . S
C1717 C1701 1.377 . S
C1717 C1715 1.389 . S
C1717 C1718 1.524 . S
C1718 C1717 1.524 . S
C1718 C1719 1.397 . S
C1718 C1723 1.363 . S
C1719 H1690 0.950 . S
C1719 C1718 1.397 . S
C1719 C1720 1.334 . S
C1720 H1691 0.950 . S
C1720 C1719 1.334 . S
C1720 C1721 1.287 . S
C1721 C1720 1.287 . S
C1721 C1722 1.524 . S
C1721 H1724 0.999 . S
C1722 H1692 0.950 . S
C1722 C1721 1.524 . S
C1722 C1723 1.415 . S
C1723 H1693 0.950 . S
C1723 C1718 1.363 . S
C1723 C1722 1.415 . S
H1724 C1721 0.999 . S
H1725 C1706 0.913 . S
H1726 C1744 0.951 . S
H1727 C1746 0.951 . S
H1728 C1748 0.950 . S
H1729 C1749 0.950 . S
H1730 C1751 0.950 . S
H1731 C1754 0.950 . S
H1732 C1755 0.950 . S
H1733 C1757 0.950 . S
H1734 C1758 0.950 . S
H1735 C1759 0.951 . S
H1736 C1761 0.951 . S
H1737 C1763 0.950 . S
H1738 C1764 0.950 . S
H1739 C1766 0.950 . S
H1740 C1769 0.950 . S
H1741 C1770 0.950 . S
H1742 C1772 0.950 . S
H1743 C1773 0.950 . S
C1744 H1726 0.951 . S
C1744 C1745 1.366 . S
C1744 C1746 1.388 . S
C1745 C1744 1.366 . S
C1745 C1749 1.385 . S
C1746 H1727 0.951 . S
C1746 C1744 1.388 . S
C1746 C1747 1.366 . S
C1747 C1746 1.366 . S
C1747 C1748 1.414 . S
C1747 C1750 1.499 . S
C1748 H1728 0.950 . S
C1748 C1747 1.414 . S
C1748 C1749 1.374 . S
C1749 H1729 0.950 . S
C1749 C1745 1.385 . S
C1749 C1748 1.374 . S
C1750 C1747 1.499 . S
C1750 C1751 1.373 . S
C1750 C1752 1.389 . S
C1751 H1730 0.950 . S
C1751 C1750 1.373 . S
C1751 C1767 1.377 . S
C1752 C1750 1.389 . S
C1752 C1753 1.524 . S
C1752 C1766 1.377 . S
C1753 C1752 1.524 . S
C1753 C1754 1.397 . S
C1753 C1758 1.363 . S
C1754 H1731 0.950 . S
C1754 C1753 1.397 . S
C1754 C1755 1.334 . S
C1755 H1732 0.950 . S
C1755 C1754 1.334 . S
C1755 C1756 1.287 . S
C1756 C1755 1.287 . S
C1756 C1757 1.524 . S
C1756 H1775 0.913 . S
C1757 H1733 0.950 . S
C1757 C1756 1.524 . S
C1757 C1758 1.415 . S
C1758 H1734 0.950 . S
C1758 C1753 1.363 . S
C1758 C1757 1.415 . S
C1759 H1735 0.951 . S
C1759 C1760 1.366 . S
C1759 C1761 1.388 . S
C1760 C1759 1.366 . S
C1760 C1764 1.385 . S
C1761 H1736 0.951 . S
C1761 C1759 1.388 . S
C1761 C1762 1.366 . S
C1762 C1761 1.366 . S
C1762 C1763 1.414 . S
C1762 C1765 1.499 . S
C1763 H1737 0.950 . S
C1763 C1762 1.414 . S
C1763 C1764 1.374 . S
C1764 H1738 0.950 . S
C1764 C1760 1.385 . S
C1764 C1763 1.374 . S
C1765 C1762 1.499 . S
C1765 C1766 1.373 . S
C1765 C1767 1.389 . S
C1766 H1739 0.950 . S
C1766 C1752 1.377 . S
C1766 C1765 1.373 . S
C1767 C1751 1.377 . S
C1767 C1765 1.389 . S
C1767 C1768 1.524 . S
C1768 C1767 1.524 . S
C1768 C1769 1.397 . S
C1768 C1773 1.363 . S
C1769 H1740 0.950 . S
C1769 C1768 1.397 . S
C1769 C1770 1.334 . S
C1770 H1741 0.950 . S
C1770 C1769 1.334 . S
C1770 C1771 1.287 . S
C1771 C1770 1.287 . S
C1771 C1772 1.524 . S
C1771 H1774 0.999 . S
C1772 H1742 0.950 . S
C1772 C1771 1.524 . S
C1772 C1773 1.415 . S
C1773 H1743 0.950 . S
C1773 C1768 1.363 . S
C1773 C1772 1.415 . S
H1774 C1771 0.999 . S
H1775 C1756 0.913 . S
H1776 C1794 0.951 . S
H1777 C1796 0.951 . S
H1778 C1798 0.950 . S
H1779 C1799 0.950 . S
H1780 C1801 0.950 . S
H1781 C1804 0.950 . S
H1782 C1805 0.950 . S
H1783 C1807 0.950 . S
H1784 C1808 0.950 . S
H1785 C1809 0.951 . S
H1786 C1811 0.951 . S
H1787 C1813 0.950 . S
H1788 C1814 0.950 . S
H1789 C1816 0.950 . S
H1790 C1819 0.950 . S
H1791 C1820 0.950 . S
H1792 C1822 0.950 . S
H1793 C1823 0.950 . S
C1794 H1776 0.951 . S
C1794 C1795 1.366 . S
C1794 C1796 1.388 . S
C1795 C1794 1.366 . S
C1795 C1799 1.385 . S
C1796 H1777 0.951 . S
C1796 C1794 1.388 . S
C1796 C1797 1.366 . S
C1797 C1796 1.366 . S
C1797 C1798 1.414 . S
C1797 C1800 1.499 . S
C1798 H1778 0.950 . S
C1798 C1797 1.414 . S
C1798 C1799 1.374 . S
C1799 H1779 0.950 . S
C1799 C1795 1.385 . S
C1799 C1798 1.374 . S
C1800 C1797 1.499 . S
C1800 C1801 1.373 . S
C1800 C1802 1.389 . S
C1801 H1780 0.950 . S
C1801 C1800 1.373 . S
C1801 C1817 1.377 . S
C1802 C1800 1.389 . S
C1802 C1803 1.524 . S
C1802 C1816 1.377 . S
C1803 C1802 1.524 . S
C1803 C1804 1.397 . S
C1803 C1808 1.363 . S
C1804 H1781 0.950 . S
C1804 C1803 1.397 . S
C1804 C1805 1.334 . S
C1805 H1782 0.950 . S
C1805 C1804 1.334 . S
C1805 C1806 1.287 . S
C1806 C1805 1.287 . S
C1806 C1807 1.524 . S
C1806 H1825 0.913 . S
C1807 H1783 0.950 . S
C1807 C1806 1.524 . S
C1807 C1808 1.415 . S
C1808 H1784 0.950 . S
C1808 C1803 1.363 . S
C1808 C1807 1.415 . S
C1809 H1785 0.951 . S
C1809 C1810 1.366 . S
C1809 C1811 1.388 . S
C1810 C1809 1.366 . S
C1810 C1814 1.385 . S
C1811 H1786 0.951 . S
C1811 C1809 1.388 . S
C1811 C1812 1.366 . S
C1812 C1811 1.366 . S
C1812 C1813 1.414 . S
C1812 C1815 1.499 . S
C1813 H1787 0.950 . S
C1813 C1812 1.414 . S
C1813 C1814 1.374 . S
C1814 H1788 0.950 . S
C1814 C1810 1.385 . S
C1814 C1813 1.374 . S
C1815 C1812 1.499 . S
C1815 C1816 1.373 . S
C1815 C1817 1.389 . S
C1816 H1789 0.950 . S
C1816 C1802 1.377 . S
C1816 C1815 1.373 . S
C1817 C1801 1.377 . S
C1817 C1815 1.389 . S
C1817 C1818 1.524 . S
C1818 C1817 1.524 . S
C1818 C1819 1.397 . S
C1818 C1823 1.363 . S
C1819 H1790 0.950 . S
C1819 C1818 1.397 . S
C1819 C1820 1.334 . S
C1820 H1791 0.950 . S
C1820 C1819 1.334 . S
C1820 C1821 1.287 . S
C1821 C1820 1.287 . S
C1821 C1822 1.524 . S
C1821 H1824 0.999 . S
C1822 H1792 0.950 . S
C1822 C1821 1.524 . S
C1822 C1823 1.415 . S
C1823 H1793 0.950 . S
C1823 C1818 1.363 . S
C1823 C1822 1.415 . S
H1824 C1821 0.999 . S
H1825 C1806 0.913 . S
H1826 C1844 0.951 . S
H1827 C1846 0.951 . S
H1828 C1848 0.950 . S
H1829 C1849 0.950 . S
H1830 C1851 0.950 . S
H1831 C1854 0.950 . S
H1832 C1855 0.950 . S
H1833 C1857 0.950 . S
H1834 C1858 0.950 . S
H1835 C1859 0.951 . S
H1836 C1861 0.951 . S
H1837 C1863 0.950 . S
H1838 C1864 0.950 . S
H1839 C1866 0.950 . S
H1840 C1869 0.950 . S
H1841 C1870 0.950 . S
H1842 C1872 0.950 . S
H1843 C1873 0.950 . S
C1844 H1826 0.951 . S
C1844 C1845 1.366 . S
C1844 C1846 1.388 . S
C1845 C1844 1.366 . S
C1845 C1849 1.385 . S
C1846 H1827 0.951 . S
C1846 C1844 1.388 . S
C1846 C1847 1.366 . S
C1847 C1846 1.366 . S
C1847 C1848 1.414 . S
C1847 C1850 1.499 . S
C1848 H1828 0.950 . S
C1848 C1847 1.414 . S
C1848 C1849 1.374 . S
C1849 H1829 0.950 . S
C1849 C1845 1.385 . S
C1849 C1848 1.374 . S
C1850 C1847 1.499 . S
C1850 C1851 1.373 . S
C1850 C1852 1.389 . S
C1851 H1830 0.950 . S
C1851 C1850 1.373 . S
C1851 C1867 1.377 . S
C1852 C1850 1.389 . S
C1852 C1853 1.524 . S
C1852 C1866 1.377 . S
C1853 C1852 1.524 . S
C1853 C1854 1.397 . S
C1853 C1858 1.363 . S
C1854 H1831 0.950 . S
C1854 C1853 1.397 . S
C1854 C1855 1.334 . S
C1855 H1832 0.950 . S
C1855 C1854 1.334 . S
C1855 C1856 1.287 . S
C1856 C1855 1.287 . S
C1856 C1857 1.524 . S
C1856 H1875 0.913 . S
C1857 H1833 0.950 . S
C1857 C1856 1.524 . S
C1857 C1858 1.415 . S
C1858 H1834 0.950 . S
C1858 C1853 1.363 . S
C1858 C1857 1.415 . S
C1859 H1835 0.951 . S
C1859 C1860 1.366 . S
C1859 C1861 1.388 . S
C1860 C1859 1.366 . S
C1860 C1864 1.385 . S
C1861 H1836 0.951 . S
C1861 C1859 1.388 . S
C1861 C1862 1.366 . S
C1862 C1861 1.366 . S
C1862 C1863 1.414 . S
C1862 C1865 1.499 . S
C1863 H1837 0.950 . S
C1863 C1862 1.414 . S
C1863 C1864 1.374 . S
C1864 H1838 0.950 . S
C1864 C1860 1.385 . S
C1864 C1863 1.374 . S
C1865 C1862 1.499 . S
C1865 C1866 1.373 . S
C1865 C1867 1.389 . S
C1866 H1839 0.950 . S
C1866 C1852 1.377 . S
C1866 C1865 1.373 . S
C1867 C1851 1.377 . S
C1867 C1865 1.389 . S
C1867 C1868 1.524 . S
C1868 C1867 1.524 . S
C1868 C1869 1.397 . S
C1868 C1873 1.363 . S
C1869 H1840 0.950 . S
C1869 C1868 1.397 . S
C1869 C1870 1.334 . S
C1870 H1841 0.950 . S
C1870 C1869 1.334 . S
C1870 C1871 1.287 . S
C1871 C1870 1.287 . S
C1871 C1872 1.524 . S
C1871 H1874 0.999 . S
C1872 H1842 0.950 . S
C1872 C1871 1.524 . S
C1872 C1873 1.415 . S
C1873 H1843 0.950 . S
C1873 C1868 1.363 . S
C1873 C1872 1.415 . S
H1874 C1871 0.999 . S
H1875 C1856 0.913 . S
H1876 C1894 0.951 . S
H1877 C1896 0.951 . S
H1878 C1898 0.950 . S
H1879 C1899 0.950 . S
H1880 C1901 0.950 . S
H1881 C1904 0.950 . S
H1882 C1905 0.950 . S
H1883 C1907 0.950 . S
H1884 C1908 0.950 . S
H1885 C1909 0.951 . S
H1886 C1911 0.951 . S
H1887 C1913 0.950 . S
H1888 C1914 0.950 . S
H1889 C1916 0.950 . S
H1890 C1919 0.950 . S
H1891 C1920 0.950 . S
H1892 C1922 0.950 . S
H1893 C1923 0.950 . S
C1894 H1876 0.951 . S
C1894 C1895 1.366 . S
C1894 C1896 1.388 . S
C1895 C1894 1.366 . S
C1895 C1899 1.385 . S
C1896 H1877 0.951 . S
C1896 C1894 1.388 . S
C1896 C1897 1.366 . S
C1897 C1896 1.366 . S
C1897 C1898 1.414 . S
C1897 C1900 1.499 . S
C1898 H1878 0.950 . S
C1898 C1897 1.414 . S
C1898 C1899 1.374 . S
C1899 H1879 0.950 . S
C1899 C1895 1.385 . S
C1899 C1898 1.374 . S
C1900 C1897 1.499 . S
C1900 C1901 1.373 . S
C1900 C1902 1.389 . S
C1901 H1880 0.950 . S
C1901 C1900 1.373 . S
C1901 C1917 1.377 . S
C1902 C1900 1.389 . S
C1902 C1903 1.524 . S
C1902 C1916 1.377 . S
C1903 C1902 1.524 . S
C1903 C1904 1.397 . S
C1903 C1908 1.363 . S
C1904 H1881 0.950 . S
C1904 C1903 1.397 . S
C1904 C1905 1.334 . S
C1905 H1882 0.950 . S
C1905 C1904 1.334 . S
C1905 C1906 1.287 . S
C1906 C1905 1.287 . S
C1906 C1907 1.524 . S
C1906 H1925 0.913 . S
C1907 H1883 0.950 . S
C1907 C1906 1.524 . S
C1907 C1908 1.415 . S
C1908 H1884 0.950 . S
C1908 C1903 1.363 . S
C1908 C1907 1.415 . S
C1909 H1885 0.951 . S
C1909 C1910 1.366 . S
C1909 C1911 1.388 . S
C1910 C1909 1.366 . S
C1910 C1914 1.385 . S
C1911 H1886 0.951 . S
C1911 C1909 1.388 . S
C1911 C1912 1.366 . S
C1912 C1911 1.366 . S
C1912 C1913 1.414 . S
C1912 C1915 1.499 . S
C1913 H1887 0.950 . S
C1913 C1912 1.414 . S
C1913 C1914 1.374 . S
C1914 H1888 0.950 . S
C1914 C1910 1.385 . S
C1914 C1913 1.374 . S
C1915 C1912 1.499 . S
C1915 C1916 1.373 . S
C1915 C1917 1.389 . S
C1916 H1889 0.950 . S
C1916 C1902 1.377 . S
C1916 C1915 1.373 . S
C1917 C1901 1.377 . S
C1917 C1915 1.389 . S
C1917 C1918 1.524 . S
C1918 C1917 1.524 . S
C1918 C1919 1.397 . S
C1918 C1923 1.363 . S
C1919 H1890 0.950 . S
C1919 C1918 1.397 . S
C1919 C1920 1.334 . S
C1920 H1891 0.950 . S
C1920 C1919 1.334 . S
C1920 C1921 1.287 . S
C1921 C1920 1.287 . S
C1921 C1922 1.524 . S
C1921 H1924 0.999 . S
C1922 H1892 0.950 . S
C1922 C1921 1.524 . S
C1922 C1923 1.415 . S
C1923 H1893 0.950 . S
C1923 C1918 1.363 . S
C1923 C1922 1.415 . S
H1924 C1921 0.999 . S
H1925 C1906 0.913 . S
H1926 C1944 0.951 . S
H1927 C1946 0.951 . S
H1928 C1948 0.950 . S
H1929 C1949 0.950 . S
H1930 C1951 0.950 . S
H1931 C1954 0.950 . S
H1932 C1955 0.950 . S
H1933 C1957 0.950 . S
H1934 C1958 0.950 . S
H1935 C1959 0.951 . S
H1936 C1961 0.951 . S
H1937 C1963 0.950 . S
H1938 C1964 0.950 . S
H1939 C1966 0.950 . S
H1940 C1969 0.950 . S
H1941 C1970 0.950 . S
H1942 C1972 0.950 . S
H1943 C1973 0.950 . S
C1944 H1926 0.951 . S
C1944 C1945 1.366 . S
C1944 C1946 1.388 . S
C1945 C1944 1.366 . S
C1945 C1949 1.385 . S
C1946 H1927 0.951 . S
C1946 C1944 1.388 . S
C1946 C1947 1.366 . S
C1947 C1946 1.366 . S
C1947 C1948 1.414 . S
C1947 C1950 1.499 . S
C1948 H1928 0.950 . S
C1948 C1947 1.414 . S
C1948 C1949 1.374 . S
C1949 H1929 0.950 . S
C1949 C1945 1.385 . S
C1949 C1948 1.374 . S
C1950 C1947 1.499 . S
C1950 C1951 1.373 . S
C1950 C1952 1.389 . S
C1951 H1930 0.950 . S
C1951 C1950 1.373 . S
C1951 C1967 1.377 . S
C1952 C1950 1.389 . S
C1952 C1953 1.524 . S
C1952 C1966 1.377 . S
C1953 C1952 1.524 . S
C1953 C1954 1.397 . S
C1953 C1958 1.363 . S
C1954 H1931 0.950 . S
C1954 C1953 1.397 . S
C1954 C1955 1.334 . S
C1955 H1932 0.950 . S
C1955 C1954 1.334 . S
C1955 C1956 1.287 . S
C1956 C1955 1.287 . S
C1956 C1957 1.524 . S
C1956 H1975 0.913 . S
C1957 H1933 0.950 . S
C1957 C1956 1.524 . S
C1957 C1958 1.415 . S
C1958 H1934 0.950 . S
C1958 C1953 1.363 . S
C1958 C1957 1.415 . S
C1959 H1935 0.951 . S
C1959 C1960 1.366 . S
C1959 C1961 1.388 . S
C1960 C1959 1.366 . S
C1960 C1964 1.385 . S
C1961 H1936 0.951 . S
C1961 C1959 1.388 . S
C1961 C1962 1.366 . S
C1962 C1961 1.366 . S
C1962 C1963 1.414 . S
C1962 C1965 1.499 . S
C1963 H1937 0.950 . S
C1963 C1962 1.414 . S
C1963 C1964 1.374 . S
C1964 H1938 0.950 . S
C1964 C1960 1.385 . S
C1964 C1963 1.374 . S
C1965 C1962 1.499 . S
C1965 C1966 1.373 . S
C1965 C1967 1.389 . S
C1966 H1939 0.950 . S
C1966 C1952 1.377 . S
C1966 C1965 1.373 . S
C1967 C1951 1.377 . S
C1967 C1965 1.389 . S
C1967 C1968 1.524 . S
C1968 C1967 1.524 . S
C1968 C1969 1.397 . S
C1968 C1973 1.363 . S
C1969 H1940 0.950 . S
C1969 C1968 1.397 . S
C1969 C1970 1.334 . S
C1970 H1941 0.950 . S
C1970 C1969 1.334 . S
C1970 C1971 1.287 . S
C1971 C1970 1.287 . S
C1971 C1972 1.524 . S
C1971 H1974 0.999 . S
C1972 H1942 0.950 . S
C1972 C1971 1.524 . S
C1972 C1973 1.415 . S
C1973 H1943 0.950 . S
C1973 C1968 1.363 . S
C1973 C1972 1.415 . S
H1974 C1971 0.999 . S
H1975 C1956 0.913 . S
H1976 C1994 0.951 . S
H1977 C1996 0.951 . S
H1978 C1998 0.950 . S
H1979 C1999 0.950 . S
H1980 C2001 0.950 . S
H1981 C2004 0.950 . S
H1982 C2005 0.950 . S
H1983 C2007 0.950 . S
H1984 C2008 0.950 . S
H1985 C2009 0.951 . S
H1986 C2011 0.951 . S
H1987 C2013 0.950 . S
H1988 C2014 0.950 . S
H1989 C2016 0.950 . S
H1990 C2019 0.950 . S
H1991 C2020 0.950 . S
H1992 C2022 0.950 . S
H1993 C2023 0.950 . S
C1994 H1976 0.951 . S
C1994 C1995 1.366 . S
C1994 C1996 1.388 . S
C1995 C1994 1.366 . S
C1995 C1999 1.385 . S
C1996 H1977 0.951 . S
C1996 C1994 1.388 . S
C1996 C1997 1.366 . S
C1997 C1996 1.366 . S
C1997 C1998 1.414 . S
C1997 C2000 1.499 . S
C1998 H1978 0.950 . S
C1998 C1997 1.414 . S
C1998 C1999 1.374 . S
C1999 H1979 0.950 . S
C1999 C1995 1.385 . S
C1999 C1998 1.374 . S
C2000 C1997 1.499 . S
C2000 C2001 1.373 . S
C2000 C2002 1.389 . S
C2001 H1980 0.950 . S
C2001 C2000 1.373 . S
C2001 C2017 1.377 . S
C2002 C2000 1.389 . S
C2002 C2003 1.524 . S
C2002 C2016 1.377 . S
C2003 C2002 1.524 . S
C2003 C2004 1.397 . S
C2003 C2008 1.363 . S
C2004 H1981 0.950 . S
C2004 C2003 1.397 . S
C2004 C2005 1.334 . S
C2005 H1982 0.950 . S
C2005 C2004 1.334 . S
C2005 C2006 1.287 . S
C2006 C2005 1.287 . S
C2006 C2007 1.524 . S
C2006 H2025 0.913 . S
C2007 H1983 0.950 . S
C2007 C2006 1.524 . S
C2007 C2008 1.415 . S
C2008 H1984 0.950 . S
C2008 C2003 1.363 . S
C2008 C2007 1.415 . S
C2009 H1985 0.951 . S
C2009 C2010 1.366 . S
C2009 C2011 1.388 . S
C2010 C2009 1.366 . S
C2010 C2014 1.385 . S
C2011 H1986 0.951 . S
C2011 C2009 1.388 . S
C2011 C2012 1.366 . S
C2012 C2011 1.366 . S
C2012 C2013 1.414 . S
C2012 C2015 1.499 . S
C2013 H1987 0.950 . S
C2013 C2012 1.414 . S
C2013 C2014 1.374 . S
C2014 H1988 0.950 . S
C2014 C2010 1.385 . S
C2014 C2013 1.374 . S
C2015 C2012 1.499 . S
C2015 C2016 1.373 . S
C2015 C2017 1.389 . S
C2016 H1989 0.950 . S
C2016 C2002 1.377 . S
C2016 C2015 1.373 . S
C2017 C2001 1.377 . S
C2017 C2015 1.389 . S
C2017 C2018 1.524 . S
C2018 C2017 1.524 . S
C2018 C2019 1.397 . S
C2018 C2023 1.363 . S
C2019 H1990 0.950 . S
C2019 C2018 1.397 . S
C2019 C2020 1.334 . S
C2020 H1991 0.950 . S
C2020 C2019 1.334 . S
C2020 C2021 1.287 . S
C2021 C2020 1.287 . S
C2021 C2022 1.524 . S
C2021 H2024 0.999 . S
C2022 H1992 0.950 . S
C2022 C2021 1.524 . S
C2022 C2023 1.415 . S
C2023 H1993 0.950 . S
C2023 C2018 1.363 . S
C2023 C2022 1.415 . S
H2024 C2021 0.999 . S
H2025 C2006 0.913 . S
H2026 C2044 0.951 . S
H2027 C2046 0.951 . S
H2028 C2048 0.950 . S
H2029 C2049 0.950 . S
H2030 C2051 0.950 . S
H2031 C2054 0.950 . S
H2032 C2055 0.950 . S
H2033 C2057 0.950 . S
H2034 C2058 0.950 . S
H2035 C2059 0.951 . S
H2036 C2061 0.951 . S
H2037 C2063 0.950 . S
H2038 C2064 0.950 . S
H2039 C2066 0.950 . S
H2040 C2069 0.950 . S
H2041 C2070 0.950 . S
H2042 C2072 0.950 . S
H2043 C2073 0.950 . S
C2044 H2026 0.951 . S
C2044 C2045 1.366 . S
C2044 C2046 1.388 . S
C2045 C2044 1.366 . S
C2045 C2049 1.385 . S
C2046 H2027 0.951 . S
C2046 C2044 1.388 . S
C2046 C2047 1.366 . S
C2047 C2046 1.366 . S
C2047 C2048 1.414 . S
C2047 C2050 1.499 . S
C2048 H2028 0.950 . S
C2048 C2047 1.414 . S
C2048 C2049 1.374 . S
C2049 H2029 0.950 . S
C2049 C2045 1.385 . S
C2049 C2048 1.374 . S
C2050 C2047 1.499 . S
C2050 C2051 1.373 . S
C2050 C2052 1.389 . S
C2051 H2030 0.950 . S
C2051 C2050 1.373 . S
C2051 C2067 1.377 . S
C2052 C2050 1.389 . S
C2052 C2053 1.524 . S
C2052 C2066 1.377 . S
C2053 C2052 1.524 . S
C2053 C2054 1.397 . S
C2053 C2058 1.363 . S
C2054 H2031 0.950 . S
C2054 C2053 1.397 . S
C2054 C2055 1.334 . S
C2055 H2032 0.950 . S
C2055 C2054 1.334 . S
C2055 C2056 1.287 . S
C2056 C2055 1.287 . S
C2056 C2057 1.524 . S
C2056 H2075 0.913 . S
C2057 H2033 0.950 . S
C2057 C2056 1.524 . S
C2057 C2058 1.415 . S
C2058 H2034 0.950 . S
C2058 C2053 1.363 . S
C2058 C2057 1.415 . S
C2059 H2035 0.951 . S
C2059 C2060 1.366 . S
C2059 C2061 1.388 . S
C2060 C2059 1.366 . S
C2060 C2064 1.385 . S
C2061 H2036 0.951 . S
C2061 C2059 1.388 . S
C2061 C2062 1.366 . S
C2062 C2061 1.366 . S
C2062 C2063 1.414 . S
C2062 C2065 1.499 . S
C2063 H2037 0.950 . S
C2063 C2062 1.414 . S
C2063 C2064 1.374 . S
C2064 H2038 0.950 . S
C2064 C2060 1.385 . S
C2064 C2063 1.374 . S
C2065 C2062 1.499 . S
C2065 C2066 1.373 . S
C2065 C2067 1.389 . S
C2066 H2039 0.950 . S
C2066 C2052 1.377 . S
C2066 C2065 1.373 . S
C2067 C2051 1.377 . S
C2067 C2065 1.389 . S
C2067 C2068 1.524 . S
C2068 C2067 1.524 . S
C2068 C2069 1.397 . S
C2068 C2073 1.363 . S
C2069 H2040 0.950 . S
C2069 C2068 1.397 . S
C2069 C2070 1.334 . S
C2070 H2041 0.950 . S
C2070 C2069 1.334 . S
C2070 C2071 1.287 . S
C2071 C2070 1.287 . S
C2071 C2072 1.524 . S
C2071 H2074 0.999 . S
C2072 H2042 0.950 . S
C2072 C2071 1.524 . S
C2072 C2073 1.415 . S
C2073 H2043 0.950 . S
C2073 C2068 1.363 . S
C2073 C2072 1.415 . S
H2074 C2071 0.999 . S
H2075 C2056 0.913 . S
H2076 C2094 0.951 . S
H2077 C2096 0.951 . S
H2078 C2098 0.950 . S
H2079 C2099 0.950 . S
H2080 C2101 0.950 . S
H2081 C2104 0.950 . S
H2082 C2105 0.950 . S
H2083 C2107 0.950 . S
H2084 C2108 0.950 . S
H2085 C2109 0.951 . S
H2086 C2111 0.951 . S
H2087 C2113 0.950 . S
H2088 C2114 0.950 . S
H2089 C2116 0.950 . S
H2090 C2119 0.950 . S
H2091 C2120 0.950 . S
H2092 C2122 0.950 . S
H2093 C2123 0.950 . S
C2094 H2076 0.951 . S
C2094 C2095 1.366 . S
C2094 C2096 1.388 . S
C2095 C2094 1.366 . S
C2095 C2099 1.385 . S
C2096 H2077 0.951 . S
C2096 C2094 1.388 . S
C2096 C2097 1.366 . S
C2097 C2096 1.366 . S
C2097 C2098 1.414 . S
C2097 C2100 1.499 . S
C2098 H2078 0.950 . S
C2098 C2097 1.414 . S
C2098 C2099 1.374 . S
C2099 H2079 0.950 . S
C2099 C2095 1.385 . S
C2099 C2098 1.374 . S
C2100 C2097 1.499 . S
C2100 C2101 1.373 . S
C2100 C2102 1.389 . S
C2101 H2080 0.950 . S
C2101 C2100 1.373 . S
C2101 C2117 1.377 . S
C2102 C2100 1.389 . S
C2102 C2103 1.524 . S
C2102 C2116 1.377 . S
C2103 C2102 1.524 . S
C2103 C2104 1.397 . S
C2103 C2108 1.363 . S
C2104 H2081 0.950 . S
C2104 C2103 1.397 . S
C2104 C2105 1.334 . S
C2105 H2082 0.950 . S
C2105 C2104 1.334 . S
C2105 C2106 1.287 . S
C2106 C2105 1.287 . S
C2106 C2107 1.524 . S
C2106 H2125 0.913 . S
C2107 H2083 0.950 . S
C2107 C2106 1.524 . S
C2107 C2108 1.415 . S
C2108 H2084 0.950 . S
C2108 C2103 1.363 . S
C2108 C2107 1.415 . S
C2109 H2085 0.951 . S
C2109 C2110 1.366 . S
C2109 C2111 1.388 . S
C2110 C2109 1.366 . S
C2110 C2114 1.385 . S
C2111 H2086 0.951 . S
C2111 C2109 1.388 . S
C2111 C2112 1.366 . S
C2112 C2111 1.366 . S
C2112 C2113 1.414 . S
C2112 C2115 1.499 . S
C2113 H2087 0.950 . S
C2113 C2112 1.414 . S
C2113 C2114 1.374 . S
C2114 H2088 0.950 . S
C2114 C2110 1.385 . S
C2114 C2113 1.374 . S
C2115 C2112 1.499 . S
C2115 C2116 1.373 . S
C2115 C2117 1.389 . S
C2116 H2089 0.950 . S
C2116 C2102 1.377 . S
C2116 C2115 1.373 . S
C2117 C2101 1.377 . S
C2117 C2115 1.389 . S
C2117 C2118 1.524 . S
C2118 C2117 1.524 . S
C2118 C2119 1.397 . S
C2118 C2123 1.363 . S
C2119 H2090 0.950 . S
C2119 C2118 1.397 . S
C2119 C2120 1.334 . S
C2120 H2091 0.950 . S
C2120 C2119 1.334 . S
C2120 C2121 1.287 . S
C2121 C2120 1.287 . S
C2121 C2122 1.524 . S
C2121 H2124 0.999 . S
C2122 H2092 0.950 . S
C2122 C2121 1.524 . S
C2122 C2123 1.415 . S
C2123 H2093 0.950 . S
C2123 C2118 1.363 . S
C2123 C2122 1.415 . S
H2124 C2121 0.999 . S
H2125 C2106 0.913 . S
H2126 C2144 0.951 . S
H2127 C2146 0.951 . S
H2128 C2148 0.950 . S
H2129 C2149 0.950 . S
H2130 C2151 0.950 . S
H2131 C2154 0.950 . S
H2132 C2155 0.950 . S
H2133 C2157 0.950 . S
H2134 C2158 0.950 . S
H2135 C2159 0.951 . S
H2136 C2161 0.951 . S
H2137 C2163 0.950 . S
H2138 C2164 0.950 . S
H2139 C2166 0.950 . S
H2140 C2169 0.950 . S
H2141 C2170 0.950 . S
H2142 C2172 0.950 . S
H2143 C2173 0.950 . S
C2144 H2126 0.951 . S
C2144 C2145 1.366 . S
C2144 C2146 1.388 . S
C2145 C2144 1.366 . S
C2145 C2149 1.385 . S
C2146 H2127 0.951 . S
C2146 C2144 1.388 . S
C2146 C2147 1.366 . S
C2147 C2146 1.366 . S
C2147 C2148 1.414 . S
C2147 C2150 1.499 . S
C2148 H2128 0.950 . S
C2148 C2147 1.414 . S
C2148 C2149 1.374 . S
C2149 H2129 0.950 . S
C2149 C2145 1.385 . S
C2149 C2148 1.374 . S
C2150 C2147 1.499 . S
C2150 C2151 1.373 . S
C2150 C2152 1.389 . S
C2151 H2130 0.950 . S
C2151 C2150 1.373 . S
C2151 C2167 1.377 . S
C2152 C2150 1.389 . S
C2152 C2153 1.524 . S
C2152 C2166 1.377 . S
C2153 C2152 1.524 . S
C2153 C2154 1.397 . S
C2153 C2158 1.363 . S
C2154 H2131 0.950 . S
C2154 C2153 1.397 . S
C2154 C2155 1.334 . S
C2155 H2132 0.950 . S
C2155 C2154 1.334 . S
C2155 C2156 1.287 . S
C2156 C2155 1.287 . S
C2156 C2157 1.524 . S
C2156 H2175 0.913 . S
C2157 H2133 0.950 . S
C2157 C2156 1.524 . S
C2157 C2158 1.415 . S
C2158 H2134 0.950 . S
C2158 C2153 1.363 . S
C2158 C2157 1.415 . S
C2159 H2135 0.951 . S
C2159 C2160 1.366 . S
C2159 C2161 1.388 . S
C2160 C2159 1.366 . S
C2160 C2164 1.385 . S
C2161 H2136 0.951 . S
C2161 C2159 1.388 . S
C2161 C2162 1.366 . S
C2162 C2161 1.366 . S
C2162 C2163 1.414 . S
C2162 C2165 1.499 . S
C2163 H2137 0.950 . S
C2163 C2162 1.414 . S
C2163 C2164 1.374 . S
C2164 H2138 0.950 . S
C2164 C2160 1.385 . S
C2164 C2163 1.374 . S
C2165 C2162 1.499 . S
C2165 C2166 1.373 . S
C2165 C2167 1.389 . S
C2166 H2139 0.950 . S
C2166 C2152 1.377 . S
C2166 C2165 1.373 . S
C2167 C2151 1.377 . S
C2167 C2165 1.389 . S
C2167 C2168 1.524 . S
C2168 C2167 1.524 . S
C2168 C2169 1.397 . S
C2168 C2173 1.363 . S
C2169 H2140 0.950 . S
C2169 C2168 1.397 . S
C2169 C2170 1.334 . S
C2170 H2141 0.950 . S
C2170 C2169 1.334 . S
C2170 C2171 1.287 . S
C2171 C2170 1.287 . S
C2171 C2172 1.524 . S
C2171 H2174 0.999 . S
C2172 H2142 0.950 . S
C2172 C2171 1.524 . S
C2172 C2173 1.415 . S
C2173 H2143 0.950 . S
C2173 C2168 1.363 . S
C2173 C2172 1.415 . S
H2174 C2171 0.999 . S
H2175 C2156 0.913 . S
C595 C544 0.828 . S
C610 C4 0.828 . S
C645 C436 0.828 . S
C660 C40 0.827 . S
C695 C76 0.828 . S
C710 C472 0.828 . S
C745 C508 0.828 . S
C760 C112 0.828 . S
C795 C328 0.828 . S
C810 C148 0.827 . S
C845 C184 0.828 . S
C860 C364 0.828 . S
C895 C220 0.827 . S
C910 C400 0.828 . S
C945 C256 0.828 . S
C960 C292 0.828 . S
C995 C183 1.378 . S
C1010 C14 1.322 . S
C1045 C230 1.322 . S
C1060 C39 1.378 . S
C1095 C255 1.378 . S
C1110 C86 1.322 . S
C1145 C111 1.378 . S
C1160 C158 1.323 . S
C1195 C2 1.528 . S
C1210 C38 1.528 . S
C1245 C75 1.378 . S
C1260 C50 1.323 . S
C1295 C74 1.528 . S
C1310 C110 1.528 . S
C1345 C3 1.378 . S
C1360 C122 1.322 . S
C1395 C254 1.528 . S
C1410 C146 1.528 . S
C1445 C147 1.378 . S
C1460 C194 1.322 . S
C1495 C182 1.528 . S
C1510 C218 1.528 . S
C1545 C266 1.323 . S
C1560 C219 1.378 . S
C1595 C471 1.378 . S
C1610 C302 1.322 . S
C1645 C327 1.378 . S
C1660 C518 1.322 . S
C1695 C543 1.378 . S
C1710 C374 1.322 . S
C1745 C446 1.323 . S
C1760 C399 1.378 . S
C1795 C290 1.528 . S
C1810 C326 1.528 . S
C1845 C338 1.323 . S
C1860 C363 1.378 . S
C1895 C398 1.528 . S
C1910 C362 1.528 . S
C1945 C291 1.378 . S
C1960 C410 1.323 . S
C1995 C542 1.528 . S
C2010 C434 1.528 . S
C2045 C435 1.378 . S
C2060 C482 1.323 . S
C2095 C470 1.528 . S
C2110 C506 1.528 . S
C2145 C554 1.323 . S
C2160 C507 1.378 . S
