# Generated by pormake.
# Topology upc, (4)-cn, num edge types: 1
# Building blocks:
#     Node 0, Type 0, BuildingBlock: QUQFOY_clean_sbu_1, # of connection points: 4
#     Node 1, Type 0, BuildingBlock: QUQFOY_clean_sbu_1, # of connection points: 4
#     Node 2, Type 0, BuildingBlock: QUQFOY_clean_sbu_1, # of connection points: 4
#     Node 3, Type 0, BuildingBlock: QUQFOY_clean_sbu_1, # of connection points: 4
#     Node 4, Type 0, BuildingBlock: QUQFOY_clean_sbu_1, # of connection points: 4
#     Node 5, Type 0, BuildingBlock: QUQFOY_clean_sbu_1, # of connection points: 4
#     Node 6, Type 0, BuildingBlock: QUQFOY_clean_sbu_1, # of connection points: 4
#     Node 7, Type 0, BuildingBlock: QUQFOY_clean_sbu_1, # of connection points: 4
#     Node 8, Type 0, BuildingBlock: QUQFOY_clean_sbu_1, # of connection points: 4
#     Node 9, Type 0, BuildingBlock: QUQFOY_clean_sbu_1, # of connection points: 4
#     Node 10, Type 0, BuildingBlock: QUQFOY_clean_sbu_1, # of connection points: 4
#     Node 11, Type 0, BuildingBlock: QUQFOY_clean_sbu_1, # of connection points: 4
#     Node 12, Type 0, BuildingBlock: QUQFOY_clean_sbu_1, # of connection points: 4
#     Node 13, Type 0, BuildingBlock: QUQFOY_clean_sbu_1, # of connection points: 4
#     Node 14, Type 0, BuildingBlock: QUQFOY_clean_sbu_1, # of connection points: 4
#     Node 15, Type 0, BuildingBlock: QUQFOY_clean_sbu_1, # of connection points: 4
#     Edge 16, Type (0, 0), BuildingBlock: TEMPAE_clean_linker_10, # of connection points: 2
#     Edge 17, Type (0, 0), BuildingBlock: TEMPAE_clean_linker_10, # of connection points: 2
#     Edge 18, Type (0, 0), BuildingBlock: TEMPAE_clean_linker_10, # of connection points: 2
#     Edge 19, Type (0, 0), BuildingBlock: TEMPAE_clean_linker_10, # of connection points: 2
#     Edge 20, Type (0, 0), BuildingBlock: TEMPAE_clean_linker_10, # of connection points: 2
#     Edge 21, Type (0, 0), BuildingBlock: TEMPAE_clean_linker_10, # of connection points: 2
#     Edge 22, Type (0, 0), BuildingBlock: TEMPAE_clean_linker_10, # of connection points: 2
#     Edge 23, Type (0, 0), BuildingBlock: TEMPAE_clean_linker_10, # of connection points: 2
#     Edge 24, Type (0, 0), BuildingBlock: TEMPAE_clean_linker_10, # of connection points: 2
#     Edge 25, Type (0, 0), BuildingBlock: TEMPAE_clean_linker_10, # of connection points: 2
#     Edge 26, Type (0, 0), BuildingBlock: TEMPAE_clean_linker_10, # of connection points: 2
#     Edge 27, Type (0, 0), BuildingBlock: TEMPAE_clean_linker_10, # of connection points: 2
#     Edge 28, Type (0, 0), BuildingBlock: TEMPAE_clean_linker_10, # of connection points: 2
#     Edge 29, Type (0, 0), BuildingBlock: TEMPAE_clean_linker_10, # of connection points: 2
#     Edge 30, Type (0, 0), BuildingBlock: TEMPAE_clean_linker_10, # of connection points: 2
#     Edge 31, Type (0, 0), BuildingBlock: TEMPAE_clean_linker_10, # of connection points: 2
#     Edge 32, Type (0, 0), BuildingBlock: TEMPAE_clean_linker_10, # of connection points: 2
#     Edge 33, Type (0, 0), BuildingBlock: TEMPAE_clean_linker_10, # of connection points: 2
#     Edge 34, Type (0, 0), BuildingBlock: TEMPAE_clean_linker_10, # of connection points: 2
#     Edge 35, Type (0, 0), BuildingBlock: TEMPAE_clean_linker_10, # of connection points: 2
#     Edge 36, Type (0, 0), BuildingBlock: TEMPAE_clean_linker_10, # of connection points: 2
#     Edge 37, Type (0, 0), BuildingBlock: TEMPAE_clean_linker_10, # of connection points: 2
#     Edge 38, Type (0, 0), BuildingBlock: TEMPAE_clean_linker_10, # of connection points: 2
#     Edge 39, Type (0, 0), BuildingBlock: TEMPAE_clean_linker_10, # of connection points: 2
#     Edge 40, Type (0, 0), BuildingBlock: TEMPAE_clean_linker_10, # of connection points: 2
#     Edge 41, Type (0, 0), BuildingBlock: TEMPAE_clean_linker_10, # of connection points: 2
#     Edge 42, Type (0, 0), BuildingBlock: TEMPAE_clean_linker_10, # of connection points: 2
#     Edge 43, Type (0, 0), BuildingBlock: TEMPAE_clean_linker_10, # of connection points: 2
#     Edge 44, Type (0, 0), BuildingBlock: TEMPAE_clean_linker_10, # of connection points: 2
#     Edge 45, Type (0, 0), BuildingBlock: TEMPAE_clean_linker_10, # of connection points: 2
#     Edge 46, Type (0, 0), BuildingBlock: TEMPAE_clean_linker_10, # of connection points: 2
#     Edge 47, Type (0, 0), BuildingBlock: TEMPAE_clean_linker_10, # of connection points: 2
# Relax obj value: 0.088
# Max RMSD: 0.197
# Mean RMSD: 0.197
data_MOF--net-upc--node1-QUQFOY_clean_sbu_1--edge1-TEMPAE_clean_linker_10
_symmetry_space_group_name_H-M    P1
_symmetry_Int_Tables_number       1
_symmetry_cell_setting            triclinic
loop_
_symmetry_equiv_pos_as_xyz
'x, y, z'
_cell_length_a     37.082686
_cell_length_b     37.060565
_cell_length_c     44.388469
_cell_angle_alpha  89.849026
_cell_angle_beta   89.813344
_cell_angle_gamma 90.087992
loop_
_atom_site_label
_atom_site_type_symbol
_atom_site_fract_x
_atom_site_fract_y
_atom_site_fract_z
_atom_type_partial_charge
O0 O 0.07033 0.53754 0.15978 0.0
Cd1 Cd 0.0565 0.55974 0.1174 0.0
Cd2 Cd 0.12898 0.60018 0.17185 0.0
O3 O 0.11185 0.55387 0.19395 0.0
O4 O 0.01961 0.53065 0.09568 0.0
O5 O 0.07686 0.53521 0.08108 0.0
C6 C 0.04494 0.52196 0.07699 0.0
C7 C 0.17494 0.64059 0.18363 0.0
C8 C 0.08662 0.53274 0.18495 0.0
C9 C 0.06783 0.62754 0.13388 0.0
O10 O 0.0959 0.60834 0.13661 0.0
O11 O 0.0433 0.61456 0.11746 0.0
O12 O 0.14333 0.6434 0.19573 0.0
O13 O 0.18094 0.61346 0.16593 0.0
O14 O 0.94618 0.09456 0.17521 0.0
Cd15 Cd 0.89727 0.08133 0.15693 0.0
Cd16 Cd 0.88815 0.15105 0.17685 0.0
O17 O 0.94309 0.15283 0.18464 0.0
O18 O 0.91175 0.03482 0.13808 0.0
O19 O 0.89516 0.08234 0.11138 0.0
C20 C 0.90881 0.05029 0.1122 0.0
C21 C 0.85543 0.19514 0.15135 0.0
C22 C 0.96102 0.12372 0.18358 0.0
C23 C 0.8454 0.09163 0.20757 0.0
O24 O 0.85763 0.12369 0.20823 0.0
O25 O 0.85527 0.07001 0.18683 0.0
O26 O 0.86919 0.20119 0.17752 0.0
O27 O 0.86251 0.16464 0.13855 0.0
O28 O 0.43217 0.97277 0.16799 0.0
Cd29 Cd 0.45341 0.93716 0.13713 0.0
Cd30 Cd 0.39095 0.8958 0.17252 0.0
O31 O 0.38604 0.94658 0.19126 0.0
O32 O 0.48884 0.96946 0.11607 0.0
O33 O 0.44393 0.94291 0.09235 0.0
C34 C 0.47127 0.96451 0.09148 0.0
C35 C 0.34337 0.85406 0.17857 0.0
C36 C 0.40659 0.97371 0.18715 0.0
C37 C 0.47191 0.8709 0.17176 0.0
O38 O 0.43887 0.86956 0.17915 0.0
O39 O 0.48425 0.89545 0.15455 0.0
O40 O 0.36207 0.86515 0.20102 0.0
O41 O 0.34991 0.8684 0.1526 0.0
O42 O 0.53746 0.45241 0.14721 0.0
Cd43 Cd 0.58057 0.47472 0.12515 0.0
Cd44 Cd 0.60937 0.40723 0.14758 0.0
O45 O 0.55681 0.39909 0.16228 0.0
O46 O 0.55638 0.51618 0.10494 0.0
O47 O 0.58242 0.47198 0.07974 0.0
C48 C 0.56338 0.50114 0.07948 0.0
C49 C 0.64565 0.35798 0.13388 0.0
C50 C 0.53188 0.42249 0.16043 0.0
C51 C 0.63981 0.47973 0.16994 0.0
O52 O 0.63861 0.44546 0.17065 0.0
O53 O 0.61951 0.49765 0.1524 0.0
O54 O 0.63382 0.36209 0.16092 0.0
O55 O 0.63529 0.38093 0.11378 0.0
O56 O 0.05757 0.93303 0.30103 0.0
Cd57 Cd 0.06048 0.88607 0.32536 0.0
Cd58 Cd 0.1251 0.88865 0.30342 0.0
O59 O 0.11593 0.9437 0.29912 0.0
O60 O 0.02305 0.88972 0.35783 0.0
O61 O 0.08187 0.89351 0.36618 0.0
C62 C 0.04921 0.89624 0.37619 0.0
C63 C 0.1729 0.85921 0.32662 0.0
C64 C 0.08364 0.95436 0.29539 0.0
C65 C 0.07526 0.83461 0.27698 0.0
O66 O 0.10152 0.85585 0.27183 0.0
O67 O 0.05651 0.83839 0.30087 0.0
O68 O 0.17744 0.87647 0.30156 0.0
O69 O 0.14202 0.86192 0.34 0.0
O70 O 0.54456 0.05952 0.36339 0.0
Cd71 Cd 0.58564 0.06513 0.39438 0.0
Cd72 Cd 0.58811 0.12468 0.36418 0.0
O73 O 0.53418 0.11713 0.35505 0.0
O74 O 0.57422 0.02957 0.42692 0.0
O75 O 0.57019 0.08875 0.43304 0.0
C76 C 0.56471 0.05656 0.44345 0.0
C77 C 0.61787 0.179 0.37311 0.0
C78 C 0.52479 0.08427 0.35234 0.0
C79 C 0.64257 0.06801 0.35092 0.0
O80 O 0.62121 0.09125 0.34002 0.0
O81 O 0.63781 0.05685 0.37777 0.0
O82 O 0.60431 0.17169 0.34714 0.0
O83 O 0.61134 0.15713 0.39518 0.0
O84 O 0.46373 0.57516 0.32301 0.0
Cd85 Cd 0.46403 0.61711 0.35293 0.0
Cd86 Cd 0.40014 0.62687 0.32804 0.0
O87 O 0.40492 0.57279 0.31646 0.0
O88 O 0.4977 0.60285 0.38567 0.0
O89 O 0.43844 0.60682 0.39185 0.0
C90 C 0.46962 0.59781 0.40246 0.0
C91 C 0.3466 0.65535 0.34204 0.0
C92 C 0.43606 0.55906 0.31285 0.0
C93 C 0.46081 0.67824 0.31223 0.0
O94 O 0.43148 0.6632 0.30448 0.0
O95 O 0.47821 0.66667 0.3349 0.0
O96 O 0.3509 0.642 0.3155 0.0
O97 O 0.37142 0.64927 0.36178 0.0
O98 O 0.89609 0.48781 0.34038 0.0
Cd99 Cd 0.86053 0.50364 0.37286 0.0
Cd100 Cd 0.8337 0.43203 0.35363 0.0
O101 O 0.88374 0.43028 0.33189 0.0
O102 O 0.88799 0.54403 0.39151 0.0
O103 O 0.87253 0.49465 0.41652 0.0
C104 C 0.88975 0.52499 0.41578 0.0
C105 C 0.80145 0.37862 0.3637 0.0
C106 C 0.90322 0.45815 0.32748 0.0
C107 C 0.79145 0.50423 0.34208 0.0
O108 O 0.79737 0.47062 0.33936 0.0
O109 O 0.81299 0.52436 0.35655 0.0
O110 O 0.80696 0.38996 0.33671 0.0
O111 O 0.81671 0.39591 0.38541 0.0
O112 O 0.95002 0.41092 0.82407 0.0
Cd113 Cd 0.96237 0.36368 0.84577 0.0
Cd114 Cd 0.89361 0.35128 0.82679 0.0
O115 O 0.89123 0.4064 0.81864 0.0
O116 O 0.00562 0.37905 0.86888 0.0
O117 O 0.95468 0.36193 0.89077 0.0
C118 C 0.98667 0.37551 0.89311 0.0
C119 C 0.84595 0.31763 0.84717 0.0
C120 C 0.92009 0.42481 0.81653 0.0
C121 C 0.95534 0.30949 0.79794 0.0
O122 O 0.92304 0.32085 0.79669 0.0
O123 O 0.97646 0.32069 0.81844 0.0
O124 O 0.8438 0.33245 0.82094 0.0
O125 O 0.87434 0.32424 0.86305 0.0
O126 O 0.09113 0.9432 0.86141 0.0
Cd127 Cd 0.11059 0.96453 0.90186 0.0
Cd128 Cd 0.16533 0.88957 0.86712 0.0
O129 O 0.12061 0.89682 0.83965 0.0
O130 O 0.07688 1.00123 0.91887 0.0
O131 O 0.08681 0.94781 0.94007 0.0
C132 C 0.07007 0.97841 0.94021 0.0
C133 C 0.21203 0.84937 0.85784 0.0
C134 C 0.09475 0.91968 0.84049 0.0
C135 C 0.18221 0.95921 0.89219 0.0
O136 O 0.17037 0.92809 0.89899 0.0
O137 O 0.16232 0.98531 0.89973 0.0
O138 O 0.21178 0.88122 0.846 0.0
O139 O 0.18492 0.83977 0.87449 0.0
O140 O 0.55071 0.04965 0.82301 0.0
Cd141 Cd 0.55533 0.09672 0.84662 0.0
Cd142 Cd 0.62134 0.09138 0.82551 0.0
O143 O 0.60845 0.03747 0.81746 0.0
O144 O 0.51699 0.09481 0.87839 0.0
O145 O 0.57541 0.09075 0.88819 0.0
C146 C 0.54242 0.08895 0.8976 0.0
C147 C 0.6724 0.11498 0.8487 0.0
C148 C 0.57553 0.02811 0.81493 0.0
C149 C 0.5735 0.14851 0.79881 0.0
O150 O 0.60098 0.12847 0.7955 0.0
O151 O 0.55183 0.14333 0.82072 0.0
O152 O 0.67443 0.09924 0.82283 0.0
O153 O 0.64194 0.11368 0.86291 0.0
O154 O 0.46229 0.54394 0.80951 0.0
Cd155 Cd 0.42096 0.56319 0.83585 0.0
Cd156 Cd 0.43183 0.61693 0.80031 0.0
O157 O 0.48309 0.59617 0.79328 0.0
O158 O 0.42158 0.5333 0.87328 0.0
O159 O 0.43725 0.591 0.87196 0.0
C160 C 0.43469 0.56112 0.88688 0.0
C161 C 0.41199 0.67304 0.81637 0.0
C162 C 0.48667 0.56214 0.79613 0.0
C163 C 0.36611 0.57417 0.78984 0.0
O164 O 0.39144 0.59166 0.7772 0.0
O165 O 0.36977 0.56347 0.81693 0.0
O166 O 0.42516 0.66881 0.78961 0.0
O167 O 0.41439 0.64639 0.83512 0.0
O168 O 0.97524 0.00624 0.64914 0.0
Cd169 Cd 0.97334 0.04718 0.61759 0.0
Cd170 Cd 0.91225 0.05689 0.65467 0.0
O171 O 0.9211 0.00508 0.66977 0.0
O172 O 0.01224 0.03004 0.58988 0.0
O173 O 0.95567 0.03637 0.57537 0.0
C174 C 0.98813 0.02597 0.56938 0.0
C175 C 0.85509 0.08382 0.65094 0.0
C176 C 0.95242 0.99159 0.66679 0.0
C177 C 0.97641 0.10848 0.65851 0.0
O178 O 0.94922 0.09327 0.67047 0.0
O179 O 0.98874 0.09783 0.63328 0.0
O180 O 0.86847 0.07447 0.67652 0.0
O181 O 0.87286 0.0751 0.62697 0.0
O182 O 0.43323 0.92261 0.67631 0.0
Cd183 Cd 0.38793 0.94526 0.65803 0.0
Cd184 Cd 0.36849 0.87209 0.67219 0.0
O185 O 0.42288 0.86414 0.68077 0.0
O186 O 0.40945 0.99174 0.64369 0.0
O187 O 0.38814 0.95053 0.61264 0.0
C188 C 0.40563 0.98035 0.6165 0.0
C189 C 0.32933 0.83013 0.65042 0.0
C190 C 0.44407 0.89104 0.68269 0.0
C191 C 0.3327 0.93465 0.70588 0.0
O192 O 0.34085 0.90148 0.70367 0.0
O193 O 0.34632 0.95791 0.68794 0.0
O194 O 0.34449 0.8241 0.67603 0.0
O195 O 0.33921 0.85856 0.6356 0.0
O196 O 0.57502 0.39275 0.63388 0.0
Cd197 Cd 0.54211 0.37425 0.59917 0.0
Cd198 Cd 0.62276 0.32343 0.63681 0.0
O199 O 0.62178 0.37214 0.66004 0.0
O200 O 0.50527 0.41142 0.58909 0.0
O201 O 0.54841 0.39374 0.55753 0.0
C202 C 0.52127 0.4146 0.56327 0.0
C203 C 0.66519 0.27798 0.64105 0.0
C204 C 0.59886 0.39701 0.65426 0.0
C205 C 0.5506 0.30562 0.61569 0.0
O206 O 0.58076 0.31889 0.60786 0.0
O207 O 0.52283 0.32273 0.60728 0.0
O208 O 0.63641 0.27781 0.65764 0.0
O209 O 0.67028 0.30478 0.62273 0.0
O210 O 0.02914 0.57533 0.66649 0.0
Cd211 Cd 0.07225 0.58536 0.63871 0.0
Cd212 Cd 0.07114 0.64282 0.67095 0.0
O213 O 0.01747 0.6312 0.68015 0.0
O214 O 0.06542 0.55242 0.60368 0.0
O215 O 0.05856 0.61177 0.60112 0.0
C216 C 0.05547 0.5805 0.58856 0.0
C217 C 0.10007 0.69235 0.6499 0.0
C218 C 0.00836 0.59809 0.67903 0.0
C219 C 0.12934 0.59152 0.68371 0.0
O220 O 0.10749 0.61376 0.69551 0.0
O221 O 0.12329 0.57936 0.65738 0.0
O222 O 0.08587 0.69413 0.67651 0.0
O223 O 0.09348 0.66402 0.63388 0.0
C224 C 0.19471 0.69909 0.20658 0.0
C225 C 0.20225 0.66949 0.18789 0.0
C226 C 0.21775 0.72923 0.20742 0.0
C227 C 0.24944 0.72953 0.18955 0.0
C228 C 0.25835 0.69879 0.17215 0.0
C229 C 0.23455 0.66925 0.17138 0.0
C230 C 0.20741 0.76137 0.22643 0.0
C231 C 0.29244 0.6976 0.15349 0.0
C232 C 0.28952 0.81833 0.16189 0.0
C233 C 0.31767 0.82373 0.18236 0.0
C234 C 0.2664 0.78837 0.16463 0.0
C235 C 0.27232 0.76262 0.18778 0.0
C236 C 0.30062 0.76809 0.20861 0.0
C237 C 0.32263 0.7988 0.20587 0.0
C238 C 0.23583 0.78406 0.14254 0.0
C239 C 0.30854 0.74086 0.23309 0.0
H240 H 0.17016 0.69927 0.21987 0.0
H241 H 0.24079 0.64641 0.15708 0.0
H242 H 0.2297 0.76861 0.24186 0.0
H243 H 0.2028 0.78512 0.21167 0.0
H244 H 0.18266 0.75636 0.23999 0.0
H245 H 0.29714 0.67057 0.14348 0.0
H246 H 0.29076 0.71769 0.13497 0.0
H247 H 0.31607 0.7049 0.16749 0.0
H248 H 0.28554 0.83759 0.14379 0.0
H249 H 0.34465 0.80261 0.22156 0.0
H250 H 0.20991 0.78086 0.15484 0.0
H251 H 0.23994 0.75931 0.12896 0.0
H252 H 0.23358 0.80746 0.12697 0.0
H253 H 0.28387 0.73492 0.2464 0.0
H254 H 0.32997 0.75026 0.24867 0.0
H255 H 0.31739 0.71513 0.22273 0.0
C256 C 0.82585 0.25552 0.15053 0.0
C257 C 0.82873 0.22065 0.13861 0.0
C258 C 0.79629 0.27761 0.1437 0.0
C259 C 0.76867 0.2644 0.12469 0.0
C260 C 0.77275 0.23028 0.11078 0.0
C261 C 0.80288 0.20882 0.11782 0.0
C262 C 0.79338 0.31405 0.15865 0.0
C263 C 0.74404 0.21524 0.09032 0.0
C264 C 0.67759 0.30131 0.14775 0.0
C265 C 0.67311 0.33001 0.12749 0.0
C266 C 0.70742 0.27824 0.14573 0.0
C267 C 0.73374 0.28422 0.12306 0.0
C268 C 0.72818 0.31168 0.1013 0.0
C269 C 0.69776 0.33422 0.10369 0.0
C270 C 0.71189 0.24892 0.16913 0.0
C271 C 0.75552 0.31887 0.07675 0.0
H272 H 0.84591 0.26498 0.16639 0.0
H273 H 0.80488 0.18187 0.10854 0.0
H274 H 0.78602 0.33505 0.14192 0.0
H275 H 0.77171 0.31325 0.17595 0.0
H276 H 0.81893 0.32215 0.16977 0.0
H277 H 0.75393 0.19168 0.07728 0.0
H278 H 0.72057 0.20646 0.10408 0.0
H279 H 0.73439 0.23616 0.07437 0.0
H280 H 0.65844 0.2977 0.16603 0.0
H281 H 0.69451 0.35644 0.08801 0.0
H282 H 0.7348 0.25573 0.1841 0.0
H283 H 0.71821 0.22281 0.15816 0.0
H284 H 0.68734 0.24542 0.18325 0.0
H285 H 0.77962 0.33202 0.08665 0.0
H286 H 0.74461 0.33684 0.05891 0.0
H287 H 0.76455 0.29328 0.06628 0.0
C288 C 0.23396 0.83101 0.3227 0.0
C289 C 0.20027 0.83287 0.33705 0.0
C290 C 0.25744 0.802 0.32796 0.0
C291 C 0.24687 0.77394 0.34789 0.0
C292 C 0.21379 0.77668 0.36373 0.0
C293 C 0.19097 0.80622 0.35825 0.0
C294 C 0.29264 0.80034 0.31081 0.0
C295 C 0.20141 0.7473 0.385 0.0
C296 C 0.28806 0.68353 0.32758 0.0
C297 C 0.31707 0.68138 0.34769 0.0
C298 C 0.26386 0.71259 0.3285 0.0
C299 C 0.269 0.74045 0.34987 0.0
C300 C 0.29704 0.73743 0.37132 0.0
C301 C 0.32062 0.70776 0.37011 0.0
C302 C 0.23383 0.71436 0.30564 0.0
C303 C 0.30362 0.76668 0.39426 0.0
H304 H 0.24142 0.85149 0.30633 0.0
H305 H 0.16491 0.80731 0.36934 0.0
H306 H 0.31528 0.79476 0.32642 0.0
H307 H 0.29164 0.77791 0.29434 0.0
H308 H 0.29845 0.82576 0.29839 0.0
H309 H 0.17737 0.75548 0.39831 0.0
H310 H 0.19444 0.72283 0.37189 0.0
H311 H 0.22332 0.73977 0.40076 0.0
H312 H 0.28509 0.66318 0.31026 0.0
H313 H 0.34317 0.70648 0.38555 0.0
H314 H 0.23721 0.73863 0.29126 0.0
H315 H 0.20745 0.71687 0.3173 0.0
H316 H 0.23308 0.69021 0.29087 0.0
H317 H 0.31377 0.79125 0.38265 0.0
H318 H 0.32369 0.75843 0.41147 0.0
H319 H 0.27813 0.77408 0.40582 0.0
C320 C 0.74266 0.34975 0.35287 0.0
C321 C 0.77491 0.34955 0.36922 0.0
C322 C 0.71661 0.32274 0.35697 0.0
C323 C 0.72351 0.29389 0.3771 0.0
C324 C 0.75601 0.29366 0.39392 0.0
C325 C 0.7811 0.32199 0.39021 0.0
C326 C 0.68196 0.32475 0.33923 0.0
C327 C 0.76495 0.26278 0.41479 0.0
C328 C 0.6435 0.2339 0.39849 0.0
C329 C 0.64504 0.20792 0.3757 0.0
C330 C 0.66928 0.26188 0.3997 0.0
C331 C 0.69789 0.2628 0.37837 0.0
C332 C 0.70033 0.23537 0.35631 0.0
C333 C 0.67351 0.20876 0.3549 0.0
C334 C 0.66506 0.29122 0.42294 0.0
C335 C 0.73091 0.23447 0.33374 0.0
H336 H 0.73762 0.37143 0.33698 0.0
H337 H 0.80608 0.32188 0.40283 0.0
H338 H 0.68125 0.30274 0.32236 0.0
H339 H 0.6584 0.32102 0.35441 0.0
H340 H 0.67903 0.3509 0.32719 0.0
H341 H 0.79026 0.26758 0.4275 0.0
H342 H 0.74266 0.25821 0.43108 0.0
H343 H 0.76802 0.23763 0.4015 0.0
H344 H 0.62151 0.23305 0.41463 0.0
H345 H 0.67502 0.18817 0.33761 0.0
H346 H 0.6597 0.3173 0.41145 0.0
H347 H 0.69035 0.29451 0.43591 0.0
H348 H 0.64261 0.28558 0.43891 0.0
H349 H 0.72831 0.25741 0.3178 0.0
H350 H 0.73126 0.20903 0.32054 0.0
H351 H 0.75719 0.23741 0.34537 0.0
C352 C 0.82649 0.265 0.87912 0.0
C353 C 0.81867 0.29053 0.85666 0.0
C354 C 0.80377 0.23504 0.88401 0.0
C355 C 0.77251 0.23069 0.86611 0.0
C356 C 0.76332 0.25772 0.84486 0.0
C357 C 0.78651 0.28719 0.84037 0.0
C358 C 0.81442 0.20699 0.90701 0.0
C359 C 0.73002 0.25447 0.82551 0.0
C360 C 0.73455 0.14013 0.8427 0.0
C361 C 0.70198 0.13904 0.85884 0.0
C362 C 0.75919 0.16852 0.84662 0.0
C363 C 0.75106 0.1966 0.86714 0.0
C364 C 0.71978 0.19397 0.88541 0.0
C365 C 0.69561 0.16515 0.88109 0.0
C366 C 0.79246 0.16994 0.82694 0.0
C367 C 0.71026 0.22309 0.90775 0.0
H368 H 0.85135 0.2673 0.89175 0.0
H369 H 0.78012 0.30692 0.82312 0.0
H370 H 0.79082 0.19873 0.92082 0.0
H371 H 0.82444 0.18259 0.89524 0.0
H372 H 0.836 0.2169 0.92221 0.0
H373 H 0.72509 0.27918 0.81192 0.0
H374 H 0.73305 0.23131 0.80991 0.0
H375 H 0.70594 0.24917 0.83975 0.0
H376 H 0.73987 0.11994 0.82564 0.0
H377 H 0.67055 0.16455 0.89372 0.0
H378 H 0.81661 0.17649 0.84055 0.0
H379 H 0.78934 0.19159 0.80982 0.0
H380 H 0.79724 0.14405 0.81502 0.0
H381 H 0.73435 0.23152 0.92072 0.0
H382 H 0.68895 0.21414 0.92377 0.0
H383 H 0.70026 0.24716 0.89544 0.0
C384 C 0.37922 0.71213 0.85346 0.0
C385 C 0.38924 0.70478 0.82361 0.0
C386 C 0.35243 0.7378 0.86005 0.0
C387 C 0.33457 0.75584 0.8362 0.0
C388 C 0.34558 0.74953 0.80609 0.0
C389 C 0.37307 0.72443 0.8002 0.0
C390 C 0.34228 0.74458 0.8925 0.0
C391 C 0.32689 0.76767 0.77994 0.0
C392 C 0.23836 0.78781 0.85042 0.0
C393 C 0.24315 0.82515 0.85298 0.0
C394 C 0.26788 0.76497 0.84477 0.0
C395 C 0.30311 0.77977 0.84255 0.0
C396 C 0.30807 0.81743 0.8459 0.0
C397 C 0.27797 0.83965 0.85074 0.0
C398 C 0.26129 0.72508 0.84064 0.0
C399 C 0.34513 0.83428 0.84439 0.0
H400 H 0.39157 0.69705 0.87165 0.0
H401 H 0.38031 0.71863 0.77704 0.0
H402 H 0.34187 0.77398 0.89715 0.0
H403 H 0.31474 0.73406 0.89692 0.0
H404 H 0.3612 0.73138 0.90844 0.0
H405 H 0.33992 0.76139 0.758 0.0
H406 H 0.29835 0.75865 0.77906 0.0
H407 H 0.32672 0.79736 0.78296 0.0
H408 H 0.21141 0.77659 0.85207 0.0
H409 H 0.2817 0.86843 0.85332 0.0
H410 H 0.2765 0.70951 0.85775 0.0
H411 H 0.27124 0.7165 0.81816 0.0
H412 H 0.23227 0.71792 0.84255 0.0
H413 H 0.3633 0.82094 0.86081 0.0
H414 H 0.34457 0.86368 0.8492 0.0
H415 H 0.35695 0.83023 0.82167 0.0
C416 C 0.67959 0.21296 0.65012 0.0
C417 C 0.69125 0.24782 0.64247 0.0
C418 C 0.70387 0.18388 0.65096 0.0
C419 C 0.74083 0.18993 0.6445 0.0
C420 C 0.75271 0.22517 0.63683 0.0
C421 C 0.72769 0.25358 0.63554 0.0
C422 C 0.68993 0.14667 0.65864 0.0
C423 C 0.79197 0.233 0.63042 0.0
C424 C 0.81168 0.12599 0.6756 0.0
C425 C 0.8228 0.10742 0.64965 0.0
C426 C 0.78452 0.1523 0.67435 0.0
C427 C 0.7674 0.15981 0.64658 0.0
C428 C 0.77724 0.13992 0.62059 0.0
C429 C 0.80514 0.11426 0.62234 0.0
C430 C 0.77539 0.17327 0.7025 0.0
C431 C 0.75903 0.1465 0.59072 0.0
H432 H 0.65128 0.20828 0.65482 0.0
H433 H 0.73678 0.28051 0.62963 0.0
H434 H 0.69688 0.12756 0.64032 0.0
H435 H 0.70303 0.13667 0.67947 0.0
H436 H 0.66024 0.14629 0.66208 0.0
H437 H 0.79686 0.26189 0.62504 0.0
H438 H 0.80854 0.22553 0.65025 0.0
H439 H 0.80146 0.21644 0.61119 0.0
H440 H 0.82534 0.12115 0.69678 0.0
H441 H 0.81352 0.1 0.60222 0.0
H442 H 0.74601 0.1719 0.70712 0.0
H443 H 0.78241 0.20213 0.69916 0.0
H444 H 0.79003 0.1631 0.7226 0.0
H445 H 0.7293 0.14535 0.59344 0.0
H446 H 0.76728 0.12652 0.57341 0.0
H447 H 0.76592 0.1739 0.58236 0.0
C448 C 0.13624 0.74836 0.65881 0.0
C449 C 0.12856 0.7184 0.64066 0.0
C450 C 0.16841 0.76798 0.65511 0.0
C451 C 0.19366 0.75731 0.63282 0.0
C452 C 0.18473 0.72895 0.61286 0.0
C453 C 0.15222 0.70992 0.61695 0.0
C454 C 0.17652 0.79846 0.67657 0.0
C455 C 0.21072 0.7168 0.58871 0.0
C456 C 0.27268 0.82164 0.62047 0.0
C457 C 0.29798 0.80796 0.64099 0.0
C458 C 0.23911 0.80454 0.61638 0.0
C459 C 0.23082 0.77293 0.63304 0.0
C460 C 0.2573 0.75767 0.65216 0.0
C461 C 0.29043 0.77543 0.65598 0.0
C462 C 0.21174 0.8216 0.59571 0.0
C463 C 0.24991 0.72366 0.66999 0.0
H464 H 0.11808 0.75527 0.67708 0.0
H465 H 0.14662 0.68681 0.60279 0.0
H466 H 0.19832 0.79013 0.69218 0.0
H467 H 0.18622 0.82254 0.66404 0.0
H468 H 0.15256 0.80618 0.69017 0.0
H469 H 0.19762 0.69866 0.57213 0.0
H470 H 0.22234 0.74031 0.57656 0.0
H471 H 0.23339 0.70201 0.59932 0.0
H472 H 0.27818 0.84686 0.60892 0.0
H473 H 0.30987 0.76458 0.67176 0.0
H474 H 0.18996 0.83398 0.60938 0.0
H475 H 0.19908 0.80096 0.58109 0.0
H476 H 0.22393 0.84289 0.58123 0.0
H477 H 0.22873 0.729 0.68713 0.0
H478 H 0.27433 0.71355 0.68172 0.0
H479 H 0.23967 0.70209 0.65498 0.0
C480 C 0.93879 0.48967 0.28848 0.0
C481 C 0.93309 0.45825 0.30543 0.0
C482 C 0.96827 0.49304 0.26907 0.0
C483 C 0.99329 0.46435 0.2667 0.0
C484 C 0.98735 0.43202 0.28318 0.0
C485 C 0.95699 0.42922 0.30233 0.0
C486 C 0.97285 0.52778 0.25146 0.0
C487 C 0.0136 0.40105 0.28158 0.0
C488 C 0.04496 0.48119 0.19547 0.0
C489 C 0.07123 0.50545 0.20591 0.0
C490 C 0.0219 0.46317 0.2156 0.0
C491 C 0.02534 0.4695 0.24686 0.0
C492 C 0.05518 0.48956 0.25761 0.0
C493 C 0.07779 0.5075 0.23696 0.0
C494 C 0.99099 0.44137 0.20312 0.0
C495 C 0.06055 0.49586 0.29085 0.0
H496 H 0.92006 0.51199 0.29056 0.0
H497 H 0.95273 0.40501 0.31563 0.0
H498 H 0.99825 0.54138 0.25817 0.0
H499 H 0.97468 0.52196 0.227 0.0
H500 H 0.95019 0.54686 0.25516 0.0
H501 H 1.0016 0.37563 0.2904 0.0
H502 H 0.02298 0.39653 0.25813 0.0
H503 H 0.03765 0.4076 0.29534 0.0
H504 H 0.04032 0.47855 0.17147 0.0
H505 H 0.09848 0.52555 0.24531 0.0
H506 H 0.96627 0.45822 0.20303 0.0
H507 H 0.98549 0.41729 0.2173 0.0
H508 H 0.99642 0.43247 0.17966 0.0
H509 H 0.04163 0.5171 0.2986 0.0
H510 H 0.08848 0.50488 0.29585 0.0
H511 H 0.0547 0.47097 0.30393 0.0
C512 C 0.00462 0.13334 0.22523 0.0
C513 C 0.99763 0.12084 0.19607 0.0
C514 C 0.03061 0.11602 0.24317 0.0
C515 C 0.04887 0.08547 0.2316 0.0
C516 C 0.04691 0.07793 0.20042 0.0
C517 C 0.02116 0.09583 0.18294 0.0
C518 C 0.03439 0.12675 0.27572 0.0
C519 C 0.06721 0.04675 0.18668 0.0
C520 C 0.10281 0.01538 0.27537 0.0
C521 C 0.07553 0.99046 0.28261 0.0
C522 C 0.09458 0.04805 0.2606 0.0
C523 C 0.05844 0.05535 0.25231 0.0
C524 C 0.03073 0.03096 0.26093 0.0
C525 C 0.03962 0.99922 0.27619 0.0
C526 C 0.12492 0.07368 0.25303 0.0
C527 C 0.99165 0.0372 0.25265 0.0
H528 H 0.98688 0.1532 0.2353 0.0
H529 H 0.01628 0.08686 0.16006 0.0
H530 H 0.01576 0.11026 0.28973 0.0
H531 H 0.06228 0.12194 0.28379 0.0
H532 H 0.02741 0.15562 0.27901 0.0
H533 H 0.06721 0.04803 0.16167 0.0
H534 H 0.09549 0.04641 0.19464 0.0
H535 H 0.05431 0.021 0.19372 0.0
H536 H 0.13063 0.00911 0.28062 0.0
H537 H 0.01823 0.98047 0.28201 0.0
H538 H 0.11528 0.10165 0.24921 0.0
H539 H 0.13879 0.06426 0.23232 0.0
H540 H 0.14521 0.07395 0.27139 0.0
H541 H 0.98209 0.06306 0.26226 0.0
H542 H 0.97361 0.01536 0.26098 0.0
H543 H 0.98884 0.03887 0.2278 0.0
C544 C 0.46934 0.09932 0.32209 0.0
C545 C 0.49445 0.07393 0.33252 0.0
C546 C 0.44389 0.08998 0.29993 0.0
C547 C 0.44469 0.05495 0.28721 0.0
C548 C 0.46877 0.0288 0.29891 0.0
C549 C 0.49277 0.03846 0.32172 0.0
C550 C 0.41757 0.11829 0.28944 0.0
C551 C 0.4712 0.99116 0.2859 0.0
C552 C 0.38533 0.00211 0.23537 0.0
C553 C 0.40615 0.00402 0.20893 0.0
C554 C 0.39403 0.02349 0.26045 0.0
C555 C 0.42475 0.04615 0.25914 0.0
C556 C 0.44207 0.05223 0.23113 0.0
C557 C 0.43217 0.03141 0.20621 0.0
C558 C 0.37291 0.01883 0.28928 0.0
C559 C 0.47429 0.07699 0.22839 0.0
H560 H 0.47007 0.12667 0.33066 0.0
H561 H 0.51186 0.01854 0.32974 0.0
H562 H 0.43119 0.13654 0.27314 0.0
H563 H 0.39353 0.10633 0.27845 0.0
H564 H 0.40851 0.13508 0.30872 0.0
H565 H 0.49174 0.9743 0.29741 0.0
H566 H 0.44479 0.9773 0.28782 0.0
H567 H 0.47827 0.99266 0.2616 0.0
H568 H 0.3643 0.9819 0.23746 0.0
H569 H 0.44752 0.03412 0.1855 0.0
H570 H 0.37145 0.04464 0.30187 0.0
H571 H 0.3865 0.99868 0.30385 0.0
H572 H 0.34512 0.00905 0.28476 0.0
H573 H 0.46826 0.10356 0.2386 0.0
H574 H 0.48255 0.08131 0.20457 0.0
H575 H 0.49743 0.06517 0.24077 0.0
C576 C 0.47081 0.44398 0.17395 0.0
C577 C 0.49911 0.41977 0.17939 0.0
C578 C 0.44947 0.45663 0.19775 0.0
C579 C 0.45639 0.44403 0.22727 0.0
C580 C 0.47872 0.41347 0.23131 0.0
C581 C 0.50049 0.40184 0.20723 0.0
C582 C 0.42419 0.48774 0.19204 0.0
C583 C 0.48375 0.39684 0.26201 0.0
C584 C 0.47487 0.52121 0.2803 0.0
C585 C 0.44123 0.52667 0.29392 0.0
C586 C 0.48022 0.49358 0.25946 0.0
C587 C 0.45145 0.46967 0.25269 0.0
C588 C 0.41799 0.47347 0.2679 0.0
C589 C 0.41302 0.50247 0.28795 0.0
C590 C 0.51638 0.49139 0.24359 0.0
C591 C 0.38693 0.44796 0.26269 0.0
H592 H 0.46859 0.45675 0.15202 0.0
H593 H 0.52143 0.38209 0.21141 0.0
H594 H 0.39838 0.48353 0.20421 0.0
H595 H 0.43651 0.51305 0.20055 0.0
H596 H 0.41838 0.49125 0.16767 0.0
H597 H 0.49251 0.36827 0.26019 0.0
H598 H 0.50488 0.41192 0.2744 0.0
H599 H 0.45839 0.39816 0.27533 0.0
H600 H 0.49682 0.53978 0.28479 0.0
H601 H 0.38704 0.50628 0.29873 0.0
H602 H 0.5127 0.49323 0.21883 0.0
H603 H 0.52945 0.46519 0.2486 0.0
H604 H 0.53512 0.51324 0.25053 0.0
H605 H 0.36655 0.46141 0.24828 0.0
H606 H 0.37349 0.44138 0.28443 0.0
H607 H 0.3954 0.42244 0.25175 0.0
C608 C 0.96288 0.60184 0.72106 0.0
C609 C 0.97668 0.584 0.69569 0.0
C610 C 0.94131 0.58312 0.74211 0.0
C611 C 0.93457 0.54583 0.73789 0.0
C612 C 0.94401 0.52952 0.71017 0.0
C613 C 0.96464 0.54898 0.68929 0.0
C614 C 0.92892 0.60226 0.7702 0.0
C615 C 0.93658 0.4901 0.70415 0.0
C616 C 0.95348 0.47953 0.79995 0.0
C617 C 0.92056 0.46102 0.80218 0.0
C618 C 0.95752 0.50932 0.78089 0.0
C619 C 0.9275 0.52187 0.76422 0.0
C620 C 0.89311 0.50615 0.76922 0.0
C621 C 0.89009 0.47544 0.78786 0.0
C622 C 0.99489 0.52496 0.77645 0.0
C623 C 0.85986 0.51996 0.75354 0.0
H624 H 0.97128 0.62926 0.7258 0.0
H625 H 0.97416 0.5355 0.66912 0.0
H626 H 0.90299 0.59095 0.77853 0.0
H627 H 0.94934 0.59884 0.78818 0.0
H628 H 0.92562 0.63164 0.76602 0.0
H629 H 0.9432 0.48237 0.68061 0.0
H630 H 0.95295 0.4732 0.71961 0.0
H631 H 0.90781 0.48379 0.70843 0.0
H632 H 0.97702 0.46926 0.81156 0.0
H633 H 0.8643 0.46185 0.78996 0.0
H634 H 0.99464 0.55444 0.78051 0.0
H635 H 0.0039 0.52058 0.75287 0.0
H636 H 0.01509 0.5126 0.79174 0.0
H637 H 0.86297 0.54838 0.74599 0.0
H638 H 0.83608 0.51802 0.76874 0.0
H639 H 0.85419 0.50292 0.7336 0.0
C640 C 0.05777 0.95534 0.80492 0.0
C641 C 0.06934 0.92149 0.81503 0.0
C642 C 0.03513 0.9586 0.77993 0.0
C643 C 0.02271 0.9271 0.76517 0.0
C644 C 0.03314 0.89267 0.776 0.0
C645 C 0.05707 0.89028 0.8005 0.0
C646 C 0.02551 0.99595 0.76877 0.0
C647 C 0.01953 0.85848 0.76155 0.0
C648 C 0.94646 0.95561 0.71456 0.0
C649 C 0.96569 0.9638 0.68814 0.0
C650 C 0.96375 0.93902 0.73911 0.0
C651 C 1.00108 0.9312 0.7372 0.0
C652 C 0.01922 0.9352 0.70931 0.0
C653 C 1.00113 0.95099 0.68499 0.0
C654 C 0.94303 0.93349 0.76805 0.0
C655 C 0.05901 0.92733 0.70614 0.0
H656 H 0.06752 0.97951 0.81598 0.0
H657 H 0.06584 0.86406 0.80849 0.0
H658 H 0.03469 0.9994 0.74511 0.0
H659 H 0.99583 0.99958 0.76911 0.0
H660 H 0.03788 0.01759 0.7826 0.0
H661 H 0.02382 0.83456 0.77625 0.0
H662 H 0.99037 0.86066 0.75631 0.0
H663 H 0.03405 0.8539 0.74003 0.0
H664 H 0.91887 0.96476 0.71707 0.0
H665 H 0.01599 0.95636 0.66438 0.0
H666 H 0.9486 0.95626 0.78354 0.0
H667 H 0.95151 0.90823 0.77947 0.0
H668 H 0.91349 0.93243 0.76401 0.0
H669 H 0.07463 0.94879 0.71767 0.0
H670 H 0.06767 0.92649 0.68217 0.0
H671 H 0.06598 0.90129 0.71694 0.0
C672 C 0.59058 0.96896 0.78947 0.0
C673 C 0.56502 0.99407 0.79969 0.0
C674 C 0.58012 0.93952 0.77139 0.0
C675 C 0.54354 0.93596 0.76263 0.0
C676 C 0.51749 0.96011 0.77446 0.0
C677 C 0.5285 0.98827 0.79315 0.0
C678 C 0.60871 0.91352 0.76088 0.0
C679 C 0.47809 0.95804 0.76574 0.0
C680 C 0.50634 0.91328 0.68775 0.0
C681 C 0.47999 0.88826 0.69668 0.0
C682 C 0.53245 0.92527 0.70811 0.0
C683 C 0.53223 0.9114 0.73785 0.0
C684 C 0.51088 0.88066 0.74457 0.0
C685 C 0.48432 0.86963 0.72393 0.0
C686 C 0.55595 0.9569 0.69931 0.0
C687 C 0.51258 0.86282 0.77507 0.0
H688 H 0.61882 0.97277 0.79482 0.0
H689 H 0.50836 0.00708 0.80128 0.0
H690 H 0.5972 0.88789 0.7523 0.0
H691 H 0.62493 0.92635 0.74273 0.0
H692 H 0.62747 0.90725 0.77964 0.0
H693 H 0.46165 0.97956 0.77641 0.0
H694 H 0.47527 0.96056 0.74094 0.0
H695 H 0.46659 0.93162 0.77254 0.0
H696 H 0.50361 0.92693 0.66622 0.0
H697 H 0.4645 0.84963 0.73071 0.0
H698 H 0.58412 0.95228 0.7066 0.0
H699 H 0.54604 0.98164 0.71068 0.0
H700 H 0.55584 0.96174 0.67459 0.0
H701 H 0.54037 0.86393 0.78427 0.0
H702 H 0.50364 0.83424 0.77384 0.0
H703 H 0.49443 0.87713 0.79095 0.0
C704 C 0.56695 0.45329 0.66911 0.0
C705 C 0.59552 0.42915 0.67399 0.0
C706 C 0.55776 0.47934 0.6905 0.0
C707 C 0.57834 0.4823 0.71717 0.0
C708 C 0.60968 0.46087 0.72071 0.0
C709 C 0.61764 0.43406 0.69926 0.0
C710 C 0.52388 0.50126 0.68573 0.0
C711 C 0.63349 0.46449 0.74801 0.0
C712 C 0.54223 0.56032 0.76318 0.0
C713 C 0.51636 0.54241 0.7809 0.0
C714 C 0.56592 0.54076 0.7445 0.0
C715 C 0.56277 0.5027 0.74295 0.0
C716 C 0.5389 0.4845 0.76277 0.0
C717 C 0.51643 0.50454 0.78174 0.0
C718 C 0.59252 0.56101 0.72501 0.0
C719 C 0.53446 0.44395 0.76196 0.0
H720 H 0.55004 0.45036 0.64939 0.0
H721 H 0.6402 0.41605 0.70301 0.0
H722 H 0.50336 0.49355 0.70285 0.0
H723 H 0.52957 0.53041 0.68856 0.0
H724 H 0.51208 0.49712 0.66302 0.0
H725 H 0.66153 0.45588 0.74289 0.0
H726 H 0.63398 0.49267 0.75642 0.0
H727 H 0.62304 0.44691 0.76632 0.0
H728 H 0.54296 0.58956 0.76284 0.0
H729 H 0.49713 0.49031 0.79581 0.0
H730 H 0.58085 0.5652 0.7023 0.0
H731 H 0.61793 0.54553 0.72231 0.0
H732 H 0.5989 0.58792 0.73462 0.0
H733 H 0.52297 0.43581 0.73993 0.0
H734 H 0.51637 0.43384 0.78012 0.0
H735 H 0.56097 0.4305 0.76427 0.0
C736 C 0.04487 0.68958 0.14475 0.0
C737 C 0.05958 0.65706 0.15504 0.0
C738 C 0.04038 0.71894 0.16445 0.0
C739 C 0.05178 0.71573 0.1948 0.0
C740 C 0.06416 0.68198 0.20562 0.0
C741 C 0.0668 0.65279 0.18573 0.0
C742 C 0.02515 0.75378 0.15232 0.0
C743 C 0.0772 0.67731 0.2376 0.0
C744 C 0.09336 0.79699 0.23292 0.0
C745 C 0.06771 0.80525 0.25519 0.0
C746 C 0.08778 0.76875 0.21253 0.0
C747 C 0.0556 0.74828 0.21417 0.0
C748 C 0.02887 0.75734 0.23573 0.0
C749 C 0.03541 0.78549 0.25626 0.0
C750 C 0.11669 0.76048 0.1895 0.0
C751 C 0.99348 0.73723 0.23715 0.0
H752 H 0.03804 0.69248 0.12113 0.0
H753 H 0.07563 0.62679 0.19406 0.0
H754 H 0.00843 0.76765 0.16951 0.0
H755 H 0.04758 0.77213 0.14595 0.0
H756 H 0.00851 0.74906 0.13193 0.0
H757 H 0.08408 0.64882 0.24288 0.0
H758 H 0.1016 0.69416 0.2411 0.0
H759 H 0.05644 0.68656 0.25382 0.0
H760 H 0.11833 0.81217 0.23172 0.0
H761 H 0.01522 0.79207 0.27308 0.0
H762 H 0.106 0.76481 0.16649 0.0
H763 H 0.12478 0.73176 0.19112 0.0
H764 H 0.14093 0.77772 0.19219 0.0
H765 H 0.98128 0.73576 0.21438 0.0
H766 H 0.97395 0.7502 0.25275 0.0
H767 H 0.99809 0.70914 0.24485 0.0
C768 C 0.80336 0.10668 0.24969 0.0
C769 C 0.81887 0.08042 0.23098 0.0
C770 C 0.77702 0.09763 0.2711 0.0
C771 C 0.76601 0.06122 0.27431 0.0
C772 C 0.78261 0.03424 0.25647 0.0
C773 C 0.80865 0.0442 0.23477 0.0
C774 C 0.75979 0.12745 0.28933 0.0
C775 C 0.77207 0.99507 0.25962 0.0
C776 C 0.70743 0.0497 0.34409 0.0
C777 C 0.67331 0.05655 0.3319 0.0
C778 C 0.73805 0.04774 0.32524 0.0
C779 C 0.73417 0.05283 0.29371 0.0
C780 C 0.69927 0.05622 0.28127 0.0
C781 C 0.66937 0.05797 0.3005 0.0
C782 C 0.77474 0.04323 0.33929 0.0
C783 C 0.69365 0.06163 0.24786 0.0
H784 H 0.81105 0.13475 0.24708 0.0
H785 H 0.82077 0.02366 0.22068 0.0
H786 H 0.73081 0.12967 0.28345 0.0
H787 H 0.76137 0.12117 0.31373 0.0
H788 H 0.77277 0.15407 0.2853 0.0
H789 H 0.79137 0.97694 0.24792 0.0
H790 H 0.77057 0.98723 0.28374 0.0
H791 H 0.74492 0.99084 0.24983 0.0
H792 H 0.71059 0.04847 0.36834 0.0
H793 H 0.64289 0.06266 0.29094 0.0
H794 H 0.78835 0.06988 0.3404 0.0
H795 H 0.79192 0.02518 0.32546 0.0
H796 H 0.77282 0.03213 0.36251 0.0
H797 H 0.7034 0.08888 0.24127 0.0
H798 H 0.6648 0.05933 0.24146 0.0
H799 H 0.70934 0.04163 0.23475 0.0
C800 C 0.5106 0.7139 0.28768 0.0
C801 C 0.47387 0.70913 0.29417 0.0
C802 C 0.52203 0.74064 0.26711 0.0
C803 C 0.49608 0.76329 0.25331 0.0
C804 C 0.45913 0.75951 0.26107 0.0
C805 C 0.44854 0.73229 0.28111 0.0
C806 C 0.5615 0.74332 0.25906 0.0
C807 C 0.43042 0.78349 0.24751 0.0
C808 C 0.5065 0.85387 0.21647 0.0
C809 C 0.49563 0.84528 0.18718 0.0
C810 C 0.51177 0.82663 0.23803 0.0
C811 C 0.50626 0.79017 0.22977 0.0
C812 C 0.50099 0.78137 0.19904 0.0
C813 C 0.49516 0.80918 0.17809 0.0
C814 C 0.5177 0.83731 0.27042 0.0
C815 C 0.49629 0.74279 0.18906 0.0
H816 H 0.53016 0.6957 0.29756 0.0
H817 H 0.42015 0.72877 0.28631 0.0
H818 H 0.566 0.7306 0.23677 0.0
H819 H 0.57026 0.77187 0.25726 0.0
H820 H 0.57872 0.72931 0.27585 0.0
H821 H 0.40338 0.77863 0.2576 0.0
H822 H 0.43751 0.81232 0.25072 0.0
H823 H 0.4286 0.77858 0.22291 0.0
H824 H 0.50633 0.88187 0.22355 0.0
H825 H 0.48633 0.80259 0.15549 0.0
H826 H 0.53582 0.81799 0.28199 0.0
H827 H 0.49143 0.83705 0.28247 0.0
H828 H 0.52934 0.86487 0.27215 0.0
H829 H 0.51538 0.72476 0.201 0.0
H830 H 0.50044 0.73993 0.16438 0.0
H831 H 0.4685 0.73367 0.19456 0.0
C832 C 0.69588 0.48187 0.2 0.0
C833 C 0.66326 0.49807 0.19191 0.0
C834 C 0.71514 0.49359 0.22522 0.0
C835 C 0.70104 0.52186 0.24319 0.0
C836 C 0.66944 0.54014 0.23385 0.0
C837 C 0.65093 0.5281 0.2081 0.0
C838 C 0.74913 0.4737 0.23389 0.0
C839 C 0.65354 0.57038 0.25223 0.0
C840 C 0.7295 0.50045 0.32216 0.0
C841 C 0.76208 0.51943 0.32381 0.0
C842 C 0.70652 0.50472 0.29744 0.0
C843 C 0.71693 0.52794 0.27353 0.0
C844 C 0.74752 0.5505 0.27695 0.0
C845 C 0.7698 0.54608 0.30228 0.0
C846 C 0.6736 0.48087 0.29521 0.0
C847 C 0.75921 0.57602 0.25226 0.0
H848 H 0.70554 0.45882 0.18734 0.0
H849 H 0.62551 0.5405 0.20197 0.0
H850 H 0.77113 0.49306 0.23889 0.0
H851 H 0.7441 0.45757 0.25459 0.0
H852 H 0.75846 0.45514 0.21587 0.0
H853 H 0.63531 0.58752 0.23849 0.0
H854 H 0.63757 0.55876 0.27109 0.0
H855 H 0.67492 0.58761 0.2621 0.0
H856 H 0.72355 0.4799 0.33891 0.0
H857 H 0.79516 0.56061 0.30346 0.0
H858 H 0.67933 0.45821 0.27962 0.0
H859 H 0.65038 0.49613 0.28602 0.0
H860 H 0.66583 0.46937 0.31745 0.0
H861 H 0.7738 0.56064 0.23462 0.0
H862 H 0.77761 0.59726 0.26094 0.0
H863 H 0.73562 0.58908 0.24151 0.0
C864 C 0.99483 0.17318 0.66241 0.0
C865 C 0.9925 0.13871 0.67521 0.0
C866 C 0.9979 0.20383 0.68094 0.0
C867 C 0.99843 0.1995 0.71272 0.0
C868 C 1.00052 0.16441 0.72523 0.0
C869 C 0.99742 0.13447 0.70628 0.0
C870 C 0.99648 0.24077 0.66667 0.0
C871 C 1.00122 0.15829 0.75888 0.0
C872 C 0.00402 0.27655 0.76935 0.0
C873 C 0.96735 0.28246 0.7755 0.0
C874 C 0.01483 0.2508 0.74784 0.0
C875 C 0.98834 0.23006 0.73276 0.0
C876 C 0.95133 0.23629 0.73875 0.0
C877 C 0.94137 0.26252 0.75979 0.0
C878 C 0.05446 0.24542 0.74154 0.0
C879 C 0.92206 0.21444 0.72364 0.0
H880 H 0.99087 0.17644 0.63836 0.0
H881 H 0.99578 0.10766 0.7161 0.0
H882 H 0.96848 0.25119 0.66793 0.0
H883 H 0.01414 0.26002 0.67881 0.0
H884 H 0.00469 0.23995 0.64259 0.0
H885 H 0.00914 0.13022 0.76467 0.0
H886 H 0.02014 0.17719 0.76998 0.0
H887 H 0.97392 0.16331 0.7683 0.0
H888 H 0.02421 0.29218 0.78118 0.0
H889 H 0.91298 0.26681 0.76444 0.0
H890 H 0.05969 0.24656 0.71693 0.0
H891 H 0.06291 0.21834 0.74947 0.0
H892 H 0.07142 0.26604 0.75285 0.0
H893 H 0.9245 0.21675 0.6988 0.0
H894 H 0.89456 0.22325 0.73034 0.0
H895 H 0.92506 0.1855 0.72959 0.0
C896 C 0.30815 0.97917 0.74366 0.0
C897 C 0.30729 0.945 0.7302 0.0
C898 C 0.28712 0.9865 0.76948 0.0
C899 C 0.26471 0.95908 0.78181 0.0
C900 C 0.26234 0.92533 0.76709 0.0
C901 C 0.28373 0.91871 0.74172 0.0
C902 C 0.2899 0.02305 0.78417 0.0
C903 C 0.239 0.89506 0.77899 0.0
C904 C 0.24101 0.95327 0.8651 0.0
C905 C 0.20473 0.96354 0.86495 0.0
C906 C 0.26155 0.95381 0.83838 0.0
C907 C 0.24517 0.96444 0.81092 0.0
C908 C 0.20883 0.97615 0.81102 0.0
C909 C 0.18908 0.97568 0.83808 0.0
C910 C 0.30046 0.94195 0.83933 0.0
C911 C 0.19018 0.98719 0.78227 0.0
H912 H 0.32632 0.99959 0.73485 0.0
H913 H 0.28259 0.89232 0.73125 0.0
H914 H 0.26263 0.03411 0.78869 0.0
H915 H 0.30375 0.02036 0.80617 0.0
H916 H 0.30517 0.04262 0.77004 0.0
H917 H 0.2336 0.87437 0.76149 0.0
H918 H 0.25335 0.88167 0.7978 0.0
H919 H 0.2128 0.90519 0.78755 0.0
H920 H 0.25301 0.94396 0.88595 0.0
H921 H 0.16087 0.98337 0.838 0.0
H922 H 0.31816 0.96454 0.83209 0.0
H923 H 0.30499 0.91941 0.82335 0.0
H924 H 0.3088 0.93313 0.86221 0.0
H925 H 0.20696 0.00684 0.76954 0.0
H926 H 0.16329 0.99934 0.7866 0.0
H927 H 0.18651 0.96316 0.76773 0.0
C928 C 0.59562 0.19587 0.7636 0.0
C929 C 0.56657 0.17655 0.77588 0.0
C930 C 0.59084 0.21911 0.73896 0.0
C931 C 0.55639 0.22203 0.72549 0.0
C932 C 0.52668 0.20336 0.73839 0.0
C933 C 0.53205 0.18118 0.76378 0.0
C934 C 0.62312 0.23922 0.72662 0.0
C935 C 0.48966 0.20536 0.72448 0.0
C936 C 0.54067 0.29966 0.6708 0.0
C937 C 0.54864 0.28339 0.64314 0.0
C938 C 0.54256 0.27993 0.69781 0.0
C939 C 0.55209 0.24294 0.69697 0.0
C940 C 0.55937 0.22628 0.66886 0.0
C941 C 0.55795 0.24688 0.64225 0.0
C942 C 0.53582 0.29901 0.7273 0.0
C943 C 0.56924 0.18684 0.66695 0.0
H944 H 0.62234 0.19232 0.77303 0.0
H945 H 0.50967 0.16588 0.77308 0.0
H946 H 0.63226 0.22606 0.70556 0.0
H947 H 0.61605 0.26755 0.72111 0.0
H948 H 0.64601 0.23929 0.74271 0.0
H949 H 0.46901 0.191 0.73819 0.0
H950 H 0.48126 0.23389 0.72174 0.0
H951 H 0.49039 0.19317 0.70168 0.0
H952 H 0.53423 0.32819 0.67136 0.0
H953 H 0.56452 0.23461 0.62078 0.0
H954 H 0.56078 0.29867 0.74103 0.0
H955 H 0.51465 0.28472 0.74042 0.0
H956 H 0.52738 0.32749 0.72401 0.0
H957 H 0.59421 0.18162 0.67992 0.0
H958 H 0.57356 0.17787 0.64335 0.0
H959 H 0.54752 0.17018 0.6772 0.0
C960 C 0.30389 0.54767 0.78508 0.0
C961 C 0.33188 0.56896 0.77328 0.0
C962 C 0.27045 0.54543 0.77031 0.0
C963 C 0.26487 0.56543 0.74349 0.0
C964 C 0.29347 0.58585 0.73094 0.0
C965 C 0.32663 0.58712 0.74584 0.0
C966 C 0.24068 0.52293 0.78406 0.0
C967 C 0.28851 0.60808 0.70265 0.0
C968 C 0.1849 0.55367 0.69101 0.0
C969 C 0.16264 0.58213 0.70028 0.0
C970 C 0.21751 0.54645 0.70596 0.0
C971 C 0.22826 0.5687 0.73026 0.0
C972 C 0.20539 0.59681 0.74015 0.0
C973 C 0.17281 0.60297 0.72522 0.0
C974 C 0.241 0.51586 0.69516 0.0
C975 C 0.21611 0.62161 0.7656 0.0
H976 H 0.30783 0.53332 0.80612 0.0
H977 H 0.34807 0.60362 0.73645 0.0
H978 H 0.21957 0.54091 0.79344 0.0
H979 H 0.22773 0.50591 0.76663 0.0
H980 H 0.25069 0.50523 0.80245 0.0
H981 H 0.31416 0.62038 0.69466 0.0
H982 H 0.27733 0.5912 0.68432 0.0
H983 H 0.26891 0.63007 0.70704 0.0
H984 H 0.17706 0.53729 0.67192 0.0
H985 H 0.15585 0.62509 0.73254 0.0
H986 H 0.24974 0.49898 0.71448 0.0
H987 H 0.26569 0.52693 0.68436 0.0
H988 H 0.22691 0.49844 0.6786 0.0
H989 H 0.22314 0.60569 0.78593 0.0
H990 H 0.19436 0.64089 0.77163 0.0
H991 H 0.24042 0.63729 0.759 0.0
C992 C 0.00472 0.49996 0.03608 0.0
C993 C 0.03745 0.4975 0.05156 0.0
C994 C 0.99758 0.47776 0.0112 0.0
C995 C 0.02321 0.45143 0.00241 0.0
C996 C 0.05577 0.44796 0.01878 0.0
C997 C 0.06285 0.47159 0.04278 0.0
C998 C 0.96314 0.4833 0.99373 0.0
C999 C 0.08316 0.41939 0.01087 0.0
C1000 C 0.98659 0.37926 0.94963 0.0
C1001 C 0.99936 0.39154 0.92168 0.0
C1002 C 0.99575 0.39736 0.9764 0.0
C1003 C 0.01683 0.42928 0.97493 0.0
C1004 C 0.03018 0.44137 0.94674 0.0
C1005 C 0.02184 0.42198 0.92059 0.0
C1006 C 0.98219 0.38281 0.00614 0.0
C1007 C 0.0517 0.47589 0.94394 0.0
H1008 H 0.98515 0.52011 0.04284 0.0
H1009 H 0.08799 0.46941 0.05505 0.0
H1010 H 0.96963 0.49026 0.96998 0.0
H1011 H 0.94714 0.45802 0.99344 0.0
H1012 H 0.94618 0.50512 0.00337 0.0
H1013 H 0.10538 0.41796 0.02755 0.0
H1014 H 0.0699 0.39257 0.00958 0.0
H1015 H 0.09498 0.42513 0.98838 0.0
H1016 H 0.96924 0.35571 0.95053 0.0
H1017 H 0.03138 0.43189 0.89898 0.0
H1018 H 0.96142 0.40119 0.01548 0.0
H1019 H 0.00454 0.38151 0.02268 0.0
H1020 H 0.97014 0.3555 0.00385 0.0
H1021 H 0.03516 0.49897 0.95183 0.0
H1022 H 0.06044 0.48134 0.9204 0.0
H1023 H 0.07596 0.47468 0.95842 0.0
C1024 C 0.04319 0.0217 0.97677 0.0
C1025 C 0.04365 0.98719 0.96403 0.0
C1026 C 0.01883 0.03032 -4e-05 0.0
C1027 C 0.99325 0.00427 0.00969 0.0
C1028 C 0.99277 0.96977 0.996 0.0
C1029 C 0.01855 0.96136 0.97379 0.0
C1030 C 0.02128 0.06692 0.0147 0.0
C1031 C 0.96507 0.94176 0.00483 0.0
C1032 C 0.95784 0.01359 0.08963 0.0
C1033 C 0.92667 0.03441 0.08547 0.0
C1034 C 0.97936 0.00316 0.06514 0.0
C1035 C 0.96876 0.01249 0.03553 0.0
C1036 C 0.9361 0.03163 0.03102 0.0
C1037 C 0.91584 0.04312 0.05613 0.0
C1038 C 0.01456 0.98399 0.07116 0.0
C1039 C 0.92309 0.0408 -0.00024 0.0
H1040 H 0.0627 0.04161 0.96923 0.0
H1041 H 0.01862 0.93481 0.96358 0.0
H1042 H 0.99534 0.08146 0.01238 0.0
H1043 H 0.02649 0.06363 0.03917 0.0
H1044 H 0.04304 0.08389 0.00481 0.0
H1045 H 0.96607 0.91765 0.99003 0.0
H1046 H 0.96961 0.93293 0.0284 0.0
H1047 H 0.93759 0.95352 0.0038 0.0
H1048 H 0.96669 0.00727 0.11229 0.0
H1049 H 0.89179 0.05924 0.05283 0.0
H1050 H 0.03736 1.00085 0.06299 0.0
H1051 H 0.01561 0.95814 0.0587 0.0
H1052 H 0.01864 0.97828 0.0955 0.0
H1053 H 0.94079 0.06176 0.98966 0.0
H1054 H 0.89497 0.0511 -0.0001 0.0
H1055 H 0.92446 0.01669 0.98502 0.0
C1056 C 0.47303 0.97048 0.03514 0.0
C1057 C 0.48172 0.98411 0.06363 0.0
C1058 C 0.48349 0.98888 0.00874 0.0
C1059 C 0.5021 0.02224 0.01091 0.0
C1060 C 0.51023 0.03644 0.03968 0.0
C1061 C 0.50041 0.01697 0.06564 0.0
C1062 C 0.47506 0.97238 0.9785 0.0
C1063 C 0.5291 0.07234 0.04305 0.0
C1064 C 0.55811 0.0536 0.9437 0.0
C1065 C 0.53375 0.07596 0.92841 0.0
C1066 C 0.54826 0.03616 0.97065 0.0
C1067 C 0.51353 0.04199 0.9831 0.0
C1068 C 0.48947 0.06598 0.96852 0.0
C1069 C 0.49966 0.08225 0.94111 0.0
C1070 C 0.57447 0.01027 0.98511 0.0
C1071 C 0.45264 0.07382 0.98151 0.0
H1072 H 0.45871 0.94505 0.0335 0.0
H1073 H 0.50684 0.02785 0.08763 0.0
H1074 H 0.45766 0.99083 0.96529 0.0
H1075 H 0.50036 0.96856 0.96547 0.0
H1076 H 0.46119 0.9459 0.98066 0.0
H1077 H 0.53215 0.08032 0.06701 0.0
H1078 H 0.55626 0.07115 0.03256 0.0
H1079 H 0.51375 0.09367 0.0311 0.0
H1080 H 0.58432 0.04824 0.9338 0.0
H1081 H 0.48073 0.09951 0.92939 0.0
H1082 H 0.56262 0.98275 0.98559 0.0
H1083 H 0.57963 0.01819 0.00878 0.0
H1084 H 0.60065 0.00919 0.97291 0.0
H1085 H 0.43589 0.04901 0.98109 0.0
H1086 H 0.43837 0.09534 0.96881 0.0
H1087 H 0.45505 0.08224 0.00539 0.0
C1088 C 0.44145 0.52776 0.93552 0.0
C1089 C 0.45024 0.55753 0.9174 0.0
C1090 C 0.45973 0.5212 0.96263 0.0
C1091 C 0.48801 0.54458 0.9715 0.0
C1092 C 0.49628 0.5753 0.95374 0.0
C1093 C 0.47704 0.58161 0.92704 0.0
C1094 C 0.44947 0.48865 0.98134 0.0
C1095 C 0.52652 0.6006 0.96223 0.0
C1096 C 0.51822 0.53967 0.05307 0.0
C1097 C 0.54697 0.51513 0.05141 0.0
C1098 C 0.49921 0.55005 0.02719 0.0
C1099 C 0.5096 0.53607 -0.00116 0.0
C1100 C 0.53961 0.51254 0.99683 0.0
C1101 C 0.55773 0.50205 0.0232 0.0
C1102 C 0.46706 0.57474 0.03037 0.0
C1103 C 0.55196 0.49765 0.9669 0.0
H1104 H 0.42071 0.50912 0.92821 0.0
H1105 H 0.48422 0.60449 0.91297 0.0
H1106 H 0.47218 0.4692 0.98172 0.0
H1107 H 0.44411 0.49678 0.00497 0.0
H1108 H 0.42522 0.47467 0.97246 0.0
H1109 H 0.52835 0.62425 0.94687 0.0
H1110 H 0.52277 0.61044 0.98561 0.0
H1111 H 0.55256 0.5859 0.96153 0.0
H1112 H 0.50955 0.54975 0.07482 0.0
H1113 H 0.57997 0.48318 0.02176 0.0
H1114 H 0.44219 0.56009 0.0238 0.0
H1115 H 0.4698 0.59826 0.01503 0.0
H1116 H 0.46365 0.58477 0.05377 0.0
H1117 H 0.53079 0.47976 0.95753 0.0
H1118 H 0.57736 0.48198 0.96887 0.0
H1119 H 0.55623 0.51995 0.95054 0.0
C1120 C 0.06462 0.93823 0.4179 0.0
C1121 C 0.04185 0.9114 0.40639 0.0
C1122 C 0.05561 0.95706 0.44428 0.0
C1123 C 0.02371 0.94792 0.46021 0.0
C1124 C 1.00137 0.91976 0.44934 0.0
C1125 C 0.01032 0.90236 0.42219 0.0
C1126 C 0.0796 0.98761 0.45451 0.0
C1127 C 0.96791 0.90819 0.46627 0.0
C1128 C 0.02064 0.97723 0.54222 0.0
C1129 C 0.99705 0.00674 0.54118 0.0
C1130 C 0.02864 0.95723 0.51624 0.0
C1131 C 0.01386 0.96788 0.48823 0.0
C1132 C 0.9904 0.99807 0.48699 0.0
C1133 C 0.98163 0.01669 0.51365 0.0
C1134 C 0.05263 0.92447 0.51883 0.0
C1135 C 0.97507 0.01108 0.45744 0.0
H1136 H 0.08868 0.94578 0.40543 0.0
H1137 H 0.99262 0.88171 0.41326 0.0
H1138 H 0.0638 0.01299 0.45565 0.0
H1139 H 0.08991 0.9821 0.47748 0.0
H1140 H 0.10298 0.99191 0.43919 0.0
H1141 H 0.95495 0.88414 0.45603 0.0
H1142 H 0.97471 0.90188 0.49003 0.0
H1143 H 0.94807 0.93054 0.46657 0.0
H1144 H 0.03214 0.96914 0.56363 0.0
H1145 H 0.96341 0.03952 0.51286 0.0
H1146 H 0.0777 0.92866 0.5056 0.0
H1147 H 0.03878 0.90052 0.50932 0.0
H1148 H 0.06012 0.91851 0.54254 0.0
H1149 H 0.99733 0.0172 0.44144 0.0
H1150 H 0.95823 0.03563 0.46015 0.0
H1151 H 0.95836 0.98959 0.44713 0.0
C1152 C 0.51777 0.07517 0.48091 0.0
C1153 C 0.54408 0.05035 0.47167 0.0
C1154 C 0.4938 0.06697 0.50462 0.0
C1155 C 0.49683 0.03355 0.51997 0.0
C1156 C 0.52452 0.00917 0.51163 0.0
C1157 C 0.54742 0.01762 0.48731 0.0
C1158 C 0.46424 0.09338 0.51234 0.0
C1159 C 0.52945 0.97373 0.52795 0.0
C1160 C 0.45476 0.02078 0.5976 0.0
C1161 C 0.42532 0.99815 0.59131 0.0
C1162 C 0.47775 0.0332 0.57458 0.0
C1163 C 0.47071 0.02354 0.54433 0.0
C1164 C 0.43986 0.00238 0.53764 0.0
C1165 C 0.41781 0.98953 0.56124 0.0
C1166 C 0.51069 0.055 0.58285 0.0
C1167 C 0.43082 0.99228 0.50562 0.0
H1168 H 0.51468 0.10026 0.46859 0.0
H1169 H 0.56768 0.99834 0.48023 0.0
H1170 H 0.43759 0.08085 0.50787 0.0
H1171 H 0.46503 0.10014 0.53665 0.0
H1172 H 0.46635 0.11876 0.49908 0.0
H1173 H 0.55382 0.95901 0.52018 0.0
H1174 H 0.53168 0.9784 0.55256 0.0
H1175 H 0.50554 0.95627 0.52431 0.0
H1176 H 0.46105 0.0273 0.62079 0.0
H1177 H 0.39513 0.97209 0.55618 0.0
H1178 H 0.5119 0.08022 0.56938 0.0
H1179 H 0.53535 0.03929 0.57753 0.0
H1180 H 0.51115 0.06214 0.60714 0.0
H1181 H 0.43099 0.01663 0.49102 0.0
H1182 H 0.40404 0.97898 0.50388 0.0
H1183 H 0.45158 0.97357 0.49672 0.0
C1184 C 0.49272 0.47408 0.5514 0.0
C1185 C 0.50988 0.44256 0.5414 0.0
C1186 C 0.48409 0.50203 0.5312 0.0
C1187 C 0.49194 0.49793 0.50016 0.0
C1188 C 0.50826 0.46565 0.48986 0.0
C1189 C 0.5175 0.4386 0.51066 0.0
C1190 C 0.46757 0.53635 0.54319 0.0
C1191 C 0.51629 0.4598 0.45685 0.0
C1192 C 0.4449 0.55464 0.44054 0.0
C1193 C 0.47292 0.5775 0.43107 0.0
C1194 C 0.45024 0.52937 0.46377 0.0
C1195 C 0.48411 0.52762 0.47838 0.0
C1196 C 0.51158 0.55249 0.47035 0.0
C1197 C 0.50584 0.57676 0.44648 0.0
C1198 C 0.42048 0.50293 0.4712 0.0
C1199 C 0.54768 0.55231 0.48597 0.0
H1200 H 0.48711 0.47742 0.57521 0.0
H1201 H 0.5306 0.41421 0.50283 0.0
H1202 H 0.4859 0.55942 0.53854 0.0
H1203 H 0.44178 0.54205 0.53155 0.0
H1204 H 0.4624 0.53498 0.56783 0.0
H1205 H 0.52691 0.43233 0.45229 0.0
H1206 H 0.49148 0.46387 0.44335 0.0
H1207 H 0.53646 0.47986 0.44896 0.0
H1208 H 0.41954 0.55481 0.42845 0.0
H1209 H 0.52754 0.59445 0.43927 0.0
H1210 H 0.4156 0.50193 0.49584 0.0
H1211 H 0.42872 0.47546 0.46407 0.0
H1212 H 0.39479 0.50985 0.45975 0.0
H1213 H 0.54397 0.55193 0.51078 0.0
H1214 H 0.56437 0.57613 0.47975 0.0
H1215 H 0.56272 0.52756 0.47975 0.0
C1216 C 0.90816 0.52338 0.47007 0.0
C1217 C 0.91365 0.53618 0.44069 0.0
C1218 C 0.93219 0.53244 0.49331 0.0
C1219 C 0.96301 0.5538 0.48674 0.0
C1220 C 0.96869 0.56664 0.45706 0.0
C1221 C 0.94367 0.55812 0.43452 0.0
C1222 C 0.92468 0.51902 0.52486 0.0
C1223 C 0.0017 0.58857 0.44894 0.0
C1224 C 0.00948 0.60143 0.55169 0.0
C1225 C 0.03599 0.57628 0.55977 0.0
C1226 C 0.9858 0.59467 0.52774 0.0
C1227 C 0.9894 0.56247 0.51091 0.0
C1228 C 0.0175 0.53798 0.51788 0.0
C1229 C 0.04011 0.54491 0.54254 0.0
C1230 C 0.95577 0.6211 0.52146 0.0
C1231 C 0.023 0.50393 0.49985 0.0
H1232 H 0.885 0.50642 0.47489 0.0
H1233 H 0.94833 0.56764 0.41172 0.0
H1234 H 0.94654 0.50061 0.53217 0.0
H1235 H 0.92423 0.54205 0.54079 0.0
H1236 H 0.89858 0.50439 0.52654 0.0
H1237 H 0.00225 0.59633 0.42475 0.0
H1238 H 0.00274 0.61347 0.46271 0.0
H1239 H 0.02639 0.57284 0.45404 0.0
H1240 H 0.00584 0.62548 0.56521 0.0
H1241 H 0.06056 0.5254 0.54874 0.0
H1242 H 0.92935 0.60779 0.52546 0.0
H1243 H 0.95643 0.62973 0.49753 0.0
H1244 H 0.95743 0.64547 0.53592 0.0
H1245 H 0.9998 0.48546 0.50339 0.0
H1246 H 0.04808 0.48954 0.5063 0.0
H1247 H 0.02424 0.51033 0.47543 0.0
loop_
_geom_bond_atom_site_label_1
_geom_bond_atom_site_label_2
_geom_bond_distance
_geom_bond_site_symmetry_2
_ccdc_geom_bond_type
O0 Cd1 2.223 . S
O0 C8 1.329 . S
Cd1 O0 2.223 . S
Cd1 O4 2.297 . S
Cd1 O5 2.439 1_655 S
Cd1 O11 2.240 1_655 S
Cd2 O3 2.240 . S
Cd2 O10 2.223 . S
Cd2 O12 2.297 . S
Cd2 O13 2.439 . S
O3 Cd2 2.240 . S
O3 C8 1.263 1_455 S
O4 Cd1 2.297 . S
O4 C6 1.226 1_655 S
O5 Cd1 2.439 1_455 S
O5 C6 1.228 . S
C6 O4 1.226 1_455 S
C6 O5 1.228 . S
C7 O12 1.247 . S
C7 O13 1.208 . S
C8 O0 1.329 . S
C8 O3 1.263 1_655 S
C9 O10 1.315 . S
C9 O11 1.279 . S
O10 Cd2 2.223 . S
O10 C9 1.315 . S
O11 Cd1 2.240 1_455 S
O11 C9 1.279 . S
O12 Cd2 2.297 . S
O12 C7 1.247 . S
O13 Cd2 2.439 . S
O13 C7 1.208 . S
O14 Cd15 2.223 . S
O14 C22 1.329 . S
Cd15 O14 2.223 . S
Cd15 O18 2.297 . S
Cd15 O19 2.439 1_565 S
Cd15 O25 2.240 1_565 S
Cd16 O17 2.240 . S
Cd16 O24 2.223 . S
Cd16 O26 2.297 . S
Cd16 O27 2.439 . S
O17 Cd16 2.240 . S
O17 C22 1.263 1_545 S
O18 Cd15 2.297 . S
O18 C20 1.226 1_565 S
O19 Cd15 2.439 1_545 S
O19 C20 1.229 . S
C20 O18 1.226 1_545 S
C20 O19 1.229 . S
C21 O26 1.247 . S
C21 O27 1.208 . S
C22 O14 1.329 . S
C22 O17 1.263 1_565 S
C23 O24 1.315 . S
C23 O25 1.279 . S
O24 Cd16 2.223 . S
O24 C23 1.315 . S
O25 Cd15 2.240 1_545 S
O25 C23 1.279 . S
O26 Cd16 2.297 . S
O26 C21 1.247 . S
O27 Cd16 2.439 . S
O27 C21 1.208 . S
O28 Cd29 2.223 . S
O28 C36 1.315 . S
Cd29 O28 2.223 . S
Cd29 O32 2.297 . S
Cd29 O33 2.439 . S
Cd29 O39 2.240 . S
Cd30 O31 2.240 . S
Cd30 O38 2.223 . S
Cd30 O40 2.297 . S
Cd30 O41 2.439 . S
O31 Cd30 2.240 . S
O31 C36 1.279 . S
O32 Cd29 2.297 . S
O32 C34 1.247 . S
O33 Cd29 2.439 . S
O33 C34 1.208 . S
C34 O32 1.247 . S
C34 O33 1.208 . S
C35 O40 1.247 . S
C35 O41 1.208 . S
C36 O28 1.315 . S
C36 O31 1.279 . S
C37 O38 1.315 . S
C37 O39 1.279 . S
O38 Cd30 2.223 . S
O38 C37 1.315 . S
O39 Cd29 2.240 . S
O39 C37 1.279 . S
O40 Cd30 2.297 . S
O40 C35 1.247 . S
O41 Cd30 2.439 . S
O41 C35 1.208 . S
O42 Cd43 2.223 . S
O42 C50 1.315 . S
Cd43 O42 2.223 . S
Cd43 O46 2.297 . S
Cd43 O47 2.439 . S
Cd43 O53 2.240 . S
Cd44 O45 2.240 . S
Cd44 O52 2.223 . S
Cd44 O54 2.297 . S
Cd44 O55 2.439 . S
O45 Cd44 2.240 . S
O45 C50 1.279 . S
O46 Cd43 2.297 . S
O46 C48 1.247 . S
O47 Cd43 2.439 . S
O47 C48 1.208 . S
C48 O46 1.247 . S
C48 O47 1.208 . S
C49 O54 1.247 . S
C49 O55 1.208 . S
C50 O42 1.315 . S
C50 O45 1.279 . S
C51 O52 1.315 . S
C51 O53 1.279 . S
O52 Cd44 2.223 . S
O52 C51 1.315 . S
O53 Cd43 2.240 . S
O53 C51 1.279 . S
O54 Cd44 2.297 . S
O54 C49 1.247 . S
O55 Cd44 2.439 . S
O55 C49 1.208 . S
O56 Cd57 2.223 . S
O56 C64 1.329 . S
Cd57 O56 2.223 . S
Cd57 O60 2.297 . S
Cd57 O61 2.439 1_655 S
Cd57 O67 2.240 1_655 S
Cd58 O59 2.240 . S
Cd58 O66 2.223 . S
Cd58 O68 2.297 . S
Cd58 O69 2.439 . S
O59 Cd58 2.240 . S
O59 C64 1.263 1_455 S
O60 Cd57 2.297 . S
O60 C62 1.226 1_655 S
O61 Cd57 2.439 1_455 S
O61 C62 1.229 . S
C62 O60 1.226 1_455 S
C62 O61 1.229 . S
C63 O68 1.247 . S
C63 O69 1.208 . S
C64 O56 1.329 . S
C64 O59 1.263 1_655 S
C65 O66 1.315 . S
C65 O67 1.279 . S
O66 Cd58 2.223 . S
O66 C65 1.315 . S
O67 Cd57 2.240 1_455 S
O67 C65 1.279 . S
O68 Cd58 2.297 . S
O68 C63 1.247 . S
O69 Cd58 2.439 . S
O69 C63 1.208 . S
O70 Cd71 2.223 . S
O70 C78 1.329 . S
Cd71 O70 2.223 . S
Cd71 O74 2.297 . S
Cd71 O75 2.439 1_565 S
Cd71 O81 2.240 1_565 S
Cd72 O73 2.240 . S
Cd72 O80 2.223 . S
Cd72 O82 2.297 . S
Cd72 O83 2.439 . S
O73 Cd72 2.240 . S
O73 C78 1.263 1_545 S
O74 Cd71 2.297 . S
O74 C76 1.226 1_565 S
O75 Cd71 2.439 1_545 S
O75 C76 1.228 . S
C76 O74 1.226 1_545 S
C76 O75 1.228 . S
C77 O82 1.247 . S
C77 O83 1.208 . S
C78 O70 1.329 . S
C78 O73 1.263 1_565 S
C79 O80 1.315 . S
C79 O81 1.279 . S
O80 Cd72 2.223 . S
O80 C79 1.315 . S
O81 Cd71 2.240 1_545 S
O81 C79 1.279 . S
O82 Cd72 2.297 . S
O82 C77 1.247 . S
O83 Cd72 2.439 . S
O83 C77 1.208 . S
O84 Cd85 2.223 . S
O84 C92 1.315 . S
Cd85 O84 2.223 . S
Cd85 O88 2.297 . S
Cd85 O89 2.439 . S
Cd85 O95 2.240 . S
Cd86 O87 2.240 . S
Cd86 O94 2.223 . S
Cd86 O96 2.297 . S
Cd86 O97 2.439 . S
O87 Cd86 2.240 . S
O87 C92 1.279 . S
O88 Cd85 2.297 . S
O88 C90 1.247 . S
O89 Cd85 2.439 . S
O89 C90 1.208 . S
C90 O88 1.247 . S
C90 O89 1.208 . S
C91 O96 1.247 . S
C91 O97 1.208 . S
C92 O84 1.315 . S
C92 O87 1.279 . S
C93 O94 1.315 . S
C93 O95 1.279 . S
O94 Cd86 2.223 . S
O94 C93 1.315 . S
O95 Cd85 2.240 . S
O95 C93 1.279 . S
O96 Cd86 2.297 . S
O96 C91 1.247 . S
O97 Cd86 2.439 . S
O97 C91 1.208 . S
O98 Cd99 2.223 . S
O98 C106 1.315 . S
Cd99 O98 2.223 . S
Cd99 O102 2.297 . S
Cd99 O103 2.439 . S
Cd99 O109 2.240 . S
Cd100 O101 2.240 . S
Cd100 O108 2.223 . S
Cd100 O110 2.297 . S
Cd100 O111 2.439 . S
O101 Cd100 2.240 . S
O101 C106 1.279 . S
O102 Cd99 2.297 . S
O102 C104 1.247 . S
O103 Cd99 2.439 . S
O103 C104 1.208 . S
C104 O102 1.247 . S
C104 O103 1.208 . S
C105 O110 1.247 . S
C105 O111 1.208 . S
C106 O98 1.315 . S
C106 O101 1.279 . S
C107 O108 1.315 . S
C107 O109 1.279 . S
O108 Cd100 2.223 . S
O108 C107 1.315 . S
O109 Cd99 2.240 . S
O109 C107 1.279 . S
O110 Cd100 2.297 . S
O110 C105 1.247 . S
O111 Cd100 2.439 . S
O111 C105 1.208 . S
O112 Cd113 2.223 . S
O112 C120 1.329 . S
Cd113 O112 2.223 . S
Cd113 O116 2.297 . S
Cd113 O117 2.439 1_455 S
Cd113 O123 2.240 1_455 S
Cd114 O115 2.240 . S
Cd114 O122 2.223 . S
Cd114 O124 2.297 . S
Cd114 O125 2.439 . S
O115 Cd114 2.240 . S
O115 C120 1.263 1_655 S
O116 Cd113 2.297 . S
O116 C118 1.226 1_455 S
O117 Cd113 2.439 1_655 S
O117 C118 1.228 . S
C118 O116 1.226 1_655 S
C118 O117 1.228 . S
C119 O124 1.247 . S
C119 O125 1.208 . S
C120 O112 1.329 . S
C120 O115 1.263 1_455 S
C121 O122 1.315 . S
C121 O123 1.279 . S
O122 Cd114 2.223 . S
O122 C121 1.315 . S
O123 Cd113 2.240 1_655 S
O123 C121 1.279 . S
O124 Cd114 2.297 . S
O124 C119 1.247 . S
O125 Cd114 2.439 . S
O125 C119 1.208 . S
O126 Cd127 2.223 . S
O126 C134 1.329 . S
Cd127 O126 2.223 . S
Cd127 O130 2.297 . S
Cd127 O131 2.439 1_545 S
Cd127 O137 2.240 1_545 S
Cd128 O129 2.240 . S
Cd128 O136 2.223 . S
Cd128 O138 2.297 . S
Cd128 O139 2.439 . S
O129 Cd128 2.240 . S
O129 C134 1.263 1_565 S
O130 Cd127 2.297 . S
O130 C132 1.226 1_545 S
O131 Cd127 2.439 1_565 S
O131 C132 1.229 . S
C132 O130 1.226 1_565 S
C132 O131 1.229 . S
C133 O138 1.247 . S
C133 O139 1.208 . S
C134 O126 1.329 . S
C134 O129 1.263 1_545 S
C135 O136 1.315 . S
C135 O137 1.279 . S
O136 Cd128 2.223 . S
O136 C135 1.315 . S
O137 Cd127 2.240 1_565 S
O137 C135 1.279 . S
O138 Cd128 2.297 . S
O138 C133 1.247 . S
O139 Cd128 2.439 . S
O139 C133 1.208 . S
O140 Cd141 2.223 . S
O140 C148 1.315 . S
Cd141 O140 2.223 . S
Cd141 O144 2.297 . S
Cd141 O145 2.439 . S
Cd141 O151 2.240 . S
Cd142 O143 2.240 . S
Cd142 O150 2.223 . S
Cd142 O152 2.297 . S
Cd142 O153 2.439 . S
O143 Cd142 2.240 . S
O143 C148 1.279 . S
O144 Cd141 2.297 . S
O144 C146 1.247 . S
O145 Cd141 2.439 . S
O145 C146 1.208 . S
C146 O144 1.247 . S
C146 O145 1.208 . S
C147 O152 1.247 . S
C147 O153 1.208 . S
C148 O140 1.315 . S
C148 O143 1.279 . S
C149 O150 1.315 . S
C149 O151 1.279 . S
O150 Cd142 2.223 . S
O150 C149 1.315 . S
O151 Cd141 2.240 . S
O151 C149 1.279 . S
O152 Cd142 2.297 . S
O152 C147 1.247 . S
O153 Cd142 2.439 . S
O153 C147 1.208 . S
O154 Cd155 2.223 . S
O154 C162 1.315 . S
Cd155 O154 2.223 . S
Cd155 O158 2.297 . S
Cd155 O159 2.439 . S
Cd155 O165 2.240 . S
Cd156 O157 2.240 . S
Cd156 O164 2.223 . S
Cd156 O166 2.297 . S
Cd156 O167 2.439 . S
O157 Cd156 2.240 . S
O157 C162 1.279 . S
O158 Cd155 2.297 . S
O158 C160 1.247 . S
O159 Cd155 2.439 . S
O159 C160 1.208 . S
C160 O158 1.247 . S
C160 O159 1.208 . S
C161 O166 1.247 . S
C161 O167 1.208 . S
C162 O154 1.315 . S
C162 O157 1.279 . S
C163 O164 1.315 . S
C163 O165 1.279 . S
O164 Cd156 2.223 . S
O164 C163 1.315 . S
O165 Cd155 2.240 . S
O165 C163 1.279 . S
O166 Cd156 2.297 . S
O166 C161 1.247 . S
O167 Cd156 2.439 . S
O167 C161 1.208 . S
O168 Cd169 2.223 . S
O168 C176 1.329 . S
Cd169 O168 2.223 . S
Cd169 O172 2.297 . S
Cd169 O173 2.439 1_455 S
Cd169 O179 2.240 1_455 S
Cd170 O171 2.240 . S
Cd170 O178 2.223 . S
Cd170 O180 2.297 . S
Cd170 O181 2.439 . S
O171 Cd170 2.240 . S
O171 C176 1.263 1_655 S
O172 Cd169 2.297 . S
O172 C174 1.226 1_455 S
O173 Cd169 2.439 1_655 S
O173 C174 1.229 . S
C174 O172 1.226 1_655 S
C174 O173 1.229 . S
C175 O180 1.247 . S
C175 O181 1.208 . S
C176 O168 1.329 . S
C176 O171 1.263 1_455 S
C177 O178 1.315 . S
C177 O179 1.279 . S
O178 Cd170 2.223 . S
O178 C177 1.315 . S
O179 Cd169 2.240 1_655 S
O179 C177 1.279 . S
O180 Cd170 2.297 . S
O180 C175 1.247 . S
O181 Cd170 2.439 . S
O181 C175 1.208 . S
O182 Cd183 2.223 . S
O182 C190 1.329 . S
Cd183 O182 2.223 . S
Cd183 O186 2.297 . S
Cd183 O187 2.439 1_545 S
Cd183 O193 2.240 1_545 S
Cd184 O185 2.240 . S
Cd184 O192 2.223 . S
Cd184 O194 2.297 . S
Cd184 O195 2.439 . S
O185 Cd184 2.240 . S
O185 C190 1.263 1_565 S
O186 Cd183 2.297 . S
O186 C188 1.226 1_545 S
O187 Cd183 2.439 1_565 S
O187 C188 1.228 . S
C188 O186 1.226 1_565 S
C188 O187 1.228 . S
C189 O194 1.247 . S
C189 O195 1.208 . S
C190 O182 1.329 . S
C190 O185 1.263 1_545 S
C191 O192 1.315 . S
C191 O193 1.279 . S
O192 Cd184 2.223 . S
O192 C191 1.315 . S
O193 Cd183 2.240 1_565 S
O193 C191 1.279 . S
O194 Cd184 2.297 . S
O194 C189 1.247 . S
O195 Cd184 2.439 . S
O195 C189 1.208 . S
O196 Cd197 2.223 . S
O196 C204 1.315 . S
Cd197 O196 2.223 . S
Cd197 O200 2.297 . S
Cd197 O201 2.439 . S
Cd197 O207 2.240 . S
Cd198 O199 2.240 . S
Cd198 O206 2.223 . S
Cd198 O208 2.297 . S
Cd198 O209 2.439 . S
O199 Cd198 2.240 . S
O199 C204 1.279 . S
O200 Cd197 2.297 . S
O200 C202 1.247 . S
O201 Cd197 2.439 . S
O201 C202 1.208 . S
C202 O200 1.247 . S
C202 O201 1.208 . S
C203 O208 1.247 . S
C203 O209 1.208 . S
C204 O196 1.315 . S
C204 O199 1.279 . S
C205 O206 1.315 . S
C205 O207 1.279 . S
O206 Cd198 2.223 . S
O206 C205 1.315 . S
O207 Cd197 2.240 . S
O207 C205 1.279 . S
O208 Cd198 2.297 . S
O208 C203 1.247 . S
O209 Cd198 2.439 . S
O209 C203 1.208 . S
O210 Cd211 2.223 . S
O210 C218 1.315 . S
Cd211 O210 2.223 . S
Cd211 O214 2.297 . S
Cd211 O215 2.439 . S
Cd211 O221 2.240 . S
Cd212 O213 2.240 . S
Cd212 O220 2.223 . S
Cd212 O222 2.297 . S
Cd212 O223 2.439 . S
O213 Cd212 2.240 . S
O213 C218 1.279 . S
O214 Cd211 2.297 . S
O214 C216 1.247 . S
O215 Cd211 2.439 . S
O215 C216 1.208 . S
C216 O214 1.247 . S
C216 O215 1.208 . S
C217 O222 1.247 . S
C217 O223 1.208 . S
C218 O210 1.315 . S
C218 O213 1.279 . S
C219 O220 1.315 . S
C219 O221 1.279 . S
O220 Cd212 2.223 . S
O220 C219 1.315 . S
O221 Cd211 2.240 . S
O221 C219 1.279 . S
O222 Cd212 2.297 . S
O222 C217 1.247 . S
O223 Cd212 2.439 . S
O223 C217 1.208 . S
C224 C225 1.391 . S
C224 C226 1.394 . S
C224 H240 0.931 . S
C225 C224 1.391 . S
C225 C229 1.376 . S
C226 C224 1.394 . S
C226 C227 1.369 . S
C226 C230 1.531 . S
C227 C226 1.369 . S
C227 C228 1.410 . S
C227 C235 1.503 . S
C228 C227 1.410 . S
C228 C229 1.392 . S
C228 C231 1.511 . S
C229 C225 1.376 . S
C229 C228 1.392 . S
C229 H241 0.929 . S
C230 C226 1.531 . S
C230 H242 0.960 . S
C230 H243 0.962 . S
C230 H244 0.960 . S
C231 C228 1.511 . S
C231 H245 0.961 . S
C231 H246 0.961 . S
C231 H247 0.961 . S
C232 C233 1.370 . S
C232 C234 1.363 . S
C232 H248 0.931 . S
C233 C232 1.370 . S
C233 C237 1.408 . S
C234 C232 1.363 . S
C234 C235 1.370 . S
C234 C238 1.524 . S
C235 C227 1.503 . S
C235 C234 1.370 . S
C235 C236 1.403 . S
C236 C235 1.403 . S
C236 C237 1.404 . S
C236 C239 1.539 . S
C237 C233 1.408 . S
C237 C236 1.404 . S
C237 H249 0.930 . S
C238 C234 1.524 . S
C238 H250 0.956 . S
C238 H251 0.961 . S
C238 H252 0.961 . S
C239 C236 1.539 . S
C239 H253 0.958 . S
C239 H254 0.961 . S
C239 H255 0.960 . S
H240 C224 0.931 . S
H241 C229 0.929 . S
H242 C230 0.960 . S
H243 C230 0.962 . S
H244 C230 0.960 . S
H245 C231 0.961 . S
H246 C231 0.961 . S
H247 C231 0.961 . S
H248 C232 0.931 . S
H249 C237 0.930 . S
H250 C238 0.956 . S
H251 C238 0.961 . S
H252 C238 0.961 . S
H253 C239 0.958 . S
H254 C239 0.961 . S
H255 C239 0.960 . S
C256 C257 1.391 . S
C256 C258 1.394 . S
C256 H272 0.931 . S
C257 C256 1.391 . S
C257 C261 1.376 . S
C258 C256 1.394 . S
C258 C259 1.369 . S
C258 C262 1.531 . S
C259 C258 1.369 . S
C259 C260 1.410 . S
C259 C267 1.503 . S
C260 C259 1.410 . S
C260 C261 1.392 . S
C260 C263 1.511 . S
C261 C257 1.376 . S
C261 C260 1.392 . S
C261 H273 0.929 . S
C262 C258 1.531 . S
C262 H274 0.960 . S
C262 H275 0.962 . S
C262 H276 0.960 . S
C263 C260 1.511 . S
C263 H277 0.961 . S
C263 H278 0.961 . S
C263 H279 0.961 . S
C264 C265 1.370 . S
C264 C266 1.363 . S
C264 H280 0.931 . S
C265 C264 1.370 . S
C265 C269 1.408 . S
C266 C264 1.363 . S
C266 C267 1.370 . S
C266 C270 1.524 . S
C267 C259 1.503 . S
C267 C266 1.370 . S
C267 C268 1.403 . S
C268 C267 1.403 . S
C268 C269 1.404 . S
C268 C271 1.539 . S
C269 C265 1.408 . S
C269 C268 1.404 . S
C269 H281 0.930 . S
C270 C266 1.524 . S
C270 H282 0.956 . S
C270 H283 0.961 . S
C270 H284 0.961 . S
C271 C268 1.539 . S
C271 H285 0.958 . S
C271 H286 0.961 . S
C271 H287 0.960 . S
H272 C256 0.931 . S
H273 C261 0.929 . S
H274 C262 0.960 . S
H275 C262 0.962 . S
H276 C262 0.960 . S
H277 C263 0.961 . S
H278 C263 0.961 . S
H279 C263 0.961 . S
H280 C264 0.931 . S
H281 C269 0.930 . S
H282 C270 0.956 . S
H283 C270 0.961 . S
H284 C270 0.961 . S
H285 C271 0.958 . S
H286 C271 0.961 . S
H287 C271 0.960 . S
C288 C289 1.391 . S
C288 C290 1.394 . S
C288 H304 0.931 . S
C289 C288 1.391 . S
C289 C293 1.376 . S
C290 C288 1.394 . S
C290 C291 1.369 . S
C290 C294 1.531 . S
C291 C290 1.369 . S
C291 C292 1.410 . S
C291 C299 1.503 . S
C292 C291 1.410 . S
C292 C293 1.392 . S
C292 C295 1.511 . S
C293 C289 1.376 . S
C293 C292 1.392 . S
C293 H305 0.929 . S
C294 C290 1.531 . S
C294 H306 0.960 . S
C294 H307 0.962 . S
C294 H308 0.960 . S
C295 C292 1.511 . S
C295 H309 0.961 . S
C295 H310 0.961 . S
C295 H311 0.961 . S
C296 C297 1.370 . S
C296 C298 1.363 . S
C296 H312 0.931 . S
C297 C296 1.370 . S
C297 C301 1.408 . S
C298 C296 1.363 . S
C298 C299 1.370 . S
C298 C302 1.524 . S
C299 C291 1.503 . S
C299 C298 1.370 . S
C299 C300 1.403 . S
C300 C299 1.403 . S
C300 C301 1.404 . S
C300 C303 1.539 . S
C301 C297 1.408 . S
C301 C300 1.404 . S
C301 H313 0.930 . S
C302 C298 1.524 . S
C302 H314 0.956 . S
C302 H315 0.961 . S
C302 H316 0.961 . S
C303 C300 1.539 . S
C303 H317 0.958 . S
C303 H318 0.961 . S
C303 H319 0.960 . S
H304 C288 0.931 . S
H305 C293 0.929 . S
H306 C294 0.960 . S
H307 C294 0.962 . S
H308 C294 0.960 . S
H309 C295 0.961 . S
H310 C295 0.961 . S
H311 C295 0.961 . S
H312 C296 0.931 . S
H313 C301 0.930 . S
H314 C302 0.956 . S
H315 C302 0.961 . S
H316 C302 0.961 . S
H317 C303 0.958 . S
H318 C303 0.961 . S
H319 C303 0.960 . S
C320 C321 1.391 . S
C320 C322 1.394 . S
C320 H336 0.931 . S
C321 C320 1.391 . S
C321 C325 1.376 . S
C322 C320 1.394 . S
C322 C323 1.369 . S
C322 C326 1.531 . S
C323 C322 1.369 . S
C323 C324 1.410 . S
C323 C331 1.503 . S
C324 C323 1.410 . S
C324 C325 1.392 . S
C324 C327 1.511 . S
C325 C321 1.376 . S
C325 C324 1.392 . S
C325 H337 0.929 . S
C326 C322 1.531 . S
C326 H338 0.960 . S
C326 H339 0.962 . S
C326 H340 0.960 . S
C327 C324 1.511 . S
C327 H341 0.961 . S
C327 H342 0.961 . S
C327 H343 0.961 . S
C328 C329 1.370 . S
C328 C330 1.363 . S
C328 H344 0.931 . S
C329 C328 1.370 . S
C329 C333 1.408 . S
C330 C328 1.363 . S
C330 C331 1.370 . S
C330 C334 1.524 . S
C331 C323 1.503 . S
C331 C330 1.370 . S
C331 C332 1.403 . S
C332 C331 1.403 . S
C332 C333 1.404 . S
C332 C335 1.539 . S
C333 C329 1.408 . S
C333 C332 1.404 . S
C333 H345 0.930 . S
C334 C330 1.524 . S
C334 H346 0.956 . S
C334 H347 0.961 . S
C334 H348 0.961 . S
C335 C332 1.539 . S
C335 H349 0.958 . S
C335 H350 0.961 . S
C335 H351 0.960 . S
H336 C320 0.931 . S
H337 C325 0.929 . S
H338 C326 0.960 . S
H339 C326 0.962 . S
H340 C326 0.960 . S
H341 C327 0.961 . S
H342 C327 0.961 . S
H343 C327 0.961 . S
H344 C328 0.931 . S
H345 C333 0.930 . S
H346 C334 0.956 . S
H347 C334 0.961 . S
H348 C334 0.961 . S
H349 C335 0.958 . S
H350 C335 0.961 . S
H351 C335 0.960 . S
C352 C353 1.391 . S
C352 C354 1.394 . S
C352 H368 0.931 . S
C353 C352 1.391 . S
C353 C357 1.376 . S
C354 C352 1.394 . S
C354 C355 1.369 . S
C354 C358 1.531 . S
C355 C354 1.369 . S
C355 C356 1.410 . S
C355 C363 1.503 . S
C356 C355 1.410 . S
C356 C357 1.392 . S
C356 C359 1.511 . S
C357 C353 1.376 . S
C357 C356 1.392 . S
C357 H369 0.929 . S
C358 C354 1.531 . S
C358 H370 0.960 . S
C358 H371 0.962 . S
C358 H372 0.960 . S
C359 C356 1.511 . S
C359 H373 0.961 . S
C359 H374 0.961 . S
C359 H375 0.961 . S
C360 C361 1.370 . S
C360 C362 1.363 . S
C360 H376 0.931 . S
C361 C360 1.370 . S
C361 C365 1.408 . S
C362 C360 1.363 . S
C362 C363 1.370 . S
C362 C366 1.524 . S
C363 C355 1.503 . S
C363 C362 1.370 . S
C363 C364 1.403 . S
C364 C363 1.403 . S
C364 C365 1.404 . S
C364 C367 1.539 . S
C365 C361 1.408 . S
C365 C364 1.404 . S
C365 H377 0.930 . S
C366 C362 1.524 . S
C366 H378 0.956 . S
C366 H379 0.961 . S
C366 H380 0.961 . S
C367 C364 1.539 . S
C367 H381 0.958 . S
C367 H382 0.961 . S
C367 H383 0.960 . S
H368 C352 0.931 . S
H369 C357 0.929 . S
H370 C358 0.960 . S
H371 C358 0.962 . S
H372 C358 0.960 . S
H373 C359 0.961 . S
H374 C359 0.961 . S
H375 C359 0.961 . S
H376 C360 0.931 . S
H377 C365 0.930 . S
H378 C366 0.956 . S
H379 C366 0.961 . S
H380 C366 0.961 . S
H381 C367 0.958 . S
H382 C367 0.961 . S
H383 C367 0.960 . S
C384 C385 1.391 . S
C384 C386 1.394 . S
C384 H400 0.931 . S
C385 C384 1.391 . S
C385 C389 1.376 . S
C386 C384 1.394 . S
C386 C387 1.369 . S
C386 C390 1.531 . S
C387 C386 1.369 . S
C387 C388 1.410 . S
C387 C395 1.503 . S
C388 C387 1.410 . S
C388 C389 1.392 . S
C388 C391 1.511 . S
C389 C385 1.376 . S
C389 C388 1.392 . S
C389 H401 0.929 . S
C390 C386 1.531 . S
C390 H402 0.960 . S
C390 H403 0.962 . S
C390 H404 0.960 . S
C391 C388 1.511 . S
C391 H405 0.961 . S
C391 H406 0.961 . S
C391 H407 0.961 . S
C392 C393 1.370 . S
C392 C394 1.363 . S
C392 H408 0.931 . S
C393 C392 1.370 . S
C393 C397 1.408 . S
C394 C392 1.363 . S
C394 C395 1.370 . S
C394 C398 1.524 . S
C395 C387 1.503 . S
C395 C394 1.370 . S
C395 C396 1.403 . S
C396 C395 1.403 . S
C396 C397 1.404 . S
C396 C399 1.539 . S
C397 C393 1.408 . S
C397 C396 1.404 . S
C397 H409 0.930 . S
C398 C394 1.524 . S
C398 H410 0.956 . S
C398 H411 0.961 . S
C398 H412 0.961 . S
C399 C396 1.539 . S
C399 H413 0.958 . S
C399 H414 0.961 . S
C399 H415 0.960 . S
H400 C384 0.931 . S
H401 C389 0.929 . S
H402 C390 0.960 . S
H403 C390 0.962 . S
H404 C390 0.960 . S
H405 C391 0.961 . S
H406 C391 0.961 . S
H407 C391 0.961 . S
H408 C392 0.931 . S
H409 C397 0.930 . S
H410 C398 0.956 . S
H411 C398 0.961 . S
H412 C398 0.961 . S
H413 C399 0.958 . S
H414 C399 0.961 . S
H415 C399 0.960 . S
C416 C417 1.391 . S
C416 C418 1.394 . S
C416 H432 0.931 . S
C417 C416 1.391 . S
C417 C421 1.376 . S
C418 C416 1.394 . S
C418 C419 1.369 . S
C418 C422 1.531 . S
C419 C418 1.369 . S
C419 C420 1.410 . S
C419 C427 1.503 . S
C420 C419 1.410 . S
C420 C421 1.392 . S
C420 C423 1.511 . S
C421 C417 1.376 . S
C421 C420 1.392 . S
C421 H433 0.929 . S
C422 C418 1.531 . S
C422 H434 0.960 . S
C422 H435 0.962 . S
C422 H436 0.960 . S
C423 C420 1.511 . S
C423 H437 0.961 . S
C423 H438 0.961 . S
C423 H439 0.961 . S
C424 C425 1.370 . S
C424 C426 1.363 . S
C424 H440 0.931 . S
C425 C424 1.370 . S
C425 C429 1.408 . S
C426 C424 1.363 . S
C426 C427 1.370 . S
C426 C430 1.524 . S
C427 C419 1.503 . S
C427 C426 1.370 . S
C427 C428 1.403 . S
C428 C427 1.403 . S
C428 C429 1.404 . S
C428 C431 1.539 . S
C429 C425 1.408 . S
C429 C428 1.404 . S
C429 H441 0.930 . S
C430 C426 1.524 . S
C430 H442 0.956 . S
C430 H443 0.961 . S
C430 H444 0.961 . S
C431 C428 1.539 . S
C431 H445 0.958 . S
C431 H446 0.961 . S
C431 H447 0.960 . S
H432 C416 0.931 . S
H433 C421 0.929 . S
H434 C422 0.960 . S
H435 C422 0.962 . S
H436 C422 0.960 . S
H437 C423 0.961 . S
H438 C423 0.961 . S
H439 C423 0.961 . S
H440 C424 0.931 . S
H441 C429 0.930 . S
H442 C430 0.956 . S
H443 C430 0.961 . S
H444 C430 0.961 . S
H445 C431 0.958 . S
H446 C431 0.961 . S
H447 C431 0.960 . S
C448 C449 1.391 . S
C448 C450 1.394 . S
C448 H464 0.931 . S
C449 C448 1.391 . S
C449 C453 1.376 . S
C450 C448 1.394 . S
C450 C451 1.369 . S
C450 C454 1.531 . S
C451 C450 1.369 . S
C451 C452 1.410 . S
C451 C459 1.503 . S
C452 C451 1.410 . S
C452 C453 1.392 . S
C452 C455 1.511 . S
C453 C449 1.376 . S
C453 C452 1.392 . S
C453 H465 0.929 . S
C454 C450 1.531 . S
C454 H466 0.960 . S
C454 H467 0.962 . S
C454 H468 0.960 . S
C455 C452 1.511 . S
C455 H469 0.961 . S
C455 H470 0.961 . S
C455 H471 0.961 . S
C456 C457 1.370 . S
C456 C458 1.363 . S
C456 H472 0.931 . S
C457 C456 1.370 . S
C457 C461 1.408 . S
C458 C456 1.363 . S
C458 C459 1.370 . S
C458 C462 1.524 . S
C459 C451 1.503 . S
C459 C458 1.370 . S
C459 C460 1.403 . S
C460 C459 1.403 . S
C460 C461 1.404 . S
C460 C463 1.539 . S
C461 C457 1.408 . S
C461 C460 1.404 . S
C461 H473 0.930 . S
C462 C458 1.524 . S
C462 H474 0.956 . S
C462 H475 0.961 . S
C462 H476 0.961 . S
C463 C460 1.539 . S
C463 H477 0.958 . S
C463 H478 0.961 . S
C463 H479 0.960 . S
H464 C448 0.931 . S
H465 C453 0.929 . S
H466 C454 0.960 . S
H467 C454 0.962 . S
H468 C454 0.960 . S
H469 C455 0.961 . S
H470 C455 0.961 . S
H471 C455 0.961 . S
H472 C456 0.931 . S
H473 C461 0.930 . S
H474 C462 0.956 . S
H475 C462 0.961 . S
H476 C462 0.961 . S
H477 C463 0.958 . S
H478 C463 0.961 . S
H479 C463 0.960 . S
C480 C481 1.391 . S
C480 C482 1.394 . S
C480 H496 0.931 . S
C481 C480 1.391 . S
C481 C485 1.376 . S
C482 C480 1.394 . S
C482 C483 1.369 . S
C482 C486 1.531 . S
C483 C482 1.369 . S
C483 C484 1.410 . S
C483 C491 1.503 . S
C484 C483 1.410 . S
C484 C485 1.392 . S
C484 C487 1.511 . S
C485 C481 1.376 . S
C485 C484 1.392 . S
C485 H497 0.929 . S
C486 C482 1.531 . S
C486 H498 0.960 . S
C486 H499 0.962 . S
C486 H500 0.960 . S
C487 C484 1.511 . S
C487 H501 0.961 . S
C487 H502 0.961 . S
C487 H503 0.933 1_655 S
C488 C489 1.370 . S
C488 C490 1.363 . S
C488 H504 0.931 . S
C489 C488 1.370 . S
C489 C493 1.408 1_655 S
C490 C488 1.363 . S
C490 C491 1.370 . S
C490 C494 1.524 . S
C491 C483 1.503 . S
C491 C490 1.370 . S
C491 C492 1.403 . S
C492 C491 1.403 . S
C492 C493 1.404 1_655 S
C492 C495 1.539 1_655 S
C493 C489 1.408 1_455 S
C493 C492 1.404 1_455 S
C493 H505 0.930 . S
C494 C490 1.524 . S
C494 H506 0.956 . S
C494 H507 0.961 . S
C494 H508 0.961 . S
C495 C492 1.539 1_455 S
C495 H509 0.958 1_455 S
C495 H510 0.961 . S
C495 H511 0.958 1_455 S
H496 C480 0.931 . S
H497 C485 0.929 . S
H498 C486 0.960 . S
H499 C486 0.962 . S
H500 C486 0.960 . S
H501 C487 0.961 . S
H502 C487 0.961 . S
H503 C487 0.933 1_455 S
H504 C488 0.931 . S
H505 C493 0.930 . S
H506 C494 0.956 . S
H507 C494 0.961 . S
H508 C494 0.961 . S
H509 C495 0.958 1_655 S
H510 C495 0.961 . S
H511 C495 0.958 1_655 S
C512 C513 1.391 1_545 S
C512 C514 1.394 1_545 S
C512 H528 0.931 . S
C513 C512 1.391 1_565 S
C513 C517 1.376 . S
C514 C512 1.394 1_565 S
C514 C515 1.369 . S
C514 C518 1.531 1_565 S
C515 C514 1.369 . S
C515 C516 1.410 . S
C515 C523 1.503 . S
C516 C515 1.410 . S
C516 C517 1.392 . S
C516 C519 1.511 . S
C517 C513 1.376 . S
C517 C516 1.392 . S
C517 H529 0.929 . S
C518 C514 1.531 1_545 S
C518 H530 0.960 1_545 S
C518 H531 0.962 1_545 S
C518 H532 0.960 . S
C519 C516 1.511 . S
C519 H533 0.961 . S
C519 H534 0.961 . S
C519 H535 0.961 . S
C520 C521 1.370 . S
C520 C522 1.363 . S
C520 H536 0.931 1_655 S
C521 C520 1.370 . S
C521 C525 1.408 . S
C522 C520 1.363 . S
C522 C523 1.370 . S
C522 C526 1.524 . S
C523 C515 1.503 . S
C523 C522 1.370 . S
C523 C524 1.403 . S
C524 C523 1.403 . S
C524 C525 1.404 . S
C524 C527 1.539 . S
C525 C521 1.408 . S
C525 C524 1.404 . S
C525 H537 0.930 . S
C526 C522 1.524 . S
C526 H538 0.956 . S
C526 H539 0.961 . S
C526 H540 0.961 . S
C527 C524 1.539 . S
C527 H541 0.958 . S
C527 H542 0.961 . S
C527 H543 0.960 . S
H528 C512 0.931 . S
H529 C517 0.929 . S
H530 C518 0.960 1_565 S
H531 C518 0.962 1_565 S
H532 C518 0.960 . S
H533 C519 0.961 . S
H534 C519 0.961 . S
H535 C519 0.961 . S
H536 C520 0.931 1_455 S
H537 C525 0.930 . S
H538 C526 0.956 . S
H539 C526 0.961 . S
H540 C526 0.961 . S
H541 C527 0.958 . S
H542 C527 0.961 . S
H543 C527 0.960 . S
C544 C545 1.391 1_545 S
C544 C546 1.394 1_545 S
C544 H560 0.931 . S
C545 C544 1.391 1_565 S
C545 C549 1.376 . S
C546 C544 1.394 1_565 S
C546 C547 1.369 . S
C546 C550 1.522 1_565 S
C547 C546 1.369 . S
C547 C548 1.410 . S
C547 C555 1.503 . S
C548 C547 1.410 . S
C548 C549 1.392 . S
C548 C551 1.511 . S
C549 C545 1.376 . S
C549 C548 1.392 . S
C549 H561 0.929 . S
C550 C546 1.522 1_545 S
C550 H562 0.957 1_545 S
C550 H563 0.951 1_545 S
C550 H564 0.983 . S
C551 C548 1.511 . S
C551 H565 0.961 . S
C551 H566 0.961 . S
C551 H567 0.961 . S
C552 C553 1.370 . S
C552 C554 1.363 . S
C552 H568 0.931 . S
C553 C552 1.370 . S
C553 C557 1.408 . S
C554 C552 1.363 . S
C554 C555 1.370 . S
C554 C558 1.524 . S
C555 C547 1.503 . S
C555 C554 1.370 . S
C555 C556 1.403 . S
C556 C555 1.403 . S
C556 C557 1.404 . S
C556 C559 1.539 . S
C557 C553 1.408 . S
C557 C556 1.404 . S
C557 H569 0.930 . S
C558 C554 1.524 . S
C558 H570 0.956 . S
C558 H571 0.961 . S
C558 H572 0.961 . S
C559 C556 1.539 . S
C559 H573 0.958 . S
C559 H574 0.961 . S
C559 H575 0.960 . S
H560 C544 0.931 . S
H561 C549 0.929 . S
H562 C550 0.957 1_565 S
H563 C550 0.951 1_565 S
H564 C550 0.983 . S
H565 C551 0.961 . S
H566 C551 0.961 . S
H567 C551 0.961 . S
H568 C552 0.931 . S
H569 C557 0.930 . S
H570 C558 0.956 . S
H571 C558 0.961 . S
H572 C558 0.961 . S
H573 C559 0.958 . S
H574 C559 0.961 . S
H575 C559 0.960 . S
C576 C577 1.391 . S
C576 C578 1.394 . S
C576 H592 0.931 . S
C577 C576 1.391 . S
C577 C581 1.376 . S
C578 C576 1.394 . S
C578 C579 1.369 . S
C578 C582 1.531 . S
C579 C578 1.369 . S
C579 C580 1.410 . S
C579 C587 1.503 . S
C580 C579 1.410 . S
C580 C581 1.392 . S
C580 C583 1.511 . S
C581 C577 1.376 . S
C581 C580 1.392 . S
C581 H593 0.929 . S
C582 C578 1.531 . S
C582 H594 0.960 . S
C582 H595 0.962 . S
C582 H596 0.960 . S
C583 C580 1.511 . S
C583 H597 0.961 . S
C583 H598 0.961 . S
C583 H599 0.961 . S
C584 C585 1.370 . S
C584 C586 1.363 . S
C584 H600 0.931 . S
C585 C584 1.370 . S
C585 C589 1.408 . S
C586 C584 1.363 . S
C586 C587 1.370 . S
C586 C590 1.524 . S
C587 C579 1.503 . S
C587 C586 1.370 . S
C587 C588 1.403 . S
C588 C587 1.403 . S
C588 C589 1.404 . S
C588 C591 1.539 . S
C589 C585 1.408 . S
C589 C588 1.404 . S
C589 H601 0.930 . S
C590 C586 1.524 . S
C590 H602 0.956 . S
C590 H603 0.961 . S
C590 H604 0.961 . S
C591 C588 1.539 . S
C591 H605 0.958 . S
C591 H606 0.961 . S
C591 H607 0.960 . S
H592 C576 0.931 . S
H593 C581 0.929 . S
H594 C582 0.960 . S
H595 C582 0.962 . S
H596 C582 0.960 . S
H597 C583 0.961 . S
H598 C583 0.961 . S
H599 C583 0.961 . S
H600 C584 0.931 . S
H601 C589 0.930 . S
H602 C590 0.956 . S
H603 C590 0.961 . S
H604 C590 0.961 . S
H605 C591 0.958 . S
H606 C591 0.961 . S
H607 C591 0.960 . S
C608 C609 1.391 . S
C608 C610 1.394 . S
C608 H624 0.931 . S
C609 C608 1.391 . S
C609 C613 1.376 . S
C610 C608 1.394 . S
C610 C611 1.369 . S
C610 C614 1.531 . S
C611 C610 1.369 . S
C611 C612 1.410 . S
C611 C619 1.503 . S
C612 C611 1.410 . S
C612 C613 1.392 . S
C612 C615 1.511 . S
C613 C609 1.376 . S
C613 C612 1.392 . S
C613 H625 0.929 . S
C614 C610 1.531 . S
C614 H626 0.960 . S
C614 H627 0.962 . S
C614 H628 0.960 . S
C615 C612 1.511 . S
C615 H629 0.961 . S
C615 H630 0.961 . S
C615 H631 0.961 1_455 S
C616 C617 1.370 . S
C616 C618 1.363 . S
C616 H632 0.931 . S
C617 C616 1.370 . S
C617 C621 1.406 1_455 S
C618 C616 1.363 . S
C618 C619 1.370 . S
C618 C622 1.524 . S
C619 C611 1.503 . S
C619 C618 1.370 . S
C619 C620 1.403 . S
C620 C619 1.403 . S
C620 C621 1.401 1_455 S
C620 C623 1.529 1_455 S
C621 C617 1.406 1_655 S
C621 C620 1.401 1_655 S
C621 H633 0.934 . S
C622 C618 1.524 . S
C622 H634 0.956 . S
C622 H635 0.961 . S
C622 H636 0.961 . S
C623 C620 1.529 1_655 S
C623 H637 0.948 1_655 S
C623 H638 0.986 . S
C623 H639 0.956 1_655 S
H624 C608 0.931 . S
H625 C613 0.929 . S
H626 C614 0.960 . S
H627 C614 0.962 . S
H628 C614 0.960 . S
H629 C615 0.961 . S
H630 C615 0.961 . S
H631 C615 0.961 1_655 S
H632 C616 0.931 . S
H633 C621 0.934 . S
H634 C622 0.956 . S
H635 C622 0.961 . S
H636 C622 0.961 . S
H637 C623 0.948 1_455 S
H638 C623 0.986 . S
H639 C623 0.956 1_455 S
C640 C641 1.391 . S
C640 C642 1.394 . S
C640 H656 0.931 . S
C641 C640 1.391 . S
C641 C645 1.376 1_545 S
C642 C640 1.394 . S
C642 C643 1.369 . S
C642 C646 1.531 . S
C643 C642 1.369 . S
C643 C644 1.410 . S
C643 C651 1.503 . S
C644 C643 1.410 . S
C644 C645 1.392 1_545 S
C644 C647 1.511 1_545 S
C645 C641 1.376 1_565 S
C645 C644 1.392 1_565 S
C645 H657 0.929 . S
C646 C642 1.531 . S
C646 H658 0.960 . S
C646 H659 0.962 . S
C646 H660 0.960 . S
C647 C644 1.511 1_565 S
C647 H661 0.961 . S
C647 H662 0.961 1_565 S
C647 H663 0.961 . S
C648 C649 1.370 1_655 S
C648 C650 1.363 1_655 S
C648 H664 0.931 . S
C649 C648 1.370 1_455 S
C649 C653 1.408 . S
C650 C648 1.363 1_455 S
C650 C651 1.370 . S
C650 C654 1.524 1_455 S
C651 C643 1.503 . S
C651 C650 1.370 . S
C651 C652 1.403 . S
C652 C651 1.403 . S
C652 C653 1.404 . S
C652 C655 1.539 . S
C653 C649 1.408 . S
C653 C652 1.404 . S
C653 H665 0.930 . S
C654 C650 1.524 1_655 S
C654 H666 0.956 . S
C654 H667 0.961 1_655 S
C654 H668 0.961 . S
C655 C652 1.539 . S
C655 H669 0.958 . S
C655 H670 0.961 . S
C655 H671 0.960 . S
H656 C640 0.931 . S
H657 C645 0.929 . S
H658 C646 0.960 . S
H659 C646 0.962 . S
H660 C646 0.960 . S
H661 C647 0.961 . S
H662 C647 0.961 1_545 S
H663 C647 0.961 . S
H664 C648 0.931 . S
H665 C653 0.930 . S
H666 C654 0.956 . S
H667 C654 0.961 1_455 S
H668 C654 0.961 . S
H669 C655 0.958 . S
H670 C655 0.961 . S
H671 C655 0.960 . S
C672 C673 1.391 . S
C672 C674 1.394 . S
C672 H688 0.931 . S
C673 C672 1.391 . S
C673 C677 1.376 . S
C674 C672 1.394 . S
C674 C675 1.369 . S
C674 C678 1.531 . S
C675 C674 1.369 . S
C675 C676 1.410 . S
C675 C683 1.503 . S
C676 C675 1.410 . S
C676 C677 1.392 . S
C676 C679 1.511 . S
C677 C673 1.376 . S
C677 C676 1.392 . S
C677 H689 0.929 . S
C678 C674 1.531 . S
C678 H690 0.960 . S
C678 H691 0.962 . S
C678 H692 0.960 . S
C679 C676 1.511 . S
C679 H693 0.961 . S
C679 H694 0.961 . S
C679 H695 0.961 . S
C680 C681 1.370 . S
C680 C682 1.363 . S
C680 H696 0.931 . S
C681 C680 1.370 . S
C681 C685 1.408 1_545 S
C682 C680 1.363 . S
C682 C683 1.370 . S
C682 C686 1.524 . S
C683 C675 1.503 . S
C683 C682 1.370 . S
C683 C684 1.403 . S
C684 C683 1.403 . S
C684 C685 1.404 1_545 S
C684 C687 1.539 1_545 S
C685 C681 1.408 1_565 S
C685 C684 1.404 1_565 S
C685 H697 0.930 . S
C686 C682 1.524 . S
C686 H698 0.956 . S
C686 H699 0.961 . S
C686 H700 0.961 . S
C687 C684 1.539 1_565 S
C687 H701 0.958 . S
C687 H702 0.961 . S
C687 H703 0.960 . S
H688 C672 0.931 . S
H689 C677 0.929 . S
H690 C678 0.960 . S
H691 C678 0.962 . S
H692 C678 0.960 . S
H693 C679 0.961 . S
H694 C679 0.961 . S
H695 C679 0.961 . S
H696 C680 0.931 . S
H697 C685 0.930 . S
H698 C686 0.956 . S
H699 C686 0.961 . S
H700 C686 0.961 . S
H701 C687 0.958 . S
H702 C687 0.961 . S
H703 C687 0.960 . S
C704 C705 1.391 . S
C704 C706 1.394 . S
C704 H720 0.931 . S
C705 C704 1.391 . S
C705 C709 1.376 . S
C706 C704 1.394 . S
C706 C707 1.369 . S
C706 C710 1.531 . S
C707 C706 1.369 . S
C707 C708 1.410 . S
C707 C715 1.503 . S
C708 C707 1.410 . S
C708 C709 1.392 . S
C708 C711 1.511 . S
C709 C705 1.376 . S
C709 C708 1.392 . S
C709 H721 0.929 . S
C710 C706 1.531 . S
C710 H722 0.960 . S
C710 H723 0.962 . S
C710 H724 0.960 . S
C711 C708 1.511 . S
C711 H725 0.961 . S
C711 H726 0.961 . S
C711 H727 0.961 . S
C712 C713 1.370 . S
C712 C714 1.363 . S
C712 H728 0.931 . S
C713 C712 1.370 . S
C713 C717 1.408 . S
C714 C712 1.363 . S
C714 C715 1.370 . S
C714 C718 1.524 . S
C715 C707 1.503 . S
C715 C714 1.370 . S
C715 C716 1.403 . S
C716 C715 1.403 . S
C716 C717 1.404 . S
C716 C719 1.539 . S
C717 C713 1.408 . S
C717 C716 1.404 . S
C717 H729 0.930 . S
C718 C714 1.524 . S
C718 H730 0.956 . S
C718 H731 0.961 . S
C718 H732 0.961 . S
C719 C716 1.539 . S
C719 H733 0.958 . S
C719 H734 0.961 . S
C719 H735 0.960 . S
H720 C704 0.931 . S
H721 C709 0.929 . S
H722 C710 0.960 . S
H723 C710 0.962 . S
H724 C710 0.960 . S
H725 C711 0.961 . S
H726 C711 0.961 . S
H727 C711 0.961 . S
H728 C712 0.931 . S
H729 C717 0.930 . S
H730 C718 0.956 . S
H731 C718 0.961 . S
H732 C718 0.961 . S
H733 C719 0.958 . S
H734 C719 0.961 . S
H735 C719 0.960 . S
C736 C737 1.391 1_655 S
C736 C738 1.394 . S
C736 H752 0.931 . S
C737 C736 1.391 1_455 S
C737 C741 1.376 . S
C738 C736 1.394 . S
C738 C739 1.369 1_655 S
C738 C742 1.531 . S
C739 C738 1.369 1_455 S
C739 C740 1.410 . S
C739 C747 1.503 . S
C740 C739 1.410 . S
C740 C741 1.392 . S
C740 C743 1.511 . S
C741 C737 1.376 . S
C741 C740 1.392 . S
C741 H753 0.929 . S
C742 C738 1.531 . S
C742 H754 0.960 . S
C742 H755 0.962 . S
C742 H756 0.960 . S
C743 C740 1.511 . S
C743 H757 0.961 . S
C743 H758 0.961 . S
C743 H759 0.961 . S
C744 C745 1.370 . S
C744 C746 1.363 . S
C744 H760 0.931 . S
C745 C744 1.370 . S
C745 C749 1.408 1_455 S
C746 C744 1.363 . S
C746 C747 1.370 . S
C746 C750 1.524 . S
C747 C739 1.503 . S
C747 C746 1.370 . S
C747 C748 1.403 1_455 S
C748 C747 1.403 1_655 S
C748 C749 1.404 . S
C748 C751 1.539 . S
C749 C745 1.408 1_655 S
C749 C748 1.404 . S
C749 H761 0.930 . S
C750 C746 1.524 . S
C750 H762 0.956 . S
C750 H763 0.961 . S
C750 H764 0.961 . S
C751 C748 1.539 . S
C751 H765 0.958 . S
C751 H766 0.961 . S
C751 H767 0.960 . S
H752 C736 0.931 . S
H753 C741 0.929 . S
H754 C742 0.960 . S
H755 C742 0.962 . S
H756 C742 0.960 . S
H757 C743 0.961 . S
H758 C743 0.961 . S
H759 C743 0.961 . S
H760 C744 0.931 . S
H761 C749 0.930 . S
H762 C750 0.956 . S
H763 C750 0.961 . S
H764 C750 0.961 . S
H765 C751 0.958 . S
H766 C751 0.961 . S
H767 C751 0.960 . S
C768 C769 1.391 1_565 S
C768 C770 1.394 . S
C768 H784 0.931 . S
C769 C768 1.391 1_545 S
C769 C773 1.376 . S
C770 C768 1.394 . S
C770 C771 1.369 1_565 S
C770 C774 1.531 . S
C771 C770 1.369 1_545 S
C771 C772 1.410 . S
C771 C779 1.503 . S
C772 C771 1.410 . S
C772 C773 1.392 . S
C772 C775 1.511 . S
C773 C769 1.376 . S
C773 C772 1.392 . S
C773 H785 0.929 . S
C774 C770 1.531 . S
C774 H786 0.960 . S
C774 H787 0.962 . S
C774 H788 0.960 . S
C775 C772 1.511 . S
C775 H789 0.961 . S
C775 H790 0.961 . S
C775 H791 0.961 . S
C776 C777 1.370 . S
C776 C778 1.363 . S
C776 H792 0.931 . S
C777 C776 1.370 . S
C777 C781 1.408 1_545 S
C778 C776 1.363 . S
C778 C779 1.370 . S
C778 C782 1.524 . S
C779 C771 1.503 . S
C779 C778 1.370 . S
C779 C780 1.403 1_545 S
C780 C779 1.403 1_565 S
C780 C781 1.404 . S
C780 C783 1.539 . S
C781 C777 1.408 1_565 S
C781 C780 1.404 . S
C781 H793 0.930 . S
C782 C778 1.524 . S
C782 H794 0.956 . S
C782 H795 0.961 . S
C782 H796 0.961 . S
C783 C780 1.539 . S
C783 H797 0.958 . S
C783 H798 0.961 . S
C783 H799 0.960 . S
H784 C768 0.931 . S
H785 C773 0.929 . S
H786 C774 0.960 . S
H787 C774 0.962 . S
H788 C774 0.960 . S
H789 C775 0.961 . S
H790 C775 0.961 . S
H791 C775 0.961 . S
H792 C776 0.931 . S
H793 C781 0.930 . S
H794 C782 0.956 . S
H795 C782 0.961 . S
H796 C782 0.961 . S
H797 C783 0.958 . S
H798 C783 0.961 . S
H799 C783 0.960 . S
C800 C801 1.391 . S
C800 C802 1.394 . S
C800 H816 0.931 . S
C801 C800 1.391 . S
C801 C805 1.376 . S
C802 C800 1.394 . S
C802 C803 1.369 . S
C802 C806 1.531 . S
C803 C802 1.369 . S
C803 C804 1.410 . S
C803 C811 1.503 . S
C804 C803 1.410 . S
C804 C805 1.392 . S
C804 C807 1.511 . S
C805 C801 1.376 . S
C805 C804 1.392 . S
C805 H817 0.929 . S
C806 C802 1.531 . S
C806 H818 0.960 . S
C806 H819 0.962 . S
C806 H820 0.960 . S
C807 C804 1.511 . S
C807 H821 0.961 . S
C807 H822 0.961 . S
C807 H823 0.961 . S
C808 C809 1.370 . S
C808 C810 1.363 . S
C808 H824 0.931 . S
C809 C808 1.370 . S
C809 C813 1.408 . S
C810 C808 1.363 . S
C810 C811 1.370 . S
C810 C814 1.524 . S
C811 C803 1.503 . S
C811 C810 1.370 . S
C811 C812 1.403 . S
C812 C811 1.403 . S
C812 C813 1.404 . S
C812 C815 1.539 . S
C813 C809 1.408 . S
C813 C812 1.404 . S
C813 H825 0.930 . S
C814 C810 1.524 . S
C814 H826 0.956 . S
C814 H827 0.961 . S
C814 H828 0.961 . S
C815 C812 1.539 . S
C815 H829 0.958 . S
C815 H830 0.961 . S
C815 H831 0.960 . S
H816 C800 0.931 . S
H817 C805 0.929 . S
H818 C806 0.960 . S
H819 C806 0.962 . S
H820 C806 0.960 . S
H821 C807 0.961 . S
H822 C807 0.961 . S
H823 C807 0.961 . S
H824 C808 0.931 . S
H825 C813 0.930 . S
H826 C814 0.956 . S
H827 C814 0.961 . S
H828 C814 0.961 . S
H829 C815 0.958 . S
H830 C815 0.961 . S
H831 C815 0.960 . S
C832 C833 1.391 . S
C832 C834 1.394 . S
C832 H848 0.931 . S
C833 C832 1.391 . S
C833 C837 1.376 . S
C834 C832 1.394 . S
C834 C835 1.369 . S
C834 C838 1.531 . S
C835 C834 1.369 . S
C835 C836 1.410 . S
C835 C843 1.503 . S
C836 C835 1.410 . S
C836 C837 1.392 . S
C836 C839 1.511 . S
C837 C833 1.376 . S
C837 C836 1.392 . S
C837 H849 0.929 . S
C838 C834 1.531 . S
C838 H850 0.960 . S
C838 H851 0.962 . S
C838 H852 0.960 . S
C839 C836 1.511 . S
C839 H853 0.961 . S
C839 H854 0.961 . S
C839 H855 0.961 . S
C840 C841 1.370 . S
C840 C842 1.363 . S
C840 H856 0.931 . S
C841 C840 1.370 . S
C841 C845 1.408 . S
C842 C840 1.363 . S
C842 C843 1.370 . S
C842 C846 1.524 . S
C843 C835 1.503 . S
C843 C842 1.370 . S
C843 C844 1.403 . S
C844 C843 1.403 . S
C844 C845 1.404 . S
C844 C847 1.539 . S
C845 C841 1.408 . S
C845 C844 1.404 . S
C845 H857 0.930 . S
C846 C842 1.524 . S
C846 H858 0.956 . S
C846 H859 0.961 . S
C846 H860 0.961 . S
C847 C844 1.539 . S
C847 H861 0.958 . S
C847 H862 0.961 . S
C847 H863 0.960 . S
H848 C832 0.931 . S
H849 C837 0.929 . S
H850 C838 0.960 . S
H851 C838 0.962 . S
H852 C838 0.960 . S
H853 C839 0.961 . S
H854 C839 0.961 . S
H855 C839 0.961 . S
H856 C840 0.931 . S
H857 C845 0.930 . S
H858 C846 0.956 . S
H859 C846 0.961 . S
H860 C846 0.961 . S
H861 C847 0.958 . S
H862 C847 0.961 . S
H863 C847 0.960 . S
C864 C865 1.391 . S
C864 C866 1.394 . S
C864 H880 0.931 . S
C865 C864 1.391 . S
C865 C869 1.376 1_655 S
C866 C864 1.394 . S
C866 C867 1.369 . S
C866 C870 1.531 . S
C867 C866 1.369 . S
C867 C868 1.410 1_655 S
C867 C875 1.503 . S
C868 C867 1.410 1_455 S
C868 C869 1.392 . S
C868 C871 1.511 . S
C869 C865 1.376 1_455 S
C869 C868 1.392 . S
C869 H881 0.929 . S
C870 C866 1.531 . S
C870 H882 0.960 . S
C870 H883 0.962 . S
C870 H884 0.960 . S
C871 C868 1.511 . S
C871 H885 0.961 . S
C871 H886 0.961 . S
C871 H887 0.961 . S
C872 C873 1.370 . S
C872 C874 1.363 . S
C872 H888 0.931 . S
C873 C872 1.370 . S
C873 C877 1.408 . S
C874 C872 1.363 . S
C874 C875 1.370 . S
C874 C878 1.524 . S
C875 C867 1.503 . S
C875 C874 1.370 . S
C875 C876 1.403 . S
C876 C875 1.403 . S
C876 C877 1.404 . S
C876 C879 1.539 1_655 S
C877 C873 1.408 . S
C877 C876 1.404 . S
C877 H889 0.930 1_655 S
C878 C874 1.524 . S
C878 H890 0.956 . S
C878 H891 0.961 . S
C878 H892 0.961 . S
C879 C876 1.539 1_455 S
C879 H893 0.958 1_455 S
C879 H894 0.961 . S
C879 H895 0.960 . S
H880 C864 0.931 . S
H881 C869 0.929 . S
H882 C870 0.960 . S
H883 C870 0.962 . S
H884 C870 0.960 . S
H885 C871 0.961 . S
H886 C871 0.961 . S
H887 C871 0.961 . S
H888 C872 0.931 . S
H889 C877 0.930 1_455 S
H890 C878 0.956 . S
H891 C878 0.961 . S
H892 C878 0.961 . S
H893 C879 0.958 1_655 S
H894 C879 0.961 . S
H895 C879 0.960 . S
C896 C897 1.391 1_545 S
C896 C898 1.394 . S
C896 H912 0.931 . S
C897 C896 1.391 1_565 S
C897 C901 1.376 . S
C898 C896 1.394 . S
C898 C899 1.369 1_545 S
C898 C902 1.531 . S
C899 C898 1.369 1_565 S
C899 C900 1.410 . S
C899 C907 1.503 . S
C900 C899 1.410 . S
C900 C901 1.392 . S
C900 C903 1.511 . S
C901 C897 1.376 . S
C901 C900 1.392 . S
C901 H913 0.929 . S
C902 C898 1.531 . S
C902 H914 0.960 . S
C902 H915 0.962 . S
C902 H916 0.960 . S
C903 C900 1.511 . S
C903 H917 0.961 . S
C903 H918 0.961 . S
C903 H919 0.961 . S
C904 C905 1.370 1_545 S
C904 C906 1.363 1_545 S
C904 H920 0.931 . S
C905 C904 1.370 1_565 S
C905 C909 1.408 . S
C906 C904 1.363 1_565 S
C906 C907 1.372 . S
C906 C910 1.523 1_565 S
C907 C899 1.503 . S
C907 C906 1.372 . S
C907 C908 1.403 . S
C908 C907 1.403 . S
C908 C909 1.404 . S
C908 C911 1.539 . S
C909 C905 1.408 . S
C909 C908 1.404 . S
C909 H921 0.930 . S
C910 C906 1.523 1_545 S
C910 H922 0.956 . S
C910 H923 0.979 . S
C910 H924 0.961 . S
C911 C908 1.539 . S
C911 H925 0.958 . S
C911 H926 0.961 . S
C911 H927 0.960 . S
H912 C896 0.931 . S
H913 C901 0.929 . S
H914 C902 0.960 . S
H915 C902 0.962 . S
H916 C902 0.960 . S
H917 C903 0.961 . S
H918 C903 0.961 . S
H919 C903 0.961 . S
H920 C904 0.931 . S
H921 C909 0.930 . S
H922 C910 0.956 . S
H923 C910 0.979 . S
H924 C910 0.961 . S
H925 C911 0.958 . S
H926 C911 0.961 . S
H927 C911 0.960 . S
C928 C929 1.391 . S
C928 C930 1.394 . S
C928 H944 0.931 . S
C929 C928 1.391 . S
C929 C933 1.376 . S
C930 C928 1.394 . S
C930 C931 1.369 . S
C930 C934 1.531 . S
C931 C930 1.369 . S
C931 C932 1.410 . S
C931 C939 1.503 . S
C932 C931 1.410 . S
C932 C933 1.392 . S
C932 C935 1.511 . S
C933 C929 1.376 . S
C933 C932 1.392 . S
C933 H945 0.929 . S
C934 C930 1.531 . S
C934 H946 0.960 . S
C934 H947 0.962 . S
C934 H948 0.960 . S
C935 C932 1.511 . S
C935 H949 0.961 . S
C935 H950 0.961 . S
C935 H951 0.961 . S
C936 C937 1.370 . S
C936 C938 1.363 . S
C936 H952 0.931 . S
C937 C936 1.370 . S
C937 C941 1.408 . S
C938 C936 1.363 . S
C938 C939 1.370 . S
C938 C942 1.524 . S
C939 C931 1.503 . S
C939 C938 1.370 . S
C939 C940 1.403 . S
C940 C939 1.403 . S
C940 C941 1.404 . S
C940 C943 1.539 . S
C941 C937 1.408 . S
C941 C940 1.404 . S
C941 H953 0.930 . S
C942 C938 1.524 . S
C942 H954 0.956 . S
C942 H955 0.961 . S
C942 H956 0.961 . S
C943 C940 1.539 . S
C943 H957 0.958 . S
C943 H958 0.961 . S
C943 H959 0.960 . S
H944 C928 0.931 . S
H945 C933 0.929 . S
H946 C934 0.960 . S
H947 C934 0.962 . S
H948 C934 0.960 . S
H949 C935 0.961 . S
H950 C935 0.961 . S
H951 C935 0.961 . S
H952 C936 0.931 . S
H953 C941 0.930 . S
H954 C942 0.956 . S
H955 C942 0.961 . S
H956 C942 0.961 . S
H957 C943 0.958 . S
H958 C943 0.961 . S
H959 C943 0.960 . S
C960 C961 1.391 . S
C960 C962 1.394 . S
C960 H976 0.931 . S
C961 C960 1.391 . S
C961 C965 1.376 . S
C962 C960 1.394 . S
C962 C963 1.369 . S
C962 C966 1.531 . S
C963 C962 1.369 . S
C963 C964 1.410 . S
C963 C971 1.503 . S
C964 C963 1.410 . S
C964 C965 1.392 . S
C964 C967 1.511 . S
C965 C961 1.376 . S
C965 C964 1.392 . S
C965 H977 0.929 . S
C966 C962 1.531 . S
C966 H978 0.960 . S
C966 H979 0.962 . S
C966 H980 0.960 . S
C967 C964 1.511 . S
C967 H981 0.961 . S
C967 H982 0.961 . S
C967 H983 0.961 . S
C968 C969 1.370 . S
C968 C970 1.363 . S
C968 H984 0.931 . S
C969 C968 1.370 . S
C969 C973 1.408 . S
C970 C968 1.363 . S
C970 C971 1.370 . S
C970 C974 1.524 . S
C971 C963 1.503 . S
C971 C970 1.370 . S
C971 C972 1.403 . S
C972 C971 1.403 . S
C972 C973 1.404 . S
C972 C975 1.539 . S
C973 C969 1.408 . S
C973 C972 1.404 . S
C973 H985 0.930 . S
C974 C970 1.524 . S
C974 H986 0.956 . S
C974 H987 0.961 . S
C974 H988 0.961 . S
C975 C972 1.539 . S
C975 H989 0.958 . S
C975 H990 0.961 . S
C975 H991 0.960 . S
H976 C960 0.931 . S
H977 C965 0.929 . S
H978 C966 0.960 . S
H979 C966 0.962 . S
H980 C966 0.960 . S
H981 C967 0.961 . S
H982 C967 0.961 . S
H983 C967 0.961 . S
H984 C968 0.931 . S
H985 C973 0.930 . S
H986 C974 0.956 . S
H987 C974 0.961 . S
H988 C974 0.961 . S
H989 C975 0.958 . S
H990 C975 0.961 . S
H991 C975 0.960 . S
C992 C993 1.391 1_655 S
C992 C994 1.375 1_554 S
C992 H1008 0.931 . S
C993 C992 1.391 1_455 S
C993 C997 1.376 . S
C994 C992 1.375 1_556 S
C994 C995 1.365 1_656 S
C994 C998 1.555 . S
C995 C994 1.365 1_454 S
C995 C996 1.410 . S
C995 C1003 1.503 1_554 S
C996 C995 1.410 . S
C996 C997 1.392 . S
C996 C999 1.511 . S
C997 C993 1.376 . S
C997 C996 1.392 . S
C997 H1009 0.929 . S
C998 C994 1.555 . S
C998 H1010 0.960 . S
C998 H1011 0.962 . S
C998 H1012 0.960 . S
C999 C996 1.511 . S
C999 H1013 0.961 . S
C999 H1014 0.961 . S
C999 H1015 0.961 . S
C1000 C1001 1.369 . S
C1000 C1002 1.363 1_556 S
C1000 H1016 0.931 . S
C1001 C1000 1.369 . S
C1001 C1005 1.409 1_655 S
C1002 C1000 1.363 1_554 S
C1002 C1003 1.370 1_654 S
C1002 C1006 1.524 . S
C1003 C995 1.503 1_556 S
C1003 C1002 1.370 1_456 S
C1003 C1004 1.403 . S
C1004 C1003 1.403 . S
C1004 C1005 1.404 . S
C1004 C1007 1.539 . S
C1005 C1001 1.409 1_455 S
C1005 C1004 1.404 . S
C1005 H1017 0.930 . S
C1006 C1002 1.524 . S
C1006 H1018 0.956 . S
C1006 H1019 0.961 . S
C1006 H1020 0.961 . S
C1007 C1004 1.539 . S
C1007 H1021 0.958 . S
C1007 H1022 0.961 . S
C1007 H1023 0.960 . S
H1008 C992 0.931 . S
H1009 C997 0.929 . S
H1010 C998 0.960 . S
H1011 C998 0.962 . S
H1012 C998 0.960 . S
H1013 C999 0.961 . S
H1014 C999 0.961 . S
H1015 C999 0.961 . S
H1016 C1000 0.931 . S
H1017 C1005 0.930 . S
H1018 C1006 0.956 . S
H1019 C1006 0.961 . S
H1020 C1006 0.961 . S
H1021 C1007 0.958 . S
H1022 C1007 0.961 . S
H1023 C1007 0.960 . S
C1024 C1025 1.391 . S
C1024 C1026 1.394 . S
C1024 H1040 0.931 . S
C1025 C1024 1.391 . S
C1025 C1029 1.376 1_545 S
C1026 C1024 1.394 . S
C1026 C1027 1.369 . S
C1026 C1030 1.531 1_556 S
C1027 C1026 1.369 . S
C1027 C1028 1.410 1_545 S
C1027 C1035 1.503 1_456 S
C1028 C1027 1.410 1_565 S
C1028 C1029 1.392 . S
C1028 C1031 1.511 1_455 S
C1029 C1025 1.376 1_565 S
C1029 C1028 1.392 . S
C1029 H1041 0.929 . S
C1030 C1026 1.531 1_554 S
C1030 H1042 0.960 . S
C1030 H1043 0.962 . S
C1030 H1044 0.960 . S
C1031 C1028 1.511 1_655 S
C1031 H1045 0.961 . S
C1031 H1046 0.961 . S
C1031 H1047 0.961 . S
C1032 C1033 1.370 1_565 S
C1032 C1034 1.363 . S
C1032 H1048 0.931 . S
C1033 C1032 1.370 1_545 S
C1033 C1037 1.408 . S
C1034 C1032 1.363 . S
C1034 C1035 1.370 1_565 S
C1034 C1038 1.524 1_655 S
C1035 C1027 1.503 1_654 S
C1035 C1034 1.370 1_545 S
C1035 C1036 1.403 1_554 S
C1036 C1035 1.403 1_556 S
C1036 C1037 1.404 1_556 S
C1036 C1039 1.539 . S
C1037 C1033 1.408 . S
C1037 C1036 1.404 1_554 S
C1037 H1049 0.930 . S
C1038 C1034 1.524 1_455 S
C1038 H1050 0.956 . S
C1038 H1051 0.961 . S
C1038 H1052 0.960 . S
C1039 C1036 1.539 . S
C1039 H1053 0.958 . S
C1039 H1054 0.961 . S
C1039 H1055 0.960 . S
H1040 C1024 0.931 . S
H1041 C1029 0.929 . S
H1042 C1030 0.960 . S
H1043 C1030 0.962 . S
H1044 C1030 0.960 . S
H1045 C1031 0.961 . S
H1046 C1031 0.961 . S
H1047 C1031 0.961 . S
H1048 C1032 0.931 . S
H1049 C1037 0.930 . S
H1050 C1038 0.956 . S
H1051 C1038 0.961 . S
H1052 C1038 0.960 . S
H1053 C1039 0.958 . S
H1054 C1039 0.961 . S
H1055 C1039 0.960 . S
C1056 C1057 1.391 . S
C1056 C1058 1.394 1_554 S
C1056 H1072 0.944 . S
C1057 C1056 1.391 . S
C1057 C1061 1.376 . S
C1058 C1056 1.394 1_556 S
C1058 C1059 1.369 1_556 S
C1058 C1062 1.531 . S
C1059 C1058 1.369 1_554 S
C1059 C1060 1.410 . S
C1059 C1067 1.503 1_564 S
C1060 C1059 1.410 . S
C1060 C1061 1.392 . S
C1060 C1063 1.511 1_565 S
C1061 C1057 1.376 . S
C1061 C1060 1.392 . S
C1061 H1073 0.929 . S
C1062 C1058 1.531 . S
C1062 H1074 0.960 . S
C1062 H1075 0.962 . S
C1062 H1076 0.960 . S
C1063 C1060 1.511 1_545 S
C1063 H1077 0.961 . S
C1063 H1078 0.961 . S
C1063 H1079 0.961 . S
C1064 C1065 1.370 . S
C1064 C1066 1.363 . S
C1064 H1080 0.931 . S
C1065 C1064 1.370 . S
C1065 C1069 1.408 . S
C1066 C1064 1.363 . S
C1066 C1067 1.370 . S
C1066 C1070 1.524 . S
C1067 C1059 1.503 1_546 S
C1067 C1066 1.370 . S
C1067 C1068 1.403 . S
C1068 C1067 1.403 . S
C1068 C1069 1.404 . S
C1068 C1071 1.539 1_556 S
C1069 C1065 1.408 . S
C1069 C1068 1.404 . S
C1069 H1081 0.930 . S
C1070 C1066 1.524 . S
C1070 H1082 0.956 1_545 S
C1070 H1083 0.961 1_546 S
C1070 H1084 0.961 . S
C1071 C1068 1.539 1_554 S
C1071 H1085 0.958 1_554 S
C1071 H1086 0.961 . S
C1071 H1087 0.960 . S
H1072 C1056 0.944 . S
H1073 C1061 0.929 . S
H1074 C1062 0.960 . S
H1075 C1062 0.962 . S
H1076 C1062 0.960 . S
H1077 C1063 0.961 . S
H1078 C1063 0.961 . S
H1079 C1063 0.961 . S
H1080 C1064 0.931 . S
H1081 C1069 0.930 . S
H1082 C1070 0.956 1_565 S
H1083 C1070 0.961 1_564 S
H1084 C1070 0.961 . S
H1085 C1071 0.958 1_556 S
H1086 C1071 0.961 . S
H1087 C1071 0.960 . S
C1088 C1089 1.391 . S
C1088 C1090 1.394 1_556 S
C1088 H1104 0.933 . S
C1089 C1088 1.391 . S
C1089 C1093 1.376 . S
C1090 C1088 1.394 1_554 S
C1090 C1091 1.369 1_554 S
C1090 C1094 1.531 . S
C1091 C1090 1.369 1_556 S
C1091 C1092 1.410 . S
C1091 C1099 1.503 1_556 S
C1092 C1091 1.410 . S
C1092 C1093 1.392 . S
C1092 C1095 1.511 . S
C1093 C1089 1.376 . S
C1093 C1092 1.392 . S
C1093 H1105 0.929 . S
C1094 C1090 1.531 . S
C1094 H1106 0.960 . S
C1094 H1107 0.962 . S
C1094 H1108 0.960 . S
C1095 C1092 1.511 . S
C1095 H1109 0.961 . S
C1095 H1110 0.961 . S
C1095 H1111 0.961 . S
C1096 C1097 1.370 . S
C1096 C1098 1.363 . S
C1096 H1112 0.931 . S
C1097 C1096 1.370 . S
C1097 C1101 1.408 . S
C1098 C1096 1.363 . S
C1098 C1099 1.370 . S
C1098 C1102 1.524 . S
C1099 C1091 1.503 1_554 S
C1099 C1098 1.370 . S
C1099 C1100 1.403 . S
C1100 C1099 1.403 . S
C1100 C1101 1.404 . S
C1100 C1103 1.539 1_554 S
C1101 C1097 1.408 . S
C1101 C1100 1.404 . S
C1101 H1113 0.930 . S
C1102 C1098 1.524 . S
C1102 H1114 0.956 . S
C1102 H1115 0.961 1_554 S
C1102 H1116 0.961 . S
C1103 C1100 1.539 1_556 S
C1103 H1117 0.958 1_556 S
C1103 H1118 0.961 . S
C1103 H1119 0.960 . S
H1104 C1088 0.933 . S
H1105 C1093 0.929 . S
H1106 C1094 0.960 . S
H1107 C1094 0.962 . S
H1108 C1094 0.960 . S
H1109 C1095 0.961 . S
H1110 C1095 0.961 . S
H1111 C1095 0.961 . S
H1112 C1096 0.931 . S
H1113 C1101 0.930 . S
H1114 C1102 0.956 . S
H1115 C1102 0.961 1_556 S
H1116 C1102 0.961 . S
H1117 C1103 0.958 1_554 S
H1118 C1103 0.961 . S
H1119 C1103 0.960 . S
C1120 C1121 1.372 1_455 S
C1120 C1122 1.394 . S
C1120 H1136 0.931 . S
C1121 C1120 1.372 1_655 S
C1121 C1125 1.397 . S
C1122 C1120 1.394 . S
C1122 C1123 1.369 1_455 S
C1122 C1126 1.531 1_565 S
C1123 C1122 1.369 1_655 S
C1123 C1124 1.410 . S
C1123 C1131 1.503 1_565 S
C1124 C1123 1.410 . S
C1124 C1125 1.392 . S
C1124 C1127 1.511 . S
C1125 C1121 1.397 . S
C1125 C1124 1.392 . S
C1125 H1137 0.929 . S
C1126 C1122 1.531 1_545 S
C1126 H1138 0.960 . S
C1126 H1139 0.962 . S
C1126 H1140 0.960 . S
C1127 C1124 1.511 . S
C1127 H1141 0.961 . S
C1127 H1142 0.961 . S
C1127 H1143 0.961 . S
C1128 C1129 1.370 1_455 S
C1128 C1130 1.363 . S
C1128 H1144 0.931 . S
C1129 C1128 1.370 1_655 S
C1129 C1133 1.408 . S
C1130 C1128 1.363 . S
C1130 C1131 1.370 1_455 S
C1130 C1134 1.524 1_545 S
C1131 C1123 1.503 1_545 S
C1131 C1130 1.370 1_655 S
C1131 C1132 1.403 . S
C1132 C1131 1.403 . S
C1132 C1133 1.404 . S
C1132 C1135 1.539 . S
C1133 C1129 1.408 . S
C1133 C1132 1.404 . S
C1133 H1145 0.930 . S
C1134 C1130 1.524 1_565 S
C1134 H1146 0.956 . S
C1134 H1147 0.961 . S
C1134 H1148 0.961 . S
C1135 C1132 1.539 . S
C1135 H1149 0.958 . S
C1135 H1150 0.961 . S
C1135 H1151 0.960 . S
H1136 C1120 0.931 . S
H1137 C1125 0.929 . S
H1138 C1126 0.960 . S
H1139 C1126 0.962 . S
H1140 C1126 0.960 . S
H1141 C1127 0.961 . S
H1142 C1127 0.961 . S
H1143 C1127 0.961 . S
H1144 C1128 0.931 . S
H1145 C1133 0.930 . S
H1146 C1134 0.956 . S
H1147 C1134 0.961 . S
H1148 C1134 0.961 . S
H1149 C1135 0.958 . S
H1150 C1135 0.961 . S
H1151 C1135 0.960 . S
C1152 C1153 1.385 1_545 S
C1152 C1154 1.394 . S
C1152 H1168 0.931 . S
C1153 C1152 1.385 1_565 S
C1153 C1157 1.382 . S
C1154 C1152 1.394 . S
C1154 C1155 1.369 1_545 S
C1154 C1158 1.531 . S
C1155 C1154 1.369 1_565 S
C1155 C1156 1.410 . S
C1155 C1163 1.503 . S
C1156 C1155 1.410 . S
C1156 C1157 1.392 . S
C1156 C1159 1.511 . S
C1157 C1153 1.382 . S
C1157 C1156 1.392 . S
C1157 H1169 0.929 . S
C1158 C1154 1.531 . S
C1158 H1170 0.960 . S
C1158 H1171 0.962 . S
C1158 H1172 0.960 . S
C1159 C1156 1.511 . S
C1159 H1173 0.961 . S
C1159 H1174 0.961 . S
C1159 H1175 0.961 . S
C1160 C1161 1.370 1_545 S
C1160 C1162 1.363 . S
C1160 H1176 0.931 . S
C1161 C1160 1.370 1_565 S
C1161 C1165 1.408 . S
C1162 C1160 1.363 . S
C1162 C1163 1.370 1_545 S
C1162 C1166 1.524 . S
C1163 C1155 1.503 . S
C1163 C1162 1.370 1_565 S
C1163 C1164 1.403 . S
C1164 C1163 1.403 . S
C1164 C1165 1.404 . S
C1164 C1167 1.539 . S
C1165 C1161 1.408 . S
C1165 C1164 1.404 . S
C1165 H1177 0.930 . S
C1166 C1162 1.524 . S
C1166 H1178 0.956 . S
C1166 H1179 0.961 . S
C1166 H1180 0.961 . S
C1167 C1164 1.539 . S
C1167 H1181 0.958 . S
C1167 H1182 0.961 . S
C1167 H1183 0.960 . S
H1168 C1152 0.931 . S
H1169 C1157 0.929 . S
H1170 C1158 0.960 . S
H1171 C1158 0.962 . S
H1172 C1158 0.960 . S
H1173 C1159 0.961 . S
H1174 C1159 0.961 . S
H1175 C1159 0.961 . S
H1176 C1160 0.931 . S
H1177 C1165 0.930 . S
H1178 C1166 0.956 . S
H1179 C1166 0.961 . S
H1180 C1166 0.961 . S
H1181 C1167 0.958 . S
H1182 C1167 0.961 . S
H1183 C1167 0.960 . S
C1184 C1185 1.391 . S
C1184 C1186 1.394 . S
C1184 H1200 0.931 . S
C1185 C1184 1.391 . S
C1185 C1189 1.376 . S
C1186 C1184 1.394 . S
C1186 C1187 1.369 . S
C1186 C1190 1.531 . S
C1187 C1186 1.369 . S
C1187 C1188 1.410 . S
C1187 C1195 1.503 . S
C1188 C1187 1.410 . S
C1188 C1189 1.392 . S
C1188 C1191 1.511 . S
C1189 C1185 1.376 . S
C1189 C1188 1.392 . S
C1189 H1201 0.929 . S
C1190 C1186 1.531 . S
C1190 H1202 0.960 . S
C1190 H1203 0.962 . S
C1190 H1204 0.960 . S
C1191 C1188 1.511 . S
C1191 H1205 0.961 . S
C1191 H1206 0.961 . S
C1191 H1207 0.961 . S
C1192 C1193 1.370 . S
C1192 C1194 1.363 . S
C1192 H1208 0.931 . S
C1193 C1192 1.370 . S
C1193 C1197 1.408 . S
C1194 C1192 1.363 . S
C1194 C1195 1.370 . S
C1194 C1198 1.524 . S
C1195 C1187 1.503 . S
C1195 C1194 1.370 . S
C1195 C1196 1.403 . S
C1196 C1195 1.403 . S
C1196 C1197 1.404 . S
C1196 C1199 1.539 . S
C1197 C1193 1.408 . S
C1197 C1196 1.404 . S
C1197 H1209 0.930 . S
C1198 C1194 1.524 . S
C1198 H1210 0.956 . S
C1198 H1211 0.961 . S
C1198 H1212 0.961 . S
C1199 C1196 1.539 . S
C1199 H1213 0.958 . S
C1199 H1214 0.961 . S
C1199 H1215 0.960 . S
H1200 C1184 0.931 . S
H1201 C1189 0.929 . S
H1202 C1190 0.960 . S
H1203 C1190 0.962 . S
H1204 C1190 0.960 . S
H1205 C1191 0.961 . S
H1206 C1191 0.961 . S
H1207 C1191 0.961 . S
H1208 C1192 0.931 . S
H1209 C1197 0.930 . S
H1210 C1198 0.956 . S
H1211 C1198 0.961 . S
H1212 C1198 0.961 . S
H1213 C1199 0.958 . S
H1214 C1199 0.961 . S
H1215 C1199 0.960 . S
C1216 C1217 1.391 . S
C1216 C1218 1.394 . S
C1216 H1232 0.931 . S
C1217 C1216 1.391 . S
C1217 C1221 1.376 . S
C1218 C1216 1.394 . S
C1218 C1219 1.369 . S
C1218 C1222 1.531 . S
C1219 C1218 1.369 . S
C1219 C1220 1.410 . S
C1219 C1227 1.503 1_655 S
C1220 C1219 1.410 . S
C1220 C1221 1.392 . S
C1220 C1223 1.511 1_655 S
C1221 C1217 1.376 . S
C1221 C1220 1.392 . S
C1221 H1233 0.929 . S
C1222 C1218 1.531 . S
C1222 H1234 0.960 . S
C1222 H1235 0.962 . S
C1222 H1236 0.960 . S
C1223 C1220 1.511 1_455 S
C1223 H1237 0.961 1_455 S
C1223 H1238 0.961 . S
C1223 H1239 0.961 . S
C1224 C1225 1.370 . S
C1224 C1226 1.363 . S
C1224 H1240 0.931 . S
C1225 C1224 1.370 . S
C1225 C1229 1.408 . S
C1226 C1224 1.363 . S
C1226 C1227 1.370 . S
C1226 C1230 1.524 1_455 S
C1227 C1219 1.503 1_455 S
C1227 C1226 1.370 . S
C1227 C1228 1.403 . S
C1228 C1227 1.403 . S
C1228 C1229 1.404 . S
C1228 C1231 1.539 . S
C1229 C1225 1.408 . S
C1229 C1228 1.404 . S
C1229 H1241 0.930 . S
C1230 C1226 1.524 1_655 S
C1230 H1242 0.956 . S
C1230 H1243 0.961 . S
C1230 H1244 0.961 . S
C1231 C1228 1.539 . S
C1231 H1245 0.958 . S
C1231 H1246 0.961 . S
C1231 H1247 0.960 . S
H1232 C1216 0.931 . S
H1233 C1221 0.929 . S
H1234 C1222 0.960 . S
H1235 C1222 0.962 . S
H1236 C1222 0.960 . S
H1237 C1223 0.961 1_655 S
H1238 C1223 0.961 . S
H1239 C1223 0.961 . S
H1240 C1224 0.931 . S
H1241 C1229 0.930 . S
H1242 C1230 0.956 . S
H1243 C1230 0.961 . S
H1244 C1230 0.961 . S
H1245 C1231 0.958 . S
H1246 C1231 0.961 . S
H1247 C1231 0.960 . S
C225 C7 1.566 . S
C233 C35 1.567 . S
C257 C21 1.585 . S
C265 C49 1.575 . S
C289 C63 1.581 . S
C297 C91 1.572 . S
C321 C105 1.538 . S
C329 C77 1.555 . S
C353 C119 1.584 . S
C361 C147 1.573 . S
C385 C161 1.581 . S
C393 C133 1.571 . S
C417 C203 1.560 . S
C425 C175 1.566 . S
C449 C217 1.542 . S
C457 C189 1.559 . S
C481 C106 1.579 . S
C489 C8 1.597 . S
C513 C22 1.595 . S
C521 C64 1.589 . S
C545 C78 1.596 . S
C553 C36 1.583 . S
C577 C50 1.579 . S
C585 C92 1.592 . S
C609 C218 1.598 . S
C617 C120 1.599 . S
C641 C134 1.580 . S
C649 C176 1.586 . S
C673 C148 1.597 . S
C681 C190 1.599 . S
C705 C204 1.589 . S
C713 C162 1.584 . S
C737 C9 0.849 . S
C745 C65 0.892 . S
C769 C23 0.876 . S
C777 C79 0.891 . S
C801 C93 0.764 . S
C809 C37 0.864 . S
C833 C51 0.924 . S
C841 C107 0.879 . S
C865 C177 0.812 . S
C873 C121 0.891 . S
C897 C191 0.882 . S
C905 C135 0.816 . S
C929 C149 0.826 . S
C937 C205 0.892 . S
C961 C163 0.770 . S
C969 C219 0.850 . S
C993 C6 1.808 . S
C1001 C118 1.787 . S
C1025 C132 1.773 1_545 S
C1033 C20 1.801 . S
C1057 C34 1.784 . S
C1065 C146 1.796 . S
C1089 C160 1.782 . S
C1097 C48 1.797 . S
C1121 C62 1.771 1_655 S
C1129 C174 1.801 . S
C1153 C76 1.770 1_565 S
C1161 C188 1.801 . S
C1185 C202 1.776 . S
C1193 C90 1.797 . S
C1217 C104 1.772 . S
C1225 C216 1.801 . S
