# Generated by pormake.
# Topology osc, (6)-cn, num edge types: 1
# Building blocks:
#     Node 0, Type 0, BuildingBlock: IZENUY_clean_sbu_0, # of connection points: 6
#     Node 1, Type 0, BuildingBlock: IZENUY_clean_sbu_0, # of connection points: 6
#     Node 2, Type 0, BuildingBlock: IZENUY_clean_sbu_0, # of connection points: 6
#     Node 3, Type 0, BuildingBlock: IZENUY_clean_sbu_0, # of connection points: 6
#     Node 4, Type 0, BuildingBlock: IZENUY_clean_sbu_0, # of connection points: 6
#     Node 5, Type 0, BuildingBlock: IZENUY_clean_sbu_0, # of connection points: 6
#     Node 6, Type 0, BuildingBlock: IZENUY_clean_sbu_0, # of connection points: 6
#     Node 7, Type 0, BuildingBlock: IZENUY_clean_sbu_0, # of connection points: 6
#     Edge 8, Type (0, 0), BuildingBlock: XIVTED_clean_linker_0, # of connection points: 2
#     Edge 9, Type (0, 0), BuildingBlock: XIVTED_clean_linker_0, # of connection points: 2
#     Edge 10, Type (0, 0), BuildingBlock: XIVTED_clean_linker_0, # of connection points: 2
#     Edge 11, Type (0, 0), BuildingBlock: XIVTED_clean_linker_0, # of connection points: 2
#     Edge 12, Type (0, 0), BuildingBlock: XIVTED_clean_linker_0, # of connection points: 2
#     Edge 13, Type (0, 0), BuildingBlock: XIVTED_clean_linker_0, # of connection points: 2
#     Edge 14, Type (0, 0), BuildingBlock: XIVTED_clean_linker_0, # of connection points: 2
#     Edge 15, Type (0, 0), BuildingBlock: XIVTED_clean_linker_0, # of connection points: 2
#     Edge 16, Type (0, 0), BuildingBlock: XIVTED_clean_linker_0, # of connection points: 2
#     Edge 17, Type (0, 0), BuildingBlock: XIVTED_clean_linker_0, # of connection points: 2
#     Edge 18, Type (0, 0), BuildingBlock: XIVTED_clean_linker_0, # of connection points: 2
#     Edge 19, Type (0, 0), BuildingBlock: XIVTED_clean_linker_0, # of connection points: 2
#     Edge 20, Type (0, 0), BuildingBlock: XIVTED_clean_linker_0, # of connection points: 2
#     Edge 21, Type (0, 0), BuildingBlock: XIVTED_clean_linker_0, # of connection points: 2
#     Edge 22, Type (0, 0), BuildingBlock: XIVTED_clean_linker_0, # of connection points: 2
#     Edge 23, Type (0, 0), BuildingBlock: XIVTED_clean_linker_0, # of connection points: 2
#     Edge 24, Type (0, 0), BuildingBlock: XIVTED_clean_linker_0, # of connection points: 2
#     Edge 25, Type (0, 0), BuildingBlock: XIVTED_clean_linker_0, # of connection points: 2
#     Edge 26, Type (0, 0), BuildingBlock: XIVTED_clean_linker_0, # of connection points: 2
#     Edge 27, Type (0, 0), BuildingBlock: XIVTED_clean_linker_0, # of connection points: 2
#     Edge 28, Type (0, 0), BuildingBlock: XIVTED_clean_linker_0, # of connection points: 2
#     Edge 29, Type (0, 0), BuildingBlock: XIVTED_clean_linker_0, # of connection points: 2
#     Edge 30, Type (0, 0), BuildingBlock: XIVTED_clean_linker_0, # of connection points: 2
#     Edge 31, Type (0, 0), BuildingBlock: XIVTED_clean_linker_0, # of connection points: 2
# Relax obj value: 0.251
# Max RMSD: 0.250
# Mean RMSD: 0.249
data_MOF--net-osc--node1-IZENUY_clean_sbu_0--edge1-XIVTED_clean_linker_0
_symmetry_space_group_name_H-M    P1
_symmetry_Int_Tables_number       1
_symmetry_cell_setting            triclinic
loop_
_symmetry_equiv_pos_as_xyz
'x, y, z'
_cell_length_a     28.823225
_cell_length_b     47.168474
_cell_length_c     26.48307
_cell_angle_alpha  90.019837
_cell_angle_beta   90.078196
_cell_angle_gamma 89.935205
loop_
_atom_site_label
_atom_site_type_symbol
_atom_site_fract_x
_atom_site_fract_y
_atom_site_fract_z
_atom_type_partial_charge
Fe0 Fe 0.26697 0.05968 0.39128 0.0
Fe1 Fe 0.27967 0.10652 0.31209 0.0
O2 O 0.29432 0.0912 0.37068 0.0
Fe3 Fe 0.33692 0.10783 0.40855 0.0
O4 O 0.37367 0.07724 0.40397 0.0
O5 O 0.32015 0.04569 0.42321 0.0
O6 O 0.28467 0.03998 0.33562 0.0
C7 C 0.27623 0.04749 0.29089 0.0
C8 C 0.27337 0.08625 0.48168 0.0
O9 O 0.26569 0.07289 0.28058 0.0
C10 C 0.28976 0.15414 0.37668 0.0
O11 O 0.20997 0.06878 0.36272 0.0
O12 O 0.22085 0.11167 0.33188 0.0
O13 O 0.31305 0.09552 0.46942 0.0
O14 O 0.24649 0.07672 0.44836 0.0
C15 C 0.37309 0.11218 0.31068 0.0
O16 O 0.29045 0.14325 0.33281 0.0
O17 O 0.30208 0.1397 0.41453 0.0
C18 C 0.19405 0.09232 0.34656 0.0
O19 O 0.33809 0.10175 0.28933 0.0
O20 O 0.36993 0.12236 0.35485 0.0
C21 C 0.36267 0.05279 0.41857 0.0
Fe22 Fe 0.22325 0.96118 0.88701 0.0
Fe23 Fe 0.21168 0.91214 0.81305 0.0
O24 O 0.19705 0.92869 0.87052 0.0
Fe25 Fe 0.15594 0.91251 0.91064 0.0
O26 O 0.11825 0.94262 0.90612 0.0
O27 O 0.17099 0.97543 0.9198 0.0
O28 O 0.20222 0.97855 0.83 0.0
C29 C 0.21339 0.97032 0.78645 0.0
C30 C 0.22186 0.93642 0.97965 0.0
O31 O 0.22647 0.94503 0.77935 0.0
C32 C 0.20244 0.8657 0.87966 0.0
O33 O 0.28 0.95187 0.85769 0.0
O34 O 0.27031 0.90749 0.83386 0.0
O35 O 0.18221 0.92583 0.97031 0.0
O36 O 0.24618 0.94632 0.94446 0.0
C37 C 0.11823 0.90701 0.81307 0.0
O38 O 0.2005 0.87591 0.83545 0.0
O39 O 0.19121 0.88075 0.91708 0.0
C40 C 0.29667 0.92773 0.84553 0.0
O41 O 0.15328 0.91653 0.79041 0.0
O42 O 0.1216 0.8975 0.85789 0.0
C43 C 0.12875 0.96758 0.91784 0.0
Fe44 Fe 0.77144 0.46186 0.13633 0.0
Fe45 Fe 0.78093 0.41304 0.21153 0.0
O46 O 0.79508 0.42852 0.15291 0.0
Fe47 Fe 0.83289 0.41034 0.11138 0.0
O48 O 0.87358 0.43905 0.1128 0.0
O49 O 0.82363 0.4737 0.10072 0.0
O50 O 0.79569 0.47921 0.19153 0.0
C51 C 0.78678 0.47156 0.23603 0.0
C52 C 0.76659 0.43594 0.04475 0.0
O53 O 0.77203 0.4468 0.24501 0.0
C54 C 0.78381 0.36539 0.14619 0.0
O55 O 0.71554 0.45534 0.16874 0.0
O56 O 0.72075 0.41082 0.1937 0.0
O57 O 0.80547 0.42395 0.05256 0.0
O58 O 0.74483 0.44717 0.08067 0.0
C59 C 0.87385 0.40427 0.20726 0.0
O60 O 0.78714 0.3762 0.18985 0.0
O61 O 0.79467 0.37974 0.10779 0.0
C62 C 0.69668 0.43205 0.18151 0.0
O63 O 0.84053 0.41498 0.23133 0.0
O64 O 0.86792 0.39463 0.16286 0.0
C65 C 0.86506 0.46428 0.1009 0.0
Fe66 Fe 0.71097 0.60642 0.71101 0.0
Fe67 Fe 0.65786 0.60822 0.6114 0.0
O68 O 0.69655 0.59058 0.65274 0.0
Fe69 Fe 0.72074 0.55736 0.63631 0.0
O70 O 0.69724 0.54007 0.69183 0.0
O71 O 0.72084 0.57284 0.74481 0.0
O72 O 0.65166 0.60408 0.73144 0.0
C73 C 0.6178 0.61434 0.70759 0.0
C74 C 0.79527 0.58788 0.68063 0.0
O75 O 0.623 0.62386 0.66303 0.0
C76 C 0.72419 0.583 0.54449 0.0
O77 O 0.70375 0.64313 0.68887 0.0
O78 O 0.69531 0.6391 0.60695 0.0
O79 O 0.77673 0.56442 0.6683 0.0
O80 O 0.7709 0.60902 0.69257 0.0
C81 C 0.62688 0.55396 0.60226 0.0
O82 O 0.68499 0.59456 0.55247 0.0
O83 O 0.74655 0.57208 0.58033 0.0
C84 C 0.70622 0.65376 0.645 0.0
O85 O 0.61791 0.57917 0.61382 0.0
O86 O 0.66853 0.54497 0.60118 0.0
C87 C 0.70631 0.54796 0.7362 0.0
Fe88 Fe 0.72684 0.96041 0.63199 0.0
Fe89 Fe 0.65689 0.91265 0.61087 0.0
O90 O 0.69805 0.92911 0.65096 0.0
Fe91 Fe 0.71009 0.91386 0.7103 0.0
O92 O 0.7242 0.94741 0.74214 0.0
O93 O 0.70699 0.98028 0.68652 0.0
O94 O 0.67561 0.97489 0.59715 0.0
C95 C 0.63285 0.96802 0.5994 0.0
C96 C 0.79708 0.9269 0.67929 0.0
O97 O 0.62078 0.94353 0.61253 0.0
C98 C 0.701 0.86592 0.64646 0.0
O99 O 0.74951 0.94313 0.57662 0.0
O100 O 0.68438 0.92429 0.55084 0.0
O101 O 0.76928 0.90785 0.69297 0.0
O102 O 0.78236 0.95078 0.66337 0.0
C103 C 0.61653 0.90987 0.70727 0.0
O104 O 0.6909 0.88021 0.60764 0.0
O105 O 0.69859 0.87718 0.6899 0.0
C106 C 0.72472 0.93371 0.54141 0.0
O107 O 0.62072 0.89921 0.66342 0.0
O108 O 0.65128 0.91955 0.73015 0.0
C109 C 0.71409 0.97283 0.73153 0.0
Fe110 Fe 0.78041 0.10559 0.21033 0.0
Fe111 Fe 0.7655 0.05845 0.13245 0.0
O112 O 0.79315 0.0902 0.15127 0.0
Fe113 Fe 0.83383 0.10698 0.1112 0.0
O114 O 0.86937 0.12118 0.16369 0.0
O115 O 0.83947 0.10089 0.23069 0.0
O116 O 0.76748 0.07196 0.24253 0.0
C117 C 0.77826 0.04658 0.23222 0.0
C118 C 0.78824 0.15337 0.14575 0.0
O119 O 0.78586 0.03907 0.18734 0.0
C120 C 0.76679 0.08497 0.04166 0.0
O121 O 0.72096 0.11064 0.19256 0.0
O122 O 0.70963 0.06743 0.16333 0.0
O123 O 0.79875 0.13892 0.10729 0.0
O124 O 0.79056 0.14235 0.18943 0.0
C125 C 0.85973 0.05194 0.10026 0.0
O126 O 0.74233 0.07521 0.07676 0.0
O127 O 0.80688 0.09479 0.05117 0.0
C128 C 0.69395 0.09118 0.17862 0.0
O129 O 0.81723 0.04453 0.098 0.0
O130 O 0.87098 0.07657 0.11348 0.0
C131 C 0.87388 0.11099 0.20784 0.0
Fe132 Fe 0.20494 0.60855 0.80925 0.0
Fe133 Fe 0.22456 0.55957 0.88245 0.0
O134 O 0.19568 0.59172 0.86796 0.0
Fe135 Fe 0.15734 0.60745 0.91215 0.0
O136 O 0.11854 0.62268 0.86373 0.0
O137 O 0.14483 0.60481 0.79259 0.0
O138 O 0.21567 0.57571 0.77363 0.0
C139 C 0.20608 0.55004 0.78288 0.0
C140 C 0.20118 0.65455 0.87791 0.0
O141 O 0.20122 0.54153 0.82761 0.0
C142 C 0.22826 0.58388 0.97519 0.0
O143 O 0.26531 0.61307 0.82294 0.0
O144 O 0.27863 0.56938 0.84864 0.0
O145 O 0.19226 0.63944 0.91601 0.0
O146 O 0.19635 0.64461 0.83374 0.0
C147 C 0.13233 0.55201 0.91993 0.0
O148 O 0.25075 0.57491 0.93788 0.0
O149 O 0.18783 0.59398 0.96904 0.0
C150 C 0.29316 0.59335 0.83319 0.0
O151 O 0.1749 0.54463 0.919 0.0
O152 O 0.12033 0.57702 0.91017 0.0
C153 C 0.11193 0.61432 0.81873 0.0
Fe154 Fe 0.26717 0.46053 0.38333 0.0
Fe155 Fe 0.33443 0.41235 0.41124 0.0
O156 O 0.29585 0.4285 0.36771 0.0
Fe157 Fe 0.2862 0.41221 0.30854 0.0
O158 O 0.27533 0.44537 0.27394 0.0
O159 O 0.29012 0.47903 0.32891 0.0
O160 O 0.31714 0.4751 0.41991 0.0
C161 C 0.35969 0.46769 0.42004 0.0
C162 C 0.19816 0.42726 0.3335 0.0
O163 O 0.37156 0.44273 0.40982 0.0
C164 C 0.29029 0.3656 0.37584 0.0
O165 O 0.24136 0.44473 0.43847 0.0
O166 O 0.30451 0.42544 0.46872 0.0
O167 O 0.22587 0.40763 0.32231 0.0
O168 O 0.21287 0.45107 0.3496 0.0
C169 C 0.37929 0.40632 0.31753 0.0
O170 O 0.29937 0.38039 0.41436 0.0
O171 O 0.29488 0.37594 0.33194 0.0
C172 C 0.26421 0.43561 0.47546 0.0
O173 O 0.37281 0.39746 0.36222 0.0
O174 O 0.34627 0.41606 0.29175 0.0
C175 C 0.28499 0.47094 0.28396 0.0
H176 H 0.63729 1.00406 0.5178 0.0
H177 H 0.35945 0.01654 0.49976 0.0
H178 H 0.54327 0.97055 0.62933 0.0
H179 H 0.45293 0.05215 0.38971 0.0
H180 H 0.42654 0.99803 0.54642 0.0
H181 H 0.57045 0.02322 0.47121 0.0
C182 C 0.60274 1.00146 0.53317 0.0
C183 C 0.59574 0.98579 0.57744 0.0
C184 C 0.43234 1.00963 0.51174 0.0
C185 C 0.51921 1.00666 0.52381 0.0
C186 C 0.39398 0.01978 0.48473 0.0
C187 C 0.40065 0.03579 0.44079 0.0
C188 C 0.47758 0.01556 0.49459 0.0
C189 C 0.44628 0.03991 0.42354 0.0
C190 C 0.56453 0.01196 0.50624 0.0
C191 C 0.55013 0.98248 0.5952 0.0
N192 N 0.48294 0.03006 0.4506 0.0
N193 N 0.51367 0.99259 0.56819 0.0
H194 H 0.855 0.01471 0.02035 0.0
H195 H 0.13266 1.00639 0.99522 0.0
H196 H 0.95032 0.05172 0.12734 0.0
H197 H 0.038 0.96639 0.89099 0.0
H198 H 0.06597 0.02526 0.04198 0.0
H199 H 0.92144 0.99602 0.97276 0.0
C200 C 0.8898 0.01822 0.03452 0.0
C201 C 0.89722 0.03472 0.0778 0.0
C202 C 0.05982 0.01261 1.00852 0.0
C203 C 0.97323 0.01434 0.02296 0.0
C204 C 0.09792 1.00225 0.98143 0.0
C205 C 0.0908 0.98485 0.93924 0.0
C206 C 0.01445 1.0055 0.99318 0.0
C207 C 0.04497 0.97967 0.92351 0.0
C208 C 0.92775 1.00797 1.007 0.0
C209 C 0.94311 0.03915 0.094 0.0
N210 N 0.00859 0.98974 0.95065 0.0
N211 N 0.9793 0.02925 0.06642 0.0
H212 H 0.13893 0.51288 0.99688 0.0
H213 H 0.86185 0.50586 0.0281 0.0
H214 H 0.04182 0.55109 0.89319 0.0
H215 H 0.95694 0.45813 0.12111 0.0
H216 H 0.9282 0.52498 0.98128 0.0
H217 H 0.07331 0.49233 0.04345 0.0
C218 C 0.10393 0.5163 0.98319 0.0
C219 C 0.09571 0.53372 0.94127 0.0
C220 C 0.93454 0.51046 0.0122 0.0
C221 C 0.02068 0.51124 0.99496 0.0
C222 C 0.89668 0.49989 0.03933 0.0
C223 C 0.9039 0.48039 0.07845 0.0
C224 C 0.97985 0.50155 0.0245 0.0
C225 C 0.94982 0.47303 0.09096 0.0
C226 C 0.06645 0.50495 1.01012 0.0
C227 C 0.04961 0.53794 0.92562 0.0
N228 N 0.98597 0.48349 0.06398 0.0
N229 N 0.01391 0.52705 0.95266 0.0
H230 H 0.53659 0.55644 0.63018 0.0
H231 H 0.44827 0.4712 0.38775 0.0
H232 H 0.62828 0.51576 0.52385 0.0
H233 H 0.35576 0.50352 0.5019 0.0
H234 H 0.51412 0.49051 0.43423 0.0
H235 H 0.46996 0.53805 0.58362 0.0
C236 C 0.54264 0.54312 0.59748 0.0
C237 C 0.58802 0.53752 0.58086 0.0
C238 C 0.47948 0.49371 0.44898 0.0
C239 C 0.51178 0.51705 0.52655 0.0
C240 C 0.44183 0.48297 0.42219 0.0
C241 C 0.39657 0.48584 0.44105 0.0
C242 C 0.47198 0.50739 0.49526 0.0
C243 C 0.39006 0.50118 0.48579 0.0
C244 C 0.50457 0.53285 0.57069 0.0
C245 C 0.59392 0.52029 0.53825 0.0
N246 N 0.4275 0.51118 0.51171 0.0
N247 N 0.55617 0.5109 0.51222 0.0
H248 H 0.23686 0.99457 0.294 0.0
H249 H 0.30531 0.95731 0.01073 0.0
H250 H 0.30884 0.05224 0.19522 0.0
H251 H 0.17052 0.93374 0.06798 0.0
H252 H 0.32242 0.98046 0.09082 0.0
H253 H 0.22666 0.96161 0.22234 0.0
C254 C 0.25118 1.00001 0.25748 0.0
C255 C 0.27373 0.02608 0.25027 0.0
C256 C 0.28942 0.9698 0.08609 0.0
C257 C 0.26299 0.98857 0.16923 0.0
C258 C 0.27956 0.95643 0.04045 0.0
C259 C 0.23595 0.94391 0.03205 0.0
C260 C 0.25589 0.97037 0.12426 0.0
C261 C 0.20443 0.94324 0.07256 0.0
C262 C 0.24509 0.98136 0.21678 0.0
C263 C 0.29116 0.03238 0.20221 0.0
N264 N 0.21484 0.95659 0.1169 0.0
N265 N 0.28569 0.01369 0.16362 0.0
H266 H 0.15955 0.01646 0.76149 0.0
H267 H 0.33706 0.07291 0.55416 0.0
H268 H 0.28483 0.97218 0.7201 0.0
H269 H 0.18944 0.0788 0.52874 0.0
H270 H 0.32206 0.04808 0.63355 0.0
H271 H 0.17369 0.05044 0.69217 0.0
C272 C 0.19005 0.01404 0.73803 0.0
C273 C 0.22082 0.99138 0.74598 0.0
C274 C 0.293 0.05539 0.61105 0.0
C275 C 0.23783 0.03035 0.66858 0.0
C276 C 0.30146 0.06984 0.56603 0.0
C277 C 0.2644 0.0779 0.5347 0.0
C278 C 0.2472 0.04941 0.6254 0.0
C279 C 0.21897 0.07286 0.55176 0.0
C280 C 0.19804 0.03332 0.6987 0.0
C281 C 0.25993 0.98913 0.71474 0.0
N282 N 0.21158 0.0588 0.59594 0.0
N283 N 0.26749 1.00846 0.67769 0.0
H284 H 0.67602 0.5875 0.45422 0.0
H285 H 0.8184 0.4651 0.33186 0.0
H286 H 0.80745 0.56057 0.51641 0.0
H287 H 0.75077 0.52532 0.23394 0.0
H288 H 0.80871 0.49807 0.40261 0.0
H289 H 0.69704 0.56449 0.37395 0.0
C290 C 0.70964 0.57742 0.45075 0.0
C291 C 0.73966 0.57566 0.49252 0.0
C292 C 0.79654 0.50426 0.36549 0.0
C293 C 0.76314 0.54879 0.40162 0.0
C294 C 0.80201 0.48546 0.32526 0.0
C295 C 0.78574 0.49269 0.27714 0.0
C296 C 0.77323 0.53009 0.35794 0.0
C297 C 0.76432 0.51921 0.2705 0.0
C298 C 0.72149 0.56421 0.40503 0.0
C299 C 0.78276 0.56215 0.48569 0.0
N300 N 0.75789 0.53683 0.31073 0.0
N301 N 0.79271 0.54876 0.44165 0.0
H302 H 0.81399 0.43053 0.95432 0.0
H303 H 0.67661 0.55528 0.8325 0.0
H304 H 0.68414 0.45967 0.01696 0.0
H305 H 0.74026 0.49368 0.73422 0.0
H306 H 0.68555 0.52228 0.90333 0.0
H307 H 0.7936 0.45388 0.87415 0.0
C308 C 0.78081 0.44116 0.95097 0.0
C309 C 0.7511 0.44344 0.99284 0.0
C310 C 0.69704 0.51583 0.86613 0.0
C311 C 0.72839 0.4707 0.90206 0.0
C312 C 0.69203 0.53465 0.82586 0.0
C313 C 0.70739 0.52703 0.7776 0.0
C314 C 0.71894 0.48956 0.85845 0.0
C315 C 0.72749 0.50012 0.7709 0.0
C316 C 0.76933 0.45457 0.90531 0.0
C317 C 0.70859 0.45767 0.98616 0.0
N318 N 0.73347 0.48246 0.81114 0.0
N319 N 0.69903 0.47123 0.94218 0.0
H320 H 0.68316 0.06441 1.01028 0.0
H321 H 0.75361 0.02567 0.72818 0.0
H322 H 0.81845 0.08733 0.95358 0.0
H323 H 0.68049 0.96853 0.82696 0.0
H324 H 0.76317 0.05895 0.79941 0.0
H325 H 0.66633 0.04094 0.93038 0.0
C326 C 0.70906 0.06511 0.9807 0.0
C327 C 0.75274 0.07752 0.98922 0.0
C328 C 0.74462 0.03925 0.80507 0.0
C329 C 0.73313 0.05069 0.89727 0.0
C330 C 0.7389 0.02041 0.76461 0.0
C331 C 0.71624 0.99438 0.77195 0.0
C332 C 0.72625 0.03229 0.85252 0.0
C333 C 0.6983 0.98834 0.81989 0.0
C334 C 0.69937 0.05155 0.93518 0.0
C335 C 0.78447 0.07793 0.94891 0.0
N336 N 0.70343 1.00722 0.85826 0.0
N337 N 0.77423 0.0644 0.90471 0.0
H338 H 0.80847 0.95416 0.51035 0.0
H339 H 0.73936 0.9936 0.22825 0.0
H340 H 0.6729 0.93188 0.4532 0.0
H341 H 0.81066 0.05105 0.32831 0.0
H342 H 0.72936 0.96028 0.29926 0.0
H343 H 0.82529 0.978 0.43087 0.0
C344 C 0.7825 0.95366 0.48075 0.0
C345 C 0.73875 0.94132 0.48906 0.0
C346 C 0.74761 0.98006 0.30527 0.0
C347 C 0.75838 0.96856 0.39754 0.0
C348 C 0.75359 0.99893 0.26493 0.0
C349 C 0.7759 0.02505 0.27266 0.0
C350 C 0.76538 0.98707 0.35301 0.0
C351 C 0.79318 0.03117 0.32091 0.0
C352 C 0.79219 0.96744 0.43548 0.0
C353 C 0.70694 0.9412 0.44871 0.0
N354 N 0.78785 0.01225 0.35917 0.0
N355 N 0.71721 0.95491 0.40472 0.0
H356 H 0.17694 0.55781 0.68607 0.0
H357 H 0.30967 0.42979 0.56697 0.0
H358 H 0.23889 0.49546 0.78436 0.0
H359 H 0.18337 0.46236 0.50074 0.0
H360 H 0.2898 0.45414 0.64619 0.0
H361 H 0.18505 0.52478 0.61519 0.0
C362 C 0.1919 0.53705 0.69273 0.0
C363 C 0.20709 0.52927 0.74105 0.0
C364 C 0.26617 0.45541 0.61444 0.0
C365 C 0.21748 0.49168 0.66008 0.0
C366 C 0.27736 0.44146 0.56928 0.0
C367 C 0.24852 0.44426 0.52671 0.0
C368 C 0.22644 0.47266 0.61656 0.0
C369 C 0.2071 0.4598 0.53214 0.0
C370 C 0.19637 0.5182 0.6524 0.0
C371 C 0.22637 0.50213 0.74767 0.0
N372 N 0.19785 0.47385 0.57572 0.0
N373 N 0.23177 0.48443 0.70742 0.0
H374 H 0.31 0.55778 0.99934 0.0
H375 H 0.252 0.52542 0.28745 0.0
H376 H 0.18397 0.58938 0.06733 0.0
H377 H 0.31398 0.46431 0.18683 0.0
H378 H 0.24304 0.55834 0.21588 0.0
H379 H 0.32899 0.53378 0.07815 0.0
C380 C 0.28668 0.56023 0.03109 0.0
C381 C 0.24478 0.57532 0.02619 0.0
C382 C 0.25906 0.53784 0.20984 0.0
C383 C 0.26689 0.54786 0.11684 0.0
C384 C 0.26445 0.51916 0.25051 0.0
C385 C 0.28371 0.49212 0.24285 0.0
C386 C 0.27428 0.52966 0.1617 0.0
C387 C 0.29879 0.4849 0.19422 0.0
C388 C 0.29756 0.54635 0.07599 0.0
C389 C 0.21642 0.57785 0.06914 0.0
N390 N 0.29396 0.5036 0.15554 0.0
N391 N 0.22779 0.56401 0.11266 0.0
H392 H 0.44914 0.14492 0.33029 0.0
H393 H 0.62206 0.05317 0.16596 0.0
H394 H 0.39945 0.07846 0.23204 0.0
H395 H 0.65162 0.13904 0.21297 0.0
H396 H 0.54101 0.0601 0.19188 0.0
H397 H 0.52542 0.1412 0.29073 0.0
C398 C 0.45422 0.12973 0.3001 0.0
C399 C 0.41803 0.11203 0.28433 0.0
C400 C 0.56535 0.07743 0.19588 0.0
C401 C 0.50518 0.10733 0.23951 0.0
C402 C 0.61151 0.07349 0.18116 0.0
C403 C 0.64387 0.09537 0.188 0.0
C404 C 0.55192 0.10326 0.218 0.0
C405 C 0.62819 0.12136 0.20764 0.0
C406 C 0.49766 0.12765 0.27745 0.0
C407 C 0.42645 0.09265 0.24506 0.0
N408 N 0.58356 0.12443 0.22252 0.0
N409 N 0.4694 0.09055 0.22434 0.0
H410 H 0.83687 0.87896 0.71694 0.0
H411 H 0.09366 0.93936 0.73216 0.0
H412 H 0.87077 0.96362 0.6667 0.0
H413 H 0.03977 0.87672 0.83544 0.0
H414 H 0.01695 0.94312 0.69313 0.0
H415 H 0.91651 0.87254 0.74454 0.0
C416 C 0.86109 0.89622 0.71129 0.0
C417 C 0.8468 0.92214 0.6901 0.0
C418 C 0.02212 0.92846 0.72409 0.0
C419 C 0.93838 0.91459 0.7216 0.0
C420 C 0.06584 0.92611 0.74621 0.0
C421 C 0.07302 0.90761 0.78708 0.0
C422 C 0.98562 0.91187 0.74247 0.0
C423 C 0.03569 0.89124 0.80409 0.0
C424 C 0.90657 0.89246 0.72727 0.0
C425 C 0.88015 0.94343 0.68322 0.0
N426 N 0.99352 0.8937 0.78157 0.0
N427 N 0.92454 0.93923 0.69919 0.0
H428 H 0.12368 0.4624 0.35302 0.0
H429 H 0.95161 0.37534 0.17696 0.0
H430 H 0.15988 0.38216 0.28468 0.0
H431 H 0.90227 0.43437 0.28952 0.0
H432 H 0.02989 0.37991 0.21186 0.0
H433 H 0.04298 0.45503 0.32608 0.0
C434 C 0.1147 0.44325 0.33266 0.0
C435 C 0.14868 0.423 0.32087 0.0
C436 C 0.00176 0.39163 0.22919 0.0
C437 C 0.05707 0.41461 0.28971 0.0
C438 C 0.95715 0.38901 0.20928 0.0
C439 C 0.92039 0.40438 0.23047 0.0
C440 C 0.00973 0.41012 0.26992 0.0
C441 C 0.92957 0.42194 0.27222 0.0
C442 C 0.06874 0.43903 0.31743 0.0
C443 C 0.13505 0.39848 0.29451 0.0
N444 N 0.97344 0.42456 0.29029 0.0
N445 N 0.09048 0.39512 0.27947 0.0
H446 H 0.33067 0.63916 0.78587 0.0
H447 H 0.59107 0.58379 0.78988 0.0
H448 H 0.36818 0.55809 0.8502 0.0
H449 H 0.53897 0.64278 0.67867 0.0
H450 H 0.51291 0.57937 0.82446 0.0
H451 H 0.41038 0.64576 0.75905 0.0
C452 C 0.35568 0.62272 0.79469 0.0
C453 C 0.34247 0.59782 0.82008 0.0
C454 C 0.51873 0.59338 0.7927 0.0
C455 C 0.43422 0.60557 0.78935 0.0
C456 C 0.56332 0.59614 0.77313 0.0
C457 C 0.57155 0.6138 0.73134 0.0
C458 C 0.48223 0.60867 0.77082 0.0
C459 C 0.53418 0.62897 0.71088 0.0
C460 C 0.40121 0.62656 0.77909 0.0
C461 C 0.37673 0.57748 0.83048 0.0
N462 N 0.49108 0.6261 0.73093 0.0
N463 N 0.4212 0.58181 0.81502 0.0
H464 H 0.59076 0.94569 0.7826 0.0
H465 H 0.34022 0.87922 0.81617 0.0
H466 H 0.53877 0.87798 0.68855 0.0
H467 H 0.36696 0.96748 0.84905 0.0
H468 H 0.41928 0.87415 0.78592 0.0
H469 H 0.51444 0.94968 0.82221 0.0
C470 C 0.56338 0.93146 0.77063 0.0
C471 C 0.57104 0.91134 0.73235 0.0
C472 C 0.40789 0.89457 0.79999 0.0
C473 C 0.48414 0.9158 0.77776 0.0
C474 C 0.36279 0.89755 0.81754 0.0
C475 C 0.34657 0.92402 0.83453 0.0
C476 C 0.43745 0.91804 0.80003 0.0
C477 C 0.37786 0.94677 0.83598 0.0
C478 C 0.51991 0.93392 0.79306 0.0
C479 C 0.53428 0.89373 0.71788 0.0
N480 N 0.42196 0.94329 0.81867 0.0
N481 N 0.49237 0.89626 0.74087 0.0
H482 H 0.12243 0.05401 0.35859 0.0
H483 H 0.95111 0.14242 0.1853 0.0
H484 H 0.15153 0.13956 0.30965 0.0
H485 H 0.90057 0.07808 0.28725 0.0
H486 H 0.02745 0.13904 0.22556 0.0
H487 H 0.04208 0.05996 0.32922 0.0
C488 C 0.11191 0.07408 0.34232 0.0
C489 C 0.14399 0.09614 0.33604 0.0
C490 C -0.00055 0.12586 0.23935 0.0
C491 C 0.0529 0.10285 0.30178 0.0
C492 C 0.95602 0.12774 0.2163 0.0
C493 C 0.91949 0.11064 0.23313 0.0
C494 C 0.00657 0.10634 0.27873 0.0
C495 C 0.92775 0.09186 0.2734 0.0
C496 C 0.06617 0.07744 0.32553 0.0
C497 C 0.12833 0.12176 0.31475 0.0
N498 N 0.97058 0.08999 0.29454 0.0
N499 N 0.08417 0.12425 0.29781 0.0
H500 H 0.08752 0.62467 0.72108 0.0
H501 H 0.84407 0.55175 0.74021 0.0
H502 H 0.03083 0.60249 0.86646 0.0
H503 H 0.85685 0.62815 0.65198 0.0
H504 H 0.92248 0.55985 0.77414 0.0
H505 H 0.01057 0.61746 0.68306 0.0
C506 C 0.0587 0.6186 0.74497 0.0
C507 C 0.06512 0.6143 0.79691 0.0
C508 C 0.90816 0.57453 0.74676 0.0
C509 C 0.97859 0.60489 0.7536 0.0
C510 C 0.86401 0.56974 0.72699 0.0
C511 C 0.84466 0.58924 0.69312 0.0
C512 C 0.93311 0.59852 0.73141 0.0
C513 C 0.87109 0.61263 0.67786 0.0
C514 C 0.01516 0.61441 0.7233 0.0
C515 C 0.027 0.60624 0.82634 0.0
N516 N 0.91434 0.6166 0.69695 0.0
N517 N 0.98532 0.60129 0.80408 0.0
H518 H 0.40378 0.39645 0.21978 0.0
H519 H 0.64824 0.46843 0.24094 0.0
H520 H 0.46025 0.4184 0.36557 0.0
H521 H 0.63455 0.3922 0.15231 0.0
H522 H 0.56951 0.46081 0.27415 0.0
H523 H 0.48083 0.4037 0.18219 0.0
C524 C 0.43256 0.4025 0.24384 0.0
C525 C 0.42608 0.40664 0.29579 0.0
C526 C 0.5837 0.44608 0.24684 0.0
C527 C 0.51272 0.41612 0.25297 0.0
C528 C 0.62806 0.45058 0.22749 0.0
C529 C 0.64723 0.43098 0.19372 0.0
C530 C 0.55838 0.42226 0.23115 0.0
C531 C 0.62046 0.40779 0.17813 0.0
C532 C 0.47615 0.40671 0.22242 0.0
C533 C 0.46415 0.41471 0.32545 0.0
N534 N 0.57704 0.40409 0.1968 0.0
N535 N 0.50588 0.41966 0.30344 0.0
H536 H 0.30434 0.18815 0.4599 0.0
H537 H 0.25463 0.33034 0.30443 0.0
H538 H 0.25683 0.19071 0.30529 0.0
H539 H 0.30513 0.33066 0.45794 0.0
H540 H 0.24725 0.27903 0.30837 0.0
H541 H 0.29728 0.23991 0.46399 0.0
C542 C 0.29202 0.19952 0.42698 0.0
C543 C 0.28171 0.18505 0.38194 0.0
C544 C 0.2597 0.29024 0.3414 0.0
C545 C 0.27359 0.24422 0.38643 0.0
C546 C 0.26396 0.31961 0.33916 0.0
C547 C 0.28111 0.33483 0.3807 0.0
C548 C 0.27301 0.27573 0.38539 0.0
C549 C 0.29197 0.31976 0.42493 0.0
C550 C 0.28807 0.22907 0.42935 0.0
C551 C 0.26574 0.20092 0.3406 0.0
N552 N 0.28823 0.29097 0.42594 0.0
N553 N 0.26247 0.22958 0.34378 0.0
H554 H 0.18579 0.83192 0.9628 0.0
H555 H 0.23925 0.68986 0.80839 0.0
H556 H 0.2382 0.82918 0.81025 0.0
H557 H 0.18475 0.68917 0.96009 0.0
H558 H 0.24725 0.7411 0.81333 0.0
H559 H 0.19293 0.78011 0.96731 0.0
C560 C 0.19927 0.8205 0.9305 0.0
C561 C 0.21083 0.8349 0.88581 0.0
C562 C 0.23379 0.72984 0.84578 0.0
C563 C 0.21904 0.77576 0.89075 0.0
C564 C 0.22917 0.70051 0.84294 0.0
C565 C 0.21071 0.68522 0.88363 0.0
C566 C 0.21945 0.74425 0.88949 0.0
C567 C 0.19893 0.70015 0.92772 0.0
C568 C 0.20323 0.79093 0.93307 0.0
C569 C 0.22822 0.819 0.84522 0.0
N570 N 0.20298 0.72893 0.92929 0.0
N571 N 0.23148 0.79038 0.84858 0.0
H572 H 0.79907 0.18757 0.06209 0.0
H573 H 0.75039 0.32983 0.21865 0.0
H574 H 0.75866 0.18997 0.21893 0.0
H575 H 0.79798 0.33022 0.06418 0.0
H576 H 0.74489 0.27838 0.21538 0.0
H577 H 0.79111 0.23931 0.0584 0.0
C578 C 0.78815 0.1989 0.09562 0.0
C579 C 0.78 0.18435 0.14107 0.0
C580 C 0.75627 0.28964 0.182 0.0
C581 C 0.77081 0.24357 0.13703 0.0
C582 C 0.75938 0.31911 0.18382 0.0
C583 C 0.77517 0.33445 0.14181 0.0
C584 C 0.76927 0.27513 0.13791 0.0
C585 C 0.78581 0.3193 0.09757 0.0
C586 C 0.7837 0.22845 0.09348 0.0
C587 C 0.76582 0.20021 0.18322 0.0
N588 N 0.78311 0.29044 0.09693 0.0
N589 N 0.76194 0.22886 0.1802 0.0
H590 H 0.73303 0.83042 0.71992 0.0
H591 H 0.69268 0.68787 0.56151 0.0
H592 H 0.68802 0.8306 0.56441 0.0
H593 H 0.73677 0.69055 0.71727 0.0
H594 H 0.69742 0.73979 0.55834 0.0
H595 H 0.74107 0.77911 0.7162 0.0
C596 C 0.72496 0.81968 0.68484 0.0
C597 C 0.70931 0.83492 0.64258 0.0
C598 C 0.70642 0.72895 0.59304 0.0
C599 C 0.71834 0.77573 0.63808 0.0
C600 C 0.70388 0.69929 0.59484 0.0
C601 C 0.71389 0.68477 0.63991 0.0
C602 C 0.71916 0.74417 0.63656 0.0
C603 C 0.72822 0.70076 0.68185 0.0
C604 C 0.72963 0.79028 0.68272 0.0
C605 C 0.69998 0.81975 0.598 0.0
N606 N 0.73012 0.72948 0.67922 0.0
N607 N 0.70424 0.79096 0.59703 0.0
loop_
_geom_bond_atom_site_label_1
_geom_bond_atom_site_label_2
_geom_bond_distance
_geom_bond_site_symmetry_2
_ccdc_geom_bond_type
Fe0 O2 1.918 . S
Fe0 O5 1.997 . S
Fe0 O6 2.002 . S
Fe0 O11 1.976 . S
Fe0 O14 1.996 . S
Fe1 O2 1.918 . S
Fe1 O9 1.997 . S
Fe1 O12 1.996 . S
Fe1 O16 1.976 . S
Fe1 O19 2.002 . S
O2 Fe0 1.918 . S
O2 Fe1 1.918 . S
O2 Fe3 1.918 . S
Fe3 O2 1.918 . S
Fe3 O4 2.002 . S
Fe3 O13 1.976 . S
Fe3 O17 1.996 . S
Fe3 O20 1.997 . S
O4 Fe3 2.002 . S
O4 C21 1.295 . S
O5 Fe0 1.997 . S
O5 C21 1.235 . S
O6 Fe0 2.002 . S
O6 C7 1.295 . S
C7 O6 1.295 . S
C7 O9 1.235 . S
C8 O13 1.287 . S
C8 O14 1.255 . S
O9 Fe1 1.997 . S
O9 C7 1.235 . S
C10 O16 1.287 . S
C10 O17 1.255 . S
O11 Fe0 1.976 . S
O11 C18 1.287 . S
O12 Fe1 1.996 . S
O12 C18 1.255 . S
O13 Fe3 1.976 . S
O13 C8 1.287 . S
O14 Fe0 1.996 . S
O14 C8 1.255 . S
C15 O19 1.295 . S
C15 O20 1.235 . S
O16 Fe1 1.976 . S
O16 C10 1.287 . S
O17 Fe3 1.996 . S
O17 C10 1.255 . S
C18 O11 1.287 . S
C18 O12 1.255 . S
O19 Fe1 2.002 . S
O19 C15 1.295 . S
O20 Fe3 1.997 . S
O20 C15 1.235 . S
C21 O4 1.295 . S
C21 O5 1.235 . S
Fe22 O24 1.918 . S
Fe22 O27 1.997 . S
Fe22 O28 2.002 . S
Fe22 O33 1.976 . S
Fe22 O36 1.996 . S
Fe23 O24 1.918 . S
Fe23 O31 1.997 . S
Fe23 O34 1.996 . S
Fe23 O38 1.976 . S
Fe23 O41 2.002 . S
O24 Fe22 1.918 . S
O24 Fe23 1.918 . S
O24 Fe25 1.918 . S
Fe25 O24 1.918 . S
Fe25 O26 2.002 . S
Fe25 O35 1.976 . S
Fe25 O39 1.996 . S
Fe25 O42 1.997 . S
O26 Fe25 2.002 . S
O26 C43 1.295 . S
O27 Fe22 1.997 . S
O27 C43 1.235 . S
O28 Fe22 2.002 . S
O28 C29 1.295 . S
C29 O28 1.295 . S
C29 O31 1.235 . S
C30 O35 1.287 . S
C30 O36 1.255 . S
O31 Fe23 1.997 . S
O31 C29 1.235 . S
C32 O38 1.287 . S
C32 O39 1.255 . S
O33 Fe22 1.976 . S
O33 C40 1.287 . S
O34 Fe23 1.996 . S
O34 C40 1.255 . S
O35 Fe25 1.976 . S
O35 C30 1.287 . S
O36 Fe22 1.996 . S
O36 C30 1.255 . S
C37 O41 1.295 . S
C37 O42 1.235 . S
O38 Fe23 1.976 . S
O38 C32 1.287 . S
O39 Fe25 1.996 . S
O39 C32 1.255 . S
C40 O33 1.287 . S
C40 O34 1.255 . S
O41 Fe23 2.002 . S
O41 C37 1.295 . S
O42 Fe25 1.997 . S
O42 C37 1.235 . S
C43 O26 1.295 . S
C43 O27 1.235 . S
Fe44 O46 1.918 . S
Fe44 O49 1.997 . S
Fe44 O50 2.002 . S
Fe44 O55 1.976 . S
Fe44 O58 1.996 . S
Fe45 O46 1.918 . S
Fe45 O53 1.997 . S
Fe45 O56 1.996 . S
Fe45 O60 1.976 . S
Fe45 O63 2.002 . S
O46 Fe44 1.918 . S
O46 Fe45 1.918 . S
O46 Fe47 1.918 . S
Fe47 O46 1.918 . S
Fe47 O48 2.002 . S
Fe47 O57 1.976 . S
Fe47 O61 1.996 . S
Fe47 O64 1.997 . S
O48 Fe47 2.002 . S
O48 C65 1.295 . S
O49 Fe44 1.997 . S
O49 C65 1.235 . S
O50 Fe44 2.002 . S
O50 C51 1.295 . S
C51 O50 1.295 . S
C51 O53 1.235 . S
C52 O57 1.287 . S
C52 O58 1.255 . S
O53 Fe45 1.997 . S
O53 C51 1.235 . S
C54 O60 1.287 . S
C54 O61 1.255 . S
O55 Fe44 1.976 . S
O55 C62 1.287 . S
O56 Fe45 1.996 . S
O56 C62 1.255 . S
O57 Fe47 1.976 . S
O57 C52 1.287 . S
O58 Fe44 1.996 . S
O58 C52 1.255 . S
C59 O63 1.295 . S
C59 O64 1.235 . S
O60 Fe45 1.976 . S
O60 C54 1.287 . S
O61 Fe47 1.996 . S
O61 C54 1.255 . S
C62 O55 1.287 . S
C62 O56 1.255 . S
O63 Fe45 2.002 . S
O63 C59 1.295 . S
O64 Fe47 1.997 . S
O64 C59 1.235 . S
C65 O48 1.295 . S
C65 O49 1.235 . S
Fe66 O68 1.918 . S
Fe66 O71 1.997 . S
Fe66 O72 2.002 . S
Fe66 O77 1.976 . S
Fe66 O80 1.996 . S
Fe67 O68 1.918 . S
Fe67 O75 1.997 . S
Fe67 O78 1.996 . S
Fe67 O82 1.976 . S
Fe67 O85 2.002 . S
O68 Fe66 1.918 . S
O68 Fe67 1.918 . S
O68 Fe69 1.918 . S
Fe69 O68 1.918 . S
Fe69 O70 2.002 . S
Fe69 O79 1.976 . S
Fe69 O83 1.996 . S
Fe69 O86 1.997 . S
O70 Fe69 2.002 . S
O70 C87 1.295 . S
O71 Fe66 1.997 . S
O71 C87 1.235 . S
O72 Fe66 2.002 . S
O72 C73 1.295 . S
C73 O72 1.295 . S
C73 O75 1.235 . S
C74 O79 1.287 . S
C74 O80 1.255 . S
O75 Fe67 1.997 . S
O75 C73 1.235 . S
C76 O82 1.287 . S
C76 O83 1.255 . S
O77 Fe66 1.976 . S
O77 C84 1.287 . S
O78 Fe67 1.996 . S
O78 C84 1.255 . S
O79 Fe69 1.976 . S
O79 C74 1.287 . S
O80 Fe66 1.996 . S
O80 C74 1.255 . S
C81 O85 1.295 . S
C81 O86 1.235 . S
O82 Fe67 1.976 . S
O82 C76 1.287 . S
O83 Fe69 1.996 . S
O83 C76 1.255 . S
C84 O77 1.287 . S
C84 O78 1.255 . S
O85 Fe67 2.002 . S
O85 C81 1.295 . S
O86 Fe69 1.997 . S
O86 C81 1.235 . S
C87 O70 1.295 . S
C87 O71 1.235 . S
Fe88 O90 1.918 . S
Fe88 O93 1.997 . S
Fe88 O94 2.002 . S
Fe88 O99 1.976 . S
Fe88 O102 1.996 . S
Fe89 O90 1.918 . S
Fe89 O97 1.997 . S
Fe89 O100 1.996 . S
Fe89 O104 1.976 . S
Fe89 O107 2.002 . S
O90 Fe88 1.918 . S
O90 Fe89 1.918 . S
O90 Fe91 1.918 . S
Fe91 O90 1.918 . S
Fe91 O92 2.002 . S
Fe91 O101 1.976 . S
Fe91 O105 1.996 . S
Fe91 O108 1.997 . S
O92 Fe91 2.002 . S
O92 C109 1.295 . S
O93 Fe88 1.997 . S
O93 C109 1.235 . S
O94 Fe88 2.002 . S
O94 C95 1.295 . S
C95 O94 1.295 . S
C95 O97 1.235 . S
C96 O101 1.287 . S
C96 O102 1.255 . S
O97 Fe89 1.997 . S
O97 C95 1.235 . S
C98 O104 1.287 . S
C98 O105 1.255 . S
O99 Fe88 1.976 . S
O99 C106 1.287 . S
O100 Fe89 1.996 . S
O100 C106 1.255 . S
O101 Fe91 1.976 . S
O101 C96 1.287 . S
O102 Fe88 1.996 . S
O102 C96 1.255 . S
C103 O107 1.295 . S
C103 O108 1.235 . S
O104 Fe89 1.976 . S
O104 C98 1.287 . S
O105 Fe91 1.996 . S
O105 C98 1.255 . S
C106 O99 1.287 . S
C106 O100 1.255 . S
O107 Fe89 2.002 . S
O107 C103 1.295 . S
O108 Fe91 1.997 . S
O108 C103 1.235 . S
C109 O92 1.295 . S
C109 O93 1.235 . S
Fe110 O112 1.918 . S
Fe110 O115 1.997 . S
Fe110 O116 2.002 . S
Fe110 O121 1.976 . S
Fe110 O124 1.996 . S
Fe111 O112 1.918 . S
Fe111 O119 1.997 . S
Fe111 O122 1.996 . S
Fe111 O126 1.976 . S
Fe111 O129 2.002 . S
O112 Fe110 1.918 . S
O112 Fe111 1.918 . S
O112 Fe113 1.918 . S
Fe113 O112 1.918 . S
Fe113 O114 2.002 . S
Fe113 O123 1.976 . S
Fe113 O127 1.996 . S
Fe113 O130 1.997 . S
O114 Fe113 2.002 . S
O114 C131 1.295 . S
O115 Fe110 1.997 . S
O115 C131 1.235 . S
O116 Fe110 2.002 . S
O116 C117 1.295 . S
C117 O116 1.295 . S
C117 O119 1.235 . S
C118 O123 1.287 . S
C118 O124 1.255 . S
O119 Fe111 1.997 . S
O119 C117 1.235 . S
C120 O126 1.287 . S
C120 O127 1.255 . S
O121 Fe110 1.976 . S
O121 C128 1.287 . S
O122 Fe111 1.996 . S
O122 C128 1.255 . S
O123 Fe113 1.976 . S
O123 C118 1.287 . S
O124 Fe110 1.996 . S
O124 C118 1.255 . S
C125 O129 1.295 . S
C125 O130 1.235 . S
O126 Fe111 1.976 . S
O126 C120 1.287 . S
O127 Fe113 1.996 . S
O127 C120 1.255 . S
C128 O121 1.287 . S
C128 O122 1.255 . S
O129 Fe111 2.002 . S
O129 C125 1.295 . S
O130 Fe113 1.997 . S
O130 C125 1.235 . S
C131 O114 1.295 . S
C131 O115 1.235 . S
Fe132 O134 1.918 . S
Fe132 O137 1.997 . S
Fe132 O138 2.002 . S
Fe132 O143 1.976 . S
Fe132 O146 1.996 . S
Fe133 O134 1.918 . S
Fe133 O141 1.997 . S
Fe133 O144 1.996 . S
Fe133 O148 1.976 . S
Fe133 O151 2.002 . S
O134 Fe132 1.918 . S
O134 Fe133 1.918 . S
O134 Fe135 1.918 . S
Fe135 O134 1.918 . S
Fe135 O136 2.002 . S
Fe135 O145 1.976 . S
Fe135 O149 1.996 . S
Fe135 O152 1.997 . S
O136 Fe135 2.002 . S
O136 C153 1.295 . S
O137 Fe132 1.997 . S
O137 C153 1.235 . S
O138 Fe132 2.002 . S
O138 C139 1.295 . S
C139 O138 1.295 . S
C139 O141 1.235 . S
C140 O145 1.287 . S
C140 O146 1.255 . S
O141 Fe133 1.997 . S
O141 C139 1.235 . S
C142 O148 1.287 . S
C142 O149 1.255 . S
O143 Fe132 1.976 . S
O143 C150 1.287 . S
O144 Fe133 1.996 . S
O144 C150 1.255 . S
O145 Fe135 1.976 . S
O145 C140 1.287 . S
O146 Fe132 1.996 . S
O146 C140 1.255 . S
C147 O151 1.295 . S
C147 O152 1.235 . S
O148 Fe133 1.976 . S
O148 C142 1.287 . S
O149 Fe135 1.996 . S
O149 C142 1.255 . S
C150 O143 1.287 . S
C150 O144 1.255 . S
O151 Fe133 2.002 . S
O151 C147 1.295 . S
O152 Fe135 1.997 . S
O152 C147 1.235 . S
C153 O136 1.295 . S
C153 O137 1.235 . S
Fe154 O156 1.918 . S
Fe154 O159 1.997 . S
Fe154 O160 2.002 . S
Fe154 O165 1.976 . S
Fe154 O168 1.996 . S
Fe155 O156 1.918 . S
Fe155 O163 1.997 . S
Fe155 O166 1.996 . S
Fe155 O170 1.976 . S
Fe155 O173 2.002 . S
O156 Fe154 1.918 . S
O156 Fe155 1.918 . S
O156 Fe157 1.918 . S
Fe157 O156 1.918 . S
Fe157 O158 2.002 . S
Fe157 O167 1.976 . S
Fe157 O171 1.996 . S
Fe157 O174 1.997 . S
O158 Fe157 2.002 . S
O158 C175 1.295 . S
O159 Fe154 1.997 . S
O159 C175 1.235 . S
O160 Fe154 2.002 . S
O160 C161 1.295 . S
C161 O160 1.295 . S
C161 O163 1.235 . S
C162 O167 1.287 . S
C162 O168 1.255 . S
O163 Fe155 1.997 . S
O163 C161 1.235 . S
C164 O170 1.287 . S
C164 O171 1.255 . S
O165 Fe154 1.976 . S
O165 C172 1.287 . S
O166 Fe155 1.996 . S
O166 C172 1.255 . S
O167 Fe157 1.976 . S
O167 C162 1.287 . S
O168 Fe154 1.996 . S
O168 C162 1.255 . S
C169 O173 1.295 . S
C169 O174 1.235 . S
O170 Fe155 1.976 . S
O170 C164 1.287 . S
O171 Fe157 1.996 . S
O171 C164 1.255 . S
C172 O165 1.287 . S
C172 O166 1.255 . S
O173 Fe155 2.002 . S
O173 C169 1.295 . S
O174 Fe157 1.997 . S
O174 C169 1.235 . S
C175 O158 1.295 . S
C175 O159 1.235 . S
H176 C182 0.930 . S
H177 C186 0.930 . S
H178 C191 0.929 . S
H179 C189 0.929 . S
H180 C184 0.929 . S
H181 C190 0.929 . S
C182 H176 0.930 . S
C182 C183 1.367 1_545 S
C182 C190 1.378 . S
C183 C182 1.367 1_565 S
C183 C191 1.433 . S
C184 H180 0.929 . S
C184 C186 1.378 . S
C184 C188 1.350 1_565 S
C185 C188 1.463 1_565 S
C185 C190 1.350 1_565 S
C185 N193 1.427 . S
C186 H177 0.930 . S
C186 C184 1.378 . S
C186 C187 1.367 1_565 S
C187 C186 1.367 1_545 S
C187 C189 1.433 . S
C188 C184 1.350 1_545 S
C188 C185 1.463 1_545 S
C188 N192 1.427 . S
C189 H179 0.929 . S
C189 C187 1.433 . S
C189 N192 1.384 . S
C190 H181 0.929 . S
C190 C182 1.378 . S
C190 C185 1.350 1_545 S
C191 H178 0.929 . S
C191 C183 1.433 . S
C191 N193 1.384 . S
N192 C188 1.427 . S
N192 C189 1.384 . S
N193 C185 1.427 . S
N193 C191 1.384 . S
H194 C200 0.930 . S
H195 C204 0.930 . S
H196 C209 0.929 . S
H197 C207 0.929 . S
H198 C202 0.929 . S
H199 C208 0.929 . S
C200 H194 0.930 . S
C200 C201 1.367 1_565 S
C200 C208 1.378 . S
C201 C200 1.367 1_545 S
C201 C209 1.433 . S
C202 H198 0.929 . S
C202 C204 1.378 . S
C202 C206 1.350 1_545 S
C203 C206 1.463 1_644 S
C203 C208 1.350 1_545 S
C203 N211 1.427 . S
C204 H195 0.930 . S
C204 C202 1.378 . S
C204 C205 1.367 1_545 S
C205 C204 1.367 1_565 S
C205 C207 1.433 . S
C206 C202 1.350 1_565 S
C206 C203 1.463 1_466 S
C206 N210 1.427 . S
C207 H197 0.929 . S
C207 C205 1.433 . S
C207 N210 1.384 . S
C208 H199 0.929 . S
C208 C200 1.378 . S
C208 C203 1.350 1_565 S
C209 H196 0.929 . S
C209 C201 1.433 . S
C209 N211 1.384 . S
N210 C206 1.427 . S
N210 C207 1.384 . S
N211 C203 1.427 . S
N211 C209 1.384 . S
H212 C218 0.930 1_554 S
H213 C222 0.930 1_556 S
H214 C227 0.929 . S
H215 C225 0.929 . S
H216 C220 0.929 . S
H217 C226 0.929 . S
C218 H212 0.930 1_556 S
C218 C219 1.367 . S
C218 C226 1.378 1_556 S
C219 C218 1.367 . S
C219 C227 1.433 . S
C220 H216 0.929 . S
C220 C222 1.378 1_556 S
C220 C224 1.350 1_556 S
C221 C224 1.463 1_456 S
C221 C226 1.350 1_556 S
C221 N229 1.427 . S
C222 H213 0.930 1_554 S
C222 C220 1.378 1_554 S
C222 C223 1.367 . S
C223 C222 1.367 . S
C223 C225 1.433 . S
C224 C220 1.350 1_554 S
C224 C221 1.463 1_654 S
C224 N228 1.427 . S
C225 H215 0.929 . S
C225 C223 1.433 . S
C225 N228 1.384 . S
C226 H217 0.929 . S
C226 C218 1.378 1_554 S
C226 C221 1.350 1_554 S
C227 H214 0.929 . S
C227 C219 1.433 . S
C227 N229 1.384 . S
N228 C224 1.427 . S
N228 C225 1.384 . S
N229 C221 1.427 . S
N229 C227 1.384 . S
H230 C236 0.930 . S
H231 C240 0.930 . S
H232 C245 0.929 . S
H233 C243 0.929 . S
H234 C238 0.929 . S
H235 C244 0.929 . S
C236 H230 0.930 . S
C236 C237 1.367 . S
C236 C244 1.378 . S
C237 C236 1.367 . S
C237 C245 1.433 . S
C238 H234 0.929 . S
C238 C240 1.378 . S
C238 C242 1.350 . S
C239 C242 1.463 . S
C239 C244 1.350 . S
C239 N247 1.427 . S
C240 H231 0.930 . S
C240 C238 1.378 . S
C240 C241 1.367 . S
C241 C240 1.367 . S
C241 C243 1.433 . S
C242 C238 1.350 . S
C242 C239 1.463 . S
C242 N246 1.427 . S
C243 H233 0.929 . S
C243 C241 1.433 . S
C243 N246 1.384 . S
C244 H235 0.929 . S
C244 C236 1.378 . S
C244 C239 1.350 . S
C245 H232 0.929 . S
C245 C237 1.433 . S
C245 N247 1.384 . S
N246 C242 1.427 . S
N246 C243 1.384 . S
N247 C239 1.427 . S
N247 C245 1.384 . S
H248 C254 0.930 . S
H249 C258 0.930 . S
H250 C263 0.929 . S
H251 C261 0.929 . S
H252 C256 0.929 1_545 S
H253 C262 0.929 . S
C254 H248 0.930 . S
C254 C255 1.367 1_565 S
C254 C262 1.378 . S
C255 C254 1.367 1_545 S
C255 C263 1.433 . S
C256 H252 0.929 1_565 S
C256 C258 1.378 . S
C256 C260 1.350 . S
C257 C260 1.463 . S
C257 C262 1.350 . S
C257 N265 1.427 1_565 S
C258 H249 0.930 . S
C258 C256 1.378 . S
C258 C259 1.367 . S
C259 C258 1.367 . S
C259 C261 1.433 . S
C260 C256 1.350 . S
C260 C257 1.463 . S
C260 N264 1.427 . S
C261 H251 0.929 . S
C261 C259 1.433 . S
C261 N264 1.384 . S
C262 H253 0.929 . S
C262 C254 1.378 . S
C262 C257 1.350 . S
C263 H250 0.929 . S
C263 C255 1.433 . S
C263 N265 1.384 . S
N264 C260 1.427 . S
N264 C261 1.384 . S
N265 C257 1.427 1_545 S
N265 C263 1.384 . S
H266 C272 0.930 . S
H267 C276 0.930 . S
H268 C281 0.929 . S
H269 C279 0.929 . S
H270 C274 0.929 . S
H271 C280 0.929 . S
C272 H266 0.930 . S
C272 C273 1.367 1_545 S
C272 C280 1.378 . S
C273 C272 1.367 1_565 S
C273 C281 1.433 . S
C274 H270 0.929 . S
C274 C276 1.378 . S
C274 C278 1.350 . S
C275 C278 1.463 . S
C275 C280 1.350 . S
C275 N283 1.427 1_545 S
C276 H267 0.930 . S
C276 C274 1.378 . S
C276 C277 1.367 . S
C277 C276 1.367 . S
C277 C279 1.433 . S
C278 C274 1.350 . S
C278 C275 1.463 . S
C278 N282 1.427 . S
C279 H269 0.929 . S
C279 C277 1.433 . S
C279 N282 1.384 . S
C280 H271 0.929 . S
C280 C272 1.378 . S
C280 C275 1.350 . S
C281 H268 0.929 . S
C281 C273 1.433 . S
C281 N283 1.384 . S
N282 C278 1.427 . S
N282 C279 1.384 . S
N283 C275 1.427 1_565 S
N283 C281 1.384 . S
H284 C290 0.930 . S
H285 C294 0.930 . S
H286 C299 0.929 . S
H287 C297 0.929 . S
H288 C292 0.929 . S
H289 C298 0.929 . S
C290 H284 0.930 . S
C290 C291 1.367 . S
C290 C298 1.378 . S
C291 C290 1.367 . S
C291 C299 1.433 . S
C292 H288 0.929 . S
C292 C294 1.378 . S
C292 C296 1.350 . S
C293 C296 1.463 . S
C293 C298 1.350 . S
C293 N301 1.427 . S
C294 H285 0.930 . S
C294 C292 1.378 . S
C294 C295 1.367 . S
C295 C294 1.367 . S
C295 C297 1.433 . S
C296 C292 1.350 . S
C296 C293 1.463 . S
C296 N300 1.427 . S
C297 H287 0.929 . S
C297 C295 1.433 . S
C297 N300 1.384 . S
C298 H289 0.929 . S
C298 C290 1.378 . S
C298 C293 1.350 . S
C299 H286 0.929 . S
C299 C291 1.433 . S
C299 N301 1.384 . S
N300 C296 1.427 . S
N300 C297 1.384 . S
N301 C293 1.427 . S
N301 C299 1.384 . S
H302 C308 0.930 . S
H303 C312 0.930 . S
H304 C317 0.929 . S
H305 C315 0.929 . S
H306 C310 0.929 . S
H307 C316 0.929 . S
C308 H302 0.930 . S
C308 C309 1.367 . S
C308 C316 1.378 . S
C309 C308 1.367 . S
C309 C317 1.433 . S
C310 H306 0.929 . S
C310 C312 1.378 . S
C310 C314 1.350 . S
C311 C314 1.463 . S
C311 C316 1.350 . S
C311 N319 1.427 . S
C312 H303 0.930 . S
C312 C310 1.378 . S
C312 C313 1.367 . S
C313 C312 1.367 . S
C313 C315 1.433 . S
C314 C310 1.350 . S
C314 C311 1.463 . S
C314 N318 1.427 . S
C315 H305 0.929 . S
C315 C313 1.433 . S
C315 N318 1.384 . S
C316 H307 0.929 . S
C316 C308 1.378 . S
C316 C311 1.350 . S
C317 H304 0.929 . S
C317 C309 1.433 . S
C317 N319 1.384 . S
N318 C314 1.427 . S
N318 C315 1.384 . S
N319 C311 1.427 . S
N319 C317 1.384 . S
H320 C326 0.939 . S
H321 C330 0.930 . S
H322 C335 0.929 . S
H323 C333 0.929 . S
H324 C328 0.929 . S
H325 C334 0.929 1_565 S
C326 H320 0.939 . S
C326 C327 1.367 . S
C326 C334 1.378 . S
C327 C326 1.367 . S
C327 C335 1.433 . S
C328 H324 0.929 . S
C328 C330 1.378 . S
C328 C332 1.350 . S
C329 C332 1.463 . S
C329 C334 1.350 . S
C329 N337 1.427 . S
C330 H321 0.930 . S
C330 C328 1.378 . S
C330 C331 1.367 1_545 S
C331 C330 1.367 1_565 S
C331 C333 1.433 . S
C332 C328 1.350 . S
C332 C329 1.463 . S
C332 N336 1.427 1_545 S
C333 H323 0.929 . S
C333 C331 1.433 . S
C333 N336 1.384 . S
C334 H325 0.929 1_545 S
C334 C326 1.378 . S
C334 C329 1.350 . S
C335 H322 0.929 . S
C335 C327 1.433 . S
C335 N337 1.384 . S
N336 C332 1.427 1_565 S
N336 C333 1.384 . S
N337 C329 1.427 . S
N337 C335 1.384 . S
H338 C344 0.930 . S
H339 C348 0.930 . S
H340 C353 0.929 . S
H341 C351 0.929 . S
H342 C346 0.929 . S
H343 C352 0.929 1_545 S
C344 H338 0.930 . S
C344 C345 1.367 . S
C344 C352 1.378 . S
C345 C344 1.367 . S
C345 C353 1.433 . S
C346 H342 0.929 . S
C346 C348 1.378 . S
C346 C350 1.350 . S
C347 C350 1.463 . S
C347 C352 1.350 . S
C347 N355 1.427 . S
C348 H339 0.930 . S
C348 C346 1.378 . S
C348 C349 1.367 1_565 S
C349 C348 1.367 1_545 S
C349 C351 1.433 . S
C350 C346 1.350 . S
C350 C347 1.463 . S
C350 N354 1.427 1_565 S
C351 H341 0.929 . S
C351 C349 1.433 . S
C351 N354 1.384 . S
C352 H343 0.929 1_565 S
C352 C344 1.378 . S
C352 C347 1.350 . S
C353 H340 0.929 . S
C353 C345 1.433 . S
C353 N355 1.384 . S
N354 C350 1.427 1_545 S
N354 C351 1.384 . S
N355 C347 1.427 . S
N355 C353 1.384 . S
H356 C362 0.930 . S
H357 C366 0.930 . S
H358 C371 0.929 . S
H359 C369 0.929 . S
H360 C364 0.929 . S
H361 C370 0.929 . S
C362 H356 0.930 . S
C362 C363 1.367 . S
C362 C370 1.378 . S
C363 C362 1.367 . S
C363 C371 1.433 . S
C364 H360 0.929 . S
C364 C366 1.378 . S
C364 C368 1.350 . S
C365 C368 1.463 . S
C365 C370 1.350 . S
C365 N373 1.427 . S
C366 H357 0.930 . S
C366 C364 1.378 . S
C366 C367 1.367 . S
C367 C366 1.367 . S
C367 C369 1.433 . S
C368 C364 1.350 . S
C368 C365 1.463 . S
C368 N372 1.427 . S
C369 H359 0.929 . S
C369 C367 1.433 . S
C369 N372 1.384 . S
C370 H361 0.929 . S
C370 C362 1.378 . S
C370 C365 1.350 . S
C371 H358 0.929 . S
C371 C363 1.433 . S
C371 N373 1.384 . S
N372 C368 1.427 . S
N372 C369 1.384 . S
N373 C365 1.427 . S
N373 C371 1.384 . S
H374 C380 0.930 1_556 S
H375 C384 0.930 . S
H376 C389 0.929 . S
H377 C387 0.929 . S
H378 C382 0.929 . S
H379 C388 0.929 . S
C380 H374 0.930 1_554 S
C380 C381 1.367 . S
C380 C388 1.378 . S
C381 C380 1.367 . S
C381 C389 1.433 . S
C382 H378 0.929 . S
C382 C384 1.378 . S
C382 C386 1.350 . S
C383 C386 1.463 . S
C383 C388 1.350 . S
C383 N391 1.427 . S
C384 H375 0.930 . S
C384 C382 1.378 . S
C384 C385 1.367 . S
C385 C384 1.367 . S
C385 C387 1.433 . S
C386 C382 1.350 . S
C386 C383 1.463 . S
C386 N390 1.427 . S
C387 H377 0.929 . S
C387 C385 1.433 . S
C387 N390 1.384 . S
C388 H379 0.929 . S
C388 C380 1.378 . S
C388 C383 1.350 . S
C389 H376 0.929 . S
C389 C381 1.433 . S
C389 N391 1.384 . S
N390 C386 1.427 . S
N390 C387 1.384 . S
N391 C383 1.427 . S
N391 C389 1.384 . S
H392 C398 0.930 . S
H393 C402 0.930 . S
H394 C407 0.929 . S
H395 C405 0.929 . S
H396 C400 0.929 . S
H397 C406 0.929 . S
C398 H392 0.930 . S
C398 C399 1.367 . S
C398 C406 1.378 . S
C399 C398 1.367 . S
C399 C407 1.433 . S
C400 H396 0.929 . S
C400 C402 1.378 . S
C400 C404 1.350 . S
C401 C404 1.463 . S
C401 C406 1.350 . S
C401 N409 1.427 . S
C402 H393 0.930 . S
C402 C400 1.378 . S
C402 C403 1.367 . S
C403 C402 1.367 . S
C403 C405 1.433 . S
C404 C400 1.350 . S
C404 C401 1.463 . S
C404 N408 1.427 . S
C405 H395 0.929 . S
C405 C403 1.433 . S
C405 N408 1.384 . S
C406 H397 0.929 . S
C406 C398 1.378 . S
C406 C401 1.350 . S
C407 H394 0.929 . S
C407 C399 1.433 . S
C407 N409 1.384 . S
N408 C404 1.427 . S
N408 C405 1.384 . S
N409 C401 1.427 . S
N409 C407 1.384 . S
H410 C416 0.930 . S
H411 C420 0.930 . S
H412 C425 0.929 . S
H413 C423 0.929 . S
H414 C418 0.928 1_655 S
H415 C424 0.929 . S
C416 H410 0.930 . S
C416 C417 1.367 . S
C416 C424 1.378 . S
C417 C416 1.367 . S
C417 C425 1.433 . S
C418 H414 0.928 1_455 S
C418 C420 1.383 . S
C418 C422 1.346 1_455 S
C419 C422 1.463 . S
C419 C424 1.350 . S
C419 N427 1.427 . S
C420 H411 0.930 . S
C420 C418 1.383 . S
C420 C421 1.367 . S
C421 C420 1.367 . S
C421 C423 1.433 . S
C422 C418 1.346 1_655 S
C422 C419 1.463 . S
C422 N426 1.427 . S
C423 H413 0.929 . S
C423 C421 1.433 . S
C423 N426 1.384 1_455 S
C424 H415 0.929 . S
C424 C416 1.378 . S
C424 C419 1.350 . S
C425 H412 0.929 . S
C425 C417 1.433 . S
C425 N427 1.384 . S
N426 C422 1.427 . S
N426 C423 1.384 1_655 S
N427 C419 1.427 . S
N427 C425 1.384 . S
H428 C434 0.930 . S
H429 C438 0.930 . S
H430 C443 0.929 . S
H431 C441 0.929 . S
H432 C436 0.929 . S
H433 C442 0.929 . S
C434 H428 0.930 . S
C434 C435 1.367 . S
C434 C442 1.378 . S
C435 C434 1.367 . S
C435 C443 1.433 . S
C436 H432 0.929 . S
C436 C438 1.378 1_455 S
C436 C440 1.350 . S
C437 C440 1.463 . S
C437 C442 1.350 . S
C437 N445 1.427 . S
C438 H429 0.930 . S
C438 C436 1.378 1_655 S
C438 C439 1.367 . S
C439 C438 1.367 . S
C439 C441 1.433 . S
C440 C436 1.350 . S
C440 C437 1.463 . S
C440 N444 1.427 . S
C441 H431 0.929 . S
C441 C439 1.433 . S
C441 N444 1.384 1_655 S
C442 H433 0.929 . S
C442 C434 1.378 . S
C442 C437 1.350 . S
C443 H430 0.929 . S
C443 C435 1.433 . S
C443 N445 1.384 . S
N444 C440 1.427 . S
N444 C441 1.384 1_455 S
N445 C437 1.427 . S
N445 C443 1.384 . S
H446 C452 0.930 . S
H447 C456 0.930 . S
H448 C461 0.929 . S
H449 C459 0.929 . S
H450 C454 0.929 . S
H451 C460 0.929 . S
C452 H446 0.930 . S
C452 C453 1.367 . S
C452 C460 1.378 . S
C453 C452 1.367 . S
C453 C461 1.433 . S
C454 H450 0.929 . S
C454 C456 1.378 . S
C454 C458 1.350 . S
C455 C458 1.463 . S
C455 C460 1.350 . S
C455 N463 1.427 . S
C456 H447 0.930 . S
C456 C454 1.378 . S
C456 C457 1.367 . S
C457 C456 1.367 . S
C457 C459 1.433 . S
C458 C454 1.350 . S
C458 C455 1.463 . S
C458 N462 1.427 . S
C459 H449 0.929 . S
C459 C457 1.433 . S
C459 N462 1.384 . S
C460 H451 0.929 . S
C460 C452 1.378 . S
C460 C455 1.350 . S
C461 H448 0.929 . S
C461 C453 1.433 . S
C461 N463 1.384 . S
N462 C458 1.427 . S
N462 C459 1.384 . S
N463 C455 1.427 . S
N463 C461 1.384 . S
H464 C470 0.930 . S
H465 C474 0.930 . S
H466 C479 0.929 . S
H467 C477 0.929 . S
H468 C472 0.929 . S
H469 C478 0.929 . S
C470 H464 0.930 . S
C470 C471 1.367 . S
C470 C478 1.378 . S
C471 C470 1.367 . S
C471 C479 1.433 . S
C472 H468 0.929 . S
C472 C474 1.378 . S
C472 C476 1.350 . S
C473 C476 1.463 . S
C473 C478 1.350 . S
C473 N481 1.427 . S
C474 H465 0.930 . S
C474 C472 1.378 . S
C474 C475 1.367 . S
C475 C474 1.367 . S
C475 C477 1.433 . S
C476 C472 1.350 . S
C476 C473 1.463 . S
C476 N480 1.427 . S
C477 H467 0.929 . S
C477 C475 1.433 . S
C477 N480 1.384 . S
C478 H469 0.929 . S
C478 C470 1.378 . S
C478 C473 1.350 . S
C479 H466 0.929 . S
C479 C471 1.433 . S
C479 N481 1.384 . S
N480 C476 1.427 . S
N480 C477 1.384 . S
N481 C473 1.427 . S
N481 C479 1.384 . S
H482 C488 0.930 . S
H483 C492 0.930 . S
H484 C497 0.929 . S
H485 C495 0.929 . S
H486 C490 0.929 . S
H487 C496 0.929 . S
C488 H482 0.930 . S
C488 C489 1.367 . S
C488 C496 1.378 . S
C489 C488 1.367 . S
C489 C497 1.433 . S
C490 H486 0.929 . S
C490 C492 1.378 1_455 S
C490 C494 1.350 . S
C491 C494 1.463 . S
C491 C496 1.350 . S
C491 N499 1.427 . S
C492 H483 0.930 . S
C492 C490 1.378 1_655 S
C492 C493 1.367 . S
C493 C492 1.367 . S
C493 C495 1.433 . S
C494 C490 1.350 . S
C494 C491 1.463 . S
C494 N498 1.427 1_455 S
C495 H485 0.929 . S
C495 C493 1.433 . S
C495 N498 1.384 . S
C496 H487 0.929 . S
C496 C488 1.378 . S
C496 C491 1.350 . S
C497 H484 0.929 . S
C497 C489 1.433 . S
C497 N499 1.384 . S
N498 C494 1.427 1_655 S
N498 C495 1.384 . S
N499 C491 1.427 . S
N499 C497 1.384 . S
H500 C506 0.930 . S
H501 C510 0.930 . S
H502 C515 0.929 . S
H503 C513 0.929 . S
H504 C508 0.929 . S
H505 C514 0.929 . S
C506 H500 0.930 . S
C506 C507 1.367 . S
C506 C514 1.378 1_455 S
C507 C506 1.367 . S
C507 C515 1.433 . S
C508 H504 0.929 . S
C508 C510 1.378 . S
C508 C512 1.350 . S
C509 C512 1.463 . S
C509 C514 1.350 . S
C509 N517 1.427 . S
C510 H501 0.930 . S
C510 C508 1.378 . S
C510 C511 1.367 . S
C511 C510 1.367 . S
C511 C513 1.433 . S
C512 C508 1.350 . S
C512 C509 1.463 . S
C512 N516 1.427 . S
C513 H503 0.929 . S
C513 C511 1.433 . S
C513 N516 1.384 . S
C514 H505 0.929 . S
C514 C506 1.378 1_655 S
C514 C509 1.350 . S
C515 H502 0.929 . S
C515 C507 1.433 . S
C515 N517 1.384 1_455 S
N516 C512 1.427 . S
N516 C513 1.384 . S
N517 C509 1.427 . S
N517 C515 1.384 1_655 S
H518 C524 0.930 . S
H519 C528 0.930 . S
H520 C533 0.929 . S
H521 C531 0.929 . S
H522 C526 0.929 . S
H523 C532 0.929 . S
C524 H518 0.930 . S
C524 C525 1.367 . S
C524 C532 1.378 . S
C525 C524 1.367 . S
C525 C533 1.433 . S
C526 H522 0.929 . S
C526 C528 1.378 . S
C526 C530 1.350 . S
C527 C530 1.463 . S
C527 C532 1.350 . S
C527 N535 1.427 . S
C528 H519 0.930 . S
C528 C526 1.378 . S
C528 C529 1.367 . S
C529 C528 1.367 . S
C529 C531 1.433 . S
C530 C526 1.350 . S
C530 C527 1.463 . S
C530 N534 1.427 . S
C531 H521 0.929 . S
C531 C529 1.433 . S
C531 N534 1.384 . S
C532 H523 0.929 . S
C532 C524 1.378 . S
C532 C527 1.350 . S
C533 H520 0.929 . S
C533 C525 1.433 . S
C533 N535 1.384 . S
N534 C530 1.427 . S
N534 C531 1.384 . S
N535 C527 1.427 . S
N535 C533 1.384 . S
H536 C542 0.930 . S
H537 C546 0.930 . S
H538 C551 0.929 . S
H539 C549 0.929 . S
H540 C544 0.929 . S
H541 C550 0.929 . S
C542 H536 0.930 . S
C542 C543 1.367 . S
C542 C550 1.378 . S
C543 C542 1.367 . S
C543 C551 1.433 . S
C544 H540 0.929 . S
C544 C546 1.378 . S
C544 C548 1.350 . S
C545 C548 1.463 . S
C545 C550 1.350 . S
C545 N553 1.427 . S
C546 H537 0.930 . S
C546 C544 1.378 . S
C546 C547 1.367 . S
C547 C546 1.367 . S
C547 C549 1.433 . S
C548 C544 1.350 . S
C548 C545 1.463 . S
C548 N552 1.427 . S
C549 H539 0.929 . S
C549 C547 1.433 . S
C549 N552 1.384 . S
C550 H541 0.929 . S
C550 C542 1.378 . S
C550 C545 1.350 . S
C551 H538 0.929 . S
C551 C543 1.433 . S
C551 N553 1.384 . S
N552 C548 1.427 . S
N552 C549 1.384 . S
N553 C545 1.427 . S
N553 C551 1.384 . S
H554 C560 0.930 . S
H555 C564 0.930 . S
H556 C569 0.929 . S
H557 C567 0.929 . S
H558 C562 0.929 . S
H559 C568 0.929 . S
C560 H554 0.930 . S
C560 C561 1.367 . S
C560 C568 1.378 . S
C561 C560 1.367 . S
C561 C569 1.433 . S
C562 H558 0.929 . S
C562 C564 1.378 . S
C562 C566 1.350 . S
C563 C566 1.463 . S
C563 C568 1.350 . S
C563 N571 1.427 . S
C564 H555 0.930 . S
C564 C562 1.378 . S
C564 C565 1.367 . S
C565 C564 1.367 . S
C565 C567 1.433 . S
C566 C562 1.350 . S
C566 C563 1.463 . S
C566 N570 1.427 . S
C567 H557 0.929 . S
C567 C565 1.433 . S
C567 N570 1.384 . S
C568 H559 0.929 . S
C568 C560 1.378 . S
C568 C563 1.350 . S
C569 H556 0.929 . S
C569 C561 1.433 . S
C569 N571 1.384 . S
N570 C566 1.427 . S
N570 C567 1.384 . S
N571 C563 1.427 . S
N571 C569 1.384 . S
H572 C578 0.930 . S
H573 C582 0.930 . S
H574 C587 0.929 . S
H575 C585 0.929 . S
H576 C580 0.929 . S
H577 C586 0.929 . S
C578 H572 0.930 . S
C578 C579 1.367 . S
C578 C586 1.378 . S
C579 C578 1.367 . S
C579 C587 1.433 . S
C580 H576 0.929 . S
C580 C582 1.378 . S
C580 C584 1.350 . S
C581 C584 1.463 . S
C581 C586 1.350 . S
C581 N589 1.427 . S
C582 H573 0.930 . S
C582 C580 1.378 . S
C582 C583 1.367 . S
C583 C582 1.367 . S
C583 C585 1.433 . S
C584 C580 1.350 . S
C584 C581 1.463 . S
C584 N588 1.427 . S
C585 H575 0.929 . S
C585 C583 1.433 . S
C585 N588 1.384 . S
C586 H577 0.929 . S
C586 C578 1.378 . S
C586 C581 1.350 . S
C587 H574 0.929 . S
C587 C579 1.433 . S
C587 N589 1.384 . S
N588 C584 1.427 . S
N588 C585 1.384 . S
N589 C581 1.427 . S
N589 C587 1.384 . S
H590 C596 0.930 . S
H591 C600 0.930 . S
H592 C605 0.929 . S
H593 C603 0.929 . S
H594 C598 0.929 . S
H595 C604 0.929 . S
C596 H590 0.930 . S
C596 C597 1.367 . S
C596 C604 1.378 . S
C597 C596 1.367 . S
C597 C605 1.433 . S
C598 H594 0.929 . S
C598 C600 1.378 . S
C598 C602 1.350 . S
C599 C602 1.463 . S
C599 C604 1.350 . S
C599 N607 1.427 . S
C600 H591 0.930 . S
C600 C598 1.378 . S
C600 C601 1.367 . S
C601 C600 1.367 . S
C601 C603 1.433 . S
C602 C598 1.350 . S
C602 C599 1.463 . S
C602 N606 1.427 . S
C603 H593 0.929 . S
C603 C601 1.433 . S
C603 N606 1.384 . S
C604 H595 0.929 . S
C604 C596 1.378 . S
C604 C599 1.350 . S
C605 H592 0.929 . S
C605 C597 1.433 . S
C605 N607 1.384 . S
N606 C602 1.427 . S
N606 C603 1.384 . S
N607 C599 1.427 . S
N607 C605 1.384 . S
C183 C95 1.046 . S
C187 C21 1.040 . S
C201 C125 1.047 . S
C205 C43 1.041 . S
C219 C147 1.031 . S
C223 C65 1.023 . S
C237 C81 1.042 . S
C241 C161 1.048 . S
C255 C7 1.602 . S
C259 C30 1.545 1_554 S
C273 C29 1.604 . S
C277 C8 1.546 . S
C291 C76 1.560 . S
C295 C51 1.603 . S
C309 C52 1.559 1_556 S
C313 C87 1.596 . S
C327 C120 1.558 1_556 S
C331 C109 1.606 . S
C345 C106 1.558 . S
C349 C117 1.606 . S
C363 C139 1.607 . S
C367 C172 1.571 . S
C381 C142 1.560 1_554 S
C385 C175 1.604 . S
C399 C15 1.419 . S
C403 C128 1.413 . S
C417 C96 1.407 . S
C421 C37 1.414 . S
C435 C162 1.411 . S
C439 C59 1.421 . S
C453 C150 1.405 . S
C457 C73 1.416 . S
C471 C103 1.417 . S
C475 C40 1.402 . S
C489 C18 1.411 . S
C493 C131 1.419 . S
C507 C153 1.422 . S
C511 C74 1.403 . S
C525 C169 1.422 . S
C529 C62 1.403 . S
C543 C10 1.438 . S
C547 C164 1.430 . S
C561 C32 1.438 . S
C565 C140 1.431 . S
C579 C118 1.436 . S
C583 C54 1.433 . S
C597 C98 1.429 . S
C601 C84 1.439 . S
