# Generated by pormake.
# Topology uos, (4)-cn, num edge types: 1
# Building blocks:
#     Node 0, Type 0, BuildingBlock: KUFVIS_clean_sbu_0, # of connection points: 4
#     Node 1, Type 0, BuildingBlock: KUFVIS_clean_sbu_0, # of connection points: 4
#     Node 2, Type 0, BuildingBlock: KUFVIS_clean_sbu_0, # of connection points: 4
#     Node 3, Type 0, BuildingBlock: KUFVIS_clean_sbu_0, # of connection points: 4
#     Node 4, Type 0, BuildingBlock: KUFVIS_clean_sbu_0, # of connection points: 4
#     Node 5, Type 0, BuildingBlock: KUFVIS_clean_sbu_0, # of connection points: 4
#     Node 6, Type 0, BuildingBlock: KUFVIS_clean_sbu_0, # of connection points: 4
#     Node 7, Type 0, BuildingBlock: KUFVIS_clean_sbu_0, # of connection points: 4
#     Node 8, Type 0, BuildingBlock: KUFVIS_clean_sbu_0, # of connection points: 4
#     Node 9, Type 0, BuildingBlock: KUFVIS_clean_sbu_0, # of connection points: 4
#     Node 10, Type 0, BuildingBlock: KUFVIS_clean_sbu_0, # of connection points: 4
#     Node 11, Type 0, BuildingBlock: KUFVIS_clean_sbu_0, # of connection points: 4
#     Node 12, Type 0, BuildingBlock: KUFVIS_clean_sbu_0, # of connection points: 4
#     Node 13, Type 0, BuildingBlock: KUFVIS_clean_sbu_0, # of connection points: 4
#     Node 14, Type 0, BuildingBlock: KUFVIS_clean_sbu_0, # of connection points: 4
#     Node 15, Type 0, BuildingBlock: KUFVIS_clean_sbu_0, # of connection points: 4
#     Node 16, Type 0, BuildingBlock: KUFVIS_clean_sbu_0, # of connection points: 4
#     Node 17, Type 0, BuildingBlock: KUFVIS_clean_sbu_0, # of connection points: 4
#     Node 18, Type 0, BuildingBlock: KUFVIS_clean_sbu_0, # of connection points: 4
#     Node 19, Type 0, BuildingBlock: KUFVIS_clean_sbu_0, # of connection points: 4
#     Node 20, Type 0, BuildingBlock: KUFVIS_clean_sbu_0, # of connection points: 4
#     Node 21, Type 0, BuildingBlock: KUFVIS_clean_sbu_0, # of connection points: 4
#     Node 22, Type 0, BuildingBlock: KUFVIS_clean_sbu_0, # of connection points: 4
#     Node 23, Type 0, BuildingBlock: KUFVIS_clean_sbu_0, # of connection points: 4
#     Node 24, Type 0, BuildingBlock: KUFVIS_clean_sbu_0, # of connection points: 4
#     Node 25, Type 0, BuildingBlock: KUFVIS_clean_sbu_0, # of connection points: 4
#     Node 26, Type 0, BuildingBlock: KUFVIS_clean_sbu_0, # of connection points: 4
#     Node 27, Type 0, BuildingBlock: KUFVIS_clean_sbu_0, # of connection points: 4
#     Node 28, Type 0, BuildingBlock: KUFVIS_clean_sbu_0, # of connection points: 4
#     Node 29, Type 0, BuildingBlock: KUFVIS_clean_sbu_0, # of connection points: 4
#     Node 30, Type 0, BuildingBlock: KUFVIS_clean_sbu_0, # of connection points: 4
#     Node 31, Type 0, BuildingBlock: KUFVIS_clean_sbu_0, # of connection points: 4
#     Edge 32, Type (0, 0), None
#     Edge 33, Type (0, 0), None
#     Edge 34, Type (0, 0), None
#     Edge 35, Type (0, 0), None
#     Edge 36, Type (0, 0), None
#     Edge 37, Type (0, 0), None
#     Edge 38, Type (0, 0), None
#     Edge 39, Type (0, 0), None
#     Edge 40, Type (0, 0), None
#     Edge 41, Type (0, 0), None
#     Edge 42, Type (0, 0), None
#     Edge 43, Type (0, 0), None
#     Edge 44, Type (0, 0), None
#     Edge 45, Type (0, 0), None
#     Edge 46, Type (0, 0), None
#     Edge 47, Type (0, 0), None
#     Edge 48, Type (0, 0), None
#     Edge 49, Type (0, 0), None
#     Edge 50, Type (0, 0), None
#     Edge 51, Type (0, 0), None
#     Edge 52, Type (0, 0), None
#     Edge 53, Type (0, 0), None
#     Edge 54, Type (0, 0), None
#     Edge 55, Type (0, 0), None
#     Edge 56, Type (0, 0), None
#     Edge 57, Type (0, 0), None
#     Edge 58, Type (0, 0), None
#     Edge 59, Type (0, 0), None
#     Edge 60, Type (0, 0), None
#     Edge 61, Type (0, 0), None
#     Edge 62, Type (0, 0), None
#     Edge 63, Type (0, 0), None
#     Edge 64, Type (0, 0), None
#     Edge 65, Type (0, 0), None
#     Edge 66, Type (0, 0), None
#     Edge 67, Type (0, 0), None
#     Edge 68, Type (0, 0), None
#     Edge 69, Type (0, 0), None
#     Edge 70, Type (0, 0), None
#     Edge 71, Type (0, 0), None
#     Edge 72, Type (0, 0), None
#     Edge 73, Type (0, 0), None
#     Edge 74, Type (0, 0), None
#     Edge 75, Type (0, 0), None
#     Edge 76, Type (0, 0), None
#     Edge 77, Type (0, 0), None
#     Edge 78, Type (0, 0), None
#     Edge 79, Type (0, 0), None
#     Edge 80, Type (0, 0), None
#     Edge 81, Type (0, 0), None
#     Edge 82, Type (0, 0), None
#     Edge 83, Type (0, 0), None
#     Edge 84, Type (0, 0), None
#     Edge 85, Type (0, 0), None
#     Edge 86, Type (0, 0), None
#     Edge 87, Type (0, 0), None
#     Edge 88, Type (0, 0), None
#     Edge 89, Type (0, 0), None
#     Edge 90, Type (0, 0), None
#     Edge 91, Type (0, 0), None
#     Edge 92, Type (0, 0), None
#     Edge 93, Type (0, 0), None
#     Edge 94, Type (0, 0), None
#     Edge 95, Type (0, 0), None
# Relax obj value: 0.039
# Max RMSD: 0.064
# Mean RMSD: 0.064
data_MOF--net-uos--node1-KUFVIS_clean_sbu_0--edge1-none
_symmetry_space_group_name_H-M    P1
_symmetry_Int_Tables_number       1
_symmetry_cell_setting            triclinic
loop_
_symmetry_equiv_pos_as_xyz
'x, y, z'
_cell_length_a     37.64904
_cell_length_b     37.606014
_cell_length_c     10.906623
_cell_angle_alpha  90.003832
_cell_angle_beta   89.986483
_cell_angle_gamma 90.839023
loop_
_atom_site_label
_atom_site_type_symbol
_atom_site_fract_x
_atom_site_fract_y
_atom_site_fract_z
_atom_type_partial_charge
Mn0 Mn 0.18277 0.16609 0.11654 0.0
Mn1 Mn 0.19854 0.21148 0.37558 0.0
C2 C 0.16261 0.14141 0.31063 0.0
C3 C 0.15061 0.14713 0.92846 0.0
C4 C 0.257 0.18541 0.21638 0.0
O5 O 0.18593 0.22229 0.07195 0.0
O6 O 0.18061 0.24601 0.26015 0.0
C7 C 0.12768 0.2321 0.46163 0.0
N8 N 0.15988 0.21783 0.48151 0.0
C9 C 0.15347 0.2223 0.69753 0.0
C10 C 0.11873 0.23421 0.68173 0.0
C11 C 0.10522 0.23773 0.56246 0.0
C12 C 0.17157 0.21098 0.59462 0.0
H13 H 0.12002 0.23912 0.37004 0.0
C14 C 0.18062 0.24937 0.14402 0.0
O15 O 0.18439 0.14456 0.94276 0.0
O16 O 0.13519 0.16135 0.0223 0.0
N17 N 0.21659 0.18066 0.49841 0.0
C18 C 0.24436 0.15787 0.49841 0.0
C19 C 0.25923 0.14748 0.61079 0.0
C20 C 0.2464 0.16212 0.72055 0.0
C21 C 0.21784 0.18564 0.7165 0.0
C22 C 0.20225 0.19202 0.60377 0.0
H23 H 0.25484 0.14752 0.41431 0.0
O24 O 0.16844 0.12116 0.21659 0.0
O25 O 0.17037 0.17446 0.28901 0.0
O26 O 0.23728 0.16232 0.16177 0.0
O27 O 0.24334 0.2095 0.28097 0.0
C28 C 0.2044 0.20383 0.81852 0.0
C29 C 0.17103 0.22089 0.8101 0.0
H30 H 0.10233 0.24059 0.75998 0.0
H31 H 0.07834 0.24636 0.54902 0.0
H32 H 0.28118 0.12924 0.61261 0.0
H33 H 0.25862 0.1552 0.80703 0.0
H34 H 0.21883 0.20261 0.90379 0.0
H35 H 0.15832 0.23271 0.88811 0.0
Mn36 Mn 0.11062 0.93848 0.36121 0.0
Mn37 Mn 0.06519 0.94209 0.61709 0.0
C38 C 0.13981 0.92066 0.55266 0.0
C39 C 0.13316 0.91119 0.17153 0.0
C40 C 0.0836 1.00612 0.46198 0.0
O41 O 0.05219 0.94106 0.32515 0.0
O42 O 0.04165 0.91178 0.49367 0.0
C43 C 0.06153 0.86901 0.71854 0.0
N44 N 0.06594 0.90449 0.73175 0.0
C45 C 0.06077 0.90061 0.94978 0.0
C46 C 0.05844 0.86351 0.94061 0.0
C47 C 0.06025 0.84747 0.82435 0.0
C48 C 0.0674 0.91966 0.84307 0.0
H49 H 0.05771 0.85828 0.62837 0.0
C50 C 0.02905 0.92551 0.39775 0.0
O51 O 0.13173 0.94498 0.1891 0.0
O52 O 0.11886 0.89277 0.26005 0.0
N53 N 0.08937 0.96868 0.74055 0.0
C54 C 0.11275 0.99659 0.73715 0.0
C55 C 0.12271 1.01324 0.84749 0.0
C56 C 0.10792 1.00121 0.95858 0.0
C57 C 0.0855 0.9711 0.95833 0.0
C58 C 0.07946 0.95416 0.84748 0.0
H59 H 0.12505 1.00472 0.65275 0.0
O60 O 0.1581 0.92831 0.45531 0.0
O61 O 0.10643 0.9239 0.53365 0.0
O62 O 0.11065 0.99113 0.41617 0.0
O63 O 0.05983 0.98718 0.51576 0.0
C64 C 0.07049 0.95568 0.06357 0.0
C65 C 0.05893 0.91956 0.06032 0.0
H66 H 0.05478 0.84723 0.02145 0.0
H67 H 0.05666 0.819 0.81711 0.0
H68 H 0.1419 0.03488 0.84728 0.0
H69 H 0.11543 1.01406 0.04378 0.0
H70 H 0.07129 0.97055 0.14798 0.0
H71 H 0.05112 0.90569 0.14281 0.0
Mn72 Mn 0.35618 0.87349 0.61661 0.0
Mn73 Mn 0.34038 0.82811 0.87565 0.0
C74 C 0.37633 0.89817 0.8107 0.0
C75 C 0.38834 0.89246 0.42852 0.0
C76 C 0.28194 0.85417 0.71643 0.0
O77 O 0.35302 0.81729 0.572 0.0
O78 O 0.35832 0.79357 0.76019 0.0
C79 C 0.41124 0.80749 0.96158 0.0
N80 N 0.37904 0.82175 0.98152 0.0
C81 C 0.38545 0.81729 0.19752 0.0
C82 C 0.4202 0.80539 0.18166 0.0
C83 C 0.4337 0.80186 0.06236 0.0
C84 C 0.36736 0.82861 0.09465 0.0
H85 H 0.4189 0.80048 0.86997 0.0
C86 C 0.35832 0.79022 0.64407 0.0
O87 O 0.35457 0.89502 0.44286 0.0
O88 O 0.40376 0.87824 0.52233 0.0
N89 N 0.32233 0.85892 -0.00148 0.0
C90 C 0.29455 0.8817 -0.00142 0.0
C91 C 0.27968 0.89209 0.11099 0.0
C92 C 0.29252 0.87747 0.22072 0.0
C93 C 0.32109 0.85395 0.21662 0.0
C94 C 0.33667 0.84757 0.10385 0.0
H95 H 0.28405 0.89203 0.9145 0.0
O96 O 0.3705 0.91842 0.71668 0.0
O97 O 0.36857 0.86512 0.78908 0.0
O98 O 0.30167 0.87726 0.66185 0.0
O99 O 0.29559 0.83009 0.78107 0.0
C100 C 0.33452 0.83577 0.31861 0.0
C101 C 0.3679 0.81871 0.31012 0.0
H102 H 0.4366 0.799 0.25987 0.0
H103 H 0.46058 0.79323 0.04887 0.0
H104 H 0.25772 0.91033 0.11285 0.0
H105 H 0.2803 0.88439 0.30723 0.0
H106 H 0.32011 0.83698 0.40392 0.0
H107 H 0.38062 0.80689 0.38811 0.0
Mn108 Mn 0.42832 0.10109 0.86114 0.0
Mn109 Mn 0.47373 0.0975 0.11701 0.0
C110 C 0.39912 0.11891 0.05263 0.0
C111 C 0.40577 0.12838 0.67149 0.0
C112 C 0.45534 0.03346 0.96194 0.0
O113 O 0.48676 0.09852 0.82506 0.0
O114 O 0.49727 0.12781 -0.00643 0.0
C115 C 0.47739 0.17058 0.21847 0.0
N116 N 0.47298 0.13511 0.23167 0.0
C117 C 0.47817 0.13899 0.4497 0.0
C118 C 0.48049 0.17608 0.44053 0.0
C119 C 0.47868 0.19212 0.32429 0.0
C120 C 0.47152 0.11993 0.34299 0.0
H121 H 0.48122 0.18131 0.1283 0.0
C122 C 0.50989 0.11407 0.89768 0.0
O123 O 0.40722 0.0946 0.68905 0.0
O124 O 0.42008 0.1468 0.75999 0.0
N125 N 0.44956 0.07091 0.24051 0.0
C126 C 0.42619 0.043 0.23715 0.0
C127 C 0.41623 0.02634 0.3475 0.0
C128 C 0.43103 0.03837 0.45856 0.0
C129 C 0.45345 0.06849 0.45827 0.0
C130 C 0.45947 0.08543 0.34742 0.0
H131 H 0.41388 0.03487 0.15276 0.0
O132 O 0.38084 0.11127 0.95529 0.0
O133 O 0.43249 0.11568 0.03359 0.0
O134 O 0.4283 0.04845 0.91611 0.0
O135 O 0.4791 0.0524 0.01568 0.0
C136 C 0.46846 0.08392 0.56348 0.0
C137 C 0.48002 0.12003 0.56022 0.0
H138 H 0.48416 0.19236 0.52137 0.0
H139 H 0.48227 0.22059 0.31704 0.0
H140 H 0.39705 1.0047 0.34733 0.0
H141 H 0.42353 0.02553 0.54377 0.0
H142 H 0.46768 0.06904 0.64788 0.0
H143 H 0.48784 0.1339 0.64271 0.0
Mn144 Mn 0.17879 0.87946 0.86081 0.0
Mn145 Mn 0.17129 0.82461 0.62744 0.0
C146 C 0.15523 0.90545 0.66909 0.0
C147 C 0.15089 0.8958 0.05731 0.0
C148 C 0.24204 0.85688 0.72131 0.0
O149 O 0.19158 0.82556 0.91727 0.0
O150 O 0.15172 0.81311 0.78993 0.0
C151 C 0.09694 0.80221 0.61003 0.0
N152 N 0.12508 0.81965 0.55839 0.0
C153 C 0.09661 0.81772 0.36113 0.0
C154 C 0.06556 0.80474 0.41674 0.0
C155 C 0.06633 0.79556 0.54094 0.0
C156 C 0.12607 0.82559 0.4362 0.0
H157 H 0.0983 0.79191 0.70199 0.0
C158 C 0.1729 0.80088 0.86656 0.0
O159 O 0.18452 0.89975 0.03561 0.0
O160 O 0.1336 0.88129 0.96722 0.0
N161 N 0.18693 0.83538 0.46492 0.0
C162 C 0.22101 0.83198 0.42418 0.0
C163 C 0.22761 0.82595 0.3002 0.0
C164 C 0.19954 0.8245 0.2174 0.0
C165 C 0.16462 0.82724 0.25948 0.0
C166 C 0.15923 0.83215 0.38582 0.0
H167 H 0.24314 0.83058 0.48623 0.0
O168 O 0.16206 0.92447 0.76568 0.0
O169 O 0.16209 0.87231 0.68734 0.0
O170 O 0.22875 0.88246 0.78301 0.0
O171 O 0.22267 0.82963 0.68945 0.0
C172 C 0.13515 0.82062 0.18286 0.0
C173 C 0.10097 0.81715 0.23328 0.0
H174 H 0.04289 0.79692 0.36177 0.0
H175 H 0.04448 0.78129 0.58205 0.0
H176 H 0.2541 0.81991 0.26956 0.0
H177 H 0.20528 0.81788 0.12394 0.0
H178 H 0.13858 0.8164 0.08567 0.0
H179 H 0.07891 0.81011 0.17404 0.0
Mn180 Mn 0.42714 0.93102 0.11396 0.0
Mn181 Mn 0.47708 0.92206 0.86645 0.0
C182 C 0.3955 0.91109 0.92552 0.0
C183 C 0.40713 0.90653 0.31318 0.0
C184 C 0.45464 0.99359 0.97823 0.0
O185 O 0.4839 0.93843 0.16002 0.0
O186 O 0.49094 0.9 0.02178 0.0
C187 C 0.47931 0.84403 0.8434 0.0
N188 N 0.47351 0.87628 0.7919 0.0
C189 C 0.47091 0.84993 0.59109 0.0
C190 C 0.47316 0.81622 0.64336 0.0
C191 C 0.47883 0.81361 0.76945 0.0
C192 C 0.46931 0.87951 0.6697 0.0
H193 H 0.4856 0.8416 0.9393 0.0
C194 C 0.50611 0.91919 0.10008 0.0
O195 O 0.40935 0.94005 0.2894 0.0
O196 O 0.41886 0.88676 0.22462 0.0
N197 N 0.46675 0.94054 0.70678 0.0
C198 C 0.4746 0.97455 0.67064 0.0
C199 C 0.48396 0.98168 0.54892 0.0
C200 C 0.48369 0.95441 0.46242 0.0
C201 C 0.47593 0.91961 0.49958 0.0
C202 C 0.46833 0.9136 0.62406 0.0
H203 H 0.47693 0.99603 0.73535 0.0
O204 O 0.37905 0.91916 0.02594 0.0
O205 O 0.42958 0.91525 0.93759 0.0
O206 O 0.42875 0.98067 0.03984 0.0
O207 O 0.47946 0.97342 0.9353 0.0
C208 C 0.47922 0.89026 0.42021 0.0
C209 C 0.47462 0.8555 0.46458 0.0
H210 H 0.47453 0.79259 0.58673 0.0
H211 H 0.48493 0.78852 0.80863 0.0
H212 H 0.49303 1.008 0.52291 0.0
H213 H 0.49179 0.96036 0.36973 0.0
H214 H 0.48591 0.89384 0.32513 0.0
H215 H 0.47726 0.83326 0.40231 0.0
Mn216 Mn 0.36014 0.16013 0.36083 0.0
Mn217 Mn 0.36765 0.21497 0.12742 0.0
C218 C 0.38369 0.13412 0.16907 0.0
C219 C 0.38804 0.14378 0.55729 0.0
C220 C 0.2969 0.18271 0.22133 0.0
O221 O 0.34736 0.21403 0.41729 0.0
O222 O 0.38722 0.22647 0.28987 0.0
C223 C 0.442 0.23736 0.10986 0.0
N224 N 0.41386 0.21992 0.05828 0.0
C225 C 0.44233 0.22185 0.86096 0.0
C226 C 0.47337 0.23483 0.9165 0.0
C227 C 0.47261 0.24401 0.04071 0.0
C228 C 0.41286 0.21398 0.93608 0.0
H229 H 0.44064 0.24767 0.20182 0.0
C230 C 0.36605 0.2387 0.36653 0.0
O231 O 0.35441 0.13984 0.53565 0.0
O232 O 0.40533 0.15829 0.46718 0.0
N233 N 0.35201 0.20419 0.96492 0.0
C234 C 0.31793 0.20759 0.92425 0.0
C235 C 0.31132 0.21361 0.80028 0.0
C236 C 0.33939 0.21507 0.71743 0.0
C237 C 0.37431 0.21234 0.75944 0.0
C238 C 0.3797 0.20742 0.88577 0.0
H239 H 0.2958 0.20899 -0.01367 0.0
O240 O 0.37686 0.11511 0.26566 0.0
O241 O 0.37684 0.16727 0.18733 0.0
O242 O 0.31018 0.15714 0.28307 0.0
O243 O 0.31627 0.20996 0.1895 0.0
C244 C 0.40377 0.21896 0.68276 0.0
C245 C 0.43795 0.22243 0.73312 0.0
H246 H 0.49604 0.24265 0.86149 0.0
H247 H 0.49446 0.25828 0.08177 0.0
H248 H 0.28483 0.21964 0.7697 0.0
H249 H 0.33364 0.22168 0.62398 0.0
H250 H 0.40034 0.22317 0.58559 0.0
H251 H 0.46001 0.22948 0.67384 0.0
Mn252 Mn 0.1118 0.10856 0.61394 0.0
Mn253 Mn 0.06187 0.11752 0.36647 0.0
C254 C 0.14344 0.12849 0.42546 0.0
C255 C 0.13182 0.13306 0.81315 0.0
C256 C 0.0843 0.046 0.47825 0.0
O257 O 0.05503 0.10116 0.66004 0.0
O258 O 0.04801 0.13958 0.52182 0.0
C259 C 0.05964 0.19555 0.34344 0.0
N260 N 0.06544 0.1633 0.29193 0.0
C261 C 0.06804 0.18965 0.09112 0.0
C262 C 0.06579 0.22336 0.14341 0.0
C263 C 0.06012 0.22597 0.2695 0.0
C264 C 0.06964 0.16007 0.16972 0.0
H265 H 0.05335 0.19798 0.43936 0.0
C266 C 0.03283 0.12039 0.60009 0.0
O267 O 0.12959 0.09953 0.78936 0.0
O268 O 0.12009 0.15283 0.72462 0.0
N269 N 0.07219 0.09904 0.20678 0.0
C270 C 0.06435 0.06503 0.17065 0.0
C271 C 0.05499 0.05789 0.04894 0.0
C272 C 0.05525 0.08517 0.96245 0.0
C273 C 0.06302 0.11996 -0.0004 0.0
C274 C 0.07062 0.12598 0.12407 0.0
H275 H 0.06201 0.04355 0.23536 0.0
O276 O 0.15989 0.12042 0.52586 0.0
O277 O 0.10936 0.12434 0.43758 0.0
O278 O 0.11018 0.05892 0.53982 0.0
O279 O 0.05948 0.06616 0.43532 0.0
C280 C 0.05973 0.14931 0.92025 0.0
C281 C 0.06433 0.18408 0.96462 0.0
H282 H 0.06442 0.24699 0.08678 0.0
H283 H 0.05402 0.25106 0.3087 0.0
H284 H 0.04591 0.03158 0.02294 0.0
H285 H 0.04715 0.07922 0.86977 0.0
H286 H 0.05303 0.14574 0.82518 0.0
H287 H 0.06169 0.20632 0.90235 0.0
Mn288 Mn 0.8482 0.85594 0.88286 0.0
Mn289 Mn 0.85994 0.80688 0.63539 0.0
C290 C 0.8665 0.88876 0.6927 0.0
C291 C 0.87289 0.87596 0.08234 0.0
C292 C 0.78685 0.82491 0.7503 0.0
O293 O 0.84427 0.79899 0.92792 0.0
O294 O 0.8832 0.79756 0.79166 0.0
C295 C 0.93812 0.81063 0.61078 0.0
N296 N 0.90534 0.81291 0.55959 0.0
C297 C 0.93102 0.81611 0.3581 0.0
C298 C 0.96481 0.81822 0.40969 0.0
C299 C 0.96838 0.81415 0.53632 0.0
C300 C 0.90156 0.8156 0.43714 0.0
H301 H 0.94113 0.80559 0.70727 0.0
C302 C 0.86554 0.77948 0.8659 0.0
O303 O 0.83935 0.87249 0.0603 0.0
O304 O 0.89267 0.86608 -0.00896 0.0
N305 N 0.84058 0.8141 0.4751 0.0
C306 C 0.80715 0.80371 0.44033 0.0
C307 C 0.8005 0.79326 0.31946 0.0
C308 C 0.82757 0.79508 0.23211 0.0
C309 C 0.86178 0.80551 0.26809 0.0
C310 C 0.86744 0.81386 0.3921 0.0
H311 H 0.78598 0.80022 0.50564 0.0
O312 O 0.85762 0.90459 0.79354 0.0
O313 O 0.86311 0.8547 0.70398 0.0
O314 O 0.79824 0.85144 0.81255 0.0
O315 O 0.80854 0.80171 0.70472 0.0
C316 C 0.89118 0.80431 0.1882 0.0
C317 C 0.92558 0.81161 0.23175 0.0
H318 H 0.98808 0.8203 0.35205 0.0
H319 H 0.99444 0.8137 0.57682 0.0
H320 H 0.77481 0.78224 0.29504 0.0
H321 H 0.82211 0.78627 0.13969 0.0
H322 H 0.888 0.79717 0.09346 0.0
H323 H 0.94786 0.81087 0.16895 0.0
Mn324 Mn 0.91072 0.11701 0.58797 0.0
Mn325 Mn 0.95376 0.099 0.32711 0.0
C326 C 0.88701 0.13796 0.3947 0.0
C327 C 0.8928 0.14844 0.7773 0.0
C328 C 0.91848 0.04255 0.47596 0.0
O329 O 0.9669 0.10939 0.63379 0.0
O330 O 0.9911 0.11053 0.44575 0.0
C331 C 0.98084 0.16992 0.24912 0.0
N332 N 0.96638 0.1376 0.22593 0.0
C333 C 0.97091 0.14572 0.00987 0.0
C334 C 0.98376 0.18036 0.02891 0.0
C335 C 0.9872 0.19309 0.1497 0.0
C336 C 0.95926 0.1269 0.11165 0.0
H337 H 0.98661 0.17735 0.34222 0.0
C338 C 0.99472 0.1099 0.56207 0.0
O339 O 0.88762 0.11515 0.75822 0.0
O340 O 0.9096 0.16398 0.68773 0.0
N341 N 0.92125 0.08642 0.20318 0.0
C342 C 0.89136 0.06571 0.20151 0.0
C343 C 0.87628 0.05704 0.08768 0.0
C344 C 0.89502 0.06554 0.9794 0.0
C345 C 0.92604 0.08635 -0.01346 0.0
C346 C 0.93604 0.09883 0.09997 0.0
H347 H 0.87857 0.05722 0.28524 0.0
O348 O 0.86686 0.13322 0.48993 0.0
O349 O 0.91992 0.12978 0.41512 0.0
O350 O 0.90103 0.06353 0.54418 0.0
O351 O 0.94391 0.05397 0.41122 0.0
C352 C 0.94624 0.09758 0.88585 0.0
C353 C 0.96709 0.12932 0.89515 0.0
H354 H 0.99025 0.19752 0.95215 0.0
H355 H 0.99562 0.22024 0.16512 0.0
H356 H 0.85119 0.04271 0.08374 0.0
H357 H 0.88436 0.05801 0.89105 0.0
H358 H 0.94239 0.08357 0.80099 0.0
H359 H 0.97881 0.1419 0.81566 0.0
Mn360 Mn 0.69073 0.18364 0.38283 0.0
Mn361 Mn 0.679 0.2327 0.13542 0.0
C362 C 0.67241 0.15082 0.19268 0.0
C363 C 0.66603 0.16361 0.58232 0.0
C364 C 0.75209 0.21466 0.2503 0.0
O365 O 0.69467 0.24059 0.42792 0.0
O366 O 0.65574 0.24202 0.29171 0.0
C367 C 0.60082 0.22895 0.11092 0.0
N368 N 0.6336 0.22667 0.05968 0.0
C369 C 0.60792 0.22346 0.85823 0.0
C370 C 0.57413 0.22136 0.90988 0.0
C371 C 0.57056 0.22543 0.03651 0.0
C372 C 0.63738 0.22397 0.93723 0.0
H373 H 0.59781 0.23399 0.20742 0.0
C374 C 0.6734 0.2601 0.36593 0.0
O375 O 0.69957 0.16708 0.56024 0.0
O376 O 0.64626 0.1735 0.49108 0.0
N377 N 0.69836 0.22548 0.97509 0.0
C378 C 0.7318 0.23587 0.94029 0.0
C379 C 0.73844 0.24633 0.81941 0.0
C380 C 0.71137 0.2445 0.7321 0.0
C381 C 0.67716 0.23406 0.76812 0.0
C382 C 0.6715 0.22571 0.89214 0.0
H383 H 0.75296 0.23937 0.00557 0.0
O384 O 0.6813 0.13499 0.29349 0.0
O385 O 0.67582 0.18488 0.20397 0.0
O386 O 0.74069 0.18813 0.31249 0.0
O387 O 0.7304 0.23786 0.20469 0.0
C388 C 0.64777 0.23526 0.68827 0.0
C389 C 0.61336 0.22796 0.73188 0.0
H390 H 0.55086 0.21928 0.85227 0.0
H391 H 0.5445 0.22589 0.07705 0.0
H392 H 0.76413 0.25736 0.79496 0.0
H393 H 0.71683 0.25332 0.63967 0.0
H394 H 0.65094 0.2424 0.59354 0.0
H395 H 0.59109 0.22871 0.66911 0.0
Mn396 Mn 0.62822 0.92257 0.08799 0.0
Mn397 Mn 0.5852 0.94057 0.82711 0.0
C398 C 0.65195 0.90162 0.89469 0.0
C399 C 0.64615 0.89114 0.2773 0.0
C400 C 0.62046 0.99703 0.97595 0.0
O401 O 0.57203 0.93018 0.13383 0.0
O402 O 0.54785 0.92905 0.94577 0.0
C403 C 0.55812 0.86965 0.74916 0.0
N404 N 0.57259 0.90196 0.72595 0.0
C405 C 0.56804 0.89385 0.50991 0.0
C406 C 0.55519 0.85921 0.52895 0.0
C407 C 0.55176 0.84648 0.64974 0.0
C408 C 0.57971 0.91266 0.61167 0.0
H409 H 0.55235 0.86221 0.84227 0.0
C410 C 0.54422 0.92967 0.06209 0.0
O411 O 0.65132 0.92443 0.25822 0.0
O412 O 0.62935 0.87559 0.18775 0.0
N413 N 0.61771 0.95315 0.70314 0.0
C414 C 0.6476 0.97386 0.70141 0.0
C415 C 0.66266 0.98255 0.58755 0.0
C416 C 0.64392 0.97405 0.47931 0.0
C417 C 0.6129 0.95323 0.48652 0.0
C418 C 0.60292 0.94074 0.59996 0.0
H419 H 0.66038 0.98236 0.78512 0.0
O420 O 0.67209 0.90637 -0.0101 0.0
O421 O 0.61904 0.9098 0.91513 0.0
O422 O 0.63789 0.97606 0.0442 0.0
O423 O 0.59505 0.98561 0.91118 0.0
C424 C 0.59269 0.942 0.38587 0.0
C425 C 0.57184 0.91025 0.39519 0.0
H426 H 0.54869 0.84205 0.45219 0.0
H427 H 0.54334 0.81933 0.66516 0.0
H428 H 0.68774 0.99689 0.58356 0.0
H429 H 0.65456 0.98159 0.39094 0.0
H430 H 0.59653 0.95602 0.30101 0.0
H431 H 0.56011 0.89769 0.31573 0.0
Mn432 Mn 0.85391 0.18698 0.08968 0.0
Mn433 Mn 0.86452 0.23535 0.33978 0.0
C434 C 0.87398 0.15594 0.27834 0.0
C435 C 0.87874 0.1663 0.89343 0.0
C436 C 0.79153 0.21547 0.22298 0.0
O437 O 0.84763 0.24386 0.04492 0.0
O438 O 0.88581 0.25213 0.18559 0.0
C439 C 0.94312 0.23772 0.36103 0.0
N440 N 0.9106 0.23299 0.41253 0.0
C441 C 0.93605 0.23304 0.61482 0.0
C442 C 0.97007 0.23495 0.56374 0.0
C443 C 0.97348 0.2381 0.43635 0.0
C444 C 0.907 0.23035 0.53491 0.0
H445 H 0.94567 0.24207 0.26382 0.0
C446 C 0.86617 0.26656 0.10815 0.0
O447 O 0.84512 0.1677 0.91635 0.0
O448 O 0.89849 0.17884 0.98165 0.0
N449 N 0.84734 0.21972 0.49488 0.0
C450 C 0.81355 0.21176 0.53029 0.0
C451 C 0.80496 0.21233 0.65487 0.0
C452 C 0.83048 0.22369 0.74083 0.0
C453 C 0.8657 0.22948 0.70309 0.0
C454 C 0.87307 0.22605 0.57848 0.0
H455 H 0.79317 0.20552 0.4646 0.0
O456 O 0.86436 0.13899 0.18022 0.0
O457 O 0.87117 0.18972 0.26266 0.0
O458 O 0.80362 0.18939 0.16121 0.0
O459 O 0.81271 0.23819 0.27636 0.0
C460 C 0.89414 0.23727 0.78368 0.0
C461 C 0.92947 0.23666 0.74103 0.0
H462 H 0.99347 0.23674 0.62138 0.0
H463 H 0.99937 0.24195 0.3966 0.0
H464 H 0.7785 0.2047 0.68347 0.0
H465 H 0.82296 0.22627 0.83589 0.0
H466 H 0.88965 0.2417 0.87957 0.0
H467 H 0.95117 0.24057 0.80508 0.0
Mn468 Mn 0.63269 0.11182 0.88508 0.0
Mn469 Mn 0.59203 0.09269 0.15381 0.0
C470 C 0.65864 0.13141 0.07905 0.0
C471 C 0.65215 0.1448 0.69808 0.0
C472 C 0.62213 0.03607 -0.00465 0.0
O473 O 0.57567 0.10731 0.84287 0.0
O474 O 0.55476 0.10146 0.03457 0.0
C475 C 0.56228 0.16217 0.22472 0.0
N476 N 0.57956 0.13196 0.25016 0.0
C477 C 0.57411 0.14114 0.46517 0.0
C478 C 0.56033 0.17486 0.44336 0.0
C479 C 0.55596 0.18617 0.32127 0.0
C480 C 0.58721 0.12284 0.36531 0.0
H481 H 0.55371 0.16703 0.13243 0.0
C482 C 0.54914 0.10457 0.9197 0.0
O483 O 0.65505 0.11121 0.71264 0.0
O484 O 0.63732 0.15973 0.79154 0.0
N485 N 0.62471 0.08227 0.27822 0.0
C486 C 0.65275 0.06 0.28258 0.0
C487 C 0.66643 0.05096 0.39786 0.0
C488 C 0.64742 0.06032 0.50434 0.0
C489 C 0.61785 0.08225 0.49412 0.0
C490 C 0.61006 0.09537 0.37992 0.0
H491 H 0.66463 0.04994 0.19958 0.0
O492 O 0.67804 0.12584 0.98295 0.0
O493 O 0.62543 0.12358 0.06081 0.0
O494 O 0.63764 0.05702 0.91949 0.0
O495 O 0.60159 0.04745 0.07646 0.0
C496 C 0.59635 0.09307 0.59185 0.0
C497 C 0.57626 0.12466 0.58006 0.0
H498 H 0.5526 0.19187 0.51858 0.0
H499 H 0.54543 0.21219 0.3027 0.0
H500 H 0.69019 0.03525 0.4042 0.0
H501 H 0.65656 0.05212 0.59368 0.0
H502 H 0.5983 0.07875 0.67688 0.0
H503 H 0.56302 0.13657 0.65721 0.0
Mn504 Mn 0.68505 0.85259 0.58963 0.0
Mn505 Mn 0.67441 0.80423 0.83977 0.0
C506 C 0.66498 0.88364 0.77832 0.0
C507 C 0.66021 0.87328 0.39341 0.0
C508 C 0.74741 0.8241 0.72295 0.0
O509 O 0.69131 0.79571 0.54486 0.0
O510 O 0.65313 0.78745 0.6856 0.0
C511 C 0.59581 0.80186 0.8611 0.0
N512 N 0.62832 0.8066 0.91257 0.0
C513 C 0.60287 0.80654 0.11488 0.0
C514 C 0.56885 0.80463 0.06383 0.0
C515 C 0.56545 0.80148 0.93645 0.0
C516 C 0.63192 0.80923 0.03495 0.0
H517 H 0.59327 0.79751 0.76389 0.0
C518 C 0.67278 0.77301 0.60813 0.0
O519 O 0.69383 0.87187 0.41627 0.0
O520 O 0.64046 0.86074 0.48166 0.0
N521 N 0.69158 0.81985 -0.00513 0.0
C522 C 0.72537 0.8278 0.03025 0.0
C523 C 0.73396 0.82722 0.15481 0.0
C524 C 0.70843 0.81586 0.24079 0.0
C525 C 0.67321 0.81009 0.20308 0.0
C526 C 0.66585 0.81353 0.07848 0.0
H527 H 0.74576 0.83404 0.96455 0.0
O528 O 0.6746 0.90059 0.6802 0.0
O529 O 0.66777 0.84986 0.76263 0.0
O530 O 0.73533 0.85017 0.66113 0.0
O531 O 0.72623 0.80139 0.77632 0.0
C532 C 0.64476 0.80231 0.2837 0.0
C533 C 0.60944 0.80292 0.24109 0.0
H534 H 0.54545 0.80284 0.12149 0.0
H535 H 0.53956 0.79762 0.89673 0.0
H536 H 0.76042 0.83482 0.18339 0.0
H537 H 0.71595 0.81327 0.33583 0.0
H538 H 0.64925 0.79787 0.37958 0.0
H539 H 0.58773 0.79902 0.30516 0.0
Mn540 Mn 0.90625 0.92775 0.38509 0.0
Mn541 Mn 0.94688 0.94689 0.65383 0.0
C542 C 0.88028 0.90818 0.57908 0.0
C543 C 0.88678 0.89477 0.19809 0.0
C544 C 0.9168 1.00351 0.49537 0.0
O545 O 0.96328 0.93224 0.34286 0.0
O546 O 0.98415 0.93814 0.53454 0.0
C547 C 0.97664 0.87741 0.72459 0.0
N548 N 0.95935 0.90761 0.7501 0.0
C549 C 0.96482 0.89843 0.96509 0.0
C550 C 0.97861 0.86472 0.94321 0.0
C551 C 0.98297 0.85341 0.8211 0.0
C552 C 0.95171 0.91673 0.86528 0.0
H553 H 0.9852 0.87255 0.63228 0.0
C554 C 0.98979 0.93501 0.4197 0.0
O555 O 0.88389 0.92836 0.21267 0.0
O556 O 0.9016 0.87984 0.29153 0.0
N557 N 0.91419 0.95729 0.77831 0.0
C558 C 0.88616 0.97958 0.78276 0.0
C559 C 0.8725 0.98862 0.89809 0.0
C560 C 0.89153 0.97926 0.00451 0.0
C561 C 0.92109 0.95732 -0.0058 0.0
C562 C 0.92886 0.94419 0.87996 0.0
H563 H 0.87428 0.98964 0.69979 0.0
O564 O 0.86088 0.91374 0.48299 0.0
O565 O 0.91349 0.916 0.56082 0.0
O566 O 0.90132 0.98256 0.41946 0.0
O567 O 0.9373 0.99214 0.57656 0.0
C568 C 0.9426 0.94651 0.09185 0.0
C569 C 0.96268 0.91491 0.07999 0.0
H570 H 0.98634 0.8477 0.01841 0.0
H571 H 0.9935 0.82739 0.80248 0.0
H572 H 0.84875 1.00434 0.9045 0.0
H573 H 0.8824 0.98747 0.09387 0.0
H574 H 0.94066 0.96082 0.1769 0.0
H575 H 0.97594 0.90301 0.1571 0.0
Mn576 Mn 0.68138 0.65173 0.62973 0.0
Mn577 Mn 0.69638 0.69752 0.88632 0.0
C578 C 0.66027 0.62777 0.82236 0.0
C579 C 0.65082 0.63206 0.44105 0.0
C580 C 0.75413 0.66657 0.74046 0.0
O581 O 0.6879 0.70802 0.58114 0.0
O582 O 0.68199 0.73301 0.767 0.0
C583 C 0.62659 0.7225 0.97074 0.0
N584 N 0.65814 0.70716 -0.00908 0.0
C585 C 0.65099 0.7109 0.20751 0.0
C586 C 0.61641 0.72299 0.19077 0.0
C587 C 0.60362 0.72748 0.07087 0.0
C588 C 0.66941 0.70012 0.10433 0.0
H589 H 0.61989 0.73049 0.87945 0.0
C590 C 0.68435 0.73605 0.65059 0.0
O591 O 0.68419 0.6283 0.46017 0.0
O592 O 0.63493 0.64822 0.53012 0.0
N593 N 0.7114 0.66576 0.00922 0.0
C594 C 0.73267 0.63682 0.00863 0.0
C595 C 0.74173 0.62136 0.1212 0.0
C596 C 0.73233 0.63858 0.23095 0.0
C597 C 0.7111 0.66871 0.22634 0.0
C598 C 0.69838 0.67883 0.11375 0.0
H599 H 0.74121 0.62477 0.92419 0.0
O600 O 0.66607 0.60736 0.72882 0.0
O601 O 0.66724 0.66112 0.8003 0.0
O602 O 0.73467 0.64526 0.67854 0.0
O603 O 0.74082 0.6922 0.79731 0.0
C604 C 0.69964 0.68773 0.32872 0.0
C605 C 0.66773 0.70736 0.32129 0.0
H606 H 0.59959 0.72877 0.26856 0.0
H607 H 0.57681 0.73622 0.05674 0.0
H608 H 0.75669 0.59703 0.12349 0.0
H609 H 0.73931 0.62725 0.31832 0.0
H610 H 0.71386 0.68419 0.41313 0.0
H611 H 0.6552 0.71835 0.40139 0.0
Mn612 Mn 0.60242 0.43359 0.83117 0.0
Mn613 Mn 0.55178 0.42134 0.0737 0.0
C614 C 0.63289 0.41386 0.02117 0.0
C615 C 0.62163 0.41085 0.63259 0.0
C616 C 0.57527 0.4944 0.96822 0.0
O617 O 0.54623 0.43899 0.78195 0.0
O618 O 0.54272 0.39914 0.91473 0.0
C619 C 0.54781 0.34305 0.09377 0.0
N620 N 0.55436 0.37524 0.14649 0.0
C621 C 0.55695 0.34824 0.34614 0.0
C622 C 0.55424 0.31463 0.29218 0.0
C623 C 0.54855 0.31222 0.16583 0.0
C624 C 0.55845 0.37815 0.26896 0.0
H625 H 0.5414 0.34087 -0.00218 0.0
C626 C 0.52581 0.41716 0.8399 0.0
O627 O 0.62018 0.44427 0.65829 0.0
O628 O 0.6103 0.39007 0.72001 0.0
N629 N 0.5602 0.43944 0.23504 0.0
C630 C 0.55234 0.47306 0.27262 0.0
C631 C 0.54394 0.47954 0.39509 0.0
C632 C 0.54492 0.45194 0.48042 0.0
C633 C 0.55268 0.41749 0.44151 0.0
C634 C 0.55934 0.41213 0.31633 0.0
H635 H 0.5493 0.49461 0.2089 0.0
O636 O 0.64994 0.42289 0.92239 0.0
O637 O 0.59917 0.41697 0.0066 0.0
O638 O 0.60105 0.48263 0.90585 0.0
O639 O 0.55012 0.47331 0.0083 0.0
C640 C 0.55045 0.38777 0.52007 0.0
C641 C 0.55438 0.35326 0.47335 0.0
H642 H 0.55346 0.29072 0.34765 0.0
H643 H 0.54446 0.28671 0.12402 0.0
H644 H 0.53491 0.50549 0.42234 0.0
H645 H 0.53727 0.45735 0.57359 0.0
H646 H 0.54494 0.39093 0.61632 0.0
H647 H 0.55234 0.33071 0.53486 0.0
Mn648 Mn 0.85759 0.38785 0.12978 0.0
Mn649 Mn 0.84256 0.34206 0.38637 0.0
C650 C 0.8787 0.4118 0.32241 0.0
C651 C 0.88815 0.40752 0.94109 0.0
C652 C 0.78482 0.37301 0.24051 0.0
O653 O 0.85106 0.33156 0.08117 0.0
O654 O 0.85694 0.30656 0.26702 0.0
C655 C 0.91235 0.31709 0.47064 0.0
N656 N 0.8808 0.33242 0.4909 0.0
C657 C 0.88796 0.32868 0.70748 0.0
C658 C 0.92253 0.31659 0.69066 0.0
C659 C 0.93533 0.3121 0.57073 0.0
C660 C 0.86953 0.33946 0.60433 0.0
H661 H 0.91906 0.3091 0.37933 0.0
C662 C 0.8546 0.30353 0.15061 0.0
O663 O 0.85478 0.41128 0.96025 0.0
O664 O 0.90404 0.39135 0.03012 0.0
N665 N 0.82755 0.37382 0.50931 0.0
C666 C 0.80628 0.40277 0.50877 0.0
C667 C 0.79724 0.41823 0.62136 0.0
C668 C 0.80664 0.40102 0.73109 0.0
C669 C 0.82786 0.37088 0.72643 0.0
C670 C 0.84057 0.36075 0.61382 0.0
H671 H 0.79773 0.41481 0.42433 0.0
O672 O 0.8729 0.43221 0.22888 0.0
O673 O 0.87172 0.37845 0.30034 0.0
O674 O 0.8043 0.39432 0.17861 0.0
O675 O 0.79812 0.34739 0.29743 0.0
C676 C 0.83931 0.35185 0.82878 0.0
C677 C 0.87122 0.33222 0.82129 0.0
H678 H 0.93936 0.31081 0.76841 0.0
H679 H 0.96214 0.30337 0.55656 0.0
H680 H 0.78228 0.44257 0.62368 0.0
H681 H 0.79966 0.41235 0.81848 0.0
H682 H 0.8251 0.3554 0.91323 0.0
H683 H 0.88376 0.32123 0.90136 0.0
Mn684 Mn 0.93655 0.60598 0.33113 0.0
Mn685 Mn 0.98717 0.61824 0.57366 0.0
C686 C 0.90607 0.6257 0.52118 0.0
C687 C 0.91732 0.62871 0.13258 0.0
C688 C 0.96369 0.54518 0.46817 0.0
O689 O 0.99274 0.60059 0.28188 0.0
O690 O 0.99623 0.64043 0.4147 0.0
C691 C 0.99112 0.69652 0.59376 0.0
N692 N 0.98458 0.66433 0.64647 0.0
C693 C 0.98199 0.69133 0.84614 0.0
C694 C 0.9847 0.72495 0.79219 0.0
C695 C 0.99038 0.72735 0.66583 0.0
C696 C 0.98049 0.66142 0.76895 0.0
H697 H 0.99753 0.69871 0.4978 0.0
C698 C 1.01316 0.62242 0.33987 0.0
O699 O 0.91879 0.5953 0.15825 0.0
O700 O 0.92865 0.6495 0.21999 0.0
N701 N 0.97874 0.60013 0.735 0.0
C702 C 0.98661 0.56652 0.77255 0.0
C703 C 0.99501 0.56003 0.89499 0.0
C704 C 0.99403 0.58763 0.98034 0.0
C705 C 0.98627 0.62208 0.94147 0.0
C706 C 0.97961 0.62745 0.8163 0.0
H707 H 0.98964 0.54497 0.70881 0.0
O708 O 0.88902 0.61666 0.42242 0.0
O709 O 0.93979 0.6226 0.50657 0.0
O710 O 0.93792 0.55694 0.40579 0.0
O711 O 0.98884 0.56627 0.50824 0.0
C712 C 0.9885 0.6518 0.02004 0.0
C713 C 0.98457 0.68631 0.97334 0.0
H714 H 0.98547 0.74885 0.84768 0.0
H715 H 0.99446 0.75286 0.62404 0.0
H716 H 1.00404 0.53408 0.92221 0.0
H717 H 1.00168 0.58222 0.0735 0.0
H718 H 0.99401 0.64864 0.11627 0.0
H719 H 0.9866 0.70886 0.03486 0.0
Mn720 Mn 0.6725 0.3812 0.33228 0.0
Mn721 Mn 0.68989 0.33545 0.08048 0.0
C722 C 0.65069 0.40249 0.13886 0.0
C723 C 0.64016 0.39816 0.51735 0.0
C724 C 0.74587 0.37137 0.22511 0.0
O725 O 0.68318 0.32631 0.38463 0.0
O726 O 0.67637 0.2997 0.20176 0.0
C727 C 0.61958 0.30894 -0.00312 0.0
N728 N 0.65198 0.32345 0.9755 0.0
C729 C 0.64401 0.32076 0.7588 0.0
C730 C 0.60945 0.30758 0.77641 0.0
C731 C 0.59676 0.30268 0.89655 0.0
C732 C 0.66308 0.33108 0.86191 0.0
H733 H 0.61195 0.30267 0.08946 0.0
C734 C 0.68082 0.29766 0.31782 0.0
O735 O 0.67331 0.40509 0.49984 0.0
O736 O 0.62539 0.38033 0.42858 0.0
N737 N 0.70424 0.36771 0.95708 0.0
C738 C 0.72364 0.39856 0.95832 0.0
C739 C 0.73135 0.41531 0.84644 0.0
C740 C 0.72252 0.3979 0.73623 0.0
C741 C 0.70301 0.36604 0.74009 0.0
C742 C 0.69158 0.35397 0.85251 0.0
H743 H 0.73132 0.41132 0.0428 0.0
O744 O 0.65475 0.42378 0.23152 0.0
O745 O 0.65945 0.37 0.16311 0.0
O746 O 0.72533 0.39199 0.28343 0.0
O747 O 0.73381 0.34415 0.17141 0.0
C748 C 0.69146 0.3474 0.63691 0.0
C749 C 0.66004 0.32612 0.64412 0.0
H750 H 0.59249 0.30133 0.69895 0.0
H751 H 0.57008 0.29262 0.91051 0.0
H752 H 0.7447 0.44098 0.84499 0.0
H753 H 0.72836 0.41035 0.64925 0.0
H754 H 0.70516 0.35278 0.55263 0.0
H755 H 0.64722 0.31571 0.56293 0.0
Mn756 Mn 0.92767 0.44525 0.6278 0.0
Mn757 Mn 0.97693 0.43264 0.38145 0.0
C758 C 0.89663 0.4253 0.4384 0.0
C759 C 0.90585 0.42135 0.82404 0.0
C760 C 0.96159 0.50607 0.49817 0.0
O761 O 0.98404 0.44967 0.67558 0.0
O762 O 0.98978 0.41026 0.53809 0.0
C763 C 0.97776 0.35427 0.35285 0.0
N764 N 0.97258 0.38703 0.30487 0.0
C765 C 0.97131 0.36263 0.10066 0.0
C766 C 0.97211 0.32838 0.14904 0.0
C767 C 0.97639 0.32437 0.27532 0.0
C768 C 0.97005 0.39135 0.18255 0.0
H769 H 0.98378 0.35121 0.44862 0.0
C770 C 1.00532 0.42945 0.61581 0.0
O771 O 0.90891 0.45495 0.80098 0.0
O772 O 0.91706 0.4012 0.73576 0.0
N773 N 0.9636 0.45121 0.22574 0.0
C774 C 0.95758 0.48539 0.19187 0.0
C775 C 0.95791 0.49442 0.06759 0.0
C776 C 0.96679 0.46876 0.97974 0.0
C777 C 0.97087 0.43331 0.01607 0.0
C778 C 0.96778 0.4256 0.14074 0.0
H779 H 0.9529 0.50574 0.25834 0.0
O780 O 0.87964 0.43574 0.53497 0.0
O781 O 0.93041 0.42762 0.45524 0.0
O782 O 0.9338 0.49519 0.55526 0.0
O783 O 0.98311 0.48393 0.44735 0.0
C784 C 0.97664 0.40498 0.93396 0.0
C785 C 0.97471 0.36959 0.97486 0.0
H786 H 0.97252 0.30524 0.08984 0.0
H787 H 0.97949 0.29822 0.31209 0.0
H788 H 0.95197 0.52129 0.04055 0.0
H789 H 0.96894 0.47643 0.88459 0.0
H790 H 0.98062 0.4095 0.83833 0.0
H791 H 0.97745 0.34808 0.90965 0.0
Mn792 Mn 0.86645 0.65838 0.83232 0.0
Mn793 Mn 0.84908 0.70412 0.58051 0.0
C794 C 0.88826 0.63707 0.63888 0.0
C795 C 0.89878 0.64141 0.01736 0.0
C796 C 0.79309 0.66821 0.72513 0.0
O797 O 0.85577 0.71327 0.88466 0.0
O798 O 0.86261 0.73987 0.70177 0.0
C799 C 0.91939 0.73063 0.49682 0.0
N800 N 0.887 0.71611 0.47549 0.0
C801 C 0.89497 0.71881 0.25878 0.0
C802 C 0.92952 0.73199 0.27633 0.0
C803 C 0.94221 0.73689 0.39646 0.0
C804 C 0.8759 0.70848 0.36191 0.0
H805 H 0.92701 0.73692 0.58938 0.0
C806 C 0.85814 0.74192 0.81783 0.0
O807 O 0.86564 0.63449 -0.0001 0.0
O808 O 0.91356 0.65924 0.92858 0.0
N809 N 0.83473 0.67186 0.45712 0.0
C810 C 0.81532 0.64101 0.45838 0.0
C811 C 0.80761 0.62427 0.34648 0.0
C812 C 0.81644 0.64169 0.23628 0.0
C813 C 0.83595 0.67354 0.24014 0.0
C814 C 0.8474 0.68559 0.35255 0.0
H815 H 0.80765 0.62825 0.54285 0.0
O816 O 0.88419 0.61579 0.73155 0.0
O817 O 0.87951 0.66957 0.66314 0.0
O818 O 0.81362 0.64759 0.78348 0.0
O819 O 0.80516 0.69543 0.67147 0.0
C820 C 0.84751 0.69218 0.13696 0.0
C821 C 0.87893 0.71346 0.14413 0.0
H822 H 0.94648 0.73826 0.19885 0.0
H823 H 0.96889 0.74696 0.41038 0.0
H824 H 0.79424 0.5986 0.34503 0.0
H825 H 0.81059 0.62924 0.14929 0.0
H826 H 0.8338 0.68681 0.05271 0.0
H827 H 0.89173 0.72389 0.06292 0.0
Mn828 Mn 0.61129 0.59432 0.1278 0.0
Mn829 Mn 0.56204 0.60693 0.8815 0.0
C830 C 0.64234 0.61427 0.93837 0.0
C831 C 0.63312 0.61823 0.32402 0.0
C832 C 0.57737 0.5335 -0.00179 0.0
O833 O 0.55491 0.58991 0.17561 0.0
O834 O 0.54919 0.62932 0.03814 0.0
C835 C 0.56121 0.6853 0.8529 0.0
N836 N 0.56639 0.65254 0.80492 0.0
C837 C 0.56767 0.67693 0.60071 0.0
C838 C 0.56687 0.71118 0.64909 0.0
C839 C 0.56259 0.7152 0.77538 0.0
C840 C 0.56892 0.64821 0.6826 0.0
H841 H 0.55519 0.68837 0.94869 0.0
C842 C 0.53364 0.61013 0.11585 0.0
O843 O 0.63005 0.58463 0.30095 0.0
O844 O 0.62191 0.63837 0.23577 0.0
N845 N 0.57538 0.58835 0.72577 0.0
C846 C 0.58139 0.55418 0.69189 0.0
C847 C 0.58106 0.54514 0.56761 0.0
C848 C 0.57218 0.5708 0.47978 0.0
C849 C 0.5681 0.60625 0.51612 0.0
C850 C 0.57119 0.61397 0.64078 0.0
H851 H 0.58608 0.53382 0.75835 0.0
O852 O 0.65932 0.60383 0.03491 0.0
O853 O 0.60855 0.61195 0.95525 0.0
O854 O 0.60516 0.54438 0.05527 0.0
O855 O 0.55585 0.55565 0.9474 0.0
C856 C 0.56233 0.63458 0.43402 0.0
C857 C 0.56426 0.66996 0.47492 0.0
H858 H 0.56646 0.73432 0.58989 0.0
H859 H 0.5595 0.74135 0.81215 0.0
H860 H 0.587 0.51827 0.54055 0.0
H861 H 0.57002 0.56312 0.38463 0.0
H862 H 0.55834 0.63005 0.3384 0.0
H863 H 0.56152 0.69147 0.40972 0.0
Mn864 Mn 0.34606 0.35735 0.35654 0.0
Mn865 Mn 0.33586 0.31206 0.09767 0.0
C866 C 0.36275 0.38522 0.16474 0.0
C867 C 0.37327 0.37766 0.54906 0.0
C868 C 0.2757 0.33367 0.25415 0.0
O869 O 0.34469 0.30099 0.40006 0.0
O870 O 0.35664 0.27963 0.21303 0.0
C871 C 0.41045 0.30779 0.00964 0.0
N872 N 0.375 0.30948 -0.0087 0.0
C873 C 0.38086 0.30388 0.77516 0.0
C874 C 0.41782 0.30158 0.7889 0.0
C875 C 0.43285 0.30605 0.90642 0.0
C876 C 0.36124 0.31162 0.87869 0.0
H877 H 0.42093 0.30827 0.10158 0.0
C878 C 0.35231 0.27469 0.32754 0.0
O879 O 0.33971 0.37738 0.52837 0.0
O880 O 0.39193 0.36527 0.45858 0.0
N881 N 0.31506 0.34017 0.97411 0.0
C882 C 0.28811 0.36381 0.97347 0.0
C883 C 0.27321 0.37366 0.86055 0.0
C884 C 0.28505 0.35747 0.75201 0.0
C885 C 0.31318 0.33341 0.75725 0.0
C886 C 0.3288 0.32755 0.86975 0.0
H887 H 0.27923 0.3759 0.05708 0.0
O888 O 0.35561 0.40392 0.26143 0.0
O889 O 0.36004 0.35137 0.18444 0.0
O890 O 0.29334 0.3583 0.30639 0.0
O891 O 0.29094 0.31007 0.19192 0.0
C892 C 0.32766 0.316 0.65565 0.0
C893 C 0.36281 0.30263 0.66286 0.0
H894 H 0.43488 0.29871 0.70966 0.0
H895 H 0.46139 0.30704 0.91723 0.0
H896 H 0.2527 0.39342 0.8569 0.0
H897 H 0.27332 0.36468 0.66501 0.0
H898 H 0.31294 0.31631 0.5711 0.0
H899 H 0.37677 0.2935 0.58283 0.0
Mn900 Mn 0.41327 0.60508 0.09353 0.0
Mn901 Mn 0.45855 0.58887 0.83842 0.0
C902 C 0.39207 0.62793 0.90226 0.0
C903 C 0.39595 0.63703 0.28074 0.0
C904 C 0.42431 0.53192 0.98053 0.0
O905 O 0.46854 0.59607 0.14237 0.0
O906 O 0.49387 0.60321 0.95699 0.0
C907 C 0.48261 0.65992 0.75375 0.0
N908 N 0.46949 0.62692 0.73322 0.0
C909 C 0.47332 0.63387 0.51658 0.0
C910 C 0.48505 0.66898 0.53296 0.0
C911 C 0.48832 0.68255 0.65254 0.0
C912 C 0.46284 0.61505 0.61999 0.0
H913 H 0.48813 0.66811 0.84622 0.0
C914 C 0.49656 0.5998 0.07298 0.0
O915 O 0.38941 0.60381 0.26204 0.0
O916 O 0.41363 0.65203 0.19218 0.0
N917 N 0.42632 0.57391 0.71585 0.0
C918 C 0.39562 0.5543 0.71703 0.0
C919 C 0.37909 0.54636 0.60493 0.0
C920 C 0.39652 0.55543 0.49486 0.0
C921 C 0.42857 0.57455 0.49867 0.0
C922 C 0.44032 0.58624 0.61107 0.0
H923 H 0.38284 0.54666 0.80153 0.0
O924 O 0.37061 0.62301 -0.00608 0.0
O925 O 0.42433 0.61873 0.92517 0.0
O926 O 0.40339 0.55189 0.04066 0.0
O927 O 0.45153 0.54473 0.92948 0.0
C928 C 0.44755 0.58582 0.39546 0.0
C929 C 0.46872 0.61734 0.40256 0.0
H930 H 0.49092 0.68586 0.45494 0.0
H931 H 0.49674 0.70981 0.66536 0.0
H932 H 0.35367 0.53256 0.60307 0.0
H933 H 0.38398 0.55007 0.40796 0.0
H934 H 0.44252 0.57209 0.31079 0.0
H935 H 0.47934 0.63013 0.32168 0.0
Mn936 Mn 0.19288 0.68223 0.85646 0.0
Mn937 Mn 0.20311 0.72753 0.59762 0.0
C938 C 0.17619 0.65437 0.66466 0.0
C939 C 0.16566 0.66193 0.04899 0.0
C940 C 0.26326 0.70592 0.75414 0.0
O941 O 0.19425 0.7386 0.90003 0.0
O942 O 0.18233 0.75997 0.71302 0.0
C943 C 0.12852 0.7318 0.50973 0.0
N944 N 0.16398 0.73011 0.49131 0.0
C945 C 0.1581 0.7357 0.27519 0.0
C946 C 0.12115 0.738 0.28901 0.0
C947 C 0.10612 0.73354 0.40655 0.0
C948 C 0.17773 0.72797 0.37868 0.0
H949 H 0.11805 0.73131 0.60168 0.0
C950 C 0.18665 0.76489 0.82753 0.0
O951 O 0.19923 0.66221 0.02826 0.0
O952 O 0.147 0.67432 0.95855 0.0
N953 N 0.22391 0.69942 0.47401 0.0
C954 C 0.25088 0.67579 0.47332 0.0
C955 C 0.26577 0.66594 0.36037 0.0
C956 C 0.25391 0.68211 0.25185 0.0
C957 C 0.22579 0.70616 0.25715 0.0
C958 C 0.21016 0.71203 0.36968 0.0
H959 H 0.25978 0.66372 0.55693 0.0
O960 O 0.18333 0.63567 0.76132 0.0
O961 O 0.17892 0.68823 0.68439 0.0
O962 O 0.2456 0.68128 0.80631 0.0
O963 O 0.24803 0.7295 0.69183 0.0
C964 C 0.2113 0.72357 0.15557 0.0
C965 C 0.17615 0.73694 0.16286 0.0
H966 H 0.10408 0.74087 0.2098 0.0
H967 H 0.07758 0.73255 0.41742 0.0
H968 H 0.28629 0.64619 0.35669 0.0
H969 H 0.26564 0.6749 0.16483 0.0
H970 H 0.22601 0.72325 0.07099 0.0
H971 H 0.16219 0.74607 0.08286 0.0
Mn972 Mn 0.12569 0.43451 0.5935 0.0
Mn973 Mn 0.08044 0.45071 0.3384 0.0
C974 C 0.14691 0.41167 0.4022 0.0
C975 C 0.14302 0.40257 0.7807 0.0
C976 C 0.11466 0.50767 0.48049 0.0
O977 O 0.07041 0.44351 0.64237 0.0
O978 O 0.04511 0.43637 0.45698 0.0
C979 C 0.05637 0.37966 0.25374 0.0
N980 N 0.0695 0.41266 0.23322 0.0
C981 C 0.06566 0.40571 0.01658 0.0
C982 C 0.05392 0.3706 0.03295 0.0
C983 C 0.05065 0.35703 0.15253 0.0
C984 C 0.07615 0.42453 0.11998 0.0
H985 H 0.05085 0.37147 0.34622 0.0
C986 C 0.04241 0.43978 0.57297 0.0
O987 O 0.14955 0.43578 0.762 0.0
O988 O 0.12534 0.38756 0.69215 0.0
N989 N 0.11267 0.46567 0.21579 0.0
C990 C 0.14336 0.48529 0.21692 0.0
C991 C 0.15987 0.49324 0.10478 0.0
C992 C 0.14244 0.48418 -0.00526 0.0
C993 C 0.1104 0.46504 -0.00139 0.0
C994 C 0.09866 0.45334 0.11104 0.0
H995 H 0.15614 0.49294 0.30139 0.0
O996 O 0.16836 0.41659 0.49384 0.0
O997 O 0.11464 0.42086 0.42514 0.0
O998 O 0.13557 0.4877 0.54063 0.0
O999 O 0.08744 0.49486 0.42944 0.0
C1000 C 0.0914 0.45377 0.89544 0.0
C1001 C 0.07024 0.42225 0.90256 0.0
H1002 H 0.04804 0.35373 0.95494 0.0
H1003 H 0.04224 0.32977 0.16534 0.0
H1004 H 0.18529 0.50705 0.10287 0.0
H1005 H 0.15497 0.48955 0.90782 0.0
H1006 H 0.09643 0.46751 0.81077 0.0
H1007 H 0.05961 0.40947 0.82171 0.0
Mn1008 Mn 0.36153 0.6753 0.59755 0.0
Mn1009 Mn 0.37337 0.72692 0.84264 0.0
C1010 C 0.3811 0.64584 0.7854 0.0
C1011 C 0.38347 0.65536 0.39744 0.0
C1012 C 0.30209 0.70292 0.74159 0.0
O1013 O 0.35451 0.73065 0.54773 0.0
O1014 O 0.39383 0.74162 0.68374 0.0
C1015 C 0.45116 0.73019 0.8642 0.0
N1016 N 0.41914 0.72362 0.91629 0.0
C1017 C 0.44592 0.72084 0.11647 0.0
C1018 C 0.47946 0.72475 0.0635 0.0
C1019 C 0.48185 0.73038 0.93735 0.0
C1020 C 0.4162 0.7186 0.03843 0.0
H1021 H 0.45294 0.73655 0.76823 0.0
C1022 C 0.37297 0.75441 0.60532 0.0
O1023 O 0.35025 0.65656 0.42566 0.0
O1024 O 0.40443 0.66746 0.48293 0.0
N1025 N 0.35519 0.71583 0.00266 0.0
C1026 C 0.32154 0.72377 0.0399 0.0
C1027 C 0.31485 0.73255 0.16202 0.0
C1028 C 0.34209 0.73155 0.24799 0.0
C1029 C 0.37656 0.72389 0.21003 0.0
C1030 C 0.38224 0.71693 0.08494 0.0
H1031 H 0.30013 0.72701 0.97596 0.0
O1032 O 0.37221 0.62829 0.68755 0.0
O1033 O 0.37933 0.67983 0.76948 0.0
O1034 O 0.31319 0.67688 0.67859 0.0
O1035 O 0.32284 0.72851 0.77669 0.0
C1036 C 0.40602 0.72715 0.28915 0.0
C1037 C 0.44064 0.72383 0.24336 0.0
H1038 H 0.50317 0.72673 0.11957 0.0
H1039 H 0.50708 0.73663 0.89751 0.0
H1040 H 0.28904 0.74206 0.18865 0.0
H1041 H 0.33646 0.73959 0.34055 0.0
H1042 H 0.4026 0.73335 0.38485 0.0
H1043 H 0.46301 0.72695 0.30505 0.0
Mn1044 Mn 0.13416 0.61704 0.35991 0.0
Mn1045 Mn 0.08867 0.609 0.61581 0.0
C1046 C 0.1609 0.63838 0.5479 0.0
C1047 C 0.15095 0.64546 0.16613 0.0
C1048 C 0.11707 0.54711 0.48395 0.0
O1049 O 0.07826 0.60938 0.31495 0.0
O1050 O 0.05533 0.62552 0.4946 0.0
C1051 C 0.07138 0.68293 0.69458 0.0
N1052 N 0.0818 0.64919 0.71632 0.0
C1053 C 0.07413 0.65539 0.93273 0.0
C1054 C 0.06532 0.69118 0.91541 0.0
C1055 C 0.0654 0.70544 0.79559 0.0
C1056 C 0.08532 0.63666 0.83043 0.0
H1057 H 0.068 0.69225 0.60178 0.0
C1058 C 0.051 0.61633 0.38314 0.0
O1059 O 0.15427 0.61201 0.18784 0.0
O1060 O 0.13705 0.66295 0.2564 0.0
N1061 N 0.11815 0.59234 0.74068 0.0
C1062 C 0.14526 0.56884 0.74445 0.0
C1063 C 0.15744 0.55772 0.85908 0.0
C1064 C 0.13829 0.56714 0.96466 0.0
C1065 C 0.11063 0.59137 0.95515 0.0
C1066 C 0.10408 0.60588 0.84247 0.0
H1067 H 0.15874 0.56046 0.66253 0.0
O1068 O 0.1801 0.63158 0.4521 0.0
O1069 O 0.12718 0.63355 0.52832 0.0
O1070 O 0.13957 0.56437 0.41907 0.0
O1071 O 0.0911 0.5629 0.53134 0.0
C1072 C 0.09093 0.60373 0.05372 0.0
C1073 C 0.07441 0.63744 0.04632 0.0
H1074 H 0.05893 0.70793 -0.00714 0.0
H1075 H 0.05923 0.73312 0.78107 0.0
H1076 H 0.18097 0.54169 0.86564 0.0
H1077 H 0.14663 0.55813 0.05358 0.0
H1078 H 0.0916 0.58788 0.13469 0.0
H1079 H 0.06337 0.64967 0.12728 0.0
Mn1080 Mn 0.17744 0.36428 0.09747 0.0
Mn1081 Mn 0.16558 0.31267 0.3426 0.0
C1082 C 0.15788 0.39375 0.28534 0.0
C1083 C 0.1555 0.38423 0.89738 0.0
C1084 C 0.23687 0.33666 0.24152 0.0
O1085 O 0.18444 0.30893 0.04764 0.0
O1086 O 0.14512 0.29797 0.18372 0.0
C1087 C 0.08778 0.30941 0.36427 0.0
N1088 N 0.11981 0.31598 0.4163 0.0
C1089 C 0.09303 0.31876 0.61653 0.0
C1090 C 0.05948 0.31484 0.5636 0.0
C1091 C 0.05709 0.30921 0.43745 0.0
C1092 C 0.12275 0.321 0.53844 0.0
H1093 H 0.08601 0.30304 0.26829 0.0
C1094 C 0.16598 0.28517 0.10528 0.0
O1095 O 0.18872 0.38302 0.92554 0.0
O1096 O 0.13454 0.37213 0.9829 0.0
N1097 N 0.18375 0.32377 0.50259 0.0
C1098 C 0.2174 0.31583 0.53979 0.0
C1099 C 0.2241 0.30706 0.6619 0.0
C1100 C 0.19685 0.30805 0.74789 0.0
C1101 C 0.16238 0.31571 0.70999 0.0
C1102 C 0.1567 0.32267 0.58491 0.0
H1103 H 0.23882 0.31261 0.47582 0.0
O1104 O 0.16678 0.41129 0.18748 0.0
O1105 O 0.15963 0.35976 0.26942 0.0
O1106 O 0.22577 0.3627 0.17847 0.0
O1107 O 0.21611 0.31107 0.2766 0.0
C1108 C 0.13292 0.31244 0.78915 0.0
C1109 C 0.0983 0.31576 0.7434 0.0
H1110 H 0.03577 0.31286 0.6197 0.0
H1111 H 0.03186 0.30295 0.39766 0.0
H1112 H 0.2499 0.29756 0.68848 0.0
H1113 H 0.20248 0.30001 0.84044 0.0
H1114 H 0.13634 0.30625 0.88484 0.0
H1115 H 0.07593 0.31264 0.80513 0.0
Mn1116 Mn 0.40479 0.42255 0.85996 0.0
Mn1117 Mn 0.45027 0.43059 0.11585 0.0
C1118 C 0.37805 0.40121 0.04798 0.0
C1119 C 0.38799 0.39412 0.66619 0.0
C1120 C 0.42189 0.49248 0.984 0.0
O1121 O 0.4607 0.4302 0.81496 0.0
O1122 O 0.48362 0.41407 -0.0054 0.0
C1123 C 0.46756 0.35666 0.19456 0.0
N1124 N 0.45713 0.3904 0.21632 0.0
C1125 C 0.46481 0.38421 0.43271 0.0
C1126 C 0.47362 0.34841 0.41537 0.0
C1127 C 0.47353 0.33415 0.29555 0.0
C1128 C 0.45362 0.40293 0.33045 0.0
H1129 H 0.47094 0.34734 0.10174 0.0
C1130 C 0.48795 0.42325 0.88315 0.0
O1131 O 0.38468 0.42757 0.68791 0.0
O1132 O 0.40189 0.37663 0.75643 0.0
N1133 N 0.42078 0.44725 0.24077 0.0
C1134 C 0.39369 0.47076 0.24459 0.0
C1135 C 0.38151 0.48188 0.35924 0.0
C1136 C 0.40066 0.47246 0.46478 0.0
C1137 C 0.42831 0.44822 0.45523 0.0
C1138 C 0.43486 0.43371 0.34252 0.0
H1139 H 0.38021 0.47915 0.16268 0.0
O1140 O 0.35885 0.40802 0.95221 0.0
O1141 O 0.41177 0.40604 0.02836 0.0
O1142 O 0.3994 0.47522 0.91913 0.0
O1143 O 0.44785 0.47668 0.0314 0.0
C1144 C 0.44801 0.43586 0.55375 0.0
C1145 C 0.46453 0.40216 0.54632 0.0
H1146 H 0.48001 0.33166 0.4928 0.0
H1147 H 0.47971 0.30647 0.28101 0.0
H1148 H 0.35799 0.49792 0.36585 0.0
H1149 H 0.39232 0.48147 0.55373 0.0
H1150 H 0.44735 0.45171 0.63474 0.0
H1151 H 0.47557 0.38993 0.62725 0.0
loop_
_geom_bond_atom_site_label_1
_geom_bond_atom_site_label_2
_geom_bond_distance
_geom_bond_site_symmetry_2
_ccdc_geom_bond_type
Mn0 O5 2.095 . S
Mn0 O15 2.162 1_554 S
Mn0 O16 2.297 . S
Mn0 O24 2.385 . S
Mn0 O25 2.209 . S
Mn0 O26 2.094 . S
Mn1 O6 2.121 . S
Mn1 N8 2.257 . S
Mn1 N17 2.282 . S
Mn1 O25 2.215 . S
Mn1 O27 2.117 . S
C2 O24 1.234 . S
C2 O25 1.283 . S
C3 O15 1.281 . S
C3 O16 1.236 1_556 S
C4 O26 1.240 . S
C4 O27 1.264 . S
O5 Mn0 2.095 . S
O5 C14 1.250 . S
O6 Mn1 2.121 . S
O6 C14 1.258 . S
C7 N8 1.326 . S
C7 C11 1.460 . S
C7 H13 0.929 . S
N8 Mn1 2.257 . S
N8 C7 1.326 . S
N8 C12 1.362 . S
C9 C10 1.258 . S
C9 C12 1.431 . S
C9 C29 1.449 . S
C10 C9 1.258 . S
C10 C11 1.477 . S
C10 H30 0.931 . S
C11 C7 1.460 . S
C11 C10 1.477 . S
C11 H31 0.930 . S
C12 N8 1.362 . S
C12 C9 1.431 . S
C12 C22 1.476 . S
H13 C7 0.929 . S
C14 O5 1.250 . S
C14 O6 1.258 . S
O15 Mn0 2.162 1_556 S
O15 C3 1.281 . S
O16 Mn0 2.297 . S
O16 C3 1.236 1_554 S
N17 Mn1 2.282 . S
N17 C18 1.328 . S
N17 C22 1.318 . S
C18 N17 1.328 . S
C18 C19 1.457 . S
C18 H23 0.929 . S
C19 C18 1.457 . S
C19 C20 1.291 . S
C19 H32 0.931 . S
C20 C19 1.291 . S
C20 C21 1.373 . S
C20 H33 0.929 . S
C21 C20 1.373 . S
C21 C22 1.396 . S
C21 C28 1.403 . S
C22 C12 1.476 . S
C22 N17 1.318 . S
C22 C21 1.396 . S
H23 C18 0.929 . S
O24 Mn0 2.385 . S
O24 C2 1.234 . S
O25 Mn0 2.209 . S
O25 Mn1 2.215 . S
O25 C2 1.283 . S
O26 Mn0 2.094 . S
O26 C4 1.240 . S
O27 Mn1 2.117 . S
O27 C4 1.264 . S
C28 C21 1.403 . S
C28 C29 1.399 . S
C28 H34 0.929 . S
C29 C9 1.449 . S
C29 C28 1.399 . S
C29 H35 0.930 . S
H30 C10 0.931 . S
H31 C11 0.930 . S
H32 C19 0.931 . S
H33 C20 0.929 . S
H34 C28 0.929 . S
H35 C29 0.930 . S
Mn36 O41 2.095 . S
Mn36 O51 2.162 . S
Mn36 O52 2.297 . S
Mn36 O60 2.385 . S
Mn36 O61 2.209 . S
Mn36 O62 2.094 . S
Mn37 O42 2.121 . S
Mn37 N44 2.257 . S
Mn37 N53 2.282 . S
Mn37 O61 2.215 . S
Mn37 O63 2.117 . S
C38 O60 1.234 . S
C38 O61 1.283 . S
C39 O51 1.281 . S
C39 O52 1.236 . S
C40 O62 1.240 . S
C40 O63 1.264 . S
O41 Mn36 2.095 . S
O41 C50 1.250 . S
O42 Mn37 2.121 . S
O42 C50 1.258 . S
C43 N44 1.326 . S
C43 C47 1.460 . S
C43 H49 0.912 1_455 S
N44 Mn37 2.257 . S
N44 C43 1.326 . S
N44 C48 1.362 . S
C45 C46 1.258 . S
C45 C48 1.431 . S
C45 C65 1.449 1_556 S
C46 C45 1.258 . S
C46 C47 1.477 . S
C46 H66 0.931 1_556 S
C47 C43 1.460 . S
C47 C46 1.477 . S
C47 H67 0.930 1_455 S
C48 N44 1.362 . S
C48 C45 1.431 . S
C48 C58 1.476 . S
H49 C43 0.912 1_655 S
C50 O41 1.250 . S
C50 O42 1.258 . S
O51 Mn36 2.162 . S
O51 C39 1.281 . S
O52 Mn36 2.297 . S
O52 C39 1.236 . S
N53 Mn37 2.282 . S
N53 C54 1.328 . S
N53 C58 1.318 . S
C54 N53 1.328 . S
C54 C55 1.457 . S
C54 H59 0.929 . S
C55 C54 1.457 . S
C55 C56 1.291 1_556 S
C55 H68 0.931 . S
C56 C55 1.291 1_554 S
C56 C57 1.373 . S
C56 H69 0.929 . S
C57 C56 1.373 . S
C57 C58 1.396 1_554 S
C57 C64 1.403 . S
C58 C48 1.476 . S
C58 N53 1.318 . S
C58 C57 1.396 1_556 S
H59 C54 0.929 . S
O60 Mn36 2.385 . S
O60 C38 1.234 . S
O61 Mn36 2.209 . S
O61 Mn37 2.215 . S
O61 C38 1.283 . S
O62 Mn36 2.094 . S
O62 C40 1.240 . S
O63 Mn37 2.117 . S
O63 C40 1.264 . S
C64 C57 1.403 . S
C64 C65 1.399 . S
C64 H70 0.929 . S
C65 C45 1.449 1_554 S
C65 C64 1.399 . S
C65 H71 0.930 . S
H66 C46 0.931 1_554 S
H67 C47 0.930 1_655 S
H68 C55 0.931 . S
H69 C56 0.929 . S
H70 C64 0.929 . S
H71 C65 0.930 . S
Mn72 O77 2.095 . S
Mn72 O87 2.162 . S
Mn72 O88 2.297 . S
Mn72 O96 2.385 . S
Mn72 O97 2.209 . S
Mn72 O98 2.094 . S
Mn73 O78 2.121 . S
Mn73 N80 2.257 1_556 S
Mn73 N89 2.282 1_556 S
Mn73 O97 2.215 . S
Mn73 O99 2.117 . S
C74 O96 1.234 . S
C74 O97 1.283 . S
C75 O87 1.281 . S
C75 O88 1.236 . S
C76 O98 1.240 . S
C76 O99 1.264 . S
O77 Mn72 2.095 . S
O77 C86 1.250 . S
O78 Mn73 2.121 . S
O78 C86 1.258 . S
C79 N80 1.326 . S
C79 C83 1.460 . S
C79 H85 0.929 1_554 S
N80 Mn73 2.257 1_554 S
N80 C79 1.326 . S
N80 C84 1.362 . S
C81 C82 1.258 . S
C81 C84 1.431 . S
C81 C101 1.449 . S
C82 C81 1.258 . S
C82 C83 1.477 . S
C82 H102 0.931 . S
C83 C79 1.460 . S
C83 C82 1.477 . S
C83 H103 0.930 . S
C84 N80 1.362 . S
C84 C81 1.431 . S
C84 C94 1.476 . S
H85 C79 0.929 1_556 S
C86 O77 1.250 . S
C86 O78 1.258 . S
O87 Mn72 2.162 . S
O87 C75 1.281 . S
O88 Mn72 2.297 . S
O88 C75 1.236 . S
N89 Mn73 2.282 1_554 S
N89 C90 1.328 . S
N89 C94 1.318 . S
C90 N89 1.328 . S
C90 C91 1.457 . S
C90 H95 0.929 . S
C91 C90 1.457 . S
C91 C92 1.291 . S
C91 H104 0.931 . S
C92 C91 1.291 . S
C92 C93 1.373 . S
C92 H105 0.929 . S
C93 C92 1.373 . S
C93 C94 1.396 . S
C93 C100 1.403 . S
C94 C84 1.476 . S
C94 N89 1.318 . S
C94 C93 1.396 . S
H95 C90 0.929 . S
O96 Mn72 2.385 . S
O96 C74 1.234 . S
O97 Mn72 2.209 . S
O97 Mn73 2.215 . S
O97 C74 1.283 . S
O98 Mn72 2.094 . S
O98 C76 1.240 . S
O99 Mn73 2.117 . S
O99 C76 1.264 . S
C100 C93 1.403 . S
C100 C101 1.399 . S
C100 H106 0.929 . S
C101 C81 1.449 . S
C101 C100 1.399 . S
C101 H107 0.930 . S
H102 C82 0.931 . S
H103 C83 0.930 . S
H104 C91 0.931 . S
H105 C92 0.929 . S
H106 C100 0.929 . S
H107 C101 0.930 . S
Mn108 O113 2.095 . S
Mn108 O123 2.162 . S
Mn108 O124 2.297 . S
Mn108 O132 2.385 . S
Mn108 O133 2.209 1_556 S
Mn108 O134 2.094 . S
Mn109 O114 2.121 . S
Mn109 N116 2.257 . S
Mn109 N125 2.282 . S
Mn109 O133 2.215 . S
Mn109 O135 2.117 . S
C110 O132 1.234 1_554 S
C110 O133 1.283 . S
C111 O123 1.281 . S
C111 O124 1.236 . S
C112 O134 1.240 . S
C112 O135 1.264 1_556 S
O113 Mn108 2.095 . S
O113 C122 1.250 . S
O114 Mn109 2.121 . S
O114 C122 1.258 1_554 S
C115 N116 1.326 . S
C115 C119 1.460 . S
C115 H121 0.929 . S
N116 Mn109 2.257 . S
N116 C115 1.326 . S
N116 C120 1.362 . S
C117 C118 1.258 . S
C117 C120 1.431 . S
C117 C137 1.449 . S
C118 C117 1.258 . S
C118 C119 1.477 . S
C118 H138 0.931 . S
C119 C115 1.460 . S
C119 C118 1.477 . S
C119 H139 0.930 . S
C120 N116 1.362 . S
C120 C117 1.431 . S
C120 C130 1.476 . S
H121 C115 0.929 . S
C122 O113 1.250 . S
C122 O114 1.258 1_556 S
O123 Mn108 2.162 . S
O123 C111 1.281 . S
O124 Mn108 2.297 . S
O124 C111 1.236 . S
N125 Mn109 2.282 . S
N125 C126 1.328 . S
N125 C130 1.318 . S
C126 N125 1.328 . S
C126 C127 1.457 . S
C126 H131 0.929 . S
C127 C126 1.457 . S
C127 C128 1.291 . S
C127 H140 0.931 . S
C128 C127 1.291 . S
C128 C129 1.373 . S
C128 H141 0.929 . S
C129 C128 1.373 . S
C129 C130 1.396 . S
C129 C136 1.403 . S
C130 C120 1.476 . S
C130 N125 1.318 . S
C130 C129 1.396 . S
H131 C126 0.929 . S
O132 Mn108 2.385 . S
O132 C110 1.234 1_556 S
O133 Mn108 2.209 1_554 S
O133 Mn109 2.215 . S
O133 C110 1.283 . S
O134 Mn108 2.094 . S
O134 C112 1.240 . S
O135 Mn109 2.117 . S
O135 C112 1.264 1_554 S
C136 C129 1.403 . S
C136 C137 1.399 . S
C136 H142 0.929 . S
C137 C117 1.449 . S
C137 C136 1.399 . S
C137 H143 0.930 . S
H138 C118 0.931 . S
H139 C119 0.930 . S
H140 C127 0.931 . S
H141 C128 0.929 . S
H142 C136 0.929 . S
H143 C137 0.930 . S
Mn144 O149 2.095 . S
Mn144 O159 2.162 1_556 S
Mn144 O160 2.297 . S
Mn144 O168 2.385 . S
Mn144 O169 2.209 . S
Mn144 O170 2.094 . S
Mn145 O150 2.121 . S
Mn145 N152 2.257 . S
Mn145 N161 2.282 . S
Mn145 O169 2.215 . S
Mn145 O171 2.117 . S
C146 O168 1.234 . S
C146 O169 1.283 . S
C147 O159 1.281 . S
C147 O160 1.236 1_554 S
C148 O170 1.240 . S
C148 O171 1.264 . S
O149 Mn144 2.095 . S
O149 C158 1.250 . S
O150 Mn145 2.121 . S
O150 C158 1.258 . S
C151 N152 1.326 . S
C151 C155 1.460 . S
C151 H157 0.929 . S
N152 Mn145 2.257 . S
N152 C151 1.326 . S
N152 C156 1.362 . S
C153 C154 1.258 . S
C153 C156 1.431 . S
C153 C173 1.449 . S
C154 C153 1.258 . S
C154 C155 1.477 . S
C154 H174 0.931 . S
C155 C151 1.460 . S
C155 C154 1.477 . S
C155 H175 0.930 . S
C156 N152 1.362 . S
C156 C153 1.431 . S
C156 C166 1.476 . S
H157 C151 0.929 . S
C158 O149 1.250 . S
C158 O150 1.258 . S
O159 Mn144 2.162 1_554 S
O159 C147 1.281 . S
O160 Mn144 2.297 . S
O160 C147 1.236 1_556 S
N161 Mn145 2.282 . S
N161 C162 1.328 . S
N161 C166 1.318 . S
C162 N161 1.328 . S
C162 C163 1.457 . S
C162 H167 0.929 . S
C163 C162 1.457 . S
C163 C164 1.291 . S
C163 H176 0.931 . S
C164 C163 1.291 . S
C164 C165 1.373 . S
C164 H177 0.929 . S
C165 C164 1.373 . S
C165 C166 1.396 . S
C165 C172 1.403 . S
C166 C156 1.476 . S
C166 N161 1.318 . S
C166 C165 1.396 . S
H167 C162 0.929 . S
O168 Mn144 2.385 . S
O168 C146 1.234 . S
O169 Mn144 2.209 . S
O169 Mn145 2.215 . S
O169 C146 1.283 . S
O170 Mn144 2.094 . S
O170 C148 1.240 . S
O171 Mn145 2.117 . S
O171 C148 1.264 . S
C172 C165 1.403 . S
C172 C173 1.399 . S
C172 H178 0.929 . S
C173 C153 1.449 . S
C173 C172 1.399 . S
C173 H179 0.930 . S
H174 C154 0.931 . S
H175 C155 0.930 . S
H176 C163 0.931 . S
H177 C164 0.929 . S
H178 C172 0.929 . S
H179 C173 0.930 . S
Mn180 O185 2.095 . S
Mn180 O195 2.162 . S
Mn180 O196 2.297 . S
Mn180 O204 2.385 . S
Mn180 O205 2.209 1_554 S
Mn180 O206 2.094 . S
Mn181 O186 2.121 . S
Mn181 N188 2.257 . S
Mn181 N197 2.282 . S
Mn181 O205 2.215 . S
Mn181 O207 2.117 . S
C182 O204 1.234 1_556 S
C182 O205 1.283 . S
C183 O195 1.281 . S
C183 O196 1.236 . S
C184 O206 1.240 . S
C184 O207 1.264 1_554 S
O185 Mn180 2.095 . S
O185 C194 1.250 . S
O186 Mn181 2.121 . S
O186 C194 1.258 1_556 S
C187 N188 1.326 . S
C187 C191 1.460 . S
C187 H193 0.929 . S
N188 Mn181 2.257 . S
N188 C187 1.326 . S
N188 C192 1.362 . S
C189 C190 1.258 . S
C189 C192 1.431 . S
C189 C209 1.449 . S
C190 C189 1.258 . S
C190 C191 1.477 . S
C190 H210 0.931 . S
C191 C187 1.460 . S
C191 C190 1.477 . S
C191 H211 0.930 . S
C192 N188 1.362 . S
C192 C189 1.431 . S
C192 C202 1.476 . S
H193 C187 0.929 . S
C194 O185 1.250 . S
C194 O186 1.258 1_554 S
O195 Mn180 2.162 . S
O195 C183 1.281 . S
O196 Mn180 2.297 . S
O196 C183 1.236 . S
N197 Mn181 2.282 . S
N197 C198 1.328 . S
N197 C202 1.318 . S
C198 N197 1.328 . S
C198 C199 1.457 . S
C198 H203 0.929 . S
C199 C198 1.457 . S
C199 C200 1.291 . S
C199 H212 0.931 . S
C200 C199 1.291 . S
C200 C201 1.373 . S
C200 H213 0.929 . S
C201 C200 1.373 . S
C201 C202 1.396 . S
C201 C208 1.403 . S
C202 C192 1.476 . S
C202 N197 1.318 . S
C202 C201 1.396 . S
H203 C198 0.929 . S
O204 Mn180 2.385 . S
O204 C182 1.234 1_554 S
O205 Mn180 2.209 1_556 S
O205 Mn181 2.215 . S
O205 C182 1.283 . S
O206 Mn180 2.094 . S
O206 C184 1.240 . S
O207 Mn181 2.117 . S
O207 C184 1.264 1_556 S
C208 C201 1.403 . S
C208 C209 1.399 . S
C208 H214 0.929 . S
C209 C189 1.449 . S
C209 C208 1.399 . S
C209 H215 0.930 . S
H210 C190 0.931 . S
H211 C191 0.930 . S
H212 C199 0.931 . S
H213 C200 0.929 . S
H214 C208 0.929 . S
H215 C209 0.930 . S
Mn216 O221 2.095 . S
Mn216 O231 2.162 . S
Mn216 O232 2.297 . S
Mn216 O240 2.385 . S
Mn216 O241 2.209 . S
Mn216 O242 2.094 . S
Mn217 O222 2.121 . S
Mn217 N224 2.257 1_554 S
Mn217 N233 2.282 1_554 S
Mn217 O241 2.215 . S
Mn217 O243 2.117 . S
C218 O240 1.234 . S
C218 O241 1.283 . S
C219 O231 1.281 . S
C219 O232 1.236 . S
C220 O242 1.240 . S
C220 O243 1.264 . S
O221 Mn216 2.095 . S
O221 C230 1.250 . S
O222 Mn217 2.121 . S
O222 C230 1.258 . S
C223 N224 1.326 . S
C223 C227 1.460 . S
C223 H229 0.929 1_556 S
N224 Mn217 2.257 1_556 S
N224 C223 1.326 . S
N224 C228 1.362 . S
C225 C226 1.258 . S
C225 C228 1.431 . S
C225 C245 1.449 . S
C226 C225 1.258 . S
C226 C227 1.477 . S
C226 H246 0.931 . S
C227 C223 1.460 . S
C227 C226 1.477 . S
C227 H247 0.930 . S
C228 N224 1.362 . S
C228 C225 1.431 . S
C228 C238 1.476 . S
H229 C223 0.929 1_554 S
C230 O221 1.250 . S
C230 O222 1.258 . S
O231 Mn216 2.162 . S
O231 C219 1.281 . S
O232 Mn216 2.297 . S
O232 C219 1.236 . S
N233 Mn217 2.282 1_556 S
N233 C234 1.328 . S
N233 C238 1.318 . S
C234 N233 1.328 . S
C234 C235 1.457 . S
C234 H239 0.929 . S
C235 C234 1.457 . S
C235 C236 1.291 . S
C235 H248 0.931 . S
C236 C235 1.291 . S
C236 C237 1.373 . S
C236 H249 0.929 . S
C237 C236 1.373 . S
C237 C238 1.396 . S
C237 C244 1.403 . S
C238 C228 1.476 . S
C238 N233 1.318 . S
C238 C237 1.396 . S
H239 C234 0.929 . S
O240 Mn216 2.385 . S
O240 C218 1.234 . S
O241 Mn216 2.209 . S
O241 Mn217 2.215 . S
O241 C218 1.283 . S
O242 Mn216 2.094 . S
O242 C220 1.240 . S
O243 Mn217 2.117 . S
O243 C220 1.264 . S
C244 C237 1.403 . S
C244 C245 1.399 . S
C244 H250 0.929 . S
C245 C225 1.449 . S
C245 C244 1.399 . S
C245 H251 0.930 . S
H246 C226 0.931 . S
H247 C227 0.930 . S
H248 C235 0.931 . S
H249 C236 0.929 . S
H250 C244 0.929 . S
H251 C245 0.930 . S
Mn252 O257 2.095 . S
Mn252 O267 2.162 . S
Mn252 O268 2.297 . S
Mn252 O276 2.385 . S
Mn252 O277 2.209 . S
Mn252 O278 2.094 . S
Mn253 O258 2.121 . S
Mn253 N260 2.257 . S
Mn253 N269 2.282 . S
Mn253 O277 2.215 . S
Mn253 O279 2.117 . S
C254 O276 1.234 . S
C254 O277 1.283 . S
C255 O267 1.281 . S
C255 O268 1.236 . S
C256 O278 1.240 . S
C256 O279 1.264 . S
O257 Mn252 2.095 . S
O257 C266 1.250 . S
O258 Mn253 2.121 . S
O258 C266 1.258 . S
C259 N260 1.326 . S
C259 C263 1.460 . S
C259 H265 0.912 1_455 S
N260 Mn253 2.257 . S
N260 C259 1.326 . S
N260 C264 1.362 . S
C261 C262 1.258 . S
C261 C264 1.431 . S
C261 C281 1.449 1_554 S
C262 C261 1.258 . S
C262 C263 1.477 . S
C262 H282 0.931 1_554 S
C263 C259 1.460 . S
C263 C262 1.477 . S
C263 H283 0.930 1_455 S
C264 N260 1.362 . S
C264 C261 1.431 . S
C264 C274 1.476 . S
H265 C259 0.912 1_655 S
C266 O257 1.250 . S
C266 O258 1.258 . S
O267 Mn252 2.162 . S
O267 C255 1.281 . S
O268 Mn252 2.297 . S
O268 C255 1.236 . S
N269 Mn253 2.282 . S
N269 C270 1.328 . S
N269 C274 1.318 . S
C270 N269 1.328 . S
C270 C271 1.457 . S
C270 H275 0.929 . S
C271 C270 1.457 . S
C271 C272 1.291 1_554 S
C271 H284 0.931 . S
C272 C271 1.291 1_556 S
C272 C273 1.373 . S
C272 H285 0.929 . S
C273 C272 1.373 . S
C273 C274 1.396 1_556 S
C273 C280 1.403 . S
C274 C264 1.476 . S
C274 N269 1.318 . S
C274 C273 1.396 1_554 S
H275 C270 0.929 . S
O276 Mn252 2.385 . S
O276 C254 1.234 . S
O277 Mn252 2.209 . S
O277 Mn253 2.215 . S
O277 C254 1.283 . S
O278 Mn252 2.094 . S
O278 C256 1.240 . S
O279 Mn253 2.117 . S
O279 C256 1.264 . S
C280 C273 1.403 . S
C280 C281 1.399 . S
C280 H286 0.929 . S
C281 C261 1.449 1_556 S
C281 C280 1.399 . S
C281 H287 0.930 . S
H282 C262 0.931 1_556 S
H283 C263 0.930 1_655 S
H284 C271 0.931 . S
H285 C272 0.929 . S
H286 C280 0.929 . S
H287 C281 0.930 . S
Mn288 O293 2.095 . S
Mn288 O303 2.162 1_556 S
Mn288 O304 2.297 . S
Mn288 O312 2.385 . S
Mn288 O313 2.209 . S
Mn288 O314 2.094 . S
Mn289 O294 2.121 . S
Mn289 N296 2.257 . S
Mn289 N305 2.282 . S
Mn289 O313 2.215 . S
Mn289 O315 2.117 . S
C290 O312 1.234 . S
C290 O313 1.283 . S
C291 O303 1.281 . S
C291 O304 1.236 1_554 S
C292 O314 1.240 . S
C292 O315 1.264 . S
O293 Mn288 2.095 . S
O293 C302 1.250 . S
O294 Mn289 2.121 . S
O294 C302 1.258 . S
C295 N296 1.326 . S
C295 C299 1.460 . S
C295 H301 0.929 . S
N296 Mn289 2.257 . S
N296 C295 1.326 . S
N296 C300 1.362 . S
C297 C298 1.258 . S
C297 C300 1.431 . S
C297 C317 1.449 . S
C298 C297 1.258 . S
C298 C299 1.477 . S
C298 H318 0.931 . S
C299 C295 1.460 . S
C299 C298 1.477 . S
C299 H319 0.930 . S
C300 N296 1.362 . S
C300 C297 1.431 . S
C300 C310 1.476 . S
H301 C295 0.929 . S
C302 O293 1.250 . S
C302 O294 1.258 . S
O303 Mn288 2.162 1_554 S
O303 C291 1.281 . S
O304 Mn288 2.297 . S
O304 C291 1.236 1_556 S
N305 Mn289 2.282 . S
N305 C306 1.328 . S
N305 C310 1.318 . S
C306 N305 1.328 . S
C306 C307 1.457 . S
C306 H311 0.929 . S
C307 C306 1.457 . S
C307 C308 1.291 . S
C307 H320 0.931 . S
C308 C307 1.291 . S
C308 C309 1.373 . S
C308 H321 0.929 . S
C309 C308 1.373 . S
C309 C310 1.396 . S
C309 C316 1.403 . S
C310 C300 1.476 . S
C310 N305 1.318 . S
C310 C309 1.396 . S
H311 C306 0.929 . S
O312 Mn288 2.385 . S
O312 C290 1.234 . S
O313 Mn288 2.209 . S
O313 Mn289 2.215 . S
O313 C290 1.283 . S
O314 Mn288 2.094 . S
O314 C292 1.240 . S
O315 Mn289 2.117 . S
O315 C292 1.264 . S
C316 C309 1.403 . S
C316 C317 1.399 . S
C316 H322 0.929 . S
C317 C297 1.449 . S
C317 C316 1.399 . S
C317 H323 0.930 . S
H318 C298 0.931 . S
H319 C299 0.930 . S
H320 C307 0.931 . S
H321 C308 0.929 . S
H322 C316 0.929 . S
H323 C317 0.930 . S
Mn324 O329 2.095 . S
Mn324 O339 2.162 . S
Mn324 O340 2.297 . S
Mn324 O348 2.385 . S
Mn324 O349 2.209 . S
Mn324 O350 2.094 . S
Mn325 O330 2.121 . S
Mn325 N332 2.257 . S
Mn325 N341 2.282 . S
Mn325 O349 2.215 . S
Mn325 O351 2.117 . S
C326 O348 1.234 . S
C326 O349 1.283 . S
C327 O339 1.281 . S
C327 O340 1.236 . S
C328 O350 1.240 . S
C328 O351 1.264 . S
O329 Mn324 2.095 . S
O329 C338 1.250 . S
O330 Mn325 2.121 . S
O330 C338 1.258 . S
C331 N332 1.326 . S
C331 C335 1.460 . S
C331 H337 0.912 1_655 S
N332 Mn325 2.257 . S
N332 C331 1.326 . S
N332 C336 1.362 . S
C333 C334 1.258 . S
C333 C336 1.431 . S
C333 C353 1.449 1_554 S
C334 C333 1.258 . S
C334 C335 1.477 . S
C334 H354 0.931 1_554 S
C335 C331 1.460 . S
C335 C334 1.477 . S
C335 H355 0.930 1_655 S
C336 N332 1.362 . S
C336 C333 1.431 . S
C336 C346 1.476 . S
H337 C331 0.912 1_455 S
C338 O329 1.250 . S
C338 O330 1.258 . S
O339 Mn324 2.162 . S
O339 C327 1.281 . S
O340 Mn324 2.297 . S
O340 C327 1.236 . S
N341 Mn325 2.282 . S
N341 C342 1.328 . S
N341 C346 1.318 . S
C342 N341 1.328 . S
C342 C343 1.457 . S
C342 H347 0.929 . S
C343 C342 1.457 . S
C343 C344 1.291 1_554 S
C343 H356 0.931 . S
C344 C343 1.291 1_556 S
C344 C345 1.373 . S
C344 H357 0.929 . S
C345 C344 1.373 . S
C345 C346 1.396 1_556 S
C345 C352 1.403 . S
C346 C336 1.476 . S
C346 N341 1.318 . S
C346 C345 1.396 1_554 S
H347 C342 0.929 . S
O348 Mn324 2.385 . S
O348 C326 1.234 . S
O349 Mn324 2.209 . S
O349 Mn325 2.215 . S
O349 C326 1.283 . S
O350 Mn324 2.094 . S
O350 C328 1.240 . S
O351 Mn325 2.117 . S
O351 C328 1.264 . S
C352 C345 1.403 . S
C352 C353 1.399 . S
C352 H358 0.929 . S
C353 C333 1.449 1_556 S
C353 C352 1.399 . S
C353 H359 0.930 . S
H354 C334 0.931 1_556 S
H355 C335 0.930 1_455 S
H356 C343 0.931 . S
H357 C344 0.929 . S
H358 C352 0.929 . S
H359 C353 0.930 . S
Mn360 O365 2.095 . S
Mn360 O375 2.162 . S
Mn360 O376 2.297 . S
Mn360 O384 2.385 . S
Mn360 O385 2.209 . S
Mn360 O386 2.094 . S
Mn361 O366 2.121 . S
Mn361 N368 2.257 1_554 S
Mn361 N377 2.282 1_554 S
Mn361 O385 2.215 . S
Mn361 O387 2.117 . S
C362 O384 1.234 . S
C362 O385 1.283 . S
C363 O375 1.281 . S
C363 O376 1.236 . S
C364 O386 1.240 . S
C364 O387 1.264 . S
O365 Mn360 2.095 . S
O365 C374 1.250 . S
O366 Mn361 2.121 . S
O366 C374 1.258 . S
C367 N368 1.326 . S
C367 C371 1.460 . S
C367 H373 0.929 1_556 S
N368 Mn361 2.257 1_556 S
N368 C367 1.326 . S
N368 C372 1.362 . S
C369 C370 1.258 . S
C369 C372 1.431 . S
C369 C389 1.449 . S
C370 C369 1.258 . S
C370 C371 1.477 . S
C370 H390 0.931 . S
C371 C367 1.460 . S
C371 C370 1.477 . S
C371 H391 0.930 . S
C372 N368 1.362 . S
C372 C369 1.431 . S
C372 C382 1.476 . S
H373 C367 0.929 1_554 S
C374 O365 1.250 . S
C374 O366 1.258 . S
O375 Mn360 2.162 . S
O375 C363 1.281 . S
O376 Mn360 2.297 . S
O376 C363 1.236 . S
N377 Mn361 2.282 1_556 S
N377 C378 1.328 . S
N377 C382 1.318 . S
C378 N377 1.328 . S
C378 C379 1.457 . S
C378 H383 0.929 . S
C379 C378 1.457 . S
C379 C380 1.291 . S
C379 H392 0.931 . S
C380 C379 1.291 . S
C380 C381 1.373 . S
C380 H393 0.929 . S
C381 C380 1.373 . S
C381 C382 1.396 . S
C381 C388 1.403 . S
C382 C372 1.476 . S
C382 N377 1.318 . S
C382 C381 1.396 . S
H383 C378 0.929 . S
O384 Mn360 2.385 . S
O384 C362 1.234 . S
O385 Mn360 2.209 . S
O385 Mn361 2.215 . S
O385 C362 1.283 . S
O386 Mn360 2.094 . S
O386 C364 1.240 . S
O387 Mn361 2.117 . S
O387 C364 1.264 . S
C388 C381 1.403 . S
C388 C389 1.399 . S
C388 H394 0.929 . S
C389 C369 1.449 . S
C389 C388 1.399 . S
C389 H395 0.930 . S
H390 C370 0.931 . S
H391 C371 0.930 . S
H392 C379 0.931 . S
H393 C380 0.929 . S
H394 C388 0.929 . S
H395 C389 0.930 . S
Mn396 O401 2.095 . S
Mn396 O411 2.162 . S
Mn396 O412 2.297 . S
Mn396 O420 2.385 . S
Mn396 O421 2.209 1_554 S
Mn396 O422 2.094 . S
Mn397 O402 2.121 . S
Mn397 N404 2.257 . S
Mn397 N413 2.282 . S
Mn397 O421 2.215 . S
Mn397 O423 2.117 . S
C398 O420 1.234 1_556 S
C398 O421 1.283 . S
C399 O411 1.281 . S
C399 O412 1.236 . S
C400 O422 1.240 . S
C400 O423 1.264 1_554 S
O401 Mn396 2.095 . S
O401 C410 1.250 . S
O402 Mn397 2.121 . S
O402 C410 1.258 1_556 S
C403 N404 1.326 . S
C403 C407 1.460 . S
C403 H409 0.929 . S
N404 Mn397 2.257 . S
N404 C403 1.326 . S
N404 C408 1.362 . S
C405 C406 1.258 . S
C405 C408 1.431 . S
C405 C425 1.449 . S
C406 C405 1.258 . S
C406 C407 1.477 . S
C406 H426 0.931 . S
C407 C403 1.460 . S
C407 C406 1.477 . S
C407 H427 0.930 . S
C408 N404 1.362 . S
C408 C405 1.431 . S
C408 C418 1.476 . S
H409 C403 0.929 . S
C410 O401 1.250 . S
C410 O402 1.258 1_554 S
O411 Mn396 2.162 . S
O411 C399 1.281 . S
O412 Mn396 2.297 . S
O412 C399 1.236 . S
N413 Mn397 2.282 . S
N413 C414 1.328 . S
N413 C418 1.318 . S
C414 N413 1.328 . S
C414 C415 1.457 . S
C414 H419 0.929 . S
C415 C414 1.457 . S
C415 C416 1.291 . S
C415 H428 0.931 . S
C416 C415 1.291 . S
C416 C417 1.373 . S
C416 H429 0.929 . S
C417 C416 1.373 . S
C417 C418 1.396 . S
C417 C424 1.403 . S
C418 C408 1.476 . S
C418 N413 1.318 . S
C418 C417 1.396 . S
H419 C414 0.929 . S
O420 Mn396 2.385 . S
O420 C398 1.234 1_554 S
O421 Mn396 2.209 1_556 S
O421 Mn397 2.215 . S
O421 C398 1.283 . S
O422 Mn396 2.094 . S
O422 C400 1.240 . S
O423 Mn397 2.117 . S
O423 C400 1.264 1_556 S
C424 C417 1.403 . S
C424 C425 1.399 . S
C424 H430 0.929 . S
C425 C405 1.449 . S
C425 C424 1.399 . S
C425 H431 0.930 . S
H426 C406 0.931 . S
H427 C407 0.930 . S
H428 C415 0.931 . S
H429 C416 0.929 . S
H430 C424 0.929 . S
H431 C425 0.930 . S
Mn432 O437 2.095 . S
Mn432 O447 2.162 1_554 S
Mn432 O448 2.297 . S
Mn432 O456 2.385 . S
Mn432 O457 2.209 . S
Mn432 O458 2.094 . S
Mn433 O438 2.121 . S
Mn433 N440 2.257 . S
Mn433 N449 2.282 . S
Mn433 O457 2.215 . S
Mn433 O459 2.117 . S
C434 O456 1.234 . S
C434 O457 1.283 . S
C435 O447 1.281 . S
C435 O448 1.236 1_556 S
C436 O458 1.240 . S
C436 O459 1.264 . S
O437 Mn432 2.095 . S
O437 C446 1.250 . S
O438 Mn433 2.121 . S
O438 C446 1.258 . S
C439 N440 1.326 . S
C439 C443 1.460 . S
C439 H445 0.929 . S
N440 Mn433 2.257 . S
N440 C439 1.326 . S
N440 C444 1.362 . S
C441 C442 1.258 . S
C441 C444 1.431 . S
C441 C461 1.449 . S
C442 C441 1.258 . S
C442 C443 1.477 . S
C442 H462 0.931 . S
C443 C439 1.460 . S
C443 C442 1.477 . S
C443 H463 0.930 . S
C444 N440 1.362 . S
C444 C441 1.431 . S
C444 C454 1.476 . S
H445 C439 0.929 . S
C446 O437 1.250 . S
C446 O438 1.258 . S
O447 Mn432 2.162 1_556 S
O447 C435 1.281 . S
O448 Mn432 2.297 . S
O448 C435 1.236 1_554 S
N449 Mn433 2.282 . S
N449 C450 1.328 . S
N449 C454 1.318 . S
C450 N449 1.328 . S
C450 C451 1.457 . S
C450 H455 0.929 . S
C451 C450 1.457 . S
C451 C452 1.291 . S
C451 H464 0.931 . S
C452 C451 1.291 . S
C452 C453 1.373 . S
C452 H465 0.929 . S
C453 C452 1.373 . S
C453 C454 1.396 . S
C453 C460 1.403 . S
C454 C444 1.476 . S
C454 N449 1.318 . S
C454 C453 1.396 . S
H455 C450 0.929 . S
O456 Mn432 2.385 . S
O456 C434 1.234 . S
O457 Mn432 2.209 . S
O457 Mn433 2.215 . S
O457 C434 1.283 . S
O458 Mn432 2.094 . S
O458 C436 1.240 . S
O459 Mn433 2.117 . S
O459 C436 1.264 . S
C460 C453 1.403 . S
C460 C461 1.399 . S
C460 H466 0.929 . S
C461 C441 1.449 . S
C461 C460 1.399 . S
C461 H467 0.930 . S
H462 C442 0.931 . S
H463 C443 0.930 . S
H464 C451 0.931 . S
H465 C452 0.929 . S
H466 C460 0.929 . S
H467 C461 0.930 . S
Mn468 O473 2.095 . S
Mn468 O483 2.162 . S
Mn468 O484 2.297 . S
Mn468 O492 2.385 . S
Mn468 O493 2.209 1_556 S
Mn468 O494 2.094 . S
Mn469 O474 2.121 . S
Mn469 N476 2.257 . S
Mn469 N485 2.282 . S
Mn469 O493 2.215 . S
Mn469 O495 2.117 . S
C470 O492 1.234 1_554 S
C470 O493 1.283 . S
C471 O483 1.281 . S
C471 O484 1.236 . S
C472 O494 1.240 . S
C472 O495 1.264 1_556 S
O473 Mn468 2.095 . S
O473 C482 1.250 . S
O474 Mn469 2.121 . S
O474 C482 1.258 1_554 S
C475 N476 1.326 . S
C475 C479 1.460 . S
C475 H481 0.929 . S
N476 Mn469 2.257 . S
N476 C475 1.326 . S
N476 C480 1.362 . S
C477 C478 1.258 . S
C477 C480 1.431 . S
C477 C497 1.449 . S
C478 C477 1.258 . S
C478 C479 1.477 . S
C478 H498 0.931 . S
C479 C475 1.460 . S
C479 C478 1.477 . S
C479 H499 0.930 . S
C480 N476 1.362 . S
C480 C477 1.431 . S
C480 C490 1.476 . S
H481 C475 0.929 . S
C482 O473 1.250 . S
C482 O474 1.258 1_556 S
O483 Mn468 2.162 . S
O483 C471 1.281 . S
O484 Mn468 2.297 . S
O484 C471 1.236 . S
N485 Mn469 2.282 . S
N485 C486 1.328 . S
N485 C490 1.318 . S
C486 N485 1.328 . S
C486 C487 1.457 . S
C486 H491 0.929 . S
C487 C486 1.457 . S
C487 C488 1.291 . S
C487 H500 0.931 . S
C488 C487 1.291 . S
C488 C489 1.373 . S
C488 H501 0.929 . S
C489 C488 1.373 . S
C489 C490 1.396 . S
C489 C496 1.403 . S
C490 C480 1.476 . S
C490 N485 1.318 . S
C490 C489 1.396 . S
H491 C486 0.929 . S
O492 Mn468 2.385 . S
O492 C470 1.234 1_556 S
O493 Mn468 2.209 1_554 S
O493 Mn469 2.215 . S
O493 C470 1.283 . S
O494 Mn468 2.094 . S
O494 C472 1.240 . S
O495 Mn469 2.117 . S
O495 C472 1.264 1_554 S
C496 C489 1.403 . S
C496 C497 1.399 . S
C496 H502 0.929 . S
C497 C477 1.449 . S
C497 C496 1.399 . S
C497 H503 0.930 . S
H498 C478 0.931 . S
H499 C479 0.930 . S
H500 C487 0.931 . S
H501 C488 0.929 . S
H502 C496 0.929 . S
H503 C497 0.930 . S
Mn504 O509 2.095 . S
Mn504 O519 2.162 . S
Mn504 O520 2.297 . S
Mn504 O528 2.385 . S
Mn504 O529 2.209 . S
Mn504 O530 2.094 . S
Mn505 O510 2.121 . S
Mn505 N512 2.257 1_556 S
Mn505 N521 2.282 1_556 S
Mn505 O529 2.215 . S
Mn505 O531 2.117 . S
C506 O528 1.234 . S
C506 O529 1.283 . S
C507 O519 1.281 . S
C507 O520 1.236 . S
C508 O530 1.240 . S
C508 O531 1.264 . S
O509 Mn504 2.095 . S
O509 C518 1.250 . S
O510 Mn505 2.121 . S
O510 C518 1.258 . S
C511 N512 1.326 . S
C511 C515 1.460 . S
C511 H517 0.929 1_554 S
N512 Mn505 2.257 1_554 S
N512 C511 1.326 . S
N512 C516 1.362 . S
C513 C514 1.258 . S
C513 C516 1.431 . S
C513 C533 1.449 . S
C514 C513 1.258 . S
C514 C515 1.477 . S
C514 H534 0.931 . S
C515 C511 1.460 . S
C515 C514 1.477 . S
C515 H535 0.930 . S
C516 N512 1.362 . S
C516 C513 1.431 . S
C516 C526 1.476 . S
H517 C511 0.929 1_556 S
C518 O509 1.250 . S
C518 O510 1.258 . S
O519 Mn504 2.162 . S
O519 C507 1.281 . S
O520 Mn504 2.297 . S
O520 C507 1.236 . S
N521 Mn505 2.282 1_554 S
N521 C522 1.328 . S
N521 C526 1.318 . S
C522 N521 1.328 . S
C522 C523 1.457 . S
C522 H527 0.929 . S
C523 C522 1.457 . S
C523 C524 1.291 . S
C523 H536 0.931 . S
C524 C523 1.291 . S
C524 C525 1.373 . S
C524 H537 0.929 . S
C525 C524 1.373 . S
C525 C526 1.396 . S
C525 C532 1.403 . S
C526 C516 1.476 . S
C526 N521 1.318 . S
C526 C525 1.396 . S
H527 C522 0.929 . S
O528 Mn504 2.385 . S
O528 C506 1.234 . S
O529 Mn504 2.209 . S
O529 Mn505 2.215 . S
O529 C506 1.283 . S
O530 Mn504 2.094 . S
O530 C508 1.240 . S
O531 Mn505 2.117 . S
O531 C508 1.264 . S
C532 C525 1.403 . S
C532 C533 1.399 . S
C532 H538 0.929 . S
C533 C513 1.449 . S
C533 C532 1.399 . S
C533 H539 0.930 . S
H534 C514 0.931 . S
H535 C515 0.930 . S
H536 C523 0.931 . S
H537 C524 0.929 . S
H538 C532 0.929 . S
H539 C533 0.930 . S
Mn540 O545 2.095 . S
Mn540 O555 2.162 . S
Mn540 O556 2.297 . S
Mn540 O564 2.385 . S
Mn540 O565 2.209 . S
Mn540 O566 2.094 . S
Mn541 O546 2.121 . S
Mn541 N548 2.257 . S
Mn541 N557 2.282 . S
Mn541 O565 2.215 . S
Mn541 O567 2.117 . S
C542 O564 1.234 . S
C542 O565 1.283 . S
C543 O555 1.281 . S
C543 O556 1.236 . S
C544 O566 1.240 . S
C544 O567 1.264 . S
O545 Mn540 2.095 . S
O545 C554 1.250 . S
O546 Mn541 2.121 . S
O546 C554 1.258 . S
C547 N548 1.326 . S
C547 C551 1.460 . S
C547 H553 0.912 1_655 S
N548 Mn541 2.257 . S
N548 C547 1.326 . S
N548 C552 1.362 . S
C549 C550 1.258 . S
C549 C552 1.431 . S
C549 C569 1.449 1_556 S
C550 C549 1.258 . S
C550 C551 1.477 . S
C550 H570 0.931 1_556 S
C551 C547 1.460 . S
C551 C550 1.477 . S
C551 H571 0.930 1_655 S
C552 N548 1.362 . S
C552 C549 1.431 . S
C552 C562 1.476 . S
H553 C547 0.912 1_455 S
C554 O545 1.250 . S
C554 O546 1.258 . S
O555 Mn540 2.162 . S
O555 C543 1.281 . S
O556 Mn540 2.297 . S
O556 C543 1.236 . S
N557 Mn541 2.282 . S
N557 C558 1.328 . S
N557 C562 1.318 . S
C558 N557 1.328 . S
C558 C559 1.457 . S
C558 H563 0.929 . S
C559 C558 1.457 . S
C559 C560 1.291 1_556 S
C559 H572 0.931 . S
C560 C559 1.291 1_554 S
C560 C561 1.373 . S
C560 H573 0.929 . S
C561 C560 1.373 . S
C561 C562 1.396 1_554 S
C561 C568 1.403 . S
C562 C552 1.476 . S
C562 N557 1.318 . S
C562 C561 1.396 1_556 S
H563 C558 0.929 . S
O564 Mn540 2.385 . S
O564 C542 1.234 . S
O565 Mn540 2.209 . S
O565 Mn541 2.215 . S
O565 C542 1.283 . S
O566 Mn540 2.094 . S
O566 C544 1.240 . S
O567 Mn541 2.117 . S
O567 C544 1.264 . S
C568 C561 1.403 . S
C568 C569 1.399 . S
C568 H574 0.929 . S
C569 C549 1.449 1_554 S
C569 C568 1.399 . S
C569 H575 0.930 . S
H570 C550 0.931 1_554 S
H571 C551 0.930 1_455 S
H572 C559 0.931 . S
H573 C560 0.929 . S
H574 C568 0.929 . S
H575 C569 0.930 . S
Mn576 O581 2.095 . S
Mn576 O591 2.162 . S
Mn576 O592 2.297 . S
Mn576 O600 2.385 . S
Mn576 O601 2.209 . S
Mn576 O602 2.094 . S
Mn577 O582 2.121 . S
Mn577 N584 2.257 1_556 S
Mn577 N593 2.282 1_556 S
Mn577 O601 2.215 . S
Mn577 O603 2.117 . S
C578 O600 1.234 . S
C578 O601 1.283 . S
C579 O591 1.281 . S
C579 O592 1.236 . S
C580 O602 1.240 . S
C580 O603 1.264 . S
O581 Mn576 2.095 . S
O581 C590 1.250 . S
O582 Mn577 2.121 . S
O582 C590 1.258 . S
C583 N584 1.326 . S
C583 C587 1.460 . S
C583 H589 0.929 1_554 S
N584 Mn577 2.257 1_554 S
N584 C583 1.326 . S
N584 C588 1.362 . S
C585 C586 1.258 . S
C585 C588 1.431 . S
C585 C605 1.449 . S
C586 C585 1.258 . S
C586 C587 1.477 . S
C586 H606 0.931 . S
C587 C583 1.460 . S
C587 C586 1.477 . S
C587 H607 0.930 . S
C588 N584 1.362 . S
C588 C585 1.431 . S
C588 C598 1.476 . S
H589 C583 0.929 1_556 S
C590 O581 1.250 . S
C590 O582 1.258 . S
O591 Mn576 2.162 . S
O591 C579 1.281 . S
O592 Mn576 2.297 . S
O592 C579 1.236 . S
N593 Mn577 2.282 1_554 S
N593 C594 1.328 . S
N593 C598 1.318 . S
C594 N593 1.328 . S
C594 C595 1.457 . S
C594 H599 0.929 . S
C595 C594 1.457 . S
C595 C596 1.291 . S
C595 H608 0.931 . S
C596 C595 1.291 . S
C596 C597 1.373 . S
C596 H609 0.929 . S
C597 C596 1.373 . S
C597 C598 1.396 . S
C597 C604 1.403 . S
C598 C588 1.476 . S
C598 N593 1.318 . S
C598 C597 1.396 . S
H599 C594 0.929 . S
O600 Mn576 2.385 . S
O600 C578 1.234 . S
O601 Mn576 2.209 . S
O601 Mn577 2.215 . S
O601 C578 1.283 . S
O602 Mn576 2.094 . S
O602 C580 1.240 . S
O603 Mn577 2.117 . S
O603 C580 1.264 . S
C604 C597 1.403 . S
C604 C605 1.399 . S
C604 H610 0.929 . S
C605 C585 1.449 . S
C605 C604 1.399 . S
C605 H611 0.930 . S
H606 C586 0.931 . S
H607 C587 0.930 . S
H608 C595 0.931 . S
H609 C596 0.929 . S
H610 C604 0.929 . S
H611 C605 0.930 . S
Mn612 O617 2.095 . S
Mn612 O627 2.162 . S
Mn612 O628 2.297 . S
Mn612 O636 2.385 . S
Mn612 O637 2.209 1_556 S
Mn612 O638 2.094 . S
Mn613 O618 2.121 . S
Mn613 N620 2.257 . S
Mn613 N629 2.282 . S
Mn613 O637 2.215 . S
Mn613 O639 2.117 . S
C614 O636 1.234 1_554 S
C614 O637 1.283 . S
C615 O627 1.281 . S
C615 O628 1.236 . S
C616 O638 1.240 . S
C616 O639 1.264 1_556 S
O617 Mn612 2.095 . S
O617 C626 1.250 . S
O618 Mn613 2.121 . S
O618 C626 1.258 1_554 S
C619 N620 1.326 . S
C619 C623 1.460 . S
C619 H625 0.929 . S
N620 Mn613 2.257 . S
N620 C619 1.326 . S
N620 C624 1.362 . S
C621 C622 1.258 . S
C621 C624 1.431 . S
C621 C641 1.449 . S
C622 C621 1.258 . S
C622 C623 1.477 . S
C622 H642 0.931 . S
C623 C619 1.460 . S
C623 C622 1.477 . S
C623 H643 0.930 . S
C624 N620 1.362 . S
C624 C621 1.431 . S
C624 C634 1.476 . S
H625 C619 0.929 . S
C626 O617 1.250 . S
C626 O618 1.258 1_556 S
O627 Mn612 2.162 . S
O627 C615 1.281 . S
O628 Mn612 2.297 . S
O628 C615 1.236 . S
N629 Mn613 2.282 . S
N629 C630 1.328 . S
N629 C634 1.318 . S
C630 N629 1.328 . S
C630 C631 1.457 . S
C630 H635 0.929 . S
C631 C630 1.457 . S
C631 C632 1.291 . S
C631 H644 0.931 . S
C632 C631 1.291 . S
C632 C633 1.373 . S
C632 H645 0.929 . S
C633 C632 1.373 . S
C633 C634 1.396 . S
C633 C640 1.403 . S
C634 C624 1.476 . S
C634 N629 1.318 . S
C634 C633 1.396 . S
H635 C630 0.929 . S
O636 Mn612 2.385 . S
O636 C614 1.234 1_556 S
O637 Mn612 2.209 1_554 S
O637 Mn613 2.215 . S
O637 C614 1.283 . S
O638 Mn612 2.094 . S
O638 C616 1.240 . S
O639 Mn613 2.117 . S
O639 C616 1.264 1_554 S
C640 C633 1.403 . S
C640 C641 1.399 . S
C640 H646 0.929 . S
C641 C621 1.449 . S
C641 C640 1.399 . S
C641 H647 0.930 . S
H642 C622 0.931 . S
H643 C623 0.930 . S
H644 C631 0.931 . S
H645 C632 0.929 . S
H646 C640 0.929 . S
H647 C641 0.930 . S
Mn648 O653 2.095 . S
Mn648 O663 2.162 1_554 S
Mn648 O664 2.297 . S
Mn648 O672 2.385 . S
Mn648 O673 2.209 . S
Mn648 O674 2.094 . S
Mn649 O654 2.121 . S
Mn649 N656 2.257 . S
Mn649 N665 2.282 . S
Mn649 O673 2.215 . S
Mn649 O675 2.117 . S
C650 O672 1.234 . S
C650 O673 1.283 . S
C651 O663 1.281 . S
C651 O664 1.236 1_556 S
C652 O674 1.240 . S
C652 O675 1.264 . S
O653 Mn648 2.095 . S
O653 C662 1.250 . S
O654 Mn649 2.121 . S
O654 C662 1.258 . S
C655 N656 1.326 . S
C655 C659 1.460 . S
C655 H661 0.929 . S
N656 Mn649 2.257 . S
N656 C655 1.326 . S
N656 C660 1.362 . S
C657 C658 1.258 . S
C657 C660 1.431 . S
C657 C677 1.449 . S
C658 C657 1.258 . S
C658 C659 1.477 . S
C658 H678 0.931 . S
C659 C655 1.460 . S
C659 C658 1.477 . S
C659 H679 0.930 . S
C660 N656 1.362 . S
C660 C657 1.431 . S
C660 C670 1.476 . S
H661 C655 0.929 . S
C662 O653 1.250 . S
C662 O654 1.258 . S
O663 Mn648 2.162 1_556 S
O663 C651 1.281 . S
O664 Mn648 2.297 . S
O664 C651 1.236 1_554 S
N665 Mn649 2.282 . S
N665 C666 1.328 . S
N665 C670 1.318 . S
C666 N665 1.328 . S
C666 C667 1.457 . S
C666 H671 0.929 . S
C667 C666 1.457 . S
C667 C668 1.291 . S
C667 H680 0.931 . S
C668 C667 1.291 . S
C668 C669 1.373 . S
C668 H681 0.929 . S
C669 C668 1.373 . S
C669 C670 1.396 . S
C669 C676 1.403 . S
C670 C660 1.476 . S
C670 N665 1.318 . S
C670 C669 1.396 . S
H671 C666 0.929 . S
O672 Mn648 2.385 . S
O672 C650 1.234 . S
O673 Mn648 2.209 . S
O673 Mn649 2.215 . S
O673 C650 1.283 . S
O674 Mn648 2.094 . S
O674 C652 1.240 . S
O675 Mn649 2.117 . S
O675 C652 1.264 . S
C676 C669 1.403 . S
C676 C677 1.399 . S
C676 H682 0.929 . S
C677 C657 1.449 . S
C677 C676 1.399 . S
C677 H683 0.930 . S
H678 C658 0.931 . S
H679 C659 0.930 . S
H680 C667 0.931 . S
H681 C668 0.929 . S
H682 C676 0.929 . S
H683 C677 0.930 . S
Mn684 O689 2.095 . S
Mn684 O699 2.162 . S
Mn684 O700 2.297 . S
Mn684 O708 2.385 . S
Mn684 O709 2.209 . S
Mn684 O710 2.094 . S
Mn685 O690 2.121 . S
Mn685 N692 2.257 . S
Mn685 N701 2.282 . S
Mn685 O709 2.215 . S
Mn685 O711 2.117 . S
C686 O708 1.234 . S
C686 O709 1.283 . S
C687 O699 1.281 . S
C687 O700 1.236 . S
C688 O710 1.240 . S
C688 O711 1.264 . S
O689 Mn684 2.095 . S
O689 C698 1.250 . S
O690 Mn685 2.121 . S
O690 C698 1.258 . S
C691 N692 1.326 . S
C691 C695 1.460 . S
C691 H697 0.912 1_655 S
N692 Mn685 2.257 . S
N692 C691 1.326 . S
N692 C696 1.362 . S
C693 C694 1.258 . S
C693 C696 1.431 . S
C693 C713 1.449 1_556 S
C694 C693 1.258 . S
C694 C695 1.477 . S
C694 H714 0.931 1_556 S
C695 C691 1.460 . S
C695 C694 1.477 . S
C695 H715 0.930 1_655 S
C696 N692 1.362 . S
C696 C693 1.431 . S
C696 C706 1.476 . S
H697 C691 0.912 1_455 S
C698 O689 1.250 . S
C698 O690 1.258 . S
O699 Mn684 2.162 . S
O699 C687 1.281 . S
O700 Mn684 2.297 . S
O700 C687 1.236 . S
N701 Mn685 2.282 . S
N701 C702 1.328 . S
N701 C706 1.318 . S
C702 N701 1.328 . S
C702 C703 1.457 . S
C702 H707 0.929 . S
C703 C702 1.457 . S
C703 C704 1.291 1_556 S
C703 H716 0.931 . S
C704 C703 1.291 1_554 S
C704 C705 1.373 . S
C704 H717 0.929 . S
C705 C704 1.373 . S
C705 C706 1.396 1_554 S
C705 C712 1.403 . S
C706 C696 1.476 . S
C706 N701 1.318 . S
C706 C705 1.396 1_556 S
H707 C702 0.929 . S
O708 Mn684 2.385 . S
O708 C686 1.234 . S
O709 Mn684 2.209 . S
O709 Mn685 2.215 . S
O709 C686 1.283 . S
O710 Mn684 2.094 . S
O710 C688 1.240 . S
O711 Mn685 2.117 . S
O711 C688 1.264 . S
C712 C705 1.403 . S
C712 C713 1.399 . S
C712 H718 0.929 . S
C713 C693 1.449 1_554 S
C713 C712 1.399 . S
C713 H719 0.930 . S
H714 C694 0.931 1_554 S
H715 C695 0.930 1_455 S
H716 C703 0.931 . S
H717 C704 0.929 . S
H718 C712 0.929 . S
H719 C713 0.930 . S
Mn720 O725 2.095 . S
Mn720 O735 2.162 . S
Mn720 O736 2.297 . S
Mn720 O744 2.385 . S
Mn720 O745 2.209 . S
Mn720 O746 2.094 . S
Mn721 O726 2.121 . S
Mn721 N728 2.257 1_554 S
Mn721 N737 2.282 1_554 S
Mn721 O745 2.215 . S
Mn721 O747 2.117 . S
C722 O744 1.234 . S
C722 O745 1.283 . S
C723 O735 1.281 . S
C723 O736 1.236 . S
C724 O746 1.240 . S
C724 O747 1.264 . S
O725 Mn720 2.095 . S
O725 C734 1.250 . S
O726 Mn721 2.121 . S
O726 C734 1.258 . S
C727 N728 1.326 . S
C727 C731 1.460 . S
C727 H733 0.929 1_556 S
N728 Mn721 2.257 1_556 S
N728 C727 1.326 . S
N728 C732 1.362 . S
C729 C730 1.258 . S
C729 C732 1.431 . S
C729 C749 1.449 . S
C730 C729 1.258 . S
C730 C731 1.477 . S
C730 H750 0.931 . S
C731 C727 1.460 . S
C731 C730 1.477 . S
C731 H751 0.930 . S
C732 N728 1.362 . S
C732 C729 1.431 . S
C732 C742 1.476 . S
H733 C727 0.929 1_554 S
C734 O725 1.250 . S
C734 O726 1.258 . S
O735 Mn720 2.162 . S
O735 C723 1.281 . S
O736 Mn720 2.297 . S
O736 C723 1.236 . S
N737 Mn721 2.282 1_556 S
N737 C738 1.328 . S
N737 C742 1.318 . S
C738 N737 1.328 . S
C738 C739 1.457 . S
C738 H743 0.929 . S
C739 C738 1.457 . S
C739 C740 1.291 . S
C739 H752 0.931 . S
C740 C739 1.291 . S
C740 C741 1.373 . S
C740 H753 0.929 . S
C741 C740 1.373 . S
C741 C742 1.396 . S
C741 C748 1.403 . S
C742 C732 1.476 . S
C742 N737 1.318 . S
C742 C741 1.396 . S
H743 C738 0.929 . S
O744 Mn720 2.385 . S
O744 C722 1.234 . S
O745 Mn720 2.209 . S
O745 Mn721 2.215 . S
O745 C722 1.283 . S
O746 Mn720 2.094 . S
O746 C724 1.240 . S
O747 Mn721 2.117 . S
O747 C724 1.264 . S
C748 C741 1.403 . S
C748 C749 1.399 . S
C748 H754 0.929 . S
C749 C729 1.449 . S
C749 C748 1.399 . S
C749 H755 0.930 . S
H750 C730 0.931 . S
H751 C731 0.930 . S
H752 C739 0.931 . S
H753 C740 0.929 . S
H754 C748 0.929 . S
H755 C749 0.930 . S
Mn756 O761 2.095 . S
Mn756 O771 2.162 . S
Mn756 O772 2.297 . S
Mn756 O780 2.385 . S
Mn756 O781 2.209 . S
Mn756 O782 2.094 . S
Mn757 O762 2.121 . S
Mn757 N764 2.257 . S
Mn757 N773 2.282 . S
Mn757 O781 2.215 . S
Mn757 O783 2.117 . S
C758 O780 1.234 . S
C758 O781 1.283 . S
C759 O771 1.281 . S
C759 O772 1.236 . S
C760 O782 1.240 . S
C760 O783 1.264 . S
O761 Mn756 2.095 . S
O761 C770 1.250 . S
O762 Mn757 2.121 . S
O762 C770 1.258 . S
C763 N764 1.326 . S
C763 C767 1.460 . S
C763 H769 0.912 1_655 S
N764 Mn757 2.257 . S
N764 C763 1.326 . S
N764 C768 1.362 . S
C765 C766 1.258 . S
C765 C768 1.431 . S
C765 C785 1.449 1_554 S
C766 C765 1.258 . S
C766 C767 1.477 . S
C766 H786 0.931 1_554 S
C767 C763 1.460 . S
C767 C766 1.477 . S
C767 H787 0.930 1_655 S
C768 N764 1.362 . S
C768 C765 1.431 . S
C768 C778 1.476 . S
H769 C763 0.912 1_455 S
C770 O761 1.250 . S
C770 O762 1.258 . S
O771 Mn756 2.162 . S
O771 C759 1.281 . S
O772 Mn756 2.297 . S
O772 C759 1.236 . S
N773 Mn757 2.282 . S
N773 C774 1.328 . S
N773 C778 1.318 . S
C774 N773 1.328 . S
C774 C775 1.457 . S
C774 H779 0.929 . S
C775 C774 1.457 . S
C775 C776 1.291 1_554 S
C775 H788 0.931 . S
C776 C775 1.291 1_556 S
C776 C777 1.373 . S
C776 H789 0.929 . S
C777 C776 1.373 . S
C777 C778 1.396 1_556 S
C777 C784 1.403 . S
C778 C768 1.476 . S
C778 N773 1.318 . S
C778 C777 1.396 1_554 S
H779 C774 0.929 . S
O780 Mn756 2.385 . S
O780 C758 1.234 . S
O781 Mn756 2.209 . S
O781 Mn757 2.215 . S
O781 C758 1.283 . S
O782 Mn756 2.094 . S
O782 C760 1.240 . S
O783 Mn757 2.117 . S
O783 C760 1.264 . S
C784 C777 1.403 . S
C784 C785 1.399 . S
C784 H790 0.929 . S
C785 C765 1.449 1_556 S
C785 C784 1.399 . S
C785 H791 0.930 . S
H786 C766 0.931 1_556 S
H787 C767 0.930 1_455 S
H788 C775 0.931 . S
H789 C776 0.929 . S
H790 C784 0.929 . S
H791 C785 0.930 . S
Mn792 O797 2.095 . S
Mn792 O807 2.162 1_556 S
Mn792 O808 2.297 . S
Mn792 O816 2.385 . S
Mn792 O817 2.209 . S
Mn792 O818 2.094 . S
Mn793 O798 2.121 . S
Mn793 N800 2.257 . S
Mn793 N809 2.282 . S
Mn793 O817 2.215 . S
Mn793 O819 2.117 . S
C794 O816 1.234 . S
C794 O817 1.283 . S
C795 O807 1.281 . S
C795 O808 1.236 1_554 S
C796 O818 1.240 . S
C796 O819 1.264 . S
O797 Mn792 2.095 . S
O797 C806 1.250 . S
O798 Mn793 2.121 . S
O798 C806 1.258 . S
C799 N800 1.326 . S
C799 C803 1.460 . S
C799 H805 0.929 . S
N800 Mn793 2.257 . S
N800 C799 1.326 . S
N800 C804 1.362 . S
C801 C802 1.258 . S
C801 C804 1.431 . S
C801 C821 1.449 . S
C802 C801 1.258 . S
C802 C803 1.477 . S
C802 H822 0.931 . S
C803 C799 1.460 . S
C803 C802 1.477 . S
C803 H823 0.930 . S
C804 N800 1.362 . S
C804 C801 1.431 . S
C804 C814 1.476 . S
H805 C799 0.929 . S
C806 O797 1.250 . S
C806 O798 1.258 . S
O807 Mn792 2.162 1_554 S
O807 C795 1.281 . S
O808 Mn792 2.297 . S
O808 C795 1.236 1_556 S
N809 Mn793 2.282 . S
N809 C810 1.328 . S
N809 C814 1.318 . S
C810 N809 1.328 . S
C810 C811 1.457 . S
C810 H815 0.929 . S
C811 C810 1.457 . S
C811 C812 1.291 . S
C811 H824 0.931 . S
C812 C811 1.291 . S
C812 C813 1.373 . S
C812 H825 0.929 . S
C813 C812 1.373 . S
C813 C814 1.396 . S
C813 C820 1.403 . S
C814 C804 1.476 . S
C814 N809 1.318 . S
C814 C813 1.396 . S
H815 C810 0.929 . S
O816 Mn792 2.385 . S
O816 C794 1.234 . S
O817 Mn792 2.209 . S
O817 Mn793 2.215 . S
O817 C794 1.283 . S
O818 Mn792 2.094 . S
O818 C796 1.240 . S
O819 Mn793 2.117 . S
O819 C796 1.264 . S
C820 C813 1.403 . S
C820 C821 1.399 . S
C820 H826 0.929 . S
C821 C801 1.449 . S
C821 C820 1.399 . S
C821 H827 0.930 . S
H822 C802 0.931 . S
H823 C803 0.930 . S
H824 C811 0.931 . S
H825 C812 0.929 . S
H826 C820 0.929 . S
H827 C821 0.930 . S
Mn828 O833 2.095 . S
Mn828 O843 2.162 . S
Mn828 O844 2.297 . S
Mn828 O852 2.385 . S
Mn828 O853 2.209 1_554 S
Mn828 O854 2.094 . S
Mn829 O834 2.121 . S
Mn829 N836 2.257 . S
Mn829 N845 2.282 . S
Mn829 O853 2.215 . S
Mn829 O855 2.117 . S
C830 O852 1.234 1_556 S
C830 O853 1.283 . S
C831 O843 1.281 . S
C831 O844 1.236 . S
C832 O854 1.240 . S
C832 O855 1.264 1_554 S
O833 Mn828 2.095 . S
O833 C842 1.250 . S
O834 Mn829 2.121 . S
O834 C842 1.258 1_556 S
C835 N836 1.326 . S
C835 C839 1.460 . S
C835 H841 0.929 . S
N836 Mn829 2.257 . S
N836 C835 1.326 . S
N836 C840 1.362 . S
C837 C838 1.258 . S
C837 C840 1.431 . S
C837 C857 1.449 . S
C838 C837 1.258 . S
C838 C839 1.477 . S
C838 H858 0.931 . S
C839 C835 1.460 . S
C839 C838 1.477 . S
C839 H859 0.930 . S
C840 N836 1.362 . S
C840 C837 1.431 . S
C840 C850 1.476 . S
H841 C835 0.929 . S
C842 O833 1.250 . S
C842 O834 1.258 1_554 S
O843 Mn828 2.162 . S
O843 C831 1.281 . S
O844 Mn828 2.297 . S
O844 C831 1.236 . S
N845 Mn829 2.282 . S
N845 C846 1.328 . S
N845 C850 1.318 . S
C846 N845 1.328 . S
C846 C847 1.457 . S
C846 H851 0.929 . S
C847 C846 1.457 . S
C847 C848 1.291 . S
C847 H860 0.931 . S
C848 C847 1.291 . S
C848 C849 1.373 . S
C848 H861 0.929 . S
C849 C848 1.373 . S
C849 C850 1.396 . S
C849 C856 1.403 . S
C850 C840 1.476 . S
C850 N845 1.318 . S
C850 C849 1.396 . S
H851 C846 0.929 . S
O852 Mn828 2.385 . S
O852 C830 1.234 1_554 S
O853 Mn828 2.209 1_556 S
O853 Mn829 2.215 . S
O853 C830 1.283 . S
O854 Mn828 2.094 . S
O854 C832 1.240 . S
O855 Mn829 2.117 . S
O855 C832 1.264 1_556 S
C856 C849 1.403 . S
C856 C857 1.399 . S
C856 H862 0.929 . S
C857 C837 1.449 . S
C857 C856 1.399 . S
C857 H863 0.930 . S
H858 C838 0.931 . S
H859 C839 0.930 . S
H860 C847 0.931 . S
H861 C848 0.929 . S
H862 C856 0.929 . S
H863 C857 0.930 . S
Mn864 O869 2.095 . S
Mn864 O879 2.162 . S
Mn864 O880 2.297 . S
Mn864 O888 2.385 . S
Mn864 O889 2.209 . S
Mn864 O890 2.094 . S
Mn865 O870 2.121 . S
Mn865 N872 2.257 1_554 S
Mn865 N881 2.282 1_554 S
Mn865 O889 2.215 . S
Mn865 O891 2.117 . S
C866 O888 1.234 . S
C866 O889 1.283 . S
C867 O879 1.281 . S
C867 O880 1.236 . S
C868 O890 1.240 . S
C868 O891 1.264 . S
O869 Mn864 2.095 . S
O869 C878 1.250 . S
O870 Mn865 2.121 . S
O870 C878 1.258 . S
C871 N872 1.326 . S
C871 C875 1.460 . S
C871 H877 0.929 1_556 S
N872 Mn865 2.257 1_556 S
N872 C871 1.326 . S
N872 C876 1.362 . S
C873 C874 1.258 . S
C873 C876 1.431 . S
C873 C893 1.449 . S
C874 C873 1.258 . S
C874 C875 1.477 . S
C874 H894 0.931 . S
C875 C871 1.460 . S
C875 C874 1.477 . S
C875 H895 0.930 . S
C876 N872 1.362 . S
C876 C873 1.431 . S
C876 C886 1.476 . S
H877 C871 0.929 1_554 S
C878 O869 1.250 . S
C878 O870 1.258 . S
O879 Mn864 2.162 . S
O879 C867 1.281 . S
O880 Mn864 2.297 . S
O880 C867 1.236 . S
N881 Mn865 2.282 1_556 S
N881 C882 1.328 . S
N881 C886 1.318 . S
C882 N881 1.328 . S
C882 C883 1.457 . S
C882 H887 0.929 . S
C883 C882 1.457 . S
C883 C884 1.291 . S
C883 H896 0.931 . S
C884 C883 1.291 . S
C884 C885 1.373 . S
C884 H897 0.929 . S
C885 C884 1.373 . S
C885 C886 1.396 . S
C885 C892 1.403 . S
C886 C876 1.476 . S
C886 N881 1.318 . S
C886 C885 1.396 . S
H887 C882 0.929 . S
O888 Mn864 2.385 . S
O888 C866 1.234 . S
O889 Mn864 2.209 . S
O889 Mn865 2.215 . S
O889 C866 1.283 . S
O890 Mn864 2.094 . S
O890 C868 1.240 . S
O891 Mn865 2.117 . S
O891 C868 1.264 . S
C892 C885 1.403 . S
C892 C893 1.399 . S
C892 H898 0.929 . S
C893 C873 1.449 . S
C893 C892 1.399 . S
C893 H899 0.930 . S
H894 C874 0.931 . S
H895 C875 0.930 . S
H896 C883 0.931 . S
H897 C884 0.929 . S
H898 C892 0.929 . S
H899 C893 0.930 . S
Mn900 O905 2.095 . S
Mn900 O915 2.162 . S
Mn900 O916 2.297 . S
Mn900 O924 2.385 . S
Mn900 O925 2.209 1_554 S
Mn900 O926 2.094 . S
Mn901 O906 2.121 . S
Mn901 N908 2.257 . S
Mn901 N917 2.282 . S
Mn901 O925 2.215 . S
Mn901 O927 2.117 . S
C902 O924 1.234 1_556 S
C902 O925 1.283 . S
C903 O915 1.281 . S
C903 O916 1.236 . S
C904 O926 1.240 . S
C904 O927 1.264 1_554 S
O905 Mn900 2.095 . S
O905 C914 1.250 . S
O906 Mn901 2.121 . S
O906 C914 1.258 1_556 S
C907 N908 1.326 . S
C907 C911 1.460 . S
C907 H913 0.929 . S
N908 Mn901 2.257 . S
N908 C907 1.326 . S
N908 C912 1.362 . S
C909 C910 1.258 . S
C909 C912 1.431 . S
C909 C929 1.449 . S
C910 C909 1.258 . S
C910 C911 1.477 . S
C910 H930 0.931 . S
C911 C907 1.460 . S
C911 C910 1.477 . S
C911 H931 0.930 . S
C912 N908 1.362 . S
C912 C909 1.431 . S
C912 C922 1.476 . S
H913 C907 0.929 . S
C914 O905 1.250 . S
C914 O906 1.258 1_554 S
O915 Mn900 2.162 . S
O915 C903 1.281 . S
O916 Mn900 2.297 . S
O916 C903 1.236 . S
N917 Mn901 2.282 . S
N917 C918 1.328 . S
N917 C922 1.318 . S
C918 N917 1.328 . S
C918 C919 1.457 . S
C918 H923 0.929 . S
C919 C918 1.457 . S
C919 C920 1.291 . S
C919 H932 0.931 . S
C920 C919 1.291 . S
C920 C921 1.373 . S
C920 H933 0.929 . S
C921 C920 1.373 . S
C921 C922 1.396 . S
C921 C928 1.403 . S
C922 C912 1.476 . S
C922 N917 1.318 . S
C922 C921 1.396 . S
H923 C918 0.929 . S
O924 Mn900 2.385 . S
O924 C902 1.234 1_554 S
O925 Mn900 2.209 1_556 S
O925 Mn901 2.215 . S
O925 C902 1.283 . S
O926 Mn900 2.094 . S
O926 C904 1.240 . S
O927 Mn901 2.117 . S
O927 C904 1.264 1_556 S
C928 C921 1.403 . S
C928 C929 1.399 . S
C928 H934 0.929 . S
C929 C909 1.449 . S
C929 C928 1.399 . S
C929 H935 0.930 . S
H930 C910 0.931 . S
H931 C911 0.930 . S
H932 C919 0.931 . S
H933 C920 0.929 . S
H934 C928 0.929 . S
H935 C929 0.930 . S
Mn936 O941 2.095 . S
Mn936 O951 2.162 1_556 S
Mn936 O952 2.297 . S
Mn936 O960 2.385 . S
Mn936 O961 2.209 . S
Mn936 O962 2.094 . S
Mn937 O942 2.121 . S
Mn937 N944 2.257 . S
Mn937 N953 2.282 . S
Mn937 O961 2.215 . S
Mn937 O963 2.117 . S
C938 O960 1.234 . S
C938 O961 1.283 . S
C939 O951 1.281 . S
C939 O952 1.236 1_554 S
C940 O962 1.240 . S
C940 O963 1.264 . S
O941 Mn936 2.095 . S
O941 C950 1.250 . S
O942 Mn937 2.121 . S
O942 C950 1.258 . S
C943 N944 1.326 . S
C943 C947 1.460 . S
C943 H949 0.929 . S
N944 Mn937 2.257 . S
N944 C943 1.326 . S
N944 C948 1.362 . S
C945 C946 1.258 . S
C945 C948 1.431 . S
C945 C965 1.449 . S
C946 C945 1.258 . S
C946 C947 1.477 . S
C946 H966 0.931 . S
C947 C943 1.460 . S
C947 C946 1.477 . S
C947 H967 0.930 . S
C948 N944 1.362 . S
C948 C945 1.431 . S
C948 C958 1.476 . S
H949 C943 0.929 . S
C950 O941 1.250 . S
C950 O942 1.258 . S
O951 Mn936 2.162 1_554 S
O951 C939 1.281 . S
O952 Mn936 2.297 . S
O952 C939 1.236 1_556 S
N953 Mn937 2.282 . S
N953 C954 1.328 . S
N953 C958 1.318 . S
C954 N953 1.328 . S
C954 C955 1.457 . S
C954 H959 0.929 . S
C955 C954 1.457 . S
C955 C956 1.291 . S
C955 H968 0.931 . S
C956 C955 1.291 . S
C956 C957 1.373 . S
C956 H969 0.929 . S
C957 C956 1.373 . S
C957 C958 1.396 . S
C957 C964 1.403 . S
C958 C948 1.476 . S
C958 N953 1.318 . S
C958 C957 1.396 . S
H959 C954 0.929 . S
O960 Mn936 2.385 . S
O960 C938 1.234 . S
O961 Mn936 2.209 . S
O961 Mn937 2.215 . S
O961 C938 1.283 . S
O962 Mn936 2.094 . S
O962 C940 1.240 . S
O963 Mn937 2.117 . S
O963 C940 1.264 . S
C964 C957 1.403 . S
C964 C965 1.399 . S
C964 H970 0.929 . S
C965 C945 1.449 . S
C965 C964 1.399 . S
C965 H971 0.930 . S
H966 C946 0.931 . S
H967 C947 0.930 . S
H968 C955 0.931 . S
H969 C956 0.929 . S
H970 C964 0.929 . S
H971 C965 0.930 . S
Mn972 O977 2.095 . S
Mn972 O987 2.162 . S
Mn972 O988 2.297 . S
Mn972 O996 2.385 . S
Mn972 O997 2.209 . S
Mn972 O998 2.094 . S
Mn973 O978 2.121 . S
Mn973 N980 2.257 . S
Mn973 N989 2.282 . S
Mn973 O997 2.215 . S
Mn973 O999 2.117 . S
C974 O996 1.234 . S
C974 O997 1.283 . S
C975 O987 1.281 . S
C975 O988 1.236 . S
C976 O998 1.240 . S
C976 O999 1.264 . S
O977 Mn972 2.095 . S
O977 C986 1.250 . S
O978 Mn973 2.121 . S
O978 C986 1.258 . S
C979 N980 1.326 . S
C979 C983 1.460 . S
C979 H985 0.912 1_455 S
N980 Mn973 2.257 . S
N980 C979 1.326 . S
N980 C984 1.362 . S
C981 C982 1.258 . S
C981 C984 1.431 . S
C981 C1001 1.449 1_554 S
C982 C981 1.258 . S
C982 C983 1.477 . S
C982 H1002 0.931 1_554 S
C983 C979 1.460 . S
C983 C982 1.477 . S
C983 H1003 0.930 1_455 S
C984 N980 1.362 . S
C984 C981 1.431 . S
C984 C994 1.476 . S
H985 C979 0.912 1_655 S
C986 O977 1.250 . S
C986 O978 1.258 . S
O987 Mn972 2.162 . S
O987 C975 1.281 . S
O988 Mn972 2.297 . S
O988 C975 1.236 . S
N989 Mn973 2.282 . S
N989 C990 1.328 . S
N989 C994 1.318 . S
C990 N989 1.328 . S
C990 C991 1.457 . S
C990 H995 0.929 . S
C991 C990 1.457 . S
C991 C992 1.291 1_554 S
C991 H1004 0.931 . S
C992 C991 1.291 1_556 S
C992 C993 1.373 . S
C992 H1005 0.929 . S
C993 C992 1.373 . S
C993 C994 1.396 1_556 S
C993 C1000 1.403 . S
C994 C984 1.476 . S
C994 N989 1.318 . S
C994 C993 1.396 1_554 S
H995 C990 0.929 . S
O996 Mn972 2.385 . S
O996 C974 1.234 . S
O997 Mn972 2.209 . S
O997 Mn973 2.215 . S
O997 C974 1.283 . S
O998 Mn972 2.094 . S
O998 C976 1.240 . S
O999 Mn973 2.117 . S
O999 C976 1.264 . S
C1000 C993 1.403 . S
C1000 C1001 1.399 . S
C1000 H1006 0.929 . S
C1001 C981 1.449 1_556 S
C1001 C1000 1.399 . S
C1001 H1007 0.930 . S
H1002 C982 0.931 1_556 S
H1003 C983 0.930 1_655 S
H1004 C991 0.931 . S
H1005 C992 0.929 . S
H1006 C1000 0.929 . S
H1007 C1001 0.930 . S
Mn1008 O1013 2.095 . S
Mn1008 O1023 2.162 . S
Mn1008 O1024 2.297 . S
Mn1008 O1032 2.385 . S
Mn1008 O1033 2.209 . S
Mn1008 O1034 2.094 . S
Mn1009 O1014 2.121 . S
Mn1009 N1016 2.257 1_556 S
Mn1009 N1025 2.282 1_556 S
Mn1009 O1033 2.215 . S
Mn1009 O1035 2.117 . S
C1010 O1032 1.234 . S
C1010 O1033 1.283 . S
C1011 O1023 1.281 . S
C1011 O1024 1.236 . S
C1012 O1034 1.240 . S
C1012 O1035 1.264 . S
O1013 Mn1008 2.095 . S
O1013 C1022 1.250 . S
O1014 Mn1009 2.121 . S
O1014 C1022 1.258 . S
C1015 N1016 1.326 . S
C1015 C1019 1.460 . S
C1015 H1021 0.929 1_554 S
N1016 Mn1009 2.257 1_554 S
N1016 C1015 1.326 . S
N1016 C1020 1.362 . S
C1017 C1018 1.258 . S
C1017 C1020 1.431 . S
C1017 C1037 1.449 . S
C1018 C1017 1.258 . S
C1018 C1019 1.477 . S
C1018 H1038 0.931 . S
C1019 C1015 1.460 . S
C1019 C1018 1.477 . S
C1019 H1039 0.930 . S
C1020 N1016 1.362 . S
C1020 C1017 1.431 . S
C1020 C1030 1.476 . S
H1021 C1015 0.929 1_556 S
C1022 O1013 1.250 . S
C1022 O1014 1.258 . S
O1023 Mn1008 2.162 . S
O1023 C1011 1.281 . S
O1024 Mn1008 2.297 . S
O1024 C1011 1.236 . S
N1025 Mn1009 2.282 1_554 S
N1025 C1026 1.328 . S
N1025 C1030 1.318 . S
C1026 N1025 1.328 . S
C1026 C1027 1.457 . S
C1026 H1031 0.929 . S
C1027 C1026 1.457 . S
C1027 C1028 1.291 . S
C1027 H1040 0.931 . S
C1028 C1027 1.291 . S
C1028 C1029 1.373 . S
C1028 H1041 0.929 . S
C1029 C1028 1.373 . S
C1029 C1030 1.396 . S
C1029 C1036 1.403 . S
C1030 C1020 1.476 . S
C1030 N1025 1.318 . S
C1030 C1029 1.396 . S
H1031 C1026 0.929 . S
O1032 Mn1008 2.385 . S
O1032 C1010 1.234 . S
O1033 Mn1008 2.209 . S
O1033 Mn1009 2.215 . S
O1033 C1010 1.283 . S
O1034 Mn1008 2.094 . S
O1034 C1012 1.240 . S
O1035 Mn1009 2.117 . S
O1035 C1012 1.264 . S
C1036 C1029 1.403 . S
C1036 C1037 1.399 . S
C1036 H1042 0.929 . S
C1037 C1017 1.449 . S
C1037 C1036 1.399 . S
C1037 H1043 0.930 . S
H1038 C1018 0.931 . S
H1039 C1019 0.930 . S
H1040 C1027 0.931 . S
H1041 C1028 0.929 . S
H1042 C1036 0.929 . S
H1043 C1037 0.930 . S
Mn1044 O1049 2.095 . S
Mn1044 O1059 2.162 . S
Mn1044 O1060 2.297 . S
Mn1044 O1068 2.385 . S
Mn1044 O1069 2.209 . S
Mn1044 O1070 2.094 . S
Mn1045 O1050 2.121 . S
Mn1045 N1052 2.257 . S
Mn1045 N1061 2.282 . S
Mn1045 O1069 2.215 . S
Mn1045 O1071 2.117 . S
C1046 O1068 1.234 . S
C1046 O1069 1.283 . S
C1047 O1059 1.281 . S
C1047 O1060 1.236 . S
C1048 O1070 1.240 . S
C1048 O1071 1.264 . S
O1049 Mn1044 2.095 . S
O1049 C1058 1.250 . S
O1050 Mn1045 2.121 . S
O1050 C1058 1.258 . S
C1051 N1052 1.326 . S
C1051 C1055 1.460 . S
C1051 H1057 0.912 1_455 S
N1052 Mn1045 2.257 . S
N1052 C1051 1.326 . S
N1052 C1056 1.362 . S
C1053 C1054 1.258 . S
C1053 C1056 1.431 . S
C1053 C1073 1.449 1_556 S
C1054 C1053 1.258 . S
C1054 C1055 1.477 . S
C1054 H1074 0.931 1_556 S
C1055 C1051 1.460 . S
C1055 C1054 1.477 . S
C1055 H1075 0.930 1_455 S
C1056 N1052 1.362 . S
C1056 C1053 1.431 . S
C1056 C1066 1.476 . S
H1057 C1051 0.912 1_655 S
C1058 O1049 1.250 . S
C1058 O1050 1.258 . S
O1059 Mn1044 2.162 . S
O1059 C1047 1.281 . S
O1060 Mn1044 2.297 . S
O1060 C1047 1.236 . S
N1061 Mn1045 2.282 . S
N1061 C1062 1.328 . S
N1061 C1066 1.318 . S
C1062 N1061 1.328 . S
C1062 C1063 1.457 . S
C1062 H1067 0.929 . S
C1063 C1062 1.457 . S
C1063 C1064 1.291 1_556 S
C1063 H1076 0.931 . S
C1064 C1063 1.291 1_554 S
C1064 C1065 1.373 . S
C1064 H1077 0.929 . S
C1065 C1064 1.373 . S
C1065 C1066 1.396 1_554 S
C1065 C1072 1.403 . S
C1066 C1056 1.476 . S
C1066 N1061 1.318 . S
C1066 C1065 1.396 1_556 S
H1067 C1062 0.929 . S
O1068 Mn1044 2.385 . S
O1068 C1046 1.234 . S
O1069 Mn1044 2.209 . S
O1069 Mn1045 2.215 . S
O1069 C1046 1.283 . S
O1070 Mn1044 2.094 . S
O1070 C1048 1.240 . S
O1071 Mn1045 2.117 . S
O1071 C1048 1.264 . S
C1072 C1065 1.403 . S
C1072 C1073 1.399 . S
C1072 H1078 0.929 . S
C1073 C1053 1.449 1_554 S
C1073 C1072 1.399 . S
C1073 H1079 0.930 . S
H1074 C1054 0.931 1_554 S
H1075 C1055 0.930 1_655 S
H1076 C1063 0.931 . S
H1077 C1064 0.929 . S
H1078 C1072 0.929 . S
H1079 C1073 0.930 . S
Mn1080 O1085 2.095 . S
Mn1080 O1095 2.162 1_554 S
Mn1080 O1096 2.297 . S
Mn1080 O1104 2.385 . S
Mn1080 O1105 2.209 . S
Mn1080 O1106 2.094 . S
Mn1081 O1086 2.121 . S
Mn1081 N1088 2.257 . S
Mn1081 N1097 2.282 . S
Mn1081 O1105 2.215 . S
Mn1081 O1107 2.117 . S
C1082 O1104 1.234 . S
C1082 O1105 1.283 . S
C1083 O1095 1.281 . S
C1083 O1096 1.236 1_556 S
C1084 O1106 1.240 . S
C1084 O1107 1.264 . S
O1085 Mn1080 2.095 . S
O1085 C1094 1.250 . S
O1086 Mn1081 2.121 . S
O1086 C1094 1.258 . S
C1087 N1088 1.326 . S
C1087 C1091 1.460 . S
C1087 H1093 0.929 . S
N1088 Mn1081 2.257 . S
N1088 C1087 1.326 . S
N1088 C1092 1.362 . S
C1089 C1090 1.258 . S
C1089 C1092 1.431 . S
C1089 C1109 1.449 . S
C1090 C1089 1.258 . S
C1090 C1091 1.477 . S
C1090 H1110 0.931 . S
C1091 C1087 1.460 . S
C1091 C1090 1.477 . S
C1091 H1111 0.930 . S
C1092 N1088 1.362 . S
C1092 C1089 1.431 . S
C1092 C1102 1.476 . S
H1093 C1087 0.929 . S
C1094 O1085 1.250 . S
C1094 O1086 1.258 . S
O1095 Mn1080 2.162 1_556 S
O1095 C1083 1.281 . S
O1096 Mn1080 2.297 . S
O1096 C1083 1.236 1_554 S
N1097 Mn1081 2.282 . S
N1097 C1098 1.328 . S
N1097 C1102 1.318 . S
C1098 N1097 1.328 . S
C1098 C1099 1.457 . S
C1098 H1103 0.929 . S
C1099 C1098 1.457 . S
C1099 C1100 1.291 . S
C1099 H1112 0.931 . S
C1100 C1099 1.291 . S
C1100 C1101 1.373 . S
C1100 H1113 0.929 . S
C1101 C1100 1.373 . S
C1101 C1102 1.396 . S
C1101 C1108 1.403 . S
C1102 C1092 1.476 . S
C1102 N1097 1.318 . S
C1102 C1101 1.396 . S
H1103 C1098 0.929 . S
O1104 Mn1080 2.385 . S
O1104 C1082 1.234 . S
O1105 Mn1080 2.209 . S
O1105 Mn1081 2.215 . S
O1105 C1082 1.283 . S
O1106 Mn1080 2.094 . S
O1106 C1084 1.240 . S
O1107 Mn1081 2.117 . S
O1107 C1084 1.264 . S
C1108 C1101 1.403 . S
C1108 C1109 1.399 . S
C1108 H1114 0.929 . S
C1109 C1089 1.449 . S
C1109 C1108 1.399 . S
C1109 H1115 0.930 . S
H1110 C1090 0.931 . S
H1111 C1091 0.930 . S
H1112 C1099 0.931 . S
H1113 C1100 0.929 . S
H1114 C1108 0.929 . S
H1115 C1109 0.930 . S
Mn1116 O1121 2.095 . S
Mn1116 O1131 2.162 . S
Mn1116 O1132 2.297 . S
Mn1116 O1140 2.385 . S
Mn1116 O1141 2.209 1_556 S
Mn1116 O1142 2.094 . S
Mn1117 O1122 2.121 . S
Mn1117 N1124 2.257 . S
Mn1117 N1133 2.282 . S
Mn1117 O1141 2.215 . S
Mn1117 O1143 2.117 . S
C1118 O1140 1.234 1_554 S
C1118 O1141 1.283 . S
C1119 O1131 1.281 . S
C1119 O1132 1.236 . S
C1120 O1142 1.240 . S
C1120 O1143 1.264 1_556 S
O1121 Mn1116 2.095 . S
O1121 C1130 1.250 . S
O1122 Mn1117 2.121 . S
O1122 C1130 1.258 1_554 S
C1123 N1124 1.326 . S
C1123 C1127 1.460 . S
C1123 H1129 0.929 . S
N1124 Mn1117 2.257 . S
N1124 C1123 1.326 . S
N1124 C1128 1.362 . S
C1125 C1126 1.258 . S
C1125 C1128 1.431 . S
C1125 C1145 1.449 . S
C1126 C1125 1.258 . S
C1126 C1127 1.477 . S
C1126 H1146 0.931 . S
C1127 C1123 1.460 . S
C1127 C1126 1.477 . S
C1127 H1147 0.930 . S
C1128 N1124 1.362 . S
C1128 C1125 1.431 . S
C1128 C1138 1.476 . S
H1129 C1123 0.929 . S
C1130 O1121 1.250 . S
C1130 O1122 1.258 1_556 S
O1131 Mn1116 2.162 . S
O1131 C1119 1.281 . S
O1132 Mn1116 2.297 . S
O1132 C1119 1.236 . S
N1133 Mn1117 2.282 . S
N1133 C1134 1.328 . S
N1133 C1138 1.318 . S
C1134 N1133 1.328 . S
C1134 C1135 1.457 . S
C1134 H1139 0.929 . S
C1135 C1134 1.457 . S
C1135 C1136 1.291 . S
C1135 H1148 0.931 . S
C1136 C1135 1.291 . S
C1136 C1137 1.373 . S
C1136 H1149 0.929 . S
C1137 C1136 1.373 . S
C1137 C1138 1.396 . S
C1137 C1144 1.403 . S
C1138 C1128 1.476 . S
C1138 N1133 1.318 . S
C1138 C1137 1.396 . S
H1139 C1134 0.929 . S
O1140 Mn1116 2.385 . S
O1140 C1118 1.234 1_556 S
O1141 Mn1116 2.209 1_554 S
O1141 Mn1117 2.215 . S
O1141 C1118 1.283 . S
O1142 Mn1116 2.094 . S
O1142 C1120 1.240 . S
O1143 Mn1117 2.117 . S
O1143 C1120 1.264 1_554 S
C1144 C1137 1.403 . S
C1144 C1145 1.399 . S
C1144 H1150 0.929 . S
C1145 C1125 1.449 . S
C1145 C1144 1.399 . S
C1145 H1151 0.930 . S
H1146 C1126 0.931 . S
H1147 C1127 0.930 . S
H1148 C1135 0.931 . S
H1149 C1136 0.929 . S
H1150 C1144 0.929 . S
H1151 C1145 0.930 . S
C220 C4 1.520 . S
C40 C256 1.520 1_565 S
C148 C76 1.520 . S
C112 C184 1.520 1_546 S
C292 C508 1.520 . S
C544 C328 1.520 1_565 S
C364 C436 1.520 . S
C472 C400 1.520 1_546 S
C580 C796 1.520 . S
C616 C832 1.520 1_556 S
C724 C652 1.520 . S
C760 C688 1.520 . S
C868 C1084 1.520 . S
C904 C1120 1.520 1_554 S
C1012 C940 1.520 . S
C976 C1048 1.520 . S
C3 C255 1.447 . S
C147 C39 1.447 . S
C183 C75 1.447 . S
C111 C219 1.447 . S
C291 C543 1.447 . S
C435 C327 1.447 . S
C471 C363 1.447 . S
C507 C399 1.447 . S
C579 C831 1.447 . S
C615 C723 1.447 . S
C759 C651 1.447 . S
C687 C795 1.447 . S
C867 C1119 1.447 . S
C1011 C903 1.447 . S
C939 C1047 1.447 . S
C975 C1083 1.447 . S
C1094 C14 1.180 . S
C554 C50 1.180 1_655 S
C86 C1022 1.180 . S
C122 C482 1.180 . S
C158 C950 1.180 . S
C194 C410 1.180 . S
C230 C878 1.180 . S
C338 C266 1.180 1_655 S
C806 C302 1.180 . S
C374 C734 1.180 . S
C662 C446 1.180 . S
C590 C518 1.180 . S
C626 C1130 1.180 . S
C698 C1058 1.180 1_655 S
C770 C986 1.180 1_655 S
C914 C842 1.180 . S
C2 C254 1.545 . S
C38 C146 1.545 . S
C182 C74 1.545 . S
C110 C218 1.545 . S
C542 C290 1.545 . S
C434 C326 1.545 . S
C362 C470 1.545 . S
C506 C398 1.545 . S
C830 C578 1.545 . S
C722 C614 1.545 . S
C758 C650 1.545 . S
C794 C686 1.545 . S
C866 C1118 1.545 . S
C902 C1010 1.545 . S
C938 C1046 1.545 . S
C1082 C974 1.545 . S
