# Generated by pormake.
# Topology wio, (6)-cn, num edge types: 1
# Building blocks:
#     Node 0, Type 0, BuildingBlock: BETGAK_clean_sbu_0, # of connection points: 6
#     Node 1, Type 0, BuildingBlock: BETGAK_clean_sbu_0, # of connection points: 6
#     Node 2, Type 0, BuildingBlock: BETGAK_clean_sbu_0, # of connection points: 6
#     Node 3, Type 0, BuildingBlock: BETGAK_clean_sbu_0, # of connection points: 6
#     Node 4, Type 0, BuildingBlock: BETGAK_clean_sbu_0, # of connection points: 6
#     Node 5, Type 0, BuildingBlock: BETGAK_clean_sbu_0, # of connection points: 6
#     Node 6, Type 0, BuildingBlock: BETGAK_clean_sbu_0, # of connection points: 6
#     Node 7, Type 0, BuildingBlock: BETGAK_clean_sbu_0, # of connection points: 6
#     Node 8, Type 0, BuildingBlock: BETGAK_clean_sbu_0, # of connection points: 6
#     Node 9, Type 0, BuildingBlock: BETGAK_clean_sbu_0, # of connection points: 6
#     Node 10, Type 0, BuildingBlock: BETGAK_clean_sbu_0, # of connection points: 6
#     Node 11, Type 0, BuildingBlock: BETGAK_clean_sbu_0, # of connection points: 6
#     Node 12, Type 0, BuildingBlock: BETGAK_clean_sbu_0, # of connection points: 6
#     Node 13, Type 0, BuildingBlock: BETGAK_clean_sbu_0, # of connection points: 6
#     Node 14, Type 0, BuildingBlock: BETGAK_clean_sbu_0, # of connection points: 6
#     Node 15, Type 0, BuildingBlock: BETGAK_clean_sbu_0, # of connection points: 6
#     Node 16, Type 0, BuildingBlock: BETGAK_clean_sbu_0, # of connection points: 6
#     Node 17, Type 0, BuildingBlock: BETGAK_clean_sbu_0, # of connection points: 6
#     Node 18, Type 0, BuildingBlock: BETGAK_clean_sbu_0, # of connection points: 6
#     Node 19, Type 0, BuildingBlock: BETGAK_clean_sbu_0, # of connection points: 6
#     Node 20, Type 0, BuildingBlock: BETGAK_clean_sbu_0, # of connection points: 6
#     Node 21, Type 0, BuildingBlock: BETGAK_clean_sbu_0, # of connection points: 6
#     Node 22, Type 0, BuildingBlock: BETGAK_clean_sbu_0, # of connection points: 6
#     Node 23, Type 0, BuildingBlock: BETGAK_clean_sbu_0, # of connection points: 6
#     Node 24, Type 0, BuildingBlock: BETGAK_clean_sbu_0, # of connection points: 6
#     Node 25, Type 0, BuildingBlock: BETGAK_clean_sbu_0, # of connection points: 6
#     Node 26, Type 0, BuildingBlock: BETGAK_clean_sbu_0, # of connection points: 6
#     Node 27, Type 0, BuildingBlock: BETGAK_clean_sbu_0, # of connection points: 6
#     Node 28, Type 0, BuildingBlock: BETGAK_clean_sbu_0, # of connection points: 6
#     Node 29, Type 0, BuildingBlock: BETGAK_clean_sbu_0, # of connection points: 6
#     Node 30, Type 0, BuildingBlock: BETGAK_clean_sbu_0, # of connection points: 6
#     Node 31, Type 0, BuildingBlock: BETGAK_clean_sbu_0, # of connection points: 6
#     Edge 32, Type (0, 0), BuildingBlock: KIFKEQ_clean_linker_1, # of connection points: 2
#     Edge 33, Type (0, 0), BuildingBlock: KIFKEQ_clean_linker_1, # of connection points: 2
#     Edge 34, Type (0, 0), BuildingBlock: KIFKEQ_clean_linker_1, # of connection points: 2
#     Edge 35, Type (0, 0), BuildingBlock: KIFKEQ_clean_linker_1, # of connection points: 2
#     Edge 36, Type (0, 0), BuildingBlock: KIFKEQ_clean_linker_1, # of connection points: 2
#     Edge 37, Type (0, 0), BuildingBlock: KIFKEQ_clean_linker_1, # of connection points: 2
#     Edge 38, Type (0, 0), BuildingBlock: KIFKEQ_clean_linker_1, # of connection points: 2
#     Edge 39, Type (0, 0), BuildingBlock: KIFKEQ_clean_linker_1, # of connection points: 2
#     Edge 40, Type (0, 0), BuildingBlock: KIFKEQ_clean_linker_1, # of connection points: 2
#     Edge 41, Type (0, 0), BuildingBlock: KIFKEQ_clean_linker_1, # of connection points: 2
#     Edge 42, Type (0, 0), BuildingBlock: KIFKEQ_clean_linker_1, # of connection points: 2
#     Edge 43, Type (0, 0), BuildingBlock: KIFKEQ_clean_linker_1, # of connection points: 2
#     Edge 44, Type (0, 0), BuildingBlock: KIFKEQ_clean_linker_1, # of connection points: 2
#     Edge 45, Type (0, 0), BuildingBlock: KIFKEQ_clean_linker_1, # of connection points: 2
#     Edge 46, Type (0, 0), BuildingBlock: KIFKEQ_clean_linker_1, # of connection points: 2
#     Edge 47, Type (0, 0), BuildingBlock: KIFKEQ_clean_linker_1, # of connection points: 2
#     Edge 48, Type (0, 0), BuildingBlock: KIFKEQ_clean_linker_1, # of connection points: 2
#     Edge 49, Type (0, 0), BuildingBlock: KIFKEQ_clean_linker_1, # of connection points: 2
#     Edge 50, Type (0, 0), BuildingBlock: KIFKEQ_clean_linker_1, # of connection points: 2
#     Edge 51, Type (0, 0), BuildingBlock: KIFKEQ_clean_linker_1, # of connection points: 2
#     Edge 52, Type (0, 0), BuildingBlock: KIFKEQ_clean_linker_1, # of connection points: 2
#     Edge 53, Type (0, 0), BuildingBlock: KIFKEQ_clean_linker_1, # of connection points: 2
#     Edge 54, Type (0, 0), BuildingBlock: KIFKEQ_clean_linker_1, # of connection points: 2
#     Edge 55, Type (0, 0), BuildingBlock: KIFKEQ_clean_linker_1, # of connection points: 2
#     Edge 56, Type (0, 0), BuildingBlock: KIFKEQ_clean_linker_1, # of connection points: 2
#     Edge 57, Type (0, 0), BuildingBlock: KIFKEQ_clean_linker_1, # of connection points: 2
#     Edge 58, Type (0, 0), BuildingBlock: KIFKEQ_clean_linker_1, # of connection points: 2
#     Edge 59, Type (0, 0), BuildingBlock: KIFKEQ_clean_linker_1, # of connection points: 2
#     Edge 60, Type (0, 0), BuildingBlock: KIFKEQ_clean_linker_1, # of connection points: 2
#     Edge 61, Type (0, 0), BuildingBlock: KIFKEQ_clean_linker_1, # of connection points: 2
#     Edge 62, Type (0, 0), BuildingBlock: KIFKEQ_clean_linker_1, # of connection points: 2
#     Edge 63, Type (0, 0), BuildingBlock: KIFKEQ_clean_linker_1, # of connection points: 2
#     Edge 64, Type (0, 0), BuildingBlock: KIFKEQ_clean_linker_1, # of connection points: 2
#     Edge 65, Type (0, 0), BuildingBlock: KIFKEQ_clean_linker_1, # of connection points: 2
#     Edge 66, Type (0, 0), BuildingBlock: KIFKEQ_clean_linker_1, # of connection points: 2
#     Edge 67, Type (0, 0), BuildingBlock: KIFKEQ_clean_linker_1, # of connection points: 2
#     Edge 68, Type (0, 0), BuildingBlock: KIFKEQ_clean_linker_1, # of connection points: 2
#     Edge 69, Type (0, 0), BuildingBlock: KIFKEQ_clean_linker_1, # of connection points: 2
#     Edge 70, Type (0, 0), BuildingBlock: KIFKEQ_clean_linker_1, # of connection points: 2
#     Edge 71, Type (0, 0), BuildingBlock: KIFKEQ_clean_linker_1, # of connection points: 2
#     Edge 72, Type (0, 0), BuildingBlock: KIFKEQ_clean_linker_1, # of connection points: 2
#     Edge 73, Type (0, 0), BuildingBlock: KIFKEQ_clean_linker_1, # of connection points: 2
#     Edge 74, Type (0, 0), BuildingBlock: KIFKEQ_clean_linker_1, # of connection points: 2
#     Edge 75, Type (0, 0), BuildingBlock: KIFKEQ_clean_linker_1, # of connection points: 2
#     Edge 76, Type (0, 0), BuildingBlock: KIFKEQ_clean_linker_1, # of connection points: 2
#     Edge 77, Type (0, 0), BuildingBlock: KIFKEQ_clean_linker_1, # of connection points: 2
#     Edge 78, Type (0, 0), BuildingBlock: KIFKEQ_clean_linker_1, # of connection points: 2
#     Edge 79, Type (0, 0), BuildingBlock: KIFKEQ_clean_linker_1, # of connection points: 2
#     Edge 80, Type (0, 0), BuildingBlock: KIFKEQ_clean_linker_1, # of connection points: 2
#     Edge 81, Type (0, 0), BuildingBlock: KIFKEQ_clean_linker_1, # of connection points: 2
#     Edge 82, Type (0, 0), BuildingBlock: KIFKEQ_clean_linker_1, # of connection points: 2
#     Edge 83, Type (0, 0), BuildingBlock: KIFKEQ_clean_linker_1, # of connection points: 2
#     Edge 84, Type (0, 0), BuildingBlock: KIFKEQ_clean_linker_1, # of connection points: 2
#     Edge 85, Type (0, 0), BuildingBlock: KIFKEQ_clean_linker_1, # of connection points: 2
#     Edge 86, Type (0, 0), BuildingBlock: KIFKEQ_clean_linker_1, # of connection points: 2
#     Edge 87, Type (0, 0), BuildingBlock: KIFKEQ_clean_linker_1, # of connection points: 2
#     Edge 88, Type (0, 0), BuildingBlock: KIFKEQ_clean_linker_1, # of connection points: 2
#     Edge 89, Type (0, 0), BuildingBlock: KIFKEQ_clean_linker_1, # of connection points: 2
#     Edge 90, Type (0, 0), BuildingBlock: KIFKEQ_clean_linker_1, # of connection points: 2
#     Edge 91, Type (0, 0), BuildingBlock: KIFKEQ_clean_linker_1, # of connection points: 2
#     Edge 92, Type (0, 0), BuildingBlock: KIFKEQ_clean_linker_1, # of connection points: 2
#     Edge 93, Type (0, 0), BuildingBlock: KIFKEQ_clean_linker_1, # of connection points: 2
#     Edge 94, Type (0, 0), BuildingBlock: KIFKEQ_clean_linker_1, # of connection points: 2
#     Edge 95, Type (0, 0), BuildingBlock: KIFKEQ_clean_linker_1, # of connection points: 2
#     Edge 96, Type (0, 0), BuildingBlock: KIFKEQ_clean_linker_1, # of connection points: 2
#     Edge 97, Type (0, 0), BuildingBlock: KIFKEQ_clean_linker_1, # of connection points: 2
#     Edge 98, Type (0, 0), BuildingBlock: KIFKEQ_clean_linker_1, # of connection points: 2
#     Edge 99, Type (0, 0), BuildingBlock: KIFKEQ_clean_linker_1, # of connection points: 2
#     Edge 100, Type (0, 0), BuildingBlock: KIFKEQ_clean_linker_1, # of connection points: 2
#     Edge 101, Type (0, 0), BuildingBlock: KIFKEQ_clean_linker_1, # of connection points: 2
#     Edge 102, Type (0, 0), BuildingBlock: KIFKEQ_clean_linker_1, # of connection points: 2
#     Edge 103, Type (0, 0), BuildingBlock: KIFKEQ_clean_linker_1, # of connection points: 2
#     Edge 104, Type (0, 0), BuildingBlock: KIFKEQ_clean_linker_1, # of connection points: 2
#     Edge 105, Type (0, 0), BuildingBlock: KIFKEQ_clean_linker_1, # of connection points: 2
#     Edge 106, Type (0, 0), BuildingBlock: KIFKEQ_clean_linker_1, # of connection points: 2
#     Edge 107, Type (0, 0), BuildingBlock: KIFKEQ_clean_linker_1, # of connection points: 2
#     Edge 108, Type (0, 0), BuildingBlock: KIFKEQ_clean_linker_1, # of connection points: 2
#     Edge 109, Type (0, 0), BuildingBlock: KIFKEQ_clean_linker_1, # of connection points: 2
#     Edge 110, Type (0, 0), BuildingBlock: KIFKEQ_clean_linker_1, # of connection points: 2
#     Edge 111, Type (0, 0), BuildingBlock: KIFKEQ_clean_linker_1, # of connection points: 2
#     Edge 112, Type (0, 0), BuildingBlock: KIFKEQ_clean_linker_1, # of connection points: 2
#     Edge 113, Type (0, 0), BuildingBlock: KIFKEQ_clean_linker_1, # of connection points: 2
#     Edge 114, Type (0, 0), BuildingBlock: KIFKEQ_clean_linker_1, # of connection points: 2
#     Edge 115, Type (0, 0), BuildingBlock: KIFKEQ_clean_linker_1, # of connection points: 2
#     Edge 116, Type (0, 0), BuildingBlock: KIFKEQ_clean_linker_1, # of connection points: 2
#     Edge 117, Type (0, 0), BuildingBlock: KIFKEQ_clean_linker_1, # of connection points: 2
#     Edge 118, Type (0, 0), BuildingBlock: KIFKEQ_clean_linker_1, # of connection points: 2
#     Edge 119, Type (0, 0), BuildingBlock: KIFKEQ_clean_linker_1, # of connection points: 2
#     Edge 120, Type (0, 0), BuildingBlock: KIFKEQ_clean_linker_1, # of connection points: 2
#     Edge 121, Type (0, 0), BuildingBlock: KIFKEQ_clean_linker_1, # of connection points: 2
#     Edge 122, Type (0, 0), BuildingBlock: KIFKEQ_clean_linker_1, # of connection points: 2
#     Edge 123, Type (0, 0), BuildingBlock: KIFKEQ_clean_linker_1, # of connection points: 2
#     Edge 124, Type (0, 0), BuildingBlock: KIFKEQ_clean_linker_1, # of connection points: 2
#     Edge 125, Type (0, 0), BuildingBlock: KIFKEQ_clean_linker_1, # of connection points: 2
#     Edge 126, Type (0, 0), BuildingBlock: KIFKEQ_clean_linker_1, # of connection points: 2
#     Edge 127, Type (0, 0), BuildingBlock: KIFKEQ_clean_linker_1, # of connection points: 2
# Relax obj value: 0.200
# Max RMSD: 0.236
# Mean RMSD: 0.236
data_MOF--net-wio--node1-BETGAK_clean_sbu_0--edge1-KIFKEQ_clean_linker_1
_symmetry_space_group_name_H-M    P1
_symmetry_Int_Tables_number       1
_symmetry_cell_setting            triclinic
loop_
_symmetry_equiv_pos_as_xyz
'x, y, z'
_cell_length_a     62.695566
_cell_length_b     62.688452
_cell_length_c     54.073108
_cell_angle_alpha  89.919576
_cell_angle_beta   90.032772
_cell_angle_gamma 90.024929
loop_
_atom_site_label
_atom_site_type_symbol
_atom_site_fract_x
_atom_site_fract_y
_atom_site_fract_z
_atom_type_partial_charge
La0 La 0.15941 0.12137 0.3068 0.0
La1 La 0.11303 0.13251 0.3149 0.0
C2 C 0.19435 0.10686 0.29085 0.0
C3 C 0.21005 0.11135 0.2712 0.0
C4 C 0.2158 0.13231 0.26474 0.0
C5 C 0.23187 0.136 0.24723 0.0
C6 C 0.24231 0.11882 0.23571 0.0
C7 C 0.23616 0.09789 0.24192 0.0
C8 C 0.22024 0.09422 0.25951 0.0
C9 C 0.1529 0.15836 0.32838 0.0
C10 C 0.13203 0.141 0.26197 0.0
C11 C 0.07934 0.14934 0.33196 0.0
C12 C 0.06465 0.14779 0.35325 0.0
C13 C 0.0465 0.16085 0.3538 0.0
C14 C 0.03205 0.15963 0.37348 0.0
C15 C 0.0354 0.14529 0.39317 0.0
C16 C 0.05382 0.13236 0.39267 0.0
C17 C 0.0683 0.13361 0.3729 0.0
C18 C 0.11983 0.09394 0.29634 0.0
C19 C 0.13966 0.10804 0.35758 0.0
O20 O 0.19278 0.12097 0.30857 0.0
O21 O 0.17569 0.09965 0.28386 0.0
O22 O 0.16923 0.14622 0.33222 0.0
O23 O 0.14171 0.15061 0.31106 0.0
O24 O 0.14959 0.13147 0.26986 0.0
O25 O 0.11598 0.14535 0.27716 0.0
O26 O 0.07949 0.13334 0.31647 0.0
O27 O 0.09861 0.15634 0.33651 0.0
O28 O 0.10286 0.10526 0.29216 0.0
O29 O 0.13092 0.10371 0.31199 0.0
O30 O 0.12247 0.1194 0.35156 0.0
O31 O 0.155 0.10434 0.34135 0.0
H32 H 0.20808 0.14581 0.27343 0.0
H33 H 0.23605 0.1523 0.24263 0.0
H34 H 0.24402 0.0843 0.23361 0.0
H35 H 0.21611 0.07794 0.26429 0.0
H36 H 0.04337 0.17189 0.3388 0.0
H37 H 0.01794 0.16958 0.37291 0.0
H38 H 0.0571 0.12129 0.40758 0.0
H39 H 0.08225 0.12346 0.3729 0.0
La40 La 0.15503 0.91081 0.55558 0.0
La41 La 0.14328 0.86452 0.56391 0.0
C42 C 0.17021 0.94552 0.5397 0.0
C43 C 0.16505 0.96209 0.52132 0.0
C44 C 0.14393 0.96618 0.51405 0.0
C45 C 0.13935 0.98316 0.49801 0.0
C46 C 0.15583 0.99629 0.48893 0.0
C47 C 0.177 0.99163 0.49575 0.0
C48 C 0.18153 0.97475 0.51182 0.0
C49 C 0.11796 0.90484 0.57737 0.0
C50 C 0.13445 0.88393 0.51111 0.0
C51 C 0.12577 0.83115 0.58083 0.0
C52 C 0.1279 0.81483 0.60039 0.0
C53 C 0.11677 0.79559 0.59773 0.0
C54 C 0.11819 0.7797 0.61581 0.0
C55 C 0.13084 0.78264 0.63705 0.0
C56 C 0.14181 0.80213 0.63984 0.0
C57 C 0.14038 0.81809 0.62163 0.0
C58 C 0.18197 0.87076 0.5452 0.0
C59 C 0.16888 0.89047 0.60614 0.0
O60 O 0.15732 0.94402 0.55863 0.0
O61 O 0.17582 0.9268 0.53119 0.0
O62 O 0.13016 0.9212 0.58071 0.0
O63 O 0.1256 0.89344 0.56022 0.0
O64 O 0.14448 0.90128 0.51875 0.0
O65 O 0.12987 0.86804 0.52649 0.0
O66 O 0.1401 0.83108 0.56326 0.0
O67 O 0.12089 0.85052 0.58783 0.0
O68 O 0.17061 0.85372 0.54162 0.0
O69 O 0.17224 0.88207 0.56061 0.0
O70 O 0.15715 0.87346 0.60038 0.0
O71 O 0.17255 0.90576 0.58975 0.0
H72 H 0.13097 0.95653 0.52115 0.0
H73 H 0.12288 0.98631 0.49325 0.0
H74 H 0.19014 1.00104 0.48869 0.0
H75 H 0.19793 0.97177 0.51712 0.0
H76 H 0.10691 0.79284 0.58158 0.0
H77 H 0.10924 0.7651 0.61317 0.0
H78 H 0.15185 0.80488 0.65583 0.0
H79 H 0.14907 0.83287 0.62408 0.0
La80 La 0.36759 0.90271 0.80496 0.0
La81 La 0.41425 0.89385 0.81418 0.0
C82 C 0.332 0.91581 0.78923 0.0
C83 C 0.31468 0.90987 0.77204 0.0
C84 C 0.29354 0.91203 0.78006 0.0
C85 C 0.27657 0.9076 0.76413 0.0
C86 C 0.28033 0.901 0.73967 0.0
C87 C 0.3016 0.89831 0.73181 0.0
C88 C 0.31864 0.90271 0.74785 0.0
C89 C 0.3753 0.86646 0.82788 0.0
C90 C 0.39611 0.88338 0.76112 0.0
C91 C 0.44865 0.87854 0.83139 0.0
C92 C 0.46301 0.87984 0.85302 0.0
C93 C 0.45999 0.89486 0.8719 0.0
C94 C 0.47441 0.89605 0.89175 0.0
C95 C 0.49218 0.88225 0.89307 0.0
C96 C 0.49484 0.86705 0.87417 0.0
C97 C 0.48042 0.86587 0.85444 0.0
C98 C 0.40602 0.93179 0.79433 0.0
C99 C 0.38661 0.91818 0.85557 0.0
O100 O 0.33428 0.90369 0.80873 0.0
O101 O 0.35037 0.92167 0.77982 0.0
O102 O 0.35836 0.87789 0.83079 0.0
O103 O 0.38645 0.87432 0.81058 0.0
O104 O 0.37765 0.89142 0.76845 0.0
O105 O 0.41248 0.88101 0.77647 0.0
O106 O 0.44769 0.89527 0.81697 0.0
O107 O 0.42982 0.87011 0.83499 0.0
O108 O 0.42345 0.92104 0.79072 0.0
O109 O 0.39516 0.92179 0.81001 0.0
O110 O 0.40401 0.90686 0.85049 0.0
O111 O 0.37163 0.92122 0.83865 0.0
H112 H 0.29012 0.91741 0.79868 0.0
H113 H 0.26045 0.90947 0.77099 0.0
H114 H 0.30509 0.89342 0.71305 0.0
H115 H 0.33483 0.90083 0.74124 0.0
H116 H 0.44662 0.90575 0.87118 0.0
H117 H 0.47163 0.9078 0.90605 0.0
H118 H 0.50843 0.8564 0.87419 0.0
H119 H 0.48307 0.85418 0.84002 0.0
La120 La 0.3722 0.11667 0.05513 0.0
La121 La 0.38077 0.16342 0.06514 0.0
C122 C 0.35898 0.08152 1.03829 0.0
C123 C 0.36389 0.06548 1.01916 0.0
C124 C 0.38491 0.05907 1.01402 0.0
C125 C 0.38883 0.04225 0.99757 0.0
C126 C 0.3718 0.03153 0.98597 0.0
C127 C 0.35086 0.03855 0.9906 0.0
C128 C 0.34698 0.05528 1.00705 0.0
C129 C 0.40803 0.12445 0.0787 0.0
C130 C 0.39167 0.14595 1.01196 0.0
C131 C 0.39579 0.19778 0.0827 0.0
C132 C 0.39481 0.21179 0.10461 0.0
C133 C 0.37988 0.20865 0.1236 0.0
C134 C 0.37884 0.22294 0.14356 0.0
C135 C 0.39268 0.24068 0.14488 0.0
C136 C 0.40783 0.24341 0.12592 0.0
C137 C 0.40886 0.22914 0.10608 0.0
C138 C 0.34314 0.15513 0.04475 0.0
C139 C 0.35664 0.13491 0.10606 0.0
O140 O 0.37251 0.0833 0.05661 0.0
O141 O 0.35184 0.10008 1.03078 0.0
O142 O 0.39669 0.10736 0.08133 0.0
O143 O 0.40028 0.13571 0.06142 0.0
O144 O 0.38385 0.12729 1.01899 0.0
O145 O 0.3937 0.16222 1.02747 0.0
O146 O 0.37872 0.19674 0.06885 0.0
O147 O 0.40468 0.17906 0.08559 0.0
O148 O 0.35384 0.17264 1.04139 0.0
O149 O 0.35302 0.14415 0.06045 0.0
O150 O 0.36759 0.15262 0.10117 0.0
O151 O 0.35399 0.11991 0.0891 0.0
H152 H 0.39827 0.06672 1.02314 0.0
H153 H 0.40514 0.03724 0.99453 0.0
H154 H 0.33738 0.03104 0.9816 0.0
H155 H 0.33065 0.06 1.01069 0.0
H156 H 0.36892 0.19532 0.12285 0.0
H157 H 0.36713 0.22011 0.15791 0.0
H158 H 0.41851 0.25699 0.12594 0.0
H159 H 0.42047 0.23189 0.09157 0.0
La160 La 0.15899 0.90522 0.27981 0.0
La161 La 0.11266 0.89418 0.27136 0.0
C162 C 0.19387 0.9196 0.2962 0.0
C163 C 0.2095 0.91482 0.31589 0.0
C164 C 0.21549 0.89378 0.32168 0.0
C165 C 0.23144 0.88985 0.33929 0.0
C166 C 0.24154 0.90686 0.35159 0.0
C167 C 0.23515 0.92785 0.34603 0.0
C168 C 0.21934 0.93176 0.32835 0.0
C169 C 0.15258 0.86805 0.25846 0.0
C170 C 0.13156 0.8855 0.32437 0.0
C171 C 0.07909 0.87732 0.25406 0.0
C172 C 0.06266 0.87977 0.23461 0.0
C173 C 0.0425 0.87074 0.23861 0.0
C174 C 0.0266 0.87208 0.22053 0.0
C175 C 0.03041 0.88256 0.1979 0.0
C176 C 0.05076 0.8915 0.19383 0.0
C177 C 0.06674 0.89015 0.21204 0.0
C178 C 0.11933 0.93291 0.28967 0.0
C179 C 0.1394 0.91885 0.22891 0.0
O180 O 0.19237 0.90579 0.27816 0.0
O181 O 0.17518 0.92668 0.3032 0.0
O182 O 0.16899 0.88014 0.25485 0.0
O183 O 0.14121 0.87592 0.27553 0.0
O184 O 0.14901 0.89533 0.31671 0.0
O185 O 0.11573 0.88091 0.30894 0.0
O186 O 0.07916 0.89133 0.27198 0.0
O187 O 0.09841 0.87236 0.24697 0.0
O188 O 0.10215 0.92179 0.29332 0.0
O189 O 0.13059 0.92297 0.27438 0.0
O190 O 0.12206 0.90769 0.23488 0.0
O191 O 0.15482 0.92226 0.24518 0.0
H192 H 0.20804 0.8804 0.31241 0.0
H193 H 0.23581 0.8735 0.34336 0.0
H194 H 0.24274 0.94133 0.35493 0.0
H195 H 0.21503 0.9481 0.3241 0.0
H196 H 0.03907 0.86248 0.25577 0.0
H197 H 1.01132 0.86469 0.22424 0.0
H198 H 0.05423 0.89986 0.17676 0.0
H199 H 0.08222 0.89719 0.2085 0.0
La200 La 0.37178 0.90777 0.53236 0.0
La201 La 0.38098 0.86141 0.52164 0.0
C202 C 0.35823 0.94243 0.54999 0.0
C203 C 0.36336 0.95792 0.56964 0.0
C204 C 0.38431 0.96513 0.57375 0.0
C205 C 0.38834 0.98115 0.59119 0.0
C206 C 0.37154 0.9901 0.60494 0.0
C207 C 0.3507 0.98246 0.60109 0.0
C208 C 0.34667 0.96658 0.5836 0.0
C209 C 0.4081 0.90087 0.50943 0.0
C210 C 0.39153 0.87832 0.57519 0.0
C211 C 0.39625 0.82812 0.50195 0.0
C212 C 0.39319 0.81394 0.48021 0.0
C213 C 0.37449 0.80187 0.47701 0.0
C214 C 0.37281 0.78718 0.45758 0.0
C215 C 0.38974 0.78418 0.44079 0.0
C216 C 0.40826 0.79662 0.44378 0.0
C217 C 0.40997 0.81126 0.46327 0.0
C218 C 0.34297 0.86873 0.54145 0.0
C219 C 0.35621 0.89012 0.48112 0.0
O220 O 0.3716 0.94115 0.53148 0.0
O221 O 0.35124 0.92368 0.55702 0.0
O222 O 0.39652 0.91779 0.50687 0.0
O223 O 0.40028 0.88923 0.52632 0.0
O224 O 0.38317 0.89682 0.56847 0.0
O225 O 0.39415 0.86239 0.55931 0.0
O226 O 0.38162 0.82796 0.51922 0.0
O227 O 0.40338 0.84739 0.49763 0.0
O228 O 0.35366 0.85114 0.5442 0.0
O229 O 0.35298 0.88015 0.52632 0.0
O230 O 0.36697 0.87228 0.48597 0.0
O231 O 0.35381 0.90509 0.49813 0.0
H232 H 0.3975 0.95864 0.56326 0.0
H233 H 0.4046 0.98652 0.59392 0.0
H234 H 0.33736 0.98917 0.61114 0.0
H235 H 0.3304 0.96134 0.58063 0.0
H236 H 0.3613 0.8034 0.48981 0.0
H237 H 0.3584 0.77772 0.4562 0.0
H238 H 0.42152 0.79503 0.4311 0.0
H239 H 0.42461 0.82027 0.46534 0.0
La240 La 0.36686 0.12153 0.78309 0.0
La241 La 0.41343 0.13086 0.77299 0.0
C242 C 0.3316 0.10808 0.79931 0.0
C243 C 0.3141 0.11447 0.81598 0.0
C244 C 0.29307 0.11293 0.80733 0.0
C245 C 0.27591 0.11787 0.82274 0.0
C246 C 0.27936 0.12435 0.8473 0.0
C247 C 0.30052 0.12638 0.85582 0.0
C248 C 0.31775 0.1215 0.84029 0.0
C249 C 0.37389 0.15781 0.76001 0.0
C250 C 0.39579 0.14127 0.82629 0.0
C251 C 0.44746 0.14653 0.75527 0.0
C252 C 0.46149 0.14548 0.73335 0.0
C253 C 0.45866 0.13011 0.71479 0.0
C254 C 0.47289 0.12905 0.69477 0.0
C255 C 0.49027 0.14331 0.69295 0.0
C256 C 0.49267 0.15891 0.71147 0.0
C257 C 0.47844 0.15996 0.73137 0.0
C258 C 0.40575 0.09291 0.79319 0.0
C259 C 0.3855 0.10613 0.73228 0.0
O260 O 0.33366 0.11931 0.77907 0.0
O261 O 0.35008 0.10312 0.80916 0.0
O262 O 0.35688 0.14637 0.75767 0.0
O263 O 0.38544 0.14999 0.77697 0.0
O264 O 0.37729 0.13305 0.81931 0.0
O265 O 0.41197 0.14372 0.8107 0.0
O266 O 0.44682 0.12969 0.76954 0.0
O267 O 0.42854 0.15488 0.75213 0.0
O268 O 0.42319 0.10378 0.79635 0.0
O269 O 0.39459 0.10279 0.77768 0.0
O270 O 0.40281 0.11775 0.73688 0.0
O271 O 0.37091 0.10287 0.74959 0.0
H272 H 0.28988 0.10765 0.78861 0.0
H273 H 0.2599 0.11649 0.81539 0.0
H274 H 0.30377 0.13115 0.87468 0.0
H275 H 0.33384 0.12291 0.84741 0.0
H276 H 0.44564 0.11882 0.71594 0.0
H277 H 0.47031 0.11699 0.68077 0.0
H278 H 0.50596 0.16993 0.71106 0.0
H279 H 0.48093 0.17193 0.74553 0.0
La280 La 0.15353 0.11665 1.03004 0.0
La281 La 0.14394 0.16345 1.02279 0.0
C282 C 0.16707 0.08098 0.04506 0.0
C283 C 0.16223 0.06469 0.06396 0.0
C284 C 0.14118 0.05978 0.07081 0.0
C285 C 0.13705 0.04291 0.08719 0.0
C286 C 0.1539 0.0307 0.09703 0.0
C287 C 0.17497 0.03622 0.09065 0.0
C288 C 0.17905 0.05298 0.07426 0.0
C289 C 0.11712 0.12464 1.00769 0.0
C290 C 0.13419 0.14378 0.07509 0.0
C291 C 0.12899 0.19816 1.00619 0.0
C292 C 0.13166 0.21364 0.98555 0.0
C293 C 0.13924 0.23425 0.99066 0.0
C294 C 0.13989 0.24988 0.97215 0.0
C295 C 0.13281 0.24539 0.948 0.0
C296 C 0.12566 0.22457 0.94273 0.0
C297 C 0.12503 0.2089 0.96129 0.0
C298 C 0.18219 0.15507 1.04164 0.0
C299 C 0.16793 0.13695 0.97987 0.0
O300 O 0.1531 0.08334 1.02729 0.0
O301 O 0.17455 0.09928 0.05288 0.0
O302 O 0.12881 0.10799 1.00389 0.0
O303 O 0.12489 0.13531 1.02544 0.0
O304 O 0.14332 0.12608 0.06704 0.0
O305 O 0.13044 0.16016 0.06013 0.0
O306 O 0.14432 0.19703 1.02257 0.0
O307 O 0.1211 0.17933 1.00107 0.0
O308 O 0.17131 0.17225 0.04613 0.0
O309 O 0.17216 0.14461 1.02566 0.0
O310 O 0.15688 0.1543 0.98601 0.0
O311 O 0.17114 0.12134 0.99595 0.0
H312 H 0.12791 0.06866 0.06312 0.0
H313 H 0.12064 0.03909 0.09158 0.0
H314 H 0.18838 0.02755 0.0983 0.0
H315 H 0.19541 0.05658 0.06929 0.0
H316 H 0.1443 0.23846 1.00919 0.0
H317 H 0.14587 0.26556 0.97686 0.0
H318 H 0.11991 0.22054 0.92444 0.0
H319 H 0.1189 0.19324 0.95671 0.0
La320 La 0.91302 0.89421 0.77193 0.0
La321 La 0.86672 0.90509 0.78087 0.0
C322 C 0.94631 0.8781 0.75315 0.0
C323 C 0.96185 0.88163 0.73272 0.0
C324 C 0.97745 0.8977 0.73412 0.0
C325 C 0.99337 0.89935 0.71603 0.0
C326 C 0.99419 0.88495 0.69608 0.0
C327 C 0.97821 0.86925 0.69431 0.0
C328 C 0.96232 0.86755 0.71248 0.0
C329 C 0.9065 0.93275 0.79061 0.0
C330 C 0.88586 0.91925 0.73 0.0
C331 C 0.83191 0.91926 0.79755 0.0
C332 C 0.81632 0.91431 0.81718 0.0
C333 C 0.81042 0.89322 0.82284 0.0
C334 C 0.79445 0.88914 0.84035 0.0
C335 C 0.78426 0.90606 0.85268 0.0
C336 C 0.79057 0.92711 0.84727 0.0
C337 C 0.8064 0.93116 0.82968 0.0
C338 C 0.87319 0.86809 0.75917 0.0
C339 C 0.89455 0.88504 0.82501 0.0
O340 O 0.94643 0.89149 0.77172 0.0
O341 O 0.9269 0.87252 0.747 0.0
O342 O 0.92373 0.92164 0.79402 0.0
O343 O 0.89506 0.92291 0.77537 0.0
O344 O 0.90324 0.90805 0.7357 0.0
O345 O 0.87057 0.92248 0.74644 0.0
O346 O 0.83335 0.90561 0.77936 0.0
O347 O 0.85062 0.92628 0.80462 0.0
O348 O 0.85671 0.8801 0.75567 0.0
O349 O 0.88452 0.87595 0.77627 0.0
O350 O 0.87702 0.89489 0.81757 0.0
O351 O 0.91032 0.88063 0.80942 0.0
H352 H 0.97768 0.9088 0.74945 0.0
H353 H 1.00519 0.91186 0.71781 0.0
H354 H 0.97841 0.85778 0.67936 0.0
H355 H 0.95069 0.85483 0.71101 0.0
H356 H 0.81794 0.87992 0.81352 0.0
H357 H 0.79014 0.87276 0.84432 0.0
H358 H 0.78291 0.94051 0.85621 0.0
H359 H 0.81064 0.94754 0.82553 0.0
La360 La 0.88206 0.16305 0.52181 0.0
La361 La 0.8727 0.11644 0.52928 0.0
C362 C 0.89739 0.19779 0.50551 0.0
C363 C 0.89567 0.21261 0.48433 0.0
C364 C 0.88049 0.20975 0.46555 0.0
C365 C 0.87905 0.22442 0.44595 0.0
C366 C 0.89276 0.24226 0.44478 0.0
C367 C 0.90807 0.24481 0.46361 0.0
C368 C 0.9095 0.23015 0.4831 0.0
C369 C 0.84359 0.15459 0.53989 0.0
C370 C 0.85887 0.13603 0.47857 0.0
C371 C 0.85928 0.08079 0.54453 0.0
C372 C 0.86387 0.06485 0.56393 0.0
C373 C 0.88486 0.05944 0.57061 0.0
C374 C 0.8887 0.04279 0.58736 0.0
C375 C 0.87163 0.03126 0.59779 0.0
C376 C 0.85065 0.0373 0.59163 0.0
C377 C 0.84684 0.05384 0.57485 0.0
C378 C 0.90942 0.1244 0.50765 0.0
C379 C 0.89109 0.144 0.57457 0.0
O380 O 0.881 0.19659 0.52039 0.0
O381 O 0.90556 0.17899 0.50106 0.0
O382 O 0.85455 0.17157 0.5451 0.0
O383 O 0.85381 0.14416 0.52405 0.0
O384 O 0.86957 0.15359 0.48483 0.0
O385 O 0.85573 0.12046 0.49469 0.0
O386 O 0.87363 0.08311 0.52719 0.0
O387 O 0.85129 0.09908 0.55165 0.0
O388 O 0.89776 0.10775 0.50368 0.0
O389 O 0.90139 0.13512 0.5252 0.0
O390 O 0.88223 0.12618 0.56644 0.0
O391 O 0.8949 0.16032 0.55955 0.0
H392 H 0.8697 0.19628 0.46612 0.0
H393 H 0.86722 0.22173 0.4317 0.0
H394 H 0.91866 0.25846 0.4637 0.0
H395 H 0.92131 0.23268 0.49744 0.0
H396 H 0.89829 0.06775 0.56247 0.0
H397 H 0.90505 0.03856 0.59156 0.0
H398 H 0.83709 0.02916 0.59971 0.0
H399 H 0.83054 0.0578 0.57004 0.0
La400 La 0.61353 0.13214 0.27248 0.0
La401 La 0.65998 0.12167 0.28032 0.0
C402 C 0.57981 0.14825 0.25465 0.0
C403 C 0.56411 0.14531 0.23423 0.0
C404 C 0.54705 0.13088 0.23661 0.0
C405 C 0.53097 0.12995 0.21865 0.0
C406 C 0.53139 0.14348 0.19784 0.0
C407 C 0.54876 0.15752 0.19511 0.0
C408 C 0.56484 0.1585 0.21315 0.0
C409 C 0.62062 0.09372 0.29143 0.0
C410 C 0.63987 0.10694 0.23018 0.0
C411 C 0.69571 0.10847 0.29554 0.0
C412 C 0.71208 0.11415 0.3141 0.0
C413 C 0.73308 0.11787 0.30619 0.0
C414 C 0.74919 0.12248 0.32326 0.0
C415 C 0.74468 0.12338 0.3487 0.0
C416 C 0.72354 0.11994 0.35659 0.0
C417 C 0.70741 0.11534 0.33948 0.0
C418 C 0.65271 0.15838 0.25816 0.0
C419 C 0.63281 0.1414 0.32513 0.0
O420 O 0.58006 0.13411 0.2725 0.0
O421 O 0.59907 0.15446 0.24868 0.0
O422 O 0.60349 0.10487 0.29527 0.0
O423 O 0.63172 0.1035 0.27578 0.0
O424 O 0.6226 0.11821 0.23609 0.0
O425 O 0.65539 0.1038 0.24638 0.0
O426 O 0.69334 0.12186 0.2772 0.0
O427 O 0.67738 0.10106 0.30347 0.0
O428 O 0.66902 0.14631 0.25414 0.0
O429 O 0.64193 0.15069 0.27584 0.0
O430 O 0.65035 0.13181 0.31731 0.0
O431 O 0.6167 0.14557 0.3099 0.0
H432 H 0.54582 0.12058 0.25264 0.0
H433 H 0.51805 0.11868 0.2212 0.0
H434 H 0.54955 0.1683 0.17948 0.0
H435 H 0.57757 0.17003 0.2109 0.0
H436 H 0.73711 0.1169 0.28674 0.0
H437 H 0.76531 0.12471 0.31655 0.0
H438 H 0.71947 0.12073 0.37603 0.0
H439 H 0.69138 0.11251 0.34615 0.0
La440 La 0.64414 0.86148 1.02196 0.0
La441 La 0.65396 0.90789 1.03245 0.0
C442 C 0.62766 0.82818 1.00355 0.0
C443 C 0.63002 0.812 0.98383 0.0
C444 C 0.62144 0.79164 0.98787 0.0
C445 C 0.6227 0.7759 0.96964 0.0
C446 C 0.63265 0.78005 0.9468 0.0
C447 C 0.64113 0.80061 0.94267 0.0
C448 C 0.63986 0.81644 0.96104 0.0
C449 C 0.68241 0.86832 1.04153 0.0
C450 C 0.66923 0.88958 0.98131 0.0
C451 C 0.66802 0.94264 0.0495 0.0
C452 C 0.66295 0.9589 0.06829 0.0
C453 C 0.64181 0.96394 0.07464 0.0
C454 C 0.63751 0.98092 0.09074 0.0
C455 C 0.65427 0.99315 0.10076 0.0
C456 C 0.6754 0.98748 0.09493 0.0
C457 C 0.67966 0.97059 0.07884 0.0
C458 C 0.61753 0.9011 1.00955 0.0
C459 C 0.63366 0.87906 0.07532 0.0
O460 O 0.64169 0.82796 1.02147 0.0
O461 O 0.62255 0.84761 0.99693 0.0
O462 O 0.67161 0.85076 0.044 0.0
O463 O 0.67243 0.87999 1.02661 0.0
O464 O 0.65826 0.87188 0.98621 0.0
O465 O 0.6719 0.90457 0.99828 0.0
O466 O 0.65496 0.94123 1.03069 0.0
O467 O 0.67424 0.92389 0.05743 0.0
O468 O 0.62917 0.91798 1.00694 0.0
O469 O 0.62533 0.88958 1.02654 0.0
O470 O 0.64247 0.89735 0.06863 0.0
O471 O 0.63071 0.86318 0.05945 0.0
H472 H 0.6136 0.78792 1.0052 0.0
H473 H 0.61564 0.76046 0.97342 0.0
H474 H 0.64907 0.80435 0.92542 0.0
H475 H 0.64655 0.83207 0.95746 0.0
H476 H 0.62864 0.95508 0.06672 0.0
H477 H 0.62106 0.98486 0.09475 0.0
H478 H 0.68873 0.99618 0.10272 0.0
H479 H 0.69608 0.96691 0.07424 0.0
La480 La 0.91163 0.13232 0.81457 0.0
La481 La 0.86534 0.12047 0.80574 0.0
C482 C 0.94473 0.14931 0.83289 0.0
C483 C 0.96057 0.14645 0.8532 0.0
C484 C 0.97824 0.13288 0.85026 0.0
C485 C 0.99436 0.13209 0.86818 0.0
C486 C 0.99338 0.14491 0.88952 0.0
C487 C 0.97542 0.15807 0.89279 0.0
C488 C 0.95929 0.15892 0.87479 0.0
C489 C 0.90566 0.09364 0.79599 0.0
C490 C 0.88512 0.10687 0.85661 0.0
C491 C 0.83077 0.10523 0.78957 0.0
C492 C 0.81423 0.1103 0.77112 0.0
C493 C 0.81008 0.13138 0.76375 0.0
C494 C 0.79306 0.13587 0.74775 0.0
C495 C 0.77992 0.11934 0.73883 0.0
C496 C 0.78465 0.0982 0.74574 0.0
C497 C 0.80158 0.09376 0.76176 0.0
C498 C 0.87122 0.15764 0.82732 0.0
C499 C 0.89265 0.14102 0.76151 0.0
O500 O 0.945 0.13564 0.81459 0.0
O501 O 0.92525 0.15458 0.83906 0.0
O502 O 0.92275 0.10499 0.79261 0.0
O503 O 0.89409 0.10332 0.8112 0.0
O504 O 0.90225 0.11847 0.85091 0.0
O505 O 0.86995 0.10315 0.84012 0.0
O506 O 0.83213 0.11814 0.80849 0.0
O507 O 0.84956 0.0997 0.78118 0.0
O508 O 0.85477 0.14553 0.83055 0.0
O509 O 0.8827 0.14984 0.81037 0.0
O510 O 0.87526 0.13096 0.76903 0.0
O511 O 0.90844 0.14567 0.77701 0.0
H512 H 0.97991 0.12317 0.83383 0.0
H513 H 1.00774 0.12148 0.86519 0.0
H514 H 0.97417 0.1683 0.90885 0.0
H515 H 0.94607 0.16979 0.87749 0.0
H516 H 0.81971 0.1444 0.77076 0.0
H517 H 0.78985 0.15233 0.74292 0.0
H518 H 0.77524 0.08501 0.7388 0.0
H519 H 0.8046 0.07738 0.76715 0.0
La520 La 0.64417 0.16226 0.56492 0.0
La521 La 0.65374 0.11576 0.55762 0.0
C522 C 0.62922 0.1966 0.58247 0.0
C523 C 0.63198 0.21111 0.60401 0.0
C524 C 0.65055 0.22341 0.60713 0.0
C525 C 0.65206 0.2383 0.62638 0.0
C526 C 0.63507 0.24132 0.64309 0.0
C527 C 0.61665 0.22871 0.64016 0.0
C528 C 0.61512 0.21387 0.62085 0.0
C529 C 0.68274 0.1541 0.54702 0.0
C530 C 0.66745 0.13522 0.60829 0.0
C531 C 0.66673 0.0801 0.54208 0.0
C532 C 0.66222 0.0649 0.52186 0.0
C533 C 0.64127 0.05881 0.51576 0.0
C534 C 0.63758 0.04309 0.49786 0.0
C535 C 0.65475 0.03331 0.48556 0.0
C536 C 0.67565 0.03982 0.49135 0.0
C537 C 0.67932 0.0554 0.50935 0.0
C538 C 0.61704 0.1236 0.57931 0.0
C539 C 0.63539 0.14342 0.51222 0.0
O540 O 0.64453 0.19579 0.56606 0.0
O541 O 0.62114 0.17772 0.58687 0.0
O542 O 0.67172 0.17105 0.54181 0.0
O543 O 0.67255 0.14356 0.56283 0.0
O544 O 0.65688 0.15279 0.6018 0.0
O545 O 0.67055 0.11952 0.59238 0.0
O546 O 0.65194 0.08243 0.5589 0.0
O547 O 0.67556 0.0983 0.53598 0.0
O548 O 0.62888 0.10713 0.58354 0.0
O549 O 0.62494 0.13427 0.5616 0.0
O550 O 0.64457 0.12576 0.52037 0.0
O551 O 0.63113 0.15956 0.5273 0.0
H552 H 0.6638 0.22188 0.59442 0.0
H553 H 0.66639 0.24788 0.6277 0.0
H554 H 0.60334 0.23031 0.65276 0.0
H555 H 0.60055 0.20472 0.61885 0.0
H556 H 0.62775 0.06597 0.52505 0.0
H557 H 0.6213 0.03863 0.4936 0.0
H558 H 0.68924 0.03246 0.48243 0.0
H559 H 0.69559 0.05975 0.51383 0.0
La560 La 0.61139 0.8947 0.31422 0.0
La561 La 0.65786 0.90421 0.30394 0.0
C562 C 0.57774 0.87858 0.33235 0.0
C563 C 0.56277 0.88046 0.35334 0.0
C564 C 0.54404 0.86824 0.35308 0.0
C565 C 0.52946 0.8694 0.37262 0.0
C566 C 0.53325 0.88285 0.39299 0.0
C567 C 0.55217 0.89507 0.39321 0.0
C568 C 0.56681 0.89386 0.37358 0.0
C569 C 0.61867 0.93277 0.2944 0.0
C570 C 0.63939 0.91962 0.35491 0.0
C571 C 0.69305 0.91776 0.28758 0.0
C572 C 0.71048 0.91158 0.27069 0.0
C573 C 0.73157 0.91393 0.27887 0.0
C574 C 0.74864 0.90921 0.26325 0.0
C575 C 0.74504 0.90214 0.23893 0.0
C576 C 0.72383 0.8993 0.2309 0.0
C577 C 0.70669 0.90397 0.24665 0.0
C578 C 0.65086 0.86758 0.32639 0.0
C579 C 0.62893 0.88445 0.26081 0.0
O580 O 0.57783 0.89406 0.31612 0.0
O581 O 0.59703 0.8719 0.33737 0.0
O582 O 0.60112 0.92202 0.29163 0.0
O583 O 0.63011 0.92286 0.30959 0.0
O584 O 0.6219 0.90831 0.35017 0.0
O585 O 0.65414 0.92261 0.33773 0.0
O586 O 0.6911 0.90631 0.30767 0.0
O587 O 0.67452 0.92279 0.27793 0.0
O588 O 0.66784 0.87902 0.32897 0.0
O589 O 0.63936 0.87564 0.30958 0.0
O590 O 0.6473 0.89302 0.26763 0.0
O591 O 0.61295 0.8816 0.27659 0.0
H592 H 0.54061 0.8578 0.33762 0.0
H593 H 0.51496 0.86005 0.37148 0.0
H594 H 0.55576 0.90546 0.40864 0.0
H595 H 0.58123 0.90335 0.37421 0.0
H596 H 0.73486 0.91966 0.29739 0.0
H597 H 0.76471 0.91122 0.27023 0.0
H598 H 0.72046 0.89405 0.21224 0.0
H599 H 0.69054 0.90193 0.23992 0.0
La600 La 0.88229 0.86306 0.0646 0.0
La601 La 0.87077 0.90936 0.05554 0.0
C602 C 0.89961 0.82983 0.08223 0.0
C603 C 0.89745 0.81333 0.10169 0.0
C604 C 0.90647 0.79321 0.09748 0.0
C605 C 0.90543 0.77723 0.11552 0.0
C606 C 0.89527 0.78092 0.13833 0.0
C607 C 0.88633 0.80123 0.14262 0.0
C608 C 0.88738 0.81729 0.12445 0.0
C609 C 0.84357 0.86918 0.04584 0.0
C610 C 0.85683 0.88964 0.10636 0.0
C611 C 0.85579 0.94399 1.03915 0.0
C612 C 0.86083 0.96041 1.0205 0.0
C613 C 0.88195 0.96508 1.01372 0.0
C614 C 0.88633 0.98202 0.99753 0.0
C615 C 0.86965 0.99455 0.9878 0.0
C616 C 0.84851 0.98927 0.99411 0.0
C617 C 0.84418 0.97244 1.01033 0.0
C618 C 0.90776 0.9034 0.07761 0.0
C619 C 0.89141 0.88203 1.01156 0.0
O620 O 0.88567 0.8296 0.06421 0.0
O621 O 0.90422 0.84926 0.08928 0.0
O622 O 0.85482 0.85202 1.04266 0.0
O623 O 0.85339 0.88074 0.06096 0.0
O624 O 0.86844 0.87249 0.10087 0.0
O625 O 0.85324 0.90476 0.08975 0.0
O626 O 0.86879 0.94262 0.05802 0.0
O627 O 0.85 0.9252 1.03097 0.0
O628 O 0.89563 0.91985 0.08067 0.0
O629 O 0.90008 0.8919 0.06055 0.0
O630 O 0.88141 0.89946 1.01893 0.0
O631 O 0.89582 0.86622 1.02714 0.0
H632 H 0.9145 0.78985 0.08018 0.0
H633 H 0.91282 0.76199 0.11163 0.0
H634 H 0.8782 0.80461 0.15984 0.0
H635 H 0.88035 0.83273 0.12816 0.0
H636 H 0.89507 0.95594 1.02134 0.0
H637 H 0.90279 0.98564 0.99318 0.0
H638 H 0.83522 0.99819 0.98656 0.0
H639 H 0.82777 0.96902 1.01524 0.0
La640 La 0.65854 0.62169 0.80243 0.0
La641 La 0.61222 0.63153 0.81291 0.0
C642 C 0.69301 0.60733 0.78517 0.0
C643 C 0.70885 0.61232 0.76588 0.0
C644 C 0.71483 0.63342 0.7604 0.0
C645 C 0.73115 0.6375 0.74335 0.0
C646 C 0.74163 0.62057 0.73137 0.0
C647 C 0.73522 0.59953 0.73659 0.0
C648 C 0.71903 0.59547 0.75369 0.0
C649 C 0.65216 0.65806 0.82541 0.0
C650 C 0.62957 0.64179 0.75946 0.0
C651 C 0.57861 0.64761 0.83105 0.0
C652 C 0.56433 0.64585 0.85263 0.0
C653 C 0.5674 0.63037 0.87106 0.0
C654 C 0.55312 0.62881 0.89097 0.0
C655 C 0.53547 0.6427 0.89281 0.0
C656 C 0.53275 0.65834 0.87436 0.0
C657 C 0.54702 0.65988 0.85456 0.0
C658 C 0.61928 0.59334 0.79326 0.0
C659 C 0.64037 0.60689 0.85377 0.0
O660 O 0.69187 0.62056 0.80382 0.0
O661 O 0.67416 0.601 0.7777 0.0
O662 O 0.66899 0.64631 0.82776 0.0
O663 O 0.64037 0.65041 0.80854 0.0
O664 O 0.64799 0.63336 0.76629 0.0
O665 O 0.61355 0.64446 0.7752 0.0
O666 O 0.57875 0.63158 0.8156 0.0
O667 O 0.59782 0.65495 0.83513 0.0
O668 O 0.6019 0.6043 0.79018 0.0
O669 O 0.63068 0.60326 0.80847 0.0
O670 O 0.6228 0.61805 0.84889 0.0
O671 O 0.65521 0.60391 0.83671 0.0
H672 H 0.7071 0.6467 0.76953 0.0
H673 H 0.73555 0.65388 0.73951 0.0
H674 H 0.74312 0.58611 0.72793 0.0
H675 H 0.71473 0.57909 0.75776 0.0
H676 H 0.58071 0.61942 0.86993 0.0
H677 H 0.55591 0.61672 0.90492 0.0
H678 H 0.51923 0.66907 0.8748 0.0
H679 H 0.54436 0.67192 0.84049 0.0
La680 La 0.65317 0.40769 0.05281 0.0
La681 La 0.64326 0.36129 0.06356 0.0
C682 C 0.66755 0.44213 1.03533 0.0
C683 C 0.66275 0.45784 1.01579 0.0
C684 C 0.64177 0.4644 1.01064 0.0
C685 C 0.63792 0.48062 0.99335 0.0
C686 C 0.65497 0.49041 0.98077 0.0
C687 C 0.67588 0.48342 0.98566 0.0
C688 C 0.6797 0.46734 1.003 0.0
C689 C 0.61683 0.40124 0.07582 0.0
C690 C 0.63304 0.37858 1.01002 0.0
C691 C 0.62706 0.32779 0.08193 0.0
C692 C 0.62879 0.31349 0.10355 0.0
C693 C 0.64431 0.31648 0.12192 0.0
C694 C 0.64585 0.30216 0.14183 0.0
C695 C 0.6319 0.28454 0.14372 0.0
C696 C 0.61621 0.28191 0.12534 0.0
C697 C 0.61468 0.29622 0.10554 0.0
C698 C 0.68143 0.36835 0.04386 0.0
C699 C 0.66799 0.38957 0.10423 0.0
O700 O 0.65414 0.44104 0.05383 0.0
O701 O 0.67405 0.42325 1.02818 0.0
O702 O 0.62854 0.4181 0.07816 0.0
O703 O 0.62451 0.38948 0.05899 0.0
O704 O 0.64151 0.39702 1.01674 0.0
O705 O 0.63034 0.36259 1.02584 0.0
O706 O 0.64304 0.32783 0.06639 0.0
O707 O 0.61983 0.34704 0.08597 0.0
O708 O 0.67051 0.35092 1.04093 0.0
O709 O 0.67148 0.37978 0.05898 0.0
O710 O 0.65684 0.37197 0.09944 0.0
O711 O 0.67091 0.40443 0.08713 0.0
H712 H 0.62839 0.45722 1.02022 0.0
H713 H 0.62163 0.48547 0.98978 0.0
H714 H 0.68939 0.49077 0.97653 0.0
H715 H 0.696 0.46259 1.0068 0.0
H716 H 0.65532 0.32975 0.12074 0.0
H717 H 0.65799 0.30489 0.15572 0.0
H718 H 0.60543 0.26842 0.12582 0.0
H719 H 0.60261 0.29362 0.09152 0.0
La720 La 0.86665 0.40339 0.30421 0.0
La721 La 0.91298 0.39385 0.31492 0.0
C722 C 0.83204 0.41719 0.28656 0.0
C723 C 0.8165 0.41229 0.26687 0.0
C724 C 0.80988 0.39129 0.2619 0.0
C725 C 0.79378 0.38739 0.24448 0.0
C726 C 0.78416 0.40438 0.23162 0.0
C727 C 0.79121 0.4253 0.23633 0.0
C728 C 0.80717 0.42919 0.25379 0.0
C729 C 0.8734 0.3672 0.32755 0.0
C730 C 0.89583 0.38295 0.26169 0.0
C731 C 0.94624 0.37844 0.33457 0.0
C732 C 0.96062 0.38166 0.3561 0.0
C733 C 0.97343 0.39997 0.35833 0.0
C734 C 0.98828 0.40175 0.37759 0.0
C735 C 0.99074 0.38528 0.39515 0.0
C736 C 0.97758 0.36717 0.39313 0.0
C737 C 0.96276 0.36537 0.37381 0.0
C738 C 0.90588 0.43193 0.29491 0.0
C739 C 0.88465 0.4189 0.35532 0.0
O740 O 0.83327 0.40367 0.30497 0.0
O741 O 0.85083 0.42411 0.27959 0.0
O742 O 0.85658 0.37892 0.3301 0.0
O743 O 0.88498 0.37482 0.3105 0.0
O744 O 0.87747 0.39169 0.26822 0.0
O745 O 0.91171 0.38021 0.27762 0.0
O746 O 0.94642 0.39283 0.31699 0.0
O747 O 0.92693 0.37158 0.33921 0.0
O748 O 0.92338 0.42108 0.29221 0.0
O749 O 0.89443 0.422 0.31007 0.0
O750 O 0.90232 0.40788 0.35053 0.0
O751 O 0.86967 0.42147 0.3383 0.0
H752 H 0.8169 0.37795 0.2717 0.0
H753 H 0.78889 0.37109 0.24106 0.0
H754 H 0.78399 0.43878 0.22698 0.0
H755 H 0.81195 0.4455 0.25745 0.0
H756 H 0.97234 0.41277 0.34492 0.0
H757 H 0.99831 0.4158 0.37823 0.0
H758 H 0.97875 0.35429 0.40642 0.0
H759 H 0.95319 0.35102 0.37248 0.0
La760 La 0.8739 0.61795 0.55508 0.0
La761 La 0.88212 0.66455 0.56424 0.0
C762 C 0.86084 0.58265 0.53861 0.0
C763 C 0.86527 0.56733 0.51854 0.0
C764 C 0.88609 0.56036 0.51322 0.0
C765 C 0.88952 0.54437 0.49559 0.0
C766 C 0.87224 0.53519 0.48285 0.0
C767 C 0.85151 0.54261 0.48785 0.0
C768 C 0.84809 0.55846 0.50554 0.0
C769 C 0.91003 0.62603 0.57783 0.0
C770 C 0.89258 0.64702 0.5112 0.0
C771 C 0.89637 0.69882 0.58268 0.0
C772 C 0.8936 0.71273 0.6047 0.0
C773 C 0.87499 0.72487 0.60819 0.0
C774 C 0.87349 0.73935 0.62783 0.0
C775 C 0.89054 0.7421 0.64454 0.0
C776 C 0.90898 0.72962 0.64126 0.0
C777 C 0.9105 0.71517 0.62156 0.0
C778 C 0.84397 0.65573 0.54534 0.0
C779 C 0.85904 0.63611 0.60622 0.0
O780 O 0.87536 0.5846 0.55586 0.0
O781 O 0.85252 0.60104 0.53229 0.0
O782 O 0.89867 0.60902 0.58099 0.0
O783 O 0.9021 0.63712 0.56047 0.0
O784 O 0.88464 0.62848 0.51849 0.0
O785 O 0.89501 0.66328 0.52662 0.0
O786 O 0.8808 0.69798 0.56658 0.0
O787 O 0.90503 0.68008 0.5863 0.0
O788 O 0.85453 0.67317 0.54102 0.0
O789 O 0.85439 0.64513 0.56089 0.0
O790 O 0.86922 0.6541 0.60057 0.0
O791 O 0.85671 0.62069 0.58973 0.0
H792 H 0.89966 0.567 0.52293 0.0
H793 H 0.90569 0.53918 0.49194 0.0
H794 H 0.83783 0.53572 0.47859 0.0
H795 H 0.8319 0.56348 0.50947 0.0
H796 H 0.86172 0.72357 0.59545 0.0
H797 H 0.85916 0.74887 0.62942 0.0
H798 H 0.92233 0.73104 0.65387 0.0
H799 H 0.92509 0.70614 0.61927 0.0
La800 La 0.65853 0.40366 0.7816 0.0
La801 La 0.61231 0.39365 0.77113 0.0
C802 C 0.69301 0.41794 0.79906 0.0
C803 C 0.70858 0.41309 0.81873 0.0
C804 C 0.71527 0.39212 0.82372 0.0
C805 C 0.73131 0.38824 0.84122 0.0
C806 C 0.74079 0.40524 0.85416 0.0
C807 C 0.73368 0.42614 0.84943 0.0
C808 C 0.71778 0.43 0.83187 0.0
C809 C 0.6521 0.36699 0.75918 0.0
C810 C 0.62962 0.3834 0.82454 0.0
C811 C 0.57909 0.37772 0.75195 0.0
C812 C 0.56379 0.38095 0.73127 0.0
C813 C 0.54859 0.39742 0.73183 0.0
C814 C 0.53267 0.39867 0.71372 0.0
C815 C 0.53149 0.38349 0.69459 0.0
C816 C 0.54713 0.36744 0.69357 0.0
C817 C 0.56302 0.36613 0.71178 0.0
C818 C 0.61911 0.43211 0.79022 0.0
C819 C 0.64046 0.41826 0.73013 0.0
O820 O 0.6919 0.40448 0.78063 0.0
O821 O 0.67416 0.42462 0.80607 0.0
O822 O 0.66889 0.37876 0.75652 0.0
O823 O 0.64039 0.37482 0.77596 0.0
O824 O 0.64785 0.39237 0.81788 0.0
O825 O 0.61385 0.38023 0.80859 0.0
O826 O 0.57889 0.39145 0.77018 0.0
O827 O 0.59851 0.37189 0.7462 0.0
O828 O 0.60165 0.42124 0.79302 0.0
O829 O 0.63066 0.42203 0.77533 0.0
O830 O 0.62283 0.40729 0.73524 0.0
O831 O 0.65546 0.42117 0.74705 0.0
H832 H 0.70833 0.37877 0.81388 0.0
H833 H 0.73626 0.37195 0.84466 0.0
H834 H 0.7408 0.43962 0.85885 0.0
H835 H 0.71293 0.4463 0.82821 0.0
H836 H 0.54863 0.40909 0.74658 0.0
H837 H 0.52109 0.41145 0.71485 0.0
H838 H 0.54663 0.3554 0.67924 0.0
H839 H 0.57436 0.35311 0.711 0.0
La840 La 0.87091 0.40777 1.03419 0.0
La841 La 0.88095 0.36159 1.02298 0.0
C842 C 0.8563 0.44201 0.05182 0.0
C843 C 0.86155 0.45838 0.07038 0.0
C844 C 0.88274 0.46411 0.07564 0.0
C845 C 0.88712 0.4812 0.09155 0.0
C846 C 0.87037 0.49283 0.10246 0.0
C847 C 0.84922 0.48646 0.09774 0.0
C848 C 0.84489 0.46947 0.08183 0.0
C849 C 0.90771 0.40167 1.01193 0.0
C850 C 0.89135 0.37846 0.07659 0.0
C851 C 0.89683 0.32861 1.00328 0.0
C852 C 0.89333 0.31333 0.98265 0.0
C853 C 0.87754 0.29744 0.98407 0.0
C854 C 0.8761 0.28161 0.9659 0.0
C855 C 0.89044 0.28117 0.94586 0.0
C856 C 0.9058 0.29745 0.94404 0.0
C857 C 0.9073 0.31326 0.96229 0.0
C858 C 0.84252 0.36814 1.04227 0.0
C859 C 0.85612 0.39014 0.98257 0.0
O860 O 0.86876 0.44103 1.03246 0.0
O861 O 0.85095 0.42307 0.06002 0.0
O862 O 0.89613 0.41863 1.00977 0.0
O863 O 0.89971 0.38966 1.02832 0.0
O864 O 0.88234 0.39675 0.07023 0.0
O865 O 0.89447 0.36284 0.06044 0.0
O866 O 0.8835 0.32819 1.02191 0.0
O867 O 0.90235 0.34812 0.99742 0.0
O868 O 0.85333 0.35059 0.04465 0.0
O869 O 0.85263 0.37989 1.0276 0.0
O870 O 0.8672 0.37249 0.98727 0.0
O871 O 0.85319 0.40482 0.99981 0.0
H872 H 0.89587 0.45572 0.067 0.0
H873 H 0.90357 0.48569 0.0947 0.0
H874 H 0.83595 0.4947 0.10625 0.0
H875 H 0.82844 0.46524 0.07807 0.0
H876 H 0.86655 0.29691 0.99951 0.0
H877 H 0.86383 0.26953 0.9677 0.0
H878 H 0.9172 0.29753 0.929 0.0
H879 H 0.91982 0.32511 0.96082 0.0
La880 La 0.86773 0.6219 0.28191 0.0
La881 La 0.91429 0.63115 0.27259 0.0
C882 C 0.83241 0.60809 0.29757 0.0
C883 C 0.81497 0.61365 0.31469 0.0
C884 C 0.79391 0.6104 0.30686 0.0
C885 C 0.77685 0.6146 0.3227 0.0
C886 C 0.78047 0.62207 0.34685 0.0
C887 C 0.80164 0.62579 0.35452 0.0
C888 C 0.81877 0.62162 0.33856 0.0
C889 C 0.87497 0.65822 0.2589 0.0
C890 C 0.89606 0.64193 0.32542 0.0
C891 C 0.94861 0.64596 0.25479 0.0
C892 C 0.96391 0.64293 0.23407 0.0
C893 C 0.98423 0.63446 0.23895 0.0
C894 C 0.99977 0.63357 0.22041 0.0
C895 C 0.99553 0.64133 0.19645 0.0
C896 C 0.975 0.64937 0.1914 0.0
C897 C 0.9594 0.65022 0.20999 0.0
C898 C 0.90638 0.59305 0.2923 0.0
C899 C 0.88677 0.60675 0.23119 0.0
O900 O 0.83446 0.6203 0.27811 0.0
O901 O 0.85087 0.60264 0.30706 0.0
O902 O 0.85802 0.64671 0.25635 0.0
O903 O 0.88636 0.65046 0.27608 0.0
O904 O 0.87777 0.6333 0.31835 0.0
O905 O 0.91221 0.64472 0.30989 0.0
O906 O 0.94785 0.6311 0.27179 0.0
O907 O 0.92964 0.65347 0.24963 0.0
O908 O 0.9238 0.60384 0.29573 0.0
O909 O 0.89541 0.60304 0.27672 0.0
O910 O 0.90423 0.61794 0.23637 0.0
O911 O 0.87177 0.60366 0.24805 0.0
H912 H 0.79064 0.60439 0.28846 0.0
H913 H 0.76079 0.61193 0.316 0.0
H914 H 0.80502 0.63138 0.37305 0.0
H915 H 0.83491 0.62434 0.34499 0.0
H916 H 0.9883 0.6289 0.25733 0.0
H917 H 0.01522 0.62692 0.22494 0.0
H918 H 0.97116 0.65567 0.17328 0.0
H919 H 0.944 0.65709 0.20561 0.0
La920 La 0.65377 0.61656 0.53037 0.0
La921 La 0.64488 0.66309 0.52076 0.0
C922 C 0.6676 0.58159 0.54705 0.0
C923 C 0.66293 0.56558 0.56632 0.0
C924 C 0.64196 0.5593 0.57192 0.0
C925 C 0.6382 0.54248 0.58845 0.0
C926 C 0.65534 0.53166 0.59972 0.0
C927 C 0.67625 0.53859 0.59467 0.0
C928 C 0.67998 0.55531 0.57811 0.0
C929 C 0.61749 0.62398 0.50758 0.0
C930 C 0.63429 0.64546 0.57383 0.0
C931 C 0.63026 0.69722 0.50227 0.0
C932 C 0.63274 0.71116 0.48019 0.0
C933 C 0.65119 0.72352 0.47652 0.0
C934 C 0.65238 0.73808 0.45689 0.0
C935 C 0.63517 0.7407 0.44038 0.0
C936 C 0.61689 0.72799 0.44382 0.0
C937 C 0.61569 0.71346 0.46351 0.0
C938 C 0.68312 0.65481 0.53982 0.0
C939 C 0.6683 0.63486 0.47906 0.0
O940 O 0.65386 0.58321 0.52892 0.0
O941 O 0.67464 0.60022 0.55439 0.0
O942 O 0.62891 0.60697 0.50487 0.0
O943 O 0.62538 0.63533 0.52469 0.0
O944 O 0.64254 0.62702 0.56677 0.0
O945 O 0.63174 0.66164 0.55827 0.0
O946 O 0.64596 0.69652 0.51822 0.0
O947 O 0.62174 0.6784 0.49879 0.0
O948 O 0.67234 0.67212 0.54397 0.0
O949 O 0.67284 0.64404 0.52434 0.0
O950 O 0.65757 0.65257 0.48444 0.0
O951 O 0.67117 0.61972 0.49583 0.0
H952 H 0.62851 0.56702 0.56307 0.0
H953 H 0.6219 0.53754 0.59182 0.0
H954 H 0.68982 0.531 0.60342 0.0
H955 H 0.69627 0.55995 0.57411 0.0
H956 H 0.66458 0.72234 0.48912 0.0
H957 H 0.6666 0.74778 0.45517 0.0
H958 H 0.60343 0.72932 0.43137 0.0
H959 H 0.6012 0.70426 0.46596 0.0
La960 La 0.41401 0.3932 0.27218 0.0
La961 La 0.36757 0.4035 0.28206 0.0
C962 C 0.44736 0.37633 0.25444 0.0
C963 C 0.46344 0.3783 0.23459 0.0
C964 C 0.48322 0.36831 0.23789 0.0
C965 C 0.49892 0.36945 0.21958 0.0
C966 C 0.49527 0.38069 0.19743 0.0
C967 C 0.47526 0.39055 0.19401 0.0
C968 C 0.45948 0.38939 0.21245 0.0
C969 C 0.4072 0.43162 0.2912 0.0
C970 C 0.38646 0.418 0.23083 0.0
C971 C 0.33291 0.41801 0.29877 0.0
C972 C 0.31664 0.41319 0.31767 0.0
C973 C 0.31058 0.39215 0.32328 0.0
C974 C 0.29364 0.38821 0.33959 0.0
C975 C 0.28249 0.40523 0.35058 0.0
C976 C 0.28918 0.42623 0.34548 0.0
C977 C 0.30602 0.43013 0.32917 0.0
C978 C 0.37421 0.36678 0.25984 0.0
C979 C 0.39602 0.38338 0.32548 0.0
O980 O 0.44752 0.39087 0.27178 0.0
O981 O 0.42795 0.37099 0.24802 0.0
O982 O 0.4247 0.42081 0.29402 0.0
O983 O 0.39566 0.42161 0.27622 0.0
O984 O 0.40396 0.40688 0.23611 0.0
O985 O 0.37134 0.42105 0.24758 0.0
O986 O 0.33425 0.4048 0.28012 0.0
O987 O 0.3517 0.42419 0.30662 0.0
O988 O 0.35743 0.37851 0.25691 0.0
O989 O 0.38568 0.37468 0.27679 0.0
O990 O 0.37784 0.39225 0.31851 0.0
O991 O 0.41197 0.38015 0.3098 0.0
H992 H 0.48655 0.3595 0.25472 0.0
H993 H 0.51393 0.36135 0.22277 0.0
H994 H 0.47193 0.39949 0.1773 0.0
H995 H 0.44428 0.39719 0.20948 0.0
H996 H 0.3186 0.37879 0.31465 0.0
H997 H 0.2889 0.37185 0.34299 0.0
H998 H 0.28133 0.43972 0.35403 0.0
H999 H 0.3105 0.44648 0.32516 0.0
La1000 La 0.38396 0.66185 1.02124 0.0
La1001 La 0.37335 0.61527 1.03021 0.0
C1002 C 0.40061 0.69543 1.00354 0.0
C1003 C 0.3986 0.71049 0.98261 0.0
C1004 C 0.41252 0.72796 0.98131 0.0
C1005 C 0.41096 0.74276 0.96198 0.0
C1006 C 0.3954 0.74045 0.94338 0.0
C1007 C 0.38156 0.7227 0.94464 0.0
C1008 C 0.38315 0.70788 0.96407 0.0
C1009 C 0.34559 0.6548 1.04022 0.0
C1010 C 0.35902 0.63474 0.9794 0.0
C1011 C 0.35889 0.58045 0.04666 0.0
C1012 C 0.36363 0.56429 0.06574 0.0
C1013 C 0.38465 0.55852 0.07178 0.0
C1014 C 0.38856 0.54176 0.08836 0.0
C1015 C 0.37152 0.53049 0.09923 0.0
C1016 C 0.35052 0.53688 0.09368 0.0
C1017 C 0.34665 0.55354 0.07708 0.0
C1018 C 0.41007 0.62209 1.00812 0.0
C1019 C 0.39351 0.64312 0.07424 0.0
O1020 O 0.38523 0.69539 1.01989 0.0
O1021 O 0.40704 0.6761 0.99834 0.0
O1022 O 0.35657 0.67212 0.04368 0.0
O1023 O 0.35548 0.64355 1.02488 0.0
O1024 O 0.37025 0.65215 0.98495 0.0
O1025 O 0.35584 0.61945 0.99592 0.0
O1026 O 0.37236 0.58193 1.02826 0.0
O1027 O 0.35241 0.59917 0.05433 0.0
O1028 O 0.39824 0.60544 1.0048 0.0
O1029 O 0.40225 0.63333 1.0253 0.0
O1030 O 0.38426 0.62529 0.06674 0.0
O1031 O 0.39711 0.6593 0.05889 0.0
H1032 H 0.42455 0.73029 0.99546 0.0
H1033 H 0.42166 0.75632 0.96199 0.0
H1034 H 0.36953 0.72021 0.93057 0.0
H1035 H 0.37228 0.69446 0.96468 0.0
H1036 H 0.39804 0.56665 0.06329 0.0
H1037 H 0.40492 0.53724 0.0921 0.0
H1038 H 0.337 0.52896 0.10211 0.0
H1039 H 0.33032 0.55781 0.07276 0.0
La1040 La 0.11555 0.63421 0.76942 0.0
La1041 La 0.1621 0.62312 0.77787 0.0
C1042 C 0.082 0.65116 0.75207 0.0
C1043 C 0.06675 0.64924 0.73133 0.0
C1044 C 0.06933 0.63404 0.71254 0.0
C1045 C 0.05438 0.63257 0.69325 0.0
C1046 C 0.03653 0.64628 0.69238 0.0
C1047 C 0.03424 0.66159 0.71123 0.0
C1048 C 0.04917 0.66303 0.73043 0.0
C1049 C 0.12232 0.59572 0.78827 0.0
C1050 C 0.1422 0.60917 0.72724 0.0
C1051 C 0.19702 0.60877 0.79411 0.0
C1052 C 0.2126 0.61331 0.81388 0.0
C1053 C 0.21799 0.63429 0.82061 0.0
C1054 C 0.23392 0.63804 0.83829 0.0
C1055 C 0.24458 0.62089 0.84969 0.0
C1056 C 0.23878 0.59994 0.84319 0.0
C1057 C 0.223 0.59622 0.82545 0.0
C1058 C 0.15539 0.65997 0.7559 0.0
C1059 C 0.13461 0.64308 0.8223 0.0
O1060 O 0.08202 0.63583 0.76851 0.0
O1061 O 0.10135 0.65738 0.74658 0.0
O1062 O 0.10517 0.60689 0.79196 0.0
O1063 O 0.13357 0.60552 0.7728 0.0
O1064 O 0.12495 0.62053 0.73305 0.0
O1065 O 0.15765 0.60582 0.74351 0.0
O1066 O 0.19547 0.62289 0.77635 0.0
O1067 O 0.17837 0.60147 0.80098 0.0
O1068 O 0.17183 0.64793 0.75223 0.0
O1069 O 0.14427 0.65217 0.77322 0.0
O1070 O 0.15214 0.63337 0.81464 0.0
O1071 O 0.11864 0.64743 0.80695 0.0
H1072 H 0.08284 0.62329 0.71284 0.0
H1073 H 0.05687 0.62074 0.67898 0.0
H1074 H 0.0206 0.67217 0.71154 0.0
H1075 H 0.04686 0.67487 0.74476 0.0
H1076 H 0.21009 0.64776 0.81202 0.0
H1077 H 0.23784 0.65434 0.8431 0.0
H1078 H 0.24681 0.58637 0.85139 0.0
H1079 H 0.21914 0.57993 0.82046 0.0
La1080 La 0.14362 0.36245 0.52143 0.0
La1081 La 0.15422 0.4088 0.53157 0.0
C1082 C 0.12697 0.32915 0.50314 0.0
C1083 C 0.12914 0.31432 0.48209 0.0
C1084 C 0.14529 0.31662 0.46434 0.0
C1085 C 0.14706 0.30197 0.44482 0.0
C1086 C 0.13272 0.28469 0.44271 0.0
C1087 C 0.11645 0.2827 0.46052 0.0
C1088 C 0.1147 0.29735 0.47992 0.0
C1089 C 0.18191 0.36897 0.54088 0.0
C1090 C 0.16871 0.39013 0.48037 0.0
C1091 C 0.16903 0.44326 0.54851 0.0
C1092 C 0.16414 0.45974 0.56707 0.0
C1093 C 0.14306 0.46504 0.57336 0.0
C1094 C 0.13893 0.48222 0.58925 0.0
C1095 C 0.15582 0.49438 0.59909 0.0
C1096 C 0.1769 0.48845 0.59332 0.0
C1097 C 0.18098 0.47137 0.57745 0.0
C1098 C 0.11745 0.40252 0.50927 0.0
C1099 C 0.1336 0.38031 0.57469 0.0
O1100 O 0.14218 0.32895 0.51971 0.0
O1101 O 0.12072 0.34857 0.49801 0.0
O1102 O 0.17082 0.35166 0.54385 0.0
O1103 O 0.17214 0.38059 0.52573 0.0
O1104 O 0.15732 0.37274 0.48543 0.0
O1105 O 0.17191 0.40507 0.49727 0.0
O1106 O 0.15616 0.44208 0.52951 0.0
O1107 O 0.17463 0.4244 0.55671 0.0
O1108 O 0.12925 0.41928 0.50651 0.0
O1109 O 0.12532 0.39088 0.5261 0.0
O1110 O 0.14262 0.39847 0.56782 0.0
O1111 O 0.13045 0.36435 0.55899 0.0
H1112 H 0.15656 0.32965 0.46565 0.0
H1113 H 0.15964 0.30421 0.43137 0.0
H1114 H 0.10534 0.26948 0.45988 0.0
H1115 H 0.10213 0.29527 0.49347 0.0
H1116 H 0.1298 0.45624 0.56556 0.0
H1117 H 0.12252 0.48635 0.59322 0.0
H1118 H 0.19031 0.4971 0.601 0.0
H1119 H 0.19735 0.46748 0.57289 0.0
La1120 La 0.41122 0.63139 0.31438 0.0
La1121 La 0.36502 0.62047 0.30544 0.0
C1122 C 0.44462 0.64779 0.33272 0.0
C1123 C 0.46035 0.64474 0.35309 0.0
C1124 C 0.47643 0.62916 0.35157 0.0
C1125 C 0.49258 0.62808 0.36946 0.0
C1126 C 0.49317 0.64257 0.38935 0.0
C1127 C 0.47673 0.65776 0.39125 0.0
C1128 C 0.4606 0.65889 0.37327 0.0
C1129 C 0.40485 0.59266 0.29598 0.0
C1130 C 0.38431 0.60644 0.3563 0.0
C1131 C 0.32952 0.60663 0.29009 0.0
C1132 C 0.31215 0.61257 0.27297 0.0
C1133 C 0.29105 0.6082 0.27989 0.0
C1134 C 0.27414 0.61303 0.264 0.0
C1135 C 0.27793 0.62224 0.24065 0.0
C1136 C 0.29914 0.627 0.23396 0.0
C1137 C 0.31608 0.62227 0.25 0.0
C1138 C 0.37152 0.65792 0.32638 0.0
C1139 C 0.39312 0.63928 0.26093 0.0
O1140 O 0.44465 0.63408 0.31448 0.0
O1141 O 0.42523 0.65341 0.33888 0.0
O1142 O 0.422 0.60389 0.29256 0.0
O1143 O 0.39331 0.60249 0.31112 0.0
O1144 O 0.40141 0.61814 0.35086 0.0
O1145 O 0.36946 0.60262 0.33948 0.0
O1146 O 0.33176 0.61868 0.3096 0.0
O1147 O 0.34793 0.60119 0.28052 0.0
O1148 O 0.35502 0.64602 0.32992 0.0
O1149 O 0.38285 0.64973 0.30955 0.0
O1150 O 0.37565 0.62935 0.26843 0.0
O1151 O 0.40851 0.64455 0.27669 0.0
H1152 H 0.47686 0.61805 0.33626 0.0
H1153 H 0.50475 0.61594 0.36758 0.0
H1154 H 0.47673 0.66928 0.40615 0.0
H1155 H 0.44862 0.67127 0.37482 0.0
H1156 H 0.28764 0.6009 0.29764 0.0
H1157 H 0.25806 0.60952 0.27006 0.0
H1158 H 0.30273 0.63391 0.21607 0.0
H1159 H 0.33221 0.62598 0.24436 0.0
La1160 La 0.14785 0.66624 0.06115 0.0
La1161 La 0.15396 0.61881 0.05425 0.0
C1162 C 0.13676 0.70254 0.07722 0.0
C1163 C 0.13777 0.71536 0.1004 0.0
C1164 C 0.156 0.72752 0.106 0.0
C1165 C 0.15632 0.74116 0.12646 0.0
C1166 C 0.1384 0.74315 0.14199 0.0
C1167 C 0.12023 0.73078 0.13659 0.0
C1168 C 0.11991 0.71708 0.11605 0.0
C1169 C 0.18483 0.65511 1.04135 0.0
C1170 C 0.16944 0.63803 0.1043 0.0
C1171 C 0.16532 0.58242 1.03918 0.0
C1172 C 0.1604 0.56645 1.0199 0.0
C1173 C 0.13939 0.56003 1.01465 0.0
C1174 C 0.13549 0.54337 0.99794 0.0
C1175 C 0.15252 0.53282 0.98618 0.0
C1176 C 0.17346 0.53983 0.99096 0.0
C1177 C 0.17732 0.55639 1.00765 0.0
C1178 C 0.11859 0.62951 0.0771 0.0
C1179 C 0.13661 0.6473 1.00894 0.0
O1180 O 0.15475 0.69874 0.06583 0.0
O1181 O 0.12413 0.68593 0.07675 0.0
O1182 O 0.17449 0.67244 1.03599 0.0
O1183 O 0.17473 0.64545 0.05805 0.0
O1184 O 0.15892 0.65576 0.09833 0.0
O1185 O 0.17203 0.62245 0.08811 0.0
O1186 O 0.15098 0.58556 0.05637 0.0
O1187 O 0.1743 0.60024 1.03197 0.0
O1188 O 0.12856 0.6117 0.08048 0.0
O1189 O 0.12695 0.63948 0.0592 0.0
O1190 O 0.14389 0.62883 1.01732 0.0
O1191 O 0.13475 0.66422 1.02353 0.0
H1192 H 0.16995 0.72693 0.09421 0.0
H1193 H 0.17047 0.75068 0.12961 0.0
H1194 H 0.10619 0.73172 0.14818 0.0
H1195 H 0.10552 0.70812 0.11216 0.0
H1196 H 0.12601 0.56753 1.02383 0.0
H1197 H 0.11919 0.53836 0.99481 0.0
H1198 H 0.18695 0.53245 0.98185 0.0
H1199 H 0.19365 0.5611 1.01136 0.0
La1200 La 0.10801 0.39874 0.8123 0.0
La1201 La 0.15543 0.40341 0.80465 0.0
C1202 C 0.0715 0.38869 0.82866 0.0
C1203 C 0.05905 0.38917 0.85212 0.0
C1204 C 0.04728 0.40742 0.85859 0.0
C1205 C 0.03385 0.40733 0.87923 0.0
C1206 C 0.03167 0.38897 0.89405 0.0
C1207 C 0.04367 0.37077 0.8878 0.0
C1208 C 0.05716 0.37086 0.86707 0.0
C1209 C 0.1199 0.43499 0.7912 0.0
C1210 C 0.13689 0.42028 0.85457 0.0
C1211 C 0.19192 0.41376 0.78893 0.0
C1212 C 0.20731 0.4086 0.76908 0.0
C1213 C 0.21508 0.38779 0.7654 0.0
C1214 C 0.231 0.38386 0.74777 0.0
C1215 C 0.23936 0.40063 0.73341 0.0
C1216 C 0.23126 0.42134 0.73691 0.0
C1217 C 0.21548 0.42525 0.75456 0.0
C1218 C 0.14407 0.36897 0.82902 0.0
C1219 C 0.12611 0.38598 0.76021 0.0
O1220 O 0.07604 0.40704 0.81839 0.0
O1221 O 0.08744 0.3753 0.827 0.0
O1222 O 0.1023 0.42493 0.78632 0.0
O1223 O 0.12945 0.425 0.80809 0.0
O1224 O 0.11895 0.40999 0.84906 0.0
O1225 O 0.1525 0.42211 0.83824 0.0
O1226 O 0.1886 0.39932 0.80601 0.0
O1227 O 0.1743 0.42345 0.78233 0.0
O1228 O 0.16212 0.37866 0.83182 0.0
O1229 O 0.13415 0.37703 0.81087 0.0
O1230 O 0.14511 0.39218 0.76816 0.0
O1231 O 0.10913 0.38567 0.77482 0.0
H1232 H 0.04798 0.4217 0.84733 0.0
H1233 H 0.02459 0.42153 0.88304 0.0
H1234 H 0.04255 0.35639 0.89884 0.0
H1235 H 0.06581 0.35644 0.86248 0.0
H1236 H 0.20909 0.3746 0.77634 0.0
H1237 H 0.23673 0.3677 0.74536 0.0
H1238 H 0.23753 0.43468 0.72646 0.0
H1239 H 0.20992 0.44146 0.75721 0.0
La1240 La 0.38103 0.36126 0.56434 0.0
La1241 La 0.37054 0.40771 0.55409 0.0
C1242 C 0.3982 0.32811 0.58227 0.0
C1243 C 0.39631 0.31186 0.60197 0.0
C1244 C 0.40675 0.29231 0.59872 0.0
C1245 C 0.4058 0.27651 0.61694 0.0
C1246 C 0.3943 0.27982 0.63895 0.0
C1247 C 0.38398 0.2996 0.64232 0.0
C1248 C 0.38494 0.31548 0.62395 0.0
C1249 C 0.3428 0.36779 0.54458 0.0
C1250 C 0.35515 0.38844 0.60492 0.0
C1251 C 0.35632 0.44267 0.53784 0.0
C1252 C 0.36233 0.46021 0.52099 0.0
C1253 C 0.35958 0.48126 0.5291 0.0
C1254 C 0.36425 0.49841 0.51351 0.0
C1255 C 0.37168 0.49492 0.48932 0.0
C1256 C 0.3749 0.47376 0.48137 0.0
C1257 C 0.37028 0.45654 0.49708 0.0
C1258 C 0.4072 0.40131 0.57666 0.0
C1259 C 0.39103 0.37937 0.51102 0.0
O1260 O 0.38392 0.32779 0.56462 0.0
O1261 O 0.40305 0.34757 0.58897 0.0
O1262 O 0.35367 0.35028 0.54224 0.0
O1263 O 0.35261 0.37946 0.55958 0.0
O1264 O 0.36676 0.37114 0.60017 0.0
O1265 O 0.3521 0.4033 0.58782 0.0
O1266 O 0.36772 0.44088 0.55798 0.0
O1267 O 0.35164 0.42408 0.52813 0.0
O1268 O 0.39552 0.41813 0.57914 0.0
O1269 O 0.39935 0.38971 0.55985 0.0
O1270 O 0.38193 0.39749 0.51776 0.0
O1271 O 0.39435 0.3635 0.52685 0.0
H1272 H 0.41577 0.28926 0.582 0.0
H1273 H 0.41425 0.2617 0.61381 0.0
H1274 H 0.37482 0.30265 0.65891 0.0
H1275 H 0.37681 0.33051 0.62688 0.0
H1276 H 0.3536 0.48446 0.54753 0.0
H1277 H 0.36196 0.51445 0.52044 0.0
H1278 H 0.38042 0.47047 0.46279 0.0
H1279 H 0.37264 0.44043 0.49041 0.0
H1280 H 0.27544 0.14742 0.23849 0.0
H1281 H 0.24858 0.09857 0.19165 0.0
H1282 H 0.30506 0.15187 0.20947 0.0
H1283 H 0.27786 0.10312 0.16265 0.0
H1284 H 0.34168 0.09874 0.12744 0.0
H1285 H 0.31521 0.09562 0.16005 0.0
H1286 H 0.31446 0.16419 0.16802 0.0
H1287 H 0.34154 0.16724 0.13559 0.0
C1288 C 0.27574 0.1378 0.22187 0.0
C1289 C 0.25974 0.1225 0.21749 0.0
C1290 C 0.29273 0.14034 0.20526 0.0
C1291 C 0.29406 0.12764 0.18387 0.0
C1292 C 0.27772 0.11277 0.17925 0.0
C1293 C 0.26085 0.11019 0.19584 0.0
C1294 C 0.33614 0.11315 0.13641 0.0
C1295 C 0.3436 0.13325 0.12881 0.0
C1296 C 0.32079 0.11138 0.15497 0.0
C1297 C 0.31229 0.12967 0.1663 0.0
C1298 C 0.32066 0.14976 0.15972 0.0
C1299 C 0.33622 0.15152 0.14117 0.0
H1300 H 0.10614 0.09268 0.38504 0.0
H1301 H 0.17492 0.09516 0.38234 0.0
H1302 H 0.10816 0.06736 0.4196 0.0
H1303 H 0.17695 0.07003 0.41659 0.0
H1304 H 0.1745 0.03579 0.48966 0.0
H1305 H 0.16889 0.06538 0.46114 0.0
H1306 H 0.12055 0.02902 0.42301 0.0
H1307 H 0.12637 0.99916 0.45131 0.0
C1308 C 0.12165 0.08825 0.39222 0.0
C1309 C 0.14038 0.09591 0.38104 0.0
C1310 C 0.12281 0.07359 0.4118 0.0
C1311 C 0.14272 0.06662 0.42075 0.0
C1312 C 0.16137 0.07519 0.41031 0.0
C1313 C 0.16021 0.08955 0.39062 0.0
C1314 C 0.16272 0.03401 0.47515 0.0
C1315 C 0.15113 0.01491 0.47259 0.0
C1316 C 0.15943 0.05105 0.4589 0.0
C1317 C 0.14435 0.04951 0.43976 0.0
C1318 C 0.13211 0.03079 0.43775 0.0
C1319 C 0.13549 0.01366 0.45396 0.0
H1320 H 0.24437 0.92538 0.73534 0.0
H1321 H 0.27497 0.86972 0.70447 0.0
H1322 H 0.21497 0.92125 0.70642 0.0
H1323 H 0.24574 0.86607 0.67477 0.0
H1324 H 0.18142 0.85685 0.6356 0.0
H1325 H 0.20692 0.85808 0.67002 0.0
H1326 H 0.21105 0.92655 0.66224 0.0
H1327 H 0.18562 0.92534 0.62842 0.0
C1328 C 0.24475 0.91211 0.72255 0.0
C1329 C 0.26211 0.89789 0.72228 0.0
C1330 C 0.22794 0.90987 0.70578 0.0
C1331 C 0.22801 0.89338 0.68819 0.0
C1332 C 0.24509 0.87883 0.68823 0.0
C1333 C 0.26198 0.88109 0.70504 0.0
C1334 C 0.18744 0.87217 0.64166 0.0
C1335 C 0.18151 0.891 0.62929 0.0
C1336 C 0.20223 0.87286 0.66116 0.0
C1337 C 0.21111 0.89241 0.66883 0.0
C1338 C 0.2044 0.91125 0.65706 0.0
C1339 C 0.18986 0.91054 0.63755 0.0
H1340 H 0.41933 0.93141 0.88585 0.0
H1341 H 0.35102 0.93486 0.87647 0.0
H1342 H 0.41709 0.95719 0.9198 0.0
H1343 H 0.3488 0.96056 0.90998 0.0
H1344 H 0.34875 0.99452 0.98318 0.0
H1345 H 0.35345 0.96488 0.95467 0.0
H1346 H 0.4085 0.99609 0.92315 0.0
H1347 H 0.40369 0.02598 0.95159 0.0
C1348 C 0.40382 0.93732 0.89134 0.0
C1349 C 0.38535 0.93108 0.87847 0.0
C1350 C 0.40256 0.95226 0.91059 0.0
C1351 C 0.38278 0.96101 0.91753 0.0
C1352 C 0.36427 0.95401 0.90531 0.0
C1353 C 0.36555 0.93931 0.886 0.0
C1354 C 0.36181 0.99517 0.9701 0.0
C1355 C 0.37565 0.01285 0.96948 0.0
C1356 C 0.36456 0.9781 0.95383 0.0
C1357 C 0.38127 0.97815 0.93652 0.0
C1358 C 0.3956 0.99544 0.93643 0.0
C1359 C 0.39281 1.0126 0.95271 0.0
H1360 H 0.34045 0.92632 0.46059 0.0
H1361 H 0.34141 0.85796 0.451 0.0
H1362 H 0.31374 0.92949 0.42822 0.0
H1363 H 0.3141 0.86106 0.41877 0.0
H1364 H 0.27501 0.8787 0.34834 0.0
H1365 H 0.30453 0.87402 0.37748 0.0
H1366 H 0.27647 0.92135 0.42547 0.0
H1367 H 0.24727 0.92612 0.39637 0.0
C1368 C 0.33509 0.91195 0.45136 0.0
C1369 C 0.34294 0.89188 0.45851 0.0
C1370 C 0.3196 0.91374 0.43294 0.0
C1371 C 0.31136 0.8955 0.42125 0.0
C1372 C 0.32008 0.87546 0.42738 0.0
C1373 C 0.33577 0.87367 0.44581 0.0
C1374 C 0.27508 0.88794 0.36524 0.0
C1375 C 0.25887 0.90294 0.36991 0.0
C1376 C 0.29202 0.88528 0.38193 0.0
C1377 C 0.29309 0.89753 0.40368 0.0
C1378 C 0.27652 0.91206 0.40861 0.0
C1379 C 0.2597 0.91476 0.39194 0.0
H1380 H 0.39734 0.02524 0.5995 0.0
H1381 H 0.35462 0.99457 0.65112 0.0
H1382 H 0.40148 0.05525 0.62808 0.0
H1383 H 0.35875 0.02434 0.67952 0.0
H1384 H 0.34985 0.08862 0.71259 0.0
H1385 H 0.34759 0.06149 0.68066 0.0
H1386 H 0.41569 0.0655 0.66947 0.0
H1387 H 0.41791 0.09309 0.70143 0.0
C1388 C 0.38905 0.02478 0.61706 0.0
C1389 C 0.37546 1.00762 0.62293 0.0
C1390 C 0.39139 0.04198 0.63339 0.0
C1391 C 0.38016 0.04237 0.65588 0.0
C1392 C 0.36717 0.02485 0.66205 0.0
C1393 C 0.36484 1.00773 0.64579 0.0
C1394 C 0.36433 0.08399 0.70308 0.0
C1395 C 0.38409 0.09287 0.70971 0.0
C1396 C 0.36305 0.06829 0.6849 0.0
C1397 C 0.38152 0.06095 0.67293 0.0
C1398 C 0.40116 0.07078 0.67839 0.0
C1399 C 0.40244 0.08664 0.69664 0.0
H1400 H 0.1834 0.10183 0.95694 0.0
H1401 H 0.18101 0.17047 0.95065 0.0
H1402 H 0.2086 0.10028 0.92294 0.0
H1403 H 0.20631 0.16891 0.91609 0.0
H1404 H 0.27437 0.15566 0.88249 0.0
H1405 H 0.2449 0.15995 0.91166 0.0
H1406 H 0.21285 0.10596 0.87884 0.0
H1407 H 0.24251 0.10116 0.85045 0.0
C1408 C 0.18798 0.1166 0.94797 0.0
C1409 C 0.18027 0.13628 0.95655 0.0
C1410 C 0.20239 0.1157 0.92836 0.0
C1411 C 0.20957 0.13448 0.91684 0.0
C1412 C 0.20124 0.15417 0.92476 0.0
C1413 C 0.18659 0.15506 0.94436 0.0
C1414 C 0.26105 0.14469 0.88154 0.0
C1415 C 0.26091 0.128 0.86417 0.0
C1416 C 0.24402 0.14733 0.89804 0.0
C1417 C 0.22653 0.13327 0.89761 0.0
C1418 C 0.22616 0.11696 0.87982 0.0
C1419 C 0.24311 0.11433 0.86336 0.0
H1420 H 0.17468 0.93327 0.20528 0.0
H1421 H 0.10593 0.93301 0.20044 0.0
H1422 H 0.17649 0.95847 0.17111 0.0
H1423 H 0.10775 0.95842 0.16593 0.0
H1424 H 0.12382 0.02697 0.13385 0.0
H1425 H 0.11864 0.99717 0.16242 0.0
H1426 H 0.16935 0.9626 0.12637 0.0
H1427 H 0.17434 0.99211 0.09761 0.0
C1428 C 0.15994 0.93832 0.19658 0.0
C1429 C 0.14017 0.93117 0.20557 0.0
C1430 C 0.16099 0.95272 0.17692 0.0
C1431 C 0.14226 0.96053 0.16587 0.0
C1432 C 0.12244 0.95281 0.17423 0.0
C1433 C 0.12141 0.9381 0.19379 0.0
C1434 C 0.13362 0.01287 0.13172 0.0
C1435 C 0.14971 1.01211 0.1136 0.0
C1436 C 0.13061 0.99577 0.14808 0.0
C1437 C 0.14367 0.97758 0.14675 0.0
C1438 C 0.15924 0.97653 0.12812 0.0
C1439 C 0.16218 0.99352 0.11172 0.0
H1440 H 0.77844 0.92506 0.89755 0.0
H1441 H 0.75084 0.87786 0.84903 0.0
H1442 H 0.74905 0.92024 0.92636 0.0
H1443 H 0.72114 0.87311 0.87791 0.0
H1444 H 0.68399 0.8572 0.95153 0.0
H1445 H 0.71141 0.86013 0.9194 0.0
H1446 H 0.71165 0.92862 0.92819 0.0
H1447 H 0.68484 0.92564 0.96041 0.0
C1448 C 0.766 0.91373 0.89296 0.0
C1449 C 0.7669 0.902 0.87087 0.0
C1450 C 0.74909 0.911 0.90945 0.0
C1451 C 0.7325 0.89654 0.90428 0.0
C1452 C 0.73367 0.88433 0.88251 0.0
C1453 C 0.7507 0.88703 0.86599 0.0
C1454 C 0.68962 0.87289 0.9462 0.0
C1455 C 0.68243 0.89118 0.95868 0.0
C1456 C 0.70537 0.87457 0.92783 0.0
C1457 C 0.7141 0.89458 0.9216 0.0
C1458 C 0.70578 0.91291 0.93302 0.0
C1459 C 0.69024 0.91122 0.95136 0.0
H1460 H 0.85001 0.99332 0.59956 0.0
H1461 H 0.90221 0.0271 0.63406 0.0
H1462 H 0.85475 0.96394 0.62855 0.0
H1463 H 0.90713 0.99744 0.66287 0.0
H1464 H 0.91909 0.93302 0.70087 0.0
H1465 H 0.91714 0.95857 0.66651 0.0
H1466 H 0.84852 0.95994 0.67333 0.0
H1467 H 0.85046 0.93458 0.70731 0.0
C1468 C 0.86247 0.99454 0.61336 0.0
C1469 C 0.87551 1.01279 0.61465 0.0
C1470 C 0.86526 0.97761 0.62989 0.0
C1471 C 0.88125 0.97838 0.64809 0.0
C1472 C 0.89482 0.99624 0.64888 0.0
C1473 C 0.89196 0.01327 0.63238 0.0
C1474 C 0.90359 0.93846 0.69463 0.0
C1475 C 0.88492 0.93181 0.7068 0.0
C1476 C 0.90249 0.95324 0.67515 0.0
C1477 C 0.88268 0.96136 0.66727 0.0
C1478 C 0.86402 0.95389 0.67876 0.0
C1479 C 0.86514 0.93939 0.69832 0.0
H1480 H 0.77842 0.15135 0.34577 0.0
H1481 H 0.7507 0.10301 0.39284 0.0
H1482 H 0.80829 0.15506 0.37463 0.0
H1483 H 0.78004 0.10718 0.42187 0.0
H1484 H 0.84461 0.10064 0.45517 0.0
H1485 H 0.81803 0.09856 0.42253 0.0
H1486 H 0.81702 0.16732 0.41748 0.0
H1487 H 0.84401 0.16939 0.45021 0.0
C1488 C 0.77866 0.14157 0.36229 0.0
C1489 C 0.76218 0.12682 0.36693 0.0
C1490 C 0.79568 0.14382 0.3789 0.0
C1491 C 0.79668 0.13124 0.4004 0.0
C1492 C 0.77998 0.11684 0.40525 0.0
C1493 C 0.76297 0.11465 0.38875 0.0
C1494 C 0.83903 0.11534 0.44682 0.0
C1495 C 0.84631 0.13519 0.4554 0.0
C1496 C 0.82364 0.11414 0.42825 0.0
C1497 C 0.81503 0.13278 0.4178 0.0
C1498 C 0.82332 0.15266 0.42518 0.0
C1499 C 0.83885 0.15386 0.44385 0.0
H1500 H 0.67469 0.03174 0.10065 0.0
H1501 H 0.62389 0.99742 0.13719 0.0
H1502 H 0.6696 0.06163 0.12874 0.0
H1503 H 0.61866 0.02756 0.16519 0.0
H1504 H 0.60623 0.09217 0.20234 0.0
H1505 H 0.60792 0.06622 0.16843 0.0
H1506 H 0.67669 0.06649 0.1731 0.0
H1507 H 0.675 0.09222 0.20662 0.0
C1508 C 0.66244 0.03053 0.1147 0.0
C1509 C 0.64994 1.01197 0.11687 0.0
C1510 C 0.65946 0.04774 0.13072 0.0
C1511 C 0.64382 0.04694 0.14931 0.0
C1512 C 0.6307 0.02877 0.1509 0.0
C1513 C 0.63374 1.01147 0.13488 0.0
C1514 C 0.62168 0.08701 0.1957 0.0
C1515 C 0.64049 0.09422 0.20714 0.0
C1516 C 0.62265 0.072 0.17648 0.0
C1517 C 0.64244 0.06422 0.16813 0.0
C1518 C 0.6612 0.07227 0.17887 0.0
C1519 C 0.66022 0.08698 0.19818 0.0
H1520 H 0.74046 0.10061 0.73992 0.0
H1521 H 0.77684 0.14866 0.70106 0.0
H1522 H 0.71072 0.10612 0.71162 0.0
H1523 H 0.74684 0.15438 0.67296 0.0
H1524 H 0.68299 0.16877 0.6355 0.0
H1525 H 0.70856 0.16678 0.6698 0.0
H1526 H 0.70565 0.09799 0.66722 0.0
H1527 H 0.68029 0.09997 0.63322 0.0
C1528 C 0.74215 0.11235 0.72534 0.0
C1529 C 0.76123 0.12395 0.72259 0.0
C1530 C 0.72503 0.11558 0.70921 0.0
C1531 C 0.72645 0.13061 0.68998 0.0
C1532 C 0.74516 0.14285 0.68777 0.0
C1533 C 0.76237 0.13954 0.70386 0.0
C1534 C 0.68746 0.15326 0.6427 0.0
C1535 C 0.67967 0.13451 0.63169 0.0
C1536 C 0.70225 0.15212 0.66214 0.0
C1537 C 0.70921 0.13223 0.67113 0.0
C1538 C 0.7005 0.11356 0.6609 0.0
C1539 C 0.68601 0.1147 0.64135 0.0
H1540 H 0.62692 0.99952 0.48837 0.0
H1541 H 0.67421 0.02823 0.44078 0.0
H1542 H 0.62258 0.97025 0.45888 0.0
H1543 H 0.66976 0.99928 0.41132 0.0
H1544 H 0.67536 0.93567 0.37553 0.0
H1545 H 0.67822 0.96214 0.40813 0.0
H1546 H 0.6098 0.96096 0.41752 0.0
H1547 H 0.60701 0.9339 0.38504 0.0
C1548 C 0.63621 0.99971 0.47149 0.0
C1549 C 0.65106 0.01612 0.46703 0.0
C1550 C 0.63373 0.98293 0.4546 0.0
C1551 C 0.64604 0.9822 0.43287 0.0
C1552 C 0.66043 0.99896 0.42817 0.0
C1553 C 0.66295 0.01564 0.44503 0.0
C1554 C 0.66093 0.9408 0.38479 0.0
C1555 C 0.64095 0.93278 0.37758 0.0
C1556 C 0.66255 0.95615 0.40335 0.0
C1557 C 0.6442 0.96409 0.4151 0.0
C1558 C 0.62426 0.95521 0.40888 0.0
C1559 C 0.62265 0.93965 0.3903 0.0
H1560 H 0.84438 0.85643 0.13649 0.0
H1561 H 0.84009 0.9248 0.12792 0.0
H1562 H 0.81882 0.85813 0.17081 0.0
H1563 H 0.81463 0.92646 0.16164 0.0
H1564 H 0.78106 0.92643 0.23442 0.0
H1565 H 0.81062 0.92182 0.20588 0.0
H1566 H 0.77997 0.86613 0.17517 0.0
H1567 H 0.75059 0.87026 0.20453 0.0
C1568 C 0.83832 0.87183 0.14223 0.0
C1569 C 0.84422 0.89048 0.12949 0.0
C1570 C 0.82352 0.87278 0.16167 0.0
C1571 C 0.8146 0.89242 0.16891 0.0
C1572 C 0.8213 0.9111 0.15678 0.0
C1573 C 0.83586 0.91013 0.13734 0.0
C1574 C 0.78074 0.91294 0.22194 0.0
C1575 C 0.76337 0.89872 0.22181 0.0
C1576 C 0.79764 0.91042 0.20538 0.0
C1577 C 0.79765 0.89366 0.18815 0.0
C1578 C 0.78057 0.8791 0.18836 0.0
C1579 C 0.76359 0.88164 0.20496 0.0
H1580 H 0.84981 0.09263 0.88023 0.0
H1581 H 0.91855 0.09237 0.88493 0.0
H1582 H 0.84785 0.06732 0.91428 0.0
H1583 H 0.91659 0.0668 0.9193 0.0
H1584 H 0.89981 0.99816 0.95102 0.0
H1585 H 0.90532 0.02805 0.92265 0.0
H1586 H 0.85506 0.06302 0.95902 0.0
H1587 H 0.84974 0.03342 0.98758 0.0
C1588 C 0.86452 0.08744 0.88888 0.0
C1589 C 0.88433 0.09448 0.8799 0.0
C1590 C 0.86339 0.07297 0.90847 0.0
C1591 C 0.88207 0.06496 0.91944 0.0
C1592 C 0.90193 0.07257 0.91107 0.0
C1593 C 0.90305 0.08736 0.8916 0.0
C1594 C 0.89018 1.01236 0.95326 0.0
C1595 C 0.87411 0.0132 0.97141 0.0
C1596 C 0.89338 0.02952 0.93702 0.0
C1597 C 0.88053 0.04786 0.93849 0.0
C1598 C 0.865 0.04899 0.95716 0.0
C1599 C 0.86188 0.03194 0.97344 0.0
H1600 H 0.7487 0.60137 0.68688 0.0
H1601 H 0.77484 0.64889 0.73607 0.0
H1602 H 0.77899 0.60593 0.65929 0.0
H1603 H 0.80538 0.65346 0.70833 0.0
H1604 H 0.84359 0.66883 0.63487 0.0
H1605 H 0.81569 0.66616 0.66644 0.0
H1606 H 0.81681 0.5975 0.65987 0.0
H1607 H 0.84422 0.60019 0.62824 0.0
C1608 C 0.76099 0.61273 0.69187 0.0
C1609 C 0.75945 0.6246 0.7138 0.0
C1610 C 0.77841 0.61531 0.67609 0.0
C1611 C 0.79481 0.6298 0.68182 0.0
C1612 C 0.793 0.6422 0.70337 0.0
C1613 C 0.77549 0.63961 0.71921 0.0
C1614 C 0.83821 0.65317 0.64063 0.0
C1615 C 0.84593 0.63472 0.6289 0.0
C1616 C 0.82218 0.65164 0.65865 0.0
C1617 C 0.81368 0.63163 0.66524 0.0
C1618 C 0.82257 0.61319 0.65472 0.0
C1619 C 0.83843 0.61472 0.63674 0.0
H1620 H 0.60786 0.59256 0.88367 0.0
H1621 H 0.67626 0.59086 0.8746 0.0
H1622 H 0.61041 0.56495 0.91563 0.0
H1623 H 0.67885 0.56373 0.90662 0.0
H1624 H 0.67361 0.49631 0.93569 0.0
H1625 H 0.66941 0.52628 0.90752 0.0
H1626 H 0.62362 0.55477 0.95715 0.0
H1627 H 0.6278 0.52454 0.98546 0.0
C1628 C 0.62346 0.58673 0.88896 0.0
C1629 C 0.64184 0.59373 0.87646 0.0
C1630 C 0.62493 0.57086 0.90721 0.0
C1631 C 0.6448 0.56179 0.91328 0.0
C1632 C 0.66324 0.56992 0.90191 0.0
C1633 C 0.66177 0.58562 0.88369 0.0
C1634 C 0.66272 0.50899 0.94068 0.0
C1635 C 0.65121 0.50811 0.96293 0.0
C1636 C 0.66034 0.52624 0.92456 0.0
C1637 C 0.64644 0.54314 0.93026 0.0
C1638 C 0.63442 0.542 0.95218 0.0
C1639 C 0.63679 0.52466 0.96835 0.0
H1640 H 0.68427 0.42549 0.12473 0.0
H1641 H 0.68216 0.35713 0.1344 0.0
H1642 H 0.71136 0.42811 0.15674 0.0
H1643 H 0.70973 0.35971 0.16637 0.0
H1644 H 0.74991 0.37731 0.23628 0.0
H1645 H 0.71983 0.37306 0.20781 0.0
H1646 H 0.74875 0.41855 0.15797 0.0
H1647 H 0.77858 0.42281 0.18631 0.0
C1648 C 0.68941 0.41102 0.13394 0.0
C1649 C 0.68118 0.39109 0.12688 0.0
C1650 C 0.7051 0.4125 0.15216 0.0
C1651 C 0.7131 0.39408 0.16372 0.0
C1652 C 0.70393 0.37422 0.15781 0.0
C1653 C 0.68808 0.37274 0.13955 0.0
C1654 C 0.74992 0.38621 0.2191 0.0
C1655 C 0.76655 0.40056 0.21367 0.0
C1656 C 0.73266 0.3838 0.20282 0.0
C1657 C 0.73169 0.39572 0.1808 0.0
C1658 C 0.74867 0.40956 0.17509 0.0
C1659 C 0.76583 0.41197 0.19131 0.0
H1660 H 0.85355 0.53028 0.4376 0.0
H1661 H 0.89848 0.50032 0.48723 0.0
H1662 H 0.85713 0.50056 0.40903 0.0
H1663 H 0.90199 0.47034 0.45859 0.0
H1664 H 0.91719 0.43237 0.38568 0.0
H1665 H 0.91511 0.46005 0.41748 0.0
H1666 H 0.84687 0.46354 0.40712 0.0
H1667 H 0.849 0.4364 0.37519 0.0
C1668 C 0.86412 0.51727 0.44247 0.0
C1669 C 0.87558 0.51761 0.46479 0.0
C1670 C 0.86613 0.50017 0.42613 0.0
C1671 C 0.8796 0.48286 0.43168 0.0
C1672 C 0.89154 0.48343 0.4537 0.0
C1673 C 0.88955 0.50063 0.47008 0.0
C1674 C 0.90171 0.43876 0.39058 0.0
C1675 C 0.88328 0.43235 0.37774 0.0
C1676 C 0.90052 0.45466 0.40876 0.0
C1677 C 0.88087 0.46436 0.41448 0.0
C1678 C 0.86234 0.45688 0.40269 0.0
C1679 C 0.86354 0.44116 0.38453 0.0
H1680 H 0.74583 0.42336 0.89965 0.0
H1681 H 0.77527 0.37852 0.84965 0.0
H1682 H 0.77542 0.41906 0.92833 0.0
H1683 H 0.80514 0.37428 0.87843 0.0
H1684 H 0.8425 0.35796 0.95182 0.0
H1685 H 0.81509 0.36064 0.91966 0.0
H1686 H 0.81261 0.42888 0.93032 0.0
H1687 H 0.83946 0.42614 0.96257 0.0
C1688 C 0.75871 0.41266 0.89472 0.0
C1689 C 0.75828 0.40144 0.87226 0.0
C1690 C 0.77573 0.41023 0.91113 0.0
C1691 C 0.79286 0.39659 0.90551 0.0
C1692 C 0.79218 0.38487 0.88336 0.0
C1693 C 0.77506 0.38727 0.8669 0.0
C1694 C 0.83639 0.37355 0.94689 0.0
C1695 C 0.84297 0.39181 0.95991 0.0
C1696 C 0.82065 0.37509 0.92851 0.0
C1697 C 0.8113 0.39492 0.9228 0.0
C1698 C 0.819 0.41328 0.93474 0.0
C1699 C 0.83455 0.41173 0.95309 0.0
H1700 H 0.85106 0.59092 0.20972 0.0
H1701 H 0.91954 0.5931 0.20139 0.0
H1702 H 0.84869 0.56522 0.1762 0.0
H1703 H 0.91714 0.56721 0.1675 0.0
H1704 H 0.90197 0.49795 0.13729 0.0
H1705 H 0.90742 0.52822 0.16504 0.0
H1706 H 0.85409 0.56074 0.13137 0.0
H1707 H 0.84878 0.53072 0.10349 0.0
C1708 C 0.8656 0.58617 0.2004 0.0
C1709 C 0.88549 0.59399 0.20824 0.0
C1710 C 0.86423 0.57149 0.18111 0.0
C1711 C 0.88274 0.56409 0.16925 0.0
C1712 C 0.90262 0.57248 0.17645 0.0
C1713 C 0.90397 0.58744 0.19566 0.0
C1714 C 0.89163 0.5117 0.13552 0.0
C1715 C 0.87474 0.51173 0.11838 0.0
C1716 C 0.89479 0.52907 0.1514 0.0
C1717 C 0.88109 0.54682 0.15051 0.0
C1718 C 0.86471 0.54716 0.13278 0.0
C1719 C 0.8616 0.52989 0.11689 0.0
H1720 H 0.77417 0.65435 0.3805 0.0
H1721 H 0.74538 0.59661 0.35243 0.0
H1722 H 0.7448 0.65818 0.40991 0.0
H1723 H 0.71578 0.6009 0.38102 0.0
H1724 H 0.68577 0.59935 0.45881 0.0
H1725 H 0.71145 0.59733 0.42531 0.0
H1726 H 0.70597 0.66531 0.41378 0.0
H1727 H 0.68029 0.6674 0.44783 0.0
C1728 C 0.76155 0.64255 0.3805 0.0
C1729 C 0.76221 0.62514 0.36413 0.0
C1730 C 0.74457 0.6449 0.39712 0.0
C1731 C 0.72793 0.62985 0.39782 0.0
C1732 C 0.72842 0.61269 0.38113 0.0
C1733 C 0.74532 0.61035 0.36455 0.0
C1734 C 0.68977 0.61385 0.44892 0.0
C1735 C 0.68102 0.63354 0.45604 0.0
C1736 C 0.70446 0.61267 0.42961 0.0
C1737 C 0.71087 0.63117 0.41691 0.0
C1738 C 0.70154 0.6508 0.42339 0.0
C1739 C 0.68665 0.65197 0.4427 0.0
H1740 H 0.6079 0.43129 0.69961 0.0
H1741 H 0.6762 0.43483 0.70928 0.0
H1742 H 0.61024 0.45713 0.66564 0.0
H1743 H 0.6785 0.46054 0.67566 0.0
H1744 H 0.67829 0.49459 0.6022 0.0
H1745 H 0.67367 0.46485 0.63072 0.0
H1746 H 0.61905 0.49619 0.66292 0.0
H1747 H 0.62381 0.52619 0.63455 0.0
C1748 C 0.62343 0.43724 0.69418 0.0
C1749 C 0.64187 0.43106 0.70716 0.0
C1750 C 0.62475 0.45219 0.67491 0.0
C1751 C 0.64455 0.46097 0.66805 0.0
C1752 C 0.66303 0.45397 0.68031 0.0
C1753 C 0.6617 0.43928 0.69967 0.0
C1754 C 0.66535 0.49525 0.61544 0.0
C1755 C 0.65161 0.51298 0.61627 0.0
C1756 C 0.66264 0.47812 0.6317 0.0
C1757 C 0.64605 0.47819 0.64916 0.0
C1758 C 0.63184 0.49554 0.64948 0.0
C1759 C 0.63461 0.51276 0.63325 0.0
H1760 H 0.18228 0.35735 0.45051 0.0
H1761 H 0.18492 0.42578 0.459 0.0
H1762 H 0.20818 0.35963 0.41666 0.0
H1763 H 0.21072 0.42804 0.42554 0.0
H1764 H 0.24509 0.4277 0.35248 0.0
H1765 H 0.21529 0.42288 0.3808 0.0
H1766 H 0.24711 0.36882 0.4138 0.0
H1767 H 0.27717 0.37377 0.38562 0.0
C1768 C 0.18802 0.37289 0.44482 0.0
C1769 C 0.18155 0.39139 0.45742 0.0
C1770 C 0.20303 0.37417 0.42563 0.0
C1771 C 0.21159 0.39401 0.41848 0.0
C1772 C 0.20432 0.41253 0.43039 0.0
C1773 C 0.18957 0.41123 0.44966 0.0
C1774 C 0.24584 0.41483 0.36584 0.0
C1775 C 0.26374 0.40132 0.36696 0.0
C1776 C 0.22868 0.41202 0.382 0.0
C1777 C 0.22885 0.39554 0.39965 0.0
C1778 C 0.24637 0.38153 0.40023 0.0
C1779 C 0.26363 0.38439 0.3841 0.0
H1780 H 0.35083 0.43402 0.20918 0.0
H1781 H 0.4193 0.43145 0.20094 0.0
H1782 H 0.34864 0.4595 0.17533 0.0
H1783 H 0.41708 0.45709 0.16673 0.0
H1784 H 0.40268 0.52583 0.13472 0.0
H1785 H 0.40762 0.49609 0.16343 0.0
H1786 H 0.35411 0.46345 0.13038 0.0
H1787 H 0.34933 0.4929 0.1015 0.0
C1788 C 0.36541 0.43863 0.19984 0.0
C1789 C 0.38524 0.43073 0.20777 0.0
C1790 C 0.36414 0.4532 0.18035 0.0
C1791 C 0.38269 0.46041 0.16839 0.0
C1792 C 0.40252 0.45197 0.17574 0.0
C1793 C 0.40377 0.43714 0.19514 0.0
C1794 C 0.39218 0.51216 0.1333 0.0
C1795 C 0.37542 0.51194 0.11596 0.0
C1796 C 0.39505 0.4951 0.14974 0.0
C1797 C 0.38118 0.47746 0.14928 0.0
C1798 C 0.36486 0.47695 0.13146 0.0
C1799 C 0.36206 0.49391 0.11499 0.0
H1800 H 0.27727 0.65007 0.84756 0.0
H1801 H 0.251 0.60016 0.89348 0.0
H1802 H 0.30692 0.65431 0.87664 0.0
H1803 H 0.28034 0.60446 0.92247 0.0
H1804 H 0.34461 0.59925 0.95636 0.0
H1805 H 0.31796 0.59696 0.92383 0.0
H1806 H 0.31641 0.66573 0.91881 0.0
H1807 H 0.34364 0.66797 0.95125 0.0
C1808 C 0.27769 0.64018 0.86399 0.0
C1809 C 0.26188 0.62461 0.86807 0.0
C1810 C 0.2947 0.64259 0.88063 0.0
C1811 C 0.29624 0.62949 0.90169 0.0
C1812 C 0.28003 0.61442 0.90609 0.0
C1813 C 0.26314 0.61198 0.8895 0.0
C1814 C 0.33887 0.61389 0.94803 0.0
C1815 C 0.34612 0.63379 0.95649 0.0
C1816 C 0.32342 0.61259 0.92953 0.0
C1817 C 0.31463 0.63116 0.9191 0.0
C1818 C 0.32283 0.6511 0.92645 0.0
C1819 C 0.33849 0.6524 0.94497 0.0
H1820 H 0.1773 0.59447 0.70355 0.0
H1821 H 0.10852 0.59437 0.69956 0.0
H1822 H 0.17887 0.5685 0.67025 0.0
H1823 H 0.11008 0.56827 0.66586 0.0
H1824 H 0.12558 0.49922 0.63554 0.0
H1825 H 0.12061 0.52968 0.66312 0.0
H1826 H 0.17172 0.56302 0.62606 0.0
H1827 H 0.17656 0.53279 0.59841 0.0
C1828 C 0.1625 0.5892 0.69518 0.0
C1829 C 0.14279 0.59648 0.70418 0.0
C1830 C 0.1634 0.57435 0.67601 0.0
C1831 C 0.1446 0.56622 0.66545 0.0
C1832 C 0.12484 0.5741 0.67378 0.0
C1833 C 0.12395 0.58922 0.69286 0.0
C1834 C 0.13552 0.51318 0.63301 0.0
C1835 C 0.15168 0.51338 0.61496 0.0
C1836 C 0.13264 0.53067 0.64879 0.0
C1837 C 0.14587 0.54873 0.6469 0.0
C1838 C 0.16149 0.54922 0.62828 0.0
C1839 C 0.16432 0.53182 0.6125 0.0
H1840 H 0.18617 0.60236 0.12508 0.0
H1841 H 0.18088 0.67038 0.13622 0.0
H1842 H 0.21069 0.59985 0.15957 0.0
H1843 H 0.20535 0.66777 0.17152 0.0
H1844 H 0.272 0.65598 0.20861 0.0
H1845 H 0.24351 0.66071 0.17825 0.0
H1846 H 0.21402 0.60232 0.20345 0.0
H1847 H 0.24289 0.59704 0.23277 0.0
C1848 C 0.18995 0.61678 0.13519 0.0
C1849 C 0.1816 0.63659 0.12778 0.0
C1850 C 0.20398 0.61531 0.15515 0.0
C1851 C 0.21009 0.63361 0.16836 0.0
C1852 C 0.20116 0.65339 0.16156 0.0
C1853 C 0.18696 0.65486 0.14152 0.0
C1854 C 0.25949 0.6441 0.2076 0.0
C1855 C 0.2599 0.62605 0.22311 0.0
C1856 C 0.24297 0.64698 0.19042 0.0
C1857 C 0.22647 0.63186 0.18831 0.0
C1858 C 0.22658 0.61417 0.20432 0.0
C1859 C 0.24307 0.61126 0.22139 0.0
H1860 H 0.17274 0.43669 0.87551 0.0
H1861 H 0.10441 0.43365 0.88504 0.0
H1862 H 0.17523 0.46226 0.90912 0.0
H1863 H 0.10695 0.4593 0.91908 0.0
H1864 H 0.12056 0.5276 0.95175 0.0
H1865 H 0.11565 0.49802 0.9229 0.0
H1866 H 0.17087 0.46656 0.95373 0.0
H1867 H 0.17567 0.49591 0.98263 0.0
C1868 C 0.15826 0.44121 0.88507 0.0
C1869 C 0.13837 0.43314 0.87752 0.0
C1870 C 0.1597 0.45584 0.90445 0.0
C1871 C 0.14128 0.46293 0.91676 0.0
C1872 C 0.12141 0.45433 0.9098 0.0
C1873 C 0.11999 0.43947 0.89047 0.0
C1874 C 0.13147 0.51423 0.95263 0.0
C1875 C 0.14869 0.51433 0.96934 0.0
C1876 C 0.12862 0.49724 0.93611 0.0
C1877 C 0.14295 0.47997 0.93588 0.0
C1878 C 0.15975 0.47978 0.9531 0.0
C1879 C 0.16256 0.49669 0.96962 0.0
H1880 H 0.34265 0.35575 0.63589 0.0
H1881 H 0.33659 0.42367 0.62434 0.0
H1882 H 0.31503 0.35744 0.66795 0.0
H1883 H 0.30947 0.42538 0.65631 0.0
H1884 H 0.24306 0.41727 0.6869 0.0
H1885 H 0.27257 0.41349 0.65808 0.0
H1886 H 0.30474 0.3716 0.70941 0.0
H1887 H 0.27502 0.37541 0.73846 0.0
C1888 C 0.33581 0.37108 0.64057 0.0
C1889 C 0.34164 0.38954 0.62738 0.0
C1890 C 0.31995 0.37205 0.65888 0.0
C1891 C 0.3097 0.39148 0.6643 0.0
C1892 C 0.31658 0.41006 0.65213 0.0
C1893 C 0.33228 0.4091 0.63391 0.0
C1894 C 0.25644 0.40731 0.69214 0.0
C1895 C 0.25675 0.39685 0.71513 0.0
C1896 C 0.27341 0.40517 0.67562 0.0
C1897 C 0.29122 0.39253 0.6816 0.0
C1898 C 0.29126 0.38142 0.70422 0.0
C1899 C 0.2742 0.38358 0.72083 0.0
H1900 H 0.40392 0.50086 0.45542 0.0
H1901 H 0.34704 0.53065 0.48437 0.0
H1902 H 0.40802 0.53024 0.42598 0.0
H1903 H 0.35162 0.56023 0.45575 0.0
H1904 H 0.34912 0.58931 0.37748 0.0
H1905 H 0.3474 0.56399 0.4114 0.0
H1906 H 0.41556 0.56918 0.42151 0.0
H1907 H 0.41732 0.59459 0.387 0.0
C1908 C 0.39238 0.51371 0.45563 0.0
C1909 C 0.3751 0.5133 0.47223 0.0
C1910 C 0.39489 0.53069 0.43899 0.0
C1911 C 0.38012 0.54758 0.43849 0.0
C1912 C 0.36318 0.54739 0.45549 0.0
C1913 C 0.36067 0.53049 0.47208 0.0
C1914 C 0.36373 0.58534 0.38715 0.0
C1915 C 0.38336 0.59393 0.37951 0.0
C1916 C 0.36273 0.57086 0.40671 0.0
C1917 C 0.38135 0.56448 0.41915 0.0
C1918 C 0.40096 0.57363 0.41213 0.0
C1919 C 0.40194 0.58835 0.39257 0.0
H1920 H 0.10128 0.26369 0.41653 0.0
H1921 H 0.16977 0.26814 0.42371 0.0
H1922 H 0.10548 0.23428 0.38734 0.0
H1923 H 0.17392 0.23955 0.39379 0.0
H1924 H 0.17358 0.17039 0.36967 0.0
H1925 H 0.16828 0.20182 0.39487 0.0
H1926 H 0.11779 0.2226 0.34607 0.0
H1927 H 0.12311 0.19048 0.3206 0.0
C1928 C 0.11725 0.25854 0.41179 0.0
C1929 C 0.13518 0.26823 0.42283 0.0
C1930 C 0.11964 0.24182 0.39477 0.0
C1931 C 0.14003 0.23431 0.38835 0.0
C1932 C 0.15794 0.24461 0.39859 0.0
C1933 C 0.15556 0.26127 0.41559 0.0
C1934 C 0.16136 0.18165 0.36415 0.0
C1935 C 0.14875 0.1779 0.34311 0.0
C1936 C 0.15841 0.19983 0.37858 0.0
C1937 C 0.14278 0.21499 0.37243 0.0
C1938 C 0.12993 0.21122 0.35143 0.0
C1939 C 0.13295 0.19286 0.33683 0.0
H1940 H 0.10677 0.92611 0.61852 0.0
H1941 H 0.08639 0.87396 0.57214 0.0
H1942 H 0.07688 0.92001 0.64591 0.0
H1943 H 0.05625 0.86732 0.60038 0.0
H1944 H 0.9927 0.87994 0.64536 0.0
H1945 H 0.02218 0.88296 0.6158 0.0
H1946 H 0.06576 0.89444 0.67621 0.0
H1947 H 0.0365 0.8916 0.70548 0.0
C1948 C 0.09591 0.91319 0.61421 0.0
C1949 C 0.09914 0.90036 0.59325 0.0
C1950 C 0.07879 0.90957 0.63012 0.0
C1951 C 0.06425 0.89295 0.62569 0.0
C1952 C 0.06714 0.88027 0.60439 0.0
C1953 C 0.08447 0.88394 0.58831 0.0
C1954 C 1.00862 0.88295 0.65231 0.0
C1955 C 1.01212 0.88589 0.67783 0.0
C1956 C 0.02554 0.88461 0.63535 0.0
C1957 C 0.04636 0.88922 0.64352 0.0
C1958 C 0.04989 0.8914 0.66911 0.0
C1959 C 0.03305 0.88982 0.68597 0.0
H1960 H 0.35395 0.85398 0.86853 0.0
H1961 H 0.40623 0.83514 0.82151 0.0
H1962 H 0.35936 0.82272 0.89409 0.0
H1963 H 0.41172 0.80324 0.84741 0.0
H1964 H 0.4271 0.76251 0.91881 0.0
H1965 H 0.42309 0.7919 0.88943 0.0
H1966 H 0.35466 0.78476 0.89269 0.0
H1967 H 0.35858 0.75612 0.92273 0.0
C1968 C 0.36662 0.84305 0.86355 0.0
C1969 C 0.37968 0.84711 0.84295 0.0
C1970 C 0.36963 0.82497 0.87819 0.0
C1971 C 0.3858 0.81021 0.87274 0.0
C1972 C 0.39914 0.8143 0.85223 0.0
C1973 C 0.39604 0.83256 0.83739 0.0
C1974 C 0.41118 0.76724 0.91332 0.0
C1975 C 0.39316 0.75699 0.92348 0.0
C1976 C 0.40891 0.78395 0.8962 0.0
C1977 C 0.38855 0.79093 0.88882 0.0
C1978 C 0.3706 0.78011 0.89823 0.0
C1979 C 0.37285 0.76344 0.9153 0.0
H1980 H 0.44011 0.15462 0.07271 0.0
H1981 H 0.41729 0.10547 0.122 0.0
H1982 H 0.47011 0.16155 0.10113 0.0
H1983 H 0.44693 0.11196 0.14972 0.0
H1984 H 0.48868 0.14088 0.20756 0.0
H1985 H 0.45923 0.13881 0.17838 0.0
H1986 H 0.50343 0.14412 0.11749 0.0
H1987 H 0.53312 0.14626 0.14689 0.0
C1988 C 0.44143 0.14543 0.08962 0.0
C1989 C 0.42624 0.12963 0.09521 0.0
C1990 C 0.45865 0.14925 0.10579 0.0
C1991 C 0.46086 0.13744 0.12789 0.0
C1992 C 0.4456 0.12167 0.13321 0.0
C1993 C 0.42863 0.11783 0.11714 0.0
C1994 C 0.49221 0.14149 0.18796 0.0
C1995 C 0.51338 0.14335 0.17965 0.0
C1996 C 0.47527 0.14037 0.17118 0.0
C1997 C 0.47892 0.14102 0.14551 0.0
C1998 C 0.5 0.1437 0.13712 0.0
C1999 C 0.51703 0.14486 0.15399 0.0
H2000 H 0.11967 0.83835 0.2623 0.0
H2001 H 0.17781 0.85226 0.22267 0.0
H2002 H 0.11456 0.80628 0.23654 0.0
H2003 H 0.17306 0.82048 0.19783 0.0
H2004 H 0.17146 0.75242 0.17349 0.0
H2005 H 0.17352 0.78078 0.20412 0.0
H2006 H 0.10798 0.79754 0.18959 0.0
H2007 H 0.10593 0.76933 0.15838 0.0
C2008 C 0.13129 0.83462 0.24815 0.0
C2009 C 0.14902 0.848 0.24439 0.0
C2010 C 0.12841 0.81627 0.23346 0.0
C2011 C 0.1435 0.81076 0.21522 0.0
C2012 C 0.1613 0.82404 0.21189 0.0
C2013 C 0.16395 0.84237 0.22615 0.0
C2014 C 0.15743 0.76209 0.17673 0.0
C2015 C 0.13865 0.75872 0.16301 0.0
C2016 C 0.1586 0.7783 0.19443 0.0
C2017 C 0.14098 0.79158 0.19912 0.0
C2018 C 0.12179 0.78751 0.18652 0.0
C2019 C 0.12065 0.77131 0.16861 0.0
H2020 H 0.50912 0.85092 0.41417 0.0
H2021 H 0.52055 0.91879 0.41789 0.0
H2022 H 0.48022 0.85453 0.44421 0.0
H2023 H 0.49225 0.92223 0.44845 0.0
H2024 H 0.42235 0.92489 0.47156 0.0
H2025 H 0.45371 0.91994 0.44608 0.0
H2026 H 0.47015 0.86348 0.48778 0.0
H2027 H 0.43829 0.86861 0.51375 0.0
C2028 C 0.5056 0.8666 0.4215 0.0
C2029 C 0.51709 0.88461 0.41329 0.0
C2030 C 0.48918 0.8686 0.43897 0.0
C2031 C 0.48372 0.88869 0.44862 0.0
C2032 C 0.49578 0.90654 0.44116 0.0
C2033 C 0.5122 0.90454 0.42377 0.0
C2034 C 0.43265 0.91143 0.47549 0.0
C2035 C 0.42772 0.89708 0.49465 0.0
C2036 C 0.45078 0.90867 0.4609 0.0
C2037 C 0.46464 0.89142 0.46493 0.0
C2038 C 0.45975 0.8769 0.48409 0.0
C2039 C 0.44153 0.8798 0.49895 0.0
H2040 H 0.39608 0.2827 0.68991 0.0
H2041 H 0.38883 0.23719 0.6306 0.0
H2042 H 0.39276 0.25368 0.7202 0.0
H2043 H 0.38622 0.20843 0.66056 0.0
H2044 H 0.35333 0.1678 0.71798 0.0
H2045 H 0.35922 0.1975 0.69017 0.0
H2046 H 0.41064 0.21989 0.73656 0.0
H2047 H 0.40434 0.18982 0.76514 0.0
C2048 C 0.39382 0.26656 0.68332 0.0
C2049 C 0.39268 0.26235 0.65775 0.0
C2050 C 0.39219 0.2499 0.70067 0.0
C2051 C 0.38915 0.22871 0.69284 0.0
C2052 C 0.38832 0.22456 0.6673 0.0
C2053 C 0.39002 0.24109 0.65006 0.0
C2054 C 0.36594 0.17899 0.72238 0.0
C2055 C 0.37852 0.17629 0.74367 0.0
C2056 C 0.36941 0.196 0.70627 0.0
C2057 C 0.38557 0.21099 0.71089 0.0
C2058 C 0.39804 0.20861 0.73246 0.0
C2059 C 0.39458 0.19133 0.7487 0.0
H2060 H 0.10794 0.10711 0.96364 0.0
H2061 H 0.08482 0.15441 1.01496 0.0
H2062 H 0.07822 0.11421 0.93629 0.0
H2063 H 0.05461 0.16186 0.98694 0.0
H2064 H 0.99157 0.14601 0.94057 0.0
H2065 H 0.02135 0.14388 0.96989 0.0
H2066 H 0.06567 0.14226 0.90887 0.0
H2067 H 0.03616 0.14437 0.87977 0.0
C2068 C 0.0965 0.11918 0.96906 0.0
C2069 C 0.09882 0.13026 0.99147 0.0
C2070 C 0.07948 0.12337 0.9532 0.0
C2071 C 0.06407 0.13876 0.9592 0.0
C2072 C 0.0662 0.14987 0.98177 0.0
C2073 C 0.08352 0.14573 0.99773 0.0
C2074 C 1.0077 0.14545 0.93344 0.0
C2075 C 1.01139 0.14494 0.90773 0.0
C2076 C 0.02477 0.1443 0.95027 0.0
C2077 C 0.04592 0.14262 0.94178 0.0
C2078 C 0.04959 0.14305 0.91611 0.0
C2079 C 0.03261 0.14417 0.89937 0.0
H2080 H 0.90583 0.83835 0.76376 0.0
H2081 H 0.84866 0.85271 0.72243 0.0
H2082 H 0.91123 0.80629 0.73815 0.0
H2083 H 0.85375 0.82099 0.69757 0.0
H2084 H 0.85584 0.75277 0.67292 0.0
H2085 H 0.8527 0.7816 0.70284 0.0
H2086 H 0.91914 0.79721 0.69249 0.0
H2087 H 0.92228 0.76856 0.66207 0.0
C2088 C 0.89449 0.83471 0.74926 0.0
C2089 C 0.87693 0.84817 0.745 0.0
C2090 C 0.89754 0.81638 0.73464 0.0
C2091 C 0.88282 0.811 0.71592 0.0
C2092 C 0.86521 0.82441 0.71204 0.0
C2093 C 0.86236 0.84271 0.72628 0.0
C2094 C 0.86981 0.76233 0.6769 0.0
C2095 C 0.88924 0.75842 0.66469 0.0
C2096 C 0.86803 0.77882 0.69418 0.0
C2097 C 0.88563 0.79184 0.69991 0.0
C2098 C 0.90532 0.78737 0.68864 0.0
C2099 C 0.90709 0.77091 0.67118 0.0
H2100 H 1.01206 0.17699 0.41599 0.0
H2101 H 0.02175 0.10877 0.41625 0.0
H2102 H 0.98298 0.17286 0.44576 0.0
H2103 H 0.99333 0.1048 0.44652 0.0
H2104 H 0.92327 0.10262 0.46802 0.0
H2105 H 0.95484 0.10837 0.4432 0.0
H2106 H 0.97232 0.16191 0.48912 0.0
H2107 H 0.94018 0.15595 0.51452 0.0
C2108 C 1.00815 0.16113 0.42251 0.0
C2109 C 0.01919 0.14319 0.41339 0.0
C2110 C 0.99162 0.15881 0.43983 0.0
C2111 C 0.98563 0.13848 0.44839 0.0
C2112 C 0.99728 0.12068 0.44008 0.0
C2113 C 0.01379 0.12299 0.42285 0.0
C2114 C 0.93382 0.11561 0.47305 0.0
C2115 C 0.92912 0.12887 0.49327 0.0
C2116 C 0.95207 0.11882 0.45881 0.0
C2117 C 0.96632 0.13545 0.46425 0.0
C2118 C 0.96163 0.14897 0.48439 0.0
C2119 C 0.94325 0.1456 0.49891 0.0
H2120 H 0.6689 0.26916 0.16416 0.0
H2121 H 0.6004 0.26291 0.1691 0.0
H2122 H 0.67309 0.24069 0.19432 0.0
H2123 H 0.60469 0.23361 0.19855 0.0
H2124 H 0.62212 0.1898 0.2656 0.0
H2125 H 0.61654 0.22204 0.24029 0.0
H2126 H 0.66823 0.20277 0.1925 0.0
H2127 H 0.67378 0.17123 0.2175 0.0
C2128 C 0.65469 0.26193 0.17186 0.0
C2129 C 0.63431 0.26833 0.16391 0.0
C2130 C 0.6571 0.24535 0.18899 0.0
C2131 C 0.63923 0.23456 0.19864 0.0
C2132 C 0.6188 0.24155 0.19157 0.0
C2133 C 0.61638 0.2582 0.17442 0.0
C2134 C 0.63219 0.19255 0.24965 0.0
C2135 C 0.6484 0.17799 0.24358 0.0
C2136 C 0.62902 0.21097 0.23514 0.0
C2137 C 0.64213 0.2152 0.21448 0.0
C2138 C 0.65816 0.20043 0.20854 0.0
C2139 C 0.66125 0.18218 0.22285 0.0
H2140 H 0.51437 0.85032 0.91711 0.0
H2141 H 0.50718 0.91883 0.91492 0.0
H2142 H 0.54355 0.85409 0.94674 0.0
H2143 H 0.53553 0.92248 0.94529 0.0
H2144 H 0.60455 0.92376 0.97001 0.0
H2145 H 0.57338 0.91861 0.94426 0.0
H2146 H 0.55485 0.86439 0.98873 0.0
H2147 H 0.58673 0.86953 1.0147 0.0
C2148 C 0.51886 0.86618 0.92304 0.0
C2149 C 0.50847 0.88428 0.91326 0.0
C2150 C 0.53546 0.86831 0.94031 0.0
C2151 C 0.54214 0.8886 0.94827 0.0
C2152 C 0.53113 0.9066 0.93929 0.0
C2153 C 0.51461 0.90449 0.92203 0.0
C2154 C 0.59384 0.91074 0.97446 0.0
C2155 C 0.59815 0.89705 0.99444 0.0
C2156 C 0.5758 0.90788 0.95972 0.0
C2157 C 0.56133 0.89125 0.9645 0.0
C2158 C 0.56568 0.87733 0.98443 0.0
C2159 C 0.5839 0.88026 0.99934 0.0
H2160 H 0.885 0.23873 0.95537 0.0
H2161 H 0.89497 0.28289 0.89512 0.0
H2162 H 0.88251 0.20945 0.92609 0.0
H2163 H 0.89232 0.25337 0.86557 0.0
H2164 H 0.90207 0.18917 0.82196 0.0
H2165 H 0.90873 0.21931 0.85019 0.0
H2166 H 0.85633 0.19844 0.89607 0.0
H2167 H 0.85015 0.1686 0.86867 0.0
C2168 C 0.8865 0.24224 0.93583 0.0
C2169 C 0.88981 0.26327 0.92764 0.0
C2170 C 0.88513 0.2254 0.919 0.0
C2171 C 0.88693 0.22905 0.89339 0.0
C2172 C 0.89099 0.24996 0.88515 0.0
C2173 C 0.89243 0.26689 0.90209 0.0
C2174 C 0.89215 0.19105 0.8382 0.0
C2175 C 0.87577 0.17636 0.84324 0.0
C2176 C 0.89584 0.20836 0.85426 0.0
C2177 C 0.88323 0.21117 0.87563 0.0
C2178 C 0.86668 0.19658 0.88019 0.0
C2179 C 0.86303 0.1795 0.86429 0.0
H2180 H 0.50602 0.10665 0.67217 0.0
H2181 H 0.51173 0.17525 0.66793 0.0
H2182 H 0.53462 0.10296 0.6422 0.0
H2183 H 0.54118 0.17145 0.63864 0.0
H2184 H 0.5856 0.1543 0.5716 0.0
H2185 H 0.55322 0.15981 0.5967 0.0
H2186 H 0.5725 0.10823 0.64479 0.0
H2187 H 0.60413 0.10277 0.62007 0.0
C2188 C 0.51314 0.121 0.66465 0.0
C2189 C 0.50655 0.14125 0.67278 0.0
C2190 C 0.5298 0.11887 0.64762 0.0
C2191 C 0.54051 0.1369 0.63823 0.0
C2192 C 0.53332 0.15721 0.64543 0.0
C2193 C 0.51658 0.15936 0.6625 0.0
C2194 C 0.58282 0.14426 0.58759 0.0
C2195 C 0.59741 0.12807 0.59378 0.0
C2196 C 0.56432 0.14738 0.60197 0.0
C2197 C 0.56004 0.13424 0.62262 0.0
C2198 C 0.57487 0.11831 0.62874 0.0
C2199 C 0.59318 0.11527 0.61457 0.0
H2200 H 0.61828 0.83771 0.32191 0.0
H2201 H 0.67541 0.85233 0.36318 0.0
H2202 H 0.6132 0.80543 0.34737 0.0
H2203 H 0.67064 0.82038 0.38785 0.0
H2204 H 0.66949 0.75189 0.41162 0.0
H2205 H 0.6721 0.78102 0.38192 0.0
H2206 H 0.60562 0.79586 0.39317 0.0
H2207 H 0.603 0.76692 0.42339 0.0
C2208 C 0.62965 0.83411 0.3364 0.0
C2209 C 0.64713 0.84767 0.34066 0.0
C2210 C 0.6268 0.81564 0.35091 0.0
C2211 C 0.64163 0.81025 0.36952 0.0
C2212 C 0.65911 0.82382 0.37346 0.0
C2213 C 0.66178 0.84223 0.35932 0.0
C2214 C 0.65539 0.76134 0.40788 0.0
C2215 C 0.63612 0.75715 0.42029 0.0
C2216 C 0.65687 0.77799 0.39072 0.0
C2217 C 0.63911 0.79089 0.38533 0.0
C2218 C 0.61955 0.78613 0.39677 0.0
C2219 C 0.61809 0.7695 0.41411 0.0
H2220 H 0.91929 0.92545 0.11807 0.0
H2221 H 0.93918 0.87228 0.07301 0.0
H2222 H 0.94921 0.9197 0.14555 0.0
H2223 H 0.96943 0.86609 0.10133 0.0
H2224 H 0.03287 0.87891 0.14702 0.0
H2225 H 1.0039 0.88268 0.11678 0.0
H2226 H 0.95942 0.89364 0.17633 0.0
H2227 H 0.98817 0.89063 0.2062 0.0
C2228 C 0.93007 0.9124 0.11404 0.0
C2229 C 0.92667 0.89916 0.09346 0.0
C2230 C 0.94721 0.90901 0.12999 0.0
C2231 C 0.96162 0.89223 0.12596 0.0
C2232 C 0.95862 0.87917 0.105 0.0
C2233 C 0.94124 0.88258 0.08889 0.0
C2234 C 0.01691 0.88226 0.15361 0.0
C2235 C 0.01294 0.88451 0.17913 0.0
C2236 C 1.00027 0.88416 0.13628 0.0
C2237 C 0.97931 0.88856 0.14406 0.0
C2238 C 0.97537 0.89051 0.16958 0.0
C2239 C 0.99189 0.88856 0.1868 0.0
H2240 H 0.67465 0.66928 0.86568 0.0
H2241 H 0.62103 0.6896 0.82146 0.0
H2242 H 0.66935 0.69907 0.89337 0.0
H2243 H 0.61522 0.71965 0.85008 0.0
H2244 H 0.62806 0.78272 0.89599 0.0
H2245 H 0.63156 0.75394 0.86554 0.0
H2246 H 0.64417 0.7093 0.92463 0.0
H2247 H 0.6415 0.73788 0.95466 0.0
C2248 C 0.66158 0.6801 0.86191 0.0
C2249 C 0.64808 0.67684 0.8415 0.0
C2250 C 0.65845 0.69718 0.87798 0.0
C2251 C 0.64165 0.71165 0.87429 0.0
C2252 C 0.62831 0.70879 0.8535 0.0
C2253 C 0.63149 0.69149 0.83724 0.0
C2254 C 0.63174 0.76678 0.90242 0.0
C2255 C 0.63453 0.76271 0.92787 0.0
C2256 C 0.63348 0.75023 0.88498 0.0
C2257 C 0.63824 0.72926 0.89255 0.0
C2258 C 0.64076 0.72525 0.918 0.0
C2259 C 0.639 0.74168 0.93533 0.0
H2260 H 0.60666 0.4224 0.11738 0.0
H2261 H 0.58489 0.37069 0.07117 0.0
H2262 H 0.57703 0.41665 0.1453 0.0
H2263 H 0.55492 0.36453 0.09986 0.0
H2264 H 0.49223 0.37842 0.14649 0.0
H2265 H 0.52106 0.382 0.11606 0.0
H2266 H 0.5664 0.39002 0.17543 0.0
H2267 H 0.53782 0.38716 0.20553 0.0
C2268 C 0.59553 0.40967 0.1132 0.0
C2269 C 0.5983 0.39684 0.09216 0.0
C2270 C 0.57856 0.40629 0.12938 0.0
C2271 C 0.56368 0.38995 0.12508 0.0
C2272 C 0.5661 0.37727 0.10372 0.0
C2273 C 0.58332 0.38065 0.08742 0.0
C2274 C 0.50835 0.38107 0.153 0.0
C2275 C 0.51263 0.38254 0.17854 0.0
C2276 C 0.5249 0.38286 0.13556 0.0
C2277 C 0.54607 0.38637 0.14326 0.0
C2278 C 0.55029 0.38756 0.16878 0.0
C2279 C 0.53386 0.38571 0.18611 0.0
H2280 H 0.90471 0.3362 0.32249 0.0
H2281 H 0.851 0.35467 0.36749 0.0
H2282 H 0.90997 0.30457 0.34885 0.0
H2283 H 0.85623 0.32369 0.3936 0.0
H2284 H 0.85604 0.2574 0.42334 0.0
H2285 H 0.85222 0.28576 0.39294 0.0
H2286 H 0.92061 0.29372 0.39098 0.0
H2287 H 0.92454 0.26457 0.42066 0.0
C2288 C 0.89413 0.33357 0.33802 0.0
C2289 C 0.87746 0.34794 0.34289 0.0
C2290 C 0.89712 0.31549 0.35314 0.0
C2291 C 0.88337 0.31139 0.37327 0.0
C2292 C 0.86684 0.32595 0.37801 0.0
C2293 C 0.86393 0.34387 0.36307 0.0
C2294 C 0.87034 0.26484 0.41612 0.0
C2295 C 0.8906 0.25867 0.42473 0.0
C2296 C 0.86813 0.28135 0.39885 0.0
C2297 C 0.88609 0.29232 0.38968 0.0
C2298 C 0.90642 0.28565 0.39754 0.0
C2299 C 0.90864 0.26907 0.41483 0.0
H2300 H 0.94087 0.65753 0.5716 0.0
H2301 H 0.92298 0.60448 0.61815 0.0
H2302 H 0.97287 0.66315 0.59729 0.0
H2303 H 0.95429 0.61006 0.6435 0.0
H2304 H 0.02104 0.60957 0.67136 0.0
H2305 H 0.99226 0.60575 0.64155 0.0
H2306 H 0.98444 0.67414 0.63937 0.0
H2307 H 0.014 0.67808 0.66852 0.0
C2308 C 0.94369 0.64718 0.58731 0.0
C2309 C 0.9294 0.63055 0.59279 0.0
C2310 C 0.96199 0.65037 0.60204 0.0
C2311 C 0.96637 0.63686 0.62234 0.0
C2312 C 0.95183 0.62046 0.62775 0.0
C2313 C 0.93372 0.61735 0.61322 0.0
C2314 C 0.01355 0.62387 0.66422 0.0
C2315 C 0.01987 0.64413 0.67263 0.0
C2316 C 0.99679 0.62166 0.64728 0.0
C2317 C 0.98574 0.63963 0.63825 0.0
C2318 C 0.99257 0.65996 0.64585 0.0
C2319 C 1.00938 0.66218 0.66284 0.0
H2320 H 0.67691 0.35208 0.72241 0.0
H2321 H 0.61922 0.33733 0.76247 0.0
H2322 H 0.67196 0.32074 0.69682 0.0
H2323 H 0.61398 0.30566 0.73619 0.0
H2324 H 0.6033 0.26781 0.66057 0.0
H2325 H 0.60638 0.29654 0.69089 0.0
H2326 H 0.673 0.28155 0.70083 0.0
H2327 H 0.66993 0.25266 0.67099 0.0
C2328 C 0.66312 0.34208 0.72583 0.0
C2329 C 0.64838 0.34733 0.74443 0.0
C2330 C 0.66034 0.32399 0.71115 0.0
C2331 C 0.64265 0.31056 0.71448 0.0
C2332 C 0.62774 0.31575 0.73306 0.0
C2333 C 0.6307 0.33388 0.74808 0.0
C2334 C 0.61853 0.27033 0.66954 0.0
C2335 C 0.63643 0.25794 0.66298 0.0
C2336 C 0.62027 0.28685 0.68695 0.0
C2337 C 0.63998 0.29151 0.69814 0.0
C2338 C 0.65766 0.27867 0.69225 0.0
C2339 C 0.65591 0.26212 0.675 0.0
H2340 H 0.92375 0.42787 0.9771 0.0
H2341 H 0.93663 0.3681 1.01395 0.0
H2342 H 0.95532 0.42335 0.95178 0.0
H2343 H 0.96843 0.36324 0.98772 0.0
H2344 H 1.00492 0.3565 0.9092 0.0
H2345 H 0.97682 0.3581 0.94059 0.0
H2346 H 0.99505 0.42276 0.95783 0.0
H2347 H 0.0233 0.42111 0.927 0.0
C2348 C 0.93337 0.41371 0.97985 0.0
C2349 C 0.92754 0.39825 0.99744 0.0
C2350 C 0.95157 0.41117 0.96533 0.0
C2351 C 0.96447 0.393 0.96777 0.0
C2352 C 0.95873 0.37739 0.98534 0.0
C2353 C 0.94053 0.38012 1.00029 0.0
C2354 C 1.00328 0.3709 0.92006 0.0
C2355 C 0.01624 0.38881 0.91519 0.0
C2356 C 0.98715 0.37179 0.93806 0.0
C2357 C 0.98353 0.39064 0.95147 0.0
C2358 C 0.99718 0.40812 0.9475 0.0
C2359 C 0.01333 0.40719 0.92971 0.0
H2360 H 0.88732 0.73863 0.12999 0.0
H2361 H 0.89949 0.78318 0.1892 0.0
H2362 H 0.88473 0.70976 0.15978 0.0
H2363 H 0.89614 0.75407 0.21937 0.0
H2364 H 0.90664 0.68925 0.26303 0.0
H2365 H 0.91289 0.71944 0.23458 0.0
H2366 H 0.85886 0.69954 0.19075 0.0
H2367 H 0.85302 0.66972 0.21835 0.0
C2368 C 0.88959 0.7423 0.14937 0.0
C2369 C 0.89363 0.76335 0.15707 0.0
C2370 C 0.88789 0.7257 0.16655 0.0
C2371 C 0.89008 0.72955 0.19206 0.0
C2372 C 0.89449 0.75051 0.19987 0.0
C2373 C 0.89613 0.76723 0.18259 0.0
C2374 C 0.89627 0.69135 0.24719 0.0
C2375 C 0.8795 0.67693 0.24281 0.0
C2376 C 0.89972 0.7087 0.23102 0.0
C2377 C 0.88652 0.7118 0.21015 0.0
C2378 C 0.86963 0.69748 0.20624 0.0
C2379 C 0.8662 0.68038 0.22226 0.0
H2380 H 0.60655 0.60318 0.46604 0.0
H2381 H 0.58625 0.65524 0.51254 0.0
H2382 H 0.5767 0.60935 0.43862 0.0
H2383 H 0.55607 0.66191 0.48429 0.0
H2384 H 0.49208 0.6478 0.44006 0.0
H2385 H 0.52191 0.64557 0.46928 0.0
H2386 H 0.56516 0.635 0.40841 0.0
H2387 H 0.53556 0.63708 0.37946 0.0
C2388 C 0.59572 0.61611 0.47036 0.0
C2389 C 0.59893 0.62884 0.49141 0.0
C2390 C 0.57862 0.61977 0.45443 0.0
C2391 C 0.56404 0.63632 0.45895 0.0
C2392 C 0.56699 0.649 0.48024 0.0
C2393 C 0.58434 0.64533 0.49631 0.0
C2394 C 0.508 0.64519 0.43293 0.0
C2395 C 0.51131 0.64224 0.40738 0.0
C2396 C 0.52512 0.64399 0.44969 0.0
C2397 C 0.54596 0.63983 0.4413 0.0
C2398 C 0.54929 0.6377 0.41567 0.0
C2399 C 0.53226 0.63884 0.39901 0.0
H2400 H 0.42469 0.26275 0.16889 0.0
H2401 H 0.35616 0.25573 0.16672 0.0
H2402 H 0.42099 0.29206 0.1983 0.0
H2403 H 0.35258 0.28422 0.19686 0.0
H2404 H 0.3517 0.35359 0.22034 0.0
H2405 H 0.35673 0.32213 0.19513 0.0
H2406 H 0.41052 0.30363 0.24027 0.0
H2407 H 0.40547 0.33578 0.26574 0.0
C2408 C 0.40883 0.26729 0.1748 0.0
C2409 C 0.39071 0.25692 0.16507 0.0
C2410 C 0.40675 0.28397 0.19194 0.0
C2411 C 0.38648 0.29075 0.1998 0.0
C2412 C 0.36844 0.27974 0.19092 0.0
C2413 C 0.37052 0.26313 0.1738 0.0
C2414 C 0.36459 0.34282 0.22506 0.0
C2415 C 0.37819 0.34722 0.24508 0.0
C2416 C 0.36739 0.32462 0.21063 0.0
C2417 C 0.38387 0.31008 0.21575 0.0
C2418 C 0.3977 0.31451 0.23572 0.0
C2419 C 0.39482 0.33288 0.25033 0.0
H2420 H 0.52017 0.6057 0.91335 0.0
H2421 H 0.51394 0.67421 0.91814 0.0
H2422 H 0.49184 0.60152 0.94363 0.0
H2423 H 0.4848 0.66994 0.94772 0.0
H2424 H 0.44157 0.65264 1.01514 0.0
H2425 H 0.4736 0.65815 0.98955 0.0
H2426 H 0.4539 0.60632 0.94215 0.0
H2427 H 0.42254 0.60085 0.96745 0.0
C2428 C 0.51297 0.61991 0.92104 0.0
C2429 C 0.51933 0.64029 0.91302 0.0
C2430 C 0.49648 0.61751 0.93824 0.0
C2431 C 0.48575 0.63538 0.9479 0.0
C2432 C 0.49269 0.65581 0.94074 0.0
C2433 C 0.50925 0.65823 0.92352 0.0
C2434 C 0.44417 0.64254 0.99919 0.0
C2435 C 0.42953 0.62633 0.99332 0.0
C2436 C 0.46247 0.64567 0.98453 0.0
C2437 C 0.46651 0.6325 0.9639 0.0
C2438 C 0.45169 0.61645 0.95816 0.0
C2439 C 0.43355 0.6134 0.97264 0.0
H2440 H 0.13513 0.73998 0.6281 0.0
H2441 H 0.13154 0.78533 0.68801 0.0
H2442 H 0.13893 0.71107 0.65772 0.0
H2443 H 0.13601 0.75615 0.71788 0.0
H2444 H 0.12563 0.69217 0.763 0.0
H2445 H 0.11836 0.72244 0.73503 0.0
H2446 H 0.16747 0.69992 0.68558 0.0
H2447 H 0.17438 0.67005 0.71288 0.0
C2448 C 0.13499 0.74381 0.64762 0.0
C2449 C 0.13303 0.76506 0.65559 0.0
C2450 C 0.13737 0.7272 0.66464 0.0
C2451 C 0.13791 0.73127 0.69021 0.0
C2452 C 0.13553 0.75245 0.69833 0.0
C2453 C 0.13323 0.76918 0.6812 0.0
C2454 C 0.13471 0.69374 0.74606 0.0
C2455 C 0.1504 0.67862 0.74001 0.0
C2456 C 0.13068 0.7111 0.73015 0.0
C2457 C 0.14219 0.71347 0.70791 0.0
C2458 C 0.15802 0.69842 0.70226 0.0
C2459 C 0.16207 0.68132 0.71806 0.0
H2460 H 1.00302 0.42065 0.42149 0.0
H2461 H 0.01638 0.35336 0.41383 0.0
H2462 H 0.03221 0.42387 0.45099 0.0
H2463 H 0.04541 0.35661 0.44379 0.0
H2464 H 0.08704 0.37061 0.51435 0.0
H2465 H 0.05497 0.36544 0.48867 0.0
H2466 H 0.07137 0.42155 0.44636 0.0
H2467 H 0.10309 0.42644 0.47139 0.0
C2468 C 1.01214 0.40651 0.42606 0.0
C2469 C 1.00741 0.3868 0.41492 0.0
C2470 C 0.02884 0.40835 0.44309 0.0
C2471 C 0.04127 0.39053 0.44961 0.0
C2472 C 0.03604 0.37061 0.43933 0.0
C2473 C 0.01936 0.36878 0.42214 0.0
C2474 C 0.08379 0.38168 0.49943 0.0
C2475 C 0.09769 0.39882 0.49478 0.0
C2476 C 0.06545 0.37877 0.48478 0.0
C2477 C 0.06052 0.39319 0.46556 0.0
C2478 C 0.07443 0.41035 0.46121 0.0
C2479 C 0.09272 0.41309 0.47555 0.0
H2480 H 0.42128 0.7575 0.42325 0.0
H2481 H 0.35481 0.77333 0.41278 0.0
H2482 H 0.41792 0.7288 0.39293 0.0
H2483 H 0.35146 0.74446 0.38295 0.0
H2484 H 0.34704 0.67353 0.36297 0.0
H2485 H 0.35231 0.7052 0.38785 0.0
H2486 H 0.40995 0.71956 0.34748 0.0
H2487 H 0.40438 0.68752 0.32185 0.0
C2488 C 0.40604 0.75514 0.41425 0.0
C2489 C 0.38825 0.76769 0.42081 0.0
C2490 C 0.40414 0.73865 0.39684 0.0
C2491 C 0.38439 0.73419 0.38567 0.0
C2492 C 0.36684 0.74723 0.39151 0.0
C2493 C 0.36874 0.76375 0.40875 0.0
C2494 C 0.36081 0.68344 0.35916 0.0
C2495 C 0.37538 0.67787 0.3405 0.0
C2496 C 0.36377 0.70172 0.37342 0.0
C2497 C 0.38147 0.71503 0.36962 0.0
C2498 C 0.39618 0.70956 0.35094 0.0
C2499 C 0.39304 0.69123 0.33631 0.0
H2500 H 0.08124 0.60794 0.07582 0.0
H2501 H 0.11221 0.66149 0.11035 0.0
H2502 H 0.05061 0.61232 0.10329 0.0
H2503 H 0.08123 0.66687 0.13689 0.0
H2504 H 0.03799 0.65049 0.20248 0.0
H2505 H 0.06624 0.64957 0.17179 0.0
H2506 H 0.02025 0.63294 0.11549 0.0
H2507 H 0.99204 0.63286 0.14659 0.0
C2508 C 0.08108 0.62119 0.08867 0.0
C2509 C 0.09868 0.63496 0.09023 0.0
C2510 C 0.06353 0.62374 0.10443 0.0
C2511 C 0.0633 0.64 0.12239 0.0
C2512 C 0.0808 0.6541 0.12344 0.0
C2513 C 0.09838 0.65144 0.10773 0.0
C2514 C 0.03387 0.64643 0.18362 0.0
C2515 C 1.01266 0.64154 0.17717 0.0
C2516 C 0.05009 0.64625 0.16585 0.0
C2517 C 0.04564 0.64126 0.141 0.0
C2518 C 0.02438 0.63667 0.13444 0.0
C2519 C 1.00812 0.63683 0.15227 0.0
H2520 H 0.11092 0.36125 0.86047 0.0
H2521 H 0.16712 0.33254 0.82918 0.0
H2522 H 0.10577 0.33009 0.88694 0.0
H2523 H 0.1628 0.30173 0.85644 0.0
H2524 H 0.14267 0.24227 0.89847 0.0
H2525 H 0.14251 0.27054 0.86735 0.0
H2526 H 0.12266 0.31581 0.9229 0.0
H2527 H 0.12192 0.28748 0.95363 0.0
C2528 C 0.12166 0.34787 0.85853 0.0
C2529 C 0.13888 0.34889 0.84202 0.0
C2530 C 0.11908 0.3302 0.87418 0.0
C2531 C 0.13389 0.31328 0.87396 0.0
C2532 C 0.15085 0.31419 0.85692 0.0
C2533 C 0.15337 0.33185 0.84129 0.0
C2534 C 0.13799 0.25819 0.90398 0.0
C2535 C 0.13244 0.26253 0.92869 0.0
C2536 C 0.13809 0.27448 0.88615 0.0
C2537 C 0.13259 0.29556 0.89251 0.0
C2538 C 0.12672 0.29979 0.91713 0.0
C2539 C 0.12662 0.28354 0.93492 0.0
H2540 H 0.48939 0.39057 0.70426 0.0
H2541 H 0.53257 0.37692 0.64416 0.0
H2542 H 0.45988 0.39271 0.67521 0.0
H2543 H 0.50283 0.37929 0.6148 0.0
H2544 H 0.43807 0.36972 0.57233 0.0
H2545 H 0.46835 0.36342 0.60051 0.0
H2546 H 0.44906 0.41779 0.64409 0.0
H2547 H 0.41903 0.42357 0.61681 0.0
C2548 C 0.49263 0.3882 0.68478 0.0
C2549 C 0.51345 0.38395 0.67654 0.0
C2550 C 0.47567 0.38938 0.66808 0.0
C2551 C 0.47897 0.38647 0.64256 0.0
C2552 C 0.49967 0.3815 0.63432 0.0
C2553 C 0.51672 0.38022 0.65114 0.0
C2554 C 0.44032 0.38013 0.58809 0.0
C2555 C 0.426 0.39694 0.59254 0.0
C2556 C 0.45771 0.37666 0.6041 0.0
C2557 C 0.46101 0.38993 0.62482 0.0
C2558 C 0.44682 0.40692 0.62876 0.0
C2559 C 0.42962 0.41034 0.61292 0.0
H2560 H 0.08925 0.06743 0.27736 0.0
H2561 H 0.15249 0.06745 0.30897 0.0
H2562 H 0.0896 0.02838 0.2766 0.0
H2563 H 0.15289 0.0285 0.30814 0.0
H2564 H 0.15241 0.95915 0.2777 0.0
H2565 H 0.15307 0.99812 0.27831 0.0
H2566 H 0.08917 0.99876 0.30804 0.0
H2567 H 0.08856 0.95972 0.30751 0.0
C2568 C 0.10331 0.0591 0.28387 0.0
C2569 C 0.12085 0.0705 0.2932 0.0
C2570 C 0.10344 0.03675 0.28366 0.0
C2571 C 0.12121 0.02532 0.29251 0.0
C2572 C 0.13901 0.03679 0.30108 0.0
C2573 C 0.13878 0.05912 0.30154 0.0
C2574 C 0.13861 0.96761 0.28467 0.0
C2575 C 0.12044 0.95638 0.2926 0.0
C2576 C 0.13898 0.98993 0.285 0.0
C2577 C 0.1211 1.00155 0.29302 0.0
C2578 C 0.10308 0.99028 0.30141 0.0
C2579 C 0.1028 0.96793 0.30134 0.0
H2580 H 0.20851 0.90342 0.55746 0.0
H2581 H 0.20848 0.8397 0.52733 0.0
H2582 H 0.24744 0.90342 0.55774 0.0
H2583 H 0.24752 0.83971 0.52745 0.0
H2584 H 0.31566 0.83808 0.55878 0.0
H2585 H 0.27664 0.83908 0.55868 0.0
H2586 H 0.27837 0.9033 0.52974 0.0
H2587 H 0.31729 0.90233 0.52999 0.0
C2588 C 0.21684 0.88952 0.55058 0.0
C2589 C 0.20544 0.87155 0.54238 0.0
C2590 C 0.23916 0.88952 0.55073 0.0
C2591 C 0.25061 0.87149 0.54284 0.0
C2592 C 0.23918 0.85372 0.53404 0.0
C2593 C 0.21683 0.85378 0.53372 0.0
C2594 C 0.30768 0.85249 0.5527 0.0
C2595 C 0.31953 0.87012 0.5444 0.0
C2596 C 0.28534 0.85299 0.55239 0.0
C2597 C 0.27437 0.87119 0.54396 0.0
C2598 C 0.28629 0.88907 0.53645 0.0
C2599 C 0.3086 0.88852 0.5366 0.0
H2600 H 0.43649 0.95917 0.77667 0.0
H2601 H 0.37275 0.95753 0.80673 0.0
H2602 H 0.43581 0.99818 0.77754 0.0
H2603 H 0.37209 0.99647 0.80781 0.0
H2604 H 0.37228 0.06702 0.78188 0.0
H2605 H 0.37173 0.02809 0.78088 0.0
H2606 H 0.43612 0.02668 0.80927 0.0
H2607 H 0.4367 0.0657 0.81005 0.0
C2608 C 0.42224 0.96714 0.78319 0.0
C2609 C 0.40469 0.95529 0.79166 0.0
C2610 C 0.42193 0.98949 0.78396 0.0
C2611 C 0.40399 1.00047 0.79303 0.0
C2612 C 0.38614 0.98856 0.80063 0.0
C2613 C 0.38651 0.96624 0.80002 0.0
C2614 C 0.38622 0.05839 0.7882 0.0
C2615 C 0.40455 0.06942 0.79599 0.0
C2616 C 0.38591 0.03606 0.78764 0.0
C2617 C 0.40396 0.02423 0.79473 0.0
C2618 C 0.42207 0.0353 0.80326 0.0
C2619 C 0.42233 0.05765 0.80398 0.0
H2620 H 0.208 0.12213 1.02823 0.0
H2621 H 0.20942 0.18509 0.0604 0.0
H2622 H 0.24697 0.12137 1.02781 0.0
H2623 H 0.24844 0.18438 0.05993 0.0
H2624 H 0.3173 0.12161 0.05633 0.0
H2625 H 0.27832 0.12083 0.05654 0.0
H2626 H 0.27698 0.18493 1.02726 0.0
H2627 H 0.31599 0.18568 1.027 0.0
C2628 C 0.21665 0.13569 1.03553 0.0
C2629 C 0.20566 0.15367 0.04435 0.0
C2630 C 0.23898 0.13526 1.03527 0.0
C2631 C 0.25081 0.1529 0.04359 0.0
C2632 C 0.23978 0.17067 0.05302 0.0
C2633 C 0.21744 0.171 0.05353 0.0
C2634 C 0.30867 0.13541 0.04959 0.0
C2635 C 0.3197 0.15371 1.04166 0.0
C2636 C 0.28634 0.13497 0.04974 0.0
C2637 C 0.27455 0.15291 1.04219 0.0
C2638 C 0.28561 0.17099 1.03358 0.0
C2639 C 0.30795 0.17134 1.03319 0.0
H2640 H 0.87279 0.06717 0.80759 0.0
H2641 H 0.93682 0.06717 0.77829 0.0
H2642 H 0.8726 0.02825 0.80741 0.0
H2643 H 0.93662 0.02812 0.77795 0.0
H2644 H 0.93727 0.95957 0.80861 0.0
H2645 H 0.93666 0.99862 0.80891 0.0
H2646 H 0.87286 0.99777 0.77876 0.0
H2647 H 0.87345 0.95886 0.77859 0.0
C2648 C 0.88672 0.05883 0.80079 0.0
C2649 C 0.90482 0.07021 0.79295 0.0
C2650 C 0.88661 0.03653 0.80069 0.0
C2651 C 0.90466 0.02507 0.79288 0.0
C2652 C 0.92259 0.03648 0.78446 0.0
C2653 C 0.92263 0.05883 0.78439 0.0
C2654 C 0.92304 0.96776 0.80234 0.0
C2655 C 0.9054 0.95618 0.7936 0.0
C2656 C 0.92276 0.99011 0.80226 0.0
C2657 C 0.90478 1.00132 0.79364 0.0
C2658 C 0.88691 0.98965 0.78564 0.0
C2659 C 0.88725 0.96735 0.78555 0.0
H2660 H 0.71042 0.13531 0.57919 0.0
H2661 H 0.70825 0.17131 0.5111 0.0
H2662 H 0.74938 0.13582 0.57804 0.0
H2663 H 0.7475 0.17108 0.50955 0.0
H2664 H 0.81597 0.1359 0.50762 0.0
H2665 H 0.77703 0.13615 0.50881 0.0
H2666 H 0.77877 0.17093 0.57754 0.0
H2667 H 0.81802 0.17141 0.57595 0.0
C2668 C 0.71825 0.14312 0.5638 0.0
C2669 C 0.70628 0.15324 0.54514 0.0
C2670 C 0.74055 0.14351 0.56329 0.0
C2671 C 0.75135 0.15356 0.54379 0.0
C2672 C 0.73946 0.16326 0.5248 0.0
C2673 C 0.71709 0.16336 0.52565 0.0
C2674 C 0.80812 0.14354 0.52307 0.0
C2675 C 0.82005 0.1536 0.54179 0.0
C2676 C 0.78583 0.14379 0.52361 0.0
C2677 C 0.77499 0.15363 0.54318 0.0
C2678 C 0.78684 0.16326 0.56223 0.0
C2679 C 0.80921 0.16351 0.56136 0.0
H2680 H 0.58994 0.06703 0.30993 0.0
H2681 H 0.65317 0.06736 0.2784 0.0
H2682 H 0.58999 0.028 0.30951 0.0
H2683 H 0.65319 0.02844 0.27777 0.0
H2684 H 0.65254 0.95834 0.30484 0.0
H2685 H 0.65356 0.99726 0.30533 0.0
H2686 H 0.5888 0.99916 0.27812 0.0
H2687 H 0.58775 0.96014 0.27786 0.0
C2688 C 0.60393 0.05876 0.30318 0.0
C2689 C 0.62154 0.07024 0.29419 0.0
C2690 C 0.60388 0.03642 0.30267 0.0
C2691 C 0.6215 0.02509 0.29335 0.0
C2692 C 0.6394 0.03663 0.28516 0.0
C2693 C 0.63939 0.05894 0.28553 0.0
C2694 C 0.63862 0.96708 0.29867 0.0
C2695 C 0.62006 0.9562 0.29135 0.0
C2696 C 0.6392 0.98938 0.29894 0.0
C2697 C 0.62118 1.00134 0.29201 0.0
C2698 C 0.60282 0.99042 0.28398 0.0
C2699 C 0.60229 0.96808 0.28356 0.0
H2700 H 0.70843 0.90172 1.03013 0.0
H2701 H 0.70948 0.83741 0.05874 0.0
H2702 H 0.74736 0.90237 1.02993 0.0
H2703 H 0.7485 0.83809 0.05875 0.0
H2704 H 0.81685 0.83812 1.02824 0.0
H2705 H 0.77781 0.8384 1.0281 0.0
H2706 H 0.77828 0.90236 0.05769 0.0
H2707 H 0.8172 0.9021 0.05761 0.0
C2708 C 0.717 0.88782 1.0367 0.0
C2709 C 0.70589 0.86951 0.04443 0.0
C2710 C 0.73932 0.88819 1.03659 0.0
C2711 C 0.75109 0.87021 0.0441 0.0
C2712 C 0.73993 0.85208 0.05245 0.0
C2713 C 0.71758 0.85176 0.0527 0.0
C2714 C 0.80859 0.85231 1.03441 0.0
C2715 C 0.82009 0.87008 1.04293 0.0
C2716 C 0.78622 0.8524 1.03459 0.0
C2717 C 0.77488 0.87033 0.04311 0.0
C2718 C 0.78646 0.88834 0.05088 0.0
C2719 C 0.80878 0.88819 0.05085 0.0
H2720 H 0.65242 0.5672 0.80522 0.0
H2721 H 0.58848 0.56636 0.77561 0.0
H2722 H 0.65291 0.52826 0.80553 0.0
H2723 H 0.58898 0.52733 0.77576 0.0
H2724 H 0.65238 0.45817 0.77836 0.0
H2725 H 0.65296 0.49712 0.77786 0.0
H2726 H 0.58882 0.49825 0.8069 0.0
H2727 H 0.58823 0.45922 0.80724 0.0
C2728 C 0.63857 0.55868 0.79844 0.0
C2729 C 0.62041 0.56985 0.7904 0.0
C2730 C 0.63885 0.53634 0.79862 0.0
C2731 C 0.62091 0.52463 0.7909 0.0
C2732 C 0.60294 0.53585 0.78222 0.0
C2733 C 0.60272 0.55821 0.78188 0.0
C2734 C 0.6385 0.46674 0.78492 0.0
C2735 C 0.62025 0.45562 0.79283 0.0
C2736 C 0.63883 0.48907 0.78464 0.0
C2737 C 0.62086 0.50084 0.79211 0.0
C2738 C 0.6028 0.48968 0.80062 0.0
C2739 C 0.60253 0.46733 0.80107 0.0
H2740 H 0.81529 0.33702 0.05858 0.0
H2741 H 0.81665 0.40165 1.03098 0.0
H2742 H 0.77628 0.33763 0.05785 0.0
H2743 H 0.77774 0.40222 1.02997 0.0
H2744 H 0.70748 0.40144 0.05612 0.0
H2745 H 0.74639 0.40188 0.05689 0.0
H2746 H 0.74748 0.33815 1.02667 0.0
H2747 H 0.70846 0.33766 1.02616 0.0
C2748 C 0.80725 0.35142 0.05261 0.0
C2749 C 0.81903 0.36927 0.04482 0.0
C2750 C 0.78491 0.35171 0.05192 0.0
C2751 C 0.77385 0.3699 0.04359 0.0
C2752 C 0.7857 0.38799 1.0366 0.0
C2753 C 0.80801 0.38766 1.03716 0.0
C2754 C 0.71603 0.38762 0.04934 0.0
C2755 C 0.70491 0.3695 1.04111 0.0
C2756 C 0.73835 0.38788 0.04978 0.0
C2757 C 0.75009 0.36997 1.04208 0.0
C2758 C 0.73893 0.35207 1.03314 0.0
C2759 C 0.71658 0.35186 1.03259 0.0
H2760 H 0.93689 0.56581 0.31005 0.0
H2761 H 0.87308 0.56721 0.2801 0.0
H2762 H 0.93617 0.52679 0.30961 0.0
H2763 H 0.87238 0.52826 0.27948 0.0
H2764 H 0.87259 0.45797 0.30644 0.0
H2765 H 0.8721 0.49691 0.30699 0.0
H2766 H 0.93631 0.49802 0.27812 0.0
H2767 H 0.93681 0.459 0.27773 0.0
C2768 C 0.92263 0.55778 0.30364 0.0
C2769 C 0.90506 0.56957 0.29509 0.0
C2770 C 0.92229 0.53543 0.30313 0.0
C2771 C 0.90431 0.52438 0.29424 0.0
C2772 C 0.88645 0.53623 0.28652 0.0
C2773 C 0.88685 0.55856 0.28687 0.0
C2774 C 0.8865 0.46653 0.2999 0.0
C2775 C 0.90474 0.45541 0.29206 0.0
C2776 C 0.88622 0.48886 0.30022 0.0
C2777 C 0.90425 0.50061 0.29284 0.0
C2778 C 0.92229 0.48946 0.28433 0.0
C2779 C 0.9225 0.46711 0.28385 0.0
H2780 H 0.70899 0.67394 0.57408 0.0
H2781 H 0.71053 0.63378 0.50927 0.0
H2782 H 0.74828 0.67372 0.57521 0.0
H2783 H 0.74949 0.63429 0.50999 0.0
H2784 H 0.81784 0.6748 0.51128 0.0
H2785 H 0.77856 0.67417 0.51026 0.0
H2786 H 0.77788 0.63419 0.57518 0.0
H2787 H 0.81686 0.63411 0.57579 0.0
C2788 C 0.71768 0.66506 0.56018 0.0
C2789 C 0.70668 0.6538 0.54171 0.0
C2790 C 0.74007 0.665 0.56078 0.0
C2791 C 0.75175 0.65413 0.54254 0.0
C2792 C 0.74078 0.64286 0.52414 0.0
C2793 C 0.71848 0.64249 0.52388 0.0
C2794 C 0.80927 0.66572 0.52514 0.0
C2795 C 0.82043 0.65443 0.54349 0.0
C2796 C 0.78689 0.66542 0.5246 0.0
C2797 C 0.77536 0.65427 0.54279 0.0
C2798 C 0.78647 0.64298 0.56108 0.0
C2799 C 0.80878 0.64285 0.56127 0.0
H2800 H 0.43604 0.56622 0.27837 0.0
H2801 H 0.37212 0.56602 0.308 0.0
H2802 H 0.43609 0.5272 0.27834 0.0
H2803 H 0.3722 0.52706 0.30817 0.0
H2804 H 0.37362 0.45734 0.27983 0.0
H2805 H 0.37252 0.49625 0.28005 0.0
H2806 H 0.43666 0.49789 0.3092 0.0
H2807 H 0.43776 0.45886 0.30882 0.0
C2808 C 0.42193 0.55784 0.28465 0.0
C2809 C 0.40409 0.56917 0.29322 0.0
C2810 C 0.42203 0.53549 0.28488 0.0
C2811 C 0.40423 0.52399 0.2935 0.0
C2812 C 0.38614 0.53539 0.30132 0.0
C2813 C 0.38609 0.55772 0.30124 0.0
C2814 C 0.38739 0.466 0.28658 0.0
C2815 C 0.40579 0.45504 0.29429 0.0
C2816 C 0.38676 0.48831 0.28671 0.0
C2817 C 0.40457 0.50021 0.29442 0.0
C2818 C 0.42279 0.48921 0.30276 0.0
C2819 C 0.42335 0.46686 0.30279 0.0
H2820 H 0.3199 0.62107 1.02955 0.0
H2821 H 0.31831 0.68585 0.05646 0.0
H2822 H 0.28095 0.62018 1.02896 0.0
H2823 H 0.27927 0.68501 0.05573 0.0
H2824 H 0.21032 0.62241 0.05661 0.0
H2825 H 0.24932 0.62159 0.05762 0.0
H2826 H 0.25126 0.68329 1.02211 0.0
H2827 H 0.21229 0.68406 1.02099 0.0
C2828 C 0.31121 0.63501 1.0357 0.0
C2829 C 0.32215 0.65352 0.04308 0.0
C2830 C 0.28891 0.6345 1.03532 0.0
C2831 C 0.27704 0.6526 1.04204 0.0
C2832 C 0.28799 0.67092 0.05009 0.0
C2833 C 0.31032 0.67134 0.05075 0.0
C2834 C 0.2191 0.63564 0.04867 0.0
C2835 C 0.20826 0.65331 1.03874 0.0
C2836 C 0.24142 0.63519 0.0493 0.0
C2837 C 0.25336 0.65251 1.04024 0.0
C2838 C 0.24249 0.66988 1.02962 0.0
C2839 C 0.22018 0.67022 1.02874 0.0
H2840 H 0.15313 0.46016 0.8056 0.0
H2841 H 0.09124 0.46265 0.77064 0.0
H2842 H 0.15451 0.49917 0.80602 0.0
H2843 H 0.09257 0.50162 0.77121 0.0
H2844 H 0.15557 0.5696 0.77698 0.0
H2845 H 0.15599 0.53063 0.77673 0.0
H2846 H 0.09156 0.52979 0.80483 0.0
H2847 H 0.0912 0.56884 0.80528 0.0
C2848 C 0.13998 0.46904 0.79767 0.0
C2849 C 0.12208 0.45835 0.78811 0.0
C2850 C 0.14075 0.49137 0.79796 0.0
C2851 C 0.12352 0.50345 0.78895 0.0
C2852 C 0.10593 0.49273 0.77867 0.0
C2853 C 0.10527 0.47042 0.77811 0.0
C2854 C 0.14163 0.5611 0.7835 0.0
C2855 C 0.12336 0.57227 0.79119 0.0
C2856 C 0.14187 0.53878 0.78331 0.0
C2857 C 0.12374 0.52715 0.79051 0.0
C2858 C 0.10566 0.53833 0.79883 0.0
C2859 C 0.10552 0.56067 0.79931 0.0
H2860 H 0.20824 0.40184 0.52874 0.0
H2861 H 0.20856 0.33804 0.55888 0.0
H2862 H 0.24713 0.40196 0.52823 0.0
H2863 H 0.24759 0.33822 0.5587 0.0
H2864 H 0.31569 0.33672 0.52788 0.0
H2865 H 0.27666 0.33751 0.52796 0.0
H2866 H 0.27812 0.40217 0.55545 0.0
H2867 H 0.31701 0.40143 0.55502 0.0
C2868 C 0.21665 0.38795 0.5356 0.0
C2869 C 0.20536 0.36991 0.54381 0.0
C2870 C 0.23895 0.38802 0.53532 0.0
C2871 C 0.2505 0.37002 0.54319 0.0
C2872 C 0.23917 0.3522 0.55209 0.0
C2873 C 0.21683 0.35217 0.55247 0.0
C2874 C 0.30764 0.35118 0.5336 0.0
C2875 C 0.31939 0.369 0.54147 0.0
C2876 C 0.2853 0.35156 0.53392 0.0
C2877 C 0.27425 0.36982 0.54198 0.0
C2878 C 0.28608 0.38788 0.54902 0.0
C2879 C 0.30838 0.38746 0.54879 0.0
H2880 H 0.13827 0.11198 0.1092 0.0
H2881 H 0.11971 0.17818 0.10301 0.0
H2882 H 0.13586 0.11422 0.15384 0.0
H2883 H 0.11695 0.18015 0.14847 0.0
H2884 H 0.09775 0.15631 0.23428 0.0
H2885 H 0.09549 0.15912 0.18881 0.0
H2886 H 0.1608 0.13832 0.18295 0.0
H2887 H 0.16333 0.13586 0.22755 0.0
C2888 C 0.13337 0.12702 0.11724 0.0
C2889 C 0.12942 0.145 0.10222 0.0
C2890 C 0.132 0.12825 0.14298 0.0
C2891 C 0.12641 0.14739 0.15474 0.0
C2892 C 0.12126 0.16516 0.13991 0.0
C2893 C 0.12286 0.16401 0.11388 0.0
C2894 C 0.11173 0.15272 0.22329 0.0
C2895 C 0.13065 0.14565 0.2348 0.0
C2896 C 0.11042 0.15435 0.19726 0.0
C2897 C 0.12792 0.14871 0.1823 0.0
C2898 C 0.14698 0.14255 0.19391 0.0
C2899 C 0.14837 0.14116 0.21964 0.0
H2900 H 0.11886 0.84961 0.48381 0.0
H2901 H 0.1391 0.91524 0.47652 0.0
H2902 H 0.11578 0.8472 0.43839 0.0
H2903 H 0.13635 0.91257 0.43193 0.0
H2904 H 0.16318 0.88931 0.35862 0.0
H2905 H 0.16069 0.88713 0.40325 0.0
H2906 H 0.09462 0.86876 0.39766 0.0
H2907 H 0.09685 0.87131 0.35215 0.0
C2908 C 0.12231 0.86357 0.47271 0.0
C2909 C 0.12945 0.88254 0.48404 0.0
C2910 C 0.12052 0.86218 0.4467 0.0
C2911 C 0.12604 0.87965 0.43158 0.0
C2912 C 0.13219 0.89877 0.44302 0.0
C2913 C 0.13376 0.90024 0.46873 0.0
C2914 C 0.14805 0.88459 0.36661 0.0
C2915 C 0.13011 0.88075 0.35151 0.0
C2916 C 0.14668 0.88335 0.39235 0.0
C2917 C 0.12743 0.87799 0.40403 0.0
C2918 C 0.10969 0.87291 0.38914 0.0
C2919 C 0.11098 0.87437 0.36309 0.0
H2920 H 0.36527 0.86878 0.72965 0.0
H2921 H 0.43171 0.88665 0.7317 0.0
H2922 H 0.36738 0.86451 0.68472 0.0
H2923 H 0.43358 0.88309 0.68647 0.0
H2924 H 0.40841 0.90808 0.6063 0.0
H2925 H 0.41223 0.90601 0.6513 0.0
H2926 H 0.38909 0.84125 0.65007 0.0
H2927 H 0.38599 0.84304 0.60473 0.0
C2928 C 0.38043 0.87149 0.72056 0.0
C2929 C 0.39836 0.87794 0.73436 0.0
C2930 C 0.38163 0.869 0.69479 0.0
C2931 C 0.40064 0.87345 0.68199 0.0
C2932 C 0.41872 0.87949 0.6958 0.0
C2933 C 0.41767 0.88141 0.72172 0.0
C2934 C 0.40466 0.89319 0.61553 0.0
C2935 C 0.39707 0.87566 0.60186 0.0
C2936 C 0.40686 0.89202 0.64134 0.0
C2937 C 0.40095 0.87348 0.65429 0.0
C2938 C 0.39381 0.85574 0.64061 0.0
C2939 C 0.39219 0.85671 0.61465 0.0
H2940 H 0.36534 0.15637 0.85777 0.0
H2941 H 0.4315 0.13759 0.85544 0.0
H2942 H 0.36765 0.16048 0.9027 0.0
H2943 H 0.43357 0.141 0.90069 0.0
H2944 H 0.40802 0.11597 0.98071 0.0
H2945 H 0.4119 0.11819 0.93572 0.0
H2946 H 0.38976 0.18328 0.93729 0.0
H2947 H 0.38658 0.18133 0.98257 0.0
C2948 C 0.38049 0.15346 0.86681 0.0
C2949 C 0.39829 0.14679 0.85296 0.0
C2950 C 0.38181 0.15585 0.89256 0.0
C2951 C 0.40078 0.15106 0.90527 0.0
C2952 C 0.41874 0.14484 0.89141 0.0
C2953 C 0.41759 0.14302 0.8655 0.0
C2954 C 0.40448 0.13094 0.97155 0.0
C2955 C 0.39713 0.14852 0.98528 0.0
C2956 C 0.40674 0.1322 0.94577 0.0
C2957 C 0.40113 0.15089 0.93293 0.0
C2958 C 0.39424 0.16867 0.94667 0.0
C2959 C 0.39256 0.1676 0.9726 0.0
H2960 H 0.92939 0.87064 0.8525 0.0
H2961 H 0.86302 0.8883 0.85942 0.0
H2962 H 0.93173 0.8675 0.89796 0.0
H2963 H 0.86563 0.88554 0.90401 0.0
H2964 H 0.88852 0.91371 0.97721 0.0
H2965 H 0.89143 0.9112 0.93262 0.0
H2966 H 0.90912 0.84499 0.93872 0.0
H2967 H 0.90583 0.84723 0.98416 0.0
C2968 C 0.91527 0.8735 0.86352 0.0
C2969 C 0.89609 0.87996 0.85207 0.0
C2970 C 0.91662 0.87168 0.88954 0.0
C2971 C 0.89889 0.87646 0.90455 0.0
C2972 C 0.87961 0.88192 0.893 0.0
C2973 C 0.87818 0.88352 0.86728 0.0
C2974 C 0.89326 0.89855 0.96935 0.0
C2975 C 0.89667 0.88058 0.98456 0.0
C2976 C 0.89495 0.89718 0.94364 0.0
C2977 C 0.90035 0.8779 0.93211 0.0
C2978 C 0.905 0.86011 0.94713 0.0
C2979 C 0.9031 0.86141 0.97314 0.0
H2980 H 0.92714 0.15617 0.73401 0.0
H2981 H 0.86124 0.13678 0.72704 0.0
H2982 H 0.92944 0.15918 0.68855 0.0
H2983 H 0.86381 0.13942 0.68245 0.0
H2984 H 0.88637 0.11246 0.60888 0.0
H2985 H 0.88862 0.11484 0.65352 0.0
H2986 H 0.90814 0.1806 0.64798 0.0
H2987 H 0.90555 0.17848 0.60249 0.0
C2988 C 0.9131 0.15289 0.72298 0.0
C2989 C 0.89408 0.146 0.73441 0.0
C2990 C 0.91444 0.15463 0.69695 0.0
C2991 C 0.89686 0.1493 0.68191 0.0
C2992 C 0.8777 0.14341 0.69346 0.0
C2993 C 0.87629 0.1419 0.71919 0.0
C2994 C 0.89136 0.12749 0.61688 0.0
C2995 C 0.89555 0.14537 0.60179 0.0
C2996 C 0.89263 0.1288 0.64263 0.0
C2997 C 0.89838 0.14793 0.65434 0.0
C2998 C 0.90371 0.16561 0.63946 0.0
C2999 C 0.9022 0.16438 0.61341 0.0
H3000 H 0.6184 0.177 0.48456 0.0
H3001 H 0.64316 0.11295 0.47746 0.0
H3002 H 0.61566 0.17936 0.43909 0.0
H3003 H 0.64077 0.11562 0.43287 0.0
H3004 H 0.66507 0.13991 0.35885 0.0
H3005 H 0.66299 0.14217 0.40355 0.0
H3006 H 0.59593 0.15667 0.39878 0.0
H3007 H 0.59777 0.15392 0.3533 0.0
C3008 C 0.623 0.16338 0.47349 0.0
C3009 C 0.63116 0.14486 0.48493 0.0
C3010 C 0.6214 0.16474 0.44745 0.0
C3011 C 0.6282 0.14773 0.43238 0.0
C3012 C 0.6356 0.12907 0.4439 0.0
C3013 C 0.63693 0.1276 0.46964 0.0
C3014 C 0.6498 0.14372 0.36706 0.0
C3015 C 0.63151 0.14638 0.35221 0.0
C3016 C 0.64867 0.14506 0.39283 0.0
C3017 C 0.62928 0.14938 0.40478 0.0
C3018 C 0.61112 0.15335 0.39009 0.0
C3019 C 0.6122 0.15177 0.36404 0.0
H3020 H 0.61763 0.90929 0.10637 0.0
H3021 H 0.63781 0.84354 0.10471 0.0
H3022 H 0.61347 0.90719 0.15134 0.0
H3023 H 0.6344 0.8417 0.15 0.0
H3024 H 0.65937 0.86922 0.22944 0.0
H3025 H 0.65706 0.86484 0.18453 0.0
H3026 H 0.59113 0.88428 0.1864 0.0
H3027 H 0.59319 0.88792 0.23165 0.0
C3028 C 0.62081 0.89426 0.11557 0.0
C3029 C 0.6279 0.87653 0.10191 0.0
C3030 C 0.6184 0.89306 0.14134 0.0
C3031 C 0.62361 0.87429 0.15424 0.0
C3032 C 0.63021 0.85637 0.14056 0.0
C3033 C 0.63203 0.85738 0.11463 0.0
C3034 C 0.64422 0.87205 0.22037 0.0
C3035 C 0.62642 0.87878 0.23418 0.0
C3036 C 0.6429 0.86951 0.19464 0.0
C3037 C 0.62392 0.8742 0.1819 0.0
C3038 C 0.60595 0.88049 0.19572 0.0
C3039 C 0.6071 0.88244 0.22162 0.0
H3040 H 0.59408 0.63697 0.73024 0.0
H3041 H 0.65962 0.65785 0.7281 0.0
H3042 H 0.59213 0.63999 0.68493 0.0
H3043 H 0.6574 0.6616 0.68308 0.0
H3044 H 0.63782 0.68124 0.60277 0.0
H3045 H 0.63435 0.68345 0.64799 0.0
H3046 H 0.61519 0.61742 0.65047 0.0
H3047 H 0.61938 0.61497 0.60553 0.0
C3048 C 0.60784 0.64281 0.7202 0.0
C3049 C 0.62697 0.64727 0.7328 0.0
C3050 C 0.60677 0.64439 0.69426 0.0
C3051 C 0.6246 0.65108 0.68044 0.0
C3052 C 0.64335 0.65659 0.6932 0.0
C3053 C 0.64461 0.65442 0.71898 0.0
C3054 C 0.63246 0.66733 0.61292 0.0
C3055 C 0.62881 0.64795 0.60051 0.0
C3056 C 0.63059 0.66856 0.63881 0.0
C3057 C 0.62444 0.65062 0.65279 0.0
C3058 C 0.61977 0.63156 0.64022 0.0
C3059 C 0.62221 0.63016 0.61448 0.0
H3060 H 0.66003 0.36858 0.8563 0.0
H3061 H 0.59364 0.38645 0.85323 0.0
H3062 H 0.65744 0.36429 0.90122 0.0
H3063 H 0.59129 0.38291 0.89847 0.0
H3064 H 0.61699 0.40858 0.97854 0.0
H3065 H 0.61319 0.40627 0.93355 0.0
H3066 H 0.63471 0.34098 0.93567 0.0
H3067 H 0.63776 0.34302 0.98097 0.0
C3068 C 0.64478 0.37125 0.86519 0.0
C3069 C 0.627 0.37772 0.85115 0.0
C3070 C 0.6433 0.36876 0.89092 0.0
C3071 C 0.62417 0.37326 0.9034 0.0
C3072 C 0.60622 0.37927 0.88935 0.0
C3073 C 0.60754 0.38117 0.86345 0.0
C3074 C 0.62038 0.39354 0.9695 0.0
C3075 C 0.62752 0.37593 0.98338 0.0
C3076 C 0.61818 0.39223 0.94372 0.0
C3077 C 0.62365 0.37345 0.93105 0.0
C3078 C 0.63032 0.35564 0.94494 0.0
C3079 C 0.63193 0.35677 0.97087 0.0
H3080 H 0.9074 0.40841 0.10796 0.0
H3081 H 0.8874 0.34261 0.10541 0.0
H3082 H 0.91165 0.40587 0.15288 0.0
H3083 H 0.89091 0.34032 0.15067 0.0
H3084 H 0.86565 0.36729 0.23024 0.0
H3085 H 0.86817 0.36296 0.18534 0.0
H3086 H 0.93396 0.3829 0.18767 0.0
H3087 H 0.93169 0.38651 0.23288 0.0
C3088 C 0.90429 0.39328 0.11696 0.0
C3089 C 0.89721 0.37566 0.10309 0.0
C3090 C 0.90675 0.39183 0.14269 0.0
C3091 C 0.90161 0.37291 0.15532 0.0
C3092 C 0.89504 0.35509 0.14142 0.0
C3093 C 0.89317 0.35636 0.11552 0.0
C3094 C 0.88082 0.37022 0.22127 0.0
C3095 C 0.89852 0.37711 0.23517 0.0
C3096 C 0.88226 0.3677 0.19555 0.0
C3097 C 0.90125 0.37259 0.18296 0.0
C3098 C 0.91913 0.37896 0.19688 0.0
C3099 C 0.91787 0.3809 0.22277 0.0
H3100 H 0.93185 0.6391 0.35451 0.0
H3101 H 0.86525 0.65626 0.35699 0.0
H3102 H 0.93391 0.64255 0.39975 0.0
H3103 H 0.86756 0.66044 0.40194 0.0
H3104 H 0.88734 0.68232 0.48172 0.0
H3105 H 0.89017 0.68413 0.43639 0.0
H3106 H 0.91196 0.61893 0.43482 0.0
H3107 H 0.90839 0.61683 0.47986 0.0
C3108 C 0.91783 0.64419 0.3646 0.0
C3109 C 0.89841 0.64748 0.3521 0.0
C3110 C 0.91898 0.64603 0.3905 0.0
C3111 C 0.90091 0.65182 0.4044 0.0
C3112 C 0.88179 0.65614 0.39175 0.0
C3113 C 0.88048 0.65371 0.366 0.0
C3114 C 0.89315 0.66853 0.47174 0.0
C3115 C 0.89773 0.64946 0.48443 0.0
C3116 C 0.89463 0.66953 0.44579 0.0
C3117 C 0.90134 0.65169 0.43204 0.0
C3118 C 0.90692 0.63299 0.44488 0.0
C3119 C 0.90485 0.6318 0.47068 0.0
H3120 H 0.36551 0.36827 0.35691 0.0
H3121 H 0.43162 0.38726 0.35469 0.0
H3122 H 0.3677 0.36436 0.40193 0.0
H3123 H 0.43353 0.38414 0.4 0.0
H3124 H 0.40544 0.41009 0.47937 0.0
H3125 H 0.40964 0.40771 0.43442 0.0
H3126 H 0.39168 0.34136 0.4369 0.0
H3127 H 0.38825 0.34348 0.48216 0.0
C3128 C 0.38062 0.37126 0.366 0.0
C3129 C 0.39844 0.37792 0.35217 0.0
C3130 C 0.38186 0.369 0.39178 0.0
C3131 C 0.40078 0.37394 0.4045 0.0
C3132 C 0.41877 0.38016 0.39068 0.0
C3133 C 0.4177 0.38181 0.36474 0.0
C3134 C 0.4029 0.39484 0.47042 0.0
C3135 C 0.39666 0.37693 0.48439 0.0
C3136 C 0.40534 0.39349 0.44468 0.0
C3137 C 0.401 0.37436 0.43213 0.0
C3138 C 0.3952 0.35629 0.44609 0.0
C3139 C 0.39337 0.35748 0.472 0.0
H3140 H 0.42438 0.66177 0.23478 0.0
H3141 H 0.36669 0.62503 0.22468 0.0
H3142 H 0.42783 0.66486 0.18937 0.0
H3143 H 0.37022 0.62811 0.18039 0.0
H3144 H 0.39695 0.61028 0.1069 0.0
H3145 H 0.39929 0.61179 0.15162 0.0
H3146 H 0.40445 0.68033 0.14854 0.0
H3147 H 0.40192 0.67894 0.10302 0.0
C3148 C 0.41236 0.65458 0.22307 0.0
C3149 C 0.39523 0.64317 0.23366 0.0
C3150 C 0.41431 0.6564 0.19708 0.0
C3151 C 0.39938 0.64655 0.18126 0.0
C3152 C 0.38212 0.6357 0.19196 0.0
C3153 C 0.38006 0.63408 0.21758 0.0
C3154 C 0.39886 0.62576 0.11551 0.0
C3155 C 0.39893 0.64453 0.10116 0.0
C3156 C 0.40022 0.62658 0.14127 0.0
C3157 C 0.40177 0.64618 0.15371 0.0
C3158 C 0.4033 0.66497 0.13949 0.0
C3159 C 0.40184 0.66417 0.11342 0.0
H3160 H 0.16557 0.63737 0.85707 0.0
H3161 H 0.10062 0.65958 0.84945 0.0
H3162 H 0.16292 0.64044 0.90161 0.0
H3163 H 0.09828 0.66303 0.89485 0.0
H3164 H 0.12525 0.68263 0.98054 0.0
H3165 H 0.12243 0.68443 0.93507 0.0
H3166 H 0.13517 0.61701 0.93063 0.0
H3167 H 0.13758 0.61494 0.97532 0.0
C3168 C 0.15073 0.6432 0.86476 0.0
C3169 C 0.1332 0.648 0.84937 0.0
C3170 C 0.14928 0.64496 0.89045 0.0
C3171 C 0.13038 0.65184 0.90177 0.0
C3172 C 0.11309 0.65774 0.88659 0.0
C3173 C 0.11444 0.65574 0.86061 0.0
C3174 C 0.12701 0.66812 0.96989 0.0
C3175 C 0.13185 0.64869 0.98182 0.0
C3176 C 0.12536 0.66918 0.94386 0.0
C3177 C 0.12873 0.65087 0.92931 0.0
C3178 C 0.13262 0.6314 0.94131 0.0
C3179 C 0.13402 0.63028 0.96707 0.0
H3180 H 0.09155 0.39204 0.72982 0.0
H3181 H 0.15623 0.36856 0.72981 0.0
H3182 H 0.09029 0.38842 0.68461 0.0
H3183 H 0.15469 0.36432 0.68484 0.0
H3184 H 0.13642 0.34478 0.60429 0.0
H3185 H 0.13235 0.34315 0.64952 0.0
H3186 H 0.11369 0.40935 0.65031 0.0
H3187 H 0.11844 0.41118 0.60544 0.0
C3188 C 0.10528 0.38557 0.72028 0.0
C3189 C 0.12397 0.38056 0.73347 0.0
C3190 C 0.1046 0.38362 0.69438 0.0
C3191 C 0.12238 0.37604 0.68115 0.0
C3192 C 0.14067 0.37002 0.69449 0.0
C3193 C 0.14156 0.37251 0.72026 0.0
C3194 C 0.13103 0.35883 0.61409 0.0
C3195 C 0.12768 0.37808 0.60125 0.0
C3196 C 0.12884 0.35795 0.63998 0.0
C3197 C 0.12266 0.37612 0.65349 0.0
C3198 C 0.11829 0.39504 0.64045 0.0
C3199 C 0.12104 0.39608 0.61474 0.0
loop_
_geom_bond_atom_site_label_1
_geom_bond_atom_site_label_2
_geom_bond_distance
_geom_bond_site_symmetry_2
_ccdc_geom_bond_type
La0 C2 2.928 . S
La0 O20 2.521 . S
La0 O21 2.628 . S
La0 O22 2.554 . S
La0 O23 2.757 . S
La0 O24 2.470 . S
La0 O29 2.482 . S
La0 O31 2.503 . S
La1 C11 2.928 . S
La1 O23 2.482 . S
La1 O25 2.503 . S
La1 O26 2.521 . S
La1 O27 2.628 . S
La1 O28 2.554 . S
La1 O29 2.757 . S
La1 O30 2.470 . S
C2 La0 2.928 . S
C2 C3 1.503 . S
C2 O20 1.261 . S
C2 O21 1.243 . S
C3 C2 1.503 . S
C3 C4 1.394 . S
C3 C8 1.373 . S
C4 C3 1.394 . S
C4 C5 1.380 . S
C4 H32 0.930 . S
C5 C4 1.380 . S
C5 C6 1.376 . S
C5 H33 0.930 . S
C6 C5 1.376 . S
C6 C7 1.370 . S
C7 C6 1.370 . S
C7 C8 1.396 . S
C7 H34 0.929 . S
C8 C3 1.373 . S
C8 C7 1.396 . S
C8 H35 0.929 . S
C9 O22 1.240 . S
C9 O23 1.289 . S
C10 O24 1.258 . S
C10 O25 1.256 . S
C11 La1 2.928 . S
C11 C12 1.503 . S
C11 O26 1.261 . S
C11 O27 1.243 . S
C12 C11 1.503 . S
C12 C13 1.394 . S
C12 C17 1.373 . S
C13 C12 1.394 . S
C13 C14 1.380 . S
C13 H36 0.930 . S
C14 C13 1.380 . S
C14 C15 1.376 . S
C14 H37 0.930 . S
C15 C14 1.376 . S
C15 C16 1.370 . S
C16 C15 1.370 . S
C16 C17 1.396 . S
C16 H38 0.929 . S
C17 C12 1.373 . S
C17 C16 1.396 . S
C17 H39 0.929 . S
C18 O28 1.240 . S
C18 O29 1.289 . S
C19 O30 1.258 . S
C19 O31 1.256 . S
O20 La0 2.521 . S
O20 C2 1.261 . S
O21 La0 2.628 . S
O21 C2 1.243 . S
O22 La0 2.554 . S
O22 C9 1.240 . S
O23 La0 2.757 . S
O23 La1 2.482 . S
O23 C9 1.289 . S
O24 La0 2.470 . S
O24 C10 1.258 . S
O25 La1 2.503 . S
O25 C10 1.256 . S
O26 La1 2.521 . S
O26 C11 1.261 . S
O27 La1 2.628 . S
O27 C11 1.243 . S
O28 La1 2.554 . S
O28 C18 1.240 . S
O29 La0 2.482 . S
O29 La1 2.757 . S
O29 C18 1.289 . S
O30 La1 2.470 . S
O30 C19 1.258 . S
O31 La0 2.503 . S
O31 C19 1.256 . S
H32 C4 0.930 . S
H33 C5 0.930 . S
H34 C7 0.929 . S
H35 C8 0.929 . S
H36 C13 0.930 . S
H37 C14 0.930 . S
H38 C16 0.929 . S
H39 C17 0.929 . S
La40 C42 2.928 . S
La40 O60 2.521 . S
La40 O61 2.628 . S
La40 O62 2.554 . S
La40 O63 2.757 . S
La40 O64 2.470 . S
La40 O69 2.482 . S
La40 O71 2.503 . S
La41 C51 2.928 . S
La41 O63 2.482 . S
La41 O65 2.503 . S
La41 O66 2.521 . S
La41 O67 2.628 . S
La41 O68 2.554 . S
La41 O69 2.757 . S
La41 O70 2.470 . S
C42 La40 2.928 . S
C42 C43 1.503 . S
C42 O60 1.261 . S
C42 O61 1.243 . S
C43 C42 1.503 . S
C43 C44 1.394 . S
C43 C48 1.373 . S
C44 C43 1.394 . S
C44 C45 1.380 . S
C44 H72 0.930 . S
C45 C44 1.380 . S
C45 C46 1.376 . S
C45 H73 0.925 1_565 S
C46 C45 1.376 . S
C46 C47 1.370 . S
C47 C46 1.370 . S
C47 C48 1.396 . S
C47 H74 0.929 . S
C48 C43 1.373 . S
C48 C47 1.396 . S
C48 H75 0.929 . S
C49 O62 1.240 . S
C49 O63 1.289 . S
C50 O64 1.258 . S
C50 O65 1.256 . S
C51 La41 2.928 . S
C51 C52 1.503 . S
C51 O66 1.261 . S
C51 O67 1.243 . S
C52 C51 1.503 . S
C52 C53 1.394 . S
C52 C57 1.373 . S
C53 C52 1.394 . S
C53 C54 1.380 . S
C53 H76 0.930 . S
C54 C53 1.380 . S
C54 C55 1.376 . S
C54 H77 0.930 . S
C55 C54 1.376 . S
C55 C56 1.370 . S
C56 C55 1.370 . S
C56 C57 1.396 . S
C56 H78 0.929 . S
C57 C52 1.373 . S
C57 C56 1.396 . S
C57 H79 0.929 . S
C58 O68 1.240 . S
C58 O69 1.289 . S
C59 O70 1.258 . S
C59 O71 1.256 . S
O60 La40 2.521 . S
O60 C42 1.261 . S
O61 La40 2.628 . S
O61 C42 1.243 . S
O62 La40 2.554 . S
O62 C49 1.240 . S
O63 La40 2.757 . S
O63 La41 2.482 . S
O63 C49 1.289 . S
O64 La40 2.470 . S
O64 C50 1.258 . S
O65 La41 2.503 . S
O65 C50 1.256 . S
O66 La41 2.521 . S
O66 C51 1.261 . S
O67 La41 2.628 . S
O67 C51 1.243 . S
O68 La41 2.554 . S
O68 C58 1.240 . S
O69 La40 2.482 . S
O69 La41 2.757 . S
O69 C58 1.289 . S
O70 La41 2.470 . S
O70 C59 1.258 . S
O71 La40 2.503 . S
O71 C59 1.256 . S
H72 C44 0.930 . S
H73 C45 0.925 1_545 S
H74 C47 0.929 . S
H75 C48 0.929 . S
H76 C53 0.930 . S
H77 C54 0.930 . S
H78 C56 0.929 . S
H79 C57 0.929 . S
La80 C82 2.928 . S
La80 O100 2.521 . S
La80 O101 2.628 . S
La80 O102 2.554 . S
La80 O103 2.757 . S
La80 O104 2.470 . S
La80 O109 2.482 . S
La80 O111 2.503 . S
La81 C91 2.928 . S
La81 O103 2.482 . S
La81 O105 2.503 . S
La81 O106 2.521 . S
La81 O107 2.628 . S
La81 O108 2.554 . S
La81 O109 2.757 . S
La81 O110 2.470 . S
C82 La80 2.928 . S
C82 C83 1.503 . S
C82 O100 1.261 . S
C82 O101 1.243 . S
C83 C82 1.503 . S
C83 C84 1.394 . S
C83 C88 1.373 . S
C84 C83 1.394 . S
C84 C85 1.380 . S
C84 H112 0.930 . S
C85 C84 1.380 . S
C85 C86 1.376 . S
C85 H113 0.930 . S
C86 C85 1.376 . S
C86 C87 1.370 . S
C87 C86 1.370 . S
C87 C88 1.396 . S
C87 H114 0.929 . S
C88 C83 1.373 . S
C88 C87 1.396 . S
C88 H115 0.929 . S
C89 O102 1.240 . S
C89 O103 1.289 . S
C90 O104 1.258 . S
C90 O105 1.256 . S
C91 La81 2.928 . S
C91 C92 1.503 . S
C91 O106 1.261 . S
C91 O107 1.243 . S
C92 C91 1.503 . S
C92 C93 1.394 . S
C92 C97 1.373 . S
C93 C92 1.394 . S
C93 C94 1.380 . S
C93 H116 0.930 . S
C94 C93 1.380 . S
C94 C95 1.376 . S
C94 H117 0.930 . S
C95 C94 1.376 . S
C95 C96 1.370 . S
C96 C95 1.370 . S
C96 C97 1.396 . S
C96 H118 0.929 . S
C97 C92 1.373 . S
C97 C96 1.396 . S
C97 H119 0.929 . S
C98 O108 1.240 . S
C98 O109 1.289 . S
C99 O110 1.258 . S
C99 O111 1.256 . S
O100 La80 2.521 . S
O100 C82 1.261 . S
O101 La80 2.628 . S
O101 C82 1.243 . S
O102 La80 2.554 . S
O102 C89 1.240 . S
O103 La80 2.757 . S
O103 La81 2.482 . S
O103 C89 1.289 . S
O104 La80 2.470 . S
O104 C90 1.258 . S
O105 La81 2.503 . S
O105 C90 1.256 . S
O106 La81 2.521 . S
O106 C91 1.261 . S
O107 La81 2.628 . S
O107 C91 1.243 . S
O108 La81 2.554 . S
O108 C98 1.240 . S
O109 La80 2.482 . S
O109 La81 2.757 . S
O109 C98 1.289 . S
O110 La81 2.470 . S
O110 C99 1.258 . S
O111 La80 2.503 . S
O111 C99 1.256 . S
H112 C84 0.930 . S
H113 C85 0.930 . S
H114 C87 0.929 . S
H115 C88 0.929 . S
H116 C93 0.930 . S
H117 C94 0.930 . S
H118 C96 0.929 . S
H119 C97 0.929 . S
La120 C122 2.928 1_554 S
La120 O140 2.521 . S
La120 O141 2.628 1_554 S
La120 O142 2.554 . S
La120 O143 2.757 . S
La120 O144 2.470 1_554 S
La120 O149 2.482 . S
La120 O151 2.503 . S
La121 C131 2.928 . S
La121 O143 2.482 . S
La121 O145 2.503 1_554 S
La121 O146 2.521 . S
La121 O147 2.628 . S
La121 O148 2.554 . S
La121 O149 2.757 . S
La121 O150 2.470 . S
C122 La120 2.928 1_556 S
C122 C123 1.503 . S
C122 O140 1.261 1_556 S
C122 O141 1.243 . S
C123 C122 1.503 . S
C123 C124 1.394 . S
C123 C128 1.373 . S
C124 C123 1.394 . S
C124 C125 1.380 . S
C124 H152 0.930 . S
C125 C124 1.380 . S
C125 C126 1.376 . S
C125 H153 0.925 1_545 S
C126 C125 1.376 . S
C126 C127 1.370 . S
C127 C126 1.370 . S
C127 C128 1.396 . S
C127 H154 0.929 . S
C128 C123 1.373 . S
C128 C127 1.396 . S
C128 H155 0.929 . S
C129 O142 1.240 . S
C129 O143 1.289 . S
C130 O144 1.258 . S
C130 O145 1.256 . S
C131 La121 2.928 . S
C131 C132 1.503 . S
C131 O146 1.261 . S
C131 O147 1.243 . S
C132 C131 1.503 . S
C132 C133 1.394 . S
C132 C137 1.373 . S
C133 C132 1.394 . S
C133 C134 1.380 . S
C133 H156 0.930 . S
C134 C133 1.380 . S
C134 C135 1.376 . S
C134 H157 0.930 . S
C135 C134 1.376 . S
C135 C136 1.370 . S
C136 C135 1.370 . S
C136 C137 1.396 . S
C136 H158 0.929 . S
C137 C132 1.373 . S
C137 C136 1.396 . S
C137 H159 0.929 . S
C138 O148 1.240 . S
C138 O149 1.289 . S
C139 O150 1.258 . S
C139 O151 1.256 . S
O140 La120 2.521 . S
O140 C122 1.261 1_554 S
O141 La120 2.628 1_556 S
O141 C122 1.243 . S
O142 La120 2.554 . S
O142 C129 1.240 . S
O143 La120 2.757 . S
O143 La121 2.482 . S
O143 C129 1.289 . S
O144 La120 2.470 1_556 S
O144 C130 1.258 . S
O145 La121 2.503 1_556 S
O145 C130 1.256 . S
O146 La121 2.521 . S
O146 C131 1.261 . S
O147 La121 2.628 . S
O147 C131 1.243 . S
O148 La121 2.554 . S
O148 C138 1.240 . S
O149 La120 2.482 . S
O149 La121 2.757 . S
O149 C138 1.289 . S
O150 La121 2.470 . S
O150 C139 1.258 . S
O151 La120 2.503 . S
O151 C139 1.256 . S
H152 C124 0.930 . S
H153 C125 0.925 1_565 S
H154 C127 0.929 . S
H155 C128 0.929 . S
H156 C133 0.930 . S
H157 C134 0.930 . S
H158 C136 0.929 . S
H159 C137 0.929 . S
La160 C162 2.928 . S
La160 O180 2.521 . S
La160 O181 2.628 . S
La160 O182 2.554 . S
La160 O183 2.757 . S
La160 O184 2.470 . S
La160 O189 2.482 . S
La160 O191 2.503 . S
La161 C171 2.928 . S
La161 O183 2.482 . S
La161 O185 2.503 . S
La161 O186 2.521 . S
La161 O187 2.628 . S
La161 O188 2.554 . S
La161 O189 2.757 . S
La161 O190 2.470 . S
C162 La160 2.928 . S
C162 C163 1.503 . S
C162 O180 1.261 . S
C162 O181 1.243 . S
C163 C162 1.503 . S
C163 C164 1.394 . S
C163 C168 1.373 . S
C164 C163 1.394 . S
C164 C165 1.380 . S
C164 H192 0.930 . S
C165 C164 1.380 . S
C165 C166 1.376 . S
C165 H193 0.930 . S
C166 C165 1.376 . S
C166 C167 1.370 . S
C167 C166 1.370 . S
C167 C168 1.396 . S
C167 H194 0.929 . S
C168 C163 1.373 . S
C168 C167 1.396 . S
C168 H195 0.929 . S
C169 O182 1.240 . S
C169 O183 1.289 . S
C170 O184 1.258 . S
C170 O185 1.256 . S
C171 La161 2.928 . S
C171 C172 1.503 . S
C171 O186 1.261 . S
C171 O187 1.243 . S
C172 C171 1.503 . S
C172 C173 1.394 . S
C172 C177 1.373 . S
C173 C172 1.394 . S
C173 C174 1.380 . S
C173 H196 0.930 . S
C174 C173 1.380 . S
C174 C175 1.376 . S
C174 H197 0.930 . S
C175 C174 1.376 . S
C175 C176 1.370 . S
C176 C175 1.370 . S
C176 C177 1.396 . S
C176 H198 0.929 . S
C177 C172 1.373 . S
C177 C176 1.396 . S
C177 H199 0.929 . S
C178 O188 1.240 . S
C178 O189 1.289 . S
C179 O190 1.258 . S
C179 O191 1.256 . S
O180 La160 2.521 . S
O180 C162 1.261 . S
O181 La160 2.628 . S
O181 C162 1.243 . S
O182 La160 2.554 . S
O182 C169 1.240 . S
O183 La160 2.757 . S
O183 La161 2.482 . S
O183 C169 1.289 . S
O184 La160 2.470 . S
O184 C170 1.258 . S
O185 La161 2.503 . S
O185 C170 1.256 . S
O186 La161 2.521 . S
O186 C171 1.261 . S
O187 La161 2.628 . S
O187 C171 1.243 . S
O188 La161 2.554 . S
O188 C178 1.240 . S
O189 La160 2.482 . S
O189 La161 2.757 . S
O189 C178 1.289 . S
O190 La161 2.470 . S
O190 C179 1.258 . S
O191 La160 2.503 . S
O191 C179 1.256 . S
H192 C164 0.930 . S
H193 C165 0.930 . S
H194 C167 0.929 . S
H195 C168 0.929 . S
H196 C173 0.930 . S
H197 C174 0.930 . S
H198 C176 0.929 . S
H199 C177 0.929 . S
La200 C202 2.928 . S
La200 O220 2.521 . S
La200 O221 2.628 . S
La200 O222 2.554 . S
La200 O223 2.757 . S
La200 O224 2.470 . S
La200 O229 2.482 . S
La200 O231 2.503 . S
La201 C211 2.928 . S
La201 O223 2.482 . S
La201 O225 2.503 . S
La201 O226 2.521 . S
La201 O227 2.628 . S
La201 O228 2.554 . S
La201 O229 2.757 . S
La201 O230 2.470 . S
C202 La200 2.928 . S
C202 C203 1.503 . S
C202 O220 1.261 . S
C202 O221 1.243 . S
C203 C202 1.503 . S
C203 C204 1.394 . S
C203 C208 1.373 . S
C204 C203 1.394 . S
C204 C205 1.380 . S
C204 H232 0.930 . S
C205 C204 1.380 . S
C205 C206 1.376 . S
C205 H233 0.925 1_565 S
C206 C205 1.376 . S
C206 C207 1.370 . S
C207 C206 1.370 . S
C207 C208 1.396 . S
C207 H234 0.929 . S
C208 C203 1.373 . S
C208 C207 1.396 . S
C208 H235 0.929 . S
C209 O222 1.240 . S
C209 O223 1.289 . S
C210 O224 1.258 . S
C210 O225 1.256 . S
C211 La201 2.928 . S
C211 C212 1.503 . S
C211 O226 1.261 . S
C211 O227 1.243 . S
C212 C211 1.503 . S
C212 C213 1.394 . S
C212 C217 1.373 . S
C213 C212 1.394 . S
C213 C214 1.380 . S
C213 H236 0.930 . S
C214 C213 1.380 . S
C214 C215 1.376 . S
C214 H237 0.930 . S
C215 C214 1.376 . S
C215 C216 1.370 . S
C216 C215 1.370 . S
C216 C217 1.396 . S
C216 H238 0.929 . S
C217 C212 1.373 . S
C217 C216 1.396 . S
C217 H239 0.929 . S
C218 O228 1.240 . S
C218 O229 1.289 . S
C219 O230 1.258 . S
C219 O231 1.256 . S
O220 La200 2.521 . S
O220 C202 1.261 . S
O221 La200 2.628 . S
O221 C202 1.243 . S
O222 La200 2.554 . S
O222 C209 1.240 . S
O223 La200 2.757 . S
O223 La201 2.482 . S
O223 C209 1.289 . S
O224 La200 2.470 . S
O224 C210 1.258 . S
O225 La201 2.503 . S
O225 C210 1.256 . S
O226 La201 2.521 . S
O226 C211 1.261 . S
O227 La201 2.628 . S
O227 C211 1.243 . S
O228 La201 2.554 . S
O228 C218 1.240 . S
O229 La200 2.482 . S
O229 La201 2.757 . S
O229 C218 1.289 . S
O230 La201 2.470 . S
O230 C219 1.258 . S
O231 La200 2.503 . S
O231 C219 1.256 . S
H232 C204 0.930 . S
H233 C205 0.925 1_545 S
H234 C207 0.929 . S
H235 C208 0.929 . S
H236 C213 0.930 . S
H237 C214 0.930 . S
H238 C216 0.929 . S
H239 C217 0.929 . S
La240 C242 2.928 . S
La240 O260 2.521 . S
La240 O261 2.628 . S
La240 O262 2.554 . S
La240 O263 2.757 . S
La240 O264 2.470 . S
La240 O269 2.482 . S
La240 O271 2.503 . S
La241 C251 2.928 . S
La241 O263 2.482 . S
La241 O265 2.503 . S
La241 O266 2.521 . S
La241 O267 2.628 . S
La241 O268 2.554 . S
La241 O269 2.757 . S
La241 O270 2.470 . S
C242 La240 2.928 . S
C242 C243 1.503 . S
C242 O260 1.261 . S
C242 O261 1.243 . S
C243 C242 1.503 . S
C243 C244 1.394 . S
C243 C248 1.373 . S
C244 C243 1.394 . S
C244 C245 1.380 . S
C244 H272 0.930 . S
C245 C244 1.380 . S
C245 C246 1.376 . S
C245 H273 0.930 . S
C246 C245 1.376 . S
C246 C247 1.370 . S
C247 C246 1.370 . S
C247 C248 1.396 . S
C247 H274 0.929 . S
C248 C243 1.373 . S
C248 C247 1.396 . S
C248 H275 0.929 . S
C249 O262 1.240 . S
C249 O263 1.289 . S
C250 O264 1.258 . S
C250 O265 1.256 . S
C251 La241 2.928 . S
C251 C252 1.503 . S
C251 O266 1.261 . S
C251 O267 1.243 . S
C252 C251 1.503 . S
C252 C253 1.394 . S
C252 C257 1.373 . S
C253 C252 1.394 . S
C253 C254 1.380 . S
C253 H276 0.930 . S
C254 C253 1.380 . S
C254 C255 1.376 . S
C254 H277 0.930 . S
C255 C254 1.376 . S
C255 C256 1.370 . S
C256 C255 1.370 . S
C256 C257 1.396 . S
C256 H278 0.929 . S
C257 C252 1.373 . S
C257 C256 1.396 . S
C257 H279 0.929 . S
C258 O268 1.240 . S
C258 O269 1.289 . S
C259 O270 1.258 . S
C259 O271 1.256 . S
O260 La240 2.521 . S
O260 C242 1.261 . S
O261 La240 2.628 . S
O261 C242 1.243 . S
O262 La240 2.554 . S
O262 C249 1.240 . S
O263 La240 2.757 . S
O263 La241 2.482 . S
O263 C249 1.289 . S
O264 La240 2.470 . S
O264 C250 1.258 . S
O265 La241 2.503 . S
O265 C250 1.256 . S
O266 La241 2.521 . S
O266 C251 1.261 . S
O267 La241 2.628 . S
O267 C251 1.243 . S
O268 La241 2.554 . S
O268 C258 1.240 . S
O269 La240 2.482 . S
O269 La241 2.757 . S
O269 C258 1.289 . S
O270 La241 2.470 . S
O270 C259 1.258 . S
O271 La240 2.503 . S
O271 C259 1.256 . S
H272 C244 0.930 . S
H273 C245 0.930 . S
H274 C247 0.929 . S
H275 C248 0.929 . S
H276 C253 0.930 . S
H277 C254 0.930 . S
H278 C256 0.929 . S
H279 C257 0.929 . S
La280 C282 2.928 1_556 S
La280 O300 2.521 . S
La280 O301 2.628 1_556 S
La280 O302 2.554 . S
La280 O303 2.757 . S
La280 O304 2.470 1_556 S
La280 O309 2.482 . S
La280 O311 2.503 . S
La281 C291 2.928 . S
La281 O303 2.482 . S
La281 O305 2.503 1_556 S
La281 O306 2.521 . S
La281 O307 2.628 . S
La281 O308 2.554 . S
La281 O309 2.757 . S
La281 O310 2.470 . S
C282 La280 2.928 1_554 S
C282 C283 1.503 . S
C282 O300 1.261 1_554 S
C282 O301 1.243 . S
C283 C282 1.503 . S
C283 C284 1.394 . S
C283 C288 1.373 . S
C284 C283 1.394 . S
C284 C285 1.380 . S
C284 H312 0.930 . S
C285 C284 1.380 . S
C285 C286 1.376 . S
C285 H313 0.925 1_545 S
C286 C285 1.376 . S
C286 C287 1.370 . S
C287 C286 1.370 . S
C287 C288 1.396 . S
C287 H314 0.929 . S
C288 C283 1.373 . S
C288 C287 1.396 . S
C288 H315 0.929 . S
C289 O302 1.240 . S
C289 O303 1.289 . S
C290 O304 1.258 . S
C290 O305 1.256 . S
C291 La281 2.928 . S
C291 C292 1.503 . S
C291 O306 1.261 . S
C291 O307 1.243 . S
C292 C291 1.503 . S
C292 C293 1.394 . S
C292 C297 1.373 . S
C293 C292 1.394 . S
C293 C294 1.380 . S
C293 H316 0.930 . S
C294 C293 1.380 . S
C294 C295 1.376 . S
C294 H317 0.930 . S
C295 C294 1.376 . S
C295 C296 1.370 . S
C296 C295 1.370 . S
C296 C297 1.396 . S
C296 H318 0.929 . S
C297 C292 1.373 . S
C297 C296 1.396 . S
C297 H319 0.929 . S
C298 O308 1.240 . S
C298 O309 1.289 . S
C299 O310 1.258 . S
C299 O311 1.256 . S
O300 La280 2.521 . S
O300 C282 1.261 1_556 S
O301 La280 2.628 1_554 S
O301 C282 1.243 . S
O302 La280 2.554 . S
O302 C289 1.240 . S
O303 La280 2.757 . S
O303 La281 2.482 . S
O303 C289 1.289 . S
O304 La280 2.470 1_554 S
O304 C290 1.258 . S
O305 La281 2.503 1_554 S
O305 C290 1.256 . S
O306 La281 2.521 . S
O306 C291 1.261 . S
O307 La281 2.628 . S
O307 C291 1.243 . S
O308 La281 2.554 . S
O308 C298 1.240 . S
O309 La280 2.482 . S
O309 La281 2.757 . S
O309 C298 1.289 . S
O310 La281 2.470 . S
O310 C299 1.258 . S
O311 La280 2.503 . S
O311 C299 1.256 . S
H312 C284 0.930 . S
H313 C285 0.925 1_565 S
H314 C287 0.929 . S
H315 C288 0.929 . S
H316 C293 0.930 . S
H317 C294 0.930 . S
H318 C296 0.929 . S
H319 C297 0.929 . S
La320 C322 2.928 . S
La320 O340 2.521 . S
La320 O341 2.628 . S
La320 O342 2.554 . S
La320 O343 2.757 . S
La320 O344 2.470 . S
La320 O349 2.482 . S
La320 O351 2.503 . S
La321 C331 2.928 . S
La321 O343 2.482 . S
La321 O345 2.503 . S
La321 O346 2.521 . S
La321 O347 2.628 . S
La321 O348 2.554 . S
La321 O349 2.757 . S
La321 O350 2.470 . S
C322 La320 2.928 . S
C322 C323 1.503 . S
C322 O340 1.261 . S
C322 O341 1.243 . S
C323 C322 1.503 . S
C323 C324 1.394 . S
C323 C328 1.373 . S
C324 C323 1.394 . S
C324 C325 1.380 . S
C324 H352 0.930 . S
C325 C324 1.380 . S
C325 C326 1.376 . S
C325 H353 0.930 . S
C326 C325 1.376 . S
C326 C327 1.370 . S
C327 C326 1.370 . S
C327 C328 1.396 . S
C327 H354 0.929 . S
C328 C323 1.373 . S
C328 C327 1.396 . S
C328 H355 0.929 . S
C329 O342 1.240 . S
C329 O343 1.289 . S
C330 O344 1.258 . S
C330 O345 1.256 . S
C331 La321 2.928 . S
C331 C332 1.503 . S
C331 O346 1.261 . S
C331 O347 1.243 . S
C332 C331 1.503 . S
C332 C333 1.394 . S
C332 C337 1.373 . S
C333 C332 1.394 . S
C333 C334 1.380 . S
C333 H356 0.930 . S
C334 C333 1.380 . S
C334 C335 1.376 . S
C334 H357 0.930 . S
C335 C334 1.376 . S
C335 C336 1.370 . S
C336 C335 1.370 . S
C336 C337 1.396 . S
C336 H358 0.929 . S
C337 C332 1.373 . S
C337 C336 1.396 . S
C337 H359 0.929 . S
C338 O348 1.240 . S
C338 O349 1.289 . S
C339 O350 1.258 . S
C339 O351 1.256 . S
O340 La320 2.521 . S
O340 C322 1.261 . S
O341 La320 2.628 . S
O341 C322 1.243 . S
O342 La320 2.554 . S
O342 C329 1.240 . S
O343 La320 2.757 . S
O343 La321 2.482 . S
O343 C329 1.289 . S
O344 La320 2.470 . S
O344 C330 1.258 . S
O345 La321 2.503 . S
O345 C330 1.256 . S
O346 La321 2.521 . S
O346 C331 1.261 . S
O347 La321 2.628 . S
O347 C331 1.243 . S
O348 La321 2.554 . S
O348 C338 1.240 . S
O349 La320 2.482 . S
O349 La321 2.757 . S
O349 C338 1.289 . S
O350 La321 2.470 . S
O350 C339 1.258 . S
O351 La320 2.503 . S
O351 C339 1.256 . S
H352 C324 0.930 . S
H353 C325 0.930 . S
H354 C327 0.929 . S
H355 C328 0.929 . S
H356 C333 0.930 . S
H357 C334 0.930 . S
H358 C336 0.929 . S
H359 C337 0.929 . S
La360 C362 2.928 . S
La360 O380 2.521 . S
La360 O381 2.628 . S
La360 O382 2.554 . S
La360 O383 2.757 . S
La360 O384 2.470 . S
La360 O389 2.482 . S
La360 O391 2.503 . S
La361 C371 2.928 . S
La361 O383 2.482 . S
La361 O385 2.503 . S
La361 O386 2.521 . S
La361 O387 2.628 . S
La361 O388 2.554 . S
La361 O389 2.757 . S
La361 O390 2.470 . S
C362 La360 2.928 . S
C362 C363 1.503 . S
C362 O380 1.261 . S
C362 O381 1.243 . S
C363 C362 1.503 . S
C363 C364 1.394 . S
C363 C368 1.373 . S
C364 C363 1.394 . S
C364 C365 1.380 . S
C364 H392 0.930 . S
C365 C364 1.380 . S
C365 C366 1.376 . S
C365 H393 0.930 . S
C366 C365 1.376 . S
C366 C367 1.370 . S
C367 C366 1.370 . S
C367 C368 1.396 . S
C367 H394 0.929 . S
C368 C363 1.373 . S
C368 C367 1.396 . S
C368 H395 0.929 . S
C369 O382 1.240 . S
C369 O383 1.289 . S
C370 O384 1.258 . S
C370 O385 1.256 . S
C371 La361 2.928 . S
C371 C372 1.503 . S
C371 O386 1.261 . S
C371 O387 1.243 . S
C372 C371 1.503 . S
C372 C373 1.394 . S
C372 C377 1.373 . S
C373 C372 1.394 . S
C373 C374 1.380 . S
C373 H396 0.930 . S
C374 C373 1.380 . S
C374 C375 1.376 . S
C374 H397 0.925 1_545 S
C375 C374 1.376 . S
C375 C376 1.370 . S
C376 C375 1.370 . S
C376 C377 1.396 . S
C376 H398 0.929 . S
C377 C372 1.373 . S
C377 C376 1.396 . S
C377 H399 0.929 . S
C378 O388 1.240 . S
C378 O389 1.289 . S
C379 O390 1.258 . S
C379 O391 1.256 . S
O380 La360 2.521 . S
O380 C362 1.261 . S
O381 La360 2.628 . S
O381 C362 1.243 . S
O382 La360 2.554 . S
O382 C369 1.240 . S
O383 La360 2.757 . S
O383 La361 2.482 . S
O383 C369 1.289 . S
O384 La360 2.470 . S
O384 C370 1.258 . S
O385 La361 2.503 . S
O385 C370 1.256 . S
O386 La361 2.521 . S
O386 C371 1.261 . S
O387 La361 2.628 . S
O387 C371 1.243 . S
O388 La361 2.554 . S
O388 C378 1.240 . S
O389 La360 2.482 . S
O389 La361 2.757 . S
O389 C378 1.289 . S
O390 La361 2.470 . S
O390 C379 1.258 . S
O391 La360 2.503 . S
O391 C379 1.256 . S
H392 C364 0.930 . S
H393 C365 0.930 . S
H394 C367 0.929 . S
H395 C368 0.929 . S
H396 C373 0.930 . S
H397 C374 0.925 1_565 S
H398 C376 0.929 . S
H399 C377 0.929 . S
La400 C402 2.928 . S
La400 O420 2.521 . S
La400 O421 2.628 . S
La400 O422 2.554 . S
La400 O423 2.757 . S
La400 O424 2.470 . S
La400 O429 2.482 . S
La400 O431 2.503 . S
La401 C411 2.928 . S
La401 O423 2.482 . S
La401 O425 2.503 . S
La401 O426 2.521 . S
La401 O427 2.628 . S
La401 O428 2.554 . S
La401 O429 2.757 . S
La401 O430 2.470 . S
C402 La400 2.928 . S
C402 C403 1.503 . S
C402 O420 1.261 . S
C402 O421 1.243 . S
C403 C402 1.503 . S
C403 C404 1.394 . S
C403 C408 1.373 . S
C404 C403 1.394 . S
C404 C405 1.380 . S
C404 H432 0.930 . S
C405 C404 1.380 . S
C405 C406 1.376 . S
C405 H433 0.930 . S
C406 C405 1.376 . S
C406 C407 1.370 . S
C407 C406 1.370 . S
C407 C408 1.396 . S
C407 H434 0.929 . S
C408 C403 1.373 . S
C408 C407 1.396 . S
C408 H435 0.929 . S
C409 O422 1.240 . S
C409 O423 1.289 . S
C410 O424 1.258 . S
C410 O425 1.256 . S
C411 La401 2.928 . S
C411 C412 1.503 . S
C411 O426 1.261 . S
C411 O427 1.243 . S
C412 C411 1.503 . S
C412 C413 1.394 . S
C412 C417 1.373 . S
C413 C412 1.394 . S
C413 C414 1.380 . S
C413 H436 0.930 . S
C414 C413 1.380 . S
C414 C415 1.376 . S
C414 H437 0.930 . S
C415 C414 1.376 . S
C415 C416 1.370 . S
C416 C415 1.370 . S
C416 C417 1.396 . S
C416 H438 0.929 . S
C417 C412 1.373 . S
C417 C416 1.396 . S
C417 H439 0.929 . S
C418 O428 1.240 . S
C418 O429 1.289 . S
C419 O430 1.258 . S
C419 O431 1.256 . S
O420 La400 2.521 . S
O420 C402 1.261 . S
O421 La400 2.628 . S
O421 C402 1.243 . S
O422 La400 2.554 . S
O422 C409 1.240 . S
O423 La400 2.757 . S
O423 La401 2.482 . S
O423 C409 1.289 . S
O424 La400 2.470 . S
O424 C410 1.258 . S
O425 La401 2.503 . S
O425 C410 1.256 . S
O426 La401 2.521 . S
O426 C411 1.261 . S
O427 La401 2.628 . S
O427 C411 1.243 . S
O428 La401 2.554 . S
O428 C418 1.240 . S
O429 La400 2.482 . S
O429 La401 2.757 . S
O429 C418 1.289 . S
O430 La401 2.470 . S
O430 C419 1.258 . S
O431 La400 2.503 . S
O431 C419 1.256 . S
H432 C404 0.930 . S
H433 C405 0.930 . S
H434 C407 0.929 . S
H435 C408 0.929 . S
H436 C413 0.930 . S
H437 C414 0.930 . S
H438 C416 0.929 . S
H439 C417 0.929 . S
La440 C442 2.928 . S
La440 O460 2.521 . S
La440 O461 2.628 . S
La440 O462 2.554 . S
La440 O463 2.757 . S
La440 O464 2.470 . S
La440 O469 2.482 . S
La440 O471 2.503 1_556 S
La441 C451 2.928 1_556 S
La441 O463 2.482 . S
La441 O465 2.503 . S
La441 O466 2.521 . S
La441 O467 2.628 1_556 S
La441 O468 2.554 . S
La441 O469 2.757 . S
La441 O470 2.470 1_556 S
C442 La440 2.928 . S
C442 C443 1.503 . S
C442 O460 1.261 . S
C442 O461 1.243 . S
C443 C442 1.503 . S
C443 C444 1.394 . S
C443 C448 1.373 . S
C444 C443 1.394 . S
C444 C445 1.380 . S
C444 H472 0.930 . S
C445 C444 1.380 . S
C445 C446 1.376 . S
C445 H473 0.930 . S
C446 C445 1.376 . S
C446 C447 1.370 . S
C447 C446 1.370 . S
C447 C448 1.396 . S
C447 H474 0.929 . S
C448 C443 1.373 . S
C448 C447 1.396 . S
C448 H475 0.929 . S
C449 O462 1.240 . S
C449 O463 1.289 . S
C450 O464 1.258 . S
C450 O465 1.256 . S
C451 La441 2.928 1_554 S
C451 C452 1.503 . S
C451 O466 1.261 1_554 S
C451 O467 1.243 . S
C452 C451 1.503 . S
C452 C453 1.394 . S
C452 C457 1.373 . S
C453 C452 1.394 . S
C453 C454 1.380 . S
C453 H476 0.930 . S
C454 C453 1.380 . S
C454 C455 1.376 . S
C454 H477 0.925 1_565 S
C455 C454 1.376 . S
C455 C456 1.370 . S
C456 C455 1.370 . S
C456 C457 1.396 . S
C456 H478 0.929 . S
C457 C452 1.373 . S
C457 C456 1.396 . S
C457 H479 0.929 . S
C458 O468 1.240 . S
C458 O469 1.289 . S
C459 O470 1.258 . S
C459 O471 1.256 . S
O460 La440 2.521 . S
O460 C442 1.261 . S
O461 La440 2.628 . S
O461 C442 1.243 . S
O462 La440 2.554 . S
O462 C449 1.240 . S
O463 La440 2.757 . S
O463 La441 2.482 . S
O463 C449 1.289 . S
O464 La440 2.470 . S
O464 C450 1.258 . S
O465 La441 2.503 . S
O465 C450 1.256 . S
O466 La441 2.521 . S
O466 C451 1.261 1_556 S
O467 La441 2.628 1_554 S
O467 C451 1.243 . S
O468 La441 2.554 . S
O468 C458 1.240 . S
O469 La440 2.482 . S
O469 La441 2.757 . S
O469 C458 1.289 . S
O470 La441 2.470 1_554 S
O470 C459 1.258 . S
O471 La440 2.503 1_554 S
O471 C459 1.256 . S
H472 C444 0.930 . S
H473 C445 0.930 . S
H474 C447 0.929 . S
H475 C448 0.929 . S
H476 C453 0.930 . S
H477 C454 0.925 1_545 S
H478 C456 0.929 . S
H479 C457 0.929 . S
La480 C482 2.928 . S
La480 O500 2.521 . S
La480 O501 2.628 . S
La480 O502 2.554 . S
La480 O503 2.757 . S
La480 O504 2.470 . S
La480 O509 2.482 . S
La480 O511 2.503 . S
La481 C491 2.928 . S
La481 O503 2.482 . S
La481 O505 2.503 . S
La481 O506 2.521 . S
La481 O507 2.628 . S
La481 O508 2.554 . S
La481 O509 2.757 . S
La481 O510 2.470 . S
C482 La480 2.928 . S
C482 C483 1.503 . S
C482 O500 1.261 . S
C482 O501 1.243 . S
C483 C482 1.503 . S
C483 C484 1.394 . S
C483 C488 1.373 . S
C484 C483 1.394 . S
C484 C485 1.380 . S
C484 H512 0.930 . S
C485 C484 1.380 . S
C485 C486 1.376 . S
C485 H513 0.930 . S
C486 C485 1.376 . S
C486 C487 1.370 . S
C487 C486 1.370 . S
C487 C488 1.396 . S
C487 H514 0.929 . S
C488 C483 1.373 . S
C488 C487 1.396 . S
C488 H515 0.929 . S
C489 O502 1.240 . S
C489 O503 1.289 . S
C490 O504 1.258 . S
C490 O505 1.256 . S
C491 La481 2.928 . S
C491 C492 1.503 . S
C491 O506 1.261 . S
C491 O507 1.243 . S
C492 C491 1.503 . S
C492 C493 1.394 . S
C492 C497 1.373 . S
C493 C492 1.394 . S
C493 C494 1.380 . S
C493 H516 0.930 . S
C494 C493 1.380 . S
C494 C495 1.376 . S
C494 H517 0.930 . S
C495 C494 1.376 . S
C495 C496 1.370 . S
C496 C495 1.370 . S
C496 C497 1.396 . S
C496 H518 0.929 . S
C497 C492 1.373 . S
C497 C496 1.396 . S
C497 H519 0.929 . S
C498 O508 1.240 . S
C498 O509 1.289 . S
C499 O510 1.258 . S
C499 O511 1.256 . S
O500 La480 2.521 . S
O500 C482 1.261 . S
O501 La480 2.628 . S
O501 C482 1.243 . S
O502 La480 2.554 . S
O502 C489 1.240 . S
O503 La480 2.757 . S
O503 La481 2.482 . S
O503 C489 1.289 . S
O504 La480 2.470 . S
O504 C490 1.258 . S
O505 La481 2.503 . S
O505 C490 1.256 . S
O506 La481 2.521 . S
O506 C491 1.261 . S
O507 La481 2.628 . S
O507 C491 1.243 . S
O508 La481 2.554 . S
O508 C498 1.240 . S
O509 La480 2.482 . S
O509 La481 2.757 . S
O509 C498 1.289 . S
O510 La481 2.470 . S
O510 C499 1.258 . S
O511 La480 2.503 . S
O511 C499 1.256 . S
H512 C484 0.930 . S
H513 C485 0.930 . S
H514 C487 0.929 . S
H515 C488 0.929 . S
H516 C493 0.930 . S
H517 C494 0.930 . S
H518 C496 0.929 . S
H519 C497 0.929 . S
La520 C522 2.928 . S
La520 O540 2.521 . S
La520 O541 2.628 . S
La520 O542 2.554 . S
La520 O543 2.757 . S
La520 O544 2.470 . S
La520 O549 2.482 . S
La520 O551 2.503 . S
La521 C531 2.928 . S
La521 O543 2.482 . S
La521 O545 2.503 . S
La521 O546 2.521 . S
La521 O547 2.628 . S
La521 O548 2.554 . S
La521 O549 2.757 . S
La521 O550 2.470 . S
C522 La520 2.928 . S
C522 C523 1.503 . S
C522 O540 1.261 . S
C522 O541 1.243 . S
C523 C522 1.503 . S
C523 C524 1.394 . S
C523 C528 1.373 . S
C524 C523 1.394 . S
C524 C525 1.380 . S
C524 H552 0.930 . S
C525 C524 1.380 . S
C525 C526 1.376 . S
C525 H553 0.930 . S
C526 C525 1.376 . S
C526 C527 1.370 . S
C527 C526 1.370 . S
C527 C528 1.396 . S
C527 H554 0.929 . S
C528 C523 1.373 . S
C528 C527 1.396 . S
C528 H555 0.929 . S
C529 O542 1.240 . S
C529 O543 1.289 . S
C530 O544 1.258 . S
C530 O545 1.256 . S
C531 La521 2.928 . S
C531 C532 1.503 . S
C531 O546 1.261 . S
C531 O547 1.243 . S
C532 C531 1.503 . S
C532 C533 1.394 . S
C532 C537 1.373 . S
C533 C532 1.394 . S
C533 C534 1.380 . S
C533 H556 0.930 . S
C534 C533 1.380 . S
C534 C535 1.376 . S
C534 H557 0.925 1_545 S
C535 C534 1.376 . S
C535 C536 1.370 . S
C536 C535 1.370 . S
C536 C537 1.396 . S
C536 H558 0.929 . S
C537 C532 1.373 . S
C537 C536 1.396 . S
C537 H559 0.929 . S
C538 O548 1.240 . S
C538 O549 1.289 . S
C539 O550 1.258 . S
C539 O551 1.256 . S
O540 La520 2.521 . S
O540 C522 1.261 . S
O541 La520 2.628 . S
O541 C522 1.243 . S
O542 La520 2.554 . S
O542 C529 1.240 . S
O543 La520 2.757 . S
O543 La521 2.482 . S
O543 C529 1.289 . S
O544 La520 2.470 . S
O544 C530 1.258 . S
O545 La521 2.503 . S
O545 C530 1.256 . S
O546 La521 2.521 . S
O546 C531 1.261 . S
O547 La521 2.628 . S
O547 C531 1.243 . S
O548 La521 2.554 . S
O548 C538 1.240 . S
O549 La520 2.482 . S
O549 La521 2.757 . S
O549 C538 1.289 . S
O550 La521 2.470 . S
O550 C539 1.258 . S
O551 La520 2.503 . S
O551 C539 1.256 . S
H552 C524 0.930 . S
H553 C525 0.930 . S
H554 C527 0.929 . S
H555 C528 0.929 . S
H556 C533 0.930 . S
H557 C534 0.925 1_565 S
H558 C536 0.929 . S
H559 C537 0.929 . S
La560 C562 2.928 . S
La560 O580 2.521 . S
La560 O581 2.628 . S
La560 O582 2.554 . S
La560 O583 2.757 . S
La560 O584 2.470 . S
La560 O589 2.482 . S
La560 O591 2.503 . S
La561 C571 2.928 . S
La561 O583 2.482 . S
La561 O585 2.503 . S
La561 O586 2.521 . S
La561 O587 2.628 . S
La561 O588 2.554 . S
La561 O589 2.757 . S
La561 O590 2.470 . S
C562 La560 2.928 . S
C562 C563 1.503 . S
C562 O580 1.261 . S
C562 O581 1.243 . S
C563 C562 1.503 . S
C563 C564 1.394 . S
C563 C568 1.373 . S
C564 C563 1.394 . S
C564 C565 1.380 . S
C564 H592 0.930 . S
C565 C564 1.380 . S
C565 C566 1.376 . S
C565 H593 0.930 . S
C566 C565 1.376 . S
C566 C567 1.370 . S
C567 C566 1.370 . S
C567 C568 1.396 . S
C567 H594 0.929 . S
C568 C563 1.373 . S
C568 C567 1.396 . S
C568 H595 0.929 . S
C569 O582 1.240 . S
C569 O583 1.289 . S
C570 O584 1.258 . S
C570 O585 1.256 . S
C571 La561 2.928 . S
C571 C572 1.503 . S
C571 O586 1.261 . S
C571 O587 1.243 . S
C572 C571 1.503 . S
C572 C573 1.394 . S
C572 C577 1.373 . S
C573 C572 1.394 . S
C573 C574 1.380 . S
C573 H596 0.930 . S
C574 C573 1.380 . S
C574 C575 1.376 . S
C574 H597 0.930 . S
C575 C574 1.376 . S
C575 C576 1.370 . S
C576 C575 1.370 . S
C576 C577 1.396 . S
C576 H598 0.929 . S
C577 C572 1.373 . S
C577 C576 1.396 . S
C577 H599 0.929 . S
C578 O588 1.240 . S
C578 O589 1.289 . S
C579 O590 1.258 . S
C579 O591 1.256 . S
O580 La560 2.521 . S
O580 C562 1.261 . S
O581 La560 2.628 . S
O581 C562 1.243 . S
O582 La560 2.554 . S
O582 C569 1.240 . S
O583 La560 2.757 . S
O583 La561 2.482 . S
O583 C569 1.289 . S
O584 La560 2.470 . S
O584 C570 1.258 . S
O585 La561 2.503 . S
O585 C570 1.256 . S
O586 La561 2.521 . S
O586 C571 1.261 . S
O587 La561 2.628 . S
O587 C571 1.243 . S
O588 La561 2.554 . S
O588 C578 1.240 . S
O589 La560 2.482 . S
O589 La561 2.757 . S
O589 C578 1.289 . S
O590 La561 2.470 . S
O590 C579 1.258 . S
O591 La560 2.503 . S
O591 C579 1.256 . S
H592 C564 0.930 . S
H593 C565 0.930 . S
H594 C567 0.929 . S
H595 C568 0.929 . S
H596 C573 0.930 . S
H597 C574 0.930 . S
H598 C576 0.929 . S
H599 C577 0.929 . S
La600 C602 2.928 . S
La600 O620 2.521 . S
La600 O621 2.628 . S
La600 O622 2.554 . S
La600 O623 2.757 . S
La600 O624 2.470 . S
La600 O629 2.482 . S
La600 O631 2.503 1_554 S
La601 C611 2.928 1_554 S
La601 O623 2.482 . S
La601 O625 2.503 . S
La601 O626 2.521 . S
La601 O627 2.628 1_554 S
La601 O628 2.554 . S
La601 O629 2.757 . S
La601 O630 2.470 1_554 S
C602 La600 2.928 . S
C602 C603 1.503 . S
C602 O620 1.261 . S
C602 O621 1.243 . S
C603 C602 1.503 . S
C603 C604 1.394 . S
C603 C608 1.373 . S
C604 C603 1.394 . S
C604 C605 1.380 . S
C604 H632 0.930 . S
C605 C604 1.380 . S
C605 C606 1.376 . S
C605 H633 0.930 . S
C606 C605 1.376 . S
C606 C607 1.370 . S
C607 C606 1.370 . S
C607 C608 1.396 . S
C607 H634 0.929 . S
C608 C603 1.373 . S
C608 C607 1.396 . S
C608 H635 0.929 . S
C609 O622 1.240 . S
C609 O623 1.289 . S
C610 O624 1.258 . S
C610 O625 1.256 . S
C611 La601 2.928 1_556 S
C611 C612 1.503 . S
C611 O626 1.261 1_556 S
C611 O627 1.243 . S
C612 C611 1.503 . S
C612 C613 1.394 . S
C612 C617 1.373 . S
C613 C612 1.394 . S
C613 C614 1.380 . S
C613 H636 0.930 . S
C614 C613 1.380 . S
C614 C615 1.376 . S
C614 H637 0.925 1_565 S
C615 C614 1.376 . S
C615 C616 1.370 . S
C616 C615 1.370 . S
C616 C617 1.396 . S
C616 H638 0.929 . S
C617 C612 1.373 . S
C617 C616 1.396 . S
C617 H639 0.929 . S
C618 O628 1.240 . S
C618 O629 1.289 . S
C619 O630 1.258 . S
C619 O631 1.256 . S
O620 La600 2.521 . S
O620 C602 1.261 . S
O621 La600 2.628 . S
O621 C602 1.243 . S
O622 La600 2.554 . S
O622 C609 1.240 . S
O623 La600 2.757 . S
O623 La601 2.482 . S
O623 C609 1.289 . S
O624 La600 2.470 . S
O624 C610 1.258 . S
O625 La601 2.503 . S
O625 C610 1.256 . S
O626 La601 2.521 . S
O626 C611 1.261 1_554 S
O627 La601 2.628 1_556 S
O627 C611 1.243 . S
O628 La601 2.554 . S
O628 C618 1.240 . S
O629 La600 2.482 . S
O629 La601 2.757 . S
O629 C618 1.289 . S
O630 La601 2.470 1_556 S
O630 C619 1.258 . S
O631 La600 2.503 1_556 S
O631 C619 1.256 . S
H632 C604 0.930 . S
H633 C605 0.930 . S
H634 C607 0.929 . S
H635 C608 0.929 . S
H636 C613 0.930 . S
H637 C614 0.925 1_545 S
H638 C616 0.929 . S
H639 C617 0.929 . S
La640 C642 2.928 . S
La640 O660 2.521 . S
La640 O661 2.628 . S
La640 O662 2.554 . S
La640 O663 2.757 . S
La640 O664 2.470 . S
La640 O669 2.482 . S
La640 O671 2.503 . S
La641 C651 2.928 . S
La641 O663 2.482 . S
La641 O665 2.503 . S
La641 O666 2.521 . S
La641 O667 2.628 . S
La641 O668 2.554 . S
La641 O669 2.757 . S
La641 O670 2.470 . S
C642 La640 2.928 . S
C642 C643 1.503 . S
C642 O660 1.261 . S
C642 O661 1.243 . S
C643 C642 1.503 . S
C643 C644 1.394 . S
C643 C648 1.373 . S
C644 C643 1.394 . S
C644 C645 1.380 . S
C644 H672 0.930 . S
C645 C644 1.380 . S
C645 C646 1.376 . S
C645 H673 0.930 . S
C646 C645 1.376 . S
C646 C647 1.370 . S
C647 C646 1.370 . S
C647 C648 1.396 . S
C647 H674 0.929 . S
C648 C643 1.373 . S
C648 C647 1.396 . S
C648 H675 0.929 . S
C649 O662 1.240 . S
C649 O663 1.289 . S
C650 O664 1.258 . S
C650 O665 1.256 . S
C651 La641 2.928 . S
C651 C652 1.503 . S
C651 O666 1.261 . S
C651 O667 1.243 . S
C652 C651 1.503 . S
C652 C653 1.394 . S
C652 C657 1.373 . S
C653 C652 1.394 . S
C653 C654 1.380 . S
C653 H676 0.930 . S
C654 C653 1.380 . S
C654 C655 1.376 . S
C654 H677 0.930 . S
C655 C654 1.376 . S
C655 C656 1.370 . S
C656 C655 1.370 . S
C656 C657 1.396 . S
C656 H678 0.929 . S
C657 C652 1.373 . S
C657 C656 1.396 . S
C657 H679 0.929 . S
C658 O668 1.240 . S
C658 O669 1.289 . S
C659 O670 1.258 . S
C659 O671 1.256 . S
O660 La640 2.521 . S
O660 C642 1.261 . S
O661 La640 2.628 . S
O661 C642 1.243 . S
O662 La640 2.554 . S
O662 C649 1.240 . S
O663 La640 2.757 . S
O663 La641 2.482 . S
O663 C649 1.289 . S
O664 La640 2.470 . S
O664 C650 1.258 . S
O665 La641 2.503 . S
O665 C650 1.256 . S
O666 La641 2.521 . S
O666 C651 1.261 . S
O667 La641 2.628 . S
O667 C651 1.243 . S
O668 La641 2.554 . S
O668 C658 1.240 . S
O669 La640 2.482 . S
O669 La641 2.757 . S
O669 C658 1.289 . S
O670 La641 2.470 . S
O670 C659 1.258 . S
O671 La640 2.503 . S
O671 C659 1.256 . S
H672 C644 0.930 . S
H673 C645 0.930 . S
H674 C647 0.929 . S
H675 C648 0.929 . S
H676 C653 0.930 . S
H677 C654 0.930 . S
H678 C656 0.929 . S
H679 C657 0.929 . S
La680 C682 2.928 1_554 S
La680 O700 2.521 . S
La680 O701 2.628 1_554 S
La680 O702 2.554 . S
La680 O703 2.757 . S
La680 O704 2.470 1_554 S
La680 O709 2.482 . S
La680 O711 2.503 . S
La681 C691 2.928 . S
La681 O703 2.482 . S
La681 O705 2.503 1_554 S
La681 O706 2.521 . S
La681 O707 2.628 . S
La681 O708 2.554 . S
La681 O709 2.757 . S
La681 O710 2.470 . S
C682 La680 2.928 1_556 S
C682 C683 1.503 . S
C682 O700 1.261 1_556 S
C682 O701 1.243 . S
C683 C682 1.503 . S
C683 C684 1.394 . S
C683 C688 1.373 . S
C684 C683 1.394 . S
C684 C685 1.380 . S
C684 H712 0.930 . S
C685 C684 1.380 . S
C685 C686 1.376 . S
C685 H713 0.930 . S
C686 C685 1.376 . S
C686 C687 1.370 . S
C687 C686 1.370 . S
C687 C688 1.396 . S
C687 H714 0.929 . S
C688 C683 1.373 . S
C688 C687 1.396 . S
C688 H715 0.929 . S
C689 O702 1.240 . S
C689 O703 1.289 . S
C690 O704 1.258 . S
C690 O705 1.256 . S
C691 La681 2.928 . S
C691 C692 1.503 . S
C691 O706 1.261 . S
C691 O707 1.243 . S
C692 C691 1.503 . S
C692 C693 1.394 . S
C692 C697 1.373 . S
C693 C692 1.394 . S
C693 C694 1.380 . S
C693 H716 0.930 . S
C694 C693 1.380 . S
C694 C695 1.376 . S
C694 H717 0.930 . S
C695 C694 1.376 . S
C695 C696 1.370 . S
C696 C695 1.370 . S
C696 C697 1.396 . S
C696 H718 0.929 . S
C697 C692 1.373 . S
C697 C696 1.396 . S
C697 H719 0.929 . S
C698 O708 1.240 . S
C698 O709 1.289 . S
C699 O710 1.258 . S
C699 O711 1.256 . S
O700 La680 2.521 . S
O700 C682 1.261 1_554 S
O701 La680 2.628 1_556 S
O701 C682 1.243 . S
O702 La680 2.554 . S
O702 C689 1.240 . S
O703 La680 2.757 . S
O703 La681 2.482 . S
O703 C689 1.289 . S
O704 La680 2.470 1_556 S
O704 C690 1.258 . S
O705 La681 2.503 1_556 S
O705 C690 1.256 . S
O706 La681 2.521 . S
O706 C691 1.261 . S
O707 La681 2.628 . S
O707 C691 1.243 . S
O708 La681 2.554 . S
O708 C698 1.240 . S
O709 La680 2.482 . S
O709 La681 2.757 . S
O709 C698 1.289 . S
O710 La681 2.470 . S
O710 C699 1.258 . S
O711 La680 2.503 . S
O711 C699 1.256 . S
H712 C684 0.930 . S
H713 C685 0.930 . S
H714 C687 0.929 . S
H715 C688 0.929 . S
H716 C693 0.930 . S
H717 C694 0.930 . S
H718 C696 0.929 . S
H719 C697 0.929 . S
La720 C722 2.928 . S
La720 O740 2.521 . S
La720 O741 2.628 . S
La720 O742 2.554 . S
La720 O743 2.757 . S
La720 O744 2.470 . S
La720 O749 2.482 . S
La720 O751 2.503 . S
La721 C731 2.928 . S
La721 O743 2.482 . S
La721 O745 2.503 . S
La721 O746 2.521 . S
La721 O747 2.628 . S
La721 O748 2.554 . S
La721 O749 2.757 . S
La721 O750 2.470 . S
C722 La720 2.928 . S
C722 C723 1.503 . S
C722 O740 1.261 . S
C722 O741 1.243 . S
C723 C722 1.503 . S
C723 C724 1.394 . S
C723 C728 1.373 . S
C724 C723 1.394 . S
C724 C725 1.380 . S
C724 H752 0.930 . S
C725 C724 1.380 . S
C725 C726 1.376 . S
C725 H753 0.930 . S
C726 C725 1.376 . S
C726 C727 1.370 . S
C727 C726 1.370 . S
C727 C728 1.396 . S
C727 H754 0.929 . S
C728 C723 1.373 . S
C728 C727 1.396 . S
C728 H755 0.929 . S
C729 O742 1.240 . S
C729 O743 1.289 . S
C730 O744 1.258 . S
C730 O745 1.256 . S
C731 La721 2.928 . S
C731 C732 1.503 . S
C731 O746 1.261 . S
C731 O747 1.243 . S
C732 C731 1.503 . S
C732 C733 1.394 . S
C732 C737 1.373 . S
C733 C732 1.394 . S
C733 C734 1.380 . S
C733 H756 0.930 . S
C734 C733 1.380 . S
C734 C735 1.376 . S
C734 H757 0.930 . S
C735 C734 1.376 . S
C735 C736 1.370 . S
C736 C735 1.370 . S
C736 C737 1.396 . S
C736 H758 0.929 . S
C737 C732 1.373 . S
C737 C736 1.396 . S
C737 H759 0.929 . S
C738 O748 1.240 . S
C738 O749 1.289 . S
C739 O750 1.258 . S
C739 O751 1.256 . S
O740 La720 2.521 . S
O740 C722 1.261 . S
O741 La720 2.628 . S
O741 C722 1.243 . S
O742 La720 2.554 . S
O742 C729 1.240 . S
O743 La720 2.757 . S
O743 La721 2.482 . S
O743 C729 1.289 . S
O744 La720 2.470 . S
O744 C730 1.258 . S
O745 La721 2.503 . S
O745 C730 1.256 . S
O746 La721 2.521 . S
O746 C731 1.261 . S
O747 La721 2.628 . S
O747 C731 1.243 . S
O748 La721 2.554 . S
O748 C738 1.240 . S
O749 La720 2.482 . S
O749 La721 2.757 . S
O749 C738 1.289 . S
O750 La721 2.470 . S
O750 C739 1.258 . S
O751 La720 2.503 . S
O751 C739 1.256 . S
H752 C724 0.930 . S
H753 C725 0.930 . S
H754 C727 0.929 . S
H755 C728 0.929 . S
H756 C733 0.930 . S
H757 C734 0.930 . S
H758 C736 0.929 . S
H759 C737 0.929 . S
La760 C762 2.928 . S
La760 O780 2.521 . S
La760 O781 2.628 . S
La760 O782 2.554 . S
La760 O783 2.757 . S
La760 O784 2.470 . S
La760 O789 2.482 . S
La760 O791 2.503 . S
La761 C771 2.928 . S
La761 O783 2.482 . S
La761 O785 2.503 . S
La761 O786 2.521 . S
La761 O787 2.628 . S
La761 O788 2.554 . S
La761 O789 2.757 . S
La761 O790 2.470 . S
C762 La760 2.928 . S
C762 C763 1.503 . S
C762 O780 1.261 . S
C762 O781 1.243 . S
C763 C762 1.503 . S
C763 C764 1.394 . S
C763 C768 1.373 . S
C764 C763 1.394 . S
C764 C765 1.380 . S
C764 H792 0.930 . S
C765 C764 1.380 . S
C765 C766 1.376 . S
C765 H793 0.930 . S
C766 C765 1.376 . S
C766 C767 1.370 . S
C767 C766 1.370 . S
C767 C768 1.396 . S
C767 H794 0.929 . S
C768 C763 1.373 . S
C768 C767 1.396 . S
C768 H795 0.929 . S
C769 O782 1.240 . S
C769 O783 1.289 . S
C770 O784 1.258 . S
C770 O785 1.256 . S
C771 La761 2.928 . S
C771 C772 1.503 . S
C771 O786 1.261 . S
C771 O787 1.243 . S
C772 C771 1.503 . S
C772 C773 1.394 . S
C772 C777 1.373 . S
C773 C772 1.394 . S
C773 C774 1.380 . S
C773 H796 0.930 . S
C774 C773 1.380 . S
C774 C775 1.376 . S
C774 H797 0.930 . S
C775 C774 1.376 . S
C775 C776 1.370 . S
C776 C775 1.370 . S
C776 C777 1.396 . S
C776 H798 0.929 . S
C777 C772 1.373 . S
C777 C776 1.396 . S
C777 H799 0.929 . S
C778 O788 1.240 . S
C778 O789 1.289 . S
C779 O790 1.258 . S
C779 O791 1.256 . S
O780 La760 2.521 . S
O780 C762 1.261 . S
O781 La760 2.628 . S
O781 C762 1.243 . S
O782 La760 2.554 . S
O782 C769 1.240 . S
O783 La760 2.757 . S
O783 La761 2.482 . S
O783 C769 1.289 . S
O784 La760 2.470 . S
O784 C770 1.258 . S
O785 La761 2.503 . S
O785 C770 1.256 . S
O786 La761 2.521 . S
O786 C771 1.261 . S
O787 La761 2.628 . S
O787 C771 1.243 . S
O788 La761 2.554 . S
O788 C778 1.240 . S
O789 La760 2.482 . S
O789 La761 2.757 . S
O789 C778 1.289 . S
O790 La761 2.470 . S
O790 C779 1.258 . S
O791 La760 2.503 . S
O791 C779 1.256 . S
H792 C764 0.930 . S
H793 C765 0.930 . S
H794 C767 0.929 . S
H795 C768 0.929 . S
H796 C773 0.930 . S
H797 C774 0.930 . S
H798 C776 0.929 . S
H799 C777 0.929 . S
La800 C802 2.928 . S
La800 O820 2.521 . S
La800 O821 2.628 . S
La800 O822 2.554 . S
La800 O823 2.757 . S
La800 O824 2.470 . S
La800 O829 2.482 . S
La800 O831 2.503 . S
La801 C811 2.928 . S
La801 O823 2.482 . S
La801 O825 2.503 . S
La801 O826 2.521 . S
La801 O827 2.628 . S
La801 O828 2.554 . S
La801 O829 2.757 . S
La801 O830 2.470 . S
C802 La800 2.928 . S
C802 C803 1.503 . S
C802 O820 1.261 . S
C802 O821 1.243 . S
C803 C802 1.503 . S
C803 C804 1.394 . S
C803 C808 1.373 . S
C804 C803 1.394 . S
C804 C805 1.380 . S
C804 H832 0.930 . S
C805 C804 1.380 . S
C805 C806 1.376 . S
C805 H833 0.930 . S
C806 C805 1.376 . S
C806 C807 1.370 . S
C807 C806 1.370 . S
C807 C808 1.396 . S
C807 H834 0.929 . S
C808 C803 1.373 . S
C808 C807 1.396 . S
C808 H835 0.929 . S
C809 O822 1.240 . S
C809 O823 1.289 . S
C810 O824 1.258 . S
C810 O825 1.256 . S
C811 La801 2.928 . S
C811 C812 1.503 . S
C811 O826 1.261 . S
C811 O827 1.243 . S
C812 C811 1.503 . S
C812 C813 1.394 . S
C812 C817 1.373 . S
C813 C812 1.394 . S
C813 C814 1.380 . S
C813 H836 0.930 . S
C814 C813 1.380 . S
C814 C815 1.376 . S
C814 H837 0.930 . S
C815 C814 1.376 . S
C815 C816 1.370 . S
C816 C815 1.370 . S
C816 C817 1.396 . S
C816 H838 0.929 . S
C817 C812 1.373 . S
C817 C816 1.396 . S
C817 H839 0.929 . S
C818 O828 1.240 . S
C818 O829 1.289 . S
C819 O830 1.258 . S
C819 O831 1.256 . S
O820 La800 2.521 . S
O820 C802 1.261 . S
O821 La800 2.628 . S
O821 C802 1.243 . S
O822 La800 2.554 . S
O822 C809 1.240 . S
O823 La800 2.757 . S
O823 La801 2.482 . S
O823 C809 1.289 . S
O824 La800 2.470 . S
O824 C810 1.258 . S
O825 La801 2.503 . S
O825 C810 1.256 . S
O826 La801 2.521 . S
O826 C811 1.261 . S
O827 La801 2.628 . S
O827 C811 1.243 . S
O828 La801 2.554 . S
O828 C818 1.240 . S
O829 La800 2.482 . S
O829 La801 2.757 . S
O829 C818 1.289 . S
O830 La801 2.470 . S
O830 C819 1.258 . S
O831 La800 2.503 . S
O831 C819 1.256 . S
H832 C804 0.930 . S
H833 C805 0.930 . S
H834 C807 0.929 . S
H835 C808 0.929 . S
H836 C813 0.930 . S
H837 C814 0.930 . S
H838 C816 0.929 . S
H839 C817 0.929 . S
La840 C842 2.928 1_556 S
La840 O860 2.521 . S
La840 O861 2.628 1_556 S
La840 O862 2.554 . S
La840 O863 2.757 . S
La840 O864 2.470 1_556 S
La840 O869 2.482 . S
La840 O871 2.503 . S
La841 C851 2.928 . S
La841 O863 2.482 . S
La841 O865 2.503 1_556 S
La841 O866 2.521 . S
La841 O867 2.628 . S
La841 O868 2.554 . S
La841 O869 2.757 . S
La841 O870 2.470 . S
C842 La840 2.928 1_554 S
C842 C843 1.503 . S
C842 O860 1.261 1_554 S
C842 O861 1.243 . S
C843 C842 1.503 . S
C843 C844 1.394 . S
C843 C848 1.373 . S
C844 C843 1.394 . S
C844 C845 1.380 . S
C844 H872 0.930 . S
C845 C844 1.380 . S
C845 C846 1.376 . S
C845 H873 0.930 . S
C846 C845 1.376 . S
C846 C847 1.370 . S
C847 C846 1.370 . S
C847 C848 1.396 . S
C847 H874 0.929 . S
C848 C843 1.373 . S
C848 C847 1.396 . S
C848 H875 0.929 . S
C849 O862 1.240 . S
C849 O863 1.289 . S
C850 O864 1.258 . S
C850 O865 1.256 . S
C851 La841 2.928 . S
C851 C852 1.503 . S
C851 O866 1.261 . S
C851 O867 1.243 . S
C852 C851 1.503 . S
C852 C853 1.394 . S
C852 C857 1.373 . S
C853 C852 1.394 . S
C853 C854 1.380 . S
C853 H876 0.930 . S
C854 C853 1.380 . S
C854 C855 1.376 . S
C854 H877 0.930 . S
C855 C854 1.376 . S
C855 C856 1.370 . S
C856 C855 1.370 . S
C856 C857 1.396 . S
C856 H878 0.929 . S
C857 C852 1.373 . S
C857 C856 1.396 . S
C857 H879 0.929 . S
C858 O868 1.240 . S
C858 O869 1.289 . S
C859 O870 1.258 . S
C859 O871 1.256 . S
O860 La840 2.521 . S
O860 C842 1.261 1_556 S
O861 La840 2.628 1_554 S
O861 C842 1.243 . S
O862 La840 2.554 . S
O862 C849 1.240 . S
O863 La840 2.757 . S
O863 La841 2.482 . S
O863 C849 1.289 . S
O864 La840 2.470 1_554 S
O864 C850 1.258 . S
O865 La841 2.503 1_554 S
O865 C850 1.256 . S
O866 La841 2.521 . S
O866 C851 1.261 . S
O867 La841 2.628 . S
O867 C851 1.243 . S
O868 La841 2.554 . S
O868 C858 1.240 . S
O869 La840 2.482 . S
O869 La841 2.757 . S
O869 C858 1.289 . S
O870 La841 2.470 . S
O870 C859 1.258 . S
O871 La840 2.503 . S
O871 C859 1.256 . S
H872 C844 0.930 . S
H873 C845 0.930 . S
H874 C847 0.929 . S
H875 C848 0.929 . S
H876 C853 0.930 . S
H877 C854 0.930 . S
H878 C856 0.929 . S
H879 C857 0.929 . S
La880 C882 2.928 . S
La880 O900 2.521 . S
La880 O901 2.628 . S
La880 O902 2.554 . S
La880 O903 2.757 . S
La880 O904 2.470 . S
La880 O909 2.482 . S
La880 O911 2.503 . S
La881 C891 2.928 . S
La881 O903 2.482 . S
La881 O905 2.503 . S
La881 O906 2.521 . S
La881 O907 2.628 . S
La881 O908 2.554 . S
La881 O909 2.757 . S
La881 O910 2.470 . S
C882 La880 2.928 . S
C882 C883 1.503 . S
C882 O900 1.261 . S
C882 O901 1.243 . S
C883 C882 1.503 . S
C883 C884 1.394 . S
C883 C888 1.373 . S
C884 C883 1.394 . S
C884 C885 1.380 . S
C884 H912 0.930 . S
C885 C884 1.380 . S
C885 C886 1.376 . S
C885 H913 0.930 . S
C886 C885 1.376 . S
C886 C887 1.370 . S
C887 C886 1.370 . S
C887 C888 1.396 . S
C887 H914 0.929 . S
C888 C883 1.373 . S
C888 C887 1.396 . S
C888 H915 0.929 . S
C889 O902 1.240 . S
C889 O903 1.289 . S
C890 O904 1.258 . S
C890 O905 1.256 . S
C891 La881 2.928 . S
C891 C892 1.503 . S
C891 O906 1.261 . S
C891 O907 1.243 . S
C892 C891 1.503 . S
C892 C893 1.394 . S
C892 C897 1.373 . S
C893 C892 1.394 . S
C893 C894 1.380 . S
C893 H916 0.930 . S
C894 C893 1.380 . S
C894 C895 1.376 . S
C894 H917 0.930 . S
C895 C894 1.376 . S
C895 C896 1.370 . S
C896 C895 1.370 . S
C896 C897 1.396 . S
C896 H918 0.929 . S
C897 C892 1.373 . S
C897 C896 1.396 . S
C897 H919 0.929 . S
C898 O908 1.240 . S
C898 O909 1.289 . S
C899 O910 1.258 . S
C899 O911 1.256 . S
O900 La880 2.521 . S
O900 C882 1.261 . S
O901 La880 2.628 . S
O901 C882 1.243 . S
O902 La880 2.554 . S
O902 C889 1.240 . S
O903 La880 2.757 . S
O903 La881 2.482 . S
O903 C889 1.289 . S
O904 La880 2.470 . S
O904 C890 1.258 . S
O905 La881 2.503 . S
O905 C890 1.256 . S
O906 La881 2.521 . S
O906 C891 1.261 . S
O907 La881 2.628 . S
O907 C891 1.243 . S
O908 La881 2.554 . S
O908 C898 1.240 . S
O909 La880 2.482 . S
O909 La881 2.757 . S
O909 C898 1.289 . S
O910 La881 2.470 . S
O910 C899 1.258 . S
O911 La880 2.503 . S
O911 C899 1.256 . S
H912 C884 0.930 . S
H913 C885 0.930 . S
H914 C887 0.929 . S
H915 C888 0.929 . S
H916 C893 0.930 . S
H917 C894 0.930 . S
H918 C896 0.929 . S
H919 C897 0.929 . S
La920 C922 2.928 . S
La920 O940 2.521 . S
La920 O941 2.628 . S
La920 O942 2.554 . S
La920 O943 2.757 . S
La920 O944 2.470 . S
La920 O949 2.482 . S
La920 O951 2.503 . S
La921 C931 2.928 . S
La921 O943 2.482 . S
La921 O945 2.503 . S
La921 O946 2.521 . S
La921 O947 2.628 . S
La921 O948 2.554 . S
La921 O949 2.757 . S
La921 O950 2.470 . S
C922 La920 2.928 . S
C922 C923 1.503 . S
C922 O940 1.261 . S
C922 O941 1.243 . S
C923 C922 1.503 . S
C923 C924 1.394 . S
C923 C928 1.373 . S
C924 C923 1.394 . S
C924 C925 1.380 . S
C924 H952 0.930 . S
C925 C924 1.380 . S
C925 C926 1.376 . S
C925 H953 0.930 . S
C926 C925 1.376 . S
C926 C927 1.370 . S
C927 C926 1.370 . S
C927 C928 1.396 . S
C927 H954 0.929 . S
C928 C923 1.373 . S
C928 C927 1.396 . S
C928 H955 0.929 . S
C929 O942 1.240 . S
C929 O943 1.289 . S
C930 O944 1.258 . S
C930 O945 1.256 . S
C931 La921 2.928 . S
C931 C932 1.503 . S
C931 O946 1.261 . S
C931 O947 1.243 . S
C932 C931 1.503 . S
C932 C933 1.394 . S
C932 C937 1.373 . S
C933 C932 1.394 . S
C933 C934 1.380 . S
C933 H956 0.930 . S
C934 C933 1.380 . S
C934 C935 1.376 . S
C934 H957 0.930 . S
C935 C934 1.376 . S
C935 C936 1.370 . S
C936 C935 1.370 . S
C936 C937 1.396 . S
C936 H958 0.929 . S
C937 C932 1.373 . S
C937 C936 1.396 . S
C937 H959 0.929 . S
C938 O948 1.240 . S
C938 O949 1.289 . S
C939 O950 1.258 . S
C939 O951 1.256 . S
O940 La920 2.521 . S
O940 C922 1.261 . S
O941 La920 2.628 . S
O941 C922 1.243 . S
O942 La920 2.554 . S
O942 C929 1.240 . S
O943 La920 2.757 . S
O943 La921 2.482 . S
O943 C929 1.289 . S
O944 La920 2.470 . S
O944 C930 1.258 . S
O945 La921 2.503 . S
O945 C930 1.256 . S
O946 La921 2.521 . S
O946 C931 1.261 . S
O947 La921 2.628 . S
O947 C931 1.243 . S
O948 La921 2.554 . S
O948 C938 1.240 . S
O949 La920 2.482 . S
O949 La921 2.757 . S
O949 C938 1.289 . S
O950 La921 2.470 . S
O950 C939 1.258 . S
O951 La920 2.503 . S
O951 C939 1.256 . S
H952 C924 0.930 . S
H953 C925 0.930 . S
H954 C927 0.929 . S
H955 C928 0.929 . S
H956 C933 0.930 . S
H957 C934 0.930 . S
H958 C936 0.929 . S
H959 C937 0.929 . S
La960 C962 2.928 . S
La960 O980 2.521 . S
La960 O981 2.628 . S
La960 O982 2.554 . S
La960 O983 2.757 . S
La960 O984 2.470 . S
La960 O989 2.482 . S
La960 O991 2.503 . S
La961 C971 2.928 . S
La961 O983 2.482 . S
La961 O985 2.503 . S
La961 O986 2.521 . S
La961 O987 2.628 . S
La961 O988 2.554 . S
La961 O989 2.757 . S
La961 O990 2.470 . S
C962 La960 2.928 . S
C962 C963 1.503 . S
C962 O980 1.261 . S
C962 O981 1.243 . S
C963 C962 1.503 . S
C963 C964 1.394 . S
C963 C968 1.373 . S
C964 C963 1.394 . S
C964 C965 1.380 . S
C964 H992 0.930 . S
C965 C964 1.380 . S
C965 C966 1.376 . S
C965 H993 0.930 . S
C966 C965 1.376 . S
C966 C967 1.370 . S
C967 C966 1.370 . S
C967 C968 1.396 . S
C967 H994 0.929 . S
C968 C963 1.373 . S
C968 C967 1.396 . S
C968 H995 0.929 . S
C969 O982 1.240 . S
C969 O983 1.289 . S
C970 O984 1.258 . S
C970 O985 1.256 . S
C971 La961 2.928 . S
C971 C972 1.503 . S
C971 O986 1.261 . S
C971 O987 1.243 . S
C972 C971 1.503 . S
C972 C973 1.394 . S
C972 C977 1.373 . S
C973 C972 1.394 . S
C973 C974 1.380 . S
C973 H996 0.930 . S
C974 C973 1.380 . S
C974 C975 1.376 . S
C974 H997 0.930 . S
C975 C974 1.376 . S
C975 C976 1.370 . S
C976 C975 1.370 . S
C976 C977 1.396 . S
C976 H998 0.929 . S
C977 C972 1.373 . S
C977 C976 1.396 . S
C977 H999 0.929 . S
C978 O988 1.240 . S
C978 O989 1.289 . S
C979 O990 1.258 . S
C979 O991 1.256 . S
O980 La960 2.521 . S
O980 C962 1.261 . S
O981 La960 2.628 . S
O981 C962 1.243 . S
O982 La960 2.554 . S
O982 C969 1.240 . S
O983 La960 2.757 . S
O983 La961 2.482 . S
O983 C969 1.289 . S
O984 La960 2.470 . S
O984 C970 1.258 . S
O985 La961 2.503 . S
O985 C970 1.256 . S
O986 La961 2.521 . S
O986 C971 1.261 . S
O987 La961 2.628 . S
O987 C971 1.243 . S
O988 La961 2.554 . S
O988 C978 1.240 . S
O989 La960 2.482 . S
O989 La961 2.757 . S
O989 C978 1.289 . S
O990 La961 2.470 . S
O990 C979 1.258 . S
O991 La960 2.503 . S
O991 C979 1.256 . S
H992 C964 0.930 . S
H993 C965 0.930 . S
H994 C967 0.929 . S
H995 C968 0.929 . S
H996 C973 0.930 . S
H997 C974 0.930 . S
H998 C976 0.929 . S
H999 C977 0.929 . S
La1000 C1002 2.928 . S
La1000 O1020 2.521 . S
La1000 O1021 2.628 . S
La1000 O1022 2.554 . S
La1000 O1023 2.757 . S
La1000 O1024 2.470 . S
La1000 O1029 2.482 . S
La1000 O1031 2.503 1_556 S
La1001 C1011 2.928 1_556 S
La1001 O1023 2.482 . S
La1001 O1025 2.503 . S
La1001 O1026 2.521 . S
La1001 O1027 2.628 1_556 S
La1001 O1028 2.554 . S
La1001 O1029 2.757 . S
La1001 O1030 2.470 1_556 S
C1002 La1000 2.928 . S
C1002 C1003 1.503 . S
C1002 O1020 1.261 . S
C1002 O1021 1.243 . S
C1003 C1002 1.503 . S
C1003 C1004 1.394 . S
C1003 C1008 1.373 . S
C1004 C1003 1.394 . S
C1004 C1005 1.380 . S
C1004 H1032 0.930 . S
C1005 C1004 1.380 . S
C1005 C1006 1.376 . S
C1005 H1033 0.930 . S
C1006 C1005 1.376 . S
C1006 C1007 1.370 . S
C1007 C1006 1.370 . S
C1007 C1008 1.396 . S
C1007 H1034 0.929 . S
C1008 C1003 1.373 . S
C1008 C1007 1.396 . S
C1008 H1035 0.929 . S
C1009 O1022 1.240 . S
C1009 O1023 1.289 . S
C1010 O1024 1.258 . S
C1010 O1025 1.256 . S
C1011 La1001 2.928 1_554 S
C1011 C1012 1.503 . S
C1011 O1026 1.261 1_554 S
C1011 O1027 1.243 . S
C1012 C1011 1.503 . S
C1012 C1013 1.394 . S
C1012 C1017 1.373 . S
C1013 C1012 1.394 . S
C1013 C1014 1.380 . S
C1013 H1036 0.930 . S
C1014 C1013 1.380 . S
C1014 C1015 1.376 . S
C1014 H1037 0.930 . S
C1015 C1014 1.376 . S
C1015 C1016 1.370 . S
C1016 C1015 1.370 . S
C1016 C1017 1.396 . S
C1016 H1038 0.929 . S
C1017 C1012 1.373 . S
C1017 C1016 1.396 . S
C1017 H1039 0.929 . S
C1018 O1028 1.240 . S
C1018 O1029 1.289 . S
C1019 O1030 1.258 . S
C1019 O1031 1.256 . S
O1020 La1000 2.521 . S
O1020 C1002 1.261 . S
O1021 La1000 2.628 . S
O1021 C1002 1.243 . S
O1022 La1000 2.554 . S
O1022 C1009 1.240 . S
O1023 La1000 2.757 . S
O1023 La1001 2.482 . S
O1023 C1009 1.289 . S
O1024 La1000 2.470 . S
O1024 C1010 1.258 . S
O1025 La1001 2.503 . S
O1025 C1010 1.256 . S
O1026 La1001 2.521 . S
O1026 C1011 1.261 1_556 S
O1027 La1001 2.628 1_554 S
O1027 C1011 1.243 . S
O1028 La1001 2.554 . S
O1028 C1018 1.240 . S
O1029 La1000 2.482 . S
O1029 La1001 2.757 . S
O1029 C1018 1.289 . S
O1030 La1001 2.470 1_554 S
O1030 C1019 1.258 . S
O1031 La1000 2.503 1_554 S
O1031 C1019 1.256 . S
H1032 C1004 0.930 . S
H1033 C1005 0.930 . S
H1034 C1007 0.929 . S
H1035 C1008 0.929 . S
H1036 C1013 0.930 . S
H1037 C1014 0.930 . S
H1038 C1016 0.929 . S
H1039 C1017 0.929 . S
La1040 C1042 2.928 . S
La1040 O1060 2.521 . S
La1040 O1061 2.628 . S
La1040 O1062 2.554 . S
La1040 O1063 2.757 . S
La1040 O1064 2.470 . S
La1040 O1069 2.482 . S
La1040 O1071 2.503 . S
La1041 C1051 2.928 . S
La1041 O1063 2.482 . S
La1041 O1065 2.503 . S
La1041 O1066 2.521 . S
La1041 O1067 2.628 . S
La1041 O1068 2.554 . S
La1041 O1069 2.757 . S
La1041 O1070 2.470 . S
C1042 La1040 2.928 . S
C1042 C1043 1.503 . S
C1042 O1060 1.261 . S
C1042 O1061 1.243 . S
C1043 C1042 1.503 . S
C1043 C1044 1.394 . S
C1043 C1048 1.373 . S
C1044 C1043 1.394 . S
C1044 C1045 1.380 . S
C1044 H1072 0.930 . S
C1045 C1044 1.380 . S
C1045 C1046 1.376 . S
C1045 H1073 0.930 . S
C1046 C1045 1.376 . S
C1046 C1047 1.370 . S
C1047 C1046 1.370 . S
C1047 C1048 1.396 . S
C1047 H1074 0.929 . S
C1048 C1043 1.373 . S
C1048 C1047 1.396 . S
C1048 H1075 0.929 . S
C1049 O1062 1.240 . S
C1049 O1063 1.289 . S
C1050 O1064 1.258 . S
C1050 O1065 1.256 . S
C1051 La1041 2.928 . S
C1051 C1052 1.503 . S
C1051 O1066 1.261 . S
C1051 O1067 1.243 . S
C1052 C1051 1.503 . S
C1052 C1053 1.394 . S
C1052 C1057 1.373 . S
C1053 C1052 1.394 . S
C1053 C1054 1.380 . S
C1053 H1076 0.930 . S
C1054 C1053 1.380 . S
C1054 C1055 1.376 . S
C1054 H1077 0.930 . S
C1055 C1054 1.376 . S
C1055 C1056 1.370 . S
C1056 C1055 1.370 . S
C1056 C1057 1.396 . S
C1056 H1078 0.929 . S
C1057 C1052 1.373 . S
C1057 C1056 1.396 . S
C1057 H1079 0.929 . S
C1058 O1068 1.240 . S
C1058 O1069 1.289 . S
C1059 O1070 1.258 . S
C1059 O1071 1.256 . S
O1060 La1040 2.521 . S
O1060 C1042 1.261 . S
O1061 La1040 2.628 . S
O1061 C1042 1.243 . S
O1062 La1040 2.554 . S
O1062 C1049 1.240 . S
O1063 La1040 2.757 . S
O1063 La1041 2.482 . S
O1063 C1049 1.289 . S
O1064 La1040 2.470 . S
O1064 C1050 1.258 . S
O1065 La1041 2.503 . S
O1065 C1050 1.256 . S
O1066 La1041 2.521 . S
O1066 C1051 1.261 . S
O1067 La1041 2.628 . S
O1067 C1051 1.243 . S
O1068 La1041 2.554 . S
O1068 C1058 1.240 . S
O1069 La1040 2.482 . S
O1069 La1041 2.757 . S
O1069 C1058 1.289 . S
O1070 La1041 2.470 . S
O1070 C1059 1.258 . S
O1071 La1040 2.503 . S
O1071 C1059 1.256 . S
H1072 C1044 0.930 . S
H1073 C1045 0.930 . S
H1074 C1047 0.929 . S
H1075 C1048 0.929 . S
H1076 C1053 0.930 . S
H1077 C1054 0.930 . S
H1078 C1056 0.929 . S
H1079 C1057 0.929 . S
La1080 C1082 2.928 . S
La1080 O1100 2.521 . S
La1080 O1101 2.628 . S
La1080 O1102 2.554 . S
La1080 O1103 2.757 . S
La1080 O1104 2.470 . S
La1080 O1109 2.482 . S
La1080 O1111 2.503 . S
La1081 C1091 2.928 . S
La1081 O1103 2.482 . S
La1081 O1105 2.503 . S
La1081 O1106 2.521 . S
La1081 O1107 2.628 . S
La1081 O1108 2.554 . S
La1081 O1109 2.757 . S
La1081 O1110 2.470 . S
C1082 La1080 2.928 . S
C1082 C1083 1.503 . S
C1082 O1100 1.261 . S
C1082 O1101 1.243 . S
C1083 C1082 1.503 . S
C1083 C1084 1.394 . S
C1083 C1088 1.373 . S
C1084 C1083 1.394 . S
C1084 C1085 1.380 . S
C1084 H1112 0.930 . S
C1085 C1084 1.380 . S
C1085 C1086 1.376 . S
C1085 H1113 0.930 . S
C1086 C1085 1.376 . S
C1086 C1087 1.370 . S
C1087 C1086 1.370 . S
C1087 C1088 1.396 . S
C1087 H1114 0.929 . S
C1088 C1083 1.373 . S
C1088 C1087 1.396 . S
C1088 H1115 0.929 . S
C1089 O1102 1.240 . S
C1089 O1103 1.289 . S
C1090 O1104 1.258 . S
C1090 O1105 1.256 . S
C1091 La1081 2.928 . S
C1091 C1092 1.503 . S
C1091 O1106 1.261 . S
C1091 O1107 1.243 . S
C1092 C1091 1.503 . S
C1092 C1093 1.394 . S
C1092 C1097 1.373 . S
C1093 C1092 1.394 . S
C1093 C1094 1.380 . S
C1093 H1116 0.930 . S
C1094 C1093 1.380 . S
C1094 C1095 1.376 . S
C1094 H1117 0.930 . S
C1095 C1094 1.376 . S
C1095 C1096 1.370 . S
C1096 C1095 1.370 . S
C1096 C1097 1.396 . S
C1096 H1118 0.929 . S
C1097 C1092 1.373 . S
C1097 C1096 1.396 . S
C1097 H1119 0.929 . S
C1098 O1108 1.240 . S
C1098 O1109 1.289 . S
C1099 O1110 1.258 . S
C1099 O1111 1.256 . S
O1100 La1080 2.521 . S
O1100 C1082 1.261 . S
O1101 La1080 2.628 . S
O1101 C1082 1.243 . S
O1102 La1080 2.554 . S
O1102 C1089 1.240 . S
O1103 La1080 2.757 . S
O1103 La1081 2.482 . S
O1103 C1089 1.289 . S
O1104 La1080 2.470 . S
O1104 C1090 1.258 . S
O1105 La1081 2.503 . S
O1105 C1090 1.256 . S
O1106 La1081 2.521 . S
O1106 C1091 1.261 . S
O1107 La1081 2.628 . S
O1107 C1091 1.243 . S
O1108 La1081 2.554 . S
O1108 C1098 1.240 . S
O1109 La1080 2.482 . S
O1109 La1081 2.757 . S
O1109 C1098 1.289 . S
O1110 La1081 2.470 . S
O1110 C1099 1.258 . S
O1111 La1080 2.503 . S
O1111 C1099 1.256 . S
H1112 C1084 0.930 . S
H1113 C1085 0.930 . S
H1114 C1087 0.929 . S
H1115 C1088 0.929 . S
H1116 C1093 0.930 . S
H1117 C1094 0.930 . S
H1118 C1096 0.929 . S
H1119 C1097 0.929 . S
La1120 C1122 2.928 . S
La1120 O1140 2.521 . S
La1120 O1141 2.628 . S
La1120 O1142 2.554 . S
La1120 O1143 2.757 . S
La1120 O1144 2.470 . S
La1120 O1149 2.482 . S
La1120 O1151 2.503 . S
La1121 C1131 2.928 . S
La1121 O1143 2.482 . S
La1121 O1145 2.503 . S
La1121 O1146 2.521 . S
La1121 O1147 2.628 . S
La1121 O1148 2.554 . S
La1121 O1149 2.757 . S
La1121 O1150 2.470 . S
C1122 La1120 2.928 . S
C1122 C1123 1.503 . S
C1122 O1140 1.261 . S
C1122 O1141 1.243 . S
C1123 C1122 1.503 . S
C1123 C1124 1.394 . S
C1123 C1128 1.373 . S
C1124 C1123 1.394 . S
C1124 C1125 1.380 . S
C1124 H1152 0.930 . S
C1125 C1124 1.380 . S
C1125 C1126 1.376 . S
C1125 H1153 0.930 . S
C1126 C1125 1.376 . S
C1126 C1127 1.370 . S
C1127 C1126 1.370 . S
C1127 C1128 1.396 . S
C1127 H1154 0.929 . S
C1128 C1123 1.373 . S
C1128 C1127 1.396 . S
C1128 H1155 0.929 . S
C1129 O1142 1.240 . S
C1129 O1143 1.289 . S
C1130 O1144 1.258 . S
C1130 O1145 1.256 . S
C1131 La1121 2.928 . S
C1131 C1132 1.503 . S
C1131 O1146 1.261 . S
C1131 O1147 1.243 . S
C1132 C1131 1.503 . S
C1132 C1133 1.394 . S
C1132 C1137 1.373 . S
C1133 C1132 1.394 . S
C1133 C1134 1.380 . S
C1133 H1156 0.930 . S
C1134 C1133 1.380 . S
C1134 C1135 1.376 . S
C1134 H1157 0.930 . S
C1135 C1134 1.376 . S
C1135 C1136 1.370 . S
C1136 C1135 1.370 . S
C1136 C1137 1.396 . S
C1136 H1158 0.929 . S
C1137 C1132 1.373 . S
C1137 C1136 1.396 . S
C1137 H1159 0.929 . S
C1138 O1148 1.240 . S
C1138 O1149 1.289 . S
C1139 O1150 1.258 . S
C1139 O1151 1.256 . S
O1140 La1120 2.521 . S
O1140 C1122 1.261 . S
O1141 La1120 2.628 . S
O1141 C1122 1.243 . S
O1142 La1120 2.554 . S
O1142 C1129 1.240 . S
O1143 La1120 2.757 . S
O1143 La1121 2.482 . S
O1143 C1129 1.289 . S
O1144 La1120 2.470 . S
O1144 C1130 1.258 . S
O1145 La1121 2.503 . S
O1145 C1130 1.256 . S
O1146 La1121 2.521 . S
O1146 C1131 1.261 . S
O1147 La1121 2.628 . S
O1147 C1131 1.243 . S
O1148 La1121 2.554 . S
O1148 C1138 1.240 . S
O1149 La1120 2.482 . S
O1149 La1121 2.757 . S
O1149 C1138 1.289 . S
O1150 La1121 2.470 . S
O1150 C1139 1.258 . S
O1151 La1120 2.503 . S
O1151 C1139 1.256 . S
H1152 C1124 0.930 . S
H1153 C1125 0.930 . S
H1154 C1127 0.929 . S
H1155 C1128 0.929 . S
H1156 C1133 0.930 . S
H1157 C1134 0.930 . S
H1158 C1136 0.929 . S
H1159 C1137 0.929 . S
La1160 C1162 2.928 . S
La1160 O1180 2.521 . S
La1160 O1181 2.628 . S
La1160 O1182 2.554 . S
La1160 O1183 2.757 . S
La1160 O1184 2.470 . S
La1160 O1189 2.482 . S
La1160 O1191 2.503 1_554 S
La1161 C1171 2.928 1_554 S
La1161 O1183 2.482 . S
La1161 O1185 2.503 . S
La1161 O1186 2.521 . S
La1161 O1187 2.628 1_554 S
La1161 O1188 2.554 . S
La1161 O1189 2.757 . S
La1161 O1190 2.470 1_554 S
C1162 La1160 2.928 . S
C1162 C1163 1.503 . S
C1162 O1180 1.261 . S
C1162 O1181 1.243 . S
C1163 C1162 1.503 . S
C1163 C1164 1.394 . S
C1163 C1168 1.373 . S
C1164 C1163 1.394 . S
C1164 C1165 1.380 . S
C1164 H1192 0.930 . S
C1165 C1164 1.380 . S
C1165 C1166 1.376 . S
C1165 H1193 0.930 . S
C1166 C1165 1.376 . S
C1166 C1167 1.370 . S
C1167 C1166 1.370 . S
C1167 C1168 1.396 . S
C1167 H1194 0.929 . S
C1168 C1163 1.373 . S
C1168 C1167 1.396 . S
C1168 H1195 0.929 . S
C1169 O1182 1.240 . S
C1169 O1183 1.289 . S
C1170 O1184 1.258 . S
C1170 O1185 1.256 . S
C1171 La1161 2.928 1_556 S
C1171 C1172 1.503 . S
C1171 O1186 1.261 1_556 S
C1171 O1187 1.243 . S
C1172 C1171 1.503 . S
C1172 C1173 1.394 . S
C1172 C1177 1.373 . S
C1173 C1172 1.394 . S
C1173 C1174 1.380 . S
C1173 H1196 0.930 . S
C1174 C1173 1.380 . S
C1174 C1175 1.376 . S
C1174 H1197 0.930 . S
C1175 C1174 1.376 . S
C1175 C1176 1.370 . S
C1176 C1175 1.370 . S
C1176 C1177 1.396 . S
C1176 H1198 0.929 . S
C1177 C1172 1.373 . S
C1177 C1176 1.396 . S
C1177 H1199 0.929 . S
C1178 O1188 1.240 . S
C1178 O1189 1.289 . S
C1179 O1190 1.258 . S
C1179 O1191 1.256 . S
O1180 La1160 2.521 . S
O1180 C1162 1.261 . S
O1181 La1160 2.628 . S
O1181 C1162 1.243 . S
O1182 La1160 2.554 . S
O1182 C1169 1.240 . S
O1183 La1160 2.757 . S
O1183 La1161 2.482 . S
O1183 C1169 1.289 . S
O1184 La1160 2.470 . S
O1184 C1170 1.258 . S
O1185 La1161 2.503 . S
O1185 C1170 1.256 . S
O1186 La1161 2.521 . S
O1186 C1171 1.261 1_554 S
O1187 La1161 2.628 1_556 S
O1187 C1171 1.243 . S
O1188 La1161 2.554 . S
O1188 C1178 1.240 . S
O1189 La1160 2.482 . S
O1189 La1161 2.757 . S
O1189 C1178 1.289 . S
O1190 La1161 2.470 1_556 S
O1190 C1179 1.258 . S
O1191 La1160 2.503 1_556 S
O1191 C1179 1.256 . S
H1192 C1164 0.930 . S
H1193 C1165 0.930 . S
H1194 C1167 0.929 . S
H1195 C1168 0.929 . S
H1196 C1173 0.930 . S
H1197 C1174 0.930 . S
H1198 C1176 0.929 . S
H1199 C1177 0.929 . S
La1200 C1202 2.928 . S
La1200 O1220 2.521 . S
La1200 O1221 2.628 . S
La1200 O1222 2.554 . S
La1200 O1223 2.757 . S
La1200 O1224 2.470 . S
La1200 O1229 2.482 . S
La1200 O1231 2.503 . S
La1201 C1211 2.928 . S
La1201 O1223 2.482 . S
La1201 O1225 2.503 . S
La1201 O1226 2.521 . S
La1201 O1227 2.628 . S
La1201 O1228 2.554 . S
La1201 O1229 2.757 . S
La1201 O1230 2.470 . S
C1202 La1200 2.928 . S
C1202 C1203 1.503 . S
C1202 O1220 1.261 . S
C1202 O1221 1.243 . S
C1203 C1202 1.503 . S
C1203 C1204 1.394 . S
C1203 C1208 1.373 . S
C1204 C1203 1.394 . S
C1204 C1205 1.380 . S
C1204 H1232 0.930 . S
C1205 C1204 1.380 . S
C1205 C1206 1.376 . S
C1205 H1233 0.930 . S
C1206 C1205 1.376 . S
C1206 C1207 1.370 . S
C1207 C1206 1.370 . S
C1207 C1208 1.396 . S
C1207 H1234 0.929 . S
C1208 C1203 1.373 . S
C1208 C1207 1.396 . S
C1208 H1235 0.929 . S
C1209 O1222 1.240 . S
C1209 O1223 1.289 . S
C1210 O1224 1.258 . S
C1210 O1225 1.256 . S
C1211 La1201 2.928 . S
C1211 C1212 1.503 . S
C1211 O1226 1.261 . S
C1211 O1227 1.243 . S
C1212 C1211 1.503 . S
C1212 C1213 1.394 . S
C1212 C1217 1.373 . S
C1213 C1212 1.394 . S
C1213 C1214 1.380 . S
C1213 H1236 0.930 . S
C1214 C1213 1.380 . S
C1214 C1215 1.376 . S
C1214 H1237 0.930 . S
C1215 C1214 1.376 . S
C1215 C1216 1.370 . S
C1216 C1215 1.370 . S
C1216 C1217 1.396 . S
C1216 H1238 0.929 . S
C1217 C1212 1.373 . S
C1217 C1216 1.396 . S
C1217 H1239 0.929 . S
C1218 O1228 1.240 . S
C1218 O1229 1.289 . S
C1219 O1230 1.258 . S
C1219 O1231 1.256 . S
O1220 La1200 2.521 . S
O1220 C1202 1.261 . S
O1221 La1200 2.628 . S
O1221 C1202 1.243 . S
O1222 La1200 2.554 . S
O1222 C1209 1.240 . S
O1223 La1200 2.757 . S
O1223 La1201 2.482 . S
O1223 C1209 1.289 . S
O1224 La1200 2.470 . S
O1224 C1210 1.258 . S
O1225 La1201 2.503 . S
O1225 C1210 1.256 . S
O1226 La1201 2.521 . S
O1226 C1211 1.261 . S
O1227 La1201 2.628 . S
O1227 C1211 1.243 . S
O1228 La1201 2.554 . S
O1228 C1218 1.240 . S
O1229 La1200 2.482 . S
O1229 La1201 2.757 . S
O1229 C1218 1.289 . S
O1230 La1201 2.470 . S
O1230 C1219 1.258 . S
O1231 La1200 2.503 . S
O1231 C1219 1.256 . S
H1232 C1204 0.930 . S
H1233 C1205 0.930 . S
H1234 C1207 0.929 . S
H1235 C1208 0.929 . S
H1236 C1213 0.930 . S
H1237 C1214 0.930 . S
H1238 C1216 0.929 . S
H1239 C1217 0.929 . S
La1240 C1242 2.928 . S
La1240 O1260 2.521 . S
La1240 O1261 2.628 . S
La1240 O1262 2.554 . S
La1240 O1263 2.757 . S
La1240 O1264 2.470 . S
La1240 O1269 2.482 . S
La1240 O1271 2.503 . S
La1241 C1251 2.928 . S
La1241 O1263 2.482 . S
La1241 O1265 2.503 . S
La1241 O1266 2.521 . S
La1241 O1267 2.628 . S
La1241 O1268 2.554 . S
La1241 O1269 2.757 . S
La1241 O1270 2.470 . S
C1242 La1240 2.928 . S
C1242 C1243 1.503 . S
C1242 O1260 1.261 . S
C1242 O1261 1.243 . S
C1243 C1242 1.503 . S
C1243 C1244 1.394 . S
C1243 C1248 1.373 . S
C1244 C1243 1.394 . S
C1244 C1245 1.380 . S
C1244 H1272 0.930 . S
C1245 C1244 1.380 . S
C1245 C1246 1.376 . S
C1245 H1273 0.930 . S
C1246 C1245 1.376 . S
C1246 C1247 1.370 . S
C1247 C1246 1.370 . S
C1247 C1248 1.396 . S
C1247 H1274 0.929 . S
C1248 C1243 1.373 . S
C1248 C1247 1.396 . S
C1248 H1275 0.929 . S
C1249 O1262 1.240 . S
C1249 O1263 1.289 . S
C1250 O1264 1.258 . S
C1250 O1265 1.256 . S
C1251 La1241 2.928 . S
C1251 C1252 1.503 . S
C1251 O1266 1.261 . S
C1251 O1267 1.243 . S
C1252 C1251 1.503 . S
C1252 C1253 1.394 . S
C1252 C1257 1.373 . S
C1253 C1252 1.394 . S
C1253 C1254 1.380 . S
C1253 H1276 0.930 . S
C1254 C1253 1.380 . S
C1254 C1255 1.376 . S
C1254 H1277 0.930 . S
C1255 C1254 1.376 . S
C1255 C1256 1.370 . S
C1256 C1255 1.370 . S
C1256 C1257 1.396 . S
C1256 H1278 0.929 . S
C1257 C1252 1.373 . S
C1257 C1256 1.396 . S
C1257 H1279 0.929 . S
C1258 O1268 1.240 . S
C1258 O1269 1.289 . S
C1259 O1270 1.258 . S
C1259 O1271 1.256 . S
O1260 La1240 2.521 . S
O1260 C1242 1.261 . S
O1261 La1240 2.628 . S
O1261 C1242 1.243 . S
O1262 La1240 2.554 . S
O1262 C1249 1.240 . S
O1263 La1240 2.757 . S
O1263 La1241 2.482 . S
O1263 C1249 1.289 . S
O1264 La1240 2.470 . S
O1264 C1250 1.258 . S
O1265 La1241 2.503 . S
O1265 C1250 1.256 . S
O1266 La1241 2.521 . S
O1266 C1251 1.261 . S
O1267 La1241 2.628 . S
O1267 C1251 1.243 . S
O1268 La1241 2.554 . S
O1268 C1258 1.240 . S
O1269 La1240 2.482 . S
O1269 La1241 2.757 . S
O1269 C1258 1.289 . S
O1270 La1241 2.470 . S
O1270 C1259 1.258 . S
O1271 La1240 2.503 . S
O1271 C1259 1.256 . S
H1272 C1244 0.930 . S
H1273 C1245 0.930 . S
H1274 C1247 0.929 . S
H1275 C1248 0.929 . S
H1276 C1253 0.930 . S
H1277 C1254 0.930 . S
H1278 C1256 0.929 . S
H1279 C1257 0.929 . S
H1280 C1288 0.950 . S
H1281 C1293 0.950 . S
H1282 C1290 0.950 . S
H1283 C1292 0.950 . S
H1284 C1294 0.950 . S
H1285 C1296 0.950 . S
H1286 C1298 0.950 . S
H1287 C1299 0.950 . S
C1288 H1280 0.950 . S
C1288 C1289 1.386 . S
C1288 C1290 1.391 . S
C1289 C1288 1.386 . S
C1289 C1293 1.393 . S
C1290 H1282 0.950 . S
C1290 C1288 1.391 . S
C1290 C1291 1.400 . S
C1291 C1290 1.400 . S
C1291 C1292 1.398 . S
C1291 C1297 1.491 . S
C1292 H1283 0.950 . S
C1292 C1291 1.398 . S
C1292 C1293 1.391 . S
C1293 H1281 0.950 . S
C1293 C1289 1.393 . S
C1293 C1292 1.391 . S
C1294 H1284 0.950 . S
C1294 C1295 1.386 . S
C1294 C1296 1.391 . S
C1295 C1294 1.386 . S
C1295 C1299 1.393 . S
C1296 H1285 0.950 . S
C1296 C1294 1.391 . S
C1296 C1297 1.400 . S
C1297 C1291 1.491 . S
C1297 C1296 1.400 . S
C1297 C1298 1.398 . S
C1298 H1286 0.950 . S
C1298 C1297 1.398 . S
C1298 C1299 1.391 . S
C1299 H1287 0.950 . S
C1299 C1295 1.393 . S
C1299 C1298 1.391 . S
H1300 C1308 0.950 . S
H1301 C1313 0.950 . S
H1302 C1310 0.950 . S
H1303 C1312 0.950 . S
H1304 C1314 0.972 . S
H1305 C1316 0.950 . S
H1306 C1318 0.950 . S
H1307 C1319 0.950 . S
C1308 H1300 0.950 . S
C1308 C1309 1.386 . S
C1308 C1310 1.391 . S
C1309 C1308 1.386 . S
C1309 C1313 1.393 . S
C1310 H1302 0.950 . S
C1310 C1308 1.391 . S
C1310 C1311 1.400 . S
C1311 C1310 1.400 . S
C1311 C1312 1.398 . S
C1311 C1317 1.491 . S
C1312 H1303 0.950 . S
C1312 C1311 1.398 . S
C1312 C1313 1.391 . S
C1313 H1301 0.950 . S
C1313 C1309 1.393 . S
C1313 C1312 1.391 . S
C1314 H1304 0.972 . S
C1314 C1315 1.386 . S
C1314 C1316 1.391 . S
C1315 C1314 1.386 . S
C1315 C1319 1.393 . S
C1316 H1305 0.950 . S
C1316 C1314 1.391 . S
C1316 C1317 1.400 . S
C1317 C1311 1.491 . S
C1317 C1316 1.400 . S
C1317 C1318 1.398 . S
C1318 H1306 0.950 . S
C1318 C1317 1.398 . S
C1318 C1319 1.391 . S
C1319 H1307 0.950 . S
C1319 C1315 1.393 . S
C1319 C1318 1.391 . S
H1320 C1328 0.950 . S
H1321 C1333 0.950 . S
H1322 C1330 0.950 . S
H1323 C1332 0.950 . S
H1324 C1334 0.950 . S
H1325 C1336 0.950 . S
H1326 C1338 0.950 . S
H1327 C1339 0.950 . S
C1328 H1320 0.950 . S
C1328 C1329 1.386 . S
C1328 C1330 1.391 . S
C1329 C1328 1.386 . S
C1329 C1333 1.393 . S
C1330 H1322 0.950 . S
C1330 C1328 1.391 . S
C1330 C1331 1.400 . S
C1331 C1330 1.400 . S
C1331 C1332 1.398 . S
C1331 C1337 1.491 . S
C1332 H1323 0.950 . S
C1332 C1331 1.398 . S
C1332 C1333 1.391 . S
C1333 H1321 0.950 . S
C1333 C1329 1.393 . S
C1333 C1332 1.391 . S
C1334 H1324 0.950 . S
C1334 C1335 1.386 . S
C1334 C1336 1.391 . S
C1335 C1334 1.386 . S
C1335 C1339 1.393 . S
C1336 H1325 0.950 . S
C1336 C1334 1.391 . S
C1336 C1337 1.400 . S
C1337 C1331 1.491 . S
C1337 C1336 1.400 . S
C1337 C1338 1.398 . S
C1338 H1326 0.950 . S
C1338 C1337 1.398 . S
C1338 C1339 1.391 . S
C1339 H1327 0.950 . S
C1339 C1335 1.393 . S
C1339 C1338 1.391 . S
H1340 C1348 0.950 . S
H1341 C1353 0.950 . S
H1342 C1350 0.950 . S
H1343 C1352 0.950 . S
H1344 C1354 0.950 . S
H1345 C1356 0.950 . S
H1346 C1358 0.950 . S
H1347 C1359 0.950 . S
C1348 H1340 0.950 . S
C1348 C1349 1.386 . S
C1348 C1350 1.391 . S
C1349 C1348 1.386 . S
C1349 C1353 1.393 . S
C1350 H1342 0.950 . S
C1350 C1348 1.391 . S
C1350 C1351 1.400 . S
C1351 C1350 1.400 . S
C1351 C1352 1.398 . S
C1351 C1357 1.491 . S
C1352 H1343 0.950 . S
C1352 C1351 1.398 . S
C1352 C1353 1.391 . S
C1353 H1341 0.950 . S
C1353 C1349 1.393 . S
C1353 C1352 1.391 . S
C1354 H1344 0.950 . S
C1354 C1355 1.386 . S
C1354 C1356 1.391 . S
C1355 C1354 1.386 . S
C1355 C1359 1.393 . S
C1356 H1345 0.950 . S
C1356 C1354 1.391 . S
C1356 C1357 1.400 . S
C1357 C1351 1.491 . S
C1357 C1356 1.400 . S
C1357 C1358 1.398 . S
C1358 H1346 0.950 . S
C1358 C1357 1.398 . S
C1358 C1359 1.391 . S
C1359 H1347 0.950 . S
C1359 C1355 1.393 . S
C1359 C1358 1.391 . S
H1360 C1368 0.950 . S
H1361 C1373 0.950 . S
H1362 C1370 0.950 . S
H1363 C1372 0.950 . S
H1364 C1374 0.950 . S
H1365 C1376 0.950 . S
H1366 C1378 0.950 . S
H1367 C1379 0.950 . S
C1368 H1360 0.950 . S
C1368 C1369 1.386 . S
C1368 C1370 1.391 . S
C1369 C1368 1.386 . S
C1369 C1373 1.393 . S
C1370 H1362 0.950 . S
C1370 C1368 1.391 . S
C1370 C1371 1.400 . S
C1371 C1370 1.400 . S
C1371 C1372 1.398 . S
C1371 C1377 1.491 . S
C1372 H1363 0.950 . S
C1372 C1371 1.398 . S
C1372 C1373 1.391 . S
C1373 H1361 0.950 . S
C1373 C1369 1.393 . S
C1373 C1372 1.391 . S
C1374 H1364 0.950 . S
C1374 C1375 1.386 . S
C1374 C1376 1.391 . S
C1375 C1374 1.386 . S
C1375 C1379 1.393 . S
C1376 H1365 0.950 . S
C1376 C1374 1.391 . S
C1376 C1377 1.400 . S
C1377 C1371 1.491 . S
C1377 C1376 1.400 . S
C1377 C1378 1.398 . S
C1378 H1366 0.950 . S
C1378 C1377 1.398 . S
C1378 C1379 1.391 . S
C1379 H1367 0.950 . S
C1379 C1375 1.393 . S
C1379 C1378 1.391 . S
H1380 C1388 0.950 . S
H1381 C1393 0.950 . S
H1382 C1390 0.950 . S
H1383 C1392 0.950 . S
H1384 C1394 0.950 . S
H1385 C1396 0.950 . S
H1386 C1398 0.950 . S
H1387 C1399 0.950 . S
C1388 H1380 0.950 . S
C1388 C1389 1.386 . S
C1388 C1390 1.391 . S
C1389 C1388 1.386 . S
C1389 C1393 1.393 1_545 S
C1390 H1382 0.950 . S
C1390 C1388 1.391 . S
C1390 C1391 1.400 . S
C1391 C1390 1.400 . S
C1391 C1392 1.398 . S
C1391 C1397 1.491 . S
C1392 H1383 0.950 . S
C1392 C1391 1.398 . S
C1392 C1393 1.391 1_545 S
C1393 H1381 0.950 . S
C1393 C1389 1.393 1_565 S
C1393 C1392 1.391 1_565 S
C1394 H1384 0.950 . S
C1394 C1395 1.386 . S
C1394 C1396 1.391 . S
C1395 C1394 1.386 . S
C1395 C1399 1.393 . S
C1396 H1385 0.950 . S
C1396 C1394 1.391 . S
C1396 C1397 1.400 . S
C1397 C1391 1.491 . S
C1397 C1396 1.400 . S
C1397 C1398 1.398 . S
C1398 H1386 0.950 . S
C1398 C1397 1.398 . S
C1398 C1399 1.391 . S
C1399 H1387 0.950 . S
C1399 C1395 1.393 . S
C1399 C1398 1.391 . S
H1400 C1408 0.950 . S
H1401 C1413 0.950 . S
H1402 C1410 0.950 . S
H1403 C1412 0.950 . S
H1404 C1414 0.950 . S
H1405 C1416 0.950 . S
H1406 C1418 0.950 . S
H1407 C1419 0.950 . S
C1408 H1400 0.950 . S
C1408 C1409 1.386 . S
C1408 C1410 1.391 . S
C1409 C1408 1.386 . S
C1409 C1413 1.393 . S
C1410 H1402 0.950 . S
C1410 C1408 1.391 . S
C1410 C1411 1.400 . S
C1411 C1410 1.400 . S
C1411 C1412 1.398 . S
C1411 C1417 1.491 . S
C1412 H1403 0.950 . S
C1412 C1411 1.398 . S
C1412 C1413 1.391 . S
C1413 H1401 0.950 . S
C1413 C1409 1.393 . S
C1413 C1412 1.391 . S
C1414 H1404 0.950 . S
C1414 C1415 1.386 . S
C1414 C1416 1.391 . S
C1415 C1414 1.386 . S
C1415 C1419 1.393 . S
C1416 H1405 0.950 . S
C1416 C1414 1.391 . S
C1416 C1417 1.400 . S
C1417 C1411 1.491 . S
C1417 C1416 1.400 . S
C1417 C1418 1.398 . S
C1418 H1406 0.950 . S
C1418 C1417 1.398 . S
C1418 C1419 1.391 . S
C1419 H1407 0.950 . S
C1419 C1415 1.393 . S
C1419 C1418 1.391 . S
H1420 C1428 0.950 . S
H1421 C1433 0.950 . S
H1422 C1430 0.950 . S
H1423 C1432 0.950 . S
H1424 C1434 0.950 . S
H1425 C1436 0.950 . S
H1426 C1438 0.950 . S
H1427 C1439 0.950 . S
C1428 H1420 0.950 . S
C1428 C1429 1.386 . S
C1428 C1430 1.391 . S
C1429 C1428 1.386 . S
C1429 C1433 1.393 . S
C1430 H1422 0.950 . S
C1430 C1428 1.391 . S
C1430 C1431 1.400 . S
C1431 C1430 1.400 . S
C1431 C1432 1.398 . S
C1431 C1437 1.491 . S
C1432 H1423 0.950 . S
C1432 C1431 1.398 . S
C1432 C1433 1.391 . S
C1433 H1421 0.950 . S
C1433 C1429 1.393 . S
C1433 C1432 1.391 . S
C1434 H1424 0.950 . S
C1434 C1435 1.401 . S
C1434 C1436 1.391 . S
C1435 C1434 1.401 . S
C1435 C1439 1.405 . S
C1436 H1425 0.950 . S
C1436 C1434 1.391 . S
C1436 C1437 1.400 . S
C1437 C1431 1.491 . S
C1437 C1436 1.400 . S
C1437 C1438 1.398 . S
C1438 H1426 0.950 . S
C1438 C1437 1.398 . S
C1438 C1439 1.391 . S
C1439 H1427 0.950 . S
C1439 C1435 1.405 . S
C1439 C1438 1.391 . S
H1440 C1448 0.950 . S
H1441 C1453 0.950 . S
H1442 C1450 0.950 . S
H1443 C1452 0.950 . S
H1444 C1454 0.950 . S
H1445 C1456 0.950 . S
H1446 C1458 0.950 . S
H1447 C1459 0.950 . S
C1448 H1440 0.950 . S
C1448 C1449 1.386 . S
C1448 C1450 1.391 . S
C1449 C1448 1.386 . S
C1449 C1453 1.393 . S
C1450 H1442 0.950 . S
C1450 C1448 1.391 . S
C1450 C1451 1.400 . S
C1451 C1450 1.400 . S
C1451 C1452 1.398 . S
C1451 C1457 1.491 . S
C1452 H1443 0.950 . S
C1452 C1451 1.398 . S
C1452 C1453 1.391 . S
C1453 H1441 0.950 . S
C1453 C1449 1.393 . S
C1453 C1452 1.391 . S
C1454 H1444 0.950 . S
C1454 C1455 1.386 . S
C1454 C1456 1.391 . S
C1455 C1454 1.386 . S
C1455 C1459 1.393 . S
C1456 H1445 0.950 . S
C1456 C1454 1.391 . S
C1456 C1457 1.400 . S
C1457 C1451 1.491 . S
C1457 C1456 1.400 . S
C1457 C1458 1.398 . S
C1458 H1446 0.950 . S
C1458 C1457 1.398 . S
C1458 C1459 1.391 . S
C1459 H1447 0.950 . S
C1459 C1455 1.393 . S
C1459 C1458 1.391 . S
H1460 C1468 0.950 . S
H1461 C1473 0.950 1_545 S
H1462 C1470 0.950 . S
H1463 C1472 0.950 . S
H1464 C1474 0.950 . S
H1465 C1476 0.950 . S
H1466 C1478 0.950 . S
H1467 C1479 0.950 . S
C1468 H1460 0.950 . S
C1468 C1469 1.386 . S
C1468 C1470 1.391 . S
C1469 C1468 1.386 . S
C1469 C1473 1.393 . S
C1470 H1462 0.950 . S
C1470 C1468 1.391 . S
C1470 C1471 1.400 . S
C1471 C1470 1.400 . S
C1471 C1472 1.398 . S
C1471 C1477 1.491 . S
C1472 H1463 0.950 . S
C1472 C1471 1.398 . S
C1472 C1473 1.391 . S
C1473 H1461 0.950 1_565 S
C1473 C1469 1.393 . S
C1473 C1472 1.391 . S
C1474 H1464 0.950 . S
C1474 C1475 1.386 . S
C1474 C1476 1.391 . S
C1475 C1474 1.386 . S
C1475 C1479 1.393 . S
C1476 H1465 0.950 . S
C1476 C1474 1.391 . S
C1476 C1477 1.400 . S
C1477 C1471 1.491 . S
C1477 C1476 1.400 . S
C1477 C1478 1.398 . S
C1478 H1466 0.950 . S
C1478 C1477 1.398 . S
C1478 C1479 1.391 . S
C1479 H1467 0.950 . S
C1479 C1475 1.393 . S
C1479 C1478 1.391 . S
H1480 C1488 0.950 . S
H1481 C1493 0.950 . S
H1482 C1490 0.950 . S
H1483 C1492 0.950 . S
H1484 C1494 0.950 . S
H1485 C1496 0.950 . S
H1486 C1498 0.950 . S
H1487 C1499 0.950 . S
C1488 H1480 0.950 . S
C1488 C1489 1.386 . S
C1488 C1490 1.391 . S
C1489 C1488 1.386 . S
C1489 C1493 1.393 . S
C1490 H1482 0.950 . S
C1490 C1488 1.391 . S
C1490 C1491 1.400 . S
C1491 C1490 1.400 . S
C1491 C1492 1.398 . S
C1491 C1497 1.491 . S
C1492 H1483 0.950 . S
C1492 C1491 1.398 . S
C1492 C1493 1.391 . S
C1493 H1481 0.950 . S
C1493 C1489 1.393 . S
C1493 C1492 1.391 . S
C1494 H1484 0.950 . S
C1494 C1495 1.386 . S
C1494 C1496 1.391 . S
C1495 C1494 1.386 . S
C1495 C1499 1.393 . S
C1496 H1485 0.950 . S
C1496 C1494 1.391 . S
C1496 C1497 1.400 . S
C1497 C1491 1.491 . S
C1497 C1496 1.400 . S
C1497 C1498 1.398 . S
C1498 H1486 0.950 . S
C1498 C1497 1.398 . S
C1498 C1499 1.391 . S
C1499 H1487 0.950 . S
C1499 C1495 1.393 . S
C1499 C1498 1.391 . S
H1500 C1508 0.950 . S
H1501 C1513 0.954 1_565 S
H1502 C1510 0.950 . S
H1503 C1512 0.950 . S
H1504 C1514 0.950 . S
H1505 C1516 0.950 . S
H1506 C1518 0.950 . S
H1507 C1519 0.950 . S
C1508 H1500 0.950 . S
C1508 C1509 1.386 . S
C1508 C1510 1.391 . S
C1509 C1508 1.386 . S
C1509 C1513 1.392 . S
C1510 H1502 0.950 . S
C1510 C1508 1.391 . S
C1510 C1511 1.400 . S
C1511 C1510 1.400 . S
C1511 C1512 1.398 . S
C1511 C1517 1.491 . S
C1512 H1503 0.950 . S
C1512 C1511 1.398 . S
C1512 C1513 1.387 . S
C1513 H1501 0.954 1_545 S
C1513 C1509 1.392 . S
C1513 C1512 1.387 . S
C1514 H1504 0.950 . S
C1514 C1515 1.386 . S
C1514 C1516 1.391 . S
C1515 C1514 1.386 . S
C1515 C1519 1.393 . S
C1516 H1505 0.950 . S
C1516 C1514 1.391 . S
C1516 C1517 1.400 . S
C1517 C1511 1.491 . S
C1517 C1516 1.400 . S
C1517 C1518 1.398 . S
C1518 H1506 0.950 . S
C1518 C1517 1.398 . S
C1518 C1519 1.391 . S
C1519 H1507 0.950 . S
C1519 C1515 1.393 . S
C1519 C1518 1.391 . S
H1520 C1528 0.950 . S
H1521 C1533 0.950 . S
H1522 C1530 0.950 . S
H1523 C1532 0.950 . S
H1524 C1534 0.950 . S
H1525 C1536 0.950 . S
H1526 C1538 0.950 . S
H1527 C1539 0.950 . S
C1528 H1520 0.950 . S
C1528 C1529 1.386 . S
C1528 C1530 1.391 . S
C1529 C1528 1.386 . S
C1529 C1533 1.393 . S
C1530 H1522 0.950 . S
C1530 C1528 1.391 . S
C1530 C1531 1.400 . S
C1531 C1530 1.400 . S
C1531 C1532 1.398 . S
C1531 C1537 1.491 . S
C1532 H1523 0.950 . S
C1532 C1531 1.398 . S
C1532 C1533 1.391 . S
C1533 H1521 0.950 . S
C1533 C1529 1.393 . S
C1533 C1532 1.391 . S
C1534 H1524 0.950 . S
C1534 C1535 1.386 . S
C1534 C1536 1.391 . S
C1535 C1534 1.386 . S
C1535 C1539 1.393 . S
C1536 H1525 0.950 . S
C1536 C1534 1.391 . S
C1536 C1537 1.400 . S
C1537 C1531 1.491 . S
C1537 C1536 1.400 . S
C1537 C1538 1.398 . S
C1538 H1526 0.950 . S
C1538 C1537 1.398 . S
C1538 C1539 1.391 . S
C1539 H1527 0.950 . S
C1539 C1535 1.393 . S
C1539 C1538 1.391 . S
H1540 C1548 0.950 . S
H1541 C1553 0.950 . S
H1542 C1550 0.950 . S
H1543 C1552 0.950 . S
H1544 C1554 0.950 . S
H1545 C1556 0.950 . S
H1546 C1558 0.950 . S
H1547 C1559 0.950 . S
C1548 H1540 0.950 . S
C1548 C1549 1.386 . S
C1548 C1550 1.391 . S
C1549 C1548 1.386 . S
C1549 C1553 1.393 1_565 S
C1550 H1542 0.950 . S
C1550 C1548 1.391 . S
C1550 C1551 1.400 . S
C1551 C1550 1.400 . S
C1551 C1552 1.398 . S
C1551 C1557 1.491 . S
C1552 H1543 0.950 . S
C1552 C1551 1.398 . S
C1552 C1553 1.391 1_565 S
C1553 H1541 0.950 . S
C1553 C1549 1.393 1_545 S
C1553 C1552 1.391 1_545 S
C1554 H1544 0.950 . S
C1554 C1555 1.386 . S
C1554 C1556 1.391 . S
C1555 C1554 1.386 . S
C1555 C1559 1.393 . S
C1556 H1545 0.950 . S
C1556 C1554 1.391 . S
C1556 C1557 1.400 . S
C1557 C1551 1.491 . S
C1557 C1556 1.400 . S
C1557 C1558 1.398 . S
C1558 H1546 0.950 . S
C1558 C1557 1.398 . S
C1558 C1559 1.391 . S
C1559 H1547 0.950 . S
C1559 C1555 1.393 . S
C1559 C1558 1.391 . S
H1560 C1568 0.950 . S
H1561 C1573 0.950 . S
H1562 C1570 0.950 . S
H1563 C1572 0.950 . S
H1564 C1574 0.950 . S
H1565 C1576 0.950 . S
H1566 C1578 0.950 . S
H1567 C1579 0.950 . S
C1568 H1560 0.950 . S
C1568 C1569 1.386 . S
C1568 C1570 1.391 . S
C1569 C1568 1.386 . S
C1569 C1573 1.393 . S
C1570 H1562 0.950 . S
C1570 C1568 1.391 . S
C1570 C1571 1.400 . S
C1571 C1570 1.400 . S
C1571 C1572 1.398 . S
C1571 C1577 1.491 . S
C1572 H1563 0.950 . S
C1572 C1571 1.398 . S
C1572 C1573 1.391 . S
C1573 H1561 0.950 . S
C1573 C1569 1.393 . S
C1573 C1572 1.391 . S
C1574 H1564 0.950 . S
C1574 C1575 1.386 . S
C1574 C1576 1.391 . S
C1575 C1574 1.386 . S
C1575 C1579 1.393 . S
C1576 H1565 0.950 . S
C1576 C1574 1.391 . S
C1576 C1577 1.400 . S
C1577 C1571 1.491 . S
C1577 C1576 1.400 . S
C1577 C1578 1.398 . S
C1578 H1566 0.950 . S
C1578 C1577 1.398 . S
C1578 C1579 1.391 . S
C1579 H1567 0.950 . S
C1579 C1575 1.393 . S
C1579 C1578 1.391 . S
H1580 C1588 0.950 . S
H1581 C1593 0.950 . S
H1582 C1590 0.950 . S
H1583 C1592 0.950 . S
H1584 C1594 0.950 1_565 S
H1585 C1596 0.950 . S
H1586 C1598 0.950 . S
H1587 C1599 0.950 . S
C1588 H1580 0.950 . S
C1588 C1589 1.386 . S
C1588 C1590 1.391 . S
C1589 C1588 1.386 . S
C1589 C1593 1.393 . S
C1590 H1582 0.950 . S
C1590 C1588 1.391 . S
C1590 C1591 1.400 . S
C1591 C1590 1.400 . S
C1591 C1592 1.398 . S
C1591 C1597 1.491 . S
C1592 H1583 0.950 . S
C1592 C1591 1.398 . S
C1592 C1593 1.391 . S
C1593 H1581 0.950 . S
C1593 C1589 1.393 . S
C1593 C1592 1.391 . S
C1594 H1584 0.950 1_545 S
C1594 C1595 1.386 . S
C1594 C1596 1.391 . S
C1595 C1594 1.386 . S
C1595 C1599 1.393 . S
C1596 H1585 0.950 . S
C1596 C1594 1.391 . S
C1596 C1597 1.400 . S
C1597 C1591 1.491 . S
C1597 C1596 1.400 . S
C1597 C1598 1.398 . S
C1598 H1586 0.950 . S
C1598 C1597 1.398 . S
C1598 C1599 1.391 . S
C1599 H1587 0.950 . S
C1599 C1595 1.393 . S
C1599 C1598 1.391 . S
H1600 C1608 0.950 . S
H1601 C1613 0.950 . S
H1602 C1610 0.950 . S
H1603 C1612 0.950 . S
H1604 C1614 0.950 . S
H1605 C1616 0.950 . S
H1606 C1618 0.950 . S
H1607 C1619 0.950 . S
C1608 H1600 0.950 . S
C1608 C1609 1.386 . S
C1608 C1610 1.391 . S
C1609 C1608 1.386 . S
C1609 C1613 1.393 . S
C1610 H1602 0.950 . S
C1610 C1608 1.391 . S
C1610 C1611 1.400 . S
C1611 C1610 1.400 . S
C1611 C1612 1.398 . S
C1611 C1617 1.491 . S
C1612 H1603 0.950 . S
C1612 C1611 1.398 . S
C1612 C1613 1.391 . S
C1613 H1601 0.950 . S
C1613 C1609 1.393 . S
C1613 C1612 1.391 . S
C1614 H1604 0.950 . S
C1614 C1615 1.386 . S
C1614 C1616 1.391 . S
C1615 C1614 1.386 . S
C1615 C1619 1.393 . S
C1616 H1605 0.950 . S
C1616 C1614 1.391 . S
C1616 C1617 1.400 . S
C1617 C1611 1.491 . S
C1617 C1616 1.400 . S
C1617 C1618 1.398 . S
C1618 H1606 0.950 . S
C1618 C1617 1.398 . S
C1618 C1619 1.391 . S
C1619 H1607 0.950 . S
C1619 C1615 1.393 . S
C1619 C1618 1.391 . S
H1620 C1628 0.950 . S
H1621 C1633 0.950 . S
H1622 C1630 0.950 . S
H1623 C1632 0.950 . S
H1624 C1634 0.950 . S
H1625 C1636 0.950 . S
H1626 C1638 0.950 . S
H1627 C1639 0.950 . S
C1628 H1620 0.950 . S
C1628 C1629 1.386 . S
C1628 C1630 1.391 . S
C1629 C1628 1.386 . S
C1629 C1633 1.393 . S
C1630 H1622 0.950 . S
C1630 C1628 1.391 . S
C1630 C1631 1.400 . S
C1631 C1630 1.400 . S
C1631 C1632 1.398 . S
C1631 C1637 1.491 . S
C1632 H1623 0.950 . S
C1632 C1631 1.398 . S
C1632 C1633 1.391 . S
C1633 H1621 0.950 . S
C1633 C1629 1.393 . S
C1633 C1632 1.391 . S
C1634 H1624 0.950 . S
C1634 C1635 1.386 . S
C1634 C1636 1.391 . S
C1635 C1634 1.386 . S
C1635 C1639 1.393 . S
C1636 H1625 0.950 . S
C1636 C1634 1.391 . S
C1636 C1637 1.400 . S
C1637 C1631 1.491 . S
C1637 C1636 1.400 . S
C1637 C1638 1.398 . S
C1638 H1626 0.950 . S
C1638 C1637 1.398 . S
C1638 C1639 1.391 . S
C1639 H1627 0.950 . S
C1639 C1635 1.393 . S
C1639 C1638 1.391 . S
H1640 C1648 0.950 . S
H1641 C1653 0.950 . S
H1642 C1650 0.950 . S
H1643 C1652 0.950 . S
H1644 C1654 0.950 . S
H1645 C1656 0.950 . S
H1646 C1658 0.950 . S
H1647 C1659 0.950 . S
C1648 H1640 0.950 . S
C1648 C1649 1.386 . S
C1648 C1650 1.391 . S
C1649 C1648 1.386 . S
C1649 C1653 1.393 . S
C1650 H1642 0.950 . S
C1650 C1648 1.391 . S
C1650 C1651 1.400 . S
C1651 C1650 1.400 . S
C1651 C1652 1.398 . S
C1651 C1657 1.491 . S
C1652 H1643 0.950 . S
C1652 C1651 1.398 . S
C1652 C1653 1.391 . S
C1653 H1641 0.950 . S
C1653 C1649 1.393 . S
C1653 C1652 1.391 . S
C1654 H1644 0.950 . S
C1654 C1655 1.386 . S
C1654 C1656 1.391 . S
C1655 C1654 1.386 . S
C1655 C1659 1.393 . S
C1656 H1645 0.950 . S
C1656 C1654 1.391 . S
C1656 C1657 1.400 . S
C1657 C1651 1.491 . S
C1657 C1656 1.400 . S
C1657 C1658 1.398 . S
C1658 H1646 0.950 . S
C1658 C1657 1.398 . S
C1658 C1659 1.391 . S
C1659 H1647 0.950 . S
C1659 C1655 1.393 . S
C1659 C1658 1.391 . S
H1660 C1668 0.950 . S
H1661 C1673 0.950 . S
H1662 C1670 0.950 . S
H1663 C1672 0.950 . S
H1664 C1674 0.950 . S
H1665 C1676 0.950 . S
H1666 C1678 0.950 . S
H1667 C1679 0.950 . S
C1668 H1660 0.950 . S
C1668 C1669 1.386 . S
C1668 C1670 1.391 . S
C1669 C1668 1.386 . S
C1669 C1673 1.393 . S
C1670 H1662 0.950 . S
C1670 C1668 1.391 . S
C1670 C1671 1.400 . S
C1671 C1670 1.400 . S
C1671 C1672 1.398 . S
C1671 C1677 1.491 . S
C1672 H1663 0.950 . S
C1672 C1671 1.398 . S
C1672 C1673 1.391 . S
C1673 H1661 0.950 . S
C1673 C1669 1.393 . S
C1673 C1672 1.391 . S
C1674 H1664 0.950 . S
C1674 C1675 1.386 . S
C1674 C1676 1.391 . S
C1675 C1674 1.386 . S
C1675 C1679 1.393 . S
C1676 H1665 0.950 . S
C1676 C1674 1.391 . S
C1676 C1677 1.400 . S
C1677 C1671 1.491 . S
C1677 C1676 1.400 . S
C1677 C1678 1.398 . S
C1678 H1666 0.950 . S
C1678 C1677 1.398 . S
C1678 C1679 1.391 . S
C1679 H1667 0.950 . S
C1679 C1675 1.393 . S
C1679 C1678 1.391 . S
H1680 C1688 0.950 . S
H1681 C1693 0.950 . S
H1682 C1690 0.950 . S
H1683 C1692 0.950 . S
H1684 C1694 0.950 . S
H1685 C1696 0.950 . S
H1686 C1698 0.950 . S
H1687 C1699 0.950 . S
C1688 H1680 0.950 . S
C1688 C1689 1.386 . S
C1688 C1690 1.391 . S
C1689 C1688 1.386 . S
C1689 C1693 1.393 . S
C1690 H1682 0.950 . S
C1690 C1688 1.391 . S
C1690 C1691 1.400 . S
C1691 C1690 1.400 . S
C1691 C1692 1.398 . S
C1691 C1697 1.491 . S
C1692 H1683 0.950 . S
C1692 C1691 1.398 . S
C1692 C1693 1.391 . S
C1693 H1681 0.950 . S
C1693 C1689 1.393 . S
C1693 C1692 1.391 . S
C1694 H1684 0.950 . S
C1694 C1695 1.386 . S
C1694 C1696 1.391 . S
C1695 C1694 1.386 . S
C1695 C1699 1.393 . S
C1696 H1685 0.950 . S
C1696 C1694 1.391 . S
C1696 C1697 1.400 . S
C1697 C1691 1.491 . S
C1697 C1696 1.400 . S
C1697 C1698 1.398 . S
C1698 H1686 0.950 . S
C1698 C1697 1.398 . S
C1698 C1699 1.391 . S
C1699 H1687 0.950 . S
C1699 C1695 1.393 . S
C1699 C1698 1.391 . S
H1700 C1708 0.950 . S
H1701 C1713 0.950 . S
H1702 C1710 0.950 . S
H1703 C1712 0.950 . S
H1704 C1714 0.950 . S
H1705 C1716 0.950 . S
H1706 C1718 0.950 . S
H1707 C1719 0.950 . S
C1708 H1700 0.950 . S
C1708 C1709 1.386 . S
C1708 C1710 1.391 . S
C1709 C1708 1.386 . S
C1709 C1713 1.393 . S
C1710 H1702 0.950 . S
C1710 C1708 1.391 . S
C1710 C1711 1.400 . S
C1711 C1710 1.400 . S
C1711 C1712 1.398 . S
C1711 C1717 1.491 . S
C1712 H1703 0.950 . S
C1712 C1711 1.398 . S
C1712 C1713 1.391 . S
C1713 H1701 0.950 . S
C1713 C1709 1.393 . S
C1713 C1712 1.391 . S
C1714 H1704 0.950 . S
C1714 C1715 1.386 . S
C1714 C1716 1.391 . S
C1715 C1714 1.386 . S
C1715 C1719 1.393 . S
C1716 H1705 0.950 . S
C1716 C1714 1.391 . S
C1716 C1717 1.400 . S
C1717 C1711 1.491 . S
C1717 C1716 1.400 . S
C1717 C1718 1.398 . S
C1718 H1706 0.950 . S
C1718 C1717 1.398 . S
C1718 C1719 1.391 . S
C1719 H1707 0.950 . S
C1719 C1715 1.393 . S
C1719 C1718 1.391 . S
H1720 C1728 0.950 . S
H1721 C1733 0.950 . S
H1722 C1730 0.950 . S
H1723 C1732 0.950 . S
H1724 C1734 0.950 . S
H1725 C1736 0.950 . S
H1726 C1738 0.950 . S
H1727 C1739 0.950 . S
C1728 H1720 0.950 . S
C1728 C1729 1.386 . S
C1728 C1730 1.391 . S
C1729 C1728 1.386 . S
C1729 C1733 1.393 . S
C1730 H1722 0.950 . S
C1730 C1728 1.391 . S
C1730 C1731 1.400 . S
C1731 C1730 1.400 . S
C1731 C1732 1.398 . S
C1731 C1737 1.491 . S
C1732 H1723 0.950 . S
C1732 C1731 1.398 . S
C1732 C1733 1.391 . S
C1733 H1721 0.950 . S
C1733 C1729 1.393 . S
C1733 C1732 1.391 . S
C1734 H1724 0.950 . S
C1734 C1735 1.386 . S
C1734 C1736 1.391 . S
C1735 C1734 1.386 . S
C1735 C1739 1.393 . S
C1736 H1725 0.950 . S
C1736 C1734 1.391 . S
C1736 C1737 1.400 . S
C1737 C1731 1.491 . S
C1737 C1736 1.400 . S
C1737 C1738 1.398 . S
C1738 H1726 0.950 . S
C1738 C1737 1.398 . S
C1738 C1739 1.391 . S
C1739 H1727 0.950 . S
C1739 C1735 1.393 . S
C1739 C1738 1.391 . S
H1740 C1748 0.950 . S
H1741 C1753 0.950 . S
H1742 C1750 0.950 . S
H1743 C1752 0.950 . S
H1744 C1754 0.950 . S
H1745 C1756 0.950 . S
H1746 C1758 0.950 . S
H1747 C1759 0.950 . S
C1748 H1740 0.950 . S
C1748 C1749 1.386 . S
C1748 C1750 1.391 . S
C1749 C1748 1.386 . S
C1749 C1753 1.393 . S
C1750 H1742 0.950 . S
C1750 C1748 1.391 . S
C1750 C1751 1.400 . S
C1751 C1750 1.400 . S
C1751 C1752 1.398 . S
C1751 C1757 1.491 . S
C1752 H1743 0.950 . S
C1752 C1751 1.398 . S
C1752 C1753 1.391 . S
C1753 H1741 0.950 . S
C1753 C1749 1.393 . S
C1753 C1752 1.391 . S
C1754 H1744 0.950 . S
C1754 C1755 1.386 . S
C1754 C1756 1.391 . S
C1755 C1754 1.386 . S
C1755 C1759 1.393 . S
C1756 H1745 0.950 . S
C1756 C1754 1.391 . S
C1756 C1757 1.400 . S
C1757 C1751 1.491 . S
C1757 C1756 1.400 . S
C1757 C1758 1.398 . S
C1758 H1746 0.950 . S
C1758 C1757 1.398 . S
C1758 C1759 1.391 . S
C1759 H1747 0.950 . S
C1759 C1755 1.393 . S
C1759 C1758 1.391 . S
H1760 C1768 0.950 . S
H1761 C1773 0.950 . S
H1762 C1770 0.950 . S
H1763 C1772 0.950 . S
H1764 C1774 0.950 . S
H1765 C1776 0.950 . S
H1766 C1778 0.950 . S
H1767 C1779 0.950 . S
C1768 H1760 0.950 . S
C1768 C1769 1.386 . S
C1768 C1770 1.391 . S
C1769 C1768 1.386 . S
C1769 C1773 1.393 . S
C1770 H1762 0.950 . S
C1770 C1768 1.391 . S
C1770 C1771 1.400 . S
C1771 C1770 1.400 . S
C1771 C1772 1.398 . S
C1771 C1777 1.491 . S
C1772 H1763 0.950 . S
C1772 C1771 1.398 . S
C1772 C1773 1.391 . S
C1773 H1761 0.950 . S
C1773 C1769 1.393 . S
C1773 C1772 1.391 . S
C1774 H1764 0.950 . S
C1774 C1775 1.386 . S
C1774 C1776 1.391 . S
C1775 C1774 1.386 . S
C1775 C1779 1.393 . S
C1776 H1765 0.950 . S
C1776 C1774 1.391 . S
C1776 C1777 1.400 . S
C1777 C1771 1.491 . S
C1777 C1776 1.400 . S
C1777 C1778 1.398 . S
C1778 H1766 0.950 . S
C1778 C1777 1.398 . S
C1778 C1779 1.391 . S
C1779 H1767 0.950 . S
C1779 C1775 1.393 . S
C1779 C1778 1.391 . S
H1780 C1788 0.950 . S
H1781 C1793 0.950 . S
H1782 C1790 0.950 . S
H1783 C1792 0.950 . S
H1784 C1794 0.950 . S
H1785 C1796 0.950 . S
H1786 C1798 0.950 . S
H1787 C1799 0.950 . S
C1788 H1780 0.950 . S
C1788 C1789 1.386 . S
C1788 C1790 1.391 . S
C1789 C1788 1.386 . S
C1789 C1793 1.393 . S
C1790 H1782 0.950 . S
C1790 C1788 1.391 . S
C1790 C1791 1.400 . S
C1791 C1790 1.400 . S
C1791 C1792 1.398 . S
C1791 C1797 1.491 . S
C1792 H1783 0.950 . S
C1792 C1791 1.398 . S
C1792 C1793 1.391 . S
C1793 H1781 0.950 . S
C1793 C1789 1.393 . S
C1793 C1792 1.391 . S
C1794 H1784 0.950 . S
C1794 C1795 1.386 . S
C1794 C1796 1.391 . S
C1795 C1794 1.386 . S
C1795 C1799 1.393 . S
C1796 H1785 0.950 . S
C1796 C1794 1.391 . S
C1796 C1797 1.400 . S
C1797 C1791 1.491 . S
C1797 C1796 1.400 . S
C1797 C1798 1.398 . S
C1798 H1786 0.950 . S
C1798 C1797 1.398 . S
C1798 C1799 1.391 . S
C1799 H1787 0.950 . S
C1799 C1795 1.393 . S
C1799 C1798 1.391 . S
H1800 C1808 0.950 . S
H1801 C1813 0.950 . S
H1802 C1810 0.950 . S
H1803 C1812 0.950 . S
H1804 C1814 0.950 . S
H1805 C1816 0.950 . S
H1806 C1818 0.950 . S
H1807 C1819 0.950 . S
C1808 H1800 0.950 . S
C1808 C1809 1.386 . S
C1808 C1810 1.391 . S
C1809 C1808 1.386 . S
C1809 C1813 1.393 . S
C1810 H1802 0.950 . S
C1810 C1808 1.391 . S
C1810 C1811 1.400 . S
C1811 C1810 1.400 . S
C1811 C1812 1.398 . S
C1811 C1817 1.491 . S
C1812 H1803 0.950 . S
C1812 C1811 1.398 . S
C1812 C1813 1.391 . S
C1813 H1801 0.950 . S
C1813 C1809 1.393 . S
C1813 C1812 1.391 . S
C1814 H1804 0.950 . S
C1814 C1815 1.386 . S
C1814 C1816 1.391 . S
C1815 C1814 1.386 . S
C1815 C1819 1.393 . S
C1816 H1805 0.950 . S
C1816 C1814 1.391 . S
C1816 C1817 1.400 . S
C1817 C1811 1.491 . S
C1817 C1816 1.400 . S
C1817 C1818 1.398 . S
C1818 H1806 0.950 . S
C1818 C1817 1.398 . S
C1818 C1819 1.391 . S
C1819 H1807 0.950 . S
C1819 C1815 1.393 . S
C1819 C1818 1.391 . S
H1820 C1828 0.950 . S
H1821 C1833 0.950 . S
H1822 C1830 0.950 . S
H1823 C1832 0.950 . S
H1824 C1834 0.950 . S
H1825 C1836 0.950 . S
H1826 C1838 0.950 . S
H1827 C1839 0.950 . S
C1828 H1820 0.950 . S
C1828 C1829 1.386 . S
C1828 C1830 1.391 . S
C1829 C1828 1.386 . S
C1829 C1833 1.393 . S
C1830 H1822 0.950 . S
C1830 C1828 1.391 . S
C1830 C1831 1.400 . S
C1831 C1830 1.400 . S
C1831 C1832 1.398 . S
C1831 C1837 1.491 . S
C1832 H1823 0.950 . S
C1832 C1831 1.398 . S
C1832 C1833 1.391 . S
C1833 H1821 0.950 . S
C1833 C1829 1.393 . S
C1833 C1832 1.391 . S
C1834 H1824 0.950 . S
C1834 C1835 1.386 . S
C1834 C1836 1.391 . S
C1835 C1834 1.386 . S
C1835 C1839 1.393 . S
C1836 H1825 0.950 . S
C1836 C1834 1.391 . S
C1836 C1837 1.400 . S
C1837 C1831 1.491 . S
C1837 C1836 1.400 . S
C1837 C1838 1.398 . S
C1838 H1826 0.950 . S
C1838 C1837 1.398 . S
C1838 C1839 1.391 . S
C1839 H1827 0.950 . S
C1839 C1835 1.393 . S
C1839 C1838 1.391 . S
H1840 C1848 0.950 . S
H1841 C1853 0.950 . S
H1842 C1850 0.950 . S
H1843 C1852 0.950 . S
H1844 C1854 0.950 . S
H1845 C1856 0.950 . S
H1846 C1858 0.950 . S
H1847 C1859 0.950 . S
C1848 H1840 0.950 . S
C1848 C1849 1.386 . S
C1848 C1850 1.391 . S
C1849 C1848 1.386 . S
C1849 C1853 1.393 . S
C1850 H1842 0.950 . S
C1850 C1848 1.391 . S
C1850 C1851 1.400 . S
C1851 C1850 1.400 . S
C1851 C1852 1.398 . S
C1851 C1857 1.491 . S
C1852 H1843 0.950 . S
C1852 C1851 1.398 . S
C1852 C1853 1.391 . S
C1853 H1841 0.950 . S
C1853 C1849 1.393 . S
C1853 C1852 1.391 . S
C1854 H1844 0.950 . S
C1854 C1855 1.386 . S
C1854 C1856 1.391 . S
C1855 C1854 1.386 . S
C1855 C1859 1.393 . S
C1856 H1845 0.950 . S
C1856 C1854 1.391 . S
C1856 C1857 1.400 . S
C1857 C1851 1.491 . S
C1857 C1856 1.400 . S
C1857 C1858 1.398 . S
C1858 H1846 0.950 . S
C1858 C1857 1.398 . S
C1858 C1859 1.391 . S
C1859 H1847 0.950 . S
C1859 C1855 1.393 . S
C1859 C1858 1.391 . S
H1860 C1868 0.950 . S
H1861 C1873 0.950 . S
H1862 C1870 0.950 . S
H1863 C1872 0.950 . S
H1864 C1874 0.950 . S
H1865 C1876 0.950 . S
H1866 C1878 0.950 . S
H1867 C1879 0.950 . S
C1868 H1860 0.950 . S
C1868 C1869 1.386 . S
C1868 C1870 1.391 . S
C1869 C1868 1.386 . S
C1869 C1873 1.393 . S
C1870 H1862 0.950 . S
C1870 C1868 1.391 . S
C1870 C1871 1.400 . S
C1871 C1870 1.400 . S
C1871 C1872 1.398 . S
C1871 C1877 1.491 . S
C1872 H1863 0.950 . S
C1872 C1871 1.398 . S
C1872 C1873 1.391 . S
C1873 H1861 0.950 . S
C1873 C1869 1.393 . S
C1873 C1872 1.391 . S
C1874 H1864 0.950 . S
C1874 C1875 1.386 . S
C1874 C1876 1.391 . S
C1875 C1874 1.386 . S
C1875 C1879 1.393 . S
C1876 H1865 0.950 . S
C1876 C1874 1.391 . S
C1876 C1877 1.400 . S
C1877 C1871 1.491 . S
C1877 C1876 1.400 . S
C1877 C1878 1.398 . S
C1878 H1866 0.950 . S
C1878 C1877 1.398 . S
C1878 C1879 1.391 . S
C1879 H1867 0.950 . S
C1879 C1875 1.393 . S
C1879 C1878 1.391 . S
H1880 C1888 0.950 . S
H1881 C1893 0.950 . S
H1882 C1890 0.950 . S
H1883 C1892 0.950 . S
H1884 C1894 0.950 . S
H1885 C1896 0.950 . S
H1886 C1898 0.950 . S
H1887 C1899 0.950 . S
C1888 H1880 0.950 . S
C1888 C1889 1.386 . S
C1888 C1890 1.391 . S
C1889 C1888 1.386 . S
C1889 C1893 1.393 . S
C1890 H1882 0.950 . S
C1890 C1888 1.391 . S
C1890 C1891 1.400 . S
C1891 C1890 1.400 . S
C1891 C1892 1.398 . S
C1891 C1897 1.491 . S
C1892 H1883 0.950 . S
C1892 C1891 1.398 . S
C1892 C1893 1.391 . S
C1893 H1881 0.950 . S
C1893 C1889 1.393 . S
C1893 C1892 1.391 . S
C1894 H1884 0.950 . S
C1894 C1895 1.386 . S
C1894 C1896 1.391 . S
C1895 C1894 1.386 . S
C1895 C1899 1.393 . S
C1896 H1885 0.950 . S
C1896 C1894 1.391 . S
C1896 C1897 1.400 . S
C1897 C1891 1.491 . S
C1897 C1896 1.400 . S
C1897 C1898 1.398 . S
C1898 H1886 0.950 . S
C1898 C1897 1.398 . S
C1898 C1899 1.391 . S
C1899 H1887 0.950 . S
C1899 C1895 1.393 . S
C1899 C1898 1.391 . S
H1900 C1908 0.950 . S
H1901 C1913 0.950 . S
H1902 C1910 0.950 . S
H1903 C1912 0.950 . S
H1904 C1914 0.950 . S
H1905 C1916 0.950 . S
H1906 C1918 0.950 . S
H1907 C1919 0.950 . S
C1908 H1900 0.950 . S
C1908 C1909 1.386 . S
C1908 C1910 1.391 . S
C1909 C1908 1.386 . S
C1909 C1913 1.393 . S
C1910 H1902 0.950 . S
C1910 C1908 1.391 . S
C1910 C1911 1.400 . S
C1911 C1910 1.400 . S
C1911 C1912 1.398 . S
C1911 C1917 1.491 . S
C1912 H1903 0.950 . S
C1912 C1911 1.398 . S
C1912 C1913 1.391 . S
C1913 H1901 0.950 . S
C1913 C1909 1.393 . S
C1913 C1912 1.391 . S
C1914 H1904 0.950 . S
C1914 C1915 1.386 . S
C1914 C1916 1.391 . S
C1915 C1914 1.386 . S
C1915 C1919 1.393 . S
C1916 H1905 0.950 . S
C1916 C1914 1.391 . S
C1916 C1917 1.400 . S
C1917 C1911 1.491 . S
C1917 C1916 1.400 . S
C1917 C1918 1.398 . S
C1918 H1906 0.950 . S
C1918 C1917 1.398 . S
C1918 C1919 1.391 . S
C1919 H1907 0.950 . S
C1919 C1915 1.393 . S
C1919 C1918 1.391 . S
H1920 C1928 0.950 . S
H1921 C1933 0.950 . S
H1922 C1930 0.950 . S
H1923 C1932 0.950 . S
H1924 C1934 0.950 . S
H1925 C1936 0.950 . S
H1926 C1938 0.950 . S
H1927 C1939 0.950 . S
C1928 H1920 0.950 . S
C1928 C1929 1.386 . S
C1928 C1930 1.391 . S
C1929 C1928 1.386 . S
C1929 C1933 1.393 . S
C1930 H1922 0.950 . S
C1930 C1928 1.391 . S
C1930 C1931 1.400 . S
C1931 C1930 1.400 . S
C1931 C1932 1.398 . S
C1931 C1937 1.491 . S
C1932 H1923 0.950 . S
C1932 C1931 1.398 . S
C1932 C1933 1.391 . S
C1933 H1921 0.950 . S
C1933 C1929 1.393 . S
C1933 C1932 1.391 . S
C1934 H1924 0.950 . S
C1934 C1935 1.386 . S
C1934 C1936 1.391 . S
C1935 C1934 1.386 . S
C1935 C1939 1.393 . S
C1936 H1925 0.950 . S
C1936 C1934 1.391 . S
C1936 C1937 1.400 . S
C1937 C1931 1.491 . S
C1937 C1936 1.400 . S
C1937 C1938 1.398 . S
C1938 H1926 0.950 . S
C1938 C1937 1.398 . S
C1938 C1939 1.391 . S
C1939 H1927 0.950 . S
C1939 C1935 1.393 . S
C1939 C1938 1.391 . S
H1940 C1948 0.950 . S
H1941 C1953 0.950 . S
H1942 C1950 0.950 . S
H1943 C1952 0.950 . S
H1944 C1954 0.950 . S
H1945 C1956 0.950 . S
H1946 C1958 0.950 . S
H1947 C1959 0.950 . S
C1948 H1940 0.950 . S
C1948 C1949 1.386 . S
C1948 C1950 1.391 . S
C1949 C1948 1.386 . S
C1949 C1953 1.393 . S
C1950 H1942 0.950 . S
C1950 C1948 1.391 . S
C1950 C1951 1.400 . S
C1951 C1950 1.400 . S
C1951 C1952 1.398 . S
C1951 C1957 1.491 . S
C1952 H1943 0.950 . S
C1952 C1951 1.398 . S
C1952 C1953 1.391 . S
C1953 H1941 0.950 . S
C1953 C1949 1.393 . S
C1953 C1952 1.391 . S
C1954 H1944 0.950 . S
C1954 C1955 1.386 . S
C1954 C1956 1.391 1_655 S
C1955 C1954 1.386 . S
C1955 C1959 1.392 1_655 S
C1956 H1945 0.950 . S
C1956 C1954 1.391 1_455 S
C1956 C1957 1.400 . S
C1957 C1951 1.491 . S
C1957 C1956 1.400 . S
C1957 C1958 1.398 . S
C1958 H1946 0.950 . S
C1958 C1957 1.398 . S
C1958 C1959 1.391 . S
C1959 H1947 0.950 . S
C1959 C1955 1.392 1_455 S
C1959 C1958 1.391 . S
H1960 C1968 0.950 . S
H1961 C1973 0.950 . S
H1962 C1970 0.950 . S
H1963 C1972 0.950 . S
H1964 C1974 0.950 . S
H1965 C1976 0.950 . S
H1966 C1978 0.950 . S
H1967 C1979 0.950 . S
C1968 H1960 0.950 . S
C1968 C1969 1.386 . S
C1968 C1970 1.391 . S
C1969 C1968 1.386 . S
C1969 C1973 1.393 . S
C1970 H1962 0.950 . S
C1970 C1968 1.391 . S
C1970 C1971 1.400 . S
C1971 C1970 1.400 . S
C1971 C1972 1.398 . S
C1971 C1977 1.491 . S
C1972 H1963 0.950 . S
C1972 C1971 1.398 . S
C1972 C1973 1.391 . S
C1973 H1961 0.950 . S
C1973 C1969 1.393 . S
C1973 C1972 1.391 . S
C1974 H1964 0.950 . S
C1974 C1975 1.386 . S
C1974 C1976 1.391 . S
C1975 C1974 1.386 . S
C1975 C1979 1.393 . S
C1976 H1965 0.950 . S
C1976 C1974 1.391 . S
C1976 C1977 1.400 . S
C1977 C1971 1.491 . S
C1977 C1976 1.400 . S
C1977 C1978 1.398 . S
C1978 H1966 0.950 . S
C1978 C1977 1.398 . S
C1978 C1979 1.391 . S
C1979 H1967 0.950 . S
C1979 C1975 1.393 . S
C1979 C1978 1.391 . S
H1980 C1988 0.950 . S
H1981 C1993 0.950 . S
H1982 C1990 0.950 . S
H1983 C1992 0.950 . S
H1984 C1994 0.950 . S
H1985 C1996 0.950 . S
H1986 C1998 0.950 . S
H1987 C1999 0.950 . S
C1988 H1980 0.950 . S
C1988 C1989 1.386 . S
C1988 C1990 1.391 . S
C1989 C1988 1.386 . S
C1989 C1993 1.393 . S
C1990 H1982 0.950 . S
C1990 C1988 1.391 . S
C1990 C1991 1.400 . S
C1991 C1990 1.400 . S
C1991 C1992 1.398 . S
C1991 C1997 1.491 . S
C1992 H1983 0.950 . S
C1992 C1991 1.398 . S
C1992 C1993 1.391 . S
C1993 H1981 0.950 . S
C1993 C1989 1.393 . S
C1993 C1992 1.391 . S
C1994 H1984 0.950 . S
C1994 C1995 1.386 . S
C1994 C1996 1.391 . S
C1995 C1994 1.386 . S
C1995 C1999 1.393 . S
C1996 H1985 0.950 . S
C1996 C1994 1.391 . S
C1996 C1997 1.400 . S
C1997 C1991 1.491 . S
C1997 C1996 1.400 . S
C1997 C1998 1.398 . S
C1998 H1986 0.950 . S
C1998 C1997 1.398 . S
C1998 C1999 1.391 . S
C1999 H1987 0.950 . S
C1999 C1995 1.393 . S
C1999 C1998 1.391 . S
H2000 C2008 0.950 . S
H2001 C2013 0.950 . S
H2002 C2010 0.950 . S
H2003 C2012 0.950 . S
H2004 C2014 0.950 . S
H2005 C2016 0.950 . S
H2006 C2018 0.950 . S
H2007 C2019 0.950 . S
C2008 H2000 0.950 . S
C2008 C2009 1.386 . S
C2008 C2010 1.391 . S
C2009 C2008 1.386 . S
C2009 C2013 1.393 . S
C2010 H2002 0.950 . S
C2010 C2008 1.391 . S
C2010 C2011 1.400 . S
C2011 C2010 1.400 . S
C2011 C2012 1.398 . S
C2011 C2017 1.491 . S
C2012 H2003 0.950 . S
C2012 C2011 1.398 . S
C2012 C2013 1.391 . S
C2013 H2001 0.950 . S
C2013 C2009 1.393 . S
C2013 C2012 1.391 . S
C2014 H2004 0.950 . S
C2014 C2015 1.386 . S
C2014 C2016 1.391 . S
C2015 C2014 1.386 . S
C2015 C2019 1.393 . S
C2016 H2005 0.950 . S
C2016 C2014 1.391 . S
C2016 C2017 1.400 . S
C2017 C2011 1.491 . S
C2017 C2016 1.400 . S
C2017 C2018 1.398 . S
C2018 H2006 0.950 . S
C2018 C2017 1.398 . S
C2018 C2019 1.391 . S
C2019 H2007 0.950 . S
C2019 C2015 1.393 . S
C2019 C2018 1.391 . S
H2020 C2028 0.950 . S
H2021 C2033 0.950 . S
H2022 C2030 0.950 . S
H2023 C2032 0.950 . S
H2024 C2034 0.950 . S
H2025 C2036 0.950 . S
H2026 C2038 0.950 . S
H2027 C2039 0.950 . S
C2028 H2020 0.950 . S
C2028 C2029 1.386 . S
C2028 C2030 1.391 . S
C2029 C2028 1.386 . S
C2029 C2033 1.393 . S
C2030 H2022 0.950 . S
C2030 C2028 1.391 . S
C2030 C2031 1.400 . S
C2031 C2030 1.400 . S
C2031 C2032 1.398 . S
C2031 C2037 1.491 . S
C2032 H2023 0.950 . S
C2032 C2031 1.398 . S
C2032 C2033 1.391 . S
C2033 H2021 0.950 . S
C2033 C2029 1.393 . S
C2033 C2032 1.391 . S
C2034 H2024 0.950 . S
C2034 C2035 1.386 . S
C2034 C2036 1.391 . S
C2035 C2034 1.386 . S
C2035 C2039 1.393 . S
C2036 H2025 0.950 . S
C2036 C2034 1.391 . S
C2036 C2037 1.400 . S
C2037 C2031 1.491 . S
C2037 C2036 1.400 . S
C2037 C2038 1.398 . S
C2038 H2026 0.950 . S
C2038 C2037 1.398 . S
C2038 C2039 1.391 . S
C2039 H2027 0.950 . S
C2039 C2035 1.393 . S
C2039 C2038 1.391 . S
H2040 C2048 0.950 . S
H2041 C2053 0.950 . S
H2042 C2050 0.950 . S
H2043 C2052 0.950 . S
H2044 C2054 0.950 . S
H2045 C2056 0.950 . S
H2046 C2058 0.950 . S
H2047 C2059 0.950 . S
C2048 H2040 0.950 . S
C2048 C2049 1.386 . S
C2048 C2050 1.391 . S
C2049 C2048 1.386 . S
C2049 C2053 1.393 . S
C2050 H2042 0.950 . S
C2050 C2048 1.391 . S
C2050 C2051 1.400 . S
C2051 C2050 1.400 . S
C2051 C2052 1.398 . S
C2051 C2057 1.491 . S
C2052 H2043 0.950 . S
C2052 C2051 1.398 . S
C2052 C2053 1.391 . S
C2053 H2041 0.950 . S
C2053 C2049 1.393 . S
C2053 C2052 1.391 . S
C2054 H2044 0.950 . S
C2054 C2055 1.386 . S
C2054 C2056 1.391 . S
C2055 C2054 1.386 . S
C2055 C2059 1.393 . S
C2056 H2045 0.950 . S
C2056 C2054 1.391 . S
C2056 C2057 1.400 . S
C2057 C2051 1.491 . S
C2057 C2056 1.400 . S
C2057 C2058 1.398 . S
C2058 H2046 0.950 . S
C2058 C2057 1.398 . S
C2058 C2059 1.391 . S
C2059 H2047 0.950 . S
C2059 C2055 1.393 . S
C2059 C2058 1.391 . S
H2060 C2068 0.950 . S
H2061 C2073 0.950 . S
H2062 C2070 0.950 . S
H2063 C2072 0.950 . S
H2064 C2074 0.951 . S
H2065 C2076 0.950 . S
H2066 C2078 0.950 . S
H2067 C2079 0.950 . S
C2068 H2060 0.950 . S
C2068 C2069 1.386 . S
C2068 C2070 1.391 . S
C2069 C2068 1.386 . S
C2069 C2073 1.393 . S
C2070 H2062 0.950 . S
C2070 C2068 1.391 . S
C2070 C2071 1.400 . S
C2071 C2070 1.400 . S
C2071 C2072 1.398 . S
C2071 C2077 1.491 . S
C2072 H2063 0.950 . S
C2072 C2071 1.398 . S
C2072 C2073 1.391 . S
C2073 H2061 0.950 . S
C2073 C2069 1.393 . S
C2073 C2072 1.391 . S
C2074 H2064 0.951 . S
C2074 C2075 1.386 1_655 S
C2074 C2076 1.390 1_655 S
C2075 C2074 1.386 1_455 S
C2075 C2079 1.389 . S
C2076 H2065 0.950 . S
C2076 C2074 1.390 1_455 S
C2076 C2077 1.400 . S
C2077 C2071 1.491 . S
C2077 C2076 1.400 . S
C2077 C2078 1.398 . S
C2078 H2066 0.950 . S
C2078 C2077 1.398 . S
C2078 C2079 1.391 . S
C2079 H2067 0.950 . S
C2079 C2075 1.389 . S
C2079 C2078 1.391 . S
H2080 C2088 0.950 . S
H2081 C2093 0.950 . S
H2082 C2090 0.950 . S
H2083 C2092 0.950 . S
H2084 C2094 0.950 . S
H2085 C2096 0.950 . S
H2086 C2098 0.950 . S
H2087 C2099 0.950 . S
C2088 H2080 0.950 . S
C2088 C2089 1.386 . S
C2088 C2090 1.391 . S
C2089 C2088 1.386 . S
C2089 C2093 1.393 . S
C2090 H2082 0.950 . S
C2090 C2088 1.391 . S
C2090 C2091 1.400 . S
C2091 C2090 1.400 . S
C2091 C2092 1.398 . S
C2091 C2097 1.491 . S
C2092 H2083 0.950 . S
C2092 C2091 1.398 . S
C2092 C2093 1.391 . S
C2093 H2081 0.950 . S
C2093 C2089 1.393 . S
C2093 C2092 1.391 . S
C2094 H2084 0.950 . S
C2094 C2095 1.386 . S
C2094 C2096 1.391 . S
C2095 C2094 1.386 . S
C2095 C2099 1.393 . S
C2096 H2085 0.950 . S
C2096 C2094 1.391 . S
C2096 C2097 1.400 . S
C2097 C2091 1.491 . S
C2097 C2096 1.400 . S
C2097 C2098 1.398 . S
C2098 H2086 0.950 . S
C2098 C2097 1.398 . S
C2098 C2099 1.391 . S
C2099 H2087 0.950 . S
C2099 C2095 1.393 . S
C2099 C2098 1.391 . S
H2100 C2108 0.950 . S
H2101 C2113 0.950 1_455 S
H2102 C2110 0.950 . S
H2103 C2112 0.950 . S
H2104 C2114 0.950 . S
H2105 C2116 0.950 . S
H2106 C2118 0.950 . S
H2107 C2119 0.950 . S
C2108 H2100 0.950 . S
C2108 C2109 1.387 . S
C2108 C2110 1.391 . S
C2109 C2108 1.387 . S
C2109 C2113 1.393 . S
C2110 H2102 0.950 . S
C2110 C2108 1.391 . S
C2110 C2111 1.400 . S
C2111 C2110 1.400 . S
C2111 C2112 1.398 . S
C2111 C2117 1.491 . S
C2112 H2103 0.950 . S
C2112 C2111 1.398 . S
C2112 C2113 1.391 . S
C2113 H2101 0.950 1_655 S
C2113 C2109 1.393 . S
C2113 C2112 1.391 . S
C2114 H2104 0.950 . S
C2114 C2115 1.386 . S
C2114 C2116 1.391 . S
C2115 C2114 1.386 . S
C2115 C2119 1.393 . S
C2116 H2105 0.950 . S
C2116 C2114 1.391 . S
C2116 C2117 1.400 . S
C2117 C2111 1.491 . S
C2117 C2116 1.400 . S
C2117 C2118 1.398 . S
C2118 H2106 0.950 . S
C2118 C2117 1.398 . S
C2118 C2119 1.391 . S
C2119 H2107 0.950 . S
C2119 C2115 1.393 . S
C2119 C2118 1.391 . S
H2120 C2128 0.950 . S
H2121 C2133 0.950 . S
H2122 C2130 0.950 . S
H2123 C2132 0.950 . S
H2124 C2134 0.950 . S
H2125 C2136 0.950 . S
H2126 C2138 0.950 . S
H2127 C2139 0.950 . S
C2128 H2120 0.950 . S
C2128 C2129 1.386 . S
C2128 C2130 1.391 . S
C2129 C2128 1.386 . S
C2129 C2133 1.393 . S
C2130 H2122 0.950 . S
C2130 C2128 1.391 . S
C2130 C2131 1.400 . S
C2131 C2130 1.400 . S
C2131 C2132 1.398 . S
C2131 C2137 1.491 . S
C2132 H2123 0.950 . S
C2132 C2131 1.398 . S
C2132 C2133 1.391 . S
C2133 H2121 0.950 . S
C2133 C2129 1.393 . S
C2133 C2132 1.391 . S
C2134 H2124 0.950 . S
C2134 C2135 1.386 . S
C2134 C2136 1.391 . S
C2135 C2134 1.386 . S
C2135 C2139 1.393 . S
C2136 H2125 0.950 . S
C2136 C2134 1.391 . S
C2136 C2137 1.400 . S
C2137 C2131 1.491 . S
C2137 C2136 1.400 . S
C2137 C2138 1.398 . S
C2138 H2126 0.950 . S
C2138 C2137 1.398 . S
C2138 C2139 1.391 . S
C2139 H2127 0.950 . S
C2139 C2135 1.393 . S
C2139 C2138 1.391 . S
H2140 C2148 0.950 . S
H2141 C2153 0.950 . S
H2142 C2150 0.950 . S
H2143 C2152 0.950 . S
H2144 C2154 0.950 . S
H2145 C2156 0.950 . S
H2146 C2158 0.950 . S
H2147 C2159 0.950 . S
C2148 H2140 0.950 . S
C2148 C2149 1.386 . S
C2148 C2150 1.391 . S
C2149 C2148 1.386 . S
C2149 C2153 1.393 . S
C2150 H2142 0.950 . S
C2150 C2148 1.391 . S
C2150 C2151 1.400 . S
C2151 C2150 1.400 . S
C2151 C2152 1.398 . S
C2151 C2157 1.491 . S
C2152 H2143 0.950 . S
C2152 C2151 1.398 . S
C2152 C2153 1.391 . S
C2153 H2141 0.950 . S
C2153 C2149 1.393 . S
C2153 C2152 1.391 . S
C2154 H2144 0.950 . S
C2154 C2155 1.386 . S
C2154 C2156 1.391 . S
C2155 C2154 1.386 . S
C2155 C2159 1.393 . S
C2156 H2145 0.950 . S
C2156 C2154 1.391 . S
C2156 C2157 1.400 . S
C2157 C2151 1.491 . S
C2157 C2156 1.400 . S
C2157 C2158 1.398 . S
C2158 H2146 0.950 . S
C2158 C2157 1.398 . S
C2158 C2159 1.391 . S
C2159 H2147 0.950 . S
C2159 C2155 1.393 . S
C2159 C2158 1.391 . S
H2160 C2168 0.950 . S
H2161 C2173 0.950 . S
H2162 C2170 0.950 . S
H2163 C2172 0.950 . S
H2164 C2174 0.950 . S
H2165 C2176 0.950 . S
H2166 C2178 0.950 . S
H2167 C2179 0.950 . S
C2168 H2160 0.950 . S
C2168 C2169 1.386 . S
C2168 C2170 1.391 . S
C2169 C2168 1.386 . S
C2169 C2173 1.393 . S
C2170 H2162 0.950 . S
C2170 C2168 1.391 . S
C2170 C2171 1.400 . S
C2171 C2170 1.400 . S
C2171 C2172 1.398 . S
C2171 C2177 1.491 . S
C2172 H2163 0.950 . S
C2172 C2171 1.398 . S
C2172 C2173 1.391 . S
C2173 H2161 0.950 . S
C2173 C2169 1.393 . S
C2173 C2172 1.391 . S
C2174 H2164 0.950 . S
C2174 C2175 1.386 . S
C2174 C2176 1.391 . S
C2175 C2174 1.386 . S
C2175 C2179 1.393 . S
C2176 H2165 0.950 . S
C2176 C2174 1.391 . S
C2176 C2177 1.400 . S
C2177 C2171 1.491 . S
C2177 C2176 1.400 . S
C2177 C2178 1.398 . S
C2178 H2166 0.950 . S
C2178 C2177 1.398 . S
C2178 C2179 1.391 . S
C2179 H2167 0.950 . S
C2179 C2175 1.393 . S
C2179 C2178 1.391 . S
H2180 C2188 0.950 . S
H2181 C2193 0.950 . S
H2182 C2190 0.950 . S
H2183 C2192 0.950 . S
H2184 C2194 0.950 . S
H2185 C2196 0.950 . S
H2186 C2198 0.950 . S
H2187 C2199 0.950 . S
C2188 H2180 0.950 . S
C2188 C2189 1.386 . S
C2188 C2190 1.391 . S
C2189 C2188 1.386 . S
C2189 C2193 1.393 . S
C2190 H2182 0.950 . S
C2190 C2188 1.391 . S
C2190 C2191 1.400 . S
C2191 C2190 1.400 . S
C2191 C2192 1.398 . S
C2191 C2197 1.491 . S
C2192 H2183 0.950 . S
C2192 C2191 1.398 . S
C2192 C2193 1.391 . S
C2193 H2181 0.950 . S
C2193 C2189 1.393 . S
C2193 C2192 1.391 . S
C2194 H2184 0.950 . S
C2194 C2195 1.386 . S
C2194 C2196 1.391 . S
C2195 C2194 1.386 . S
C2195 C2199 1.393 . S
C2196 H2185 0.950 . S
C2196 C2194 1.391 . S
C2196 C2197 1.400 . S
C2197 C2191 1.491 . S
C2197 C2196 1.400 . S
C2197 C2198 1.398 . S
C2198 H2186 0.950 . S
C2198 C2197 1.398 . S
C2198 C2199 1.391 . S
C2199 H2187 0.950 . S
C2199 C2195 1.393 . S
C2199 C2198 1.391 . S
H2200 C2208 0.950 . S
H2201 C2213 0.950 . S
H2202 C2210 0.950 . S
H2203 C2212 0.950 . S
H2204 C2214 0.950 . S
H2205 C2216 0.950 . S
H2206 C2218 0.950 . S
H2207 C2219 0.950 . S
C2208 H2200 0.950 . S
C2208 C2209 1.386 . S
C2208 C2210 1.391 . S
C2209 C2208 1.386 . S
C2209 C2213 1.393 . S
C2210 H2202 0.950 . S
C2210 C2208 1.391 . S
C2210 C2211 1.400 . S
C2211 C2210 1.400 . S
C2211 C2212 1.398 . S
C2211 C2217 1.491 . S
C2212 H2203 0.950 . S
C2212 C2211 1.398 . S
C2212 C2213 1.391 . S
C2213 H2201 0.950 . S
C2213 C2209 1.393 . S
C2213 C2212 1.391 . S
C2214 H2204 0.950 . S
C2214 C2215 1.386 . S
C2214 C2216 1.391 . S
C2215 C2214 1.386 . S
C2215 C2219 1.393 . S
C2216 H2205 0.950 . S
C2216 C2214 1.391 . S
C2216 C2217 1.400 . S
C2217 C2211 1.491 . S
C2217 C2216 1.400 . S
C2217 C2218 1.398 . S
C2218 H2206 0.950 . S
C2218 C2217 1.398 . S
C2218 C2219 1.391 . S
C2219 H2207 0.950 . S
C2219 C2215 1.393 . S
C2219 C2218 1.391 . S
H2220 C2228 0.950 . S
H2221 C2233 0.950 . S
H2222 C2230 0.950 . S
H2223 C2232 0.950 . S
H2224 C2234 0.927 1_455 S
H2225 C2236 0.950 . S
H2226 C2238 0.950 . S
H2227 C2239 0.950 . S
C2228 H2220 0.950 . S
C2228 C2229 1.386 . S
C2228 C2230 1.391 . S
C2229 C2228 1.386 . S
C2229 C2233 1.393 . S
C2230 H2222 0.950 . S
C2230 C2228 1.391 . S
C2230 C2231 1.400 . S
C2231 C2230 1.400 . S
C2231 C2232 1.398 . S
C2231 C2237 1.491 . S
C2232 H2223 0.950 . S
C2232 C2231 1.398 . S
C2232 C2233 1.391 . S
C2233 H2221 0.950 . S
C2233 C2229 1.393 . S
C2233 C2232 1.391 . S
C2234 H2224 0.927 1_655 S
C2234 C2235 1.375 1_655 S
C2234 C2236 1.391 . S
C2235 C2234 1.375 1_455 S
C2235 C2239 1.377 1_455 S
C2236 H2225 0.950 . S
C2236 C2234 1.391 . S
C2236 C2237 1.400 . S
C2237 C2231 1.491 . S
C2237 C2236 1.400 . S
C2237 C2238 1.398 . S
C2238 H2226 0.950 . S
C2238 C2237 1.398 . S
C2238 C2239 1.391 . S
C2239 H2227 0.950 . S
C2239 C2235 1.377 1_655 S
C2239 C2238 1.391 . S
H2240 C2248 0.950 . S
H2241 C2253 0.950 . S
H2242 C2250 0.950 . S
H2243 C2252 0.950 . S
H2244 C2254 0.950 . S
H2245 C2256 0.950 . S
H2246 C2258 0.950 . S
H2247 C2259 0.950 . S
C2248 H2240 0.950 . S
C2248 C2249 1.386 . S
C2248 C2250 1.391 . S
C2249 C2248 1.386 . S
C2249 C2253 1.393 . S
C2250 H2242 0.950 . S
C2250 C2248 1.391 . S
C2250 C2251 1.400 . S
C2251 C2250 1.400 . S
C2251 C2252 1.398 . S
C2251 C2257 1.491 . S
C2252 H2243 0.950 . S
C2252 C2251 1.398 . S
C2252 C2253 1.391 . S
C2253 H2241 0.950 . S
C2253 C2249 1.393 . S
C2253 C2252 1.391 . S
C2254 H2244 0.950 . S
C2254 C2255 1.386 . S
C2254 C2256 1.391 . S
C2255 C2254 1.386 . S
C2255 C2259 1.393 . S
C2256 H2245 0.950 . S
C2256 C2254 1.391 . S
C2256 C2257 1.400 . S
C2257 C2251 1.491 . S
C2257 C2256 1.400 . S
C2257 C2258 1.398 . S
C2258 H2246 0.950 . S
C2258 C2257 1.398 . S
C2258 C2259 1.391 . S
C2259 H2247 0.950 . S
C2259 C2255 1.393 . S
C2259 C2258 1.391 . S
H2260 C2268 0.950 . S
H2261 C2273 0.950 . S
H2262 C2270 0.950 . S
H2263 C2272 0.950 . S
H2264 C2274 0.950 . S
H2265 C2276 0.950 . S
H2266 C2278 0.950 . S
H2267 C2279 0.950 . S
C2268 H2260 0.950 . S
C2268 C2269 1.386 . S
C2268 C2270 1.391 . S
C2269 C2268 1.386 . S
C2269 C2273 1.393 . S
C2270 H2262 0.950 . S
C2270 C2268 1.391 . S
C2270 C2271 1.400 . S
C2271 C2270 1.400 . S
C2271 C2272 1.398 . S
C2271 C2277 1.491 . S
C2272 H2263 0.950 . S
C2272 C2271 1.398 . S
C2272 C2273 1.391 . S
C2273 H2261 0.950 . S
C2273 C2269 1.393 . S
C2273 C2272 1.391 . S
C2274 H2264 0.950 . S
C2274 C2275 1.386 . S
C2274 C2276 1.391 . S
C2275 C2274 1.386 . S
C2275 C2279 1.393 . S
C2276 H2265 0.950 . S
C2276 C2274 1.391 . S
C2276 C2277 1.400 . S
C2277 C2271 1.491 . S
C2277 C2276 1.400 . S
C2277 C2278 1.398 . S
C2278 H2266 0.950 . S
C2278 C2277 1.398 . S
C2278 C2279 1.391 . S
C2279 H2267 0.950 . S
C2279 C2275 1.393 . S
C2279 C2278 1.391 . S
H2280 C2288 0.950 . S
H2281 C2293 0.950 . S
H2282 C2290 0.950 . S
H2283 C2292 0.950 . S
H2284 C2294 0.950 . S
H2285 C2296 0.950 . S
H2286 C2298 0.950 . S
H2287 C2299 0.950 . S
C2288 H2280 0.950 . S
C2288 C2289 1.386 . S
C2288 C2290 1.391 . S
C2289 C2288 1.386 . S
C2289 C2293 1.393 . S
C2290 H2282 0.950 . S
C2290 C2288 1.391 . S
C2290 C2291 1.400 . S
C2291 C2290 1.400 . S
C2291 C2292 1.398 . S
C2291 C2297 1.491 . S
C2292 H2283 0.950 . S
C2292 C2291 1.398 . S
C2292 C2293 1.391 . S
C2293 H2281 0.950 . S
C2293 C2289 1.393 . S
C2293 C2292 1.391 . S
C2294 H2284 0.950 . S
C2294 C2295 1.386 . S
C2294 C2296 1.391 . S
C2295 C2294 1.386 . S
C2295 C2299 1.393 . S
C2296 H2285 0.950 . S
C2296 C2294 1.391 . S
C2296 C2297 1.400 . S
C2297 C2291 1.491 . S
C2297 C2296 1.400 . S
C2297 C2298 1.398 . S
C2298 H2286 0.950 . S
C2298 C2297 1.398 . S
C2298 C2299 1.391 . S
C2299 H2287 0.950 . S
C2299 C2295 1.393 . S
C2299 C2298 1.391 . S
H2300 C2308 0.950 . S
H2301 C2313 0.950 . S
H2302 C2310 0.950 . S
H2303 C2312 0.950 . S
H2304 C2314 0.950 . S
H2305 C2316 0.950 . S
H2306 C2318 0.950 . S
H2307 C2319 0.950 1_455 S
C2308 H2300 0.950 . S
C2308 C2309 1.386 . S
C2308 C2310 1.391 . S
C2309 C2308 1.386 . S
C2309 C2313 1.393 . S
C2310 H2302 0.950 . S
C2310 C2308 1.391 . S
C2310 C2311 1.400 . S
C2311 C2310 1.400 . S
C2311 C2312 1.398 . S
C2311 C2317 1.491 . S
C2312 H2303 0.950 . S
C2312 C2311 1.398 . S
C2312 C2313 1.391 . S
C2313 H2301 0.950 . S
C2313 C2309 1.393 . S
C2313 C2312 1.391 . S
C2314 H2304 0.950 . S
C2314 C2315 1.384 . S
C2314 C2316 1.391 . S
C2315 C2314 1.384 . S
C2315 C2319 1.393 . S
C2316 H2305 0.950 . S
C2316 C2314 1.391 . S
C2316 C2317 1.400 . S
C2317 C2311 1.491 . S
C2317 C2316 1.400 . S
C2317 C2318 1.398 . S
C2318 H2306 0.950 . S
C2318 C2317 1.398 . S
C2318 C2319 1.391 . S
C2319 H2307 0.950 1_655 S
C2319 C2315 1.393 . S
C2319 C2318 1.391 . S
H2320 C2328 0.950 . S
H2321 C2333 0.950 . S
H2322 C2330 0.950 . S
H2323 C2332 0.950 . S
H2324 C2334 0.950 . S
H2325 C2336 0.950 . S
H2326 C2338 0.950 . S
H2327 C2339 0.950 . S
C2328 H2320 0.950 . S
C2328 C2329 1.386 . S
C2328 C2330 1.391 . S
C2329 C2328 1.386 . S
C2329 C2333 1.393 . S
C2330 H2322 0.950 . S
C2330 C2328 1.391 . S
C2330 C2331 1.400 . S
C2331 C2330 1.400 . S
C2331 C2332 1.398 . S
C2331 C2337 1.491 . S
C2332 H2323 0.950 . S
C2332 C2331 1.398 . S
C2332 C2333 1.391 . S
C2333 H2321 0.950 . S
C2333 C2329 1.393 . S
C2333 C2332 1.391 . S
C2334 H2324 0.950 . S
C2334 C2335 1.386 . S
C2334 C2336 1.391 . S
C2335 C2334 1.386 . S
C2335 C2339 1.393 . S
C2336 H2325 0.950 . S
C2336 C2334 1.391 . S
C2336 C2337 1.400 . S
C2337 C2331 1.491 . S
C2337 C2336 1.400 . S
C2337 C2338 1.398 . S
C2338 H2326 0.950 . S
C2338 C2337 1.398 . S
C2338 C2339 1.391 . S
C2339 H2327 0.950 . S
C2339 C2335 1.393 . S
C2339 C2338 1.391 . S
H2340 C2348 0.950 . S
H2341 C2353 0.950 . S
H2342 C2350 0.950 . S
H2343 C2352 0.950 . S
H2344 C2354 0.930 1_455 S
H2345 C2356 0.950 . S
H2346 C2358 0.950 . S
H2347 C2359 0.950 . S
C2348 H2340 0.950 . S
C2348 C2349 1.386 . S
C2348 C2350 1.391 . S
C2349 C2348 1.386 . S
C2349 C2353 1.393 . S
C2350 H2342 0.950 . S
C2350 C2348 1.391 . S
C2350 C2351 1.400 . S
C2351 C2350 1.400 . S
C2351 C2352 1.398 . S
C2351 C2357 1.491 . S
C2352 H2343 0.950 . S
C2352 C2351 1.398 . S
C2352 C2353 1.391 . S
C2353 H2341 0.950 . S
C2353 C2349 1.393 . S
C2353 C2352 1.391 . S
C2354 H2344 0.930 1_655 S
C2354 C2355 1.385 . S
C2354 C2356 1.412 . S
C2355 C2354 1.385 . S
C2355 C2359 1.392 . S
C2356 H2345 0.950 . S
C2356 C2354 1.412 . S
C2356 C2357 1.400 . S
C2357 C2351 1.491 . S
C2357 C2356 1.400 . S
C2357 C2358 1.398 . S
C2358 H2346 0.950 . S
C2358 C2357 1.398 . S
C2358 C2359 1.391 . S
C2359 H2347 0.950 . S
C2359 C2355 1.392 . S
C2359 C2358 1.391 . S
H2360 C2368 0.950 . S
H2361 C2373 0.950 . S
H2362 C2370 0.950 . S
H2363 C2372 0.950 . S
H2364 C2374 0.950 . S
H2365 C2376 0.950 . S
H2366 C2378 0.950 . S
H2367 C2379 0.950 . S
C2368 H2360 0.950 . S
C2368 C2369 1.386 . S
C2368 C2370 1.391 . S
C2369 C2368 1.386 . S
C2369 C2373 1.393 . S
C2370 H2362 0.950 . S
C2370 C2368 1.391 . S
C2370 C2371 1.400 . S
C2371 C2370 1.400 . S
C2371 C2372 1.398 . S
C2371 C2377 1.491 . S
C2372 H2363 0.950 . S
C2372 C2371 1.398 . S
C2372 C2373 1.391 . S
C2373 H2361 0.950 . S
C2373 C2369 1.393 . S
C2373 C2372 1.391 . S
C2374 H2364 0.950 . S
C2374 C2375 1.386 . S
C2374 C2376 1.391 . S
C2375 C2374 1.386 . S
C2375 C2379 1.393 . S
C2376 H2365 0.950 . S
C2376 C2374 1.391 . S
C2376 C2377 1.400 . S
C2377 C2371 1.491 . S
C2377 C2376 1.400 . S
C2377 C2378 1.398 . S
C2378 H2366 0.950 . S
C2378 C2377 1.398 . S
C2378 C2379 1.391 . S
C2379 H2367 0.950 . S
C2379 C2375 1.393 . S
C2379 C2378 1.391 . S
H2380 C2388 0.950 . S
H2381 C2393 0.950 . S
H2382 C2390 0.950 . S
H2383 C2392 0.950 . S
H2384 C2394 0.950 . S
H2385 C2396 0.950 . S
H2386 C2398 0.950 . S
H2387 C2399 0.950 . S
C2388 H2380 0.950 . S
C2388 C2389 1.386 . S
C2388 C2390 1.391 . S
C2389 C2388 1.386 . S
C2389 C2393 1.393 . S
C2390 H2382 0.950 . S
C2390 C2388 1.391 . S
C2390 C2391 1.400 . S
C2391 C2390 1.400 . S
C2391 C2392 1.398 . S
C2391 C2397 1.491 . S
C2392 H2383 0.950 . S
C2392 C2391 1.398 . S
C2392 C2393 1.391 . S
C2393 H2381 0.950 . S
C2393 C2389 1.393 . S
C2393 C2392 1.391 . S
C2394 H2384 0.950 . S
C2394 C2395 1.386 . S
C2394 C2396 1.391 . S
C2395 C2394 1.386 . S
C2395 C2399 1.393 . S
C2396 H2385 0.950 . S
C2396 C2394 1.391 . S
C2396 C2397 1.400 . S
C2397 C2391 1.491 . S
C2397 C2396 1.400 . S
C2397 C2398 1.398 . S
C2398 H2386 0.950 . S
C2398 C2397 1.398 . S
C2398 C2399 1.391 . S
C2399 H2387 0.950 . S
C2399 C2395 1.393 . S
C2399 C2398 1.391 . S
H2400 C2408 0.950 . S
H2401 C2413 0.950 . S
H2402 C2410 0.950 . S
H2403 C2412 0.950 . S
H2404 C2414 0.950 . S
H2405 C2416 0.950 . S
H2406 C2418 0.950 . S
H2407 C2419 0.950 . S
C2408 H2400 0.950 . S
C2408 C2409 1.386 . S
C2408 C2410 1.391 . S
C2409 C2408 1.386 . S
C2409 C2413 1.393 . S
C2410 H2402 0.950 . S
C2410 C2408 1.391 . S
C2410 C2411 1.400 . S
C2411 C2410 1.400 . S
C2411 C2412 1.398 . S
C2411 C2417 1.491 . S
C2412 H2403 0.950 . S
C2412 C2411 1.398 . S
C2412 C2413 1.391 . S
C2413 H2401 0.950 . S
C2413 C2409 1.393 . S
C2413 C2412 1.391 . S
C2414 H2404 0.950 . S
C2414 C2415 1.386 . S
C2414 C2416 1.391 . S
C2415 C2414 1.386 . S
C2415 C2419 1.393 . S
C2416 H2405 0.950 . S
C2416 C2414 1.391 . S
C2416 C2417 1.400 . S
C2417 C2411 1.491 . S
C2417 C2416 1.400 . S
C2417 C2418 1.398 . S
C2418 H2406 0.950 . S
C2418 C2417 1.398 . S
C2418 C2419 1.391 . S
C2419 H2407 0.950 . S
C2419 C2415 1.393 . S
C2419 C2418 1.391 . S
H2420 C2428 0.950 . S
H2421 C2433 0.950 . S
H2422 C2430 0.950 . S
H2423 C2432 0.950 . S
H2424 C2434 0.950 . S
H2425 C2436 0.950 . S
H2426 C2438 0.950 . S
H2427 C2439 0.950 . S
C2428 H2420 0.950 . S
C2428 C2429 1.386 . S
C2428 C2430 1.391 . S
C2429 C2428 1.386 . S
C2429 C2433 1.393 . S
C2430 H2422 0.950 . S
C2430 C2428 1.391 . S
C2430 C2431 1.400 . S
C2431 C2430 1.400 . S
C2431 C2432 1.398 . S
C2431 C2437 1.491 . S
C2432 H2423 0.950 . S
C2432 C2431 1.398 . S
C2432 C2433 1.391 . S
C2433 H2421 0.950 . S
C2433 C2429 1.393 . S
C2433 C2432 1.391 . S
C2434 H2424 0.950 . S
C2434 C2435 1.386 . S
C2434 C2436 1.391 . S
C2435 C2434 1.386 . S
C2435 C2439 1.393 . S
C2436 H2425 0.950 . S
C2436 C2434 1.391 . S
C2436 C2437 1.400 . S
C2437 C2431 1.491 . S
C2437 C2436 1.400 . S
C2437 C2438 1.398 . S
C2438 H2426 0.950 . S
C2438 C2437 1.398 . S
C2438 C2439 1.391 . S
C2439 H2427 0.950 . S
C2439 C2435 1.393 . S
C2439 C2438 1.391 . S
H2440 C2448 0.950 . S
H2441 C2453 0.950 . S
H2442 C2450 0.950 . S
H2443 C2452 0.950 . S
H2444 C2454 0.950 . S
H2445 C2456 0.950 . S
H2446 C2458 0.950 . S
H2447 C2459 0.950 . S
C2448 H2440 0.950 . S
C2448 C2449 1.386 . S
C2448 C2450 1.391 . S
C2449 C2448 1.386 . S
C2449 C2453 1.393 . S
C2450 H2442 0.950 . S
C2450 C2448 1.391 . S
C2450 C2451 1.400 . S
C2451 C2450 1.400 . S
C2451 C2452 1.398 . S
C2451 C2457 1.491 . S
C2452 H2443 0.950 . S
C2452 C2451 1.398 . S
C2452 C2453 1.391 . S
C2453 H2441 0.950 . S
C2453 C2449 1.393 . S
C2453 C2452 1.391 . S
C2454 H2444 0.950 . S
C2454 C2455 1.386 . S
C2454 C2456 1.391 . S
C2455 C2454 1.386 . S
C2455 C2459 1.393 . S
C2456 H2445 0.950 . S
C2456 C2454 1.391 . S
C2456 C2457 1.400 . S
C2457 C2451 1.491 . S
C2457 C2456 1.400 . S
C2457 C2458 1.398 . S
C2458 H2446 0.950 . S
C2458 C2457 1.398 . S
C2458 C2459 1.391 . S
C2459 H2447 0.950 . S
C2459 C2455 1.393 . S
C2459 C2458 1.391 . S
H2460 C2468 0.950 . S
H2461 C2473 0.950 1_655 S
H2462 C2470 0.950 . S
H2463 C2472 0.950 . S
H2464 C2474 0.950 . S
H2465 C2476 0.950 . S
H2466 C2478 0.950 . S
H2467 C2479 0.950 . S
C2468 H2460 0.950 . S
C2468 C2469 1.365 1_455 S
C2468 C2470 1.391 . S
C2469 C2468 1.365 1_655 S
C2469 C2473 1.391 1_655 S
C2470 H2462 0.950 . S
C2470 C2468 1.391 . S
C2470 C2471 1.400 . S
C2471 C2470 1.400 . S
C2471 C2472 1.398 . S
C2471 C2477 1.491 . S
C2472 H2463 0.950 . S
C2472 C2471 1.398 . S
C2472 C2473 1.391 . S
C2473 H2461 0.950 1_455 S
C2473 C2469 1.391 1_455 S
C2473 C2472 1.391 . S
C2474 H2464 0.950 . S
C2474 C2475 1.386 . S
C2474 C2476 1.391 . S
C2475 C2474 1.386 . S
C2475 C2479 1.393 . S
C2476 H2465 0.950 . S
C2476 C2474 1.391 . S
C2476 C2477 1.400 . S
C2477 C2471 1.491 . S
C2477 C2476 1.400 . S
C2477 C2478 1.398 . S
C2478 H2466 0.950 . S
C2478 C2477 1.398 . S
C2478 C2479 1.391 . S
C2479 H2467 0.950 . S
C2479 C2475 1.393 . S
C2479 C2478 1.391 . S
H2480 C2488 0.950 . S
H2481 C2493 0.950 . S
H2482 C2490 0.950 . S
H2483 C2492 0.950 . S
H2484 C2494 0.950 . S
H2485 C2496 0.950 . S
H2486 C2498 0.950 . S
H2487 C2499 0.950 . S
C2488 H2480 0.950 . S
C2488 C2489 1.386 . S
C2488 C2490 1.391 . S
C2489 C2488 1.386 . S
C2489 C2493 1.393 . S
C2490 H2482 0.950 . S
C2490 C2488 1.391 . S
C2490 C2491 1.400 . S
C2491 C2490 1.400 . S
C2491 C2492 1.398 . S
C2491 C2497 1.491 . S
C2492 H2483 0.950 . S
C2492 C2491 1.398 . S
C2492 C2493 1.391 . S
C2493 H2481 0.950 . S
C2493 C2489 1.393 . S
C2493 C2492 1.391 . S
C2494 H2484 0.950 . S
C2494 C2495 1.386 . S
C2494 C2496 1.391 . S
C2495 C2494 1.386 . S
C2495 C2499 1.393 . S
C2496 H2485 0.950 . S
C2496 C2494 1.391 . S
C2496 C2497 1.400 . S
C2497 C2491 1.491 . S
C2497 C2496 1.400 . S
C2497 C2498 1.398 . S
C2498 H2486 0.950 . S
C2498 C2497 1.398 . S
C2498 C2499 1.391 . S
C2499 H2487 0.950 . S
C2499 C2495 1.393 . S
C2499 C2498 1.391 . S
H2500 C2508 0.950 . S
H2501 C2513 0.950 . S
H2502 C2510 0.950 . S
H2503 C2512 0.950 . S
H2504 C2514 0.950 . S
H2505 C2516 0.950 . S
H2506 C2518 0.950 . S
H2507 C2519 0.950 1_655 S
C2508 H2500 0.950 . S
C2508 C2509 1.386 . S
C2508 C2510 1.391 . S
C2509 C2508 1.386 . S
C2509 C2513 1.393 . S
C2510 H2502 0.950 . S
C2510 C2508 1.391 . S
C2510 C2511 1.400 . S
C2511 C2510 1.400 . S
C2511 C2512 1.398 . S
C2511 C2517 1.491 . S
C2512 H2503 0.950 . S
C2512 C2511 1.398 . S
C2512 C2513 1.391 . S
C2513 H2501 0.950 . S
C2513 C2509 1.393 . S
C2513 C2512 1.391 . S
C2514 H2504 0.950 . S
C2514 C2515 1.366 1_455 S
C2514 C2516 1.391 . S
C2515 C2514 1.366 1_655 S
C2515 C2519 1.387 1_655 S
C2516 H2505 0.950 . S
C2516 C2514 1.391 . S
C2516 C2517 1.400 . S
C2517 C2511 1.491 . S
C2517 C2516 1.400 . S
C2517 C2518 1.398 . S
C2518 H2506 0.950 . S
C2518 C2517 1.398 . S
C2518 C2519 1.391 . S
C2519 H2507 0.950 1_455 S
C2519 C2515 1.387 1_455 S
C2519 C2518 1.391 . S
H2520 C2528 0.950 . S
H2521 C2533 0.950 . S
H2522 C2530 0.950 . S
H2523 C2532 0.950 . S
H2524 C2534 0.950 . S
H2525 C2536 0.950 . S
H2526 C2538 0.950 . S
H2527 C2539 0.950 . S
C2528 H2520 0.950 . S
C2528 C2529 1.386 . S
C2528 C2530 1.391 . S
C2529 C2528 1.386 . S
C2529 C2533 1.393 . S
C2530 H2522 0.950 . S
C2530 C2528 1.391 . S
C2530 C2531 1.400 . S
C2531 C2530 1.400 . S
C2531 C2532 1.398 . S
C2531 C2537 1.491 . S
C2532 H2523 0.950 . S
C2532 C2531 1.398 . S
C2532 C2533 1.391 . S
C2533 H2521 0.950 . S
C2533 C2529 1.393 . S
C2533 C2532 1.391 . S
C2534 H2524 0.950 . S
C2534 C2535 1.386 . S
C2534 C2536 1.391 . S
C2535 C2534 1.386 . S
C2535 C2539 1.393 . S
C2536 H2525 0.950 . S
C2536 C2534 1.391 . S
C2536 C2537 1.400 . S
C2537 C2531 1.491 . S
C2537 C2536 1.400 . S
C2537 C2538 1.398 . S
C2538 H2526 0.950 . S
C2538 C2537 1.398 . S
C2538 C2539 1.391 . S
C2539 H2527 0.950 . S
C2539 C2535 1.393 . S
C2539 C2538 1.391 . S
H2540 C2548 0.950 . S
H2541 C2553 0.950 . S
H2542 C2550 0.950 . S
H2543 C2552 0.950 . S
H2544 C2554 0.950 . S
H2545 C2556 0.950 . S
H2546 C2558 0.950 . S
H2547 C2559 0.950 . S
C2548 H2540 0.950 . S
C2548 C2549 1.386 . S
C2548 C2550 1.391 . S
C2549 C2548 1.386 . S
C2549 C2553 1.393 . S
C2550 H2542 0.950 . S
C2550 C2548 1.391 . S
C2550 C2551 1.400 . S
C2551 C2550 1.400 . S
C2551 C2552 1.398 . S
C2551 C2557 1.491 . S
C2552 H2543 0.950 . S
C2552 C2551 1.398 . S
C2552 C2553 1.391 . S
C2553 H2541 0.950 . S
C2553 C2549 1.393 . S
C2553 C2552 1.391 . S
C2554 H2544 0.950 . S
C2554 C2555 1.386 . S
C2554 C2556 1.391 . S
C2555 C2554 1.386 . S
C2555 C2559 1.393 . S
C2556 H2545 0.950 . S
C2556 C2554 1.391 . S
C2556 C2557 1.400 . S
C2557 C2551 1.491 . S
C2557 C2556 1.400 . S
C2557 C2558 1.398 . S
C2558 H2546 0.950 . S
C2558 C2557 1.398 . S
C2558 C2559 1.391 . S
C2559 H2547 0.950 . S
C2559 C2555 1.393 . S
C2559 C2558 1.391 . S
H2560 C2568 0.950 . S
H2561 C2573 0.950 . S
H2562 C2570 0.950 . S
H2563 C2572 0.950 . S
H2564 C2574 0.950 . S
H2565 C2576 0.950 . S
H2566 C2578 0.950 . S
H2567 C2579 0.950 . S
C2568 H2560 0.950 . S
C2568 C2569 1.386 . S
C2568 C2570 1.391 . S
C2569 C2568 1.386 . S
C2569 C2573 1.393 . S
C2570 H2562 0.950 . S
C2570 C2568 1.391 . S
C2570 C2571 1.400 . S
C2571 C2570 1.400 . S
C2571 C2572 1.398 . S
C2571 C2577 1.491 1_545 S
C2572 H2563 0.950 . S
C2572 C2571 1.398 . S
C2572 C2573 1.391 . S
C2573 H2561 0.950 . S
C2573 C2569 1.393 . S
C2573 C2572 1.391 . S
C2574 H2564 0.950 . S
C2574 C2575 1.386 . S
C2574 C2576 1.391 . S
C2575 C2574 1.386 . S
C2575 C2579 1.393 . S
C2576 H2565 0.950 . S
C2576 C2574 1.391 . S
C2576 C2577 1.400 . S
C2577 C2571 1.491 1_565 S
C2577 C2576 1.400 . S
C2577 C2578 1.398 . S
C2578 H2566 0.950 . S
C2578 C2577 1.398 . S
C2578 C2579 1.391 . S
C2579 H2567 0.950 . S
C2579 C2575 1.393 . S
C2579 C2578 1.391 . S
H2580 C2588 0.950 . S
H2581 C2593 0.950 . S
H2582 C2590 0.950 . S
H2583 C2592 0.950 . S
H2584 C2594 0.950 . S
H2585 C2596 0.950 . S
H2586 C2598 0.950 . S
H2587 C2599 0.950 . S
C2588 H2580 0.950 . S
C2588 C2589 1.386 . S
C2588 C2590 1.391 . S
C2589 C2588 1.386 . S
C2589 C2593 1.393 . S
C2590 H2582 0.950 . S
C2590 C2588 1.391 . S
C2590 C2591 1.400 . S
C2591 C2590 1.400 . S
C2591 C2592 1.398 . S
C2591 C2597 1.491 . S
C2592 H2583 0.950 . S
C2592 C2591 1.398 . S
C2592 C2593 1.391 . S
C2593 H2581 0.950 . S
C2593 C2589 1.393 . S
C2593 C2592 1.391 . S
C2594 H2584 0.950 . S
C2594 C2595 1.386 . S
C2594 C2596 1.391 . S
C2595 C2594 1.386 . S
C2595 C2599 1.393 . S
C2596 H2585 0.950 . S
C2596 C2594 1.391 . S
C2596 C2597 1.400 . S
C2597 C2591 1.491 . S
C2597 C2596 1.400 . S
C2597 C2598 1.398 . S
C2598 H2586 0.950 . S
C2598 C2597 1.398 . S
C2598 C2599 1.391 . S
C2599 H2587 0.950 . S
C2599 C2595 1.393 . S
C2599 C2598 1.391 . S
H2600 C2608 0.950 . S
H2601 C2613 0.950 . S
H2602 C2610 0.950 . S
H2603 C2612 0.950 . S
H2604 C2614 0.950 . S
H2605 C2616 0.950 . S
H2606 C2618 0.950 . S
H2607 C2619 0.950 . S
C2608 H2600 0.950 . S
C2608 C2609 1.386 . S
C2608 C2610 1.391 . S
C2609 C2608 1.386 . S
C2609 C2613 1.393 . S
C2610 H2602 0.950 . S
C2610 C2608 1.391 . S
C2610 C2611 1.400 . S
C2611 C2610 1.400 . S
C2611 C2612 1.398 . S
C2611 C2617 1.491 1_565 S
C2612 H2603 0.950 . S
C2612 C2611 1.398 . S
C2612 C2613 1.391 . S
C2613 H2601 0.950 . S
C2613 C2609 1.393 . S
C2613 C2612 1.391 . S
C2614 H2604 0.950 . S
C2614 C2615 1.386 . S
C2614 C2616 1.391 . S
C2615 C2614 1.386 . S
C2615 C2619 1.393 . S
C2616 H2605 0.950 . S
C2616 C2614 1.391 . S
C2616 C2617 1.400 . S
C2617 C2611 1.491 1_545 S
C2617 C2616 1.400 . S
C2617 C2618 1.398 . S
C2618 H2606 0.950 . S
C2618 C2617 1.398 . S
C2618 C2619 1.391 . S
C2619 H2607 0.950 . S
C2619 C2615 1.393 . S
C2619 C2618 1.391 . S
H2620 C2628 0.950 . S
H2621 C2633 0.950 . S
H2622 C2630 0.950 . S
H2623 C2632 0.950 . S
H2624 C2634 0.950 . S
H2625 C2636 0.950 . S
H2626 C2638 0.950 . S
H2627 C2639 0.950 . S
C2628 H2620 0.950 . S
C2628 C2629 1.386 . S
C2628 C2630 1.391 . S
C2629 C2628 1.386 . S
C2629 C2633 1.393 1_556 S
C2630 H2622 0.950 . S
C2630 C2628 1.391 . S
C2630 C2631 1.429 . S
C2631 C2630 1.429 . S
C2631 C2632 1.373 1_556 S
C2631 C2637 1.488 1_556 S
C2632 H2623 0.950 . S
C2632 C2631 1.373 1_554 S
C2632 C2633 1.391 . S
C2633 H2621 0.950 . S
C2633 C2629 1.393 1_554 S
C2633 C2632 1.391 . S
C2634 H2624 0.950 . S
C2634 C2635 1.386 . S
C2634 C2636 1.391 . S
C2635 C2634 1.386 . S
C2635 C2639 1.393 1_554 S
C2636 H2625 0.950 . S
C2636 C2634 1.391 . S
C2636 C2637 1.429 . S
C2637 C2631 1.488 1_554 S
C2637 C2636 1.429 . S
C2637 C2638 1.373 1_554 S
C2638 H2626 0.950 . S
C2638 C2637 1.373 1_556 S
C2638 C2639 1.391 . S
C2639 H2627 0.950 . S
C2639 C2635 1.393 1_556 S
C2639 C2638 1.391 . S
H2640 C2648 0.950 . S
H2641 C2653 0.950 . S
H2642 C2650 0.950 . S
H2643 C2652 0.950 . S
H2644 C2654 0.950 . S
H2645 C2656 0.950 . S
H2646 C2658 0.950 . S
H2647 C2659 0.950 . S
C2648 H2640 0.950 . S
C2648 C2649 1.386 . S
C2648 C2650 1.391 . S
C2649 C2648 1.386 . S
C2649 C2653 1.393 . S
C2650 H2642 0.950 . S
C2650 C2648 1.391 . S
C2650 C2651 1.400 . S
C2651 C2650 1.400 . S
C2651 C2652 1.398 . S
C2651 C2657 1.491 1_545 S
C2652 H2643 0.950 . S
C2652 C2651 1.398 . S
C2652 C2653 1.391 . S
C2653 H2641 0.950 . S
C2653 C2649 1.393 . S
C2653 C2652 1.391 . S
C2654 H2644 0.950 . S
C2654 C2655 1.386 . S
C2654 C2656 1.391 . S
C2655 C2654 1.386 . S
C2655 C2659 1.393 . S
C2656 H2645 0.950 . S
C2656 C2654 1.391 . S
C2656 C2657 1.400 . S
C2657 C2651 1.491 1_565 S
C2657 C2656 1.400 . S
C2657 C2658 1.398 . S
C2658 H2646 0.950 . S
C2658 C2657 1.398 . S
C2658 C2659 1.391 . S
C2659 H2647 0.950 . S
C2659 C2655 1.393 . S
C2659 C2658 1.391 . S
H2660 C2668 0.950 . S
H2661 C2673 0.950 . S
H2662 C2670 0.950 . S
H2663 C2672 0.950 . S
H2664 C2674 0.950 . S
H2665 C2676 0.950 . S
H2666 C2678 0.950 . S
H2667 C2679 0.950 . S
C2668 H2660 0.950 . S
C2668 C2669 1.386 . S
C2668 C2670 1.391 . S
C2669 C2668 1.386 . S
C2669 C2673 1.393 . S
C2670 H2662 0.950 . S
C2670 C2668 1.391 . S
C2670 C2671 1.400 . S
C2671 C2670 1.400 . S
C2671 C2672 1.398 . S
C2671 C2677 1.491 . S
C2672 H2663 0.950 . S
C2672 C2671 1.398 . S
C2672 C2673 1.391 . S
C2673 H2661 0.950 . S
C2673 C2669 1.393 . S
C2673 C2672 1.391 . S
C2674 H2664 0.950 . S
C2674 C2675 1.386 . S
C2674 C2676 1.391 . S
C2675 C2674 1.386 . S
C2675 C2679 1.393 . S
C2676 H2665 0.950 . S
C2676 C2674 1.391 . S
C2676 C2677 1.400 . S
C2677 C2671 1.491 . S
C2677 C2676 1.400 . S
C2677 C2678 1.398 . S
C2678 H2666 0.950 . S
C2678 C2677 1.398 . S
C2678 C2679 1.391 . S
C2679 H2667 0.950 . S
C2679 C2675 1.393 . S
C2679 C2678 1.391 . S
H2680 C2688 0.950 . S
H2681 C2693 0.950 . S
H2682 C2690 0.950 . S
H2683 C2692 0.950 . S
H2684 C2694 0.950 . S
H2685 C2696 0.950 . S
H2686 C2698 0.950 . S
H2687 C2699 0.950 . S
C2688 H2680 0.950 . S
C2688 C2689 1.386 . S
C2688 C2690 1.391 . S
C2689 C2688 1.386 . S
C2689 C2693 1.393 . S
C2690 H2682 0.950 . S
C2690 C2688 1.391 . S
C2690 C2691 1.400 . S
C2691 C2690 1.400 . S
C2691 C2692 1.398 . S
C2691 C2697 1.491 1_545 S
C2692 H2683 0.950 . S
C2692 C2691 1.398 . S
C2692 C2693 1.391 . S
C2693 H2681 0.950 . S
C2693 C2689 1.393 . S
C2693 C2692 1.391 . S
C2694 H2684 0.950 . S
C2694 C2695 1.386 . S
C2694 C2696 1.391 . S
C2695 C2694 1.386 . S
C2695 C2699 1.393 . S
C2696 H2685 0.950 . S
C2696 C2694 1.391 . S
C2696 C2697 1.400 . S
C2697 C2691 1.491 1_565 S
C2697 C2696 1.400 . S
C2697 C2698 1.398 . S
C2698 H2686 0.950 . S
C2698 C2697 1.398 . S
C2698 C2699 1.391 . S
C2699 H2687 0.950 . S
C2699 C2695 1.393 . S
C2699 C2698 1.391 . S
H2700 C2708 0.950 . S
H2701 C2713 0.950 . S
H2702 C2710 0.950 . S
H2703 C2712 0.950 . S
H2704 C2714 0.950 . S
H2705 C2716 0.950 . S
H2706 C2718 0.950 . S
H2707 C2719 0.950 . S
C2708 H2700 0.950 . S
C2708 C2709 1.386 1_554 S
C2708 C2710 1.391 . S
C2709 C2708 1.386 1_556 S
C2709 C2713 1.393 . S
C2710 H2702 0.950 . S
C2710 C2708 1.391 . S
C2710 C2711 1.400 1_554 S
C2711 C2710 1.400 1_556 S
C2711 C2712 1.399 . S
C2711 C2717 1.491 1_556 S
C2712 H2703 0.950 . S
C2712 C2711 1.399 . S
C2712 C2713 1.391 . S
C2713 H2701 0.950 . S
C2713 C2709 1.393 . S
C2713 C2712 1.391 . S
C2714 H2704 0.950 . S
C2714 C2715 1.386 1_556 S
C2714 C2716 1.391 . S
C2715 C2714 1.386 1_554 S
C2715 C2719 1.393 . S
C2716 H2705 0.950 . S
C2716 C2714 1.391 . S
C2716 C2717 1.400 1_556 S
C2717 C2711 1.491 1_554 S
C2717 C2716 1.400 1_554 S
C2717 C2718 1.399 . S
C2718 H2706 0.950 . S
C2718 C2717 1.399 . S
C2718 C2719 1.391 . S
C2719 H2707 0.950 . S
C2719 C2715 1.393 . S
C2719 C2718 1.391 . S
H2720 C2728 0.950 . S
H2721 C2733 0.950 . S
H2722 C2730 0.950 . S
H2723 C2732 0.950 . S
H2724 C2734 0.950 . S
H2725 C2736 0.950 . S
H2726 C2738 0.950 . S
H2727 C2739 0.950 . S
C2728 H2720 0.950 . S
C2728 C2729 1.386 . S
C2728 C2730 1.391 . S
C2729 C2728 1.386 . S
C2729 C2733 1.393 . S
C2730 H2722 0.950 . S
C2730 C2728 1.391 . S
C2730 C2731 1.400 . S
C2731 C2730 1.400 . S
C2731 C2732 1.398 . S
C2731 C2737 1.491 . S
C2732 H2723 0.950 . S
C2732 C2731 1.398 . S
C2732 C2733 1.391 . S
C2733 H2721 0.950 . S
C2733 C2729 1.393 . S
C2733 C2732 1.391 . S
C2734 H2724 0.950 . S
C2734 C2735 1.386 . S
C2734 C2736 1.391 . S
C2735 C2734 1.386 . S
C2735 C2739 1.393 . S
C2736 H2725 0.950 . S
C2736 C2734 1.391 . S
C2736 C2737 1.400 . S
C2737 C2731 1.491 . S
C2737 C2736 1.400 . S
C2737 C2738 1.398 . S
C2738 H2726 0.950 . S
C2738 C2737 1.398 . S
C2738 C2739 1.391 . S
C2739 H2727 0.950 . S
C2739 C2735 1.393 . S
C2739 C2738 1.391 . S
H2740 C2748 0.950 . S
H2741 C2753 0.949 . S
H2742 C2750 0.950 . S
H2743 C2752 0.950 . S
H2744 C2754 0.950 . S
H2745 C2756 0.950 . S
H2746 C2758 0.950 . S
H2747 C2759 0.949 . S
C2748 H2740 0.950 . S
C2748 C2749 1.386 . S
C2748 C2750 1.391 . S
C2749 C2748 1.386 . S
C2749 C2753 1.392 1_556 S
C2750 H2742 0.950 . S
C2750 C2748 1.391 . S
C2750 C2751 1.400 . S
C2751 C2750 1.400 . S
C2751 C2752 1.398 1_556 S
C2751 C2757 1.491 1_556 S
C2752 H2743 0.950 . S
C2752 C2751 1.398 1_554 S
C2752 C2753 1.391 . S
C2753 H2741 0.949 . S
C2753 C2749 1.392 1_554 S
C2753 C2752 1.391 . S
C2754 H2744 0.950 . S
C2754 C2755 1.386 . S
C2754 C2756 1.391 . S
C2755 C2754 1.386 . S
C2755 C2759 1.392 1_554 S
C2756 H2745 0.950 . S
C2756 C2754 1.391 . S
C2756 C2757 1.400 . S
C2757 C2751 1.491 1_554 S
C2757 C2756 1.400 . S
C2757 C2758 1.398 1_554 S
C2758 H2746 0.950 . S
C2758 C2757 1.398 1_556 S
C2758 C2759 1.391 . S
C2759 H2747 0.949 . S
C2759 C2755 1.392 1_556 S
C2759 C2758 1.391 . S
H2760 C2768 0.950 . S
H2761 C2773 0.950 . S
H2762 C2770 0.950 . S
H2763 C2772 0.950 . S
H2764 C2774 0.950 . S
H2765 C2776 0.950 . S
H2766 C2778 0.950 . S
H2767 C2779 0.950 . S
C2768 H2760 0.950 . S
C2768 C2769 1.386 . S
C2768 C2770 1.391 . S
C2769 C2768 1.386 . S
C2769 C2773 1.393 . S
C2770 H2762 0.950 . S
C2770 C2768 1.391 . S
C2770 C2771 1.400 . S
C2771 C2770 1.400 . S
C2771 C2772 1.398 . S
C2771 C2777 1.491 . S
C2772 H2763 0.950 . S
C2772 C2771 1.398 . S
C2772 C2773 1.391 . S
C2773 H2761 0.950 . S
C2773 C2769 1.393 . S
C2773 C2772 1.391 . S
C2774 H2764 0.950 . S
C2774 C2775 1.386 . S
C2774 C2776 1.391 . S
C2775 C2774 1.386 . S
C2775 C2779 1.393 . S
C2776 H2765 0.950 . S
C2776 C2774 1.391 . S
C2776 C2777 1.400 . S
C2777 C2771 1.491 . S
C2777 C2776 1.400 . S
C2777 C2778 1.398 . S
C2778 H2766 0.950 . S
C2778 C2777 1.398 . S
C2778 C2779 1.391 . S
C2779 H2767 0.950 . S
C2779 C2775 1.393 . S
C2779 C2778 1.391 . S
H2780 C2788 0.950 . S
H2781 C2793 0.950 . S
H2782 C2790 0.950 . S
H2783 C2792 0.950 . S
H2784 C2794 0.950 . S
H2785 C2796 0.950 . S
H2786 C2798 0.950 . S
H2787 C2799 0.950 . S
C2788 H2780 0.950 . S
C2788 C2789 1.386 . S
C2788 C2790 1.391 . S
C2789 C2788 1.386 . S
C2789 C2793 1.393 . S
C2790 H2782 0.950 . S
C2790 C2788 1.391 . S
C2790 C2791 1.400 . S
C2791 C2790 1.400 . S
C2791 C2792 1.398 . S
C2791 C2797 1.491 . S
C2792 H2783 0.950 . S
C2792 C2791 1.398 . S
C2792 C2793 1.391 . S
C2793 H2781 0.950 . S
C2793 C2789 1.393 . S
C2793 C2792 1.391 . S
C2794 H2784 0.950 . S
C2794 C2795 1.386 . S
C2794 C2796 1.391 . S
C2795 C2794 1.386 . S
C2795 C2799 1.393 . S
C2796 H2785 0.950 . S
C2796 C2794 1.391 . S
C2796 C2797 1.400 . S
C2797 C2791 1.491 . S
C2797 C2796 1.400 . S
C2797 C2798 1.398 . S
C2798 H2786 0.950 . S
C2798 C2797 1.398 . S
C2798 C2799 1.391 . S
C2799 H2787 0.950 . S
C2799 C2795 1.393 . S
C2799 C2798 1.391 . S
H2800 C2808 0.950 . S
H2801 C2813 0.950 . S
H2802 C2810 0.950 . S
H2803 C2812 0.950 . S
H2804 C2814 0.950 . S
H2805 C2816 0.950 . S
H2806 C2818 0.950 . S
H2807 C2819 0.950 . S
C2808 H2800 0.950 . S
C2808 C2809 1.386 . S
C2808 C2810 1.391 . S
C2809 C2808 1.386 . S
C2809 C2813 1.393 . S
C2810 H2802 0.950 . S
C2810 C2808 1.391 . S
C2810 C2811 1.400 . S
C2811 C2810 1.400 . S
C2811 C2812 1.398 . S
C2811 C2817 1.491 . S
C2812 H2803 0.950 . S
C2812 C2811 1.398 . S
C2812 C2813 1.391 . S
C2813 H2801 0.950 . S
C2813 C2809 1.393 . S
C2813 C2812 1.391 . S
C2814 H2804 0.950 . S
C2814 C2815 1.386 . S
C2814 C2816 1.391 . S
C2815 C2814 1.386 . S
C2815 C2819 1.393 . S
C2816 H2805 0.950 . S
C2816 C2814 1.391 . S
C2816 C2817 1.400 . S
C2817 C2811 1.491 . S
C2817 C2816 1.400 . S
C2817 C2818 1.398 . S
C2818 H2806 0.950 . S
C2818 C2817 1.398 . S
C2818 C2819 1.391 . S
C2819 H2807 0.950 . S
C2819 C2815 1.393 . S
C2819 C2818 1.391 . S
H2820 C2828 0.950 . S
H2821 C2833 0.950 . S
H2822 C2830 0.950 . S
H2823 C2832 0.950 . S
H2824 C2834 0.950 . S
H2825 C2836 0.950 . S
H2826 C2838 0.950 . S
H2827 C2839 0.950 . S
C2828 H2820 0.950 . S
C2828 C2829 1.386 . S
C2828 C2830 1.391 . S
C2829 C2828 1.386 . S
C2829 C2833 1.393 1_556 S
C2830 H2822 0.950 . S
C2830 C2828 1.391 . S
C2830 C2831 1.422 . S
C2831 C2830 1.422 . S
C2831 C2832 1.378 1_556 S
C2831 C2837 1.489 1_556 S
C2832 H2823 0.950 . S
C2832 C2831 1.378 1_554 S
C2832 C2833 1.391 . S
C2833 H2821 0.950 . S
C2833 C2829 1.393 1_554 S
C2833 C2832 1.391 . S
C2834 H2824 0.950 . S
C2834 C2835 1.386 . S
C2834 C2836 1.391 . S
C2835 C2834 1.386 . S
C2835 C2839 1.393 1_554 S
C2836 H2825 0.950 . S
C2836 C2834 1.391 . S
C2836 C2837 1.422 . S
C2837 C2831 1.489 1_554 S
C2837 C2836 1.422 . S
C2837 C2838 1.378 1_554 S
C2838 H2826 0.950 . S
C2838 C2837 1.378 1_556 S
C2838 C2839 1.391 . S
C2839 H2827 0.950 . S
C2839 C2835 1.393 1_556 S
C2839 C2838 1.391 . S
H2840 C2848 0.950 . S
H2841 C2853 0.950 . S
H2842 C2850 0.950 . S
H2843 C2852 0.950 . S
H2844 C2854 0.950 . S
H2845 C2856 0.950 . S
H2846 C2858 0.950 . S
H2847 C2859 0.950 . S
C2848 H2840 0.950 . S
C2848 C2849 1.386 . S
C2848 C2850 1.391 . S
C2849 C2848 1.386 . S
C2849 C2853 1.393 . S
C2850 H2842 0.950 . S
C2850 C2848 1.391 . S
C2850 C2851 1.400 . S
C2851 C2850 1.400 . S
C2851 C2852 1.398 . S
C2851 C2857 1.491 . S
C2852 H2843 0.950 . S
C2852 C2851 1.398 . S
C2852 C2853 1.391 . S
C2853 H2841 0.950 . S
C2853 C2849 1.393 . S
C2853 C2852 1.391 . S
C2854 H2844 0.950 . S
C2854 C2855 1.386 . S
C2854 C2856 1.391 . S
C2855 C2854 1.386 . S
C2855 C2859 1.393 . S
C2856 H2845 0.950 . S
C2856 C2854 1.391 . S
C2856 C2857 1.400 . S
C2857 C2851 1.491 . S
C2857 C2856 1.400 . S
C2857 C2858 1.398 . S
C2858 H2846 0.950 . S
C2858 C2857 1.398 . S
C2858 C2859 1.391 . S
C2859 H2847 0.950 . S
C2859 C2855 1.393 . S
C2859 C2858 1.391 . S
H2860 C2868 0.950 . S
H2861 C2873 0.950 . S
H2862 C2870 0.950 . S
H2863 C2872 0.950 . S
H2864 C2874 0.950 . S
H2865 C2876 0.950 . S
H2866 C2878 0.950 . S
H2867 C2879 0.950 . S
C2868 H2860 0.950 . S
C2868 C2869 1.386 . S
C2868 C2870 1.391 . S
C2869 C2868 1.386 . S
C2869 C2873 1.393 . S
C2870 H2862 0.950 . S
C2870 C2868 1.391 . S
C2870 C2871 1.400 . S
C2871 C2870 1.400 . S
C2871 C2872 1.398 . S
C2871 C2877 1.491 . S
C2872 H2863 0.950 . S
C2872 C2871 1.398 . S
C2872 C2873 1.391 . S
C2873 H2861 0.950 . S
C2873 C2869 1.393 . S
C2873 C2872 1.391 . S
C2874 H2864 0.950 . S
C2874 C2875 1.386 . S
C2874 C2876 1.391 . S
C2875 C2874 1.386 . S
C2875 C2879 1.393 . S
C2876 H2865 0.950 . S
C2876 C2874 1.391 . S
C2876 C2877 1.400 . S
C2877 C2871 1.491 . S
C2877 C2876 1.400 . S
C2877 C2878 1.398 . S
C2878 H2866 0.950 . S
C2878 C2877 1.398 . S
C2878 C2879 1.391 . S
C2879 H2867 0.950 . S
C2879 C2875 1.393 . S
C2879 C2878 1.391 . S
H2880 C2888 0.950 . S
H2881 C2893 0.950 . S
H2882 C2890 0.950 . S
H2883 C2892 0.950 . S
H2884 C2894 0.950 . S
H2885 C2896 0.950 . S
H2886 C2898 0.950 . S
H2887 C2899 0.950 . S
C2888 H2880 0.950 . S
C2888 C2889 1.386 . S
C2888 C2890 1.391 . S
C2889 C2888 1.386 . S
C2889 C2893 1.393 . S
C2890 H2882 0.950 . S
C2890 C2888 1.391 . S
C2890 C2891 1.400 . S
C2891 C2890 1.400 . S
C2891 C2892 1.398 . S
C2891 C2897 1.491 . S
C2892 H2883 0.950 . S
C2892 C2891 1.398 . S
C2892 C2893 1.391 . S
C2893 H2881 0.950 . S
C2893 C2889 1.393 . S
C2893 C2892 1.391 . S
C2894 H2884 0.950 . S
C2894 C2895 1.386 . S
C2894 C2896 1.391 . S
C2895 C2894 1.386 . S
C2895 C2899 1.393 . S
C2896 H2885 0.950 . S
C2896 C2894 1.391 . S
C2896 C2897 1.400 . S
C2897 C2891 1.491 . S
C2897 C2896 1.400 . S
C2897 C2898 1.398 . S
C2898 H2886 0.950 . S
C2898 C2897 1.398 . S
C2898 C2899 1.391 . S
C2899 H2887 0.950 . S
C2899 C2895 1.393 . S
C2899 C2898 1.391 . S
H2900 C2908 0.950 . S
H2901 C2913 0.950 . S
H2902 C2910 0.950 . S
H2903 C2912 0.950 . S
H2904 C2914 0.950 . S
H2905 C2916 0.950 . S
H2906 C2918 0.950 . S
H2907 C2919 0.950 . S
C2908 H2900 0.950 . S
C2908 C2909 1.386 . S
C2908 C2910 1.391 . S
C2909 C2908 1.386 . S
C2909 C2913 1.393 . S
C2910 H2902 0.950 . S
C2910 C2908 1.391 . S
C2910 C2911 1.400 . S
C2911 C2910 1.400 . S
C2911 C2912 1.398 . S
C2911 C2917 1.491 . S
C2912 H2903 0.950 . S
C2912 C2911 1.398 . S
C2912 C2913 1.391 . S
C2913 H2901 0.950 . S
C2913 C2909 1.393 . S
C2913 C2912 1.391 . S
C2914 H2904 0.950 . S
C2914 C2915 1.386 . S
C2914 C2916 1.391 . S
C2915 C2914 1.386 . S
C2915 C2919 1.393 . S
C2916 H2905 0.950 . S
C2916 C2914 1.391 . S
C2916 C2917 1.400 . S
C2917 C2911 1.491 . S
C2917 C2916 1.400 . S
C2917 C2918 1.398 . S
C2918 H2906 0.950 . S
C2918 C2917 1.398 . S
C2918 C2919 1.391 . S
C2919 H2907 0.950 . S
C2919 C2915 1.393 . S
C2919 C2918 1.391 . S
H2920 C2928 0.950 . S
H2921 C2933 0.950 . S
H2922 C2930 0.950 . S
H2923 C2932 0.950 . S
H2924 C2934 0.950 . S
H2925 C2936 0.950 . S
H2926 C2938 0.950 . S
H2927 C2939 0.950 . S
C2928 H2920 0.950 . S
C2928 C2929 1.386 . S
C2928 C2930 1.391 . S
C2929 C2928 1.386 . S
C2929 C2933 1.393 . S
C2930 H2922 0.950 . S
C2930 C2928 1.391 . S
C2930 C2931 1.400 . S
C2931 C2930 1.400 . S
C2931 C2932 1.398 . S
C2931 C2937 1.491 . S
C2932 H2923 0.950 . S
C2932 C2931 1.398 . S
C2932 C2933 1.391 . S
C2933 H2921 0.950 . S
C2933 C2929 1.393 . S
C2933 C2932 1.391 . S
C2934 H2924 0.950 . S
C2934 C2935 1.386 . S
C2934 C2936 1.391 . S
C2935 C2934 1.386 . S
C2935 C2939 1.393 . S
C2936 H2925 0.950 . S
C2936 C2934 1.391 . S
C2936 C2937 1.400 . S
C2937 C2931 1.491 . S
C2937 C2936 1.400 . S
C2937 C2938 1.398 . S
C2938 H2926 0.950 . S
C2938 C2937 1.398 . S
C2938 C2939 1.391 . S
C2939 H2927 0.950 . S
C2939 C2935 1.393 . S
C2939 C2938 1.391 . S
H2940 C2948 0.950 . S
H2941 C2953 0.950 . S
H2942 C2950 0.950 . S
H2943 C2952 0.950 . S
H2944 C2954 0.950 . S
H2945 C2956 0.950 . S
H2946 C2958 0.950 . S
H2947 C2959 0.950 . S
C2948 H2940 0.950 . S
C2948 C2949 1.386 . S
C2948 C2950 1.391 . S
C2949 C2948 1.386 . S
C2949 C2953 1.393 . S
C2950 H2942 0.950 . S
C2950 C2948 1.391 . S
C2950 C2951 1.400 . S
C2951 C2950 1.400 . S
C2951 C2952 1.398 . S
C2951 C2957 1.491 . S
C2952 H2943 0.950 . S
C2952 C2951 1.398 . S
C2952 C2953 1.391 . S
C2953 H2941 0.950 . S
C2953 C2949 1.393 . S
C2953 C2952 1.391 . S
C2954 H2944 0.950 . S
C2954 C2955 1.386 . S
C2954 C2956 1.391 . S
C2955 C2954 1.386 . S
C2955 C2959 1.393 . S
C2956 H2945 0.950 . S
C2956 C2954 1.391 . S
C2956 C2957 1.400 . S
C2957 C2951 1.491 . S
C2957 C2956 1.400 . S
C2957 C2958 1.398 . S
C2958 H2946 0.950 . S
C2958 C2957 1.398 . S
C2958 C2959 1.391 . S
C2959 H2947 0.950 . S
C2959 C2955 1.393 . S
C2959 C2958 1.391 . S
H2960 C2968 0.950 . S
H2961 C2973 0.950 . S
H2962 C2970 0.950 . S
H2963 C2972 0.950 . S
H2964 C2974 0.950 . S
H2965 C2976 0.950 . S
H2966 C2978 0.950 . S
H2967 C2979 0.950 . S
C2968 H2960 0.950 . S
C2968 C2969 1.386 . S
C2968 C2970 1.391 . S
C2969 C2968 1.386 . S
C2969 C2973 1.393 . S
C2970 H2962 0.950 . S
C2970 C2968 1.391 . S
C2970 C2971 1.400 . S
C2971 C2970 1.400 . S
C2971 C2972 1.398 . S
C2971 C2977 1.491 . S
C2972 H2963 0.950 . S
C2972 C2971 1.398 . S
C2972 C2973 1.391 . S
C2973 H2961 0.950 . S
C2973 C2969 1.393 . S
C2973 C2972 1.391 . S
C2974 H2964 0.950 . S
C2974 C2975 1.386 . S
C2974 C2976 1.391 . S
C2975 C2974 1.386 . S
C2975 C2979 1.393 . S
C2976 H2965 0.950 . S
C2976 C2974 1.391 . S
C2976 C2977 1.400 . S
C2977 C2971 1.491 . S
C2977 C2976 1.400 . S
C2977 C2978 1.398 . S
C2978 H2966 0.950 . S
C2978 C2977 1.398 . S
C2978 C2979 1.391 . S
C2979 H2967 0.950 . S
C2979 C2975 1.393 . S
C2979 C2978 1.391 . S
H2980 C2988 0.950 . S
H2981 C2993 0.950 . S
H2982 C2990 0.950 . S
H2983 C2992 0.950 . S
H2984 C2994 0.950 . S
H2985 C2996 0.950 . S
H2986 C2998 0.950 . S
H2987 C2999 0.950 . S
C2988 H2980 0.950 . S
C2988 C2989 1.386 . S
C2988 C2990 1.391 . S
C2989 C2988 1.386 . S
C2989 C2993 1.393 . S
C2990 H2982 0.950 . S
C2990 C2988 1.391 . S
C2990 C2991 1.400 . S
C2991 C2990 1.400 . S
C2991 C2992 1.398 . S
C2991 C2997 1.491 . S
C2992 H2983 0.950 . S
C2992 C2991 1.398 . S
C2992 C2993 1.391 . S
C2993 H2981 0.950 . S
C2993 C2989 1.393 . S
C2993 C2992 1.391 . S
C2994 H2984 0.950 . S
C2994 C2995 1.386 . S
C2994 C2996 1.391 . S
C2995 C2994 1.386 . S
C2995 C2999 1.393 . S
C2996 H2985 0.950 . S
C2996 C2994 1.391 . S
C2996 C2997 1.400 . S
C2997 C2991 1.491 . S
C2997 C2996 1.400 . S
C2997 C2998 1.398 . S
C2998 H2986 0.950 . S
C2998 C2997 1.398 . S
C2998 C2999 1.391 . S
C2999 H2987 0.950 . S
C2999 C2995 1.393 . S
C2999 C2998 1.391 . S
H3000 C3008 0.950 . S
H3001 C3013 0.950 . S
H3002 C3010 0.950 . S
H3003 C3012 0.950 . S
H3004 C3014 0.950 . S
H3005 C3016 0.950 . S
H3006 C3018 0.950 . S
H3007 C3019 0.950 . S
C3008 H3000 0.950 . S
C3008 C3009 1.386 . S
C3008 C3010 1.391 . S
C3009 C3008 1.386 . S
C3009 C3013 1.393 . S
C3010 H3002 0.950 . S
C3010 C3008 1.391 . S
C3010 C3011 1.400 . S
C3011 C3010 1.400 . S
C3011 C3012 1.398 . S
C3011 C3017 1.491 . S
C3012 H3003 0.950 . S
C3012 C3011 1.398 . S
C3012 C3013 1.391 . S
C3013 H3001 0.950 . S
C3013 C3009 1.393 . S
C3013 C3012 1.391 . S
C3014 H3004 0.950 . S
C3014 C3015 1.386 . S
C3014 C3016 1.391 . S
C3015 C3014 1.386 . S
C3015 C3019 1.393 . S
C3016 H3005 0.950 . S
C3016 C3014 1.391 . S
C3016 C3017 1.400 . S
C3017 C3011 1.491 . S
C3017 C3016 1.400 . S
C3017 C3018 1.398 . S
C3018 H3006 0.950 . S
C3018 C3017 1.398 . S
C3018 C3019 1.391 . S
C3019 H3007 0.950 . S
C3019 C3015 1.393 . S
C3019 C3018 1.391 . S
H3020 C3028 0.950 . S
H3021 C3033 0.950 . S
H3022 C3030 0.950 . S
H3023 C3032 0.950 . S
H3024 C3034 0.950 . S
H3025 C3036 0.950 . S
H3026 C3038 0.950 . S
H3027 C3039 0.950 . S
C3028 H3020 0.950 . S
C3028 C3029 1.386 . S
C3028 C3030 1.391 . S
C3029 C3028 1.386 . S
C3029 C3033 1.393 . S
C3030 H3022 0.950 . S
C3030 C3028 1.391 . S
C3030 C3031 1.400 . S
C3031 C3030 1.400 . S
C3031 C3032 1.398 . S
C3031 C3037 1.491 . S
C3032 H3023 0.950 . S
C3032 C3031 1.398 . S
C3032 C3033 1.391 . S
C3033 H3021 0.950 . S
C3033 C3029 1.393 . S
C3033 C3032 1.391 . S
C3034 H3024 0.950 . S
C3034 C3035 1.386 . S
C3034 C3036 1.391 . S
C3035 C3034 1.386 . S
C3035 C3039 1.393 . S
C3036 H3025 0.950 . S
C3036 C3034 1.391 . S
C3036 C3037 1.400 . S
C3037 C3031 1.491 . S
C3037 C3036 1.400 . S
C3037 C3038 1.398 . S
C3038 H3026 0.950 . S
C3038 C3037 1.398 . S
C3038 C3039 1.391 . S
C3039 H3027 0.950 . S
C3039 C3035 1.393 . S
C3039 C3038 1.391 . S
H3040 C3048 0.950 . S
H3041 C3053 0.950 . S
H3042 C3050 0.950 . S
H3043 C3052 0.950 . S
H3044 C3054 0.950 . S
H3045 C3056 0.950 . S
H3046 C3058 0.950 . S
H3047 C3059 0.950 . S
C3048 H3040 0.950 . S
C3048 C3049 1.386 . S
C3048 C3050 1.391 . S
C3049 C3048 1.386 . S
C3049 C3053 1.393 . S
C3050 H3042 0.950 . S
C3050 C3048 1.391 . S
C3050 C3051 1.400 . S
C3051 C3050 1.400 . S
C3051 C3052 1.398 . S
C3051 C3057 1.491 . S
C3052 H3043 0.950 . S
C3052 C3051 1.398 . S
C3052 C3053 1.391 . S
C3053 H3041 0.950 . S
C3053 C3049 1.393 . S
C3053 C3052 1.391 . S
C3054 H3044 0.950 . S
C3054 C3055 1.386 . S
C3054 C3056 1.391 . S
C3055 C3054 1.386 . S
C3055 C3059 1.393 . S
C3056 H3045 0.950 . S
C3056 C3054 1.391 . S
C3056 C3057 1.400 . S
C3057 C3051 1.491 . S
C3057 C3056 1.400 . S
C3057 C3058 1.398 . S
C3058 H3046 0.950 . S
C3058 C3057 1.398 . S
C3058 C3059 1.391 . S
C3059 H3047 0.950 . S
C3059 C3055 1.393 . S
C3059 C3058 1.391 . S
H3060 C3068 0.950 . S
H3061 C3073 0.950 . S
H3062 C3070 0.950 . S
H3063 C3072 0.950 . S
H3064 C3074 0.950 . S
H3065 C3076 0.950 . S
H3066 C3078 0.950 . S
H3067 C3079 0.950 . S
C3068 H3060 0.950 . S
C3068 C3069 1.386 . S
C3068 C3070 1.391 . S
C3069 C3068 1.386 . S
C3069 C3073 1.393 . S
C3070 H3062 0.950 . S
C3070 C3068 1.391 . S
C3070 C3071 1.400 . S
C3071 C3070 1.400 . S
C3071 C3072 1.398 . S
C3071 C3077 1.491 . S
C3072 H3063 0.950 . S
C3072 C3071 1.398 . S
C3072 C3073 1.391 . S
C3073 H3061 0.950 . S
C3073 C3069 1.393 . S
C3073 C3072 1.391 . S
C3074 H3064 0.950 . S
C3074 C3075 1.386 . S
C3074 C3076 1.391 . S
C3075 C3074 1.386 . S
C3075 C3079 1.393 . S
C3076 H3065 0.950 . S
C3076 C3074 1.391 . S
C3076 C3077 1.400 . S
C3077 C3071 1.491 . S
C3077 C3076 1.400 . S
C3077 C3078 1.398 . S
C3078 H3066 0.950 . S
C3078 C3077 1.398 . S
C3078 C3079 1.391 . S
C3079 H3067 0.950 . S
C3079 C3075 1.393 . S
C3079 C3078 1.391 . S
H3080 C3088 0.950 . S
H3081 C3093 0.950 . S
H3082 C3090 0.950 . S
H3083 C3092 0.950 . S
H3084 C3094 0.950 . S
H3085 C3096 0.950 . S
H3086 C3098 0.950 . S
H3087 C3099 0.950 . S
C3088 H3080 0.950 . S
C3088 C3089 1.386 . S
C3088 C3090 1.391 . S
C3089 C3088 1.386 . S
C3089 C3093 1.393 . S
C3090 H3082 0.950 . S
C3090 C3088 1.391 . S
C3090 C3091 1.400 . S
C3091 C3090 1.400 . S
C3091 C3092 1.398 . S
C3091 C3097 1.491 . S
C3092 H3083 0.950 . S
C3092 C3091 1.398 . S
C3092 C3093 1.391 . S
C3093 H3081 0.950 . S
C3093 C3089 1.393 . S
C3093 C3092 1.391 . S
C3094 H3084 0.950 . S
C3094 C3095 1.386 . S
C3094 C3096 1.391 . S
C3095 C3094 1.386 . S
C3095 C3099 1.393 . S
C3096 H3085 0.950 . S
C3096 C3094 1.391 . S
C3096 C3097 1.400 . S
C3097 C3091 1.491 . S
C3097 C3096 1.400 . S
C3097 C3098 1.398 . S
C3098 H3086 0.950 . S
C3098 C3097 1.398 . S
C3098 C3099 1.391 . S
C3099 H3087 0.950 . S
C3099 C3095 1.393 . S
C3099 C3098 1.391 . S
H3100 C3108 0.950 . S
H3101 C3113 0.950 . S
H3102 C3110 0.950 . S
H3103 C3112 0.950 . S
H3104 C3114 0.950 . S
H3105 C3116 0.950 . S
H3106 C3118 0.950 . S
H3107 C3119 0.950 . S
C3108 H3100 0.950 . S
C3108 C3109 1.386 . S
C3108 C3110 1.391 . S
C3109 C3108 1.386 . S
C3109 C3113 1.393 . S
C3110 H3102 0.950 . S
C3110 C3108 1.391 . S
C3110 C3111 1.400 . S
C3111 C3110 1.400 . S
C3111 C3112 1.398 . S
C3111 C3117 1.491 . S
C3112 H3103 0.950 . S
C3112 C3111 1.398 . S
C3112 C3113 1.391 . S
C3113 H3101 0.950 . S
C3113 C3109 1.393 . S
C3113 C3112 1.391 . S
C3114 H3104 0.950 . S
C3114 C3115 1.386 . S
C3114 C3116 1.391 . S
C3115 C3114 1.386 . S
C3115 C3119 1.393 . S
C3116 H3105 0.950 . S
C3116 C3114 1.391 . S
C3116 C3117 1.400 . S
C3117 C3111 1.491 . S
C3117 C3116 1.400 . S
C3117 C3118 1.398 . S
C3118 H3106 0.950 . S
C3118 C3117 1.398 . S
C3118 C3119 1.391 . S
C3119 H3107 0.950 . S
C3119 C3115 1.393 . S
C3119 C3118 1.391 . S
H3120 C3128 0.950 . S
H3121 C3133 0.950 . S
H3122 C3130 0.950 . S
H3123 C3132 0.950 . S
H3124 C3134 0.950 . S
H3125 C3136 0.950 . S
H3126 C3138 0.950 . S
H3127 C3139 0.950 . S
C3128 H3120 0.950 . S
C3128 C3129 1.386 . S
C3128 C3130 1.391 . S
C3129 C3128 1.386 . S
C3129 C3133 1.393 . S
C3130 H3122 0.950 . S
C3130 C3128 1.391 . S
C3130 C3131 1.400 . S
C3131 C3130 1.400 . S
C3131 C3132 1.398 . S
C3131 C3137 1.491 . S
C3132 H3123 0.950 . S
C3132 C3131 1.398 . S
C3132 C3133 1.391 . S
C3133 H3121 0.950 . S
C3133 C3129 1.393 . S
C3133 C3132 1.391 . S
C3134 H3124 0.950 . S
C3134 C3135 1.386 . S
C3134 C3136 1.391 . S
C3135 C3134 1.386 . S
C3135 C3139 1.393 . S
C3136 H3125 0.950 . S
C3136 C3134 1.391 . S
C3136 C3137 1.400 . S
C3137 C3131 1.491 . S
C3137 C3136 1.400 . S
C3137 C3138 1.398 . S
C3138 H3126 0.950 . S
C3138 C3137 1.398 . S
C3138 C3139 1.391 . S
C3139 H3127 0.950 . S
C3139 C3135 1.393 . S
C3139 C3138 1.391 . S
H3140 C3148 0.950 . S
H3141 C3153 0.950 . S
H3142 C3150 0.950 . S
H3143 C3152 0.950 . S
H3144 C3154 0.950 . S
H3145 C3156 0.950 . S
H3146 C3158 0.950 . S
H3147 C3159 0.950 . S
C3148 H3140 0.950 . S
C3148 C3149 1.386 . S
C3148 C3150 1.391 . S
C3149 C3148 1.386 . S
C3149 C3153 1.393 . S
C3150 H3142 0.950 . S
C3150 C3148 1.391 . S
C3150 C3151 1.400 . S
C3151 C3150 1.400 . S
C3151 C3152 1.398 . S
C3151 C3157 1.491 . S
C3152 H3143 0.950 . S
C3152 C3151 1.398 . S
C3152 C3153 1.391 . S
C3153 H3141 0.950 . S
C3153 C3149 1.393 . S
C3153 C3152 1.391 . S
C3154 H3144 0.950 . S
C3154 C3155 1.386 . S
C3154 C3156 1.391 . S
C3155 C3154 1.386 . S
C3155 C3159 1.393 . S
C3156 H3145 0.950 . S
C3156 C3154 1.391 . S
C3156 C3157 1.400 . S
C3157 C3151 1.491 . S
C3157 C3156 1.400 . S
C3157 C3158 1.398 . S
C3158 H3146 0.950 . S
C3158 C3157 1.398 . S
C3158 C3159 1.391 . S
C3159 H3147 0.950 . S
C3159 C3155 1.393 . S
C3159 C3158 1.391 . S
H3160 C3168 0.950 . S
H3161 C3173 0.950 . S
H3162 C3170 0.950 . S
H3163 C3172 0.950 . S
H3164 C3174 0.950 . S
H3165 C3176 0.950 . S
H3166 C3178 0.950 . S
H3167 C3179 0.950 . S
C3168 H3160 0.950 . S
C3168 C3169 1.386 . S
C3168 C3170 1.391 . S
C3169 C3168 1.386 . S
C3169 C3173 1.393 . S
C3170 H3162 0.950 . S
C3170 C3168 1.391 . S
C3170 C3171 1.400 . S
C3171 C3170 1.400 . S
C3171 C3172 1.398 . S
C3171 C3177 1.491 . S
C3172 H3163 0.950 . S
C3172 C3171 1.398 . S
C3172 C3173 1.391 . S
C3173 H3161 0.950 . S
C3173 C3169 1.393 . S
C3173 C3172 1.391 . S
C3174 H3164 0.950 . S
C3174 C3175 1.386 . S
C3174 C3176 1.391 . S
C3175 C3174 1.386 . S
C3175 C3179 1.393 . S
C3176 H3165 0.950 . S
C3176 C3174 1.391 . S
C3176 C3177 1.400 . S
C3177 C3171 1.491 . S
C3177 C3176 1.400 . S
C3177 C3178 1.398 . S
C3178 H3166 0.950 . S
C3178 C3177 1.398 . S
C3178 C3179 1.391 . S
C3179 H3167 0.950 . S
C3179 C3175 1.393 . S
C3179 C3178 1.391 . S
H3180 C3188 0.950 . S
H3181 C3193 0.950 . S
H3182 C3190 0.950 . S
H3183 C3192 0.950 . S
H3184 C3194 0.950 . S
H3185 C3196 0.950 . S
H3186 C3198 0.950 . S
H3187 C3199 0.950 . S
C3188 H3180 0.950 . S
C3188 C3189 1.386 . S
C3188 C3190 1.391 . S
C3189 C3188 1.386 . S
C3189 C3193 1.393 . S
C3190 H3182 0.950 . S
C3190 C3188 1.391 . S
C3190 C3191 1.400 . S
C3191 C3190 1.400 . S
C3191 C3192 1.398 . S
C3191 C3197 1.491 . S
C3192 H3183 0.950 . S
C3192 C3191 1.398 . S
C3192 C3193 1.391 . S
C3193 H3181 0.950 . S
C3193 C3189 1.393 . S
C3193 C3192 1.391 . S
C3194 H3184 0.950 . S
C3194 C3195 1.386 . S
C3194 C3196 1.391 . S
C3195 C3194 1.386 . S
C3195 C3199 1.393 . S
C3196 H3185 0.950 . S
C3196 C3194 1.391 . S
C3196 C3197 1.400 . S
C3197 C3191 1.491 . S
C3197 C3196 1.400 . S
C3197 C3198 1.398 . S
C3198 H3186 0.950 . S
C3198 C3197 1.398 . S
C3198 C3199 1.391 . S
C3199 H3187 0.950 . S
C3199 C3195 1.393 . S
C3199 C3198 1.391 . S
C1289 C6 1.069 . S
C1295 C139 1.011 . S
C1309 C19 0.996 . S
C1315 C46 1.071 1_545 S
C1329 C86 1.064 . S
C1335 C59 1.038 . S
C1349 C99 0.995 . S
C1355 C126 1.071 1_565 S
C1369 C219 1.025 . S
C1375 C166 1.066 . S
C1389 C206 1.066 1_545 S
C1395 C259 1.024 . S
C1409 C299 1.035 . S
C1415 C246 1.064 . S
C1429 C179 1.040 . S
C1435 C286 1.036 1_565 S
C1449 C335 1.070 . S
C1455 C450 1.005 . S
C1469 C375 1.071 1_565 S
C1475 C330 0.996 . S
C1489 C415 1.064 . S
C1495 C370 1.033 . S
C1509 C455 1.070 1_545 S
C1515 C410 0.999 . S
C1529 C495 1.071 . S
C1535 C530 0.996 . S
C1549 C535 1.066 1_565 S
C1555 C570 1.023 . S
C1569 C610 1.038 . S
C1575 C575 1.064 . S
C1589 C490 0.995 . S
C1595 C615 1.071 1_545 S
C1609 C646 1.068 . S
C1615 C779 1.012 . S
C1629 C659 1.017 . S
C1635 C686 1.068 . S
C1649 C699 1.029 . S
C1655 C726 1.065 . S
C1669 C766 1.069 . S
C1675 C739 1.009 . S
C1689 C806 1.067 . S
C1695 C859 1.019 . S
C1709 C899 1.040 . S
C1715 C846 1.063 . S
C1729 C886 1.071 . S
C1735 C939 0.998 . S
C1749 C819 0.995 . S
C1755 C926 1.071 . S
C1769 C1090 1.040 . S
C1775 C975 1.063 . S
C1789 C970 1.002 . S
C1795 C1015 1.070 . S
C1809 C1055 1.066 . S
C1815 C1010 1.021 . S
C1829 C1050 0.997 . S
C1835 C1095 1.071 . S
C1849 C1170 1.002 . S
C1855 C1135 1.070 . S
C1869 C1210 0.997 . S
C1875 C1175 1.071 . S
C1889 C1250 1.008 . S
C1895 C1215 1.069 . S
C1909 C1255 1.065 . S
C1915 C1130 1.028 . S
C1929 C1086 1.589 . S
C1935 C9 1.541 . S
C1949 C49 1.516 . S
C1955 C326 1.578 . S
C1969 C89 1.540 . S
C1975 C1006 1.588 . S
C1989 C129 1.538 . S
C1995 C406 1.592 . S
C2009 C169 1.528 . S
C2015 C1166 1.589 . S
C2029 C566 1.582 . S
C2035 C209 1.515 . S
C2049 C1246 1.584 . S
C2055 C249 1.517 . S
C2069 C289 1.520 . S
C2075 C486 1.581 1_455 S
C2089 C338 1.520 . S
C2095 C775 1.578 . S
C2109 C15 1.586 1_655 S
C2115 C378 1.540 . S
C2129 C695 1.590 . S
C2135 C418 1.541 . S
C2149 C95 1.578 . S
C2155 C458 1.513 . S
C2169 C855 1.591 . S
C2175 C498 1.534 . S
C2189 C255 1.592 . S
C2195 C538 1.539 . S
C2209 C578 1.537 . S
C2215 C935 1.585 . S
C2229 C618 1.524 . S
C2235 C175 1.613 . S
C2249 C649 1.539 . S
C2255 C446 1.587 . S
C2269 C689 1.535 . S
C2275 C966 1.584 . S
C2289 C729 1.541 . S
C2295 C366 1.591 . S
C2309 C769 1.541 . S
C2315 C1046 1.592 1_655 S
C2329 C809 1.522 . S
C2335 C526 1.578 . S
C2349 C849 1.522 . S
C2355 C1206 1.579 1_655 S
C2369 C606 1.580 . S
C2375 C889 1.528 . S
C2389 C929 1.519 . S
C2395 C1126 1.577 . S
C2409 C135 1.580 . S
C2415 C978 1.513 . S
C2429 C655 1.590 . S
C2435 C1018 1.541 . S
C2449 C55 1.583 . S
C2455 C1058 1.516 . S
C2469 C735 1.612 . S
C2475 C1098 1.529 . S
C2489 C215 1.578 . S
C2495 C1138 1.522 . S
C2509 C1178 1.516 . S
C2515 C895 1.608 . S
C2529 C1218 1.540 . S
C2535 C295 1.588 . S
C2549 C815 1.592 . S
C2555 C1258 1.537 . S
C2569 C18 0.648 . S
C2575 C178 0.670 . S
C2589 C58 0.624 . S
C2595 C218 0.620 . S
C2609 C98 0.659 . S
C2615 C258 0.664 . S
C2629 C298 0.612 . S
C2635 C138 0.653 . S
C2649 C489 0.655 . S
C2655 C329 0.667 . S
C2669 C529 0.671 . S
C2675 C369 0.630 . S
C2689 C409 0.622 . S
C2695 C569 0.622 . S
C2709 C449 0.654 . S
C2715 C609 0.668 . S
C2729 C658 0.637 . S
C2735 C818 0.672 . S
C2749 C858 0.663 . S
C2755 C698 0.660 . S
C2769 C898 0.653 . S
C2775 C738 0.668 . S
C2789 C938 0.639 . S
C2795 C778 0.612 . S
C2809 C1129 0.658 . S
C2815 C969 0.613 . S
C2829 C1009 0.666 . S
C2835 C1169 0.620 . S
C2849 C1209 0.664 . S
C2855 C1049 0.618 . S
C2869 C1089 0.669 . S
C2875 C1249 0.650 . S
C2889 C290 2.739 . S
C2895 C10 2.739 . S
C2909 C50 2.742 . S
C2915 C170 2.742 . S
C2929 C90 2.740 . S
C2935 C210 2.740 . S
C2949 C250 2.740 . S
C2955 C130 2.741 . S
C2969 C339 2.739 . S
C2975 C619 2.739 . S
C2989 C499 2.739 . S
C2995 C379 2.739 . S
C3009 C539 2.740 . S
C3015 C419 2.739 . S
C3029 C459 2.741 . S
C3035 C579 2.741 . S
C3049 C650 2.741 . S
C3055 C930 2.741 . S
C3069 C810 2.741 . S
C3075 C690 2.741 . S
C3089 C850 2.741 . S
C3095 C730 2.741 . S
C3109 C890 2.740 . S
C3115 C770 2.740 . S
C3129 C979 2.741 . S
C3135 C1259 2.741 . S
C3149 C1139 2.739 . S
C3155 C1019 2.740 . S
C3169 C1059 2.742 . S
C3175 C1179 2.742 . S
C3189 C1219 2.741 . S
C3195 C1099 2.742 . S
