# Generated by pormake.
# Topology wme, (6)-cn, num edge types: 1
# Building blocks:
#     Node 0, Type 0, BuildingBlock: CUKXOW_clean_sbu_0, # of connection points: 6
#     Node 1, Type 0, BuildingBlock: CUKXOW_clean_sbu_0, # of connection points: 6
#     Node 2, Type 0, BuildingBlock: CUKXOW_clean_sbu_0, # of connection points: 6
#     Node 3, Type 0, BuildingBlock: CUKXOW_clean_sbu_0, # of connection points: 6
#     Node 4, Type 0, BuildingBlock: CUKXOW_clean_sbu_0, # of connection points: 6
#     Node 5, Type 0, BuildingBlock: CUKXOW_clean_sbu_0, # of connection points: 6
#     Node 6, Type 0, BuildingBlock: CUKXOW_clean_sbu_0, # of connection points: 6
#     Node 7, Type 0, BuildingBlock: CUKXOW_clean_sbu_0, # of connection points: 6
#     Node 8, Type 0, BuildingBlock: CUKXOW_clean_sbu_0, # of connection points: 6
#     Node 9, Type 0, BuildingBlock: CUKXOW_clean_sbu_0, # of connection points: 6
#     Node 10, Type 0, BuildingBlock: CUKXOW_clean_sbu_0, # of connection points: 6
#     Node 11, Type 0, BuildingBlock: CUKXOW_clean_sbu_0, # of connection points: 6
#     Edge 12, Type (0, 0), BuildingBlock: ZUJKAS_clean_linker_0, # of connection points: 2
#     Edge 13, Type (0, 0), BuildingBlock: ZUJKAS_clean_linker_0, # of connection points: 2
#     Edge 14, Type (0, 0), BuildingBlock: ZUJKAS_clean_linker_0, # of connection points: 2
#     Edge 15, Type (0, 0), BuildingBlock: ZUJKAS_clean_linker_0, # of connection points: 2
#     Edge 16, Type (0, 0), BuildingBlock: ZUJKAS_clean_linker_0, # of connection points: 2
#     Edge 17, Type (0, 0), BuildingBlock: ZUJKAS_clean_linker_0, # of connection points: 2
#     Edge 18, Type (0, 0), BuildingBlock: ZUJKAS_clean_linker_0, # of connection points: 2
#     Edge 19, Type (0, 0), BuildingBlock: ZUJKAS_clean_linker_0, # of connection points: 2
#     Edge 20, Type (0, 0), BuildingBlock: ZUJKAS_clean_linker_0, # of connection points: 2
#     Edge 21, Type (0, 0), BuildingBlock: ZUJKAS_clean_linker_0, # of connection points: 2
#     Edge 22, Type (0, 0), BuildingBlock: ZUJKAS_clean_linker_0, # of connection points: 2
#     Edge 23, Type (0, 0), BuildingBlock: ZUJKAS_clean_linker_0, # of connection points: 2
#     Edge 24, Type (0, 0), BuildingBlock: ZUJKAS_clean_linker_0, # of connection points: 2
#     Edge 25, Type (0, 0), BuildingBlock: ZUJKAS_clean_linker_0, # of connection points: 2
#     Edge 26, Type (0, 0), BuildingBlock: ZUJKAS_clean_linker_0, # of connection points: 2
#     Edge 27, Type (0, 0), BuildingBlock: ZUJKAS_clean_linker_0, # of connection points: 2
#     Edge 28, Type (0, 0), BuildingBlock: ZUJKAS_clean_linker_0, # of connection points: 2
#     Edge 29, Type (0, 0), BuildingBlock: ZUJKAS_clean_linker_0, # of connection points: 2
#     Edge 30, Type (0, 0), BuildingBlock: ZUJKAS_clean_linker_0, # of connection points: 2
#     Edge 31, Type (0, 0), BuildingBlock: ZUJKAS_clean_linker_0, # of connection points: 2
#     Edge 32, Type (0, 0), BuildingBlock: ZUJKAS_clean_linker_0, # of connection points: 2
#     Edge 33, Type (0, 0), BuildingBlock: ZUJKAS_clean_linker_0, # of connection points: 2
#     Edge 34, Type (0, 0), BuildingBlock: ZUJKAS_clean_linker_0, # of connection points: 2
#     Edge 35, Type (0, 0), BuildingBlock: ZUJKAS_clean_linker_0, # of connection points: 2
#     Edge 36, Type (0, 0), BuildingBlock: ZUJKAS_clean_linker_0, # of connection points: 2
#     Edge 37, Type (0, 0), BuildingBlock: ZUJKAS_clean_linker_0, # of connection points: 2
#     Edge 38, Type (0, 0), BuildingBlock: ZUJKAS_clean_linker_0, # of connection points: 2
#     Edge 39, Type (0, 0), BuildingBlock: ZUJKAS_clean_linker_0, # of connection points: 2
#     Edge 40, Type (0, 0), BuildingBlock: ZUJKAS_clean_linker_0, # of connection points: 2
#     Edge 41, Type (0, 0), BuildingBlock: ZUJKAS_clean_linker_0, # of connection points: 2
#     Edge 42, Type (0, 0), BuildingBlock: ZUJKAS_clean_linker_0, # of connection points: 2
#     Edge 43, Type (0, 0), BuildingBlock: ZUJKAS_clean_linker_0, # of connection points: 2
#     Edge 44, Type (0, 0), BuildingBlock: ZUJKAS_clean_linker_0, # of connection points: 2
#     Edge 45, Type (0, 0), BuildingBlock: ZUJKAS_clean_linker_0, # of connection points: 2
#     Edge 46, Type (0, 0), BuildingBlock: ZUJKAS_clean_linker_0, # of connection points: 2
#     Edge 47, Type (0, 0), BuildingBlock: ZUJKAS_clean_linker_0, # of connection points: 2
# Relax obj value: 0.055
# Max RMSD: 0.146
# Mean RMSD: 0.146
data_MOF--net-wme--node1-CUKXOW_clean_sbu_0--edge1-ZUJKAS_clean_linker_0
_symmetry_space_group_name_H-M    P1
_symmetry_Int_Tables_number       1
_symmetry_cell_setting            triclinic
loop_
_symmetry_equiv_pos_as_xyz
'x, y, z'
_cell_length_a     40.927508
_cell_length_b     40.925904
_cell_length_c     73.499337
_cell_angle_alpha  90.052564
_cell_angle_beta   89.937193
_cell_angle_gamma 120.02255
loop_
_atom_site_label
_atom_site_type_symbol
_atom_site_fract_x
_atom_site_fract_y
_atom_site_fract_z
_atom_type_partial_charge
Tb0 Tb 0.24363 0.37059 0.12311 0.0
C1 C 0.21721 0.32265 0.08748 0.0
Tb2 Tb 0.16294 0.3026 0.12194 0.0
O3 O 0.26821 0.33391 0.11962 0.0
O4 O 0.21578 0.31403 0.13204 0.0
O5 O 0.2405 0.35646 0.09442 0.0
C6 C 0.09777 0.23783 0.11811 0.0
O7 O 0.18737 0.29648 0.0965 0.0
C8 C 0.16843 0.36911 0.12071 0.0
C9 C 0.19405 0.34279 0.15941 0.0
O10 O 0.1084 0.26819 0.1086 0.0
O11 O 0.12407 0.24376 0.12973 0.0
O12 O 0.14005 0.33944 0.1277 0.0
O13 O 0.1905 0.35993 0.1133 0.0
O14 O 0.16957 0.31079 0.15122 0.0
O15 O 0.22236 0.37131 0.15053 0.0
C16 C 0.30257 0.44091 0.12409 0.0
O17 O 0.30028 0.41218 0.13276 0.0
O18 O 0.27172 0.42998 0.11496 0.0
C19 C 0.23852 0.30437 0.1261 0.0
Tb20 Tb 0.8787 0.24131 0.62389 0.0
C21 C 0.8912 0.21361 0.58495 0.0
Tb22 Tb 0.85763 0.15847 0.61861 0.0
O23 O 0.93213 0.25496 0.6374 0.0
O24 O 0.90699 0.21146 0.61847 0.0
O25 O 0.88732 0.23938 0.59434 0.0
C26 C 0.85184 0.09038 0.61941 0.0
O27 O 0.8851 0.18142 0.59247 0.0
C28 C 0.80386 0.1743 0.61269 0.0
C29 C 0.85391 0.1891 0.65831 0.0
O30 O 0.8286 0.09855 0.61143 0.0
O31 O 0.87856 0.12065 0.62699 0.0
O32 O 0.80607 0.14748 0.60442 0.0
O33 O 0.82897 0.18814 0.62469 0.0
O34 O 0.8557 0.16264 0.64847 0.0
O35 O 0.85682 0.22006 0.65089 0.0
C36 C 0.87282 0.30331 0.62142 0.0
O37 O 0.89926 0.30097 0.6301 0.0
O38 O 0.85003 0.2709 0.61407 0.0
C39 C 0.9328 0.22631 0.63007 0.0
Tb40 Tb 0.64816 0.87162 0.12146 0.0
C41 C 0.69571 0.88817 0.08601 0.0
Tb42 Tb 0.71438 0.85632 0.12175 0.0
O43 O 0.68673 0.93208 0.11679 0.0
O44 O 0.70446 0.89941 0.13082 0.0
O45 O 0.66193 0.87869 0.09266 0.0
C46 C 0.77892 0.85533 0.1188 0.0
O47 O 0.7214 0.88479 0.09559 0.0
C48 C 0.64706 0.7965 0.12028 0.0
C49 C 0.67337 0.85025 0.15873 0.0
O50 O 0.74796 0.83348 0.1101 0.0
O51 O 0.77366 0.87798 0.12919 0.0
O52 O 0.67591 0.79709 0.12787 0.0
O53 O 0.65748 0.8277 0.11251 0.0
O54 O 0.70497 0.85547 0.15091 0.0
O55 O 0.64621 0.85185 0.14947 0.0
C56 C 0.57918 0.86357 0.12155 0.0
O57 O 0.60949 0.89268 0.12773 0.0
O58 O 0.58773 0.83902 0.11551 0.0
C59 C 0.71536 0.93147 0.12409 0.0
Tb60 Tb 0.78144 0.64493 0.6222 0.0
C61 C 0.80997 0.69354 0.58683 0.0
Tb62 Tb 0.86271 0.7119 0.62177 0.0
O63 O 0.75824 0.68272 0.61872 0.0
O64 O 0.80993 0.70125 0.63166 0.0
O65 O 0.78593 0.65972 0.59354 0.0
C66 C 0.92854 0.77636 0.61878 0.0
O67 O 0.83969 0.71915 0.59613 0.0
C68 C 0.85589 0.64487 0.61988 0.0
C69 C 0.83014 0.67014 0.65878 0.0
O70 O 0.91834 0.74602 0.6093 0.0
O71 O 0.90144 0.7706 0.62987 0.0
O72 O 0.88439 0.67395 0.6272 0.0
O73 O 0.83447 0.65492 0.61253 0.0
O74 O 0.85536 0.7023 0.65096 0.0
O75 O 0.80163 0.64251 0.6496 0.0
C76 C 0.72103 0.57542 0.62287 0.0
O77 O 0.72388 0.60467 0.63128 0.0
O78 O 0.75217 0.58536 0.61415 0.0
C79 C 0.78788 0.71168 0.62559 0.0
Tb80 Tb 0.14595 0.77312 0.12265 0.0
C81 C 0.1338 0.80619 0.08629 0.0
Tb82 Tb 0.1663 0.85684 0.12105 0.0
O83 O 0.08604 0.75318 0.11734 0.0
O84 O 0.1204 0.80507 0.12988 0.0
O85 O 0.14355 0.78252 0.0935 0.0
C86 C 0.17343 0.92508 0.12435 0.0
O87 O 0.13636 0.8353 0.09547 0.0
C88 C 0.21883 0.84173 0.11004 0.0
C89 C 0.16775 0.8205 0.15929 0.0
O90 O 0.14394 0.89532 0.11799 0.0
O91 O 0.19868 0.91629 0.12898 0.0
O92 O 0.21524 0.86939 0.10378 0.0
O93 O 0.1954 0.82644 0.12266 0.0
O94 O 0.16825 0.84921 0.15046 0.0
O95 O 0.16174 0.78896 0.15103 0.0
C96 C 0.15346 0.71207 0.12271 0.0
O97 O 0.12967 0.71652 0.13271 0.0
O98 O 0.1727 0.74186 0.1127 0.0
C99 C 0.08829 0.78432 0.12311 0.0
Tb100 Tb 0.37624 0.1459 0.62352 0.0
C101 C 0.32637 0.12459 0.58854 0.0
Tb102 Tb 0.30844 0.15854 0.62373 0.0
O103 O 0.33933 0.08467 0.62014 0.0
O104 O 0.3203 0.11711 0.63334 0.0
O105 O 0.36051 0.1351 0.59501 0.0
C106 C 0.24227 0.1564 0.62282 0.0
O107 O 0.30061 0.12803 0.59809 0.0
C108 C 0.37473 0.21984 0.62123 0.0
C109 C 0.35236 0.16997 0.6602 0.0
O110 O 0.2701 0.17523 0.61166 0.0
O111 O 0.25152 0.1384 0.63432 0.0
O112 O 0.3454 0.21883 0.62852 0.0
O113 O 0.36506 0.18823 0.61412 0.0
O114 O 0.31958 0.16174 0.65275 0.0
O115 O 0.38003 0.16988 0.65071 0.0
C116 C 0.44595 0.15626 0.62339 0.0
O117 O 0.41834 0.13197 0.63345 0.0
O118 O 0.43424 0.17449 0.61346 0.0
C119 C 0.31024 0.08472 0.62725 0.0
Tb120 Tb 0.64723 0.78127 0.39083 0.0
C121 C 0.69479 0.81058 0.42632 0.0
Tb122 Tb 0.71392 0.86218 0.39091 0.0
O123 O 0.68503 0.75829 0.39488 0.0
O124 O 0.70338 0.80933 0.38126 0.0
O125 O 0.66088 0.78683 0.41963 0.0
C126 C 0.77855 0.92753 0.39368 0.0
O127 O 0.72079 0.83971 0.41684 0.0
C128 C 0.64701 0.85548 0.39285 0.0
C129 C 0.67296 0.82868 0.35378 0.0
O130 O 0.74797 0.91832 0.40276 0.0
O131 O 0.77292 0.89975 0.38312 0.0
O132 O 0.67589 0.88363 0.38519 0.0
O133 O 0.6572 0.83432 0.40037 0.0
O134 O 0.7045 0.85479 0.36171 0.0
O135 O 0.6458 0.79965 0.36289 0.0
C136 C 0.57714 0.72234 0.39008 0.0
O137 O 0.60718 0.72172 0.3849 0.0
O138 O 0.58665 0.75599 0.39562 0.0
C139 C 0.71386 0.78757 0.38767 0.0
Tb140 Tb 0.88577 0.6416 0.88929 0.0
C141 C 0.90312 0.69032 0.92522 0.0
Tb142 Tb 0.86788 0.70913 0.89099 0.0
O143 O 0.94639 0.68166 0.89186 0.0
O144 O 0.91007 0.6984 0.88067 0.0
O145 O 0.89466 0.65706 0.91805 0.0
C146 C 0.86691 0.77337 0.88807 0.0
O147 O 0.89783 0.71592 0.91657 0.0
C148 C 0.81028 0.6428 0.90106 0.0
C149 C 0.85902 0.66563 0.85365 0.0
O150 O 0.89237 0.76951 0.89689 0.0
O151 O 0.84267 0.74135 0.88085 0.0
O152 O 0.80938 0.674 0.90181 0.0
O153 O 0.8424 0.65182 0.89547 0.0
O154 O 0.86465 0.69716 0.86181 0.0
O155 O 0.86217 0.63865 0.86223 0.0
C156 C 0.87534 0.57209 0.88958 0.0
O157 O 0.8997 0.59958 0.87939 0.0
O158 O 0.85715 0.5839 0.89959 0.0
C159 C 0.9433 0.71009 0.88604 0.0
Tb160 Tb 0.2422 0.87612 0.39098 0.0
C161 C 0.21398 0.89656 0.42643 0.0
Tb162 Tb 0.16096 0.86231 0.39156 0.0
O163 O 0.26587 0.93718 0.39433 0.0
O164 O 0.21389 0.90406 0.38156 0.0
O165 O 0.23802 0.88685 0.41963 0.0
C166 C 0.09548 0.86149 0.39464 0.0
O167 O 0.1842 0.89247 0.4172 0.0
C168 C 0.16768 0.80211 0.39367 0.0
C169 C 0.19298 0.85252 0.3545 0.0
O170 O 0.10516 0.84063 0.40382 0.0
O171 O 0.1229 0.88324 0.38379 0.0
O172 O 0.13914 0.80246 0.38627 0.0
O173 O 0.18916 0.83377 0.40082 0.0
O174 O 0.16805 0.85981 0.36239 0.0
O175 O 0.22145 0.85317 0.36362 0.0
C176 C 0.302 0.86613 0.39035 0.0
O177 O 0.29939 0.89241 0.3817 0.0
O178 O 0.27098 0.84558 0.39928 0.0
C179 C 0.2362 0.93656 0.38756 0.0
Tb180 Tb 0.38305 0.24093 0.89241 0.0
C181 C 0.3369 0.20612 0.92828 0.0
Tb182 Tb 0.31825 0.1576 0.8927 0.0
O183 O 0.344 0.26185 0.89824 0.0
O184 O 0.32556 0.21056 0.88499 0.0
O185 O 0.37076 0.2295 0.92141 0.0
C186 C 0.2549 0.09126 0.88889 0.0
O187 O 0.31014 0.17815 0.91864 0.0
C188 C 0.38529 0.1701 0.90341 0.0
C189 C 0.35739 0.19605 0.85509 0.0
O190 O 0.25804 0.11987 0.89802 0.0
O191 O 0.28739 0.10007 0.88182 0.0
O192 O 0.35359 0.14178 0.90889 0.0
O193 O 0.37782 0.18706 0.89141 0.0
O194 O 0.32796 0.16757 0.86342 0.0
O195 O 0.3837 0.22627 0.86389 0.0
C196 C 0.45186 0.30153 0.89308 0.0
O197 O 0.42478 0.29686 0.88218 0.0
O198 O 0.44006 0.27221 0.90355 0.0
C199 C 0.31474 0.23138 0.89219 0.0
Tb200 Tb 0.1447 0.3774 0.38975 0.0
C201 C 0.12917 0.33185 0.4267 0.0
Tb202 Tb 0.16743 0.31371 0.39381 0.0
O203 O 0.08306 0.33812 0.38564 0.0
O204 O 0.12049 0.31968 0.39019 0.0
O205 O 0.13775 0.36464 0.41895 0.0
C206 C 0.1741 0.25206 0.39252 0.0
O207 O 0.13394 0.30565 0.4183 0.0
C208 C 0.21987 0.38389 0.40085 0.0
C209 C 0.17 0.3497 0.3547 0.0
O210 O 0.19136 0.27987 0.40384 0.0
O211 O 0.15298 0.2589 0.38183 0.0
O212 O 0.21957 0.35456 0.40771 0.0
O213 O 0.19398 0.37268 0.38928 0.0
O214 O 0.17224 0.32316 0.36429 0.0
O215 O 0.16294 0.37533 0.36208 0.0
C216 C 0.1542 0.44655 0.39137 0.0
O217 O 0.13259 0.42059 0.37978 0.0
O218 O 0.17017 0.43342 0.40209 0.0
C219 C 0.08637 0.30816 0.38734 0.0
Tb220 Tb 0.78437 0.13928 0.89048 0.0
C221 C 0.81434 0.12204 0.9262 0.0
Tb222 Tb 0.86696 0.15577 0.8912 0.0
O223 O 0.76113 0.07823 0.89418 0.0
O224 O 0.8141 0.11194 0.88241 0.0
O225 O 0.7901 0.13133 0.9193 0.0
C226 C 0.93389 0.15962 0.89431 0.0
O227 O 0.84409 0.12594 0.91696 0.0
C228 C 0.85815 0.21478 0.892 0.0
C229 C 0.83198 0.1594 0.85367 0.0
O230 O 0.9203 0.1743 0.90553 0.0
O231 O 0.90974 0.14261 0.88132 0.0
O232 O 0.88741 0.21499 0.88517 0.0
O233 O 0.83733 0.1835 0.8996 0.0
O234 O 0.85795 0.15425 0.86195 0.0
O235 O 0.80322 0.15868 0.86255 0.0
C236 C 0.72403 0.14838 0.89033 0.0
O237 O 0.7252 0.11968 0.88352 0.0
O238 O 0.75684 0.17193 0.89703 0.0
C239 C 0.79193 0.07953 0.88859 0.0
H240 H 0.23497 0.98912 0.13643 0.0
H241 H 0.24453 0.05313 0.1369 0.0
H242 H 0.13304 0.01155 0.11476 0.0
H243 H 0.12348 0.94736 0.11408 0.0
H244 H 0.18873 0.07612 0.09712 0.0
H245 H 0.19742 0.0957 0.17201 0.0
H246 H 0.2293 0.08154 0.16308 0.0
H247 H 0.17923 0.04999 0.16147 0.0
C248 C 0.21241 0.9936 0.13179 0.0
C249 C 0.17844 0.96334 0.12529 0.0
C250 C 0.21784 0.03014 0.13213 0.0
C251 C 0.18931 0.03703 0.12609 0.0
C252 C 0.15535 1.00681 0.11956 0.0
H253 H 0.18342 0.24373 0.14401 0.0
H254 H 0.17043 0.17853 0.14312 0.0
C255 C 0.14989 0.9702 0.11922 0.0
C256 C 0.19537 0.07593 0.12617 0.0
H257 H 0.21541 0.15044 0.15405 0.0
C258 C 0.1944 0.09235 0.10957 0.0
C259 C 0.20234 0.09687 0.14245 0.0
C260 C 0.20181 0.08007 0.16079 0.0
C261 C 0.20092 0.12945 0.10876 0.0
C262 C 0.2092 0.15084 0.12497 0.0
C263 C 0.20947 0.13415 0.14161 0.0
C264 C 0.21689 0.19034 0.12507 0.0
C265 C 0.19827 0.14518 0.09061 0.0
C266 C 0.24755 0.21874 0.11536 0.0
C267 C 0.25479 0.25599 0.11573 0.0
C268 C 0.23159 0.26538 0.1259 0.0
C269 C 0.20131 0.23708 0.13581 0.0
C270 C 0.19403 0.1999 0.1354 0.0
H271 H 0.18213 0.12241 0.08055 0.0
H272 H 0.18457 0.16261 0.09202 0.0
H273 H 0.22711 0.16338 0.08511 0.0
H274 H 0.26606 0.21217 0.10761 0.0
H275 H 0.27839 0.27735 0.10802 0.0
H276 H 0.18913 0.12965 0.64953 0.0
H277 H 0.13531 0.13977 0.65268 0.0
H278 H 0.16366 0.19881 0.60133 0.0
H279 H 0.21834 0.18992 0.59848 0.0
H280 H 0.15078 0.23735 0.62687 0.0
H281 H 0.03458 0.0885 0.62777 0.0
H282 H 0.06941 0.09871 0.645 0.0
H283 H 0.08216 0.10167 0.62137 0.0
C284 C 0.18354 0.14436 0.63882 0.0
C285 C 0.20772 0.15896 0.62374 0.0
C286 C 0.1527 0.14997 0.64059 0.0
C287 C 0.14515 0.16963 0.62713 0.0
C288 C 0.16893 0.18352 0.61187 0.0
H289 H 0.94372 0.17862 0.60878 0.0
H290 H 0.99564 0.16577 0.60975 0.0
C291 C 0.20002 0.17831 0.61021 0.0
C292 C 0.11361 0.17733 0.62929 0.0
H293 H 0.01827 0.13504 0.63512 0.0
C294 C 0.12177 0.21498 0.62865 0.0
C295 C 0.07578 0.14809 0.63151 0.0
C296 C 0.06483 0.10697 0.63128 0.0
C297 C 0.09313 0.22421 0.62994 0.0
C298 C 0.05539 0.19503 0.63251 0.0
C299 C 0.04729 0.15741 0.63337 0.0
C300 C 0.02346 0.20246 0.63271 0.0
C301 C 0.10346 0.26496 0.62784 0.0
C302 C 0.02148 0.22703 0.64548 0.0
C303 C 0.99182 0.2348 0.64481 0.0
C304 C 0.96354 0.21762 0.63156 0.0
C305 C 0.96509 0.19227 0.61917 0.0
C306 C 0.99475 0.18484 0.61972 0.0
H307 H 0.13174 0.28223 0.62154 0.0
H308 H 0.08238 0.26745 0.61935 0.0
H309 H 0.1041 0.27702 0.64145 0.0
H310 H 0.04288 0.24027 0.65589 0.0
H311 H 0.99104 0.25422 0.65459 0.0
H312 H 0.74505 0.99281 0.10177 0.0
H313 H 0.81134 0.04279 0.09945 0.0
H314 H 0.84091 0.98889 0.1416 0.0
H315 H 0.77479 0.93887 0.14385 0.0
H316 H 0.85635 0.09208 0.12628 0.0
H317 H 0.91748 1.00561 0.10201 0.0
H318 H 0.86741 0.98871 0.10162 0.0
H319 H 0.89011 0.98825 0.12247 0.0
C320 C 0.76577 0.9917 0.11051 0.0
C321 C 0.75501 0.96194 0.12289 0.0
C322 C 0.80358 0.02013 0.10914 0.0
C323 C 0.83118 0.0192 0.12012 0.0
C324 C 0.82029 0.98966 0.13265 0.0
H325 H 0.06992 0.17437 0.13909 0.0
H326 H 1.00524 0.12041 0.13912 0.0
C327 C 0.78253 0.96119 0.13398 0.0
C328 C 0.87104 0.05006 0.11906 0.0
H329 H 0.96102 0.06869 0.11097 0.0
C330 C 0.87921 0.08701 0.12282 0.0
C331 C 0.90083 0.0433 0.11464 0.0
C332 C 0.8936 1.00439 0.10979 0.0
C333 C 0.91641 0.11736 0.12256 0.0
C334 C 0.9462 0.11066 0.1181 0.0
C335 C 0.9381 0.07371 0.11438 0.0
C336 C 0.98591 0.14184 0.11723 0.0
C337 C 0.92359 0.15623 0.12746 0.0
C338 C 0.99666 0.17115 0.10459 0.0
C339 C 0.03342 0.20188 0.10457 0.0
C340 C 0.06013 0.2037 0.11712 0.0
C341 C 0.04981 0.17366 0.12931 0.0
C342 C 1.01295 0.14289 0.12933 0.0
H343 H 0.89936 0.15505 0.13489 0.0
H344 H 0.94929 0.17151 0.136 0.0
H345 H 0.92802 0.17274 0.11482 0.0
H346 H 0.97641 0.17053 0.09491 0.0
H347 H 0.04071 0.22456 0.09496 0.0
H348 H 0.74993 0.73982 0.60693 0.0
H349 H 0.76343 0.80537 0.60629 0.0
H350 H 0.85633 0.83733 0.64329 0.0
H351 H 0.84272 0.77183 0.64408 0.0
H352 H 0.76521 0.85013 0.63636 0.0
H353 H 0.90386 0.91343 0.60107 0.0
H354 H 0.87087 0.86329 0.60103 0.0
H355 H 0.89921 0.88547 0.62078 0.0
C356 C 0.77322 0.76088 0.61491 0.0
C357 C 0.79558 0.75095 0.6254 0.0
C358 C 0.78095 0.79826 0.61451 0.0
C359 C 0.81127 0.82631 0.6245 0.0
C360 C 0.83335 0.81631 0.63515 0.0
H361 H 0.89646 0.06844 0.63713 0.0
H362 H 0.88716 1.00437 0.63904 0.0
C363 C 0.82557 0.77893 0.63559 0.0
C364 C 0.81895 0.86578 0.62422 0.0
H365 H 0.88442 0.95561 0.61178 0.0
C366 C 0.79123 0.8732 0.63096 0.0
C367 C 0.85308 0.89583 0.61732 0.0
C368 C 0.88342 0.88925 0.6095 0.0
C369 C 0.79674 0.90992 0.63104 0.0
C370 C 0.83054 0.93991 0.6238 0.0
C371 C 0.85852 0.93258 0.61729 0.0
C372 C 0.8368 0.97883 0.62238 0.0
C373 C 0.7665 0.91632 0.63917 0.0
C374 C 0.81207 0.98583 0.6121 0.0
C375 C 0.81725 0.0222 0.61106 0.0
C376 C 0.84748 0.05236 0.62014 0.0
C377 C 0.87283 0.04562 0.63007 0.0
C378 C 0.86757 0.0091 0.63115 0.0
H379 H 0.74821 0.89338 0.64875 0.0
H380 H 0.77903 0.94368 0.64651 0.0
H381 H 0.74833 0.91679 0.6281 0.0
H382 H 0.78869 0.9631 0.60486 0.0
H383 H 0.79745 0.02666 0.60319 0.0
H384 H 0.08618 0.84289 0.13956 0.0
H385 H 0.03522 0.85785 0.13832 0.0
H386 H 0.97157 0.7623 0.10302 0.0
H387 H 0.02232 0.74707 0.10435 0.0
H388 H 1.0029 0.87424 0.10889 0.0
H389 H 0.89737 0.74392 0.14419 0.0
H390 H 0.94705 0.75912 0.14391 0.0
H391 H 0.91796 0.73515 0.12455 0.0
C392 C 0.06134 0.82519 0.13149 0.0
C393 C 0.05797 0.79372 0.12213 0.0
C394 C 0.03229 0.83373 0.13081 0.0
C395 C 0.99936 0.81082 0.12083 0.0
C396 C 0.99638 0.77985 0.11113 0.0
H397 H 0.78978 0.80533 0.09921 0.0
H398 H 0.84516 0.79736 0.0993 0.0
C399 C 0.02537 0.77124 0.11186 0.0
C400 C 0.96805 0.81919 0.12061 0.0
H401 H 0.87461 0.78147 0.13077 0.0
C402 C 0.97489 0.85409 0.11376 0.0
C403 C 0.93161 0.79291 0.12708 0.0
C404 C 0.92303 0.75583 0.13552 0.0
C405 C 0.9459 0.86296 0.11273 0.0
C406 C 0.90934 0.83637 0.1189 0.0
C407 C 0.90266 0.8017 0.12595 0.0
C408 C 0.87726 0.84346 0.11794 0.0
C409 C 0.95432 0.90023 0.10464 0.0
C410 C 0.87706 0.87218 0.12834 0.0
C411 C 0.84537 0.87677 0.12832 0.0
C412 C 0.81345 0.85258 0.11795 0.0
C413 C 0.81403 0.82437 0.10731 0.0
C414 C 0.8456 0.81976 0.10736 0.0
H415 H 0.98138 0.91387 0.09699 0.0
H416 H 0.93129 0.89646 0.09535 0.0
H417 H 0.9564 0.91959 0.11573 0.0
H418 H 0.90099 0.89039 0.13681 0.0
H419 H 0.84556 0.89869 0.13666 0.0
H420 H 0.98761 0.7887 0.59721 0.0
H421 H 0.05197 0.84258 0.59797 0.0
H422 H 0.01956 0.89424 0.6401 0.0
H423 H 0.95482 0.84041 0.63926 0.0
H424 H 0.06589 0.9449 0.61222 0.0
H425 H 0.12609 0.8599 0.63964 0.0
H426 H 0.09902 0.84138 0.61918 0.0
H427 H 0.07608 0.84326 0.6397 0.0
C428 C 0.99414 0.81167 0.60654 0.0
C429 C 0.96638 0.81033 0.61828 0.0
C430 C 0.03095 0.84231 0.60704 0.0
C431 C 0.04069 0.87204 0.61933 0.0
C432 C 1.01265 0.87143 0.6306 0.0
H433 H 0.25002 0.07689 0.64655 0.0
H434 H 0.18422 0.02612 0.64423 0.0
C435 C 0.97576 0.84073 0.63012 0.0
C436 C 0.08031 0.90334 0.62064 0.0
H437 H 0.16966 0.92255 0.6307 0.0
C438 C 0.08859 0.94011 0.61633 0.0
C439 C 0.10984 0.89695 0.62601 0.0
C440 C 0.10241 0.85832 0.63156 0.0
C441 C 0.12581 0.97059 0.61688 0.0
C442 C 0.15535 0.96415 0.6222 0.0
C443 C 0.147 0.92739 0.62656 0.0
C444 C 0.19512 0.99516 0.6235 0.0
C445 C 0.13329 0.00926 0.61137 0.0
C446 C 0.22329 0.9941 0.613 0.0
C447 C 0.26089 0.02304 0.61436 0.0
C448 C 0.2709 0.05343 0.62628 0.0
C449 C 0.24285 0.05416 0.63699 0.0
C450 C 0.20528 0.02522 0.63565 0.0
H451 H 0.10978 1.00767 0.60314 0.0
H452 H 0.13627 0.02602 0.62376 0.0
H453 H 0.15983 0.0245 0.6034 0.0
H454 H 0.21609 0.97102 0.60363 0.0
H455 H 0.28202 0.02188 0.60593 0.0
H456 H 0.0703 0.90088 0.37479 0.0
H457 H 1.00627 0.89178 0.37448 0.0
H458 H 0.97191 0.80469 0.41514 0.0
H459 H 0.03578 0.81402 0.41568 0.0
H460 H 0.94061 0.82569 0.36552 0.0
H461 H 0.93108 0.86961 0.4358 0.0
H462 H 0.97544 0.88077 0.42537 0.0
H463 H 0.94525 0.83464 0.43477 0.0
C464 C 0.04916 0.88019 0.38383 0.0
C465 C 0.05793 0.85823 0.3953 0.0
C466 C 1.01264 0.87497 0.38362 0.0
C467 C 0.98445 0.84791 0.39497 0.0
C468 C 0.99339 0.8263 0.40658 0.0
H469 H 0.74302 0.75301 0.40835 0.0
H470 H 0.80904 0.76802 0.40976 0.0
C471 C 0.02984 0.83151 0.40679 0.0
C472 C 0.94512 0.84055 0.39388 0.0
H473 H 0.87342 0.83705 0.41923 0.0
C474 C 0.92601 0.82851 0.37721 0.0
C475 C 0.92607 0.84403 0.40919 0.0
C476 C 0.94559 0.8583 0.42726 0.0
C477 C 0.88808 0.81898 0.37553 0.0
C478 C 0.86896 0.8222 0.39087 0.0
C479 C 0.88812 0.83449 0.40751 0.0
C480 C 0.82905 0.81303 0.3899 0.0
C481 C 0.86852 0.80456 0.35748 0.0
C482 C 0.81852 0.83352 0.37838 0.0
C483 C 0.78091 0.82485 0.3775 0.0
C484 C 0.75327 0.79581 0.38826 0.0
C485 C 0.76379 0.77538 0.39983 0.0
C486 C 0.80145 0.78405 0.40071 0.0
H487 H 0.88382 0.79463 0.34863 0.0
H488 H 0.83917 0.78102 0.35943 0.0
H489 H 0.86729 0.82774 0.35027 0.0
H490 H 0.83944 0.85638 0.37014 0.0
H491 H 0.77344 0.84077 0.36834 0.0
H492 H 1.00419 0.74119 0.90844 0.0
H493 H 0.05406 0.8074 0.91005 0.0
H494 H 1.0004 0.83446 0.86671 0.0
H495 H 0.94927 0.76868 0.86597 0.0
H496 H 0.10421 0.8483 0.88725 0.0
H497 H 0.02053 0.91808 0.89981 0.0
H498 H 0.99996 0.86757 0.90095 0.0
H499 H 1.00548 0.89066 0.87935 0.0
C500 C 1.00296 0.76145 0.8994 0.0
C501 C 0.97307 0.75002 0.88707 0.0
C502 C 0.03143 0.79927 0.90032 0.0
C503 C 0.0309 0.8263 0.88869 0.0
C504 C 1.00101 0.81464 0.87625 0.0
H505 H 0.23888 0.03565 0.86421 0.0
H506 H 0.1835 0.97221 0.86352 0.0
C507 C 0.972 0.77695 0.87567 0.0
C508 C 0.06277 0.866 0.88892 0.0
H509 H 0.08433 0.95816 0.88991 0.0
C510 C 0.09977 0.87227 0.88801 0.0
C511 C 0.05726 0.89748 0.8902 0.0
C512 C 0.01867 0.8931 0.89284 0.0
C513 C 0.13123 0.90883 0.88818 0.0
C514 C 0.12568 0.94034 0.88832 0.0
C515 C 0.08871 0.93413 0.88947 0.0
C516 C 0.15785 0.97987 0.88776 0.0
C517 C 0.17003 0.913 0.88877 0.0
C518 C 0.16086 1.00625 0.90089 0.0
C519 C 0.19187 0.04293 0.90089 0.0
C520 C 0.22069 0.05371 0.88793 0.0
C521 C 0.21724 0.0278 0.8745 0.0
C522 C 0.18578 0.99143 0.87422 0.0
H523 H 0.16913 0.88761 0.89471 0.0
H524 H 0.18116 0.91632 0.87472 0.0
H525 H 0.18995 0.93797 0.89691 0.0
H526 H 0.13963 0.99823 0.9114 0.0
H527 H 0.19387 0.06247 0.91138 0.0
H528 H 0.13701 0.19018 0.37062 0.0
H529 H 0.14452 0.13429 0.36986 0.0
H530 H 0.22882 0.18282 0.41204 0.0
H531 H 0.22089 0.23817 0.41308 0.0
H532 H 0.20813 0.12994 0.3622 0.0
H533 H 0.15839 0.07826 0.43211 0.0
H534 H 0.15071 0.11341 0.42127 0.0
H535 H 0.19557 0.12659 0.4315 0.0
C536 C 0.15695 0.18872 0.37978 0.0
C537 C 0.17825 0.21831 0.39196 0.0
C538 C 0.16123 0.15686 0.37934 0.0
C539 C 0.18675 0.1541 0.39113 0.0
C540 C 0.20829 0.1839 0.40315 0.0
H541 H 0.27331 1.00195 0.40684 0.0
H542 H 0.26043 0.05443 0.40723 0.0
C543 C 0.20393 0.21561 0.40364 0.0
C544 C 0.19195 0.12076 0.39044 0.0
H545 H 0.19022 0.05095 0.4166 0.0
C546 C 0.20387 0.11243 0.37404 0.0
C547 C 0.18638 0.09797 0.40591 0.0
C548 C 0.1717 0.10423 0.42365 0.0
C549 C 0.21142 0.08259 0.37283 0.0
C550 C 0.2065 0.06029 0.3884 0.0
C551 C 0.19416 0.06829 0.40473 0.0
C552 C 0.21425 0.02862 0.38803 0.0
C553 C 0.22557 0.07577 0.35507 0.0
C554 C 0.19233 0.99669 0.37723 0.0
C555 C 0.19966 0.96681 0.377 0.0
C556 C 0.2289 0.96834 0.38761 0.0
C557 C 0.25075 1.00023 0.39846 0.0
C558 C 0.24334 0.03008 0.39874 0.0
H559 H 0.23565 0.10023 0.3457 0.0
H560 H 0.24893 0.0699 0.35746 0.0
H561 H 0.20227 0.05077 0.34825 0.0
H562 H 0.16944 0.99482 0.36907 0.0
H563 H 0.18263 0.94263 0.36842 0.0
H564 H 0.25364 0.17511 0.87493 0.0
H565 H 0.18819 0.16149 0.87649 0.0
H566 H 0.22119 0.25293 0.91463 0.0
H567 H 0.28684 0.26723 0.91274 0.0
H568 H 0.13872 0.14161 0.9046 0.0
H569 H 0.16754 0.27909 0.87622 0.0
H570 H 0.20189 0.26377 0.87559 0.0
H571 H 0.19499 0.28372 0.89607 0.0
C572 C 0.24686 0.19232 0.88361 0.0
C573 C 0.27523 0.22252 0.89354 0.0
C574 C 0.20951 0.18449 0.88451 0.0
C575 C 0.19991 0.20669 0.89538 0.0
C576 C 0.22811 0.23612 0.90576 0.0
H577 H 0.98962 0.2023 0.91838 0.0
H578 H 0.05372 0.21186 0.91934 0.0
C579 C 0.26553 0.24417 0.90473 0.0
C580 C 0.16043 0.19902 0.89579 0.0
H581 H 0.10602 0.23926 0.88799 0.0
C582 C 0.13155 0.16291 0.90091 0.0
C583 C 0.15109 0.2268 0.89087 0.0
C584 C 0.18043 0.26539 0.8842 0.0
C585 C 0.09368 0.15405 0.90151 0.0
C586 C 0.08452 0.18197 0.8968 0.0
C587 C 0.11329 0.21803 0.8917 0.0
C588 C 0.04514 0.17431 0.89683 0.0
C589 C 0.06373 0.11511 0.9074 0.0
C590 C 0.01921 0.15003 0.88385 0.0
C591 C 0.98271 0.14474 0.88319 0.0
C592 C 0.97165 0.16358 0.89555 0.0
C593 C 0.99744 0.18737 0.90873 0.0
C594 C 0.034 0.19288 0.90928 0.0
H595 H 0.07607 0.09918 0.91383 0.0
H596 H 0.0439 0.11685 0.91715 0.0
H597 H 0.04722 0.09902 0.89533 0.0
H598 H 0.02748 0.13583 0.87398 0.0
H599 H 0.96333 0.12628 0.87289 0.0
H600 H 0.09122 0.24634 0.3962 0.0
H601 H 0.04069 0.18053 0.39644 0.0
H602 H 0.96132 0.21476 0.37957 0.0
H603 H 1.01237 0.28084 0.3788 0.0
H604 H 0.97632 0.14884 0.41716 0.0
H605 H 0.941 0.13034 0.3436 0.0
H606 H 0.98389 0.16973 0.35233 0.0
H607 H 0.94004 0.16973 0.35382 0.0
C608 C 0.06322 0.23979 0.39217 0.0
C609 C 0.0558 0.26852 0.38715 0.0
C610 C 0.03429 0.20221 0.39246 0.0
C611 C 0.99739 0.1927 0.38774 0.0
C612 C 0.98979 0.22142 0.38286 0.0
H613 H 0.7906 0.98822 0.4138 0.0
H614 H 0.84536 0.05194 0.41275 0.0
C615 C 0.01885 0.2591 0.38253 0.0
C616 C 0.96673 0.15285 0.38865 0.0
H617 H 0.89894 0.08102 0.36331 0.0
C618 C 0.95949 0.13393 0.40538 0.0
C619 C 0.94524 0.13336 0.37319 0.0
C620 C 0.95308 0.15165 0.35467 0.0
C621 C 0.93076 0.0962 0.40716 0.0
C622 C 0.90832 0.07716 0.39186 0.0
C623 C 0.91607 0.09581 0.37504 0.0
C624 C 0.87607 0.03815 0.39311 0.0
C625 C 0.92496 0.07698 0.42535 0.0
C626 C 0.875 0.0094 0.38224 0.0
C627 C 0.84362 0.97299 0.38275 0.0
C628 C 0.81283 0.96497 0.39406 0.0
C629 C 0.81412 0.99364 0.40506 0.0
C630 C 0.84543 0.02999 0.40453 0.0
H631 H 0.95064 0.09142 0.43397 0.0
H632 H 0.90163 0.0777 0.43268 0.0
H633 H 0.9173 0.04701 0.42365 0.0
H634 H 0.89832 0.01522 0.37327 0.0
H635 H 0.84319 0.95135 0.37409 0.0
H636 H 0.91371 0.84252 0.90335 0.0
H637 H 0.90347 0.89692 0.90439 0.0
H638 H 0.80106 0.83426 0.87341 0.0
H639 H 0.81107 0.78022 0.87221 0.0
H640 H 0.8786 0.92836 0.86685 0.0
H641 H 0.78504 0.87716 0.92781 0.0
H642 H 0.82332 0.86763 0.92469 0.0
H643 H 0.78181 0.84365 0.91092 0.0
C644 C 0.88923 0.84059 0.89666 0.0
C645 C 0.86311 0.80726 0.88775 0.0
C646 C 0.88341 0.87151 0.89729 0.0
C647 C 0.85138 0.86922 0.88908 0.0
C648 C 0.82581 0.83631 0.87986 0.0
H649 H 0.74192 1.00386 0.88709 0.0
H650 H 0.7568 0.95257 0.88743 0.0
C651 C 0.83165 0.80558 0.87917 0.0
C652 C 0.84397 0.90088 0.89018 0.0
H653 H 0.79169 0.93136 0.91313 0.0
C654 C 0.85992 0.92936 0.87703 0.0
C655 C 0.81908 0.90141 0.90333 0.0
C656 C 0.80123 0.87097 0.91759 0.0
C657 C 0.85121 0.95842 0.87654 0.0
C658 C 0.82649 0.95925 0.88981 0.0
C659 C 0.81063 0.93067 0.903 0.0
C660 C 0.81709 0.98977 0.89029 0.0
C661 C 0.86768 0.9873 0.86148 0.0
C662 C 0.84582 0.02738 0.89234 0.0
C663 C 0.83733 0.05635 0.89196 0.0
C664 C 0.80009 0.04841 0.88973 0.0
C665 C 0.77099 0.01069 0.88859 0.0
C666 C 0.77947 0.9815 0.88879 0.0
H667 H 0.87685 0.97672 0.84974 0.0
H668 H 0.84697 0.9953 0.85659 0.0
H669 H 0.89281 0.01306 0.8667 0.0
H670 H 0.87485 0.03434 0.89422 0.0
H671 H 0.85982 0.08491 0.89378 0.0
H672 H 0.11407 0.64712 0.14231 0.0
H673 H 0.12132 0.59114 0.14142 0.0
H674 H 0.20988 0.64525 0.1015 0.0
H675 H 0.20307 0.70137 0.10252 0.0
H676 H 0.11247 0.54601 0.11121 0.0
H677 H 0.2576 0.60833 0.1392 0.0
H678 H 0.22982 0.63124 0.14124 0.0
H679 H 0.25295 0.63316 0.12015 0.0
C680 C 0.13524 0.64711 0.13345 0.0
C681 C 0.15804 0.67852 0.12251 0.0
C682 C 0.13936 0.61517 0.13294 0.0
C683 C 0.16651 0.61423 0.12158 0.0
C684 C 0.1893 0.64564 0.11064 0.0
H685 H 0.21388 0.43062 0.09931 0.0
H686 H 0.21568 0.49167 0.09882 0.0
C687 C 0.18519 0.67755 0.11114 0.0
C688 C 0.16971 0.5797 0.1206 0.0
H689 H 0.22963 0.5456 0.12813 0.0
C690 C 0.13808 0.54594 0.11493 0.0
C691 C 0.20328 0.57974 0.12528 0.0
C692 C 0.2378 0.61495 0.13196 0.0
C693 C 0.13901 0.51218 0.11389 0.0
C694 C 0.17227 0.51201 0.11894 0.0
C695 C 0.20421 0.54588 0.12425 0.0
C696 C 0.17339 0.47639 0.11984 0.0
C697 C 0.10436 0.47694 0.10732 0.0
C698 C 0.14984 0.44815 0.13211 0.0
C699 C 0.149 0.41367 0.13248 0.0
C700 C 0.17192 0.4068 0.12069 0.0
C701 C 0.19634 0.43542 0.10872 0.0
C702 C 0.19721 0.47013 0.10836 0.0
H703 H 0.08542 0.48369 0.09938 0.0
H704 H 0.1122 0.45957 0.09873 0.0
H705 H 0.0883 0.45975 0.11924 0.0
H706 H 0.13176 0.45265 0.14131 0.0
H707 H 0.13009 0.39221 0.14195 0.0
H708 H 0.74828 0.14723 0.58726 0.0
H709 H 0.68985 0.14991 0.58793 0.0
H710 H 0.72518 0.21289 0.63817 0.0
H711 H 0.78419 0.21154 0.63714 0.0
H712 H 0.63626 0.11906 0.61249 0.0
H713 H 0.68784 0.2725 0.6112 0.0
H714 H 0.71809 0.25332 0.60616 0.0
H715 H 0.7084 0.25972 0.62939 0.0
C716 C 0.7438 0.16225 0.59824 0.0
C717 C 0.7706 0.17916 0.61214 0.0
C718 C 0.71045 0.16372 0.59864 0.0
C719 C 0.70324 0.18193 0.613 0.0
C720 C 0.73045 0.19951 0.62671 0.0
H721 H 0.47611 0.12483 0.64558 0.0
H722 H 0.53928 0.13228 0.64364 0.0
C723 C 0.76405 0.19848 0.62618 0.0
C724 C 0.66603 0.17975 0.61438 0.0
H725 H 0.62338 0.23253 0.62001 0.0
C726 C 0.63346 0.14393 0.61398 0.0
C727 C 0.66235 0.21219 0.61618 0.0
C728 C 0.69603 0.25159 0.61557 0.0
C729 C 0.59734 0.13956 0.6155 0.0
C730 C 0.59371 0.17186 0.61811 0.0
C731 C 0.62624 0.20775 0.61827 0.0
C732 C 0.55632 0.16904 0.6201 0.0
C733 C 0.56349 0.1004 0.61387 0.0
C734 C 0.54555 0.18855 0.60805 0.0
C735 C 0.50982 0.18487 0.60937 0.0
C736 C 0.48421 0.16147 0.6227 0.0
C737 C 0.49525 0.1427 0.63505 0.0
C738 C 0.53119 0.14675 0.63387 0.0
H739 H 0.57063 0.08091 0.60667 0.0
H740 H 0.55337 0.08881 0.62769 0.0
H741 H 0.54008 0.10084 0.60647 0.0
H742 H 0.56455 0.20608 0.5974 0.0
H743 H 0.50202 0.19981 0.59974 0.0
H744 H 0.62154 0.73522 0.14187 0.0
H745 H 0.55954 0.67829 0.14171 0.0
H746 H 0.52349 0.72539 0.099 0.0
H747 H 0.58646 0.78211 0.0986 0.0
H748 H 0.48952 0.6683 0.14831 0.0
H749 H 0.498 0.62361 0.07781 0.0
H750 H 0.53849 0.66044 0.08948 0.0
H751 H 0.50382 0.66998 0.07979 0.0
C752 C 0.60044 0.73346 0.1324 0.0
C753 C 0.60871 0.76317 0.12032 0.0
C754 C 0.56495 0.70095 0.13238 0.0
C755 C 0.53693 0.69732 0.12022 0.0
C756 C 0.54485 0.72728 0.10831 0.0
H757 H 0.31102 0.50129 0.10466 0.0
H758 H 0.36613 0.56512 0.10387 0.0
C759 C 0.58062 0.75988 0.10826 0.0
C760 C 0.49979 0.66185 0.12014 0.0
H761 H 0.44205 0.58501 0.09415 0.0
C762 C 0.47905 0.6502 0.13643 0.0
C763 C 0.48614 0.6382 0.10464 0.0
C764 C 0.50783 0.6484 0.08697 0.0
C765 C 0.44538 0.6154 0.13771 0.0
C766 C 0.43224 0.59143 0.12235 0.0
C767 C 0.45229 0.60348 0.10591 0.0
C768 C 0.3985 0.55314 0.12324 0.0
C769 C 0.42413 0.60449 0.1555 0.0
C770 C 0.39858 0.5252 0.1343 0.0
C771 C 0.36725 0.48872 0.13471 0.0
C772 C 0.33535 0.47959 0.12405 0.0
C773 C 0.33525 0.50761 0.11304 0.0
C774 C 0.36666 0.54402 0.11256 0.0
H775 H 0.43249 0.62941 0.1644 0.0
H776 H 0.3932 0.59017 0.15315 0.0
H777 H 0.4304 0.58457 0.16284 0.0
H778 H 0.42311 0.53149 0.14243 0.0
H779 H 0.3681 0.46761 0.14326 0.0
H780 H 0.80975 0.58447 0.598 0.0
H781 H 0.80704 0.52306 0.59663 0.0
H782 H 0.89138 0.55945 0.63878 0.0
H783 H 0.89391 0.62025 0.64031 0.0
H784 H 0.90705 0.53014 0.6064 0.0
H785 H 0.76346 0.43429 0.63424 0.0
H786 H 0.76762 0.46607 0.6163 0.0
H787 H 0.78793 0.48463 0.63815 0.0
C788 C 0.82704 0.57895 0.60721 0.0
C789 C 0.85181 0.60693 0.61936 0.0
C790 C 0.82557 0.54397 0.6064 0.0
C791 C 0.84885 0.53666 0.61771 0.0
C792 C 0.87316 0.56449 0.62996 0.0
H793 H 0.91577 0.37123 0.63812 0.0
H794 H 0.90862 0.42708 0.63627 0.0
C795 C 0.87458 0.59922 0.6308 0.0
C796 C 0.84987 0.50103 0.61629 0.0
H797 H 0.80001 0.40682 0.62595 0.0
C798 C 0.88358 0.50311 0.61058 0.0
C799 C 0.81911 0.46583 0.6216 0.0
C800 C 0.78246 0.46229 0.62803 0.0
C801 C 0.88762 0.47103 0.61026 0.0
C802 C 0.85742 0.43603 0.61629 0.0
C803 C 0.82324 0.43371 0.62147 0.0
C804 C 0.86118 0.40182 0.61772 0.0
C805 C 0.92416 0.47499 0.60332 0.0
C806 C 0.8361 0.3686 0.60844 0.0
C807 C 0.83989 0.33653 0.60967 0.0
C808 C 0.8688 0.33714 0.62022 0.0
C809 C 0.89352 0.37015 0.62973 0.0
C810 C 0.88957 0.40212 0.62859 0.0
H811 H 0.93905 0.49967 0.59411 0.0
H812 H 0.94306 0.47942 0.61502 0.0
H813 H 0.91925 0.44928 0.5959 0.0
H814 H 0.81382 0.3676 0.60008 0.0
H815 H 0.82028 0.31132 0.60229 0.0
H816 H 0.55915 0.91576 0.13076 0.0
H817 H 0.49679 0.9099 0.12777 0.0
H818 H 0.45179 0.79675 0.10706 0.0
H819 H 0.51426 0.80277 0.10968 0.0
H820 H 0.42962 0.83839 0.08673 0.0
H821 H 0.40527 0.85004 0.16009 0.0
H822 H 0.44845 0.88888 0.15169 0.0
H823 H 0.44249 0.84225 0.15204 0.0
C824 C 0.53586 0.88957 0.12569 0.0
C825 C 0.54139 0.85965 0.12053 0.0
C826 C 0.50024 0.88619 0.12406 0.0
C827 C 0.4695 0.85269 0.11743 0.0
C828 C 0.47507 0.8228 0.11226 0.0
H829 H 0.23583 0.7946 0.12846 0.0
H830 H 0.29556 0.7948 0.12856 0.0
C831 C 0.5107 0.82623 0.11381 0.0
C832 C 0.43169 0.84901 0.11553 0.0
H833 H 0.36219 0.85294 0.13943 0.0
C834 C 0.41477 0.84141 0.09826 0.0
C835 C 0.41214 0.85247 0.13062 0.0
C836 C 0.4278 0.85849 0.14969 0.0
C837 C 0.37906 0.83773 0.09562 0.0
C838 C 0.36012 0.84247 0.11061 0.0
C839 C 0.37685 0.84958 0.12792 0.0
C840 C 0.32271 0.83981 0.10883 0.0
C841 C 0.36171 0.82811 0.07689 0.0
C842 C 0.31781 0.86462 0.09745 0.0
C843 C 0.28334 0.86413 0.09716 0.0
C844 C 0.25343 0.83914 0.10839 0.0
C845 C 0.25816 0.8138 0.11944 0.0
C846 C 0.29241 0.81409 0.11963 0.0
H847 H 0.37453 0.81511 0.06831 0.0
H848 H 0.33079 0.80842 0.07765 0.0
H849 H 0.36659 0.85435 0.07005 0.0
H850 H 0.34101 0.88526 0.08929 0.0
H851 H 0.28058 0.88421 0.08864 0.0
H852 H 0.71171 0.51326 0.60461 0.0
H853 H 0.65462 0.45088 0.60304 0.0
H854 H 0.5977 0.48909 0.63932 0.0
H855 H 0.65439 0.55162 0.64063 0.0
H856 H 0.61368 0.39833 0.62954 0.0
H857 H 0.52556 0.44888 0.5965 0.0
H858 H 0.57618 0.47775 0.59827 0.0
H859 H 0.54654 0.4733 0.61731 0.0
C860 C 0.68696 0.5083 0.61223 0.0
C861 C 0.68728 0.53733 0.6226 0.0
C862 C 0.65442 0.47267 0.61134 0.0
C863 C 0.62162 0.46551 0.62077 0.0
C864 C 0.62234 0.49422 0.63157 0.0
H865 H 0.39884 0.283 0.64139 0.0
H866 H 0.46025 0.34081 0.64045 0.0
C867 C 0.6548 0.52986 0.63241 0.0
C868 C 0.58659 0.42813 0.61932 0.0
H869 H 0.49302 0.38638 0.60854 0.0
C870 C 0.58737 0.39562 0.62477 0.0
C871 C 0.55234 0.42457 0.61292 0.0
C872 C 0.55008 0.45792 0.60574 0.0
C873 C 0.55443 0.35991 0.62474 0.0
C874 C 0.51999 0.35668 0.61898 0.0
C875 C 0.51945 0.389 0.61307 0.0
C876 C 0.48366 0.32053 0.6199 0.0
C877 C 0.55634 0.32609 0.63147 0.0
C878 C 0.47639 0.28988 0.60861 0.0
C879 C 0.44107 0.25672 0.60906 0.0
C880 C 0.41267 0.25379 0.62085 0.0
C881 C 0.4202 0.28444 0.63217 0.0
C882 C 0.45528 0.31747 0.63167 0.0
H883 H 0.58369 0.33428 0.63819 0.0
H884 H 0.53309 0.30955 0.64123 0.0
H885 H 0.5529 0.30742 0.61979 0.0
H886 H 0.49768 0.29193 0.59918 0.0
H887 H 0.43568 0.23389 0.59987 0.0
H888 H 0.31127 0.81454 0.40969 0.0
H889 H 0.36797 0.80869 0.41149 0.0
H890 H 0.42423 0.90018 0.37322 0.0
H891 H 0.36795 0.90667 0.37171 0.0
H892 H 0.40761 0.794 0.38557 0.0
H893 H 0.49777 0.93578 0.41546 0.0
H894 H 0.44714 0.91426 0.41398 0.0
H895 H 0.47627 0.93738 0.39448 0.0
C896 C 0.33578 0.8334 0.40168 0.0
C897 C 0.33544 0.86133 0.3907 0.0
C898 C 0.3681 0.82998 0.40269 0.0
C899 C 0.40062 0.85448 0.39278 0.0
C900 C 0.39981 0.88159 0.38135 0.0
H901 H 0.62144 0.89145 0.37149 0.0
H902 H 0.55999 0.88766 0.37244 0.0
C903 C 0.36759 0.88514 0.3804 0.0
C904 C 0.43548 0.85195 0.39442 0.0
H905 H 0.52948 0.90431 0.40421 0.0
C906 C 0.43419 0.81797 0.38982 0.0
C907 C 0.47008 0.88311 0.40018 0.0
C908 C 0.47292 0.91956 0.40649 0.0
C909 C 0.46696 0.81492 0.39006 0.0
C910 C 0.50172 0.84659 0.39512 0.0
C911 C 0.50278 0.88015 0.40022 0.0
C912 C 0.53789 0.84655 0.39416 0.0
C913 C 0.46453 0.77839 0.38427 0.0
C914 C 0.54586 0.82461 0.40609 0.0
C915 C 0.58122 0.8269 0.40564 0.0
C916 C 0.60891 0.85102 0.3932 0.0
C917 C 0.60062 0.87259 0.38121 0.0
C918 C 0.56552 0.87042 0.38171 0.0
H919 H 0.43673 0.75847 0.37814 0.0
H920 H 0.4871 0.78389 0.37428 0.0
H921 H 0.46878 0.76458 0.39631 0.0
H922 H 0.52512 0.80649 0.41602 0.0
H923 H 0.58721 0.8106 0.41529 0.0
H924 H 0.74962 0.62121 0.92288 0.0
H925 H 0.69114 0.56014 0.92314 0.0
H926 H 0.73733 0.51881 0.88226 0.0
H927 H 0.79642 0.5793 0.8827 0.0
H928 H 0.6438 0.53095 0.89706 0.0
H929 H 0.69036 0.42902 0.91424 0.0
H930 H 0.72099 0.47926 0.91667 0.0
H931 H 0.71492 0.45699 0.8948 0.0
C932 C 0.74756 0.59862 0.91437 0.0
C933 C 0.77761 0.60456 0.90304 0.0
C934 C 0.71411 0.56382 0.91443 0.0
C935 C 0.70978 0.53452 0.90287 0.0
C936 C 0.74021 0.54036 0.89173 0.0
H937 H 0.48513 0.3587 0.86832 0.0
H938 H 0.54836 0.41444 0.86993 0.0
C939 C 0.77401 0.57497 0.89197 0.0
C940 C 0.67238 0.49942 0.90137 0.0
H941 H 0.62825 0.40312 0.90183 0.0
C942 C 0.64044 0.50302 0.89827 0.0
C943 C 0.66777 0.46287 0.90304 0.0
C944 C 0.7003 0.45677 0.90756 0.0
C945 C 0.60419 0.47134 0.89682 0.0
C946 C 0.59976 0.43478 0.89772 0.0
C947 C 0.63164 0.4311 0.90089 0.0
C948 C 0.56215 0.40004 0.89608 0.0
C949 C 0.57099 0.47759 0.89488 0.0
C950 C 0.54942 0.37244 0.90978 0.0
C951 C 0.51374 0.34019 0.90864 0.0
C952 C 0.48992 0.33509 0.89386 0.0
C953 C 0.50279 0.36226 0.87998 0.0
C954 C 0.5388 0.39423 0.88097 0.0
H955 H 0.57773 0.50582 0.90004 0.0
H956 H 0.56359 0.4762 0.88028 0.0
H957 H 0.54594 0.4558 0.90235 0.0
H958 H 0.5669 0.37611 0.92154 0.0
H959 H 0.50453 0.31956 0.91949 0.0
H960 H 0.21312 0.78807 0.41586 0.0
H961 H 0.21977 0.73155 0.41579 0.0
H962 H 0.13957 0.68497 0.37181 0.0
H963 H 0.13351 0.74137 0.37159 0.0
H964 H 0.1609 0.65644 0.42143 0.0
H965 H 0.22729 0.67187 0.3539 0.0
H966 H 0.22684 0.71066 0.36541 0.0
H967 H 0.18593 0.67644 0.35311 0.0
C968 C 0.1976 0.76606 0.40595 0.0
C969 C 0.17321 0.7692 0.39357 0.0
C970 C 0.2012 0.73376 0.406 0.0
C971 C 0.18065 0.70439 0.39358 0.0
C972 C 0.15633 0.70764 0.38123 0.0
H973 H 0.12111 0.47655 0.37027 0.0
H974 H 0.1307 0.5406 0.37171 0.0
C975 C 0.15266 0.73973 0.38122 0.0
C976 C 0.18251 0.66916 0.39408 0.0
H977 H 0.19833 0.61025 0.3673 0.0
C978 C 0.16966 0.64655 0.40973 0.0
C979 C 0.19389 0.65637 0.37876 0.0
C980 C 0.20962 0.68026 0.3619 0.0
C981 C 0.16611 0.61059 0.41014 0.0
C982 C 0.1763 0.59728 0.39459 0.0
C983 C 0.19033 0.62044 0.37917 0.0
C984 C 0.1711 0.55877 0.39376 0.0
C985 C 0.14993 0.58649 0.42691 0.0
C986 C 0.19096 0.54793 0.40554 0.0
C987 C 0.18543 0.51135 0.40477 0.0
C988 C 0.16011 0.48514 0.39213 0.0
C989 C 0.14067 0.49618 0.38018 0.0
C990 C 0.14618 0.53273 0.38097 0.0
H991 H 0.13603 0.59752 0.43606 0.0
H992 H 0.12904 0.55697 0.42315 0.0
H993 H 0.17301 0.58609 0.43463 0.0
H994 H 0.21084 0.56781 0.41527 0.0
H995 H 0.20102 0.50362 0.41402 0.0
H996 H 0.65219 0.09788 0.87974 0.0
H997 H 0.59587 0.10402 0.88287 0.0
H998 H 0.6636 0.21462 0.90643 0.0
H999 H 0.71987 0.20832 0.9036 0.0
H1000 H 0.5983 0.1706 0.92582 0.0
H1001 H 0.56656 0.16822 0.85234 0.0
H1002 H 0.57043 0.1284 0.85955 0.0
H1003 H 0.6111 0.17499 0.8605 0.0
C1004 C 0.65506 0.12359 0.88545 0.0
C1005 C 0.69034 0.15267 0.89137 0.0
C1006 C 0.62291 0.12714 0.88718 0.0
C1007 C 0.62558 0.15998 0.89467 0.0
C1008 C 0.66088 0.18908 0.90056 0.0
H1009 H 0.45055 0.21978 0.88642 0.0
H1010 H 0.51007 0.21952 0.88593 0.0
C1011 C 0.693 0.18549 0.8989 0.0
C1012 C 0.59144 0.16366 0.89677 0.0
H1013 H 0.51938 0.16279 0.87301 0.0
C1014 C 0.58111 0.16906 0.91427 0.0
C1015 C 0.56931 0.16213 0.88167 0.0
C1016 C 0.58004 0.15849 0.86243 0.0
C1017 C 0.54888 0.17233 0.91711 0.0
C1018 C 0.52603 0.16948 0.90208 0.0
C1019 C 0.53673 0.16467 0.88456 0.0
C1020 C 0.49107 0.17175 0.90406 0.0
C1021 C 0.53997 0.17944 0.93613 0.0
C1022 C 0.46067 0.14534 0.91465 0.0
C1023 C 0.42664 0.14574 0.91514 0.0
C1024 C 0.42237 0.17232 0.90489 0.0
C1025 C 0.45311 0.19924 0.89465 0.0
C1026 C 0.48709 0.19896 0.89425 0.0
H1027 H 0.56525 0.19123 0.94506 0.0
H1028 H 0.52884 0.19922 0.93603 0.0
H1029 H 0.51815 0.15236 0.94215 0.0
H1030 H 0.46277 0.1236 0.92205 0.0
H1031 H 0.4033 0.12448 0.92302 0.0
H1032 H 0.28232 0.40952 0.42207 0.0
H1033 H 0.33977 0.4713 0.42062 0.0
H1034 H 0.28857 0.50705 0.37982 0.0
H1035 H 0.23137 0.44489 0.38087 0.0
H1036 H 0.35801 0.5199 0.36967 0.0
H1037 H 0.36497 0.57457 0.43934 0.0
H1038 H 0.35968 0.52833 0.43923 0.0
H1039 H 0.32263 0.53512 0.43021 0.0
C1040 C 0.28312 0.43079 0.41302 0.0
C1041 C 0.25243 0.42254 0.40163 0.0
C1042 C 0.31585 0.46615 0.41228 0.0
C1043 C 0.31828 0.49395 0.40028 0.0
C1044 C 0.2872 0.48607 0.38925 0.0
H1045 H 0.51285 0.72247 0.39925 0.0
H1046 H 0.44865 0.66827 0.40062 0.0
C1047 C 0.2545 0.45065 0.38993 0.0
C1048 C 0.35432 0.52996 0.39818 0.0
H1049 H 0.4221 0.6051 0.42187 0.0
C1050 C 0.37184 0.53877 0.38104 0.0
C1051 C 0.37212 0.55475 0.41296 0.0
C1052 C 0.35371 0.54795 0.43143 0.0
C1053 C 0.40727 0.57104 0.37841 0.0
C1054 C 0.42599 0.59472 0.39342 0.0
C1055 C 0.4079 0.58665 0.41042 0.0
C1056 C 0.46461 0.62766 0.39188 0.0
C1057 C 0.42425 0.57952 0.35958 0.0
C1058 C 0.49488 0.62276 0.38658 0.0
C1059 C 0.5315 0.65367 0.3857 0.0
C1060 C 0.53845 0.68988 0.39031 0.0
C1061 C 0.50819 0.69479 0.39562 0.0
C1062 C 0.47157 0.6639 0.39642 0.0
H1063 H 0.40226 0.56561 0.34892 0.0
H1064 H 0.44006 0.61037 0.35693 0.0
H1065 H 0.44414 0.56865 0.35833 0.0
H1066 H 0.49027 0.59491 0.3834 0.0
H1067 H 0.55441 0.64916 0.38169 0.0
H1068 H 0.82508 0.51319 0.91033 0.0
H1069 H 0.81718 0.4498 0.91209 0.0
H1070 H 0.90377 0.48057 0.87139 0.0
H1071 H 0.91219 0.54414 0.86979 0.0
H1072 H 0.7985 0.39423 0.88533 0.0
H1073 H 0.94104 0.44291 0.9137 0.0
H1074 H 0.92018 0.47269 0.91293 0.0
H1075 H 0.94183 0.46636 0.89294 0.0
C1076 C 0.84244 0.50638 0.90178 0.0
C1077 C 0.86955 0.53357 0.89006 0.0
C1078 C 0.83781 0.47019 0.90276 0.0
C1079 C 0.86034 0.46075 0.89211 0.0
C1080 C 0.88666 0.48758 0.88001 0.0
H1081 H 0.89267 0.27525 0.86997 0.0
H1082 H 0.88894 0.33292 0.87088 0.0
C1083 C 0.89135 0.52377 0.87904 0.0
C1084 C 0.85672 0.42301 0.89373 0.0
H1085 H 0.90746 0.37953 0.90287 0.0
C1086 C 0.82214 0.39087 0.88935 0.0
C1087 C 0.88752 0.41878 0.89918 0.0
C1088 C 0.92463 0.45197 0.90514 0.0
C1089 C 0.81816 0.35469 0.88944 0.0
C1090 C 0.84947 0.35078 0.89418 0.0
C1091 C 0.88359 0.38275 0.89914 0.0
C1092 C 0.84855 0.31427 0.89294 0.0
C1093 C 0.78108 0.32111 0.88383 0.0
C1094 C 0.8268 0.28455 0.905 0.0
C1095 C 0.82897 0.25145 0.90453 0.0
C1096 C 0.8529 0.24783 0.892 0.0
C1097 C 0.87402 0.27736 0.87977 0.0
C1098 C 0.87188 0.31026 0.88025 0.0
H1099 H 0.76137 0.32962 0.87805 0.0
H1100 H 0.78579 0.3039 0.8736 0.0
H1101 H 0.76744 0.30297 0.89587 0.0
H1102 H 0.80911 0.28743 0.9151 0.0
H1103 H 0.81305 0.22937 0.91434 0.0
H1104 H 0.17167 0.40148 0.33058 0.0
H1105 H 0.17705 0.40153 0.29753 0.0
H1106 H 0.18577 0.30095 0.30017 0.0
H1107 H 0.1808 0.30073 0.33337 0.0
H1108 H 0.2379 0.35627 0.27618 0.0
H1109 H 0.09205 0.3275 0.26385 0.0
H1110 H 0.11984 0.36773 0.27809 0.0
H1111 H 0.1078 0.32138 0.28585 0.0
C1112 C 0.17484 0.37935 0.32421 0.0
C1113 C 0.17552 0.35092 0.3347 0.0
C1114 C 0.17772 0.37937 0.30527 0.0
C1115 C 0.18111 0.35087 0.29639 0.0
C1116 C 0.18294 0.32307 0.30678 0.0
H1117 H 0.14204 0.28982 0.18249 0.0
H1118 H 0.13987 0.29267 0.2156 0.0
C1119 C 0.18008 0.32302 0.32576 0.0
C1120 C 0.18244 0.34996 0.27625 0.0
H1121 H 0.13186 0.3427 0.23802 0.0
C1122 C 0.21473 0.35326 0.26781 0.0
C1123 C 0.15195 0.34555 0.26539 0.0
C1124 C 0.11578 0.33998 0.27371 0.0
C1125 C 0.21757 0.35278 0.24877 0.0
C1126 C 0.18752 0.34948 0.23791 0.0
C1127 C 0.15503 0.34567 0.24637 0.0
C1128 C 0.18865 0.34861 0.21775 0.0
C1129 C 0.25237 0.35505 0.24045 0.0
C1130 C 0.21635 0.37949 0.20792 0.0
C1131 C 0.21773 0.37799 0.18893 0.0
C1132 C 0.19127 0.34562 0.17942 0.0
C1133 C 0.16295 0.31517 0.18932 0.0
C1134 C 0.16164 0.31671 0.20828 0.0
H1135 H 0.2683 0.34814 0.25049 0.0
H1136 H 0.24487 0.33553 0.2287 0.0
H1137 H 0.27131 0.38419 0.2355 0.0
H1138 H 0.23698 0.40472 0.21494 0.0
H1139 H 0.23979 0.40204 0.18176 0.0
H1140 H 0.84762 0.13079 0.67941 0.0
H1141 H 0.84184 0.12504 0.71258 0.0
H1142 H 0.84205 0.23035 0.71559 0.0
H1143 H 0.84811 0.23658 0.6826 0.0
H1144 H 0.89261 0.22604 0.73958 0.0
H1145 H 0.74968 0.0996 0.74484 0.0
H1146 H 0.78203 0.09391 0.73046 0.0
H1147 H 0.76706 0.12679 0.72417 0.0
C1148 C 0.84608 0.15256 0.6871 0.0
C1149 C 0.84827 0.18411 0.67828 0.0
C1150 C 0.84262 0.14914 0.70606 0.0
C1151 C 0.84113 0.17709 0.71653 0.0
C1152 C 0.84304 0.20841 0.70776 0.0
H1153 H 0.78341 0.16814 0.83115 0.0
H1154 H 0.78612 0.1735 0.79796 0.0
C1155 C 0.84644 0.21185 0.68886 0.0
C1156 C 0.83925 0.17472 0.73668 0.0
H1157 H 0.78471 0.12177 0.77224 0.0
C1158 C 0.869 0.20328 0.74674 0.0
C1159 C 0.8082 0.14526 0.74596 0.0
C1160 C 0.77472 0.11478 0.73586 0.0
C1161 C 0.8688 0.20291 0.76584 0.0
C1162 C 0.83826 0.17289 0.77512 0.0
C1163 C 0.80822 0.14461 0.76508 0.0
C1164 C 0.83706 0.17026 0.79527 0.0
C1165 C 0.90102 0.23497 0.77591 0.0
C1166 C 0.86471 0.16648 0.80476 0.0
C1167 C 0.86333 0.16351 0.82372 0.0
C1168 C 0.83409 0.164 0.8336 0.0
C1169 C 0.80639 0.16776 0.82402 0.0
C1170 C 0.80781 0.17073 0.80504 0.0
H1171 H 0.91674 0.26021 0.76711 0.0
H1172 H 0.8907 0.24311 0.78811 0.0
H1173 H 0.92106 0.22587 0.78048 0.0
H1174 H 0.88715 0.16538 0.79747 0.0
H1175 H 0.88504 0.16043 0.83058 0.0
H1176 H 0.72202 0.8448 0.18241 0.0
H1177 H 0.71668 0.83837 0.21545 0.0
H1178 H 0.61041 0.83637 0.21355 0.0
H1179 H 0.61557 0.84315 0.18043 0.0
H1180 H 0.66081 0.88641 0.23953 0.0
H1181 H 0.64653 0.74477 0.24566 0.0
H1182 H 0.68652 0.77746 0.23241 0.0
H1183 H 0.63963 0.76266 0.22443 0.0
C1184 C 0.69732 0.84271 0.18895 0.0
C1185 C 0.66919 0.84445 0.17871 0.0
C1186 C 0.69424 0.83882 0.20786 0.0
C1187 C 0.66292 0.8364 0.21693 0.0
C1188 C 0.63472 0.838 0.20679 0.0
H1189 H 0.6148 0.77894 0.332 0.0
H1190 H 0.60981 0.78111 0.29892 0.0
C1191 C 0.63772 0.84181 0.18785 0.0
C1192 C 0.66049 0.83382 0.23706 0.0
H1193 H 0.65959 0.7806 0.27302 0.0
C1194 C 0.66023 0.86314 0.24686 0.0
C1195 C 0.6593 0.80322 0.24658 0.0
C1196 C 0.65764 0.77003 0.23675 0.0
C1197 C 0.65999 0.86325 0.26597 0.0
C1198 C 0.66049 0.83348 0.27549 0.0
C1199 C 0.65955 0.80357 0.26568 0.0
C1200 C 0.66279 0.83318 0.29562 0.0
C1201 C 0.65907 0.89516 0.2758 0.0
C1202 C 0.69431 0.8617 0.30474 0.0
C1203 C 0.69729 0.86059 0.32364 0.0
C1204 C 0.66888 0.83078 0.33382 0.0
C1205 C 0.63719 0.80237 0.32464 0.0
C1206 C 0.63428 0.8035 0.30571 0.0
H1207 H 0.6484 0.90971 0.2669 0.0
H1208 H 0.64104 0.88481 0.28814 0.0
H1209 H 0.68811 0.91623 0.28011 0.0
H1210 H 0.71699 0.88449 0.29718 0.0
H1211 H 0.72217 0.88287 0.33022 0.0
H1212 H 0.78186 0.61093 0.68051 0.0
H1213 H 0.78447 0.60589 0.71358 0.0
H1214 H 0.88609 0.71456 0.71531 0.0
H1215 H 0.88405 0.71981 0.68228 0.0
H1216 H 0.88925 0.65928 0.73677 0.0
H1217 H 0.75929 0.66638 0.75027 0.0
H1218 H 0.75373 0.6303 0.73454 0.0
H1219 H 0.78329 0.67911 0.7286 0.0
C1220 C 0.80488 0.63373 0.68788 0.0
C1221 C 0.83262 0.6659 0.6787 0.0
C1222 C 0.80618 0.63087 0.70681 0.0
C1223 C 0.83514 0.66012 0.71691 0.0
C1224 C 0.86339 0.69175 0.70777 0.0
H1225 H 0.85203 0.71484 0.83095 0.0
H1226 H 0.84498 0.71105 0.79792 0.0
C1227 C 0.86212 0.69469 0.68887 0.0
C1228 C 0.83606 0.65803 0.73704 0.0
H1229 H 0.78844 0.65601 0.77562 0.0
C1230 C 0.86716 0.6584 0.74528 0.0
C1231 C 0.80739 0.65736 0.74809 0.0
C1232 C 0.77415 0.65859 0.74 0.0
C1233 C 0.87039 0.65812 0.7643 0.0
C1234 C 0.84147 0.65691 0.77535 0.0
C1235 C 0.81037 0.65656 0.76711 0.0
C1236 C 0.8439 0.65784 0.7955 0.0
C1237 C 0.90527 0.66024 0.7724 0.0
C1238 C 0.84479 0.62873 0.80515 0.0
C1239 C 0.84887 0.63078 0.82409 0.0
C1240 C 0.852 0.66196 0.83374 0.0
C1241 C 0.8499 0.69048 0.82402 0.0
C1242 C 0.84581 0.68837 0.80511 0.0
H1243 H 0.92838 0.66953 0.76226 0.0
H1244 H 0.91567 0.68001 0.78413 0.0
H1245 H 0.89827 0.63188 0.77739 0.0
H1246 H 0.84263 0.60456 0.79802 0.0
H1247 H 0.85012 0.60817 0.83111 0.0
H1248 H 0.16814 0.7683 0.18255 0.0
H1249 H 0.17381 0.77191 0.21568 0.0
H1250 H 0.18359 0.88179 0.21476 0.0
H1251 H 0.17842 0.87876 0.18161 0.0
H1252 H 0.23603 0.87774 0.23765 0.0
H1253 H 0.0906 0.76019 0.2508 0.0
H1254 H 0.1182 0.74836 0.23607 0.0
H1255 H 0.10552 0.78248 0.22882 0.0
C1256 C 0.17155 0.7933 0.18934 0.0
C1257 C 0.17257 0.82315 0.17936 0.0
C1258 C 0.17459 0.7952 0.20832 0.0
C1259 C 0.1785 0.82684 0.2177 0.0
C1260 C 0.1804 0.85702 0.20778 0.0
H1261 H 0.14089 0.85196 0.33101 0.0
H1262 H 0.13856 0.84489 0.298 0.0
C1263 C 0.17738 0.85519 0.18881 0.0
C1264 C 0.18057 0.82856 0.23786 0.0
H1265 H 0.13066 0.78579 0.27637 0.0
C1266 C 0.21305 0.85762 0.24614 0.0
C1267 C 0.15034 0.80252 0.24888 0.0
C1268 C 0.11402 0.7718 0.24074 0.0
C1269 C 0.21619 0.86127 0.26516 0.0
C1270 C 0.18626 0.83478 0.27618 0.0
C1271 C 0.15372 0.80581 0.2679 0.0
C1272 C 0.18737 0.83771 0.29633 0.0
C1273 C 0.25108 0.89406 0.27327 0.0
C1274 C 0.21517 0.83526 0.30642 0.0
C1275 C 0.21667 0.83937 0.32537 0.0
C1276 C 0.19023 0.8458 0.33457 0.0
C1277 C 0.1618 0.84717 0.32442 0.0
C1278 C 0.16038 0.84311 0.30551 0.0
H1279 H 0.2671 0.9165 0.26305 0.0
H1280 H 0.24364 0.90659 0.28483 0.0
H1281 H 0.2699 0.88394 0.27846 0.0
H1282 H 0.23582 0.83033 0.29964 0.0
H1283 H 0.2388 0.83791 0.33274 0.0
H1284 H 0.30984 0.13976 0.8319 0.0
H1285 H 0.31409 0.13822 0.79879 0.0
H1286 H 0.41576 0.24694 0.79961 0.0
H1287 H 0.41165 0.24905 0.83273 0.0
H1288 H 0.36311 0.2417 0.77401 0.0
H1289 H 0.38784 0.12062 0.76827 0.0
H1290 H 0.34716 0.11078 0.78163 0.0
H1291 H 0.3934 0.14543 0.7894 0.0
C1292 C 0.33327 0.1633 0.82509 0.0
C1293 C 0.36045 0.19451 0.83503 0.0
C1294 C 0.33575 0.16224 0.80615 0.0
C1295 C 0.36553 0.19222 0.79678 0.0
C1296 C 0.39266 0.22342 0.80661 0.0
H1297 H 0.41308 0.18351 0.68139 0.0
H1298 H 0.41907 0.19201 0.71444 0.0
C1299 C 0.39025 0.22452 0.82556 0.0
C1300 C 0.36753 0.19165 0.77665 0.0
H1301 H 0.37224 0.14089 0.74087 0.0
C1302 C 0.3654 0.21984 0.76676 0.0
C1303 C 0.37102 0.16339 0.76723 0.0
C1304 C 0.37536 0.13352 0.77715 0.0
C1305 C 0.36549 0.21986 0.74766 0.0
C1306 C 0.36726 0.19063 0.73823 0.0
C1307 C 0.37059 0.16311 0.74813 0.0
C1308 C 0.36445 0.18736 0.71814 0.0
C1309 C 0.36378 0.25123 0.73773 0.0
C1310 C 0.33173 0.18185 0.70929 0.0
C1311 C 0.32821 0.17703 0.69044 0.0
C1312 C 0.35727 0.17736 0.68005 0.0
C1313 C 0.3902 0.1832 0.68895 0.0
C1314 C 0.39366 0.188 0.70784 0.0
H1315 H 0.37332 0.27653 0.7465 0.0
H1316 H 0.38145 0.25955 0.72525 0.0
H1317 H 0.33418 0.24135 0.73365 0.0
H1318 H 0.30854 0.18051 0.71701 0.0
H1319 H 0.30237 0.17243 0.68409 0.0
H1320 H 0.27103 0.16475 0.9472 0.0
H1321 H 0.25062 0.18357 0.97453 0.0
H1322 H 0.35812 0.28643 0.97724 0.0
H1323 H 0.37915 0.26762 0.95006 0.0
H1324 H 0.33204 0.25334 0.01109 0.0
H1325 H 0.22038 0.26454 0.9736 0.0
H1326 H 0.21682 0.21912 0.97183 0.0
H1327 H 0.25686 0.25984 0.96217 0.0
C1328 C 0.29061 0.19117 0.95371 0.0
C1329 C 0.3267 0.21478 0.94632 0.0
C1330 C 0.27871 0.20203 0.96926 0.0
C1331 C 0.30248 0.23685 0.97765 0.0
C1332 C 0.33919 0.25959 0.97088 0.0
H1333 H 0.28055 0.36451 0.06677 0.0
H1334 H 0.30075 0.34396 0.03992 0.0
C1335 C 0.3512 0.2487 0.95536 0.0
C1336 C 0.28881 0.24993 0.99322 0.0
H1337 H 0.22137 0.27164 1.00569 0.0
C1338 C 0.30795 0.25748 0.0099 0.0
C1339 C 0.2574 0.25544 0.99161 0.0
C1340 C 0.23685 0.24968 0.9738 0.0
C1341 C 0.29612 0.26974 0.02509 0.0
C1342 C 0.26464 0.27505 0.02349 0.0
C1343 C 0.24547 0.26749 1.00685 0.0
C1344 C 0.25122 0.28835 0.03903 0.0
C1345 C 0.31694 0.27629 0.04286 0.0
C1346 C 0.21605 0.26434 0.04703 0.0
C1347 C 0.20431 0.27598 0.06238 0.0
C1348 C 0.22742 0.31204 0.06993 0.0
C1349 C 0.26199 0.33656 0.06138 0.0
C1350 C 0.27375 0.3248 0.04609 0.0
H1351 H 0.33534 0.26352 0.04288 0.0
H1352 H 0.33498 0.30709 0.04517 0.0
H1353 H 0.29679 0.26441 0.0544 0.0
H1354 H 0.19816 0.23617 0.0417 0.0
H1355 H 0.17753 0.25632 0.06857 0.0
H1356 H 0.11047 0.37559 0.44769 0.0
H1357 H 0.07039 0.35638 0.47479 0.0
H1358 H 0.05994 0.24629 0.47232 0.0
H1359 H 0.10026 0.26522 0.44541 0.0
H1360 H 0.99594 0.29736 0.47665 0.0
H1361 H 0.08585 0.27499 0.52568 0.0
H1362 H 0.10413 0.30093 0.50475 0.0
H1363 H 0.07864 0.25018 0.50457 0.0
C1364 C 0.10022 0.34748 0.45307 0.0
C1365 C 0.10877 0.32202 0.44435 0.0
C1366 C 0.07717 0.33652 0.46853 0.0
C1367 C 0.06244 0.30003 0.47567 0.0
C1368 C 0.07157 0.27483 0.46726 0.0
H1369 H 0.90891 0.17118 0.56258 0.0
H1370 H 0.948 0.19193 0.53522 0.0
C1371 C 0.0946 0.28573 0.45182 0.0
C1372 C 0.03582 0.28756 0.49127 0.0
H1373 H 0.02198 0.25185 0.53435 0.0
C1374 C 1.00172 0.28766 0.48933 0.0
C1375 C 0.04335 0.27478 0.50776 0.0
C1376 C 0.08012 0.27548 0.51094 0.0
C1377 C 0.97459 0.27454 0.50329 0.0
C1378 C 0.98204 0.26152 0.51972 0.0
C1379 C 0.01623 0.26164 0.52169 0.0
C1380 C 0.95503 0.24795 0.53517 0.0
C1381 C 0.93783 0.27387 0.50016 0.0
C1382 C 0.9454 0.27234 0.54406 0.0
C1383 C 0.92287 0.26052 0.55971 0.0
C1384 C 0.9098 0.22415 0.56685 0.0
C1385 C 0.9184 0.19936 0.5575 0.0
C1386 C 0.94089 0.21121 0.54187 0.0
H1387 H 0.93245 0.27528 0.48544 0.0
H1388 H 0.91376 0.24797 0.50599 0.0
H1389 H 0.93899 0.29865 0.50694 0.0
H1390 H 0.95649 0.30102 0.53931 0.0
H1391 H 0.91702 0.28046 0.56658 0.0
H1392 H 0.76257 0.91319 0.06782 0.0
H1393 H 0.78406 0.95253 0.04055 0.0
H1394 H 0.67697 0.94853 0.03693 0.0
H1395 H 0.65488 0.90857 0.06397 0.0
H1396 H 0.70288 0.94052 1.00357 0.0
H1397 H 0.81557 0.06388 0.04049 0.0
H1398 H 0.81865 0.02178 0.04244 0.0
H1399 H 0.77897 0.02312 0.05212 0.0
C1400 C 0.74335 0.92025 0.06113 0.0
C1401 C 0.70701 0.9078 0.0682 0.0
C1402 C 0.75586 0.94309 0.04562 0.0
C1403 C 0.73247 0.95425 0.03697 0.0
C1404 C 0.69563 0.94053 0.04349 0.0
H1405 H 0.7523 0.10158 0.94771 0.0
H1406 H 0.73352 0.06183 0.97486 0.0
C1407 C 0.68301 0.91757 0.05895 0.0
C1408 C 0.74643 0.9806 0.02126 0.0
H1409 H 0.81392 0.06947 0.00842 0.0
C1410 C 0.72709 0.96873 1.00464 0.0
C1411 C 0.77801 0.01748 0.0227 0.0
C1412 C 0.79884 0.03255 0.04043 0.0
C1413 C 0.73872 0.99255 0.98938 0.0
C1414 C 0.77024 0.02936 0.99083 0.0
C1415 C 0.78977 0.04121 0.00738 0.0
C1416 C 0.78315 0.05593 0.97526 0.0
C1417 C 0.71753 0.97801 0.97171 0.0
C1418 C 0.81796 0.06692 0.9669 0.0
C1419 C 0.8289 0.08974 0.95136 0.0
C1420 C 0.8053 0.10223 0.94399 0.0
C1421 C 0.77119 0.09249 0.95294 0.0
C1422 C 0.76025 0.06955 0.96842 0.0
H1423 H 0.69929 0.9468 0.97175 0.0
H1424 H 0.69927 0.99054 0.96954 0.0
H1425 H 0.73742 0.98629 0.96006 0.0
H1426 H 0.83613 0.05685 0.97206 0.0
H1427 H 0.85534 0.09665 0.94486 0.0
H1428 H 0.74745 0.65301 0.56546 0.0
H1429 H 0.72957 0.67441 0.53816 0.0
H1430 H 0.83323 0.78113 0.54104 0.0
H1431 H 0.85153 0.76007 0.56832 0.0
H1432 H 0.72113 0.74005 0.53656 0.0
H1433 H 0.82794 0.7478 0.48729 0.0
H1434 H 0.81672 0.72079 0.50809 0.0
H1435 H 0.84619 0.77121 0.50869 0.0
C1436 C 0.76681 0.68083 0.56016 0.0
C1437 C 0.80104 0.70474 0.56911 0.0
C1438 C 0.75642 0.69305 0.54458 0.0
C1439 C 0.78017 0.72924 0.5375 0.0
C1440 C 0.81472 0.75288 0.54612 0.0
H1441 H 0.76148 0.85147 0.44478 0.0
H1442 H 0.78147 0.83347 0.47252 0.0
C1443 C 0.82509 0.74077 0.56176 0.0
C1444 C 0.76783 0.74293 0.52169 0.0
H1445 H 0.78904 0.77186 0.47753 0.0
C1446 C 0.73587 0.74691 0.52362 0.0
C1447 C 0.78735 0.75218 0.50491 0.0
C1448 C 0.8213 0.74756 0.50197 0.0
C1449 C 0.72306 0.76023 0.50926 0.0
C1450 C 0.74221 0.76895 0.49235 0.0
C1451 C 0.77437 0.76522 0.49049 0.0
C1452 C 0.72892 0.78111 0.47627 0.0
C1453 C 0.6896 0.76556 0.51248 0.0
C1454 C 0.69261 0.75782 0.46918 0.0
C1455 C 0.68094 0.76817 0.4534 0.0
C1456 C 0.70551 0.80187 0.44422 0.0
C1457 C 0.74169 0.82543 0.45151 0.0
C1458 C 0.75326 0.81511 0.46735 0.0
H1459 H 0.68568 0.76893 0.52719 0.0
H1460 H 0.69274 0.79062 0.50508 0.0
H1461 H 0.66365 0.74028 0.50753 0.0
H1462 H 0.6736 0.73104 0.47555 0.0
H1463 H 0.65305 0.74909 0.4481 0.0
H1464 H 0.92469 0.649 0.94625 0.0
H1465 H 0.96369 0.66945 0.97364 0.0
H1466 H 0.96711 0.77637 0.97168 0.0
H1467 H 0.92797 0.75625 0.94432 0.0
H1468 H 0.03743 0.73372 0.97588 0.0
H1469 H 0.93891 0.74248 0.02506 0.0
H1470 H 0.9231 0.71642 1.00399 0.0
H1471 H 0.94479 0.76694 1.00394 0.0
C1472 C 0.93315 0.67666 0.95176 0.0
C1473 C 0.92297 0.70089 0.94304 0.0
C1474 C 0.95561 0.68834 0.9674 0.0
C1475 C 0.96808 0.7243 0.97478 0.0
C1476 C 0.95732 0.74826 0.96639 0.0
H1477 H 0.10966 0.84727 0.06688 0.0
H1478 H 0.07194 0.82861 0.03908 0.0
C1479 C 0.93495 0.73668 0.9507 0.0
C1480 C 0.99398 0.73746 0.99066 0.0
H1481 H 1.00205 0.76679 0.03477 0.0
C1482 C 0.02969 0.74082 0.98879 0.0
C1483 C 0.98388 0.74693 0.00743 0.0
C1484 C 0.94549 0.74277 0.01036 0.0
C1485 C 0.0558 0.7539 1.00318 0.0
C1486 C 0.04562 0.76312 0.02002 0.0
C1487 C 1.0099 0.75982 0.02185 0.0
C1488 C 0.07125 0.77568 0.03604 0.0
C1489 C 0.09434 0.75854 1.00005 0.0
C1490 C 0.08382 0.75234 0.04352 0.0
C1491 C 0.10569 0.76306 0.05937 0.0
C1492 C 0.11511 0.79719 0.0682 0.0
C1493 C 0.10313 0.82087 0.06044 0.0
C1494 C 0.08139 0.81018 0.04456 0.0
H1495 H 0.10147 0.76107 0.98534 0.0
H1496 H 0.11654 0.78383 0.00721 0.0
H1497 H 0.09469 0.73335 1.00537 0.0
H1498 H 0.0757 0.72523 0.03743 0.0
H1499 H 0.11402 0.7439 0.06503 0.0
H1500 H 0.27688 0.9192 0.44757 0.0
H1501 H 0.29413 0.95743 0.47526 0.0
H1502 H 0.18921 0.95807 0.47313 0.0
H1503 H 0.17154 0.91976 0.44547 0.0
H1504 H 0.30069 0.03084 0.47773 0.0
H1505 H 0.19549 0.92822 0.52647 0.0
H1506 H 0.20734 0.91378 0.50541 0.0
H1507 H 0.1768 0.9335 0.50525 0.0
C1508 C 0.25714 0.92692 0.45311 0.0
C1509 C 0.22273 0.91624 0.44427 0.0
C1510 C 0.26715 0.94892 0.46891 0.0
C1511 C 0.24285 0.96035 0.47631 0.0
C1512 C 0.20815 0.94909 0.46779 0.0
H1513 H 0.25882 0.09697 0.57062 0.0
H1514 H 0.23905 0.05935 0.54271 0.0
C1515 C 0.19816 0.92724 0.45193 0.0
C1516 C 0.25471 0.98572 0.49238 0.0
H1517 H 0.23323 0.99101 0.53679 0.0
C1518 C 0.28605 0.02214 0.49068 0.0
C1519 C 0.23531 0.97438 0.50916 0.0
C1520 C 0.20202 0.93526 0.51183 0.0
C1521 C 0.29835 0.04772 0.50529 0.0
C1522 C 0.27934 0.03623 0.5222 0.0
C1523 C 0.24779 0.99984 0.52383 0.0
C1524 C 0.29223 0.06108 0.5385 0.0
C1525 C 0.33113 0.08706 0.50232 0.0
C1526 C 0.32874 0.07469 0.54543 0.0
C1527 C 0.34027 0.09648 0.56129 0.0
C1528 C 0.31535 0.10478 0.57073 0.0
C1529 C 0.27887 0.09138 0.56367 0.0
C1530 C 0.26743 0.06971 0.54774 0.0
H1531 H 0.33478 0.0949 0.48769 0.0
H1532 H 0.32736 0.10826 0.51005 0.0
H1533 H 0.35747 0.0883 0.50706 0.0
H1534 H 0.3481 0.06767 0.53882 0.0
H1535 H 0.36842 0.1059 0.56639 0.0
loop_
_geom_bond_atom_site_label_1
_geom_bond_atom_site_label_2
_geom_bond_distance
_geom_bond_site_symmetry_2
_ccdc_geom_bond_type
Tb0 O3 2.453 . S
Tb0 O4 2.596 . S
Tb0 O5 2.374 . S
Tb0 O13 2.343 . S
Tb0 O15 2.353 . S
Tb0 O17 2.427 . S
Tb0 O18 2.513 . S
C1 O5 1.251 . S
C1 O7 1.263 . S
Tb2 O4 2.343 . S
Tb2 O7 2.353 . S
Tb2 O10 2.427 . S
Tb2 O11 2.513 . S
Tb2 O12 2.453 . S
Tb2 O13 2.596 . S
Tb2 O14 2.374 . S
O3 Tb0 2.453 . S
O3 C19 1.245 . S
O4 Tb0 2.596 . S
O4 Tb2 2.343 . S
O4 C19 1.259 . S
O5 Tb0 2.374 . S
O5 C1 1.251 . S
C6 O10 1.275 . S
C6 O11 1.246 . S
O7 C1 1.263 . S
O7 Tb2 2.353 . S
C8 O12 1.245 . S
C8 O13 1.259 . S
C9 O14 1.250 . S
C9 O15 1.263 . S
O10 Tb2 2.427 . S
O10 C6 1.275 . S
O11 Tb2 2.513 . S
O11 C6 1.246 . S
O12 Tb2 2.453 . S
O12 C8 1.245 . S
O13 Tb0 2.343 . S
O13 Tb2 2.596 . S
O13 C8 1.259 . S
O14 Tb2 2.374 . S
O14 C9 1.250 . S
O15 Tb0 2.353 . S
O15 C9 1.263 . S
C16 O17 1.275 . S
C16 O18 1.246 . S
O17 Tb0 2.427 . S
O17 C16 1.275 . S
O18 Tb0 2.513 . S
O18 C16 1.246 . S
C19 O3 1.245 . S
C19 O4 1.259 . S
Tb20 O23 2.453 . S
Tb20 O24 2.596 . S
Tb20 O25 2.374 . S
Tb20 O33 2.343 . S
Tb20 O35 2.353 . S
Tb20 O37 2.427 . S
Tb20 O38 2.513 . S
C21 O25 1.251 . S
C21 O27 1.263 . S
Tb22 O24 2.343 . S
Tb22 O27 2.353 . S
Tb22 O30 2.427 . S
Tb22 O31 2.513 . S
Tb22 O32 2.453 . S
Tb22 O33 2.596 . S
Tb22 O34 2.374 . S
O23 Tb20 2.453 . S
O23 C39 1.245 . S
O24 Tb20 2.596 . S
O24 Tb22 2.343 . S
O24 C39 1.259 . S
O25 Tb20 2.374 . S
O25 C21 1.251 . S
C26 O30 1.275 . S
C26 O31 1.246 . S
O27 C21 1.263 . S
O27 Tb22 2.353 . S
C28 O32 1.245 . S
C28 O33 1.259 . S
C29 O34 1.250 . S
C29 O35 1.263 . S
O30 Tb22 2.427 . S
O30 C26 1.275 . S
O31 Tb22 2.513 . S
O31 C26 1.246 . S
O32 Tb22 2.453 . S
O32 C28 1.245 . S
O33 Tb20 2.343 . S
O33 Tb22 2.596 . S
O33 C28 1.259 . S
O34 Tb22 2.374 . S
O34 C29 1.250 . S
O35 Tb20 2.353 . S
O35 C29 1.263 . S
C36 O37 1.275 . S
C36 O38 1.246 . S
O37 Tb20 2.427 . S
O37 C36 1.275 . S
O38 Tb20 2.513 . S
O38 C36 1.246 . S
C39 O23 1.245 . S
C39 O24 1.259 . S
Tb40 O43 2.453 . S
Tb40 O44 2.596 . S
Tb40 O45 2.374 . S
Tb40 O53 2.343 . S
Tb40 O55 2.353 . S
Tb40 O57 2.427 . S
Tb40 O58 2.513 . S
C41 O45 1.251 . S
C41 O47 1.263 . S
Tb42 O44 2.343 . S
Tb42 O47 2.353 . S
Tb42 O50 2.427 . S
Tb42 O51 2.513 . S
Tb42 O52 2.453 . S
Tb42 O53 2.596 . S
Tb42 O54 2.374 . S
O43 Tb40 2.453 . S
O43 C59 1.245 . S
O44 Tb40 2.596 . S
O44 Tb42 2.343 . S
O44 C59 1.259 . S
O45 Tb40 2.374 . S
O45 C41 1.251 . S
C46 O50 1.275 . S
C46 O51 1.246 . S
O47 C41 1.263 . S
O47 Tb42 2.353 . S
C48 O52 1.245 . S
C48 O53 1.259 . S
C49 O54 1.250 . S
C49 O55 1.263 . S
O50 Tb42 2.427 . S
O50 C46 1.275 . S
O51 Tb42 2.513 . S
O51 C46 1.246 . S
O52 Tb42 2.453 . S
O52 C48 1.245 . S
O53 Tb40 2.343 . S
O53 Tb42 2.596 . S
O53 C48 1.259 . S
O54 Tb42 2.374 . S
O54 C49 1.250 . S
O55 Tb40 2.353 . S
O55 C49 1.263 . S
C56 O57 1.275 . S
C56 O58 1.246 . S
O57 Tb40 2.427 . S
O57 C56 1.275 . S
O58 Tb40 2.513 . S
O58 C56 1.246 . S
C59 O43 1.245 . S
C59 O44 1.259 . S
Tb60 O63 2.453 . S
Tb60 O64 2.596 . S
Tb60 O65 2.374 . S
Tb60 O73 2.343 . S
Tb60 O75 2.353 . S
Tb60 O77 2.427 . S
Tb60 O78 2.513 . S
C61 O65 1.251 . S
C61 O67 1.263 . S
Tb62 O64 2.343 . S
Tb62 O67 2.353 . S
Tb62 O70 2.427 . S
Tb62 O71 2.513 . S
Tb62 O72 2.453 . S
Tb62 O73 2.596 . S
Tb62 O74 2.374 . S
O63 Tb60 2.453 . S
O63 C79 1.245 . S
O64 Tb60 2.596 . S
O64 Tb62 2.343 . S
O64 C79 1.259 . S
O65 Tb60 2.374 . S
O65 C61 1.251 . S
C66 O70 1.275 . S
C66 O71 1.246 . S
O67 C61 1.263 . S
O67 Tb62 2.353 . S
C68 O72 1.245 . S
C68 O73 1.259 . S
C69 O74 1.250 . S
C69 O75 1.263 . S
O70 Tb62 2.427 . S
O70 C66 1.275 . S
O71 Tb62 2.513 . S
O71 C66 1.246 . S
O72 Tb62 2.453 . S
O72 C68 1.245 . S
O73 Tb60 2.343 . S
O73 Tb62 2.596 . S
O73 C68 1.259 . S
O74 Tb62 2.374 . S
O74 C69 1.250 . S
O75 Tb60 2.353 . S
O75 C69 1.263 . S
C76 O77 1.275 . S
C76 O78 1.246 . S
O77 Tb60 2.427 . S
O77 C76 1.275 . S
O78 Tb60 2.513 . S
O78 C76 1.246 . S
C79 O63 1.245 . S
C79 O64 1.259 . S
Tb80 O83 2.453 . S
Tb80 O84 2.596 . S
Tb80 O85 2.374 . S
Tb80 O93 2.343 . S
Tb80 O95 2.353 . S
Tb80 O97 2.427 . S
Tb80 O98 2.513 . S
C81 O85 1.251 . S
C81 O87 1.263 . S
Tb82 O84 2.343 . S
Tb82 O87 2.353 . S
Tb82 O90 2.427 . S
Tb82 O91 2.513 . S
Tb82 O92 2.453 . S
Tb82 O93 2.596 . S
Tb82 O94 2.374 . S
O83 Tb80 2.453 . S
O83 C99 1.245 . S
O84 Tb80 2.596 . S
O84 Tb82 2.343 . S
O84 C99 1.259 . S
O85 Tb80 2.374 . S
O85 C81 1.251 . S
C86 O90 1.275 . S
C86 O91 1.246 . S
O87 C81 1.263 . S
O87 Tb82 2.353 . S
C88 O92 1.245 . S
C88 O93 1.259 . S
C89 O94 1.250 . S
C89 O95 1.263 . S
O90 Tb82 2.427 . S
O90 C86 1.275 . S
O91 Tb82 2.513 . S
O91 C86 1.246 . S
O92 Tb82 2.453 . S
O92 C88 1.245 . S
O93 Tb80 2.343 . S
O93 Tb82 2.596 . S
O93 C88 1.259 . S
O94 Tb82 2.374 . S
O94 C89 1.250 . S
O95 Tb80 2.353 . S
O95 C89 1.263 . S
C96 O97 1.275 . S
C96 O98 1.246 . S
O97 Tb80 2.427 . S
O97 C96 1.275 . S
O98 Tb80 2.513 . S
O98 C96 1.246 . S
C99 O83 1.245 . S
C99 O84 1.259 . S
Tb100 O103 2.453 . S
Tb100 O104 2.596 . S
Tb100 O105 2.374 . S
Tb100 O113 2.343 . S
Tb100 O115 2.353 . S
Tb100 O117 2.427 . S
Tb100 O118 2.513 . S
C101 O105 1.251 . S
C101 O107 1.263 . S
Tb102 O104 2.343 . S
Tb102 O107 2.353 . S
Tb102 O110 2.427 . S
Tb102 O111 2.513 . S
Tb102 O112 2.453 . S
Tb102 O113 2.596 . S
Tb102 O114 2.374 . S
O103 Tb100 2.453 . S
O103 C119 1.245 . S
O104 Tb100 2.596 . S
O104 Tb102 2.343 . S
O104 C119 1.259 . S
O105 Tb100 2.374 . S
O105 C101 1.251 . S
C106 O110 1.275 . S
C106 O111 1.246 . S
O107 C101 1.263 . S
O107 Tb102 2.353 . S
C108 O112 1.245 . S
C108 O113 1.259 . S
C109 O114 1.250 . S
C109 O115 1.263 . S
O110 Tb102 2.427 . S
O110 C106 1.275 . S
O111 Tb102 2.513 . S
O111 C106 1.246 . S
O112 Tb102 2.453 . S
O112 C108 1.245 . S
O113 Tb100 2.343 . S
O113 Tb102 2.596 . S
O113 C108 1.259 . S
O114 Tb102 2.374 . S
O114 C109 1.250 . S
O115 Tb100 2.353 . S
O115 C109 1.263 . S
C116 O117 1.275 . S
C116 O118 1.246 . S
O117 Tb100 2.427 . S
O117 C116 1.275 . S
O118 Tb100 2.513 . S
O118 C116 1.246 . S
C119 O103 1.245 . S
C119 O104 1.259 . S
Tb120 O123 2.453 . S
Tb120 O124 2.596 . S
Tb120 O125 2.374 . S
Tb120 O133 2.343 . S
Tb120 O135 2.353 . S
Tb120 O137 2.427 . S
Tb120 O138 2.513 . S
C121 O125 1.251 . S
C121 O127 1.263 . S
Tb122 O124 2.343 . S
Tb122 O127 2.353 . S
Tb122 O130 2.427 . S
Tb122 O131 2.513 . S
Tb122 O132 2.453 . S
Tb122 O133 2.596 . S
Tb122 O134 2.374 . S
O123 Tb120 2.453 . S
O123 C139 1.245 . S
O124 Tb120 2.596 . S
O124 Tb122 2.343 . S
O124 C139 1.259 . S
O125 Tb120 2.374 . S
O125 C121 1.251 . S
C126 O130 1.275 . S
C126 O131 1.246 . S
O127 C121 1.263 . S
O127 Tb122 2.353 . S
C128 O132 1.245 . S
C128 O133 1.259 . S
C129 O134 1.250 . S
C129 O135 1.263 . S
O130 Tb122 2.427 . S
O130 C126 1.275 . S
O131 Tb122 2.513 . S
O131 C126 1.246 . S
O132 Tb122 2.453 . S
O132 C128 1.245 . S
O133 Tb120 2.343 . S
O133 Tb122 2.596 . S
O133 C128 1.259 . S
O134 Tb122 2.374 . S
O134 C129 1.250 . S
O135 Tb120 2.353 . S
O135 C129 1.263 . S
C136 O137 1.275 . S
C136 O138 1.246 . S
O137 Tb120 2.427 . S
O137 C136 1.275 . S
O138 Tb120 2.513 . S
O138 C136 1.246 . S
C139 O123 1.245 . S
C139 O124 1.259 . S
Tb140 O143 2.453 . S
Tb140 O144 2.596 . S
Tb140 O145 2.374 . S
Tb140 O153 2.343 . S
Tb140 O155 2.353 . S
Tb140 O157 2.427 . S
Tb140 O158 2.513 . S
C141 O145 1.251 . S
C141 O147 1.263 . S
Tb142 O144 2.343 . S
Tb142 O147 2.353 . S
Tb142 O150 2.427 . S
Tb142 O151 2.513 . S
Tb142 O152 2.453 . S
Tb142 O153 2.596 . S
Tb142 O154 2.374 . S
O143 Tb140 2.453 . S
O143 C159 1.245 . S
O144 Tb140 2.596 . S
O144 Tb142 2.343 . S
O144 C159 1.259 . S
O145 Tb140 2.374 . S
O145 C141 1.251 . S
C146 O150 1.275 . S
C146 O151 1.246 . S
O147 C141 1.263 . S
O147 Tb142 2.353 . S
C148 O152 1.245 . S
C148 O153 1.259 . S
C149 O154 1.250 . S
C149 O155 1.263 . S
O150 Tb142 2.427 . S
O150 C146 1.275 . S
O151 Tb142 2.513 . S
O151 C146 1.246 . S
O152 Tb142 2.453 . S
O152 C148 1.245 . S
O153 Tb140 2.343 . S
O153 Tb142 2.596 . S
O153 C148 1.259 . S
O154 Tb142 2.374 . S
O154 C149 1.250 . S
O155 Tb140 2.353 . S
O155 C149 1.263 . S
C156 O157 1.275 . S
C156 O158 1.246 . S
O157 Tb140 2.427 . S
O157 C156 1.275 . S
O158 Tb140 2.513 . S
O158 C156 1.246 . S
C159 O143 1.245 . S
C159 O144 1.259 . S
Tb160 O163 2.453 . S
Tb160 O164 2.596 . S
Tb160 O165 2.374 . S
Tb160 O173 2.343 . S
Tb160 O175 2.353 . S
Tb160 O177 2.427 . S
Tb160 O178 2.513 . S
C161 O165 1.251 . S
C161 O167 1.263 . S
Tb162 O164 2.343 . S
Tb162 O167 2.353 . S
Tb162 O170 2.427 . S
Tb162 O171 2.513 . S
Tb162 O172 2.453 . S
Tb162 O173 2.596 . S
Tb162 O174 2.374 . S
O163 Tb160 2.453 . S
O163 C179 1.245 . S
O164 Tb160 2.596 . S
O164 Tb162 2.343 . S
O164 C179 1.259 . S
O165 Tb160 2.374 . S
O165 C161 1.251 . S
C166 O170 1.275 . S
C166 O171 1.246 . S
O167 C161 1.263 . S
O167 Tb162 2.353 . S
C168 O172 1.245 . S
C168 O173 1.259 . S
C169 O174 1.250 . S
C169 O175 1.263 . S
O170 Tb162 2.427 . S
O170 C166 1.275 . S
O171 Tb162 2.513 . S
O171 C166 1.246 . S
O172 Tb162 2.453 . S
O172 C168 1.245 . S
O173 Tb160 2.343 . S
O173 Tb162 2.596 . S
O173 C168 1.259 . S
O174 Tb162 2.374 . S
O174 C169 1.250 . S
O175 Tb160 2.353 . S
O175 C169 1.263 . S
C176 O177 1.275 . S
C176 O178 1.246 . S
O177 Tb160 2.427 . S
O177 C176 1.275 . S
O178 Tb160 2.513 . S
O178 C176 1.246 . S
C179 O163 1.245 . S
C179 O164 1.259 . S
Tb180 O183 2.453 . S
Tb180 O184 2.596 . S
Tb180 O185 2.374 . S
Tb180 O193 2.343 . S
Tb180 O195 2.353 . S
Tb180 O197 2.427 . S
Tb180 O198 2.513 . S
C181 O185 1.251 . S
C181 O187 1.263 . S
Tb182 O184 2.343 . S
Tb182 O187 2.353 . S
Tb182 O190 2.427 . S
Tb182 O191 2.513 . S
Tb182 O192 2.453 . S
Tb182 O193 2.596 . S
Tb182 O194 2.374 . S
O183 Tb180 2.453 . S
O183 C199 1.245 . S
O184 Tb180 2.596 . S
O184 Tb182 2.343 . S
O184 C199 1.259 . S
O185 Tb180 2.374 . S
O185 C181 1.251 . S
C186 O190 1.275 . S
C186 O191 1.246 . S
O187 C181 1.263 . S
O187 Tb182 2.353 . S
C188 O192 1.245 . S
C188 O193 1.259 . S
C189 O194 1.250 . S
C189 O195 1.263 . S
O190 Tb182 2.427 . S
O190 C186 1.275 . S
O191 Tb182 2.513 . S
O191 C186 1.246 . S
O192 Tb182 2.453 . S
O192 C188 1.245 . S
O193 Tb180 2.343 . S
O193 Tb182 2.596 . S
O193 C188 1.259 . S
O194 Tb182 2.374 . S
O194 C189 1.250 . S
O195 Tb180 2.353 . S
O195 C189 1.263 . S
C196 O197 1.275 . S
C196 O198 1.246 . S
O197 Tb180 2.427 . S
O197 C196 1.275 . S
O198 Tb180 2.513 . S
O198 C196 1.246 . S
C199 O183 1.245 . S
C199 O184 1.259 . S
Tb200 O203 2.453 . S
Tb200 O204 2.596 . S
Tb200 O205 2.374 . S
Tb200 O213 2.343 . S
Tb200 O215 2.353 . S
Tb200 O217 2.427 . S
Tb200 O218 2.513 . S
C201 O205 1.251 . S
C201 O207 1.263 . S
Tb202 O204 2.343 . S
Tb202 O207 2.353 . S
Tb202 O210 2.427 . S
Tb202 O211 2.513 . S
Tb202 O212 2.453 . S
Tb202 O213 2.596 . S
Tb202 O214 2.374 . S
O203 Tb200 2.453 . S
O203 C219 1.245 . S
O204 Tb200 2.596 . S
O204 Tb202 2.343 . S
O204 C219 1.259 . S
O205 Tb200 2.374 . S
O205 C201 1.251 . S
C206 O210 1.275 . S
C206 O211 1.246 . S
O207 C201 1.263 . S
O207 Tb202 2.353 . S
C208 O212 1.245 . S
C208 O213 1.259 . S
C209 O214 1.250 . S
C209 O215 1.263 . S
O210 Tb202 2.427 . S
O210 C206 1.275 . S
O211 Tb202 2.513 . S
O211 C206 1.246 . S
O212 Tb202 2.453 . S
O212 C208 1.245 . S
O213 Tb200 2.343 . S
O213 Tb202 2.596 . S
O213 C208 1.259 . S
O214 Tb202 2.374 . S
O214 C209 1.250 . S
O215 Tb200 2.353 . S
O215 C209 1.263 . S
C216 O217 1.275 . S
C216 O218 1.246 . S
O217 Tb200 2.427 . S
O217 C216 1.275 . S
O218 Tb200 2.513 . S
O218 C216 1.246 . S
C219 O203 1.245 . S
C219 O204 1.259 . S
Tb220 O223 2.453 . S
Tb220 O224 2.596 . S
Tb220 O225 2.374 . S
Tb220 O233 2.343 . S
Tb220 O235 2.353 . S
Tb220 O237 2.427 . S
Tb220 O238 2.513 . S
C221 O225 1.251 . S
C221 O227 1.263 . S
Tb222 O224 2.343 . S
Tb222 O227 2.353 . S
Tb222 O230 2.427 . S
Tb222 O231 2.513 . S
Tb222 O232 2.453 . S
Tb222 O233 2.596 . S
Tb222 O234 2.374 . S
O223 Tb220 2.453 . S
O223 C239 1.245 . S
O224 Tb220 2.596 . S
O224 Tb222 2.343 . S
O224 C239 1.259 . S
O225 Tb220 2.374 . S
O225 C221 1.251 . S
C226 O230 1.275 . S
C226 O231 1.246 . S
O227 C221 1.263 . S
O227 Tb222 2.353 . S
C228 O232 1.245 . S
C228 O233 1.259 . S
C229 O234 1.250 . S
C229 O235 1.263 . S
O230 Tb222 2.427 . S
O230 C226 1.275 . S
O231 Tb222 2.513 . S
O231 C226 1.246 . S
O232 Tb222 2.453 . S
O232 C228 1.245 . S
O233 Tb220 2.343 . S
O233 Tb222 2.596 . S
O233 C228 1.259 . S
O234 Tb222 2.374 . S
O234 C229 1.250 . S
O235 Tb220 2.353 . S
O235 C229 1.263 . S
C236 O237 1.275 . S
C236 O238 1.246 . S
O237 Tb220 2.427 . S
O237 C236 1.275 . S
O238 Tb220 2.513 . S
O238 C236 1.246 . S
C239 O223 1.245 . S
C239 O224 1.259 . S
H240 C248 0.929 . S
H241 C250 0.930 . S
H242 C252 0.930 1_545 S
H243 C255 0.929 . S
H244 C258 0.930 . S
H245 C260 0.960 . S
H246 C260 0.960 . S
H247 C260 0.960 . S
C248 H240 0.929 . S
C248 C249 1.377 . S
C248 C250 1.384 1_565 S
C249 C248 1.377 . S
C249 C255 1.390 . S
C250 H241 0.930 . S
C250 C248 1.384 1_545 S
C250 C251 1.372 . S
C251 C250 1.372 . S
C251 C252 1.400 1_545 S
C251 C256 1.490 . S
C252 H242 0.930 1_565 S
C252 C251 1.400 1_565 S
C252 C255 1.386 . S
H253 C269 0.930 . S
H254 C270 0.931 . S
C255 H243 0.929 . S
C255 C249 1.390 . S
C255 C252 1.386 . S
C256 C251 1.490 . S
C256 C258 1.395 . S
C256 C259 1.403 . S
H257 C263 0.930 . S
C258 H244 0.930 . S
C258 C256 1.395 . S
C258 C261 1.403 . S
C259 C256 1.403 . S
C259 C260 1.524 . S
C259 C263 1.400 . S
C260 H245 0.960 . S
C260 H246 0.960 . S
C260 H247 0.960 . S
C260 C259 1.524 . S
C261 C258 1.403 . S
C261 C262 1.392 . S
C261 C265 1.495 . S
C262 C261 1.392 . S
C262 C263 1.385 . S
C262 C264 1.478 . S
C263 H257 0.930 . S
C263 C259 1.400 . S
C263 C262 1.385 . S
C264 C262 1.478 . S
C264 C266 1.381 . S
C264 C270 1.383 . S
C265 C261 1.495 . S
C265 H271 0.959 . S
C265 H272 0.961 . S
C265 H273 0.960 . S
C266 C264 1.381 . S
C266 C267 1.394 . S
C266 H274 0.930 . S
C267 C266 1.394 . S
C267 C268 1.383 . S
C267 H275 0.929 . S
C268 C267 1.383 . S
C268 C269 1.377 . S
C269 H253 0.930 . S
C269 C268 1.377 . S
C269 C270 1.379 . S
C270 H254 0.931 . S
C270 C264 1.383 . S
C270 C269 1.379 . S
H271 C265 0.959 . S
H272 C265 0.961 . S
H273 C265 0.960 . S
H274 C266 0.930 . S
H275 C267 0.929 . S
H276 C284 0.929 . S
H277 C286 0.930 . S
H278 C288 0.930 . S
H279 C291 0.929 . S
H280 C294 0.930 . S
H281 C296 0.960 . S
H282 C296 0.960 . S
H283 C296 0.960 . S
C284 H276 0.929 . S
C284 C285 1.377 . S
C284 C286 1.384 . S
C285 C284 1.377 . S
C285 C291 1.390 . S
C286 H277 0.930 . S
C286 C284 1.384 . S
C286 C287 1.372 . S
C287 C286 1.372 . S
C287 C288 1.400 . S
C287 C292 1.490 . S
C288 H278 0.930 . S
C288 C287 1.400 . S
C288 C291 1.386 . S
H289 C305 0.930 . S
H290 C306 0.931 1_455 S
C291 H279 0.929 . S
C291 C285 1.390 . S
C291 C288 1.386 . S
C292 C287 1.490 . S
C292 C294 1.395 . S
C292 C295 1.403 . S
H293 C299 0.930 . S
C294 H280 0.930 . S
C294 C292 1.395 . S
C294 C297 1.403 . S
C295 C292 1.403 . S
C295 C296 1.524 . S
C295 C299 1.400 . S
C296 H281 0.960 . S
C296 H282 0.960 . S
C296 H283 0.960 . S
C296 C295 1.524 . S
C297 C294 1.403 . S
C297 C298 1.392 . S
C297 C301 1.495 . S
C298 C297 1.392 . S
C298 C299 1.385 . S
C298 C300 1.478 . S
C299 H293 0.930 . S
C299 C295 1.400 . S
C299 C298 1.385 . S
C300 C298 1.478 . S
C300 C302 1.381 1_455 S
C300 C306 1.383 1_455 S
C301 C297 1.495 . S
C301 H307 0.959 . S
C301 H308 0.961 . S
C301 H309 0.960 . S
C302 C300 1.381 1_655 S
C302 C303 1.394 . S
C302 H310 0.930 1_655 S
C303 C302 1.394 . S
C303 C304 1.383 . S
C303 H311 0.929 . S
C304 C303 1.383 . S
C304 C305 1.377 . S
C305 H289 0.930 . S
C305 C304 1.377 . S
C305 C306 1.379 . S
C306 H290 0.931 1_655 S
C306 C300 1.383 1_655 S
C306 C305 1.379 . S
H307 C301 0.959 . S
H308 C301 0.961 . S
H309 C301 0.960 . S
H310 C302 0.930 1_455 S
H311 C303 0.929 . S
H312 C320 0.929 . S
H313 C322 0.930 . S
H314 C324 0.930 . S
H315 C327 0.929 . S
H316 C330 0.930 . S
H317 C332 0.960 . S
H318 C332 0.960 1_565 S
H319 C332 0.960 1_565 S
C320 H312 0.929 . S
C320 C321 1.377 . S
C320 C322 1.384 1_565 S
C321 C320 1.377 . S
C321 C327 1.390 . S
C322 H313 0.930 . S
C322 C320 1.384 1_545 S
C322 C323 1.372 . S
C323 C322 1.372 . S
C323 C324 1.400 1_545 S
C323 C328 1.490 . S
C324 H314 0.930 . S
C324 C323 1.400 1_565 S
C324 C327 1.386 . S
H325 C341 0.930 . S
H326 C342 0.931 1_655 S
C327 H315 0.929 . S
C327 C321 1.390 . S
C327 C324 1.386 . S
C328 C323 1.490 . S
C328 C330 1.395 . S
C328 C331 1.403 . S
H329 C335 0.930 . S
C330 H316 0.930 . S
C330 C328 1.395 . S
C330 C333 1.403 . S
C331 C328 1.403 . S
C331 C332 1.524 . S
C331 C335 1.400 . S
C332 H317 0.960 . S
C332 H318 0.960 1_545 S
C332 H319 0.960 1_545 S
C332 C331 1.524 . S
C333 C330 1.403 . S
C333 C334 1.392 . S
C333 C337 1.495 . S
C334 C333 1.392 . S
C334 C335 1.385 . S
C334 C336 1.478 . S
C335 H329 0.930 . S
C335 C331 1.400 . S
C335 C334 1.385 . S
C336 C334 1.478 . S
C336 C338 1.381 . S
C336 C342 1.383 1_655 S
C337 C333 1.495 . S
C337 H343 0.959 . S
C337 H344 0.961 . S
C337 H345 0.960 . S
C338 C336 1.381 . S
C338 C339 1.394 1_655 S
C338 H346 0.930 . S
C339 C338 1.394 1_455 S
C339 C340 1.383 . S
C339 H347 0.929 . S
C340 C339 1.383 . S
C340 C341 1.377 . S
C341 H325 0.930 . S
C341 C340 1.377 . S
C341 C342 1.379 . S
C342 H326 0.931 1_455 S
C342 C336 1.383 1_455 S
C342 C341 1.379 . S
H343 C337 0.959 . S
H344 C337 0.961 . S
H345 C337 0.960 . S
H346 C338 0.930 . S
H347 C339 0.929 . S
H348 C356 0.929 . S
H349 C358 0.930 . S
H350 C360 0.930 . S
H351 C363 0.929 . S
H352 C366 0.930 . S
H353 C368 0.960 . S
H354 C368 0.960 . S
H355 C368 0.960 . S
C356 H348 0.929 . S
C356 C357 1.377 . S
C356 C358 1.384 . S
C357 C356 1.377 . S
C357 C363 1.390 . S
C358 H349 0.930 . S
C358 C356 1.384 . S
C358 C359 1.372 . S
C359 C358 1.372 . S
C359 C360 1.400 . S
C359 C364 1.490 . S
C360 H350 0.930 . S
C360 C359 1.400 . S
C360 C363 1.386 . S
H361 C377 0.930 . S
H362 C378 0.931 . S
C363 H351 0.929 . S
C363 C357 1.390 . S
C363 C360 1.386 . S
C364 C359 1.490 . S
C364 C366 1.395 . S
C364 C367 1.403 . S
H365 C371 0.930 . S
C366 H352 0.930 . S
C366 C364 1.395 . S
C366 C369 1.403 . S
C367 C364 1.403 . S
C367 C368 1.524 . S
C367 C371 1.400 . S
C368 H353 0.960 . S
C368 H354 0.960 . S
C368 H355 0.960 . S
C368 C367 1.524 . S
C369 C366 1.403 . S
C369 C370 1.392 . S
C369 C373 1.495 . S
C370 C369 1.392 . S
C370 C371 1.385 . S
C370 C372 1.478 . S
C371 H365 0.930 . S
C371 C367 1.400 . S
C371 C370 1.385 . S
C372 C370 1.478 . S
C372 C374 1.381 . S
C372 C378 1.383 1_565 S
C373 C369 1.495 . S
C373 H379 0.959 . S
C373 H380 0.961 . S
C373 H381 0.960 . S
C374 C372 1.381 . S
C374 C375 1.394 1_565 S
C374 H382 0.930 . S
C375 C374 1.394 1_545 S
C375 C376 1.383 . S
C375 H383 0.929 . S
C376 C375 1.383 . S
C376 C377 1.377 . S
C377 H361 0.930 . S
C377 C376 1.377 . S
C377 C378 1.379 . S
C378 H362 0.931 . S
C378 C372 1.383 1_545 S
C378 C377 1.379 . S
H379 C373 0.959 . S
H380 C373 0.961 . S
H381 C373 0.960 . S
H382 C374 0.930 . S
H383 C375 0.929 . S
H384 C392 0.929 . S
H385 C394 0.930 . S
H386 C396 0.930 . S
H387 C399 0.929 . S
H388 C402 0.930 . S
H389 C404 0.960 . S
H390 C404 0.960 . S
H391 C404 0.960 . S
C392 H384 0.929 . S
C392 C393 1.377 . S
C392 C394 1.384 . S
C393 C392 1.377 . S
C393 C399 1.390 . S
C394 H385 0.930 . S
C394 C392 1.384 . S
C394 C395 1.372 1_455 S
C395 C394 1.372 1_655 S
C395 C396 1.400 . S
C395 C400 1.490 . S
C396 H386 0.930 . S
C396 C395 1.400 . S
C396 C399 1.386 1_655 S
H397 C413 0.930 . S
H398 C414 0.931 . S
C399 H387 0.929 . S
C399 C393 1.390 . S
C399 C396 1.386 1_455 S
C400 C395 1.490 . S
C400 C402 1.395 . S
C400 C403 1.403 . S
H401 C407 0.930 . S
C402 H388 0.930 . S
C402 C400 1.395 . S
C402 C405 1.403 . S
C403 C400 1.403 . S
C403 C404 1.524 . S
C403 C407 1.400 . S
C404 H389 0.960 . S
C404 H390 0.960 . S
C404 H391 0.960 . S
C404 C403 1.524 . S
C405 C402 1.403 . S
C405 C406 1.392 . S
C405 C409 1.495 . S
C406 C405 1.392 . S
C406 C407 1.385 . S
C406 C408 1.478 . S
C407 H401 0.930 . S
C407 C403 1.400 . S
C407 C406 1.385 . S
C408 C406 1.478 . S
C408 C410 1.381 . S
C408 C414 1.383 . S
C409 C405 1.495 . S
C409 H415 0.959 . S
C409 H416 0.961 . S
C409 H417 0.960 . S
C410 C408 1.381 . S
C410 C411 1.394 . S
C410 H418 0.930 . S
C411 C410 1.394 . S
C411 C412 1.383 . S
C411 H419 0.929 . S
C412 C411 1.383 . S
C412 C413 1.377 . S
C413 H397 0.930 . S
C413 C412 1.377 . S
C413 C414 1.379 . S
C414 H398 0.931 . S
C414 C408 1.383 . S
C414 C413 1.379 . S
H415 C409 0.959 . S
H416 C409 0.961 . S
H417 C409 0.960 . S
H418 C410 0.930 . S
H419 C411 0.929 . S
H420 C428 0.929 . S
H421 C430 0.930 . S
H422 C432 0.930 1_455 S
H423 C435 0.929 . S
H424 C438 0.930 . S
H425 C440 0.960 . S
H426 C440 0.960 . S
H427 C440 0.960 . S
C428 H420 0.929 . S
C428 C429 1.377 . S
C428 C430 1.384 1_655 S
C429 C428 1.377 . S
C429 C435 1.390 . S
C430 H421 0.930 . S
C430 C428 1.384 1_455 S
C430 C431 1.372 . S
C431 C430 1.372 . S
C431 C432 1.400 1_455 S
C431 C436 1.490 . S
C432 H422 0.930 1_655 S
C432 C431 1.400 1_655 S
C432 C435 1.386 . S
H433 C449 0.930 . S
H434 C450 0.931 . S
C435 H423 0.929 . S
C435 C429 1.390 . S
C435 C432 1.386 . S
C436 C431 1.490 . S
C436 C438 1.395 . S
C436 C439 1.403 . S
H437 C443 0.930 . S
C438 H424 0.930 . S
C438 C436 1.395 . S
C438 C441 1.403 . S
C439 C436 1.403 . S
C439 C440 1.524 . S
C439 C443 1.400 . S
C440 H425 0.960 . S
C440 H426 0.960 . S
C440 H427 0.960 . S
C440 C439 1.524 . S
C441 C438 1.403 . S
C441 C442 1.392 . S
C441 C445 1.495 . S
C442 C441 1.392 . S
C442 C443 1.385 . S
C442 C444 1.478 . S
C443 H437 0.930 . S
C443 C439 1.400 . S
C443 C442 1.385 . S
C444 C442 1.478 . S
C444 C446 1.381 1_565 S
C444 C450 1.383 1_565 S
C445 C441 1.495 . S
C445 H451 0.959 . S
C445 H452 0.961 1_565 S
C445 H453 0.962 1_565 S
C446 C444 1.381 1_545 S
C446 C447 1.394 . S
C446 H454 0.930 1_545 S
C447 C446 1.394 . S
C447 C448 1.383 . S
C447 H455 0.929 . S
C448 C447 1.383 . S
C448 C449 1.377 . S
C449 H433 0.930 . S
C449 C448 1.377 . S
C449 C450 1.379 . S
C450 H434 0.931 . S
C450 C444 1.383 1_545 S
C450 C449 1.379 . S
H451 C445 0.959 . S
H452 C445 0.961 1_545 S
H453 C445 0.962 1_545 S
H454 C446 0.930 1_565 S
H455 C447 0.929 . S
H456 C464 0.929 . S
H457 C466 0.930 . S
H458 C468 0.930 . S
H459 C471 0.929 . S
H460 C474 0.930 . S
H461 C476 0.960 . S
H462 C476 0.960 . S
H463 C476 0.960 . S
C464 H456 0.929 . S
C464 C465 1.377 . S
C464 C466 1.384 . S
C465 C464 1.377 . S
C465 C471 1.390 . S
C466 H457 0.930 . S
C466 C464 1.384 . S
C466 C467 1.372 1_455 S
C467 C466 1.372 1_655 S
C467 C468 1.400 . S
C467 C472 1.490 . S
C468 H458 0.930 . S
C468 C467 1.400 . S
C468 C471 1.386 1_655 S
H469 C485 0.930 . S
H470 C486 0.931 . S
C471 H459 0.929 . S
C471 C465 1.390 . S
C471 C468 1.386 1_455 S
C472 C467 1.490 . S
C472 C474 1.395 . S
C472 C475 1.403 . S
H473 C479 0.930 . S
C474 H460 0.930 . S
C474 C472 1.395 . S
C474 C477 1.403 . S
C475 C472 1.403 . S
C475 C476 1.524 . S
C475 C479 1.400 . S
C476 H461 0.960 . S
C476 H462 0.960 . S
C476 H463 0.960 . S
C476 C475 1.524 . S
C477 C474 1.403 . S
C477 C478 1.392 . S
C477 C481 1.495 . S
C478 C477 1.392 . S
C478 C479 1.385 . S
C478 C480 1.478 . S
C479 H473 0.930 . S
C479 C475 1.400 . S
C479 C478 1.385 . S
C480 C478 1.478 . S
C480 C482 1.381 . S
C480 C486 1.383 . S
C481 C477 1.495 . S
C481 H487 0.959 . S
C481 H488 0.961 . S
C481 H489 0.960 . S
C482 C480 1.381 . S
C482 C483 1.394 . S
C482 H490 0.930 . S
C483 C482 1.394 . S
C483 C484 1.383 . S
C483 H491 0.929 . S
C484 C483 1.383 . S
C484 C485 1.377 . S
C485 H469 0.930 . S
C485 C484 1.377 . S
C485 C486 1.379 . S
C486 H470 0.931 . S
C486 C480 1.383 . S
C486 C485 1.379 . S
H487 C481 0.959 . S
H488 C481 0.961 . S
H489 C481 0.960 . S
H490 C482 0.930 . S
H491 C483 0.929 . S
H492 C500 0.929 . S
H493 C502 0.930 . S
H494 C504 0.930 1_455 S
H495 C507 0.929 . S
H496 C510 0.930 . S
H497 C512 0.960 . S
H498 C512 0.960 1_655 S
H499 C512 0.960 . S
C500 H492 0.929 . S
C500 C501 1.377 . S
C500 C502 1.384 . S
C501 C500 1.377 . S
C501 C507 1.390 . S
C502 H493 0.930 . S
C502 C500 1.384 . S
C502 C503 1.372 1_655 S
C503 C502 1.372 1_455 S
C503 C504 1.400 1_455 S
C503 C508 1.490 . S
C504 H494 0.930 1_655 S
C504 C503 1.400 1_655 S
C504 C507 1.386 . S
H505 C521 0.930 . S
H506 C522 0.931 . S
C507 H495 0.929 . S
C507 C501 1.390 . S
C507 C504 1.386 . S
C508 C503 1.490 . S
C508 C510 1.395 . S
C508 C511 1.403 . S
H509 C515 0.930 . S
C510 H496 0.930 . S
C510 C508 1.395 . S
C510 C513 1.403 . S
C511 C508 1.403 . S
C511 C512 1.524 . S
C511 C515 1.400 . S
C512 H497 0.960 . S
C512 H498 0.960 1_455 S
C512 H499 0.960 . S
C512 C511 1.524 . S
C513 C510 1.403 . S
C513 C514 1.392 . S
C513 C517 1.495 . S
C514 C513 1.392 . S
C514 C515 1.385 . S
C514 C516 1.478 . S
C515 H509 0.930 . S
C515 C511 1.400 . S
C515 C514 1.385 . S
C516 C514 1.478 . S
C516 C518 1.381 1_565 S
C516 C522 1.383 . S
C517 C513 1.495 . S
C517 H523 0.959 . S
C517 H524 0.961 . S
C517 H525 0.960 . S
C518 C516 1.381 1_545 S
C518 C519 1.394 . S
C518 H526 0.930 1_545 S
C519 C518 1.394 . S
C519 C520 1.383 . S
C519 H527 0.929 . S
C520 C519 1.383 . S
C520 C521 1.377 . S
C521 H505 0.930 . S
C521 C520 1.377 . S
C521 C522 1.379 1_545 S
C522 H506 0.931 . S
C522 C516 1.383 . S
C522 C521 1.379 1_565 S
H523 C517 0.959 . S
H524 C517 0.961 . S
H525 C517 0.960 . S
H526 C518 0.930 1_565 S
H527 C519 0.929 . S
H528 C536 0.929 . S
H529 C538 0.930 . S
H530 C540 0.930 . S
H531 C543 0.929 . S
H532 C546 0.930 . S
H533 C548 0.960 . S
H534 C548 0.960 . S
H535 C548 0.960 . S
C536 H528 0.929 . S
C536 C537 1.377 . S
C536 C538 1.384 . S
C537 C536 1.377 . S
C537 C543 1.390 . S
C538 H529 0.930 . S
C538 C536 1.384 . S
C538 C539 1.372 . S
C539 C538 1.372 . S
C539 C540 1.400 . S
C539 C544 1.490 . S
C540 H530 0.930 . S
C540 C539 1.400 . S
C540 C543 1.386 . S
H541 C557 0.930 . S
H542 C558 0.931 . S
C543 H531 0.929 . S
C543 C537 1.390 . S
C543 C540 1.386 . S
C544 C539 1.490 . S
C544 C546 1.395 . S
C544 C547 1.403 . S
H545 C551 0.930 . S
C546 H532 0.930 . S
C546 C544 1.395 . S
C546 C549 1.403 . S
C547 C544 1.403 . S
C547 C548 1.524 . S
C547 C551 1.400 . S
C548 H533 0.960 . S
C548 H534 0.960 . S
C548 H535 0.960 . S
C548 C547 1.524 . S
C549 C546 1.403 . S
C549 C550 1.392 . S
C549 C553 1.495 . S
C550 C549 1.392 . S
C550 C551 1.385 . S
C550 C552 1.478 . S
C551 H545 0.930 . S
C551 C547 1.400 . S
C551 C550 1.385 . S
C552 C550 1.478 . S
C552 C554 1.381 1_545 S
C552 C558 1.383 . S
C553 C549 1.495 . S
C553 H559 0.959 . S
C553 H560 0.961 . S
C553 H561 0.960 . S
C554 C552 1.381 1_565 S
C554 C555 1.394 . S
C554 H562 0.930 . S
C555 C554 1.394 . S
C555 C556 1.383 . S
C555 H563 0.929 . S
C556 C555 1.383 . S
C556 C557 1.377 . S
C557 H541 0.930 . S
C557 C556 1.377 . S
C557 C558 1.379 1_565 S
C558 H542 0.931 . S
C558 C552 1.383 . S
C558 C557 1.379 1_545 S
H559 C553 0.959 . S
H560 C553 0.961 . S
H561 C553 0.960 . S
H562 C554 0.930 . S
H563 C555 0.929 . S
H564 C572 0.929 . S
H565 C574 0.930 . S
H566 C576 0.930 . S
H567 C579 0.929 . S
H568 C582 0.930 . S
H569 C584 0.960 . S
H570 C584 0.960 . S
H571 C584 0.960 . S
C572 H564 0.929 . S
C572 C573 1.377 . S
C572 C574 1.384 . S
C573 C572 1.377 . S
C573 C579 1.390 . S
C574 H565 0.930 . S
C574 C572 1.384 . S
C574 C575 1.372 . S
C575 C574 1.372 . S
C575 C576 1.400 . S
C575 C580 1.490 . S
C576 H566 0.930 . S
C576 C575 1.400 . S
C576 C579 1.386 . S
H577 C593 0.930 . S
H578 C594 0.937 . S
C579 H567 0.929 . S
C579 C573 1.390 . S
C579 C576 1.386 . S
C580 C575 1.490 . S
C580 C582 1.395 . S
C580 C583 1.403 . S
H581 C587 0.930 . S
C582 H568 0.930 . S
C582 C580 1.395 . S
C582 C585 1.403 . S
C583 C580 1.403 . S
C583 C584 1.524 . S
C583 C587 1.400 . S
C584 H569 0.960 . S
C584 H570 0.960 . S
C584 H571 0.960 . S
C584 C583 1.524 . S
C585 C582 1.403 . S
C585 C586 1.392 . S
C585 C589 1.495 . S
C586 C585 1.392 . S
C586 C587 1.385 . S
C586 C588 1.478 . S
C587 H581 0.930 . S
C587 C583 1.400 . S
C587 C586 1.385 . S
C588 C586 1.478 . S
C588 C590 1.381 1_455 S
C588 C594 1.389 . S
C589 C585 1.495 . S
C589 H595 0.959 . S
C589 H596 0.961 . S
C589 H597 0.960 . S
C590 C588 1.381 1_655 S
C590 C591 1.394 . S
C590 H598 0.930 . S
C591 C590 1.394 . S
C591 C592 1.383 . S
C591 H599 0.929 . S
C592 C591 1.383 . S
C592 C593 1.377 . S
C593 H577 0.930 . S
C593 C592 1.377 . S
C593 C594 1.367 1_655 S
C594 H578 0.937 . S
C594 C588 1.389 . S
C594 C593 1.367 1_455 S
H595 C589 0.959 . S
H596 C589 0.961 . S
H597 C589 0.960 . S
H598 C590 0.930 . S
H599 C591 0.929 . S
H600 C608 0.929 . S
H601 C610 0.930 . S
H602 C612 0.930 . S
H603 C615 0.929 . S
H604 C618 0.930 . S
H605 C620 0.960 . S
H606 C620 0.960 . S
H607 C620 0.960 . S
C608 H600 0.929 . S
C608 C609 1.377 . S
C608 C610 1.384 . S
C609 C608 1.377 . S
C609 C615 1.390 . S
C610 H601 0.930 . S
C610 C608 1.384 . S
C610 C611 1.372 1_455 S
C611 C610 1.372 1_655 S
C611 C612 1.400 . S
C611 C616 1.490 . S
C612 H602 0.930 . S
C612 C611 1.400 . S
C612 C615 1.386 1_655 S
H613 C629 0.930 . S
H614 C630 0.931 . S
C615 H603 0.929 . S
C615 C609 1.390 . S
C615 C612 1.386 1_455 S
C616 C611 1.490 . S
C616 C618 1.395 . S
C616 C619 1.403 . S
H617 C623 0.930 . S
C618 H604 0.930 . S
C618 C616 1.395 . S
C618 C621 1.403 . S
C619 C616 1.403 . S
C619 C620 1.524 . S
C619 C623 1.400 . S
C620 H605 0.960 . S
C620 H606 0.960 . S
C620 H607 0.960 . S
C620 C619 1.524 . S
C621 C618 1.403 . S
C621 C622 1.392 . S
C621 C625 1.495 . S
C622 C621 1.392 . S
C622 C623 1.385 . S
C622 C624 1.478 . S
C623 H617 0.930 . S
C623 C619 1.400 . S
C623 C622 1.385 . S
C624 C622 1.478 . S
C624 C626 1.381 1_545 S
C624 C630 1.383 . S
C625 C621 1.495 . S
C625 H631 0.959 . S
C625 H632 0.961 . S
C625 H633 0.960 . S
C626 C624 1.381 1_565 S
C626 C627 1.394 . S
C626 H634 0.930 . S
C627 C626 1.394 . S
C627 C628 1.383 . S
C627 H635 0.929 . S
C628 C627 1.383 . S
C628 C629 1.377 . S
C629 H613 0.930 . S
C629 C628 1.377 . S
C629 C630 1.379 1_565 S
C630 H614 0.931 . S
C630 C624 1.383 . S
C630 C629 1.379 1_545 S
H631 C625 0.959 . S
H632 C625 0.961 . S
H633 C625 0.960 . S
H634 C626 0.930 . S
H635 C627 0.929 . S
H636 C644 0.929 . S
H637 C646 0.930 . S
H638 C648 0.930 . S
H639 C651 0.929 . S
H640 C654 0.930 . S
H641 C656 0.960 . S
H642 C656 0.960 . S
H643 C656 0.960 . S
C644 H636 0.929 . S
C644 C645 1.377 . S
C644 C646 1.384 . S
C645 C644 1.377 . S
C645 C651 1.390 . S
C646 H637 0.930 . S
C646 C644 1.384 . S
C646 C647 1.372 . S
C647 C646 1.372 . S
C647 C648 1.400 . S
C647 C652 1.490 . S
C648 H638 0.930 . S
C648 C647 1.400 . S
C648 C651 1.386 . S
H649 C665 0.930 . S
H650 C666 0.931 . S
C651 H639 0.929 . S
C651 C645 1.390 . S
C651 C648 1.386 . S
C652 C647 1.490 . S
C652 C654 1.395 . S
C652 C655 1.403 . S
H653 C659 0.930 . S
C654 H640 0.930 . S
C654 C652 1.395 . S
C654 C657 1.403 . S
C655 C652 1.403 . S
C655 C656 1.524 . S
C655 C659 1.400 . S
C656 H641 0.960 . S
C656 H642 0.960 . S
C656 H643 0.960 . S
C656 C655 1.524 . S
C657 C654 1.403 . S
C657 C658 1.392 . S
C657 C661 1.500 . S
C658 C657 1.392 . S
C658 C659 1.385 . S
C658 C660 1.478 . S
C659 H653 0.930 . S
C659 C655 1.400 . S
C659 C658 1.385 . S
C660 C658 1.478 . S
C660 C662 1.381 1_565 S
C660 C666 1.383 . S
C661 C657 1.500 . S
C661 H667 0.965 . S
C661 H668 0.957 1_565 S
C661 H669 0.954 1_565 S
C662 C660 1.381 1_545 S
C662 C663 1.394 . S
C662 H670 0.930 . S
C663 C662 1.394 . S
C663 C664 1.383 . S
C663 H671 0.929 . S
C664 C663 1.383 . S
C664 C665 1.377 . S
C665 H649 0.930 . S
C665 C664 1.377 . S
C665 C666 1.379 1_545 S
C666 H650 0.931 . S
C666 C660 1.383 . S
C666 C665 1.379 1_565 S
H667 C661 0.965 . S
H668 C661 0.957 1_545 S
H669 C661 0.954 1_545 S
H670 C662 0.930 . S
H671 C663 0.929 . S
H672 C680 0.929 . S
H673 C682 0.930 . S
H674 C684 0.930 . S
H675 C687 0.929 . S
H676 C690 0.930 . S
H677 C692 0.960 . S
H678 C692 0.960 . S
H679 C692 0.960 . S
C680 H672 0.929 . S
C680 C681 1.377 . S
C680 C682 1.384 . S
C681 C680 1.377 . S
C681 C687 1.390 . S
C682 H673 0.930 . S
C682 C680 1.384 . S
C682 C683 1.372 . S
C683 C682 1.372 . S
C683 C684 1.400 . S
C683 C688 1.490 . S
C684 H674 0.930 . S
C684 C683 1.400 . S
C684 C687 1.386 . S
H685 C701 0.930 . S
H686 C702 0.931 . S
C687 H675 0.929 . S
C687 C681 1.390 . S
C687 C684 1.386 . S
C688 C683 1.490 . S
C688 C690 1.395 . S
C688 C691 1.403 . S
H689 C695 0.930 . S
C690 H676 0.930 . S
C690 C688 1.395 . S
C690 C693 1.403 . S
C691 C688 1.403 . S
C691 C692 1.524 . S
C691 C695 1.400 . S
C692 H677 0.960 . S
C692 H678 0.960 . S
C692 H679 0.960 . S
C692 C691 1.524 . S
C693 C690 1.403 . S
C693 C694 1.392 . S
C693 C697 1.495 . S
C694 C693 1.392 . S
C694 C695 1.385 . S
C694 C696 1.478 . S
C695 H689 0.930 . S
C695 C691 1.400 . S
C695 C694 1.385 . S
C696 C694 1.478 . S
C696 C698 1.381 . S
C696 C702 1.383 . S
C697 C693 1.495 . S
C697 H703 0.959 . S
C697 H704 0.961 . S
C697 H705 0.960 . S
C698 C696 1.381 . S
C698 C699 1.394 . S
C698 H706 0.930 . S
C699 C698 1.394 . S
C699 C700 1.383 . S
C699 H707 0.929 . S
C700 C699 1.383 . S
C700 C701 1.377 . S
C701 H685 0.930 . S
C701 C700 1.377 . S
C701 C702 1.379 . S
C702 H686 0.931 . S
C702 C696 1.383 . S
C702 C701 1.379 . S
H703 C697 0.959 . S
H704 C697 0.961 . S
H705 C697 0.960 . S
H706 C698 0.930 . S
H707 C699 0.929 . S
H708 C716 0.929 . S
H709 C718 0.930 . S
H710 C720 0.930 . S
H711 C723 0.929 . S
H712 C726 0.930 . S
H713 C728 0.960 . S
H714 C728 0.960 . S
H715 C728 0.960 . S
C716 H708 0.929 . S
C716 C717 1.377 . S
C716 C718 1.384 . S
C717 C716 1.377 . S
C717 C723 1.390 . S
C718 H709 0.930 . S
C718 C716 1.384 . S
C718 C719 1.372 . S
C719 C718 1.372 . S
C719 C720 1.400 . S
C719 C724 1.490 . S
C720 H710 0.930 . S
C720 C719 1.400 . S
C720 C723 1.386 . S
H721 C737 0.930 . S
H722 C738 0.931 . S
C723 H711 0.929 . S
C723 C717 1.390 . S
C723 C720 1.386 . S
C724 C719 1.490 . S
C724 C726 1.395 . S
C724 C727 1.403 . S
H725 C731 0.930 . S
C726 H712 0.930 . S
C726 C724 1.395 . S
C726 C729 1.403 . S
C727 C724 1.403 . S
C727 C728 1.524 . S
C727 C731 1.400 . S
C728 H713 0.960 . S
C728 H714 0.960 . S
C728 H715 0.960 . S
C728 C727 1.524 . S
C729 C726 1.403 . S
C729 C730 1.392 . S
C729 C733 1.495 . S
C730 C729 1.392 . S
C730 C731 1.385 . S
C730 C732 1.478 . S
C731 H725 0.930 . S
C731 C727 1.400 . S
C731 C730 1.385 . S
C732 C730 1.478 . S
C732 C734 1.381 . S
C732 C738 1.383 . S
C733 C729 1.495 . S
C733 H739 0.959 . S
C733 H740 0.961 . S
C733 H741 0.960 . S
C734 C732 1.381 . S
C734 C735 1.394 . S
C734 H742 0.930 . S
C735 C734 1.394 . S
C735 C736 1.383 . S
C735 H743 0.929 . S
C736 C735 1.383 . S
C736 C737 1.377 . S
C737 H721 0.930 . S
C737 C736 1.377 . S
C737 C738 1.379 . S
C738 H722 0.931 . S
C738 C732 1.383 . S
C738 C737 1.379 . S
H739 C733 0.959 . S
H740 C733 0.961 . S
H741 C733 0.960 . S
H742 C734 0.930 . S
H743 C735 0.929 . S
H744 C752 0.929 . S
H745 C754 0.930 . S
H746 C756 0.930 . S
H747 C759 0.929 . S
H748 C762 0.930 . S
H749 C764 0.960 . S
H750 C764 0.960 . S
H751 C764 0.960 . S
C752 H744 0.929 . S
C752 C753 1.377 . S
C752 C754 1.384 . S
C753 C752 1.377 . S
C753 C759 1.390 . S
C754 H745 0.930 . S
C754 C752 1.384 . S
C754 C755 1.372 . S
C755 C754 1.372 . S
C755 C756 1.400 . S
C755 C760 1.490 . S
C756 H746 0.930 . S
C756 C755 1.400 . S
C756 C759 1.386 . S
H757 C773 0.930 . S
H758 C774 0.931 . S
C759 H747 0.929 . S
C759 C753 1.390 . S
C759 C756 1.386 . S
C760 C755 1.490 . S
C760 C762 1.395 . S
C760 C763 1.403 . S
H761 C767 0.930 . S
C762 H748 0.930 . S
C762 C760 1.395 . S
C762 C765 1.403 . S
C763 C760 1.403 . S
C763 C764 1.524 . S
C763 C767 1.400 . S
C764 H749 0.960 . S
C764 H750 0.960 . S
C764 H751 0.960 . S
C764 C763 1.524 . S
C765 C762 1.403 . S
C765 C766 1.392 . S
C765 C769 1.495 . S
C766 C765 1.392 . S
C766 C767 1.385 . S
C766 C768 1.478 . S
C767 H761 0.930 . S
C767 C763 1.400 . S
C767 C766 1.385 . S
C768 C766 1.478 . S
C768 C770 1.381 . S
C768 C774 1.383 . S
C769 C765 1.495 . S
C769 H775 0.959 . S
C769 H776 0.961 . S
C769 H777 0.960 . S
C770 C768 1.381 . S
C770 C771 1.394 . S
C770 H778 0.930 . S
C771 C770 1.394 . S
C771 C772 1.383 . S
C771 H779 0.929 . S
C772 C771 1.383 . S
C772 C773 1.377 . S
C773 H757 0.930 . S
C773 C772 1.377 . S
C773 C774 1.379 . S
C774 H758 0.931 . S
C774 C768 1.383 . S
C774 C773 1.379 . S
H775 C769 0.959 . S
H776 C769 0.961 . S
H777 C769 0.960 . S
H778 C770 0.930 . S
H779 C771 0.929 . S
H780 C788 0.929 . S
H781 C790 0.930 . S
H782 C792 0.930 . S
H783 C795 0.929 . S
H784 C798 0.930 . S
H785 C800 0.960 . S
H786 C800 0.960 . S
H787 C800 0.960 . S
C788 H780 0.929 . S
C788 C789 1.377 . S
C788 C790 1.384 . S
C789 C788 1.377 . S
C789 C795 1.390 . S
C790 H781 0.930 . S
C790 C788 1.384 . S
C790 C791 1.372 . S
C791 C790 1.372 . S
C791 C792 1.400 . S
C791 C796 1.490 . S
C792 H782 0.930 . S
C792 C791 1.400 . S
C792 C795 1.386 . S
H793 C809 0.930 . S
H794 C810 0.931 . S
C795 H783 0.929 . S
C795 C789 1.390 . S
C795 C792 1.386 . S
C796 C791 1.490 . S
C796 C798 1.395 . S
C796 C799 1.403 . S
H797 C803 0.930 . S
C798 H784 0.930 . S
C798 C796 1.395 . S
C798 C801 1.403 . S
C799 C796 1.403 . S
C799 C800 1.524 . S
C799 C803 1.400 . S
C800 H785 0.960 . S
C800 H786 0.960 . S
C800 H787 0.960 . S
C800 C799 1.524 . S
C801 C798 1.403 . S
C801 C802 1.392 . S
C801 C805 1.495 . S
C802 C801 1.392 . S
C802 C803 1.385 . S
C802 C804 1.478 . S
C803 H797 0.930 . S
C803 C799 1.400 . S
C803 C802 1.385 . S
C804 C802 1.478 . S
C804 C806 1.381 . S
C804 C810 1.383 . S
C805 C801 1.495 . S
C805 H811 0.959 . S
C805 H812 0.961 . S
C805 H813 0.960 . S
C806 C804 1.381 . S
C806 C807 1.394 . S
C806 H814 0.930 . S
C807 C806 1.394 . S
C807 C808 1.383 . S
C807 H815 0.929 . S
C808 C807 1.383 . S
C808 C809 1.377 . S
C809 H793 0.930 . S
C809 C808 1.377 . S
C809 C810 1.379 . S
C810 H794 0.931 . S
C810 C804 1.383 . S
C810 C809 1.379 . S
H811 C805 0.959 . S
H812 C805 0.961 . S
H813 C805 0.960 . S
H814 C806 0.930 . S
H815 C807 0.929 . S
H816 C824 0.929 . S
H817 C826 0.930 . S
H818 C828 0.930 . S
H819 C831 0.929 . S
H820 C834 0.930 . S
H821 C836 0.960 . S
H822 C836 0.960 . S
H823 C836 0.960 . S
C824 H816 0.929 . S
C824 C825 1.377 . S
C824 C826 1.384 . S
C825 C824 1.377 . S
C825 C831 1.390 . S
C826 H817 0.930 . S
C826 C824 1.384 . S
C826 C827 1.372 . S
C827 C826 1.372 . S
C827 C828 1.400 . S
C827 C832 1.490 . S
C828 H818 0.930 . S
C828 C827 1.400 . S
C828 C831 1.386 . S
H829 C845 0.930 . S
H830 C846 0.931 . S
C831 H819 0.929 . S
C831 C825 1.390 . S
C831 C828 1.386 . S
C832 C827 1.490 . S
C832 C834 1.395 . S
C832 C835 1.403 . S
H833 C839 0.930 . S
C834 H820 0.930 . S
C834 C832 1.395 . S
C834 C837 1.403 . S
C835 C832 1.403 . S
C835 C836 1.524 . S
C835 C839 1.400 . S
C836 H821 0.960 . S
C836 H822 0.960 . S
C836 H823 0.960 . S
C836 C835 1.524 . S
C837 C834 1.403 . S
C837 C838 1.392 . S
C837 C841 1.495 . S
C838 C837 1.392 . S
C838 C839 1.385 . S
C838 C840 1.478 . S
C839 H833 0.930 . S
C839 C835 1.400 . S
C839 C838 1.385 . S
C840 C838 1.478 . S
C840 C842 1.381 . S
C840 C846 1.383 . S
C841 C837 1.495 . S
C841 H847 0.959 . S
C841 H848 0.961 . S
C841 H849 0.960 . S
C842 C840 1.381 . S
C842 C843 1.394 . S
C842 H850 0.930 . S
C843 C842 1.394 . S
C843 C844 1.383 . S
C843 H851 0.929 . S
C844 C843 1.383 . S
C844 C845 1.377 . S
C845 H829 0.930 . S
C845 C844 1.377 . S
C845 C846 1.379 . S
C846 H830 0.931 . S
C846 C840 1.383 . S
C846 C845 1.379 . S
H847 C841 0.959 . S
H848 C841 0.961 . S
H849 C841 0.960 . S
H850 C842 0.930 . S
H851 C843 0.929 . S
H852 C860 0.929 . S
H853 C862 0.930 . S
H854 C864 0.930 . S
H855 C867 0.929 . S
H856 C870 0.930 . S
H857 C872 0.960 . S
H858 C872 0.960 . S
H859 C872 0.960 . S
C860 H852 0.929 . S
C860 C861 1.377 . S
C860 C862 1.384 . S
C861 C860 1.377 . S
C861 C867 1.390 . S
C862 H853 0.930 . S
C862 C860 1.384 . S
C862 C863 1.372 . S
C863 C862 1.372 . S
C863 C864 1.400 . S
C863 C868 1.490 . S
C864 H854 0.930 . S
C864 C863 1.400 . S
C864 C867 1.386 . S
H865 C881 0.930 . S
H866 C882 0.931 . S
C867 H855 0.929 . S
C867 C861 1.390 . S
C867 C864 1.386 . S
C868 C863 1.490 . S
C868 C870 1.395 . S
C868 C871 1.403 . S
H869 C875 0.930 . S
C870 H856 0.930 . S
C870 C868 1.395 . S
C870 C873 1.403 . S
C871 C868 1.403 . S
C871 C872 1.524 . S
C871 C875 1.400 . S
C872 H857 0.960 . S
C872 H858 0.960 . S
C872 H859 0.960 . S
C872 C871 1.524 . S
C873 C870 1.403 . S
C873 C874 1.392 . S
C873 C877 1.495 . S
C874 C873 1.392 . S
C874 C875 1.385 . S
C874 C876 1.478 . S
C875 H869 0.930 . S
C875 C871 1.400 . S
C875 C874 1.385 . S
C876 C874 1.478 . S
C876 C878 1.381 . S
C876 C882 1.383 . S
C877 C873 1.495 . S
C877 H883 0.959 . S
C877 H884 0.961 . S
C877 H885 0.960 . S
C878 C876 1.381 . S
C878 C879 1.394 . S
C878 H886 0.930 . S
C879 C878 1.394 . S
C879 C880 1.383 . S
C879 H887 0.929 . S
C880 C879 1.383 . S
C880 C881 1.377 . S
C881 H865 0.930 . S
C881 C880 1.377 . S
C881 C882 1.379 . S
C882 H866 0.931 . S
C882 C876 1.383 . S
C882 C881 1.379 . S
H883 C877 0.959 . S
H884 C877 0.961 . S
H885 C877 0.960 . S
H886 C878 0.930 . S
H887 C879 0.929 . S
H888 C896 0.929 . S
H889 C898 0.930 . S
H890 C900 0.930 . S
H891 C903 0.929 . S
H892 C906 0.930 . S
H893 C908 0.960 . S
H894 C908 0.960 . S
H895 C908 0.960 . S
C896 H888 0.929 . S
C896 C897 1.377 . S
C896 C898 1.384 . S
C897 C896 1.377 . S
C897 C903 1.390 . S
C898 H889 0.930 . S
C898 C896 1.384 . S
C898 C899 1.372 . S
C899 C898 1.372 . S
C899 C900 1.400 . S
C899 C904 1.490 . S
C900 H890 0.930 . S
C900 C899 1.400 . S
C900 C903 1.386 . S
H901 C917 0.930 . S
H902 C918 0.931 . S
C903 H891 0.929 . S
C903 C897 1.390 . S
C903 C900 1.386 . S
C904 C899 1.490 . S
C904 C906 1.395 . S
C904 C907 1.403 . S
H905 C911 0.930 . S
C906 H892 0.930 . S
C906 C904 1.395 . S
C906 C909 1.403 . S
C907 C904 1.403 . S
C907 C908 1.524 . S
C907 C911 1.400 . S
C908 H893 0.960 . S
C908 H894 0.960 . S
C908 H895 0.960 . S
C908 C907 1.524 . S
C909 C906 1.403 . S
C909 C910 1.392 . S
C909 C913 1.495 . S
C910 C909 1.392 . S
C910 C911 1.385 . S
C910 C912 1.478 . S
C911 H905 0.930 . S
C911 C907 1.400 . S
C911 C910 1.385 . S
C912 C910 1.478 . S
C912 C914 1.381 . S
C912 C918 1.383 . S
C913 C909 1.495 . S
C913 H919 0.959 . S
C913 H920 0.961 . S
C913 H921 0.960 . S
C914 C912 1.381 . S
C914 C915 1.394 . S
C914 H922 0.930 . S
C915 C914 1.394 . S
C915 C916 1.383 . S
C915 H923 0.929 . S
C916 C915 1.383 . S
C916 C917 1.377 . S
C917 H901 0.930 . S
C917 C916 1.377 . S
C917 C918 1.379 . S
C918 H902 0.931 . S
C918 C912 1.383 . S
C918 C917 1.379 . S
H919 C913 0.959 . S
H920 C913 0.961 . S
H921 C913 0.960 . S
H922 C914 0.930 . S
H923 C915 0.929 . S
H924 C932 0.929 . S
H925 C934 0.930 . S
H926 C936 0.930 . S
H927 C939 0.929 . S
H928 C942 0.930 . S
H929 C944 0.960 . S
H930 C944 0.960 . S
H931 C944 0.960 . S
C932 H924 0.929 . S
C932 C933 1.377 . S
C932 C934 1.384 . S
C933 C932 1.377 . S
C933 C939 1.390 . S
C934 H925 0.930 . S
C934 C932 1.384 . S
C934 C935 1.372 . S
C935 C934 1.372 . S
C935 C936 1.400 . S
C935 C940 1.490 . S
C936 H926 0.930 . S
C936 C935 1.400 . S
C936 C939 1.386 . S
H937 C953 0.930 . S
H938 C954 0.931 . S
C939 H927 0.929 . S
C939 C933 1.390 . S
C939 C936 1.386 . S
C940 C935 1.490 . S
C940 C942 1.395 . S
C940 C943 1.403 . S
H941 C947 0.930 . S
C942 H928 0.930 . S
C942 C940 1.395 . S
C942 C945 1.403 . S
C943 C940 1.403 . S
C943 C944 1.524 . S
C943 C947 1.400 . S
C944 H929 0.960 . S
C944 H930 0.960 . S
C944 H931 0.960 . S
C944 C943 1.524 . S
C945 C942 1.403 . S
C945 C946 1.392 . S
C945 C949 1.495 . S
C946 C945 1.392 . S
C946 C947 1.385 . S
C946 C948 1.478 . S
C947 H941 0.930 . S
C947 C943 1.400 . S
C947 C946 1.385 . S
C948 C946 1.478 . S
C948 C950 1.381 . S
C948 C954 1.383 . S
C949 C945 1.495 . S
C949 H955 0.959 . S
C949 H956 0.961 . S
C949 H957 0.960 . S
C950 C948 1.381 . S
C950 C951 1.394 . S
C950 H958 0.930 . S
C951 C950 1.394 . S
C951 C952 1.383 . S
C951 H959 0.929 . S
C952 C951 1.383 . S
C952 C953 1.377 . S
C953 H937 0.930 . S
C953 C952 1.377 . S
C953 C954 1.379 . S
C954 H938 0.931 . S
C954 C948 1.383 . S
C954 C953 1.379 . S
H955 C949 0.959 . S
H956 C949 0.961 . S
H957 C949 0.960 . S
H958 C950 0.930 . S
H959 C951 0.929 . S
H960 C968 0.929 . S
H961 C970 0.930 . S
H962 C972 0.930 . S
H963 C975 0.929 . S
H964 C978 0.930 . S
H965 C980 0.960 . S
H966 C980 0.960 . S
H967 C980 0.960 . S
C968 H960 0.929 . S
C968 C969 1.377 . S
C968 C970 1.384 . S
C969 C968 1.377 . S
C969 C975 1.390 . S
C970 H961 0.930 . S
C970 C968 1.384 . S
C970 C971 1.372 . S
C971 C970 1.372 . S
C971 C972 1.400 . S
C971 C976 1.490 . S
C972 H962 0.930 . S
C972 C971 1.400 . S
C972 C975 1.386 . S
H973 C989 0.930 . S
H974 C990 0.931 . S
C975 H963 0.929 . S
C975 C969 1.390 . S
C975 C972 1.386 . S
C976 C971 1.490 . S
C976 C978 1.395 . S
C976 C979 1.403 . S
H977 C983 0.930 . S
C978 H964 0.930 . S
C978 C976 1.395 . S
C978 C981 1.403 . S
C979 C976 1.403 . S
C979 C980 1.524 . S
C979 C983 1.400 . S
C980 H965 0.960 . S
C980 H966 0.960 . S
C980 H967 0.960 . S
C980 C979 1.524 . S
C981 C978 1.403 . S
C981 C982 1.392 . S
C981 C985 1.495 . S
C982 C981 1.392 . S
C982 C983 1.385 . S
C982 C984 1.478 . S
C983 H977 0.930 . S
C983 C979 1.400 . S
C983 C982 1.385 . S
C984 C982 1.478 . S
C984 C986 1.381 . S
C984 C990 1.383 . S
C985 C981 1.495 . S
C985 H991 0.959 . S
C985 H992 0.961 . S
C985 H993 0.960 . S
C986 C984 1.381 . S
C986 C987 1.394 . S
C986 H994 0.930 . S
C987 C986 1.394 . S
C987 C988 1.383 . S
C987 H995 0.929 . S
C988 C987 1.383 . S
C988 C989 1.377 . S
C989 H973 0.930 . S
C989 C988 1.377 . S
C989 C990 1.379 . S
C990 H974 0.931 . S
C990 C984 1.383 . S
C990 C989 1.379 . S
H991 C985 0.959 . S
H992 C985 0.961 . S
H993 C985 0.960 . S
H994 C986 0.930 . S
H995 C987 0.929 . S
H996 C1004 0.929 . S
H997 C1006 0.930 . S
H998 C1008 0.930 . S
H999 C1011 0.929 . S
H1000 C1014 0.930 . S
H1001 C1016 0.960 . S
H1002 C1016 0.960 . S
H1003 C1016 0.960 . S
C1004 H996 0.929 . S
C1004 C1005 1.377 . S
C1004 C1006 1.384 . S
C1005 C1004 1.377 . S
C1005 C1011 1.390 . S
C1006 H997 0.930 . S
C1006 C1004 1.384 . S
C1006 C1007 1.372 . S
C1007 C1006 1.372 . S
C1007 C1008 1.400 . S
C1007 C1012 1.490 . S
C1008 H998 0.930 . S
C1008 C1007 1.400 . S
C1008 C1011 1.386 . S
H1009 C1025 0.930 . S
H1010 C1026 0.931 . S
C1011 H999 0.929 . S
C1011 C1005 1.390 . S
C1011 C1008 1.386 . S
C1012 C1007 1.490 . S
C1012 C1014 1.395 . S
C1012 C1015 1.403 . S
H1013 C1019 0.930 . S
C1014 H1000 0.930 . S
C1014 C1012 1.395 . S
C1014 C1017 1.403 . S
C1015 C1012 1.403 . S
C1015 C1016 1.524 . S
C1015 C1019 1.400 . S
C1016 H1001 0.960 . S
C1016 H1002 0.960 . S
C1016 H1003 0.960 . S
C1016 C1015 1.524 . S
C1017 C1014 1.403 . S
C1017 C1018 1.392 . S
C1017 C1021 1.495 . S
C1018 C1017 1.392 . S
C1018 C1019 1.385 . S
C1018 C1020 1.478 . S
C1019 H1013 0.930 . S
C1019 C1015 1.400 . S
C1019 C1018 1.385 . S
C1020 C1018 1.478 . S
C1020 C1022 1.381 . S
C1020 C1026 1.383 . S
C1021 C1017 1.495 . S
C1021 H1027 0.959 . S
C1021 H1028 0.961 . S
C1021 H1029 0.960 . S
C1022 C1020 1.381 . S
C1022 C1023 1.394 . S
C1022 H1030 0.930 . S
C1023 C1022 1.394 . S
C1023 C1024 1.383 . S
C1023 H1031 0.929 . S
C1024 C1023 1.383 . S
C1024 C1025 1.377 . S
C1025 H1009 0.930 . S
C1025 C1024 1.377 . S
C1025 C1026 1.379 . S
C1026 H1010 0.931 . S
C1026 C1020 1.383 . S
C1026 C1025 1.379 . S
H1027 C1021 0.959 . S
H1028 C1021 0.961 . S
H1029 C1021 0.960 . S
H1030 C1022 0.930 . S
H1031 C1023 0.929 . S
H1032 C1040 0.929 . S
H1033 C1042 0.930 . S
H1034 C1044 0.930 . S
H1035 C1047 0.929 . S
H1036 C1050 0.930 . S
H1037 C1052 0.960 . S
H1038 C1052 0.960 . S
H1039 C1052 0.960 . S
C1040 H1032 0.929 . S
C1040 C1041 1.377 . S
C1040 C1042 1.384 . S
C1041 C1040 1.377 . S
C1041 C1047 1.390 . S
C1042 H1033 0.930 . S
C1042 C1040 1.384 . S
C1042 C1043 1.372 . S
C1043 C1042 1.372 . S
C1043 C1044 1.400 . S
C1043 C1048 1.490 . S
C1044 H1034 0.930 . S
C1044 C1043 1.400 . S
C1044 C1047 1.386 . S
H1045 C1061 0.930 . S
H1046 C1062 0.931 . S
C1047 H1035 0.929 . S
C1047 C1041 1.390 . S
C1047 C1044 1.386 . S
C1048 C1043 1.490 . S
C1048 C1050 1.395 . S
C1048 C1051 1.403 . S
H1049 C1055 0.930 . S
C1050 H1036 0.930 . S
C1050 C1048 1.395 . S
C1050 C1053 1.403 . S
C1051 C1048 1.403 . S
C1051 C1052 1.524 . S
C1051 C1055 1.400 . S
C1052 H1037 0.960 . S
C1052 H1038 0.960 . S
C1052 H1039 0.960 . S
C1052 C1051 1.524 . S
C1053 C1050 1.403 . S
C1053 C1054 1.392 . S
C1053 C1057 1.495 . S
C1054 C1053 1.392 . S
C1054 C1055 1.385 . S
C1054 C1056 1.478 . S
C1055 H1049 0.930 . S
C1055 C1051 1.400 . S
C1055 C1054 1.385 . S
C1056 C1054 1.478 . S
C1056 C1058 1.381 . S
C1056 C1062 1.383 . S
C1057 C1053 1.495 . S
C1057 H1063 0.959 . S
C1057 H1064 0.961 . S
C1057 H1065 0.960 . S
C1058 C1056 1.381 . S
C1058 C1059 1.394 . S
C1058 H1066 0.930 . S
C1059 C1058 1.394 . S
C1059 C1060 1.383 . S
C1059 H1067 0.929 . S
C1060 C1059 1.383 . S
C1060 C1061 1.377 . S
C1061 H1045 0.930 . S
C1061 C1060 1.377 . S
C1061 C1062 1.379 . S
C1062 H1046 0.931 . S
C1062 C1056 1.383 . S
C1062 C1061 1.379 . S
H1063 C1057 0.959 . S
H1064 C1057 0.961 . S
H1065 C1057 0.960 . S
H1066 C1058 0.930 . S
H1067 C1059 0.929 . S
H1068 C1076 0.929 . S
H1069 C1078 0.930 . S
H1070 C1080 0.930 . S
H1071 C1083 0.929 . S
H1072 C1086 0.930 . S
H1073 C1088 0.960 . S
H1074 C1088 0.960 . S
H1075 C1088 0.960 . S
C1076 H1068 0.929 . S
C1076 C1077 1.377 . S
C1076 C1078 1.384 . S
C1077 C1076 1.377 . S
C1077 C1083 1.390 . S
C1078 H1069 0.930 . S
C1078 C1076 1.384 . S
C1078 C1079 1.372 . S
C1079 C1078 1.372 . S
C1079 C1080 1.400 . S
C1079 C1084 1.490 . S
C1080 H1070 0.930 . S
C1080 C1079 1.400 . S
C1080 C1083 1.386 . S
H1081 C1097 0.930 . S
H1082 C1098 0.931 . S
C1083 H1071 0.929 . S
C1083 C1077 1.390 . S
C1083 C1080 1.386 . S
C1084 C1079 1.490 . S
C1084 C1086 1.395 . S
C1084 C1087 1.403 . S
H1085 C1091 0.930 . S
C1086 H1072 0.930 . S
C1086 C1084 1.395 . S
C1086 C1089 1.403 . S
C1087 C1084 1.403 . S
C1087 C1088 1.524 . S
C1087 C1091 1.400 . S
C1088 H1073 0.960 . S
C1088 H1074 0.960 . S
C1088 H1075 0.960 . S
C1088 C1087 1.524 . S
C1089 C1086 1.403 . S
C1089 C1090 1.392 . S
C1089 C1093 1.495 . S
C1090 C1089 1.392 . S
C1090 C1091 1.385 . S
C1090 C1092 1.478 . S
C1091 H1085 0.930 . S
C1091 C1087 1.400 . S
C1091 C1090 1.385 . S
C1092 C1090 1.478 . S
C1092 C1094 1.381 . S
C1092 C1098 1.383 . S
C1093 C1089 1.495 . S
C1093 H1099 0.959 . S
C1093 H1100 0.961 . S
C1093 H1101 0.960 . S
C1094 C1092 1.381 . S
C1094 C1095 1.394 . S
C1094 H1102 0.930 . S
C1095 C1094 1.394 . S
C1095 C1096 1.383 . S
C1095 H1103 0.929 . S
C1096 C1095 1.383 . S
C1096 C1097 1.377 . S
C1097 H1081 0.930 . S
C1097 C1096 1.377 . S
C1097 C1098 1.379 . S
C1098 H1082 0.931 . S
C1098 C1092 1.383 . S
C1098 C1097 1.379 . S
H1099 C1093 0.959 . S
H1100 C1093 0.961 . S
H1101 C1093 0.960 . S
H1102 C1094 0.930 . S
H1103 C1095 0.929 . S
H1104 C1112 0.929 . S
H1105 C1114 0.930 . S
H1106 C1116 0.930 . S
H1107 C1119 0.929 . S
H1108 C1122 0.930 . S
H1109 C1124 0.960 . S
H1110 C1124 0.960 . S
H1111 C1124 0.960 . S
C1112 H1104 0.929 . S
C1112 C1113 1.377 . S
C1112 C1114 1.384 . S
C1113 C1112 1.377 . S
C1113 C1119 1.390 . S
C1114 H1105 0.930 . S
C1114 C1112 1.384 . S
C1114 C1115 1.372 . S
C1115 C1114 1.372 . S
C1115 C1116 1.400 . S
C1115 C1120 1.490 . S
C1116 H1106 0.930 . S
C1116 C1115 1.400 . S
C1116 C1119 1.386 . S
H1117 C1133 0.930 . S
H1118 C1134 0.931 . S
C1119 H1107 0.929 . S
C1119 C1113 1.390 . S
C1119 C1116 1.386 . S
C1120 C1115 1.490 . S
C1120 C1122 1.395 . S
C1120 C1123 1.403 . S
H1121 C1127 0.930 . S
C1122 H1108 0.930 . S
C1122 C1120 1.395 . S
C1122 C1125 1.403 . S
C1123 C1120 1.403 . S
C1123 C1124 1.524 . S
C1123 C1127 1.400 . S
C1124 H1109 0.960 . S
C1124 H1110 0.960 . S
C1124 H1111 0.960 . S
C1124 C1123 1.524 . S
C1125 C1122 1.403 . S
C1125 C1126 1.392 . S
C1125 C1129 1.495 . S
C1126 C1125 1.392 . S
C1126 C1127 1.385 . S
C1126 C1128 1.478 . S
C1127 H1121 0.930 . S
C1127 C1123 1.400 . S
C1127 C1126 1.385 . S
C1128 C1126 1.478 . S
C1128 C1130 1.381 . S
C1128 C1134 1.383 . S
C1129 C1125 1.495 . S
C1129 H1135 0.959 . S
C1129 H1136 0.961 . S
C1129 H1137 0.960 . S
C1130 C1128 1.381 . S
C1130 C1131 1.394 . S
C1130 H1138 0.930 . S
C1131 C1130 1.394 . S
C1131 C1132 1.383 . S
C1131 H1139 0.929 . S
C1132 C1131 1.383 . S
C1132 C1133 1.377 . S
C1133 H1117 0.930 . S
C1133 C1132 1.377 . S
C1133 C1134 1.379 . S
C1134 H1118 0.931 . S
C1134 C1128 1.383 . S
C1134 C1133 1.379 . S
H1135 C1129 0.959 . S
H1136 C1129 0.961 . S
H1137 C1129 0.960 . S
H1138 C1130 0.930 . S
H1139 C1131 0.929 . S
H1140 C1148 0.929 . S
H1141 C1150 0.930 . S
H1142 C1152 0.930 . S
H1143 C1155 0.929 . S
H1144 C1158 0.930 . S
H1145 C1160 0.960 . S
H1146 C1160 0.960 . S
H1147 C1160 0.960 . S
C1148 H1140 0.929 . S
C1148 C1149 1.377 . S
C1148 C1150 1.384 . S
C1149 C1148 1.377 . S
C1149 C1155 1.390 . S
C1150 H1141 0.930 . S
C1150 C1148 1.384 . S
C1150 C1151 1.372 . S
C1151 C1150 1.372 . S
C1151 C1152 1.400 . S
C1151 C1156 1.490 . S
C1152 H1142 0.930 . S
C1152 C1151 1.400 . S
C1152 C1155 1.386 . S
H1153 C1169 0.930 . S
H1154 C1170 0.931 . S
C1155 H1143 0.929 . S
C1155 C1149 1.390 . S
C1155 C1152 1.386 . S
C1156 C1151 1.490 . S
C1156 C1158 1.395 . S
C1156 C1159 1.403 . S
H1157 C1163 0.930 . S
C1158 H1144 0.930 . S
C1158 C1156 1.395 . S
C1158 C1161 1.403 . S
C1159 C1156 1.403 . S
C1159 C1160 1.524 . S
C1159 C1163 1.400 . S
C1160 H1145 0.960 . S
C1160 H1146 0.960 . S
C1160 H1147 0.960 . S
C1160 C1159 1.524 . S
C1161 C1158 1.403 . S
C1161 C1162 1.392 . S
C1161 C1165 1.495 . S
C1162 C1161 1.392 . S
C1162 C1163 1.385 . S
C1162 C1164 1.478 . S
C1163 H1157 0.930 . S
C1163 C1159 1.400 . S
C1163 C1162 1.385 . S
C1164 C1162 1.478 . S
C1164 C1166 1.381 . S
C1164 C1170 1.383 . S
C1165 C1161 1.495 . S
C1165 H1171 0.959 . S
C1165 H1172 0.961 . S
C1165 H1173 0.960 . S
C1166 C1164 1.381 . S
C1166 C1167 1.394 . S
C1166 H1174 0.930 . S
C1167 C1166 1.394 . S
C1167 C1168 1.383 . S
C1167 H1175 0.929 . S
C1168 C1167 1.383 . S
C1168 C1169 1.377 . S
C1169 H1153 0.930 . S
C1169 C1168 1.377 . S
C1169 C1170 1.379 . S
C1170 H1154 0.931 . S
C1170 C1164 1.383 . S
C1170 C1169 1.379 . S
H1171 C1165 0.959 . S
H1172 C1165 0.961 . S
H1173 C1165 0.960 . S
H1174 C1166 0.930 . S
H1175 C1167 0.929 . S
H1176 C1184 0.929 . S
H1177 C1186 0.930 . S
H1178 C1188 0.930 . S
H1179 C1191 0.929 . S
H1180 C1194 0.930 . S
H1181 C1196 0.960 . S
H1182 C1196 0.960 . S
H1183 C1196 0.960 . S
C1184 H1176 0.929 . S
C1184 C1185 1.377 . S
C1184 C1186 1.384 . S
C1185 C1184 1.377 . S
C1185 C1191 1.390 . S
C1186 H1177 0.930 . S
C1186 C1184 1.384 . S
C1186 C1187 1.372 . S
C1187 C1186 1.372 . S
C1187 C1188 1.400 . S
C1187 C1192 1.490 . S
C1188 H1178 0.930 . S
C1188 C1187 1.400 . S
C1188 C1191 1.386 . S
H1189 C1205 0.930 . S
H1190 C1206 0.931 . S
C1191 H1179 0.929 . S
C1191 C1185 1.390 . S
C1191 C1188 1.386 . S
C1192 C1187 1.490 . S
C1192 C1194 1.395 . S
C1192 C1195 1.403 . S
H1193 C1199 0.930 . S
C1194 H1180 0.930 . S
C1194 C1192 1.395 . S
C1194 C1197 1.403 . S
C1195 C1192 1.403 . S
C1195 C1196 1.524 . S
C1195 C1199 1.400 . S
C1196 H1181 0.960 . S
C1196 H1182 0.960 . S
C1196 H1183 0.960 . S
C1196 C1195 1.524 . S
C1197 C1194 1.403 . S
C1197 C1198 1.392 . S
C1197 C1201 1.495 . S
C1198 C1197 1.392 . S
C1198 C1199 1.385 . S
C1198 C1200 1.478 . S
C1199 H1193 0.930 . S
C1199 C1195 1.400 . S
C1199 C1198 1.385 . S
C1200 C1198 1.478 . S
C1200 C1202 1.381 . S
C1200 C1206 1.383 . S
C1201 C1197 1.495 . S
C1201 H1207 0.959 . S
C1201 H1208 0.961 . S
C1201 H1209 0.960 . S
C1202 C1200 1.381 . S
C1202 C1203 1.394 . S
C1202 H1210 0.930 . S
C1203 C1202 1.394 . S
C1203 C1204 1.383 . S
C1203 H1211 0.929 . S
C1204 C1203 1.383 . S
C1204 C1205 1.377 . S
C1205 H1189 0.930 . S
C1205 C1204 1.377 . S
C1205 C1206 1.379 . S
C1206 H1190 0.931 . S
C1206 C1200 1.383 . S
C1206 C1205 1.379 . S
H1207 C1201 0.959 . S
H1208 C1201 0.961 . S
H1209 C1201 0.960 . S
H1210 C1202 0.930 . S
H1211 C1203 0.929 . S
H1212 C1220 0.929 . S
H1213 C1222 0.930 . S
H1214 C1224 0.930 . S
H1215 C1227 0.929 . S
H1216 C1230 0.930 . S
H1217 C1232 0.960 . S
H1218 C1232 0.960 . S
H1219 C1232 0.960 . S
C1220 H1212 0.929 . S
C1220 C1221 1.377 . S
C1220 C1222 1.384 . S
C1221 C1220 1.377 . S
C1221 C1227 1.390 . S
C1222 H1213 0.930 . S
C1222 C1220 1.384 . S
C1222 C1223 1.372 . S
C1223 C1222 1.372 . S
C1223 C1224 1.400 . S
C1223 C1228 1.490 . S
C1224 H1214 0.930 . S
C1224 C1223 1.400 . S
C1224 C1227 1.386 . S
H1225 C1241 0.930 . S
H1226 C1242 0.931 . S
C1227 H1215 0.929 . S
C1227 C1221 1.390 . S
C1227 C1224 1.386 . S
C1228 C1223 1.490 . S
C1228 C1230 1.395 . S
C1228 C1231 1.403 . S
H1229 C1235 0.930 . S
C1230 H1216 0.930 . S
C1230 C1228 1.395 . S
C1230 C1233 1.403 . S
C1231 C1228 1.403 . S
C1231 C1232 1.524 . S
C1231 C1235 1.400 . S
C1232 H1217 0.960 . S
C1232 H1218 0.960 . S
C1232 H1219 0.960 . S
C1232 C1231 1.524 . S
C1233 C1230 1.403 . S
C1233 C1234 1.392 . S
C1233 C1237 1.495 . S
C1234 C1233 1.392 . S
C1234 C1235 1.385 . S
C1234 C1236 1.478 . S
C1235 H1229 0.930 . S
C1235 C1231 1.400 . S
C1235 C1234 1.385 . S
C1236 C1234 1.478 . S
C1236 C1238 1.381 . S
C1236 C1242 1.383 . S
C1237 C1233 1.495 . S
C1237 H1243 0.959 . S
C1237 H1244 0.961 . S
C1237 H1245 0.960 . S
C1238 C1236 1.381 . S
C1238 C1239 1.394 . S
C1238 H1246 0.930 . S
C1239 C1238 1.394 . S
C1239 C1240 1.383 . S
C1239 H1247 0.929 . S
C1240 C1239 1.383 . S
C1240 C1241 1.377 . S
C1241 H1225 0.930 . S
C1241 C1240 1.377 . S
C1241 C1242 1.379 . S
C1242 H1226 0.931 . S
C1242 C1236 1.383 . S
C1242 C1241 1.379 . S
H1243 C1237 0.959 . S
H1244 C1237 0.961 . S
H1245 C1237 0.960 . S
H1246 C1238 0.930 . S
H1247 C1239 0.929 . S
H1248 C1256 0.929 . S
H1249 C1258 0.930 . S
H1250 C1260 0.930 . S
H1251 C1263 0.929 . S
H1252 C1266 0.930 . S
H1253 C1268 0.960 . S
H1254 C1268 0.960 . S
H1255 C1268 0.960 . S
C1256 H1248 0.929 . S
C1256 C1257 1.377 . S
C1256 C1258 1.384 . S
C1257 C1256 1.377 . S
C1257 C1263 1.390 . S
C1258 H1249 0.930 . S
C1258 C1256 1.384 . S
C1258 C1259 1.372 . S
C1259 C1258 1.372 . S
C1259 C1260 1.400 . S
C1259 C1264 1.490 . S
C1260 H1250 0.930 . S
C1260 C1259 1.400 . S
C1260 C1263 1.386 . S
H1261 C1277 0.930 . S
H1262 C1278 0.931 . S
C1263 H1251 0.929 . S
C1263 C1257 1.390 . S
C1263 C1260 1.386 . S
C1264 C1259 1.490 . S
C1264 C1266 1.395 . S
C1264 C1267 1.403 . S
H1265 C1271 0.930 . S
C1266 H1252 0.930 . S
C1266 C1264 1.395 . S
C1266 C1269 1.403 . S
C1267 C1264 1.403 . S
C1267 C1268 1.524 . S
C1267 C1271 1.400 . S
C1268 H1253 0.960 . S
C1268 H1254 0.960 . S
C1268 H1255 0.960 . S
C1268 C1267 1.524 . S
C1269 C1266 1.403 . S
C1269 C1270 1.392 . S
C1269 C1273 1.495 . S
C1270 C1269 1.392 . S
C1270 C1271 1.385 . S
C1270 C1272 1.478 . S
C1271 H1265 0.930 . S
C1271 C1267 1.400 . S
C1271 C1270 1.385 . S
C1272 C1270 1.478 . S
C1272 C1274 1.381 . S
C1272 C1278 1.383 . S
C1273 C1269 1.495 . S
C1273 H1279 0.959 . S
C1273 H1280 0.961 . S
C1273 H1281 0.960 . S
C1274 C1272 1.381 . S
C1274 C1275 1.394 . S
C1274 H1282 0.930 . S
C1275 C1274 1.394 . S
C1275 C1276 1.383 . S
C1275 H1283 0.929 . S
C1276 C1275 1.383 . S
C1276 C1277 1.377 . S
C1277 H1261 0.930 . S
C1277 C1276 1.377 . S
C1277 C1278 1.379 . S
C1278 H1262 0.931 . S
C1278 C1272 1.383 . S
C1278 C1277 1.379 . S
H1279 C1273 0.959 . S
H1280 C1273 0.961 . S
H1281 C1273 0.960 . S
H1282 C1274 0.930 . S
H1283 C1275 0.929 . S
H1284 C1292 0.929 . S
H1285 C1294 0.930 . S
H1286 C1296 0.930 . S
H1287 C1299 0.929 . S
H1288 C1302 0.930 . S
H1289 C1304 0.960 . S
H1290 C1304 0.960 . S
H1291 C1304 0.960 . S
C1292 H1284 0.929 . S
C1292 C1293 1.377 . S
C1292 C1294 1.384 . S
C1293 C1292 1.377 . S
C1293 C1299 1.390 . S
C1294 H1285 0.930 . S
C1294 C1292 1.384 . S
C1294 C1295 1.372 . S
C1295 C1294 1.372 . S
C1295 C1296 1.400 . S
C1295 C1300 1.490 . S
C1296 H1286 0.930 . S
C1296 C1295 1.400 . S
C1296 C1299 1.386 . S
H1297 C1313 0.930 . S
H1298 C1314 0.931 . S
C1299 H1287 0.929 . S
C1299 C1293 1.390 . S
C1299 C1296 1.386 . S
C1300 C1295 1.490 . S
C1300 C1302 1.395 . S
C1300 C1303 1.403 . S
H1301 C1307 0.930 . S
C1302 H1288 0.930 . S
C1302 C1300 1.395 . S
C1302 C1305 1.403 . S
C1303 C1300 1.403 . S
C1303 C1304 1.524 . S
C1303 C1307 1.400 . S
C1304 H1289 0.960 . S
C1304 H1290 0.960 . S
C1304 H1291 0.960 . S
C1304 C1303 1.524 . S
C1305 C1302 1.403 . S
C1305 C1306 1.392 . S
C1305 C1309 1.495 . S
C1306 C1305 1.392 . S
C1306 C1307 1.385 . S
C1306 C1308 1.478 . S
C1307 H1301 0.930 . S
C1307 C1303 1.400 . S
C1307 C1306 1.385 . S
C1308 C1306 1.478 . S
C1308 C1310 1.381 . S
C1308 C1314 1.383 . S
C1309 C1305 1.495 . S
C1309 H1315 0.959 . S
C1309 H1316 0.961 . S
C1309 H1317 0.960 . S
C1310 C1308 1.381 . S
C1310 C1311 1.394 . S
C1310 H1318 0.930 . S
C1311 C1310 1.394 . S
C1311 C1312 1.383 . S
C1311 H1319 0.929 . S
C1312 C1311 1.383 . S
C1312 C1313 1.377 . S
C1313 H1297 0.930 . S
C1313 C1312 1.377 . S
C1313 C1314 1.379 . S
C1314 H1298 0.931 . S
C1314 C1308 1.383 . S
C1314 C1313 1.379 . S
H1315 C1309 0.959 . S
H1316 C1309 0.961 . S
H1317 C1309 0.960 . S
H1318 C1310 0.930 . S
H1319 C1311 0.929 . S
H1320 C1328 0.929 . S
H1321 C1330 0.930 . S
H1322 C1332 0.930 . S
H1323 C1335 0.929 . S
H1324 C1338 0.930 . S
H1325 C1340 0.960 . S
H1326 C1340 0.960 . S
H1327 C1340 0.960 . S
C1328 H1320 0.929 . S
C1328 C1329 1.377 . S
C1328 C1330 1.384 . S
C1329 C1328 1.377 . S
C1329 C1335 1.390 . S
C1330 H1321 0.930 . S
C1330 C1328 1.384 . S
C1330 C1331 1.372 . S
C1331 C1330 1.372 . S
C1331 C1332 1.400 . S
C1331 C1336 1.490 . S
C1332 H1322 0.930 . S
C1332 C1331 1.400 . S
C1332 C1335 1.386 . S
H1333 C1349 0.930 . S
H1334 C1350 0.931 . S
C1335 H1323 0.929 . S
C1335 C1329 1.390 . S
C1335 C1332 1.386 . S
C1336 C1331 1.490 . S
C1336 C1338 1.395 1_556 S
C1336 C1339 1.403 . S
H1337 C1343 0.930 . S
C1338 H1324 0.930 . S
C1338 C1336 1.395 1_554 S
C1338 C1341 1.403 . S
C1339 C1336 1.403 . S
C1339 C1340 1.524 . S
C1339 C1343 1.400 1_556 S
C1340 H1325 0.960 . S
C1340 H1326 0.960 . S
C1340 H1327 0.960 . S
C1340 C1339 1.524 . S
C1341 C1338 1.403 . S
C1341 C1342 1.392 . S
C1341 C1345 1.495 . S
C1342 C1341 1.392 . S
C1342 C1343 1.385 . S
C1342 C1344 1.478 . S
C1343 H1337 0.930 . S
C1343 C1339 1.400 1_554 S
C1343 C1342 1.385 . S
C1344 C1342 1.478 . S
C1344 C1346 1.381 . S
C1344 C1350 1.383 . S
C1345 C1341 1.495 . S
C1345 H1351 0.959 . S
C1345 H1352 0.961 . S
C1345 H1353 0.960 . S
C1346 C1344 1.381 . S
C1346 C1347 1.394 . S
C1346 H1354 0.930 . S
C1347 C1346 1.394 . S
C1347 C1348 1.383 . S
C1347 H1355 0.929 . S
C1348 C1347 1.383 . S
C1348 C1349 1.377 . S
C1349 H1333 0.930 . S
C1349 C1348 1.377 . S
C1349 C1350 1.379 . S
C1350 H1334 0.931 . S
C1350 C1344 1.383 . S
C1350 C1349 1.379 . S
H1351 C1345 0.959 . S
H1352 C1345 0.961 . S
H1353 C1345 0.960 . S
H1354 C1346 0.930 . S
H1355 C1347 0.929 . S
H1356 C1364 0.929 . S
H1357 C1366 0.930 . S
H1358 C1368 0.930 . S
H1359 C1371 0.929 . S
H1360 C1374 0.930 . S
H1361 C1376 0.960 . S
H1362 C1376 0.960 . S
H1363 C1376 0.960 . S
C1364 H1356 0.929 . S
C1364 C1365 1.377 . S
C1364 C1366 1.384 . S
C1365 C1364 1.377 . S
C1365 C1371 1.390 . S
C1366 H1357 0.930 . S
C1366 C1364 1.384 . S
C1366 C1367 1.372 . S
C1367 C1366 1.372 . S
C1367 C1368 1.400 . S
C1367 C1372 1.490 . S
C1368 H1358 0.930 . S
C1368 C1367 1.400 . S
C1368 C1371 1.386 . S
H1369 C1385 0.930 . S
H1370 C1386 0.931 . S
C1371 H1359 0.929 . S
C1371 C1365 1.390 . S
C1371 C1368 1.386 . S
C1372 C1367 1.490 . S
C1372 C1374 1.395 . S
C1372 C1375 1.403 . S
H1373 C1379 0.930 . S
C1374 H1360 0.930 . S
C1374 C1372 1.395 . S
C1374 C1377 1.403 1_455 S
C1375 C1372 1.403 . S
C1375 C1376 1.524 . S
C1375 C1379 1.400 1_455 S
C1376 H1361 0.960 . S
C1376 H1362 0.960 . S
C1376 H1363 0.960 . S
C1376 C1375 1.524 . S
C1377 C1374 1.403 1_655 S
C1377 C1378 1.392 . S
C1377 C1381 1.495 . S
C1378 C1377 1.392 . S
C1378 C1379 1.385 . S
C1378 C1380 1.478 . S
C1379 H1373 0.930 . S
C1379 C1375 1.400 1_655 S
C1379 C1378 1.385 . S
C1380 C1378 1.478 . S
C1380 C1382 1.381 . S
C1380 C1386 1.383 . S
C1381 C1377 1.495 . S
C1381 H1387 0.959 . S
C1381 H1388 0.961 . S
C1381 H1389 0.960 . S
C1382 C1380 1.381 . S
C1382 C1383 1.394 . S
C1382 H1390 0.930 . S
C1383 C1382 1.394 . S
C1383 C1384 1.383 . S
C1383 H1391 0.929 . S
C1384 C1383 1.383 . S
C1384 C1385 1.377 . S
C1385 H1369 0.930 . S
C1385 C1384 1.377 . S
C1385 C1386 1.379 . S
C1386 H1370 0.931 . S
C1386 C1380 1.383 . S
C1386 C1385 1.379 . S
H1387 C1381 0.959 . S
H1388 C1381 0.961 . S
H1389 C1381 0.960 . S
H1390 C1382 0.930 . S
H1391 C1383 0.929 . S
H1392 C1400 0.929 . S
H1393 C1402 0.930 . S
H1394 C1404 0.930 . S
H1395 C1407 0.929 . S
H1396 C1410 0.929 . S
H1397 C1412 0.960 . S
H1398 C1412 0.936 1_565 S
H1399 C1412 0.960 . S
C1400 H1392 0.929 . S
C1400 C1401 1.377 . S
C1400 C1402 1.384 . S
C1401 C1400 1.377 . S
C1401 C1407 1.390 . S
C1402 H1393 0.930 . S
C1402 C1400 1.384 . S
C1402 C1403 1.372 . S
C1403 C1402 1.372 . S
C1403 C1404 1.400 . S
C1403 C1408 1.490 . S
C1404 H1394 0.930 . S
C1404 C1403 1.400 . S
C1404 C1407 1.386 . S
H1405 C1421 0.930 . S
H1406 C1422 0.931 . S
C1407 H1395 0.929 . S
C1407 C1401 1.390 . S
C1407 C1404 1.386 . S
C1408 C1403 1.490 . S
C1408 C1410 1.357 1_554 S
C1408 C1411 1.403 1_565 S
H1409 C1415 0.930 . S
C1410 H1396 0.929 . S
C1410 C1408 1.357 1_556 S
C1410 C1413 1.444 . S
C1411 C1408 1.403 1_545 S
C1411 C1412 1.524 . S
C1411 C1415 1.400 1_554 S
C1412 H1397 0.960 . S
C1412 H1398 0.936 1_545 S
C1412 H1399 0.960 . S
C1412 C1411 1.524 . S
C1413 C1410 1.444 . S
C1413 C1414 1.392 1_565 S
C1413 C1417 1.495 . S
C1414 C1413 1.392 1_545 S
C1414 C1415 1.385 . S
C1414 C1416 1.478 . S
C1415 H1409 0.930 . S
C1415 C1411 1.400 1_556 S
C1415 C1414 1.385 . S
C1416 C1414 1.478 . S
C1416 C1418 1.381 . S
C1416 C1422 1.383 . S
C1417 C1413 1.495 . S
C1417 H1423 0.959 . S
C1417 H1424 0.961 . S
C1417 H1425 0.960 . S
C1418 C1416 1.381 . S
C1418 C1419 1.394 . S
C1418 H1426 0.930 . S
C1419 C1418 1.394 . S
C1419 C1420 1.383 . S
C1419 H1427 0.929 . S
C1420 C1419 1.383 . S
C1420 C1421 1.377 . S
C1421 H1405 0.930 . S
C1421 C1420 1.377 . S
C1421 C1422 1.379 . S
C1422 H1406 0.931 . S
C1422 C1416 1.383 . S
C1422 C1421 1.379 . S
H1423 C1417 0.959 . S
H1424 C1417 0.961 . S
H1425 C1417 0.960 . S
H1426 C1418 0.930 . S
H1427 C1419 0.929 . S
H1428 C1436 0.929 . S
H1429 C1438 0.930 . S
H1430 C1440 0.930 . S
H1431 C1443 0.929 . S
H1432 C1446 0.930 . S
H1433 C1448 0.960 . S
H1434 C1448 0.960 . S
H1435 C1448 0.960 . S
C1436 H1428 0.929 . S
C1436 C1437 1.377 . S
C1436 C1438 1.384 . S
C1437 C1436 1.377 . S
C1437 C1443 1.390 . S
C1438 H1429 0.930 . S
C1438 C1436 1.384 . S
C1438 C1439 1.372 . S
C1439 C1438 1.372 . S
C1439 C1440 1.400 . S
C1439 C1444 1.490 . S
C1440 H1430 0.930 . S
C1440 C1439 1.400 . S
C1440 C1443 1.386 . S
H1441 C1457 0.930 . S
H1442 C1458 0.931 . S
C1443 H1431 0.929 . S
C1443 C1437 1.390 . S
C1443 C1440 1.386 . S
C1444 C1439 1.490 . S
C1444 C1446 1.395 . S
C1444 C1447 1.403 . S
H1445 C1451 0.930 . S
C1446 H1432 0.930 . S
C1446 C1444 1.395 . S
C1446 C1449 1.403 . S
C1447 C1444 1.403 . S
C1447 C1448 1.524 . S
C1447 C1451 1.400 . S
C1448 H1433 0.960 . S
C1448 H1434 0.960 . S
C1448 H1435 0.960 . S
C1448 C1447 1.524 . S
C1449 C1446 1.403 . S
C1449 C1450 1.392 . S
C1449 C1453 1.495 . S
C1450 C1449 1.392 . S
C1450 C1451 1.385 . S
C1450 C1452 1.478 . S
C1451 H1445 0.930 . S
C1451 C1447 1.400 . S
C1451 C1450 1.385 . S
C1452 C1450 1.478 . S
C1452 C1454 1.381 . S
C1452 C1458 1.383 . S
C1453 C1449 1.495 . S
C1453 H1459 0.959 . S
C1453 H1460 0.961 . S
C1453 H1461 0.960 . S
C1454 C1452 1.381 . S
C1454 C1455 1.394 . S
C1454 H1462 0.930 . S
C1455 C1454 1.394 . S
C1455 C1456 1.383 . S
C1455 H1463 0.929 . S
C1456 C1455 1.383 . S
C1456 C1457 1.377 . S
C1457 H1441 0.930 . S
C1457 C1456 1.377 . S
C1457 C1458 1.379 . S
C1458 H1442 0.931 . S
C1458 C1452 1.383 . S
C1458 C1457 1.379 . S
H1459 C1453 0.959 . S
H1460 C1453 0.961 . S
H1461 C1453 0.960 . S
H1462 C1454 0.930 . S
H1463 C1455 0.929 . S
H1464 C1472 0.929 . S
H1465 C1474 0.930 . S
H1466 C1476 0.930 . S
H1467 C1479 0.929 . S
H1468 C1482 0.930 . S
H1469 C1484 0.960 1_554 S
H1470 C1484 0.960 . S
H1471 C1484 0.960 . S
C1472 H1464 0.929 . S
C1472 C1473 1.377 . S
C1472 C1474 1.384 . S
C1473 C1472 1.377 . S
C1473 C1479 1.390 . S
C1474 H1465 0.930 . S
C1474 C1472 1.384 . S
C1474 C1475 1.372 . S
C1475 C1474 1.372 . S
C1475 C1476 1.400 . S
C1475 C1480 1.490 . S
C1476 H1466 0.930 . S
C1476 C1475 1.400 . S
C1476 C1479 1.386 . S
H1477 C1493 0.930 . S
H1478 C1494 0.931 . S
C1479 H1467 0.929 . S
C1479 C1473 1.390 . S
C1479 C1476 1.386 . S
C1480 C1475 1.490 . S
C1480 C1482 1.395 . S
C1480 C1483 1.403 . S
H1481 C1487 0.930 . S
C1482 H1468 0.930 . S
C1482 C1480 1.395 . S
C1482 C1485 1.403 1_656 S
C1483 C1480 1.403 . S
C1483 C1484 1.524 . S
C1483 C1487 1.400 1_656 S
C1484 H1469 0.960 1_556 S
C1484 H1470 0.960 . S
C1484 H1471 0.960 . S
C1484 C1483 1.524 . S
C1485 C1482 1.403 1_454 S
C1485 C1486 1.392 . S
C1485 C1489 1.495 . S
C1486 C1485 1.392 . S
C1486 C1487 1.385 . S
C1486 C1488 1.478 . S
C1487 H1481 0.930 . S
C1487 C1483 1.400 1_454 S
C1487 C1486 1.385 . S
C1488 C1486 1.478 . S
C1488 C1490 1.381 . S
C1488 C1494 1.383 . S
C1489 C1485 1.495 . S
C1489 H1495 0.959 1_554 S
C1489 H1496 0.961 . S
C1489 H1497 0.960 . S
C1490 C1488 1.381 . S
C1490 C1491 1.394 . S
C1490 H1498 0.930 . S
C1491 C1490 1.394 . S
C1491 C1492 1.383 . S
C1491 H1499 0.929 . S
C1492 C1491 1.383 . S
C1492 C1493 1.377 . S
C1493 H1477 0.930 . S
C1493 C1492 1.377 . S
C1493 C1494 1.379 . S
C1494 H1478 0.931 . S
C1494 C1488 1.383 . S
C1494 C1493 1.379 . S
H1495 C1489 0.959 1_556 S
H1496 C1489 0.961 . S
H1497 C1489 0.960 . S
H1498 C1490 0.930 . S
H1499 C1491 0.929 . S
H1500 C1508 0.929 . S
H1501 C1510 0.930 . S
H1502 C1512 0.930 . S
H1503 C1515 0.929 . S
H1504 C1518 0.930 . S
H1505 C1520 0.960 . S
H1506 C1520 0.960 . S
H1507 C1520 0.960 . S
C1508 H1500 0.929 . S
C1508 C1509 1.377 . S
C1508 C1510 1.384 . S
C1509 C1508 1.377 . S
C1509 C1515 1.390 . S
C1510 H1501 0.930 . S
C1510 C1508 1.384 . S
C1510 C1511 1.372 . S
C1511 C1510 1.372 . S
C1511 C1512 1.400 . S
C1511 C1516 1.490 . S
C1512 H1502 0.930 . S
C1512 C1511 1.400 . S
C1512 C1515 1.386 . S
H1513 C1529 0.930 . S
H1514 C1530 0.931 . S
C1515 H1503 0.929 . S
C1515 C1509 1.390 . S
C1515 C1512 1.386 . S
C1516 C1511 1.490 . S
C1516 C1518 1.395 1_565 S
C1516 C1519 1.403 . S
H1517 C1523 0.930 . S
C1518 H1504 0.930 . S
C1518 C1516 1.395 1_545 S
C1518 C1521 1.403 . S
C1519 C1516 1.403 . S
C1519 C1520 1.524 . S
C1519 C1523 1.400 . S
C1520 H1505 0.960 . S
C1520 H1506 0.960 . S
C1520 H1507 0.960 . S
C1520 C1519 1.524 . S
C1521 C1518 1.403 . S
C1521 C1522 1.392 . S
C1521 C1525 1.495 . S
C1522 C1521 1.392 . S
C1522 C1523 1.385 1_545 S
C1522 C1524 1.478 . S
C1523 H1517 0.930 . S
C1523 C1519 1.400 . S
C1523 C1522 1.385 1_565 S
C1524 C1522 1.478 . S
C1524 C1526 1.381 . S
C1524 C1530 1.383 . S
C1525 C1521 1.495 . S
C1525 H1531 0.959 . S
C1525 H1532 0.961 . S
C1525 H1533 0.960 . S
C1526 C1524 1.381 . S
C1526 C1527 1.394 . S
C1526 H1534 0.930 . S
C1527 C1526 1.394 . S
C1527 C1528 1.383 . S
C1527 H1535 0.929 . S
C1528 C1527 1.383 . S
C1528 C1529 1.377 . S
C1529 H1513 0.930 . S
C1529 C1528 1.377 . S
C1529 C1530 1.379 . S
C1530 H1514 0.931 . S
C1530 C1524 1.383 . S
C1530 C1529 1.379 . S
H1531 C1525 0.959 . S
H1532 C1525 0.961 . S
H1533 C1525 0.960 . S
H1534 C1526 0.930 . S
H1535 C1527 0.929 . S
C249 C86 1.368 . S
C268 C19 1.353 . S
C285 C106 1.369 . S
C304 C39 1.351 . S
C321 C59 1.381 . S
C340 C6 1.334 . S
C357 C79 1.380 . S
C376 C26 1.337 . S
C393 C99 1.375 . S
C412 C46 1.388 . S
C429 C66 1.360 . S
C448 C119 1.398 . S
C465 C166 1.371 . S
C484 C139 1.351 . S
C501 C159 1.382 . S
C520 C186 1.340 . S
C537 C206 1.371 . S
C556 C179 1.358 . S
C573 C199 1.373 . S
C592 C226 1.390 . S
C609 C219 1.376 . S
C628 C126 1.382 . S
C645 C146 1.366 . S
C664 C239 1.385 . S
C681 C96 1.594 . S
C700 C8 1.491 . S
C717 C28 1.524 . S
C736 C116 1.575 . S
C753 C48 1.519 . S
C772 C16 1.601 . S
C789 C68 1.524 . S
C808 C36 1.575 . S
C825 C56 1.592 . S
C844 C88 1.492 . S
C861 C76 1.592 . S
C880 C108 1.549 . S
C897 C176 1.590 . S
C916 C128 1.544 . S
C933 C148 1.522 . S
C952 C196 1.576 . S
C969 C168 1.527 . S
C988 C216 1.597 . S
C1005 C236 1.591 . S
C1024 C188 1.499 . S
C1041 C208 1.517 . S
C1060 C136 1.587 . S
C1077 C156 1.591 . S
C1096 C228 1.550 . S
C1113 C209 1.723 . S
C1132 C9 1.715 . S
C1149 C29 1.726 . S
C1168 C229 1.708 . S
C1185 C49 1.723 . S
C1204 C129 1.724 . S
C1221 C69 1.724 . S
C1240 C149 1.712 . S
C1257 C89 1.720 . S
C1276 C169 1.732 . S
C1293 C189 1.727 . S
C1312 C109 1.707 . S
C1329 C181 1.850 . S
C1348 C1 1.834 . S
C1365 C201 1.850 . S
C1384 C21 1.841 . S
C1401 C41 1.850 . S
C1420 C221 1.834 . S
C1437 C61 1.849 . S
C1456 C121 1.844 . S
C1473 C141 1.850 . S
C1492 C81 1.841 . S
C1509 C161 1.847 . S
C1528 C101 1.851 . S
