# Generated by pormake.
# Topology fst, (5)-cn, num edge types: 1
# Building blocks:
#     Node 0, Type 0, BuildingBlock: XOMCOT_clean_sbu_0, # of connection points: 5
#     Node 1, Type 0, BuildingBlock: XOMCOT_clean_sbu_0, # of connection points: 5
#     Node 2, Type 0, BuildingBlock: XOMCOT_clean_sbu_0, # of connection points: 5
#     Node 3, Type 0, BuildingBlock: XOMCOT_clean_sbu_0, # of connection points: 5
#     Node 4, Type 0, BuildingBlock: XOMCOT_clean_sbu_0, # of connection points: 5
#     Node 5, Type 0, BuildingBlock: XOMCOT_clean_sbu_0, # of connection points: 5
#     Node 6, Type 0, BuildingBlock: XOMCOT_clean_sbu_0, # of connection points: 5
#     Node 7, Type 0, BuildingBlock: XOMCOT_clean_sbu_0, # of connection points: 5
#     Node 8, Type 0, BuildingBlock: XOMCOT_clean_sbu_0, # of connection points: 5
#     Node 9, Type 0, BuildingBlock: XOMCOT_clean_sbu_0, # of connection points: 5
#     Node 10, Type 0, BuildingBlock: XOMCOT_clean_sbu_0, # of connection points: 5
#     Node 11, Type 0, BuildingBlock: XOMCOT_clean_sbu_0, # of connection points: 5
#     Edge 12, Type (0, 0), BuildingBlock: XIVTED_clean_linker_0, # of connection points: 2
#     Edge 13, Type (0, 0), BuildingBlock: XIVTED_clean_linker_0, # of connection points: 2
#     Edge 14, Type (0, 0), BuildingBlock: XIVTED_clean_linker_0, # of connection points: 2
#     Edge 15, Type (0, 0), BuildingBlock: XIVTED_clean_linker_0, # of connection points: 2
#     Edge 16, Type (0, 0), BuildingBlock: XIVTED_clean_linker_0, # of connection points: 2
#     Edge 17, Type (0, 0), BuildingBlock: XIVTED_clean_linker_0, # of connection points: 2
#     Edge 18, Type (0, 0), BuildingBlock: XIVTED_clean_linker_0, # of connection points: 2
#     Edge 19, Type (0, 0), BuildingBlock: XIVTED_clean_linker_0, # of connection points: 2
#     Edge 20, Type (0, 0), BuildingBlock: XIVTED_clean_linker_0, # of connection points: 2
#     Edge 21, Type (0, 0), BuildingBlock: XIVTED_clean_linker_0, # of connection points: 2
#     Edge 22, Type (0, 0), BuildingBlock: XIVTED_clean_linker_0, # of connection points: 2
#     Edge 23, Type (0, 0), BuildingBlock: XIVTED_clean_linker_0, # of connection points: 2
#     Edge 24, Type (0, 0), BuildingBlock: XIVTED_clean_linker_0, # of connection points: 2
#     Edge 25, Type (0, 0), BuildingBlock: XIVTED_clean_linker_0, # of connection points: 2
#     Edge 26, Type (0, 0), BuildingBlock: XIVTED_clean_linker_0, # of connection points: 2
#     Edge 27, Type (0, 0), BuildingBlock: XIVTED_clean_linker_0, # of connection points: 2
#     Edge 28, Type (0, 0), BuildingBlock: XIVTED_clean_linker_0, # of connection points: 2
#     Edge 29, Type (0, 0), BuildingBlock: XIVTED_clean_linker_0, # of connection points: 2
#     Edge 30, Type (0, 0), BuildingBlock: XIVTED_clean_linker_0, # of connection points: 2
#     Edge 31, Type (0, 0), BuildingBlock: XIVTED_clean_linker_0, # of connection points: 2
#     Edge 32, Type (0, 0), BuildingBlock: XIVTED_clean_linker_0, # of connection points: 2
#     Edge 33, Type (0, 0), BuildingBlock: XIVTED_clean_linker_0, # of connection points: 2
#     Edge 34, Type (0, 0), BuildingBlock: XIVTED_clean_linker_0, # of connection points: 2
#     Edge 35, Type (0, 0), BuildingBlock: XIVTED_clean_linker_0, # of connection points: 2
#     Edge 36, Type (0, 0), BuildingBlock: XIVTED_clean_linker_0, # of connection points: 2
#     Edge 37, Type (0, 0), BuildingBlock: XIVTED_clean_linker_0, # of connection points: 2
#     Edge 38, Type (0, 0), BuildingBlock: XIVTED_clean_linker_0, # of connection points: 2
#     Edge 39, Type (0, 0), BuildingBlock: XIVTED_clean_linker_0, # of connection points: 2
#     Edge 40, Type (0, 0), BuildingBlock: XIVTED_clean_linker_0, # of connection points: 2
#     Edge 41, Type (0, 0), BuildingBlock: XIVTED_clean_linker_0, # of connection points: 2
# Relax obj value: 0.183
# Max RMSD: 0.161
# Mean RMSD: 0.161
data_MOF--net-fst--node1-XOMCOT_clean_sbu_0--edge1-XIVTED_clean_linker_0
_symmetry_space_group_name_H-M    P1
_symmetry_Int_Tables_number       1
_symmetry_cell_setting            triclinic
loop_
_symmetry_equiv_pos_as_xyz
'x, y, z'
_cell_length_a     74.230437
_cell_length_b     74.339391
_cell_length_c     17.821969
_cell_angle_alpha  90.070104
_cell_angle_beta   89.957097
_cell_angle_gamma 119.9992
loop_
_atom_site_label
_atom_site_type_symbol
_atom_site_fract_x
_atom_site_fract_y
_atom_site_fract_z
_atom_type_partial_charge
Co0 Co 0.11903 0.43188 0.05771 0.0
C1 C 0.1169 0.42972 0.22416 0.0
C2 C 0.09508 0.40087 0.17203 0.0
C3 C 0.09321 0.39833 0.24856 0.0
N4 N 0.10984 0.42052 0.15683 0.0
N5 N 0.10698 0.41644 0.28156 0.0
H6 H 0.12929 0.44563 0.23066 0.0
H7 H 0.08635 0.38911 0.13031 0.0
C8 C 0.07819 0.41967 0.98268 0.0
O9 O 0.08681 0.43807 0.95083 0.0
N10 N 0.12846 0.44281 0.95654 0.0
C11 C 0.14647 0.46004 0.93796 0.0
C12 C 0.14819 0.46167 0.86133 0.0
C13 C 0.12015 0.43358 0.8899 0.0
N14 N 0.13158 0.44512 0.83092 0.0
C15 C 0.13168 0.47478 0.08047 0.0
C16 C 0.09236 0.4694 0.09865 0.0
C17 C 0.10887 0.48918 0.08011 0.0
C18 C 0.12897 0.49198 0.07701 0.0
C19 C 0.09595 0.45261 0.1025 0.0
N20 N 0.11496 0.4552 0.08345 0.0
H21 H 0.14722 0.47724 0.07774 0.0
H22 H 0.08309 0.43735 0.11526 0.0
H23 H 0.15836 0.47029 0.97656 0.0
H24 H 0.1061 0.41867 0.88452 0.0
O25 O 0.14751 0.4437 0.08887 0.0
O26 O 0.12863 0.41222 0.04024 0.0
O27 O 0.08921 0.4145 0.02247 0.0
C28 C 0.14651 0.4266 0.06633 0.0
H29 H 0.08239 0.3842 0.2774 0.0
H30 H 0.16117 0.47373 0.83042 0.0
H31 H 0.07668 0.46665 0.10528 0.0
H32 H 0.14243 0.50723 0.06861 0.0
Co33 Co 0.6897 0.12136 0.04954 0.0
C34 C 0.69145 0.12066 0.21615 0.0
C35 C 0.7016 0.1012 0.16389 0.0
C36 C 0.70293 0.09985 0.2404 0.0
N37 N 0.69436 0.11417 0.1488 0.0
N38 N 0.69657 0.11208 0.27342 0.0
H39 H 0.68592 0.13155 0.22288 0.0
H40 H 0.70555 0.09321 0.122 0.0
C41 C 0.66155 0.0788 0.97966 0.0
O42 O 0.65204 0.08589 0.93713 0.0
N43 N 0.68552 0.12872 0.9486 0.0
C44 C 0.68173 0.14408 0.92953 0.0
C45 C 0.6813 0.14531 0.85287 0.0
C46 C 0.68838 0.12152 0.88237 0.0
N47 N 0.68534 0.13105 0.82299 0.0
C48 C 0.66211 0.13624 0.09177 0.0
C49 C 0.62607 0.09811 0.09383 0.0
C50 C 0.62454 0.11612 0.08791 0.0
C51 C 0.64291 0.13539 0.09268 0.0
C52 C 0.64572 0.09977 0.09347 0.0
N53 N 0.66327 0.11861 0.08297 0.0
H54 H 0.67605 0.15127 0.09263 0.0
H55 H 0.64654 0.08578 0.09874 0.0
H56 H 0.68038 0.15457 0.96765 0.0
H57 H 0.69249 0.1095 0.87785 0.0
O58 O 0.70807 0.15042 0.07171 0.0
O59 O 0.71795 0.12936 0.02182 0.0
O60 O 0.67629 0.09095 0.02332 0.0
C61 C 0.72296 0.14786 0.04528 0.0
H62 H 0.70788 0.09027 0.26932 0.0
H63 H 0.67894 0.15643 0.82153 0.0
H64 H 0.61234 0.08283 0.09423 0.0
H65 H 0.64251 0.14976 0.09339 0.0
Co66 Co 0.56746 0.68844 0.06208 0.0
C67 C 0.5688 0.68728 0.22859 0.0
C68 C 0.59848 0.69676 0.1779 0.0
C69 C 0.60068 0.69696 0.25451 0.0
N70 N 0.57851 0.69056 0.16171 0.0
N71 N 0.58205 0.69103 0.28646 0.0
H72 H 0.55246 0.68233 0.23461 0.0
H73 H 0.61072 0.70129 0.13685 0.0
C74 C 0.58393 0.66398 0.97944 0.0
O75 O 0.56633 0.65367 0.94247 0.0
N76 N 0.55669 0.6869 0.96088 0.0
C77 C 0.53793 0.68439 0.94236 0.0
C78 C 0.53675 0.68566 0.86593 0.0
C79 C 0.56699 0.69065 0.89482 0.0
N80 N 0.55498 0.6895 0.83577 0.0
C81 C 0.52515 0.65747 0.09092 0.0
C82 C 0.53057 0.62338 0.08669 0.0
C83 C 0.51046 0.62039 0.0781 0.0
C84 C 0.50779 0.63766 0.08596 0.0
C85 C 0.54756 0.64364 0.09222 0.0
N86 N 0.54475 0.66039 0.08481 0.0
H87 H 0.52268 0.67052 0.09568 0.0
H88 H 0.56292 0.64572 0.09887 0.0
H89 H 0.526 0.68256 0.98106 0.0
H90 H 0.58306 0.69449 0.89014 0.0
O91 O 0.55441 0.704 0.09358 0.0
O92 O 0.58629 0.71793 0.04714 0.0
O93 O 0.58648 0.67803 0.02655 0.0
C94 C 0.57135 0.72059 0.07282 0.0
H95 H 0.61507 0.70177 0.28438 0.0
H96 H 0.52338 0.68381 0.83508 0.0
H97 H 0.53332 0.61038 0.08491 0.0
H98 H 0.49243 0.63598 0.08503 0.0
Co99 Co 0.87359 0.56356 0.06973 0.0
C100 C 0.87438 0.56535 0.23602 0.0
C101 C 0.89299 0.59532 0.18541 0.0
C102 C 0.89414 0.59774 0.26202 0.0
N103 N 0.88069 0.57506 0.1693 0.0
N104 N 0.88241 0.57891 0.29392 0.0
H105 H 0.86388 0.54882 0.24182 0.0
H106 H 0.90057 0.60752 0.14416 0.0
C107 C 0.91604 0.58124 0.99491 0.0
O108 O 0.90955 0.56488 0.95142 0.0
N109 N 0.86621 0.5523 0.9686 0.0
C110 C 0.8518 0.53272 0.94943 0.0
C111 C 0.85021 0.53121 0.8728 0.0
C112 C 0.87238 0.56268 0.90274 0.0
N113 N 0.86327 0.54999 0.84326 0.0
C114 C 0.86198 0.52177 0.10953 0.0
C115 C 0.90122 0.52646 0.10219 0.0
C116 C 0.88385 0.50641 0.09767 0.0
C117 C 0.86411 0.50419 0.10742 0.0
C118 C 0.89828 0.54366 0.10517 0.0
N119 N 0.87877 0.54111 0.09914 0.0
H120 H 0.84652 0.51958 0.11366 0.0
H121 H 0.91179 0.55889 0.10948 0.0
H122 H 0.84225 0.52039 0.98764 0.0
H123 H 0.88351 0.57911 0.89855 0.0
O124 O 0.84442 0.55044 0.09391 0.0
O125 O 0.86297 0.58213 0.04715 0.0
O126 O 0.90365 0.58262 0.04129 0.0
C127 C 0.84501 0.56724 0.07025 0.0
H128 H 0.90314 0.61226 0.29178 0.0
H129 H 0.83973 0.51742 0.84136 0.0
H130 H 0.91688 0.52897 0.099 0.0
H131 H 0.85028 0.48897 0.10936 0.0
Co132 Co 0.3088 0.87614 0.07571 0.0
C133 C 0.30801 0.87727 0.24199 0.0
C134 C 0.29826 0.89719 0.19121 0.0
C135 C 0.29742 0.89874 0.26786 0.0
N136 N 0.30499 0.88385 0.17518 0.0
N137 N 0.30355 0.88622 0.29981 0.0
H138 H 0.31349 0.86631 0.24797 0.0
H139 H 0.29407 0.90511 0.14992 0.0
C140 C 0.33518 0.91769 1.00012 0.0
O141 O 0.34464 0.91003 0.96003 0.0
N142 N 0.31202 0.86821 0.97444 0.0
C143 C 0.316 0.85302 0.95443 0.0
C144 C 0.31493 0.85097 0.87784 0.0
C145 C 0.30768 0.87454 0.90914 0.0
N146 N 0.30975 0.86452 0.84916 0.0
C147 C 0.33893 0.86404 0.11227 0.0
C148 C 0.37303 0.90352 0.12069 0.0
C149 C 0.37626 0.88653 0.11523 0.0
C150 C 0.35881 0.86651 0.11559 0.0
C151 C 0.35275 0.90023 0.11801 0.0
N152 N 0.33624 0.88082 0.10495 0.0
H153 H 0.32575 0.84851 0.11199 0.0
H154 H 0.35057 0.91342 0.12453 0.0
H155 H 0.3186 0.84323 0.99195 0.0
H156 H 0.30276 0.88597 0.90585 0.0
O157 O 0.29229 0.84718 0.10134 0.0
O158 O 0.2797 0.86619 0.05399 0.0
O159 O 0.32059 0.90612 0.04538 0.0
C160 C 0.27626 0.84817 0.07763 0.0
H161 H 0.29225 0.90804 0.29766 0.0
H162 H 0.31771 0.8402 0.84589 0.0
H163 H 0.38603 0.91922 0.12534 0.0
H164 H 0.36042 0.85282 0.11415 0.0
Co165 Co 0.42404 0.30336 0.05927 0.0
C166 C 0.42174 0.3024 0.22597 0.0
C167 C 0.3924 0.2937 0.17394 0.0
C168 C 0.38986 0.29307 0.25049 0.0
N169 N 0.41237 0.29966 0.15866 0.0
N170 N 0.40829 0.29855 0.28329 0.0
H171 H 0.43805 0.30735 0.23272 0.0
H172 H 0.38049 0.29003 0.13216 0.0
C173 C 0.41075 0.33187 0.98603 0.0
O174 O 0.42746 0.34062 0.94364 0.0
N175 N 0.43535 0.30654 0.95812 0.0
C176 C 0.45417 0.30932 0.93883 0.0
C177 C 0.4553 0.30834 0.86229 0.0
C178 C 0.42501 0.30304 0.89224 0.0
N179 N 0.43699 0.30439 0.83271 0.0
C180 C 0.46676 0.33052 0.09871 0.0
C181 C 0.46516 0.36679 0.1026 0.0
C182 C 0.48456 0.368 0.09601 0.0
C183 C 0.48526 0.34954 0.09931 0.0
C184 C 0.44702 0.34733 0.10176 0.0
N185 N 0.44807 0.32967 0.09074 0.0
H186 H 0.46765 0.31649 0.09964 0.0
H187 H 0.43227 0.3467 0.10728 0.0
H188 H 0.46612 0.31091 0.97684 0.0
H189 H 0.40888 0.29905 0.88822 0.0
O190 O 0.43436 0.28487 0.08373 0.0
O191 O 0.40341 0.27508 0.03383 0.0
O192 O 0.40756 0.31719 0.03092 0.0
C193 C 0.41683 0.27002 0.05791 0.0
H194 H 0.37543 0.28856 0.27969 0.0
H195 H 0.46863 0.31021 0.831 0.0
H196 H 0.46389 0.38068 0.10401 0.0
H197 H 0.49996 0.34976 0.09909 0.0
Co198 Co 0.56656 0.88227 1.00323 0.0
C199 C 0.56846 0.88153 0.83693 0.0
C200 C 0.59861 0.89902 0.88772 0.0
C201 C 0.60108 0.89975 0.81113 0.0
N202 N 0.5782 0.88767 0.9037 0.0
N203 N 0.58212 0.88877 0.77916 0.0
H204 H 0.55179 0.87189 0.83085 0.0
H205 H 0.61084 0.90643 0.92905 0.0
C206 C 0.58436 0.92553 0.07097 0.0
O207 O 0.56881 0.91924 0.11834 0.0
N208 N 0.55514 0.87659 0.10435 0.0
C209 C 0.5351 0.86394 0.124 0.0
C210 C 0.53362 0.8627 0.20066 0.0
C211 C 0.56571 0.88208 0.17001 0.0
N212 N 0.55282 0.87421 0.22978 0.0
C213 C 0.52497 0.86905 0.95424 0.0
C214 C 0.52746 0.90727 0.9639 0.0
C215 C 0.50781 0.88927 0.96506 0.0
C216 C 0.50675 0.87011 0.9539 0.0
C217 C 0.54533 0.90542 0.96333 0.0
N218 N 0.54376 0.88633 0.96819 0.0
H219 H 0.52356 0.85392 0.95085 0.0
H220 H 0.56018 0.91944 0.96176 0.0
H221 H 0.52232 0.85523 0.08628 0.0
H222 H 0.58243 0.89184 0.17375 0.0
O223 O 0.55386 0.8528 0.98684 0.0
O224 O 0.58553 0.87262 0.03259 0.0
O225 O 0.58524 0.91282 0.02484 0.0
C226 C 0.57079 0.85417 1.01325 0.0
H227 H 0.6157 0.90815 0.78139 0.0
H228 H 0.51951 0.8534 0.23242 0.0
H229 H 0.5291 0.92254 0.96837 0.0
H230 H 0.4919 0.85587 0.94997 0.0
Co231 Co 0.67818 0.56326 1.00234 0.0
C232 C 0.67866 0.56471 0.83436 0.0
C233 C 0.69807 0.59442 0.88541 0.0
C234 C 0.69924 0.59696 0.80903 0.0
N235 N 0.68515 0.57424 0.90152 0.0
N236 N 0.68705 0.57829 0.77678 0.0
H237 H 0.66823 0.54825 0.8274 0.0
H238 H 0.70611 0.60656 0.92642 0.0
C239 C 0.675 0.60098 0.03936 0.0
O240 O 0.69444 0.61104 0.06194 0.0
N241 N 0.67141 0.55261 0.10332 0.0
C242 C 0.66383 0.53263 0.12341 0.0
C243 C 0.66175 0.53112 0.19998 0.0
C244 C 0.67418 0.5631 0.16805 0.0
N245 N 0.66827 0.55025 0.22805 0.0
C246 C 0.64899 0.52299 0.94359 0.0
C247 C 0.61374 0.52313 0.99229 0.0
C248 C 0.6121 0.50416 0.97223 0.0
C249 C 0.62988 0.5044 0.94404 0.0
C250 C 0.63309 0.54119 0.9926 0.0
N251 N 0.6507 0.54094 0.9713 0.0
H252 H 0.66271 0.5225 0.92669 0.0
H253 H 0.63363 0.55475 0.01609 0.0
H254 H 0.6606 0.52005 0.08539 0.0
H255 H 0.68057 0.57972 0.17125 0.0
O256 O 0.69389 0.54923 0.98983 0.0
O257 O 0.70702 0.58138 0.03197 0.0
O258 O 0.66657 0.58206 0.01923 0.0
C259 C 0.70993 0.56599 0.01479 0.0
H260 H 0.70812 0.61157 0.77978 0.0
H261 H 0.65661 0.51713 0.2327 0.0
H262 H 0.60035 0.52389 1.01216 0.0
H263 H 0.62946 0.49017 0.92764 0.0
Co264 Co 0.11205 0.68316 1.01237 0.0
C265 C 0.11208 0.68556 0.84581 0.0
C266 C 0.09481 0.69829 0.89791 0.0
C267 C 0.09392 0.70007 0.82138 0.0
N268 N 0.10612 0.68917 0.9131 0.0
N269 N 0.10477 0.69207 0.7885 0.0
H270 H 0.12169 0.67852 0.83913 0.0
H271 H 0.08762 0.70323 0.93972 0.0
C272 C 0.06931 0.65833 0.08306 0.0
O273 O 0.07568 0.64807 0.12494 0.0
N274 N 0.11827 0.67767 0.11329 0.0
C275 C 0.13127 0.67065 0.13215 0.0
C276 C 0.13257 0.67024 0.20879 0.0
C277 C 0.11263 0.68237 0.17957 0.0
N278 N 0.12075 0.67744 0.23887 0.0
C279 C 0.12299 0.65292 0.96536 0.0
C280 C 0.08322 0.61916 0.95971 0.0
C281 C 0.10016 0.61576 0.95887 0.0
C282 C 0.12025 0.63306 0.9573 0.0
C283 C 0.08676 0.63944 0.96652 0.0
N284 N 0.10642 0.65576 0.97773 0.0
H285 H 0.13866 0.66589 0.9664 0.0
H286 H 0.07356 0.64171 0.96393 0.0
H287 H 0.14011 0.66688 0.09391 0.0
H288 H 0.10258 0.68898 0.18414 0.0
O289 O 0.14144 0.6988 0.99198 0.0
O290 O 0.12314 0.71211 0.04015 0.0
O291 O 0.08186 0.67246 0.0382 0.0
C292 C 0.14112 0.71493 0.01832 0.0
H293 H 0.08556 0.70643 0.79233 0.0
H294 H 0.1421 0.66559 0.23991 0.0
H295 H 0.06742 0.60628 0.95651 0.0
H296 H 0.13385 0.63128 0.95458 0.0
Co297 Co 0.4287 0.11349 1.00108 0.0
C298 C 0.42657 0.11269 0.83475 0.0
C299 C 0.39718 0.09179 0.88587 0.0
C300 C 0.39473 0.09028 0.80925 0.0
N301 N 0.41712 0.10572 0.90169 0.0
N302 N 0.41319 0.10339 0.77707 0.0
H303 H 0.44287 0.12411 0.82854 0.0
H304 H 0.38522 0.08339 0.92731 0.0
C305 C 0.41496 0.07163 0.0745 0.0
O306 O 0.4315 0.07933 0.11766 0.0
N307 N 0.43991 0.12141 0.10219 0.0
C308 C 0.45889 0.13701 0.1221 0.0
C309 C 0.45984 0.139 0.19872 0.0
C310 C 0.42932 0.11471 0.16757 0.0
N311 N 0.44127 0.12498 0.22751 0.0
C312 C 0.47142 0.12888 0.96053 0.0
C313 C 0.46964 0.09093 0.95584 0.0
C314 C 0.48917 0.10904 0.95973 0.0
C315 C 0.48988 0.12824 0.95742 0.0
C316 C 0.45156 0.09236 0.95867 0.0
N317 N 0.45272 0.11112 0.96949 0.0
H318 H 0.47236 0.14383 0.96053 0.0
H319 H 0.43678 0.07828 0.95397 0.0
H320 H 0.47112 0.14712 0.08451 0.0
H321 H 0.41307 0.10289 0.17091 0.0
O322 O 0.43892 0.14238 0.97747 0.0
O323 O 0.40797 0.12094 0.02667 0.0
O324 O 0.41215 0.08321 0.02884 0.0
C325 C 0.42126 0.13948 1.00309 0.0
H326 H 0.38033 0.08052 0.77963 0.0
H327 H 0.47323 0.1501 0.23059 0.0
H328 H 0.46831 0.07576 0.95256 0.0
H329 H 0.50454 0.14273 0.95789 0.0
Co330 Co 0.31352 0.43087 1.00702 0.0
C331 C 0.31124 0.42851 0.84039 0.0
C332 C 0.29864 0.39857 0.89242 0.0
C333 C 0.29694 0.39586 0.81592 0.0
N334 N 0.30763 0.41898 0.90765 0.0
N335 N 0.30484 0.41467 0.78307 0.0
H336 H 0.3182 0.44513 0.83374 0.0
H337 H 0.29376 0.38647 0.93423 0.0
C338 C 0.3391 0.4136 0.07596 0.0
O339 O 0.34942 0.43028 0.11765 0.0
N340 N 0.31888 0.44248 0.10816 0.0
C341 C 0.32514 0.4623 0.12752 0.0
C342 C 0.32564 0.46395 0.20418 0.0
C343 C 0.31469 0.43214 0.17422 0.0
N344 N 0.31923 0.44504 0.23378 0.0
C345 C 0.34361 0.47237 0.96239 0.0
C346 C 0.37749 0.46662 0.95351 0.0
C347 C 0.38088 0.48694 0.95522 0.0
C348 C 0.36349 0.48961 0.95529 0.0
C349 C 0.35721 0.44978 0.95981 0.0
N350 N 0.34084 0.45296 0.97269 0.0
H351 H 0.33054 0.47494 0.96411 0.0
H352 H 0.35496 0.43436 0.95558 0.0
H353 H 0.32823 0.47477 0.08966 0.0
H354 H 0.30866 0.41558 0.17846 0.0
O355 O 0.29742 0.44417 0.98711 0.0
O356 O 0.28461 0.4126 0.03466 0.0
O357 O 0.32466 0.41176 0.03216 0.0
C358 C 0.28143 0.42752 1.01314 0.0
H359 H 0.2907 0.38116 0.78686 0.0
H360 H 0.32974 0.47794 0.23568 0.0
H361 H 0.3904 0.46377 0.94875 0.0
H362 H 0.36518 0.50495 0.95437 0.0
Co363 Co 0.88414 0.31287 1.00911 0.0
C364 C 0.88564 0.31215 0.84316 0.0
C365 C 0.90813 0.30583 0.89394 0.0
C366 C 0.90991 0.30535 0.81718 0.0
N367 N 0.89301 0.3102 0.91001 0.0
N368 N 0.89577 0.30931 0.78525 0.0
H369 H 0.8733 0.31579 0.83722 0.0
H370 H 0.91715 0.30307 0.93518 0.0
C371 C 0.92495 0.3427 0.0825 0.0
O372 O 0.91619 0.35241 0.11402 0.0
N373 N 0.87511 0.31499 0.11003 0.0
C374 C 0.85742 0.31478 0.12945 0.0
C375 C 0.85553 0.31391 0.20613 0.0
C376 C 0.88321 0.31329 0.17594 0.0
N377 N 0.87175 0.31297 0.23562 0.0
C378 C 0.8693 0.3411 0.97763 0.0
C379 C 0.90769 0.37612 0.95679 0.0
C380 C 0.89021 0.37844 0.96674 0.0
C381 C 0.87067 0.36046 0.97291 0.0
C382 C 0.90547 0.35629 0.96081 0.0
N383 N 0.88678 0.33945 0.9798 0.0
H384 H 0.85413 0.32749 0.98141 0.0
H385 H 0.91899 0.3547 0.95166 0.0
H386 H 0.84581 0.31402 0.09142 0.0
H387 H 0.89677 0.31151 0.17994 0.0
O388 O 0.85557 0.29464 0.98021 0.0
O389 O 0.87621 0.28436 0.03114 0.0
O390 O 0.91414 0.32655 0.04238 0.0
C391 C 0.85796 0.27953 1.00489 0.0
H392 H 0.92055 0.30194 0.78727 0.0
H393 H 0.84292 0.31365 0.23746 0.0
H394 H 0.92295 0.38949 0.94752 0.0
H395 H 0.85657 0.36131 0.97781 0.0
H396 H 0.07373 0.58439 0.05244 0.0
H397 H 0.12671 0.51587 0.96354 0.0
H398 H 0.12043 0.5991 0.88232 0.0
H399 H 0.0825 0.50135 0.14311 0.0
H400 H 0.12178 0.54452 0.92622 0.0
H401 H 0.07337 0.5518 0.07754 0.0
C402 C 0.08359 0.58056 0.01928 0.0
C403 C 0.09725 0.59456 0.96554 0.0
C404 C 0.11311 0.53513 0.97383 0.0
C405 C 0.09717 0.55752 0.99487 0.0
C406 C 0.11606 0.51883 0.99568 0.0
C407 C 0.10533 0.50641 0.05763 0.0
C408 C 0.0993 0.53922 0.01405 0.0
C409 C 0.09119 0.51059 0.09531 0.0
C410 C 0.08352 0.56206 0.03416 0.0
C411 C 0.10988 0.58893 0.92497 0.0
N412 N 0.08871 0.52678 0.0733 0.0
N413 N 0.10963 0.57095 0.94085 0.0
H414 H 0.61791 0.14088 0.9922 0.0
H415 H 0.49448 0.08209 0.04927 0.0
H416 H 0.58508 0.08841 0.14042 0.0
H417 H 0.52812 0.13404 0.89964 0.0
H418 H 0.52705 0.08308 0.07979 0.0
H419 H 0.58498 0.1382 0.95746 0.0
C420 C 0.6038 0.12894 0.01838 0.0
C421 C 0.60439 0.11499 0.07012 0.0
C422 C 0.52729 0.09418 0.03994 0.0
C423 C 0.56632 0.11152 0.02879 0.0
C424 C 0.50865 0.0935 0.02183 0.0
C425 C 0.5085 0.10804 0.97183 0.0
C426 C 0.546 0.10953 1.00795 0.0
C427 C 0.52746 0.1227 0.93925 0.0
C428 C 0.58492 0.12728 0.99775 0.0
C429 C 0.58543 0.09946 0.10016 0.0
N430 N 0.54541 0.12312 0.95811 0.0
N431 N 0.56718 0.09818 0.07917 0.0
H432 H 0.41305 0.49096 0.04286 0.0
H433 H 0.48099 0.61339 0.97355 0.0
H434 H 0.39708 0.52482 0.88543 0.0
H435 H 0.49941 0.58094 0.12836 0.0
H436 H 0.45128 0.58045 0.93608 0.0
H437 H 0.44605 0.52277 0.06806 0.0
C438 C 0.41664 0.50498 1.0125 0.0
C439 C 0.40217 0.50524 0.96232 0.0
C440 C 0.46177 0.58043 0.97823 0.0
C441 C 0.43975 0.54178 0.992 0.0
C442 C 0.47869 0.5993 1.00023 0.0
C443 C 0.49255 0.6 0.05527 0.0
C444 C 0.45849 0.56192 1.01143 0.0
C445 C 0.48908 0.58114 0.08596 0.0
C446 C 0.43541 0.52318 0.02746 0.0
C447 C 0.40757 0.52394 0.92546 0.0
N448 N 0.47228 0.56285 0.06406 0.0
N449 N 0.42581 0.54143 0.94144 0.0
H450 H 0.9194 0.41173 0.04734 0.0
H451 H 0.85933 0.47532 1.00096 0.0
H452 H 0.86525 0.39239 0.90798 0.0
H453 H 0.91339 0.49621 0.1423 0.0
H454 H 0.8626 0.44573 0.96258 0.0
H455 H 0.91937 0.44396 0.07604 0.0
C456 C 0.90773 0.41442 0.02167 0.0
C457 C 0.8922 0.39925 0.97555 0.0
C458 C 0.87377 0.45672 1.00208 0.0
C459 C 0.89187 0.43591 1.0093 0.0
C460 C 0.87178 0.47357 0.02476 0.0
C461 C 0.8859 0.48816 0.07606 0.0
C462 C 0.89002 0.45427 0.03066 0.0
C463 C 0.90213 0.48535 0.10278 0.0
C464 C 0.90761 0.43274 0.03868 0.0
C465 C 0.87732 0.40347 0.94473 0.0
N466 N 0.90369 0.46866 0.08007 0.0
N467 N 0.87745 0.4213 0.96252 0.0
H468 H 0.39305 0.86437 0.17702 0.0
H469 H 0.49586 0.91754 0.92202 0.0
H470 H 0.40743 0.91503 0.02538 0.0
H471 H 0.47694 0.86322 0.05959 0.0
H472 H 0.46513 0.91889 0.96523 0.0
H473 H 0.42567 0.8661 0.14235 0.0
C474 C 0.40314 0.87596 0.13679 0.0
C475 C 0.39739 0.88945 0.10362 0.0
C476 C 0.46772 0.90666 0.98567 0.0
C477 C 0.43483 0.89149 0.06325 0.0
C478 C 0.48524 0.90588 0.96103 0.0
C479 C 0.48885 0.89007 0.98632 0.0
C480 C 0.45386 0.89164 0.0365 0.0
C481 C 0.47457 0.8754 0.03701 0.0
C482 C 0.42179 0.87695 0.11694 0.0
C483 C 0.4113 0.90441 0.05276 0.0
N484 N 0.45778 0.87655 0.06032 0.0
N485 N 0.42929 0.90491 0.03361 0.0
H486 H 0.58585 0.49521 0.0922 0.0
H487 H 0.51469 0.3751 0.99358 0.0
H488 H 0.59417 0.46741 0.89178 0.0
H489 H 0.49776 0.40647 0.15904 0.0
H490 H 0.54541 0.40817 0.96186 0.0
H491 H 0.55481 0.46247 0.12192 0.0
C492 C 0.58102 0.48235 0.05357 0.0
C493 C 0.59263 0.48428 0.98859 0.0
C494 C 0.53501 0.40783 1.00516 0.0
C495 C 0.55722 0.44634 0.02417 0.0
C496 C 0.51757 0.38893 0.02391 0.0
C497 C 0.50371 0.38799 0.07957 0.0
C498 C 0.53877 0.42599 0.04262 0.0
C499 C 0.50799 0.40649 0.11569 0.0
C500 C 0.56333 0.46356 0.07116 0.0
C501 C 0.58586 0.4667 0.94259 0.0
N502 N 0.52519 0.42473 0.0968 0.0
N503 N 0.56863 0.44846 0.96138 0.0
H504 H 0.27356 0.45939 1.00477 0.0
H505 H 0.15026 0.39233 0.0325 0.0
H506 H 0.24297 0.39315 0.03974 0.0
H507 H 0.18611 0.45702 0.09465 0.0
H508 H 0.18289 0.3914 0.02112 0.0
H509 H 0.24033 0.45805 0.02087 0.0
C510 C 0.2598 0.44451 0.01552 0.0
C511 C 0.26104 0.42635 0.02101 0.0
C512 C 0.18347 0.40569 0.03781 0.0
C513 C 0.2228 0.42471 0.0394 0.0
C514 C 0.16492 0.40625 0.04426 0.0
C515 C 0.16547 0.42478 0.06447 0.0
C516 C 0.2026 0.4239 0.05033 0.0
C517 C 0.18488 0.44237 0.07898 0.0
C518 C 0.24084 0.44378 0.02514 0.0
C519 C 0.24268 0.40752 0.03535 0.0
N520 N 0.20262 0.44154 0.07095 0.0
N521 N 0.22422 0.40714 0.04369 0.0
H522 H 0.84758 0.25166 0.11868 0.0
H523 H 0.75034 0.15694 0.93006 0.0
H524 H 0.82783 0.25944 0.89965 0.0
H525 H 0.74388 0.17866 0.14735 0.0
H526 H 0.78506 0.18808 0.91783 0.0
H527 H 0.81538 0.21777 0.12959 0.0
C528 C 0.83668 0.24599 0.07235 0.0
C529 C 0.84022 0.2582 1.00818 0.0
C530 C 0.77606 0.18578 0.9684 0.0
C531 C 0.80398 0.21969 0.0197 0.0
C532 C 0.75641 0.1681 0.97556 0.0
C533 C 0.74437 0.16541 0.0397 0.0
C534 C 0.78385 0.20034 0.02692 0.0
C535 C 0.75274 0.18033 0.09693 0.0
C536 C 0.81837 0.22684 0.07883 0.0
C537 C 0.82554 0.25041 0.95002 0.0
N538 N 0.7721 0.19714 0.08952 0.0
N539 N 0.80805 0.23152 0.95689 0.0
H540 H 0.54027 0.72869 0.10414 0.0
H541 H 0.6058 0.85127 0.04045 0.0
H542 H 0.60501 0.75899 0.04032 0.0
H543 H 0.53929 0.81418 1.01199 0.0
H544 H 0.60716 0.81915 0.06022 0.0
H545 H 0.54112 0.76175 0.09331 0.0
C546 C 0.55475 0.74235 0.08848 0.0
C547 C 0.57257 0.74105 0.07267 0.0
C548 C 0.59233 0.81816 0.0495 0.0
C549 C 0.57361 0.77905 0.06 0.0
C550 C 0.59154 0.83641 0.03838 0.0
C551 C 0.57242 0.83535 0.02427 0.0
C552 C 0.57382 0.79887 0.04794 0.0
C553 C 0.55439 0.81574 0.0222 0.0
C554 C 0.55518 0.76122 0.08192 0.0
C555 C 0.59089 0.75932 0.05267 0.0
N556 N 0.55552 0.79833 0.03431 0.0
N557 N 0.59096 0.77764 0.04679 0.0
H558 H 0.71729 0.53372 1.01265 0.0
H559 H 0.84086 0.60125 0.03773 0.0
H560 H 0.74857 0.60032 0.03894 0.0
H561 H 0.80534 0.53608 0.093 0.0
H562 H 0.80813 0.6019 0.02636 0.0
H563 H 0.7504 0.53486 0.02867 0.0
C564 C 0.73117 0.54863 0.02169 0.0
C565 C 0.73017 0.56696 0.02453 0.0
C566 C 0.80761 0.58753 0.04141 0.0
C567 C 0.7683 0.56838 0.04272 0.0
C568 C 0.82623 0.58714 0.04775 0.0
C569 C 0.82581 0.56857 0.06626 0.0
C570 C 0.78853 0.56917 0.05252 0.0
C571 C 0.80644 0.55074 0.0787 0.0
C572 C 0.75008 0.54925 0.03117 0.0
C573 C 0.74868 0.58582 0.03665 0.0
N574 N 0.78863 0.55146 0.07107 0.0
N575 N 0.76707 0.58608 0.0449 0.0
H576 H 0.18059 0.72201 1.00646 0.0
H577 H 0.23839 0.84502 0.04747 0.0
H578 H 0.14606 0.75353 0.0488 0.0
H579 H 0.26707 0.80821 0.09665 0.0
H580 H 0.20468 0.81279 0.03397 0.0
H581 H 0.21291 0.75473 0.0231 0.0
C582 C 0.1798 0.73586 0.01894 0.0
C583 C 0.16059 0.73504 0.02634 0.0
C584 C 0.21838 0.81188 0.04819 0.0
C585 C 0.19769 0.77269 0.04541 0.0
C586 C 0.23758 0.83021 0.05577 0.0
C587 C 0.25554 0.82927 0.07319 0.0
C588 C 0.21732 0.79259 0.05678 0.0
C589 C 0.25364 0.80969 0.08335 0.0
C590 C 0.19828 0.75454 0.02886 0.0
C591 C 0.16057 0.75351 0.04286 0.0
N592 N 0.23495 0.79217 0.07439 0.0
N593 N 0.17888 0.77167 0.05154 0.0
H594 H 0.40138 0.14706 0.11645 0.0
H595 H 0.40074 0.24379 0.93871 0.0
H596 H 0.43199 0.17123 0.90441 0.0
H597 H 0.42552 0.24856 0.16116 0.0
H598 H 0.39923 0.2101 0.92295 0.0
H599 H 0.39733 0.17781 0.13108 0.0
C600 C 0.4069 0.15867 0.07249 0.0
C601 C 0.41707 0.15678 1.00925 0.0
C602 C 0.40466 0.21846 0.97548 0.0
C603 C 0.41203 0.19131 0.02475 0.0
C604 C 0.40539 0.23748 0.98469 0.0
C605 C 0.41323 0.24877 0.05134 0.0
C606 C 0.41117 0.21054 0.03428 0.0
C607 C 0.41941 0.24022 0.10899 0.0
C608 C 0.40466 0.17613 0.08104 0.0
C609 C 0.42416 0.17227 0.95411 0.0
N610 N 0.41813 0.22148 0.09938 0.0
N611 N 0.42138 0.1889 0.96283 0.0
H612 H 0.09687 0.38798 0.39341 0.0
H613 H 0.14383 0.47341 0.71877 0.0
H614 H 0.12492 0.45387 0.35341 0.0
H615 H 0.1096 0.40749 0.76164 0.0
H616 H 0.13779 0.46648 0.58473 0.0
H617 H 0.10202 0.39477 0.52758 0.0
C618 C 0.10399 0.40389 0.41252 0.0
C619 C 0.11036 0.42037 0.3613 0.0
C620 C 0.13156 0.45351 0.62332 0.0
C621 C 0.11658 0.42825 0.51601 0.0
C622 C 0.13512 0.45744 0.7 0.0
C623 C 0.12736 0.441 0.75175 0.0
C624 C 0.12021 0.43294 0.59762 0.0
C625 C 0.11578 0.42065 0.72398 0.0
C626 C 0.10701 0.40775 0.48949 0.0
C627 C 0.11992 0.44067 0.39021 0.0
N628 N 0.11265 0.41719 0.6488 0.0
N629 N 0.12272 0.44402 0.46548 0.0
H630 H 0.7182 0.10632 0.38509 0.0
H631 H 0.66446 0.13725 0.71078 0.0
H632 H 0.67203 0.12431 0.34505 0.0
H633 H 0.7081 0.11621 0.75397 0.0
H634 H 0.66727 0.1327 0.57679 0.0
H635 H 0.71496 0.10998 0.51964 0.0
C636 C 0.70729 0.11094 0.40437 0.0
C637 C 0.69529 0.11491 0.35313 0.0
C638 C 0.67624 0.12905 0.61539 0.0
C639 C 0.69169 0.11935 0.50797 0.0
C640 C 0.67473 0.13175 0.69209 0.0
C641 C 0.68623 0.12731 0.74392 0.0
C642 C 0.6894 0.12187 0.58969 0.0
C643 C 0.69889 0.11975 0.7162 0.0
C644 C 0.70553 0.11312 0.48145 0.0
C645 C 0.68175 0.12127 0.38199 0.0
N646 N 0.70022 0.11737 0.64094 0.0
N647 N 0.6803 0.12326 0.45733 0.0
H648 H 0.6021 0.68346 0.39853 0.0
H649 H 0.53798 0.70093 0.72364 0.0
H650 H 0.5525 0.69645 0.35651 0.0
H651 H 0.58305 0.68167 0.76631 0.0
H652 H 0.54421 0.70081 0.58949 0.0
H653 H 0.59626 0.68388 0.53321 0.0
C654 C 0.58999 0.68645 0.41759 0.0
C655 C 0.57784 0.69004 0.36593 0.0
C656 C 0.55277 0.69662 0.6281 0.0
C657 C 0.57102 0.69047 0.52057 0.0
C658 C 0.54918 0.69663 0.70494 0.0
C659 C 0.55988 0.69113 0.75671 0.0
C660 C 0.56723 0.69112 0.60228 0.0
C661 C 0.57455 0.68616 0.72874 0.0
C662 C 0.58662 0.6866 0.49461 0.0
C663 C 0.56213 0.69344 0.39408 0.0
N664 N 0.57774 0.6862 0.65346 0.0
N665 N 0.55924 0.69368 0.46943 0.0
H666 H 0.87155 0.54229 0.36334 0.0
H667 H 0.87618 0.58743 0.77634 0.0
H668 H 0.8863 0.60537 0.40653 0.0
H669 H 0.8585 0.52373 0.72963 0.0
H670 H 0.88107 0.59479 0.64151 0.0
H671 H 0.86712 0.53541 0.49791 0.0
C672 C 0.87373 0.55467 0.40091 0.0
C673 C 0.87935 0.57446 0.37322 0.0
C674 C 0.87609 0.57919 0.6609 0.0
C675 C 0.87456 0.56676 0.52792 0.0
C676 C 0.87341 0.57503 0.7379 0.0
C677 C 0.86674 0.55489 0.76442 0.0
C678 C 0.87218 0.56313 0.61017 0.0
C679 C 0.86325 0.53937 0.71183 0.0
C680 C 0.87133 0.55077 0.47794 0.0
C681 C 0.88227 0.58997 0.4251 0.0
N682 N 0.86599 0.54381 0.63744 0.0
N683 N 0.87985 0.58579 0.49981 0.0
H684 H 0.31467 0.89959 0.78219 0.0
H685 H 0.29991 0.85187 0.36812 0.0
H686 H 0.29963 0.83659 0.73596 0.0
H687 H 0.30948 0.91309 0.41322 0.0
H688 H 0.30072 0.84641 0.50296 0.0
H689 H 0.31291 0.90504 0.64751 0.0
C690 C 0.3108 0.88685 0.74394 0.0
C691 C 0.30743 0.86765 0.77063 0.0
C692 C 0.30262 0.86104 0.48337 0.0
C693 C 0.3057 0.87385 0.61627 0.0
C694 C 0.30231 0.86422 0.40626 0.0
C695 C 0.30457 0.88294 0.37912 0.0
C696 C 0.30531 0.87673 0.53391 0.0
C697 C 0.30737 0.89829 0.4315 0.0
C698 C 0.30995 0.89001 0.66697 0.0
C699 C 0.30273 0.85177 0.71813 0.0
N700 N 0.30769 0.89486 0.50626 0.0
N701 N 0.30208 0.85525 0.64367 0.0
H702 H 0.38795 0.30623 0.39448 0.0
H703 H 0.45368 0.29224 0.72164 0.0
H704 H 0.43786 0.29353 0.35471 0.0
H705 H 0.40842 0.31137 0.76267 0.0
H706 H 0.44679 0.29105 0.58774 0.0
H707 H 0.39407 0.30678 0.5293 0.0
C708 C 0.40016 0.30347 0.41402 0.0
C709 C 0.41235 0.29972 0.36292 0.0
C710 C 0.43834 0.29551 0.62588 0.0
C711 C 0.41951 0.30044 0.51776 0.0
C712 C 0.44232 0.29627 0.70261 0.0
C713 C 0.43178 0.30214 0.75385 0.0
C714 C 0.42363 0.30058 0.59955 0.0
C715 C 0.41683 0.30666 0.72548 0.0
C716 C 0.4037 0.30388 0.49113 0.0
C717 C 0.42819 0.29664 0.39176 0.0
N718 N 0.41326 0.30586 0.65023 0.0
N719 N 0.43125 0.29699 0.46716 0.0
H720 H 0.58941 0.88289 0.29587 0.0
H721 H 0.54622 0.88085 0.71028 0.0
H722 H 0.52792 0.87241 0.34409 0.0
H723 H 0.60774 0.89085 0.66612 0.0
H724 H 0.53935 0.87757 0.57573 0.0
H725 H 0.59691 0.88651 0.43079 0.0
C726 C 0.57755 0.88146 0.33466 0.0
C727 C 0.55795 0.87716 0.30854 0.0
C728 C 0.55436 0.88047 0.59543 0.0
C729 C 0.56631 0.8811 0.46282 0.0
C730 C 0.55824 0.8822 0.67247 0.0
C731 C 0.57761 0.88616 0.69986 0.0
C732 C 0.56994 0.8827 0.54511 0.0
C733 C 0.59269 0.88808 0.6477 0.0
C734 C 0.58177 0.8834 0.41168 0.0
C735 C 0.54309 0.8753 0.36154 0.0
N736 N 0.58855 0.88634 0.57292 0.0
N737 N 0.54757 0.87725 0.43591 0.0
H738 H 0.65402 0.54561 0.7087 0.0
H739 H 0.69666 0.58638 0.29417 0.0
H740 H 0.71225 0.60144 0.66245 0.0
H741 H 0.64363 0.52618 0.34092 0.0
H742 H 0.70071 0.59376 0.42894 0.0
H743 H 0.64849 0.53934 0.57391 0.0
C744 C 0.66571 0.5565 0.67048 0.0
C745 C 0.68363 0.57411 0.6974 0.0
C746 C 0.68814 0.57896 0.40965 0.0
C747 C 0.67722 0.56718 0.54271 0.0
C748 C 0.68573 0.57483 0.33271 0.0
C749 C 0.66988 0.55559 0.30639 0.0
C750 C 0.67451 0.56379 0.46052 0.0
C751 C 0.65627 0.54108 0.35893 0.0
C752 C 0.66247 0.55298 0.5934 0.0
C753 C 0.69805 0.58783 0.6447 0.0
N754 N 0.65893 0.54545 0.43343 0.0
N755 N 0.69453 0.58408 0.57004 0.0
H756 H 0.12307 0.65418 0.35132 0.0
H757 H 0.10246 0.71587 0.6771 0.0
H758 H 0.1112 0.70441 0.30799 0.0
H759 H 0.11312 0.66468 0.71681 0.0
H760 H 0.10563 0.71212 0.54245 0.0
H761 H 0.11948 0.65801 0.48518 0.0
C762 C 0.11982 0.66613 0.36992 0.0
C763 C 0.11766 0.67915 0.31803 0.0
C764 C 0.10728 0.70171 0.58061 0.0
C765 C 0.11328 0.68349 0.4723 0.0
C766 C 0.10538 0.70377 0.6577 0.0
C767 C 0.10742 0.6905 0.70884 0.0
C768 C 0.11127 0.68627 0.55402 0.0
C769 C 0.11162 0.67539 0.67993 0.0
C770 C 0.11766 0.66823 0.4466 0.0
C771 C 0.11292 0.69399 0.34576 0.0
N772 N 0.11335 0.67367 0.60461 0.0
N773 N 0.11098 0.69581 0.42103 0.0
H774 H 0.41171 0.08959 0.29494 0.0
H775 H 0.44311 0.13825 0.70835 0.0
H776 H 0.45836 0.1532 0.34029 0.0
H777 H 0.39289 0.07616 0.66389 0.0
H778 H 0.44939 0.1437 0.57344 0.0
H779 H 0.40439 0.08422 0.42961 0.0
C780 C 0.42028 0.10247 0.33299 0.0
C781 C 0.43578 0.12183 0.30606 0.0
C782 C 0.43696 0.12888 0.59319 0.0
C783 C 0.42771 0.11573 0.46043 0.0
C784 C 0.43348 0.12572 0.67034 0.0
C785 C 0.41741 0.10674 0.69769 0.0
C786 C 0.42437 0.11291 0.54282 0.0
C787 C 0.40525 0.09114 0.64547 0.0
C788 C 0.4162 0.09937 0.40996 0.0
C789 C 0.44656 0.1379 0.35832 0.0
N790 N 0.40899 0.09456 0.57068 0.0
N791 N 0.44238 0.13446 0.43278 0.0
H792 H 0.28126 0.38838 0.67151 0.0
H793 H 0.34224 0.47086 0.3462 0.0
H794 H 0.3321 0.45046 0.71156 0.0
H795 H 0.29295 0.40828 0.30249 0.0
H796 H 0.33855 0.46347 0.48006 0.0
H797 H 0.28508 0.3952 0.5369 0.0
C798 C 0.2933 0.40343 0.6522 0.0
C799 C 0.30645 0.41884 0.70342 0.0
C800 C 0.32852 0.45131 0.4414 0.0
C801 C 0.31076 0.42681 0.54863 0.0
C802 C 0.33054 0.45555 0.36475 0.0
C803 C 0.31773 0.44024 0.31281 0.0
C804 C 0.31354 0.43156 0.46696 0.0
C805 C 0.30321 0.42053 0.34036 0.0
C806 C 0.29541 0.40733 0.57512 0.0
C807 C 0.32148 0.43817 0.67461 0.0
N808 N 0.30143 0.41678 0.41561 0.0
N809 N 0.32324 0.44157 0.59929 0.0
H810 H 0.85973 0.30115 0.71692 0.0
H811 H 0.90881 0.32416 0.30325 0.0
H812 H 0.92363 0.319 0.67186 0.0
H813 H 0.84339 0.29867 0.34905 0.0
H814 H 0.91492 0.32318 0.43781 0.0
H815 H 0.8539 0.30168 0.58219 0.0
C816 C 0.87257 0.30531 0.6788 0.0
C817 C 0.89219 0.30999 0.70594 0.0
C818 C 0.89923 0.31778 0.41825 0.0
C819 C 0.8856 0.31047 0.55118 0.0
C820 C 0.89571 0.31821 0.3413 0.0
C821 C 0.87557 0.31161 0.31438 0.0
C822 C 0.8825 0.31073 0.46881 0.0
C823 C 0.85924 0.3043 0.36683 0.0
C824 C 0.8692 0.30546 0.60174 0.0
C825 C 0.90819 0.31501 0.65356 0.0
N826 N 0.86308 0.30412 0.44126 0.0
N827 N 0.90455 0.31515 0.57883 0.0
H828 H 0.0501 0.43274 0.96163 0.0
H829 H 0.9488 0.32498 0.05221 0.0
H830 H 0.05416 0.37868 0.0223 0.0
H831 H 0.95312 0.38411 0.09609 0.0
H832 H 0.98625 0.34311 0.02528 0.0
H833 H 0.01293 0.41363 0.99046 0.0
C834 C 0.04312 0.41673 0.97967 0.0
C835 C 0.05526 0.40727 0.98931 0.0
C836 C 0.97899 0.35205 0.04159 0.0
C837 C 0.01274 0.3854 0.02301 0.0
C838 C 0.95769 0.34175 0.05718 0.0
C839 C 0.94787 0.35306 0.07692 0.0
C840 C 0.99043 0.37383 0.04397 0.0
C841 C 0.96008 0.37476 0.08195 0.0
C842 C 0.02195 0.40592 0.99699 0.0
C843 C 0.04537 0.38655 0.014 0.0
N844 N 0.98067 0.38446 0.06464 0.0
N845 N 0.02465 0.37627 0.02982 0.0
H846 H 0.60357 0.94474 0.94039 0.0
H847 H 0.66363 0.05896 0.10499 0.0
H848 H 0.59592 0.95754 0.17089 0.0
H849 H 0.63805 0.0471 0.8811 0.0
H850 H 0.64611 0.02156 0.12764 0.0
H851 H 0.62354 0.98215 0.91607 0.0
C852 C 0.60635 0.95541 0.98621 0.0
C853 C 0.59809 0.94804 0.05796 0.0
C854 C 0.64447 0.02718 0.07347 0.0
C855 C 0.62103 0.99073 0.03027 0.0
C856 C 0.65457 0.04849 0.06012 0.0
C857 C 0.65231 0.05616 0.99083 0.0
C858 C 0.63241 0.01338 0.01665 0.0
C859 C 0.64015 0.04183 0.93526 0.0
C860 C 0.61758 0.97671 0.97198 0.0
C861 C 0.60198 0.96259 0.11485 0.0
N862 N 0.63073 0.02106 0.94918 0.0
N863 N 0.61331 0.98328 0.09992 0.0
H864 H 0.68378 0.63957 0.09159 0.0
H865 H 0.58137 0.63068 0.90363 0.0
H866 H 0.63887 0.58719 0.9617 0.0
H867 H 0.62132 0.68054 0.05332 0.0
H868 H 0.60469 0.61658 0.91463 0.0
H869 H 0.66311 0.65663 0.07061 0.0
C870 C 0.66961 0.63164 0.05896 0.0
C871 C 0.66294 0.61179 0.02934 0.0
C872 C 0.60844 0.63068 0.94481 0.0
C873 C 0.63942 0.63123 1.00437 0.0
C874 C 0.59515 0.63881 0.93821 0.0
C875 C 0.59925 0.65673 0.9781 0.0
C876 C 0.626 0.64052 0.99166 0.0
C877 C 0.61743 0.66658 0.02198 0.0
C878 C 0.65784 0.64138 0.0469 0.0
C879 C 0.6445 0.60231 0.98696 0.0
N880 N 0.63006 0.65828 0.02798 0.0
N881 N 0.63345 0.61209 0.97586 0.0
H882 H 0.03819 0.63707 0.18524 0.0
H883 H 0.94716 0.59154 0.8917 0.0
H884 H 0.04908 0.66027 0.95815 0.0
H885 H 0.93636 0.60307 0.12016 0.0
H886 H 0.98483 0.61291 0.91373 0.0
H887 H 0.00055 0.62047 0.16276 0.0
C888 C 0.03266 0.63883 0.13103 0.0
C889 C 0.04674 0.65012 0.07366 0.0
C890 C 0.97412 0.61088 0.95857 0.0
C891 C 0.00395 0.63078 0.04704 0.0
C892 C 0.9527 0.59871 0.94611 0.0
C893 C 0.93864 0.59561 1.004 0.0
C894 C 0.98144 0.61944 0.03 0.0
C895 C 0.94663 0.60519 0.07368 0.0
C896 C 0.01126 0.62941 0.11828 0.0
C897 C 0.03876 0.65186 1.0042 0.0
N898 N 0.9675 0.61641 0.0851 0.0
N899 N 0.01788 0.642 0.99241 0.0
H900 H 0.35788 0.94754 0.89549 0.0
H901 H 0.40577 0.04132 0.17998 0.0
H902 H 0.33481 0.93958 0.12245 0.0
H903 H 0.39426 0.05027 0.94948 0.0
H904 H 0.38462 0.0035 0.16113 0.0
H905 H 0.3763 0.98538 0.91427 0.0
C906 C 0.35656 0.95376 0.94889 0.0
C907 C 0.34471 0.94045 1.00724 0.0
C908 C 0.38669 0.01385 0.11506 0.0
C909 C 0.36613 0.98341 0.02972 0.0
C910 C 0.39876 0.03534 0.12569 0.0
C911 C 0.40164 0.0489 0.06642 0.0
C912 C 0.37805 0.006 0.04413 0.0
C913 C 0.39225 0.04037 0.99697 0.0
C914 C 0.36704 0.97527 0.95956 0.0
C915 C 0.34359 0.9493 0.07565 0.0
N916 N 0.38109 0.01946 0.98745 0.0
N917 N 0.35442 0.97022 0.0854 0.0
H918 H 0.36046 0.40361 0.17728 0.0
H919 H 0.40327 0.35498 0.88367 0.0
H920 H 0.33719 0.39176 0.95016 0.0
H921 H 0.38988 0.33223 0.11126 0.0
H922 H 0.38397 0.37348 0.90587 0.0
H923 H 0.37649 0.38208 0.15421 0.0
C924 C 0.35861 0.39637 0.12289 0.0
C925 C 0.34738 0.39934 0.06579 0.0
C926 C 0.38519 0.36427 0.95051 0.0
C927 C 0.3661 0.37537 0.03849 0.0
C928 C 0.39618 0.35378 0.93796 0.0
C929 C 0.39805 0.34196 0.99547 0.0
C930 C 0.37662 0.3634 0.02167 0.0
C931 C 0.38864 0.34098 0.06503 0.0
C932 C 0.36771 0.38412 0.10981 0.0
C933 C 0.34553 0.38969 0.99604 0.0
N934 N 0.37858 0.35179 0.07652 0.0
N935 N 0.35505 0.37837 0.98397 0.0
loop_
_geom_bond_atom_site_label_1
_geom_bond_atom_site_label_2
_geom_bond_distance
_geom_bond_site_symmetry_2
_ccdc_geom_bond_type
Co0 N4 2.148 . S
Co0 N10 2.128 1_554 S
Co0 N20 2.194 . S
Co0 O25 2.351 . S
Co0 O26 2.155 . S
Co0 O27 2.096 . S
C1 N4 1.301 . S
C1 N5 1.328 . S
C1 H6 0.930 . S
C2 C3 1.333 . S
C2 N4 1.317 . S
C2 H7 0.930 . S
C3 C2 1.333 . S
C3 N5 1.350 . S
C3 H29 0.931 . S
N4 Co0 2.148 . S
N4 C1 1.301 . S
N4 C2 1.317 . S
N5 C1 1.328 . S
N5 C3 1.350 . S
H6 C1 0.930 . S
H7 C2 0.930 . S
C8 O9 1.224 1_556 S
C8 O27 1.245 1_556 S
O9 C8 1.224 1_554 S
N10 Co0 2.128 1_556 S
N10 C11 1.355 . S
N10 C13 1.311 . S
C11 N10 1.355 . S
C11 C12 1.363 . S
C11 H23 0.929 . S
C12 C11 1.363 . S
C12 N14 1.375 . S
C12 H30 0.931 . S
C13 N10 1.311 . S
C13 N14 1.347 . S
C13 H24 0.929 . S
N14 C12 1.375 . S
N14 C13 1.347 . S
C15 C18 1.365 . S
C15 N20 1.328 . S
C15 H21 0.929 . S
C16 C17 1.362 . S
C16 C19 1.378 . S
C16 H31 0.929 . S
C17 C16 1.362 . S
C17 C18 1.366 . S
C18 C15 1.365 . S
C18 C17 1.366 . S
C18 H32 0.930 . S
C19 C16 1.378 . S
C19 N20 1.315 . S
C19 H22 0.930 . S
N20 Co0 2.194 . S
N20 C15 1.328 . S
N20 C19 1.315 . S
H21 C15 0.929 . S
H22 C19 0.930 . S
H23 C11 0.929 . S
H24 C13 0.929 . S
O25 Co0 2.351 . S
O25 C28 1.244 . S
O26 Co0 2.155 . S
O26 C28 1.240 . S
O27 Co0 2.096 . S
O27 C8 1.245 1_554 S
C28 O25 1.244 . S
C28 O26 1.240 . S
H29 C3 0.931 . S
H30 C12 0.931 . S
H31 C16 0.929 . S
H32 C18 0.930 . S
Co33 N37 2.148 . S
Co33 N43 2.128 1_554 S
Co33 N53 2.194 . S
Co33 O58 2.351 . S
Co33 O59 2.155 . S
Co33 O60 2.096 . S
C34 N37 1.301 . S
C34 N38 1.328 . S
C34 H39 0.930 . S
C35 C36 1.333 . S
C35 N37 1.317 . S
C35 H40 0.930 . S
C36 C35 1.333 . S
C36 N38 1.350 . S
C36 H62 0.931 . S
N37 Co33 2.148 . S
N37 C34 1.301 . S
N37 C35 1.317 . S
N38 C34 1.328 . S
N38 C36 1.350 . S
H39 C34 0.930 . S
H40 C35 0.930 . S
C41 O42 1.224 1_556 S
C41 O60 1.245 1_556 S
O42 C41 1.224 1_554 S
N43 Co33 2.128 1_556 S
N43 C44 1.355 . S
N43 C46 1.311 . S
C44 N43 1.355 . S
C44 C45 1.363 . S
C44 H56 0.929 . S
C45 C44 1.363 . S
C45 N47 1.375 . S
C45 H63 0.931 . S
C46 N43 1.311 . S
C46 N47 1.347 . S
C46 H57 0.929 . S
N47 C45 1.375 . S
N47 C46 1.347 . S
C48 C51 1.365 . S
C48 N53 1.328 . S
C48 H54 0.929 . S
C49 C50 1.362 . S
C49 C52 1.378 . S
C49 H64 0.929 . S
C50 C49 1.362 . S
C50 C51 1.366 . S
C51 C48 1.365 . S
C51 C50 1.366 . S
C51 H65 0.930 . S
C52 C49 1.378 . S
C52 N53 1.315 . S
C52 H55 0.930 . S
N53 Co33 2.194 . S
N53 C48 1.328 . S
N53 C52 1.315 . S
H54 C48 0.929 . S
H55 C52 0.930 . S
H56 C44 0.929 . S
H57 C46 0.929 . S
O58 Co33 2.351 . S
O58 C61 1.244 . S
O59 Co33 2.155 . S
O59 C61 1.240 . S
O60 Co33 2.096 . S
O60 C41 1.245 1_554 S
C61 O58 1.244 . S
C61 O59 1.240 . S
H62 C36 0.931 . S
H63 C45 0.931 . S
H64 C49 0.929 . S
H65 C51 0.930 . S
Co66 N70 2.148 . S
Co66 N76 2.128 1_554 S
Co66 N86 2.194 . S
Co66 O91 2.351 . S
Co66 O92 2.155 . S
Co66 O93 2.096 . S
C67 N70 1.301 . S
C67 N71 1.328 . S
C67 H72 0.930 . S
C68 C69 1.333 . S
C68 N70 1.317 . S
C68 H73 0.930 . S
C69 C68 1.333 . S
C69 N71 1.350 . S
C69 H95 0.931 . S
N70 Co66 2.148 . S
N70 C67 1.301 . S
N70 C68 1.317 . S
N71 C67 1.328 . S
N71 C69 1.350 . S
H72 C67 0.930 . S
H73 C68 0.930 . S
C74 O75 1.224 1_556 S
C74 O93 1.245 1_556 S
O75 C74 1.224 1_554 S
N76 Co66 2.128 1_556 S
N76 C77 1.355 . S
N76 C79 1.311 . S
C77 N76 1.355 . S
C77 C78 1.363 . S
C77 H89 0.929 . S
C78 C77 1.363 . S
C78 N80 1.375 . S
C78 H96 0.931 . S
C79 N76 1.311 . S
C79 N80 1.347 . S
C79 H90 0.929 . S
N80 C78 1.375 . S
N80 C79 1.347 . S
C81 C84 1.365 . S
C81 N86 1.328 . S
C81 H87 0.929 . S
C82 C83 1.362 . S
C82 C85 1.378 . S
C82 H97 0.929 . S
C83 C82 1.362 . S
C83 C84 1.366 . S
C84 C81 1.365 . S
C84 C83 1.366 . S
C84 H98 0.930 . S
C85 C82 1.378 . S
C85 N86 1.315 . S
C85 H88 0.930 . S
N86 Co66 2.194 . S
N86 C81 1.328 . S
N86 C85 1.315 . S
H87 C81 0.929 . S
H88 C85 0.930 . S
H89 C77 0.929 . S
H90 C79 0.929 . S
O91 Co66 2.351 . S
O91 C94 1.244 . S
O92 Co66 2.155 . S
O92 C94 1.240 . S
O93 Co66 2.096 . S
O93 C74 1.245 1_554 S
C94 O91 1.244 . S
C94 O92 1.240 . S
H95 C69 0.931 . S
H96 C78 0.931 . S
H97 C82 0.929 . S
H98 C84 0.930 . S
Co99 N103 2.148 . S
Co99 N109 2.128 1_554 S
Co99 N119 2.194 . S
Co99 O124 2.351 . S
Co99 O125 2.155 . S
Co99 O126 2.096 . S
C100 N103 1.301 . S
C100 N104 1.328 . S
C100 H105 0.930 . S
C101 C102 1.333 . S
C101 N103 1.317 . S
C101 H106 0.930 . S
C102 C101 1.333 . S
C102 N104 1.350 . S
C102 H128 0.931 . S
N103 Co99 2.148 . S
N103 C100 1.301 . S
N103 C101 1.317 . S
N104 C100 1.328 . S
N104 C102 1.350 . S
H105 C100 0.930 . S
H106 C101 0.930 . S
C107 O108 1.224 1_556 S
C107 O126 1.245 1_556 S
O108 C107 1.224 1_554 S
N109 Co99 2.128 1_556 S
N109 C110 1.355 . S
N109 C112 1.311 . S
C110 N109 1.355 . S
C110 C111 1.363 . S
C110 H122 0.929 . S
C111 C110 1.363 . S
C111 N113 1.375 . S
C111 H129 0.931 . S
C112 N109 1.311 . S
C112 N113 1.347 . S
C112 H123 0.929 . S
N113 C111 1.375 . S
N113 C112 1.347 . S
C114 C117 1.365 . S
C114 N119 1.328 . S
C114 H120 0.929 . S
C115 C116 1.362 . S
C115 C118 1.378 . S
C115 H130 0.929 . S
C116 C115 1.362 . S
C116 C117 1.366 . S
C117 C114 1.365 . S
C117 C116 1.366 . S
C117 H131 0.930 . S
C118 C115 1.378 . S
C118 N119 1.315 . S
C118 H121 0.930 . S
N119 Co99 2.194 . S
N119 C114 1.328 . S
N119 C118 1.315 . S
H120 C114 0.929 . S
H121 C118 0.930 . S
H122 C110 0.929 . S
H123 C112 0.929 . S
O124 Co99 2.351 . S
O124 C127 1.244 . S
O125 Co99 2.155 . S
O125 C127 1.240 . S
O126 Co99 2.096 . S
O126 C107 1.245 1_554 S
C127 O124 1.244 . S
C127 O125 1.240 . S
H128 C102 0.931 . S
H129 C111 0.931 . S
H130 C115 0.929 . S
H131 C117 0.930 . S
Co132 N136 2.148 . S
Co132 N142 2.128 1_554 S
Co132 N152 2.194 . S
Co132 O157 2.351 . S
Co132 O158 2.155 . S
Co132 O159 2.096 . S
C133 N136 1.301 . S
C133 N137 1.328 . S
C133 H138 0.930 . S
C134 C135 1.333 . S
C134 N136 1.317 . S
C134 H139 0.930 . S
C135 C134 1.333 . S
C135 N137 1.350 . S
C135 H161 0.931 . S
N136 Co132 2.148 . S
N136 C133 1.301 . S
N136 C134 1.317 . S
N137 C133 1.328 . S
N137 C135 1.350 . S
H138 C133 0.930 . S
H139 C134 0.930 . S
C140 O141 1.224 1_556 S
C140 O159 1.245 1_556 S
O141 C140 1.224 1_554 S
N142 Co132 2.128 1_556 S
N142 C143 1.355 . S
N142 C145 1.311 . S
C143 N142 1.355 . S
C143 C144 1.363 . S
C143 H155 0.929 . S
C144 C143 1.363 . S
C144 N146 1.375 . S
C144 H162 0.931 . S
C145 N142 1.311 . S
C145 N146 1.347 . S
C145 H156 0.929 . S
N146 C144 1.375 . S
N146 C145 1.347 . S
C147 C150 1.365 . S
C147 N152 1.328 . S
C147 H153 0.929 . S
C148 C149 1.362 . S
C148 C151 1.378 . S
C148 H163 0.929 . S
C149 C148 1.362 . S
C149 C150 1.366 . S
C150 C147 1.365 . S
C150 C149 1.366 . S
C150 H164 0.930 . S
C151 C148 1.378 . S
C151 N152 1.315 . S
C151 H154 0.930 . S
N152 Co132 2.194 . S
N152 C147 1.328 . S
N152 C151 1.315 . S
H153 C147 0.929 . S
H154 C151 0.930 . S
H155 C143 0.929 . S
H156 C145 0.929 . S
O157 Co132 2.351 . S
O157 C160 1.244 . S
O158 Co132 2.155 . S
O158 C160 1.240 . S
O159 Co132 2.096 . S
O159 C140 1.245 1_554 S
C160 O157 1.244 . S
C160 O158 1.240 . S
H161 C135 0.931 . S
H162 C144 0.931 . S
H163 C148 0.929 . S
H164 C150 0.930 . S
Co165 N169 2.148 . S
Co165 N175 2.128 1_554 S
Co165 N185 2.194 . S
Co165 O190 2.351 . S
Co165 O191 2.155 . S
Co165 O192 2.096 . S
C166 N169 1.301 . S
C166 N170 1.328 . S
C166 H171 0.930 . S
C167 C168 1.333 . S
C167 N169 1.317 . S
C167 H172 0.930 . S
C168 C167 1.333 . S
C168 N170 1.350 . S
C168 H194 0.931 . S
N169 Co165 2.148 . S
N169 C166 1.301 . S
N169 C167 1.317 . S
N170 C166 1.328 . S
N170 C168 1.350 . S
H171 C166 0.930 . S
H172 C167 0.930 . S
C173 O174 1.224 1_556 S
C173 O192 1.245 1_556 S
O174 C173 1.224 1_554 S
N175 Co165 2.128 1_556 S
N175 C176 1.355 . S
N175 C178 1.311 . S
C176 N175 1.355 . S
C176 C177 1.363 . S
C176 H188 0.929 . S
C177 C176 1.363 . S
C177 N179 1.375 . S
C177 H195 0.931 . S
C178 N175 1.311 . S
C178 N179 1.347 . S
C178 H189 0.929 . S
N179 C177 1.375 . S
N179 C178 1.347 . S
C180 C183 1.365 . S
C180 N185 1.328 . S
C180 H186 0.929 . S
C181 C182 1.362 . S
C181 C184 1.378 . S
C181 H196 0.929 . S
C182 C181 1.362 . S
C182 C183 1.366 . S
C183 C180 1.365 . S
C183 C182 1.366 . S
C183 H197 0.930 . S
C184 C181 1.378 . S
C184 N185 1.315 . S
C184 H187 0.930 . S
N185 Co165 2.194 . S
N185 C180 1.328 . S
N185 C184 1.315 . S
H186 C180 0.929 . S
H187 C184 0.930 . S
H188 C176 0.929 . S
H189 C178 0.929 . S
O190 Co165 2.351 . S
O190 C193 1.244 . S
O191 Co165 2.155 . S
O191 C193 1.240 . S
O192 Co165 2.096 . S
O192 C173 1.245 1_554 S
C193 O190 1.244 . S
C193 O191 1.240 . S
H194 C168 0.931 . S
H195 C177 0.931 . S
H196 C181 0.929 . S
H197 C183 0.930 . S
Co198 N202 2.148 1_554 S
Co198 N208 2.128 . S
Co198 N218 2.194 . S
Co198 O223 2.352 . S
Co198 O224 2.155 . S
Co198 O225 2.096 . S
C199 N202 1.301 . S
C199 N203 1.328 . S
C199 H204 0.930 . S
C200 C201 1.333 . S
C200 N202 1.317 . S
C200 H205 0.930 . S
C201 C200 1.333 . S
C201 N203 1.350 . S
C201 H227 0.931 . S
N202 Co198 2.148 1_556 S
N202 C199 1.301 . S
N202 C200 1.317 . S
N203 C199 1.328 . S
N203 C201 1.350 . S
H204 C199 0.930 . S
H205 C200 0.930 . S
C206 O207 1.224 . S
C206 O225 1.247 . S
O207 C206 1.224 . S
N208 Co198 2.128 . S
N208 C209 1.355 . S
N208 C211 1.311 . S
C209 N208 1.355 . S
C209 C210 1.363 . S
C209 H221 0.929 . S
C210 C209 1.363 . S
C210 N212 1.375 . S
C210 H228 0.931 . S
C211 N208 1.311 . S
C211 N212 1.347 . S
C211 H222 0.929 . S
N212 C210 1.375 . S
N212 C211 1.347 . S
C213 C216 1.365 . S
C213 N218 1.328 1_556 S
C213 H219 0.929 . S
C214 C215 1.362 . S
C214 C217 1.378 . S
C214 H229 0.929 . S
C215 C214 1.362 . S
C215 C216 1.366 1_554 S
C216 C213 1.365 . S
C216 C215 1.366 1_556 S
C216 H230 0.930 . S
C217 C214 1.378 . S
C217 N218 1.315 . S
C217 H220 0.930 . S
N218 Co198 2.194 . S
N218 C213 1.328 1_554 S
N218 C217 1.315 . S
H219 C213 0.929 . S
H220 C217 0.930 . S
H221 C209 0.929 . S
H222 C211 0.929 . S
O223 Co198 2.352 . S
O223 C226 1.245 . S
O224 Co198 2.155 . S
O224 C226 1.240 . S
O225 Co198 2.096 . S
O225 C206 1.247 . S
C226 O223 1.245 . S
C226 O224 1.240 . S
H227 C201 0.931 . S
H228 C210 0.931 . S
H229 C214 0.929 . S
H230 C216 0.930 . S
Co231 N235 2.148 1_554 S
Co231 N241 2.128 . S
Co231 N251 2.194 . S
Co231 O256 2.353 . S
Co231 O257 2.155 . S
Co231 O258 2.096 . S
C232 N235 1.301 . S
C232 N236 1.328 . S
C232 H237 0.930 . S
C233 C234 1.333 . S
C233 N235 1.317 . S
C233 H238 0.930 . S
C234 C233 1.333 . S
C234 N236 1.350 . S
C234 H260 0.931 . S
N235 Co231 2.148 1_556 S
N235 C232 1.301 . S
N235 C233 1.317 . S
N236 C232 1.328 . S
N236 C234 1.350 . S
H237 C232 0.930 . S
H238 C233 0.930 . S
C239 O240 1.224 . S
C239 O258 1.247 . S
O240 C239 1.224 . S
N241 Co231 2.128 . S
N241 C242 1.355 . S
N241 C244 1.311 . S
C242 N241 1.355 . S
C242 C243 1.363 . S
C242 H254 0.929 . S
C243 C242 1.363 . S
C243 N245 1.375 . S
C243 H261 0.931 . S
C244 N241 1.311 . S
C244 N245 1.347 . S
C244 H255 0.929 . S
N245 C243 1.375 . S
N245 C244 1.347 . S
C246 C249 1.365 . S
C246 N251 1.328 1_556 S
C246 H252 0.929 . S
C247 C248 1.362 . S
C247 C250 1.378 . S
C247 H262 0.929 . S
C248 C247 1.362 . S
C248 C249 1.366 1_554 S
C249 C246 1.365 . S
C249 C248 1.366 1_556 S
C249 H263 0.930 . S
C250 C247 1.378 . S
C250 N251 1.315 . S
C250 H253 0.930 . S
N251 Co231 2.194 . S
N251 C246 1.328 1_554 S
N251 C250 1.315 . S
H252 C246 0.929 . S
H253 C250 0.930 . S
H254 C242 0.929 . S
H255 C244 0.929 . S
O256 Co231 2.353 . S
O256 C259 1.245 . S
O257 Co231 2.155 . S
O257 C259 1.240 . S
O258 Co231 2.096 . S
O258 C239 1.247 . S
C259 O256 1.245 . S
C259 O257 1.240 . S
H260 C234 0.931 . S
H261 C243 0.931 . S
H262 C247 0.929 . S
H263 C249 0.930 . S
Co264 N268 2.148 1_554 S
Co264 N274 2.128 . S
Co264 N284 2.194 . S
Co264 O289 2.352 . S
Co264 O290 2.155 . S
Co264 O291 2.096 . S
C265 N268 1.301 . S
C265 N269 1.328 . S
C265 H270 0.930 . S
C266 C267 1.333 . S
C266 N268 1.317 . S
C266 H271 0.930 . S
C267 C266 1.333 . S
C267 N269 1.350 . S
C267 H293 0.931 . S
N268 Co264 2.148 1_556 S
N268 C265 1.301 . S
N268 C266 1.317 . S
N269 C265 1.328 . S
N269 C267 1.350 . S
H270 C265 0.930 . S
H271 C266 0.930 . S
C272 O273 1.224 . S
C272 O291 1.247 . S
O273 C272 1.224 . S
N274 Co264 2.128 . S
N274 C275 1.355 . S
N274 C277 1.311 . S
C275 N274 1.355 . S
C275 C276 1.363 . S
C275 H287 0.929 . S
C276 C275 1.363 . S
C276 N278 1.375 . S
C276 H294 0.931 . S
C277 N274 1.311 . S
C277 N278 1.347 . S
C277 H288 0.929 . S
N278 C276 1.375 . S
N278 C277 1.347 . S
C279 C282 1.365 . S
C279 N284 1.328 1_556 S
C279 H285 0.929 . S
C280 C281 1.362 . S
C280 C283 1.378 . S
C280 H295 0.929 . S
C281 C280 1.362 . S
C281 C282 1.366 1_554 S
C282 C279 1.365 . S
C282 C281 1.366 1_556 S
C282 H296 0.930 . S
C283 C280 1.378 . S
C283 N284 1.315 . S
C283 H286 0.930 . S
N284 Co264 2.194 . S
N284 C279 1.328 1_554 S
N284 C283 1.315 . S
H285 C279 0.929 . S
H286 C283 0.930 . S
H287 C275 0.929 . S
H288 C277 0.929 . S
O289 Co264 2.352 . S
O289 C292 1.245 . S
O290 Co264 2.155 . S
O290 C292 1.240 . S
O291 Co264 2.096 . S
O291 C272 1.247 . S
C292 O289 1.245 . S
C292 O290 1.240 . S
H293 C267 0.931 . S
H294 C276 0.931 . S
H295 C280 0.929 . S
H296 C282 0.930 . S
Co297 N301 2.148 1_554 S
Co297 N307 2.128 . S
Co297 N317 2.194 . S
Co297 O322 2.352 . S
Co297 O323 2.155 . S
Co297 O324 2.096 . S
C298 N301 1.301 . S
C298 N302 1.328 . S
C298 H303 0.930 . S
C299 C300 1.333 . S
C299 N301 1.317 . S
C299 H304 0.930 . S
C300 C299 1.333 . S
C300 N302 1.350 . S
C300 H326 0.931 . S
N301 Co297 2.148 1_556 S
N301 C298 1.301 . S
N301 C299 1.317 . S
N302 C298 1.328 . S
N302 C300 1.350 . S
H303 C298 0.930 . S
H304 C299 0.930 . S
C305 O306 1.224 . S
C305 O324 1.247 . S
O306 C305 1.224 . S
N307 Co297 2.128 . S
N307 C308 1.355 . S
N307 C310 1.311 . S
C308 N307 1.355 . S
C308 C309 1.363 . S
C308 H320 0.929 . S
C309 C308 1.363 . S
C309 N311 1.375 . S
C309 H327 0.931 . S
C310 N307 1.311 . S
C310 N311 1.347 . S
C310 H321 0.929 . S
N311 C309 1.375 . S
N311 C310 1.347 . S
C312 C315 1.365 . S
C312 N317 1.328 1_556 S
C312 H318 0.929 . S
C313 C314 1.362 . S
C313 C316 1.378 . S
C313 H328 0.929 . S
C314 C313 1.362 . S
C314 C315 1.366 1_554 S
C315 C312 1.365 . S
C315 C314 1.366 1_556 S
C315 H329 0.930 . S
C316 C313 1.378 . S
C316 N317 1.315 . S
C316 H319 0.930 . S
N317 Co297 2.194 . S
N317 C312 1.328 1_554 S
N317 C316 1.315 . S
H318 C312 0.929 . S
H319 C316 0.930 . S
H320 C308 0.929 . S
H321 C310 0.929 . S
O322 Co297 2.352 . S
O322 C325 1.245 . S
O323 Co297 2.155 . S
O323 C325 1.240 . S
O324 Co297 2.096 . S
O324 C305 1.247 . S
C325 O322 1.245 . S
C325 O323 1.240 . S
H326 C300 0.931 . S
H327 C309 0.931 . S
H328 C313 0.929 . S
H329 C315 0.930 . S
Co330 N334 2.148 1_554 S
Co330 N340 2.128 . S
Co330 N350 2.194 . S
Co330 O355 2.353 . S
Co330 O356 2.155 . S
Co330 O357 2.096 . S
C331 N334 1.301 . S
C331 N335 1.328 . S
C331 H336 0.930 . S
C332 C333 1.333 . S
C332 N334 1.317 . S
C332 H337 0.930 . S
C333 C332 1.333 . S
C333 N335 1.350 . S
C333 H359 0.931 . S
N334 Co330 2.148 1_556 S
N334 C331 1.301 . S
N334 C332 1.317 . S
N335 C331 1.328 . S
N335 C333 1.350 . S
H336 C331 0.930 . S
H337 C332 0.930 . S
C338 O339 1.224 . S
C338 O357 1.247 . S
O339 C338 1.224 . S
N340 Co330 2.128 . S
N340 C341 1.355 . S
N340 C343 1.311 . S
C341 N340 1.355 . S
C341 C342 1.363 . S
C341 H353 0.929 . S
C342 C341 1.363 . S
C342 N344 1.375 . S
C342 H360 0.931 . S
C343 N340 1.311 . S
C343 N344 1.347 . S
C343 H354 0.929 . S
N344 C342 1.375 . S
N344 C343 1.347 . S
C345 C348 1.365 . S
C345 N350 1.328 1_556 S
C345 H351 0.929 . S
C346 C347 1.362 . S
C346 C349 1.378 . S
C346 H361 0.929 . S
C347 C346 1.362 . S
C347 C348 1.366 1_554 S
C348 C345 1.365 . S
C348 C347 1.366 1_556 S
C348 H362 0.930 . S
C349 C346 1.378 . S
C349 N350 1.315 . S
C349 H352 0.930 . S
N350 Co330 2.194 . S
N350 C345 1.328 1_554 S
N350 C349 1.315 . S
H351 C345 0.929 . S
H352 C349 0.930 . S
H353 C341 0.929 . S
H354 C343 0.929 . S
O355 Co330 2.353 . S
O355 C358 1.245 . S
O356 Co330 2.155 . S
O356 C358 1.240 . S
O357 Co330 2.096 . S
O357 C338 1.247 . S
C358 O355 1.245 . S
C358 O356 1.240 . S
H359 C333 0.931 . S
H360 C342 0.931 . S
H361 C346 0.929 . S
H362 C348 0.930 . S
Co363 N367 2.148 1_554 S
Co363 N373 2.128 . S
Co363 N383 2.194 . S
Co363 O388 2.352 . S
Co363 O389 2.155 . S
Co363 O390 2.096 . S
C364 N367 1.301 . S
C364 N368 1.328 . S
C364 H369 0.930 . S
C365 C366 1.333 . S
C365 N367 1.317 . S
C365 H370 0.930 . S
C366 C365 1.333 . S
C366 N368 1.350 . S
C366 H392 0.931 . S
N367 Co363 2.148 1_556 S
N367 C364 1.301 . S
N367 C365 1.317 . S
N368 C364 1.328 . S
N368 C366 1.350 . S
H369 C364 0.930 . S
H370 C365 0.930 . S
C371 O372 1.224 . S
C371 O390 1.247 . S
O372 C371 1.224 . S
N373 Co363 2.128 . S
N373 C374 1.355 . S
N373 C376 1.311 . S
C374 N373 1.355 . S
C374 C375 1.363 . S
C374 H386 0.929 . S
C375 C374 1.363 . S
C375 N377 1.375 . S
C375 H393 0.931 . S
C376 N373 1.311 . S
C376 N377 1.347 . S
C376 H387 0.929 . S
N377 C375 1.375 . S
N377 C376 1.347 . S
C378 C381 1.365 . S
C378 N383 1.328 1_556 S
C378 H384 0.929 . S
C379 C380 1.362 . S
C379 C382 1.378 . S
C379 H394 0.929 . S
C380 C379 1.362 . S
C380 C381 1.366 1_554 S
C381 C378 1.365 . S
C381 C380 1.366 1_556 S
C381 H395 0.930 . S
C382 C379 1.378 . S
C382 N383 1.315 . S
C382 H385 0.930 . S
N383 Co363 2.194 . S
N383 C378 1.328 1_554 S
N383 C382 1.315 . S
H384 C378 0.929 . S
H385 C382 0.930 . S
H386 C374 0.929 . S
H387 C376 0.929 . S
O388 Co363 2.352 . S
O388 C391 1.245 . S
O389 Co363 2.155 . S
O389 C391 1.240 . S
O390 Co363 2.096 . S
O390 C371 1.247 . S
C391 O388 1.245 . S
C391 O389 1.240 . S
H392 C366 0.931 . S
H393 C375 0.931 . S
H394 C379 0.929 . S
H395 C381 0.930 . S
H396 C402 0.930 . S
H397 C406 0.930 . S
H398 C411 0.929 . S
H399 C409 0.929 . S
H400 C404 0.929 . S
H401 C410 0.929 . S
C402 H396 0.930 . S
C402 C403 1.367 . S
C402 C410 1.378 . S
C403 C402 1.367 . S
C403 C411 1.433 1_554 S
C404 H400 0.929 . S
C404 C406 1.378 . S
C404 C408 1.350 1_556 S
C405 C408 1.463 . S
C405 C410 1.350 . S
C405 N413 1.427 1_554 S
C406 H397 0.930 . S
C406 C404 1.378 . S
C406 C407 1.367 1_556 S
C407 C406 1.367 1_554 S
C407 C409 1.433 . S
C408 C404 1.350 1_554 S
C408 C405 1.463 . S
C408 N412 1.427 . S
C409 H399 0.929 . S
C409 C407 1.433 . S
C409 N412 1.384 . S
C410 H401 0.929 . S
C410 C402 1.378 . S
C410 C405 1.350 . S
C411 H398 0.929 . S
C411 C403 1.433 1_556 S
C411 N413 1.384 . S
N412 C408 1.427 . S
N412 C409 1.384 . S
N413 C405 1.427 1_556 S
N413 C411 1.384 . S
H414 C420 0.930 . S
H415 C424 0.930 . S
H416 C429 0.929 . S
H417 C427 0.929 . S
H418 C422 0.929 . S
H419 C428 0.929 . S
C420 H414 0.930 . S
C420 C421 1.367 1_556 S
C420 C428 1.378 . S
C421 C420 1.367 1_554 S
C421 C429 1.433 . S
C422 H418 0.929 . S
C422 C424 1.378 . S
C422 C426 1.350 . S
C423 C426 1.463 . S
C423 C428 1.350 1_554 S
C423 N431 1.427 . S
C424 H415 0.930 . S
C424 C422 1.378 . S
C424 C425 1.367 . S
C425 C424 1.367 . S
C425 C427 1.433 1_554 S
C426 C422 1.350 . S
C426 C423 1.463 . S
C426 N430 1.427 1_554 S
C427 H417 0.929 . S
C427 C425 1.433 1_556 S
C427 N430 1.384 . S
C428 H419 0.929 . S
C428 C420 1.378 . S
C428 C423 1.350 1_556 S
C429 H416 0.929 . S
C429 C421 1.433 . S
C429 N431 1.384 . S
N430 C426 1.427 1_556 S
N430 C427 1.384 . S
N431 C423 1.427 . S
N431 C429 1.384 . S
H432 C438 0.930 . S
H433 C442 0.930 . S
H434 C447 0.929 . S
H435 C445 0.929 . S
H436 C440 0.929 . S
H437 C446 0.929 . S
C438 H432 0.930 . S
C438 C439 1.367 . S
C438 C446 1.378 . S
C439 C438 1.367 . S
C439 C447 1.433 1_554 S
C440 H436 0.929 . S
C440 C442 1.378 . S
C440 C444 1.350 1_556 S
C441 C444 1.463 . S
C441 C446 1.350 . S
C441 N449 1.427 1_554 S
C442 H433 0.930 . S
C442 C440 1.378 . S
C442 C443 1.367 1_556 S
C443 C442 1.367 1_554 S
C443 C445 1.433 . S
C444 C440 1.350 1_554 S
C444 C441 1.463 . S
C444 N448 1.427 . S
C445 H435 0.929 . S
C445 C443 1.433 . S
C445 N448 1.384 . S
C446 H437 0.929 . S
C446 C438 1.378 . S
C446 C441 1.350 . S
C447 H434 0.929 . S
C447 C439 1.433 1_556 S
C447 N449 1.384 . S
N448 C444 1.427 . S
N448 C445 1.384 . S
N449 C441 1.427 1_556 S
N449 C447 1.384 . S
H450 C456 0.930 . S
H451 C460 0.930 . S
H452 C465 0.929 . S
H453 C463 0.929 . S
H454 C458 0.929 . S
H455 C464 0.929 . S
C456 H450 0.930 . S
C456 C457 1.367 . S
C456 C464 1.378 . S
C457 C456 1.367 . S
C457 C465 1.433 1_554 S
C458 H454 0.929 . S
C458 C460 1.378 . S
C458 C462 1.350 1_556 S
C459 C462 1.463 . S
C459 C464 1.350 . S
C459 N467 1.427 1_554 S
C460 H451 0.930 . S
C460 C458 1.378 . S
C460 C461 1.367 1_556 S
C461 C460 1.367 1_554 S
C461 C463 1.433 . S
C462 C458 1.350 1_554 S
C462 C459 1.463 . S
C462 N466 1.427 . S
C463 H453 0.929 . S
C463 C461 1.433 . S
C463 N466 1.384 . S
C464 H455 0.929 . S
C464 C456 1.378 . S
C464 C459 1.350 . S
C465 H452 0.929 . S
C465 C457 1.433 1_556 S
C465 N467 1.384 . S
N466 C462 1.427 . S
N466 C463 1.384 . S
N467 C459 1.427 1_556 S
N467 C465 1.384 . S
H468 C474 0.930 . S
H469 C478 0.930 . S
H470 C483 0.929 . S
H471 C481 0.929 . S
H472 C476 0.929 . S
H473 C482 0.929 . S
C474 H468 0.930 . S
C474 C475 1.367 . S
C474 C482 1.378 . S
C475 C474 1.367 . S
C475 C483 1.433 1_554 S
C476 H472 0.929 . S
C476 C478 1.378 . S
C476 C480 1.350 1_556 S
C477 C480 1.463 . S
C477 C482 1.350 . S
C477 N485 1.427 1_554 S
C478 H469 0.930 . S
C478 C476 1.378 . S
C478 C479 1.367 1_556 S
C479 C478 1.367 1_554 S
C479 C481 1.433 . S
C480 C476 1.350 1_554 S
C480 C477 1.463 . S
C480 N484 1.427 . S
C481 H471 0.929 . S
C481 C479 1.433 . S
C481 N484 1.384 . S
C482 H473 0.929 . S
C482 C474 1.378 . S
C482 C477 1.350 . S
C483 H470 0.929 . S
C483 C475 1.433 1_556 S
C483 N485 1.384 . S
N484 C480 1.427 . S
N484 C481 1.384 . S
N485 C477 1.427 1_556 S
N485 C483 1.384 . S
H486 C492 0.930 . S
H487 C496 0.930 . S
H488 C501 0.929 . S
H489 C499 0.929 . S
H490 C494 0.929 . S
H491 C500 0.929 . S
C492 H486 0.930 . S
C492 C493 1.367 . S
C492 C500 1.378 . S
C493 C492 1.367 . S
C493 C501 1.433 1_554 S
C494 H490 0.929 . S
C494 C496 1.378 . S
C494 C498 1.350 1_556 S
C495 C498 1.463 . S
C495 C500 1.350 . S
C495 N503 1.427 1_554 S
C496 H487 0.930 . S
C496 C494 1.378 . S
C496 C497 1.367 1_556 S
C497 C496 1.367 1_554 S
C497 C499 1.433 . S
C498 C494 1.350 1_554 S
C498 C495 1.463 . S
C498 N502 1.427 . S
C499 H489 0.929 . S
C499 C497 1.433 . S
C499 N502 1.384 . S
C500 H491 0.929 . S
C500 C492 1.378 . S
C500 C495 1.350 . S
C501 H488 0.929 . S
C501 C493 1.433 1_556 S
C501 N503 1.384 . S
N502 C498 1.427 . S
N502 C499 1.384 . S
N503 C495 1.427 1_556 S
N503 C501 1.384 . S
H504 C510 0.930 . S
H505 C514 0.930 . S
H506 C519 0.929 . S
H507 C517 0.929 . S
H508 C512 0.929 . S
H509 C518 0.929 . S
C510 H504 0.930 . S
C510 C511 1.367 . S
C510 C518 1.378 . S
C511 C510 1.367 . S
C511 C519 1.433 1_554 S
C512 H508 0.929 . S
C512 C514 1.378 . S
C512 C516 1.350 1_556 S
C513 C516 1.463 . S
C513 C518 1.350 . S
C513 N521 1.427 1_554 S
C514 H505 0.930 . S
C514 C512 1.378 . S
C514 C515 1.367 1_556 S
C515 C514 1.367 1_554 S
C515 C517 1.433 . S
C516 C512 1.350 1_554 S
C516 C513 1.463 . S
C516 N520 1.427 . S
C517 H507 0.929 . S
C517 C515 1.433 . S
C517 N520 1.384 . S
C518 H509 0.929 . S
C518 C510 1.378 . S
C518 C513 1.350 . S
C519 H506 0.929 . S
C519 C511 1.433 1_556 S
C519 N521 1.384 . S
N520 C516 1.427 . S
N520 C517 1.384 . S
N521 C513 1.427 1_556 S
N521 C519 1.384 . S
H522 C528 0.930 . S
H523 C532 0.930 . S
H524 C537 0.929 . S
H525 C535 0.929 . S
H526 C530 0.929 . S
H527 C536 0.929 . S
C528 H522 0.930 . S
C528 C529 1.367 . S
C528 C536 1.378 . S
C529 C528 1.367 . S
C529 C537 1.433 1_554 S
C530 H526 0.929 . S
C530 C532 1.378 . S
C530 C534 1.350 1_556 S
C531 C534 1.463 . S
C531 C536 1.350 . S
C531 N539 1.427 1_554 S
C532 H523 0.930 . S
C532 C530 1.378 . S
C532 C533 1.367 1_556 S
C533 C532 1.367 1_554 S
C533 C535 1.433 . S
C534 C530 1.350 1_554 S
C534 C531 1.463 . S
C534 N538 1.427 . S
C535 H525 0.929 . S
C535 C533 1.433 . S
C535 N538 1.384 . S
C536 H527 0.929 . S
C536 C528 1.378 . S
C536 C531 1.350 . S
C537 H524 0.929 . S
C537 C529 1.433 1_556 S
C537 N539 1.384 . S
N538 C534 1.427 . S
N538 C535 1.384 . S
N539 C531 1.427 1_556 S
N539 C537 1.384 . S
H540 C546 0.930 . S
H541 C550 0.930 . S
H542 C555 0.929 . S
H543 C553 0.929 . S
H544 C548 0.929 . S
H545 C554 0.929 . S
C546 H540 0.930 . S
C546 C547 1.367 . S
C546 C554 1.378 . S
C547 C546 1.367 . S
C547 C555 1.433 1_554 S
C548 H544 0.929 . S
C548 C550 1.378 . S
C548 C552 1.350 1_556 S
C549 C552 1.463 . S
C549 C554 1.350 . S
C549 N557 1.427 1_554 S
C550 H541 0.930 . S
C550 C548 1.378 . S
C550 C551 1.373 . S
C551 C550 1.373 . S
C551 C553 1.425 1_556 S
C552 C548 1.350 1_554 S
C552 C549 1.463 . S
C552 N556 1.427 . S
C553 H543 0.929 . S
C553 C551 1.425 1_554 S
C553 N556 1.384 . S
C554 H545 0.929 . S
C554 C546 1.378 . S
C554 C549 1.350 . S
C555 H542 0.929 . S
C555 C547 1.433 1_556 S
C555 N557 1.384 . S
N556 C552 1.427 . S
N556 C553 1.384 . S
N557 C549 1.427 1_556 S
N557 C555 1.384 . S
H558 C564 0.930 . S
H559 C568 0.930 . S
H560 C573 0.929 . S
H561 C571 0.929 . S
H562 C566 0.929 . S
H563 C572 0.929 . S
C564 H558 0.930 . S
C564 C565 1.367 . S
C564 C572 1.378 . S
C565 C564 1.367 . S
C565 C573 1.433 1_554 S
C566 H562 0.929 . S
C566 C568 1.378 . S
C566 C570 1.350 1_556 S
C567 C570 1.463 . S
C567 C572 1.350 . S
C567 N575 1.427 1_554 S
C568 H559 0.930 . S
C568 C566 1.378 . S
C568 C569 1.367 1_556 S
C569 C568 1.367 1_554 S
C569 C571 1.433 . S
C570 C566 1.350 1_554 S
C570 C567 1.463 . S
C570 N574 1.427 . S
C571 H561 0.929 . S
C571 C569 1.433 . S
C571 N574 1.384 . S
C572 H563 0.929 . S
C572 C564 1.378 . S
C572 C567 1.350 . S
C573 H560 0.929 . S
C573 C565 1.433 1_556 S
C573 N575 1.384 . S
N574 C570 1.427 . S
N574 C571 1.384 . S
N575 C567 1.427 1_556 S
N575 C573 1.384 . S
H576 C582 0.930 . S
H577 C586 0.930 . S
H578 C591 0.929 . S
H579 C589 0.929 . S
H580 C584 0.929 . S
H581 C590 0.929 . S
C582 H576 0.930 . S
C582 C583 1.367 . S
C582 C590 1.378 . S
C583 C582 1.367 . S
C583 C591 1.433 1_554 S
C584 H580 0.929 . S
C584 C586 1.378 . S
C584 C588 1.350 1_556 S
C585 C588 1.463 . S
C585 C590 1.350 . S
C585 N593 1.427 1_554 S
C586 H577 0.930 . S
C586 C584 1.378 . S
C586 C587 1.367 1_556 S
C587 C586 1.367 1_554 S
C587 C589 1.433 . S
C588 C584 1.350 1_554 S
C588 C585 1.463 . S
C588 N592 1.427 . S
C589 H579 0.929 . S
C589 C587 1.433 . S
C589 N592 1.384 . S
C590 H581 0.929 . S
C590 C582 1.378 . S
C590 C585 1.350 . S
C591 H578 0.929 . S
C591 C583 1.433 1_556 S
C591 N593 1.384 . S
N592 C588 1.427 . S
N592 C589 1.384 . S
N593 C585 1.427 1_556 S
N593 C591 1.384 . S
H594 C600 0.930 . S
H595 C604 0.930 . S
H596 C609 0.929 . S
H597 C607 0.929 . S
H598 C602 0.929 . S
H599 C608 0.929 . S
C600 H594 0.930 . S
C600 C601 1.367 . S
C600 C608 1.378 . S
C601 C600 1.367 . S
C601 C609 1.433 1_554 S
C602 H598 0.929 . S
C602 C604 1.378 . S
C602 C606 1.350 1_556 S
C603 C606 1.463 . S
C603 C608 1.350 . S
C603 N611 1.427 1_554 S
C604 H595 0.930 . S
C604 C602 1.378 . S
C604 C605 1.367 1_556 S
C605 C604 1.367 1_554 S
C605 C607 1.433 . S
C606 C602 1.350 1_554 S
C606 C603 1.463 . S
C606 N610 1.427 . S
C607 H597 0.929 . S
C607 C605 1.433 . S
C607 N610 1.384 . S
C608 H599 0.929 . S
C608 C600 1.378 . S
C608 C603 1.350 . S
C609 H596 0.929 . S
C609 C601 1.433 1_556 S
C609 N611 1.384 . S
N610 C606 1.427 . S
N610 C607 1.384 . S
N611 C603 1.427 1_556 S
N611 C609 1.384 . S
H612 C618 0.930 . S
H613 C622 0.930 . S
H614 C627 0.929 . S
H615 C625 0.929 . S
H616 C620 0.929 . S
H617 C626 0.929 . S
C618 H612 0.930 . S
C618 C619 1.367 . S
C618 C626 1.378 . S
C619 C618 1.367 . S
C619 C627 1.433 . S
C620 H616 0.929 . S
C620 C622 1.378 . S
C620 C624 1.350 . S
C621 C624 1.463 . S
C621 C626 1.350 . S
C621 N629 1.427 . S
C622 H613 0.930 . S
C622 C620 1.378 . S
C622 C623 1.367 . S
C623 C622 1.367 . S
C623 C625 1.433 . S
C624 C620 1.350 . S
C624 C621 1.463 . S
C624 N628 1.427 . S
C625 H615 0.929 . S
C625 C623 1.433 . S
C625 N628 1.384 . S
C626 H617 0.929 . S
C626 C618 1.378 . S
C626 C621 1.350 . S
C627 H614 0.929 . S
C627 C619 1.433 . S
C627 N629 1.384 . S
N628 C624 1.427 . S
N628 C625 1.384 . S
N629 C621 1.427 . S
N629 C627 1.384 . S
H630 C636 0.930 . S
H631 C640 0.930 . S
H632 C645 0.929 . S
H633 C643 0.929 . S
H634 C638 0.929 . S
H635 C644 0.929 . S
C636 H630 0.930 . S
C636 C637 1.367 . S
C636 C644 1.378 . S
C637 C636 1.367 . S
C637 C645 1.433 . S
C638 H634 0.929 . S
C638 C640 1.378 . S
C638 C642 1.350 . S
C639 C642 1.463 . S
C639 C644 1.350 . S
C639 N647 1.427 . S
C640 H631 0.930 . S
C640 C638 1.378 . S
C640 C641 1.367 . S
C641 C640 1.367 . S
C641 C643 1.433 . S
C642 C638 1.350 . S
C642 C639 1.463 . S
C642 N646 1.427 . S
C643 H633 0.929 . S
C643 C641 1.433 . S
C643 N646 1.384 . S
C644 H635 0.929 . S
C644 C636 1.378 . S
C644 C639 1.350 . S
C645 H632 0.929 . S
C645 C637 1.433 . S
C645 N647 1.384 . S
N646 C642 1.427 . S
N646 C643 1.384 . S
N647 C639 1.427 . S
N647 C645 1.384 . S
H648 C654 0.930 . S
H649 C658 0.930 . S
H650 C663 0.929 . S
H651 C661 0.929 . S
H652 C656 0.929 . S
H653 C662 0.929 . S
C654 H648 0.930 . S
C654 C655 1.367 . S
C654 C662 1.378 . S
C655 C654 1.367 . S
C655 C663 1.433 . S
C656 H652 0.929 . S
C656 C658 1.378 . S
C656 C660 1.350 . S
C657 C660 1.463 . S
C657 C662 1.350 . S
C657 N665 1.427 . S
C658 H649 0.930 . S
C658 C656 1.378 . S
C658 C659 1.367 . S
C659 C658 1.367 . S
C659 C661 1.433 . S
C660 C656 1.350 . S
C660 C657 1.463 . S
C660 N664 1.427 . S
C661 H651 0.929 . S
C661 C659 1.433 . S
C661 N664 1.384 . S
C662 H653 0.929 . S
C662 C654 1.378 . S
C662 C657 1.350 . S
C663 H650 0.929 . S
C663 C655 1.433 . S
C663 N665 1.384 . S
N664 C660 1.427 . S
N664 C661 1.384 . S
N665 C657 1.427 . S
N665 C663 1.384 . S
H666 C672 0.930 . S
H667 C676 0.930 . S
H668 C681 0.929 . S
H669 C679 0.929 . S
H670 C674 0.929 . S
H671 C680 0.929 . S
C672 H666 0.930 . S
C672 C673 1.367 . S
C672 C680 1.378 . S
C673 C672 1.367 . S
C673 C681 1.433 . S
C674 H670 0.929 . S
C674 C676 1.378 . S
C674 C678 1.350 . S
C675 C678 1.463 . S
C675 C680 1.350 . S
C675 N683 1.427 . S
C676 H667 0.930 . S
C676 C674 1.378 . S
C676 C677 1.367 . S
C677 C676 1.367 . S
C677 C679 1.433 . S
C678 C674 1.350 . S
C678 C675 1.463 . S
C678 N682 1.427 . S
C679 H669 0.929 . S
C679 C677 1.433 . S
C679 N682 1.384 . S
C680 H671 0.929 . S
C680 C672 1.378 . S
C680 C675 1.350 . S
C681 H668 0.929 . S
C681 C673 1.433 . S
C681 N683 1.384 . S
N682 C678 1.427 . S
N682 C679 1.384 . S
N683 C675 1.427 . S
N683 C681 1.384 . S
H684 C690 0.930 . S
H685 C694 0.930 . S
H686 C699 0.929 . S
H687 C697 0.929 . S
H688 C692 0.929 . S
H689 C698 0.929 . S
C690 H684 0.930 . S
C690 C691 1.367 . S
C690 C698 1.378 . S
C691 C690 1.367 . S
C691 C699 1.433 . S
C692 H688 0.929 . S
C692 C694 1.378 . S
C692 C696 1.350 . S
C693 C696 1.463 . S
C693 C698 1.350 . S
C693 N701 1.427 . S
C694 H685 0.930 . S
C694 C692 1.378 . S
C694 C695 1.367 . S
C695 C694 1.367 . S
C695 C697 1.433 . S
C696 C692 1.350 . S
C696 C693 1.463 . S
C696 N700 1.427 . S
C697 H687 0.929 . S
C697 C695 1.433 . S
C697 N700 1.384 . S
C698 H689 0.929 . S
C698 C690 1.378 . S
C698 C693 1.350 . S
C699 H686 0.929 . S
C699 C691 1.433 . S
C699 N701 1.384 . S
N700 C696 1.427 . S
N700 C697 1.384 . S
N701 C693 1.427 . S
N701 C699 1.384 . S
H702 C708 0.930 . S
H703 C712 0.930 . S
H704 C717 0.929 . S
H705 C715 0.929 . S
H706 C710 0.929 . S
H707 C716 0.929 . S
C708 H702 0.930 . S
C708 C709 1.367 . S
C708 C716 1.378 . S
C709 C708 1.367 . S
C709 C717 1.433 . S
C710 H706 0.929 . S
C710 C712 1.378 . S
C710 C714 1.350 . S
C711 C714 1.463 . S
C711 C716 1.350 . S
C711 N719 1.427 . S
C712 H703 0.930 . S
C712 C710 1.378 . S
C712 C713 1.367 . S
C713 C712 1.367 . S
C713 C715 1.433 . S
C714 C710 1.350 . S
C714 C711 1.463 . S
C714 N718 1.427 . S
C715 H705 0.929 . S
C715 C713 1.433 . S
C715 N718 1.384 . S
C716 H707 0.929 . S
C716 C708 1.378 . S
C716 C711 1.350 . S
C717 H704 0.929 . S
C717 C709 1.433 . S
C717 N719 1.384 . S
N718 C714 1.427 . S
N718 C715 1.384 . S
N719 C711 1.427 . S
N719 C717 1.384 . S
H720 C726 0.930 . S
H721 C730 0.930 . S
H722 C735 0.929 . S
H723 C733 0.929 . S
H724 C728 0.929 . S
H725 C734 0.929 . S
C726 H720 0.930 . S
C726 C727 1.367 . S
C726 C734 1.378 . S
C727 C726 1.367 . S
C727 C735 1.433 . S
C728 H724 0.929 . S
C728 C730 1.378 . S
C728 C732 1.350 . S
C729 C732 1.463 . S
C729 C734 1.350 . S
C729 N737 1.427 . S
C730 H721 0.930 . S
C730 C728 1.378 . S
C730 C731 1.367 . S
C731 C730 1.367 . S
C731 C733 1.433 . S
C732 C728 1.350 . S
C732 C729 1.463 . S
C732 N736 1.427 . S
C733 H723 0.929 . S
C733 C731 1.433 . S
C733 N736 1.384 . S
C734 H725 0.929 . S
C734 C726 1.378 . S
C734 C729 1.350 . S
C735 H722 0.929 . S
C735 C727 1.433 . S
C735 N737 1.384 . S
N736 C732 1.427 . S
N736 C733 1.384 . S
N737 C729 1.427 . S
N737 C735 1.384 . S
H738 C744 0.930 . S
H739 C748 0.930 . S
H740 C753 0.929 . S
H741 C751 0.929 . S
H742 C746 0.929 . S
H743 C752 0.929 . S
C744 H738 0.930 . S
C744 C745 1.367 . S
C744 C752 1.378 . S
C745 C744 1.367 . S
C745 C753 1.433 . S
C746 H742 0.929 . S
C746 C748 1.378 . S
C746 C750 1.350 . S
C747 C750 1.463 . S
C747 C752 1.350 . S
C747 N755 1.427 . S
C748 H739 0.930 . S
C748 C746 1.378 . S
C748 C749 1.367 . S
C749 C748 1.367 . S
C749 C751 1.433 . S
C750 C746 1.350 . S
C750 C747 1.463 . S
C750 N754 1.427 . S
C751 H741 0.929 . S
C751 C749 1.433 . S
C751 N754 1.384 . S
C752 H743 0.929 . S
C752 C744 1.378 . S
C752 C747 1.350 . S
C753 H740 0.929 . S
C753 C745 1.433 . S
C753 N755 1.384 . S
N754 C750 1.427 . S
N754 C751 1.384 . S
N755 C747 1.427 . S
N755 C753 1.384 . S
H756 C762 0.930 . S
H757 C766 0.930 . S
H758 C771 0.929 . S
H759 C769 0.929 . S
H760 C764 0.929 . S
H761 C770 0.929 . S
C762 H756 0.930 . S
C762 C763 1.367 . S
C762 C770 1.378 . S
C763 C762 1.367 . S
C763 C771 1.433 . S
C764 H760 0.929 . S
C764 C766 1.378 . S
C764 C768 1.350 . S
C765 C768 1.463 . S
C765 C770 1.350 . S
C765 N773 1.427 . S
C766 H757 0.930 . S
C766 C764 1.378 . S
C766 C767 1.367 . S
C767 C766 1.367 . S
C767 C769 1.433 . S
C768 C764 1.350 . S
C768 C765 1.463 . S
C768 N772 1.427 . S
C769 H759 0.929 . S
C769 C767 1.433 . S
C769 N772 1.384 . S
C770 H761 0.929 . S
C770 C762 1.378 . S
C770 C765 1.350 . S
C771 H758 0.929 . S
C771 C763 1.433 . S
C771 N773 1.384 . S
N772 C768 1.427 . S
N772 C769 1.384 . S
N773 C765 1.427 . S
N773 C771 1.384 . S
H774 C780 0.930 . S
H775 C784 0.930 . S
H776 C789 0.929 . S
H777 C787 0.929 . S
H778 C782 0.929 . S
H779 C788 0.929 . S
C780 H774 0.930 . S
C780 C781 1.367 . S
C780 C788 1.378 . S
C781 C780 1.367 . S
C781 C789 1.433 . S
C782 H778 0.929 . S
C782 C784 1.378 . S
C782 C786 1.350 . S
C783 C786 1.463 . S
C783 C788 1.350 . S
C783 N791 1.427 . S
C784 H775 0.930 . S
C784 C782 1.378 . S
C784 C785 1.367 . S
C785 C784 1.367 . S
C785 C787 1.433 . S
C786 C782 1.350 . S
C786 C783 1.463 . S
C786 N790 1.427 . S
C787 H777 0.929 . S
C787 C785 1.433 . S
C787 N790 1.384 . S
C788 H779 0.929 . S
C788 C780 1.378 . S
C788 C783 1.350 . S
C789 H776 0.929 . S
C789 C781 1.433 . S
C789 N791 1.384 . S
N790 C786 1.427 . S
N790 C787 1.384 . S
N791 C783 1.427 . S
N791 C789 1.384 . S
H792 C798 0.930 . S
H793 C802 0.930 . S
H794 C807 0.929 . S
H795 C805 0.929 . S
H796 C800 0.929 . S
H797 C806 0.929 . S
C798 H792 0.930 . S
C798 C799 1.367 . S
C798 C806 1.378 . S
C799 C798 1.367 . S
C799 C807 1.433 . S
C800 H796 0.929 . S
C800 C802 1.378 . S
C800 C804 1.350 . S
C801 C804 1.463 . S
C801 C806 1.350 . S
C801 N809 1.427 . S
C802 H793 0.930 . S
C802 C800 1.378 . S
C802 C803 1.367 . S
C803 C802 1.367 . S
C803 C805 1.433 . S
C804 C800 1.350 . S
C804 C801 1.463 . S
C804 N808 1.427 . S
C805 H795 0.929 . S
C805 C803 1.433 . S
C805 N808 1.384 . S
C806 H797 0.929 . S
C806 C798 1.378 . S
C806 C801 1.350 . S
C807 H794 0.929 . S
C807 C799 1.433 . S
C807 N809 1.384 . S
N808 C804 1.427 . S
N808 C805 1.384 . S
N809 C801 1.427 . S
N809 C807 1.384 . S
H810 C816 0.930 . S
H811 C820 0.930 . S
H812 C825 0.929 . S
H813 C823 0.929 . S
H814 C818 0.929 . S
H815 C824 0.929 . S
C816 H810 0.930 . S
C816 C817 1.367 . S
C816 C824 1.378 . S
C817 C816 1.367 . S
C817 C825 1.433 . S
C818 H814 0.929 . S
C818 C820 1.378 . S
C818 C822 1.350 . S
C819 C822 1.463 . S
C819 C824 1.350 . S
C819 N827 1.427 . S
C820 H811 0.930 . S
C820 C818 1.378 . S
C820 C821 1.367 . S
C821 C820 1.367 . S
C821 C823 1.433 . S
C822 C818 1.350 . S
C822 C819 1.463 . S
C822 N826 1.427 . S
C823 H813 0.929 . S
C823 C821 1.433 . S
C823 N826 1.384 . S
C824 H815 0.929 . S
C824 C816 1.378 . S
C824 C819 1.350 . S
C825 H812 0.929 . S
C825 C817 1.433 . S
C825 N827 1.384 . S
N826 C822 1.427 . S
N826 C823 1.384 . S
N827 C819 1.427 . S
N827 C825 1.384 . S
H828 C834 0.930 . S
H829 C838 0.930 1_556 S
H830 C843 0.929 . S
H831 C841 0.929 . S
H832 C836 0.929 1_556 S
H833 C842 0.929 . S
C834 H828 0.930 . S
C834 C835 1.367 1_554 S
C834 C842 1.378 . S
C835 C834 1.367 1_556 S
C835 C843 1.433 . S
C836 H832 0.929 1_554 S
C836 C838 1.378 . S
C836 C840 1.350 . S
C837 C840 1.463 1_455 S
C837 C842 1.350 . S
C837 N845 1.427 1_554 S
C838 H829 0.930 1_554 S
C838 C836 1.378 . S
C838 C839 1.367 . S
C839 C838 1.367 . S
C839 C841 1.433 . S
C840 C836 1.350 . S
C840 C837 1.463 1_655 S
C840 N844 1.427 . S
C841 H831 0.929 . S
C841 C839 1.433 . S
C841 N844 1.384 . S
C842 H833 0.929 . S
C842 C834 1.378 . S
C842 C837 1.350 . S
C843 H830 0.929 . S
C843 C835 1.433 . S
C843 N845 1.384 . S
N844 C840 1.427 . S
N844 C841 1.384 . S
N845 C837 1.427 1_556 S
N845 C843 1.384 . S
H846 C852 0.930 . S
H847 C856 0.930 . S
H848 C861 0.929 . S
H849 C859 0.929 . S
H850 C854 0.929 . S
H851 C860 0.929 . S
C852 H846 0.930 . S
C852 C853 1.367 1_556 S
C852 C860 1.378 . S
C853 C852 1.367 1_554 S
C853 C861 1.433 . S
C854 H850 0.929 . S
C854 C856 1.378 . S
C854 C858 1.350 . S
C855 C858 1.463 1_565 S
C855 C860 1.350 1_554 S
C855 N863 1.427 . S
C856 H847 0.930 . S
C856 C854 1.378 . S
C856 C857 1.362 1_554 S
C857 C856 1.362 1_556 S
C857 C859 1.438 . S
C858 C854 1.350 . S
C858 C855 1.463 1_545 S
C858 N862 1.427 1_554 S
C859 H849 0.929 . S
C859 C857 1.438 . S
C859 N862 1.384 . S
C860 H851 0.929 . S
C860 C852 1.378 . S
C860 C855 1.350 1_556 S
C861 H848 0.929 . S
C861 C853 1.433 . S
C861 N863 1.384 . S
N862 C858 1.427 1_556 S
N862 C859 1.384 . S
N863 C855 1.427 . S
N863 C861 1.384 . S
H864 C870 0.930 . S
H865 C874 0.930 . S
H866 C879 0.929 . S
H867 C877 0.929 . S
H868 C872 0.929 . S
H869 C878 0.929 . S
C870 H864 0.930 . S
C870 C871 1.367 . S
C870 C878 1.378 . S
C871 C870 1.367 . S
C871 C879 1.433 1_554 S
C872 H868 0.929 . S
C872 C874 1.378 . S
C872 C876 1.350 1_556 S
C873 C876 1.463 . S
C873 C878 1.350 . S
C873 N881 1.427 1_554 S
C874 H865 0.930 . S
C874 C872 1.378 . S
C874 C875 1.367 . S
C875 C874 1.367 . S
C875 C877 1.433 1_556 S
C876 C872 1.350 1_554 S
C876 C873 1.463 . S
C876 N880 1.427 . S
C877 H867 0.929 . S
C877 C875 1.433 1_554 S
C877 N880 1.384 . S
C878 H869 0.929 . S
C878 C870 1.378 . S
C878 C873 1.350 . S
C879 H866 0.929 . S
C879 C871 1.433 1_556 S
C879 N881 1.384 . S
N880 C876 1.427 . S
N880 C877 1.384 . S
N881 C873 1.427 1_556 S
N881 C879 1.384 . S
H882 C888 0.930 . S
H883 C892 0.930 . S
H884 C897 0.929 . S
H885 C895 0.929 . S
H886 C890 0.929 . S
H887 C896 0.929 . S
C888 H882 0.930 . S
C888 C889 1.367 . S
C888 C896 1.378 . S
C889 C888 1.367 . S
C889 C897 1.433 1_554 S
C890 H886 0.929 . S
C890 C892 1.378 . S
C890 C894 1.350 1_556 S
C891 C894 1.463 1_455 S
C891 C896 1.350 . S
C891 N899 1.427 1_554 S
C892 H883 0.930 . S
C892 C890 1.378 . S
C892 C893 1.367 . S
C893 C892 1.367 . S
C893 C895 1.433 1_556 S
C894 C890 1.350 1_554 S
C894 C891 1.463 1_655 S
C894 N898 1.427 . S
C895 H885 0.929 . S
C895 C893 1.433 1_554 S
C895 N898 1.384 . S
C896 H887 0.929 . S
C896 C888 1.378 . S
C896 C891 1.350 . S
C897 H884 0.929 . S
C897 C889 1.433 1_556 S
C897 N899 1.384 . S
N898 C894 1.427 . S
N898 C895 1.384 . S
N899 C891 1.427 1_556 S
N899 C897 1.384 . S
H900 C906 0.930 . S
H901 C910 0.930 . S
H902 C915 0.929 . S
H903 C913 0.929 . S
H904 C908 0.929 . S
H905 C914 0.929 . S
C906 H900 0.930 . S
C906 C907 1.367 . S
C906 C914 1.378 . S
C907 C906 1.367 . S
C907 C915 1.433 1_556 S
C908 H904 0.929 . S
C908 C910 1.378 . S
C908 C912 1.350 . S
C909 C912 1.463 1_565 S
C909 C914 1.350 1_554 S
C909 N917 1.427 . S
C910 H901 0.930 . S
C910 C908 1.378 . S
C910 C911 1.367 . S
C911 C910 1.367 . S
C911 C913 1.433 1_554 S
C912 C908 1.350 . S
C912 C909 1.463 1_545 S
C912 N916 1.427 1_554 S
C913 H903 0.929 . S
C913 C911 1.433 1_556 S
C913 N916 1.384 . S
C914 H905 0.929 . S
C914 C906 1.378 . S
C914 C909 1.350 1_556 S
C915 H902 0.929 . S
C915 C907 1.433 1_554 S
C915 N917 1.384 . S
N916 C912 1.427 1_556 S
N916 C913 1.384 . S
N917 C909 1.427 . S
N917 C915 1.384 . S
H918 C924 0.930 . S
H919 C928 0.930 . S
H920 C933 0.929 . S
H921 C931 0.929 . S
H922 C926 0.929 . S
H923 C932 0.929 . S
C924 H918 0.930 . S
C924 C925 1.367 . S
C924 C932 1.378 . S
C925 C924 1.367 . S
C925 C933 1.433 1_554 S
C926 H922 0.929 . S
C926 C928 1.378 . S
C926 C930 1.350 1_556 S
C927 C930 1.463 . S
C927 C932 1.350 . S
C927 N935 1.427 1_554 S
C928 H919 0.930 . S
C928 C926 1.378 . S
C928 C929 1.367 . S
C929 C928 1.367 . S
C929 C931 1.433 1_556 S
C930 C926 1.350 1_554 S
C930 C927 1.463 . S
C930 N934 1.427 . S
C931 H921 0.929 . S
C931 C929 1.433 1_554 S
C931 N934 1.384 . S
C932 H923 0.929 . S
C932 C924 1.378 . S
C932 C927 1.350 . S
C933 H920 0.929 . S
C933 C925 1.433 1_556 S
C933 N935 1.384 . S
N934 C930 1.427 . S
N934 C931 1.384 . S
N935 C927 1.427 1_556 S
N935 C933 1.384 . S
C403 C281 1.606 . S
C407 C17 1.609 . S
C421 C50 1.609 . S
C425 C314 1.606 . S
C439 C347 1.606 . S
C443 C83 1.609 . S
C457 C380 1.607 . S
C461 C116 1.608 . S
C475 C149 1.607 . S
C479 C215 1.606 . S
C493 C248 1.607 . S
C497 C182 1.609 . S
C511 C358 1.151 . S
C515 C28 1.153 . S
C529 C391 1.153 . S
C533 C61 1.152 . S
C547 C94 1.158 . S
C551 C226 1.160 1_556 S
C565 C259 1.151 . S
C569 C127 1.153 . S
C583 C292 1.152 . S
C587 C160 1.154 . S
C601 C325 1.151 . S
C605 C193 1.152 . S
C619 N5 1.473 . S
C623 N14 1.465 . S
C637 N38 1.475 . S
C641 N47 1.467 . S
C655 N71 1.472 . S
C659 N80 1.465 . S
C673 N104 1.479 . S
C677 N113 1.473 . S
C691 N146 1.480 . S
C695 N137 1.487 . S
C709 N170 1.474 . S
C713 N179 1.466 . S
C727 N212 1.468 . S
C731 N203 1.475 . S
C745 N236 1.480 . S
C749 N245 1.473 . S
C763 N278 1.470 . S
C767 N269 1.478 . S
C781 N311 1.479 . S
C785 N302 1.486 . S
C799 N335 1.479 . S
C803 N344 1.471 . S
C817 N368 1.486 . S
C821 N377 1.478 . S
C835 C8 1.218 . S
C839 C371 1.230 . S
C853 C206 1.226 . S
C857 C41 1.219 . S
C871 C239 1.230 . S
C875 C74 1.226 . S
C889 C272 1.230 . S
C893 C107 1.228 . S
C907 C140 1.229 . S
C911 C305 1.228 . S
C925 C338 1.229 . S
C929 C173 1.227 . S
