# Generated by pormake.
# Topology unm, (4)-cn, num edge types: 1
# Building blocks:
#     Node 0, Type 0, BuildingBlock: UXUYUI_clean_sbu_0, # of connection points: 4
#     Node 1, Type 0, BuildingBlock: UXUYUI_clean_sbu_0, # of connection points: 4
#     Node 2, Type 0, BuildingBlock: UXUYUI_clean_sbu_0, # of connection points: 4
#     Node 3, Type 0, BuildingBlock: UXUYUI_clean_sbu_0, # of connection points: 4
#     Node 4, Type 0, BuildingBlock: UXUYUI_clean_sbu_0, # of connection points: 4
#     Node 5, Type 0, BuildingBlock: UXUYUI_clean_sbu_0, # of connection points: 4
#     Node 6, Type 0, BuildingBlock: UXUYUI_clean_sbu_0, # of connection points: 4
#     Node 7, Type 0, BuildingBlock: UXUYUI_clean_sbu_0, # of connection points: 4
#     Edge 8, Type (0, 0), BuildingBlock: EZIPEK_clean_linker_0, # of connection points: 2
#     Edge 9, Type (0, 0), BuildingBlock: EZIPEK_clean_linker_0, # of connection points: 2
#     Edge 10, Type (0, 0), BuildingBlock: EZIPEK_clean_linker_0, # of connection points: 2
#     Edge 11, Type (0, 0), BuildingBlock: EZIPEK_clean_linker_0, # of connection points: 2
#     Edge 12, Type (0, 0), BuildingBlock: EZIPEK_clean_linker_0, # of connection points: 2
#     Edge 13, Type (0, 0), BuildingBlock: EZIPEK_clean_linker_0, # of connection points: 2
#     Edge 14, Type (0, 0), BuildingBlock: EZIPEK_clean_linker_0, # of connection points: 2
#     Edge 15, Type (0, 0), BuildingBlock: EZIPEK_clean_linker_0, # of connection points: 2
#     Edge 16, Type (0, 0), BuildingBlock: EZIPEK_clean_linker_0, # of connection points: 2
#     Edge 17, Type (0, 0), BuildingBlock: EZIPEK_clean_linker_0, # of connection points: 2
#     Edge 18, Type (0, 0), BuildingBlock: EZIPEK_clean_linker_0, # of connection points: 2
#     Edge 19, Type (0, 0), BuildingBlock: EZIPEK_clean_linker_0, # of connection points: 2
#     Edge 20, Type (0, 0), BuildingBlock: EZIPEK_clean_linker_0, # of connection points: 2
#     Edge 21, Type (0, 0), BuildingBlock: EZIPEK_clean_linker_0, # of connection points: 2
#     Edge 22, Type (0, 0), BuildingBlock: EZIPEK_clean_linker_0, # of connection points: 2
#     Edge 23, Type (0, 0), BuildingBlock: EZIPEK_clean_linker_0, # of connection points: 2
# Relax obj value: 0.260
# Max RMSD: 0.186
# Mean RMSD: 0.185
data_MOF--net-unm--node1-UXUYUI_clean_sbu_0--edge1-EZIPEK_clean_linker_0
_symmetry_space_group_name_H-M    P1
_symmetry_Int_Tables_number       1
_symmetry_cell_setting            triclinic
loop_
_symmetry_equiv_pos_as_xyz
'x, y, z'
_cell_length_a     31.155394
_cell_length_b     31.068436
_cell_length_c     50.682862
_cell_angle_alpha  89.999972
_cell_angle_beta   89.985141
_cell_angle_gamma 89.99858
loop_
_atom_site_label
_atom_site_type_symbol
_atom_site_fract_x
_atom_site_fract_y
_atom_site_fract_z
_atom_type_partial_charge
Li0 Li 0.08056 0.2754 0.15873 0.0
Li1 Li 0.12859 0.23352 0.18499 0.0
Li2 Li 0.09014 0.20208 0.14545 0.0
Li3 Li 0.04977 0.22306 0.1867 0.0
C4 C 0.15374 0.27576 0.1301 0.0
N5 N 0.19318 0.33281 0.09598 0.0
C6 C 0.17471 0.31214 0.13994 0.0
C7 C 0.15296 0.26835 0.10288 0.0
C8 C 0.19436 0.34065 0.12237 0.0
C9 C 0.1731 0.29755 0.08597 0.0
C10 C 0.0867 0.27504 0.22443 0.0
C11 C 0.09158 0.23906 0.26651 0.0
N12 N 0.09264 0.27794 0.27881 0.0
C13 C 0.08789 0.31463 0.2375 0.0
C14 C 0.08863 0.2369 0.23904 0.0
C15 C 0.09088 0.31543 0.265 0.0
C16 C 0.04705 0.35589 0.16586 0.0
N17 N 0.06776 0.33237 0.14718 0.0
C18 C 0.06062 0.38956 0.11592 0.0
C19 C 0.0746 0.34822 0.12247 0.0
C20 C 0.03912 0.41409 0.13496 0.0
C21 C 0.03246 0.39711 0.16016 0.0
H22 H 0.04099 0.34224 0.18508 0.0
H23 H 0.08968 0.32858 0.1076 0.0
C24 C 0.20523 0.20167 0.21092 0.0
N25 N 0.18129 0.23681 0.20457 0.0
C26 C 0.24413 0.2066 0.22454 0.0
C27 C 0.23285 0.28356 0.22471 0.0
C28 C 0.19414 0.27714 0.21143 0.0
C29 C 0.2584 0.24807 0.23137 0.0
H30 H 0.19428 0.16992 0.2053 0.0
H31 H 0.17429 0.3045 0.20646 0.0
C32 C 0.01071 0.25664 0.13227 0.0
N33 N 0.96152 0.30541 0.09812 0.0
C34 C 0.97288 0.27605 0.14112 0.0
C35 C 0.02341 0.26192 0.10601 0.0
C36 C 0.94852 0.30067 0.12357 0.0
C37 C 0.99812 0.28668 0.08906 0.0
C38 C 0.07871 0.13671 0.18432 0.0
C39 C 0.04399 0.12532 0.16832 0.0
C40 C 0.09568 0.10664 0.20196 0.0
C41 C 0.02688 0.08387 0.17019 0.0
C42 C 0.07761 0.06553 0.20329 0.0
N43 N 0.04389 0.05509 0.18749 0.0
C44 C 0.13508 0.15449 0.1068 0.0
C45 C 0.05989 0.15789 0.09983 0.0
C46 C 0.14129 0.1382 0.08136 0.0
N47 N 0.09504 0.16552 0.11509 0.0
C48 C 0.06464 0.14168 0.07426 0.0
C49 C 0.10589 0.13314 0.06454 0.0
H50 H 0.1625 0.16149 0.11918 0.0
H51 H 0.02842 0.16718 0.10678 0.0
C52 C 0.98108 0.25569 0.21388 0.0
N53 N 0.9992 0.21686 0.20838 0.0
C54 C 0.9422 0.25826 0.2274 0.0
C55 C 0.94122 0.18065 0.23019 0.0
C56 C 0.98047 0.17955 0.21657 0.0
C57 C 0.92158 0.22047 0.2354 0.0
H58 H 0.99637 0.28486 0.20706 0.0
H59 H 0.99533 0.14898 0.2122 0.0
O60 O 0.1347 0.24719 0.14701 0.0
O61 O 0.08418 0.27402 0.19745 0.0
O62 O 0.03534 0.23285 0.14924 0.0
O63 O 0.09627 0.17698 0.18279 0.0
H64 H 0.17544 0.31857 0.16086 0.0
H65 H 0.13654 0.24073 0.09481 0.0
H66 H 0.21051 0.36905 0.12972 0.0
H67 H 0.17258 0.29226 0.06487 0.0
H68 H 0.09304 0.2098 0.27805 0.0
H69 H 0.08671 0.34447 0.2265 0.0
H70 H 0.08781 0.20591 0.22941 0.0
H71 H 0.09186 0.34585 0.27536 0.0
H72 H 0.06594 0.40205 0.09623 0.0
H73 H 0.01581 0.41547 0.17518 0.0
H74 H 0.26308 0.17852 0.22949 0.0
H75 H 0.2428 0.31593 0.22978 0.0
H76 H 0.96236 0.27219 0.16129 0.0
H77 H 0.05297 0.24785 0.0989 0.0
H78 H 0.91926 0.316 0.13019 0.0
H79 H 0.00776 0.29126 0.06875 0.0
H80 H 0.03002 0.14832 0.15484 0.0
H81 H 0.12253 0.11503 0.21451 0.0
H82 H 0.99995 0.07464 0.15796 0.0
H83 H 0.09041 0.04193 0.21686 0.0
H84 H 0.17355 0.13208 0.07433 0.0
H85 H 0.03675 0.13825 0.06168 0.0
H86 H 0.92786 0.28945 0.23109 0.0
H87 H 0.92599 0.15087 0.23617 0.0
Li88 Li 0.28999 0.58191 0.64075 0.0
Li89 Li 0.26563 0.61972 0.68107 0.0
Li90 Li 0.27424 0.54096 0.68131 0.0
Li91 Li 0.21568 0.57297 0.6566 0.0
C92 C 0.35959 0.56602 0.67439 0.0
N93 N 0.43846 0.52559 0.67126 0.0
C94 C 0.39388 0.58032 0.68985 0.0
C95 C 0.36543 0.53115 0.65732 0.0
C96 C 0.4335 0.55946 0.68799 0.0
C97 C 0.40553 0.51114 0.65602 0.0
C98 C 0.24 0.66122 0.62941 0.0
C99 C 0.19562 0.71383 0.60751 0.0
N100 N 0.23148 0.73341 0.598 0.0
C101 C 0.27642 0.68194 0.6195 0.0
C102 C 0.19926 0.67727 0.62339 0.0
C103 C 0.27144 0.71835 0.60362 0.0
C104 C 0.29403 0.57611 0.5867 0.0
N105 N 0.31922 0.58632 0.60769 0.0
C106 C 0.37619 0.6078 0.57886 0.0
C107 C 0.35985 0.60152 0.60435 0.0
C108 C 0.35033 0.59823 0.55693 0.0
C109 C 0.30908 0.58167 0.56101 0.0
H110 H 0.26161 0.56486 0.59 0.0
H111 H 0.37896 0.6101 0.62136 0.0
C112 C 0.26095 0.66905 0.7282 0.0
N113 N 0.2684 0.67203 0.70188 0.0
C114 C 0.25961 0.70597 0.744 0.0
C115 C 0.27335 0.74874 0.70552 0.0
C116 C 0.27384 0.71109 0.69036 0.0
C117 C 0.26921 0.74706 0.73334 0.0
H118 H 0.25471 0.6379 0.73693 0.0
H119 H 0.2779 0.71334 0.6693 0.0
C120 C 0.23529 0.49067 0.63986 0.0
N121 N 0.19114 0.4153 0.62982 0.0
C122 C 0.20892 0.47262 0.65925 0.0
C123 C 0.23924 0.47037 0.61538 0.0
C124 C 0.18685 0.43452 0.65379 0.0
C125 C 0.21666 0.43227 0.61069 0.0
C126 C 0.19086 0.59412 0.70757 0.0
C127 C 0.17319 0.57587 0.73032 0.0
C128 C 0.17281 0.6316 0.69707 0.0
C129 C 0.1379 0.59558 0.74229 0.0
C130 C 0.13757 0.65037 0.70964 0.0
N131 N 0.12098 0.63212 0.7318 0.0
C132 C 0.27105 0.48952 0.72708 0.0
C133 C 0.30007 0.45353 0.68988 0.0
C134 C 0.268 0.45066 0.74089 0.0
N135 N 0.28572 0.49009 0.7018 0.0
C136 C 0.29769 0.41395 0.70301 0.0
C137 C 0.28032 0.41223 0.72852 0.0
H138 H 0.25943 0.5189 0.73599 0.0
H139 H 0.31066 0.45454 0.66958 0.0
C140 C 0.14984 0.57113 0.61859 0.0
N141 N 0.1594 0.56323 0.64433 0.0
C142 C 0.10949 0.56024 0.60859 0.0
C143 C 0.09019 0.53309 0.65177 0.0
C144 C 0.13064 0.54455 0.6609 0.0
C145 C 0.07955 0.54071 0.62537 0.0
H146 H 0.17387 0.58506 0.60576 0.0
H147 H 0.1395 0.53726 0.681 0.0
O148 O 0.32069 0.58629 0.67606 0.0
O149 O 0.24405 0.62499 0.64457 0.0
O150 O 0.25658 0.52842 0.64456 0.0
O151 O 0.22511 0.57477 0.69547 0.0
H152 H 0.38988 0.6073 0.70315 0.0
H153 H 0.33943 0.51968 0.64509 0.0
H154 H 0.46031 0.5702 0.69984 0.0
H155 H 0.41049 0.48415 0.64289 0.0
H156 H 0.16428 0.72662 0.60272 0.0
H157 H 0.30821 0.67039 0.6243 0.0
H158 H 0.17071 0.66171 0.63095 0.0
H159 H 0.29935 0.7347 0.59582 0.0
H160 H 0.40807 0.62103 0.57624 0.0
H161 H 0.28829 0.57441 0.54447 0.0
H162 H 0.24946 0.70106 0.76403 0.0
H163 H 0.27526 0.77892 0.695 0.0
H164 H 0.20529 0.48801 0.67827 0.0
H165 H 0.25953 0.48391 0.60016 0.0
H166 H 0.16622 0.42029 0.66858 0.0
H167 H 0.2194 0.41622 0.59183 0.0
H168 H 0.1864 0.54662 0.73857 0.0
H169 H 0.18586 0.64617 0.67948 0.0
H170 H 0.1239 0.58176 0.75989 0.0
H171 H 0.12339 0.67943 0.70176 0.0
H172 H 0.25439 0.45029 0.76056 0.0
H173 H 0.30722 0.38475 0.69291 0.0
H174 H 0.10192 0.5663 0.58807 0.0
H175 H 0.06758 0.51779 0.66505 0.0
Li176 Li 0.87555 0.76298 0.18062 0.0
Li177 Li 0.92341 0.72058 0.15039 0.0
Li178 Li 0.95354 0.77616 0.17745 0.0
Li179 Li 0.91075 0.79445 0.1391 0.0
C180 C 0.94379 0.70969 0.21081 0.0
N181 N 0.9886 0.68271 0.25478 0.0
C182 C 0.97459 0.67718 0.20858 0.0
C183 C 0.93572 0.72848 0.23536 0.0
C184 C 0.99696 0.66403 0.23106 0.0
C185 C 0.95877 0.7144 0.25737 0.0
C186 C 0.84836 0.71329 0.12993 0.0
C187 C 0.84344 0.66546 0.09257 0.0
N188 N 0.81284 0.64231 0.10541 0.0
C189 C 0.81676 0.68913 0.14273 0.0
C190 C 0.86172 0.70152 0.1046 0.0
C191 C 0.79921 0.65333 0.13 0.0
C192 C 0.79219 0.78741 0.19854 0.0
N193 N 0.82462 0.75852 0.2016 0.0
C194 C 0.78152 0.71607 0.23082 0.0
C195 C 0.82011 0.72346 0.21746 0.0
C196 C 0.74734 0.74495 0.22767 0.0
C197 C 0.75299 0.78123 0.21154 0.0
H198 H 0.79641 0.81462 0.18548 0.0
H199 H 0.84603 0.70048 0.2191 0.0
C200 C 0.96703 0.65898 0.12023 0.0
N201 N 0.93542 0.66457 0.13839 0.0
C202 C 0.98243 0.61787 0.11476 0.0
C203 C 0.93134 0.58904 0.14615 0.0
C204 C 0.91672 0.63073 0.15089 0.0
C205 C 0.96541 0.58275 0.12852 0.0
H206 H 0.98199 0.68654 0.11115 0.0
H207 H 0.89226 0.63643 0.16563 0.0
C208 C 0.91876 0.85208 0.19193 0.0
N209 N 0.94504 0.91776 0.22487 0.0
C210 C 0.94911 0.882 0.18322 0.0
C211 C 0.90152 0.85566 0.21729 0.0
C212 C 0.96209 0.91492 0.20022 0.0
C213 C 0.91526 0.88912 0.23367 0.0
C214 C 0.99149 0.78472 0.12255 0.0
C215 C 0.02015 0.81638 0.13118 0.0
C216 C 0.98898 0.77497 0.09565 0.0
C217 C 0.04602 0.83753 0.11278 0.0
C218 C 0.01554 0.79674 0.07789 0.0
N219 N 0.04325 0.82731 0.08674 0.0
C220 C 0.03746 0.75624 0.18869 0.0
C221 C 0.012 0.80725 0.21971 0.0
C222 C 0.07628 0.75247 0.20217 0.0
N223 N 0.00608 0.7831 0.19757 0.0
C224 C 0.05085 0.80496 0.23365 0.0
C225 C 0.08327 0.77682 0.22501 0.0
H226 H 0.03172 0.73655 0.17145 0.0
H227 H 0.98641 0.82725 0.22709 0.0
C228 C 0.86876 0.81723 0.09248 0.0
N229 N 0.90121 0.8302 0.10857 0.0
C230 C 0.86427 0.83474 0.06731 0.0
C231 C 0.92486 0.8811 0.07615 0.0
C232 C 0.92809 0.86272 0.10133 0.0
C233 C 0.89328 0.86611 0.05869 0.0
H234 H 0.84731 0.79195 0.09873 0.0
H235 H 0.95342 0.87285 0.11448 0.0
O236 O 0.92181 0.72328 0.18901 0.0
O237 O 0.86659 0.74793 0.14227 0.0
O238 O 0.90517 0.82004 0.1755 0.0
O239 O 0.96624 0.76318 0.14031 0.0
H240 H 0.98141 0.66254 0.18967 0.0
H241 H 0.91213 0.75386 0.23733 0.0
H242 H 0.02102 0.63903 0.22963 0.0
H243 H 0.95301 0.72873 0.2765 0.0
H244 H 0.85369 0.65579 0.07305 0.0
H245 H 0.80599 0.69777 0.1623 0.0
H246 H 0.88642 0.71967 0.09451 0.0
H247 H 0.77482 0.63426 0.1397 0.0
H248 H 0.77804 0.68769 0.24305 0.0
H249 H 0.7271 0.80403 0.20869 0.0
H250 H 0.00908 0.61376 0.10126 0.0
H251 H 0.91798 0.56235 0.15718 0.0
H252 H 0.96251 0.87976 0.16358 0.0
H253 H 0.87782 0.83283 0.22423 0.0
H254 H 0.98569 0.93823 0.1938 0.0
H255 H 0.9023 0.89228 0.25337 0.0
H256 H 0.02222 0.82489 0.15181 0.0
H257 H 0.96644 0.75119 0.0885 0.0
H258 H 0.06827 0.86213 0.11919 0.0
H259 H 0.01409 0.78938 0.05705 0.0
H260 H 0.10047 0.73027 0.19505 0.0
H261 H 0.05517 0.82402 0.25134 0.0
H262 H 0.83944 0.82273 0.05429 0.0
H263 H 0.9477 0.90539 0.06999 0.0
Li264 Li 0.72421 0.46114 0.68 0.0
Li265 Li 0.77952 0.4286 0.65284 0.0
Li266 Li 0.70718 0.42149 0.63914 0.0
Li267 Li 0.73452 0.37869 0.67759 0.0
C268 C 0.75681 0.51584 0.64227 0.0
N269 N 0.79093 0.59799 0.64142 0.0
C270 C 0.79139 0.52642 0.65858 0.0
C271 C 0.73953 0.54716 0.62554 0.0
C272 C 0.80822 0.56805 0.65785 0.0
C273 C 0.75723 0.58848 0.6254 0.0
C274 C 0.80964 0.41957 0.70645 0.0
C275 C 0.86459 0.37449 0.7256 0.0
N276 N 0.88279 0.4098 0.73683 0.0
C277 C 0.82887 0.45536 0.71834 0.0
C278 C 0.82765 0.37876 0.71021 0.0
C279 C 0.86586 0.44977 0.73352 0.0
C280 C 0.72899 0.50964 0.72738 0.0
N281 N 0.71326 0.51003 0.70234 0.0
C282 C 0.6994 0.58567 0.70527 0.0
C283 C 0.69694 0.54669 0.69157 0.0
C284 C 0.71828 0.58661 0.73037 0.0
C285 C 0.7319 0.54789 0.74185 0.0
H286 H 0.74162 0.48009 0.73555 0.0
H287 H 0.68443 0.54625 0.67169 0.0
C288 C 0.83682 0.46105 0.61515 0.0
N289 N 0.83545 0.43939 0.6385 0.0
C290 C 0.87568 0.47702 0.60557 0.0
C291 C 0.91133 0.44536 0.64323 0.0
C292 C 0.87197 0.42963 0.65188 0.0
C293 C 0.91299 0.47071 0.62045 0.0
H294 H 0.80738 0.46768 0.6046 0.0
H295 H 0.8707 0.41102 0.66971 0.0
C296 C 0.63734 0.41608 0.66997 0.0
N297 N 0.55103 0.41911 0.65774 0.0
C298 C 0.61207 0.37915 0.67239 0.0
C299 C 0.61879 0.45459 0.66144 0.0
C300 C 0.56846 0.38134 0.6661 0.0
C301 C 0.57508 0.45544 0.65531 0.0
C302 C 0.78268 0.36009 0.62413 0.0
C303 C 0.78338 0.37051 0.59732 0.0
C304 C 0.81573 0.33523 0.63488 0.0
C305 C 0.81749 0.35622 0.58171 0.0
C306 C 0.84928 0.32157 0.61862 0.0
N307 N 0.84948 0.3323 0.5926 0.0
C308 C 0.68331 0.44865 0.5889 0.0
C309 C 0.64238 0.38944 0.60348 0.0
C310 C 0.66253 0.44823 0.56451 0.0
N311 N 0.67242 0.42015 0.60801 0.0
C312 C 0.6206 0.38797 0.57933 0.0
C313 C 0.62846 0.41921 0.55946 0.0
H314 H 0.70969 0.47057 0.59214 0.0
H315 H 0.63644 0.365 0.61821 0.0
C316 C 0.73462 0.32481 0.72324 0.0
N317 N 0.73376 0.32513 0.69639 0.0
C318 C 0.74128 0.28621 0.73689 0.0
C319 C 0.74418 0.24882 0.69509 0.0
C320 C 0.73761 0.2881 0.68224 0.0
C321 C 0.74685 0.24784 0.7227 0.0
H322 H 0.73209 0.3548 0.73398 0.0
H323 H 0.73715 0.2893 0.66092 0.0
O324 O 0.73927 0.4754 0.64296 0.0
O325 O 0.77289 0.42427 0.69184 0.0
O326 O 0.68013 0.41452 0.67578 0.0
O327 O 0.75032 0.37499 0.6399 0.0
H328 H 0.80516 0.50268 0.67156 0.0
H329 H 0.71237 0.53984 0.61303 0.0
H330 H 0.83506 0.57655 0.67034 0.0
H331 H 0.74407 0.61303 0.61261 0.0
H332 H 0.87888 0.34312 0.72852 0.0
H333 H 0.8155 0.48722 0.71596 0.0
H334 H 0.81386 0.35069 0.70099 0.0
H335 H 0.88105 0.47723 0.74274 0.0
H336 H 0.68852 0.61507 0.69594 0.0
H337 H 0.74654 0.54765 0.76123 0.0
H338 H 0.87628 0.49613 0.5877 0.0
H339 H 0.93994 0.43938 0.65482 0.0
H340 H 0.62608 0.3491 0.67895 0.0
H341 H 0.63805 0.48335 0.65932 0.0
H342 H 0.54848 0.353 0.66781 0.0
H343 H 0.56028 0.48497 0.64857 0.0
H344 H 0.75812 0.38984 0.58872 0.0
H345 H 0.81573 0.32696 0.6556 0.0
H346 H 0.81861 0.36428 0.56096 0.0
H347 H 0.87522 0.30256 0.6267 0.0
H348 H 0.67524 0.46949 0.54964 0.0
H349 H 0.59958 0.36088 0.57636 0.0
H350 H 0.74322 0.2864 0.75823 0.0
H351 H 0.74835 0.2197 0.68363 0.0
Li352 Li 0.5492 0.27638 0.33485 0.0
Li353 Li 0.59107 0.29578 0.37337 0.0
Li354 Li 0.62749 0.26392 0.33251 0.0
Li355 Li 0.57943 0.22175 0.3626 0.0
C356 C 0.58443 0.35145 0.31913 0.0
N357 N 0.56015 0.41445 0.28371 0.0
C358 C 0.55368 0.38206 0.32628 0.0
C359 C 0.60305 0.35298 0.29406 0.0
C360 C 0.54175 0.4136 0.30805 0.0
C361 C 0.5903 0.38508 0.27642 0.0
C362 C 0.51031 0.28626 0.38925 0.0
C363 C 0.48547 0.30006 0.43355 0.0
N364 N 0.45828 0.33062 0.42409 0.0
C365 C 0.48218 0.31792 0.37999 0.0
C366 C 0.51216 0.2774 0.41628 0.0
C367 C 0.45616 0.33997 0.39791 0.0
C368 C 0.4654 0.2559 0.32336 0.0
N369 N 0.49694 0.28239 0.31428 0.0
C370 C 0.45262 0.30306 0.27772 0.0
C371 C 0.49134 0.30571 0.29177 0.0
C372 C 0.41998 0.27539 0.28662 0.0
C373 C 0.42669 0.25179 0.30979 0.0
H374 H 0.47089 0.23682 0.34088 0.0
H375 H 0.51708 0.32535 0.28422 0.0
C376 C 0.6285 0.32025 0.4216 0.0
N377 N 0.59876 0.33282 0.40351 0.0
C378 C 0.63058 0.34018 0.44626 0.0
C379 C 0.57301 0.38746 0.43283 0.0
C380 C 0.57226 0.36679 0.40829 0.0
C381 C 0.60182 0.37338 0.45227 0.0
H382 H 0.64962 0.29363 0.4173 0.0
H383 H 0.54905 0.37645 0.39362 0.0
C384 C 0.56061 0.20996 0.3019 0.0
N385 N 0.51719 0.18294 0.25741 0.0
C386 C 0.52955 0.17765 0.3038 0.0
C387 C 0.56965 0.22851 0.27741 0.0
C388 C 0.50789 0.16447 0.28106 0.0
C389 C 0.54731 0.21442 0.25514 0.0
C390 C 0.65396 0.2153 0.38366 0.0
C391 C 0.68614 0.19137 0.37125 0.0
C392 C 0.63981 0.20335 0.4088 0.0
C393 C 0.70345 0.15563 0.38415 0.0
C394 C 0.65787 0.16735 0.42102 0.0
N395 N 0.68905 0.14442 0.40854 0.0
C396 C 0.71065 0.28899 0.31425 0.0
C397 C 0.68383 0.22357 0.29665 0.0
C398 C 0.7499 0.28284 0.3013 0.0
N399 N 0.67873 0.25937 0.31181 0.0
C400 C 0.72248 0.21618 0.28338 0.0
C401 C 0.75613 0.24584 0.28587 0.0
H402 H 0.70596 0.31683 0.32674 0.0
H403 H 0.65831 0.20007 0.2955 0.0
C404 C 0.53636 0.16001 0.39307 0.0
N405 N 0.56763 0.16578 0.37471 0.0
C406 C 0.52104 0.11883 0.39847 0.0
C407 C 0.57155 0.09034 0.3666 0.0
C408 C 0.58612 0.13207 0.36197 0.0
C409 C 0.53776 0.08386 0.38441 0.0
H410 H 0.52161 0.18749 0.40238 0.0
H411 H 0.61035 0.13793 0.3471 0.0
O412 O 0.59705 0.32076 0.3368 0.0
O413 O 0.53586 0.26401 0.37199 0.0
O414 O 0.58177 0.22369 0.32397 0.0
O415 O 0.63589 0.24983 0.3711 0.0
H416 H 0.53911 0.38137 0.34564 0.0
H417 H 0.62707 0.32962 0.28831 0.0
H418 H 0.51787 0.43742 0.31326 0.0
H419 H 0.60435 0.38663 0.25692 0.0
H420 H 0.48642 0.2934 0.45449 0.0
H421 H 0.48069 0.32582 0.35925 0.0
H422 H 0.5343 0.25365 0.42392 0.0
H423 H 0.43433 0.3646 0.39101 0.0
H424 H 0.44854 0.32151 0.25977 0.0
H425 H 0.40235 0.22995 0.31712 0.0
H426 H 0.65325 0.32873 0.46086 0.0
H427 H 0.5504 0.41308 0.43693 0.0
H428 H 0.52195 0.16319 0.32266 0.0
H429 H 0.59346 0.25373 0.27568 0.0
H430 H 0.48363 0.13964 0.28223 0.0
H431 H 0.55384 0.22858 0.23605 0.0
H432 H 0.69754 0.20016 0.35184 0.0
H433 H 0.61459 0.22125 0.41858 0.0
H434 H 0.72829 0.13674 0.37474 0.0
H435 H 0.64699 0.15753 0.44037 0.0
H436 H 0.77537 0.30626 0.30362 0.0
H437 H 0.72642 0.18725 0.2717 0.0
H438 H 0.49465 0.11457 0.41214 0.0
H439 H 0.58471 0.06378 0.35536 0.0
Li440 Li 0.23499 0.1238 0.83161 0.0
Li441 Li 0.20839 0.08347 0.87177 0.0
Li442 Li 0.28064 0.07956 0.85887 0.0
Li443 Li 0.23028 0.0407 0.83232 0.0
C444 C 0.28089 0.15295 0.88285 0.0
N445 N 0.34615 0.19359 0.91012 0.0
C446 C 0.2854 0.14668 0.91002 0.0
C447 C 0.30952 0.18001 0.86958 0.0
C448 C 0.31863 0.16745 0.92344 0.0
C449 C 0.34229 0.20026 0.88371 0.0
C450 C 0.1419 0.10145 0.83432 0.0
C451 C 0.06565 0.09303 0.828 0.0
N452 N 0.06009 0.13567 0.83306 0.0
C453 C 0.13548 0.14517 0.8394 0.0
C454 C 0.10679 0.07514 0.82848 0.0
C455 C 0.09386 0.16187 0.83868 0.0
C456 C 0.23594 0.17345 0.78386 0.0
N457 N 0.23252 0.17548 0.81061 0.0
C458 C 0.23805 0.25234 0.80945 0.0
C459 C 0.23243 0.21399 0.82343 0.0
C460 C 0.24354 0.251 0.78203 0.0
C461 C 0.24156 0.21114 0.76906 0.0
H462 H 0.23636 0.14244 0.77416 0.0
H463 H 0.22967 0.21481 0.8447 0.0
C464 C 0.19609 0.06801 0.92485 0.0
N465 N 0.17541 0.08624 0.90399 0.0
C466 C 0.18034 0.07282 0.95043 0.0
C467 C 0.12111 0.11399 0.93284 0.0
C468 C 0.13806 0.10831 0.90744 0.0
C469 C 0.14303 0.09687 0.95466 0.0
H470 H 0.22622 0.0515 0.9218 0.0
H471 H 0.12229 0.12302 0.89079 0.0
C472 C 0.31699 0.08075 0.80935 0.0
N473 N 0.39883 0.08285 0.78821 0.0
C474 C 0.34136 0.04305 0.80767 0.0
C475 C 0.33427 0.11949 0.80012 0.0
C476 C 0.38267 0.04479 0.79698 0.0
C477 C 0.37567 0.11989 0.78954 0.0
C478 C 0.22005 0.99625 0.87784 0.0
C479 C 0.23981 0.96076 0.88971 0.0
C480 C 0.17568 0.99572 0.87369 0.0
C481 C 0.21485 0.92551 0.8973 0.0
C482 C 0.15183 0.95991 0.8816 0.0
N483 N 0.17174 0.92583 0.89314 0.0
C484 C 0.34115 0.04042 0.89102 0.0
C485 C 0.37184 0.09341 0.86313 0.0
C486 C 0.38168 0.02506 0.89778 0.0
N487 N 0.33697 0.07241 0.87289 0.0
C488 C 0.41298 0.07897 0.8692 0.0
C489 C 0.41778 0.0432 0.88574 0.0
H490 H 0.31296 0.02512 0.89906 0.0
H491 H 0.36788 0.1195 0.84933 0.0
C492 C 0.19994 0.97783 0.79246 0.0
N493 N 0.22699 0.98768 0.81271 0.0
C494 C 0.20415 0.93833 0.77909 0.0
C495 C 0.26331 0.9203 0.80785 0.0
C496 C 0.25782 0.95954 0.82064 0.0
C497 C 0.23667 0.90943 0.78666 0.0
H498 H 0.17572 1.00075 0.78643 0.0
H499 H 0.27896 0.96804 0.83672 0.0
O500 O 0.24883 0.1325 0.8693 0.0
O501 O 0.18241 0.08449 0.83455 0.0
O502 O 0.2763 0.07972 0.81958 0.0
O503 O 0.24439 0.03074 0.86993 0.0
H504 H 0.26362 0.12593 0.92064 0.0
H505 H 0.30707 0.18468 0.8485 0.0
H506 H 0.32255 0.16278 0.94446 0.0
H507 H 0.36482 0.22104 0.87364 0.0
H508 H 0.03815 0.07304 0.82357 0.0
H509 H 0.1622 0.16583 0.84429 0.0
H510 H 0.1113 0.04125 0.82433 0.0
H511 H 0.08838 0.19563 0.8427 0.0
H512 H 0.23931 0.28266 0.81998 0.0
H513 H 0.24572 0.20915 0.74788 0.0
H514 H 0.19815 0.05955 0.96688 0.0
H515 H 0.09229 0.13297 0.93557 0.0
H516 H 0.32885 0.01283 0.81477 0.0
H517 H 0.31632 0.14913 0.80152 0.0
H518 H 0.40191 0.01588 0.79569 0.0
H519 H 0.38947 0.1497 0.78249 0.0
H520 H 0.27415 0.96017 0.8928 0.0
H521 H 0.15963 0.02264 0.8646 0.0
H522 H 0.22979 0.89785 0.90645 0.0
H523 H 0.11747 0.95922 0.87855 0.0
H524 H 0.38468 0.99743 0.91069 0.0
H525 H 0.44053 0.09356 0.85971 0.0
H526 H 0.18301 0.93079 0.76278 0.0
H527 H 0.28865 0.89878 0.81421 0.0
Li528 Li 0.45279 0.72383 0.32601 0.0
Li529 Li 0.41138 0.70366 0.36706 0.0
Li530 Li 0.37408 0.73512 0.32717 0.0
Li531 Li 0.42215 0.77669 0.35355 0.0
C532 C 0.42295 0.63781 0.3286 0.0
N533 N 0.45697 0.55577 0.32621 0.0
C534 C 0.4573 0.62636 0.34489 0.0
C535 C 0.40593 0.60757 0.31109 0.0
C536 C 0.47402 0.5847 0.34341 0.0
C537 C 0.42359 0.56626 0.31016 0.0
C538 C 0.49141 0.75732 0.38052 0.0
C539 C 0.50443 0.78687 0.42381 0.0
N540 N 0.54092 0.80573 0.41469 0.0
C541 C 0.52915 0.77685 0.37161 0.0
C542 C 0.47897 0.76229 0.40685 0.0
C543 C 0.55367 0.80128 0.38917 0.0
C544 C 0.52182 0.75574 0.2988 0.0
N545 N 0.50371 0.71704 0.30466 0.0
C546 C 0.56207 0.68031 0.28357 0.0
C547 C 0.52265 0.67953 0.29702 0.0
C548 C 0.58167 0.72001 0.27795 0.0
C549 C 0.56084 0.75799 0.28542 0.0
H550 H 0.50641 0.78509 0.30524 0.0
H551 H 0.50782 0.64907 0.30168 0.0
C552 C 0.36441 0.65759 0.40531 0.0
N553 N 0.40499 0.6674 0.39744 0.0
C554 C 0.35701 0.64139 0.43064 0.0
C555 C 0.43354 0.64242 0.43851 0.0
C556 C 0.43948 0.65868 0.41304 0.0
C557 C 0.39179 0.63506 0.44777 0.0
H558 H 0.33756 0.66543 0.39266 0.0
H559 H 0.4714 0.66709 0.40644 0.0
C560 C 0.41686 0.77561 0.28781 0.0
N561 N 0.4115 0.77763 0.23338 0.0
C562 C 0.41578 0.81498 0.27449 0.0
C563 C 0.41511 0.73723 0.27341 0.0
C564 C 0.41308 0.81533 0.24697 0.0
C565 C 0.41246 0.73895 0.24592 0.0
C566 C 0.34868 0.77853 0.38162 0.0
C567 C 0.32865 0.81516 0.3714 0.0
C568 C 0.34884 0.7716 0.40889 0.0
C569 C 0.30931 0.84441 0.38865 0.0
C570 C 0.32904 0.80153 0.42548 0.0
N571 N 0.30988 0.83703 0.4151 0.0
C572 C 0.29752 0.70344 0.30123 0.0
C573 C 0.3092 0.77881 0.30012 0.0
C574 C 0.25872 0.70837 0.28751 0.0
N575 N 0.32169 0.73853 0.30734 0.0
C576 C 0.2706 0.78523 0.28671 0.0
C577 C 0.2448 0.74979 0.28033 0.0
H578 H 0.30818 0.67175 0.30716 0.0
H579 H 0.32921 0.80612 0.30492 0.0
C580 C 0.45556 0.85738 0.34633 0.0
N581 N 0.4353 0.83361 0.36507 0.0
C582 C 0.4702 0.89856 0.35209 0.0
C583 C 0.44312 0.8904 0.39655 0.0
C584 C 0.42901 0.84914 0.38991 0.0
C585 C 0.46412 0.9152 0.37744 0.0
H586 H 0.46121 0.84398 0.32699 0.0
H587 H 0.41428 0.8293 0.40481 0.0
O588 O 0.40573 0.67826 0.32978 0.0
O589 O 0.46665 0.73368 0.36355 0.0
O590 O 0.41903 0.77504 0.31481 0.0
O591 O 0.36745 0.7493 0.36503 0.0
H592 H 0.4713 0.64945 0.35829 0.0
H593 H 0.37933 0.61599 0.29834 0.0
H594 H 0.50067 0.57543 0.35585 0.0
H595 H 0.41074 0.54253 0.29668 0.0
H596 H 0.49499 0.79122 0.44418 0.0
H597 H 0.53944 0.77325 0.35139 0.0
H598 H 0.44948 0.74815 0.41401 0.0
H599 H 0.58284 0.81672 0.3825 0.0
H600 H 0.57745 0.65039 0.27802 0.0
H601 H 0.57514 0.7891 0.28141 0.0
H602 H 0.3244 0.63618 0.43733 0.0
H603 H 0.46097 0.63798 0.45136 0.0
H604 H 0.4168 0.845 0.28531 0.0
H605 H 0.41584 0.7064 0.28323 0.0
H606 H 0.41218 0.84559 0.23643 0.0
H607 H 0.41114 0.7095 0.23456 0.0
H608 H 0.32843 0.82123 0.35043 0.0
H609 H 0.36457 0.74381 0.41727 0.0
H610 H 0.2939 0.87301 0.381 0.0
H611 H 0.3291 0.79663 0.44661 0.0
H612 H 0.23956 0.68033 0.28279 0.0
H613 H 0.2609 0.81757 0.28137 0.0
H614 H 0.48649 0.91715 0.33702 0.0
H615 H 0.43826 0.90261 0.41634 0.0
Li616 Li 0.78215 0.96239 0.82762 0.0
Li617 Li 0.7225 0.92851 0.8534 0.0
Li618 Li 0.79569 0.91506 0.86602 0.0
Li619 Li 0.76702 0.88098 0.82754 0.0
C620 C 0.77819 0.99197 0.88647 0.0
N621 N 0.80573 0.03242 0.93191 0.0
C622 C 0.75457 0.98799 0.90978 0.0
C623 C 0.81574 0.01656 0.88621 0.0
C624 C 0.76908 0.00865 0.93257 0.0
C625 C 0.82916 0.03675 0.90941 0.0
C626 C 0.69086 0.94038 0.80565 0.0
C627 C 0.61589 0.92345 0.79968 0.0
N628 N 0.60939 0.96319 0.78916 0.0
C629 C 0.68344 0.98097 0.79463 0.0
C630 C 0.6568 0.91135 0.80816 0.0
C631 C 0.64202 0.99193 0.78649 0.0
C632 C 0.80513 0.01476 0.78268 0.0
N633 N 0.7919 0.01443 0.80828 0.0
C634 C 0.77354 0.08914 0.806 0.0
C635 C 0.77699 0.05078 0.82015 0.0
C636 C 0.78536 0.09006 0.77936 0.0
C637 C 0.80227 0.05268 0.76774 0.0
H638 H 0.81568 0.98517 0.77349 0.0
H639 H 0.76532 0.04942 0.8402 0.0
C640 C 0.64124 0.91532 0.87847 0.0
N641 N 0.66783 0.94342 0.866 0.0
C642 C 0.59999 0.92833 0.88573 0.0
C643 C 0.6154 0.9991 0.86804 0.0
C644 C 0.65627 0.98489 0.86136 0.0
C645 C 0.58669 0.97038 0.87987 0.0
H646 H 0.65175 0.88278 0.88232 0.0
H647 H 0.67856 0.00652 0.85176 0.0
C648 C 0.86638 0.91301 0.83597 0.0
N649 N 0.95295 0.91366 0.84763 0.0
C650 C 0.88642 0.87564 0.84512 0.0
C651 C 0.89032 0.95065 0.83261 0.0
C652 C 0.93024 0.87666 0.85097 0.0
C653 C 0.93409 0.95033 0.83864 0.0
C654 C 0.74359 0.83037 0.86669 0.0
C655 C 0.77791 0.80563 0.87597 0.0
C656 C 0.70537 0.81014 0.85931 0.0
C657 C 0.77337 0.76098 0.87769 0.0
C658 C 0.70206 0.76543 0.8614 0.0
N659 N 0.73586 0.74197 0.87044 0.0
C660 C 0.80316 0.89077 0.91814 0.0
C661 C 0.86719 0.92479 0.90394 0.0
C662 C 0.81914 0.88685 0.94368 0.0
N663 N 0.82726 0.909 0.89872 0.0
C664 C 0.88461 0.92134 0.92937 0.0
C665 C 0.86024 0.90218 0.94947 0.0
H666 H 0.77088 0.88008 0.91396 0.0
H667 H 0.88511 0.94109 0.88872 0.0
C668 C 0.73286 0.82563 0.78804 0.0
N669 N 0.76481 0.82935 0.80621 0.0
C670 C 0.72605 0.7867 0.77486 0.0
C671 C 0.78635 0.75641 0.79835 0.0
C672 C 0.79211 0.79603 0.81103 0.0
C673 C 0.7525 0.75136 0.78037 0.0
H674 H 0.712 0.85258 0.78414 0.0
H675 H 0.81746 0.79969 0.82538 0.0
O676 O 0.76493 0.97141 0.86408 0.0
O677 O 0.73114 0.92925 0.81407 0.0
O678 O 0.82371 0.91259 0.82979 0.0
O679 O 0.74743 0.87415 0.86477 0.0
H680 H 0.72554 0.96885 0.91029 0.0
H681 H 0.8345 0.01967 0.86832 0.0
H682 H 0.75128 0.00571 0.95081 0.0
H683 H 0.85825 0.05575 0.90955 0.0
H684 H 0.58929 0.90129 0.80154 0.0
H685 H 0.70927 0.00385 0.79242 0.0
H686 H 0.6618 0.87996 0.81685 0.0
H687 H 0.63585 0.02329 0.77802 0.0
H688 H 0.76003 0.11737 0.81541 0.0
H689 H 0.8113 0.05241 0.74711 0.0
H690 H 0.57824 0.90563 0.89491 0.0
H691 H 0.60582 0.03174 0.86335 0.0
H692 H 0.8683 0.84629 0.84786 0.0
H693 H 0.87524 0.97978 0.82546 0.0
H694 H 0.94617 0.84806 0.85819 0.0
H695 H 0.95304 0.97923 0.8362 0.0
H696 H 0.80793 0.82063 0.88145 0.0
H697 H 0.6786 0.82869 0.85191 0.0
H698 H 0.79973 0.74143 0.88471 0.0
H699 H 0.67265 0.74937 0.85579 0.0
H700 H 0.79944 0.87229 0.95888 0.0
H701 H 0.91633 0.93395 0.93341 0.0
H702 H 0.69987 0.78388 0.7609 0.0
H703 H 0.80747 0.72973 0.80291 0.0
C704 C 0.12782 0.15765 0.01937 0.0
C705 C 0.11257 0.12416 0.03598 0.0
C706 C 0.10982 0.07517 0.99798 0.0
C707 C 0.12973 0.10718 0.98217 0.0
N708 N 0.16346 0.1769 0.97858 0.0
N709 N 0.09251 0.04996 0.04211 0.0
C710 C 0.14013 0.14799 0.99303 0.0
C711 C 0.10428 0.08261 0.02553 0.0
N712 N 0.12954 0.199 0.0286 0.0
N713 N 0.09557 0.03802 0.98649 0.0
H714 H 0.08767 0.05448 0.06229 0.0
H715 H 0.09047 0.01789 0.03631 0.0
H716 H 0.09932 0.03164 0.9664 0.0
H717 H 0.07702 0.01517 0.99627 0.0
H718 H 0.13588 0.22548 0.01662 0.0
H719 H 0.12078 0.2075 0.04777 0.0
H720 H 0.17646 0.20494 0.98651 0.0
H721 H 0.17291 0.17138 0.95913 0.0
C722 C 0.35886 0.65049 0.51951 0.0
C723 C 0.36474 0.60829 0.52963 0.0
C724 C 0.38824 0.58315 0.48598 0.0
C725 C 0.38405 0.62573 0.47618 0.0
N726 N 0.37352 0.70149 0.48442 0.0
N727 N 0.39129 0.53605 0.52424 0.0
C728 C 0.3718 0.65989 0.49323 0.0
C729 C 0.3814 0.57507 0.51336 0.0
N730 N 0.33944 0.6812 0.53474 0.0
N731 N 0.39738 0.5503 0.46893 0.0
H732 H 0.38622 0.52907 0.54414 0.0
H733 H 0.40751 0.51178 0.5142 0.0
H734 H 0.40332 0.55527 0.4489 0.0
H735 H 0.39631 0.51792 0.47414 0.0
H736 H 0.32941 0.71091 0.52751 0.0
H737 H 0.33047 0.676 0.55431 0.0
H738 H 0.36959 0.72813 0.49664 0.0
H739 H 0.38247 0.70973 0.46524 0.0
C740 C 0.86969 0.91814 0.02343 0.0
C741 C 0.8921 0.88018 0.03065 0.0
C742 C 0.89984 0.86013 0.98404 0.0
C743 C 0.87686 0.89773 0.97683 0.0
N744 N 0.84815 0.96708 0.98843 0.0
N745 N 0.93668 0.82008 0.01837 0.0
C746 C 0.86458 0.92832 0.99621 0.0
C747 C 0.90994 0.85287 0.01105 0.0
N748 N 0.8517 0.94332 0.04259 0.0
N749 N 0.91024 0.83043 0.96517 0.0
H750 H 0.94407 0.81348 0.03802 0.0
H751 H 0.95425 0.8016 1.00507 0.0
H752 H 0.90481 0.83545 0.94509 0.0
H753 H 0.92212 0.7999 0.96939 0.0
H754 H 0.83075 0.96863 0.03872 0.0
H755 H 0.85589 0.9374 0.06269 0.0
H756 H 0.84201 0.99248 1.00127 0.0
H757 H 0.844 0.97519 0.96862 0.0
C758 C 0.61867 0.43143 0.48548 0.0
C759 C 0.59986 0.39101 0.4795 0.0
C760 C 0.57748 0.38436 0.52566 0.0
C761 C 0.60662 0.41752 0.53247 0.0
N762 N 0.62109 0.48938 0.51726 0.0
N763 N 0.55736 0.33016 0.49378 0.0
C764 C 0.6177 0.44651 0.51194 0.0
C765 C 0.57767 0.36795 0.49952 0.0
N766 N 0.63869 0.45476 0.46627 0.0
N767 N 0.54537 0.37364 0.54271 0.0
H768 H 0.55552 0.3177 0.47471 0.0
H769 H 0.54465 0.31013 0.50832 0.0
H770 H 0.54043 0.39096 0.56012 0.0
H771 H 0.5207 0.35238 0.5379 0.0
H772 H 0.65668 0.48225 0.47037 0.0
H773 H 0.63964 0.44502 0.44657 0.0
H774 H 0.62528 0.51266 0.50268 0.0
H775 H 0.6139 0.50161 0.53595 0.0
C776 C 0.30008 0.27126 0.27156 0.0
C777 C 0.3 0.25476 0.24543 0.0
C778 C 0.37868 0.2497 0.24665 0.0
C779 C 0.37892 0.27013 0.27174 0.0
N780 N 0.34019 0.30824 0.30569 0.0
N781 N 0.33967 0.23634 0.20611 0.0
C782 C 0.33966 0.28322 0.2835 0.0
C783 C 0.33946 0.24625 0.23239 0.0
N784 N 0.26248 0.27409 0.28537 0.0
N785 N 0.41555 0.23204 0.23684 0.0
H786 H 0.31174 0.23397 0.19487 0.0
H787 H 0.36767 0.23439 0.19494 0.0
H788 H 0.44487 0.23359 0.24667 0.0
H789 H 0.41628 0.21259 0.2201 0.0
H790 H 0.26111 0.28162 0.30537 0.0
H791 H 0.23292 0.2649 0.27751 0.0
H792 H 0.31277 0.32242 0.31361 0.0
H793 H 0.36854 0.31833 0.31472 0.0
C794 C 0.2551 0.79011 0.77627 0.0
C795 C 0.27034 0.78842 0.74988 0.0
C796 C 0.26948 0.86774 0.74903 0.0
C797 C 0.24475 0.86801 0.77259 0.0
N798 N 0.21162 0.82811 0.80803 0.0
N799 N 0.31988 0.82741 0.72243 0.0
C800 C 0.23654 0.82872 0.78588 0.0
C801 C 0.28542 0.8279 0.73907 0.0
N802 N 0.2669 0.75908 0.79381 0.0
N803 N 0.27797 0.90541 0.73616 0.0
H804 H 0.3366 0.79904 0.71838 0.0
H805 H 0.3353 0.85509 0.71577 0.0
H806 H 0.26848 0.9354 0.74332 0.0
H807 H 0.29168 0.90651 0.71741 0.0
H808 H 0.25932 0.76053 0.81384 0.0
H809 H 0.29084 0.73679 0.78921 0.0
H810 H 0.20232 0.79945 0.81712 0.0
H811 H 0.19731 0.85576 0.81575 0.0
C812 C 0.62911 0.71656 0.23763 0.0
C813 C 0.62479 0.72256 0.26527 0.0
C814 C 0.70032 0.74487 0.26812 0.0
C815 C 0.70529 0.73656 0.24075 0.0
N816 N 0.67708 0.70695 0.20035 0.0
N817 N 0.65772 0.73435 0.30768 0.0
C818 C 0.67042 0.72014 0.22576 0.0
C819 C 0.66091 0.73429 0.28077 0.0
N820 N 0.59347 0.70907 0.22257 0.0
N821 N 0.73279 0.7643 0.28182 0.0
H822 H 0.6294 0.72666 0.31762 0.0
H823 H 0.6839 0.73823 0.32021 0.0
H824 H 0.76221 0.77224 0.27328 0.0
H825 H 0.72947 0.77567 0.30103 0.0
H826 H 0.5937 0.70939 0.20203 0.0
H827 H 0.56282 0.70563 0.23058 0.0
H828 H 0.65425 0.69041 0.1893 0.0
H829 H 0.70678 0.70931 0.19094 0.0
C830 C 0.79983 0.19869 0.74503 0.0
C831 C 0.75708 0.20687 0.73663 0.0
C832 C 0.73475 0.13587 0.75292 0.0
C833 C 0.77654 0.12935 0.7634 0.0
N834 N 0.8478 0.15575 0.77214 0.0
N835 N 0.68261 0.18617 0.73511 0.0
C836 C 0.80886 0.16107 0.76014 0.0
C837 C 0.72419 0.17617 0.7412 0.0
N838 N 0.83196 0.22637 0.73794 0.0
N839 N 0.7054 0.10315 0.75377 0.0
H840 H 0.67378 0.21512 0.7262 0.0
H841 H 0.65643 0.16739 0.74061 0.0
H842 H 0.71173 0.07346 0.76255 0.0
H843 H 0.676 0.10401 0.74404 0.0
H844 H 0.8644 0.22002 0.74091 0.0
H845 H 0.82651 0.25452 0.72723 0.0
H846 H 0.87105 0.17974 0.7732 0.0
H847 H 0.85593 0.12805 0.78266 0.0
C848 C 0.8335 0.22251 0.28799 0.0
C849 C 0.79822 0.23754 0.27282 0.0
C850 C 0.84216 0.2337 0.23266 0.0
C851 C 0.8786 0.22328 0.24823 0.0
N852 N 0.91062 0.21258 0.29101 0.0
N853 N 0.76983 0.26259 0.23133 0.0
C854 C 0.87471 0.2188 0.276 0.0
C855 C 0.80274 0.2444 0.24527 0.0
N856 N 0.82734 0.21072 0.31371 0.0
N857 N 0.84506 0.23239 0.20575 0.0
H858 H 0.7404 0.2706 0.23984 0.0
H859 H 0.77274 0.27291 0.21187 0.0
H860 H 0.87339 0.22465 0.19584 0.0
H861 H 0.81869 0.23522 0.19325 0.0
H862 H 0.85054 0.19517 0.325 0.0
H863 H 0.79773 0.21324 0.32321 0.0
H864 H 0.91067 0.21407 0.31154 0.0
H865 H 0.9412 0.20899 0.28292 0.0
C866 C 0.30448 0.34844 0.75545 0.0
C867 C 0.27149 0.37001 0.7414 0.0
C868 C 0.21984 0.314 0.75434 0.0
C869 C 0.25332 0.29127 0.76721 0.0
N870 N 0.32865 0.2827 0.77673 0.0
N871 N 0.19967 0.37051 0.72367 0.0
C872 C 0.29603 0.30732 0.76679 0.0
C873 C 0.22968 0.35192 0.73974 0.0
N874 N 0.34352 0.3679 0.75857 0.0
N875 N 0.17841 0.30002 0.75678 0.0
H876 H 0.20541 0.39867 0.71304 0.0
H877 H 0.17024 0.35641 0.71922 0.0
H878 H 0.17013 0.27188 0.7668 0.0
H879 H 0.15191 0.31769 0.75053 0.0
H880 H 0.36742 0.35633 0.77103 0.0
H881 H 0.35105 0.39753 0.75005 0.0
H882 H 0.36099 0.29028 0.77455 0.0
H883 H 0.32361 0.25272 0.78547 0.0
C884 C 0.16376 0.74868 0.27945 0.0
C885 C 0.20323 0.75649 0.26625 0.0
C886 C 0.16366 0.78415 0.22793 0.0
C887 C 0.12435 0.77173 0.2399 0.0
N888 N 0.08754 0.735 0.27528 0.0
N889 N 0.24077 0.77443 0.22609 0.0
C890 C 0.12451 0.75205 0.26521 0.0
C891 C 0.20318 0.77225 0.23995 0.0
N892 N 0.16357 0.73952 0.30583 0.0
N893 N 0.16323 0.80848 0.20546 0.0
H894 H 0.27028 0.76529 0.23402 0.0
H895 H 0.24215 0.78138 0.206 0.0
H896 H 0.13491 0.8185 0.19636 0.0
H897 H 0.19071 0.8222 0.19733 0.0
H898 H 0.13561 0.73814 0.31707 0.0
H899 H 0.19153 0.73722 0.31705 0.0
H900 H 0.08672 0.71603 0.29221 0.0
H901 H 0.05817 0.73657 0.2655 0.0
C902 C 0.6989 0.6443 0.76322 0.0
C903 C 0.72718 0.6285 0.74355 0.0
C904 C 0.77048 0.69442 0.74678 0.0
C905 C 0.74401 0.70884 0.76778 0.0
N906 N 0.68698 0.69512 0.79884 0.0
N907 N 0.79362 0.63471 0.71941 0.0
C908 C 0.70925 0.68309 0.77679 0.0
C909 C 0.76408 0.65251 0.73613 0.0
N910 N 0.66158 0.62275 0.76842 0.0
N911 N 0.80083 0.72137 0.73643 0.0
H912 H 0.7899 0.60425 0.71107 0.0
H913 H 0.8234 0.64845 0.71546 0.0
H914 H 0.80666 0.75215 0.74383 0.0
H915 H 0.81788 0.71472 0.71924 0.0
H916 H 0.63725 0.63496 0.78035 0.0
H917 H 0.65345 0.59383 0.75923 0.0
H918 H 0.66448 0.67558 0.80817 0.0
H919 H 0.69338 0.72346 0.80912 0.0
C920 C 0.96736 0.50626 0.11301 0.0
C921 C 0.9868 0.5404 0.12717 0.0
C922 C 0.04614 0.49334 0.13998 0.0
C923 C 0.02364 0.45797 0.12912 0.0
N924 N 0.96162 0.42909 0.1068 0.0
N925 N 0.04191 0.56599 0.15686 0.0
C926 C 0.98407 0.46396 0.11576 0.0
C927 C 0.02569 0.53399 0.14122 0.0
N928 N 0.93329 0.51449 0.09678 0.0
N929 N 0.08717 0.48796 0.14896 0.0
H930 H 0.02789 0.59635 0.15853 0.0
H931 H 0.0673 0.56142 0.16992 0.0
H932 H 0.10305 0.4584 0.14831 0.0
H933 H 0.10683 0.5134 0.1547 0.0
H934 H 0.92031 0.49182 0.08393 0.0
H935 H 0.92017 0.54519 0.09457 0.0
H936 H 0.93033 0.43086 0.09968 0.0
H937 H 0.97331 0.39771 0.10799 0.0
C938 C 0.98816 0.46895 0.60345 0.0
C939 C 0.9535 0.49305 0.61391 0.0
C940 C 1.00122 0.55399 0.62224 0.0
C941 C 0.03669 0.52759 0.61592 0.0
N942 N 0.0655 0.46068 0.5997 0.0
N943 N 0.92666 0.56116 0.63104 0.0
C944 C 0.03059 0.48551 0.60569 0.0
C945 C 0.95963 0.53631 0.62211 0.0
N946 N 0.98016 0.43034 0.5915 0.0
N947 N 0.00735 0.59578 0.62977 0.0
H948 H 0.89478 0.55106 0.63209 0.0
H949 H 0.89478 0.55106 0.63209 0.0
H950 H 0.03753 0.61037 0.62984 0.0
H951 H 0.98201 0.61599 0.6351 0.0
H952 H 0.00328 0.41239 0.58158 0.0
H953 H 0.94918 0.41788 0.58965 0.0
H954 H 0.06381 0.42811 0.59507 0.0
H955 H 0.09684 0.47246 0.60038 0.0
C956 C 0.53648 0.007 0.39923 0.0
C957 C 0.51642 0.04147 0.38571 0.0
C958 C 0.45677 0.99456 0.37322 0.0
C959 C 0.47976 0.95897 0.38341 0.0
N960 N 0.54268 0.92968 0.40454 0.0
N961 N 0.46021 0.06765 0.35699 0.0
C962 C 0.5198 0.96472 0.39626 0.0
C963 C 0.47705 0.03531 0.37212 0.0
N964 N 0.5711 0.01488 0.41507 0.0
N965 N 0.41543 0.9893 0.36475 0.0
H966 H 0.47412 0.09806 0.3554 0.0
H967 H 0.43435 0.06334 0.34425 0.0
H968 H 0.39968 0.95967 0.36529 0.0
H969 H 0.3955 0.01484 0.35956 0.0
H970 H 0.58463 0.99189 0.42748 0.0
H971 H 0.58417 0.04557 0.41746 0.0
H972 H 0.57422 0.93136 0.41123 0.0
H973 H 0.53103 0.8983 0.40319 0.0
C974 C 0.46892 0.98984 0.86685 0.0
C975 C 0.45937 0.02059 0.88672 0.0
C976 C 0.53143 0.01174 0.90534 0.0
C977 C 0.54179 0.98402 0.88401 0.0
N978 N 0.52038 0.94511 0.8448 0.0
N979 N 0.4807 0.06251 0.92444 0.0
C980 C 0.51047 0.97239 0.86508 0.0
C981 C 0.49031 0.03175 0.90607 0.0
N982 N 0.43921 0.97719 0.84868 0.0
N983 N 0.56078 0.0181 0.92502 0.0
H984 H 0.45041 0.07666 0.92589 0.0
H985 H 0.50294 0.07563 0.93746 0.0
H986 H 0.59104 0.00367 0.92491 0.0
H987 H 0.55443 0.03496 0.94231 0.0
H988 H 0.4075 0.98798 0.84814 0.0
H989 H 0.4075 0.98798 0.84814 0.0
H990 H 0.49814 0.93632 0.83036 0.0
H991 H 0.55063 0.9314 0.84229 0.0
loop_
_geom_bond_atom_site_label_1
_geom_bond_atom_site_label_2
_geom_bond_distance
_geom_bond_site_symmetry_2
_ccdc_geom_bond_type
Li0 N17 1.990 . S
Li0 O60 1.956 . S
Li0 O61 1.970 . S
Li0 O62 1.961 . S
Li1 N25 1.990 . S
Li1 O60 1.970 . S
Li1 O61 1.956 . S
Li1 O63 1.961 . S
Li2 N47 1.990 . S
Li2 O60 1.961 . S
Li2 O62 1.956 . S
Li2 O63 1.970 . S
Li3 N53 1.990 1_455 S
Li3 O61 1.961 . S
Li3 O62 1.970 . S
Li3 O63 1.956 . S
C4 C6 1.348 . S
C4 C7 1.356 . S
C4 O60 1.325 . S
N5 C8 1.314 . S
N5 C9 1.279 . S
C6 C4 1.348 . S
C6 C8 1.353 . S
C6 H64 0.929 . S
C7 C4 1.356 . S
C7 C9 1.358 . S
C7 H65 0.930 . S
C8 N5 1.314 . S
C8 C6 1.353 . S
C8 H66 0.930 . S
C9 N5 1.279 . S
C9 C7 1.358 . S
C9 H67 0.930 . S
C10 C13 1.348 . S
C10 C14 1.356 . S
C10 O61 1.325 . S
C11 N12 1.279 . S
C11 C14 1.358 . S
C11 H68 0.930 . S
N12 C11 1.279 . S
N12 C15 1.314 . S
C13 C10 1.348 . S
C13 C15 1.353 . S
C13 H69 0.929 . S
C14 C10 1.356 . S
C14 C11 1.358 . S
C14 H70 0.930 . S
C15 N12 1.314 . S
C15 C13 1.353 . S
C15 H71 0.930 . S
C16 N17 1.314 . S
C16 C21 1.358 . S
C16 H22 0.930 1_455 S
N17 Li0 1.990 . S
N17 C16 1.314 . S
N17 C19 1.279 . S
C18 C19 1.358 . S
C18 C20 1.356 . S
C18 H72 0.930 . S
C19 N17 1.279 . S
C19 C18 1.358 . S
C19 H23 0.930 . S
C20 C18 1.356 . S
C20 C21 1.364 . S
C21 C16 1.358 . S
C21 C20 1.364 . S
C21 H73 0.909 1_455 S
H22 C16 0.930 1_655 S
H23 C19 0.930 . S
C24 N25 1.314 . S
C24 C26 1.353 . S
C24 H30 0.930 . S
N25 Li1 1.990 . S
N25 C24 1.314 . S
N25 C28 1.279 . S
C26 C24 1.353 . S
C26 C29 1.348 . S
C26 H74 0.929 . S
C27 C28 1.358 . S
C27 C29 1.356 . S
C27 H75 0.930 . S
C28 N25 1.279 . S
C28 C27 1.358 . S
C28 H31 0.930 . S
C29 C26 1.348 . S
C29 C27 1.356 . S
H30 C24 0.930 . S
H31 C28 0.930 . S
C32 C34 1.348 . S
C32 C35 1.356 . S
C32 O62 1.325 1_655 S
N33 C36 1.314 . S
N33 C37 1.279 . S
C34 C32 1.348 . S
C34 C36 1.353 . S
C34 H76 0.929 . S
C35 C32 1.356 . S
C35 C37 1.358 . S
C35 H77 0.930 1_655 S
C36 N33 1.314 . S
C36 C34 1.353 . S
C36 H78 0.930 . S
C37 N33 1.279 . S
C37 C35 1.358 . S
C37 H79 0.930 . S
C38 C39 1.348 . S
C38 C40 1.356 . S
C38 O63 1.325 . S
C39 C38 1.348 . S
C39 C41 1.353 . S
C39 H80 0.929 . S
C40 C38 1.356 . S
C40 C42 1.358 . S
C40 H81 0.930 . S
C41 C39 1.353 . S
C41 N43 1.314 . S
C41 H82 0.930 . S
C42 C40 1.358 . S
C42 N43 1.279 . S
C42 H83 0.930 . S
N43 C41 1.314 . S
N43 C42 1.279 . S
C44 C46 1.353 . S
C44 N47 1.314 . S
C44 H50 0.930 . S
C45 N47 1.279 . S
C45 C48 1.358 . S
C45 H51 0.930 . S
C46 C44 1.353 . S
C46 C49 1.348 . S
C46 H84 0.929 . S
N47 Li2 1.990 . S
N47 C44 1.314 . S
N47 C45 1.279 . S
C48 C45 1.358 . S
C48 C49 1.356 . S
C48 H85 0.930 . S
C49 C46 1.348 . S
C49 C48 1.356 . S
H50 C44 0.930 . S
H51 C45 0.930 . S
C52 N53 1.314 . S
C52 C54 1.353 . S
C52 H58 0.930 . S
N53 Li3 1.990 1_655 S
N53 C52 1.314 . S
N53 C56 1.279 . S
C54 C52 1.353 . S
C54 C57 1.348 . S
C54 H86 0.929 . S
C55 C56 1.358 . S
C55 C57 1.356 . S
C55 H87 0.930 . S
C56 N53 1.279 . S
C56 C55 1.358 . S
C56 H59 0.930 . S
C57 C54 1.348 . S
C57 C55 1.356 . S
H58 C52 0.930 . S
H59 C56 0.930 . S
O60 Li0 1.956 . S
O60 Li1 1.970 . S
O60 Li2 1.961 . S
O60 C4 1.325 . S
O61 Li0 1.970 . S
O61 Li1 1.956 . S
O61 Li3 1.961 . S
O61 C10 1.325 . S
O62 Li0 1.961 . S
O62 Li2 1.956 . S
O62 Li3 1.970 . S
O62 C32 1.325 1_455 S
O63 Li1 1.961 . S
O63 Li2 1.970 . S
O63 Li3 1.956 . S
O63 C38 1.325 . S
H64 C6 0.929 . S
H65 C7 0.930 . S
H66 C8 0.930 . S
H67 C9 0.930 . S
H68 C11 0.930 . S
H69 C13 0.929 . S
H70 C14 0.930 . S
H71 C15 0.930 . S
H72 C18 0.930 . S
H73 C21 0.909 1_655 S
H74 C26 0.929 . S
H75 C27 0.930 . S
H76 C34 0.929 . S
H77 C35 0.930 1_455 S
H78 C36 0.930 . S
H79 C37 0.930 . S
H80 C39 0.929 . S
H81 C40 0.930 . S
H82 C41 0.930 . S
H83 C42 0.930 . S
H84 C46 0.929 . S
H85 C48 0.930 . S
H86 C54 0.929 . S
H87 C55 0.930 . S
Li88 N105 1.990 . S
Li88 O148 1.956 . S
Li88 O149 1.970 . S
Li88 O150 1.961 . S
Li89 N113 1.990 . S
Li89 O148 1.970 . S
Li89 O149 1.956 . S
Li89 O151 1.961 . S
Li90 N135 1.990 . S
Li90 O148 1.961 . S
Li90 O150 1.956 . S
Li90 O151 1.970 . S
Li91 N141 1.990 . S
Li91 O149 1.961 . S
Li91 O150 1.970 . S
Li91 O151 1.956 . S
C92 C94 1.348 . S
C92 C95 1.356 . S
C92 O148 1.325 . S
N93 C96 1.314 . S
N93 C97 1.279 . S
C94 C92 1.348 . S
C94 C96 1.353 . S
C94 H152 0.929 . S
C95 C92 1.356 . S
C95 C97 1.358 . S
C95 H153 0.930 . S
C96 N93 1.314 . S
C96 C94 1.353 . S
C96 H154 0.930 . S
C97 N93 1.279 . S
C97 C95 1.358 . S
C97 H155 0.930 . S
C98 C101 1.348 . S
C98 C102 1.356 . S
C98 O149 1.325 . S
C99 N100 1.279 . S
C99 C102 1.358 . S
C99 H156 0.930 . S
N100 C99 1.279 . S
N100 C103 1.314 . S
C101 C98 1.348 . S
C101 C103 1.353 . S
C101 H157 0.929 . S
C102 C98 1.356 . S
C102 C99 1.358 . S
C102 H158 0.930 . S
C103 N100 1.314 . S
C103 C101 1.353 . S
C103 H159 0.930 . S
C104 N105 1.314 . S
C104 C109 1.353 . S
C104 H110 0.930 . S
N105 Li88 1.990 . S
N105 C104 1.314 . S
N105 C107 1.279 . S
C106 C107 1.358 . S
C106 C108 1.356 . S
C106 H160 0.930 . S
C107 N105 1.279 . S
C107 C106 1.358 . S
C107 H111 0.930 . S
C108 C106 1.356 . S
C108 C109 1.348 . S
C109 C104 1.353 . S
C109 C108 1.348 . S
C109 H161 0.929 . S
H110 C104 0.930 . S
H111 C107 0.930 . S
C112 N113 1.314 . S
C112 C114 1.353 . S
C112 H118 0.930 . S
N113 Li89 1.990 . S
N113 C112 1.314 . S
N113 C116 1.279 . S
C114 C112 1.353 . S
C114 C117 1.348 . S
C114 H162 0.929 . S
C115 C116 1.358 . S
C115 C117 1.356 . S
C115 H163 0.930 . S
C116 N113 1.279 . S
C116 C115 1.358 . S
C116 H119 0.930 . S
C117 C114 1.348 . S
C117 C115 1.356 . S
H118 C112 0.930 . S
H119 C116 0.930 . S
C120 C122 1.348 . S
C120 C123 1.356 . S
C120 O150 1.325 . S
N121 C124 1.314 . S
N121 C125 1.279 . S
C122 C120 1.348 . S
C122 C124 1.353 . S
C122 H164 0.929 . S
C123 C120 1.356 . S
C123 C125 1.358 . S
C123 H165 0.930 . S
C124 N121 1.314 . S
C124 C122 1.353 . S
C124 H166 0.930 . S
C125 N121 1.279 . S
C125 C123 1.358 . S
C125 H167 0.930 . S
C126 C127 1.348 . S
C126 C128 1.356 . S
C126 O151 1.325 . S
C127 C126 1.348 . S
C127 C129 1.353 . S
C127 H168 0.929 . S
C128 C126 1.356 . S
C128 C130 1.358 . S
C128 H169 0.930 . S
C129 C127 1.353 . S
C129 N131 1.314 . S
C129 H170 0.930 . S
C130 C128 1.358 . S
C130 N131 1.279 . S
C130 H171 0.930 . S
N131 C129 1.314 . S
N131 C130 1.279 . S
C132 C134 1.353 . S
C132 N135 1.314 . S
C132 H138 0.930 . S
C133 N135 1.279 . S
C133 C136 1.358 . S
C133 H139 0.930 . S
C134 C132 1.353 . S
C134 C137 1.348 . S
C134 H172 0.929 . S
N135 Li90 1.990 . S
N135 C132 1.314 . S
N135 C133 1.279 . S
C136 C133 1.358 . S
C136 C137 1.356 . S
C136 H173 0.930 . S
C137 C134 1.348 . S
C137 C136 1.356 . S
H138 C132 0.930 . S
H139 C133 0.930 . S
C140 N141 1.314 . S
C140 C142 1.353 . S
C140 H146 0.930 . S
N141 Li91 1.990 . S
N141 C140 1.314 . S
N141 C144 1.279 . S
C142 C140 1.353 . S
C142 C145 1.348 . S
C142 H174 0.929 . S
C143 C144 1.358 . S
C143 C145 1.356 . S
C143 H175 0.930 . S
C144 N141 1.279 . S
C144 C143 1.358 . S
C144 H147 0.930 . S
C145 C142 1.348 . S
C145 C143 1.356 . S
H146 C140 0.930 . S
H147 C144 0.930 . S
O148 Li88 1.956 . S
O148 Li89 1.970 . S
O148 Li90 1.961 . S
O148 C92 1.325 . S
O149 Li88 1.970 . S
O149 Li89 1.956 . S
O149 Li91 1.961 . S
O149 C98 1.325 . S
O150 Li88 1.961 . S
O150 Li90 1.956 . S
O150 Li91 1.970 . S
O150 C120 1.325 . S
O151 Li89 1.961 . S
O151 Li90 1.970 . S
O151 Li91 1.956 . S
O151 C126 1.325 . S
H152 C94 0.929 . S
H153 C95 0.930 . S
H154 C96 0.930 . S
H155 C97 0.930 . S
H156 C99 0.930 . S
H157 C101 0.929 . S
H158 C102 0.930 . S
H159 C103 0.930 . S
H160 C106 0.930 . S
H161 C109 0.929 . S
H162 C114 0.929 . S
H163 C115 0.930 . S
H164 C122 0.929 . S
H165 C123 0.930 . S
H166 C124 0.930 . S
H167 C125 0.930 . S
H168 C127 0.929 . S
H169 C128 0.930 . S
H170 C129 0.930 . S
H171 C130 0.930 . S
H172 C134 0.929 . S
H173 C136 0.930 . S
H174 C142 0.929 . S
H175 C143 0.930 . S
Li176 N193 1.990 . S
Li176 O236 1.956 . S
Li176 O237 1.970 . S
Li176 O238 1.961 . S
Li177 N201 1.990 . S
Li177 O236 1.970 . S
Li177 O237 1.956 . S
Li177 O239 1.961 . S
Li178 N223 1.990 1_655 S
Li178 O236 1.961 . S
Li178 O238 1.956 . S
Li178 O239 1.970 . S
Li179 N229 1.990 . S
Li179 O237 1.961 . S
Li179 O238 1.970 . S
Li179 O239 1.956 . S
C180 C182 1.348 . S
C180 C183 1.356 . S
C180 O236 1.325 . S
N181 C184 1.314 . S
N181 C185 1.279 . S
C182 C180 1.348 . S
C182 C184 1.353 . S
C182 H240 0.929 . S
C183 C180 1.356 . S
C183 C185 1.358 . S
C183 H241 0.930 . S
C184 N181 1.314 . S
C184 C182 1.353 . S
C184 H242 0.930 . S
C185 N181 1.279 . S
C185 C183 1.358 . S
C185 H243 0.930 . S
C186 C189 1.348 . S
C186 C190 1.356 . S
C186 O237 1.325 . S
C187 N188 1.279 . S
C187 C190 1.358 . S
C187 H244 0.930 . S
N188 C187 1.279 . S
N188 C191 1.314 . S
C189 C186 1.348 . S
C189 C191 1.353 . S
C189 H245 0.929 . S
C190 C186 1.356 . S
C190 C187 1.358 . S
C190 H246 0.930 . S
C191 N188 1.314 . S
C191 C189 1.353 . S
C191 H247 0.930 . S
C192 N193 1.314 . S
C192 C197 1.353 . S
C192 H198 0.930 . S
N193 Li176 1.990 . S
N193 C192 1.314 . S
N193 C195 1.279 . S
C194 C195 1.358 . S
C194 C196 1.356 . S
C194 H248 0.930 . S
C195 N193 1.279 . S
C195 C194 1.358 . S
C195 H199 0.930 . S
C196 C194 1.356 . S
C196 C197 1.348 . S
C197 C192 1.353 . S
C197 C196 1.348 . S
C197 H249 0.929 . S
H198 C192 0.930 . S
H199 C195 0.930 . S
C200 N201 1.314 . S
C200 C202 1.358 . S
C200 H206 0.930 1_655 S
N201 Li177 1.990 . S
N201 C200 1.314 . S
N201 C204 1.279 . S
C202 C200 1.358 . S
C202 C205 1.364 . S
C202 H250 0.909 1_655 S
C203 C204 1.358 . S
C203 C205 1.356 . S
C203 H251 0.930 . S
C204 N201 1.279 . S
C204 C203 1.358 . S
C204 H207 0.930 . S
C205 C202 1.364 . S
C205 C203 1.356 . S
H206 C200 0.930 1_455 S
H207 C204 0.930 . S
C208 C210 1.348 . S
C208 C211 1.356 . S
C208 O238 1.325 . S
N209 C212 1.314 . S
N209 C213 1.279 . S
C210 C208 1.348 . S
C210 C212 1.353 . S
C210 H252 0.929 . S
C211 C208 1.356 . S
C211 C213 1.358 . S
C211 H253 0.930 . S
C212 N209 1.314 . S
C212 C210 1.353 . S
C212 H254 0.930 . S
C213 N209 1.279 . S
C213 C211 1.358 . S
C213 H255 0.930 . S
C214 C215 1.348 . S
C214 C216 1.356 . S
C214 O239 1.325 1_455 S
C215 C214 1.348 . S
C215 C217 1.353 . S
C215 H256 0.929 . S
C216 C214 1.356 . S
C216 C218 1.358 . S
C216 H257 0.930 1_455 S
C217 C215 1.353 . S
C217 N219 1.314 . S
C217 H258 0.930 . S
C218 C216 1.358 . S
C218 N219 1.279 . S
C218 H259 0.930 . S
N219 C217 1.314 . S
N219 C218 1.279 . S
C220 C222 1.353 . S
C220 N223 1.314 . S
C220 H226 0.930 . S
C221 N223 1.279 . S
C221 C224 1.358 . S
C221 H227 0.930 . S
C222 C220 1.353 . S
C222 C225 1.348 . S
C222 H260 0.929 . S
N223 Li178 1.990 1_455 S
N223 C220 1.314 . S
N223 C221 1.279 . S
C224 C221 1.358 . S
C224 C225 1.356 . S
C224 H261 0.930 . S
C225 C222 1.348 . S
C225 C224 1.356 . S
H226 C220 0.930 . S
H227 C221 0.930 . S
C228 N229 1.314 . S
C228 C230 1.353 . S
C228 H234 0.930 . S
N229 Li179 1.990 . S
N229 C228 1.314 . S
N229 C232 1.279 . S
C230 C228 1.353 . S
C230 C233 1.348 . S
C230 H262 0.929 . S
C231 C232 1.358 . S
C231 C233 1.356 . S
C231 H263 0.930 . S
C232 N229 1.279 . S
C232 C231 1.358 . S
C232 H235 0.930 . S
C233 C230 1.348 . S
C233 C231 1.356 . S
H234 C228 0.930 . S
H235 C232 0.930 . S
O236 Li176 1.956 . S
O236 Li177 1.970 . S
O236 Li178 1.961 . S
O236 C180 1.325 . S
O237 Li176 1.970 . S
O237 Li177 1.956 . S
O237 Li179 1.961 . S
O237 C186 1.325 . S
O238 Li176 1.961 . S
O238 Li178 1.956 . S
O238 Li179 1.970 . S
O238 C208 1.325 . S
O239 Li177 1.961 . S
O239 Li178 1.970 . S
O239 Li179 1.956 . S
O239 C214 1.325 1_655 S
H240 C182 0.929 . S
H241 C183 0.930 . S
H242 C184 0.930 . S
H243 C185 0.930 . S
H244 C187 0.930 . S
H245 C189 0.929 . S
H246 C190 0.930 . S
H247 C191 0.930 . S
H248 C194 0.930 . S
H249 C197 0.929 . S
H250 C202 0.909 1_455 S
H251 C203 0.930 . S
H252 C210 0.929 . S
H253 C211 0.930 . S
H254 C212 0.930 . S
H255 C213 0.930 . S
H256 C215 0.929 . S
H257 C216 0.930 1_655 S
H258 C217 0.930 . S
H259 C218 0.930 . S
H260 C222 0.929 . S
H261 C224 0.930 . S
H262 C230 0.929 . S
H263 C231 0.930 . S
Li264 N281 1.990 . S
Li264 O324 1.956 . S
Li264 O325 1.970 . S
Li264 O326 1.961 . S
Li265 N289 1.990 . S
Li265 O324 1.970 . S
Li265 O325 1.956 . S
Li265 O327 1.961 . S
Li266 N311 1.990 . S
Li266 O324 1.961 . S
Li266 O326 1.956 . S
Li266 O327 1.970 . S
Li267 N317 1.990 . S
Li267 O325 1.961 . S
Li267 O326 1.970 . S
Li267 O327 1.956 . S
C268 C270 1.348 . S
C268 C271 1.356 . S
C268 O324 1.325 . S
N269 C272 1.314 . S
N269 C273 1.279 . S
C270 C268 1.348 . S
C270 C272 1.353 . S
C270 H328 0.929 . S
C271 C268 1.356 . S
C271 C273 1.358 . S
C271 H329 0.930 . S
C272 N269 1.314 . S
C272 C270 1.353 . S
C272 H330 0.930 . S
C273 N269 1.279 . S
C273 C271 1.358 . S
C273 H331 0.930 . S
C274 C277 1.348 . S
C274 C278 1.356 . S
C274 O325 1.325 . S
C275 N276 1.279 . S
C275 C278 1.358 . S
C275 H332 0.930 . S
N276 C275 1.279 . S
N276 C279 1.314 . S
C277 C274 1.348 . S
C277 C279 1.353 . S
C277 H333 0.929 . S
C278 C274 1.356 . S
C278 C275 1.358 . S
C278 H334 0.930 . S
C279 N276 1.314 . S
C279 C277 1.353 . S
C279 H335 0.930 . S
C280 N281 1.314 . S
C280 C285 1.353 . S
C280 H286 0.930 . S
N281 Li264 1.990 . S
N281 C280 1.314 . S
N281 C283 1.279 . S
C282 C283 1.358 . S
C282 C284 1.356 . S
C282 H336 0.930 . S
C283 N281 1.279 . S
C283 C282 1.358 . S
C283 H287 0.930 . S
C284 C282 1.356 . S
C284 C285 1.348 . S
C285 C280 1.353 . S
C285 C284 1.348 . S
C285 H337 0.929 . S
H286 C280 0.930 . S
H287 C283 0.930 . S
C288 N289 1.314 . S
C288 C290 1.353 . S
C288 H294 0.930 . S
N289 Li265 1.990 . S
N289 C288 1.314 . S
N289 C292 1.279 . S
C290 C288 1.353 . S
C290 C293 1.348 . S
C290 H338 0.929 . S
C291 C292 1.358 . S
C291 C293 1.356 . S
C291 H339 0.930 . S
C292 N289 1.279 . S
C292 C291 1.358 . S
C292 H295 0.930 . S
C293 C290 1.348 . S
C293 C291 1.356 . S
H294 C288 0.930 . S
H295 C292 0.930 . S
C296 C298 1.348 . S
C296 C299 1.356 . S
C296 O326 1.325 . S
N297 C300 1.314 . S
N297 C301 1.279 . S
C298 C296 1.348 . S
C298 C300 1.353 . S
C298 H340 0.929 . S
C299 C296 1.356 . S
C299 C301 1.358 . S
C299 H341 0.930 . S
C300 N297 1.314 . S
C300 C298 1.353 . S
C300 H342 0.930 . S
C301 N297 1.279 . S
C301 C299 1.358 . S
C301 H343 0.930 . S
C302 C303 1.348 . S
C302 C304 1.356 . S
C302 O327 1.325 . S
C303 C302 1.348 . S
C303 C305 1.353 . S
C303 H344 0.929 . S
C304 C302 1.356 . S
C304 C306 1.358 . S
C304 H345 0.930 . S
C305 C303 1.353 . S
C305 N307 1.314 . S
C305 H346 0.930 . S
C306 C304 1.358 . S
C306 N307 1.279 . S
C306 H347 0.930 . S
N307 C305 1.314 . S
N307 C306 1.279 . S
C308 C310 1.353 . S
C308 N311 1.314 . S
C308 H314 0.930 . S
C309 N311 1.279 . S
C309 C312 1.358 . S
C309 H315 0.930 . S
C310 C308 1.353 . S
C310 C313 1.348 . S
C310 H348 0.929 . S
N311 Li266 1.990 . S
N311 C308 1.314 . S
N311 C309 1.279 . S
C312 C309 1.358 . S
C312 C313 1.356 . S
C312 H349 0.930 . S
C313 C310 1.348 . S
C313 C312 1.356 . S
H314 C308 0.930 . S
H315 C309 0.930 . S
C316 N317 1.314 . S
C316 C318 1.353 . S
C316 H322 0.930 . S
N317 Li267 1.990 . S
N317 C316 1.314 . S
N317 C320 1.279 . S
C318 C316 1.353 . S
C318 C321 1.348 . S
C318 H350 0.929 . S
C319 C320 1.358 . S
C319 C321 1.356 . S
C319 H351 0.930 . S
C320 N317 1.279 . S
C320 C319 1.358 . S
C320 H323 0.930 . S
C321 C318 1.348 . S
C321 C319 1.356 . S
H322 C316 0.930 . S
H323 C320 0.930 . S
O324 Li264 1.956 . S
O324 Li265 1.970 . S
O324 Li266 1.961 . S
O324 C268 1.325 . S
O325 Li264 1.970 . S
O325 Li265 1.956 . S
O325 Li267 1.961 . S
O325 C274 1.325 . S
O326 Li264 1.961 . S
O326 Li266 1.956 . S
O326 Li267 1.970 . S
O326 C296 1.325 . S
O327 Li265 1.961 . S
O327 Li266 1.970 . S
O327 Li267 1.956 . S
O327 C302 1.325 . S
H328 C270 0.929 . S
H329 C271 0.930 . S
H330 C272 0.930 . S
H331 C273 0.930 . S
H332 C275 0.930 . S
H333 C277 0.929 . S
H334 C278 0.930 . S
H335 C279 0.930 . S
H336 C282 0.930 . S
H337 C285 0.929 . S
H338 C290 0.929 . S
H339 C291 0.930 . S
H340 C298 0.929 . S
H341 C299 0.930 . S
H342 C300 0.930 . S
H343 C301 0.930 . S
H344 C303 0.929 . S
H345 C304 0.930 . S
H346 C305 0.930 . S
H347 C306 0.930 . S
H348 C310 0.929 . S
H349 C312 0.930 . S
H350 C318 0.929 . S
H351 C319 0.930 . S
Li352 N369 1.990 . S
Li352 O412 1.956 . S
Li352 O413 1.970 . S
Li352 O414 1.961 . S
Li353 N377 1.990 . S
Li353 O412 1.970 . S
Li353 O413 1.956 . S
Li353 O415 1.961 . S
Li354 N399 1.990 . S
Li354 O412 1.961 . S
Li354 O414 1.956 . S
Li354 O415 1.970 . S
Li355 N405 1.990 . S
Li355 O413 1.961 . S
Li355 O414 1.970 . S
Li355 O415 1.956 . S
C356 C358 1.348 . S
C356 C359 1.356 . S
C356 O412 1.325 . S
N357 C360 1.314 . S
N357 C361 1.279 . S
C358 C356 1.348 . S
C358 C360 1.353 . S
C358 H416 0.929 . S
C359 C356 1.356 . S
C359 C361 1.358 . S
C359 H417 0.930 . S
C360 N357 1.314 . S
C360 C358 1.353 . S
C360 H418 0.930 . S
C361 N357 1.279 . S
C361 C359 1.358 . S
C361 H419 0.930 . S
C362 C365 1.348 . S
C362 C366 1.356 . S
C362 O413 1.325 . S
C363 N364 1.279 . S
C363 C366 1.358 . S
C363 H420 0.930 . S
N364 C363 1.279 . S
N364 C367 1.314 . S
C365 C362 1.348 . S
C365 C367 1.353 . S
C365 H421 0.929 . S
C366 C362 1.356 . S
C366 C363 1.358 . S
C366 H422 0.930 . S
C367 N364 1.314 . S
C367 C365 1.353 . S
C367 H423 0.930 . S
C368 N369 1.314 . S
C368 C373 1.353 . S
C368 H374 0.930 . S
N369 Li352 1.990 . S
N369 C368 1.314 . S
N369 C371 1.279 . S
C370 C371 1.358 . S
C370 C372 1.356 . S
C370 H424 0.930 . S
C371 N369 1.279 . S
C371 C370 1.358 . S
C371 H375 0.930 . S
C372 C370 1.356 . S
C372 C373 1.348 . S
C373 C368 1.353 . S
C373 C372 1.348 . S
C373 H425 0.929 . S
H374 C368 0.930 . S
H375 C371 0.930 . S
C376 N377 1.314 . S
C376 C378 1.353 . S
C376 H382 0.930 . S
N377 Li353 1.990 . S
N377 C376 1.314 . S
N377 C380 1.279 . S
C378 C376 1.353 . S
C378 C381 1.348 . S
C378 H426 0.929 . S
C379 C380 1.358 . S
C379 C381 1.356 . S
C379 H427 0.930 . S
C380 N377 1.279 . S
C380 C379 1.358 . S
C380 H383 0.930 . S
C381 C378 1.348 . S
C381 C379 1.356 . S
H382 C376 0.930 . S
H383 C380 0.930 . S
C384 C386 1.348 . S
C384 C387 1.356 . S
C384 O414 1.325 . S
N385 C388 1.314 . S
N385 C389 1.279 . S
C386 C384 1.348 . S
C386 C388 1.353 . S
C386 H428 0.929 . S
C387 C384 1.356 . S
C387 C389 1.358 . S
C387 H429 0.930 . S
C388 N385 1.314 . S
C388 C386 1.353 . S
C388 H430 0.930 . S
C389 N385 1.279 . S
C389 C387 1.358 . S
C389 H431 0.930 . S
C390 C391 1.348 . S
C390 C392 1.356 . S
C390 O415 1.325 . S
C391 C390 1.348 . S
C391 C393 1.353 . S
C391 H432 0.929 . S
C392 C390 1.356 . S
C392 C394 1.358 . S
C392 H433 0.930 . S
C393 C391 1.353 . S
C393 N395 1.314 . S
C393 H434 0.930 . S
C394 C392 1.358 . S
C394 N395 1.279 . S
C394 H435 0.930 . S
N395 C393 1.314 . S
N395 C394 1.279 . S
C396 C398 1.353 . S
C396 N399 1.314 . S
C396 H402 0.930 . S
C397 N399 1.279 . S
C397 C400 1.358 . S
C397 H403 0.930 . S
C398 C396 1.353 . S
C398 C401 1.348 . S
C398 H436 0.929 . S
N399 Li354 1.990 . S
N399 C396 1.314 . S
N399 C397 1.279 . S
C400 C397 1.358 . S
C400 C401 1.356 . S
C400 H437 0.930 . S
C401 C398 1.348 . S
C401 C400 1.356 . S
H402 C396 0.930 . S
H403 C397 0.930 . S
C404 N405 1.314 . S
C404 C406 1.353 . S
C404 H410 0.930 . S
N405 Li355 1.990 . S
N405 C404 1.314 . S
N405 C408 1.279 . S
C406 C404 1.353 . S
C406 C409 1.348 . S
C406 H438 0.929 . S
C407 C408 1.358 . S
C407 C409 1.356 . S
C407 H439 0.930 . S
C408 N405 1.279 . S
C408 C407 1.358 . S
C408 H411 0.930 . S
C409 C406 1.348 . S
C409 C407 1.356 . S
H410 C404 0.930 . S
H411 C408 0.930 . S
O412 Li352 1.956 . S
O412 Li353 1.970 . S
O412 Li354 1.961 . S
O412 C356 1.325 . S
O413 Li352 1.970 . S
O413 Li353 1.956 . S
O413 Li355 1.961 . S
O413 C362 1.325 . S
O414 Li352 1.961 . S
O414 Li354 1.956 . S
O414 Li355 1.970 . S
O414 C384 1.325 . S
O415 Li353 1.961 . S
O415 Li354 1.970 . S
O415 Li355 1.956 . S
O415 C390 1.325 . S
H416 C358 0.929 . S
H417 C359 0.930 . S
H418 C360 0.930 . S
H419 C361 0.930 . S
H420 C363 0.930 . S
H421 C365 0.929 . S
H422 C366 0.930 . S
H423 C367 0.930 . S
H424 C370 0.930 . S
H425 C373 0.929 . S
H426 C378 0.929 . S
H427 C379 0.930 . S
H428 C386 0.929 . S
H429 C387 0.930 . S
H430 C388 0.930 . S
H431 C389 0.930 . S
H432 C391 0.929 . S
H433 C392 0.930 . S
H434 C393 0.930 . S
H435 C394 0.930 . S
H436 C398 0.929 . S
H437 C400 0.930 . S
H438 C406 0.929 . S
H439 C407 0.930 . S
Li440 N457 1.990 . S
Li440 O500 1.956 . S
Li440 O501 1.970 . S
Li440 O502 1.961 . S
Li441 N465 1.990 . S
Li441 O500 1.970 . S
Li441 O501 1.956 . S
Li441 O503 1.961 . S
Li442 N487 1.990 . S
Li442 O500 1.961 . S
Li442 O502 1.956 . S
Li442 O503 1.970 . S
Li443 N493 1.990 1_545 S
Li443 O501 1.961 . S
Li443 O502 1.970 . S
Li443 O503 1.956 . S
C444 C446 1.348 . S
C444 C447 1.356 . S
C444 O500 1.325 . S
N445 C448 1.314 . S
N445 C449 1.279 . S
C446 C444 1.348 . S
C446 C448 1.353 . S
C446 H504 0.929 . S
C447 C444 1.356 . S
C447 C449 1.358 . S
C447 H505 0.930 . S
C448 N445 1.314 . S
C448 C446 1.353 . S
C448 H506 0.930 . S
C449 N445 1.279 . S
C449 C447 1.358 . S
C449 H507 0.930 . S
C450 C453 1.348 . S
C450 C454 1.356 . S
C450 O501 1.325 . S
C451 N452 1.279 . S
C451 C454 1.358 . S
C451 H508 0.930 . S
N452 C451 1.279 . S
N452 C455 1.314 . S
C453 C450 1.348 . S
C453 C455 1.353 . S
C453 H509 0.929 . S
C454 C450 1.356 . S
C454 C451 1.358 . S
C454 H510 0.930 . S
C455 N452 1.314 . S
C455 C453 1.353 . S
C455 H511 0.930 . S
C456 N457 1.314 . S
C456 C461 1.353 . S
C456 H462 0.930 . S
N457 Li440 1.990 . S
N457 C456 1.314 . S
N457 C459 1.279 . S
C458 C459 1.358 . S
C458 C460 1.356 . S
C458 H512 0.930 . S
C459 N457 1.279 . S
C459 C458 1.358 . S
C459 H463 0.930 . S
C460 C458 1.356 . S
C460 C461 1.348 . S
C461 C456 1.353 . S
C461 C460 1.348 . S
C461 H513 0.929 . S
H462 C456 0.930 . S
H463 C459 0.930 . S
C464 N465 1.314 . S
C464 C466 1.353 . S
C464 H470 0.930 . S
N465 Li441 1.990 . S
N465 C464 1.314 . S
N465 C468 1.279 . S
C466 C464 1.353 . S
C466 C469 1.348 . S
C466 H514 0.929 . S
C467 C468 1.358 . S
C467 C469 1.356 . S
C467 H515 0.930 . S
C468 N465 1.279 . S
C468 C467 1.358 . S
C468 H471 0.930 . S
C469 C466 1.348 . S
C469 C467 1.356 . S
H470 C464 0.930 . S
H471 C468 0.930 . S
C472 C474 1.348 . S
C472 C475 1.356 . S
C472 O502 1.325 . S
N473 C476 1.314 . S
N473 C477 1.279 . S
C474 C472 1.348 . S
C474 C476 1.353 . S
C474 H516 0.929 1_545 S
C475 C472 1.356 . S
C475 C477 1.358 . S
C475 H517 0.930 . S
C476 N473 1.314 . S
C476 C474 1.353 . S
C476 H518 0.930 1_545 S
C477 N473 1.279 . S
C477 C475 1.358 . S
C477 H519 0.930 . S
C478 C479 1.348 . S
C478 C480 1.356 . S
C478 O503 1.325 1_565 S
C479 C478 1.348 . S
C479 C481 1.353 . S
C479 H520 0.929 . S
C480 C478 1.356 . S
C480 C482 1.358 . S
C480 H521 0.930 . S
C481 C479 1.353 . S
C481 N483 1.314 . S
C481 H522 0.930 . S
C482 C480 1.358 . S
C482 N483 1.279 . S
C482 H523 0.930 . S
N483 C481 1.314 . S
N483 C482 1.279 . S
C484 C486 1.353 . S
C484 N487 1.314 . S
C484 H490 0.930 . S
C485 N487 1.279 . S
C485 C488 1.358 . S
C485 H491 0.930 . S
C486 C484 1.353 . S
C486 C489 1.348 . S
C486 H524 0.929 . S
N487 Li442 1.990 . S
N487 C484 1.314 . S
N487 C485 1.279 . S
C488 C485 1.358 . S
C488 C489 1.356 . S
C488 H525 0.930 . S
C489 C486 1.348 . S
C489 C488 1.356 . S
H490 C484 0.930 . S
H491 C485 0.930 . S
C492 N493 1.314 . S
C492 C494 1.353 . S
C492 H498 0.930 . S
N493 Li443 1.990 1_565 S
N493 C492 1.314 . S
N493 C496 1.279 . S
C494 C492 1.353 . S
C494 C497 1.348 . S
C494 H526 0.929 . S
C495 C496 1.358 . S
C495 C497 1.356 . S
C495 H527 0.930 . S
C496 N493 1.279 . S
C496 C495 1.358 . S
C496 H499 0.930 . S
C497 C494 1.348 . S
C497 C495 1.356 . S
H498 C492 0.930 . S
H499 C496 0.930 . S
O500 Li440 1.956 . S
O500 Li441 1.970 . S
O500 Li442 1.961 . S
O500 C444 1.325 . S
O501 Li440 1.970 . S
O501 Li441 1.956 . S
O501 Li443 1.961 . S
O501 C450 1.325 . S
O502 Li440 1.961 . S
O502 Li442 1.956 . S
O502 Li443 1.970 . S
O502 C472 1.325 . S
O503 Li441 1.961 . S
O503 Li442 1.970 . S
O503 Li443 1.956 . S
O503 C478 1.325 1_545 S
H504 C446 0.929 . S
H505 C447 0.930 . S
H506 C448 0.930 . S
H507 C449 0.930 . S
H508 C451 0.930 . S
H509 C453 0.929 . S
H510 C454 0.930 . S
H511 C455 0.930 . S
H512 C458 0.930 . S
H513 C461 0.929 . S
H514 C466 0.929 . S
H515 C467 0.930 . S
H516 C474 0.929 1_565 S
H517 C475 0.930 . S
H518 C476 0.930 1_565 S
H519 C477 0.930 . S
H520 C479 0.929 . S
H521 C480 0.930 . S
H522 C481 0.930 . S
H523 C482 0.930 . S
H524 C486 0.929 . S
H525 C488 0.930 . S
H526 C494 0.929 . S
H527 C495 0.930 . S
Li528 N545 1.990 . S
Li528 O588 1.956 . S
Li528 O589 1.970 . S
Li528 O590 1.961 . S
Li529 N553 1.990 . S
Li529 O588 1.970 . S
Li529 O589 1.956 . S
Li529 O591 1.961 . S
Li530 N575 1.990 . S
Li530 O588 1.961 . S
Li530 O590 1.956 . S
Li530 O591 1.970 . S
Li531 N581 1.990 . S
Li531 O589 1.961 . S
Li531 O590 1.970 . S
Li531 O591 1.956 . S
C532 C534 1.348 . S
C532 C535 1.356 . S
C532 O588 1.325 . S
N533 C536 1.314 . S
N533 C537 1.279 . S
C534 C532 1.348 . S
C534 C536 1.353 . S
C534 H592 0.929 . S
C535 C532 1.356 . S
C535 C537 1.358 . S
C535 H593 0.930 . S
C536 N533 1.314 . S
C536 C534 1.353 . S
C536 H594 0.930 . S
C537 N533 1.279 . S
C537 C535 1.358 . S
C537 H595 0.930 . S
C538 C541 1.348 . S
C538 C542 1.356 . S
C538 O589 1.325 . S
C539 N540 1.279 . S
C539 C542 1.358 . S
C539 H596 0.930 . S
N540 C539 1.279 . S
N540 C543 1.314 . S
C541 C538 1.348 . S
C541 C543 1.353 . S
C541 H597 0.929 . S
C542 C538 1.356 . S
C542 C539 1.358 . S
C542 H598 0.930 . S
C543 N540 1.314 . S
C543 C541 1.353 . S
C543 H599 0.930 . S
C544 N545 1.314 . S
C544 C549 1.353 . S
C544 H550 0.930 . S
N545 Li528 1.990 . S
N545 C544 1.314 . S
N545 C547 1.279 . S
C546 C547 1.358 . S
C546 C548 1.356 . S
C546 H600 0.930 . S
C547 N545 1.279 . S
C547 C546 1.358 . S
C547 H551 0.930 . S
C548 C546 1.356 . S
C548 C549 1.348 . S
C549 C544 1.353 . S
C549 C548 1.348 . S
C549 H601 0.929 . S
H550 C544 0.930 . S
H551 C547 0.930 . S
C552 N553 1.314 . S
C552 C554 1.353 . S
C552 H558 0.930 . S
N553 Li529 1.990 . S
N553 C552 1.314 . S
N553 C556 1.279 . S
C554 C552 1.353 . S
C554 C557 1.348 . S
C554 H602 0.929 . S
C555 C556 1.358 . S
C555 C557 1.356 . S
C555 H603 0.930 . S
C556 N553 1.279 . S
C556 C555 1.358 . S
C556 H559 0.930 . S
C557 C554 1.348 . S
C557 C555 1.356 . S
H558 C552 0.930 . S
H559 C556 0.930 . S
C560 C562 1.348 . S
C560 C563 1.356 . S
C560 O590 1.325 . S
N561 C564 1.314 . S
N561 C565 1.279 . S
C562 C560 1.348 . S
C562 C564 1.353 . S
C562 H604 0.929 . S
C563 C560 1.356 . S
C563 C565 1.358 . S
C563 H605 0.930 . S
C564 N561 1.314 . S
C564 C562 1.353 . S
C564 H606 0.930 . S
C565 N561 1.279 . S
C565 C563 1.358 . S
C565 H607 0.930 . S
C566 C567 1.348 . S
C566 C568 1.356 . S
C566 O591 1.325 . S
C567 C566 1.348 . S
C567 C569 1.353 . S
C567 H608 0.929 . S
C568 C566 1.356 . S
C568 C570 1.358 . S
C568 H609 0.930 . S
C569 C567 1.353 . S
C569 N571 1.314 . S
C569 H610 0.930 . S
C570 C568 1.358 . S
C570 N571 1.279 . S
C570 H611 0.930 . S
N571 C569 1.314 . S
N571 C570 1.279 . S
C572 C574 1.353 . S
C572 N575 1.314 . S
C572 H578 0.930 . S
C573 N575 1.279 . S
C573 C576 1.358 . S
C573 H579 0.930 . S
C574 C572 1.353 . S
C574 C577 1.348 . S
C574 H612 0.929 . S
N575 Li530 1.990 . S
N575 C572 1.314 . S
N575 C573 1.279 . S
C576 C573 1.358 . S
C576 C577 1.356 . S
C576 H613 0.930 . S
C577 C574 1.348 . S
C577 C576 1.356 . S
H578 C572 0.930 . S
H579 C573 0.930 . S
C580 N581 1.314 . S
C580 C582 1.353 . S
C580 H586 0.930 . S
N581 Li531 1.990 . S
N581 C580 1.314 . S
N581 C584 1.279 . S
C582 C580 1.353 . S
C582 C585 1.348 . S
C582 H614 0.929 . S
C583 C584 1.358 . S
C583 C585 1.356 . S
C583 H615 0.930 . S
C584 N581 1.279 . S
C584 C583 1.358 . S
C584 H587 0.930 . S
C585 C582 1.348 . S
C585 C583 1.356 . S
H586 C580 0.930 . S
H587 C584 0.930 . S
O588 Li528 1.956 . S
O588 Li529 1.970 . S
O588 Li530 1.961 . S
O588 C532 1.325 . S
O589 Li528 1.970 . S
O589 Li529 1.956 . S
O589 Li531 1.961 . S
O589 C538 1.325 . S
O590 Li528 1.961 . S
O590 Li530 1.956 . S
O590 Li531 1.970 . S
O590 C560 1.325 . S
O591 Li529 1.961 . S
O591 Li530 1.970 . S
O591 Li531 1.956 . S
O591 C566 1.325 . S
H592 C534 0.929 . S
H593 C535 0.930 . S
H594 C536 0.930 . S
H595 C537 0.930 . S
H596 C539 0.930 . S
H597 C541 0.929 . S
H598 C542 0.930 . S
H599 C543 0.930 . S
H600 C546 0.930 . S
H601 C549 0.929 . S
H602 C554 0.929 . S
H603 C555 0.930 . S
H604 C562 0.929 . S
H605 C563 0.930 . S
H606 C564 0.930 . S
H607 C565 0.930 . S
H608 C567 0.929 . S
H609 C568 0.930 . S
H610 C569 0.930 . S
H611 C570 0.930 . S
H612 C574 0.929 . S
H613 C576 0.930 . S
H614 C582 0.929 . S
H615 C583 0.930 . S
Li616 N633 1.990 1_565 S
Li616 O676 1.956 . S
Li616 O677 1.970 . S
Li616 O678 1.961 . S
Li617 N641 1.990 . S
Li617 O676 1.970 . S
Li617 O677 1.956 . S
Li617 O679 1.961 . S
Li618 N663 1.990 . S
Li618 O676 1.961 . S
Li618 O678 1.956 . S
Li618 O679 1.970 . S
Li619 N669 1.990 . S
Li619 O677 1.961 . S
Li619 O678 1.970 . S
Li619 O679 1.956 . S
C620 C622 1.348 . S
C620 C623 1.356 . S
C620 O676 1.325 1_545 S
N621 C624 1.314 . S
N621 C625 1.279 . S
C622 C620 1.348 . S
C622 C624 1.353 . S
C622 H680 0.929 . S
C623 C620 1.356 . S
C623 C625 1.358 . S
C623 H681 0.930 . S
C624 N621 1.314 . S
C624 C622 1.353 . S
C624 H682 0.930 . S
C625 N621 1.279 . S
C625 C623 1.358 . S
C625 H683 0.930 . S
C626 C629 1.348 . S
C626 C630 1.356 . S
C626 O677 1.325 . S
C627 N628 1.279 . S
C627 C630 1.358 . S
C627 H684 0.930 . S
N628 C627 1.279 . S
N628 C631 1.314 . S
C629 C626 1.348 . S
C629 C631 1.353 . S
C629 H685 0.929 1_565 S
C630 C626 1.356 . S
C630 C627 1.358 . S
C630 H686 0.930 . S
C631 N628 1.314 . S
C631 C629 1.353 . S
C631 H687 0.930 1_565 S
C632 N633 1.314 . S
C632 C637 1.353 . S
C632 H638 0.930 . S
N633 Li616 1.990 1_545 S
N633 C632 1.314 . S
N633 C635 1.279 . S
C634 C635 1.358 . S
C634 C636 1.356 . S
C634 H688 0.930 . S
C635 N633 1.279 . S
C635 C634 1.358 . S
C635 H639 0.930 . S
C636 C634 1.356 . S
C636 C637 1.348 . S
C637 C632 1.353 . S
C637 C636 1.348 . S
C637 H689 0.929 . S
H638 C632 0.930 . S
H639 C635 0.930 . S
C640 N641 1.314 . S
C640 C642 1.353 . S
C640 H646 0.930 . S
N641 Li617 1.990 . S
N641 C640 1.314 . S
N641 C644 1.279 . S
C642 C640 1.353 . S
C642 C645 1.348 . S
C642 H690 0.929 . S
C643 C644 1.358 . S
C643 C645 1.356 . S
C643 H691 0.930 . S
C644 N641 1.279 . S
C644 C643 1.358 . S
C644 H647 0.930 . S
C645 C642 1.348 . S
C645 C643 1.356 . S
H646 C640 0.930 . S
H647 C644 0.930 . S
C648 C650 1.348 . S
C648 C651 1.356 . S
C648 O678 1.325 . S
N649 C652 1.314 . S
N649 C653 1.279 . S
C650 C648 1.348 . S
C650 C652 1.353 . S
C650 H692 0.929 . S
C651 C648 1.356 . S
C651 C653 1.358 . S
C651 H693 0.930 . S
C652 N649 1.314 . S
C652 C650 1.353 . S
C652 H694 0.930 . S
C653 N649 1.279 . S
C653 C651 1.358 . S
C653 H695 0.930 . S
C654 C655 1.348 . S
C654 C656 1.356 . S
C654 O679 1.325 . S
C655 C654 1.348 . S
C655 C657 1.353 . S
C655 H696 0.929 . S
C656 C654 1.356 . S
C656 C658 1.358 . S
C656 H697 0.930 . S
C657 C655 1.353 . S
C657 N659 1.314 . S
C657 H698 0.930 . S
C658 C656 1.358 . S
C658 N659 1.279 . S
C658 H699 0.930 . S
N659 C657 1.314 . S
N659 C658 1.279 . S
C660 C662 1.353 . S
C660 N663 1.314 . S
C660 H666 0.930 . S
C661 N663 1.279 . S
C661 C664 1.358 . S
C661 H667 0.930 . S
C662 C660 1.353 . S
C662 C665 1.348 . S
C662 H700 0.929 . S
N663 Li618 1.990 . S
N663 C660 1.314 . S
N663 C661 1.279 . S
C664 C661 1.358 . S
C664 C665 1.356 . S
C664 H701 0.930 . S
C665 C662 1.348 . S
C665 C664 1.356 . S
H666 C660 0.930 . S
H667 C661 0.930 . S
C668 N669 1.314 . S
C668 C670 1.353 . S
C668 H674 0.930 . S
N669 Li619 1.990 . S
N669 C668 1.314 . S
N669 C672 1.279 . S
C670 C668 1.353 . S
C670 C673 1.348 . S
C670 H702 0.929 . S
C671 C672 1.358 . S
C671 C673 1.356 . S
C671 H703 0.930 . S
C672 N669 1.279 . S
C672 C671 1.358 . S
C672 H675 0.930 . S
C673 C670 1.348 . S
C673 C671 1.356 . S
H674 C668 0.930 . S
H675 C672 0.930 . S
O676 Li616 1.956 . S
O676 Li617 1.970 . S
O676 Li618 1.961 . S
O676 C620 1.325 1_565 S
O677 Li616 1.970 . S
O677 Li617 1.956 . S
O677 Li619 1.961 . S
O677 C626 1.325 . S
O678 Li616 1.961 . S
O678 Li618 1.956 . S
O678 Li619 1.970 . S
O678 C648 1.325 . S
O679 Li617 1.961 . S
O679 Li618 1.970 . S
O679 Li619 1.956 . S
O679 C654 1.325 . S
H680 C622 0.929 . S
H681 C623 0.930 . S
H682 C624 0.930 . S
H683 C625 0.930 . S
H684 C627 0.930 . S
H685 C629 0.929 1_545 S
H686 C630 0.930 . S
H687 C631 0.930 1_545 S
H688 C634 0.930 . S
H689 C637 0.929 . S
H690 C642 0.929 . S
H691 C643 0.930 . S
H692 C650 0.929 . S
H693 C651 0.930 . S
H694 C652 0.930 . S
H695 C653 0.930 . S
H696 C655 0.929 . S
H697 C656 0.930 . S
H698 C657 0.930 . S
H699 C658 0.930 . S
H700 C662 0.929 . S
H701 C664 0.930 . S
H702 C670 0.929 . S
H703 C671 0.930 . S
C704 C705 1.363 . S
C704 C710 1.379 1_554 S
C704 N712 1.356 . S
C705 C704 1.363 . S
C705 C711 1.363 . S
C706 C707 1.357 1_554 S
C706 C711 1.385 . S
C706 N713 1.354 1_554 S
C707 C706 1.357 1_556 S
C707 C710 1.363 . S
N708 C710 1.356 . S
N708 H720 0.984 . S
N708 H721 0.985 . S
N709 C711 1.356 . S
N709 H714 0.984 . S
N709 H715 0.985 . S
C710 C704 1.379 1_556 S
C710 C707 1.363 . S
C710 N708 1.356 . S
C711 C705 1.363 . S
C711 C706 1.385 . S
C711 N709 1.356 . S
N712 C704 1.356 . S
N712 H718 0.984 1_554 S
N712 H719 0.984 . S
N713 C706 1.354 1_556 S
N713 H716 0.984 . S
N713 H717 0.985 1_556 S
H714 N709 0.984 . S
H715 N709 0.985 . S
H716 N713 0.984 . S
H717 N713 0.985 1_554 S
H718 N712 0.984 1_556 S
H719 N712 0.984 . S
H720 N708 0.984 . S
H721 N708 0.985 . S
C722 C723 1.363 . S
C722 C728 1.379 . S
C722 N730 1.356 . S
C723 C722 1.363 . S
C723 C729 1.363 . S
C724 C725 1.363 . S
C724 C729 1.379 . S
C724 N731 1.356 . S
C725 C724 1.363 . S
C725 C728 1.363 . S
N726 C728 1.356 . S
N726 H738 0.984 . S
N726 H739 0.985 . S
N727 C729 1.356 . S
N727 H732 0.984 . S
N727 H733 0.985 . S
C728 C722 1.379 . S
C728 C725 1.363 . S
C728 N726 1.356 . S
C729 C723 1.363 . S
C729 C724 1.379 . S
C729 N727 1.356 . S
N730 C722 1.356 . S
N730 H736 0.984 . S
N730 H737 0.984 . S
N731 C724 1.356 . S
N731 H734 0.984 . S
N731 H735 0.985 . S
H732 N727 0.984 . S
H733 N727 0.985 . S
H734 N731 0.984 . S
H735 N731 0.985 . S
H736 N730 0.984 . S
H737 N730 0.984 . S
H738 N726 0.984 . S
H739 N726 0.985 . S
C740 C741 1.363 . S
C740 C746 1.379 . S
C740 N748 1.356 . S
C741 C740 1.363 . S
C741 C747 1.370 . S
C742 C743 1.363 . S
C742 C747 1.372 1_556 S
C742 N749 1.356 . S
C743 C742 1.363 . S
C743 C746 1.363 1_556 S
N744 C746 1.356 1_556 S
N744 H756 0.984 1_556 S
N744 H757 0.985 . S
N745 C747 1.358 . S
N745 H750 0.984 . S
N745 H751 0.985 1_554 S
C746 C740 1.379 . S
C746 C743 1.363 1_554 S
C746 N744 1.356 1_554 S
C747 C741 1.370 . S
C747 C742 1.372 1_554 S
C747 N745 1.358 . S
N748 C740 1.356 . S
N748 H754 0.984 . S
N748 H755 0.984 . S
N749 C742 1.356 . S
N749 H752 0.984 . S
N749 H753 0.985 . S
H750 N745 0.984 . S
H751 N745 0.985 1_556 S
H752 N749 0.984 . S
H753 N749 0.985 . S
H754 N748 0.984 . S
H755 N748 0.984 . S
H756 N744 0.984 1_554 S
H757 N744 0.985 . S
C758 C759 1.363 . S
C758 C764 1.379 . S
C758 N766 1.356 . S
C759 C758 1.363 . S
C759 C765 1.363 . S
C760 C761 1.363 . S
C760 C765 1.379 . S
C760 N767 1.356 . S
C761 C760 1.363 . S
C761 C764 1.363 . S
N762 C764 1.356 . S
N762 H774 0.984 . S
N762 H775 0.985 . S
N763 C765 1.356 . S
N763 H768 0.984 . S
N763 H769 0.985 . S
C764 C758 1.379 . S
C764 C761 1.363 . S
C764 N762 1.356 . S
C765 C759 1.363 . S
C765 C760 1.379 . S
C765 N763 1.356 . S
N766 C758 1.356 . S
N766 H772 0.984 . S
N766 H773 0.984 . S
N767 C760 1.356 . S
N767 H770 0.984 . S
N767 H771 0.985 . S
H768 N763 0.984 . S
H769 N763 0.985 . S
H770 N767 0.984 . S
H771 N767 0.985 . S
H772 N766 0.984 . S
H773 N766 0.984 . S
H774 N762 0.984 . S
H775 N762 0.985 . S
C776 C777 1.363 . S
C776 C782 1.379 . S
C776 N784 1.356 . S
C777 C776 1.363 . S
C777 C783 1.363 . S
C778 C779 1.363 . S
C778 C783 1.379 . S
C778 N785 1.356 . S
C779 C778 1.363 . S
C779 C782 1.363 . S
N780 C782 1.356 . S
N780 H792 0.984 . S
N780 H793 0.985 . S
N781 C783 1.356 . S
N781 H786 0.984 . S
N781 H787 0.985 . S
C782 C776 1.379 . S
C782 C779 1.363 . S
C782 N780 1.356 . S
C783 C777 1.363 . S
C783 C778 1.379 . S
C783 N781 1.356 . S
N784 C776 1.356 . S
N784 H790 0.984 . S
N784 H791 0.984 . S
N785 C778 1.356 . S
N785 H788 0.984 . S
N785 H789 0.985 . S
H786 N781 0.984 . S
H787 N781 0.985 . S
H788 N785 0.984 . S
H789 N785 0.985 . S
H790 N784 0.984 . S
H791 N784 0.984 . S
H792 N780 0.984 . S
H793 N780 0.985 . S
C794 C795 1.363 . S
C794 C800 1.379 . S
C794 N802 1.356 . S
C795 C794 1.363 . S
C795 C801 1.363 . S
C796 C797 1.363 . S
C796 C801 1.379 . S
C796 N803 1.356 . S
C797 C796 1.363 . S
C797 C800 1.363 . S
N798 C800 1.356 . S
N798 H810 0.984 . S
N798 H811 0.985 . S
N799 C801 1.356 . S
N799 H804 0.984 . S
N799 H805 0.985 . S
C800 C794 1.379 . S
C800 C797 1.363 . S
C800 N798 1.356 . S
C801 C795 1.363 . S
C801 C796 1.379 . S
C801 N799 1.356 . S
N802 C794 1.356 . S
N802 H808 0.984 . S
N802 H809 0.984 . S
N803 C796 1.356 . S
N803 H806 0.984 . S
N803 H807 0.985 . S
H804 N799 0.984 . S
H805 N799 0.985 . S
H806 N803 0.984 . S
H807 N803 0.985 . S
H808 N802 0.984 . S
H809 N802 0.984 . S
H810 N798 0.984 . S
H811 N798 0.985 . S
C812 C813 1.363 . S
C812 C818 1.379 . S
C812 N820 1.356 . S
C813 C812 1.363 . S
C813 C819 1.363 . S
C814 C815 1.363 . S
C814 C819 1.379 . S
C814 N821 1.356 . S
C815 C814 1.363 . S
C815 C818 1.363 . S
N816 C818 1.356 . S
N816 H828 0.984 . S
N816 H829 0.985 . S
N817 C819 1.356 . S
N817 H822 0.984 . S
N817 H823 0.985 . S
C818 C812 1.379 . S
C818 C815 1.363 . S
C818 N816 1.356 . S
C819 C813 1.363 . S
C819 C814 1.379 . S
C819 N817 1.356 . S
N820 C812 1.356 . S
N820 H826 0.984 . S
N820 H827 0.984 . S
N821 C814 1.356 . S
N821 H824 0.984 . S
N821 H825 0.985 . S
H822 N817 0.984 . S
H823 N817 0.985 . S
H824 N821 0.984 . S
H825 N821 0.985 . S
H826 N820 0.984 . S
H827 N820 0.984 . S
H828 N816 0.984 . S
H829 N816 0.985 . S
C830 C831 1.363 . S
C830 C836 1.379 . S
C830 N838 1.356 . S
C831 C830 1.363 . S
C831 C837 1.363 . S
C832 C833 1.363 . S
C832 C837 1.379 . S
C832 N839 1.356 . S
C833 C832 1.363 . S
C833 C836 1.363 . S
N834 C836 1.356 . S
N834 H846 0.984 . S
N834 H847 0.985 . S
N835 C837 1.356 . S
N835 H840 0.984 . S
N835 H841 0.985 . S
C836 C830 1.379 . S
C836 C833 1.363 . S
C836 N834 1.356 . S
C837 C831 1.363 . S
C837 C832 1.379 . S
C837 N835 1.356 . S
N838 C830 1.356 . S
N838 H844 0.984 . S
N838 H845 0.984 . S
N839 C832 1.356 . S
N839 H842 0.984 . S
N839 H843 0.985 . S
H840 N835 0.984 . S
H841 N835 0.985 . S
H842 N839 0.984 . S
H843 N839 0.985 . S
H844 N838 0.984 . S
H845 N838 0.984 . S
H846 N834 0.984 . S
H847 N834 0.985 . S
C848 C849 1.363 . S
C848 C854 1.379 . S
C848 N856 1.356 . S
C849 C848 1.363 . S
C849 C855 1.363 . S
C850 C851 1.363 . S
C850 C855 1.379 . S
C850 N857 1.356 . S
C851 C850 1.363 . S
C851 C854 1.363 . S
N852 C854 1.356 . S
N852 H864 0.984 . S
N852 H865 0.985 . S
N853 C855 1.356 . S
N853 H858 0.984 . S
N853 H859 0.985 . S
C854 C848 1.379 . S
C854 C851 1.363 . S
C854 N852 1.356 . S
C855 C849 1.363 . S
C855 C850 1.379 . S
C855 N853 1.356 . S
N856 C848 1.356 . S
N856 H862 0.984 . S
N856 H863 0.984 . S
N857 C850 1.356 . S
N857 H860 0.984 . S
N857 H861 0.985 . S
H858 N853 0.984 . S
H859 N853 0.985 . S
H860 N857 0.984 . S
H861 N857 0.985 . S
H862 N856 0.984 . S
H863 N856 0.984 . S
H864 N852 0.984 . S
H865 N852 0.985 . S
C866 C867 1.363 . S
C866 C872 1.379 . S
C866 N874 1.356 . S
C867 C866 1.363 . S
C867 C873 1.363 . S
C868 C869 1.363 . S
C868 C873 1.379 . S
C868 N875 1.356 . S
C869 C868 1.363 . S
C869 C872 1.363 . S
N870 C872 1.356 . S
N870 H882 0.984 . S
N870 H883 0.985 . S
N871 C873 1.356 . S
N871 H876 0.984 . S
N871 H877 0.985 . S
C872 C866 1.379 . S
C872 C869 1.363 . S
C872 N870 1.356 . S
C873 C867 1.363 . S
C873 C868 1.379 . S
C873 N871 1.356 . S
N874 C866 1.356 . S
N874 H880 0.984 . S
N874 H881 0.984 . S
N875 C868 1.356 . S
N875 H878 0.984 . S
N875 H879 0.985 . S
H876 N871 0.984 . S
H877 N871 0.985 . S
H878 N875 0.984 . S
H879 N875 0.985 . S
H880 N874 0.984 . S
H881 N874 0.984 . S
H882 N870 0.984 . S
H883 N870 0.985 . S
C884 C885 1.363 . S
C884 C890 1.379 . S
C884 N892 1.356 . S
C885 C884 1.363 . S
C885 C891 1.363 . S
C886 C887 1.363 . S
C886 C891 1.379 . S
C886 N893 1.356 . S
C887 C886 1.363 . S
C887 C890 1.363 . S
N888 C890 1.356 . S
N888 H900 0.984 . S
N888 H901 0.985 . S
N889 C891 1.356 . S
N889 H894 0.984 . S
N889 H895 0.985 . S
C890 C884 1.379 . S
C890 C887 1.363 . S
C890 N888 1.356 . S
C891 C885 1.363 . S
C891 C886 1.379 . S
C891 N889 1.356 . S
N892 C884 1.356 . S
N892 H898 0.984 . S
N892 H899 0.984 . S
N893 C886 1.356 . S
N893 H896 0.984 . S
N893 H897 0.985 . S
H894 N889 0.984 . S
H895 N889 0.985 . S
H896 N893 0.984 . S
H897 N893 0.985 . S
H898 N892 0.984 . S
H899 N892 0.984 . S
H900 N888 0.984 . S
H901 N888 0.985 . S
C902 C903 1.363 . S
C902 C908 1.379 . S
C902 N910 1.356 . S
C903 C902 1.363 . S
C903 C909 1.363 . S
C904 C905 1.363 . S
C904 C909 1.379 . S
C904 N911 1.356 . S
C905 C904 1.363 . S
C905 C908 1.363 . S
N906 C908 1.356 . S
N906 H918 0.984 . S
N906 H919 0.985 . S
N907 C909 1.356 . S
N907 H912 0.984 . S
N907 H913 0.985 . S
C908 C902 1.379 . S
C908 C905 1.363 . S
C908 N906 1.356 . S
C909 C903 1.363 . S
C909 C904 1.379 . S
C909 N907 1.356 . S
N910 C902 1.356 . S
N910 H916 0.984 . S
N910 H917 0.984 . S
N911 C904 1.356 . S
N911 H914 0.984 . S
N911 H915 0.985 . S
H912 N907 0.984 . S
H913 N907 0.985 . S
H914 N911 0.984 . S
H915 N911 0.985 . S
H916 N910 0.984 . S
H917 N910 0.984 . S
H918 N906 0.984 . S
H919 N906 0.985 . S
C920 C921 1.363 . S
C920 C926 1.379 1_655 S
C920 N928 1.356 . S
C921 C920 1.363 . S
C921 C927 1.363 . S
C922 C923 1.363 . S
C922 C927 1.379 1_455 S
C922 N929 1.356 . S
C923 C922 1.363 . S
C923 C926 1.363 . S
N924 C926 1.356 . S
N924 H936 0.990 . S
N924 H937 0.985 . S
N925 C927 1.356 . S
N925 H930 0.984 . S
N925 H931 0.990 . S
C926 C920 1.379 1_455 S
C926 C923 1.363 . S
C926 N924 1.356 . S
C927 C921 1.363 . S
C927 C922 1.379 1_655 S
C927 N925 1.356 . S
N928 C920 1.356 . S
N928 H934 0.984 . S
N928 H935 0.984 . S
N929 C922 1.356 . S
N929 H932 0.984 . S
N929 H933 0.985 . S
H930 N925 0.984 . S
H931 N925 0.990 . S
H932 N929 0.984 . S
H933 N929 0.985 . S
H934 N928 0.984 . S
H935 N928 0.984 . S
H936 N924 0.990 . S
H937 N924 0.985 . S
C938 C939 1.363 1_455 S
C938 C944 1.379 . S
C938 N946 1.356 1_455 S
C939 C938 1.363 1_655 S
C939 C945 1.363 . S
C940 C941 1.363 1_655 S
C940 C945 1.379 . S
C940 N947 1.356 1_655 S
C941 C940 1.363 1_455 S
C941 C944 1.363 . S
N942 C944 1.356 . S
N942 H954 0.984 . S
N942 H955 0.985 . S
N943 C945 1.356 . S
N943 H948 0.984 . S
N943 H949 0.985 . S
C944 C938 1.379 . S
C944 C941 1.363 . S
C944 N942 1.356 . S
C945 C939 1.363 . S
C945 C940 1.379 . S
C945 N943 1.356 . S
N946 C938 1.356 1_655 S
N946 H952 0.984 1_655 S
N946 H953 0.984 . S
N947 C940 1.356 1_455 S
N947 H950 0.984 . S
N947 H951 0.985 1_455 S
H948 N943 0.984 . S
H949 N943 0.985 . S
H950 N947 0.984 . S
H951 N947 0.985 1_655 S
H952 N946 0.984 1_455 S
H953 N946 0.984 . S
H954 N942 0.984 . S
H955 N942 0.985 . S
C956 C957 1.363 1_565 S
C956 C962 1.379 . S
C956 N964 1.356 1_565 S
C957 C956 1.363 1_545 S
C957 C963 1.363 . S
C958 C959 1.363 1_545 S
C958 C963 1.379 . S
C958 N965 1.356 1_545 S
C959 C958 1.363 1_565 S
C959 C962 1.363 . S
N960 C962 1.356 . S
N960 H972 0.984 . S
N960 H973 0.985 . S
N961 C963 1.356 . S
N961 H966 0.984 . S
N961 H967 0.985 . S
C962 C956 1.379 . S
C962 C959 1.363 . S
C962 N960 1.356 . S
C963 C957 1.363 . S
C963 C958 1.379 . S
C963 N961 1.356 . S
N964 C956 1.356 1_545 S
N964 H970 0.984 1_545 S
N964 H971 0.984 . S
N965 C958 1.356 1_565 S
N965 H968 0.984 . S
N965 H969 0.985 1_565 S
H966 N961 0.984 . S
H967 N961 0.985 . S
H968 N965 0.984 . S
H969 N965 0.985 1_545 S
H970 N964 0.984 1_565 S
H971 N964 0.984 . S
H972 N960 0.984 . S
H973 N960 0.985 . S
C974 C975 1.363 . S
C974 C980 1.379 1_545 S
C974 N982 1.356 . S
C975 C974 1.363 . S
C975 C981 1.363 . S
C976 C977 1.363 . S
C976 C981 1.379 1_565 S
C976 N983 1.356 . S
C977 C976 1.363 . S
C977 C980 1.363 . S
N978 C980 1.356 . S
N978 H990 0.984 . S
N978 H991 0.985 . S
N979 C981 1.356 . S
N979 H984 0.984 . S
N979 H985 0.985 . S
C980 C974 1.379 1_565 S
C980 C977 1.363 . S
C980 N978 1.356 . S
C981 C975 1.363 . S
C981 C976 1.379 1_545 S
C981 N979 1.356 . S
N982 C974 1.356 . S
N982 H988 0.984 1_545 S
N982 H989 0.984 . S
N983 C976 1.356 . S
N983 H986 0.984 . S
N983 H987 0.985 1_565 S
H984 N979 0.984 . S
H985 N979 0.985 . S
H986 N983 0.984 . S
H987 N983 0.985 1_545 S
H988 N982 0.984 1_565 S
H989 N982 0.984 . S
H990 N978 0.984 . S
H991 N978 0.985 . S
C705 C49 1.375 . S
C707 C469 1.378 . S
C723 C108 1.378 . S
C725 C557 1.375 . S
C741 C233 1.375 . S
C743 C665 1.378 . S
C759 C381 1.375 . S
C761 C313 1.378 . S
C777 C29 2.124 . S
C779 C372 2.013 . S
C795 C117 2.114 . S
C797 C497 2.018 . S
C813 C548 2.013 . S
C815 C196 2.124 . S
C831 C321 2.114 . S
C833 C636 2.018 . S
C849 C401 2.124 . S
C851 C57 2.013 . S
C867 C137 2.018 . S
C869 C460 2.114 . S
C885 C577 2.124 . S
C887 C225 2.013 . S
C903 C284 2.018 . S
C905 C673 2.114 . S
C921 C205 0.589 . S
C923 C20 0.589 . S
C939 C293 0.573 . S
C941 C145 0.573 . S
C957 C409 0.589 . S
C959 C585 0.589 . S
C975 C489 0.573 . S
C977 C645 0.573 . S
