# Generated by pormake.
# Topology ukk, (4)-cn, num edge types: 1
# Building blocks:
#     Node 0, Type 0, BuildingBlock: MUDLON_clean_sbu_0, # of connection points: 4
#     Node 1, Type 0, BuildingBlock: MUDLON_clean_sbu_0, # of connection points: 4
#     Node 2, Type 0, BuildingBlock: MUDLON_clean_sbu_0, # of connection points: 4
#     Node 3, Type 0, BuildingBlock: MUDLON_clean_sbu_0, # of connection points: 4
#     Node 4, Type 0, BuildingBlock: MUDLON_clean_sbu_0, # of connection points: 4
#     Node 5, Type 0, BuildingBlock: MUDLON_clean_sbu_0, # of connection points: 4
#     Node 6, Type 0, BuildingBlock: MUDLON_clean_sbu_0, # of connection points: 4
#     Node 7, Type 0, BuildingBlock: MUDLON_clean_sbu_0, # of connection points: 4
#     Node 8, Type 0, BuildingBlock: MUDLON_clean_sbu_0, # of connection points: 4
#     Node 9, Type 0, BuildingBlock: MUDLON_clean_sbu_0, # of connection points: 4
#     Node 10, Type 0, BuildingBlock: MUDLON_clean_sbu_0, # of connection points: 4
#     Node 11, Type 0, BuildingBlock: MUDLON_clean_sbu_0, # of connection points: 4
#     Node 12, Type 0, BuildingBlock: MUDLON_clean_sbu_0, # of connection points: 4
#     Node 13, Type 0, BuildingBlock: MUDLON_clean_sbu_0, # of connection points: 4
#     Node 14, Type 0, BuildingBlock: MUDLON_clean_sbu_0, # of connection points: 4
#     Node 15, Type 0, BuildingBlock: MUDLON_clean_sbu_0, # of connection points: 4
#     Edge 16, Type (0, 0), BuildingBlock: OJICUG_clean_linker_0, # of connection points: 2
#     Edge 17, Type (0, 0), BuildingBlock: OJICUG_clean_linker_0, # of connection points: 2
#     Edge 18, Type (0, 0), BuildingBlock: OJICUG_clean_linker_0, # of connection points: 2
#     Edge 19, Type (0, 0), BuildingBlock: OJICUG_clean_linker_0, # of connection points: 2
#     Edge 20, Type (0, 0), BuildingBlock: OJICUG_clean_linker_0, # of connection points: 2
#     Edge 21, Type (0, 0), BuildingBlock: OJICUG_clean_linker_0, # of connection points: 2
#     Edge 22, Type (0, 0), BuildingBlock: OJICUG_clean_linker_0, # of connection points: 2
#     Edge 23, Type (0, 0), BuildingBlock: OJICUG_clean_linker_0, # of connection points: 2
#     Edge 24, Type (0, 0), BuildingBlock: OJICUG_clean_linker_0, # of connection points: 2
#     Edge 25, Type (0, 0), BuildingBlock: OJICUG_clean_linker_0, # of connection points: 2
#     Edge 26, Type (0, 0), BuildingBlock: OJICUG_clean_linker_0, # of connection points: 2
#     Edge 27, Type (0, 0), BuildingBlock: OJICUG_clean_linker_0, # of connection points: 2
#     Edge 28, Type (0, 0), BuildingBlock: OJICUG_clean_linker_0, # of connection points: 2
#     Edge 29, Type (0, 0), BuildingBlock: OJICUG_clean_linker_0, # of connection points: 2
#     Edge 30, Type (0, 0), BuildingBlock: OJICUG_clean_linker_0, # of connection points: 2
#     Edge 31, Type (0, 0), BuildingBlock: OJICUG_clean_linker_0, # of connection points: 2
#     Edge 32, Type (0, 0), BuildingBlock: OJICUG_clean_linker_0, # of connection points: 2
#     Edge 33, Type (0, 0), BuildingBlock: OJICUG_clean_linker_0, # of connection points: 2
#     Edge 34, Type (0, 0), BuildingBlock: OJICUG_clean_linker_0, # of connection points: 2
#     Edge 35, Type (0, 0), BuildingBlock: OJICUG_clean_linker_0, # of connection points: 2
#     Edge 36, Type (0, 0), BuildingBlock: OJICUG_clean_linker_0, # of connection points: 2
#     Edge 37, Type (0, 0), BuildingBlock: OJICUG_clean_linker_0, # of connection points: 2
#     Edge 38, Type (0, 0), BuildingBlock: OJICUG_clean_linker_0, # of connection points: 2
#     Edge 39, Type (0, 0), BuildingBlock: OJICUG_clean_linker_0, # of connection points: 2
#     Edge 40, Type (0, 0), BuildingBlock: OJICUG_clean_linker_0, # of connection points: 2
#     Edge 41, Type (0, 0), BuildingBlock: OJICUG_clean_linker_0, # of connection points: 2
#     Edge 42, Type (0, 0), BuildingBlock: OJICUG_clean_linker_0, # of connection points: 2
#     Edge 43, Type (0, 0), BuildingBlock: OJICUG_clean_linker_0, # of connection points: 2
#     Edge 44, Type (0, 0), BuildingBlock: OJICUG_clean_linker_0, # of connection points: 2
#     Edge 45, Type (0, 0), BuildingBlock: OJICUG_clean_linker_0, # of connection points: 2
#     Edge 46, Type (0, 0), BuildingBlock: OJICUG_clean_linker_0, # of connection points: 2
#     Edge 47, Type (0, 0), BuildingBlock: OJICUG_clean_linker_0, # of connection points: 2
# Relax obj value: 0.000
# Max RMSD: 0.074
# Mean RMSD: 0.074
data_MOF--net-ukk--node1-MUDLON_clean_sbu_0--edge1-OJICUG_clean_linker_0
_symmetry_space_group_name_H-M    P1
_symmetry_Int_Tables_number       1
_symmetry_cell_setting            triclinic
loop_
_symmetry_equiv_pos_as_xyz
'x, y, z'
_cell_length_a     43.962949
_cell_length_b     43.948614
_cell_length_c     7.0032281
_cell_angle_alpha  89.996186
_cell_angle_beta   90.017037
_cell_angle_gamma 89.984244
loop_
_atom_site_label
_atom_site_type_symbol
_atom_site_fract_x
_atom_site_fract_y
_atom_site_fract_z
_atom_type_partial_charge
Mg0 Mg 0.39309 0.13862 0.12768 0.0
C1 C 0.3843 0.2047 0.0642 0.0
O2 O 0.38057 0.19299 0.89313 0.0
C3 C 0.40979 0.08745 0.40353 0.0
O4 O 0.43731 0.09407 0.34354 0.0
C5 C 0.32814 0.13358 0.04971 0.0
O6 O 0.33027 0.14029 0.2321 0.0
O7 O 0.35263 0.13066 0.95361 0.0
O8 O 0.38981 0.18678 0.20342 0.0
O9 O 0.43839 0.13042 0.00428 0.0
C10 C 0.4578 0.15191 0.99364 0.0
O11 O 0.44887 0.17982 0.02978 0.0
O12 O 0.38781 0.10467 0.35442 0.0
Mg13 Mg 0.13901 0.64194 0.86802 0.0
C14 C 0.20511 0.65129 0.91868 0.0
O15 O 0.19394 0.65478 0.09135 0.0
C16 C 0.08349 0.65582 0.61645 0.0
O17 O 0.08624 0.68268 0.69644 0.0
C18 C 0.13749 0.70877 0.93164 0.0
O19 O 0.1495 0.70611 0.76061 0.0
O20 O 0.12994 0.6846 0.02098 0.0
O21 O 0.18678 0.64557 0.78199 0.0
O22 O 0.13378 0.59868 0.02283 0.0
C23 C 0.15509 0.57897 0.01992 0.0
O24 O 0.18181 0.58702 0.95345 0.0
O25 O 0.10407 0.63595 0.64612 0.0
Mg26 Mg 0.64476 0.90037 0.13007 0.0
C27 C 0.65126 0.83529 0.089 0.0
O28 O 0.64778 0.84641 0.91612 0.0
C29 C 0.62616 0.95327 0.40637 0.0
O30 O 0.59812 0.94372 0.38194 0.0
C31 C 0.70876 0.91092 0.03877 0.0
O32 O 0.70721 0.91198 0.22605 0.0
O33 O 0.6842 0.90697 0.94471 0.0
O34 O 0.65164 0.85382 0.2293 0.0
O35 O 0.59902 0.89694 0.00737 0.0
C36 C 0.57969 0.91761 0.96831 0.0
O37 O 0.58799 0.9463 0.97605 0.0
O38 O 0.64802 0.93801 0.33494 0.0
Mg39 Mg 0.90254 0.39411 0.89569 0.0
C40 C 0.83625 0.3871 0.94624 0.0
O41 O 0.84728 0.38487 0.12014 0.0
C42 C 0.95502 0.41221 0.6334 0.0
O43 O 0.9478 0.43941 0.69657 0.0
C44 C 0.9116 0.32878 0.97364 0.0
O45 O 0.91252 0.33083 0.78654 0.0
O46 O 0.90856 0.35319 0.07066 0.0
O47 O 0.85479 0.39108 0.80822 0.0
O48 O 0.90997 0.43926 0.02509 0.0
C49 C 0.88881 0.45909 0.01906 0.0
O50 O 0.86173 0.45067 0.96064 0.0
O51 O 0.93794 0.3898 0.67653 0.0
Mg52 Mg 0.39485 0.40082 0.11724 0.0
C53 C 0.38816 0.3358 0.15868 0.0
O54 O 0.39159 0.34697 0.33145 0.0
C55 C 0.41365 0.45386 0.84261 0.0
O56 O 0.44168 0.4444 0.86883 0.0
C57 C 0.33082 0.4114 0.20718 0.0
O58 O 0.33248 0.41241 0.01993 0.0
O59 O 0.35533 0.40749 0.30185 0.0
O60 O 0.38788 0.35428 0.01811 0.0
O61 O 0.44055 0.39718 0.24049 0.0
C62 C 0.45994 0.41769 0.28115 0.0
O63 O 0.4518 0.44643 0.27473 0.0
O64 O 0.39173 0.4385 0.91239 0.0
Mg65 Mg 0.40229 0.64624 0.85908 0.0
C66 C 0.33596 0.653 0.80793 0.0
O67 O 0.34697 0.6551 0.63396 0.0
C68 C 0.45458 0.62834 0.12361 0.0
O69 O 0.44721 0.60107 0.06253 0.0
C70 C 0.41148 0.71147 0.77712 0.0
O71 O 0.41254 0.70976 0.96433 0.0
O72 O 0.40829 0.68691 0.68191 0.0
O73 O 0.35452 0.64925 0.94614 0.0
O74 O 0.40985 0.60099 0.73134 0.0
C75 C 0.38874 0.58112 0.738 0.0
O76 O 0.36165 0.58952 0.79637 0.0
O77 O 0.43765 0.65078 0.07841 0.0
Mg78 Mg 0.64591 0.63815 0.12385 0.0
C79 C 0.65487 0.70423 0.18572 0.0
O80 O 0.65869 0.69259 0.35691 0.0
C81 C 0.62915 0.58678 0.84959 0.0
O82 O 0.60166 0.59331 0.91059 0.0
C83 C 0.71088 0.63315 0.20041 0.0
O84 O 0.7086 0.63982 0.018 0.0
O85 O 0.68647 0.63025 0.29726 0.0
O86 O 0.64923 0.68626 0.04699 0.0
O87 O 0.60062 0.63012 0.2478 0.0
C88 C 0.58129 0.65169 0.25908 0.0
O89 O 0.59033 0.67958 0.22345 0.0
O90 O 0.65111 0.6041 0.89762 0.0
Mg91 Mg 0.63924 0.39728 0.88674 0.0
C92 C 0.70539 0.38818 0.83544 0.0
O93 O 0.69422 0.38485 0.6626 0.0
C94 C 0.58371 0.38312 0.137 0.0
O95 O 0.58635 0.35643 0.05457 0.0
C96 C 0.63771 0.33052 0.81911 0.0
O97 O 0.64971 0.33287 0.99038 0.0
O98 O 0.63019 0.35485 0.73136 0.0
O99 O 0.68704 0.39366 0.97238 0.0
O100 O 0.63385 0.44068 0.73385 0.0
C101 C 0.65508 0.46044 0.73773 0.0
O102 O 0.68182 0.45242 0.80428 0.0
O103 O 0.60437 0.40295 0.10923 0.0
Mg104 Mg 0.89463 0.63905 0.63701 0.0
C105 C 0.88821 0.70403 0.59118 0.0
O106 O 0.8916 0.69255 0.41921 0.0
C107 C 0.91344 0.58638 0.91469 0.0
O108 O 0.94146 0.5959 0.88899 0.0
C109 C 0.83052 0.62847 0.5486 0.0
O110 O 0.83227 0.62763 0.73586 0.0
O111 O 0.855 0.63225 0.45344 0.0
O112 O 0.88788 0.6858 0.73304 0.0
O113 O 0.94029 0.64226 0.5128 0.0
C114 C 0.95959 0.62156 0.47417 0.0
O115 O 0.95131 0.59287 0.48342 0.0
O116 O 0.89152 0.60162 0.84373 0.0
Mg117 Mg 0.63706 0.1457 0.39078 0.0
C118 C 0.70341 0.15254 0.43961 0.0
O119 O 0.69256 0.15456 0.61399 0.0
C120 C 0.58445 0.12799 0.1283 0.0
O121 O 0.59171 0.1007 0.18974 0.0
C122 C 0.62798 0.21088 0.47377 0.0
O123 O 0.62689 0.20921 0.28655 0.0
O124 O 0.63116 0.18629 0.56875 0.0
O125 O 0.68473 0.1488 0.30202 0.0
O126 O 0.6297 0.10039 0.51811 0.0
C127 C 0.65084 0.08056 0.51046 0.0
O128 O 0.67786 0.08903 0.45113 0.0
O129 O 0.60153 0.15035 0.17262 0.0
Mg130 Mg 0.14632 0.40154 0.63304 0.0
C131 C 0.15507 0.33556 0.56636 0.0
O132 O 0.15887 0.34753 0.39606 0.0
C133 C 0.12953 0.45255 0.90981 0.0
O134 O 0.10203 0.44595 0.84928 0.0
C135 C 0.21132 0.40665 0.55674 0.0
O136 O 0.20909 0.39983 0.73894 0.0
O137 O 0.18688 0.40963 0.46013 0.0
O138 O 0.14954 0.35328 0.70655 0.0
O139 O 0.10107 0.4099 0.50918 0.0
C140 C 0.08164 0.38844 0.49753 0.0
O141 O 0.09055 0.36048 0.53267 0.0
O142 O 0.15153 0.43534 0.86086 0.0
Mg143 Mg 0.40032 0.89793 0.3647 0.0
C144 C 0.33415 0.88868 0.41392 0.0
O145 O 0.34518 0.88532 0.58709 0.0
C146 C 0.45579 0.88367 0.11361 0.0
O147 O 0.45296 0.85686 0.19426 0.0
C148 C 0.4018 0.83118 0.43249 0.0
O149 O 0.38977 0.83356 0.2613 0.0
O150 O 0.40935 0.85549 0.52021 0.0
O151 O 0.35259 0.89425 0.27765 0.0
O152 O 0.40552 0.94133 0.51782 0.0
C153 C 0.38421 0.96103 0.51423 0.0
O154 O 0.3575 0.95294 0.44773 0.0
O155 O 0.43529 0.90362 0.14289 0.0
Mg156 Mg 0.89303 0.90129 0.60876 0.0
C157 C 0.88442 0.83532 0.67618 0.0
O158 O 0.8807 0.84732 0.84645 0.0
C159 C 0.90971 0.95222 0.33124 0.0
O160 O 0.93723 0.94558 0.39119 0.0
C161 C 0.82805 0.9063 0.68627 0.0
O162 O 0.83019 0.89945 0.50408 0.0
O163 O 0.85254 0.90935 0.78229 0.0
O164 O 0.88985 0.853 0.5357 0.0
O165 O 0.9383 0.90971 0.73218 0.0
C166 C 0.95778 0.88829 0.74338 0.0
O167 O 0.94895 0.86033 0.70784 0.0
O168 O 0.88772 0.93506 0.3808 0.0
Mg169 Mg 0.90032 0.14161 0.37304 0.0
C170 C 0.83416 0.151 0.32424 0.0
O171 O 0.84518 0.15455 0.15125 0.0
C172 C 0.95581 0.15559 0.62467 0.0
O173 O 0.95294 0.18249 0.54523 0.0
C174 C 0.90177 0.20844 0.30924 0.0
O175 O 0.88974 0.20577 0.48023 0.0
O176 O 0.90932 0.18427 0.21991 0.0
O177 O 0.85261 0.14523 0.46026 0.0
O178 O 0.9055 0.09833 0.21829 0.0
C179 C 0.88417 0.07867 0.22091 0.0
O180 O 0.85743 0.08676 0.28704 0.0
O181 O 0.93533 0.13566 0.59453 0.0
Mg182 Mg 0.14478 0.1393 0.60688 0.0
C183 C 0.15119 0.2043 0.65247 0.0
O184 O 0.14771 0.19285 0.82447 0.0
C185 C 0.12619 0.08665 0.32877 0.0
O186 O 0.09816 0.09619 0.35367 0.0
C187 C 0.20881 0.12871 0.69754 0.0
O188 O 0.20724 0.12781 0.51023 0.0
O189 O 0.18426 0.13252 0.7918 0.0
O190 O 0.15158 0.18604 0.51077 0.0
O191 O 0.09905 0.14247 0.72993 0.0
C192 C 0.0798 0.12171 0.76828 0.0
O193 O 0.08819 0.09305 0.75934 0.0
O194 O 0.14807 0.10187 0.40037 0.0
Mg195 Mg 0.13704 0.89434 0.34729 0.0
C196 C 0.20338 0.88733 0.29864 0.0
O197 O 0.19251 0.88512 0.12437 0.0
C198 C 0.08437 0.91234 0.6084 0.0
O199 O 0.09152 0.93955 0.54517 0.0
C200 C 0.12795 0.82905 0.26843 0.0
O201 O 0.12696 0.83105 0.45554 0.0
O202 O 0.13109 0.85348 0.17172 0.0
O203 O 0.18473 0.89128 0.43606 0.0
O204 O 0.12969 0.93953 0.21818 0.0
C205 C 0.15085 0.95935 0.22473 0.0
O206 O 0.17791 0.95088 0.28359 0.0
O207 O 0.10153 0.88997 0.5657 0.0
C208 C 0.36721 1.01541 0.52988 0.0
C209 C 0.39099 0.99399 0.53735 0.0
H210 H 0.35441 0.06189 0.48577 0.0
C211 C 0.42115 1.00463 0.53616 0.0
H212 H 0.34369 1.00807 0.53279 0.0
C213 C 0.42732 0.03562 0.50848 0.0
C214 C 0.40347 0.05662 0.48207 0.0
H215 H 0.44003 0.98883 0.54275 0.0
H216 H 0.45081 0.04274 0.49538 0.0
C217 C 0.37336 0.04637 0.50306 0.0
C218 C 0.04559 0.61603 0.513 0.0
C219 C 0.05363 0.64687 0.53351 0.0
H220 H 1.00949 0.5837 0.47633 0.0
C221 C 0.03122 0.66912 0.50135 0.0
H222 H 0.06228 0.59828 0.53603 0.0
C223 C 1.00101 0.66078 0.46682 0.0
C224 C 0.99237 0.62995 0.46412 0.0
H225 H 0.03664 0.69308 0.51361 0.0
H226 H 0.98413 0.67862 0.45347 0.0
C227 C 1.01525 0.60766 0.47888 0.0
C228 C 0.66211 0.99529 0.49405 0.0
C229 C 0.63208 0.98466 0.47693 0.0
H230 H 0.69152 0.03377 0.52158 0.0
C231 C 0.60807 1.0055 0.50251 0.0
H232 H 0.68119 0.9799 0.47745 0.0
C233 C 0.61402 0.03662 0.52784 0.0
C234 C 0.64412 0.04751 0.52827 0.0
H235 H 0.58464 0.99811 0.49127 0.0
H236 H 0.59504 0.0523 0.5351 0.0
C237 C 0.66804 0.02629 0.51937 0.0
C238 C 0.03773 0.42522 0.50365 0.0
C239 C 0.04851 0.3952 0.48758 0.0
H240 H 0.9996 0.4542 0.55954 0.0
C241 C 0.02723 0.37125 0.48834 0.0
H242 H 0.0534 0.44423 0.50251 0.0
C243 C 0.99634 0.37695 0.52117 0.0
C244 C 0.98596 0.40674 0.5543 0.0
H245 H 0.03464 0.34785 0.47425 0.0
H246 H 0.98094 0.35778 0.53182 0.0
C247 C 1.0068 0.43092 0.53666 0.0
C248 C 0.43171 0.50615 0.74764 0.0
C249 C 0.40772 0.48525 0.77196 0.0
H250 H 0.44464 0.55298 0.71589 0.0
C251 C 0.37768 0.49582 0.75342 0.0
H252 H 0.45514 0.49881 0.75999 0.0
C253 C 0.3717 0.52681 0.72796 0.0
C254 C 0.39558 0.54808 0.72029 0.0
H255 H 0.35863 0.48039 0.76904 0.0
H256 H 0.34821 0.53425 0.72465 0.0
C257 C 0.4257 0.53726 0.72214 0.0
C258 C 0.50627 0.60952 0.22181 0.0
C259 C 0.48553 0.63377 0.20266 0.0
H260 H 0.5528 0.59602 0.257 0.0
C261 C 0.49604 0.66356 0.23422 0.0
H262 H 0.49897 0.58624 0.2002 0.0
C263 C 0.52696 0.66915 0.26698 0.0
C264 C 0.54813 0.6451 0.26917 0.0
H265 H 0.48072 0.68278 0.22242 0.0
H266 H 0.53447 0.69253 0.27983 0.0
C267 C 0.53722 0.61512 0.2547 0.0
C268 C 0.6719 0.51487 0.72202 0.0
C269 C 0.64818 0.49338 0.71497 0.0
H270 H 0.68456 0.56138 0.76605 0.0
C271 C 0.61799 0.50394 0.71699 0.0
H272 H 0.69543 0.50759 0.7185 0.0
C273 C 0.61173 0.53491 0.74501 0.0
C274 C 0.63552 0.55597 0.77091 0.0
H275 H 0.59915 0.48809 0.71079 0.0
H276 H 0.58823 0.54196 0.75874 0.0
C277 C 0.66565 0.54581 0.74915 0.0
C278 C 0.50118 0.37823 0.2851 0.0
C279 C 0.49269 0.4091 0.29069 0.0
H280 H 0.53666 0.34586 0.23564 0.0
C281 C 0.51568 0.4313 0.27842 0.0
H282 H 0.48421 0.36046 0.2965 0.0
C283 C 0.54598 0.42285 0.2439 0.0
C284 C 0.55388 0.39202 0.22048 0.0
H285 H 0.51003 0.45528 0.28328 0.0
H286 H 0.56277 0.44057 0.22283 0.0
C287 C 0.53136 0.36982 0.25019 0.0
C288 C 0.92566 0.50302 0.03575 0.0
C289 C 0.89557 0.49214 0.03721 0.0
H290 H 0.95503 0.54153 -0.00177 0.0
C291 C 0.87164 0.51338 0.02941 0.0
H292 H 0.94464 0.48734 0.04217 0.0
C293 C 0.87756 0.54438 0.00403 0.0
C294 C 0.90758 0.555 0.98573 0.0
H295 H 0.84817 0.5059 0.03247 0.0
H296 H 0.85847 0.55978 0.98818 0.0
C297 C 0.9316 0.53415 0.01038 0.0
C298 C 0.5431 0.1634 0.01819 0.0
C299 C 0.55349 0.13356 0.04966 0.0
H300 H 0.50478 0.19254 0.97281 0.0
C301 C 0.53265 0.10941 0.03072 0.0
H302 H 0.5585 0.18255 0.02985 0.0
C303 C 0.50172 0.11514 0.998 0.0
C304 C 0.49093 0.14518 0.98354 0.0
H305 H 0.53987 0.08609 0.0523 0.0
H306 H 0.48607 0.09612 0.99579 0.0
C307 C 0.5122 0.16913 0.98563 0.0
C308 C 0.17208 0.52459 0.03666 0.0
C309 C 0.1483 0.54602 0.04351 0.0
H310 H 0.18488 0.4781 0.99309 0.0
C311 C 0.11814 0.53538 0.04195 0.0
H312 H 0.19559 0.53193 0.0399 0.0
C313 C 0.11197 0.50439 0.01442 0.0
C314 C 0.13582 0.48338 0.9885 0.0
H315 H 0.09925 0.55118 0.04807 0.0
H316 H 0.08849 0.49727 0.00095 0.0
C317 C 0.16593 0.49363 0.00997 0.0
C318 C 0.50803 0.87015 -0.00087 0.0
C319 C 0.48565 0.89246 0.03014 0.0
H320 H 0.55509 0.86053 0.95143 0.0
C321 C 0.49371 0.92326 0.00779 0.0
H322 H 0.50259 0.8462 0.01281 0.0
C323 C 0.52405 0.93156 0.97293 0.0
C324 C 0.5469 0.90922 0.95926 0.0
H325 H 0.47704 0.94107 0.02986 0.0
H326 H 0.52982 0.9555 0.96887 0.0
C327 C 0.53823 0.87841 0.96387 0.0
C328 C 0.87329 0.99333 0.23136 0.0
C329 C 0.9034 0.98305 0.25249 0.0
H330 H 0.84363 0.03166 0.20162 0.0
C331 C 0.92725 1.00403 0.22619 0.0
H332 H 0.85434 0.97782 0.2485 0.0
C333 C 0.92109 0.03503 0.19862 0.0
C334 C 0.89093 0.04571 0.1974 0.0
H335 H 0.95074 0.99689 0.23937 0.0
H336 H 0.93998 0.05081 0.19221 0.0
C337 C 0.86714 0.0243 0.20459 0.0
C338 C 1.00801 0.16905 0.7401 0.0
C339 C 0.98569 0.14674 0.70774 0.0
H340 H 0.05505 0.1787 0.78848 0.0
C341 C 0.99384 0.11592 0.7283 0.0
H342 H 1.00251 0.193 0.7278 0.0
C343 C 0.0242 0.10764 0.76276 0.0
C344 C 0.04699 0.13001 0.77779 0.0
H345 H 0.97722 0.09811 0.70512 0.0
H346 H 0.03004 0.0837 0.76541 0.0
C347 C 0.03824 0.16081 0.77496 0.0
C348 C 0.11403 1.00331 0.20723 0.0
C349 C 0.14412 0.9924 0.20656 0.0
H350 H 0.08465 0.04184 0.24402 0.0
C351 C 0.16805 1.01362 0.21508 0.0
H352 H 0.09505 0.98764 0.20023 0.0
C353 C 0.16213 0.04462 0.24038 0.0
C354 C 0.1321 0.05527 0.25787 0.0
H355 H 0.19152 1.00612 0.21264 0.0
H356 H 0.18121 0.06 0.25679 0.0
C357 C 0.10808 0.03444 0.23251 0.0
C358 C 1.00159 0.92516 0.7375 0.0
C359 C 0.99089 0.89512 0.75342 0.0
H360 H 0.03965 0.95423 0.68194 0.0
C361 C 1.01223 0.87122 0.75269 0.0
H362 H 0.98587 0.94414 0.73861 0.0
C363 C 0.04312 0.87698 0.7201 0.0
C364 C 0.05342 0.9068 0.68716 0.0
H365 H 1.00488 0.8478 0.76666 0.0
H366 H 0.05857 0.85785 0.70951 0.0
C367 C 0.03251 0.93093 0.7047 0.0
C368 C 0.38256 0.28932 0.95099 0.0
C369 C 0.38598 0.30233 0.1328 0.0
H370 H 0.37921 0.24836 0.78694 0.0
C371 C 0.38799 0.28293 0.2926 0.0
H372 H 0.38092 0.30356 0.82516 0.0
C373 C 0.38713 0.2513 0.27103 0.0
C374 C 0.38409 0.23825 0.08917 0.0
H375 H 0.39058 0.29212 0.43518 0.0
H376 H 0.38906 0.2371 0.39691 0.0
C377 C 0.38157 0.25763 0.92947 0.0
C378 C 0.25109 0.65173 0.70494 0.0
C379 C 0.23855 0.65232 0.88924 0.0
H380 H 0.29152 0.65174 0.53506 0.0
C381 C 0.25837 0.65352 0.04733 0.0
H382 H 0.23652 0.65085 0.58029 0.0
C383 C 0.28997 0.6538 0.02178 0.0
C384 C 0.3025 0.65318 0.83746 0.0
H385 H 0.24952 0.65394 0.19162 0.0
H386 H 0.30454 0.65451 0.14645 0.0
C387 C 0.28267 0.6523 0.67935 0.0
C388 C 0.65123 0.78236 0.95596 0.0
C389 C 0.65337 0.80183 0.11538 0.0
H390 H 0.65001 0.7365 0.8525 0.0
C391 C 0.65684 0.78888 0.29736 0.0
H392 H 0.64859 0.7915 0.81327 0.0
C393 C 0.65778 0.75721 0.31943 0.0
C394 C 0.65514 0.73777 0.16012 0.0
H395 H 0.65858 0.80317 0.4229 0.0
H396 H 0.66018 0.74799 0.46207 0.0
C397 C 0.65203 0.75074 0.97808 0.0
C398 C 0.75138 0.38779 0.04918 0.0
C399 C 0.73884 0.38729 0.86485 0.0
H400 H 0.79182 0.38788 0.2191 0.0
C401 C 0.75865 0.38634 0.70675 0.0
H402 H 0.73682 0.38848 0.17386 0.0
C403 C 0.79025 0.38623 0.73231 0.0
C404 C 0.80279 0.38677 0.91666 0.0
H405 H 0.74979 0.386 0.56244 0.0
H406 H 0.80482 0.38571 0.60764 0.0
C407 C 0.78297 0.38739 0.07478 0.0
C408 C 0.88266 0.75091 0.79546 0.0
C409 C 0.88609 0.73756 0.61464 0.0
H410 H 0.8793 0.79217 0.95648 0.0
C411 C 0.88815 0.75667 0.45347 0.0
H412 H 0.88098 0.7369 0.92229 0.0
C413 C 0.8873 0.78833 0.47273 0.0
C414 C 0.88423 0.80172 0.65359 0.0
H415 H 0.89076 0.74721 0.3116 0.0
H416 H 0.88925 0.8023 0.34585 0.0
C417 C 0.88168 0.78263 0.81466 0.0
C418 C 0.78837 0.15134 0.53957 0.0
C419 C 0.80074 0.152 0.35483 0.0
H420 H 0.7481 0.15123 0.71088 0.0
C421 C 0.78078 0.15324 0.19747 0.0
H422 H 0.80305 0.15042 0.6637 0.0
C423 C 0.74921 0.15348 0.22413 0.0
C424 C 0.73684 0.15277 0.40889 0.0
H425 H 0.7895 0.15372 0.05287 0.0
H426 H 0.73452 0.15422 0.09999 0.0
C427 C 0.75681 0.15186 0.56628 0.0
C428 C 0.15786 0.28285 0.42841 0.0
C429 C 0.15525 0.30197 0.58926 0.0
H430 H 0.15859 0.23709 0.32121 0.0
C431 C 0.1521 0.28862 0.77019 0.0
H432 H 0.16031 0.29235 0.28655 0.0
C433 C 0.15122 0.25696 0.78972 0.0
C434 C 0.15334 0.23782 0.62876 0.0
H435 H 0.15009 0.30262 0.89691 0.0
H436 H 0.14855 0.24753 0.93163 0.0
C437 C 0.15686 0.25113 0.44788 0.0
C438 C 0.2492 0.88651 0.51413 0.0
C439 C 0.23682 0.88706 0.32935 0.0
H440 H 0.28951 0.88635 0.68539 0.0
C441 C 0.25678 0.88775 0.17192 0.0
H442 H 0.23452 0.88594 0.6383 0.0
C443 C 0.28834 0.88822 0.19861 0.0
C444 C 0.30072 0.88772 0.38336 0.0
H445 H 0.24805 0.88824 0.0273 0.0
H446 H 0.30301 0.88897 0.07443 0.0
C447 C 0.28078 0.8867 0.54078 0.0
C448 C 0.26544 0.12195 0.68321 0.0
C449 C 0.23907 0.12777 0.79177 0.0
H450 H 0.31416 0.11918 0.67821 0.0
C451 C 0.24227 0.13424 0.98695 0.0
H452 H 0.2638 0.11662 0.53267 0.0
C453 C 0.27119 0.13571 0.07019 0.0
C454 C 0.29761 0.13063 0.96062 0.0
H455 H 0.22251 0.13887 0.07461 0.0
H456 H 0.27282 0.14141 0.22021 0.0
C457 C 0.29436 0.12339 0.7665 0.0
C458 C 0.12203 0.77231 0.28706 0.0
C459 C 0.12801 0.79851 0.17711 0.0
H460 H 0.12014 0.72355 0.2967 0.0
C461 C 0.13573 0.79489 0.98391 0.0
H462 H 0.11587 0.77424 0.43628 0.0
C463 C 0.13836 0.76576 0.90437 0.0
C464 C 0.1331 0.73954 0.01557 0.0
H465 H 0.1405 0.81451 0.89522 0.0
H466 H 0.14492 0.76382 0.75582 0.0
C467 C 0.12445 0.74319 0.20717 0.0
C468 C 0.76537 0.91784 0.0528 0.0
C469 C 0.739 0.9119 0.94441 0.0
H470 H 0.81408 0.92077 0.05759 0.0
C471 C 0.74219 0.90538 0.74929 0.0
H472 H 0.76374 0.92321 0.2033 0.0
C473 C 0.7711 0.90399 0.66595 0.0
C474 C 0.79752 0.9092 0.77537 0.0
H475 H 0.72243 0.90067 0.66175 0.0
H476 H 0.77272 0.89826 0.51598 0.0
C477 C 0.79428 0.91648 0.96942 0.0
C478 C 0.91488 0.24289 0.03398 0.0
C479 C 0.90622 0.23921 0.22556 0.0
H480 H 0.92353 0.27397 0.80516 0.0
C481 C 0.90104 0.26542 0.33704 0.0
H482 H 0.91912 0.22326 0.94424 0.0
C483 C 0.90376 0.29456 0.25782 0.0
C484 C 0.91148 0.29821 0.06464 0.0
H485 H 0.89449 0.26346 0.48559 0.0
H486 H 0.89905 0.31418 0.34672 0.0
C487 C 0.91737 0.27202 0.95439 0.0
C488 C 0.24524 0.41682 0.27432 0.0
C489 C 0.2419 0.40958 0.46836 0.0
H490 H 0.27591 0.42356 0.04116 0.0
C491 C 0.26826 0.40445 0.5785 0.0
H492 H 0.22549 0.42106 0.18561 0.0
C493 C 0.29722 0.40588 0.49588 0.0
C494 C 0.30052 0.41236 0.30078 0.0
H495 H 0.26656 0.39875 0.72849 0.0
H496 H 0.31694 0.40122 0.58397 0.0
C497 C 0.2742 0.41822 0.19166 0.0
C498 C 0.40092 0.77416 0.40907 0.0
C499 C 0.40621 0.80056 0.51845 0.0
H500 H 0.39879 0.72539 0.40319 0.0
C501 C 0.41494 0.79723 0.71019 0.0
H502 H 0.39429 0.77584 0.26048 0.0
C503 C 0.4174 0.76825 0.79199 0.0
C504 C 0.41138 0.74187 0.68385 0.0
H505 H 0.41928 0.81702 0.79835 0.0
H506 H 0.42362 0.76657 0.94127 0.0
C507 C 0.40359 0.74516 0.49051 0.0
C508 C 0.74491 0.6231 0.4827 0.0
C509 C 0.74149 0.63026 0.28857 0.0
H510 H 0.77569 0.61644 0.71558 0.0
C511 C 0.76781 0.63532 0.17802 0.0
H512 H 0.7252 0.61892 0.57173 0.0
C513 C 0.7968 0.63389 0.26029 0.0
C514 C 0.80018 0.6275 0.45545 0.0
H515 H 0.76605 0.64095 0.02797 0.0
H516 H 0.81648 0.6385 0.17186 0.0
C517 C 0.77391 0.62171 0.56501 0.0
C518 C 0.63591 0.24451 0.76059 0.0
C519 C 0.6281 0.24125 0.56725 0.0
H520 H 0.64522 0.27514 0.9908 0.0
C521 C 0.62209 0.26766 0.45929 0.0
H522 H 0.64071 0.22472 0.84777 0.0
C523 C 0.62455 0.29663 0.54127 0.0
C524 C 0.63329 0.29991 0.73301 0.0
H525 H 0.61585 0.26601 0.31003 0.0
H526 H 0.62021 0.31643 0.45323 0.0
C527 C 0.63859 0.27349 0.84221 0.0
loop_
_geom_bond_atom_site_label_1
_geom_bond_atom_site_label_2
_geom_bond_distance
_geom_bond_site_symmetry_2
_ccdc_geom_bond_type
Mg0 O7 2.141 . S
Mg0 O8 2.048 . S
Mg0 O9 2.048 . S
Mg0 O12 2.141 . S
C1 O2 1.313 1_554 S
C1 O8 1.195 . S
O2 C1 1.313 1_556 S
C3 O4 1.245 1_554 S
C3 O12 1.289 . S
O4 C3 1.245 1_556 S
C5 O6 1.245 1_554 S
C5 O7 1.289 . S
O6 C5 1.245 1_556 S
O7 Mg0 2.141 . S
O7 C5 1.289 . S
O8 Mg0 2.048 . S
O8 C1 1.195 . S
O9 Mg0 2.048 . S
O9 C10 1.195 . S
C10 O9 1.195 . S
C10 O11 1.313 . S
O11 C10 1.313 . S
O12 Mg0 2.141 . S
O12 C3 1.289 . S
Mg13 O20 2.141 1_556 S
Mg13 O21 2.048 . S
Mg13 O22 2.048 . S
Mg13 O25 2.141 . S
C14 O15 1.313 . S
C14 O21 1.195 . S
O15 C14 1.313 . S
C16 O17 1.245 . S
C16 O25 1.289 . S
O17 C16 1.245 . S
C18 O19 1.245 . S
C18 O20 1.289 1_556 S
O19 C18 1.245 . S
O20 Mg13 2.141 1_554 S
O20 C18 1.289 1_554 S
O21 Mg13 2.048 . S
O21 C14 1.195 . S
O22 Mg13 2.048 . S
O22 C23 1.195 . S
C23 O22 1.195 . S
C23 O24 1.313 . S
O24 C23 1.313 . S
O25 Mg13 2.141 . S
O25 C16 1.289 . S
Mg26 O33 2.141 . S
Mg26 O34 2.048 . S
Mg26 O35 2.048 . S
Mg26 O38 2.141 . S
C27 O28 1.313 1_554 S
C27 O34 1.195 . S
O28 C27 1.313 1_556 S
C29 O30 1.245 1_554 S
C29 O38 1.289 . S
O30 C29 1.245 1_556 S
C31 O32 1.245 1_554 S
C31 O33 1.289 . S
O32 C31 1.245 1_556 S
O33 Mg26 2.141 . S
O33 C31 1.289 . S
O34 Mg26 2.048 . S
O34 C27 1.195 . S
O35 Mg26 2.048 . S
O35 C36 1.195 . S
C36 O35 1.195 . S
C36 O37 1.313 . S
O37 C36 1.313 . S
O38 Mg26 2.141 . S
O38 C29 1.289 . S
Mg39 O46 2.141 1_556 S
Mg39 O47 2.048 . S
Mg39 O48 2.048 . S
Mg39 O51 2.141 . S
C40 O41 1.313 . S
C40 O47 1.195 . S
O41 C40 1.313 . S
C42 O43 1.245 . S
C42 O51 1.289 . S
O43 C42 1.245 . S
C44 O45 1.245 . S
C44 O46 1.289 1_556 S
O45 C44 1.245 . S
O46 Mg39 2.141 1_554 S
O46 C44 1.289 1_554 S
O47 Mg39 2.048 . S
O47 C40 1.195 . S
O48 Mg39 2.048 . S
O48 C49 1.195 . S
C49 O48 1.195 . S
C49 O50 1.313 . S
O50 C49 1.313 . S
O51 Mg39 2.141 . S
O51 C42 1.289 . S
Mg52 O59 2.141 . S
Mg52 O60 2.048 . S
Mg52 O61 2.048 1_554 S
Mg52 O64 2.141 1_554 S
C53 O54 1.313 . S
C53 O60 1.195 . S
O54 C53 1.313 . S
C55 O56 1.245 . S
C55 O64 1.289 1_554 S
O56 C55 1.245 . S
C57 O58 1.245 . S
C57 O59 1.289 . S
O58 C57 1.245 . S
O59 Mg52 2.141 . S
O59 C57 1.289 . S
O60 Mg52 2.048 . S
O60 C53 1.195 . S
O61 Mg52 2.048 1_556 S
O61 C62 1.195 1_556 S
C62 O61 1.195 1_554 S
C62 O63 1.313 . S
O63 C62 1.313 . S
O64 Mg52 2.141 1_556 S
O64 C55 1.289 1_556 S
Mg65 O72 2.141 . S
Mg65 O73 2.048 . S
Mg65 O74 2.048 . S
Mg65 O77 2.141 . S
C66 O67 1.313 1_556 S
C66 O73 1.195 . S
O67 C66 1.313 1_554 S
C68 O69 1.245 1_556 S
C68 O77 1.289 . S
O69 C68 1.245 1_554 S
C70 O71 1.245 . S
C70 O72 1.289 . S
O71 C70 1.245 . S
O72 Mg65 2.141 . S
O72 C70 1.289 . S
O73 Mg65 2.048 . S
O73 C66 1.195 . S
O74 Mg65 2.048 . S
O74 C75 1.195 . S
C75 O74 1.195 . S
C75 O76 1.313 1_556 S
O76 C75 1.313 1_554 S
O77 Mg65 2.141 . S
O77 C68 1.289 . S
Mg78 O85 2.141 . S
Mg78 O86 2.048 . S
Mg78 O87 2.048 1_554 S
Mg78 O90 2.141 1_554 S
C79 O80 1.313 . S
C79 O86 1.195 . S
O80 C79 1.313 . S
C81 O82 1.245 . S
C81 O90 1.289 1_554 S
O82 C81 1.245 . S
C83 O84 1.245 . S
C83 O85 1.289 . S
O84 C83 1.245 . S
O85 Mg78 2.141 . S
O85 C83 1.289 . S
O86 Mg78 2.048 . S
O86 C79 1.195 . S
O87 Mg78 2.048 1_556 S
O87 C88 1.195 1_556 S
C88 O87 1.195 1_554 S
C88 O89 1.313 . S
O89 C88 1.313 . S
O90 Mg78 2.141 1_556 S
O90 C81 1.289 1_556 S
Mg91 O98 2.141 . S
Mg91 O99 2.048 . S
Mg91 O100 2.048 . S
Mg91 O103 2.141 . S
C92 O93 1.313 1_556 S
C92 O99 1.195 . S
O93 C92 1.313 1_554 S
C94 O95 1.245 1_556 S
C94 O103 1.289 . S
O95 C94 1.245 1_554 S
C96 O97 1.245 . S
C96 O98 1.289 . S
O97 C96 1.245 . S
O98 Mg91 2.141 . S
O98 C96 1.289 . S
O99 Mg91 2.048 . S
O99 C92 1.195 . S
O100 Mg91 2.048 . S
O100 C101 1.195 . S
C101 O100 1.195 . S
C101 O102 1.313 1_556 S
O102 C101 1.313 1_554 S
O103 Mg91 2.141 . S
O103 C94 1.289 . S
Mg104 O111 2.141 . S
Mg104 O112 2.048 . S
Mg104 O113 2.048 . S
Mg104 O116 2.141 . S
C105 O106 1.313 . S
C105 O112 1.195 . S
O106 C105 1.313 . S
C107 O108 1.245 . S
C107 O116 1.289 . S
O108 C107 1.245 . S
C109 O110 1.245 . S
C109 O111 1.289 . S
O110 C109 1.245 . S
O111 Mg104 2.141 . S
O111 C109 1.289 . S
O112 Mg104 2.048 . S
O112 C105 1.195 . S
O113 Mg104 2.048 . S
O113 C114 1.195 . S
C114 O113 1.195 . S
C114 O115 1.313 . S
O115 C114 1.313 . S
O116 Mg104 2.141 . S
O116 C107 1.289 . S
Mg117 O124 2.141 . S
Mg117 O125 2.048 . S
Mg117 O126 2.048 . S
Mg117 O129 2.141 . S
C118 O119 1.313 . S
C118 O125 1.195 . S
O119 C118 1.313 . S
C120 O121 1.245 . S
C120 O129 1.289 . S
O121 C120 1.245 . S
C122 O123 1.245 . S
C122 O124 1.289 . S
O123 C122 1.245 . S
O124 Mg117 2.141 . S
O124 C122 1.289 . S
O125 Mg117 2.048 . S
O125 C118 1.195 . S
O126 Mg117 2.048 . S
O126 C127 1.195 . S
C127 O126 1.195 . S
C127 O128 1.313 . S
O128 C127 1.313 . S
O129 Mg117 2.141 . S
O129 C120 1.289 . S
Mg130 O137 2.141 . S
Mg130 O138 2.048 . S
Mg130 O139 2.048 . S
Mg130 O142 2.141 . S
C131 O132 1.313 . S
C131 O138 1.195 . S
O132 C131 1.313 . S
C133 O134 1.245 . S
C133 O142 1.289 . S
O134 C133 1.245 . S
C135 O136 1.245 . S
C135 O137 1.289 . S
O136 C135 1.245 . S
O137 Mg130 2.141 . S
O137 C135 1.289 . S
O138 Mg130 2.048 . S
O138 C131 1.195 . S
O139 Mg130 2.048 . S
O139 C140 1.195 . S
C140 O139 1.195 . S
C140 O141 1.313 . S
O141 C140 1.313 . S
O142 Mg130 2.141 . S
O142 C133 1.289 . S
Mg143 O150 2.141 . S
Mg143 O151 2.048 . S
Mg143 O152 2.048 . S
Mg143 O155 2.141 . S
C144 O145 1.313 . S
C144 O151 1.195 . S
O145 C144 1.313 . S
C146 O147 1.245 . S
C146 O155 1.289 . S
O147 C146 1.245 . S
C148 O149 1.245 . S
C148 O150 1.289 . S
O149 C148 1.245 . S
O150 Mg143 2.141 . S
O150 C148 1.289 . S
O151 Mg143 2.048 . S
O151 C144 1.195 . S
O152 Mg143 2.048 . S
O152 C153 1.195 . S
C153 O152 1.195 . S
C153 O154 1.313 . S
O154 C153 1.313 . S
O155 Mg143 2.141 . S
O155 C146 1.289 . S
Mg156 O163 2.141 . S
Mg156 O164 2.048 . S
Mg156 O165 2.048 . S
Mg156 O168 2.141 . S
C157 O158 1.313 . S
C157 O164 1.195 . S
O158 C157 1.313 . S
C159 O160 1.245 . S
C159 O168 1.289 . S
O160 C159 1.245 . S
C161 O162 1.245 . S
C161 O163 1.289 . S
O162 C161 1.245 . S
O163 Mg156 2.141 . S
O163 C161 1.289 . S
O164 Mg156 2.048 . S
O164 C157 1.195 . S
O165 Mg156 2.048 . S
O165 C166 1.195 . S
C166 O165 1.195 . S
C166 O167 1.313 . S
O167 C166 1.313 . S
O168 Mg156 2.141 . S
O168 C159 1.289 . S
Mg169 O176 2.141 . S
Mg169 O177 2.048 . S
Mg169 O178 2.048 . S
Mg169 O181 2.141 . S
C170 O171 1.313 . S
C170 O177 1.195 . S
O171 C170 1.313 . S
C172 O173 1.245 . S
C172 O181 1.289 . S
O173 C172 1.245 . S
C174 O175 1.245 . S
C174 O176 1.289 . S
O175 C174 1.245 . S
O176 Mg169 2.141 . S
O176 C174 1.289 . S
O177 Mg169 2.048 . S
O177 C170 1.195 . S
O178 Mg169 2.048 . S
O178 C179 1.195 . S
C179 O178 1.195 . S
C179 O180 1.313 . S
O180 C179 1.313 . S
O181 Mg169 2.141 . S
O181 C172 1.289 . S
Mg182 O189 2.141 . S
Mg182 O190 2.048 . S
Mg182 O191 2.048 . S
Mg182 O194 2.141 . S
C183 O184 1.313 . S
C183 O190 1.195 . S
O184 C183 1.313 . S
C185 O186 1.245 . S
C185 O194 1.289 . S
O186 C185 1.245 . S
C187 O188 1.245 . S
C187 O189 1.289 . S
O188 C187 1.245 . S
O189 Mg182 2.141 . S
O189 C187 1.289 . S
O190 Mg182 2.048 . S
O190 C183 1.195 . S
O191 Mg182 2.048 . S
O191 C192 1.195 . S
C192 O191 1.195 . S
C192 O193 1.313 . S
O193 C192 1.313 . S
O194 Mg182 2.141 . S
O194 C185 1.289 . S
Mg195 O202 2.141 . S
Mg195 O203 2.048 . S
Mg195 O204 2.048 . S
Mg195 O207 2.141 . S
C196 O197 1.313 . S
C196 O203 1.195 . S
O197 C196 1.313 . S
C198 O199 1.245 . S
C198 O207 1.289 . S
O199 C198 1.245 . S
C200 O201 1.245 . S
C200 O202 1.289 . S
O201 C200 1.245 . S
O202 Mg195 2.141 . S
O202 C200 1.289 . S
O203 Mg195 2.048 . S
O203 C196 1.195 . S
O204 Mg195 2.048 . S
O204 C205 1.195 . S
C205 O204 1.195 . S
C205 O206 1.313 . S
O206 C205 1.313 . S
O207 Mg195 2.141 . S
O207 C198 1.289 . S
C208 C209 1.387 . S
C208 H212 0.950 . S
C208 C217 1.390 1_565 S
C209 C208 1.387 . S
C209 C211 1.387 . S
H210 C217 0.950 . S
C211 C209 1.387 . S
C211 C213 1.390 1_565 S
C211 H215 0.950 . S
H212 C208 0.950 . S
C213 C211 1.390 1_545 S
C213 C214 1.387 . S
C213 H216 0.950 . S
C214 C213 1.387 . S
C214 C217 1.387 . S
H215 C211 0.950 . S
H216 C213 0.950 . S
C217 C208 1.390 1_545 S
C217 H210 0.950 . S
C217 C214 1.387 . S
C218 C219 1.387 . S
C218 H222 0.950 . S
C218 C227 1.390 1_455 S
C219 C218 1.387 . S
C219 C221 1.387 . S
H220 C227 0.950 . S
C221 C219 1.387 . S
C221 C223 1.390 1_455 S
C221 H225 0.950 . S
H222 C218 0.950 . S
C223 C221 1.390 1_655 S
C223 C224 1.387 . S
C223 H226 0.950 . S
C224 C223 1.387 . S
C224 C227 1.387 . S
H225 C221 0.950 . S
H226 C223 0.950 . S
C227 C218 1.390 1_655 S
C227 H220 0.950 . S
C227 C224 1.387 . S
C228 C229 1.387 . S
C228 H232 0.950 . S
C228 C237 1.390 1_565 S
C229 C228 1.387 . S
C229 C231 1.387 . S
H230 C237 0.950 . S
C231 C229 1.387 . S
C231 C233 1.390 1_565 S
C231 H235 0.950 . S
H232 C228 0.950 . S
C233 C231 1.390 1_545 S
C233 C234 1.387 . S
C233 H236 0.950 . S
C234 C233 1.387 . S
C234 C237 1.387 . S
H235 C231 0.950 . S
H236 C233 0.950 . S
C237 C228 1.390 1_545 S
C237 H230 0.950 . S
C237 C234 1.387 . S
C238 C239 1.387 . S
C238 H242 0.950 . S
C238 C247 1.390 1_455 S
C239 C238 1.387 . S
C239 C241 1.387 . S
H240 C247 0.950 . S
C241 C239 1.387 . S
C241 C243 1.390 1_455 S
C241 H245 0.950 . S
H242 C238 0.950 . S
C243 C241 1.390 1_655 S
C243 C244 1.387 . S
C243 H246 0.950 . S
C244 C243 1.387 . S
C244 C247 1.387 . S
H245 C241 0.950 . S
H246 C243 0.950 . S
C247 C238 1.390 1_655 S
C247 H240 0.950 . S
C247 C244 1.387 . S
C248 C249 1.387 . S
C248 H252 0.950 . S
C248 C257 1.390 . S
C249 C248 1.387 . S
C249 C251 1.387 . S
H250 C257 0.950 . S
C251 C249 1.387 . S
C251 C253 1.390 . S
C251 H255 0.950 . S
H252 C248 0.950 . S
C253 C251 1.390 . S
C253 C254 1.387 . S
C253 H256 0.949 1_554 S
C254 C253 1.387 . S
C254 C257 1.387 . S
H255 C251 0.950 . S
H256 C253 0.949 1_556 S
C257 C248 1.390 . S
C257 H250 0.950 . S
C257 C254 1.387 . S
C258 C259 1.387 . S
C258 H262 0.950 . S
C258 C267 1.390 . S
C259 C258 1.387 . S
C259 C261 1.387 . S
H260 C267 0.950 . S
C261 C259 1.387 . S
C261 C263 1.390 . S
C261 H265 0.950 . S
H262 C258 0.950 . S
C263 C261 1.390 . S
C263 C264 1.387 . S
C263 H266 0.950 . S
C264 C263 1.387 . S
C264 C267 1.387 . S
H265 C261 0.950 . S
H266 C263 0.950 . S
C267 C258 1.390 . S
C267 H260 0.950 . S
C267 C264 1.387 . S
C268 C269 1.387 1_556 S
C268 H272 0.950 . S
C268 C277 1.390 . S
C269 C268 1.387 1_554 S
C269 C271 1.387 . S
H270 C277 0.950 . S
C271 C269 1.387 . S
C271 C273 1.390 . S
C271 H275 0.950 . S
H272 C268 0.950 . S
C273 C271 1.390 . S
C273 C274 1.387 . S
C273 H276 0.950 . S
C274 C273 1.387 . S
C274 C277 1.387 1_554 S
H275 C271 0.950 . S
H276 C273 0.950 . S
C277 C268 1.390 . S
C277 H270 0.950 . S
C277 C274 1.387 1_556 S
C278 C279 1.387 . S
C278 H282 0.950 . S
C278 C287 1.390 . S
C279 C278 1.387 . S
C279 C281 1.387 . S
H280 C287 0.950 . S
C281 C279 1.387 . S
C281 C283 1.390 . S
C281 H285 0.950 1_556 S
H282 C278 0.950 . S
C283 C281 1.390 . S
C283 C284 1.387 . S
C283 H286 0.950 . S
C284 C283 1.387 . S
C284 C287 1.387 . S
H285 C281 0.950 1_554 S
H286 C283 0.950 . S
C287 C278 1.390 . S
C287 H280 0.950 . S
C287 C284 1.387 . S
C288 C289 1.387 . S
C288 H292 0.950 . S
C288 C297 1.390 . S
C289 C288 1.387 . S
C289 C291 1.387 . S
H290 C297 0.950 . S
C291 C289 1.387 . S
C291 C293 1.390 . S
C291 H295 0.950 . S
H292 C288 0.950 . S
C293 C291 1.390 . S
C293 C294 1.387 . S
C293 H296 0.950 . S
C294 C293 1.387 . S
C294 C297 1.387 . S
H295 C291 0.950 . S
H296 C293 0.950 . S
C297 C288 1.390 . S
C297 H290 0.950 . S
C297 C294 1.387 . S
C298 C299 1.387 . S
C298 H302 0.950 . S
C298 C307 1.390 . S
C299 C298 1.387 . S
C299 C301 1.387 . S
H300 C307 0.950 . S
C301 C299 1.387 . S
C301 C303 1.390 . S
C301 H305 0.950 . S
H302 C298 0.950 . S
C303 C301 1.390 . S
C303 C304 1.387 . S
C303 H306 0.950 . S
C304 C303 1.387 . S
C304 C307 1.387 . S
H305 C301 0.950 . S
H306 C303 0.950 . S
C307 C298 1.390 . S
C307 H300 0.950 . S
C307 C304 1.387 . S
C308 C309 1.387 . S
C308 H312 0.950 . S
C308 C317 1.390 . S
C309 C308 1.387 . S
C309 C311 1.387 . S
H310 C317 0.950 . S
C311 C309 1.387 . S
C311 C313 1.390 . S
C311 H315 0.950 . S
H312 C308 0.950 . S
C313 C311 1.390 . S
C313 C314 1.387 . S
C313 H316 0.950 . S
C314 C313 1.387 . S
C314 C317 1.387 . S
H315 C311 0.950 . S
H316 C313 0.950 . S
C317 C308 1.390 . S
C317 H310 0.950 . S
C317 C314 1.387 . S
C318 C319 1.387 . S
C318 H322 0.950 . S
C318 C327 1.390 . S
C319 C318 1.387 . S
C319 C321 1.387 . S
H320 C327 0.950 . S
C321 C319 1.387 . S
C321 C323 1.390 . S
C321 H325 0.950 . S
H322 C318 0.950 . S
C323 C321 1.390 . S
C323 C324 1.387 . S
C323 H326 0.950 . S
C324 C323 1.387 . S
C324 C327 1.387 . S
H325 C321 0.950 . S
H326 C323 0.950 . S
C327 C318 1.390 . S
C327 H320 0.950 . S
C327 C324 1.387 . S
C328 C329 1.387 . S
C328 H332 0.950 . S
C328 C337 1.390 1_565 S
C329 C328 1.387 . S
C329 C331 1.387 . S
H330 C337 0.950 . S
C331 C329 1.387 . S
C331 C333 1.390 1_565 S
C331 H335 0.950 . S
H332 C328 0.950 . S
C333 C331 1.390 1_545 S
C333 C334 1.387 . S
C333 H336 0.950 . S
C334 C333 1.387 . S
C334 C337 1.387 . S
H335 C331 0.950 . S
H336 C333 0.950 . S
C337 C328 1.390 1_545 S
C337 H330 0.950 . S
C337 C334 1.387 . S
C338 C339 1.387 . S
C338 H342 0.950 . S
C338 C347 1.390 1_655 S
C339 C338 1.387 . S
C339 C341 1.387 . S
H340 C347 0.950 . S
C341 C339 1.387 . S
C341 C343 1.390 1_655 S
C341 H345 0.950 . S
H342 C338 0.950 . S
C343 C341 1.390 1_455 S
C343 C344 1.387 . S
C343 H346 0.950 . S
C344 C343 1.387 . S
C344 C347 1.387 . S
H345 C341 0.950 . S
H346 C343 0.950 . S
C347 C338 1.390 1_455 S
C347 H340 0.950 . S
C347 C344 1.387 . S
C348 C349 1.387 . S
C348 H352 0.950 . S
C348 C357 1.390 1_565 S
C349 C348 1.387 . S
C349 C351 1.387 . S
H350 C357 0.950 . S
C351 C349 1.387 . S
C351 C353 1.390 1_565 S
C351 H355 0.950 . S
H352 C348 0.950 . S
C353 C351 1.390 1_545 S
C353 C354 1.387 . S
C353 H356 0.950 . S
C354 C353 1.387 . S
C354 C357 1.387 . S
H355 C351 0.950 . S
H356 C353 0.950 . S
C357 C348 1.390 1_545 S
C357 H350 0.950 . S
C357 C354 1.387 . S
C358 C359 1.387 . S
C358 H362 0.950 . S
C358 C367 1.390 1_655 S
C359 C358 1.387 . S
C359 C361 1.387 . S
H360 C367 0.950 . S
C361 C359 1.387 . S
C361 C363 1.390 1_655 S
C361 H365 0.950 . S
H362 C358 0.950 . S
C363 C361 1.390 1_455 S
C363 C364 1.387 . S
C363 H366 0.950 . S
C364 C363 1.387 . S
C364 C367 1.387 . S
H365 C361 0.950 . S
H366 C363 0.950 . S
C367 C358 1.390 1_455 S
C367 H360 0.950 . S
C367 C364 1.387 . S
C368 C369 1.387 . S
C368 H372 0.950 . S
C368 C377 1.390 . S
C369 C368 1.387 . S
C369 C371 1.387 . S
H370 C377 0.950 . S
C371 C369 1.387 . S
C371 C373 1.390 . S
C371 H375 0.950 . S
H372 C368 0.950 . S
C373 C371 1.390 . S
C373 C374 1.387 . S
C373 H376 0.950 . S
C374 C373 1.387 . S
C374 C377 1.387 . S
H375 C371 0.950 . S
H376 C373 0.950 . S
C377 C368 1.390 . S
C377 H370 0.950 . S
C377 C374 1.387 . S
C378 C379 1.387 . S
C378 H382 0.950 . S
C378 C387 1.390 . S
C379 C378 1.387 . S
C379 C381 1.387 . S
H380 C387 0.950 . S
C381 C379 1.387 . S
C381 C383 1.390 . S
C381 H385 0.950 . S
H382 C378 0.950 . S
C383 C381 1.390 . S
C383 C384 1.387 . S
C383 H386 0.950 . S
C384 C383 1.387 . S
C384 C387 1.387 . S
H385 C381 0.950 . S
H386 C383 0.950 . S
C387 C378 1.390 . S
C387 H380 0.950 . S
C387 C384 1.387 . S
C388 C389 1.387 . S
C388 H392 0.950 . S
C388 C397 1.390 . S
C389 C388 1.387 . S
C389 C391 1.387 . S
H390 C397 0.950 . S
C391 C389 1.387 . S
C391 C393 1.390 . S
C391 H395 0.950 . S
H392 C388 0.950 . S
C393 C391 1.390 . S
C393 C394 1.387 . S
C393 H396 0.950 . S
C394 C393 1.387 . S
C394 C397 1.387 . S
H395 C391 0.950 . S
H396 C393 0.950 . S
C397 C388 1.390 . S
C397 H390 0.950 . S
C397 C394 1.387 . S
C398 C399 1.387 . S
C398 H402 0.950 . S
C398 C407 1.390 . S
C399 C398 1.387 . S
C399 C401 1.387 . S
H400 C407 0.950 . S
C401 C399 1.387 . S
C401 C403 1.390 . S
C401 H405 0.950 . S
H402 C398 0.950 . S
C403 C401 1.390 . S
C403 C404 1.387 . S
C403 H406 0.950 . S
C404 C403 1.387 . S
C404 C407 1.387 . S
H405 C401 0.950 . S
H406 C403 0.950 . S
C407 C398 1.390 . S
C407 H400 0.950 . S
C407 C404 1.387 . S
C408 C409 1.387 . S
C408 H412 0.950 . S
C408 C417 1.390 . S
C409 C408 1.387 . S
C409 C411 1.387 . S
H410 C417 0.950 . S
C411 C409 1.387 . S
C411 C413 1.390 . S
C411 H415 0.950 . S
H412 C408 0.950 . S
C413 C411 1.390 . S
C413 C414 1.387 . S
C413 H416 0.950 . S
C414 C413 1.387 . S
C414 C417 1.387 . S
H415 C411 0.950 . S
H416 C413 0.950 . S
C417 C408 1.390 . S
C417 H410 0.950 . S
C417 C414 1.387 . S
C418 C419 1.387 . S
C418 H422 0.950 . S
C418 C427 1.390 . S
C419 C418 1.387 . S
C419 C421 1.387 . S
H420 C427 0.950 . S
C421 C419 1.387 . S
C421 C423 1.390 . S
C421 H425 0.950 . S
H422 C418 0.950 . S
C423 C421 1.390 . S
C423 C424 1.387 . S
C423 H426 0.950 . S
C424 C423 1.387 . S
C424 C427 1.387 . S
H425 C421 0.950 . S
H426 C423 0.950 . S
C427 C418 1.390 . S
C427 H420 0.950 . S
C427 C424 1.387 . S
C428 C429 1.387 . S
C428 H432 0.950 . S
C428 C437 1.390 . S
C429 C428 1.387 . S
C429 C431 1.387 . S
H430 C437 0.950 . S
C431 C429 1.387 . S
C431 C433 1.390 . S
C431 H435 0.950 . S
H432 C428 0.950 . S
C433 C431 1.390 . S
C433 C434 1.387 . S
C433 H436 0.950 . S
C434 C433 1.387 . S
C434 C437 1.387 . S
H435 C431 0.950 . S
H436 C433 0.950 . S
C437 C428 1.390 . S
C437 H430 0.950 . S
C437 C434 1.387 . S
C438 C439 1.387 . S
C438 H442 0.950 . S
C438 C447 1.390 . S
C439 C438 1.387 . S
C439 C441 1.387 . S
H440 C447 0.950 . S
C441 C439 1.387 . S
C441 C443 1.390 . S
C441 H445 0.950 . S
H442 C438 0.950 . S
C443 C441 1.390 . S
C443 C444 1.387 . S
C443 H446 0.950 . S
C444 C443 1.387 . S
C444 C447 1.387 . S
H445 C441 0.950 . S
H446 C443 0.950 . S
C447 C438 1.390 . S
C447 H440 0.950 . S
C447 C444 1.387 . S
C448 C449 1.387 . S
C448 H452 0.950 . S
C448 C457 1.390 . S
C449 C448 1.387 . S
C449 C451 1.387 . S
H450 C457 0.950 . S
C451 C449 1.387 . S
C451 C453 1.390 . S
C451 H455 0.950 . S
H452 C448 0.950 . S
C453 C451 1.390 . S
C453 C454 1.387 . S
C453 H456 0.950 . S
C454 C453 1.387 . S
C454 C457 1.387 . S
H455 C451 0.950 . S
H456 C453 0.950 . S
C457 C448 1.390 . S
C457 H450 0.950 . S
C457 C454 1.387 . S
C458 C459 1.387 . S
C458 H462 0.950 . S
C458 C467 1.390 . S
C459 C458 1.387 . S
C459 C461 1.387 . S
H460 C467 0.950 . S
C461 C459 1.387 . S
C461 C463 1.390 . S
C461 H465 0.950 . S
H462 C458 0.950 . S
C463 C461 1.390 . S
C463 C464 1.387 . S
C463 H466 0.950 . S
C464 C463 1.387 . S
C464 C467 1.387 . S
H465 C461 0.950 . S
H466 C463 0.950 . S
C467 C458 1.390 . S
C467 H460 0.950 . S
C467 C464 1.387 . S
C468 C469 1.387 . S
C468 H472 0.950 . S
C468 C477 1.390 . S
C469 C468 1.387 . S
C469 C471 1.387 . S
H470 C477 0.950 . S
C471 C469 1.387 . S
C471 C473 1.390 . S
C471 H475 0.950 . S
H472 C468 0.950 . S
C473 C471 1.390 . S
C473 C474 1.387 . S
C473 H476 0.950 . S
C474 C473 1.387 . S
C474 C477 1.387 . S
H475 C471 0.950 . S
H476 C473 0.950 . S
C477 C468 1.390 . S
C477 H470 0.950 . S
C477 C474 1.387 . S
C478 C479 1.387 . S
C478 H482 0.950 . S
C478 C487 1.390 . S
C479 C478 1.387 . S
C479 C481 1.387 . S
H480 C487 0.950 . S
C481 C479 1.387 . S
C481 C483 1.390 . S
C481 H485 0.950 . S
H482 C478 0.950 . S
C483 C481 1.390 . S
C483 C484 1.387 . S
C483 H486 0.950 . S
C484 C483 1.387 . S
C484 C487 1.387 . S
H485 C481 0.950 . S
H486 C483 0.950 . S
C487 C478 1.390 . S
C487 H480 0.950 . S
C487 C484 1.387 . S
C488 C489 1.387 . S
C488 H492 0.950 . S
C488 C497 1.390 . S
C489 C488 1.387 . S
C489 C491 1.387 . S
H490 C497 0.950 . S
C491 C489 1.387 . S
C491 C493 1.390 . S
C491 H495 0.950 . S
H492 C488 0.950 . S
C493 C491 1.390 . S
C493 C494 1.387 . S
C493 H496 0.950 . S
C494 C493 1.387 . S
C494 C497 1.387 . S
H495 C491 0.950 . S
H496 C493 0.950 . S
C497 C488 1.390 . S
C497 H490 0.950 . S
C497 C494 1.387 . S
C498 C499 1.387 . S
C498 H502 0.950 . S
C498 C507 1.390 . S
C499 C498 1.387 . S
C499 C501 1.387 . S
H500 C507 0.950 . S
C501 C499 1.387 . S
C501 C503 1.390 . S
C501 H505 0.950 . S
H502 C498 0.950 . S
C503 C501 1.390 . S
C503 C504 1.387 . S
C503 H506 0.950 . S
C504 C503 1.387 . S
C504 C507 1.387 . S
H505 C501 0.950 . S
H506 C503 0.950 . S
C507 C498 1.390 . S
C507 H500 0.950 . S
C507 C504 1.387 . S
C508 C509 1.387 . S
C508 H512 0.950 . S
C508 C517 1.390 . S
C509 C508 1.387 . S
C509 C511 1.387 . S
H510 C517 0.950 . S
C511 C509 1.387 . S
C511 C513 1.390 . S
C511 H515 0.950 . S
H512 C508 0.950 . S
C513 C511 1.390 . S
C513 C514 1.387 . S
C513 H516 0.950 . S
C514 C513 1.387 . S
C514 C517 1.387 . S
H515 C511 0.950 . S
H516 C513 0.950 . S
C517 C508 1.390 . S
C517 H510 0.950 . S
C517 C514 1.387 . S
C518 C519 1.387 . S
C518 H522 0.950 . S
C518 C527 1.390 . S
C519 C518 1.387 . S
C519 C521 1.387 . S
H520 C527 0.950 . S
C521 C519 1.387 . S
C521 C523 1.390 . S
C521 H525 0.950 . S
H522 C518 0.950 . S
C523 C521 1.390 . S
C523 C524 1.387 . S
C523 H526 0.950 . S
C524 C523 1.387 . S
C524 C527 1.387 . S
H525 C521 0.950 . S
H526 C523 0.950 . S
C527 C518 1.390 . S
C527 H520 0.950 . S
C527 C524 1.387 . S
C209 C153 1.522 . S
C214 C3 1.514 . S
C219 C16 1.509 . S
C224 C114 1.505 . S
C229 C29 1.515 . S
C234 C127 1.522 . S
C239 C140 1.506 . S
C244 C42 1.509 . S
C249 C55 1.513 . S
C254 C75 1.522 1_554 S
C259 C68 1.509 . S
C264 C88 1.505 1_556 S
C269 C101 1.522 1_554 S
C274 C81 1.514 . S
C279 C62 1.504 1_556 S
C284 C94 1.510 . S
C289 C49 1.522 . S
C294 C107 1.513 . S
C299 C120 1.510 . S
C304 C10 1.504 . S
C309 C23 1.522 . S
C314 C133 1.515 . S
C319 C146 1.510 . S
C324 C36 1.504 . S
C329 C159 1.515 . S
C334 C179 1.522 . S
C339 C172 1.510 . S
C344 C192 1.504 . S
C349 C205 1.522 . S
C354 C185 1.513 . S
C359 C166 1.505 . S
C364 C198 1.509 . S
C369 C53 1.519 . S
C374 C1 1.519 . S
C379 C14 1.499 . S
C384 C66 1.499 . S
C389 C27 1.519 . S
C394 C79 1.519 . S
C399 C92 1.499 . S
C404 C40 1.499 . S
C409 C105 1.519 . S
C414 C157 1.519 . S
C419 C170 1.499 . S
C424 C118 1.499 . S
C429 C131 1.519 . S
C434 C183 1.519 . S
C439 C196 1.501 . S
C444 C144 1.501 . S
C449 C187 1.512 . S
C454 C5 1.512 1_556 S
C459 C200 1.559 . S
C464 C18 1.559 1_554 S
C469 C31 1.512 1_556 S
C474 C161 1.512 . S
C479 C174 1.559 . S
C484 C44 1.559 1_554 S
C489 C135 1.512 . S
C494 C57 1.512 . S
C499 C148 1.559 . S
C504 C70 1.559 . S
C509 C83 1.512 . S
C514 C109 1.512 . S
C519 C122 1.559 . S
C524 C96 1.559 . S
