# Generated by pormake.
# Topology sms, (6)-cn, num edge types: 1
# Building blocks:
#     Node 0, Type 0, BuildingBlock: OJICUG_clean_sbu_0, # of connection points: 6
#     Node 1, Type 0, BuildingBlock: OJICUG_clean_sbu_0, # of connection points: 6
#     Node 2, Type 0, BuildingBlock: OJICUG_clean_sbu_0, # of connection points: 6
#     Node 3, Type 0, BuildingBlock: OJICUG_clean_sbu_0, # of connection points: 6
#     Node 4, Type 0, BuildingBlock: OJICUG_clean_sbu_0, # of connection points: 6
#     Node 5, Type 0, BuildingBlock: OJICUG_clean_sbu_0, # of connection points: 6
#     Node 6, Type 0, BuildingBlock: OJICUG_clean_sbu_0, # of connection points: 6
#     Node 7, Type 0, BuildingBlock: OJICUG_clean_sbu_0, # of connection points: 6
#     Node 8, Type 0, BuildingBlock: OJICUG_clean_sbu_0, # of connection points: 6
#     Node 9, Type 0, BuildingBlock: OJICUG_clean_sbu_0, # of connection points: 6
#     Node 10, Type 0, BuildingBlock: OJICUG_clean_sbu_0, # of connection points: 6
#     Node 11, Type 0, BuildingBlock: OJICUG_clean_sbu_0, # of connection points: 6
#     Node 12, Type 0, BuildingBlock: OJICUG_clean_sbu_0, # of connection points: 6
#     Node 13, Type 0, BuildingBlock: OJICUG_clean_sbu_0, # of connection points: 6
#     Node 14, Type 0, BuildingBlock: OJICUG_clean_sbu_0, # of connection points: 6
#     Node 15, Type 0, BuildingBlock: OJICUG_clean_sbu_0, # of connection points: 6
#     Node 16, Type 0, BuildingBlock: OJICUG_clean_sbu_0, # of connection points: 6
#     Node 17, Type 0, BuildingBlock: OJICUG_clean_sbu_0, # of connection points: 6
#     Edge 18, Type (0, 0), BuildingBlock: UVAHIK_clean_linker_0, # of connection points: 2
#     Edge 19, Type (0, 0), BuildingBlock: UVAHIK_clean_linker_0, # of connection points: 2
#     Edge 20, Type (0, 0), BuildingBlock: UVAHIK_clean_linker_0, # of connection points: 2
#     Edge 21, Type (0, 0), BuildingBlock: UVAHIK_clean_linker_0, # of connection points: 2
#     Edge 22, Type (0, 0), BuildingBlock: UVAHIK_clean_linker_0, # of connection points: 2
#     Edge 23, Type (0, 0), BuildingBlock: UVAHIK_clean_linker_0, # of connection points: 2
#     Edge 24, Type (0, 0), BuildingBlock: UVAHIK_clean_linker_0, # of connection points: 2
#     Edge 25, Type (0, 0), BuildingBlock: UVAHIK_clean_linker_0, # of connection points: 2
#     Edge 26, Type (0, 0), BuildingBlock: UVAHIK_clean_linker_0, # of connection points: 2
#     Edge 27, Type (0, 0), BuildingBlock: UVAHIK_clean_linker_0, # of connection points: 2
#     Edge 28, Type (0, 0), BuildingBlock: UVAHIK_clean_linker_0, # of connection points: 2
#     Edge 29, Type (0, 0), BuildingBlock: UVAHIK_clean_linker_0, # of connection points: 2
#     Edge 30, Type (0, 0), BuildingBlock: UVAHIK_clean_linker_0, # of connection points: 2
#     Edge 31, Type (0, 0), BuildingBlock: UVAHIK_clean_linker_0, # of connection points: 2
#     Edge 32, Type (0, 0), BuildingBlock: UVAHIK_clean_linker_0, # of connection points: 2
#     Edge 33, Type (0, 0), BuildingBlock: UVAHIK_clean_linker_0, # of connection points: 2
#     Edge 34, Type (0, 0), BuildingBlock: UVAHIK_clean_linker_0, # of connection points: 2
#     Edge 35, Type (0, 0), BuildingBlock: UVAHIK_clean_linker_0, # of connection points: 2
#     Edge 36, Type (0, 0), BuildingBlock: UVAHIK_clean_linker_0, # of connection points: 2
#     Edge 37, Type (0, 0), BuildingBlock: UVAHIK_clean_linker_0, # of connection points: 2
#     Edge 38, Type (0, 0), BuildingBlock: UVAHIK_clean_linker_0, # of connection points: 2
#     Edge 39, Type (0, 0), BuildingBlock: UVAHIK_clean_linker_0, # of connection points: 2
#     Edge 40, Type (0, 0), BuildingBlock: UVAHIK_clean_linker_0, # of connection points: 2
#     Edge 41, Type (0, 0), BuildingBlock: UVAHIK_clean_linker_0, # of connection points: 2
#     Edge 42, Type (0, 0), BuildingBlock: UVAHIK_clean_linker_0, # of connection points: 2
#     Edge 43, Type (0, 0), BuildingBlock: UVAHIK_clean_linker_0, # of connection points: 2
#     Edge 44, Type (0, 0), BuildingBlock: UVAHIK_clean_linker_0, # of connection points: 2
#     Edge 45, Type (0, 0), BuildingBlock: UVAHIK_clean_linker_0, # of connection points: 2
#     Edge 46, Type (0, 0), BuildingBlock: UVAHIK_clean_linker_0, # of connection points: 2
#     Edge 47, Type (0, 0), BuildingBlock: UVAHIK_clean_linker_0, # of connection points: 2
#     Edge 48, Type (0, 0), BuildingBlock: UVAHIK_clean_linker_0, # of connection points: 2
#     Edge 49, Type (0, 0), BuildingBlock: UVAHIK_clean_linker_0, # of connection points: 2
#     Edge 50, Type (0, 0), BuildingBlock: UVAHIK_clean_linker_0, # of connection points: 2
#     Edge 51, Type (0, 0), BuildingBlock: UVAHIK_clean_linker_0, # of connection points: 2
#     Edge 52, Type (0, 0), BuildingBlock: UVAHIK_clean_linker_0, # of connection points: 2
#     Edge 53, Type (0, 0), BuildingBlock: UVAHIK_clean_linker_0, # of connection points: 2
#     Edge 54, Type (0, 0), BuildingBlock: UVAHIK_clean_linker_0, # of connection points: 2
#     Edge 55, Type (0, 0), BuildingBlock: UVAHIK_clean_linker_0, # of connection points: 2
#     Edge 56, Type (0, 0), BuildingBlock: UVAHIK_clean_linker_0, # of connection points: 2
#     Edge 57, Type (0, 0), BuildingBlock: UVAHIK_clean_linker_0, # of connection points: 2
#     Edge 58, Type (0, 0), BuildingBlock: UVAHIK_clean_linker_0, # of connection points: 2
#     Edge 59, Type (0, 0), BuildingBlock: UVAHIK_clean_linker_0, # of connection points: 2
#     Edge 60, Type (0, 0), BuildingBlock: UVAHIK_clean_linker_0, # of connection points: 2
#     Edge 61, Type (0, 0), BuildingBlock: UVAHIK_clean_linker_0, # of connection points: 2
#     Edge 62, Type (0, 0), BuildingBlock: UVAHIK_clean_linker_0, # of connection points: 2
#     Edge 63, Type (0, 0), BuildingBlock: UVAHIK_clean_linker_0, # of connection points: 2
#     Edge 64, Type (0, 0), BuildingBlock: UVAHIK_clean_linker_0, # of connection points: 2
#     Edge 65, Type (0, 0), BuildingBlock: UVAHIK_clean_linker_0, # of connection points: 2
#     Edge 66, Type (0, 0), BuildingBlock: UVAHIK_clean_linker_0, # of connection points: 2
#     Edge 67, Type (0, 0), BuildingBlock: UVAHIK_clean_linker_0, # of connection points: 2
#     Edge 68, Type (0, 0), BuildingBlock: UVAHIK_clean_linker_0, # of connection points: 2
#     Edge 69, Type (0, 0), BuildingBlock: UVAHIK_clean_linker_0, # of connection points: 2
#     Edge 70, Type (0, 0), BuildingBlock: UVAHIK_clean_linker_0, # of connection points: 2
#     Edge 71, Type (0, 0), BuildingBlock: UVAHIK_clean_linker_0, # of connection points: 2
# Relax obj value: 0.417
# Max RMSD: 0.152
# Mean RMSD: 0.152
data_MOF--net-sms--node1-OJICUG_clean_sbu_0--edge1-UVAHIK_clean_linker_0
_symmetry_space_group_name_H-M    P1
_symmetry_Int_Tables_number       1
_symmetry_cell_setting            triclinic
loop_
_symmetry_equiv_pos_as_xyz
'x, y, z'
_cell_length_a     51.370946
_cell_length_b     51.361866
_cell_length_c     70.864544
_cell_angle_alpha  89.959902
_cell_angle_beta   89.985267
_cell_angle_gamma 119.99702
loop_
_atom_site_label
_atom_site_type_symbol
_atom_site_fract_x
_atom_site_fract_y
_atom_site_fract_z
_atom_type_partial_charge
Sc0 Sc 0.20071 0.40787 0.05318 0.0
Sc1 Sc 0.16461 0.34209 0.08122 0.0
Sc2 Sc 0.20047 0.41337 0.10253 0.0
O3 O 0.18875 0.38776 0.07894 0.0
C4 C 0.25972 0.44871 0.07802 0.0
C5 C 0.21105 0.35225 0.04817 0.0
C6 C 0.20877 0.3582 0.11577 0.0
C7 C 0.13396 0.35377 0.0458 0.0
C8 C 0.18395 0.45183 0.07438 0.0
C9 C 0.1331 0.36321 0.11132 0.0
O10 O 0.24568 0.44 0.06241 0.0
O11 O 0.19179 0.33616 0.06057 0.0
O12 O 0.21193 0.38421 0.11785 0.0
O13 O 0.15698 0.37844 0.04105 0.0
O14 O 0.19029 0.44577 0.09052 0.0
O15 O 0.13393 0.34262 0.10187 0.0
O16 O 0.18519 0.43891 0.05939 0.0
O17 O 0.1334 0.33878 0.06018 0.0
O18 O 0.15506 0.38992 0.11241 0.0
O19 O 0.21761 0.37904 0.04434 0.0
O20 O 0.24681 0.43964 0.09395 0.0
O21 O 0.19355 0.34062 0.10249 0.0
Sc22 Sc 0.58017 0.78638 0.0549 0.0
Sc23 Sc 0.64717 0.81842 0.08187 0.0
Sc24 Sc 0.57683 0.78185 0.10451 0.0
O25 O 0.60135 0.79562 0.0804 0.0
C26 C 0.53931 0.80395 0.08013 0.0
C27 C 0.63434 0.85373 0.04965 0.0
C28 C 0.6311 0.84608 0.11689 0.0
C29 C 0.63474 0.7751 0.04656 0.0
C30 C 0.53789 0.7258 0.07739 0.0
C31 C 0.62916 0.7668 0.11224 0.0
O32 O 0.54899 0.8003 0.06436 0.0
O33 O 0.65039 0.85208 0.06269 0.0
O34 O 0.60475 0.82374 0.11884 0.0
O35 O 0.60862 0.7708 0.04296 0.0
O36 O 0.54586 0.73821 0.09346 0.0
O37 O 0.64843 0.7869 0.1014 0.0
O38 O 0.54858 0.74009 0.06205 0.0
O39 O 0.65101 0.79211 0.05978 0.0
O40 O 0.60279 0.76255 0.11468 0.0
O41 O 0.609 0.83174 0.04478 0.0
O42 O 0.54787 0.79898 0.09592 0.0
O43 O 0.64895 0.84758 0.10405 0.0
Sc44 Sc 0.20263 0.78772 0.05257 0.0
Sc45 Sc 0.17013 0.82239 0.07901 0.0
Sc46 Sc 0.20061 0.78314 0.10227 0.0
O47 O 0.19115 0.79774 0.07795 0.0
C48 C 0.18072 0.72647 0.07542 0.0
C49 C 0.13839 0.77963 0.04355 0.0
C50 C 0.135 0.77334 0.11049 0.0
C51 C 0.2185 0.85579 0.04678 0.0
C52 C 0.25991 0.80216 0.07772 0.0
C53 C 0.21455 0.84869 0.11413 0.0
O54 O 0.187 0.74167 0.06025 0.0
O55 O 0.14035 0.79787 0.0563 0.0
O56 O 0.15677 0.76886 0.11391 0.0
O57 O 0.21984 0.83271 0.0418 0.0
O58 O 0.24566 0.79599 0.09329 0.0
O59 O 0.1974 0.85023 0.10184 0.0
O60 O 0.24758 0.80095 0.06191 0.0
O61 O 0.20224 0.8557 0.06029 0.0
O62 O 0.2185 0.82625 0.11566 0.0
O63 O 0.15878 0.77295 0.04066 0.0
O64 O 0.18376 0.73819 0.09166 0.0
O65 O 0.13585 0.79129 0.09787 0.0
Sc66 Sc 0.41358 0.20451 0.89264 0.0
Sc67 Sc 0.34113 0.16859 0.91226 0.0
Sc68 Sc 0.40495 0.20193 0.94176 0.0
O69 O 0.38657 0.19184 0.91558 0.0
C70 C 0.44906 0.18493 0.92123 0.0
C71 C 0.36292 0.13896 0.88123 0.0
C72 C 0.35026 0.13468 0.94657 0.0
C73 C 0.36033 0.21607 0.87955 0.0
C74 C 0.44854 0.262 0.91851 0.0
C75 C 0.35002 0.21271 0.94658 0.0
O76 O 0.44471 0.19291 0.90509 0.0
O77 O 0.34201 0.14034 0.88991 0.0
O78 O 0.37353 0.15789 0.95279 0.0
O79 O 0.38559 0.21749 0.87723 0.0
O80 O 0.43875 0.24694 0.93371 0.0
O81 O 0.33394 0.19316 0.93433 0.0
O82 O 0.44 0.25027 0.90225 0.0
O83 O 0.34212 0.20093 0.89264 0.0
O84 O 0.37702 0.21989 0.95009 0.0
O85 O 0.3902 0.15979 0.8817 0.0
O86 O 0.43501 0.18521 0.93591 0.0
O87 O 0.33682 0.1346 0.93152 0.0
Sc88 Sc 0.77914 0.20112 0.89535 0.0
Sc89 Sc 0.81425 0.16526 0.9171 0.0
Sc90 Sc 0.78553 0.20252 0.94474 0.0
O91 O 0.79309 0.18976 0.91909 0.0
C92 C 0.80343 0.26101 0.91926 0.0
C93 C 0.84272 0.20935 0.88251 0.0
C94 C 0.85155 0.21304 0.94939 0.0
C95 C 0.7617 0.13354 0.88692 0.0
C96 C 0.72456 0.18518 0.9237 0.0
C97 C 0.77184 0.13553 0.9526 0.0
O98 O 0.79907 0.24762 0.90348 0.0
O99 O 0.84484 0.19403 0.89584 0.0
O100 O 0.8313 0.21953 0.95324 0.0
O101 O 0.75716 0.15562 0.88563 0.0
O102 O 0.73898 0.18698 0.93867 0.0
O103 O 0.78572 0.13425 0.93814 0.0
O104 O 0.73667 0.191 0.90745 0.0
O105 O 0.78298 0.13435 0.89652 0.0
O106 O 0.77126 0.15909 0.95743 0.0
O107 O 0.81988 0.21248 0.88016 0.0
O108 O 0.79852 0.24738 0.93502 0.0
O109 O 0.84785 0.19303 0.93743 0.0
Sc110 Sc 0.78293 0.57527 0.89174 0.0
Sc111 Sc 0.8183 0.64673 0.91286 0.0
Sc112 Sc 0.78922 0.58137 0.94123 0.0
O113 O 0.7969 0.60109 0.91531 0.0
C114 C 0.72824 0.53682 0.91998 0.0
C115 C 0.76598 0.62577 0.88256 0.0
C116 C 0.77556 0.63486 0.94828 0.0
C117 C 0.84649 0.63 0.87849 0.0
C118 C 0.80736 0.54032 0.91663 0.0
C119 C 0.85553 0.63745 0.94562 0.0
O120 O 0.7401 0.54378 0.90369 0.0
O121 O 0.78656 0.64596 0.89267 0.0
O122 O 0.77343 0.60991 0.95289 0.0
O123 O 0.82408 0.60364 0.87671 0.0
O124 O 0.80349 0.55022 0.93224 0.0
O125 O 0.85222 0.65272 0.93272 0.0
O126 O 0.80189 0.54811 0.90072 0.0
O127 O 0.84819 0.64809 0.89125 0.0
O128 O 0.83485 0.6113 0.95037 0.0
O129 O 0.76186 0.59931 0.88106 0.0
O130 O 0.74287 0.54897 0.93499 0.0
O131 O 0.79093 0.6503 0.93426 0.0
Sc132 Sc 0.86515 0.742 0.38755 0.0
Sc133 Sc 0.83163 0.67606 0.41538 0.0
Sc134 Sc 0.8688 0.74705 0.43727 0.0
O135 O 0.8552 0.72175 0.4134 0.0
C136 C 0.92575 0.78372 0.41035 0.0
C137 C 0.87623 0.68689 0.38114 0.0
C138 C 0.88007 0.69302 0.44788 0.0
C139 C 0.7981 0.68823 0.38163 0.0
C140 C 0.84885 0.78499 0.41122 0.0
C141 C 0.80307 0.69465 0.4488 0.0
O142 O 0.91105 0.77313 0.39515 0.0
O143 O 0.85907 0.67124 0.3945 0.0
O144 O 0.88486 0.71965 0.44994 0.0
O145 O 0.82034 0.71348 0.37696 0.0
O146 O 0.85422 0.77734 0.4272 0.0
O147 O 0.80179 0.67594 0.43663 0.0
O148 O 0.85149 0.77392 0.39575 0.0
O149 O 0.79898 0.67236 0.39509 0.0
O150 O 0.82567 0.7209 0.45063 0.0
O151 O 0.88038 0.71266 0.37662 0.0
O152 O 0.91363 0.77618 0.42658 0.0
O153 O 0.86165 0.67465 0.43594 0.0
Sc154 Sc 0.24433 0.12181 0.38354 0.0
Sc155 Sc 0.31271 0.15278 0.40887 0.0
Sc156 Sc 0.24362 0.1163 0.43309 0.0
O157 O 0.26685 0.13028 0.40848 0.0
C158 C 0.205 0.13897 0.41054 0.0
C159 C 0.29821 0.18922 0.37833 0.0
C160 C 0.29892 0.18024 0.44497 0.0
C161 C 0.29841 0.11107 0.37262 0.0
C162 C 0.20317 0.06079 0.40587 0.0
C163 C 0.29621 0.10095 0.43886 0.0
O164 O 0.21368 0.13532 0.39444 0.0
O165 O 0.31501 0.18671 0.39045 0.0
O166 O 0.27261 0.15802 0.44743 0.0
O167 O 0.27204 0.10667 0.37 0.0
O168 O 0.21171 0.07288 0.42201 0.0
O169 O 0.31484 0.12094 0.42769 0.0
O170 O 0.21345 0.07537 0.39057 0.0
O171 O 0.31544 0.12733 0.38583 0.0
O172 O 0.27 0.0967 0.44202 0.0
O173 O 0.2724 0.16761 0.37384 0.0
O174 O 0.21441 0.13385 0.42596 0.0
O175 O 0.3159 0.18161 0.43159 0.0
Sc176 Sc 0.86898 0.12287 0.38636 0.0
Sc177 Sc 0.83649 0.1583 0.41215 0.0
Sc178 Sc 0.86807 0.12083 0.43624 0.0
O179 O 0.85786 0.13395 0.41158 0.0
C180 C 0.84837 0.06286 0.41057 0.0
C181 C 0.80342 0.11234 0.37839 0.0
C182 C 0.80291 0.11148 0.4451 0.0
C183 C 0.88355 0.19003 0.37884 0.0
C184 C 0.9269 0.13917 0.41141 0.0
C185 C 0.88274 0.18755 0.44599 0.0
O186 O 0.85373 0.07714 0.39505 0.0
O187 O 0.80493 0.13043 0.39112 0.0
O188 O 0.82431 0.10631 0.44814 0.0
O189 O 0.88607 0.16736 0.3746 0.0
O190 O 0.91305 0.13394 0.42708 0.0
O191 O 0.8658 0.18869 0.43338 0.0
O192 O 0.91413 0.13673 0.39558 0.0
O193 O 0.86672 0.18987 0.39198 0.0
O194 O 0.88568 0.16467 0.44864 0.0
O195 O 0.8248 0.1074 0.37469 0.0
O196 O 0.85183 0.07549 0.42654 0.0
O197 O 0.80386 0.12948 0.43252 0.0
Sc198 Sc 0.07754 0.54118 0.22517 0.0
Sc199 Sc 0.00778 0.50604 0.24843 0.0
Sc200 Sc 0.07528 0.53844 0.2748 0.0
O201 O 0.05356 0.52847 0.2495 0.0
C202 C 0.11511 0.51944 0.24948 0.0
C203 C 0.02244 0.47622 0.21425 0.0
C204 C 0.02094 0.47211 0.28166 0.0
C205 C 0.02557 0.55609 0.21681 0.0
C206 C 0.11755 0.59802 0.25164 0.0
C207 C 0.02138 0.55105 0.28271 0.0
O208 O 0.10547 0.52291 0.23366 0.0
O209 O 0.00553 0.47467 0.22774 0.0
O210 O 0.04725 0.49345 0.28533 0.0
O211 O 0.0524 0.56138 0.21511 0.0
O212 O 0.10602 0.58455 0.26709 0.0
O213 O 0.00535 0.53516 0.26905 0.0
O214 O 0.11003 0.58485 0.23575 0.0
O215 O 0.00611 0.53549 0.22731 0.0
O216 O 0.04651 0.55346 0.28708 0.0
O217 O 0.04813 0.49912 0.21123 0.0
O218 O 0.10671 0.52484 0.2652 0.0
O219 O 0.00413 0.47392 0.26921 0.0
Sc220 Sc 0.45179 0.5377 0.22393 0.0
Sc221 Sc 0.4861 0.50373 0.24895 0.0
Sc222 Sc 0.45208 0.53848 0.27377 0.0
O223 O 0.46329 0.52666 0.24888 0.0
C224 C 0.47134 0.59692 0.24848 0.0
C225 C 0.5171 0.54836 0.21449 0.0
C226 C 0.51873 0.55143 0.28164 0.0
C227 C 0.43892 0.47092 0.2161 0.0
C228 C 0.39334 0.51982 0.24888 0.0
C229 C 0.44027 0.47295 0.28319 0.0
O230 O 0.46655 0.58313 0.23283 0.0
O231 O 0.5167 0.53071 0.22713 0.0
O232 O 0.49615 0.55418 0.28586 0.0
O233 O 0.43589 0.49352 0.21245 0.0
O234 O 0.40697 0.5245 0.26458 0.0
O235 O 0.45879 0.47409 0.27091 0.0
O236 O 0.40645 0.52325 0.23308 0.0
O237 O 0.45567 0.4707 0.2292 0.0
O238 O 0.43482 0.49424 0.28577 0.0
O239 O 0.49558 0.55344 0.21182 0.0
O240 O 0.46751 0.58388 0.26436 0.0
O241 O 0.5185 0.53455 0.2685 0.0
Sc242 Sc 0.45304 0.91505 0.22377 0.0
Sc243 Sc 0.49026 0.9841 0.24792 0.0
Sc244 Sc 0.45477 0.91601 0.2735 0.0
O245 O 0.46598 0.93834 0.24839 0.0
C246 C 0.39506 0.87628 0.24928 0.0
C247 C 0.44278 0.97051 0.21539 0.0
C248 C 0.44494 0.97109 0.28221 0.0
C249 C 0.51899 0.96755 0.21346 0.0
C250 C 0.47193 0.875 0.24866 0.0
C251 C 0.52226 0.9687 0.28076 0.0
O252 O 0.40754 0.88588 0.23331 0.0
O253 O 0.4599 0.98741 0.2284 0.0
O254 O 0.43805 0.94387 0.28469 0.0
O255 O 0.4968 0.94118 0.21136 0.0
O256 O 0.46963 0.88538 0.2645 0.0
O257 O 0.52274 0.98502 0.26717 0.0
O258 O 0.46622 0.88331 0.23302 0.0
O259 O 0.51964 0.98578 0.22577 0.0
O260 O 0.49897 0.9442 0.28543 0.0
O261 O 0.43881 0.94447 0.21195 0.0
O262 O 0.40945 0.88491 0.26474 0.0
O263 O 0.46433 0.98827 0.27022 0.0
Sc264 Sc 0.53291 0.07999 0.71187 0.0
Sc265 Sc 0.50228 0.01322 0.73867 0.0
Sc266 Sc 0.5357 0.0831 0.76131 0.0
O267 O 0.52347 0.05883 0.73726 0.0
C268 C 0.59221 0.12282 0.73447 0.0
C269 C 0.54843 0.02758 0.70543 0.0
C270 C 0.55173 0.03259 0.77082 0.0
C271 C 0.46809 0.02465 0.70478 0.0
C272 C 0.51359 0.11992 0.73689 0.0
C273 C 0.47067 0.02735 0.77173 0.0
O274 O 0.57905 0.11014 0.71919 0.0
O275 O 0.53414 0.01244 0.7198 0.0
O276 O 0.55752 0.05966 0.77142 0.0
O277 O 0.48751 0.05216 0.70235 0.0
O278 O 0.51582 0.10944 0.75271 0.0
O279 O 0.46898 0.01095 0.75787 0.0
O280 O 0.5202 0.11229 0.72128 0.0
O281 O 0.47176 0.00767 0.71621 0.0
O282 O 0.49397 0.0525 0.77536 0.0
O283 O 0.54767 0.0507 0.69968 0.0
O284 O 0.57883 0.11645 0.75033 0.0
O285 O 0.53017 0.01236 0.76128 0.0
Sc286 Sc 0.91627 0.45707 0.71501 0.0
Sc287 Sc 0.98092 0.48677 0.7439 0.0
Sc288 Sc 0.90875 0.45315 0.76424 0.0
O289 O 0.93535 0.46577 0.74102 0.0
C290 C 0.87536 0.47717 0.73809 0.0
C291 C 0.97212 0.52287 0.71015 0.0
C292 C 0.96415 0.5164 0.7773 0.0
C293 C 0.97012 0.44362 0.70907 0.0
C294 C 0.87083 0.39745 0.73651 0.0
C295 C 0.95752 0.43467 0.77469 0.0
O296 O 0.88436 0.47076 0.723 0.0
O297 O 0.988 0.51992 0.72282 0.0
O298 O 0.93783 0.49401 0.77926 0.0
O299 O 0.94571 0.44211 0.70389 0.0
O300 O 0.8762 0.41047 0.75245 0.0
O301 O 0.97874 0.4554 0.76514 0.0
O302 O 0.88475 0.41088 0.72157 0.0
O303 O 0.98478 0.45828 0.72347 0.0
O304 O 0.93111 0.43083 0.77534 0.0
O305 O 0.9456 0.50245 0.70605 0.0
O306 O 0.88357 0.47378 0.75442 0.0
O307 O 0.98214 0.51789 0.76453 0.0
Sc308 Sc 0.54035 0.46094 0.71145 0.0
Sc309 Sc 0.50636 0.49367 0.73876 0.0
Sc310 Sc 0.54669 0.46352 0.76093 0.0
O311 O 0.53111 0.47267 0.73702 0.0
C312 C 0.52524 0.40353 0.73708 0.0
C313 C 0.47174 0.44425 0.70726 0.0
C314 C 0.48208 0.45096 0.77454 0.0
C315 C 0.54759 0.525 0.70262 0.0
C316 C 0.6021 0.48179 0.73302 0.0
C317 C 0.55906 0.53016 0.76805 0.0
O318 O 0.52822 0.41636 0.72118 0.0
O319 O 0.47267 0.46139 0.72045 0.0
O320 O 0.50534 0.44845 0.77611 0.0
O321 O 0.55402 0.50451 0.69941 0.0
O322 O 0.59019 0.47725 0.74925 0.0
O323 O 0.53793 0.52795 0.7576 0.0
O324 O 0.58714 0.47745 0.71791 0.0
O325 O 0.53016 0.52344 0.71583 0.0
O326 O 0.56472 0.50895 0.7705 0.0
O327 O 0.4945 0.44263 0.70184 0.0
O328 O 0.53043 0.41745 0.75273 0.0
O329 O 0.47897 0.46626 0.76163 0.0
Sc330 Sc 0.74599 0.87683 0.55283 0.0
Sc331 Sc 0.67828 0.84572 0.5782 0.0
Sc332 Sc 0.74755 0.87697 0.60239 0.0
O333 O 0.72399 0.86635 0.57784 0.0
C334 C 0.78406 0.85486 0.5763 0.0
C335 C 0.68862 0.81176 0.54473 0.0
C336 C 0.69186 0.8131 0.61211 0.0
C337 C 0.69505 0.89315 0.54509 0.0
C338 C 0.78908 0.93475 0.57764 0.0
C339 C 0.69658 0.89391 0.61078 0.0
O340 O 0.77324 0.85745 0.56071 0.0
O341 O 0.67342 0.81142 0.55894 0.0
O342 O 0.71956 0.83252 0.61368 0.0
O343 O 0.72174 0.89816 0.54324 0.0
O344 O 0.77838 0.92243 0.59351 0.0
O345 O 0.67964 0.87848 0.59729 0.0
O346 O 0.78036 0.92059 0.56212 0.0
O347 O 0.67579 0.87287 0.55581 0.0
O348 O 0.72055 0.89382 0.61527 0.0
O349 O 0.71399 0.83427 0.5404 0.0
O350 O 0.77742 0.86185 0.59211 0.0
O351 O 0.67431 0.81602 0.6008 0.0
Sc352 Sc 0.1207 0.87243 0.55363 0.0
Sc353 Sc 0.15485 0.83799 0.57863 0.0
Sc354 Sc 0.1169 0.86886 0.60329 0.0
O355 O 0.13079 0.85974 0.57852 0.0
C356 C 0.13693 0.92913 0.57974 0.0
C357 C 0.18765 0.8858 0.54602 0.0
C358 C 0.18281 0.88211 0.61367 0.0
C359 C 0.11084 0.80751 0.54373 0.0
C360 C 0.05993 0.85107 0.57703 0.0
C361 C 0.10687 0.80335 0.61102 0.0
O362 O 0.13465 0.91719 0.56364 0.0
O363 O 0.18763 0.86862 0.55888 0.0
O364 O 0.16038 0.88578 0.61629 0.0
O365 O 0.10594 0.82918 0.54111 0.0
O366 O 0.07208 0.85356 0.59306 0.0
O367 O 0.12561 0.80535 0.59863 0.0
O368 O 0.07466 0.85722 0.56165 0.0
O369 O 0.12792 0.80738 0.55665 0.0
O370 O 0.10096 0.82418 0.61429 0.0
O371 O 0.1652 0.88908 0.54248 0.0
O372 O 0.13104 0.91437 0.59508 0.0
O373 O 0.18384 0.86554 0.60075 0.0
Sc374 Sc 0.12638 0.24924 0.55357 0.0
Sc375 Sc 0.16165 0.31896 0.57685 0.0
Sc376 Sc 0.12346 0.25134 0.603 0.0
O377 O 0.13701 0.27318 0.57784 0.0
C378 C 0.06571 0.21292 0.57662 0.0
C379 C 0.11931 0.30566 0.5416 0.0
C380 C 0.11312 0.30687 0.60897 0.0
C381 C 0.19446 0.29939 0.54676 0.0
C382 C 0.14044 0.20817 0.58099 0.0
C383 C 0.19018 0.30383 0.61204 0.0
O384 O 0.07957 0.22276 0.56104 0.0
O385 O 0.13406 0.32228 0.55536 0.0
O386 O 0.10679 0.28003 0.61237 0.0
O387 O 0.17234 0.27295 0.5448 0.0
O388 O 0.1385 0.22013 0.59622 0.0
O389 O 0.1917 0.32014 0.59814 0.0
O390 O 0.13535 0.21563 0.5649 0.0
O391 O 0.1934 0.31951 0.5566 0.0
O392 O 0.16663 0.27923 0.61618 0.0
O393 O 0.11608 0.27974 0.53887 0.0
O394 O 0.07887 0.22056 0.59257 0.0
O395 O 0.13307 0.32369 0.5971 0.0
C396 C 0.16823 0.67729 0.09048 0.0
C397 C 0.17148 0.69415 0.07411 0.0
C398 C 0.16295 0.64789 0.08915 0.0
C399 C 0.17636 0.60022 0.0567 0.0
H400 H 0.12821 0.53739 0.09267 0.0
C401 C 0.17167 0.4857 0.05542 0.0
C402 C 0.17563 0.47557 0.07305 0.0
C403 C 0.16579 0.50948 0.05429 0.0
C404 C 0.14179 0.55475 0.08254 0.0
H405 H 0.16986 0.69253 0.04348 0.0
H406 H 0.16036 0.64121 0.04123 0.0
H407 H 0.127 0.58432 0.09298 0.0
H408 H 0.17531 0.48183 0.10335 0.0
H409 H 0.16546 0.52333 0.10133 0.0
H410 H 0.19179 0.57108 0.04658 0.0
C411 C 0.16251 0.65097 0.05508 0.0
C412 C 0.14111 0.58161 0.08273 0.0
C413 C 0.16783 0.68037 0.0564 0.0
C414 C 0.17256 0.4891 0.08951 0.0
C415 C 0.16663 0.51277 0.08837 0.0
C416 C 0.17703 0.57338 0.05651 0.0
C417 C 0.16071 0.63464 0.07143 0.0
C418 C 0.15881 0.60487 0.07003 0.0
C419 C 0.16362 0.52354 0.07075 0.0
C420 C 0.16021 0.55056 0.06966 0.0
H421 H 0.17084 0.68712 0.10436 0.0
H422 H 0.16196 0.63606 0.10203 0.0
H423 H 0.19063 0.61783 0.04691 0.0
H424 H 0.17369 0.47571 0.04245 0.0
H425 H 0.16323 0.51704 0.0405 0.0
C426 C 0.49904 0.68027 0.05981 0.0
C427 C 0.514 0.69371 0.07675 0.0
C428 C 0.4744 0.65098 0.0598 0.0
C429 C 0.41535 0.59802 0.09189 0.0
H430 H 0.39773 0.54011 0.05187 0.0
C431 C 0.30873 0.48188 0.09446 0.0
C432 C 0.29203 0.4721 0.07765 0.0
C433 C 0.3381 0.50622 0.09436 0.0
C434 C 0.40227 0.55611 0.0631 0.0
H435 H 0.51591 0.68607 0.10674 0.0
H436 H 0.47335 0.63515 0.10663 0.0
H437 H 0.44515 0.5879 0.05144 0.0
H438 H 0.29384 0.47952 0.04738 0.0
H439 H 0.34476 0.52218 0.04729 0.0
H440 H 0.37238 0.56683 0.10334 0.0
C441 C 0.48017 0.64745 0.09344 0.0
C442 C 0.42943 0.58347 0.06285 0.0
C443 C 0.50467 0.67666 0.09347 0.0
C444 C 0.30595 0.48642 0.06062 0.0
C445 C 0.33529 0.51084 0.06054 0.0
C446 C 0.38826 0.57079 0.09212 0.0
C447 C 0.46428 0.63452 0.07671 0.0
C448 C 0.43618 0.6048 0.0772 0.0
C449 C 0.35147 0.52147 0.07746 0.0
C450 C 0.38126 0.54955 0.07768 0.0
H451 H 0.50564 0.69273 0.04668 0.0
H452 H 0.46254 0.64172 0.04668 0.0
H453 H 0.41955 0.61417 0.10297 0.0
H454 H 0.29889 0.47122 0.10781 0.0
H455 H 0.35015 0.51344 0.1076 0.0
C456 C 0.50559 0.81827 0.06286 0.0
C457 C 0.51535 0.81213 0.07998 0.0
C458 C 0.48076 0.82251 0.06241 0.0
C459 C 0.42964 0.83673 0.09234 0.0
H460 H 0.37233 0.79403 0.05243 0.0
C461 C 0.30571 0.80891 0.0949 0.0
C462 C 0.29182 0.80955 0.07792 0.0
C463 C 0.33491 0.81343 0.0949 0.0
C464 C 0.38826 0.80653 0.0635 0.0
H465 H 0.50726 0.80704 0.11019 0.0
H466 H 0.46381 0.8141 0.10933 0.0
H467 H 0.42004 0.79486 0.0529 0.0
H468 H 0.2985 0.81674 0.04769 0.0
H469 H 0.34944 0.82489 0.04775 0.0
H470 H 0.39744 0.84787 0.10312 0.0
C471 C 0.47553 0.81588 0.09627 0.0
C472 C 0.41569 0.80701 0.06377 0.0
C473 C 0.50043 0.8117 0.09674 0.0
C474 C 0.30831 0.81584 0.06103 0.0
C475 C 0.33751 0.82036 0.06104 0.0
C476 C 0.40214 0.83623 0.09208 0.0
C477 C 0.46499 0.82068 0.07904 0.0
C478 C 0.43665 0.82191 0.07827 0.0
C479 C 0.35099 0.81871 0.07793 0.0
C480 C 0.38101 0.8209 0.07773 0.0
H481 H 0.51665 0.81907 0.04968 0.0
H482 H 0.47361 0.82677 0.04894 0.0
H483 H 0.44542 0.84873 0.10358 0.0
H484 H 0.29378 0.80416 0.1082 0.0
H485 H 0.34447 0.81171 0.10814 0.0
C486 C 0.48715 0.17395 0.90695 0.0
C487 C 0.47234 0.17611 0.92305 0.0
C488 C 0.5107 0.16795 0.9087 0.0
C489 C 0.56908 0.17779 0.94204 0.0
H490 H 0.58342 0.12987 0.90574 0.0
C491 C 0.67852 0.17247 0.94286 0.0
C492 C 0.69253 0.17681 0.92516 0.0
C493 C 0.64888 0.16651 0.94413 0.0
C494 C 0.57973 0.14336 0.91597 0.0
H495 H 0.46992 0.17234 0.95361 0.0
H496 H 0.51109 0.16185 0.95661 0.0
H497 H 0.5358 0.12967 0.9052 0.0
H498 H 0.68585 0.1771 0.89491 0.0
H499 H 0.63456 0.16719 0.89719 0.0
H500 H 0.61334 0.19232 0.95239 0.0
C501 C 0.5046 0.16513 0.94265 0.0
C502 C 0.55248 0.14322 0.91566 0.0
C503 C 0.48094 0.17103 0.94091 0.0
C504 C 0.67588 0.17403 0.90878 0.0
C505 C 0.64631 0.16806 0.91007 0.0
C506 C 0.59634 0.17796 0.94232 0.0
C507 C 0.52004 0.16401 0.92659 0.0
C508 C 0.54716 0.16099 0.92842 0.0
C509 C 0.6326 0.16467 0.92776 0.0
C510 C 0.60224 0.16131 0.929 0.0
H511 H 0.48105 0.17756 0.89297 0.0
H512 H 0.52236 0.16757 0.89606 0.0
H513 H 0.56581 0.192 0.9519 0.0
H514 H 0.69059 0.17424 0.95576 0.0
H515 H 0.63879 0.16366 0.95796 0.0
C516 C 0.82208 0.50729 0.93439 0.0
C517 C 0.81636 0.51696 0.9171 0.0
C518 C 0.82697 0.48286 0.93509 0.0
C519 C 0.84351 0.43273 0.90581 0.0
H520 H 0.79826 0.37422 0.94471 0.0
C521 C 0.81418 0.30842 0.90233 0.0
C522 C 0.8127 0.29344 0.91929 0.0
C523 C 0.81974 0.338 0.90254 0.0
C524 C 0.81152 0.3905 0.93396 0.0
H525 H 0.81289 0.5093 0.88684 0.0
H526 H 0.82107 0.46657 0.88811 0.0
H527 H 0.79923 0.42198 0.94423 0.0
H528 H 0.81763 0.29865 0.9497 0.0
H529 H 0.82771 0.35027 0.95 0.0
H530 H 0.85523 0.4008 0.89533 0.0
C531 C 0.82199 0.47802 0.90114 0.0
C532 C 0.81207 0.41796 0.93368 0.0
C533 C 0.81713 0.50248 0.90043 0.0
C534 C 0.81828 0.30929 0.93638 0.0
C535 C 0.82391 0.33889 0.93657 0.0
C536 C 0.84298 0.40521 0.9061 0.0
C537 C 0.82625 0.46746 0.91852 0.0
C538 C 0.82778 0.4393 0.9195 0.0
C539 C 0.82405 0.35339 0.91969 0.0
C540 C 0.82668 0.38361 0.92006 0.0
H541 H 0.82197 0.51804 0.94751 0.0
H542 H 0.83075 0.47568 0.94868 0.0
H543 H 0.85614 0.44883 0.89483 0.0
H544 H 0.81003 0.29698 0.88889 0.0
H545 H 0.81941 0.34834 0.88929 0.0
C546 C 0.67942 0.49989 0.90488 0.0
C547 C 0.69629 0.51274 0.92136 0.0
C548 C 0.65002 0.47583 0.90595 0.0
C549 C 0.5835 0.43296 0.91186 0.0
H550 H 0.56975 0.36866 0.94632 0.0
C551 C 0.48331 0.30748 0.93756 0.0
C552 C 0.47243 0.29404 0.91984 0.0
C553 C 0.508 0.33653 0.93886 0.0
C554 C 0.57299 0.38659 0.93684 0.0
H555 H 0.69487 0.5109 0.95196 0.0
H556 H 0.64335 0.46894 0.9538 0.0
H557 H 0.61775 0.41535 0.9468 0.0
H558 H 0.47827 0.30138 0.88959 0.0
H559 H 0.52143 0.35191 0.8919 0.0
H560 H 0.53894 0.40378 0.90157 0.0
C561 C 0.65315 0.47732 0.94004 0.0
C562 C 0.60054 0.41341 0.93713 0.0
C563 C 0.68263 0.50148 0.93898 0.0
C564 C 0.48603 0.31093 0.90347 0.0
C565 C 0.51072 0.34001 0.90479 0.0
C566 C 0.55594 0.40611 0.91155 0.0
C567 C 0.63666 0.46397 0.92352 0.0
C568 C 0.60631 0.43673 0.92444 0.0
C569 C 0.52238 0.3529 0.9225 0.0
C570 C 0.55054 0.38244 0.92385 0.0
H571 H 0.68909 0.50798 0.89104 0.0
H572 H 0.63814 0.46587 0.89293 0.0
H573 H 0.58706 0.45068 0.90209 0.0
H574 H 0.47328 0.29529 0.95049 0.0
H575 H 0.51613 0.34602 0.95272 0.0
C576 C 0.83776 0.01501 0.42683 0.0
C577 C 0.8399 0.03064 0.41005 0.0
C578 C 0.83315 0.98578 0.42625 0.0
C579 C 0.84532 0.93594 0.39466 0.0
H580 H 0.799 0.87526 0.43223 0.0
C581 C 0.83657 0.81968 0.39319 0.0
C582 C 0.84092 0.80913 0.41056 0.0
C583 C 0.83186 0.84424 0.3925 0.0
C584 C 0.81214 0.89203 0.42169 0.0
H585 H 0.83719 0.02695 0.37951 0.0
H586 H 0.82875 0.97591 0.37855 0.0
H587 H 0.79858 0.92261 0.4321 0.0
H588 H 0.84249 0.81559 0.44092 0.0
H589 H 0.8346 0.85848 0.43966 0.0
H590 H 0.85935 0.90573 0.38445 0.0
C591 C 0.83128 0.98652 0.39215 0.0
C592 C 0.8119 0.91917 0.42162 0.0
C593 C 0.83595 0.01577 0.39272 0.0
C594 C 0.8393 0.82307 0.42727 0.0
C595 C 0.83458 0.84761 0.42657 0.0
C596 C 0.84553 0.90885 0.39472 0.0
C597 C 0.83048 0.9714 0.40889 0.0
C598 C 0.82877 0.9416 0.40822 0.0
C599 C 0.83135 0.85884 0.40916 0.0
C600 C 0.82922 0.88668 0.40836 0.0
H601 H 0.84067 0.02568 0.44045 0.0
H602 H 0.83292 0.97495 0.43941 0.0
H603 H 0.85902 0.95289 0.38435 0.0
H604 H 0.83745 0.80942 0.38004 0.0
H605 H 0.82897 0.85201 0.37888 0.0
C606 C 0.97472 0.82133 0.42528 0.0
C607 C 0.95793 0.80727 0.40897 0.0
C608 C 0.00405 0.84558 0.42383 0.0
C609 C 0.05183 0.90624 0.39108 0.0
H610 H 0.11541 0.92017 0.42617 0.0
C611 C 0.16746 0.0145 0.38762 0.0
C612 C 0.17914 0.02874 0.40502 0.0
C613 C 0.14311 0.9851 0.38701 0.0
C614 C 0.09784 0.91667 0.41631 0.0
H615 H 0.95959 0.8069 0.37834 0.0
H616 H 0.01071 0.84901 0.3759 0.0
H617 H 0.06784 0.8727 0.42725 0.0
H618 H 0.17499 0.02259 0.43543 0.0
H619 H 0.13246 0.97178 0.43432 0.0
H620 H 0.08133 0.95041 0.38048 0.0
C621 C 0.00097 0.84155 0.38979 0.0
C622 C 0.0706 0.88947 0.41693 0.0
C623 C 0.97168 0.81729 0.39122 0.0
C624 C 0.16659 0.01245 0.42175 0.0
C625 C 0.14227 0.98313 0.42113 0.0
C626 C 0.07899 0.93343 0.39049 0.0
C627 C 0.01728 0.85637 0.40606 0.0
C628 C 0.04714 0.88411 0.40448 0.0
C629 C 0.12989 0.96925 0.40377 0.0
C630 C 0.10218 0.93918 0.40328 0.0
H631 H 0.96493 0.81422 0.43918 0.0
H632 H 0.01591 0.85664 0.43664 0.0
H633 H 0.03407 0.90304 0.38148 0.0
H634 H 0.17667 0.02624 0.37444 0.0
H635 H 0.1344 0.97489 0.37338 0.0
C636 C 0.17169 0.1549 0.39448 0.0
C637 C 0.18129 0.14745 0.41119 0.0
C638 C 0.14706 0.15943 0.3946 0.0
C639 C 0.09625 0.17233 0.42553 0.0
H640 H 0.03887 0.13159 0.3853 0.0
C641 C 0.97274 0.14584 0.42847 0.0
C642 C 0.95886 0.14677 0.41155 0.0
C643 C 0.0019 0.15027 0.42837 0.0
C644 C 0.05483 0.14358 0.39646 0.0
H645 H 0.17321 0.1404 0.44133 0.0
H646 H 0.13001 0.14802 0.44146 0.0
H647 H 0.08631 0.13192 0.38534 0.0
H648 H 0.96556 0.15461 0.38137 0.0
H649 H 0.01649 0.16273 0.38128 0.0
H650 H 0.06437 0.18355 0.43679 0.0
C651 C 0.14174 0.15056 0.42829 0.0
C652 C 0.08209 0.14375 0.39649 0.0
C653 C 0.16647 0.14607 0.42819 0.0
C654 C 0.97536 0.15342 0.39465 0.0
C655 C 0.00454 0.15793 0.39458 0.0
C656 C 0.06893 0.1722 0.42549 0.0
C657 C 0.13132 0.15658 0.41141 0.0
C658 C 0.10307 0.15795 0.41107 0.0
C659 C 0.01795 0.15582 0.41137 0.0
C660 C 0.04779 0.15763 0.41101 0.0
H661 H 0.18274 0.15652 0.38116 0.0
H662 H 0.14 0.16466 0.38142 0.0
H663 H 0.11206 0.18375 0.43686 0.0
H664 H 0.96078 0.1408 0.44177 0.0
H665 H 0.01139 0.1482 0.44155 0.0
C666 C 0.34577 0.50697 0.26625 0.0
C667 C 0.36125 0.51178 0.24906 0.0
C668 C 0.31654 0.5023 0.2666 0.0
C669 C 0.24999 0.48392 0.23683 0.0
H670 H 0.23551 0.52962 0.27473 0.0
C671 C 0.15229 0.50939 0.23265 0.0
C672 C 0.13879 0.51089 0.24959 0.0
C673 C 0.17694 0.5048 0.23292 0.0
C674 C 0.2389 0.51625 0.26425 0.0
H675 H 0.35741 0.51412 0.21867 0.0
H676 H 0.30658 0.50633 0.21935 0.0
H677 H 0.28297 0.52999 0.27458 0.0
H678 H 0.13968 0.50693 0.28006 0.0
H679 H 0.1823 0.49854 0.28048 0.0
H680 H 0.20597 0.47068 0.22631 0.0
C681 C 0.317 0.50592 0.23255 0.0
C682 C 0.26618 0.51648 0.26416 0.0
C683 C 0.34625 0.51055 0.23218 0.0
C684 C 0.14966 0.50624 0.26674 0.0
C685 C 0.17424 0.50159 0.267 0.0
C686 C 0.22261 0.48368 0.23692 0.0
C687 C 0.30203 0.50235 0.2498 0.0
C688 C 0.27219 0.50051 0.25038 0.0
C689 C 0.18863 0.50152 0.25013 0.0
C690 C 0.21684 0.50004 0.25057 0.0
H691 H 0.35643 0.50744 0.27953 0.0
H692 H 0.30545 0.49904 0.28011 0.0
H693 H 0.25376 0.47109 0.22614 0.0
H694 H 0.14455 0.51283 0.21916 0.0
H695 H 0.1876 0.50511 0.21967 0.0
C696 C 0.48148 0.64436 0.26503 0.0
C697 C 0.47984 0.62913 0.24818 0.0
C698 C 0.48632 0.67367 0.26459 0.0
C699 C 0.47515 0.72409 0.23308 0.0
H700 H 0.52126 0.78446 0.27079 0.0
C701 C 0.48443 0.84023 0.23111 0.0
C702 C 0.47998 0.85098 0.24837 0.0
C703 C 0.48918 0.81573 0.23066 0.0
C704 C 0.50818 0.76777 0.26022 0.0
H705 H 0.48371 0.63359 0.21768 0.0
H706 H 0.49247 0.68473 0.21697 0.0
H707 H 0.52136 0.73692 0.27072 0.0
H708 H 0.47831 0.845 0.27876 0.0
H709 H 0.48618 0.80201 0.27792 0.0
H710 H 0.46141 0.75447 0.2228 0.0
C711 C 0.48939 0.67376 0.23051 0.0
C712 C 0.50825 0.74055 0.26017 0.0
C713 C 0.48451 0.64445 0.23094 0.0
C714 C 0.48162 0.83734 0.26521 0.0
C715 C 0.48629 0.81276 0.26474 0.0
C716 C 0.47508 0.75123 0.23313 0.0
C717 C 0.48969 0.68848 0.24729 0.0
C718 C 0.4915 0.71828 0.2467 0.0
C719 C 0.48952 0.80129 0.24743 0.0
C720 C 0.49136 0.7733 0.24679 0.0
H721 H 0.47803 0.63333 0.27858 0.0
H722 H 0.48617 0.68425 0.27777 0.0
H723 H 0.46154 0.70724 0.22272 0.0
H724 H 0.48367 0.85035 0.21786 0.0
H725 H 0.49216 0.80783 0.21711 0.0
C726 C 0.15541 0.64534 0.23527 0.0
C727 C 0.14181 0.63001 0.25212 0.0
C728 C 0.17988 0.67461 0.23569 0.0
C729 C 0.24161 0.72561 0.26686 0.0
H730 H 0.25449 0.78529 0.22886 0.0
C731 C 0.34814 0.84217 0.2674 0.0
C732 C 0.36289 0.85254 0.24996 0.0
C733 C 0.31894 0.81764 0.26824 0.0
C734 C 0.25128 0.76881 0.23952 0.0
H735 H 0.14267 0.63417 0.28262 0.0
H736 H 0.1852 0.68536 0.28332 0.0
H737 H 0.20713 0.73755 0.22946 0.0
H738 H 0.35775 0.8459 0.21964 0.0
H739 H 0.30696 0.80291 0.22115 0.0
H740 H 0.28588 0.75646 0.2767 0.0
C741 C 0.17717 0.67446 0.26979 0.0
C742 C 0.22415 0.74146 0.23986 0.0
C743 C 0.15267 0.64515 0.26937 0.0
C744 C 0.34716 0.83855 0.23333 0.0
C745 C 0.31793 0.81395 0.23418 0.0
C746 C 0.26868 0.75291 0.26652 0.0
C747 C 0.19138 0.68936 0.25296 0.0
C748 C 0.21914 0.71939 0.25341 0.0
C749 C 0.30372 0.8028 0.25168 0.0
C750 C 0.274 0.77472 0.25272 0.0
H751 H 0.14766 0.63449 0.2217 0.0
H752 H 0.19045 0.68526 0.22248 0.0
H753 H 0.23876 0.70895 0.27728 0.0
H754 H 0.35939 0.85255 0.2805 0.0
H755 H 0.30843 0.80999 0.28193 0.0
C756 C 0.50631 0.15894 0.72005 0.0
C757 C 0.50551 0.14395 0.73687 0.0
C758 C 0.50262 0.18414 0.72043 0.0
C759 C 0.51378 0.24491 0.75254 0.0
H760 H 0.47314 0.26417 0.71357 0.0
C761 C 0.51108 0.3556 0.7545 0.0
C762 C 0.51667 0.37129 0.73733 0.0
C763 C 0.50519 0.32592 0.75484 0.0
C764 C 0.48475 0.2592 0.7245 0.0
H765 H 0.4983 0.14279 0.76713 0.0
H766 H 0.49165 0.18649 0.7677 0.0
H767 H 0.47036 0.21527 0.71335 0.0
H768 H 0.51949 0.36753 0.70697 0.0
H769 H 0.50977 0.31608 0.70762 0.0
H770 H 0.52886 0.28895 0.76344 0.0
C771 C 0.49571 0.17907 0.75427 0.0
C772 C 0.48311 0.23116 0.72438 0.0
C773 C 0.49937 0.15388 0.75392 0.0
C774 C 0.51529 0.3562 0.72047 0.0
C775 C 0.50952 0.32656 0.72082 0.0
C776 C 0.51549 0.27291 0.75263 0.0
C777 C 0.49804 0.19495 0.73761 0.0
C778 C 0.49784 0.2238 0.73832 0.0
C779 C 0.50485 0.31119 0.73803 0.0
C780 C 0.50125 0.28056 0.73852 0.0
H781 H 0.51092 0.15194 0.70665 0.0
H782 H 0.50473 0.19595 0.70734 0.0
H783 H 0.52586 0.24021 0.76329 0.0
H784 H 0.51167 0.36636 0.76776 0.0
H785 H 0.50115 0.31459 0.76832 0.0
C786 C 0.63949 0.16146 0.75031 0.0
C787 C 0.62422 0.14674 0.73372 0.0
C788 C 0.66903 0.18532 0.74951 0.0
C789 C 0.72107 0.24397 0.7172 0.0
H790 H 0.77972 0.25771 0.75606 0.0
C791 C 0.83774 0.35091 0.71777 0.0
C792 C 0.84657 0.36564 0.7353 0.0
C793 C 0.81338 0.32163 0.71658 0.0
C794 C 0.76355 0.25419 0.74513 0.0
H795 H 0.62858 0.1449 0.70333 0.0
H796 H 0.6802 0.18648 0.70201 0.0
H797 H 0.73176 0.21063 0.75576 0.0
H798 H 0.83738 0.36054 0.76541 0.0
H799 H 0.79482 0.30981 0.76326 0.0
H800 H 0.75242 0.28779 0.70686 0.0
C801 C 0.6691 0.17976 0.71559 0.0
C802 C 0.7361 0.22726 0.74496 0.0
C803 C 0.63955 0.15585 0.71638 0.0
C804 C 0.83115 0.35 0.75166 0.0
C805 C 0.80687 0.32076 0.75046 0.0
C806 C 0.74849 0.27088 0.71737 0.0
C807 C 0.68401 0.19502 0.73212 0.0
C808 C 0.71434 0.22211 0.7312 0.0
C809 C 0.7974 0.30642 0.73288 0.0
C810 C 0.7698 0.27653 0.73154 0.0
H811 H 0.62847 0.15502 0.76392 0.0
H812 H 0.67975 0.19683 0.76248 0.0
H813 H 0.70462 0.24086 0.70656 0.0
H814 H 0.84921 0.36219 0.7049 0.0
H815 H 0.80683 0.31102 0.70286 0.0
C816 C 0.83924 0.49098 0.75263 0.0
C817 C 0.85297 0.48728 0.73647 0.0
C818 C 0.81586 0.49735 0.7509 0.0
C819 C 0.75642 0.48595 0.71772 0.0
H820 H 0.74363 0.53702 0.75223 0.0
C821 C 0.6484 0.49345 0.71435 0.0
C822 C 0.63439 0.49086 0.73186 0.0
C823 C 0.67798 0.49904 0.71354 0.0
C824 C 0.74684 0.5226 0.74251 0.0
H825 H 0.85398 0.48919 0.70583 0.0
H826 H 0.81343 0.50042 0.70291 0.0
H827 H 0.79055 0.53585 0.75359 0.0
H828 H 0.6412 0.49367 0.76222 0.0
H829 H 0.69223 0.5028 0.76077 0.0
H830 H 0.71245 0.47185 0.70705 0.0
C831 C 0.82038 0.49786 0.71689 0.0
C832 C 0.77372 0.52195 0.7433 0.0
C833 C 0.84372 0.49152 0.7186 0.0
C834 C 0.65112 0.49533 0.74847 0.0
C835 C 0.68059 0.50086 0.74765 0.0
C836 C 0.72956 0.48652 0.71697 0.0
C837 C 0.80573 0.50017 0.733 0.0
C838 C 0.77859 0.50324 0.73111 0.0
C839 C 0.69419 0.50217 0.7302 0.0
C840 C 0.7242 0.50443 0.72958 0.0
H841 H 0.8458 0.48796 0.76662 0.0
H842 H 0.80488 0.49877 0.76359 0.0
H843 H 0.75926 0.47094 0.70831 0.0
H844 H 0.63629 0.49038 0.70127 0.0
H845 H 0.68797 0.50039 0.69986 0.0
C846 C 0.01431 0.84406 0.55942 0.0
C847 C 0.02776 0.84275 0.57642 0.0
C848 C 0.9851 0.8396 0.5593 0.0
C849 C 0.93243 0.84689 0.59094 0.0
H850 H 0.87468 0.80666 0.55083 0.0
C851 C 0.81706 0.83903 0.59291 0.0
C852 C 0.80713 0.84549 0.57599 0.0
C853 C 0.84122 0.83372 0.59294 0.0
C854 C 0.89064 0.81813 0.56207 0.0
H855 H 0.02015 0.83388 0.60648 0.0
H856 H 0.9693 0.82584 0.60619 0.0
H857 H 0.9221 0.80628 0.55082 0.0
H858 H 0.8141 0.85006 0.54568 0.0
H859 H 0.85655 0.84136 0.54579 0.0
H860 H 0.90161 0.85946 0.60198 0.0
C861 C 0.98157 0.83095 0.593 0.0
C862 C 0.91779 0.81789 0.56207 0.0
C863 C 0.01073 0.83542 0.59314 0.0
C864 C 0.8211 0.84514 0.55899 0.0
C865 C 0.84542 0.84002 0.55904 0.0
C866 C 0.90542 0.84721 0.59092 0.0
C867 C 0.96866 0.83369 0.57617 0.0
C868 C 0.93907 0.8324 0.57647 0.0
C869 C 0.85624 0.83495 0.57608 0.0
C870 C 0.88421 0.83298 0.57645 0.0
H871 H 0.02669 0.8496 0.54626 0.0
H872 H 0.97591 0.84205 0.5461 0.0
H873 H 0.94854 0.85884 0.60203 0.0
H874 H 0.80661 0.83873 0.60626 0.0
H875 H 0.84849 0.8292 0.60628 0.0
C876 C 0.15099 0.17265 0.59944 0.0
C877 C 0.14773 0.18367 0.58195 0.0
C878 C 0.15558 0.14804 0.60026 0.0
C879 C 0.17683 0.10113 0.57147 0.0
H880 H 0.12658 0.0386 0.60704 0.0
C881 C 0.14826 0.97764 0.56417 0.0
C882 C 0.14531 0.96123 0.58071 0.0
C883 C 0.15347 0.00705 0.56521 0.0
C884 C 0.14119 0.05602 0.59725 0.0
H885 H 0.148 0.17809 0.55158 0.0
H886 H 0.15559 0.1351 0.55306 0.0
H887 H 0.12717 0.08622 0.60745 0.0
H888 H 0.14713 0.96357 0.61132 0.0
H889 H 0.15646 0.01485 0.61307 0.0
H890 H 0.19027 0.07051 0.56098 0.0
C891 C 0.15487 0.14562 0.56614 0.0
C892 C 0.14153 0.08336 0.59749 0.0
C893 C 0.15026 0.17017 0.56531 0.0
C894 C 0.14893 0.97537 0.59828 0.0
C895 C 0.15417 0.00476 0.59931 0.0
C896 C 0.17648 0.07374 0.57122 0.0
C897 C 0.15708 0.13395 0.58363 0.0
C898 C 0.15901 0.10607 0.58443 0.0
C899 C 0.1559 0.02072 0.58281 0.0
C900 C 0.15833 0.05073 0.58395 0.0
H901 H 0.14937 0.1826 0.61255 0.0
H902 H 0.15761 0.13983 0.61395 0.0
H903 H 0.19087 0.11836 0.5614 0.0
H904 H 0.14564 0.96751 0.55039 0.0
H905 H 0.15441 0.01863 0.55222 0.0
C906 C 0.01819 0.17928 0.55887 0.0
C907 C 0.03334 0.18975 0.57617 0.0
C908 C 0.98885 0.15489 0.55836 0.0
C909 C 0.92197 0.10633 0.58794 0.0
H910 H 0.90944 0.04551 0.55099 0.0
C911 C 0.82714 0.98223 0.59386 0.0
C912 C 0.81343 0.96667 0.57713 0.0
C913 C 0.8515 0.01161 0.59317 0.0
C914 C 0.91229 0.06242 0.56119 0.0
H915 H 0.02872 0.18365 0.60656 0.0
H916 H 0.97784 0.14101 0.6056 0.0
H917 H 0.95601 0.09349 0.55063 0.0
H918 H 0.81381 0.97048 0.54659 0.0
H919 H 0.85595 0.02166 0.54546 0.0
H920 H 0.87838 0.07482 0.59873 0.0
C921 C 0.98854 0.15178 0.59244 0.0
C922 C 0.93903 0.09 0.56098 0.0
C923 C 0.01785 0.17618 0.59297 0.0
C924 C 0.824 0.98159 0.55976 0.0
C925 C 0.84827 0.01094 0.55909 0.0
C926 C 0.89516 0.07869 0.58815 0.0
C927 C 0.97397 0.14038 0.57511 0.0
C928 C 0.94437 0.11217 0.57447 0.0
C929 C 0.86265 0.02612 0.57576 0.0
C930 C 0.89016 0.05628 0.5749 0.0
H931 H 0.02926 0.18931 0.54565 0.0
H932 H 0.97804 0.14698 0.54479 0.0
H933 H 0.92523 0.12308 0.59838 0.0
H934 H 0.8196 0.97147 0.60749 0.0
H935 H 0.86223 0.02255 0.60627 0.0
C936 C 0.08513 0.33033 0.12899 0.0
C937 C 0.10436 0.35726 0.11949 0.0
C938 C 0.05871 0.32639 0.13747 0.0
C939 C 0.00803 0.35828 0.13902 0.0
H940 H 0.0196 0.36212 0.19319 0.0
C941 C 0.02217 0.45344 0.18325 0.0
C942 C 0.01256 0.44973 0.20206 0.0
C943 C 0.01598 0.42851 0.17228 0.0
C944 C 0.01504 0.36004 0.17817 0.0
H945 H 0.11031 0.40006 0.11008 0.0
H946 H 0.06447 0.39311 0.12444 0.0
H947 H 0.04175 0.33936 0.17359 0.0
H948 H 0.98765 0.41712 0.22398 0.0
H949 H 0.97792 0.37334 0.20488 0.0
H950 H 0.9844 0.38223 0.14345 0.0
C951 C 0.06954 0.37506 0.12555 0.0
C952 C 0.0277 0.34692 0.16694 0.0
C953 C 0.09607 0.37929 0.1176 0.0
C954 C -0.00472 0.42053 0.20946 0.0
C955 C 0.98964 0.39552 0.19858 0.0
C956 C -0.00451 0.3715 0.15023 0.0
C957 C 0.05087 0.3489 0.13588 0.0
C958 C 0.02648 0.34838 0.1472 0.0
C959 C 0.00052 0.3994 0.18002 0.0
C960 C 0.00112 0.3747 0.16972 0.0
H961 H 0.09112 0.31298 0.13048 0.0
H962 H 0.04482 0.30622 0.14558 0.0
H963 H 0.00643 0.35921 0.12382 0.0
H964 H 0.03532 0.47569 0.17719 0.0
H965 H 0.02514 0.43224 0.15812 0.0
C966 C 0.66366 0.7532 0.12923 0.0
C967 C 0.63597 0.74469 0.12051 0.0
C968 C 0.66854 0.73138 0.13781 0.0
C969 C 0.63839 0.64936 0.14056 0.0
H970 H 0.63347 0.65779 0.19456 0.0
C971 C 0.5415 0.57102 0.1839 0.0
C972 C 0.54419 0.56454 0.20276 0.0
C973 C 0.56707 0.58912 0.17325 0.0
C974 C 0.63593 0.65511 0.17962 0.0
H975 H 0.59269 0.70713 0.11261 0.0
H976 H 0.60131 0.66931 0.12708 0.0
H977 H 0.6564 0.70242 0.17469 0.0
H978 H 0.5755 0.57063 0.22516 0.0
H979 H 0.62054 0.60381 0.20662 0.0
H980 H 0.61443 0.60184 0.14527 0.0
C981 C 0.61921 0.69256 0.12751 0.0
C982 C 0.64915 0.68075 0.16822 0.0
C983 C 0.61405 0.71422 0.1195 0.0
C984 C 0.57294 0.57532 0.21058 0.0
C985 C 0.59863 0.59414 0.20002 0.0
C986 C 0.62511 0.62376 0.15193 0.0
C987 C 0.64621 0.70088 0.13705 0.0
C988 C 0.64785 0.67775 0.14851 0.0
C989 C 0.59583 0.60162 0.18137 0.0
C990 C 0.62137 0.62644 0.17132 0.0
H991 H 0.6809 0.77666 0.13004 0.0
H992 H 0.68932 0.73828 0.14536 0.0
H993 H 0.63755 0.64661 0.12537 0.0
H994 H 0.51958 0.56279 0.17755 0.0
H995 H 0.56419 0.595 0.15902 0.0
C996 C 0.41148 0.99516 0.2131 0.0
C997 C 0.42504 0.98039 0.20435 0.0
C998 C 0.38935 -0.00166 0.20357 0.0
C999 C 0.35014 0.98517 0.15725 0.0
H1000 H 0.27837 0.93609 0.18679 0.0
C1001 C 0.24185 0.87036 0.14422 0.0
C1002 C 0.23169 0.87458 0.12675 0.0
C1003 C 0.26107 0.89498 0.15525 0.0
C1004 C 0.2981 0.95042 0.17843 0.0
H1005 H 0.42885 0.96042 0.17836 0.0
H1006 H 0.39079 0.9662 0.16171 0.0
H1007 H 0.32676 0.96372 0.20256 0.0
H1008 H 0.23224 0.90778 0.10754 0.0
H1009 H 0.26679 0.95112 0.12671 0.0
H1010 H 0.32185 0.9692 0.13293 0.0
C1011 C 0.39688 0.97529 0.17584 0.0
C1012 C 0.32584 0.9665 0.18747 0.0
C1013 C 0.41846 0.97162 0.18544 0.0
C1014 C 0.2398 0.90389 0.12097 0.0
C1015 C 0.2595 0.92866 0.13191 0.0
C1016 C 0.32238 0.96911 0.14821 0.0
C1017 C 0.38104 0.98733 0.18509 0.0
C1018 C 0.35235 0.98205 0.17679 0.0
C1019 C 0.27087 0.92442 0.14895 0.0
C1020 C 0.29654 0.94978 0.15863 0.0
H1021 H 0.41626 0.00212 0.22772 0.0
H1022 H 0.37747 0.00768 0.21101 0.0
H1023 H 0.37022 -0.00257 0.14874 0.0
H1024 H 0.23573 0.84802 0.14911 0.0
H1025 H 0.26981 0.89094 0.16815 0.0
C1026 C 0.37663 0.10053 0.87346 0.0
C1027 C 0.35615 0.11087 0.87169 0.0
C1028 C 0.37181 0.07482 0.86402 0.0
C1029 C 0.3459 0.03965 0.82011 0.0
H1030 H 0.37431 0.9887 0.84129 0.0
C1031 C 0.41499 0.00347 0.77568 0.0
C1032 C 0.44393 0.01779 0.78365 0.0
C1033 C 0.39022 -0.00108 0.78645 0.0
C1034 C 0.36552 0.00204 0.83511 0.0
H1035 H 0.31395 0.10204 0.85932 0.0
H1036 H 0.30621 0.05728 0.84172 0.0
H1037 H 0.35293 0.01113 0.86202 0.0
H1038 H 0.46948 0.03625 0.80931 0.0
H1039 H 0.42639 0.02781 0.82818 0.0
H1040 H 0.36136 0.03309 0.79348 0.0
C1041 C 0.3256 0.0689 0.85085 0.0
C1042 C 0.35327 0.01483 0.84695 0.0
C1043 C 0.33009 0.09445 0.86077 0.0
C1044 C 0.44742 0.02535 0.80283 0.0
C1045 C 0.42267 0.02018 0.81366 0.0
C1046 C 0.35807 0.02674 0.80824 0.0
C1047 C 0.34662 0.05907 0.85231 0.0
C1048 C 0.34577 0.03573 0.83972 0.0
C1049 C 0.39402 0.00788 0.80544 0.0
C1050 C 0.3702 0.00987 0.81592 0.0
H1051 H 0.39669 0.1126 0.882 0.0
H1052 H 0.38874 0.0682 0.86512 0.0
H1053 H 0.34023 0.05563 0.81418 0.0
H1054 H 0.4118 -0.00248 0.76086 0.0
H1055 H 0.3684 0.98963 0.77978 0.0
C1056 C 0.9886 0.4185 0.7935 0.0
C1057 C 0.9622 0.41147 0.78358 0.0
C1058 C 0.99121 0.39567 0.80267 0.0
C1059 C 0.95694 0.31289 0.80513 0.0
H1060 H 0.95431 0.32184 0.85927 0.0
C1061 C 0.86379 0.23118 0.85106 0.0
C1062 C 0.86856 0.22586 0.86979 0.0
C1063 C 0.88799 0.25026 0.83966 0.0
C1064 C 0.95599 0.31902 0.84425 0.0
H1065 H 0.91894 0.37536 0.77424 0.0
H1066 H 0.92362 0.33588 0.78977 0.0
H1067 H 0.97683 0.36636 0.83921 0.0
H1068 H 0.90235 0.23499 0.89111 0.0
H1069 H 0.94486 0.26959 0.87124 0.0
H1070 H 0.93308 0.2654 0.81001 0.0
C1071 C 0.94224 0.35874 0.79069 0.0
C1072 C 0.96896 0.34457 0.83276 0.0
C1073 C 0.93933 0.3814 0.78204 0.0
C1074 C 0.89813 0.23871 0.87666 0.0
C1075 C 0.92241 0.25843 0.86534 0.0
C1076 C 0.9439 0.28738 0.81658 0.0
C1077 C 0.96789 0.3656 0.80137 0.0
C1078 C 0.96733 0.34148 0.81305 0.0
C1079 C 0.91743 0.26486 0.84687 0.0
C1080 C 0.94128 0.29023 0.83609 0.0
H1081 H 0.00656 0.44161 0.79476 0.0
H1082 H 0.01103 0.40148 0.81102 0.0
H1083 H 0.95583 0.31002 0.78994 0.0
H1084 H 0.84122 0.2214 0.84541 0.0
H1085 H 0.88341 0.25519 0.82558 0.0
C1086 C 0.61036 0.56955 0.77672 0.0
C1087 C 0.57944 0.55913 0.77698 0.0
C1088 C 0.63001 0.59483 0.78703 0.0
C1089 C 0.66962 0.65007 0.80916 0.0
H1090 H 0.6432 0.62429 0.86045 0.0
C1091 C 0.75261 0.66182 0.86738 0.0
C1092 C 0.74445 0.63247 0.87307 0.0
C1093 C 0.7319 0.6673 0.85786 0.0
C1094 C 0.65085 0.63254 0.84629 0.0
H1095 H 0.54471 0.56785 0.78702 0.0
H1096 H 0.57929 0.61181 0.80603 0.0
H1097 H 0.60615 0.60937 0.8354 0.0
H1098 H 0.70793 0.58628 0.87436 0.0
H1099 H 0.67209 0.59576 0.858 0.0
H1100 H 0.7145 0.67004 0.81979 0.0
C1101 C 0.58828 0.60064 0.7975 0.0
C1102 C 0.62959 0.62418 0.83192 0.0
C1103 C 0.56856 0.57552 0.78675 0.0
C1104 C 0.715 0.60905 0.8699 0.0
C1105 C 0.6943 0.61461 0.86081 0.0
C1106 C 0.69089 0.65836 0.82354 0.0
C1107 C 0.61911 0.60997 0.79815 0.0
C1108 C 0.63899 0.63053 0.81303 0.0
C1109 C 0.70259 0.64364 0.85443 0.0
C1110 C 0.68164 0.64731 0.8419 0.0
H1111 H 0.61925 0.55743 0.76905 0.0
H1112 H 0.65349 0.60099 0.78744 0.0
H1113 H 0.67738 0.65579 0.79472 0.0
H1114 H 0.77517 0.68029 0.86976 0.0
H1115 H 0.73889 0.6898 0.85287 0.0
C1116 C 0.96052 0.53877 0.80759 0.0
C1117 C 0.97301 0.54271 0.7895 0.0
C1118 C 0.96427 0.56348 0.81791 0.0
C1119 C 0.9773 0.61996 0.83854 0.0
H1120 H 0.93826 0.65289 0.80774 0.0
C1121 C 0.90196 0.65805 0.87274 0.0
C1122 C 0.87263 0.63889 0.86608 0.0
C1123 C 0.92677 0.66182 0.86236 0.0
C1124 C 0.9499 0.64465 0.81649 0.0
H1125 H 0.00107 0.57561 0.76852 0.0
H1126 H 0.00679 0.61896 0.78643 0.0
H1127 H 0.96343 0.62891 0.79261 0.0
H1128 H 0.84626 0.61109 0.84269 0.0
H1129 H 0.88936 0.61788 0.82452 0.0
H1130 H 0.96112 0.63299 0.86243 0.0
C1131 C 0.99449 0.59676 0.79267 0.0
C1132 C 0.9645 0.63107 0.80784 0.0
C1133 C 0.99119 0.57199 0.78246 0.0
C1134 C 0.86861 0.62574 0.84821 0.0
C1135 C 0.89335 0.62995 0.83771 0.0
C1136 C 0.96284 0.63368 0.84718 0.0
C1137 C 0.98017 0.59258 0.81021 0.0
C1138 C 0.97633 0.61666 0.81884 0.0
C1139 C 0.92259 0.647 0.84502 0.0
C1140 C 0.94713 0.64411 0.83622 0.0
H1141 H 0.94662 0.51645 0.8134 0.0
H1142 H 0.95262 0.55946 0.83128 0.0
H1143 H 0.9866 0.60931 0.8473 0.0
H1144 H 0.90566 0.66846 0.88651 0.0
H1145 H 0.94908 0.67501 0.8683 0.0
C1146 C 0.36556 0.24232 0.84908 0.0
C1147 C 0.35325 0.23487 0.86728 0.0
C1148 C 0.36356 0.26421 0.8386 0.0
C1149 C 0.36803 0.33431 0.84775 0.0
H1150 H 0.36899 0.33757 0.79308 0.0
C1151 C 0.4269 0.42205 0.78131 0.0
C1152 C 0.45667 0.43323 0.7874 0.0
C1153 C 0.4029 0.40078 0.79216 0.0
C1154 C 0.36803 0.33713 0.80835 0.0
H1155 H 0.32736 0.24281 0.88833 0.0
H1156 H 0.32467 0.28197 0.87011 0.0
H1157 H 0.34316 0.28901 0.80899 0.0
H1158 H 0.48464 0.43314 0.81026 0.0
H1159 H 0.44295 0.39641 0.82923 0.0
H1160 H 0.3951 0.38231 0.84706 0.0
C1161 C 0.33552 0.27055 0.86393 0.0
C1162 C 0.35339 0.30929 0.81745 0.0
C1163 C 0.33705 0.24818 0.87431 0.0
C1164 C 0.46192 0.4247 0.80517 0.0
C1165 C 0.43799 0.4039 0.81612 0.0
C1166 C 0.38281 0.36214 0.83865 0.0
C1167 C 0.34961 0.27941 0.84623 0.0
C1168 C 0.35494 0.30762 0.83716 0.0
C1169 C 0.40834 0.39086 0.80941 0.0
C1170 C 0.38455 0.36363 0.81887 0.0
H1171 H 0.37794 0.23221 0.84327 0.0
H1172 H 0.37499 0.2708 0.82511 0.0
H1173 H 0.36961 0.33372 0.86297 0.0
H1174 H 0.42222 0.42824 0.76763 0.0
H1175 H 0.38025 0.39104 0.78668 0.0
C1176 C 0.60291 0.04718 0.78192 0.0
C1177 C 0.57244 0.02519 0.78069 0.0
C1178 C 0.62284 0.04163 0.79199 0.0
C1179 C 0.66371 0.0239 0.81073 0.0
H1180 H 0.63782 0.0126 0.86291 0.0
C1181 C 0.74836 0.08591 0.86937 0.0
C1182 C 0.73975 0.10522 0.87778 0.0
C1183 C 0.7273 0.06069 0.8592 0.0
C1184 C 0.64534 0.01502 0.8484 0.0
H1185 H 0.53902 0.97959 0.78822 0.0
H1186 H 0.57404 0.97025 0.8068 0.0
H1187 H 0.60046 0.99538 0.83785 0.0
H1188 H 0.70223 0.11211 0.88369 0.0
H1189 H 0.66581 0.06853 0.86625 0.0
H1190 H 0.70868 0.04684 0.82127 0.0
C1191 C 0.58241 0.99157 0.7996 0.0
C1192 C 0.62391 0.00496 0.83402 0.0
C1193 C 0.56243 -0.00305 0.78909 0.0
C1194 C 0.70956 0.09785 0.87706 0.0
C1195 C 0.68856 0.07253 0.86732 0.0
C1196 C 0.68514 0.03407 0.82511 0.0
C1197 C 0.61275 0.01408 0.80132 0.0
C1198 C 0.63309 0.01171 0.81513 0.0
C1199 C 0.69729 0.05412 0.85781 0.0
C1200 C 0.67612 0.03203 0.84401 0.0
H1201 H 0.61132 0.06899 0.77533 0.0
H1202 H 0.64589 0.05969 0.79334 0.0
H1203 H 0.6713 0.02878 0.79622 0.0
H1204 H 0.77154 0.0911 0.86988 0.0
H1205 H 0.73464 0.04696 0.8519 0.0
C1206 C 0.62674 0.86883 0.14691 0.0
C1207 C 0.64037 0.87238 0.12922 0.0
C1208 C 0.63166 0.89391 0.15728 0.0
C1209 C 0.64746 0.9508 0.17829 0.0
H1210 H 0.61638 0.99022 0.14625 0.0
C1211 C 0.57483 0.99392 0.20985 0.0
C1212 C 0.54604 0.97631 0.20202 0.0
C1213 C 0.60013 -0.00297 0.20038 0.0
C1214 C 0.62588 0.98017 0.15538 0.0
H1215 H 0.67156 0.90488 0.10908 0.0
H1216 H 0.67944 0.94889 0.12709 0.0
H1217 H 0.63941 0.96351 0.13198 0.0
H1218 H 0.52124 0.95077 0.17753 0.0
H1219 H 0.56518 0.95648 0.16091 0.0
H1220 H 0.63105 0.96478 0.2016 0.0
C1221 C 0.66526 0.92667 0.13296 0.0
C1222 C 0.63923 0.96499 0.14722 0.0
C1223 C 0.66071 0.90151 0.12269 0.0
C1224 C 0.54319 0.96424 0.18391 0.0
C1225 C 0.56843 0.96783 0.17432 0.0
C1226 C 0.63423 0.96609 0.18645 0.0
C1227 C 0.64999 0.92304 0.15006 0.0
C1228 C 0.64798 0.94826 0.15859 0.0
C1229 C 0.59697 0.98313 0.18281 0.0
C1230 C 0.62126 0.97888 0.17496 0.0
H1231 H 0.61121 0.84665 0.15235 0.0
H1232 H 0.61922 0.89034 0.17029 0.0
H1233 H 0.65446 0.93842 0.18735 0.0
H1234 H 0.57757 0.00343 0.22384 0.0
H1235 H 0.62187 0.00883 0.20723 0.0
C1236 C 0.07898 0.74268 0.1129 0.0
C1237 C 0.10736 0.75628 0.1216 0.0
C1238 C 0.05327 0.72268 0.12308 0.0
C1239 C 0.0253 0.6942 0.17124 0.0
H1240 H 0.00101 0.61552 0.15045 0.0
C1241 C 0.03834 0.60795 0.20915 0.0
C1242 C 0.01799 0.57708 0.20767 0.0
C1243 C 0.03286 0.62853 0.19985 0.0
C1244 C 0.00636 0.63711 0.15631 0.0
H1245 H 0.1311 0.76188 0.14786 0.0
H1246 H 0.08644 0.72775 0.16571 0.0
H1247 H 0.02273 0.65929 0.1298 0.0
H1248 H 0.97542 0.54323 0.19601 0.0
H1249 H 0.96653 0.5797 0.17858 0.0
H1250 H 0.01211 0.67239 0.19811 0.0
C1251 C 0.08382 0.73222 0.15109 0.0
C1252 C 0.01885 0.66224 0.14447 0.0
C1253 C 0.10945 0.75148 0.14085 0.0
C1254 C 0.99141 0.56704 0.19724 0.0
C1255 C 0.98627 0.58777 0.18742 0.0
C1256 C 0.01279 0.6691 0.18305 0.0
C1257 C 0.05563 0.71685 0.14219 0.0
C1258 C 0.03079 0.69119 0.15218 0.0
C1259 C 0.00716 0.6187 0.18855 0.0
C1260 C 0.00574 0.64082 0.1759 0.0
H1261 H 0.07695 0.74607 0.098 0.0
H1262 H 0.03183 0.71085 0.11589 0.0
H1263 H 0.03395 0.71629 0.17744 0.0
H1264 H 0.05883 0.61617 0.21729 0.0
H1265 H 0.04969 0.65216 0.20067 0.0
C1266 C 0.41274 0.44518 0.18657 0.0
C1267 C 0.42047 0.44321 0.20527 0.0
C1268 C 0.39104 0.41969 0.17724 0.0
C1269 C 0.34545 0.3621 0.15892 0.0
H1270 H 0.27361 0.33621 0.18903 0.0
C1271 C 0.23446 0.32874 0.12289 0.0
C1272 C 0.22523 0.34904 0.12874 0.0
C1273 C 0.25438 0.32418 0.13397 0.0
C1274 C 0.2934 0.34253 0.1805 0.0
H1275 H 0.41334 0.41285 0.2285 0.0
H1276 H 0.37438 0.3681 0.21226 0.0
H1277 H 0.32249 0.35937 0.20441 0.0
H1278 H 0.22714 0.37815 0.15147 0.0
H1279 H 0.26165 0.37027 0.17072 0.0
H1280 H 0.31666 0.34826 0.13483 0.0
C1281 C 0.38548 0.38935 0.2048 0.0
C1282 C 0.32142 0.35558 0.18932 0.0
C1283 C 0.40771 0.4149 0.21405 0.0
C1284 C 0.23417 0.36267 0.14651 0.0
C1285 C 0.25366 0.3578 0.15765 0.0
C1286 C 0.31743 0.34904 0.15011 0.0
C1287 C 0.37624 0.39175 0.18653 0.0
C1288 C 0.34781 0.36758 0.17844 0.0
C1289 C 0.26492 0.33947 0.15118 0.0
C1290 C 0.29144 0.3413 0.16072 0.0
H1291 H 0.42247 0.46671 0.17945 0.0
H1292 H 0.38417 0.42242 0.16327 0.0
H1293 H 0.36546 0.37074 0.15026 0.0
H1294 H 0.22781 0.31783 0.10926 0.0
H1295 H 0.2627 0.30993 0.12866 0.0
C1296 C 0.68762 0.78579 0.51489 0.0
C1297 C 0.67781 0.78406 0.53355 0.0
C1298 C 0.68244 0.75992 0.5054 0.0
C1299 C 0.66921 0.70205 0.487 0.0
H1300 H 0.71066 0.67272 0.51862 0.0
C1301 C 0.74742 0.66637 0.45407 0.0
C1302 C 0.77654 0.68627 0.46075 0.0
C1303 C 0.72225 0.66223 0.4642 0.0
C1304 C 0.69836 0.67995 0.50966 0.0
H1305 H 0.65252 0.7537 0.55639 0.0
H1306 H 0.64415 0.70831 0.53986 0.0
H1307 H 0.6852 0.6968 0.5331 0.0
H1308 H 0.80224 0.71527 0.48391 0.0
H1309 H 0.7586 0.70798 0.50159 0.0
H1310 H 0.6853 0.68818 0.46346 0.0
C1311 C 0.65564 0.72971 0.53258 0.0
C1312 C 0.68355 0.69357 0.51795 0.0
C1313 C 0.66046 0.75567 0.54201 0.0
C1314 C 0.78006 0.70006 0.47835 0.0
C1315 C 0.755 0.69553 0.48859 0.0
C1316 C 0.68402 0.68841 0.47871 0.0
C1317 C 0.66768 0.73178 0.51447 0.0
C1318 C 0.67099 0.70691 0.50658 0.0
C1319 C 0.72589 0.67745 0.48131 0.0
C1320 C 0.70074 0.67948 0.48994 0.0
H1321 H 0.70071 0.80735 0.50796 0.0
H1322 H 0.69235 0.7624 0.49155 0.0
H1323 H 0.65919 0.71167 0.47795 0.0
H1324 H 0.74411 0.65543 0.4405 0.0
H1325 H 0.70006 0.64827 0.45827 0.0
C1326 C 0.33106 0.08944 0.45712 0.0
C1327 C 0.30399 0.07967 0.44731 0.0
C1328 C 0.33631 0.06856 0.46665 0.0
C1329 C 0.30827 0.98697 0.47159 0.0
H1330 H 0.30119 -0.00116 0.52493 0.0
C1331 C 0.21228 0.90769 0.51542 0.0
C1332 C 0.21496 0.90296 0.53461 0.0
C1333 C 0.23768 0.92634 0.50481 0.0
C1334 C 0.30427 0.99528 0.51022 0.0
H1335 H 0.26231 0.04092 0.43842 0.0
H1336 H 0.27161 0.0046 0.45451 0.0
H1337 H 0.32311 0.04198 0.50379 0.0
H1338 H 0.24616 0.9128 0.55772 0.0
H1339 H 0.29089 0.94699 0.53917 0.0
H1340 H 0.28611 0.9399 0.47774 0.0
C1341 C 0.28878 0.02813 0.45505 0.0
C1342 C 0.31688 0.02005 0.49809 0.0
C1343 C 0.28322 0.0489 0.44606 0.0
C1344 C 0.24364 0.91616 0.54288 0.0
C1345 C 0.26914 0.93555 0.53232 0.0
C1346 C 0.29564 0.96224 0.4837 0.0
C1347 C 0.31496 0.03773 0.46584 0.0
C1348 C 0.31643 0.01567 0.47851 0.0
C1349 C 0.26625 0.94116 0.51326 0.0
C1350 C 0.29117 0.96605 0.50282 0.0
H1351 H 0.34736 0.11319 0.45818 0.0
H1352 H 0.35644 0.07646 0.47509 0.0
H1353 H 0.30813 0.98316 0.45655 0.0
H1354 H 0.19041 0.89755 0.50871 0.0
H1355 H 0.23467 0.9307 0.49024 0.0
C1356 C 0.09221 0.33413 0.53611 0.0
C1357 C 0.10267 0.31534 0.5292 0.0
C1358 C 0.07104 0.33787 0.52586 0.0
C1359 C 0.02901 0.31894 0.48035 0.0
H1360 H 0.95869 0.28464 0.51269 0.0
C1361 C 0.91145 0.212 0.47519 0.0
C1362 C 0.90173 0.21473 0.4572 0.0
C1363 C 0.93339 0.2373 0.48458 0.0
C1364 C 0.97813 0.29491 0.50348 0.0
H1365 H 0.10192 0.28858 0.50537 0.0
H1366 H 0.06528 0.29512 0.48753 0.0
H1367 H 0.00855 0.30957 0.52675 0.0
H1368 H 0.90576 0.24618 0.43537 0.0
H1369 H 0.94501 0.29056 0.45167 0.0
H1370 H -0.00152 0.30148 0.45715 0.0
C1371 C 0.07319 0.30695 0.5008 0.0
C1372 C 0.00675 0.30941 0.51152 0.0
C1373 C 0.09395 0.30287 0.51112 0.0
C1374 C 0.91288 0.24349 0.44927 0.0
C1375 C 0.93531 0.26884 0.45856 0.0
C1376 C 0.00037 0.30449 0.47231 0.0
C1377 C 0.06043 0.32329 0.50845 0.0
C1378 C 0.03236 0.31954 0.50005 0.0
C1379 C 0.9464 0.26581 0.47604 0.0
C1380 C 0.97475 0.29044 0.48389 0.0
H1381 H 0.09864 0.34411 0.55001 0.0
H1382 H 0.06163 0.35065 0.53205 0.0
H1383 H 0.04843 0.327 0.4712 0.0
H1384 H 0.90305 0.19011 0.48167 0.0
H1385 H 0.94175 0.23413 0.49792 0.0
C1386 C 0.24301 0.33126 0.52942 0.0
C1387 C 0.2236 0.3051 0.53953 0.0
C1388 C 0.2694 0.33436 0.5214 0.0
C1389 C 0.29959 0.31223 0.49295 0.0
H1390 H 0.33933 0.27331 0.51658 0.0
C1391 C 0.29898 0.20268 0.47612 0.0
C1392 C 0.30947 0.20646 0.45751 0.0
C1393 C 0.306 0.22766 0.48729 0.0
C1394 C 0.32925 0.28502 0.50976 0.0
H1395 H 0.21735 0.26308 0.55069 0.0
H1396 H 0.263 0.26848 0.5371 0.0
H1397 H 0.31958 0.29861 0.53613 0.0
H1398 H 0.33666 0.23917 0.43616 0.0
H1399 H 0.34784 0.28304 0.45557 0.0
H1400 H 0.30669 0.29614 0.46674 0.0
C1401 C 0.25824 0.28662 0.53515 0.0
C1402 C 0.31798 0.29951 0.52092 0.0
C1403 C 0.2318 0.28323 0.54267 0.0
C1404 C 0.32835 0.23568 0.45053 0.0
C1405 C 0.33483 0.26074 0.46159 0.0
C1406 C 0.31113 0.29798 0.48177 0.0
C1407 C 0.27696 0.31176 0.524 0.0
C1408 C 0.30064 0.31073 0.51271 0.0
C1409 C 0.32317 0.25689 0.47993 0.0
C1410 C 0.32372 0.2821 0.49027 0.0
H1411 H 0.23708 0.34847 0.52699 0.0
H1412 H 0.28334 0.3538 0.51271 0.0
H1413 H 0.28646 0.32081 0.48623 0.0
H1414 H 0.28456 0.18042 0.48186 0.0
H1415 H 0.29626 0.22403 0.50128 0.0
C1416 C 0.7469 0.08384 0.44797 0.0
C1417 C 0.77532 0.09495 0.45635 0.0
C1418 C 0.72083 0.06447 0.45805 0.0
C1419 C 0.69272 0.03304 0.50568 0.0
H1420 H 0.66509 0.95554 0.48204 0.0
C1421 C 0.70927 0.94504 0.53629 0.0
C1422 C 0.68755 0.91444 0.53625 0.0
C1423 C 0.70307 0.96597 0.52822 0.0
C1424 C 0.67127 0.97683 0.48872 0.0
H1425 H 0.79892 0.09684 0.48206 0.0
H1426 H 0.7537 0.06368 0.49976 0.0
H1427 H 0.68699 0.00077 0.4627 0.0
H1428 H 0.64206 0.88152 0.5282 0.0
H1429 H 0.63178 0.91858 0.51274 0.0
H1430 H 0.68058 0.00934 0.53195 0.0
C1431 C 0.75131 0.06969 0.48546 0.0
C1432 C 0.68389 0.00282 0.47764 0.0
C1433 C 0.77726 0.08834 0.47529 0.0
C1434 C 0.65916 0.90508 0.52826 0.0
C1435 C 0.65321 0.92614 0.51961 0.0
C1436 C 0.6801 0.00709 0.51673 0.0
C1437 C 0.72293 0.05676 0.47678 0.0
C1438 C 0.69729 0.03121 0.4863 0.0
C1439 C 0.6752 0.95676 0.51961 0.0
C1440 C 0.67202 0.97923 0.50845 0.0
H1441 H 0.74494 0.08865 0.43331 0.0
H1442 H 0.69925 0.05449 0.45102 0.0
H1443 H 0.70247 0.05471 0.51261 0.0
H1444 H 0.73116 0.95285 0.5426 0.0
H1445 H 0.72067 0.98936 0.52802 0.0
C1446 C 0.08548 0.78339 0.51363 0.0
C1447 C 0.09425 0.78055 0.53189 0.0
C1448 C 0.06523 0.758 0.50357 0.0
C1449 C 0.02223 0.70096 0.48368 0.0
H1450 H 0.95133 0.66708 0.51548 0.0
C1451 C 0.90775 0.66477 0.45163 0.0
C1452 C 0.89811 0.68381 0.45923 0.0
C1453 C 0.92908 0.66036 0.46119 0.0
C1454 C 0.97092 0.67557 0.50644 0.0
H1455 H 0.09079 0.74894 0.55342 0.0
H1456 H 0.05439 0.70429 0.53593 0.0
H1457 H 0.00091 0.69143 0.52992 0.0
H1458 H 0.90086 0.71086 0.4834 0.0
H1459 H 0.93759 0.70298 0.50014 0.0
H1460 H 0.9922 0.68804 0.46021 0.0
C1461 C 0.06351 0.72619 0.52937 0.0
C1462 C -0.00063 0.68936 0.51469 0.0
C1463 C 0.08427 0.7517 0.53935 0.0
C1464 C 0.90815 0.69631 0.47717 0.0
C1465 C 0.92892 0.69145 0.48685 0.0
C1466 C 0.99375 0.68712 0.47542 0.0
C1467 C 0.05296 0.72923 0.51167 0.0
C1468 C 0.02522 0.70432 0.50337 0.0
C1469 C 0.94047 0.67439 0.47865 0.0
C1470 C 0.968 0.67653 0.48678 0.0
H1471 H 0.09313 0.80537 0.50748 0.0
H1472 H 0.0573 0.76121 0.49008 0.0
H1473 H 0.04184 0.71187 0.47465 0.0
H1474 H 0.90032 0.65488 0.43777 0.0
H1475 H 0.93773 0.64723 0.45455 0.0
C1476 C 0.25503 0.35728 0.02998 0.0
C1477 C 0.22635 0.33897 0.03773 0.0
C1478 C 0.26967 0.34442 0.0205 0.0
C1479 C 0.2671 0.27128 0.01408 0.0
H1480 H 0.31637 0.31094 0.97022 0.0
C1481 C 0.30556 0.21345 0.9601 0.0
C1482 C 0.33676 0.22786 0.95718 0.0
C1483 C 0.29305 0.22767 0.97035 0.0
C1484 C 0.30279 0.29981 0.98253 0.0
H1485 H 0.1901 0.29304 0.04125 0.0
H1486 H 0.21491 0.27071 0.02405 0.0
H1487 H 0.29224 0.33459 0.98718 0.0
H1488 H 0.37929 0.26857 0.96228 0.0
H1489 H 0.35711 0.29377 0.97982 0.0
H1490 H 0.27679 0.23593 0.00881 0.0
C1491 C 0.22673 0.29487 0.02585 0.0
C1492 C 0.28912 0.31335 0.99231 0.0
C1493 C 0.21237 0.30767 0.0356 0.0
C1494 C 0.35518 0.2569 0.96445 0.0
C1495 C 0.34257 0.27136 0.97436 0.0
C1496 C 0.28031 0.25753 0.00408 0.0
C1497 C 0.25567 0.31304 0.01831 0.0
C1498 C 0.27098 0.29918 0.00817 0.0
C1499 C 0.31147 0.25673 0.97748 0.0
C1500 C 0.29815 0.27166 0.98823 0.0
H1501 H 0.26641 0.38149 0.03157 0.0
H1502 H 0.29212 0.35908 0.01515 0.0
H1503 H 0.25393 0.26004 0.02648 0.0
H1504 H 0.29088 0.19103 0.9547 0.0
H1505 H 0.26896 0.21612 0.97256 0.0
C1506 C 0.74231 0.07975 0.9547 0.0
C1507 C 0.75462 0.1078 0.96372 0.0
C1508 C 0.72623 0.05323 0.96497 0.0
C1509 C 0.72284 0.02104 0.01004 0.0
H1510 H 0.64308 0.95829 0.99544 0.0
C1511 C 0.66295 0.90958 0.05076 0.0
C1512 C 0.64532 0.88313 0.04045 0.0
C1513 C 0.67378 0.93763 0.0423 0.0
C1514 C 0.6655 0.97538 -0.00044 0.0
H1515 H 0.75965 0.13021 0.9905 0.0
H1516 H 0.73228 0.08339 0.00871 0.0
H1517 H 0.66657 0.00653 0.97897 0.0
H1518 H 0.62497 0.8651 0.01331 0.0
H1519 H 0.64522 0.91412 -0.00188 0.0
H1520 H 0.72293 0.98977 0.02979 0.0
C1521 C 0.73482 0.08221 0.99361 0.0
C1522 C 0.67875 0.00306 0.99024 0.0
C1523 C 0.75037 0.10886 0.98323 0.0
C1524 C 0.63847 0.8852 0.02155 0.0
C1525 C 0.64991 0.91334 0.01293 0.0
C1526 C 0.70989 0.99321 0.01911 0.0
C1527 C 0.72266 0.05425 0.98451 0.0
C1528 C 0.70756 0.02599 0.99536 0.0
C1529 C 0.66785 0.93994 0.02319 0.0
C1530 C 0.68109 0.96992 0.01393 0.0
H1531 H 0.74499 0.07829 0.93963 0.0
H1532 H 0.71723 0.03188 0.95772 0.0
H1533 H 0.7453 0.03832 0.014 0.0
H1534 H 0.66809 0.90862 0.06548 0.0
H1535 H 0.68677 0.9575 0.05083 0.0
C1536 C 0.88982 0.6369 0.97078 0.0
C1537 C 0.88517 0.65079 0.95505 0.0
C1538 C 0.91797 0.64998 0.97955 0.0
C1539 C 0.98439 0.67515 0.98906 0.0
H1540 H 0.02619 0.76165 -0.00413 0.0
C1541 C 0.1057 0.74283 0.01867 0.0
C1542 C 0.11057 0.76497 0.0321 0.0
C1543 C 0.07876 0.72838 0.00852 0.0
C1544 C 0.01477 0.73747 0.99415 0.0
H1545 H 0.9068 0.68888 0.93589 0.0
H1546 H 0.95558 0.71128 0.95101 0.0
H1547 H 0.97761 0.73682 0.98022 0.0
H1548 H 0.09083 0.78926 0.04531 0.0
H1549 H 0.04414 0.76402 0.0278 0.0
H1550 H 0.02139 0.67589 0.00353 0.0
C1551 C 0.9374 0.69066 0.95682 0.0
C1552 C 0.98707 0.72326 0.985 0.0
C1553 C 0.90938 0.67772 0.94813 0.0
C1554 C 0.08801 0.77244 0.03504 0.0
C1555 C 0.06122 0.75807 0.02492 0.0
C1556 C 0.0122 0.68942 -0.00175 0.0
C1557 C 0.94197 0.67714 0.97273 0.0
C1558 C 0.97152 0.69196 0.98239 0.0
C1559 C 0.05626 0.73588 0.01157 0.0
C1560 C 0.02754 0.72071 0.001 0.0
H1561 H 0.87168 0.61612 0.97644 0.0
H1562 H 0.92076 0.63917 0.99189 0.0
H1563 H 0.97307 0.65103 0.98709 0.0
H1564 H 0.12257 0.73648 0.01608 0.0
H1565 H 0.07563 0.71152 -0.00181 0.0
C1566 C 0.67461 0.76192 0.04014 0.0
C1567 C 0.64633 0.7584 0.0357 0.0
C1568 C 0.68506 0.74501 0.03088 0.0
C1569 C 0.69385 0.6942 0.01737 0.0
H1570 H 0.68966 0.6882 0.96281 0.0
C1571 C 0.74092 0.63039 0.97479 0.0
C1572 C 0.75844 0.64607 0.95903 0.0
C1573 C 0.72398 0.64075 0.9843 0.0
C1574 C 0.69092 0.68964 0.97807 0.0
H1575 H 0.60703 0.73446 0.01782 0.0
H1576 H 0.62555 0.70497 0.00153 0.0
H1577 H 0.66616 0.71295 0.97919 0.0
H1578 H 0.77188 0.68506 0.94102 0.0
H1579 H 0.74273 0.70304 0.95766 0.0
H1580 H 0.71957 0.67188 0.0162 0.0
C1581 C 0.63952 0.72093 0.01221 0.0
C1582 C 0.67723 0.70355 0.98744 0.0
C1583 C 0.62895 0.73782 0.02155 0.0
C1584 C 0.75869 0.67234 0.95308 0.0
C1585 C 0.74172 0.68254 0.96251 0.0
C1586 C 0.70747 0.68021 0.00801 0.0
C1587 C 0.66758 0.72419 0.01694 0.0
C1588 C 0.67917 0.70658 0.00715 0.0
C1589 C 0.7241 0.66683 0.97815 0.0
C1590 C 0.70673 0.67843 0.98823 0.0
H1591 H 0.6887 0.77757 0.05091 0.0
H1592 H 0.70704 0.74847 0.03455 0.0
H1593 H 0.6953 0.69583 0.03262 0.0
H1594 H 0.74013 0.61003 0.97971 0.0
H1595 H 0.71051 0.62816 -0.00368 0.0
C1596 C 0.24334 0.88385 0.01722 0.0
C1597 C 0.23642 0.88411 0.03637 0.0
C1598 C 0.25849 0.91077 0.00713 0.0
C1599 C 0.30847 0.99132 0.01126 0.0
H1600 H 0.26559 -0.00181 0.96829 0.0
C1601 C 0.34335 0.10557 0.97628 0.0
C1602 C 0.33898 0.10605 0.95677 0.0
C1603 C 0.33247 0.07821 0.98576 0.0
C1604 C 0.27826 -0.00341 0.97999 0.0
H1605 H 0.24111 0.91258 0.06024 0.0
H1606 H 0.26824 0.95966 0.04265 0.0
H1607 H 0.2453 0.95049 0.9849 0.0
H1608 H 0.32096 0.07855 0.93171 0.0
H1609 H 0.3032 0.03104 0.948 0.0
H1610 H 0.34181 0.03714 0.00623 0.0
C1611 C 0.26162 0.93864 0.03546 0.0
C1612 C 0.26652 0.96926 0.98952 0.0
C1613 C 0.24594 0.91175 0.04544 0.0
C1614 C 0.32415 0.07881 0.94684 0.0
C1615 C 0.31385 0.05155 0.95622 0.0
C1616 C 0.32057 0.01856 0.00151 0.0
C1617 C 0.26752 0.93829 0.01617 0.0
C1618 C 0.28136 0.96653 0.00532 0.0
C1619 C 0.31757 0.05084 0.97583 0.0
C1620 C 0.30543 0.02163 0.98587 0.0
H1621 H 0.2362 0.86283 0.00991 0.0
H1622 H 0.26292 0.9101 0.99224 0.0
H1623 H 0.3203 0.98958 0.02342 0.0
H1624 H 0.35466 0.1263 0.98427 0.0
H1625 H 0.33531 0.07857 0.00092 0.0
C1626 C 0.90475 0.22509 0.95403 0.0
C1627 C 0.88113 0.23029 0.95871 0.0
C1628 C 0.93288 0.24189 0.96247 0.0
C1629 C 0.99434 0.29141 0.97516 0.0
H1630 H -0.00345 0.30187 0.02944 0.0
C1631 C 0.1049 0.35694 0.01818 0.0
C1632 C 0.10607 0.34212 0.03458 0.0
C1633 C 0.078 0.34606 0.00814 0.0
C1634 C -0.00374 0.29915 0.01426 0.0
H1635 H 0.86872 0.25751 0.97582 0.0
H1636 H 0.91788 0.28674 0.99052 0.0
H1637 H 0.94835 0.27746 0.01317 0.0
H1638 H 0.07987 0.30403 0.05314 0.0
H1639 H 0.03342 0.28522 0.03565 0.0
H1640 H 0.04233 0.31227 0.97643 0.0
C1641 C 0.91448 0.2695 0.98042 0.0
C1642 C 0.96871 0.28545 0.00494 0.0
C1643 C 0.88634 0.25275 0.97197 0.0
C1644 C 0.07988 0.31612 0.04061 0.0
C1645 C 0.05312 0.30541 0.03067 0.0
C1646 C 0.02197 0.30524 0.98451 0.0
C1647 C 0.938 0.26419 0.97578 0.0
C1648 C 0.96743 0.28097 0.98534 0.0
C1649 C 0.05183 0.32035 0.01444 0.0
C1650 C 0.02309 0.30866 0.00419 0.0
H1651 H 0.90159 0.20805 0.94385 0.0
H1652 H 0.95048 0.237 0.95883 0.0
H1653 H 0.994 0.28856 0.96 0.0
H1654 H 0.12467 0.37703 0.01315 0.0
H1655 H 0.07753 0.358 -0.00434 0.0
C1656 C 0.90227 0.65709 0.38116 0.0
C1657 C 0.89341 0.67509 0.37128 0.0
C1658 C 0.91889 0.64603 0.3722 0.0
C1659 C 0.96381 0.65491 0.32882 0.0
H1660 H 0.94886 0.57571 0.34327 0.0
C1661 C 0.99338 0.57889 0.28436 0.0
C1662 C 0.01044 0.56816 0.29351 0.0
C1663 C 0.98222 0.59452 0.29441 0.0
C1664 C 0.95345 0.59798 0.33928 0.0
H1665 H 0.89491 0.69569 0.34434 0.0
H1666 H 0.92258 0.67498 0.32827 0.0
H1667 H 0.922 0.59719 0.35922 0.0
H1668 H 0.02948 0.5655 0.32023 0.0
H1669 H 0.00877 0.59204 0.33808 0.0
H1670 H 0.99402 0.65451 0.30805 0.0
C1671 C 0.91762 0.6702 0.34313 0.0
C1672 C 0.9382 0.61043 0.34844 0.0
C1673 C 0.90153 0.68189 0.35226 0.0
C1674 C 0.01641 0.57359 0.31288 0.0
C1675 C 0.00458 0.58865 0.32305 0.0
C1676 C 0.97857 0.64212 0.31938 0.0
C1677 C 0.92649 0.65208 0.353 0.0
C1678 C 0.94314 0.63908 0.34334 0.0
C1679 C 0.9874 0.59916 0.31386 0.0
C1680 C 0.97345 0.61358 0.32456 0.0
H1681 H 0.89679 0.65198 0.39596 0.0
H1682 H 0.92597 0.63292 0.38046 0.0
H1683 H 0.9687 0.67722 0.32472 0.0
H1684 H 0.98869 0.57524 0.26938 0.0
H1685 H 0.96885 0.6023 0.2871 0.0
C1686 C 0.39985 0.43993 0.30625 0.0
C1687 C 0.42406 0.44513 0.2945 0.0
C1688 C 0.38421 0.41296 0.31634 0.0
C1689 C 0.39362 0.35147 0.33487 0.0
H1690 H 0.3065 0.30486 0.3353 0.0
C1691 C 0.33253 0.2446 0.3787 0.0
C1692 C 0.30922 0.21916 0.3698 0.0
C1693 C 0.34409 0.27296 0.37068 0.0
C1694 C 0.33083 0.31765 0.33522 0.0
H1695 H 0.45076 0.42602 0.28415 0.0
H1696 H 0.42362 0.37943 0.3016 0.0
H1697 H 0.33199 0.35354 0.31903 0.0
H1698 H 0.27889 0.20373 0.34586 0.0
H1699 H 0.29981 0.25363 0.33147 0.0
H1700 H 0.39281 0.31557 0.35045 0.0
C1701 C 0.41686 0.3962 0.30318 0.0
C1702 C 0.34537 0.34558 0.32612 0.0
C1703 C 0.43232 0.42291 0.2931 0.0
C1704 C 0.29699 0.2229 0.35297 0.0
C1705 C 0.3088 0.25144 0.34482 0.0
C1706 C 0.37919 0.32374 0.34393 0.0
C1707 C 0.39273 0.39095 0.31493 0.0
C1708 C 0.37692 0.36252 0.32568 0.0
C1709 C 0.33286 0.27664 0.35346 0.0
C1710 C 0.34766 0.30643 0.34413 0.0
H1711 H 0.39282 0.45652 0.30756 0.0
H1712 H 0.36575 0.40948 0.32539 0.0
H1713 H 0.41797 0.3642 0.33491 0.0
H1714 H 0.34202 0.24265 0.39192 0.0
H1715 H 0.36213 0.29204 0.3779 0.0
C1716 C 0.55001 0.97288 0.31066 0.0
C1717 C 0.5504 0.97866 0.29126 0.0
C1718 C 0.57699 0.98418 0.32064 0.0
C1719 C 0.65628 0.00905 0.31685 0.0
H1720 H 0.66861 0.06677 0.35599 0.0
C1721 C 0.7733 0.08608 0.34964 0.0
C1722 C 0.77454 0.09481 0.36851 0.0
C1723 C 0.74556 0.06982 0.34051 0.0
C1724 C 0.66546 0.05024 0.34542 0.0
H1725 H 0.579 -0.00067 0.26688 0.0
H1726 H 0.6261 0.01828 0.28429 0.0
H1727 H 0.62025 0.03997 0.34015 0.0
H1728 H 0.74799 0.09218 0.39299 0.0
H1729 H 0.69983 0.06267 0.37751 0.0
H1730 H 0.7011 0.01856 0.32232 0.0
C1731 C 0.605 0.00545 0.29176 0.0
C1732 C 0.63775 0.03503 0.33632 0.0
C1733 C 0.57811 0.99482 0.28188 0.0
C1734 C 0.74767 0.08627 0.37827 0.0
C1735 C 0.72003 0.06945 0.36934 0.0
C1736 C 0.68386 0.02377 0.32625 0.0
C1737 C 0.60462 0.00064 0.31125 0.0
C1738 C 0.63307 0.01459 0.32185 0.0
C1739 C 0.71854 0.06138 0.35024 0.0
C1740 C 0.68893 0.04482 0.34055 0.0
H1741 H 0.52892 0.9605 0.31819 0.0
H1742 H 0.57632 0.98029 0.33571 0.0
H1743 H 0.65302 0.99329 0.30569 0.0
H1744 H 0.79376 0.09243 0.34184 0.0
H1745 H 0.74542 0.06443 0.32573 0.0
C1746 C 0.29041 0.06712 0.35305 0.0
C1747 C 0.30981 0.09597 0.36026 0.0
C1748 C 0.30204 0.05168 0.34309 0.0
C1749 C 0.36627 0.06203 0.31545 0.0
H1750 H 0.35183 0.98606 0.33626 0.0
C1751 C 0.44158 0.01425 0.29536 0.0
C1752 C 0.42845 0.98312 0.29269 0.0
C1753 C 0.42504 0.02626 0.30324 0.0
C1754 C 0.35569 0.00696 0.33004 0.0
H1755 H 0.35621 0.13184 0.36208 0.0
H1756 H 0.37633 0.10525 0.34423 0.0
H1757 H 0.32499 0.0102 0.34911 0.0
H1758 H 0.38795 0.94002 0.29658 0.0
H1759 H 0.35866 0.96109 0.30997 0.0
H1760 H 0.39668 0.059 0.2963 0.0
C1761 C 0.35228 0.09447 0.34645 0.0
C1762 C 0.34032 0.02073 0.33741 0.0
C1763 C 0.34079 0.10959 0.35671 0.0
C1764 C 0.3987 0.96411 0.29862 0.0
C1765 C 0.38194 0.9762 0.30628 0.0
C1766 C 0.38128 0.04812 0.30791 0.0
C1767 C 0.33309 0.06522 0.33985 0.0
C1768 C 0.34604 0.04869 0.33043 0.0
C1769 C 0.39478 0.00749 0.30834 0.0
C1770 C 0.3768 0.02082 0.31544 0.0
H1771 H 0.26645 0.05608 0.35573 0.0
H1772 H 0.28688 0.02913 0.33807 0.0
H1773 H 0.37078 0.08348 0.30974 0.0
H1774 H 0.4646 0.02942 0.29112 0.0
H1775 H 0.43597 0.05038 0.30517 0.0
C1776 C 0.98937 0.41626 0.28282 0.0
C1777 C 0.00964 0.44336 0.29176 0.0
C1778 C 0.97877 0.38889 0.29217 0.0
C1779 C 0.95911 0.35549 0.33775 0.0
H1780 H 0.96781 0.29015 0.31741 0.0
C1781 C 0.91472 0.24558 0.37892 0.0
C1782 C 0.90184 0.21855 0.36877 0.0
C1783 C 0.93076 0.27303 0.36962 0.0
C1784 C 0.96478 0.30797 0.32317 0.0
H1785 H 0.03475 0.46319 0.31743 0.0
H1786 H 0.01514 0.41511 0.33412 0.0
H1787 H 0.99006 0.33823 0.30073 0.0
H1788 H 0.89595 0.19867 0.34108 0.0
H1789 H 0.92261 0.24681 0.3245 0.0
H1790 H 0.9325 0.32532 0.35955 0.0
C1791 C 0.00797 0.41524 0.31975 0.0
C1792 C 0.97774 0.33551 0.31368 0.0
C1793 C 0.01914 0.44261 0.31024 0.0
C1794 C 0.90579 0.21932 0.34917 0.0
C1795 C 0.92123 0.24692 0.33974 0.0
C1796 C 0.94561 0.32784 0.34702 0.0
C1797 C 0.98778 0.38823 0.31075 0.0
C1798 C 0.97504 0.35944 0.32097 0.0
C1799 C 0.93359 0.27417 0.34985 0.0
C1800 C 0.94834 0.30369 0.33992 0.0
H1801 H 0.98192 0.41618 0.2685 0.0
H1802 H 0.96305 0.36827 0.28505 0.0
H1803 H 0.95642 0.37359 0.34344 0.0
H1804 H 0.9124 0.24548 0.39413 0.0
H1805 H 0.94076 0.29337 0.378 0.0
C1806 C 0.74212 0.6584 0.38046 0.0
C1807 C 0.76959 0.67703 0.37131 0.0
C1808 C 0.71502 0.64772 0.3708 0.0
C1809 C 0.6825 0.62463 0.32513 0.0
H1810 H 0.61806 0.63714 0.3427 0.0
C1811 C 0.57443 0.58077 0.28216 0.0
C1812 C 0.54711 0.5693 0.29191 0.0
C1813 C 0.60164 0.59657 0.29172 0.0
C1814 C 0.63562 0.63304 0.33774 0.0
H1815 H 0.79034 0.69919 0.34496 0.0
H1816 H 0.74273 0.67945 0.32781 0.0
H1817 H 0.66561 0.65952 0.35995 0.0
H1818 H 0.52653 0.56565 0.31917 0.0
H1819 H 0.57417 0.59192 0.33622 0.0
H1820 H 0.65256 0.59692 0.3036 0.0
C1821 C 0.74237 0.67361 0.34254 0.0
C1822 C 0.66286 0.64606 0.34754 0.0
C1823 C 0.76948 0.68487 0.35233 0.0
C1824 C 0.54739 0.57438 0.31137 0.0
C1825 C 0.57471 0.5896 0.32107 0.0
C1826 C 0.65514 0.6111 0.31557 0.0
C1827 C 0.71499 0.65499 0.35173 0.0
C1828 C 0.68648 0.64201 0.34124 0.0
C1829 C 0.6022 0.60058 0.31138 0.0
C1830 C 0.63135 0.61523 0.32167 0.0
H1831 H 0.74157 0.65226 0.39515 0.0
H1832 H 0.69411 0.63322 0.37808 0.0
H1833 H 0.70034 0.62088 0.32022 0.0
H1834 H 0.57477 0.5776 0.26706 0.0
H1835 H 0.62223 0.60549 0.28364 0.0
C1836 C 0.6717 0.92476 0.61191 0.0
C1837 C 0.68811 0.91338 0.62118 0.0
C1838 C 0.66215 0.94201 0.62167 0.0
C1839 C 0.63752 0.94909 0.66759 0.0
H1840 H 0.64419 0.02296 0.64841 0.0
C1841 C 0.58216 0.00606 0.70678 0.0
C1842 C 0.56842 0.01879 0.69599 0.0
C1843 C 0.60081 -0.00293 0.6983 0.0
C1844 C 0.64184 0.00219 0.65385 0.0
H1845 H 0.70815 0.91176 0.64774 0.0
H1846 H 0.69044 0.94136 0.66508 0.0
H1847 H 0.67067 0.00079 0.63246 0.0
H1848 H 0.56385 0.03277 0.66796 0.0
H1849 H 0.59536 0.01556 0.65278 0.0
H1850 H 0.60743 0.94915 0.68825 0.0
C1851 C 0.68537 0.93706 0.65019 0.0
C1852 C 0.65722 0.9897 0.64482 0.0
C1853 C 0.69548 0.92023 0.64031 0.0
C1854 C 0.57414 0.02293 0.67655 0.0
C1855 C 0.59238 0.01328 0.66794 0.0
C1856 C 0.62177 0.96125 0.67643 0.0
C1857 C 0.6684 0.94783 0.64095 0.0
C1858 C 0.65497 0.96293 0.65155 0.0
C1859 C 0.60568 -7e-05 0.67871 0.0
C1860 C 0.62354 0.98786 0.66961 0.0
H1861 H 0.66601 0.92013 0.59711 0.0
H1862 H 0.64887 0.94983 0.61429 0.0
H1863 H 0.635 0.92812 0.67282 0.0
H1864 H 0.5787 0.00326 0.72191 0.0
H1865 H 0.61134 0.98778 0.70716 0.0
C1866 C 0.10678 0.7593 0.62544 0.0
C1867 C 0.0919 0.77554 0.62222 0.0
C1868 C 0.09263 0.73226 0.63527 0.0
C1869 C 0.02832 0.68541 0.66675 0.0
H1870 H 0.04513 0.62322 0.65033 0.0
C1871 C 0.96567 0.56132 0.69252 0.0
C1872 C 0.98478 0.55167 0.7 0.0
C1873 C 0.97762 0.58886 0.68319 0.0
C1874 C 0.04035 0.64047 0.65505 0.0
H1875 H 0.05077 0.77659 0.62691 0.0
H1876 H 0.02535 0.72843 0.64358 0.0
H1877 H 0.06724 0.67077 0.63335 0.0
H1878 H 0.03122 0.56299 0.70352 0.0
H1879 H 0.05205 0.61086 0.68662 0.0
H1880 H 0.00056 0.65424 0.68813 0.0
C1881 C 0.04826 0.737 0.63888 0.0
C1882 C 0.05311 0.66776 0.64544 0.0
C1883 C 0.06272 0.76448 0.62929 0.0
C1884 C 0.01601 0.56993 0.6979 0.0
C1885 C 0.0279 0.59718 0.68824 0.0
C1886 C 0.01509 0.65781 0.67615 0.0
C1887 C 0.063 0.72044 0.64179 0.0
C1888 C 0.04772 0.69079 0.65139 0.0
C1889 C 0.00878 0.60682 0.68088 0.0
C1890 C 0.02143 0.6354 0.67051 0.0
H1891 H 0.12951 0.76759 0.62041 0.0
H1892 H 0.10503 0.72065 0.63776 0.0
H1893 H 0.02392 0.70273 0.67182 0.0
H1894 H 0.9415 0.54776 0.69409 0.0
H1895 H 0.96254 0.59594 0.67753 0.0
C1896 C 0.2459 0.33027 0.61439 0.0
C1897 C 0.21772 0.31334 0.62313 0.0
C1898 C 0.27224 0.33937 0.62457 0.0
C1899 C 0.30362 0.36204 0.67046 0.0
H1900 H 0.36741 0.34885 0.6524 0.0
C1901 C 0.41618 0.41315 0.70949 0.0
C1902 C 0.44235 0.42454 0.69849 0.0
C1903 C 0.38804 0.39525 0.70136 0.0
C1904 C 0.34998 0.35303 0.65753 0.0
H1905 H 0.19491 0.29245 0.64928 0.0
H1906 H 0.24144 0.30954 0.6674 0.0
H1907 H 0.31904 0.32527 0.63613 0.0
H1908 H 0.45991 0.42582 0.67053 0.0
H1909 H 0.41059 0.39585 0.65596 0.0
H1910 H 0.33467 0.39126 0.69105 0.0
C1911 C 0.24284 0.31524 0.65257 0.0
C1912 C 0.32226 0.3393 0.64831 0.0
C1913 C 0.21636 0.30552 0.64225 0.0
C1914 C 0.43999 0.41724 0.67928 0.0
C1915 C 0.41171 0.39986 0.67101 0.0
C1916 C 0.33148 0.37624 0.67946 0.0
C1917 C 0.27093 0.33219 0.64375 0.0
C1918 C 0.29902 0.34396 0.65461 0.0
C1919 C 0.38534 0.3889 0.68193 0.0
C1920 C 0.35515 0.37219 0.673 0.0
H1921 H 0.24761 0.33633 0.5996 0.0
H1922 H 0.29369 0.35267 0.61755 0.0
H1923 H 0.28608 0.36625 0.67536 0.0
H1924 H 0.41747 0.41799 0.72445 0.0
H1925 H 0.36839 0.38654 0.71035 0.0
C1926 C 0.00743 0.42647 0.70461 0.0
C1927 C 0.98197 0.42729 0.69813 0.0
C1928 C 0.01868 0.41094 0.69457 0.0
C1929 C 0.027 0.3623 0.67671 0.0
H1930 H 0.03836 0.37371 0.6226 0.0
C1931 C 0.07363 0.30102 0.63209 0.0
C1932 C 0.09596 0.3188 0.61888 0.0
C1933 C 0.05711 0.31213 0.6412 0.0
C1934 C 0.03535 0.37037 0.63771 0.0
H1935 H 0.94835 0.41231 0.67597 0.0
H1936 H 0.9682 0.3851 0.65838 0.0
H1937 H 0.01414 0.39707 0.6398 0.0
H1938 H 0.11827 0.36223 0.60483 0.0
H1939 H 0.08972 0.38167 0.62092 0.0
H1940 H 0.04903 0.33643 0.67477 0.0
C1941 C 0.97942 0.39669 0.67122 0.0
C1942 C 0.02121 0.38345 0.6475 0.0
C1943 C 0.96803 0.41218 0.68133 0.0
C1944 C 0.1013 0.34791 0.61493 0.0
C1945 C 0.08475 0.35898 0.62403 0.0
C1946 C 0.04106 0.34918 0.66692 0.0
C1947 C 0.0048 0.39587 0.6778 0.0
C1948 C 0.01736 0.37993 0.66714 0.0
C1949 C 0.06254 0.34123 0.63728 0.0
C1950 C 0.04577 0.35345 0.64738 0.0
H1951 H 0.01878 0.43782 0.71748 0.0
H1952 H 0.03857 0.4111 0.69982 0.0
H1953 H 0.02399 0.35893 0.69182 0.0
H1954 H 0.06879 0.27843 0.6354 0.0
H1955 H 0.03993 0.29785 0.65122 0.0
C1956 C 0.54881 0.57069 0.68967 0.0
C1957 C 0.56238 0.55293 0.6914 0.0
C1958 C 0.56403 0.59877 0.68098 0.0
C1959 C 0.62985 0.64772 0.65081 0.0
H1960 H 0.61828 0.71034 0.67288 0.0
C1961 C 0.69778 0.77343 0.62886 0.0
C1962 C 0.67944 0.78517 0.62328 0.0
C1963 C 0.68525 0.74558 0.63797 0.0
C1964 C 0.6217 0.69304 0.66661 0.0
H1965 H 0.6022 0.5502 0.68498 0.0
H1966 H 0.62927 0.59974 0.67025 0.0
H1967 H 0.59284 0.66013 0.68659 0.0
H1968 H 0.63395 0.77764 0.62343 0.0
H1969 H 0.61231 0.72943 0.63978 0.0
H1970 H 0.65926 0.68121 0.63104 0.0
C1971 C 0.6066 0.59174 0.67525 0.0
C1972 C 0.60695 0.6642 0.67433 0.0
C1973 C 0.59112 0.56336 0.68371 0.0
C1974 C 0.6486 0.76908 0.62752 0.0
C1975 C 0.63623 0.7416 0.63692 0.0
C1976 C 0.64497 0.67676 0.64327 0.0
C1977 C 0.59342 0.61002 0.67411 0.0
C1978 C 0.61038 0.64101 0.66632 0.0
C1979 C 0.65436 0.72942 0.64198 0.0
C1980 C 0.64061 0.69949 0.65094 0.0
H1981 H 0.52651 0.56305 0.69528 0.0
H1982 H 0.55279 0.61179 0.67984 0.0
H1983 H 0.63282 0.6304 0.64418 0.0
H1984 H 0.72159 0.78529 0.62565 0.0
H1985 H 0.69964 0.73661 0.64183 0.0
C1986 C 0.22684 0.88467 0.62993 0.0
C1987 C 0.20922 0.89787 0.62599 0.0
C1988 C 0.25298 0.90008 0.64056 0.0
C1989 C 0.31369 0.9738 0.64993 0.0
H1990 H 0.33075 0.93629 0.69198 0.0
C1991 C 0.42811 0.03098 0.68891 0.0
C1992 C 0.43897 0.01212 0.69497 0.0
C1993 C 0.39915 0.01874 0.68149 0.0
C1994 C 0.32648 0.94696 0.68013 0.0
H1995 H 0.20475 0.93727 0.63015 0.0
H1996 H 0.25143 0.9648 0.64843 0.0
H1997 H 0.28069 0.91156 0.67803 0.0
H1998 H 0.42869 0.96582 0.69719 0.0
H1999 H 0.37879 0.94454 0.68356 0.0
H2000 H 0.35981 0.00841 0.65128 0.0
C2001 C 0.24456 0.94234 0.64344 0.0
C2002 C 0.29776 0.93293 0.67231 0.0
C2003 C 0.21793 0.9266 0.63311 0.0
C2004 C 0.4208 0.9809 0.69282 0.0
C2005 C 0.39207 0.96871 0.68518 0.0
C2006 C 0.34261 0.98767 0.65757 0.0
C2007 C 0.26228 0.92917 0.64714 0.0
C2008 C 0.29131 0.94598 0.65696 0.0
C2009 C 0.38065 0.98742 0.67978 0.0
C2010 C 0.34948 0.97408 0.67252 0.0
H2011 H 0.22051 0.86248 0.62467 0.0
H2012 H 0.26648 0.88962 0.64314 0.0
H2013 H 0.30919 0.98407 0.63795 0.0
H2014 H 0.44154 0.05514 0.69055 0.0
H2015 H 0.39099 0.03378 0.6776 0.0
loop_
_geom_bond_atom_site_label_1
_geom_bond_atom_site_label_2
_geom_bond_distance
_geom_bond_site_symmetry_2
_ccdc_geom_bond_type
Sc0 O3 2.025 . S
Sc0 O10 2.105 . S
Sc0 O13 2.105 . S
Sc0 O16 2.105 . S
Sc0 O19 2.105 . S
Sc1 O3 2.025 . S
Sc1 O11 2.105 . S
Sc1 O15 2.105 . S
Sc1 O17 2.105 . S
Sc1 O21 2.105 . S
Sc2 O3 2.025 . S
Sc2 O12 2.105 . S
Sc2 O14 2.105 . S
Sc2 O18 2.105 . S
Sc2 O20 2.105 . S
O3 Sc0 2.025 . S
O3 Sc1 2.025 . S
O3 Sc2 2.025 . S
C4 O10 1.268 . S
C4 O20 1.268 . S
C5 O11 1.268 . S
C5 O19 1.268 . S
C6 O12 1.268 . S
C6 O21 1.268 . S
C7 O13 1.268 . S
C7 O17 1.268 . S
C8 O14 1.268 . S
C8 O16 1.268 . S
C9 O15 1.268 . S
C9 O18 1.268 . S
O10 Sc0 2.105 . S
O10 C4 1.268 . S
O11 Sc1 2.105 . S
O11 C5 1.268 . S
O12 Sc2 2.105 . S
O12 C6 1.268 . S
O13 Sc0 2.105 . S
O13 C7 1.268 . S
O14 Sc2 2.105 . S
O14 C8 1.268 . S
O15 Sc1 2.105 . S
O15 C9 1.268 . S
O16 Sc0 2.105 . S
O16 C8 1.268 . S
O17 Sc1 2.105 . S
O17 C7 1.268 . S
O18 Sc2 2.105 . S
O18 C9 1.268 . S
O19 Sc0 2.105 . S
O19 C5 1.268 . S
O20 Sc2 2.105 . S
O20 C4 1.268 . S
O21 Sc1 2.105 . S
O21 C6 1.268 . S
Sc22 O25 2.025 . S
Sc22 O32 2.105 . S
Sc22 O35 2.105 . S
Sc22 O38 2.105 . S
Sc22 O41 2.105 . S
Sc23 O25 2.025 . S
Sc23 O33 2.105 . S
Sc23 O37 2.105 . S
Sc23 O39 2.105 . S
Sc23 O43 2.105 . S
Sc24 O25 2.025 . S
Sc24 O34 2.105 . S
Sc24 O36 2.105 . S
Sc24 O40 2.105 . S
Sc24 O42 2.105 . S
O25 Sc22 2.025 . S
O25 Sc23 2.025 . S
O25 Sc24 2.025 . S
C26 O32 1.268 . S
C26 O42 1.268 . S
C27 O33 1.268 . S
C27 O41 1.268 . S
C28 O34 1.268 . S
C28 O43 1.268 . S
C29 O35 1.268 . S
C29 O39 1.268 . S
C30 O36 1.268 . S
C30 O38 1.268 . S
C31 O37 1.268 . S
C31 O40 1.268 . S
O32 Sc22 2.105 . S
O32 C26 1.268 . S
O33 Sc23 2.105 . S
O33 C27 1.268 . S
O34 Sc24 2.105 . S
O34 C28 1.268 . S
O35 Sc22 2.105 . S
O35 C29 1.268 . S
O36 Sc24 2.105 . S
O36 C30 1.268 . S
O37 Sc23 2.105 . S
O37 C31 1.268 . S
O38 Sc22 2.105 . S
O38 C30 1.268 . S
O39 Sc23 2.105 . S
O39 C29 1.268 . S
O40 Sc24 2.105 . S
O40 C31 1.268 . S
O41 Sc22 2.105 . S
O41 C27 1.268 . S
O42 Sc24 2.105 . S
O42 C26 1.268 . S
O43 Sc23 2.105 . S
O43 C28 1.268 . S
Sc44 O47 2.025 . S
Sc44 O54 2.105 . S
Sc44 O57 2.105 . S
Sc44 O60 2.105 . S
Sc44 O63 2.105 . S
Sc45 O47 2.025 . S
Sc45 O55 2.105 . S
Sc45 O59 2.105 . S
Sc45 O61 2.105 . S
Sc45 O65 2.105 . S
Sc46 O47 2.025 . S
Sc46 O56 2.105 . S
Sc46 O58 2.105 . S
Sc46 O62 2.105 . S
Sc46 O64 2.105 . S
O47 Sc44 2.025 . S
O47 Sc45 2.025 . S
O47 Sc46 2.025 . S
C48 O54 1.268 . S
C48 O64 1.268 . S
C49 O55 1.268 . S
C49 O63 1.268 . S
C50 O56 1.268 . S
C50 O65 1.268 . S
C51 O57 1.268 . S
C51 O61 1.268 . S
C52 O58 1.268 . S
C52 O60 1.268 . S
C53 O59 1.268 . S
C53 O62 1.268 . S
O54 Sc44 2.105 . S
O54 C48 1.268 . S
O55 Sc45 2.105 . S
O55 C49 1.268 . S
O56 Sc46 2.105 . S
O56 C50 1.268 . S
O57 Sc44 2.105 . S
O57 C51 1.268 . S
O58 Sc46 2.105 . S
O58 C52 1.268 . S
O59 Sc45 2.105 . S
O59 C53 1.268 . S
O60 Sc44 2.105 . S
O60 C52 1.268 . S
O61 Sc45 2.105 . S
O61 C51 1.268 . S
O62 Sc46 2.105 . S
O62 C53 1.268 . S
O63 Sc44 2.105 . S
O63 C49 1.268 . S
O64 Sc46 2.105 . S
O64 C48 1.268 . S
O65 Sc45 2.105 . S
O65 C50 1.268 . S
Sc66 O69 2.025 . S
Sc66 O76 2.105 . S
Sc66 O79 2.105 . S
Sc66 O82 2.105 . S
Sc66 O85 2.105 . S
Sc67 O69 2.025 . S
Sc67 O77 2.105 . S
Sc67 O81 2.105 . S
Sc67 O83 2.105 . S
Sc67 O87 2.105 . S
Sc68 O69 2.025 . S
Sc68 O78 2.105 . S
Sc68 O80 2.105 . S
Sc68 O84 2.105 . S
Sc68 O86 2.105 . S
O69 Sc66 2.025 . S
O69 Sc67 2.025 . S
O69 Sc68 2.025 . S
C70 O76 1.268 . S
C70 O86 1.268 . S
C71 O77 1.268 . S
C71 O85 1.268 . S
C72 O78 1.268 . S
C72 O87 1.268 . S
C73 O79 1.268 . S
C73 O83 1.268 . S
C74 O80 1.268 . S
C74 O82 1.268 . S
C75 O81 1.268 . S
C75 O84 1.268 . S
O76 Sc66 2.105 . S
O76 C70 1.268 . S
O77 Sc67 2.105 . S
O77 C71 1.268 . S
O78 Sc68 2.105 . S
O78 C72 1.268 . S
O79 Sc66 2.105 . S
O79 C73 1.268 . S
O80 Sc68 2.105 . S
O80 C74 1.268 . S
O81 Sc67 2.105 . S
O81 C75 1.268 . S
O82 Sc66 2.105 . S
O82 C74 1.268 . S
O83 Sc67 2.105 . S
O83 C73 1.268 . S
O84 Sc68 2.105 . S
O84 C75 1.268 . S
O85 Sc66 2.105 . S
O85 C71 1.268 . S
O86 Sc68 2.105 . S
O86 C70 1.268 . S
O87 Sc67 2.105 . S
O87 C72 1.268 . S
Sc88 O91 2.025 . S
Sc88 O98 2.105 . S
Sc88 O101 2.105 . S
Sc88 O104 2.105 . S
Sc88 O107 2.105 . S
Sc89 O91 2.025 . S
Sc89 O99 2.105 . S
Sc89 O103 2.105 . S
Sc89 O105 2.105 . S
Sc89 O109 2.105 . S
Sc90 O91 2.025 . S
Sc90 O100 2.105 . S
Sc90 O102 2.105 . S
Sc90 O106 2.105 . S
Sc90 O108 2.105 . S
O91 Sc88 2.025 . S
O91 Sc89 2.025 . S
O91 Sc90 2.025 . S
C92 O98 1.268 . S
C92 O108 1.268 . S
C93 O99 1.268 . S
C93 O107 1.268 . S
C94 O100 1.268 . S
C94 O109 1.268 . S
C95 O101 1.268 . S
C95 O105 1.268 . S
C96 O102 1.268 . S
C96 O104 1.268 . S
C97 O103 1.268 . S
C97 O106 1.268 . S
O98 Sc88 2.105 . S
O98 C92 1.268 . S
O99 Sc89 2.105 . S
O99 C93 1.268 . S
O100 Sc90 2.105 . S
O100 C94 1.268 . S
O101 Sc88 2.105 . S
O101 C95 1.268 . S
O102 Sc90 2.105 . S
O102 C96 1.268 . S
O103 Sc89 2.105 . S
O103 C97 1.268 . S
O104 Sc88 2.105 . S
O104 C96 1.268 . S
O105 Sc89 2.105 . S
O105 C95 1.268 . S
O106 Sc90 2.105 . S
O106 C97 1.268 . S
O107 Sc88 2.105 . S
O107 C93 1.268 . S
O108 Sc90 2.105 . S
O108 C92 1.268 . S
O109 Sc89 2.105 . S
O109 C94 1.268 . S
Sc110 O113 2.025 . S
Sc110 O120 2.105 . S
Sc110 O123 2.105 . S
Sc110 O126 2.105 . S
Sc110 O129 2.105 . S
Sc111 O113 2.025 . S
Sc111 O121 2.105 . S
Sc111 O125 2.105 . S
Sc111 O127 2.105 . S
Sc111 O131 2.105 . S
Sc112 O113 2.025 . S
Sc112 O122 2.105 . S
Sc112 O124 2.105 . S
Sc112 O128 2.105 . S
Sc112 O130 2.105 . S
O113 Sc110 2.025 . S
O113 Sc111 2.025 . S
O113 Sc112 2.025 . S
C114 O120 1.268 . S
C114 O130 1.268 . S
C115 O121 1.268 . S
C115 O129 1.268 . S
C116 O122 1.268 . S
C116 O131 1.268 . S
C117 O123 1.268 . S
C117 O127 1.268 . S
C118 O124 1.268 . S
C118 O126 1.268 . S
C119 O125 1.268 . S
C119 O128 1.268 . S
O120 Sc110 2.105 . S
O120 C114 1.268 . S
O121 Sc111 2.105 . S
O121 C115 1.268 . S
O122 Sc112 2.105 . S
O122 C116 1.268 . S
O123 Sc110 2.105 . S
O123 C117 1.268 . S
O124 Sc112 2.105 . S
O124 C118 1.268 . S
O125 Sc111 2.105 . S
O125 C119 1.268 . S
O126 Sc110 2.105 . S
O126 C118 1.268 . S
O127 Sc111 2.105 . S
O127 C117 1.268 . S
O128 Sc112 2.105 . S
O128 C119 1.268 . S
O129 Sc110 2.105 . S
O129 C115 1.268 . S
O130 Sc112 2.105 . S
O130 C114 1.268 . S
O131 Sc111 2.105 . S
O131 C116 1.268 . S
Sc132 O135 2.025 . S
Sc132 O142 2.105 . S
Sc132 O145 2.105 . S
Sc132 O148 2.105 . S
Sc132 O151 2.105 . S
Sc133 O135 2.025 . S
Sc133 O143 2.105 . S
Sc133 O147 2.105 . S
Sc133 O149 2.105 . S
Sc133 O153 2.105 . S
Sc134 O135 2.025 . S
Sc134 O144 2.105 . S
Sc134 O146 2.105 . S
Sc134 O150 2.105 . S
Sc134 O152 2.105 . S
O135 Sc132 2.025 . S
O135 Sc133 2.025 . S
O135 Sc134 2.025 . S
C136 O142 1.268 . S
C136 O152 1.268 . S
C137 O143 1.268 . S
C137 O151 1.268 . S
C138 O144 1.268 . S
C138 O153 1.268 . S
C139 O145 1.268 . S
C139 O149 1.268 . S
C140 O146 1.268 . S
C140 O148 1.268 . S
C141 O147 1.268 . S
C141 O150 1.268 . S
O142 Sc132 2.105 . S
O142 C136 1.268 . S
O143 Sc133 2.105 . S
O143 C137 1.268 . S
O144 Sc134 2.105 . S
O144 C138 1.268 . S
O145 Sc132 2.105 . S
O145 C139 1.268 . S
O146 Sc134 2.105 . S
O146 C140 1.268 . S
O147 Sc133 2.105 . S
O147 C141 1.268 . S
O148 Sc132 2.105 . S
O148 C140 1.268 . S
O149 Sc133 2.105 . S
O149 C139 1.268 . S
O150 Sc134 2.105 . S
O150 C141 1.268 . S
O151 Sc132 2.105 . S
O151 C137 1.268 . S
O152 Sc134 2.105 . S
O152 C136 1.268 . S
O153 Sc133 2.105 . S
O153 C138 1.268 . S
Sc154 O157 2.025 . S
Sc154 O164 2.105 . S
Sc154 O167 2.105 . S
Sc154 O170 2.105 . S
Sc154 O173 2.105 . S
Sc155 O157 2.025 . S
Sc155 O165 2.105 . S
Sc155 O169 2.105 . S
Sc155 O171 2.105 . S
Sc155 O175 2.105 . S
Sc156 O157 2.025 . S
Sc156 O166 2.105 . S
Sc156 O168 2.105 . S
Sc156 O172 2.105 . S
Sc156 O174 2.105 . S
O157 Sc154 2.025 . S
O157 Sc155 2.025 . S
O157 Sc156 2.025 . S
C158 O164 1.268 . S
C158 O174 1.268 . S
C159 O165 1.268 . S
C159 O173 1.268 . S
C160 O166 1.268 . S
C160 O175 1.268 . S
C161 O167 1.268 . S
C161 O171 1.268 . S
C162 O168 1.268 . S
C162 O170 1.268 . S
C163 O169 1.268 . S
C163 O172 1.268 . S
O164 Sc154 2.105 . S
O164 C158 1.268 . S
O165 Sc155 2.105 . S
O165 C159 1.268 . S
O166 Sc156 2.105 . S
O166 C160 1.268 . S
O167 Sc154 2.105 . S
O167 C161 1.268 . S
O168 Sc156 2.105 . S
O168 C162 1.268 . S
O169 Sc155 2.105 . S
O169 C163 1.268 . S
O170 Sc154 2.105 . S
O170 C162 1.268 . S
O171 Sc155 2.105 . S
O171 C161 1.268 . S
O172 Sc156 2.105 . S
O172 C163 1.268 . S
O173 Sc154 2.105 . S
O173 C159 1.268 . S
O174 Sc156 2.105 . S
O174 C158 1.268 . S
O175 Sc155 2.105 . S
O175 C160 1.268 . S
Sc176 O179 2.025 . S
Sc176 O186 2.105 . S
Sc176 O189 2.105 . S
Sc176 O192 2.105 . S
Sc176 O195 2.105 . S
Sc177 O179 2.025 . S
Sc177 O187 2.105 . S
Sc177 O191 2.105 . S
Sc177 O193 2.105 . S
Sc177 O197 2.105 . S
Sc178 O179 2.025 . S
Sc178 O188 2.105 . S
Sc178 O190 2.105 . S
Sc178 O194 2.105 . S
Sc178 O196 2.105 . S
O179 Sc176 2.025 . S
O179 Sc177 2.025 . S
O179 Sc178 2.025 . S
C180 O186 1.268 . S
C180 O196 1.268 . S
C181 O187 1.268 . S
C181 O195 1.268 . S
C182 O188 1.268 . S
C182 O197 1.268 . S
C183 O189 1.268 . S
C183 O193 1.268 . S
C184 O190 1.268 . S
C184 O192 1.268 . S
C185 O191 1.268 . S
C185 O194 1.268 . S
O186 Sc176 2.105 . S
O186 C180 1.268 . S
O187 Sc177 2.105 . S
O187 C181 1.268 . S
O188 Sc178 2.105 . S
O188 C182 1.268 . S
O189 Sc176 2.105 . S
O189 C183 1.268 . S
O190 Sc178 2.105 . S
O190 C184 1.268 . S
O191 Sc177 2.105 . S
O191 C185 1.268 . S
O192 Sc176 2.105 . S
O192 C184 1.268 . S
O193 Sc177 2.105 . S
O193 C183 1.268 . S
O194 Sc178 2.105 . S
O194 C185 1.268 . S
O195 Sc176 2.105 . S
O195 C181 1.268 . S
O196 Sc178 2.105 . S
O196 C180 1.268 . S
O197 Sc177 2.105 . S
O197 C182 1.268 . S
Sc198 O201 2.025 . S
Sc198 O208 2.105 . S
Sc198 O211 2.105 . S
Sc198 O214 2.105 . S
Sc198 O217 2.105 . S
Sc199 O201 2.025 . S
Sc199 O209 2.105 . S
Sc199 O213 2.105 . S
Sc199 O215 2.105 . S
Sc199 O219 2.105 . S
Sc200 O201 2.025 . S
Sc200 O210 2.105 . S
Sc200 O212 2.105 . S
Sc200 O216 2.105 . S
Sc200 O218 2.105 . S
O201 Sc198 2.025 . S
O201 Sc199 2.025 . S
O201 Sc200 2.025 . S
C202 O208 1.268 . S
C202 O218 1.268 . S
C203 O209 1.268 . S
C203 O217 1.268 . S
C204 O210 1.268 . S
C204 O219 1.268 . S
C205 O211 1.268 . S
C205 O215 1.268 . S
C206 O212 1.268 . S
C206 O214 1.268 . S
C207 O213 1.268 . S
C207 O216 1.268 . S
O208 Sc198 2.105 . S
O208 C202 1.268 . S
O209 Sc199 2.105 . S
O209 C203 1.268 . S
O210 Sc200 2.105 . S
O210 C204 1.268 . S
O211 Sc198 2.105 . S
O211 C205 1.268 . S
O212 Sc200 2.105 . S
O212 C206 1.268 . S
O213 Sc199 2.105 . S
O213 C207 1.268 . S
O214 Sc198 2.105 . S
O214 C206 1.268 . S
O215 Sc199 2.105 . S
O215 C205 1.268 . S
O216 Sc200 2.105 . S
O216 C207 1.268 . S
O217 Sc198 2.105 . S
O217 C203 1.268 . S
O218 Sc200 2.105 . S
O218 C202 1.268 . S
O219 Sc199 2.105 . S
O219 C204 1.268 . S
Sc220 O223 2.025 . S
Sc220 O230 2.105 . S
Sc220 O233 2.105 . S
Sc220 O236 2.105 . S
Sc220 O239 2.105 . S
Sc221 O223 2.025 . S
Sc221 O231 2.105 . S
Sc221 O235 2.105 . S
Sc221 O237 2.105 . S
Sc221 O241 2.105 . S
Sc222 O223 2.025 . S
Sc222 O232 2.105 . S
Sc222 O234 2.105 . S
Sc222 O238 2.105 . S
Sc222 O240 2.105 . S
O223 Sc220 2.025 . S
O223 Sc221 2.025 . S
O223 Sc222 2.025 . S
C224 O230 1.268 . S
C224 O240 1.268 . S
C225 O231 1.268 . S
C225 O239 1.268 . S
C226 O232 1.268 . S
C226 O241 1.268 . S
C227 O233 1.268 . S
C227 O237 1.268 . S
C228 O234 1.268 . S
C228 O236 1.268 . S
C229 O235 1.268 . S
C229 O238 1.268 . S
O230 Sc220 2.105 . S
O230 C224 1.268 . S
O231 Sc221 2.105 . S
O231 C225 1.268 . S
O232 Sc222 2.105 . S
O232 C226 1.268 . S
O233 Sc220 2.105 . S
O233 C227 1.268 . S
O234 Sc222 2.105 . S
O234 C228 1.268 . S
O235 Sc221 2.105 . S
O235 C229 1.268 . S
O236 Sc220 2.105 . S
O236 C228 1.268 . S
O237 Sc221 2.105 . S
O237 C227 1.268 . S
O238 Sc222 2.105 . S
O238 C229 1.268 . S
O239 Sc220 2.105 . S
O239 C225 1.268 . S
O240 Sc222 2.105 . S
O240 C224 1.268 . S
O241 Sc221 2.105 . S
O241 C226 1.268 . S
Sc242 O245 2.025 . S
Sc242 O252 2.105 . S
Sc242 O255 2.105 . S
Sc242 O258 2.105 . S
Sc242 O261 2.105 . S
Sc243 O245 2.025 . S
Sc243 O253 2.105 . S
Sc243 O257 2.105 . S
Sc243 O259 2.105 . S
Sc243 O263 2.105 . S
Sc244 O245 2.025 . S
Sc244 O254 2.105 . S
Sc244 O256 2.105 . S
Sc244 O260 2.105 . S
Sc244 O262 2.105 . S
O245 Sc242 2.025 . S
O245 Sc243 2.025 . S
O245 Sc244 2.025 . S
C246 O252 1.268 . S
C246 O262 1.268 . S
C247 O253 1.268 . S
C247 O261 1.268 . S
C248 O254 1.268 . S
C248 O263 1.268 . S
C249 O255 1.268 . S
C249 O259 1.268 . S
C250 O256 1.268 . S
C250 O258 1.268 . S
C251 O257 1.268 . S
C251 O260 1.268 . S
O252 Sc242 2.105 . S
O252 C246 1.268 . S
O253 Sc243 2.105 . S
O253 C247 1.268 . S
O254 Sc244 2.105 . S
O254 C248 1.268 . S
O255 Sc242 2.105 . S
O255 C249 1.268 . S
O256 Sc244 2.105 . S
O256 C250 1.268 . S
O257 Sc243 2.105 . S
O257 C251 1.268 . S
O258 Sc242 2.105 . S
O258 C250 1.268 . S
O259 Sc243 2.105 . S
O259 C249 1.268 . S
O260 Sc244 2.105 . S
O260 C251 1.268 . S
O261 Sc242 2.105 . S
O261 C247 1.268 . S
O262 Sc244 2.105 . S
O262 C246 1.268 . S
O263 Sc243 2.105 . S
O263 C248 1.268 . S
Sc264 O267 2.025 . S
Sc264 O274 2.105 . S
Sc264 O277 2.105 . S
Sc264 O280 2.105 . S
Sc264 O283 2.105 . S
Sc265 O267 2.025 . S
Sc265 O275 2.105 . S
Sc265 O279 2.105 . S
Sc265 O281 2.105 . S
Sc265 O285 2.105 . S
Sc266 O267 2.025 . S
Sc266 O276 2.105 . S
Sc266 O278 2.105 . S
Sc266 O282 2.105 . S
Sc266 O284 2.105 . S
O267 Sc264 2.025 . S
O267 Sc265 2.025 . S
O267 Sc266 2.025 . S
C268 O274 1.268 . S
C268 O284 1.268 . S
C269 O275 1.268 . S
C269 O283 1.268 . S
C270 O276 1.268 . S
C270 O285 1.268 . S
C271 O277 1.268 . S
C271 O281 1.268 . S
C272 O278 1.268 . S
C272 O280 1.268 . S
C273 O279 1.268 . S
C273 O282 1.268 . S
O274 Sc264 2.105 . S
O274 C268 1.268 . S
O275 Sc265 2.105 . S
O275 C269 1.268 . S
O276 Sc266 2.105 . S
O276 C270 1.268 . S
O277 Sc264 2.105 . S
O277 C271 1.268 . S
O278 Sc266 2.105 . S
O278 C272 1.268 . S
O279 Sc265 2.105 . S
O279 C273 1.268 . S
O280 Sc264 2.105 . S
O280 C272 1.268 . S
O281 Sc265 2.105 . S
O281 C271 1.268 . S
O282 Sc266 2.105 . S
O282 C273 1.268 . S
O283 Sc264 2.105 . S
O283 C269 1.268 . S
O284 Sc266 2.105 . S
O284 C268 1.268 . S
O285 Sc265 2.105 . S
O285 C270 1.268 . S
Sc286 O289 2.025 . S
Sc286 O296 2.105 . S
Sc286 O299 2.105 . S
Sc286 O302 2.105 . S
Sc286 O305 2.105 . S
Sc287 O289 2.025 . S
Sc287 O297 2.105 . S
Sc287 O301 2.105 . S
Sc287 O303 2.105 . S
Sc287 O307 2.105 . S
Sc288 O289 2.025 . S
Sc288 O298 2.105 . S
Sc288 O300 2.105 . S
Sc288 O304 2.105 . S
Sc288 O306 2.105 . S
O289 Sc286 2.025 . S
O289 Sc287 2.025 . S
O289 Sc288 2.025 . S
C290 O296 1.268 . S
C290 O306 1.268 . S
C291 O297 1.268 . S
C291 O305 1.268 . S
C292 O298 1.268 . S
C292 O307 1.268 . S
C293 O299 1.268 . S
C293 O303 1.268 . S
C294 O300 1.268 . S
C294 O302 1.268 . S
C295 O301 1.268 . S
C295 O304 1.268 . S
O296 Sc286 2.105 . S
O296 C290 1.268 . S
O297 Sc287 2.105 . S
O297 C291 1.268 . S
O298 Sc288 2.105 . S
O298 C292 1.268 . S
O299 Sc286 2.105 . S
O299 C293 1.268 . S
O300 Sc288 2.105 . S
O300 C294 1.268 . S
O301 Sc287 2.105 . S
O301 C295 1.268 . S
O302 Sc286 2.105 . S
O302 C294 1.268 . S
O303 Sc287 2.105 . S
O303 C293 1.268 . S
O304 Sc288 2.105 . S
O304 C295 1.268 . S
O305 Sc286 2.105 . S
O305 C291 1.268 . S
O306 Sc288 2.105 . S
O306 C290 1.268 . S
O307 Sc287 2.105 . S
O307 C292 1.268 . S
Sc308 O311 2.025 . S
Sc308 O318 2.105 . S
Sc308 O321 2.105 . S
Sc308 O324 2.105 . S
Sc308 O327 2.105 . S
Sc309 O311 2.025 . S
Sc309 O319 2.105 . S
Sc309 O323 2.105 . S
Sc309 O325 2.105 . S
Sc309 O329 2.105 . S
Sc310 O311 2.025 . S
Sc310 O320 2.105 . S
Sc310 O322 2.105 . S
Sc310 O326 2.105 . S
Sc310 O328 2.105 . S
O311 Sc308 2.025 . S
O311 Sc309 2.025 . S
O311 Sc310 2.025 . S
C312 O318 1.268 . S
C312 O328 1.268 . S
C313 O319 1.268 . S
C313 O327 1.268 . S
C314 O320 1.268 . S
C314 O329 1.268 . S
C315 O321 1.268 . S
C315 O325 1.268 . S
C316 O322 1.268 . S
C316 O324 1.268 . S
C317 O323 1.268 . S
C317 O326 1.268 . S
O318 Sc308 2.105 . S
O318 C312 1.268 . S
O319 Sc309 2.105 . S
O319 C313 1.268 . S
O320 Sc310 2.105 . S
O320 C314 1.268 . S
O321 Sc308 2.105 . S
O321 C315 1.268 . S
O322 Sc310 2.105 . S
O322 C316 1.268 . S
O323 Sc309 2.105 . S
O323 C317 1.268 . S
O324 Sc308 2.105 . S
O324 C316 1.268 . S
O325 Sc309 2.105 . S
O325 C315 1.268 . S
O326 Sc310 2.105 . S
O326 C317 1.268 . S
O327 Sc308 2.105 . S
O327 C313 1.268 . S
O328 Sc310 2.105 . S
O328 C312 1.268 . S
O329 Sc309 2.105 . S
O329 C314 1.268 . S
Sc330 O333 2.025 . S
Sc330 O340 2.105 . S
Sc330 O343 2.105 . S
Sc330 O346 2.105 . S
Sc330 O349 2.105 . S
Sc331 O333 2.025 . S
Sc331 O341 2.105 . S
Sc331 O345 2.105 . S
Sc331 O347 2.105 . S
Sc331 O351 2.105 . S
Sc332 O333 2.025 . S
Sc332 O342 2.105 . S
Sc332 O344 2.105 . S
Sc332 O348 2.105 . S
Sc332 O350 2.105 . S
O333 Sc330 2.025 . S
O333 Sc331 2.025 . S
O333 Sc332 2.025 . S
C334 O340 1.268 . S
C334 O350 1.268 . S
C335 O341 1.268 . S
C335 O349 1.268 . S
C336 O342 1.268 . S
C336 O351 1.268 . S
C337 O343 1.268 . S
C337 O347 1.268 . S
C338 O344 1.268 . S
C338 O346 1.268 . S
C339 O345 1.268 . S
C339 O348 1.268 . S
O340 Sc330 2.105 . S
O340 C334 1.268 . S
O341 Sc331 2.105 . S
O341 C335 1.268 . S
O342 Sc332 2.105 . S
O342 C336 1.268 . S
O343 Sc330 2.105 . S
O343 C337 1.268 . S
O344 Sc332 2.105 . S
O344 C338 1.268 . S
O345 Sc331 2.105 . S
O345 C339 1.268 . S
O346 Sc330 2.105 . S
O346 C338 1.268 . S
O347 Sc331 2.105 . S
O347 C337 1.268 . S
O348 Sc332 2.105 . S
O348 C339 1.268 . S
O349 Sc330 2.105 . S
O349 C335 1.268 . S
O350 Sc332 2.105 . S
O350 C334 1.268 . S
O351 Sc331 2.105 . S
O351 C336 1.268 . S
Sc352 O355 2.025 . S
Sc352 O362 2.105 . S
Sc352 O365 2.105 . S
Sc352 O368 2.105 . S
Sc352 O371 2.105 . S
Sc353 O355 2.025 . S
Sc353 O363 2.105 . S
Sc353 O367 2.105 . S
Sc353 O369 2.105 . S
Sc353 O373 2.105 . S
Sc354 O355 2.025 . S
Sc354 O364 2.105 . S
Sc354 O366 2.105 . S
Sc354 O370 2.105 . S
Sc354 O372 2.105 . S
O355 Sc352 2.025 . S
O355 Sc353 2.025 . S
O355 Sc354 2.025 . S
C356 O362 1.268 . S
C356 O372 1.268 . S
C357 O363 1.268 . S
C357 O371 1.268 . S
C358 O364 1.268 . S
C358 O373 1.268 . S
C359 O365 1.268 . S
C359 O369 1.268 . S
C360 O366 1.268 . S
C360 O368 1.268 . S
C361 O367 1.268 . S
C361 O370 1.268 . S
O362 Sc352 2.105 . S
O362 C356 1.268 . S
O363 Sc353 2.105 . S
O363 C357 1.268 . S
O364 Sc354 2.105 . S
O364 C358 1.268 . S
O365 Sc352 2.105 . S
O365 C359 1.268 . S
O366 Sc354 2.105 . S
O366 C360 1.268 . S
O367 Sc353 2.105 . S
O367 C361 1.268 . S
O368 Sc352 2.105 . S
O368 C360 1.268 . S
O369 Sc353 2.105 . S
O369 C359 1.268 . S
O370 Sc354 2.105 . S
O370 C361 1.268 . S
O371 Sc352 2.105 . S
O371 C357 1.268 . S
O372 Sc354 2.105 . S
O372 C356 1.268 . S
O373 Sc353 2.105 . S
O373 C358 1.268 . S
Sc374 O377 2.025 . S
Sc374 O384 2.105 . S
Sc374 O387 2.105 . S
Sc374 O390 2.105 . S
Sc374 O393 2.105 . S
Sc375 O377 2.025 . S
Sc375 O385 2.105 . S
Sc375 O389 2.105 . S
Sc375 O391 2.105 . S
Sc375 O395 2.105 . S
Sc376 O377 2.025 . S
Sc376 O386 2.105 . S
Sc376 O388 2.105 . S
Sc376 O392 2.105 . S
Sc376 O394 2.105 . S
O377 Sc374 2.025 . S
O377 Sc375 2.025 . S
O377 Sc376 2.025 . S
C378 O384 1.268 . S
C378 O394 1.268 . S
C379 O385 1.268 . S
C379 O393 1.268 . S
C380 O386 1.268 . S
C380 O395 1.268 . S
C381 O387 1.268 . S
C381 O391 1.268 . S
C382 O388 1.268 . S
C382 O390 1.268 . S
C383 O389 1.268 . S
C383 O392 1.268 . S
O384 Sc374 2.105 . S
O384 C378 1.268 . S
O385 Sc375 2.105 . S
O385 C379 1.268 . S
O386 Sc376 2.105 . S
O386 C380 1.268 . S
O387 Sc374 2.105 . S
O387 C381 1.268 . S
O388 Sc376 2.105 . S
O388 C382 1.268 . S
O389 Sc375 2.105 . S
O389 C383 1.268 . S
O390 Sc374 2.105 . S
O390 C382 1.268 . S
O391 Sc375 2.105 . S
O391 C381 1.268 . S
O392 Sc376 2.105 . S
O392 C383 1.268 . S
O393 Sc374 2.105 . S
O393 C379 1.268 . S
O394 Sc376 2.105 . S
O394 C378 1.268 . S
O395 Sc375 2.105 . S
O395 C380 1.268 . S
C396 C397 1.349 . S
C396 C398 1.327 . S
C396 H421 0.950 . S
C397 C396 1.349 . S
C397 C413 1.349 . S
C398 C396 1.327 . S
C398 C417 1.429 . S
C398 H422 0.950 . S
C399 C416 1.574 . S
C399 C418 1.368 . S
C399 H423 0.949 . S
H400 C404 0.949 . S
C401 C402 1.349 . S
C401 C403 1.327 . S
C401 H424 0.950 . S
C402 C401 1.349 . S
C402 C414 1.349 . S
C403 C401 1.327 . S
C403 C419 1.429 . S
C403 H425 0.950 . S
C404 H400 0.949 . S
C404 C412 1.574 . S
C404 C420 1.368 . S
H405 C413 0.950 . S
H406 C411 0.950 . S
H407 C412 0.949 . S
H408 C414 0.950 . S
H409 C415 0.950 . S
H410 C416 0.949 . S
C411 H406 0.950 . S
C411 C413 1.327 . S
C411 C417 1.429 . S
C412 C404 1.574 . S
C412 H407 0.949 . S
C412 C418 1.368 . S
C413 C397 1.349 . S
C413 H405 0.950 . S
C413 C411 1.327 . S
C414 C402 1.349 . S
C414 H408 0.950 . S
C414 C415 1.327 . S
C415 H409 0.950 . S
C415 C414 1.327 . S
C415 C419 1.429 . S
C416 C399 1.574 . S
C416 H410 0.949 . S
C416 C420 1.368 . S
C417 C398 1.429 . S
C417 C411 1.429 . S
C417 C418 1.523 . S
C418 C399 1.368 . S
C418 C412 1.368 . S
C418 C417 1.523 . S
C419 C403 1.429 . S
C419 C415 1.429 . S
C419 C420 1.523 . S
C420 C404 1.368 . S
C420 C416 1.368 . S
C420 C419 1.523 . S
H421 C396 0.950 . S
H422 C398 0.950 . S
H423 C399 0.949 . S
H424 C401 0.950 . S
H425 C403 0.950 . S
C426 C427 1.349 . S
C426 C428 1.327 . S
C426 H451 0.950 . S
C427 C426 1.349 . S
C427 C443 1.349 . S
C428 C426 1.327 . S
C428 C447 1.429 . S
C428 H452 0.950 . S
C429 C446 1.574 . S
C429 C448 1.368 . S
C429 H453 0.949 . S
H430 C434 0.949 . S
C431 C432 1.349 . S
C431 C433 1.327 . S
C431 H454 0.950 . S
C432 C431 1.349 . S
C432 C444 1.349 . S
C433 C431 1.327 . S
C433 C449 1.429 . S
C433 H455 0.950 . S
C434 H430 0.949 . S
C434 C442 1.574 . S
C434 C450 1.368 . S
H435 C443 0.950 . S
H436 C441 0.950 . S
H437 C442 0.949 . S
H438 C444 0.950 . S
H439 C445 0.950 . S
H440 C446 0.949 . S
C441 H436 0.950 . S
C441 C443 1.327 . S
C441 C447 1.429 . S
C442 C434 1.574 . S
C442 H437 0.949 . S
C442 C448 1.368 . S
C443 C427 1.349 . S
C443 H435 0.950 . S
C443 C441 1.327 . S
C444 C432 1.349 . S
C444 H438 0.950 . S
C444 C445 1.327 . S
C445 H439 0.950 . S
C445 C444 1.327 . S
C445 C449 1.429 . S
C446 C429 1.574 . S
C446 H440 0.949 . S
C446 C450 1.368 . S
C447 C428 1.429 . S
C447 C441 1.429 . S
C447 C448 1.523 . S
C448 C429 1.368 . S
C448 C442 1.368 . S
C448 C447 1.523 . S
C449 C433 1.429 . S
C449 C445 1.429 . S
C449 C450 1.523 . S
C450 C434 1.368 . S
C450 C446 1.368 . S
C450 C449 1.523 . S
H451 C426 0.950 . S
H452 C428 0.950 . S
H453 C429 0.949 . S
H454 C431 0.950 . S
H455 C433 0.950 . S
C456 C457 1.349 . S
C456 C458 1.327 . S
C456 H481 0.950 . S
C457 C456 1.349 . S
C457 C473 1.349 . S
C458 C456 1.327 . S
C458 C477 1.429 . S
C458 H482 0.950 . S
C459 C476 1.574 . S
C459 C478 1.368 . S
C459 H483 0.949 . S
H460 C464 0.949 . S
C461 C462 1.349 . S
C461 C463 1.327 . S
C461 H484 0.950 . S
C462 C461 1.349 . S
C462 C474 1.349 . S
C463 C461 1.327 . S
C463 C479 1.429 . S
C463 H485 0.950 . S
C464 H460 0.949 . S
C464 C472 1.574 . S
C464 C480 1.368 . S
H465 C473 0.950 . S
H466 C471 0.950 . S
H467 C472 0.949 . S
H468 C474 0.950 . S
H469 C475 0.950 . S
H470 C476 0.949 . S
C471 H466 0.950 . S
C471 C473 1.327 . S
C471 C477 1.429 . S
C472 C464 1.574 . S
C472 H467 0.949 . S
C472 C478 1.368 . S
C473 C457 1.349 . S
C473 H465 0.950 . S
C473 C471 1.327 . S
C474 C462 1.349 . S
C474 H468 0.950 . S
C474 C475 1.327 . S
C475 H469 0.950 . S
C475 C474 1.327 . S
C475 C479 1.429 . S
C476 C459 1.574 . S
C476 H470 0.949 . S
C476 C480 1.368 . S
C477 C458 1.429 . S
C477 C471 1.429 . S
C477 C478 1.523 . S
C478 C459 1.368 . S
C478 C472 1.368 . S
C478 C477 1.523 . S
C479 C463 1.429 . S
C479 C475 1.429 . S
C479 C480 1.523 . S
C480 C464 1.368 . S
C480 C476 1.368 . S
C480 C479 1.523 . S
H481 C456 0.950 . S
H482 C458 0.950 . S
H483 C459 0.949 . S
H484 C461 0.950 . S
H485 C463 0.950 . S
C486 C487 1.349 . S
C486 C488 1.327 . S
C486 H511 0.950 . S
C487 C486 1.349 . S
C487 C503 1.349 . S
C488 C486 1.327 . S
C488 C507 1.429 . S
C488 H512 0.950 . S
C489 C506 1.574 . S
C489 C508 1.368 . S
C489 H513 0.949 . S
H490 C494 0.949 . S
C491 C492 1.349 . S
C491 C493 1.327 . S
C491 H514 0.950 . S
C492 C491 1.349 . S
C492 C504 1.349 . S
C493 C491 1.327 . S
C493 C509 1.429 . S
C493 H515 0.950 . S
C494 H490 0.949 . S
C494 C502 1.574 . S
C494 C510 1.368 . S
H495 C503 0.950 . S
H496 C501 0.950 . S
H497 C502 0.949 . S
H498 C504 0.950 . S
H499 C505 0.950 . S
H500 C506 0.949 . S
C501 H496 0.950 . S
C501 C503 1.327 . S
C501 C507 1.429 . S
C502 C494 1.574 . S
C502 H497 0.949 . S
C502 C508 1.368 . S
C503 C487 1.349 . S
C503 H495 0.950 . S
C503 C501 1.327 . S
C504 C492 1.349 . S
C504 H498 0.950 . S
C504 C505 1.327 . S
C505 H499 0.950 . S
C505 C504 1.327 . S
C505 C509 1.429 . S
C506 C489 1.574 . S
C506 H500 0.949 . S
C506 C510 1.368 . S
C507 C488 1.429 . S
C507 C501 1.429 . S
C507 C508 1.523 . S
C508 C489 1.368 . S
C508 C502 1.368 . S
C508 C507 1.523 . S
C509 C493 1.429 . S
C509 C505 1.429 . S
C509 C510 1.523 . S
C510 C494 1.368 . S
C510 C506 1.368 . S
C510 C509 1.523 . S
H511 C486 0.950 . S
H512 C488 0.950 . S
H513 C489 0.949 . S
H514 C491 0.950 . S
H515 C493 0.950 . S
C516 C517 1.349 . S
C516 C518 1.327 . S
C516 H541 0.950 . S
C517 C516 1.349 . S
C517 C533 1.349 . S
C518 C516 1.327 . S
C518 C537 1.429 . S
C518 H542 0.950 . S
C519 C536 1.574 . S
C519 C538 1.368 . S
C519 H543 0.949 . S
H520 C524 0.949 . S
C521 C522 1.349 . S
C521 C523 1.327 . S
C521 H544 0.950 . S
C522 C521 1.349 . S
C522 C534 1.349 . S
C523 C521 1.327 . S
C523 C539 1.429 . S
C523 H545 0.950 . S
C524 H520 0.949 . S
C524 C532 1.574 . S
C524 C540 1.368 . S
H525 C533 0.950 . S
H526 C531 0.950 . S
H527 C532 0.949 . S
H528 C534 0.950 . S
H529 C535 0.950 . S
H530 C536 0.949 . S
C531 H526 0.950 . S
C531 C533 1.327 . S
C531 C537 1.429 . S
C532 C524 1.574 . S
C532 H527 0.949 . S
C532 C538 1.368 . S
C533 C517 1.349 . S
C533 H525 0.950 . S
C533 C531 1.327 . S
C534 C522 1.349 . S
C534 H528 0.950 . S
C534 C535 1.327 . S
C535 H529 0.950 . S
C535 C534 1.327 . S
C535 C539 1.429 . S
C536 C519 1.574 . S
C536 H530 0.949 . S
C536 C540 1.368 . S
C537 C518 1.429 . S
C537 C531 1.429 . S
C537 C538 1.523 . S
C538 C519 1.368 . S
C538 C532 1.368 . S
C538 C537 1.523 . S
C539 C523 1.429 . S
C539 C535 1.429 . S
C539 C540 1.523 . S
C540 C524 1.368 . S
C540 C536 1.368 . S
C540 C539 1.523 . S
H541 C516 0.950 . S
H542 C518 0.950 . S
H543 C519 0.949 . S
H544 C521 0.950 . S
H545 C523 0.950 . S
C546 C547 1.349 . S
C546 C548 1.327 . S
C546 H571 0.950 . S
C547 C546 1.349 . S
C547 C563 1.349 . S
C548 C546 1.327 . S
C548 C567 1.429 . S
C548 H572 0.950 . S
C549 C566 1.574 . S
C549 C568 1.368 . S
C549 H573 0.949 . S
H550 C554 0.949 . S
C551 C552 1.349 . S
C551 C553 1.327 . S
C551 H574 0.950 . S
C552 C551 1.349 . S
C552 C564 1.349 . S
C553 C551 1.327 . S
C553 C569 1.429 . S
C553 H575 0.950 . S
C554 H550 0.949 . S
C554 C562 1.574 . S
C554 C570 1.368 . S
H555 C563 0.950 . S
H556 C561 0.950 . S
H557 C562 0.949 . S
H558 C564 0.950 . S
H559 C565 0.950 . S
H560 C566 0.949 . S
C561 H556 0.950 . S
C561 C563 1.327 . S
C561 C567 1.429 . S
C562 C554 1.574 . S
C562 H557 0.949 . S
C562 C568 1.368 . S
C563 C547 1.349 . S
C563 H555 0.950 . S
C563 C561 1.327 . S
C564 C552 1.349 . S
C564 H558 0.950 . S
C564 C565 1.327 . S
C565 H559 0.950 . S
C565 C564 1.327 . S
C565 C569 1.429 . S
C566 C549 1.574 . S
C566 H560 0.949 . S
C566 C570 1.368 . S
C567 C548 1.429 . S
C567 C561 1.429 . S
C567 C568 1.523 . S
C568 C549 1.368 . S
C568 C562 1.368 . S
C568 C567 1.523 . S
C569 C553 1.429 . S
C569 C565 1.429 . S
C569 C570 1.523 . S
C570 C554 1.368 . S
C570 C566 1.368 . S
C570 C569 1.523 . S
H571 C546 0.950 . S
H572 C548 0.950 . S
H573 C549 0.949 . S
H574 C551 0.950 . S
H575 C553 0.950 . S
C576 C577 1.349 . S
C576 C578 1.327 1_545 S
C576 H601 0.950 . S
C577 C576 1.349 . S
C577 C593 1.349 . S
C578 C576 1.327 1_565 S
C578 C597 1.429 . S
C578 H602 0.950 . S
C579 C596 1.574 . S
C579 C598 1.368 . S
C579 H603 0.949 . S
H580 C584 0.949 . S
C581 C582 1.349 . S
C581 C583 1.327 . S
C581 H604 0.950 . S
C582 C581 1.349 . S
C582 C594 1.349 . S
C583 C581 1.327 . S
C583 C599 1.429 . S
C583 H605 0.950 . S
C584 H580 0.949 . S
C584 C592 1.574 . S
C584 C600 1.368 . S
H585 C593 0.950 . S
H586 C591 0.950 . S
H587 C592 0.949 . S
H588 C594 0.950 . S
H589 C595 0.950 . S
H590 C596 0.949 . S
C591 H586 0.950 . S
C591 C593 1.327 . S
C591 C597 1.429 1_545 S
C592 C584 1.574 . S
C592 H587 0.949 . S
C592 C598 1.368 . S
C593 C577 1.349 . S
C593 H585 0.950 . S
C593 C591 1.327 . S
C594 C582 1.349 . S
C594 H588 0.950 . S
C594 C595 1.327 . S
C595 H589 0.950 . S
C595 C594 1.327 . S
C595 C599 1.429 . S
C596 C579 1.574 . S
C596 H590 0.949 . S
C596 C600 1.368 . S
C597 C578 1.429 . S
C597 C591 1.429 1_565 S
C597 C598 1.523 . S
C598 C579 1.368 . S
C598 C592 1.368 . S
C598 C597 1.523 . S
C599 C583 1.429 . S
C599 C595 1.429 . S
C599 C600 1.523 . S
C600 C584 1.368 . S
C600 C596 1.368 . S
C600 C599 1.523 . S
H601 C576 0.950 . S
H602 C578 0.950 . S
H603 C579 0.949 . S
H604 C581 0.950 . S
H605 C583 0.950 . S
C606 C607 1.349 . S
C606 C608 1.327 1_655 S
C606 H631 0.950 . S
C607 C606 1.349 . S
C607 C623 1.349 . S
C608 C606 1.327 1_455 S
C608 C627 1.429 . S
C608 H632 0.950 . S
C609 C626 1.574 . S
C609 C628 1.368 . S
C609 H633 0.949 . S
H610 C614 0.949 . S
C611 C612 1.349 . S
C611 C613 1.327 . S
C611 H634 0.950 . S
C612 C611 1.349 . S
C612 C624 1.349 . S
C613 C611 1.327 . S
C613 C629 1.429 1_545 S
C613 H635 0.950 . S
C614 H610 0.949 . S
C614 C622 1.574 . S
C614 C630 1.368 . S
H615 C623 0.950 . S
H616 C621 0.950 . S
H617 C622 0.949 . S
H618 C624 0.950 . S
H619 C625 0.950 . S
H620 C626 0.949 . S
C621 H616 0.950 . S
C621 C623 1.327 . S
C621 C627 1.429 1_655 S
C622 C614 1.574 . S
C622 H617 0.949 . S
C622 C628 1.368 . S
C623 C607 1.349 . S
C623 H615 0.950 . S
C623 C621 1.327 . S
C624 C612 1.349 . S
C624 H618 0.950 . S
C624 C625 1.327 1_545 S
C625 H619 0.950 . S
C625 C624 1.327 1_565 S
C625 C629 1.429 . S
C626 C609 1.574 . S
C626 H620 0.949 . S
C626 C630 1.368 . S
C627 C608 1.429 . S
C627 C621 1.429 1_455 S
C627 C628 1.523 . S
C628 C609 1.368 . S
C628 C622 1.368 . S
C628 C627 1.523 . S
C629 C613 1.429 1_565 S
C629 C625 1.429 . S
C629 C630 1.523 . S
C630 C614 1.368 . S
C630 C626 1.368 . S
C630 C629 1.523 . S
H631 C606 0.950 . S
H632 C608 0.950 . S
H633 C609 0.949 . S
H634 C611 0.950 . S
H635 C613 0.950 . S
C636 C637 1.349 . S
C636 C638 1.327 . S
C636 H661 0.950 . S
C637 C636 1.349 . S
C637 C653 1.349 . S
C638 C636 1.327 . S
C638 C657 1.429 . S
C638 H662 0.950 . S
C639 C656 1.574 . S
C639 C658 1.368 . S
C639 H663 0.949 . S
H640 C644 0.949 . S
C641 C642 1.349 . S
C641 C643 1.327 . S
C641 H664 0.950 . S
C642 C641 1.349 . S
C642 C654 1.349 . S
C643 C641 1.327 . S
C643 C659 1.429 1_655 S
C643 H665 0.950 . S
C644 H640 0.949 . S
C644 C652 1.574 . S
C644 C660 1.368 . S
H645 C653 0.950 . S
H646 C651 0.950 . S
H647 C652 0.949 . S
H648 C654 0.950 . S
H649 C655 0.950 . S
H650 C656 0.949 . S
C651 H646 0.950 . S
C651 C653 1.327 . S
C651 C657 1.429 . S
C652 C644 1.574 . S
C652 H647 0.949 . S
C652 C658 1.368 . S
C653 C637 1.349 . S
C653 H645 0.950 . S
C653 C651 1.327 . S
C654 C642 1.349 . S
C654 H648 0.950 . S
C654 C655 1.327 1_655 S
C655 H649 0.950 . S
C655 C654 1.327 1_455 S
C655 C659 1.429 . S
C656 C639 1.574 . S
C656 H650 0.949 . S
C656 C660 1.368 . S
C657 C638 1.429 . S
C657 C651 1.429 . S
C657 C658 1.523 . S
C658 C639 1.368 . S
C658 C652 1.368 . S
C658 C657 1.523 . S
C659 C643 1.429 1_455 S
C659 C655 1.429 . S
C659 C660 1.523 . S
C660 C644 1.368 . S
C660 C656 1.368 . S
C660 C659 1.523 . S
H661 C636 0.950 . S
H662 C638 0.950 . S
H663 C639 0.949 . S
H664 C641 0.950 . S
H665 C643 0.950 . S
C666 C667 1.349 . S
C666 C668 1.327 . S
C666 H691 0.950 . S
C667 C666 1.349 . S
C667 C683 1.349 . S
C668 C666 1.327 . S
C668 C687 1.429 . S
C668 H692 0.950 . S
C669 C686 1.574 . S
C669 C688 1.368 . S
C669 H693 0.949 . S
H670 C674 0.949 . S
C671 C672 1.349 . S
C671 C673 1.327 . S
C671 H694 0.950 . S
C672 C671 1.349 . S
C672 C684 1.349 . S
C673 C671 1.327 . S
C673 C689 1.429 . S
C673 H695 0.950 . S
C674 H670 0.949 . S
C674 C682 1.574 . S
C674 C690 1.368 . S
H675 C683 0.950 . S
H676 C681 0.950 . S
H677 C682 0.949 . S
H678 C684 0.950 . S
H679 C685 0.950 . S
H680 C686 0.949 . S
C681 H676 0.950 . S
C681 C683 1.327 . S
C681 C687 1.429 . S
C682 C674 1.574 . S
C682 H677 0.949 . S
C682 C688 1.368 . S
C683 C667 1.349 . S
C683 H675 0.950 . S
C683 C681 1.327 . S
C684 C672 1.349 . S
C684 H678 0.950 . S
C684 C685 1.327 . S
C685 H679 0.950 . S
C685 C684 1.327 . S
C685 C689 1.429 . S
C686 C669 1.574 . S
C686 H680 0.949 . S
C686 C690 1.368 . S
C687 C668 1.429 . S
C687 C681 1.429 . S
C687 C688 1.523 . S
C688 C669 1.368 . S
C688 C682 1.368 . S
C688 C687 1.523 . S
C689 C673 1.429 . S
C689 C685 1.429 . S
C689 C690 1.523 . S
C690 C674 1.368 . S
C690 C686 1.368 . S
C690 C689 1.523 . S
H691 C666 0.950 . S
H692 C668 0.950 . S
H693 C669 0.949 . S
H694 C671 0.950 . S
H695 C673 0.950 . S
C696 C697 1.349 . S
C696 C698 1.327 . S
C696 H721 0.950 . S
C697 C696 1.349 . S
C697 C713 1.349 . S
C698 C696 1.327 . S
C698 C717 1.429 . S
C698 H722 0.950 . S
C699 C716 1.574 . S
C699 C718 1.368 . S
C699 H723 0.949 . S
H700 C704 0.949 . S
C701 C702 1.349 . S
C701 C703 1.327 . S
C701 H724 0.950 . S
C702 C701 1.349 . S
C702 C714 1.349 . S
C703 C701 1.327 . S
C703 C719 1.429 . S
C703 H725 0.950 . S
C704 H700 0.949 . S
C704 C712 1.574 . S
C704 C720 1.368 . S
H705 C713 0.950 . S
H706 C711 0.950 . S
H707 C712 0.949 . S
H708 C714 0.950 . S
H709 C715 0.950 . S
H710 C716 0.949 . S
C711 H706 0.950 . S
C711 C713 1.327 . S
C711 C717 1.429 . S
C712 C704 1.574 . S
C712 H707 0.949 . S
C712 C718 1.368 . S
C713 C697 1.349 . S
C713 H705 0.950 . S
C713 C711 1.327 . S
C714 C702 1.349 . S
C714 H708 0.950 . S
C714 C715 1.327 . S
C715 H709 0.950 . S
C715 C714 1.327 . S
C715 C719 1.429 . S
C716 C699 1.574 . S
C716 H710 0.949 . S
C716 C720 1.368 . S
C717 C698 1.429 . S
C717 C711 1.429 . S
C717 C718 1.523 . S
C718 C699 1.368 . S
C718 C712 1.368 . S
C718 C717 1.523 . S
C719 C703 1.429 . S
C719 C715 1.429 . S
C719 C720 1.523 . S
C720 C704 1.368 . S
C720 C716 1.368 . S
C720 C719 1.523 . S
H721 C696 0.950 . S
H722 C698 0.950 . S
H723 C699 0.949 . S
H724 C701 0.950 . S
H725 C703 0.950 . S
C726 C727 1.349 . S
C726 C728 1.327 . S
C726 H751 0.950 . S
C727 C726 1.349 . S
C727 C743 1.349 . S
C728 C726 1.327 . S
C728 C747 1.429 . S
C728 H752 0.950 . S
C729 C746 1.574 . S
C729 C748 1.368 . S
C729 H753 0.949 . S
H730 C734 0.949 . S
C731 C732 1.349 . S
C731 C733 1.327 . S
C731 H754 0.950 . S
C732 C731 1.349 . S
C732 C744 1.349 . S
C733 C731 1.327 . S
C733 C749 1.429 . S
C733 H755 0.950 . S
C734 H730 0.949 . S
C734 C742 1.574 . S
C734 C750 1.368 . S
H735 C743 0.950 . S
H736 C741 0.950 . S
H737 C742 0.949 . S
H738 C744 0.950 . S
H739 C745 0.950 . S
H740 C746 0.949 . S
C741 H736 0.950 . S
C741 C743 1.327 . S
C741 C747 1.429 . S
C742 C734 1.574 . S
C742 H737 0.949 . S
C742 C748 1.368 . S
C743 C727 1.349 . S
C743 H735 0.950 . S
C743 C741 1.327 . S
C744 C732 1.349 . S
C744 H738 0.950 . S
C744 C745 1.327 . S
C745 H739 0.950 . S
C745 C744 1.327 . S
C745 C749 1.429 . S
C746 C729 1.574 . S
C746 H740 0.949 . S
C746 C750 1.368 . S
C747 C728 1.429 . S
C747 C741 1.429 . S
C747 C748 1.523 . S
C748 C729 1.368 . S
C748 C742 1.368 . S
C748 C747 1.523 . S
C749 C733 1.429 . S
C749 C745 1.429 . S
C749 C750 1.523 . S
C750 C734 1.368 . S
C750 C746 1.368 . S
C750 C749 1.523 . S
H751 C726 0.950 . S
H752 C728 0.950 . S
H753 C729 0.949 . S
H754 C731 0.950 . S
H755 C733 0.950 . S
C756 C757 1.349 . S
C756 C758 1.327 . S
C756 H781 0.950 . S
C757 C756 1.349 . S
C757 C773 1.349 . S
C758 C756 1.327 . S
C758 C777 1.429 . S
C758 H782 0.950 . S
C759 C776 1.574 . S
C759 C778 1.368 . S
C759 H783 0.949 . S
H760 C764 0.949 . S
C761 C762 1.349 . S
C761 C763 1.327 . S
C761 H784 0.950 . S
C762 C761 1.349 . S
C762 C774 1.349 . S
C763 C761 1.327 . S
C763 C779 1.429 . S
C763 H785 0.950 . S
C764 H760 0.949 . S
C764 C772 1.574 . S
C764 C780 1.368 . S
H765 C773 0.950 . S
H766 C771 0.950 . S
H767 C772 0.949 . S
H768 C774 0.950 . S
H769 C775 0.950 . S
H770 C776 0.949 . S
C771 H766 0.950 . S
C771 C773 1.327 . S
C771 C777 1.429 . S
C772 C764 1.574 . S
C772 H767 0.949 . S
C772 C778 1.368 . S
C773 C757 1.349 . S
C773 H765 0.950 . S
C773 C771 1.327 . S
C774 C762 1.349 . S
C774 H768 0.950 . S
C774 C775 1.327 . S
C775 H769 0.950 . S
C775 C774 1.327 . S
C775 C779 1.429 . S
C776 C759 1.574 . S
C776 H770 0.949 . S
C776 C780 1.368 . S
C777 C758 1.429 . S
C777 C771 1.429 . S
C777 C778 1.523 . S
C778 C759 1.368 . S
C778 C772 1.368 . S
C778 C777 1.523 . S
C779 C763 1.429 . S
C779 C775 1.429 . S
C779 C780 1.523 . S
C780 C764 1.368 . S
C780 C776 1.368 . S
C780 C779 1.523 . S
H781 C756 0.950 . S
H782 C758 0.950 . S
H783 C759 0.949 . S
H784 C761 0.950 . S
H785 C763 0.950 . S
C786 C787 1.349 . S
C786 C788 1.327 . S
C786 H811 0.950 . S
C787 C786 1.349 . S
C787 C803 1.349 . S
C788 C786 1.327 . S
C788 C807 1.429 . S
C788 H812 0.950 . S
C789 C806 1.574 . S
C789 C808 1.368 . S
C789 H813 0.949 . S
H790 C794 0.949 . S
C791 C792 1.349 . S
C791 C793 1.327 . S
C791 H814 0.950 . S
C792 C791 1.349 . S
C792 C804 1.349 . S
C793 C791 1.327 . S
C793 C809 1.429 . S
C793 H815 0.950 . S
C794 H790 0.949 . S
C794 C802 1.574 . S
C794 C810 1.368 . S
H795 C803 0.950 . S
H796 C801 0.950 . S
H797 C802 0.949 . S
H798 C804 0.950 . S
H799 C805 0.950 . S
H800 C806 0.949 . S
C801 H796 0.950 . S
C801 C803 1.327 . S
C801 C807 1.429 . S
C802 C794 1.574 . S
C802 H797 0.949 . S
C802 C808 1.368 . S
C803 C787 1.349 . S
C803 H795 0.950 . S
C803 C801 1.327 . S
C804 C792 1.349 . S
C804 H798 0.950 . S
C804 C805 1.327 . S
C805 H799 0.950 . S
C805 C804 1.327 . S
C805 C809 1.429 . S
C806 C789 1.574 . S
C806 H800 0.949 . S
C806 C810 1.368 . S
C807 C788 1.429 . S
C807 C801 1.429 . S
C807 C808 1.523 . S
C808 C789 1.368 . S
C808 C802 1.368 . S
C808 C807 1.523 . S
C809 C793 1.429 . S
C809 C805 1.429 . S
C809 C810 1.523 . S
C810 C794 1.368 . S
C810 C806 1.368 . S
C810 C809 1.523 . S
H811 C786 0.950 . S
H812 C788 0.950 . S
H813 C789 0.949 . S
H814 C791 0.950 . S
H815 C793 0.950 . S
C816 C817 1.349 . S
C816 C818 1.327 . S
C816 H841 0.950 . S
C817 C816 1.349 . S
C817 C833 1.349 . S
C818 C816 1.327 . S
C818 C837 1.429 . S
C818 H842 0.950 . S
C819 C836 1.574 . S
C819 C838 1.368 . S
C819 H843 0.949 . S
H820 C824 0.949 . S
C821 C822 1.349 . S
C821 C823 1.327 . S
C821 H844 0.950 . S
C822 C821 1.349 . S
C822 C834 1.349 . S
C823 C821 1.327 . S
C823 C839 1.429 . S
C823 H845 0.950 . S
C824 H820 0.949 . S
C824 C832 1.574 . S
C824 C840 1.368 . S
H825 C833 0.950 . S
H826 C831 0.950 . S
H827 C832 0.949 . S
H828 C834 0.950 . S
H829 C835 0.950 . S
H830 C836 0.949 . S
C831 H826 0.950 . S
C831 C833 1.327 . S
C831 C837 1.429 . S
C832 C824 1.574 . S
C832 H827 0.949 . S
C832 C838 1.368 . S
C833 C817 1.349 . S
C833 H825 0.950 . S
C833 C831 1.327 . S
C834 C822 1.349 . S
C834 H828 0.950 . S
C834 C835 1.327 . S
C835 H829 0.950 . S
C835 C834 1.327 . S
C835 C839 1.429 . S
C836 C819 1.574 . S
C836 H830 0.949 . S
C836 C840 1.368 . S
C837 C818 1.429 . S
C837 C831 1.429 . S
C837 C838 1.523 . S
C838 C819 1.368 . S
C838 C832 1.368 . S
C838 C837 1.523 . S
C839 C823 1.429 . S
C839 C835 1.429 . S
C839 C840 1.523 . S
C840 C824 1.368 . S
C840 C836 1.368 . S
C840 C839 1.523 . S
H841 C816 0.950 . S
H842 C818 0.950 . S
H843 C819 0.949 . S
H844 C821 0.950 . S
H845 C823 0.950 . S
C846 C847 1.349 . S
C846 C848 1.327 . S
C846 H871 0.950 . S
C847 C846 1.349 . S
C847 C863 1.349 . S
C848 C846 1.327 . S
C848 C867 1.429 1_455 S
C848 H872 0.950 . S
C849 C866 1.574 . S
C849 C868 1.368 . S
C849 H873 0.949 . S
H850 C854 0.949 . S
C851 C852 1.349 . S
C851 C853 1.327 . S
C851 H874 0.950 . S
C852 C851 1.349 . S
C852 C864 1.349 . S
C853 C851 1.327 . S
C853 C869 1.429 . S
C853 H875 0.950 . S
C854 H850 0.949 . S
C854 C862 1.574 . S
C854 C870 1.368 . S
H855 C863 0.950 . S
H856 C861 0.950 . S
H857 C862 0.949 . S
H858 C864 0.950 . S
H859 C865 0.950 . S
H860 C866 0.949 . S
C861 H856 0.950 . S
C861 C863 1.327 1_655 S
C861 C867 1.429 . S
C862 C854 1.574 . S
C862 H857 0.949 . S
C862 C868 1.368 . S
C863 C847 1.349 . S
C863 H855 0.950 . S
C863 C861 1.327 1_455 S
C864 C852 1.349 . S
C864 H858 0.950 . S
C864 C865 1.327 . S
C865 H859 0.950 . S
C865 C864 1.327 . S
C865 C869 1.429 . S
C866 C849 1.574 . S
C866 H860 0.949 . S
C866 C870 1.368 . S
C867 C848 1.429 1_655 S
C867 C861 1.429 . S
C867 C868 1.523 . S
C868 C849 1.368 . S
C868 C862 1.368 . S
C868 C867 1.523 . S
C869 C853 1.429 . S
C869 C865 1.429 . S
C869 C870 1.523 . S
C870 C854 1.368 . S
C870 C866 1.368 . S
C870 C869 1.523 . S
H871 C846 0.950 . S
H872 C848 0.950 . S
H873 C849 0.949 . S
H874 C851 0.950 . S
H875 C853 0.950 . S
C876 C877 1.349 . S
C876 C878 1.327 . S
C876 H901 0.950 . S
C877 C876 1.349 . S
C877 C893 1.349 . S
C878 C876 1.327 . S
C878 C897 1.429 . S
C878 H902 0.950 . S
C879 C896 1.574 . S
C879 C898 1.368 . S
C879 H903 0.949 . S
H880 C884 0.949 . S
C881 C882 1.349 . S
C881 C883 1.327 1_565 S
C881 H904 0.950 . S
C882 C881 1.349 . S
C882 C894 1.349 . S
C883 C881 1.327 1_545 S
C883 C899 1.429 . S
C883 H905 0.950 . S
C884 H880 0.949 . S
C884 C892 1.574 . S
C884 C900 1.368 . S
H885 C893 0.950 . S
H886 C891 0.950 . S
H887 C892 0.949 . S
H888 C894 0.950 . S
H889 C895 0.950 . S
H890 C896 0.949 . S
C891 H886 0.950 . S
C891 C893 1.327 . S
C891 C897 1.429 . S
C892 C884 1.574 . S
C892 H887 0.949 . S
C892 C898 1.368 . S
C893 C877 1.349 . S
C893 H885 0.950 . S
C893 C891 1.327 . S
C894 C882 1.349 . S
C894 H888 0.950 . S
C894 C895 1.327 . S
C895 H889 0.950 . S
C895 C894 1.327 . S
C895 C899 1.429 1_565 S
C896 C879 1.574 . S
C896 H890 0.949 . S
C896 C900 1.368 . S
C897 C878 1.429 . S
C897 C891 1.429 . S
C897 C898 1.523 . S
C898 C879 1.368 . S
C898 C892 1.368 . S
C898 C897 1.523 . S
C899 C883 1.429 . S
C899 C895 1.429 1_545 S
C899 C900 1.523 . S
C900 C884 1.368 . S
C900 C896 1.368 . S
C900 C899 1.523 . S
H901 C876 0.950 . S
H902 C878 0.950 . S
H903 C879 0.949 . S
H904 C881 0.950 . S
H905 C883 0.950 . S
C906 C907 1.349 . S
C906 C908 1.327 . S
C906 H931 0.950 . S
C907 C906 1.349 . S
C907 C923 1.349 . S
C908 C906 1.327 . S
C908 C927 1.429 1_455 S
C908 H932 0.950 . S
C909 C926 1.574 . S
C909 C928 1.368 . S
C909 H933 0.949 . S
H910 C914 0.949 . S
C911 C912 1.349 . S
C911 C913 1.327 1_565 S
C911 H934 0.950 . S
C912 C911 1.349 . S
C912 C924 1.349 . S
C913 C911 1.327 1_545 S
C913 C929 1.429 . S
C913 H935 0.950 . S
C914 H910 0.949 . S
C914 C922 1.574 . S
C914 C930 1.368 . S
H915 C923 0.950 . S
H916 C921 0.950 . S
H917 C922 0.949 . S
H918 C924 0.950 . S
H919 C925 0.950 . S
H920 C926 0.949 . S
C921 H916 0.950 . S
C921 C923 1.327 1_655 S
C921 C927 1.429 . S
C922 C914 1.574 . S
C922 H917 0.949 . S
C922 C928 1.368 . S
C923 C907 1.349 . S
C923 H915 0.950 . S
C923 C921 1.327 1_455 S
C924 C912 1.349 . S
C924 H918 0.950 . S
C924 C925 1.327 . S
C925 H919 0.950 . S
C925 C924 1.327 . S
C925 C929 1.429 1_565 S
C926 C909 1.574 . S
C926 H920 0.949 . S
C926 C930 1.368 . S
C927 C908 1.429 1_655 S
C927 C921 1.429 . S
C927 C928 1.523 . S
C928 C909 1.368 . S
C928 C922 1.368 . S
C928 C927 1.523 . S
C929 C913 1.429 . S
C929 C925 1.429 1_545 S
C929 C930 1.523 . S
C930 C914 1.368 . S
C930 C926 1.368 . S
C930 C929 1.523 . S
H931 C906 0.950 . S
H932 C908 0.950 . S
H933 C909 0.949 . S
H934 C911 0.950 . S
H935 C913 0.950 . S
C936 C937 1.349 . S
C936 C938 1.327 . S
C936 H961 0.950 . S
C937 C936 1.349 . S
C937 C953 1.349 . S
C938 C936 1.327 . S
C938 C957 1.429 . S
C938 H962 0.950 . S
C939 C956 1.574 . S
C939 C958 1.368 . S
C939 H963 0.949 . S
H940 C944 0.949 . S
C941 C942 1.349 . S
C941 C943 1.327 . S
C941 H964 0.950 . S
C942 C941 1.349 . S
C942 C954 1.349 . S
C943 C941 1.327 . S
C943 C959 1.429 . S
C943 H965 0.950 . S
C944 H940 0.949 . S
C944 C952 1.574 . S
C944 C960 1.368 . S
H945 C953 0.950 . S
H946 C951 0.950 . S
H947 C952 0.949 . S
H948 C954 0.950 . S
H949 C955 0.950 . S
H950 C956 0.949 . S
C951 H946 0.950 . S
C951 C953 1.327 . S
C951 C957 1.429 . S
C952 C944 1.574 . S
C952 H947 0.949 . S
C952 C958 1.368 . S
C953 C937 1.349 . S
C953 H945 0.950 . S
C953 C951 1.327 . S
C954 C942 1.349 . S
C954 H948 0.950 . S
C954 C955 1.327 . S
C955 H949 0.950 . S
C955 C954 1.327 . S
C955 C959 1.429 . S
C956 C939 1.574 . S
C956 H950 0.949 . S
C956 C960 1.368 . S
C957 C938 1.429 . S
C957 C951 1.429 . S
C957 C958 1.523 . S
C958 C939 1.368 . S
C958 C952 1.368 . S
C958 C957 1.523 . S
C959 C943 1.429 . S
C959 C955 1.429 . S
C959 C960 1.523 . S
C960 C944 1.368 . S
C960 C956 1.368 . S
C960 C959 1.523 . S
H961 C936 0.950 . S
H962 C938 0.950 . S
H963 C939 0.949 . S
H964 C941 0.950 . S
H965 C943 0.950 . S
C966 C967 1.349 . S
C966 C968 1.327 . S
C966 H991 0.950 . S
C967 C966 1.349 . S
C967 C983 1.349 . S
C968 C966 1.327 . S
C968 C987 1.429 . S
C968 H992 0.950 . S
C969 C986 1.574 . S
C969 C988 1.368 . S
C969 H993 0.949 . S
H970 C974 0.949 . S
C971 C972 1.349 . S
C971 C973 1.327 . S
C971 H994 0.950 . S
C972 C971 1.349 . S
C972 C984 1.349 . S
C973 C971 1.327 . S
C973 C989 1.429 . S
C973 H995 0.950 . S
C974 H970 0.949 . S
C974 C982 1.574 . S
C974 C990 1.368 . S
H975 C983 0.950 . S
H976 C981 0.950 . S
H977 C982 0.949 . S
H978 C984 0.950 . S
H979 C985 0.950 . S
H980 C986 0.949 . S
C981 H976 0.950 . S
C981 C983 1.327 . S
C981 C987 1.429 . S
C982 C974 1.574 . S
C982 H977 0.949 . S
C982 C988 1.368 . S
C983 C967 1.349 . S
C983 H975 0.950 . S
C983 C981 1.327 . S
C984 C972 1.349 . S
C984 H978 0.950 . S
C984 C985 1.327 . S
C985 H979 0.950 . S
C985 C984 1.327 . S
C985 C989 1.429 . S
C986 C969 1.574 . S
C986 H980 0.949 . S
C986 C990 1.368 . S
C987 C968 1.429 . S
C987 C981 1.429 . S
C987 C988 1.523 . S
C988 C969 1.368 . S
C988 C982 1.368 . S
C988 C987 1.523 . S
C989 C973 1.429 . S
C989 C985 1.429 . S
C989 C990 1.523 . S
C990 C974 1.368 . S
C990 C986 1.368 . S
C990 C989 1.523 . S
H991 C966 0.950 . S
H992 C968 0.950 . S
H993 C969 0.949 . S
H994 C971 0.950 . S
H995 C973 0.950 . S
C996 C997 1.349 . S
C996 C998 1.327 . S
C996 H1021 0.950 . S
C997 C996 1.349 . S
C997 C1013 1.349 . S
C998 C996 1.327 . S
C998 C1017 1.429 . S
C998 H1022 0.950 . S
C999 C1016 1.574 . S
C999 C1018 1.368 . S
C999 H1023 0.949 . S
H1000 C1004 0.949 . S
C1001 C1002 1.349 . S
C1001 C1003 1.327 . S
C1001 H1024 0.950 . S
C1002 C1001 1.349 . S
C1002 C1014 1.349 . S
C1003 C1001 1.327 . S
C1003 C1019 1.429 . S
C1003 H1025 0.950 . S
C1004 H1000 0.949 . S
C1004 C1012 1.574 . S
C1004 C1020 1.368 . S
H1005 C1013 0.950 . S
H1006 C1011 0.950 . S
H1007 C1012 0.949 . S
H1008 C1014 0.950 . S
H1009 C1015 0.950 . S
H1010 C1016 0.949 . S
C1011 H1006 0.950 . S
C1011 C1013 1.327 . S
C1011 C1017 1.429 . S
C1012 C1004 1.574 . S
C1012 H1007 0.949 . S
C1012 C1018 1.368 . S
C1013 C997 1.349 . S
C1013 H1005 0.950 . S
C1013 C1011 1.327 . S
C1014 C1002 1.349 . S
C1014 H1008 0.950 . S
C1014 C1015 1.327 . S
C1015 H1009 0.950 . S
C1015 C1014 1.327 . S
C1015 C1019 1.429 . S
C1016 C999 1.574 . S
C1016 H1010 0.949 . S
C1016 C1020 1.368 . S
C1017 C998 1.429 . S
C1017 C1011 1.429 . S
C1017 C1018 1.523 . S
C1018 C999 1.368 . S
C1018 C1012 1.368 . S
C1018 C1017 1.523 . S
C1019 C1003 1.429 . S
C1019 C1015 1.429 . S
C1019 C1020 1.523 . S
C1020 C1004 1.368 . S
C1020 C1016 1.368 . S
C1020 C1019 1.523 . S
H1021 C996 0.950 . S
H1022 C998 0.950 . S
H1023 C999 0.949 . S
H1024 C1001 0.950 . S
H1025 C1003 0.950 . S
C1026 C1027 1.349 . S
C1026 C1028 1.327 . S
C1026 H1051 0.950 . S
C1027 C1026 1.349 . S
C1027 C1043 1.349 . S
C1028 C1026 1.327 . S
C1028 C1047 1.429 . S
C1028 H1052 0.950 . S
C1029 C1046 1.574 . S
C1029 C1048 1.368 . S
C1029 H1053 0.949 . S
H1030 C1034 0.949 . S
C1031 C1032 1.349 . S
C1031 C1033 1.327 . S
C1031 H1054 0.950 . S
C1032 C1031 1.349 . S
C1032 C1044 1.349 . S
C1033 C1031 1.327 . S
C1033 C1049 1.429 . S
C1033 H1055 0.950 . S
C1034 H1030 0.949 . S
C1034 C1042 1.574 . S
C1034 C1050 1.368 . S
H1035 C1043 0.950 . S
H1036 C1041 0.950 . S
H1037 C1042 0.949 . S
H1038 C1044 0.950 . S
H1039 C1045 0.950 . S
H1040 C1046 0.949 . S
C1041 H1036 0.950 . S
C1041 C1043 1.327 . S
C1041 C1047 1.429 . S
C1042 C1034 1.574 . S
C1042 H1037 0.949 . S
C1042 C1048 1.368 . S
C1043 C1027 1.349 . S
C1043 H1035 0.950 . S
C1043 C1041 1.327 . S
C1044 C1032 1.349 . S
C1044 H1038 0.950 . S
C1044 C1045 1.327 . S
C1045 H1039 0.950 . S
C1045 C1044 1.327 . S
C1045 C1049 1.429 . S
C1046 C1029 1.574 . S
C1046 H1040 0.949 . S
C1046 C1050 1.368 . S
C1047 C1028 1.429 . S
C1047 C1041 1.429 . S
C1047 C1048 1.523 . S
C1048 C1029 1.368 . S
C1048 C1042 1.368 . S
C1048 C1047 1.523 . S
C1049 C1033 1.429 . S
C1049 C1045 1.429 . S
C1049 C1050 1.523 . S
C1050 C1034 1.368 . S
C1050 C1046 1.368 . S
C1050 C1049 1.523 . S
H1051 C1026 0.950 . S
H1052 C1028 0.950 . S
H1053 C1029 0.949 . S
H1054 C1031 0.950 . S
H1055 C1033 0.950 . S
C1056 C1057 1.349 . S
C1056 C1058 1.327 . S
C1056 H1081 0.950 . S
C1057 C1056 1.349 . S
C1057 C1073 1.349 . S
C1058 C1056 1.327 . S
C1058 C1077 1.429 . S
C1058 H1082 0.950 . S
C1059 C1076 1.574 . S
C1059 C1078 1.368 . S
C1059 H1083 0.949 . S
H1060 C1064 0.949 . S
C1061 C1062 1.349 . S
C1061 C1063 1.327 . S
C1061 H1084 0.950 . S
C1062 C1061 1.349 . S
C1062 C1074 1.349 . S
C1063 C1061 1.327 . S
C1063 C1079 1.429 . S
C1063 H1085 0.950 . S
C1064 H1060 0.949 . S
C1064 C1072 1.574 . S
C1064 C1080 1.368 . S
H1065 C1073 0.950 . S
H1066 C1071 0.950 . S
H1067 C1072 0.949 . S
H1068 C1074 0.950 . S
H1069 C1075 0.950 . S
H1070 C1076 0.949 . S
C1071 H1066 0.950 . S
C1071 C1073 1.327 . S
C1071 C1077 1.429 . S
C1072 C1064 1.574 . S
C1072 H1067 0.949 . S
C1072 C1078 1.368 . S
C1073 C1057 1.349 . S
C1073 H1065 0.950 . S
C1073 C1071 1.327 . S
C1074 C1062 1.349 . S
C1074 H1068 0.950 . S
C1074 C1075 1.327 . S
C1075 H1069 0.950 . S
C1075 C1074 1.327 . S
C1075 C1079 1.429 . S
C1076 C1059 1.574 . S
C1076 H1070 0.949 . S
C1076 C1080 1.368 . S
C1077 C1058 1.429 . S
C1077 C1071 1.429 . S
C1077 C1078 1.523 . S
C1078 C1059 1.368 . S
C1078 C1072 1.368 . S
C1078 C1077 1.523 . S
C1079 C1063 1.429 . S
C1079 C1075 1.429 . S
C1079 C1080 1.523 . S
C1080 C1064 1.368 . S
C1080 C1076 1.368 . S
C1080 C1079 1.523 . S
H1081 C1056 0.950 . S
H1082 C1058 0.950 . S
H1083 C1059 0.949 . S
H1084 C1061 0.950 . S
H1085 C1063 0.950 . S
C1086 C1087 1.349 . S
C1086 C1088 1.327 . S
C1086 H1111 0.950 . S
C1087 C1086 1.349 . S
C1087 C1103 1.349 . S
C1088 C1086 1.327 . S
C1088 C1107 1.429 . S
C1088 H1112 0.950 . S
C1089 C1106 1.574 . S
C1089 C1108 1.368 . S
C1089 H1113 0.949 . S
H1090 C1094 0.949 . S
C1091 C1092 1.349 . S
C1091 C1093 1.327 . S
C1091 H1114 0.950 . S
C1092 C1091 1.349 . S
C1092 C1104 1.349 . S
C1093 C1091 1.327 . S
C1093 C1109 1.429 . S
C1093 H1115 0.950 . S
C1094 H1090 0.949 . S
C1094 C1102 1.574 . S
C1094 C1110 1.368 . S
H1095 C1103 0.950 . S
H1096 C1101 0.950 . S
H1097 C1102 0.949 . S
H1098 C1104 0.950 . S
H1099 C1105 0.950 . S
H1100 C1106 0.949 . S
C1101 H1096 0.950 . S
C1101 C1103 1.327 . S
C1101 C1107 1.429 . S
C1102 C1094 1.574 . S
C1102 H1097 0.949 . S
C1102 C1108 1.368 . S
C1103 C1087 1.349 . S
C1103 H1095 0.950 . S
C1103 C1101 1.327 . S
C1104 C1092 1.349 . S
C1104 H1098 0.950 . S
C1104 C1105 1.327 . S
C1105 H1099 0.950 . S
C1105 C1104 1.327 . S
C1105 C1109 1.429 . S
C1106 C1089 1.574 . S
C1106 H1100 0.949 . S
C1106 C1110 1.368 . S
C1107 C1088 1.429 . S
C1107 C1101 1.429 . S
C1107 C1108 1.523 . S
C1108 C1089 1.368 . S
C1108 C1102 1.368 . S
C1108 C1107 1.523 . S
C1109 C1093 1.429 . S
C1109 C1105 1.429 . S
C1109 C1110 1.523 . S
C1110 C1094 1.368 . S
C1110 C1106 1.368 . S
C1110 C1109 1.523 . S
H1111 C1086 0.950 . S
H1112 C1088 0.950 . S
H1113 C1089 0.949 . S
H1114 C1091 0.950 . S
H1115 C1093 0.950 . S
C1116 C1117 1.349 . S
C1116 C1118 1.327 . S
C1116 H1141 0.950 . S
C1117 C1116 1.349 . S
C1117 C1133 1.349 . S
C1118 C1116 1.327 . S
C1118 C1137 1.429 . S
C1118 H1142 0.950 . S
C1119 C1136 1.574 . S
C1119 C1138 1.368 . S
C1119 H1143 0.949 . S
H1120 C1124 0.949 . S
C1121 C1122 1.349 . S
C1121 C1123 1.327 . S
C1121 H1144 0.950 . S
C1122 C1121 1.349 . S
C1122 C1134 1.349 . S
C1123 C1121 1.327 . S
C1123 C1139 1.429 . S
C1123 H1145 0.950 . S
C1124 H1120 0.949 . S
C1124 C1132 1.574 . S
C1124 C1140 1.368 . S
H1125 C1133 0.950 . S
H1126 C1131 0.950 . S
H1127 C1132 0.949 . S
H1128 C1134 0.950 . S
H1129 C1135 0.950 . S
H1130 C1136 0.949 . S
C1131 H1126 0.950 . S
C1131 C1133 1.327 . S
C1131 C1137 1.429 . S
C1132 C1124 1.574 . S
C1132 H1127 0.949 . S
C1132 C1138 1.368 . S
C1133 C1117 1.349 . S
C1133 H1125 0.950 . S
C1133 C1131 1.327 . S
C1134 C1122 1.349 . S
C1134 H1128 0.950 . S
C1134 C1135 1.327 . S
C1135 H1129 0.950 . S
C1135 C1134 1.327 . S
C1135 C1139 1.429 . S
C1136 C1119 1.574 . S
C1136 H1130 0.949 . S
C1136 C1140 1.368 . S
C1137 C1118 1.429 . S
C1137 C1131 1.429 . S
C1137 C1138 1.523 . S
C1138 C1119 1.368 . S
C1138 C1132 1.368 . S
C1138 C1137 1.523 . S
C1139 C1123 1.429 . S
C1139 C1135 1.429 . S
C1139 C1140 1.523 . S
C1140 C1124 1.368 . S
C1140 C1136 1.368 . S
C1140 C1139 1.523 . S
H1141 C1116 0.950 . S
H1142 C1118 0.950 . S
H1143 C1119 0.949 . S
H1144 C1121 0.950 . S
H1145 C1123 0.950 . S
C1146 C1147 1.349 . S
C1146 C1148 1.327 . S
C1146 H1171 0.950 . S
C1147 C1146 1.349 . S
C1147 C1163 1.349 . S
C1148 C1146 1.327 . S
C1148 C1167 1.429 . S
C1148 H1172 0.950 . S
C1149 C1166 1.574 . S
C1149 C1168 1.368 . S
C1149 H1173 0.949 . S
H1150 C1154 0.949 . S
C1151 C1152 1.349 . S
C1151 C1153 1.327 . S
C1151 H1174 0.950 . S
C1152 C1151 1.349 . S
C1152 C1164 1.349 . S
C1153 C1151 1.327 . S
C1153 C1169 1.429 . S
C1153 H1175 0.950 . S
C1154 H1150 0.949 . S
C1154 C1162 1.574 . S
C1154 C1170 1.368 . S
H1155 C1163 0.950 . S
H1156 C1161 0.950 . S
H1157 C1162 0.949 . S
H1158 C1164 0.950 . S
H1159 C1165 0.950 . S
H1160 C1166 0.949 . S
C1161 H1156 0.950 . S
C1161 C1163 1.327 . S
C1161 C1167 1.429 . S
C1162 C1154 1.574 . S
C1162 H1157 0.949 . S
C1162 C1168 1.368 . S
C1163 C1147 1.349 . S
C1163 H1155 0.950 . S
C1163 C1161 1.327 . S
C1164 C1152 1.349 . S
C1164 H1158 0.950 . S
C1164 C1165 1.327 . S
C1165 H1159 0.950 . S
C1165 C1164 1.327 . S
C1165 C1169 1.429 . S
C1166 C1149 1.574 . S
C1166 H1160 0.949 . S
C1166 C1170 1.368 . S
C1167 C1148 1.429 . S
C1167 C1161 1.429 . S
C1167 C1168 1.523 . S
C1168 C1149 1.368 . S
C1168 C1162 1.368 . S
C1168 C1167 1.523 . S
C1169 C1153 1.429 . S
C1169 C1165 1.429 . S
C1169 C1170 1.523 . S
C1170 C1154 1.368 . S
C1170 C1166 1.368 . S
C1170 C1169 1.523 . S
H1171 C1146 0.950 . S
H1172 C1148 0.950 . S
H1173 C1149 0.949 . S
H1174 C1151 0.950 . S
H1175 C1153 0.950 . S
C1176 C1177 1.349 . S
C1176 C1178 1.327 . S
C1176 H1201 0.950 . S
C1177 C1176 1.349 . S
C1177 C1193 1.349 . S
C1178 C1176 1.327 . S
C1178 C1197 1.429 . S
C1178 H1202 0.950 . S
C1179 C1196 1.574 . S
C1179 C1198 1.368 . S
C1179 H1203 0.949 . S
H1180 C1184 0.949 . S
C1181 C1182 1.349 . S
C1181 C1183 1.327 . S
C1181 H1204 0.950 . S
C1182 C1181 1.349 . S
C1182 C1194 1.349 . S
C1183 C1181 1.327 . S
C1183 C1199 1.429 . S
C1183 H1205 0.950 . S
C1184 H1180 0.949 . S
C1184 C1192 1.574 . S
C1184 C1200 1.368 . S
H1185 C1193 0.950 . S
H1186 C1191 0.950 . S
H1187 C1192 0.949 . S
H1188 C1194 0.950 . S
H1189 C1195 0.950 . S
H1190 C1196 0.949 . S
C1191 H1186 0.950 . S
C1191 C1193 1.327 . S
C1191 C1197 1.429 . S
C1192 C1184 1.574 . S
C1192 H1187 0.949 . S
C1192 C1198 1.368 . S
C1193 C1177 1.349 . S
C1193 H1185 0.950 . S
C1193 C1191 1.327 . S
C1194 C1182 1.349 . S
C1194 H1188 0.950 . S
C1194 C1195 1.327 . S
C1195 H1189 0.950 . S
C1195 C1194 1.327 . S
C1195 C1199 1.429 . S
C1196 C1179 1.574 . S
C1196 H1190 0.949 . S
C1196 C1200 1.368 . S
C1197 C1178 1.429 . S
C1197 C1191 1.429 . S
C1197 C1198 1.523 . S
C1198 C1179 1.368 . S
C1198 C1192 1.368 . S
C1198 C1197 1.523 . S
C1199 C1183 1.429 . S
C1199 C1195 1.429 . S
C1199 C1200 1.523 . S
C1200 C1184 1.368 . S
C1200 C1196 1.368 . S
C1200 C1199 1.523 . S
H1201 C1176 0.950 . S
H1202 C1178 0.950 . S
H1203 C1179 0.949 . S
H1204 C1181 0.950 . S
H1205 C1183 0.950 . S
C1206 C1207 1.349 . S
C1206 C1208 1.327 . S
C1206 H1231 0.950 . S
C1207 C1206 1.349 . S
C1207 C1223 1.349 . S
C1208 C1206 1.327 . S
C1208 C1227 1.429 . S
C1208 H1232 0.950 . S
C1209 C1226 1.574 . S
C1209 C1228 1.368 . S
C1209 H1233 0.949 . S
H1210 C1214 0.949 . S
C1211 C1212 1.349 . S
C1211 C1213 1.327 . S
C1211 H1234 0.950 . S
C1212 C1211 1.349 . S
C1212 C1224 1.349 . S
C1213 C1211 1.327 . S
C1213 C1229 1.429 . S
C1213 H1235 0.950 . S
C1214 H1210 0.949 . S
C1214 C1222 1.574 . S
C1214 C1230 1.368 . S
H1215 C1223 0.950 . S
H1216 C1221 0.950 . S
H1217 C1222 0.949 . S
H1218 C1224 0.950 . S
H1219 C1225 0.950 . S
H1220 C1226 0.949 . S
C1221 H1216 0.950 . S
C1221 C1223 1.327 . S
C1221 C1227 1.429 . S
C1222 C1214 1.574 . S
C1222 H1217 0.949 . S
C1222 C1228 1.368 . S
C1223 C1207 1.349 . S
C1223 H1215 0.950 . S
C1223 C1221 1.327 . S
C1224 C1212 1.349 . S
C1224 H1218 0.950 . S
C1224 C1225 1.327 . S
C1225 H1219 0.950 . S
C1225 C1224 1.327 . S
C1225 C1229 1.429 . S
C1226 C1209 1.574 . S
C1226 H1220 0.949 . S
C1226 C1230 1.368 . S
C1227 C1208 1.429 . S
C1227 C1221 1.429 . S
C1227 C1228 1.523 . S
C1228 C1209 1.368 . S
C1228 C1222 1.368 . S
C1228 C1227 1.523 . S
C1229 C1213 1.429 . S
C1229 C1225 1.429 . S
C1229 C1230 1.523 . S
C1230 C1214 1.368 . S
C1230 C1226 1.368 . S
C1230 C1229 1.523 . S
H1231 C1206 0.950 . S
H1232 C1208 0.950 . S
H1233 C1209 0.949 . S
H1234 C1211 0.950 . S
H1235 C1213 0.950 . S
C1236 C1237 1.349 . S
C1236 C1238 1.327 . S
C1236 H1261 0.950 . S
C1237 C1236 1.349 . S
C1237 C1253 1.349 . S
C1238 C1236 1.327 . S
C1238 C1257 1.429 . S
C1238 H1262 0.950 . S
C1239 C1256 1.574 . S
C1239 C1258 1.368 . S
C1239 H1263 0.949 . S
H1240 C1244 0.949 . S
C1241 C1242 1.349 . S
C1241 C1243 1.327 . S
C1241 H1264 0.950 . S
C1242 C1241 1.349 . S
C1242 C1254 1.349 . S
C1243 C1241 1.327 . S
C1243 C1259 1.429 . S
C1243 H1265 0.950 . S
C1244 H1240 0.949 . S
C1244 C1252 1.574 . S
C1244 C1260 1.368 . S
H1245 C1253 0.950 . S
H1246 C1251 0.950 . S
H1247 C1252 0.949 . S
H1248 C1254 0.950 . S
H1249 C1255 0.950 . S
H1250 C1256 0.949 . S
C1251 H1246 0.950 . S
C1251 C1253 1.327 . S
C1251 C1257 1.429 . S
C1252 C1244 1.574 . S
C1252 H1247 0.949 . S
C1252 C1258 1.368 . S
C1253 C1237 1.349 . S
C1253 H1245 0.950 . S
C1253 C1251 1.327 . S
C1254 C1242 1.349 . S
C1254 H1248 0.950 . S
C1254 C1255 1.327 . S
C1255 H1249 0.950 . S
C1255 C1254 1.327 . S
C1255 C1259 1.429 . S
C1256 C1239 1.574 . S
C1256 H1250 0.949 . S
C1256 C1260 1.368 . S
C1257 C1238 1.429 . S
C1257 C1251 1.429 . S
C1257 C1258 1.523 . S
C1258 C1239 1.368 . S
C1258 C1252 1.368 . S
C1258 C1257 1.523 . S
C1259 C1243 1.429 . S
C1259 C1255 1.429 . S
C1259 C1260 1.523 . S
C1260 C1244 1.368 . S
C1260 C1256 1.368 . S
C1260 C1259 1.523 . S
H1261 C1236 0.950 . S
H1262 C1238 0.950 . S
H1263 C1239 0.949 . S
H1264 C1241 0.950 . S
H1265 C1243 0.950 . S
C1266 C1267 1.349 . S
C1266 C1268 1.327 . S
C1266 H1291 0.950 . S
C1267 C1266 1.349 . S
C1267 C1283 1.349 . S
C1268 C1266 1.327 . S
C1268 C1287 1.429 . S
C1268 H1292 0.950 . S
C1269 C1286 1.574 . S
C1269 C1288 1.368 . S
C1269 H1293 0.949 . S
H1270 C1274 0.949 . S
C1271 C1272 1.349 . S
C1271 C1273 1.327 . S
C1271 H1294 0.950 . S
C1272 C1271 1.349 . S
C1272 C1284 1.349 . S
C1273 C1271 1.327 . S
C1273 C1289 1.429 . S
C1273 H1295 0.950 . S
C1274 H1270 0.949 . S
C1274 C1282 1.574 . S
C1274 C1290 1.368 . S
H1275 C1283 0.950 . S
H1276 C1281 0.950 . S
H1277 C1282 0.949 . S
H1278 C1284 0.950 . S
H1279 C1285 0.950 . S
H1280 C1286 0.949 . S
C1281 H1276 0.950 . S
C1281 C1283 1.327 . S
C1281 C1287 1.429 . S
C1282 C1274 1.574 . S
C1282 H1277 0.949 . S
C1282 C1288 1.368 . S
C1283 C1267 1.349 . S
C1283 H1275 0.950 . S
C1283 C1281 1.327 . S
C1284 C1272 1.349 . S
C1284 H1278 0.950 . S
C1284 C1285 1.327 . S
C1285 H1279 0.950 . S
C1285 C1284 1.327 . S
C1285 C1289 1.429 . S
C1286 C1269 1.574 . S
C1286 H1280 0.949 . S
C1286 C1290 1.368 . S
C1287 C1268 1.429 . S
C1287 C1281 1.429 . S
C1287 C1288 1.523 . S
C1288 C1269 1.368 . S
C1288 C1282 1.368 . S
C1288 C1287 1.523 . S
C1289 C1273 1.429 . S
C1289 C1285 1.429 . S
C1289 C1290 1.523 . S
C1290 C1274 1.368 . S
C1290 C1286 1.368 . S
C1290 C1289 1.523 . S
H1291 C1266 0.950 . S
H1292 C1268 0.950 . S
H1293 C1269 0.949 . S
H1294 C1271 0.950 . S
H1295 C1273 0.950 . S
C1296 C1297 1.349 . S
C1296 C1298 1.327 . S
C1296 H1321 0.950 . S
C1297 C1296 1.349 . S
C1297 C1313 1.349 . S
C1298 C1296 1.327 . S
C1298 C1317 1.429 . S
C1298 H1322 0.950 . S
C1299 C1316 1.574 . S
C1299 C1318 1.368 . S
C1299 H1323 0.949 . S
H1300 C1304 0.949 . S
C1301 C1302 1.349 . S
C1301 C1303 1.327 . S
C1301 H1324 0.950 . S
C1302 C1301 1.349 . S
C1302 C1314 1.349 . S
C1303 C1301 1.327 . S
C1303 C1319 1.429 . S
C1303 H1325 0.950 . S
C1304 H1300 0.949 . S
C1304 C1312 1.574 . S
C1304 C1320 1.368 . S
H1305 C1313 0.950 . S
H1306 C1311 0.950 . S
H1307 C1312 0.949 . S
H1308 C1314 0.950 . S
H1309 C1315 0.950 . S
H1310 C1316 0.949 . S
C1311 H1306 0.950 . S
C1311 C1313 1.327 . S
C1311 C1317 1.429 . S
C1312 C1304 1.574 . S
C1312 H1307 0.949 . S
C1312 C1318 1.368 . S
C1313 C1297 1.349 . S
C1313 H1305 0.950 . S
C1313 C1311 1.327 . S
C1314 C1302 1.349 . S
C1314 H1308 0.950 . S
C1314 C1315 1.327 . S
C1315 H1309 0.950 . S
C1315 C1314 1.327 . S
C1315 C1319 1.429 . S
C1316 C1299 1.574 . S
C1316 H1310 0.949 . S
C1316 C1320 1.368 . S
C1317 C1298 1.429 . S
C1317 C1311 1.429 . S
C1317 C1318 1.523 . S
C1318 C1299 1.368 . S
C1318 C1312 1.368 . S
C1318 C1317 1.523 . S
C1319 C1303 1.429 . S
C1319 C1315 1.429 . S
C1319 C1320 1.523 . S
C1320 C1304 1.368 . S
C1320 C1316 1.368 . S
C1320 C1319 1.523 . S
H1321 C1296 0.950 . S
H1322 C1298 0.950 . S
H1323 C1299 0.949 . S
H1324 C1301 0.950 . S
H1325 C1303 0.950 . S
C1326 C1327 1.349 . S
C1326 C1328 1.327 . S
C1326 H1351 0.950 . S
C1327 C1326 1.349 . S
C1327 C1343 1.349 . S
C1328 C1326 1.327 . S
C1328 C1347 1.429 . S
C1328 H1352 0.950 . S
C1329 C1346 1.574 . S
C1329 C1348 1.368 1_565 S
C1329 H1353 0.949 . S
H1330 C1334 0.949 . S
C1331 C1332 1.349 . S
C1331 C1333 1.327 . S
C1331 H1354 0.950 . S
C1332 C1331 1.349 . S
C1332 C1344 1.349 . S
C1333 C1331 1.327 . S
C1333 C1349 1.429 . S
C1333 H1355 0.950 . S
C1334 H1330 0.949 . S
C1334 C1342 1.574 . S
C1334 C1350 1.368 1_545 S
H1335 C1343 0.950 . S
H1336 C1341 0.950 . S
H1337 C1342 0.949 . S
H1338 C1344 0.950 . S
H1339 C1345 0.950 . S
H1340 C1346 0.949 . S
C1341 H1336 0.950 . S
C1341 C1343 1.327 . S
C1341 C1347 1.429 . S
C1342 C1334 1.574 . S
C1342 H1337 0.949 . S
C1342 C1348 1.368 . S
C1343 C1327 1.349 . S
C1343 H1335 0.950 . S
C1343 C1341 1.327 . S
C1344 C1332 1.349 . S
C1344 H1338 0.950 . S
C1344 C1345 1.327 . S
C1345 H1339 0.950 . S
C1345 C1344 1.327 . S
C1345 C1349 1.429 . S
C1346 C1329 1.574 . S
C1346 H1340 0.949 . S
C1346 C1350 1.368 . S
C1347 C1328 1.429 . S
C1347 C1341 1.429 . S
C1347 C1348 1.523 . S
C1348 C1329 1.368 1_545 S
C1348 C1342 1.368 . S
C1348 C1347 1.523 . S
C1349 C1333 1.429 . S
C1349 C1345 1.429 . S
C1349 C1350 1.523 . S
C1350 C1334 1.368 1_565 S
C1350 C1346 1.368 . S
C1350 C1349 1.523 . S
H1351 C1326 0.950 . S
H1352 C1328 0.950 . S
H1353 C1329 0.949 . S
H1354 C1331 0.950 . S
H1355 C1333 0.950 . S
C1356 C1357 1.349 . S
C1356 C1358 1.327 . S
C1356 H1381 0.950 . S
C1357 C1356 1.349 . S
C1357 C1373 1.349 . S
C1358 C1356 1.327 . S
C1358 C1377 1.429 . S
C1358 H1382 0.950 . S
C1359 C1376 1.574 . S
C1359 C1378 1.368 . S
C1359 H1383 0.949 . S
H1360 C1364 0.949 . S
C1361 C1362 1.349 . S
C1361 C1363 1.327 . S
C1361 H1384 0.950 . S
C1362 C1361 1.349 . S
C1362 C1374 1.349 . S
C1363 C1361 1.327 . S
C1363 C1379 1.429 . S
C1363 H1385 0.950 . S
C1364 H1360 0.949 . S
C1364 C1372 1.574 . S
C1364 C1380 1.368 . S
H1365 C1373 0.950 . S
H1366 C1371 0.950 . S
H1367 C1372 0.949 . S
H1368 C1374 0.950 . S
H1369 C1375 0.950 . S
H1370 C1376 0.949 . S
C1371 H1366 0.950 . S
C1371 C1373 1.327 . S
C1371 C1377 1.429 . S
C1372 C1364 1.574 . S
C1372 H1367 0.949 . S
C1372 C1378 1.368 1_655 S
C1373 C1357 1.349 . S
C1373 H1365 0.950 . S
C1373 C1371 1.327 . S
C1374 C1362 1.349 . S
C1374 H1368 0.950 . S
C1374 C1375 1.327 . S
C1375 H1369 0.950 . S
C1375 C1374 1.327 . S
C1375 C1379 1.429 . S
C1376 C1359 1.574 . S
C1376 H1370 0.949 . S
C1376 C1380 1.368 1_455 S
C1377 C1358 1.429 . S
C1377 C1371 1.429 . S
C1377 C1378 1.523 . S
C1378 C1359 1.368 . S
C1378 C1372 1.368 1_455 S
C1378 C1377 1.523 . S
C1379 C1363 1.429 . S
C1379 C1375 1.429 . S
C1379 C1380 1.523 . S
C1380 C1364 1.368 . S
C1380 C1376 1.368 1_655 S
C1380 C1379 1.523 . S
H1381 C1356 0.950 . S
H1382 C1358 0.950 . S
H1383 C1359 0.949 . S
H1384 C1361 0.950 . S
H1385 C1363 0.950 . S
C1386 C1387 1.349 . S
C1386 C1388 1.327 . S
C1386 H1411 0.950 . S
C1387 C1386 1.349 . S
C1387 C1403 1.349 . S
C1388 C1386 1.327 . S
C1388 C1407 1.429 . S
C1388 H1412 0.950 . S
C1389 C1406 1.574 . S
C1389 C1408 1.368 . S
C1389 H1413 0.949 . S
H1390 C1394 0.949 . S
C1391 C1392 1.349 . S
C1391 C1393 1.327 . S
C1391 H1414 0.950 . S
C1392 C1391 1.349 . S
C1392 C1404 1.349 . S
C1393 C1391 1.327 . S
C1393 C1409 1.429 . S
C1393 H1415 0.950 . S
C1394 H1390 0.949 . S
C1394 C1402 1.574 . S
C1394 C1410 1.368 . S
H1395 C1403 0.950 . S
H1396 C1401 0.950 . S
H1397 C1402 0.949 . S
H1398 C1404 0.950 . S
H1399 C1405 0.950 . S
H1400 C1406 0.949 . S
C1401 H1396 0.950 . S
C1401 C1403 1.327 . S
C1401 C1407 1.429 . S
C1402 C1394 1.574 . S
C1402 H1397 0.949 . S
C1402 C1408 1.368 . S
C1403 C1387 1.349 . S
C1403 H1395 0.950 . S
C1403 C1401 1.327 . S
C1404 C1392 1.349 . S
C1404 H1398 0.950 . S
C1404 C1405 1.327 . S
C1405 H1399 0.950 . S
C1405 C1404 1.327 . S
C1405 C1409 1.429 . S
C1406 C1389 1.574 . S
C1406 H1400 0.949 . S
C1406 C1410 1.368 . S
C1407 C1388 1.429 . S
C1407 C1401 1.429 . S
C1407 C1408 1.523 . S
C1408 C1389 1.368 . S
C1408 C1402 1.368 . S
C1408 C1407 1.523 . S
C1409 C1393 1.429 . S
C1409 C1405 1.429 . S
C1409 C1410 1.523 . S
C1410 C1394 1.368 . S
C1410 C1406 1.368 . S
C1410 C1409 1.523 . S
H1411 C1386 0.950 . S
H1412 C1388 0.950 . S
H1413 C1389 0.949 . S
H1414 C1391 0.950 . S
H1415 C1393 0.950 . S
C1416 C1417 1.349 . S
C1416 C1418 1.327 . S
C1416 H1441 0.950 . S
C1417 C1416 1.349 . S
C1417 C1433 1.349 . S
C1418 C1416 1.327 . S
C1418 C1437 1.429 . S
C1418 H1442 0.950 . S
C1419 C1436 1.574 . S
C1419 C1438 1.368 . S
C1419 H1443 0.949 . S
H1420 C1424 0.949 . S
C1421 C1422 1.349 . S
C1421 C1423 1.327 . S
C1421 H1444 0.950 . S
C1422 C1421 1.349 . S
C1422 C1434 1.349 . S
C1423 C1421 1.327 . S
C1423 C1439 1.429 . S
C1423 H1445 0.950 . S
C1424 H1420 0.949 . S
C1424 C1432 1.574 . S
C1424 C1440 1.368 . S
H1425 C1433 0.950 . S
H1426 C1431 0.950 . S
H1427 C1432 0.949 . S
H1428 C1434 0.950 . S
H1429 C1435 0.950 . S
H1430 C1436 0.949 . S
C1431 H1426 0.950 . S
C1431 C1433 1.327 . S
C1431 C1437 1.429 . S
C1432 C1424 1.574 . S
C1432 H1427 0.949 . S
C1432 C1438 1.368 1_565 S
C1433 C1417 1.349 . S
C1433 H1425 0.950 . S
C1433 C1431 1.327 . S
C1434 C1422 1.349 . S
C1434 H1428 0.950 . S
C1434 C1435 1.327 . S
C1435 H1429 0.950 . S
C1435 C1434 1.327 . S
C1435 C1439 1.429 . S
C1436 C1419 1.574 . S
C1436 H1430 0.949 . S
C1436 C1440 1.368 1_545 S
C1437 C1418 1.429 . S
C1437 C1431 1.429 . S
C1437 C1438 1.523 . S
C1438 C1419 1.368 . S
C1438 C1432 1.368 1_545 S
C1438 C1437 1.523 . S
C1439 C1423 1.429 . S
C1439 C1435 1.429 . S
C1439 C1440 1.523 . S
C1440 C1424 1.368 . S
C1440 C1436 1.368 1_565 S
C1440 C1439 1.523 . S
H1441 C1416 0.950 . S
H1442 C1418 0.950 . S
H1443 C1419 0.949 . S
H1444 C1421 0.950 . S
H1445 C1423 0.950 . S
C1446 C1447 1.349 . S
C1446 C1448 1.327 . S
C1446 H1471 0.950 . S
C1447 C1446 1.349 . S
C1447 C1463 1.349 . S
C1448 C1446 1.327 . S
C1448 C1467 1.429 . S
C1448 H1472 0.950 . S
C1449 C1466 1.574 . S
C1449 C1468 1.368 . S
C1449 H1473 0.949 . S
H1450 C1454 0.949 . S
C1451 C1452 1.349 . S
C1451 C1453 1.327 . S
C1451 H1474 0.950 . S
C1452 C1451 1.349 . S
C1452 C1464 1.349 . S
C1453 C1451 1.327 . S
C1453 C1469 1.429 . S
C1453 H1475 0.950 . S
C1454 H1450 0.949 . S
C1454 C1462 1.574 . S
C1454 C1470 1.368 . S
H1455 C1463 0.950 . S
H1456 C1461 0.950 . S
H1457 C1462 0.949 . S
H1458 C1464 0.950 . S
H1459 C1465 0.950 . S
H1460 C1466 0.949 . S
C1461 H1456 0.950 . S
C1461 C1463 1.327 . S
C1461 C1467 1.429 . S
C1462 C1454 1.574 . S
C1462 H1457 0.949 . S
C1462 C1468 1.368 1_655 S
C1463 C1447 1.349 . S
C1463 H1455 0.950 . S
C1463 C1461 1.327 . S
C1464 C1452 1.349 . S
C1464 H1458 0.950 . S
C1464 C1465 1.327 . S
C1465 H1459 0.950 . S
C1465 C1464 1.327 . S
C1465 C1469 1.429 . S
C1466 C1449 1.574 . S
C1466 H1460 0.949 . S
C1466 C1470 1.368 1_455 S
C1467 C1448 1.429 . S
C1467 C1461 1.429 . S
C1467 C1468 1.523 . S
C1468 C1449 1.368 . S
C1468 C1462 1.368 1_455 S
C1468 C1467 1.523 . S
C1469 C1453 1.429 . S
C1469 C1465 1.429 . S
C1469 C1470 1.523 . S
C1470 C1454 1.368 . S
C1470 C1466 1.368 1_655 S
C1470 C1469 1.523 . S
H1471 C1446 0.950 . S
H1472 C1448 0.950 . S
H1473 C1449 0.949 . S
H1474 C1451 0.950 . S
H1475 C1453 0.950 . S
C1476 C1477 1.349 . S
C1476 C1478 1.327 . S
C1476 H1501 0.950 . S
C1477 C1476 1.349 . S
C1477 C1493 1.349 . S
C1478 C1476 1.327 . S
C1478 C1497 1.429 . S
C1478 H1502 0.950 . S
C1479 C1496 1.574 1_554 S
C1479 C1498 1.368 . S
C1479 H1503 0.949 . S
H1480 C1484 0.949 . S
C1481 C1482 1.349 . S
C1481 C1483 1.327 . S
C1481 H1504 0.950 . S
C1482 C1481 1.349 . S
C1482 C1494 1.349 . S
C1483 C1481 1.327 . S
C1483 C1499 1.429 . S
C1483 H1505 0.950 . S
C1484 H1480 0.949 . S
C1484 C1492 1.574 1_556 S
C1484 C1500 1.368 . S
H1485 C1493 0.950 . S
H1486 C1491 0.950 . S
H1487 C1492 0.949 . S
H1488 C1494 0.950 . S
H1489 C1495 0.950 . S
H1490 C1496 0.949 . S
C1491 H1486 0.950 . S
C1491 C1493 1.327 . S
C1491 C1497 1.429 . S
C1492 C1484 1.574 1_554 S
C1492 H1487 0.949 . S
C1492 C1498 1.368 . S
C1493 C1477 1.349 . S
C1493 H1485 0.950 . S
C1493 C1491 1.327 . S
C1494 C1482 1.349 . S
C1494 H1488 0.950 . S
C1494 C1495 1.327 . S
C1495 H1489 0.950 . S
C1495 C1494 1.327 . S
C1495 C1499 1.429 . S
C1496 C1479 1.574 1_556 S
C1496 H1490 0.949 . S
C1496 C1500 1.368 . S
C1497 C1478 1.429 . S
C1497 C1491 1.429 . S
C1497 C1498 1.523 . S
C1498 C1479 1.368 . S
C1498 C1492 1.368 . S
C1498 C1497 1.523 . S
C1499 C1483 1.429 . S
C1499 C1495 1.429 . S
C1499 C1500 1.523 . S
C1500 C1484 1.368 . S
C1500 C1496 1.368 . S
C1500 C1499 1.523 . S
H1501 C1476 0.950 . S
H1502 C1478 0.950 . S
H1503 C1479 0.949 . S
H1504 C1481 0.950 . S
H1505 C1483 0.950 . S
C1506 C1507 1.349 . S
C1506 C1508 1.327 . S
C1506 H1531 0.950 . S
C1507 C1506 1.349 . S
C1507 C1523 1.349 . S
C1508 C1506 1.327 . S
C1508 C1527 1.429 . S
C1508 H1532 0.950 . S
C1509 C1526 1.574 1_545 S
C1509 C1528 1.368 1_554 S
C1509 H1533 0.949 . S
H1510 C1514 0.949 . S
C1511 C1512 1.349 . S
C1511 C1513 1.327 . S
C1511 H1534 0.950 . S
C1512 C1511 1.349 . S
C1512 C1524 1.349 . S
C1513 C1511 1.327 . S
C1513 C1529 1.429 . S
C1513 H1535 0.950 . S
C1514 H1510 0.949 . S
C1514 C1522 1.574 1_565 S
C1514 C1530 1.368 1_556 S
H1515 C1523 0.950 . S
H1516 C1521 0.950 1_554 S
H1517 C1522 0.949 . S
H1518 C1524 0.950 . S
H1519 C1525 0.950 1_556 S
H1520 C1526 0.949 . S
C1521 H1516 0.950 1_556 S
C1521 C1523 1.327 . S
C1521 C1527 1.429 . S
C1522 C1514 1.574 1_545 S
C1522 H1517 0.949 . S
C1522 C1528 1.368 . S
C1523 C1507 1.349 . S
C1523 H1515 0.950 . S
C1523 C1521 1.327 . S
C1524 C1512 1.349 . S
C1524 H1518 0.950 . S
C1524 C1525 1.327 . S
C1525 H1519 0.950 1_554 S
C1525 C1524 1.327 . S
C1525 C1529 1.429 . S
C1526 C1509 1.574 1_565 S
C1526 H1520 0.949 . S
C1526 C1530 1.368 . S
C1527 C1508 1.429 . S
C1527 C1521 1.429 . S
C1527 C1528 1.523 . S
C1528 C1509 1.368 1_556 S
C1528 C1522 1.368 . S
C1528 C1527 1.523 . S
C1529 C1513 1.429 . S
C1529 C1525 1.429 . S
C1529 C1530 1.523 . S
C1530 C1514 1.368 1_554 S
C1530 C1526 1.368 . S
C1530 C1529 1.523 . S
H1531 C1506 0.950 . S
H1532 C1508 0.950 . S
H1533 C1509 0.949 . S
H1534 C1511 0.950 . S
H1535 C1513 0.950 . S
C1536 C1537 1.349 . S
C1536 C1538 1.327 . S
C1536 H1561 0.950 . S
C1537 C1536 1.349 . S
C1537 C1553 1.349 . S
C1538 C1536 1.327 . S
C1538 C1557 1.429 . S
C1538 H1562 0.950 1_556 S
C1539 C1556 1.574 1_655 S
C1539 C1558 1.368 . S
C1539 H1563 0.949 . S
H1540 C1544 0.949 . S
C1541 C1542 1.349 . S
C1541 C1543 1.327 . S
C1541 H1564 0.950 . S
C1542 C1541 1.349 . S
C1542 C1554 1.349 . S
C1543 C1541 1.327 . S
C1543 C1559 1.429 . S
C1543 H1565 0.950 1_554 S
C1544 H1540 0.949 . S
C1544 C1552 1.574 1_455 S
C1544 C1560 1.368 . S
H1545 C1553 0.950 . S
H1546 C1551 0.950 . S
H1547 C1552 0.949 . S
H1548 C1554 0.950 . S
H1549 C1555 0.950 . S
H1550 C1556 0.949 . S
C1551 H1546 0.950 . S
C1551 C1553 1.327 . S
C1551 C1557 1.429 . S
C1552 C1544 1.574 1_655 S
C1552 H1547 0.949 . S
C1552 C1558 1.368 1_554 S
C1553 C1537 1.349 . S
C1553 H1545 0.950 . S
C1553 C1551 1.327 . S
C1554 C1542 1.349 . S
C1554 H1548 0.950 . S
C1554 C1555 1.327 . S
C1555 H1549 0.950 . S
C1555 C1554 1.327 . S
C1555 C1559 1.429 . S
C1556 C1539 1.574 1_455 S
C1556 H1550 0.949 . S
C1556 C1560 1.368 1_556 S
C1557 C1538 1.429 . S
C1557 C1551 1.429 . S
C1557 C1558 1.523 . S
C1558 C1539 1.368 . S
C1558 C1552 1.368 1_556 S
C1558 C1557 1.523 . S
C1559 C1543 1.429 . S
C1559 C1555 1.429 . S
C1559 C1560 1.523 . S
C1560 C1544 1.368 . S
C1560 C1556 1.368 1_554 S
C1560 C1559 1.523 . S
H1561 C1536 0.950 . S
H1562 C1538 0.950 1_554 S
H1563 C1539 0.949 . S
H1564 C1541 0.950 . S
H1565 C1543 0.950 1_556 S
C1566 C1567 1.349 . S
C1566 C1568 1.327 . S
C1566 H1591 0.950 . S
C1567 C1566 1.349 . S
C1567 C1583 1.349 . S
C1568 C1566 1.327 . S
C1568 C1587 1.429 . S
C1568 H1592 0.950 . S
C1569 C1586 1.574 1_554 S
C1569 C1588 1.368 . S
C1569 H1593 0.949 . S
H1570 C1574 0.949 . S
C1571 C1572 1.349 . S
C1571 C1573 1.327 . S
C1571 H1594 0.950 . S
C1572 C1571 1.349 . S
C1572 C1584 1.349 . S
C1573 C1571 1.327 . S
C1573 C1589 1.429 . S
C1573 H1595 0.950 . S
C1574 H1570 0.949 . S
C1574 C1582 1.574 1_556 S
C1574 C1590 1.368 . S
H1575 C1583 0.950 . S
H1576 C1581 0.950 . S
H1577 C1582 0.949 . S
H1578 C1584 0.950 . S
H1579 C1585 0.950 . S
H1580 C1586 0.949 . S
C1581 H1576 0.950 . S
C1581 C1583 1.327 . S
C1581 C1587 1.429 . S
C1582 C1574 1.574 1_554 S
C1582 H1577 0.949 . S
C1582 C1588 1.368 . S
C1583 C1567 1.349 . S
C1583 H1575 0.950 . S
C1583 C1581 1.327 . S
C1584 C1572 1.349 . S
C1584 H1578 0.950 . S
C1584 C1585 1.327 . S
C1585 H1579 0.950 . S
C1585 C1584 1.327 . S
C1585 C1589 1.429 . S
C1586 C1569 1.574 1_556 S
C1586 H1580 0.949 . S
C1586 C1590 1.368 . S
C1587 C1568 1.429 . S
C1587 C1581 1.429 . S
C1587 C1588 1.523 . S
C1588 C1569 1.368 . S
C1588 C1582 1.368 . S
C1588 C1587 1.523 . S
C1589 C1573 1.429 . S
C1589 C1585 1.429 . S
C1589 C1590 1.523 . S
C1590 C1574 1.368 . S
C1590 C1586 1.368 . S
C1590 C1589 1.523 . S
H1591 C1566 0.950 . S
H1592 C1568 0.950 . S
H1593 C1569 0.949 . S
H1594 C1571 0.950 . S
H1595 C1573 0.950 . S
C1596 C1597 1.349 . S
C1596 C1598 1.327 . S
C1596 H1621 0.950 . S
C1597 C1596 1.349 . S
C1597 C1613 1.349 . S
C1598 C1596 1.327 . S
C1598 C1617 1.429 . S
C1598 H1622 0.950 1_554 S
C1599 C1616 1.574 1_565 S
C1599 C1618 1.368 . S
C1599 H1623 0.949 . S
H1600 C1604 0.949 . S
C1601 C1602 1.349 . S
C1601 C1603 1.327 . S
C1601 H1624 0.950 . S
C1602 C1601 1.349 . S
C1602 C1614 1.349 . S
C1603 C1601 1.327 . S
C1603 C1619 1.429 . S
C1603 H1625 0.950 1_556 S
C1604 H1600 0.949 . S
C1604 C1612 1.574 1_545 S
C1604 C1620 1.368 . S
H1605 C1613 0.950 . S
H1606 C1611 0.950 . S
H1607 C1612 0.949 . S
H1608 C1614 0.950 . S
H1609 C1615 0.950 . S
H1610 C1616 0.949 . S
C1611 H1606 0.950 . S
C1611 C1613 1.327 . S
C1611 C1617 1.429 . S
C1612 C1604 1.574 1_565 S
C1612 H1607 0.949 . S
C1612 C1618 1.368 1_556 S
C1613 C1597 1.349 . S
C1613 H1605 0.950 . S
C1613 C1611 1.327 . S
C1614 C1602 1.349 . S
C1614 H1608 0.950 . S
C1614 C1615 1.327 . S
C1615 H1609 0.950 . S
C1615 C1614 1.327 . S
C1615 C1619 1.429 . S
C1616 C1599 1.574 1_545 S
C1616 H1610 0.949 . S
C1616 C1620 1.368 1_554 S
C1617 C1598 1.429 . S
C1617 C1611 1.429 . S
C1617 C1618 1.523 . S
C1618 C1599 1.368 . S
C1618 C1612 1.368 1_554 S
C1618 C1617 1.523 . S
C1619 C1603 1.429 . S
C1619 C1615 1.429 . S
C1619 C1620 1.523 . S
C1620 C1604 1.368 . S
C1620 C1616 1.368 1_556 S
C1620 C1619 1.523 . S
H1621 C1596 0.950 . S
H1622 C1598 0.950 1_556 S
H1623 C1599 0.949 . S
H1624 C1601 0.950 . S
H1625 C1603 0.950 1_554 S
C1626 C1627 1.349 . S
C1626 C1628 1.327 . S
C1626 H1651 0.950 . S
C1627 C1626 1.349 . S
C1627 C1643 1.349 . S
C1628 C1626 1.327 . S
C1628 C1647 1.429 . S
C1628 H1652 0.950 . S
C1629 C1646 1.574 1_655 S
C1629 C1648 1.368 . S
C1629 H1653 0.949 . S
H1630 C1634 0.949 . S
C1631 C1632 1.349 . S
C1631 C1633 1.327 . S
C1631 H1654 0.950 . S
C1632 C1631 1.349 . S
C1632 C1644 1.349 . S
C1633 C1631 1.327 . S
C1633 C1649 1.429 . S
C1633 H1655 0.950 . S
C1634 H1630 0.949 . S
C1634 C1642 1.574 1_455 S
C1634 C1650 1.368 . S
H1635 C1643 0.950 . S
H1636 C1641 0.950 . S
H1637 C1642 0.949 . S
H1638 C1644 0.950 . S
H1639 C1645 0.950 . S
H1640 C1646 0.949 . S
C1641 H1636 0.950 . S
C1641 C1643 1.327 . S
C1641 C1647 1.429 . S
C1642 C1634 1.574 1_655 S
C1642 H1637 0.949 . S
C1642 C1648 1.368 1_554 S
C1643 C1627 1.349 . S
C1643 H1635 0.950 . S
C1643 C1641 1.327 . S
C1644 C1632 1.349 . S
C1644 H1638 0.950 . S
C1644 C1645 1.327 . S
C1645 H1639 0.950 . S
C1645 C1644 1.327 . S
C1645 C1649 1.429 . S
C1646 C1629 1.574 1_455 S
C1646 H1640 0.949 . S
C1646 C1650 1.368 1_556 S
C1647 C1628 1.429 . S
C1647 C1641 1.429 . S
C1647 C1648 1.523 . S
C1648 C1629 1.368 . S
C1648 C1642 1.368 1_556 S
C1648 C1647 1.523 . S
C1649 C1633 1.429 . S
C1649 C1645 1.429 . S
C1649 C1650 1.523 . S
C1650 C1634 1.368 . S
C1650 C1646 1.368 1_554 S
C1650 C1649 1.523 . S
H1651 C1626 0.950 . S
H1652 C1628 0.950 . S
H1653 C1629 0.949 . S
H1654 C1631 0.950 . S
H1655 C1633 0.950 . S
C1656 C1657 1.349 . S
C1656 C1658 1.327 . S
C1656 H1681 0.950 . S
C1657 C1656 1.349 . S
C1657 C1673 1.349 . S
C1658 C1656 1.327 . S
C1658 C1677 1.429 . S
C1658 H1682 0.950 . S
C1659 C1676 1.574 . S
C1659 C1678 1.368 . S
C1659 H1683 0.949 . S
H1660 C1664 0.949 . S
C1661 C1662 1.349 . S
C1661 C1663 1.327 . S
C1661 H1684 0.950 . S
C1662 C1661 1.349 . S
C1662 C1674 1.349 1_455 S
C1663 C1661 1.327 . S
C1663 C1679 1.429 1_455 S
C1663 H1685 0.950 . S
C1664 H1660 0.949 . S
C1664 C1672 1.574 . S
C1664 C1680 1.368 . S
H1665 C1673 0.950 . S
H1666 C1671 0.950 . S
H1667 C1672 0.949 . S
H1668 C1674 0.950 . S
H1669 C1675 0.950 . S
H1670 C1676 0.949 1_455 S
C1671 H1666 0.950 . S
C1671 C1673 1.327 . S
C1671 C1677 1.429 . S
C1672 C1664 1.574 . S
C1672 H1667 0.949 . S
C1672 C1678 1.368 . S
C1673 C1657 1.349 . S
C1673 H1665 0.950 . S
C1673 C1671 1.327 . S
C1674 C1662 1.349 1_655 S
C1674 H1668 0.950 . S
C1674 C1675 1.327 . S
C1675 H1669 0.950 . S
C1675 C1674 1.327 . S
C1675 C1679 1.429 . S
C1676 C1659 1.574 . S
C1676 H1670 0.949 1_655 S
C1676 C1680 1.368 . S
C1677 C1658 1.429 . S
C1677 C1671 1.429 . S
C1677 C1678 1.523 . S
C1678 C1659 1.368 . S
C1678 C1672 1.368 . S
C1678 C1677 1.523 . S
C1679 C1663 1.429 1_655 S
C1679 C1675 1.429 . S
C1679 C1680 1.523 . S
C1680 C1664 1.368 . S
C1680 C1676 1.368 . S
C1680 C1679 1.523 . S
H1681 C1656 0.950 . S
H1682 C1658 0.950 . S
H1683 C1659 0.949 . S
H1684 C1661 0.950 . S
H1685 C1663 0.950 . S
C1686 C1687 1.349 . S
C1686 C1688 1.327 . S
C1686 H1711 0.950 . S
C1687 C1686 1.349 . S
C1687 C1703 1.349 . S
C1688 C1686 1.327 . S
C1688 C1707 1.429 . S
C1688 H1712 0.950 . S
C1689 C1706 1.574 . S
C1689 C1708 1.368 . S
C1689 H1713 0.949 . S
H1690 C1694 0.949 . S
C1691 C1692 1.349 . S
C1691 C1693 1.327 . S
C1691 H1714 0.950 . S
C1692 C1691 1.349 . S
C1692 C1704 1.349 . S
C1693 C1691 1.327 . S
C1693 C1709 1.429 . S
C1693 H1715 0.950 . S
C1694 H1690 0.949 . S
C1694 C1702 1.574 . S
C1694 C1710 1.368 . S
H1695 C1703 0.950 . S
H1696 C1701 0.950 . S
H1697 C1702 0.949 . S
H1698 C1704 0.950 . S
H1699 C1705 0.950 . S
H1700 C1706 0.949 . S
C1701 H1696 0.950 . S
C1701 C1703 1.327 . S
C1701 C1707 1.429 . S
C1702 C1694 1.574 . S
C1702 H1697 0.949 . S
C1702 C1708 1.368 . S
C1703 C1687 1.349 . S
C1703 H1695 0.950 . S
C1703 C1701 1.327 . S
C1704 C1692 1.349 . S
C1704 H1698 0.950 . S
C1704 C1705 1.327 . S
C1705 H1699 0.950 . S
C1705 C1704 1.327 . S
C1705 C1709 1.429 . S
C1706 C1689 1.574 . S
C1706 H1700 0.949 . S
C1706 C1710 1.368 . S
C1707 C1688 1.429 . S
C1707 C1701 1.429 . S
C1707 C1708 1.523 . S
C1708 C1689 1.368 . S
C1708 C1702 1.368 . S
C1708 C1707 1.523 . S
C1709 C1693 1.429 . S
C1709 C1705 1.429 . S
C1709 C1710 1.523 . S
C1710 C1694 1.368 . S
C1710 C1706 1.368 . S
C1710 C1709 1.523 . S
H1711 C1686 0.950 . S
H1712 C1688 0.950 . S
H1713 C1689 0.949 . S
H1714 C1691 0.950 . S
H1715 C1693 0.950 . S
C1716 C1717 1.349 . S
C1716 C1718 1.327 1_565 S
C1716 H1741 0.950 . S
C1717 C1716 1.349 . S
C1717 C1733 1.349 . S
C1718 C1716 1.327 1_545 S
C1718 C1737 1.429 . S
C1718 H1742 0.950 . S
C1719 C1736 1.574 . S
C1719 C1738 1.368 . S
C1719 H1743 0.949 . S
H1720 C1724 0.949 . S
C1721 C1722 1.349 . S
C1721 C1723 1.327 . S
C1721 H1744 0.950 . S
C1722 C1721 1.349 . S
C1722 C1734 1.349 . S
C1723 C1721 1.327 . S
C1723 C1739 1.429 . S
C1723 H1745 0.950 . S
C1724 H1720 0.949 . S
C1724 C1732 1.574 . S
C1724 C1740 1.368 . S
H1725 C1733 0.950 . S
H1726 C1731 0.935 . S
H1727 C1732 0.949 . S
H1728 C1734 0.950 . S
H1729 C1735 0.950 . S
H1730 C1736 0.949 . S
C1731 H1726 0.935 . S
C1731 C1733 1.327 . S
C1731 C1737 1.429 1_565 S
C1732 C1724 1.574 . S
C1732 H1727 0.949 . S
C1732 C1738 1.368 . S
C1733 C1717 1.349 . S
C1733 H1725 0.950 . S
C1733 C1731 1.327 . S
C1734 C1722 1.349 . S
C1734 H1728 0.950 . S
C1734 C1735 1.327 . S
C1735 H1729 0.950 . S
C1735 C1734 1.327 . S
C1735 C1739 1.429 . S
C1736 C1719 1.574 . S
C1736 H1730 0.949 . S
C1736 C1740 1.368 . S
C1737 C1718 1.429 . S
C1737 C1731 1.429 1_545 S
C1737 C1738 1.523 . S
C1738 C1719 1.368 . S
C1738 C1732 1.368 . S
C1738 C1737 1.523 . S
C1739 C1723 1.429 . S
C1739 C1735 1.429 . S
C1739 C1740 1.523 . S
C1740 C1724 1.368 . S
C1740 C1736 1.368 . S
C1740 C1739 1.523 . S
H1741 C1716 0.950 . S
H1742 C1718 0.950 . S
H1743 C1719 0.949 . S
H1744 C1721 0.950 . S
H1745 C1723 0.950 . S
C1746 C1747 1.349 . S
C1746 C1748 1.327 . S
C1746 H1771 0.950 . S
C1747 C1746 1.349 . S
C1747 C1763 1.349 . S
C1748 C1746 1.327 . S
C1748 C1767 1.429 . S
C1748 H1772 0.950 . S
C1749 C1766 1.574 . S
C1749 C1768 1.368 . S
C1749 H1773 0.949 . S
H1750 C1754 0.949 1_565 S
C1751 C1752 1.349 1_545 S
C1751 C1753 1.327 . S
C1751 H1774 0.950 . S
C1752 C1751 1.349 1_565 S
C1752 C1764 1.349 . S
C1753 C1751 1.327 . S
C1753 C1769 1.429 . S
C1753 H1775 0.950 . S
C1754 H1750 0.949 1_545 S
C1754 C1762 1.574 . S
C1754 C1770 1.368 . S
H1755 C1763 0.950 . S
H1756 C1761 0.950 . S
H1757 C1762 0.949 . S
H1758 C1764 0.950 . S
H1759 C1765 0.950 . S
H1760 C1766 0.949 . S
C1761 H1756 0.950 . S
C1761 C1763 1.327 . S
C1761 C1767 1.429 . S
C1762 C1754 1.574 . S
C1762 H1757 0.949 . S
C1762 C1768 1.368 . S
C1763 C1747 1.349 . S
C1763 H1755 0.950 . S
C1763 C1761 1.327 . S
C1764 C1752 1.349 . S
C1764 H1758 0.950 . S
C1764 C1765 1.327 . S
C1765 H1759 0.950 . S
C1765 C1764 1.327 . S
C1765 C1769 1.429 1_565 S
C1766 C1749 1.574 . S
C1766 H1760 0.949 . S
C1766 C1770 1.368 . S
C1767 C1748 1.429 . S
C1767 C1761 1.429 . S
C1767 C1768 1.523 . S
C1768 C1749 1.368 . S
C1768 C1762 1.368 . S
C1768 C1767 1.523 . S
C1769 C1753 1.429 . S
C1769 C1765 1.429 1_545 S
C1769 C1770 1.523 . S
C1770 C1754 1.368 . S
C1770 C1766 1.368 . S
C1770 C1769 1.523 . S
H1771 C1746 0.950 . S
H1772 C1748 0.950 . S
H1773 C1749 0.949 . S
H1774 C1751 0.950 . S
H1775 C1753 0.950 . S
C1776 C1777 1.349 . S
C1776 C1778 1.327 . S
C1776 H1801 0.950 . S
C1777 C1776 1.349 . S
C1777 C1793 1.349 . S
C1778 C1776 1.327 . S
C1778 C1797 1.429 1_455 S
C1778 H1802 0.950 . S
C1779 C1796 1.574 . S
C1779 C1798 1.368 . S
C1779 H1803 0.949 . S
H1780 C1784 0.949 . S
C1781 C1782 1.349 . S
C1781 C1783 1.327 . S
C1781 H1804 0.950 . S
C1782 C1781 1.349 . S
C1782 C1794 1.349 . S
C1783 C1781 1.327 . S
C1783 C1799 1.429 . S
C1783 H1805 0.950 . S
C1784 H1780 0.949 . S
C1784 C1792 1.574 . S
C1784 C1800 1.368 . S
H1785 C1793 0.950 . S
H1786 C1791 0.950 . S
H1787 C1792 0.949 . S
H1788 C1794 0.950 . S
H1789 C1795 0.950 . S
H1790 C1796 0.949 . S
C1791 H1786 0.950 . S
C1791 C1793 1.327 1_655 S
C1791 C1797 1.429 . S
C1792 C1784 1.574 . S
C1792 H1787 0.949 . S
C1792 C1798 1.368 . S
C1793 C1777 1.349 . S
C1793 H1785 0.950 . S
C1793 C1791 1.327 1_455 S
C1794 C1782 1.349 . S
C1794 H1788 0.950 . S
C1794 C1795 1.327 . S
C1795 H1789 0.950 . S
C1795 C1794 1.327 . S
C1795 C1799 1.429 . S
C1796 C1779 1.574 . S
C1796 H1790 0.949 . S
C1796 C1800 1.368 . S
C1797 C1778 1.429 1_655 S
C1797 C1791 1.429 . S
C1797 C1798 1.523 . S
C1798 C1779 1.368 . S
C1798 C1792 1.368 . S
C1798 C1797 1.523 . S
C1799 C1783 1.429 . S
C1799 C1795 1.429 . S
C1799 C1800 1.523 . S
C1800 C1784 1.368 . S
C1800 C1796 1.368 . S
C1800 C1799 1.523 . S
H1801 C1776 0.950 . S
H1802 C1778 0.950 . S
H1803 C1779 0.949 . S
H1804 C1781 0.950 . S
H1805 C1783 0.950 . S
C1806 C1807 1.349 . S
C1806 C1808 1.327 . S
C1806 H1831 0.950 . S
C1807 C1806 1.349 . S
C1807 C1823 1.349 . S
C1808 C1806 1.327 . S
C1808 C1827 1.429 . S
C1808 H1832 0.950 . S
C1809 C1826 1.574 . S
C1809 C1828 1.368 . S
C1809 H1833 0.949 . S
H1810 C1814 0.949 . S
C1811 C1812 1.349 . S
C1811 C1813 1.327 . S
C1811 H1834 0.950 . S
C1812 C1811 1.349 . S
C1812 C1824 1.349 . S
C1813 C1811 1.327 . S
C1813 C1829 1.429 . S
C1813 H1835 0.950 . S
C1814 H1810 0.949 . S
C1814 C1822 1.574 . S
C1814 C1830 1.368 . S
H1815 C1823 0.950 . S
H1816 C1821 0.950 . S
H1817 C1822 0.949 . S
H1818 C1824 0.950 . S
H1819 C1825 0.950 . S
H1820 C1826 0.949 . S
C1821 H1816 0.950 . S
C1821 C1823 1.327 . S
C1821 C1827 1.429 . S
C1822 C1814 1.574 . S
C1822 H1817 0.949 . S
C1822 C1828 1.368 . S
C1823 C1807 1.349 . S
C1823 H1815 0.950 . S
C1823 C1821 1.327 . S
C1824 C1812 1.349 . S
C1824 H1818 0.950 . S
C1824 C1825 1.327 . S
C1825 H1819 0.950 . S
C1825 C1824 1.327 . S
C1825 C1829 1.429 . S
C1826 C1809 1.574 . S
C1826 H1820 0.949 . S
C1826 C1830 1.368 . S
C1827 C1808 1.429 . S
C1827 C1821 1.429 . S
C1827 C1828 1.523 . S
C1828 C1809 1.368 . S
C1828 C1822 1.368 . S
C1828 C1827 1.523 . S
C1829 C1813 1.429 . S
C1829 C1825 1.429 . S
C1829 C1830 1.523 . S
C1830 C1814 1.368 . S
C1830 C1826 1.368 . S
C1830 C1829 1.523 . S
H1831 C1806 0.950 . S
H1832 C1808 0.950 . S
H1833 C1809 0.949 . S
H1834 C1811 0.950 . S
H1835 C1813 0.950 . S
C1836 C1837 1.349 . S
C1836 C1838 1.327 . S
C1836 H1861 0.950 . S
C1837 C1836 1.349 . S
C1837 C1853 1.349 . S
C1838 C1836 1.327 . S
C1838 C1857 1.429 . S
C1838 H1862 0.950 . S
C1839 C1856 1.574 . S
C1839 C1858 1.368 . S
C1839 H1863 0.949 . S
H1840 C1844 0.949 . S
C1841 C1842 1.349 . S
C1841 C1843 1.307 1_545 S
C1841 H1864 0.950 . S
C1842 C1841 1.349 . S
C1842 C1854 1.349 . S
C1843 C1841 1.307 1_565 S
C1843 C1859 1.435 . S
C1843 H1865 0.964 . S
C1844 H1840 0.949 . S
C1844 C1852 1.574 . S
C1844 C1860 1.368 . S
H1845 C1853 0.950 . S
H1846 C1851 0.950 . S
H1847 C1852 0.949 . S
H1848 C1854 0.950 . S
H1849 C1855 0.950 . S
H1850 C1856 0.949 . S
C1851 H1846 0.950 . S
C1851 C1853 1.327 . S
C1851 C1857 1.429 . S
C1852 C1844 1.574 . S
C1852 H1847 0.949 . S
C1852 C1858 1.368 . S
C1853 C1837 1.349 . S
C1853 H1845 0.950 . S
C1853 C1851 1.327 . S
C1854 C1842 1.349 . S
C1854 H1848 0.950 . S
C1854 C1855 1.327 1_545 S
C1855 H1849 0.950 . S
C1855 C1854 1.327 1_565 S
C1855 C1859 1.429 . S
C1856 C1839 1.574 . S
C1856 H1850 0.949 . S
C1856 C1860 1.368 . S
C1857 C1838 1.429 . S
C1857 C1851 1.429 . S
C1857 C1858 1.523 . S
C1858 C1839 1.368 . S
C1858 C1852 1.368 . S
C1858 C1857 1.523 . S
C1859 C1843 1.435 . S
C1859 C1855 1.429 . S
C1859 C1860 1.523 . S
C1860 C1844 1.368 . S
C1860 C1856 1.368 . S
C1860 C1859 1.523 . S
H1861 C1836 0.950 . S
H1862 C1838 0.950 . S
H1863 C1839 0.949 . S
H1864 C1841 0.950 . S
H1865 C1843 0.964 . S
C1866 C1867 1.349 . S
C1866 C1868 1.327 . S
C1866 H1891 0.950 . S
C1867 C1866 1.349 . S
C1867 C1883 1.349 . S
C1868 C1866 1.327 . S
C1868 C1887 1.429 . S
C1868 H1892 0.950 . S
C1869 C1886 1.574 . S
C1869 C1888 1.368 . S
C1869 H1893 0.949 . S
H1870 C1874 0.949 . S
C1871 C1872 1.349 . S
C1871 C1873 1.327 . S
C1871 H1894 0.950 . S
C1872 C1871 1.349 . S
C1872 C1884 1.349 . S
C1873 C1871 1.327 . S
C1873 C1889 1.429 1_655 S
C1873 H1895 0.950 . S
C1874 H1870 0.949 . S
C1874 C1882 1.574 . S
C1874 C1890 1.368 . S
H1875 C1883 0.950 . S
H1876 C1881 0.950 . S
H1877 C1882 0.949 . S
H1878 C1884 0.950 . S
H1879 C1885 0.950 . S
H1880 C1886 0.949 . S
C1881 H1876 0.950 . S
C1881 C1883 1.327 . S
C1881 C1887 1.429 . S
C1882 C1874 1.574 . S
C1882 H1877 0.949 . S
C1882 C1888 1.368 . S
C1883 C1867 1.349 . S
C1883 H1875 0.950 . S
C1883 C1881 1.327 . S
C1884 C1872 1.349 . S
C1884 H1878 0.950 . S
C1884 C1885 1.327 1_655 S
C1885 H1879 0.950 . S
C1885 C1884 1.327 1_455 S
C1885 C1889 1.429 . S
C1886 C1869 1.574 . S
C1886 H1880 0.949 . S
C1886 C1890 1.368 . S
C1887 C1868 1.429 . S
C1887 C1881 1.429 . S
C1887 C1888 1.523 . S
C1888 C1869 1.368 . S
C1888 C1882 1.368 . S
C1888 C1887 1.523 . S
C1889 C1873 1.429 1_455 S
C1889 C1885 1.429 . S
C1889 C1890 1.523 . S
C1890 C1874 1.368 . S
C1890 C1886 1.368 . S
C1890 C1889 1.523 . S
H1891 C1866 0.950 . S
H1892 C1868 0.950 . S
H1893 C1869 0.949 . S
H1894 C1871 0.950 . S
H1895 C1873 0.950 . S
C1896 C1897 1.349 . S
C1896 C1898 1.327 . S
C1896 H1921 0.950 . S
C1897 C1896 1.349 . S
C1897 C1913 1.349 . S
C1898 C1896 1.327 . S
C1898 C1917 1.429 . S
C1898 H1922 0.950 . S
C1899 C1916 1.574 . S
C1899 C1918 1.368 . S
C1899 H1923 0.949 . S
H1900 C1904 0.949 . S
C1901 C1902 1.349 . S
C1901 C1903 1.327 . S
C1901 H1924 0.950 . S
C1902 C1901 1.349 . S
C1902 C1914 1.349 . S
C1903 C1901 1.327 . S
C1903 C1919 1.429 . S
C1903 H1925 0.950 . S
C1904 H1900 0.949 . S
C1904 C1912 1.574 . S
C1904 C1920 1.368 . S
H1905 C1913 0.950 . S
H1906 C1911 0.950 . S
H1907 C1912 0.949 . S
H1908 C1914 0.950 . S
H1909 C1915 0.950 . S
H1910 C1916 0.949 . S
C1911 H1906 0.950 . S
C1911 C1913 1.327 . S
C1911 C1917 1.429 . S
C1912 C1904 1.574 . S
C1912 H1907 0.949 . S
C1912 C1918 1.368 . S
C1913 C1897 1.349 . S
C1913 H1905 0.950 . S
C1913 C1911 1.327 . S
C1914 C1902 1.349 . S
C1914 H1908 0.950 . S
C1914 C1915 1.327 . S
C1915 H1909 0.950 . S
C1915 C1914 1.327 . S
C1915 C1919 1.429 . S
C1916 C1899 1.574 . S
C1916 H1910 0.949 . S
C1916 C1920 1.368 . S
C1917 C1898 1.429 . S
C1917 C1911 1.429 . S
C1917 C1918 1.523 . S
C1918 C1899 1.368 . S
C1918 C1912 1.368 . S
C1918 C1917 1.523 . S
C1919 C1903 1.429 . S
C1919 C1915 1.429 . S
C1919 C1920 1.523 . S
C1920 C1904 1.368 . S
C1920 C1916 1.368 . S
C1920 C1919 1.523 . S
H1921 C1896 0.950 . S
H1922 C1898 0.950 . S
H1923 C1899 0.949 . S
H1924 C1901 0.950 . S
H1925 C1903 0.950 . S
C1926 C1927 1.349 1_455 S
C1926 C1928 1.327 . S
C1926 H1951 0.950 . S
C1927 C1926 1.349 1_655 S
C1927 C1943 1.349 . S
C1928 C1926 1.327 . S
C1928 C1947 1.429 . S
C1928 H1952 0.950 . S
C1929 C1946 1.574 . S
C1929 C1948 1.368 . S
C1929 H1953 0.949 1_455 S
H1930 C1934 0.949 . S
C1931 C1932 1.349 . S
C1931 C1933 1.327 . S
C1931 H1954 0.950 . S
C1932 C1931 1.349 . S
C1932 C1944 1.349 . S
C1933 C1931 1.327 . S
C1933 C1949 1.429 . S
C1933 H1955 0.950 . S
C1934 H1930 0.949 . S
C1934 C1942 1.574 . S
C1934 C1950 1.368 . S
H1935 C1943 0.950 . S
H1936 C1941 0.950 . S
H1937 C1942 0.949 . S
H1938 C1944 0.950 . S
H1939 C1945 0.950 . S
H1940 C1946 0.949 . S
C1941 H1936 0.950 . S
C1941 C1943 1.327 . S
C1941 C1947 1.429 1_655 S
C1942 C1934 1.574 . S
C1942 H1937 0.949 . S
C1942 C1948 1.368 . S
C1943 C1927 1.349 . S
C1943 H1935 0.950 . S
C1943 C1941 1.327 . S
C1944 C1932 1.349 . S
C1944 H1938 0.950 . S
C1944 C1945 1.327 . S
C1945 H1939 0.950 . S
C1945 C1944 1.327 . S
C1945 C1949 1.429 . S
C1946 C1929 1.574 . S
C1946 H1940 0.949 . S
C1946 C1950 1.368 . S
C1947 C1928 1.429 . S
C1947 C1941 1.429 1_455 S
C1947 C1948 1.523 . S
C1948 C1929 1.368 . S
C1948 C1942 1.368 . S
C1948 C1947 1.523 . S
C1949 C1933 1.429 . S
C1949 C1945 1.429 . S
C1949 C1950 1.523 . S
C1950 C1934 1.368 . S
C1950 C1946 1.368 . S
C1950 C1949 1.523 . S
H1951 C1926 0.950 . S
H1952 C1928 0.950 . S
H1953 C1929 0.949 1_655 S
H1954 C1931 0.950 . S
H1955 C1933 0.950 . S
C1956 C1957 1.349 . S
C1956 C1958 1.327 . S
C1956 H1981 0.950 . S
C1957 C1956 1.349 . S
C1957 C1973 1.349 . S
C1958 C1956 1.327 . S
C1958 C1977 1.429 . S
C1958 H1982 0.950 . S
C1959 C1976 1.574 . S
C1959 C1978 1.368 . S
C1959 H1983 0.949 . S
H1960 C1964 0.949 . S
C1961 C1962 1.349 . S
C1961 C1963 1.327 . S
C1961 H1984 0.950 . S
C1962 C1961 1.349 . S
C1962 C1974 1.349 . S
C1963 C1961 1.327 . S
C1963 C1979 1.429 . S
C1963 H1985 0.950 . S
C1964 H1960 0.949 . S
C1964 C1972 1.574 . S
C1964 C1980 1.368 . S
H1965 C1973 0.950 . S
H1966 C1971 0.950 . S
H1967 C1972 0.949 . S
H1968 C1974 0.950 . S
H1969 C1975 0.950 . S
H1970 C1976 0.949 . S
C1971 H1966 0.950 . S
C1971 C1973 1.327 . S
C1971 C1977 1.429 . S
C1972 C1964 1.574 . S
C1972 H1967 0.949 . S
C1972 C1978 1.368 . S
C1973 C1957 1.349 . S
C1973 H1965 0.950 . S
C1973 C1971 1.327 . S
C1974 C1962 1.349 . S
C1974 H1968 0.950 . S
C1974 C1975 1.327 . S
C1975 H1969 0.950 . S
C1975 C1974 1.327 . S
C1975 C1979 1.429 . S
C1976 C1959 1.574 . S
C1976 H1970 0.949 . S
C1976 C1980 1.368 . S
C1977 C1958 1.429 . S
C1977 C1971 1.429 . S
C1977 C1978 1.523 . S
C1978 C1959 1.368 . S
C1978 C1972 1.368 . S
C1978 C1977 1.523 . S
C1979 C1963 1.429 . S
C1979 C1975 1.429 . S
C1979 C1980 1.523 . S
C1980 C1964 1.368 . S
C1980 C1976 1.368 . S
C1980 C1979 1.523 . S
H1981 C1956 0.950 . S
H1982 C1958 0.950 . S
H1983 C1959 0.949 . S
H1984 C1961 0.950 . S
H1985 C1963 0.950 . S
C1986 C1987 1.349 . S
C1986 C1988 1.327 . S
C1986 H2011 0.950 . S
C1987 C1986 1.349 . S
C1987 C2003 1.349 . S
C1988 C1986 1.327 . S
C1988 C2007 1.429 . S
C1988 H2012 0.950 . S
C1989 C2006 1.574 . S
C1989 C2008 1.368 . S
C1989 H2013 0.949 . S
H1990 C1994 0.949 . S
C1991 C1992 1.349 . S
C1991 C1993 1.327 . S
C1991 H2014 0.950 . S
C1992 C1991 1.349 . S
C1992 C2004 1.349 1_545 S
C1993 C1991 1.327 . S
C1993 C2009 1.429 1_545 S
C1993 H2015 0.950 . S
C1994 H1990 0.949 . S
C1994 C2002 1.574 . S
C1994 C2010 1.368 . S
H1995 C2003 0.950 . S
H1996 C2001 0.950 . S
H1997 C2002 0.949 . S
H1998 C2004 0.950 . S
H1999 C2005 0.950 . S
H2000 C2006 0.949 1_545 S
C2001 H1996 0.950 . S
C2001 C2003 1.327 . S
C2001 C2007 1.429 . S
C2002 C1994 1.574 . S
C2002 H1997 0.949 . S
C2002 C2008 1.368 . S
C2003 C1987 1.349 . S
C2003 H1995 0.950 . S
C2003 C2001 1.327 . S
C2004 C1992 1.349 1_565 S
C2004 H1998 0.950 . S
C2004 C2005 1.327 . S
C2005 H1999 0.950 . S
C2005 C2004 1.327 . S
C2005 C2009 1.429 . S
C2006 C1989 1.574 . S
C2006 H2000 0.949 1_565 S
C2006 C2010 1.368 . S
C2007 C1988 1.429 . S
C2007 C2001 1.429 . S
C2007 C2008 1.523 . S
C2008 C1989 1.368 . S
C2008 C2002 1.368 . S
C2008 C2007 1.523 . S
C2009 C1993 1.429 1_565 S
C2009 C2005 1.429 . S
C2009 C2010 1.523 . S
C2010 C1994 1.368 . S
C2010 C2006 1.368 . S
C2010 C2009 1.523 . S
H2011 C1986 0.950 . S
H2012 C1988 0.950 . S
H2013 C1989 0.949 . S
H2014 C1991 0.950 . S
H2015 C1993 0.950 . S
C397 C48 1.101 . S
C402 C8 1.101 . S
C427 C30 1.101 . S
C432 C4 1.101 . S
C457 C26 1.101 . S
C462 C52 1.101 . S
C487 C70 1.101 . S
C492 C96 1.101 . S
C517 C118 1.101 . S
C522 C92 1.101 . S
C547 C114 1.101 . S
C552 C74 1.101 . S
C577 C180 1.101 . S
C582 C140 1.101 . S
C607 C136 1.101 . S
C612 C162 1.101 . S
C637 C158 1.101 . S
C642 C184 1.101 . S
C667 C228 1.101 . S
C672 C202 1.101 . S
C697 C224 1.101 . S
C702 C250 1.101 . S
C727 C206 1.101 . S
C732 C246 1.101 . S
C757 C272 1.101 . S
C762 C312 1.101 . S
C787 C268 1.101 . S
C792 C294 1.101 . S
C817 C290 1.101 . S
C822 C316 1.101 . S
C847 C360 1.101 . S
C852 C334 1.100 . S
C877 C382 1.101 . S
C882 C356 1.101 . S
C907 C378 1.101 . S
C912 C338 1.101 . S
C937 C9 0.789 . S
C942 C203 0.789 . S
C967 C31 0.789 . S
C972 C225 0.789 . S
C997 C247 0.789 . S
C1002 C53 0.789 . S
C1027 C71 0.789 . S
C1032 C273 0.789 . S
C1057 C295 0.789 . S
C1062 C93 0.789 . S
C1087 C317 0.789 . S
C1092 C115 0.789 . S
C1117 C292 0.789 . S
C1122 C117 0.789 . S
C1147 C73 0.789 . S
C1152 C314 0.789 . S
C1177 C270 0.789 . S
C1182 C95 0.789 . S
C1207 C28 0.789 . S
C1212 C249 0.789 . S
C1237 C50 0.789 . S
C1242 C205 0.789 . S
C1267 C227 0.789 . S
C1272 C6 0.789 . S
C1297 C335 0.789 . S
C1302 C141 0.789 . S
C1327 C163 0.789 . S
C1332 C357 0.789 . S
C1357 C379 0.789 . S
C1362 C185 0.789 . S
C1387 C381 0.789 . S
C1392 C160 0.789 . S
C1417 C182 0.789 . S
C1422 C337 0.789 . S
C1447 C359 0.789 . S
C1452 C138 0.789 . S
C1477 C5 1.240 . S
C1482 C75 1.240 . S
C1507 C97 1.241 . S
C1512 C27 1.241 . S
C1537 C119 1.241 . S
C1542 C49 1.241 . S
C1567 C29 1.241 . S
C1572 C116 1.241 . S
C1597 C51 1.241 . S
C1602 C72 1.241 . S
C1627 C94 1.241 . S
C1632 C7 1.241 . S
C1657 C137 1.240 . S
C1662 C207 1.240 . S
C1687 C229 1.240 . S
C1692 C159 1.240 . S
C1717 C251 1.241 . S
C1722 C181 1.241 . S
C1747 C161 1.240 . S
C1752 C248 1.240 . S
C1777 C204 1.241 . S
C1782 C183 1.241 . S
C1807 C139 1.240 . S
C1812 C226 1.240 . S
C1837 C339 1.240 . S
C1842 C269 1.240 . S
C1867 C361 1.241 . S
C1872 C291 1.241 . S
C1897 C383 1.240 . S
C1902 C313 1.240 . S
C1927 C293 1.240 . S
C1932 C380 1.240 . S
C1957 C315 1.240 . S
C1962 C336 1.240 . S
C1987 C358 1.241 . S
C1992 C271 1.241 . S
