# Generated by pormake.
# Topology wme, (6)-cn, num edge types: 1
# Building blocks:
#     Node 0, Type 0, BuildingBlock: FUNLAD_clean_sbu_0, # of connection points: 6
#     Node 1, Type 0, BuildingBlock: FUNLAD_clean_sbu_0, # of connection points: 6
#     Node 2, Type 0, BuildingBlock: FUNLAD_clean_sbu_0, # of connection points: 6
#     Node 3, Type 0, BuildingBlock: FUNLAD_clean_sbu_0, # of connection points: 6
#     Node 4, Type 0, BuildingBlock: FUNLAD_clean_sbu_0, # of connection points: 6
#     Node 5, Type 0, BuildingBlock: FUNLAD_clean_sbu_0, # of connection points: 6
#     Node 6, Type 0, BuildingBlock: FUNLAD_clean_sbu_0, # of connection points: 6
#     Node 7, Type 0, BuildingBlock: FUNLAD_clean_sbu_0, # of connection points: 6
#     Node 8, Type 0, BuildingBlock: FUNLAD_clean_sbu_0, # of connection points: 6
#     Node 9, Type 0, BuildingBlock: FUNLAD_clean_sbu_0, # of connection points: 6
#     Node 10, Type 0, BuildingBlock: FUNLAD_clean_sbu_0, # of connection points: 6
#     Node 11, Type 0, BuildingBlock: FUNLAD_clean_sbu_0, # of connection points: 6
#     Edge 12, Type (0, 0), BuildingBlock: XUDNAN_clean_linker_2, # of connection points: 2
#     Edge 13, Type (0, 0), BuildingBlock: XUDNAN_clean_linker_2, # of connection points: 2
#     Edge 14, Type (0, 0), BuildingBlock: XUDNAN_clean_linker_2, # of connection points: 2
#     Edge 15, Type (0, 0), BuildingBlock: XUDNAN_clean_linker_2, # of connection points: 2
#     Edge 16, Type (0, 0), BuildingBlock: XUDNAN_clean_linker_2, # of connection points: 2
#     Edge 17, Type (0, 0), BuildingBlock: XUDNAN_clean_linker_2, # of connection points: 2
#     Edge 18, Type (0, 0), BuildingBlock: XUDNAN_clean_linker_2, # of connection points: 2
#     Edge 19, Type (0, 0), BuildingBlock: XUDNAN_clean_linker_2, # of connection points: 2
#     Edge 20, Type (0, 0), BuildingBlock: XUDNAN_clean_linker_2, # of connection points: 2
#     Edge 21, Type (0, 0), BuildingBlock: XUDNAN_clean_linker_2, # of connection points: 2
#     Edge 22, Type (0, 0), BuildingBlock: XUDNAN_clean_linker_2, # of connection points: 2
#     Edge 23, Type (0, 0), BuildingBlock: XUDNAN_clean_linker_2, # of connection points: 2
#     Edge 24, Type (0, 0), BuildingBlock: XUDNAN_clean_linker_2, # of connection points: 2
#     Edge 25, Type (0, 0), BuildingBlock: XUDNAN_clean_linker_2, # of connection points: 2
#     Edge 26, Type (0, 0), BuildingBlock: XUDNAN_clean_linker_2, # of connection points: 2
#     Edge 27, Type (0, 0), BuildingBlock: XUDNAN_clean_linker_2, # of connection points: 2
#     Edge 28, Type (0, 0), BuildingBlock: XUDNAN_clean_linker_2, # of connection points: 2
#     Edge 29, Type (0, 0), BuildingBlock: XUDNAN_clean_linker_2, # of connection points: 2
#     Edge 30, Type (0, 0), BuildingBlock: XUDNAN_clean_linker_2, # of connection points: 2
#     Edge 31, Type (0, 0), BuildingBlock: XUDNAN_clean_linker_2, # of connection points: 2
#     Edge 32, Type (0, 0), BuildingBlock: XUDNAN_clean_linker_2, # of connection points: 2
#     Edge 33, Type (0, 0), BuildingBlock: XUDNAN_clean_linker_2, # of connection points: 2
#     Edge 34, Type (0, 0), BuildingBlock: XUDNAN_clean_linker_2, # of connection points: 2
#     Edge 35, Type (0, 0), BuildingBlock: XUDNAN_clean_linker_2, # of connection points: 2
#     Edge 36, Type (0, 0), BuildingBlock: XUDNAN_clean_linker_2, # of connection points: 2
#     Edge 37, Type (0, 0), BuildingBlock: XUDNAN_clean_linker_2, # of connection points: 2
#     Edge 38, Type (0, 0), BuildingBlock: XUDNAN_clean_linker_2, # of connection points: 2
#     Edge 39, Type (0, 0), BuildingBlock: XUDNAN_clean_linker_2, # of connection points: 2
#     Edge 40, Type (0, 0), BuildingBlock: XUDNAN_clean_linker_2, # of connection points: 2
#     Edge 41, Type (0, 0), BuildingBlock: XUDNAN_clean_linker_2, # of connection points: 2
#     Edge 42, Type (0, 0), BuildingBlock: XUDNAN_clean_linker_2, # of connection points: 2
#     Edge 43, Type (0, 0), BuildingBlock: XUDNAN_clean_linker_2, # of connection points: 2
#     Edge 44, Type (0, 0), BuildingBlock: XUDNAN_clean_linker_2, # of connection points: 2
#     Edge 45, Type (0, 0), BuildingBlock: XUDNAN_clean_linker_2, # of connection points: 2
#     Edge 46, Type (0, 0), BuildingBlock: XUDNAN_clean_linker_2, # of connection points: 2
#     Edge 47, Type (0, 0), BuildingBlock: XUDNAN_clean_linker_2, # of connection points: 2
# Relax obj value: 0.156
# Max RMSD: 0.205
# Mean RMSD: 0.205
data_MOF--net-wme--node1-FUNLAD_clean_sbu_0--edge1-XUDNAN_clean_linker_2
_symmetry_space_group_name_H-M    P1
_symmetry_Int_Tables_number       1
_symmetry_cell_setting            triclinic
loop_
_symmetry_equiv_pos_as_xyz
'x, y, z'
_cell_length_a     28.102911
_cell_length_b     27.992273
_cell_length_c     84.78084
_cell_angle_alpha  90.013833
_cell_angle_beta   90.079664
_cell_angle_gamma 120.058
loop_
_atom_site_label
_atom_site_type_symbol
_atom_site_fract_x
_atom_site_fract_y
_atom_site_fract_z
_atom_type_partial_charge
C0 C 0.24996 0.24031 0.14965 0.0
N1 N 0.22595 0.29778 0.10662 0.0
C2 C 0.26723 0.2882 0.10251 0.0
C3 C 0.2784 0.28427 0.08675 0.0
C4 C 0.24788 0.29153 0.07486 0.0
C5 C 0.20397 0.29926 0.07932 0.0
C6 C 0.19368 0.30233 0.0954 0.0
Zn7 Zn 0.22254 0.31247 0.13033 0.0
C8 C 0.1171 0.24828 0.14571 0.0
N9 N 0.22958 0.34529 0.17988 0.0
C10 C 0.26633 0.34229 0.1897 0.0
C11 C 0.18639 0.34898 0.18572 0.0
C12 C 0.17687 0.3461 0.20196 0.0
C13 C 0.21192 0.33901 0.21228 0.0
C14 C 0.25821 0.33903 0.20601 0.0
Zn15 Zn 0.23173 0.33192 0.15613 0.0
O16 O 0.23973 0.24999 0.13583 0.0
C17 C 0.33607 0.39958 0.1411 0.0
O18 O 0.25095 0.27029 0.16099 0.0
H19 H 0.15732 0.35089 0.17775 0.0
H20 H 0.29329 0.28563 0.11144 0.0
H21 H 0.3004 0.33946 0.18484 0.0
O22 O 0.30717 0.37171 0.1294 0.0
O23 O 0.3145 0.39073 0.15471 0.0
H24 H 0.16129 0.31034 0.09887 0.0
O25 O 0.21065 0.39223 0.15084 0.0
O26 O 0.20319 0.37378 0.12545 0.0
O27 O 0.14865 0.27373 0.1572 0.0
O28 O 0.13692 0.25488 0.13186 0.0
C29 C 0.19907 0.40047 0.13697 0.0
H30 H 0.3118 0.27694 0.08394 0.0
H31 H 0.17942 0.30516 0.07052 0.0
H32 H 0.1405 0.3459 0.20627 0.0
H33 H 0.28673 0.33447 0.21359 0.0
C34 C 0.0141 0.26464 0.64802 0.0
N35 N 0.93929 0.26549 0.60527 0.0
C36 C -0.00995 0.30942 0.60237 0.0
C37 C 0.00772 0.32611 0.58696 0.0
C38 C 0.97258 0.2983 0.57422 0.0
C39 C 0.9205 0.25256 0.57752 0.0
C40 C 0.90471 0.23667 0.5932 0.0
Zn41 Zn 0.91661 0.24755 0.62858 0.0
C42 C 0.87554 0.13319 0.63753 0.0
N43 N 0.87912 0.21918 0.67782 0.0
C44 C 0.91293 0.24756 0.69007 0.0
C45 C 0.82836 0.17482 0.68042 0.0
C46 C 0.81001 0.15706 0.69569 0.0
C47 C 0.84448 0.18411 0.70859 0.0
C48 C 0.8964 0.23054 0.70565 0.0
Zn49 Zn 0.90244 0.23773 0.65465 0.0
O50 O -0.00401 0.26424 0.63427 0.0
C51 C 0.93787 0.35083 0.64558 0.0
O52 O 0.98309 0.25507 0.6599 0.0
H53 H 0.80209 0.15219 0.67061 0.0
H54 H 0.01692 0.33229 0.61206 0.0
H55 H 0.95319 0.28262 0.68777 0.0
O56 O 0.93958 0.33046 0.63235 0.0
O57 O 0.92421 0.32088 0.65788 0.0
H58 H 0.86444 0.20194 0.59572 0.0
O59 O 0.82194 0.21891 0.64882 0.0
O60 O 0.83643 0.22876 0.6233 0.0
O61 O 0.87905 0.15474 0.65096 0.0
O62 O 0.89066 0.16336 0.62527 0.0
C63 C 0.80389 0.21605 0.63491 0.0
H64 H 0.0487 0.36069 0.58512 0.0
H65 H 0.89165 0.23004 0.56815 0.0
H66 H 0.76917 0.12193 0.6973 0.0
H67 H 0.9246 0.2525 0.7152 0.0
C68 C 0.72484 0.00532 0.14768 0.0
N69 N 0.66307 0.91967 0.10502 0.0
C70 C 0.66483 0.96544 0.09884 0.0
C71 C 0.66979 0.97469 0.08254 0.0
C72 C 0.6728 0.93638 0.07249 0.0
C73 C 0.67229 0.89028 0.07927 0.0
C74 C 0.66728 0.88265 0.09558 0.0
Zn75 Zn 0.65146 0.90415 0.12885 0.0
C76 C 0.72475 0.86735 0.14228 0.0
N77 N 0.62971 0.874 0.17882 0.0
C78 C 0.62548 0.90754 0.18969 0.0
C79 C 0.62693 0.82593 0.18328 0.0
C80 C 0.61864 0.8094 0.19901 0.0
C81 C 0.61345 0.84261 0.21048 0.0
C82 C 0.6176 0.89269 0.20571 0.0
Zn83 Zn 0.64107 0.89216 0.155 0.0
O84 O 0.71176 0.98564 0.13382 0.0
C85 C 0.56213 0.92132 0.1413 0.0
O86 O 0.69916 0.9753 0.15946 0.0
H87 H 0.63113 0.79999 0.1746 0.0
H88 H 0.66141 -0.00561 0.10654 0.0
H89 H 0.62799 0.94568 0.18595 0.0
O90 O 0.5893 0.92511 0.12892 0.0
O91 O 0.57585 0.90932 0.15439 0.0
H92 H 0.66602 0.84663 0.10068 0.0
O93 O 0.58498 0.80915 0.14983 0.0
O94 O 0.59285 0.82209 0.12423 0.0
O95 O 0.70458 0.87284 0.15507 0.0
O96 O 0.7111 0.87961 0.12927 0.0
C97 C 0.57288 0.78986 0.13592 0.0
H98 H 0.66961 0.01057 0.07785 0.0
H99 H 0.67548 0.86013 0.07203 0.0
H100 H 0.61673 0.77099 0.20218 0.0
H101 H 0.6137 0.91945 0.21419 0.0
C102 C 0.71735 0.74247 0.64553 0.0
N103 N 0.75859 0.68428 0.60565 0.0
C104 C 0.71271 0.67842 0.59838 0.0
C105 C 0.71278 0.68767 0.58219 0.0
C106 C 0.76077 0.70398 0.57341 0.0
C107 C 0.80742 0.70932 0.58115 0.0
C108 C 0.80531 0.69883 0.59733 0.0
Zn109 Zn 0.75693 0.67342 0.62968 0.0
C110 C 0.85822 0.74886 0.64579 0.0
N111 N 0.74967 0.65244 0.68001 0.0
C112 C 0.71595 0.65756 0.69058 0.0
C113 C 0.79389 0.64893 0.68504 0.0
C114 C 0.80709 0.65288 0.70096 0.0
C115 C 0.77513 0.66122 0.71206 0.0
C116 C 0.72788 0.66177 0.70682 0.0
Zn117 Zn 0.74636 0.66062 0.65581 0.0
O118 O 0.72787 0.7278 0.63245 0.0
C119 C 0.64621 0.58162 0.64015 0.0
O120 O 0.72165 0.72093 0.6583 0.0
H121 H 0.8213 0.64619 0.67666 0.0
H122 H 0.67614 0.66744 0.60518 0.0
H123 H 0.68139 0.66097 0.68641 0.0
O124 O 0.67604 0.60678 0.62831 0.0
O125 O 0.66486 0.59686 0.65405 0.0
H126 H 0.84127 0.70301 0.60328 0.0
O127 O 0.7734 0.60222 0.65239 0.0
O128 O 0.78746 0.62002 0.62708 0.0
O129 O 0.82719 0.72282 0.65721 0.0
O130 O 0.83904 0.73895 0.63184 0.0
C131 C 0.79086 0.59548 0.63923 0.0
H132 H 0.67617 0.68376 0.57669 0.0
H133 H 0.84512 0.72151 0.57474 0.0
H134 H 0.84347 0.65153 0.7045 0.0
H135 H 0.70225 0.66827 0.71506 0.0
C136 C 0.95187 0.70697 0.15233 0.0
N137 N 0.03153 0.73405 0.10884 0.0
C138 C 0.98158 0.68936 0.10555 0.0
C139 C 0.96256 0.67652 0.09011 0.0
C140 C -0.00432 0.70848 0.07754 0.0
C141 C 0.04695 0.75507 0.08118 0.0
C142 C 0.0641 0.76725 0.09701 0.0
Zn143 Zn 0.05391 0.74267 0.13249 0.0
C144 C 0.08443 0.84682 0.14731 0.0
N145 N 0.08572 0.74462 0.18207 0.0
C146 C 0.06833 0.77174 0.19169 0.0
C147 C 0.12289 0.73044 0.18722 0.0
C148 C 0.14593 0.74587 0.20232 0.0
C149 C 0.1308 0.77641 0.21221 0.0
C150 C 0.0904 0.78811 0.20682 0.0
Zn151 Zn 0.06441 0.73684 0.15857 0.0
O152 O 0.97291 0.71727 0.13867 0.0
C153 C 0.03823 0.63357 0.14414 0.0
O154 O 0.98122 0.71099 0.16422 0.0
H155 H 0.13648 0.70918 0.17939 0.0
H156 H 0.95637 0.66238 0.11489 0.0
H157 H 0.03929 0.7833 0.18736 0.0
O158 O 0.0372 0.66049 0.13221 0.0
O159 O 0.0477 0.6556 0.15774 0.0
H160 H 0.1039 0.80236 0.09978 0.0
O161 O 0.14803 0.76534 0.15242 0.0
O162 O 0.13604 0.77007 0.12696 0.0
O163 O 0.08189 0.81717 0.1589 0.0
O164 O 0.0733 0.8263 0.13347 0.0
C165 C 0.16775 0.77741 0.13854 0.0
H166 H 0.92213 0.64117 0.08812 0.0
H167 H 0.07422 0.78091 0.07194 0.0
H168 H 0.17617 0.73501 0.20604 0.0
H169 H 0.0778 0.81209 0.21387 0.0
C170 C 0.24998 0.9734 0.6476 0.0
N171 N 0.30539 0.05752 0.60495 0.0
C172 C 0.30664 0.01354 0.59852 0.0
C173 C 0.29286 -0.0005 0.58267 0.0
C174 C 0.27643 0.03019 0.5734 0.0
C175 C 0.2758 0.07555 0.58025 0.0
C176 C 0.29102 0.0889 0.59607 0.0
Zn177 Zn 0.32171 0.07316 0.62878 0.0
C178 C 0.25295 0.11349 0.6437 0.0
N179 N 0.35091 0.1006 0.67891 0.0
C180 C 0.34767 0.05921 0.68808 0.0
C181 C 0.36166 0.14948 0.68545 0.0
C182 C 0.36969 0.15809 0.70176 0.0
C183 C 0.36577 0.11572 0.71159 0.0
C184 C 0.35428 0.06562 0.70442 0.0
Zn185 Zn 0.33627 0.08676 0.6549 0.0
O186 O 0.26211 0.99174 0.63362 0.0
C187 C 0.41013 0.05345 0.63955 0.0
O188 O 0.2762 0.0046 0.65911 0.0
H189 H 0.36381 0.18194 0.67804 0.0
H190 H 0.31734 0.9885 0.60575 0.0
H191 H 0.33923 0.02065 0.68275 0.0
O192 O 0.3826 0.05162 0.62746 0.0
O193 O 0.39815 0.0653 0.65292 0.0
H194 H 0.29047 0.12384 0.60131 0.0
O195 O 0.39452 0.16892 0.64989 0.0
O196 O 0.38036 0.15554 0.62433 0.0
O197 O 0.27585 0.11041 0.65628 0.0
O198 O 0.26299 0.09797 0.63066 0.0
C199 C 0.40409 0.18773 0.6359 0.0
H200 H 0.29335 0.9639 0.57785 0.0
H201 H 0.26364 0.10041 0.57343 0.0
H202 H 0.37924 0.19778 0.70654 0.0
H203 H 0.34942 0.03098 0.71134 0.0
C204 C 0.73934 0.73181 0.38686 0.0
N205 N 0.67085 0.74341 0.42962 0.0
C206 C 0.67406 0.69984 0.43551 0.0
C207 C 0.68707 0.69886 0.45141 0.0
C208 C 0.69781 0.74359 0.46121 0.0
C209 C 0.69279 0.78723 0.45494 0.0
C210 C 0.67871 0.78607 0.43909 0.0
Zn211 Zn 0.6598 0.74864 0.40583 0.0
C212 C 0.7299 0.86382 0.39448 0.0
N213 N 0.64284 0.7645 0.35594 0.0
C214 C 0.63903 0.72444 0.34605 0.0
C215 C 0.639 0.80805 0.35032 0.0
C216 C 0.63044 0.81216 0.33423 0.0
C217 C 0.62526 0.7708 0.3238 0.0
C218 C 0.63009 0.72673 0.32991 0.0
Zn219 Zn 0.65296 0.75789 0.3798 0.0
O220 O 0.72274 0.73078 0.40087 0.0
C221 C 0.57848 0.64391 0.39157 0.0
O222 O 0.71591 0.74115 0.37543 0.0
H223 H 0.64189 0.83942 0.35836 0.0
H224 H 0.66801 0.6665 0.42779 0.0
H225 H 0.64247 0.69032 0.35069 0.0
O226 O 0.59972 0.66485 0.40484 0.0
O227 O 0.59469 0.67343 0.3792 0.0
H228 H 0.67549 0.82008 0.43427 0.0
O229 O 0.59106 0.7761 0.38467 0.0
O230 O 0.59867 0.76903 0.41025 0.0
O231 O 0.71037 0.84287 0.38107 0.0
O232 O 0.71761 0.83286 0.40649 0.0
C233 C 0.57741 0.78036 0.39864 0.0
H234 H 0.69085 0.66461 0.45584 0.0
H235 H 0.7003 0.8222 0.4622 0.0
H236 H 0.62649 0.84659 0.33006 0.0
H237 H 0.6271 0.69429 0.32228 0.0
C238 C 0.97809 0.73766 0.89443 0.0
N239 N 0.8736 0.65578 0.93276 0.0
C240 C 0.92137 0.66197 0.93878 0.0
C241 C 0.92974 0.66384 0.95505 0.0
C242 C 0.88827 0.65832 0.96527 0.0
C243 C 0.83903 0.65124 0.9589 0.0
C244 C 0.83268 0.65061 0.94247 0.0
Zn245 Zn 0.86738 0.65636 0.9085 0.0
C246 C 0.83613 0.73509 0.89713 0.0
N247 N 0.86408 0.66083 0.85794 0.0
C248 C 0.90325 0.66082 0.84853 0.0
C249 C 0.82092 0.66364 0.85164 0.0
C250 C 0.81614 0.66703 0.83534 0.0
C251 C 0.85641 0.66809 0.82535 0.0
C252 C 0.90027 0.66458 0.83214 0.0
Zn253 Zn 0.86932 0.65864 0.88212 0.0
O254 O 0.95197 0.72038 0.90734 0.0
C255 C 0.89472 0.57482 0.89403 0.0
O256 O 0.95338 0.71746 0.88148 0.0
H257 H 0.79038 0.66408 0.85927 0.0
H258 H 0.95321 0.6653 0.93096 0.0
H259 H 0.93717 0.65849 0.85376 0.0
O260 O 0.89006 0.59521 0.90694 0.0
O261 O 0.88763 0.59317 0.88102 0.0
H262 H 0.79508 0.64584 0.93749 0.0
O263 O 0.78643 0.60172 0.88294 0.0
O264 O 0.78115 0.59448 0.90874 0.0
O265 O 0.84821 0.72211 0.88395 0.0
O266 O 0.84312 0.71512 0.90977 0.0
C267 C 0.75766 0.58238 0.89527 0.0
H268 H 0.96785 0.66847 0.95963 0.0
H269 H 0.80598 0.64627 0.96653 0.0
H270 H 0.78208 0.6704 0.83064 0.0
H271 H 0.93198 0.66477 0.82485 0.0
C272 C 0.27213 0.02943 0.39197 0.0
N273 N 0.22746 0.91462 0.42851 0.0
C274 C 0.27168 0.95492 0.43638 0.0
C275 C 0.26969 0.96129 0.45266 0.0
C276 C 0.22148 0.92638 0.46101 0.0
C277 C 0.17666 0.88448 0.45267 0.0
C278 C 0.18063 0.87912 0.43636 0.0
Zn279 Zn 0.23241 0.91374 0.40421 0.0
C280 C 0.13279 0.89328 0.38803 0.0
N281 N 0.2499 0.92318 0.35378 0.0
C282 C 0.29244 0.95987 0.34466 0.0
C283 C 0.20506 0.87948 0.34713 0.0
C284 C 0.20165 0.87102 0.33091 0.0
C285 C 0.24456 0.90792 0.32112 0.0
C286 C 0.29063 0.95294 0.32819 0.0
Zn287 Zn 0.24767 0.92611 0.37814 0.0
O288 O 0.25883 -0.00172 0.404 0.0
C289 C 0.34581 0.94182 0.39423 0.0
O290 O 0.27227 0.0102 0.37839 0.0
H291 H 0.17166 0.85018 0.35442 0.0
H292 H 0.30825 0.98343 0.42998 0.0
H293 H 0.32785 -0.00576 0.35012 0.0
O294 O 0.31355 0.931 0.40584 0.0
O295 O 0.32949 0.94375 0.38035 0.0
H296 H 0.14584 0.84742 0.42992 0.0
O297 O 0.2213 0.84211 0.37837 0.0
O298 O 0.20422 0.828 0.40371 0.0
O299 O 0.16564 0.9068 0.37649 0.0
O300 O 0.15041 0.89482 0.40193 0.0
C301 C 0.20324 0.80925 0.38997 0.0
H302 H 0.3049 -0.00533 0.45854 0.0
H303 H 0.13879 0.85644 0.45868 0.0
H304 H 0.16594 0.83494 0.32616 0.0
H305 H 0.32467 0.98259 0.3211 0.0
C306 C 0.2266 0.19046 0.88733 0.0
N307 N 0.30755 0.22157 0.9308 0.0
C308 C 0.28085 0.24872 0.93529 0.0
C309 C 0.27517 0.25712 0.95128 0.0
C310 C 0.29812 0.23832 0.96268 0.0
C311 C 0.32384 0.20896 0.95777 0.0
C312 C 0.32765 0.20052 0.9417 0.0
Zn313 Zn 0.32299 0.21694 0.90734 0.0
C314 C 0.29106 0.10486 0.89682 0.0
N315 N 0.35466 0.21073 0.85767 0.0
C316 C 0.32494 0.21733 0.84603 0.0
C317 C 0.39267 0.19589 0.85403 0.0
C318 C 0.40142 0.18649 0.8384 0.0
C319 C 0.36929 0.18991 0.82616 0.0
C320 C 0.33111 0.2065 0.83023 0.0
Zn321 Zn 0.33867 0.21638 0.88143 0.0
O322 O 0.24479 0.20176 0.90135 0.0
C323 C 0.37405 0.32825 0.89211 0.0
O324 O 0.25829 0.19433 0.87617 0.0
H325 H 0.41566 0.1899 0.86327 0.0
H326 H 0.26551 0.26549 0.92645 0.0
H327 H 0.29501 0.22938 0.84897 0.0
O328 O 0.35738 0.30284 0.90516 0.0
O329 O 0.36554 0.30083 0.8794 0.0
H330 H 0.34829 0.17866 0.93793 0.0
O331 O 0.41886 0.23916 0.88754 0.0
O332 O 0.40166 0.23153 0.91297 0.0
O333 O 0.31203 0.13124 0.88412 0.0
O334 O 0.28998 0.13089 0.90899 0.0
C335 C 0.43511 0.2429 0.90168 0.0
H336 H 0.2555 0.28038 0.95468 0.0
H337 H 0.34188 0.19376 0.96628 0.0
H338 H 0.43281 0.17585 0.83609 0.0
H339 H 0.30474 0.20945 0.82145 0.0
C340 C 0.96846 0.25495 0.3924 0.0
N341 N 0.07502 0.35176 0.42884 0.0
C342 C 0.02861 0.34925 0.43462 0.0
C343 C 0.02164 0.35163 0.45085 0.0
C344 C 0.06318 0.35757 0.46117 0.0
C345 C 0.11121 0.36146 0.45498 0.0
C346 C 0.11616 0.35801 0.43866 0.0
Zn347 Zn 0.07981 0.34129 0.40501 0.0
C348 C 0.10606 0.25535 0.39794 0.0
N349 N 0.08217 0.31479 0.35529 0.0
C350 C 0.04849 0.31663 0.34403 0.0
C351 C 0.1249 0.30733 0.35127 0.0
C352 C 0.13489 0.30084 0.33559 0.0
C353 C 0.10094 0.30229 0.3237 0.0
C354 C 0.05738 0.31071 0.32802 0.0
Zn355 Zn 0.07499 0.32591 0.37902 0.0
O356 O -0.00447 0.28011 0.40467 0.0
C357 C 0.05456 0.41616 0.38632 0.0
O358 O -0.00811 0.26731 0.37903 0.0
H359 H 0.1521 0.30705 0.36024 0.0
H360 H -0.00351 0.34459 0.42665 0.0
H361 H 0.01498 0.32299 0.34743 0.0
O362 O 0.06072 0.40305 0.40021 0.0
O363 O 0.05735 0.38927 0.3746 0.0
H364 H 0.15251 0.35948 0.43386 0.0
O365 O 0.15816 0.38327 0.37927 0.0
O366 O 0.16519 0.40051 0.40465 0.0
O367 O 0.09443 0.26392 0.38413 0.0
O368 O 0.10099 0.28111 0.40951 0.0
C369 C 0.18764 0.40751 0.39119 0.0
H370 H 0.98424 0.34888 0.45531 0.0
H371 H 0.14401 0.36614 0.46271 0.0
H372 H 0.16964 0.29565 0.33278 0.0
H373 H 0.03026 0.31208 0.31918 0.0
C374 C 0.6917 0.97554 0.88941 0.0
N375 N 0.76034 0.07452 0.92882 0.0
C376 C 0.76547 0.03096 0.93368 0.0
C377 C 0.75546 0.01349 0.94932 0.0
C378 C 0.73984 0.04084 0.96019 0.0
C379 C 0.73806 0.08778 0.95518 0.0
C380 C 0.74828 0.10388 0.93929 0.0
Zn381 Zn 0.76118 0.08551 0.90472 0.0
C382 C 0.84421 0.06885 0.88867 0.0
N383 N 0.75639 0.09614 0.85435 0.0
C384 C 0.76254 0.05819 0.84594 0.0
C385 C 0.75262 0.13735 0.84698 0.0
C386 C 0.755 0.14133 0.83049 0.0
C387 C 0.76128 0.10248 0.82156 0.0
C388 C 0.76526 0.0607 0.82955 0.0
Zn389 Zn 0.75638 0.08978 0.87846 0.0
O390 O 0.70671 0.00048 0.90254 0.0
C391 C 0.67659 0.11063 0.89403 0.0
O392 O 0.70426 0.00352 0.87678 0.0
H393 H 0.74807 0.16732 0.85388 0.0
H394 H 0.77461 0.00769 0.92526 0.0
H395 H 0.76609 0.02606 0.85195 0.0
O396 O 0.6964 0.10146 0.90637 0.0
O397 O 0.69126 0.1037 0.88046 0.0
H398 H 0.74401 0.13815 0.9352 0.0
O399 O 0.8094 0.17627 0.88065 0.0
O400 O 0.81621 0.17157 0.90641 0.0
O401 O 0.82236 0.07725 0.87673 0.0
O402 O 0.82746 0.0711 0.90239 0.0
C403 C 0.82792 0.20023 0.89385 0.0
H404 H 0.758 0.97755 0.95275 0.0
H405 H 0.72598 0.10987 0.96322 0.0
H406 H 0.75148 0.17406 0.82481 0.0
H407 H 0.77137 0.03058 0.82323 0.0
H408 H 0.12994 0.93167 0.12582 0.0
H409 H 0.09401 0.89551 0.17566 0.0
H410 H 0.15 -0.00589 0.18192 0.0
H411 H 0.27002 0.04442 0.13042 0.0
H412 H 0.26457 0.0854 0.11489 0.0
H413 H 0.22412 0.01115 0.11404 0.0
H414 H 0.13422 0.01556 0.11179 0.0
H415 H 0.17473 0.08963 0.112 0.0
H416 H 0.12043 0.05443 0.12621 0.0
H417 H 0.20789 0.09489 0.18305 0.0
H418 H 0.24584 0.19416 0.17836 0.0
H419 H 0.24473 0.16629 0.12791 0.0
C420 C 0.13332 0.94467 0.138 0.0
C421 C 0.1082 0.90606 0.15025 0.0
C422 C 0.11342 0.9245 0.16608 0.0
C423 C 0.14567 0.9803 0.16981 0.0
C424 C 0.17218 0.0171 0.15757 0.0
C425 C 0.16528 0.00045 0.14197 0.0
C426 C 0.19451 0.04927 0.13103 0.0
C427 C 0.24107 0.04742 0.12207 0.0
C428 C 0.15353 0.05242 0.1196 0.0
C429 C 0.21716 0.09584 0.14295 0.0
C430 C 0.20522 0.0762 0.15821 0.0
C431 C 0.21796 0.11106 0.17118 0.0
C432 C 0.23987 0.16744 0.1684 0.0
C433 C 0.2476 0.18763 0.15277 0.0
C434 C 0.23944 0.15194 0.13999 0.0
H435 H 0.17959 0.11305 0.66527 0.0
H436 H 0.26612 0.18864 0.62184 0.0
H437 H 0.22777 0.25071 0.62195 0.0
H438 H 0.057 0.1087 0.65378 0.0
H439 H 0.03994 0.12159 0.67321 0.0
H440 H 0.08093 0.08921 0.67102 0.0
H441 H 0.15656 0.16565 0.68853 0.0
H442 H 0.11607 0.19896 0.69042 0.0
H443 H 0.18538 0.23705 0.683 0.0
H444 H 0.17686 0.29938 0.62533 0.0
H445 H 0.10178 0.31952 0.62879 0.0
H446 H 0.04327 0.2108 0.66937 0.0
C447 C 0.19052 0.14303 0.6559 0.0
C448 C 0.22554 0.14629 0.64354 0.0
C449 C 0.23871 0.18526 0.6313 0.0
C450 C 0.21795 0.22128 0.63141 0.0
C451 C 0.18369 0.21743 0.64376 0.0
C452 C 0.16893 0.17856 0.6556 0.0
C453 C 0.12528 0.17815 0.66617 0.0
C454 C 0.07269 0.12105 0.66602 0.0
C455 C 0.14715 0.19603 0.68303 0.0
C456 C 0.11655 0.22144 0.65804 0.0
C457 C 0.15217 0.24479 0.64547 0.0
C458 C 0.14919 0.2821 0.63525 0.0
C459 C 0.10656 0.29342 0.63733 0.0
C460 C 0.06727 0.267 0.64941 0.0
C461 C 0.07381 0.23268 0.66034 0.0
H462 H 0.79984 0.06679 0.12521 0.0
H463 H 0.76886 0.05895 0.17557 0.0
H464 H 0.86622 0.12828 0.18009 0.0
H465 H 0.91692 0.0643 0.12778 0.0
H466 H 0.95348 0.111 0.11184 0.0
H467 H 0.87961 0.07256 0.11169 0.0
H468 H 0.87543 0.16266 0.10956 0.0
H469 H 0.94951 0.20163 0.10914 0.0
H470 H 0.91249 0.21744 0.12361 0.0
H471 H 0.96764 0.18198 0.17968 0.0
H472 H 0.06658 0.22723 0.17428 0.0
H473 H 0.03283 0.19852 0.12407 0.0
C474 C 0.81284 0.08143 0.13713 0.0
C475 C 0.77679 0.05753 0.15006 0.0
C476 C 0.79571 0.07695 0.1655 0.0
C477 C 0.85098 0.11619 0.16818 0.0
C478 C 0.88632 0.13572 0.15527 0.0
C479 C 0.86788 0.11998 0.14 0.0
C480 C 0.9152 0.14183 0.12841 0.0
C481 C 0.91632 0.09459 0.11941 0.0
C482 C 0.91303 0.18338 0.11701 0.0
C483 C 0.96326 0.17009 0.13965 0.0
C484 C 0.94556 0.16658 0.15504 0.0
C485 C 0.98204 0.18617 0.16765 0.0
C486 C 0.0382 0.21131 0.16443 0.0
C487 C 0.05748 0.21652 0.14871 0.0
C488 C 0.01936 0.19524 0.13618 0.0
H489 H 0.76043 0.82605 0.66695 0.0
H490 H 0.66978 0.77312 0.62297 0.0
H491 H 0.6961 0.86926 0.61692 0.0
H492 H 0.73687 0.94902 0.67431 0.0
H493 H 0.80542 0.98902 0.68221 0.0
H494 H 0.76728 0.91527 0.685 0.0
H495 H 0.84815 0.90903 0.67261 0.0
H496 H 0.88558 0.98214 0.66908 0.0
H497 H 0.87042 0.93478 0.65291 0.0
H498 H 0.75075 0.97016 0.61244 0.0
H499 H 0.81375 0.07112 0.61272 0.0
H500 H 0.86779 0.05941 0.6598 0.0
C501 C 0.7432 0.83438 0.65658 0.0
C502 C 0.71277 0.79244 0.64548 0.0
C503 C 0.69267 0.80487 0.63168 0.0
C504 C 0.70777 0.85938 0.62809 0.0
C505 C 0.74216 0.90063 0.63856 0.0
C506 C 0.75807 0.88878 0.65282 0.0
C507 C 0.79975 0.94114 0.66115 0.0
C508 C 0.77589 0.94908 0.67658 0.0
C509 C 0.85416 0.94175 0.6641 0.0
C510 C 0.80686 0.98368 0.64896 0.0
C511 C 0.77326 0.9595 0.63604 0.0
C512 C 0.77615 0.98986 0.62268 0.0
C513 C 0.81271 0.04692 0.62282 0.0
C514 C 0.84548 0.07275 0.63627 0.0
C515 C 0.84287 0.04057 0.6494 0.0
H516 H 0.92206 0.76089 0.17316 0.0
H517 H 0.864 0.64791 0.13355 0.0
H518 H 0.7925 0.67198 0.12818 0.0
H519 H 0.77969 0.74399 0.18404 0.0
H520 H 0.81237 0.81627 0.18896 0.0
H521 H 0.84778 0.77848 0.19248 0.0
H522 H 0.9296 0.85106 0.17601 0.0
H523 H 0.89381 0.88774 0.17177 0.0
H524 H 0.91834 0.86324 0.15582 0.0
H525 H 0.74803 0.7263 0.12242 0.0
H526 H 0.71404 0.79196 0.12055 0.0
H527 H 0.79635 0.86825 0.16451 0.0
C528 C 0.89169 0.73843 0.16411 0.0
C529 C 0.89768 0.702 0.15389 0.0
C530 C 0.85916 0.67519 0.14163 0.0
C531 C 0.81878 0.689 0.13841 0.0
C532 C 0.8171 0.729 0.14776 0.0
C533 C 0.85099 0.75192 0.16075 0.0
C534 C 0.8448 0.79851 0.16768 0.0
C535 C 0.81964 0.78339 0.18428 0.0
C536 C 0.89992 0.85334 0.16782 0.0
C537 C 0.80494 0.80028 0.15598 0.0
C538 C 0.78962 0.75983 0.1446 0.0
C539 C 0.75819 0.75699 0.13154 0.0
C540 C 0.74 0.79511 0.13042 0.0
C541 C 0.75284 0.83507 0.14236 0.0
C542 C 0.78585 0.8378 0.15528 0.0
H543 H 0.94228 0.79007 0.62425 0.0
H544 H 0.90772 0.78107 0.67446 0.0
H545 H 0.0061 0.82136 0.68031 0.0
H546 H 0.05345 0.75933 0.62687 0.0
H547 H 0.09385 0.80801 0.61173 0.0
H548 H 0.01989 0.77492 0.61122 0.0
H549 H 0.0252 0.87025 0.61075 0.0
H550 H 0.09892 0.90319 0.61063 0.0
H551 H 0.06487 0.92067 0.62565 0.0
H552 H 0.10687 0.86466 0.68094 0.0
H553 H 0.20549 0.92694 0.6761 0.0
H554 H 0.17542 0.90703 0.6256 0.0
C555 C 0.95552 0.79714 0.63646 0.0
C556 C 0.91744 0.78224 0.64888 0.0
C557 C 0.93626 0.79206 0.66472 0.0
C558 C -0.00807 0.81419 0.6682 0.0
C559 C 0.02816 0.82622 0.65573 0.0
C560 C 0.01104 0.81927 0.64017 0.0
C561 C 0.05915 0.84015 0.62899 0.0
C562 C 0.0564 0.79276 0.61912 0.0
C563 C 0.06223 0.88632 0.61839 0.0
C564 C 0.10602 0.86189 0.64073 0.0
C565 C 0.0871 0.85192 0.65609 0.0
C566 C 0.12244 0.87238 0.66899 0.0
C567 C 0.17844 0.90747 0.66612 0.0
C568 C 0.1979 0.92217 0.65048 0.0
C569 C 0.16178 0.89616 0.63769 0.0
H570 H 0.04908 0.85483 0.40962 0.0
H571 H 0.08256 0.87143 0.35927 0.0
H572 H 0.98344 0.81626 0.35379 0.0
H573 H 0.93281 0.71468 0.40862 0.0
H574 H 0.8949 0.72793 0.42344 0.0
H575 H 0.969 0.76592 0.42366 0.0
H576 H 0.9691 0.85867 0.42277 0.0
H577 H 0.89521 0.8209 0.42304 0.0
H578 H 0.93102 0.86967 0.40746 0.0
H579 H 0.8819 0.76259 0.35357 0.0
H580 H 0.78371 0.72823 0.35857 0.0
H581 H 0.81575 0.7458 0.40897 0.0
C582 C 0.03555 0.84709 0.39744 0.0
C583 C 0.0735 0.86728 0.38489 0.0
C584 C 0.0542 0.85647 0.36911 0.0
C585 C -0.00197 0.82455 0.36585 0.0
C586 C 0.96182 0.80381 0.37849 0.0
C587 C 0.9796 0.81543 0.39396 0.0
C588 C 0.93179 0.79189 0.40531 0.0
C589 C 0.93217 0.74746 0.41588 0.0
C590 C 0.93177 0.83802 0.41522 0.0
C591 C 0.88436 0.76674 0.39376 0.0
C592 C 0.90265 0.77291 0.37837 0.0
C593 C 0.86687 0.75697 0.36556 0.0
C594 C 0.81117 0.7373 0.36852 0.0
C595 C 0.79226 0.73451 0.38415 0.0
C596 C 0.82886 0.74666 0.39692 0.0
H597 H 0.0292 0.81899 0.9165 0.0
H598 H 0.05523 0.76107 0.87166 0.0
H599 H 0.14761 0.84373 0.86988 0.0
H600 H 0.08401 0.95409 0.90494 0.0
H601 H 0.11475 0.98451 0.92365 0.0
H602 H 0.05586 0.91622 0.92297 0.0
H603 H 0.11008 0.87849 0.93828 0.0
H604 H 0.16937 0.94693 0.93896 0.0
H605 H 0.17521 0.89066 0.93076 0.0
H606 H 0.23055 0.93736 0.87106 0.0
H607 H 0.29539 0.03699 0.87436 0.0
H608 H 0.21515 0.03538 0.91822 0.0
C609 C 0.05516 0.82289 0.90658 0.0
C610 C 0.03556 0.78341 0.89432 0.0
C611 C 0.06976 0.79074 0.88123 0.0
C612 C 0.12237 0.83737 0.88016 0.0
C613 C 0.14004 0.87634 0.89226 0.0
C614 C 0.10742 0.86966 0.90522 0.0
C615 C 0.13286 0.92086 0.91549 0.0
C616 C 0.09461 0.94534 0.91683 0.0
C617 C 0.14777 0.90848 0.93184 0.0
C618 C 0.18394 0.95798 0.90603 0.0
C619 C 0.18784 0.93116 0.89282 0.0
C620 C 0.22859 0.95851 0.88151 0.0
C621 C 0.26523 0.01514 0.88348 0.0
C622 C 0.26065 0.04386 0.89661 0.0
C623 C 0.22054 0.01435 0.90825 0.0
H624 H 0.12614 0.19774 0.37546 0.0
H625 H 0.15364 0.24491 0.4249 0.0
H626 H 0.2154 0.20643 0.42715 0.0
H627 H 0.12106 0.06934 0.38016 0.0
H628 H 0.15457 0.07438 0.36161 0.0
H629 H 0.11519 0.10836 0.36411 0.0
H630 H 0.20077 0.20082 0.35585 0.0
H631 H 0.24089 0.16716 0.3539 0.0
H632 H 0.26409 0.22612 0.36672 0.0
H633 H 0.27077 0.16039 0.42437 0.0
H634 H 0.30188 0.09443 0.4181 0.0
H635 H 0.24044 0.07941 0.37034 0.0
C636 C 0.14481 0.19967 0.3868 0.0
C637 C 0.13513 0.22432 0.4 0.0
C638 C 0.16024 0.22591 0.41464 0.0
C639 C 0.19603 0.20496 0.41598 0.0
C640 C 0.20628 0.18282 0.40257 0.0
C641 C 0.18061 0.17908 0.38835 0.0
C642 C 0.1953 0.14953 0.37606 0.0
C643 C 0.14347 0.09731 0.37015 0.0
C644 C 0.22716 0.18824 0.36232 0.0
C645 C 0.23192 0.13559 0.38575 0.0
C646 C 0.23876 0.15637 0.40092 0.0
C647 C 0.26643 0.1445 0.4125 0.0
C648 C 0.28429 0.10735 0.4088 0.0
C649 C 0.27387 0.08239 0.39372 0.0
C650 C 0.25031 0.09915 0.38181 0.0
H651 H 0.14725 0.16514 0.90929 0.0
H652 H 0.17259 0.15573 0.85909 0.0
H653 H 0.07215 0.10329 0.85505 0.0
H654 H 0.02175 0.02731 0.91268 0.0
H655 H -0.0089 0.05227 0.92671 0.0
H656 H 0.06477 0.08237 0.92603 0.0
H657 H 0.0768 0.17981 0.92202 0.0
H658 H 0.00361 0.15019 0.92311 0.0
H659 H 0.04045 0.19063 0.90615 0.0
H660 H 0.97165 0.0616 0.85602 0.0
H661 H 0.8789 0.04611 0.86121 0.0
H662 H 0.91905 0.08076 0.91088 0.0
C663 C 0.13176 0.15189 0.89744 0.0
C664 C 0.16745 0.16447 0.8845 0.0
C665 C 0.14573 0.1466 0.86917 0.0
C666 C 0.0889 0.11607 0.8668 0.0
C667 C 0.05484 0.10339 0.8799 0.0
C668 C 0.07545 0.12117 0.89489 0.0
C669 C 0.0304 0.10759 0.90671 0.0
C670 C 0.0268 0.06483 0.91874 0.0
C671 C 0.03828 0.16017 0.91496 0.0
C672 C 0.98135 0.08292 0.89579 0.0
C673 C -0.00388 0.079 0.88048 0.0
C674 C 0.95926 0.06351 0.86797 0.0
C675 C 0.90684 0.05507 0.87103 0.0
C676 C 0.89251 0.06292 0.88642 0.0
C677 C 0.929 0.07389 0.89906 0.0
H678 H 0.91141 0.177 0.36997 0.0
H679 H 0.9068 0.21737 0.41918 0.0
H680 H 0.83577 0.1211 0.42428 0.0
H681 H 0.75931 0.06323 0.36691 0.0
H682 H 0.77774 0.02346 0.35419 0.0
H683 H 0.81631 0.09783 0.35349 0.0
H684 H 0.90559 0.09468 0.3585 0.0
H685 H 0.8675 0.02072 0.35985 0.0
H686 H 0.91112 0.06097 0.37596 0.0
H687 H 0.78584 0.01974 0.42557 0.0
H688 H 0.74483 0.91952 0.42202 0.0
H689 H 0.77991 0.94365 0.37185 0.0
C690 C 0.89344 0.16627 0.38163 0.0
C691 C 0.91474 0.20446 0.3942 0.0
C692 C 0.89103 0.18869 0.40938 0.0
C693 C 0.8507 0.13406 0.4124 0.0
C694 C 0.83401 0.09627 0.40004 0.0
C695 C 0.85326 0.11185 0.38483 0.0
C696 C 0.83376 0.06214 0.37413 0.0
C697 C 0.79442 0.06163 0.36143 0.0
C698 C 0.8824 0.05953 0.36669 0.0
C699 C 0.80365 0.01624 0.38593 0.0
C700 C 0.8039 0.03688 0.40077 0.0
C701 C 0.78381 0.00292 0.41394 0.0
C702 C 0.76141 0.94614 0.41182 0.0
C703 C 0.7592 0.92396 0.39663 0.0
C704 C 0.78067 0.95954 0.38355 0.0
H705 H 0.82668 0.79901 0.87403 0.0
H706 H 0.77249 0.73503 0.92128 0.0
H707 H 0.71022 0.7729 0.92129 0.0
H708 H 0.83195 0.92627 0.88115 0.0
H709 H 0.8103 0.93136 0.8615 0.0
H710 H 0.84558 0.89362 0.86481 0.0
H711 H 0.76402 0.80796 0.85151 0.0
H712 H 0.7278 0.84535 0.84878 0.0
H713 H 0.69557 0.78071 0.85929 0.0
H714 H 0.65931 0.82246 0.91731 0.0
H715 H 0.63894 0.89682 0.91187 0.0
H716 H 0.7241 0.92857 0.86715 0.0
C717 C 0.80159 0.79295 0.88435 0.0
C718 C 0.80441 0.76404 0.89762 0.0
C719 C 0.7714 0.75741 0.91099 0.0
C720 C 0.73514 0.77795 0.91103 0.0
C721 C 0.73241 0.80521 0.89764 0.0
C722 C 0.7656 0.81389 0.88468 0.0
C723 C 0.75958 0.85048 0.87266 0.0
C724 C 0.81511 0.90356 0.86988 0.0
C725 C 0.73529 0.81923 0.85714 0.0
C726 C 0.71904 0.86229 0.88111 0.0
C727 C 0.70278 0.83449 0.89532 0.0
C728 C 0.67083 0.84374 0.90609 0.0
C729 C 0.65886 0.88563 0.90284 0.0
C730 C 0.67939 0.91793 0.88903 0.0
C731 C 0.70632 0.90337 0.87755 0.0
H732 H 0.07418 0.58433 0.16485 0.0
H733 H 0.01185 0.57164 0.11724 0.0
H734 H 0.0433 0.50633 0.11042 0.0
H735 H 0.19364 0.59318 0.15463 0.0
H736 H 0.1982 0.55321 0.17062 0.0
H737 H 0.16028 0.58871 0.17317 0.0
H738 H 0.0725 0.49741 0.18073 0.0
H739 H 0.11066 0.46172 0.17882 0.0
H740 H 0.04779 0.43836 0.16787 0.0
H741 H 0.09572 0.45652 0.10751 0.0
H742 H 0.15315 0.41303 0.10989 0.0
H743 H 0.18289 0.46108 0.15925 0.0
C744 C 0.0648 0.56587 0.15321 0.0
C745 C 0.0406 0.58291 0.14157 0.0
C746 C 0.03023 0.55889 0.12634 0.0
C747 C 0.04813 0.52197 0.12234 0.0
C748 C 0.07571 0.50932 0.13376 0.0
C749 C 0.0828 0.52943 0.149 0.0
C750 C 0.11827 0.51385 0.15862 0.0
C751 C 0.17067 0.56531 0.1646 0.0
C752 C 0.08533 0.47553 0.17232 0.0
C753 C 0.13154 0.48354 0.14626 0.0
C754 C 0.10645 0.48108 0.13202 0.0
C755 C 0.11479 0.45724 0.11867 0.0
C756 C 0.14802 0.43332 0.12009 0.0
C757 C 0.17241 0.43369 0.13476 0.0
C758 C 0.16476 0.46008 0.14788 0.0
H759 H 0.72559 0.1956 0.65697 0.0
H760 H 0.74757 0.17421 0.60729 0.0
H761 H 0.64692 0.11619 0.60417 0.0
H762 H 0.61208 0.05869 0.66402 0.0
H763 H 0.57732 0.08196 0.6771 0.0
H764 H 0.65121 0.12038 0.6756 0.0
H765 H 0.64866 0.2092 0.66834 0.0
H766 H 0.5751 0.17139 0.67034 0.0
H767 H 0.60583 0.20725 0.65222 0.0
H768 H 0.54456 0.06161 0.60646 0.0
H769 H 0.44749 0.02908 0.6127 0.0
H770 H 0.49317 0.08573 0.66098 0.0
C771 C 0.70926 0.17906 0.6454 0.0
C772 C 0.74423 0.18932 0.63237 0.0
C773 C 0.72137 0.16718 0.6174 0.0
C774 C 0.6644 0.13355 0.61557 0.0
C775 C 0.63121 0.12266 0.62881 0.0
C776 C 0.65273 0.14564 0.64336 0.0
C777 C 0.6081 0.13059 0.65548 0.0
C778 C 0.61246 0.09583 0.66884 0.0
C779 C 0.60949 0.18269 0.66196 0.0
C780 C 0.55786 0.09653 0.64538 0.0
C781 C 0.5721 0.09144 0.63012 0.0
C782 C 0.53282 0.065 0.61838 0.0
C783 C 0.47774 0.04637 0.62207 0.0
C784 C 0.46286 0.05508 0.63732 0.0
C785 C 0.50312 0.07778 0.64929 0.0
H786 H 0.52529 0.71088 0.15854 0.0
H787 H 0.55399 0.73341 0.10806 0.0
H788 H 0.51181 0.63256 0.10475 0.0
H789 H 0.54961 0.59422 0.16277 0.0
H790 H 0.49567 0.56059 0.17717 0.0
H791 H 0.53317 0.63484 0.17578 0.0
H792 H 0.44205 0.63586 0.17178 0.0
H793 H 0.40453 0.56206 0.17362 0.0
H794 H 0.39541 0.59421 0.15635 0.0
H795 H 0.46054 0.53004 0.1067 0.0
H796 H 0.39124 0.43411 0.11309 0.0
H797 H 0.39878 0.47928 0.1624 0.0
C798 C 0.52289 0.69471 0.14677 0.0
C799 C 0.54276 0.72982 0.13355 0.0
C800 C 0.53863 0.70709 0.11835 0.0
C801 C 0.51556 0.65002 0.11638 0.0
C802 C 0.49743 0.61666 0.12975 0.0
C803 C 0.50029 0.63816 0.14461 0.0
C804 C 0.47315 0.59337 0.15686 0.0
C805 C 0.51544 0.59593 0.16885 0.0
C806 C 0.42599 0.59655 0.16512 0.0
C807 C 0.4521 0.54302 0.14643 0.0
C808 C 0.46785 0.55727 0.1309 0.0
C809 C 0.44857 0.51821 0.11884 0.0
C810 C 0.40933 0.46377 0.1226 0.0
C811 C 0.38944 0.44947 0.13823 0.0
C812 C 0.41367 0.48886 0.15039 0.0
H813 H 0.79115 0.52224 0.6607 0.0
H814 H 0.86184 0.60352 0.61619 0.0
H815 H 0.92076 0.56166 0.61588 0.0
H816 H 0.91548 0.52996 0.6773 0.0
H817 H 0.87841 0.46202 0.68589 0.0
H818 H 0.8453 0.50259 0.68359 0.0
H819 H 0.76639 0.42358 0.66754 0.0
H820 H 0.79861 0.38253 0.67016 0.0
H821 H 0.78302 0.39589 0.65058 0.0
H822 H 0.96783 0.50797 0.61939 0.0
H823 H -0.01114 0.43372 0.62423 0.0
H824 H 0.88771 0.38593 0.66632 0.0
C825 C 0.81919 0.5313 0.65093 0.0
C826 C 0.82198 0.56608 0.63848 0.0
C827 C 0.85872 0.57661 0.6258 0.0
C828 C 0.89294 0.55369 0.62562 0.0
C829 C 0.88983 0.52025 0.63818 0.0
C830 C 0.85327 0.50823 0.65047 0.0
C831 C 0.85419 0.46654 0.66164 0.0
C832 C 0.87457 0.49181 0.67808 0.0
C833 C 0.7972 0.41404 0.66252 0.0
C834 C 0.89579 0.4558 0.65344 0.0
C835 C 0.91681 0.48832 0.64014 0.0
C836 C 0.9523 0.48273 0.62987 0.0
C837 C 0.9642 0.44062 0.63274 0.0
C838 C 0.94023 0.4045 0.6457 0.0
C839 C 0.90775 0.4139 0.65657 0.0
H840 H 0.47825 0.8823 0.16273 0.0
H841 H 0.52476 0.95294 0.11584 0.0
H842 H 0.42871 0.92781 0.11054 0.0
H843 H 0.35879 0.76774 0.15197 0.0
H844 H 0.31899 0.76431 0.16903 0.0
H845 H 0.39255 0.79648 0.17052 0.0
H846 H 0.39924 0.88692 0.18071 0.0
H847 H 0.32542 0.85455 0.17968 0.0
H848 H 0.36791 0.91871 0.16952 0.0
H849 H 0.32636 0.88221 0.10878 0.0
H850 H 0.22551 0.82945 0.11193 0.0
H851 H 0.24573 0.78848 0.15996 0.0
C852 C 0.46873 0.89455 0.15158 0.0
C853 C 0.50906 0.91982 0.13972 0.0
C854 C 0.49459 0.93384 0.12513 0.0
C855 C 0.44009 0.91957 0.12199 0.0
C856 C 0.40074 0.89174 0.13359 0.0
C857 C 0.41449 0.88038 0.14823 0.0
C858 C 0.36379 0.84627 0.15818 0.0
C859 C 0.35824 0.79041 0.16268 0.0
C860 C 0.36411 0.87856 0.17289 0.0
C861 C 0.31939 0.83885 0.14668 0.0
C862 C 0.34154 0.86551 0.13259 0.0
C863 C 0.30852 0.86198 0.11986 0.0
C864 C 0.2513 0.83144 0.12171 0.0
C865 C 0.22778 0.80493 0.13619 0.0
C866 C 0.26247 0.80854 0.14877 0.0
H867 H 0.59134 0.49948 0.6615 0.0
H868 H 0.58864 0.54423 0.61262 0.0
H869 H 0.52021 0.44754 0.6065 0.0
H870 H 0.5939 0.38325 0.654 0.0
H871 H 0.55057 0.34219 0.67 0.0
H872 H 0.58897 0.41611 0.67173 0.0
H873 H 0.49978 0.41904 0.67725 0.0
H874 H 0.46106 0.34477 0.6761 0.0
H875 H 0.44254 0.38546 0.6638 0.0
H876 H 0.46617 0.34492 0.60471 0.0
H877 H 0.41996 0.24384 0.60814 0.0
H878 H 0.46048 0.26689 0.65807 0.0
C879 C 0.57448 0.48947 0.64968 0.0
C880 C 0.59505 0.52916 0.63754 0.0
C881 C 0.57315 0.51429 0.6221 0.0
C882 C 0.5344 0.4595 0.6185 0.0
C883 C 0.51784 0.42055 0.63052 0.0
C884 C 0.53623 0.43498 0.64587 0.0
C885 C 0.51677 0.38466 0.65622 0.0
C886 C 0.56546 0.38141 0.6634 0.0
C887 C 0.4777 0.38341 0.6691 0.0
C888 C 0.4865 0.33975 0.64415 0.0
C889 C 0.48713 0.36118 0.62943 0.0
C890 C 0.46443 0.32755 0.61624 0.0
C891 C 0.43892 0.27031 0.61827 0.0
C892 C 0.43672 0.24763 0.63337 0.0
C893 C 0.46138 0.28298 0.64639 0.0
H894 H 0.4008 0.91551 0.37276 0.0
H895 H 0.4022 0.96057 0.4218 0.0
H896 H 0.4672 0.92845 0.42809 0.0
H897 H 0.39183 0.7941 0.37961 0.0
H898 H 0.43566 0.79534 0.36393 0.0
H899 H 0.40073 0.83406 0.36205 0.0
H900 H 0.49301 0.92455 0.3575 0.0
H901 H 0.52832 0.88581 0.35871 0.0
H902 H 0.54854 0.94464 0.37138 0.0
H903 H 0.51599 0.87507 0.43003 0.0
H904 H 0.55894 0.81741 0.4266 0.0
H905 H 0.52346 0.80559 0.37639 0.0
C906 C 0.41704 0.9213 0.38464 0.0
C907 C 0.39681 0.94058 0.39679 0.0
C908 C 0.41756 0.94604 0.41232 0.0
C909 C 0.45428 0.92774 0.41602 0.0
C910 C 0.47006 0.90475 0.40401 0.0
C911 C 0.45333 0.90281 0.38854 0.0
C912 C 0.47143 0.87086 0.37819 0.0
C913 C 0.42195 0.82064 0.3705 0.0
C914 C 0.5128 0.90874 0.36571 0.0
C915 C 0.49871 0.85319 0.39038 0.0
C916 C 0.49789 0.87342 0.40517 0.0
C917 C 0.51796 0.8599 0.41844 0.0
C918 C 0.54152 0.82651 0.41642 0.0
C919 C 0.54449 0.80708 0.40124 0.0
C920 C 0.52192 0.81994 0.38815 0.0
H921 H 0.67651 0.52152 0.91736 0.0
H922 H 0.70177 0.57947 0.86888 0.0
H923 H 0.60262 0.53774 0.86522 0.0
H924 H 0.56512 0.39238 0.90883 0.0
H925 H 0.52709 0.38554 0.9266 0.0
H926 H 0.60065 0.4282 0.92652 0.0
H927 H 0.59222 0.51138 0.9362 0.0
H928 H 0.51829 0.46921 0.93617 0.0
H929 H 0.55126 0.53272 0.92512 0.0
H930 H 0.50253 0.48155 0.86518 0.0
H931 H 0.40846 0.40263 0.86791 0.0
H932 H 0.44417 0.38107 0.91632 0.0
C933 C 0.66104 0.52589 0.90607 0.0
C934 C 0.69718 0.55393 0.89348 0.0
C935 C 0.67524 0.55807 0.87877 0.0
C936 C 0.61877 0.53515 0.87658 0.0
C937 C 0.58421 0.50798 0.88917 0.0
C938 C 0.60422 0.50251 0.90358 0.0
C939 C 0.55748 0.46478 0.91439 0.0
C940 C 0.56287 0.41475 0.91937 0.0
C941 C 0.55466 0.49644 0.92883 0.0
C942 C 0.50866 0.44815 0.9035 0.0
C943 C 0.525 0.47483 0.88915 0.0
C944 C 0.48875 0.46119 0.87647 0.0
C945 C 0.43523 0.41657 0.87813 0.0
C946 C 0.41878 0.38623 0.89235 0.0
C947 C 0.45494 0.40455 0.90546 0.0
H948 H 0.16161 0.72327 0.41127 0.0
H949 H 0.18058 0.7603 0.36111 0.0
H950 H 0.12782 0.66151 0.35501 0.0
H951 H 0.18231 0.6098 0.40857 0.0
H952 H 0.13333 0.57002 0.4237 0.0
H953 H 0.16699 0.64409 0.42408 0.0
H954 H 0.07163 0.6377 0.42452 0.0
H955 H 0.03778 0.56342 0.42375 0.0
H956 H 0.02259 0.60053 0.40909 0.0
H957 H 0.07967 0.56017 0.35396 0.0
H958 H 0.05147 0.46247 0.3582 0.0
H959 H 0.06302 0.48958 0.40885 0.0
C960 C 0.15434 0.71051 0.39903 0.0
C961 C 0.17506 0.74955 0.38671 0.0
C962 C 0.16521 0.73125 0.37081 0.0
C963 C 0.13464 0.67516 0.36717 0.0
C964 C 0.11414 0.63773 0.37954 0.0
C965 C 0.12415 0.65441 0.39515 0.0
C966 C 0.10238 0.60532 0.4061 0.0
C967 C 0.14903 0.60744 0.41619 0.0
C968 C 0.05582 0.60154 0.41648 0.0
C969 C 0.08069 0.55881 0.39416 0.0
C970 C 0.08656 0.57838 0.37893 0.0
C971 C 0.07407 0.54402 0.36583 0.0
C972 C 0.05792 0.48855 0.36835 0.0
C973 C 0.0552 0.46851 0.38383 0.0
C974 C 0.0641 0.50353 0.39687 0.0
H975 H 0.60508 0.10528 0.91666 0.0
H976 H 0.69428 0.19474 0.87492 0.0
H977 H 0.66162 0.2605 0.87855 0.0
H978 H 0.48822 0.10596 0.90797 0.0
H979 H 0.47076 0.11361 0.92791 0.0
H980 H 0.51274 0.08326 0.92439 0.0
H981 H 0.58736 0.15658 0.94289 0.0
H982 H 0.54572 0.18815 0.94598 0.0
H983 H 0.61509 0.22894 0.9388 0.0
H984 H 0.60899 0.3048 0.88318 0.0
H985 H 0.52546 0.31174 0.88496 0.0
H986 H 0.46751 0.19586 0.9238 0.0
C987 C 0.6178 0.1391 0.90843 0.0
C988 C 0.65121 0.14476 0.89543 0.0
C989 C 0.66739 0.18909 0.88477 0.0
C990 C 0.65032 0.22749 0.88697 0.0
C991 C 0.61704 0.22089 0.89988 0.0
C992 C 0.60008 0.17727 0.91029 0.0
C993 C 0.55584 0.17329 0.92122 0.0
C994 C 0.50384 0.11568 0.92029 0.0
C995 C 0.57731 0.18761 0.93823 0.0
C996 C 0.54677 0.21787 0.91423 0.0
C997 C 0.58486 0.24693 0.90254 0.0
C998 C 0.57976 0.28356 0.89254 0.0
C999 C 0.53219 0.28711 0.89358 0.0
C1000 C 0.49084 0.25418 0.90451 0.0
C1001 C 0.49974 0.22235 0.91568 0.0
H1002 H 0.26791 0.4662 0.41348 0.0
H1003 H 0.24339 0.4125 0.36453 0.0
H1004 H 0.34259 0.4517 0.36135 0.0
H1005 H 0.38528 0.59502 0.40635 0.0
H1006 H 0.41964 0.59639 0.42446 0.0
H1007 H 0.34587 0.55786 0.42341 0.0
H1008 H 0.34764 0.47027 0.43255 0.0
H1009 H 0.42174 0.50854 0.43319 0.0
H1010 H 0.38662 0.44665 0.42145 0.0
H1011 H 0.44276 0.50251 0.36228 0.0
H1012 H 0.53929 0.57477 0.36635 0.0
H1013 H 0.50173 0.59597 0.41457 0.0
C1014 C 0.28351 0.46257 0.40214 0.0
C1015 C 0.24779 0.43613 0.38931 0.0
C1016 C 0.26979 0.43261 0.37458 0.0
C1017 C 0.32614 0.45409 0.37267 0.0
C1018 C 0.36018 0.47905 0.38557 0.0
C1019 C 0.34003 0.48427 0.39995 0.0
C1020 C 0.38641 0.5186 0.4113 0.0
C1021 C 0.38418 0.57001 0.41668 0.0
C1022 C 0.38553 0.48392 0.42546 0.0
C1023 C 0.43551 0.53368 0.40078 0.0
C1024 C 0.4193 0.50908 0.38612 0.0
C1025 C 0.45633 0.52129 0.37379 0.0
C1026 C 0.51103 0.56219 0.3762 0.0
C1027 C 0.52777 0.59024 0.3908 0.0
C1028 C 0.49024 0.57387 0.40346 0.0
H1029 H 0.86258 0.49135 0.87233 0.0
H1030 H 0.94467 0.54956 0.91745 0.0
H1031 H 0.94766 0.46352 0.92063 0.0
H1032 H 0.77557 0.35718 0.88451 0.0
H1033 H 0.77595 0.32445 0.86625 0.0
H1034 H 0.78853 0.39407 0.86614 0.0
H1035 H 0.88124 0.42691 0.85176 0.0
H1036 H 0.86874 0.35714 0.85179 0.0
H1037 H 0.93129 0.412 0.86021 0.0
H1038 H 0.92984 0.36679 0.92084 0.0
H1039 H 0.89346 0.26654 0.91775 0.0
H1040 H 0.82366 0.2708 0.87245 0.0
C1041 C 0.8829 0.48672 0.8826 0.0
C1042 C 0.90402 0.52735 0.89455 0.0
C1043 C 0.92858 0.51906 0.9081 0.0
C1044 C 0.9306 0.47038 0.90999 0.0
C1045 C 0.90786 0.4303 0.89824 0.0
C1046 C 0.8847 0.43797 0.88476 0.0
C1047 C 0.85792 0.38608 0.87476 0.0
C1048 C 0.79584 0.36418 0.87281 0.0
C1049 C 0.88652 0.39615 0.85867 0.0
C1050 C 0.86859 0.34782 0.8849 0.0
C1051 C 0.8978 0.37422 0.89834 0.0
C1052 C 0.90802 0.34595 0.91019 0.0
C1053 C 0.88715 0.28903 0.90836 0.0
C1054 C 0.85661 0.26112 0.89476 0.0
C1055 C 0.84826 0.2913 0.88277 0.0
H1056 H 0.10392 0.36363 0.29784 0.0
H1057 H 0.12456 0.22599 0.31189 0.0
H1058 H 0.15433 0.22049 0.28496 0.0
H1059 H 0.05294 0.31249 0.25767 0.0
H1060 H 0.0887 0.38056 0.24913 0.0
H1061 H 0.06577 0.37169 0.26931 0.0
H1062 H 0.16518 0.44091 0.2783 0.0
H1063 H 0.18854 0.4495 0.25818 0.0
H1064 H 0.2202 0.42848 0.27305 0.0
H1065 H 0.18753 0.2333 0.25731 0.0
H1066 H 0.21595 0.25927 0.2297 0.0
H1067 H 0.17328 0.3881 0.23298 0.0
C1068 C 0.11358 0.33163 0.29513 0.0
C1069 C 0.11218 0.29538 0.30698 0.0
C1070 C 0.12595 0.25458 0.30304 0.0
C1071 C 0.14276 0.25102 0.28777 0.0
C1072 C 0.14528 0.28831 0.27649 0.0
C1073 C 0.1305 0.32744 0.27987 0.0
C1074 C 0.13836 0.36332 0.26558 0.0
C1075 C 0.08315 0.35659 0.2601 0.0
C1076 C 0.18059 0.42415 0.26899 0.0
C1077 C 0.16046 0.33858 0.25375 0.0
C1078 C 0.16416 0.29544 0.26035 0.0
C1079 C 0.18462 0.26686 0.25197 0.0
C1080 C 0.20119 0.28231 0.23634 0.0
C1081 C 0.19722 0.32595 0.22919 0.0
C1082 C 0.17654 0.3544 0.23808 0.0
H1083 H 0.8639 0.24236 0.73658 0.0
H1084 H 0.78547 0.07576 0.71756 0.0
H1085 H 0.75171 0.03829 0.74398 0.0
H1086 H 0.90976 0.20914 0.77267 0.0
H1087 H 0.89881 0.25604 0.78462 0.0
H1088 H 0.91508 0.27045 0.764 0.0
H1089 H 0.82691 0.27662 0.75995 0.0
H1090 H 0.81011 0.2617 0.78053 0.0
H1091 H 0.76125 0.21927 0.76564 0.0
H1092 H 0.72532 0.01809 0.77208 0.0
H1093 H 0.71425 0.01587 0.8009 0.0
H1094 H 0.81468 0.19463 0.80251 0.0
C1095 C 0.83994 0.19801 0.73797 0.0
C1096 C 0.82653 0.16219 0.72484 0.0
C1097 C 0.79498 0.10432 0.72726 0.0
C1098 C 0.77583 0.08248 0.74227 0.0
C1099 C 0.789 0.11885 0.75485 0.0
C1100 C 0.82084 0.17531 0.75296 0.0
C1101 C 0.83058 0.20485 0.76866 0.0
C1102 C 0.89222 0.23701 0.77273 0.0
C1103 C 0.80572 0.24286 0.76869 0.0
C1104 C 0.79931 0.15606 0.77963 0.0
C1105 C 0.77529 0.10696 0.77134 0.0
C1106 C 0.74428 0.0562 0.77875 0.0
C1107 C 0.7385 0.0554 0.79515 0.0
C1108 C 0.7641 0.10499 0.80404 0.0
C1109 C 0.79424 0.15604 0.79608 0.0
H1110 H 0.66352 0.90278 0.23741 0.0
H1111 H 0.54043 0.73971 0.2213 0.0
H1112 H 0.52793 0.70504 0.24858 0.0
H1113 H 0.72579 0.85806 0.26558 0.0
H1114 H 0.73815 0.91027 0.28005 0.0
H1115 H 0.73504 0.92383 0.25942 0.0
H1116 H 0.65851 0.94729 0.26515 0.0
H1117 H 0.6616 0.93408 0.28582 0.0
H1118 H 0.59718 0.89784 0.27535 0.0
H1119 H 0.53234 0.68628 0.27712 0.0
H1120 H 0.55159 0.68517 0.30547 0.0
H1121 H 0.67168 0.86011 0.30356 0.0
C1122 C 0.63322 0.86007 0.2397 0.0
C1123 C 0.60304 0.82389 0.2272 0.0
C1124 C 0.56441 0.76803 0.23064 0.0
C1125 C 0.55682 0.74799 0.24612 0.0
C1126 C 0.58799 0.7843 0.2581 0.0
C1127 C 0.62519 0.83923 0.25514 0.0
C1128 C 0.65489 0.86878 0.27016 0.0
C1129 C 0.71715 0.89156 0.26871 0.0
C1130 C 0.64227 0.91472 0.27437 0.0
C1131 C 0.62903 0.82168 0.28193 0.0
C1132 C 0.59045 0.77341 0.2747 0.0
C1133 C 0.56226 0.72388 0.28294 0.0
C1134 C 0.57378 0.72358 0.29902 0.0
C1135 C 0.61322 0.77246 0.30676 0.0
C1136 C 0.64087 0.82221 0.29805 0.0
H1137 H 0.71678 0.61536 0.73956 0.0
H1138 H 0.87821 0.735 0.72193 0.0
H1139 H 0.91552 0.75069 0.74893 0.0
H1140 H 0.72721 0.68805 0.77688 0.0
H1141 H 0.69137 0.62508 0.78809 0.0
H1142 H 0.67612 0.6254 0.76745 0.0
H1143 H 0.69703 0.54646 0.76244 0.0
H1144 H 0.71277 0.5462 0.78303 0.0
H1145 H 0.76276 0.55543 0.76826 0.0
H1146 H 0.93728 0.7496 0.77726 0.0
H1147 H 0.94096 0.7356 0.80586 0.0
H1148 H 0.76592 0.61719 0.80573 0.0
C1149 C 0.75969 0.64551 0.74148 0.0
C1150 C 0.79471 0.67368 0.72864 0.0
C1151 C 0.85082 0.71245 0.73157 0.0
C1152 C 0.87239 0.72181 0.74686 0.0
C1153 C 0.83734 0.69237 0.7592 0.0
C1154 C 0.7821 0.65538 0.75677 0.0
C1155 C 0.75411 0.62818 0.77216 0.0
C1156 C 0.70957 0.64255 0.77639 0.0
C1157 C 0.73027 0.56534 0.77142 0.0
C1158 C 0.80242 0.65521 0.7835 0.0
C1159 C 0.84997 0.69209 0.77573 0.0
C1160 C 0.90027 0.72106 0.78352 0.0
C1161 C 0.90206 0.71247 0.79974 0.0
C1162 C 0.85384 0.67526 0.80804 0.0
C1163 C 0.80339 0.64634 0.79975 0.0
H1164 H 0.08545 0.78625 0.23998 0.0
H1165 H 0.24006 0.81787 0.21947 0.0
H1166 H 0.28712 0.85798 0.24472 0.0
H1167 H 0.14191 0.91229 0.26252 0.0
H1168 H 0.09616 0.8803 0.27896 0.0
H1169 H 0.0746 0.8532 0.25934 0.0
H1170 H 0.05434 0.75677 0.26883 0.0
H1171 H 0.07557 0.7835 0.28848 0.0
H1172 H 0.10773 0.75003 0.27858 0.0
H1173 H 0.31739 0.89491 0.27258 0.0
H1174 H 0.32679 0.92126 0.30077 0.0
H1175 H 0.15328 0.87006 0.30219 0.0
C1176 C 0.12928 0.8019 0.24071 0.0
C1177 C 0.15884 0.79856 0.22767 0.0
C1178 C 0.21611 0.81891 0.22932 0.0
C1179 C 0.2434 0.84233 0.24359 0.0
C1180 C 0.21303 0.84545 0.25612 0.0
C1181 C 0.15719 0.82566 0.2548 0.0
C1182 C 0.1338 0.83353 0.27001 0.0
C1183 C 0.11024 0.87214 0.26756 0.0
C1184 C 0.0903 0.77763 0.27688 0.0
C1185 C 0.18508 0.86049 0.28015 0.0
C1186 C 0.23047 0.86723 0.27195 0.0
C1187 C 0.28212 0.89008 0.27908 0.0
C1188 C 0.28718 0.90536 0.29507 0.0
C1189 C 0.24083 0.89766 0.30377 0.0
C1190 C 0.18949 0.87591 0.296 0.0
H1191 H 0.34798 0.2265 0.79774 0.0
H1192 H 0.39959 0.11471 0.81643 0.0
H1193 H 0.40956 0.08931 0.78954 0.0
H1194 H 0.26357 0.13296 0.76699 0.0
H1195 H 0.27881 0.18704 0.75293 0.0
H1196 H 0.27999 0.20062 0.77373 0.0
H1197 H 0.37986 0.28196 0.77118 0.0
H1198 H 0.37912 0.26837 0.75038 0.0
H1199 H 0.43187 0.26985 0.76284 0.0
H1200 H 0.41587 0.07648 0.76064 0.0
H1201 H 0.40893 0.06984 0.73178 0.0
H1202 H 0.341 0.17945 0.73153 0.0
C1203 C 0.36107 0.19641 0.79632 0.0
C1204 C 0.37427 0.17403 0.80955 0.0
C1205 C 0.39131 0.13472 0.80677 0.0
C1206 C 0.3966 0.11933 0.79143 0.0
C1207 C 0.38365 0.14245 0.7788 0.0
C1208 C 0.36537 0.17944 0.78104 0.0
C1209 C 0.351 0.19542 0.76536 0.0
C1210 C 0.2897 0.17795 0.76472 0.0
C1211 C 0.38766 0.2576 0.76226 0.0
C1212 C 0.36418 0.16161 0.75402 0.0
C1213 C 0.38366 0.13201 0.76206 0.0
C1214 C 0.3998 0.09877 0.75422 0.0
C1215 C 0.39512 0.09488 0.73775 0.0
C1216 C 0.37332 0.12313 0.72913 0.0
C1217 C 0.35816 0.15739 0.73754 0.0
H1218 H 0.21164 0.21619 0.98244 0.0
H1219 H 0.38937 0.29496 0.98059 0.0
H1220 H 0.39519 0.32205 1.00856 0.0
H1221 H 0.20373 0.31394 1.00937 0.0
H1222 H 0.14553 0.26148 0.02004 0.0
H1223 H 0.15488 0.25108 0.99955 0.0
H1224 H 0.15182 0.1595 1.00654 0.0
H1225 H 0.14222 0.1695 0.02702 0.0
H1226 H 0.19843 0.15971 0.02121 0.0
H1227 H 0.38255 0.34047 0.03628 0.0
H1228 H 0.35237 0.34259 0.06331 0.0
H1229 H 0.18181 0.24677 0.04838 0.0
C1230 C 0.25164 0.2395 0.98797 0.0
C1231 C 0.30018 0.25377 0.97945 0.0
C1232 C 0.35186 0.28359 0.98701 0.0
C1233 C 0.35554 0.29939 1.00282 0.0
C1234 C 0.30708 0.28459 1.01095 0.0
C1235 C 0.25603 0.25486 1.0039 0.0
C1236 C 0.21045 0.2416 1.01571 0.0
C1237 C 0.17665 0.26865 1.01087 0.0
C1238 C 0.17356 0.17885 1.01774 0.0
C1239 C 0.24398 0.26823 0.03049 0.0
C1240 C 0.29961 0.29337 0.02733 0.0
C1241 C 0.33911 0.32056 0.03895 0.0
C1242 C 0.32145 0.32114 0.05431 0.0
C1243 C 0.26467 0.29394 0.05809 0.0
C1244 C 0.22545 0.26802 0.04589 0.0
H1245 H 0.00056 0.27141 0.4808 0.0
H1246 H 0.11025 0.44842 0.47993 0.0
H1247 H 0.09698 0.4529 0.5087 0.0
H1248 H 0.90536 0.26877 0.50973 0.0
H1249 H 0.89565 0.20701 0.5193 0.0
H1250 H 0.91276 0.2179 0.49864 0.0
H1251 H -0.00272 0.2061 0.50365 0.0
H1252 H 0.98024 0.19486 0.5243 0.0
H1253 H 0.04745 0.2486 0.51826 0.0
H1254 H 0.06948 0.43812 0.53719 0.0
H1255 H 0.03583 0.40533 0.564 0.0
H1256 H 0.94882 0.23623 0.54683 0.0
C1257 C 0.02164 0.31096 0.48675 0.0
C1258 C 0.05624 0.35972 0.47833 0.0
C1259 C 0.08364 0.41084 0.48633 0.0
C1260 C 0.07618 0.41368 0.50259 0.0
C1261 C 0.04162 0.36488 0.51062 0.0
C1262 C 0.01521 0.31438 0.50302 0.0
C1263 C 0.98171 0.268 0.51452 0.0
C1264 C 0.92023 0.2387 0.51029 0.0
C1265 C 0.00296 0.22698 0.51522 0.0
C1266 C -0.00672 0.30031 0.52976 0.0
C1267 C 0.02751 0.35612 0.5272 0.0
C1268 C 0.04326 0.39443 0.53938 0.0
C1269 C 0.0242 0.37519 0.55463 0.0
C1270 C -0.00973 0.31793 0.55773 0.0
C1271 C 0.97437 0.28022 0.54498 0.0
H1272 H 0.73078 0.03185 0.05488 0.0
H1273 H 0.6176 0.85563 0.0505 0.0
H1274 H 0.62095 0.86453 0.02159 0.0
H1275 H 0.6751 0.07293 0.02193 0.0
H1276 H 0.74149 0.12758 1.01565 0.0
H1277 H 0.7296 0.10807 0.03614 0.0
H1278 H 0.81235 0.09144 0.036 0.0
H1279 H 0.82447 0.11085 1.01552 0.0
H1280 H 0.81437 0.0448 0.0217 0.0
H1281 H 0.63807 0.89091 0.99339 0.0
H1282 H 0.66788 0.93366 0.9672 0.0
H1283 H 0.7688 0.09368 0.98918 0.0
C1284 C 0.70624 -0.00474 0.04784 0.0
C1285 C 0.67426 0.94289 0.05502 0.0
C1286 C 0.64323 0.89598 0.04533 0.0
C1287 C 0.64449 0.90066 0.02888 0.0
C1288 C 0.67673 0.9526 0.02221 0.0
C1289 C 0.70695 -0.00082 0.03132 0.0
C1290 C 0.739 0.04987 0.02103 0.0
C1291 C 0.72016 0.09211 0.02386 0.0
C1292 C 0.80124 0.07575 0.02372 0.0
C1293 C 0.7224 0.02427 1.00472 0.0
C1294 C 0.68635 0.9681 1.00575 0.0
C1295 C 0.66618 0.93486 0.99241 0.0
C1296 C 0.68359 0.9595 0.97759 0.0
C1297 C 0.7209 0.0169 0.97615 0.0
C1298 C 0.73999 0.04979 0.98993 0.0
H1299 H 0.68583 0.64367 0.55029 0.0
H1300 H 0.83969 0.79562 0.55831 0.0
H1301 H 0.84096 0.8215 0.53036 0.0
H1302 H 0.71934 0.61811 0.51081 0.0
H1303 H 0.65016 0.5906 0.50355 0.0
H1304 H 0.6619 0.58363 0.5241 0.0
H1305 H 0.60651 0.63124 0.53187 0.0
H1306 H 0.59475 0.63852 0.51135 0.0
H1307 H 0.62628 0.69843 0.52396 0.0
H1308 H 0.82252 0.83354 0.50211 0.0
H1309 H 0.78925 0.82772 0.47476 0.0
H1310 H 0.64961 0.66605 0.48463 0.0
C1311 C 0.71984 0.68228 0.54612 0.0
C1312 C 0.76272 0.71772 0.55643 0.0
C1313 C 0.80675 0.76769 0.55055 0.0
C1314 C 0.80767 0.78283 0.53474 0.0
C1315 C 0.76455 0.74722 0.52491 0.0
C1316 C 0.72178 0.69767 0.53031 0.0
C1317 C 0.68074 0.66676 0.51725 0.0
C1318 C 0.6779 0.6115 0.51372 0.0
C1319 C 0.6237 0.65826 0.52136 0.0
C1320 C 0.70674 0.70703 0.50373 0.0
C1321 C 0.75489 0.75332 0.50845 0.0
C1322 C 0.78517 0.79728 0.49824 0.0
C1323 C 0.76587 0.79375 0.48278 0.0
C1324 C 0.71709 0.74641 0.47763 0.0
C1325 C 0.68736 0.70242 0.48824 0.0
H1326 H 0.9498 0.74463 0.98537 0.0
H1327 H 0.84434 0.56699 0.98357 0.0
H1328 H 0.86246 0.56078 1.01188 0.0
H1329 H 0.05079 0.74845 1.01189 0.0
H1330 H 0.06057 0.80824 0.02267 0.0
H1331 H 0.03925 0.79927 1.00231 0.0
H1332 H 0.954 0.80681 1.00989 0.0
H1333 H 0.97539 0.81642 0.03025 0.0
H1334 H 0.90772 0.76177 0.02485 0.0
H1335 H 0.89688 0.57314 0.0395 0.0
H1336 H 0.93577 0.60298 0.06597 0.0
H1337 H 0.0134 0.77441 0.05106 0.0
C1338 C 0.93019 0.70465 0.99107 0.0
C1339 C 0.89549 0.65615 0.98246 0.0
C1340 C 0.87063 0.60441 0.99011 0.0
C1341 C 0.88094 0.60057 1.00611 0.0
C1342 C 0.9158 0.64899 1.01429 0.0
C1343 C 0.93938 0.70018 1.00714 0.0
C1344 C 0.9743 0.74572 0.01881 0.0
C1345 C 0.03482 0.77727 1.01361 0.0
C1346 C 0.95147 0.78499 0.02108 0.0
C1347 C 0.96695 0.71204 0.03359 0.0
C1348 C 0.93354 0.65635 0.03059 0.0
C1349 C 0.9221 0.6167 0.04209 0.0
C1350 C 0.94417 0.6343 0.05719 0.0
C1351 C 0.97658 0.69133 0.06092 0.0
C1352 C -0.01127 0.73059 0.04876 0.0
H1353 H 0.29811 0.94845 0.48431 0.0
H1354 H 0.13616 0.92732 0.47628 0.0
H1355 H 0.13211 0.95059 0.50419 0.0
H1356 H 0.27132 0.89093 0.52398 0.0
H1357 H 0.33942 0.9393 0.531 0.0
H1358 H 0.32863 0.91927 0.51053 0.0
H1359 H 0.37387 0.02206 0.50237 0.0
H1360 H 0.38449 0.0424 0.52281 0.0
H1361 H 0.34714 0.06389 0.51013 0.0
H1362 H 0.14861 0.98268 0.53253 0.0
H1363 H 0.18097 0.01301 0.55984 0.0
H1364 H 0.3306 0.00997 0.54971 0.0
C1365 C 0.26168 0.94845 0.48845 0.0
C1366 C 0.21739 0.936 0.4781 0.0
C1367 C 0.17028 0.93606 0.48401 0.0
C1368 C 0.16778 0.94961 0.49982 0.0
C1369 C 0.2125 0.9625 0.50963 0.0
C1370 C 0.25828 0.96134 0.50423 0.0
C1371 C 0.30077 0.97688 0.5172 0.0
C1372 C 0.31059 0.92871 0.52089 0.0
C1373 C 0.35475 0.02943 0.51286 0.0
C1374 C 0.27196 0.98741 0.53071 0.0
C1375 C 0.22127 0.97934 0.52607 0.0
C1376 C 0.188 0.98864 0.53633 0.0
C1377 C 0.2068 0.00615 0.55177 0.0
C1378 C 0.2581 0.01361 0.55686 0.0
C1379 C 0.29095 0.00401 0.54616 0.0
loop_
_geom_bond_atom_site_label_1
_geom_bond_atom_site_label_2
_geom_bond_distance
_geom_bond_site_symmetry_2
_ccdc_geom_bond_type
C0 O16 1.251 . S
C0 O18 1.254 . S
N1 C2 1.333 . S
N1 C6 1.307 . S
N1 Zn7 2.020 . S
C2 N1 1.333 . S
C2 C3 1.379 . S
C2 H20 0.952 . S
C3 C2 1.379 . S
C3 C4 1.390 . S
C3 H30 0.949 . S
C4 C3 1.390 . S
C4 C5 1.357 . S
C5 C4 1.357 . S
C5 C6 1.370 . S
C5 H31 0.950 . S
C6 N1 1.307 . S
C6 C5 1.370 . S
C6 H24 0.948 . S
Zn7 N1 2.020 . S
Zn7 O16 2.039 . S
Zn7 O22 2.034 . S
Zn7 O26 2.025 . S
Zn7 O28 2.024 . S
C8 O27 1.246 . S
C8 O28 1.249 . S
N9 C10 1.307 . S
N9 C11 1.333 . S
N9 Zn15 2.020 . S
C10 N9 1.307 . S
C10 C14 1.370 . S
C10 H21 0.948 . S
C11 N9 1.333 . S
C11 C12 1.379 . S
C11 H19 0.952 . S
C12 C11 1.379 . S
C12 C13 1.390 . S
C12 H32 0.949 . S
C13 C12 1.390 . S
C13 C14 1.357 . S
C14 C10 1.370 . S
C14 C13 1.357 . S
C14 H33 0.950 . S
Zn15 N9 2.020 . S
Zn15 O18 2.025 . S
Zn15 O23 2.024 . S
Zn15 O25 2.039 . S
Zn15 O27 2.034 . S
O16 C0 1.251 . S
O16 Zn7 2.039 . S
C17 O22 1.246 . S
C17 O23 1.249 . S
O18 C0 1.254 . S
O18 Zn15 2.025 . S
H19 C11 0.952 . S
H20 C2 0.952 . S
H21 C10 0.948 . S
O22 Zn7 2.034 . S
O22 C17 1.246 . S
O23 Zn15 2.024 . S
O23 C17 1.249 . S
H24 C6 0.948 . S
O25 Zn15 2.039 . S
O25 C29 1.251 . S
O26 Zn7 2.025 . S
O26 C29 1.254 . S
O27 C8 1.246 . S
O27 Zn15 2.034 . S
O28 Zn7 2.024 . S
O28 C8 1.249 . S
C29 O25 1.251 . S
C29 O26 1.254 . S
H30 C3 0.949 . S
H31 C5 0.950 . S
H32 C12 0.949 . S
H33 C14 0.950 . S
C34 O50 1.251 . S
C34 O52 1.254 . S
N35 C36 1.333 . S
N35 C40 1.307 . S
N35 Zn41 2.020 . S
C36 N35 1.333 . S
C36 C37 1.379 . S
C36 H54 0.952 . S
C37 C36 1.379 . S
C37 C38 1.390 . S
C37 H64 0.949 . S
C38 C37 1.390 . S
C38 C39 1.357 . S
C39 C38 1.357 . S
C39 C40 1.370 . S
C39 H65 0.950 . S
C40 N35 1.307 . S
C40 C39 1.370 . S
C40 H58 0.948 . S
Zn41 N35 2.020 . S
Zn41 O50 2.039 . S
Zn41 O56 2.034 . S
Zn41 O60 2.025 . S
Zn41 O62 2.024 . S
C42 O61 1.246 . S
C42 O62 1.249 . S
N43 C44 1.307 . S
N43 C45 1.333 . S
N43 Zn49 2.020 . S
C44 N43 1.307 . S
C44 C48 1.370 . S
C44 H55 0.948 . S
C45 N43 1.333 . S
C45 C46 1.379 . S
C45 H53 0.952 . S
C46 C45 1.379 . S
C46 C47 1.390 . S
C46 H66 0.949 . S
C47 C46 1.390 . S
C47 C48 1.357 . S
C48 C44 1.370 . S
C48 C47 1.357 . S
C48 H67 0.950 . S
Zn49 N43 2.020 . S
Zn49 O52 2.025 . S
Zn49 O57 2.024 . S
Zn49 O59 2.039 . S
Zn49 O61 2.034 . S
O50 C34 1.251 . S
O50 Zn41 2.039 . S
C51 O56 1.246 . S
C51 O57 1.249 . S
O52 C34 1.254 . S
O52 Zn49 2.025 . S
H53 C45 0.952 . S
H54 C36 0.952 . S
H55 C44 0.948 . S
O56 Zn41 2.034 . S
O56 C51 1.246 . S
O57 Zn49 2.024 . S
O57 C51 1.249 . S
H58 C40 0.948 . S
O59 Zn49 2.039 . S
O59 C63 1.251 . S
O60 Zn41 2.025 . S
O60 C63 1.254 . S
O61 C42 1.246 . S
O61 Zn49 2.034 . S
O62 Zn41 2.024 . S
O62 C42 1.249 . S
C63 O59 1.251 . S
C63 O60 1.254 . S
H64 C37 0.949 . S
H65 C39 0.950 . S
H66 C46 0.949 . S
H67 C48 0.950 . S
C68 O84 1.251 . S
C68 O86 1.254 . S
N69 C70 1.333 . S
N69 C74 1.307 . S
N69 Zn75 2.020 . S
C70 N69 1.333 . S
C70 C71 1.379 . S
C70 H88 0.952 . S
C71 C70 1.379 . S
C71 C72 1.390 . S
C71 H98 0.949 . S
C72 C71 1.390 . S
C72 C73 1.357 . S
C73 C72 1.357 . S
C73 C74 1.370 . S
C73 H99 0.950 . S
C74 N69 1.307 . S
C74 C73 1.370 . S
C74 H92 0.948 . S
Zn75 N69 2.020 . S
Zn75 O84 2.039 . S
Zn75 O90 2.034 . S
Zn75 O94 2.025 . S
Zn75 O96 2.024 . S
C76 O95 1.246 . S
C76 O96 1.249 . S
N77 C78 1.307 . S
N77 C79 1.333 . S
N77 Zn83 2.020 . S
C78 N77 1.307 . S
C78 C82 1.370 . S
C78 H89 0.948 . S
C79 N77 1.333 . S
C79 C80 1.379 . S
C79 H87 0.952 . S
C80 C79 1.379 . S
C80 C81 1.390 . S
C80 H100 0.949 . S
C81 C80 1.390 . S
C81 C82 1.357 . S
C82 C78 1.370 . S
C82 C81 1.357 . S
C82 H101 0.950 . S
Zn83 N77 2.020 . S
Zn83 O86 2.025 . S
Zn83 O91 2.024 . S
Zn83 O93 2.039 . S
Zn83 O95 2.034 . S
O84 C68 1.251 . S
O84 Zn75 2.039 . S
C85 O90 1.246 . S
C85 O91 1.249 . S
O86 C68 1.254 . S
O86 Zn83 2.025 . S
H87 C79 0.952 . S
H88 C70 0.952 . S
H89 C78 0.948 . S
O90 Zn75 2.034 . S
O90 C85 1.246 . S
O91 Zn83 2.024 . S
O91 C85 1.249 . S
H92 C74 0.948 . S
O93 Zn83 2.039 . S
O93 C97 1.251 . S
O94 Zn75 2.025 . S
O94 C97 1.254 . S
O95 C76 1.246 . S
O95 Zn83 2.034 . S
O96 Zn75 2.024 . S
O96 C76 1.249 . S
C97 O93 1.251 . S
C97 O94 1.254 . S
H98 C71 0.949 . S
H99 C73 0.950 . S
H100 C80 0.949 . S
H101 C82 0.950 . S
C102 O118 1.251 . S
C102 O120 1.254 . S
N103 C104 1.333 . S
N103 C108 1.307 . S
N103 Zn109 2.020 . S
C104 N103 1.333 . S
C104 C105 1.379 . S
C104 H122 0.952 . S
C105 C104 1.379 . S
C105 C106 1.390 . S
C105 H132 0.949 . S
C106 C105 1.390 . S
C106 C107 1.357 . S
C107 C106 1.357 . S
C107 C108 1.370 . S
C107 H133 0.950 . S
C108 N103 1.307 . S
C108 C107 1.370 . S
C108 H126 0.948 . S
Zn109 N103 2.020 . S
Zn109 O118 2.039 . S
Zn109 O124 2.034 . S
Zn109 O128 2.025 . S
Zn109 O130 2.024 . S
C110 O129 1.246 . S
C110 O130 1.249 . S
N111 C112 1.307 . S
N111 C113 1.333 . S
N111 Zn117 2.020 . S
C112 N111 1.307 . S
C112 C116 1.370 . S
C112 H123 0.948 . S
C113 N111 1.333 . S
C113 C114 1.379 . S
C113 H121 0.952 . S
C114 C113 1.379 . S
C114 C115 1.390 . S
C114 H134 0.949 . S
C115 C114 1.390 . S
C115 C116 1.357 . S
C116 C112 1.370 . S
C116 C115 1.357 . S
C116 H135 0.950 . S
Zn117 N111 2.020 . S
Zn117 O120 2.025 . S
Zn117 O125 2.024 . S
Zn117 O127 2.039 . S
Zn117 O129 2.034 . S
O118 C102 1.251 . S
O118 Zn109 2.039 . S
C119 O124 1.246 . S
C119 O125 1.249 . S
O120 C102 1.254 . S
O120 Zn117 2.025 . S
H121 C113 0.952 . S
H122 C104 0.952 . S
H123 C112 0.948 . S
O124 Zn109 2.034 . S
O124 C119 1.246 . S
O125 Zn117 2.024 . S
O125 C119 1.249 . S
H126 C108 0.948 . S
O127 Zn117 2.039 . S
O127 C131 1.251 . S
O128 Zn109 2.025 . S
O128 C131 1.254 . S
O129 C110 1.246 . S
O129 Zn117 2.034 . S
O130 Zn109 2.024 . S
O130 C110 1.249 . S
C131 O127 1.251 . S
C131 O128 1.254 . S
H132 C105 0.949 . S
H133 C107 0.950 . S
H134 C114 0.949 . S
H135 C116 0.950 . S
C136 O152 1.251 . S
C136 O154 1.254 . S
N137 C138 1.333 . S
N137 C142 1.307 . S
N137 Zn143 2.020 . S
C138 N137 1.333 . S
C138 C139 1.379 . S
C138 H156 0.952 . S
C139 C138 1.379 . S
C139 C140 1.390 . S
C139 H166 0.949 . S
C140 C139 1.390 . S
C140 C141 1.357 . S
C141 C140 1.357 . S
C141 C142 1.370 . S
C141 H167 0.950 . S
C142 N137 1.307 . S
C142 C141 1.370 . S
C142 H160 0.948 . S
Zn143 N137 2.020 . S
Zn143 O152 2.039 . S
Zn143 O158 2.034 . S
Zn143 O162 2.025 . S
Zn143 O164 2.024 . S
C144 O163 1.246 . S
C144 O164 1.249 . S
N145 C146 1.307 . S
N145 C147 1.333 . S
N145 Zn151 2.020 . S
C146 N145 1.307 . S
C146 C150 1.370 . S
C146 H157 0.948 . S
C147 N145 1.333 . S
C147 C148 1.379 . S
C147 H155 0.952 . S
C148 C147 1.379 . S
C148 C149 1.390 . S
C148 H168 0.949 . S
C149 C148 1.390 . S
C149 C150 1.357 . S
C150 C146 1.370 . S
C150 C149 1.357 . S
C150 H169 0.950 . S
Zn151 N145 2.020 . S
Zn151 O154 2.025 . S
Zn151 O159 2.024 . S
Zn151 O161 2.039 . S
Zn151 O163 2.034 . S
O152 C136 1.251 . S
O152 Zn143 2.039 . S
C153 O158 1.246 . S
C153 O159 1.249 . S
O154 C136 1.254 . S
O154 Zn151 2.025 . S
H155 C147 0.952 . S
H156 C138 0.952 . S
H157 C146 0.948 . S
O158 Zn143 2.034 . S
O158 C153 1.246 . S
O159 Zn151 2.024 . S
O159 C153 1.249 . S
H160 C142 0.948 . S
O161 Zn151 2.039 . S
O161 C165 1.251 . S
O162 Zn143 2.025 . S
O162 C165 1.254 . S
O163 C144 1.246 . S
O163 Zn151 2.034 . S
O164 Zn143 2.024 . S
O164 C144 1.249 . S
C165 O161 1.251 . S
C165 O162 1.254 . S
H166 C139 0.949 . S
H167 C141 0.950 . S
H168 C148 0.949 . S
H169 C150 0.950 . S
C170 O186 1.251 . S
C170 O188 1.254 . S
N171 C172 1.333 . S
N171 C176 1.307 . S
N171 Zn177 2.020 . S
C172 N171 1.333 . S
C172 C173 1.379 . S
C172 H190 0.952 . S
C173 C172 1.379 . S
C173 C174 1.390 . S
C173 H200 0.949 . S
C174 C173 1.390 . S
C174 C175 1.357 . S
C175 C174 1.357 . S
C175 C176 1.370 . S
C175 H201 0.950 . S
C176 N171 1.307 . S
C176 C175 1.370 . S
C176 H194 0.948 . S
Zn177 N171 2.020 . S
Zn177 O186 2.039 . S
Zn177 O192 2.034 . S
Zn177 O196 2.025 . S
Zn177 O198 2.024 . S
C178 O197 1.246 . S
C178 O198 1.249 . S
N179 C180 1.307 . S
N179 C181 1.333 . S
N179 Zn185 2.020 . S
C180 N179 1.307 . S
C180 C184 1.370 . S
C180 H191 0.948 . S
C181 N179 1.333 . S
C181 C182 1.379 . S
C181 H189 0.952 . S
C182 C181 1.379 . S
C182 C183 1.390 . S
C182 H202 0.949 . S
C183 C182 1.390 . S
C183 C184 1.357 . S
C184 C180 1.370 . S
C184 C183 1.357 . S
C184 H203 0.950 . S
Zn185 N179 2.020 . S
Zn185 O188 2.025 . S
Zn185 O193 2.024 . S
Zn185 O195 2.039 . S
Zn185 O197 2.034 . S
O186 C170 1.251 . S
O186 Zn177 2.039 . S
C187 O192 1.246 . S
C187 O193 1.249 . S
O188 C170 1.254 . S
O188 Zn185 2.025 . S
H189 C181 0.952 . S
H190 C172 0.952 . S
H191 C180 0.948 . S
O192 Zn177 2.034 . S
O192 C187 1.246 . S
O193 Zn185 2.024 . S
O193 C187 1.249 . S
H194 C176 0.948 . S
O195 Zn185 2.039 . S
O195 C199 1.251 . S
O196 Zn177 2.025 . S
O196 C199 1.254 . S
O197 C178 1.246 . S
O197 Zn185 2.034 . S
O198 Zn177 2.024 . S
O198 C178 1.249 . S
C199 O195 1.251 . S
C199 O196 1.254 . S
H200 C173 0.949 . S
H201 C175 0.950 . S
H202 C182 0.949 . S
H203 C184 0.950 . S
C204 O220 1.251 . S
C204 O222 1.254 . S
N205 C206 1.333 . S
N205 C210 1.307 . S
N205 Zn211 2.020 . S
C206 N205 1.333 . S
C206 C207 1.379 . S
C206 H224 0.952 . S
C207 C206 1.379 . S
C207 C208 1.390 . S
C207 H234 0.949 . S
C208 C207 1.390 . S
C208 C209 1.357 . S
C209 C208 1.357 . S
C209 C210 1.370 . S
C209 H235 0.950 . S
C210 N205 1.307 . S
C210 C209 1.370 . S
C210 H228 0.948 . S
Zn211 N205 2.020 . S
Zn211 O220 2.039 . S
Zn211 O226 2.034 . S
Zn211 O230 2.025 . S
Zn211 O232 2.024 . S
C212 O231 1.246 . S
C212 O232 1.249 . S
N213 C214 1.307 . S
N213 C215 1.333 . S
N213 Zn219 2.020 . S
C214 N213 1.307 . S
C214 C218 1.370 . S
C214 H225 0.948 . S
C215 N213 1.333 . S
C215 C216 1.379 . S
C215 H223 0.952 . S
C216 C215 1.379 . S
C216 C217 1.390 . S
C216 H236 0.949 . S
C217 C216 1.390 . S
C217 C218 1.357 . S
C218 C214 1.370 . S
C218 C217 1.357 . S
C218 H237 0.950 . S
Zn219 N213 2.020 . S
Zn219 O222 2.025 . S
Zn219 O227 2.024 . S
Zn219 O229 2.039 . S
Zn219 O231 2.034 . S
O220 C204 1.251 . S
O220 Zn211 2.039 . S
C221 O226 1.246 . S
C221 O227 1.249 . S
O222 C204 1.254 . S
O222 Zn219 2.025 . S
H223 C215 0.952 . S
H224 C206 0.952 . S
H225 C214 0.948 . S
O226 Zn211 2.034 . S
O226 C221 1.246 . S
O227 Zn219 2.024 . S
O227 C221 1.249 . S
H228 C210 0.948 . S
O229 Zn219 2.039 . S
O229 C233 1.251 . S
O230 Zn211 2.025 . S
O230 C233 1.254 . S
O231 C212 1.246 . S
O231 Zn219 2.034 . S
O232 Zn211 2.024 . S
O232 C212 1.249 . S
C233 O229 1.251 . S
C233 O230 1.254 . S
H234 C207 0.949 . S
H235 C209 0.950 . S
H236 C216 0.949 . S
H237 C218 0.950 . S
C238 O254 1.251 . S
C238 O256 1.254 . S
N239 C240 1.333 . S
N239 C244 1.307 . S
N239 Zn245 2.020 . S
C240 N239 1.333 . S
C240 C241 1.379 . S
C240 H258 0.952 . S
C241 C240 1.379 . S
C241 C242 1.390 . S
C241 H268 0.949 . S
C242 C241 1.390 . S
C242 C243 1.357 . S
C243 C242 1.357 . S
C243 C244 1.370 . S
C243 H269 0.950 . S
C244 N239 1.307 . S
C244 C243 1.370 . S
C244 H262 0.948 . S
Zn245 N239 2.020 . S
Zn245 O254 2.039 . S
Zn245 O260 2.034 . S
Zn245 O264 2.025 . S
Zn245 O266 2.024 . S
C246 O265 1.246 . S
C246 O266 1.249 . S
N247 C248 1.307 . S
N247 C249 1.333 . S
N247 Zn253 2.020 . S
C248 N247 1.307 . S
C248 C252 1.370 . S
C248 H259 0.948 . S
C249 N247 1.333 . S
C249 C250 1.379 . S
C249 H257 0.952 . S
C250 C249 1.379 . S
C250 C251 1.390 . S
C250 H270 0.949 . S
C251 C250 1.390 . S
C251 C252 1.357 . S
C252 C248 1.370 . S
C252 C251 1.357 . S
C252 H271 0.950 . S
Zn253 N247 2.020 . S
Zn253 O256 2.025 . S
Zn253 O261 2.024 . S
Zn253 O263 2.039 . S
Zn253 O265 2.034 . S
O254 C238 1.251 . S
O254 Zn245 2.039 . S
C255 O260 1.246 . S
C255 O261 1.249 . S
O256 C238 1.254 . S
O256 Zn253 2.025 . S
H257 C249 0.952 . S
H258 C240 0.952 . S
H259 C248 0.948 . S
O260 Zn245 2.034 . S
O260 C255 1.246 . S
O261 Zn253 2.024 . S
O261 C255 1.249 . S
H262 C244 0.948 . S
O263 Zn253 2.039 . S
O263 C267 1.251 . S
O264 Zn245 2.025 . S
O264 C267 1.254 . S
O265 C246 1.246 . S
O265 Zn253 2.034 . S
O266 Zn245 2.024 . S
O266 C246 1.249 . S
C267 O263 1.251 . S
C267 O264 1.254 . S
H268 C241 0.949 . S
H269 C243 0.950 . S
H270 C250 0.949 . S
H271 C252 0.950 . S
C272 O288 1.251 . S
C272 O290 1.254 . S
N273 C274 1.333 . S
N273 C278 1.307 . S
N273 Zn279 2.020 . S
C274 N273 1.333 . S
C274 C275 1.379 . S
C274 H292 0.952 . S
C275 C274 1.379 . S
C275 C276 1.390 . S
C275 H302 0.949 . S
C276 C275 1.390 . S
C276 C277 1.357 . S
C277 C276 1.357 . S
C277 C278 1.370 . S
C277 H303 0.950 . S
C278 N273 1.307 . S
C278 C277 1.370 . S
C278 H296 0.948 . S
Zn279 N273 2.020 . S
Zn279 O288 2.039 . S
Zn279 O294 2.034 . S
Zn279 O298 2.025 . S
Zn279 O300 2.024 . S
C280 O299 1.246 . S
C280 O300 1.249 . S
N281 C282 1.307 . S
N281 C283 1.333 . S
N281 Zn287 2.020 . S
C282 N281 1.307 . S
C282 C286 1.370 . S
C282 H293 0.948 . S
C283 N281 1.333 . S
C283 C284 1.379 . S
C283 H291 0.952 . S
C284 C283 1.379 . S
C284 C285 1.390 . S
C284 H304 0.949 . S
C285 C284 1.390 . S
C285 C286 1.357 . S
C286 C282 1.370 . S
C286 C285 1.357 . S
C286 H305 0.950 . S
Zn287 N281 2.020 . S
Zn287 O290 2.025 . S
Zn287 O295 2.024 . S
Zn287 O297 2.039 . S
Zn287 O299 2.034 . S
O288 C272 1.251 . S
O288 Zn279 2.039 . S
C289 O294 1.246 . S
C289 O295 1.249 . S
O290 C272 1.254 . S
O290 Zn287 2.025 . S
H291 C283 0.952 . S
H292 C274 0.952 . S
H293 C282 0.948 . S
O294 Zn279 2.034 . S
O294 C289 1.246 . S
O295 Zn287 2.024 . S
O295 C289 1.249 . S
H296 C278 0.948 . S
O297 Zn287 2.039 . S
O297 C301 1.251 . S
O298 Zn279 2.025 . S
O298 C301 1.254 . S
O299 C280 1.246 . S
O299 Zn287 2.034 . S
O300 Zn279 2.024 . S
O300 C280 1.249 . S
C301 O297 1.251 . S
C301 O298 1.254 . S
H302 C275 0.949 . S
H303 C277 0.950 . S
H304 C284 0.949 . S
H305 C286 0.950 . S
C306 O322 1.251 . S
C306 O324 1.254 . S
N307 C308 1.333 . S
N307 C312 1.307 . S
N307 Zn313 2.020 . S
C308 N307 1.333 . S
C308 C309 1.379 . S
C308 H326 0.952 . S
C309 C308 1.379 . S
C309 C310 1.390 . S
C309 H336 0.949 . S
C310 C309 1.390 . S
C310 C311 1.357 . S
C311 C310 1.357 . S
C311 C312 1.370 . S
C311 H337 0.950 . S
C312 N307 1.307 . S
C312 C311 1.370 . S
C312 H330 0.948 . S
Zn313 N307 2.020 . S
Zn313 O322 2.039 . S
Zn313 O328 2.034 . S
Zn313 O332 2.025 . S
Zn313 O334 2.024 . S
C314 O333 1.246 . S
C314 O334 1.249 . S
N315 C316 1.307 . S
N315 C317 1.333 . S
N315 Zn321 2.020 . S
C316 N315 1.307 . S
C316 C320 1.370 . S
C316 H327 0.948 . S
C317 N315 1.333 . S
C317 C318 1.379 . S
C317 H325 0.952 . S
C318 C317 1.379 . S
C318 C319 1.390 . S
C318 H338 0.949 . S
C319 C318 1.390 . S
C319 C320 1.357 . S
C320 C316 1.370 . S
C320 C319 1.357 . S
C320 H339 0.950 . S
Zn321 N315 2.020 . S
Zn321 O324 2.025 . S
Zn321 O329 2.024 . S
Zn321 O331 2.039 . S
Zn321 O333 2.034 . S
O322 C306 1.251 . S
O322 Zn313 2.039 . S
C323 O328 1.246 . S
C323 O329 1.249 . S
O324 C306 1.254 . S
O324 Zn321 2.025 . S
H325 C317 0.952 . S
H326 C308 0.952 . S
H327 C316 0.948 . S
O328 Zn313 2.034 . S
O328 C323 1.246 . S
O329 Zn321 2.024 . S
O329 C323 1.249 . S
H330 C312 0.948 . S
O331 Zn321 2.039 . S
O331 C335 1.251 . S
O332 Zn313 2.025 . S
O332 C335 1.254 . S
O333 C314 1.246 . S
O333 Zn321 2.034 . S
O334 Zn313 2.024 . S
O334 C314 1.249 . S
C335 O331 1.251 . S
C335 O332 1.254 . S
H336 C309 0.949 . S
H337 C311 0.950 . S
H338 C318 0.949 . S
H339 C320 0.950 . S
C340 O356 1.251 . S
C340 O358 1.254 . S
N341 C342 1.333 . S
N341 C346 1.307 . S
N341 Zn347 2.020 . S
C342 N341 1.333 . S
C342 C343 1.379 . S
C342 H360 0.952 . S
C343 C342 1.379 . S
C343 C344 1.390 . S
C343 H370 0.949 . S
C344 C343 1.390 . S
C344 C345 1.357 . S
C345 C344 1.357 . S
C345 C346 1.370 . S
C345 H371 0.950 . S
C346 N341 1.307 . S
C346 C345 1.370 . S
C346 H364 0.948 . S
Zn347 N341 2.020 . S
Zn347 O356 2.039 . S
Zn347 O362 2.034 . S
Zn347 O366 2.025 . S
Zn347 O368 2.024 . S
C348 O367 1.246 . S
C348 O368 1.249 . S
N349 C350 1.307 . S
N349 C351 1.333 . S
N349 Zn355 2.020 . S
C350 N349 1.307 . S
C350 C354 1.370 . S
C350 H361 0.948 . S
C351 N349 1.333 . S
C351 C352 1.379 . S
C351 H359 0.952 . S
C352 C351 1.379 . S
C352 C353 1.390 . S
C352 H372 0.949 . S
C353 C352 1.390 . S
C353 C354 1.357 . S
C354 C350 1.370 . S
C354 C353 1.357 . S
C354 H373 0.950 . S
Zn355 N349 2.020 . S
Zn355 O358 2.025 . S
Zn355 O363 2.024 . S
Zn355 O365 2.039 . S
Zn355 O367 2.034 . S
O356 C340 1.251 . S
O356 Zn347 2.039 . S
C357 O362 1.246 . S
C357 O363 1.249 . S
O358 C340 1.254 . S
O358 Zn355 2.025 . S
H359 C351 0.952 . S
H360 C342 0.952 . S
H361 C350 0.948 . S
O362 Zn347 2.034 . S
O362 C357 1.246 . S
O363 Zn355 2.024 . S
O363 C357 1.249 . S
H364 C346 0.948 . S
O365 Zn355 2.039 . S
O365 C369 1.251 . S
O366 Zn347 2.025 . S
O366 C369 1.254 . S
O367 C348 1.246 . S
O367 Zn355 2.034 . S
O368 Zn347 2.024 . S
O368 C348 1.249 . S
C369 O365 1.251 . S
C369 O366 1.254 . S
H370 C343 0.949 . S
H371 C345 0.950 . S
H372 C352 0.949 . S
H373 C354 0.950 . S
C374 O390 1.251 . S
C374 O392 1.254 . S
N375 C376 1.333 . S
N375 C380 1.307 . S
N375 Zn381 2.020 . S
C376 N375 1.333 . S
C376 C377 1.379 . S
C376 H394 0.952 . S
C377 C376 1.379 . S
C377 C378 1.390 . S
C377 H404 0.949 . S
C378 C377 1.390 . S
C378 C379 1.357 . S
C379 C378 1.357 . S
C379 C380 1.370 . S
C379 H405 0.950 . S
C380 N375 1.307 . S
C380 C379 1.370 . S
C380 H398 0.948 . S
Zn381 N375 2.020 . S
Zn381 O390 2.039 . S
Zn381 O396 2.034 . S
Zn381 O400 2.025 . S
Zn381 O402 2.024 . S
C382 O401 1.246 . S
C382 O402 1.249 . S
N383 C384 1.307 . S
N383 C385 1.333 . S
N383 Zn389 2.020 . S
C384 N383 1.307 . S
C384 C388 1.370 . S
C384 H395 0.948 . S
C385 N383 1.333 . S
C385 C386 1.379 . S
C385 H393 0.952 . S
C386 C385 1.379 . S
C386 C387 1.390 . S
C386 H406 0.949 . S
C387 C386 1.390 . S
C387 C388 1.357 . S
C388 C384 1.370 . S
C388 C387 1.357 . S
C388 H407 0.950 . S
Zn389 N383 2.020 . S
Zn389 O392 2.025 . S
Zn389 O397 2.024 . S
Zn389 O399 2.039 . S
Zn389 O401 2.034 . S
O390 C374 1.251 . S
O390 Zn381 2.039 . S
C391 O396 1.246 . S
C391 O397 1.249 . S
O392 C374 1.254 . S
O392 Zn389 2.025 . S
H393 C385 0.952 . S
H394 C376 0.952 . S
H395 C384 0.948 . S
O396 Zn381 2.034 . S
O396 C391 1.246 . S
O397 Zn389 2.024 . S
O397 C391 1.249 . S
H398 C380 0.948 . S
O399 Zn389 2.039 . S
O399 C403 1.251 . S
O400 Zn381 2.025 . S
O400 C403 1.254 . S
O401 C382 1.246 . S
O401 Zn389 2.034 . S
O402 Zn381 2.024 . S
O402 C382 1.249 . S
C403 O399 1.251 . S
C403 O400 1.254 . S
H404 C377 0.949 . S
H405 C379 0.950 . S
H406 C386 0.949 . S
H407 C388 0.950 . S
H408 C420 0.930 . S
H409 C422 0.930 . S
H410 C423 0.930 . S
H411 C427 0.959 . S
H412 C427 0.959 . S
H413 C427 0.961 . S
H414 C428 0.960 . S
H415 C428 0.961 . S
H416 C428 0.959 . S
H417 C431 0.929 . S
H418 C432 0.931 . S
H419 C434 0.930 . S
C420 H408 0.930 . S
C420 C421 1.399 . S
C420 C425 1.399 1_565 S
C421 C420 1.399 . S
C421 C422 1.376 . S
C422 H409 0.930 . S
C422 C421 1.376 . S
C422 C423 1.388 1_565 S
C423 H410 0.930 . S
C423 C422 1.388 1_545 S
C423 C424 1.390 . S
C424 C423 1.390 . S
C424 C425 1.394 . S
C424 C430 1.465 . S
C425 C420 1.399 1_545 S
C425 C424 1.394 . S
C425 C426 1.516 . S
C426 C425 1.516 . S
C426 C427 1.502 . S
C426 C428 1.561 . S
C426 C429 1.526 . S
C427 H411 0.959 . S
C427 H412 0.959 . S
C427 H413 0.961 . S
C427 C426 1.502 . S
C428 H414 0.960 . S
C428 H415 0.961 . S
C428 H416 0.959 . S
C428 C426 1.561 . S
C429 C426 1.526 . S
C429 C430 1.396 . S
C429 C434 1.390 . S
C430 C424 1.465 . S
C430 C429 1.396 . S
C430 C431 1.399 . S
C431 H417 0.929 . S
C431 C430 1.399 . S
C431 C432 1.385 . S
C432 H418 0.931 . S
C432 C431 1.385 . S
C432 C433 1.389 . S
C433 C432 1.389 . S
C433 C434 1.387 . S
C434 H419 0.930 . S
C434 C429 1.390 . S
C434 C433 1.387 . S
H435 C447 0.930 . S
H436 C449 0.930 . S
H437 C450 0.930 . S
H438 C454 0.959 . S
H439 C454 0.959 . S
H440 C454 0.961 . S
H441 C455 0.960 . S
H442 C455 0.961 . S
H443 C455 0.959 . S
H444 C458 0.929 . S
H445 C459 0.931 . S
H446 C461 0.930 1_655 S
C447 H435 0.930 . S
C447 C448 1.399 . S
C447 C452 1.399 . S
C448 C447 1.399 . S
C448 C449 1.376 . S
C449 H436 0.930 . S
C449 C448 1.376 . S
C449 C450 1.388 . S
C450 H437 0.930 . S
C450 C449 1.388 . S
C450 C451 1.390 . S
C451 C450 1.390 . S
C451 C452 1.394 . S
C451 C457 1.465 . S
C452 C447 1.399 . S
C452 C451 1.394 . S
C452 C453 1.516 . S
C453 C452 1.516 . S
C453 C454 1.502 . S
C453 C455 1.561 . S
C453 C456 1.526 . S
C454 H438 0.959 . S
C454 H439 0.959 . S
C454 H440 0.961 . S
C454 C453 1.502 . S
C455 H441 0.960 . S
C455 H442 0.961 . S
C455 H443 0.959 . S
C455 C453 1.561 . S
C456 C453 1.526 . S
C456 C457 1.396 . S
C456 C461 1.390 . S
C457 C451 1.465 . S
C457 C456 1.396 . S
C457 C458 1.399 . S
C458 H444 0.929 . S
C458 C457 1.399 . S
C458 C459 1.385 . S
C459 H445 0.931 . S
C459 C458 1.385 . S
C459 C460 1.389 . S
C460 C459 1.389 . S
C460 C461 1.387 . S
C461 H446 0.930 1_455 S
C461 C456 1.390 . S
C461 C460 1.387 . S
H462 C474 0.930 . S
H463 C476 0.930 . S
H464 C477 0.930 . S
H465 C481 0.959 . S
H466 C481 0.959 . S
H467 C481 0.961 . S
H468 C482 0.960 . S
H469 C482 0.961 . S
H470 C482 0.959 . S
H471 C485 0.929 . S
H472 C486 0.931 . S
H473 C488 0.930 . S
C474 H462 0.930 . S
C474 C475 1.399 . S
C474 C479 1.399 . S
C475 C474 1.399 . S
C475 C476 1.376 . S
C476 H463 0.930 . S
C476 C475 1.376 . S
C476 C477 1.388 . S
C477 H464 0.930 . S
C477 C476 1.388 . S
C477 C478 1.390 . S
C478 C477 1.390 . S
C478 C479 1.394 . S
C478 C484 1.465 . S
C479 C474 1.399 . S
C479 C478 1.394 . S
C479 C480 1.516 . S
C480 C479 1.516 . S
C480 C481 1.502 . S
C480 C482 1.561 . S
C480 C483 1.526 . S
C481 H465 0.959 . S
C481 H466 0.959 . S
C481 H467 0.961 . S
C481 C480 1.502 . S
C482 H468 0.960 . S
C482 H469 0.961 . S
C482 H470 0.959 . S
C482 C480 1.561 . S
C483 C480 1.526 . S
C483 C484 1.396 . S
C483 C488 1.390 1_655 S
C484 C478 1.465 . S
C484 C483 1.396 . S
C484 C485 1.399 . S
C485 H471 0.929 . S
C485 C484 1.399 . S
C485 C486 1.385 1_655 S
C486 H472 0.931 . S
C486 C485 1.385 1_455 S
C486 C487 1.389 . S
C487 C486 1.389 . S
C487 C488 1.387 . S
C488 H473 0.930 . S
C488 C483 1.390 1_455 S
C488 C487 1.387 . S
H489 C501 0.930 . S
H490 C503 0.930 . S
H491 C504 0.930 . S
H492 C508 0.959 . S
H493 C508 0.959 . S
H494 C508 0.961 . S
H495 C509 0.960 . S
H496 C509 0.961 . S
H497 C509 0.959 . S
H498 C512 0.929 . S
H499 C513 0.931 . S
H500 C515 0.930 . S
C501 H489 0.930 . S
C501 C502 1.399 . S
C501 C506 1.399 . S
C502 C501 1.399 . S
C502 C503 1.376 . S
C503 H490 0.930 . S
C503 C502 1.376 . S
C503 C504 1.388 . S
C504 H491 0.930 . S
C504 C503 1.388 . S
C504 C505 1.390 . S
C505 C504 1.390 . S
C505 C506 1.394 . S
C505 C511 1.465 . S
C506 C501 1.399 . S
C506 C505 1.394 . S
C506 C507 1.516 . S
C507 C506 1.516 . S
C507 C508 1.502 . S
C507 C509 1.561 . S
C507 C510 1.526 . S
C508 H492 0.959 . S
C508 H493 0.959 . S
C508 H494 0.961 . S
C508 C507 1.502 . S
C509 H495 0.960 . S
C509 H496 0.961 . S
C509 H497 0.959 . S
C509 C507 1.561 . S
C510 C507 1.526 . S
C510 C511 1.396 . S
C510 C515 1.390 1_565 S
C511 C505 1.465 . S
C511 C510 1.396 . S
C511 C512 1.399 . S
C512 H498 0.929 . S
C512 C511 1.399 . S
C512 C513 1.385 1_565 S
C513 H499 0.931 . S
C513 C512 1.385 1_545 S
C513 C514 1.389 . S
C514 C513 1.389 . S
C514 C515 1.387 . S
C515 H500 0.930 . S
C515 C510 1.390 1_545 S
C515 C514 1.387 . S
H516 C528 0.930 . S
H517 C530 0.930 . S
H518 C531 0.930 . S
H519 C535 0.959 . S
H520 C535 0.959 . S
H521 C535 0.961 . S
H522 C536 0.960 . S
H523 C536 0.961 . S
H524 C536 0.959 . S
H525 C539 0.929 . S
H526 C540 0.931 . S
H527 C542 0.930 . S
C528 H516 0.930 . S
C528 C529 1.399 1_655 S
C528 C533 1.399 . S
C529 C528 1.399 1_455 S
C529 C530 1.376 . S
C530 H517 0.930 . S
C530 C529 1.376 . S
C530 C531 1.388 1_455 S
C531 H518 0.930 . S
C531 C530 1.388 1_655 S
C531 C532 1.390 . S
C532 C531 1.390 . S
C532 C533 1.394 . S
C532 C538 1.465 . S
C533 C528 1.399 . S
C533 C532 1.394 . S
C533 C534 1.516 . S
C534 C533 1.516 . S
C534 C535 1.502 . S
C534 C536 1.561 . S
C534 C537 1.526 . S
C535 H519 0.959 . S
C535 H520 0.959 . S
C535 H521 0.961 . S
C535 C534 1.502 . S
C536 H522 0.960 . S
C536 H523 0.961 . S
C536 H524 0.959 . S
C536 C534 1.561 . S
C537 C534 1.526 . S
C537 C538 1.396 . S
C537 C542 1.390 . S
C538 C532 1.465 . S
C538 C537 1.396 . S
C538 C539 1.399 . S
C539 H525 0.929 . S
C539 C538 1.399 . S
C539 C540 1.385 . S
C540 H526 0.931 . S
C540 C539 1.385 . S
C540 C541 1.389 . S
C541 C540 1.389 . S
C541 C542 1.387 . S
C542 H527 0.930 . S
C542 C537 1.390 . S
C542 C541 1.387 . S
H543 C555 0.930 . S
H544 C557 0.930 . S
H545 C558 0.930 . S
H546 C562 0.959 . S
H547 C562 0.959 . S
H548 C562 0.961 . S
H549 C563 0.960 . S
H550 C563 0.961 . S
H551 C563 0.959 . S
H552 C566 0.929 . S
H553 C567 0.931 1_545 S
H554 C569 0.930 . S
C555 H543 0.930 . S
C555 C556 1.399 . S
C555 C560 1.399 1_655 S
C556 C555 1.399 . S
C556 C557 1.376 . S
C557 H544 0.930 . S
C557 C556 1.376 . S
C557 C558 1.388 1_655 S
C558 H545 0.930 . S
C558 C557 1.388 1_455 S
C558 C559 1.390 . S
C559 C558 1.390 . S
C559 C560 1.394 . S
C559 C565 1.465 . S
C560 C555 1.399 1_455 S
C560 C559 1.394 . S
C560 C561 1.516 . S
C561 C560 1.516 . S
C561 C562 1.502 . S
C561 C563 1.561 . S
C561 C564 1.526 . S
C562 H546 0.959 . S
C562 H547 0.959 . S
C562 H548 0.961 . S
C562 C561 1.502 . S
C563 H549 0.960 . S
C563 H550 0.961 . S
C563 H551 0.959 . S
C563 C561 1.561 . S
C564 C561 1.526 . S
C564 C565 1.396 . S
C564 C569 1.390 . S
C565 C559 1.465 . S
C565 C564 1.396 . S
C565 C566 1.399 . S
C566 H552 0.929 . S
C566 C565 1.399 . S
C566 C567 1.385 . S
C567 H553 0.931 1_565 S
C567 C566 1.385 . S
C567 C568 1.388 . S
C568 C567 1.388 . S
C568 C569 1.392 . S
C569 H554 0.930 . S
C569 C564 1.390 . S
C569 C568 1.392 . S
H570 C582 0.930 . S
H571 C584 0.930 . S
H572 C585 0.930 . S
H573 C589 0.959 . S
H574 C589 0.959 . S
H575 C589 0.961 . S
H576 C590 0.960 . S
H577 C590 0.961 . S
H578 C590 0.959 . S
H579 C593 0.929 . S
H580 C594 0.931 . S
H581 C596 0.930 . S
C582 H570 0.930 . S
C582 C583 1.399 . S
C582 C587 1.399 1_455 S
C583 C582 1.399 . S
C583 C584 1.376 . S
C584 H571 0.930 . S
C584 C583 1.376 . S
C584 C585 1.388 . S
C585 H572 0.930 . S
C585 C584 1.388 . S
C585 C586 1.390 1_455 S
C586 C585 1.390 1_655 S
C586 C587 1.394 . S
C586 C592 1.465 . S
C587 C582 1.399 1_655 S
C587 C586 1.394 . S
C587 C588 1.516 . S
C588 C587 1.516 . S
C588 C589 1.502 . S
C588 C590 1.561 . S
C588 C591 1.526 . S
C589 H573 0.959 . S
C589 H574 0.959 . S
C589 H575 0.961 . S
C589 C588 1.502 . S
C590 H576 0.960 . S
C590 H577 0.961 . S
C590 H578 0.959 . S
C590 C588 1.561 . S
C591 C588 1.526 . S
C591 C592 1.396 . S
C591 C596 1.390 . S
C592 C586 1.465 . S
C592 C591 1.396 . S
C592 C593 1.399 . S
C593 H579 0.929 . S
C593 C592 1.399 . S
C593 C594 1.385 . S
C594 H580 0.931 . S
C594 C593 1.385 . S
C594 C595 1.389 . S
C595 C594 1.389 . S
C595 C596 1.387 . S
C596 H581 0.930 . S
C596 C591 1.390 . S
C596 C595 1.387 . S
H597 C609 0.930 . S
H598 C611 0.930 . S
H599 C612 0.930 . S
H600 C616 0.959 . S
H601 C616 0.959 . S
H602 C616 0.961 . S
H603 C617 0.960 . S
H604 C617 0.961 . S
H605 C617 0.959 . S
H606 C620 0.929 . S
H607 C621 0.931 . S
H608 C623 0.930 . S
C609 H597 0.930 . S
C609 C610 1.399 . S
C609 C614 1.399 . S
C610 C609 1.399 . S
C610 C611 1.376 . S
C611 H598 0.930 . S
C611 C610 1.376 . S
C611 C612 1.388 . S
C612 H599 0.930 . S
C612 C611 1.388 . S
C612 C613 1.390 . S
C613 C612 1.390 . S
C613 C614 1.394 . S
C613 C619 1.465 . S
C614 C609 1.399 . S
C614 C613 1.394 . S
C614 C615 1.516 . S
C615 C614 1.516 . S
C615 C616 1.502 . S
C615 C617 1.561 . S
C615 C618 1.526 . S
C616 H600 0.959 . S
C616 H601 0.959 . S
C616 H602 0.961 . S
C616 C615 1.502 . S
C617 H603 0.960 . S
C617 H604 0.961 . S
C617 H605 0.959 . S
C617 C615 1.561 . S
C618 C615 1.526 . S
C618 C619 1.396 . S
C618 C623 1.390 1_565 S
C619 C613 1.465 . S
C619 C618 1.396 . S
C619 C620 1.399 . S
C620 H606 0.929 . S
C620 C619 1.399 . S
C620 C621 1.385 1_565 S
C621 H607 0.931 . S
C621 C620 1.385 1_545 S
C621 C622 1.389 . S
C622 C621 1.389 . S
C622 C623 1.387 . S
C623 H608 0.930 . S
C623 C618 1.390 1_545 S
C623 C622 1.387 . S
H624 C636 0.930 . S
H625 C638 0.930 . S
H626 C639 0.930 . S
H627 C643 0.959 . S
H628 C643 0.959 . S
H629 C643 0.961 . S
H630 C644 0.960 . S
H631 C644 0.961 . S
H632 C644 0.959 . S
H633 C647 0.929 . S
H634 C648 0.931 . S
H635 C650 0.930 . S
C636 H624 0.930 . S
C636 C637 1.399 . S
C636 C641 1.399 . S
C637 C636 1.399 . S
C637 C638 1.376 . S
C638 H625 0.930 . S
C638 C637 1.376 . S
C638 C639 1.388 . S
C639 H626 0.930 . S
C639 C638 1.388 . S
C639 C640 1.390 . S
C640 C639 1.390 . S
C640 C641 1.394 . S
C640 C646 1.465 . S
C641 C636 1.399 . S
C641 C640 1.394 . S
C641 C642 1.516 . S
C642 C641 1.516 . S
C642 C643 1.502 . S
C642 C644 1.561 . S
C642 C645 1.526 . S
C643 H627 0.959 . S
C643 H628 0.959 . S
C643 H629 0.961 . S
C643 C642 1.502 . S
C644 H630 0.960 . S
C644 H631 0.961 . S
C644 H632 0.959 . S
C644 C642 1.561 . S
C645 C642 1.526 . S
C645 C646 1.396 . S
C645 C650 1.390 . S
C646 C640 1.465 . S
C646 C645 1.396 . S
C646 C647 1.399 . S
C647 H633 0.929 . S
C647 C646 1.399 . S
C647 C648 1.385 1_545 S
C648 H634 0.931 . S
C648 C647 1.385 1_565 S
C648 C649 1.389 . S
C649 C648 1.389 . S
C649 C650 1.387 1_565 S
C650 H635 0.930 . S
C650 C645 1.390 . S
C650 C649 1.387 1_545 S
H651 C663 0.930 . S
H652 C665 0.930 . S
H653 C666 0.930 . S
H654 C670 0.959 . S
H655 C670 0.959 . S
H656 C670 0.961 . S
H657 C671 0.960 . S
H658 C671 0.961 . S
H659 C671 0.959 . S
H660 C674 0.929 . S
H661 C675 0.931 . S
H662 C677 0.930 . S
C663 H651 0.930 . S
C663 C664 1.399 . S
C663 C668 1.399 . S
C664 C663 1.399 . S
C664 C665 1.376 . S
C665 H652 0.930 . S
C665 C664 1.376 . S
C665 C666 1.388 . S
C666 H653 0.930 . S
C666 C665 1.388 . S
C666 C667 1.390 . S
C667 C666 1.390 . S
C667 C668 1.394 . S
C667 C673 1.465 . S
C668 C663 1.399 . S
C668 C667 1.394 . S
C668 C669 1.516 . S
C669 C668 1.516 . S
C669 C670 1.502 . S
C669 C671 1.561 . S
C669 C672 1.526 . S
C670 H654 0.959 . S
C670 H655 0.959 . S
C670 H656 0.961 . S
C670 C669 1.502 . S
C671 H657 0.960 . S
C671 H658 0.961 . S
C671 H659 0.959 . S
C671 C669 1.561 . S
C672 C669 1.526 . S
C672 C673 1.396 . S
C672 C677 1.390 1_455 S
C673 C667 1.465 . S
C673 C672 1.396 . S
C673 C674 1.399 1_455 S
C674 H660 0.929 . S
C674 C673 1.399 1_655 S
C674 C675 1.385 . S
C675 H661 0.931 . S
C675 C674 1.385 . S
C675 C676 1.389 . S
C676 C675 1.389 . S
C676 C677 1.387 . S
C677 H662 0.930 . S
C677 C672 1.390 1_655 S
C677 C676 1.387 . S
H678 C690 0.930 . S
H679 C692 0.941 . S
H680 C693 0.930 . S
H681 C697 0.959 . S
H682 C697 0.959 . S
H683 C697 0.961 . S
H684 C698 0.960 . S
H685 C698 0.961 . S
H686 C698 0.959 . S
H687 C701 0.929 . S
H688 C702 0.931 . S
H689 C704 0.930 . S
C690 H678 0.930 . S
C690 C691 1.399 1_655 S
C690 C695 1.399 . S
C691 C690 1.399 1_455 S
C691 C692 1.372 . S
C692 H679 0.941 . S
C692 C691 1.372 . S
C692 C693 1.383 1_455 S
C693 H680 0.930 . S
C693 C692 1.383 1_655 S
C693 C694 1.390 . S
C694 C693 1.390 . S
C694 C695 1.394 . S
C694 C700 1.465 . S
C695 C690 1.399 . S
C695 C694 1.394 . S
C695 C696 1.516 . S
C696 C695 1.516 . S
C696 C697 1.502 . S
C696 C698 1.561 . S
C696 C699 1.526 . S
C697 H681 0.959 . S
C697 H682 0.959 . S
C697 H683 0.961 . S
C697 C696 1.502 . S
C698 H684 0.960 . S
C698 H685 0.961 . S
C698 H686 0.959 . S
C698 C696 1.561 . S
C699 C696 1.526 . S
C699 C700 1.396 . S
C699 C704 1.390 1_545 S
C700 C694 1.465 . S
C700 C699 1.396 . S
C700 C701 1.399 . S
C701 H687 0.929 . S
C701 C700 1.399 . S
C701 C702 1.385 1_545 S
C702 H688 0.931 . S
C702 C701 1.385 1_565 S
C702 C703 1.389 . S
C703 C702 1.389 . S
C703 C704 1.387 . S
C704 H689 0.930 . S
C704 C699 1.390 1_565 S
C704 C703 1.387 . S
H705 C717 0.930 . S
H706 C719 0.930 . S
H707 C720 0.930 . S
H708 C724 0.959 . S
H709 C724 0.959 . S
H710 C724 0.961 . S
H711 C725 0.960 . S
H712 C725 0.961 . S
H713 C725 0.959 . S
H714 C728 0.929 . S
H715 C729 0.931 . S
H716 C731 0.930 . S
C717 H705 0.930 . S
C717 C718 1.399 . S
C717 C722 1.399 . S
C718 C717 1.399 . S
C718 C719 1.376 . S
C719 H706 0.930 . S
C719 C718 1.376 . S
C719 C720 1.388 . S
C720 H707 0.930 . S
C720 C719 1.388 . S
C720 C721 1.390 . S
C721 C720 1.390 . S
C721 C722 1.394 . S
C721 C727 1.465 . S
C722 C717 1.399 . S
C722 C721 1.394 . S
C722 C723 1.516 . S
C723 C722 1.516 . S
C723 C724 1.502 . S
C723 C725 1.561 . S
C723 C726 1.526 . S
C724 H708 0.959 . S
C724 H709 0.959 . S
C724 H710 0.961 . S
C724 C723 1.502 . S
C725 H711 0.960 . S
C725 H712 0.961 . S
C725 H713 0.959 . S
C725 C723 1.561 . S
C726 C723 1.526 . S
C726 C727 1.396 . S
C726 C731 1.390 . S
C727 C721 1.465 . S
C727 C726 1.396 . S
C727 C728 1.399 . S
C728 H714 0.929 . S
C728 C727 1.399 . S
C728 C729 1.385 . S
C729 H715 0.931 . S
C729 C728 1.385 . S
C729 C730 1.389 . S
C730 C729 1.389 . S
C730 C731 1.387 . S
C731 H716 0.930 . S
C731 C726 1.390 . S
C731 C730 1.387 . S
H732 C744 0.930 . S
H733 C746 0.930 . S
H734 C747 0.930 . S
H735 C751 0.959 . S
H736 C751 0.959 . S
H737 C751 0.961 . S
H738 C752 0.960 . S
H739 C752 0.961 . S
H740 C752 0.959 . S
H741 C755 0.929 . S
H742 C756 0.931 . S
H743 C758 0.930 . S
C744 H732 0.930 . S
C744 C745 1.399 . S
C744 C749 1.399 . S
C745 C744 1.399 . S
C745 C746 1.376 . S
C746 H733 0.930 . S
C746 C745 1.376 . S
C746 C747 1.388 . S
C747 H734 0.930 . S
C747 C746 1.388 . S
C747 C748 1.390 . S
C748 C747 1.390 . S
C748 C749 1.394 . S
C748 C754 1.465 . S
C749 C744 1.399 . S
C749 C748 1.394 . S
C749 C750 1.516 . S
C750 C749 1.516 . S
C750 C751 1.502 . S
C750 C752 1.561 . S
C750 C753 1.526 . S
C751 H735 0.959 . S
C751 H736 0.959 . S
C751 H737 0.961 . S
C751 C750 1.502 . S
C752 H738 0.960 . S
C752 H739 0.961 . S
C752 H740 0.959 . S
C752 C750 1.561 . S
C753 C750 1.526 . S
C753 C754 1.396 . S
C753 C758 1.390 . S
C754 C748 1.465 . S
C754 C753 1.396 . S
C754 C755 1.399 . S
C755 H741 0.929 . S
C755 C754 1.399 . S
C755 C756 1.385 . S
C756 H742 0.931 . S
C756 C755 1.385 . S
C756 C757 1.389 . S
C757 C756 1.389 . S
C757 C758 1.387 . S
C758 H743 0.930 . S
C758 C753 1.390 . S
C758 C757 1.387 . S
H759 C771 0.930 . S
H760 C773 0.930 . S
H761 C774 0.930 . S
H762 C778 0.959 . S
H763 C778 0.959 . S
H764 C778 0.961 . S
H765 C779 0.960 . S
H766 C779 0.961 . S
H767 C779 0.959 . S
H768 C782 0.929 . S
H769 C783 0.931 . S
H770 C785 0.930 . S
C771 H759 0.930 . S
C771 C772 1.399 . S
C771 C776 1.399 . S
C772 C771 1.399 . S
C772 C773 1.376 . S
C773 H760 0.930 . S
C773 C772 1.376 . S
C773 C774 1.388 . S
C774 H761 0.930 . S
C774 C773 1.388 . S
C774 C775 1.390 . S
C775 C774 1.390 . S
C775 C776 1.394 . S
C775 C781 1.465 . S
C776 C771 1.399 . S
C776 C775 1.394 . S
C776 C777 1.516 . S
C777 C776 1.516 . S
C777 C778 1.502 . S
C777 C779 1.561 . S
C777 C780 1.526 . S
C778 H762 0.959 . S
C778 H763 0.959 . S
C778 H764 0.961 . S
C778 C777 1.502 . S
C779 H765 0.960 . S
C779 H766 0.961 . S
C779 H767 0.959 . S
C779 C777 1.561 . S
C780 C777 1.526 . S
C780 C781 1.396 . S
C780 C785 1.390 . S
C781 C775 1.465 . S
C781 C780 1.396 . S
C781 C782 1.399 . S
C782 H768 0.929 . S
C782 C781 1.399 . S
C782 C783 1.385 . S
C783 H769 0.931 . S
C783 C782 1.385 . S
C783 C784 1.389 . S
C784 C783 1.389 . S
C784 C785 1.387 . S
C785 H770 0.930 . S
C785 C780 1.390 . S
C785 C784 1.387 . S
H786 C798 0.930 . S
H787 C800 0.930 . S
H788 C801 0.930 . S
H789 C805 0.959 . S
H790 C805 0.959 . S
H791 C805 0.961 . S
H792 C806 0.960 . S
H793 C806 0.961 . S
H794 C806 0.959 . S
H795 C809 0.929 . S
H796 C810 0.931 . S
H797 C812 0.930 . S
C798 H786 0.930 . S
C798 C799 1.399 . S
C798 C803 1.399 . S
C799 C798 1.399 . S
C799 C800 1.376 . S
C800 H787 0.930 . S
C800 C799 1.376 . S
C800 C801 1.388 . S
C801 H788 0.930 . S
C801 C800 1.388 . S
C801 C802 1.390 . S
C802 C801 1.390 . S
C802 C803 1.394 . S
C802 C808 1.465 . S
C803 C798 1.399 . S
C803 C802 1.394 . S
C803 C804 1.516 . S
C804 C803 1.516 . S
C804 C805 1.502 . S
C804 C806 1.561 . S
C804 C807 1.526 . S
C805 H789 0.959 . S
C805 H790 0.959 . S
C805 H791 0.961 . S
C805 C804 1.502 . S
C806 H792 0.960 . S
C806 H793 0.961 . S
C806 H794 0.959 . S
C806 C804 1.561 . S
C807 C804 1.526 . S
C807 C808 1.396 . S
C807 C812 1.390 . S
C808 C802 1.465 . S
C808 C807 1.396 . S
C808 C809 1.399 . S
C809 H795 0.929 . S
C809 C808 1.399 . S
C809 C810 1.385 . S
C810 H796 0.931 . S
C810 C809 1.385 . S
C810 C811 1.389 . S
C811 C810 1.389 . S
C811 C812 1.387 . S
C812 H797 0.930 . S
C812 C807 1.390 . S
C812 C811 1.387 . S
H813 C825 0.930 . S
H814 C827 0.930 . S
H815 C828 0.930 . S
H816 C832 0.959 . S
H817 C832 0.959 . S
H818 C832 0.961 . S
H819 C833 0.960 . S
H820 C833 0.961 . S
H821 C833 0.959 . S
H822 C836 0.929 . S
H823 C837 0.931 . S
H824 C839 0.930 . S
C825 H813 0.930 . S
C825 C826 1.399 . S
C825 C830 1.399 . S
C826 C825 1.399 . S
C826 C827 1.376 . S
C827 H814 0.930 . S
C827 C826 1.376 . S
C827 C828 1.388 . S
C828 H815 0.930 . S
C828 C827 1.388 . S
C828 C829 1.390 . S
C829 C828 1.390 . S
C829 C830 1.394 . S
C829 C835 1.465 . S
C830 C825 1.399 . S
C830 C829 1.394 . S
C830 C831 1.516 . S
C831 C830 1.516 . S
C831 C832 1.502 . S
C831 C833 1.561 . S
C831 C834 1.526 . S
C832 H816 0.959 . S
C832 H817 0.959 . S
C832 H818 0.961 . S
C832 C831 1.502 . S
C833 H819 0.960 . S
C833 H820 0.961 . S
C833 H821 0.959 . S
C833 C831 1.561 . S
C834 C831 1.526 . S
C834 C835 1.396 . S
C834 C839 1.390 . S
C835 C829 1.465 . S
C835 C834 1.396 . S
C835 C836 1.399 . S
C836 H822 0.929 . S
C836 C835 1.399 . S
C836 C837 1.385 . S
C837 H823 0.931 . S
C837 C836 1.385 . S
C837 C838 1.389 . S
C838 C837 1.389 . S
C838 C839 1.387 . S
C839 H824 0.930 . S
C839 C834 1.390 . S
C839 C838 1.387 . S
H840 C852 0.930 . S
H841 C854 0.930 . S
H842 C855 0.930 . S
H843 C859 0.959 . S
H844 C859 0.959 . S
H845 C859 0.961 . S
H846 C860 0.960 . S
H847 C860 0.961 . S
H848 C860 0.959 . S
H849 C863 0.929 . S
H850 C864 0.931 . S
H851 C866 0.930 . S
C852 H840 0.930 . S
C852 C853 1.399 . S
C852 C857 1.399 . S
C853 C852 1.399 . S
C853 C854 1.376 . S
C854 H841 0.930 . S
C854 C853 1.376 . S
C854 C855 1.388 . S
C855 H842 0.930 . S
C855 C854 1.388 . S
C855 C856 1.390 . S
C856 C855 1.390 . S
C856 C857 1.394 . S
C856 C862 1.465 . S
C857 C852 1.399 . S
C857 C856 1.394 . S
C857 C858 1.516 . S
C858 C857 1.516 . S
C858 C859 1.502 . S
C858 C860 1.561 . S
C858 C861 1.526 . S
C859 H843 0.959 . S
C859 H844 0.959 . S
C859 H845 0.961 . S
C859 C858 1.502 . S
C860 H846 0.960 . S
C860 H847 0.961 . S
C860 H848 0.959 . S
C860 C858 1.561 . S
C861 C858 1.526 . S
C861 C862 1.396 . S
C861 C866 1.390 . S
C862 C856 1.465 . S
C862 C861 1.396 . S
C862 C863 1.399 . S
C863 H849 0.929 . S
C863 C862 1.399 . S
C863 C864 1.385 . S
C864 H850 0.931 . S
C864 C863 1.385 . S
C864 C865 1.389 . S
C865 C864 1.389 . S
C865 C866 1.387 . S
C866 H851 0.930 . S
C866 C861 1.390 . S
C866 C865 1.387 . S
H867 C879 0.930 . S
H868 C881 0.930 . S
H869 C882 0.930 . S
H870 C886 0.959 . S
H871 C886 0.959 . S
H872 C886 0.961 . S
H873 C887 0.960 . S
H874 C887 0.961 . S
H875 C887 0.959 . S
H876 C890 0.929 . S
H877 C891 0.931 . S
H878 C893 0.930 . S
C879 H867 0.930 . S
C879 C880 1.399 . S
C879 C884 1.399 . S
C880 C879 1.399 . S
C880 C881 1.376 . S
C881 H868 0.930 . S
C881 C880 1.376 . S
C881 C882 1.388 . S
C882 H869 0.930 . S
C882 C881 1.388 . S
C882 C883 1.390 . S
C883 C882 1.390 . S
C883 C884 1.394 . S
C883 C889 1.465 . S
C884 C879 1.399 . S
C884 C883 1.394 . S
C884 C885 1.516 . S
C885 C884 1.516 . S
C885 C886 1.502 . S
C885 C887 1.561 . S
C885 C888 1.526 . S
C886 H870 0.959 . S
C886 H871 0.959 . S
C886 H872 0.961 . S
C886 C885 1.502 . S
C887 H873 0.960 . S
C887 H874 0.961 . S
C887 H875 0.959 . S
C887 C885 1.561 . S
C888 C885 1.526 . S
C888 C889 1.396 . S
C888 C893 1.390 . S
C889 C883 1.465 . S
C889 C888 1.396 . S
C889 C890 1.399 . S
C890 H876 0.929 . S
C890 C889 1.399 . S
C890 C891 1.385 . S
C891 H877 0.931 . S
C891 C890 1.385 . S
C891 C892 1.389 . S
C892 C891 1.389 . S
C892 C893 1.387 . S
C893 H878 0.930 . S
C893 C888 1.390 . S
C893 C892 1.387 . S
H894 C906 0.930 . S
H895 C908 0.930 . S
H896 C909 0.930 . S
H897 C913 0.959 . S
H898 C913 0.959 . S
H899 C913 0.961 . S
H900 C914 0.960 . S
H901 C914 0.961 . S
H902 C914 0.959 . S
H903 C917 0.929 . S
H904 C918 0.931 . S
H905 C920 0.930 . S
C906 H894 0.930 . S
C906 C907 1.399 . S
C906 C911 1.399 . S
C907 C906 1.399 . S
C907 C908 1.376 . S
C908 H895 0.930 . S
C908 C907 1.376 . S
C908 C909 1.388 . S
C909 H896 0.930 . S
C909 C908 1.388 . S
C909 C910 1.390 . S
C910 C909 1.390 . S
C910 C911 1.394 . S
C910 C916 1.465 . S
C911 C906 1.399 . S
C911 C910 1.394 . S
C911 C912 1.516 . S
C912 C911 1.516 . S
C912 C913 1.502 . S
C912 C914 1.561 . S
C912 C915 1.526 . S
C913 H897 0.959 . S
C913 H898 0.959 . S
C913 H899 0.961 . S
C913 C912 1.502 . S
C914 H900 0.960 . S
C914 H901 0.961 . S
C914 H902 0.959 . S
C914 C912 1.561 . S
C915 C912 1.526 . S
C915 C916 1.396 . S
C915 C920 1.390 . S
C916 C910 1.465 . S
C916 C915 1.396 . S
C916 C917 1.399 . S
C917 H903 0.929 . S
C917 C916 1.399 . S
C917 C918 1.385 . S
C918 H904 0.931 . S
C918 C917 1.385 . S
C918 C919 1.389 . S
C919 C918 1.389 . S
C919 C920 1.387 . S
C920 H905 0.930 . S
C920 C915 1.390 . S
C920 C919 1.387 . S
H921 C933 0.930 . S
H922 C935 0.930 . S
H923 C936 0.930 . S
H924 C940 0.959 . S
H925 C940 0.959 . S
H926 C940 0.961 . S
H927 C941 0.960 . S
H928 C941 0.961 . S
H929 C941 0.959 . S
H930 C944 0.929 . S
H931 C945 0.931 . S
H932 C947 0.930 . S
C933 H921 0.930 . S
C933 C934 1.399 . S
C933 C938 1.399 . S
C934 C933 1.399 . S
C934 C935 1.376 . S
C935 H922 0.930 . S
C935 C934 1.376 . S
C935 C936 1.388 . S
C936 H923 0.930 . S
C936 C935 1.388 . S
C936 C937 1.390 . S
C937 C936 1.390 . S
C937 C938 1.394 . S
C937 C943 1.465 . S
C938 C933 1.399 . S
C938 C937 1.394 . S
C938 C939 1.516 . S
C939 C938 1.516 . S
C939 C940 1.502 . S
C939 C941 1.561 . S
C939 C942 1.526 . S
C940 H924 0.959 . S
C940 H925 0.959 . S
C940 H926 0.961 . S
C940 C939 1.502 . S
C941 H927 0.960 . S
C941 H928 0.961 . S
C941 H929 0.959 . S
C941 C939 1.561 . S
C942 C939 1.526 . S
C942 C943 1.396 . S
C942 C947 1.390 . S
C943 C937 1.465 . S
C943 C942 1.396 . S
C943 C944 1.399 . S
C944 H930 0.929 . S
C944 C943 1.399 . S
C944 C945 1.385 . S
C945 H931 0.931 . S
C945 C944 1.385 . S
C945 C946 1.389 . S
C946 C945 1.389 . S
C946 C947 1.387 . S
C947 H932 0.930 . S
C947 C942 1.390 . S
C947 C946 1.387 . S
H948 C960 0.930 . S
H949 C962 0.930 . S
H950 C963 0.930 . S
H951 C967 0.959 . S
H952 C967 0.959 . S
H953 C967 0.961 . S
H954 C968 0.960 . S
H955 C968 0.961 . S
H956 C968 0.959 . S
H957 C971 0.929 . S
H958 C972 0.931 . S
H959 C974 0.930 . S
C960 H948 0.930 . S
C960 C961 1.399 . S
C960 C965 1.399 . S
C961 C960 1.399 . S
C961 C962 1.376 . S
C962 H949 0.930 . S
C962 C961 1.376 . S
C962 C963 1.388 . S
C963 H950 0.930 . S
C963 C962 1.388 . S
C963 C964 1.390 . S
C964 C963 1.390 . S
C964 C965 1.394 . S
C964 C970 1.465 . S
C965 C960 1.399 . S
C965 C964 1.394 . S
C965 C966 1.516 . S
C966 C965 1.516 . S
C966 C967 1.502 . S
C966 C968 1.561 . S
C966 C969 1.526 . S
C967 H951 0.959 . S
C967 H952 0.959 . S
C967 H953 0.961 . S
C967 C966 1.502 . S
C968 H954 0.960 . S
C968 H955 0.961 . S
C968 H956 0.959 . S
C968 C966 1.561 . S
C969 C966 1.526 . S
C969 C970 1.396 . S
C969 C974 1.390 . S
C970 C964 1.465 . S
C970 C969 1.396 . S
C970 C971 1.399 . S
C971 H957 0.929 . S
C971 C970 1.399 . S
C971 C972 1.385 . S
C972 H958 0.931 . S
C972 C971 1.385 . S
C972 C973 1.389 . S
C973 C972 1.389 . S
C973 C974 1.387 . S
C974 H959 0.930 . S
C974 C969 1.390 . S
C974 C973 1.387 . S
H975 C987 0.930 . S
H976 C989 0.930 . S
H977 C990 0.930 . S
H978 C994 0.959 . S
H979 C994 0.959 . S
H980 C994 0.961 . S
H981 C995 0.960 . S
H982 C995 0.961 . S
H983 C995 0.959 . S
H984 C998 0.929 . S
H985 C999 0.931 . S
H986 C1001 0.930 . S
C987 H975 0.930 . S
C987 C988 1.399 . S
C987 C992 1.399 . S
C988 C987 1.399 . S
C988 C989 1.376 . S
C989 H976 0.930 . S
C989 C988 1.376 . S
C989 C990 1.388 . S
C990 H977 0.930 . S
C990 C989 1.388 . S
C990 C991 1.390 . S
C991 C990 1.390 . S
C991 C992 1.394 . S
C991 C997 1.465 . S
C992 C987 1.399 . S
C992 C991 1.394 . S
C992 C993 1.516 . S
C993 C992 1.516 . S
C993 C994 1.502 . S
C993 C995 1.561 . S
C993 C996 1.526 . S
C994 H978 0.959 . S
C994 H979 0.959 . S
C994 H980 0.961 . S
C994 C993 1.502 . S
C995 H981 0.960 . S
C995 H982 0.961 . S
C995 H983 0.959 . S
C995 C993 1.561 . S
C996 C993 1.526 . S
C996 C997 1.396 . S
C996 C1001 1.390 . S
C997 C991 1.465 . S
C997 C996 1.396 . S
C997 C998 1.399 . S
C998 H984 0.929 . S
C998 C997 1.399 . S
C998 C999 1.385 . S
C999 H985 0.931 . S
C999 C998 1.385 . S
C999 C1000 1.389 . S
C1000 C999 1.389 . S
C1000 C1001 1.387 . S
C1001 H986 0.930 . S
C1001 C996 1.390 . S
C1001 C1000 1.387 . S
H1002 C1014 0.930 . S
H1003 C1016 0.930 . S
H1004 C1017 0.930 . S
H1005 C1021 0.959 . S
H1006 C1021 0.959 . S
H1007 C1021 0.961 . S
H1008 C1022 0.960 . S
H1009 C1022 0.961 . S
H1010 C1022 0.959 . S
H1011 C1025 0.929 . S
H1012 C1026 0.931 . S
H1013 C1028 0.930 . S
C1014 H1002 0.930 . S
C1014 C1015 1.399 . S
C1014 C1019 1.399 . S
C1015 C1014 1.399 . S
C1015 C1016 1.376 . S
C1016 H1003 0.930 . S
C1016 C1015 1.376 . S
C1016 C1017 1.388 . S
C1017 H1004 0.930 . S
C1017 C1016 1.388 . S
C1017 C1018 1.390 . S
C1018 C1017 1.390 . S
C1018 C1019 1.394 . S
C1018 C1024 1.465 . S
C1019 C1014 1.399 . S
C1019 C1018 1.394 . S
C1019 C1020 1.516 . S
C1020 C1019 1.516 . S
C1020 C1021 1.502 . S
C1020 C1022 1.561 . S
C1020 C1023 1.526 . S
C1021 H1005 0.959 . S
C1021 H1006 0.959 . S
C1021 H1007 0.961 . S
C1021 C1020 1.502 . S
C1022 H1008 0.960 . S
C1022 H1009 0.961 . S
C1022 H1010 0.959 . S
C1022 C1020 1.561 . S
C1023 C1020 1.526 . S
C1023 C1024 1.396 . S
C1023 C1028 1.390 . S
C1024 C1018 1.465 . S
C1024 C1023 1.396 . S
C1024 C1025 1.399 . S
C1025 H1011 0.929 . S
C1025 C1024 1.399 . S
C1025 C1026 1.385 . S
C1026 H1012 0.931 . S
C1026 C1025 1.385 . S
C1026 C1027 1.389 . S
C1027 C1026 1.389 . S
C1027 C1028 1.387 . S
C1028 H1013 0.930 . S
C1028 C1023 1.390 . S
C1028 C1027 1.387 . S
H1029 C1041 0.930 . S
H1030 C1043 0.930 . S
H1031 C1044 0.930 . S
H1032 C1048 0.959 . S
H1033 C1048 0.959 . S
H1034 C1048 0.961 . S
H1035 C1049 0.960 1_455 S
H1036 C1049 0.961 . S
H1037 C1049 0.959 . S
H1038 C1052 0.929 . S
H1039 C1053 0.931 . S
H1040 C1055 0.930 . S
C1041 H1029 0.930 . S
C1041 C1042 1.399 . S
C1041 C1046 1.399 . S
C1042 C1041 1.399 . S
C1042 C1043 1.376 . S
C1043 H1030 0.930 . S
C1043 C1042 1.376 . S
C1043 C1044 1.388 . S
C1044 H1031 0.930 . S
C1044 C1043 1.388 . S
C1044 C1045 1.390 . S
C1045 C1044 1.390 . S
C1045 C1046 1.394 . S
C1045 C1051 1.465 . S
C1046 C1041 1.399 . S
C1046 C1045 1.394 . S
C1046 C1047 1.516 . S
C1047 C1046 1.516 . S
C1047 C1048 1.502 . S
C1047 C1049 1.561 . S
C1047 C1050 1.526 . S
C1048 H1032 0.959 . S
C1048 H1033 0.959 . S
C1048 H1034 0.961 . S
C1048 C1047 1.502 . S
C1049 H1035 0.960 1_655 S
C1049 H1036 0.961 . S
C1049 H1037 0.959 . S
C1049 C1047 1.561 . S
C1050 C1047 1.526 . S
C1050 C1051 1.396 . S
C1050 C1055 1.390 . S
C1051 C1045 1.465 . S
C1051 C1050 1.396 . S
C1051 C1052 1.399 . S
C1052 H1038 0.929 . S
C1052 C1051 1.399 . S
C1052 C1053 1.385 . S
C1053 H1039 0.931 . S
C1053 C1052 1.385 . S
C1053 C1054 1.389 . S
C1054 C1053 1.389 . S
C1054 C1055 1.387 . S
C1055 H1040 0.930 . S
C1055 C1050 1.390 . S
C1055 C1054 1.387 . S
H1056 C1068 0.930 . S
H1057 C1070 0.930 . S
H1058 C1071 0.930 . S
H1059 C1075 0.959 . S
H1060 C1075 0.959 . S
H1061 C1075 0.961 . S
H1062 C1076 0.960 . S
H1063 C1076 0.961 . S
H1064 C1076 0.959 . S
H1065 C1079 0.929 . S
H1066 C1080 0.931 . S
H1067 C1082 0.930 . S
C1068 H1056 0.930 . S
C1068 C1069 1.399 . S
C1068 C1073 1.399 . S
C1069 C1068 1.399 . S
C1069 C1070 1.376 . S
C1070 H1057 0.930 . S
C1070 C1069 1.376 . S
C1070 C1071 1.388 . S
C1071 H1058 0.930 . S
C1071 C1070 1.388 . S
C1071 C1072 1.390 . S
C1072 C1071 1.390 . S
C1072 C1073 1.394 . S
C1072 C1078 1.465 . S
C1073 C1068 1.399 . S
C1073 C1072 1.394 . S
C1073 C1074 1.516 . S
C1074 C1073 1.516 . S
C1074 C1075 1.502 . S
C1074 C1076 1.561 . S
C1074 C1077 1.526 . S
C1075 H1059 0.959 . S
C1075 H1060 0.959 . S
C1075 H1061 0.961 . S
C1075 C1074 1.502 . S
C1076 H1062 0.960 . S
C1076 H1063 0.961 . S
C1076 H1064 0.959 . S
C1076 C1074 1.561 . S
C1077 C1074 1.526 . S
C1077 C1078 1.396 . S
C1077 C1082 1.390 . S
C1078 C1072 1.465 . S
C1078 C1077 1.396 . S
C1078 C1079 1.399 . S
C1079 H1065 0.929 . S
C1079 C1078 1.399 . S
C1079 C1080 1.385 . S
C1080 H1066 0.931 . S
C1080 C1079 1.385 . S
C1080 C1081 1.389 . S
C1081 C1080 1.389 . S
C1081 C1082 1.387 . S
C1082 H1067 0.930 . S
C1082 C1077 1.390 . S
C1082 C1081 1.387 . S
H1083 C1095 0.930 . S
H1084 C1097 0.930 . S
H1085 C1098 0.930 . S
H1086 C1102 0.959 . S
H1087 C1102 0.959 . S
H1088 C1102 0.961 . S
H1089 C1103 0.960 . S
H1090 C1103 0.961 . S
H1091 C1103 0.959 . S
H1092 C1106 0.929 . S
H1093 C1107 0.931 . S
H1094 C1109 0.930 . S
C1095 H1083 0.930 . S
C1095 C1096 1.399 . S
C1095 C1100 1.399 . S
C1096 C1095 1.399 . S
C1096 C1097 1.376 . S
C1097 H1084 0.930 . S
C1097 C1096 1.376 . S
C1097 C1098 1.388 . S
C1098 H1085 0.930 . S
C1098 C1097 1.388 . S
C1098 C1099 1.390 . S
C1099 C1098 1.390 . S
C1099 C1100 1.394 . S
C1099 C1105 1.465 . S
C1100 C1095 1.399 . S
C1100 C1099 1.394 . S
C1100 C1101 1.516 . S
C1101 C1100 1.516 . S
C1101 C1102 1.502 . S
C1101 C1103 1.561 . S
C1101 C1104 1.526 . S
C1102 H1086 0.959 . S
C1102 H1087 0.959 . S
C1102 H1088 0.961 . S
C1102 C1101 1.502 . S
C1103 H1089 0.960 . S
C1103 H1090 0.961 . S
C1103 H1091 0.959 . S
C1103 C1101 1.561 . S
C1104 C1101 1.526 . S
C1104 C1105 1.396 . S
C1104 C1109 1.390 . S
C1105 C1099 1.465 . S
C1105 C1104 1.396 . S
C1105 C1106 1.399 . S
C1106 H1092 0.929 . S
C1106 C1105 1.399 . S
C1106 C1107 1.385 . S
C1107 H1093 0.931 . S
C1107 C1106 1.385 . S
C1107 C1108 1.389 . S
C1108 C1107 1.389 . S
C1108 C1109 1.387 . S
C1109 H1094 0.930 . S
C1109 C1104 1.390 . S
C1109 C1108 1.387 . S
H1110 C1122 0.930 . S
H1111 C1124 0.930 . S
H1112 C1125 0.930 . S
H1113 C1129 0.959 . S
H1114 C1129 0.959 . S
H1115 C1129 0.961 . S
H1116 C1130 0.960 . S
H1117 C1130 0.961 . S
H1118 C1130 0.959 . S
H1119 C1133 0.929 . S
H1120 C1134 0.931 . S
H1121 C1136 0.930 . S
C1122 H1110 0.930 . S
C1122 C1123 1.399 . S
C1122 C1127 1.399 . S
C1123 C1122 1.399 . S
C1123 C1124 1.376 . S
C1124 H1111 0.930 . S
C1124 C1123 1.376 . S
C1124 C1125 1.388 . S
C1125 H1112 0.930 . S
C1125 C1124 1.388 . S
C1125 C1126 1.390 . S
C1126 C1125 1.390 . S
C1126 C1127 1.394 . S
C1126 C1132 1.465 . S
C1127 C1122 1.399 . S
C1127 C1126 1.394 . S
C1127 C1128 1.516 . S
C1128 C1127 1.516 . S
C1128 C1129 1.502 . S
C1128 C1130 1.561 . S
C1128 C1131 1.526 . S
C1129 H1113 0.959 . S
C1129 H1114 0.959 . S
C1129 H1115 0.961 . S
C1129 C1128 1.502 . S
C1130 H1116 0.960 . S
C1130 H1117 0.961 . S
C1130 H1118 0.959 . S
C1130 C1128 1.561 . S
C1131 C1128 1.526 . S
C1131 C1132 1.396 . S
C1131 C1136 1.390 . S
C1132 C1126 1.465 . S
C1132 C1131 1.396 . S
C1132 C1133 1.399 . S
C1133 H1119 0.929 . S
C1133 C1132 1.399 . S
C1133 C1134 1.385 . S
C1134 H1120 0.931 . S
C1134 C1133 1.385 . S
C1134 C1135 1.389 . S
C1135 C1134 1.389 . S
C1135 C1136 1.387 . S
C1136 H1121 0.930 . S
C1136 C1131 1.390 . S
C1136 C1135 1.387 . S
H1137 C1149 0.930 . S
H1138 C1151 0.930 . S
H1139 C1152 0.930 . S
H1140 C1156 0.959 . S
H1141 C1156 0.959 . S
H1142 C1156 0.961 . S
H1143 C1157 0.960 . S
H1144 C1157 0.961 . S
H1145 C1157 0.959 . S
H1146 C1160 0.929 . S
H1147 C1161 0.931 . S
H1148 C1163 0.930 . S
C1149 H1137 0.930 . S
C1149 C1150 1.399 . S
C1149 C1154 1.399 . S
C1150 C1149 1.399 . S
C1150 C1151 1.376 . S
C1151 H1138 0.930 . S
C1151 C1150 1.376 . S
C1151 C1152 1.388 . S
C1152 H1139 0.930 . S
C1152 C1151 1.388 . S
C1152 C1153 1.390 . S
C1153 C1152 1.390 . S
C1153 C1154 1.394 . S
C1153 C1159 1.465 . S
C1154 C1149 1.399 . S
C1154 C1153 1.394 . S
C1154 C1155 1.516 . S
C1155 C1154 1.516 . S
C1155 C1156 1.502 . S
C1155 C1157 1.561 . S
C1155 C1158 1.526 . S
C1156 H1140 0.959 . S
C1156 H1141 0.959 . S
C1156 H1142 0.961 . S
C1156 C1155 1.502 . S
C1157 H1143 0.960 . S
C1157 H1144 0.961 . S
C1157 H1145 0.959 . S
C1157 C1155 1.561 . S
C1158 C1155 1.526 . S
C1158 C1159 1.396 . S
C1158 C1163 1.390 . S
C1159 C1153 1.465 . S
C1159 C1158 1.396 . S
C1159 C1160 1.399 . S
C1160 H1146 0.929 . S
C1160 C1159 1.399 . S
C1160 C1161 1.385 . S
C1161 H1147 0.931 . S
C1161 C1160 1.385 . S
C1161 C1162 1.389 . S
C1162 C1161 1.389 . S
C1162 C1163 1.387 . S
C1163 H1148 0.930 . S
C1163 C1158 1.390 . S
C1163 C1162 1.387 . S
H1164 C1176 0.930 . S
H1165 C1178 0.930 . S
H1166 C1179 0.930 . S
H1167 C1183 0.959 . S
H1168 C1183 0.959 . S
H1169 C1183 0.961 . S
H1170 C1184 0.960 . S
H1171 C1184 0.961 . S
H1172 C1184 0.959 . S
H1173 C1187 0.929 . S
H1174 C1188 0.931 . S
H1175 C1190 0.930 . S
C1176 H1164 0.930 . S
C1176 C1177 1.399 . S
C1176 C1181 1.399 . S
C1177 C1176 1.399 . S
C1177 C1178 1.376 . S
C1178 H1165 0.930 . S
C1178 C1177 1.376 . S
C1178 C1179 1.388 . S
C1179 H1166 0.930 . S
C1179 C1178 1.388 . S
C1179 C1180 1.390 . S
C1180 C1179 1.390 . S
C1180 C1181 1.394 . S
C1180 C1186 1.465 . S
C1181 C1176 1.399 . S
C1181 C1180 1.394 . S
C1181 C1182 1.516 . S
C1182 C1181 1.516 . S
C1182 C1183 1.502 . S
C1182 C1184 1.561 . S
C1182 C1185 1.526 . S
C1183 H1167 0.959 . S
C1183 H1168 0.959 . S
C1183 H1169 0.961 . S
C1183 C1182 1.502 . S
C1184 H1170 0.960 . S
C1184 H1171 0.961 . S
C1184 H1172 0.959 . S
C1184 C1182 1.561 . S
C1185 C1182 1.526 . S
C1185 C1186 1.396 . S
C1185 C1190 1.390 . S
C1186 C1180 1.465 . S
C1186 C1185 1.396 . S
C1186 C1187 1.399 . S
C1187 H1173 0.929 . S
C1187 C1186 1.399 . S
C1187 C1188 1.385 . S
C1188 H1174 0.931 . S
C1188 C1187 1.385 . S
C1188 C1189 1.389 . S
C1189 C1188 1.389 . S
C1189 C1190 1.387 . S
C1190 H1175 0.930 . S
C1190 C1185 1.390 . S
C1190 C1189 1.387 . S
H1191 C1203 0.930 . S
H1192 C1205 0.930 . S
H1193 C1206 0.930 . S
H1194 C1210 0.959 . S
H1195 C1210 0.959 . S
H1196 C1210 0.961 . S
H1197 C1211 0.960 . S
H1198 C1211 0.961 . S
H1199 C1211 0.959 . S
H1200 C1214 0.929 . S
H1201 C1215 0.931 . S
H1202 C1217 0.930 . S
C1203 H1191 0.930 . S
C1203 C1204 1.399 . S
C1203 C1208 1.399 . S
C1204 C1203 1.399 . S
C1204 C1205 1.376 . S
C1205 H1192 0.930 . S
C1205 C1204 1.376 . S
C1205 C1206 1.388 . S
C1206 H1193 0.930 . S
C1206 C1205 1.388 . S
C1206 C1207 1.390 . S
C1207 C1206 1.390 . S
C1207 C1208 1.394 . S
C1207 C1213 1.465 . S
C1208 C1203 1.399 . S
C1208 C1207 1.394 . S
C1208 C1209 1.516 . S
C1209 C1208 1.516 . S
C1209 C1210 1.502 . S
C1209 C1211 1.561 . S
C1209 C1212 1.526 . S
C1210 H1194 0.959 . S
C1210 H1195 0.959 . S
C1210 H1196 0.961 . S
C1210 C1209 1.502 . S
C1211 H1197 0.960 . S
C1211 H1198 0.961 . S
C1211 H1199 0.959 . S
C1211 C1209 1.561 . S
C1212 C1209 1.526 . S
C1212 C1213 1.396 . S
C1212 C1217 1.390 . S
C1213 C1207 1.465 . S
C1213 C1212 1.396 . S
C1213 C1214 1.399 . S
C1214 H1200 0.929 . S
C1214 C1213 1.399 . S
C1214 C1215 1.385 . S
C1215 H1201 0.931 . S
C1215 C1214 1.385 . S
C1215 C1216 1.389 . S
C1216 C1215 1.389 . S
C1216 C1217 1.387 . S
C1217 H1202 0.930 . S
C1217 C1212 1.390 . S
C1217 C1216 1.387 . S
H1218 C1230 0.930 . S
H1219 C1232 0.930 . S
H1220 C1233 0.930 . S
H1221 C1237 0.959 . S
H1222 C1237 0.959 . S
H1223 C1237 0.961 . S
H1224 C1238 0.902 1_556 S
H1225 C1238 1.000 . S
H1226 C1238 1.003 . S
H1227 C1241 0.929 . S
H1228 C1242 0.931 . S
H1229 C1244 0.930 . S
C1230 H1218 0.930 . S
C1230 C1231 1.399 . S
C1230 C1235 1.399 . S
C1231 C1230 1.399 . S
C1231 C1232 1.376 . S
C1232 H1219 0.930 . S
C1232 C1231 1.376 . S
C1232 C1233 1.388 . S
C1233 H1220 0.930 . S
C1233 C1232 1.388 . S
C1233 C1234 1.390 . S
C1234 C1233 1.390 . S
C1234 C1235 1.394 . S
C1234 C1240 1.465 1_556 S
C1235 C1230 1.399 . S
C1235 C1234 1.394 . S
C1235 C1236 1.516 . S
C1236 C1235 1.516 . S
C1236 C1237 1.502 . S
C1236 C1238 1.543 1_556 S
C1236 C1239 1.526 1_556 S
C1237 H1221 0.959 . S
C1237 H1222 0.959 . S
C1237 H1223 0.961 . S
C1237 C1236 1.502 . S
C1238 H1224 0.902 1_554 S
C1238 H1225 1.000 . S
C1238 H1226 1.003 . S
C1238 C1236 1.543 1_554 S
C1239 C1236 1.526 1_554 S
C1239 C1240 1.396 . S
C1239 C1244 1.390 . S
C1240 C1234 1.465 1_554 S
C1240 C1239 1.396 . S
C1240 C1241 1.399 . S
C1241 H1227 0.929 . S
C1241 C1240 1.399 . S
C1241 C1242 1.385 . S
C1242 H1228 0.931 . S
C1242 C1241 1.385 . S
C1242 C1243 1.389 . S
C1243 C1242 1.389 . S
C1243 C1244 1.387 . S
C1244 H1229 0.930 . S
C1244 C1239 1.390 . S
C1244 C1243 1.387 . S
H1245 C1257 0.930 . S
H1246 C1259 0.930 . S
H1247 C1260 0.930 . S
H1248 C1264 0.959 . S
H1249 C1264 0.959 . S
H1250 C1264 0.961 . S
H1251 C1265 0.960 . S
H1252 C1265 0.961 . S
H1253 C1265 0.959 . S
H1254 C1268 0.929 . S
H1255 C1269 0.931 . S
H1256 C1271 0.930 . S
C1257 H1245 0.930 . S
C1257 C1258 1.399 . S
C1257 C1262 1.399 . S
C1258 C1257 1.399 . S
C1258 C1259 1.376 . S
C1259 H1246 0.930 . S
C1259 C1258 1.376 . S
C1259 C1260 1.388 . S
C1260 H1247 0.930 . S
C1260 C1259 1.388 . S
C1260 C1261 1.390 . S
C1261 C1260 1.390 . S
C1261 C1262 1.394 . S
C1261 C1267 1.465 . S
C1262 C1257 1.399 . S
C1262 C1261 1.394 . S
C1262 C1263 1.516 1_455 S
C1263 C1262 1.516 1_655 S
C1263 C1264 1.502 . S
C1263 C1265 1.561 . S
C1263 C1266 1.526 . S
C1264 H1248 0.959 . S
C1264 H1249 0.959 . S
C1264 H1250 0.961 . S
C1264 C1263 1.502 . S
C1265 H1251 0.960 . S
C1265 H1252 0.961 . S
C1265 H1253 0.959 . S
C1265 C1263 1.561 . S
C1266 C1263 1.526 . S
C1266 C1267 1.396 1_655 S
C1266 C1271 1.390 . S
C1267 C1261 1.465 . S
C1267 C1266 1.396 1_455 S
C1267 C1268 1.399 . S
C1268 H1254 0.929 . S
C1268 C1267 1.399 . S
C1268 C1269 1.385 1_455 S
C1269 H1255 0.931 . S
C1269 C1268 1.385 1_655 S
C1269 C1270 1.389 . S
C1270 C1269 1.389 . S
C1270 C1271 1.387 . S
C1271 H1256 0.930 . S
C1271 C1266 1.390 . S
C1271 C1270 1.387 . S
H1272 C1284 0.930 1_545 S
H1273 C1286 0.930 . S
H1274 C1287 0.930 1_556 S
H1275 C1291 0.959 . S
H1276 C1291 0.959 . S
H1277 C1291 0.961 . S
H1278 C1292 0.960 . S
H1279 C1292 0.961 . S
H1280 C1292 0.959 . S
H1281 C1295 0.929 . S
H1282 C1296 0.931 . S
H1283 C1298 0.930 . S
C1284 H1272 0.930 1_565 S
C1284 C1285 1.399 . S
C1284 C1289 1.399 . S
C1285 C1284 1.399 . S
C1285 C1286 1.376 . S
C1286 H1273 0.930 . S
C1286 C1285 1.376 . S
C1286 C1287 1.388 . S
C1287 H1274 0.930 1_554 S
C1287 C1286 1.388 . S
C1287 C1288 1.390 . S
C1288 C1287 1.390 . S
C1288 C1289 1.394 . S
C1288 C1294 1.465 1_554 S
C1289 C1284 1.399 . S
C1289 C1288 1.394 . S
C1289 C1290 1.516 1_565 S
C1290 C1289 1.516 1_545 S
C1290 C1291 1.502 . S
C1290 C1292 1.561 . S
C1290 C1293 1.526 1_554 S
C1291 H1275 0.959 . S
C1291 H1276 0.959 . S
C1291 H1277 0.961 . S
C1291 C1290 1.502 . S
C1292 H1278 0.960 . S
C1292 H1279 0.961 . S
C1292 H1280 0.959 . S
C1292 C1290 1.561 . S
C1293 C1290 1.526 1_556 S
C1293 C1294 1.396 1_545 S
C1293 C1298 1.390 . S
C1294 C1288 1.465 1_556 S
C1294 C1293 1.396 1_565 S
C1294 C1295 1.399 . S
C1295 H1281 0.929 . S
C1295 C1294 1.399 . S
C1295 C1296 1.385 1_565 S
C1296 H1282 0.931 . S
C1296 C1295 1.385 1_545 S
C1296 C1297 1.389 . S
C1297 C1296 1.389 . S
C1297 C1298 1.387 . S
C1298 H1283 0.930 . S
C1298 C1293 1.390 . S
C1298 C1297 1.387 . S
H1299 C1311 0.930 . S
H1300 C1313 0.930 . S
H1301 C1314 0.930 . S
H1302 C1318 0.959 . S
H1303 C1318 0.959 . S
H1304 C1318 0.961 . S
H1305 C1319 0.960 . S
H1306 C1319 0.961 . S
H1307 C1319 0.959 . S
H1308 C1322 0.929 . S
H1309 C1323 0.931 . S
H1310 C1325 0.930 . S
C1311 H1299 0.930 . S
C1311 C1312 1.399 . S
C1311 C1316 1.399 . S
C1312 C1311 1.399 . S
C1312 C1313 1.376 . S
C1313 H1300 0.930 . S
C1313 C1312 1.376 . S
C1313 C1314 1.388 . S
C1314 H1301 0.930 . S
C1314 C1313 1.388 . S
C1314 C1315 1.390 . S
C1315 C1314 1.390 . S
C1315 C1316 1.394 . S
C1315 C1321 1.465 . S
C1316 C1311 1.399 . S
C1316 C1315 1.394 . S
C1316 C1317 1.516 . S
C1317 C1316 1.516 . S
C1317 C1318 1.502 . S
C1317 C1319 1.561 . S
C1317 C1320 1.526 . S
C1318 H1302 0.959 . S
C1318 H1303 0.959 . S
C1318 H1304 0.961 . S
C1318 C1317 1.502 . S
C1319 H1305 0.960 . S
C1319 H1306 0.961 . S
C1319 H1307 0.959 . S
C1319 C1317 1.561 . S
C1320 C1317 1.526 . S
C1320 C1321 1.396 . S
C1320 C1325 1.390 . S
C1321 C1315 1.465 . S
C1321 C1320 1.396 . S
C1321 C1322 1.399 . S
C1322 H1308 0.929 . S
C1322 C1321 1.399 . S
C1322 C1323 1.385 . S
C1323 H1309 0.931 . S
C1323 C1322 1.385 . S
C1323 C1324 1.389 . S
C1324 C1323 1.389 . S
C1324 C1325 1.387 . S
C1325 H1310 0.930 . S
C1325 C1320 1.390 . S
C1325 C1324 1.387 . S
H1326 C1338 0.930 1_455 S
H1327 C1340 0.930 . S
H1328 C1341 0.930 1_554 S
H1329 C1345 0.959 . S
H1330 C1345 0.959 . S
H1331 C1345 0.961 . S
H1332 C1346 0.960 . S
H1333 C1346 0.961 . S
H1334 C1346 0.959 . S
H1335 C1349 0.929 . S
H1336 C1350 0.931 . S
H1337 C1352 0.930 . S
C1338 H1326 0.930 1_655 S
C1338 C1339 1.399 . S
C1338 C1343 1.399 . S
C1339 C1338 1.399 . S
C1339 C1340 1.376 . S
C1340 H1327 0.930 . S
C1340 C1339 1.376 . S
C1340 C1341 1.388 . S
C1341 H1328 0.930 1_556 S
C1341 C1340 1.388 . S
C1341 C1342 1.390 . S
C1342 C1341 1.390 . S
C1342 C1343 1.394 . S
C1342 C1348 1.465 1_556 S
C1343 C1338 1.399 . S
C1343 C1342 1.394 . S
C1343 C1344 1.516 1_655 S
C1344 C1343 1.516 1_455 S
C1344 C1345 1.502 . S
C1344 C1346 1.561 . S
C1344 C1347 1.526 1_556 S
C1345 H1329 0.959 . S
C1345 H1330 0.959 . S
C1345 H1331 0.961 . S
C1345 C1344 1.502 . S
C1346 H1332 0.960 . S
C1346 H1333 0.961 . S
C1346 H1334 0.959 . S
C1346 C1344 1.561 . S
C1347 C1344 1.526 1_554 S
C1347 C1348 1.396 1_455 S
C1347 C1352 1.390 . S
C1348 C1342 1.465 1_554 S
C1348 C1347 1.396 1_655 S
C1348 C1349 1.399 . S
C1349 H1335 0.929 . S
C1349 C1348 1.399 . S
C1349 C1350 1.385 1_655 S
C1350 H1336 0.931 . S
C1350 C1349 1.385 1_455 S
C1350 C1351 1.389 . S
C1351 C1350 1.389 . S
C1351 C1352 1.387 . S
C1352 H1337 0.930 . S
C1352 C1347 1.390 . S
C1352 C1351 1.387 . S
H1353 C1365 0.930 . S
H1354 C1367 0.930 . S
H1355 C1368 0.930 . S
H1356 C1372 0.959 . S
H1357 C1372 0.959 . S
H1358 C1372 0.961 . S
H1359 C1373 0.960 . S
H1360 C1373 0.961 . S
H1361 C1373 0.959 . S
H1362 C1376 0.929 . S
H1363 C1377 0.931 . S
H1364 C1379 0.930 . S
C1365 H1353 0.930 . S
C1365 C1366 1.399 . S
C1365 C1370 1.399 . S
C1366 C1365 1.399 . S
C1366 C1367 1.376 . S
C1367 H1354 0.930 . S
C1367 C1366 1.376 . S
C1367 C1368 1.388 . S
C1368 H1355 0.930 . S
C1368 C1367 1.388 . S
C1368 C1369 1.390 . S
C1369 C1368 1.390 . S
C1369 C1370 1.394 . S
C1369 C1375 1.465 . S
C1370 C1365 1.399 . S
C1370 C1369 1.394 . S
C1370 C1371 1.516 1_565 S
C1371 C1370 1.516 1_545 S
C1371 C1372 1.502 . S
C1371 C1373 1.561 . S
C1371 C1374 1.526 . S
C1372 H1356 0.959 . S
C1372 H1357 0.959 . S
C1372 H1358 0.961 . S
C1372 C1371 1.502 . S
C1373 H1359 0.960 . S
C1373 H1360 0.961 . S
C1373 H1361 0.959 . S
C1373 C1371 1.561 . S
C1374 C1371 1.526 . S
C1374 C1375 1.396 1_545 S
C1374 C1379 1.390 . S
C1375 C1369 1.465 . S
C1375 C1374 1.396 1_565 S
C1375 C1376 1.399 . S
C1376 H1362 0.929 . S
C1376 C1375 1.399 . S
C1376 C1377 1.385 1_565 S
C1377 H1363 0.931 . S
C1377 C1376 1.385 1_545 S
C1377 C1378 1.389 . S
C1378 C1377 1.389 . S
C1378 C1379 1.387 . S
C1379 H1364 0.930 . S
C1379 C1374 1.390 . S
C1379 C1378 1.387 . S
C421 C144 0.926 . S
C433 C0 0.896 . S
C448 C178 0.911 . S
C460 C34 0.946 1_455 S
C475 C68 0.941 1_545 S
C487 C8 0.916 . S
C502 C102 0.872 . S
C514 C42 0.925 . S
C529 C136 0.870 . S
C541 C76 0.926 . S
C556 C110 0.924 . S
C568 C170 0.896 1_565 S
C583 C280 0.929 . S
C595 C204 0.869 . S
C610 C238 0.945 1_455 S
C622 C314 0.915 . S
C637 C348 0.927 . S
C649 C272 0.868 . S
C664 C306 0.882 . S
C676 C382 0.928 . S
C691 C340 0.874 . S
C703 C212 0.924 . S
C718 C246 0.914 . S
C730 C374 0.922 1_565 S
C745 C153 1.153 . S
C757 C29 1.151 . S
C772 C63 1.150 . S
C784 C187 1.125 . S
C799 C97 1.149 . S
C811 C17 1.123 . S
C826 C131 1.149 . S
C838 C51 1.123 . S
C853 C85 1.160 . S
C865 C165 1.144 . S
C880 C119 1.156 . S
C892 C199 1.151 . S
C907 C289 1.157 . S
C919 C233 1.150 . S
C934 C267 1.139 . S
C946 C323 1.140 . S
C961 C301 1.140 . S
C973 C357 1.147 . S
C988 C391 1.110 . S
C1000 C335 1.139 . S
C1015 C369 1.139 . S
C1027 C221 1.140 . S
C1042 C255 1.121 . S
C1054 C403 1.149 . S
C1069 C353 1.565 . S
C1081 C13 1.551 . S
C1096 C47 1.579 . S
C1108 C387 1.550 . S
C1123 C81 1.577 . S
C1135 C217 1.563 . S
C1150 C115 1.569 . S
C1162 C251 1.549 . S
C1177 C149 1.580 . S
C1189 C285 1.552 . S
C1204 C319 1.580 . S
C1216 C183 1.551 . S
C1231 C310 1.776 . S
C1243 C4 1.748 . S
C1258 C344 1.780 . S
C1270 C38 1.743 . S
C1285 C72 1.780 . S
C1297 C378 1.741 . S
C1312 C106 1.743 . S
C1324 C208 1.775 . S
C1339 C242 1.780 . S
C1351 C140 1.741 . S
C1366 C276 1.774 . S
C1378 C174 1.745 . S
