# Generated by pormake.
# Topology dia-f, (3)-cn, num edge types: 1
# Building blocks:
#     Node 0, Type 0, BuildingBlock: OLANEW_clean_sbu_2, # of connection points: 3
#     Node 1, Type 0, BuildingBlock: OLANEW_clean_sbu_2, # of connection points: 3
#     Node 2, Type 0, BuildingBlock: OLANEW_clean_sbu_2, # of connection points: 3
#     Node 3, Type 0, BuildingBlock: OLANEW_clean_sbu_2, # of connection points: 3
#     Node 4, Type 0, BuildingBlock: OLANEW_clean_sbu_2, # of connection points: 3
#     Node 5, Type 0, BuildingBlock: OLANEW_clean_sbu_2, # of connection points: 3
#     Node 6, Type 0, BuildingBlock: OLANEW_clean_sbu_2, # of connection points: 3
#     Node 7, Type 0, BuildingBlock: OLANEW_clean_sbu_2, # of connection points: 3
#     Node 8, Type 0, BuildingBlock: OLANEW_clean_sbu_2, # of connection points: 3
#     Node 9, Type 0, BuildingBlock: OLANEW_clean_sbu_2, # of connection points: 3
#     Node 10, Type 0, BuildingBlock: OLANEW_clean_sbu_2, # of connection points: 3
#     Node 11, Type 0, BuildingBlock: OLANEW_clean_sbu_2, # of connection points: 3
#     Node 12, Type 0, BuildingBlock: OLANEW_clean_sbu_2, # of connection points: 3
#     Node 13, Type 0, BuildingBlock: OLANEW_clean_sbu_2, # of connection points: 3
#     Node 14, Type 0, BuildingBlock: OLANEW_clean_sbu_2, # of connection points: 3
#     Node 15, Type 0, BuildingBlock: OLANEW_clean_sbu_2, # of connection points: 3
#     Edge 16, Type (0, 0), BuildingBlock: TEMPAE_clean_linker_10, # of connection points: 2
#     Edge 17, Type (0, 0), BuildingBlock: TEMPAE_clean_linker_10, # of connection points: 2
#     Edge 18, Type (0, 0), BuildingBlock: TEMPAE_clean_linker_10, # of connection points: 2
#     Edge 19, Type (0, 0), BuildingBlock: TEMPAE_clean_linker_10, # of connection points: 2
#     Edge 20, Type (0, 0), BuildingBlock: TEMPAE_clean_linker_10, # of connection points: 2
#     Edge 21, Type (0, 0), BuildingBlock: TEMPAE_clean_linker_10, # of connection points: 2
#     Edge 22, Type (0, 0), BuildingBlock: TEMPAE_clean_linker_10, # of connection points: 2
#     Edge 23, Type (0, 0), BuildingBlock: TEMPAE_clean_linker_10, # of connection points: 2
#     Edge 24, Type (0, 0), BuildingBlock: TEMPAE_clean_linker_10, # of connection points: 2
#     Edge 25, Type (0, 0), BuildingBlock: TEMPAE_clean_linker_10, # of connection points: 2
#     Edge 26, Type (0, 0), BuildingBlock: TEMPAE_clean_linker_10, # of connection points: 2
#     Edge 27, Type (0, 0), BuildingBlock: TEMPAE_clean_linker_10, # of connection points: 2
#     Edge 28, Type (0, 0), BuildingBlock: TEMPAE_clean_linker_10, # of connection points: 2
#     Edge 29, Type (0, 0), BuildingBlock: TEMPAE_clean_linker_10, # of connection points: 2
#     Edge 30, Type (0, 0), BuildingBlock: TEMPAE_clean_linker_10, # of connection points: 2
#     Edge 31, Type (0, 0), BuildingBlock: TEMPAE_clean_linker_10, # of connection points: 2
#     Edge 32, Type (0, 0), BuildingBlock: TEMPAE_clean_linker_10, # of connection points: 2
#     Edge 33, Type (0, 0), BuildingBlock: TEMPAE_clean_linker_10, # of connection points: 2
#     Edge 34, Type (0, 0), BuildingBlock: TEMPAE_clean_linker_10, # of connection points: 2
#     Edge 35, Type (0, 0), BuildingBlock: TEMPAE_clean_linker_10, # of connection points: 2
#     Edge 36, Type (0, 0), BuildingBlock: TEMPAE_clean_linker_10, # of connection points: 2
#     Edge 37, Type (0, 0), BuildingBlock: TEMPAE_clean_linker_10, # of connection points: 2
#     Edge 38, Type (0, 0), BuildingBlock: TEMPAE_clean_linker_10, # of connection points: 2
#     Edge 39, Type (0, 0), BuildingBlock: TEMPAE_clean_linker_10, # of connection points: 2
# Relax obj value: 0.008
# Max RMSD: 0.057
# Mean RMSD: 0.042
data_MOF--net-dia-f--node1-OLANEW_clean_sbu_2--edge1-TEMPAE_clean_linker_10
_symmetry_space_group_name_H-M    P1
_symmetry_Int_Tables_number       1
_symmetry_cell_setting            triclinic
loop_
_symmetry_equiv_pos_as_xyz
'x, y, z'
_cell_length_a     75.024412
_cell_length_b     74.848532
_cell_length_c     19.542269
_cell_angle_alpha  90.033308
_cell_angle_beta   89.990278
_cell_angle_gamma 97.276837
loop_
_atom_site_label
_atom_site_type_symbol
_atom_site_fract_x
_atom_site_fract_y
_atom_site_fract_z
_atom_type_partial_charge
O0 O 0.07382 0.61016 0.08482 0.0
Cd1 Cd 0.04806 0.59077 0.13198 0.0
O2 O 0.09229 0.6041 0.1665 0.0
Cd3 Cd 0.06931 0.59385 0.22957 0.0
O4 O 0.04814 0.60662 0.27968 0.0
C5 C 0.04481 0.62103 0.25061 0.0
O6 O 0.05357 0.62619 0.19436 0.0
C7 C 0.08961 0.61167 0.10982 0.0
C8 C 0.04455 0.55662 0.0732 0.0
O9 O 0.03624 0.56911 0.04848 0.0
O10 O 0.05449 0.56031 0.12596 0.0
O11 O 0.6777 0.71364 0.60165 0.0
Cd12 Cd 0.69353 0.73597 0.67873 0.0
O13 O 0.66965 0.73636 0.54471 0.0
Cd14 Cd 0.65607 0.75213 0.47157 0.0
O15 O 0.64614 0.77453 0.41832 0.0
C16 C 0.63791 0.78528 0.45311 0.0
O17 O 0.63531 0.78217 0.51876 0.0
C18 C 0.66915 0.7194 0.55189 0.0
C19 C 0.73083 0.73833 0.66898 0.0
O20 O 0.72204 0.72762 0.71179 0.0
O21 O 0.72192 0.74779 0.63018 0.0
O22 O 0.60474 0.40451 0.71422 0.0
Cd23 Cd 0.58913 0.4293 0.75364 0.0
O24 O 0.57893 0.38748 0.72243 0.0
Cd25 Cd 0.55997 0.3627 0.7254 0.0
O26 O 0.537 0.34317 0.75411 0.0
C27 C 0.53898 0.33086 0.79717 0.0
O28 O 0.55513 0.32959 0.82119 0.0
C29 C 0.59557 0.38914 0.7076 0.0
C30 C 0.58952 0.45593 0.65401 0.0
O31 O 0.60159 0.4569 0.70074 0.0
O32 O 0.57722 0.44239 0.65468 0.0
O33 O 0.91594 0.2798 0.49672 0.0
Cd34 Cd 0.89772 0.25142 0.46745 0.0
O35 O 0.93256 0.27892 0.40449 0.0
Cd36 Cd 0.92458 0.25011 0.39131 0.0
O37 O 0.93567 0.22591 0.42399 0.0
C38 C 0.93793 0.22412 0.48799 0.0
O39 O 0.93203 0.23584 0.52973 0.0
C40 C 0.92807 0.28733 0.45702 0.0
C41 C 0.86128 0.25405 0.48488 0.0
O42 O 0.87022 0.247 0.53133 0.0
O43 O 0.86953 0.25973 0.43015 0.0
O44 O 0.05401 0.38344 0.82022 0.0
Cd45 Cd 0.03004 0.4007 0.78494 0.0
O46 O 0.07296 0.39392 0.73953 0.0
Cd47 Cd 0.05165 0.40594 0.68773 0.0
O48 O 0.02652 0.39488 0.63882 0.0
C49 C 0.02398 0.37785 0.64489 0.0
O50 O 0.03609 0.36991 0.6777 0.0
C51 C 0.06945 0.38424 0.79253 0.0
C52 C 0.03325 0.43422 0.84881 0.0
O53 O 0.02363 0.42057 0.87512 0.0
O54 O 0.0413 0.43199 0.79218 0.0
O55 O 0.92169 0.77283 0.62005 0.0
Cd56 Cd 0.90314 0.75525 0.70511 0.0
O57 O 0.92715 0.7471 0.57717 0.0
Cd58 Cd 0.94098 0.72893 0.51468 0.0
O59 O 0.95497 0.7089 0.46348 0.0
C60 C 0.97197 0.71015 0.46786 0.0
O61 O 0.98061 0.7237 0.502 0.0
C62 C 0.92973 0.76423 0.57606 0.0
C63 C 0.86625 0.75335 0.68293 0.0
O64 O 0.87463 0.7659 0.7197 0.0
O65 O 0.8754 0.74187 0.65563 0.0
O66 O 0.61341 0.60786 0.25037 0.0
Cd67 Cd 0.59814 0.58057 0.1975 0.0
O68 O 0.58853 0.61975 0.23698 0.0
Cd69 Cd 0.56971 0.6398 0.23558 0.0
O70 O 0.54746 0.65466 0.20881 0.0
C71 C 0.53359 0.64603 0.1813 0.0
O72 O 0.53309 0.62859 0.1718 0.0
C73 C 0.60466 0.62116 0.25856 0.0
C74 C 0.59479 0.55237 0.2915 0.0
O75 O 0.60808 0.55466 0.24981 0.0
O76 O 0.58298 0.56331 0.28808 0.0
O77 O 0.67747 0.23514 0.58629 0.0
Cd78 Cd 0.69282 0.26547 0.5657 0.0
O79 O 0.67069 0.23075 0.47754 0.0
Cd80 Cd 0.67533 0.25969 0.45957 0.0
O81 O 0.66551 0.28495 0.48776 0.0
C82 C 0.65633 0.28423 0.54263 0.0
O83 O 0.65401 0.26902 0.57695 0.0
C84 C 0.67119 0.2247 0.53824 0.0
C85 C 0.72948 0.26428 0.5472 0.0
O86 O 0.7233 0.26847 0.60538 0.0
O87 O 0.71837 0.26087 0.49769 0.0
O88 O 0.42356 0.27135 0.07809 0.0
Cd89 Cd 0.40325 0.2539 0.15811 0.0
O90 O 0.43167 0.24548 0.04749 0.0
Cd91 Cd 0.44862 0.22721 0.0002 0.0
O92 O 0.46499 0.20724 0.96224 0.0
C93 C 0.46882 0.19493 0.0024 0.0
O94 O 0.46278 0.19463 0.06557 0.0
C95 C 0.43356 0.26256 0.04212 0.0
C96 C 0.36666 0.25354 0.1326 0.0
O97 O 0.3752 0.2656 0.17105 0.0
O98 O 0.37555 0.24192 0.10477 0.0
O99 O 0.17182 0.73489 0.09292 0.0
Cd100 Cd 0.18734 0.76551 0.10266 0.0
O101 O 0.17205 0.73335 0.98054 0.0
Cd102 Cd 0.17687 0.76268 0.97853 0.0
O103 O 0.16592 0.7874 0.00644 0.0
C104 C 0.15501 0.78602 0.05654 0.0
O105 O 0.15147 0.77039 0.0875 0.0
C106 C 0.16891 0.72576 0.03822 0.0
C107 C 0.22424 0.76506 0.09026 0.0
O108 O 0.21616 0.76142 0.14728 0.0
O109 O 0.21491 0.76918 0.03901 0.0
O110 O 0.17804 0.21179 0.06635 0.0
Cd111 Cd 0.19405 0.23417 0.14283 0.0
O112 O 0.1681 0.23459 0.01611 0.0
Cd113 Cd 0.15188 0.24963 0.94992 0.0
O114 O 0.13832 0.27148 0.9096 0.0
C115 C 0.14343 0.28729 0.93159 0.0
O116 O 0.15667 0.28965 0.97601 0.0
C117 C 0.16839 0.21767 0.02018 0.0
C118 C 0.23131 0.2376 0.12894 0.0
O119 O 0.2231 0.22654 0.17198 0.0
O120 O 0.22184 0.2469 0.09175 0.0
O121 O 0.41105 0.78553 0.03583 0.0
Cd122 Cd 0.39395 0.75594 0.05392 0.0
O123 O 0.42887 0.77628 0.95774 0.0
Cd124 Cd 0.4193 0.74784 0.9733 0.0
O125 O 0.42998 0.72384 0.01037 0.0
C126 C 0.44368 0.71974 0.97863 0.0
O127 O 0.44922 0.72907 0.924 0.0
C128 C 0.42381 0.78897 0.99317 0.0
C129 C 0.35724 0.75827 0.05753 0.0
O130 O 0.36713 0.76207 0.11028 0.0
O131 O 0.36466 0.75324 0.00294 0.0
O132 O 0.57293 0.11323 0.63799 0.0
Cd133 Cd 0.54818 0.08986 0.66589 0.0
O134 O 0.59353 0.10094 0.69497 0.0
Cd135 Cd 0.57175 0.0858 0.75225 0.0
O136 O 0.55026 0.09619 0.80927 0.0
C137 C 0.55493 0.11186 0.83336 0.0
O138 O 0.57168 0.11917 0.82538 0.0
C139 C 0.58934 0.11292 0.65395 0.0
C140 C 0.55103 0.05926 0.5871 0.0
O141 O 0.54228 0.07176 0.56538 0.0
O142 O 0.55818 0.0611 0.64664 0.0
O143 O 0.09538 0.90412 0.19945 0.0
Cd144 Cd 0.07813 0.92839 0.23144 0.0
O145 O 0.07134 0.88523 0.22139 0.0
Cd146 Cd 0.05568 0.85889 0.23898 0.0
O147 O 0.03648 0.83747 0.28254 0.0
C148 C 0.01977 0.83829 0.27505 0.0
O149 O 0.01467 0.85153 0.23879 0.0
C150 C 0.08762 0.88803 0.20175 0.0
C151 C 0.08029 0.95504 0.13121 0.0
O152 O 0.09124 0.95623 0.18184 0.0
O153 O 0.06829 0.94126 0.1282 0.0
O154 O 0.59334 0.90553 0.23708 0.0
Cd155 Cd 0.57895 0.92954 0.18379 0.0
O156 O 0.57328 0.88515 0.19068 0.0
Cd157 Cd 0.55646 0.90277 0.13925 0.0
O158 O 0.52948 0.89517 0.09877 0.0
C159 C 0.52149 0.88194 0.13205 0.0
O160 O 0.52965 0.87608 0.18552 0.0
C161 C 0.58715 0.88911 0.22762 0.0
C162 C 0.57277 0.95648 0.27624 0.0
O163 O 0.5611 0.94262 0.26735 0.0
O164 O 0.58738 0.95753 0.24163 0.0
O165 O 0.10926 0.10695 0.72381 0.0
Cd166 Cd 0.09364 0.07957 0.67276 0.0
O167 O 0.08514 0.11989 0.70617 0.0
Cd168 Cd 0.06763 0.14112 0.70124 0.0
O169 O 0.04633 0.15717 0.67353 0.0
C170 C 0.03049 0.14923 0.66447 0.0
O171 O 0.02739 0.13173 0.67391 0.0
C172 C 0.10108 0.12074 0.72939 0.0
C173 C 0.08986 0.05173 0.76843 0.0
O174 O 0.10327 0.05378 0.72727 0.0
O175 O 0.07816 0.06274 0.76378 0.0
C176 C 0.16164 0.6948 0.98805 0.0
C177 C 0.16038 0.70688 0.04223 0.0
C178 C 0.15245 0.67723 0.99048 0.0
C179 C 0.14131 0.67193 0.04731 0.0
C180 C 0.14032 0.68399 0.10264 0.0
C181 C 0.15006 0.7012 0.09979 0.0
C182 C 0.1543 0.66452 0.93168 0.0
C183 C 0.12834 0.67903 0.16373 0.0
C184 C 0.09937 0.63843 0.0371 0.0
C185 C 0.10398 0.62466 0.07971 0.0
C186 C 0.11189 0.6534 0.0216 0.0
C187 C 0.12957 0.65438 0.04792 0.0
C188 C 0.13481 0.63961 0.08467 0.0
C189 C 0.12187 0.62499 0.101 0.0
C190 C 0.10564 0.66894 0.98299 0.0
C191 C 0.15371 0.63986 0.11139 0.0
H192 H 0.16975 0.69911 0.9437 0.0
H193 H 0.14896 0.71051 0.14166 0.0
H194 H 0.15677 0.65111 0.95105 0.0
H195 H 0.14163 0.66256 0.9019 0.0
H196 H 0.16542 0.6697 0.89659 0.0
H197 H 0.12918 0.68996 0.20254 0.0
H198 H 0.11416 0.67602 0.14678 0.0
H199 H 0.13209 0.66672 0.18856 0.0
H200 H 0.08558 0.63826 0.02025 0.0
H201 H 0.12559 0.61426 0.13315 0.0
H202 H 0.11537 0.6738 0.94237 0.0
H203 H 0.10476 0.68032 0.01878 0.0
H204 H 0.09223 0.66524 0.95917 0.0
H205 H 0.16368 0.64547 0.07258 0.0
H206 H 0.1566 0.62617 0.12597 0.0
H207 H 0.15554 0.64861 0.15733 0.0
C208 C 0.62037 0.81154 0.45693 0.0
C209 C 0.63147 0.80114 0.42054 0.0
C210 C 0.6139 0.82644 0.42655 0.0
C211 C 0.61876 0.83115 0.35831 0.0
C212 C 0.63025 0.82093 0.32173 0.0
C213 C 0.63639 0.80599 0.35316 0.0
C214 C 0.60153 0.8369 0.46699 0.0
C215 C 0.63582 0.82561 0.24901 0.0
C216 C 0.58717 0.8566 0.25633 0.0
C217 C 0.59562 0.87441 0.26034 0.0
C218 C 0.59459 0.84245 0.28784 0.0
C219 C 0.61099 0.84612 0.32396 0.0
C220 C 0.61972 0.86401 0.32781 0.0
C221 C 0.61189 0.87799 0.29616 0.0
C222 C 0.58479 0.82357 0.283 0.0
C223 C 0.63729 0.86839 0.36553 0.0
H224 H 0.6165 0.8079 0.50902 0.0
H225 H 0.64506 0.7981 0.32484 0.0
H226 H 0.60699 0.85137 0.4685 0.0
H227 H 0.58821 0.83588 0.44159 0.0
H228 H 0.59959 0.83192 0.52035 0.0
H229 H 0.64562 0.81695 0.229 0.0
H230 H 0.62383 0.82407 0.21528 0.0
H231 H 0.6419 0.8399 0.24589 0.0
H232 H 0.57455 0.85367 0.22901 0.0
H233 H 0.61852 0.89168 0.2994 0.0
H234 H 0.58143 0.81825 0.33503 0.0
H235 H 0.59356 0.8145 0.25874 0.0
H236 H 0.57217 0.82299 0.25286 0.0
H237 H 0.63549 0.86457 0.42017 0.0
H238 H 0.64256 0.88292 0.36258 0.0
H239 H 0.64749 0.86045 0.34398 0.0
C240 C 0.45605 0.28936 0.01946 0.0
C241 C 0.44799 0.27223 0.99952 0.0
C242 C 0.47045 0.29842 0.98236 0.0
C243 C 0.47687 0.29021 0.92354 0.0
C244 C 0.46842 0.27315 0.9019 0.0
C245 C 0.45401 0.2644 0.94003 0.0
C246 C 0.47906 0.31662 0.00706 0.0
C247 C 0.47475 0.26406 0.83901 0.0
C248 C 0.5057 0.32158 0.80318 0.0
C249 C 0.52311 0.31925 0.8247 0.0
C250 C 0.4905 0.31177 0.83328 0.0
C251 C 0.49277 0.29934 0.88616 0.0
C252 C 0.5103 0.29644 0.90635 0.0
C253 C 0.52525 0.30642 0.87537 0.0
C254 C 0.47203 0.31518 0.81015 0.0
C255 C 0.51326 0.28325 0.9624 0.0
H256 H 0.45139 0.29551 0.06526 0.0
H257 H 0.44735 0.2515 0.92284 0.0
H258 H 0.49331 0.31591 0.02064 0.0
H259 H 0.47896 0.32674 0.96567 0.0
H260 H 0.47211 0.32139 0.05249 0.0
H261 H 0.46648 0.25099 0.82815 0.0
H262 H 0.47431 0.27296 0.79382 0.0
H263 H 0.48893 0.26164 0.8458 0.0
H264 H 0.5039 0.3314 0.76387 0.0
H265 H 0.53863 0.30445 0.89214 0.0
H266 H 0.46516 0.3215 0.85235 0.0
H267 H 0.46371 0.30228 0.79742 0.0
H268 H 0.47255 0.32417 0.76478 0.0
H269 H 0.50799 0.28787 0.01151 0.0
H270 H 0.5277 0.28176 0.96924 0.0
H271 H 0.5058 0.26983 0.95088 0.0
C272 C 0.95872 0.20086 0.46963 0.0
C273 C 0.94915 0.21074 0.51461 0.0
C274 C 0.97111 0.18985 0.49435 0.0
C275 C 0.97392 0.1886 0.56576 0.0
C276 C 0.9637 0.19788 0.61151 0.0
C277 C 0.95148 0.20887 0.58539 0.0
C278 C 0.98175 0.18014 0.44394 0.0
C279 C 0.96617 0.19675 0.68801 0.0
C280 C 0.99836 0.15063 0.63238 0.0
C281 C 0.01589 0.15939 0.64103 0.0
C282 C 0.98451 0.15997 0.60836 0.0
C283 C 0.9883 0.1785 0.59238 0.0
C284 C 0.00593 0.18745 0.60146 0.0
C285 C 0.0195 0.1778 0.62579 0.0
C286 C 0.96585 0.15 0.5997 0.0
C287 C 0.01052 0.20721 0.58492 0.0
H288 H 0.95701 0.20221 0.41488 0.0
H289 H 0.94407 0.21637 0.62056 0.0
H290 H 0.99617 0.18563 0.44712 0.0
H291 H 0.98067 0.16561 0.45674 0.0
H292 H 0.97714 0.18154 0.3904 0.0
H293 H 0.95622 0.20362 0.71671 0.0
H294 H 0.96494 0.18247 0.70453 0.0
H295 H 0.97986 0.20306 0.70213 0.0
H296 H 0.99542 0.13641 0.64412 0.0
H297 H 0.033 0.18469 0.63224 0.0
H298 H 0.96164 0.15051 0.54539 0.0
H299 H 0.9561 0.15659 0.63044 0.0
H300 H 0.96504 0.13566 0.61553 0.0
H301 H 0.00761 0.2096 0.53025 0.0
H302 H 0.02486 0.21219 0.59505 0.0
H303 H 0.00203 0.21528 0.61578 0.0
C304 C 0.09821 0.37072 0.78092 0.0
C305 C 0.08252 0.37253 0.81804 0.0
C306 C 0.10945 0.3579 0.79968 0.0
C307 C 0.10491 0.34668 0.85698 0.0
C308 C 0.08957 0.34902 0.89651 0.0
C309 C 0.07856 0.3619 0.87655 0.0
C310 C 0.12575 0.35583 0.75646 0.0
C311 C 0.08436 0.33741 0.9583 0.0
C312 C 0.11989 0.30014 0.86316 0.0
C313 C 0.13417 0.30269 0.9099 0.0
C314 C 0.1105 0.31446 0.84449 0.0
C315 C 0.1155 0.33173 0.8733 0.0
C316 C 0.13012 0.33448 0.91947 0.0
C317 C 0.13928 0.31993 0.93721 0.0
C318 C 0.09501 0.31101 0.79491 0.0
C319 C 0.13583 0.35271 0.95118 0.0
H320 H 0.1014 0.37887 0.73568 0.0
H321 H 0.06653 0.36326 0.90581 0.0
H322 H 0.13787 0.35614 0.78916 0.0
H323 H 0.12384 0.34257 0.73025 0.0
H324 H 0.12826 0.36656 0.7171 0.0
H325 H 0.07276 0.34177 0.98629 0.0
H326 H 0.08074 0.32321 0.94197 0.0
H327 H 0.09587 0.33774 0.99407 0.0
H328 H 0.11588 0.28689 0.84165 0.0
H329 H 0.15033 0.32203 0.97326 0.0
H330 H 0.09714 0.32038 0.75087 0.0
H331 H 0.08237 0.31358 0.82045 0.0
H332 H 0.09325 0.29697 0.77518 0.0
H333 H 0.13864 0.36306 0.91064 0.0
H334 H 0.14799 0.35282 0.98369 0.0
H335 H 0.12476 0.35671 0.9831 0.0
C336 C 0.0117 0.81215 0.35423 0.0
C337 C 0.00627 0.82554 0.3116 0.0
C338 C 0.99915 0.80106 0.39374 0.0
C339 C 0.98075 0.80344 0.39059 0.0
C340 C 0.9751 0.81646 0.34572 0.0
C341 C 0.98792 0.82734 0.30678 0.0
C342 C 0.00568 0.78725 0.44071 0.0
C343 C 0.95559 0.81936 0.34072 0.0
C344 C 0.94569 0.76714 0.46291 0.0
C345 C 0.94261 0.77413 0.52781 0.0
C346 C 0.95816 0.77644 0.4177 0.0
C347 C 0.96759 0.79322 0.4377 0.0
C348 C 0.96434 0.80045 0.50284 0.0
C349 C 0.95185 0.79084 0.54697 0.0
C350 C 0.96115 0.76838 0.34846 0.0
C351 C 0.9741 0.81831 0.5261 0.0
H352 H 0.02583 0.81059 0.35807 0.0
H353 H 0.98357 0.83759 0.27376 0.0
H354 H 0.00345 0.79095 0.49474 0.0
H355 H 0.99793 0.77382 0.43178 0.0
H356 H 0.0202 0.78618 0.43356 0.0
H357 H 0.95322 0.82906 0.2997 0.0
H358 H 0.94707 0.80641 0.33059 0.0
H359 H 0.95112 0.82459 0.39015 0.0
H360 H 0.93808 0.7546 0.44674 0.0
H361 H 0.94949 0.79633 0.59704 0.0
H362 H 0.97558 0.7669 0.34173 0.0
H363 H 0.95751 0.77752 0.30753 0.0
H364 H 0.95312 0.75498 0.34147 0.0
H365 H 0.98881 0.8178 0.52568 0.0
H366 H 0.97007 0.82202 0.5784 0.0
H367 H 0.97136 0.82911 0.49019 0.0
C368 C 0.46981 0.70219 0.97156 0.0
C369 C 0.45464 0.70638 0.00721 0.0
C370 C 0.48157 0.69123 0.00091 0.0
C371 C 0.47812 0.68428 0.06761 0.0
C372 C 0.46245 0.68783 0.10282 0.0
C373 C 0.45087 0.69884 0.07214 0.0
C374 C 0.49807 0.68764 0.96146 0.0
C375 C 0.45829 0.68059 0.17391 0.0
C376 C 0.50412 0.64623 0.12127 0.0
C377 C 0.51871 0.6556 0.15656 0.0
C378 C 0.49051 0.6553 0.09366 0.0
C379 C 0.4915 0.67419 0.10162 0.0
C380 C 0.50589 0.68365 0.13897 0.0
C381 C 0.51932 0.67425 0.16592 0.0
C382 C 0.47536 0.64475 0.05425 0.0
C383 C 0.50737 0.7038 0.14881 0.0
H384 H 0.47278 0.70787 0.92121 0.0
H385 H 0.43917 0.70198 0.10003 0.0
H386 H 0.51032 0.69386 0.98848 0.0
H387 H 0.4988 0.67295 0.95859 0.0
H388 H 0.49824 0.69312 0.90861 0.0
H389 H 0.44489 0.68337 0.19213 0.0
H390 H 0.45874 0.66584 0.17519 0.0
H391 H 0.46863 0.68684 0.2102 0.0
H392 H 0.5035 0.63181 0.11395 0.0
H393 H 0.53049 0.6816 0.19339 0.0
H394 H 0.47604 0.64896 0.99979 0.0
H395 H 0.4622 0.64762 0.07447 0.0
H396 H 0.47588 0.62999 0.05669 0.0
H397 H 0.50915 0.71063 0.09844 0.0
H398 H 0.51884 0.709 0.18225 0.0
H399 H 0.49481 0.70753 0.17166 0.0
C400 C 0.59783 0.14327 0.60264 0.0
C401 C 0.60314 0.12739 0.6294 0.0
C402 C 0.61054 0.15794 0.58547 0.0
C403 C 0.62905 0.15659 0.59396 0.0
C404 C 0.63457 0.14031 0.61802 0.0
C405 C 0.62152 0.12594 0.6362 0.0
C406 C 0.60408 0.17514 0.56083 0.0
C407 C 0.65421 0.13826 0.62619 0.0
C408 C 0.65891 0.19352 0.50136 0.0
C409 C 0.66285 0.20617 0.55392 0.0
C410 C 0.64891 0.17671 0.51452 0.0
C411 C 0.6424 0.17269 0.58145 0.0
C412 C 0.64708 0.18506 0.63528 0.0
C413 C 0.65741 0.20159 0.62096 0.0
C414 C 0.64457 0.16367 0.45615 0.0
C415 C 0.6402 0.18138 0.7072 0.0
H416 H 0.58366 0.14454 0.59746 0.0
H417 H 0.62571 0.11365 0.65643 0.0
H418 H 0.60835 0.18621 0.59739 0.0
H419 H 0.6102 0.17913 0.51058 0.0
H420 H 0.58922 0.17384 0.55553 0.0
H421 H 0.65631 0.1242 0.63875 0.0
H422 H 0.66166 0.14238 0.57852 0.0
H423 H 0.66013 0.14723 0.66771 0.0
H424 H 0.66325 0.19691 0.44955 0.0
H425 H 0.66039 0.2113 0.66184 0.0
H426 H 0.63017 0.16316 0.44244 0.0
H427 H 0.64687 0.14988 0.47151 0.0
H428 H 0.65275 0.16763 0.40992 0.0
H429 H 0.62538 0.1812 0.70796 0.0
H430 H 0.6462 0.19172 0.74418 0.0
H431 H 0.64314 0.16798 0.72471 0.0
C432 C 0.99469 0.37492 0.58066 0.0
C433 C 0.00802 0.3669 0.61524 0.0
C434 C 0.97976 0.36433 0.55166 0.0
C435 C 0.97824 0.34534 0.55728 0.0
C436 C 0.99157 0.33723 0.59272 0.0
C437 C 0.00624 0.34809 0.62127 0.0
C438 C 0.96573 0.3734 0.51453 0.0
C439 C 0.99049 0.31701 0.59983 0.0
C440 C 0.93564 0.31281 0.53942 0.0
C441 C 0.93857 0.30473 0.47626 0.0
C442 C 0.94773 0.3272 0.56426 0.0
C443 C 0.96308 0.33361 0.52501 0.0
C444 C 0.96523 0.32656 0.45874 0.0
C445 C 0.95293 0.31221 0.43512 0.0
C446 C 0.94485 0.33451 0.63487 0.0
C447 C 0.98136 0.33308 0.41509 0.0
H448 H 0.99596 0.38946 0.57598 0.0
H449 H 0.01644 0.34176 0.64797 0.0
H450 H 0.96521 0.36927 0.45998 0.0
H451 H 0.95225 0.36909 0.53666 0.0
H452 H 0.96849 0.38832 0.51715 0.0
H453 H 0.00187 0.31287 0.62977 0.0
H454 H 0.97775 0.31159 0.62547 0.0
H455 H 0.99049 0.31069 0.54845 0.0
H456 H 0.92447 0.30727 0.57129 0.0
H457 H 0.95519 0.30623 0.38585 0.0
H458 H 0.94755 0.34942 0.63533 0.0
H459 H 0.95437 0.32936 0.67117 0.0
H460 H 0.93096 0.33038 0.65364 0.0
H461 H 0.98385 0.34801 0.41482 0.0
H462 H 0.97969 0.32824 0.36144 0.0
H463 H 0.99347 0.32809 0.43685 0.0
C464 C 0.54741 0.1394 0.89321 0.0
C465 C 0.54164 0.12248 0.86436 0.0
C466 C 0.53504 0.1504 0.91793 0.0
C467 C 0.51642 0.14438 0.91357 0.0
C468 C 0.51049 0.12713 0.88617 0.0
C469 C 0.52319 0.11635 0.86198 0.0
C470 C 0.54191 0.16866 0.94718 0.0
C471 C 0.49073 0.12028 0.88067 0.0
C472 C 0.48577 0.1688 0.02497 0.0
C473 C 0.48029 0.18141 0.97892 0.0
C474 C 0.49721 0.15636 0.00406 0.0
C475 C 0.50324 0.15651 0.93542 0.0
C476 C 0.49742 0.16892 0.88831 0.0
C477 C 0.48605 0.18124 0.91066 0.0
C478 C 0.50319 0.14337 0.05579 0.0
C479 C 0.50352 0.16944 0.8146 0.0
H480 H 0.56164 0.14422 0.89556 0.0
H481 H 0.51862 0.10331 0.83966 0.0
H482 H 0.53722 0.17938 0.91518 0.0
H483 H 0.53646 0.17004 0.99943 0.0
H484 H 0.55682 0.17099 0.94975 0.0
H485 H 0.48835 0.10622 0.86136 0.0
H486 H 0.48416 0.12086 0.93134 0.0
H487 H 0.48413 0.12904 0.84549 0.0
H488 H 0.48137 0.1688 0.07778 0.0
H489 H 0.48181 0.19087 0.87464 0.0
H490 H 0.51794 0.14614 0.06309 0.0
H491 H 0.5002 0.12934 0.03682 0.0
H492 H 0.49655 0.14436 0.10624 0.0
H493 H 0.5183 0.17315 0.81214 0.0
H494 H 0.49704 0.17927 0.78366 0.0
H495 H 0.50043 0.15591 0.79103 0.0
C496 C 0.60308 0.64877 0.33026 0.0
C497 C 0.61329 0.63761 0.29337 0.0
C498 C 0.61143 0.66339 0.36856 0.0
C499 C 0.63042 0.66676 0.3707 0.0
C500 C 0.64077 0.65582 0.33208 0.0
C501 C 0.63208 0.64138 0.294 0.0
C502 C 0.59993 0.67475 0.40908 0.0
C503 C 0.66106 0.6589 0.33313 0.0
C504 C 0.65447 0.71109 0.43847 0.0
C505 C 0.65859 0.70639 0.50556 0.0
C506 C 0.64488 0.69848 0.39435 0.0
C507 C 0.63955 0.6807 0.41765 0.0
C508 C 0.64362 0.67591 0.4854 0.0
C509 C 0.65307 0.68879 0.52842 0.0
C510 C 0.6408 0.70407 0.32242 0.0
C511 C 0.63827 0.65706 0.51219 0.0
H512 H 0.58862 0.64563 0.33199 0.0
H513 H 0.64006 0.6328 0.26562 0.0
H514 H 0.60171 0.67242 0.46458 0.0
H515 H 0.60416 0.68927 0.39928 0.0
H516 H 0.58543 0.67158 0.39649 0.0
H517 H 0.6671 0.65002 0.29654 0.0
H518 H 0.66594 0.67312 0.32044 0.0
H519 H 0.66596 0.6563 0.38532 0.0
H520 H 0.65918 0.72442 0.41952 0.0
H521 H 0.65621 0.68503 0.58019 0.0
H522 H 0.62622 0.70085 0.3117 0.0
H523 H 0.64803 0.6964 0.2852 0.0
H524 H 0.6448 0.71869 0.31362 0.0
H525 H 0.62355 0.65331 0.50708 0.0
H526 H 0.64203 0.65565 0.56672 0.0
H527 H 0.64487 0.6473 0.4814 0.0
C528 C 0.08888 0.85787 0.14857 0.0
C529 C 0.09758 0.87299 0.18255 0.0
C530 C 0.09842 0.84386 0.12748 0.0
C531 C 0.11705 0.84496 0.14146 0.0
C532 C 0.12588 0.86018 0.17617 0.0
C533 C 0.11606 0.87412 0.19564 0.0
C534 C 0.08861 0.82799 0.08951 0.0
C535 C 0.14566 0.8617 0.19298 0.0
C536 C 0.13738 0.80104 0.14275 0.0
C537 C 0.14594 0.80147 0.07887 0.0
C538 C 0.12818 0.81524 0.16418 0.0
C539 C 0.12728 0.83011 0.12019 0.0
C540 C 0.13597 0.83068 0.05572 0.0
C541 C 0.14534 0.8164 0.03605 0.0
C542 C 0.11935 0.81429 0.23377 0.0
C543 C 0.1351 0.84621 0.00708 0.0
H544 H 0.07471 0.85722 0.13664 0.0
H545 H 0.12281 0.88584 0.22182 0.0
H546 H 0.09488 0.82669 0.03862 0.0
H547 H 0.08972 0.81536 0.11798 0.0
H548 H 0.07414 0.82928 0.08211 0.0
H549 H 0.15042 0.87428 0.22125 0.0
H550 H 0.14841 0.85003 0.22447 0.0
H551 H 0.15361 0.8614 0.14525 0.0
H552 H 0.13789 0.78959 0.17629 0.0
H553 H 0.15186 0.81676 0.98647 0.0
H554 H 0.10463 0.81423 0.22807 0.0
H555 H 0.12443 0.82637 0.26431 0.0
H556 H 0.12182 0.80208 0.26276 0.0
H557 H 0.12089 0.84737 0.9942 0.0
H558 H 0.14259 0.84462 0.95887 0.0
H559 H 0.14073 0.85903 0.03182 0.0
C560 C 0.02782 0.64757 0.24497 0.0
C561 C 0.03235 0.63263 0.28134 0.0
C562 C 0.01717 0.65958 0.27465 0.0
C563 C 0.01095 0.65664 0.34254 0.0
C564 C 0.01504 0.64132 0.37898 0.0
C565 C 0.02566 0.62944 0.34784 0.0
C566 C 0.01299 0.67569 0.23392 0.0
C567 C 0.00863 0.63777 0.45152 0.0
C568 C 0.00065 0.69783 0.44108 0.0
C569 C 0.98188 0.69636 0.43615 0.0
C570 C 0.01024 0.68487 0.41155 0.0
C571 C 0.00083 0.67007 0.3762 0.0
C572 C 0.98187 0.66844 0.37127 0.0
C573 C 0.97262 0.68161 0.40129 0.0
C574 C 0.03047 0.68709 0.41771 0.0
C575 C 0.9714 0.65286 0.33379 0.0
H576 H 0.03283 0.65007 0.19338 0.0
H577 H 0.02911 0.61793 0.37626 0.0
H578 H 0.99826 0.67611 0.2324 0.0
H579 H 0.01915 0.68827 0.25907 0.0
H580 H 0.01807 0.67553 0.18056 0.0
H581 H 0.01218 0.62479 0.47158 0.0
H582 H 0.01471 0.6488 0.48536 0.0
H583 H 0.99384 0.63757 0.45437 0.0
H584 H 0.00792 0.70916 0.46794 0.0
H585 H 0.9581 0.68034 0.39731 0.0
H586 H 0.03664 0.68836 0.36606 0.0
H587 H 0.03486 0.675 0.44208 0.0
H588 H 0.03572 0.69914 0.44828 0.0
H589 H 0.9756 0.65297 0.27935 0.0
H590 H 0.95666 0.65333 0.33593 0.0
H591 H 0.97431 0.63992 0.35608 0.0
C592 C 0.12893 0.14047 0.76342 0.0
C593 C 0.11011 0.1371 0.76344 0.0
C594 C 0.13799 0.15477 0.80117 0.0
C595 C 0.12799 0.16591 0.84046 0.0
C596 C 0.10897 0.16293 0.839 0.0
C597 C 0.10025 0.14852 0.8006 0.0
C598 C 0.15828 0.15751 0.80112 0.0
C599 C 0.09785 0.17446 0.88048 0.0
C600 C 0.15183 0.18727 0.9971 0.0
C601 C 0.1574 0.20487 0.97453 0.0
C602 C 0.14189 0.17462 0.95447 0.0
C603 C 0.13751 0.17964 0.88728 0.0
C604 C 0.14296 0.19743 0.86429 0.0
C605 C 0.1529 0.20983 0.90817 0.0
C606 C 0.13633 0.15579 0.98104 0.0
C607 C 0.13866 0.20323 0.79283 0.0
H608 H 0.13662 0.13168 0.73474 0.0
H609 H 0.08575 0.14569 0.80255 0.0
H610 H 0.16335 0.17171 0.78884 0.0
H611 H 0.16332 0.15466 0.85285 0.0
H612 H 0.16401 0.14861 0.76371 0.0
H613 H 0.08328 0.17154 0.8687 0.0
H614 H 0.09982 0.17202 0.93581 0.0
H615 H 0.10227 0.18895 0.8708 0.0
H616 H 0.15525 0.18335 0.04838 0.0
H617 H 0.15763 0.22321 0.88961 0.0
H618 H 0.14271 0.14596 0.94982 0.0
H619 H 0.12157 0.15225 0.97637 0.0
H620 H 0.14019 0.15426 0.0354 0.0
H621 H 0.14557 0.19547 0.75489 0.0
H622 H 0.14288 0.21782 0.78422 0.0
H623 H 0.12402 0.20027 0.78301 0.0
C624 C 0.63916 0.29926 0.63055 0.0
C625 C 0.64789 0.29993 0.56691 0.0
C626 C 0.63068 0.31376 0.654 0.0
C627 C 0.63082 0.32929 0.61266 0.0
C628 C 0.63966 0.33011 0.54847 0.0
C629 C 0.64815 0.31543 0.52644 0.0
C630 C 0.62152 0.31244 0.72298 0.0
C631 C 0.64002 0.34642 0.50287 0.0
C632 C 0.59486 0.35972 0.64606 0.0
C633 C 0.60437 0.37362 0.68432 0.0
C634 C 0.60332 0.34523 0.6221 0.0
C635 C 0.62173 0.34467 0.63683 0.0
C636 C 0.6314 0.35872 0.6753 0.0
C637 C 0.62263 0.37308 0.69821 0.0
C638 C 0.59261 0.3306 0.58058 0.0
C639 C 0.651 0.35853 0.69252 0.0
H640 H 0.63893 0.28736 0.66229 0.0
H641 H 0.65482 0.31604 0.47715 0.0
H642 H 0.62738 0.32367 0.75634 0.0
H643 H 0.60703 0.31371 0.71688 0.0
H644 H 0.6228 0.2995 0.74924 0.0
H645 H 0.64741 0.34493 0.45437 0.0
H646 H 0.62609 0.3488 0.4903 0.0
H647 H 0.64646 0.35857 0.53005 0.0
H648 H 0.58093 0.36039 0.63317 0.0
H649 H 0.63004 0.38386 0.7276 0.0
H650 H 0.59274 0.31738 0.60608 0.0
H651 H 0.59885 0.32965 0.52944 0.0
H652 H 0.57842 0.33304 0.57358 0.0
H653 H 0.65273 0.3462 0.72197 0.0
H654 H 0.65659 0.37047 0.72301 0.0
H655 H 0.65898 0.35818 0.64484 0.0
C656 C 0.45153 0.80927 0.96081 0.0
C657 C 0.43471 0.80693 0.99325 0.0
C658 C 0.4641 0.82431 0.97505 0.0
C659 C 0.45962 0.83744 0.02205 0.0
C660 C 0.44194 0.83622 0.04849 0.0
C661 C 0.4297 0.82089 0.03415 0.0
C662 C 0.48278 0.82509 0.94552 0.0
C663 C 0.43647 0.85023 0.09705 0.0
C664 C 0.49797 0.85542 0.13854 0.0
C665 C 0.50449 0.87179 0.10722 0.0
C666 C 0.48308 0.84444 0.11217 0.0
C667 C 0.47423 0.85007 0.05349 0.0
C668 C 0.48015 0.867 0.0235 0.0
C669 C 0.49536 0.87763 0.05039 0.0
C670 C 0.47729 0.82643 0.14569 0.0
C671 C 0.47081 0.87362 0.96184 0.0
H672 H 0.45546 0.79868 0.92841 0.0
H673 H 0.41661 0.81936 0.05848 0.0
H674 H 0.48766 0.83885 0.92715 0.0
H675 H 0.49214 0.82168 0.98606 0.0
H676 H 0.48334 0.81548 0.90244 0.0
H677 H 0.42162 0.84947 0.10124 0.0
H678 H 0.44194 0.84805 0.14869 0.0
H679 H 0.442 0.86399 0.08032 0.0
H680 H 0.50488 0.85081 0.18259 0.0
H681 H 0.50027 0.89032 0.02615 0.0
H682 H 0.47861 0.81541 0.10875 0.0
H683 H 0.46295 0.8254 0.16094 0.0
H684 H 0.4854 0.82425 0.19179 0.0
H685 H 0.47405 0.86591 0.91597 0.0
H686 H 0.47505 0.88815 0.95198 0.0
H687 H 0.45601 0.87141 0.96861 0.0
C688 C 0.03044 0.53409 0.98839 0.0
C689 C 0.04279 0.53852 0.04149 0.0
C690 C 0.0287 0.51703 0.95753 0.0
C691 C 0.03968 0.50413 0.97995 0.0
C692 C 0.05217 0.5085 0.03353 0.0
C693 C 0.05353 0.52563 0.06385 0.0
C694 C 0.01514 0.51281 0.90083 0.0
C695 C 0.06418 0.49513 0.0585 0.0
C696 C 0.02469 0.4548 0.94084 0.0
C697 C 0.03499 0.45205 0.88275 0.0
C698 C 0.0261 0.47168 0.97308 0.0
C699 C 0.03818 0.48611 0.94686 0.0
C700 C 0.04872 0.48339 0.88859 0.0
C701 C 0.04695 0.46641 0.85708 0.0
C702 C 0.01457 0.47411 0.03492 0.0
C703 C 0.06184 0.49843 0.85945 0.0
H704 H 0.02205 0.54395 0.97097 0.0
H705 H 0.06314 0.52896 0.10474 0.0
H706 H 0.02206 0.50947 0.8532 0.0
H707 H 0.00555 0.50083 0.91463 0.0
H708 H 0.00743 0.52422 0.89012 0.0
H709 H 0.07316 0.50062 0.10075 0.0
H710 H 0.0559 0.48271 0.07675 0.0
H711 H 0.07259 0.49119 0.01572 0.0
H712 H 0.0154 0.44378 0.96093 0.0
H713 H 0.05501 0.46438 0.81237 0.0
H714 H 0.00589 0.48477 0.02475 0.0
H715 H 0.02319 0.47859 0.07937 0.0
H716 H 0.00587 0.46152 0.04902 0.0
H717 H 0.05461 0.5098 0.84364 0.0
H718 H 0.06925 0.49403 0.81453 0.0
H719 H 0.07173 0.50364 0.89918 0.0
C720 C 0.76032 0.73083 0.71273 0.0
C721 C 0.7507 0.74006 0.66575 0.0
C722 C 0.77917 0.73294 0.71237 0.0
C723 C 0.78865 0.74449 0.66364 0.0
C724 C 0.77903 0.75356 0.61518 0.0
C725 C 0.76017 0.75128 0.61692 0.0
C726 C 0.78895 0.72306 0.76499 0.0
C727 C 0.78868 0.76589 0.56217 0.0
C728 C 0.83648 0.76341 0.70987 0.0
C729 C 0.84649 0.75177 0.67443 0.0
C730 C 0.81766 0.76139 0.70574 0.0
C731 C 0.80863 0.74744 0.66495 0.0
C732 C 0.81866 0.73594 0.62763 0.0
C733 C 0.83748 0.73821 0.63295 0.0
C734 C 0.80741 0.77391 0.74638 0.0
C735 C 0.80951 0.721 0.58323 0.0
H736 H 0.75312 0.72213 0.75061 0.0
H737 H 0.75284 0.75841 0.58029 0.0
H738 H 0.79812 0.71466 0.73924 0.0
H739 H 0.79734 0.73289 0.79779 0.0
H740 H 0.7796 0.71424 0.79827 0.0
H741 H 0.77924 0.77137 0.52634 0.0
H742 H 0.79691 0.77732 0.58782 0.0
H743 H 0.798 0.75855 0.53215 0.0
H744 H 0.84332 0.77393 0.742 0.0
H745 H 0.84512 0.7292 0.60521 0.0
H746 H 0.79871 0.76608 0.78461 0.0
H747 H 0.7985 0.78058 0.71206 0.0
H748 H 0.81646 0.78447 0.77368 0.0
H749 H 0.80104 0.71109 0.61543 0.0
H750 H 0.81927 0.71383 0.55471 0.0
H751 H 0.80048 0.7265 0.54592 0.0
C752 C 0.60158 0.48605 0.60635 0.0
C753 C 0.58984 0.46998 0.60061 0.0
C754 C 0.60209 0.49946 0.55597 0.0
C755 C 0.59073 0.49663 0.49809 0.0
C756 C 0.57887 0.48042 0.49191 0.0
C757 C 0.5785 0.46733 0.54346 0.0
C758 C 0.61478 0.51665 0.56468 0.0
C759 C 0.56669 0.47686 0.43059 0.0
C760 C 0.58091 0.53755 0.39677 0.0
C761 C 0.59334 0.53777 0.34302 0.0
C762 C 0.57986 0.52419 0.44747 0.0
C763 C 0.59136 0.51061 0.44384 0.0
C764 C 0.6037 0.51057 0.38904 0.0
C765 C 0.60462 0.52423 0.3395 0.0
C766 C 0.56666 0.52476 0.50552 0.0
C767 C 0.61603 0.49619 0.38302 0.0
H768 H 0.61033 0.48823 0.6505 0.0
H769 H 0.56944 0.45491 0.53856 0.0
H770 H 0.62443 0.51829 0.52146 0.0
H771 H 0.60714 0.52841 0.56384 0.0
H772 H 0.62247 0.5169 0.6133 0.0
H773 H 0.5583 0.46354 0.43341 0.0
H774 H 0.55769 0.48748 0.42642 0.0
H775 H 0.57484 0.47737 0.38307 0.0
H776 H 0.5722 0.54802 0.39995 0.0
H777 H 0.61419 0.52427 0.29793 0.0
H778 H 0.57397 0.52615 0.55498 0.0
H779 H 0.55742 0.51197 0.50758 0.0
H780 H 0.55852 0.5361 0.50046 0.0
H781 H 0.62504 0.4967 0.42815 0.0
H782 H 0.62442 0.49773 0.33603 0.0
H783 H 0.60803 0.48266 0.38241 0.0
C784 C 0.83396 0.26855 0.45712 0.0
C785 C 0.842 0.25568 0.49422 0.0
C786 C 0.81572 0.27042 0.46602 0.0
C787 C 0.80519 0.25883 0.51184 0.0
C788 C 0.81321 0.24568 0.5489 0.0
C789 C 0.83159 0.24442 0.54028 0.0
C790 C 0.80775 0.28487 0.42675 0.0
C791 C 0.80233 0.23282 0.59708 0.0
C792 C 0.76157 0.27237 0.58175 0.0
C793 C 0.74885 0.26312 0.53768 0.0
C794 C 0.77999 0.27132 0.5733 0.0
C795 C 0.78575 0.26038 0.52062 0.0
C796 C 0.77293 0.25088 0.47638 0.0
C797 C 0.75464 0.25254 0.48492 0.0
C798 C 0.79329 0.28198 0.62047 0.0
C799 C 0.77852 0.23877 0.42058 0.0
H800 H 0.842 0.27738 0.42185 0.0
H801 H 0.83774 0.23439 0.56874 0.0
H802 H 0.7968 0.27865 0.39296 0.0
H803 H 0.80174 0.29388 0.46282 0.0
H804 H 0.8179 0.29315 0.39482 0.0
H805 H 0.81052 0.22313 0.62098 0.0
H806 H 0.79646 0.24044 0.63826 0.0
H807 H 0.79099 0.22513 0.56903 0.0
H808 H 0.75713 0.28065 0.62235 0.0
H809 H 0.74483 0.24525 0.45108 0.0
H810 H 0.80318 0.29099 0.59007 0.0
H811 H 0.80091 0.27274 0.64956 0.0
H812 H 0.78666 0.29029 0.65745 0.0
H813 H 0.78774 0.24669 0.38427 0.0
H814 H 0.76684 0.232 0.39148 0.0
H815 H 0.78596 0.2283 0.44311 0.0
C816 C 0.33772 0.23914 0.08166 0.0
C817 C 0.34694 0.25245 0.12363 0.0
C818 C 0.31889 0.23699 0.07732 0.0
C819 C 0.30905 0.24837 0.1161 0.0
C820 C 0.3183 0.26221 0.15681 0.0
C821 C 0.33713 0.2641 0.15998 0.0
C822 C 0.3095 0.22217 0.03291 0.0
C823 C 0.30828 0.27462 0.19892 0.0
C824 C 0.26003 0.25142 0.07442 0.0
C825 C 0.25117 0.23987 0.12366 0.0
C826 C 0.27887 0.25413 0.0706 0.0
C827 C 0.28908 0.24516 0.11737 0.0
C828 C 0.28021 0.23335 0.16665 0.0
C829 C 0.26137 0.23081 0.16908 0.0
C830 C 0.28787 0.26675 0.01709 0.0
C831 C 0.29063 0.22357 0.21756 0.0
H832 H 0.34519 0.23012 0.05317 0.0
H833 H 0.34414 0.27445 0.19244 0.0
H834 H 0.30152 0.21197 0.0655 0.0
H835 H 0.29999 0.22769 0.99761 0.0
H836 H 0.3191 0.21533 0.0022 0.0
H837 H 0.31747 0.28533 0.22485 0.0
H838 H 0.29889 0.28109 0.16604 0.0
H839 H 0.3001 0.26672 0.23844 0.0
H840 H 0.25224 0.25844 0.03901 0.0
H841 H 0.25464 0.22188 0.20731 0.0
H842 H 0.297 0.25965 0.98526 0.0
H843 H 0.29621 0.27819 0.04228 0.0
H844 H 0.27801 0.2722 0.98301 0.0
H845 H 0.29965 0.21532 0.19025 0.0
H846 H 0.2817 0.21463 0.25191 0.0
H847 H 0.29922 0.23347 0.24944 0.0
C848 C 0.32589 0.74897 0.01677 0.0
C849 C 0.33779 0.75965 0.05982 0.0
C850 C 0.30731 0.74975 0.02017 0.0
C851 C 0.30059 0.76188 0.06632 0.0
C852 C 0.31264 0.77302 0.10865 0.0
C853 C 0.33108 0.77157 0.1056 0.0
C854 C 0.29484 0.73733 0.97551 0.0
C855 C 0.30604 0.78645 0.15721 0.0
C856 C 0.25383 0.77452 0.03393 0.0
C857 C 0.24372 0.76428 0.08375 0.0
C858 C 0.27242 0.77401 0.02803 0.0
C859 C 0.28093 0.7626 0.07172 0.0
C860 C 0.2707 0.75199 0.12127 0.0
C861 C 0.25225 0.75316 0.12734 0.0
C862 C 0.28298 0.78587 0.97579 0.0
C863 C 0.2792 0.73932 0.16761 0.0
H864 H 0.33106 0.73967 0.98161 0.0
H865 H 0.3403 0.77996 0.13849 0.0
H866 H 0.28523 0.72858 0.00798 0.0
H867 H 0.28682 0.74528 0.94225 0.0
H868 H 0.30221 0.72862 0.94259 0.0
H869 H 0.31725 0.79481 0.18379 0.0
H870 H 0.29801 0.7955 0.12891 0.0
H871 H 0.29711 0.7793 0.19633 0.0
H872 H 0.24727 0.7832 0.00043 0.0
H873 H 0.24442 0.7451 0.16548 0.0
H874 H 0.28958 0.77749 0.93914 0.0
H875 H 0.29377 0.79493 0.00166 0.0
H876 H 0.27439 0.79422 0.9466 0.0
H877 H 0.28602 0.72979 0.13652 0.0
H878 H 0.26922 0.73145 0.20145 0.0
H879 H 0.28959 0.74704 0.2001 0.0
C880 C 0.55373 0.96935 0.36438 0.0
C881 C 0.56938 0.97099 0.32434 0.0
C882 C 0.55022 0.98317 0.40913 0.0
C883 C 0.56262 0.99904 0.4137 0.0
C884 C 0.57849 0.00073 0.37381 0.0
C885 C 0.5817 0.98667 0.32973 0.0
C886 C 0.53319 0.98085 0.45116 0.0
C887 C 0.59201 0.01747 0.37715 0.0
C888 C 0.54665 0.04232 0.47668 0.0
C889 C 0.55324 0.04341 0.54392 0.0
C890 C 0.54939 0.02782 0.43406 0.0
C891 C 0.55889 0.01403 0.45937 0.0
C892 C 0.56527 0.01487 0.52761 0.0
C893 C 0.56241 0.02957 0.56903 0.0
C894 C 0.54241 0.02742 0.36152 0.0
C895 C 0.57538 0.00037 0.55652 0.0
H896 H 0.54416 0.95726 0.36065 0.0
H897 H 0.59382 0.98807 0.29898 0.0
H898 H 0.5365 0.98232 0.50637 0.0
H899 H 0.52479 0.99153 0.43793 0.0
H900 H 0.52514 0.96752 0.44285 0.0
H901 H 0.60378 0.01658 0.3434 0.0
H902 H 0.58555 0.02939 0.36179 0.0
H903 H 0.59686 0.01978 0.43044 0.0
H904 H 0.53955 0.05296 0.45685 0.0
H905 H 0.56751 0.03028 0.62098 0.0
H906 H 0.53345 0.01469 0.35208 0.0
H907 H 0.5538 0.02781 0.32507 0.0
H908 H 0.53486 0.03892 0.35027 0.0
H909 H 0.56722 0.987 0.5512 0.0
H910 H 0.57884 0.00265 0.61136 0.0
H911 H 0.58798 -0.00013 0.52724 0.0
C912 C 0.07504 0.03688 0.87204 0.0
C913 C 0.08809 0.03724 0.82047 0.0
C914 C 0.07352 0.02351 0.92278 0.0
C915 C 0.08522 0.01008 0.92151 0.0
C916 C 0.09828 0.01024 0.86914 0.0
C917 C 0.09962 0.02388 0.81943 0.0
C918 C 0.05953 0.02385 0.97816 0.0
C919 C 0.11087 0.99605 0.86576 0.0
C920 C 0.09305 0.98525 0.08607 0.0
C921 C 0.0815 0.96914 0.07769 0.0
C922 C 0.09432 0.99873 0.03578 0.0
C923 C 0.08391 0.99596 0.9754 0.0
C924 C 0.07228 0.9797 0.96651 0.0
C925 C 0.07115 0.96652 0.01791 0.0
C926 C 0.10676 0.01596 0.04734 0.0
C927 C 0.06108 0.9762 0.90254 0.0
H928 H 0.06613 0.04719 0.87332 0.0
H929 H 0.1097 0.02404 0.77962 0.0
H930 H 0.05032 0.01103 0.97805 0.0
H931 H 0.06613 0.02509 0.02904 0.0
H932 H 0.05143 0.03518 0.97174 0.0
H933 H 0.12001 0.99785 0.82086 0.0
H934 H 0.11914 0.99649 0.91294 0.0
H935 H 0.10305 0.98246 0.86301 0.0
H936 H 0.10105 0.9874 0.13221 0.0
H937 H 0.06223 0.95408 0.01096 0.0
H938 H 0.09905 0.02766 0.04525 0.0
H939 H 0.117 0.01781 0.00612 0.0
H940 H 0.11378 0.0161 0.09743 0.0
H941 H 0.05202 0.98671 0.89661 0.0
H942 H 0.0528 0.9628 0.90329 0.0
H943 H 0.06994 0.97696 0.85689 0.0
loop_
_geom_bond_atom_site_label_1
_geom_bond_atom_site_label_2
_geom_bond_distance
_geom_bond_site_symmetry_2
_ccdc_geom_bond_type
O0 Cd1 2.300 . S
O0 C7 1.275 . S
Cd1 O0 2.300 . S
Cd1 O9 2.381 . S
Cd1 O10 2.378 . S
O2 Cd3 2.385 . S
O2 C7 1.255 . S
Cd3 O2 2.385 . S
Cd3 O4 2.317 . S
O4 Cd3 2.317 . S
O4 C5 1.232 . S
C5 O4 1.232 . S
C5 O6 1.218 . S
O6 C5 1.218 . S
C7 O0 1.275 . S
C7 O2 1.255 . S
C8 O9 1.258 . S
C8 O10 1.256 . S
O9 Cd1 2.381 . S
O9 C8 1.258 . S
O10 Cd1 2.378 . S
O10 C8 1.256 . S
O11 Cd12 2.300 . S
O11 C18 1.275 . S
Cd12 O11 2.300 . S
Cd12 O20 2.381 . S
Cd12 O21 2.378 . S
O13 Cd14 2.385 . S
O13 C18 1.255 . S
Cd14 O13 2.385 . S
Cd14 O15 2.317 . S
O15 Cd14 2.317 . S
O15 C16 1.232 . S
C16 O15 1.232 . S
C16 O17 1.218 . S
O17 C16 1.218 . S
C18 O11 1.275 . S
C18 O13 1.255 . S
C19 O20 1.258 . S
C19 O21 1.256 . S
O20 Cd12 2.381 . S
O20 C19 1.258 . S
O21 Cd12 2.378 . S
O21 C19 1.256 . S
O22 Cd23 2.300 . S
O22 C29 1.275 . S
Cd23 O22 2.300 . S
Cd23 O31 2.381 . S
Cd23 O32 2.378 . S
O24 Cd25 2.385 . S
O24 C29 1.255 . S
Cd25 O24 2.385 . S
Cd25 O26 2.317 . S
O26 Cd25 2.317 . S
O26 C27 1.232 . S
C27 O26 1.232 . S
C27 O28 1.218 . S
O28 C27 1.218 . S
C29 O22 1.275 . S
C29 O24 1.255 . S
C30 O31 1.258 . S
C30 O32 1.256 . S
O31 Cd23 2.381 . S
O31 C30 1.258 . S
O32 Cd23 2.378 . S
O32 C30 1.256 . S
O33 Cd34 2.300 . S
O33 C40 1.275 . S
Cd34 O33 2.300 . S
Cd34 O42 2.381 . S
Cd34 O43 2.378 . S
O35 Cd36 2.385 . S
O35 C40 1.255 . S
Cd36 O35 2.385 . S
Cd36 O37 2.317 . S
O37 Cd36 2.317 . S
O37 C38 1.232 . S
C38 O37 1.232 . S
C38 O39 1.218 . S
O39 C38 1.218 . S
C40 O33 1.275 . S
C40 O35 1.255 . S
C41 O42 1.258 . S
C41 O43 1.256 . S
O42 Cd34 2.381 . S
O42 C41 1.258 . S
O43 Cd34 2.378 . S
O43 C41 1.256 . S
O44 Cd45 2.300 . S
O44 C51 1.275 . S
Cd45 O44 2.300 . S
Cd45 O53 2.381 . S
Cd45 O54 2.378 . S
O46 Cd47 2.385 . S
O46 C51 1.255 . S
Cd47 O46 2.385 . S
Cd47 O48 2.317 . S
O48 Cd47 2.317 . S
O48 C49 1.232 . S
C49 O48 1.232 . S
C49 O50 1.218 . S
O50 C49 1.218 . S
C51 O44 1.275 . S
C51 O46 1.255 . S
C52 O53 1.258 . S
C52 O54 1.256 . S
O53 Cd45 2.381 . S
O53 C52 1.258 . S
O54 Cd45 2.378 . S
O54 C52 1.256 . S
O55 Cd56 2.300 . S
O55 C62 1.275 . S
Cd56 O55 2.300 . S
Cd56 O64 2.381 . S
Cd56 O65 2.378 . S
O57 Cd58 2.385 . S
O57 C62 1.255 . S
Cd58 O57 2.385 . S
Cd58 O59 2.317 . S
O59 Cd58 2.317 . S
O59 C60 1.232 . S
C60 O59 1.232 . S
C60 O61 1.218 . S
O61 C60 1.218 . S
C62 O55 1.275 . S
C62 O57 1.255 . S
C63 O64 1.258 . S
C63 O65 1.256 . S
O64 Cd56 2.381 . S
O64 C63 1.258 . S
O65 Cd56 2.378 . S
O65 C63 1.256 . S
O66 Cd67 2.300 . S
O66 C73 1.275 . S
Cd67 O66 2.300 . S
Cd67 O75 2.381 . S
Cd67 O76 2.378 . S
O68 Cd69 2.385 . S
O68 C73 1.255 . S
Cd69 O68 2.385 . S
Cd69 O70 2.317 . S
O70 Cd69 2.317 . S
O70 C71 1.232 . S
C71 O70 1.232 . S
C71 O72 1.218 . S
O72 C71 1.218 . S
C73 O66 1.275 . S
C73 O68 1.255 . S
C74 O75 1.258 . S
C74 O76 1.256 . S
O75 Cd67 2.381 . S
O75 C74 1.258 . S
O76 Cd67 2.378 . S
O76 C74 1.256 . S
O77 Cd78 2.300 . S
O77 C84 1.275 . S
Cd78 O77 2.300 . S
Cd78 O86 2.381 . S
Cd78 O87 2.378 . S
O79 Cd80 2.385 . S
O79 C84 1.255 . S
Cd80 O79 2.385 . S
Cd80 O81 2.317 . S
O81 Cd80 2.317 . S
O81 C82 1.232 . S
C82 O81 1.232 . S
C82 O83 1.218 . S
O83 C82 1.218 . S
C84 O77 1.275 . S
C84 O79 1.255 . S
C85 O86 1.258 . S
C85 O87 1.256 . S
O86 Cd78 2.381 . S
O86 C85 1.258 . S
O87 Cd78 2.378 . S
O87 C85 1.256 . S
O88 Cd89 2.300 . S
O88 C95 1.275 . S
Cd89 O88 2.300 . S
Cd89 O97 2.381 1_556 S
Cd89 O98 2.378 . S
O90 Cd91 2.385 . S
O90 C95 1.255 . S
Cd91 O90 2.385 . S
Cd91 O92 2.317 . S
O92 Cd91 2.317 . S
O92 C93 1.232 . S
C93 O92 1.232 . S
C93 O94 1.218 . S
O94 C93 1.218 . S
C95 O88 1.275 . S
C95 O90 1.255 . S
C96 O97 1.258 . S
C96 O98 1.256 1_554 S
O97 Cd89 2.381 1_554 S
O97 C96 1.258 . S
O98 Cd89 2.378 . S
O98 C96 1.256 1_556 S
O99 Cd100 2.300 1_554 S
O99 C106 1.275 . S
Cd100 O99 2.300 1_556 S
Cd100 O108 2.381 1_556 S
Cd100 O109 2.378 . S
O101 Cd102 2.385 . S
O101 C106 1.255 1_556 S
Cd102 O101 2.385 . S
Cd102 O103 2.317 . S
O103 Cd102 2.317 . S
O103 C104 1.237 . S
C104 O103 1.237 . S
C104 O105 1.223 . S
O105 C104 1.223 . S
C106 O99 1.275 . S
C106 O101 1.255 1_554 S
C107 O108 1.258 1_556 S
C107 O109 1.256 . S
O108 Cd100 2.381 1_554 S
O108 C107 1.258 1_554 S
O109 Cd100 2.378 . S
O109 C107 1.256 . S
O110 Cd111 2.301 1_554 S
O110 C117 1.275 1_554 S
Cd111 O110 2.301 1_556 S
Cd111 O119 2.381 1_556 S
Cd111 O120 2.378 . S
O112 Cd113 2.385 . S
O112 C117 1.255 . S
Cd113 O112 2.385 . S
Cd113 O114 2.317 . S
O114 Cd113 2.317 . S
O114 C115 1.232 . S
C115 O114 1.232 . S
C115 O116 1.218 . S
O116 C115 1.218 . S
C117 O110 1.275 1_556 S
C117 O112 1.255 . S
C118 O119 1.258 . S
C118 O120 1.256 1_554 S
O119 Cd111 2.381 1_554 S
O119 C118 1.258 . S
O120 Cd111 2.378 . S
O120 C118 1.256 1_556 S
O121 Cd122 2.300 1_554 S
O121 C128 1.275 . S
Cd122 O121 2.300 1_556 S
Cd122 O130 2.381 1_556 S
Cd122 O131 2.378 . S
O123 Cd124 2.385 . S
O123 C128 1.255 1_556 S
Cd124 O123 2.385 . S
Cd124 O125 2.317 . S
O125 Cd124 2.317 . S
O125 C126 1.232 1_556 S
C126 O125 1.232 1_554 S
C126 O127 1.218 1_554 S
O127 C126 1.218 1_556 S
C128 O121 1.275 . S
C128 O123 1.255 1_554 S
C129 O130 1.258 1_556 S
C129 O131 1.256 . S
O130 Cd122 2.381 1_554 S
O130 C129 1.258 1_554 S
O131 Cd122 2.378 . S
O131 C129 1.256 . S
O132 Cd133 2.300 . S
O132 C139 1.275 . S
Cd133 O132 2.300 . S
Cd133 O141 2.381 . S
Cd133 O142 2.378 . S
O134 Cd135 2.385 . S
O134 C139 1.255 . S
Cd135 O134 2.385 . S
Cd135 O136 2.317 . S
O136 Cd135 2.317 . S
O136 C137 1.232 . S
C137 O136 1.232 . S
C137 O138 1.218 . S
O138 C137 1.218 . S
C139 O132 1.275 . S
C139 O134 1.255 . S
C140 O141 1.258 . S
C140 O142 1.256 . S
O141 Cd133 2.381 . S
O141 C140 1.258 . S
O142 Cd133 2.378 . S
O142 C140 1.256 . S
O143 Cd144 2.300 . S
O143 C150 1.275 . S
Cd144 O143 2.300 . S
Cd144 O152 2.381 . S
Cd144 O153 2.378 . S
O145 Cd146 2.385 . S
O145 C150 1.255 . S
Cd146 O145 2.385 . S
Cd146 O147 2.317 . S
O147 Cd146 2.317 . S
O147 C148 1.232 . S
C148 O147 1.232 . S
C148 O149 1.218 . S
O149 C148 1.218 . S
C150 O143 1.275 . S
C150 O145 1.255 . S
C151 O152 1.258 . S
C151 O153 1.256 . S
O152 Cd144 2.381 . S
O152 C151 1.258 . S
O153 Cd144 2.378 . S
O153 C151 1.256 . S
O154 Cd155 2.300 . S
O154 C161 1.275 . S
Cd155 O154 2.300 . S
Cd155 O163 2.381 . S
Cd155 O164 2.378 . S
O156 Cd157 2.385 . S
O156 C161 1.255 . S
Cd157 O156 2.385 . S
Cd157 O158 2.317 . S
O158 Cd157 2.317 . S
O158 C159 1.232 . S
C159 O158 1.232 . S
C159 O160 1.218 . S
O160 C159 1.218 . S
C161 O154 1.275 . S
C161 O156 1.255 . S
C162 O163 1.258 . S
C162 O164 1.256 . S
O163 Cd155 2.381 . S
O163 C162 1.258 . S
O164 Cd155 2.378 . S
O164 C162 1.256 . S
O165 Cd166 2.300 . S
O165 C172 1.275 . S
Cd166 O165 2.300 . S
Cd166 O174 2.381 . S
Cd166 O175 2.378 . S
O167 Cd168 2.385 . S
O167 C172 1.255 . S
Cd168 O167 2.385 . S
Cd168 O169 2.317 . S
O169 Cd168 2.317 . S
O169 C170 1.232 . S
C170 O169 1.232 . S
C170 O171 1.218 . S
O171 C170 1.218 . S
C172 O165 1.275 . S
C172 O167 1.255 . S
C173 O174 1.258 . S
C173 O175 1.256 . S
O174 Cd166 2.381 . S
O174 C173 1.258 . S
O175 Cd166 2.378 . S
O175 C173 1.256 . S
C176 C177 1.391 . S
C176 C178 1.394 . S
C176 H192 0.931 1_554 S
C177 C176 1.391 . S
C177 C181 1.376 . S
C178 C176 1.394 . S
C178 C179 1.369 . S
C178 C182 1.531 . S
C179 C178 1.369 . S
C179 C180 1.410 . S
C179 C187 1.503 . S
C180 C179 1.410 . S
C180 C181 1.392 . S
C180 C183 1.511 . S
C181 C177 1.376 . S
C181 C180 1.392 . S
C181 H193 0.929 . S
C182 C178 1.531 . S
C182 H194 0.960 . S
C182 H195 0.962 1_554 S
C182 H196 0.960 1_554 S
C183 C180 1.511 . S
C183 H197 0.961 . S
C183 H198 0.961 . S
C183 H199 0.961 . S
C184 C185 1.370 . S
C184 C186 1.363 . S
C184 H200 0.931 . S
C185 C184 1.370 . S
C185 C189 1.408 . S
C186 C184 1.363 . S
C186 C187 1.370 . S
C186 C190 1.524 . S
C187 C179 1.503 . S
C187 C186 1.370 . S
C187 C188 1.403 . S
C188 C187 1.403 . S
C188 C189 1.404 . S
C188 C191 1.539 . S
C189 C185 1.408 . S
C189 C188 1.404 . S
C189 H201 0.930 . S
C190 C186 1.524 . S
C190 H202 0.956 . S
C190 H203 0.961 . S
C190 H204 0.961 . S
C191 C188 1.539 . S
C191 H205 0.958 . S
C191 H206 0.961 . S
C191 H207 0.960 . S
H192 C176 0.931 1_556 S
H193 C181 0.929 . S
H194 C182 0.960 . S
H195 C182 0.962 1_556 S
H196 C182 0.960 1_556 S
H197 C183 0.961 . S
H198 C183 0.961 . S
H199 C183 0.961 . S
H200 C184 0.931 . S
H201 C189 0.930 . S
H202 C190 0.956 . S
H203 C190 0.961 . S
H204 C190 0.961 . S
H205 C191 0.958 . S
H206 C191 0.961 . S
H207 C191 0.960 . S
C208 C209 1.391 . S
C208 C210 1.394 . S
C208 H224 0.931 . S
C209 C208 1.391 . S
C209 C213 1.376 . S
C210 C208 1.394 . S
C210 C211 1.369 . S
C210 C214 1.531 . S
C211 C210 1.369 . S
C211 C212 1.410 . S
C211 C219 1.503 . S
C212 C211 1.410 . S
C212 C213 1.392 . S
C212 C215 1.511 . S
C213 C209 1.376 . S
C213 C212 1.392 . S
C213 H225 0.929 . S
C214 C210 1.531 . S
C214 H226 0.960 . S
C214 H227 0.962 . S
C214 H228 0.960 . S
C215 C212 1.511 . S
C215 H229 0.961 . S
C215 H230 0.961 . S
C215 H231 0.961 . S
C216 C217 1.370 . S
C216 C218 1.363 . S
C216 H232 0.931 . S
C217 C216 1.370 . S
C217 C221 1.408 . S
C218 C216 1.363 . S
C218 C219 1.370 . S
C218 C222 1.524 . S
C219 C211 1.503 . S
C219 C218 1.370 . S
C219 C220 1.403 . S
C220 C219 1.403 . S
C220 C221 1.404 . S
C220 C223 1.539 . S
C221 C217 1.408 . S
C221 C220 1.404 . S
C221 H233 0.930 . S
C222 C218 1.524 . S
C222 H234 0.956 . S
C222 H235 0.961 . S
C222 H236 0.961 . S
C223 C220 1.539 . S
C223 H237 0.958 . S
C223 H238 0.961 . S
C223 H239 0.960 . S
H224 C208 0.931 . S
H225 C213 0.929 . S
H226 C214 0.960 . S
H227 C214 0.962 . S
H228 C214 0.960 . S
H229 C215 0.961 . S
H230 C215 0.961 . S
H231 C215 0.961 . S
H232 C216 0.931 . S
H233 C221 0.930 . S
H234 C222 0.956 . S
H235 C222 0.961 . S
H236 C222 0.961 . S
H237 C223 0.958 . S
H238 C223 0.961 . S
H239 C223 0.960 . S
C240 C241 1.391 . S
C240 C242 1.394 . S
C240 H256 0.931 1_556 S
C241 C240 1.391 . S
C241 C245 1.376 . S
C242 C240 1.394 . S
C242 C243 1.369 . S
C242 C246 1.531 1_556 S
C243 C242 1.369 . S
C243 C244 1.410 . S
C243 C251 1.503 . S
C244 C243 1.410 . S
C244 C245 1.392 . S
C244 C247 1.511 . S
C245 C241 1.376 . S
C245 C244 1.392 . S
C245 H257 0.929 . S
C246 C242 1.531 1_554 S
C246 H258 0.960 . S
C246 H259 0.962 . S
C246 H260 0.960 . S
C247 C244 1.511 . S
C247 H261 0.961 . S
C247 H262 0.961 . S
C247 H263 0.961 . S
C248 C249 1.370 . S
C248 C250 1.363 . S
C248 H264 0.931 . S
C249 C248 1.370 . S
C249 C253 1.408 . S
C250 C248 1.363 . S
C250 C251 1.370 . S
C250 C254 1.524 . S
C251 C243 1.503 . S
C251 C250 1.370 . S
C251 C252 1.403 . S
C252 C251 1.403 . S
C252 C253 1.404 . S
C252 C255 1.539 . S
C253 C249 1.408 . S
C253 C252 1.404 . S
C253 H265 0.930 . S
C254 C250 1.524 . S
C254 H266 0.956 . S
C254 H267 0.961 . S
C254 H268 0.961 . S
C255 C252 1.539 . S
C255 H269 0.958 . S
C255 H270 0.961 . S
C255 H271 0.960 . S
H256 C240 0.931 1_554 S
H257 C245 0.929 . S
H258 C246 0.960 . S
H259 C246 0.962 . S
H260 C246 0.960 . S
H261 C247 0.961 . S
H262 C247 0.961 . S
H263 C247 0.961 . S
H264 C248 0.931 . S
H265 C253 0.930 . S
H266 C254 0.956 . S
H267 C254 0.961 . S
H268 C254 0.961 . S
H269 C255 0.958 . S
H270 C255 0.961 . S
H271 C255 0.960 . S
C272 C273 1.391 . S
C272 C274 1.394 . S
C272 H288 0.931 . S
C273 C272 1.391 . S
C273 C277 1.376 . S
C274 C272 1.394 . S
C274 C275 1.369 . S
C274 C278 1.531 1_655 S
C275 C274 1.369 . S
C275 C276 1.410 . S
C275 C283 1.545 . S
C276 C275 1.410 . S
C276 C277 1.392 . S
C276 C279 1.511 . S
C277 C273 1.376 . S
C277 C276 1.392 . S
C277 H289 0.929 . S
C278 C274 1.531 1_455 S
C278 H290 0.960 . S
C278 H291 0.962 . S
C278 H292 0.960 . S
C279 C276 1.511 . S
C279 H293 0.961 . S
C279 H294 0.961 . S
C279 H295 0.961 . S
C280 C281 1.370 . S
C280 C282 1.363 1_455 S
C280 H296 0.931 . S
C281 C280 1.370 . S
C281 C285 1.408 . S
C282 C280 1.363 1_655 S
C282 C283 1.378 . S
C282 C286 1.524 . S
C283 C275 1.545 . S
C283 C282 1.378 . S
C283 C284 1.356 1_655 S
C284 C283 1.356 1_455 S
C284 C285 1.404 . S
C284 C287 1.539 . S
C285 C281 1.408 . S
C285 C284 1.404 . S
C285 H297 0.930 . S
C286 C282 1.524 . S
C286 H298 0.956 . S
C286 H299 0.961 . S
C286 H300 0.961 . S
C287 C284 1.539 . S
C287 H301 0.958 . S
C287 H302 0.961 . S
C287 H303 0.960 . S
H288 C272 0.931 . S
H289 C277 0.929 . S
H290 C278 0.960 . S
H291 C278 0.962 . S
H292 C278 0.960 . S
H293 C279 0.961 . S
H294 C279 0.961 . S
H295 C279 0.961 . S
H296 C280 0.931 . S
H297 C285 0.930 . S
H298 C286 0.956 . S
H299 C286 0.961 . S
H300 C286 0.961 . S
H301 C287 0.958 . S
H302 C287 0.961 . S
H303 C287 0.960 . S
C304 C305 1.391 . S
C304 C306 1.394 . S
C304 H320 0.931 . S
C305 C304 1.391 . S
C305 C309 1.376 . S
C306 C304 1.394 . S
C306 C307 1.369 . S
C306 C310 1.531 . S
C307 C306 1.369 . S
C307 C308 1.410 . S
C307 C315 1.503 . S
C308 C307 1.410 . S
C308 C309 1.392 . S
C308 C311 1.511 . S
C309 C305 1.376 . S
C309 C308 1.392 . S
C309 H321 0.929 . S
C310 C306 1.531 . S
C310 H322 0.960 . S
C310 H323 0.962 . S
C310 H324 0.960 . S
C311 C308 1.511 . S
C311 H325 0.961 . S
C311 H326 0.961 . S
C311 H327 0.961 . S
C312 C313 1.370 . S
C312 C314 1.363 . S
C312 H328 0.931 . S
C313 C312 1.370 . S
C313 C317 1.413 . S
C314 C312 1.363 . S
C314 C315 1.370 . S
C314 C318 1.524 . S
C315 C307 1.503 . S
C315 C314 1.370 . S
C315 C316 1.403 . S
C316 C315 1.403 . S
C316 C317 1.406 . S
C316 C319 1.539 1_556 S
C317 C313 1.413 . S
C317 C316 1.406 . S
C317 H329 0.923 1_556 S
C318 C314 1.524 . S
C318 H330 0.956 . S
C318 H331 0.961 . S
C318 H332 0.961 . S
C319 C316 1.539 1_554 S
C319 H333 0.958 . S
C319 H334 0.961 . S
C319 H335 0.960 . S
H320 C304 0.931 . S
H321 C309 0.929 . S
H322 C310 0.960 . S
H323 C310 0.962 . S
H324 C310 0.960 . S
H325 C311 0.961 . S
H326 C311 0.961 . S
H327 C311 0.961 . S
H328 C312 0.931 . S
H329 C317 0.923 1_554 S
H330 C318 0.956 . S
H331 C318 0.961 . S
H332 C318 0.961 . S
H333 C319 0.958 . S
H334 C319 0.961 . S
H335 C319 0.960 . S
C336 C337 1.391 . S
C336 C338 1.394 . S
C336 H352 0.931 . S
C337 C336 1.391 . S
C337 C341 1.376 . S
C338 C336 1.394 . S
C338 C339 1.369 1_455 S
C338 C342 1.531 . S
C339 C338 1.369 1_655 S
C339 C340 1.410 . S
C339 C347 1.503 . S
C340 C339 1.410 . S
C340 C341 1.392 1_655 S
C340 C343 1.511 . S
C341 C337 1.376 . S
C341 C340 1.392 1_455 S
C341 H353 0.929 . S
C342 C338 1.531 . S
C342 H354 0.968 . S
C342 H355 0.962 1_455 S
C342 H356 0.960 . S
C343 C340 1.511 . S
C343 H357 0.961 . S
C343 H358 0.961 . S
C343 H359 0.961 . S
C344 C345 1.370 . S
C344 C346 1.363 . S
C344 H360 0.931 . S
C345 C344 1.370 . S
C345 C349 1.408 . S
C346 C344 1.363 . S
C346 C347 1.370 . S
C346 C350 1.524 . S
C347 C339 1.503 . S
C347 C346 1.370 . S
C347 C348 1.403 . S
C348 C347 1.403 . S
C348 C349 1.404 . S
C348 C351 1.539 1_655 S
C349 C345 1.408 . S
C349 C348 1.404 . S
C349 H361 0.930 . S
C350 C346 1.524 . S
C350 H362 0.956 . S
C350 H363 0.961 . S
C350 H364 0.961 . S
C351 C348 1.539 1_455 S
C351 H365 0.958 . S
C351 H366 0.961 . S
C351 H367 0.960 . S
H352 C336 0.931 . S
H353 C341 0.929 . S
H354 C342 0.968 . S
H355 C342 0.962 1_655 S
H356 C342 0.960 . S
H357 C343 0.961 . S
H358 C343 0.961 . S
H359 C343 0.961 . S
H360 C344 0.931 . S
H361 C349 0.930 . S
H362 C350 0.956 . S
H363 C350 0.961 . S
H364 C350 0.961 . S
H365 C351 0.958 . S
H366 C351 0.961 . S
H367 C351 0.960 . S
C368 C369 1.391 . S
C368 C370 1.394 . S
C368 H384 0.931 1_554 S
C369 C368 1.391 . S
C369 C373 1.376 . S
C370 C368 1.394 . S
C370 C371 1.369 . S
C370 C374 1.531 . S
C371 C370 1.369 . S
C371 C372 1.410 . S
C371 C379 1.503 . S
C372 C371 1.410 . S
C372 C373 1.392 . S
C372 C375 1.511 . S
C373 C369 1.376 . S
C373 C372 1.392 . S
C373 H385 0.929 . S
C374 C370 1.531 . S
C374 H386 0.960 . S
C374 H387 0.962 1_554 S
C374 H388 0.960 . S
C375 C372 1.511 . S
C375 H389 0.961 . S
C375 H390 0.961 . S
C375 H391 0.961 . S
C376 C377 1.370 . S
C376 C378 1.363 . S
C376 H392 0.931 . S
C377 C376 1.370 . S
C377 C381 1.408 . S
C378 C376 1.363 . S
C378 C379 1.370 . S
C378 C382 1.524 . S
C379 C371 1.503 . S
C379 C378 1.370 . S
C379 C380 1.403 . S
C380 C379 1.403 . S
C380 C381 1.404 . S
C380 C383 1.539 . S
C381 C377 1.408 . S
C381 C380 1.404 . S
C381 H393 0.930 . S
C382 C378 1.524 . S
C382 H394 0.956 . S
C382 H395 0.961 . S
C382 H396 0.961 . S
C383 C380 1.539 . S
C383 H397 0.958 . S
C383 H398 0.961 . S
C383 H399 0.960 . S
H384 C368 0.931 1_556 S
H385 C373 0.929 . S
H386 C374 0.960 . S
H387 C374 0.962 1_556 S
H388 C374 0.960 . S
H389 C375 0.961 . S
H390 C375 0.961 . S
H391 C375 0.961 . S
H392 C376 0.931 . S
H393 C381 0.930 . S
H394 C382 0.956 . S
H395 C382 0.961 . S
H396 C382 0.961 . S
H397 C383 0.958 . S
H398 C383 0.961 . S
H399 C383 0.960 . S
C400 C401 1.391 . S
C400 C402 1.394 . S
C400 H416 0.931 . S
C401 C400 1.391 . S
C401 C405 1.376 . S
C402 C400 1.394 . S
C402 C403 1.369 . S
C402 C406 1.531 . S
C403 C402 1.369 . S
C403 C404 1.410 . S
C403 C411 1.503 . S
C404 C403 1.410 . S
C404 C405 1.392 . S
C404 C407 1.511 . S
C405 C401 1.376 . S
C405 C404 1.392 . S
C405 H417 0.929 . S
C406 C402 1.531 . S
C406 H418 0.960 . S
C406 H419 0.962 . S
C406 H420 0.960 . S
C407 C404 1.511 . S
C407 H421 0.961 . S
C407 H422 0.961 . S
C407 H423 0.961 . S
C408 C409 1.370 . S
C408 C410 1.363 . S
C408 H424 0.931 . S
C409 C408 1.370 . S
C409 C413 1.408 . S
C410 C408 1.363 . S
C410 C411 1.370 . S
C410 C414 1.524 . S
C411 C403 1.503 . S
C411 C410 1.370 . S
C411 C412 1.403 . S
C412 C411 1.403 . S
C412 C413 1.404 . S
C412 C415 1.539 . S
C413 C409 1.408 . S
C413 C412 1.404 . S
C413 H425 0.930 . S
C414 C410 1.524 . S
C414 H426 0.956 . S
C414 H427 0.961 . S
C414 H428 0.961 . S
C415 C412 1.539 . S
C415 H429 0.958 . S
C415 H430 0.961 . S
C415 H431 0.960 . S
H416 C400 0.931 . S
H417 C405 0.929 . S
H418 C406 0.960 . S
H419 C406 0.962 . S
H420 C406 0.960 . S
H421 C407 0.961 . S
H422 C407 0.961 . S
H423 C407 0.961 . S
H424 C408 0.931 . S
H425 C413 0.930 . S
H426 C414 0.956 . S
H427 C414 0.961 . S
H428 C414 0.961 . S
H429 C415 0.958 . S
H430 C415 0.961 . S
H431 C415 0.960 . S
C432 C433 1.391 1_655 S
C432 C434 1.394 . S
C432 H448 0.931 . S
C433 C432 1.391 1_455 S
C433 C437 1.376 . S
C434 C432 1.394 . S
C434 C435 1.369 . S
C434 C438 1.531 . S
C435 C434 1.369 . S
C435 C436 1.410 1_655 S
C435 C443 1.503 . S
C436 C435 1.410 1_455 S
C436 C437 1.392 . S
C436 C439 1.511 . S
C437 C433 1.376 . S
C437 C436 1.392 . S
C437 H449 0.929 . S
C438 C434 1.531 . S
C438 H450 0.960 . S
C438 H451 0.962 . S
C438 H452 0.960 . S
C439 C436 1.511 . S
C439 H453 0.961 . S
C439 H454 0.961 . S
C439 H455 0.961 . S
C440 C441 1.370 . S
C440 C442 1.363 . S
C440 H456 0.931 . S
C441 C440 1.370 . S
C441 C445 1.408 . S
C442 C440 1.363 . S
C442 C443 1.370 . S
C442 C446 1.524 . S
C443 C435 1.503 . S
C443 C442 1.370 . S
C443 C444 1.403 . S
C444 C443 1.403 . S
C444 C445 1.404 . S
C444 C447 1.539 . S
C445 C441 1.408 . S
C445 C444 1.404 . S
C445 H457 0.930 . S
C446 C442 1.524 . S
C446 H458 0.956 . S
C446 H459 0.961 . S
C446 H460 0.961 . S
C447 C444 1.539 . S
C447 H461 0.958 . S
C447 H462 0.961 . S
C447 H463 0.960 . S
H448 C432 0.931 . S
H449 C437 0.929 . S
H450 C438 0.960 . S
H451 C438 0.962 . S
H452 C438 0.960 . S
H453 C439 0.961 . S
H454 C439 0.961 . S
H455 C439 0.961 . S
H456 C440 0.931 . S
H457 C445 0.930 . S
H458 C446 0.956 . S
H459 C446 0.961 . S
H460 C446 0.961 . S
H461 C447 0.958 . S
H462 C447 0.961 . S
H463 C447 0.960 . S
C464 C465 1.391 . S
C464 C466 1.394 . S
C464 H480 0.931 . S
C465 C464 1.391 . S
C465 C469 1.376 . S
C466 C464 1.394 . S
C466 C467 1.369 . S
C466 C470 1.531 . S
C467 C466 1.369 . S
C467 C468 1.410 . S
C467 C475 1.503 . S
C468 C467 1.410 . S
C468 C469 1.392 . S
C468 C471 1.511 . S
C469 C465 1.376 . S
C469 C468 1.392 . S
C469 H481 0.929 . S
C470 C466 1.531 . S
C470 H482 0.960 . S
C470 H483 0.962 . S
C470 H484 0.960 . S
C471 C468 1.511 . S
C471 H485 0.961 . S
C471 H486 0.961 . S
C471 H487 0.961 . S
C472 C473 1.370 . S
C472 C474 1.363 . S
C472 H488 0.931 1_556 S
C473 C472 1.370 . S
C473 C477 1.408 . S
C474 C472 1.363 . S
C474 C475 1.370 . S
C474 C478 1.515 1_556 S
C475 C467 1.503 . S
C475 C474 1.370 . S
C475 C476 1.403 . S
C476 C475 1.403 . S
C476 C477 1.404 . S
C476 C479 1.539 . S
C477 C473 1.408 . S
C477 C476 1.404 . S
C477 H489 0.930 . S
C478 C474 1.515 1_554 S
C478 H490 0.956 . S
C478 H491 0.956 1_554 S
C478 H492 0.974 . S
C479 C476 1.539 . S
C479 H493 0.958 . S
C479 H494 0.961 . S
C479 H495 0.960 . S
H480 C464 0.931 . S
H481 C469 0.929 . S
H482 C470 0.960 . S
H483 C470 0.962 . S
H484 C470 0.960 . S
H485 C471 0.961 . S
H486 C471 0.961 . S
H487 C471 0.961 . S
H488 C472 0.931 1_554 S
H489 C477 0.930 . S
H490 C478 0.956 . S
H491 C478 0.956 1_556 S
H492 C478 0.974 . S
H493 C479 0.958 . S
H494 C479 0.961 . S
H495 C479 0.960 . S
C496 C497 1.391 . S
C496 C498 1.394 . S
C496 H512 0.931 . S
C497 C496 1.391 . S
C497 C501 1.376 . S
C498 C496 1.394 . S
C498 C499 1.369 . S
C498 C502 1.531 . S
C499 C498 1.369 . S
C499 C500 1.410 . S
C499 C507 1.503 . S
C500 C499 1.410 . S
C500 C501 1.392 . S
C500 C503 1.511 . S
C501 C497 1.376 . S
C501 C500 1.392 . S
C501 H513 0.929 . S
C502 C498 1.531 . S
C502 H514 0.960 . S
C502 H515 0.962 . S
C502 H516 0.960 . S
C503 C500 1.511 . S
C503 H517 0.961 . S
C503 H518 0.961 . S
C503 H519 0.961 . S
C504 C505 1.370 . S
C504 C506 1.363 . S
C504 H520 0.931 . S
C505 C504 1.370 . S
C505 C509 1.408 . S
C506 C504 1.363 . S
C506 C507 1.370 . S
C506 C510 1.524 . S
C507 C499 1.503 . S
C507 C506 1.370 . S
C507 C508 1.403 . S
C508 C507 1.403 . S
C508 C509 1.404 . S
C508 C511 1.539 . S
C509 C505 1.408 . S
C509 C508 1.404 . S
C509 H521 0.930 . S
C510 C506 1.524 . S
C510 H522 0.956 . S
C510 H523 0.961 . S
C510 H524 0.961 . S
C511 C508 1.539 . S
C511 H525 0.958 . S
C511 H526 0.961 . S
C511 H527 0.960 . S
H512 C496 0.931 . S
H513 C501 0.929 . S
H514 C502 0.960 . S
H515 C502 0.962 . S
H516 C502 0.960 . S
H517 C503 0.961 . S
H518 C503 0.961 . S
H519 C503 0.961 . S
H520 C504 0.931 . S
H521 C509 0.930 . S
H522 C510 0.956 . S
H523 C510 0.961 . S
H524 C510 0.961 . S
H525 C511 0.958 . S
H526 C511 0.961 . S
H527 C511 0.960 . S
C528 C529 1.391 . S
C528 C530 1.394 . S
C528 H544 0.931 . S
C529 C528 1.391 . S
C529 C533 1.376 . S
C530 C528 1.394 . S
C530 C531 1.369 . S
C530 C534 1.531 . S
C531 C530 1.369 . S
C531 C532 1.410 . S
C531 C539 1.503 . S
C532 C531 1.410 . S
C532 C533 1.392 . S
C532 C535 1.511 . S
C533 C529 1.376 . S
C533 C532 1.392 . S
C533 H545 0.929 . S
C534 C530 1.531 . S
C534 H546 0.969 . S
C534 H547 0.962 . S
C534 H548 0.960 . S
C535 C532 1.511 . S
C535 H549 0.961 . S
C535 H550 0.961 . S
C535 H551 0.961 . S
C536 C537 1.370 . S
C536 C538 1.363 . S
C536 H552 0.931 . S
C537 C536 1.370 . S
C537 C541 1.408 . S
C538 C536 1.363 . S
C538 C539 1.370 . S
C538 C542 1.524 . S
C539 C531 1.503 . S
C539 C538 1.370 . S
C539 C540 1.403 . S
C540 C539 1.403 . S
C540 C541 1.404 . S
C540 C543 1.539 . S
C541 C537 1.408 . S
C541 C540 1.404 . S
C541 H553 0.930 1_554 S
C542 C538 1.524 . S
C542 H554 0.956 . S
C542 H555 0.961 . S
C542 H556 0.961 . S
C543 C540 1.539 . S
C543 H557 0.958 1_554 S
C543 H558 0.960 1_554 S
C543 H559 0.960 . S
H544 C528 0.931 . S
H545 C533 0.929 . S
H546 C534 0.969 . S
H547 C534 0.962 . S
H548 C534 0.960 . S
H549 C535 0.961 . S
H550 C535 0.961 . S
H551 C535 0.961 . S
H552 C536 0.931 . S
H553 C541 0.930 1_556 S
H554 C542 0.956 . S
H555 C542 0.961 . S
H556 C542 0.961 . S
H557 C543 0.958 1_556 S
H558 C543 0.960 1_556 S
H559 C543 0.960 . S
C560 C561 1.391 . S
C560 C562 1.394 1_455 S
C560 H576 0.931 . S
C561 C560 1.391 . S
C561 C565 1.376 . S
C562 C560 1.394 1_655 S
C562 C563 1.369 . S
C562 C566 1.531 . S
C563 C562 1.369 . S
C563 C564 1.410 1_655 S
C563 C571 1.503 . S
C564 C563 1.410 1_455 S
C564 C565 1.392 . S
C564 C567 1.511 . S
C565 C561 1.376 . S
C565 C564 1.392 . S
C565 H577 0.929 . S
C566 C562 1.531 . S
C566 H578 0.960 . S
C566 H579 0.962 . S
C566 H580 0.960 . S
C567 C564 1.511 . S
C567 H581 0.961 . S
C567 H582 0.976 . S
C567 H583 0.961 1_455 S
C568 C569 1.370 . S
C568 C570 1.363 . S
C568 H584 0.931 . S
C569 C568 1.370 . S
C569 C573 1.408 . S
C570 C568 1.363 . S
C570 C571 1.370 . S
C570 C574 1.524 1_655 S
C571 C563 1.503 . S
C571 C570 1.370 . S
C571 C572 1.403 . S
C572 C571 1.403 . S
C572 C573 1.404 . S
C572 C575 1.539 . S
C573 C569 1.408 . S
C573 C572 1.404 . S
C573 H585 0.930 . S
C574 C570 1.524 1_455 S
C574 H586 0.956 . S
C574 H587 0.961 . S
C574 H588 0.961 . S
C575 C572 1.539 . S
C575 H589 0.958 . S
C575 H590 0.961 . S
C575 H591 0.960 . S
H576 C560 0.931 . S
H577 C565 0.929 . S
H578 C566 0.960 . S
H579 C566 0.962 . S
H580 C566 0.960 . S
H581 C567 0.961 . S
H582 C567 0.976 . S
H583 C567 0.961 1_655 S
H584 C568 0.931 . S
H585 C573 0.930 . S
H586 C574 0.956 . S
H587 C574 0.961 . S
H588 C574 0.961 . S
H589 C575 0.958 . S
H590 C575 0.961 . S
H591 C575 0.960 . S
C592 C593 1.391 . S
C592 C594 1.394 . S
C592 H608 0.931 . S
C593 C592 1.391 . S
C593 C597 1.376 . S
C594 C592 1.394 . S
C594 C595 1.369 . S
C594 C598 1.531 . S
C595 C594 1.369 . S
C595 C596 1.410 . S
C595 C603 1.503 . S
C596 C595 1.410 . S
C596 C597 1.392 . S
C596 C599 1.511 . S
C597 C593 1.376 . S
C597 C596 1.392 . S
C597 H609 0.929 . S
C598 C594 1.531 . S
C598 H610 0.960 . S
C598 H611 0.962 . S
C598 H612 0.960 . S
C599 C596 1.511 . S
C599 H613 0.961 . S
C599 H614 0.961 . S
C599 H615 0.961 . S
C600 C601 1.370 . S
C600 C602 1.363 . S
C600 H616 0.931 1_556 S
C601 C600 1.370 . S
C601 C605 1.408 . S
C602 C600 1.363 . S
C602 C603 1.370 . S
C602 C606 1.524 . S
C603 C595 1.503 . S
C603 C602 1.370 . S
C603 C604 1.403 . S
C604 C603 1.403 . S
C604 C605 1.404 . S
C604 C607 1.539 . S
C605 C601 1.408 . S
C605 C604 1.404 . S
C605 H617 0.930 . S
C606 C602 1.524 . S
C606 H618 0.956 . S
C606 H619 0.961 . S
C606 H620 0.961 1_556 S
C607 C604 1.539 . S
C607 H621 0.958 . S
C607 H622 0.961 . S
C607 H623 0.960 . S
H608 C592 0.931 . S
H609 C597 0.929 . S
H610 C598 0.960 . S
H611 C598 0.962 . S
H612 C598 0.960 . S
H613 C599 0.961 . S
H614 C599 0.961 . S
H615 C599 0.961 . S
H616 C600 0.931 1_554 S
H617 C605 0.930 . S
H618 C606 0.956 . S
H619 C606 0.961 . S
H620 C606 0.961 1_554 S
H621 C607 0.958 . S
H622 C607 0.961 . S
H623 C607 0.960 . S
C624 C625 1.391 . S
C624 C626 1.394 . S
C624 H640 0.931 . S
C625 C624 1.391 . S
C625 C629 1.376 . S
C626 C624 1.394 . S
C626 C627 1.369 . S
C626 C630 1.531 . S
C627 C626 1.369 . S
C627 C628 1.410 . S
C627 C635 1.503 . S
C628 C627 1.410 . S
C628 C629 1.392 . S
C628 C631 1.511 . S
C629 C625 1.376 . S
C629 C628 1.392 . S
C629 H641 0.929 . S
C630 C626 1.531 . S
C630 H642 0.960 . S
C630 H643 0.962 . S
C630 H644 0.960 . S
C631 C628 1.511 . S
C631 H645 0.961 . S
C631 H646 0.961 . S
C631 H647 0.961 . S
C632 C633 1.370 . S
C632 C634 1.363 . S
C632 H648 0.931 . S
C633 C632 1.370 . S
C633 C637 1.408 . S
C634 C632 1.363 . S
C634 C635 1.370 . S
C634 C638 1.524 . S
C635 C627 1.503 . S
C635 C634 1.370 . S
C635 C636 1.403 . S
C636 C635 1.403 . S
C636 C637 1.404 . S
C636 C639 1.539 . S
C637 C633 1.408 . S
C637 C636 1.404 . S
C637 H649 0.930 . S
C638 C634 1.524 . S
C638 H650 0.956 . S
C638 H651 0.961 . S
C638 H652 0.961 . S
C639 C636 1.539 . S
C639 H653 0.958 . S
C639 H654 0.961 . S
C639 H655 0.960 . S
H640 C624 0.931 . S
H641 C629 0.929 . S
H642 C630 0.960 . S
H643 C630 0.962 . S
H644 C630 0.960 . S
H645 C631 0.961 . S
H646 C631 0.961 . S
H647 C631 0.961 . S
H648 C632 0.931 . S
H649 C637 0.930 . S
H650 C638 0.956 . S
H651 C638 0.961 . S
H652 C638 0.961 . S
H653 C639 0.958 . S
H654 C639 0.961 . S
H655 C639 0.960 . S
C656 C657 1.391 . S
C656 C658 1.394 . S
C656 H672 0.931 . S
C657 C656 1.391 . S
C657 C661 1.376 . S
C658 C656 1.394 . S
C658 C659 1.369 . S
C658 C662 1.531 . S
C659 C658 1.369 . S
C659 C660 1.410 . S
C659 C667 1.503 . S
C660 C659 1.410 . S
C660 C661 1.392 . S
C660 C663 1.511 . S
C661 C657 1.376 . S
C661 C660 1.392 . S
C661 H673 0.929 . S
C662 C658 1.531 . S
C662 H674 0.960 . S
C662 H675 0.962 . S
C662 H676 0.960 . S
C663 C660 1.511 . S
C663 H677 0.961 . S
C663 H678 0.961 . S
C663 H679 0.961 . S
C664 C665 1.370 . S
C664 C666 1.363 . S
C664 H680 0.931 . S
C665 C664 1.370 . S
C665 C669 1.408 . S
C666 C664 1.363 . S
C666 C667 1.370 . S
C666 C670 1.524 . S
C667 C659 1.503 . S
C667 C666 1.370 . S
C667 C668 1.403 . S
C668 C667 1.403 . S
C668 C669 1.404 . S
C668 C671 1.539 1_554 S
C669 C665 1.408 . S
C669 C668 1.404 . S
C669 H681 0.930 . S
C670 C666 1.524 . S
C670 H682 0.956 . S
C670 H683 0.961 . S
C670 H684 0.961 . S
C671 C668 1.539 1_556 S
C671 H685 0.958 . S
C671 H686 0.961 . S
C671 H687 0.960 . S
H672 C656 0.931 . S
H673 C661 0.929 . S
H674 C662 0.960 . S
H675 C662 0.962 . S
H676 C662 0.960 . S
H677 C663 0.961 . S
H678 C663 0.961 . S
H679 C663 0.961 . S
H680 C664 0.931 . S
H681 C669 0.930 . S
H682 C670 0.956 . S
H683 C670 0.961 . S
H684 C670 0.961 . S
H685 C671 0.958 . S
H686 C671 0.961 . S
H687 C671 0.960 . S
C688 C689 1.391 . S
C688 C690 1.394 . S
C688 H704 0.931 . S
C689 C688 1.391 . S
C689 C693 1.376 . S
C690 C688 1.394 . S
C690 C691 1.369 . S
C690 C694 1.531 1_554 S
C691 C690 1.369 . S
C691 C692 1.410 . S
C691 C699 1.503 1_554 S
C692 C691 1.410 . S
C692 C693 1.392 . S
C692 C695 1.511 . S
C693 C689 1.376 . S
C693 C692 1.392 . S
C693 H705 0.929 . S
C694 C690 1.531 1_556 S
C694 H706 0.960 . S
C694 H707 0.962 . S
C694 H708 0.960 . S
C695 C692 1.511 . S
C695 H709 0.961 . S
C695 H710 0.961 . S
C695 H711 0.961 . S
C696 C697 1.370 . S
C696 C698 1.363 . S
C696 H712 0.931 . S
C697 C696 1.370 . S
C697 C701 1.408 . S
C698 C696 1.363 . S
C698 C699 1.370 . S
C698 C702 1.524 1_556 S
C699 C691 1.503 1_556 S
C699 C698 1.370 . S
C699 C700 1.403 . S
C700 C699 1.403 . S
C700 C701 1.404 . S
C700 C703 1.539 . S
C701 C697 1.408 . S
C701 C700 1.404 . S
C701 H713 0.930 . S
C702 C698 1.524 1_554 S
C702 H714 0.956 . S
C702 H715 0.961 . S
C702 H716 0.961 . S
C703 C700 1.539 . S
C703 H717 0.958 . S
C703 H718 0.961 . S
C703 H719 0.960 . S
H704 C688 0.931 . S
H705 C693 0.929 . S
H706 C694 0.960 . S
H707 C694 0.962 . S
H708 C694 0.960 . S
H709 C695 0.961 . S
H710 C695 0.961 . S
H711 C695 0.961 . S
H712 C696 0.931 . S
H713 C701 0.930 . S
H714 C702 0.956 . S
H715 C702 0.961 . S
H716 C702 0.961 . S
H717 C703 0.958 . S
H718 C703 0.961 . S
H719 C703 0.960 . S
C720 C721 1.391 . S
C720 C722 1.394 . S
C720 H736 0.931 . S
C721 C720 1.391 . S
C721 C725 1.376 . S
C722 C720 1.394 . S
C722 C723 1.369 . S
C722 C726 1.531 . S
C723 C722 1.369 . S
C723 C724 1.410 . S
C723 C731 1.503 . S
C724 C723 1.410 . S
C724 C725 1.392 . S
C724 C727 1.511 . S
C725 C721 1.376 . S
C725 C724 1.392 . S
C725 H737 0.929 . S
C726 C722 1.531 . S
C726 H738 0.960 . S
C726 H739 0.962 . S
C726 H740 0.960 . S
C727 C724 1.511 . S
C727 H741 0.961 . S
C727 H742 0.961 . S
C727 H743 0.961 . S
C728 C729 1.370 . S
C728 C730 1.363 . S
C728 H744 0.931 . S
C729 C728 1.370 . S
C729 C733 1.408 . S
C730 C728 1.363 . S
C730 C731 1.370 . S
C730 C734 1.524 . S
C731 C723 1.503 . S
C731 C730 1.370 . S
C731 C732 1.403 . S
C732 C731 1.403 . S
C732 C733 1.404 . S
C732 C735 1.539 . S
C733 C729 1.408 . S
C733 C732 1.404 . S
C733 H745 0.930 . S
C734 C730 1.524 . S
C734 H746 0.956 . S
C734 H747 0.961 . S
C734 H748 0.961 . S
C735 C732 1.539 . S
C735 H749 0.958 . S
C735 H750 0.961 . S
C735 H751 0.960 . S
H736 C720 0.931 . S
H737 C725 0.929 . S
H738 C726 0.960 . S
H739 C726 0.962 . S
H740 C726 0.960 . S
H741 C727 0.961 . S
H742 C727 0.961 . S
H743 C727 0.961 . S
H744 C728 0.931 . S
H745 C733 0.930 . S
H746 C734 0.956 . S
H747 C734 0.961 . S
H748 C734 0.961 . S
H749 C735 0.958 . S
H750 C735 0.961 . S
H751 C735 0.960 . S
C752 C753 1.391 . S
C752 C754 1.394 . S
C752 H768 0.931 . S
C753 C752 1.391 . S
C753 C757 1.376 . S
C754 C752 1.394 . S
C754 C755 1.369 . S
C754 C758 1.531 . S
C755 C754 1.369 . S
C755 C756 1.410 . S
C755 C763 1.503 . S
C756 C755 1.410 . S
C756 C757 1.392 . S
C756 C759 1.511 . S
C757 C753 1.376 . S
C757 C756 1.392 . S
C757 H769 0.929 . S
C758 C754 1.531 . S
C758 H770 0.960 . S
C758 H771 0.962 . S
C758 H772 0.960 . S
C759 C756 1.511 . S
C759 H773 0.961 . S
C759 H774 0.961 . S
C759 H775 0.961 . S
C760 C761 1.370 . S
C760 C762 1.363 . S
C760 H776 0.931 . S
C761 C760 1.370 . S
C761 C765 1.408 . S
C762 C760 1.363 . S
C762 C763 1.370 . S
C762 C766 1.524 . S
C763 C755 1.503 . S
C763 C762 1.370 . S
C763 C764 1.403 . S
C764 C763 1.403 . S
C764 C765 1.404 . S
C764 C767 1.539 . S
C765 C761 1.408 . S
C765 C764 1.404 . S
C765 H777 0.930 . S
C766 C762 1.524 . S
C766 H778 0.956 . S
C766 H779 0.961 . S
C766 H780 0.961 . S
C767 C764 1.539 . S
C767 H781 0.958 . S
C767 H782 0.961 . S
C767 H783 0.960 . S
H768 C752 0.931 . S
H769 C757 0.929 . S
H770 C758 0.960 . S
H771 C758 0.962 . S
H772 C758 0.960 . S
H773 C759 0.961 . S
H774 C759 0.961 . S
H775 C759 0.961 . S
H776 C760 0.931 . S
H777 C765 0.930 . S
H778 C766 0.956 . S
H779 C766 0.961 . S
H780 C766 0.961 . S
H781 C767 0.958 . S
H782 C767 0.961 . S
H783 C767 0.960 . S
C784 C785 1.391 . S
C784 C786 1.394 . S
C784 H800 0.931 . S
C785 C784 1.391 . S
C785 C789 1.376 . S
C786 C784 1.394 . S
C786 C787 1.369 . S
C786 C790 1.531 . S
C787 C786 1.369 . S
C787 C788 1.410 . S
C787 C795 1.503 . S
C788 C787 1.410 . S
C788 C789 1.392 . S
C788 C791 1.511 . S
C789 C785 1.376 . S
C789 C788 1.392 . S
C789 H801 0.929 . S
C790 C786 1.531 . S
C790 H802 0.960 . S
C790 H803 0.962 . S
C790 H804 0.960 . S
C791 C788 1.511 . S
C791 H805 0.961 . S
C791 H806 0.961 . S
C791 H807 0.961 . S
C792 C793 1.370 . S
C792 C794 1.363 . S
C792 H808 0.931 . S
C793 C792 1.370 . S
C793 C797 1.408 . S
C794 C792 1.363 . S
C794 C795 1.370 . S
C794 C798 1.524 . S
C795 C787 1.503 . S
C795 C794 1.370 . S
C795 C796 1.403 . S
C796 C795 1.403 . S
C796 C797 1.404 . S
C796 C799 1.539 . S
C797 C793 1.408 . S
C797 C796 1.404 . S
C797 H809 0.930 . S
C798 C794 1.524 . S
C798 H810 0.956 . S
C798 H811 0.961 . S
C798 H812 0.961 . S
C799 C796 1.539 . S
C799 H813 0.958 . S
C799 H814 0.961 . S
C799 H815 0.960 . S
H800 C784 0.931 . S
H801 C789 0.929 . S
H802 C790 0.960 . S
H803 C790 0.962 . S
H804 C790 0.960 . S
H805 C791 0.961 . S
H806 C791 0.961 . S
H807 C791 0.961 . S
H808 C792 0.931 . S
H809 C797 0.930 . S
H810 C798 0.956 . S
H811 C798 0.961 . S
H812 C798 0.961 . S
H813 C799 0.958 . S
H814 C799 0.961 . S
H815 C799 0.960 . S
C816 C817 1.391 . S
C816 C818 1.394 . S
C816 H832 0.931 . S
C817 C816 1.391 . S
C817 C821 1.376 . S
C818 C816 1.394 . S
C818 C819 1.369 . S
C818 C822 1.531 . S
C819 C818 1.369 . S
C819 C820 1.410 . S
C819 C827 1.503 . S
C820 C819 1.410 . S
C820 C821 1.392 . S
C820 C823 1.511 . S
C821 C817 1.376 . S
C821 C820 1.392 . S
C821 H833 0.929 . S
C822 C818 1.531 . S
C822 H834 0.960 . S
C822 H835 0.962 1_554 S
C822 H836 0.960 . S
C823 C820 1.511 . S
C823 H837 0.961 . S
C823 H838 0.961 . S
C823 H839 0.961 . S
C824 C825 1.370 1_556 S
C824 C826 1.363 . S
C824 H840 0.931 . S
C825 C824 1.370 1_554 S
C825 C829 1.408 . S
C826 C824 1.363 . S
C826 C827 1.370 1_556 S
C826 C830 1.524 . S
C827 C819 1.503 . S
C827 C826 1.370 1_554 S
C827 C828 1.403 . S
C828 C827 1.403 . S
C828 C829 1.404 . S
C828 C831 1.539 . S
C829 C825 1.408 . S
C829 C828 1.404 . S
C829 H841 0.930 . S
C830 C826 1.524 . S
C830 H842 0.956 . S
C830 H843 0.961 . S
C830 H844 0.961 . S
C831 C828 1.539 . S
C831 H845 0.958 . S
C831 H846 0.961 . S
C831 H847 0.960 . S
H832 C816 0.931 . S
H833 C821 0.929 . S
H834 C822 0.960 . S
H835 C822 0.962 1_556 S
H836 C822 0.960 . S
H837 C823 0.961 . S
H838 C823 0.961 . S
H839 C823 0.961 . S
H840 C824 0.931 . S
H841 C829 0.930 . S
H842 C830 0.956 . S
H843 C830 0.961 . S
H844 C830 0.961 . S
H845 C831 0.958 . S
H846 C831 0.961 . S
H847 C831 0.960 . S
C848 C849 1.391 . S
C848 C850 1.394 . S
C848 H864 0.931 . S
C849 C848 1.391 . S
C849 C853 1.376 . S
C850 C848 1.394 . S
C850 C851 1.369 . S
C850 C854 1.531 . S
C851 C850 1.369 . S
C851 C852 1.410 1_556 S
C851 C859 1.503 . S
C852 C851 1.410 1_554 S
C852 C853 1.392 1_554 S
C852 C855 1.511 . S
C853 C849 1.376 . S
C853 C852 1.392 1_556 S
C853 H865 0.929 1_556 S
C854 C850 1.531 . S
C854 H866 0.960 . S
C854 H867 0.962 . S
C854 H868 0.960 . S
C855 C852 1.511 . S
C855 H869 0.961 . S
C855 H870 0.961 1_554 S
C855 H871 0.961 . S
C856 C857 1.370 . S
C856 C858 1.363 . S
C856 H872 0.931 . S
C857 C856 1.370 . S
C857 C861 1.408 1_556 S
C858 C856 1.363 . S
C858 C859 1.370 . S
C858 C862 1.524 . S
C859 C851 1.503 . S
C859 C858 1.370 . S
C859 C860 1.403 1_556 S
C860 C859 1.403 1_554 S
C860 C861 1.404 . S
C860 C863 1.539 . S
C861 C857 1.408 1_554 S
C861 C860 1.404 . S
C861 H873 0.930 . S
C862 C858 1.524 . S
C862 H874 0.956 . S
C862 H875 0.961 . S
C862 H876 0.961 . S
C863 C860 1.539 . S
C863 H877 0.958 . S
C863 H878 0.961 . S
C863 H879 0.960 . S
H864 C848 0.931 . S
H865 C853 0.929 1_554 S
H866 C854 0.960 . S
H867 C854 0.962 . S
H868 C854 0.960 . S
H869 C855 0.961 . S
H870 C855 0.961 1_556 S
H871 C855 0.961 . S
H872 C856 0.931 . S
H873 C861 0.930 . S
H874 C862 0.956 . S
H875 C862 0.961 . S
H876 C862 0.961 . S
H877 C863 0.958 . S
H878 C863 0.961 . S
H879 C863 0.960 . S
C880 C881 1.391 . S
C880 C882 1.394 . S
C880 H896 0.931 . S
C881 C880 1.391 . S
C881 C885 1.376 . S
C882 C880 1.394 . S
C882 C883 1.369 . S
C882 C886 1.531 . S
C883 C882 1.369 . S
C883 C884 1.410 . S
C883 C891 1.503 1_565 S
C884 C883 1.410 . S
C884 C885 1.392 . S
C884 C887 1.478 1_565 S
C885 C881 1.376 . S
C885 C884 1.392 . S
C885 H897 0.929 . S
C886 C882 1.531 . S
C886 H898 0.960 . S
C886 H899 0.962 . S
C886 H900 0.960 . S
C887 C884 1.478 1_545 S
C887 H901 0.961 . S
C887 H902 1.022 . S
C887 H903 0.938 1_545 S
C888 C889 1.370 . S
C888 C890 1.363 . S
C888 H904 0.931 . S
C889 C888 1.370 . S
C889 C893 1.408 . S
C890 C888 1.363 . S
C890 C891 1.370 . S
C890 C894 1.524 . S
C891 C883 1.503 1_545 S
C891 C890 1.370 . S
C891 C892 1.403 . S
C892 C891 1.403 . S
C892 C893 1.404 . S
C892 C895 1.539 1_545 S
C893 C889 1.408 . S
C893 C892 1.404 . S
C893 H905 0.930 . S
C894 C890 1.524 . S
C894 H906 0.956 . S
C894 H907 0.961 . S
C894 H908 0.961 . S
C895 C892 1.539 1_565 S
C895 H909 0.958 . S
C895 H910 0.961 . S
C895 H911 0.960 . S
H896 C880 0.931 . S
H897 C885 0.929 . S
H898 C886 0.960 . S
H899 C886 0.962 . S
H900 C886 0.960 . S
H901 C887 0.961 . S
H902 C887 1.022 . S
H903 C887 0.938 1_565 S
H904 C888 0.931 . S
H905 C893 0.930 . S
H906 C894 0.956 . S
H907 C894 0.961 . S
H908 C894 0.961 . S
H909 C895 0.958 . S
H910 C895 0.961 . S
H911 C895 0.960 . S
C912 C913 1.391 . S
C912 C914 1.394 . S
C912 H928 0.931 . S
C913 C912 1.391 . S
C913 C917 1.376 . S
C914 C912 1.394 . S
C914 C915 1.369 . S
C914 C918 1.531 1_545 S
C915 C914 1.369 . S
C915 C916 1.410 . S
C915 C923 1.503 1_546 S
C916 C915 1.410 . S
C916 C917 1.392 . S
C916 C919 1.511 1_556 S
C917 C913 1.376 . S
C917 C916 1.392 . S
C917 H929 0.929 . S
C918 C914 1.531 1_565 S
C918 H930 0.960 . S
C918 H931 0.962 . S
C918 H932 0.960 . S
C919 C916 1.511 1_554 S
C919 H933 0.961 . S
C919 H934 0.961 . S
C919 H935 0.961 1_554 S
C920 C921 1.370 . S
C920 C922 1.363 . S
C920 H936 0.931 . S
C921 C920 1.370 . S
C921 C925 1.408 . S
C922 C920 1.363 . S
C922 C923 1.370 . S
C922 C926 1.524 1_565 S
C923 C915 1.503 1_564 S
C923 C922 1.370 . S
C923 C924 1.403 1_554 S
C924 C923 1.403 1_556 S
C924 C925 1.404 1_556 S
C924 C927 1.539 . S
C925 C921 1.408 . S
C925 C924 1.404 1_554 S
C925 H937 0.930 . S
C926 C922 1.524 1_545 S
C926 H938 0.956 . S
C926 H939 0.961 . S
C926 H940 0.961 . S
C927 C924 1.539 . S
C927 H941 0.958 . S
C927 H942 0.961 . S
C927 H943 0.960 . S
H928 C912 0.931 . S
H929 C917 0.929 . S
H930 C918 0.960 . S
H931 C918 0.962 . S
H932 C918 0.960 . S
H933 C919 0.961 . S
H934 C919 0.961 . S
H935 C919 0.961 1_556 S
H936 C920 0.931 . S
H937 C925 0.930 . S
H938 C926 0.956 . S
H939 C926 0.961 . S
H940 C926 0.961 . S
H941 C927 0.958 . S
H942 C927 0.961 . S
H943 C927 0.960 . S
C177 C106 1.639 . S
C185 C7 1.659 . S
C209 C16 1.358 . S
C217 C161 1.651 . S
C241 C95 1.477 . S
C249 C27 1.230 . S
C273 C38 1.370 . S
C281 C170 1.236 . S
C305 C51 1.643 . S
C313 C115 1.355 . S
C337 C148 1.257 . S
C345 C62 1.464 . S
C369 C126 1.382 . S
C377 C71 1.231 . S
C401 C139 1.662 . S
C409 C84 1.654 . S
C433 C49 1.330 . S
C441 C40 1.495 . S
C465 C137 1.413 . S
C473 C93 1.206 . S
C497 C73 1.547 . S
C505 C18 1.573 . S
C529 C150 1.550 . S
C537 C104 1.544 1_554 S
C561 C5 1.391 . S
C569 C60 1.248 . S
C593 C172 1.599 . S
C601 C117 1.571 . S
C625 C82 1.587 . S
C633 C29 1.585 . S
C657 C128 1.481 . S
C665 C159 1.355 . S
C689 C8 1.614 . S
C697 C52 1.629 . S
C721 C19 1.543 . S
C729 C63 1.547 . S
C753 C30 1.547 . S
C761 C74 1.588 . S
C785 C41 1.583 . S
C793 C85 1.585 . S
C817 C96 1.575 . S
C825 C118 1.574 . S
C849 C129 1.586 . S
C857 C107 1.589 . S
C881 C162 1.615 . S
C889 C140 1.628 . S
C913 C173 1.599 . S
C921 C151 1.570 . S
