# Generated by pormake.
# Topology sxb, (6)-cn, num edge types: 1
# Building blocks:
#     Node 0, Type 0, BuildingBlock: KUMBOL_clean_sbu_1, # of connection points: 6
#     Node 1, Type 0, BuildingBlock: KUMBOL_clean_sbu_1, # of connection points: 6
#     Node 2, Type 0, BuildingBlock: KUMBOL_clean_sbu_1, # of connection points: 6
#     Node 3, Type 0, BuildingBlock: KUMBOL_clean_sbu_1, # of connection points: 6
#     Edge 4, Type (0, 0), BuildingBlock: KIFKEQ_clean_linker_1, # of connection points: 2
#     Edge 5, Type (0, 0), BuildingBlock: KIFKEQ_clean_linker_1, # of connection points: 2
#     Edge 6, Type (0, 0), BuildingBlock: KIFKEQ_clean_linker_1, # of connection points: 2
#     Edge 7, Type (0, 0), BuildingBlock: KIFKEQ_clean_linker_1, # of connection points: 2
#     Edge 8, Type (0, 0), BuildingBlock: KIFKEQ_clean_linker_1, # of connection points: 2
#     Edge 9, Type (0, 0), BuildingBlock: KIFKEQ_clean_linker_1, # of connection points: 2
#     Edge 10, Type (0, 0), BuildingBlock: KIFKEQ_clean_linker_1, # of connection points: 2
#     Edge 11, Type (0, 0), BuildingBlock: KIFKEQ_clean_linker_1, # of connection points: 2
#     Edge 12, Type (0, 0), BuildingBlock: KIFKEQ_clean_linker_1, # of connection points: 2
#     Edge 13, Type (0, 0), BuildingBlock: KIFKEQ_clean_linker_1, # of connection points: 2
#     Edge 14, Type (0, 0), BuildingBlock: KIFKEQ_clean_linker_1, # of connection points: 2
#     Edge 15, Type (0, 0), BuildingBlock: KIFKEQ_clean_linker_1, # of connection points: 2
# Relax obj value: 0.014
# Max RMSD: 0.058
# Mean RMSD: 0.058
data_MOF--net-sxb--node1-KUMBOL_clean_sbu_1--edge1-KIFKEQ_clean_linker_1
_symmetry_space_group_name_H-M    P1
_symmetry_Int_Tables_number       1
_symmetry_cell_setting            triclinic
loop_
_symmetry_equiv_pos_as_xyz
'x, y, z'
_cell_length_a     15.356301
_cell_length_b     47.835432
_cell_length_c     30.127742
_cell_angle_alpha  114.28309
_cell_angle_beta   89.878229
_cell_angle_gamma 90.312071
loop_
_atom_site_label
_atom_site_type_symbol
_atom_site_fract_x
_atom_site_fract_y
_atom_site_fract_z
_atom_type_partial_charge
C0 C 0.17239 0.09076 0.09295 0.0
C1 C 0.28851 0.09353 0.03986 0.0
C2 C 0.20386 0.08427 0.0463 0.0
C3 C 0.341 0.10942 0.08075 0.0
C4 C 0.22499 0.10675 0.13402 0.0
C5 C 0.30933 0.11604 0.12766 0.0
N6 N 0.09118 0.08092 0.09808 0.0
C7 C 0.05746 0.08718 0.14307 0.0
C8 C 0.19141 0.11278 0.18031 0.0
C9 C 0.1072 0.10306 0.18483 0.0
Gd10 Gd 1.01109 0.96231 0.96489 0.0
Gd11 Gd 1.01453 0.05453 0.02567 0.0
N12 N 0.15286 0.06778 0.00719 0.0
C13 C 0.31819 0.08626 0.99243 0.0
C14 C 0.18002 0.0617 0.96104 0.0
C15 C 0.26343 0.07051 0.95291 0.0
H16 H 0.13762 0.05014 0.93048 0.0
H17 H 0.28536 0.06522 0.91618 0.0
H18 H 0.87528 0.96325 0.05259 0.0
H19 H 0.99176 0.08033 0.14693 0.0
H20 H 0.73183 0.94163 0.05911 0.0
H21 H 0.38296 0.09289 0.98596 0.0
H22 H 0.40635 0.11662 0.07648 0.0
H23 H 0.05672 0.93574 0.84552 0.0
H24 H 0.2298 0.12503 0.21276 0.0
H25 H 0.08044 0.10789 0.22049 0.0
H26 H 0.64625 0.88313 0.89301 0.0
H27 H 0.35072 0.12828 0.1588 0.0
H28 H 0.8407 0.88092 0.76687 0.0
H29 H 0.98566 0.90389 0.76739 0.0
N30 N 0.95088 0.93223 0.88861 0.0
C31 C 0.87199 0.91936 0.88923 0.0
C32 C 0.99236 0.92657 0.84569 0.0
C33 C 0.87103 0.89522 0.80126 0.0
C34 C 0.95278 0.90822 0.80139 0.0
C35 C 0.8298 0.90054 0.8455 0.0
H36 H 0.71477 0.87311 0.81403 0.0
N37 N 0.87409 0.94413 0.97532 0.0
C38 C 0.83314 0.92502 0.93383 0.0
C39 C 0.71445 0.91833 0.98142 0.0
C40 C 0.75147 0.91197 0.93577 0.0
C41 C 0.84018 0.94942 0.01993 0.0
C42 C 0.75931 0.93697 0.02366 0.0
O43 O 0.13552 0.02795 0.03019 0.0
O44 O 0.1371 0.98474 0.95862 0.0
O45 O 0.05234 0.93605 0.00496 0.0
O46 O 0.07431 0.91811 0.92726 0.0
O47 O 0.97862 0.02907 0.94624 0.0
O48 O 0.06147 0.98531 0.91788 0.0
O49 O 0.88168 0.98569 0.96469 0.0
O50 O 0.88211 0.03428 0.02794 0.0
O51 O 0.98879 0.08637 0.99297 0.0
O52 O 0.9545 0.09873 0.06829 0.0
O53 O 0.03437 0.98871 0.04587 0.0
O54 O 0.95558 0.03356 0.07341 0.0
C55 C 0.17807 1.00595 0.9953 0.0
C56 C 1.01875 1.00683 0.91076 0.0
C57 C 0.17151 0.903 0.97423 0.0
C58 C 0.25801 0.86473 0.9885 0.0
C59 C 0.32632 0.91127 0.99041 0.0
C60 C 0.2463 0.92114 0.98032 0.0
C61 C 0.33221 0.88335 0.99482 0.0
C62 C 0.17773 0.8747 0.97787 0.0
C63 C 0.08571 0.91397 0.96696 0.0
C64 C 0.7092 0.89327 0.89226 0.0
C65 C 0.7482 0.8876 0.84727 0.0
H66 H 0.65167 0.90881 0.98445 0.0
C67 C 0.84115 1.01043 0.99526 0.0
C68 C 0.98801 1.01001 0.07956 0.0
C69 C 0.86808 0.1184 0.02264 0.0
C70 C 0.78792 0.15772 0.00769 0.0
C71 C 0.71571 0.11041 -0.00052 0.0
C72 C 0.79294 0.10004 0.01172 0.0
C73 C 0.71317 0.13897 0.99717 0.0
C74 C 0.86523 0.14734 0.02096 0.0
C75 C 0.95129 0.1065 0.03161 0.0
H76 H 0.38383 0.92541 0.99521 0.0
H77 H 0.24255 0.94299 0.97777 0.0
H78 H 0.39487 0.87619 0.00281 0.0
H79 H 0.11964 0.86087 0.97379 0.0
H80 H 0.65797 0.09608 0.99108 0.0
H81 H 0.79458 0.0775 0.01181 0.0
H82 H 0.65271 0.14645 0.98719 0.0
H83 H 0.92385 0.16126 0.02826 0.0
C84 C 0.20551 0.93779 0.43268 0.0
C85 C 0.27636 0.93276 0.50099 0.0
C86 C 0.20336 0.94116 0.48092 0.0
C87 C 0.35165 0.92184 0.47264 0.0
C88 C 0.28046 0.92636 0.40392 0.0
C89 C 0.35361 0.91857 0.42426 0.0
N90 N 0.13541 0.94689 0.41449 0.0
C91 C 0.13382 0.94379 0.36743 0.0
C92 C 0.28017 0.92365 0.35581 0.0
C93 C 0.20641 0.93227 0.33744 0.0
Gd94 Gd 1.01367 0.05837 0.5276 0.0
Gd95 Gd 1.01632 0.96439 0.46674 0.0
N96 N 0.12988 0.95219 0.50789 0.0
C97 C 0.27103 0.93504 0.54872 0.0
C98 C 0.12202 0.95182 0.55277 0.0
C99 C 0.19299 0.94409 0.57438 0.0
H100 H 0.06047 0.95632 0.57147 0.0
H101 H 0.18683 0.94448 0.61044 0.0
H102 H 0.88251 0.06518 0.44464 0.0
H103 H 0.07657 0.95031 0.35322 0.0
H104 H 0.7428 0.09028 0.44229 0.0
H105 H 0.32568 0.92883 0.56544 0.0
H106 H 0.40847 0.91553 0.48765 0.0
H107 H 0.06546 0.08156 0.64566 0.0
H108 H 0.33657 0.91499 0.33259 0.0
H109 H 0.2055 0.93008 0.30023 0.0
H110 H 0.65985 0.14133 0.61052 0.0
H111 H 0.41212 0.91004 0.40288 0.0
H112 H 0.85447 0.13544 0.73068 0.0
H113 H 0.99832 0.11128 0.72583 0.0
N114 N 0.95778 0.08691 0.60563 0.0
C115 C 0.88002 0.10077 0.60746 0.0
C116 C 1.00133 0.0911 0.64735 0.0
C117 C 0.88288 0.12195 0.69539 0.0
C118 C 0.96403 0.10829 0.69281 0.0
C119 C 0.84033 0.11864 0.65244 0.0
H120 H 0.72868 0.14667 0.68734 0.0
N121 N 0.88018 0.07991 0.52143 0.0
C122 C 0.84092 0.09772 0.56418 0.0
C123 C 0.72549 0.10938 0.52018 0.0
C124 C 0.76159 0.11252 0.56467 0.0
C125 C 0.84799 0.07809 0.47809 0.0
C126 C 0.76936 0.09234 0.47675 0.0
O127 O 0.13125 0.99384 0.46163 0.0
O128 O 0.13635 0.03498 0.53528 0.0
O129 O 0.06713 0.08214 0.48599 0.0
O130 O 0.07538 0.10321 0.56456 0.0
O131 O 0.97222 0.98904 0.54513 0.0
O132 O 0.05651 0.03278 0.57204 0.0
O133 O 0.87931 0.03609 0.51591 0.0
O134 O 0.87885 0.98246 0.48017 0.0
O135 O 0.97977 0.92213 0.47471 0.0
O136 O 0.96844 0.92502 0.40438 0.0
O137 O 1.0327 0.03202 0.44668 0.0
O138 O 0.95934 0.98557 0.41882 0.0
C139 C 0.17621 0.01353 0.49853 0.0
C140 C 1.00771 0.01289 0.58057 0.0
C141 C 0.17982 0.11829 0.52023 0.0
C142 C 0.26547 0.15852 0.50986 0.0
C143 C 0.33615 0.11283 0.50908 0.0
C144 C 0.2559 0.10137 0.51619 0.0
C145 C 0.34101 0.14108 0.50559 0.0
C146 C 0.18494 0.14695 0.51755 0.0
C147 C 0.09386 0.10576 0.52418 0.0
C148 C 0.72114 0.12994 0.60937 0.0
C149 C 0.76031 0.13294 0.65313 0.0
H150 H 0.66451 0.12034 0.51902 0.0
C151 C 0.8392 1.00922 0.49871 0.0
C152 C 0.98619 1.01024 0.41361 0.0
C153 C 0.9272 0.8761 0.40545 0.0
C154 C 0.87098 0.82894 0.40958 0.0
C155 C 0.89832 0.83089 0.33115 0.0
C156 C 0.92563 0.86128 0.35441 0.0
C157 C 0.87173 0.81479 0.35829 0.0
C158 C 0.89973 0.85981 0.43302 0.0
C159 C 0.95924 0.90823 0.42885 0.0
H160 H 0.39474 0.09964 0.50584 0.0
H161 H 0.25301 0.07924 0.51796 0.0
H162 H 0.40393 0.14942 0.49991 0.0
H163 H 0.12585 0.15982 0.52 0.0
H164 H 0.89843 0.81962 0.29177 0.0
H165 H 0.94664 0.87307 0.33227 0.0
H166 H 0.85303 0.79098 0.3388 0.0
H167 H 0.89972 0.87126 0.47239 0.0
C168 C 0.69608 0.60367 0.11101 0.0
C169 C 0.81563 0.61141 0.06422 0.0
C170 C 0.73363 0.59862 0.06631 0.0
C171 C 0.85957 0.62921 0.10763 0.0
C172 C 0.73985 0.62165 0.15465 0.0
C173 C 0.82182 0.6343 0.1527 0.0
N174 N 0.61682 0.59106 0.1118 0.0
C175 C 0.57644 0.59626 0.15485 0.0
C176 C 0.69979 0.62644 0.19898 0.0
C177 C 0.61759 0.61379 0.19906 0.0
Gd178 Gd 0.54735 0.46984 0.97358 0.0
Gd179 Gd 0.55445 0.56199 0.03567 0.0
N180 N 0.69105 0.58034 0.02483 0.0
C181 C 0.85126 0.60572 0.01849 0.0
C182 C 0.72357 0.5758 0.98024 0.0
C183 C 0.80469 0.58804 0.97635 0.0
H184 H 0.68721 0.56275 0.94768 0.0
H185 H 0.83104 0.58396 0.94088 0.0
H186 H 0.44095 0.47252 0.07368 0.0
H187 H 0.51179 0.58736 0.15518 0.0
H188 H 0.29541 0.45985 0.09462 0.0
H189 H 0.91423 0.61507 0.01534 0.0
H190 H 0.92281 0.63913 0.10675 0.0
H191 H 0.5476 0.44787 0.85251 0.0
H192 H 0.73135 0.64009 0.23331 0.0
H193 H 0.58559 0.61774 0.23315 0.0
H194 H 0.14597 0.41534 0.94143 0.0
H195 H 0.85649 0.64812 0.18587 0.0
H196 H 0.29834 0.4082 0.79822 0.0
H197 H 0.44594 0.42368 0.7837 0.0
N198 N 0.45741 0.4469 0.9055 0.0
C199 C 0.37733 0.4379 0.91427 0.0
C200 C 0.48284 0.44169 0.85937 0.0
C201 C 0.34254 0.4189 0.82861 0.0
C202 C 0.42572 0.42772 0.82027 0.0
C203 C 0.31736 0.42394 0.876 0.0
H204 H 0.18709 0.40514 0.85726 0.0
N205 N 0.41207 0.45831 0.99863 0.0
C206 C 0.35407 0.44368 0.96205 0.0
C207 C 0.24893 0.4419 0.02065 0.0
C208 C 0.2704 0.43555 0.97229 0.0
C209 C 0.39291 0.46321 0.04545 0.0
C210 C 0.31076 0.45551 0.05728 0.0
O211 O 0.68402 0.53834 0.0336 0.0
O212 O 0.68244 0.48884 0.97248 0.0
O213 O 0.57835 0.43562 0.00112 0.0
O214 O 0.59593 0.4251 0.92472 0.0
O215 O 0.53539 0.53668 0.95414 0.0
O216 O 0.60868 0.49048 0.92604 0.0
O217 O 0.43045 0.49816 0.96894 0.0
O218 O 0.4286 0.53959 0.04238 0.0
O219 O 0.50149 0.58718 0.99618 0.0
O220 O 0.50048 0.60746 0.07496 0.0
O221 O 0.58624 0.49412 0.05282 0.0
O222 O 0.50479 0.53817 0.08149 0.0
C223 C 0.7238 0.51319 0.00384 0.0
C224 C 0.5794 0.51458 0.92027 0.0
C225 C 0.68933 0.40069 0.96018 0.0
C226 C 0.76825 0.35903 0.96961 0.0
C227 C 0.84676 0.39859 0.9541 0.0
C228 C 0.76847 0.41299 0.95319 0.0
C229 C 0.84686 0.37177 0.96197 0.0
C230 C 0.68944 0.37391 0.96875 0.0
C231 C 0.60624 0.4157 0.95927 0.0
C232 C 0.21066 0.42161 0.93417 0.0
C233 C 0.23409 0.4158 0.88621 0.0
H234 H 0.18524 0.43608 0.03001 0.0
C235 C 0.38734 0.51917 0.00492 0.0
C236 C 0.54996 0.51722 0.0888 0.0
C237 C 0.39199 0.6236 0.03529 0.0
C238 C 0.30412 0.66436 0.0287 0.0
C239 C 0.23529 0.62314 0.04427 0.0
C240 C 0.3164 0.60988 0.04344 0.0
C241 C 0.22902 0.65022 0.03728 0.0
C242 C 0.38559 0.65052 0.02747 0.0
C243 C 0.47846 0.61061 0.03559 0.0
H244 H 0.90764 0.40813 0.94835 0.0
H245 H 0.76951 0.43363 0.94683 0.0
H246 H 0.90862 0.3608 0.96129 0.0
H247 H 0.62805 0.36495 0.97522 0.0
H248 H 0.17707 0.61257 0.05089 0.0
H249 H 0.32023 0.58913 0.0495 0.0
H250 H 0.16534 0.6603 0.03949 0.0
H251 H 0.44445 0.66052 0.02021 0.0
C252 C 0.69544 0.42358 0.39523 0.0
C253 C 0.80966 0.41145 0.44009 0.0
C254 C 0.73125 0.42639 0.43921 0.0
C255 C 0.85258 0.39415 0.39616 0.0
C256 C 0.73755 0.40576 0.35101 0.0
C257 C 0.81672 0.39136 0.35176 0.0
N258 N 0.61837 0.43755 0.39561 0.0
C259 C 0.57763 0.43332 0.35309 0.0
C260 C 0.69812 0.40256 0.3073 0.0
C261 C 0.61746 0.41619 0.30836 0.0
Gd262 Gd 0.55783 0.55986 0.53234 0.0
Gd263 Gd 0.5584 0.46594 0.47267 0.0
N264 N 0.68981 0.44412 0.48127 0.0
C265 C 0.84242 0.41434 0.48515 0.0
C266 C 0.71864 0.44568 0.52509 0.0
C267 C 0.79621 0.43127 0.52777 0.0
H268 H 0.68226 0.45845 0.55789 0.0
H269 H 0.82012 0.4331 0.56264 0.0
H270 H 0.50958 0.56701 0.4274 0.0
H271 H 0.51371 0.44272 0.35352 0.0
H272 H 0.38193 0.57924 0.38977 0.0
H273 H 0.90258 0.40325 0.48737 0.0
H274 H 0.91325 0.38267 0.3961 0.0
H275 H 0.50228 0.57495 0.64688 0.0
H276 H 0.72848 0.3891 0.27256 0.0
H277 H 0.58545 0.4132 0.27472 0.0
H278 H 0.16586 0.6104 0.51574 0.0
H279 H 0.85019 0.37769 0.31815 0.0
H280 H 0.24354 0.6114 0.67039 0.0
H281 H 0.37559 0.59589 0.70135 0.0
N282 N 0.44123 0.57832 0.58612 0.0
C283 C 0.37057 0.5876 0.56864 0.0
C284 C 0.44458 0.5816 0.63323 0.0
C285 C 0.29894 0.6024 0.64649 0.0
C286 C 0.37326 0.59354 0.66408 0.0
C287 C 0.29684 0.59948 0.59828 0.0
H288 H 0.1655 0.61639 0.60079 0.0
N289 N 0.44309 0.57244 0.49242 0.0
C290 C 0.37085 0.58397 0.52027 0.0
C291 C 0.30057 0.5898 0.45289 0.0
C292 C 0.2972 0.59252 0.50091 0.0
C293 C 0.44901 0.57217 0.44706 0.0
C294 C 0.37732 0.58007 0.42616 0.0
O295 O 0.6934 0.48785 0.48665 0.0
O296 O 0.69441 0.5413 0.51601 0.0
O297 O 0.59306 0.60196 0.52388 0.0
O298 O 0.61204 0.5987 0.59353 0.0
O299 O 0.53977 0.49236 0.55352 0.0
O300 O 0.61367 0.53875 0.58068 0.0
O301 O 0.44202 0.53082 0.53769 0.0
O302 O 0.43718 0.48969 0.46404 0.0
O303 O 0.49292 0.44344 0.51328 0.0
O304 O 0.5043 0.42009 0.43501 0.0
O305 O 0.60116 0.53488 0.45394 0.0
O306 O 0.51715 0.49104 0.42716 0.0
C307 C 0.7338 0.51456 0.50072 0.0
C308 C 0.5857 0.5144 0.5865 0.0
C309 C 0.65517 0.64712 0.59077 0.0
C310 C 0.71206 0.69322 0.58382 0.0
C311 C 0.71422 0.68937 0.66178 0.0
C312 C 0.67605 0.66033 0.6406 0.0
C313 C 0.73271 0.70561 0.63364 0.0
C314 C 0.67221 0.66396 0.5625 0.0
C315 C 0.61968 0.61539 0.56879 0.0
C316 C 0.22317 0.60395 0.53018 0.0
C317 C 0.22307 0.60749 0.57871 0.0
H318 H 0.24535 0.59611 0.43669 0.0
C319 C 0.3971 0.51107 0.5008 0.0
C320 C 0.56578 0.51096 0.41861 0.0
C321 C 0.39007 0.40413 0.47229 0.0
C322 C 0.30445 0.36149 0.47543 0.0
C323 C 0.23435 0.40195 0.4589 0.0
C324 C 0.31439 0.41671 0.46238 0.0
C325 C 0.22927 0.37452 0.46505 0.0
C326 C 0.38481 0.37682 0.47923 0.0
C327 C 0.47576 0.41859 0.47466 0.0
H328 H 0.7302 0.69923 0.70017 0.0
H329 H 0.66362 0.6481 0.6633 0.0
H330 H 0.76274 0.72808 0.65093 0.0
H331 H 0.65701 0.65407 0.52397 0.0
H332 H 0.17601 0.41163 0.45091 0.0
H333 H 0.31738 0.43775 0.45702 0.0
H334 H 0.16647 0.36333 0.4608 0.0
H335 H 0.4437 0.3677 0.48785 0.0
H336 H 0.41991 0.71279 0.05787 0.0
H337 H 0.17348 0.68267 0.98402 0.0
H338 H 0.41056 0.75977 0.0459 0.0
H339 H 0.16049 0.73087 0.97584 0.0
H340 H 0.19695 0.8083 0.92672 0.0
H341 H 0.20975 0.75984 0.93495 0.0
H342 H 0.34219 0.80688 0.07264 0.0
H343 H 0.3328 0.85482 0.06279 0.0
C344 C 0.36361 0.71606 0.03901 0.0
C345 C 0.29766 0.69358 0.02183 0.0
C346 C 0.35744 0.74345 0.0329 0.0
C347 C 0.28444 0.74952 0.01011 0.0
C348 C 0.21837 0.72707 0.993 0.0
C349 C 0.22516 0.69946 0.99847 0.0
C350 C 0.22871 0.80816 0.95869 0.0
C351 C 0.26418 0.83529 0.99399 0.0
C352 C 0.23574 0.78039 0.96365 0.0
C353 C 0.27716 0.77914 0.00452 0.0
C354 C 0.31162 0.80655 0.04009 0.0
C355 C 0.30585 0.83417 0.03467 0.0
H356 H 0.64869 0.31177 0.93843 0.0
H357 H 0.88922 0.34052 0.01915 0.0
H358 H 0.65106 0.26459 0.95038 0.0
H359 H 0.89522 0.29228 0.02772 0.0
H360 H 0.8453 0.21382 0.07313 0.0
H361 H 0.83728 0.26289 0.06634 0.0
H362 H 0.72034 0.2173 0.92379 0.0
H363 H 0.72516 0.16876 0.9319 0.0
C364 C 0.7021 0.30815 0.95884 0.0
C365 C 0.76884 0.33017 0.97766 0.0
C366 C 0.70427 0.28071 0.96501 0.0
C367 C 0.77381 0.27422 0.98967 0.0
C368 C 0.84005 0.2964 0.00894 0.0
C369 C 0.83732 0.324 0.0033 0.0
C370 C 0.81803 0.21442 0.0404 0.0
C371 C 0.78547 0.18751 0.00318 0.0
C372 C 0.81367 0.24252 0.03631 0.0
C373 C 0.77785 0.24433 0.99451 0.0
C374 C 0.74644 0.21716 0.95705 0.0
C375 C 0.74964 0.18921 0.9615 0.0
H376 H 0.34819 0.17077 0.43942 0.0
H377 H 0.19427 0.21357 0.56971 0.0
H378 H 0.35616 0.21921 0.431 0.0
H379 H 0.2054 0.2626 0.56303 0.0
H380 H 0.17109 0.34023 0.51507 0.0
H381 H 0.16009 0.29151 0.5218 0.0
H382 H 0.41788 0.26761 0.46032 0.0
H383 H 0.42568 0.31511 0.44968 0.0
C384 C 0.31691 0.19072 0.46664 0.0
C385 C 0.27063 0.18834 0.50523 0.0
C386 C 0.32184 0.21866 0.46205 0.0
C387 C 0.28184 0.24523 0.49642 0.0
C388 C 0.23581 0.24274 0.53521 0.0
C389 C 0.22969 0.21462 0.5393 0.0
C390 C 0.22501 0.32443 0.50216 0.0
C391 C 0.29918 0.33191 0.48156 0.0
C392 C 0.21929 0.29651 0.50684 0.0
C393 C 0.28805 0.27525 0.4917 0.0
C394 C 0.36269 0.28292 0.47172 0.0
C395 C 0.36789 0.31064 0.46639 0.0
H396 H 0.93407 0.831 0.49667 0.0
H397 H 0.74044 0.78567 0.38614 0.0
H398 H 0.89217 0.79896 0.53847 0.0
H399 H 0.70381 0.75202 0.42541 0.0
H400 H 0.60334 0.7109 0.52822 0.0
H401 H 0.63674 0.74542 0.48905 0.0
H402 H 0.90534 0.7498 0.53462 0.0
H403 H 0.86995 0.71671 0.57569 0.0
C404 C 0.88243 0.81431 0.48124 0.0
C405 C 0.84164 0.81088 0.43752 0.0
C406 C 0.85927 0.79543 0.50483 0.0
C407 C 0.79525 0.7723 0.48517 0.0
C408 C 0.7529 0.76952 0.44218 0.0
C409 C 0.77513 0.78865 0.41905 0.0
C410 C 0.66954 0.7191 0.52933 0.0
C411 C 0.73399 0.71116 0.55498 0.0
C412 C 0.68904 0.73891 0.50685 0.0
C413 C 0.77394 0.75088 0.50876 0.0
C414 C 0.83875 0.74196 0.53327 0.0
C415 C 0.81884 0.72263 0.55638 0.0
H416 H 0.28735 0.02936 0.07376 0.0
H417 H 0.28713 0.98498 0.91691 0.0
H418 H 0.44589 0.03035 0.07391 0.0
H419 H 0.44518 0.98767 0.91632 0.0
H420 H 0.73074 0.97056 0.92645 0.0
H421 H 0.57333 0.96848 0.9281 0.0
H422 H 0.57194 0.05133 0.06126 0.0
H423 H 0.73005 0.05112 0.06226 0.0
C424 C 0.32145 0.02002 0.03923 0.0
C425 C 0.27478 1.00682 0.99536 0.0
C426 C 0.41275 0.02083 0.03916 0.0
C427 C 0.46006 1.00902 0.99509 0.0
C428 C 0.41245 0.99628 0.95119 0.0
C429 C 0.32132 0.99487 0.95138 0.0
C430 C 0.69709 0.98789 0.95678 0.0
C431 C 0.7439 1.01056 0.99473 0.0
C432 C 0.6059 0.98714 0.95723 0.0
C433 C 0.5581 1.00975 0.99484 0.0
C434 C 0.60525 0.03298 0.03216 0.0
C435 C 0.69659 0.03316 0.0324 0.0
H436 H 0.28634 0.99336 0.41985 0.0
H437 H 0.28546 0.03217 0.57679 0.0
H438 H 0.44547 0.99144 0.41993 0.0
H439 H 0.44429 0.03034 0.5772 0.0
H440 H 0.7299 0.05222 0.56252 0.0
H441 H 0.57152 0.05371 0.56112 0.0
H442 H 0.56822 0.966 0.43719 0.0
H443 H 0.72748 0.96548 0.4372 0.0
C444 C 0.3202 1.0012 0.45437 0.0
C445 C 0.27317 0.01259 0.49826 0.0
C446 C 0.41157 1.00011 0.45449 0.0
C447 C 0.45848 1.01072 0.49859 0.0
C448 C 0.411 0.02235 0.54249 0.0
C449 C 0.31973 0.02334 0.54231 0.0
C450 C 0.69565 0.03361 0.53431 0.0
C451 C 0.74193 1.00914 0.49933 0.0
C452 C 0.60435 0.03413 0.53401 0.0
C453 C 0.55627 1.01001 0.49891 0.0
C454 C 0.60264 0.98525 0.46432 0.0
C455 C 0.69414 0.98478 0.46463 0.0
H456 H 0.83363 0.55184 0.07424 0.0
H457 H 0.83555 0.47451 0.93442 0.0
H458 H 0.99108 0.55428 0.07307 0.0
H459 H 0.99384 0.47445 0.93566 0.0
H460 H 0.27833 0.4983 0.92614 0.0
H461 H 0.11977 0.49678 0.92562 0.0
H462 H 0.11962 0.53435 0.08312 0.0
H463 H 0.27773 0.53748 0.08308 0.0
C464 C 0.86761 0.53518 0.04324 0.0
C465 C 0.8211 0.51315 0.00425 0.0
C466 C 0.9588 0.53615 0.04298 0.0
C467 C 1.00703 0.51448 0.00436 0.0
C468 C 0.9602 0.49199 0.96577 0.0
C469 C 0.86876 0.49159 0.96546 0.0
C470 C 0.24406 0.50641 0.96059 0.0
C471 C 0.29054 0.51828 0.00464 0.0
C472 C 0.15273 0.50528 0.96042 0.0
C473 C 0.10514 0.5155 0.00436 0.0
C474 C 0.15255 0.52698 0.0484 0.0
C475 C 0.24372 0.52866 0.04852 0.0
H476 H 0.28731 0.49038 0.4226 0.0
H477 H 0.28711 0.53295 0.57956 0.0
H478 H 0.1285 0.49191 0.42228 0.0
H479 H 0.12801 0.53466 0.57954 0.0
H480 H 0.84525 0.5592 0.56025 0.0
H481 H 1.00454 0.55886 0.56029 0.0
H482 H 1.00173 0.46932 0.44046 0.0
H483 H 0.84331 0.47061 0.43897 0.0
C484 C 0.25325 0.50001 0.45712 0.0
C485 C 0.30006 0.51186 0.50111 0.0
C486 C 0.16194 0.50082 0.45698 0.0
C487 C 0.11461 0.51343 0.50089 0.0
C488 C 0.16175 0.5252 0.54494 0.0
C489 C 0.25315 0.52426 0.54502 0.0
C490 C 0.87873 0.53951 0.53377 0.0
C491 C 0.83106 0.51459 0.50022 0.0
C492 C 0.97024 0.53917 0.53409 0.0
C493 C 1.01678 0.51396 0.50063 0.0
C494 C 0.9688 0.48925 0.46668 0.0
C495 C 0.87747 0.48965 0.46639 0.0
H496 H 0.10173 0.03598 0.37287 0.0
H497 H 0.86056 0.98458 0.34393 0.0
H498 H 0.09742 0.03538 0.29154 0.0
H499 H 0.85551 0.98475 0.26236 0.0
H500 H 0.86143 0.03445 0.14867 0.0
H501 H 0.85531 0.03375 0.22979 0.0
H502 H 0.09843 0.98471 0.20133 0.0
H503 H 0.1038 0.98464 0.12023 0.0
C504 C 0.04731 0.0248 0.3493 0.0
C505 C 0.98139 1.01028 0.36468 0.0
C506 C 0.04516 0.02441 0.30277 0.0
C507 C 0.97614 1.01008 0.27104 0.0
C508 C 0.90915 0.99604 0.28649 0.0
C509 C 0.9123 0.99582 0.33284 0.0
C510 C 0.91326 0.02345 0.1598 0.0
C511 C 0.98312 1.00966 0.12828 0.0
C512 C 0.90944 0.0229 0.20589 0.0
C513 C 0.97638 1.00915 0.22143 0.0
C514 C 0.04612 0.99543 0.18999 0.0
C515 C 0.04899 0.99537 0.14366 0.0
H516 H 0.89339 0.03097 0.87366 0.0
H517 H 0.13842 0.98285 0.83748 0.0
H518 H 0.88999 0.03257 0.79366 0.0
H519 H 0.13534 0.98483 0.7574 0.0
H520 H 0.87785 0.99391 0.62335 0.0
H521 H 0.88023 0.99184 0.70329 0.0
H522 H 0.14051 0.02968 0.72776 0.0
H523 H 0.13773 0.03214 0.64817 0.0
C524 C 0.94648 0.02071 0.84855 0.0
C525 C 1.01609 1.0067 0.86167 0.0
C526 C 0.94427 0.02153 0.80277 0.0
C527 C 1.01243 1.00888 0.76952 0.0
C528 C 0.08223 0.99489 0.78257 0.0
C529 C 0.08366 0.99356 0.82813 0.0
C530 C 0.93517 1.002 0.64606 0.0
C531 C 1.00721 0.01345 0.62992 0.0
C532 C 0.93652 1.00084 0.69167 0.0
C533 C 1.01068 1.0105 0.72148 0.0
C534 C 0.0828 0.02191 0.70529 0.0
C535 C 0.0808 0.02363 0.66008 0.0
H536 H 0.4362 0.4912 0.35079 0.0
H537 H 0.69492 0.53043 0.37605 0.0
H538 H 0.43295 0.49378 0.27133 0.0
H539 H 0.69201 0.53267 0.29627 0.0
H540 H 0.67845 0.49434 0.12585 0.0
H541 H 0.68358 0.49265 0.20583 0.0
H542 H 0.43539 0.53849 0.24221 0.0
H543 H 0.43055 0.54049 0.16222 0.0
C544 C 0.4928 0.49995 0.339 0.0
C545 C 0.56618 0.51038 0.36925 0.0
C546 C 0.49052 0.50174 0.29386 0.0
C547 C 0.56213 0.51351 0.27786 0.0
C548 C 0.63613 0.52339 0.30773 0.0
C549 C 0.63777 0.52213 0.35326 0.0
C550 C 0.62522 0.50419 0.15105 0.0
C551 C 0.55424 0.51764 0.13801 0.0
C552 C 0.62836 0.50332 0.19678 0.0
C553 C 0.5598 0.51536 0.23001 0.0
C554 C 0.48881 0.52888 0.21705 0.0
C555 C 0.48639 0.53025 0.17157 0.0
H556 H 0.46915 0.48922 0.62747 0.0
H557 H 0.71132 0.54006 0.65627 0.0
H558 H 0.47306 0.48986 0.70879 0.0
H559 H 0.71589 0.53994 0.73791 0.0
H560 H 0.70556 0.48924 0.85113 0.0
H561 H 0.71332 0.49016 0.77015 0.0
H562 H 0.47361 0.54118 0.79904 0.0
H563 H 0.46662 0.54102 0.87992 0.0
C564 C 0.52368 0.5003 0.65102 0.0
C565 C 0.59003 0.51463 0.6356 0.0
C566 C 0.52562 0.5007 0.69753 0.0
C567 C 0.5948 0.51486 0.72921 0.0
C568 C 0.66215 0.52876 0.71378 0.0
C569 C 0.65925 0.52898 0.66741 0.0
C570 C 0.65487 0.50073 0.84012 0.0
C571 C 0.58549 0.51502 0.87167 0.0
C572 C 0.65967 0.50142 0.79413 0.0
C573 C 0.59413 0.51581 0.7788 0.0
C574 C 0.52489 0.53002 0.81028 0.0
C575 C 0.52108 0.52993 0.85648 0.0
loop_
_geom_bond_atom_site_label_1
_geom_bond_atom_site_label_2
_geom_bond_distance
_geom_bond_site_symmetry_2
_ccdc_geom_bond_type
C0 C2 1.422 . S
C0 C4 1.415 . S
C0 N6 1.369 . S
C1 C2 1.421 . S
C1 C3 1.417 . S
C1 C13 1.442 . S
C2 C0 1.422 . S
C2 C1 1.421 . S
C2 N12 1.359 . S
C3 C1 1.417 . S
C3 C5 1.329 . S
C3 H22 0.930 . S
C4 C0 1.415 . S
C4 C5 1.437 . S
C4 C8 1.413 . S
C5 C3 1.329 . S
C5 C4 1.437 . S
C5 H27 0.929 . S
N6 C0 1.369 . S
N6 C7 1.338 . S
N6 Gd11 2.622 . S
C7 N6 1.338 . S
C7 C9 1.378 . S
C7 H19 0.929 . S
C8 C4 1.413 . S
C8 C9 1.348 . S
C8 H24 0.931 . S
C9 C7 1.378 . S
C9 C8 1.348 . S
C9 H25 0.930 . S
Gd10 N30 2.622 . S
Gd10 N37 2.570 . S
Gd10 O44 2.353 1_655 S
Gd10 O45 2.468 1_655 S
Gd10 O46 2.427 1_655 S
Gd10 O48 2.388 1_655 S
Gd10 O49 2.386 . S
Gd10 O53 2.307 1_556 S
Gd10 C63 2.805 1_655 S
Gd11 N6 2.622 . S
Gd11 N12 2.570 . S
Gd11 O43 2.386 . S
Gd11 O47 2.307 1_554 S
Gd11 O50 2.353 1_455 S
Gd11 O51 2.468 1_455 S
Gd11 O52 2.427 1_455 S
Gd11 O54 2.388 1_455 S
Gd11 C75 2.805 1_455 S
N12 C2 1.359 . S
N12 Gd11 2.570 . S
N12 C14 1.343 1_554 S
C13 C1 1.442 . S
C13 C15 1.310 1_554 S
C13 H21 0.922 1_554 S
C14 N12 1.343 1_556 S
C14 C15 1.390 . S
C14 H16 0.931 . S
C15 C13 1.310 1_556 S
C15 C14 1.390 . S
C15 H17 0.930 . S
H16 C14 0.931 . S
H17 C15 0.930 . S
H18 C41 0.931 . S
H19 C7 0.929 . S
H20 C42 0.930 . S
H21 C13 0.922 1_556 S
H22 C3 0.930 . S
H23 C32 0.929 . S
H24 C8 0.931 . S
H25 C9 0.930 . S
H26 C64 0.930 . S
H27 C5 0.929 . S
H28 C33 0.931 . S
H29 C34 0.930 . S
N30 Gd10 2.622 . S
N30 C31 1.369 . S
N30 C32 1.338 . S
C31 N30 1.369 . S
C31 C35 1.415 . S
C31 C38 1.422 . S
C32 H23 0.929 . S
C32 N30 1.338 . S
C32 C34 1.378 . S
C33 H28 0.931 . S
C33 C34 1.348 . S
C33 C35 1.413 . S
C34 H29 0.930 . S
C34 C32 1.378 . S
C34 C33 1.348 . S
C35 C31 1.415 . S
C35 C33 1.413 . S
C35 C65 1.437 . S
H36 C65 0.929 . S
N37 Gd10 2.570 . S
N37 C38 1.359 . S
N37 C41 1.343 1_556 S
C38 C31 1.422 . S
C38 N37 1.359 . S
C38 C40 1.421 . S
C39 C40 1.436 . S
C39 C42 1.314 1_556 S
C39 H66 0.925 1_556 S
C40 C38 1.421 . S
C40 C39 1.436 . S
C40 C64 1.417 . S
C41 H18 0.931 . S
C41 N37 1.343 1_554 S
C41 C42 1.390 . S
C42 H20 0.930 . S
C42 C39 1.314 1_554 S
C42 C41 1.390 . S
O43 Gd11 2.386 . S
O43 C55 1.265 1_545 S
O44 Gd10 2.353 1_455 S
O44 C55 1.242 1_556 S
O45 Gd10 2.468 1_455 S
O45 C63 1.263 . S
O46 Gd10 2.427 1_455 S
O46 C63 1.252 . S
O47 Gd11 2.307 1_556 S
O47 C56 1.261 1_545 S
O48 Gd10 2.388 1_455 S
O48 C56 1.252 . S
O49 Gd10 2.386 . S
O49 C67 1.265 1_565 S
O50 Gd11 2.353 1_655 S
O50 C67 1.242 1_554 S
O51 Gd11 2.468 1_655 S
O51 C75 1.263 . S
O52 Gd11 2.427 1_655 S
O52 C75 1.252 . S
O53 Gd10 2.307 1_554 S
O53 C68 1.261 1_565 S
O54 Gd11 2.388 1_655 S
O54 C68 1.252 . S
C55 O43 1.265 1_565 S
C55 O44 1.242 1_554 S
C56 O47 1.261 1_565 S
C56 O48 1.252 . S
C57 C60 1.394 . S
C57 C62 1.370 . S
C57 C63 1.500 . S
C58 C61 1.383 . S
C58 C62 1.395 . S
C59 C60 1.396 . S
C59 C61 1.365 . S
C59 H76 0.929 . S
C60 C57 1.394 . S
C60 C59 1.396 . S
C60 H77 0.930 . S
C61 C58 1.383 . S
C61 C59 1.365 . S
C61 H78 0.931 . S
C62 C57 1.370 . S
C62 C58 1.395 . S
C62 H79 0.930 1_556 S
C63 Gd10 2.805 1_455 S
C63 O45 1.263 . S
C63 O46 1.252 . S
C63 C57 1.500 . S
C64 H26 0.930 . S
C64 C40 1.417 . S
C64 C65 1.329 . S
C65 C35 1.437 . S
C65 H36 0.929 . S
C65 C64 1.329 . S
H66 C39 0.925 1_554 S
C67 O49 1.265 1_545 S
C67 O50 1.242 1_556 S
C68 O53 1.261 1_545 S
C68 O54 1.252 . S
C69 C72 1.394 . S
C69 C74 1.370 . S
C69 C75 1.500 . S
C70 C73 1.383 . S
C70 C74 1.395 . S
C71 C72 1.396 . S
C71 C73 1.365 . S
C71 H80 0.929 . S
C72 C69 1.394 . S
C72 C71 1.396 . S
C72 H81 0.930 . S
C73 C70 1.383 . S
C73 C71 1.365 . S
C73 H82 0.931 . S
C74 C69 1.370 . S
C74 C70 1.395 . S
C74 H83 0.930 1_554 S
C75 Gd11 2.805 1_655 S
C75 O51 1.263 . S
C75 O52 1.252 . S
C75 C69 1.500 . S
H76 C59 0.929 . S
H77 C60 0.930 . S
H78 C61 0.931 . S
H79 C62 0.930 1_554 S
H80 C71 0.929 . S
H81 C72 0.930 . S
H82 C73 0.931 . S
H83 C74 0.930 1_556 S
C84 C86 1.422 . S
C84 C88 1.415 . S
C84 N90 1.369 . S
C85 C86 1.421 . S
C85 C87 1.417 . S
C85 C97 1.422 . S
C86 C84 1.422 . S
C86 C85 1.421 . S
C86 N96 1.359 . S
C87 C85 1.417 . S
C87 C89 1.329 . S
C87 H106 0.930 . S
C88 C84 1.415 . S
C88 C89 1.437 . S
C88 C92 1.413 . S
C89 C87 1.329 . S
C89 C88 1.437 . S
C89 H111 0.929 . S
N90 C84 1.369 . S
N90 C91 1.338 . S
N90 Gd95 2.622 . S
C91 N90 1.338 . S
C91 C93 1.378 . S
C91 H103 0.929 . S
C92 C88 1.413 . S
C92 C93 1.348 . S
C92 H108 0.931 . S
C93 C91 1.378 . S
C93 C92 1.348 . S
C93 H109 0.930 . S
Gd94 N114 2.622 . S
Gd94 N121 2.570 . S
Gd94 O128 2.353 1_655 S
Gd94 O129 2.468 1_655 S
Gd94 O130 2.427 1_655 S
Gd94 O132 2.388 1_655 S
Gd94 O133 2.386 . S
Gd94 O137 2.307 . S
Gd94 C147 2.805 1_655 S
Gd95 N90 2.622 . S
Gd95 N96 2.570 . S
Gd95 O127 2.386 . S
Gd95 O131 2.307 . S
Gd95 O134 2.353 1_455 S
Gd95 O135 2.468 1_455 S
Gd95 O136 2.427 1_455 S
Gd95 O138 2.388 1_455 S
Gd95 C159 2.805 1_455 S
N96 C86 1.359 . S
N96 Gd95 2.570 . S
N96 C98 1.343 . S
C97 C85 1.422 . S
C97 C99 1.321 . S
C97 H105 0.931 . S
C98 N96 1.343 . S
C98 C99 1.390 . S
C98 H100 0.931 . S
C99 C97 1.321 . S
C99 C98 1.390 . S
C99 H101 0.930 . S
H100 C98 0.931 . S
H101 C99 0.930 . S
H102 C125 0.931 . S
H103 C91 0.929 . S
H104 C126 0.930 . S
H105 C97 0.931 . S
H106 C87 0.930 . S
H107 C116 0.929 . S
H108 C92 0.931 . S
H109 C93 0.930 . S
H110 C148 0.930 . S
H111 C89 0.929 . S
H112 C117 0.931 . S
H113 C118 0.930 . S
N114 Gd94 2.622 . S
N114 C115 1.369 . S
N114 C116 1.338 . S
C115 N114 1.369 . S
C115 C119 1.415 . S
C115 C122 1.422 . S
C116 H107 0.929 . S
C116 N114 1.338 . S
C116 C118 1.378 . S
C117 H112 0.931 . S
C117 C118 1.348 . S
C117 C119 1.413 . S
C118 H113 0.930 . S
C118 C116 1.378 . S
C118 C117 1.348 . S
C119 C115 1.415 . S
C119 C117 1.413 . S
C119 C149 1.437 . S
H120 C149 0.929 . S
N121 Gd94 2.570 . S
N121 C122 1.359 . S
N121 C125 1.343 . S
C122 C115 1.422 . S
C122 N121 1.359 . S
C122 C124 1.421 . S
C123 C124 1.422 . S
C123 C126 1.321 . S
C123 H150 0.931 . S
C124 C122 1.421 . S
C124 C123 1.422 . S
C124 C148 1.417 . S
C125 H102 0.931 . S
C125 N121 1.343 . S
C125 C126 1.390 . S
C126 H104 0.930 . S
C126 C123 1.321 . S
C126 C125 1.390 . S
O127 Gd95 2.386 . S
O127 C139 1.265 1_565 S
O128 Gd94 2.353 1_455 S
O128 C139 1.242 . S
O129 Gd94 2.468 1_455 S
O129 C147 1.263 . S
O130 Gd94 2.427 1_455 S
O130 C147 1.252 . S
O131 Gd95 2.307 . S
O131 C140 1.261 1_565 S
O132 Gd94 2.388 1_455 S
O132 C140 1.252 . S
O133 Gd94 2.386 . S
O133 C151 1.265 1_545 S
O134 Gd95 2.353 1_655 S
O134 C151 1.242 . S
O135 Gd95 2.468 1_655 S
O135 C159 1.263 . S
O136 Gd95 2.427 1_655 S
O136 C159 1.252 . S
O137 Gd94 2.307 . S
O137 C152 1.261 1_545 S
O138 Gd95 2.388 1_655 S
O138 C152 1.252 . S
C139 O127 1.265 1_545 S
C139 O128 1.242 . S
C140 O131 1.261 1_545 S
C140 O132 1.252 . S
C141 C144 1.394 . S
C141 C146 1.370 . S
C141 C147 1.500 . S
C142 C145 1.383 . S
C142 C146 1.395 . S
C143 C144 1.396 . S
C143 C145 1.365 . S
C143 H160 0.929 . S
C144 C141 1.394 . S
C144 C143 1.396 . S
C144 H161 0.930 . S
C145 C142 1.383 . S
C145 C143 1.365 . S
C145 H162 0.931 . S
C146 C141 1.370 . S
C146 C142 1.395 . S
C146 H163 0.930 . S
C147 Gd94 2.805 1_455 S
C147 O129 1.263 . S
C147 O130 1.252 . S
C147 C141 1.500 . S
C148 H110 0.930 . S
C148 C124 1.417 . S
C148 C149 1.329 . S
C149 C119 1.437 . S
C149 H120 0.929 . S
C149 C148 1.329 . S
H150 C123 0.931 . S
C151 O133 1.265 1_565 S
C151 O134 1.242 . S
C152 O137 1.261 1_565 S
C152 O138 1.252 . S
C153 C156 1.394 . S
C153 C158 1.370 . S
C153 C159 1.500 . S
C154 C157 1.383 . S
C154 C158 1.395 . S
C155 C156 1.396 . S
C155 C157 1.365 . S
C155 H164 0.929 . S
C156 C153 1.394 . S
C156 C155 1.396 . S
C156 H165 0.930 . S
C157 C154 1.383 . S
C157 C155 1.365 . S
C157 H166 0.931 . S
C158 C153 1.370 . S
C158 C154 1.395 . S
C158 H167 0.930 . S
C159 Gd95 2.805 1_655 S
C159 O135 1.263 . S
C159 O136 1.252 . S
C159 C153 1.500 . S
H160 C143 0.929 . S
H161 C144 0.930 . S
H162 C145 0.931 . S
H163 C146 0.930 . S
H164 C155 0.929 . S
H165 C156 0.930 . S
H166 C157 0.931 . S
H167 C158 0.930 . S
C168 C170 1.422 . S
C168 C172 1.415 . S
C168 N174 1.369 . S
C169 C170 1.421 . S
C169 C171 1.417 . S
C169 C181 1.442 . S
C170 C168 1.422 . S
C170 C169 1.421 . S
C170 N180 1.359 . S
C171 C169 1.417 . S
C171 C173 1.329 . S
C171 H190 0.930 . S
C172 C168 1.415 . S
C172 C173 1.437 . S
C172 C176 1.413 . S
C173 C171 1.329 . S
C173 C172 1.437 . S
C173 H195 0.929 . S
N174 C168 1.369 . S
N174 C175 1.338 . S
N174 Gd179 2.622 . S
C175 N174 1.338 . S
C175 C177 1.378 . S
C175 H187 0.929 . S
C176 C172 1.413 . S
C176 C177 1.348 . S
C176 H192 0.931 . S
C177 C175 1.378 . S
C177 C176 1.348 . S
C177 H193 0.930 . S
Gd178 N198 2.622 . S
Gd178 N205 2.570 . S
Gd178 O212 2.353 . S
Gd178 O213 2.468 . S
Gd178 O214 2.427 . S
Gd178 O216 2.388 . S
Gd178 O217 2.386 . S
Gd178 O221 2.307 1_556 S
Gd178 C231 2.805 . S
Gd179 N174 2.622 . S
Gd179 N180 2.570 . S
Gd179 O211 2.386 . S
Gd179 O215 2.307 1_554 S
Gd179 O218 2.353 . S
Gd179 O219 2.468 . S
Gd179 O220 2.427 . S
Gd179 O222 2.388 . S
Gd179 C243 2.805 . S
N180 C170 1.359 . S
N180 Gd179 2.570 . S
N180 C182 1.343 1_554 S
C181 C169 1.442 . S
C181 C183 1.310 1_554 S
C181 H189 0.922 1_554 S
C182 N180 1.343 1_556 S
C182 C183 1.390 . S
C182 H184 0.931 . S
C183 C181 1.310 1_556 S
C183 C182 1.390 . S
C183 H185 0.930 . S
H184 C182 0.931 . S
H185 C183 0.930 . S
H186 C209 0.931 . S
H187 C175 0.929 . S
H188 C210 0.930 . S
H189 C181 0.922 1_556 S
H190 C171 0.930 . S
H191 C200 0.929 . S
H192 C176 0.931 . S
H193 C177 0.930 . S
H194 C232 0.930 . S
H195 C173 0.929 . S
H196 C201 0.931 . S
H197 C202 0.930 . S
N198 Gd178 2.622 . S
N198 C199 1.369 . S
N198 C200 1.338 . S
C199 N198 1.369 . S
C199 C203 1.415 . S
C199 C206 1.422 . S
C200 H191 0.929 . S
C200 N198 1.338 . S
C200 C202 1.378 . S
C201 H196 0.931 . S
C201 C202 1.348 . S
C201 C203 1.413 . S
C202 H197 0.930 . S
C202 C200 1.378 . S
C202 C201 1.348 . S
C203 C199 1.415 . S
C203 C201 1.413 . S
C203 C233 1.437 . S
H204 C233 0.929 . S
N205 Gd178 2.570 . S
N205 C206 1.359 . S
N205 C209 1.343 1_556 S
C206 C199 1.422 . S
C206 N205 1.359 . S
C206 C208 1.421 . S
C207 C208 1.436 . S
C207 C210 1.314 1_556 S
C207 H234 0.925 1_556 S
C208 C206 1.421 . S
C208 C207 1.436 . S
C208 C232 1.417 . S
C209 H186 0.931 . S
C209 N205 1.343 1_554 S
C209 C210 1.390 . S
C210 H188 0.930 . S
C210 C207 1.314 1_554 S
C210 C209 1.390 . S
O211 Gd179 2.386 . S
O211 C223 1.265 . S
O212 Gd178 2.353 . S
O212 C223 1.242 1_556 S
O213 Gd178 2.468 . S
O213 C231 1.263 . S
O214 Gd178 2.427 . S
O214 C231 1.252 . S
O215 Gd179 2.307 1_556 S
O215 C224 1.261 . S
O216 Gd178 2.388 . S
O216 C224 1.252 . S
O217 Gd178 2.386 . S
O217 C235 1.265 . S
O218 Gd179 2.353 . S
O218 C235 1.242 1_554 S
O219 Gd179 2.468 . S
O219 C243 1.263 . S
O220 Gd179 2.427 . S
O220 C243 1.252 . S
O221 Gd178 2.307 1_554 S
O221 C236 1.261 . S
O222 Gd179 2.388 . S
O222 C236 1.252 . S
C223 O211 1.265 . S
C223 O212 1.242 1_554 S
C224 O215 1.261 . S
C224 O216 1.252 . S
C225 C228 1.394 . S
C225 C230 1.370 . S
C225 C231 1.500 . S
C226 C229 1.383 . S
C226 C230 1.395 . S
C227 C228 1.396 . S
C227 C229 1.365 . S
C227 H244 0.929 . S
C228 C225 1.394 . S
C228 C227 1.396 . S
C228 H245 0.930 . S
C229 C226 1.383 . S
C229 C227 1.365 . S
C229 H246 0.931 . S
C230 C225 1.370 . S
C230 C226 1.395 . S
C230 H247 0.930 1_556 S
C231 Gd178 2.805 . S
C231 O213 1.263 . S
C231 O214 1.252 . S
C231 C225 1.500 . S
C232 H194 0.930 . S
C232 C208 1.417 . S
C232 C233 1.329 . S
C233 C203 1.437 . S
C233 H204 0.929 . S
C233 C232 1.329 . S
H234 C207 0.925 1_554 S
C235 O217 1.265 . S
C235 O218 1.242 1_556 S
C236 O221 1.261 . S
C236 O222 1.252 . S
C237 C240 1.394 . S
C237 C242 1.370 . S
C237 C243 1.500 . S
C238 C241 1.383 . S
C238 C242 1.395 . S
C239 C240 1.396 . S
C239 C241 1.365 . S
C239 H248 0.929 . S
C240 C237 1.394 . S
C240 C239 1.396 . S
C240 H249 0.930 . S
C241 C238 1.383 . S
C241 C239 1.365 . S
C241 H250 0.931 . S
C242 C237 1.370 . S
C242 C238 1.395 . S
C242 H251 0.930 1_554 S
C243 Gd179 2.805 . S
C243 O219 1.263 . S
C243 O220 1.252 . S
C243 C237 1.500 . S
H244 C227 0.929 . S
H245 C228 0.930 . S
H246 C229 0.931 . S
H247 C230 0.930 1_554 S
H248 C239 0.929 . S
H249 C240 0.930 . S
H250 C241 0.931 . S
H251 C242 0.930 1_556 S
C252 C254 1.422 . S
C252 C256 1.415 . S
C252 N258 1.369 . S
C253 C254 1.421 . S
C253 C255 1.417 . S
C253 C265 1.422 . S
C254 C252 1.422 . S
C254 C253 1.421 . S
C254 N264 1.359 . S
C255 C253 1.417 . S
C255 C257 1.329 . S
C255 H274 0.930 . S
C256 C252 1.415 . S
C256 C257 1.437 . S
C256 C260 1.413 . S
C257 C255 1.329 . S
C257 C256 1.437 . S
C257 H279 0.929 . S
N258 C252 1.369 . S
N258 C259 1.338 . S
N258 Gd263 2.622 . S
C259 N258 1.338 . S
C259 C261 1.378 . S
C259 H271 0.929 . S
C260 C256 1.413 . S
C260 C261 1.348 . S
C260 H276 0.931 . S
C261 C259 1.378 . S
C261 C260 1.348 . S
C261 H277 0.930 . S
Gd262 N282 2.622 . S
Gd262 N289 2.570 . S
Gd262 O296 2.353 . S
Gd262 O297 2.468 . S
Gd262 O298 2.427 . S
Gd262 O300 2.388 . S
Gd262 O301 2.386 . S
Gd262 O305 2.307 . S
Gd262 C315 2.805 . S
Gd263 N258 2.622 . S
Gd263 N264 2.570 . S
Gd263 O295 2.386 . S
Gd263 O299 2.307 . S
Gd263 O302 2.353 . S
Gd263 O303 2.468 . S
Gd263 O304 2.427 . S
Gd263 O306 2.388 . S
Gd263 C327 2.805 . S
N264 C254 1.359 . S
N264 Gd263 2.570 . S
N264 C266 1.343 . S
C265 C253 1.422 . S
C265 C267 1.321 . S
C265 H273 0.931 . S
C266 N264 1.343 . S
C266 C267 1.390 . S
C266 H268 0.931 . S
C267 C265 1.321 . S
C267 C266 1.390 . S
C267 H269 0.930 . S
H268 C266 0.931 . S
H269 C267 0.930 . S
H270 C293 0.931 . S
H271 C259 0.929 . S
H272 C294 0.930 . S
H273 C265 0.931 . S
H274 C255 0.930 . S
H275 C284 0.929 . S
H276 C260 0.931 . S
H277 C261 0.930 . S
H278 C316 0.930 . S
H279 C257 0.929 . S
H280 C285 0.931 . S
H281 C286 0.930 . S
N282 Gd262 2.622 . S
N282 C283 1.369 . S
N282 C284 1.338 . S
C283 N282 1.369 . S
C283 C287 1.415 . S
C283 C290 1.422 . S
C284 H275 0.929 . S
C284 N282 1.338 . S
C284 C286 1.378 . S
C285 H280 0.931 . S
C285 C286 1.348 . S
C285 C287 1.413 . S
C286 H281 0.930 . S
C286 C284 1.378 . S
C286 C285 1.348 . S
C287 C283 1.415 . S
C287 C285 1.413 . S
C287 C317 1.437 . S
H288 C317 0.929 . S
N289 Gd262 2.570 . S
N289 C290 1.359 . S
N289 C293 1.343 . S
C290 C283 1.422 . S
C290 N289 1.359 . S
C290 C292 1.421 . S
C291 C292 1.422 . S
C291 C294 1.321 . S
C291 H318 0.931 . S
C292 C290 1.421 . S
C292 C291 1.422 . S
C292 C316 1.417 . S
C293 H270 0.931 . S
C293 N289 1.343 . S
C293 C294 1.390 . S
C294 H272 0.930 . S
C294 C291 1.321 . S
C294 C293 1.390 . S
O295 Gd263 2.386 . S
O295 C307 1.265 . S
O296 Gd262 2.353 . S
O296 C307 1.242 . S
O297 Gd262 2.468 . S
O297 C315 1.263 . S
O298 Gd262 2.427 . S
O298 C315 1.252 . S
O299 Gd263 2.307 . S
O299 C308 1.261 . S
O300 Gd262 2.388 . S
O300 C308 1.252 . S
O301 Gd262 2.386 . S
O301 C319 1.265 . S
O302 Gd263 2.353 . S
O302 C319 1.242 . S
O303 Gd263 2.468 . S
O303 C327 1.263 . S
O304 Gd263 2.427 . S
O304 C327 1.252 . S
O305 Gd262 2.307 . S
O305 C320 1.261 . S
O306 Gd263 2.388 . S
O306 C320 1.252 . S
C307 O295 1.265 . S
C307 O296 1.242 . S
C308 O299 1.261 . S
C308 O300 1.252 . S
C309 C312 1.394 . S
C309 C314 1.370 . S
C309 C315 1.500 . S
C310 C313 1.383 . S
C310 C314 1.395 . S
C311 C312 1.396 . S
C311 C313 1.365 . S
C311 H328 0.929 . S
C312 C309 1.394 . S
C312 C311 1.396 . S
C312 H329 0.930 . S
C313 C310 1.383 . S
C313 C311 1.365 . S
C313 H330 0.931 . S
C314 C309 1.370 . S
C314 C310 1.395 . S
C314 H331 0.930 . S
C315 Gd262 2.805 . S
C315 O297 1.263 . S
C315 O298 1.252 . S
C315 C309 1.500 . S
C316 H278 0.930 . S
C316 C292 1.417 . S
C316 C317 1.329 . S
C317 C287 1.437 . S
C317 H288 0.929 . S
C317 C316 1.329 . S
H318 C291 0.931 . S
C319 O301 1.265 . S
C319 O302 1.242 . S
C320 O305 1.261 . S
C320 O306 1.252 . S
C321 C324 1.394 . S
C321 C326 1.370 . S
C321 C327 1.500 . S
C322 C325 1.383 . S
C322 C326 1.395 . S
C323 C324 1.396 . S
C323 C325 1.365 . S
C323 H332 0.929 . S
C324 C321 1.394 . S
C324 C323 1.396 . S
C324 H333 0.930 . S
C325 C322 1.383 . S
C325 C323 1.365 . S
C325 H334 0.931 . S
C326 C321 1.370 . S
C326 C322 1.395 . S
C326 H335 0.930 . S
C327 Gd263 2.805 . S
C327 O303 1.263 . S
C327 O304 1.252 . S
C327 C321 1.500 . S
H328 C311 0.929 . S
H329 C312 0.930 . S
H330 C313 0.931 . S
H331 C314 0.930 . S
H332 C323 0.929 . S
H333 C324 0.930 . S
H334 C325 0.931 . S
H335 C326 0.930 . S
H336 C344 0.950 . S
H337 C349 0.950 . S
H338 C346 0.950 . S
H339 C348 0.950 . S
H340 C350 0.950 . S
H341 C352 0.950 . S
H342 C354 0.950 . S
H343 C355 0.950 . S
C344 H336 0.950 . S
C344 C345 1.386 1_554 S
C344 C346 1.391 . S
C345 C344 1.386 1_556 S
C345 C349 1.393 . S
C346 H338 0.950 . S
C346 C344 1.391 . S
C346 C347 1.384 1_554 S
C347 C346 1.384 1_556 S
C347 C348 1.407 . S
C347 C353 1.508 1_556 S
C348 H339 0.950 . S
C348 C347 1.407 . S
C348 C349 1.391 . S
C349 H337 0.950 . S
C349 C345 1.393 . S
C349 C348 1.391 . S
C350 H340 0.950 . S
C350 C351 1.386 1_556 S
C350 C352 1.391 . S
C351 C350 1.386 1_554 S
C351 C355 1.393 . S
C352 H341 0.950 . S
C352 C350 1.391 . S
C352 C353 1.378 1_556 S
C353 C347 1.508 1_554 S
C353 C352 1.378 1_554 S
C353 C354 1.410 . S
C354 H342 0.950 . S
C354 C353 1.410 . S
C354 C355 1.391 . S
C355 H343 0.950 . S
C355 C351 1.393 . S
C355 C354 1.391 . S
H356 C364 0.950 . S
H357 C369 0.950 . S
H358 C366 0.950 . S
H359 C368 0.950 . S
H360 C370 0.950 . S
H361 C372 0.950 . S
H362 C374 0.950 . S
H363 C375 0.950 . S
C364 H356 0.950 . S
C364 C365 1.386 1_556 S
C364 C366 1.391 . S
C365 C364 1.386 1_554 S
C365 C369 1.393 . S
C366 H358 0.950 . S
C366 C364 1.391 . S
C366 C367 1.403 1_556 S
C367 C366 1.403 1_554 S
C367 C368 1.397 . S
C367 C373 1.488 . S
C368 H359 0.950 . S
C368 C367 1.397 . S
C368 C369 1.391 . S
C369 H357 0.950 . S
C369 C365 1.393 . S
C369 C368 1.391 . S
C370 H360 0.950 . S
C370 C371 1.377 1_554 S
C370 C372 1.391 . S
C371 C370 1.377 1_556 S
C371 C375 1.411 . S
C372 H361 0.950 . S
C372 C370 1.391 . S
C372 C373 1.403 . S
C373 C367 1.488 . S
C373 C372 1.403 . S
C373 C374 1.397 1_554 S
C374 H362 0.950 . S
C374 C373 1.397 1_556 S
C374 C375 1.391 . S
C375 H363 0.950 . S
C375 C371 1.411 . S
C375 C374 1.391 . S
H376 C384 0.950 . S
H377 C389 0.950 . S
H378 C386 0.950 . S
H379 C388 0.950 . S
H380 C390 0.950 . S
H381 C392 0.950 . S
H382 C394 0.950 . S
H383 C395 0.950 . S
C384 H376 0.950 . S
C384 C385 1.386 . S
C384 C386 1.391 . S
C385 C384 1.386 . S
C385 C389 1.393 . S
C386 H378 0.950 . S
C386 C384 1.391 . S
C386 C387 1.400 . S
C387 C386 1.400 . S
C387 C388 1.398 . S
C387 C393 1.491 . S
C388 H379 0.950 . S
C388 C387 1.398 . S
C388 C389 1.391 . S
C389 H377 0.950 . S
C389 C385 1.393 . S
C389 C388 1.391 . S
C390 H380 0.950 . S
C390 C391 1.386 . S
C390 C392 1.391 . S
C391 C390 1.386 . S
C391 C395 1.393 . S
C392 H381 0.950 . S
C392 C390 1.391 . S
C392 C393 1.400 . S
C393 C387 1.491 . S
C393 C392 1.400 . S
C393 C394 1.398 . S
C394 H382 0.950 . S
C394 C393 1.398 . S
C394 C395 1.391 . S
C395 H383 0.950 . S
C395 C391 1.393 . S
C395 C394 1.391 . S
H396 C404 0.950 . S
H397 C409 0.950 . S
H398 C406 0.950 . S
H399 C408 0.950 . S
H400 C410 0.950 . S
H401 C412 0.950 . S
H402 C414 0.950 . S
H403 C415 0.950 . S
C404 H396 0.950 . S
C404 C405 1.386 . S
C404 C406 1.391 . S
C405 C404 1.386 . S
C405 C409 1.393 . S
C406 H398 0.950 . S
C406 C404 1.391 . S
C406 C407 1.400 . S
C407 C406 1.400 . S
C407 C408 1.398 . S
C407 C413 1.491 . S
C408 H399 0.950 . S
C408 C407 1.398 . S
C408 C409 1.391 . S
C409 H397 0.950 . S
C409 C405 1.393 . S
C409 C408 1.391 . S
C410 H400 0.950 . S
C410 C411 1.386 . S
C410 C412 1.391 . S
C411 C410 1.386 . S
C411 C415 1.393 . S
C412 H401 0.950 . S
C412 C410 1.391 . S
C412 C413 1.400 . S
C413 C407 1.491 . S
C413 C412 1.400 . S
C413 C414 1.398 . S
C414 H402 0.950 . S
C414 C413 1.398 . S
C414 C415 1.391 . S
C415 H403 0.950 . S
C415 C411 1.393 . S
C415 C414 1.391 . S
H416 C424 0.950 . S
H417 C429 0.950 . S
H418 C426 0.950 . S
H419 C428 0.950 . S
H420 C430 0.950 . S
H421 C432 0.950 . S
H422 C434 0.950 . S
H423 C435 0.950 . S
C424 H416 0.950 . S
C424 C425 1.386 1_545 S
C424 C426 1.391 . S
C425 C424 1.386 1_565 S
C425 C429 1.393 1_554 S
C426 H418 0.950 . S
C426 C424 1.391 . S
C426 C427 1.378 1_545 S
C427 C426 1.378 1_565 S
C427 C428 1.425 1_554 S
C427 C433 1.487 1_564 S
C428 H419 0.950 . S
C428 C427 1.425 1_556 S
C428 C429 1.391 . S
C429 H417 0.950 . S
C429 C425 1.393 1_556 S
C429 C428 1.391 . S
C430 H420 0.950 . S
C430 C431 1.386 1_565 S
C430 C432 1.391 . S
C431 C430 1.386 1_545 S
C431 C435 1.393 1_556 S
C432 H421 0.950 . S
C432 C430 1.391 . S
C432 C433 1.371 1_565 S
C433 C427 1.487 1_546 S
C433 C432 1.371 1_545 S
C433 C434 1.433 1_556 S
C434 H422 0.950 . S
C434 C433 1.433 1_554 S
C434 C435 1.391 . S
C435 H423 0.950 . S
C435 C431 1.393 1_554 S
C435 C434 1.391 . S
H436 C444 0.950 . S
H437 C449 0.950 . S
H438 C446 0.950 . S
H439 C448 0.950 . S
H440 C450 0.950 . S
H441 C452 0.950 . S
H442 C454 0.950 . S
H443 C455 0.950 . S
C444 H436 0.950 . S
C444 C445 1.386 1_565 S
C444 C446 1.391 . S
C445 C444 1.386 1_545 S
C445 C449 1.393 . S
C446 H438 0.950 . S
C446 C444 1.391 . S
C446 C447 1.400 1_565 S
C447 C446 1.400 1_545 S
C447 C448 1.398 . S
C447 C453 1.491 1_545 S
C448 H439 0.950 . S
C448 C447 1.398 . S
C448 C449 1.391 . S
C449 H437 0.950 . S
C449 C445 1.393 . S
C449 C448 1.391 . S
C450 H440 0.950 . S
C450 C451 1.386 1_545 S
C450 C452 1.391 . S
C451 C450 1.386 1_565 S
C451 C455 1.393 . S
C452 H441 0.950 . S
C452 C450 1.391 . S
C452 C453 1.400 1_545 S
C453 C447 1.491 1_565 S
C453 C452 1.400 1_565 S
C453 C454 1.398 . S
C454 H442 0.950 . S
C454 C453 1.398 . S
C454 C455 1.391 . S
C455 H443 0.950 . S
C455 C451 1.393 . S
C455 C454 1.391 . S
H456 C464 0.950 . S
H457 C469 0.950 . S
H458 C466 0.950 . S
H459 C468 0.950 . S
H460 C470 0.950 . S
H461 C472 0.950 . S
H462 C474 0.950 . S
H463 C475 0.950 . S
C464 H456 0.950 . S
C464 C465 1.376 1_554 S
C464 C466 1.391 . S
C465 C464 1.376 1_556 S
C465 C469 1.403 . S
C466 H458 0.950 . S
C466 C464 1.391 . S
C466 C467 1.401 1_554 S
C467 C466 1.401 1_556 S
C467 C468 1.398 . S
C467 C473 1.491 1_656 S
C468 H459 0.950 . S
C468 C467 1.398 . S
C468 C469 1.391 . S
C469 H457 0.950 . S
C469 C465 1.403 . S
C469 C468 1.391 . S
C470 H460 0.950 . S
C470 C471 1.371 1_556 S
C470 C472 1.391 . S
C471 C470 1.371 1_554 S
C471 C475 1.408 . S
C472 H461 0.950 . S
C472 C470 1.391 . S
C472 C473 1.396 1_556 S
C473 C467 1.491 1_454 S
C473 C472 1.396 1_554 S
C473 C474 1.402 . S
C474 H462 0.950 . S
C474 C473 1.402 . S
C474 C475 1.391 . S
C475 H463 0.950 . S
C475 C471 1.408 . S
C475 C474 1.391 . S
H476 C484 0.950 . S
H477 C489 0.950 . S
H478 C486 0.950 . S
H479 C488 0.950 . S
H480 C490 0.950 . S
H481 C492 0.950 . S
H482 C494 0.950 . S
H483 C495 0.950 . S
C484 H476 0.950 . S
C484 C485 1.386 . S
C484 C486 1.391 . S
C485 C484 1.386 . S
C485 C489 1.393 . S
C486 H478 0.950 . S
C486 C484 1.391 . S
C486 C487 1.400 . S
C487 C486 1.400 . S
C487 C488 1.398 . S
C487 C493 1.491 1_455 S
C488 H479 0.950 . S
C488 C487 1.398 . S
C488 C489 1.391 . S
C489 H477 0.950 . S
C489 C485 1.393 . S
C489 C488 1.391 . S
C490 H480 0.950 . S
C490 C491 1.386 . S
C490 C492 1.391 . S
C491 C490 1.386 . S
C491 C495 1.393 . S
C492 H481 0.950 . S
C492 C490 1.391 . S
C492 C493 1.400 . S
C493 C487 1.491 1_655 S
C493 C492 1.400 . S
C493 C494 1.398 . S
C494 H482 0.950 . S
C494 C493 1.398 . S
C494 C495 1.391 . S
C495 H483 0.950 . S
C495 C491 1.393 . S
C495 C494 1.391 . S
H496 C504 0.950 . S
H497 C509 0.950 . S
H498 C506 0.950 . S
H499 C508 0.950 . S
H500 C510 0.950 . S
H501 C512 0.950 . S
H502 C514 0.950 . S
H503 C515 0.950 . S
C504 H496 0.950 . S
C504 C505 1.374 1_545 S
C504 C506 1.391 . S
C505 C504 1.374 1_565 S
C505 C509 1.397 1_455 S
C506 H498 0.950 . S
C506 C504 1.391 . S
C506 C507 1.402 1_545 S
C507 C506 1.402 1_565 S
C507 C508 1.401 1_455 S
C507 C513 1.477 1_465 S
C508 H499 0.950 . S
C508 C507 1.401 1_655 S
C508 C509 1.391 . S
C509 H497 0.950 . S
C509 C505 1.397 1_655 S
C509 C508 1.391 . S
C510 H500 0.950 . S
C510 C511 1.367 1_565 S
C510 C512 1.391 . S
C511 C510 1.367 1_545 S
C511 C515 1.400 1_655 S
C512 H501 0.950 . S
C512 C510 1.391 . S
C512 C513 1.395 1_565 S
C513 C507 1.477 1_645 S
C513 C512 1.395 1_545 S
C513 C514 1.413 1_655 S
C514 H502 0.950 . S
C514 C513 1.413 1_455 S
C514 C515 1.391 . S
C515 H503 0.950 . S
C515 C511 1.400 1_455 S
C515 C514 1.391 . S
H516 C524 0.950 . S
H517 C529 0.950 . S
H518 C526 0.950 1_655 S
H519 C528 0.950 . S
H520 C530 0.949 1_455 S
H521 C532 0.950 . S
H522 C534 0.950 . S
H523 C535 0.950 . S
C524 H516 0.950 . S
C524 C525 1.401 . S
C524 C526 1.391 . S
C525 C524 1.401 . S
C525 C529 1.384 1_545 S
C526 H518 0.950 1_455 S
C526 C524 1.391 . S
C526 C527 1.402 . S
C527 C526 1.402 . S
C527 C528 1.396 1_545 S
C527 C533 1.493 1_455 S
C528 H519 0.950 . S
C528 C527 1.396 1_565 S
C528 C529 1.391 . S
C529 H517 0.950 . S
C529 C525 1.384 1_565 S
C529 C528 1.391 . S
C530 H520 0.949 1_655 S
C530 C531 1.392 . S
C530 C532 1.391 1_655 S
C531 C530 1.392 . S
C531 C535 1.390 1_565 S
C532 H521 0.950 . S
C532 C530 1.391 1_455 S
C532 C533 1.401 1_465 S
C533 C527 1.493 1_655 S
C533 C532 1.401 1_645 S
C533 C534 1.396 . S
C534 H522 0.950 . S
C534 C533 1.396 . S
C534 C535 1.391 . S
C535 H523 0.950 . S
C535 C531 1.390 1_545 S
C535 C534 1.391 . S
H536 C544 0.950 . S
H537 C549 0.950 . S
H538 C546 0.950 . S
H539 C548 0.950 . S
H540 C550 0.950 . S
H541 C552 0.950 . S
H542 C554 0.950 . S
H543 C555 0.950 . S
C544 H536 0.950 . S
C544 C545 1.386 . S
C544 C546 1.391 . S
C545 C544 1.386 . S
C545 C549 1.393 . S
C546 H538 0.950 . S
C546 C544 1.391 . S
C546 C547 1.400 . S
C547 C546 1.400 . S
C547 C548 1.398 . S
C547 C553 1.491 . S
C548 H539 0.950 . S
C548 C547 1.398 . S
C548 C549 1.391 . S
C549 H537 0.950 . S
C549 C545 1.393 . S
C549 C548 1.391 . S
C550 H540 0.950 . S
C550 C551 1.386 . S
C550 C552 1.391 . S
C551 C550 1.386 . S
C551 C555 1.393 . S
C552 H541 0.950 . S
C552 C550 1.391 . S
C552 C553 1.400 . S
C553 C547 1.491 . S
C553 C552 1.400 . S
C553 C554 1.398 . S
C554 H542 0.950 . S
C554 C553 1.398 . S
C554 C555 1.391 . S
C555 H543 0.950 . S
C555 C551 1.393 . S
C555 C554 1.391 . S
H556 C564 0.950 . S
H557 C569 0.950 . S
H558 C566 0.950 . S
H559 C568 0.950 . S
H560 C570 0.950 . S
H561 C572 0.950 . S
H562 C574 0.950 . S
H563 C575 0.950 . S
C564 H556 0.950 . S
C564 C565 1.386 . S
C564 C566 1.391 . S
C565 C564 1.386 . S
C565 C569 1.393 . S
C566 H558 0.950 . S
C566 C564 1.391 . S
C566 C567 1.400 . S
C567 C566 1.400 . S
C567 C568 1.398 . S
C567 C573 1.491 . S
C568 H559 0.950 . S
C568 C567 1.398 . S
C568 C569 1.391 . S
C569 H557 0.950 . S
C569 C565 1.393 . S
C569 C568 1.391 . S
C570 H560 0.950 . S
C570 C571 1.386 . S
C570 C572 1.391 . S
C571 C570 1.386 . S
C571 C575 1.393 . S
C572 H561 0.950 . S
C572 C570 1.391 . S
C572 C573 1.400 . S
C573 C567 1.491 . S
C573 C572 1.400 . S
C573 C574 1.398 . S
C574 H562 0.950 . S
C574 C573 1.398 . S
C574 C575 1.391 . S
C575 H563 0.950 . S
C575 C571 1.393 . S
C575 C574 1.391 . S
C345 C238 1.411 1_556 S
C351 C58 1.414 1_554 S
C365 C226 1.396 1_554 S
C371 C70 1.376 1_556 S
C385 C142 1.412 . S
C391 C322 1.408 . S
C405 C154 1.418 . S
C411 C310 1.422 . S
C425 C55 1.972 . S
C431 C67 1.972 . S
C445 C139 1.973 . S
C451 C151 1.973 . S
C465 C223 1.974 1_556 S
C471 C235 1.974 1_554 S
C485 C319 1.975 . S
C491 C307 1.975 . S
C505 C152 1.485 1_455 S
C511 C68 1.481 . S
C525 C56 1.465 1_545 S
C531 C140 1.483 1_665 S
C545 C320 1.481 . S
C551 C236 1.484 . S
C565 C308 1.487 . S
C571 C224 1.482 . S
