# Generated by pormake.
# Topology vbb, (4)-cn, num edge types: 1
# Building blocks:
#     Node 0, Type 0, BuildingBlock: ESEHIV_clean_sbu_0, # of connection points: 4
#     Node 1, Type 0, BuildingBlock: ESEHIV_clean_sbu_0, # of connection points: 4
#     Node 2, Type 0, BuildingBlock: ESEHIV_clean_sbu_0, # of connection points: 4
#     Node 3, Type 0, BuildingBlock: ESEHIV_clean_sbu_0, # of connection points: 4
#     Node 4, Type 0, BuildingBlock: ESEHIV_clean_sbu_0, # of connection points: 4
#     Node 5, Type 0, BuildingBlock: ESEHIV_clean_sbu_0, # of connection points: 4
#     Node 6, Type 0, BuildingBlock: ESEHIV_clean_sbu_0, # of connection points: 4
#     Node 7, Type 0, BuildingBlock: ESEHIV_clean_sbu_0, # of connection points: 4
#     Node 8, Type 0, BuildingBlock: ESEHIV_clean_sbu_0, # of connection points: 4
#     Node 9, Type 0, BuildingBlock: ESEHIV_clean_sbu_0, # of connection points: 4
#     Node 10, Type 0, BuildingBlock: ESEHIV_clean_sbu_0, # of connection points: 4
#     Node 11, Type 0, BuildingBlock: ESEHIV_clean_sbu_0, # of connection points: 4
#     Node 12, Type 0, BuildingBlock: ESEHIV_clean_sbu_0, # of connection points: 4
#     Node 13, Type 0, BuildingBlock: ESEHIV_clean_sbu_0, # of connection points: 4
#     Node 14, Type 0, BuildingBlock: ESEHIV_clean_sbu_0, # of connection points: 4
#     Node 15, Type 0, BuildingBlock: ESEHIV_clean_sbu_0, # of connection points: 4
#     Node 16, Type 0, BuildingBlock: ESEHIV_clean_sbu_0, # of connection points: 4
#     Node 17, Type 0, BuildingBlock: ESEHIV_clean_sbu_0, # of connection points: 4
#     Node 18, Type 0, BuildingBlock: ESEHIV_clean_sbu_0, # of connection points: 4
#     Node 19, Type 0, BuildingBlock: ESEHIV_clean_sbu_0, # of connection points: 4
#     Node 20, Type 0, BuildingBlock: ESEHIV_clean_sbu_0, # of connection points: 4
#     Node 21, Type 0, BuildingBlock: ESEHIV_clean_sbu_0, # of connection points: 4
#     Node 22, Type 0, BuildingBlock: ESEHIV_clean_sbu_0, # of connection points: 4
#     Node 23, Type 0, BuildingBlock: ESEHIV_clean_sbu_0, # of connection points: 4
#     Node 24, Type 0, BuildingBlock: ESEHIV_clean_sbu_0, # of connection points: 4
#     Node 25, Type 0, BuildingBlock: ESEHIV_clean_sbu_0, # of connection points: 4
#     Node 26, Type 0, BuildingBlock: ESEHIV_clean_sbu_0, # of connection points: 4
#     Node 27, Type 0, BuildingBlock: ESEHIV_clean_sbu_0, # of connection points: 4
#     Node 28, Type 0, BuildingBlock: ESEHIV_clean_sbu_0, # of connection points: 4
#     Node 29, Type 0, BuildingBlock: ESEHIV_clean_sbu_0, # of connection points: 4
#     Node 30, Type 0, BuildingBlock: ESEHIV_clean_sbu_0, # of connection points: 4
#     Node 31, Type 0, BuildingBlock: ESEHIV_clean_sbu_0, # of connection points: 4
#     Edge 32, Type (0, 0), BuildingBlock: OJICUG_clean_linker_0, # of connection points: 2
#     Edge 33, Type (0, 0), BuildingBlock: OJICUG_clean_linker_0, # of connection points: 2
#     Edge 34, Type (0, 0), BuildingBlock: OJICUG_clean_linker_0, # of connection points: 2
#     Edge 35, Type (0, 0), BuildingBlock: OJICUG_clean_linker_0, # of connection points: 2
#     Edge 36, Type (0, 0), BuildingBlock: OJICUG_clean_linker_0, # of connection points: 2
#     Edge 37, Type (0, 0), BuildingBlock: OJICUG_clean_linker_0, # of connection points: 2
#     Edge 38, Type (0, 0), BuildingBlock: OJICUG_clean_linker_0, # of connection points: 2
#     Edge 39, Type (0, 0), BuildingBlock: OJICUG_clean_linker_0, # of connection points: 2
#     Edge 40, Type (0, 0), BuildingBlock: OJICUG_clean_linker_0, # of connection points: 2
#     Edge 41, Type (0, 0), BuildingBlock: OJICUG_clean_linker_0, # of connection points: 2
#     Edge 42, Type (0, 0), BuildingBlock: OJICUG_clean_linker_0, # of connection points: 2
#     Edge 43, Type (0, 0), BuildingBlock: OJICUG_clean_linker_0, # of connection points: 2
#     Edge 44, Type (0, 0), BuildingBlock: OJICUG_clean_linker_0, # of connection points: 2
#     Edge 45, Type (0, 0), BuildingBlock: OJICUG_clean_linker_0, # of connection points: 2
#     Edge 46, Type (0, 0), BuildingBlock: OJICUG_clean_linker_0, # of connection points: 2
#     Edge 47, Type (0, 0), BuildingBlock: OJICUG_clean_linker_0, # of connection points: 2
#     Edge 48, Type (0, 0), BuildingBlock: OJICUG_clean_linker_0, # of connection points: 2
#     Edge 49, Type (0, 0), BuildingBlock: OJICUG_clean_linker_0, # of connection points: 2
#     Edge 50, Type (0, 0), BuildingBlock: OJICUG_clean_linker_0, # of connection points: 2
#     Edge 51, Type (0, 0), BuildingBlock: OJICUG_clean_linker_0, # of connection points: 2
#     Edge 52, Type (0, 0), BuildingBlock: OJICUG_clean_linker_0, # of connection points: 2
#     Edge 53, Type (0, 0), BuildingBlock: OJICUG_clean_linker_0, # of connection points: 2
#     Edge 54, Type (0, 0), BuildingBlock: OJICUG_clean_linker_0, # of connection points: 2
#     Edge 55, Type (0, 0), BuildingBlock: OJICUG_clean_linker_0, # of connection points: 2
#     Edge 56, Type (0, 0), BuildingBlock: OJICUG_clean_linker_0, # of connection points: 2
#     Edge 57, Type (0, 0), BuildingBlock: OJICUG_clean_linker_0, # of connection points: 2
#     Edge 58, Type (0, 0), BuildingBlock: OJICUG_clean_linker_0, # of connection points: 2
#     Edge 59, Type (0, 0), BuildingBlock: OJICUG_clean_linker_0, # of connection points: 2
#     Edge 60, Type (0, 0), BuildingBlock: OJICUG_clean_linker_0, # of connection points: 2
#     Edge 61, Type (0, 0), BuildingBlock: OJICUG_clean_linker_0, # of connection points: 2
#     Edge 62, Type (0, 0), BuildingBlock: OJICUG_clean_linker_0, # of connection points: 2
#     Edge 63, Type (0, 0), BuildingBlock: OJICUG_clean_linker_0, # of connection points: 2
#     Edge 64, Type (0, 0), BuildingBlock: OJICUG_clean_linker_0, # of connection points: 2
#     Edge 65, Type (0, 0), BuildingBlock: OJICUG_clean_linker_0, # of connection points: 2
#     Edge 66, Type (0, 0), BuildingBlock: OJICUG_clean_linker_0, # of connection points: 2
#     Edge 67, Type (0, 0), BuildingBlock: OJICUG_clean_linker_0, # of connection points: 2
#     Edge 68, Type (0, 0), BuildingBlock: OJICUG_clean_linker_0, # of connection points: 2
#     Edge 69, Type (0, 0), BuildingBlock: OJICUG_clean_linker_0, # of connection points: 2
#     Edge 70, Type (0, 0), BuildingBlock: OJICUG_clean_linker_0, # of connection points: 2
#     Edge 71, Type (0, 0), BuildingBlock: OJICUG_clean_linker_0, # of connection points: 2
#     Edge 72, Type (0, 0), BuildingBlock: OJICUG_clean_linker_0, # of connection points: 2
#     Edge 73, Type (0, 0), BuildingBlock: OJICUG_clean_linker_0, # of connection points: 2
#     Edge 74, Type (0, 0), BuildingBlock: OJICUG_clean_linker_0, # of connection points: 2
#     Edge 75, Type (0, 0), BuildingBlock: OJICUG_clean_linker_0, # of connection points: 2
#     Edge 76, Type (0, 0), BuildingBlock: OJICUG_clean_linker_0, # of connection points: 2
#     Edge 77, Type (0, 0), BuildingBlock: OJICUG_clean_linker_0, # of connection points: 2
#     Edge 78, Type (0, 0), BuildingBlock: OJICUG_clean_linker_0, # of connection points: 2
#     Edge 79, Type (0, 0), BuildingBlock: OJICUG_clean_linker_0, # of connection points: 2
#     Edge 80, Type (0, 0), BuildingBlock: OJICUG_clean_linker_0, # of connection points: 2
#     Edge 81, Type (0, 0), BuildingBlock: OJICUG_clean_linker_0, # of connection points: 2
#     Edge 82, Type (0, 0), BuildingBlock: OJICUG_clean_linker_0, # of connection points: 2
#     Edge 83, Type (0, 0), BuildingBlock: OJICUG_clean_linker_0, # of connection points: 2
#     Edge 84, Type (0, 0), BuildingBlock: OJICUG_clean_linker_0, # of connection points: 2
#     Edge 85, Type (0, 0), BuildingBlock: OJICUG_clean_linker_0, # of connection points: 2
#     Edge 86, Type (0, 0), BuildingBlock: OJICUG_clean_linker_0, # of connection points: 2
#     Edge 87, Type (0, 0), BuildingBlock: OJICUG_clean_linker_0, # of connection points: 2
#     Edge 88, Type (0, 0), BuildingBlock: OJICUG_clean_linker_0, # of connection points: 2
#     Edge 89, Type (0, 0), BuildingBlock: OJICUG_clean_linker_0, # of connection points: 2
#     Edge 90, Type (0, 0), BuildingBlock: OJICUG_clean_linker_0, # of connection points: 2
#     Edge 91, Type (0, 0), BuildingBlock: OJICUG_clean_linker_0, # of connection points: 2
#     Edge 92, Type (0, 0), BuildingBlock: OJICUG_clean_linker_0, # of connection points: 2
#     Edge 93, Type (0, 0), BuildingBlock: OJICUG_clean_linker_0, # of connection points: 2
#     Edge 94, Type (0, 0), BuildingBlock: OJICUG_clean_linker_0, # of connection points: 2
#     Edge 95, Type (0, 0), BuildingBlock: OJICUG_clean_linker_0, # of connection points: 2
# Relax obj value: 0.028
# Max RMSD: 0.075
# Mean RMSD: 0.075
data_MOF--net-vbb--node1-ESEHIV_clean_sbu_0--edge1-OJICUG_clean_linker_0
_symmetry_space_group_name_H-M    P1
_symmetry_Int_Tables_number       1
_symmetry_cell_setting            triclinic
loop_
_symmetry_equiv_pos_as_xyz
'x, y, z'
_cell_length_a     45.142697
_cell_length_b     26.749679
_cell_length_c     79.378162
_cell_angle_alpha  89.962776
_cell_angle_beta   89.989594
_cell_angle_gamma 90.000401
loop_
_atom_site_label
_atom_site_type_symbol
_atom_site_fract_x
_atom_site_fract_y
_atom_site_fract_z
_atom_type_partial_charge
Cu0 Cu 0.52602 0.02724 0.09331 0.0
N1 N 0.56675 0.02735 0.09727 0.0
N2 N 0.61187 0.06106 0.10038 0.0
C3 C 0.58326 0.0691 0.09619 0.0
C4 C 0.6133 0.01178 0.10417 0.0
C5 C 0.58542 0.9911 0.10225 0.0
O6 O 0.51209 0.0815 0.1076 0.0
C7 C 0.53251 1.00185 0.0599 0.0
O8 O 0.54555 0.96378 0.06729 0.0
H9 H 0.57417 0.10471 0.09233 0.0
H10 H 0.5792 0.95264 0.10451 0.0
N11 N 0.50719 0.96853 0.10028 0.0
N12 N 0.46879 0.91766 0.10515 0.0
C13 C 0.48036 0.95305 0.09494 0.0
C14 C 0.51304 0.94147 0.11417 0.0
C15 C 0.48943 0.90999 0.11719 0.0
C16 C 0.48872 0.08094 0.11661 0.0
O17 O 0.46804 0.04755 0.1137 0.0
H18 H 0.46832 0.97104 0.08482 0.0
H19 H 0.53198 0.94709 0.12229 0.0
O20 O 0.5209 0.03569 0.06911 0.0
H21 H 0.63288 0.99202 0.10834 0.0
H22 H 0.48692 0.88544 0.12794 0.0
Cu23 Cu 0.79142 0.24034 0.09326 0.0
N24 N 0.75069 0.2402 0.09725 0.0
N25 N 0.70558 0.20646 0.10037 0.0
C26 C 0.73419 0.19845 0.09617 0.0
C27 C 0.70415 0.25574 0.10416 0.0
C28 C 0.73202 0.27643 0.10223 0.0
O29 O 0.80538 0.18599 0.10751 0.0
C30 C 0.78486 0.26587 0.05985 0.0
O31 O 0.77182 0.3039 0.06725 0.0
H32 H 0.74328 0.16286 0.09231 0.0
H33 H 0.73824 0.31489 0.10448 0.0
N34 N 0.81025 0.29901 0.10024 0.0
N35 N 0.84866 0.34982 0.10513 0.0
C36 C 0.8371 0.31451 0.09491 0.0
C37 C 0.80439 0.326 0.11414 0.0
C38 C 0.828 0.35744 0.11717 0.0
C39 C 0.82879 0.18646 0.11648 0.0
O40 O 0.84948 0.21982 0.11355 0.0
H41 H 0.84915 0.29657 0.08479 0.0
H42 H 0.78543 0.32034 0.12225 0.0
O43 O 0.7965 0.23201 0.06906 0.0
H44 H 0.68457 0.27547 0.10834 0.0
H45 H 0.8305 0.38191 0.12793 0.0
Cu46 Cu 0.52613 0.24018 0.20348 0.0
N47 N 0.56685 0.24005 0.19948 0.0
N48 N 0.61196 0.20631 0.19636 0.0
C49 C 0.58336 0.1983 0.20058 0.0
C50 C 0.61338 0.25558 0.19254 0.0
C51 C 0.58551 0.27627 0.19446 0.0
O52 O 0.51216 0.18584 0.18924 0.0
C53 C 0.5327 0.26574 0.23688 0.0
O54 O 0.54573 0.30376 0.22945 0.0
H55 H 0.57427 0.16272 0.20447 0.0
H56 H 0.57929 0.31472 0.19219 0.0
N57 N 0.50729 0.29885 0.19649 0.0
N58 N 0.46887 0.34966 0.1916 0.0
C59 C 0.48046 0.31435 0.20183 0.0
C60 C 0.51312 0.32583 0.18258 0.0
C61 C 0.4895 0.35728 0.17955 0.0
C62 C 0.48877 0.18636 0.18025 0.0
O63 O 0.46809 0.21973 0.18317 0.0
H64 H 0.46842 0.29642 0.21197 0.0
H65 H 0.53206 0.32016 0.17445 0.0
O66 O 0.52107 0.23186 0.22769 0.0
H67 H 0.63295 0.27531 0.18834 0.0
H68 H 0.48698 0.38174 0.16877 0.0
Cu69 Cu 0.79153 0.0271 0.20343 0.0
N70 N 0.7508 0.02721 0.19948 0.0
N71 N 0.70567 0.06092 0.19638 0.0
C72 C 0.73429 0.06897 0.20055 0.0
C73 C 0.70423 0.01163 0.19263 0.0
C74 C 0.73212 0.99095 0.19454 0.0
O75 O 0.80546 0.08137 0.18913 0.0
C76 C 0.78507 1.00175 0.23686 0.0
O77 O 0.77201 0.96368 0.2295 0.0
H78 H 0.74339 0.10458 0.20438 0.0
H79 H 0.73833 0.95248 0.19231 0.0
N80 N 0.81035 0.96839 0.19648 0.0
N81 N 0.84875 0.91753 0.19162 0.0
C82 C 0.83719 0.95292 0.20182 0.0
C83 C 0.80448 0.94132 0.18261 0.0
C84 C 0.82809 0.90984 0.1796 0.0
C85 C 0.82885 0.08085 0.18014 0.0
O86 O 0.84953 0.04747 0.18305 0.0
H87 H 0.84925 0.97091 0.21192 0.0
H88 H 0.78552 0.94693 0.1745 0.0
O89 O 0.79668 0.03557 0.22763 0.0
H90 H 0.68465 0.99186 0.18848 0.0
H91 H 0.83057 0.88529 0.16885 0.0
Cu92 Cu 0.54122 0.99044 0.95347 0.0
N93 N 0.50049 0.99032 0.9495 0.0
N94 N 0.45538 0.9566 0.94638 0.0
C95 C 0.48399 0.94856 0.95056 0.0
C96 C 0.45394 1.0059 0.94262 0.0
C97 C 0.48181 0.02658 0.94454 0.0
O98 O 0.55517 0.93617 0.93919 0.0
C99 C 0.53473 0.01586 0.98688 0.0
O100 O 0.52168 0.05392 0.97949 0.0
H101 H 0.49309 0.91293 0.9544 0.0
H102 H 0.48802 0.06506 0.94231 0.0
N103 N 0.56004 0.04915 0.94649 0.0
N104 N 0.59844 0.10001 0.94161 0.0
C105 C 0.58688 0.06463 0.95182 0.0
C106 C 0.55418 0.07621 0.93261 0.0
C107 C 0.57779 0.10769 0.92958 0.0
C108 C 0.57855 0.93671 0.9302 0.0
O109 O 0.59923 0.97009 0.93311 0.0
H110 H 0.59893 0.04664 0.96194 0.0
H111 H 0.53523 0.0706 0.92449 0.0
O112 O 0.54633 0.98201 0.97767 0.0
H113 H 0.43435 0.02567 0.93846 0.0
H114 H 0.58028 0.13224 0.91883 0.0
Cu115 Cu 0.27585 0.77725 0.95342 0.0
N116 N 0.31658 0.7774 0.94944 0.0
N117 N 0.36169 0.81116 0.94633 0.0
C118 C 0.33308 0.81915 0.95054 0.0
C119 C 0.36312 0.76191 0.94252 0.0
C120 C 0.33525 0.74121 0.94443 0.0
O121 O 0.26188 0.83157 0.93916 0.0
C122 C 0.28241 0.75176 0.98684 0.0
O123 O 0.29546 0.71373 0.97944 0.0
H124 H 0.32398 0.85472 0.95442 0.0
H125 H 0.32903 0.70276 0.94216 0.0
N126 N 0.25702 0.71856 0.94646 0.0
N127 N 0.21862 0.66773 0.94159 0.0
C128 C 0.23019 0.70305 0.9518 0.0
C129 C 0.26287 0.69157 0.93256 0.0
C130 C 0.23925 0.66011 0.92955 0.0
C131 C 0.23849 0.83105 0.93018 0.0
O132 O 0.21782 0.79766 0.93309 0.0
H133 H 0.21816 0.72099 0.96193 0.0
H134 H 0.28181 0.69724 0.92444 0.0
O135 O 0.27077 0.78561 0.97763 0.0
H136 H 0.3827 0.7422 0.93832 0.0
H137 H 0.23674 0.63564 0.91879 0.0
Cu138 Cu 0.54129 0.77752 0.84328 0.0
N139 N 0.50056 0.7776 0.84724 0.0
N140 N 0.45543 0.81128 0.85035 0.0
C141 C 0.48405 0.81936 0.84618 0.0
C142 C 0.45399 0.76196 0.85409 0.0
C143 C 0.48188 0.74131 0.85217 0.0
O144 O 0.55521 0.8318 0.85756 0.0
C145 C 0.53484 0.75211 0.80986 0.0
O146 O 0.52182 0.71401 0.81725 0.0
H147 H 0.49314 0.855 0.84236 0.0
H148 H 0.4881 0.70283 0.85439 0.0
N149 N 0.56012 0.71883 0.85025 0.0
N150 N 0.59853 0.66797 0.85512 0.0
C151 C 0.58697 0.70336 0.84492 0.0
C152 C 0.55425 0.69174 0.86413 0.0
C153 C 0.57787 0.66027 0.86715 0.0
C154 C 0.57859 0.83127 0.86655 0.0
O155 O 0.59928 0.79791 0.86364 0.0
H156 H 0.59902 0.72137 0.8348 0.0
H157 H 0.53529 0.69734 0.87224 0.0
O158 O 0.54642 0.78597 0.81907 0.0
H159 H 0.43441 0.74217 0.85823 0.0
H160 H 0.58036 0.63571 0.8779 0.0
Cu161 Cu 0.27587 0.99054 0.84329 0.0
N162 N 0.31659 0.9904 0.84727 0.0
N163 N 0.36171 0.95665 0.85039 0.0
C164 C 0.3331 0.94866 0.84616 0.0
C165 C 0.36312 1.00589 0.85422 0.0
C166 C 0.33525 0.02659 0.8523 0.0
O167 O 0.2619 0.93619 0.85754 0.0
C168 C 0.28245 0.01606 0.80988 0.0
O169 O 0.2955 0.05407 0.81728 0.0
H170 H 0.32402 0.91309 0.84227 0.0
H171 H 0.32902 0.06502 0.85459 0.0
N172 N 0.25703 0.0492 0.85027 0.0
N173 N 0.21862 0.10001 0.85515 0.0
C174 C 0.2302 0.06471 0.84493 0.0
C175 C 0.26287 0.07617 0.86417 0.0
C176 C 0.23925 0.10761 0.86719 0.0
C177 C 0.2385 0.93667 0.86653 0.0
O178 O 0.21782 0.97005 0.86361 0.0
H179 H 0.21816 0.04679 0.8348 0.0
H180 H 0.2818 0.07049 0.87229 0.0
O181 O 0.2708 0.98221 0.81908 0.0
H182 H 0.38269 0.0256 0.85843 0.0
H183 H 0.23673 0.13207 0.87796 0.0
Cu184 Cu 0.52646 0.5278 0.59326 0.0
N185 N 0.56719 0.52791 0.59724 0.0
N186 N 0.6123 0.56163 0.60036 0.0
C187 C 0.5837 0.56965 0.59614 0.0
C188 C 0.61372 0.51237 0.60418 0.0
C189 C 0.58584 0.49169 0.60226 0.0
O190 O 0.5125 0.58211 0.60751 0.0
C191 C 0.53299 0.50227 0.55986 0.0
O192 O 0.54603 0.46424 0.56727 0.0
H193 H 0.57462 0.60525 0.59226 0.0
H194 H 0.57961 0.45324 0.60453 0.0
N195 N 0.50762 0.46912 0.60026 0.0
N196 N 0.4692 0.41832 0.60515 0.0
C197 C 0.48079 0.45362 0.59492 0.0
C198 C 0.51345 0.44215 0.61417 0.0
C199 C 0.48982 0.41071 0.6172 0.0
C200 C 0.48908 0.58163 0.61648 0.0
O201 O 0.46839 0.5483 0.61354 0.0
H202 H 0.46877 0.47156 0.58478 0.0
H203 H 0.53238 0.44782 0.62229 0.0
O204 O 0.52137 0.53614 0.56905 0.0
H205 H 0.63328 0.49263 0.60838 0.0
H206 H 0.4873 0.38624 0.62797 0.0
Cu207 Cu 0.79188 0.74082 0.5933 0.0
N208 N 0.75115 0.74071 0.59726 0.0
N209 N 0.70602 0.70701 0.60036 0.0
C210 C 0.73465 0.69896 0.5962 0.0
C211 C 0.70458 0.7563 0.60412 0.0
C212 C 0.73247 0.77697 0.6022 0.0
O213 O 0.80581 0.68652 0.60758 0.0
C214 C 0.78539 0.76621 0.55987 0.0
O215 O 0.77235 0.80428 0.56725 0.0
H216 H 0.74374 0.66334 0.59236 0.0
H217 H 0.73868 0.81544 0.60443 0.0
N218 N 0.81071 0.79952 0.60025 0.0
N219 N 0.84911 0.85037 0.60512 0.0
C220 C 0.83756 0.81498 0.59492 0.0
C221 C 0.80482 0.8266 0.61412 0.0
C222 C 0.82843 0.85808 0.61714 0.0
C223 C 0.82917 0.68705 0.6166 0.0
O224 O 0.84984 0.72047 0.6137 0.0
H225 H 0.84963 0.79697 0.58482 0.0
H226 H 0.78585 0.82101 0.62222 0.0
O227 O 0.797 0.73238 0.5691 0.0
H228 H 0.685 0.77607 0.60826 0.0
H229 H 0.8309 0.88264 0.62788 0.0
Cu230 Cu 0.52616 0.74079 0.70343 0.0
N231 N 0.56689 0.7407 0.69947 0.0
N232 N 0.61201 0.70701 0.69637 0.0
C233 C 0.58339 0.69893 0.70052 0.0
C234 C 0.61347 0.75634 0.69264 0.0
C235 C 0.58558 0.777 0.69456 0.0
O236 O 0.51224 0.68652 0.68915 0.0
C237 C 0.5326 0.76619 0.73685 0.0
O238 O 0.54562 0.80428 0.72946 0.0
H239 H 0.57428 0.66329 0.70433 0.0
H240 H 0.57937 0.81549 0.69235 0.0
N241 N 0.50733 0.7995 0.69647 0.0
N242 N 0.46893 0.85037 0.6916 0.0
C243 C 0.48048 0.81495 0.7018 0.0
C244 C 0.51321 0.82663 0.6826 0.0
C245 C 0.4896 0.85811 0.67958 0.0
C246 C 0.4889 0.6871 0.68012 0.0
O247 O 0.46823 0.72051 0.683 0.0
H248 H 0.46841 0.79691 0.7119 0.0
H249 H 0.53218 0.82107 0.67449 0.0
O250 O 0.52103 0.73232 0.72763 0.0
H251 H 0.63306 0.77613 0.68852 0.0
H252 H 0.48713 0.88271 0.66884 0.0
Cu253 Cu 0.79153 0.52761 0.70346 0.0
N254 N 0.75081 0.52779 0.69946 0.0
N255 N 0.70571 0.56158 0.69634 0.0
C256 C 0.7343 0.56954 0.70058 0.0
C257 C 0.70428 0.51235 0.69249 0.0
C258 C 0.73215 0.49163 0.69442 0.0
O259 O 0.80553 0.58195 0.68921 0.0
C260 C 0.78493 0.5021 0.73687 0.0
O261 O 0.77187 0.46409 0.72947 0.0
H262 H 0.74339 0.60509 0.70449 0.0
H263 H 0.73837 0.4532 0.69212 0.0
N264 N 0.81035 0.46894 0.69648 0.0
N265 N 0.84876 0.41812 0.6916 0.0
C266 C 0.83718 0.4534 0.70182 0.0
C267 C 0.80453 0.44201 0.68256 0.0
C268 C 0.82815 0.41056 0.67954 0.0
C269 C 0.82896 0.58147 0.68025 0.0
O270 O 0.84964 0.54812 0.6832 0.0
H271 H 0.8492 0.47129 0.71196 0.0
H272 H 0.78561 0.44773 0.67443 0.0
O273 O 0.7966 0.53593 0.72766 0.0
H274 H 0.68472 0.49266 0.68827 0.0
H275 H 0.83067 0.38614 0.66877 0.0
Cu276 Cu 0.5418 0.49054 0.45343 0.0
N277 N 0.50108 0.49044 0.44946 0.0
N278 N 0.45596 0.45671 0.44636 0.0
C279 C 0.48456 0.4487 0.45057 0.0
C280 C 0.45454 0.50598 0.44253 0.0
C281 C 0.48242 0.52665 0.44444 0.0
O282 O 0.55575 0.43623 0.43917 0.0
C283 C 0.53529 0.51604 0.48684 0.0
O284 O 0.52225 0.55408 0.47943 0.0
H285 H 0.49364 0.41311 0.45446 0.0
H286 H 0.48865 0.5651 0.44216 0.0
N287 N 0.56065 0.54922 0.44645 0.0
N288 N 0.59907 0.60003 0.44157 0.0
C289 C 0.58748 0.56471 0.45179 0.0
C290 C 0.55483 0.57622 0.43254 0.0
C291 C 0.57845 0.60767 0.42952 0.0
C292 C 0.57913 0.43676 0.43017 0.0
O293 O 0.59981 0.47013 0.43308 0.0
H294 H 0.5995 0.54675 0.46193 0.0
H295 H 0.5359 0.57057 0.42442 0.0
O296 O 0.5469 0.48216 0.47764 0.0
H297 H 0.43498 0.52571 0.43833 0.0
H298 H 0.58098 0.63216 0.41875 0.0
Cu299 Cu 0.27638 0.27751 0.45349 0.0
N300 N 0.31711 0.27763 0.44952 0.0
N301 N 0.36223 0.31134 0.4464 0.0
C302 C 0.33361 0.31939 0.45057 0.0
C303 C 0.36367 0.26204 0.44265 0.0
C304 C 0.33579 0.24137 0.44457 0.0
O305 O 0.26243 0.33182 0.43921 0.0
C306 C 0.28289 0.25211 0.48691 0.0
O307 O 0.29593 0.21404 0.47953 0.0
H308 H 0.32452 0.35501 0.4544 0.0
H309 H 0.32958 0.20289 0.44236 0.0
N310 N 0.25756 0.21882 0.44653 0.0
N311 N 0.21916 0.16797 0.44164 0.0
C312 C 0.2307 0.20334 0.45185 0.0
C313 C 0.26345 0.19176 0.43265 0.0
C314 C 0.23984 0.16029 0.42963 0.0
C315 C 0.23904 0.33132 0.43022 0.0
O316 O 0.21836 0.29796 0.43315 0.0
H317 H 0.21863 0.22133 0.46195 0.0
H318 H 0.28242 0.19737 0.42455 0.0
O319 O 0.27127 0.28594 0.47768 0.0
H320 H 0.38326 0.24227 0.43851 0.0
H321 H 0.23737 0.13575 0.41888 0.0
Cu322 Cu 0.54179 0.27752 0.34329 0.0
N323 N 0.50106 0.27765 0.34728 0.0
N324 N 0.45595 0.31139 0.3504 0.0
C325 C 0.48456 0.31939 0.34618 0.0
C326 C 0.45452 0.26213 0.35423 0.0
C327 C 0.4824 0.24144 0.35231 0.0
O328 O 0.55575 0.33184 0.35753 0.0
C329 C 0.53521 0.25197 0.30989 0.0
O330 O 0.52218 0.21394 0.31732 0.0
H331 H 0.49364 0.35498 0.34229 0.0
H332 H 0.48862 0.20299 0.35459 0.0
N333 N 0.56063 0.21884 0.35028 0.0
N334 N 0.59904 0.16802 0.35516 0.0
C335 C 0.58745 0.20334 0.34493 0.0
C336 C 0.55479 0.19185 0.36419 0.0
C337 C 0.57842 0.1604 0.36721 0.0
C338 C 0.57913 0.33131 0.36653 0.0
O339 O 0.5998 0.29791 0.36362 0.0
H340 H 0.59948 0.22128 0.3348 0.0
H341 H 0.53586 0.19751 0.37231 0.0
O342 O 0.54685 0.28585 0.31908 0.0
H343 H 0.43495 0.24241 0.35843 0.0
H344 H 0.58093 0.13592 0.37798 0.0
Cu345 Cu 0.2764 0.49065 0.34329 0.0
N346 N 0.31713 0.49053 0.34724 0.0
N347 N 0.36225 0.45681 0.35035 0.0
C348 C 0.33363 0.44877 0.34618 0.0
C349 C 0.36369 0.50611 0.3541 0.0
C350 C 0.33582 0.52679 0.35218 0.0
O351 O 0.26246 0.43638 0.35758 0.0
C352 C 0.28287 0.51602 0.30986 0.0
O353 O 0.29593 0.55409 0.31722 0.0
H354 H 0.32453 0.41315 0.34236 0.0
H355 H 0.32961 0.56526 0.35441 0.0
N356 N 0.25758 0.54936 0.35025 0.0
N357 N 0.21919 0.60022 0.35512 0.0
C358 C 0.23074 0.56484 0.34492 0.0
C359 C 0.26347 0.57642 0.36412 0.0
C360 C 0.23986 0.60789 0.36714 0.0
C361 C 0.23906 0.43688 0.36656 0.0
O362 O 0.21837 0.47023 0.36363 0.0
H363 H 0.21867 0.54685 0.33482 0.0
H364 H 0.28243 0.5708 0.37223 0.0
O365 O 0.27126 0.48221 0.31909 0.0
H366 H 0.38328 0.52587 0.35824 0.0
H367 H 0.23738 0.63243 0.37789 0.0
Cu368 Cu 1.02644 0.02783 0.59328 0.0
N369 N 0.06717 0.02799 0.59726 0.0
N370 N 0.11227 0.06177 0.6004 0.0
C371 C 0.08367 0.06975 0.59616 0.0
C372 C 0.11369 0.01252 0.60424 0.0
C373 C 0.08582 0.99181 0.60231 0.0
O374 O 1.01246 0.08213 0.60753 0.0
C375 C 1.03302 1.00232 0.55987 0.0
O376 O 0.04611 0.96434 0.56729 0.0
H377 H 0.07458 0.10532 0.59226 0.0
H378 H 0.0796 0.95337 0.6046 0.0
N379 N 1.00763 0.96913 0.60027 0.0
N380 N 0.96922 0.91828 0.60516 0.0
C381 C 0.98081 0.95359 0.59493 0.0
C382 C 1.01345 0.94218 0.61419 0.0
C383 C 0.98984 0.91071 0.61722 0.0
C384 C 0.98904 0.0816 0.6165 0.0
O385 O 0.96837 0.04824 0.61356 0.0
H386 H 0.96879 0.9715 0.58478 0.0
H387 H 1.03237 0.94789 0.62232 0.0
O388 O 1.02136 0.03616 0.56907 0.0
H389 H 0.13325 0.99281 0.60846 0.0
H390 H 0.98731 0.88626 0.62799 0.0
Cu391 Cu 0.29181 0.24101 0.59333 0.0
N392 N 0.25108 0.24091 0.59729 0.0
N393 N 0.20596 0.2072 0.6004 0.0
C394 C 0.23458 0.19915 0.59624 0.0
C395 C 0.20451 0.2565 0.60414 0.0
C396 C 0.23239 0.27718 0.60222 0.0
O397 O 0.30574 0.18671 0.60761 0.0
C398 C 0.28531 0.2664 0.5599 0.0
O399 O 0.27227 0.30448 0.56728 0.0
H400 H 0.24368 0.16353 0.59242 0.0
H401 H 0.2386 0.31566 0.60444 0.0
N402 N 0.31065 0.29971 0.60027 0.0
N403 N 0.34906 0.35054 0.60514 0.0
C404 C 0.3375 0.31516 0.59494 0.0
C405 C 0.30477 0.3268 0.61414 0.0
C406 C 0.32839 0.35826 0.61716 0.0
C407 C 0.3291 0.18724 0.61662 0.0
O408 O 0.34978 0.22065 0.61372 0.0
H409 H 0.34956 0.29714 0.58484 0.0
H410 H 0.2858 0.32122 0.62225 0.0
O411 O 0.29692 0.23257 0.56913 0.0
H412 H 0.18491 0.27627 0.60827 0.0
H413 H 0.33087 0.38281 0.6279 0.0
Cu414 Cu 1.02612 0.24069 0.70346 0.0
N415 N 0.06686 0.24061 0.6995 0.0
N416 N 0.11198 0.20692 0.69639 0.0
C417 C 0.08336 0.19885 0.70056 0.0
C418 C 0.11342 0.25623 0.69264 0.0
C419 C 0.08553 0.27689 0.69456 0.0
O420 O 1.01221 0.18642 0.68918 0.0
C421 C 1.03258 0.26609 0.73688 0.0
O422 O 0.04562 0.30416 0.72949 0.0
H423 H 0.07427 0.16321 0.70439 0.0
H424 H 0.07932 0.31537 0.69233 0.0
N425 N 1.00729 0.29939 0.69649 0.0
N426 N 0.96889 0.35026 0.69162 0.0
C427 C 0.98044 0.31485 0.70182 0.0
C428 C 1.01317 0.32651 0.68262 0.0
C429 C 0.98956 0.35798 0.6796 0.0
C430 C 0.98885 0.18698 0.68015 0.0
O431 O 0.96818 0.22038 0.68305 0.0
H432 H 0.96838 0.29682 0.71193 0.0
H433 H 1.03214 0.32093 0.67451 0.0
O434 O 1.02099 0.23223 0.72766 0.0
H435 H 0.133 0.27602 0.68849 0.0
H436 H 0.98709 0.38257 0.66885 0.0
Cu437 Cu 0.29154 0.02766 0.70347 0.0
N438 N 0.25082 0.0278 0.69948 0.0
N439 N 0.2057 0.06155 0.69636 0.0
C440 C 0.23431 0.06954 0.70058 0.0
C441 C 0.20428 0.0123 0.69254 0.0
C442 C 0.23216 0.99161 0.69446 0.0
O443 O 0.30552 0.08202 0.68922 0.0
C444 C 0.28495 1.00212 0.73688 0.0
O445 O 0.2719 0.96411 0.72948 0.0
H446 H 0.24339 0.10512 0.70447 0.0
H447 H 0.23839 0.95317 0.69218 0.0
N448 N 0.31038 0.969 0.69648 0.0
N449 N 0.3488 0.91821 0.69159 0.0
C450 C 0.33721 0.95348 0.70182 0.0
C451 C 0.30455 0.94207 0.68257 0.0
C452 C 0.32818 0.91064 0.67954 0.0
C453 C 0.32894 0.08157 0.68026 0.0
O454 O 0.34963 0.04823 0.6832 0.0
H455 H 0.34924 0.97139 0.71196 0.0
H456 H 0.28562 0.94777 0.67445 0.0
O457 O 0.29661 0.03597 0.72767 0.0
H458 H 0.18472 0.99258 0.68833 0.0
H459 H 0.3307 0.88622 0.66877 0.0
Cu460 Cu 0.04181 0.99052 0.45345 0.0
N461 N 1.00109 0.99037 0.44947 0.0
N462 N 0.95599 0.9566 0.44634 0.0
C463 C 0.98458 0.94862 0.45058 0.0
C464 C 0.95456 1.00585 0.4425 0.0
C465 C 0.98243 0.02656 0.44442 0.0
O466 O 0.05578 0.93622 0.43919 0.0
C467 C 0.03525 0.01601 0.48685 0.0
O468 O 1.02216 0.054 0.47944 0.0
H469 H 0.99367 0.91305 0.45448 0.0
H470 H 0.98865 0.065 0.44212 0.0
N471 N 0.06064 0.04922 0.44646 0.0
N472 N 0.09904 0.10007 0.44159 0.0
C473 C 0.08745 0.06475 0.45181 0.0
C474 C 0.05482 0.07619 0.43255 0.0
C475 C 0.07843 0.10766 0.42953 0.0
C476 C 0.07916 0.93678 0.43019 0.0
O477 O 0.09982 0.9702 0.43309 0.0
H478 H 0.09948 0.04682 0.46195 0.0
H479 H 0.0359 0.07051 0.42442 0.0
O480 O 0.0469 0.98217 0.47766 0.0
H481 H 0.935 0.02555 0.43827 0.0
H482 H 0.08096 0.13214 0.41876 0.0
Cu483 Cu 0.77645 0.77733 0.45346 0.0
N484 N 0.81718 0.77745 0.44948 0.0
N485 N 0.8623 0.81117 0.44637 0.0
C486 C 0.83367 0.81922 0.45053 0.0
C487 C 0.86375 0.76186 0.44263 0.0
C488 C 0.83586 0.74119 0.44455 0.0
O489 O 0.7625 0.83164 0.43919 0.0
C490 C 0.78296 0.75192 0.48688 0.0
O491 O 0.796 0.71385 0.47951 0.0
H492 H 0.82457 0.85484 0.45435 0.0
H493 H 0.82966 0.7027 0.44234 0.0
N494 N 0.75762 0.71864 0.4465 0.0
N495 N 0.71921 0.66782 0.44162 0.0
C496 C 0.73077 0.70318 0.45182 0.0
C497 C 0.7635 0.69158 0.43262 0.0
C498 C 0.73988 0.66013 0.4296 0.0
C499 C 0.7391 0.83116 0.43021 0.0
O500 O 0.71841 0.7978 0.43314 0.0
H501 H 0.7187 0.72117 0.46193 0.0
H502 H 0.78247 0.69719 0.42452 0.0
O503 O 0.77134 0.78575 0.47766 0.0
H504 H 0.88334 0.7421 0.4385 0.0
H505 H 0.73741 0.6356 0.41885 0.0
Cu506 Cu 0.0418 0.77755 0.34331 0.0
N507 N 1.00107 0.77768 0.3473 0.0
N508 N 0.95596 0.81142 0.35042 0.0
C509 C 0.98456 0.81942 0.3462 0.0
C510 C 0.95454 0.76216 0.35425 0.0
C511 C 0.98242 0.74147 0.35233 0.0
O512 O 0.05576 0.83188 0.35755 0.0
C513 C 0.03522 0.752 0.30991 0.0
O514 O 1.02219 0.71397 0.31734 0.0
H515 H 0.99365 0.855 0.3423 0.0
H516 H 0.98864 0.70303 0.35462 0.0
N517 N 0.06064 0.71888 0.35029 0.0
N518 N 0.09906 0.66806 0.35517 0.0
C519 C 0.08747 0.70338 0.34495 0.0
C520 C 0.05481 0.69189 0.36421 0.0
C521 C 0.07844 0.66044 0.36723 0.0
C522 C 0.07915 0.83135 0.36654 0.0
O523 O 0.09982 0.79797 0.36363 0.0
H524 H 0.09949 0.72132 0.33481 0.0
H525 H 0.03589 0.69755 0.37233 0.0
O526 O 0.04686 0.78588 0.31909 0.0
H527 H 0.93497 0.74244 0.35847 0.0
H528 H 0.08096 0.63597 0.378 0.0
Cu529 Cu 0.7764 0.99062 0.34329 0.0
N530 N 0.81713 0.99052 0.34725 0.0
N531 N 0.86225 0.95681 0.35036 0.0
C532 C 0.83363 0.94876 0.34619 0.0
C533 C 0.86369 1.00611 0.3541 0.0
C534 C 0.83581 0.02678 0.35218 0.0
O535 O 0.76246 0.93633 0.35758 0.0
C536 C 0.78287 0.016 0.30986 0.0
O537 O 0.79593 0.05407 0.31722 0.0
H538 H 0.82453 0.91313 0.34237 0.0
H539 H 0.82959 0.06526 0.3544 0.0
N540 N 0.75757 0.04932 0.35025 0.0
N541 N 0.71917 0.10017 0.35512 0.0
C542 C 0.73072 0.06479 0.34492 0.0
C543 C 0.76345 0.07638 0.36412 0.0
C544 C 0.73983 0.10785 0.36715 0.0
C545 C 0.73907 0.93683 0.36657 0.0
O546 O 0.71839 0.9702 0.36365 0.0
H547 H 0.71866 0.0468 0.33482 0.0
H548 H 0.78241 0.07077 0.37223 0.0
O549 O 0.77126 0.98218 0.31909 0.0
H550 H 0.88327 0.02588 0.35825 0.0
H551 H 0.73735 0.13239 0.37789 0.0
Cu552 Cu 1.02604 0.52719 0.09334 0.0
N553 N 0.06677 0.52729 0.0973 0.0
N554 N 0.11189 0.56102 0.1004 0.0
C555 C 0.08328 0.56904 0.0962 0.0
C556 C 0.11332 0.51175 0.10421 0.0
C557 C 0.08544 0.49107 0.10231 0.0
O558 O 1.01211 0.58146 0.10762 0.0
C559 C 1.03253 0.50178 0.05993 0.0
O560 O 0.04558 0.46372 0.06732 0.0
H561 H 0.07419 0.60463 0.09233 0.0
H562 H 0.07921 0.45262 0.10458 0.0
N563 N 1.00721 0.46849 0.10031 0.0
N564 N 0.9688 0.41764 0.10518 0.0
C565 C 0.98038 0.45301 0.09497 0.0
C566 C 1.01305 0.44143 0.11421 0.0
C567 C 0.98942 0.40996 0.11722 0.0
C568 C 0.98873 0.5809 0.11663 0.0
O569 O 0.96806 0.54752 0.11372 0.0
H570 H 0.96834 0.471 0.08484 0.0
H571 H 1.03198 0.44705 0.12233 0.0
O572 O 1.02093 0.53563 0.06914 0.0
H573 H 0.13289 0.49201 0.1084 0.0
H574 H 0.98691 0.38543 0.12798 0.0
Cu575 Cu 0.29144 0.74028 0.09325 0.0
N576 N 0.25072 0.74014 0.09723 0.0
N577 N 0.2056 0.70641 0.10036 0.0
C578 C 0.23422 0.69838 0.09617 0.0
C579 C 0.20416 0.7557 0.10412 0.0
C580 C 0.23204 0.77638 0.1022 0.0
O581 O 0.30541 0.68594 0.1075 0.0
C582 C 0.28489 0.76579 0.05983 0.0
O583 O 0.27185 0.80383 0.06723 0.0
H584 H 0.24331 0.66277 0.09233 0.0
H585 H 0.23825 0.81485 0.10443 0.0
N586 N 0.31027 0.79895 0.10022 0.0
N587 N 0.34867 0.84978 0.10511 0.0
C588 C 0.33711 0.81446 0.09489 0.0
C589 C 0.3044 0.82595 0.11411 0.0
C590 C 0.32801 0.8574 0.11714 0.0
C591 C 0.32881 0.68642 0.11648 0.0
O592 O 0.34949 0.71979 0.11355 0.0
H593 H 0.34917 0.79651 0.08477 0.0
H594 H 0.28544 0.82029 0.12222 0.0
O595 O 0.29653 0.73194 0.06904 0.0
H596 H 0.18458 0.77545 0.10829 0.0
H597 H 0.3305 0.88189 0.1279 0.0
Cu598 Cu 1.02613 0.74018 0.2035 0.0
N599 N 0.06685 0.74005 0.1995 0.0
N600 N 0.11196 0.70632 0.19638 0.0
C601 C 0.08336 0.6983 0.2006 0.0
C602 C 0.11339 0.75558 0.19256 0.0
C603 C 0.08551 0.77627 0.19448 0.0
O604 O 1.01216 0.68584 0.18926 0.0
C605 C 1.0327 0.76575 0.2369 0.0
O606 O 0.04573 0.80378 0.22947 0.0
H607 H 0.07427 0.66271 0.20448 0.0
H608 H 0.07929 0.81472 0.19221 0.0
N609 N 1.00729 0.79885 0.1965 0.0
N610 N 0.96887 0.84966 0.19161 0.0
C611 C 0.98046 0.81435 0.20184 0.0
C612 C 1.01313 0.82583 0.18259 0.0
C613 C 0.9895 0.85727 0.17956 0.0
C614 C 0.98877 0.68635 0.18027 0.0
O615 O 0.9681 0.71974 0.18319 0.0
H616 H 0.96842 0.79642 0.21198 0.0
H617 H 1.03206 0.82016 0.17447 0.0
O618 O 1.02107 0.73187 0.22771 0.0
H619 H 0.13295 0.77532 0.18836 0.0
H620 H 0.98699 0.88174 0.16879 0.0
Cu621 Cu 0.29153 0.52709 0.20343 0.0
N622 N 0.25079 0.52721 0.19948 0.0
N623 N 0.20567 0.56092 0.19638 0.0
C624 C 0.23429 0.56896 0.20055 0.0
C625 C 0.20423 0.51163 0.19263 0.0
C626 C 0.23211 0.49095 0.19454 0.0
O627 O 0.30546 0.58136 0.18913 0.0
C628 C 0.28507 0.50175 0.23686 0.0
O629 O 0.27201 0.46368 0.2295 0.0
H630 H 0.24339 0.60458 0.20438 0.0
H631 H 0.23833 0.45249 0.1923 0.0
N632 N 0.31035 0.46838 0.19648 0.0
N633 N 0.34874 0.41752 0.19161 0.0
C634 C 0.33719 0.45291 0.20181 0.0
C635 C 0.30447 0.44131 0.18261 0.0
C636 C 0.32808 0.40983 0.17959 0.0
C637 C 0.32885 0.58084 0.18014 0.0
O638 O 0.34953 0.54747 0.18306 0.0
H639 H 0.34925 0.4709 0.21192 0.0
H640 H 0.28552 0.44692 0.1745 0.0
O641 O 0.29668 0.53556 0.22762 0.0
H642 H 0.18465 0.49187 0.18848 0.0
H643 H 0.33057 0.38528 0.16885 0.0
Cu644 Cu 0.04125 0.49033 0.9535 0.0
N645 N 1.00052 0.49024 0.94953 0.0
N646 N 0.9554 0.45656 0.94642 0.0
C647 C 0.98401 0.44849 0.9506 0.0
C648 C 0.95397 0.50586 0.94266 0.0
C649 C 0.98185 0.52652 0.94458 0.0
O650 O 0.05519 0.43605 0.93922 0.0
C651 C 0.03477 0.51577 0.98691 0.0
O652 O 1.02173 0.55384 0.97952 0.0
H653 H 0.9931 0.41286 0.95443 0.0
H654 H 0.98808 0.56499 0.94234 0.0
N655 N 0.06009 0.54903 0.94652 0.0
N656 N 0.09849 0.59987 0.94163 0.0
C657 C 0.08693 0.5645 0.95184 0.0
C658 C 0.05422 0.57609 0.93263 0.0
C659 C 0.07784 0.60755 0.9296 0.0
C660 C 0.07857 0.43657 0.93023 0.0
O661 O 0.09926 0.46993 0.93315 0.0
H662 H 0.09898 0.54651 0.96196 0.0
H663 H 0.03526 0.57048 0.92452 0.0
O664 O 0.04637 0.48192 0.9777 0.0
H665 H 0.9344 0.52564 0.9385 0.0
H666 H 0.08033 0.63209 0.91884 0.0
Cu667 Cu 0.77582 0.27735 0.95344 0.0
N668 N 0.81655 0.27747 0.94946 0.0
N669 N 0.86167 0.3112 0.94636 0.0
C670 C 0.83306 0.31921 0.95056 0.0
C671 C 0.86309 0.26194 0.94255 0.0
C672 C 0.83521 0.24126 0.94446 0.0
O673 O 0.76187 0.33168 0.93918 0.0
C674 C 0.78237 0.25186 0.98685 0.0
O675 O 0.7954 0.21382 0.97946 0.0
H676 H 0.82397 0.35479 0.95444 0.0
H677 H 0.82899 0.20282 0.94218 0.0
N678 N 0.75698 0.21868 0.94647 0.0
N679 N 0.71857 0.16787 0.9416 0.0
C680 C 0.73015 0.20318 0.95181 0.0
C681 C 0.76283 0.19169 0.93257 0.0
C682 C 0.73921 0.16024 0.92955 0.0
C683 C 0.73848 0.33119 0.93019 0.0
O684 O 0.7178 0.29781 0.93311 0.0
H685 H 0.71811 0.22112 0.96194 0.0
H686 H 0.78177 0.19735 0.92445 0.0
O687 O 0.77073 0.28571 0.97764 0.0
H688 H 0.88267 0.24221 0.93836 0.0
H689 H 0.7367 0.13577 0.91879 0.0
Cu690 Cu 0.04127 0.27744 0.84331 0.0
N691 N 1.00054 0.27756 0.84727 0.0
N692 N 0.95542 0.31129 0.85038 0.0
C693 C 0.98403 0.31931 0.84618 0.0
C694 C 0.95398 0.26201 0.85417 0.0
C695 C 0.98186 0.24132 0.85226 0.0
O696 O 0.05521 0.33171 0.85758 0.0
C697 C 0.0348 0.25204 0.80989 0.0
O698 O 1.02174 0.21397 0.81728 0.0
H699 H 0.99313 0.35492 0.84232 0.0
H700 H 0.98808 0.20286 0.85452 0.0
N701 N 0.06009 0.21873 0.85028 0.0
N702 N 0.09849 0.16787 0.85515 0.0
C703 C 0.08693 0.20325 0.84494 0.0
C704 C 0.05422 0.19167 0.86417 0.0
C705 C 0.07784 0.16019 0.86719 0.0
C706 C 0.07859 0.33116 0.86658 0.0
O707 O 0.09926 0.29778 0.86366 0.0
H708 H 0.09898 0.22124 0.83482 0.0
H709 H 0.03527 0.19728 0.87228 0.0
O710 O 0.0464 0.28588 0.8191 0.0
H711 H 0.93441 0.24226 0.85835 0.0
H712 H 0.08033 0.13565 0.87794 0.0
Cu713 Cu 0.77588 0.49059 0.84328 0.0
N714 N 0.81661 0.49044 0.84726 0.0
N715 N 0.86172 0.4567 0.85037 0.0
C716 C 0.83311 0.44869 0.84618 0.0
C717 C 0.86316 0.50598 0.85415 0.0
C718 C 0.83528 0.52667 0.85223 0.0
O719 O 0.76191 0.43626 0.85755 0.0
C720 C 0.78245 0.51607 0.80987 0.0
O721 O 0.79549 0.5541 0.81726 0.0
H722 H 0.82402 0.41309 0.84233 0.0
H723 H 0.82907 0.56513 0.85448 0.0
N724 N 0.75705 0.54927 0.85025 0.0
N725 N 0.71865 0.60011 0.85512 0.0
C726 C 0.73022 0.56478 0.84491 0.0
C727 C 0.76291 0.57627 0.86414 0.0
C728 C 0.73929 0.60773 0.86716 0.0
C729 C 0.73852 0.43677 0.86653 0.0
O730 O 0.71784 0.47016 0.86361 0.0
H731 H 0.71818 0.54683 0.83479 0.0
H732 H 0.78185 0.57061 0.87226 0.0
O733 O 0.7708 0.48223 0.81908 0.0
H734 H 0.88274 0.52572 0.85832 0.0
H735 H 0.73678 0.63221 0.87792 0.0
C736 C 0.51493 0.12218 0.14053 0.0
C737 C 0.48815 0.10984 0.13252 0.0
H738 H 0.53604 0.15425 0.16206 0.0
C739 C 0.46131 0.12144 0.14062 0.0
H740 H 0.53601 0.11306 0.13477 0.0
C741 C 0.46132 0.14581 0.15628 0.0
C742 C 0.48818 0.15743 0.16435 0.0
H743 H 0.44034 0.11194 0.13481 0.0
H744 H 0.44037 0.1553 0.1621 0.0
C745 C 0.51495 0.14511 0.15632 0.0
C746 C 0.80263 0.12216 0.15622 0.0
C747 C 0.82942 0.1098 0.16422 0.0
H748 H 0.78153 0.15431 0.13468 0.0
C749 C 0.85626 0.12142 0.15612 0.0
H750 H 0.78155 0.11302 0.16198 0.0
C751 C 0.85625 0.14584 0.14046 0.0
C752 C 0.82939 0.15749 0.13239 0.0
H753 H 0.87722 0.11189 0.16193 0.0
H754 H 0.8772 0.15535 0.13463 0.0
C755 C 0.80262 0.14514 0.14042 0.0
C756 C 0.606 0.87181 0.89055 0.0
C757 C 0.57916 0.86018 0.88246 0.0
H758 H 0.62695 0.90569 0.91202 0.0
C759 C 0.55238 0.87251 0.89048 0.0
H760 H 0.62697 0.86232 0.88473 0.0
C761 C 0.55237 0.89545 0.90627 0.0
C762 C 0.57914 0.90779 0.91429 0.0
H763 H 0.5313 0.86337 0.88473 0.0
H764 H 0.53128 0.90458 0.91202 0.0
C765 C 0.606 0.89618 0.9062 0.0
C766 C 0.21106 0.89606 0.89052 0.0
C767 C 0.23792 0.90771 0.88243 0.0
H768 H 0.1901 0.86211 0.912 0.0
C769 C 0.26469 0.89537 0.89046 0.0
H770 H 0.19011 0.90556 0.8847 0.0
C771 C 0.26469 0.87239 0.90625 0.0
C772 C 0.23791 0.86002 0.91427 0.0
H773 H 0.28578 0.90453 0.88471 0.0
H774 H 0.28577 0.86325 0.912 0.0
C775 C 0.21106 0.87164 0.90618 0.0
C776 C 0.51521 0.62282 0.64044 0.0
C777 C 0.48846 0.61055 0.63239 0.0
H778 H 0.53623 0.65484 0.66201 0.0
C779 C 0.46158 0.62223 0.64044 0.0
H780 H 0.53631 0.61363 0.63472 0.0
C781 C 0.46154 0.64661 0.65609 0.0
C782 C 0.48836 0.65816 0.66421 0.0
H783 H 0.44064 0.61278 0.63459 0.0
H784 H 0.44056 0.65616 0.66189 0.0
C785 C 0.51516 0.64576 0.65623 0.0
C786 C 0.85647 0.6221 0.65629 0.0
C787 C 0.8296 0.61042 0.66434 0.0
H788 H 0.8775 0.65606 0.63483 0.0
C789 C 0.80285 0.62272 0.65629 0.0
H790 H 0.87741 0.61262 0.66214 0.0
C791 C 0.8029 0.64569 0.64049 0.0
C792 C 0.8297 0.65809 0.63251 0.0
H793 H 0.78174 0.61354 0.66201 0.0
H794 H 0.78183 0.6548 0.63471 0.0
C795 C 0.85653 0.64651 0.64063 0.0
C796 C 0.60656 0.39622 0.40618 0.0
C797 C 0.57971 0.40785 0.41426 0.0
H798 H 0.62752 0.36233 0.3847 0.0
C799 C 0.55293 0.39553 0.40624 0.0
H800 H 0.62752 0.4057 0.412 0.0
C801 C 0.55293 0.3726 0.39045 0.0
C802 C 0.57971 0.36024 0.38243 0.0
H803 H 0.53185 0.40468 0.41199 0.0
H804 H 0.53185 0.36348 0.3847 0.0
C805 C 0.60656 0.37184 0.39052 0.0
C806 C 0.21162 0.3963 0.39056 0.0
C807 C 0.23847 0.40795 0.38248 0.0
H808 H 0.19065 0.36238 0.41205 0.0
C809 C 0.26524 0.39561 0.3905 0.0
H810 H 0.19066 0.40581 0.38474 0.0
C811 C 0.26524 0.37264 0.4063 0.0
C812 C 0.23846 0.36027 0.41431 0.0
H813 H 0.28633 0.40476 0.38475 0.0
H814 H 0.28632 0.3635 0.41205 0.0
C815 C 0.21161 0.3719 0.40623 0.0
C816 C 1.01517 0.1228 0.64046 0.0
C817 C 0.98842 0.1105 0.63241 0.0
H818 H 0.03619 0.15483 0.66202 0.0
C819 C 0.96154 0.12214 0.64047 0.0
H820 H 0.03627 0.11365 0.63473 0.0
C821 C 0.9615 0.14649 0.65613 0.0
C822 C 0.98832 0.15808 0.66424 0.0
H823 H 0.9406 0.11266 0.63463 0.0
H824 H 0.94052 0.15601 0.66193 0.0
C825 C 1.01512 0.14572 0.65625 0.0
C826 C 0.30285 0.14585 0.64052 0.0
C827 C 0.32965 0.15826 0.63253 0.0
H828 H 0.28171 0.11366 0.66203 0.0
C829 C 0.35648 0.14667 0.64064 0.0
H830 H 0.28178 0.15497 0.63474 0.0
C831 C 0.35644 0.12223 0.6563 0.0
C832 C 0.32957 0.11054 0.66435 0.0
H833 H 0.37745 0.15623 0.63484 0.0
H834 H 0.37738 0.11275 0.66214 0.0
C835 C 0.30281 0.12286 0.65631 0.0
C836 C 0.05295 0.87259 0.39047 0.0
C837 C 0.07973 0.86028 0.38245 0.0
H838 H 1.03187 0.90464 0.41202 0.0
C839 C 0.10658 0.8719 0.39053 0.0
H840 H 1.03187 0.86344 0.38473 0.0
C841 C 0.10658 0.89627 0.40619 0.0
C842 C 0.07974 0.90787 0.41428 0.0
H843 H 0.12754 0.86242 0.3847 0.0
H844 H 0.12754 0.90578 0.412 0.0
C845 C 0.05296 0.89552 0.40627 0.0
C846 C 0.71165 0.87178 0.40622 0.0
C847 C 0.73851 0.86013 0.4143 0.0
H848 H 0.69068 0.90574 0.38475 0.0
C849 C 0.76528 0.87249 0.40628 0.0
H850 H 0.6907 0.86226 0.41205 0.0
C851 C 0.76527 0.89549 0.39049 0.0
C852 C 0.73849 0.90786 0.38248 0.0
H853 H 0.78637 0.86333 0.41202 0.0
H854 H 0.78635 0.90464 0.38473 0.0
C855 C 0.71164 0.89622 0.39057 0.0
C856 C 1.01496 0.64508 0.15634 0.0
C857 C 0.98818 0.65742 0.16437 0.0
H858 H 0.03603 0.61301 0.1348 0.0
C859 C 0.96133 0.6458 0.15629 0.0
H860 H 0.03604 0.65422 0.16209 0.0
C861 C 0.96132 0.62142 0.14064 0.0
C862 C 0.98816 0.60981 0.13254 0.0
H863 H 0.94037 0.6553 0.16212 0.0
H864 H 0.94036 0.61193 0.13482 0.0
C865 C 1.01495 0.62215 0.14055 0.0
C866 C 0.35627 0.62141 0.15613 0.0
C867 C 0.32943 0.60978 0.16422 0.0
H868 H 0.37722 0.65534 0.13464 0.0
C869 C 0.30264 0.62213 0.15621 0.0
H870 H 0.37723 0.6119 0.16194 0.0
C871 C 0.30263 0.6451 0.14041 0.0
C872 C 0.32941 0.65745 0.13239 0.0
H873 H 0.28156 0.61298 0.16196 0.0
H874 H 0.28154 0.65425 0.13467 0.0
C875 C 0.35626 0.64582 0.14047 0.0
C876 C 0.05238 0.37241 0.89051 0.0
C877 C 0.07916 0.36007 0.88249 0.0
H878 H 1.03129 0.40448 0.91205 0.0
C879 C 0.10601 0.37167 0.89058 0.0
H880 H 1.0313 0.36329 0.88476 0.0
C881 C 0.10601 0.39603 0.90624 0.0
C882 C 0.07916 0.40766 0.91432 0.0
H883 H 0.12697 0.36216 0.88476 0.0
H884 H 0.12696 0.40552 0.91206 0.0
C885 C 0.05238 0.39534 0.9063 0.0
C886 C 0.76469 0.37249 0.90626 0.0
C887 C 0.7379 0.36014 0.91428 0.0
H888 H 0.78578 0.4046 0.88471 0.0
C889 C 0.71106 0.37178 0.90619 0.0
H890 H 0.78577 0.36333 0.91201 0.0
C891 C 0.71107 0.3962 0.89053 0.0
C892 C 0.73792 0.40782 0.88244 0.0
H893 H 0.6901 0.36228 0.91201 0.0
H894 H 0.69011 0.40572 0.88471 0.0
C895 C 0.76469 0.39546 0.89046 0.0
C896 C 0.39392 0.87594 0.12028 0.0
C897 C 0.37882 0.86774 0.10504 0.0
H898 H 0.43438 0.89773 0.13225 0.0
C899 C 0.39399 0.87561 0.0898 0.0
H900 H 0.38303 0.86953 0.13223 0.0
C901 C 0.42351 0.8919 0.0898 0.0
C902 C 0.43864 0.89968 0.10506 0.0
H903 H 0.38288 0.8696 0.07788 0.0
H904 H 0.43464 0.89798 0.0779 0.0
C905 C 0.42351 0.8914 0.12029 0.0
C906 C 0.89398 0.37563 0.08982 0.0
C907 C 0.87881 0.36777 0.10507 0.0
H908 H 0.93464 0.39798 0.07792 0.0
C909 C 0.89392 0.37595 0.1203 0.0
H910 H 0.88288 0.36962 0.07791 0.0
C911 C 0.92351 0.39139 0.12031 0.0
C912 C 0.93864 0.39967 0.10509 0.0
H913 H 0.88302 0.36955 0.13226 0.0
H914 H 0.93438 0.39772 0.13227 0.0
C915 C 0.92351 0.3919 0.08983 0.0
C916 C 0.42359 0.3755 0.20693 0.0
C917 C 0.43872 0.36762 0.19168 0.0
H918 H 0.38296 0.39788 0.21885 0.0
C919 C 0.42358 0.37579 0.17645 0.0
H920 H 0.43472 0.3695 0.21884 0.0
C921 C 0.39399 0.39125 0.17645 0.0
C922 C 0.37889 0.39954 0.19169 0.0
H923 H 0.43445 0.36938 0.16449 0.0
H924 H 0.38309 0.39757 0.1645 0.0
C925 C 0.39406 0.39178 0.20694 0.0
C926 C 0.89406 0.89179 0.20695 0.0
C927 C 0.8789 0.89955 0.19169 0.0
H928 H 0.93472 0.8695 0.21885 0.0
C929 C 0.894 0.89125 0.17646 0.0
H930 H 0.88296 0.89788 0.21886 0.0
C931 C 0.92358 0.87579 0.17646 0.0
C932 C 0.93872 0.86762 0.19169 0.0
H933 H 0.8831 0.89757 0.16451 0.0
H934 H 0.93446 0.86937 0.1645 0.0
C935 C 0.92359 0.8755 0.20694 0.0
C936 C 0.67327 0.14204 0.95693 0.0
C937 C 0.68841 0.14991 0.94168 0.0
H938 H 0.63263 0.11967 0.96885 0.0
C939 C 0.67329 0.14173 0.92645 0.0
H940 H 0.68439 0.14804 0.96884 0.0
C941 C 0.6437 0.12628 0.92645 0.0
C942 C 0.62859 0.11799 0.94168 0.0
H943 H 0.68417 0.14814 0.91449 0.0
H944 H 0.63281 0.11995 0.9145 0.0
C945 C 0.64374 0.12576 0.95693 0.0
C946 C 0.17333 0.64157 0.92645 0.0
C947 C 0.18847 0.64976 0.94168 0.0
H948 H 0.13285 0.61979 0.91451 0.0
C949 C 0.17333 0.6419 0.95693 0.0
H950 H 0.18421 0.64798 0.91449 0.0
C951 C 0.1438 0.62561 0.95694 0.0
C952 C 0.12864 0.61784 0.9417 0.0
H953 H 0.18446 0.6479 0.96884 0.0
H954 H 0.1327 0.61953 0.96886 0.0
C955 C 0.14375 0.62612 0.92646 0.0
C956 C 0.64384 0.64224 0.8398 0.0
C957 C 0.62868 0.65 0.85505 0.0
H958 H 0.68449 0.61995 0.82788 0.0
C959 C 0.64378 0.64171 0.87028 0.0
H960 H 0.63273 0.64833 0.82788 0.0
C961 C 0.67337 0.62625 0.87028 0.0
C962 C 0.6885 0.61807 0.85505 0.0
H963 H 0.63289 0.64803 0.88223 0.0
H964 H 0.68425 0.61984 0.88223 0.0
C965 C 0.67336 0.62595 0.8398 0.0
C966 C 0.1438 0.14214 0.83982 0.0
C967 C 0.12864 0.14989 0.85507 0.0
H968 H 0.18445 0.11986 0.82791 0.0
C969 C 0.14375 0.14159 0.8703 0.0
H970 H 0.13269 0.14823 0.82791 0.0
C971 C 0.17333 0.12613 0.8703 0.0
C972 C 0.18846 0.11797 0.85507 0.0
H973 H 0.13285 0.14791 0.88226 0.0
H974 H 0.18421 0.11971 0.88226 0.0
C975 C 0.17332 0.12585 0.83982 0.0
C976 C 0.42389 0.39222 0.6203 0.0
C977 C 0.43904 0.40037 0.60507 0.0
H978 H 0.38339 0.37048 0.63225 0.0
C979 C 0.42392 0.39249 0.58982 0.0
H980 H 0.43476 0.39864 0.63226 0.0
C981 C 0.39439 0.37623 0.58981 0.0
C982 C 0.37921 0.36849 0.60506 0.0
H983 H 0.43506 0.39847 0.5779 0.0
H984 H 0.3833 0.37013 0.5779 0.0
C985 C 0.3943 0.37679 0.62029 0.0
C986 C 0.89433 0.87668 0.62029 0.0
C987 C 0.87926 0.86834 0.60505 0.0
H988 H 0.93477 0.89859 0.63226 0.0
C989 C 0.89445 0.87608 0.58981 0.0
H990 H 0.88342 0.87037 0.63224 0.0
C991 C 0.92397 0.89238 0.58981 0.0
C992 C 0.93908 0.9003 0.60507 0.0
H993 H 0.88337 0.86997 0.57789 0.0
H994 H 0.93512 0.89836 0.57791 0.0
C995 C 0.92392 0.89214 0.6203 0.0
C996 C 0.4236 0.87603 0.70693 0.0
C997 C 0.43878 0.86835 0.69168 0.0
H998 H 0.38294 0.89825 0.71884 0.0
C999 C 0.42369 0.87672 0.67645 0.0
H1000 H 0.4347 0.86988 0.71884 0.0
C1001 C 0.3941 0.89217 0.67644 0.0
C1002 C 0.37895 0.90026 0.69167 0.0
H1003 H 0.4346 0.87046 0.66449 0.0
H1004 H 0.38324 0.89864 0.66449 0.0
C1005 C 0.39408 0.89231 0.70693 0.0
C1006 C 0.89407 0.39205 0.67645 0.0
C1007 C 0.87892 0.40016 0.69168 0.0
H1008 H 0.93456 0.37032 0.6645 0.0
C1009 C 0.89403 0.39221 0.70693 0.0
H1010 H 0.88321 0.39852 0.66449 0.0
C1011 C 0.92356 0.37593 0.70694 0.0
C1012 C 0.93874 0.36823 0.69169 0.0
H1013 H 0.88289 0.39816 0.71884 0.0
H1014 H 0.93465 0.36978 0.71885 0.0
C1015 C 0.92365 0.37659 0.67646 0.0
C1016 C 0.64434 0.62582 0.45692 0.0
C1017 C 0.62922 0.61798 0.44166 0.0
H1018 H 0.68496 0.64815 0.46885 0.0
C1019 C 0.64438 0.62618 0.42644 0.0
H1020 H 0.6332 0.61981 0.46883 0.0
C1021 C 0.67397 0.64161 0.42645 0.0
C1022 C 0.68906 0.64987 0.44168 0.0
H1023 H 0.63352 0.61979 0.41448 0.0
H1024 H 0.68489 0.64795 0.4145 0.0
C1025 C 0.67387 0.64209 0.45693 0.0
C1026 C 0.14435 0.12624 0.42645 0.0
C1027 C 0.12919 0.11805 0.44168 0.0
H1028 H 0.18486 0.14803 0.41452 0.0
C1029 C 0.14429 0.12594 0.45694 0.0
H1030 H 0.1335 0.11982 0.41449 0.0
C1031 C 0.17382 0.14223 0.45695 0.0
C1032 C 0.18901 0.15 0.44171 0.0
H1033 H 0.13314 0.11993 0.46884 0.0
H1034 H 0.1849 0.14832 0.46887 0.0
C1035 C 0.17394 0.1417 0.42647 0.0
C1036 C 0.67385 0.12591 0.33981 0.0
C1037 C 0.68902 0.11814 0.35506 0.0
H1038 H 0.63318 0.1482 0.32791 0.0
C1039 C 0.67392 0.12642 0.37029 0.0
H1040 H 0.68494 0.11983 0.32789 0.0
C1041 C 0.64434 0.14187 0.3703 0.0
C1042 C 0.62919 0.15006 0.35507 0.0
H1043 H 0.68483 0.12009 0.38224 0.0
H1044 H 0.63347 0.14828 0.38226 0.0
C1045 C 0.64432 0.1422 0.33982 0.0
C1046 C 0.17395 0.62647 0.3703 0.0
C1047 C 0.18904 0.61819 0.35506 0.0
H1048 H 0.1335 0.64832 0.38227 0.0
C1049 C 0.17386 0.62596 0.33981 0.0
H1050 H 0.18486 0.62013 0.38225 0.0
C1051 C 0.14433 0.64224 0.33983 0.0
C1052 C 0.12921 0.65011 0.35508 0.0
H1053 H 0.18495 0.61988 0.3279 0.0
H1054 H 0.1332 0.64825 0.32792 0.0
C1055 C 0.14436 0.64192 0.37031 0.0
C1056 C 0.52024 0.04673 0.0329 0.0
C1057 C 0.5327 1.00545 0.04121 0.0
H1058 H 0.51127 0.08247 1.00933 0.0
C1059 C 0.54608 0.96762 0.03148 0.0
H1060 H 0.50985 0.07657 0.03998 0.0
C1061 C 0.54699 0.97098 1.01388 0.0
C1062 C 0.53453 0.01226 1.00557 0.0
H1063 H 0.55596 0.93524 0.03745 0.0
H1064 H 0.55738 0.94114 1.0068 0.0
C1065 C 0.52115 0.0501 1.0153 0.0
C1066 C 0.79703 0.22099 0.03286 0.0
C1067 C 0.7846 0.26228 0.04117 0.0
H1068 H 0.80591 0.18525 1.0093 0.0
C1069 C 0.77118 0.30011 0.03144 0.0
H1070 H 0.80744 0.19116 0.03994 0.0
C1071 C 0.7702 0.29674 1.01384 0.0
C1072 C 0.78263 0.25545 1.00553 0.0
H1073 H 0.76132 0.33248 0.03741 0.0
H1074 H 0.75978 0.32657 1.00676 0.0
C1075 C 0.79605 0.21762 1.01526 0.0
C1076 C 0.54639 0.30007 0.26526 0.0
C1077 C 0.53297 0.2622 0.25556 0.0
H1078 H 0.55778 0.32663 0.28992 0.0
C1079 C 0.52055 0.22094 0.26391 0.0
H1080 H 0.55624 0.33243 0.25927 0.0
C1081 C 0.52153 0.21764 0.28151 0.0
C1082 C 0.53495 0.2555 0.29121 0.0
H1083 H 0.51013 0.19108 0.25685 0.0
H1084 H 0.51167 0.18528 0.2875 0.0
C1085 C 0.54737 0.29677 0.28286 0.0
C1086 C 0.7715 0.96762 0.26531 0.0
C1087 C 0.78488 1.00541 0.25554 0.0
H1088 H 0.7602 0.94123 0.29001 0.0
C1089 C 0.79735 0.04672 0.26382 0.0
H1090 H 0.76161 0.93523 0.25937 0.0
C1091 C 0.79644 0.05014 0.28141 0.0
C1092 C 0.78306 0.01235 0.29118 0.0
H1093 H 0.80774 0.07653 0.25671 0.0
H1094 H 0.80633 0.08253 0.28736 0.0
C1095 C 0.77059 0.97104 0.28291 0.0
C1096 C 0.29609 0.71754 1.01525 0.0
C1097 C 0.28267 0.75536 1.00552 0.0
H1098 H 0.30749 0.69108 0.03993 0.0
C1099 C 0.27023 0.79664 1.01382 0.0
H1100 H 0.30596 0.68517 1.00928 0.0
C1101 C 0.27121 0.80002 0.03142 0.0
C1102 C 0.28463 0.76219 0.04115 0.0
H1103 H 0.25981 0.82647 1.00675 0.0
H1104 H 0.26134 0.83238 0.03739 0.0
C1105 C 0.29707 0.72091 0.03285 0.0
C1106 C 0.52039 0.72124 0.76384 0.0
C1107 C 0.5328 0.76257 0.75553 0.0
H1108 H 0.51146 0.68545 0.78741 0.0
C1109 C 0.54614 0.80043 0.76527 0.0
H1110 H 0.51003 0.69137 0.75676 0.0
C1111 C 0.54706 0.79705 0.78287 0.0
C1112 C 0.53464 0.75572 0.79118 0.0
H1113 H 0.55599 0.83284 0.7593 0.0
H1114 H 0.55741 0.82692 0.78995 0.0
C1115 C 0.5213 0.71786 0.78144 0.0
C1116 C 0.29714 0.04695 0.76387 0.0
C1117 C 0.28469 1.00569 0.75556 0.0
H1118 H 0.30604 0.08265 0.78744 0.0
C1119 C 0.27124 0.96788 0.76529 0.0
H1120 H 0.30757 0.07678 0.7568 0.0
C1121 C 0.27027 0.97122 0.78288 0.0
C1122 C 0.28271 0.01248 0.7912 0.0
H1123 H 0.26137 0.93553 0.75932 0.0
H1124 H 0.25983 0.9414 0.78996 0.0
C1125 C 0.29616 0.0503 0.78147 0.0
C1126 C 0.52168 0.55036 0.51524 0.0
C1127 C 0.53507 0.5125 0.50552 0.0
H1128 H 0.51035 0.57692 0.5399 0.0
C1129 C 0.54752 0.47124 0.51385 0.0
H1130 H 0.5118 0.58271 0.50926 0.0
C1131 C 0.5466 0.46794 0.53146 0.0
C1132 C 0.5332 0.5058 0.54117 0.0
H1133 H 0.55792 0.44138 0.50679 0.0
H1134 H 0.55647 0.43559 0.53744 0.0
C1135 C 0.52075 0.54706 0.53284 0.0
C1136 C 0.79757 0.72121 0.53291 0.0
C1137 C 0.78515 0.76254 0.54119 0.0
H1138 H 0.80646 0.68537 0.50936 0.0
C1139 C 0.77175 0.80035 0.53144 0.0
H1140 H 0.80797 0.6914 0.54 0.0
C1141 C 0.77078 0.79691 0.51385 0.0
C1142 C 0.78321 0.75558 0.50556 0.0
H1143 H 0.76189 0.83275 0.53739 0.0
H1144 H 0.76038 0.82673 0.50675 0.0
C1145 C 0.79661 0.71778 0.51531 0.0
C1146 C 0.79615 0.5503 0.78146 0.0
C1147 C 0.7827 0.51249 0.79119 0.0
H1148 H 0.80756 0.57676 0.75678 0.0
C1149 C 0.77025 0.47122 0.78288 0.0
H1150 H 0.80603 0.58265 0.78742 0.0
C1151 C 0.77123 0.46786 0.76528 0.0
C1152 C 0.78467 0.50568 0.75555 0.0
H1153 H 0.75982 0.4414 0.78996 0.0
H1154 H 0.76134 0.43551 0.75931 0.0
C1155 C 0.79712 0.54694 0.76386 0.0
C1156 C 0.29652 0.21796 0.51534 0.0
C1157 C 0.28313 0.25577 0.50559 0.0
H1158 H 0.30788 0.19158 0.54003 0.0
C1159 C 0.2707 0.2971 0.51387 0.0
H1160 H 0.30638 0.18556 0.50939 0.0
C1161 C 0.27167 0.30054 0.53147 0.0
C1162 C 0.28506 0.26273 0.54122 0.0
H1163 H 0.26031 0.32692 0.50678 0.0
H1164 H 0.26181 0.33294 0.53742 0.0
C1165 C 0.29749 0.2214 0.53294 0.0
C1166 C 0.27058 0.47105 0.2829 0.0
C1167 C 0.28306 0.51236 0.29118 0.0
H1168 H 0.2616 0.43524 0.25937 0.0
C1169 C 0.29645 0.55015 0.28141 0.0
H1170 H 0.26019 0.44125 0.29001 0.0
C1171 C 0.29735 0.54672 0.26381 0.0
C1172 C 0.28488 0.50541 0.25554 0.0
H1173 H 0.30634 0.58253 0.28735 0.0
H1174 H 0.30775 0.57652 0.25671 0.0
C1175 C 0.27149 0.46763 0.26531 0.0
C1176 C 0.04759 0.97133 0.51387 0.0
C1177 C 0.03505 0.01249 0.50554 0.0
H1178 H 0.05664 0.93576 0.53746 0.0
C1179 C 1.02158 0.05029 0.51525 0.0
H1180 H 0.05805 0.94152 0.50681 0.0
C1181 C 1.02067 0.04701 0.53285 0.0
C1182 C 1.03322 1.00584 0.54119 0.0
H1183 H 1.01162 0.08257 0.50926 0.0
H1184 H 1.01021 0.07681 0.53991 0.0
C1185 C 0.04668 0.96804 0.53147 0.0
C1186 C 0.04615 0.30031 0.7653 0.0
C1187 C 1.03277 0.26248 0.75556 0.0
H1188 H 0.05744 0.32678 0.78997 0.0
C1189 C 1.02032 0.22118 0.76387 0.0
H1190 H 0.05602 0.33269 0.75933 0.0
C1191 C 1.02123 0.21781 0.78147 0.0
C1192 C 0.0346 0.25564 0.7912 0.0
H1193 H 1.00994 0.19134 0.75679 0.0
H1194 H 1.01135 0.18543 0.78744 0.0
C1195 C 0.04705 0.29694 0.7829 0.0
C1196 C 0.04639 0.80009 0.26528 0.0
C1197 C 1.03297 0.76222 0.25558 0.0
H1198 H 0.05779 0.82666 0.28993 0.0
C1199 C 1.02055 0.72096 0.26393 0.0
H1200 H 0.05625 0.83245 0.25928 0.0
C1201 C 1.02153 0.71766 0.28153 0.0
C1202 C 0.03495 0.75553 0.29122 0.0
H1203 H 1.01013 0.6911 0.25687 0.0
H1204 H 1.01167 0.68531 0.28752 0.0
C1205 C 0.04737 0.79679 0.28288 0.0
C1206 C 1.02119 0.55002 1.01533 0.0
C1207 C 0.03457 0.51218 1.0056 0.0
H1208 H 1.00989 0.57651 0.04001 0.0
C1209 C 0.04702 0.47089 1.01391 0.0
H1210 H 1.01131 0.5824 1.00936 0.0
C1211 C 0.04611 0.46754 0.03151 0.0
C1212 C 1.03273 0.50538 0.04124 0.0
H1213 H 0.05741 0.44105 1.00683 0.0
H1214 H 0.05599 0.43516 0.03748 0.0
C1215 C 1.02028 0.54667 0.03293 0.0
C1216 C 0.6654 0.08275 0.10087 0.0
C1217 C 0.63554 0.0977 0.10079 0.0
H1218 H 0.71079 0.10479 0.10116 0.0
C1219 C 0.62924 0.14932 0.10095 0.0
H1220 H 0.67133 0.04359 0.10068 0.0
C1221 C 0.65205 0.18478 0.10088 0.0
C1222 C 0.68191 0.16982 0.10078 0.0
H1223 H 0.60666 0.16273 0.10118 0.0
H1224 H 0.64613 0.22394 0.1007 0.0
C1225 C 0.68821 0.1182 0.10093 0.0
C1226 C 0.62933 0.11805 0.19585 0.0
C1227 C 0.63563 0.16967 0.19596 0.0
H1228 H 0.64622 0.04344 0.19614 0.0
C1229 C 0.66549 0.18463 0.19582 0.0
H1230 H 0.60676 0.10463 0.19565 0.0
C1231 C 0.6883 0.14918 0.19577 0.0
C1232 C 0.682 0.09756 0.19597 0.0
H1233 H 0.67141 0.22379 0.19597 0.0
H1234 H 0.71088 0.16259 0.1955 0.0
C1235 C 0.65214 0.0826 0.19591 0.0
C1236 C 0.40185 0.9349 0.94589 0.0
C1237 C 0.43171 0.91995 0.94596 0.0
H1238 H 0.35647 0.91284 0.9456 0.0
C1239 C 0.43802 0.86834 0.94577 0.0
H1240 H 0.39592 0.97405 0.9461 0.0
C1241 C 0.41521 0.83287 0.94581 0.0
C1242 C 0.38535 0.84782 0.94593 0.0
H1243 H 0.4606 0.85494 0.94551 0.0
H1244 H 0.42114 0.79372 0.94597 0.0
C1245 C 0.37905 0.89943 0.94582 0.0
C1246 C 0.43805 0.89952 0.851 0.0
C1247 C 0.43176 0.84791 0.85077 0.0
H1248 H 0.42116 0.97413 0.85082 0.0
C1249 C 0.4019 0.83293 0.8508 0.0
H1250 H 0.46062 0.91293 0.85129 0.0
C1251 C 0.37908 0.86838 0.85086 0.0
C1252 C 0.38537 0.92 0.85078 0.0
H1253 H 0.39598 0.79378 0.85055 0.0
H1254 H 0.35651 0.85495 0.85104 0.0
C1255 C 0.41523 0.93497 0.85095 0.0
C1256 C 0.68864 0.61876 0.60097 0.0
C1257 C 0.68235 0.67037 0.60077 0.0
H1258 H 0.67175 0.54415 0.60075 0.0
C1259 C 0.65249 0.68534 0.60082 0.0
H1260 H 0.71122 0.60534 0.60124 0.0
C1261 C 0.62968 0.64989 0.60088 0.0
C1262 C 0.63597 0.59827 0.60077 0.0
H1263 H 0.64657 0.7245 0.6006 0.0
H1264 H 0.6071 0.66332 0.60108 0.0
C1265 C 0.66583 0.58331 0.60091 0.0
C1266 C 0.66554 0.68532 0.69595 0.0
C1267 C 0.63568 0.67037 0.69595 0.0
H1268 H 0.71093 0.66327 0.69573 0.0
C1269 C 0.62938 0.61876 0.69569 0.0
H1270 H 0.67147 0.72448 0.69622 0.0
C1271 C 0.65218 0.5833 0.69575 0.0
C1272 C 0.68205 0.59824 0.69594 0.0
H1273 H 0.6068 0.60536 0.69538 0.0
H1274 H 0.64625 0.54414 0.69585 0.0
C1275 C 0.68835 0.64986 0.69589 0.0
C1276 C 0.43858 0.36846 0.44585 0.0
C1277 C 0.43229 0.42008 0.44596 0.0
H1278 H 0.42169 0.29385 0.44615 0.0
C1279 C 0.40243 0.43504 0.44583 0.0
H1280 H 0.46116 0.35503 0.44565 0.0
C1281 C 0.37962 0.39959 0.44578 0.0
C1282 C 0.38591 0.34798 0.44598 0.0
H1283 H 0.39651 0.4742 0.44598 0.0
H1284 H 0.35704 0.41301 0.44551 0.0
C1285 C 0.41577 0.33301 0.44592 0.0
C1286 C 0.43859 0.39966 0.3509 0.0
C1287 C 0.43229 0.34804 0.3508 0.0
H1288 H 0.42171 0.47427 0.3506 0.0
C1289 C 0.40243 0.33309 0.35093 0.0
H1290 H 0.46117 0.41307 0.3511 0.0
C1291 C 0.37962 0.36855 0.35098 0.0
C1292 C 0.38592 0.42016 0.35077 0.0
H1293 H 0.3965 0.29393 0.35078 0.0
H1294 H 0.35704 0.35514 0.35124 0.0
C1295 C 0.41578 0.43512 0.35083 0.0
C1296 C 0.16579 0.08348 0.60099 0.0
C1297 C 0.13593 0.09843 0.6008 0.0
H1298 H 0.21117 0.10555 0.60135 0.0
C1299 C 0.12962 0.15004 0.60088 0.0
H1300 H 0.17172 0.04433 0.60087 0.0
C1301 C 0.15243 0.18551 0.60082 0.0
C1302 C 0.18229 0.17056 0.60081 0.0
H1303 H 0.10704 0.16346 0.60104 0.0
H1304 H 0.1465 0.22466 0.60056 0.0
C1305 C 0.18859 0.11895 0.60105 0.0
C1306 C 0.15217 0.08322 0.69582 0.0
C1307 C 0.18203 0.09819 0.69596 0.0
H1308 H 0.10679 0.10526 0.6955 0.0
C1309 C 0.18833 0.14981 0.69586 0.0
H1310 H 0.14625 0.04406 0.69597 0.0
C1311 C 0.16551 0.18526 0.69593 0.0
C1312 C 0.13565 0.17029 0.69597 0.0
H1313 H 0.2109 0.16323 0.69566 0.0
H1314 H 0.17143 0.22442 0.69615 0.0
C1315 C 0.12936 0.11867 0.69577 0.0
C1316 C 0.90246 0.93489 0.44577 0.0
C1317 C 0.93233 0.91994 0.44594 0.0
H1318 H 0.85708 0.91282 0.44541 0.0
C1319 C 0.93863 0.86833 0.44587 0.0
H1320 H 0.89653 0.97405 0.44589 0.0
C1321 C 0.91582 0.83286 0.44593 0.0
C1322 C 0.88596 0.84781 0.44595 0.0
H1323 H 0.96121 0.85492 0.4457 0.0
H1324 H 0.92175 0.79371 0.44619 0.0
C1325 C 0.87966 0.89942 0.44571 0.0
C1326 C 0.90243 0.8331 0.35096 0.0
C1327 C 0.93229 0.84806 0.35082 0.0
H1328 H 0.85705 0.85514 0.35127 0.0
C1329 C 0.93859 0.89968 0.35091 0.0
H1330 H 0.89651 0.79394 0.35082 0.0
C1331 C 0.91578 0.93513 0.35084 0.0
C1332 C 0.88592 0.92017 0.35079 0.0
H1333 H 0.96117 0.9131 0.3511 0.0
H1334 H 0.9217 0.97429 0.3506 0.0
C1335 C 0.87962 0.86856 0.351 0.0
C1336 C 0.15207 0.68473 0.10085 0.0
C1337 C 0.18193 0.66977 0.10078 0.0
H1338 H 0.10669 0.66269 0.10114 0.0
C1339 C 0.18823 0.61816 0.10097 0.0
H1340 H 0.14615 0.72389 0.10064 0.0
C1341 C 0.16542 0.5827 0.10092 0.0
C1342 C 0.13556 0.59766 0.1008 0.0
H1343 H 0.21081 0.60474 0.10122 0.0
H1344 H 0.17135 0.54354 0.10075 0.0
C1345 C 0.12926 0.64928 0.10092 0.0
C1346 C 0.16549 0.68463 0.19584 0.0
C1347 C 0.13563 0.66967 0.19597 0.0
H1348 H 0.21088 0.66259 0.19552 0.0
C1349 C 0.12933 0.61806 0.19586 0.0
H1350 H 0.17142 0.72379 0.19599 0.0
C1351 C 0.15214 0.5826 0.19592 0.0
C1352 C 0.182 0.59756 0.19597 0.0
H1353 H 0.10675 0.60464 0.19565 0.0
H1354 H 0.14622 0.54344 0.19614 0.0
C1355 C 0.1883 0.64918 0.19578 0.0
C1356 C 0.9152 0.33286 0.94585 0.0
C1357 C 0.88534 0.34783 0.94596 0.0
H1358 H 0.96059 0.35489 0.94555 0.0
C1359 C 0.87905 0.39945 0.94584 0.0
H1360 H 0.92112 0.2937 0.94601 0.0
C1361 C 0.90187 0.4349 0.94592 0.0
C1362 C 0.93173 0.41993 0.94599 0.0
H1363 H 0.85648 0.41288 0.94563 0.0
H1364 H 0.89595 0.47406 0.94613 0.0
C1365 C 0.93802 0.36831 0.9458 0.0
C1366 C 0.93805 0.39955 0.85092 0.0
C1367 C 0.93176 0.34794 0.85078 0.0
H1368 H 0.92118 0.47417 0.85066 0.0
C1369 C 0.90189 0.33298 0.85089 0.0
H1370 H 0.96063 0.41297 0.85114 0.0
C1371 C 0.87909 0.36844 0.85096 0.0
C1372 C 0.88539 0.42006 0.85078 0.0
H1373 H 0.89596 0.29383 0.85072 0.0
H1374 H 0.85651 0.35503 0.8512 0.0
C1375 C 0.91525 0.43501 0.85086 0.0
loop_
_geom_bond_atom_site_label_1
_geom_bond_atom_site_label_2
_geom_bond_distance
_geom_bond_site_symmetry_2
_ccdc_geom_bond_type
Cu0 N1 1.993 1_565 S
Cu0 O6 1.968 1_565 S
Cu0 N11 1.989 . S
Cu0 O20 1.965 . S
N1 Cu0 1.993 1_545 S
N1 C3 1.263 . S
N1 C5 1.389 . S
N2 C3 1.358 . S
N2 C4 1.400 . S
C3 N1 1.263 . S
C3 N2 1.358 . S
C3 H9 0.930 . S
C4 N2 1.400 . S
C4 C5 1.351 . S
C4 H21 0.930 . S
C5 N1 1.389 . S
C5 C4 1.351 . S
C5 H10 0.930 1_545 S
O6 Cu0 1.968 1_545 S
O6 C16 1.282 . S
C7 O8 1.261 . S
C7 O20 1.251 1_545 S
O8 C7 1.261 . S
H9 C3 0.930 . S
H10 C5 0.930 1_565 S
N11 Cu0 1.989 . S
N11 C13 1.335 . S
N11 C14 1.390 . S
N12 C13 1.345 . S
N12 C15 1.336 . S
C13 N11 1.335 . S
C13 N12 1.345 . S
C13 H18 0.930 . S
C14 N11 1.390 . S
C14 C15 1.346 . S
C14 H19 0.930 1_565 S
C15 N12 1.336 . S
C15 C14 1.346 . S
C15 H22 0.929 . S
C16 O6 1.282 . S
C16 O17 1.216 . S
O17 C16 1.216 . S
H18 C13 0.930 . S
H19 C14 0.930 1_545 S
O20 Cu0 1.965 . S
O20 C7 1.251 1_565 S
H21 C4 0.930 . S
H22 C15 0.929 . S
Cu23 N24 1.999 . S
Cu23 O29 1.974 . S
Cu23 N34 1.985 . S
Cu23 O43 1.959 . S
N24 Cu23 1.999 . S
N24 C26 1.263 . S
N24 C28 1.389 . S
N25 C26 1.358 . S
N25 C27 1.400 . S
C26 N24 1.263 . S
C26 N25 1.358 . S
C26 H32 0.930 . S
C27 N25 1.400 . S
C27 C28 1.351 . S
C27 H44 0.930 . S
C28 N24 1.389 . S
C28 C27 1.351 . S
C28 H33 0.930 . S
O29 Cu23 1.974 . S
O29 C39 1.282 . S
C30 O31 1.261 . S
C30 O43 1.251 . S
O31 C30 1.261 . S
H32 C26 0.930 . S
H33 C28 0.930 . S
N34 Cu23 1.985 . S
N34 C36 1.335 . S
N34 C37 1.390 . S
N35 C36 1.345 . S
N35 C38 1.336 . S
C36 N34 1.335 . S
C36 N35 1.345 . S
C36 H41 0.930 . S
C37 N34 1.390 . S
C37 C38 1.346 . S
C37 H42 0.930 . S
C38 N35 1.336 . S
C38 C37 1.346 . S
C38 H45 0.929 . S
C39 O29 1.282 . S
C39 O40 1.216 . S
O40 C39 1.216 . S
H41 C36 0.930 . S
H42 C37 0.930 . S
O43 Cu23 1.959 . S
O43 C30 1.251 . S
H44 C27 0.930 . S
H45 C38 0.929 . S
Cu46 N47 1.999 . S
Cu46 O52 1.974 . S
Cu46 N57 1.985 . S
Cu46 O66 1.959 . S
N47 Cu46 1.999 . S
N47 C49 1.263 . S
N47 C51 1.389 . S
N48 C49 1.358 . S
N48 C50 1.400 . S
C49 N47 1.263 . S
C49 N48 1.358 . S
C49 H55 0.930 . S
C50 N48 1.400 . S
C50 C51 1.351 . S
C50 H67 0.930 . S
C51 N47 1.389 . S
C51 C50 1.351 . S
C51 H56 0.930 . S
O52 Cu46 1.974 . S
O52 C62 1.282 . S
C53 O54 1.261 . S
C53 O66 1.251 . S
O54 C53 1.261 . S
H55 C49 0.930 . S
H56 C51 0.930 . S
N57 Cu46 1.985 . S
N57 C59 1.335 . S
N57 C60 1.390 . S
N58 C59 1.345 . S
N58 C61 1.336 . S
C59 N57 1.335 . S
C59 N58 1.345 . S
C59 H64 0.930 . S
C60 N57 1.390 . S
C60 C61 1.346 . S
C60 H65 0.930 . S
C61 N58 1.336 . S
C61 C60 1.346 . S
C61 H68 0.929 . S
C62 O52 1.282 . S
C62 O63 1.216 . S
O63 C62 1.216 . S
H64 C59 0.930 . S
H65 C60 0.930 . S
O66 Cu46 1.959 . S
O66 C53 1.251 . S
H67 C50 0.930 . S
H68 C61 0.929 . S
Cu69 N70 1.995 1_565 S
Cu69 O75 1.970 1_565 S
Cu69 N80 1.988 . S
Cu69 O89 1.963 . S
N70 Cu69 1.995 1_545 S
N70 C72 1.263 . S
N70 C74 1.389 . S
N71 C72 1.358 . S
N71 C73 1.400 . S
C72 N70 1.263 . S
C72 N71 1.358 . S
C72 H78 0.930 . S
C73 N71 1.400 . S
C73 C74 1.351 . S
C73 H90 0.930 . S
C74 N70 1.389 . S
C74 C73 1.351 . S
C74 H79 0.930 1_545 S
O75 Cu69 1.970 1_545 S
O75 C85 1.282 . S
C76 O77 1.261 . S
C76 O89 1.251 1_545 S
O77 C76 1.261 . S
H78 C72 0.930 . S
H79 C74 0.930 1_565 S
N80 Cu69 1.988 . S
N80 C82 1.335 . S
N80 C83 1.390 . S
N81 C82 1.345 . S
N81 C84 1.336 . S
C82 N80 1.335 . S
C82 N81 1.345 . S
C82 H87 0.930 . S
C83 N80 1.390 . S
C83 C84 1.346 . S
C83 H88 0.930 1_565 S
C84 N81 1.336 . S
C84 C83 1.346 . S
C84 H91 0.929 . S
C85 O75 1.282 . S
C85 O86 1.216 . S
O86 C85 1.216 . S
H87 C82 0.930 . S
H88 C83 0.930 1_545 S
O89 Cu69 1.963 . S
O89 C76 1.251 1_565 S
H90 C73 0.930 . S
H91 C84 0.929 . S
Cu92 N93 1.993 1_545 S
Cu92 O98 1.968 1_545 S
Cu92 N103 1.989 . S
Cu92 O112 1.965 . S
N93 Cu92 1.993 1_565 S
N93 C95 1.263 . S
N93 C97 1.389 . S
N94 C95 1.358 . S
N94 C96 1.400 . S
C95 N93 1.263 . S
C95 N94 1.358 . S
C95 H101 0.930 . S
C96 N94 1.400 . S
C96 C97 1.351 . S
C96 H113 0.930 . S
C97 N93 1.389 . S
C97 C96 1.351 . S
C97 H102 0.930 1_565 S
O98 Cu92 1.968 1_565 S
O98 C108 1.282 . S
C99 O100 1.261 . S
C99 O112 1.251 1_565 S
O100 C99 1.261 . S
H101 C95 0.930 . S
H102 C97 0.930 1_545 S
N103 Cu92 1.989 . S
N103 C105 1.335 . S
N103 C106 1.390 . S
N104 C105 1.345 . S
N104 C107 1.336 . S
C105 N103 1.335 . S
C105 N104 1.345 . S
C105 H110 0.930 . S
C106 N103 1.390 . S
C106 C107 1.346 . S
C106 H111 0.930 1_545 S
C107 N104 1.336 . S
C107 C106 1.346 . S
C107 H114 0.929 . S
C108 O98 1.282 . S
C108 O109 1.216 . S
O109 C108 1.216 . S
H110 C105 0.930 . S
H111 C106 0.930 1_565 S
O112 Cu92 1.965 . S
O112 C99 1.251 1_545 S
H113 C96 0.930 . S
H114 C107 0.929 . S
Cu115 N116 1.999 . S
Cu115 O121 1.974 . S
Cu115 N126 1.985 . S
Cu115 O135 1.959 . S
N116 Cu115 1.999 . S
N116 C118 1.263 . S
N116 C120 1.389 . S
N117 C118 1.358 . S
N117 C119 1.400 . S
C118 N116 1.263 . S
C118 N117 1.358 . S
C118 H124 0.930 . S
C119 N117 1.400 . S
C119 C120 1.351 . S
C119 H136 0.930 . S
C120 N116 1.389 . S
C120 C119 1.351 . S
C120 H125 0.930 . S
O121 Cu115 1.974 . S
O121 C131 1.282 . S
C122 O123 1.261 . S
C122 O135 1.251 . S
O123 C122 1.261 . S
H124 C118 0.930 . S
H125 C120 0.930 . S
N126 Cu115 1.985 . S
N126 C128 1.335 . S
N126 C129 1.390 . S
N127 C128 1.345 . S
N127 C130 1.336 . S
C128 N126 1.335 . S
C128 N127 1.345 . S
C128 H133 0.930 . S
C129 N126 1.390 . S
C129 C130 1.346 . S
C129 H134 0.930 . S
C130 N127 1.336 . S
C130 C129 1.346 . S
C130 H137 0.929 . S
C131 O121 1.282 . S
C131 O132 1.216 . S
O132 C131 1.216 . S
H133 C128 0.930 . S
H134 C129 0.930 . S
O135 Cu115 1.959 . S
O135 C122 1.251 . S
H136 C119 0.930 . S
H137 C130 0.929 . S
Cu138 N139 1.999 . S
Cu138 O144 1.974 . S
Cu138 N149 1.985 . S
Cu138 O158 1.959 . S
N139 Cu138 1.999 . S
N139 C141 1.263 . S
N139 C143 1.389 . S
N140 C141 1.358 . S
N140 C142 1.400 . S
C141 N139 1.263 . S
C141 N140 1.358 . S
C141 H147 0.930 . S
C142 N140 1.400 . S
C142 C143 1.351 . S
C142 H159 0.930 . S
C143 N139 1.389 . S
C143 C142 1.351 . S
C143 H148 0.930 . S
O144 Cu138 1.974 . S
O144 C154 1.282 . S
C145 O146 1.261 . S
C145 O158 1.251 . S
O146 C145 1.261 . S
H147 C141 0.930 . S
H148 C143 0.930 . S
N149 Cu138 1.985 . S
N149 C151 1.335 . S
N149 C152 1.390 . S
N150 C151 1.345 . S
N150 C153 1.336 . S
C151 N149 1.335 . S
C151 N150 1.345 . S
C151 H156 0.930 . S
C152 N149 1.390 . S
C152 C153 1.346 . S
C152 H157 0.930 . S
C153 N150 1.336 . S
C153 C152 1.346 . S
C153 H160 0.929 . S
C154 O144 1.282 . S
C154 O155 1.216 . S
O155 C154 1.216 . S
H156 C151 0.930 . S
H157 C152 0.930 . S
O158 Cu138 1.959 . S
O158 C145 1.251 . S
H159 C142 0.930 . S
H160 C153 0.929 . S
Cu161 N162 1.995 1_545 S
Cu161 O167 1.970 1_545 S
Cu161 N172 1.988 . S
Cu161 O181 1.963 . S
N162 Cu161 1.995 1_565 S
N162 C164 1.263 . S
N162 C166 1.389 . S
N163 C164 1.358 . S
N163 C165 1.400 . S
C164 N162 1.263 . S
C164 N163 1.358 . S
C164 H170 0.930 . S
C165 N163 1.400 . S
C165 C166 1.351 . S
C165 H182 0.930 . S
C166 N162 1.389 . S
C166 C165 1.351 . S
C166 H171 0.930 1_565 S
O167 Cu161 1.970 1_565 S
O167 C177 1.282 . S
C168 O169 1.261 . S
C168 O181 1.251 1_565 S
O169 C168 1.261 . S
H170 C164 0.930 . S
H171 C166 0.930 1_545 S
N172 Cu161 1.988 . S
N172 C174 1.335 . S
N172 C175 1.390 . S
N173 C174 1.345 . S
N173 C176 1.336 . S
C174 N172 1.335 . S
C174 N173 1.345 . S
C174 H179 0.930 . S
C175 N172 1.390 . S
C175 C176 1.346 . S
C175 H180 0.930 1_545 S
C176 N173 1.336 . S
C176 C175 1.346 . S
C176 H183 0.929 . S
C177 O167 1.282 . S
C177 O178 1.216 . S
O178 C177 1.216 . S
H179 C174 0.930 . S
H180 C175 0.930 1_565 S
O181 Cu161 1.963 . S
O181 C168 1.251 1_545 S
H182 C165 0.930 . S
H183 C176 0.929 . S
Cu184 N185 1.999 . S
Cu184 O190 1.974 . S
Cu184 N195 1.985 . S
Cu184 O204 1.959 . S
N185 Cu184 1.999 . S
N185 C187 1.263 . S
N185 C189 1.389 . S
N186 C187 1.358 . S
N186 C188 1.400 . S
C187 N185 1.263 . S
C187 N186 1.358 . S
C187 H193 0.930 . S
C188 N186 1.400 . S
C188 C189 1.351 . S
C188 H205 0.930 . S
C189 N185 1.389 . S
C189 C188 1.351 . S
C189 H194 0.930 . S
O190 Cu184 1.974 . S
O190 C200 1.282 . S
C191 O192 1.261 . S
C191 O204 1.251 . S
O192 C191 1.261 . S
H193 C187 0.930 . S
H194 C189 0.930 . S
N195 Cu184 1.985 . S
N195 C197 1.335 . S
N195 C198 1.390 . S
N196 C197 1.345 . S
N196 C199 1.336 . S
C197 N195 1.335 . S
C197 N196 1.345 . S
C197 H202 0.930 . S
C198 N195 1.390 . S
C198 C199 1.346 . S
C198 H203 0.930 . S
C199 N196 1.336 . S
C199 C198 1.346 . S
C199 H206 0.929 . S
C200 O190 1.282 . S
C200 O201 1.216 . S
O201 C200 1.216 . S
H202 C197 0.930 . S
H203 C198 0.930 . S
O204 Cu184 1.959 . S
O204 C191 1.251 . S
H205 C188 0.930 . S
H206 C199 0.929 . S
Cu207 N208 1.999 . S
Cu207 O213 1.974 . S
Cu207 N218 1.985 . S
Cu207 O227 1.959 . S
N208 Cu207 1.999 . S
N208 C210 1.263 . S
N208 C212 1.389 . S
N209 C210 1.358 . S
N209 C211 1.400 . S
C210 N208 1.263 . S
C210 N209 1.358 . S
C210 H216 0.930 . S
C211 N209 1.400 . S
C211 C212 1.351 . S
C211 H228 0.930 . S
C212 N208 1.389 . S
C212 C211 1.351 . S
C212 H217 0.930 . S
O213 Cu207 1.974 . S
O213 C223 1.282 . S
C214 O215 1.261 . S
C214 O227 1.251 . S
O215 C214 1.261 . S
H216 C210 0.930 . S
H217 C212 0.930 . S
N218 Cu207 1.985 . S
N218 C220 1.335 . S
N218 C221 1.390 . S
N219 C220 1.345 . S
N219 C222 1.336 . S
C220 N218 1.335 . S
C220 N219 1.345 . S
C220 H225 0.930 . S
C221 N218 1.390 . S
C221 C222 1.346 . S
C221 H226 0.930 . S
C222 N219 1.336 . S
C222 C221 1.346 . S
C222 H229 0.929 . S
C223 O213 1.282 . S
C223 O224 1.216 . S
O224 C223 1.216 . S
H225 C220 0.930 . S
H226 C221 0.930 . S
O227 Cu207 1.959 . S
O227 C214 1.251 . S
H228 C211 0.930 . S
H229 C222 0.929 . S
Cu230 N231 1.999 . S
Cu230 O236 1.974 . S
Cu230 N241 1.985 . S
Cu230 O250 1.959 . S
N231 Cu230 1.999 . S
N231 C233 1.263 . S
N231 C235 1.389 . S
N232 C233 1.358 . S
N232 C234 1.400 . S
C233 N231 1.263 . S
C233 N232 1.358 . S
C233 H239 0.930 . S
C234 N232 1.400 . S
C234 C235 1.351 . S
C234 H251 0.930 . S
C235 N231 1.389 . S
C235 C234 1.351 . S
C235 H240 0.930 . S
O236 Cu230 1.974 . S
O236 C246 1.282 . S
C237 O238 1.261 . S
C237 O250 1.251 . S
O238 C237 1.261 . S
H239 C233 0.930 . S
H240 C235 0.930 . S
N241 Cu230 1.985 . S
N241 C243 1.335 . S
N241 C244 1.390 . S
N242 C243 1.345 . S
N242 C245 1.336 . S
C243 N241 1.335 . S
C243 N242 1.345 . S
C243 H248 0.930 . S
C244 N241 1.390 . S
C244 C245 1.346 . S
C244 H249 0.930 . S
C245 N242 1.336 . S
C245 C244 1.346 . S
C245 H252 0.929 . S
C246 O236 1.282 . S
C246 O247 1.216 . S
O247 C246 1.216 . S
H248 C243 0.930 . S
H249 C244 0.930 . S
O250 Cu230 1.959 . S
O250 C237 1.251 . S
H251 C234 0.930 . S
H252 C245 0.929 . S
Cu253 N254 1.999 . S
Cu253 O259 1.974 . S
Cu253 N264 1.985 . S
Cu253 O273 1.959 . S
N254 Cu253 1.999 . S
N254 C256 1.263 . S
N254 C258 1.389 . S
N255 C256 1.358 . S
N255 C257 1.400 . S
C256 N254 1.263 . S
C256 N255 1.358 . S
C256 H262 0.930 . S
C257 N255 1.400 . S
C257 C258 1.351 . S
C257 H274 0.930 . S
C258 N254 1.389 . S
C258 C257 1.351 . S
C258 H263 0.930 . S
O259 Cu253 1.974 . S
O259 C269 1.282 . S
C260 O261 1.261 . S
C260 O273 1.251 . S
O261 C260 1.261 . S
H262 C256 0.930 . S
H263 C258 0.930 . S
N264 Cu253 1.985 . S
N264 C266 1.335 . S
N264 C267 1.390 . S
N265 C266 1.345 . S
N265 C268 1.336 . S
C266 N264 1.335 . S
C266 N265 1.345 . S
C266 H271 0.930 . S
C267 N264 1.390 . S
C267 C268 1.346 . S
C267 H272 0.930 . S
C268 N265 1.336 . S
C268 C267 1.346 . S
C268 H275 0.929 . S
C269 O259 1.282 . S
C269 O270 1.216 . S
O270 C269 1.216 . S
H271 C266 0.930 . S
H272 C267 0.930 . S
O273 Cu253 1.959 . S
O273 C260 1.251 . S
H274 C257 0.930 . S
H275 C268 0.929 . S
Cu276 N277 1.999 . S
Cu276 O282 1.974 . S
Cu276 N287 1.985 . S
Cu276 O296 1.959 . S
N277 Cu276 1.999 . S
N277 C279 1.263 . S
N277 C281 1.389 . S
N278 C279 1.358 . S
N278 C280 1.400 . S
C279 N277 1.263 . S
C279 N278 1.358 . S
C279 H285 0.930 . S
C280 N278 1.400 . S
C280 C281 1.351 . S
C280 H297 0.930 . S
C281 N277 1.389 . S
C281 C280 1.351 . S
C281 H286 0.930 . S
O282 Cu276 1.974 . S
O282 C292 1.282 . S
C283 O284 1.261 . S
C283 O296 1.251 . S
O284 C283 1.261 . S
H285 C279 0.930 . S
H286 C281 0.930 . S
N287 Cu276 1.985 . S
N287 C289 1.335 . S
N287 C290 1.390 . S
N288 C289 1.345 . S
N288 C291 1.336 . S
C289 N287 1.335 . S
C289 N288 1.345 . S
C289 H294 0.930 . S
C290 N287 1.390 . S
C290 C291 1.346 . S
C290 H295 0.930 . S
C291 N288 1.336 . S
C291 C290 1.346 . S
C291 H298 0.929 . S
C292 O282 1.282 . S
C292 O293 1.216 . S
O293 C292 1.216 . S
H294 C289 0.930 . S
H295 C290 0.930 . S
O296 Cu276 1.959 . S
O296 C283 1.251 . S
H297 C280 0.930 . S
H298 C291 0.929 . S
Cu299 N300 1.999 . S
Cu299 O305 1.974 . S
Cu299 N310 1.985 . S
Cu299 O319 1.959 . S
N300 Cu299 1.999 . S
N300 C302 1.263 . S
N300 C304 1.389 . S
N301 C302 1.358 . S
N301 C303 1.400 . S
C302 N300 1.263 . S
C302 N301 1.358 . S
C302 H308 0.930 . S
C303 N301 1.400 . S
C303 C304 1.351 . S
C303 H320 0.930 . S
C304 N300 1.389 . S
C304 C303 1.351 . S
C304 H309 0.930 . S
O305 Cu299 1.974 . S
O305 C315 1.282 . S
C306 O307 1.261 . S
C306 O319 1.251 . S
O307 C306 1.261 . S
H308 C302 0.930 . S
H309 C304 0.930 . S
N310 Cu299 1.985 . S
N310 C312 1.335 . S
N310 C313 1.390 . S
N311 C312 1.345 . S
N311 C314 1.336 . S
C312 N310 1.335 . S
C312 N311 1.345 . S
C312 H317 0.930 . S
C313 N310 1.390 . S
C313 C314 1.346 . S
C313 H318 0.930 . S
C314 N311 1.336 . S
C314 C313 1.346 . S
C314 H321 0.929 . S
C315 O305 1.282 . S
C315 O316 1.216 . S
O316 C315 1.216 . S
H317 C312 0.930 . S
H318 C313 0.930 . S
O319 Cu299 1.959 . S
O319 C306 1.251 . S
H320 C303 0.930 . S
H321 C314 0.929 . S
Cu322 N323 1.999 . S
Cu322 O328 1.974 . S
Cu322 N333 1.985 . S
Cu322 O342 1.959 . S
N323 Cu322 1.999 . S
N323 C325 1.263 . S
N323 C327 1.389 . S
N324 C325 1.358 . S
N324 C326 1.400 . S
C325 N323 1.263 . S
C325 N324 1.358 . S
C325 H331 0.930 . S
C326 N324 1.400 . S
C326 C327 1.351 . S
C326 H343 0.930 . S
C327 N323 1.389 . S
C327 C326 1.351 . S
C327 H332 0.930 . S
O328 Cu322 1.974 . S
O328 C338 1.282 . S
C329 O330 1.261 . S
C329 O342 1.251 . S
O330 C329 1.261 . S
H331 C325 0.930 . S
H332 C327 0.930 . S
N333 Cu322 1.985 . S
N333 C335 1.335 . S
N333 C336 1.390 . S
N334 C335 1.345 . S
N334 C337 1.336 . S
C335 N333 1.335 . S
C335 N334 1.345 . S
C335 H340 0.930 . S
C336 N333 1.390 . S
C336 C337 1.346 . S
C336 H341 0.930 . S
C337 N334 1.336 . S
C337 C336 1.346 . S
C337 H344 0.929 . S
C338 O328 1.282 . S
C338 O339 1.216 . S
O339 C338 1.216 . S
H340 C335 0.930 . S
H341 C336 0.930 . S
O342 Cu322 1.959 . S
O342 C329 1.251 . S
H343 C326 0.930 . S
H344 C337 0.929 . S
Cu345 N346 1.999 . S
Cu345 O351 1.974 . S
Cu345 N356 1.985 . S
Cu345 O365 1.959 . S
N346 Cu345 1.999 . S
N346 C348 1.263 . S
N346 C350 1.389 . S
N347 C348 1.358 . S
N347 C349 1.400 . S
C348 N346 1.263 . S
C348 N347 1.358 . S
C348 H354 0.930 . S
C349 N347 1.400 . S
C349 C350 1.351 . S
C349 H366 0.930 . S
C350 N346 1.389 . S
C350 C349 1.351 . S
C350 H355 0.930 . S
O351 Cu345 1.974 . S
O351 C361 1.282 . S
C352 O353 1.261 . S
C352 O365 1.251 . S
O353 C352 1.261 . S
H354 C348 0.930 . S
H355 C350 0.930 . S
N356 Cu345 1.985 . S
N356 C358 1.335 . S
N356 C359 1.390 . S
N357 C358 1.345 . S
N357 C360 1.336 . S
C358 N356 1.335 . S
C358 N357 1.345 . S
C358 H363 0.930 . S
C359 N356 1.390 . S
C359 C360 1.346 . S
C359 H364 0.930 . S
C360 N357 1.336 . S
C360 C359 1.346 . S
C360 H367 0.929 . S
C361 O351 1.282 . S
C361 O362 1.216 . S
O362 C361 1.216 . S
H363 C358 0.930 . S
H364 C359 0.930 . S
O365 Cu345 1.959 . S
O365 C352 1.251 . S
H366 C349 0.930 . S
H367 C360 0.929 . S
Cu368 N369 2.001 . S
Cu368 O374 1.975 . S
Cu368 N379 1.984 1_445 S
Cu368 O388 1.958 1_545 S
N369 Cu368 2.001 . S
N369 C371 1.263 . S
N369 C373 1.389 . S
N370 C371 1.358 . S
N370 C372 1.400 . S
C371 N369 1.263 . S
C371 N370 1.358 . S
C371 H377 0.930 . S
C372 N370 1.400 . S
C372 C373 1.351 . S
C372 H389 0.930 . S
C373 N369 1.389 . S
C373 C372 1.351 . S
C373 H378 0.930 1_545 S
O374 Cu368 1.975 . S
O374 C384 1.282 1_455 S
C375 O376 1.261 . S
C375 O388 1.251 1_645 S
O376 C375 1.261 . S
H377 C371 0.930 . S
H378 C373 0.930 1_565 S
N379 Cu368 1.984 1_665 S
N379 C381 1.335 . S
N379 C382 1.390 . S
N380 C381 1.345 . S
N380 C383 1.336 . S
C381 N379 1.335 . S
C381 N380 1.345 . S
C381 H386 0.930 . S
C382 N379 1.390 . S
C382 C383 1.346 . S
C382 H387 0.930 1_565 S
C383 N380 1.336 . S
C383 C382 1.346 . S
C383 H390 0.929 . S
C384 O374 1.282 1_655 S
C384 O385 1.216 . S
O385 C384 1.216 . S
H386 C381 0.930 . S
H387 C382 0.930 1_545 S
O388 Cu368 1.958 1_565 S
O388 C375 1.251 1_465 S
H389 C372 0.930 . S
H390 C383 0.929 . S
Cu391 N392 1.999 . S
Cu391 O397 1.974 . S
Cu391 N402 1.985 . S
Cu391 O411 1.959 . S
N392 Cu391 1.999 . S
N392 C394 1.263 . S
N392 C396 1.389 . S
N393 C394 1.358 . S
N393 C395 1.400 . S
C394 N392 1.263 . S
C394 N393 1.358 . S
C394 H400 0.930 . S
C395 N393 1.400 . S
C395 C396 1.351 . S
C395 H412 0.930 . S
C396 N392 1.389 . S
C396 C395 1.351 . S
C396 H401 0.930 . S
O397 Cu391 1.974 . S
O397 C407 1.282 . S
C398 O399 1.261 . S
C398 O411 1.251 . S
O399 C398 1.261 . S
H400 C394 0.930 . S
H401 C396 0.930 . S
N402 Cu391 1.985 . S
N402 C404 1.335 . S
N402 C405 1.390 . S
N403 C404 1.345 . S
N403 C406 1.336 . S
C404 N402 1.335 . S
C404 N403 1.345 . S
C404 H409 0.930 . S
C405 N402 1.390 . S
C405 C406 1.346 . S
C405 H410 0.930 . S
C406 N403 1.336 . S
C406 C405 1.346 . S
C406 H413 0.929 . S
C407 O397 1.282 . S
C407 O408 1.216 . S
O408 C407 1.216 . S
H409 C404 0.930 . S
H410 C405 0.930 . S
O411 Cu391 1.959 . S
O411 C398 1.251 . S
H412 C395 0.930 . S
H413 C406 0.929 . S
Cu414 N415 1.999 . S
Cu414 O420 1.974 . S
Cu414 N425 1.985 1_455 S
Cu414 O434 1.959 . S
N415 Cu414 1.999 . S
N415 C417 1.263 . S
N415 C419 1.389 . S
N416 C417 1.358 . S
N416 C418 1.400 . S
C417 N415 1.263 . S
C417 N416 1.358 . S
C417 H423 0.930 . S
C418 N416 1.400 . S
C418 C419 1.351 . S
C418 H435 0.930 . S
C419 N415 1.389 . S
C419 C418 1.351 . S
C419 H424 0.930 . S
O420 Cu414 1.974 . S
O420 C430 1.282 1_455 S
C421 O422 1.261 . S
C421 O434 1.251 1_655 S
O422 C421 1.261 . S
H423 C417 0.930 . S
H424 C419 0.930 . S
N425 Cu414 1.985 1_655 S
N425 C427 1.335 . S
N425 C428 1.390 . S
N426 C427 1.345 . S
N426 C429 1.336 . S
C427 N425 1.335 . S
C427 N426 1.345 . S
C427 H432 0.930 . S
C428 N425 1.390 . S
C428 C429 1.346 . S
C428 H433 0.930 . S
C429 N426 1.336 . S
C429 C428 1.346 . S
C429 H436 0.929 . S
C430 O420 1.282 1_655 S
C430 O431 1.216 . S
O431 C430 1.216 . S
H432 C427 0.930 . S
H433 C428 0.930 . S
O434 Cu414 1.959 . S
O434 C421 1.251 1_455 S
H435 C418 0.930 . S
H436 C429 0.929 . S
Cu437 N438 1.999 1_565 S
Cu437 O443 1.974 1_565 S
Cu437 N448 1.985 . S
Cu437 O457 1.959 . S
N438 Cu437 1.999 1_545 S
N438 C440 1.263 . S
N438 C442 1.389 . S
N439 C440 1.358 . S
N439 C441 1.400 . S
C440 N438 1.263 . S
C440 N439 1.358 . S
C440 H446 0.930 . S
C441 N439 1.400 . S
C441 C442 1.351 . S
C441 H458 0.930 . S
C442 N438 1.389 . S
C442 C441 1.351 . S
C442 H447 0.930 1_545 S
O443 Cu437 1.974 1_545 S
O443 C453 1.282 . S
C444 O445 1.280 . S
C444 O457 1.239 1_545 S
O445 C444 1.280 . S
H446 C440 0.930 . S
H447 C442 0.930 1_565 S
N448 Cu437 1.985 . S
N448 C450 1.335 . S
N448 C451 1.390 . S
N449 C450 1.345 . S
N449 C452 1.336 . S
C450 N448 1.335 . S
C450 N449 1.345 . S
C450 H455 0.930 . S
C451 N448 1.390 . S
C451 C452 1.346 . S
C451 H456 0.930 1_565 S
C452 N449 1.336 . S
C452 C451 1.346 . S
C452 H459 0.929 . S
C453 O443 1.282 . S
C453 O454 1.216 . S
O454 C453 1.216 . S
H455 C450 0.930 . S
H456 C451 0.930 1_545 S
O457 Cu437 1.959 . S
O457 C444 1.239 1_565 S
H458 C441 0.930 . S
H459 C452 0.929 . S
Cu460 N461 2.001 . S
Cu460 O466 1.975 . S
Cu460 N471 1.984 1_665 S
Cu460 O480 1.958 1_565 S
N461 Cu460 2.001 . S
N461 C463 1.263 . S
N461 C465 1.389 . S
N462 C463 1.358 . S
N462 C464 1.400 . S
C463 N461 1.263 . S
C463 N462 1.358 . S
C463 H469 0.930 . S
C464 N462 1.400 . S
C464 C465 1.351 . S
C464 H481 0.930 . S
C465 N461 1.389 . S
C465 C464 1.351 . S
C465 H470 0.930 1_565 S
O466 Cu460 1.975 . S
O466 C476 1.282 1_655 S
C467 O468 1.261 . S
C467 O480 1.251 1_465 S
O468 C467 1.261 . S
H469 C463 0.930 . S
H470 C465 0.930 1_545 S
N471 Cu460 1.984 1_445 S
N471 C473 1.335 . S
N471 C474 1.390 . S
N472 C473 1.345 . S
N472 C475 1.336 . S
C473 N471 1.335 . S
C473 N472 1.345 . S
C473 H478 0.930 . S
C474 N471 1.390 . S
C474 C475 1.346 . S
C474 H479 0.930 1_545 S
C475 N472 1.336 . S
C475 C474 1.346 . S
C475 H482 0.929 . S
C476 O466 1.282 1_455 S
C476 O477 1.216 . S
O477 C476 1.216 . S
H478 C473 0.930 . S
H479 C474 0.930 1_565 S
O480 Cu460 1.958 1_545 S
O480 C467 1.251 1_645 S
H481 C464 0.930 . S
H482 C475 0.929 . S
Cu483 N484 1.999 . S
Cu483 O489 1.974 . S
Cu483 N494 1.985 . S
Cu483 O503 1.959 . S
N484 Cu483 1.999 . S
N484 C486 1.263 . S
N484 C488 1.389 . S
N485 C486 1.358 . S
N485 C487 1.400 . S
C486 N484 1.263 . S
C486 N485 1.358 . S
C486 H492 0.930 . S
C487 N485 1.400 . S
C487 C488 1.351 . S
C487 H504 0.930 . S
C488 N484 1.389 . S
C488 C487 1.351 . S
C488 H493 0.930 . S
O489 Cu483 1.974 . S
O489 C499 1.282 . S
C490 O491 1.261 . S
C490 O503 1.251 . S
O491 C490 1.261 . S
H492 C486 0.930 . S
H493 C488 0.930 . S
N494 Cu483 1.985 . S
N494 C496 1.335 . S
N494 C497 1.390 . S
N495 C496 1.345 . S
N495 C498 1.336 . S
C496 N494 1.335 . S
C496 N495 1.345 . S
C496 H501 0.930 . S
C497 N494 1.390 . S
C497 C498 1.346 . S
C497 H502 0.930 . S
C498 N495 1.336 . S
C498 C497 1.346 . S
C498 H505 0.929 . S
C499 O489 1.282 . S
C499 O500 1.216 . S
O500 C499 1.216 . S
H501 C496 0.930 . S
H502 C497 0.930 . S
O503 Cu483 1.959 . S
O503 C490 1.251 . S
H504 C487 0.930 . S
H505 C498 0.929 . S
Cu506 N507 1.999 . S
Cu506 O512 1.974 . S
Cu506 N517 1.985 1_655 S
Cu506 O526 1.959 . S
N507 Cu506 1.999 . S
N507 C509 1.263 . S
N507 C511 1.389 . S
N508 C509 1.358 . S
N508 C510 1.400 . S
C509 N507 1.263 . S
C509 N508 1.358 . S
C509 H515 0.930 . S
C510 N508 1.400 . S
C510 C511 1.351 . S
C510 H527 0.930 . S
C511 N507 1.389 . S
C511 C510 1.351 . S
C511 H516 0.930 . S
O512 Cu506 1.974 . S
O512 C522 1.282 1_655 S
C513 O514 1.261 . S
C513 O526 1.251 1_455 S
O514 C513 1.261 . S
H515 C509 0.930 . S
H516 C511 0.930 . S
N517 Cu506 1.985 1_455 S
N517 C519 1.335 . S
N517 C520 1.390 . S
N518 C519 1.345 . S
N518 C521 1.336 . S
C519 N517 1.335 . S
C519 N518 1.345 . S
C519 H524 0.930 . S
C520 N517 1.390 . S
C520 C521 1.346 . S
C520 H525 0.930 . S
C521 N518 1.336 . S
C521 C520 1.346 . S
C521 H528 0.929 . S
C522 O512 1.282 1_455 S
C522 O523 1.216 . S
O523 C522 1.216 . S
H524 C519 0.930 . S
H525 C520 0.930 . S
O526 Cu506 1.959 . S
O526 C513 1.251 1_655 S
H527 C510 0.930 . S
H528 C521 0.929 . S
Cu529 N530 1.999 1_545 S
Cu529 O535 1.974 1_545 S
Cu529 N540 1.985 . S
Cu529 O549 1.959 . S
N530 Cu529 1.999 1_565 S
N530 C532 1.263 . S
N530 C534 1.389 . S
N531 C532 1.358 . S
N531 C533 1.400 . S
C532 N530 1.263 . S
C532 N531 1.358 . S
C532 H538 0.930 . S
C533 N531 1.400 . S
C533 C534 1.351 . S
C533 H550 0.930 . S
C534 N530 1.389 . S
C534 C533 1.351 . S
C534 H539 0.930 1_565 S
O535 Cu529 1.974 1_565 S
O535 C545 1.282 . S
C536 O537 1.280 . S
C536 O549 1.239 1_565 S
O537 C536 1.280 . S
H538 C532 0.930 . S
H539 C534 0.930 1_545 S
N540 Cu529 1.985 . S
N540 C542 1.335 . S
N540 C543 1.390 . S
N541 C542 1.345 . S
N541 C544 1.336 . S
C542 N540 1.335 . S
C542 N541 1.345 . S
C542 H547 0.930 . S
C543 N540 1.390 . S
C543 C544 1.346 . S
C543 H548 0.930 1_545 S
C544 N541 1.336 . S
C544 C543 1.346 . S
C544 H551 0.929 . S
C545 O535 1.282 . S
C545 O546 1.216 . S
O546 C545 1.216 . S
H547 C542 0.930 . S
H548 C543 0.930 1_565 S
O549 Cu529 1.959 . S
O549 C536 1.239 1_545 S
H550 C533 0.930 . S
H551 C544 0.929 . S
Cu552 N553 1.999 . S
Cu552 O558 1.974 . S
Cu552 N563 1.985 1_455 S
Cu552 O572 1.959 . S
N553 Cu552 1.999 . S
N553 C555 1.263 . S
N553 C557 1.389 . S
N554 C555 1.358 . S
N554 C556 1.400 . S
C555 N553 1.263 . S
C555 N554 1.358 . S
C555 H561 0.930 . S
C556 N554 1.400 . S
C556 C557 1.351 . S
C556 H573 0.930 . S
C557 N553 1.389 . S
C557 C556 1.351 . S
C557 H562 0.930 . S
O558 Cu552 1.974 . S
O558 C568 1.282 1_455 S
C559 O560 1.261 . S
C559 O572 1.251 1_655 S
O560 C559 1.261 . S
H561 C555 0.930 . S
H562 C557 0.930 . S
N563 Cu552 1.985 1_655 S
N563 C565 1.335 . S
N563 C566 1.390 . S
N564 C565 1.345 . S
N564 C567 1.336 . S
C565 N563 1.335 . S
C565 N564 1.345 . S
C565 H570 0.930 . S
C566 N563 1.390 . S
C566 C567 1.346 . S
C566 H571 0.930 . S
C567 N564 1.336 . S
C567 C566 1.346 . S
C567 H574 0.929 . S
C568 O558 1.282 1_655 S
C568 O569 1.216 . S
O569 C568 1.216 . S
H570 C565 0.930 . S
H571 C566 0.930 . S
O572 Cu552 1.959 . S
O572 C559 1.251 1_455 S
H573 C556 0.930 . S
H574 C567 0.929 . S
Cu575 N576 1.999 . S
Cu575 O581 1.974 . S
Cu575 N586 1.985 . S
Cu575 O595 1.959 . S
N576 Cu575 1.999 . S
N576 C578 1.263 . S
N576 C580 1.389 . S
N577 C578 1.358 . S
N577 C579 1.400 . S
C578 N576 1.263 . S
C578 N577 1.358 . S
C578 H584 0.930 . S
C579 N577 1.400 . S
C579 C580 1.351 . S
C579 H596 0.930 . S
C580 N576 1.389 . S
C580 C579 1.351 . S
C580 H585 0.930 . S
O581 Cu575 1.974 . S
O581 C591 1.282 . S
C582 O583 1.261 . S
C582 O595 1.251 . S
O583 C582 1.261 . S
H584 C578 0.930 . S
H585 C580 0.930 . S
N586 Cu575 1.985 . S
N586 C588 1.335 . S
N586 C589 1.390 . S
N587 C588 1.345 . S
N587 C590 1.336 . S
C588 N586 1.335 . S
C588 N587 1.345 . S
C588 H593 0.930 . S
C589 N586 1.390 . S
C589 C590 1.346 . S
C589 H594 0.930 . S
C590 N587 1.336 . S
C590 C589 1.346 . S
C590 H597 0.929 . S
C591 O581 1.282 . S
C591 O592 1.216 . S
O592 C591 1.216 . S
H593 C588 0.930 . S
H594 C589 0.930 . S
O595 Cu575 1.959 . S
O595 C582 1.251 . S
H596 C579 0.930 . S
H597 C590 0.929 . S
Cu598 N599 1.999 . S
Cu598 O604 1.974 . S
Cu598 N609 1.985 1_455 S
Cu598 O618 1.959 . S
N599 Cu598 1.999 . S
N599 C601 1.263 . S
N599 C603 1.389 . S
N600 C601 1.358 . S
N600 C602 1.400 . S
C601 N599 1.263 . S
C601 N600 1.358 . S
C601 H607 0.930 . S
C602 N600 1.400 . S
C602 C603 1.351 . S
C602 H619 0.930 . S
C603 N599 1.389 . S
C603 C602 1.351 . S
C603 H608 0.930 . S
O604 Cu598 1.974 . S
O604 C614 1.282 1_455 S
C605 O606 1.261 . S
C605 O618 1.251 1_655 S
O606 C605 1.261 . S
H607 C601 0.930 . S
H608 C603 0.930 . S
N609 Cu598 1.985 1_655 S
N609 C611 1.335 . S
N609 C612 1.390 . S
N610 C611 1.345 . S
N610 C613 1.336 . S
C611 N609 1.335 . S
C611 N610 1.345 . S
C611 H616 0.930 . S
C612 N609 1.390 . S
C612 C613 1.346 . S
C612 H617 0.930 . S
C613 N610 1.336 . S
C613 C612 1.346 . S
C613 H620 0.929 . S
C614 O604 1.282 1_655 S
C614 O615 1.216 . S
O615 C614 1.216 . S
H616 C611 0.930 . S
H617 C612 0.930 . S
O618 Cu598 1.959 . S
O618 C605 1.251 1_455 S
H619 C602 0.930 . S
H620 C613 0.929 . S
Cu621 N622 1.999 . S
Cu621 O627 1.974 . S
Cu621 N632 1.985 . S
Cu621 O641 1.959 . S
N622 Cu621 1.999 . S
N622 C624 1.263 . S
N622 C626 1.389 . S
N623 C624 1.358 . S
N623 C625 1.400 . S
C624 N622 1.263 . S
C624 N623 1.358 . S
C624 H630 0.930 . S
C625 N623 1.400 . S
C625 C626 1.351 . S
C625 H642 0.930 . S
C626 N622 1.389 . S
C626 C625 1.351 . S
C626 H631 0.930 . S
O627 Cu621 1.974 . S
O627 C637 1.282 . S
C628 O629 1.261 . S
C628 O641 1.251 . S
O629 C628 1.261 . S
H630 C624 0.930 . S
H631 C626 0.930 . S
N632 Cu621 1.985 . S
N632 C634 1.335 . S
N632 C635 1.390 . S
N633 C634 1.345 . S
N633 C636 1.336 . S
C634 N632 1.335 . S
C634 N633 1.345 . S
C634 H639 0.930 . S
C635 N632 1.390 . S
C635 C636 1.346 . S
C635 H640 0.930 . S
C636 N633 1.336 . S
C636 C635 1.346 . S
C636 H643 0.929 . S
C637 O627 1.282 . S
C637 O638 1.216 . S
O638 C637 1.216 . S
H639 C634 0.930 . S
H640 C635 0.930 . S
O641 Cu621 1.959 . S
O641 C628 1.251 . S
H642 C625 0.930 . S
H643 C636 0.929 . S
Cu644 N645 1.999 . S
Cu644 O650 1.974 . S
Cu644 N655 1.985 1_655 S
Cu644 O664 1.959 . S
N645 Cu644 1.999 . S
N645 C647 1.263 . S
N645 C649 1.389 . S
N646 C647 1.358 . S
N646 C648 1.400 . S
C647 N645 1.263 . S
C647 N646 1.358 . S
C647 H653 0.930 . S
C648 N646 1.400 . S
C648 C649 1.351 . S
C648 H665 0.930 . S
C649 N645 1.389 . S
C649 C648 1.351 . S
C649 H654 0.930 . S
O650 Cu644 1.974 . S
O650 C660 1.282 1_655 S
C651 O652 1.261 . S
C651 O664 1.251 1_455 S
O652 C651 1.261 . S
H653 C647 0.930 . S
H654 C649 0.930 . S
N655 Cu644 1.985 1_455 S
N655 C657 1.335 . S
N655 C658 1.390 . S
N656 C657 1.345 . S
N656 C659 1.336 . S
C657 N655 1.335 . S
C657 N656 1.345 . S
C657 H662 0.930 . S
C658 N655 1.390 . S
C658 C659 1.346 . S
C658 H663 0.930 . S
C659 N656 1.336 . S
C659 C658 1.346 . S
C659 H666 0.929 . S
C660 O650 1.282 1_455 S
C660 O661 1.216 . S
O661 C660 1.216 . S
H662 C657 0.930 . S
H663 C658 0.930 . S
O664 Cu644 1.959 . S
O664 C651 1.251 1_655 S
H665 C648 0.930 . S
H666 C659 0.929 . S
Cu667 N668 1.999 . S
Cu667 O673 1.974 . S
Cu667 N678 1.985 . S
Cu667 O687 1.959 . S
N668 Cu667 1.999 . S
N668 C670 1.263 . S
N668 C672 1.389 . S
N669 C670 1.358 . S
N669 C671 1.400 . S
C670 N668 1.263 . S
C670 N669 1.358 . S
C670 H676 0.930 . S
C671 N669 1.400 . S
C671 C672 1.351 . S
C671 H688 0.930 . S
C672 N668 1.389 . S
C672 C671 1.351 . S
C672 H677 0.930 . S
O673 Cu667 1.974 . S
O673 C683 1.282 . S
C674 O675 1.261 . S
C674 O687 1.251 . S
O675 C674 1.261 . S
H676 C670 0.930 . S
H677 C672 0.930 . S
N678 Cu667 1.985 . S
N678 C680 1.335 . S
N678 C681 1.390 . S
N679 C680 1.345 . S
N679 C682 1.336 . S
C680 N678 1.335 . S
C680 N679 1.345 . S
C680 H685 0.930 . S
C681 N678 1.390 . S
C681 C682 1.346 . S
C681 H686 0.930 . S
C682 N679 1.336 . S
C682 C681 1.346 . S
C682 H689 0.929 . S
C683 O673 1.282 . S
C683 O684 1.216 . S
O684 C683 1.216 . S
H685 C680 0.930 . S
H686 C681 0.930 . S
O687 Cu667 1.959 . S
O687 C674 1.251 . S
H688 C671 0.930 . S
H689 C682 0.929 . S
Cu690 N691 1.999 . S
Cu690 O696 1.974 . S
Cu690 N701 1.985 1_655 S
Cu690 O710 1.959 . S
N691 Cu690 1.999 . S
N691 C693 1.263 . S
N691 C695 1.389 . S
N692 C693 1.358 . S
N692 C694 1.400 . S
C693 N691 1.263 . S
C693 N692 1.358 . S
C693 H699 0.930 . S
C694 N692 1.400 . S
C694 C695 1.351 . S
C694 H711 0.930 . S
C695 N691 1.389 . S
C695 C694 1.351 . S
C695 H700 0.930 . S
O696 Cu690 1.974 . S
O696 C706 1.282 1_655 S
C697 O698 1.261 . S
C697 O710 1.251 1_455 S
O698 C697 1.261 . S
H699 C693 0.930 . S
H700 C695 0.930 . S
N701 Cu690 1.985 1_455 S
N701 C703 1.335 . S
N701 C704 1.390 . S
N702 C703 1.345 . S
N702 C705 1.336 . S
C703 N701 1.335 . S
C703 N702 1.345 . S
C703 H708 0.930 . S
C704 N701 1.390 . S
C704 C705 1.346 . S
C704 H709 0.930 . S
C705 N702 1.336 . S
C705 C704 1.346 . S
C705 H712 0.929 . S
C706 O696 1.282 1_455 S
C706 O707 1.216 . S
O707 C706 1.216 . S
H708 C703 0.930 . S
H709 C704 0.930 . S
O710 Cu690 1.959 . S
O710 C697 1.251 1_655 S
H711 C694 0.930 . S
H712 C705 0.929 . S
Cu713 N714 1.999 . S
Cu713 O719 1.974 . S
Cu713 N724 1.985 . S
Cu713 O733 1.959 . S
N714 Cu713 1.999 . S
N714 C716 1.263 . S
N714 C718 1.389 . S
N715 C716 1.358 . S
N715 C717 1.400 . S
C716 N714 1.263 . S
C716 N715 1.358 . S
C716 H722 0.930 . S
C717 N715 1.400 . S
C717 C718 1.351 . S
C717 H734 0.930 . S
C718 N714 1.389 . S
C718 C717 1.351 . S
C718 H723 0.930 . S
O719 Cu713 1.974 . S
O719 C729 1.282 . S
C720 O721 1.261 . S
C720 O733 1.251 . S
O721 C720 1.261 . S
H722 C716 0.930 . S
H723 C718 0.930 . S
N724 Cu713 1.985 . S
N724 C726 1.335 . S
N724 C727 1.390 . S
N725 C726 1.345 . S
N725 C728 1.336 . S
C726 N724 1.335 . S
C726 N725 1.345 . S
C726 H731 0.930 . S
C727 N724 1.390 . S
C727 C728 1.346 . S
C727 H732 0.930 . S
C728 N725 1.336 . S
C728 C727 1.346 . S
C728 H735 0.929 . S
C729 O719 1.282 . S
C729 O730 1.216 . S
O730 C729 1.216 . S
H731 C726 0.930 . S
H732 C727 0.930 . S
O733 Cu713 1.959 . S
O733 C720 1.251 . S
H734 C717 0.930 . S
H735 C728 0.929 . S
C736 C737 1.387 . S
C736 H740 0.950 . S
C736 C745 1.390 . S
C737 C736 1.387 . S
C737 C739 1.387 . S
H738 C745 0.950 . S
C739 C737 1.387 . S
C739 C741 1.390 . S
C739 H743 0.950 . S
H740 C736 0.950 . S
C741 C739 1.390 . S
C741 C742 1.387 . S
C741 H744 0.950 . S
C742 C741 1.387 . S
C742 C745 1.387 . S
H743 C739 0.950 . S
H744 C741 0.950 . S
C745 C736 1.390 . S
C745 H738 0.950 . S
C745 C742 1.387 . S
C746 C747 1.387 . S
C746 H750 0.950 . S
C746 C755 1.390 . S
C747 C746 1.387 . S
C747 C749 1.387 . S
H748 C755 0.950 . S
C749 C747 1.387 . S
C749 C751 1.390 . S
C749 H753 0.950 . S
H750 C746 0.950 . S
C751 C749 1.390 . S
C751 C752 1.387 . S
C751 H754 0.950 . S
C752 C751 1.387 . S
C752 C755 1.387 . S
H753 C749 0.950 . S
H754 C751 0.950 . S
C755 C746 1.390 . S
C755 H748 0.950 . S
C755 C752 1.387 . S
C756 C757 1.387 . S
C756 H760 0.950 . S
C756 C765 1.390 . S
C757 C756 1.387 . S
C757 C759 1.387 . S
H758 C765 0.950 . S
C759 C757 1.387 . S
C759 C761 1.390 . S
C759 H763 0.950 . S
H760 C756 0.950 . S
C761 C759 1.390 . S
C761 C762 1.387 . S
C761 H764 0.950 . S
C762 C761 1.387 . S
C762 C765 1.387 . S
H763 C759 0.950 . S
H764 C761 0.950 . S
C765 C756 1.390 . S
C765 H758 0.950 . S
C765 C762 1.387 . S
C766 C767 1.387 . S
C766 H770 0.950 . S
C766 C775 1.390 . S
C767 C766 1.387 . S
C767 C769 1.387 . S
H768 C775 0.950 . S
C769 C767 1.387 . S
C769 C771 1.390 . S
C769 H773 0.950 . S
H770 C766 0.950 . S
C771 C769 1.390 . S
C771 C772 1.387 . S
C771 H774 0.950 . S
C772 C771 1.387 . S
C772 C775 1.387 . S
H773 C769 0.950 . S
H774 C771 0.950 . S
C775 C766 1.390 . S
C775 H768 0.950 . S
C775 C772 1.387 . S
C776 C777 1.387 . S
C776 H780 0.950 . S
C776 C785 1.390 . S
C777 C776 1.387 . S
C777 C779 1.387 . S
H778 C785 0.950 . S
C779 C777 1.387 . S
C779 C781 1.390 . S
C779 H783 0.950 . S
H780 C776 0.950 . S
C781 C779 1.390 . S
C781 C782 1.387 . S
C781 H784 0.950 . S
C782 C781 1.387 . S
C782 C785 1.387 . S
H783 C779 0.950 . S
H784 C781 0.950 . S
C785 C776 1.390 . S
C785 H778 0.950 . S
C785 C782 1.387 . S
C786 C787 1.387 . S
C786 H790 0.950 . S
C786 C795 1.390 . S
C787 C786 1.387 . S
C787 C789 1.387 . S
H788 C795 0.950 . S
C789 C787 1.387 . S
C789 C791 1.390 . S
C789 H793 0.950 . S
H790 C786 0.950 . S
C791 C789 1.390 . S
C791 C792 1.387 . S
C791 H794 0.950 . S
C792 C791 1.387 . S
C792 C795 1.387 . S
H793 C789 0.950 . S
H794 C791 0.950 . S
C795 C786 1.390 . S
C795 H788 0.950 . S
C795 C792 1.387 . S
C796 C797 1.387 . S
C796 H800 0.950 . S
C796 C805 1.390 . S
C797 C796 1.387 . S
C797 C799 1.387 . S
H798 C805 0.950 . S
C799 C797 1.387 . S
C799 C801 1.390 . S
C799 H803 0.950 . S
H800 C796 0.950 . S
C801 C799 1.390 . S
C801 C802 1.387 . S
C801 H804 0.950 . S
C802 C801 1.387 . S
C802 C805 1.387 . S
H803 C799 0.950 . S
H804 C801 0.950 . S
C805 C796 1.390 . S
C805 H798 0.950 . S
C805 C802 1.387 . S
C806 C807 1.387 . S
C806 H810 0.950 . S
C806 C815 1.390 . S
C807 C806 1.387 . S
C807 C809 1.387 . S
H808 C815 0.950 . S
C809 C807 1.387 . S
C809 C811 1.390 . S
C809 H813 0.950 . S
H810 C806 0.950 . S
C811 C809 1.390 . S
C811 C812 1.387 . S
C811 H814 0.950 . S
C812 C811 1.387 . S
C812 C815 1.387 . S
H813 C809 0.950 . S
H814 C811 0.950 . S
C815 C806 1.390 . S
C815 H808 0.950 . S
C815 C812 1.387 . S
C816 C817 1.386 . S
C816 H820 0.950 . S
C816 C825 1.390 . S
C817 C816 1.386 . S
C817 C819 1.389 1_455 S
H818 C825 0.950 . S
C819 C817 1.389 1_655 S
C819 C821 1.390 . S
C819 H823 0.950 . S
H820 C816 0.950 . S
C821 C819 1.390 . S
C821 C822 1.389 1_655 S
C821 H824 0.950 . S
C822 C821 1.389 1_455 S
C822 C825 1.386 . S
H823 C819 0.950 . S
H824 C821 0.950 . S
C825 C816 1.390 . S
C825 H818 0.950 . S
C825 C822 1.386 . S
C826 C827 1.387 . S
C826 H830 0.950 . S
C826 C835 1.390 . S
C827 C826 1.387 . S
C827 C829 1.387 . S
H828 C835 0.950 . S
C829 C827 1.387 . S
C829 C831 1.390 . S
C829 H833 0.950 . S
H830 C826 0.950 . S
C831 C829 1.390 . S
C831 C832 1.387 . S
C831 H834 0.950 . S
C832 C831 1.387 . S
C832 C835 1.387 . S
H833 C829 0.950 . S
H834 C831 0.950 . S
C835 C826 1.390 . S
C835 H828 0.950 . S
C835 C832 1.387 . S
C836 C837 1.386 . S
C836 H840 0.950 . S
C836 C845 1.390 . S
C837 C836 1.386 . S
C837 C839 1.389 1_655 S
H838 C845 0.950 . S
C839 C837 1.389 1_455 S
C839 C841 1.390 . S
C839 H843 0.950 . S
H840 C836 0.950 . S
C841 C839 1.390 . S
C841 C842 1.389 1_455 S
C841 H844 0.950 . S
C842 C841 1.389 1_655 S
C842 C845 1.386 . S
H843 C839 0.950 . S
H844 C841 0.950 . S
C845 C836 1.390 . S
C845 H838 0.950 . S
C845 C842 1.386 . S
C846 C847 1.387 . S
C846 H850 0.950 . S
C846 C855 1.390 . S
C847 C846 1.387 . S
C847 C849 1.387 . S
H848 C855 0.950 . S
C849 C847 1.387 . S
C849 C851 1.390 . S
C849 H853 0.950 . S
H850 C846 0.950 . S
C851 C849 1.390 . S
C851 C852 1.387 . S
C851 H854 0.950 . S
C852 C851 1.387 . S
C852 C855 1.387 . S
H853 C849 0.950 . S
H854 C851 0.950 . S
C855 C846 1.390 . S
C855 H848 0.950 . S
C855 C852 1.387 . S
C856 C857 1.386 . S
C856 H860 0.950 . S
C856 C865 1.390 . S
C857 C856 1.386 . S
C857 C859 1.389 1_455 S
H858 C865 0.950 . S
C859 C857 1.389 1_655 S
C859 C861 1.390 . S
C859 H863 0.950 . S
H860 C856 0.950 . S
C861 C859 1.390 . S
C861 C862 1.389 1_655 S
C861 H864 0.950 . S
C862 C861 1.389 1_455 S
C862 C865 1.386 . S
H863 C859 0.950 . S
H864 C861 0.950 . S
C865 C856 1.390 . S
C865 H858 0.950 . S
C865 C862 1.386 . S
C866 C867 1.387 . S
C866 H870 0.950 . S
C866 C875 1.390 . S
C867 C866 1.387 . S
C867 C869 1.387 . S
H868 C875 0.950 . S
C869 C867 1.387 . S
C869 C871 1.390 . S
C869 H873 0.950 . S
H870 C866 0.950 . S
C871 C869 1.390 . S
C871 C872 1.387 . S
C871 H874 0.950 . S
C872 C871 1.387 . S
C872 C875 1.387 . S
H873 C869 0.950 . S
H874 C871 0.950 . S
C875 C866 1.390 . S
C875 H868 0.950 . S
C875 C872 1.387 . S
C876 C877 1.386 . S
C876 H880 0.950 . S
C876 C885 1.390 . S
C877 C876 1.386 . S
C877 C879 1.389 1_655 S
H878 C885 0.950 . S
C879 C877 1.389 1_455 S
C879 C881 1.390 . S
C879 H883 0.950 . S
H880 C876 0.950 . S
C881 C879 1.390 . S
C881 C882 1.389 1_455 S
C881 H884 0.950 . S
C882 C881 1.389 1_655 S
C882 C885 1.386 . S
H883 C879 0.950 . S
H884 C881 0.950 . S
C885 C876 1.390 . S
C885 H878 0.950 . S
C885 C882 1.386 . S
C886 C887 1.387 . S
C886 H890 0.950 . S
C886 C895 1.390 . S
C887 C886 1.387 . S
C887 C889 1.387 . S
H888 C895 0.950 . S
C889 C887 1.387 . S
C889 C891 1.390 . S
C889 H893 0.950 . S
H890 C886 0.950 . S
C891 C889 1.390 . S
C891 C892 1.387 . S
C891 H894 0.950 . S
C892 C891 1.387 . S
C892 C895 1.387 . S
H893 C889 0.950 . S
H894 C891 0.950 . S
C895 C886 1.390 . S
C895 H888 0.950 . S
C895 C892 1.387 . S
C896 C897 1.387 . S
C896 H900 0.950 . S
C896 C905 1.390 . S
C897 C896 1.387 . S
C897 C899 1.387 . S
H898 C905 0.950 . S
C899 C897 1.387 . S
C899 C901 1.390 . S
C899 H903 0.950 . S
H900 C896 0.950 . S
C901 C899 1.390 . S
C901 C902 1.387 . S
C901 H904 0.950 . S
C902 C901 1.387 . S
C902 C905 1.387 . S
H903 C899 0.950 . S
H904 C901 0.950 . S
C905 C896 1.390 . S
C905 H898 0.950 . S
C905 C902 1.387 . S
C906 C907 1.387 . S
C906 H910 0.950 . S
C906 C915 1.390 . S
C907 C906 1.387 . S
C907 C909 1.387 . S
H908 C915 0.950 . S
C909 C907 1.387 . S
C909 C911 1.390 . S
C909 H913 0.950 . S
H910 C906 0.950 . S
C911 C909 1.390 . S
C911 C912 1.387 . S
C911 H914 0.950 . S
C912 C911 1.387 . S
C912 C915 1.387 . S
H913 C909 0.950 . S
H914 C911 0.950 . S
C915 C906 1.390 . S
C915 H908 0.950 . S
C915 C912 1.387 . S
C916 C917 1.387 . S
C916 H920 0.950 . S
C916 C925 1.390 . S
C917 C916 1.387 . S
C917 C919 1.387 . S
H918 C925 0.950 . S
C919 C917 1.387 . S
C919 C921 1.390 . S
C919 H923 0.950 . S
H920 C916 0.950 . S
C921 C919 1.390 . S
C921 C922 1.387 . S
C921 H924 0.950 . S
C922 C921 1.387 . S
C922 C925 1.387 . S
H923 C919 0.950 . S
H924 C921 0.950 . S
C925 C916 1.390 . S
C925 H918 0.950 . S
C925 C922 1.387 . S
C926 C927 1.387 . S
C926 H930 0.950 . S
C926 C935 1.390 . S
C927 C926 1.387 . S
C927 C929 1.387 . S
H928 C935 0.950 . S
C929 C927 1.387 . S
C929 C931 1.390 . S
C929 H933 0.950 . S
H930 C926 0.950 . S
C931 C929 1.390 . S
C931 C932 1.387 . S
C931 H934 0.950 . S
C932 C931 1.387 . S
C932 C935 1.387 . S
H933 C929 0.950 . S
H934 C931 0.950 . S
C935 C926 1.390 . S
C935 H928 0.950 . S
C935 C932 1.387 . S
C936 C937 1.387 . S
C936 H940 0.950 . S
C936 C945 1.390 . S
C937 C936 1.387 . S
C937 C939 1.387 . S
H938 C945 0.950 . S
C939 C937 1.387 . S
C939 C941 1.390 . S
C939 H943 0.950 . S
H940 C936 0.950 . S
C941 C939 1.390 . S
C941 C942 1.387 . S
C941 H944 0.950 . S
C942 C941 1.387 . S
C942 C945 1.387 . S
H943 C939 0.950 . S
H944 C941 0.950 . S
C945 C936 1.390 . S
C945 H938 0.950 . S
C945 C942 1.387 . S
C946 C947 1.387 . S
C946 H950 0.950 . S
C946 C955 1.390 . S
C947 C946 1.387 . S
C947 C949 1.387 . S
H948 C955 0.950 . S
C949 C947 1.387 . S
C949 C951 1.390 . S
C949 H953 0.950 . S
H950 C946 0.950 . S
C951 C949 1.390 . S
C951 C952 1.387 . S
C951 H954 0.950 . S
C952 C951 1.387 . S
C952 C955 1.387 . S
H953 C949 0.950 . S
H954 C951 0.950 . S
C955 C946 1.390 . S
C955 H948 0.950 . S
C955 C952 1.387 . S
C956 C957 1.387 . S
C956 H960 0.950 . S
C956 C965 1.390 . S
C957 C956 1.387 . S
C957 C959 1.387 . S
H958 C965 0.950 . S
C959 C957 1.387 . S
C959 C961 1.390 . S
C959 H963 0.950 . S
H960 C956 0.950 . S
C961 C959 1.390 . S
C961 C962 1.387 . S
C961 H964 0.950 . S
C962 C961 1.387 . S
C962 C965 1.387 . S
H963 C959 0.950 . S
H964 C961 0.950 . S
C965 C956 1.390 . S
C965 H958 0.950 . S
C965 C962 1.387 . S
C966 C967 1.387 . S
C966 H970 0.950 . S
C966 C975 1.390 . S
C967 C966 1.387 . S
C967 C969 1.387 . S
H968 C975 0.950 . S
C969 C967 1.387 . S
C969 C971 1.390 . S
C969 H973 0.950 . S
H970 C966 0.950 . S
C971 C969 1.390 . S
C971 C972 1.387 . S
C971 H974 0.950 . S
C972 C971 1.387 . S
C972 C975 1.387 . S
H973 C969 0.950 . S
H974 C971 0.950 . S
C975 C966 1.390 . S
C975 H968 0.950 . S
C975 C972 1.387 . S
C976 C977 1.387 . S
C976 H980 0.950 . S
C976 C985 1.390 . S
C977 C976 1.387 . S
C977 C979 1.387 . S
H978 C985 0.950 . S
C979 C977 1.387 . S
C979 C981 1.390 . S
C979 H983 0.950 . S
H980 C976 0.950 . S
C981 C979 1.390 . S
C981 C982 1.387 . S
C981 H984 0.950 . S
C982 C981 1.387 . S
C982 C985 1.387 . S
H983 C979 0.950 . S
H984 C981 0.950 . S
C985 C976 1.390 . S
C985 H978 0.950 . S
C985 C982 1.387 . S
C986 C987 1.387 . S
C986 H990 0.950 . S
C986 C995 1.390 . S
C987 C986 1.387 . S
C987 C989 1.387 . S
H988 C995 0.950 . S
C989 C987 1.387 . S
C989 C991 1.390 . S
C989 H993 0.950 . S
H990 C986 0.950 . S
C991 C989 1.390 . S
C991 C992 1.387 . S
C991 H994 0.950 . S
C992 C991 1.387 . S
C992 C995 1.387 . S
H993 C989 0.950 . S
H994 C991 0.950 . S
C995 C986 1.390 . S
C995 H988 0.950 . S
C995 C992 1.387 . S
C996 C997 1.387 . S
C996 H1000 0.950 . S
C996 C1005 1.390 . S
C997 C996 1.387 . S
C997 C999 1.387 . S
H998 C1005 0.950 . S
C999 C997 1.387 . S
C999 C1001 1.390 . S
C999 H1003 0.950 . S
H1000 C996 0.950 . S
C1001 C999 1.390 . S
C1001 C1002 1.387 . S
C1001 H1004 0.950 . S
C1002 C1001 1.387 . S
C1002 C1005 1.387 . S
H1003 C999 0.950 . S
H1004 C1001 0.950 . S
C1005 C996 1.390 . S
C1005 H998 0.950 . S
C1005 C1002 1.387 . S
C1006 C1007 1.387 . S
C1006 H1010 0.950 . S
C1006 C1015 1.390 . S
C1007 C1006 1.387 . S
C1007 C1009 1.387 . S
H1008 C1015 0.950 . S
C1009 C1007 1.387 . S
C1009 C1011 1.390 . S
C1009 H1013 0.950 . S
H1010 C1006 0.950 . S
C1011 C1009 1.390 . S
C1011 C1012 1.387 . S
C1011 H1014 0.950 . S
C1012 C1011 1.387 . S
C1012 C1015 1.387 . S
H1013 C1009 0.950 . S
H1014 C1011 0.950 . S
C1015 C1006 1.390 . S
C1015 H1008 0.950 . S
C1015 C1012 1.387 . S
C1016 C1017 1.387 . S
C1016 H1020 0.950 . S
C1016 C1025 1.390 . S
C1017 C1016 1.387 . S
C1017 C1019 1.387 . S
H1018 C1025 0.950 . S
C1019 C1017 1.387 . S
C1019 C1021 1.390 . S
C1019 H1023 0.950 . S
H1020 C1016 0.950 . S
C1021 C1019 1.390 . S
C1021 C1022 1.387 . S
C1021 H1024 0.950 . S
C1022 C1021 1.387 . S
C1022 C1025 1.387 . S
H1023 C1019 0.950 . S
H1024 C1021 0.950 . S
C1025 C1016 1.390 . S
C1025 H1018 0.950 . S
C1025 C1022 1.387 . S
C1026 C1027 1.387 . S
C1026 H1030 0.950 . S
C1026 C1035 1.390 . S
C1027 C1026 1.387 . S
C1027 C1029 1.387 . S
H1028 C1035 0.950 . S
C1029 C1027 1.387 . S
C1029 C1031 1.390 . S
C1029 H1033 0.950 . S
H1030 C1026 0.950 . S
C1031 C1029 1.390 . S
C1031 C1032 1.387 . S
C1031 H1034 0.950 . S
C1032 C1031 1.387 . S
C1032 C1035 1.387 . S
H1033 C1029 0.950 . S
H1034 C1031 0.950 . S
C1035 C1026 1.390 . S
C1035 H1028 0.950 . S
C1035 C1032 1.387 . S
C1036 C1037 1.387 . S
C1036 H1040 0.950 . S
C1036 C1045 1.390 . S
C1037 C1036 1.387 . S
C1037 C1039 1.387 . S
H1038 C1045 0.950 . S
C1039 C1037 1.387 . S
C1039 C1041 1.390 . S
C1039 H1043 0.950 . S
H1040 C1036 0.950 . S
C1041 C1039 1.390 . S
C1041 C1042 1.387 . S
C1041 H1044 0.950 . S
C1042 C1041 1.387 . S
C1042 C1045 1.387 . S
H1043 C1039 0.950 . S
H1044 C1041 0.950 . S
C1045 C1036 1.390 . S
C1045 H1038 0.950 . S
C1045 C1042 1.387 . S
C1046 C1047 1.387 . S
C1046 H1050 0.950 . S
C1046 C1055 1.390 . S
C1047 C1046 1.387 . S
C1047 C1049 1.387 . S
H1048 C1055 0.950 . S
C1049 C1047 1.387 . S
C1049 C1051 1.390 . S
C1049 H1053 0.950 . S
H1050 C1046 0.950 . S
C1051 C1049 1.390 . S
C1051 C1052 1.387 . S
C1051 H1054 0.950 . S
C1052 C1051 1.387 . S
C1052 C1055 1.387 . S
H1053 C1049 0.950 . S
H1054 C1051 0.950 . S
C1055 C1046 1.390 . S
C1055 H1048 0.950 . S
C1055 C1052 1.387 . S
C1056 C1057 1.387 . S
C1056 H1060 0.950 . S
C1056 C1065 1.390 1_554 S
C1057 C1056 1.387 . S
C1057 C1059 1.387 1_565 S
H1058 C1065 0.950 . S
C1059 C1057 1.387 1_545 S
C1059 C1061 1.390 1_554 S
C1059 H1063 0.950 . S
H1060 C1056 0.950 . S
C1061 C1059 1.390 1_556 S
C1061 C1062 1.387 . S
C1061 H1064 0.950 . S
C1062 C1061 1.387 . S
C1062 C1065 1.387 1_545 S
H1063 C1059 0.950 . S
H1064 C1061 0.950 . S
C1065 C1056 1.390 1_556 S
C1065 H1058 0.950 . S
C1065 C1062 1.387 1_565 S
C1066 C1067 1.387 . S
C1066 H1070 0.950 . S
C1066 C1075 1.390 1_554 S
C1067 C1066 1.387 . S
C1067 C1069 1.387 . S
H1068 C1075 0.950 . S
C1069 C1067 1.387 . S
C1069 C1071 1.390 1_554 S
C1069 H1073 0.950 . S
H1070 C1066 0.950 . S
C1071 C1069 1.390 1_556 S
C1071 C1072 1.387 . S
C1071 H1074 0.950 . S
C1072 C1071 1.387 . S
C1072 C1075 1.387 . S
H1073 C1069 0.950 . S
H1074 C1071 0.950 . S
C1075 C1066 1.390 1_556 S
C1075 H1068 0.950 . S
C1075 C1072 1.387 . S
C1076 C1077 1.387 . S
C1076 H1080 0.950 . S
C1076 C1085 1.390 . S
C1077 C1076 1.387 . S
C1077 C1079 1.387 . S
H1078 C1085 0.950 . S
C1079 C1077 1.387 . S
C1079 C1081 1.390 . S
C1079 H1083 0.950 . S
H1080 C1076 0.950 . S
C1081 C1079 1.390 . S
C1081 C1082 1.387 . S
C1081 H1084 0.950 . S
C1082 C1081 1.387 . S
C1082 C1085 1.387 . S
H1083 C1079 0.950 . S
H1084 C1081 0.950 . S
C1085 C1076 1.390 . S
C1085 H1078 0.950 . S
C1085 C1082 1.387 . S
C1086 C1087 1.387 1_545 S
C1086 H1090 0.950 . S
C1086 C1095 1.390 . S
C1087 C1086 1.387 1_565 S
C1087 C1089 1.387 . S
H1088 C1095 0.950 . S
C1089 C1087 1.387 . S
C1089 C1091 1.390 . S
C1089 H1093 0.950 . S
H1090 C1086 0.950 . S
C1091 C1089 1.390 . S
C1091 C1092 1.387 1_565 S
C1091 H1094 0.950 . S
C1092 C1091 1.387 1_545 S
C1092 C1095 1.387 . S
H1093 C1089 0.950 . S
H1094 C1091 0.950 . S
C1095 C1086 1.390 . S
C1095 H1088 0.950 . S
C1095 C1092 1.387 . S
C1096 C1097 1.387 . S
C1096 H1100 0.950 . S
C1096 C1105 1.390 1_556 S
C1097 C1096 1.387 . S
C1097 C1099 1.387 . S
H1098 C1105 0.950 . S
C1099 C1097 1.387 . S
C1099 C1101 1.390 1_556 S
C1099 H1103 0.950 . S
H1100 C1096 0.950 . S
C1101 C1099 1.390 1_554 S
C1101 C1102 1.387 . S
C1101 H1104 0.950 . S
C1102 C1101 1.387 . S
C1102 C1105 1.387 . S
H1103 C1099 0.950 . S
H1104 C1101 0.950 . S
C1105 C1096 1.390 1_554 S
C1105 H1098 0.950 . S
C1105 C1102 1.387 . S
C1106 C1107 1.387 . S
C1106 H1110 0.950 . S
C1106 C1115 1.390 . S
C1107 C1106 1.387 . S
C1107 C1109 1.387 . S
H1108 C1115 0.950 . S
C1109 C1107 1.387 . S
C1109 C1111 1.390 . S
C1109 H1113 0.950 . S
H1110 C1106 0.950 . S
C1111 C1109 1.390 . S
C1111 C1112 1.387 . S
C1111 H1114 0.950 . S
C1112 C1111 1.387 . S
C1112 C1115 1.387 . S
H1113 C1109 0.950 . S
H1114 C1111 0.950 . S
C1115 C1106 1.390 . S
C1115 H1108 0.950 . S
C1115 C1112 1.387 . S
C1116 C1117 1.387 . S
C1116 H1120 0.950 . S
C1116 C1125 1.390 . S
C1117 C1116 1.387 . S
C1117 C1119 1.387 1_565 S
H1118 C1125 0.950 . S
C1119 C1117 1.387 1_545 S
C1119 C1121 1.390 . S
C1119 H1123 0.950 . S
H1120 C1116 0.950 . S
C1121 C1119 1.390 . S
C1121 C1122 1.387 . S
C1121 H1124 0.950 . S
C1122 C1121 1.387 . S
C1122 C1125 1.387 1_545 S
H1123 C1119 0.950 . S
H1124 C1121 0.950 . S
C1125 C1116 1.390 . S
C1125 H1118 0.950 . S
C1125 C1122 1.387 1_565 S
C1126 C1127 1.387 . S
C1126 H1130 0.950 . S
C1126 C1135 1.390 . S
C1127 C1126 1.387 . S
C1127 C1129 1.387 . S
H1128 C1135 0.950 . S
C1129 C1127 1.387 . S
C1129 C1131 1.390 . S
C1129 H1133 0.950 . S
H1130 C1126 0.950 . S
C1131 C1129 1.390 . S
C1131 C1132 1.387 . S
C1131 H1134 0.950 . S
C1132 C1131 1.387 . S
C1132 C1135 1.387 . S
H1133 C1129 0.950 . S
H1134 C1131 0.950 . S
C1135 C1126 1.390 . S
C1135 H1128 0.950 . S
C1135 C1132 1.387 . S
C1136 C1137 1.387 . S
C1136 H1140 0.950 . S
C1136 C1145 1.390 . S
C1137 C1136 1.387 . S
C1137 C1139 1.387 . S
H1138 C1145 0.950 . S
C1139 C1137 1.387 . S
C1139 C1141 1.390 . S
C1139 H1143 0.950 . S
H1140 C1136 0.950 . S
C1141 C1139 1.390 . S
C1141 C1142 1.387 . S
C1141 H1144 0.950 . S
C1142 C1141 1.387 . S
C1142 C1145 1.387 . S
H1143 C1139 0.950 . S
H1144 C1141 0.950 . S
C1145 C1136 1.390 . S
C1145 H1138 0.950 . S
C1145 C1142 1.387 . S
C1146 C1147 1.387 . S
C1146 H1150 0.950 . S
C1146 C1155 1.390 . S
C1147 C1146 1.387 . S
C1147 C1149 1.387 . S
H1148 C1155 0.950 . S
C1149 C1147 1.387 . S
C1149 C1151 1.390 . S
C1149 H1153 0.950 . S
H1150 C1146 0.950 . S
C1151 C1149 1.390 . S
C1151 C1152 1.387 . S
C1151 H1154 0.950 . S
C1152 C1151 1.387 . S
C1152 C1155 1.387 . S
H1153 C1149 0.950 . S
H1154 C1151 0.950 . S
C1155 C1146 1.390 . S
C1155 H1148 0.950 . S
C1155 C1152 1.387 . S
C1156 C1157 1.387 . S
C1156 H1160 0.950 . S
C1156 C1165 1.390 . S
C1157 C1156 1.387 . S
C1157 C1159 1.387 . S
H1158 C1165 0.950 . S
C1159 C1157 1.387 . S
C1159 C1161 1.390 . S
C1159 H1163 0.950 . S
H1160 C1156 0.950 . S
C1161 C1159 1.390 . S
C1161 C1162 1.387 . S
C1161 H1164 0.950 . S
C1162 C1161 1.387 . S
C1162 C1165 1.387 . S
H1163 C1159 0.950 . S
H1164 C1161 0.950 . S
C1165 C1156 1.390 . S
C1165 H1158 0.950 . S
C1165 C1162 1.387 . S
C1166 C1167 1.387 . S
C1166 H1170 0.950 . S
C1166 C1175 1.390 . S
C1167 C1166 1.387 . S
C1167 C1169 1.387 . S
H1168 C1175 0.950 . S
C1169 C1167 1.387 . S
C1169 C1171 1.390 . S
C1169 H1173 0.950 . S
H1170 C1166 0.950 . S
C1171 C1169 1.390 . S
C1171 C1172 1.387 . S
C1171 H1174 0.950 . S
C1172 C1171 1.387 . S
C1172 C1175 1.387 . S
H1173 C1169 0.950 . S
H1174 C1171 0.950 . S
C1175 C1166 1.390 . S
C1175 H1168 0.950 . S
C1175 C1172 1.387 . S
C1176 C1177 1.387 1_655 S
C1176 H1180 0.950 . S
C1176 C1185 1.390 . S
C1177 C1176 1.387 1_455 S
C1177 C1179 1.387 1_545 S
H1178 C1185 0.950 . S
C1179 C1177 1.387 1_565 S
C1179 C1181 1.390 . S
C1179 H1183 0.950 . S
H1180 C1176 0.950 . S
C1181 C1179 1.390 . S
C1181 C1182 1.387 1_455 S
C1181 H1184 0.950 . S
C1182 C1181 1.387 1_655 S
C1182 C1185 1.387 1_565 S
H1183 C1179 0.950 . S
H1184 C1181 0.950 . S
C1185 C1176 1.390 . S
C1185 H1178 0.950 . S
C1185 C1182 1.387 1_545 S
C1186 C1187 1.387 . S
C1186 H1190 0.950 . S
C1186 C1195 1.390 1_655 S
C1187 C1186 1.387 . S
C1187 C1189 1.387 . S
H1188 C1195 0.950 . S
C1189 C1187 1.387 . S
C1189 C1191 1.390 1_655 S
C1189 H1193 0.950 . S
H1190 C1186 0.950 . S
C1191 C1189 1.390 1_455 S
C1191 C1192 1.387 . S
C1191 H1194 0.950 . S
C1192 C1191 1.387 . S
C1192 C1195 1.387 . S
H1193 C1189 0.950 . S
H1194 C1191 0.950 . S
C1195 C1186 1.390 1_455 S
C1195 H1188 0.950 . S
C1195 C1192 1.387 . S
C1196 C1197 1.387 1_455 S
C1196 H1200 0.950 . S
C1196 C1205 1.390 . S
C1197 C1196 1.387 1_655 S
C1197 C1199 1.387 . S
H1198 C1205 0.950 . S
C1199 C1197 1.387 . S
C1199 C1201 1.390 . S
C1199 H1203 0.950 . S
H1200 C1196 0.950 . S
C1201 C1199 1.390 . S
C1201 C1202 1.387 1_655 S
C1201 H1204 0.950 . S
C1202 C1201 1.387 1_455 S
C1202 C1205 1.387 . S
H1203 C1199 0.950 . S
H1204 C1201 0.950 . S
C1205 C1196 1.390 . S
C1205 H1198 0.950 . S
C1205 C1202 1.387 . S
C1206 C1207 1.387 1_655 S
C1206 H1210 0.950 . S
C1206 C1215 1.390 1_556 S
C1207 C1206 1.387 1_455 S
C1207 C1209 1.387 . S
H1208 C1215 0.950 . S
C1209 C1207 1.387 . S
C1209 C1211 1.390 1_556 S
C1209 H1213 0.950 . S
H1210 C1206 0.950 . S
C1211 C1209 1.390 1_554 S
C1211 C1212 1.387 1_455 S
C1211 H1214 0.950 . S
C1212 C1211 1.387 1_655 S
C1212 C1215 1.387 . S
H1213 C1209 0.950 . S
H1214 C1211 0.950 . S
C1215 C1206 1.390 1_554 S
C1215 H1208 0.950 . S
C1215 C1212 1.387 . S
C1216 C1217 1.387 . S
C1216 H1220 0.950 . S
C1216 C1225 1.390 . S
C1217 C1216 1.387 . S
C1217 C1219 1.387 . S
H1218 C1225 0.950 . S
C1219 C1217 1.387 . S
C1219 C1221 1.390 . S
C1219 H1223 0.950 . S
H1220 C1216 0.950 . S
C1221 C1219 1.390 . S
C1221 C1222 1.387 . S
C1221 H1224 0.950 . S
C1222 C1221 1.387 . S
C1222 C1225 1.387 . S
H1223 C1219 0.950 . S
H1224 C1221 0.950 . S
C1225 C1216 1.390 . S
C1225 H1218 0.950 . S
C1225 C1222 1.387 . S
C1226 C1227 1.387 . S
C1226 H1230 0.950 . S
C1226 C1235 1.390 . S
C1227 C1226 1.387 . S
C1227 C1229 1.387 . S
H1228 C1235 0.950 . S
C1229 C1227 1.387 . S
C1229 C1231 1.390 . S
C1229 H1233 0.950 . S
H1230 C1226 0.950 . S
C1231 C1229 1.390 . S
C1231 C1232 1.387 . S
C1231 H1234 0.950 . S
C1232 C1231 1.387 . S
C1232 C1235 1.387 . S
H1233 C1229 0.950 . S
H1234 C1231 0.950 . S
C1235 C1226 1.390 . S
C1235 H1228 0.950 . S
C1235 C1232 1.387 . S
C1236 C1237 1.387 . S
C1236 H1240 0.950 . S
C1236 C1245 1.390 . S
C1237 C1236 1.387 . S
C1237 C1239 1.387 . S
H1238 C1245 0.950 . S
C1239 C1237 1.387 . S
C1239 C1241 1.390 . S
C1239 H1243 0.950 . S
H1240 C1236 0.950 . S
C1241 C1239 1.390 . S
C1241 C1242 1.387 . S
C1241 H1244 0.950 . S
C1242 C1241 1.387 . S
C1242 C1245 1.387 . S
H1243 C1239 0.950 . S
H1244 C1241 0.950 . S
C1245 C1236 1.390 . S
C1245 H1238 0.950 . S
C1245 C1242 1.387 . S
C1246 C1247 1.387 . S
C1246 H1250 0.950 . S
C1246 C1255 1.390 . S
C1247 C1246 1.387 . S
C1247 C1249 1.387 . S
H1248 C1255 0.950 . S
C1249 C1247 1.387 . S
C1249 C1251 1.390 . S
C1249 H1253 0.950 . S
H1250 C1246 0.950 . S
C1251 C1249 1.390 . S
C1251 C1252 1.387 . S
C1251 H1254 0.950 . S
C1252 C1251 1.387 . S
C1252 C1255 1.387 . S
H1253 C1249 0.950 . S
H1254 C1251 0.950 . S
C1255 C1246 1.390 . S
C1255 H1248 0.950 . S
C1255 C1252 1.387 . S
C1256 C1257 1.387 . S
C1256 H1260 0.950 . S
C1256 C1265 1.390 . S
C1257 C1256 1.387 . S
C1257 C1259 1.387 . S
H1258 C1265 0.950 . S
C1259 C1257 1.387 . S
C1259 C1261 1.390 . S
C1259 H1263 0.950 . S
H1260 C1256 0.950 . S
C1261 C1259 1.390 . S
C1261 C1262 1.387 . S
C1261 H1264 0.950 . S
C1262 C1261 1.387 . S
C1262 C1265 1.387 . S
H1263 C1259 0.950 . S
H1264 C1261 0.950 . S
C1265 C1256 1.390 . S
C1265 H1258 0.950 . S
C1265 C1262 1.387 . S
C1266 C1267 1.387 . S
C1266 H1270 0.950 . S
C1266 C1275 1.390 . S
C1267 C1266 1.387 . S
C1267 C1269 1.387 . S
H1268 C1275 0.950 . S
C1269 C1267 1.387 . S
C1269 C1271 1.390 . S
C1269 H1273 0.950 . S
H1270 C1266 0.950 . S
C1271 C1269 1.390 . S
C1271 C1272 1.387 . S
C1271 H1274 0.950 . S
C1272 C1271 1.387 . S
C1272 C1275 1.387 . S
H1273 C1269 0.950 . S
H1274 C1271 0.950 . S
C1275 C1266 1.390 . S
C1275 H1268 0.950 . S
C1275 C1272 1.387 . S
C1276 C1277 1.387 . S
C1276 H1280 0.950 . S
C1276 C1285 1.390 . S
C1277 C1276 1.387 . S
C1277 C1279 1.387 . S
H1278 C1285 0.950 . S
C1279 C1277 1.387 . S
C1279 C1281 1.390 . S
C1279 H1283 0.950 . S
H1280 C1276 0.950 . S
C1281 C1279 1.390 . S
C1281 C1282 1.387 . S
C1281 H1284 0.950 . S
C1282 C1281 1.387 . S
C1282 C1285 1.387 . S
H1283 C1279 0.950 . S
H1284 C1281 0.950 . S
C1285 C1276 1.390 . S
C1285 H1278 0.950 . S
C1285 C1282 1.387 . S
C1286 C1287 1.387 . S
C1286 H1290 0.950 . S
C1286 C1295 1.390 . S
C1287 C1286 1.387 . S
C1287 C1289 1.387 . S
H1288 C1295 0.950 . S
C1289 C1287 1.387 . S
C1289 C1291 1.390 . S
C1289 H1293 0.950 . S
H1290 C1286 0.950 . S
C1291 C1289 1.390 . S
C1291 C1292 1.387 . S
C1291 H1294 0.950 . S
C1292 C1291 1.387 . S
C1292 C1295 1.387 . S
H1293 C1289 0.950 . S
H1294 C1291 0.950 . S
C1295 C1286 1.390 . S
C1295 H1288 0.950 . S
C1295 C1292 1.387 . S
C1296 C1297 1.387 . S
C1296 H1300 0.950 . S
C1296 C1305 1.390 . S
C1297 C1296 1.387 . S
C1297 C1299 1.387 . S
H1298 C1305 0.950 . S
C1299 C1297 1.387 . S
C1299 C1301 1.390 . S
C1299 H1303 0.950 . S
H1300 C1296 0.950 . S
C1301 C1299 1.390 . S
C1301 C1302 1.387 . S
C1301 H1304 0.950 . S
C1302 C1301 1.387 . S
C1302 C1305 1.387 . S
H1303 C1299 0.950 . S
H1304 C1301 0.950 . S
C1305 C1296 1.390 . S
C1305 H1298 0.950 . S
C1305 C1302 1.387 . S
C1306 C1307 1.387 . S
C1306 H1310 0.950 . S
C1306 C1315 1.390 . S
C1307 C1306 1.387 . S
C1307 C1309 1.387 . S
H1308 C1315 0.950 . S
C1309 C1307 1.387 . S
C1309 C1311 1.390 . S
C1309 H1313 0.950 . S
H1310 C1306 0.950 . S
C1311 C1309 1.390 . S
C1311 C1312 1.387 . S
C1311 H1314 0.950 . S
C1312 C1311 1.387 . S
C1312 C1315 1.387 . S
H1313 C1309 0.950 . S
H1314 C1311 0.950 . S
C1315 C1306 1.390 . S
C1315 H1308 0.950 . S
C1315 C1312 1.387 . S
C1316 C1317 1.387 . S
C1316 H1320 0.950 . S
C1316 C1325 1.390 . S
C1317 C1316 1.387 . S
C1317 C1319 1.387 . S
H1318 C1325 0.950 . S
C1319 C1317 1.387 . S
C1319 C1321 1.390 . S
C1319 H1323 0.950 . S
H1320 C1316 0.950 . S
C1321 C1319 1.390 . S
C1321 C1322 1.387 . S
C1321 H1324 0.950 . S
C1322 C1321 1.387 . S
C1322 C1325 1.387 . S
H1323 C1319 0.950 . S
H1324 C1321 0.950 . S
C1325 C1316 1.390 . S
C1325 H1318 0.950 . S
C1325 C1322 1.387 . S
C1326 C1327 1.387 . S
C1326 H1330 0.950 . S
C1326 C1335 1.390 . S
C1327 C1326 1.387 . S
C1327 C1329 1.387 . S
H1328 C1335 0.950 . S
C1329 C1327 1.387 . S
C1329 C1331 1.390 . S
C1329 H1333 0.950 . S
H1330 C1326 0.950 . S
C1331 C1329 1.390 . S
C1331 C1332 1.387 . S
C1331 H1334 0.950 . S
C1332 C1331 1.387 . S
C1332 C1335 1.387 . S
H1333 C1329 0.950 . S
H1334 C1331 0.950 . S
C1335 C1326 1.390 . S
C1335 H1328 0.950 . S
C1335 C1332 1.387 . S
C1336 C1337 1.387 . S
C1336 H1340 0.950 . S
C1336 C1345 1.390 . S
C1337 C1336 1.387 . S
C1337 C1339 1.387 . S
H1338 C1345 0.950 . S
C1339 C1337 1.387 . S
C1339 C1341 1.390 . S
C1339 H1343 0.950 . S
H1340 C1336 0.950 . S
C1341 C1339 1.390 . S
C1341 C1342 1.387 . S
C1341 H1344 0.950 . S
C1342 C1341 1.387 . S
C1342 C1345 1.387 . S
H1343 C1339 0.950 . S
H1344 C1341 0.950 . S
C1345 C1336 1.390 . S
C1345 H1338 0.950 . S
C1345 C1342 1.387 . S
C1346 C1347 1.387 . S
C1346 H1350 0.950 . S
C1346 C1355 1.390 . S
C1347 C1346 1.387 . S
C1347 C1349 1.387 . S
H1348 C1355 0.950 . S
C1349 C1347 1.387 . S
C1349 C1351 1.390 . S
C1349 H1353 0.950 . S
H1350 C1346 0.950 . S
C1351 C1349 1.390 . S
C1351 C1352 1.387 . S
C1351 H1354 0.950 . S
C1352 C1351 1.387 . S
C1352 C1355 1.387 . S
H1353 C1349 0.950 . S
H1354 C1351 0.950 . S
C1355 C1346 1.390 . S
C1355 H1348 0.950 . S
C1355 C1352 1.387 . S
C1356 C1357 1.387 . S
C1356 H1360 0.950 . S
C1356 C1365 1.390 . S
C1357 C1356 1.387 . S
C1357 C1359 1.387 . S
H1358 C1365 0.950 . S
C1359 C1357 1.387 . S
C1359 C1361 1.390 . S
C1359 H1363 0.950 . S
H1360 C1356 0.950 . S
C1361 C1359 1.390 . S
C1361 C1362 1.387 . S
C1361 H1364 0.950 . S
C1362 C1361 1.387 . S
C1362 C1365 1.387 . S
H1363 C1359 0.950 . S
H1364 C1361 0.950 . S
C1365 C1356 1.390 . S
C1365 H1358 0.950 . S
C1365 C1362 1.387 . S
C1366 C1367 1.387 . S
C1366 H1370 0.950 . S
C1366 C1375 1.390 . S
C1367 C1366 1.387 . S
C1367 C1369 1.387 . S
H1368 C1375 0.950 . S
C1369 C1367 1.387 . S
C1369 C1371 1.390 . S
C1369 H1373 0.950 . S
H1370 C1366 0.950 . S
C1371 C1369 1.390 . S
C1371 C1372 1.387 . S
C1371 H1374 0.950 . S
C1372 C1371 1.387 . S
C1372 C1375 1.387 . S
H1373 C1369 0.950 . S
H1374 C1371 0.950 . S
C1375 C1366 1.390 . S
C1375 H1368 0.950 . S
C1375 C1372 1.387 . S
C737 C16 1.561 . S
C742 C62 1.561 . S
C747 C85 1.557 . S
C752 C39 1.557 . S
C757 C154 1.561 . S
C762 C108 1.561 . S
C767 C177 1.557 . S
C772 C131 1.557 . S
C777 C200 1.561 . S
C782 C246 1.561 . S
C787 C269 1.555 . S
C792 C223 1.555 . S
C797 C292 1.561 . S
C802 C338 1.561 . S
C807 C361 1.557 . S
C812 C315 1.557 . S
C817 C384 1.554 1_455 S
C822 C430 1.554 1_455 S
C827 C407 1.559 . S
C832 C453 1.559 . S
C837 C522 1.551 1_655 S
C842 C476 1.551 1_655 S
C847 C499 1.559 . S
C852 C545 1.559 . S
C857 C614 1.553 1_455 S
C862 C568 1.553 1_455 S
C867 C637 1.557 . S
C872 C591 1.557 . S
C877 C706 1.551 1_655 S
C882 C660 1.551 1_655 S
C887 C683 1.557 . S
C892 C729 1.557 . S
C897 N587 1.715 . S
C902 N12 1.714 . S
C907 N35 1.712 . S
C912 N564 1.708 . S
C917 N58 1.713 . S
C922 N633 1.714 . S
C927 N81 1.712 . S
C932 N610 1.708 . S
C937 N679 1.715 . S
C942 N104 1.714 . S
C947 N127 1.712 . S
C952 N656 1.708 . S
C957 N150 1.714 . S
C962 N725 1.715 . S
C967 N702 1.712 . S
C972 N173 1.709 . S
C977 N196 1.714 . S
C982 N403 1.715 . S
C987 N219 1.713 . S
C992 N380 1.709 . S
C997 N242 1.713 . S
C1002 N449 1.714 . S
C1007 N265 1.713 . S
C1012 N426 1.709 . S
C1017 N288 1.714 . S
C1022 N495 1.715 . S
C1027 N472 1.711 . S
C1032 N311 1.708 . S
C1037 N541 1.715 . S
C1042 N334 1.714 . S
C1047 N357 1.712 . S
C1052 N518 1.708 . S
C1057 C7 1.609 1_565 S
C1062 C99 1.609 1_545 S
C1067 C30 1.605 . S
C1072 C674 1.604 . S
C1077 C53 1.609 . S
C1082 C329 1.609 . S
C1087 C76 1.606 1_565 S
C1092 C536 1.604 1_545 S
C1097 C122 1.606 . S
C1102 C582 1.606 . S
C1107 C237 1.609 . S
C1112 C145 1.609 . S
C1117 C444 1.603 1_565 S
C1122 C168 1.605 1_545 S
C1127 C283 1.610 . S
C1132 C191 1.610 . S
C1137 C214 1.605 . S
C1142 C490 1.605 . S
C1147 C720 1.605 . S
C1152 C260 1.606 . S
C1157 C306 1.605 . S
C1162 C398 1.605 . S
C1167 C352 1.607 . S
C1172 C628 1.607 . S
C1177 C467 1.604 1_545 S
C1182 C375 1.605 1_565 S
C1187 C421 1.604 . S
C1192 C697 1.604 . S
C1197 C605 1.603 . S
C1202 C513 1.603 . S
C1207 C651 1.604 . S
C1212 C559 1.604 . S
C1217 N2 1.203 . S
C1222 N25 1.203 . S
C1227 N48 1.203 . S
C1232 N71 1.203 . S
C1237 N94 1.206 . S
C1242 N117 1.206 . S
C1247 N140 1.203 . S
C1252 N163 1.203 . S
C1257 N209 1.206 . S
C1262 N186 1.206 . S
C1267 N232 1.203 . S
C1272 N255 1.203 . S
C1277 N278 1.206 . S
C1282 N301 1.206 . S
C1287 N324 1.206 . S
C1292 N347 1.206 . S
C1297 N370 1.209 . S
C1302 N393 1.213 . S
C1307 N439 1.209 . S
C1312 N416 1.212 . S
C1317 N462 1.206 . S
C1322 N485 1.209 . S
C1327 N508 1.206 . S
C1332 N531 1.209 . S
C1337 N577 1.206 . S
C1342 N554 1.209 . S
C1347 N600 1.209 . S
C1352 N623 1.213 . S
C1357 N669 1.206 . S
C1362 N646 1.209 . S
C1367 N692 1.209 . S
C1372 N715 1.213 . S
