# Generated by pormake.
# Topology sgn, (3)-cn, num edge types: 1
# Building blocks:
#     Node 0, Type 0, BuildingBlock: OLANEW_clean_sbu_2, # of connection points: 3
#     Node 1, Type 0, BuildingBlock: OLANEW_clean_sbu_2, # of connection points: 3
#     Node 2, Type 0, BuildingBlock: OLANEW_clean_sbu_2, # of connection points: 3
#     Node 3, Type 0, BuildingBlock: OLANEW_clean_sbu_2, # of connection points: 3
#     Node 4, Type 0, BuildingBlock: OLANEW_clean_sbu_2, # of connection points: 3
#     Node 5, Type 0, BuildingBlock: OLANEW_clean_sbu_2, # of connection points: 3
#     Node 6, Type 0, BuildingBlock: OLANEW_clean_sbu_2, # of connection points: 3
#     Node 7, Type 0, BuildingBlock: OLANEW_clean_sbu_2, # of connection points: 3
#     Node 8, Type 0, BuildingBlock: OLANEW_clean_sbu_2, # of connection points: 3
#     Node 9, Type 0, BuildingBlock: OLANEW_clean_sbu_2, # of connection points: 3
#     Node 10, Type 0, BuildingBlock: OLANEW_clean_sbu_2, # of connection points: 3
#     Node 11, Type 0, BuildingBlock: OLANEW_clean_sbu_2, # of connection points: 3
#     Node 12, Type 0, BuildingBlock: OLANEW_clean_sbu_2, # of connection points: 3
#     Node 13, Type 0, BuildingBlock: OLANEW_clean_sbu_2, # of connection points: 3
#     Node 14, Type 0, BuildingBlock: OLANEW_clean_sbu_2, # of connection points: 3
#     Node 15, Type 0, BuildingBlock: OLANEW_clean_sbu_2, # of connection points: 3
#     Node 16, Type 0, BuildingBlock: OLANEW_clean_sbu_2, # of connection points: 3
#     Node 17, Type 0, BuildingBlock: OLANEW_clean_sbu_2, # of connection points: 3
#     Node 18, Type 0, BuildingBlock: OLANEW_clean_sbu_2, # of connection points: 3
#     Node 19, Type 0, BuildingBlock: OLANEW_clean_sbu_2, # of connection points: 3
#     Node 20, Type 0, BuildingBlock: OLANEW_clean_sbu_2, # of connection points: 3
#     Node 21, Type 0, BuildingBlock: OLANEW_clean_sbu_2, # of connection points: 3
#     Node 22, Type 0, BuildingBlock: OLANEW_clean_sbu_2, # of connection points: 3
#     Node 23, Type 0, BuildingBlock: OLANEW_clean_sbu_2, # of connection points: 3
#     Edge 24, Type (0, 0), BuildingBlock: XIVTED_clean_linker_0, # of connection points: 2
#     Edge 25, Type (0, 0), BuildingBlock: XIVTED_clean_linker_0, # of connection points: 2
#     Edge 26, Type (0, 0), BuildingBlock: XIVTED_clean_linker_0, # of connection points: 2
#     Edge 27, Type (0, 0), BuildingBlock: XIVTED_clean_linker_0, # of connection points: 2
#     Edge 28, Type (0, 0), BuildingBlock: XIVTED_clean_linker_0, # of connection points: 2
#     Edge 29, Type (0, 0), BuildingBlock: XIVTED_clean_linker_0, # of connection points: 2
#     Edge 30, Type (0, 0), BuildingBlock: XIVTED_clean_linker_0, # of connection points: 2
#     Edge 31, Type (0, 0), BuildingBlock: XIVTED_clean_linker_0, # of connection points: 2
#     Edge 32, Type (0, 0), BuildingBlock: XIVTED_clean_linker_0, # of connection points: 2
#     Edge 33, Type (0, 0), BuildingBlock: XIVTED_clean_linker_0, # of connection points: 2
#     Edge 34, Type (0, 0), BuildingBlock: XIVTED_clean_linker_0, # of connection points: 2
#     Edge 35, Type (0, 0), BuildingBlock: XIVTED_clean_linker_0, # of connection points: 2
#     Edge 36, Type (0, 0), BuildingBlock: XIVTED_clean_linker_0, # of connection points: 2
#     Edge 37, Type (0, 0), BuildingBlock: XIVTED_clean_linker_0, # of connection points: 2
#     Edge 38, Type (0, 0), BuildingBlock: XIVTED_clean_linker_0, # of connection points: 2
#     Edge 39, Type (0, 0), BuildingBlock: XIVTED_clean_linker_0, # of connection points: 2
#     Edge 40, Type (0, 0), BuildingBlock: XIVTED_clean_linker_0, # of connection points: 2
#     Edge 41, Type (0, 0), BuildingBlock: XIVTED_clean_linker_0, # of connection points: 2
#     Edge 42, Type (0, 0), BuildingBlock: XIVTED_clean_linker_0, # of connection points: 2
#     Edge 43, Type (0, 0), BuildingBlock: XIVTED_clean_linker_0, # of connection points: 2
#     Edge 44, Type (0, 0), BuildingBlock: XIVTED_clean_linker_0, # of connection points: 2
#     Edge 45, Type (0, 0), BuildingBlock: XIVTED_clean_linker_0, # of connection points: 2
#     Edge 46, Type (0, 0), BuildingBlock: XIVTED_clean_linker_0, # of connection points: 2
#     Edge 47, Type (0, 0), BuildingBlock: XIVTED_clean_linker_0, # of connection points: 2
#     Edge 48, Type (0, 0), BuildingBlock: XIVTED_clean_linker_0, # of connection points: 2
#     Edge 49, Type (0, 0), BuildingBlock: XIVTED_clean_linker_0, # of connection points: 2
#     Edge 50, Type (0, 0), BuildingBlock: XIVTED_clean_linker_0, # of connection points: 2
#     Edge 51, Type (0, 0), BuildingBlock: XIVTED_clean_linker_0, # of connection points: 2
#     Edge 52, Type (0, 0), BuildingBlock: XIVTED_clean_linker_0, # of connection points: 2
#     Edge 53, Type (0, 0), BuildingBlock: XIVTED_clean_linker_0, # of connection points: 2
#     Edge 54, Type (0, 0), BuildingBlock: XIVTED_clean_linker_0, # of connection points: 2
#     Edge 55, Type (0, 0), BuildingBlock: XIVTED_clean_linker_0, # of connection points: 2
#     Edge 56, Type (0, 0), BuildingBlock: XIVTED_clean_linker_0, # of connection points: 2
#     Edge 57, Type (0, 0), BuildingBlock: XIVTED_clean_linker_0, # of connection points: 2
#     Edge 58, Type (0, 0), BuildingBlock: XIVTED_clean_linker_0, # of connection points: 2
#     Edge 59, Type (0, 0), BuildingBlock: XIVTED_clean_linker_0, # of connection points: 2
# Relax obj value: 0.088
# Max RMSD: 0.282
# Mean RMSD: 0.072
data_MOF--net-sgn--node1-OLANEW_clean_sbu_2--edge1-XIVTED_clean_linker_0
_symmetry_space_group_name_H-M    P1
_symmetry_Int_Tables_number       1
_symmetry_cell_setting            triclinic
loop_
_symmetry_equiv_pos_as_xyz
'x, y, z'
_cell_length_a     74.428238
_cell_length_b     36.041848
_cell_length_c     42.418596
_cell_angle_alpha  89.389044
_cell_angle_beta   90.430789
_cell_angle_gamma 88.016658
loop_
_atom_site_label
_atom_site_type_symbol
_atom_site_fract_x
_atom_site_fract_y
_atom_site_fract_z
_atom_type_partial_charge
O0 O 0.01358 0.44296 0.05224 0.0
Cd1 Cd 0.0142 0.50547 0.02907 0.0
O2 O 0.99889 0.41895 0.0126 0.0
Cd3 Cd 0.98973 0.47423 0.99702 0.0
O4 O 0.97384 0.5256 0.00285 0.0
C5 C 0.95736 0.52631 0.9947 0.0
O6 O 0.9509 0.49709 0.98091 0.0
C7 C 0.00761 0.41475 0.03837 0.0
C8 C 0.03601 0.50317 0.97581 0.0
O9 O 0.0428 0.50463 0.00358 0.0
O10 O 0.01886 0.50385 0.97301 0.0
O11 O 0.97214 0.91702 0.43287 0.0
Cd12 Cd 0.96704 0.96803 0.39508 0.0
O13 O 0.96096 0.87553 0.40135 0.0
Cd14 Cd 0.94549 0.91918 0.37603 0.0
O15 O 0.92073 0.95374 0.37575 0.0
C16 C 0.91822 0.97546 0.39885 0.0
O17 O 0.93102 0.9779 0.42015 0.0
C18 C 0.96954 0.88328 0.42631 0.0
C19 C 0.99907 0.97586 0.36225 0.0
O20 O 0.99629 0.99227 0.3885 0.0
O21 O 0.98645 0.95661 0.35086 0.0
O22 O 0.51682 0.45291 0.50111 0.0
Cd23 Cd 0.52388 0.39696 0.53245 0.0
O24 O 0.48839 0.4462 0.51186 0.0
Cd25 Cd 0.45954 0.4606 0.51376 0.0
O26 O 0.43044 0.46623 0.52048 0.0
C27 C 0.42221 0.43782 0.52974 0.0
O28 O 0.43146 0.40653 0.53458 0.0
C29 C 0.50053 0.46427 0.49813 0.0
C30 C 0.55805 0.39771 0.55983 0.0
O31 O 0.55566 0.38392 0.53245 0.0
O32 O 0.54428 0.41127 0.57421 0.0
O33 O 0.50852 0.25817 0.03148 0.0
Cd34 Cd 0.50816 0.19177 0.01937 0.0
O35 O 0.53771 0.25813 0.02355 0.0
Cd36 Cd 0.54208 0.19792 0.02399 0.0
O37 O 0.55681 0.1527 0.04861 0.0
C38 C 0.55153 0.14355 0.07594 0.0
O39 O 0.53664 0.1592 0.08676 0.0
C40 C 0.523 0.27575 0.02917 0.0
C41 C 0.47522 0.16695 0.9973 0.0
O42 O 0.47989 0.16249 0.02628 0.0
O43 O 0.48593 0.18368 0.97889 0.0
O44 O 0.00266 0.67904 0.60374 0.0
Cd45 Cd 0.00438 0.62443 0.63831 0.0
O46 O 0.0181 0.65018 0.5668 0.0
Cd47 Cd 0.03017 0.61058 0.6009 0.0
O48 O 0.05077 0.58991 0.63444 0.0
C49 C 0.05081 0.60182 0.66254 0.0
O50 O 0.03782 0.62492 0.67142 0.0
C51 C 0.00831 0.67775 0.57554 0.0
C52 C 0.97751 0.57808 0.61772 0.0
O53 O 0.97433 0.60257 0.63883 0.0
O54 O 0.99358 0.57456 0.60722 0.0
O55 O 0.48308 0.72542 0.37468 0.0
Cd56 Cd 0.47652 0.78421 0.34673 0.0
O57 O 0.45591 0.70521 0.36633 0.0
Cd58 Cd 0.44476 0.75864 0.34961 0.0
O59 O 0.42599 0.80573 0.35589 0.0
C60 C 0.43092 0.83446 0.37024 0.0
O61 O 0.4478 0.83652 0.37911 0.0
C62 C 0.47184 0.69973 0.37682 0.0
C63 C 0.50783 0.81866 0.32814 0.0
O64 O 0.4999 0.82768 0.35381 0.0
O65 O 0.50095 0.79341 0.31127 0.0
O66 O 0.54291 0.55912 0.09033 0.0
Cd67 Cd 0.54508 0.62606 0.09751 0.0
O68 O 0.51452 0.56831 0.07745 0.0
Cd69 Cd 0.48921 0.54954 0.05801 0.0
O70 O 0.46682 0.52007 0.03813 0.0
C71 C 0.45849 0.49694 0.05489 0.0
O72 O 0.46331 0.49164 0.0845 0.0
C73 C 0.52804 0.54619 0.08155 0.0
C74 C 0.56411 0.6559 0.04744 0.0
O75 O 0.57216 0.64509 0.0729 0.0
O76 O 0.547 0.65328 0.0459 0.0
O77 O 0.00752 0.13378 0.12425 0.0
Cd78 Cd 0.00472 0.07331 0.1501 0.0
O79 O 0.99575 0.163 0.16478 0.0
Cd80 Cd 0.98137 0.11374 0.17848 0.0
O81 O 0.95511 0.0919 0.16702 0.0
C82 C 0.94456 0.11601 0.15391 0.0
O83 O 0.95026 0.14979 0.14959 0.0
C84 C 0.00399 0.16389 0.13866 0.0
C85 C 0.02933 0.06775 0.20018 0.0
O86 O 0.03397 0.05922 0.17207 0.0
O87 O 0.01293 0.07818 0.20481 0.0
O88 O 0.18908 0.99906 0.47435 0.0
Cd89 Cd 0.18493 0.99641 0.53146 0.0
O90 O 0.16026 0.0121 0.46748 0.0
Cd91 Cd 0.13725 0.02725 0.4369 0.0
O92 O 0.11676 0.0405 0.40095 0.0
C93 C 0.12158 0.05028 0.37348 0.0
O94 O 0.1388 0.05271 0.36755 0.0
C95 C 0.17576 0.00561 0.45596 0.0
C96 C 0.18979 0.92379 0.55434 0.0
O97 O 0.17425 0.93642 0.54535 0.0
O98 O 0.203 0.94559 0.55271 0.0
O99 O 0.23856 0.58467 0.89043 0.0
Cd100 Cd 0.23589 0.60735 0.9444 0.0
O101 O 0.20924 0.58749 0.88467 0.0
Cd102 Cd 0.18383 0.58033 0.85931 0.0
O103 O 0.1589 0.5798 0.8317 0.0
C104 C 0.15935 0.57053 0.80289 0.0
O105 O 0.17485 0.5607 0.79036 0.0
C106 C 0.22475 0.58094 0.87311 0.0
C107 C 0.24423 0.68223 0.94633 0.0
O108 O 0.25645 0.65665 0.95042 0.0
O109 O 0.22804 0.67238 0.94181 0.0
O110 O 0.31834 0.04582 0.55839 0.0
Cd111 Cd 0.31555 0.05269 0.50111 0.0
O112 O 0.29457 0.08293 0.56099 0.0
Cd113 Cd 0.27449 0.1202 0.58248 0.0
O114 O 0.25627 0.16687 0.59374 0.0
C115 C 0.25878 0.19756 0.57968 0.0
O116 O 0.27201 0.19953 0.55947 0.0
C117 C 0.30684 0.06347 0.575 0.0
C118 C 0.3406 0.00849 0.4689 0.0
O119 O 0.34444 0.04104 0.47813 0.0
O120 O 0.32491 0.9968 0.47501 0.0
O121 O 0.27146 0.3944 0.96851 0.0
Cd122 Cd 0.29097 0.36284 0.00788 0.0
O123 O 0.29056 0.3799 0.93087 0.0
Cd124 Cd 0.31175 0.35856 0.96247 0.0
O125 O 0.33787 0.36537 0.98464 0.0
C126 C 0.34967 0.37876 0.96672 0.0
O127 O 0.34555 0.38509 0.93692 0.0
C128 C 0.27564 0.39462 0.93947 0.0
C129 C 0.27547 0.30104 0.03528 0.0
O130 O 0.2755 0.33214 0.04965 0.0
O131 O 0.28264 0.29919 0.00795 0.0
O132 O 0.20709 0.00673 0.21074 0.0
Cd133 Cd 0.21494 0.00327 0.15492 0.0
O134 O 0.17901 0.99215 0.20277 0.0
Cd135 Cd 0.15111 0.98341 0.21714 0.0
O136 O 0.12358 0.97714 0.23415 0.0
C137 C 0.12107 0.97574 0.26373 0.0
O138 O 0.13496 0.97815 0.28274 0.0
C139 C 0.19167 0.99997 0.22167 0.0
C140 C 0.22657 0.0703 0.13021 0.0
O141 O 0.21044 0.06019 0.12549 0.0
O142 O 0.23714 0.04895 0.14675 0.0
O143 O 0.24795 0.46926 0.64335 0.0
Cd144 Cd 0.25317 0.45051 0.58888 0.0
O145 O 0.23949 0.52461 0.626 0.0
Cd146 Cd 0.23215 0.58387 0.6293 0.0
O147 O 0.22693 0.64369 0.62366 0.0
C148 C 0.21123 0.65644 0.61681 0.0
O149 O 0.19809 0.63324 0.61404 0.0
C150 C 0.24235 0.5022 0.64902 0.0
C151 C 0.28979 0.44722 0.57487 0.0
O152 O 0.28035 0.47732 0.57072 0.0
O153 O 0.28189 0.4187 0.58556 0.0
O154 O 0.33007 0.03622 0.82465 0.0
Cd155 Cd 0.33289 0.02841 0.88198 0.0
O156 O 0.3014 0.02309 0.82491 0.0
Cd157 Cd 0.30138 0.99967 0.87263 0.0
O158 O 0.29505 0.95126 0.9015 0.0
C159 C 0.27863 0.94289 0.90326 0.0
O160 O 0.26638 0.96511 0.88988 0.0
C161 C 0.31513 0.03384 0.81016 0.0
C162 C 0.36371 0.06 0.90671 0.0
O163 O 0.36336 0.02509 0.90138 0.0
O164 O 0.34957 0.08 0.90023 0.0
O165 O 0.1711 0.4723 0.78176 0.0
Cd166 Cd 0.14479 0.46444 0.74824 0.0
O167 O 0.19174 0.47703 0.74519 0.0
Cd168 Cd 0.17385 0.46563 0.70595 0.0
O169 O 0.17811 0.42186 0.67154 0.0
C170 C 0.19221 0.42384 0.65497 0.0
O171 O 0.20189 0.45354 0.65714 0.0
C172 C 0.18735 0.47659 0.77406 0.0
C173 C 0.11586 0.46801 0.78938 0.0
O174 O 0.12503 0.43764 0.78572 0.0
O175 O 0.11976 0.49607 0.77235 0.0
O176 O 0.76729 0.03707 0.10609 0.0
Cd177 Cd 0.78608 0.03954 0.05922 0.0
O178 O 0.74477 0.07136 0.08646 0.0
Cd179 Cd 0.7575 0.08106 0.04093 0.0
O180 O 0.76523 0.10533 0.99571 0.0
C181 C 0.75358 0.10807 0.97367 0.0
O182 O 0.73755 0.095 0.97845 0.0
C183 C 0.75181 0.05255 0.10919 0.0
C184 C 0.82127 0.05414 0.07719 0.0
O185 O 0.80998 0.08052 0.06975 0.0
O186 O 0.816 0.02072 0.07564 0.0
O187 O 0.85084 0.47759 0.40971 0.0
Cd188 Cd 0.85098 0.43953 0.45783 0.0
O189 O 0.8316 0.44311 0.38476 0.0
Cd190 Cd 0.82656 0.40478 0.42366 0.0
O191 O 0.81 0.36212 0.44432 0.0
C192 C 0.81522 0.32818 0.44526 0.0
O193 O 0.83152 0.31898 0.43576 0.0
C194 C 0.84178 0.47072 0.38506 0.0
C195 C 0.87817 0.46134 0.49863 0.0
O196 O 0.88122 0.43643 0.47781 0.0
O197 O 0.86219 0.47557 0.50044 0.0
O198 O 0.67009 0.97905 0.31624 0.0
Cd199 Cd 0.65675 0.96895 0.26439 0.0
O200 O 0.69831 0.97153 0.30186 0.0
Cd201 Cd 0.69247 0.9586 0.25284 0.0
O202 O 0.70113 0.93011 0.21021 0.0
C203 C 0.71686 0.93676 0.20071 0.0
O204 O 0.72603 0.96184 0.21551 0.0
C205 C 0.68675 0.9783 0.3231 0.0
C206 C 0.62315 0.93834 0.27235 0.0
O207 O 0.63718 0.91761 0.26748 0.0
O208 O 0.62495 0.97356 0.27281 0.0
O209 O 0.84688 0.67243 0.19791 0.0
Cd210 Cd 0.84725 0.71759 0.15436 0.0
O211 O 0.82822 0.63596 0.17374 0.0
Cd212 Cd 0.82112 0.67872 0.13861 0.0
O213 O 0.80672 0.73044 0.12568 0.0
C214 C 0.78997 0.72958 0.11985 0.0
O215 O 0.78234 0.69726 0.11909 0.0
C216 C 0.83855 0.64221 0.19697 0.0
C217 C 0.87056 0.69011 0.10829 0.0
O218 O 0.87627 0.71044 0.13059 0.0
O219 O 0.85374 0.68366 0.1073 0.0
O220 O 0.76663 0.3661 0.73233 0.0
Cd221 Cd 0.77941 0.30343 0.72459 0.0
O222 O 0.74349 0.35231 0.70301 0.0
Cd223 Cd 0.71813 0.36337 0.67747 0.0
O224 O 0.69225 0.37051 0.65309 0.0
C225 C 0.67914 0.38767 0.66615 0.0
O226 O 0.68141 0.40149 0.69438 0.0
C227 C 0.75154 0.3756 0.71993 0.0
C228 C 0.77436 0.25779 0.77717 0.0
O229 O 0.7885 0.27685 0.77454 0.0
O230 O 0.76262 0.26028 0.7549 0.0
O231 O 0.70981 0.07489 0.347 0.0
Cd232 Cd 0.70127 0.08535 0.4018 0.0
O233 O 0.68193 0.0706 0.33071 0.0
Cd234 Cd 0.66097 0.05909 0.29601 0.0
O235 O 0.63958 0.05824 0.26056 0.0
C236 C 0.64297 0.05121 0.23187 0.0
O237 O 0.65962 0.04307 0.22369 0.0
C238 C 0.69865 0.07029 0.32469 0.0
C239 C 0.72476 0.13486 0.42844 0.0
O240 O 0.72857 0.09991 0.42863 0.0
O241 O 0.70968 0.14614 0.41636 0.0
O242 O 0.71682 0.04674 0.56143 0.0
Cd243 Cd 0.72416 0.06078 0.61618 0.0
O244 O 0.74384 0.05981 0.54555 0.0
Cd245 Cd 0.76581 0.0677 0.51226 0.0
O246 O 0.79181 0.06648 0.4886 0.0
C247 C 0.79384 0.05345 0.46108 0.0
O248 O 0.77976 0.04162 0.4458 0.0
C249 C 0.72815 0.0489 0.53927 0.0
C250 C 0.71992 0.99857 0.65483 0.0
O251 O 0.70666 0.02118 0.64865 0.0
O252 O 0.73524 0.00552 0.64294 0.0
O253 O 0.71105 0.64799 0.79526 0.0
Cd254 Cd 0.70074 0.7043 0.82242 0.0
O255 O 0.68387 0.62673 0.78971 0.0
Cd256 Cd 0.67095 0.67038 0.81772 0.0
O257 O 0.65512 0.68888 0.85808 0.0
C258 C 0.63807 0.69087 0.85594 0.0
O259 O 0.63042 0.68439 0.82862 0.0
C260 C 0.70071 0.62333 0.78512 0.0
C261 C 0.70525 0.76836 0.78621 0.0
O262 O 0.718 0.75485 0.80379 0.0
O263 O 0.69036 0.75152 0.78568 0.0
H264 H 0.01222 0.17813 0.07703 0.0
H265 H 0.01752 0.39735 0.09912 0.0
H266 H 0.00479 0.23186 0.1667 0.0
H267 H 0.00329 0.3472 0.0108 0.0
H268 H 0.01946 0.33561 0.12371 0.0
H269 H 0.01567 0.23902 0.05211 0.0
C270 C 0.01156 0.20267 0.09156 0.0
C271 C 0.00807 0.19997 0.12396 0.0
C272 C 0.01602 0.33818 0.09891 0.0
C273 C 0.01206 0.26951 0.09561 0.0
C274 C 0.01497 0.37335 0.08482 0.0
C275 C 0.01008 0.37744 0.0529 0.0
C276 C 0.01242 0.30685 0.08087 0.0
C277 C 0.00693 0.34534 0.03553 0.0
C278 C 0.01343 0.23737 0.07728 0.0
C279 C 0.0073 0.23271 0.1416 0.0
N280 N 0.00814 0.31137 0.04975 0.0
N281 N 0.00925 0.26615 0.12718 0.0
H282 H 0.00997 0.67654 0.51107 0.0
H283 H 0.98037 0.88975 0.48766 0.0
H284 H 0.99531 0.74778 0.58859 0.0
H285 H 0.9736 0.80878 0.41463 0.0
H286 H 0.99038 0.83984 0.52385 0.0
H287 H 0.00107 0.72675 0.47418 0.0
C288 C 0.00496 0.70277 0.52034 0.0
C289 C 0.00334 0.70798 0.55296 0.0
C290 C 0.98671 0.83305 0.4999 0.0
C291 C 0.99331 0.76545 0.51094 0.0
C292 C 0.98107 0.8615 0.47918 0.0
C293 C 0.97609 0.85339 0.44809 0.0
C294 C 0.98764 0.79627 0.48935 0.0
C295 C 0.97722 0.81624 0.43844 0.0
C296 C 0.99982 0.7313 0.49928 0.0
C297 C 0.9967 0.7425 0.56364 0.0
N298 N 0.98296 0.78903 0.45898 0.0
N299 N 0.99201 0.77 0.54269 0.0
H300 H 0.50397 0.6791 0.40531 0.0
H301 H 0.46977 0.48189 0.46423 0.0
H302 H 0.45115 0.63908 0.38491 0.0
H303 H 0.52176 0.5233 0.48814 0.0
H304 H 0.46301 0.53867 0.43391 0.0
H305 H 0.51124 0.62123 0.43398 0.0
C306 C 0.49393 0.6581 0.40669 0.0
C307 C 0.4769 0.66406 0.39274 0.0
C308 C 0.47586 0.53548 0.44595 0.0
C309 C 0.48511 0.5978 0.42566 0.0
C310 C 0.47962 0.50324 0.46367 0.0
C311 C 0.49614 0.49832 0.47951 0.0
C312 C 0.48878 0.56292 0.44386 0.0
C313 C 0.50878 0.52612 0.47648 0.0
C314 C 0.49808 0.62508 0.42314 0.0
C315 C 0.46444 0.63581 0.39534 0.0
N316 N 0.50482 0.55729 0.45913 0.0
N317 N 0.46878 0.604 0.41154 0.0
H318 H 0.49998 0.50054 0.09238 0.0
H319 H 0.55101 0.32177 0.02087 0.0
H320 H 0.5538 0.50079 0.05562 0.0
H321 H 0.49559 0.32219 0.05027 0.0
H322 H 0.55205 0.38742 0.03336 0.0
H323 H 0.49791 0.43538 0.07744 0.0
C324 C 0.51124 0.48702 0.08065 0.0
C325 C 0.52687 0.50632 0.07434 0.0
C326 C 0.53962 0.37327 0.037 0.0
C327 C 0.5249 0.43148 0.05819 0.0
C328 C 0.539 0.3357 0.02982 0.0
C329 C 0.52319 0.3163 0.03461 0.0
C330 C 0.52436 0.39179 0.04924 0.0
C331 C 0.50806 0.33599 0.04619 0.0
C332 C 0.51014 0.44972 0.07245 0.0
C333 C 0.54144 0.48696 0.06069 0.0
N334 N 0.50905 0.37263 0.05326 0.0
N335 N 0.54008 0.45067 0.05296 0.0
H336 H 0.20338 0.03421 0.42263 0.0
H337 H 0.17025 0.95622 0.25745 0.0
H338 H 0.15436 0.97526 0.41141 0.0
H339 H 0.20775 0.04436 0.26442 0.0
H340 H 0.16644 0.9577 0.31465 0.0
H341 H 0.20742 0.03315 0.36523 0.0
C342 C 0.19346 0.02118 0.40801 0.0
C343 C 0.17834 0.00546 0.42155 0.0
C344 C 0.17528 0.97713 0.30358 0.0
C345 C 0.18299 0.00354 0.35628 0.0
C346 C 0.1773 0.97658 0.27091 0.0
C347 C 0.18883 0.0011 0.25608 0.0
C348 C 0.18497 0.00217 0.32158 0.0
C349 C 0.19852 0.02533 0.27493 0.0
C350 C 0.19573 0.02066 0.37535 0.0
C351 C 0.16595 0.98856 0.40175 0.0
N352 N 0.19634 0.02535 0.30673 0.0
N353 N 0.16858 0.98791 0.3701 0.0
H354 H 0.26107 0.47733 0.70086 0.0
H355 H 0.2043 0.60272 0.82174 0.0
H356 H 0.21762 0.55287 0.67235 0.0
H357 H 0.25097 0.53526 0.84877 0.0
H358 H 0.20845 0.58367 0.76711 0.0
H359 H 0.25701 0.49688 0.75544 0.0
C360 C 0.25074 0.49822 0.7061 0.0
C361 C 0.23994 0.51415 0.68196 0.0
C362 C 0.21772 0.57282 0.78501 0.0
C363 C 0.23512 0.5365 0.74437 0.0
C364 C 0.21517 0.58319 0.81631 0.0
C365 C 0.22694 0.56952 0.83999 0.0
C366 C 0.23221 0.54874 0.77729 0.0
C367 C 0.24147 0.54613 0.83125 0.0
C368 C 0.24847 0.50948 0.73722 0.0
C369 C 0.22665 0.54083 0.69005 0.0
N370 N 0.24365 0.53634 0.80063 0.0
N371 N 0.22459 0.55113 0.72059 0.0
H372 H 0.3372 0.05344 0.61082 0.0
H373 H 0.28462 0.04016 0.77381 0.0
H374 H 0.27966 0.0684 0.61828 0.0
H375 H 0.34236 0.04563 0.76824 0.0
H376 H 0.28254 0.04974 0.71685 0.0
H377 H 0.3394 0.04907 0.66833 0.0
C378 C 0.32503 0.05607 0.6246 0.0
C379 C 0.30824 0.06194 0.60978 0.0
C380 C 0.29567 0.04906 0.72808 0.0
C381 C 0.31063 0.05664 0.67558 0.0
C382 C 0.29688 0.04354 0.76065 0.0
C383 C 0.31371 0.04196 0.77588 0.0
C384 C 0.31141 0.0527 0.71046 0.0
C385 C 0.32911 0.04667 0.75753 0.0
C386 C 0.32631 0.0537 0.65742 0.0
C387 C 0.29291 0.06497 0.62873 0.0
N388 N 0.32759 0.05156 0.72577 0.0
N389 N 0.29446 0.06212 0.66064 0.0
H390 H 0.18398 0.49136 0.83712 0.0
H391 H 0.2818 0.40359 0.87654 0.0
H392 H 0.22269 0.4566 0.76721 0.0
H393 H 0.24188 0.42658 0.94773 0.0
H394 H 0.26158 0.43133 0.83689 0.0
H395 H 0.20643 0.47707 0.87848 0.0
C396 C 0.19728 0.48126 0.83047 0.0
C397 C 0.20147 0.47499 0.79871 0.0
C398 C 0.25722 0.43044 0.86118 0.0
C399 C 0.22701 0.45799 0.84577 0.0
C400 C 0.26876 0.41447 0.88389 0.0
C401 C 0.26346 0.4123 0.91553 0.0
C402 C 0.24015 0.44426 0.87 0.0
C403 C 0.24647 0.42735 0.92359 0.0
C404 C 0.21004 0.47296 0.85406 0.0
C405 C 0.21889 0.46201 0.79135 0.0
N406 N 0.23536 0.44248 0.90092 0.0
N407 N 0.23094 0.45357 0.81471 0.0
H408 H 0.71815 0.08029 0.12403 0.0
H409 H 0.72989 0.03459 0.30819 0.0
H410 H 0.76418 0.02044 0.16441 0.0
H411 H 0.68319 0.09206 0.26814 0.0
H412 H 0.74185 0.02609 0.25518 0.0
H413 H 0.70411 0.08112 0.17594 0.0
C414 C 0.72527 0.06712 0.14374 0.0
C415 C 0.74246 0.05054 0.13985 0.0
C416 C 0.72889 0.0402 0.2579 0.0
C417 C 0.72651 0.05172 0.19944 0.0
C418 C 0.72208 0.04513 0.28817 0.0
C419 C 0.70538 0.06351 0.29252 0.0
C420 C 0.71905 0.05423 0.23175 0.0
C421 C 0.69583 0.07668 0.26582 0.0
C422 C 0.71725 0.06766 0.1734 0.0
C423 C 0.75098 0.03374 0.16626 0.0
N424 N 0.70284 0.07195 0.23656 0.0
N425 N 0.74299 0.03506 0.19494 0.0
H426 H 0.86109 0.53375 0.37714 0.0
H427 H 0.82259 0.57517 0.20293 0.0
H428 H 0.82451 0.46324 0.32841 0.0
H429 H 0.85845 0.64744 0.25141 0.0
H430 H 0.82439 0.53234 0.24785 0.0
H431 H 0.86149 0.57436 0.33056 0.0
C432 C 0.85319 0.52672 0.35665 0.0
C433 C 0.8427 0.49507 0.35678 0.0
C434 C 0.83193 0.55751 0.24865 0.0
C435 C 0.84308 0.54146 0.30339 0.0
C436 C 0.83091 0.58198 0.22295 0.0
C437 C 0.84032 0.61507 0.22339 0.0
C438 C 0.8424 0.5661 0.2751 0.0
C439 C 0.85092 0.62231 0.25003 0.0
C440 C 0.85342 0.54992 0.33006 0.0
C441 C 0.83276 0.48737 0.32949 0.0
N442 N 0.85162 0.59812 0.27485 0.0
N443 N 0.83316 0.51041 0.30399 0.0
H444 H 0.66598 0.99843 0.37354 0.0
H445 H 0.74916 0.01883 0.49213 0.0
H446 H 0.72118 0.97683 0.34676 0.0
H447 H 0.69459 0.05352 0.51353 0.0
H448 H 0.73928 0.0006 0.43961 0.0
H449 H 0.67621 0.01461 0.42623 0.0
C450 C 0.68025 0.99684 0.37877 0.0
C451 C 0.69273 0.98632 0.35562 0.0
C452 C 0.7295 0.01245 0.45573 0.0
C453 C 0.70457 0.00499 0.416 0.0
C454 C 0.7352 0.02346 0.48557 0.0
C455 C 0.72277 0.03867 0.50697 0.0
C456 C 0.71122 0.01633 0.4474 0.0
C457 C 0.70465 0.0421 0.4977 0.0
C458 C 0.6861 0.00618 0.40888 0.0
C459 C 0.71108 0.98484 0.36383 0.0
N460 N 0.69943 0.03109 0.46863 0.0
N461 N 0.71645 0.9942 0.39331 0.0
H462 H 0.7361 0.60525 0.773 0.0
H463 H 0.71597 0.39674 0.72509 0.0
H464 H 0.68266 0.56344 0.76378 0.0
H465 H 0.7693 0.43952 0.72927 0.0
H466 H 0.70344 0.45873 0.73586 0.0
H467 H 0.74846 0.54615 0.75362 0.0
C468 C 0.72694 0.58381 0.76663 0.0
C469 C 0.70831 0.58928 0.77028 0.0
C470 C 0.71788 0.45474 0.73401 0.0
C471 C 0.72239 0.52138 0.7483 0.0
C472 C 0.72502 0.41938 0.72739 0.0
C473 C 0.74367 0.41317 0.72541 0.0
C474 C 0.72949 0.48405 0.73911 0.0
C475 C 0.75482 0.44319 0.73044 0.0
C476 C 0.73402 0.55001 0.75561 0.0
C477 C 0.69712 0.56046 0.76154 0.0
N478 N 0.74757 0.47731 0.7371 0.0
N479 N 0.70434 0.5277 0.7512 0.0
H480 H 0.07064 0.47622 0.97404 0.0
H481 H 0.08825 0.51989 0.79428 0.0
H482 H 0.02769 0.52035 0.91423 0.0
H483 H 0.11319 0.42497 0.84214 0.0
H484 H 0.06808 0.52879 0.83939 0.0
H485 H 0.08923 0.46641 0.9273 0.0
C486 C 0.06518 0.48413 0.9511 0.0
C487 C 0.04761 0.49908 0.94793 0.0
C488 C 0.07789 0.50587 0.83976 0.0
C489 C 0.06881 0.48817 0.8946 0.0
C490 C 0.08937 0.50078 0.81414 0.0
C491 C 0.10236 0.4716 0.81452 0.0
C492 C 0.07978 0.48218 0.86613 0.0
C493 C 0.10328 0.44765 0.84081 0.0
C494 C 0.07574 0.47826 0.92448 0.0
C495 C 0.04116 0.50862 0.91762 0.0
N496 N 0.0923 0.45376 0.86577 0.0
N497 N 0.05182 0.50326 0.89205 0.0
H498 H 0.03063 0.9987 0.38731 0.0
H499 H 0.08876 0.97391 0.23184 0.0
H500 H 0.00779 0.95611 0.30172 0.0
H501 H 0.11168 0.97157 0.32569 0.0
H502 H 0.05864 0.97359 0.25496 0.0
H503 H 0.06018 0.99684 0.36272 0.0
C504 C 0.0318 0.98926 0.36323 0.0
C505 C 0.01673 0.97738 0.34658 0.0
C506 C 0.07031 0.97275 0.27038 0.0
C507 C 0.05055 0.97528 0.31828 0.0
C508 C 0.08749 0.97301 0.25725 0.0
C509 C 0.10278 0.97305 0.27686 0.0
C510 C 0.06846 0.97306 0.30329 0.0
C511 C 0.10031 0.97183 0.30963 0.0
C512 C 0.0487 0.98798 0.34929 0.0
C513 C 0.01908 0.96532 0.31545 0.0
N514 N 0.08349 0.97221 0.32178 0.0
N515 N 0.03569 0.96469 0.30221 0.0
H516 H 0.31328 0.38736 0.58063 0.0
H517 H 0.39881 0.49803 0.52264 0.0
H518 H 0.31063 0.50298 0.55274 0.0
H519 H 0.40086 0.38222 0.54998 0.0
H520 H 0.3665 0.50051 0.53303 0.0
H521 H 0.34538 0.38505 0.56907 0.0
C522 C 0.31944 0.41228 0.57205 0.0
C523 C 0.30923 0.44543 0.56768 0.0
C524 C 0.37403 0.47455 0.53672 0.0
C525 C 0.34606 0.44298 0.55438 0.0
C526 C 0.39248 0.47311 0.53079 0.0
C527 C 0.40259 0.43987 0.53547 0.0
C528 C 0.3656 0.44253 0.54744 0.0
C529 C 0.39364 0.40847 0.54605 0.0
C530 C 0.33779 0.41094 0.56544 0.0
C531 C 0.31797 0.47682 0.55648 0.0
N532 N 0.37569 0.41059 0.5517 0.0
N533 N 0.33587 0.47484 0.55025 0.0
H534 H 0.3736 0.13226 0.90239 0.0
H535 H 0.45592 0.11059 0.02206 0.0
H536 H 0.39056 0.02577 0.94182 0.0
H537 H 0.45596 0.18958 0.9449 0.0
H538 H 0.42851 0.08464 0.0002 0.0
H539 H 0.40059 0.15928 0.92496 0.0
C540 C 0.38297 0.11461 0.91587 0.0
C541 C 0.3799 0.0767 0.92017 0.0
C542 C 0.43453 0.1077 0.98816 0.0
C543 C 0.4105 0.10752 0.9464 0.0
C544 C 0.45008 0.12265 0.00067 0.0
C545 C 0.45823 0.15221 0.9852 0.0
C546 C 0.42686 0.12299 0.96041 0.0
C547 C 0.45015 0.16666 0.95747 0.0
C548 C 0.39836 0.13001 0.92861 0.0
C549 C 0.39249 0.05507 0.93778 0.0
N550 N 0.43482 0.15207 0.94605 0.0
N551 N 0.40718 0.07086 0.9505 0.0
H552 H 0.08227 0.56344 0.64926 0.0
H553 H 0.12515 0.5912 0.82079 0.0
H554 H 0.05437 0.61969 0.72482 0.0
H555 H 0.15578 0.5539 0.74035 0.0
H556 H 0.0982 0.59588 0.7875 0.0
H557 H 0.10834 0.55327 0.68406 0.0
C558 C 0.08156 0.57341 0.67324 0.0
C559 C 0.06613 0.59269 0.68406 0.0
C560 C 0.11082 0.58672 0.77713 0.0
C561 C 0.09598 0.58124 0.72398 0.0
C562 C 0.12622 0.58396 0.79614 0.0
C563 C 0.14278 0.57232 0.78332 0.0
C564 C 0.11196 0.5776 0.74508 0.0
C565 C 0.14332 0.56317 0.75123 0.0
C566 C 0.09649 0.56772 0.69305 0.0
C567 C 0.066 0.6049 0.71539 0.0
N568 N 0.12814 0.56606 0.73322 0.0
N569 N 0.08071 0.59907 0.7342 0.0
H570 H 0.39429 0.8333 0.36386 0.0
H571 H 0.37609 0.0217 0.45843 0.0
H572 H 0.43668 0.90026 0.39988 0.0
H573 H 0.33543 0.94185 0.44042 0.0
H574 H 0.39802 0.98169 0.43117 0.0
H575 H 0.37211 0.87744 0.38538 0.0
C576 C 0.39895 0.85747 0.37602 0.0
C577 C 0.4174 0.86293 0.38027 0.0
C578 C 0.38429 0.97299 0.43313 0.0
C579 C 0.39203 0.9135 0.40508 0.0
C580 C 0.37175 0.99582 0.44865 0.0
C581 C 0.35391 0.98501 0.45185 0.0
C582 C 0.37892 0.93923 0.4205 0.0
C583 C 0.34906 0.9512 0.43867 0.0
C584 C 0.38626 0.88257 0.38843 0.0
C585 C 0.42261 0.89481 0.39621 0.0
N586 N 0.36149 0.92951 0.42359 0.0
N587 N 0.40999 0.91882 0.40815 0.0
H588 H 0.36214 0.37305 0.02774 0.0
H589 H 0.44684 0.4974 0.99359 0.0
H590 H 0.37662 0.41233 0.93514 0.0
H591 H 0.43595 0.4498 0.08502 0.0
H592 H 0.42155 0.46475 0.97168 0.0
H593 H 0.38965 0.39872 0.04907 0.0
C594 C 0.37117 0.38678 0.01185 0.0
C595 C 0.367 0.3908 0.97964 0.0
C596 C 0.42472 0.46129 0.99651 0.0
C597 C 0.39839 0.42044 0.00391 0.0
C598 C 0.43915 0.48003 0.00907 0.0
C599 C 0.44346 0.47652 0.04124 0.0
C600 C 0.41442 0.43899 0.01627 0.0
C601 C 0.43307 0.45342 0.06011 0.0
C602 C 0.38686 0.40146 0.02405 0.0
C603 C 0.37921 0.40875 0.96015 0.0
N604 N 0.41896 0.43569 0.04737 0.0
N605 N 0.39427 0.42313 0.97263 0.0
H606 H 0.02299 0.07125 0.26367 0.0
H607 H 0.12751 0.06229 0.31066 0.0
H608 H 0.06596 0.06188 0.19614 0.0
H609 H 0.08484 0.05366 0.37846 0.0
H610 H 0.10501 0.06945 0.26865 0.0
H611 H 0.04536 0.07072 0.30629 0.0
C612 C 0.03713 0.0692 0.2578 0.0
C613 C 0.04262 0.06659 0.2263 0.0
C614 C 0.10056 0.06631 0.29274 0.0
C615 C 0.06827 0.0666 0.27488 0.0
C616 C 0.11341 0.06227 0.31678 0.0
C617 C 0.10807 0.05709 0.34813 0.0
C618 C 0.08222 0.06526 0.30008 0.0
C619 C 0.08959 0.05728 0.3546 0.0
C620 C 0.04989 0.069 0.28213 0.0
C621 C 0.06111 0.06381 0.22008 0.0
N622 N 0.07733 0.06119 0.33077 0.0
N623 N 0.07326 0.06403 0.24413 0.0
H624 H 0.27195 0.28544 0.09806 0.0
H625 H 0.2143 0.10666 0.07703 0.0
H626 H 0.26115 0.24175 0.0058 0.0
H627 H 0.25332 0.11331 0.15231 0.0
H628 H 0.22584 0.16375 0.05379 0.0
H629 H 0.25959 0.22945 0.12184 0.0
C630 C 0.26686 0.26419 0.08284 0.0
C631 C 0.26759 0.26807 0.04994 0.0
C632 C 0.2318 0.15265 0.07544 0.0
C633 C 0.25324 0.20468 0.0769 0.0
C634 C 0.22519 0.1203 0.08877 0.0
C635 C 0.23293 0.10529 0.11655 0.0
C636 C 0.24588 0.17055 0.09049 0.0
C637 C 0.24708 0.12391 0.13075 0.0
C638 C 0.25992 0.23229 0.0964 0.0
C639 C 0.26091 0.23967 0.03127 0.0
N640 N 0.25302 0.15581 0.1177 0.0
N641 N 0.25385 0.20924 0.04501 0.0
H642 H 0.74542 0.21549 0.79036 0.0
H643 H 0.7845 0.14266 0.95728 0.0
H644 H 0.79695 0.24549 0.82782 0.0
H645 H 0.7317 0.11833 0.92193 0.0
H646 H 0.79006 0.17753 0.90876 0.0
H647 H 0.74086 0.17708 0.83722 0.0
C648 C 0.7558 0.21396 0.80841 0.0
C649 C 0.77158 0.23385 0.80518 0.0
C650 C 0.77728 0.16446 0.91159 0.0
C651 C 0.76644 0.18985 0.85896 0.0
C652 C 0.7741 0.14448 0.93927 0.0
C653 C 0.75757 0.12764 0.94377 0.0
C654 C 0.76384 0.16763 0.88817 0.0
C655 C 0.74462 0.13093 0.91958 0.0
C656 C 0.75319 0.19201 0.83518 0.0
C657 C 0.78457 0.23073 0.82934 0.0
N658 N 0.74801 0.1506 0.89289 0.0
N659 N 0.78169 0.2092 0.85521 0.0
H660 H 0.77951 0.33754 0.45932 0.0
H661 H 0.75999 0.1214 0.44584 0.0
H662 H 0.82109 0.25257 0.4467 0.0
H663 H 0.71944 0.20952 0.43652 0.0
H664 H 0.78232 0.16773 0.45769 0.0
H665 H 0.75733 0.28941 0.46285 0.0
C666 C 0.78404 0.30874 0.45771 0.0
C667 C 0.80218 0.29914 0.45221 0.0
C668 C 0.76849 0.17683 0.45337 0.0
C669 C 0.77678 0.24387 0.4561 0.0
C670 C 0.75573 0.15042 0.44669 0.0
C671 C 0.73787 0.1617 0.43973 0.0
C672 C 0.76331 0.21469 0.45331 0.0
C673 C 0.73309 0.19962 0.44135 0.0
C674 C 0.77134 0.28127 0.45964 0.0
C675 C 0.80723 0.2613 0.45058 0.0
N676 N 0.74576 0.22476 0.44775 0.0
N677 N 0.79457 0.23504 0.4522 0.0
H678 H 0.70338 0.87651 0.17076 0.0
H679 H 0.80108 0.80112 0.12425 0.0
H680 H 0.75112 0.94065 0.17828 0.0
H681 H 0.75328 0.73728 0.11602 0.0
H682 H 0.78223 0.85647 0.13421 0.0
H683 H 0.72045 0.82984 0.14097 0.0
C684 C 0.71737 0.8811 0.16571 0.0
C685 C 0.72593 0.91213 0.17765 0.0
C686 C 0.77584 0.83047 0.12976 0.0
C687 C 0.74561 0.85861 0.14382 0.0
C688 C 0.78661 0.79883 0.12402 0.0
C689 C 0.77877 0.76433 0.11992 0.0
C690 C 0.7571 0.82756 0.13164 0.0
C691 C 0.75993 0.76317 0.11952 0.0
C692 C 0.72714 0.85438 0.14873 0.0
C693 C 0.74405 0.91682 0.17004 0.0
N694 N 0.74975 0.79418 0.12583 0.0
N695 N 0.75335 0.89004 0.15405 0.0
H696 H 0.30078 0.88658 0.92692 0.0
H697 H 0.22142 0.74284 0.93788 0.0
H698 H 0.24488 0.91593 0.909 0.0
H699 H 0.27743 0.71205 0.95286 0.0
H700 H 0.22949 0.80771 0.93278 0.0
H701 H 0.29221 0.82409 0.94232 0.0
C702 C 0.28669 0.88005 0.92656 0.0
C703 C 0.27355 0.90647 0.91633 0.0
C704 C 0.24002 0.78681 0.93739 0.0
C705 C 0.26366 0.83488 0.93373 0.0
C706 C 0.23541 0.74973 0.94032 0.0
C707 C 0.24879 0.72189 0.94555 0.0
C708 C 0.25815 0.79621 0.93961 0.0
C709 C 0.26668 0.73254 0.94865 0.0
C710 C 0.28181 0.84431 0.93528 0.0
C711 C 0.25549 0.89642 0.91646 0.0
N712 N 0.27085 0.76881 0.94541 0.0
N713 N 0.25111 0.86138 0.92474 0.0
H714 H 0.53201 0.79539 0.28362 0.0
H715 H 0.59309 0.97232 0.29712 0.0
H716 H 0.52153 0.88299 0.35029 0.0
H717 H 0.61315 0.86712 0.26168 0.0
H718 H 0.56457 0.94383 0.30965 0.0
H719 H 0.55977 0.82521 0.26839 0.0
C720 C 0.53551 0.82096 0.29497 0.0
C721 C 0.52448 0.83668 0.31834 0.0
C722 C 0.57522 0.92706 0.29907 0.0
C723 C 0.55608 0.87103 0.30081 0.0
C724 C 0.59145 0.94331 0.29176 0.0
C725 C 0.60553 0.92201 0.27843 0.0
C726 C 0.57295 0.8894 0.29256 0.0
C727 C 0.60268 0.88451 0.27208 0.0
C728 C 0.55137 0.83786 0.28634 0.0
C729 C 0.5297 0.86982 0.3323 0.0
N730 N 0.58669 0.86941 0.27912 0.0
N731 N 0.54509 0.88599 0.32322 0.0
H732 H 0.64961 0.6976 0.91708 0.0
H733 H 0.55135 0.67543 0.98859 0.0
H734 H 0.60134 0.69321 0.86033 0.0
H735 H 0.6003 0.66635 0.04379 0.0
H736 H 0.56899 0.69156 0.94236 0.0
H737 H 0.63126 0.69614 0.96453 0.0
C738 C 0.63513 0.69677 0.91456 0.0
C739 C 0.62702 0.69505 0.88464 0.0
C740 C 0.57586 0.68633 0.96465 0.0
C741 C 0.60594 0.69315 0.93895 0.0
C742 C 0.56579 0.67717 0.99108 0.0
C743 C 0.57438 0.66915 0.02005 0.0
C744 C 0.59466 0.68752 0.96718 0.0
C745 C 0.59312 0.672 0.02188 0.0
C746 C 0.62467 0.69584 0.94169 0.0
C747 C 0.60819 0.69423 0.88289 0.0
N748 N 0.60264 0.6807 0.99576 0.0
N749 N 0.59831 0.69296 0.90966 0.0
H750 H 0.91877 0.16282 0.12809 0.0
H751 H 0.84772 0.00487 0.09834 0.0
H752 H 0.92886 0.04793 0.15451 0.0
H753 H 0.83679 0.12167 0.0806 0.0
H754 H 0.87783 0.01924 0.11723 0.0
H755 H 0.88903 0.14744 0.10908 0.0
C756 C 0.91473 0.1343 0.12994 0.0
C757 C 0.92636 0.10662 0.14295 0.0
C758 C 0.86884 0.0417 0.10918 0.0
C759 C 0.89218 0.08874 0.12104 0.0
C760 C 0.85166 0.03352 0.09832 0.0
C761 C 0.8397 0.06213 0.08787 0.0
C762 C 0.87411 0.07873 0.1095 0.0
C763 C 0.84553 0.09872 0.08844 0.0
C764 C 0.8977 0.12553 0.11906 0.0
C765 C 0.92033 0.07016 0.14471 0.0
N766 N 0.8623 0.10594 0.09906 0.0
N767 N 0.90366 0.06226 0.13382 0.0
H768 H 0.9139 0.44043 0.49758 0.0
H769 H 0.94159 0.58353 0.63119 0.0
H770 H 0.87582 0.51171 0.54648 0.0
H771 H 0.97993 0.52333 0.57347 0.0
H772 H 0.91725 0.55167 0.60502 0.0
H773 H 0.93811 0.46493 0.52961 0.0
C774 C 0.9106 0.46106 0.51519 0.0
C775 C 0.8928 0.47421 0.5192 0.0
C776 C 0.931 0.54524 0.59823 0.0
C777 C 0.92049 0.5024 0.55596 0.0
C778 C 0.94492 0.56334 0.61324 0.0
C779 C 0.96283 0.55627 0.60437 0.0
C780 C 0.935 0.51983 0.57419 0.0
C781 C 0.96632 0.52979 0.58096 0.0
C782 C 0.92445 0.47507 0.53344 0.0
C783 C 0.88935 0.50091 0.54245 0.0
N784 N 0.95253 0.51268 0.56658 0.0
N785 N 0.90307 0.51422 0.55985 0.0
H786 H 0.64626 0.04822 0.16757 0.0
H787 H 0.54498 0.12152 0.13659 0.0
H788 H 0.60697 0.06503 0.24088 0.0
H789 H 0.58514 0.11345 0.06384 0.0
H790 H 0.56626 0.09148 0.17361 0.0
H791 H 0.6229 0.06288 0.12809 0.0
C792 C 0.63269 0.0546 0.17538 0.0
C793 C 0.62863 0.05589 0.20763 0.0
C794 C 0.57037 0.09592 0.14947 0.0
C795 C 0.60183 0.07279 0.16253 0.0
C796 C 0.5582 0.11302 0.12826 0.0
C797 C 0.56335 0.12049 0.09713 0.0
C798 C 0.58787 0.08629 0.13957 0.0
C799 C 0.58063 0.10855 0.08768 0.0
C800 C 0.61936 0.06303 0.15281 0.0
C801 C 0.61078 0.06414 0.21631 0.0
N802 N 0.59233 0.09241 0.1089 0.0
N803 N 0.59809 0.07256 0.19392 0.0
H804 H 0.9657 0.58819 0.02817 0.0
H805 H 0.86266 0.64459 0.0592 0.0
H806 H 0.92105 0.53434 0.98468 0.0
H807 H 0.90717 0.69528 0.10593 0.0
H808 H 0.88394 0.61021 0.026 0.0
H809 H 0.94462 0.6338 0.05085 0.0
C810 C 0.95149 0.58621 0.02304 0.0
C811 C 0.94512 0.55707 0.00483 0.0
C812 C 0.88906 0.62912 0.0433 0.0
C813 C 0.9209 0.60908 0.03093 0.0
C814 C 0.8769 0.64881 0.06226 0.0
C815 C 0.88315 0.67255 0.08564 0.0
C816 C 0.90761 0.63306 0.0478 0.0
C817 C 0.90175 0.67706 0.08839 0.0
C818 C 0.93945 0.61224 0.03607 0.0
C819 C 0.92656 0.55608 0.99883 0.0
N820 N 0.91333 0.65722 0.06992 0.0
N821 N 0.9151 0.58145 0.01213 0.0
H822 H 0.90872 0.02409 0.44537 0.0
H823 H 0.80363 0.02095 0.40526 0.0
H824 H 0.88709 0.9688 0.36442 0.0
H825 H 0.82578 0.07405 0.48686 0.0
H826 H 0.83416 0.00749 0.3866 0.0
H827 H 0.87863 0.04862 0.45741 0.0
C828 C 0.89767 0.01738 0.42992 0.0
C829 C 0.90043 0.99401 0.40401 0.0
C830 C 0.83233 0.02236 0.40846 0.0
C831 C 0.86582 0.02186 0.41785 0.0
C832 C 0.81489 0.03009 0.41912 0.0
C833 C 0.81212 0.04832 0.44786 0.0
C834 C 0.84712 0.03288 0.42667 0.0
C835 C 0.82725 0.05965 0.46472 0.0
C836 C 0.88046 0.03139 0.43685 0.0
C837 C 0.88559 0.98653 0.38474 0.0
N838 N 0.84407 0.0515 0.454 0.0
N839 N 0.86889 0.00011 0.39222 0.0
H840 H 0.64804 0.42084 0.688 0.0
H841 H 0.58977 0.36996 0.53586 0.0
H842 H 0.66977 0.36227 0.60781 0.0
H843 H 0.56758 0.4251 0.61737 0.0
H844 H 0.6194 0.36889 0.56107 0.0
H845 H 0.61871 0.42471 0.66172 0.0
C846 C 0.64667 0.40886 0.66483 0.0
C847 C 0.6614 0.39111 0.65014 0.0
C848 C 0.60806 0.38127 0.57343 0.0
C849 C 0.62781 0.39542 0.6199 0.0
C850 C 0.59113 0.38192 0.55904 0.0
C851 C 0.57615 0.39757 0.57455 0.0
C852 C 0.61007 0.39641 0.60359 0.0
C853 C 0.57874 0.41268 0.60455 0.0
C854 C 0.6299 0.41106 0.64984 0.0
C855 C 0.6588 0.37615 0.62008 0.0
N856 N 0.59536 0.41167 0.6181 0.0
N857 N 0.64233 0.37859 0.606 0.0
H858 H 0.68847 0.97074 0.67639 0.0
H859 H 0.73633 0.80494 0.77582 0.0
H860 H 0.74596 0.95032 0.67874 0.0
H861 H 0.67964 0.80954 0.75331 0.0
H862 H 0.73997 0.86134 0.74428 0.0
H863 H 0.68483 0.91491 0.70866 0.0
C864 C 0.70033 0.95458 0.68376 0.0
C865 C 0.71755 0.9652 0.67481 0.0
C866 C 0.72675 0.84997 0.74621 0.0
C867 C 0.71347 0.90132 0.71182 0.0
C868 C 0.72464 0.81782 0.76427 0.0
C869 C 0.70765 0.80246 0.76717 0.0
C870 C 0.71172 0.86713 0.73118 0.0
C871 C 0.69299 0.82034 0.75165 0.0
C872 C 0.69824 0.92265 0.70209 0.0
C873 C 0.73243 0.94313 0.685 0.0
N874 N 0.69535 0.85179 0.73441 0.0
N875 N 0.73005 0.9123 0.70303 0.0
H876 H 0.16463 0.8704 0.55963 0.0
H877 H 0.23558 0.71179 0.61845 0.0
H878 H 0.22102 0.88872 0.57499 0.0
H879 H 0.17952 0.6927 0.60033 0.0
H880 H 0.23019 0.77739 0.60524 0.0
H881 H 0.16952 0.80595 0.57696 0.0
C882 C 0.17803 0.86092 0.56673 0.0
C883 C 0.19245 0.885 0.56574 0.0
C884 C 0.21905 0.75889 0.60425 0.0
C885 C 0.19815 0.81115 0.5856 0.0
C886 C 0.22212 0.72139 0.61183 0.0
C887 C 0.208 0.69661 0.61037 0.0
C888 C 0.20174 0.77178 0.59512 0.0
C889 C 0.19082 0.71072 0.60169 0.0
C890 C 0.18082 0.82408 0.57663 0.0
C891 C 0.20952 0.87114 0.57529 0.0
N892 N 0.1882 0.74731 0.5943 0.0
N893 N 0.2119 0.83513 0.58473 0.0
H894 H 0.1798 0.35308 0.65616 0.0
H895 H 0.26302 0.26871 0.55872 0.0
H896 H 0.22109 0.41947 0.61552 0.0
H897 H 0.22858 0.20244 0.61633 0.0
H898 H 0.24495 0.324 0.57233 0.0
H899 H 0.1945 0.29758 0.6341 0.0
C900 C 0.1918 0.35609 0.64221 0.0
C901 C 0.19933 0.39096 0.63794 0.0
C902 C 0.2413 0.29734 0.58187 0.0
C903 C 0.21626 0.32752 0.61284 0.0
C904 C 0.2516 0.26572 0.5741 0.0
C905 C 0.2474 0.2309 0.58662 0.0
C906 C 0.22661 0.29414 0.60217 0.0
C907 C 0.2324 0.22875 0.60634 0.0
C908 C 0.20024 0.32435 0.62979 0.0
C909 C 0.2149 0.39313 0.61965 0.0
N910 N 0.22257 0.25996 0.61358 0.0
N911 N 0.22291 0.36182 0.60794 0.0
loop_
_geom_bond_atom_site_label_1
_geom_bond_atom_site_label_2
_geom_bond_distance
_geom_bond_site_symmetry_2
_ccdc_geom_bond_type
O0 Cd1 2.300 1_554 S
O0 C7 1.275 . S
Cd1 O0 2.300 1_556 S
Cd1 O9 2.381 . S
Cd1 O10 2.378 . S
O2 Cd3 2.385 1_454 S
O2 C7 1.255 . S
Cd3 O2 2.385 1_656 S
Cd3 O4 2.317 . S
O4 Cd3 2.317 . S
O4 C5 1.232 1_556 S
C5 O4 1.232 1_554 S
C5 O6 1.218 . S
O6 C5 1.218 . S
C7 O0 1.275 . S
C7 O2 1.255 . S
C8 O9 1.258 . S
C8 O10 1.256 . S
O9 Cd1 2.381 . S
O9 C8 1.258 . S
O10 Cd1 2.378 . S
O10 C8 1.256 . S
O11 Cd12 2.300 . S
O11 C18 1.275 . S
Cd12 O11 2.300 . S
Cd12 O20 2.381 . S
Cd12 O21 2.378 . S
O13 Cd14 2.385 . S
O13 C18 1.255 1_655 S
Cd14 O13 2.385 . S
Cd14 O15 2.317 . S
O15 Cd14 2.317 . S
O15 C16 1.232 . S
C16 O15 1.232 . S
C16 O17 1.218 . S
O17 C16 1.218 . S
C18 O11 1.275 . S
C18 O13 1.255 1_455 S
C19 O20 1.258 . S
C19 O21 1.256 . S
O20 Cd12 2.381 . S
O20 C19 1.258 . S
O21 Cd12 2.378 . S
O21 C19 1.256 . S
O22 Cd23 2.300 . S
O22 C29 1.275 . S
Cd23 O22 2.300 . S
Cd23 O31 2.381 . S
Cd23 O32 2.378 . S
O24 Cd25 2.385 . S
O24 C29 1.255 . S
Cd25 O24 2.385 . S
Cd25 O26 2.317 . S
O26 Cd25 2.317 . S
O26 C27 1.232 . S
C27 O26 1.232 . S
C27 O28 1.218 . S
O28 C27 1.218 . S
C29 O22 1.275 . S
C29 O24 1.255 . S
C30 O31 1.258 . S
C30 O32 1.256 . S
O31 Cd23 2.381 . S
O31 C30 1.258 . S
O32 Cd23 2.378 . S
O32 C30 1.256 . S
O33 Cd34 2.300 . S
O33 C40 1.275 . S
Cd34 O33 2.300 . S
Cd34 O42 2.381 . S
Cd34 O43 2.378 . S
O35 Cd36 2.385 . S
O35 C40 1.255 . S
Cd36 O35 2.385 . S
Cd36 O37 2.317 1_556 S
O37 Cd36 2.317 1_554 S
O37 C38 1.232 . S
C38 O37 1.232 . S
C38 O39 1.218 . S
O39 C38 1.218 . S
C40 O33 1.275 . S
C40 O35 1.255 . S
C41 O42 1.258 . S
C41 O43 1.256 . S
O42 Cd34 2.381 . S
O42 C41 1.258 . S
O43 Cd34 2.378 . S
O43 C41 1.256 . S
O44 Cd45 2.300 . S
O44 C51 1.275 1_655 S
Cd45 O44 2.300 . S
Cd45 O53 2.381 . S
Cd45 O54 2.378 . S
O46 Cd47 2.385 . S
O46 C51 1.255 . S
Cd47 O46 2.385 . S
Cd47 O48 2.317 . S
O48 Cd47 2.317 . S
O48 C49 1.232 . S
C49 O48 1.232 . S
C49 O50 1.218 . S
O50 C49 1.218 . S
C51 O44 1.275 1_455 S
C51 O46 1.255 . S
C52 O53 1.258 . S
C52 O54 1.256 . S
O53 Cd45 2.381 . S
O53 C52 1.258 . S
O54 Cd45 2.378 . S
O54 C52 1.256 . S
O55 Cd56 2.300 . S
O55 C62 1.275 . S
Cd56 O55 2.300 . S
Cd56 O64 2.381 . S
Cd56 O65 2.378 . S
O57 Cd58 2.385 . S
O57 C62 1.255 . S
Cd58 O57 2.385 . S
Cd58 O59 2.317 . S
O59 Cd58 2.317 . S
O59 C60 1.232 . S
C60 O59 1.232 . S
C60 O61 1.218 . S
O61 C60 1.218 . S
C62 O55 1.275 . S
C62 O57 1.255 . S
C63 O64 1.258 . S
C63 O65 1.256 . S
O64 Cd56 2.381 . S
O64 C63 1.258 . S
O65 Cd56 2.378 . S
O65 C63 1.256 . S
O66 Cd67 2.300 1_554 S
O66 C73 1.277 . S
Cd67 O66 2.300 1_556 S
Cd67 O75 2.381 . S
Cd67 O76 2.378 . S
O68 Cd69 2.385 . S
O68 C73 1.248 1_556 S
Cd69 O68 2.385 . S
Cd69 O70 2.317 . S
O70 Cd69 2.317 . S
O70 C71 1.232 . S
C71 O70 1.232 . S
C71 O72 1.218 . S
O72 C71 1.218 . S
C73 O66 1.277 . S
C73 O68 1.248 1_554 S
C74 O75 1.258 . S
C74 O76 1.256 . S
O75 Cd67 2.381 . S
O75 C74 1.258 . S
O76 Cd67 2.378 . S
O76 C74 1.256 . S
O77 Cd78 2.300 . S
O77 C84 1.275 . S
Cd78 O77 2.300 . S
Cd78 O86 2.381 . S
Cd78 O87 2.378 . S
O79 Cd80 2.385 . S
O79 C84 1.255 1_655 S
Cd80 O79 2.385 . S
Cd80 O81 2.317 . S
O81 Cd80 2.317 . S
O81 C82 1.232 . S
C82 O81 1.232 . S
C82 O83 1.218 . S
O83 C82 1.218 . S
C84 O77 1.275 . S
C84 O79 1.255 1_455 S
C85 O86 1.258 . S
C85 O87 1.256 . S
O86 Cd78 2.381 . S
O86 C85 1.258 . S
O87 Cd78 2.378 . S
O87 C85 1.256 . S
O88 Cd89 2.300 . S
O88 C95 1.275 1_565 S
Cd89 O88 2.300 . S
Cd89 O97 2.381 . S
Cd89 O98 2.378 . S
O90 Cd91 2.385 . S
O90 C95 1.255 . S
Cd91 O90 2.385 . S
Cd91 O92 2.317 . S
O92 Cd91 2.317 . S
O92 C93 1.232 . S
C93 O92 1.232 . S
C93 O94 1.218 . S
O94 C93 1.218 . S
C95 O88 1.275 1_545 S
C95 O90 1.255 . S
C96 O97 1.258 . S
C96 O98 1.256 . S
O97 Cd89 2.381 . S
O97 C96 1.258 . S
O98 Cd89 2.378 . S
O98 C96 1.256 . S
O99 Cd100 2.300 . S
O99 C106 1.275 . S
Cd100 O99 2.300 . S
Cd100 O108 2.381 . S
Cd100 O109 2.378 . S
O101 Cd102 2.385 . S
O101 C106 1.255 . S
Cd102 O101 2.385 . S
Cd102 O103 2.317 . S
O103 Cd102 2.317 . S
O103 C104 1.232 . S
C104 O103 1.232 . S
C104 O105 1.218 . S
O105 C104 1.218 . S
C106 O99 1.275 . S
C106 O101 1.255 . S
C107 O108 1.258 . S
C107 O109 1.256 . S
O108 Cd100 2.381 . S
O108 C107 1.258 . S
O109 Cd100 2.378 . S
O109 C107 1.256 . S
O110 Cd111 2.300 . S
O110 C117 1.275 . S
Cd111 O110 2.300 . S
Cd111 O119 2.381 . S
Cd111 O120 2.378 . S
O112 Cd113 2.385 . S
O112 C117 1.255 . S
Cd113 O112 2.385 . S
Cd113 O114 2.317 1_565 S
O114 Cd113 2.317 1_545 S
O114 C115 1.232 . S
C115 O114 1.232 . S
C115 O116 1.218 . S
O116 C115 1.218 . S
C117 O110 1.275 . S
C117 O112 1.255 . S
C118 O119 1.258 . S
C118 O120 1.256 . S
O119 Cd111 2.381 . S
O119 C118 1.258 . S
O120 Cd111 2.378 . S
O120 C118 1.256 . S
O121 Cd122 2.300 1_556 S
O121 C128 1.275 . S
Cd122 O121 2.300 1_554 S
Cd122 O130 2.381 . S
Cd122 O131 2.378 . S
O123 Cd124 2.385 . S
O123 C128 1.255 . S
Cd124 O123 2.385 . S
Cd124 O125 2.317 . S
O125 Cd124 2.317 . S
O125 C126 1.232 . S
C126 O125 1.232 . S
C126 O127 1.218 . S
O127 C126 1.218 . S
C128 O121 1.275 . S
C128 O123 1.255 . S
C129 O130 1.258 . S
C129 O131 1.256 . S
O130 Cd122 2.381 . S
O130 C129 1.258 . S
O131 Cd122 2.378 . S
O131 C129 1.256 . S
O132 Cd133 2.300 . S
O132 C139 1.275 . S
Cd133 O132 2.300 . S
Cd133 O141 2.381 1_565 S
Cd133 O142 2.378 1_565 S
O134 Cd135 2.385 . S
O134 C139 1.255 . S
Cd135 O134 2.385 . S
Cd135 O136 2.317 . S
O136 Cd135 2.317 . S
O136 C137 1.232 . S
C137 O136 1.232 . S
C137 O138 1.218 . S
O138 C137 1.218 . S
C139 O132 1.275 . S
C139 O134 1.255 . S
C140 O141 1.258 . S
C140 O142 1.256 . S
O141 Cd133 2.381 1_545 S
O141 C140 1.258 . S
O142 Cd133 2.378 1_545 S
O142 C140 1.256 . S
O143 Cd144 2.300 . S
O143 C150 1.275 . S
Cd144 O143 2.300 . S
Cd144 O152 2.381 . S
Cd144 O153 2.378 . S
O145 Cd146 2.385 . S
O145 C150 1.255 . S
Cd146 O145 2.385 . S
Cd146 O147 2.317 . S
O147 Cd146 2.317 . S
O147 C148 1.232 . S
C148 O147 1.232 . S
C148 O149 1.218 . S
O149 C148 1.218 . S
C150 O143 1.275 . S
C150 O145 1.255 . S
C151 O152 1.258 . S
C151 O153 1.256 . S
O152 Cd144 2.381 . S
O152 C151 1.258 . S
O153 Cd144 2.378 . S
O153 C151 1.256 . S
O154 Cd155 2.300 . S
O154 C161 1.275 . S
Cd155 O154 2.300 . S
Cd155 O163 2.381 . S
Cd155 O164 2.378 . S
O156 Cd157 2.385 . S
O156 C161 1.255 . S
Cd157 O156 2.385 . S
Cd157 O158 2.317 1_545 S
O158 Cd157 2.317 1_565 S
O158 C159 1.232 . S
C159 O158 1.232 . S
C159 O160 1.218 . S
O160 C159 1.218 . S
C161 O154 1.275 . S
C161 O156 1.255 . S
C162 O163 1.258 . S
C162 O164 1.256 . S
O163 Cd155 2.381 . S
O163 C162 1.258 . S
O164 Cd155 2.378 . S
O164 C162 1.256 . S
O165 Cd166 2.300 . S
O165 C172 1.275 . S
Cd166 O165 2.300 . S
Cd166 O174 2.381 . S
Cd166 O175 2.378 . S
O167 Cd168 2.385 . S
O167 C172 1.255 . S
Cd168 O167 2.385 . S
Cd168 O169 2.317 . S
O169 Cd168 2.317 . S
O169 C170 1.232 . S
C170 O169 1.232 . S
C170 O171 1.218 . S
O171 C170 1.218 . S
C172 O165 1.275 . S
C172 O167 1.255 . S
C173 O174 1.258 . S
C173 O175 1.256 . S
O174 Cd166 2.381 . S
O174 C173 1.258 . S
O175 Cd166 2.378 . S
O175 C173 1.256 . S
O176 Cd177 2.300 . S
O176 C183 1.275 . S
Cd177 O176 2.300 . S
Cd177 O185 2.381 . S
Cd177 O186 2.375 1_554 S
O178 Cd179 2.385 1_554 S
O178 C183 1.255 . S
Cd179 O178 2.385 1_556 S
Cd179 O180 2.317 . S
O180 Cd179 2.317 . S
O180 C181 1.232 . S
C181 O180 1.232 . S
C181 O182 1.218 . S
O182 C181 1.218 . S
C183 O176 1.275 . S
C183 O178 1.255 . S
C184 O185 1.258 . S
C184 O186 1.242 1_554 S
O185 Cd177 2.381 . S
O185 C184 1.258 . S
O186 Cd177 2.375 1_556 S
O186 C184 1.242 1_556 S
O187 Cd188 2.300 . S
O187 C194 1.275 . S
Cd188 O187 2.300 . S
Cd188 O196 2.381 . S
Cd188 O197 2.378 . S
O189 Cd190 2.385 . S
O189 C194 1.255 . S
Cd190 O189 2.385 . S
Cd190 O191 2.317 . S
O191 Cd190 2.317 . S
O191 C192 1.232 . S
C192 O191 1.232 . S
C192 O193 1.218 . S
O193 C192 1.218 . S
C194 O187 1.275 . S
C194 O189 1.255 . S
C195 O196 1.258 . S
C195 O197 1.256 . S
O196 Cd188 2.381 . S
O196 C195 1.258 . S
O197 Cd188 2.378 . S
O197 C195 1.256 . S
O198 Cd199 2.300 . S
O198 C205 1.275 . S
Cd199 O198 2.300 . S
Cd199 O207 2.381 . S
Cd199 O208 2.378 . S
O200 Cd201 2.385 . S
O200 C205 1.255 . S
Cd201 O200 2.385 . S
Cd201 O202 2.317 . S
O202 Cd201 2.317 . S
O202 C203 1.232 . S
C203 O202 1.232 . S
C203 O204 1.218 . S
O204 C203 1.218 . S
C205 O198 1.275 . S
C205 O200 1.255 . S
C206 O207 1.258 . S
C206 O208 1.256 . S
O207 Cd199 2.381 . S
O207 C206 1.258 . S
O208 Cd199 2.378 . S
O208 C206 1.256 . S
O209 Cd210 2.300 . S
O209 C216 1.275 . S
Cd210 O209 2.300 . S
Cd210 O218 2.381 . S
Cd210 O219 2.378 . S
O211 Cd212 2.385 . S
O211 C216 1.255 . S
Cd212 O211 2.385 . S
Cd212 O213 2.317 . S
O213 Cd212 2.317 . S
O213 C214 1.232 . S
C214 O213 1.232 . S
C214 O215 1.218 . S
O215 C214 1.218 . S
C216 O209 1.275 . S
C216 O211 1.255 . S
C217 O218 1.258 . S
C217 O219 1.256 . S
O218 Cd210 2.381 . S
O218 C217 1.258 . S
O219 Cd210 2.378 . S
O219 C217 1.256 . S
O220 Cd221 2.300 . S
O220 C227 1.275 . S
Cd221 O220 2.300 . S
Cd221 O229 2.381 . S
Cd221 O230 2.378 . S
O222 Cd223 2.385 . S
O222 C227 1.255 . S
Cd223 O222 2.385 . S
Cd223 O224 2.317 . S
O224 Cd223 2.317 . S
O224 C225 1.232 . S
C225 O224 1.232 . S
C225 O226 1.218 . S
O226 C225 1.218 . S
C227 O220 1.275 . S
C227 O222 1.255 . S
C228 O229 1.258 . S
C228 O230 1.256 . S
O229 Cd221 2.381 . S
O229 C228 1.258 . S
O230 Cd221 2.378 . S
O230 C228 1.256 . S
O231 Cd232 2.300 . S
O231 C238 1.275 . S
Cd232 O231 2.300 . S
Cd232 O240 2.381 . S
Cd232 O241 2.378 . S
O233 Cd234 2.385 . S
O233 C238 1.255 . S
Cd234 O233 2.385 . S
Cd234 O235 2.317 . S
O235 Cd234 2.317 . S
O235 C236 1.232 . S
C236 O235 1.232 . S
C236 O237 1.218 . S
O237 C236 1.218 . S
C238 O231 1.275 . S
C238 O233 1.255 . S
C239 O240 1.258 . S
C239 O241 1.256 . S
O240 Cd232 2.381 . S
O240 C239 1.258 . S
O241 Cd232 2.378 . S
O241 C239 1.256 . S
O242 Cd243 2.300 1_545 S
O242 C249 1.275 . S
Cd243 O242 2.300 1_565 S
Cd243 O251 2.381 . S
Cd243 O252 2.378 . S
O244 Cd245 2.385 . S
O244 C249 1.255 1_565 S
Cd245 O244 2.385 . S
Cd245 O246 2.317 . S
O246 Cd245 2.317 . S
O246 C247 1.232 1_565 S
C247 O246 1.232 1_545 S
C247 O248 1.215 1_545 S
O248 C247 1.215 1_565 S
C249 O242 1.275 . S
C249 O244 1.255 1_545 S
C250 O251 1.258 . S
C250 O252 1.256 . S
O251 Cd243 2.381 . S
O251 C250 1.258 . S
O252 Cd243 2.378 . S
O252 C250 1.256 . S
O253 Cd254 2.300 . S
O253 C260 1.275 . S
Cd254 O253 2.300 . S
Cd254 O262 2.381 . S
Cd254 O263 2.378 . S
O255 Cd256 2.385 . S
O255 C260 1.255 . S
Cd256 O255 2.385 . S
Cd256 O257 2.317 . S
O257 Cd256 2.317 . S
O257 C258 1.232 . S
C258 O257 1.232 . S
C258 O259 1.218 . S
O259 C258 1.218 . S
C260 O253 1.275 . S
C260 O255 1.255 . S
C261 O262 1.258 . S
C261 O263 1.256 . S
O262 Cd254 2.381 . S
O262 C261 1.258 . S
O263 Cd254 2.378 . S
O263 C261 1.256 . S
H264 C270 0.930 . S
H265 C274 0.930 . S
H266 C279 0.922 1_655 S
H267 C277 0.929 . S
H268 C272 0.929 . S
H269 C278 0.929 . S
C270 H264 0.930 . S
C270 C271 1.367 . S
C270 C278 1.378 . S
C271 C270 1.367 . S
C271 C279 1.433 . S
C272 H268 0.929 . S
C272 C274 1.378 . S
C272 C276 1.350 . S
C273 C276 1.463 . S
C273 C278 1.350 . S
C273 N281 1.427 . S
C274 H265 0.930 . S
C274 C272 1.378 . S
C274 C275 1.367 . S
C275 C274 1.367 . S
C275 C277 1.433 . S
C276 C272 1.350 . S
C276 C273 1.463 . S
C276 N280 1.427 . S
C277 H267 0.929 . S
C277 C275 1.433 . S
C277 N280 1.384 . S
C278 H269 0.929 . S
C278 C270 1.378 . S
C278 C273 1.350 . S
C279 H266 0.922 1_455 S
C279 C271 1.433 . S
C279 N281 1.384 . S
N280 C276 1.427 . S
N280 C277 1.384 . S
N281 C273 1.427 . S
N281 C279 1.384 . S
H282 C288 0.930 . S
H283 C292 0.930 . S
H284 C297 0.929 . S
H285 C295 0.929 . S
H286 C290 0.929 . S
H287 C296 0.929 . S
C288 H282 0.930 . S
C288 C289 1.367 1_655 S
C288 C296 1.378 . S
C289 C288 1.367 1_455 S
C289 C297 1.433 . S
C290 H286 0.929 . S
C290 C292 1.378 . S
C290 C294 1.350 . S
C291 C294 1.463 . S
C291 C296 1.350 1_455 S
C291 N299 1.427 . S
C292 H283 0.930 . S
C292 C290 1.378 . S
C292 C293 1.367 . S
C293 C292 1.367 . S
C293 C295 1.433 1_455 S
C294 C290 1.350 . S
C294 C291 1.463 . S
C294 N298 1.427 1_455 S
C295 H285 0.929 . S
C295 C293 1.433 1_655 S
C295 N298 1.384 . S
C296 H287 0.929 . S
C296 C288 1.378 . S
C296 C291 1.350 1_655 S
C297 H284 0.929 . S
C297 C289 1.433 . S
C297 N299 1.384 . S
N298 C294 1.427 1_655 S
N298 C295 1.384 . S
N299 C291 1.427 . S
N299 C297 1.384 . S
H300 C306 0.930 . S
H301 C310 0.930 . S
H302 C315 0.929 . S
H303 C313 0.929 . S
H304 C308 0.929 . S
H305 C314 0.929 . S
C306 H300 0.930 . S
C306 C307 1.367 . S
C306 C314 1.378 . S
C307 C306 1.367 . S
C307 C315 1.433 . S
C308 H304 0.929 . S
C308 C310 1.378 . S
C308 C312 1.350 . S
C309 C312 1.463 . S
C309 C314 1.350 . S
C309 N317 1.427 . S
C310 H301 0.930 . S
C310 C308 1.378 . S
C310 C311 1.367 . S
C311 C310 1.367 . S
C311 C313 1.433 . S
C312 C308 1.350 . S
C312 C309 1.463 . S
C312 N316 1.427 . S
C313 H303 0.929 . S
C313 C311 1.433 . S
C313 N316 1.384 . S
C314 H305 0.929 . S
C314 C306 1.378 . S
C314 C309 1.350 . S
C315 H302 0.929 . S
C315 C307 1.433 . S
C315 N317 1.384 . S
N316 C312 1.427 . S
N316 C313 1.384 . S
N317 C309 1.427 . S
N317 C315 1.384 . S
H318 C324 0.930 . S
H319 C328 0.930 . S
H320 C333 0.929 . S
H321 C331 0.929 . S
H322 C326 0.929 . S
H323 C332 0.929 . S
C324 H318 0.930 . S
C324 C325 1.367 . S
C324 C332 1.378 . S
C325 C324 1.367 . S
C325 C333 1.433 1_554 S
C326 H322 0.929 . S
C326 C328 1.378 . S
C326 C330 1.350 . S
C327 C330 1.463 1_554 S
C327 C332 1.350 . S
C327 N335 1.427 1_554 S
C328 H319 0.930 . S
C328 C326 1.378 . S
C328 C329 1.367 . S
C329 C328 1.367 . S
C329 C331 1.433 1_556 S
C330 C326 1.350 . S
C330 C327 1.463 1_556 S
C330 N334 1.427 1_556 S
C331 H321 0.929 . S
C331 C329 1.433 1_554 S
C331 N334 1.384 . S
C332 H323 0.929 . S
C332 C324 1.378 . S
C332 C327 1.350 . S
C333 H320 0.929 . S
C333 C325 1.433 1_556 S
C333 N335 1.384 . S
N334 C330 1.427 1_554 S
N334 C331 1.384 . S
N335 C327 1.427 1_556 S
N335 C333 1.384 . S
H336 C342 0.930 . S
H337 C346 0.930 . S
H338 C351 0.929 . S
H339 C349 0.929 . S
H340 C344 0.929 . S
H341 C350 0.929 . S
C342 H336 0.930 . S
C342 C343 1.367 . S
C342 C350 1.378 . S
C343 C342 1.367 . S
C343 C351 1.433 . S
C344 H340 0.929 . S
C344 C346 1.378 . S
C344 C348 1.350 . S
C345 C348 1.463 1_545 S
C345 C350 1.350 . S
C345 N353 1.423 1_545 S
C346 H337 0.930 . S
C346 C344 1.378 . S
C346 C347 1.367 . S
C347 C346 1.367 . S
C347 C349 1.433 . S
C348 C344 1.350 . S
C348 C345 1.463 1_565 S
C348 N352 1.427 1_565 S
C349 H339 0.929 . S
C349 C347 1.433 . S
C349 N352 1.384 1_565 S
C350 H341 0.929 . S
C350 C342 1.378 . S
C350 C345 1.350 . S
C351 H338 0.929 . S
C351 C343 1.433 . S
C351 N353 1.377 1_545 S
N352 C348 1.427 1_545 S
N352 C349 1.384 1_545 S
N353 C345 1.423 1_565 S
N353 C351 1.377 1_565 S
H354 C360 0.930 . S
H355 C364 0.930 . S
H356 C369 0.929 . S
H357 C367 0.929 . S
H358 C362 0.929 . S
H359 C368 0.929 . S
C360 H354 0.930 . S
C360 C361 1.367 . S
C360 C368 1.378 . S
C361 C360 1.367 . S
C361 C369 1.433 . S
C362 H358 0.929 . S
C362 C364 1.378 . S
C362 C366 1.350 . S
C363 C366 1.463 . S
C363 C368 1.350 . S
C363 N371 1.427 . S
C364 H355 0.930 . S
C364 C362 1.378 . S
C364 C365 1.367 . S
C365 C364 1.367 . S
C365 C367 1.433 . S
C366 C362 1.350 . S
C366 C363 1.463 . S
C366 N370 1.427 . S
C367 H357 0.929 . S
C367 C365 1.433 . S
C367 N370 1.384 . S
C368 H359 0.929 . S
C368 C360 1.378 . S
C368 C363 1.350 . S
C369 H356 0.929 . S
C369 C361 1.433 . S
C369 N371 1.384 . S
N370 C366 1.427 . S
N370 C367 1.384 . S
N371 C363 1.427 . S
N371 C369 1.384 . S
H372 C378 0.930 . S
H373 C382 0.933 . S
H374 C387 0.929 . S
H375 C385 0.929 . S
H376 C380 0.929 . S
H377 C386 0.930 1_545 S
C378 H372 0.930 . S
C378 C379 1.367 . S
C378 C386 1.377 . S
C379 C378 1.367 . S
C379 C387 1.433 . S
C380 H376 0.929 . S
C380 C382 1.380 . S
C380 C384 1.352 . S
C381 C384 1.465 . S
C381 C386 1.349 . S
C381 N389 1.427 . S
C382 H373 0.933 . S
C382 C380 1.380 . S
C382 C383 1.362 1_565 S
C383 C382 1.362 1_545 S
C383 C385 1.433 . S
C384 C380 1.352 . S
C384 C381 1.465 . S
C384 N388 1.423 1_565 S
C385 H375 0.929 . S
C385 C383 1.433 . S
C385 N388 1.384 . S
C386 H377 0.930 1_565 S
C386 C378 1.377 . S
C386 C381 1.349 . S
C387 H374 0.929 . S
C387 C379 1.433 . S
C387 N389 1.384 . S
N388 C384 1.423 1_545 S
N388 C385 1.384 . S
N389 C381 1.427 . S
N389 C387 1.384 . S
H390 C396 0.930 . S
H391 C400 0.930 . S
H392 C405 0.929 . S
H393 C403 0.929 . S
H394 C398 0.929 . S
H395 C404 0.929 . S
C396 H390 0.930 . S
C396 C397 1.367 . S
C396 C404 1.378 . S
C397 C396 1.367 . S
C397 C405 1.433 . S
C398 H394 0.929 . S
C398 C400 1.378 . S
C398 C402 1.350 . S
C399 C402 1.463 . S
C399 C404 1.350 . S
C399 N407 1.427 . S
C400 H391 0.930 . S
C400 C398 1.378 . S
C400 C401 1.367 . S
C401 C400 1.367 . S
C401 C403 1.433 . S
C402 C398 1.350 . S
C402 C399 1.463 . S
C402 N406 1.427 . S
C403 H393 0.929 . S
C403 C401 1.433 . S
C403 N406 1.384 . S
C404 H395 0.929 . S
C404 C396 1.378 . S
C404 C399 1.350 . S
C405 H392 0.929 . S
C405 C397 1.433 . S
C405 N407 1.384 . S
N406 C402 1.427 . S
N406 C403 1.384 . S
N407 C399 1.427 . S
N407 C405 1.384 . S
H408 C414 0.930 . S
H409 C418 0.930 . S
H410 C423 0.929 . S
H411 C421 0.929 . S
H412 C416 0.929 . S
H413 C422 0.929 . S
C414 H408 0.930 . S
C414 C415 1.367 . S
C414 C422 1.378 . S
C415 C414 1.367 . S
C415 C423 1.433 . S
C416 H412 0.929 . S
C416 C418 1.378 . S
C416 C420 1.350 . S
C417 C420 1.463 . S
C417 C422 1.350 . S
C417 N425 1.427 . S
C418 H409 0.930 . S
C418 C416 1.378 . S
C418 C419 1.367 . S
C419 C418 1.367 . S
C419 C421 1.433 . S
C420 C416 1.350 . S
C420 C417 1.463 . S
C420 N424 1.427 . S
C421 H411 0.929 . S
C421 C419 1.433 . S
C421 N424 1.384 . S
C422 H413 0.929 . S
C422 C414 1.378 . S
C422 C417 1.350 . S
C423 H410 0.929 . S
C423 C415 1.433 . S
C423 N425 1.384 . S
N424 C420 1.427 . S
N424 C421 1.384 . S
N425 C417 1.427 . S
N425 C423 1.384 . S
H426 C432 0.930 . S
H427 C436 0.930 . S
H428 C441 0.929 . S
H429 C439 0.929 . S
H430 C434 0.929 . S
H431 C440 0.929 . S
C432 H426 0.930 . S
C432 C433 1.367 . S
C432 C440 1.378 . S
C433 C432 1.367 . S
C433 C441 1.433 . S
C434 H430 0.929 . S
C434 C436 1.378 . S
C434 C438 1.350 . S
C435 C438 1.463 . S
C435 C440 1.350 . S
C435 N443 1.427 . S
C436 H427 0.930 . S
C436 C434 1.378 . S
C436 C437 1.367 . S
C437 C436 1.367 . S
C437 C439 1.433 . S
C438 C434 1.350 . S
C438 C435 1.463 . S
C438 N442 1.427 . S
C439 H429 0.929 . S
C439 C437 1.433 . S
C439 N442 1.384 . S
C440 H431 0.929 . S
C440 C432 1.378 . S
C440 C435 1.350 . S
C441 H428 0.929 . S
C441 C433 1.433 . S
C441 N443 1.384 . S
N442 C438 1.427 . S
N442 C439 1.384 . S
N443 C435 1.427 . S
N443 C441 1.384 . S
H444 C450 0.930 . S
H445 C454 0.930 . S
H446 C459 0.929 . S
H447 C457 0.929 . S
H448 C452 0.929 . S
H449 C458 0.929 . S
C450 H444 0.930 . S
C450 C451 1.367 1_545 S
C450 C458 1.378 . S
C451 C450 1.367 1_565 S
C451 C459 1.433 . S
C452 H448 0.929 . S
C452 C454 1.378 . S
C452 C456 1.350 1_565 S
C453 C456 1.459 1_565 S
C453 C458 1.340 1_565 S
C453 N461 1.442 . S
C454 H445 0.930 . S
C454 C452 1.378 . S
C454 C455 1.367 1_565 S
C455 C454 1.367 1_545 S
C455 C457 1.433 . S
C456 C452 1.350 1_545 S
C456 C453 1.459 1_545 S
C456 N460 1.427 . S
C457 H447 0.929 . S
C457 C455 1.433 . S
C457 N460 1.384 . S
C458 H449 0.929 . S
C458 C450 1.378 . S
C458 C453 1.340 1_545 S
C459 H446 0.929 . S
C459 C451 1.433 . S
C459 N461 1.384 . S
N460 C456 1.427 . S
N460 C457 1.384 . S
N461 C453 1.442 . S
N461 C459 1.384 . S
H462 C468 0.930 . S
H463 C472 0.930 . S
H464 C477 0.929 . S
H465 C475 0.929 . S
H466 C470 0.929 . S
H467 C476 0.929 . S
C468 H462 0.930 . S
C468 C469 1.367 . S
C468 C476 1.378 . S
C469 C468 1.367 . S
C469 C477 1.433 . S
C470 H466 0.929 . S
C470 C472 1.378 . S
C470 C474 1.350 . S
C471 C474 1.463 . S
C471 C476 1.350 . S
C471 N479 1.427 . S
C472 H463 0.930 . S
C472 C470 1.378 . S
C472 C473 1.367 . S
C473 C472 1.367 . S
C473 C475 1.433 . S
C474 C470 1.350 . S
C474 C471 1.463 . S
C474 N478 1.427 . S
C475 H465 0.929 . S
C475 C473 1.433 . S
C475 N478 1.384 . S
C476 H467 0.929 . S
C476 C468 1.378 . S
C476 C471 1.350 . S
C477 H464 0.929 . S
C477 C469 1.433 . S
C477 N479 1.384 . S
N478 C474 1.427 . S
N478 C475 1.384 . S
N479 C471 1.427 . S
N479 C477 1.384 . S
H480 C486 0.930 . S
H481 C490 0.930 . S
H482 C495 0.929 . S
H483 C493 0.929 . S
H484 C488 0.929 . S
H485 C494 0.929 . S
C486 H480 0.930 . S
C486 C487 1.367 . S
C486 C494 1.378 . S
C487 C486 1.367 . S
C487 C495 1.433 . S
C488 H484 0.929 . S
C488 C490 1.378 . S
C488 C492 1.350 . S
C489 C492 1.463 . S
C489 C494 1.350 . S
C489 N497 1.427 . S
C490 H481 0.930 . S
C490 C488 1.378 . S
C490 C491 1.367 . S
C491 C490 1.367 . S
C491 C493 1.433 . S
C492 C488 1.350 . S
C492 C489 1.463 . S
C492 N496 1.427 . S
C493 H483 0.929 . S
C493 C491 1.433 . S
C493 N496 1.384 . S
C494 H485 0.929 . S
C494 C486 1.378 . S
C494 C489 1.350 . S
C495 H482 0.929 . S
C495 C487 1.433 . S
C495 N497 1.384 . S
N496 C492 1.427 . S
N496 C493 1.384 . S
N497 C489 1.427 . S
N497 C495 1.384 . S
H498 C504 0.930 . S
H499 C508 0.930 . S
H500 C513 0.929 . S
H501 C511 0.929 . S
H502 C506 0.929 . S
H503 C512 0.929 . S
C504 H498 0.930 . S
C504 C505 1.367 . S
C504 C512 1.378 . S
C505 C504 1.367 . S
C505 C513 1.433 . S
C506 H502 0.929 . S
C506 C508 1.378 . S
C506 C510 1.350 . S
C507 C510 1.463 . S
C507 C512 1.350 . S
C507 N515 1.427 . S
C508 H499 0.930 . S
C508 C506 1.378 . S
C508 C509 1.367 . S
C509 C508 1.367 . S
C509 C511 1.433 . S
C510 C506 1.350 . S
C510 C507 1.463 . S
C510 N514 1.427 . S
C511 H501 0.929 . S
C511 C509 1.433 . S
C511 N514 1.384 . S
C512 H503 0.929 . S
C512 C504 1.378 . S
C512 C507 1.350 . S
C513 H500 0.929 . S
C513 C505 1.433 . S
C513 N515 1.384 . S
N514 C510 1.427 . S
N514 C511 1.384 . S
N515 C507 1.427 . S
N515 C513 1.384 . S
H516 C522 0.930 . S
H517 C526 0.930 . S
H518 C531 0.929 . S
H519 C529 0.929 . S
H520 C524 0.929 . S
H521 C530 0.929 . S
C522 H516 0.930 . S
C522 C523 1.367 . S
C522 C530 1.378 . S
C523 C522 1.367 . S
C523 C531 1.433 . S
C524 H520 0.929 . S
C524 C526 1.378 . S
C524 C528 1.350 . S
C525 C528 1.463 . S
C525 C530 1.350 . S
C525 N533 1.427 . S
C526 H517 0.930 . S
C526 C524 1.378 . S
C526 C527 1.367 . S
C527 C526 1.367 . S
C527 C529 1.433 . S
C528 C524 1.350 . S
C528 C525 1.463 . S
C528 N532 1.427 . S
C529 H519 0.929 . S
C529 C527 1.433 . S
C529 N532 1.384 . S
C530 H521 0.929 . S
C530 C522 1.378 . S
C530 C525 1.350 . S
C531 H518 0.929 . S
C531 C523 1.433 . S
C531 N533 1.384 . S
N532 C528 1.427 . S
N532 C529 1.384 . S
N533 C525 1.427 . S
N533 C531 1.384 . S
H534 C540 0.930 . S
H535 C544 0.930 1_554 S
H536 C549 0.929 1_554 S
H537 C547 0.929 . S
H538 C542 0.929 1_554 S
H539 C548 0.929 . S
C540 H534 0.930 . S
C540 C541 1.367 . S
C540 C548 1.378 . S
C541 C540 1.367 . S
C541 C549 1.433 . S
C542 H538 0.929 1_556 S
C542 C544 1.378 . S
C542 C546 1.350 . S
C543 C546 1.463 . S
C543 C548 1.350 . S
C543 N551 1.427 . S
C544 H535 0.930 1_556 S
C544 C542 1.378 . S
C544 C545 1.367 . S
C545 C544 1.367 . S
C545 C547 1.433 . S
C546 C542 1.350 . S
C546 C543 1.463 . S
C546 N550 1.427 . S
C547 H537 0.929 . S
C547 C545 1.433 . S
C547 N550 1.384 . S
C548 H539 0.929 . S
C548 C540 1.378 . S
C548 C543 1.350 . S
C549 H536 0.929 1_556 S
C549 C541 1.433 . S
C549 N551 1.384 . S
N550 C546 1.427 . S
N550 C547 1.384 . S
N551 C543 1.427 . S
N551 C549 1.384 . S
H552 C558 0.930 . S
H553 C562 0.930 . S
H554 C567 0.929 . S
H555 C565 0.929 . S
H556 C560 0.929 . S
H557 C566 0.929 . S
C558 H552 0.930 . S
C558 C559 1.367 . S
C558 C566 1.378 . S
C559 C558 1.367 . S
C559 C567 1.433 . S
C560 H556 0.929 . S
C560 C562 1.378 . S
C560 C564 1.350 . S
C561 C564 1.463 . S
C561 C566 1.350 . S
C561 N569 1.427 . S
C562 H553 0.930 . S
C562 C560 1.378 . S
C562 C563 1.367 . S
C563 C562 1.367 . S
C563 C565 1.433 . S
C564 C560 1.350 . S
C564 C561 1.463 . S
C564 N568 1.427 . S
C565 H555 0.929 . S
C565 C563 1.433 . S
C565 N568 1.384 . S
C566 H557 0.929 . S
C566 C558 1.378 . S
C566 C561 1.350 . S
C567 H554 0.929 . S
C567 C559 1.433 . S
C567 N569 1.384 . S
N568 C564 1.427 . S
N568 C565 1.384 . S
N569 C561 1.427 . S
N569 C567 1.384 . S
H570 C576 0.930 . S
H571 C580 0.930 . S
H572 C585 0.929 . S
H573 C583 0.929 . S
H574 C578 0.929 . S
H575 C584 0.929 . S
C576 H570 0.930 . S
C576 C577 1.367 . S
C576 C584 1.378 . S
C577 C576 1.367 . S
C577 C585 1.433 . S
C578 H574 0.929 . S
C578 C580 1.378 . S
C578 C582 1.350 . S
C579 C582 1.463 . S
C579 C584 1.350 . S
C579 N587 1.427 . S
C580 H571 0.930 . S
C580 C578 1.378 . S
C580 C581 1.367 . S
C581 C580 1.367 . S
C581 C583 1.433 . S
C582 C578 1.350 . S
C582 C579 1.463 . S
C582 N586 1.427 . S
C583 H573 0.929 . S
C583 C581 1.433 . S
C583 N586 1.384 . S
C584 H575 0.929 . S
C584 C576 1.378 . S
C584 C579 1.350 . S
C585 H572 0.929 . S
C585 C577 1.433 . S
C585 N587 1.384 . S
N586 C582 1.427 . S
N586 C583 1.384 . S
N587 C579 1.427 . S
N587 C585 1.384 . S
H588 C594 0.930 . S
H589 C598 0.930 . S
H590 C603 0.929 . S
H591 C601 0.929 . S
H592 C596 0.929 . S
H593 C602 0.929 . S
C594 H588 0.930 . S
C594 C595 1.367 1_554 S
C594 C602 1.378 . S
C595 C594 1.367 1_556 S
C595 C603 1.433 . S
C596 H592 0.929 . S
C596 C598 1.378 . S
C596 C600 1.369 . S
C597 C600 1.462 . S
C597 C602 1.342 1_556 S
C597 N605 1.436 . S
C598 H589 0.930 . S
C598 C596 1.378 . S
C598 C599 1.367 1_556 S
C599 C598 1.367 1_554 S
C599 C601 1.433 . S
C600 C596 1.369 . S
C600 C597 1.462 . S
C600 N604 1.407 1_556 S
C601 H591 0.929 . S
C601 C599 1.433 . S
C601 N604 1.384 . S
C602 H593 0.929 . S
C602 C594 1.378 . S
C602 C597 1.342 1_554 S
C603 H590 0.929 . S
C603 C595 1.433 . S
C603 N605 1.384 . S
N604 C600 1.407 1_554 S
N604 C601 1.384 . S
N605 C597 1.436 . S
N605 C603 1.384 . S
H606 C612 0.930 . S
H607 C616 0.930 . S
H608 C621 0.929 . S
H609 C619 0.929 . S
H610 C614 0.929 . S
H611 C620 0.929 . S
C612 H606 0.930 . S
C612 C613 1.367 . S
C612 C620 1.378 . S
C613 C612 1.367 . S
C613 C621 1.433 . S
C614 H610 0.929 . S
C614 C616 1.378 . S
C614 C618 1.350 . S
C615 C618 1.463 . S
C615 C620 1.350 . S
C615 N623 1.427 . S
C616 H607 0.930 . S
C616 C614 1.378 . S
C616 C617 1.367 . S
C617 C616 1.367 . S
C617 C619 1.433 . S
C618 C614 1.350 . S
C618 C615 1.463 . S
C618 N622 1.427 . S
C619 H609 0.929 . S
C619 C617 1.433 . S
C619 N622 1.384 . S
C620 H611 0.929 . S
C620 C612 1.378 . S
C620 C615 1.350 . S
C621 H608 0.929 . S
C621 C613 1.433 . S
C621 N623 1.384 . S
N622 C618 1.427 . S
N622 C619 1.384 . S
N623 C615 1.427 . S
N623 C621 1.384 . S
H624 C630 0.930 . S
H625 C634 0.930 . S
H626 C639 0.929 . S
H627 C637 0.929 . S
H628 C632 0.929 . S
H629 C638 0.929 . S
C630 H624 0.930 . S
C630 C631 1.367 . S
C630 C638 1.378 . S
C631 C630 1.367 . S
C631 C639 1.433 . S
C632 H628 0.929 . S
C632 C634 1.378 . S
C632 C636 1.350 . S
C633 C636 1.463 . S
C633 C638 1.350 . S
C633 N641 1.427 . S
C634 H625 0.930 . S
C634 C632 1.378 . S
C634 C635 1.367 . S
C635 C634 1.367 . S
C635 C637 1.433 . S
C636 C632 1.350 . S
C636 C633 1.463 . S
C636 N640 1.427 . S
C637 H627 0.929 . S
C637 C635 1.433 . S
C637 N640 1.384 . S
C638 H629 0.929 . S
C638 C630 1.378 . S
C638 C633 1.350 . S
C639 H626 0.929 . S
C639 C631 1.433 . S
C639 N641 1.384 . S
N640 C636 1.427 . S
N640 C637 1.384 . S
N641 C633 1.427 . S
N641 C639 1.384 . S
H642 C648 0.930 . S
H643 C652 0.930 . S
H644 C657 0.929 . S
H645 C655 0.929 . S
H646 C650 0.929 . S
H647 C656 0.929 . S
C648 H642 0.930 . S
C648 C649 1.367 . S
C648 C656 1.378 . S
C649 C648 1.367 . S
C649 C657 1.433 . S
C650 H646 0.929 . S
C650 C652 1.378 . S
C650 C654 1.350 . S
C651 C654 1.463 . S
C651 C656 1.350 . S
C651 N659 1.427 . S
C652 H643 0.930 . S
C652 C650 1.378 . S
C652 C653 1.367 . S
C653 C652 1.367 . S
C653 C655 1.433 . S
C654 C650 1.350 . S
C654 C651 1.463 . S
C654 N658 1.427 . S
C655 H645 0.929 . S
C655 C653 1.433 . S
C655 N658 1.384 . S
C656 H647 0.929 . S
C656 C648 1.378 . S
C656 C651 1.350 . S
C657 H644 0.929 . S
C657 C649 1.433 . S
C657 N659 1.384 . S
N658 C654 1.427 . S
N658 C655 1.384 . S
N659 C651 1.427 . S
N659 C657 1.384 . S
H660 C666 0.930 . S
H661 C670 0.930 . S
H662 C675 0.929 . S
H663 C673 0.929 . S
H664 C668 0.929 . S
H665 C674 0.929 . S
C666 H660 0.930 . S
C666 C667 1.367 . S
C666 C674 1.378 . S
C667 C666 1.367 . S
C667 C675 1.433 . S
C668 H664 0.929 . S
C668 C670 1.378 . S
C668 C672 1.350 . S
C669 C672 1.463 . S
C669 C674 1.350 . S
C669 N677 1.427 . S
C670 H661 0.930 . S
C670 C668 1.378 . S
C670 C671 1.367 . S
C671 C670 1.367 . S
C671 C673 1.433 . S
C672 C668 1.350 . S
C672 C669 1.463 . S
C672 N676 1.427 . S
C673 H663 0.929 . S
C673 C671 1.433 . S
C673 N676 1.384 . S
C674 H665 0.929 . S
C674 C666 1.378 . S
C674 C669 1.350 . S
C675 H662 0.929 . S
C675 C667 1.433 . S
C675 N677 1.384 . S
N676 C672 1.427 . S
N676 C673 1.384 . S
N677 C669 1.427 . S
N677 C675 1.384 . S
H678 C684 0.930 . S
H679 C688 0.930 . S
H680 C693 0.929 . S
H681 C691 0.929 . S
H682 C686 0.929 . S
H683 C692 0.929 . S
C684 H678 0.930 . S
C684 C685 1.367 . S
C684 C692 1.378 . S
C685 C684 1.367 . S
C685 C693 1.433 . S
C686 H682 0.929 . S
C686 C688 1.378 . S
C686 C690 1.350 . S
C687 C690 1.463 . S
C687 C692 1.350 . S
C687 N695 1.427 . S
C688 H679 0.930 . S
C688 C686 1.378 . S
C688 C689 1.367 . S
C689 C688 1.367 . S
C689 C691 1.433 . S
C690 C686 1.350 . S
C690 C687 1.463 . S
C690 N694 1.427 . S
C691 H681 0.929 . S
C691 C689 1.433 . S
C691 N694 1.384 . S
C692 H683 0.929 . S
C692 C684 1.378 . S
C692 C687 1.350 . S
C693 H680 0.929 . S
C693 C685 1.433 . S
C693 N695 1.384 . S
N694 C690 1.427 . S
N694 C691 1.384 . S
N695 C687 1.427 . S
N695 C693 1.384 . S
H696 C702 0.930 . S
H697 C706 0.930 . S
H698 C711 0.929 . S
H699 C709 0.929 . S
H700 C704 0.929 . S
H701 C710 0.929 . S
C702 H696 0.930 . S
C702 C703 1.367 . S
C702 C710 1.378 . S
C703 C702 1.367 . S
C703 C711 1.433 . S
C704 H700 0.929 . S
C704 C706 1.378 . S
C704 C708 1.350 . S
C705 C708 1.463 . S
C705 C710 1.350 . S
C705 N713 1.427 . S
C706 H697 0.930 . S
C706 C704 1.378 . S
C706 C707 1.367 . S
C707 C706 1.367 . S
C707 C709 1.433 . S
C708 C704 1.350 . S
C708 C705 1.463 . S
C708 N712 1.427 . S
C709 H699 0.929 . S
C709 C707 1.433 . S
C709 N712 1.384 . S
C710 H701 0.929 . S
C710 C702 1.378 . S
C710 C705 1.350 . S
C711 H698 0.929 . S
C711 C703 1.433 . S
C711 N713 1.384 . S
N712 C708 1.427 . S
N712 C709 1.384 . S
N713 C705 1.427 . S
N713 C711 1.384 . S
H714 C720 0.930 . S
H715 C724 0.930 . S
H716 C729 0.929 . S
H717 C727 0.929 . S
H718 C722 0.929 . S
H719 C728 0.929 . S
C720 H714 0.930 . S
C720 C721 1.367 . S
C720 C728 1.378 . S
C721 C720 1.367 . S
C721 C729 1.433 . S
C722 H718 0.929 . S
C722 C724 1.378 . S
C722 C726 1.350 . S
C723 C726 1.463 . S
C723 C728 1.350 . S
C723 N731 1.427 . S
C724 H715 0.930 . S
C724 C722 1.378 . S
C724 C725 1.367 . S
C725 C724 1.367 . S
C725 C727 1.433 . S
C726 C722 1.350 . S
C726 C723 1.463 . S
C726 N730 1.427 . S
C727 H717 0.929 . S
C727 C725 1.433 . S
C727 N730 1.384 . S
C728 H719 0.929 . S
C728 C720 1.378 . S
C728 C723 1.350 . S
C729 H716 0.929 . S
C729 C721 1.433 . S
C729 N731 1.384 . S
N730 C726 1.427 . S
N730 C727 1.384 . S
N731 C723 1.427 . S
N731 C729 1.384 . S
H732 C738 0.930 . S
H733 C742 0.930 . S
H734 C747 0.929 . S
H735 C745 0.929 . S
H736 C740 0.929 . S
H737 C746 0.929 . S
C738 H732 0.930 . S
C738 C739 1.367 . S
C738 C746 1.378 . S
C739 C738 1.367 . S
C739 C747 1.433 . S
C740 H736 0.929 . S
C740 C742 1.378 . S
C740 C744 1.350 . S
C741 C744 1.463 . S
C741 C746 1.350 . S
C741 N749 1.427 . S
C742 H733 0.930 . S
C742 C740 1.378 . S
C742 C743 1.367 . S
C743 C742 1.367 . S
C743 C745 1.433 . S
C744 C740 1.350 . S
C744 C741 1.463 . S
C744 N748 1.427 . S
C745 H735 0.929 . S
C745 C743 1.433 . S
C745 N748 1.384 . S
C746 H737 0.929 . S
C746 C738 1.378 . S
C746 C741 1.350 . S
C747 H734 0.929 . S
C747 C739 1.433 . S
C747 N749 1.384 . S
N748 C744 1.427 . S
N748 C745 1.384 . S
N749 C741 1.427 . S
N749 C747 1.384 . S
H750 C756 0.930 . S
H751 C760 0.930 . S
H752 C765 0.929 . S
H753 C763 0.929 . S
H754 C758 0.929 . S
H755 C764 0.929 . S
C756 H750 0.930 . S
C756 C757 1.367 . S
C756 C764 1.378 . S
C757 C756 1.367 . S
C757 C765 1.433 . S
C758 H754 0.929 . S
C758 C760 1.378 . S
C758 C762 1.350 . S
C759 C762 1.463 . S
C759 C764 1.350 . S
C759 N767 1.427 . S
C760 H751 0.930 . S
C760 C758 1.378 . S
C760 C761 1.367 . S
C761 C760 1.367 . S
C761 C763 1.433 . S
C762 C758 1.350 . S
C762 C759 1.463 . S
C762 N766 1.427 . S
C763 H753 0.929 . S
C763 C761 1.433 . S
C763 N766 1.384 . S
C764 H755 0.929 . S
C764 C756 1.378 . S
C764 C759 1.350 . S
C765 H752 0.929 . S
C765 C757 1.433 . S
C765 N767 1.384 . S
N766 C762 1.427 . S
N766 C763 1.384 . S
N767 C759 1.427 . S
N767 C765 1.384 . S
H768 C774 0.930 . S
H769 C778 0.930 . S
H770 C783 0.929 . S
H771 C781 0.929 . S
H772 C776 0.929 . S
H773 C782 0.929 . S
C774 H768 0.930 . S
C774 C775 1.367 . S
C774 C782 1.378 . S
C775 C774 1.367 . S
C775 C783 1.433 . S
C776 H772 0.929 . S
C776 C778 1.378 . S
C776 C780 1.350 . S
C777 C780 1.463 . S
C777 C782 1.350 . S
C777 N785 1.427 . S
C778 H769 0.930 . S
C778 C776 1.378 . S
C778 C779 1.367 . S
C779 C778 1.367 . S
C779 C781 1.433 . S
C780 C776 1.350 . S
C780 C777 1.463 . S
C780 N784 1.427 . S
C781 H771 0.929 . S
C781 C779 1.433 . S
C781 N784 1.384 . S
C782 H773 0.929 . S
C782 C774 1.378 . S
C782 C777 1.350 . S
C783 H770 0.929 . S
C783 C775 1.433 . S
C783 N785 1.384 . S
N784 C780 1.427 . S
N784 C781 1.384 . S
N785 C777 1.427 . S
N785 C783 1.384 . S
H786 C792 0.930 . S
H787 C796 0.930 . S
H788 C801 0.929 . S
H789 C799 0.929 . S
H790 C794 0.929 . S
H791 C800 0.929 . S
C792 H786 0.930 . S
C792 C793 1.367 . S
C792 C800 1.378 . S
C793 C792 1.367 . S
C793 C801 1.433 . S
C794 H790 0.929 . S
C794 C796 1.378 . S
C794 C798 1.350 . S
C795 C798 1.463 . S
C795 C800 1.350 . S
C795 N803 1.427 . S
C796 H787 0.930 . S
C796 C794 1.378 . S
C796 C797 1.367 . S
C797 C796 1.367 . S
C797 C799 1.433 . S
C798 C794 1.350 . S
C798 C795 1.463 . S
C798 N802 1.427 . S
C799 H789 0.929 . S
C799 C797 1.433 . S
C799 N802 1.384 . S
C800 H791 0.929 . S
C800 C792 1.378 . S
C800 C795 1.350 . S
C801 H788 0.929 . S
C801 C793 1.433 . S
C801 N803 1.384 . S
N802 C798 1.427 . S
N802 C799 1.384 . S
N803 C795 1.427 . S
N803 C801 1.384 . S
H804 C810 0.930 . S
H805 C814 0.930 . S
H806 C819 0.929 . S
H807 C817 0.929 . S
H808 C812 0.929 . S
H809 C818 0.929 . S
C810 H804 0.930 . S
C810 C811 1.367 . S
C810 C818 1.378 . S
C811 C810 1.367 . S
C811 C819 1.433 . S
C812 H808 0.929 . S
C812 C814 1.378 . S
C812 C816 1.350 . S
C813 C816 1.463 . S
C813 C818 1.350 . S
C813 N821 1.427 . S
C814 H805 0.930 . S
C814 C812 1.378 . S
C814 C815 1.367 . S
C815 C814 1.367 . S
C815 C817 1.433 . S
C816 C812 1.350 . S
C816 C813 1.463 . S
C816 N820 1.427 . S
C817 H807 0.929 . S
C817 C815 1.433 . S
C817 N820 1.384 . S
C818 H809 0.929 . S
C818 C810 1.378 . S
C818 C813 1.350 . S
C819 H806 0.929 . S
C819 C811 1.433 . S
C819 N821 1.384 . S
N820 C816 1.427 . S
N820 C817 1.384 . S
N821 C813 1.427 . S
N821 C819 1.384 . S
H822 C828 0.930 . S
H823 C832 0.930 . S
H824 C837 0.929 . S
H825 C835 0.929 . S
H826 C830 0.929 . S
H827 C836 0.929 . S
C828 H822 0.930 . S
C828 C829 1.367 . S
C828 C836 1.378 . S
C829 C828 1.367 . S
C829 C837 1.433 1_565 S
C830 H826 0.929 . S
C830 C832 1.378 . S
C830 C834 1.350 . S
C831 C834 1.463 1_565 S
C831 C836 1.350 . S
C831 N839 1.427 1_565 S
C832 H823 0.930 . S
C832 C830 1.378 . S
C832 C833 1.367 . S
C833 C832 1.367 . S
C833 C835 1.433 1_545 S
C834 C830 1.350 . S
C834 C831 1.463 1_545 S
C834 N838 1.427 1_545 S
C835 H825 0.929 . S
C835 C833 1.433 1_565 S
C835 N838 1.384 . S
C836 H827 0.929 . S
C836 C828 1.378 . S
C836 C831 1.350 . S
C837 H824 0.929 . S
C837 C829 1.433 1_545 S
C837 N839 1.384 . S
N838 C834 1.427 1_565 S
N838 C835 1.384 . S
N839 C831 1.427 1_545 S
N839 C837 1.384 . S
H840 C846 0.930 . S
H841 C850 0.930 . S
H842 C855 0.929 . S
H843 C853 0.929 . S
H844 C848 0.929 . S
H845 C854 0.929 . S
C846 H840 0.930 . S
C846 C847 1.367 . S
C846 C854 1.378 . S
C847 C846 1.367 . S
C847 C855 1.433 . S
C848 H844 0.929 . S
C848 C850 1.378 . S
C848 C852 1.350 . S
C849 C852 1.463 . S
C849 C854 1.350 . S
C849 N857 1.427 . S
C850 H841 0.930 . S
C850 C848 1.378 . S
C850 C851 1.367 . S
C851 C850 1.367 . S
C851 C853 1.433 . S
C852 C848 1.350 . S
C852 C849 1.463 . S
C852 N856 1.427 . S
C853 H843 0.929 . S
C853 C851 1.433 . S
C853 N856 1.384 . S
C854 H845 0.929 . S
C854 C846 1.378 . S
C854 C849 1.350 . S
C855 H842 0.929 . S
C855 C847 1.433 . S
C855 N857 1.384 . S
N856 C852 1.427 . S
N856 C853 1.384 . S
N857 C849 1.427 . S
N857 C855 1.384 . S
H858 C864 0.930 . S
H859 C868 0.930 . S
H860 C873 0.929 . S
H861 C871 0.929 . S
H862 C866 0.929 . S
H863 C872 0.929 . S
C864 H858 0.930 . S
C864 C865 1.367 . S
C864 C872 1.378 . S
C865 C864 1.367 . S
C865 C873 1.433 . S
C866 H862 0.929 . S
C866 C868 1.378 . S
C866 C870 1.350 . S
C867 C870 1.463 . S
C867 C872 1.350 . S
C867 N875 1.427 . S
C868 H859 0.930 . S
C868 C866 1.378 . S
C868 C869 1.367 . S
C869 C868 1.367 . S
C869 C871 1.433 . S
C870 C866 1.350 . S
C870 C867 1.463 . S
C870 N874 1.427 . S
C871 H861 0.929 . S
C871 C869 1.433 . S
C871 N874 1.384 . S
C872 H863 0.929 . S
C872 C864 1.378 . S
C872 C867 1.350 . S
C873 H860 0.929 . S
C873 C865 1.433 . S
C873 N875 1.384 . S
N874 C870 1.427 . S
N874 C871 1.384 . S
N875 C867 1.427 . S
N875 C873 1.384 . S
H876 C882 0.930 . S
H877 C886 0.930 . S
H878 C891 0.929 . S
H879 C889 0.929 . S
H880 C884 0.929 . S
H881 C890 0.929 . S
C882 H876 0.930 . S
C882 C883 1.367 . S
C882 C890 1.378 . S
C883 C882 1.367 . S
C883 C891 1.433 . S
C884 H880 0.929 . S
C884 C886 1.378 . S
C884 C888 1.350 . S
C885 C888 1.463 . S
C885 C890 1.350 . S
C885 N893 1.427 . S
C886 H877 0.930 . S
C886 C884 1.378 . S
C886 C887 1.367 . S
C887 C886 1.367 . S
C887 C889 1.433 . S
C888 C884 1.350 . S
C888 C885 1.463 . S
C888 N892 1.427 . S
C889 H879 0.929 . S
C889 C887 1.433 . S
C889 N892 1.384 . S
C890 H881 0.929 . S
C890 C882 1.378 . S
C890 C885 1.350 . S
C891 H878 0.929 . S
C891 C883 1.433 . S
C891 N893 1.384 . S
N892 C888 1.427 . S
N892 C889 1.384 . S
N893 C885 1.427 . S
N893 C891 1.384 . S
H894 C900 0.930 . S
H895 C904 0.930 . S
H896 C909 0.929 . S
H897 C907 0.929 . S
H898 C902 0.929 . S
H899 C908 0.929 . S
C900 H894 0.930 . S
C900 C901 1.367 . S
C900 C908 1.378 . S
C901 C900 1.367 . S
C901 C909 1.433 . S
C902 H898 0.929 . S
C902 C904 1.378 . S
C902 C906 1.350 . S
C903 C906 1.463 . S
C903 C908 1.350 . S
C903 N911 1.427 . S
C904 H895 0.930 . S
C904 C902 1.378 . S
C904 C905 1.367 . S
C905 C904 1.367 . S
C905 C907 1.433 . S
C906 C902 1.350 . S
C906 C903 1.463 . S
C906 N910 1.427 . S
C907 H897 0.929 . S
C907 C905 1.433 . S
C907 N910 1.384 . S
C908 H899 0.929 . S
C908 C900 1.378 . S
C908 C903 1.350 . S
C909 H896 0.929 . S
C909 C901 1.433 . S
C909 N911 1.384 . S
N910 C906 1.427 . S
N910 C907 1.384 . S
N911 C903 1.427 . S
N911 C909 1.384 . S
C271 C84 1.497 . S
C275 C7 1.482 . S
C289 C51 1.566 . S
C293 C18 1.615 . S
C307 C62 1.791 . S
C311 C29 1.741 . S
C325 C73 1.189 . S
C329 C40 1.253 . S
C343 C95 0.557 . S
C347 C139 0.462 . S
C361 C150 1.256 . S
C365 C106 1.134 . S
C379 C117 1.375 . S
C383 C161 1.380 . S
C397 C172 1.315 . S
C401 C128 1.331 . S
C415 C183 1.501 . S
C419 C238 1.442 . S
C433 C194 1.630 . S
C437 C216 1.640 . S
C451 C205 1.784 . S
C455 C249 1.687 . S
C469 C260 1.383 . S
C473 C227 1.389 . S
C487 C8 1.817 . S
C491 C173 1.807 . S
C505 C19 1.765 . S
C509 C137 1.657 . S
C523 C151 1.653 . S
C527 C27 1.304 . S
C541 C162 1.558 . S
C545 C41 1.588 . S
C559 C49 1.455 . S
C563 C104 1.185 . S
C577 C60 1.632 . S
C581 C118 1.818 . S
C595 C126 1.547 . S
C599 C71 1.177 1_554 S
C613 C85 1.728 . S
C617 C93 1.649 . S
C631 C129 1.741 . S
C635 C140 1.771 . S
C649 C228 1.804 . S
C653 C181 1.746 . S
C667 C192 1.448 . S
C671 C239 1.585 . S
C685 C203 1.551 . S
C689 C214 1.458 . S
C703 C159 1.446 . S
C707 C107 1.500 . S
C721 C63 1.836 . S
C725 C206 1.828 . S
C739 C258 1.207 . S
C743 C74 1.497 . S
C757 C82 1.584 . S
C761 C184 1.731 . S
C775 C195 1.475 . S
C779 C52 1.489 . S
C793 C236 1.224 . S
C797 C38 1.621 . S
C811 C5 1.067 . S
C815 C217 1.288 . S
C829 C16 1.474 . S
C833 C247 1.380 . S
C847 C225 1.433 . S
C851 C30 1.704 . S
C865 C250 1.740 . S
C869 C261 1.727 . S
C883 C96 2.118 . S
C887 C148 2.073 . S
C901 C170 2.034 . S
C905 C115 1.984 . S
