# Generated by pormake.
# Topology svo, (7)-cn, num edge types: 1
# Building blocks:
#     Node 0, Type 0, BuildingBlock: NUHQUE_clean_sbu_2, # of connection points: 7
#     Node 1, Type 0, BuildingBlock: NUHQUE_clean_sbu_2, # of connection points: 7
#     Node 2, Type 0, BuildingBlock: NUHQUE_clean_sbu_2, # of connection points: 7
#     Node 3, Type 0, BuildingBlock: NUHQUE_clean_sbu_2, # of connection points: 7
#     Node 4, Type 0, BuildingBlock: NUHQUE_clean_sbu_2, # of connection points: 7
#     Node 5, Type 0, BuildingBlock: NUHQUE_clean_sbu_2, # of connection points: 7
#     Node 6, Type 0, BuildingBlock: NUHQUE_clean_sbu_2, # of connection points: 7
#     Node 7, Type 0, BuildingBlock: NUHQUE_clean_sbu_2, # of connection points: 7
#     Node 8, Type 0, BuildingBlock: NUHQUE_clean_sbu_2, # of connection points: 7
#     Node 9, Type 0, BuildingBlock: NUHQUE_clean_sbu_2, # of connection points: 7
#     Node 10, Type 0, BuildingBlock: NUHQUE_clean_sbu_2, # of connection points: 7
#     Node 11, Type 0, BuildingBlock: NUHQUE_clean_sbu_2, # of connection points: 7
#     Node 12, Type 0, BuildingBlock: NUHQUE_clean_sbu_2, # of connection points: 7
#     Node 13, Type 0, BuildingBlock: NUHQUE_clean_sbu_2, # of connection points: 7
#     Node 14, Type 0, BuildingBlock: NUHQUE_clean_sbu_2, # of connection points: 7
#     Node 15, Type 0, BuildingBlock: NUHQUE_clean_sbu_2, # of connection points: 7
#     Edge 16, Type (0, 0), BuildingBlock: KIFKEQ_clean_linker_1, # of connection points: 2
#     Edge 17, Type (0, 0), BuildingBlock: KIFKEQ_clean_linker_1, # of connection points: 2
#     Edge 18, Type (0, 0), BuildingBlock: KIFKEQ_clean_linker_1, # of connection points: 2
#     Edge 19, Type (0, 0), BuildingBlock: KIFKEQ_clean_linker_1, # of connection points: 2
#     Edge 20, Type (0, 0), BuildingBlock: KIFKEQ_clean_linker_1, # of connection points: 2
#     Edge 21, Type (0, 0), BuildingBlock: KIFKEQ_clean_linker_1, # of connection points: 2
#     Edge 22, Type (0, 0), BuildingBlock: KIFKEQ_clean_linker_1, # of connection points: 2
#     Edge 23, Type (0, 0), BuildingBlock: KIFKEQ_clean_linker_1, # of connection points: 2
#     Edge 24, Type (0, 0), BuildingBlock: KIFKEQ_clean_linker_1, # of connection points: 2
#     Edge 25, Type (0, 0), BuildingBlock: KIFKEQ_clean_linker_1, # of connection points: 2
#     Edge 26, Type (0, 0), BuildingBlock: KIFKEQ_clean_linker_1, # of connection points: 2
#     Edge 27, Type (0, 0), BuildingBlock: KIFKEQ_clean_linker_1, # of connection points: 2
#     Edge 28, Type (0, 0), BuildingBlock: KIFKEQ_clean_linker_1, # of connection points: 2
#     Edge 29, Type (0, 0), BuildingBlock: KIFKEQ_clean_linker_1, # of connection points: 2
#     Edge 30, Type (0, 0), BuildingBlock: KIFKEQ_clean_linker_1, # of connection points: 2
#     Edge 31, Type (0, 0), BuildingBlock: KIFKEQ_clean_linker_1, # of connection points: 2
#     Edge 32, Type (0, 0), BuildingBlock: KIFKEQ_clean_linker_1, # of connection points: 2
#     Edge 33, Type (0, 0), BuildingBlock: KIFKEQ_clean_linker_1, # of connection points: 2
#     Edge 34, Type (0, 0), BuildingBlock: KIFKEQ_clean_linker_1, # of connection points: 2
#     Edge 35, Type (0, 0), BuildingBlock: KIFKEQ_clean_linker_1, # of connection points: 2
#     Edge 36, Type (0, 0), BuildingBlock: KIFKEQ_clean_linker_1, # of connection points: 2
#     Edge 37, Type (0, 0), BuildingBlock: KIFKEQ_clean_linker_1, # of connection points: 2
#     Edge 38, Type (0, 0), BuildingBlock: KIFKEQ_clean_linker_1, # of connection points: 2
#     Edge 39, Type (0, 0), BuildingBlock: KIFKEQ_clean_linker_1, # of connection points: 2
#     Edge 40, Type (0, 0), BuildingBlock: KIFKEQ_clean_linker_1, # of connection points: 2
#     Edge 41, Type (0, 0), BuildingBlock: KIFKEQ_clean_linker_1, # of connection points: 2
#     Edge 42, Type (0, 0), BuildingBlock: KIFKEQ_clean_linker_1, # of connection points: 2
#     Edge 43, Type (0, 0), BuildingBlock: KIFKEQ_clean_linker_1, # of connection points: 2
#     Edge 44, Type (0, 0), BuildingBlock: KIFKEQ_clean_linker_1, # of connection points: 2
#     Edge 45, Type (0, 0), BuildingBlock: KIFKEQ_clean_linker_1, # of connection points: 2
#     Edge 46, Type (0, 0), BuildingBlock: KIFKEQ_clean_linker_1, # of connection points: 2
#     Edge 47, Type (0, 0), BuildingBlock: KIFKEQ_clean_linker_1, # of connection points: 2
#     Edge 48, Type (0, 0), BuildingBlock: KIFKEQ_clean_linker_1, # of connection points: 2
#     Edge 49, Type (0, 0), BuildingBlock: KIFKEQ_clean_linker_1, # of connection points: 2
#     Edge 50, Type (0, 0), BuildingBlock: KIFKEQ_clean_linker_1, # of connection points: 2
#     Edge 51, Type (0, 0), BuildingBlock: KIFKEQ_clean_linker_1, # of connection points: 2
#     Edge 52, Type (0, 0), BuildingBlock: KIFKEQ_clean_linker_1, # of connection points: 2
#     Edge 53, Type (0, 0), BuildingBlock: KIFKEQ_clean_linker_1, # of connection points: 2
#     Edge 54, Type (0, 0), BuildingBlock: KIFKEQ_clean_linker_1, # of connection points: 2
#     Edge 55, Type (0, 0), BuildingBlock: KIFKEQ_clean_linker_1, # of connection points: 2
#     Edge 56, Type (0, 0), BuildingBlock: KIFKEQ_clean_linker_1, # of connection points: 2
#     Edge 57, Type (0, 0), BuildingBlock: KIFKEQ_clean_linker_1, # of connection points: 2
#     Edge 58, Type (0, 0), BuildingBlock: KIFKEQ_clean_linker_1, # of connection points: 2
#     Edge 59, Type (0, 0), BuildingBlock: KIFKEQ_clean_linker_1, # of connection points: 2
#     Edge 60, Type (0, 0), BuildingBlock: KIFKEQ_clean_linker_1, # of connection points: 2
#     Edge 61, Type (0, 0), BuildingBlock: KIFKEQ_clean_linker_1, # of connection points: 2
#     Edge 62, Type (0, 0), BuildingBlock: KIFKEQ_clean_linker_1, # of connection points: 2
#     Edge 63, Type (0, 0), BuildingBlock: KIFKEQ_clean_linker_1, # of connection points: 2
#     Edge 64, Type (0, 0), BuildingBlock: KIFKEQ_clean_linker_1, # of connection points: 2
#     Edge 65, Type (0, 0), BuildingBlock: KIFKEQ_clean_linker_1, # of connection points: 2
#     Edge 66, Type (0, 0), BuildingBlock: KIFKEQ_clean_linker_1, # of connection points: 2
#     Edge 67, Type (0, 0), BuildingBlock: KIFKEQ_clean_linker_1, # of connection points: 2
#     Edge 68, Type (0, 0), BuildingBlock: KIFKEQ_clean_linker_1, # of connection points: 2
#     Edge 69, Type (0, 0), BuildingBlock: KIFKEQ_clean_linker_1, # of connection points: 2
#     Edge 70, Type (0, 0), BuildingBlock: KIFKEQ_clean_linker_1, # of connection points: 2
#     Edge 71, Type (0, 0), BuildingBlock: KIFKEQ_clean_linker_1, # of connection points: 2
# Relax obj value: 0.166
# Max RMSD: 0.275
# Mean RMSD: 0.275
data_MOF--net-svo--node1-NUHQUE_clean_sbu_2--edge1-KIFKEQ_clean_linker_1
_symmetry_space_group_name_H-M    P1
_symmetry_Int_Tables_number       1
_symmetry_cell_setting            triclinic
loop_
_symmetry_equiv_pos_as_xyz
'x, y, z'
_cell_length_a     38.758708
_cell_length_b     38.795708
_cell_length_c     55.73046
_cell_angle_alpha  89.923781
_cell_angle_beta   89.98433
_cell_angle_gamma 89.711853
loop_
_atom_site_label
_atom_site_type_symbol
_atom_site_fract_x
_atom_site_fract_y
_atom_site_fract_z
_atom_type_partial_charge
O0 O 0.21156 0.19891 0.11739 0.0
Tb1 Tb 0.22678 0.25177 0.12411 0.0
Eu2 Eu 0.19214 0.33433 0.13402 0.0
C3 C 0.19584 0.17971 0.13344 0.0
O4 O 0.18608 0.19346 0.15387 0.0
C5 C 0.22191 0.28509 0.17315 0.0
O6 O 0.19963 0.39169 0.13406 0.0
C7 C 0.12743 0.3191 0.14066 0.0
C8 C 0.22935 0.40453 0.12717 0.0
O9 O 0.25389 0.38341 0.12004 0.0
C10 C 0.20426 0.30159 0.08286 0.0
C11 C 0.09209 0.32387 0.13083 0.0
C12 C 0.06952 0.29547 0.13034 0.0
C13 C 0.03522 0.29969 0.12272 0.0
C14 C 0.02355 0.33228 0.11563 0.0
C15 C 0.04452 0.3615 0.11777 0.0
C16 C 0.07926 0.35694 0.12474 0.0
O17 O 0.20869 0.26007 0.16042 0.0
O18 O 0.22683 0.31543 0.16342 0.0
O19 O 0.27691 0.27875 0.1222 0.0
O20 O 0.27592 0.22414 0.12242 0.0
C21 C 0.29598 0.25085 0.12176 0.0
O22 O 0.20975 0.32923 0.09581 0.0
O23 O 0.19995 0.27101 0.09257 0.0
O24 O 0.14246 0.3463 0.14993 0.0
O25 O 0.14893 0.29875 0.12902 0.0
H26 H 0.0783 0.27041 0.13651 0.0
H27 H 0.99699 0.33505 0.10981 0.0
H28 H 0.09576 0.37921 0.12663 0.0
O29 O 0.77503 0.22885 0.12415 0.0
Tb30 Tb 0.7219 0.24549 0.12999 0.0
Eu31 Eu 0.63511 0.22494 0.13775 0.0
C32 C 0.79645 0.22279 0.14202 0.0
O33 O 0.78458 0.22279 0.1641 0.0
C34 C 0.68538 0.24766 0.17796 0.0
O35 O 0.5775 0.23664 0.13619 0.0
C36 C 0.64674 0.15982 0.14667 0.0
C37 C 0.55699 0.22029 0.1212 0.0
O38 O 0.57052 0.19705 0.10682 0.0
C39 C 0.67328 0.22616 0.08731 0.0
C40 C 0.6396 0.12477 0.13731 0.0
C41 C 0.66646 0.10004 0.13586 0.0
C42 C 0.65953 0.06607 0.1283 0.0
C43 C 0.62559 0.05718 0.12232 0.0
C44 C 0.5986 0.08094 0.12465 0.0
C45 C 0.60562 0.11475 0.1319 0.0
O46 O 0.70875 0.22982 0.16622 0.0
O47 O 0.65739 0.25841 0.16692 0.0
O48 O 0.75081 0.29348 0.13049 0.0
O49 O 0.69693 0.29604 0.12392 0.0
C50 C 0.7251 0.31412 0.12618 0.0
O51 O 0.64583 0.23755 0.09888 0.0
O52 O 0.70236 0.21888 0.09852 0.0
O53 O 0.62048 0.17731 0.15542 0.0
O54 O 0.66825 0.17918 0.1345 0.0
H55 H 0.69246 0.10701 0.14104 0.0
H56 H 0.61964 0.03074 0.1176 0.0
H57 H 0.5844 0.13281 0.13397 0.0
O58 O 0.75693 0.80852 0.12827 0.0
Tb59 Tb 0.74462 0.75382 0.12532 0.0
Eu60 Eu 0.79874 0.64321 0.11921 0.0
C61 C 0.74406 0.82718 0.14591 0.0
O62 O 0.72724 0.81149 0.1632 0.0
C63 C 0.7692 0.6928 0.15764 0.0
O64 O 0.78789 0.58631 0.11468 0.0
C65 C 0.86322 0.6599 0.11504 0.0
C66 C 0.75915 0.5729 0.12309 0.0
O67 O 0.7367 0.59329 0.1337 0.0
C68 C 0.77177 0.70539 0.08646 0.0
C69 C 0.89891 0.64703 0.11322 0.0
C70 C 0.92587 0.67067 0.11641 0.0
C71 C 0.96034 0.65982 0.11498 0.0
C72 C 0.96775 0.62512 0.11024 0.0
C73 C 0.94123 0.60094 0.10784 0.0
C74 C 0.90661 0.61195 0.10938 0.0
O75 O 0.77816 0.71428 0.14055 0.0
O76 O 0.7778 0.66009 0.1552 0.0
O77 O 0.69809 0.7469 0.14716 0.0
O78 O 0.69419 0.74618 0.10902 0.0
C79 C 0.677 0.74417 0.12903 0.0
O80 O 0.76242 0.68213 0.10235 0.0
O81 O 0.76335 0.73795 0.09022 0.0
O82 O 0.84775 0.65577 0.13583 0.0
O83 O 0.84274 0.65545 0.09645 0.0
H84 H 0.92002 0.69751 0.12012 0.0
H85 H 0.99442 0.6165 0.10984 0.0
H86 H 0.8859 0.59341 0.10778 0.0
O87 O 0.21174 0.74972 0.13742 0.0
Tb88 Tb 0.26356 0.72991 0.13187 0.0
Eu89 Eu 0.34748 0.80812 0.12599 0.0
C90 C 0.19222 0.73947 0.15531 0.0
O91 O 0.20602 0.72094 0.1726 0.0
C92 C 0.30828 0.77489 0.16652 0.0
O93 O 0.40426 0.79991 0.1328 0.0
C94 C 0.33245 0.8683 0.10838 0.0
C95 C 0.41866 0.77101 0.12545 0.0
O96 O 0.39929 0.74807 0.11466 0.0
C97 C 0.29949 0.76736 0.08983 0.0
C98 C 0.3356 0.90532 0.11421 0.0
C99 C 0.3054 0.92516 0.11706 0.0
C100 C 0.30754 0.9603 0.12245 0.0
C101 C 0.3399 0.97592 0.12412 0.0
C102 C 0.37046 0.95682 0.12119 0.0
C103 C 0.36806 0.92127 0.1164 0.0
O104 O 0.30793 0.75393 0.14811 0.0
O105 O 0.32779 0.80213 0.16398 0.0
O106 O 0.25857 0.68082 0.15074 0.0
O107 O 0.27053 0.6807 0.11344 0.0
C108 C 0.26465 0.66147 0.13215 0.0
O109 O 0.32676 0.76399 0.10374 0.0
O110 O 0.27036 0.75252 0.09633 0.0
O111 O 0.31097 0.85041 0.12166 0.0
O112 O 0.36077 0.85124 0.10287 0.0
H113 H 0.28027 0.91325 0.11531 0.0
H114 H 0.34102 1.00351 0.12705 0.0
H115 H 0.39139 0.90605 0.11447 0.0
O116 O 0.25334 0.81907 0.36188 0.0
Tb117 Tb 0.26382 0.76434 0.36369 0.0
Eu118 Eu 0.19357 0.67171 0.3742 0.0
C119 C 0.23115 0.83389 0.34728 0.0
O120 O 0.21405 0.81558 0.33151 0.0
C121 C 0.21794 0.71205 0.33124 0.0
O122 O 0.20052 0.61425 0.37236 0.0
C123 C 0.13526 0.69167 0.3924 0.0
C124 C 0.22687 0.60039 0.38371 0.0
O125 O 0.24739 0.62053 0.39607 0.0
C126 C 0.23428 0.72491 0.40648 0.0
C127 C 0.09812 0.6846 0.39166 0.0
C128 C 0.07502 0.71246 0.39336 0.0
C129 C 0.03943 0.70674 0.39303 0.0
C130 C 0.02694 0.67316 0.39046 0.0
C131 C 0.04966 0.64516 0.38828 0.0
C132 C 0.0854 0.65088 0.38915 0.0
O133 O 0.22664 0.72714 0.35134 0.0
O134 O 0.19899 0.68456 0.33458 0.0
O135 O 0.31081 0.75714 0.34234 0.0
O136 O 0.31236 0.74872 0.38013 0.0
C137 C 0.33041 0.7487 0.36046 0.0
O138 O 0.2386 0.69884 0.39164 0.0
O139 O 0.24619 0.75541 0.40022 0.0
O140 O 0.14861 0.70537 0.37296 0.0
O141 O 0.15529 0.66842 0.40258 0.0
H142 H 0.0847 0.73851 0.39522 0.0
H143 H 0.99931 0.66886 0.39002 0.0
H144 H 0.10316 0.62935 0.38742 0.0
O145 O 0.227 0.25861 0.35763 0.0
Tb146 Tb 0.27797 0.2778 0.36662 0.0
Eu147 Eu 0.36757 0.20128 0.37367 0.0
C148 C 0.21035 0.26922 0.33843 0.0
O149 O 0.22642 0.28861 0.32274 0.0
C150 C 0.3276 0.23457 0.33364 0.0
O151 O 0.42381 0.2121 0.36744 0.0
C152 C 0.35552 0.13896 0.38817 0.0
C153 C 0.43761 0.24029 0.37618 0.0
O154 O 0.41808 0.26164 0.38852 0.0
C155 C 0.31316 0.23716 0.40756 0.0
C156 C 0.36025 0.10342 0.37906 0.0
C157 C 0.33115 0.08492 0.37136 0.0
C158 C 0.33473 0.05168 0.36184 0.0
C159 C 0.36763 0.03666 0.36052 0.0
C160 C 0.3969 0.05428 0.36852 0.0
C161 C 0.39312 0.08773 0.37787 0.0
O162 O 0.32459 0.25452 0.35245 0.0
O163 O 0.34909 0.20857 0.33571 0.0
O164 O 0.27635 0.32871 0.34984 0.0
O165 O 0.27906 0.32498 0.38792 0.0
C166 C 0.27713 0.34609 0.36978 0.0
O167 O 0.34141 0.24321 0.39523 0.0
O168 O 0.28391 0.25214 0.40112 0.0
O169 O 0.33274 0.15795 0.37667 0.0
O170 O 0.38318 0.15626 0.39451 0.0
H171 H 0.30568 0.09648 0.37257 0.0
H172 H 0.37033 0.01044 0.35404 0.0
H173 H 0.41576 0.10156 0.38385 0.0
O174 O 0.77695 0.20398 0.36266 0.0
Tb175 Tb 0.76284 0.2579 0.36746 0.0
Eu176 Eu 0.81552 0.36493 0.37544 0.0
C177 C 0.77056 0.18743 0.34257 0.0
O178 O 0.75833 0.20463 0.32411 0.0
C179 C 0.78224 0.32129 0.33653 0.0
O180 O 0.80909 0.42294 0.37905 0.0
C181 C 0.87969 0.34529 0.37547 0.0
C182 C 0.77873 0.43711 0.3834 0.0
O183 O 0.75196 0.41692 0.38644 0.0
C184 C 0.79406 0.30101 0.40847 0.0
C185 C 0.91446 0.35894 0.37118 0.0
C186 C 0.94053 0.33647 0.36299 0.0
C187 C 0.97337 0.34917 0.35714 0.0
C188 C 0.9798 0.38449 0.35983 0.0
C189 C 0.95418 0.40703 0.36815 0.0
C190 C 0.92146 0.39422 0.37394 0.0
O191 O 0.79325 0.29944 0.35277 0.0
O192 O 0.79016 0.35379 0.33976 0.0
O193 O 0.71464 0.26371 0.34738 0.0
O194 O 0.71367 0.26556 0.38564 0.0
C195 C 0.69498 0.267 0.36624 0.0
O196 O 0.78178 0.3276 0.39623 0.0
O197 O 0.78512 0.26946 0.4022 0.0
O198 O 0.8597 0.34364 0.3565 0.0
O199 O 0.86343 0.3558 0.39491 0.0
H200 H 0.93503 0.30929 0.36074 0.0
H201 H 0.00529 0.39456 0.35601 0.0
H202 H 0.9014 0.4117 0.38008 0.0
O203 O 0.79728 0.78411 0.36862 0.0
Tb204 Tb 0.7448 0.76571 0.37206 0.0
Eu205 Eu 0.66137 0.79074 0.36297 0.0
C206 C 0.81235 0.80176 0.38576 0.0
O207 O 0.79452 0.81064 0.40483 0.0
C208 C 0.70767 0.75877 0.32451 0.0
O209 O 0.60365 0.78673 0.36375 0.0
C210 C 0.67867 0.85292 0.35002 0.0
C211 C 0.58896 0.75696 0.36819 0.0
O212 O 0.60846 0.73015 0.37334 0.0
C213 C 0.69684 0.78982 0.41371 0.0
C214 C 0.67074 0.88967 0.35459 0.0
C215 C 0.69681 0.91453 0.35127 0.0
C216 C 0.68854 0.94985 0.35169 0.0
C217 C 0.65444 0.96009 0.35592 0.0
C218 C 0.62829 0.93587 0.35918 0.0
C219 C 0.63651 0.9006 0.35896 0.0
O220 O 0.73254 0.77615 0.33474 0.0
O221 O 0.67986 0.75122 0.33665 0.0
O222 O 0.7733 0.71916 0.38244 0.0
O223 O 0.72034 0.71457 0.37355 0.0
C224 C 0.74796 0.69759 0.38004 0.0
O225 O 0.66918 0.77943 0.40224 0.0
O226 O 0.72603 0.7956 0.40244 0.0
O227 O 0.6543 0.8349 0.33965 0.0
O228 O 0.69546 0.83551 0.36656 0.0
H229 H 0.72296 0.90643 0.34715 0.0
H230 H 0.64794 0.98734 0.35592 0.0
H231 H 0.61606 0.88182 0.36078 0.0
O232 O 0.73695 0.7416 0.86802 0.0
Tb233 Tb 0.7844 0.76779 0.87718 0.0
Eu234 Eu 0.8679 0.68687 0.8843 0.0
C235 C 0.72233 0.74365 0.84682 0.0
O236 O 0.73859 0.75919 0.82924 0.0
C237 C 0.83842 0.7318 0.84403 0.0
O238 O 0.92576 0.68834 0.88612 0.0
C239 C 0.84364 0.62562 0.89181 0.0
C240 C 0.94096 0.71847 0.88749 0.0
O241 O 0.92187 0.74653 0.88669 0.0
C242 C 0.81428 0.72479 0.91823 0.0
C243 C 0.85357 0.59011 0.88527 0.0
C244 C 0.82883 0.5683 0.87489 0.0
C245 C 0.83817 0.53521 0.86688 0.0
C246 C 0.87241 0.52403 0.86983 0.0
C247 C 0.89735 0.54546 0.88005 0.0
C248 C 0.88782 0.5785 0.88787 0.0
O249 O 0.83359 0.74973 0.8636 0.0
O250 O 0.85739 0.70383 0.8461 0.0
O251 O 0.77196 0.81646 0.85938 0.0
O252 O 0.78467 0.8166 0.89663 0.0
C253 C 0.77571 0.83565 0.87836 0.0
O254 O 0.84274 0.72922 0.90589 0.0
O255 O 0.78662 0.74255 0.91201 0.0
O256 O 0.83372 0.64525 0.87387 0.0
O257 O 0.86333 0.64179 0.90735 0.0
H258 H 0.80255 0.57742 0.87255 0.0
H259 H 0.87973 0.49814 0.86448 0.0
H260 H 0.90725 0.5954 0.8953 0.0
O261 O 0.28574 0.70986 0.86239 0.0
Tb262 Tb 0.26074 0.75744 0.87334 0.0
Eu263 Eu 0.32417 0.8251 0.85995 0.0
C264 C 0.27363 0.69143 0.84454 0.0
O265 O 0.24972 0.70494 0.83066 0.0
C266 C 0.27104 0.79006 0.82347 0.0
O267 O 0.30963 0.88106 0.85523 0.0
C268 C 0.39053 0.81779 0.85756 0.0
C269 C 0.27916 0.89267 0.86191 0.0
O270 O 0.25658 0.87092 0.87075 0.0
C271 C 0.30279 0.79725 0.91179 0.0
C272 C 0.42554 0.82595 0.86597 0.0
C273 C 0.45157 0.80107 0.8624 0.0
C274 C 0.48636 0.81021 0.86435 0.0
C275 C 0.49499 0.84385 0.871 0.0
C276 C 0.46951 0.8691 0.87422 0.0
C277 C 0.43461 0.85992 0.87224 0.0
O278 O 0.24935 0.78726 0.84132 0.0
O279 O 0.30343 0.79751 0.82742 0.0
O280 O 0.21803 0.72183 0.87836 0.0
O281 O 0.21459 0.77164 0.89394 0.0
C282 C 0.19857 0.74256 0.89073 0.0
O283 O 0.30511 0.82517 0.8985 0.0
O284 O 0.29714 0.76696 0.90219 0.0
O285 O 0.37332 0.8426 0.84676 0.0
O286 O 0.37105 0.79651 0.86996 0.0
H287 H 0.44489 0.77552 0.85609 0.0
H288 H 0.52197 0.85103 0.87205 0.0
H289 H 0.41486 0.87972 0.87354 0.0
O290 O 0.28296 0.24124 0.86042 0.0
Tb291 Tb 0.23319 0.21789 0.86717 0.0
Eu292 Eu 0.16016 0.31001 0.87879 0.0
C293 C 0.2985 0.24058 0.83947 0.0
O294 O 0.28263 0.22724 0.82091 0.0
C295 C 0.18758 0.26683 0.83589 0.0
O296 O 0.10235 0.31203 0.87844 0.0
C297 C 0.18908 0.36727 0.89167 0.0
C298 C 0.08592 0.28731 0.88972 0.0
O299 O 0.10403 0.2635 0.90089 0.0
C300 C 0.20834 0.25955 0.90935 0.0
C301 C 0.18137 0.4044 0.89027 0.0
C302 C 0.20835 0.42762 0.88568 0.0
C303 C 0.20127 0.46288 0.88302 0.0
C304 C 0.16722 0.47478 0.88468 0.0
C305 C 0.13996 0.45187 0.88858 0.0
C306 C 0.14718 0.41663 0.89169 0.0
O307 O 0.18737 0.24342 0.85288 0.0
O308 O 0.17302 0.29689 0.84034 0.0
O309 O 0.24406 0.1711 0.84663 0.0
O310 O 0.22544 0.16659 0.88248 0.0
C311 C 0.23561 0.14956 0.86358 0.0
O312 O 0.18197 0.26143 0.8948 0.0
O313 O 0.23302 0.23765 0.90377 0.0
O314 O 0.19513 0.35217 0.87102 0.0
O315 O 0.16994 0.34866 0.90622 0.0
H316 H 0.23465 0.41829 0.88396 0.0
H317 H 0.16187 0.50206 0.88231 0.0
H318 H 0.12617 0.39865 0.89427 0.0
O319 O 0.73752 0.29686 0.86013 0.0
Tb320 Tb 0.76147 0.249 0.87152 0.0
Eu321 Eu 0.68696 0.16074 0.87751 0.0
C322 C 0.74474 0.31165 0.83953 0.0
O323 O 0.7625 0.29443 0.82341 0.0
C324 C 0.72864 0.19436 0.8377 0.0
O325 O 0.69647 0.10361 0.87553 0.0
C326 C 0.62299 0.17527 0.88671 0.0
C327 C 0.72375 0.09056 0.88626 0.0
O328 O 0.74443 0.11134 0.89798 0.0
C329 C 0.71836 0.21751 0.91216 0.0
C330 C 0.5887 0.16281 0.8793 0.0
C331 C 0.56485 0.1864 0.86951 0.0
C332 C 0.53271 0.17507 0.86114 0.0
C333 C 0.52439 0.14005 0.86308 0.0
C334 C 0.54767 0.11626 0.87294 0.0
C335 C 0.57985 0.12772 0.88113 0.0
O336 O 0.74558 0.1996 0.85764 0.0
O337 O 0.70166 0.17427 0.83935 0.0
O338 O 0.81211 0.25853 0.85586 0.0
O339 O 0.80799 0.24989 0.89355 0.0
C340 C 0.82908 0.2565 0.87595 0.0
O341 O 0.72569 0.18887 0.90059 0.0
O342 O 0.73357 0.24624 0.90535 0.0
O343 O 0.64093 0.19117 0.87006 0.0
O344 O 0.64182 0.15469 0.90025 0.0
H345 H 0.57154 0.21343 0.86806 0.0
H346 H 0.49919 0.13122 0.85738 0.0
H347 H 0.59812 0.1092 0.88838 0.0
O348 O 0.72486 0.26924 0.61572 0.0
Tb349 Tb 0.77783 0.2553 0.62467 0.0
Eu350 Eu 0.8636 0.29204 0.63503 0.0
C351 C 0.70309 0.28191 0.6316 0.0
O352 O 0.7144 0.29022 0.65302 0.0
C353 C 0.81037 0.26694 0.67333 0.0
O354 O 0.92141 0.28026 0.63531 0.0
C355 C 0.85062 0.3572 0.64264 0.0
C356 C 0.94177 0.29067 0.61776 0.0
O357 O 0.92814 0.30864 0.60012 0.0
C358 C 0.82837 0.28005 0.58255 0.0
C359 C 0.85523 0.39261 0.63297 0.0
C360 C 0.82716 0.41602 0.63307 0.0
C361 C 0.83174 0.45042 0.62564 0.0
C362 C 0.8644 0.46129 0.6182 0.0
C363 C 0.89281 0.43894 0.61902 0.0
C364 C 0.88811 0.4045 0.62612 0.0
O365 O 0.78725 0.28007 0.65878 0.0
O366 O 0.84145 0.25979 0.66518 0.0
O367 O 0.74854 0.20807 0.62947 0.0
O368 O 0.80249 0.20367 0.62373 0.0
C369 C 0.77399 0.18642 0.62729 0.0
O370 O 0.8568 0.27951 0.59565 0.0
O371 O 0.7969 0.27704 0.59134 0.0
O372 O 0.87826 0.34107 0.65062 0.0
O373 O 0.82894 0.33664 0.63159 0.0
H374 H 0.80212 0.40779 0.63951 0.0
H375 H 0.86823 0.48816 0.6135 0.0
H376 H 0.91027 0.38739 0.62698 0.0
O377 O 0.73768 0.7081 0.62759 0.0
Tb378 Tb 0.74748 0.76253 0.63457 0.0
Eu379 Eu 0.72017 0.85189 0.64185 0.0
C380 C 0.73434 0.68569 0.64523 0.0
O381 O 0.73254 0.69705 0.66739 0.0
C382 C 0.74274 0.79943 0.6824 0.0
O383 O 0.73884 0.90728 0.63944 0.0
C384 C 0.65394 0.84981 0.65048 0.0
C385 C 0.72301 0.92993 0.62558 0.0
O386 O 0.69659 0.91964 0.61271 0.0
C387 C 0.72208 0.80979 0.59254 0.0
C388 C 0.61855 0.85742 0.64128 0.0
C389 C 0.59483 0.83011 0.63874 0.0
C390 C 0.56046 0.83672 0.63201 0.0
C391 C 0.54982 0.87076 0.62809 0.0
C392 C 0.57195 0.89861 0.63216 0.0
C393 C 0.6067 0.89176 0.63815 0.0
O394 O 0.72744 0.77554 0.66968 0.0
O395 O 0.75095 0.82911 0.6725 0.0
O396 O 0.79813 0.73949 0.64042 0.0
O397 O 0.79579 0.78994 0.62577 0.0
C398 C 0.81646 0.76498 0.63252 0.0
O399 O 0.73263 0.83801 0.60341 0.0
O400 O 0.71769 0.7803 0.60386 0.0
O401 O 0.67375 0.87592 0.65622 0.0
O402 O 0.67123 0.82379 0.64115 0.0
H403 H 0.60287 0.80384 0.6425 0.0
H404 H 0.52321 0.87568 0.62308 0.0
H405 H 0.62393 0.91311 0.64151 0.0
O406 O 0.30232 0.75364 0.62708 0.0
Tb407 Tb 0.24925 0.77144 0.62254 0.0
Eu408 Eu 0.14942 0.705 0.6138 0.0
C409 C 0.32075 0.7631 0.64576 0.0
O410 O 0.30538 0.77971 0.66333 0.0
C411 C 0.19141 0.73243 0.65577 0.0
O412 O 0.09122 0.71122 0.61556 0.0
C413 C 0.16929 0.64466 0.59876 0.0
C414 C 0.07692 0.74189 0.61829 0.0
O415 O 0.09704 0.76893 0.62004 0.0
C416 C 0.20627 0.74063 0.58068 0.0
C417 C 0.16191 0.60746 0.59888 0.0
C418 C 0.18953 0.58441 0.59522 0.0
C419 C 0.18363 0.54887 0.59418 0.0
C420 C 0.15013 0.53646 0.59729 0.0
C421 C 0.12238 0.55881 0.60208 0.0
C422 C 0.12834 0.59463 0.60249 0.0
O423 O 0.20516 0.74289 0.63559 0.0
O424 O 0.16376 0.71347 0.65297 0.0
O425 O 0.24968 0.82014 0.64216 0.0
O426 O 0.24327 0.82099 0.60425 0.0
C427 C 0.24561 0.83985 0.62347 0.0
O428 O 0.17946 0.7473 0.59464 0.0
O429 O 0.2374 0.75143 0.58693 0.0
O430 O 0.1798 0.65824 0.61902 0.0
O431 O 0.14854 0.66496 0.58646 0.0
H432 H 0.2155 0.59413 0.59281 0.0
H433 H 0.14583 0.5089 0.59628 0.0
H434 H 0.10725 0.61237 0.60597 0.0
O435 O 0.28412 0.30571 0.62004 0.0
Tb436 Tb 0.27116 0.2513 0.62047 0.0
Eu437 Eu 0.30939 0.16828 0.63246 0.0
C438 C 0.29031 0.3216 0.59963 0.0
O439 O 0.29181 0.3034 0.57979 0.0
C440 C 0.27699 0.21874 0.67015 0.0
O441 O 0.30128 0.11098 0.63223 0.0
C442 C 0.37423 0.18108 0.64086 0.0
C443 C 0.27284 0.09786 0.62334 0.0
O444 O 0.24925 0.11865 0.61441 0.0
C445 C 0.30049 0.20126 0.58087 0.0
C446 C 0.41001 0.17446 0.63216 0.0
C447 C 0.43214 0.20267 0.62827 0.0
C448 C 0.46674 0.19721 0.6218 0.0
C449 C 0.4793 0.16358 0.61932 0.0
C450 C 0.45869 0.13497 0.62468 0.0
C451 C 0.42364 0.14058 0.63053 0.0
O452 O 0.28833 0.24452 0.65717 0.0
O453 O 0.27325 0.18802 0.66077 0.0
O454 O 0.22063 0.22523 0.62389 0.0
O455 O 0.22262 0.27608 0.61014 0.0
C456 C 0.20206 0.2511 0.61598 0.0
O457 O 0.29472 0.17347 0.59369 0.0
O458 O 0.30159 0.23226 0.59039 0.0
O459 O 0.35744 0.15496 0.65022 0.0
O460 O 0.35429 0.20199 0.62833 0.0
H461 H 0.42275 0.22877 0.63091 0.0
H462 H 0.50612 0.15987 0.61435 0.0
H463 H 0.40748 0.11877 0.6349 0.0
H464 H 0.2396 0.34547 0.05357 0.0
H465 H 0.16388 0.26414 0.0533 0.0
H466 H 0.24025 0.34504 0.00945 0.0
H467 H 0.16391 0.26437 0.00958 0.0
H468 H 0.15291 0.28742 0.93213 0.0
H469 H 0.15022 0.30727 0.97357 0.0
H470 H 0.26013 0.29198 0.98056 0.0
H471 H 0.26292 0.27179 0.93899 0.0
C472 C 0.22262 0.3281 0.04406 0.0
C473 C 0.20186 0.30465 0.05666 0.0
C474 C 0.22306 0.32784 0.01896 0.0
C475 C 0.20201 0.30481 0.00631 0.0
C476 C 0.18007 0.28263 0.01899 0.0
C477 C 0.18024 0.28231 0.04394 0.0
C478 C 0.17666 0.28916 0.94226 0.0
C479 C 0.20809 0.27775 0.93248 0.0
C480 C 0.17507 0.30052 0.96594 0.0
C481 C 0.20493 0.30094 0.98012 0.0
C482 C 0.23682 0.2921 0.96982 0.0
C483 C 0.23836 0.28034 0.94617 0.0
H484 H 0.62915 0.25594 0.05471 0.0
H485 H 0.71465 0.18454 0.06053 0.0
H486 H 0.63157 0.25111 0.01085 0.0
H487 H 0.71686 0.17964 0.01707 0.0
H488 H 0.70233 0.16054 0.93896 0.0
H489 H 0.68361 0.15953 0.98083 0.0
H490 H 0.67691 0.27064 0.98078 0.0
H491 H 0.69561 0.27175 0.939 0.0
C492 C 0.64804 0.23884 0.04667 0.0
C493 C 0.67192 0.22089 0.06104 0.0
C494 C 0.64948 0.23616 0.02161 0.0
C495 C 0.67437 0.21496 0.01056 0.0
C496 C 0.69713 0.19586 0.02504 0.0
C497 C 0.69606 0.19894 0.04996 0.0
C498 C 0.69618 0.18471 0.94772 0.0
C499 C 0.70103 0.21627 0.93581 0.0
C500 C 0.68557 0.18411 0.97171 0.0
C501 C 0.67917 0.21502 0.98413 0.0
C502 C 0.6815 0.24641 0.97166 0.0
C503 C 0.69244 0.24703 0.94777 0.0
H504 H 0.87022 0.71224 0.94683 0.0
H505 H 0.75998 0.69775 0.94244 0.0
H506 H 0.86891 0.69541 0.98918 0.0
H507 H 0.75886 0.68027 0.98448 0.0
H508 H 0.76416 0.64669 0.06028 0.0
H509 H 0.78202 0.63853 0.01841 0.0
H510 H 0.83748 0.7347 0.02093 0.0
H511 H 0.81893 0.74323 0.06229 0.0
C512 C 0.84594 0.70433 0.95467 0.0
C513 C 0.81505 0.70692 0.94157 0.0
C514 C 0.84524 0.69467 0.97886 0.0
C515 C 0.81379 0.68671 0.99004 0.0
C516 C 0.7835 0.686 0.97623 0.0
C517 C 0.78408 0.6963 0.95225 0.0
C518 C 0.78113 0.66541 0.05206 0.0
C519 C 0.78984 0.69581 0.06424 0.0
C520 C 0.79127 0.66077 0.02818 0.0
C521 C 0.81097 0.68606 0.01649 0.0
C522 C 0.82256 0.71466 0.02957 0.0
C523 C 0.81176 0.71968 0.05317 0.0
H524 H 0.28341 0.84932 0.94234 0.0
H525 H 0.33178 0.74888 0.94074 0.0
H526 H 0.28516 0.84836 0.98649 0.0
H527 H 0.33444 0.74845 0.98451 0.0
H528 H 0.35852 0.7724 0.06305 0.0
H529 H 0.36286 0.78517 0.0201 0.0
H530 H 0.25324 0.80446 0.01732 0.0
H531 H 0.24862 0.79084 0.0601 0.0
C532 C 0.29503 0.82743 0.95139 0.0
C533 C 0.30734 0.79912 0.93814 0.0
C534 C 0.29591 0.82684 0.97658 0.0
C535 C 0.31005 0.79838 0.98885 0.0
C536 C 0.3237 0.77083 0.97552 0.0
C537 C 0.322 0.77102 0.95048 0.0
C538 C 0.33543 0.77993 0.05338 0.0
C539 C 0.30315 0.78026 0.0649 0.0
C540 C 0.33794 0.78716 0.02881 0.0
C541 C 0.30837 0.79572 0.01542 0.0
C542 C 0.27646 0.79815 0.02725 0.0
C543 C 0.27381 0.79017 0.05169 0.0
H544 H 0.20218 0.77321 0.43395 0.0
H545 H 0.23292 0.66612 0.43366 0.0
H546 H 0.18683 0.76866 0.4763 0.0
H547 H 0.2181 0.66173 0.47632 0.0
H548 H 0.1501 0.74859 0.55137 0.0
H549 H 0.14821 0.73807 0.50799 0.0
H550 H 0.24997 0.6926 0.51122 0.0
H551 H 0.25214 0.7037 0.55427 0.0
C552 C 0.20495 0.74849 0.44283 0.0
C553 C 0.21904 0.7201 0.43058 0.0
C554 C 0.19594 0.74582 0.46704 0.0
C555 C 0.20141 0.71488 0.47963 0.0
C556 C 0.21369 0.68591 0.46704 0.0
C557 C 0.22206 0.6884 0.44263 0.0
C558 C 0.17161 0.73546 0.54289 0.0
C559 C 0.20143 0.72727 0.55609 0.0
C560 C 0.17058 0.72959 0.51808 0.0
C561 C 0.19901 0.71468 0.50623 0.0
C562 C 0.22757 0.70389 0.51986 0.0
C563 C 0.2289 0.71041 0.54449 0.0
H564 H 0.27862 0.15047 0.55062 0.0
H565 H 0.33841 0.24413 0.55302 0.0
H566 H 0.28604 0.14834 0.50691 0.0
H567 H 0.34621 0.24162 0.50973 0.0
H568 H 0.37079 0.22182 0.43372 0.0
H569 H 0.37238 0.20343 0.47566 0.0
H570 H 0.26157 0.19269 0.4754 0.0
H571 H 0.2598 0.21139 0.43363 0.0
C572 C 0.29385 0.17017 0.54187 0.0
C573 C 0.3076 0.1977 0.55507 0.0
C574 C 0.2981 0.1689 0.51697 0.0
C575 C 0.31686 0.19468 0.5051 0.0
C576 C 0.33205 0.22116 0.51852 0.0
C577 C 0.32724 0.22281 0.54324 0.0
C578 C 0.34687 0.21467 0.44242 0.0
C579 C 0.31507 0.2188 0.43065 0.0
C580 C 0.34783 0.20416 0.46637 0.0
C581 C 0.31707 0.19705 0.4787 0.0
C582 C 0.28564 0.19791 0.46623 0.0
C583 C 0.28463 0.20889 0.4424 0.0
H584 H 0.78447 0.25633 0.54866 0.0
H585 H 0.87784 0.31552 0.55715 0.0
H586 H 0.78555 0.26728 0.5056 0.0
H587 H 0.87845 0.3268 0.51355 0.0
H588 H 0.79121 0.35596 0.43964 0.0
H589 H 0.80774 0.35442 0.48225 0.0
H590 H 0.8524 0.25347 0.47239 0.0
H591 H 0.83623 0.25481 0.43012 0.0
C592 C 0.80524 0.2717 0.54133 0.0
C593 C 0.83108 0.28506 0.55629 0.0
C594 C 0.80576 0.27798 0.51673 0.0
C595 C 0.83185 0.2981 0.50652 0.0
C596 C 0.85801 0.31136 0.52122 0.0
C597 C 0.85777 0.30466 0.546 0.0
C598 C 0.80578 0.33409 0.44636 0.0
C599 C 0.81195 0.30527 0.4317 0.0
C600 C 0.81525 0.33326 0.47067 0.0
C601 C 0.83131 0.30382 0.48037 0.0
C602 C 0.84028 0.2765 0.46519 0.0
C603 C 0.83081 0.27726 0.44106 0.0
H604 H 0.72345 0.84417 0.43772 0.0
H605 H 0.66772 0.74943 0.44795 0.0
H606 H 0.72529 0.85302 0.48088 0.0
H607 H 0.67215 0.75611 0.49124 0.0
H608 H 0.66755 0.78211 0.56917 0.0
H609 H 0.65687 0.78137 0.52615 0.0
H610 H 0.75261 0.8362 0.51463 0.0
H611 H 0.7611 0.83944 0.55779 0.0
C612 C 0.7117 0.82517 0.44937 0.0
C613 C 0.69541 0.79618 0.43969 0.0
C614 C 0.71309 0.82994 0.47418 0.0
C615 C 0.69936 0.80509 0.48995 0.0
C616 C 0.68249 0.77629 0.47998 0.0
C617 C 0.68009 0.7722 0.4551 0.0
C618 C 0.68595 0.79434 0.55729 0.0
C619 C 0.7151 0.81083 0.56662 0.0
C620 C 0.6801 0.79365 0.53256 0.0
C621 C 0.70397 0.80839 0.51651 0.0
C622 C 0.73308 0.82518 0.52614 0.0
C623 C 0.73824 0.82686 0.55093 0.0
H624 H 0.29043 0.99677 0.16195 0.0
H625 H 0.2561 0.97352 0.09023 0.0
H626 H 0.24934 0.04418 0.16422 0.0
H627 H 0.21424 0.02107 0.09241 0.0
H628 H 0.17814 0.13024 0.16632 0.0
H629 H 0.19151 0.06879 0.16399 0.0
H630 H 0.22768 0.08248 0.09128 0.0
H631 H 0.21373 0.14342 0.09341 0.0
C632 C 0.27305 1.00115 0.14701 0.0
C633 C 0.27648 0.98189 0.12586 0.0
C634 C 0.24932 0.02817 0.14831 0.0
C635 C 0.22871 0.03668 0.12838 0.0
C636 C 0.23003 0.01535 0.10796 0.0
C637 C 0.25374 0.98804 0.10674 0.0
C638 C 0.18797 0.11993 0.1496 0.0
C639 C 0.1957 0.14185 0.13026 0.0
C640 C 0.1957 0.08473 0.14829 0.0
C641 C 0.21125 0.07084 0.12762 0.0
C642 C 0.21561 0.0922 0.10746 0.0
C643 C 0.20791 0.12732 0.10876 0.0
H644 H 0.00584 0.27861 0.16405 0.0
H645 H 1.0034 0.26271 0.08763 0.0
H646 H 0.94994 0.25108 0.16799 0.0
H647 H 0.94825 0.23295 0.0914 0.0
H648 H 0.83078 0.24333 0.10175 0.0
H649 H 0.89229 0.25145 0.09686 0.0
H650 H 0.90987 0.20729 0.16716 0.0
H651 H 0.84774 0.20106 0.17247 0.0
C652 C 0.99405 0.26747 0.14824 0.0
C653 C 0.00897 0.27245 0.12559 0.0
C654 C 0.9618 0.25169 0.15042 0.0
C655 C 0.94384 0.2402 0.12995 0.0
C656 C 0.96061 0.24229 0.10752 0.0
C657 C 0.99257 0.25871 0.10533 0.0
C658 C 0.84777 0.23481 0.11602 0.0
C659 C 0.83425 0.22191 0.13761 0.0
C660 C 0.88334 0.23924 0.11317 0.0
C661 C 0.90654 0.23034 0.13168 0.0
C662 C 0.893 0.21528 0.15268 0.0
C663 C 0.85731 0.21142 0.15569 0.0
H664 H 0.76595 0.86867 0.10893 0.0
H665 H 0.72002 0.87262 0.17949 0.0
H666 H 0.75627 0.93063 0.10433 0.0
H667 H 0.70978 0.9341 0.17474 0.0
H668 H 0.70092 0.04723 0.16593 0.0
H669 H 0.73137 0.99217 0.17074 0.0
H670 H 0.70525 0.96517 0.0978 0.0
H671 H 0.6757 0.02026 0.09301 0.0
C672 C 0.75432 0.8828 0.12363 0.0
C673 C 0.74344 0.86551 0.14448 0.0
C674 C 0.74858 0.91834 0.12093 0.0
C675 C 0.73194 0.93749 0.13906 0.0
C676 C 0.72298 0.92046 0.16047 0.0
C677 C 0.72864 0.88499 0.16313 0.0
C678 C 0.7029 0.03004 0.15069 0.0
C679 C 0.68583 0.03798 0.12913 0.0
C680 C 0.71992 0.99826 0.15351 0.0
C681 C 0.72034 0.97384 0.1348 0.0
C682 C 0.70574 0.98322 0.1126 0.0
C683 C 0.68867 0.01483 0.10983 0.0
H684 H 0.15547 0.76914 0.11881 0.0
H685 H 0.14286 0.71367 0.18553 0.0
H686 H 0.09483 0.7599 0.10944 0.0
H687 H 0.08218 0.70444 0.17604 0.0
H688 H 0.96998 0.69874 0.15511 0.0
H689 H 0.02286 0.72892 0.16683 0.0
H690 H 0.06856 0.70313 0.09842 0.0
H691 H 0.016 0.67303 0.08693 0.0
C692 C 0.13962 0.75573 0.13178 0.0
C693 C 0.15421 0.7415 0.15271 0.0
C694 C 0.10488 0.75038 0.12634 0.0
C695 C 0.08393 0.73098 0.1418 0.0
C696 C 0.09767 0.71958 0.16379 0.0
C697 C 0.13251 0.72476 0.16919 0.0
C698 C 0.99105 0.70046 0.1424 0.0
C699 C 0.9891 0.6836 0.12015 0.0
C700 C 0.02132 0.71747 0.14915 0.0
C701 C 0.04985 0.71833 0.13357 0.0
C702 C 0.04691 0.7033 0.11072 0.0
C703 C 0.01693 0.68592 0.10415 0.0
H704 H 0.32642 0.01419 0.321 0.0
H705 H 0.27486 0.04219 0.38685 0.0
H706 H 0.2856 0.96769 0.31497 0.0
H707 H 0.23303 0.99623 0.38045 0.0
H708 H 0.21895 0.87815 0.30977 0.0
H709 H 0.22921 0.94051 0.3099 0.0
H710 H 0.24854 0.93621 0.38626 0.0
H711 H 0.23816 0.87474 0.38602 0.0
C712 C 0.30555 0.01109 0.33375 0.0
C713 C 0.30435 0.03107 0.35473 0.0
C714 C 0.28184 0.98469 0.33015 0.0
C715 C 0.25646 0.97779 0.34751 0.0
C716 C 0.2527 1.00057 0.36698 0.0
C717 C 0.27653 0.027 0.3706 0.0
C718 C 0.22421 0.89093 0.32664 0.0
C719 C 0.22848 0.87173 0.3478 0.0
C720 C 0.23019 0.92653 0.32672 0.0
C721 C 0.24008 0.94329 0.34803 0.0
C722 C 0.24071 0.92437 0.36955 0.0
C723 C 0.23515 0.88897 0.36939 0.0
H724 H 0.16858 0.2775 0.29933 0.0
H725 H 0.16616 0.25507 0.37521 0.0
H726 H 0.10612 0.28533 0.29946 0.0
H727 H 0.10433 0.26475 0.37575 0.0
H728 H 0.9929 0.28613 0.37524 0.0
H729 H 0.04628 0.25469 0.36658 0.0
H730 H 0.07214 0.33079 0.31278 0.0
H731 H 0.01829 0.36054 0.32046 0.0
C732 C 0.15461 0.27372 0.31596 0.0
C733 C 0.17234 0.26629 0.33733 0.0
C734 C 0.11881 0.27846 0.31611 0.0
C735 C 0.10006 0.27664 0.33774 0.0
C736 C 0.11758 0.26625 0.35868 0.0
C737 C 0.15327 0.26087 0.35843 0.0
C738 C 0.00954 0.29537 0.36103 0.0
C739 C 1.00178 0.32619 0.34888 0.0
C740 C 0.04037 0.27761 0.35624 0.0
C741 C 0.06408 0.29044 0.33928 0.0
C742 C 0.05471 0.31976 0.32584 0.0
C743 C 0.02392 0.33723 0.33048 0.0
H744 H 0.74629 0.96878 0.37677 0.0
H745 H 0.68599 0.99341 0.31406 0.0
H746 H 0.77754 0.02329 0.3724 0.0
H747 H 0.71561 0.04794 0.31005 0.0
H748 H 0.77251 0.1431 0.38069 0.0
H749 H 0.76298 0.08127 0.38014 0.0
H750 H 0.76277 0.083 0.30255 0.0
H751 H 0.77048 0.14531 0.30326 0.0
C752 C 0.74055 0.9854 0.36164 0.0
C753 C 0.7138 0.97707 0.34576 0.0
C754 C 0.75802 0.01686 0.35929 0.0
C755 C 0.74885 0.04053 0.34108 0.0
C756 C 0.72389 0.03055 0.32415 0.0
C757 C 0.7067 0.99924 0.32645 0.0
C758 C 0.77106 0.1302 0.3635 0.0
C759 C 0.77163 0.14922 0.34202 0.0
C760 C 0.76582 0.09453 0.36316 0.0
C761 C 0.76151 0.0769 0.34129 0.0
C762 C 0.765 0.09569 0.31977 0.0
C763 C 0.76964 0.13144 0.32014 0.0
H764 H 0.99285 0.71719 0.42831 0.0
H765 H 0.02933 0.75925 0.36136 0.0
H766 H 0.94266 0.75511 0.4268 0.0
H767 H 0.97878 0.79756 0.35963 0.0
H768 H 0.85661 0.78759 0.34898 0.0
H769 H 0.91846 0.77819 0.35211 0.0
H770 H 0.91621 0.81356 0.42555 0.0
H771 H 0.85402 0.82271 0.42253 0.0
C772 C 0.99058 0.73553 0.4137 0.0
C773 C 0.01456 0.73538 0.39489 0.0
C774 C 0.962 0.75742 0.41286 0.0
C775 C 0.95669 0.7792 0.39301 0.0
C776 C 0.98219 0.78091 0.37508 0.0
C777 C 0.01109 0.7592 0.37609 0.0
C778 C 0.8694 0.79431 0.3656 0.0
C779 C 0.85031 0.80497 0.38571 0.0
C780 C 0.90498 0.78923 0.36732 0.0
C781 C 0.92207 0.79463 0.38922 0.0
C782 C 0.90355 0.80875 0.40856 0.0
C783 C 0.86795 0.814 0.4068 0.0
H784 H 0.75461 0.87742 0.84184 0.0
H785 H 0.7817 0.8781 0.91697 0.0
H786 H 0.74226 0.93921 0.84357 0.0
H787 H 0.76887 0.93974 0.91887 0.0
H788 H 0.7779 0.05601 0.90663 0.0
H789 H 0.79105 0.99465 0.90433 0.0
H790 H 0.69995 0.97894 0.86114 0.0
H791 H 0.68705 0.04052 0.86309 0.0
C792 C 0.75792 0.89084 0.85871 0.0
C793 C 0.76914 0.87309 0.87927 0.0
C794 C 0.75063 0.92614 0.85976 0.0
C795 C 0.75451 0.94439 0.88137 0.0
C796 C 0.766 0.92654 0.90188 0.0
C797 C 0.77321 0.89123 0.90083 0.0
C798 C 0.76064 0.0395 0.89663 0.0
C799 C 0.73142 0.05317 0.88503 0.0
C800 C 0.76811 0.00427 0.89543 0.0
C801 C 0.74655 0.98188 0.88257 0.0
C802 C 0.71732 0.99557 0.87094 0.0
C803 C 0.70981 0.03082 0.87219 0.0
H804 H 0.98664 0.66652 0.89774 0.0
H805 H 0.98073 0.7761 0.8844 0.0
H806 H 0.0489 0.6709 0.90307 0.0
H807 H 0.04297 0.78035 0.88879 0.0
H808 H 0.15264 0.78508 0.91348 0.0
H809 H 0.09009 0.77797 0.91599 0.0
H810 H 0.09911 0.67975 0.87986 0.0
H811 H 0.16137 0.68638 0.8783 0.0
C812 C 0.99867 0.69151 0.89581 0.0
C813 C 0.97878 0.72093 0.89054 0.0
C814 C 0.03439 0.69404 0.89881 0.0
C815 C 0.0511 0.726 0.89638 0.0
C816 C 0.03103 0.75542 0.89127 0.0
C817 C 0.99531 0.75294 0.8885 0.0
C818 C 0.14118 0.7617 0.90657 0.0
C819 C 0.16174 0.73635 0.89564 0.0
C820 C 0.10535 0.75774 0.90776 0.0
C821 C 0.08939 0.72847 0.89785 0.0
C822 C 0.11036 0.70245 0.88792 0.0
C823 C 0.14612 0.7063 0.88692 0.0
H824 H 0.21914 0.10212 0.89777 0.0
H825 H 0.26076 0.1117 0.82625 0.0
H826 H 0.22836 0.0398 0.89634 0.0
H827 H 0.26963 0.0493 0.82463 0.0
H828 H 0.31945 0.94434 0.84388 0.0
H829 H 0.30721 0.00606 0.84343 0.0
H830 H 0.20815 0.98743 0.87638 0.0
H831 H 0.22054 0.92572 0.87712 0.0
C832 C 0.22997 0.09082 0.88166 0.0
C833 C 0.23929 0.11169 0.86214 0.0
C834 C 0.23511 0.05511 0.88078 0.0
C835 C 0.24981 0.03954 0.86038 0.0
C836 C 0.25866 0.0605 0.84072 0.0
C837 C 0.25338 0.09619 0.84158 0.0
C838 C 0.29498 0.95336 0.85093 0.0
C839 C 0.27103 0.93005 0.86059 0.0
C840 C 0.28788 0.98876 0.85055 0.0
C841 C 0.25671 1.00173 0.8599 0.0
C842 C 0.23258 0.97835 0.8693 0.0
C843 C 0.23962 0.94294 0.86959 0.0
H844 H 0.04067 0.32901 0.86538 0.0
H845 H 0.04527 0.24009 0.91211 0.0
H846 H 0.97806 0.323 0.86271 0.0
H847 H 0.983 0.23386 0.90915 0.0
H848 H 0.86731 0.2529 0.91682 0.0
H849 H 0.92924 0.26265 0.92104 0.0
H850 H 0.93679 0.28211 0.84485 0.0
H851 H 0.87478 0.27282 0.84075 0.0
C852 C 0.02834 0.30828 0.87513 0.0
C853 C 0.04791 0.28497 0.88889 0.0
C854 C 0.99254 0.30473 0.87349 0.0
C855 C 0.97565 0.2779 0.88567 0.0
C856 C 0.99521 0.25501 0.89977 0.0
C857 C 0.03094 0.25849 0.90135 0.0
C858 C 0.88227 0.25927 0.90102 0.0
C859 C 0.86642 0.26202 0.87847 0.0
C860 C 0.91769 0.26475 0.9034 0.0
C861 C 0.93787 0.27316 0.88328 0.0
C862 C 0.92185 0.27611 0.86073 0.0
C863 C 0.88645 0.27053 0.85835 0.0
H864 H 0.71397 0.15194 0.63191 0.0
H865 H 0.82341 0.13478 0.62361 0.0
H866 H 0.70409 0.0902 0.63134 0.0
H867 H 0.81343 0.07209 0.62294 0.0
H868 H 0.77785 0.96092 0.6485 0.0
H869 H 0.79267 0.02235 0.64885 0.0
H870 H 0.70678 0.04379 0.60177 0.0
H871 H 0.6919 0.98299 0.60154 0.0
C872 C 0.73603 0.13491 0.62997 0.0
C873 C 0.76949 0.14835 0.62769 0.0
C874 C 0.73031 0.0994 0.6295 0.0
C875 C 0.75787 0.07603 0.62682 0.0
C876 C 0.7916 0.08935 0.62508 0.0
C877 C 0.79733 0.12521 0.62538 0.0
C878 C 0.76224 0.97876 0.63815 0.0
C879 C 0.7335 0.9669 0.62513 0.0
C880 C 0.77087 0.01396 0.63825 0.0
C881 C 0.75077 0.03816 0.62551 0.0
C882 C 0.72254 0.02606 0.61211 0.0
C883 C 0.71408 0.99103 0.61189 0.0
H884 H 0.02728 0.69212 0.6138 0.0
H885 H 0.03979 0.8013 0.6257 0.0
H886 H 0.96485 0.69903 0.61642 0.0
H887 H 0.97737 0.80812 0.62895 0.0
H888 H 0.86044 0.81221 0.61177 0.0
H889 H 0.92332 0.8072 0.6074 0.0
H890 H 0.92115 0.71004 0.64537 0.0
H891 H 0.85887 0.71474 0.64909 0.0
C892 C 0.01676 0.7176 0.61706 0.0
C893 C 0.0387 0.74608 0.61962 0.0
C894 C 0.98085 0.72159 0.61871 0.0
C895 C 0.96582 0.75416 0.62307 0.0
C896 C 0.98782 0.78272 0.62533 0.0
C897 C 0.02374 0.77873 0.62363 0.0
C898 C 0.87355 0.78991 0.6192 0.0
C899 C 0.85468 0.76385 0.63069 0.0
C900 C 0.9096 0.78702 0.61679 0.0
C901 C 0.9275 0.758 0.62583 0.0
C902 C 0.90841 0.73237 0.63768 0.0
C903 C 0.87259 0.73522 0.64001 0.0
H904 H 0.31298 0.04873 0.64484 0.0
H905 H 0.22055 0.06165 0.60231 0.0
H906 H 0.30431 0.98654 0.64515 0.0
H907 H 0.21186 0.99932 0.60276 0.0
H908 H 0.23563 0.88384 0.58593 0.0
H909 H 0.24083 0.94667 0.58614 0.0
H910 H 0.26289 0.94399 0.6621 0.0
H911 H 0.25781 0.88122 0.66184 0.0
C912 C 0.29078 0.03833 0.63559 0.0
C913 C 0.26745 0.06014 0.62354 0.0
C914 C 0.28571 1.00271 0.63591 0.0
C915 C 0.25735 0.98809 0.62404 0.0
C916 C 0.23408 0.00986 0.61192 0.0
C917 C 0.23899 0.04555 0.61176 0.0
C918 C 0.24131 0.89678 0.60268 0.0
C919 C 0.24641 0.8778 0.62385 0.0
C920 C 0.24416 0.93269 0.60283 0.0
C921 C 0.25243 0.9502 0.62412 0.0
C922 C 0.25691 0.93115 0.64537 0.0
C923 C 0.2538 0.89529 0.64525 0.0
H924 H 0.98873 0.3062 0.58284 0.0
H925 H 0.98081 0.25626 0.65187 0.0
H926 H 0.05021 0.29399 0.58191 0.0
H927 H 0.04306 0.24462 0.65121 0.0
H928 H 0.15322 0.20458 0.63201 0.0
H929 H 0.09018 0.21215 0.63249 0.0
H930 H 0.10179 0.31281 0.60034 0.0
H931 H 0.16396 0.30487 0.59946 0.0
C932 C 1.00009 0.29269 0.59793 0.0
C933 C 0.97958 0.28245 0.61751 0.0
C934 C 0.03561 0.2858 0.59746 0.0
C935 C 0.05204 0.26854 0.61658 0.0
C936 C 0.03145 0.25772 0.63604 0.0
C937 C 0.99571 0.26461 0.6365 0.0
C938 C 0.14214 0.22812 0.62486 0.0
C939 C 0.16366 0.25399 0.61553 0.0
C940 C 0.106 0.23265 0.62531 0.0
C941 C 0.09054 0.26308 0.61634 0.0
C942 C 0.11235 0.28874 0.60699 0.0
C943 C 0.14822 0.28425 0.60659 0.0
H944 H 0.71813 0.63195 0.67505 0.0
H945 H 0.76074 0.65442 0.60525 0.0
H946 H 0.73181 0.57104 0.66963 0.0
H947 H 0.7762 0.59417 0.60026 0.0
H948 H 0.80959 0.47989 0.66691 0.0
H949 H 0.77918 0.53467 0.67081 0.0
H950 H 0.76321 0.53696 0.59398 0.0
H951 H 0.79563 0.48304 0.5903 0.0
C952 C 0.73021 0.62382 0.65845 0.0
C953 C 0.73843 0.64812 0.64063 0.0
C954 C 0.73839 0.58884 0.65539 0.0
C955 C 0.7556 0.57726 0.6346 0.0
C956 C 0.7625 0.60156 0.61639 0.0
C957 C 0.75378 0.6364 0.61929 0.0
C958 C 0.7985 0.49164 0.65101 0.0
C959 C 0.80455 0.47713 0.62836 0.0
C960 C 0.78104 0.52321 0.65317 0.0
C961 C 0.76894 0.54093 0.63267 0.0
C962 C 0.77283 0.5248 0.61016 0.0
C963 C 0.79083 0.49353 0.60801 0.0
H964 H 0.36197 0.73789 0.60964 0.0
H965 H 0.36654 0.78351 0.68021 0.0
H966 H 0.42449 0.74325 0.60594 0.0
H967 H 0.42866 0.78957 0.67632 0.0
H968 H 0.54141 0.79457 0.66889 0.0
H969 H 0.48584 0.76539 0.67295 0.0
H970 H 0.46127 0.79202 0.59958 0.0
H971 H 0.51687 0.82029 0.59558 0.0
C972 C 0.37632 0.74852 0.62455 0.0
C973 C 0.35908 0.76067 0.64511 0.0
C974 C 0.41221 0.75176 0.62237 0.0
C975 C 0.43176 0.76719 0.6407 0.0
C976 C 0.41469 0.77723 0.6619 0.0
C977 C 0.37887 0.77399 0.66407 0.0
C978 C 0.52472 0.79275 0.65336 0.0
C979 C 0.5334 0.8097 0.63193 0.0
C980 C 0.49263 0.77652 0.65576 0.0
C981 C 0.46865 0.77688 0.63675 0.0
C982 C 0.47894 0.79096 0.6146 0.0
C983 C 0.5109 0.80721 0.61225 0.0
H984 H 0.18967 0.50118 0.55899 0.0
H985 H 0.23996 0.53877 0.62272 0.0
H986 H 0.2267 0.45035 0.55922 0.0
H987 H 0.27767 0.48777 0.62298 0.0
H988 H 0.27828 0.36702 0.63625 0.0
H989 H 0.26321 0.42775 0.63262 0.0
H990 H 0.28345 0.42356 0.55645 0.0
H991 H 0.29795 0.36253 0.55999 0.0
C992 C 0.20958 0.49902 0.57257 0.0
C993 C 0.21197 0.52367 0.59087 0.0
C994 C 0.23092 0.46997 0.57269 0.0
C995 C 0.25498 0.46481 0.59126 0.0
C996 C 0.25914 0.49085 0.60858 0.0
C997 C 0.23786 0.52016 0.60833 0.0
C998 C 0.28031 0.37919 0.61881 0.0
C999 C 0.28863 0.35973 0.59834 0.0
C1000 C 0.27189 0.41416 0.61675 0.0
C1001 C 0.27166 0.43043 0.59417 0.0
C1002 C 0.2828 0.41163 0.57403 0.0
C1003 C 0.29121 0.37666 0.57609 0.0
H1004 H 0.49817 0.22429 0.5824 0.0
H1005 H 0.49472 0.23048 0.6595 0.0
H1006 H 0.55256 0.25587 0.58216 0.0
H1007 H 0.54987 0.26007 0.65972 0.0
H1008 H 0.65095 0.31238 0.65739 0.0
H1009 H 0.589 0.30404 0.65253 0.0
H1010 H 0.60862 0.23937 0.59079 0.0
H1011 H 0.66994 0.24925 0.59498 0.0
C1012 C 0.50857 0.23355 0.59923 0.0
C1013 C 0.49221 0.22541 0.62094 0.0
C1014 C 0.54008 0.25107 0.59921 0.0
C1015 C 0.55635 0.25992 0.62096 0.0
C1016 C 0.53832 0.25412 0.64255 0.0
C1017 C 0.50653 0.23719 0.64251 0.0
C1018 C 0.64188 0.29699 0.64249 0.0
C1019 C 0.66545 0.28125 0.62671 0.0
C1020 C 0.60631 0.29197 0.63977 0.0
C1021 C 0.59343 0.27063 0.62143 0.0
C1022 C 0.61711 0.25642 0.60494 0.0
C1023 C 0.65256 0.26187 0.60744 0.0
H1024 H 0.72548 0.35663 0.87465 0.0
H1025 H 0.75709 0.35276 0.80036 0.0
H1026 H 0.7374 0.4175 0.87579 0.0
H1027 H 0.76695 0.41476 0.80094 0.0
H1028 H 0.77121 0.5231 0.88075 0.0
H1029 H 0.73457 0.47568 0.86784 0.0
H1030 H 0.8126 0.44501 0.81644 0.0
H1031 H 0.8474 0.49363 0.82801 0.0
C1032 C 0.73376 0.36905 0.85822 0.0
C1033 C 0.74148 0.34959 0.83764 0.0
C1034 C 0.74036 0.40434 0.8588 0.0
C1035 C 0.75427 0.42122 0.83865 0.0
C1036 C 0.75757 0.40248 0.8171 0.0
C1037 C 0.75161 0.36693 0.81667 0.0
C1038 C 0.77986 0.50689 0.86611 0.0
C1039 C 0.81268 0.51144 0.85592 0.0
C1040 C 0.75905 0.47939 0.85886 0.0
C1041 C 0.77088 0.45563 0.84155 0.0
C1042 C 0.80225 0.46246 0.82979 0.0
C1043 C 0.82268 0.49015 0.83674 0.0
H1044 H 0.53063 0.82307 0.82832 0.0
H1045 H 0.50489 0.74616 0.8812 0.0
H1046 H 0.58408 0.7933 0.81951 0.0
H1047 H 0.5585 0.71493 0.87182 0.0
H1048 H 0.67848 0.7239 0.88251 0.0
H1049 H 0.61623 0.72767 0.88191 0.0
H1050 H 0.61882 0.74803 0.80562 0.0
H1051 H 0.68171 0.74606 0.80654 0.0
C1052 C 0.53614 0.79906 0.83756 0.0
C1053 C 0.51421 0.78721 0.85578 0.0
C1054 C 0.56666 0.78164 0.83231 0.0
C1055 C 0.57603 0.75178 0.84514 0.0
C1056 C 0.55241 0.73819 0.8619 0.0
C1057 C 0.52166 0.75584 0.8672 0.0
C1058 C 0.66584 0.72839 0.86545 0.0
C1059 C 0.6851 0.73591 0.84472 0.0
C1060 C 0.62988 0.73022 0.86505 0.0
C1061 C 0.61236 0.73915 0.84384 0.0
C1062 C 0.63153 0.74222 0.82246 0.0
C1063 C 0.6676 0.74092 0.82293 0.0
H1064 H 0.23371 0.47141 0.84025 0.0
H1065 H 0.22714 0.51213 0.91201 0.0
H1066 H 0.26499 0.52303 0.8273 0.0
H1067 H 0.25818 0.56352 0.89936 0.0
H1068 H 0.31402 0.65372 0.87526 0.0
H1069 H 0.30984 0.59201 0.8829 0.0
H1070 H 0.24067 0.58183 0.82261 0.0
H1071 H 0.24508 0.64334 0.81479 0.0
C1072 C 0.24029 0.49081 0.85342 0.0
C1073 C 0.22838 0.48797 0.87711 0.0
C1074 C 0.25787 0.52043 0.846 0.0
C1075 C 0.26388 0.54747 0.86225 0.0
C1076 C 0.25443 0.54305 0.88644 0.0
C1077 C 0.23661 0.51368 0.89374 0.0
C1078 C 0.29875 0.63818 0.86316 0.0
C1079 C 0.27917 0.65361 0.84477 0.0
C1080 C 0.2963 0.60281 0.86761 0.0
C1081 C 0.2744 0.58216 0.85368 0.0
C1082 C 0.25785 0.59696 0.83367 0.0
C1083 C 0.26023 0.63235 0.82925 0.0
H1084 H 0.51268 0.23794 0.8789 0.0
H1085 H 0.49365 0.16668 0.82105 0.0
H1086 H 0.46018 0.26959 0.86843 0.0
H1087 H 0.44047 0.19651 0.81153 0.0
H1088 H 0.34044 0.24137 0.7998 0.0
H1089 H 0.40338 0.24063 0.79967 0.0
H1090 H 0.40329 0.2545 0.87668 0.0
H1091 H 0.3411 0.25706 0.87653 0.0
C1092 C 0.49775 0.22958 0.86357 0.0
C1093 C 0.50662 0.19928 0.85123 0.0
C1094 C 0.46744 0.24747 0.8577 0.0
C1095 C 0.44535 0.23508 0.8396 0.0
C1096 C 0.45653 0.20703 0.82559 0.0
C1097 C 0.48691 0.1895 0.83126 0.0
C1098 C 0.354 0.24526 0.81656 0.0
C1099 C 0.3358 0.24824 0.83826 0.0
C1100 C 0.3901 0.24468 0.81653 0.0
C1101 C 0.40861 0.24648 0.83824 0.0
C1102 C 0.39025 0.2531 0.85954 0.0
C1103 C 0.3543 0.25419 0.85951 0.0
H1104 H 0.27786 0.38505 0.41035 0.0
H1105 H 0.26523 0.39164 0.33351 0.0
H1106 H 0.26571 0.44671 0.41382 0.0
H1107 H 0.25338 0.45339 0.3369 0.0
H1108 H 0.19347 0.55225 0.35651 0.0
H1109 H 0.20694 0.49089 0.35307 0.0
H1110 H 0.29093 0.50293 0.40324 0.0
H1111 H 0.27731 0.56408 0.4069 0.0
C1112 C 0.27284 0.39981 0.3942 0.0
C1113 C 0.2725 0.38369 0.37167 0.0
C1114 C 0.26596 0.43509 0.39616 0.0
C1115 C 0.25843 0.45487 0.37564 0.0
C1116 C 0.25863 0.43874 0.35306 0.0
C1117 C 0.26569 0.40349 0.3511 0.0
C1118 C 0.21474 0.54178 0.36685 0.0
C1119 C 0.23431 0.56304 0.38197 0.0
C1120 C 0.2226 0.5067 0.36475 0.0
C1121 C 0.25007 0.49212 0.37783 0.0
C1122 C 0.26942 0.51334 0.3931 0.0
C1123 C 0.26168 0.54841 0.39511 0.0
H1124 H 0.48423 0.20381 0.34934 0.0
H1125 H 0.47511 0.293 0.39533 0.0
H1126 H 0.54604 0.21414 0.34533 0.0
H1127 H 0.53684 0.3034 0.39115 0.0
H1128 H 0.65251 0.27709 0.40432 0.0
H1129 H 0.58972 0.27356 0.40512 0.0
H1130 H 0.58876 0.2558 0.32862 0.0
H1131 H 0.65188 0.25925 0.32787 0.0
C1132 C 0.49535 0.22575 0.35845 0.0
C1133 C 0.47478 0.24744 0.37279 0.0
C1134 C 0.53071 0.23181 0.35601 0.0
C1135 C 0.54631 0.25955 0.36796 0.0
C1136 C 0.52562 0.28161 0.38192 0.0
C1137 C 0.49023 0.27569 0.38424 0.0
C1138 C 0.63885 0.27285 0.38763 0.0
C1139 C 0.65697 0.26832 0.36605 0.0
C1140 C 0.60289 0.27098 0.38807 0.0
C1141 C 0.58429 0.26429 0.36694 0.0
C1142 C 0.60243 0.26064 0.34521 0.0
C1143 C 0.63847 0.26281 0.34475 0.0
H1144 H 0.80378 0.66097 0.39558 0.0
H1145 H 0.70005 0.64823 0.3692 0.0
H1146 H 0.81104 0.59857 0.39752 0.0
H1147 H 0.70747 0.58561 0.37035 0.0
H1148 H 0.72058 0.47405 0.3949 0.0
H1149 H 0.71276 0.53638 0.39538 0.0
H1150 H 0.81869 0.54936 0.37307 0.0
H1151 H 0.82673 0.48698 0.37334 0.0
C1152 C 0.78247 0.64476 0.3902 0.0
C1153 C 0.75131 0.65954 0.38229 0.0
C1154 C 0.78672 0.60888 0.3911 0.0
C1155 C 0.75998 0.58669 0.38395 0.0
C1156 C 0.72857 0.60165 0.37631 0.0
C1157 C 0.72428 0.63761 0.37555 0.0
C1158 C 0.74229 0.49018 0.39018 0.0
C1159 C 0.77433 0.47534 0.3841 0.0
C1160 C 0.73771 0.52607 0.39028 0.0
C1161 C 0.765 0.54826 0.38421 0.0
C1162 C 0.79713 0.53334 0.37823 0.0
C1163 C 0.80174 0.49742 0.37824 0.0
H1164 H 0.54296 0.80371 0.35014 0.0
H1165 H 0.5494 0.70205 0.38171 0.0
H1166 H 0.48057 0.79775 0.34654 0.0
H1167 H 0.48683 0.6962 0.37808 0.0
H1168 H 0.372 0.72567 0.39626 0.0
H1169 H 0.43498 0.725 0.39699 0.0
H1170 H 0.43698 0.76193 0.32386 0.0
H1171 H 0.37376 0.7625 0.32313 0.0
C1172 C 0.53107 0.78009 0.35631 0.0
C1173 C 0.5511 0.75339 0.36629 0.0
C1174 C 0.49539 0.77657 0.35404 0.0
C1175 C 0.47891 0.74644 0.36191 0.0
C1176 C 0.49888 0.71975 0.37194 0.0
C1177 C 0.53467 0.7231 0.37398 0.0
C1178 C 0.38592 0.73314 0.38023 0.0
C1179 C 0.36814 0.74427 0.35966 0.0
C1180 C 0.42194 0.73264 0.38063 0.0
C1181 C 0.44084 0.74363 0.36054 0.0
C1182 C 0.423 0.75368 0.33968 0.0
C1183 C 0.38692 0.75379 0.33919 0.0
H1184 H 0.24494 0.61963 0.16879 0.0
H1185 H 0.27849 0.61813 0.09492 0.0
H1186 H 0.23736 0.55714 0.16777 0.0
H1187 H 0.2708 0.55561 0.09382 0.0
H1188 H 0.28515 0.43973 0.11011 0.0
H1189 H 0.29537 0.50173 0.11176 0.0
H1190 H 0.19741 0.51632 0.14736 0.0
H1191 H 0.18719 0.45437 0.14585 0.0
C1192 C 0.25089 0.60586 0.15239 0.0
C1193 C 0.26225 0.62359 0.13192 0.0
C1194 C 0.24634 0.57017 0.15175 0.0
C1195 C 0.25331 0.55153 0.13068 0.0
C1196 C 0.26546 0.56926 0.11036 0.0
C1197 C 0.26976 0.605 0.11096 0.0
C1198 C 0.26578 0.45616 0.11829 0.0
C1199 C 0.23536 0.44213 0.12786 0.0
C1200 C 0.27159 0.49166 0.11913 0.0
C1201 C 0.24724 0.51384 0.12975 0.0
C1202 C 0.21684 0.49981 0.13933 0.0
C1203 C 0.21089 0.46435 0.13832 0.0
H1204 H 0.50832 0.18887 0.09338 0.0
H1205 H 0.51926 0.2673 0.14771 0.0
H1206 H 0.44627 0.19843 0.09283 0.0
H1207 H 0.45666 0.27658 0.14739 0.0
H1208 H 0.34379 0.30345 0.12389 0.0
H1209 H 0.40706 0.29797 0.12339 0.0
H1210 H 0.39753 0.18735 0.11838 0.0
H1211 H 0.33504 0.19292 0.11861 0.0
C1212 C 0.49753 0.2082 0.10525 0.0
C1213 C 0.51899 0.22716 0.12068 0.0
C1214 C 0.46176 0.21358 0.10502 0.0
C1215 C 0.44617 0.23812 0.1202 0.0
C1216 C 0.46767 0.25764 0.13532 0.0
C1217 C 0.5036 0.25216 0.13561 0.0
C1218 C 0.35535 0.27804 0.12259 0.0
C1219 C 0.33436 0.24865 0.12117 0.0
C1220 C 0.39159 0.27484 0.12245 0.0
C1221 C 0.40761 0.24219 0.12069 0.0
C1222 C 0.38636 0.21295 0.11933 0.0
C1223 C 0.35038 0.21614 0.11959 0.0
H1224 H 0.70344 0.53721 0.14014 0.0
H1225 H 0.79998 0.52303 0.10262 0.0
H1226 H 0.69404 0.47513 0.13962 0.0
H1227 H 0.79021 0.461 0.10159 0.0
H1228 H 0.78353 0.35135 0.13109 0.0
H1229 H 0.79054 0.41349 0.12903 0.0
H1230 H 0.68153 0.42538 0.11479 0.0
H1231 H 0.67449 0.36262 0.1174 0.0
C1232 C 0.72255 0.5209 0.13157 0.0
C1233 C 0.75262 0.53518 0.12156 0.0
C1234 C 0.71701 0.48523 0.13113 0.0
C1235 C 0.7414 0.46287 0.12067 0.0
C1236 C 0.7711 0.4773 0.11017 0.0
C1237 C 0.77665 0.51296 0.11064 0.0
C1238 C 0.76102 0.36718 0.12747 0.0
C1239 C 0.72844 0.35209 0.12441 0.0
C1240 C 0.7651 0.40289 0.1261 0.0
C1241 C 0.73669 0.42463 0.12158 0.0
C1242 C 0.70396 0.40949 0.1185 0.0
C1243 C 0.69989 0.37356 0.11987 0.0
H1244 H 0.4661 0.81055 0.14933 0.0
H1245 H 0.4562 0.71697 0.10797 0.0
H1246 H 0.52844 0.8009 0.15211 0.0
H1247 H 0.5182 0.70741 0.11084 0.0
H1248 H 0.63211 0.73242 0.09272 0.0
H1249 H 0.56937 0.73694 0.09368 0.0
H1250 H 0.57316 0.75991 0.16944 0.0
H1251 H 0.63633 0.75528 0.16844 0.0
C1252 C 0.47715 0.78784 0.14098 0.0
C1253 C 0.45619 0.76467 0.1283 0.0
C1254 C 0.5128 0.7822 0.14271 0.0
C1255 C 0.52822 0.75345 0.13161 0.0
C1256 C 0.50713 0.72998 0.11936 0.0
C1257 C 0.47156 0.73545 0.11779 0.0
C1258 C 0.61953 0.73799 0.10964 0.0
C1259 C 0.639 0.74346 0.1305 0.0
C1260 C 0.58359 0.74049 0.11022 0.0
C1261 C 0.56632 0.74885 0.13163 0.0
C1262 C 0.5858 0.75372 0.15265 0.0
C1263 C 0.62185 0.75081 0.15212 0.0
H1264 H 0.30587 0.29606 0.31698 0.0
H1265 H 0.30821 0.18782 0.29975 0.0
H1266 H 0.27616 0.30839 0.27956 0.0
H1267 H 0.28043 0.2001 0.26127 0.0
H1268 H 0.20586 0.23045 0.20193 0.0
H1269 H 0.22835 0.218 0.24191 0.0
H1270 H 0.28984 0.31064 0.23869 0.0
H1271 H 0.26621 0.32376 0.19943 0.0
C1272 C 0.29927 0.27485 0.30534 0.0
C1273 C 0.30822 0.241 0.31149 0.0
C1274 C 0.28299 0.28192 0.28362 0.0
C1275 C 0.27594 0.25525 0.26734 0.0
C1276 C 0.28489 0.22119 0.27358 0.0
C1277 C 0.30099 0.21414 0.29548 0.0
C1278 C 0.22396 0.24824 0.20993 0.0
C1279 C 0.23423 0.27812 0.19764 0.0
C1280 C 0.23702 0.24101 0.23274 0.0
C1281 C 0.26089 0.26331 0.24353 0.0
C1282 C 0.27095 0.29326 0.23118 0.0
C1283 C 0.25755 0.30071 0.20858 0.0
H1284 H 0.79439 0.26393 0.31097 0.0
H1285 H 0.72746 0.35279 0.31423 0.0
H1286 H 0.76721 0.24581 0.27403 0.0
H1287 H 0.69777 0.33349 0.27796 0.0
H1288 H 0.68172 0.31174 0.19753 0.0
H1289 H 0.70166 0.32917 0.23718 0.0
H1290 H 0.7223 0.22217 0.25463 0.0
H1291 H 0.70541 0.20577 0.21422 0.0
C1292 C 0.77303 0.27905 0.304 0.0
C1293 C 0.76282 0.30954 0.31541 0.0
C1294 C 0.75712 0.26857 0.28282 0.0
C1295 C 0.72982 0.28789 0.27275 0.0
C1296 C 0.71901 0.31812 0.28473 0.0
C1297 C 0.73575 0.32913 0.30565 0.0
C1298 C 0.69029 0.29211 0.21007 0.0
C1299 C 0.69236 0.25753 0.20294 0.0
C1300 C 0.70157 0.30197 0.23291 0.0
C1301 C 0.71426 0.27725 0.24932 0.0
C1302 C 0.71404 0.24228 0.24242 0.0
C1303 C 0.70394 0.23268 0.21934 0.0
H1304 H 0.7075 0.80297 0.28702 0.0
H1305 H 0.71269 0.69514 0.3053 0.0
H1306 H 0.71332 0.78878 0.24456 0.0
H1307 H 0.7215 0.68057 0.26324 0.0
H1308 H 0.72439 0.65719 0.1859 0.0
H1309 H 0.70165 0.67488 0.2248 0.0
H1310 H 0.75454 0.77247 0.2177 0.0
H1311 H 0.77473 0.7555 0.17828 0.0
C1312 C 0.7101 0.7762 0.28177 0.0
C1313 C 0.70988 0.75005 0.29907 0.0
C1314 C 0.71369 0.76798 0.25751 0.0
C1315 C 0.71828 0.73347 0.25024 0.0
C1316 C 0.71735 0.70735 0.26786 0.0
C1317 C 0.71272 0.71559 0.29202 0.0
C1318 C 0.73037 0.68269 0.19258 0.0
C1319 C 0.75135 0.70498 0.17929 0.0
C1320 C 0.71769 0.69276 0.21497 0.0
C1321 C 0.72672 0.72491 0.22483 0.0
C1322 C 0.74648 0.74773 0.21081 0.0
C1323 C 0.75832 0.73797 0.18817 0.0
H1324 H 0.25756 0.76777 0.3183 0.0
H1325 H 0.2027 0.6813 0.28877 0.0
H1326 H 0.2773 0.7836 0.27826 0.0
H1327 H 0.22043 0.69803 0.24864 0.0
H1328 H 0.29172 0.71191 0.18417 0.0
H1329 H 0.26845 0.69784 0.22343 0.0
H1330 H 0.26237 0.80642 0.24045 0.0
H1331 H 0.28665 0.82015 0.2011 0.0
C1332 C 0.24982 0.75209 0.3033 0.0
C1333 C 0.2293 0.72285 0.3069 0.0
C1334 C 0.26064 0.76146 0.28018 0.0
C1335 C 0.25074 0.74201 0.25998 0.0
C1336 C 0.22937 0.71325 0.26365 0.0
C1337 C 0.21897 0.70374 0.28675 0.0
C1338 C 0.28445 0.73276 0.19602 0.0
C1339 C 0.2903 0.76711 0.18934 0.0
C1340 C 0.27124 0.72475 0.2187 0.0
C1341 C 0.26334 0.75094 0.23534 0.0
C1342 C 0.26858 0.78546 0.22838 0.0
C1343 C 0.28216 0.79342 0.20571 0.0
H1344 H 0.78655 0.8361 0.71107 0.0
H1345 H 0.72462 0.74381 0.70961 0.0
H1346 H 0.80855 0.81987 0.75046 0.0
H1347 H 0.74582 0.72809 0.74926 0.0
H1348 H 0.82267 0.69031 0.80611 0.0
H1349 H 0.7981 0.70762 0.76756 0.0
H1350 H 0.79354 0.81336 0.79183 0.0
H1351 H 0.81956 0.79604 0.82985 0.0
C1352 C 0.77727 0.81259 0.71928 0.0
C1353 C 0.754 0.79116 0.70712 0.0
C1354 C 0.78978 0.80333 0.74194 0.0
C1355 C 0.77912 0.77254 0.75301 0.0
C1356 C 0.75511 0.75162 0.74108 0.0
C1357 C 0.74278 0.76077 0.71839 0.0
C1358 C 0.81628 0.71719 0.80316 0.0
C1359 C 0.82229 0.74177 0.82109 0.0
C1360 C 0.80196 0.72712 0.78117 0.0
C1361 C 0.79358 0.76188 0.77662 0.0
C1362 C 0.79985 0.78643 0.79462 0.0
C1363 C 0.81421 0.77647 0.81657 0.0
H1364 H 0.30493 0.80349 0.78135 0.0
H1365 H 0.21025 0.76085 0.8093 0.0
H1366 H 0.28635 0.78955 0.74058 0.0
H1367 H 0.1921 0.7465 0.76858 0.0
H1368 H 0.19373 0.69051 0.69485 0.0
H1369 H 0.21303 0.70503 0.73549 0.0
H1370 H 0.23686 0.80818 0.71182 0.0
H1371 H 0.21535 0.79388 0.6718 0.0
C1372 C 0.28015 0.79123 0.77882 0.0
C1373 C 0.25912 0.78323 0.79862 0.0
C1374 C 0.26952 0.78332 0.75547 0.0
C1375 C 0.2379 0.76673 0.75144 0.0
C1376 C 0.21678 0.75893 0.77119 0.0
C1377 C 0.22711 0.76737 0.79449 0.0
C1378 C 0.2034 0.71617 0.69835 0.0
C1379 C 0.20489 0.74075 0.67986 0.0
C1380 C 0.21431 0.7245 0.72158 0.0
C1381 C 0.22693 0.7576 0.72673 0.0
C1382 C 0.22819 0.78219 0.70822 0.0
C1383 C 0.21675 0.7739 0.68514 0.0
H1384 H 0.20247 0.2042 0.81682 0.0
H1385 H 0.20681 0.3133 0.80182 0.0
H1386 H 0.22746 0.19187 0.77773 0.0
H1387 H 0.2297 0.30111 0.76203 0.0
H1388 H 0.2973 0.27079 0.69963 0.0
H1389 H 0.27843 0.28164 0.74066 0.0
H1390 H 0.21217 0.19235 0.73717 0.0
H1391 H 0.23248 0.18063 0.69676 0.0
C1392 C 0.20904 0.22554 0.80519 0.0
C1393 C 0.2034 0.25968 0.81247 0.0
C1394 C 0.22285 0.2185 0.78262 0.0
C1395 C 0.23061 0.24549 0.76668 0.0
C1396 C 0.22473 0.27971 0.77401 0.0
C1397 C 0.21131 0.28672 0.79671 0.0
C1398 C 0.27886 0.25343 0.70776 0.0
C1399 C 0.26633 0.22489 0.69509 0.0
C1400 C 0.26788 0.25973 0.7312 0.0
C1401 C 0.24367 0.23795 0.74222 0.0
C1402 C 0.23133 0.20929 0.72947 0.0
C1403 C 0.24279 0.20266 0.70622 0.0
H1404 H 0.79377 0.21292 0.82552 0.0
H1405 H 0.69065 0.20518 0.7971 0.0
H1406 H 0.81457 0.23326 0.78672 0.0
H1407 H 0.71153 0.22391 0.75787 0.0
H1408 H 0.75231 0.28815 0.69661 0.0
H1409 H 0.73321 0.27306 0.73674 0.0
H1410 H 0.82558 0.21192 0.74691 0.0
H1411 H 0.84518 0.22783 0.70671 0.0
C1412 C 0.77544 0.2163 0.81107 0.0
C1413 C 0.74045 0.20849 0.8145 0.0
C1414 C 0.78746 0.22726 0.78868 0.0
C1415 C 0.76477 0.23032 0.76912 0.0
C1416 C 0.72967 0.22246 0.77262 0.0
C1417 C 0.71767 0.21156 0.79505 0.0
C1418 C 0.76867 0.27155 0.70738 0.0
C1419 C 0.80021 0.259 0.69836 0.0
C1420 C 0.75758 0.26275 0.7304 0.0
C1421 C 0.77763 0.24099 0.74504 0.0
C1422 C 0.8096 0.22901 0.73623 0.0
C1423 C 0.82082 0.238 0.71315 0.0
H1424 H 0.07319 0.42095 0.09898 0.0
H1425 H 0.97957 0.382 0.13106 0.0
H1426 H 0.04633 0.47776 0.09548 0.0
H1427 H 0.95194 0.43712 0.12541 0.0
H1428 H 0.92385 0.5494 0.13843 0.0
H1429 H 0.94899 0.49187 0.14049 0.0
H1430 H 0.00598 0.51192 0.07518 0.0
H1431 H 0.98205 0.57027 0.07418 0.0
C1432 C 0.04686 0.4243 0.10507 0.0
C1433 C 0.02859 0.39649 0.11499 0.0
C1434 C 0.03117 0.45683 0.10272 0.0
C1435 C 0.9967 0.46229 0.11003 0.0
C1436 C 0.97857 0.43438 0.11985 0.0
C1437 C 0.99437 0.40227 0.12262 0.0
C1438 C 0.94115 0.54111 0.12427 0.0
C1439 C 0.95081 0.56404 0.10606 0.0
C1440 C 0.95571 0.50808 0.12539 0.0
C1441 C 0.97986 0.49697 0.10805 0.0
C1442 C 0.98819 0.51962 0.08918 0.0
C1443 C 0.97408 0.55287 0.08834 0.0
H1444 H 0.42924 0.9441 0.0948 0.0
H1445 H 0.38886 0.01038 0.15055 0.0
H1446 H 0.48327 0.97553 0.09564 0.0
H1447 H 0.44109 0.04399 0.14952 0.0
H1448 H 0.55216 0.07665 0.16057 0.0
H1449 H 0.49771 0.04585 0.16033 0.0
H1450 H 0.51018 0.02604 0.08435 0.0
H1451 H 0.56605 0.05491 0.08538 0.0
C1452 C 0.43179 0.96533 0.10725 0.0
C1453 C 0.40439 0.9747 0.12248 0.0
C1454 C 0.46263 0.98393 0.10737 0.0
C1455 C 0.46668 0.01279 0.12242 0.0
C1456 C 0.43938 0.02181 0.13784 0.0
C1457 C 0.40897 1.00276 0.13813 0.0
C1458 C 0.54277 0.06621 0.14378 0.0
C1459 C 0.56287 0.06833 0.12295 0.0
C1460 C 0.51151 0.04852 0.14356 0.0
C1461 C 0.4993 0.03311 0.12232 0.0
C1462 C 0.51897 0.03672 0.1012 0.0
C1463 C 0.55068 0.05375 0.1016 0.0
H1464 H 0.06401 0.58677 0.41392 0.0
H1465 H 1.00285 0.62535 0.35491 0.0
H1466 H 0.03723 0.52994 0.40938 0.0
H1467 H 0.97627 0.56874 0.3503 0.0
H1468 H 0.97603 0.45036 0.3333 0.0
H1469 H 0.99829 0.50879 0.33823 0.0
H1470 H 0.97533 0.50427 0.414 0.0
H1471 H 0.95263 0.4457 0.40892 0.0
C1472 C 0.04507 0.58294 0.3999 0.0
C1473 C 0.03545 0.61026 0.38475 0.0
C1474 C 0.02951 0.55067 0.39748 0.0
C1475 C 0.00455 0.54515 0.37961 0.0
C1476 C 0.99545 0.57235 0.3642 0.0
C1477 C 0.01059 0.60466 0.36685 0.0
C1478 C 0.97519 0.46221 0.35089 0.0
C1479 C 0.96257 0.44386 0.37073 0.0
C1480 C 0.98791 0.49551 0.35372 0.0
C1481 C 0.98873 0.51083 0.37652 0.0
C1482 C 0.97524 0.49282 0.39629 0.0
C1483 C 0.96196 0.45961 0.39337 0.0
H1484 H 0.58078 0.92805 0.39526 0.0
H1485 H 0.5955 0.97299 0.3252 0.0
H1486 H 0.52383 0.95619 0.398 0.0
H1487 H 0.53933 1.00111 0.32785 0.0
H1488 H 0.42382 0.01936 0.33054 0.0
H1489 H 0.47775 0.98702 0.32869 0.0
H1490 H 0.50142 0.01758 0.40132 0.0
H1491 H 0.44671 0.04953 0.40334 0.0
C1492 C 0.57151 0.94346 0.38035 0.0
C1493 C 0.59225 0.94839 0.36001 0.0
C1494 C 0.53925 0.95984 0.38199 0.0
C1495 C 0.52721 0.98098 0.36317 0.0
C1496 C 0.54768 0.98479 0.34255 0.0
C1497 C 0.57983 0.96876 0.34103 0.0
C1498 C 0.4405 0.01915 0.34613 0.0
C1499 C 0.43109 0.03699 0.36708 0.0
C1500 C 0.47144 1.00072 0.34505 0.0
C1501 C 0.49376 0.99964 0.36489 0.0
C1502 C 0.4845 0.01761 0.38585 0.0
C1503 C 0.4535 0.03628 0.3869 0.0
H1504 H 0.08754 0.43983 0.92052 0.0
H1505 H 0.11158 0.49346 0.85471 0.0
H1506 H 0.02865 0.46349 0.91919 0.0
H1507 H 0.05328 0.51717 0.8535 0.0
H1508 H 0.93569 0.51618 0.84474 0.0
H1509 H 0.99405 0.49279 0.84752 0.0
H1510 H 0.99903 0.52332 0.92193 0.0
H1511 H 0.94014 0.54667 0.91915 0.0
C1512 C 0.08016 0.45654 0.90579 0.0
C1513 C 0.10404 0.46495 0.88777 0.0
C1514 C 0.04669 0.4703 0.90514 0.0
C1515 C 0.03652 0.4922 0.88627 0.0
C1516 C 0.06037 0.50022 0.86818 0.0
C1517 C 0.09376 0.48682 0.86895 0.0
C1518 C 0.94926 0.51789 0.86169 0.0
C1519 C 0.93347 0.53315 0.88175 0.0
C1520 C 0.98267 0.50467 0.86325 0.0
C1521 C 1.00097 0.5062 0.88495 0.0
C1522 C 0.98531 0.52157 0.90505 0.0
C1523 C 0.95187 0.5352 0.90341 0.0
H1524 H 0.52308 0.0774 0.8365 0.0
H1525 H 0.54963 0.07261 0.91165 0.0
H1526 H 0.50291 0.01804 0.83808 0.0
H1527 H 0.52941 0.01263 0.91325 0.0
H1528 H 0.45072 0.91914 0.9068 0.0
H1529 H 0.4707 0.97936 0.90776 0.0
H1530 H 0.53216 0.96062 0.84442 0.0
H1531 H 0.5123 0.9013 0.84341 0.0
C1532 C 0.52469 0.0635 0.85334 0.0
C1533 C 0.53795 0.07945 0.87394 0.0
C1534 C 0.51321 0.02957 0.85424 0.0
C1535 C 0.51453 0.01084 0.8758 0.0
C1536 C 0.52785 0.02668 0.89647 0.0
C1537 C 0.53976 0.06071 0.8955 0.0
C1538 C 0.46843 0.92813 0.89314 0.0
C1539 C 0.48018 0.90566 0.87515 0.0
C1540 C 0.48004 0.96232 0.89378 0.0
C1541 C 0.50299 0.97451 0.87617 0.0
C1542 C 0.51436 0.95198 0.85814 0.0
C1543 C 0.50313 0.918 0.85765 0.0
H1544 H 0.0588 0.58167 0.5864 0.0
H1545 H 0.10758 0.50154 0.62846 0.0
H1546 H 1.00333 0.5527 0.59097 0.0
H1547 H 0.05345 0.47129 0.63127 0.0
H1548 H 0.94582 0.43754 0.65067 0.0
H1549 H 0.99977 0.46912 0.64836 0.0
H1550 H 0.97227 0.50496 0.57728 0.0
H1551 H 0.91728 0.47478 0.58048 0.0
C1552 C 0.05768 0.558 0.59669 0.0
C1553 C 0.08776 0.54371 0.60674 0.0
C1554 C 0.02599 0.54101 0.59898 0.0
C1555 C 0.02376 0.50923 0.61121 0.0
C1556 C 0.05376 0.49574 0.62191 0.0
C1557 C 0.0851 0.51293 0.61997 0.0
C1558 C 0.9517 0.45171 0.63442 0.0
C1559 C 0.9277 0.45344 0.61564 0.0
C1560 C 0.98263 0.46994 0.63304 0.0
C1561 C 0.99062 0.48984 0.61262 0.0
C1562 C 0.96684 0.49063 0.59352 0.0
C1563 C 0.93558 0.47291 0.59513 0.0
H1564 H 0.50956 0.91962 0.64989 0.0
H1565 H 0.60057 0.95876 0.61449 0.0
H1566 H 0.48226 0.97588 0.64678 0.0
H1567 H 0.57331 0.01599 0.6123 0.0
H1568 H 0.52327 0.11827 0.64133 0.0
H1569 H 0.55165 0.06234 0.64197 0.0
H1570 H 0.45993 0.0154 0.61318 0.0
H1571 H 0.4316 0.07197 0.61144 0.0
C1572 C 0.52374 0.94015 0.64122 0.0
C1573 C 0.5571 0.93428 0.6319 0.0
C1574 C 0.50798 0.97247 0.63952 0.0
C1575 C 0.52535 1.0002 0.62896 0.0
C1576 C 0.55923 0.99497 0.62046 0.0
C1577 C 0.57492 0.96228 0.62183 0.0
C1578 C 0.50919 0.0963 0.63457 0.0
C1579 C 0.47515 0.09999 0.62588 0.0
C1580 C 0.52558 0.06415 0.63507 0.0
C1581 C 0.50821 0.03455 0.62743 0.0
C1582 C 0.47397 0.03785 0.61921 0.0
C1583 C 0.45766 0.07023 0.61834 0.0
loop_
_geom_bond_atom_site_label_1
_geom_bond_atom_site_label_2
_geom_bond_distance
_geom_bond_site_symmetry_2
_ccdc_geom_bond_type
O0 Tb1 2.292 . S
O0 C3 1.255 . S
Tb1 O0 2.292 . S
Tb1 O17 2.326 . S
Tb1 O19 2.500 . S
Tb1 O20 2.473 . S
Tb1 O23 2.324 . S
Eu2 O6 2.292 . S
Eu2 C7 2.852 . S
Eu2 O18 2.324 . S
Eu2 O22 2.326 . S
Eu2 O24 2.500 . S
Eu2 O25 2.473 . S
C3 O0 1.255 . S
C3 O4 1.247 . S
O4 C3 1.247 . S
C5 O17 1.242 . S
C5 O18 1.258 . S
O6 Eu2 2.292 . S
O6 C8 1.255 . S
C7 Eu2 2.852 . S
C7 C11 1.503 . S
C7 O24 1.273 . S
C7 O25 1.257 . S
C8 O6 1.255 . S
C8 O9 1.247 . S
O9 C8 1.247 . S
C10 O22 1.242 . S
C10 O23 1.258 . S
C11 C7 1.503 . S
C11 C12 1.379 . S
C11 C16 1.392 . S
C12 C11 1.379 . S
C12 C13 1.404 . S
C12 H26 0.929 . S
C13 C12 1.404 . S
C13 C14 1.389 . S
C14 C13 1.389 . S
C14 C15 1.399 . S
C14 H27 0.931 . S
C15 C14 1.399 . S
C15 C16 1.390 . S
C16 C11 1.392 . S
C16 C15 1.390 . S
C16 H28 0.929 . S
O17 Tb1 2.326 . S
O17 C5 1.242 . S
O18 Eu2 2.324 . S
O18 C5 1.258 . S
O19 Tb1 2.500 . S
O19 C21 1.273 . S
O20 Tb1 2.473 . S
O20 C21 1.257 . S
C21 O19 1.273 . S
C21 O20 1.257 . S
O22 Eu2 2.326 . S
O22 C10 1.242 . S
O23 Tb1 2.324 . S
O23 C10 1.258 . S
O24 Eu2 2.500 . S
O24 C7 1.273 . S
O25 Eu2 2.473 . S
O25 C7 1.257 . S
H26 C12 0.929 . S
H27 C14 0.931 . S
H28 C16 0.929 . S
O29 Tb30 2.292 . S
O29 C32 1.255 . S
Tb30 O29 2.292 . S
Tb30 O46 2.326 . S
Tb30 O48 2.500 . S
Tb30 O49 2.473 . S
Tb30 O52 2.324 . S
Eu31 O35 2.292 . S
Eu31 C36 2.852 . S
Eu31 O47 2.324 . S
Eu31 O51 2.326 . S
Eu31 O53 2.500 . S
Eu31 O54 2.473 . S
C32 O29 1.255 . S
C32 O33 1.247 . S
O33 C32 1.247 . S
C34 O46 1.242 . S
C34 O47 1.258 . S
O35 Eu31 2.292 . S
O35 C37 1.255 . S
C36 Eu31 2.852 . S
C36 C40 1.503 . S
C36 O53 1.273 . S
C36 O54 1.257 . S
C37 O35 1.255 . S
C37 O38 1.247 . S
O38 C37 1.247 . S
C39 O51 1.242 . S
C39 O52 1.258 . S
C40 C36 1.503 . S
C40 C41 1.379 . S
C40 C45 1.392 . S
C41 C40 1.379 . S
C41 C42 1.404 . S
C41 H55 0.929 . S
C42 C41 1.404 . S
C42 C43 1.389 . S
C43 C42 1.389 . S
C43 C44 1.399 . S
C43 H56 0.931 . S
C44 C43 1.399 . S
C44 C45 1.390 . S
C45 C40 1.392 . S
C45 C44 1.390 . S
C45 H57 0.929 . S
O46 Tb30 2.326 . S
O46 C34 1.242 . S
O47 Eu31 2.324 . S
O47 C34 1.258 . S
O48 Tb30 2.500 . S
O48 C50 1.273 . S
O49 Tb30 2.473 . S
O49 C50 1.257 . S
C50 O48 1.273 . S
C50 O49 1.257 . S
O51 Eu31 2.326 . S
O51 C39 1.242 . S
O52 Tb30 2.324 . S
O52 C39 1.258 . S
O53 Eu31 2.500 . S
O53 C36 1.273 . S
O54 Eu31 2.473 . S
O54 C36 1.257 . S
H55 C41 0.929 . S
H56 C43 0.931 . S
H57 C45 0.929 . S
O58 Tb59 2.292 . S
O58 C61 1.255 . S
Tb59 O58 2.292 . S
Tb59 O75 2.326 . S
Tb59 O77 2.500 . S
Tb59 O78 2.473 . S
Tb59 O81 2.324 . S
Eu60 O64 2.292 . S
Eu60 C65 2.852 . S
Eu60 O76 2.324 . S
Eu60 O80 2.326 . S
Eu60 O82 2.500 . S
Eu60 O83 2.473 . S
C61 O58 1.255 . S
C61 O62 1.247 . S
O62 C61 1.247 . S
C63 O75 1.242 . S
C63 O76 1.258 . S
O64 Eu60 2.292 . S
O64 C66 1.255 . S
C65 Eu60 2.852 . S
C65 C69 1.503 . S
C65 O82 1.273 . S
C65 O83 1.257 . S
C66 O64 1.255 . S
C66 O67 1.247 . S
O67 C66 1.247 . S
C68 O80 1.242 . S
C68 O81 1.258 . S
C69 C65 1.503 . S
C69 C70 1.379 . S
C69 C74 1.392 . S
C70 C69 1.379 . S
C70 C71 1.404 . S
C70 H84 0.929 . S
C71 C70 1.404 . S
C71 C72 1.389 . S
C72 C71 1.389 . S
C72 C73 1.399 . S
C72 H85 0.931 . S
C73 C72 1.399 . S
C73 C74 1.390 . S
C74 C69 1.392 . S
C74 C73 1.390 . S
C74 H86 0.929 . S
O75 Tb59 2.326 . S
O75 C63 1.242 . S
O76 Eu60 2.324 . S
O76 C63 1.258 . S
O77 Tb59 2.500 . S
O77 C79 1.273 . S
O78 Tb59 2.473 . S
O78 C79 1.257 . S
C79 O77 1.273 . S
C79 O78 1.257 . S
O80 Eu60 2.326 . S
O80 C68 1.242 . S
O81 Tb59 2.324 . S
O81 C68 1.258 . S
O82 Eu60 2.500 . S
O82 C65 1.273 . S
O83 Eu60 2.473 . S
O83 C65 1.257 . S
H84 C70 0.929 . S
H85 C72 0.931 . S
H86 C74 0.929 . S
O87 Tb88 2.292 . S
O87 C90 1.255 . S
Tb88 O87 2.292 . S
Tb88 O104 2.326 . S
Tb88 O106 2.500 . S
Tb88 O107 2.473 . S
Tb88 O110 2.324 . S
Eu89 O93 2.292 . S
Eu89 C94 2.852 . S
Eu89 O105 2.324 . S
Eu89 O109 2.326 . S
Eu89 O111 2.500 . S
Eu89 O112 2.473 . S
C90 O87 1.255 . S
C90 O91 1.247 . S
O91 C90 1.247 . S
C92 O104 1.242 . S
C92 O105 1.258 . S
O93 Eu89 2.292 . S
O93 C95 1.255 . S
C94 Eu89 2.852 . S
C94 C98 1.503 . S
C94 O111 1.273 . S
C94 O112 1.257 . S
C95 O93 1.255 . S
C95 O96 1.247 . S
O96 C95 1.247 . S
C97 O109 1.242 . S
C97 O110 1.258 . S
C98 C94 1.503 . S
C98 C99 1.379 . S
C98 C103 1.392 . S
C99 C98 1.379 . S
C99 C100 1.404 . S
C99 H113 0.929 . S
C100 C99 1.404 . S
C100 C101 1.389 . S
C101 C100 1.389 . S
C101 C102 1.399 . S
C101 H114 0.931 . S
C102 C101 1.399 . S
C102 C103 1.390 . S
C103 C98 1.392 . S
C103 C102 1.390 . S
C103 H115 0.929 . S
O104 Tb88 2.326 . S
O104 C92 1.242 . S
O105 Eu89 2.324 . S
O105 C92 1.258 . S
O106 Tb88 2.500 . S
O106 C108 1.273 . S
O107 Tb88 2.473 . S
O107 C108 1.257 . S
C108 O106 1.273 . S
C108 O107 1.257 . S
O109 Eu89 2.326 . S
O109 C97 1.242 . S
O110 Tb88 2.324 . S
O110 C97 1.258 . S
O111 Eu89 2.500 . S
O111 C94 1.273 . S
O112 Eu89 2.473 . S
O112 C94 1.257 . S
H113 C99 0.929 . S
H114 C101 0.931 . S
H115 C103 0.929 . S
O116 Tb117 2.292 . S
O116 C119 1.255 . S
Tb117 O116 2.292 . S
Tb117 O133 2.326 . S
Tb117 O135 2.500 . S
Tb117 O136 2.473 . S
Tb117 O139 2.324 . S
Eu118 O122 2.292 . S
Eu118 C123 2.852 . S
Eu118 O134 2.324 . S
Eu118 O138 2.326 . S
Eu118 O140 2.500 . S
Eu118 O141 2.473 . S
C119 O116 1.255 . S
C119 O120 1.247 . S
O120 C119 1.247 . S
C121 O133 1.242 . S
C121 O134 1.258 . S
O122 Eu118 2.292 . S
O122 C124 1.255 . S
C123 Eu118 2.852 . S
C123 C127 1.503 . S
C123 O140 1.273 . S
C123 O141 1.257 . S
C124 O122 1.255 . S
C124 O125 1.247 . S
O125 C124 1.247 . S
C126 O138 1.242 . S
C126 O139 1.258 . S
C127 C123 1.503 . S
C127 C128 1.379 . S
C127 C132 1.392 . S
C128 C127 1.379 . S
C128 C129 1.404 . S
C128 H142 0.929 . S
C129 C128 1.404 . S
C129 C130 1.389 . S
C130 C129 1.389 . S
C130 C131 1.399 . S
C130 H143 0.931 . S
C131 C130 1.399 . S
C131 C132 1.390 . S
C132 C127 1.392 . S
C132 C131 1.390 . S
C132 H144 0.929 . S
O133 Tb117 2.326 . S
O133 C121 1.242 . S
O134 Eu118 2.324 . S
O134 C121 1.258 . S
O135 Tb117 2.500 . S
O135 C137 1.273 . S
O136 Tb117 2.473 . S
O136 C137 1.257 . S
C137 O135 1.273 . S
C137 O136 1.257 . S
O138 Eu118 2.326 . S
O138 C126 1.242 . S
O139 Tb117 2.324 . S
O139 C126 1.258 . S
O140 Eu118 2.500 . S
O140 C123 1.273 . S
O141 Eu118 2.473 . S
O141 C123 1.257 . S
H142 C128 0.929 . S
H143 C130 0.931 . S
H144 C132 0.929 . S
O145 Tb146 2.292 . S
O145 C148 1.255 . S
Tb146 O145 2.292 . S
Tb146 O162 2.326 . S
Tb146 O164 2.500 . S
Tb146 O165 2.473 . S
Tb146 O168 2.324 . S
Eu147 O151 2.292 . S
Eu147 C152 2.852 . S
Eu147 O163 2.324 . S
Eu147 O167 2.326 . S
Eu147 O169 2.500 . S
Eu147 O170 2.473 . S
C148 O145 1.255 . S
C148 O149 1.247 . S
O149 C148 1.247 . S
C150 O162 1.242 . S
C150 O163 1.258 . S
O151 Eu147 2.292 . S
O151 C153 1.255 . S
C152 Eu147 2.852 . S
C152 C156 1.503 . S
C152 O169 1.273 . S
C152 O170 1.257 . S
C153 O151 1.255 . S
C153 O154 1.247 . S
O154 C153 1.247 . S
C155 O167 1.242 . S
C155 O168 1.258 . S
C156 C152 1.503 . S
C156 C157 1.379 . S
C156 C161 1.392 . S
C157 C156 1.379 . S
C157 C158 1.404 . S
C157 H171 0.929 . S
C158 C157 1.404 . S
C158 C159 1.389 . S
C159 C158 1.389 . S
C159 C160 1.399 . S
C159 H172 0.931 . S
C160 C159 1.399 . S
C160 C161 1.390 . S
C161 C156 1.392 . S
C161 C160 1.390 . S
C161 H173 0.929 . S
O162 Tb146 2.326 . S
O162 C150 1.242 . S
O163 Eu147 2.324 . S
O163 C150 1.258 . S
O164 Tb146 2.500 . S
O164 C166 1.273 . S
O165 Tb146 2.473 . S
O165 C166 1.257 . S
C166 O164 1.273 . S
C166 O165 1.257 . S
O167 Eu147 2.326 . S
O167 C155 1.242 . S
O168 Tb146 2.324 . S
O168 C155 1.258 . S
O169 Eu147 2.500 . S
O169 C152 1.273 . S
O170 Eu147 2.473 . S
O170 C152 1.257 . S
H171 C157 0.929 . S
H172 C159 0.931 . S
H173 C161 0.929 . S
O174 Tb175 2.292 . S
O174 C177 1.255 . S
Tb175 O174 2.292 . S
Tb175 O191 2.326 . S
Tb175 O193 2.500 . S
Tb175 O194 2.473 . S
Tb175 O197 2.324 . S
Eu176 O180 2.292 . S
Eu176 C181 2.852 . S
Eu176 O192 2.324 . S
Eu176 O196 2.326 . S
Eu176 O198 2.500 . S
Eu176 O199 2.473 . S
C177 O174 1.255 . S
C177 O178 1.247 . S
O178 C177 1.247 . S
C179 O191 1.242 . S
C179 O192 1.258 . S
O180 Eu176 2.292 . S
O180 C182 1.255 . S
C181 Eu176 2.852 . S
C181 C185 1.503 . S
C181 O198 1.273 . S
C181 O199 1.257 . S
C182 O180 1.255 . S
C182 O183 1.247 . S
O183 C182 1.247 . S
C184 O196 1.242 . S
C184 O197 1.258 . S
C185 C181 1.503 . S
C185 C186 1.379 . S
C185 C190 1.392 . S
C186 C185 1.379 . S
C186 C187 1.404 . S
C186 H200 0.929 . S
C187 C186 1.404 . S
C187 C188 1.389 . S
C188 C187 1.389 . S
C188 C189 1.399 . S
C188 H201 0.931 . S
C189 C188 1.399 . S
C189 C190 1.390 . S
C190 C185 1.392 . S
C190 C189 1.390 . S
C190 H202 0.929 . S
O191 Tb175 2.326 . S
O191 C179 1.242 . S
O192 Eu176 2.324 . S
O192 C179 1.258 . S
O193 Tb175 2.500 . S
O193 C195 1.273 . S
O194 Tb175 2.473 . S
O194 C195 1.257 . S
C195 O193 1.273 . S
C195 O194 1.257 . S
O196 Eu176 2.326 . S
O196 C184 1.242 . S
O197 Tb175 2.324 . S
O197 C184 1.258 . S
O198 Eu176 2.500 . S
O198 C181 1.273 . S
O199 Eu176 2.473 . S
O199 C181 1.257 . S
H200 C186 0.929 . S
H201 C188 0.931 . S
H202 C190 0.929 . S
O203 Tb204 2.292 . S
O203 C206 1.255 . S
Tb204 O203 2.292 . S
Tb204 O220 2.326 . S
Tb204 O222 2.500 . S
Tb204 O223 2.473 . S
Tb204 O226 2.324 . S
Eu205 O209 2.292 . S
Eu205 C210 2.852 . S
Eu205 O221 2.324 . S
Eu205 O225 2.326 . S
Eu205 O227 2.500 . S
Eu205 O228 2.473 . S
C206 O203 1.255 . S
C206 O207 1.247 . S
O207 C206 1.247 . S
C208 O220 1.242 . S
C208 O221 1.258 . S
O209 Eu205 2.292 . S
O209 C211 1.255 . S
C210 Eu205 2.852 . S
C210 C214 1.503 . S
C210 O227 1.273 . S
C210 O228 1.257 . S
C211 O209 1.255 . S
C211 O212 1.247 . S
O212 C211 1.247 . S
C213 O225 1.242 . S
C213 O226 1.258 . S
C214 C210 1.503 . S
C214 C215 1.379 . S
C214 C219 1.392 . S
C215 C214 1.379 . S
C215 C216 1.404 . S
C215 H229 0.929 . S
C216 C215 1.404 . S
C216 C217 1.389 . S
C217 C216 1.389 . S
C217 C218 1.399 . S
C217 H230 0.931 . S
C218 C217 1.399 . S
C218 C219 1.390 . S
C219 C214 1.392 . S
C219 C218 1.390 . S
C219 H231 0.929 . S
O220 Tb204 2.326 . S
O220 C208 1.242 . S
O221 Eu205 2.324 . S
O221 C208 1.258 . S
O222 Tb204 2.500 . S
O222 C224 1.273 . S
O223 Tb204 2.473 . S
O223 C224 1.257 . S
C224 O222 1.273 . S
C224 O223 1.257 . S
O225 Eu205 2.326 . S
O225 C213 1.242 . S
O226 Tb204 2.324 . S
O226 C213 1.258 . S
O227 Eu205 2.500 . S
O227 C210 1.273 . S
O228 Eu205 2.473 . S
O228 C210 1.257 . S
H229 C215 0.929 . S
H230 C217 0.931 . S
H231 C219 0.929 . S
O232 Tb233 2.292 . S
O232 C235 1.255 . S
Tb233 O232 2.292 . S
Tb233 O249 2.326 . S
Tb233 O251 2.500 . S
Tb233 O252 2.473 . S
Tb233 O255 2.324 . S
Eu234 O238 2.292 . S
Eu234 C239 2.852 . S
Eu234 O250 2.324 . S
Eu234 O254 2.326 . S
Eu234 O256 2.500 . S
Eu234 O257 2.473 . S
C235 O232 1.255 . S
C235 O236 1.247 . S
O236 C235 1.247 . S
C237 O249 1.242 . S
C237 O250 1.258 . S
O238 Eu234 2.292 . S
O238 C240 1.255 . S
C239 Eu234 2.852 . S
C239 C243 1.503 . S
C239 O256 1.273 . S
C239 O257 1.257 . S
C240 O238 1.255 . S
C240 O241 1.247 . S
O241 C240 1.247 . S
C242 O254 1.242 . S
C242 O255 1.258 . S
C243 C239 1.503 . S
C243 C244 1.379 . S
C243 C248 1.392 . S
C244 C243 1.379 . S
C244 C245 1.404 . S
C244 H258 0.929 . S
C245 C244 1.404 . S
C245 C246 1.389 . S
C246 C245 1.389 . S
C246 C247 1.399 . S
C246 H259 0.931 . S
C247 C246 1.399 . S
C247 C248 1.390 . S
C248 C243 1.392 . S
C248 C247 1.390 . S
C248 H260 0.929 . S
O249 Tb233 2.326 . S
O249 C237 1.242 . S
O250 Eu234 2.324 . S
O250 C237 1.258 . S
O251 Tb233 2.500 . S
O251 C253 1.273 . S
O252 Tb233 2.473 . S
O252 C253 1.257 . S
C253 O251 1.273 . S
C253 O252 1.257 . S
O254 Eu234 2.326 . S
O254 C242 1.242 . S
O255 Tb233 2.324 . S
O255 C242 1.258 . S
O256 Eu234 2.500 . S
O256 C239 1.273 . S
O257 Eu234 2.473 . S
O257 C239 1.257 . S
H258 C244 0.929 . S
H259 C246 0.931 . S
H260 C248 0.929 . S
O261 Tb262 2.292 . S
O261 C264 1.255 . S
Tb262 O261 2.292 . S
Tb262 O278 2.326 . S
Tb262 O280 2.500 . S
Tb262 O281 2.473 . S
Tb262 O284 2.324 . S
Eu263 O267 2.292 . S
Eu263 C268 2.852 . S
Eu263 O279 2.324 . S
Eu263 O283 2.326 . S
Eu263 O285 2.500 . S
Eu263 O286 2.473 . S
C264 O261 1.255 . S
C264 O265 1.247 . S
O265 C264 1.247 . S
C266 O278 1.242 . S
C266 O279 1.258 . S
O267 Eu263 2.292 . S
O267 C269 1.255 . S
C268 Eu263 2.852 . S
C268 C272 1.503 . S
C268 O285 1.273 . S
C268 O286 1.257 . S
C269 O267 1.255 . S
C269 O270 1.247 . S
O270 C269 1.247 . S
C271 O283 1.242 . S
C271 O284 1.258 . S
C272 C268 1.503 . S
C272 C273 1.379 . S
C272 C277 1.392 . S
C273 C272 1.379 . S
C273 C274 1.404 . S
C273 H287 0.929 . S
C274 C273 1.404 . S
C274 C275 1.389 . S
C275 C274 1.389 . S
C275 C276 1.399 . S
C275 H288 0.931 . S
C276 C275 1.399 . S
C276 C277 1.390 . S
C277 C272 1.392 . S
C277 C276 1.390 . S
C277 H289 0.929 . S
O278 Tb262 2.326 . S
O278 C266 1.242 . S
O279 Eu263 2.324 . S
O279 C266 1.258 . S
O280 Tb262 2.500 . S
O280 C282 1.273 . S
O281 Tb262 2.473 . S
O281 C282 1.257 . S
C282 O280 1.273 . S
C282 O281 1.257 . S
O283 Eu263 2.326 . S
O283 C271 1.242 . S
O284 Tb262 2.324 . S
O284 C271 1.258 . S
O285 Eu263 2.500 . S
O285 C268 1.273 . S
O286 Eu263 2.473 . S
O286 C268 1.257 . S
H287 C273 0.929 . S
H288 C275 0.931 . S
H289 C277 0.929 . S
O290 Tb291 2.292 . S
O290 C293 1.255 . S
Tb291 O290 2.292 . S
Tb291 O307 2.326 . S
Tb291 O309 2.500 . S
Tb291 O310 2.473 . S
Tb291 O313 2.324 . S
Eu292 O296 2.292 . S
Eu292 C297 2.852 . S
Eu292 O308 2.324 . S
Eu292 O312 2.326 . S
Eu292 O314 2.500 . S
Eu292 O315 2.473 . S
C293 O290 1.255 . S
C293 O294 1.247 . S
O294 C293 1.247 . S
C295 O307 1.242 . S
C295 O308 1.258 . S
O296 Eu292 2.292 . S
O296 C298 1.255 . S
C297 Eu292 2.852 . S
C297 C301 1.503 . S
C297 O314 1.273 . S
C297 O315 1.257 . S
C298 O296 1.255 . S
C298 O299 1.247 . S
O299 C298 1.247 . S
C300 O312 1.242 . S
C300 O313 1.258 . S
C301 C297 1.503 . S
C301 C302 1.379 . S
C301 C306 1.392 . S
C302 C301 1.379 . S
C302 C303 1.404 . S
C302 H316 0.929 . S
C303 C302 1.404 . S
C303 C304 1.389 . S
C304 C303 1.389 . S
C304 C305 1.399 . S
C304 H317 0.931 . S
C305 C304 1.399 . S
C305 C306 1.390 . S
C306 C301 1.392 . S
C306 C305 1.390 . S
C306 H318 0.929 . S
O307 Tb291 2.326 . S
O307 C295 1.242 . S
O308 Eu292 2.324 . S
O308 C295 1.258 . S
O309 Tb291 2.500 . S
O309 C311 1.273 . S
O310 Tb291 2.473 . S
O310 C311 1.257 . S
C311 O309 1.273 . S
C311 O310 1.257 . S
O312 Eu292 2.326 . S
O312 C300 1.242 . S
O313 Tb291 2.324 . S
O313 C300 1.258 . S
O314 Eu292 2.500 . S
O314 C297 1.273 . S
O315 Eu292 2.473 . S
O315 C297 1.257 . S
H316 C302 0.929 . S
H317 C304 0.931 . S
H318 C306 0.929 . S
O319 Tb320 2.292 . S
O319 C322 1.255 . S
Tb320 O319 2.292 . S
Tb320 O336 2.326 . S
Tb320 O338 2.500 . S
Tb320 O339 2.473 . S
Tb320 O342 2.324 . S
Eu321 O325 2.292 . S
Eu321 C326 2.852 . S
Eu321 O337 2.324 . S
Eu321 O341 2.326 . S
Eu321 O343 2.500 . S
Eu321 O344 2.473 . S
C322 O319 1.255 . S
C322 O323 1.247 . S
O323 C322 1.247 . S
C324 O336 1.242 . S
C324 O337 1.258 . S
O325 Eu321 2.292 . S
O325 C327 1.255 . S
C326 Eu321 2.852 . S
C326 C330 1.503 . S
C326 O343 1.273 . S
C326 O344 1.257 . S
C327 O325 1.255 . S
C327 O328 1.247 . S
O328 C327 1.247 . S
C329 O341 1.242 . S
C329 O342 1.258 . S
C330 C326 1.503 . S
C330 C331 1.379 . S
C330 C335 1.392 . S
C331 C330 1.379 . S
C331 C332 1.404 . S
C331 H345 0.929 . S
C332 C331 1.404 . S
C332 C333 1.389 . S
C333 C332 1.389 . S
C333 C334 1.399 . S
C333 H346 0.931 . S
C334 C333 1.399 . S
C334 C335 1.390 . S
C335 C330 1.392 . S
C335 C334 1.390 . S
C335 H347 0.929 . S
O336 Tb320 2.326 . S
O336 C324 1.242 . S
O337 Eu321 2.324 . S
O337 C324 1.258 . S
O338 Tb320 2.500 . S
O338 C340 1.273 . S
O339 Tb320 2.473 . S
O339 C340 1.257 . S
C340 O338 1.273 . S
C340 O339 1.257 . S
O341 Eu321 2.326 . S
O341 C329 1.242 . S
O342 Tb320 2.324 . S
O342 C329 1.258 . S
O343 Eu321 2.500 . S
O343 C326 1.273 . S
O344 Eu321 2.473 . S
O344 C326 1.257 . S
H345 C331 0.929 . S
H346 C333 0.931 . S
H347 C335 0.929 . S
O348 Tb349 2.292 . S
O348 C351 1.255 . S
Tb349 O348 2.292 . S
Tb349 O365 2.326 . S
Tb349 O367 2.500 . S
Tb349 O368 2.473 . S
Tb349 O371 2.324 . S
Eu350 O354 2.292 . S
Eu350 C355 2.852 . S
Eu350 O366 2.324 . S
Eu350 O370 2.326 . S
Eu350 O372 2.500 . S
Eu350 O373 2.473 . S
C351 O348 1.255 . S
C351 O352 1.247 . S
O352 C351 1.247 . S
C353 O365 1.242 . S
C353 O366 1.258 . S
O354 Eu350 2.292 . S
O354 C356 1.255 . S
C355 Eu350 2.852 . S
C355 C359 1.503 . S
C355 O372 1.273 . S
C355 O373 1.257 . S
C356 O354 1.255 . S
C356 O357 1.247 . S
O357 C356 1.247 . S
C358 O370 1.242 . S
C358 O371 1.258 . S
C359 C355 1.503 . S
C359 C360 1.379 . S
C359 C364 1.392 . S
C360 C359 1.379 . S
C360 C361 1.404 . S
C360 H374 0.929 . S
C361 C360 1.404 . S
C361 C362 1.389 . S
C362 C361 1.389 . S
C362 C363 1.399 . S
C362 H375 0.931 . S
C363 C362 1.399 . S
C363 C364 1.390 . S
C364 C359 1.392 . S
C364 C363 1.390 . S
C364 H376 0.929 . S
O365 Tb349 2.326 . S
O365 C353 1.242 . S
O366 Eu350 2.324 . S
O366 C353 1.258 . S
O367 Tb349 2.500 . S
O367 C369 1.273 . S
O368 Tb349 2.473 . S
O368 C369 1.257 . S
C369 O367 1.273 . S
C369 O368 1.257 . S
O370 Eu350 2.326 . S
O370 C358 1.242 . S
O371 Tb349 2.324 . S
O371 C358 1.258 . S
O372 Eu350 2.500 . S
O372 C355 1.273 . S
O373 Eu350 2.473 . S
O373 C355 1.257 . S
H374 C360 0.929 . S
H375 C362 0.931 . S
H376 C364 0.929 . S
O377 Tb378 2.292 . S
O377 C380 1.255 . S
Tb378 O377 2.292 . S
Tb378 O394 2.326 . S
Tb378 O396 2.500 . S
Tb378 O397 2.473 . S
Tb378 O400 2.324 . S
Eu379 O383 2.292 . S
Eu379 C384 2.852 . S
Eu379 O395 2.324 . S
Eu379 O399 2.326 . S
Eu379 O401 2.500 . S
Eu379 O402 2.473 . S
C380 O377 1.255 . S
C380 O381 1.247 . S
O381 C380 1.247 . S
C382 O394 1.242 . S
C382 O395 1.258 . S
O383 Eu379 2.292 . S
O383 C385 1.255 . S
C384 Eu379 2.852 . S
C384 C388 1.503 . S
C384 O401 1.273 . S
C384 O402 1.257 . S
C385 O383 1.255 . S
C385 O386 1.247 . S
O386 C385 1.247 . S
C387 O399 1.242 . S
C387 O400 1.258 . S
C388 C384 1.503 . S
C388 C389 1.379 . S
C388 C393 1.392 . S
C389 C388 1.379 . S
C389 C390 1.404 . S
C389 H403 0.929 . S
C390 C389 1.404 . S
C390 C391 1.389 . S
C391 C390 1.389 . S
C391 C392 1.399 . S
C391 H404 0.931 . S
C392 C391 1.399 . S
C392 C393 1.390 . S
C393 C388 1.392 . S
C393 C392 1.390 . S
C393 H405 0.929 . S
O394 Tb378 2.326 . S
O394 C382 1.242 . S
O395 Eu379 2.324 . S
O395 C382 1.258 . S
O396 Tb378 2.500 . S
O396 C398 1.273 . S
O397 Tb378 2.473 . S
O397 C398 1.257 . S
C398 O396 1.273 . S
C398 O397 1.257 . S
O399 Eu379 2.326 . S
O399 C387 1.242 . S
O400 Tb378 2.324 . S
O400 C387 1.258 . S
O401 Eu379 2.500 . S
O401 C384 1.273 . S
O402 Eu379 2.473 . S
O402 C384 1.257 . S
H403 C389 0.929 . S
H404 C391 0.931 . S
H405 C393 0.929 . S
O406 Tb407 2.292 . S
O406 C409 1.255 . S
Tb407 O406 2.292 . S
Tb407 O423 2.326 . S
Tb407 O425 2.500 . S
Tb407 O426 2.473 . S
Tb407 O429 2.324 . S
Eu408 O412 2.292 . S
Eu408 C413 2.852 . S
Eu408 O424 2.324 . S
Eu408 O428 2.326 . S
Eu408 O430 2.500 . S
Eu408 O431 2.473 . S
C409 O406 1.255 . S
C409 O410 1.247 . S
O410 C409 1.247 . S
C411 O423 1.242 . S
C411 O424 1.258 . S
O412 Eu408 2.292 . S
O412 C414 1.255 . S
C413 Eu408 2.852 . S
C413 C417 1.503 . S
C413 O430 1.273 . S
C413 O431 1.257 . S
C414 O412 1.255 . S
C414 O415 1.247 . S
O415 C414 1.247 . S
C416 O428 1.242 . S
C416 O429 1.258 . S
C417 C413 1.503 . S
C417 C418 1.379 . S
C417 C422 1.392 . S
C418 C417 1.379 . S
C418 C419 1.404 . S
C418 H432 0.929 . S
C419 C418 1.404 . S
C419 C420 1.389 . S
C420 C419 1.389 . S
C420 C421 1.399 . S
C420 H433 0.931 . S
C421 C420 1.399 . S
C421 C422 1.390 . S
C422 C417 1.392 . S
C422 C421 1.390 . S
C422 H434 0.929 . S
O423 Tb407 2.326 . S
O423 C411 1.242 . S
O424 Eu408 2.324 . S
O424 C411 1.258 . S
O425 Tb407 2.500 . S
O425 C427 1.273 . S
O426 Tb407 2.473 . S
O426 C427 1.257 . S
C427 O425 1.273 . S
C427 O426 1.257 . S
O428 Eu408 2.326 . S
O428 C416 1.242 . S
O429 Tb407 2.324 . S
O429 C416 1.258 . S
O430 Eu408 2.500 . S
O430 C413 1.273 . S
O431 Eu408 2.473 . S
O431 C413 1.257 . S
H432 C418 0.929 . S
H433 C420 0.931 . S
H434 C422 0.929 . S
O435 Tb436 2.292 . S
O435 C438 1.255 . S
Tb436 O435 2.292 . S
Tb436 O452 2.326 . S
Tb436 O454 2.500 . S
Tb436 O455 2.473 . S
Tb436 O458 2.324 . S
Eu437 O441 2.292 . S
Eu437 C442 2.852 . S
Eu437 O453 2.324 . S
Eu437 O457 2.326 . S
Eu437 O459 2.500 . S
Eu437 O460 2.473 . S
C438 O435 1.255 . S
C438 O439 1.247 . S
O439 C438 1.247 . S
C440 O452 1.242 . S
C440 O453 1.258 . S
O441 Eu437 2.292 . S
O441 C443 1.255 . S
C442 Eu437 2.852 . S
C442 C446 1.503 . S
C442 O459 1.273 . S
C442 O460 1.257 . S
C443 O441 1.255 . S
C443 O444 1.247 . S
O444 C443 1.247 . S
C445 O457 1.242 . S
C445 O458 1.258 . S
C446 C442 1.503 . S
C446 C447 1.379 . S
C446 C451 1.392 . S
C447 C446 1.379 . S
C447 C448 1.404 . S
C447 H461 0.929 . S
C448 C447 1.404 . S
C448 C449 1.389 . S
C449 C448 1.389 . S
C449 C450 1.399 . S
C449 H462 0.931 . S
C450 C449 1.399 . S
C450 C451 1.390 . S
C451 C446 1.392 . S
C451 C450 1.390 . S
C451 H463 0.929 . S
O452 Tb436 2.326 . S
O452 C440 1.242 . S
O453 Eu437 2.324 . S
O453 C440 1.258 . S
O454 Tb436 2.500 . S
O454 C456 1.273 . S
O455 Tb436 2.473 . S
O455 C456 1.257 . S
C456 O454 1.273 . S
C456 O455 1.257 . S
O457 Eu437 2.326 . S
O457 C445 1.242 . S
O458 Tb436 2.324 . S
O458 C445 1.258 . S
O459 Eu437 2.500 . S
O459 C442 1.273 . S
O460 Eu437 2.473 . S
O460 C442 1.257 . S
H461 C447 0.929 . S
H462 C449 0.931 . S
H463 C451 0.929 . S
H464 C472 0.950 . S
H465 C477 0.950 . S
H466 C474 0.950 . S
H467 C476 0.950 . S
H468 C478 0.950 . S
H469 C480 0.950 . S
H470 C482 0.950 . S
H471 C483 0.950 . S
C472 H464 0.950 . S
C472 C473 1.386 . S
C472 C474 1.391 . S
C473 C472 1.386 . S
C473 C477 1.393 . S
C474 H466 0.950 . S
C474 C472 1.391 . S
C474 C475 1.400 . S
C475 C474 1.400 . S
C475 C476 1.398 . S
C475 C481 1.491 1_554 S
C476 H467 0.950 . S
C476 C475 1.398 . S
C476 C477 1.391 . S
C477 H465 0.950 . S
C477 C473 1.393 . S
C477 C476 1.391 . S
C478 H468 0.950 . S
C478 C479 1.386 . S
C478 C480 1.391 . S
C479 C478 1.386 . S
C479 C483 1.393 . S
C480 H469 0.950 . S
C480 C478 1.391 . S
C480 C481 1.400 . S
C481 C475 1.491 1_556 S
C481 C480 1.400 . S
C481 C482 1.398 . S
C482 H470 0.950 . S
C482 C481 1.398 . S
C482 C483 1.391 . S
C483 H471 0.950 . S
C483 C479 1.393 . S
C483 C482 1.391 . S
H484 C492 0.950 . S
H485 C497 0.950 . S
H486 C494 0.950 . S
H487 C496 0.950 . S
H488 C498 0.950 . S
H489 C500 0.950 . S
H490 C502 0.950 . S
H491 C503 0.950 . S
C492 H484 0.950 . S
C492 C493 1.386 . S
C492 C494 1.391 . S
C493 C492 1.386 . S
C493 C497 1.393 . S
C494 H486 0.950 . S
C494 C492 1.391 . S
C494 C495 1.400 . S
C495 C494 1.400 . S
C495 C496 1.398 . S
C495 C501 1.491 1_554 S
C496 H487 0.950 . S
C496 C495 1.398 . S
C496 C497 1.391 . S
C497 H485 0.950 . S
C497 C493 1.393 . S
C497 C496 1.391 . S
C498 H488 0.950 . S
C498 C499 1.386 . S
C498 C500 1.391 . S
C499 C498 1.386 . S
C499 C503 1.393 . S
C500 H489 0.950 . S
C500 C498 1.391 . S
C500 C501 1.400 . S
C501 C495 1.491 1_556 S
C501 C500 1.400 . S
C501 C502 1.398 . S
C502 H490 0.950 . S
C502 C501 1.398 . S
C502 C503 1.391 . S
C503 H491 0.950 . S
C503 C499 1.393 . S
C503 C502 1.391 . S
H504 C512 0.950 . S
H505 C517 0.950 . S
H506 C514 0.950 . S
H507 C516 0.950 . S
H508 C518 0.950 . S
H509 C520 0.950 . S
H510 C522 0.950 . S
H511 C523 0.950 . S
C512 H504 0.950 . S
C512 C513 1.386 . S
C512 C514 1.391 . S
C513 C512 1.386 . S
C513 C517 1.393 . S
C514 H506 0.950 . S
C514 C512 1.391 . S
C514 C515 1.400 . S
C515 C514 1.400 . S
C515 C516 1.398 . S
C515 C521 1.491 1_556 S
C516 H507 0.950 . S
C516 C515 1.398 . S
C516 C517 1.391 . S
C517 H505 0.950 . S
C517 C513 1.393 . S
C517 C516 1.391 . S
C518 H508 0.950 . S
C518 C519 1.386 . S
C518 C520 1.391 . S
C519 C518 1.386 . S
C519 C523 1.393 . S
C520 H509 0.950 . S
C520 C518 1.391 . S
C520 C521 1.400 . S
C521 C515 1.491 1_554 S
C521 C520 1.400 . S
C521 C522 1.398 . S
C522 H510 0.950 . S
C522 C521 1.398 . S
C522 C523 1.391 . S
C523 H511 0.950 . S
C523 C519 1.393 . S
C523 C522 1.391 . S
H524 C532 0.950 . S
H525 C537 0.950 . S
H526 C534 0.950 . S
H527 C536 0.950 . S
H528 C538 0.950 . S
H529 C540 0.950 . S
H530 C542 0.950 . S
H531 C543 0.950 . S
C532 H524 0.950 . S
C532 C533 1.386 . S
C532 C534 1.391 . S
C533 C532 1.386 . S
C533 C537 1.393 . S
C534 H526 0.950 . S
C534 C532 1.391 . S
C534 C535 1.400 . S
C535 C534 1.400 . S
C535 C536 1.398 . S
C535 C541 1.491 1_556 S
C536 H527 0.950 . S
C536 C535 1.398 . S
C536 C537 1.391 . S
C537 H525 0.950 . S
C537 C533 1.393 . S
C537 C536 1.391 . S
C538 H528 0.950 . S
C538 C539 1.386 . S
C538 C540 1.391 . S
C539 C538 1.386 . S
C539 C543 1.393 . S
C540 H529 0.950 . S
C540 C538 1.391 . S
C540 C541 1.400 . S
C541 C535 1.491 1_554 S
C541 C540 1.400 . S
C541 C542 1.398 . S
C542 H530 0.950 . S
C542 C541 1.398 . S
C542 C543 1.391 . S
C543 H531 0.950 . S
C543 C539 1.393 . S
C543 C542 1.391 . S
H544 C552 0.950 . S
H545 C557 0.950 . S
H546 C554 0.950 . S
H547 C556 0.950 . S
H548 C558 0.950 . S
H549 C560 0.950 . S
H550 C562 0.950 . S
H551 C563 0.950 . S
C552 H544 0.950 . S
C552 C553 1.386 . S
C552 C554 1.391 . S
C553 C552 1.386 . S
C553 C557 1.393 . S
C554 H546 0.950 . S
C554 C552 1.391 . S
C554 C555 1.400 . S
C555 C554 1.400 . S
C555 C556 1.398 . S
C555 C561 1.491 . S
C556 H547 0.950 . S
C556 C555 1.398 . S
C556 C557 1.391 . S
C557 H545 0.950 . S
C557 C553 1.393 . S
C557 C556 1.391 . S
C558 H548 0.950 . S
C558 C559 1.386 . S
C558 C560 1.391 . S
C559 C558 1.386 . S
C559 C563 1.393 . S
C560 H549 0.950 . S
C560 C558 1.391 . S
C560 C561 1.400 . S
C561 C555 1.491 . S
C561 C560 1.400 . S
C561 C562 1.398 . S
C562 H550 0.950 . S
C562 C561 1.398 . S
C562 C563 1.391 . S
C563 H551 0.950 . S
C563 C559 1.393 . S
C563 C562 1.391 . S
H564 C572 0.950 . S
H565 C577 0.950 . S
H566 C574 0.950 . S
H567 C576 0.950 . S
H568 C578 0.950 . S
H569 C580 0.950 . S
H570 C582 0.950 . S
H571 C583 0.950 . S
C572 H564 0.950 . S
C572 C573 1.386 . S
C572 C574 1.391 . S
C573 C572 1.386 . S
C573 C577 1.393 . S
C574 H566 0.950 . S
C574 C572 1.391 . S
C574 C575 1.400 . S
C575 C574 1.400 . S
C575 C576 1.398 . S
C575 C581 1.491 . S
C576 H567 0.950 . S
C576 C575 1.398 . S
C576 C577 1.391 . S
C577 H565 0.950 . S
C577 C573 1.393 . S
C577 C576 1.391 . S
C578 H568 0.950 . S
C578 C579 1.386 . S
C578 C580 1.391 . S
C579 C578 1.386 . S
C579 C583 1.393 . S
C580 H569 0.950 . S
C580 C578 1.391 . S
C580 C581 1.400 . S
C581 C575 1.491 . S
C581 C580 1.400 . S
C581 C582 1.398 . S
C582 H570 0.950 . S
C582 C581 1.398 . S
C582 C583 1.391 . S
C583 H571 0.950 . S
C583 C579 1.393 . S
C583 C582 1.391 . S
H584 C592 0.950 . S
H585 C597 0.950 . S
H586 C594 0.950 . S
H587 C596 0.950 . S
H588 C598 0.950 . S
H589 C600 0.950 . S
H590 C602 0.950 . S
H591 C603 0.950 . S
C592 H584 0.950 . S
C592 C593 1.386 . S
C592 C594 1.391 . S
C593 C592 1.386 . S
C593 C597 1.393 . S
C594 H586 0.950 . S
C594 C592 1.391 . S
C594 C595 1.400 . S
C595 C594 1.400 . S
C595 C596 1.398 . S
C595 C601 1.491 . S
C596 H587 0.950 . S
C596 C595 1.398 . S
C596 C597 1.391 . S
C597 H585 0.950 . S
C597 C593 1.393 . S
C597 C596 1.391 . S
C598 H588 0.950 . S
C598 C599 1.386 . S
C598 C600 1.391 . S
C599 C598 1.386 . S
C599 C603 1.393 . S
C600 H589 0.950 . S
C600 C598 1.391 . S
C600 C601 1.400 . S
C601 C595 1.491 . S
C601 C600 1.400 . S
C601 C602 1.398 . S
C602 H590 0.950 . S
C602 C601 1.398 . S
C602 C603 1.391 . S
C603 H591 0.950 . S
C603 C599 1.393 . S
C603 C602 1.391 . S
H604 C612 0.950 . S
H605 C617 0.950 . S
H606 C614 0.950 . S
H607 C616 0.950 . S
H608 C618 0.950 . S
H609 C620 0.950 . S
H610 C622 0.950 . S
H611 C623 0.950 . S
C612 H604 0.950 . S
C612 C613 1.386 . S
C612 C614 1.391 . S
C613 C612 1.386 . S
C613 C617 1.393 . S
C614 H606 0.950 . S
C614 C612 1.391 . S
C614 C615 1.400 . S
C615 C614 1.400 . S
C615 C616 1.398 . S
C615 C621 1.491 . S
C616 H607 0.950 . S
C616 C615 1.398 . S
C616 C617 1.391 . S
C617 H605 0.950 . S
C617 C613 1.393 . S
C617 C616 1.391 . S
C618 H608 0.950 . S
C618 C619 1.386 . S
C618 C620 1.391 . S
C619 C618 1.386 . S
C619 C623 1.393 . S
C620 H609 0.950 . S
C620 C618 1.391 . S
C620 C621 1.400 . S
C621 C615 1.491 . S
C621 C620 1.400 . S
C621 C622 1.398 . S
C622 H610 0.950 . S
C622 C621 1.398 . S
C622 C623 1.391 . S
C623 H611 0.950 . S
C623 C619 1.393 . S
C623 C622 1.391 . S
H624 C632 0.950 . S
H625 C637 0.950 . S
H626 C634 0.950 . S
H627 C636 0.950 . S
H628 C638 0.950 . S
H629 C640 0.950 . S
H630 C642 0.950 . S
H631 C643 0.950 . S
C632 H624 0.950 . S
C632 C633 1.386 1_545 S
C632 C634 1.391 . S
C633 C632 1.386 1_565 S
C633 C637 1.393 . S
C634 H626 0.950 . S
C634 C632 1.391 . S
C634 C635 1.400 . S
C635 C634 1.400 . S
C635 C636 1.398 . S
C635 C641 1.491 . S
C636 H627 0.950 . S
C636 C635 1.398 . S
C636 C637 1.391 1_545 S
C637 H625 0.950 . S
C637 C633 1.393 . S
C637 C636 1.391 1_565 S
C638 H628 0.950 . S
C638 C639 1.386 . S
C638 C640 1.391 . S
C639 C638 1.386 . S
C639 C643 1.393 . S
C640 H629 0.950 . S
C640 C638 1.391 . S
C640 C641 1.400 . S
C641 C635 1.491 . S
C641 C640 1.400 . S
C641 C642 1.398 . S
C642 H630 0.950 . S
C642 C641 1.398 . S
C642 C643 1.391 . S
C643 H631 0.950 . S
C643 C639 1.393 . S
C643 C642 1.391 . S
H644 C652 0.950 . S
H645 C657 0.950 . S
H646 C654 0.950 . S
H647 C656 0.950 . S
H648 C658 0.950 . S
H649 C660 0.950 . S
H650 C662 0.950 . S
H651 C663 0.950 . S
C652 H644 0.950 . S
C652 C653 1.386 . S
C652 C654 1.391 1_455 S
C653 C652 1.386 . S
C653 C657 1.393 1_455 S
C654 H646 0.950 . S
C654 C652 1.391 1_655 S
C654 C655 1.400 . S
C655 C654 1.400 . S
C655 C656 1.398 . S
C655 C661 1.491 . S
C656 H647 0.950 . S
C656 C655 1.398 . S
C656 C657 1.391 . S
C657 H645 0.950 . S
C657 C653 1.393 1_655 S
C657 C656 1.391 . S
C658 H648 0.950 . S
C658 C659 1.386 . S
C658 C660 1.391 . S
C659 C658 1.386 . S
C659 C663 1.393 . S
C660 H649 0.950 . S
C660 C658 1.391 . S
C660 C661 1.400 . S
C661 C655 1.491 . S
C661 C660 1.400 . S
C661 C662 1.398 . S
C662 H650 0.950 . S
C662 C661 1.398 . S
C662 C663 1.391 . S
C663 H651 0.950 . S
C663 C659 1.393 . S
C663 C662 1.391 . S
H664 C672 0.950 . S
H665 C677 0.950 . S
H666 C674 0.950 . S
H667 C676 0.950 . S
H668 C678 0.950 . S
H669 C680 0.950 . S
H670 C682 0.950 . S
H671 C683 0.950 . S
C672 H664 0.950 . S
C672 C673 1.386 . S
C672 C674 1.391 . S
C673 C672 1.386 . S
C673 C677 1.393 . S
C674 H666 0.950 . S
C674 C672 1.391 . S
C674 C675 1.400 . S
C675 C674 1.400 . S
C675 C676 1.398 . S
C675 C681 1.491 . S
C676 H667 0.950 . S
C676 C675 1.398 . S
C676 C677 1.391 . S
C677 H665 0.950 . S
C677 C673 1.393 . S
C677 C676 1.391 . S
C678 H668 0.950 . S
C678 C679 1.386 1_565 S
C678 C680 1.391 . S
C679 C678 1.386 1_545 S
C679 C683 1.393 . S
C680 H669 0.950 . S
C680 C678 1.391 . S
C680 C681 1.400 . S
C681 C675 1.491 . S
C681 C680 1.400 . S
C681 C682 1.398 . S
C682 H670 0.950 . S
C682 C681 1.398 . S
C682 C683 1.391 1_565 S
C683 H671 0.950 . S
C683 C679 1.393 . S
C683 C682 1.391 1_545 S
H684 C692 0.950 . S
H685 C697 0.950 . S
H686 C694 0.950 . S
H687 C696 0.950 . S
H688 C698 0.950 . S
H689 C700 0.950 . S
H690 C702 0.950 . S
H691 C703 0.950 . S
C692 H684 0.950 . S
C692 C693 1.386 . S
C692 C694 1.391 . S
C693 C692 1.386 . S
C693 C697 1.393 . S
C694 H686 0.950 . S
C694 C692 1.391 . S
C694 C695 1.400 . S
C695 C694 1.400 . S
C695 C696 1.398 . S
C695 C701 1.491 . S
C696 H687 0.950 . S
C696 C695 1.398 . S
C696 C697 1.391 . S
C697 H685 0.950 . S
C697 C693 1.393 . S
C697 C696 1.391 . S
C698 H688 0.950 . S
C698 C699 1.386 1_455 S
C698 C700 1.391 . S
C699 C698 1.386 1_655 S
C699 C703 1.393 . S
C700 H689 0.950 . S
C700 C698 1.391 . S
C700 C701 1.400 . S
C701 C695 1.491 . S
C701 C700 1.400 . S
C701 C702 1.398 . S
C702 H690 0.950 . S
C702 C701 1.398 . S
C702 C703 1.391 1_455 S
C703 H691 0.950 . S
C703 C699 1.393 . S
C703 C702 1.391 1_655 S
H704 C712 0.950 . S
H705 C717 0.950 . S
H706 C714 0.950 . S
H707 C716 0.950 . S
H708 C718 0.950 . S
H709 C720 0.950 . S
H710 C722 0.950 . S
H711 C723 0.950 . S
C712 H704 0.950 . S
C712 C713 1.386 1_565 S
C712 C714 1.391 . S
C713 C712 1.386 1_545 S
C713 C717 1.393 . S
C714 H706 0.950 . S
C714 C712 1.391 . S
C714 C715 1.400 . S
C715 C714 1.400 . S
C715 C716 1.398 . S
C715 C721 1.491 . S
C716 H707 0.950 . S
C716 C715 1.398 . S
C716 C717 1.391 1_565 S
C717 H705 0.950 . S
C717 C713 1.393 . S
C717 C716 1.391 1_545 S
C718 H708 0.950 . S
C718 C719 1.386 . S
C718 C720 1.391 . S
C719 C718 1.386 . S
C719 C723 1.393 . S
C720 H709 0.950 . S
C720 C718 1.391 . S
C720 C721 1.400 . S
C721 C715 1.491 . S
C721 C720 1.400 . S
C721 C722 1.398 . S
C722 H710 0.950 . S
C722 C721 1.398 . S
C722 C723 1.391 . S
C723 H711 0.950 . S
C723 C719 1.393 . S
C723 C722 1.391 . S
H724 C732 0.950 . S
H725 C737 0.950 . S
H726 C734 0.950 . S
H727 C736 0.950 . S
H728 C738 0.950 . S
H729 C740 0.950 . S
H730 C742 0.950 . S
H731 C743 0.950 . S
C732 H724 0.950 . S
C732 C733 1.386 . S
C732 C734 1.391 . S
C733 C732 1.386 . S
C733 C737 1.393 . S
C734 H726 0.950 . S
C734 C732 1.391 . S
C734 C735 1.400 . S
C735 C734 1.400 . S
C735 C736 1.398 . S
C735 C741 1.491 . S
C736 H727 0.950 . S
C736 C735 1.398 . S
C736 C737 1.391 . S
C737 H725 0.950 . S
C737 C733 1.393 . S
C737 C736 1.391 . S
C738 H728 0.950 . S
C738 C739 1.386 1_455 S
C738 C740 1.391 . S
C739 C738 1.386 1_655 S
C739 C743 1.393 . S
C740 H729 0.950 . S
C740 C738 1.391 . S
C740 C741 1.400 . S
C741 C735 1.491 . S
C741 C740 1.400 . S
C741 C742 1.398 . S
C742 H730 0.950 . S
C742 C741 1.398 . S
C742 C743 1.391 1_455 S
C743 H731 0.950 . S
C743 C739 1.393 . S
C743 C742 1.391 1_655 S
H744 C752 0.950 . S
H745 C757 0.950 . S
H746 C754 0.950 . S
H747 C756 0.950 . S
H748 C758 0.950 . S
H749 C760 0.950 . S
H750 C762 0.950 . S
H751 C763 0.950 . S
C752 H744 0.950 . S
C752 C753 1.386 . S
C752 C754 1.391 1_565 S
C753 C752 1.386 . S
C753 C757 1.393 1_565 S
C754 H746 0.950 . S
C754 C752 1.391 1_545 S
C754 C755 1.400 . S
C755 C754 1.400 . S
C755 C756 1.398 . S
C755 C761 1.491 . S
C756 H747 0.950 . S
C756 C755 1.398 . S
C756 C757 1.391 . S
C757 H745 0.950 . S
C757 C753 1.393 1_545 S
C757 C756 1.391 . S
C758 H748 0.950 . S
C758 C759 1.386 . S
C758 C760 1.391 . S
C759 C758 1.386 . S
C759 C763 1.393 . S
C760 H749 0.950 . S
C760 C758 1.391 . S
C760 C761 1.400 . S
C761 C755 1.491 . S
C761 C760 1.400 . S
C761 C762 1.398 . S
C762 H750 0.950 . S
C762 C761 1.398 . S
C762 C763 1.391 . S
C763 H751 0.950 . S
C763 C759 1.393 . S
C763 C762 1.391 . S
H764 C772 0.950 . S
H765 C777 0.950 . S
H766 C774 0.950 . S
H767 C776 0.950 . S
H768 C778 0.950 . S
H769 C780 0.950 . S
H770 C782 0.950 . S
H771 C783 0.950 . S
C772 H764 0.950 . S
C772 C773 1.386 . S
C772 C774 1.391 1_455 S
C773 C772 1.386 . S
C773 C777 1.393 1_455 S
C774 H766 0.950 . S
C774 C772 1.391 1_655 S
C774 C775 1.400 . S
C775 C774 1.400 . S
C775 C776 1.398 . S
C775 C781 1.491 . S
C776 H767 0.950 . S
C776 C775 1.398 . S
C776 C777 1.391 . S
C777 H765 0.950 . S
C777 C773 1.393 1_655 S
C777 C776 1.391 . S
C778 H768 0.950 . S
C778 C779 1.386 . S
C778 C780 1.391 . S
C779 C778 1.386 . S
C779 C783 1.393 . S
C780 H769 0.950 . S
C780 C778 1.391 . S
C780 C781 1.400 . S
C781 C775 1.491 . S
C781 C780 1.400 . S
C781 C782 1.398 . S
C782 H770 0.950 . S
C782 C781 1.398 . S
C782 C783 1.391 . S
C783 H771 0.950 . S
C783 C779 1.393 . S
C783 C782 1.391 . S
H784 C792 0.950 . S
H785 C797 0.950 . S
H786 C794 0.950 . S
H787 C796 0.950 . S
H788 C798 0.950 . S
H789 C800 0.950 . S
H790 C802 0.950 . S
H791 C803 0.944 1_545 S
C792 H784 0.950 . S
C792 C793 1.386 . S
C792 C794 1.391 . S
C793 C792 1.386 . S
C793 C797 1.393 . S
C794 H786 0.950 . S
C794 C792 1.391 . S
C794 C795 1.400 . S
C795 C794 1.400 . S
C795 C796 1.398 . S
C795 C801 1.491 . S
C796 H787 0.950 . S
C796 C795 1.398 . S
C796 C797 1.391 . S
C797 H785 0.950 . S
C797 C793 1.393 . S
C797 C796 1.391 . S
C798 H788 0.950 . S
C798 C799 1.386 . S
C798 C800 1.391 1_545 S
C799 C798 1.386 . S
C799 C803 1.381 1_545 S
C800 H789 0.950 . S
C800 C798 1.391 1_565 S
C800 C801 1.400 . S
C801 C795 1.491 . S
C801 C800 1.400 . S
C801 C802 1.398 . S
C802 H790 0.950 . S
C802 C801 1.398 . S
C802 C803 1.408 . S
C803 H791 0.944 1_565 S
C803 C799 1.381 1_565 S
C803 C802 1.408 . S
H804 C812 0.944 1_655 S
H805 C817 0.950 . S
H806 C814 0.950 . S
H807 C816 0.950 . S
H808 C818 0.950 . S
H809 C820 0.950 . S
H810 C822 0.950 . S
H811 C823 0.950 . S
C812 H804 0.944 1_455 S
C812 C813 1.376 1_455 S
C812 C814 1.407 . S
C813 C812 1.376 1_655 S
C813 C817 1.393 . S
C814 H806 0.950 . S
C814 C812 1.407 . S
C814 C815 1.400 . S
C815 C814 1.400 . S
C815 C816 1.398 . S
C815 C821 1.491 . S
C816 H807 0.950 . S
C816 C815 1.398 . S
C816 C817 1.391 1_455 S
C817 H805 0.950 . S
C817 C813 1.393 . S
C817 C816 1.391 1_655 S
C818 H808 0.950 . S
C818 C819 1.386 . S
C818 C820 1.391 . S
C819 C818 1.386 . S
C819 C823 1.393 . S
C820 H809 0.950 . S
C820 C818 1.391 . S
C820 C821 1.400 . S
C821 C815 1.491 . S
C821 C820 1.400 . S
C821 C822 1.398 . S
C822 H810 0.950 . S
C822 C821 1.398 . S
C822 C823 1.391 . S
C823 H811 0.950 . S
C823 C819 1.393 . S
C823 C822 1.391 . S
H824 C832 0.950 . S
H825 C837 0.950 . S
H826 C834 0.950 . S
H827 C836 0.950 . S
H828 C838 0.950 . S
H829 C840 0.950 . S
H830 C842 0.950 . S
H831 C843 0.950 . S
C832 H824 0.950 . S
C832 C833 1.386 . S
C832 C834 1.391 . S
C833 C832 1.386 . S
C833 C837 1.393 . S
C834 H826 0.950 . S
C834 C832 1.391 . S
C834 C835 1.400 . S
C835 C834 1.400 . S
C835 C836 1.398 . S
C835 C841 1.491 . S
C836 H827 0.950 . S
C836 C835 1.398 . S
C836 C837 1.391 . S
C837 H825 0.950 . S
C837 C833 1.393 . S
C837 C836 1.391 . S
C838 H828 0.950 . S
C838 C839 1.386 . S
C838 C840 1.391 1_565 S
C839 C838 1.386 . S
C839 C843 1.393 . S
C840 H829 0.950 . S
C840 C838 1.391 1_545 S
C840 C841 1.400 . S
C841 C835 1.491 . S
C841 C840 1.400 . S
C841 C842 1.398 . S
C842 H830 0.950 . S
C842 C841 1.398 . S
C842 C843 1.391 1_545 S
C843 H831 0.950 . S
C843 C839 1.393 . S
C843 C842 1.391 1_565 S
H844 C852 0.950 . S
H845 C857 0.950 . S
H846 C854 0.950 . S
H847 C856 0.950 . S
H848 C858 0.950 . S
H849 C860 0.950 . S
H850 C862 0.950 . S
H851 C863 0.950 . S
C852 H844 0.950 . S
C852 C853 1.386 . S
C852 C854 1.391 1_455 S
C853 C852 1.386 . S
C853 C857 1.393 . S
C854 H846 0.950 . S
C854 C852 1.391 1_655 S
C854 C855 1.400 . S
C855 C854 1.400 . S
C855 C856 1.398 . S
C855 C861 1.491 . S
C856 H847 0.950 . S
C856 C855 1.398 . S
C856 C857 1.391 1_655 S
C857 H845 0.950 . S
C857 C853 1.393 . S
C857 C856 1.391 1_455 S
C858 H848 0.950 . S
C858 C859 1.386 . S
C858 C860 1.391 . S
C859 C858 1.386 . S
C859 C863 1.393 . S
C860 H849 0.950 . S
C860 C858 1.391 . S
C860 C861 1.400 . S
C861 C855 1.491 . S
C861 C860 1.400 . S
C861 C862 1.398 . S
C862 H850 0.950 . S
C862 C861 1.398 . S
C862 C863 1.391 . S
C863 H851 0.950 . S
C863 C859 1.393 . S
C863 C862 1.391 . S
H864 C872 0.950 . S
H865 C877 0.950 . S
H866 C874 0.950 . S
H867 C876 0.950 . S
H868 C878 0.950 . S
H869 C880 0.950 . S
H870 C882 0.950 . S
H871 C883 0.943 1_565 S
C872 H864 0.950 . S
C872 C873 1.386 . S
C872 C874 1.391 . S
C873 C872 1.386 . S
C873 C877 1.393 . S
C874 H866 0.950 . S
C874 C872 1.391 . S
C874 C875 1.400 . S
C875 C874 1.400 . S
C875 C876 1.398 . S
C875 C881 1.491 . S
C876 H867 0.950 . S
C876 C875 1.398 . S
C876 C877 1.391 . S
C877 H865 0.950 . S
C877 C873 1.393 . S
C877 C876 1.391 . S
C878 H868 0.950 . S
C878 C879 1.386 . S
C878 C880 1.391 1_565 S
C879 C878 1.386 . S
C879 C883 1.379 1_565 S
C880 H869 0.950 . S
C880 C878 1.391 1_545 S
C880 C881 1.400 . S
C881 C875 1.491 . S
C881 C880 1.400 . S
C881 C882 1.398 . S
C882 H870 0.950 . S
C882 C881 1.398 . S
C882 C883 1.411 . S
C883 H871 0.943 1_545 S
C883 C879 1.379 1_545 S
C883 C882 1.411 . S
H884 C892 0.950 . S
H885 C897 0.950 . S
H886 C894 0.950 . S
H887 C896 0.950 . S
H888 C898 0.950 . S
H889 C900 0.950 . S
H890 C902 0.950 . S
H891 C903 0.950 . S
C892 H884 0.950 . S
C892 C893 1.386 . S
C892 C894 1.391 1_455 S
C893 C892 1.386 . S
C893 C897 1.393 . S
C894 H886 0.950 . S
C894 C892 1.391 1_655 S
C894 C895 1.400 . S
C895 C894 1.400 . S
C895 C896 1.398 . S
C895 C901 1.491 . S
C896 H887 0.950 . S
C896 C895 1.398 . S
C896 C897 1.391 1_655 S
C897 H885 0.950 . S
C897 C893 1.393 . S
C897 C896 1.391 1_455 S
C898 H888 0.950 . S
C898 C899 1.386 . S
C898 C900 1.391 . S
C899 C898 1.386 . S
C899 C903 1.393 . S
C900 H889 0.950 . S
C900 C898 1.391 . S
C900 C901 1.400 . S
C901 C895 1.491 . S
C901 C900 1.400 . S
C901 C902 1.398 . S
C902 H890 0.950 . S
C902 C901 1.398 . S
C902 C903 1.391 . S
C903 H891 0.950 . S
C903 C899 1.393 . S
C903 C902 1.391 . S
H904 C912 0.961 . S
H905 C917 0.950 . S
H906 C914 0.950 . S
H907 C916 0.950 . S
H908 C918 0.950 . S
H909 C920 0.950 . S
H910 C922 0.950 . S
H911 C923 0.950 . S
C912 H904 0.961 . S
C912 C913 1.403 . S
C912 C914 1.363 1_545 S
C913 C912 1.403 . S
C913 C917 1.393 . S
C914 H906 0.950 . S
C914 C912 1.363 1_565 S
C914 C915 1.400 . S
C915 C914 1.400 . S
C915 C916 1.398 . S
C915 C921 1.491 . S
C916 H907 0.950 . S
C916 C915 1.398 . S
C916 C917 1.391 1_565 S
C917 H905 0.950 . S
C917 C913 1.393 . S
C917 C916 1.391 1_545 S
C918 H908 0.950 . S
C918 C919 1.386 . S
C918 C920 1.391 . S
C919 C918 1.386 . S
C919 C923 1.393 . S
C920 H909 0.950 . S
C920 C918 1.391 . S
C920 C921 1.400 . S
C921 C915 1.491 . S
C921 C920 1.400 . S
C921 C922 1.398 . S
C922 H910 0.950 . S
C922 C921 1.398 . S
C922 C923 1.391 . S
C923 H911 0.950 . S
C923 C919 1.393 . S
C923 C922 1.391 . S
H924 C932 0.950 . S
H925 C937 0.950 . S
H926 C934 0.950 . S
H927 C936 0.950 . S
H928 C938 0.950 . S
H929 C940 0.950 . S
H930 C942 0.950 . S
H931 C943 0.950 . S
C932 H924 0.950 . S
C932 C933 1.386 . S
C932 C934 1.391 1_655 S
C933 C932 1.386 . S
C933 C937 1.393 . S
C934 H926 0.950 . S
C934 C932 1.391 1_455 S
C934 C935 1.400 . S
C935 C934 1.400 . S
C935 C936 1.398 . S
C935 C941 1.491 . S
C936 H927 0.950 . S
C936 C935 1.398 . S
C936 C937 1.391 1_455 S
C937 H925 0.950 . S
C937 C933 1.393 . S
C937 C936 1.391 1_655 S
C938 H928 0.950 . S
C938 C939 1.386 . S
C938 C940 1.391 . S
C939 C938 1.386 . S
C939 C943 1.393 . S
C940 H929 0.950 . S
C940 C938 1.391 . S
C940 C941 1.400 . S
C941 C935 1.491 . S
C941 C940 1.400 . S
C941 C942 1.398 . S
C942 H930 0.950 . S
C942 C941 1.398 . S
C942 C943 1.391 . S
C943 H931 0.950 . S
C943 C939 1.393 . S
C943 C942 1.391 . S
H944 C952 0.950 . S
H945 C957 0.950 . S
H946 C954 0.950 . S
H947 C956 0.950 . S
H948 C958 0.950 . S
H949 C960 0.950 . S
H950 C962 0.950 . S
H951 C963 0.950 . S
C952 H944 0.950 . S
C952 C953 1.386 . S
C952 C954 1.391 . S
C953 C952 1.386 . S
C953 C957 1.393 . S
C954 H946 0.950 . S
C954 C952 1.391 . S
C954 C955 1.400 . S
C955 C954 1.400 . S
C955 C956 1.398 . S
C955 C961 1.491 . S
C956 H947 0.950 . S
C956 C955 1.398 . S
C956 C957 1.391 . S
C957 H945 0.950 . S
C957 C953 1.393 . S
C957 C956 1.391 . S
C958 H948 0.950 . S
C958 C959 1.386 . S
C958 C960 1.391 . S
C959 C958 1.386 . S
C959 C963 1.393 . S
C960 H949 0.950 . S
C960 C958 1.391 . S
C960 C961 1.400 . S
C961 C955 1.491 . S
C961 C960 1.400 . S
C961 C962 1.398 . S
C962 H950 0.950 . S
C962 C961 1.398 . S
C962 C963 1.391 . S
C963 H951 0.950 . S
C963 C959 1.393 . S
C963 C962 1.391 . S
H964 C972 0.950 . S
H965 C977 0.950 . S
H966 C974 0.950 . S
H967 C976 0.950 . S
H968 C978 0.950 . S
H969 C980 0.950 . S
H970 C982 0.950 . S
H971 C983 0.950 . S
C972 H964 0.950 . S
C972 C973 1.386 . S
C972 C974 1.391 . S
C973 C972 1.386 . S
C973 C977 1.393 . S
C974 H966 0.950 . S
C974 C972 1.391 . S
C974 C975 1.400 . S
C975 C974 1.400 . S
C975 C976 1.398 . S
C975 C981 1.491 . S
C976 H967 0.950 . S
C976 C975 1.398 . S
C976 C977 1.391 . S
C977 H965 0.950 . S
C977 C973 1.393 . S
C977 C976 1.391 . S
C978 H968 0.950 . S
C978 C979 1.386 . S
C978 C980 1.391 . S
C979 C978 1.386 . S
C979 C983 1.393 . S
C980 H969 0.950 . S
C980 C978 1.391 . S
C980 C981 1.400 . S
C981 C975 1.491 . S
C981 C980 1.400 . S
C981 C982 1.398 . S
C982 H970 0.950 . S
C982 C981 1.398 . S
C982 C983 1.391 . S
C983 H971 0.950 . S
C983 C979 1.393 . S
C983 C982 1.391 . S
H984 C992 0.950 . S
H985 C997 0.950 . S
H986 C994 0.950 . S
H987 C996 0.950 . S
H988 C998 0.950 . S
H989 C1000 0.950 . S
H990 C1002 0.950 . S
H991 C1003 0.950 . S
C992 H984 0.950 . S
C992 C993 1.386 . S
C992 C994 1.391 . S
C993 C992 1.386 . S
C993 C997 1.393 . S
C994 H986 0.950 . S
C994 C992 1.391 . S
C994 C995 1.400 . S
C995 C994 1.400 . S
C995 C996 1.398 . S
C995 C1001 1.491 . S
C996 H987 0.950 . S
C996 C995 1.398 . S
C996 C997 1.391 . S
C997 H985 0.950 . S
C997 C993 1.393 . S
C997 C996 1.391 . S
C998 H988 0.950 . S
C998 C999 1.386 . S
C998 C1000 1.391 . S
C999 C998 1.386 . S
C999 C1003 1.393 . S
C1000 H989 0.950 . S
C1000 C998 1.391 . S
C1000 C1001 1.400 . S
C1001 C995 1.491 . S
C1001 C1000 1.400 . S
C1001 C1002 1.398 . S
C1002 H990 0.950 . S
C1002 C1001 1.398 . S
C1002 C1003 1.391 . S
C1003 H991 0.950 . S
C1003 C999 1.393 . S
C1003 C1002 1.391 . S
H1004 C1012 0.950 . S
H1005 C1017 0.950 . S
H1006 C1014 0.950 . S
H1007 C1016 0.950 . S
H1008 C1018 0.950 . S
H1009 C1020 0.950 . S
H1010 C1022 0.950 . S
H1011 C1023 0.950 . S
C1012 H1004 0.950 . S
C1012 C1013 1.386 . S
C1012 C1014 1.391 . S
C1013 C1012 1.386 . S
C1013 C1017 1.393 . S
C1014 H1006 0.950 . S
C1014 C1012 1.391 . S
C1014 C1015 1.400 . S
C1015 C1014 1.400 . S
C1015 C1016 1.398 . S
C1015 C1021 1.491 . S
C1016 H1007 0.950 . S
C1016 C1015 1.398 . S
C1016 C1017 1.391 . S
C1017 H1005 0.950 . S
C1017 C1013 1.393 . S
C1017 C1016 1.391 . S
C1018 H1008 0.950 . S
C1018 C1019 1.386 . S
C1018 C1020 1.391 . S
C1019 C1018 1.386 . S
C1019 C1023 1.393 . S
C1020 H1009 0.950 . S
C1020 C1018 1.391 . S
C1020 C1021 1.400 . S
C1021 C1015 1.491 . S
C1021 C1020 1.400 . S
C1021 C1022 1.398 . S
C1022 H1010 0.950 . S
C1022 C1021 1.398 . S
C1022 C1023 1.391 . S
C1023 H1011 0.950 . S
C1023 C1019 1.393 . S
C1023 C1022 1.391 . S
H1024 C1032 0.950 . S
H1025 C1037 0.950 . S
H1026 C1034 0.950 . S
H1027 C1036 0.950 . S
H1028 C1038 0.950 . S
H1029 C1040 0.950 . S
H1030 C1042 0.950 . S
H1031 C1043 0.950 . S
C1032 H1024 0.950 . S
C1032 C1033 1.386 . S
C1032 C1034 1.391 . S
C1033 C1032 1.386 . S
C1033 C1037 1.393 . S
C1034 H1026 0.950 . S
C1034 C1032 1.391 . S
C1034 C1035 1.400 . S
C1035 C1034 1.400 . S
C1035 C1036 1.398 . S
C1035 C1041 1.491 . S
C1036 H1027 0.950 . S
C1036 C1035 1.398 . S
C1036 C1037 1.391 . S
C1037 H1025 0.950 . S
C1037 C1033 1.393 . S
C1037 C1036 1.391 . S
C1038 H1028 0.950 . S
C1038 C1039 1.386 . S
C1038 C1040 1.391 . S
C1039 C1038 1.386 . S
C1039 C1043 1.393 . S
C1040 H1029 0.950 . S
C1040 C1038 1.391 . S
C1040 C1041 1.400 . S
C1041 C1035 1.491 . S
C1041 C1040 1.400 . S
C1041 C1042 1.398 . S
C1042 H1030 0.950 . S
C1042 C1041 1.398 . S
C1042 C1043 1.391 . S
C1043 H1031 0.950 . S
C1043 C1039 1.393 . S
C1043 C1042 1.391 . S
H1044 C1052 0.950 . S
H1045 C1057 0.950 . S
H1046 C1054 0.950 . S
H1047 C1056 0.950 . S
H1048 C1058 0.950 . S
H1049 C1060 0.950 . S
H1050 C1062 0.950 . S
H1051 C1063 0.950 . S
C1052 H1044 0.950 . S
C1052 C1053 1.386 . S
C1052 C1054 1.391 . S
C1053 C1052 1.386 . S
C1053 C1057 1.393 . S
C1054 H1046 0.950 . S
C1054 C1052 1.391 . S
C1054 C1055 1.400 . S
C1055 C1054 1.400 . S
C1055 C1056 1.398 . S
C1055 C1061 1.491 . S
C1056 H1047 0.950 . S
C1056 C1055 1.398 . S
C1056 C1057 1.391 . S
C1057 H1045 0.950 . S
C1057 C1053 1.393 . S
C1057 C1056 1.391 . S
C1058 H1048 0.950 . S
C1058 C1059 1.386 . S
C1058 C1060 1.391 . S
C1059 C1058 1.386 . S
C1059 C1063 1.393 . S
C1060 H1049 0.950 . S
C1060 C1058 1.391 . S
C1060 C1061 1.400 . S
C1061 C1055 1.491 . S
C1061 C1060 1.400 . S
C1061 C1062 1.398 . S
C1062 H1050 0.950 . S
C1062 C1061 1.398 . S
C1062 C1063 1.391 . S
C1063 H1051 0.950 . S
C1063 C1059 1.393 . S
C1063 C1062 1.391 . S
H1064 C1072 0.950 . S
H1065 C1077 0.950 . S
H1066 C1074 0.950 . S
H1067 C1076 0.950 . S
H1068 C1078 0.950 . S
H1069 C1080 0.950 . S
H1070 C1082 0.950 . S
H1071 C1083 0.950 . S
C1072 H1064 0.950 . S
C1072 C1073 1.386 . S
C1072 C1074 1.391 . S
C1073 C1072 1.386 . S
C1073 C1077 1.393 . S
C1074 H1066 0.950 . S
C1074 C1072 1.391 . S
C1074 C1075 1.400 . S
C1075 C1074 1.400 . S
C1075 C1076 1.398 . S
C1075 C1081 1.491 . S
C1076 H1067 0.950 . S
C1076 C1075 1.398 . S
C1076 C1077 1.391 . S
C1077 H1065 0.950 . S
C1077 C1073 1.393 . S
C1077 C1076 1.391 . S
C1078 H1068 0.950 . S
C1078 C1079 1.386 . S
C1078 C1080 1.391 . S
C1079 C1078 1.386 . S
C1079 C1083 1.393 . S
C1080 H1069 0.950 . S
C1080 C1078 1.391 . S
C1080 C1081 1.400 . S
C1081 C1075 1.491 . S
C1081 C1080 1.400 . S
C1081 C1082 1.398 . S
C1082 H1070 0.950 . S
C1082 C1081 1.398 . S
C1082 C1083 1.391 . S
C1083 H1071 0.950 . S
C1083 C1079 1.393 . S
C1083 C1082 1.391 . S
H1084 C1092 0.950 . S
H1085 C1097 0.950 . S
H1086 C1094 0.950 . S
H1087 C1096 0.950 . S
H1088 C1098 0.950 . S
H1089 C1100 0.950 . S
H1090 C1102 0.950 . S
H1091 C1103 0.950 . S
C1092 H1084 0.950 . S
C1092 C1093 1.386 . S
C1092 C1094 1.391 . S
C1093 C1092 1.386 . S
C1093 C1097 1.393 . S
C1094 H1086 0.950 . S
C1094 C1092 1.391 . S
C1094 C1095 1.400 . S
C1095 C1094 1.400 . S
C1095 C1096 1.398 . S
C1095 C1101 1.491 . S
C1096 H1087 0.950 . S
C1096 C1095 1.398 . S
C1096 C1097 1.391 . S
C1097 H1085 0.950 . S
C1097 C1093 1.393 . S
C1097 C1096 1.391 . S
C1098 H1088 0.950 . S
C1098 C1099 1.386 . S
C1098 C1100 1.391 . S
C1099 C1098 1.386 . S
C1099 C1103 1.393 . S
C1100 H1089 0.950 . S
C1100 C1098 1.391 . S
C1100 C1101 1.400 . S
C1101 C1095 1.491 . S
C1101 C1100 1.400 . S
C1101 C1102 1.398 . S
C1102 H1090 0.950 . S
C1102 C1101 1.398 . S
C1102 C1103 1.391 . S
C1103 H1091 0.950 . S
C1103 C1099 1.393 . S
C1103 C1102 1.391 . S
H1104 C1112 0.950 . S
H1105 C1117 0.950 . S
H1106 C1114 0.950 . S
H1107 C1116 0.950 . S
H1108 C1118 0.950 . S
H1109 C1120 0.950 . S
H1110 C1122 0.950 . S
H1111 C1123 0.950 . S
C1112 H1104 0.950 . S
C1112 C1113 1.386 . S
C1112 C1114 1.391 . S
C1113 C1112 1.386 . S
C1113 C1117 1.393 . S
C1114 H1106 0.950 . S
C1114 C1112 1.391 . S
C1114 C1115 1.400 . S
C1115 C1114 1.400 . S
C1115 C1116 1.398 . S
C1115 C1121 1.491 . S
C1116 H1107 0.950 . S
C1116 C1115 1.398 . S
C1116 C1117 1.391 . S
C1117 H1105 0.950 . S
C1117 C1113 1.393 . S
C1117 C1116 1.391 . S
C1118 H1108 0.950 . S
C1118 C1119 1.386 . S
C1118 C1120 1.391 . S
C1119 C1118 1.386 . S
C1119 C1123 1.393 . S
C1120 H1109 0.950 . S
C1120 C1118 1.391 . S
C1120 C1121 1.400 . S
C1121 C1115 1.491 . S
C1121 C1120 1.400 . S
C1121 C1122 1.398 . S
C1122 H1110 0.950 . S
C1122 C1121 1.398 . S
C1122 C1123 1.391 . S
C1123 H1111 0.950 . S
C1123 C1119 1.393 . S
C1123 C1122 1.391 . S
H1124 C1132 0.950 . S
H1125 C1137 0.950 . S
H1126 C1134 0.950 . S
H1127 C1136 0.950 . S
H1128 C1138 0.950 . S
H1129 C1140 0.950 . S
H1130 C1142 0.950 . S
H1131 C1143 0.950 . S
C1132 H1124 0.950 . S
C1132 C1133 1.386 . S
C1132 C1134 1.391 . S
C1133 C1132 1.386 . S
C1133 C1137 1.393 . S
C1134 H1126 0.950 . S
C1134 C1132 1.391 . S
C1134 C1135 1.400 . S
C1135 C1134 1.400 . S
C1135 C1136 1.398 . S
C1135 C1141 1.491 . S
C1136 H1127 0.950 . S
C1136 C1135 1.398 . S
C1136 C1137 1.391 . S
C1137 H1125 0.950 . S
C1137 C1133 1.393 . S
C1137 C1136 1.391 . S
C1138 H1128 0.950 . S
C1138 C1139 1.386 . S
C1138 C1140 1.391 . S
C1139 C1138 1.386 . S
C1139 C1143 1.393 . S
C1140 H1129 0.950 . S
C1140 C1138 1.391 . S
C1140 C1141 1.400 . S
C1141 C1135 1.491 . S
C1141 C1140 1.400 . S
C1141 C1142 1.398 . S
C1142 H1130 0.950 . S
C1142 C1141 1.398 . S
C1142 C1143 1.391 . S
C1143 H1131 0.950 . S
C1143 C1139 1.393 . S
C1143 C1142 1.391 . S
H1144 C1152 0.950 . S
H1145 C1157 0.950 . S
H1146 C1154 0.950 . S
H1147 C1156 0.950 . S
H1148 C1158 0.950 . S
H1149 C1160 0.950 . S
H1150 C1162 0.950 . S
H1151 C1163 0.950 . S
C1152 H1144 0.950 . S
C1152 C1153 1.386 . S
C1152 C1154 1.391 . S
C1153 C1152 1.386 . S
C1153 C1157 1.393 . S
C1154 H1146 0.950 . S
C1154 C1152 1.391 . S
C1154 C1155 1.400 . S
C1155 C1154 1.400 . S
C1155 C1156 1.398 . S
C1155 C1161 1.491 . S
C1156 H1147 0.950 . S
C1156 C1155 1.398 . S
C1156 C1157 1.391 . S
C1157 H1145 0.950 . S
C1157 C1153 1.393 . S
C1157 C1156 1.391 . S
C1158 H1148 0.950 . S
C1158 C1159 1.386 . S
C1158 C1160 1.391 . S
C1159 C1158 1.386 . S
C1159 C1163 1.393 . S
C1160 H1149 0.950 . S
C1160 C1158 1.391 . S
C1160 C1161 1.400 . S
C1161 C1155 1.491 . S
C1161 C1160 1.400 . S
C1161 C1162 1.398 . S
C1162 H1150 0.950 . S
C1162 C1161 1.398 . S
C1162 C1163 1.391 . S
C1163 H1151 0.950 . S
C1163 C1159 1.393 . S
C1163 C1162 1.391 . S
H1164 C1172 0.950 . S
H1165 C1177 0.950 . S
H1166 C1174 0.950 . S
H1167 C1176 0.950 . S
H1168 C1178 0.950 . S
H1169 C1180 0.950 . S
H1170 C1182 0.950 . S
H1171 C1183 0.950 . S
C1172 H1164 0.950 . S
C1172 C1173 1.386 . S
C1172 C1174 1.391 . S
C1173 C1172 1.386 . S
C1173 C1177 1.393 . S
C1174 H1166 0.950 . S
C1174 C1172 1.391 . S
C1174 C1175 1.400 . S
C1175 C1174 1.400 . S
C1175 C1176 1.398 . S
C1175 C1181 1.491 . S
C1176 H1167 0.950 . S
C1176 C1175 1.398 . S
C1176 C1177 1.391 . S
C1177 H1165 0.950 . S
C1177 C1173 1.393 . S
C1177 C1176 1.391 . S
C1178 H1168 0.950 . S
C1178 C1179 1.386 . S
C1178 C1180 1.391 . S
C1179 C1178 1.386 . S
C1179 C1183 1.393 . S
C1180 H1169 0.950 . S
C1180 C1178 1.391 . S
C1180 C1181 1.400 . S
C1181 C1175 1.491 . S
C1181 C1180 1.400 . S
C1181 C1182 1.398 . S
C1182 H1170 0.950 . S
C1182 C1181 1.398 . S
C1182 C1183 1.391 . S
C1183 H1171 0.950 . S
C1183 C1179 1.393 . S
C1183 C1182 1.391 . S
H1184 C1192 0.950 . S
H1185 C1197 0.950 . S
H1186 C1194 0.950 . S
H1187 C1196 0.950 . S
H1188 C1198 0.950 . S
H1189 C1200 0.950 . S
H1190 C1202 0.950 . S
H1191 C1203 0.950 . S
C1192 H1184 0.950 . S
C1192 C1193 1.386 . S
C1192 C1194 1.391 . S
C1193 C1192 1.386 . S
C1193 C1197 1.393 . S
C1194 H1186 0.950 . S
C1194 C1192 1.391 . S
C1194 C1195 1.400 . S
C1195 C1194 1.400 . S
C1195 C1196 1.398 . S
C1195 C1201 1.491 . S
C1196 H1187 0.950 . S
C1196 C1195 1.398 . S
C1196 C1197 1.391 . S
C1197 H1185 0.950 . S
C1197 C1193 1.393 . S
C1197 C1196 1.391 . S
C1198 H1188 0.950 . S
C1198 C1199 1.386 . S
C1198 C1200 1.391 . S
C1199 C1198 1.386 . S
C1199 C1203 1.393 . S
C1200 H1189 0.950 . S
C1200 C1198 1.391 . S
C1200 C1201 1.400 . S
C1201 C1195 1.491 . S
C1201 C1200 1.400 . S
C1201 C1202 1.398 . S
C1202 H1190 0.950 . S
C1202 C1201 1.398 . S
C1202 C1203 1.391 . S
C1203 H1191 0.950 . S
C1203 C1199 1.393 . S
C1203 C1202 1.391 . S
H1204 C1212 0.950 . S
H1205 C1217 0.950 . S
H1206 C1214 0.950 . S
H1207 C1216 0.950 . S
H1208 C1218 0.950 . S
H1209 C1220 0.950 . S
H1210 C1222 0.950 . S
H1211 C1223 0.950 . S
C1212 H1204 0.950 . S
C1212 C1213 1.386 . S
C1212 C1214 1.391 . S
C1213 C1212 1.386 . S
C1213 C1217 1.393 . S
C1214 H1206 0.950 . S
C1214 C1212 1.391 . S
C1214 C1215 1.400 . S
C1215 C1214 1.400 . S
C1215 C1216 1.398 . S
C1215 C1221 1.491 . S
C1216 H1207 0.950 . S
C1216 C1215 1.398 . S
C1216 C1217 1.391 . S
C1217 H1205 0.950 . S
C1217 C1213 1.393 . S
C1217 C1216 1.391 . S
C1218 H1208 0.950 . S
C1218 C1219 1.386 . S
C1218 C1220 1.391 . S
C1219 C1218 1.386 . S
C1219 C1223 1.393 . S
C1220 H1209 0.950 . S
C1220 C1218 1.391 . S
C1220 C1221 1.400 . S
C1221 C1215 1.491 . S
C1221 C1220 1.400 . S
C1221 C1222 1.398 . S
C1222 H1210 0.950 . S
C1222 C1221 1.398 . S
C1222 C1223 1.391 . S
C1223 H1211 0.950 . S
C1223 C1219 1.393 . S
C1223 C1222 1.391 . S
H1224 C1232 0.950 . S
H1225 C1237 0.950 . S
H1226 C1234 0.950 . S
H1227 C1236 0.950 . S
H1228 C1238 0.950 . S
H1229 C1240 0.950 . S
H1230 C1242 0.950 . S
H1231 C1243 0.950 . S
C1232 H1224 0.950 . S
C1232 C1233 1.386 . S
C1232 C1234 1.391 . S
C1233 C1232 1.386 . S
C1233 C1237 1.393 . S
C1234 H1226 0.950 . S
C1234 C1232 1.391 . S
C1234 C1235 1.400 . S
C1235 C1234 1.400 . S
C1235 C1236 1.398 . S
C1235 C1241 1.491 . S
C1236 H1227 0.950 . S
C1236 C1235 1.398 . S
C1236 C1237 1.391 . S
C1237 H1225 0.950 . S
C1237 C1233 1.393 . S
C1237 C1236 1.391 . S
C1238 H1228 0.950 . S
C1238 C1239 1.386 . S
C1238 C1240 1.391 . S
C1239 C1238 1.386 . S
C1239 C1243 1.393 . S
C1240 H1229 0.950 . S
C1240 C1238 1.391 . S
C1240 C1241 1.400 . S
C1241 C1235 1.491 . S
C1241 C1240 1.400 . S
C1241 C1242 1.398 . S
C1242 H1230 0.950 . S
C1242 C1241 1.398 . S
C1242 C1243 1.391 . S
C1243 H1231 0.950 . S
C1243 C1239 1.393 . S
C1243 C1242 1.391 . S
H1244 C1252 0.950 . S
H1245 C1257 0.950 . S
H1246 C1254 0.950 . S
H1247 C1256 0.950 . S
H1248 C1258 0.950 . S
H1249 C1260 0.950 . S
H1250 C1262 0.950 . S
H1251 C1263 0.950 . S
C1252 H1244 0.950 . S
C1252 C1253 1.386 . S
C1252 C1254 1.391 . S
C1253 C1252 1.386 . S
C1253 C1257 1.393 . S
C1254 H1246 0.950 . S
C1254 C1252 1.391 . S
C1254 C1255 1.400 . S
C1255 C1254 1.400 . S
C1255 C1256 1.398 . S
C1255 C1261 1.491 . S
C1256 H1247 0.950 . S
C1256 C1255 1.398 . S
C1256 C1257 1.391 . S
C1257 H1245 0.950 . S
C1257 C1253 1.393 . S
C1257 C1256 1.391 . S
C1258 H1248 0.950 . S
C1258 C1259 1.386 . S
C1258 C1260 1.391 . S
C1259 C1258 1.386 . S
C1259 C1263 1.393 . S
C1260 H1249 0.950 . S
C1260 C1258 1.391 . S
C1260 C1261 1.400 . S
C1261 C1255 1.491 . S
C1261 C1260 1.400 . S
C1261 C1262 1.398 . S
C1262 H1250 0.950 . S
C1262 C1261 1.398 . S
C1262 C1263 1.391 . S
C1263 H1251 0.950 . S
C1263 C1259 1.393 . S
C1263 C1262 1.391 . S
H1264 C1272 0.950 . S
H1265 C1277 0.950 . S
H1266 C1274 0.950 . S
H1267 C1276 0.950 . S
H1268 C1278 0.950 . S
H1269 C1280 0.950 . S
H1270 C1282 0.950 . S
H1271 C1283 0.950 . S
C1272 H1264 0.950 . S
C1272 C1273 1.386 . S
C1272 C1274 1.391 . S
C1273 C1272 1.386 . S
C1273 C1277 1.393 . S
C1274 H1266 0.950 . S
C1274 C1272 1.391 . S
C1274 C1275 1.400 . S
C1275 C1274 1.400 . S
C1275 C1276 1.398 . S
C1275 C1281 1.491 . S
C1276 H1267 0.950 . S
C1276 C1275 1.398 . S
C1276 C1277 1.391 . S
C1277 H1265 0.950 . S
C1277 C1273 1.393 . S
C1277 C1276 1.391 . S
C1278 H1268 0.950 . S
C1278 C1279 1.386 . S
C1278 C1280 1.391 . S
C1279 C1278 1.386 . S
C1279 C1283 1.393 . S
C1280 H1269 0.950 . S
C1280 C1278 1.391 . S
C1280 C1281 1.400 . S
C1281 C1275 1.491 . S
C1281 C1280 1.400 . S
C1281 C1282 1.398 . S
C1282 H1270 0.950 . S
C1282 C1281 1.398 . S
C1282 C1283 1.391 . S
C1283 H1271 0.950 . S
C1283 C1279 1.393 . S
C1283 C1282 1.391 . S
H1284 C1292 0.950 . S
H1285 C1297 0.950 . S
H1286 C1294 0.950 . S
H1287 C1296 0.950 . S
H1288 C1298 0.950 . S
H1289 C1300 0.950 . S
H1290 C1302 0.950 . S
H1291 C1303 0.950 . S
C1292 H1284 0.950 . S
C1292 C1293 1.386 . S
C1292 C1294 1.391 . S
C1293 C1292 1.386 . S
C1293 C1297 1.393 . S
C1294 H1286 0.950 . S
C1294 C1292 1.391 . S
C1294 C1295 1.400 . S
C1295 C1294 1.400 . S
C1295 C1296 1.398 . S
C1295 C1301 1.491 . S
C1296 H1287 0.950 . S
C1296 C1295 1.398 . S
C1296 C1297 1.391 . S
C1297 H1285 0.950 . S
C1297 C1293 1.393 . S
C1297 C1296 1.391 . S
C1298 H1288 0.950 . S
C1298 C1299 1.386 . S
C1298 C1300 1.391 . S
C1299 C1298 1.386 . S
C1299 C1303 1.393 . S
C1300 H1289 0.950 . S
C1300 C1298 1.391 . S
C1300 C1301 1.400 . S
C1301 C1295 1.491 . S
C1301 C1300 1.400 . S
C1301 C1302 1.398 . S
C1302 H1290 0.950 . S
C1302 C1301 1.398 . S
C1302 C1303 1.391 . S
C1303 H1291 0.950 . S
C1303 C1299 1.393 . S
C1303 C1302 1.391 . S
H1304 C1312 0.950 . S
H1305 C1317 0.950 . S
H1306 C1314 0.950 . S
H1307 C1316 0.950 . S
H1308 C1318 0.950 . S
H1309 C1320 0.950 . S
H1310 C1322 0.950 . S
H1311 C1323 0.950 . S
C1312 H1304 0.950 . S
C1312 C1313 1.386 . S
C1312 C1314 1.391 . S
C1313 C1312 1.386 . S
C1313 C1317 1.393 . S
C1314 H1306 0.950 . S
C1314 C1312 1.391 . S
C1314 C1315 1.400 . S
C1315 C1314 1.400 . S
C1315 C1316 1.398 . S
C1315 C1321 1.491 . S
C1316 H1307 0.950 . S
C1316 C1315 1.398 . S
C1316 C1317 1.391 . S
C1317 H1305 0.950 . S
C1317 C1313 1.393 . S
C1317 C1316 1.391 . S
C1318 H1308 0.950 . S
C1318 C1319 1.386 . S
C1318 C1320 1.391 . S
C1319 C1318 1.386 . S
C1319 C1323 1.393 . S
C1320 H1309 0.950 . S
C1320 C1318 1.391 . S
C1320 C1321 1.400 . S
C1321 C1315 1.491 . S
C1321 C1320 1.400 . S
C1321 C1322 1.398 . S
C1322 H1310 0.950 . S
C1322 C1321 1.398 . S
C1322 C1323 1.391 . S
C1323 H1311 0.950 . S
C1323 C1319 1.393 . S
C1323 C1322 1.391 . S
H1324 C1332 0.950 . S
H1325 C1337 0.950 . S
H1326 C1334 0.950 . S
H1327 C1336 0.950 . S
H1328 C1338 0.950 . S
H1329 C1340 0.950 . S
H1330 C1342 0.950 . S
H1331 C1343 0.950 . S
C1332 H1324 0.950 . S
C1332 C1333 1.386 . S
C1332 C1334 1.391 . S
C1333 C1332 1.386 . S
C1333 C1337 1.393 . S
C1334 H1326 0.950 . S
C1334 C1332 1.391 . S
C1334 C1335 1.400 . S
C1335 C1334 1.400 . S
C1335 C1336 1.398 . S
C1335 C1341 1.491 . S
C1336 H1327 0.950 . S
C1336 C1335 1.398 . S
C1336 C1337 1.391 . S
C1337 H1325 0.950 . S
C1337 C1333 1.393 . S
C1337 C1336 1.391 . S
C1338 H1328 0.950 . S
C1338 C1339 1.386 . S
C1338 C1340 1.391 . S
C1339 C1338 1.386 . S
C1339 C1343 1.393 . S
C1340 H1329 0.950 . S
C1340 C1338 1.391 . S
C1340 C1341 1.400 . S
C1341 C1335 1.491 . S
C1341 C1340 1.400 . S
C1341 C1342 1.398 . S
C1342 H1330 0.950 . S
C1342 C1341 1.398 . S
C1342 C1343 1.391 . S
C1343 H1331 0.950 . S
C1343 C1339 1.393 . S
C1343 C1342 1.391 . S
H1344 C1352 0.950 . S
H1345 C1357 0.950 . S
H1346 C1354 0.950 . S
H1347 C1356 0.950 . S
H1348 C1358 0.950 . S
H1349 C1360 0.950 . S
H1350 C1362 0.950 . S
H1351 C1363 0.950 . S
C1352 H1344 0.950 . S
C1352 C1353 1.386 . S
C1352 C1354 1.391 . S
C1353 C1352 1.386 . S
C1353 C1357 1.393 . S
C1354 H1346 0.950 . S
C1354 C1352 1.391 . S
C1354 C1355 1.400 . S
C1355 C1354 1.400 . S
C1355 C1356 1.398 . S
C1355 C1361 1.491 . S
C1356 H1347 0.950 . S
C1356 C1355 1.398 . S
C1356 C1357 1.391 . S
C1357 H1345 0.950 . S
C1357 C1353 1.393 . S
C1357 C1356 1.391 . S
C1358 H1348 0.950 . S
C1358 C1359 1.386 . S
C1358 C1360 1.391 . S
C1359 C1358 1.386 . S
C1359 C1363 1.393 . S
C1360 H1349 0.950 . S
C1360 C1358 1.391 . S
C1360 C1361 1.400 . S
C1361 C1355 1.491 . S
C1361 C1360 1.400 . S
C1361 C1362 1.398 . S
C1362 H1350 0.950 . S
C1362 C1361 1.398 . S
C1362 C1363 1.391 . S
C1363 H1351 0.950 . S
C1363 C1359 1.393 . S
C1363 C1362 1.391 . S
H1364 C1372 0.950 . S
H1365 C1377 0.950 . S
H1366 C1374 0.950 . S
H1367 C1376 0.950 . S
H1368 C1378 0.950 . S
H1369 C1380 0.950 . S
H1370 C1382 0.950 . S
H1371 C1383 0.950 . S
C1372 H1364 0.950 . S
C1372 C1373 1.386 . S
C1372 C1374 1.391 . S
C1373 C1372 1.386 . S
C1373 C1377 1.393 . S
C1374 H1366 0.950 . S
C1374 C1372 1.391 . S
C1374 C1375 1.400 . S
C1375 C1374 1.400 . S
C1375 C1376 1.398 . S
C1375 C1381 1.491 . S
C1376 H1367 0.950 . S
C1376 C1375 1.398 . S
C1376 C1377 1.391 . S
C1377 H1365 0.950 . S
C1377 C1373 1.393 . S
C1377 C1376 1.391 . S
C1378 H1368 0.950 . S
C1378 C1379 1.386 . S
C1378 C1380 1.391 . S
C1379 C1378 1.386 . S
C1379 C1383 1.393 . S
C1380 H1369 0.950 . S
C1380 C1378 1.391 . S
C1380 C1381 1.400 . S
C1381 C1375 1.491 . S
C1381 C1380 1.400 . S
C1381 C1382 1.398 . S
C1382 H1370 0.950 . S
C1382 C1381 1.398 . S
C1382 C1383 1.391 . S
C1383 H1371 0.950 . S
C1383 C1379 1.393 . S
C1383 C1382 1.391 . S
H1384 C1392 0.950 . S
H1385 C1397 0.950 . S
H1386 C1394 0.950 . S
H1387 C1396 0.950 . S
H1388 C1398 0.950 . S
H1389 C1400 0.950 . S
H1390 C1402 0.950 . S
H1391 C1403 0.950 . S
C1392 H1384 0.950 . S
C1392 C1393 1.386 . S
C1392 C1394 1.391 . S
C1393 C1392 1.386 . S
C1393 C1397 1.393 . S
C1394 H1386 0.950 . S
C1394 C1392 1.391 . S
C1394 C1395 1.400 . S
C1395 C1394 1.400 . S
C1395 C1396 1.398 . S
C1395 C1401 1.491 . S
C1396 H1387 0.950 . S
C1396 C1395 1.398 . S
C1396 C1397 1.391 . S
C1397 H1385 0.950 . S
C1397 C1393 1.393 . S
C1397 C1396 1.391 . S
C1398 H1388 0.950 . S
C1398 C1399 1.386 . S
C1398 C1400 1.391 . S
C1399 C1398 1.386 . S
C1399 C1403 1.393 . S
C1400 H1389 0.950 . S
C1400 C1398 1.391 . S
C1400 C1401 1.400 . S
C1401 C1395 1.491 . S
C1401 C1400 1.400 . S
C1401 C1402 1.398 . S
C1402 H1390 0.950 . S
C1402 C1401 1.398 . S
C1402 C1403 1.391 . S
C1403 H1391 0.950 . S
C1403 C1399 1.393 . S
C1403 C1402 1.391 . S
H1404 C1412 0.950 . S
H1405 C1417 0.950 . S
H1406 C1414 0.950 . S
H1407 C1416 0.950 . S
H1408 C1418 0.950 . S
H1409 C1420 0.950 . S
H1410 C1422 0.950 . S
H1411 C1423 0.950 . S
C1412 H1404 0.950 . S
C1412 C1413 1.386 . S
C1412 C1414 1.391 . S
C1413 C1412 1.386 . S
C1413 C1417 1.393 . S
C1414 H1406 0.950 . S
C1414 C1412 1.391 . S
C1414 C1415 1.400 . S
C1415 C1414 1.400 . S
C1415 C1416 1.398 . S
C1415 C1421 1.491 . S
C1416 H1407 0.950 . S
C1416 C1415 1.398 . S
C1416 C1417 1.391 . S
C1417 H1405 0.950 . S
C1417 C1413 1.393 . S
C1417 C1416 1.391 . S
C1418 H1408 0.950 . S
C1418 C1419 1.386 . S
C1418 C1420 1.391 . S
C1419 C1418 1.386 . S
C1419 C1423 1.393 . S
C1420 H1409 0.950 . S
C1420 C1418 1.391 . S
C1420 C1421 1.400 . S
C1421 C1415 1.491 . S
C1421 C1420 1.400 . S
C1421 C1422 1.398 . S
C1422 H1410 0.950 . S
C1422 C1421 1.398 . S
C1422 C1423 1.391 . S
C1423 H1411 0.950 . S
C1423 C1419 1.393 . S
C1423 C1422 1.391 . S
H1424 C1432 0.950 . S
H1425 C1437 0.950 . S
H1426 C1434 0.950 . S
H1427 C1436 0.950 . S
H1428 C1438 0.950 . S
H1429 C1440 0.950 . S
H1430 C1442 0.950 . S
H1431 C1443 0.950 . S
C1432 H1424 0.950 . S
C1432 C1433 1.386 . S
C1432 C1434 1.391 . S
C1433 C1432 1.386 . S
C1433 C1437 1.393 1_455 S
C1434 H1426 0.950 . S
C1434 C1432 1.391 . S
C1434 C1435 1.400 . S
C1435 C1434 1.400 . S
C1435 C1436 1.398 1_455 S
C1435 C1441 1.491 1_455 S
C1436 H1427 0.950 . S
C1436 C1435 1.398 1_655 S
C1436 C1437 1.391 . S
C1437 H1425 0.950 . S
C1437 C1433 1.393 1_655 S
C1437 C1436 1.391 . S
C1438 H1428 0.950 . S
C1438 C1439 1.386 . S
C1438 C1440 1.391 . S
C1439 C1438 1.386 . S
C1439 C1443 1.393 1_655 S
C1440 H1429 0.950 . S
C1440 C1438 1.391 . S
C1440 C1441 1.400 . S
C1441 C1435 1.491 1_655 S
C1441 C1440 1.400 . S
C1441 C1442 1.398 1_655 S
C1442 H1430 0.950 . S
C1442 C1441 1.398 1_455 S
C1442 C1443 1.391 . S
C1443 H1431 0.950 . S
C1443 C1439 1.393 1_455 S
C1443 C1442 1.391 . S
H1444 C1452 0.950 . S
H1445 C1457 0.950 . S
H1446 C1454 0.950 . S
H1447 C1456 0.950 . S
H1448 C1458 0.950 . S
H1449 C1460 0.950 . S
H1450 C1462 0.950 . S
H1451 C1463 0.950 . S
C1452 H1444 0.950 . S
C1452 C1453 1.386 . S
C1452 C1454 1.391 . S
C1453 C1452 1.386 . S
C1453 C1457 1.393 1_565 S
C1454 H1446 0.950 . S
C1454 C1452 1.391 . S
C1454 C1455 1.400 . S
C1455 C1454 1.400 . S
C1455 C1456 1.398 1_565 S
C1455 C1461 1.491 1_565 S
C1456 H1447 0.950 . S
C1456 C1455 1.398 1_545 S
C1456 C1457 1.391 . S
C1457 H1445 0.950 . S
C1457 C1453 1.393 1_545 S
C1457 C1456 1.391 . S
C1458 H1448 0.950 . S
C1458 C1459 1.386 . S
C1458 C1460 1.391 . S
C1459 C1458 1.386 . S
C1459 C1463 1.393 1_545 S
C1460 H1449 0.950 . S
C1460 C1458 1.391 . S
C1460 C1461 1.400 . S
C1461 C1455 1.491 1_545 S
C1461 C1460 1.400 . S
C1461 C1462 1.398 1_545 S
C1462 H1450 0.950 . S
C1462 C1461 1.398 1_565 S
C1462 C1463 1.391 . S
C1463 H1451 0.950 . S
C1463 C1459 1.393 1_565 S
C1463 C1462 1.391 . S
H1464 C1472 0.950 . S
H1465 C1477 0.950 . S
H1466 C1474 0.950 . S
H1467 C1476 0.950 1_655 S
H1468 C1478 0.950 . S
H1469 C1480 0.950 . S
H1470 C1482 0.950 1_455 S
H1471 C1483 0.950 . S
C1472 H1464 0.950 . S
C1472 C1473 1.386 . S
C1472 C1474 1.391 . S
C1473 C1472 1.386 . S
C1473 C1477 1.393 . S
C1474 H1466 0.950 . S
C1474 C1472 1.391 . S
C1474 C1475 1.400 . S
C1475 C1474 1.400 . S
C1475 C1476 1.398 . S
C1475 C1481 1.491 1_455 S
C1476 H1467 0.950 1_455 S
C1476 C1475 1.398 . S
C1476 C1477 1.391 . S
C1477 H1465 0.950 . S
C1477 C1473 1.393 . S
C1477 C1476 1.391 . S
C1478 H1468 0.950 . S
C1478 C1479 1.386 . S
C1478 C1480 1.391 . S
C1479 C1478 1.386 . S
C1479 C1483 1.393 . S
C1480 H1469 0.950 . S
C1480 C1478 1.391 . S
C1480 C1481 1.400 . S
C1481 C1475 1.491 1_655 S
C1481 C1480 1.400 . S
C1481 C1482 1.398 . S
C1482 H1470 0.950 1_655 S
C1482 C1481 1.398 . S
C1482 C1483 1.391 . S
C1483 H1471 0.950 . S
C1483 C1479 1.393 . S
C1483 C1482 1.391 . S
H1484 C1492 0.950 1_545 S
H1485 C1497 0.950 . S
H1486 C1494 0.950 . S
H1487 C1496 0.950 . S
H1488 C1498 0.950 1_565 S
H1489 C1500 0.950 . S
H1490 C1502 0.950 . S
H1491 C1503 0.950 . S
C1492 H1484 0.950 1_565 S
C1492 C1493 1.386 . S
C1492 C1494 1.391 1_565 S
C1493 C1492 1.386 . S
C1493 C1497 1.393 . S
C1494 H1486 0.950 . S
C1494 C1492 1.391 1_545 S
C1494 C1495 1.400 1_545 S
C1495 C1494 1.400 1_565 S
C1495 C1496 1.398 . S
C1495 C1501 1.491 1_565 S
C1496 H1487 0.950 . S
C1496 C1495 1.398 . S
C1496 C1497 1.391 . S
C1497 H1485 0.950 . S
C1497 C1493 1.393 . S
C1497 C1496 1.391 . S
C1498 H1488 0.950 1_545 S
C1498 C1499 1.386 . S
C1498 C1500 1.391 1_545 S
C1499 C1498 1.386 . S
C1499 C1503 1.393 . S
C1500 H1489 0.950 . S
C1500 C1498 1.391 1_565 S
C1500 C1501 1.400 1_565 S
C1501 C1495 1.491 1_545 S
C1501 C1500 1.400 1_545 S
C1501 C1502 1.398 . S
C1502 H1490 0.950 . S
C1502 C1501 1.398 . S
C1502 C1503 1.391 . S
C1503 H1491 0.950 . S
C1503 C1499 1.393 . S
C1503 C1502 1.391 . S
H1504 C1512 0.950 . S
H1505 C1517 0.950 . S
H1506 C1514 0.950 . S
H1507 C1516 0.950 . S
H1508 C1518 0.950 . S
H1509 C1520 0.950 . S
H1510 C1522 0.950 . S
H1511 C1523 0.950 . S
C1512 H1504 0.950 . S
C1512 C1513 1.386 . S
C1512 C1514 1.391 . S
C1513 C1512 1.386 . S
C1513 C1517 1.393 . S
C1514 H1506 0.950 . S
C1514 C1512 1.391 . S
C1514 C1515 1.400 . S
C1515 C1514 1.400 . S
C1515 C1516 1.398 . S
C1515 C1521 1.491 1_455 S
C1516 H1507 0.950 . S
C1516 C1515 1.398 . S
C1516 C1517 1.391 . S
C1517 H1505 0.950 . S
C1517 C1513 1.393 . S
C1517 C1516 1.391 . S
C1518 H1508 0.950 . S
C1518 C1519 1.386 . S
C1518 C1520 1.391 . S
C1519 C1518 1.386 . S
C1519 C1523 1.393 . S
C1520 H1509 0.950 . S
C1520 C1518 1.391 . S
C1520 C1521 1.400 . S
C1521 C1515 1.491 1_655 S
C1521 C1520 1.400 . S
C1521 C1522 1.398 . S
C1522 H1510 0.950 . S
C1522 C1521 1.398 . S
C1522 C1523 1.391 . S
C1523 H1511 0.950 . S
C1523 C1519 1.393 . S
C1523 C1522 1.391 . S
H1524 C1532 0.950 . S
H1525 C1537 0.950 . S
H1526 C1534 0.950 . S
H1527 C1536 0.950 . S
H1528 C1538 0.950 . S
H1529 C1540 0.950 . S
H1530 C1542 0.950 . S
H1531 C1543 0.950 . S
C1532 H1524 0.950 . S
C1532 C1533 1.386 . S
C1532 C1534 1.391 . S
C1533 C1532 1.386 . S
C1533 C1537 1.393 . S
C1534 H1526 0.950 . S
C1534 C1532 1.391 . S
C1534 C1535 1.400 . S
C1535 C1534 1.400 . S
C1535 C1536 1.398 . S
C1535 C1541 1.491 1_545 S
C1536 H1527 0.950 . S
C1536 C1535 1.398 . S
C1536 C1537 1.391 . S
C1537 H1525 0.950 . S
C1537 C1533 1.393 . S
C1537 C1536 1.391 . S
C1538 H1528 0.950 . S
C1538 C1539 1.386 . S
C1538 C1540 1.391 . S
C1539 C1538 1.386 . S
C1539 C1543 1.393 . S
C1540 H1529 0.950 . S
C1540 C1538 1.391 . S
C1540 C1541 1.400 . S
C1541 C1535 1.491 1_565 S
C1541 C1540 1.400 . S
C1541 C1542 1.398 . S
C1542 H1530 0.950 . S
C1542 C1541 1.398 . S
C1542 C1543 1.391 . S
C1543 H1531 0.950 . S
C1543 C1539 1.393 . S
C1543 C1542 1.391 . S
H1544 C1552 0.950 . S
H1545 C1557 0.950 . S
H1546 C1554 0.950 . S
H1547 C1556 0.950 . S
H1548 C1558 0.950 . S
H1549 C1560 0.950 . S
H1550 C1562 0.950 . S
H1551 C1563 0.950 . S
C1552 H1544 0.950 . S
C1552 C1553 1.386 . S
C1552 C1554 1.391 . S
C1553 C1552 1.386 . S
C1553 C1557 1.393 . S
C1554 H1546 0.950 . S
C1554 C1552 1.391 . S
C1554 C1555 1.400 . S
C1555 C1554 1.400 . S
C1555 C1556 1.398 . S
C1555 C1561 1.491 1_455 S
C1556 H1547 0.950 . S
C1556 C1555 1.398 . S
C1556 C1557 1.391 . S
C1557 H1545 0.950 . S
C1557 C1553 1.393 . S
C1557 C1556 1.391 . S
C1558 H1548 0.950 . S
C1558 C1559 1.386 . S
C1558 C1560 1.391 . S
C1559 C1558 1.386 . S
C1559 C1563 1.393 . S
C1560 H1549 0.950 . S
C1560 C1558 1.391 . S
C1560 C1561 1.400 . S
C1561 C1555 1.491 1_655 S
C1561 C1560 1.400 . S
C1561 C1562 1.398 . S
C1562 H1550 0.950 . S
C1562 C1561 1.398 . S
C1562 C1563 1.391 . S
C1563 H1551 0.950 . S
C1563 C1559 1.393 . S
C1563 C1562 1.391 . S
H1564 C1572 0.950 . S
H1565 C1577 0.950 . S
H1566 C1574 0.950 . S
H1567 C1576 0.950 . S
H1568 C1578 0.950 . S
H1569 C1580 0.950 . S
H1570 C1582 0.950 . S
H1571 C1583 0.950 . S
C1572 H1564 0.950 . S
C1572 C1573 1.386 . S
C1572 C1574 1.391 . S
C1573 C1572 1.386 . S
C1573 C1577 1.393 . S
C1574 H1566 0.950 . S
C1574 C1572 1.391 . S
C1574 C1575 1.400 . S
C1575 C1574 1.400 . S
C1575 C1576 1.398 . S
C1575 C1581 1.491 1_565 S
C1576 H1567 0.950 . S
C1576 C1575 1.398 . S
C1576 C1577 1.391 . S
C1577 H1565 0.950 . S
C1577 C1573 1.393 . S
C1577 C1576 1.391 . S
C1578 H1568 0.950 . S
C1578 C1579 1.386 . S
C1578 C1580 1.391 . S
C1579 C1578 1.386 . S
C1579 C1583 1.393 . S
C1580 H1569 0.950 . S
C1580 C1578 1.391 . S
C1580 C1581 1.400 . S
C1581 C1575 1.491 1_545 S
C1581 C1580 1.400 . S
C1581 C1582 1.398 . S
C1582 H1570 0.950 . S
C1582 C1581 1.398 . S
C1582 C1583 1.391 . S
C1583 H1571 0.950 . S
C1583 C1579 1.393 . S
C1583 C1582 1.391 . S
C473 C10 1.576 . S
C479 C300 1.586 . S
C493 C39 1.596 . S
C499 C329 1.607 . S
C513 C242 1.587 . S
C519 C68 1.609 . S
C533 C271 1.598 . S
C539 C97 1.606 . S
C553 C126 1.575 . S
C559 C416 1.588 . S
C573 C445 1.593 . S
C579 C155 1.608 . S
C593 C358 1.582 . S
C599 C184 1.608 . S
C613 C213 1.606 . S
C619 C387 1.579 . S
C633 C100 1.931 . S
C639 C3 2.028 . S
C653 C13 1.918 . S
C659 C32 2.017 . S
C673 C61 2.014 . S
C679 C42 1.936 . S
C693 C90 2.014 . S
C699 C71 1.935 . S
C713 C158 1.931 . S
C719 C119 2.027 . S
C733 C148 2.019 . S
C739 C187 1.916 . S
C753 C216 1.923 . S
C759 C177 2.015 . S
C773 C129 1.932 . S
C779 C206 2.014 . S
C793 C253 1.570 . S
C799 C327 1.552 . S
C813 C240 1.550 . S
C819 C282 1.569 . S
C833 C311 1.588 . S
C839 C269 1.573 . S
C853 C298 1.549 . S
C859 C340 1.567 . S
C873 C369 1.581 . S
C879 C385 1.564 . S
C893 C414 1.549 . S
C899 C398 1.567 . S
C913 C443 1.549 . S
C919 C427 1.567 . S
C933 C356 1.566 . S
C939 C456 1.582 . S
C953 C380 2.014 . S
C959 C361 1.931 . S
C973 C409 2.015 . S
C979 C390 1.936 . S
C993 C419 1.934 . S
C999 C438 2.014 . S
C1013 C448 1.937 . S
C1019 C351 2.024 . S
C1033 C322 2.029 . S
C1039 C245 1.926 . S
C1053 C274 1.914 . S
C1059 C235 2.021 . S
C1073 C303 1.918 . S
C1079 C264 2.029 . S
C1093 C332 1.940 . S
C1099 C293 2.020 . S
C1113 C166 1.584 . S
C1119 C124 1.570 . S
C1133 C153 1.550 . S
C1139 C195 1.568 . S
C1153 C224 1.578 . S
C1159 C182 1.561 . S
C1173 C211 1.549 . S
C1179 C137 1.568 . S
C1193 C108 1.570 . S
C1199 C8 1.552 . S
C1213 C37 1.563 . S
C1219 C21 1.580 . S
C1233 C66 1.571 . S
C1239 C50 1.587 . S
C1253 C95 1.549 . S
C1259 C79 1.568 . S
C1273 C150 1.382 . S
C1279 C5 1.384 . S
C1293 C179 1.395 . S
C1299 C34 1.401 . S
C1313 C208 1.388 . S
C1319 C63 1.401 . S
C1333 C121 1.383 . S
C1339 C92 1.396 . S
C1353 C382 1.392 . S
C1359 C237 1.381 . S
C1373 C266 1.399 . S
C1379 C411 1.385 . S
C1393 C295 1.380 . S
C1399 C440 1.389 . S
C1413 C324 1.381 . S
C1419 C353 1.386 . S
C1433 C15 1.529 . S
C1439 C73 1.513 . S
C1453 C102 1.529 . S
C1459 C44 1.513 . S
C1473 C131 1.526 . S
C1479 C189 1.523 . S
C1493 C218 1.515 . S
C1499 C160 1.529 . S
C1513 C305 1.515 . S
C1519 C247 1.529 . S
C1533 C334 1.510 . S
C1539 C276 1.510 . S
C1553 C421 1.529 . S
C1559 C363 1.519 . S
C1573 C392 1.506 . S
C1579 C450 1.525 . S
