# Generated by pormake.
# Topology sth, (5)-cn, num edge types: 1
# Building blocks:
#     Node 0, Type 0, BuildingBlock: BEQFEK_clean_sbu_0, # of connection points: 5
#     Node 1, Type 0, BuildingBlock: BEQFEK_clean_sbu_0, # of connection points: 5
#     Node 2, Type 0, BuildingBlock: BEQFEK_clean_sbu_0, # of connection points: 5
#     Node 3, Type 0, BuildingBlock: BEQFEK_clean_sbu_0, # of connection points: 5
#     Node 4, Type 0, BuildingBlock: BEQFEK_clean_sbu_0, # of connection points: 5
#     Node 5, Type 0, BuildingBlock: BEQFEK_clean_sbu_0, # of connection points: 5
#     Node 6, Type 0, BuildingBlock: BEQFEK_clean_sbu_0, # of connection points: 5
#     Node 7, Type 0, BuildingBlock: BEQFEK_clean_sbu_0, # of connection points: 5
#     Node 8, Type 0, BuildingBlock: BEQFEK_clean_sbu_0, # of connection points: 5
#     Node 9, Type 0, BuildingBlock: BEQFEK_clean_sbu_0, # of connection points: 5
#     Node 10, Type 0, BuildingBlock: BEQFEK_clean_sbu_0, # of connection points: 5
#     Node 11, Type 0, BuildingBlock: BEQFEK_clean_sbu_0, # of connection points: 5
#     Node 12, Type 0, BuildingBlock: BEQFEK_clean_sbu_0, # of connection points: 5
#     Node 13, Type 0, BuildingBlock: BEQFEK_clean_sbu_0, # of connection points: 5
#     Node 14, Type 0, BuildingBlock: BEQFEK_clean_sbu_0, # of connection points: 5
#     Node 15, Type 0, BuildingBlock: BEQFEK_clean_sbu_0, # of connection points: 5
#     Node 16, Type 0, BuildingBlock: BEQFEK_clean_sbu_0, # of connection points: 5
#     Node 17, Type 0, BuildingBlock: BEQFEK_clean_sbu_0, # of connection points: 5
#     Edge 18, Type (0, 0), BuildingBlock: TEMPAE_clean_linker_10, # of connection points: 2
#     Edge 19, Type (0, 0), BuildingBlock: TEMPAE_clean_linker_10, # of connection points: 2
#     Edge 20, Type (0, 0), BuildingBlock: TEMPAE_clean_linker_10, # of connection points: 2
#     Edge 21, Type (0, 0), BuildingBlock: TEMPAE_clean_linker_10, # of connection points: 2
#     Edge 22, Type (0, 0), BuildingBlock: TEMPAE_clean_linker_10, # of connection points: 2
#     Edge 23, Type (0, 0), BuildingBlock: TEMPAE_clean_linker_10, # of connection points: 2
#     Edge 24, Type (0, 0), BuildingBlock: TEMPAE_clean_linker_10, # of connection points: 2
#     Edge 25, Type (0, 0), BuildingBlock: TEMPAE_clean_linker_10, # of connection points: 2
#     Edge 26, Type (0, 0), BuildingBlock: TEMPAE_clean_linker_10, # of connection points: 2
#     Edge 27, Type (0, 0), BuildingBlock: TEMPAE_clean_linker_10, # of connection points: 2
#     Edge 28, Type (0, 0), BuildingBlock: TEMPAE_clean_linker_10, # of connection points: 2
#     Edge 29, Type (0, 0), BuildingBlock: TEMPAE_clean_linker_10, # of connection points: 2
#     Edge 30, Type (0, 0), BuildingBlock: TEMPAE_clean_linker_10, # of connection points: 2
#     Edge 31, Type (0, 0), BuildingBlock: TEMPAE_clean_linker_10, # of connection points: 2
#     Edge 32, Type (0, 0), BuildingBlock: TEMPAE_clean_linker_10, # of connection points: 2
#     Edge 33, Type (0, 0), BuildingBlock: TEMPAE_clean_linker_10, # of connection points: 2
#     Edge 34, Type (0, 0), BuildingBlock: TEMPAE_clean_linker_10, # of connection points: 2
#     Edge 35, Type (0, 0), BuildingBlock: TEMPAE_clean_linker_10, # of connection points: 2
#     Edge 36, Type (0, 0), BuildingBlock: TEMPAE_clean_linker_10, # of connection points: 2
#     Edge 37, Type (0, 0), BuildingBlock: TEMPAE_clean_linker_10, # of connection points: 2
#     Edge 38, Type (0, 0), BuildingBlock: TEMPAE_clean_linker_10, # of connection points: 2
#     Edge 39, Type (0, 0), BuildingBlock: TEMPAE_clean_linker_10, # of connection points: 2
#     Edge 40, Type (0, 0), BuildingBlock: TEMPAE_clean_linker_10, # of connection points: 2
#     Edge 41, Type (0, 0), BuildingBlock: TEMPAE_clean_linker_10, # of connection points: 2
#     Edge 42, Type (0, 0), BuildingBlock: TEMPAE_clean_linker_10, # of connection points: 2
#     Edge 43, Type (0, 0), BuildingBlock: TEMPAE_clean_linker_10, # of connection points: 2
#     Edge 44, Type (0, 0), BuildingBlock: TEMPAE_clean_linker_10, # of connection points: 2
#     Edge 45, Type (0, 0), BuildingBlock: TEMPAE_clean_linker_10, # of connection points: 2
#     Edge 46, Type (0, 0), BuildingBlock: TEMPAE_clean_linker_10, # of connection points: 2
#     Edge 47, Type (0, 0), BuildingBlock: TEMPAE_clean_linker_10, # of connection points: 2
#     Edge 48, Type (0, 0), BuildingBlock: TEMPAE_clean_linker_10, # of connection points: 2
#     Edge 49, Type (0, 0), BuildingBlock: TEMPAE_clean_linker_10, # of connection points: 2
#     Edge 50, Type (0, 0), BuildingBlock: TEMPAE_clean_linker_10, # of connection points: 2
#     Edge 51, Type (0, 0), BuildingBlock: TEMPAE_clean_linker_10, # of connection points: 2
#     Edge 52, Type (0, 0), BuildingBlock: TEMPAE_clean_linker_10, # of connection points: 2
#     Edge 53, Type (0, 0), BuildingBlock: TEMPAE_clean_linker_10, # of connection points: 2
#     Edge 54, Type (0, 0), BuildingBlock: TEMPAE_clean_linker_10, # of connection points: 2
#     Edge 55, Type (0, 0), BuildingBlock: TEMPAE_clean_linker_10, # of connection points: 2
#     Edge 56, Type (0, 0), BuildingBlock: TEMPAE_clean_linker_10, # of connection points: 2
#     Edge 57, Type (0, 0), BuildingBlock: TEMPAE_clean_linker_10, # of connection points: 2
#     Edge 58, Type (0, 0), BuildingBlock: TEMPAE_clean_linker_10, # of connection points: 2
#     Edge 59, Type (0, 0), BuildingBlock: TEMPAE_clean_linker_10, # of connection points: 2
#     Edge 60, Type (0, 0), BuildingBlock: TEMPAE_clean_linker_10, # of connection points: 2
#     Edge 61, Type (0, 0), BuildingBlock: TEMPAE_clean_linker_10, # of connection points: 2
#     Edge 62, Type (0, 0), BuildingBlock: TEMPAE_clean_linker_10, # of connection points: 2
# Relax obj value: 0.261
# Max RMSD: 0.160
# Mean RMSD: 0.160
data_MOF--net-sth--node1-BEQFEK_clean_sbu_0--edge1-TEMPAE_clean_linker_10
_symmetry_space_group_name_H-M    P1
_symmetry_Int_Tables_number       1
_symmetry_cell_setting            triclinic
loop_
_symmetry_equiv_pos_as_xyz
'x, y, z'
_cell_length_a     44.91778
_cell_length_b     44.931887
_cell_length_c     67.828565
_cell_angle_alpha  89.989361
_cell_angle_beta   90.008191
_cell_angle_gamma 120.04325
loop_
_atom_site_label
_atom_site_type_symbol
_atom_site_fract_x
_atom_site_fract_y
_atom_site_fract_z
_atom_type_partial_charge
Co0 Co 0.06198 0.23865 0.2352 0.0
Co1 Co 0.1367 0.29789 0.2243 0.0
C2 C 0.07596 0.29574 0.20585 0.0
O3 O 0.05645 0.26933 0.21618 0.0
O4 O 0.10863 0.30955 0.20654 0.0
C5 C 0.99646 0.18298 0.22311 0.0
O6 O 1.00395 0.2009 0.20672 0.0
C7 C 0.20372 0.34301 0.20441 0.0
C8 C 0.23907 0.35583 0.22972 0.0
C9 C 0.2384 0.36051 0.20958 0.0
N10 N 0.18501 0.32851 0.22077 0.0
N11 N 0.20635 0.33673 0.23584 0.0
C12 C 0.18864 0.33719 0.18415 0.0
H13 H 0.16256 0.31409 0.18392 0.0
H14 H 0.20549 0.33415 0.17335 0.0
H15 H 0.18642 0.3598 0.17976 0.0
C16 C 0.09429 0.19664 0.22676 0.0
N17 N 0.09524 0.22711 0.22674 0.0
N18 N 0.12611 0.25146 0.22144 0.0
C19 C 0.14567 0.2371 0.2176 0.0
C20 C 0.1262 0.20186 0.22092 0.0
C21 C 0.0648 0.16409 0.23471 0.0
H22 H 0.05441 0.16977 0.24811 0.0
H23 H 0.04409 0.15285 0.22347 0.0
H24 H 0.07257 0.14494 0.23852 0.0
O25 O 0.07604 0.26277 0.26089 0.0
O26 O 0.12755 0.30524 0.25202 0.0
H27 H 0.19867 0.27214 0.22375 0.0
H28 H 0.19165 0.23949 0.20581 0.0
C29 C 0.18245 0.2568 0.21118 0.0
H30 H 0.18521 0.27462 0.19914 0.0
H31 H 0.1986 0.32836 0.25027 0.0
O32 O 0.01703 0.19508 0.23766 0.0
C33 C 0.10396 0.29034 0.2649 0.0
Co34 Co 0.78148 0.8322 0.23447 0.0
Co35 Co 0.71966 0.84388 0.2237 0.0
C36 C 0.72551 0.78669 0.20544 0.0
O37 O 0.75263 0.79487 0.21541 0.0
O38 O 0.71035 0.80421 0.20653 0.0
C39 C 0.83419 0.81172 0.23215 0.0
O40 O 0.80992 0.7824 0.22493 0.0
C41 C 0.67324 0.86282 0.20255 0.0
C42 C 0.65215 0.87744 0.2278 0.0
C43 C 0.6514 0.87528 0.20744 0.0
N44 N 0.68665 0.85838 0.21932 0.0
N45 N 0.67366 0.86694 0.23431 0.0
C46 C 0.68028 0.85413 0.18242 0.0
H47 H 0.68825 0.83449 0.18332 0.0
H48 H 0.70145 0.87746 0.17545 0.0
H49 H 0.65713 0.84465 0.17294 0.0
C50 C 0.82033 0.90666 0.22556 0.0
N51 N 0.79063 0.87632 0.22574 0.0
N52 N 0.7652 0.88143 0.22083 0.0
C53 C 0.77803 0.91527 0.21726 0.0
C54 C 0.81345 0.93242 0.22011 0.0
C55 C 0.85378 0.91132 0.23301 0.0
H56 H 0.8494 0.89698 0.24702 0.0
H57 H 0.86424 0.90066 0.22203 0.0
H58 H 0.87297 0.93871 0.23569 0.0
O59 O 0.75693 0.82122 0.26015 0.0
O60 O 0.71311 0.82827 0.25153 0.0
H61 H 0.7398 0.9286 0.22442 0.0
H62 H 0.77266 0.95845 0.2077 0.0
C63 C 0.75663 0.93099 0.21183 0.0
H64 H 0.74008 0.91698 0.19914 0.0
H65 H 0.67988 0.86608 0.24904 0.0
O66 O 0.82675 0.83438 0.23745 0.0
C67 C 0.7289 0.82053 0.26433 0.0
Co68 Co 0.18547 0.95342 0.23477 0.0
Co69 Co 0.17434 0.88004 0.22475 0.0
C70 C 0.23134 0.94305 0.20624 0.0
O71 O 0.22313 0.96193 0.21616 0.0
O72 O 0.21379 0.91036 0.20734 0.0
C73 C 0.19211 0.01757 0.223 0.0
O74 O 0.20336 0.01087 0.20667 0.0
C75 C 0.15318 0.81526 0.20296 0.0
C76 C 0.14576 0.77991 0.22755 0.0
C77 C 0.14328 0.78127 0.20726 0.0
N78 N 0.16064 0.83293 0.22 0.0
N79 N 0.15634 0.81164 0.23459 0.0
C80 C 0.15705 0.83114 0.18303 0.0
H81 H 0.17552 0.85915 0.18361 0.0
H82 H 0.13189 0.82742 0.17808 0.0
H83 H 0.16578 0.81873 0.17212 0.0
C84 C 0.11106 0.91742 0.22553 0.0
N85 N 0.14154 0.91834 0.22583 0.0
N86 N 0.13638 0.88736 0.22203 0.0
C87 C 0.10231 0.86567 0.21962 0.0
C88 C 0.08531 0.88413 0.22147 0.0
C89 C 0.10622 0.94684 0.23137 0.0
H90 H 0.11816 0.9567 0.246 0.0
H91 H 0.11932 0.96791 0.22049 0.0
H92 H 0.0786 0.93921 0.232 0.0
O93 O 0.19627 0.94001 0.26067 0.0
O94 O 0.19012 0.88935 0.25243 0.0
H95 H 0.09579 0.81764 0.22982 0.0
H96 H 0.05742 0.8146 0.21918 0.0
C97 C 0.08584 0.82742 0.21802 0.0
H98 H 0.09244 0.82073 0.2036 0.0
H99 H 0.16027 0.81868 0.24943 0.0
O100 O 0.184 0.99688 0.23747 0.0
C101 C 0.19748 0.91301 0.26507 0.0
Co102 Co 0.24123 0.0605 0.76606 0.0
Co103 Co 0.30222 0.13521 0.7751 0.0
C104 C 0.29819 0.07311 0.79422 0.0
O105 O 0.27101 0.0532 0.78462 0.0
O106 O 0.31244 0.1057 0.79271 0.0
C107 C 0.18524 0.99313 0.77604 0.0
O108 O 0.20413 0.9971 0.79168 0.0
C109 C 0.34271 0.2005 0.79694 0.0
C110 C 0.3747 0.23522 0.77303 0.0
C111 C 0.36785 0.23433 0.793 0.0
N112 N 0.33495 0.18252 0.78 0.0
N113 N 0.35427 0.20345 0.76581 0.0
C114 C 0.32759 0.18487 0.81651 0.0
H115 H 0.31731 0.1567 0.81619 0.0
H116 H 0.30603 0.18937 0.81994 0.0
H117 H 0.3472 0.19684 0.82832 0.0
C118 C 0.20092 0.09401 0.77634 0.0
N119 N 0.23124 0.09477 0.77515 0.0
N120 N 0.2564 0.12659 0.77763 0.0
C121 C 0.24284 0.14736 0.77952 0.0
C122 C 0.20713 0.12736 0.77884 0.0
C123 C 0.16666 0.06172 0.77524 0.0
H124 H 0.16682 0.04194 0.7849 0.0
H125 H 0.14548 0.0659 0.78012 0.0
H126 H 0.16184 0.05195 0.75987 0.0
O127 O 0.26545 0.07446 0.74005 0.0
O128 O 0.30914 0.12613 0.74758 0.0
H129 H 0.24805 0.19703 0.77332 0.0
H130 H 0.27287 0.19586 0.79383 0.0
C131 C 0.26357 0.18581 0.7788 0.0
H132 H 0.28607 0.19417 0.76898 0.0
H133 H 0.3534 0.19609 0.75114 0.0
O134 O 0.19682 0.01644 0.76286 0.0
C135 C 0.29307 0.10185 0.73526 0.0
Co136 Co 0.96092 0.18903 0.76483 0.0
Co137 Co 0.88624 0.17363 0.77573 0.0
C138 C 0.94701 0.232 0.7943 0.0
O139 O 0.96653 0.22501 0.78407 0.0
O140 O 0.9144 0.21327 0.79342 0.0
C141 C 0.0164 0.18388 0.77927 0.0
O142 O 0.99689 0.17605 0.79504 0.0
C143 C 0.81937 0.15195 0.79599 0.0
C144 C 0.78393 0.13213 0.77055 0.0
C145 C 0.78477 0.13627 0.7908 0.0
N146 N 0.83793 0.15621 0.77954 0.0
N147 N 0.81651 0.14454 0.76442 0.0
C148 C 0.83462 0.16366 0.81608 0.0
H149 H 0.861 0.18598 0.81498 0.0
H150 H 0.83613 0.14258 0.82364 0.0
H151 H 0.81845 0.17069 0.82511 0.0
C152 C 0.92693 0.11356 0.7716 0.0
N153 N 0.927 0.14361 0.77254 0.0
N154 N 0.89651 0.13752 0.77838 0.0
C155 C 0.87645 0.10352 0.78192 0.0
C156 C 0.89504 0.08716 0.77771 0.0
C157 C 0.95479 0.10939 0.7622 0.0
H158 H 0.96908 0.13003 0.75124 0.0
H159 H 0.97286 0.11063 0.77374 0.0
H160 H 0.94395 0.08409 0.75473 0.0
O161 O 0.94752 0.19994 0.7392 0.0
O162 O 0.89574 0.19042 0.74794 0.0
H163 H 0.82331 0.08596 0.77653 0.0
H164 H 0.83075 0.06055 0.79443 0.0
C165 C 0.84 0.08697 0.78887 0.0
H166 H 0.83801 0.10245 0.80091 0.0
H167 H 0.82412 0.14457 0.74988 0.0
O168 O 1.00652 0.19158 0.76346 0.0
C169 C 0.91957 0.1995 0.73513 0.0
Co170 Co 0.83172 0.77817 0.76465 0.0
Co171 Co 0.84615 0.71829 0.77549 0.0
C172 C 0.78856 0.72177 0.79436 0.0
O173 O 0.79564 0.74824 0.78404 0.0
O174 O 0.807 0.70754 0.79348 0.0
C175 C 0.826 0.83594 0.77694 0.0
O176 O 0.81844 0.81957 0.79387 0.0
C177 C 0.86732 0.67278 0.79542 0.0
C178 C 0.88936 0.65936 0.77013 0.0
C179 C 0.88418 0.655 0.79029 0.0
N180 N 0.86313 0.68716 0.77901 0.0
N181 N 0.87591 0.67856 0.76395 0.0
C182 C 0.85847 0.67903 0.81568 0.0
H183 H 0.85588 0.70234 0.81585 0.0
H184 H 0.87841 0.68196 0.82643 0.0
H185 H 0.83354 0.65667 0.82021 0.0
C186 C 0.90657 0.81934 0.7725 0.0
N187 N 0.87665 0.78917 0.77272 0.0
N188 N 0.88268 0.76449 0.77798 0.0
C189 C 0.91664 0.77833 0.78159 0.0
C190 C 0.93297 0.81354 0.77816 0.0
C191 C 0.91028 0.85218 0.76463 0.0
H192 H 0.89378 0.84679 0.75143 0.0
H193 H 0.90175 0.86397 0.77605 0.0
H194 H 0.93726 0.87078 0.76055 0.0
O195 O 0.82029 0.75331 0.73913 0.0
O196 O 0.82879 0.71054 0.74798 0.0
H197 H 0.93344 0.74242 0.77539 0.0
H198 H 0.96002 0.77519 0.79305 0.0
C199 C 0.93325 0.75817 0.78792 0.0
H200 H 0.91828 0.74072 0.80013 0.0
H201 H 0.87651 0.68681 0.74949 0.0
O202 O 0.83122 0.82212 0.76195 0.0
C203 C 0.81991 0.72538 0.73518 0.0
Co204 Co 0.72828 0.57196 0.56775 0.0
Co205 Co 0.8029 0.6329 0.55844 0.0
C206 C 0.7407 0.62851 0.53926 0.0
O207 O 0.72091 0.60152 0.54904 0.0
O208 O 0.77334 0.64283 0.54067 0.0
C209 C 0.66013 0.51626 0.5585 0.0
O210 O 0.66301 0.5355 0.54322 0.0
C211 C 0.86854 0.67389 0.53685 0.0
C212 C 0.903 0.70491 0.5611 0.0
C213 C 0.90238 0.69876 0.54106 0.0
N214 N 0.85031 0.66563 0.55371 0.0
N215 N 0.87109 0.68437 0.5681 0.0
C216 C 0.85315 0.65944 0.51713 0.0
H217 H 0.82501 0.64939 0.51734 0.0
H218 H 0.85746 0.63783 0.51351 0.0
H219 H 0.86544 0.67937 0.50551 0.0
C220 C 0.76177 0.53163 0.55752 0.0
N221 N 0.76254 0.56194 0.5587 0.0
N222 N 0.79433 0.58708 0.55609 0.0
C223 C 0.81509 0.57352 0.55412 0.0
C224 C 0.7951 0.53782 0.55489 0.0
C225 C 0.72947 0.49739 0.55873 0.0
H226 H 0.72007 0.49249 0.57418 0.0
H227 H 0.70944 0.49762 0.54931 0.0
H228 H 0.73354 0.47624 0.55365 0.0
O229 O 0.74226 0.59638 0.59369 0.0
O230 O 0.7937 0.64012 0.58588 0.0
H231 H 0.86209 0.61668 0.56449 0.0
H232 H 0.86496 0.57878 0.55979 0.0
C233 C 0.85356 0.59429 0.55456 0.0
H234 H 0.86327 0.60376 0.53951 0.0
H235 H 0.86355 0.68302 0.58277 0.0
O236 O 0.68431 0.52755 0.57114 0.0
C237 C 0.76958 0.62419 0.5983 0.0
Co238 Co 0.44709 0.16294 0.56892 0.0
Co239 Co 0.38648 0.17621 0.55775 0.0
C240 C 0.39168 0.11908 0.53919 0.0
O241 O 0.41815 0.12645 0.54957 0.0
O242 O 0.37708 0.13712 0.54006 0.0
C243 C 0.50499 0.15703 0.55726 0.0
O244 O 0.48835 0.1484 0.54041 0.0
C245 C 0.342 0.19727 0.53632 0.0
C246 C 0.31931 0.2103 0.56144 0.0
C247 C 0.31994 0.20953 0.54106 0.0
N248 N 0.3542 0.19159 0.55319 0.0
N249 N 0.34029 0.19925 0.56811 0.0
C250 C 0.35028 0.18982 0.51617 0.0
H251 H 0.3587 0.17051 0.51693 0.0
H252 H 0.3715 0.21369 0.50969 0.0
H253 H 0.32756 0.18048 0.50635 0.0
C254 C 0.48744 0.23773 0.56092 0.0
N255 N 0.45747 0.20762 0.56062 0.0
N256 N 0.43246 0.2134 0.55571 0.0
C257 C 0.44582 0.24746 0.5527 0.0
C258 C 0.48113 0.26401 0.55586 0.0
C259 C 0.5206 0.24165 0.56839 0.0
H260 H 0.51579 0.22609 0.58195 0.0
H261 H 0.53152 0.23203 0.55706 0.0
H262 H 0.53968 0.26882 0.57177 0.0
O263 O 0.42163 0.15138 0.59431 0.0
O264 O 0.37837 0.15905 0.58529 0.0
H265 H 0.40738 0.26044 0.55998 0.0
H266 H 0.44141 0.29177 0.54441 0.0
C267 C 0.42499 0.26396 0.5476 0.0
H268 H 0.40927 0.25132 0.5344 0.0
H269 H 0.34544 0.19729 0.58291 0.0
O270 O 0.49137 0.16314 0.57202 0.0
C271 C 0.39342 0.15055 0.59816 0.0
Co272 Co 0.85796 0.29235 0.56866 0.0
Co273 Co 0.84317 0.21793 0.55764 0.0
C274 C 0.90103 0.27917 0.53899 0.0
O275 O 0.89391 0.2985 0.54928 0.0
O276 O 0.88259 0.24655 0.53991 0.0
C277 C 0.85237 0.34761 0.55435 0.0
O278 O 0.84471 0.3282 0.53856 0.0
C279 C 0.82174 0.15166 0.5368 0.0
C280 C 0.80603 0.11611 0.56218 0.0
C281 C 0.80828 0.11726 0.54182 0.0
N282 N 0.8267 0.16988 0.55348 0.0
N283 N 0.81742 0.14839 0.56856 0.0
C284 C 0.83094 0.16705 0.51659 0.0
H285 H 0.85053 0.1947 0.51736 0.0
H286 H 0.80776 0.16464 0.50928 0.0
H287 H 0.84065 0.15321 0.50745 0.0
C288 C 0.78245 0.25786 0.56204 0.0
N289 N 0.8126 0.25815 0.561 0.0
N290 N 0.80665 0.22766 0.55526 0.0
C291 C 0.77259 0.20733 0.55198 0.0
C292 C 0.75611 0.22581 0.55615 0.0
C293 C 0.77814 0.28568 0.57138 0.0
H294 H 0.79874 0.30004 0.58235 0.0
H295 H 0.77934 0.30367 0.5598 0.0
H296 H 0.75281 0.2748 0.57884 0.0
O297 O 0.86921 0.27895 0.59423 0.0
O298 O 0.86001 0.22733 0.58539 0.0
H299 H 0.7567 0.15466 0.55772 0.0
H300 H 0.72913 0.16064 0.54066 0.0
C301 C 0.7561 0.17067 0.54544 0.0
H302 H 0.77074 0.16866 0.53292 0.0
H303 H 0.81854 0.15574 0.58325 0.0
O304 O 0.86009 0.33774 0.57016 0.0
C305 C 0.86897 0.25107 0.59823 0.0
Co306 Co 0.90667 0.39124 0.09794 0.0
Co307 Co 0.9665 0.46561 0.10893 0.0
C308 C 0.96345 0.40405 0.1271 0.0
O309 O 0.93676 0.38453 0.11696 0.0
O310 O 0.97748 0.43667 0.12622 0.0
C311 C 0.84938 0.32723 0.11009 0.0
O312 O 0.86635 0.33546 0.12683 0.0
C313 C 0.01224 0.53185 0.12954 0.0
C314 C 0.02946 0.56753 0.10418 0.0
C315 C 0.03222 0.56637 0.12445 0.0
N316 N 0.99794 0.51363 0.113 0.0
N317 N 0.00861 0.53518 0.09793 0.0
C318 C 1.00769 0.51631 0.14962 0.0
H319 H 1.00218 0.48944 0.14854 0.0
H320 H 0.98563 0.51609 0.1571 0.0
H321 H 0.03106 0.53159 0.15873 0.0
C322 C 0.86549 0.42467 0.10626 0.0
N323 N 0.89567 0.42498 0.10645 0.0
N324 N 0.92033 0.45568 0.11179 0.0
C325 C 0.90647 0.47573 0.1155 0.0
C326 C 0.87123 0.4568 0.11205 0.0
C327 C 0.83281 0.39568 0.09808 0.0
H328 H 0.8385 0.38491 0.08485 0.0
H329 H 0.82073 0.37509 0.10934 0.0
H330 H 0.81431 0.40413 0.09391 0.0
O331 O 0.93113 0.40534 0.07231 0.0
O332 O 0.97372 0.45681 0.08115 0.0
H333 H 0.94242 0.52846 0.10924 0.0
H334 H 0.90986 0.52229 0.1271 0.0
C335 C 0.92675 0.51252 0.12181 0.0
H336 H 0.94433 0.51498 0.13391 0.0
H337 H 1.00127 0.52783 0.08333 0.0
O338 O 0.86267 0.3468 0.09523 0.0
C339 C 0.95874 0.43322 0.06828 0.0
Co340 Co 0.62648 0.52102 0.09793 0.0
Co341 Co 0.55235 0.5068 0.10907 0.0
C342 C 0.61377 0.56475 0.12751 0.0
O343 O 0.63292 0.55746 0.11711 0.0
O344 O 0.58105 0.54634 0.12683 0.0
C345 C 0.69005 0.52704 0.11033 0.0
O346 O 0.68148 0.53525 0.12714 0.0
C347 C 0.48554 0.48547 0.12909 0.0
C348 C 0.4501 0.46318 0.10378 0.0
C349 C 0.45084 0.46836 0.12395 0.0
N350 N 0.50417 0.48974 0.11269 0.0
N351 N 0.48279 0.47681 0.09762 0.0
C352 C 0.50064 0.4945 0.14935 0.0
H353 H 0.52681 0.49773 0.14949 0.0
H354 H 0.48391 0.47434 0.16006 0.0
H355 H 0.50263 0.51914 0.15392 0.0
C356 C 0.59289 0.4464 0.10607 0.0
N357 N 0.59265 0.47629 0.10627 0.0
N358 N 0.5621 0.47036 0.11183 0.0
C359 C 0.54212 0.4365 0.11576 0.0
C360 C 0.5609 0.42011 0.11215 0.0
C361 C 0.62166 0.44258 0.0977 0.0
H362 H 0.63266 0.45941 0.08462 0.0
H363 H 0.64218 0.45054 0.10897 0.0
H364 H 0.61289 0.41569 0.09326 0.0
O365 O 0.61273 0.53167 0.07233 0.0
O366 O 0.56158 0.52342 0.08133 0.0
H367 H 0.48903 0.41919 0.11032 0.0
H368 H 0.49625 0.39366 0.12825 0.0
C369 C 0.50564 0.4201 0.12268 0.0
H370 H 0.50372 0.43565 0.13472 0.0
H371 H 0.49047 0.47622 0.08318 0.0
O372 O 0.67089 0.52141 0.09535 0.0
C373 C 0.58506 0.53186 0.06839 0.0
Co374 Co 0.4969 0.11105 0.09851 0.0
Co375 Co 0.51052 0.05079 0.10989 0.0
C376 C 0.45296 0.05536 0.1282 0.0
O377 O 0.4603 0.08177 0.11778 0.0
O378 O 0.47119 0.04093 0.12746 0.0
C379 C 0.4916 0.16892 0.1107 0.0
O380 O 0.48367 0.15225 0.12755 0.0
C381 C 0.53102 0.00538 0.1309 0.0
C382 C 0.54623 0.98505 0.10554 0.0
C383 C 0.54398 0.98401 0.12589 0.0
N384 N 0.52632 0.01877 0.1142 0.0
N385 N 0.53529 0.00628 0.09914 0.0
C386 C 0.52207 0.0119 0.15109 0.0
H387 H 0.50248 0.01996 0.15027 0.0
H388 H 0.54535 0.03283 0.15825 0.0
H389 H 0.51243 0.9885 0.16036 0.0
C390 C 0.57169 0.15163 0.10643 0.0
N391 N 0.54162 0.12163 0.10681 0.0
N392 N 0.54742 0.09684 0.11219 0.0
C393 C 0.58139 0.11043 0.11565 0.0
C394 C 0.59796 0.14564 0.1121 0.0
C395 C 0.57564 0.18438 0.09823 0.0
H396 H 0.55898 0.17874 0.08508 0.0
H397 H 0.5675 0.19671 0.10953 0.0
H398 H 0.60259 0.20263 0.09393 0.0
O399 O 0.48566 0.08591 0.07307 0.0
O400 O 0.49367 0.04293 0.08224 0.0
H401 H 0.59665 0.07334 0.10942 0.0
H402 H 0.62481 0.10661 0.12647 0.0
C403 C 0.59771 0.08992 0.12183 0.0
H404 H 0.58321 0.07318 0.13436 0.0
H405 H 0.53428 0.01254 0.08444 0.0
O406 O 0.49694 0.15526 0.09568 0.0
C407 C 0.48515 0.05785 0.06927 0.0
Co408 Co 0.39592 0.90601 0.90126 0.0
Co409 Co 0.4707 0.96691 0.89217 0.0
C410 C 0.40858 0.9631 0.87319 0.0
O411 O 0.38867 0.93595 0.88281 0.0
O412 O 0.44119 0.97725 0.87462 0.0
C413 C 0.32805 0.85046 0.89153 0.0
O414 O 0.33156 0.86977 0.87618 0.0
C415 C 0.536 0.00734 0.87027 0.0
C416 C 0.57086 0.03912 0.89419 0.0
C417 C 0.56989 0.03237 0.8742 0.0
N418 N 0.51807 0.99955 0.88723 0.0
N419 N 0.53908 0.01874 0.90142 0.0
C420 C 0.52027 0.99235 0.8507 0.0
H421 H 0.4921 0.98214 0.85107 0.0
H422 H 0.52469 0.97077 0.8472 0.0
H423 H 0.53224 0.012 0.83891 0.0
C424 C 0.4292 0.86562 0.89074 0.0
N425 N 0.43007 0.89597 0.89204 0.0
N426 N 0.46193 0.92106 0.88956 0.0
C427 C 0.48261 0.90743 0.88758 0.0
C428 C 0.46252 0.87172 0.88818 0.0
C429 C 0.39683 0.83142 0.89181 0.0
H430 H 0.37696 0.83179 0.88232 0.0
H431 H 0.40087 0.81026 0.88671 0.0
H432 H 0.38724 0.82641 0.90722 0.0
O433 O 0.41005 0.9301 0.92729 0.0
O434 O 0.4617 0.9738 0.91974 0.0
H435 H 0.53225 0.91244 0.89369 0.0
H436 H 0.53112 0.93737 0.87324 0.0
C437 C 0.52109 0.92804 0.88826 0.0
H438 H 0.52954 0.95051 0.89812 0.0
H439 H 0.53178 0.01782 0.91611 0.0
O440 O 0.35179 0.86163 0.90445 0.0
C441 C 0.43745 0.9577 0.93208 0.0
Co442 Co 0.11345 0.49742 0.90178 0.0
Co443 Co 0.05315 0.51133 0.89126 0.0
C444 C 0.05665 0.45365 0.87245 0.0
O445 O 0.08332 0.46097 0.88264 0.0
O446 O 0.04233 0.472 0.87337 0.0
C447 C 0.17111 0.49153 0.88939 0.0
O448 O 0.15451 0.48358 0.87252 0.0
C449 C 1.00758 0.53238 0.87132 0.0
C450 C 0.99286 0.55302 0.89674 0.0
C451 C 0.9892 0.54861 0.87651 0.0
N452 N 0.02162 0.52783 0.88777 0.0
N453 N 0.01223 0.53977 0.90291 0.0
C454 C 0.01469 0.52446 0.85103 0.0
H455 H 0.03808 0.522 0.85102 0.0
H456 H 0.01794 0.54482 0.84052 0.0
H457 H 0.99258 0.49969 0.84608 0.0
C458 C 0.15425 0.57212 0.89361 0.0
N459 N 0.12414 0.54215 0.89352 0.0
N460 N 0.09925 0.54806 0.88854 0.0
C461 C 0.11288 0.58203 0.88507 0.0
C462 C 0.14818 0.59844 0.88822 0.0
C463 C 0.18731 0.57595 0.9012 0.0
H464 H 0.18229 0.55989 0.91456 0.0
H465 H 0.19863 0.56694 0.88976 0.0
H466 H 0.20616 0.60303 0.90494 0.0
O467 O 0.08918 0.4865 0.92749 0.0
O468 O 0.04596 0.49443 0.91884 0.0
H469 H 0.07633 0.59772 0.89195 0.0
H470 H 0.10921 0.62573 0.87472 0.0
C471 C 0.09241 0.59861 0.87931 0.0
H472 H 0.07524 0.58429 0.86687 0.0
H473 H 0.02006 0.53993 0.91741 0.0
O474 O 0.1575 0.4971 0.90435 0.0
C475 C 0.06124 0.48601 0.93161 0.0
Co476 Co 0.52393 0.62545 0.90205 0.0
Co477 Co 0.50855 0.55085 0.89105 0.0
C478 C 0.56701 0.61162 0.87261 0.0
O479 O 0.55998 0.63108 0.88286 0.0
O480 O 0.54828 0.57902 0.87343 0.0
C481 C 0.51898 0.68099 0.88759 0.0
O482 O 0.51128 0.66154 0.87181 0.0
C483 C 0.48701 0.48397 0.87086 0.0
C484 C 0.46684 0.44859 0.8963 0.0
C485 C 0.47125 0.4494 0.87608 0.0
N486 N 0.49108 0.50256 0.88726 0.0
N487 N 0.4792 0.48117 0.90239 0.0
C488 C 0.499 0.4992 0.85079 0.0
H489 H 0.52135 0.52554 0.85193 0.0
H490 H 0.47803 0.50075 0.8431 0.0
H491 H 0.5061 0.48299 0.84184 0.0
C492 C 0.44852 0.59159 0.89506 0.0
N493 N 0.47856 0.59162 0.89423 0.0
N494 N 0.4725 0.56118 0.88833 0.0
C495 C 0.43853 0.54119 0.88466 0.0
C496 C 0.42216 0.55979 0.88883 0.0
C497 C 0.44428 0.61941 0.90446 0.0
H498 H 0.46482 0.63362 0.91548 0.0
H499 H 0.44564 0.63754 0.89292 0.0
H500 H 0.4189 0.60853 0.91185 0.0
O501 O 0.53468 0.61193 0.92771 0.0
O502 O 0.52517 0.56023 0.91884 0.0
H503 H 0.42077 0.488 0.88994 0.0
H504 H 0.39568 0.49567 0.87192 0.0
C505 C 0.42201 0.5048 0.87761 0.0
H506 H 0.43766 0.50287 0.86564 0.0
H507 H 0.47904 0.4888 0.91691 0.0
O508 O 0.52652 0.67104 0.90343 0.0
C509 C 0.53418 0.58393 0.93171 0.0
Co510 Co 0.57556 0.72799 0.431 0.0
Co511 Co 0.63569 0.8022 0.44223 0.0
C512 C 0.63178 0.74008 0.4603 0.0
O513 O 0.60519 0.72084 0.45004 0.0
O514 O 0.64605 0.77273 0.45953 0.0
C515 C 0.51828 0.66385 0.44292 0.0
O516 O 0.53534 0.67189 0.45963 0.0
C517 C 0.68042 0.8678 0.46369 0.0
C518 C 0.70111 0.90397 0.43862 0.0
C519 C 0.70168 0.90231 0.45898 0.0
N520 N 0.66751 0.85004 0.44684 0.0
N521 N 0.68023 0.87189 0.43195 0.0
C522 C 0.67353 0.85184 0.48377 0.0
H523 H 0.66574 0.82428 0.48277 0.0
H524 H 0.65229 0.85375 0.49083 0.0
H525 H 0.69669 0.86558 0.49324 0.0
C526 C 0.53464 0.76156 0.43931 0.0
N527 N 0.56479 0.76184 0.43955 0.0
N528 N 0.58951 0.79258 0.44479 0.0
C529 C 0.57572 0.81276 0.44827 0.0
C530 C 0.54045 0.79379 0.44491 0.0
C531 C 0.50189 0.73249 0.43126 0.0
H532 H 0.50745 0.7219 0.4179 0.0
H533 H 0.49016 0.7118 0.44248 0.0
H534 H 0.48316 0.74076 0.42732 0.0
O535 O 0.60044 0.74234 0.4055 0.0
O536 O 0.6433 0.79365 0.41442 0.0
H537 H 0.61275 0.86506 0.44173 0.0
H538 H 0.57931 0.86016 0.45859 0.0
C539 C 0.5961 0.84975 0.45419 0.0
H540 H 0.61277 0.85235 0.46682 0.0
H541 H 0.67434 0.86494 0.41718 0.0
O542 O 0.53147 0.68362 0.42812 0.0
C543 C 0.62823 0.7701 0.40152 0.0
Co544 Co 0.29315 0.85422 0.43114 0.0
Co545 Co 0.21898 0.83984 0.44262 0.0
C546 C 0.28095 0.89801 0.4607 0.0
O547 O 0.3001 0.89078 0.45028 0.0
O548 O 0.24827 0.87953 0.46008 0.0
C549 C 0.35747 0.86146 0.44296 0.0
O550 O 0.34955 0.87057 0.45968 0.0
C551 C 0.15269 0.81866 0.46346 0.0
C552 C 0.11694 0.80037 0.43813 0.0
C553 C 0.11809 0.80384 0.45843 0.0
N554 N 0.17093 0.8231 0.44686 0.0
N555 N 0.14933 0.81233 0.43181 0.0
C556 C 0.16832 0.82943 0.48354 0.0
H557 H 0.19513 0.85099 0.48246 0.0
H558 H 0.16879 0.80758 0.49083 0.0
H559 H 0.15296 0.83717 0.4928 0.0
C560 C 0.25976 0.77967 0.43942 0.0
N561 N 0.25944 0.80952 0.43967 0.0
N562 N 0.22877 0.80344 0.44509 0.0
C563 C 0.20871 0.76949 0.44872 0.0
C564 C 0.22764 0.75325 0.44521 0.0
C565 C 0.28878 0.77604 0.43127 0.0
H566 H 0.2993 0.79223 0.41791 0.0
H567 H 0.30954 0.78501 0.44245 0.0
H568 H 0.28046 0.74903 0.42733 0.0
O569 O 0.2788 0.86485 0.40569 0.0
O570 O 0.22765 0.85638 0.41492 0.0
H571 H 0.15606 0.75315 0.44252 0.0
H572 H 0.16193 0.72592 0.45988 0.0
C573 C 0.17188 0.75283 0.45499 0.0
H574 H 0.16944 0.7675 0.46736 0.0
H575 H 0.15667 0.81267 0.41718 0.0
O576 O 0.33757 0.8547 0.42822 0.0
C577 C 0.25104 0.86496 0.40191 0.0
Co578 Co 0.16635 0.44546 0.43108 0.0
Co579 Co 0.18048 0.38551 0.44233 0.0
C580 C 0.12213 0.38914 0.46036 0.0
O581 O 0.12949 0.41569 0.45007 0.0
O582 O 0.14058 0.37495 0.45965 0.0
C583 C 0.1591 0.50243 0.44298 0.0
O584 O 0.14984 0.48526 0.45965 0.0
C585 C 0.20118 0.34034 0.46341 0.0
C586 C 0.21751 0.32086 0.43815 0.0
C587 C 0.21472 0.31943 0.45849 0.0
N588 N 0.19669 0.35384 0.4467 0.0
N589 N 0.20634 0.34185 0.4317 0.0
C590 C 0.19151 0.34637 0.48353 0.0
H591 H 0.17128 0.35352 0.48256 0.0
H592 H 0.21433 0.3678 0.49075 0.0
H593 H 0.18243 0.32306 0.49282 0.0
C594 C 0.24089 0.48654 0.43944 0.0
N595 N 0.211 0.45637 0.43967 0.0
N596 N 0.21704 0.4317 0.44497 0.0
C597 C 0.25102 0.44555 0.44852 0.0
C598 C 0.26733 0.4808 0.44512 0.0
C599 C 0.24455 0.51922 0.43132 0.0
H600 H 0.22834 0.51357 0.41797 0.0
H601 H 0.23562 0.53099 0.44252 0.0
H602 H 0.27155 0.53793 0.42735 0.0
O603 O 0.15598 0.42082 0.40553 0.0
O604 O 0.16433 0.37799 0.41453 0.0
H605 H 0.26686 0.40898 0.44204 0.0
H606 H 0.29466 0.44209 0.45929 0.0
C607 C 0.26763 0.42524 0.45456 0.0
H608 H 0.25314 0.40819 0.46699 0.0
H609 H 0.20563 0.34831 0.417 0.0
O610 O 0.16596 0.4894 0.42823 0.0
C611 C 0.15593 0.39305 0.40159 0.0
C612 C 0.39168 0.42178 0.13231 0.0
C613 C 0.42003 0.45404 0.13678 0.0
C614 C 0.36193 0.40734 0.14399 0.0
C615 C 0.36022 0.42585 0.16042 0.0
C616 C 0.38856 0.45872 0.16484 0.0
C617 C 0.41822 0.47241 0.15299 0.0
C618 C 0.33251 0.37204 0.13891 0.0
C619 C 0.38752 0.47939 0.1821 0.0
C620 C 0.27091 0.39781 0.1807 0.0
C621 C 0.26927 0.3775 0.1968 0.0
C622 C 0.30061 0.41427 0.1689 0.0
C623 C 0.32918 0.41011 0.17329 0.0
C624 C 0.32766 0.38981 0.18962 0.0
C625 C 0.29785 0.37399 0.20124 0.0
C626 C 0.30144 0.43606 0.15174 0.0
C627 C 0.35734 0.38434 0.19466 0.0
H628 H 0.39297 0.40746 0.1198 0.0
H629 H 0.4397 0.49771 0.1562 0.0
H630 H 0.32751 0.35418 0.1514 0.0
H631 H 0.30868 0.37317 0.13646 0.0
H632 H 0.33777 0.36121 0.12551 0.0
H633 H 0.41127 0.50492 0.18323 0.0
H634 H 0.3651 0.48329 0.1807 0.0
H635 H 0.38425 0.4651 0.19602 0.0
H636 H 0.24928 0.40138 0.17752 0.0
H637 H 0.2967 0.3583 0.21369 0.0
H638 H 0.30485 0.42529 0.13777 0.0
H639 H 0.3237 0.46249 0.15321 0.0
H640 H 0.27754 0.43756 0.15066 0.0
H641 H 0.36253 0.37171 0.18214 0.0
H642 H 0.35224 0.3682 0.20803 0.0
H643 H 0.381 0.40945 0.19715 0.0
C644 C 0.60025 0.88104 0.19979 0.0
C645 C 0.63296 0.8871 0.19442 0.0
C646 C 0.58351 0.89477 0.18875 0.0
C647 C 0.60021 0.91561 0.17215 0.0
C648 C 0.63311 0.9215 0.16653 0.0
C649 C 0.64907 0.90712 0.17773 0.0
C650 C 0.5483 0.88758 0.19509 0.0
C651 C 0.65196 0.94397 0.14909 0.0
C652 C 0.54964 0.93276 0.13333 0.0
C653 C 0.55575 0.96542 0.13882 0.0
C654 C 0.56315 0.9158 0.14435 0.0
C655 C 0.58383 0.93223 0.16105 0.0
C656 C 0.58981 0.96511 0.16677 0.0
C657 C 0.57562 0.98129 0.1556 0.0
C658 C 0.55586 0.88061 0.13792 0.0
C659 C 0.61212 0.98369 0.18432 0.0
H660 H 0.58785 0.86572 0.21278 0.0
H661 H 0.6748 0.91284 0.17389 0.0
H662 H 0.54947 0.91192 0.1995 0.0
H663 H 0.52998 0.87677 0.18259 0.0
H664 H 0.53804 0.86932 0.20766 0.0
H665 H 0.67684 0.94503 0.14625 0.0
H666 H 0.63584 0.93428 0.13564 0.0
H667 H 0.65707 0.97049 0.15171 0.0
H668 H 0.53442 0.92055 0.12029 0.0
H669 H 0.58135 0.00698 0.15953 0.0
H670 H 0.5448 0.86217 0.15034 0.0
H671 H 0.58021 0.8817 0.13359 0.0
H672 H 0.53777 0.87059 0.12525 0.0
H673 H 0.60219 0.96745 0.19771 0.0
H674 H 0.61331 0.00861 0.1872 0.0
H675 H 0.63863 0.98866 0.18178 0.0
C676 C 0.03661 0.59958 0.15504 0.0
C677 C 0.05099 0.59688 0.13727 0.0
C678 C 0.05293 0.62978 0.16635 0.0
C679 C 0.08433 0.65794 0.15969 0.0
C680 C 0.09919 0.65515 0.14189 0.0
C681 C 0.0822 0.62473 0.13083 0.0
C682 C 0.03607 0.6319 0.18515 0.0
C683 C 0.13272 0.68452 0.13437 0.0
C684 C 0.10755 0.7466 0.17861 0.0
C685 C 0.13041 0.75126 0.19393 0.0
C686 C 0.09279 0.71657 0.16712 0.0
C687 C 0.1011 0.69062 0.17109 0.0
C688 C 0.12462 0.69547 0.18634 0.0
C689 C 0.13879 0.72564 0.19767 0.0
C690 C 0.06752 0.71218 0.15113 0.0
C691 C 0.13431 0.66852 0.19093 0.0
H692 H 0.01193 0.57865 0.15975 0.0
H693 H 0.09325 0.62277 0.11701 0.0
H694 H 0.05417 0.63869 0.1977 0.0
H695 H 0.02947 0.65254 0.18384 0.0
H696 H 0.01226 0.60736 0.18861 0.0
H697 H 0.14157 0.67771 0.12069 0.0
H698 H 0.12972 0.70712 0.13128 0.0
H699 H 0.15299 0.69238 0.14578 0.0
H700 H 0.10004 0.76572 0.17609 0.0
H701 H 0.15632 0.72912 0.2096 0.0
H702 H 0.04189 0.68982 0.15459 0.0
H703 H 0.07581 0.70677 0.13681 0.0
H704 H 0.0648 0.73529 0.14942 0.0
H705 H 0.11121 0.64447 0.19579 0.0
H706 H 0.15418 0.67694 0.20265 0.0
H707 H 0.14418 0.66233 0.17747 0.0
C708 C 0.46049 0.39002 0.87026 0.0
C709 C 0.45886 0.41861 0.86339 0.0
C710 C 0.44666 0.35953 0.85922 0.0
C711 C 0.43042 0.35745 0.84098 0.0
C712 C 0.4288 0.38629 0.83393 0.0
C713 C 0.44297 0.4165 0.84525 0.0
C714 C 0.44905 0.32942 0.86719 0.0
C715 C 0.41142 0.38497 0.81463 0.0
C716 C 0.41869 0.28963 0.80347 0.0
C717 C 0.38416 0.26445 0.80635 0.0
C718 C 0.43426 0.31972 0.81488 0.0
C719 C 0.41469 0.32496 0.82938 0.0
C720 C 0.37987 0.2995 0.83246 0.0
C721 C 0.36499 0.26956 0.82088 0.0
C722 C 0.47149 0.34615 0.81121 0.0
C723 C 0.35806 0.30429 0.84766 0.0
H724 H 0.47254 0.39149 0.88435 0.0
H725 H 0.44048 0.438 0.84019 0.0
H726 H 0.42285 0.30718 0.86954 0.0
H727 H 0.4621 0.32133 0.85634 0.0
H728 H 0.46333 0.33552 0.88136 0.0
H729 H 0.4131 0.40988 0.81099 0.0
H730 H 0.4233 0.37801 0.80247 0.0
H731 H 0.38389 0.36477 0.81531 0.0
H732 H 0.43356 0.28584 0.79218 0.0
H733 H 0.33802 0.25084 0.82273 0.0
H734 H 0.48643 0.35161 0.82508 0.0
H735 H 0.47352 0.37063 0.80626 0.0
H736 H 0.48346 0.33762 0.79986 0.0
H737 H 0.37046 0.30913 0.86237 0.0
H738 H 0.33179 0.28156 0.84873 0.0
H739 H 0.35583 0.32711 0.84385 0.0
C740 C 0.7254 0.12549 0.7968 0.0
C741 C 0.75399 0.12372 0.80354 0.0
C742 C 0.69494 0.11156 0.80788 0.0
C743 C 0.69288 0.09508 0.82603 0.0
C744 C 0.72172 0.09329 0.83293 0.0
C745 C 0.75191 0.10757 0.82157 0.0
C746 C 0.66483 0.11413 0.80007 0.0
C747 C 0.72043 0.07564 0.85212 0.0
C748 C 0.62529 0.08317 0.86378 0.0
C749 C 0.59999 0.04872 0.86082 0.0
C750 C 0.65535 0.09876 0.85233 0.0
C751 C 0.66043 0.07931 0.8377 0.0
C752 C 0.63486 0.04456 0.83452 0.0
C753 C 0.60496 0.02965 0.84616 0.0
C754 C 0.6819 0.1359 0.85611 0.0
C755 C 0.63948 0.02287 0.81917 0.0
H756 H 0.72684 0.13773 0.78278 0.0
H757 H 0.77341 0.10498 0.82653 0.0
H758 H 0.64252 0.088 0.79767 0.0
H759 H 0.65686 0.12712 0.81103 0.0
H760 H 0.67089 0.12856 0.78595 0.0
H761 H 0.74532 0.07717 0.85565 0.0
H762 H 0.7136 0.08743 0.8644 0.0
H763 H 0.70015 0.04816 0.85137 0.0
H764 H 0.62162 0.09796 0.87517 0.0
H765 H 0.58615 1.00273 0.84423 0.0
H766 H 0.68734 0.15101 0.84231 0.0
H767 H 0.70639 0.13778 0.86095 0.0
H768 H 0.67351 0.1478 0.86757 0.0
H769 H 0.64428 0.03543 0.80452 0.0
H770 H 0.61667 0.99665 0.81806 0.0
H771 H 0.66227 0.02051 0.82286 0.0
C772 C 0.95303 0.54456 0.84723 0.0
C773 C 0.97257 0.56274 0.86367 0.0
C774 C 0.93699 0.55807 0.83532 0.0
C775 C 0.94084 0.59059 0.83992 0.0
C776 C 0.96039 0.60889 0.85658 0.0
C777 C 0.97575 0.59461 0.86833 0.0
C778 C 0.91596 0.5376 0.81781 0.0
C779 C 0.96555 0.64383 0.86184 0.0
C780 C 0.93057 0.64243 0.79903 0.0
C781 C 0.89812 0.63827 0.80317 0.0
C782 C 0.94465 0.62691 0.81081 0.0
C783 C 0.92555 0.60619 0.82695 0.0
C784 C 0.89248 0.60139 0.83103 0.0
C785 C 0.8792 0.61765 0.81912 0.0
C786 C 0.98021 0.63313 0.80614 0.0
C787 C 0.87117 0.57909 0.84796 0.0
H788 H 0.94976 0.51953 0.84387 0.0
H789 H 0.99087 0.60876 0.88103 0.0
H790 H 0.88945 0.53331 0.81894 0.0
H791 H 0.92732 0.55224 0.80403 0.0
H792 H 0.91455 0.51226 0.81661 0.0
H793 H 0.98115 0.65451 0.87543 0.0
H794 H 0.97864 0.66207 0.84954 0.0
H795 H 0.94031 0.6422 0.86406 0.0
H796 H 0.9453 0.65841 0.78671 0.0
H797 H 0.85377 0.6137 0.82207 0.0
H798 H 0.97927 0.60831 0.80352 0.0
H799 H 0.99754 0.64561 0.81889 0.0
H800 H 0.99155 0.64971 0.79295 0.0
H801 H 0.86745 0.55286 0.84641 0.0
H802 H 0.84554 0.57712 0.84879 0.0
H803 H 0.88486 0.58974 0.86208 0.0
C804 C 0.75224 0.68358 0.82203 0.0
C805 C 0.75667 0.70587 0.80639 0.0
C806 C 0.72151 0.6677 0.83299 0.0
C807 C 0.69428 0.67358 0.82787 0.0
C808 C 0.69853 0.69578 0.81197 0.0
C809 C 0.72976 0.71194 0.8016 0.0
C810 C 0.71828 0.64487 0.85015 0.0
C811 C 0.66995 0.70224 0.80577 0.0
C812 C 0.6034 0.60955 0.84508 0.0
C813 C 0.59906 0.62743 0.86073 0.0
C814 C 0.6342 0.62427 0.83418 0.0
C815 C 0.66159 0.65727 0.83939 0.0
C816 C 0.65745 0.67521 0.85533 0.0
C817 C 0.62616 0.66028 0.86563 0.0
C818 C 0.63731 0.60468 0.81699 0.0
C819 C 0.68619 0.71013 0.86161 0.0
H820 H 0.77293 0.6788 0.82582 0.0
H821 H 0.73277 0.72878 0.78938 0.0
H822 H 0.71285 0.65478 0.86386 0.0
H823 H 0.69634 0.61855 0.84772 0.0
H824 H 0.74194 0.64329 0.85239 0.0
H825 H 0.67689 0.71917 0.79261 0.0
H826 H 0.64638 0.67749 0.80238 0.0
H827 H 0.66355 0.71442 0.81802 0.0
H828 H 0.58257 0.5842 0.8412 0.0
H829 H 0.62321 0.67411 0.87786 0.0
H830 H 0.65917 0.60019 0.81938 0.0
H831 H 0.64278 0.62009 0.8033 0.0
H832 H 0.61357 0.57947 0.81473 0.0
H833 H 0.70966 0.70876 0.86494 0.0
H834 H 0.67935 0.72007 0.87482 0.0
H835 H 0.69271 0.72885 0.84942 0.0
C836 C 0.41122 1.00161 0.84556 0.0
C837 C 0.3932 0.97966 0.86128 0.0
C838 C 0.39667 0.01765 0.83449 0.0
C839 C 0.36376 0.01232 0.83964 0.0
C840 C 0.34576 0.99064 0.85571 0.0
C841 C 0.36048 0.97424 0.86615 0.0
C842 C 0.41627 0.03987 0.81713 0.0
C843 C 0.31097 0.98483 0.86196 0.0
C844 C 0.33738 0.07618 0.82159 0.0
C845 C 0.31471 0.05774 0.8062 0.0
C846 C 0.3535 0.06172 0.83265 0.0
C847 C 0.3475 0.02845 0.82787 0.0
C848 C 0.32503 0.00999 0.81217 0.0
C849 C 0.30861 0.02465 0.80171 0.0
C850 C 0.3766 0.08186 0.84961 0.0
C851 C 0.31845 0.97475 0.80633 0.0
H852 H 0.43648 0.00583 0.84172 0.0
H853 H 0.34657 0.95766 0.87845 0.0
H854 H 0.40083 0.02953 0.80348 0.0
H855 H 0.42081 0.06631 0.81921 0.0
H856 H 0.44147 0.04128 0.815 0.0
H857 H 0.30113 0.96858 0.87538 0.0
H858 H 0.3125 0.00985 0.86492 0.0
H859 H 0.29208 0.97217 0.84989 0.0
H860 H 0.34215 0.10172 0.82514 0.0
H861 H 0.29146 0.0104 0.78968 0.0
H862 H 0.40282 0.08596 0.84724 0.0
H863 H 0.36671 0.06703 0.8635 0.0
H864 H 0.37844 0.10728 0.85151 0.0
H865 H 0.34316 0.97576 0.8031 0.0
H866 H 0.30156 0.96449 0.79317 0.0
H867 H 0.30614 0.95647 0.8187 0.0
C868 C 0.04741 0.39511 0.86506 0.0
C869 C 0.04074 0.42169 0.86048 0.0
C870 C 0.03136 0.36386 0.85472 0.0
C871 C 0.00862 0.35923 0.83905 0.0
C872 C 1.00211 0.38612 0.83413 0.0
C873 C 0.01792 0.41688 0.84507 0.0
C874 C 0.03853 0.33565 0.86069 0.0
C875 C 0.97868 0.3825 0.81722 0.0
C876 C 0.99532 0.2914 0.80109 0.0
C877 C 0.96275 0.26403 0.80619 0.0
C878 C 0.01014 0.32268 0.81138 0.0
C879 C 0.99241 0.32652 0.82754 0.0
C880 C 0.9597 0.29884 0.83296 0.0
C881 C 0.94505 0.26807 0.82205 0.0
C882 C 0.04471 0.35174 0.80486 0.0
C883 C 0.94035 0.30162 0.85039 0.0
H884 H 0.06468 0.3984 0.8771 0.0
H885 H 0.01268 0.43731 0.84142 0.0
H886 H 0.01405 0.31188 0.86423 0.0
H887 H 0.0506 0.32951 0.84828 0.0
H888 H 0.05582 0.34284 0.8737 0.0
H889 H 0.97662 0.40593 0.81512 0.0
H890 H 0.98839 0.37727 0.80337 0.0
H891 H 0.95256 0.36033 0.81984 0.0
H892 H 0.00899 0.28867 0.78868 0.0
H893 H 0.91991 0.24702 0.82608 0.0
H894 H 0.06381 0.35854 0.81687 0.0
H895 H 0.04285 0.37498 0.80166 0.0
H896 H 0.05449 0.3451 0.7915 0.0
H897 H 0.95618 0.30734 0.86393 0.0
H898 H 0.91539 0.27767 0.85282 0.0
H899 H 0.93538 0.3232 0.84817 0.0
C900 C 0.7165 0.7281 0.19831 0.0
C901 C 0.70995 0.75468 0.19352 0.0
C902 C 0.70033 0.6967 0.18808 0.0
C903 C 0.67767 0.69198 0.17234 0.0
C904 C 0.67143 0.71895 0.16719 0.0
C905 C 0.68729 0.74981 0.17801 0.0
C906 C 0.70719 0.6684 0.19431 0.0
C907 C 0.64815 0.71528 0.15018 0.0
C908 C 0.66306 0.62355 0.13447 0.0
C909 C 0.63014 0.5967 0.1395 0.0
C910 C 0.67854 0.65477 0.14485 0.0
C911 C 0.66112 0.65907 0.16102 0.0
C912 C 0.62811 0.63185 0.1664 0.0
C913 C 0.61282 0.60115 0.15541 0.0
C914 C 0.7134 0.68334 0.13835 0.0
C915 C 0.60905 0.63512 0.18383 0.0
H916 H 0.73365 0.73149 0.21043 0.0
H917 H 0.68216 0.77026 0.17421 0.0
H918 H 0.6826 0.6449 0.19805 0.0
H919 H 0.71892 0.66171 0.18195 0.0
H920 H 0.72463 0.67577 0.20725 0.0
H921 H 0.64652 0.73889 0.1478 0.0
H922 H 0.65768 0.70947 0.13644 0.0
H923 H 0.62188 0.69345 0.1529 0.0
H924 H 0.67649 0.62051 0.12205 0.0
H925 H 0.58743 0.58049 0.1594 0.0
H926 H 0.73232 0.69009 0.15045 0.0
H927 H 0.71199 0.70675 0.13489 0.0
H928 H 0.72312 0.67623 0.12514 0.0
H929 H 0.625 0.64102 0.19733 0.0
H930 H 0.58404 0.61131 0.18642 0.0
H931 H 0.60422 0.65676 0.18146 0.0
C932 C 0.26828 0.94212 0.17873 0.0
C933 C 0.26332 0.95965 0.19433 0.0
C934 C 0.29906 0.95751 0.16783 0.0
C935 C 0.32583 0.99086 0.17299 0.0
C936 C 0.32103 0.00852 0.18884 0.0
C937 C 0.28972 0.9929 0.19913 0.0
C938 C 0.30286 0.9382 0.15071 0.0
C939 C 0.34915 0.04378 0.19509 0.0
C940 C 0.41683 0.01791 0.15609 0.0
C941 C 0.42112 0.03977 0.14024 0.0
C942 C 0.3861 1.0021 0.16703 0.0
C943 C 0.35871 0.00757 0.16167 0.0
C944 C 0.36286 0.02944 0.1456 0.0
C945 C 0.39412 0.04558 0.13526 0.0
C946 C 0.38299 0.97966 0.18437 0.0
C947 C 0.33408 0.03543 0.13915 0.0
H948 H 0.24795 0.91646 0.17491 0.0
H949 H 0.28625 0.00648 0.21132 0.0
H950 H 0.3085 0.95365 0.13702 0.0
H951 H 0.32486 0.934 0.15333 0.0
H952 H 0.27936 0.91285 0.1483 0.0
H953 H 0.34171 0.05362 0.20811 0.0
H954 H 0.37283 0.04299 0.19874 0.0
H955 H 0.3556 0.06228 0.18279 0.0
H956 H 0.43761 0.01338 0.16004 0.0
H957 H 0.39706 0.06212 0.12289 0.0
H958 H 0.36152 0.95309 0.18191 0.0
H959 H 0.3769 0.98942 0.19792 0.0
H960 H 0.40693 0.97871 0.18693 0.0
H961 H 0.31083 0.0105 0.13562 0.0
H962 H 0.3411 0.0524 0.12601 0.0
H963 H 0.32713 0.0473 0.15131 0.0
C964 C 0.07762 0.33351 0.17799 0.0
C965 C 0.06003 0.31171 0.19386 0.0
C966 C 0.06254 0.349 0.16689 0.0
C967 C 0.02949 0.34321 0.17209 0.0
C968 C 0.01186 0.32158 0.18825 0.0
C969 C 0.02714 0.30581 0.19876 0.0
C970 C 0.08182 0.37126 0.14947 0.0
C971 C 0.97691 0.31527 0.19456 0.0
C972 C 1.00233 0.40668 0.15449 0.0
C973 C 0.97975 0.38839 0.13904 0.0
C974 C 0.01865 0.39229 0.16542 0.0
C975 C 0.01289 0.35917 0.16047 0.0
C976 C 0.99041 0.34078 0.14475 0.0
C977 C 0.97382 0.35542 0.1344 0.0
C978 C 0.04177 0.41237 0.18239 0.0
C979 C 0.98404 0.30569 0.13876 0.0
H980 H 0.103 0.33813 0.17411 0.0
H981 H 0.0135 0.28932 0.21115 0.0
H982 H 0.0662 0.36086 0.13588 0.0
H983 H 0.08623 0.39764 0.15161 0.0
H984 H 0.10706 0.37283 0.14719 0.0
H985 H 0.96717 0.29878 0.20789 0.0
H986 H 0.97816 0.34011 0.19769 0.0
H987 H 0.95808 0.30268 0.18245 0.0
H988 H 1.00699 0.43214 0.15818 0.0
H989 H 0.95674 0.34126 0.12233 0.0
H990 H 0.06808 0.41679 0.17988 0.0
H991 H 0.03211 0.39736 0.19623 0.0
H992 H 0.04335 0.43765 0.18445 0.0
H993 H 0.00882 0.30697 0.13534 0.0
H994 H 0.96695 0.29538 0.12569 0.0
H995 H 0.97208 0.28732 0.15114 0.0
C996 C 0.05916 0.79398 0.46476 0.0
C997 C 0.08747 0.79149 0.47128 0.0
C998 C 0.02867 0.77997 0.4758 0.0
C999 C 0.02628 0.76269 0.49369 0.0
C1000 C 0.05487 0.7603 0.50042 0.0
C1001 C 0.08511 0.77467 0.4891 0.0
C1002 C 0.99882 0.7832 0.46817 0.0
C1003 C 0.05324 0.74184 0.51935 0.0
C1004 C 0.9582 0.74969 0.53135 0.0
C1005 C 0.93276 0.71545 0.5279 0.0
C1006 C 0.98851 0.76556 0.52013 0.0
C1007 C 0.99368 0.74661 0.50521 0.0
C1008 C 0.96799 0.71209 0.50154 0.0
C1009 C 0.93785 0.69688 0.51298 0.0
C1010 C 0.01522 0.80244 0.52444 0.0
C1011 C 0.97268 0.69095 0.48585 0.0
H1012 H 0.06082 0.80677 0.45091 0.0
H1013 H 0.10638 0.77154 0.49388 0.0
H1014 H 0.97644 0.75727 0.46539 0.0
H1015 H 0.99082 0.79575 0.47941 0.0
H1016 H 1.00519 0.79834 0.45431 0.0
H1017 H 0.07804 0.74316 0.52283 0.0
H1018 H 0.04624 0.75313 0.53181 0.0
H1019 H 0.03293 0.71442 0.51822 0.0
H1020 H 0.95445 0.7641 0.54294 0.0
H1021 H 0.91895 0.6701 0.51067 0.0
H1022 H 0.02095 0.8182 0.51088 0.0
H1023 H 0.03955 0.8039 0.5292 0.0
H1024 H 1.00681 0.81392 0.53614 0.0
H1025 H 0.97775 0.70413 0.47138 0.0
H1026 H 0.9498 0.66485 0.48441 0.0
H1027 H 0.99534 0.68829 0.48943 0.0
C1028 C 0.22132 0.26866 0.46571 0.0
C1029 C 0.22643 0.30085 0.47148 0.0
C1030 C 0.23472 0.25173 0.47685 0.0
C1031 C 0.25422 0.26768 0.49399 0.0
C1032 C 0.25921 0.30008 0.49997 0.0
C1033 C 0.24521 0.31626 0.48865 0.0
C1034 C 0.22855 0.21707 0.47009 0.0
C1035 C 0.28024 0.31814 0.51801 0.0
C1036 C 0.26903 0.21526 0.53267 0.0
C1037 C 0.3022 0.22198 0.52792 0.0
C1038 C 0.25272 0.22925 0.52146 0.0
C1039 C 0.27032 0.25101 0.50533 0.0
C1040 C 0.30374 0.25766 0.50037 0.0
C1041 C 0.31926 0.243 0.51172 0.0
C1042 C 0.21694 0.22125 0.52708 0.0
C1043 C 0.32354 0.28112 0.48345 0.0
H1044 H 0.20696 0.25679 0.45236 0.0
H1045 H 0.25022 0.34162 0.49281 0.0
H1046 H 0.2534 0.21882 0.46631 0.0
H1047 H 0.21685 0.198 0.48218 0.0
H1048 H 0.21141 0.2074 0.45701 0.0
H1049 H 0.28077 0.3427 0.52103 0.0
H1050 H 0.26968 0.30129 0.53113 0.0
H1051 H 0.30705 0.32367 0.516 0.0
H1052 H 0.25589 0.19916 0.54528 0.0
H1053 H 0.34532 0.24921 0.50838 0.0
H1054 H 0.19947 0.21068 0.5142 0.0
H1055 H 0.21739 0.24521 0.53156 0.0
H1056 H 0.20614 0.2025 0.5394 0.0
H1057 H 0.30841 0.27186 0.46963 0.0
H1058 H 0.34883 0.28281 0.48114 0.0
H1059 H 0.32796 0.30734 0.48632 0.0
C1060 C 0.70335 0.93576 0.4889 0.0
C1061 C 0.71973 0.93242 0.47217 0.0
C1062 C 0.71903 0.96586 0.50034 0.0
C1063 C 0.75194 0.99316 0.49494 0.0
C1064 C 0.76888 0.98959 0.47829 0.0
C1065 C 0.75241 0.95938 0.46699 0.0
C1066 C 0.6999 0.96887 0.51782 0.0
C1067 C 0.80411 0.01793 0.47218 0.0
C1068 C 0.77633 0.08311 0.51213 0.0
C1069 C 0.79619 0.08687 0.52887 0.0
C1070 C 0.76211 0.05289 0.50081 0.0
C1071 C 0.76807 0.0259 0.50633 0.0
C1072 C 0.78865 0.02986 0.52303 0.0
C1073 C 0.80216 0.06018 0.53422 0.0
C1074 C 0.73988 0.04946 0.48328 0.0
C1075 C 0.79593 1.00186 0.52926 0.0
H1076 H 0.67764 0.91551 0.49259 0.0
H1077 H 0.76502 0.95689 0.45398 0.0
H1078 H 0.71585 0.97501 0.53132 0.0
H1079 H 0.69471 0.99028 0.51539 0.0
H1080 H 0.67504 0.9449 0.52044 0.0
H1081 H 0.81456 0.01037 0.45951 0.0
H1082 H 0.80287 0.04116 0.46801 0.0
H1083 H 0.82229 0.02515 0.48473 0.0
H1084 H 0.77068 0.10316 0.50831 0.0
H1085 H 0.81737 0.063 0.54724 0.0
H1086 H 0.71342 0.02768 0.48565 0.0
H1087 H 0.75002 0.04366 0.46981 0.0
H1088 H 0.73849 0.07314 0.48065 0.0
H1089 H 0.77155 0.97841 0.53333 0.0
H1090 H 0.81378 0.00964 0.54202 0.0
H1091 H 0.80728 0.99492 0.5168 0.0
C1092 C 0.35388 0.08283 0.51144 0.0
C1093 C 0.3762 0.08733 0.52707 0.0
C1094 C 0.33816 0.05216 0.50045 0.0
C1095 C 0.34424 0.02506 0.50553 0.0
C1096 C 0.36657 0.02942 0.52138 0.0
C1097 C 0.38258 0.06061 0.53178 0.0
C1098 C 0.31518 0.04882 0.48334 0.0
C1099 C 0.37324 1.00096 0.52752 0.0
C1100 C 0.27967 0.93435 0.48847 0.0
C1101 C 0.2972 0.92994 0.47265 0.0
C1102 C 0.29475 0.96507 0.49942 0.0
C1103 C 0.32776 0.99231 0.4941 0.0
C1104 C 0.3454 0.98808 0.47803 0.0
C1105 C 0.33011 0.95685 0.46768 0.0
C1106 C 0.27548 0.96829 0.51675 0.0
C1107 C 0.38031 0.01669 0.47163 0.0
H1108 H 0.3489 0.10339 0.5077 0.0
H1109 H 0.39948 0.0637 0.54399 0.0
H1110 H 0.32487 0.04315 0.46962 0.0
H1111 H 0.28883 0.027 0.4859 0.0
H1112 H 0.31368 0.07251 0.48102 0.0
H1113 H 0.39048 0.00808 0.54055 0.0
H1114 H 0.34857 0.97743 0.53111 0.0
H1115 H 0.38513 0.99441 0.51518 0.0
H1116 H 0.25428 0.91365 0.49242 0.0
H1117 H 0.34368 0.95382 0.45533 0.0
H1118 H 0.27084 0.99007 0.51438 0.0
H1119 H 0.29119 0.97396 0.53034 0.0
H1120 H 0.25034 0.94455 0.51919 0.0
H1121 H 0.37895 0.04014 0.46823 0.0
H1122 H 0.39011 0.00968 0.45843 0.0
H1123 H 0.39914 0.02331 0.48378 0.0
C1124 C 0.08558 0.35099 0.48794 0.0
C1125 C 0.09014 0.37329 0.47229 0.0
C1126 C 0.05485 0.33525 0.49889 0.0
C1127 C 0.02774 0.3413 0.49376 0.0
C1128 C 0.0321 0.3635 0.47784 0.0
C1129 C 0.06334 0.37952 0.46747 0.0
C1130 C 0.05151 0.3124 0.51607 0.0
C1131 C 1.00364 0.37013 0.47163 0.0
C1132 C 0.93702 0.27729 0.51118 0.0
C1133 C 0.93284 0.29513 0.52691 0.0
C1134 C 0.96765 0.29208 0.50014 0.0
C1135 C 0.99506 0.3251 0.50528 0.0
C1136 C 0.99106 0.34304 0.52126 0.0
C1137 C 0.95991 0.32804 0.53171 0.0
C1138 C 0.97062 0.27248 0.4829 0.0
C1139 C 0.01984 0.37798 0.52749 0.0
H1140 H 0.10619 0.34611 0.49176 0.0
H1141 H 0.06647 0.3964 0.45525 0.0
H1142 H 0.04613 0.32237 0.52977 0.0
H1143 H 0.0295 0.28611 0.51364 0.0
H1144 H 0.07511 0.3107 0.51833 0.0
H1145 H 0.01067 0.38707 0.45848 0.0
H1146 H 0.98001 0.34544 0.46824 0.0
H1147 H 0.99731 0.38237 0.48388 0.0
H1148 H 0.9162 0.25188 0.50737 0.0
H1149 H 0.95707 0.34184 0.544 0.0
H1150 H 0.99234 0.26777 0.48527 0.0
H1151 H 0.97623 0.28799 0.46923 0.0
H1152 H 0.94678 0.24737 0.48059 0.0
H1153 H 0.04327 0.37655 0.53087 0.0
H1154 H 0.01302 0.38803 0.54066 0.0
H1155 H 0.02642 0.39663 0.51526 0.0
C1156 C 0.69214 0.63878 0.53178 0.0
C1157 C 0.72516 0.64475 0.52719 0.0
C1158 C 0.67737 0.65506 0.52128 0.0
C1159 C 0.69564 0.67724 0.50544 0.0
C1160 C 0.7288 0.68302 0.50052 0.0
C1161 C 0.74338 0.66706 0.51163 0.0
C1162 C 0.64228 0.64875 0.52728 0.0
C1163 C 0.74874 0.70581 0.48341 0.0
C1164 C 0.64162 0.69108 0.46738 0.0
C1165 C 0.64762 0.724 0.47225 0.0
C1166 C 0.65765 0.67594 0.47778 0.0
C1167 C 0.67961 0.69374 0.4938 0.0
C1168 C 0.68544 0.7268 0.49899 0.0
C1169 C 0.66972 0.74173 0.48799 0.0
C1170 C 0.65126 0.64096 0.47153 0.0
C1171 C 0.708 0.74623 0.51628 0.0
H1172 H 0.67805 0.62191 0.54394 0.0
H1173 H 0.76886 0.67171 0.50799 0.0
H1174 H 0.64358 0.67355 0.53062 0.0
H1175 H 0.62384 0.63666 0.51495 0.0
H1176 H 0.63203 0.63181 0.54042 0.0
H1177 H 0.77395 0.70724 0.4813 0.0
H1178 H 0.73354 0.69598 0.46964 0.0
H1179 H 0.7533 0.73219 0.4858 0.0
H1180 H 0.62491 0.67737 0.45508 0.0
H1181 H 0.67441 0.76713 0.49186 0.0
H1182 H 0.63877 0.62222 0.48368 0.0
H1183 H 0.67607 0.64217 0.46832 0.0
H1184 H 0.63463 0.63115 0.45824 0.0
H1185 H 0.69779 0.73077 0.52994 0.0
H1186 H 0.70963 0.7715 0.51853 0.0
H1187 H 0.73434 0.7506 0.51402 0.0
C1188 C 0.14202 0.33338 0.29001 0.0
C1189 C 0.10969 0.30556 0.28492 0.0
C1190 C 0.14837 0.34791 0.3089 0.0
C1191 C 0.12172 0.3345 0.3231 0.0
C1192 C 0.08887 0.30678 0.31803 0.0
C1193 C 0.08327 0.29254 0.29901 0.0
C1194 C 0.18384 0.37726 0.31378 0.0
C1195 C 0.05979 0.29194 0.33278 0.0
C1196 C 0.14958 0.34921 0.37667 0.0
C1197 C 0.1462 0.37773 0.3816 0.0
C1198 C 0.14116 0.33459 0.3578 0.0
C1199 C 0.12884 0.34866 0.34347 0.0
C1200 C 0.12482 0.37708 0.34837 0.0
C1201 C 0.13366 0.39137 0.36737 0.0
C1202 C 0.14606 0.30444 0.3531 0.0
C1203 C 0.1116 0.39265 0.33347 0.0
H1204 H 0.16267 0.34365 0.27927 0.0
H1205 H 0.05818 0.27118 0.29521 0.0
H1206 H 0.1822 0.39978 0.31901 0.0
H1207 H 0.1952 0.36959 0.3259 0.0
H1208 H 0.20151 0.38527 0.30091 0.0
H1209 H 0.0354 0.2714 0.32628 0.0
H1210 H 0.06669 0.28106 0.34549 0.0
H1211 H 0.05541 0.31252 0.33859 0.0
H1212 H 0.15924 0.33842 0.38752 0.0
H1213 H 0.1308 0.41328 0.37104 0.0
H1214 H 0.16523 0.31152 0.3411 0.0
H1215 H 0.12156 0.28243 0.34776 0.0
H1216 H 0.15497 0.29593 0.36608 0.0
H1217 H 0.12968 0.40312 0.32085 0.0
H1218 H 0.10845 0.41367 0.33987 0.0
H1219 H 0.08645 0.37259 0.32754 0.0
C1220 C 0.72818 0.79858 0.29854 0.0
C1221 C 0.71419 0.81102 0.28447 0.0
C1222 C 0.7144 0.78997 0.31767 0.0
C1223 C 0.68619 0.79418 0.32288 0.0
C1224 C 0.67182 0.80645 0.30871 0.0
C1225 C 0.68588 0.81459 0.2897 0.0
C1226 C 0.73024 0.77673 0.33238 0.0
C1227 C 0.64192 0.8116 0.31372 0.0
C1228 C 0.63033 0.74909 0.36749 0.0
C1229 C 0.64354 0.7756 0.38153 0.0
C1230 C 0.64455 0.75446 0.34847 0.0
C1231 C 0.67243 0.78716 0.34334 0.0
C1232 C 0.68611 0.81387 0.3575 0.0
C1233 C 0.6716 0.80774 0.3764 0.0
C1234 C 0.62943 0.72532 0.33378 0.0
C1235 C 0.71563 0.84919 0.35255 0.0
H1236 H 0.74992 0.79557 0.29463 0.0
H1237 H 0.67484 0.8242 0.27899 0.0
H1238 H 0.74103 0.79483 0.34497 0.0
H1239 H 0.71025 0.75163 0.33841 0.0
H1240 H 0.75107 0.77349 0.32578 0.0
H1241 H 0.63324 0.82064 0.30087 0.0
H1242 H 0.6199 0.78717 0.31912 0.0
H1243 H 0.64935 0.83075 0.32575 0.0
H1244 H 0.6088 0.72413 0.37132 0.0
H1245 H 0.68206 0.82843 0.3871 0.0
H1246 H 0.6499 0.72095 0.32776 0.0
H1247 H 0.61821 0.73213 0.32119 0.0
H1248 H 0.60905 0.70095 0.34039 0.0
H1249 H 0.73791 0.8473 0.3471 0.0
H1250 H 0.72404 0.86682 0.36544 0.0
H1251 H 0.70789 0.86073 0.34056 0.0
C1252 C 0.22007 0.93519 0.29907 0.0
C1253 C 0.20737 0.9084 0.28523 0.0
C1254 C 0.22927 0.93057 0.31817 0.0
C1255 C 0.22538 0.89835 0.32356 0.0
C1256 C 0.2128 0.87134 0.30962 0.0
C1257 C 0.20409 0.87672 0.29065 0.0
C1258 C 0.24284 0.96002 0.33264 0.0
C1259 C 0.20795 0.83648 0.31483 0.0
C1260 C 0.27151 0.88821 0.36783 0.0
C1261 C 0.24526 0.87488 0.38202 0.0
C1262 C 0.26577 0.89702 0.34889 0.0
C1263 C 0.23295 0.89211 0.344 0.0
C1264 C 0.20654 0.87915 0.35834 0.0
C1265 C 0.21303 0.87082 0.37716 0.0
C1266 C 0.29461 0.91097 0.33399 0.0
C1267 C 0.17109 0.87322 0.35365 0.0
H1268 H 0.22287 0.95979 0.295 0.0
H1269 H 0.19427 0.85579 0.28012 0.0
H1270 H 0.22508 0.95294 0.34539 0.0
H1271 H 0.26814 0.9654 0.33847 0.0
H1272 H 0.24581 0.98389 0.3259 0.0
H1273 H 0.19862 0.81843 0.30214 0.0
H1274 H 0.23258 0.83916 0.32006 0.0
H1275 H 0.18914 0.82497 0.32705 0.0
H1276 H 0.29654 0.89165 0.37147 0.0
H1277 H 0.19253 0.86057 0.38799 0.0
H1278 H 0.29864 0.93559 0.32782 0.0
H1279 H 0.28766 0.89267 0.32153 0.0
H1280 H 0.3192 0.91534 0.34047 0.0
H1281 H 0.17284 0.89725 0.34806 0.0
H1282 H 0.1538 0.86431 0.36669 0.0
H1283 H 0.15921 0.85363 0.34184 0.0
C1284 C 0.39155 0.12779 0.63229 0.0
C1285 C 0.37762 0.13993 0.618 0.0
C1286 C 0.37706 0.11863 0.65124 0.0
C1287 C 0.34816 0.12193 0.65602 0.0
C1288 C 0.33358 0.13347 0.64156 0.0
C1289 C 0.3484 0.14222 0.62275 0.0
C1290 C 0.39317 0.10621 0.66627 0.0
C1291 C 0.30294 0.13764 0.64612 0.0
C1292 C 0.29378 0.07887 0.70152 0.0
C1293 C 0.30716 0.10623 0.715 0.0
C1294 C 0.30735 0.08331 0.68236 0.0
C1295 C 0.33467 0.11591 0.67654 0.0
C1296 C 0.34835 0.1435 0.69011 0.0
C1297 C 0.33454 0.1383 0.70914 0.0
C1298 C 0.29229 0.05325 0.66828 0.0
C1299 C 0.37724 0.17877 0.68444 0.0
H1300 H 0.41396 0.1257 0.62874 0.0
H1301 H 0.33731 0.15147 0.61184 0.0
H1302 H 0.40428 0.12509 0.67848 0.0
H1303 H 0.37334 0.0815 0.67278 0.0
H1304 H 0.41387 0.10259 0.65981 0.0
H1305 H 0.29357 0.14519 0.63294 0.0
H1306 H 0.28153 0.11329 0.65206 0.0
H1307 H 0.30996 0.15761 0.65764 0.0
H1308 H 0.27278 0.05397 0.70594 0.0
H1309 H 0.34508 0.15968 0.71938 0.0
H1310 H 0.31287 0.0488 0.66255 0.0
H1311 H 0.28078 0.05908 0.65543 0.0
H1312 H 0.27217 0.02922 0.67534 0.0
H1313 H 0.39979 0.17711 0.67926 0.0
H1314 H 0.38548 0.1973 0.69688 0.0
H1315 H 0.36895 0.18908 0.67206 0.0
C1316 C 0.88202 0.20544 0.71004 0.0
C1317 C 0.91408 0.20931 0.71513 0.0
C1318 C 0.8759 0.2138 0.69113 0.0
C1319 C 0.90251 0.22655 0.67691 0.0
C1320 C 0.93511 0.23108 0.68198 0.0
C1321 C 0.94049 0.2223 0.70102 0.0
C1322 C 0.84069 0.20836 0.68625 0.0
C1323 C 0.96415 0.24477 0.66722 0.0
C1324 C 0.87468 0.21337 0.6233 0.0
C1325 C 0.87871 0.2455 0.61824 0.0
C1326 C 0.88284 0.2071 0.64223 0.0
C1327 C 0.89558 0.23363 0.65649 0.0
C1328 C 0.90029 0.26631 0.65144 0.0
C1329 C 0.89169 0.27183 0.63238 0.0
C1330 C 0.87719 0.17181 0.64707 0.0
C1331 C 0.914 0.29527 0.66624 0.0
H1332 H 0.86139 0.19542 0.72078 0.0
H1333 H 0.96538 0.22554 0.70481 0.0
H1334 H 0.84286 0.23271 0.6809 0.0
H1335 H 0.82897 0.18922 0.67421 0.0
H1336 H 0.82308 0.19916 0.69915 0.0
H1337 H 0.9884 0.24828 0.67374 0.0
H1338 H 0.95694 0.22679 0.65458 0.0
H1339 H 0.96896 0.26981 0.66129 0.0
H1340 H 0.86466 0.19279 0.61253 0.0
H1341 H 0.89505 0.29677 0.62861 0.0
H1342 H 0.85797 0.16012 0.65909 0.0
H1343 H 0.90146 0.17383 0.65245 0.0
H1344 H 0.86797 0.15426 0.63416 0.0
H1345 H 0.89595 0.28808 0.67885 0.0
H1346 H 0.91765 0.31958 0.65974 0.0
H1347 H 0.93898 0.29995 0.67221 0.0
C1348 C 0.79501 0.72211 0.70152 0.0
C1349 C 0.80931 0.7096 0.71535 0.0
C1350 C 0.78555 0.70748 0.68263 0.0
C1351 C 0.79084 0.67995 0.6774 0.0
C1352 C 0.80473 0.66688 0.69139 0.0
C1353 C 0.81366 0.68175 0.71018 0.0
C1354 C 0.77059 0.72194 0.66811 0.0
C1355 C 0.81112 0.6378 0.68633 0.0
C1356 C 0.74756 0.624 0.63247 0.0
C1357 C 0.77411 0.63862 0.61848 0.0
C1358 C 0.75227 0.63765 0.65162 0.0
C1359 C 0.78433 0.6664 0.6569 0.0
C1360 C 0.81103 0.68144 0.64279 0.0
C1361 C 0.80557 0.66747 0.6238 0.0
C1362 C 0.72316 0.62109 0.66628 0.0
C1363 C 0.8457 0.71193 0.64787 0.0
H1364 H 0.79131 0.74343 0.70542 0.0
H1365 H 0.82468 0.67184 0.72072 0.0
H1366 H 0.7885 0.73383 0.65553 0.0
H1367 H 0.74604 0.70102 0.66205 0.0
H1368 H 0.76579 0.74165 0.6749 0.0
H1369 H 0.82054 0.62952 0.69917 0.0
H1370 H 0.78715 0.61534 0.6808 0.0
H1371 H 0.8305 0.64598 0.67436 0.0
H1372 H 0.72312 0.60184 0.62849 0.0
H1373 H 0.82631 0.67906 0.61316 0.0
H1374 H 0.7175 0.6406 0.67243 0.0
H1375 H 0.73078 0.61043 0.67879 0.0
H1376 H 0.6993 0.60003 0.6596 0.0
H1377 H 0.84256 0.73345 0.65336 0.0
H1378 H 0.86345 0.72117 0.63504 0.0
H1379 H 0.85784 0.70489 0.65986 0.0
C1380 C 1.00139 0.47139 0.04306 0.0
C1381 C 0.97399 0.43889 0.04827 0.0
C1382 C 0.01597 0.47769 0.02418 0.0
C1383 C 1.00305 0.45082 0.01014 0.0
C1384 C 0.97581 0.41779 0.01535 0.0
C1385 C 0.96147 0.41224 0.03434 0.0
C1386 C 0.04477 0.51337 0.01914 0.0
C1387 C 0.96154 0.38846 0.00077 0.0
C1388 C 0.0169 0.47826 0.95652 0.0
C1389 C 0.04598 0.47584 0.95159 0.0
C1390 C 1.00234 0.46955 0.97539 0.0
C1391 C 0.01705 0.45794 0.98973 0.0
C1392 C 0.04601 0.45482 0.98482 0.0
C1393 C 0.06022 0.46391 0.96581 0.0
C1394 C 0.9716 0.47348 0.98009 0.0
C1395 C 0.06228 0.44238 0.99974 0.0
H1396 H 0.01127 0.4922 0.05367 0.0
H1397 H 0.94046 0.38702 0.03826 0.0
H1398 H 0.06758 0.51225 0.0139 0.0
H1399 H 0.03661 0.52422 0.00698 0.0
H1400 H 0.05254 0.53117 0.03193 0.0
H1401 H 0.94151 0.36393 0.00741 0.0
H1402 H 0.95013 0.39468 0.98803 0.0
H1403 H 0.98253 0.38472 0.99497 0.0
H1404 H 1.00562 0.48742 0.94568 0.0
H1405 H 0.08257 0.46179 0.96213 0.0
H1406 H 0.97829 0.49274 0.99199 0.0
H1407 H 0.95005 0.44878 0.98556 0.0
H1408 H 0.96255 0.48179 0.96708 0.0
H1409 H 0.0726 0.4607 0.01225 0.0
H1410 H 0.08356 0.43969 0.99331 0.0
H1411 H 0.04267 0.41716 0.00582 0.0
C1412 C 0.60581 0.5545 0.03424 0.0
C1413 C 0.57951 0.54165 0.0484 0.0
C1414 C 0.60037 0.56334 0.01523 0.0
C1415 C 0.5678 0.55899 0.01025 0.0
C1416 C 0.54128 0.54634 0.02452 0.0
C1417 C 0.54747 0.53794 0.04341 0.0
C1418 C 0.62931 0.57693 0.00041 0.0
C1419 C 0.5061 0.54106 0.01975 0.0
C1420 C 0.55698 0.60452 0.96586 0.0
C1421 C 0.54382 0.57821 0.9517 0.0
C1422 C 0.56563 0.5989 0.98488 0.0
C1423 C 0.56079 0.56615 0.98987 0.0
C1424 C 0.54784 0.53963 0.9756 0.0
C1425 C 0.53962 0.546 0.95672 0.0
C1426 C 0.57955 0.62784 0.9997 0.0
C1427 C 0.54206 0.50428 0.98039 0.0
H1428 H 0.63068 0.55762 0.03797 0.0
H1429 H 0.52692 0.528 0.0542 0.0
H1430 H 0.62194 0.55897 0.98775 0.0
H1431 H 0.63421 0.60203 0.99453 0.0
H1432 H 0.65354 0.58029 0.00686 0.0
H1433 H 0.48856 0.53189 0.03267 0.0
H1434 H 0.50835 0.56546 0.01445 0.0
H1435 H 0.49425 0.52196 0.00769 0.0
H1436 H 0.56046 0.62952 0.96212 0.0
H1437 H 0.52946 0.52544 0.94593 0.0
H1438 H 0.60454 0.63241 0.00558 0.0
H1439 H 0.56161 0.62068 0.01236 0.0
H1440 H 0.58324 0.65219 0.99325 0.0
H1441 H 0.56632 0.50617 0.98568 0.0
H1442 H 0.53267 0.48674 0.96747 0.0
H1443 H 0.52293 0.49264 0.99245 0.0
C1444 C 0.47829 0.01353 0.04457 0.0
C1445 C 0.47491 0.04209 0.04941 0.0
C1446 C 0.46984 0.99876 0.02574 0.0
C1447 C 0.45746 0.01268 0.01135 0.0
C1448 C 0.45314 0.04094 0.01623 0.0
C1449 C 0.46205 0.05542 0.03518 0.0
C1450 C 0.47514 0.96885 0.02108 0.0
C1451 C 0.4398 0.05633 0.00128 0.0
C1452 C 0.47366 0.9997 0.95807 0.0
C1453 C 0.44184 0.97175 0.95235 0.0
C1454 C 0.47883 0.01347 0.97711 0.0
C1455 C 0.45147 0.99915 0.99085 0.0
C1456 C 0.41913 0.97124 0.98517 0.0
C1457 C 0.41471 0.95775 0.96599 0.0
C1458 C 0.51382 0.04304 0.98262 0.0
C1459 C 0.38933 0.95547 0.99942 0.0
H1460 H 0.48815 1.00294 0.05542 0.0
H1461 H 0.45912 0.07731 0.0388 0.0
H1462 H 0.45103 0.94694 0.01526 0.0
H1463 H 0.49502 0.97643 0.00944 0.0
H1464 H 0.48339 0.95999 0.03419 0.0
H1465 H 0.43561 0.07663 0.00778 0.0
H1466 H 0.45842 0.06774 0.98897 0.0
H1467 H 0.4152 0.03602 0.99491 0.0
H1468 H 0.49486 0.01075 0.94771 0.0
H1469 H 0.39001 0.9363 0.9617 0.0
H1470 H 0.52477 0.03527 0.99492 0.0
H1471 H 0.51148 0.06517 0.98785 0.0
H1472 H 0.53218 0.05168 0.97008 0.0
H1473 H 0.39589 0.94443 0.01221 0.0
H1474 H 0.36546 0.93485 0.9925 0.0
H1475 H 0.38418 0.97554 0.00523 0.0
C1476 C 0.1655 0.04914 0.23881 0.0
C1477 C 0.18554 0.04678 0.22369 0.0
C1478 C 0.15676 0.07512 0.23868 0.0
C1479 C 0.16861 0.0995 0.22317 0.0
C1480 C 0.18963 0.09782 0.20818 0.0
C1481 C 0.19771 0.07141 0.20857 0.0
C1482 C 0.13412 0.07593 0.25487 0.0
C1483 C 0.20306 0.12353 0.1915 0.0
C1484 C 0.11819 0.14459 0.2114 0.0
C1485 C 0.13782 0.17625 0.22089 0.0
C1486 C 0.12791 0.11936 0.21204 0.0
C1487 C 0.15816 0.12615 0.22229 0.0
C1488 C 0.17829 0.15831 0.23171 0.0
C1489 C 0.16774 0.18291 0.231 0.0
C1490 C 0.10564 0.08535 0.20188 0.0
C1491 C 0.21077 0.16659 0.2427 0.0
H1492 H 0.15583 0.03013 0.25049 0.0
H1493 H 0.21333 0.06986 0.19687 0.0
H1494 H 0.14693 0.10141 0.26222 0.0
H1495 H 0.10971 0.07213 0.24848 0.0
H1496 H 0.1279 0.05577 0.26619 0.0
H1497 H 0.22039 0.11964 0.18149 0.0
H1498 H 0.18122 0.12141 0.18273 0.0
H1499 H 0.21729 0.15007 0.19746 0.0
H1500 H 0.09509 0.13951 0.20355 0.0
H1501 H 0.18261 0.20718 0.23864 0.0
H1502 H 0.09665 0.06408 0.21273 0.0
H1503 H 0.12085 0.08096 0.19056 0.0
H1504 H 0.08283 0.08407 0.19466 0.0
H1505 H 0.20463 0.14822 0.25505 0.0
H1506 H 0.22401 0.19313 0.24877 0.0
H1507 H 0.22878 0.16372 0.23276 0.0
C1508 C 0.86914 0.98304 0.20966 0.0
C1509 C 0.838 0.96997 0.21989 0.0
C1510 C 0.89381 0.01818 0.21038 0.0
C1511 C 0.8869 0.04086 0.22138 0.0
C1512 C 0.85509 0.02786 0.23137 0.0
C1513 C 0.83113 0.99248 0.23064 0.0
C1514 C 0.92751 0.03092 0.19966 0.0
C1515 C 0.84662 0.05122 0.24309 0.0
C1516 C 0.96433 0.12445 0.23845 0.0
C1517 C 0.96666 0.14748 0.22374 0.0
C1518 C 0.93815 0.08981 0.23805 0.0
C1519 C 0.91338 0.07801 0.22274 0.0
C1520 C 0.91484 0.10142 0.20828 0.0
C1521 C 0.94159 0.13581 0.20887 0.0
C1522 C 0.93769 0.06559 0.25364 0.0
C1523 C 0.88862 0.08996 0.19189 0.0
H1524 H 0.87438 0.9656 0.20131 0.0
H1525 H 0.80727 0.9823 0.23883 0.0
H1526 H 0.93132 0.0511 0.18888 0.0
H1527 H 0.94913 0.04277 0.21032 0.0
H1528 H 0.92878 0.00998 0.1917 0.0
H1529 H 0.82004 0.0374 0.24909 0.0
H1530 H 0.86491 0.0627 0.25554 0.0
H1531 H 0.84947 0.07272 0.23369 0.0
H1532 H 0.98367 0.1332 0.24994 0.0
H1533 H 0.94309 0.15348 0.19751 0.0
H1534 H 0.94147 0.04541 0.24664 0.0
H1535 H 0.91234 0.05243 0.26114 0.0
H1536 H 0.95805 0.07904 0.26493 0.0
H1537 H 0.89081 0.07109 0.18235 0.0
H1538 H 0.89199 0.11177 0.18257 0.0
H1539 H 0.86223 0.07688 0.19811 0.0
C1540 C 0.89697 0.85305 0.23734 0.0
C1541 C 0.8706 0.81988 0.23234 0.0
C1542 C 0.93171 0.86222 0.23596 0.0
C1543 C 0.94044 0.8375 0.22973 0.0
C1544 C 0.914 0.80362 0.22532 0.0
C1545 C 0.8794 0.79527 0.22657 0.0
C1546 C 0.95909 0.89867 0.24072 0.0
C1547 C 0.92228 0.77642 0.21889 0.0
C1548 C 0.0294 0.87247 0.20727 0.0
C1549 C 0.04794 0.87038 0.22322 0.0
C1550 C 0.99412 0.86102 0.20904 0.0
C1551 C 0.97728 0.84753 0.22728 0.0
C1552 C 0.99606 0.84507 0.24338 0.0
C1553 C 0.03126 0.85651 0.24112 0.0
C1554 C 0.97503 0.86399 0.19153 0.0
C1555 C 0.97917 0.83107 0.26307 0.0
H1556 H 0.89055 0.87222 0.24197 0.0
H1557 H 0.85926 0.76952 0.22278 0.0
H1558 H 0.9764 0.8987 0.25239 0.0
H1559 H 0.97512 0.91091 0.22747 0.0
H1560 H 0.94803 0.91464 0.24574 0.0
H1561 H 0.89882 0.75086 0.21701 0.0
H1562 H 0.93645 0.78403 0.2047 0.0
H1563 H 0.93927 0.77404 0.22989 0.0
H1564 H 0.04261 0.88337 0.19348 0.0
H1565 H 0.04595 0.85518 0.25344 0.0
H1566 H 0.96529 0.88171 0.19508 0.0
H1567 H 0.95239 0.83857 0.18808 0.0
H1568 H 0.99152 0.87372 0.17819 0.0
H1569 H 0.96998 0.84784 0.26936 0.0
H1570 H 0.99698 0.82943 0.2738 0.0
H1571 H 0.95635 0.8051 0.26121 0.0
C1572 C 0.04714 0.1546 0.79196 0.0
C1573 C 0.04665 0.17908 0.77935 0.0
C1574 C 0.07453 0.14801 0.79165 0.0
C1575 C 0.1027 0.16713 0.77885 0.0
C1576 C 0.10284 0.19265 0.76648 0.0
C1577 C 0.07448 0.19791 0.76664 0.0
C1578 C 0.07282 0.11985 0.80461 0.0
C1579 C 0.13284 0.21422 0.75305 0.0
C1580 C 0.18356 0.16388 0.79157 0.0
C1581 C 0.18164 0.13923 0.77818 0.0
C1582 C 0.15887 0.17439 0.79141 0.0
C1583 C 0.13114 0.15918 0.77787 0.0
C1584 C 0.12948 0.13473 0.7641 0.0
C1585 C 0.15512 0.12559 0.76418 0.0
C1586 C 0.16207 0.20124 0.80597 0.0
C1587 C 0.10004 0.11735 0.74968 0.0
H1588 H 0.02549 0.13972 0.80167 0.0
H1589 H 0.07422 0.21698 0.75696 0.0
H1590 H 0.07382 0.1 0.79536 0.0
H1591 H 0.09532 0.13045 0.81465 0.0
H1592 H 0.049 0.10724 0.81365 0.0
H1593 H 0.13013 0.23465 0.74546 0.0
H1594 H 0.15716 0.22642 0.76161 0.0
H1595 H 0.1351 0.19767 0.74171 0.0
H1596 H 0.20408 0.17455 0.80239 0.0
H1597 H 0.15413 0.10735 0.75339 0.0
H1598 H 0.1408 0.18941 0.81683 0.0
H1599 H 0.15986 0.22183 0.79825 0.0
H1600 H 0.18688 0.21306 0.81408 0.0
H1601 H 0.07539 0.10315 0.75784 0.0
H1602 H 0.10267 0.09899 0.73988 0.0
H1603 H 0.09844 0.13682 0.7404 0.0
C1604 C 0.90347 0.0376 0.78578 0.0
C1605 C 0.88293 0.04976 0.7776 0.0
C1606 C 0.89312 1.00249 0.78523 0.0
C1607 C 0.86126 0.97891 0.77645 0.0
C1608 C 0.84031 0.99106 0.76826 0.0
C1609 C 0.85155 0.0264 0.76879 0.0
C1610 C 0.91637 0.99066 0.79398 0.0
C1611 C 0.80612 0.96675 0.75885 0.0
C1612 C 0.84992 0.89291 0.75988 0.0
C1613 C 0.83238 0.87166 0.77597 0.0
C1614 C 0.859 0.92773 0.75969 0.0
C1615 C 0.84998 0.94156 0.77586 0.0
C1616 C 0.83129 0.91996 0.79183 0.0
C1617 C 0.82289 0.88535 0.79175 0.0
C1618 C 0.87918 0.94997 0.74245 0.0
C1619 C 0.82082 0.93361 0.80924 0.0
H1620 H 0.9277 0.05563 0.79266 0.0
H1621 H 0.83597 0.03582 0.76205 0.0
H1622 H 0.90281 0.97204 0.80605 0.0
H1623 H 0.92301 0.97718 0.78262 0.0
H1624 H 0.94057 0.01234 0.79995 0.0
H1625 H 0.7925 0.98018 0.75362 0.0
H1626 H 0.81 0.95353 0.74614 0.0
H1627 H 0.78939 0.94661 0.76957 0.0
H1628 H 0.85754 0.88262 0.74767 0.0
H1629 H 0.80921 0.86909 0.8042 0.0
H1630 H 0.90475 0.97054 0.74758 0.0
H1631 H 0.86575 0.96274 0.73601 0.0
H1632 H 0.88305 0.93503 0.73069 0.0
H1633 H 0.84409 0.95347 0.81699 0.0
H1634 H 0.80471 0.91307 0.81995 0.0
H1635 H 0.80627 0.94613 0.80414 0.0
C1636 C 0.12678 0.96339 0.76037 0.0
C1637 C 0.14912 0.9644 0.77516 0.0
C1638 C 0.09178 0.9381 0.76044 0.0
C1639 C 0.07878 0.9131 0.77562 0.0
C1640 C 0.10136 0.9134 0.79028 0.0
C1641 C 0.13622 0.93904 0.78989 0.0
C1642 C 0.06852 0.93866 0.74454 0.0
C1643 C 0.08854 0.88709 0.80665 0.0
C1644 C 0.98339 0.87014 0.7877 0.0
C1645 C 0.97039 0.83856 0.77797 0.0
C1646 C 0.01862 0.89462 0.78707 0.0
C1647 C 0.04137 0.88724 0.77649 0.0
C1648 C 0.02832 0.85524 0.76673 0.0
C1649 C 0.99295 0.83133 0.76753 0.0
C1650 C 0.03147 0.92844 0.79765 0.0
C1651 C 0.05169 0.84639 0.75529 0.0
H1652 H 0.13644 0.9829 0.74895 0.0
H1653 H 0.15325 0.93954 0.80136 0.0
H1654 H 0.05497 0.91341 0.73695 0.0
H1655 H 0.04858 0.94313 0.75126 0.0
H1656 H 0.08285 0.959 0.73337 0.0
H1657 H 0.10964 0.88996 0.81645 0.0
H1658 H 0.06936 0.88964 0.8157 0.0
H1659 H 0.07541 0.86075 0.80038 0.0
H1660 H 0.9659 0.87566 0.79579 0.0
H1661 H 0.9828 0.80713 0.75971 0.0
H1662 H 0.04413 0.95001 0.78701 0.0
H1663 H 0.05104 0.93188 0.80878 0.0
H1664 H 0.01044 0.9302 0.80518 0.0
H1665 H 0.06439 0.86521 0.74319 0.0
H1666 H 0.0376 0.82016 0.74885 0.0
H1667 H 0.0723 0.84807 0.76505 0.0
C1668 C 0.79344 0.48584 0.5695 0.0
C1669 C 0.80697 0.51232 0.55548 0.0
C1670 C 0.80262 0.46024 0.56955 0.0
C1671 C 0.82701 0.4619 0.55572 0.0
C1672 C 0.84207 0.48956 0.54214 0.0
C1673 C 0.8315 0.5142 0.54201 0.0
C1674 C 0.78538 0.43085 0.58401 0.0
C1675 C 0.86885 0.49275 0.52752 0.0
C1676 C 0.86615 0.40561 0.56696 0.0
C1677 C 0.84734 0.37771 0.55429 0.0
C1678 C 0.86074 0.43387 0.5671 0.0
C1679 C 0.83509 0.43355 0.55477 0.0
C1680 C 0.81598 0.4053 0.54202 0.0
C1681 C 0.82273 0.37803 0.54172 0.0
C1682 C 0.88231 0.46395 0.58047 0.0
C1683 C 0.78768 0.4034 0.5291 0.0
H1684 H 0.77527 0.48487 0.58034 0.0
H1685 H 0.84206 0.53466 0.53116 0.0
H1686 H 0.77123 0.40616 0.57588 0.0
H1687 H 0.80494 0.42939 0.59328 0.0
H1688 H 0.76699 0.43342 0.59382 0.0
H1689 H 0.88053 0.5175 0.51936 0.0
H1690 H 0.88956 0.49069 0.5352 0.0
H1691 H 0.85699 0.47141 0.51671 0.0
H1692 H 0.88533 0.40548 0.57661 0.0
H1693 H 0.80787 0.35632 0.53204 0.0
H1694 H 0.86577 0.46622 0.59181 0.0
H1695 H 0.89441 0.48822 0.57186 0.0
H1696 H 0.90284 0.46137 0.58804 0.0
H1697 H 0.76784 0.40438 0.53838 0.0
H1698 H 0.77507 0.37953 0.52011 0.0
H1699 H 0.79815 0.42583 0.51902 0.0
C1700 C 0.60479 0.4677 0.54556 0.0
C1701 C 0.63143 0.48015 0.55951 0.0
C1702 C 0.5791 0.43287 0.54521 0.0
C1703 C 0.5801 0.40984 0.55909 0.0
C1704 C 0.60642 0.42239 0.57352 0.0
C1705 C 0.63169 0.45739 0.5736 0.0
C1706 C 0.55135 0.42053 0.52967 0.0
C1707 C 0.60842 0.39866 0.58855 0.0
C1708 C 0.4994 0.32339 0.56786 0.0
C1709 C 0.50592 0.30146 0.55629 0.0
C1710 C 0.52319 0.35878 0.56883 0.0
C1711 C 0.55434 0.37243 0.55807 0.0
C1712 C 0.561 0.35028 0.54637 0.0
C1713 C 0.53666 0.31503 0.54562 0.0
C1714 C 0.51515 0.38151 0.58147 0.0
C1715 C 0.59391 0.36378 0.53473 0.0
H1716 H 0.60429 0.48507 0.53465 0.0
H1717 H 0.65219 0.46671 0.58441 0.0
H1718 H 0.55322 0.40184 0.5198 0.0
H1719 H 0.52558 0.40697 0.53668 0.0
H1720 H 0.55322 0.44195 0.52055 0.0
H1721 H 0.62965 0.41267 0.59928 0.0
H1722 H 0.58383 0.3847 0.59678 0.0
H1723 H 0.61246 0.37909 0.58096 0.0
H1724 H 0.47585 0.31274 0.57638 0.0
H1725 H 0.54164 0.29797 0.5367 0.0
H1726 H 0.51584 0.40239 0.57239 0.0
H1727 H 0.53497 0.39387 0.59312 0.0
H1728 H 0.48951 0.367 0.58861 0.0
H1729 H 0.59629 0.38372 0.52417 0.0
H1730 H 0.59516 0.34316 0.52637 0.0
H1731 H 0.61636 0.37614 0.5448 0.0
C1732 C 0.69553 0.18267 0.56565 0.0
C1733 C 0.7187 0.21361 0.55636 0.0
C1734 C 0.6602 0.17147 0.56633 0.0
C1735 C 0.64788 0.19203 0.55778 0.0
C1736 C 0.67128 0.22345 0.54851 0.0
C1737 C 0.70638 0.23376 0.54784 0.0
C1738 C 0.63608 0.13777 0.57627 0.0
C1739 C 0.65926 0.24624 0.53934 0.0
C1740 C 0.55411 0.15302 0.5428 0.0
C1741 C 0.54069 0.16338 0.55832 0.0
C1742 C 0.5887 0.16132 0.54273 0.0
C1743 C 0.61053 0.18076 0.55844 0.0
C1744 C 0.59697 0.19063 0.57438 0.0
C1745 C 0.56217 0.18167 0.57418 0.0
C1746 C 0.60207 0.14999 0.52557 0.0
C1747 C 0.61948 0.2116 0.59134 0.0
H1748 H 0.70512 0.16742 0.57264 0.0
H1749 H 0.72428 0.25768 0.54063 0.0
H1750 H 0.62306 0.14227 0.58886 0.0
H1751 H 0.61577 0.1205 0.5658 0.0
H1752 H 0.64964 0.12446 0.58181 0.0
H1753 H 0.68082 0.27013 0.53299 0.0
H1754 H 0.64038 0.2321 0.52747 0.0
H1755 H 0.64601 0.25343 0.55056 0.0
H1756 H 0.53767 0.13875 0.53053 0.0
H1757 H 0.55208 0.18994 0.58617 0.0
H1758 H 0.61468 0.13571 0.53099 0.0
H1759 H 0.6218 0.17285 0.51747 0.0
H1760 H 0.58135 0.13334 0.51509 0.0
H1761 H 0.63239 0.19851 0.59803 0.0
H1762 H 0.6047 0.21597 0.60299 0.0
H1763 H 0.63994 0.23693 0.58585 0.0
C1764 C 0.81402 0.44953 0.12116 0.0
C1765 C 0.84608 0.46905 0.11204 0.0
C1766 C 0.78932 0.45996 0.12055 0.0
C1767 C 0.79711 0.49094 0.11082 0.0
C1768 C 0.82966 0.51097 0.10179 0.0
C1769 C 0.85363 0.49959 0.10234 0.0
C1770 C 0.75478 0.43767 0.13018 0.0
C1771 C 0.83907 0.54428 0.09142 0.0
C1772 C 0.72194 0.50125 0.09402 0.0
C1773 C 0.71916 0.52032 0.10957 0.0
C1774 C 0.74743 0.49185 0.09412 0.0
C1775 C 0.77104 0.50219 0.11 0.0
C1776 C 0.76907 0.52241 0.1254 0.0
C1777 C 0.74302 0.53102 0.12506 0.0
C1778 C 0.74844 0.46996 0.07754 0.0
C1779 C 0.79408 0.53438 0.14243 0.0
H1780 H 0.80821 0.42595 0.1287 0.0
H1781 H 0.87815 0.51438 0.09494 0.0
H1782 H 0.75044 0.45242 0.14181 0.0
H1783 H 0.73397 0.42989 0.11912 0.0
H1784 H 0.75262 0.41412 0.1369 0.0
H1785 H 0.86588 0.55744 0.08576 0.0
H1786 H 0.82135 0.53926 0.07886 0.0
H1787 H 0.83615 0.56191 0.10166 0.0
H1788 H 0.70349 0.49269 0.08205 0.0
H1789 H 0.74113 0.54588 0.13709 0.0
H1790 H 0.74386 0.44499 0.08347 0.0
H1791 H 0.77423 0.48277 0.07055 0.0
H1792 H 0.72886 0.46484 0.06602 0.0
H1793 H 0.791 0.51184 0.15085 0.0
H1794 H 0.79027 0.55149 0.15266 0.0
H1795 H 0.82089 0.54838 0.13685 0.0
C1796 C 0.51674 0.22647 0.09424 0.0
C1797 C 0.49816 0.20469 0.10992 0.0
C1798 C 0.52592 0.26132 0.0943 0.0
C1799 C 0.5159 0.2746 0.11031 0.0
C1800 C 0.49619 0.25247 0.12587 0.0
C1801 C 0.48776 0.21786 0.12555 0.0
C1802 C 0.54724 0.28416 0.07753 0.0
C1803 C 0.48461 0.26552 0.14306 0.0
C1804 C 0.56856 0.37039 0.12115 0.0
C1805 C 0.54865 0.3827 0.1123 0.0
C1806 C 0.55825 0.33529 0.12056 0.0
C1807 C 0.52701 0.31188 0.11111 0.0
C1808 C 0.50656 0.32416 0.10239 0.0
C1809 C 0.51779 0.35949 0.10294 0.0
C1810 C 0.58095 0.3233 0.12988 0.0
C1811 C 0.47297 0.30003 0.09233 0.0
H1812 H 0.52507 0.21657 0.08217 0.0
H1813 H 0.47327 0.20117 0.13768 0.0
H1814 H 0.53413 0.29698 0.07074 0.0
H1815 H 0.57236 0.30468 0.08324 0.0
H1816 H 0.55207 0.26967 0.06591 0.0
H1817 H 0.46787 0.24463 0.15342 0.0
H1818 H 0.50736 0.28516 0.15128 0.0
H1819 H 0.47033 0.27815 0.13767 0.0
H1820 H 0.59237 0.38833 0.12844 0.0
H1821 H 0.50267 0.36904 0.09576 0.0
H1822 H 0.58854 0.31033 0.11869 0.0
H1823 H 0.56659 0.30419 0.14161 0.0
H1824 H 0.60463 0.34483 0.13644 0.0
H1825 H 0.4777 0.28734 0.07966 0.0
H1826 H 0.45952 0.31351 0.08688 0.0
H1827 H 0.45571 0.27948 0.10269 0.0
C1828 C 0.65829 0.16319 0.10215 0.0
C1829 C 0.63542 0.17066 0.11205 0.0
C1830 C 0.69367 0.18716 0.1015 0.0
C1831 C 0.70634 0.21961 0.11066 0.0
C1832 C 0.68327 0.22729 0.12063 0.0
C1833 C 0.64812 0.20261 0.12131 0.0
C1834 C 0.71743 0.17789 0.09086 0.0
C1835 C 0.69567 0.2617 0.13043 0.0
C1836 C 0.8007 0.2738 0.12465 0.0
C1837 C 0.81361 0.29794 0.10929 0.0
C1838 C 0.76607 0.24758 0.12499 0.0
C1839 C 0.74367 0.24572 0.10974 0.0
C1840 C 0.7567 0.26958 0.09398 0.0
C1841 C 0.79156 0.29526 0.09387 0.0
C1842 C 0.75328 0.22233 0.1419 0.0
C1843 C 0.73357 0.26868 0.07755 0.0
H1844 H 0.64841 0.13874 0.09464 0.0
H1845 H 0.63043 0.20835 0.129 0.0
H1846 H 0.72996 0.19574 0.07833 0.0
H1847 H 0.73815 0.18073 0.10095 0.0
H1848 H 0.70369 0.15114 0.08512 0.0
H1849 H 0.67437 0.26375 0.13738 0.0
H1850 H 0.71499 0.26595 0.14192 0.0
H1851 H 0.70852 0.28263 0.11942 0.0
H1852 H 0.8176 0.27561 0.13657 0.0
H1853 H 0.80126 0.31392 0.08201 0.0
H1854 H 0.74037 0.1956 0.13619 0.0
H1855 H 0.73393 0.22526 0.15054 0.0
H1856 H 0.77438 0.22602 0.15197 0.0
H1857 H 0.72048 0.24295 0.0705 0.0
H1858 H 0.7479 0.28835 0.06605 0.0
H1859 H 0.71326 0.2732 0.08366 0.0
C1860 C 0.49896 0.84811 0.87536 0.0
C1861 C 0.47427 0.84615 0.88874 0.0
C1862 C 0.50944 0.82341 0.87547 0.0
C1863 C 0.49416 0.79561 0.88894 0.0
C1864 C 0.46963 0.79386 0.9027 0.0
C1865 C 0.46053 0.81951 0.90267 0.0
C1866 C 0.53636 0.8267 0.86093 0.0
C1867 C 0.45216 0.76432 0.91705 0.0
C1868 C 0.48977 0.71174 0.87482 0.0
C1869 C 0.51417 0.71122 0.88748 0.0
C1870 C 0.48315 0.7391 0.87512 0.0
C1871 C 0.50217 0.76722 0.88796 0.0
C1872 C 0.52763 0.76734 0.90038 0.0
C1873 C 0.53292 0.73901 0.90024 0.0
C1874 C 0.45504 0.7374 0.8621 0.0
C1875 C 0.5491 0.79729 0.91386 0.0
H1876 H 0.5097 0.86871 0.86459 0.0
H1877 H 0.44226 0.81848 0.91347 0.0
H1878 H 0.55696 0.82451 0.86867 0.0
H1879 H 0.5246 0.80546 0.85005 0.0
H1880 H 0.54818 0.85152 0.85284 0.0
H1881 H 0.43368 0.76683 0.92681 0.0
H1882 H 0.43809 0.73973 0.90884 0.0
H1883 H 0.47159 0.76273 0.92638 0.0
H1884 H 0.47495 0.69012 0.86508 0.0
H1885 H 0.55193 0.73872 0.90996 0.0
H1886 H 0.46568 0.75996 0.85211 0.0
H1887 H 0.43509 0.7383 0.87132 0.0
H1888 H 0.44253 0.71365 0.85301 0.0
H1889 H 0.56131 0.82164 0.90533 0.0
H1890 H 0.56954 0.7946 0.92146 0.0
H1891 H 0.53247 0.79945 0.92518 0.0
C1892 C 0.27319 0.80205 0.878 0.0
C1893 C 0.29921 0.81439 0.89233 0.0
C1894 C 0.24741 0.76726 0.87746 0.0
C1895 C 0.24767 0.74416 0.89157 0.0
C1896 C 0.27334 0.75659 0.90638 0.0
C1897 C 0.29874 0.79155 0.90662 0.0
C1898 C 0.22038 0.75505 0.8615 0.0
C1899 C 0.2745 0.73278 0.92169 0.0
C1900 C 0.16622 0.65804 0.89968 0.0
C1901 C 0.17307 0.63588 0.88856 0.0
C1902 C 0.19015 0.69339 0.90071 0.0
C1903 C 0.22174 0.7068 0.89044 0.0
C1904 C 0.2287 0.68444 0.87914 0.0
C1905 C 0.20424 0.64922 0.87834 0.0
C1906 C 0.18178 0.71632 0.91293 0.0
C1907 C 0.26207 0.69768 0.86799 0.0
H1908 H 0.27326 0.81948 0.86692 0.0
H1909 H 0.31876 0.80077 0.91773 0.0
H1910 H 0.22251 0.73622 0.8519 0.0
H1911 H 0.19431 0.74169 0.86815 0.0
H1912 H 0.22284 0.7765 0.85218 0.0
H1913 H 0.2953 0.7467 0.93267 0.0
H1914 H 0.24956 0.71897 0.92958 0.0
H1915 H 0.27869 0.71309 0.91437 0.0
H1916 H 0.14232 0.6476 0.90786 0.0
H1917 H 0.20947 0.63201 0.86974 0.0
H1918 H 0.18309 0.73729 0.90366 0.0
H1919 H 0.20107 0.72857 0.92486 0.0
H1920 H 0.1558 0.702 0.91969 0.0
H1921 H 0.26508 0.7177 0.8573 0.0
H1922 H 0.26346 0.67695 0.85986 0.0
H1923 H 0.28408 0.70989 0.87837 0.0
C1924 C 0.36129 0.51636 0.89755 0.0
C1925 C 0.38478 0.54774 0.88879 0.0
C1926 C 0.32596 0.50523 0.89801 0.0
C1927 C 0.31396 0.52627 0.88978 0.0
C1928 C 0.33767 0.5581 0.88102 0.0
C1929 C 0.37276 0.56835 0.88055 0.0
C1930 C 0.30152 0.47108 0.90741 0.0
C1931 C 0.32598 0.58142 0.87221 0.0
C1932 C 0.2204 0.48822 0.87453 0.0
C1933 C 0.20682 0.49785 0.8903 0.0
C1934 C 0.25498 0.49649 0.87442 0.0
C1935 C 0.27665 0.51517 0.89037 0.0
C1936 C 0.26293 0.52434 0.90653 0.0
C1937 C 0.22815 0.51541 0.90636 0.0
C1938 C 0.26853 0.4859 0.85702 0.0
C1939 C 0.28526 0.5445 0.92375 0.0
H1940 H 0.37061 0.50072 0.90432 0.0
H1941 H 0.3909 0.59257 0.87371 0.0
H1942 H 0.28837 0.47505 0.92012 0.0
H1943 H 0.28133 0.45443 0.89669 0.0
H1944 H 0.31484 0.45734 0.91263 0.0
H1945 H 0.34773 0.60552 0.8662 0.0
H1946 H 0.30729 0.56787 0.86017 0.0
H1947 H 0.31262 0.58823 0.88357 0.0
H1948 H 0.20408 0.47453 0.8621 0.0
H1949 H 0.21794 0.52313 0.91856 0.0
H1950 H 0.28092 0.47123 0.86213 0.0
H1951 H 0.28848 0.5091 0.84926 0.0
H1952 H 0.24794 0.46986 0.84631 0.0
H1953 H 0.29789 0.53096 0.93021 0.0
H1954 H 0.2704 0.54854 0.9355 0.0
H1955 H 0.30594 0.56999 0.9186 0.0
C1956 C 0.52223 0.83587 0.43466 0.0
C1957 C 0.51522 0.80592 0.44485 0.0
C1958 C 0.49802 0.84693 0.43398 0.0
C1959 C 0.46581 0.8272 0.44343 0.0
C1960 C 0.4586 0.79684 0.4537 0.0
C1961 C 0.48351 0.78671 0.45438 0.0
C1962 C 0.50679 0.87957 0.42303 0.0
C1963 C 0.42446 0.77489 0.4638 0.0
C1964 C 0.41142 0.86711 0.45727 0.0
C1965 C 0.38689 0.85522 0.4421 0.0
C1966 C 0.43781 0.85898 0.45759 0.0
C1967 C 0.43948 0.83808 0.44251 0.0
C1968 C 0.41521 0.82657 0.42694 0.0
C1969 C 0.38936 0.83548 0.42685 0.0
C1970 C 0.46348 0.87216 0.47429 0.0
C1971 C 0.4159 0.80395 0.4107 0.0
H1972 H 0.54649 0.85039 0.42695 0.0
H1973 H 0.47814 0.76356 0.46229 0.0
H1974 H 0.48859 0.87371 0.41061 0.0
H1975 H 0.50404 0.89766 0.43297 0.0
H1976 H 0.5334 0.89259 0.41706 0.0
H1977 H 0.42278 0.75185 0.47096 0.0
H1978 H 0.42032 0.79019 0.47517 0.0
H1979 H 0.40325 0.76628 0.45293 0.0
H1980 H 0.40978 0.8825 0.46907 0.0
H1981 H 0.3704 0.82602 0.41513 0.0
H1982 H 0.49007 0.88601 0.46837 0.0
H1983 H 0.46094 0.85022 0.48312 0.0
H1984 H 0.45987 0.88975 0.48423 0.0
H1985 H 0.44146 0.81656 0.40344 0.0
H1986 H 0.3959 0.79807 0.39932 0.0
H1987 H 0.41172 0.77938 0.41704 0.0
C1988 C 0.18521 0.56037 0.42693 0.0
C1989 C 0.16543 0.53811 0.44218 0.0
C1990 C 0.19422 0.59516 0.42708 0.0
C1991 C 0.18281 0.60789 0.44269 0.0
C1992 C 0.16186 0.58527 0.45775 0.0
C1993 C 0.15361 0.55072 0.45738 0.0
C1994 C 0.21687 0.61853 0.41084 0.0
C1995 C 0.14878 0.59775 0.4745 0.0
C1996 C 0.23463 0.70331 0.45456 0.0
C1997 C 0.21542 0.71588 0.44513 0.0
C1998 C 0.22431 0.66822 0.45387 0.0
C1999 C 0.19383 0.64513 0.44367 0.0
C2000 C 0.17412 0.65769 0.4343 0.0
C2001 C 0.18531 0.69299 0.43503 0.0
C2002 C 0.24618 0.6559 0.46392 0.0
C2003 C 0.14139 0.6339 0.42338 0.0
H2004 H 0.19461 0.5509 0.41519 0.0
H2005 H 0.13818 0.53365 0.46916 0.0
H2006 H 0.20432 0.63158 0.40365 0.0
H2007 H 0.24151 0.63885 0.41718 0.0
H2008 H 0.22262 0.60441 0.39942 0.0
H2009 H 0.13115 0.57651 0.48443 0.0
H2010 H 0.17078 0.6171 0.48333 0.0
H2011 H 0.13499 0.61056 0.46862 0.0
H2012 H 0.25789 0.72105 0.4624 0.0
H2013 H 0.17077 0.7028 0.42742 0.0
H2014 H 0.25474 0.64334 0.45301 0.0
H2015 H 0.23083 0.63639 0.47526 0.0
H2016 H 0.26926 0.6772 0.47111 0.0
H2017 H 0.14714 0.62154 0.41094 0.0
H2018 H 0.12845 0.64757 0.41746 0.0
H2019 H 0.12327 0.61306 0.43333 0.0
C2020 C 0.46988 0.6101 0.45738 0.0
C2021 C 0.48257 0.63444 0.44211 0.0
C2022 C 0.43533 0.58372 0.45774 0.0
C2023 C 0.41275 0.58185 0.4426 0.0
C2024 C 0.42555 0.60592 0.42693 0.0
C2025 C 0.46035 0.63178 0.4268 0.0
C2026 C 0.4228 0.55827 0.47455 0.0
C2027 C 0.40223 0.60501 0.41062 0.0
C2028 C 0.32771 0.49894 0.43498 0.0
C2029 C 0.30473 0.50605 0.44505 0.0
C2030 C 0.36302 0.52318 0.43426 0.0
C2031 C 0.3755 0.55551 0.44355 0.0
C2032 C 0.35231 0.5628 0.4537 0.0
C2033 C 0.31724 0.53788 0.45443 0.0
C2034 C 0.38691 0.51431 0.42344 0.0
C2035 C 0.3645 0.59707 0.46363 0.0
H2036 H 0.48691 0.61188 0.46922 0.0
H2037 H 0.46987 0.65059 0.41501 0.0
H2038 H 0.40337 0.5609 0.4833 0.0
H2039 H 0.41006 0.53161 0.46874 0.0
H2040 H 0.44401 0.56203 0.48455 0.0
H2041 H 0.41639 0.62486 0.39917 0.0
H2042 H 0.38927 0.57937 0.40347 0.0
H2043 H 0.38183 0.60926 0.41686 0.0
H2044 H 0.31798 0.47459 0.4274 0.0
H2045 H 0.29945 0.54333 0.46224 0.0
H2046 H 0.40777 0.51721 0.43343 0.0
H2047 H 0.39925 0.53234 0.41096 0.0
H2048 H 0.37332 0.48763 0.41759 0.0
H2049 H 0.38395 0.60138 0.47504 0.0
H2050 H 0.34312 0.59881 0.47071 0.0
H2051 H 0.37711 0.61813 0.45268 0.0
loop_
_geom_bond_atom_site_label_1
_geom_bond_atom_site_label_2
_geom_bond_distance
_geom_bond_site_symmetry_2
_ccdc_geom_bond_type
Co0 O3 1.970 . S
Co0 N17 1.989 . S
Co0 O25 1.967 . S
Co0 O32 1.920 . S
Co1 O4 1.966 . S
Co1 N10 2.022 . S
Co1 N18 1.993 . S
Co1 O26 1.941 . S
C2 O3 1.258 . S
C2 O4 1.263 . S
O3 Co0 1.970 . S
O3 C2 1.258 . S
O4 Co1 1.966 . S
O4 C2 1.263 . S
C5 O6 1.235 . S
C5 O32 1.289 1_655 S
O6 C5 1.235 . S
C7 C9 1.400 . S
C7 N10 1.351 . S
C7 C12 1.501 . S
C8 C9 1.387 . S
C8 N11 1.341 . S
C9 C7 1.400 . S
C9 C8 1.387 . S
N10 Co1 2.022 . S
N10 C7 1.351 . S
N10 N11 1.365 . S
N11 C8 1.341 . S
N11 N10 1.365 . S
N11 H31 0.862 . S
C12 C7 1.501 . S
C12 H13 0.961 . S
C12 H14 0.961 . S
C12 H15 0.960 . S
H13 C12 0.961 . S
H14 C12 0.961 . S
H15 C12 0.960 . S
C16 N17 1.342 . S
C16 C20 1.401 . S
C16 C21 1.499 . S
N17 Co0 1.989 . S
N17 C16 1.342 . S
N17 N18 1.388 . S
N18 Co1 1.993 . S
N18 N17 1.388 . S
N18 C19 1.346 . S
C19 N18 1.346 . S
C19 C20 1.396 . S
C19 C29 1.510 . S
C20 C16 1.401 . S
C20 C19 1.396 . S
C21 C16 1.499 . S
C21 H22 0.959 . S
C21 H23 0.960 . S
C21 H24 0.961 . S
H22 C21 0.959 . S
H23 C21 0.960 . S
H24 C21 0.961 . S
O25 Co0 1.967 . S
O25 C33 1.258 . S
O26 Co1 1.941 . S
O26 C33 1.266 . S
H27 C29 0.959 . S
H28 C29 0.961 . S
C29 C19 1.510 . S
C29 H27 0.959 . S
C29 H28 0.961 . S
C29 H30 0.960 . S
H30 C29 0.960 . S
H31 N11 0.862 . S
O32 Co0 1.920 . S
O32 C5 1.289 1_455 S
C33 O25 1.258 . S
C33 O26 1.266 . S
Co34 O37 1.970 . S
Co34 N51 1.989 . S
Co34 O59 1.967 . S
Co34 O66 1.920 . S
Co35 O38 1.966 . S
Co35 N44 2.022 . S
Co35 N52 1.993 . S
Co35 O60 1.941 . S
C36 O37 1.258 . S
C36 O38 1.263 . S
O37 Co34 1.970 . S
O37 C36 1.258 . S
O38 Co35 1.966 . S
O38 C36 1.263 . S
C39 O40 1.235 . S
C39 O66 1.289 . S
O40 C39 1.235 . S
C41 C43 1.400 . S
C41 N44 1.351 . S
C41 C46 1.501 . S
C42 C43 1.387 . S
C42 N45 1.341 . S
C43 C41 1.400 . S
C43 C42 1.387 . S
N44 Co35 2.022 . S
N44 C41 1.351 . S
N44 N45 1.365 . S
N45 C42 1.341 . S
N45 N44 1.365 . S
N45 H65 0.862 . S
C46 C41 1.501 . S
C46 H47 0.961 . S
C46 H48 0.961 . S
C46 H49 0.960 . S
H47 C46 0.961 . S
H48 C46 0.961 . S
H49 C46 0.960 . S
C50 N51 1.342 . S
C50 C54 1.401 . S
C50 C55 1.499 . S
N51 Co34 1.989 . S
N51 C50 1.342 . S
N51 N52 1.388 . S
N52 Co35 1.993 . S
N52 N51 1.388 . S
N52 C53 1.346 . S
C53 N52 1.346 . S
C53 C54 1.396 . S
C53 C63 1.510 . S
C54 C50 1.401 . S
C54 C53 1.396 . S
C55 C50 1.499 . S
C55 H56 0.959 . S
C55 H57 0.960 . S
C55 H58 0.961 . S
H56 C55 0.959 . S
H57 C55 0.960 . S
H58 C55 0.961 . S
O59 Co34 1.967 . S
O59 C67 1.258 . S
O60 Co35 1.941 . S
O60 C67 1.266 . S
H61 C63 0.959 . S
H62 C63 0.961 . S
C63 C53 1.510 . S
C63 H61 0.959 . S
C63 H62 0.961 . S
C63 H64 0.960 . S
H64 C63 0.960 . S
H65 N45 0.862 . S
O66 Co34 1.920 . S
O66 C39 1.289 . S
C67 O59 1.258 . S
C67 O60 1.266 . S
Co68 O71 1.970 . S
Co68 N85 1.989 . S
Co68 O93 1.967 . S
Co68 O100 1.920 . S
Co69 O72 1.966 . S
Co69 N78 2.022 . S
Co69 N86 1.993 . S
Co69 O94 1.941 . S
C70 O71 1.258 . S
C70 O72 1.263 . S
O71 Co68 1.970 . S
O71 C70 1.258 . S
O72 Co69 1.966 . S
O72 C70 1.263 . S
C73 O74 1.235 . S
C73 O100 1.289 1_545 S
O74 C73 1.235 . S
C75 C77 1.400 . S
C75 N78 1.351 . S
C75 C80 1.501 . S
C76 C77 1.387 . S
C76 N79 1.341 . S
C77 C75 1.400 . S
C77 C76 1.387 . S
N78 Co69 2.022 . S
N78 C75 1.351 . S
N78 N79 1.365 . S
N79 C76 1.341 . S
N79 N78 1.365 . S
N79 H99 0.862 . S
C80 C75 1.501 . S
C80 H81 0.961 . S
C80 H82 0.961 . S
C80 H83 0.960 . S
H81 C80 0.961 . S
H82 C80 0.961 . S
H83 C80 0.960 . S
C84 N85 1.342 . S
C84 C88 1.401 . S
C84 C89 1.499 . S
N85 Co68 1.989 . S
N85 C84 1.342 . S
N85 N86 1.388 . S
N86 Co69 1.993 . S
N86 N85 1.388 . S
N86 C87 1.346 . S
C87 N86 1.346 . S
C87 C88 1.396 . S
C87 C97 1.510 . S
C88 C84 1.401 . S
C88 C87 1.396 . S
C89 C84 1.499 . S
C89 H90 0.959 . S
C89 H91 0.960 . S
C89 H92 0.961 . S
H90 C89 0.959 . S
H91 C89 0.960 . S
H92 C89 0.961 . S
O93 Co68 1.967 . S
O93 C101 1.258 . S
O94 Co69 1.941 . S
O94 C101 1.266 . S
H95 C97 0.959 . S
H96 C97 0.961 . S
C97 C87 1.510 . S
C97 H95 0.959 . S
C97 H96 0.961 . S
C97 H98 0.960 . S
H98 C97 0.960 . S
H99 N79 0.862 . S
O100 Co68 1.920 . S
O100 C73 1.289 1_565 S
C101 O93 1.258 . S
C101 O94 1.266 . S
Co102 O105 1.970 . S
Co102 N119 1.989 . S
Co102 O127 1.967 . S
Co102 O134 1.920 . S
Co103 O106 1.966 . S
Co103 N112 2.022 . S
Co103 N120 1.993 . S
Co103 O128 1.941 . S
C104 O105 1.258 . S
C104 O106 1.263 . S
O105 Co102 1.970 . S
O105 C104 1.258 . S
O106 Co103 1.966 . S
O106 C104 1.263 . S
C107 O108 1.235 . S
C107 O134 1.289 1_565 S
O108 C107 1.235 . S
C109 C111 1.400 . S
C109 N112 1.351 . S
C109 C114 1.501 . S
C110 C111 1.387 . S
C110 N113 1.341 . S
C111 C109 1.400 . S
C111 C110 1.387 . S
N112 Co103 2.022 . S
N112 C109 1.351 . S
N112 N113 1.365 . S
N113 C110 1.341 . S
N113 N112 1.365 . S
N113 H133 0.862 . S
C114 C109 1.501 . S
C114 H115 0.961 . S
C114 H116 0.961 . S
C114 H117 0.960 . S
H115 C114 0.961 . S
H116 C114 0.961 . S
H117 C114 0.960 . S
C118 N119 1.342 . S
C118 C122 1.401 . S
C118 C123 1.499 . S
N119 Co102 1.989 . S
N119 C118 1.342 . S
N119 N120 1.388 . S
N120 Co103 1.993 . S
N120 N119 1.388 . S
N120 C121 1.346 . S
C121 N120 1.346 . S
C121 C122 1.396 . S
C121 C131 1.510 . S
C122 C118 1.401 . S
C122 C121 1.396 . S
C123 C118 1.499 . S
C123 H124 0.959 . S
C123 H125 0.960 . S
C123 H126 0.961 . S
H124 C123 0.959 . S
H125 C123 0.960 . S
H126 C123 0.961 . S
O127 Co102 1.967 . S
O127 C135 1.258 . S
O128 Co103 1.941 . S
O128 C135 1.266 . S
H129 C131 0.959 . S
H130 C131 0.961 . S
C131 C121 1.510 . S
C131 H129 0.959 . S
C131 H130 0.961 . S
C131 H132 0.960 . S
H132 C131 0.960 . S
H133 N113 0.862 . S
O134 Co102 1.920 . S
O134 C107 1.289 1_545 S
C135 O127 1.258 . S
C135 O128 1.266 . S
Co136 O139 1.970 . S
Co136 N153 1.989 . S
Co136 O161 1.967 . S
Co136 O168 1.920 . S
Co137 O140 1.966 . S
Co137 N146 2.022 . S
Co137 N154 1.993 . S
Co137 O162 1.941 . S
C138 O139 1.258 . S
C138 O140 1.263 . S
O139 Co136 1.970 . S
O139 C138 1.258 . S
O140 Co137 1.966 . S
O140 C138 1.263 . S
C141 O142 1.235 . S
C141 O168 1.289 1_455 S
O142 C141 1.235 . S
C143 C145 1.400 . S
C143 N146 1.351 . S
C143 C148 1.501 . S
C144 C145 1.387 . S
C144 N147 1.341 . S
C145 C143 1.400 . S
C145 C144 1.387 . S
N146 Co137 2.022 . S
N146 C143 1.351 . S
N146 N147 1.365 . S
N147 C144 1.341 . S
N147 N146 1.365 . S
N147 H167 0.862 . S
C148 C143 1.501 . S
C148 H149 0.961 . S
C148 H150 0.961 . S
C148 H151 0.960 . S
H149 C148 0.961 . S
H150 C148 0.961 . S
H151 C148 0.960 . S
C152 N153 1.342 . S
C152 C156 1.401 . S
C152 C157 1.499 . S
N153 Co136 1.989 . S
N153 C152 1.342 . S
N153 N154 1.388 . S
N154 Co137 1.993 . S
N154 N153 1.388 . S
N154 C155 1.346 . S
C155 N154 1.346 . S
C155 C156 1.396 . S
C155 C165 1.510 . S
C156 C152 1.401 . S
C156 C155 1.396 . S
C157 C152 1.499 . S
C157 H158 0.959 . S
C157 H159 0.960 . S
C157 H160 0.961 . S
H158 C157 0.959 . S
H159 C157 0.960 . S
H160 C157 0.961 . S
O161 Co136 1.967 . S
O161 C169 1.258 . S
O162 Co137 1.941 . S
O162 C169 1.266 . S
H163 C165 0.959 . S
H164 C165 0.961 . S
C165 C155 1.510 . S
C165 H163 0.959 . S
C165 H164 0.961 . S
C165 H166 0.960 . S
H166 C165 0.960 . S
H167 N147 0.862 . S
O168 Co136 1.920 . S
O168 C141 1.289 1_655 S
C169 O161 1.258 . S
C169 O162 1.266 . S
Co170 O173 1.970 . S
Co170 N187 1.989 . S
Co170 O195 1.967 . S
Co170 O202 1.920 . S
Co171 O174 1.966 . S
Co171 N180 2.022 . S
Co171 N188 1.993 . S
Co171 O196 1.941 . S
C172 O173 1.258 . S
C172 O174 1.263 . S
O173 Co170 1.970 . S
O173 C172 1.258 . S
O174 Co171 1.966 . S
O174 C172 1.263 . S
C175 O176 1.235 . S
C175 O202 1.289 . S
O176 C175 1.235 . S
C177 C179 1.400 . S
C177 N180 1.351 . S
C177 C182 1.501 . S
C178 C179 1.387 . S
C178 N181 1.341 . S
C179 C177 1.400 . S
C179 C178 1.387 . S
N180 Co171 2.022 . S
N180 C177 1.351 . S
N180 N181 1.365 . S
N181 C178 1.341 . S
N181 N180 1.365 . S
N181 H201 0.862 . S
C182 C177 1.501 . S
C182 H183 0.961 . S
C182 H184 0.961 . S
C182 H185 0.960 . S
H183 C182 0.961 . S
H184 C182 0.961 . S
H185 C182 0.960 . S
C186 N187 1.342 . S
C186 C190 1.401 . S
C186 C191 1.499 . S
N187 Co170 1.989 . S
N187 C186 1.342 . S
N187 N188 1.388 . S
N188 Co171 1.993 . S
N188 N187 1.388 . S
N188 C189 1.346 . S
C189 N188 1.346 . S
C189 C190 1.396 . S
C189 C199 1.510 . S
C190 C186 1.401 . S
C190 C189 1.396 . S
C191 C186 1.499 . S
C191 H192 0.959 . S
C191 H193 0.960 . S
C191 H194 0.961 . S
H192 C191 0.959 . S
H193 C191 0.960 . S
H194 C191 0.961 . S
O195 Co170 1.967 . S
O195 C203 1.258 . S
O196 Co171 1.941 . S
O196 C203 1.266 . S
H197 C199 0.959 . S
H198 C199 0.961 . S
C199 C189 1.510 . S
C199 H197 0.959 . S
C199 H198 0.961 . S
C199 H200 0.960 . S
H200 C199 0.960 . S
H201 N181 0.862 . S
O202 Co170 1.920 . S
O202 C175 1.289 . S
C203 O195 1.258 . S
C203 O196 1.266 . S
Co204 O207 1.970 . S
Co204 N221 1.989 . S
Co204 O229 1.967 . S
Co204 O236 1.920 . S
Co205 O208 1.966 . S
Co205 N214 2.022 . S
Co205 N222 1.993 . S
Co205 O230 1.941 . S
C206 O207 1.258 . S
C206 O208 1.263 . S
O207 Co204 1.970 . S
O207 C206 1.258 . S
O208 Co205 1.966 . S
O208 C206 1.263 . S
C209 O210 1.235 . S
C209 O236 1.289 . S
O210 C209 1.235 . S
C211 C213 1.400 . S
C211 N214 1.351 . S
C211 C216 1.501 . S
C212 C213 1.387 . S
C212 N215 1.341 . S
C213 C211 1.400 . S
C213 C212 1.387 . S
N214 Co205 2.022 . S
N214 C211 1.351 . S
N214 N215 1.365 . S
N215 C212 1.341 . S
N215 N214 1.365 . S
N215 H235 0.862 . S
C216 C211 1.501 . S
C216 H217 0.961 . S
C216 H218 0.961 . S
C216 H219 0.960 . S
H217 C216 0.961 . S
H218 C216 0.961 . S
H219 C216 0.960 . S
C220 N221 1.342 . S
C220 C224 1.401 . S
C220 C225 1.499 . S
N221 Co204 1.989 . S
N221 C220 1.342 . S
N221 N222 1.388 . S
N222 Co205 1.993 . S
N222 N221 1.388 . S
N222 C223 1.346 . S
C223 N222 1.346 . S
C223 C224 1.396 . S
C223 C233 1.510 . S
C224 C220 1.401 . S
C224 C223 1.396 . S
C225 C220 1.499 . S
C225 H226 0.959 . S
C225 H227 0.960 . S
C225 H228 0.961 . S
H226 C225 0.959 . S
H227 C225 0.960 . S
H228 C225 0.961 . S
O229 Co204 1.967 . S
O229 C237 1.258 . S
O230 Co205 1.941 . S
O230 C237 1.266 . S
H231 C233 0.959 . S
H232 C233 0.961 . S
C233 C223 1.510 . S
C233 H231 0.959 . S
C233 H232 0.961 . S
C233 H234 0.960 . S
H234 C233 0.960 . S
H235 N215 0.862 . S
O236 Co204 1.920 . S
O236 C209 1.289 . S
C237 O229 1.258 . S
C237 O230 1.266 . S
Co238 O241 1.970 . S
Co238 N255 1.989 . S
Co238 O263 1.967 . S
Co238 O270 1.920 . S
Co239 O242 1.966 . S
Co239 N248 2.022 . S
Co239 N256 1.993 . S
Co239 O264 1.941 . S
C240 O241 1.258 . S
C240 O242 1.263 . S
O241 Co238 1.970 . S
O241 C240 1.258 . S
O242 Co239 1.966 . S
O242 C240 1.263 . S
C243 O244 1.235 . S
C243 O270 1.289 . S
O244 C243 1.235 . S
C245 C247 1.400 . S
C245 N248 1.351 . S
C245 C250 1.501 . S
C246 C247 1.387 . S
C246 N249 1.341 . S
C247 C245 1.400 . S
C247 C246 1.387 . S
N248 Co239 2.022 . S
N248 C245 1.351 . S
N248 N249 1.365 . S
N249 C246 1.341 . S
N249 N248 1.365 . S
N249 H269 0.862 . S
C250 C245 1.501 . S
C250 H251 0.961 . S
C250 H252 0.961 . S
C250 H253 0.960 . S
H251 C250 0.961 . S
H252 C250 0.961 . S
H253 C250 0.960 . S
C254 N255 1.342 . S
C254 C258 1.401 . S
C254 C259 1.499 . S
N255 Co238 1.989 . S
N255 C254 1.342 . S
N255 N256 1.388 . S
N256 Co239 1.993 . S
N256 N255 1.388 . S
N256 C257 1.346 . S
C257 N256 1.346 . S
C257 C258 1.396 . S
C257 C267 1.510 . S
C258 C254 1.401 . S
C258 C257 1.396 . S
C259 C254 1.499 . S
C259 H260 0.959 . S
C259 H261 0.960 . S
C259 H262 0.961 . S
H260 C259 0.959 . S
H261 C259 0.960 . S
H262 C259 0.961 . S
O263 Co238 1.967 . S
O263 C271 1.258 . S
O264 Co239 1.941 . S
O264 C271 1.266 . S
H265 C267 0.959 . S
H266 C267 0.961 . S
C267 C257 1.510 . S
C267 H265 0.959 . S
C267 H266 0.961 . S
C267 H268 0.960 . S
H268 C267 0.960 . S
H269 N249 0.862 . S
O270 Co238 1.920 . S
O270 C243 1.289 . S
C271 O263 1.258 . S
C271 O264 1.266 . S
Co272 O275 1.970 . S
Co272 N289 1.989 . S
Co272 O297 1.967 . S
Co272 O304 1.920 . S
Co273 O276 1.966 . S
Co273 N282 2.022 . S
Co273 N290 1.993 . S
Co273 O298 1.941 . S
C274 O275 1.258 . S
C274 O276 1.263 . S
O275 Co272 1.970 . S
O275 C274 1.258 . S
O276 Co273 1.966 . S
O276 C274 1.263 . S
C277 O278 1.235 . S
C277 O304 1.289 . S
O278 C277 1.235 . S
C279 C281 1.400 . S
C279 N282 1.351 . S
C279 C284 1.501 . S
C280 C281 1.387 . S
C280 N283 1.341 . S
C281 C279 1.400 . S
C281 C280 1.387 . S
N282 Co273 2.022 . S
N282 C279 1.351 . S
N282 N283 1.365 . S
N283 C280 1.341 . S
N283 N282 1.365 . S
N283 H303 0.862 . S
C284 C279 1.501 . S
C284 H285 0.961 . S
C284 H286 0.961 . S
C284 H287 0.960 . S
H285 C284 0.961 . S
H286 C284 0.961 . S
H287 C284 0.960 . S
C288 N289 1.342 . S
C288 C292 1.401 . S
C288 C293 1.499 . S
N289 Co272 1.989 . S
N289 C288 1.342 . S
N289 N290 1.388 . S
N290 Co273 1.993 . S
N290 N289 1.388 . S
N290 C291 1.346 . S
C291 N290 1.346 . S
C291 C292 1.396 . S
C291 C301 1.510 . S
C292 C288 1.401 . S
C292 C291 1.396 . S
C293 C288 1.499 . S
C293 H294 0.959 . S
C293 H295 0.960 . S
C293 H296 0.961 . S
H294 C293 0.959 . S
H295 C293 0.960 . S
H296 C293 0.961 . S
O297 Co272 1.967 . S
O297 C305 1.258 . S
O298 Co273 1.941 . S
O298 C305 1.266 . S
H299 C301 0.959 . S
H300 C301 0.961 . S
C301 C291 1.510 . S
C301 H299 0.959 . S
C301 H300 0.961 . S
C301 H302 0.960 . S
H302 C301 0.960 . S
H303 N283 0.862 . S
O304 Co272 1.920 . S
O304 C277 1.289 . S
C305 O297 1.258 . S
C305 O298 1.266 . S
Co306 O309 1.970 . S
Co306 N323 1.989 . S
Co306 O331 1.967 . S
Co306 O338 1.920 . S
Co307 O310 1.966 . S
Co307 N316 2.022 . S
Co307 N324 1.993 . S
Co307 O332 1.941 . S
C308 O309 1.258 . S
C308 O310 1.263 . S
O309 Co306 1.970 . S
O309 C308 1.258 . S
O310 Co307 1.966 . S
O310 C308 1.263 . S
C311 O312 1.235 . S
C311 O338 1.289 . S
O312 C311 1.235 . S
C313 C315 1.400 . S
C313 N316 1.351 1_455 S
C313 C318 1.501 . S
C314 C315 1.387 . S
C314 N317 1.341 1_455 S
C315 C313 1.400 . S
C315 C314 1.387 . S
N316 Co307 2.022 . S
N316 C313 1.351 1_655 S
N316 N317 1.365 . S
N317 C314 1.341 1_655 S
N317 N316 1.365 . S
N317 H337 0.862 . S
C318 C313 1.501 . S
C318 H319 0.961 1_455 S
C318 H320 0.961 1_455 S
C318 H321 0.960 . S
H319 C318 0.961 1_655 S
H320 C318 0.961 1_655 S
H321 C318 0.960 . S
C322 N323 1.342 . S
C322 C326 1.401 . S
C322 C327 1.499 . S
N323 Co306 1.989 . S
N323 C322 1.342 . S
N323 N324 1.388 . S
N324 Co307 1.993 . S
N324 N323 1.388 . S
N324 C325 1.346 . S
C325 N324 1.346 . S
C325 C326 1.396 . S
C325 C335 1.510 . S
C326 C322 1.401 . S
C326 C325 1.396 . S
C327 C322 1.499 . S
C327 H328 0.959 . S
C327 H329 0.960 . S
C327 H330 0.961 . S
H328 C327 0.959 . S
H329 C327 0.960 . S
H330 C327 0.961 . S
O331 Co306 1.967 . S
O331 C339 1.258 . S
O332 Co307 1.941 . S
O332 C339 1.266 . S
H333 C335 0.959 . S
H334 C335 0.961 . S
C335 C325 1.510 . S
C335 H333 0.959 . S
C335 H334 0.961 . S
C335 H336 0.960 . S
H336 C335 0.960 . S
H337 N317 0.862 . S
O338 Co306 1.920 . S
O338 C311 1.289 . S
C339 O331 1.258 . S
C339 O332 1.266 . S
Co340 O343 1.970 . S
Co340 N357 1.989 . S
Co340 O365 1.967 . S
Co340 O372 1.920 . S
Co341 O344 1.966 . S
Co341 N350 2.022 . S
Co341 N358 1.993 . S
Co341 O366 1.941 . S
C342 O343 1.258 . S
C342 O344 1.263 . S
O343 Co340 1.970 . S
O343 C342 1.258 . S
O344 Co341 1.966 . S
O344 C342 1.263 . S
C345 O346 1.235 . S
C345 O372 1.289 . S
O346 C345 1.235 . S
C347 C349 1.400 . S
C347 N350 1.351 . S
C347 C352 1.501 . S
C348 C349 1.387 . S
C348 N351 1.341 . S
C349 C347 1.400 . S
C349 C348 1.387 . S
N350 Co341 2.022 . S
N350 C347 1.351 . S
N350 N351 1.365 . S
N351 C348 1.341 . S
N351 N350 1.365 . S
N351 H371 0.862 . S
C352 C347 1.501 . S
C352 H353 0.961 . S
C352 H354 0.961 . S
C352 H355 0.960 . S
H353 C352 0.961 . S
H354 C352 0.961 . S
H355 C352 0.960 . S
C356 N357 1.342 . S
C356 C360 1.401 . S
C356 C361 1.499 . S
N357 Co340 1.989 . S
N357 C356 1.342 . S
N357 N358 1.388 . S
N358 Co341 1.993 . S
N358 N357 1.388 . S
N358 C359 1.346 . S
C359 N358 1.346 . S
C359 C360 1.396 . S
C359 C369 1.510 . S
C360 C356 1.401 . S
C360 C359 1.396 . S
C361 C356 1.499 . S
C361 H362 0.959 . S
C361 H363 0.960 . S
C361 H364 0.961 . S
H362 C361 0.959 . S
H363 C361 0.960 . S
H364 C361 0.961 . S
O365 Co340 1.967 . S
O365 C373 1.258 . S
O366 Co341 1.941 . S
O366 C373 1.266 . S
H367 C369 0.959 . S
H368 C369 0.961 . S
C369 C359 1.510 . S
C369 H367 0.959 . S
C369 H368 0.961 . S
C369 H370 0.960 . S
H370 C369 0.960 . S
H371 N351 0.862 . S
O372 Co340 1.920 . S
O372 C345 1.289 . S
C373 O365 1.258 . S
C373 O366 1.266 . S
Co374 O377 1.970 . S
Co374 N391 1.989 . S
Co374 O399 1.967 . S
Co374 O406 1.920 . S
Co375 O378 1.966 . S
Co375 N384 2.022 . S
Co375 N392 1.993 . S
Co375 O400 1.941 . S
C376 O377 1.258 . S
C376 O378 1.263 . S
O377 Co374 1.970 . S
O377 C376 1.258 . S
O378 Co375 1.966 . S
O378 C376 1.263 . S
C379 O380 1.235 . S
C379 O406 1.289 . S
O380 C379 1.235 . S
C381 C383 1.400 1_545 S
C381 N384 1.351 . S
C381 C386 1.501 1_545 S
C382 C383 1.387 . S
C382 N385 1.341 1_565 S
C383 C381 1.400 1_565 S
C383 C382 1.387 . S
N384 Co375 2.022 . S
N384 C381 1.351 . S
N384 N385 1.365 . S
N385 C382 1.341 1_545 S
N385 N384 1.365 . S
N385 H405 0.862 . S
C386 C381 1.501 1_565 S
C386 H387 0.961 1_565 S
C386 H388 0.961 1_565 S
C386 H389 0.960 . S
H387 C386 0.961 1_545 S
H388 C386 0.961 1_545 S
H389 C386 0.960 . S
C390 N391 1.342 . S
C390 C394 1.401 . S
C390 C395 1.499 . S
N391 Co374 1.989 . S
N391 C390 1.342 . S
N391 N392 1.388 . S
N392 Co375 1.993 . S
N392 N391 1.388 . S
N392 C393 1.346 . S
C393 N392 1.346 . S
C393 C394 1.396 . S
C393 C403 1.510 . S
C394 C390 1.401 . S
C394 C393 1.396 . S
C395 C390 1.499 . S
C395 H396 0.959 . S
C395 H397 0.960 . S
C395 H398 0.961 . S
H396 C395 0.959 . S
H397 C395 0.960 . S
H398 C395 0.961 . S
O399 Co374 1.967 . S
O399 C407 1.258 . S
O400 Co375 1.941 . S
O400 C407 1.266 . S
H401 C403 0.959 . S
H402 C403 0.961 . S
C403 C393 1.510 . S
C403 H401 0.959 . S
C403 H402 0.961 . S
C403 H404 0.960 . S
H404 C403 0.960 . S
H405 N385 0.862 . S
O406 Co374 1.920 . S
O406 C379 1.289 . S
C407 O399 1.258 . S
C407 O400 1.266 . S
Co408 O411 1.970 . S
Co408 N425 1.989 . S
Co408 O433 1.967 . S
Co408 O440 1.920 . S
Co409 O412 1.966 . S
Co409 N418 2.022 . S
Co409 N426 1.993 . S
Co409 O434 1.941 . S
C410 O411 1.258 . S
C410 O412 1.263 . S
O411 Co408 1.970 . S
O411 C410 1.258 . S
O412 Co409 1.966 . S
O412 C410 1.263 . S
C413 O414 1.235 . S
C413 O440 1.289 . S
O414 C413 1.235 . S
C415 C417 1.400 . S
C415 N418 1.351 1_545 S
C415 C420 1.501 . S
C416 C417 1.387 . S
C416 N419 1.341 1_545 S
C417 C415 1.400 . S
C417 C416 1.387 . S
N418 Co409 2.022 . S
N418 C415 1.351 1_565 S
N418 N419 1.365 . S
N419 C416 1.341 1_565 S
N419 N418 1.365 . S
N419 H439 0.862 . S
C420 C415 1.501 . S
C420 H421 0.961 1_545 S
C420 H422 0.961 1_545 S
C420 H423 0.960 . S
H421 C420 0.961 1_565 S
H422 C420 0.961 1_565 S
H423 C420 0.960 . S
C424 N425 1.342 . S
C424 C428 1.401 . S
C424 C429 1.499 . S
N425 Co408 1.989 . S
N425 C424 1.342 . S
N425 N426 1.388 . S
N426 Co409 1.993 . S
N426 N425 1.388 . S
N426 C427 1.346 . S
C427 N426 1.346 . S
C427 C428 1.396 . S
C427 C437 1.510 . S
C428 C424 1.401 . S
C428 C427 1.396 . S
C429 C424 1.499 . S
C429 H430 0.959 . S
C429 H431 0.960 . S
C429 H432 0.961 . S
H430 C429 0.959 . S
H431 C429 0.960 . S
H432 C429 0.961 . S
O433 Co408 1.967 . S
O433 C441 1.258 . S
O434 Co409 1.941 . S
O434 C441 1.266 . S
H435 C437 0.959 . S
H436 C437 0.961 . S
C437 C427 1.510 . S
C437 H435 0.959 . S
C437 H436 0.961 . S
C437 H438 0.960 . S
H438 C437 0.960 . S
H439 N419 0.862 . S
O440 Co408 1.920 . S
O440 C413 1.289 . S
C441 O433 1.258 . S
C441 O434 1.266 . S
Co442 O445 1.970 . S
Co442 N459 1.989 . S
Co442 O467 1.967 . S
Co442 O474 1.920 . S
Co443 O446 1.966 . S
Co443 N452 2.022 . S
Co443 N460 1.993 . S
Co443 O468 1.941 . S
C444 O445 1.258 . S
C444 O446 1.263 . S
O445 Co442 1.970 . S
O445 C444 1.258 . S
O446 Co443 1.966 . S
O446 C444 1.263 . S
C447 O448 1.235 . S
C447 O474 1.289 . S
O448 C447 1.235 . S
C449 C451 1.400 1_455 S
C449 N452 1.351 . S
C449 C454 1.501 1_455 S
C450 C451 1.387 . S
C450 N453 1.341 1_655 S
C451 C449 1.400 1_655 S
C451 C450 1.387 . S
N452 Co443 2.022 . S
N452 C449 1.351 . S
N452 N453 1.365 . S
N453 C450 1.341 1_455 S
N453 N452 1.365 . S
N453 H473 0.862 . S
C454 C449 1.501 1_655 S
C454 H455 0.961 1_655 S
C454 H456 0.961 1_655 S
C454 H457 0.960 . S
H455 C454 0.961 1_455 S
H456 C454 0.961 1_455 S
H457 C454 0.960 . S
C458 N459 1.342 . S
C458 C462 1.401 . S
C458 C463 1.499 . S
N459 Co442 1.989 . S
N459 C458 1.342 . S
N459 N460 1.388 . S
N460 Co443 1.993 . S
N460 N459 1.388 . S
N460 C461 1.346 . S
C461 N460 1.346 . S
C461 C462 1.396 . S
C461 C471 1.510 . S
C462 C458 1.401 . S
C462 C461 1.396 . S
C463 C458 1.499 . S
C463 H464 0.959 . S
C463 H465 0.960 . S
C463 H466 0.961 . S
H464 C463 0.959 . S
H465 C463 0.960 . S
H466 C463 0.961 . S
O467 Co442 1.967 . S
O467 C475 1.258 . S
O468 Co443 1.941 . S
O468 C475 1.266 . S
H469 C471 0.959 . S
H470 C471 0.961 . S
C471 C461 1.510 . S
C471 H469 0.959 . S
C471 H470 0.961 . S
C471 H472 0.960 . S
H472 C471 0.960 . S
H473 N453 0.862 . S
O474 Co442 1.920 . S
O474 C447 1.289 . S
C475 O467 1.258 . S
C475 O468 1.266 . S
Co476 O479 1.970 . S
Co476 N493 1.989 . S
Co476 O501 1.967 . S
Co476 O508 1.920 . S
Co477 O480 1.966 . S
Co477 N486 2.022 . S
Co477 N494 1.993 . S
Co477 O502 1.941 . S
C478 O479 1.258 . S
C478 O480 1.263 . S
O479 Co476 1.970 . S
O479 C478 1.258 . S
O480 Co477 1.966 . S
O480 C478 1.263 . S
C481 O482 1.235 . S
C481 O508 1.289 . S
O482 C481 1.235 . S
C483 C485 1.400 . S
C483 N486 1.351 . S
C483 C488 1.501 . S
C484 C485 1.387 . S
C484 N487 1.341 . S
C485 C483 1.400 . S
C485 C484 1.387 . S
N486 Co477 2.022 . S
N486 C483 1.351 . S
N486 N487 1.365 . S
N487 C484 1.341 . S
N487 N486 1.365 . S
N487 H507 0.862 . S
C488 C483 1.501 . S
C488 H489 0.961 . S
C488 H490 0.961 . S
C488 H491 0.960 . S
H489 C488 0.961 . S
H490 C488 0.961 . S
H491 C488 0.960 . S
C492 N493 1.342 . S
C492 C496 1.401 . S
C492 C497 1.499 . S
N493 Co476 1.989 . S
N493 C492 1.342 . S
N493 N494 1.388 . S
N494 Co477 1.993 . S
N494 N493 1.388 . S
N494 C495 1.346 . S
C495 N494 1.346 . S
C495 C496 1.396 . S
C495 C505 1.510 . S
C496 C492 1.401 . S
C496 C495 1.396 . S
C497 C492 1.499 . S
C497 H498 0.959 . S
C497 H499 0.960 . S
C497 H500 0.961 . S
H498 C497 0.959 . S
H499 C497 0.960 . S
H500 C497 0.961 . S
O501 Co476 1.967 . S
O501 C509 1.258 . S
O502 Co477 1.941 . S
O502 C509 1.266 . S
H503 C505 0.959 . S
H504 C505 0.961 . S
C505 C495 1.510 . S
C505 H503 0.959 . S
C505 H504 0.961 . S
C505 H506 0.960 . S
H506 C505 0.960 . S
H507 N487 0.862 . S
O508 Co476 1.920 . S
O508 C481 1.289 . S
C509 O501 1.258 . S
C509 O502 1.266 . S
Co510 O513 1.970 . S
Co510 N527 1.989 . S
Co510 O535 1.967 . S
Co510 O542 1.920 . S
Co511 O514 1.966 . S
Co511 N520 2.022 . S
Co511 N528 1.993 . S
Co511 O536 1.941 . S
C512 O513 1.258 . S
C512 O514 1.263 . S
O513 Co510 1.970 . S
O513 C512 1.258 . S
O514 Co511 1.966 . S
O514 C512 1.263 . S
C515 O516 1.235 . S
C515 O542 1.289 . S
O516 C515 1.235 . S
C517 C519 1.400 . S
C517 N520 1.351 . S
C517 C522 1.501 . S
C518 C519 1.387 . S
C518 N521 1.341 . S
C519 C517 1.400 . S
C519 C518 1.387 . S
N520 Co511 2.022 . S
N520 C517 1.351 . S
N520 N521 1.365 . S
N521 C518 1.341 . S
N521 N520 1.365 . S
N521 H541 0.862 . S
C522 C517 1.501 . S
C522 H523 0.961 . S
C522 H524 0.961 . S
C522 H525 0.960 . S
H523 C522 0.961 . S
H524 C522 0.961 . S
H525 C522 0.960 . S
C526 N527 1.342 . S
C526 C530 1.401 . S
C526 C531 1.499 . S
N527 Co510 1.989 . S
N527 C526 1.342 . S
N527 N528 1.388 . S
N528 Co511 1.993 . S
N528 N527 1.388 . S
N528 C529 1.346 . S
C529 N528 1.346 . S
C529 C530 1.396 . S
C529 C539 1.510 . S
C530 C526 1.401 . S
C530 C529 1.396 . S
C531 C526 1.499 . S
C531 H532 0.959 . S
C531 H533 0.960 . S
C531 H534 0.961 . S
H532 C531 0.959 . S
H533 C531 0.960 . S
H534 C531 0.961 . S
O535 Co510 1.967 . S
O535 C543 1.258 . S
O536 Co511 1.941 . S
O536 C543 1.266 . S
H537 C539 0.959 . S
H538 C539 0.961 . S
C539 C529 1.510 . S
C539 H537 0.959 . S
C539 H538 0.961 . S
C539 H540 0.960 . S
H540 C539 0.960 . S
H541 N521 0.862 . S
O542 Co510 1.920 . S
O542 C515 1.289 . S
C543 O535 1.258 . S
C543 O536 1.266 . S
Co544 O547 1.970 . S
Co544 N561 1.989 . S
Co544 O569 1.967 . S
Co544 O576 1.920 . S
Co545 O548 1.966 . S
Co545 N554 2.022 . S
Co545 N562 1.993 . S
Co545 O570 1.941 . S
C546 O547 1.258 . S
C546 O548 1.263 . S
O547 Co544 1.970 . S
O547 C546 1.258 . S
O548 Co545 1.966 . S
O548 C546 1.263 . S
C549 O550 1.235 . S
C549 O576 1.289 . S
O550 C549 1.235 . S
C551 C553 1.400 . S
C551 N554 1.351 . S
C551 C556 1.501 . S
C552 C553 1.387 . S
C552 N555 1.341 . S
C553 C551 1.400 . S
C553 C552 1.387 . S
N554 Co545 2.022 . S
N554 C551 1.351 . S
N554 N555 1.365 . S
N555 C552 1.341 . S
N555 N554 1.365 . S
N555 H575 0.862 . S
C556 C551 1.501 . S
C556 H557 0.961 . S
C556 H558 0.961 . S
C556 H559 0.960 . S
H557 C556 0.961 . S
H558 C556 0.961 . S
H559 C556 0.960 . S
C560 N561 1.342 . S
C560 C564 1.401 . S
C560 C565 1.499 . S
N561 Co544 1.989 . S
N561 C560 1.342 . S
N561 N562 1.388 . S
N562 Co545 1.993 . S
N562 N561 1.388 . S
N562 C563 1.346 . S
C563 N562 1.346 . S
C563 C564 1.396 . S
C563 C573 1.510 . S
C564 C560 1.401 . S
C564 C563 1.396 . S
C565 C560 1.499 . S
C565 H566 0.959 . S
C565 H567 0.960 . S
C565 H568 0.961 . S
H566 C565 0.959 . S
H567 C565 0.960 . S
H568 C565 0.961 . S
O569 Co544 1.967 . S
O569 C577 1.258 . S
O570 Co545 1.941 . S
O570 C577 1.266 . S
H571 C573 0.959 . S
H572 C573 0.961 . S
C573 C563 1.510 . S
C573 H571 0.959 . S
C573 H572 0.961 . S
C573 H574 0.960 . S
H574 C573 0.960 . S
H575 N555 0.862 . S
O576 Co544 1.920 . S
O576 C549 1.289 . S
C577 O569 1.258 . S
C577 O570 1.266 . S
Co578 O581 1.970 . S
Co578 N595 1.989 . S
Co578 O603 1.967 . S
Co578 O610 1.920 . S
Co579 O582 1.966 . S
Co579 N588 2.022 . S
Co579 N596 1.993 . S
Co579 O604 1.941 . S
C580 O581 1.258 . S
C580 O582 1.263 . S
O581 Co578 1.970 . S
O581 C580 1.258 . S
O582 Co579 1.966 . S
O582 C580 1.263 . S
C583 O584 1.235 . S
C583 O610 1.289 . S
O584 C583 1.235 . S
C585 C587 1.400 . S
C585 N588 1.351 . S
C585 C590 1.501 . S
C586 C587 1.387 . S
C586 N589 1.341 . S
C587 C585 1.400 . S
C587 C586 1.387 . S
N588 Co579 2.022 . S
N588 C585 1.351 . S
N588 N589 1.365 . S
N589 C586 1.341 . S
N589 N588 1.365 . S
N589 H609 0.862 . S
C590 C585 1.501 . S
C590 H591 0.961 . S
C590 H592 0.961 . S
C590 H593 0.960 . S
H591 C590 0.961 . S
H592 C590 0.961 . S
H593 C590 0.960 . S
C594 N595 1.342 . S
C594 C598 1.401 . S
C594 C599 1.499 . S
N595 Co578 1.989 . S
N595 C594 1.342 . S
N595 N596 1.388 . S
N596 Co579 1.993 . S
N596 N595 1.388 . S
N596 C597 1.346 . S
C597 N596 1.346 . S
C597 C598 1.396 . S
C597 C607 1.510 . S
C598 C594 1.401 . S
C598 C597 1.396 . S
C599 C594 1.499 . S
C599 H600 0.959 . S
C599 H601 0.960 . S
C599 H602 0.961 . S
H600 C599 0.959 . S
H601 C599 0.960 . S
H602 C599 0.961 . S
O603 Co578 1.967 . S
O603 C611 1.258 . S
O604 Co579 1.941 . S
O604 C611 1.266 . S
H605 C607 0.959 . S
H606 C607 0.961 . S
C607 C597 1.510 . S
C607 H605 0.959 . S
C607 H606 0.961 . S
C607 H608 0.960 . S
H608 C607 0.960 . S
H609 N589 0.862 . S
O610 Co578 1.920 . S
O610 C583 1.289 . S
C611 O603 1.258 . S
C611 O604 1.266 . S
C612 C613 1.391 . S
C612 C614 1.394 . S
C612 H628 0.931 . S
C613 C612 1.391 . S
C613 C617 1.376 . S
C614 C612 1.394 . S
C614 C615 1.369 . S
C614 C618 1.531 . S
C615 C614 1.369 . S
C615 C616 1.410 . S
C615 C623 1.503 . S
C616 C615 1.410 . S
C616 C617 1.392 . S
C616 C619 1.511 . S
C617 C613 1.376 . S
C617 C616 1.392 . S
C617 H629 0.929 . S
C618 C614 1.531 . S
C618 H630 0.960 . S
C618 H631 0.962 . S
C618 H632 0.960 . S
C619 C616 1.511 . S
C619 H633 0.961 . S
C619 H634 0.961 . S
C619 H635 0.961 . S
C620 C621 1.370 . S
C620 C622 1.363 . S
C620 H636 0.931 . S
C621 C620 1.370 . S
C621 C625 1.408 . S
C622 C620 1.363 . S
C622 C623 1.370 . S
C622 C626 1.524 . S
C623 C615 1.503 . S
C623 C622 1.370 . S
C623 C624 1.403 . S
C624 C623 1.403 . S
C624 C625 1.404 . S
C624 C627 1.539 . S
C625 C621 1.408 . S
C625 C624 1.404 . S
C625 H637 0.930 . S
C626 C622 1.524 . S
C626 H638 0.956 . S
C626 H639 0.961 . S
C626 H640 0.961 . S
C627 C624 1.539 . S
C627 H641 0.958 . S
C627 H642 0.961 . S
C627 H643 0.960 . S
H628 C612 0.931 . S
H629 C617 0.929 . S
H630 C618 0.960 . S
H631 C618 0.962 . S
H632 C618 0.960 . S
H633 C619 0.961 . S
H634 C619 0.961 . S
H635 C619 0.961 . S
H636 C620 0.931 . S
H637 C625 0.930 . S
H638 C626 0.956 . S
H639 C626 0.961 . S
H640 C626 0.961 . S
H641 C627 0.958 . S
H642 C627 0.961 . S
H643 C627 0.960 . S
C644 C645 1.391 . S
C644 C646 1.394 . S
C644 H660 0.931 . S
C645 C644 1.391 . S
C645 C649 1.376 . S
C646 C644 1.394 . S
C646 C647 1.369 . S
C646 C650 1.531 . S
C647 C646 1.369 . S
C647 C648 1.410 . S
C647 C655 1.503 . S
C648 C647 1.410 . S
C648 C649 1.392 . S
C648 C651 1.511 . S
C649 C645 1.376 . S
C649 C648 1.392 . S
C649 H661 0.929 . S
C650 C646 1.531 . S
C650 H662 0.960 . S
C650 H663 0.962 . S
C650 H664 0.960 . S
C651 C648 1.511 . S
C651 H665 0.961 . S
C651 H666 0.961 . S
C651 H667 0.961 . S
C652 C653 1.370 . S
C652 C654 1.363 . S
C652 H668 0.931 . S
C653 C652 1.370 . S
C653 C657 1.408 . S
C654 C652 1.363 . S
C654 C655 1.370 . S
C654 C658 1.524 . S
C655 C647 1.503 . S
C655 C654 1.370 . S
C655 C656 1.403 . S
C656 C655 1.403 . S
C656 C657 1.404 . S
C656 C659 1.539 1_565 S
C657 C653 1.408 . S
C657 C656 1.404 . S
C657 H669 0.930 1_565 S
C658 C654 1.524 . S
C658 H670 0.956 . S
C658 H671 0.961 . S
C658 H672 0.961 . S
C659 C656 1.539 1_545 S
C659 H673 0.958 . S
C659 H674 0.961 . S
C659 H675 0.960 1_545 S
H660 C644 0.931 . S
H661 C649 0.929 . S
H662 C650 0.960 . S
H663 C650 0.962 . S
H664 C650 0.960 . S
H665 C651 0.961 . S
H666 C651 0.961 . S
H667 C651 0.961 . S
H668 C652 0.931 . S
H669 C657 0.930 1_545 S
H670 C658 0.956 . S
H671 C658 0.961 . S
H672 C658 0.961 . S
H673 C659 0.958 . S
H674 C659 0.961 . S
H675 C659 0.960 1_565 S
C676 C677 1.391 . S
C676 C678 1.394 . S
C676 H692 0.931 . S
C677 C676 1.391 . S
C677 C681 1.376 . S
C678 C676 1.394 . S
C678 C679 1.369 . S
C678 C682 1.531 . S
C679 C678 1.369 . S
C679 C680 1.410 . S
C679 C687 1.503 . S
C680 C679 1.410 . S
C680 C681 1.392 . S
C680 C683 1.511 . S
C681 C677 1.376 . S
C681 C680 1.392 . S
C681 H693 0.929 . S
C682 C678 1.531 . S
C682 H694 0.960 . S
C682 H695 0.962 . S
C682 H696 0.960 . S
C683 C680 1.511 . S
C683 H697 0.961 . S
C683 H698 0.961 . S
C683 H699 0.961 . S
C684 C685 1.370 . S
C684 C686 1.363 . S
C684 H700 0.931 . S
C685 C684 1.370 . S
C685 C689 1.408 . S
C686 C684 1.363 . S
C686 C687 1.370 . S
C686 C690 1.524 . S
C687 C679 1.503 . S
C687 C686 1.370 . S
C687 C688 1.403 . S
C688 C687 1.403 . S
C688 C689 1.404 . S
C688 C691 1.539 . S
C689 C685 1.408 . S
C689 C688 1.404 . S
C689 H701 0.930 . S
C690 C686 1.524 . S
C690 H702 0.956 . S
C690 H703 0.961 . S
C690 H704 0.961 . S
C691 C688 1.539 . S
C691 H705 0.958 . S
C691 H706 0.961 . S
C691 H707 0.960 . S
H692 C676 0.931 . S
H693 C681 0.929 . S
H694 C682 0.960 . S
H695 C682 0.962 . S
H696 C682 0.960 . S
H697 C683 0.961 . S
H698 C683 0.961 . S
H699 C683 0.961 . S
H700 C684 0.931 . S
H701 C689 0.930 . S
H702 C690 0.956 . S
H703 C690 0.961 . S
H704 C690 0.961 . S
H705 C691 0.958 . S
H706 C691 0.961 . S
H707 C691 0.960 . S
C708 C709 1.391 . S
C708 C710 1.394 . S
C708 H724 0.931 . S
C709 C708 1.391 . S
C709 C713 1.376 . S
C710 C708 1.394 . S
C710 C711 1.369 . S
C710 C714 1.531 . S
C711 C710 1.369 . S
C711 C712 1.410 . S
C711 C719 1.503 . S
C712 C711 1.410 . S
C712 C713 1.392 . S
C712 C715 1.511 . S
C713 C709 1.376 . S
C713 C712 1.392 . S
C713 H725 0.929 . S
C714 C710 1.531 . S
C714 H726 0.960 . S
C714 H727 0.962 . S
C714 H728 0.960 . S
C715 C712 1.511 . S
C715 H729 0.961 . S
C715 H730 0.961 . S
C715 H731 0.961 . S
C716 C717 1.370 . S
C716 C718 1.363 . S
C716 H732 0.931 . S
C717 C716 1.370 . S
C717 C721 1.408 . S
C718 C716 1.363 . S
C718 C719 1.370 . S
C718 C722 1.524 . S
C719 C711 1.503 . S
C719 C718 1.370 . S
C719 C720 1.403 . S
C720 C719 1.403 . S
C720 C721 1.404 . S
C720 C723 1.539 . S
C721 C717 1.408 . S
C721 C720 1.404 . S
C721 H733 0.930 . S
C722 C718 1.524 . S
C722 H734 0.956 . S
C722 H735 0.961 . S
C722 H736 0.961 . S
C723 C720 1.539 . S
C723 H737 0.958 . S
C723 H738 0.961 . S
C723 H739 0.960 . S
H724 C708 0.931 . S
H725 C713 0.929 . S
H726 C714 0.960 . S
H727 C714 0.962 . S
H728 C714 0.960 . S
H729 C715 0.961 . S
H730 C715 0.961 . S
H731 C715 0.961 . S
H732 C716 0.931 . S
H733 C721 0.930 . S
H734 C722 0.956 . S
H735 C722 0.961 . S
H736 C722 0.961 . S
H737 C723 0.958 . S
H738 C723 0.961 . S
H739 C723 0.960 . S
C740 C741 1.391 . S
C740 C742 1.394 . S
C740 H756 0.931 . S
C741 C740 1.391 . S
C741 C745 1.376 . S
C742 C740 1.394 . S
C742 C743 1.369 . S
C742 C746 1.531 . S
C743 C742 1.369 . S
C743 C744 1.410 . S
C743 C751 1.503 . S
C744 C743 1.410 . S
C744 C745 1.392 . S
C744 C747 1.511 . S
C745 C741 1.376 . S
C745 C744 1.392 . S
C745 H757 0.929 . S
C746 C742 1.531 . S
C746 H758 0.960 . S
C746 H759 0.962 . S
C746 H760 0.960 . S
C747 C744 1.511 . S
C747 H761 0.961 . S
C747 H762 0.961 . S
C747 H763 0.961 . S
C748 C749 1.370 . S
C748 C750 1.363 . S
C748 H764 0.931 . S
C749 C748 1.370 . S
C749 C753 1.408 . S
C750 C748 1.363 . S
C750 C751 1.370 . S
C750 C754 1.524 . S
C751 C743 1.503 . S
C751 C750 1.370 . S
C751 C752 1.403 . S
C752 C751 1.403 . S
C752 C753 1.404 . S
C752 C755 1.539 . S
C753 C749 1.408 . S
C753 C752 1.404 . S
C753 H765 0.930 . S
C754 C750 1.524 . S
C754 H766 0.956 . S
C754 H767 0.961 . S
C754 H768 0.961 . S
C755 C752 1.539 . S
C755 H769 0.958 . S
C755 H770 0.961 . S
C755 H771 0.960 . S
H756 C740 0.931 . S
H757 C745 0.929 . S
H758 C746 0.960 . S
H759 C746 0.962 . S
H760 C746 0.960 . S
H761 C747 0.961 . S
H762 C747 0.961 . S
H763 C747 0.961 . S
H764 C748 0.931 . S
H765 C753 0.930 . S
H766 C754 0.956 . S
H767 C754 0.961 . S
H768 C754 0.961 . S
H769 C755 0.958 . S
H770 C755 0.961 . S
H771 C755 0.960 . S
C772 C773 1.391 . S
C772 C774 1.394 . S
C772 H788 0.931 . S
C773 C772 1.391 . S
C773 C777 1.376 . S
C774 C772 1.394 . S
C774 C775 1.369 . S
C774 C778 1.531 . S
C775 C774 1.369 . S
C775 C776 1.410 . S
C775 C783 1.503 . S
C776 C775 1.410 . S
C776 C777 1.392 . S
C776 C779 1.511 . S
C777 C773 1.376 . S
C777 C776 1.392 . S
C777 H789 0.929 . S
C778 C774 1.531 . S
C778 H790 0.960 . S
C778 H791 0.962 . S
C778 H792 0.960 . S
C779 C776 1.511 . S
C779 H793 0.961 . S
C779 H794 0.961 . S
C779 H795 0.961 . S
C780 C781 1.370 . S
C780 C782 1.363 . S
C780 H796 0.931 . S
C781 C780 1.370 . S
C781 C785 1.408 . S
C782 C780 1.363 . S
C782 C783 1.370 . S
C782 C786 1.524 . S
C783 C775 1.503 . S
C783 C782 1.370 . S
C783 C784 1.403 . S
C784 C783 1.403 . S
C784 C785 1.404 . S
C784 C787 1.539 . S
C785 C781 1.408 . S
C785 C784 1.404 . S
C785 H797 0.930 . S
C786 C782 1.524 . S
C786 H798 0.956 . S
C786 H799 0.961 . S
C786 H800 0.961 . S
C787 C784 1.539 . S
C787 H801 0.958 . S
C787 H802 0.961 . S
C787 H803 0.960 . S
H788 C772 0.931 . S
H789 C777 0.929 . S
H790 C778 0.960 . S
H791 C778 0.962 . S
H792 C778 0.960 . S
H793 C779 0.961 . S
H794 C779 0.961 . S
H795 C779 0.961 . S
H796 C780 0.931 . S
H797 C785 0.930 . S
H798 C786 0.956 . S
H799 C786 0.961 . S
H800 C786 0.961 . S
H801 C787 0.958 . S
H802 C787 0.961 . S
H803 C787 0.960 . S
C804 C805 1.391 . S
C804 C806 1.394 . S
C804 H820 0.931 . S
C805 C804 1.391 . S
C805 C809 1.376 . S
C806 C804 1.394 . S
C806 C807 1.369 . S
C806 C810 1.531 . S
C807 C806 1.369 . S
C807 C808 1.410 . S
C807 C815 1.503 . S
C808 C807 1.410 . S
C808 C809 1.392 . S
C808 C811 1.511 . S
C809 C805 1.376 . S
C809 C808 1.392 . S
C809 H821 0.929 . S
C810 C806 1.531 . S
C810 H822 0.960 . S
C810 H823 0.962 . S
C810 H824 0.960 . S
C811 C808 1.511 . S
C811 H825 0.961 . S
C811 H826 0.961 . S
C811 H827 0.961 . S
C812 C813 1.370 . S
C812 C814 1.363 . S
C812 H828 0.931 . S
C813 C812 1.370 . S
C813 C817 1.408 . S
C814 C812 1.363 . S
C814 C815 1.370 . S
C814 C818 1.524 . S
C815 C807 1.503 . S
C815 C814 1.370 . S
C815 C816 1.403 . S
C816 C815 1.403 . S
C816 C817 1.404 . S
C816 C819 1.539 . S
C817 C813 1.408 . S
C817 C816 1.404 . S
C817 H829 0.930 . S
C818 C814 1.524 . S
C818 H830 0.956 . S
C818 H831 0.961 . S
C818 H832 0.961 . S
C819 C816 1.539 . S
C819 H833 0.958 . S
C819 H834 0.961 . S
C819 H835 0.960 . S
H820 C804 0.931 . S
H821 C809 0.929 . S
H822 C810 0.960 . S
H823 C810 0.962 . S
H824 C810 0.960 . S
H825 C811 0.961 . S
H826 C811 0.961 . S
H827 C811 0.961 . S
H828 C812 0.931 . S
H829 C817 0.930 . S
H830 C818 0.956 . S
H831 C818 0.961 . S
H832 C818 0.961 . S
H833 C819 0.958 . S
H834 C819 0.961 . S
H835 C819 0.960 . S
C836 C837 1.391 . S
C836 C838 1.394 . S
C836 H852 0.931 . S
C837 C836 1.391 . S
C837 C841 1.376 . S
C838 C836 1.394 . S
C838 C839 1.369 1_565 S
C838 C842 1.531 . S
C839 C838 1.369 1_545 S
C839 C840 1.410 . S
C839 C847 1.503 . S
C840 C839 1.410 . S
C840 C841 1.392 1_545 S
C840 C843 1.511 . S
C841 C837 1.376 . S
C841 C840 1.392 1_565 S
C841 H853 0.931 . S
C842 C838 1.531 . S
C842 H854 0.960 . S
C842 H855 0.962 . S
C842 H856 0.960 . S
C843 C840 1.511 . S
C843 H857 0.961 . S
C843 H858 0.961 . S
C843 H859 0.961 . S
C844 C845 1.370 . S
C844 C846 1.363 . S
C844 H860 0.931 . S
C845 C844 1.370 . S
C845 C849 1.408 . S
C846 C844 1.363 . S
C846 C847 1.370 . S
C846 C850 1.524 . S
C847 C839 1.503 . S
C847 C846 1.370 . S
C847 C848 1.403 . S
C848 C847 1.403 . S
C848 C849 1.404 . S
C848 C851 1.539 1_545 S
C849 C845 1.408 . S
C849 C848 1.404 . S
C849 H861 0.930 . S
C850 C846 1.524 . S
C850 H862 0.956 . S
C850 H863 0.961 . S
C850 H864 0.961 . S
C851 C848 1.539 1_565 S
C851 H865 0.958 . S
C851 H866 0.961 . S
C851 H867 0.960 . S
H852 C836 0.931 . S
H853 C841 0.931 . S
H854 C842 0.960 . S
H855 C842 0.962 . S
H856 C842 0.960 . S
H857 C843 0.961 . S
H858 C843 0.961 . S
H859 C843 0.961 . S
H860 C844 0.931 . S
H861 C849 0.930 . S
H862 C850 0.956 . S
H863 C850 0.961 . S
H864 C850 0.961 . S
H865 C851 0.958 . S
H866 C851 0.961 . S
H867 C851 0.960 . S
C868 C869 1.391 . S
C868 C870 1.394 . S
C868 H884 0.931 . S
C869 C868 1.391 . S
C869 C873 1.376 1_455 S
C870 C868 1.394 . S
C870 C871 1.369 1_455 S
C870 C874 1.531 . S
C871 C870 1.369 1_655 S
C871 C872 1.410 . S
C871 C879 1.503 . S
C872 C871 1.410 . S
C872 C873 1.392 . S
C872 C875 1.511 . S
C873 C869 1.376 1_655 S
C873 C872 1.392 . S
C873 H885 0.929 . S
C874 C870 1.531 . S
C874 H886 0.960 . S
C874 H887 0.962 . S
C874 H888 0.960 . S
C875 C872 1.511 . S
C875 H889 0.961 . S
C875 H890 0.961 . S
C875 H891 0.961 . S
C876 C877 1.370 . S
C876 C878 1.363 . S
C876 H892 0.931 . S
C877 C876 1.370 . S
C877 C881 1.408 . S
C878 C876 1.363 . S
C878 C879 1.370 . S
C878 C882 1.524 . S
C879 C871 1.503 . S
C879 C878 1.370 . S
C879 C880 1.403 . S
C880 C879 1.403 . S
C880 C881 1.404 . S
C880 C883 1.539 . S
C881 C877 1.408 . S
C881 C880 1.404 . S
C881 H893 0.930 . S
C882 C878 1.524 . S
C882 H894 0.956 1_655 S
C882 H895 0.961 . S
C882 H896 0.961 . S
C883 C880 1.539 . S
C883 H897 0.958 . S
C883 H898 0.961 . S
C883 H899 0.960 . S
H884 C868 0.931 . S
H885 C873 0.929 . S
H886 C874 0.960 . S
H887 C874 0.962 . S
H888 C874 0.960 . S
H889 C875 0.961 . S
H890 C875 0.961 . S
H891 C875 0.961 . S
H892 C876 0.931 . S
H893 C881 0.930 . S
H894 C882 0.956 1_455 S
H895 C882 0.961 . S
H896 C882 0.961 . S
H897 C883 0.958 . S
H898 C883 0.961 . S
H899 C883 0.960 . S
C900 C901 1.391 . S
C900 C902 1.394 . S
C900 H916 0.931 . S
C901 C900 1.391 . S
C901 C905 1.376 . S
C902 C900 1.394 . S
C902 C903 1.369 . S
C902 C906 1.531 . S
C903 C902 1.369 . S
C903 C904 1.410 . S
C903 C911 1.503 . S
C904 C903 1.410 . S
C904 C905 1.392 . S
C904 C907 1.511 . S
C905 C901 1.376 . S
C905 C904 1.392 . S
C905 H917 0.929 . S
C906 C902 1.531 . S
C906 H918 0.960 . S
C906 H919 0.962 . S
C906 H920 0.960 . S
C907 C904 1.511 . S
C907 H921 0.961 . S
C907 H922 0.961 . S
C907 H923 0.961 . S
C908 C909 1.370 . S
C908 C910 1.363 . S
C908 H924 0.931 . S
C909 C908 1.370 . S
C909 C913 1.408 . S
C910 C908 1.363 . S
C910 C911 1.370 . S
C910 C914 1.524 . S
C911 C903 1.503 . S
C911 C910 1.370 . S
C911 C912 1.403 . S
C912 C911 1.403 . S
C912 C913 1.404 . S
C912 C915 1.539 . S
C913 C909 1.408 . S
C913 C912 1.404 . S
C913 H925 0.930 . S
C914 C910 1.524 . S
C914 H926 0.956 . S
C914 H927 0.961 . S
C914 H928 0.961 . S
C915 C912 1.539 . S
C915 H929 0.958 . S
C915 H930 0.961 . S
C915 H931 0.960 . S
H916 C900 0.931 . S
H917 C905 0.929 . S
H918 C906 0.960 . S
H919 C906 0.962 . S
H920 C906 0.960 . S
H921 C907 0.961 . S
H922 C907 0.961 . S
H923 C907 0.961 . S
H924 C908 0.931 . S
H925 C913 0.930 . S
H926 C914 0.956 . S
H927 C914 0.961 . S
H928 C914 0.961 . S
H929 C915 0.958 . S
H930 C915 0.961 . S
H931 C915 0.960 . S
C932 C933 1.391 . S
C932 C934 1.394 . S
C932 H948 0.931 . S
C933 C932 1.391 . S
C933 C937 1.376 . S
C934 C932 1.394 . S
C934 C935 1.369 . S
C934 C938 1.531 . S
C935 C934 1.369 . S
C935 C936 1.410 . S
C935 C943 1.503 . S
C936 C935 1.410 . S
C936 C937 1.392 . S
C936 C939 1.511 1_565 S
C937 C933 1.376 . S
C937 C936 1.392 . S
C937 H949 0.929 . S
C938 C934 1.531 . S
C938 H950 0.960 . S
C938 H951 0.962 . S
C938 H952 0.960 . S
C939 C936 1.511 1_545 S
C939 H953 0.961 . S
C939 H954 0.961 . S
C939 H955 0.961 . S
C940 C941 1.370 1_565 S
C940 C942 1.363 . S
C940 H956 0.931 . S
C941 C940 1.370 1_545 S
C941 C945 1.408 . S
C942 C940 1.363 . S
C942 C943 1.370 . S
C942 C946 1.524 . S
C943 C935 1.503 . S
C943 C942 1.370 . S
C943 C944 1.403 1_565 S
C944 C943 1.403 1_545 S
C944 C945 1.404 . S
C944 C947 1.539 . S
C945 C941 1.408 . S
C945 C944 1.404 . S
C945 H957 0.930 . S
C946 C942 1.524 . S
C946 H958 0.956 . S
C946 H959 0.961 . S
C946 H960 0.961 . S
C947 C944 1.539 . S
C947 H961 0.958 . S
C947 H962 0.961 . S
C947 H963 0.960 . S
H948 C932 0.931 . S
H949 C937 0.929 . S
H950 C938 0.960 . S
H951 C938 0.962 . S
H952 C938 0.960 . S
H953 C939 0.961 . S
H954 C939 0.961 . S
H955 C939 0.961 . S
H956 C940 0.931 . S
H957 C945 0.930 . S
H958 C946 0.956 . S
H959 C946 0.961 . S
H960 C946 0.961 . S
H961 C947 0.958 . S
H962 C947 0.961 . S
H963 C947 0.960 . S
C964 C965 1.391 . S
C964 C966 1.394 . S
C964 H980 0.931 . S
C965 C964 1.391 . S
C965 C969 1.376 . S
C966 C964 1.394 . S
C966 C967 1.369 . S
C966 C970 1.531 . S
C967 C966 1.369 . S
C967 C968 1.410 . S
C967 C975 1.503 . S
C968 C967 1.410 . S
C968 C969 1.392 . S
C968 C971 1.511 1_455 S
C969 C965 1.376 . S
C969 C968 1.392 . S
C969 H981 0.929 . S
C970 C966 1.531 . S
C970 H982 0.960 . S
C970 H983 0.962 . S
C970 H984 0.960 . S
C971 C968 1.511 1_655 S
C971 H985 0.961 . S
C971 H986 0.961 . S
C971 H987 0.961 . S
C972 C973 1.370 1_455 S
C972 C974 1.363 . S
C972 H988 0.931 . S
C973 C972 1.370 1_655 S
C973 C977 1.408 . S
C974 C972 1.363 . S
C974 C975 1.370 . S
C974 C978 1.524 . S
C975 C967 1.503 . S
C975 C974 1.370 . S
C975 C976 1.403 1_455 S
C976 C975 1.403 1_655 S
C976 C977 1.404 . S
C976 C979 1.539 . S
C977 C973 1.408 . S
C977 C976 1.404 . S
C977 H989 0.930 . S
C978 C974 1.524 . S
C978 H990 0.956 . S
C978 H991 0.961 . S
C978 H992 0.961 . S
C979 C976 1.539 . S
C979 H993 0.958 . S
C979 H994 0.961 . S
C979 H995 0.960 . S
H980 C964 0.931 . S
H981 C969 0.929 . S
H982 C970 0.960 . S
H983 C970 0.962 . S
H984 C970 0.960 . S
H985 C971 0.961 . S
H986 C971 0.961 . S
H987 C971 0.961 . S
H988 C972 0.931 . S
H989 C977 0.930 . S
H990 C978 0.956 . S
H991 C978 0.961 . S
H992 C978 0.961 . S
H993 C979 0.958 . S
H994 C979 0.961 . S
H995 C979 0.960 . S
C996 C997 1.391 . S
C996 C998 1.394 . S
C996 H1012 0.931 . S
C997 C996 1.391 . S
C997 C1001 1.376 . S
C998 C996 1.394 . S
C998 C999 1.369 . S
C998 C1002 1.531 . S
C999 C998 1.369 . S
C999 C1000 1.410 . S
C999 C1007 1.503 1_455 S
C1000 C999 1.410 . S
C1000 C1001 1.392 . S
C1000 C1003 1.511 . S
C1001 C997 1.376 . S
C1001 C1000 1.392 . S
C1001 H1013 0.929 . S
C1002 C998 1.531 . S
C1002 H1014 0.960 1_455 S
C1002 H1015 0.962 . S
C1002 H1016 0.960 . S
C1003 C1000 1.511 . S
C1003 H1017 0.961 . S
C1003 H1018 0.961 . S
C1003 H1019 0.961 . S
C1004 C1005 1.370 . S
C1004 C1006 1.363 . S
C1004 H1020 0.931 . S
C1005 C1004 1.370 . S
C1005 C1009 1.408 . S
C1006 C1004 1.363 . S
C1006 C1007 1.370 . S
C1006 C1010 1.524 1_655 S
C1007 C999 1.503 1_655 S
C1007 C1006 1.370 . S
C1007 C1008 1.403 . S
C1008 C1007 1.403 . S
C1008 C1009 1.404 . S
C1008 C1011 1.539 . S
C1009 C1005 1.408 . S
C1009 C1008 1.404 . S
C1009 H1021 0.930 . S
C1010 C1006 1.524 1_455 S
C1010 H1022 0.956 . S
C1010 H1023 0.961 . S
C1010 H1024 0.961 . S
C1011 C1008 1.539 . S
C1011 H1025 0.958 . S
C1011 H1026 0.961 . S
C1011 H1027 0.960 . S
H1012 C996 0.931 . S
H1013 C1001 0.929 . S
H1014 C1002 0.960 1_655 S
H1015 C1002 0.962 . S
H1016 C1002 0.960 . S
H1017 C1003 0.961 . S
H1018 C1003 0.961 . S
H1019 C1003 0.961 . S
H1020 C1004 0.931 . S
H1021 C1009 0.930 . S
H1022 C1010 0.956 . S
H1023 C1010 0.961 . S
H1024 C1010 0.961 . S
H1025 C1011 0.958 . S
H1026 C1011 0.961 . S
H1027 C1011 0.960 . S
C1028 C1029 1.391 . S
C1028 C1030 1.394 . S
C1028 H1044 0.931 . S
C1029 C1028 1.391 . S
C1029 C1033 1.376 . S
C1030 C1028 1.394 . S
C1030 C1031 1.369 . S
C1030 C1034 1.531 . S
C1031 C1030 1.369 . S
C1031 C1032 1.410 . S
C1031 C1039 1.503 . S
C1032 C1031 1.410 . S
C1032 C1033 1.392 . S
C1032 C1035 1.511 . S
C1033 C1029 1.376 . S
C1033 C1032 1.392 . S
C1033 H1045 0.929 . S
C1034 C1030 1.531 . S
C1034 H1046 0.960 . S
C1034 H1047 0.962 . S
C1034 H1048 0.960 . S
C1035 C1032 1.511 . S
C1035 H1049 0.961 . S
C1035 H1050 0.961 . S
C1035 H1051 0.961 . S
C1036 C1037 1.370 . S
C1036 C1038 1.363 . S
C1036 H1052 0.931 . S
C1037 C1036 1.370 . S
C1037 C1041 1.408 . S
C1038 C1036 1.363 . S
C1038 C1039 1.370 . S
C1038 C1042 1.524 . S
C1039 C1031 1.503 . S
C1039 C1038 1.370 . S
C1039 C1040 1.403 . S
C1040 C1039 1.403 . S
C1040 C1041 1.404 . S
C1040 C1043 1.539 . S
C1041 C1037 1.408 . S
C1041 C1040 1.404 . S
C1041 H1053 0.930 . S
C1042 C1038 1.524 . S
C1042 H1054 0.956 . S
C1042 H1055 0.961 . S
C1042 H1056 0.961 . S
C1043 C1040 1.539 . S
C1043 H1057 0.958 . S
C1043 H1058 0.961 . S
C1043 H1059 0.960 . S
H1044 C1028 0.931 . S
H1045 C1033 0.929 . S
H1046 C1034 0.960 . S
H1047 C1034 0.962 . S
H1048 C1034 0.960 . S
H1049 C1035 0.961 . S
H1050 C1035 0.961 . S
H1051 C1035 0.961 . S
H1052 C1036 0.931 . S
H1053 C1041 0.930 . S
H1054 C1042 0.956 . S
H1055 C1042 0.961 . S
H1056 C1042 0.961 . S
H1057 C1043 0.958 . S
H1058 C1043 0.961 . S
H1059 C1043 0.960 . S
C1060 C1061 1.391 . S
C1060 C1062 1.394 . S
C1060 H1076 0.931 . S
C1061 C1060 1.391 . S
C1061 C1065 1.376 . S
C1062 C1060 1.394 . S
C1062 C1063 1.369 . S
C1062 C1066 1.531 . S
C1063 C1062 1.369 . S
C1063 C1064 1.410 . S
C1063 C1071 1.503 1_565 S
C1064 C1063 1.410 . S
C1064 C1065 1.392 . S
C1064 C1067 1.511 1_565 S
C1065 C1061 1.376 . S
C1065 C1064 1.392 . S
C1065 H1077 0.929 . S
C1066 C1062 1.531 . S
C1066 H1078 0.960 . S
C1066 H1079 0.962 . S
C1066 H1080 0.960 . S
C1067 C1064 1.511 1_545 S
C1067 H1081 0.961 . S
C1067 H1082 0.961 . S
C1067 H1083 0.961 . S
C1068 C1069 1.370 . S
C1068 C1070 1.363 . S
C1068 H1084 0.931 . S
C1069 C1068 1.370 . S
C1069 C1073 1.408 . S
C1070 C1068 1.363 . S
C1070 C1071 1.370 . S
C1070 C1074 1.524 . S
C1071 C1063 1.503 1_545 S
C1071 C1070 1.370 . S
C1071 C1072 1.403 . S
C1072 C1071 1.403 . S
C1072 C1073 1.404 . S
C1072 C1075 1.539 . S
C1073 C1069 1.408 . S
C1073 C1072 1.404 . S
C1073 H1085 0.930 . S
C1074 C1070 1.524 . S
C1074 H1086 0.956 . S
C1074 H1087 0.961 . S
C1074 H1088 0.961 . S
C1075 C1072 1.539 . S
C1075 H1089 0.958 . S
C1075 H1090 0.961 . S
C1075 H1091 0.957 1_545 S
H1076 C1060 0.931 . S
H1077 C1065 0.929 . S
H1078 C1066 0.960 . S
H1079 C1066 0.962 . S
H1080 C1066 0.960 . S
H1081 C1067 0.961 . S
H1082 C1067 0.961 . S
H1083 C1067 0.961 . S
H1084 C1068 0.931 . S
H1085 C1073 0.930 . S
H1086 C1074 0.956 . S
H1087 C1074 0.961 . S
H1088 C1074 0.961 . S
H1089 C1075 0.958 . S
H1090 C1075 0.961 . S
H1091 C1075 0.957 1_565 S
C1092 C1093 1.391 . S
C1092 C1094 1.394 . S
C1092 H1108 0.931 . S
C1093 C1092 1.391 . S
C1093 C1097 1.376 . S
C1094 C1092 1.394 . S
C1094 C1095 1.369 . S
C1094 C1098 1.531 . S
C1095 C1094 1.369 . S
C1095 C1096 1.410 . S
C1095 C1103 1.503 1_545 S
C1096 C1095 1.410 . S
C1096 C1097 1.392 . S
C1096 C1099 1.511 . S
C1097 C1093 1.376 . S
C1097 C1096 1.392 . S
C1097 H1109 0.929 . S
C1098 C1094 1.531 . S
C1098 H1110 0.960 . S
C1098 H1111 0.962 . S
C1098 H1112 0.960 . S
C1099 C1096 1.511 . S
C1099 H1113 0.961 . S
C1099 H1114 0.961 1_545 S
C1099 H1115 0.961 . S
C1100 C1101 1.370 . S
C1100 C1102 1.363 . S
C1100 H1116 0.931 . S
C1101 C1100 1.370 . S
C1101 C1105 1.408 . S
C1102 C1100 1.363 . S
C1102 C1103 1.370 . S
C1102 C1106 1.524 . S
C1103 C1095 1.503 1_565 S
C1103 C1102 1.370 . S
C1103 C1104 1.403 . S
C1104 C1103 1.403 . S
C1104 C1105 1.404 . S
C1104 C1107 1.539 1_565 S
C1105 C1101 1.408 . S
C1105 C1104 1.404 . S
C1105 H1117 0.930 . S
C1106 C1102 1.524 . S
C1106 H1118 0.956 . S
C1106 H1119 0.961 . S
C1106 H1120 0.961 . S
C1107 C1104 1.539 1_545 S
C1107 H1121 0.958 . S
C1107 H1122 0.961 . S
C1107 H1123 0.960 . S
H1108 C1092 0.931 . S
H1109 C1097 0.929 . S
H1110 C1098 0.960 . S
H1111 C1098 0.962 . S
H1112 C1098 0.960 . S
H1113 C1099 0.961 . S
H1114 C1099 0.961 1_565 S
H1115 C1099 0.961 . S
H1116 C1100 0.931 . S
H1117 C1105 0.930 . S
H1118 C1106 0.956 . S
H1119 C1106 0.961 . S
H1120 C1106 0.961 . S
H1121 C1107 0.958 . S
H1122 C1107 0.961 . S
H1123 C1107 0.960 . S
C1124 C1125 1.391 . S
C1124 C1126 1.394 . S
C1124 H1140 0.931 . S
C1125 C1124 1.391 . S
C1125 C1129 1.376 . S
C1126 C1124 1.394 . S
C1126 C1127 1.369 . S
C1126 C1130 1.531 . S
C1127 C1126 1.369 . S
C1127 C1128 1.410 . S
C1127 C1135 1.503 1_455 S
C1128 C1127 1.410 . S
C1128 C1129 1.392 . S
C1128 C1131 1.511 . S
C1129 C1125 1.376 . S
C1129 C1128 1.392 . S
C1129 H1141 0.929 . S
C1130 C1126 1.531 . S
C1130 H1142 0.960 . S
C1130 H1143 0.962 . S
C1130 H1144 0.960 . S
C1131 C1128 1.511 . S
C1131 H1145 0.961 . S
C1131 H1146 0.961 1_455 S
C1131 H1147 0.961 . S
C1132 C1133 1.370 . S
C1132 C1134 1.363 . S
C1132 H1148 0.931 . S
C1133 C1132 1.370 . S
C1133 C1137 1.408 . S
C1134 C1132 1.363 . S
C1134 C1135 1.370 . S
C1134 C1138 1.524 . S
C1135 C1127 1.503 1_655 S
C1135 C1134 1.370 . S
C1135 C1136 1.403 . S
C1136 C1135 1.403 . S
C1136 C1137 1.404 . S
C1136 C1139 1.539 1_655 S
C1137 C1133 1.408 . S
C1137 C1136 1.404 . S
C1137 H1149 0.930 . S
C1138 C1134 1.524 . S
C1138 H1150 0.956 . S
C1138 H1151 0.961 . S
C1138 H1152 0.961 . S
C1139 C1136 1.539 1_455 S
C1139 H1153 0.958 . S
C1139 H1154 0.961 . S
C1139 H1155 0.960 . S
H1140 C1124 0.931 . S
H1141 C1129 0.929 . S
H1142 C1130 0.960 . S
H1143 C1130 0.962 . S
H1144 C1130 0.960 . S
H1145 C1131 0.961 . S
H1146 C1131 0.961 1_655 S
H1147 C1131 0.961 . S
H1148 C1132 0.931 . S
H1149 C1137 0.930 . S
H1150 C1138 0.956 . S
H1151 C1138 0.961 . S
H1152 C1138 0.961 . S
H1153 C1139 0.958 . S
H1154 C1139 0.961 . S
H1155 C1139 0.960 . S
C1156 C1157 1.391 . S
C1156 C1158 1.394 . S
C1156 H1172 0.931 . S
C1157 C1156 1.391 . S
C1157 C1161 1.376 . S
C1158 C1156 1.394 . S
C1158 C1159 1.369 . S
C1158 C1162 1.531 . S
C1159 C1158 1.369 . S
C1159 C1160 1.410 . S
C1159 C1167 1.503 . S
C1160 C1159 1.410 . S
C1160 C1161 1.392 . S
C1160 C1163 1.511 . S
C1161 C1157 1.376 . S
C1161 C1160 1.392 . S
C1161 H1173 0.929 . S
C1162 C1158 1.531 . S
C1162 H1174 0.960 . S
C1162 H1175 0.962 . S
C1162 H1176 0.960 . S
C1163 C1160 1.511 . S
C1163 H1177 0.961 . S
C1163 H1178 0.961 . S
C1163 H1179 0.961 . S
C1164 C1165 1.370 . S
C1164 C1166 1.363 . S
C1164 H1180 0.931 . S
C1165 C1164 1.370 . S
C1165 C1169 1.408 . S
C1166 C1164 1.363 . S
C1166 C1167 1.370 . S
C1166 C1170 1.524 . S
C1167 C1159 1.503 . S
C1167 C1166 1.370 . S
C1167 C1168 1.403 . S
C1168 C1167 1.403 . S
C1168 C1169 1.404 . S
C1168 C1171 1.539 . S
C1169 C1165 1.408 . S
C1169 C1168 1.404 . S
C1169 H1181 0.930 . S
C1170 C1166 1.524 . S
C1170 H1182 0.956 . S
C1170 H1183 0.961 . S
C1170 H1184 0.961 . S
C1171 C1168 1.539 . S
C1171 H1185 0.958 . S
C1171 H1186 0.961 . S
C1171 H1187 0.960 . S
H1172 C1156 0.931 . S
H1173 C1161 0.929 . S
H1174 C1162 0.960 . S
H1175 C1162 0.962 . S
H1176 C1162 0.960 . S
H1177 C1163 0.961 . S
H1178 C1163 0.961 . S
H1179 C1163 0.961 . S
H1180 C1164 0.931 . S
H1181 C1169 0.930 . S
H1182 C1170 0.956 . S
H1183 C1170 0.961 . S
H1184 C1170 0.961 . S
H1185 C1171 0.958 . S
H1186 C1171 0.961 . S
H1187 C1171 0.960 . S
C1188 C1189 1.391 . S
C1188 C1190 1.394 . S
C1188 H1204 0.931 . S
C1189 C1188 1.391 . S
C1189 C1193 1.376 . S
C1190 C1188 1.394 . S
C1190 C1191 1.369 . S
C1190 C1194 1.531 . S
C1191 C1190 1.369 . S
C1191 C1192 1.410 . S
C1191 C1199 1.503 . S
C1192 C1191 1.410 . S
C1192 C1193 1.392 . S
C1192 C1195 1.511 . S
C1193 C1189 1.376 . S
C1193 C1192 1.392 . S
C1193 H1205 0.929 . S
C1194 C1190 1.531 . S
C1194 H1206 0.960 . S
C1194 H1207 0.962 . S
C1194 H1208 0.960 . S
C1195 C1192 1.511 . S
C1195 H1209 0.961 . S
C1195 H1210 0.961 . S
C1195 H1211 0.961 . S
C1196 C1197 1.370 . S
C1196 C1198 1.363 . S
C1196 H1212 0.931 . S
C1197 C1196 1.370 . S
C1197 C1201 1.408 . S
C1198 C1196 1.363 . S
C1198 C1199 1.370 . S
C1198 C1202 1.524 . S
C1199 C1191 1.503 . S
C1199 C1198 1.370 . S
C1199 C1200 1.403 . S
C1200 C1199 1.403 . S
C1200 C1201 1.404 . S
C1200 C1203 1.539 . S
C1201 C1197 1.408 . S
C1201 C1200 1.404 . S
C1201 H1213 0.930 . S
C1202 C1198 1.524 . S
C1202 H1214 0.956 . S
C1202 H1215 0.961 . S
C1202 H1216 0.961 . S
C1203 C1200 1.539 . S
C1203 H1217 0.958 . S
C1203 H1218 0.961 . S
C1203 H1219 0.960 . S
H1204 C1188 0.931 . S
H1205 C1193 0.929 . S
H1206 C1194 0.960 . S
H1207 C1194 0.962 . S
H1208 C1194 0.960 . S
H1209 C1195 0.961 . S
H1210 C1195 0.961 . S
H1211 C1195 0.961 . S
H1212 C1196 0.931 . S
H1213 C1201 0.930 . S
H1214 C1202 0.956 . S
H1215 C1202 0.961 . S
H1216 C1202 0.961 . S
H1217 C1203 0.958 . S
H1218 C1203 0.961 . S
H1219 C1203 0.960 . S
C1220 C1221 1.391 . S
C1220 C1222 1.394 . S
C1220 H1236 0.931 . S
C1221 C1220 1.391 . S
C1221 C1225 1.376 . S
C1222 C1220 1.394 . S
C1222 C1223 1.369 . S
C1222 C1226 1.531 . S
C1223 C1222 1.369 . S
C1223 C1224 1.410 . S
C1223 C1231 1.503 . S
C1224 C1223 1.410 . S
C1224 C1225 1.392 . S
C1224 C1227 1.511 . S
C1225 C1221 1.376 . S
C1225 C1224 1.392 . S
C1225 H1237 0.929 . S
C1226 C1222 1.531 . S
C1226 H1238 0.960 . S
C1226 H1239 0.962 . S
C1226 H1240 0.960 . S
C1227 C1224 1.511 . S
C1227 H1241 0.961 . S
C1227 H1242 0.961 . S
C1227 H1243 0.961 . S
C1228 C1229 1.370 . S
C1228 C1230 1.363 . S
C1228 H1244 0.931 . S
C1229 C1228 1.370 . S
C1229 C1233 1.408 . S
C1230 C1228 1.363 . S
C1230 C1231 1.370 . S
C1230 C1234 1.524 . S
C1231 C1223 1.503 . S
C1231 C1230 1.370 . S
C1231 C1232 1.403 . S
C1232 C1231 1.403 . S
C1232 C1233 1.404 . S
C1232 C1235 1.539 . S
C1233 C1229 1.408 . S
C1233 C1232 1.404 . S
C1233 H1245 0.930 . S
C1234 C1230 1.524 . S
C1234 H1246 0.956 . S
C1234 H1247 0.961 . S
C1234 H1248 0.961 . S
C1235 C1232 1.539 . S
C1235 H1249 0.958 . S
C1235 H1250 0.961 . S
C1235 H1251 0.960 . S
H1236 C1220 0.931 . S
H1237 C1225 0.929 . S
H1238 C1226 0.960 . S
H1239 C1226 0.962 . S
H1240 C1226 0.960 . S
H1241 C1227 0.961 . S
H1242 C1227 0.961 . S
H1243 C1227 0.961 . S
H1244 C1228 0.931 . S
H1245 C1233 0.930 . S
H1246 C1234 0.956 . S
H1247 C1234 0.961 . S
H1248 C1234 0.961 . S
H1249 C1235 0.958 . S
H1250 C1235 0.961 . S
H1251 C1235 0.960 . S
C1252 C1253 1.391 . S
C1252 C1254 1.394 . S
C1252 H1268 0.931 . S
C1253 C1252 1.391 . S
C1253 C1257 1.376 . S
C1254 C1252 1.394 . S
C1254 C1255 1.369 . S
C1254 C1258 1.531 . S
C1255 C1254 1.369 . S
C1255 C1256 1.410 . S
C1255 C1263 1.503 . S
C1256 C1255 1.410 . S
C1256 C1257 1.392 . S
C1256 C1259 1.511 . S
C1257 C1253 1.376 . S
C1257 C1256 1.392 . S
C1257 H1269 0.929 . S
C1258 C1254 1.531 . S
C1258 H1270 0.960 . S
C1258 H1271 0.962 . S
C1258 H1272 0.960 . S
C1259 C1256 1.511 . S
C1259 H1273 0.961 . S
C1259 H1274 0.961 . S
C1259 H1275 0.961 . S
C1260 C1261 1.370 . S
C1260 C1262 1.363 . S
C1260 H1276 0.931 . S
C1261 C1260 1.370 . S
C1261 C1265 1.408 . S
C1262 C1260 1.363 . S
C1262 C1263 1.370 . S
C1262 C1266 1.524 . S
C1263 C1255 1.503 . S
C1263 C1262 1.370 . S
C1263 C1264 1.403 . S
C1264 C1263 1.403 . S
C1264 C1265 1.404 . S
C1264 C1267 1.539 . S
C1265 C1261 1.408 . S
C1265 C1264 1.404 . S
C1265 H1277 0.930 . S
C1266 C1262 1.524 . S
C1266 H1278 0.956 . S
C1266 H1279 0.961 . S
C1266 H1280 0.961 . S
C1267 C1264 1.539 . S
C1267 H1281 0.958 . S
C1267 H1282 0.961 . S
C1267 H1283 0.960 . S
H1268 C1252 0.931 . S
H1269 C1257 0.929 . S
H1270 C1258 0.960 . S
H1271 C1258 0.962 . S
H1272 C1258 0.960 . S
H1273 C1259 0.961 . S
H1274 C1259 0.961 . S
H1275 C1259 0.961 . S
H1276 C1260 0.931 . S
H1277 C1265 0.930 . S
H1278 C1266 0.956 . S
H1279 C1266 0.961 . S
H1280 C1266 0.961 . S
H1281 C1267 0.958 . S
H1282 C1267 0.961 . S
H1283 C1267 0.960 . S
C1284 C1285 1.391 . S
C1284 C1286 1.394 . S
C1284 H1300 0.931 . S
C1285 C1284 1.391 . S
C1285 C1289 1.376 . S
C1286 C1284 1.394 . S
C1286 C1287 1.369 . S
C1286 C1290 1.531 . S
C1287 C1286 1.369 . S
C1287 C1288 1.410 . S
C1287 C1295 1.503 . S
C1288 C1287 1.410 . S
C1288 C1289 1.392 . S
C1288 C1291 1.511 . S
C1289 C1285 1.376 . S
C1289 C1288 1.392 . S
C1289 H1301 0.929 . S
C1290 C1286 1.531 . S
C1290 H1302 0.960 . S
C1290 H1303 0.962 . S
C1290 H1304 0.960 . S
C1291 C1288 1.511 . S
C1291 H1305 0.961 . S
C1291 H1306 0.961 . S
C1291 H1307 0.961 . S
C1292 C1293 1.370 . S
C1292 C1294 1.363 . S
C1292 H1308 0.931 . S
C1293 C1292 1.370 . S
C1293 C1297 1.408 . S
C1294 C1292 1.363 . S
C1294 C1295 1.370 . S
C1294 C1298 1.524 . S
C1295 C1287 1.503 . S
C1295 C1294 1.370 . S
C1295 C1296 1.403 . S
C1296 C1295 1.403 . S
C1296 C1297 1.404 . S
C1296 C1299 1.539 . S
C1297 C1293 1.408 . S
C1297 C1296 1.404 . S
C1297 H1309 0.930 . S
C1298 C1294 1.524 . S
C1298 H1310 0.956 . S
C1298 H1311 0.961 . S
C1298 H1312 0.961 . S
C1299 C1296 1.539 . S
C1299 H1313 0.958 . S
C1299 H1314 0.961 . S
C1299 H1315 0.960 . S
H1300 C1284 0.931 . S
H1301 C1289 0.929 . S
H1302 C1290 0.960 . S
H1303 C1290 0.962 . S
H1304 C1290 0.960 . S
H1305 C1291 0.961 . S
H1306 C1291 0.961 . S
H1307 C1291 0.961 . S
H1308 C1292 0.931 . S
H1309 C1297 0.930 . S
H1310 C1298 0.956 . S
H1311 C1298 0.961 . S
H1312 C1298 0.961 . S
H1313 C1299 0.958 . S
H1314 C1299 0.961 . S
H1315 C1299 0.960 . S
C1316 C1317 1.391 . S
C1316 C1318 1.394 . S
C1316 H1332 0.931 . S
C1317 C1316 1.391 . S
C1317 C1321 1.376 . S
C1318 C1316 1.394 . S
C1318 C1319 1.369 . S
C1318 C1322 1.531 . S
C1319 C1318 1.369 . S
C1319 C1320 1.410 . S
C1319 C1327 1.503 . S
C1320 C1319 1.410 . S
C1320 C1321 1.392 . S
C1320 C1323 1.511 . S
C1321 C1317 1.376 . S
C1321 C1320 1.392 . S
C1321 H1333 0.929 . S
C1322 C1318 1.531 . S
C1322 H1334 0.960 . S
C1322 H1335 0.962 . S
C1322 H1336 0.960 . S
C1323 C1320 1.511 . S
C1323 H1337 0.961 . S
C1323 H1338 0.961 . S
C1323 H1339 0.961 . S
C1324 C1325 1.370 . S
C1324 C1326 1.363 . S
C1324 H1340 0.931 . S
C1325 C1324 1.370 . S
C1325 C1329 1.408 . S
C1326 C1324 1.363 . S
C1326 C1327 1.370 . S
C1326 C1330 1.524 . S
C1327 C1319 1.503 . S
C1327 C1326 1.370 . S
C1327 C1328 1.403 . S
C1328 C1327 1.403 . S
C1328 C1329 1.404 . S
C1328 C1331 1.539 . S
C1329 C1325 1.408 . S
C1329 C1328 1.404 . S
C1329 H1341 0.930 . S
C1330 C1326 1.524 . S
C1330 H1342 0.956 . S
C1330 H1343 0.961 . S
C1330 H1344 0.961 . S
C1331 C1328 1.539 . S
C1331 H1345 0.958 . S
C1331 H1346 0.961 . S
C1331 H1347 0.960 . S
H1332 C1316 0.931 . S
H1333 C1321 0.929 . S
H1334 C1322 0.960 . S
H1335 C1322 0.962 . S
H1336 C1322 0.960 . S
H1337 C1323 0.961 . S
H1338 C1323 0.961 . S
H1339 C1323 0.961 . S
H1340 C1324 0.931 . S
H1341 C1329 0.930 . S
H1342 C1330 0.956 . S
H1343 C1330 0.961 . S
H1344 C1330 0.961 . S
H1345 C1331 0.958 . S
H1346 C1331 0.961 . S
H1347 C1331 0.960 . S
C1348 C1349 1.391 . S
C1348 C1350 1.394 . S
C1348 H1364 0.931 . S
C1349 C1348 1.391 . S
C1349 C1353 1.376 . S
C1350 C1348 1.394 . S
C1350 C1351 1.369 . S
C1350 C1354 1.531 . S
C1351 C1350 1.369 . S
C1351 C1352 1.410 . S
C1351 C1359 1.503 . S
C1352 C1351 1.410 . S
C1352 C1353 1.392 . S
C1352 C1355 1.511 . S
C1353 C1349 1.376 . S
C1353 C1352 1.392 . S
C1353 H1365 0.929 . S
C1354 C1350 1.531 . S
C1354 H1366 0.960 . S
C1354 H1367 0.962 . S
C1354 H1368 0.960 . S
C1355 C1352 1.511 . S
C1355 H1369 0.961 . S
C1355 H1370 0.961 . S
C1355 H1371 0.961 . S
C1356 C1357 1.370 . S
C1356 C1358 1.363 . S
C1356 H1372 0.931 . S
C1357 C1356 1.370 . S
C1357 C1361 1.408 . S
C1358 C1356 1.363 . S
C1358 C1359 1.370 . S
C1358 C1362 1.524 . S
C1359 C1351 1.503 . S
C1359 C1358 1.370 . S
C1359 C1360 1.403 . S
C1360 C1359 1.403 . S
C1360 C1361 1.404 . S
C1360 C1363 1.539 . S
C1361 C1357 1.408 . S
C1361 C1360 1.404 . S
C1361 H1373 0.930 . S
C1362 C1358 1.524 . S
C1362 H1374 0.956 . S
C1362 H1375 0.961 . S
C1362 H1376 0.961 . S
C1363 C1360 1.539 . S
C1363 H1377 0.958 . S
C1363 H1378 0.961 . S
C1363 H1379 0.960 . S
H1364 C1348 0.931 . S
H1365 C1353 0.929 . S
H1366 C1354 0.960 . S
H1367 C1354 0.962 . S
H1368 C1354 0.960 . S
H1369 C1355 0.961 . S
H1370 C1355 0.961 . S
H1371 C1355 0.961 . S
H1372 C1356 0.931 . S
H1373 C1361 0.930 . S
H1374 C1362 0.956 . S
H1375 C1362 0.961 . S
H1376 C1362 0.961 . S
H1377 C1363 0.958 . S
H1378 C1363 0.961 . S
H1379 C1363 0.960 . S
C1380 C1381 1.391 . S
C1380 C1382 1.394 . S
C1380 H1396 0.931 . S
C1381 C1380 1.391 . S
C1381 C1385 1.376 . S
C1382 C1380 1.394 . S
C1382 C1383 1.369 1_655 S
C1382 C1386 1.531 . S
C1383 C1382 1.369 1_455 S
C1383 C1384 1.410 . S
C1383 C1391 1.503 1_554 S
C1384 C1383 1.410 . S
C1384 C1385 1.392 1_455 S
C1384 C1387 1.511 . S
C1385 C1381 1.376 . S
C1385 C1384 1.392 1_655 S
C1385 H1397 0.929 1_655 S
C1386 C1382 1.531 . S
C1386 H1398 0.960 1_554 S
C1386 H1399 0.962 1_554 S
C1386 H1400 0.960 . S
C1387 C1384 1.511 . S
C1387 H1401 0.961 . S
C1387 H1402 0.961 . S
C1387 H1403 0.961 . S
C1388 C1389 1.370 . S
C1388 C1390 1.363 1_455 S
C1388 H1404 0.931 1_455 S
C1389 C1388 1.370 . S
C1389 C1393 1.408 . S
C1390 C1388 1.363 1_655 S
C1390 C1391 1.370 1_655 S
C1390 C1394 1.524 . S
C1391 C1383 1.503 1_556 S
C1391 C1390 1.370 1_455 S
C1391 C1392 1.403 . S
C1392 C1391 1.403 . S
C1392 C1393 1.404 . S
C1392 C1395 1.539 . S
C1393 C1389 1.408 . S
C1393 C1392 1.404 . S
C1393 H1405 0.930 . S
C1394 C1390 1.524 . S
C1394 H1406 0.956 . S
C1394 H1407 0.961 . S
C1394 H1408 0.961 . S
C1395 C1392 1.539 . S
C1395 H1409 0.958 1_556 S
C1395 H1410 0.961 . S
C1395 H1411 0.960 1_556 S
H1396 C1380 0.931 . S
H1397 C1385 0.929 1_455 S
H1398 C1386 0.960 1_556 S
H1399 C1386 0.962 1_556 S
H1400 C1386 0.960 . S
H1401 C1387 0.961 . S
H1402 C1387 0.961 . S
H1403 C1387 0.961 . S
H1404 C1388 0.931 1_655 S
H1405 C1393 0.930 . S
H1406 C1394 0.956 . S
H1407 C1394 0.961 . S
H1408 C1394 0.961 . S
H1409 C1395 0.958 1_554 S
H1410 C1395 0.961 . S
H1411 C1395 0.960 1_554 S
C1412 C1413 1.391 . S
C1412 C1414 1.394 . S
C1412 H1428 0.931 . S
C1413 C1412 1.391 . S
C1413 C1417 1.376 . S
C1414 C1412 1.394 . S
C1414 C1415 1.369 . S
C1414 C1418 1.525 1_554 S
C1415 C1414 1.369 . S
C1415 C1416 1.410 . S
C1415 C1423 1.503 1_554 S
C1416 C1415 1.410 . S
C1416 C1417 1.392 . S
C1416 C1419 1.511 . S
C1417 C1413 1.376 . S
C1417 C1416 1.392 . S
C1417 H1429 0.929 . S
C1418 C1414 1.525 1_556 S
C1418 H1430 0.968 . S
C1418 H1431 0.962 . S
C1418 H1432 0.958 1_556 S
C1419 C1416 1.511 . S
C1419 H1433 0.961 . S
C1419 H1434 0.961 . S
C1419 H1435 0.961 . S
C1420 C1421 1.370 . S
C1420 C1422 1.363 . S
C1420 H1436 0.931 . S
C1421 C1420 1.370 . S
C1421 C1425 1.408 . S
C1422 C1420 1.363 . S
C1422 C1423 1.370 . S
C1422 C1426 1.524 1_556 S
C1423 C1415 1.503 1_556 S
C1423 C1422 1.370 . S
C1423 C1424 1.403 . S
C1424 C1423 1.403 . S
C1424 C1425 1.404 . S
C1424 C1427 1.539 . S
C1425 C1421 1.408 . S
C1425 C1424 1.404 . S
C1425 H1437 0.930 . S
C1426 C1422 1.524 1_554 S
C1426 H1438 0.956 . S
C1426 H1439 0.961 . S
C1426 H1440 0.961 1_554 S
C1427 C1424 1.539 . S
C1427 H1441 0.958 . S
C1427 H1442 0.961 . S
C1427 H1443 0.960 . S
H1428 C1412 0.931 . S
H1429 C1417 0.929 . S
H1430 C1418 0.968 . S
H1431 C1418 0.962 . S
H1432 C1418 0.958 1_554 S
H1433 C1419 0.961 . S
H1434 C1419 0.961 . S
H1435 C1419 0.961 . S
H1436 C1420 0.931 . S
H1437 C1425 0.930 . S
H1438 C1426 0.956 . S
H1439 C1426 0.961 . S
H1440 C1426 0.961 1_556 S
H1441 C1427 0.958 . S
H1442 C1427 0.961 . S
H1443 C1427 0.960 . S
C1444 C1445 1.391 . S
C1444 C1446 1.394 1_545 S
C1444 H1460 0.931 . S
C1445 C1444 1.391 . S
C1445 C1449 1.376 . S
C1446 C1444 1.394 1_565 S
C1446 C1447 1.369 1_565 S
C1446 C1450 1.531 . S
C1447 C1446 1.369 1_545 S
C1447 C1448 1.410 . S
C1447 C1455 1.503 1_544 S
C1448 C1447 1.410 . S
C1448 C1449 1.392 . S
C1448 C1451 1.511 . S
C1449 C1445 1.376 . S
C1449 C1448 1.392 . S
C1449 H1461 0.929 . S
C1450 C1446 1.531 . S
C1450 H1462 0.960 . S
C1450 H1463 0.962 . S
C1450 H1464 0.960 . S
C1451 C1448 1.511 . S
C1451 H1465 0.961 . S
C1451 H1466 0.961 1_554 S
C1451 H1467 0.961 . S
C1452 C1453 1.370 . S
C1452 C1454 1.363 1_565 S
C1452 H1468 0.931 1_565 S
C1453 C1452 1.370 . S
C1453 C1457 1.408 . S
C1454 C1452 1.363 1_545 S
C1454 C1455 1.370 1_545 S
C1454 C1458 1.524 . S
C1455 C1447 1.503 1_566 S
C1455 C1454 1.370 1_565 S
C1455 C1456 1.403 . S
C1456 C1455 1.403 . S
C1456 C1457 1.404 . S
C1456 C1459 1.521 1_556 S
C1457 C1453 1.408 . S
C1457 C1456 1.404 . S
C1457 H1469 0.930 . S
C1458 C1454 1.524 . S
C1458 H1470 0.956 . S
C1458 H1471 0.961 . S
C1458 H1472 0.961 . S
C1459 C1456 1.521 1_554 S
C1459 H1473 0.970 . S
C1459 H1474 0.948 1_554 S
C1459 H1475 0.980 . S
H1460 C1444 0.931 . S
H1461 C1449 0.929 . S
H1462 C1450 0.960 . S
H1463 C1450 0.962 . S
H1464 C1450 0.960 . S
H1465 C1451 0.961 . S
H1466 C1451 0.961 1_556 S
H1467 C1451 0.961 . S
H1468 C1452 0.931 1_545 S
H1469 C1457 0.930 . S
H1470 C1458 0.956 . S
H1471 C1458 0.961 . S
H1472 C1458 0.961 . S
H1473 C1459 0.970 . S
H1474 C1459 0.948 1_556 S
H1475 C1459 0.980 . S
C1476 C1477 1.391 . S
C1476 C1478 1.394 . S
C1476 H1492 0.931 . S
C1477 C1476 1.391 . S
C1477 C1481 1.376 . S
C1478 C1476 1.394 . S
C1478 C1479 1.369 . S
C1478 C1482 1.531 . S
C1479 C1478 1.369 . S
C1479 C1480 1.410 . S
C1479 C1487 1.503 . S
C1480 C1479 1.410 . S
C1480 C1481 1.392 . S
C1480 C1483 1.511 . S
C1481 C1477 1.376 . S
C1481 C1480 1.392 . S
C1481 H1493 0.929 . S
C1482 C1478 1.531 . S
C1482 H1494 0.960 . S
C1482 H1495 0.962 . S
C1482 H1496 0.960 . S
C1483 C1480 1.511 . S
C1483 H1497 0.961 . S
C1483 H1498 0.961 . S
C1483 H1499 0.961 . S
C1484 C1485 1.370 . S
C1484 C1486 1.363 . S
C1484 H1500 0.931 . S
C1485 C1484 1.370 . S
C1485 C1489 1.408 . S
C1486 C1484 1.363 . S
C1486 C1487 1.370 . S
C1486 C1490 1.524 . S
C1487 C1479 1.503 . S
C1487 C1486 1.370 . S
C1487 C1488 1.403 . S
C1488 C1487 1.403 . S
C1488 C1489 1.404 . S
C1488 C1491 1.539 . S
C1489 C1485 1.408 . S
C1489 C1488 1.404 . S
C1489 H1501 0.930 . S
C1490 C1486 1.524 . S
C1490 H1502 0.956 . S
C1490 H1503 0.961 . S
C1490 H1504 0.961 . S
C1491 C1488 1.539 . S
C1491 H1505 0.958 . S
C1491 H1506 0.961 . S
C1491 H1507 0.960 . S
H1492 C1476 0.931 . S
H1493 C1481 0.929 . S
H1494 C1482 0.960 . S
H1495 C1482 0.962 . S
H1496 C1482 0.960 . S
H1497 C1483 0.961 . S
H1498 C1483 0.961 . S
H1499 C1483 0.961 . S
H1500 C1484 0.931 . S
H1501 C1489 0.930 . S
H1502 C1490 0.956 . S
H1503 C1490 0.961 . S
H1504 C1490 0.961 . S
H1505 C1491 0.958 . S
H1506 C1491 0.961 . S
H1507 C1491 0.960 . S
C1508 C1509 1.391 . S
C1508 C1510 1.394 1_565 S
C1508 H1524 0.931 . S
C1509 C1508 1.391 . S
C1509 C1513 1.376 . S
C1510 C1508 1.394 1_545 S
C1510 C1511 1.369 . S
C1510 C1514 1.531 . S
C1511 C1510 1.369 . S
C1511 C1512 1.410 . S
C1511 C1519 1.503 . S
C1512 C1511 1.410 . S
C1512 C1513 1.392 1_545 S
C1512 C1515 1.511 . S
C1513 C1509 1.376 . S
C1513 C1512 1.392 1_565 S
C1513 H1525 0.929 . S
C1514 C1510 1.531 . S
C1514 H1526 0.960 . S
C1514 H1527 0.962 . S
C1514 H1528 0.960 . S
C1515 C1512 1.511 . S
C1515 H1529 0.961 . S
C1515 H1530 0.961 . S
C1515 H1531 0.961 . S
C1516 C1517 1.370 . S
C1516 C1518 1.363 . S
C1516 H1532 0.931 . S
C1517 C1516 1.370 . S
C1517 C1521 1.408 . S
C1518 C1516 1.363 . S
C1518 C1519 1.370 . S
C1518 C1522 1.524 . S
C1519 C1511 1.503 . S
C1519 C1518 1.370 . S
C1519 C1520 1.403 . S
C1520 C1519 1.403 . S
C1520 C1521 1.404 . S
C1520 C1523 1.539 . S
C1521 C1517 1.408 . S
C1521 C1520 1.404 . S
C1521 H1533 0.930 . S
C1522 C1518 1.524 . S
C1522 H1534 0.956 . S
C1522 H1535 0.961 . S
C1522 H1536 0.961 . S
C1523 C1520 1.539 . S
C1523 H1537 0.958 . S
C1523 H1538 0.961 . S
C1523 H1539 0.960 . S
H1524 C1508 0.931 . S
H1525 C1513 0.929 . S
H1526 C1514 0.960 . S
H1527 C1514 0.962 . S
H1528 C1514 0.960 . S
H1529 C1515 0.961 . S
H1530 C1515 0.961 . S
H1531 C1515 0.961 . S
H1532 C1516 0.931 . S
H1533 C1521 0.930 . S
H1534 C1522 0.956 . S
H1535 C1522 0.961 . S
H1536 C1522 0.961 . S
H1537 C1523 0.958 . S
H1538 C1523 0.961 . S
H1539 C1523 0.960 . S
C1540 C1541 1.391 . S
C1540 C1542 1.394 . S
C1540 H1556 0.931 . S
C1541 C1540 1.391 . S
C1541 C1545 1.376 . S
C1542 C1540 1.394 . S
C1542 C1543 1.369 . S
C1542 C1546 1.531 . S
C1543 C1542 1.369 . S
C1543 C1544 1.410 . S
C1543 C1551 1.503 . S
C1544 C1543 1.410 . S
C1544 C1545 1.392 . S
C1544 C1547 1.511 . S
C1545 C1541 1.376 . S
C1545 C1544 1.392 . S
C1545 H1557 0.929 . S
C1546 C1542 1.531 . S
C1546 H1558 0.960 . S
C1546 H1559 0.962 . S
C1546 H1560 0.960 . S
C1547 C1544 1.511 . S
C1547 H1561 0.961 . S
C1547 H1562 0.961 . S
C1547 H1563 0.961 . S
C1548 C1549 1.370 . S
C1548 C1550 1.363 1_455 S
C1548 H1564 0.931 . S
C1549 C1548 1.370 . S
C1549 C1553 1.408 . S
C1550 C1548 1.363 1_655 S
C1550 C1551 1.370 . S
C1550 C1554 1.524 . S
C1551 C1543 1.503 . S
C1551 C1550 1.370 . S
C1551 C1552 1.403 . S
C1552 C1551 1.403 . S
C1552 C1553 1.404 1_655 S
C1552 C1555 1.539 . S
C1553 C1549 1.408 . S
C1553 C1552 1.404 1_455 S
C1553 H1565 0.930 . S
C1554 C1550 1.524 . S
C1554 H1566 0.956 . S
C1554 H1567 0.961 . S
C1554 H1568 0.961 . S
C1555 C1552 1.539 . S
C1555 H1569 0.958 . S
C1555 H1570 0.961 . S
C1555 H1571 0.960 . S
H1556 C1540 0.931 . S
H1557 C1545 0.929 . S
H1558 C1546 0.960 . S
H1559 C1546 0.962 . S
H1560 C1546 0.960 . S
H1561 C1547 0.961 . S
H1562 C1547 0.961 . S
H1563 C1547 0.961 . S
H1564 C1548 0.931 . S
H1565 C1553 0.930 . S
H1566 C1554 0.956 . S
H1567 C1554 0.961 . S
H1568 C1554 0.961 . S
H1569 C1555 0.958 . S
H1570 C1555 0.961 . S
H1571 C1555 0.960 . S
C1572 C1573 1.391 . S
C1572 C1574 1.394 . S
C1572 H1588 0.931 . S
C1573 C1572 1.391 . S
C1573 C1577 1.376 . S
C1574 C1572 1.394 . S
C1574 C1575 1.369 . S
C1574 C1578 1.531 . S
C1575 C1574 1.369 . S
C1575 C1576 1.410 . S
C1575 C1583 1.503 . S
C1576 C1575 1.410 . S
C1576 C1577 1.392 . S
C1576 C1579 1.511 . S
C1577 C1573 1.376 . S
C1577 C1576 1.392 . S
C1577 H1589 0.929 . S
C1578 C1574 1.531 . S
C1578 H1590 0.960 . S
C1578 H1591 0.962 . S
C1578 H1592 0.960 . S
C1579 C1576 1.511 . S
C1579 H1593 0.961 . S
C1579 H1594 0.961 . S
C1579 H1595 0.961 . S
C1580 C1581 1.370 . S
C1580 C1582 1.363 . S
C1580 H1596 0.931 . S
C1581 C1580 1.370 . S
C1581 C1585 1.408 . S
C1582 C1580 1.363 . S
C1582 C1583 1.370 . S
C1582 C1586 1.524 . S
C1583 C1575 1.503 . S
C1583 C1582 1.370 . S
C1583 C1584 1.403 . S
C1584 C1583 1.403 . S
C1584 C1585 1.404 . S
C1584 C1587 1.539 . S
C1585 C1581 1.408 . S
C1585 C1584 1.404 . S
C1585 H1597 0.930 . S
C1586 C1582 1.524 . S
C1586 H1598 0.956 . S
C1586 H1599 0.961 . S
C1586 H1600 0.961 . S
C1587 C1584 1.539 . S
C1587 H1601 0.958 . S
C1587 H1602 0.961 . S
C1587 H1603 0.960 . S
H1588 C1572 0.931 . S
H1589 C1577 0.929 . S
H1590 C1578 0.960 . S
H1591 C1578 0.962 . S
H1592 C1578 0.960 . S
H1593 C1579 0.961 . S
H1594 C1579 0.961 . S
H1595 C1579 0.961 . S
H1596 C1580 0.931 . S
H1597 C1585 0.930 . S
H1598 C1586 0.956 . S
H1599 C1586 0.961 . S
H1600 C1586 0.961 . S
H1601 C1587 0.958 . S
H1602 C1587 0.961 . S
H1603 C1587 0.960 . S
C1604 C1605 1.391 . S
C1604 C1606 1.394 1_545 S
C1604 H1620 0.931 . S
C1605 C1604 1.391 . S
C1605 C1609 1.376 . S
C1606 C1604 1.394 1_565 S
C1606 C1607 1.369 . S
C1606 C1610 1.531 . S
C1607 C1606 1.369 . S
C1607 C1608 1.410 . S
C1607 C1615 1.503 . S
C1608 C1607 1.410 . S
C1608 C1609 1.392 1_565 S
C1608 C1611 1.511 . S
C1609 C1605 1.376 . S
C1609 C1608 1.392 1_545 S
C1609 H1621 0.929 . S
C1610 C1606 1.531 . S
C1610 H1622 0.960 . S
C1610 H1623 0.962 . S
C1610 H1624 0.960 . S
C1611 C1608 1.511 . S
C1611 H1625 0.961 . S
C1611 H1626 0.961 . S
C1611 H1627 0.961 . S
C1612 C1613 1.370 . S
C1612 C1614 1.363 . S
C1612 H1628 0.931 . S
C1613 C1612 1.370 . S
C1613 C1617 1.408 . S
C1614 C1612 1.363 . S
C1614 C1615 1.370 . S
C1614 C1618 1.524 . S
C1615 C1607 1.503 . S
C1615 C1614 1.370 . S
C1615 C1616 1.403 . S
C1616 C1615 1.403 . S
C1616 C1617 1.404 . S
C1616 C1619 1.539 . S
C1617 C1613 1.408 . S
C1617 C1616 1.404 . S
C1617 H1629 0.930 . S
C1618 C1614 1.524 . S
C1618 H1630 0.956 . S
C1618 H1631 0.961 . S
C1618 H1632 0.961 . S
C1619 C1616 1.539 . S
C1619 H1633 0.958 . S
C1619 H1634 0.961 . S
C1619 H1635 0.960 . S
H1620 C1604 0.931 . S
H1621 C1609 0.929 . S
H1622 C1610 0.960 . S
H1623 C1610 0.962 . S
H1624 C1610 0.960 . S
H1625 C1611 0.961 . S
H1626 C1611 0.961 . S
H1627 C1611 0.961 . S
H1628 C1612 0.931 . S
H1629 C1617 0.930 . S
H1630 C1618 0.956 . S
H1631 C1618 0.961 . S
H1632 C1618 0.961 . S
H1633 C1619 0.958 . S
H1634 C1619 0.961 . S
H1635 C1619 0.960 . S
C1636 C1637 1.391 . S
C1636 C1638 1.394 . S
C1636 H1652 0.931 . S
C1637 C1636 1.391 . S
C1637 C1641 1.376 . S
C1638 C1636 1.394 . S
C1638 C1639 1.369 . S
C1638 C1642 1.531 . S
C1639 C1638 1.369 . S
C1639 C1640 1.410 . S
C1639 C1647 1.503 . S
C1640 C1639 1.410 . S
C1640 C1641 1.392 . S
C1640 C1643 1.511 . S
C1641 C1637 1.376 . S
C1641 C1640 1.392 . S
C1641 H1653 0.929 . S
C1642 C1638 1.531 . S
C1642 H1654 0.960 . S
C1642 H1655 0.962 . S
C1642 H1656 0.960 . S
C1643 C1640 1.511 . S
C1643 H1657 0.961 . S
C1643 H1658 0.961 . S
C1643 H1659 0.961 . S
C1644 C1645 1.370 . S
C1644 C1646 1.363 1_655 S
C1644 H1660 0.931 . S
C1645 C1644 1.370 . S
C1645 C1649 1.408 . S
C1646 C1644 1.363 1_455 S
C1646 C1647 1.370 . S
C1646 C1650 1.524 . S
C1647 C1639 1.503 . S
C1647 C1646 1.370 . S
C1647 C1648 1.403 . S
C1648 C1647 1.403 . S
C1648 C1649 1.404 1_455 S
C1648 C1651 1.539 . S
C1649 C1645 1.408 . S
C1649 C1648 1.404 1_655 S
C1649 H1661 0.930 . S
C1650 C1646 1.524 . S
C1650 H1662 0.956 . S
C1650 H1663 0.961 . S
C1650 H1664 0.961 . S
C1651 C1648 1.539 . S
C1651 H1665 0.958 . S
C1651 H1666 0.961 . S
C1651 H1667 0.960 . S
H1652 C1636 0.931 . S
H1653 C1641 0.929 . S
H1654 C1642 0.960 . S
H1655 C1642 0.962 . S
H1656 C1642 0.960 . S
H1657 C1643 0.961 . S
H1658 C1643 0.961 . S
H1659 C1643 0.961 . S
H1660 C1644 0.931 . S
H1661 C1649 0.930 . S
H1662 C1650 0.956 . S
H1663 C1650 0.961 . S
H1664 C1650 0.961 . S
H1665 C1651 0.958 . S
H1666 C1651 0.961 . S
H1667 C1651 0.960 . S
C1668 C1669 1.391 . S
C1668 C1670 1.394 . S
C1668 H1684 0.931 . S
C1669 C1668 1.391 . S
C1669 C1673 1.376 . S
C1670 C1668 1.394 . S
C1670 C1671 1.369 . S
C1670 C1674 1.531 . S
C1671 C1670 1.369 . S
C1671 C1672 1.410 . S
C1671 C1679 1.503 . S
C1672 C1671 1.410 . S
C1672 C1673 1.392 . S
C1672 C1675 1.511 . S
C1673 C1669 1.376 . S
C1673 C1672 1.392 . S
C1673 H1685 0.929 . S
C1674 C1670 1.531 . S
C1674 H1686 0.960 . S
C1674 H1687 0.962 . S
C1674 H1688 0.960 . S
C1675 C1672 1.511 . S
C1675 H1689 0.961 . S
C1675 H1690 0.961 . S
C1675 H1691 0.961 . S
C1676 C1677 1.370 . S
C1676 C1678 1.363 . S
C1676 H1692 0.931 . S
C1677 C1676 1.370 . S
C1677 C1681 1.408 . S
C1678 C1676 1.363 . S
C1678 C1679 1.370 . S
C1678 C1682 1.524 . S
C1679 C1671 1.503 . S
C1679 C1678 1.370 . S
C1679 C1680 1.403 . S
C1680 C1679 1.403 . S
C1680 C1681 1.404 . S
C1680 C1683 1.539 . S
C1681 C1677 1.408 . S
C1681 C1680 1.404 . S
C1681 H1693 0.930 . S
C1682 C1678 1.524 . S
C1682 H1694 0.956 . S
C1682 H1695 0.961 . S
C1682 H1696 0.961 . S
C1683 C1680 1.539 . S
C1683 H1697 0.958 . S
C1683 H1698 0.961 . S
C1683 H1699 0.960 . S
H1684 C1668 0.931 . S
H1685 C1673 0.929 . S
H1686 C1674 0.960 . S
H1687 C1674 0.962 . S
H1688 C1674 0.960 . S
H1689 C1675 0.961 . S
H1690 C1675 0.961 . S
H1691 C1675 0.961 . S
H1692 C1676 0.931 . S
H1693 C1681 0.930 . S
H1694 C1682 0.956 . S
H1695 C1682 0.961 . S
H1696 C1682 0.961 . S
H1697 C1683 0.958 . S
H1698 C1683 0.961 . S
H1699 C1683 0.960 . S
C1700 C1701 1.391 . S
C1700 C1702 1.394 . S
C1700 H1716 0.931 . S
C1701 C1700 1.391 . S
C1701 C1705 1.376 . S
C1702 C1700 1.394 . S
C1702 C1703 1.369 . S
C1702 C1706 1.531 . S
C1703 C1702 1.369 . S
C1703 C1704 1.410 . S
C1703 C1711 1.503 . S
C1704 C1703 1.410 . S
C1704 C1705 1.392 . S
C1704 C1707 1.511 . S
C1705 C1701 1.376 . S
C1705 C1704 1.392 . S
C1705 H1717 0.929 . S
C1706 C1702 1.531 . S
C1706 H1718 0.960 . S
C1706 H1719 0.962 . S
C1706 H1720 0.960 . S
C1707 C1704 1.511 . S
C1707 H1721 0.961 . S
C1707 H1722 0.961 . S
C1707 H1723 0.961 . S
C1708 C1709 1.370 . S
C1708 C1710 1.363 . S
C1708 H1724 0.931 . S
C1709 C1708 1.370 . S
C1709 C1713 1.408 . S
C1710 C1708 1.363 . S
C1710 C1711 1.370 . S
C1710 C1714 1.524 . S
C1711 C1703 1.503 . S
C1711 C1710 1.370 . S
C1711 C1712 1.403 . S
C1712 C1711 1.403 . S
C1712 C1713 1.404 . S
C1712 C1715 1.539 . S
C1713 C1709 1.408 . S
C1713 C1712 1.404 . S
C1713 H1725 0.930 . S
C1714 C1710 1.524 . S
C1714 H1726 0.956 . S
C1714 H1727 0.961 . S
C1714 H1728 0.961 . S
C1715 C1712 1.539 . S
C1715 H1729 0.958 . S
C1715 H1730 0.961 . S
C1715 H1731 0.960 . S
H1716 C1700 0.931 . S
H1717 C1705 0.929 . S
H1718 C1706 0.960 . S
H1719 C1706 0.962 . S
H1720 C1706 0.960 . S
H1721 C1707 0.961 . S
H1722 C1707 0.961 . S
H1723 C1707 0.961 . S
H1724 C1708 0.931 . S
H1725 C1713 0.930 . S
H1726 C1714 0.956 . S
H1727 C1714 0.961 . S
H1728 C1714 0.961 . S
H1729 C1715 0.958 . S
H1730 C1715 0.961 . S
H1731 C1715 0.960 . S
C1732 C1733 1.391 . S
C1732 C1734 1.394 . S
C1732 H1748 0.931 . S
C1733 C1732 1.391 . S
C1733 C1737 1.376 . S
C1734 C1732 1.394 . S
C1734 C1735 1.369 . S
C1734 C1738 1.531 . S
C1735 C1734 1.369 . S
C1735 C1736 1.410 . S
C1735 C1743 1.503 . S
C1736 C1735 1.410 . S
C1736 C1737 1.392 . S
C1736 C1739 1.511 . S
C1737 C1733 1.376 . S
C1737 C1736 1.392 . S
C1737 H1749 0.929 . S
C1738 C1734 1.531 . S
C1738 H1750 0.960 . S
C1738 H1751 0.962 . S
C1738 H1752 0.960 . S
C1739 C1736 1.511 . S
C1739 H1753 0.961 . S
C1739 H1754 0.961 . S
C1739 H1755 0.961 . S
C1740 C1741 1.370 . S
C1740 C1742 1.363 . S
C1740 H1756 0.931 . S
C1741 C1740 1.370 . S
C1741 C1745 1.408 . S
C1742 C1740 1.363 . S
C1742 C1743 1.370 . S
C1742 C1746 1.524 . S
C1743 C1735 1.503 . S
C1743 C1742 1.370 . S
C1743 C1744 1.403 . S
C1744 C1743 1.403 . S
C1744 C1745 1.404 . S
C1744 C1747 1.539 . S
C1745 C1741 1.408 . S
C1745 C1744 1.404 . S
C1745 H1757 0.930 . S
C1746 C1742 1.524 . S
C1746 H1758 0.956 . S
C1746 H1759 0.961 . S
C1746 H1760 0.961 . S
C1747 C1744 1.539 . S
C1747 H1761 0.958 . S
C1747 H1762 0.961 . S
C1747 H1763 0.960 . S
H1748 C1732 0.931 . S
H1749 C1737 0.929 . S
H1750 C1738 0.960 . S
H1751 C1738 0.962 . S
H1752 C1738 0.960 . S
H1753 C1739 0.961 . S
H1754 C1739 0.961 . S
H1755 C1739 0.961 . S
H1756 C1740 0.931 . S
H1757 C1745 0.930 . S
H1758 C1746 0.956 . S
H1759 C1746 0.961 . S
H1760 C1746 0.961 . S
H1761 C1747 0.958 . S
H1762 C1747 0.961 . S
H1763 C1747 0.960 . S
C1764 C1765 1.391 . S
C1764 C1766 1.394 . S
C1764 H1780 0.931 . S
C1765 C1764 1.391 . S
C1765 C1769 1.376 . S
C1766 C1764 1.394 . S
C1766 C1767 1.369 . S
C1766 C1770 1.531 . S
C1767 C1766 1.369 . S
C1767 C1768 1.410 . S
C1767 C1775 1.503 . S
C1768 C1767 1.410 . S
C1768 C1769 1.392 . S
C1768 C1771 1.511 . S
C1769 C1765 1.376 . S
C1769 C1768 1.392 . S
C1769 H1781 0.929 . S
C1770 C1766 1.531 . S
C1770 H1782 0.960 . S
C1770 H1783 0.962 . S
C1770 H1784 0.960 . S
C1771 C1768 1.511 . S
C1771 H1785 0.961 . S
C1771 H1786 0.961 . S
C1771 H1787 0.961 . S
C1772 C1773 1.370 . S
C1772 C1774 1.363 . S
C1772 H1788 0.931 . S
C1773 C1772 1.370 . S
C1773 C1777 1.408 . S
C1774 C1772 1.363 . S
C1774 C1775 1.370 . S
C1774 C1778 1.524 . S
C1775 C1767 1.503 . S
C1775 C1774 1.370 . S
C1775 C1776 1.403 . S
C1776 C1775 1.403 . S
C1776 C1777 1.404 . S
C1776 C1779 1.539 . S
C1777 C1773 1.408 . S
C1777 C1776 1.404 . S
C1777 H1789 0.930 . S
C1778 C1774 1.524 . S
C1778 H1790 0.956 . S
C1778 H1791 0.961 . S
C1778 H1792 0.961 . S
C1779 C1776 1.539 . S
C1779 H1793 0.958 . S
C1779 H1794 0.961 . S
C1779 H1795 0.960 . S
H1780 C1764 0.931 . S
H1781 C1769 0.929 . S
H1782 C1770 0.960 . S
H1783 C1770 0.962 . S
H1784 C1770 0.960 . S
H1785 C1771 0.961 . S
H1786 C1771 0.961 . S
H1787 C1771 0.961 . S
H1788 C1772 0.931 . S
H1789 C1777 0.930 . S
H1790 C1778 0.956 . S
H1791 C1778 0.961 . S
H1792 C1778 0.961 . S
H1793 C1779 0.958 . S
H1794 C1779 0.961 . S
H1795 C1779 0.960 . S
C1796 C1797 1.391 . S
C1796 C1798 1.394 . S
C1796 H1812 0.931 . S
C1797 C1796 1.391 . S
C1797 C1801 1.376 . S
C1798 C1796 1.394 . S
C1798 C1799 1.369 . S
C1798 C1802 1.531 . S
C1799 C1798 1.369 . S
C1799 C1800 1.410 . S
C1799 C1807 1.503 . S
C1800 C1799 1.410 . S
C1800 C1801 1.392 . S
C1800 C1803 1.511 . S
C1801 C1797 1.376 . S
C1801 C1800 1.392 . S
C1801 H1813 0.929 . S
C1802 C1798 1.531 . S
C1802 H1814 0.960 . S
C1802 H1815 0.962 . S
C1802 H1816 0.960 . S
C1803 C1800 1.511 . S
C1803 H1817 0.961 . S
C1803 H1818 0.961 . S
C1803 H1819 0.961 . S
C1804 C1805 1.370 . S
C1804 C1806 1.363 . S
C1804 H1820 0.931 . S
C1805 C1804 1.370 . S
C1805 C1809 1.408 . S
C1806 C1804 1.363 . S
C1806 C1807 1.370 . S
C1806 C1810 1.524 . S
C1807 C1799 1.503 . S
C1807 C1806 1.370 . S
C1807 C1808 1.403 . S
C1808 C1807 1.403 . S
C1808 C1809 1.404 . S
C1808 C1811 1.539 . S
C1809 C1805 1.408 . S
C1809 C1808 1.404 . S
C1809 H1821 0.930 . S
C1810 C1806 1.524 . S
C1810 H1822 0.956 . S
C1810 H1823 0.961 . S
C1810 H1824 0.961 . S
C1811 C1808 1.539 . S
C1811 H1825 0.958 . S
C1811 H1826 0.961 . S
C1811 H1827 0.960 . S
H1812 C1796 0.931 . S
H1813 C1801 0.929 . S
H1814 C1802 0.960 . S
H1815 C1802 0.962 . S
H1816 C1802 0.960 . S
H1817 C1803 0.961 . S
H1818 C1803 0.961 . S
H1819 C1803 0.961 . S
H1820 C1804 0.931 . S
H1821 C1809 0.930 . S
H1822 C1810 0.956 . S
H1823 C1810 0.961 . S
H1824 C1810 0.961 . S
H1825 C1811 0.958 . S
H1826 C1811 0.961 . S
H1827 C1811 0.960 . S
C1828 C1829 1.391 . S
C1828 C1830 1.394 . S
C1828 H1844 0.931 . S
C1829 C1828 1.391 . S
C1829 C1833 1.376 . S
C1830 C1828 1.394 . S
C1830 C1831 1.369 . S
C1830 C1834 1.531 . S
C1831 C1830 1.369 . S
C1831 C1832 1.410 . S
C1831 C1839 1.503 . S
C1832 C1831 1.410 . S
C1832 C1833 1.392 . S
C1832 C1835 1.511 . S
C1833 C1829 1.376 . S
C1833 C1832 1.392 . S
C1833 H1845 0.929 . S
C1834 C1830 1.531 . S
C1834 H1846 0.960 . S
C1834 H1847 0.962 . S
C1834 H1848 0.960 . S
C1835 C1832 1.511 . S
C1835 H1849 0.961 . S
C1835 H1850 0.961 . S
C1835 H1851 0.961 . S
C1836 C1837 1.370 . S
C1836 C1838 1.363 . S
C1836 H1852 0.931 . S
C1837 C1836 1.370 . S
C1837 C1841 1.408 . S
C1838 C1836 1.363 . S
C1838 C1839 1.370 . S
C1838 C1842 1.524 . S
C1839 C1831 1.503 . S
C1839 C1838 1.370 . S
C1839 C1840 1.403 . S
C1840 C1839 1.403 . S
C1840 C1841 1.404 . S
C1840 C1843 1.539 . S
C1841 C1837 1.408 . S
C1841 C1840 1.404 . S
C1841 H1853 0.930 . S
C1842 C1838 1.524 . S
C1842 H1854 0.956 . S
C1842 H1855 0.961 . S
C1842 H1856 0.961 . S
C1843 C1840 1.539 . S
C1843 H1857 0.958 . S
C1843 H1858 0.961 . S
C1843 H1859 0.960 . S
H1844 C1828 0.931 . S
H1845 C1833 0.929 . S
H1846 C1834 0.960 . S
H1847 C1834 0.962 . S
H1848 C1834 0.960 . S
H1849 C1835 0.961 . S
H1850 C1835 0.961 . S
H1851 C1835 0.961 . S
H1852 C1836 0.931 . S
H1853 C1841 0.930 . S
H1854 C1842 0.956 . S
H1855 C1842 0.961 . S
H1856 C1842 0.961 . S
H1857 C1843 0.958 . S
H1858 C1843 0.961 . S
H1859 C1843 0.960 . S
C1860 C1861 1.391 . S
C1860 C1862 1.394 . S
C1860 H1876 0.931 . S
C1861 C1860 1.391 . S
C1861 C1865 1.376 . S
C1862 C1860 1.394 . S
C1862 C1863 1.369 . S
C1862 C1866 1.531 . S
C1863 C1862 1.369 . S
C1863 C1864 1.410 . S
C1863 C1871 1.503 . S
C1864 C1863 1.410 . S
C1864 C1865 1.392 . S
C1864 C1867 1.511 . S
C1865 C1861 1.376 . S
C1865 C1864 1.392 . S
C1865 H1877 0.929 . S
C1866 C1862 1.531 . S
C1866 H1878 0.960 . S
C1866 H1879 0.962 . S
C1866 H1880 0.960 . S
C1867 C1864 1.511 . S
C1867 H1881 0.961 . S
C1867 H1882 0.961 . S
C1867 H1883 0.961 . S
C1868 C1869 1.370 . S
C1868 C1870 1.363 . S
C1868 H1884 0.931 . S
C1869 C1868 1.370 . S
C1869 C1873 1.408 . S
C1870 C1868 1.363 . S
C1870 C1871 1.370 . S
C1870 C1874 1.524 . S
C1871 C1863 1.503 . S
C1871 C1870 1.370 . S
C1871 C1872 1.403 . S
C1872 C1871 1.403 . S
C1872 C1873 1.404 . S
C1872 C1875 1.539 . S
C1873 C1869 1.408 . S
C1873 C1872 1.404 . S
C1873 H1885 0.930 . S
C1874 C1870 1.524 . S
C1874 H1886 0.956 . S
C1874 H1887 0.961 . S
C1874 H1888 0.961 . S
C1875 C1872 1.539 . S
C1875 H1889 0.958 . S
C1875 H1890 0.961 . S
C1875 H1891 0.960 . S
H1876 C1860 0.931 . S
H1877 C1865 0.929 . S
H1878 C1866 0.960 . S
H1879 C1866 0.962 . S
H1880 C1866 0.960 . S
H1881 C1867 0.961 . S
H1882 C1867 0.961 . S
H1883 C1867 0.961 . S
H1884 C1868 0.931 . S
H1885 C1873 0.930 . S
H1886 C1874 0.956 . S
H1887 C1874 0.961 . S
H1888 C1874 0.961 . S
H1889 C1875 0.958 . S
H1890 C1875 0.961 . S
H1891 C1875 0.960 . S
C1892 C1893 1.391 . S
C1892 C1894 1.394 . S
C1892 H1908 0.931 . S
C1893 C1892 1.391 . S
C1893 C1897 1.376 . S
C1894 C1892 1.394 . S
C1894 C1895 1.369 . S
C1894 C1898 1.531 . S
C1895 C1894 1.369 . S
C1895 C1896 1.410 . S
C1895 C1903 1.503 . S
C1896 C1895 1.410 . S
C1896 C1897 1.392 . S
C1896 C1899 1.511 . S
C1897 C1893 1.376 . S
C1897 C1896 1.392 . S
C1897 H1909 0.929 . S
C1898 C1894 1.531 . S
C1898 H1910 0.960 . S
C1898 H1911 0.962 . S
C1898 H1912 0.960 . S
C1899 C1896 1.511 . S
C1899 H1913 0.961 . S
C1899 H1914 0.961 . S
C1899 H1915 0.961 . S
C1900 C1901 1.370 . S
C1900 C1902 1.363 . S
C1900 H1916 0.931 . S
C1901 C1900 1.370 . S
C1901 C1905 1.408 . S
C1902 C1900 1.363 . S
C1902 C1903 1.370 . S
C1902 C1906 1.524 . S
C1903 C1895 1.503 . S
C1903 C1902 1.370 . S
C1903 C1904 1.403 . S
C1904 C1903 1.403 . S
C1904 C1905 1.404 . S
C1904 C1907 1.539 . S
C1905 C1901 1.408 . S
C1905 C1904 1.404 . S
C1905 H1917 0.930 . S
C1906 C1902 1.524 . S
C1906 H1918 0.956 . S
C1906 H1919 0.961 . S
C1906 H1920 0.961 . S
C1907 C1904 1.539 . S
C1907 H1921 0.958 . S
C1907 H1922 0.961 . S
C1907 H1923 0.960 . S
H1908 C1892 0.931 . S
H1909 C1897 0.929 . S
H1910 C1898 0.960 . S
H1911 C1898 0.962 . S
H1912 C1898 0.960 . S
H1913 C1899 0.961 . S
H1914 C1899 0.961 . S
H1915 C1899 0.961 . S
H1916 C1900 0.931 . S
H1917 C1905 0.930 . S
H1918 C1906 0.956 . S
H1919 C1906 0.961 . S
H1920 C1906 0.961 . S
H1921 C1907 0.958 . S
H1922 C1907 0.961 . S
H1923 C1907 0.960 . S
C1924 C1925 1.391 . S
C1924 C1926 1.394 . S
C1924 H1940 0.931 . S
C1925 C1924 1.391 . S
C1925 C1929 1.376 . S
C1926 C1924 1.394 . S
C1926 C1927 1.369 . S
C1926 C1930 1.531 . S
C1927 C1926 1.369 . S
C1927 C1928 1.410 . S
C1927 C1935 1.503 . S
C1928 C1927 1.410 . S
C1928 C1929 1.392 . S
C1928 C1931 1.511 . S
C1929 C1925 1.376 . S
C1929 C1928 1.392 . S
C1929 H1941 0.929 . S
C1930 C1926 1.531 . S
C1930 H1942 0.960 . S
C1930 H1943 0.962 . S
C1930 H1944 0.960 . S
C1931 C1928 1.511 . S
C1931 H1945 0.961 . S
C1931 H1946 0.961 . S
C1931 H1947 0.961 . S
C1932 C1933 1.370 . S
C1932 C1934 1.363 . S
C1932 H1948 0.931 . S
C1933 C1932 1.370 . S
C1933 C1937 1.408 . S
C1934 C1932 1.363 . S
C1934 C1935 1.370 . S
C1934 C1938 1.524 . S
C1935 C1927 1.503 . S
C1935 C1934 1.370 . S
C1935 C1936 1.403 . S
C1936 C1935 1.403 . S
C1936 C1937 1.404 . S
C1936 C1939 1.539 . S
C1937 C1933 1.408 . S
C1937 C1936 1.404 . S
C1937 H1949 0.930 . S
C1938 C1934 1.524 . S
C1938 H1950 0.956 . S
C1938 H1951 0.961 . S
C1938 H1952 0.961 . S
C1939 C1936 1.539 . S
C1939 H1953 0.958 . S
C1939 H1954 0.961 . S
C1939 H1955 0.960 . S
H1940 C1924 0.931 . S
H1941 C1929 0.929 . S
H1942 C1930 0.960 . S
H1943 C1930 0.962 . S
H1944 C1930 0.960 . S
H1945 C1931 0.961 . S
H1946 C1931 0.961 . S
H1947 C1931 0.961 . S
H1948 C1932 0.931 . S
H1949 C1937 0.930 . S
H1950 C1938 0.956 . S
H1951 C1938 0.961 . S
H1952 C1938 0.961 . S
H1953 C1939 0.958 . S
H1954 C1939 0.961 . S
H1955 C1939 0.960 . S
C1956 C1957 1.391 . S
C1956 C1958 1.394 . S
C1956 H1972 0.931 . S
C1957 C1956 1.391 . S
C1957 C1961 1.376 . S
C1958 C1956 1.394 . S
C1958 C1959 1.369 . S
C1958 C1962 1.531 . S
C1959 C1958 1.369 . S
C1959 C1960 1.410 . S
C1959 C1967 1.503 . S
C1960 C1959 1.410 . S
C1960 C1961 1.392 . S
C1960 C1963 1.511 . S
C1961 C1957 1.376 . S
C1961 C1960 1.392 . S
C1961 H1973 0.929 . S
C1962 C1958 1.531 . S
C1962 H1974 0.960 . S
C1962 H1975 0.962 . S
C1962 H1976 0.960 . S
C1963 C1960 1.511 . S
C1963 H1977 0.961 . S
C1963 H1978 0.961 . S
C1963 H1979 0.961 . S
C1964 C1965 1.370 . S
C1964 C1966 1.363 . S
C1964 H1980 0.931 . S
C1965 C1964 1.370 . S
C1965 C1969 1.408 . S
C1966 C1964 1.363 . S
C1966 C1967 1.370 . S
C1966 C1970 1.524 . S
C1967 C1959 1.503 . S
C1967 C1966 1.370 . S
C1967 C1968 1.403 . S
C1968 C1967 1.403 . S
C1968 C1969 1.404 . S
C1968 C1971 1.539 . S
C1969 C1965 1.408 . S
C1969 C1968 1.404 . S
C1969 H1981 0.930 . S
C1970 C1966 1.524 . S
C1970 H1982 0.956 . S
C1970 H1983 0.961 . S
C1970 H1984 0.961 . S
C1971 C1968 1.539 . S
C1971 H1985 0.958 . S
C1971 H1986 0.961 . S
C1971 H1987 0.960 . S
H1972 C1956 0.931 . S
H1973 C1961 0.929 . S
H1974 C1962 0.960 . S
H1975 C1962 0.962 . S
H1976 C1962 0.960 . S
H1977 C1963 0.961 . S
H1978 C1963 0.961 . S
H1979 C1963 0.961 . S
H1980 C1964 0.931 . S
H1981 C1969 0.930 . S
H1982 C1970 0.956 . S
H1983 C1970 0.961 . S
H1984 C1970 0.961 . S
H1985 C1971 0.958 . S
H1986 C1971 0.961 . S
H1987 C1971 0.960 . S
C1988 C1989 1.391 . S
C1988 C1990 1.394 . S
C1988 H2004 0.931 . S
C1989 C1988 1.391 . S
C1989 C1993 1.376 . S
C1990 C1988 1.394 . S
C1990 C1991 1.369 . S
C1990 C1994 1.531 . S
C1991 C1990 1.369 . S
C1991 C1992 1.410 . S
C1991 C1999 1.503 . S
C1992 C1991 1.410 . S
C1992 C1993 1.392 . S
C1992 C1995 1.511 . S
C1993 C1989 1.376 . S
C1993 C1992 1.392 . S
C1993 H2005 0.929 . S
C1994 C1990 1.531 . S
C1994 H2006 0.960 . S
C1994 H2007 0.962 . S
C1994 H2008 0.960 . S
C1995 C1992 1.511 . S
C1995 H2009 0.961 . S
C1995 H2010 0.961 . S
C1995 H2011 0.961 . S
C1996 C1997 1.370 . S
C1996 C1998 1.363 . S
C1996 H2012 0.931 . S
C1997 C1996 1.370 . S
C1997 C2001 1.408 . S
C1998 C1996 1.363 . S
C1998 C1999 1.370 . S
C1998 C2002 1.524 . S
C1999 C1991 1.503 . S
C1999 C1998 1.370 . S
C1999 C2000 1.403 . S
C2000 C1999 1.403 . S
C2000 C2001 1.404 . S
C2000 C2003 1.539 . S
C2001 C1997 1.408 . S
C2001 C2000 1.404 . S
C2001 H2013 0.930 . S
C2002 C1998 1.524 . S
C2002 H2014 0.956 . S
C2002 H2015 0.961 . S
C2002 H2016 0.961 . S
C2003 C2000 1.539 . S
C2003 H2017 0.958 . S
C2003 H2018 0.961 . S
C2003 H2019 0.960 . S
H2004 C1988 0.931 . S
H2005 C1993 0.929 . S
H2006 C1994 0.960 . S
H2007 C1994 0.962 . S
H2008 C1994 0.960 . S
H2009 C1995 0.961 . S
H2010 C1995 0.961 . S
H2011 C1995 0.961 . S
H2012 C1996 0.931 . S
H2013 C2001 0.930 . S
H2014 C2002 0.956 . S
H2015 C2002 0.961 . S
H2016 C2002 0.961 . S
H2017 C2003 0.958 . S
H2018 C2003 0.961 . S
H2019 C2003 0.960 . S
C2020 C2021 1.391 . S
C2020 C2022 1.394 . S
C2020 H2036 0.931 . S
C2021 C2020 1.391 . S
C2021 C2025 1.376 . S
C2022 C2020 1.394 . S
C2022 C2023 1.369 . S
C2022 C2026 1.531 . S
C2023 C2022 1.369 . S
C2023 C2024 1.410 . S
C2023 C2031 1.503 . S
C2024 C2023 1.410 . S
C2024 C2025 1.392 . S
C2024 C2027 1.511 . S
C2025 C2021 1.376 . S
C2025 C2024 1.392 . S
C2025 H2037 0.929 . S
C2026 C2022 1.531 . S
C2026 H2038 0.960 . S
C2026 H2039 0.962 . S
C2026 H2040 0.960 . S
C2027 C2024 1.511 . S
C2027 H2041 0.961 . S
C2027 H2042 0.961 . S
C2027 H2043 0.961 . S
C2028 C2029 1.370 . S
C2028 C2030 1.363 . S
C2028 H2044 0.931 . S
C2029 C2028 1.370 . S
C2029 C2033 1.408 . S
C2030 C2028 1.363 . S
C2030 C2031 1.370 . S
C2030 C2034 1.524 . S
C2031 C2023 1.503 . S
C2031 C2030 1.370 . S
C2031 C2032 1.403 . S
C2032 C2031 1.403 . S
C2032 C2033 1.404 . S
C2032 C2035 1.539 . S
C2033 C2029 1.408 . S
C2033 C2032 1.404 . S
C2033 H2045 0.930 . S
C2034 C2030 1.524 . S
C2034 H2046 0.956 . S
C2034 H2047 0.961 . S
C2034 H2048 0.961 . S
C2035 C2032 1.539 . S
C2035 H2049 0.958 . S
C2035 H2050 0.961 . S
C2035 H2051 0.960 . S
H2036 C2020 0.931 . S
H2037 C2025 0.929 . S
H2038 C2026 0.960 . S
H2039 C2026 0.962 . S
H2040 C2026 0.960 . S
H2041 C2027 0.961 . S
H2042 C2027 0.961 . S
H2043 C2027 0.961 . S
H2044 C2028 0.931 . S
H2045 C2033 0.930 . S
H2046 C2034 0.956 . S
H2047 C2034 0.961 . S
H2048 C2034 0.961 . S
H2049 C2035 0.958 . S
H2050 C2035 0.961 . S
H2051 C2035 0.960 . S
C613 C349 1.329 . S
C621 C9 1.291 . S
C645 C43 1.285 . S
C653 C383 1.304 . S
C677 C315 1.313 . S
C685 C77 1.313 . S
C709 C485 1.269 . S
C717 C111 1.313 . S
C741 C145 1.266 . S
C749 C417 1.318 . S
C773 C451 1.299 . S
C781 C179 1.318 . S
C805 C172 2.019 . S
C813 C478 2.028 . S
C837 C410 2.019 . S
C845 C104 2.028 . S
C869 C444 2.024 . S
C877 C138 2.029 . S
C901 C36 2.031 . S
C909 C342 2.032 . S
C933 C70 2.020 . S
C941 C376 2.028 . S
C965 C2 2.019 . S
C973 C308 2.028 . S
C997 C553 1.267 . S
C1005 C213 1.315 . S
C1029 C587 1.285 . S
C1037 C247 1.304 . S
C1061 C519 1.322 . S
C1069 C281 1.309 . S
C1093 C240 2.022 . S
C1101 C546 2.029 . S
C1125 C580 2.023 . S
C1133 C274 2.029 . S
C1157 C206 2.031 . S
C1165 C512 2.033 . S
C1189 C33 1.374 . S
C1197 C611 1.378 . S
C1221 C67 1.367 . S
C1229 C543 1.373 . S
C1253 C101 1.367 . S
C1261 C577 1.373 . S
C1285 C271 1.360 . S
C1293 C135 1.372 . S
C1317 C169 1.385 . S
C1325 C305 1.382 . S
C1349 C203 1.377 . S
C1357 C237 1.377 . S
C1381 C339 1.365 . S
C1389 C475 1.374 . S
C1413 C373 1.365 . S
C1421 C509 1.372 . S
C1445 C407 1.379 . S
C1453 C441 1.380 . S
C1477 C73 1.570 . S
C1485 C20 1.649 . S
C1509 C54 1.654 . S
C1517 C5 1.532 . S
C1541 C39 1.557 . S
C1549 C88 1.649 . S
C1573 C141 1.532 . S
C1581 C122 1.649 . S
C1605 C156 1.654 . S
C1613 C175 1.533 . S
C1637 C107 1.570 . S
C1645 C190 1.650 . S
C1669 C224 1.649 . S
C1677 C277 1.518 . S
C1701 C209 1.498 . S
C1709 C258 1.654 . S
C1733 C292 1.641 . S
C1741 C243 1.533 . S
C1765 C326 1.654 . S
C1773 C345 1.528 . S
C1797 C379 1.547 . S
C1805 C360 1.653 . S
C1829 C394 1.640 . S
C1837 C311 1.540 . S
C1861 C428 1.643 . S
C1869 C481 1.551 . S
C1893 C413 1.499 . S
C1901 C462 1.654 . S
C1925 C496 1.641 . S
C1933 C447 1.548 . S
C1957 C530 1.641 . S
C1965 C549 1.536 . S
C1989 C583 1.563 . S
C1997 C564 1.649 . S
C2021 C515 1.509 . S
C2029 C598 1.650 . S
