# Generated by pormake.
# Topology umm, (4)-cn, num edge types: 1
# Building blocks:
#     Node 0, Type 0, BuildingBlock: ICAMEG_clean_sbu_1, # of connection points: 4
#     Node 1, Type 0, BuildingBlock: ICAMEG_clean_sbu_1, # of connection points: 4
#     Node 2, Type 0, BuildingBlock: ICAMEG_clean_sbu_1, # of connection points: 4
#     Node 3, Type 0, BuildingBlock: ICAMEG_clean_sbu_1, # of connection points: 4
#     Node 4, Type 0, BuildingBlock: ICAMEG_clean_sbu_1, # of connection points: 4
#     Node 5, Type 0, BuildingBlock: ICAMEG_clean_sbu_1, # of connection points: 4
#     Node 6, Type 0, BuildingBlock: ICAMEG_clean_sbu_1, # of connection points: 4
#     Node 7, Type 0, BuildingBlock: ICAMEG_clean_sbu_1, # of connection points: 4
#     Node 8, Type 0, BuildingBlock: ICAMEG_clean_sbu_1, # of connection points: 4
#     Node 9, Type 0, BuildingBlock: ICAMEG_clean_sbu_1, # of connection points: 4
#     Node 10, Type 0, BuildingBlock: ICAMEG_clean_sbu_1, # of connection points: 4
#     Node 11, Type 0, BuildingBlock: ICAMEG_clean_sbu_1, # of connection points: 4
#     Edge 12, Type (0, 0), BuildingBlock: KIFKEQ_clean_linker_1, # of connection points: 2
#     Edge 13, Type (0, 0), BuildingBlock: KIFKEQ_clean_linker_1, # of connection points: 2
#     Edge 14, Type (0, 0), BuildingBlock: KIFKEQ_clean_linker_1, # of connection points: 2
#     Edge 15, Type (0, 0), BuildingBlock: KIFKEQ_clean_linker_1, # of connection points: 2
#     Edge 16, Type (0, 0), BuildingBlock: KIFKEQ_clean_linker_1, # of connection points: 2
#     Edge 17, Type (0, 0), BuildingBlock: KIFKEQ_clean_linker_1, # of connection points: 2
#     Edge 18, Type (0, 0), BuildingBlock: KIFKEQ_clean_linker_1, # of connection points: 2
#     Edge 19, Type (0, 0), BuildingBlock: KIFKEQ_clean_linker_1, # of connection points: 2
#     Edge 20, Type (0, 0), BuildingBlock: KIFKEQ_clean_linker_1, # of connection points: 2
#     Edge 21, Type (0, 0), BuildingBlock: KIFKEQ_clean_linker_1, # of connection points: 2
#     Edge 22, Type (0, 0), BuildingBlock: KIFKEQ_clean_linker_1, # of connection points: 2
#     Edge 23, Type (0, 0), BuildingBlock: KIFKEQ_clean_linker_1, # of connection points: 2
#     Edge 24, Type (0, 0), BuildingBlock: KIFKEQ_clean_linker_1, # of connection points: 2
#     Edge 25, Type (0, 0), BuildingBlock: KIFKEQ_clean_linker_1, # of connection points: 2
#     Edge 26, Type (0, 0), BuildingBlock: KIFKEQ_clean_linker_1, # of connection points: 2
#     Edge 27, Type (0, 0), BuildingBlock: KIFKEQ_clean_linker_1, # of connection points: 2
#     Edge 28, Type (0, 0), BuildingBlock: KIFKEQ_clean_linker_1, # of connection points: 2
#     Edge 29, Type (0, 0), BuildingBlock: KIFKEQ_clean_linker_1, # of connection points: 2
#     Edge 30, Type (0, 0), BuildingBlock: KIFKEQ_clean_linker_1, # of connection points: 2
#     Edge 31, Type (0, 0), BuildingBlock: KIFKEQ_clean_linker_1, # of connection points: 2
#     Edge 32, Type (0, 0), BuildingBlock: KIFKEQ_clean_linker_1, # of connection points: 2
#     Edge 33, Type (0, 0), BuildingBlock: KIFKEQ_clean_linker_1, # of connection points: 2
#     Edge 34, Type (0, 0), BuildingBlock: KIFKEQ_clean_linker_1, # of connection points: 2
#     Edge 35, Type (0, 0), BuildingBlock: KIFKEQ_clean_linker_1, # of connection points: 2
# Relax obj value: 0.064
# Max RMSD: 0.165
# Mean RMSD: 0.165
data_MOF--net-umm--node1-ICAMEG_clean_sbu_1--edge1-KIFKEQ_clean_linker_1
_symmetry_space_group_name_H-M    P1
_symmetry_Int_Tables_number       1
_symmetry_cell_setting            triclinic
loop_
_symmetry_equiv_pos_as_xyz
'x, y, z'
_cell_length_a     61.533182
_cell_length_b     61.533099
_cell_length_c     30.904814
_cell_angle_alpha  89.989612
_cell_angle_beta   89.986688
_cell_angle_gamma 120.02369
loop_
_atom_site_label
_atom_site_type_symbol
_atom_site_fract_x
_atom_site_fract_y
_atom_site_fract_z
_atom_type_partial_charge
Co0 Co 0.37871 0.50905 0.04492 0.0
Co1 Co 0.42382 0.56894 0.07642 0.0
O2 O 0.39066 0.53899 0.0809 0.0
C3 C 0.34396 0.52767 0.02872 0.0
O4 O 0.36415 0.54993 0.0271 0.0
C5 C 0.42067 0.55157 0.16585 0.0
O6 O 0.41108 0.52885 0.14984 0.0
O7 O 0.44037 0.54836 0.07447 0.0
O8 O 0.41143 0.50965 0.05243 0.0
H9 H 0.51084 0.62197 0.01656 0.0
H10 H 0.34781 0.50853 0.1189 0.0
O11 O 0.34592 0.50832 0.03607 0.0
H12 H 0.36731 0.44148 0.14968 0.0
H13 H 0.3139 0.4234 0.992 0.0
H14 H 0.40099 0.49291 0.97578 0.0
H15 H 0.38245 0.46644 0.08263 0.0
H16 H 0.32989 0.46133 0.03744 0.0
O17 O 0.4267 0.57021 0.14089 0.0
H18 H 0.46875 0.58437 0.02152 0.0
H19 H 0.44974 0.61725 0.12486 0.0
H20 H 0.38586 0.45525 0.92993 0.0
H21 H 0.33213 0.48391 0.18622 0.0
H22 H 0.34202 0.42016 0.9379 0.0
H23 H 0.34195 0.45017 0.202 0.0
O24 O 0.39174 0.52953 0.99155 0.0
H25 H 0.36353 0.59434 0.13458 0.0
H26 H 0.42761 0.61123 0.02342 0.0
H27 H 0.40622 0.63608 0.02392 0.0
H28 H 0.37392 0.62768 0.0798 0.0
H29 H 0.38524 0.56981 0.13268 0.0
H30 H 0.49169 0.65513 0.1213 0.0
H31 H 0.52253 0.6577 0.06671 0.0
O32 O 0.42184 0.56809 0.01202 0.0
C33 C 0.43375 0.52586 0.06386 0.0
C34 C 0.49752 0.62114 0.04033 0.0
C35 C 0.48679 0.63973 0.09916 0.0
N36 N 0.45671 0.59878 0.07302 0.0
C37 C 0.47363 0.59994 0.04316 0.0
C38 C 0.46308 0.61823 0.10105 0.0
C39 C 0.50408 0.64116 0.06852 0.0
C40 C 0.35193 0.49371 0.12537 0.0
N41 N 0.36589 0.48883 0.0968 0.0
C42 C 0.3431 0.4799 0.16361 0.0
C43 C 0.34865 0.461 0.17248 0.0
C44 C 0.36289 0.45612 0.14314 0.0
C45 C 0.37144 0.47034 0.10527 0.0
C46 C 0.33306 0.43854 0.98829 0.0
C47 C 0.38195 0.47763 0.97963 0.0
C48 C 0.3422 0.46007 0.01386 0.0
N49 N 0.36641 0.47919 0.00949 0.0
C50 C 0.37346 0.4564 0.95349 0.0
C51 C 0.34885 0.43673 0.95795 0.0
C52 C 0.40874 0.55199 0.98322 0.0
C53 C 0.37763 0.59823 0.11016 0.0
C54 C 0.41357 0.60746 0.04782 0.0
C55 C 0.40155 0.62162 0.04799 0.0
C56 C 0.38344 0.61691 0.07937 0.0
N57 N 0.40777 0.58918 0.07814 0.0
C58 C 0.39006 0.58449 0.10905 0.0
Co59 Co 0.87192 0.37906 0.38325 0.0
Co60 Co 0.85713 0.42442 0.41283 0.0
O61 O 0.85378 0.39126 0.41822 0.0
C62 C 0.81856 0.34505 0.36501 0.0
O63 O 0.81691 0.36546 0.36336 0.0
C64 C 0.87106 0.42165 0.50284 0.0
O65 O 0.88399 0.41166 0.48756 0.0
O66 O 0.89434 0.44088 0.41059 0.0
O67 O 0.90414 0.41143 0.39206 0.0
H68 H 0.89071 0.51056 0.34935 0.0
H69 H 0.83999 0.34804 0.4559 0.0
O70 O 0.83964 0.3466 0.37302 0.0
H71 H 0.92557 0.36601 0.49118 0.0
H72 H 0.89211 0.31349 0.33221 0.0
H73 H 0.91159 0.40117 0.31601 0.0
H74 H 0.91724 0.38181 0.42345 0.0
H75 H 0.86997 0.32984 0.37625 0.0
O76 O 0.85887 0.42788 0.47727 0.0
H77 H 0.88606 0.46847 0.35575 0.0
H78 H 0.83544 0.45118 0.46074 0.0
H79 H 0.93431 0.38567 0.27156 0.0
H80 H 0.84743 0.33171 0.52386 0.0
H81 H 0.92461 0.34153 0.27953 0.0
H82 H 0.8905 0.34076 0.5419 0.0
O83 O 0.86586 0.39272 0.32927 0.0
H84 H 0.77147 0.36473 0.47204 0.0
H85 H 0.81859 0.42809 0.35979 0.0
H86 H 0.77234 0.40686 0.36065 0.0
H87 H 0.74848 0.37492 0.41708 0.0
H88 H 0.81772 0.38627 0.46977 0.0
H89 H 0.83971 0.49316 0.45573 0.0
H90 H 0.86743 0.52313 0.39959 0.0
O91 O 0.85574 0.42176 0.34852 0.0
C92 C 0.91025 0.43398 0.40181 0.0
C93 C 0.87851 0.49763 0.37385 0.0
C94 C 0.84991 0.48788 0.43359 0.0
N95 N 0.86033 0.45732 0.40832 0.0
C96 C 0.87574 0.47375 0.37753 0.0
C97 C 0.8476 0.46416 0.43633 0.0
C98 C 0.86546 0.50468 0.40208 0.0
C99 C 0.85872 0.35182 0.46336 0.0
N100 N 0.87812 0.36571 0.43566 0.0
C101 C 0.86285 0.34263 0.50195 0.0
C102 C 0.88703 0.34774 0.51209 0.0
C103 C 0.90672 0.36192 0.48365 0.0
C104 C 0.9019 0.37084 0.44539 0.0
C105 C 0.89655 0.33278 0.32852 0.0
C106 C 0.90739 0.38199 0.31987 0.0
C107 C 0.88405 0.34212 0.3533 0.0
N108 N 0.88965 0.36648 0.34894 0.0
C109 C 0.92026 0.3733 0.29452 0.0
C110 C 0.91478 0.34852 0.29897 0.0
C111 C 0.85987 0.40924 0.32011 0.0
C112 C 0.78166 0.37867 0.44737 0.0
C113 C 0.80833 0.41421 0.38443 0.0
C114 C 0.78215 0.40228 0.38479 0.0
C115 C 0.76877 0.38437 0.41649 0.0
N116 N 0.82084 0.40851 0.41484 0.0
C117 C 0.80785 0.39101 0.44605 0.0
Co118 Co 0.49192 0.86935 0.71098 0.0
Co119 Co 0.43221 0.85498 0.74283 0.0
O120 O 0.46212 0.85174 0.74743 0.0
C121 C 0.47311 0.81576 0.69634 0.0
O122 O 0.45084 0.81366 0.69496 0.0
C123 C 0.45008 0.87009 0.8318 0.0
O124 O 0.4727 0.88305 0.81531 0.0
O125 O 0.45285 0.8921 0.73969 0.0
O126 O 0.49146 0.90159 0.71759 0.0
H127 H 0.37903 0.88844 0.68177 0.0
H128 H 0.49263 0.83959 0.78582 0.0
O129 O 0.49251 0.83715 0.70301 0.0
H130 H 0.55997 0.92639 0.8142 0.0
H131 H 0.57727 0.88951 0.65752 0.0
H132 H 0.50786 0.90713 0.64077 0.0
H133 H 0.53477 0.916 0.74739 0.0
H134 H 0.53953 0.86806 0.70356 0.0
O135 O 0.43128 0.85729 0.80726 0.0
H136 H 0.41659 0.88393 0.68691 0.0
H137 H 0.38416 0.83323 0.79202 0.0
H138 H 0.54534 0.92917 0.59429 0.0
H139 H 0.51749 0.84911 0.85293 0.0
H140 H 0.58037 0.92039 0.60253 0.0
H141 H 0.55139 0.8928 0.86751 0.0
O142 O 0.47122 0.86142 0.65784 0.0
H143 H 0.40684 0.76985 0.8038 0.0
H144 H 0.3896 0.81597 0.69108 0.0
H145 H 0.36463 0.76972 0.69311 0.0
H146 H 0.37321 0.74636 0.74978 0.0
H147 H 0.43149 0.81608 0.80037 0.0
H148 H 0.34633 0.83735 0.78831 0.0
H149 H 0.34356 0.86504 0.73274 0.0
O150 O 0.43274 0.85315 0.67844 0.0
C151 C 0.47533 0.90786 0.72874 0.0
C152 C 0.37996 0.87622 0.70598 0.0
C153 C 0.36162 0.84757 0.76582 0.0
N154 N 0.40241 0.85807 0.73932 0.0
C155 C 0.40113 0.87351 0.70891 0.0
C156 C 0.38309 0.84533 0.76779 0.0
C157 C 0.36008 0.86311 0.73463 0.0
C158 C 0.50752 0.85859 0.79177 0.0
N159 N 0.51235 0.87718 0.76266 0.0
C160 C 0.52146 0.86389 0.82989 0.0
C161 C 0.54045 0.88842 0.83808 0.0
C162 C 0.54527 0.90728 0.80819 0.0
C163 C 0.53092 0.90129 0.77046 0.0
C164 C 0.56216 0.89354 0.65369 0.0
C165 C 0.52311 0.90336 0.64473 0.0
C166 C 0.54073 0.88142 0.6796 0.0
N167 N 0.52164 0.88652 0.67507 0.0
C168 C 0.54425 0.91583 0.61824 0.0
C169 C 0.56389 0.91087 0.62285 0.0
C170 C 0.44873 0.85585 0.64961 0.0
C171 C 0.40288 0.77982 0.77904 0.0
C172 C 0.39345 0.80593 0.71582 0.0
C173 C 0.37922 0.77975 0.71685 0.0
C174 C 0.38403 0.76665 0.74868 0.0
N175 N 0.41189 0.8187 0.74573 0.0
C176 C 0.41669 0.806 0.77707 0.0
Co177 Co 0.62351 0.49431 0.04253 0.0
Co178 Co 0.57851 0.43433 0.07328 0.0
O179 O 0.61163 0.46416 0.07773 0.0
C180 C 0.65769 0.47552 0.02271 0.0
O181 O 0.63714 0.45367 0.01885 0.0
C182 C 0.58114 0.4509 0.16319 0.0
O183 O 0.58867 0.47337 0.14747 0.0
O184 O 0.56196 0.45495 0.0726 0.0
O185 O 0.59087 0.49377 0.05077 0.0
H186 H 0.49111 0.38161 0.01488 0.0
H187 H 0.65452 0.49411 0.11577 0.0
O188 O 0.6562 0.49481 0.03312 0.0
H189 H 0.63557 0.56127 0.14913 0.0
H190 H 0.68858 0.58023 0.99107 0.0
H191 H 0.60125 0.51128 0.97464 0.0
H192 H 0.62005 0.53671 0.08178 0.0
H193 H 0.67249 0.54186 0.03543 0.0
O194 O 0.57634 0.43268 0.13792 0.0
H195 H 0.53323 0.41918 0.01948 0.0
H196 H 0.5529 0.38578 0.12108 0.0
H197 H 0.61649 0.54938 0.92987 0.0
H198 H 0.67059 0.51834 0.18335 0.0
H199 H 0.66046 0.58418 0.93796 0.0
H200 H 0.66107 0.55216 0.20042 0.0
O201 O 0.61018 0.47428 0.98872 0.0
H202 H 0.63931 0.40856 0.12742 0.0
H203 H 0.57423 0.39238 0.01875 0.0
H204 H 0.59562 0.36753 0.01714 0.0
H205 H 0.62841 0.37557 0.07176 0.0
H206 H 0.6176 0.43311 0.12764 0.0
H207 H 0.51092 0.34792 0.11784 0.0
H208 H 0.47973 0.34564 0.06432 0.0
O209 O 0.58002 0.43563 0.00879 0.0
C210 C 0.56856 0.4775 0.06228 0.0
C211 C 0.50458 0.38233 0.0382 0.0
C212 C 0.51568 0.36344 0.09603 0.0
N213 N 0.5456 0.40452 0.07011 0.0
C214 C 0.52849 0.4035 0.04082 0.0
C215 C 0.53941 0.38492 0.09774 0.0
C216 C 0.4982 0.36217 0.06598 0.0
C217 C 0.6505 0.50895 0.12282 0.0
N218 N 0.6365 0.5141 0.09479 0.0
C219 C 0.65956 0.52254 0.1612 0.0
C220 C 0.65419 0.54149 0.17078 0.0
C221 C 0.63987 0.5466 0.14203 0.0
C222 C 0.63109 0.53261 0.10399 0.0
C223 C 0.66938 0.56521 0.98731 0.0
C224 C 0.62035 0.52642 0.97853 0.0
C225 C 0.66018 0.54344 0.01227 0.0
N226 N 0.6359 0.52447 0.00785 0.0
C227 C 0.6289 0.54791 0.95301 0.0
C228 C 0.65358 0.56742 0.95753 0.0
C229 C 0.59301 0.45193 0.98013 0.0
C230 C 0.625 0.40484 0.10353 0.0
C231 C 0.58849 0.39599 0.04262 0.0
C232 C 0.60051 0.38184 0.04158 0.0
C233 C 0.6189 0.38635 0.07225 0.0
N234 N 0.59457 0.41408 0.07341 0.0
C235 C 0.61257 0.4186 0.10361 0.0
Co236 Co 0.13168 0.62358 0.37505 0.0
Co237 Co 0.14684 0.57885 0.40692 0.0
O238 O 0.14973 0.61183 0.41124 0.0
C239 C 0.18505 0.65834 0.35883 0.0
O240 O 0.18698 0.63809 0.35703 0.0
C241 C 0.13186 0.58096 0.49639 0.0
O242 O 0.11694 0.5884 0.48026 0.0
O243 O 0.10964 0.56203 0.40514 0.0
O244 O 0.09964 0.59075 0.38269 0.0
H245 H 0.11341 0.49176 0.34794 0.0
H246 H 0.16193 0.65458 0.44905 0.0
O247 O 0.16375 0.65645 0.36616 0.0
H248 H 0.07524 0.63488 0.47925 0.0
H249 H 0.1106 0.68809 0.32155 0.0
H250 H 0.09323 0.60106 0.306 0.0
H251 H 0.08521 0.61965 0.41249 0.0
H252 H 0.13265 0.67229 0.36715 0.0
O253 O 0.14563 0.57643 0.47151 0.0
H254 H 0.11752 0.53368 0.35249 0.0
H255 H 0.16965 0.55344 0.45564 0.0
H256 H 0.0706 0.61599 0.25998 0.0
H257 H 0.15284 0.67036 0.51608 0.0
H258 H 0.07925 0.65981 0.26762 0.0
H259 H 0.10922 0.66046 0.53155 0.0
O260 O 0.13923 0.61058 0.32177 0.0
H261 H 0.23263 0.63979 0.46412 0.0
H262 H 0.18537 0.57524 0.35373 0.0
H263 H 0.23164 0.5969 0.35382 0.0
H264 H 0.25557 0.62944 0.40931 0.0
H265 H 0.18636 0.61782 0.46263 0.0
H266 H 0.16597 0.51165 0.45247 0.0
H267 H 0.13776 0.48053 0.39818 0.0
O268 O 0.14775 0.58056 0.34241 0.0
C269 C 0.09365 0.56849 0.39439 0.0
C270 C 0.12586 0.5052 0.37159 0.0
C271 C 0.15533 0.51636 0.43029 0.0
N272 N 0.14406 0.54608 0.40388 0.0
C273 C 0.12834 0.529 0.37419 0.0
C274 C 0.15732 0.53997 0.43196 0.0
C275 C 0.1395 0.4989 0.39982 0.0
C276 C 0.14295 0.6504 0.45541 0.0
N277 N 0.12415 0.63636 0.42681 0.0
C278 C 0.1379 0.65929 0.49348 0.0
C279 C 0.1134 0.65371 0.50217 0.0
C280 C 0.09433 0.63935 0.47284 0.0
C281 C 0.10008 0.63074 0.43514 0.0
C282 C 0.10663 0.66894 0.31798 0.0
C283 C 0.09696 0.62009 0.30969 0.0
C284 C 0.11909 0.65992 0.34365 0.0
N285 N 0.11406 0.63573 0.33945 0.0
C286 C 0.08415 0.62847 0.28346 0.0
C287 C 0.08904 0.65306 0.28774 0.0
C288 C 0.14471 0.5936 0.31352 0.0
C289 C 0.2224 0.62559 0.43987 0.0
C290 C 0.19566 0.58939 0.37796 0.0
C291 C 0.22185 0.60156 0.37789 0.0
C292 C 0.23527 0.6198 0.40906 0.0
N293 N 0.18318 0.59518 0.40829 0.0
C294 C 0.1962 0.61301 0.43899 0.0
Co295 Co 0.50869 0.13015 0.71127 0.0
Co296 Co 0.56842 0.14428 0.74255 0.0
O297 O 0.53865 0.14776 0.74737 0.0
C298 C 0.52769 0.18371 0.69601 0.0
O299 O 0.54988 0.18562 0.69433 0.0
C300 C 0.55117 0.12999 0.83213 0.0
O301 O 0.52839 0.11694 0.81635 0.0
O302 O 0.54756 0.10717 0.74029 0.0
O303 O 0.50902 0.09784 0.71803 0.0
H304 H 0.62075 0.10982 0.68159 0.0
H305 H 0.50839 0.1602 0.78594 0.0
O306 O 0.50824 0.16242 0.70312 0.0
H307 H 0.44088 0.07361 0.8154 0.0
H308 H 0.42325 0.1102 0.65877 0.0
H309 H 0.49233 0.09213 0.64142 0.0
H310 H 0.46586 0.0837 0.74834 0.0
H311 H 0.46119 0.13167 0.7043 0.0
O312 O 0.56975 0.14248 0.80699 0.0
H313 H 0.58342 0.11471 0.68698 0.0
H314 H 0.61675 0.16613 0.79085 0.0
H315 H 0.45465 0.07006 0.59546 0.0
H316 H 0.48376 0.15099 0.8533 0.0
H317 H 0.41978 0.07907 0.604 0.0
H318 H 0.44978 0.10741 0.86842 0.0
O319 O 0.52918 0.13784 0.65786 0.0
H320 H 0.59463 0.22999 0.80164 0.0
H321 H 0.61086 0.18274 0.6897 0.0
H322 H 0.63607 0.22898 0.69062 0.0
H323 H 0.628 0.25291 0.74689 0.0
H324 H 0.56973 0.18375 0.79932 0.0
H325 H 0.65437 0.16164 0.78686 0.0
H326 H 0.65656 0.1334 0.73178 0.0
O327 O 0.56755 0.14568 0.67817 0.0
C328 C 0.52505 0.09148 0.7294 0.0
C329 C 0.62007 0.12228 0.70558 0.0
C330 C 0.63892 0.15134 0.7647 0.0
N331 N 0.59806 0.14094 0.73879 0.0
C332 C 0.59903 0.1252 0.70865 0.0
C333 C 0.61757 0.15379 0.76683 0.0
C334 C 0.64014 0.13549 0.73379 0.0
C335 C 0.49347 0.14125 0.79213 0.0
N336 N 0.48847 0.12254 0.76318 0.0
C337 C 0.47966 0.13612 0.83039 0.0
C338 C 0.46062 0.11165 0.83888 0.0
C339 C 0.45563 0.09268 0.80916 0.0
C340 C 0.46985 0.09849 0.77128 0.0
C341 C 0.43829 0.10607 0.65481 0.0
C342 C 0.47715 0.096 0.64551 0.0
C343 C 0.45983 0.1182 0.68043 0.0
N344 N 0.47883 0.11298 0.67574 0.0
C345 C 0.4559 0.08352 0.61931 0.0
C346 C 0.43636 0.0886 0.62409 0.0
C347 C 0.55157 0.14311 0.64945 0.0
C348 C 0.59837 0.21977 0.77705 0.0
C349 C 0.60723 0.19303 0.71428 0.0
C350 C 0.62159 0.2192 0.71467 0.0
C351 C 0.61707 0.23262 0.74628 0.0
N352 N 0.58893 0.18057 0.74458 0.0
C353 C 0.58442 0.19358 0.77571 0.0
Co354 Co 0.49375 0.62256 0.60668 0.0
Co355 Co 0.43403 0.57683 0.5756 0.0
O356 O 0.46367 0.61019 0.57092 0.0
C357 C 0.47438 0.6567 0.62306 0.0
O358 O 0.4523 0.63628 0.62488 0.0
C359 C 0.45113 0.58026 0.48587 0.0
O360 O 0.47395 0.59011 0.5015 0.0
O361 O 0.45507 0.56079 0.57718 0.0
O362 O 0.49366 0.59008 0.59912 0.0
H363 H 0.38225 0.48971 0.63574 0.0
H364 H 0.49358 0.65314 0.53272 0.0
O365 O 0.49393 0.65511 0.61556 0.0
H366 H 0.56143 0.63489 0.50144 0.0
H367 H 0.57914 0.68831 0.659 0.0
H368 H 0.51058 0.6008 0.67563 0.0
H369 H 0.53667 0.61952 0.56865 0.0
H370 H 0.54105 0.67178 0.61387 0.0
O371 O 0.43257 0.57394 0.51115 0.0
H372 H 0.41941 0.53209 0.63055 0.0
H373 H 0.3856 0.55027 0.52761 0.0
H374 H 0.54842 0.61648 0.72117 0.0
H375 H 0.51799 0.66904 0.46524 0.0
H376 H 0.58303 0.66054 0.71298 0.0
H377 H 0.55214 0.65985 0.44921 0.0
O378 O 0.47345 0.60939 0.66021 0.0
H379 H 0.40722 0.63618 0.51811 0.0
H380 H 0.3916 0.57235 0.62907 0.0
H381 H 0.36618 0.59314 0.62898 0.0
H382 H 0.37394 0.62531 0.57321 0.0
H383 H 0.43234 0.61508 0.5196 0.0
H384 H 0.34815 0.50801 0.5314 0.0
H385 H 0.34627 0.47745 0.58591 0.0
O386 O 0.43504 0.57885 0.63999 0.0
C387 C 0.47766 0.56769 0.58763 0.0
C388 C 0.38278 0.5029 0.612 0.0
C389 C 0.36366 0.51317 0.5534 0.0
N390 N 0.40451 0.54372 0.57922 0.0
C391 C 0.40373 0.52695 0.60904 0.0
C392 C 0.38492 0.53705 0.55137 0.0
C393 C 0.36262 0.49602 0.58399 0.0
C394 C 0.50858 0.64929 0.52614 0.0
N395 N 0.51379 0.63555 0.55466 0.0
C396 C 0.52227 0.65825 0.48781 0.0
C397 C 0.5414 0.65305 0.4788 0.0
C398 C 0.54661 0.63903 0.50808 0.0
C399 C 0.53251 0.63035 0.54605 0.0
C400 C 0.56421 0.66906 0.6628 0.0
C401 C 0.52564 0.61994 0.67169 0.0
C402 C 0.54259 0.65962 0.6374 0.0
N403 N 0.52373 0.6353 0.64189 0.0
C404 C 0.54699 0.62874 0.69765 0.0
C405 C 0.56639 0.65347 0.69307 0.0
C406 C 0.4511 0.59217 0.66868 0.0
C407 C 0.40361 0.62213 0.54249 0.0
C408 C 0.39509 0.58634 0.60471 0.0
C409 C 0.38061 0.59802 0.60478 0.0
C410 C 0.38496 0.61605 0.57345 0.0
N411 N 0.41334 0.59241 0.57422 0.0
C412 C 0.41769 0.61004 0.54336 0.0
Co413 Co 0.8722 0.49511 0.94256 0.0
Co414 Co 0.85658 0.43476 0.913 0.0
O415 O 0.85326 0.46458 0.90843 0.0
C416 C 0.81956 0.47607 0.96609 0.0
O417 O 0.81835 0.45425 0.96946 0.0
C418 C 0.86953 0.45141 0.82282 0.0
O419 O 0.88253 0.4743 0.83819 0.0
O420 O 0.89381 0.45537 0.91367 0.0
O421 O 0.9042 0.49486 0.9316 0.0
H422 H 0.89063 0.382 0.97364 0.0
H423 H 0.83887 0.49388 0.87214 0.0
O424 O 0.84011 0.49535 0.95468 0.0
H425 H 0.92377 0.56119 0.83214 0.0
H426 H 0.89352 0.58123 -0.00654 0.0
H427 H 0.91317 0.51305 0.00734 0.0
H428 H 0.91675 0.5374 0.89995 0.0
H429 H 0.87046 0.54245 0.95041 0.0
O430 O 0.85748 0.43294 0.84841 0.0
H431 H 0.8861 0.41954 0.96827 0.0
H432 H 0.83405 0.38622 0.86524 0.0
H433 H 0.93683 0.55157 0.05076 0.0
H434 H 0.84501 0.51732 0.80417 0.0
H435 H 0.92703 0.58599 0.04395 0.0
H436 H 0.88773 0.55119 0.78374 0.0
O437 O 0.86725 0.47566 -0.00333 0.0
H438 H 0.7702 0.40909 0.85805 0.0
H439 H 0.8187 0.39269 0.96719 0.0
H440 H 0.77244 0.36785 0.96838 0.0
H441 H 0.74788 0.376 0.9135 0.0
H442 H 0.81648 0.43363 0.85827 0.0
H443 H 0.83816 0.34839 0.86924 0.0
H444 H 0.86655 0.34608 0.92387 0.0
O445 O 0.85612 0.43621 0.97736 0.0
C446 C 0.90998 0.47823 0.92152 0.0
C447 C 0.87814 0.38274 0.9498 0.0
C448 C 0.84871 0.36389 0.89116 0.0
N449 N 0.85967 0.40497 0.91674 0.0
C450 C 0.87544 0.40392 0.9467 0.0
C451 C 0.8465 0.38538 0.889 0.0
C452 C 0.86464 0.36261 0.92183 0.0
C453 C 0.85747 0.50876 0.86366 0.0
N454 N 0.8774 0.51437 0.89007 0.0
C455 C 0.86085 0.52189 0.82505 0.0
C456 C 0.88483 0.54088 0.81358 0.0
C457 C 0.90507 0.54649 0.84071 0.0
C458 C 0.90098 0.53293 0.87902 0.0
C459 C 0.89799 0.56638 -0.00336 0.0
C460 C 0.90893 0.52803 0.00399 0.0
C461 C 0.88497 0.54438 0.97242 0.0
N462 N 0.89063 0.52562 0.97612 0.0
C463 C 0.92233 0.54975 0.02876 0.0
C464 C 0.9168 0.56905 0.02495 0.0
C465 C 0.86111 0.45308 0.0058 0.0
C466 C 0.78069 0.40532 0.88205 0.0
C467 C 0.80813 0.39636 0.94324 0.0
C468 C 0.78195 0.38221 0.94402 0.0
C469 C 0.76818 0.38678 0.91321 0.0
N470 N 0.82026 0.4145 0.91255 0.0
C471 C 0.8069 0.41908 0.88222 0.0
Co472 Co 0.38019 0.8715 0.27298 0.0
Co473 Co 0.42573 0.8573 0.24173 0.0
O474 O 0.39254 0.85396 0.23675 0.0
C475 C 0.34534 0.8179 0.28733 0.0
O476 O 0.36553 0.81585 0.28911 0.0
C477 C 0.42308 0.87209 0.15244 0.0
O478 O 0.41344 0.88516 0.16852 0.0
O479 O 0.44212 0.89441 0.24455 0.0
O480 O 0.41293 0.90377 0.26673 0.0
H481 H 0.51227 0.89109 0.30347 0.0
H482 H 0.35006 0.84189 0.19778 0.0
O483 O 0.34734 0.83928 0.28056 0.0
H484 H 0.36965 0.92873 0.16946 0.0
H485 H 0.31476 0.89154 0.32548 0.0
H486 H 0.40174 0.90916 0.34339 0.0
H487 H 0.38416 0.91822 0.23651 0.0
H488 H 0.33125 0.87019 0.27972 0.0
O489 O 0.42907 0.85943 0.17732 0.0
H490 H 0.47014 0.88641 0.29788 0.0
H491 H 0.45223 0.83558 0.19314 0.0
H492 H 0.3861 0.93111 0.38959 0.0
H493 H 0.33503 0.85153 0.13042 0.0
H494 H 0.34231 0.92232 0.38077 0.0
H495 H 0.34489 0.89524 0.11588 0.0
O496 O 0.3927 0.86347 0.32633 0.0
H497 H 0.36619 0.77197 0.18122 0.0
H498 H 0.42933 0.81847 0.29404 0.0
H499 H 0.40816 0.77223 0.29237 0.0
H500 H 0.37633 0.74868 0.23565 0.0
H501 H 0.38766 0.8182 0.18429 0.0
H502 H 0.49424 0.83986 0.19731 0.0
H503 H 0.52455 0.8677 0.25292 0.0
O504 O 0.42322 0.85557 0.30609 0.0
C505 C 0.43535 0.91011 0.25554 0.0
C506 C 0.49919 0.87881 0.27924 0.0
C507 C 0.48908 0.85008 0.21962 0.0
N508 N 0.45865 0.86049 0.24562 0.0
C509 C 0.47528 0.876 0.27605 0.0
C510 C 0.46534 0.84775 0.21739 0.0
C511 C 0.50608 0.8657 0.25083 0.0
C512 C 0.3542 0.8609 0.19184 0.0
N513 N 0.36784 0.87944 0.2211 0.0
C514 C 0.34573 0.86627 0.15358 0.0
C515 C 0.35131 0.8908 0.14541 0.0
C516 C 0.36521 0.90961 0.17545 0.0
C517 C 0.37341 0.90355 0.21332 0.0
C518 C 0.33389 0.89557 0.32956 0.0
C519 C 0.38272 0.90538 0.33917 0.0
C520 C 0.34331 0.8835 0.30381 0.0
N521 N 0.36749 0.8886 0.30866 0.0
C522 C 0.37394 0.9178 0.36551 0.0
C523 C 0.34936 0.91284 0.36057 0.0
C524 C 0.40972 0.85805 0.33476 0.0
C525 C 0.38008 0.78203 0.206 0.0
C526 C 0.41549 0.80835 0.26928 0.0
C527 C 0.40359 0.78217 0.26845 0.0
C528 C 0.38575 0.76897 0.2366 0.0
N529 N 0.40983 0.82102 0.23914 0.0
C530 C 0.39238 0.80821 0.20777 0.0
Co531 Co 0.50967 0.37828 0.60511 0.0
Co532 Co 0.56938 0.42285 0.57204 0.0
O533 O 0.5392 0.38989 0.56828 0.0
C534 C 0.52806 0.3433 0.62062 0.0
O535 O 0.55034 0.36347 0.62198 0.0
C536 C 0.55178 0.42047 0.48287 0.0
O537 O 0.52957 0.41335 0.49941 0.0
O538 O 0.54912 0.43979 0.57428 0.0
O539 O 0.51062 0.41118 0.59792 0.0
H540 H 0.62369 0.51013 0.62986 0.0
H541 H 0.50821 0.34715 0.53078 0.0
O542 O 0.5087 0.34533 0.61367 0.0
H543 H 0.44136 0.3673 0.50258 0.0
H544 H 0.42426 0.31412 0.6601 0.0
H545 H 0.49442 0.40098 0.67491 0.0
H546 H 0.46703 0.38246 0.56885 0.0
H547 H 0.46178 0.32972 0.61367 0.0
O548 O 0.5702 0.42502 0.50743 0.0
H549 H 0.58573 0.46826 0.62606 0.0
H550 H 0.61733 0.44795 0.52243 0.0
H551 H 0.45718 0.38624 0.72176 0.0
H552 H 0.48286 0.33144 0.46423 0.0
H553 H 0.42177 0.34251 0.7145 0.0
H554 H 0.4492 0.34157 0.44976 0.0
O555 O 0.53061 0.39126 0.65793 0.0
H556 H 0.59362 0.36154 0.51445 0.0
H557 H 0.61178 0.4265 0.62448 0.0
H558 H 0.63625 0.40471 0.624 0.0
H559 H 0.62721 0.37197 0.56868 0.0
H560 H 0.56945 0.38363 0.51634 0.0
H561 H 0.65557 0.48968 0.52484 0.0
H562 H 0.65896 0.52106 0.57899 0.0
O563 O 0.56897 0.42138 0.63657 0.0
C564 C 0.52682 0.43342 0.58595 0.0
C565 C 0.62249 0.49658 0.60627 0.0
C566 C 0.64037 0.48511 0.54729 0.0
N567 N 0.59948 0.45558 0.57448 0.0
C568 C 0.60109 0.47281 0.6041 0.0
C569 C 0.61867 0.46153 0.54605 0.0
C570 C 0.64226 0.50271 0.57768 0.0
C571 C 0.49344 0.35143 0.52486 0.0
N572 N 0.48899 0.36555 0.55374 0.0
C573 C 0.47922 0.34257 0.48706 0.0
C574 C 0.46036 0.34829 0.47894 0.0
C575 C 0.45596 0.36274 0.50855 0.0
C576 C 0.47057 0.3713 0.54597 0.0
C577 C 0.43955 0.33323 0.66351 0.0
C578 C 0.47901 0.38198 0.67137 0.0
C579 C 0.46085 0.34214 0.63737 0.0
N580 N 0.48015 0.36629 0.64136 0.0
C581 C 0.45801 0.37371 0.69808 0.0
C582 C 0.43816 0.34917 0.69401 0.0
C583 C 0.55309 0.40835 0.66575 0.0
C584 C 0.59778 0.37583 0.53862 0.0
C585 C 0.60772 0.41226 0.60033 0.0
C586 C 0.62167 0.40001 0.60017 0.0
C587 C 0.6166 0.38166 0.5691 0.0
N588 N 0.58929 0.40643 0.57033 0.0
C589 C 0.58425 0.38848 0.53972 0.0
Co590 Co 0.13073 0.50829 0.93831 0.0
Co591 Co 0.14612 0.56807 0.90531 0.0
O592 O 0.14876 0.53782 0.90148 0.0
C593 C 0.18408 0.52666 0.95376 0.0
O594 O 0.18617 0.54893 0.95518 0.0
C595 C 0.13095 0.55058 0.81603 0.0
O596 O 0.11575 0.52834 0.83241 0.0
O597 O 0.10891 0.54787 0.90744 0.0
O598 O 0.09882 0.50931 0.93103 0.0
H599 H 0.1133 0.62248 0.96318 0.0
H600 H 0.16039 0.50676 0.86399 0.0
O601 O 0.1627 0.50728 0.94688 0.0
H602 H 0.07331 0.43999 0.83582 0.0
H603 H 0.10926 0.42285 -0.00663 0.0
H604 H 0.09273 0.4931 0.00802 0.0
H605 H 0.08386 0.4657 0.90204 0.0
H606 H 0.13129 0.46037 0.94694 0.0
O607 O 0.14482 0.56894 0.84071 0.0
H608 H 0.11715 0.58449 0.95941 0.0
H609 H 0.16909 0.61603 0.85573 0.0
H610 H 0.07011 0.45586 0.05486 0.0
H611 H 0.15072 0.48138 0.79748 0.0
H612 H 0.07834 0.42041 0.04768 0.0
H613 H 0.1069 0.44775 0.78303 0.0
O614 O 0.13875 0.52923 0.99116 0.0
H615 H 0.23165 0.59214 0.84776 0.0
H616 H 0.18493 0.61041 0.95778 0.0
H617 H 0.23121 0.63481 0.9573 0.0
H618 H 0.25487 0.62572 0.90198 0.0
H619 H 0.18538 0.56804 0.84965 0.0
H620 H 0.16567 0.65429 0.85812 0.0
H621 H 0.13769 0.65772 0.91228 0.0
O622 O 0.14716 0.56764 0.96985 0.0
C623 C 0.09289 0.52556 0.91895 0.0
C624 C 0.12566 0.62126 0.93959 0.0
C625 C 0.15502 0.6391 0.88058 0.0
N626 N 0.14358 0.5982 0.90779 0.0
C627 C 0.12798 0.59985 0.93743 0.0
C628 C 0.15686 0.61739 0.87936 0.0
C629 C 0.13932 0.64101 0.91098 0.0
C630 C 0.14133 0.49201 0.85808 0.0
N631 N 0.12275 0.4876 0.88694 0.0
C632 C 0.13594 0.47777 0.8203 0.0
C633 C 0.11134 0.45893 0.81218 0.0
C634 C 0.09249 0.45457 0.84178 0.0
C635 C 0.09856 0.46921 0.87917 0.0
C636 C 0.10547 0.43816 -0.00326 0.0
C637 C 0.09627 0.47766 0.00452 0.0
C638 C 0.11792 0.45945 0.97061 0.0
N639 N 0.11312 0.47878 0.97455 0.0
C640 C 0.08347 0.45667 0.03121 0.0
C641 C 0.08812 0.43679 0.0272 0.0
C642 C 0.14427 0.55174 -0.00099 0.0
C643 C 0.22155 0.59633 0.87193 0.0
C644 C 0.1951 0.60633 0.93364 0.0
C645 C 0.2213 0.62024 0.93348 0.0
C646 C 0.23457 0.61514 0.90241 0.0
N647 N 0.18247 0.58791 0.90363 0.0
C648 C 0.19534 0.58283 0.87303 0.0
Co649 Co 0.62399 0.13259 0.27352 0.0
Co650 Co 0.57844 0.14664 0.24161 0.0
O651 O 0.61174 0.15017 0.23716 0.0
C652 C 0.65857 0.18619 0.28878 0.0
O653 O 0.63833 0.18818 0.2901 0.0
C654 C 0.58154 0.13207 0.15236 0.0
O655 O 0.59133 0.11917 0.16855 0.0
O656 O 0.56218 0.10953 0.24418 0.0
O657 O 0.5914 0.10026 0.26657 0.0
H658 H 0.49147 0.1122 0.30189 0.0
H659 H 0.65458 0.1627 0.19902 0.0
O660 O 0.65668 0.16487 0.28186 0.0
H661 H 0.63568 0.07616 0.16989 0.0
H662 H 0.68939 0.11276 0.32698 0.0
H663 H 0.60213 0.09457 0.34338 0.0
H664 H 0.62055 0.08619 0.23671 0.0
H665 H 0.67303 0.13418 0.28107 0.0
O666 O 0.57542 0.14467 0.17715 0.0
H667 H 0.53372 0.11712 0.29696 0.0
H668 H 0.55205 0.16837 0.19272 0.0
H669 H 0.61764 0.07256 0.38972 0.0
H670 H 0.67024 0.15354 0.13192 0.0
H671 H 0.66157 0.08163 0.38166 0.0
H672 H 0.66073 0.10999 0.11696 0.0
O673 O 0.61099 0.14023 0.3267 0.0
H674 H 0.63802 0.23224 0.18205 0.0
H675 H 0.57435 0.18519 0.29392 0.0
H676 H 0.59537 0.23142 0.29262 0.0
H677 H 0.62746 0.25525 0.23638 0.0
H678 H 0.61669 0.18601 0.18474 0.0
H679 H 0.50992 0.16386 0.19624 0.0
H680 H 0.47934 0.13569 0.25127 0.0
O681 O 0.58056 0.14815 0.30601 0.0
C682 C 0.569 0.09386 0.25516 0.0
C683 C 0.50467 0.12463 0.27792 0.0
C684 C 0.51501 0.1536 0.21859 0.0
N685 N 0.54543 0.14327 0.245 0.0
C686 C 0.52865 0.12757 0.27511 0.0
C687 C 0.53883 0.15606 0.21672 0.0
C688 C 0.49787 0.13779 0.24947 0.0
C689 C 0.65059 0.14376 0.19291 0.0
N690 N 0.6368 0.12504 0.22182 0.0
C691 C 0.65941 0.13866 0.15479 0.0
C692 C 0.65404 0.11421 0.14639 0.0
C693 C 0.63997 0.09522 0.17606 0.0
C694 C 0.63142 0.101 0.2138 0.0
C695 C 0.6702 0.10861 0.33073 0.0
C696 C 0.62121 0.09848 0.3395 0.0
C697 C 0.66085 0.12071 0.30489 0.0
N698 N 0.6366 0.11545 0.30932 0.0
C699 C 0.62991 0.08602 0.36591 0.0
C700 C 0.65457 0.09114 0.3614 0.0
C701 C 0.59387 0.14552 0.3349 0.0
C702 C 0.62401 0.22206 0.20662 0.0
C703 C 0.58831 0.19543 0.26936 0.0
C704 C 0.60012 0.2216 0.26875 0.0
C705 C 0.6181 0.23496 0.23716 0.0
N706 N 0.59421 0.18292 0.23928 0.0
C707 C 0.61179 0.19588 0.20818 0.0
H708 H 0.40243 0.51636 0.23003 0.0
H709 H 0.44869 0.59615 0.20764 0.0
H710 H 0.41005 0.52334 0.30773 0.0
H711 H 0.45624 0.60301 0.28526 0.0
H712 H 0.48596 0.59928 0.4211 0.0
H713 H 0.47855 0.59215 0.34335 0.0
H714 H 0.39914 0.54487 0.36706 0.0
H715 H 0.40643 0.55193 0.44467 0.0
C716 C 0.41422 0.53535 0.24168 0.0
C717 C 0.42497 0.5557 0.2128 0.0
C718 C 0.41847 0.53934 0.2861 0.0
C719 C 0.43376 0.5637 0.30235 0.0
C720 C 0.44457 0.58402 0.27347 0.0
C721 C 0.44011 0.58009 0.22913 0.0
C722 C 0.46694 0.58735 0.4097 0.0
C723 C 0.44678 0.57616 0.43893 0.0
C724 C 0.4627 0.58338 0.36526 0.0
C725 C 0.43829 0.56794 0.34935 0.0
C726 C 0.41816 0.55667 0.37857 0.0
C727 C 0.42234 0.56085 0.42293 0.0
H728 H 0.85433 0.44983 0.54358 0.0
H729 H 0.88687 0.40293 0.56811 0.0
H730 H 0.8538 0.45694 0.62112 0.0
H731 H 0.88632 0.41013 0.64576 0.0
H732 H 0.85306 0.40661 0.78167 0.0
H733 H 0.85343 0.39936 0.70409 0.0
H734 H 0.88592 0.4788 0.68036 0.0
H735 H 0.88559 0.48616 0.75795 0.0
C736 C 0.86134 0.44102 0.56551 0.0
C737 C 0.87067 0.42583 0.54977 0.0
C738 C 0.86116 0.44522 0.60985 0.0
C739 C 0.87004 0.43411 0.63934 0.0
C740 C 0.87919 0.41877 0.62368 0.0
C741 C 0.87964 0.41478 0.57927 0.0
C742 C 0.86023 0.42253 0.75991 0.0
C743 C 0.86932 0.44697 0.77588 0.0
C744 C 0.86058 0.41838 0.71557 0.0
C745 C 0.86974 0.43853 0.68633 0.0
C746 C 0.87859 0.46292 0.70223 0.0
C747 C 0.87851 0.46713 0.74661 0.0
H748 H 0.48571 0.88718 0.89522 0.0
H749 H 0.40584 0.85407 0.8745 0.0
H750 H 0.47928 0.88807 0.97308 0.0
H751 H 0.39952 0.85502 0.95227 0.0
H752 H 0.4042 0.88846 0.08836 0.0
H753 H 0.411 0.88831 0.01047 0.0
H754 H 0.45789 0.85562 0.03262 0.0
H755 H 0.45115 0.85571 0.11039 0.0
C756 C 0.46682 0.88014 0.90727 0.0
C757 C 0.44628 0.87055 0.87881 0.0
C758 C 0.46314 0.88055 0.95178 0.0
C759 C 0.43892 0.87165 0.96855 0.0
C760 C 0.41841 0.86221 0.94009 0.0
C761 C 0.42203 0.86152 0.89565 0.0
C762 C 0.416 0.88129 0.0766 0.0
C763 C 0.42714 0.87209 0.10543 0.0
C764 C 0.41977 0.8811 0.03207 0.0
C765 C 0.43498 0.87198 0.01567 0.0
C766 C 0.44626 0.86296 0.0445 0.0
C767 C 0.44227 0.86288 0.08895 0.0
H768 H 0.57494 0.4798 0.22318 0.0
H769 H 0.57889 0.41197 0.20909 0.0
H770 H 0.56737 0.47168 0.30077 0.0
H771 H 0.57178 0.4042 0.28689 0.0
H772 H 0.58974 0.42162 0.43559 0.0
H773 H 0.59694 0.42868 0.35769 0.0
H774 H 0.53036 0.43491 0.34625 0.0
H775 H 0.52281 0.4274 0.424 0.0
C776 C 0.57435 0.46327 0.2367 0.0
C777 C 0.57745 0.44648 0.21017 0.0
C778 C 0.56989 0.45858 0.28095 0.0
C779 C 0.56895 0.43731 0.29951 0.0
C780 C 0.5725 0.42076 0.2732 0.0
C781 C 0.57648 0.42517 0.22879 0.0
C782 C 0.5766 0.4244 0.4164 0.0
C783 C 0.55573 0.42399 0.43577 0.0
C784 C 0.58068 0.42834 0.37193 0.0
C785 C 0.56423 0.4324 0.34628 0.0
C786 C 0.54336 0.43197 0.36556 0.0
C787 C 0.539 0.42755 0.4099 0.0
H788 H 0.16825 0.5787 0.5431 0.0
H789 H 0.09617 0.57429 0.55557 0.0
H790 H 0.16831 0.57125 0.62085 0.0
H791 H 0.09615 0.5664 0.63316 0.0
H792 H 0.09526 0.52176 0.75669 0.0
H793 H 0.09568 0.5295 0.67893 0.0
H794 H 0.1685 0.59602 0.6914 0.0
H795 H 0.168 0.58863 0.76926 0.0
C796 C 0.15244 0.57612 0.56244 0.0
C797 C 0.1322 0.57707 0.54337 0.0
C798 C 0.15254 0.57194 0.60682 0.0
C799 C 0.1322 0.56818 0.63269 0.0
C800 C 0.11194 0.56908 0.61369 0.0
C801 C 0.11205 0.57373 0.56944 0.0
C802 C 0.11138 0.53798 0.7428 0.0
C803 C 0.13157 0.55463 0.76895 0.0
C804 C 0.11154 0.54245 0.69847 0.0
C805 C 0.1321 0.56335 0.67947 0.0
C806 C 0.1525 0.57973 0.70541 0.0
C807 C 0.15214 0.57554 0.74987 0.0
H808 H 0.59997 0.11518 0.08838 0.0
H809 H 0.55313 0.14806 0.11029 0.0
H810 H 0.59232 0.11431 0.01064 0.0
H811 H 0.54554 0.14714 0.03266 0.0
H812 H 0.51621 0.11375 0.89675 0.0
H813 H 0.52353 0.11395 0.97453 0.0
H814 H 0.60303 0.14664 0.95117 0.0
H815 H 0.59583 0.14648 0.87353 0.0
C816 C 0.58804 0.12218 0.07662 0.0
C817 C 0.57715 0.13169 0.10539 0.0
C818 C 0.58377 0.12179 0.03217 0.0
C819 C 0.56832 0.13062 0.01578 0.0
C820 C 0.55734 0.14001 0.04454 0.0
C821 C 0.56183 0.14067 0.08891 0.0
C822 C 0.53524 0.12093 0.90823 0.0
C823 C 0.55545 0.13009 0.87909 0.0
C824 C 0.53942 0.12116 0.95269 0.0
C825 C 0.56383 0.13028 0.96873 0.0
C826 C 0.584 0.13929 0.93958 0.0
C827 C 0.57988 0.13933 0.89521 0.0
H828 H 0.30071 0.48647 0.00028 0.0
H829 H 0.33156 0.56386 0.03861 0.0
H830 H 0.26135 0.48465 0.98019 0.0
H831 H 0.29221 0.56183 0.02071 0.0
H832 H 0.23247 0.56264 0.94116 0.0
H833 H 0.27008 0.56113 0.95885 0.0
H834 H 0.22444 0.48476 0.004 0.0
H835 H 0.18656 0.48601 0.98409 0.0
C836 C 0.29891 0.50294 0.00502 0.0
C837 C 0.31926 0.52539 0.02048 0.0
C838 C 0.27635 0.5019 -0.00636 0.0
C839 C 0.27367 0.52323 -0.00195 0.0
C840 C 0.29378 0.54527 0.01546 0.0
C841 C 0.31633 0.5464 0.02611 0.0
C842 C 0.23045 0.54546 0.9546 0.0
C843 C 0.2066 0.52452 0.9616 0.0
C844 C 0.25204 0.54464 0.96514 0.0
C845 C 0.2504 0.52301 0.98383 0.0
C846 C 0.22647 0.50171 0.98955 0.0
C847 C 0.20476 0.50241 0.97827 0.0
H848 H 0.8158 0.30159 0.33592 0.0
H849 H 0.77016 0.33337 0.37465 0.0
H850 H 0.77791 0.26262 0.31544 0.0
H851 H 0.73248 0.29438 0.35649 0.0
H852 H 0.67107 0.23477 0.27763 0.0
H853 H 0.71038 0.2722 0.29545 0.0
H854 H 0.74088 0.22604 0.33869 0.0
H855 H 0.70162 0.18841 0.31858 0.0
C856 C 0.79764 0.30007 0.34066 0.0
C857 C 0.79591 0.32057 0.35638 0.0
C858 C 0.77591 0.27773 0.32907 0.0
C859 C 0.75204 0.27539 0.33357 0.0
C860 C 0.75048 0.29566 0.35114 0.0
C861 C 0.77211 0.31801 0.36197 0.0
C862 C 0.68623 0.23261 0.29069 0.0
C863 C 0.68323 0.20868 0.29703 0.0
C864 C 0.70876 0.2541 0.30131 0.0
C865 C 0.72877 0.25226 0.31943 0.0
C866 C 0.72599 0.22825 0.32463 0.0
C867 C 0.70348 0.20667 0.31324 0.0
H868 H 0.43713 0.76721 0.70823 0.0
H869 H 0.51399 0.81352 0.66676 0.0
H870 H 0.43906 0.72975 0.69104 0.0
H871 H 0.51567 0.77584 0.64731 0.0
H872 H 0.51509 0.70032 0.65163 0.0
H873 H 0.51617 0.73938 0.67135 0.0
H874 H 0.43896 0.70737 0.6302 0.0
H875 H 0.43765 0.66831 0.61275 0.0
C876 C 0.45444 0.76935 0.69519 0.0
C877 C 0.47534 0.79327 0.68851 0.0
C878 C 0.45552 0.74785 0.68494 0.0
C879 C 0.47736 0.74965 0.66686 0.0
C880 C 0.49857 0.77366 0.66134 0.0
C881 C 0.49761 0.79527 0.67235 0.0
C882 C 0.49845 0.7018 0.64668 0.0
C883 C 0.47621 0.68122 0.63115 0.0
C884 C 0.49906 0.72419 0.65784 0.0
C885 C 0.47752 0.72649 0.65311 0.0
C886 C 0.45568 0.70613 0.6357 0.0
C887 C 0.45496 0.68374 0.62529 0.0
H888 H 0.70514 0.51597 0.03506 0.0
H889 H 0.66569 0.43907 0.99058 0.0
H890 H 0.74526 0.51759 0.02229 0.0
H891 H 0.70529 0.44093 0.9767 0.0
H892 H 0.77623 0.44025 0.00268 0.0
H893 H 0.73842 0.44184 0.0176 0.0
H894 H 0.77314 0.51712 0.96581 0.0
H895 H 0.81171 0.51581 0.952 0.0
C896 C 0.70502 0.4995 0.02237 0.0
C897 C 0.68222 0.47733 0.01424 0.0
C898 C 0.72798 0.50047 0.01482 0.0
C899 C 0.72851 0.4793 -0.00108 0.0
C900 C 0.70564 0.4574 0.98994 0.0
C901 C 0.68285 0.45639 -0.0023 0.0
C902 C 0.77593 0.45721 -0.00552 0.0
C903 C 0.79694 0.47784 0.9758 0.0
C904 C 0.75413 0.45807 0.00285 0.0
C905 C 0.75256 0.47947 -0.00767 0.0
C906 C 0.77377 0.5004 0.9745 0.0
C907 C 0.79579 0.4996 0.96637 0.0
H908 H 0.18774 0.70182 0.32992 0.0
H909 H 0.23341 0.67039 0.3703 0.0
H910 H 0.2257 0.74107 0.31061 0.0
H911 H 0.27111 0.7096 0.35324 0.0
H912 H 0.33292 0.76942 0.2755 0.0
H913 H 0.29348 0.73188 0.29226 0.0
H914 H 0.26255 0.77773 0.33507 0.0
H915 H 0.302 0.81551 0.31607 0.0
C916 C 0.2059 0.70347 0.33529 0.0
C917 C 0.20765 0.68299 0.35109 0.0
C918 C 0.22766 0.72596 0.32435 0.0
C919 C 0.25156 0.72845 0.32959 0.0
C920 C 0.2531 0.7082 0.34734 0.0
C921 C 0.23146 0.68572 0.35752 0.0
C922 C 0.31765 0.7715 0.28824 0.0
C923 C 0.32059 0.79538 0.29482 0.0
C924 C 0.29504 0.74994 0.29825 0.0
C925 C 0.27488 0.75166 0.31597 0.0
C926 C 0.27758 0.77563 0.32133 0.0
C927 C 0.30019 0.79729 0.31058 0.0
H928 H 0.56406 0.23221 0.70658 0.0
H929 H 0.48679 0.18615 0.66714 0.0
H930 H 0.56241 0.26974 0.68871 0.0
H931 H 0.48538 0.22391 0.64705 0.0
H932 H 0.48717 0.30019 0.65048 0.0
H933 H 0.48561 0.26095 0.67063 0.0
H934 H 0.56224 0.29154 0.62704 0.0
H935 H 0.56404 0.33078 0.60911 0.0
C936 C 0.54671 0.23013 0.69386 0.0
C937 C 0.52562 0.20626 0.68792 0.0
C938 C 0.5458 0.25168 0.68321 0.0
C939 C 0.52392 0.24996 0.66549 0.0
C940 C 0.50252 0.22601 0.66077 0.0
C941 C 0.50332 0.20436 0.67215 0.0
C942 C 0.50357 0.29835 0.64506 0.0
C943 C 0.52582 0.31861 0.62873 0.0
C944 C 0.50269 0.27586 0.65648 0.0
C945 C 0.52395 0.27314 0.65124 0.0
C946 C 0.54575 0.29314 0.63295 0.0
C947 C 0.54674 0.31562 0.62227 0.0
H948 H 0.48281 0.55435 0.08882 0.0
H949 H 0.42917 0.48068 0.04038 0.0
H950 H 0.51518 0.54275 0.08905 0.0
H951 H 0.46187 0.46932 0.03979 0.0
H952 H 0.51962 0.44903 0.08799 0.0
H953 H 0.48725 0.46063 0.08893 0.0
H954 H 0.54038 0.53409 0.03946 0.0
H955 H 0.57307 0.52273 0.03935 0.0
C956 C 0.47787 0.53567 0.07812 0.0
C957 C 0.45328 0.51844 0.06464 0.0
C958 C 0.49655 0.5291 0.07798 0.0
C959 C 0.49118 0.50515 0.06431 0.0
C960 C 0.46658 0.48784 0.05101 0.0
C961 C 0.44784 0.4944 0.05118 0.0
C962 C 0.52452 0.46772 0.07741 0.0
C963 C 0.54905 0.48495 0.06364 0.0
C964 C 0.50584 0.47429 0.07766 0.0
C965 C 0.51116 0.49825 0.06412 0.0
C966 C 0.53571 0.51556 0.05057 0.0
C967 C 0.55445 0.509 0.05035 0.0
H968 H 0.9311 0.48347 0.42444 0.0
H969 H 0.95068 0.42884 0.37972 0.0
H970 H 0.97515 0.51578 0.42314 0.0
H971 H 0.99474 0.46142 0.3775 0.0
H972 H 0.07328 0.51989 0.4219 0.0
H973 H 0.02929 0.48766 0.42462 0.0
H974 H 0.0087 0.54003 0.37257 0.0
H975 H 0.05282 0.57264 0.37074 0.0
C976 C 0.94476 0.4783 0.41428 0.0
C977 C 0.93725 0.45345 0.40225 0.0
C978 C 0.97005 0.49694 0.41323 0.0
C979 C 0.98851 0.49126 0.40006 0.0
C980 C 0.98105 0.4664 0.38831 0.0
C981 C 0.95574 0.44771 0.38944 0.0
C982 C 0.05944 0.52464 0.41106 0.0
C983 C 0.06669 0.54896 0.39612 0.0
C984 C 0.03416 0.50604 0.41237 0.0
C985 C 0.01543 0.51119 0.39871 0.0
C986 C 0.02262 0.5355 0.38386 0.0
C987 C 0.04795 0.55418 0.3826 0.0
H988 H 0.47979 0.0512 0.70515 0.0
H989 H 0.55312 0.07042 0.7541 0.0
H990 H 0.46805 0.00702 0.70403 0.0
H991 H 0.54115 0.02635 0.75382 0.0
H992 H 0.52063 0.94828 0.70501 0.0
H993 H 0.5323 0.99244 0.70431 0.0
H994 H 0.45887 0.97276 0.75298 0.0
H995 H 0.44697 0.92871 0.75283 0.0
C996 C 0.49335 0.04604 0.71593 0.0
C997 C 0.5174 0.06445 0.72973 0.0
C998 C 0.48658 0.02068 0.71544 0.0
C999 C 0.50368 0.01313 0.72877 0.0
C1000 C 0.52766 0.03152 0.7427 0.0
C1001 C 0.53444 0.05683 0.74316 0.0
C1002 C 0.50697 0.95335 0.71561 0.0
C1003 C 0.48286 0.93485 0.72901 0.0
C1004 C 0.5137 0.9787 0.71537 0.0
C1005 C 0.49651 0.98616 0.72856 0.0
C1006 C 0.47245 0.96767 0.742 0.0
C1007 C 0.4657 0.94237 0.74221 0.0
H1008 H 0.52316 0.57275 0.61055 0.0
H1009 H 0.44957 0.51865 0.56247 0.0
H1010 H 0.53495 0.54032 0.61064 0.0
H1011 H 0.46157 0.48661 0.56177 0.0
H1012 H 0.48186 0.42897 0.61035 0.0
H1013 H 0.47051 0.46165 0.61129 0.0
H1014 H 0.54375 0.51497 0.56128 0.0
H1015 H 0.55536 0.48256 0.56115 0.0
C1016 C 0.50955 0.55405 0.59974 0.0
C1017 C 0.4854 0.54839 0.58656 0.0
C1018 C 0.51635 0.53547 0.59963 0.0
C1019 C 0.49917 0.51082 0.58634 0.0
C1020 C 0.47512 0.50526 0.57288 0.0
C1021 C 0.46832 0.52377 0.57301 0.0
C1022 C 0.49555 0.44764 0.59948 0.0
C1023 C 0.51951 0.45304 0.58561 0.0
C1024 C 0.489 0.46637 0.59985 0.0
C1025 C 0.50622 0.49095 0.58634 0.0
C1026 C 0.53015 0.49634 0.57245 0.0
C1027 C 0.53672 0.47765 0.57209 0.0
H1028 H 0.07255 0.55385 0.89163 0.0
H1029 H 0.05217 0.481 0.94455 0.0
H1030 H 0.02864 0.54251 0.89111 0.0
H1031 H 0.00819 0.46993 0.94488 0.0
H1032 H 0.92997 0.44908 0.8975 0.0
H1033 H 0.9739 0.46047 0.89597 0.0
H1034 H 0.99508 0.53506 0.94038 0.0
H1035 H 0.95108 0.5239 0.94101 0.0
C1036 C 0.05874 0.53541 0.90327 0.0
C1037 C 0.06598 0.51833 0.9181 0.0
C1038 C 0.03353 0.52899 0.90323 0.0
C1039 C 0.01487 0.50535 0.91806 0.0
C1040 C 0.02205 0.4882 0.93272 0.0
C1041 C 0.04731 0.4946 0.93271 0.0
C1042 C 0.94395 0.46798 0.9068 0.0
C1043 C 0.9369 0.48558 0.91936 0.0
C1044 C 0.96917 0.47443 0.90621 0.0
C1045 C 0.98803 0.49863 0.91823 0.0
C1046 C 0.98105 0.51633 0.93044 0.0
C1047 C 0.95578 0.50989 0.93096 0.0
H1048 H 0.43033 0.95041 0.27933 0.0
H1049 H 0.48461 0.93113 0.23148 0.0
H1050 H 0.46275 0.99462 0.2801 0.0
H1051 H 0.51668 0.97522 0.23141 0.0
H1052 H 0.57405 0.05364 0.27942 0.0
H1053 H 0.54167 0.00943 0.28046 0.0
H1054 H 0.4878 0.02862 0.23067 0.0
H1055 H 0.51985 0.07272 0.23047 0.0
C1056 C 0.44909 0.95556 0.26874 0.0
C1057 C 0.45477 0.93713 0.25531 0.0
C1058 C 0.46767 0.98093 0.26902 0.0
C1059 C 0.49235 0.98848 0.25585 0.0
C1060 C 0.49799 0.97006 0.24237 0.0
C1061 C 0.47947 0.94473 0.24213 0.0
C1062 C 0.55532 0.04845 0.26863 0.0
C1063 C 0.54964 0.06683 0.25484 0.0
C1064 C 0.53676 0.02307 0.26907 0.0
C1065 C 0.5121 0.01547 0.25571 0.0
C1066 C 0.50648 0.03383 0.24181 0.0
C1067 C 0.52498 0.05916 0.24139 0.0
H1068 H 0.41587 0.54817 0.70487 0.0
H1069 H 0.46891 0.62551 0.73537 0.0
H1070 H 0.40497 0.53958 0.7809 0.0
H1071 H 0.45692 0.61746 0.81126 0.0
H1072 H 0.37601 0.5334 0.91569 0.0
H1073 H 0.3847 0.54483 0.83967 0.0
H1074 H 0.46194 0.59819 0.8717 0.0
H1075 H 0.45269 0.58784 0.94776 0.0
C1076 C 0.42489 0.56343 0.72785 0.0
C1077 C 0.44339 0.58743 0.71437 0.0
C1078 C 0.4185 0.55859 0.77149 0.0
C1079 C 0.43007 0.5778 0.80251 0.0
C1080 C 0.44803 0.60204 0.78858 0.0
C1081 C 0.45482 0.60673 0.74505 0.0
C1082 C 0.39478 0.54771 0.90635 0.0
C1083 C 0.41372 0.55966 0.93752 0.0
C1084 C 0.39984 0.55417 0.86275 0.0
C1085 C 0.42411 0.5723 0.84925 0.0
C1086 C 0.44292 0.58447 0.88075 0.0
C1087 C 0.43769 0.57842 0.92443 0.0
H1088 H 0.84427 0.44024 0.286 0.0
H1089 H 0.87128 0.39 0.24959 0.0
H1090 H 0.84267 0.4498 0.21004 0.0
H1091 H 0.8703 0.40013 0.1739 0.0
H1092 H 0.84437 0.40623 0.03968 0.0
H1093 H 0.84194 0.39472 0.11555 0.0
H1094 H 0.87188 0.47232 0.15219 0.0
H1095 H 0.87369 0.48382 0.07647 0.0
C1096 C 0.84984 0.43121 0.26187 0.0
C1097 C 0.85792 0.41436 0.27396 0.0
C1098 C 0.84906 0.43681 0.21834 0.0
C1099 C 0.85643 0.42579 0.18597 0.0
C1100 C 0.86416 0.40868 0.19801 0.0
C1101 C 0.86485 0.40298 0.24148 0.0
C1102 C 0.85033 0.42085 0.06387 0.0
C1103 C 0.85924 0.44597 0.05192 0.0
C1104 C 0.84905 0.41424 0.10737 0.0
C1105 C 0.85676 0.4326 0.13987 0.0
C1106 C 0.86545 0.45767 0.12797 0.0
C1107 C 0.86663 0.46428 0.08449 0.0
H1108 H 0.41287 0.86372 0.61357 0.0
H1109 H 0.46704 0.84096 0.58274 0.0
H1110 H 0.40261 0.86224 0.53739 0.0
H1111 H 0.4557 0.83783 0.50664 0.0
H1112 H 0.45329 0.86601 0.37151 0.0
H1113 H 0.46139 0.86333 0.44764 0.0
H1114 H 0.38349 0.83795 0.47687 0.0
H1115 H 0.37595 0.84226 0.40088 0.0
C1116 C 0.42224 0.85793 0.5905 0.0
C1117 C 0.44093 0.85272 0.60395 0.0
C1118 C 0.41623 0.85687 0.54675 0.0
C1119 C 0.42839 0.85002 0.51556 0.0
C1120 C 0.44638 0.84381 0.52946 0.0
C1121 C 0.45279 0.84543 0.57312 0.0
C1122 C 0.43791 0.85978 0.39425 0.0
C1123 C 0.41408 0.85459 0.38043 0.0
C1124 C 0.44247 0.85802 0.43795 0.0
C1125 C 0.42312 0.85048 0.4687 0.0
C1126 C 0.39901 0.84441 0.45441 0.0
C1127 C 0.39462 0.84672 0.41082 0.0
H1128 H 0.58886 0.45262 0.70049 0.0
H1129 H 0.53496 0.37597 0.73381 0.0
H1130 H 0.5991 0.46238 0.77648 0.0
H1131 H 0.54628 0.38517 0.80975 0.0
H1132 H 0.62629 0.47013 0.91334 0.0
H1133 H 0.61839 0.45801 0.83751 0.0
H1134 H 0.54062 0.40555 0.86787 0.0
H1135 H 0.54908 0.4166 0.94389 0.0
C1136 C 0.57956 0.43774 0.72407 0.0
C1137 C 0.56096 0.41361 0.71135 0.0
C1138 C 0.58554 0.44326 0.76773 0.0
C1139 C 0.57344 0.42462 0.79956 0.0
C1140 C 0.55553 0.4002 0.78641 0.0
C1141 C 0.54915 0.39483 0.74284 0.0
C1142 C 0.60755 0.45592 0.90367 0.0
C1143 C 0.58826 0.44436 0.93437 0.0
C1144 C 0.60295 0.44905 0.86016 0.0
C1145 C 0.5788 0.43087 0.84626 0.0
C1146 C 0.55957 0.41925 0.87728 0.0
C1147 C 0.56433 0.42572 0.9209 0.0
H1148 H 0.15964 0.53411 0.06617 0.0
H1149 H 0.13579 0.58733 0.03452 0.0
H1150 H 0.16309 0.546 0.14201 0.0
H1151 H 0.13759 0.59814 0.11054 0.0
H1152 H 0.15907 0.62647 0.24614 0.0
H1153 H 0.16232 0.61807 0.17018 0.0
H1154 H 0.13835 0.54076 0.2018 0.0
H1155 H 0.13675 0.54974 0.27786 0.0
C1156 C 0.15498 0.54826 0.07558 0.0
C1157 C 0.14734 0.55973 0.04457 0.0
C1158 C 0.15678 0.55497 0.1191 0.0
C1159 C 0.1504 0.57289 0.13274 0.0
C1160 C 0.1431 0.5846 0.10139 0.0
C1161 C 0.14187 0.57829 0.05774 0.0
C1162 C 0.15469 0.60774 0.23673 0.0
C1163 C 0.14756 0.58872 0.2678 0.0
C1164 C 0.15638 0.60285 0.19314 0.0
C1165 C 0.15041 0.57866 0.17952 0.0
C1166 C 0.14356 0.55974 0.21092 0.0
C1167 C 0.14244 0.5648 0.25461 0.0
H1168 H 0.5872 0.135 0.61315 0.0
H1169 H 0.53357 0.15855 0.58287 0.0
H1170 H 0.59813 0.13753 0.53711 0.0
H1171 H 0.54558 0.1627 0.50697 0.0
H1172 H 0.54987 0.13721 0.37046 0.0
H1173 H 0.54071 0.13844 0.44653 0.0
H1174 H 0.61815 0.1631 0.47825 0.0
H1175 H 0.62676 0.16024 0.40224 0.0
C1176 C 0.57806 0.14114 0.59023 0.0
C1177 C 0.55938 0.14635 0.60378 0.0
C1178 C 0.58447 0.14281 0.54658 0.0
C1179 C 0.57273 0.15028 0.51561 0.0
C1180 C 0.55461 0.15631 0.5296 0.0
C1181 C 0.54781 0.15409 0.57315 0.0
C1182 C 0.56493 0.143 0.39372 0.0
C1183 C 0.58894 0.14838 0.38055 0.0
C1184 C 0.55976 0.1439 0.43741 0.0
C1185 C 0.57865 0.15077 0.46883 0.0
C1186 C 0.60295 0.15711 0.45524 0.0
C1187 C 0.60797 0.15565 0.41163 0.0
loop_
_geom_bond_atom_site_label_1
_geom_bond_atom_site_label_2
_geom_bond_distance
_geom_bond_site_symmetry_2
_ccdc_geom_bond_type
Co0 O2 2.143 . S
Co0 O8 2.074 . S
Co0 O11 2.093 . S
Co0 O24 2.097 1_554 S
Co0 N41 2.151 . S
Co0 N49 2.214 1_554 S
Co1 O2 2.160 . S
Co1 O7 2.058 . S
Co1 O17 2.057 . S
Co1 O32 2.037 . S
Co1 N36 2.145 . S
Co1 N57 2.257 . S
O2 Co0 2.143 . S
O2 Co1 2.160 . S
C3 O4 1.278 . S
C3 O11 1.224 . S
O4 C3 1.278 . S
C5 O6 1.245 . S
C5 O17 1.232 . S
O6 C5 1.245 . S
O7 Co1 2.058 . S
O7 C33 1.269 . S
O8 Co0 2.074 . S
O8 C33 1.257 . S
H9 C34 0.930 . S
H10 C40 0.930 . S
O11 Co0 2.093 . S
O11 C3 1.224 . S
H12 C44 0.929 . S
H13 C46 0.930 . S
H14 C47 0.930 . S
H15 C45 0.929 . S
H16 C48 0.928 . S
O17 Co1 2.057 . S
O17 C5 1.232 . S
H18 C37 0.929 . S
H19 C38 0.929 . S
H20 C50 0.931 . S
H21 C42 0.929 . S
H22 C51 0.930 . S
H23 C43 0.931 . S
O24 Co0 2.097 1_556 S
O24 C52 1.214 . S
H25 C53 0.929 . S
H26 C54 0.929 . S
H27 C55 0.930 . S
H28 C56 0.929 . S
H29 C58 0.930 . S
H30 C35 0.930 . S
H31 C39 0.930 . S
O32 Co1 2.037 . S
O32 C52 1.234 1_554 S
C33 O7 1.269 . S
C33 O8 1.257 . S
C34 H9 0.930 . S
C34 C37 1.388 . S
C34 C39 1.418 . S
C35 H30 0.930 . S
C35 C38 1.404 . S
C35 C39 1.353 . S
N36 Co1 2.145 . S
N36 C37 1.397 . S
N36 C38 1.334 . S
C37 H18 0.929 . S
C37 C34 1.388 . S
C37 N36 1.397 . S
C38 H19 0.929 . S
C38 C35 1.404 . S
C38 N36 1.334 . S
C39 H31 0.930 . S
C39 C34 1.418 . S
C39 C35 1.353 . S
C40 H10 0.930 . S
C40 N41 1.330 . S
C40 C42 1.446 . S
N41 Co0 2.151 . S
N41 C40 1.330 . S
N41 C45 1.418 . S
C42 H21 0.929 . S
C42 C40 1.446 . S
C42 C43 1.332 . S
C43 H23 0.931 . S
C43 C42 1.332 . S
C43 C44 1.267 . S
C44 H12 0.929 . S
C44 C43 1.267 . S
C44 C45 1.251 . S
C45 H15 0.929 . S
C45 N41 1.418 . S
C45 C44 1.251 . S
C46 H13 0.930 . S
C46 C48 1.406 . S
C46 C51 1.261 . S
C47 H14 0.930 . S
C47 N49 1.325 . S
C47 C50 1.357 . S
C48 H16 0.928 . S
C48 C46 1.406 . S
C48 N49 1.261 . S
N49 Co0 2.214 1_556 S
N49 C47 1.325 . S
N49 C48 1.261 . S
C50 H20 0.931 . S
C50 C47 1.357 . S
C50 C51 1.312 . S
C51 H22 0.930 . S
C51 C46 1.261 . S
C51 C50 1.312 . S
C52 O24 1.214 . S
C52 O32 1.234 1_556 S
C53 H25 0.929 . S
C53 C56 1.391 . S
C53 C58 1.391 . S
C54 H26 0.929 . S
C54 C55 1.390 . S
C54 N57 1.391 . S
C55 H27 0.930 . S
C55 C54 1.390 . S
C55 C56 1.392 . S
C56 H28 0.929 . S
C56 C53 1.391 . S
C56 C55 1.392 . S
N57 Co1 2.257 . S
N57 C54 1.391 . S
N57 C58 1.388 . S
C58 H29 0.930 . S
C58 C53 1.391 . S
C58 N57 1.388 . S
Co59 O61 2.143 . S
Co59 O67 2.074 . S
Co59 O70 2.093 . S
Co59 O83 2.097 . S
Co59 N100 2.151 . S
Co59 N108 2.214 . S
Co60 O61 2.160 . S
Co60 O66 2.058 . S
Co60 O76 2.057 . S
Co60 O91 2.037 . S
Co60 N95 2.145 . S
Co60 N116 2.257 . S
O61 Co59 2.143 . S
O61 Co60 2.160 . S
C62 O63 1.278 . S
C62 O70 1.224 . S
O63 C62 1.278 . S
C64 O65 1.245 . S
C64 O76 1.232 . S
O65 C64 1.245 . S
O66 Co60 2.058 . S
O66 C92 1.269 . S
O67 Co59 2.074 . S
O67 C92 1.257 . S
H68 C93 0.930 . S
H69 C99 0.930 . S
O70 Co59 2.093 . S
O70 C62 1.224 . S
H71 C103 0.929 . S
H72 C105 0.930 . S
H73 C106 0.930 . S
H74 C104 0.929 . S
H75 C107 0.928 . S
O76 Co60 2.057 . S
O76 C64 1.232 . S
H77 C96 0.929 . S
H78 C97 0.929 . S
H79 C109 0.931 . S
H80 C101 0.929 . S
H81 C110 0.930 . S
H82 C102 0.931 . S
O83 Co59 2.097 . S
O83 C111 1.214 . S
H84 C112 0.929 . S
H85 C113 0.929 . S
H86 C114 0.930 . S
H87 C115 0.929 . S
H88 C117 0.930 . S
H89 C94 0.930 . S
H90 C98 0.930 . S
O91 Co60 2.037 . S
O91 C111 1.234 . S
C92 O66 1.269 . S
C92 O67 1.257 . S
C93 H68 0.930 . S
C93 C96 1.388 . S
C93 C98 1.418 . S
C94 H89 0.930 . S
C94 C97 1.404 . S
C94 C98 1.353 . S
N95 Co60 2.145 . S
N95 C96 1.397 . S
N95 C97 1.334 . S
C96 H77 0.929 . S
C96 C93 1.388 . S
C96 N95 1.397 . S
C97 H78 0.929 . S
C97 C94 1.404 . S
C97 N95 1.334 . S
C98 H90 0.930 . S
C98 C93 1.418 . S
C98 C94 1.353 . S
C99 H69 0.930 . S
C99 N100 1.330 . S
C99 C101 1.446 . S
N100 Co59 2.151 . S
N100 C99 1.330 . S
N100 C104 1.418 . S
C101 H80 0.929 . S
C101 C99 1.446 . S
C101 C102 1.332 . S
C102 H82 0.931 . S
C102 C101 1.332 . S
C102 C103 1.267 . S
C103 H71 0.929 . S
C103 C102 1.267 . S
C103 C104 1.251 . S
C104 H74 0.929 . S
C104 N100 1.418 . S
C104 C103 1.251 . S
C105 H72 0.930 . S
C105 C107 1.406 . S
C105 C110 1.261 . S
C106 H73 0.930 . S
C106 N108 1.325 . S
C106 C109 1.357 . S
C107 H75 0.928 . S
C107 C105 1.406 . S
C107 N108 1.261 . S
N108 Co59 2.214 . S
N108 C106 1.325 . S
N108 C107 1.261 . S
C109 H79 0.931 . S
C109 C106 1.357 . S
C109 C110 1.312 . S
C110 H81 0.930 . S
C110 C105 1.261 . S
C110 C109 1.312 . S
C111 O83 1.214 . S
C111 O91 1.234 . S
C112 H84 0.929 . S
C112 C115 1.391 . S
C112 C117 1.391 . S
C113 H85 0.929 . S
C113 C114 1.390 . S
C113 N116 1.391 . S
C114 H86 0.930 . S
C114 C113 1.390 . S
C114 C115 1.392 . S
C115 H87 0.929 . S
C115 C112 1.391 . S
C115 C114 1.392 . S
N116 Co60 2.257 . S
N116 C113 1.391 . S
N116 C117 1.388 . S
C117 H88 0.930 . S
C117 C112 1.391 . S
C117 N116 1.388 . S
Co118 O120 2.143 . S
Co118 O126 2.074 . S
Co118 O129 2.093 . S
Co118 O142 2.097 . S
Co118 N159 2.151 . S
Co118 N167 2.214 . S
Co119 O120 2.160 . S
Co119 O125 2.058 . S
Co119 O135 2.057 . S
Co119 O150 2.037 . S
Co119 N154 2.145 . S
Co119 N175 2.257 . S
O120 Co118 2.143 . S
O120 Co119 2.160 . S
C121 O122 1.278 . S
C121 O129 1.224 . S
O122 C121 1.278 . S
C123 O124 1.245 . S
C123 O135 1.232 . S
O124 C123 1.245 . S
O125 Co119 2.058 . S
O125 C151 1.269 . S
O126 Co118 2.074 . S
O126 C151 1.257 . S
H127 C152 0.930 . S
H128 C158 0.930 . S
O129 Co118 2.093 . S
O129 C121 1.224 . S
H130 C162 0.929 . S
H131 C164 0.930 . S
H132 C165 0.930 . S
H133 C163 0.929 . S
H134 C166 0.928 . S
O135 Co119 2.057 . S
O135 C123 1.232 . S
H136 C155 0.929 . S
H137 C156 0.929 . S
H138 C168 0.931 . S
H139 C160 0.929 . S
H140 C169 0.930 . S
H141 C161 0.931 . S
O142 Co118 2.097 . S
O142 C170 1.214 . S
H143 C171 0.929 . S
H144 C172 0.929 . S
H145 C173 0.930 . S
H146 C174 0.929 . S
H147 C176 0.930 . S
H148 C153 0.930 . S
H149 C157 0.930 . S
O150 Co119 2.037 . S
O150 C170 1.234 . S
C151 O125 1.269 . S
C151 O126 1.257 . S
C152 H127 0.930 . S
C152 C155 1.388 . S
C152 C157 1.418 . S
C153 H148 0.930 . S
C153 C156 1.404 . S
C153 C157 1.353 . S
N154 Co119 2.145 . S
N154 C155 1.397 . S
N154 C156 1.334 . S
C155 H136 0.929 . S
C155 C152 1.388 . S
C155 N154 1.397 . S
C156 H137 0.929 . S
C156 C153 1.404 . S
C156 N154 1.334 . S
C157 H149 0.930 . S
C157 C152 1.418 . S
C157 C153 1.353 . S
C158 H128 0.930 . S
C158 N159 1.330 . S
C158 C160 1.446 . S
N159 Co118 2.151 . S
N159 C158 1.330 . S
N159 C163 1.418 . S
C160 H139 0.929 . S
C160 C158 1.446 . S
C160 C161 1.332 . S
C161 H141 0.931 . S
C161 C160 1.332 . S
C161 C162 1.267 . S
C162 H130 0.929 . S
C162 C161 1.267 . S
C162 C163 1.251 . S
C163 H133 0.929 . S
C163 N159 1.418 . S
C163 C162 1.251 . S
C164 H131 0.930 . S
C164 C166 1.406 . S
C164 C169 1.261 . S
C165 H132 0.930 . S
C165 N167 1.325 . S
C165 C168 1.357 . S
C166 H134 0.928 . S
C166 C164 1.406 . S
C166 N167 1.261 . S
N167 Co118 2.214 . S
N167 C165 1.325 . S
N167 C166 1.261 . S
C168 H138 0.931 . S
C168 C165 1.357 . S
C168 C169 1.312 . S
C169 H140 0.930 . S
C169 C164 1.261 . S
C169 C168 1.312 . S
C170 O142 1.214 . S
C170 O150 1.234 . S
C171 H143 0.929 . S
C171 C174 1.391 . S
C171 C176 1.391 . S
C172 H144 0.929 . S
C172 C173 1.390 . S
C172 N175 1.391 . S
C173 H145 0.930 . S
C173 C172 1.390 . S
C173 C174 1.392 . S
C174 H146 0.929 . S
C174 C171 1.391 . S
C174 C173 1.392 . S
N175 Co119 2.257 . S
N175 C172 1.391 . S
N175 C176 1.388 . S
C176 H147 0.930 . S
C176 C171 1.391 . S
C176 N175 1.388 . S
Co177 O179 2.143 . S
Co177 O185 2.074 . S
Co177 O188 2.093 . S
Co177 O201 2.097 1_554 S
Co177 N218 2.151 . S
Co177 N226 2.214 1_554 S
Co178 O179 2.160 . S
Co178 O184 2.058 . S
Co178 O194 2.057 . S
Co178 O209 2.037 . S
Co178 N213 2.145 . S
Co178 N234 2.257 . S
O179 Co177 2.143 . S
O179 Co178 2.160 . S
C180 O181 1.278 . S
C180 O188 1.224 . S
O181 C180 1.278 . S
C182 O183 1.245 . S
C182 O194 1.232 . S
O183 C182 1.245 . S
O184 Co178 2.058 . S
O184 C210 1.269 . S
O185 Co177 2.074 . S
O185 C210 1.257 . S
H186 C211 0.930 . S
H187 C217 0.930 . S
O188 Co177 2.093 . S
O188 C180 1.224 . S
H189 C221 0.929 . S
H190 C223 0.930 . S
H191 C224 0.930 . S
H192 C222 0.929 . S
H193 C225 0.928 . S
O194 Co178 2.057 . S
O194 C182 1.232 . S
H195 C214 0.929 . S
H196 C215 0.929 . S
H197 C227 0.931 . S
H198 C219 0.929 . S
H199 C228 0.930 . S
H200 C220 0.931 . S
O201 Co177 2.097 1_556 S
O201 C229 1.214 . S
H202 C230 0.929 . S
H203 C231 0.929 . S
H204 C232 0.930 . S
H205 C233 0.929 . S
H206 C235 0.930 . S
H207 C212 0.930 . S
H208 C216 0.930 . S
O209 Co178 2.037 . S
O209 C229 1.234 1_554 S
C210 O184 1.269 . S
C210 O185 1.257 . S
C211 H186 0.930 . S
C211 C214 1.388 . S
C211 C216 1.418 . S
C212 H207 0.930 . S
C212 C215 1.404 . S
C212 C216 1.353 . S
N213 Co178 2.145 . S
N213 C214 1.397 . S
N213 C215 1.334 . S
C214 H195 0.929 . S
C214 C211 1.388 . S
C214 N213 1.397 . S
C215 H196 0.929 . S
C215 C212 1.404 . S
C215 N213 1.334 . S
C216 H208 0.930 . S
C216 C211 1.418 . S
C216 C212 1.353 . S
C217 H187 0.930 . S
C217 N218 1.330 . S
C217 C219 1.446 . S
N218 Co177 2.151 . S
N218 C217 1.330 . S
N218 C222 1.418 . S
C219 H198 0.929 . S
C219 C217 1.446 . S
C219 C220 1.332 . S
C220 H200 0.931 . S
C220 C219 1.332 . S
C220 C221 1.267 . S
C221 H189 0.929 . S
C221 C220 1.267 . S
C221 C222 1.251 . S
C222 H192 0.929 . S
C222 N218 1.418 . S
C222 C221 1.251 . S
C223 H190 0.930 . S
C223 C225 1.406 . S
C223 C228 1.261 . S
C224 H191 0.930 . S
C224 N226 1.325 . S
C224 C227 1.357 . S
C225 H193 0.928 . S
C225 C223 1.406 . S
C225 N226 1.261 . S
N226 Co177 2.214 1_556 S
N226 C224 1.325 . S
N226 C225 1.261 . S
C227 H197 0.931 . S
C227 C224 1.357 . S
C227 C228 1.312 . S
C228 H199 0.930 . S
C228 C223 1.261 . S
C228 C227 1.312 . S
C229 O201 1.214 . S
C229 O209 1.234 1_556 S
C230 H202 0.929 . S
C230 C233 1.391 . S
C230 C235 1.391 . S
C231 H203 0.929 . S
C231 C232 1.390 . S
C231 N234 1.391 . S
C232 H204 0.930 . S
C232 C231 1.390 . S
C232 C233 1.392 . S
C233 H205 0.929 . S
C233 C230 1.391 . S
C233 C232 1.392 . S
N234 Co178 2.257 . S
N234 C231 1.391 . S
N234 C235 1.388 . S
C235 H206 0.930 . S
C235 C230 1.391 . S
C235 N234 1.388 . S
Co236 O238 2.143 . S
Co236 O244 2.074 . S
Co236 O247 2.093 . S
Co236 O260 2.097 . S
Co236 N277 2.151 . S
Co236 N285 2.214 . S
Co237 O238 2.160 . S
Co237 O243 2.058 . S
Co237 O253 2.057 . S
Co237 O268 2.037 . S
Co237 N272 2.145 . S
Co237 N293 2.257 . S
O238 Co236 2.143 . S
O238 Co237 2.160 . S
C239 O240 1.278 . S
C239 O247 1.224 . S
O240 C239 1.278 . S
C241 O242 1.245 . S
C241 O253 1.232 . S
O242 C241 1.245 . S
O243 Co237 2.058 . S
O243 C269 1.269 . S
O244 Co236 2.074 . S
O244 C269 1.257 . S
H245 C270 0.930 . S
H246 C276 0.930 . S
O247 Co236 2.093 . S
O247 C239 1.224 . S
H248 C280 0.929 . S
H249 C282 0.930 . S
H250 C283 0.930 . S
H251 C281 0.929 . S
H252 C284 0.928 . S
O253 Co237 2.057 . S
O253 C241 1.232 . S
H254 C273 0.929 . S
H255 C274 0.929 . S
H256 C286 0.931 . S
H257 C278 0.929 . S
H258 C287 0.930 . S
H259 C279 0.931 . S
O260 Co236 2.097 . S
O260 C288 1.214 . S
H261 C289 0.929 . S
H262 C290 0.929 . S
H263 C291 0.930 . S
H264 C292 0.929 . S
H265 C294 0.930 . S
H266 C271 0.930 . S
H267 C275 0.930 . S
O268 Co237 2.037 . S
O268 C288 1.234 . S
C269 O243 1.269 . S
C269 O244 1.257 . S
C270 H245 0.930 . S
C270 C273 1.388 . S
C270 C275 1.418 . S
C271 H266 0.930 . S
C271 C274 1.404 . S
C271 C275 1.353 . S
N272 Co237 2.145 . S
N272 C273 1.397 . S
N272 C274 1.334 . S
C273 H254 0.929 . S
C273 C270 1.388 . S
C273 N272 1.397 . S
C274 H255 0.929 . S
C274 C271 1.404 . S
C274 N272 1.334 . S
C275 H267 0.930 . S
C275 C270 1.418 . S
C275 C271 1.353 . S
C276 H246 0.930 . S
C276 N277 1.330 . S
C276 C278 1.446 . S
N277 Co236 2.151 . S
N277 C276 1.330 . S
N277 C281 1.418 . S
C278 H257 0.929 . S
C278 C276 1.446 . S
C278 C279 1.332 . S
C279 H259 0.931 . S
C279 C278 1.332 . S
C279 C280 1.267 . S
C280 H248 0.929 . S
C280 C279 1.267 . S
C280 C281 1.251 . S
C281 H251 0.929 . S
C281 N277 1.418 . S
C281 C280 1.251 . S
C282 H249 0.930 . S
C282 C284 1.406 . S
C282 C287 1.261 . S
C283 H250 0.930 . S
C283 N285 1.325 . S
C283 C286 1.357 . S
C284 H252 0.928 . S
C284 C282 1.406 . S
C284 N285 1.261 . S
N285 Co236 2.214 . S
N285 C283 1.325 . S
N285 C284 1.261 . S
C286 H256 0.931 . S
C286 C283 1.357 . S
C286 C287 1.312 . S
C287 H258 0.930 . S
C287 C282 1.261 . S
C287 C286 1.312 . S
C288 O260 1.214 . S
C288 O268 1.234 . S
C289 H261 0.929 . S
C289 C292 1.391 . S
C289 C294 1.391 . S
C290 H262 0.929 . S
C290 C291 1.390 . S
C290 N293 1.391 . S
C291 H263 0.930 . S
C291 C290 1.390 . S
C291 C292 1.392 . S
C292 H264 0.929 . S
C292 C289 1.391 . S
C292 C291 1.392 . S
N293 Co237 2.257 . S
N293 C290 1.391 . S
N293 C294 1.388 . S
C294 H265 0.930 . S
C294 C289 1.391 . S
C294 N293 1.388 . S
Co295 O297 2.143 . S
Co295 O303 2.074 . S
Co295 O306 2.093 . S
Co295 O319 2.097 . S
Co295 N336 2.151 . S
Co295 N344 2.214 . S
Co296 O297 2.160 . S
Co296 O302 2.058 . S
Co296 O312 2.057 . S
Co296 O327 2.037 . S
Co296 N331 2.145 . S
Co296 N352 2.257 . S
O297 Co295 2.143 . S
O297 Co296 2.160 . S
C298 O299 1.278 . S
C298 O306 1.224 . S
O299 C298 1.278 . S
C300 O301 1.245 . S
C300 O312 1.232 . S
O301 C300 1.245 . S
O302 Co296 2.058 . S
O302 C328 1.269 . S
O303 Co295 2.074 . S
O303 C328 1.257 . S
H304 C329 0.930 . S
H305 C335 0.930 . S
O306 Co295 2.093 . S
O306 C298 1.224 . S
H307 C339 0.929 . S
H308 C341 0.930 . S
H309 C342 0.930 . S
H310 C340 0.929 . S
H311 C343 0.928 . S
O312 Co296 2.057 . S
O312 C300 1.232 . S
H313 C332 0.929 . S
H314 C333 0.929 . S
H315 C345 0.931 . S
H316 C337 0.929 . S
H317 C346 0.930 . S
H318 C338 0.931 . S
O319 Co295 2.097 . S
O319 C347 1.214 . S
H320 C348 0.929 . S
H321 C349 0.929 . S
H322 C350 0.930 . S
H323 C351 0.929 . S
H324 C353 0.930 . S
H325 C330 0.930 . S
H326 C334 0.930 . S
O327 Co296 2.037 . S
O327 C347 1.234 . S
C328 O302 1.269 . S
C328 O303 1.257 . S
C329 H304 0.930 . S
C329 C332 1.388 . S
C329 C334 1.418 . S
C330 H325 0.930 . S
C330 C333 1.404 . S
C330 C334 1.353 . S
N331 Co296 2.145 . S
N331 C332 1.397 . S
N331 C333 1.334 . S
C332 H313 0.929 . S
C332 C329 1.388 . S
C332 N331 1.397 . S
C333 H314 0.929 . S
C333 C330 1.404 . S
C333 N331 1.334 . S
C334 H326 0.930 . S
C334 C329 1.418 . S
C334 C330 1.353 . S
C335 H305 0.930 . S
C335 N336 1.330 . S
C335 C337 1.446 . S
N336 Co295 2.151 . S
N336 C335 1.330 . S
N336 C340 1.418 . S
C337 H316 0.929 . S
C337 C335 1.446 . S
C337 C338 1.332 . S
C338 H318 0.931 . S
C338 C337 1.332 . S
C338 C339 1.267 . S
C339 H307 0.929 . S
C339 C338 1.267 . S
C339 C340 1.251 . S
C340 H310 0.929 . S
C340 N336 1.418 . S
C340 C339 1.251 . S
C341 H308 0.930 . S
C341 C343 1.406 . S
C341 C346 1.261 . S
C342 H309 0.930 . S
C342 N344 1.325 . S
C342 C345 1.357 . S
C343 H311 0.928 . S
C343 C341 1.406 . S
C343 N344 1.261 . S
N344 Co295 2.214 . S
N344 C342 1.325 . S
N344 C343 1.261 . S
C345 H315 0.931 . S
C345 C342 1.357 . S
C345 C346 1.312 . S
C346 H317 0.930 . S
C346 C341 1.261 . S
C346 C345 1.312 . S
C347 O319 1.214 . S
C347 O327 1.234 . S
C348 H320 0.929 . S
C348 C351 1.391 . S
C348 C353 1.391 . S
C349 H321 0.929 . S
C349 C350 1.390 . S
C349 N352 1.391 . S
C350 H322 0.930 . S
C350 C349 1.390 . S
C350 C351 1.392 . S
C351 H323 0.929 . S
C351 C348 1.391 . S
C351 C350 1.392 . S
N352 Co296 2.257 . S
N352 C349 1.391 . S
N352 C353 1.388 . S
C353 H324 0.930 . S
C353 C348 1.391 . S
C353 N352 1.388 . S
Co354 O356 2.143 . S
Co354 O362 2.074 . S
Co354 O365 2.093 . S
Co354 O378 2.097 . S
Co354 N395 2.151 . S
Co354 N403 2.214 . S
Co355 O356 2.160 . S
Co355 O361 2.058 . S
Co355 O371 2.057 . S
Co355 O386 2.037 . S
Co355 N390 2.145 . S
Co355 N411 2.257 . S
O356 Co354 2.143 . S
O356 Co355 2.160 . S
C357 O358 1.278 . S
C357 O365 1.224 . S
O358 C357 1.278 . S
C359 O360 1.245 . S
C359 O371 1.232 . S
O360 C359 1.245 . S
O361 Co355 2.058 . S
O361 C387 1.269 . S
O362 Co354 2.074 . S
O362 C387 1.257 . S
H363 C388 0.930 . S
H364 C394 0.930 . S
O365 Co354 2.093 . S
O365 C357 1.224 . S
H366 C398 0.929 . S
H367 C400 0.930 . S
H368 C401 0.930 . S
H369 C399 0.929 . S
H370 C402 0.928 . S
O371 Co355 2.057 . S
O371 C359 1.232 . S
H372 C391 0.929 . S
H373 C392 0.929 . S
H374 C404 0.931 . S
H375 C396 0.929 . S
H376 C405 0.930 . S
H377 C397 0.931 . S
O378 Co354 2.097 . S
O378 C406 1.214 . S
H379 C407 0.929 . S
H380 C408 0.929 . S
H381 C409 0.930 . S
H382 C410 0.929 . S
H383 C412 0.930 . S
H384 C389 0.930 . S
H385 C393 0.930 . S
O386 Co355 2.037 . S
O386 C406 1.234 . S
C387 O361 1.269 . S
C387 O362 1.257 . S
C388 H363 0.930 . S
C388 C391 1.388 . S
C388 C393 1.418 . S
C389 H384 0.930 . S
C389 C392 1.404 . S
C389 C393 1.353 . S
N390 Co355 2.145 . S
N390 C391 1.397 . S
N390 C392 1.334 . S
C391 H372 0.929 . S
C391 C388 1.388 . S
C391 N390 1.397 . S
C392 H373 0.929 . S
C392 C389 1.404 . S
C392 N390 1.334 . S
C393 H385 0.930 . S
C393 C388 1.418 . S
C393 C389 1.353 . S
C394 H364 0.930 . S
C394 N395 1.330 . S
C394 C396 1.446 . S
N395 Co354 2.151 . S
N395 C394 1.330 . S
N395 C399 1.418 . S
C396 H375 0.929 . S
C396 C394 1.446 . S
C396 C397 1.332 . S
C397 H377 0.931 . S
C397 C396 1.332 . S
C397 C398 1.267 . S
C398 H366 0.929 . S
C398 C397 1.267 . S
C398 C399 1.251 . S
C399 H369 0.929 . S
C399 N395 1.418 . S
C399 C398 1.251 . S
C400 H367 0.930 . S
C400 C402 1.406 . S
C400 C405 1.261 . S
C401 H368 0.930 . S
C401 N403 1.325 . S
C401 C404 1.357 . S
C402 H370 0.928 . S
C402 C400 1.406 . S
C402 N403 1.261 . S
N403 Co354 2.214 . S
N403 C401 1.325 . S
N403 C402 1.261 . S
C404 H374 0.931 . S
C404 C401 1.357 . S
C404 C405 1.312 . S
C405 H376 0.930 . S
C405 C400 1.261 . S
C405 C404 1.312 . S
C406 O378 1.214 . S
C406 O386 1.234 . S
C407 H379 0.929 . S
C407 C410 1.391 . S
C407 C412 1.391 . S
C408 H380 0.929 . S
C408 C409 1.390 . S
C408 N411 1.391 . S
C409 H381 0.930 . S
C409 C408 1.390 . S
C409 C410 1.392 . S
C410 H382 0.929 . S
C410 C407 1.391 . S
C410 C409 1.392 . S
N411 Co355 2.257 . S
N411 C408 1.391 . S
N411 C412 1.388 . S
C412 H383 0.930 . S
C412 C407 1.391 . S
C412 N411 1.388 . S
Co413 O415 2.143 . S
Co413 O421 2.074 . S
Co413 O424 2.093 . S
Co413 O437 2.097 1_556 S
Co413 N454 2.151 . S
Co413 N462 2.214 1_556 S
Co414 O415 2.160 . S
Co414 O420 2.058 . S
Co414 O430 2.057 . S
Co414 O445 2.037 . S
Co414 N449 2.145 . S
Co414 N470 2.257 . S
O415 Co413 2.143 . S
O415 Co414 2.160 . S
C416 O417 1.278 . S
C416 O424 1.224 . S
O417 C416 1.278 . S
C418 O419 1.245 . S
C418 O430 1.232 . S
O419 C418 1.245 . S
O420 Co414 2.058 . S
O420 C446 1.269 . S
O421 Co413 2.074 . S
O421 C446 1.257 . S
H422 C447 0.930 . S
H423 C453 0.930 . S
O424 Co413 2.093 . S
O424 C416 1.224 . S
H425 C457 0.929 . S
H426 C459 0.930 . S
H427 C460 0.930 . S
H428 C458 0.929 . S
H429 C461 0.928 . S
O430 Co414 2.057 . S
O430 C418 1.232 . S
H431 C450 0.929 . S
H432 C451 0.929 . S
H433 C463 0.931 . S
H434 C455 0.929 . S
H435 C464 0.930 . S
H436 C456 0.931 . S
O437 Co413 2.097 1_554 S
O437 C465 1.214 . S
H438 C466 0.929 . S
H439 C467 0.929 . S
H440 C468 0.930 . S
H441 C469 0.929 . S
H442 C471 0.930 . S
H443 C448 0.930 . S
H444 C452 0.930 . S
O445 Co414 2.037 . S
O445 C465 1.234 1_556 S
C446 O420 1.269 . S
C446 O421 1.257 . S
C447 H422 0.930 . S
C447 C450 1.388 . S
C447 C452 1.418 . S
C448 H443 0.930 . S
C448 C451 1.404 . S
C448 C452 1.353 . S
N449 Co414 2.145 . S
N449 C450 1.397 . S
N449 C451 1.334 . S
C450 H431 0.929 . S
C450 C447 1.388 . S
C450 N449 1.397 . S
C451 H432 0.929 . S
C451 C448 1.404 . S
C451 N449 1.334 . S
C452 H444 0.930 . S
C452 C447 1.418 . S
C452 C448 1.353 . S
C453 H423 0.930 . S
C453 N454 1.330 . S
C453 C455 1.446 . S
N454 Co413 2.151 . S
N454 C453 1.330 . S
N454 C458 1.418 . S
C455 H434 0.929 . S
C455 C453 1.446 . S
C455 C456 1.332 . S
C456 H436 0.931 . S
C456 C455 1.332 . S
C456 C457 1.267 . S
C457 H425 0.929 . S
C457 C456 1.267 . S
C457 C458 1.251 . S
C458 H428 0.929 . S
C458 N454 1.418 . S
C458 C457 1.251 . S
C459 H426 0.930 . S
C459 C461 1.406 . S
C459 C464 1.261 . S
C460 H427 0.930 . S
C460 N462 1.325 . S
C460 C463 1.357 . S
C461 H429 0.928 . S
C461 C459 1.406 . S
C461 N462 1.261 . S
N462 Co413 2.214 1_554 S
N462 C460 1.325 . S
N462 C461 1.261 . S
C463 H433 0.931 . S
C463 C460 1.357 . S
C463 C464 1.312 . S
C464 H435 0.930 . S
C464 C459 1.261 . S
C464 C463 1.312 . S
C465 O437 1.214 . S
C465 O445 1.234 1_554 S
C466 H438 0.929 . S
C466 C469 1.391 . S
C466 C471 1.391 . S
C467 H439 0.929 . S
C467 C468 1.390 . S
C467 N470 1.391 . S
C468 H440 0.930 . S
C468 C467 1.390 . S
C468 C469 1.392 . S
C469 H441 0.929 . S
C469 C466 1.391 . S
C469 C468 1.392 . S
N470 Co414 2.257 . S
N470 C467 1.391 . S
N470 C471 1.388 . S
C471 H442 0.930 . S
C471 C466 1.391 . S
C471 N470 1.388 . S
Co472 O474 2.143 . S
Co472 O480 2.074 . S
Co472 O483 2.093 . S
Co472 O496 2.097 . S
Co472 N513 2.151 . S
Co472 N521 2.214 . S
Co473 O474 2.160 . S
Co473 O479 2.058 . S
Co473 O489 2.057 . S
Co473 O504 2.037 . S
Co473 N508 2.145 . S
Co473 N529 2.257 . S
O474 Co472 2.143 . S
O474 Co473 2.160 . S
C475 O476 1.278 . S
C475 O483 1.224 . S
O476 C475 1.278 . S
C477 O478 1.245 . S
C477 O489 1.232 . S
O478 C477 1.245 . S
O479 Co473 2.058 . S
O479 C505 1.269 . S
O480 Co472 2.074 . S
O480 C505 1.257 . S
H481 C506 0.930 . S
H482 C512 0.930 . S
O483 Co472 2.093 . S
O483 C475 1.224 . S
H484 C516 0.929 . S
H485 C518 0.930 . S
H486 C519 0.930 . S
H487 C517 0.929 . S
H488 C520 0.928 . S
O489 Co473 2.057 . S
O489 C477 1.232 . S
H490 C509 0.929 . S
H491 C510 0.929 . S
H492 C522 0.931 . S
H493 C514 0.929 . S
H494 C523 0.930 . S
H495 C515 0.931 . S
O496 Co472 2.097 . S
O496 C524 1.214 . S
H497 C525 0.929 . S
H498 C526 0.929 . S
H499 C527 0.930 . S
H500 C528 0.929 . S
H501 C530 0.930 . S
H502 C507 0.930 . S
H503 C511 0.930 . S
O504 Co473 2.037 . S
O504 C524 1.234 . S
C505 O479 1.269 . S
C505 O480 1.257 . S
C506 H481 0.930 . S
C506 C509 1.388 . S
C506 C511 1.418 . S
C507 H502 0.930 . S
C507 C510 1.404 . S
C507 C511 1.353 . S
N508 Co473 2.145 . S
N508 C509 1.397 . S
N508 C510 1.334 . S
C509 H490 0.929 . S
C509 C506 1.388 . S
C509 N508 1.397 . S
C510 H491 0.929 . S
C510 C507 1.404 . S
C510 N508 1.334 . S
C511 H503 0.930 . S
C511 C506 1.418 . S
C511 C507 1.353 . S
C512 H482 0.930 . S
C512 N513 1.330 . S
C512 C514 1.446 . S
N513 Co472 2.151 . S
N513 C512 1.330 . S
N513 C517 1.418 . S
C514 H493 0.929 . S
C514 C512 1.446 . S
C514 C515 1.332 . S
C515 H495 0.931 . S
C515 C514 1.332 . S
C515 C516 1.267 . S
C516 H484 0.929 . S
C516 C515 1.267 . S
C516 C517 1.251 . S
C517 H487 0.929 . S
C517 N513 1.418 . S
C517 C516 1.251 . S
C518 H485 0.930 . S
C518 C520 1.406 . S
C518 C523 1.261 . S
C519 H486 0.930 . S
C519 N521 1.325 . S
C519 C522 1.357 . S
C520 H488 0.928 . S
C520 C518 1.406 . S
C520 N521 1.261 . S
N521 Co472 2.214 . S
N521 C519 1.325 . S
N521 C520 1.261 . S
C522 H492 0.931 . S
C522 C519 1.357 . S
C522 C523 1.312 . S
C523 H494 0.930 . S
C523 C518 1.261 . S
C523 C522 1.312 . S
C524 O496 1.214 . S
C524 O504 1.234 . S
C525 H497 0.929 . S
C525 C528 1.391 . S
C525 C530 1.391 . S
C526 H498 0.929 . S
C526 C527 1.390 . S
C526 N529 1.391 . S
C527 H499 0.930 . S
C527 C526 1.390 . S
C527 C528 1.392 . S
C528 H500 0.929 . S
C528 C525 1.391 . S
C528 C527 1.392 . S
N529 Co473 2.257 . S
N529 C526 1.391 . S
N529 C530 1.388 . S
C530 H501 0.930 . S
C530 C525 1.391 . S
C530 N529 1.388 . S
Co531 O533 2.143 . S
Co531 O539 2.074 . S
Co531 O542 2.093 . S
Co531 O555 2.097 . S
Co531 N572 2.151 . S
Co531 N580 2.214 . S
Co532 O533 2.160 . S
Co532 O538 2.058 . S
Co532 O548 2.057 . S
Co532 O563 2.037 . S
Co532 N567 2.145 . S
Co532 N588 2.257 . S
O533 Co531 2.143 . S
O533 Co532 2.160 . S
C534 O535 1.278 . S
C534 O542 1.224 . S
O535 C534 1.278 . S
C536 O537 1.245 . S
C536 O548 1.232 . S
O537 C536 1.245 . S
O538 Co532 2.058 . S
O538 C564 1.269 . S
O539 Co531 2.074 . S
O539 C564 1.257 . S
H540 C565 0.930 . S
H541 C571 0.930 . S
O542 Co531 2.093 . S
O542 C534 1.224 . S
H543 C575 0.929 . S
H544 C577 0.930 . S
H545 C578 0.930 . S
H546 C576 0.929 . S
H547 C579 0.928 . S
O548 Co532 2.057 . S
O548 C536 1.232 . S
H549 C568 0.929 . S
H550 C569 0.929 . S
H551 C581 0.931 . S
H552 C573 0.929 . S
H553 C582 0.930 . S
H554 C574 0.931 . S
O555 Co531 2.097 . S
O555 C583 1.214 . S
H556 C584 0.929 . S
H557 C585 0.929 . S
H558 C586 0.930 . S
H559 C587 0.929 . S
H560 C589 0.930 . S
H561 C566 0.930 . S
H562 C570 0.930 . S
O563 Co532 2.037 . S
O563 C583 1.234 . S
C564 O538 1.269 . S
C564 O539 1.257 . S
C565 H540 0.930 . S
C565 C568 1.388 . S
C565 C570 1.418 . S
C566 H561 0.930 . S
C566 C569 1.404 . S
C566 C570 1.353 . S
N567 Co532 2.145 . S
N567 C568 1.397 . S
N567 C569 1.334 . S
C568 H549 0.929 . S
C568 C565 1.388 . S
C568 N567 1.397 . S
C569 H550 0.929 . S
C569 C566 1.404 . S
C569 N567 1.334 . S
C570 H562 0.930 . S
C570 C565 1.418 . S
C570 C566 1.353 . S
C571 H541 0.930 . S
C571 N572 1.330 . S
C571 C573 1.446 . S
N572 Co531 2.151 . S
N572 C571 1.330 . S
N572 C576 1.418 . S
C573 H552 0.929 . S
C573 C571 1.446 . S
C573 C574 1.332 . S
C574 H554 0.931 . S
C574 C573 1.332 . S
C574 C575 1.267 . S
C575 H543 0.929 . S
C575 C574 1.267 . S
C575 C576 1.251 . S
C576 H546 0.929 . S
C576 N572 1.418 . S
C576 C575 1.251 . S
C577 H544 0.930 . S
C577 C579 1.406 . S
C577 C582 1.261 . S
C578 H545 0.930 . S
C578 N580 1.325 . S
C578 C581 1.357 . S
C579 H547 0.928 . S
C579 C577 1.406 . S
C579 N580 1.261 . S
N580 Co531 2.214 . S
N580 C578 1.325 . S
N580 C579 1.261 . S
C581 H551 0.931 . S
C581 C578 1.357 . S
C581 C582 1.312 . S
C582 H553 0.930 . S
C582 C577 1.261 . S
C582 C581 1.312 . S
C583 O555 1.214 . S
C583 O563 1.234 . S
C584 H556 0.929 . S
C584 C587 1.391 . S
C584 C589 1.391 . S
C585 H557 0.929 . S
C585 C586 1.390 . S
C585 N588 1.391 . S
C586 H558 0.930 . S
C586 C585 1.390 . S
C586 C587 1.392 . S
C587 H559 0.929 . S
C587 C584 1.391 . S
C587 C586 1.392 . S
N588 Co532 2.257 . S
N588 C585 1.391 . S
N588 C589 1.388 . S
C589 H560 0.930 . S
C589 C584 1.391 . S
C589 N588 1.388 . S
Co590 O592 2.143 . S
Co590 O598 2.074 . S
Co590 O601 2.093 . S
Co590 O614 2.097 1_556 S
Co590 N631 2.151 . S
Co590 N639 2.214 1_556 S
Co591 O592 2.160 . S
Co591 O597 2.058 . S
Co591 O607 2.057 . S
Co591 O622 2.037 . S
Co591 N626 2.145 . S
Co591 N647 2.257 . S
O592 Co590 2.143 . S
O592 Co591 2.160 . S
C593 O594 1.278 . S
C593 O601 1.224 . S
O594 C593 1.278 . S
C595 O596 1.245 . S
C595 O607 1.232 . S
O596 C595 1.245 . S
O597 Co591 2.058 . S
O597 C623 1.269 . S
O598 Co590 2.074 . S
O598 C623 1.257 . S
H599 C624 0.930 . S
H600 C630 0.930 . S
O601 Co590 2.093 . S
O601 C593 1.224 . S
H602 C634 0.929 . S
H603 C636 0.930 . S
H604 C637 0.930 . S
H605 C635 0.929 . S
H606 C638 0.928 . S
O607 Co591 2.057 . S
O607 C595 1.232 . S
H608 C627 0.929 . S
H609 C628 0.929 . S
H610 C640 0.931 . S
H611 C632 0.929 . S
H612 C641 0.930 . S
H613 C633 0.931 . S
O614 Co590 2.097 1_554 S
O614 C642 1.214 . S
H615 C643 0.929 . S
H616 C644 0.929 . S
H617 C645 0.930 . S
H618 C646 0.929 . S
H619 C648 0.930 . S
H620 C625 0.930 . S
H621 C629 0.930 . S
O622 Co591 2.037 . S
O622 C642 1.234 1_556 S
C623 O597 1.269 . S
C623 O598 1.257 . S
C624 H599 0.930 . S
C624 C627 1.388 . S
C624 C629 1.418 . S
C625 H620 0.930 . S
C625 C628 1.404 . S
C625 C629 1.353 . S
N626 Co591 2.145 . S
N626 C627 1.397 . S
N626 C628 1.334 . S
C627 H608 0.929 . S
C627 C624 1.388 . S
C627 N626 1.397 . S
C628 H609 0.929 . S
C628 C625 1.404 . S
C628 N626 1.334 . S
C629 H621 0.930 . S
C629 C624 1.418 . S
C629 C625 1.353 . S
C630 H600 0.930 . S
C630 N631 1.330 . S
C630 C632 1.446 . S
N631 Co590 2.151 . S
N631 C630 1.330 . S
N631 C635 1.418 . S
C632 H611 0.929 . S
C632 C630 1.446 . S
C632 C633 1.332 . S
C633 H613 0.931 . S
C633 C632 1.332 . S
C633 C634 1.267 . S
C634 H602 0.929 . S
C634 C633 1.267 . S
C634 C635 1.251 . S
C635 H605 0.929 . S
C635 N631 1.418 . S
C635 C634 1.251 . S
C636 H603 0.930 . S
C636 C638 1.406 . S
C636 C641 1.261 . S
C637 H604 0.930 . S
C637 N639 1.325 . S
C637 C640 1.357 . S
C638 H606 0.928 . S
C638 C636 1.406 . S
C638 N639 1.261 . S
N639 Co590 2.214 1_554 S
N639 C637 1.325 . S
N639 C638 1.261 . S
C640 H610 0.931 . S
C640 C637 1.357 . S
C640 C641 1.312 . S
C641 H612 0.930 . S
C641 C636 1.261 . S
C641 C640 1.312 . S
C642 O614 1.214 . S
C642 O622 1.234 1_554 S
C643 H615 0.929 . S
C643 C646 1.391 . S
C643 C648 1.391 . S
C644 H616 0.929 . S
C644 C645 1.390 . S
C644 N647 1.391 . S
C645 H617 0.930 . S
C645 C644 1.390 . S
C645 C646 1.392 . S
C646 H618 0.929 . S
C646 C643 1.391 . S
C646 C645 1.392 . S
N647 Co591 2.257 . S
N647 C644 1.391 . S
N647 C648 1.388 . S
C648 H619 0.930 . S
C648 C643 1.391 . S
C648 N647 1.388 . S
Co649 O651 2.143 . S
Co649 O657 2.074 . S
Co649 O660 2.093 . S
Co649 O673 2.097 . S
Co649 N690 2.151 . S
Co649 N698 2.214 . S
Co650 O651 2.160 . S
Co650 O656 2.058 . S
Co650 O666 2.057 . S
Co650 O681 2.037 . S
Co650 N685 2.145 . S
Co650 N706 2.257 . S
O651 Co649 2.143 . S
O651 Co650 2.160 . S
C652 O653 1.278 . S
C652 O660 1.224 . S
O653 C652 1.278 . S
C654 O655 1.245 . S
C654 O666 1.232 . S
O655 C654 1.245 . S
O656 Co650 2.058 . S
O656 C682 1.269 . S
O657 Co649 2.074 . S
O657 C682 1.257 . S
H658 C683 0.930 . S
H659 C689 0.930 . S
O660 Co649 2.093 . S
O660 C652 1.224 . S
H661 C693 0.929 . S
H662 C695 0.930 . S
H663 C696 0.930 . S
H664 C694 0.929 . S
H665 C697 0.928 . S
O666 Co650 2.057 . S
O666 C654 1.232 . S
H667 C686 0.929 . S
H668 C687 0.929 . S
H669 C699 0.931 . S
H670 C691 0.929 . S
H671 C700 0.930 . S
H672 C692 0.931 . S
O673 Co649 2.097 . S
O673 C701 1.214 . S
H674 C702 0.929 . S
H675 C703 0.929 . S
H676 C704 0.930 . S
H677 C705 0.929 . S
H678 C707 0.930 . S
H679 C684 0.930 . S
H680 C688 0.930 . S
O681 Co650 2.037 . S
O681 C701 1.234 . S
C682 O656 1.269 . S
C682 O657 1.257 . S
C683 H658 0.930 . S
C683 C686 1.388 . S
C683 C688 1.418 . S
C684 H679 0.930 . S
C684 C687 1.404 . S
C684 C688 1.353 . S
N685 Co650 2.145 . S
N685 C686 1.397 . S
N685 C687 1.334 . S
C686 H667 0.929 . S
C686 C683 1.388 . S
C686 N685 1.397 . S
C687 H668 0.929 . S
C687 C684 1.404 . S
C687 N685 1.334 . S
C688 H680 0.930 . S
C688 C683 1.418 . S
C688 C684 1.353 . S
C689 H659 0.930 . S
C689 N690 1.330 . S
C689 C691 1.446 . S
N690 Co649 2.151 . S
N690 C689 1.330 . S
N690 C694 1.418 . S
C691 H670 0.929 . S
C691 C689 1.446 . S
C691 C692 1.332 . S
C692 H672 0.931 . S
C692 C691 1.332 . S
C692 C693 1.267 . S
C693 H661 0.929 . S
C693 C692 1.267 . S
C693 C694 1.251 . S
C694 H664 0.929 . S
C694 N690 1.418 . S
C694 C693 1.251 . S
C695 H662 0.930 . S
C695 C697 1.406 . S
C695 C700 1.261 . S
C696 H663 0.930 . S
C696 N698 1.325 . S
C696 C699 1.357 . S
C697 H665 0.928 . S
C697 C695 1.406 . S
C697 N698 1.261 . S
N698 Co649 2.214 . S
N698 C696 1.325 . S
N698 C697 1.261 . S
C699 H669 0.931 . S
C699 C696 1.357 . S
C699 C700 1.312 . S
C700 H671 0.930 . S
C700 C695 1.261 . S
C700 C699 1.312 . S
C701 O673 1.214 . S
C701 O681 1.234 . S
C702 H674 0.929 . S
C702 C705 1.391 . S
C702 C707 1.391 . S
C703 H675 0.929 . S
C703 C704 1.390 . S
C703 N706 1.391 . S
C704 H676 0.930 . S
C704 C703 1.390 . S
C704 C705 1.392 . S
C705 H677 0.929 . S
C705 C702 1.391 . S
C705 C704 1.392 . S
N706 Co650 2.257 . S
N706 C703 1.391 . S
N706 C707 1.388 . S
C707 H678 0.930 . S
C707 C702 1.391 . S
C707 N706 1.388 . S
H708 C716 0.950 . S
H709 C721 0.950 . S
H710 C718 0.950 . S
H711 C720 0.950 . S
H712 C722 0.950 . S
H713 C724 0.950 . S
H714 C726 0.950 . S
H715 C727 0.950 . S
C716 H708 0.950 . S
C716 C717 1.386 . S
C716 C718 1.391 . S
C717 C716 1.386 . S
C717 C721 1.393 . S
C718 H710 0.950 . S
C718 C716 1.391 . S
C718 C719 1.400 . S
C719 C718 1.400 . S
C719 C720 1.398 . S
C719 C725 1.491 . S
C720 H711 0.950 . S
C720 C719 1.398 . S
C720 C721 1.391 . S
C721 H709 0.950 . S
C721 C717 1.393 . S
C721 C720 1.391 . S
C722 H712 0.950 . S
C722 C723 1.386 . S
C722 C724 1.391 . S
C723 C722 1.386 . S
C723 C727 1.393 . S
C724 H713 0.950 . S
C724 C722 1.391 . S
C724 C725 1.400 . S
C725 C719 1.491 . S
C725 C724 1.400 . S
C725 C726 1.398 . S
C726 H714 0.950 . S
C726 C725 1.398 . S
C726 C727 1.391 . S
C727 H715 0.950 . S
C727 C723 1.393 . S
C727 C726 1.391 . S
H728 C736 0.950 . S
H729 C741 0.950 . S
H730 C738 0.950 . S
H731 C740 0.950 . S
H732 C742 0.950 . S
H733 C744 0.950 . S
H734 C746 0.950 . S
H735 C747 0.950 . S
C736 H728 0.950 . S
C736 C737 1.386 . S
C736 C738 1.391 . S
C737 C736 1.386 . S
C737 C741 1.393 . S
C738 H730 0.950 . S
C738 C736 1.391 . S
C738 C739 1.400 . S
C739 C738 1.400 . S
C739 C740 1.398 . S
C739 C745 1.491 . S
C740 H731 0.950 . S
C740 C739 1.398 . S
C740 C741 1.391 . S
C741 H729 0.950 . S
C741 C737 1.393 . S
C741 C740 1.391 . S
C742 H732 0.950 . S
C742 C743 1.386 . S
C742 C744 1.391 . S
C743 C742 1.386 . S
C743 C747 1.393 . S
C744 H733 0.950 . S
C744 C742 1.391 . S
C744 C745 1.400 . S
C745 C739 1.491 . S
C745 C744 1.400 . S
C745 C746 1.398 . S
C746 H734 0.950 . S
C746 C745 1.398 . S
C746 C747 1.391 . S
C747 H735 0.950 . S
C747 C743 1.393 . S
C747 C746 1.391 . S
H748 C756 0.950 . S
H749 C761 0.950 . S
H750 C758 0.950 . S
H751 C760 0.950 . S
H752 C762 0.950 . S
H753 C764 0.950 . S
H754 C766 0.950 . S
H755 C767 0.950 . S
C756 H748 0.950 . S
C756 C757 1.386 . S
C756 C758 1.391 . S
C757 C756 1.386 . S
C757 C761 1.393 . S
C758 H750 0.950 . S
C758 C756 1.391 . S
C758 C759 1.400 . S
C759 C758 1.400 . S
C759 C760 1.398 . S
C759 C765 1.491 1_556 S
C760 H751 0.950 . S
C760 C759 1.398 . S
C760 C761 1.391 . S
C761 H749 0.950 . S
C761 C757 1.393 . S
C761 C760 1.391 . S
C762 H752 0.950 . S
C762 C763 1.386 . S
C762 C764 1.391 . S
C763 C762 1.386 . S
C763 C767 1.393 . S
C764 H753 0.950 . S
C764 C762 1.391 . S
C764 C765 1.400 . S
C765 C759 1.491 1_554 S
C765 C764 1.400 . S
C765 C766 1.398 . S
C766 H754 0.950 . S
C766 C765 1.398 . S
C766 C767 1.391 . S
C767 H755 0.950 . S
C767 C763 1.393 . S
C767 C766 1.391 . S
H768 C776 0.950 . S
H769 C781 0.950 . S
H770 C778 0.950 . S
H771 C780 0.950 . S
H772 C782 0.950 . S
H773 C784 0.950 . S
H774 C786 0.950 . S
H775 C787 0.950 . S
C776 H768 0.950 . S
C776 C777 1.386 . S
C776 C778 1.391 . S
C777 C776 1.386 . S
C777 C781 1.393 . S
C778 H770 0.950 . S
C778 C776 1.391 . S
C778 C779 1.400 . S
C779 C778 1.400 . S
C779 C780 1.398 . S
C779 C785 1.491 . S
C780 H771 0.950 . S
C780 C779 1.398 . S
C780 C781 1.391 . S
C781 H769 0.950 . S
C781 C777 1.393 . S
C781 C780 1.391 . S
C782 H772 0.950 . S
C782 C783 1.386 . S
C782 C784 1.391 . S
C783 C782 1.386 . S
C783 C787 1.393 . S
C784 H773 0.950 . S
C784 C782 1.391 . S
C784 C785 1.400 . S
C785 C779 1.491 . S
C785 C784 1.400 . S
C785 C786 1.398 . S
C786 H774 0.950 . S
C786 C785 1.398 . S
C786 C787 1.391 . S
C787 H775 0.950 . S
C787 C783 1.393 . S
C787 C786 1.391 . S
H788 C796 0.950 . S
H789 C801 0.950 . S
H790 C798 0.950 . S
H791 C800 0.950 . S
H792 C802 0.950 . S
H793 C804 0.950 . S
H794 C806 0.950 . S
H795 C807 0.950 . S
C796 H788 0.950 . S
C796 C797 1.386 . S
C796 C798 1.391 . S
C797 C796 1.386 . S
C797 C801 1.393 . S
C798 H790 0.950 . S
C798 C796 1.391 . S
C798 C799 1.400 . S
C799 C798 1.400 . S
C799 C800 1.398 . S
C799 C805 1.491 . S
C800 H791 0.950 . S
C800 C799 1.398 . S
C800 C801 1.391 . S
C801 H789 0.950 . S
C801 C797 1.393 . S
C801 C800 1.391 . S
C802 H792 0.950 . S
C802 C803 1.386 . S
C802 C804 1.391 . S
C803 C802 1.386 . S
C803 C807 1.393 . S
C804 H793 0.950 . S
C804 C802 1.391 . S
C804 C805 1.400 . S
C805 C799 1.491 . S
C805 C804 1.400 . S
C805 C806 1.398 . S
C806 H794 0.950 . S
C806 C805 1.398 . S
C806 C807 1.391 . S
C807 H795 0.950 . S
C807 C803 1.393 . S
C807 C806 1.391 . S
H808 C816 0.950 . S
H809 C821 0.950 . S
H810 C818 0.950 . S
H811 C820 0.950 . S
H812 C822 0.950 . S
H813 C824 0.950 . S
H814 C826 0.950 . S
H815 C827 0.950 . S
C816 H808 0.950 . S
C816 C817 1.386 . S
C816 C818 1.391 . S
C817 C816 1.386 . S
C817 C821 1.393 . S
C818 H810 0.950 . S
C818 C816 1.391 . S
C818 C819 1.400 . S
C819 C818 1.400 . S
C819 C820 1.398 . S
C819 C825 1.491 1_554 S
C820 H811 0.950 . S
C820 C819 1.398 . S
C820 C821 1.391 . S
C821 H809 0.950 . S
C821 C817 1.393 . S
C821 C820 1.391 . S
C822 H812 0.950 . S
C822 C823 1.386 . S
C822 C824 1.391 . S
C823 C822 1.386 . S
C823 C827 1.393 . S
C824 H813 0.950 . S
C824 C822 1.391 . S
C824 C825 1.400 . S
C825 C819 1.491 1_556 S
C825 C824 1.400 . S
C825 C826 1.398 . S
C826 H814 0.950 . S
C826 C825 1.398 . S
C826 C827 1.391 . S
C827 H815 0.950 . S
C827 C823 1.393 . S
C827 C826 1.391 . S
H828 C836 0.950 1_556 S
H829 C841 0.950 . S
H830 C838 0.950 . S
H831 C840 0.950 . S
H832 C842 0.950 1_554 S
H833 C844 0.950 . S
H834 C846 0.950 . S
H835 C847 0.950 . S
C836 H828 0.950 1_554 S
C836 C837 1.386 . S
C836 C838 1.391 1_554 S
C837 C836 1.386 . S
C837 C841 1.393 . S
C838 H830 0.950 . S
C838 C836 1.391 1_556 S
C838 C839 1.400 1_556 S
C839 C838 1.400 1_554 S
C839 C840 1.398 . S
C839 C845 1.491 1_554 S
C840 H831 0.950 . S
C840 C839 1.398 . S
C840 C841 1.391 . S
C841 H829 0.950 . S
C841 C837 1.393 . S
C841 C840 1.391 . S
C842 H832 0.950 1_556 S
C842 C843 1.386 . S
C842 C844 1.391 1_556 S
C843 C842 1.386 . S
C843 C847 1.393 . S
C844 H833 0.950 . S
C844 C842 1.391 1_554 S
C844 C845 1.400 1_554 S
C845 C839 1.491 1_556 S
C845 C844 1.400 1_556 S
C845 C846 1.398 . S
C846 H834 0.950 . S
C846 C845 1.398 . S
C846 C847 1.391 . S
C847 H835 0.950 . S
C847 C843 1.393 . S
C847 C846 1.391 . S
H848 C856 0.950 . S
H849 C861 0.950 . S
H850 C858 0.950 . S
H851 C860 0.950 . S
H852 C862 0.950 . S
H853 C864 0.950 . S
H854 C866 0.950 . S
H855 C867 0.950 . S
C856 H848 0.950 . S
C856 C857 1.386 . S
C856 C858 1.391 . S
C857 C856 1.386 . S
C857 C861 1.393 . S
C858 H850 0.950 . S
C858 C856 1.391 . S
C858 C859 1.400 . S
C859 C858 1.400 . S
C859 C860 1.398 . S
C859 C865 1.491 . S
C860 H851 0.950 . S
C860 C859 1.398 . S
C860 C861 1.391 . S
C861 H849 0.950 . S
C861 C857 1.393 . S
C861 C860 1.391 . S
C862 H852 0.950 . S
C862 C863 1.386 . S
C862 C864 1.391 . S
C863 C862 1.386 . S
C863 C867 1.393 . S
C864 H853 0.950 . S
C864 C862 1.391 . S
C864 C865 1.400 . S
C865 C859 1.491 . S
C865 C864 1.400 . S
C865 C866 1.398 . S
C866 H854 0.950 . S
C866 C865 1.398 . S
C866 C867 1.391 . S
C867 H855 0.950 . S
C867 C863 1.393 . S
C867 C866 1.391 . S
H868 C876 0.950 . S
H869 C881 0.950 . S
H870 C878 0.950 . S
H871 C880 0.950 . S
H872 C882 0.950 . S
H873 C884 0.950 . S
H874 C886 0.950 . S
H875 C887 0.950 . S
C876 H868 0.950 . S
C876 C877 1.386 . S
C876 C878 1.391 . S
C877 C876 1.386 . S
C877 C881 1.393 . S
C878 H870 0.950 . S
C878 C876 1.391 . S
C878 C879 1.400 . S
C879 C878 1.400 . S
C879 C880 1.398 . S
C879 C885 1.491 . S
C880 H871 0.950 . S
C880 C879 1.398 . S
C880 C881 1.391 . S
C881 H869 0.950 . S
C881 C877 1.393 . S
C881 C880 1.391 . S
C882 H872 0.950 . S
C882 C883 1.386 . S
C882 C884 1.391 . S
C883 C882 1.386 . S
C883 C887 1.393 . S
C884 H873 0.950 . S
C884 C882 1.391 . S
C884 C885 1.400 . S
C885 C879 1.491 . S
C885 C884 1.400 . S
C885 C886 1.398 . S
C886 H874 0.950 . S
C886 C885 1.398 . S
C886 C887 1.391 . S
C887 H875 0.950 . S
C887 C883 1.393 . S
C887 C886 1.391 . S
H888 C896 0.950 . S
H889 C901 0.950 . S
H890 C898 0.950 . S
H891 C900 0.950 . S
H892 C902 0.950 . S
H893 C904 0.950 . S
H894 C906 0.950 . S
H895 C907 0.950 . S
C896 H888 0.950 . S
C896 C897 1.386 1_556 S
C896 C898 1.391 . S
C897 C896 1.386 1_554 S
C897 C901 1.393 . S
C898 H890 0.950 . S
C898 C896 1.391 . S
C898 C899 1.400 1_556 S
C899 C898 1.400 1_554 S
C899 C900 1.398 . S
C899 C905 1.491 1_554 S
C900 H891 0.950 . S
C900 C899 1.398 . S
C900 C901 1.391 . S
C901 H889 0.950 . S
C901 C897 1.393 . S
C901 C900 1.391 . S
C902 H892 0.950 . S
C902 C903 1.386 1_554 S
C902 C904 1.391 . S
C903 C902 1.386 1_556 S
C903 C907 1.393 . S
C904 H893 0.950 . S
C904 C902 1.391 . S
C904 C905 1.400 1_554 S
C905 C899 1.491 1_556 S
C905 C904 1.400 1_556 S
C905 C906 1.398 . S
C906 H894 0.950 . S
C906 C905 1.398 . S
C906 C907 1.391 . S
C907 H895 0.950 . S
C907 C903 1.393 . S
C907 C906 1.391 . S
H908 C916 0.950 . S
H909 C921 0.950 . S
H910 C918 0.950 . S
H911 C920 0.950 . S
H912 C922 0.950 . S
H913 C924 0.950 . S
H914 C926 0.950 . S
H915 C927 0.950 . S
C916 H908 0.950 . S
C916 C917 1.386 . S
C916 C918 1.391 . S
C917 C916 1.386 . S
C917 C921 1.393 . S
C918 H910 0.950 . S
C918 C916 1.391 . S
C918 C919 1.400 . S
C919 C918 1.400 . S
C919 C920 1.398 . S
C919 C925 1.491 . S
C920 H911 0.950 . S
C920 C919 1.398 . S
C920 C921 1.391 . S
C921 H909 0.950 . S
C921 C917 1.393 . S
C921 C920 1.391 . S
C922 H912 0.950 . S
C922 C923 1.386 . S
C922 C924 1.391 . S
C923 C922 1.386 . S
C923 C927 1.393 . S
C924 H913 0.950 . S
C924 C922 1.391 . S
C924 C925 1.400 . S
C925 C919 1.491 . S
C925 C924 1.400 . S
C925 C926 1.398 . S
C926 H914 0.950 . S
C926 C925 1.398 . S
C926 C927 1.391 . S
C927 H915 0.950 . S
C927 C923 1.393 . S
C927 C926 1.391 . S
H928 C936 0.950 . S
H929 C941 0.950 . S
H930 C938 0.950 . S
H931 C940 0.950 . S
H932 C942 0.950 . S
H933 C944 0.950 . S
H934 C946 0.950 . S
H935 C947 0.950 . S
C936 H928 0.950 . S
C936 C937 1.386 . S
C936 C938 1.391 . S
C937 C936 1.386 . S
C937 C941 1.393 . S
C938 H930 0.950 . S
C938 C936 1.391 . S
C938 C939 1.400 . S
C939 C938 1.400 . S
C939 C940 1.398 . S
C939 C945 1.491 . S
C940 H931 0.950 . S
C940 C939 1.398 . S
C940 C941 1.391 . S
C941 H929 0.950 . S
C941 C937 1.393 . S
C941 C940 1.391 . S
C942 H932 0.950 . S
C942 C943 1.386 . S
C942 C944 1.391 . S
C943 C942 1.386 . S
C943 C947 1.393 . S
C944 H933 0.950 . S
C944 C942 1.391 . S
C944 C945 1.400 . S
C945 C939 1.491 . S
C945 C944 1.400 . S
C945 C946 1.398 . S
C946 H934 0.950 . S
C946 C945 1.398 . S
C946 C947 1.391 . S
C947 H935 0.950 . S
C947 C943 1.393 . S
C947 C946 1.391 . S
H948 C956 0.950 . S
H949 C961 0.950 . S
H950 C958 0.950 . S
H951 C960 0.950 . S
H952 C962 0.950 . S
H953 C964 0.950 . S
H954 C966 0.950 . S
H955 C967 0.950 . S
C956 H948 0.950 . S
C956 C957 1.386 . S
C956 C958 1.391 . S
C957 C956 1.386 . S
C957 C961 1.393 . S
C958 H950 0.950 . S
C958 C956 1.391 . S
C958 C959 1.400 . S
C959 C958 1.400 . S
C959 C960 1.398 . S
C959 C965 1.491 . S
C960 H951 0.950 . S
C960 C959 1.398 . S
C960 C961 1.391 . S
C961 H949 0.950 . S
C961 C957 1.393 . S
C961 C960 1.391 . S
C962 H952 0.950 . S
C962 C963 1.386 . S
C962 C964 1.391 . S
C963 C962 1.386 . S
C963 C967 1.393 . S
C964 H953 0.950 . S
C964 C962 1.391 . S
C964 C965 1.400 . S
C965 C959 1.491 . S
C965 C964 1.400 . S
C965 C966 1.398 . S
C966 H954 0.950 . S
C966 C965 1.398 . S
C966 C967 1.391 . S
C967 H955 0.950 . S
C967 C963 1.393 . S
C967 C966 1.391 . S
H968 C976 0.950 . S
H969 C981 0.950 . S
H970 C978 0.950 . S
H971 C980 0.994 . S
H972 C982 0.950 . S
H973 C984 0.950 . S
H974 C986 0.994 . S
H975 C987 0.950 . S
C976 H968 0.950 . S
C976 C977 1.386 . S
C976 C978 1.391 . S
C977 C976 1.386 . S
C977 C981 1.393 . S
C978 H970 0.950 . S
C978 C976 1.391 . S
C978 C979 1.400 . S
C979 C978 1.400 . S
C979 C980 1.398 . S
C979 C985 1.491 1_655 S
C980 H971 0.994 . S
C980 C979 1.398 . S
C980 C981 1.391 . S
C981 H969 0.950 . S
C981 C977 1.393 . S
C981 C980 1.391 . S
C982 H972 0.950 . S
C982 C983 1.386 . S
C982 C984 1.391 . S
C983 C982 1.386 . S
C983 C987 1.393 . S
C984 H973 0.950 . S
C984 C982 1.391 . S
C984 C985 1.400 . S
C985 C979 1.491 1_455 S
C985 C984 1.400 . S
C985 C986 1.398 . S
C986 H974 0.994 . S
C986 C985 1.398 . S
C986 C987 1.391 . S
C987 H975 0.950 . S
C987 C983 1.393 . S
C987 C986 1.391 . S
H988 C996 0.950 . S
H989 C1001 0.950 . S
H990 C998 0.950 . S
H991 C1000 0.950 . S
H992 C1002 0.950 . S
H993 C1004 0.950 . S
H994 C1006 0.950 . S
H995 C1007 0.950 . S
C996 H988 0.950 . S
C996 C997 1.386 . S
C996 C998 1.391 . S
C997 C996 1.386 . S
C997 C1001 1.393 . S
C998 H990 0.950 . S
C998 C996 1.391 . S
C998 C999 1.400 . S
C999 C998 1.400 . S
C999 C1000 1.398 . S
C999 C1005 1.491 1_545 S
C1000 H991 0.950 . S
C1000 C999 1.398 . S
C1000 C1001 1.391 . S
C1001 H989 0.950 . S
C1001 C997 1.393 . S
C1001 C1000 1.391 . S
C1002 H992 0.950 . S
C1002 C1003 1.386 . S
C1002 C1004 1.391 . S
C1003 C1002 1.386 . S
C1003 C1007 1.393 . S
C1004 H993 0.950 . S
C1004 C1002 1.391 . S
C1004 C1005 1.400 . S
C1005 C999 1.491 1_565 S
C1005 C1004 1.400 . S
C1005 C1006 1.398 . S
C1006 H994 0.950 . S
C1006 C1005 1.398 . S
C1006 C1007 1.391 . S
C1007 H995 0.950 . S
C1007 C1003 1.393 . S
C1007 C1006 1.391 . S
H1008 C1016 0.950 . S
H1009 C1021 0.950 . S
H1010 C1018 0.950 . S
H1011 C1020 0.950 . S
H1012 C1022 0.950 . S
H1013 C1024 0.950 . S
H1014 C1026 0.950 . S
H1015 C1027 0.950 . S
C1016 H1008 0.950 . S
C1016 C1017 1.386 . S
C1016 C1018 1.391 . S
C1017 C1016 1.386 . S
C1017 C1021 1.393 . S
C1018 H1010 0.950 . S
C1018 C1016 1.391 . S
C1018 C1019 1.400 . S
C1019 C1018 1.400 . S
C1019 C1020 1.398 . S
C1019 C1025 1.491 . S
C1020 H1011 0.950 . S
C1020 C1019 1.398 . S
C1020 C1021 1.391 . S
C1021 H1009 0.950 . S
C1021 C1017 1.393 . S
C1021 C1020 1.391 . S
C1022 H1012 0.950 . S
C1022 C1023 1.386 . S
C1022 C1024 1.391 . S
C1023 C1022 1.386 . S
C1023 C1027 1.393 . S
C1024 H1013 0.950 . S
C1024 C1022 1.391 . S
C1024 C1025 1.400 . S
C1025 C1019 1.491 . S
C1025 C1024 1.400 . S
C1025 C1026 1.398 . S
C1026 H1014 0.950 . S
C1026 C1025 1.398 . S
C1026 C1027 1.391 . S
C1027 H1015 0.950 . S
C1027 C1023 1.393 . S
C1027 C1026 1.391 . S
H1028 C1036 0.950 . S
H1029 C1041 0.950 . S
H1030 C1038 0.950 . S
H1031 C1040 0.950 . S
H1032 C1042 0.950 . S
H1033 C1044 0.950 . S
H1034 C1046 0.950 . S
H1035 C1047 0.950 . S
C1036 H1028 0.950 . S
C1036 C1037 1.386 . S
C1036 C1038 1.391 . S
C1037 C1036 1.386 . S
C1037 C1041 1.393 . S
C1038 H1030 0.950 . S
C1038 C1036 1.391 . S
C1038 C1039 1.400 . S
C1039 C1038 1.400 . S
C1039 C1040 1.398 . S
C1039 C1045 1.491 1_455 S
C1040 H1031 0.950 . S
C1040 C1039 1.398 . S
C1040 C1041 1.391 . S
C1041 H1029 0.950 . S
C1041 C1037 1.393 . S
C1041 C1040 1.391 . S
C1042 H1032 0.950 . S
C1042 C1043 1.386 . S
C1042 C1044 1.391 . S
C1043 C1042 1.386 . S
C1043 C1047 1.393 . S
C1044 H1033 0.950 . S
C1044 C1042 1.391 . S
C1044 C1045 1.400 . S
C1045 C1039 1.491 1_655 S
C1045 C1044 1.400 . S
C1045 C1046 1.398 . S
C1046 H1034 0.950 . S
C1046 C1045 1.398 . S
C1046 C1047 1.391 . S
C1047 H1035 0.950 . S
C1047 C1043 1.393 . S
C1047 C1046 1.391 . S
H1048 C1056 0.950 . S
H1049 C1061 0.950 . S
H1050 C1058 0.986 . S
H1051 C1060 0.950 . S
H1052 C1062 0.950 . S
H1053 C1064 0.986 . S
H1054 C1066 0.950 . S
H1055 C1067 0.950 . S
C1056 H1048 0.950 . S
C1056 C1057 1.386 . S
C1056 C1058 1.391 . S
C1057 C1056 1.386 . S
C1057 C1061 1.393 . S
C1058 H1050 0.986 . S
C1058 C1056 1.391 . S
C1058 C1059 1.400 . S
C1059 C1058 1.400 . S
C1059 C1060 1.398 . S
C1059 C1065 1.491 1_565 S
C1060 H1051 0.950 . S
C1060 C1059 1.398 . S
C1060 C1061 1.391 . S
C1061 H1049 0.950 . S
C1061 C1057 1.393 . S
C1061 C1060 1.391 . S
C1062 H1052 0.950 . S
C1062 C1063 1.386 . S
C1062 C1064 1.391 . S
C1063 C1062 1.386 . S
C1063 C1067 1.393 . S
C1064 H1053 0.986 . S
C1064 C1062 1.391 . S
C1064 C1065 1.400 . S
C1065 C1059 1.491 1_545 S
C1065 C1064 1.400 . S
C1065 C1066 1.398 . S
C1066 H1054 0.950 . S
C1066 C1065 1.398 . S
C1066 C1067 1.391 . S
C1067 H1055 0.950 . S
C1067 C1063 1.393 . S
C1067 C1066 1.391 . S
H1068 C1076 0.950 . S
H1069 C1081 0.950 . S
H1070 C1078 0.950 . S
H1071 C1080 0.950 . S
H1072 C1082 0.950 . S
H1073 C1084 0.950 . S
H1074 C1086 0.950 . S
H1075 C1087 0.950 . S
C1076 H1068 0.950 . S
C1076 C1077 1.386 . S
C1076 C1078 1.391 . S
C1077 C1076 1.386 . S
C1077 C1081 1.393 . S
C1078 H1070 0.950 . S
C1078 C1076 1.391 . S
C1078 C1079 1.400 . S
C1079 C1078 1.400 . S
C1079 C1080 1.398 . S
C1079 C1085 1.491 . S
C1080 H1071 0.950 . S
C1080 C1079 1.398 . S
C1080 C1081 1.391 . S
C1081 H1069 0.950 . S
C1081 C1077 1.393 . S
C1081 C1080 1.391 . S
C1082 H1072 0.950 . S
C1082 C1083 1.386 . S
C1082 C1084 1.391 . S
C1083 C1082 1.386 . S
C1083 C1087 1.393 . S
C1084 H1073 0.950 . S
C1084 C1082 1.391 . S
C1084 C1085 1.400 . S
C1085 C1079 1.491 . S
C1085 C1084 1.400 . S
C1085 C1086 1.398 . S
C1086 H1074 0.950 . S
C1086 C1085 1.398 . S
C1086 C1087 1.391 . S
C1087 H1075 0.950 . S
C1087 C1083 1.393 . S
C1087 C1086 1.391 . S
H1088 C1096 0.950 . S
H1089 C1101 0.950 . S
H1090 C1098 0.950 . S
H1091 C1100 0.950 . S
H1092 C1102 0.950 . S
H1093 C1104 0.950 . S
H1094 C1106 0.950 . S
H1095 C1107 0.950 . S
C1096 H1088 0.950 . S
C1096 C1097 1.386 . S
C1096 C1098 1.391 . S
C1097 C1096 1.386 . S
C1097 C1101 1.393 . S
C1098 H1090 0.950 . S
C1098 C1096 1.391 . S
C1098 C1099 1.400 . S
C1099 C1098 1.400 . S
C1099 C1100 1.398 . S
C1099 C1105 1.491 . S
C1100 H1091 0.950 . S
C1100 C1099 1.398 . S
C1100 C1101 1.391 . S
C1101 H1089 0.950 . S
C1101 C1097 1.393 . S
C1101 C1100 1.391 . S
C1102 H1092 0.950 . S
C1102 C1103 1.386 . S
C1102 C1104 1.391 . S
C1103 C1102 1.386 . S
C1103 C1107 1.393 . S
C1104 H1093 0.950 . S
C1104 C1102 1.391 . S
C1104 C1105 1.400 . S
C1105 C1099 1.491 . S
C1105 C1104 1.400 . S
C1105 C1106 1.398 . S
C1106 H1094 0.950 . S
C1106 C1105 1.398 . S
C1106 C1107 1.391 . S
C1107 H1095 0.950 . S
C1107 C1103 1.393 . S
C1107 C1106 1.391 . S
H1108 C1116 0.950 . S
H1109 C1121 0.950 . S
H1110 C1118 0.950 . S
H1111 C1120 0.950 . S
H1112 C1122 0.950 . S
H1113 C1124 0.950 . S
H1114 C1126 0.950 . S
H1115 C1127 0.950 . S
C1116 H1108 0.950 . S
C1116 C1117 1.386 . S
C1116 C1118 1.391 . S
C1117 C1116 1.386 . S
C1117 C1121 1.393 . S
C1118 H1110 0.950 . S
C1118 C1116 1.391 . S
C1118 C1119 1.400 . S
C1119 C1118 1.400 . S
C1119 C1120 1.398 . S
C1119 C1125 1.491 . S
C1120 H1111 0.950 . S
C1120 C1119 1.398 . S
C1120 C1121 1.391 . S
C1121 H1109 0.950 . S
C1121 C1117 1.393 . S
C1121 C1120 1.391 . S
C1122 H1112 0.950 . S
C1122 C1123 1.386 . S
C1122 C1124 1.391 . S
C1123 C1122 1.386 . S
C1123 C1127 1.393 . S
C1124 H1113 0.950 . S
C1124 C1122 1.391 . S
C1124 C1125 1.400 . S
C1125 C1119 1.491 . S
C1125 C1124 1.400 . S
C1125 C1126 1.398 . S
C1126 H1114 0.950 . S
C1126 C1125 1.398 . S
C1126 C1127 1.391 . S
C1127 H1115 0.950 . S
C1127 C1123 1.393 . S
C1127 C1126 1.391 . S
H1128 C1136 0.950 . S
H1129 C1141 0.950 . S
H1130 C1138 0.950 . S
H1131 C1140 0.950 . S
H1132 C1142 0.950 . S
H1133 C1144 0.950 . S
H1134 C1146 0.950 . S
H1135 C1147 0.950 . S
C1136 H1128 0.950 . S
C1136 C1137 1.386 . S
C1136 C1138 1.391 . S
C1137 C1136 1.386 . S
C1137 C1141 1.393 . S
C1138 H1130 0.950 . S
C1138 C1136 1.391 . S
C1138 C1139 1.400 . S
C1139 C1138 1.400 . S
C1139 C1140 1.398 . S
C1139 C1145 1.491 . S
C1140 H1131 0.950 . S
C1140 C1139 1.398 . S
C1140 C1141 1.391 . S
C1141 H1129 0.950 . S
C1141 C1137 1.393 . S
C1141 C1140 1.391 . S
C1142 H1132 0.950 . S
C1142 C1143 1.386 . S
C1142 C1144 1.391 . S
C1143 C1142 1.386 . S
C1143 C1147 1.393 . S
C1144 H1133 0.950 . S
C1144 C1142 1.391 . S
C1144 C1145 1.400 . S
C1145 C1139 1.491 . S
C1145 C1144 1.400 . S
C1145 C1146 1.398 . S
C1146 H1134 0.950 . S
C1146 C1145 1.398 . S
C1146 C1147 1.391 . S
C1147 H1135 0.950 . S
C1147 C1143 1.393 . S
C1147 C1146 1.391 . S
H1148 C1156 0.950 . S
H1149 C1161 0.950 . S
H1150 C1158 0.950 . S
H1151 C1160 0.950 . S
H1152 C1162 0.950 . S
H1153 C1164 0.950 . S
H1154 C1166 0.950 . S
H1155 C1167 0.950 . S
C1156 H1148 0.950 . S
C1156 C1157 1.386 . S
C1156 C1158 1.391 . S
C1157 C1156 1.386 . S
C1157 C1161 1.393 . S
C1158 H1150 0.950 . S
C1158 C1156 1.391 . S
C1158 C1159 1.400 . S
C1159 C1158 1.400 . S
C1159 C1160 1.398 . S
C1159 C1165 1.491 . S
C1160 H1151 0.950 . S
C1160 C1159 1.398 . S
C1160 C1161 1.391 . S
C1161 H1149 0.950 . S
C1161 C1157 1.393 . S
C1161 C1160 1.391 . S
C1162 H1152 0.950 . S
C1162 C1163 1.386 . S
C1162 C1164 1.391 . S
C1163 C1162 1.386 . S
C1163 C1167 1.393 . S
C1164 H1153 0.950 . S
C1164 C1162 1.391 . S
C1164 C1165 1.400 . S
C1165 C1159 1.491 . S
C1165 C1164 1.400 . S
C1165 C1166 1.398 . S
C1166 H1154 0.950 . S
C1166 C1165 1.398 . S
C1166 C1167 1.391 . S
C1167 H1155 0.950 . S
C1167 C1163 1.393 . S
C1167 C1166 1.391 . S
H1168 C1176 0.950 . S
H1169 C1181 0.950 . S
H1170 C1178 0.950 . S
H1171 C1180 0.950 . S
H1172 C1182 0.950 . S
H1173 C1184 0.950 . S
H1174 C1186 0.950 . S
H1175 C1187 0.950 . S
C1176 H1168 0.950 . S
C1176 C1177 1.386 . S
C1176 C1178 1.391 . S
C1177 C1176 1.386 . S
C1177 C1181 1.393 . S
C1178 H1170 0.950 . S
C1178 C1176 1.391 . S
C1178 C1179 1.400 . S
C1179 C1178 1.400 . S
C1179 C1180 1.398 . S
C1179 C1185 1.491 . S
C1180 H1171 0.950 . S
C1180 C1179 1.398 . S
C1180 C1181 1.391 . S
C1181 H1169 0.950 . S
C1181 C1177 1.393 . S
C1181 C1180 1.391 . S
C1182 H1172 0.950 . S
C1182 C1183 1.386 . S
C1182 C1184 1.391 . S
C1183 C1182 1.386 . S
C1183 C1187 1.393 . S
C1184 H1173 0.950 . S
C1184 C1182 1.391 . S
C1184 C1185 1.400 . S
C1185 C1179 1.491 . S
C1185 C1184 1.400 . S
C1185 C1186 1.398 . S
C1186 H1174 0.950 . S
C1186 C1185 1.398 . S
C1186 C1187 1.391 . S
C1187 H1175 0.950 . S
C1187 C1183 1.393 . S
C1187 C1186 1.391 . S
C717 C5 1.589 . S
C723 C359 1.596 . S
C737 C64 1.596 . S
C743 C418 1.591 . S
C757 C123 1.590 . S
C763 C477 1.596 . S
C777 C182 1.596 . S
C783 C536 1.588 . S
C797 C241 1.593 . S
C803 C595 1.587 . S
C817 C654 1.593 . S
C823 C300 1.594 . S
C837 C3 1.385 . S
C843 C593 1.378 . S
C857 C62 1.384 . S
C863 C652 1.384 . S
C877 C121 1.362 . S
C883 C357 1.368 . S
C897 C180 1.384 . S
C903 C416 1.374 . S
C917 C239 1.383 . S
C923 C475 1.384 . S
C937 C298 1.368 . S
C943 C534 1.362 . S
C957 C33 1.368 . S
C963 C210 1.369 . S
C977 C92 1.370 . S
C983 C269 1.371 . S
C997 C328 1.352 . S
C1003 C151 1.353 . S
C1017 C387 1.353 . S
C1023 C564 1.353 . S
C1037 C623 1.355 . S
C1043 C446 1.356 . S
C1057 C505 1.366 . S
C1063 C682 1.365 . S
C1077 C406 0.897 . S
C1083 C52 0.899 . S
C1097 C111 0.899 . S
C1103 C465 0.897 . S
C1117 C170 0.912 . S
C1123 C524 0.908 . S
C1137 C583 0.898 . S
C1143 C229 0.897 . S
C1157 C642 0.903 . S
C1163 C288 0.907 . S
C1177 C347 0.911 . S
C1183 C701 0.907 . S
