# Generated by pormake.
# Topology sop, (7)-cn, num edge types: 1
# Building blocks:
#     Node 0, Type 0, BuildingBlock: NUHQUE_clean_sbu_2, # of connection points: 7
#     Node 1, Type 0, BuildingBlock: NUHQUE_clean_sbu_2, # of connection points: 7
#     Node 2, Type 0, BuildingBlock: NUHQUE_clean_sbu_2, # of connection points: 7
#     Node 3, Type 0, BuildingBlock: NUHQUE_clean_sbu_2, # of connection points: 7
#     Node 4, Type 0, BuildingBlock: NUHQUE_clean_sbu_2, # of connection points: 7
#     Node 5, Type 0, BuildingBlock: NUHQUE_clean_sbu_2, # of connection points: 7
#     Node 6, Type 0, BuildingBlock: NUHQUE_clean_sbu_2, # of connection points: 7
#     Node 7, Type 0, BuildingBlock: NUHQUE_clean_sbu_2, # of connection points: 7
#     Node 8, Type 0, BuildingBlock: NUHQUE_clean_sbu_2, # of connection points: 7
#     Node 9, Type 0, BuildingBlock: NUHQUE_clean_sbu_2, # of connection points: 7
#     Node 10, Type 0, BuildingBlock: NUHQUE_clean_sbu_2, # of connection points: 7
#     Node 11, Type 0, BuildingBlock: NUHQUE_clean_sbu_2, # of connection points: 7
#     Node 12, Type 0, BuildingBlock: NUHQUE_clean_sbu_2, # of connection points: 7
#     Node 13, Type 0, BuildingBlock: NUHQUE_clean_sbu_2, # of connection points: 7
#     Node 14, Type 0, BuildingBlock: NUHQUE_clean_sbu_2, # of connection points: 7
#     Node 15, Type 0, BuildingBlock: NUHQUE_clean_sbu_2, # of connection points: 7
#     Node 16, Type 0, BuildingBlock: NUHQUE_clean_sbu_2, # of connection points: 7
#     Node 17, Type 0, BuildingBlock: NUHQUE_clean_sbu_2, # of connection points: 7
#     Node 18, Type 0, BuildingBlock: NUHQUE_clean_sbu_2, # of connection points: 7
#     Node 19, Type 0, BuildingBlock: NUHQUE_clean_sbu_2, # of connection points: 7
#     Node 20, Type 0, BuildingBlock: NUHQUE_clean_sbu_2, # of connection points: 7
#     Node 21, Type 0, BuildingBlock: NUHQUE_clean_sbu_2, # of connection points: 7
#     Node 22, Type 0, BuildingBlock: NUHQUE_clean_sbu_2, # of connection points: 7
#     Node 23, Type 0, BuildingBlock: NUHQUE_clean_sbu_2, # of connection points: 7
#     Node 24, Type 0, BuildingBlock: NUHQUE_clean_sbu_2, # of connection points: 7
#     Node 25, Type 0, BuildingBlock: NUHQUE_clean_sbu_2, # of connection points: 7
#     Node 26, Type 0, BuildingBlock: NUHQUE_clean_sbu_2, # of connection points: 7
#     Node 27, Type 0, BuildingBlock: NUHQUE_clean_sbu_2, # of connection points: 7
#     Node 28, Type 0, BuildingBlock: NUHQUE_clean_sbu_2, # of connection points: 7
#     Node 29, Type 0, BuildingBlock: NUHQUE_clean_sbu_2, # of connection points: 7
#     Node 30, Type 0, BuildingBlock: NUHQUE_clean_sbu_2, # of connection points: 7
#     Node 31, Type 0, BuildingBlock: NUHQUE_clean_sbu_2, # of connection points: 7
#     Edge 32, Type (0, 0), BuildingBlock: OJICUG_clean_linker_0, # of connection points: 2
#     Edge 33, Type (0, 0), BuildingBlock: OJICUG_clean_linker_0, # of connection points: 2
#     Edge 34, Type (0, 0), BuildingBlock: OJICUG_clean_linker_0, # of connection points: 2
#     Edge 35, Type (0, 0), BuildingBlock: OJICUG_clean_linker_0, # of connection points: 2
#     Edge 36, Type (0, 0), BuildingBlock: OJICUG_clean_linker_0, # of connection points: 2
#     Edge 37, Type (0, 0), BuildingBlock: OJICUG_clean_linker_0, # of connection points: 2
#     Edge 38, Type (0, 0), BuildingBlock: OJICUG_clean_linker_0, # of connection points: 2
#     Edge 39, Type (0, 0), BuildingBlock: OJICUG_clean_linker_0, # of connection points: 2
#     Edge 40, Type (0, 0), BuildingBlock: OJICUG_clean_linker_0, # of connection points: 2
#     Edge 41, Type (0, 0), BuildingBlock: OJICUG_clean_linker_0, # of connection points: 2
#     Edge 42, Type (0, 0), BuildingBlock: OJICUG_clean_linker_0, # of connection points: 2
#     Edge 43, Type (0, 0), BuildingBlock: OJICUG_clean_linker_0, # of connection points: 2
#     Edge 44, Type (0, 0), BuildingBlock: OJICUG_clean_linker_0, # of connection points: 2
#     Edge 45, Type (0, 0), BuildingBlock: OJICUG_clean_linker_0, # of connection points: 2
#     Edge 46, Type (0, 0), BuildingBlock: OJICUG_clean_linker_0, # of connection points: 2
#     Edge 47, Type (0, 0), BuildingBlock: OJICUG_clean_linker_0, # of connection points: 2
#     Edge 48, Type (0, 0), BuildingBlock: OJICUG_clean_linker_0, # of connection points: 2
#     Edge 49, Type (0, 0), BuildingBlock: OJICUG_clean_linker_0, # of connection points: 2
#     Edge 50, Type (0, 0), BuildingBlock: OJICUG_clean_linker_0, # of connection points: 2
#     Edge 51, Type (0, 0), BuildingBlock: OJICUG_clean_linker_0, # of connection points: 2
#     Edge 52, Type (0, 0), BuildingBlock: OJICUG_clean_linker_0, # of connection points: 2
#     Edge 53, Type (0, 0), BuildingBlock: OJICUG_clean_linker_0, # of connection points: 2
#     Edge 54, Type (0, 0), BuildingBlock: OJICUG_clean_linker_0, # of connection points: 2
#     Edge 55, Type (0, 0), BuildingBlock: OJICUG_clean_linker_0, # of connection points: 2
#     Edge 56, Type (0, 0), BuildingBlock: OJICUG_clean_linker_0, # of connection points: 2
#     Edge 57, Type (0, 0), BuildingBlock: OJICUG_clean_linker_0, # of connection points: 2
#     Edge 58, Type (0, 0), BuildingBlock: OJICUG_clean_linker_0, # of connection points: 2
#     Edge 59, Type (0, 0), BuildingBlock: OJICUG_clean_linker_0, # of connection points: 2
#     Edge 60, Type (0, 0), BuildingBlock: OJICUG_clean_linker_0, # of connection points: 2
#     Edge 61, Type (0, 0), BuildingBlock: OJICUG_clean_linker_0, # of connection points: 2
#     Edge 62, Type (0, 0), BuildingBlock: OJICUG_clean_linker_0, # of connection points: 2
#     Edge 63, Type (0, 0), BuildingBlock: OJICUG_clean_linker_0, # of connection points: 2
#     Edge 64, Type (0, 0), BuildingBlock: OJICUG_clean_linker_0, # of connection points: 2
#     Edge 65, Type (0, 0), BuildingBlock: OJICUG_clean_linker_0, # of connection points: 2
#     Edge 66, Type (0, 0), BuildingBlock: OJICUG_clean_linker_0, # of connection points: 2
#     Edge 67, Type (0, 0), BuildingBlock: OJICUG_clean_linker_0, # of connection points: 2
#     Edge 68, Type (0, 0), BuildingBlock: OJICUG_clean_linker_0, # of connection points: 2
#     Edge 69, Type (0, 0), BuildingBlock: OJICUG_clean_linker_0, # of connection points: 2
#     Edge 70, Type (0, 0), BuildingBlock: OJICUG_clean_linker_0, # of connection points: 2
#     Edge 71, Type (0, 0), BuildingBlock: OJICUG_clean_linker_0, # of connection points: 2
#     Edge 72, Type (0, 0), BuildingBlock: OJICUG_clean_linker_0, # of connection points: 2
#     Edge 73, Type (0, 0), BuildingBlock: OJICUG_clean_linker_0, # of connection points: 2
#     Edge 74, Type (0, 0), BuildingBlock: OJICUG_clean_linker_0, # of connection points: 2
#     Edge 75, Type (0, 0), BuildingBlock: OJICUG_clean_linker_0, # of connection points: 2
#     Edge 76, Type (0, 0), BuildingBlock: OJICUG_clean_linker_0, # of connection points: 2
#     Edge 77, Type (0, 0), BuildingBlock: OJICUG_clean_linker_0, # of connection points: 2
#     Edge 78, Type (0, 0), BuildingBlock: OJICUG_clean_linker_0, # of connection points: 2
#     Edge 79, Type (0, 0), BuildingBlock: OJICUG_clean_linker_0, # of connection points: 2
#     Edge 80, Type (0, 0), BuildingBlock: OJICUG_clean_linker_0, # of connection points: 2
#     Edge 81, Type (0, 0), BuildingBlock: OJICUG_clean_linker_0, # of connection points: 2
#     Edge 82, Type (0, 0), BuildingBlock: OJICUG_clean_linker_0, # of connection points: 2
#     Edge 83, Type (0, 0), BuildingBlock: OJICUG_clean_linker_0, # of connection points: 2
#     Edge 84, Type (0, 0), BuildingBlock: OJICUG_clean_linker_0, # of connection points: 2
#     Edge 85, Type (0, 0), BuildingBlock: OJICUG_clean_linker_0, # of connection points: 2
#     Edge 86, Type (0, 0), BuildingBlock: OJICUG_clean_linker_0, # of connection points: 2
#     Edge 87, Type (0, 0), BuildingBlock: OJICUG_clean_linker_0, # of connection points: 2
#     Edge 88, Type (0, 0), BuildingBlock: OJICUG_clean_linker_0, # of connection points: 2
#     Edge 89, Type (0, 0), BuildingBlock: OJICUG_clean_linker_0, # of connection points: 2
#     Edge 90, Type (0, 0), BuildingBlock: OJICUG_clean_linker_0, # of connection points: 2
#     Edge 91, Type (0, 0), BuildingBlock: OJICUG_clean_linker_0, # of connection points: 2
#     Edge 92, Type (0, 0), BuildingBlock: OJICUG_clean_linker_0, # of connection points: 2
#     Edge 93, Type (0, 0), BuildingBlock: OJICUG_clean_linker_0, # of connection points: 2
#     Edge 94, Type (0, 0), BuildingBlock: OJICUG_clean_linker_0, # of connection points: 2
#     Edge 95, Type (0, 0), BuildingBlock: OJICUG_clean_linker_0, # of connection points: 2
#     Edge 96, Type (0, 0), BuildingBlock: OJICUG_clean_linker_0, # of connection points: 2
#     Edge 97, Type (0, 0), BuildingBlock: OJICUG_clean_linker_0, # of connection points: 2
#     Edge 98, Type (0, 0), BuildingBlock: OJICUG_clean_linker_0, # of connection points: 2
#     Edge 99, Type (0, 0), BuildingBlock: OJICUG_clean_linker_0, # of connection points: 2
#     Edge 100, Type (0, 0), BuildingBlock: OJICUG_clean_linker_0, # of connection points: 2
#     Edge 101, Type (0, 0), BuildingBlock: OJICUG_clean_linker_0, # of connection points: 2
#     Edge 102, Type (0, 0), BuildingBlock: OJICUG_clean_linker_0, # of connection points: 2
#     Edge 103, Type (0, 0), BuildingBlock: OJICUG_clean_linker_0, # of connection points: 2
#     Edge 104, Type (0, 0), BuildingBlock: OJICUG_clean_linker_0, # of connection points: 2
#     Edge 105, Type (0, 0), BuildingBlock: OJICUG_clean_linker_0, # of connection points: 2
#     Edge 106, Type (0, 0), BuildingBlock: OJICUG_clean_linker_0, # of connection points: 2
#     Edge 107, Type (0, 0), BuildingBlock: OJICUG_clean_linker_0, # of connection points: 2
#     Edge 108, Type (0, 0), BuildingBlock: OJICUG_clean_linker_0, # of connection points: 2
#     Edge 109, Type (0, 0), BuildingBlock: OJICUG_clean_linker_0, # of connection points: 2
#     Edge 110, Type (0, 0), BuildingBlock: OJICUG_clean_linker_0, # of connection points: 2
#     Edge 111, Type (0, 0), BuildingBlock: OJICUG_clean_linker_0, # of connection points: 2
#     Edge 112, Type (0, 0), BuildingBlock: OJICUG_clean_linker_0, # of connection points: 2
#     Edge 113, Type (0, 0), BuildingBlock: OJICUG_clean_linker_0, # of connection points: 2
#     Edge 114, Type (0, 0), BuildingBlock: OJICUG_clean_linker_0, # of connection points: 2
#     Edge 115, Type (0, 0), BuildingBlock: OJICUG_clean_linker_0, # of connection points: 2
#     Edge 116, Type (0, 0), BuildingBlock: OJICUG_clean_linker_0, # of connection points: 2
#     Edge 117, Type (0, 0), BuildingBlock: OJICUG_clean_linker_0, # of connection points: 2
#     Edge 118, Type (0, 0), BuildingBlock: OJICUG_clean_linker_0, # of connection points: 2
#     Edge 119, Type (0, 0), BuildingBlock: OJICUG_clean_linker_0, # of connection points: 2
#     Edge 120, Type (0, 0), BuildingBlock: OJICUG_clean_linker_0, # of connection points: 2
#     Edge 121, Type (0, 0), BuildingBlock: OJICUG_clean_linker_0, # of connection points: 2
#     Edge 122, Type (0, 0), BuildingBlock: OJICUG_clean_linker_0, # of connection points: 2
#     Edge 123, Type (0, 0), BuildingBlock: OJICUG_clean_linker_0, # of connection points: 2
#     Edge 124, Type (0, 0), BuildingBlock: OJICUG_clean_linker_0, # of connection points: 2
#     Edge 125, Type (0, 0), BuildingBlock: OJICUG_clean_linker_0, # of connection points: 2
#     Edge 126, Type (0, 0), BuildingBlock: OJICUG_clean_linker_0, # of connection points: 2
#     Edge 127, Type (0, 0), BuildingBlock: OJICUG_clean_linker_0, # of connection points: 2
#     Edge 128, Type (0, 0), BuildingBlock: OJICUG_clean_linker_0, # of connection points: 2
#     Edge 129, Type (0, 0), BuildingBlock: OJICUG_clean_linker_0, # of connection points: 2
#     Edge 130, Type (0, 0), BuildingBlock: OJICUG_clean_linker_0, # of connection points: 2
#     Edge 131, Type (0, 0), BuildingBlock: OJICUG_clean_linker_0, # of connection points: 2
#     Edge 132, Type (0, 0), BuildingBlock: OJICUG_clean_linker_0, # of connection points: 2
#     Edge 133, Type (0, 0), BuildingBlock: OJICUG_clean_linker_0, # of connection points: 2
#     Edge 134, Type (0, 0), BuildingBlock: OJICUG_clean_linker_0, # of connection points: 2
#     Edge 135, Type (0, 0), BuildingBlock: OJICUG_clean_linker_0, # of connection points: 2
#     Edge 136, Type (0, 0), BuildingBlock: OJICUG_clean_linker_0, # of connection points: 2
#     Edge 137, Type (0, 0), BuildingBlock: OJICUG_clean_linker_0, # of connection points: 2
#     Edge 138, Type (0, 0), BuildingBlock: OJICUG_clean_linker_0, # of connection points: 2
#     Edge 139, Type (0, 0), BuildingBlock: OJICUG_clean_linker_0, # of connection points: 2
#     Edge 140, Type (0, 0), BuildingBlock: OJICUG_clean_linker_0, # of connection points: 2
#     Edge 141, Type (0, 0), BuildingBlock: OJICUG_clean_linker_0, # of connection points: 2
#     Edge 142, Type (0, 0), BuildingBlock: OJICUG_clean_linker_0, # of connection points: 2
#     Edge 143, Type (0, 0), BuildingBlock: OJICUG_clean_linker_0, # of connection points: 2
# Relax obj value: 0.288
# Max RMSD: 0.265
# Mean RMSD: 0.265
data_MOF--net-sop--node1-NUHQUE_clean_sbu_2--edge1-OJICUG_clean_linker_0
_symmetry_space_group_name_H-M    P1
_symmetry_Int_Tables_number       1
_symmetry_cell_setting            triclinic
loop_
_symmetry_equiv_pos_as_xyz
'x, y, z'
_cell_length_a     93.713116
_cell_length_b     19.40389
_cell_length_c     46.771291
_cell_angle_alpha  90.190404
_cell_angle_beta   90.202622
_cell_angle_gamma 90.117922
loop_
_atom_site_label
_atom_site_type_symbol
_atom_site_fract_x
_atom_site_fract_y
_atom_site_fract_z
_atom_type_partial_charge
O0 O 0.10207 0.37859 0.06528 0.0
Tb1 Tb 0.11957 0.40877 0.09312 0.0
Eu2 Eu 0.0878 0.46759 0.1034 0.0
C3 C 0.09712 0.3151 0.06297 0.0
O4 O 0.08539 0.30402 1.0482 0.0
C5 C 0.10246 0.33225 0.14053 0.0
O6 O 0.08104 0.54687 0.13605 0.0
C7 C 0.06825 0.45582 0.06284 0.0
C8 C 0.09057 0.56511 0.15536 0.0
O9 O 0.10219 0.5277 0.1578 0.0
C10 C 0.11654 0.5699 0.10004 0.0
C11 C 0.05744 0.48334 1.04168 0.0
C12 C 0.05912 0.47197 1.01173 0.0
C13 C 0.04835 0.49084 0.99164 0.0
C14 C 0.03589 0.52279 1.00265 0.0
C15 C 0.03358 0.5319 1.03225 0.0
C16 C 0.04453 0.51262 0.05142 0.0
O17 O 0.11524 0.35254 0.13229 0.0
O18 O 0.09082 0.3641 0.13013 0.0
O19 O 0.13705 0.42045 0.0627 0.0
O20 O 0.13823 0.34278 0.09342 0.0
C21 C 0.14552 0.37443 0.07374 0.0
O22 O 0.10272 0.56183 0.09441 0.0
O23 O 0.12436 0.51539 0.1059 0.0
O24 O 0.06544 0.45776 0.09042 0.0
O25 O 0.08195 0.46119 0.05754 0.0
H26 H 0.06862 0.44588 1.00434 0.0
H27 H 0.02761 0.53955 0.98819 0.0
H28 H 0.04292 0.51981 0.07415 0.0
O29 O 0.12798 1.05762 0.1301 0.0
Tb30 Tb 0.14594 0.99076 0.13917 0.0
Eu31 Eu 0.17686 0.93958 0.10405 0.0
C32 C 0.12651 1.0741 0.10299 0.0
O33 O 0.13464 1.04285 0.08416 0.0
C34 C 0.17003 0.09047 0.13275 0.0
O35 O 0.1863 0.86987 0.13766 0.0
C36 C 0.19501 0.93611 0.06154 0.0
C37 C 0.17815 0.83142 0.1539 0.0
O38 O 0.16425 0.83647 0.15234 0.0
C39 C 0.14545 0.84575 0.10573 0.0
C40 C 0.20686 0.93129 1.03963 0.0
C41 C 0.20527 0.94669 1.0099 0.0
C42 C 0.2168 0.93637 0.99028 0.0
C43 C 0.22966 0.90815 1.00146 0.0
C44 C 0.2317 0.89589 1.03082 0.0
C45 C 0.22027 0.90781 1.04942 0.0
O46 O 0.15772 1.07583 0.1209 0.0
O47 O 0.17981 1.04143 0.13092 0.0
O48 O 0.14388 0.99845 0.18547 0.0
O49 O 0.16396 0.96971 0.16747 0.0
C50 C 0.15715 0.9821 0.191 0.0
O51 O 0.15878 0.85657 0.09618 0.0
O52 O 0.13872 0.89183 0.12161 0.0
O53 O 0.19702 0.90852 0.08679 0.0
O54 O 0.18262 0.96781 0.0588 0.0
H55 H 0.19518 0.96665 1.00227 0.0
H56 H 0.23839 0.89579 0.98735 0.0
H57 H 0.2218 0.89661 0.0719 0.0
O58 O 0.10317 1.0344 0.28929 0.0
Tb59 Tb 0.1209 1.00458 0.26226 0.0
Eu60 Eu 0.08967 0.94163 0.25264 0.0
C61 C 0.09817 0.09773 0.29145 0.0
O62 O 0.08632 0.1083 0.30567 0.0
C63 C 0.10338 0.07759 0.21463 0.0
O64 O 0.08216 0.86164 0.22079 0.0
C65 C 0.07109 0.95254 0.29476 0.0
C66 C 0.09132 0.84259 0.20105 0.0
O67 O 0.10298 0.87948 0.19785 0.0
C68 C 0.11887 0.84256 0.25516 0.0
C69 C 0.06041 0.92389 0.31579 0.0
C70 C 0.06224 0.93355 0.34584 0.0
C71 C 0.05154 0.91349 0.36583 0.0
C72 C 0.03897 0.88239 0.35444 0.0
C73 C 0.03654 0.87531 0.32472 0.0
C74 C 0.04746 0.89527 0.3058 0.0
O75 O 0.11629 1.05873 0.22267 0.0
O76 O 0.09197 1.04486 0.2255 0.0
O77 O 0.13845 0.99672 0.29298 0.0
O78 O 0.13899 1.0743 0.26216 0.0
C79 C 0.14655 1.04423 0.28193 0.0
O80 O 0.10499 0.8486 0.26038 0.0
O81 O 0.12646 0.89836 0.25005 0.0
O82 O 0.06776 0.95415 0.26738 0.0
O83 O 0.08483 0.94413 0.29906 0.0
H84 H 0.07181 0.95918 0.35339 0.0
H85 H 0.0307 0.86464 0.36861 0.0
H86 H 0.04576 0.88926 0.28301 0.0
O87 O 0.12898 0.35709 0.22543 0.0
Tb88 Tb 0.14723 0.42226 0.21618 0.0
Eu89 Eu 0.1784 0.46676 0.25049 0.0
C90 C 0.12788 0.33945 0.25248 0.0
O91 O 0.13644 0.36936 0.27107 0.0
C92 C 0.17067 0.31854 0.21993 0.0
O93 O 0.18555 0.54308 0.21775 0.0
C94 C 0.19696 0.46994 0.29252 0.0
C95 C 0.18988 0.60448 0.22601 0.0
O96 O 0.19128 0.61746 0.25347 0.0
C97 C 0.14793 0.56745 0.24817 0.0
C98 C 0.20878 0.4764 0.31459 0.0
C99 C 0.20715 0.46054 0.34422 0.0
C100 C 0.21859 0.4715 0.36412 0.0
C101 C 0.23141 0.50066 0.35346 0.0
C102 C 0.23347 0.5143 0.32426 0.0
C103 C 0.22211 0.50208 0.30528 0.0
O104 O 0.15851 0.33308 0.23209 0.0
O105 O 0.18069 0.36656 0.22233 0.0
O106 O 0.14485 0.41817 0.16999 0.0
O107 O 0.16487 0.45015 0.18812 0.0
C108 C 0.15792 0.43807 0.16451 0.0
O109 O 0.16148 0.55608 0.25635 0.0
O110 O 0.14038 0.51985 0.23467 0.0
O111 O 0.19984 0.48324 0.26563 0.0
O112 O 0.1836 0.45106 0.29701 0.0
H113 H 0.19712 0.43943 0.35157 0.0
H114 H 0.24009 0.51264 0.36794 0.0
H115 H 0.22361 0.51466 0.28295 0.0
O116 O 0.90665 0.79334 1.03398 0.0
Tb117 Tb 0.89163 0.75469 1.00224 0.0
Eu118 Eu 0.92522 0.6902 1.00039 0.0
C119 C 0.90555 0.84963 1.04995 0.0
O120 O 0.91582 0.86162 0.06851 0.0
C121 C 0.91309 0.82511 0.95928 0.0
O122 O 0.93489 0.6115 0.97008 0.0
C123 C 0.94352 0.71015 1.04288 0.0
C124 C 0.92678 0.58072 0.95081 0.0
O125 O 0.91339 0.59936 0.94815 0.0
C126 C 0.89596 0.59181 1.00084 0.0
C127 C 0.95415 0.6825 0.06466 0.0
C128 C 0.95296 0.69707 0.09458 0.0
C129 C 0.96403 0.67891 0.11431 0.0
C130 C 0.97613 0.64439 0.10313 0.0
C131 C 0.97797 0.63236 0.07367 0.0
C132 C 0.96682 0.65063 0.05486 0.0
O133 O 0.89959 0.81373 0.96605 0.0
O134 O 0.92368 0.78801 0.97082 0.0
O135 O 0.87357 0.75112 1.03159 0.0
O136 O 0.87137 0.80475 0.99295 0.0
C137 C 0.86446 0.78337 1.01539 0.0
O138 O 0.90935 0.60041 1.00985 0.0
O139 O 0.88878 0.64504 0.9908 0.0
O140 O 0.94689 0.70496 1.01572 0.0
O141 O 0.92962 0.7065 1.04687 0.0
H142 H 0.94373 0.72499 0.10219 0.0
H143 H 0.98457 0.62824 0.11741 0.0
H144 H 0.96821 0.64102 1.03222 0.0
O145 O 0.85817 0.10855 1.04007 0.0
Tb146 Tb 0.87275 0.14941 1.00829 0.0
Eu147 Eu 0.83938 0.20781 1.00314 0.0
C148 C 0.85956 1.05054 0.05469 0.0
O149 O 0.84983 1.03676 0.07401 0.0
C150 C 0.85273 1.07472 0.96403 0.0
O151 O 0.82937 0.28117 0.97157 0.0
C152 C 0.82143 0.19136 1.04588 0.0
C153 C 0.83667 0.2974 0.94861 0.0
O154 O 0.84876 0.26508 0.94387 0.0
C155 C 0.86781 0.31295 1.00299 0.0
C156 C 0.81074 0.22088 0.06681 0.0
C157 C 0.81209 0.21007 0.09685 0.0
C158 C 0.80108 0.22973 0.11625 0.0
C159 C 0.78875 0.26162 0.10446 0.0
C160 C 0.78678 0.26988 0.07474 0.0
C161 C 0.79797 0.25046 0.05635 0.0
O162 O 0.86587 0.09544 0.96975 0.0
O163 O 0.84158 0.10567 0.97626 0.0
O164 O 0.89199 0.15848 1.0346 0.0
O165 O 0.89209 0.09177 0.99955 0.0
C166 C 0.90026 0.12036 1.01881 0.0
O167 O 0.85404 0.30434 1.00889 0.0
O168 O 0.87596 0.25903 0.99761 0.0
O169 O 0.8179 0.19134 1.01865 0.0
O170 O 0.83531 0.19841 1.04983 0.0
H171 H 0.82145 0.18371 0.10482 0.0
H172 H 0.7803 0.27884 0.11836 0.0
H173 H 0.79655 0.25737 1.03355 0.0
O174 O 0.88097 0.08771 0.87461 0.0
Tb175 Tb 0.89805 0.16289 0.87493 0.0
Eu176 Eu 0.9304 0.20838 0.85176 0.0
C177 C 0.87808 1.05624 0.85024 0.0
O178 O 0.88196 0.08611 0.82632 0.0
C179 C 0.92112 1.05651 0.87688 0.0
O180 O 0.93719 0.28659 0.88526 0.0
C181 C 0.94855 0.19855 0.80923 0.0
C182 C 0.9412 0.34969 0.87872 0.0
O183 O 0.94408 0.36472 0.852 0.0
C184 C 0.89967 0.30216 0.84321 0.0
C185 C 0.95866 0.22806 0.78724 0.0
C186 C 0.9574 0.21298 0.7574 0.0
C187 C 0.96834 0.23205 0.73767 0.0
C188 C 0.98042 0.26725 0.74887 0.0
C189 C 0.98224 0.2796 0.77832 0.0
C190 C 0.97117 0.26147 0.79699 0.0
O191 O 0.90962 1.07138 0.86227 0.0
O192 O 0.93087 0.10586 0.87854 0.0
O193 O 0.89553 0.18315 0.9206 0.0
O194 O 0.91569 0.19983 0.90138 0.0
C195 C 0.90873 0.20234 0.92524 0.0
O196 O 0.9139 0.29812 0.84509 0.0
O197 O 0.89156 0.24803 0.84807 0.0
O198 O 0.95206 0.20609 0.83636 0.0
O199 O 0.93461 0.19559 0.80518 0.0
H200 H 0.94825 0.1839 0.74987 0.0
H201 H 0.98868 0.28536 0.73466 0.0
H202 H 0.97273 0.26991 0.81968 0.0
O203 O 0.87292 0.73107 0.87704 0.0
Tb204 Tb 0.85717 0.6612 0.89613 0.0
Eu205 Eu 0.84094 0.67707 0.85192 0.0
C206 C 0.87146 0.76064 0.85173 0.0
O207 O 0.86288 0.73318 0.83268 0.0
C208 C 0.84988 0.80791 0.89982 0.0
O209 O 0.83751 0.57776 0.87647 0.0
C210 C 0.82163 0.6896 0.81128 0.0
C211 C 0.82577 0.54793 0.88565 0.0
O212 O 0.81338 0.5789 0.88338 0.0
C213 C 0.86715 0.55846 0.85329 0.0
C214 C 0.81127 0.66082 0.78927 0.0
C215 C 0.81238 0.67626 0.75947 0.0
C216 C 0.80144 0.65666 0.7396 0.0
C217 C 0.7895 0.62037 0.75068 0.0
C218 C 0.78771 0.60821 0.78013 0.0
C219 C 0.79882 0.62703 0.79891 0.0
O220 O 0.85919 0.76459 0.90998 0.0
O221 O 0.84161 0.78608 0.87783 0.0
O222 O 0.85601 0.63296 0.94052 0.0
O223 O 0.83685 0.66492 0.91813 0.0
C224 C 0.84228 0.64708 0.94304 0.0
O225 O 0.859 0.59875 0.83652 0.0
O226 O 0.86732 0.57009 0.88078 0.0
O227 O 0.8188 0.67912 0.83852 0.0
O228 O 0.83544 0.69464 0.80622 0.0
H229 H 0.82144 0.70582 0.75212 0.0
H230 H 0.78116 0.60285 0.73647 0.0
H231 H 0.79755 0.6167 0.8215 0.0
O232 O 0.11508 0.86898 0.56511 0.0
Tb233 Tb 0.12827 0.90335 0.60106 0.0
Eu234 Eu 0.09372 0.96555 0.6043 0.0
C235 C 0.11521 0.80834 0.55183 0.0
O236 O 0.10512 0.79639 0.53286 0.0
C237 C 0.10675 0.82864 0.64379 0.0
O238 O 0.08438 1.04421 0.63514 0.0
C239 C 0.07483 0.94573 0.56278 0.0
C240 C 0.09256 1.07366 0.65465 0.0
O241 O 0.10584 1.05334 0.65741 0.0
C242 C 0.12278 1.06305 0.60471 0.0
C243 C 0.06407 0.97253 0.54094 0.0
C244 C 0.0653 0.95768 0.51102 0.0
C245 C 0.05419 0.97511 0.49126 0.0
C246 C 0.04207 1.00942 0.5023 0.0
C247 C 0.04003 1.02088 0.53172 0.0
C248 C 0.05124 1.00351 0.55066 0.0
O249 O 0.12014 0.83848 0.6356 0.0
O250 O 0.09603 0.86764 0.63376 0.0
O251 O 0.14735 0.93213 0.57736 0.0
O252 O 0.14905 0.85594 0.60921 0.0
C253 C 0.15629 0.89315 0.59112 0.0
O254 O 0.10971 1.05433 0.59404 0.0
O255 O 0.12926 1.01027 0.6167 0.0
O256 O 0.07177 0.95326 0.59002 0.0
O257 O 0.08871 0.94693 0.5582 0.0
H258 H 0.07459 0.9302 0.50343 0.0
H259 H 0.0339 1.02747 0.48777 0.0
H260 H 0.04966 1.01139 0.57336 0.0
O261 O 0.15813 0.53135 0.55973 0.0
Tb262 Tb 0.14537 0.49707 0.59594 0.0
Eu263 Eu 0.17975 0.44431 0.60075 0.0
C264 C 0.15791 0.59321 0.5477 0.0
O265 O 0.16764 0.6069 0.52837 0.0
C266 C 0.16588 0.58271 0.63709 0.0
O267 O 0.18911 0.37185 0.63342 0.0
C268 C 0.19867 0.45891 0.5596 0.0
C269 C 0.1817 0.35733 0.65643 0.0
O270 O 0.16967 0.39041 0.66078 0.0
C271 C 0.15201 0.3385 0.60324 0.0
C272 C 0.20931 0.42727 0.53903 0.0
C273 C 0.20797 0.43617 0.50889 0.0
C274 C 0.21877 0.41345 0.48958 0.0
C275 C 0.23091 0.38048 0.50171 0.0
C276 C 0.23301 0.37458 0.53149 0.0
C277 C 0.222 0.39713 0.54976 0.0
O278 O 0.15266 0.56546 0.63009 0.0
O279 O 0.17708 0.54702 0.62729 0.0
O280 O 0.12545 0.46708 0.57479 0.0
O281 O 0.12523 0.54874 0.60432 0.0
C282 C 0.11711 0.50929 0.5885 0.0
O283 O 0.16507 0.34865 0.5931 0.0
O284 O 0.14472 0.39158 0.61293 0.0
O285 O 0.20171 0.45644 0.58705 0.0
O286 O 0.18481 0.45623 0.55463 0.0
H287 H 0.19873 0.46322 0.50079 0.0
H288 H 0.23916 0.36039 0.48806 0.0
H289 H 0.22345 0.39205 0.57263 0.0
O290 O 0.13937 0.56106 0.73249 0.0
Tb291 Tb 0.1217 0.4893 0.73261 0.0
Eu292 Eu 0.08895 0.44658 0.75333 0.0
C293 C 0.14233 0.59287 0.75673 0.0
O294 O 0.13808 0.5643 0.78068 0.0
C295 C 0.09905 0.59779 0.72739 0.0
O296 O 0.08185 0.36811 0.72008 0.0
C297 C 0.07069 0.45854 0.79563 0.0
C298 C 0.07776 0.30509 0.72657 0.0
O299 O 0.07474 0.29006 0.75323 0.0
C300 C 0.11929 0.35086 0.76381 0.0
C301 C 0.06039 0.4294 0.81736 0.0
C302 C 0.06148 0.4445 0.84724 0.0
C303 C 0.05039 0.42579 0.86669 0.0
C304 C 0.03835 0.39083 0.8552 0.0
C305 C 0.03667 0.37859 0.8257 0.0
C306 C 0.04789 0.39639 0.80729 0.0
O307 O 0.11044 0.58369 0.74255 0.0
O308 O 0.08916 0.54881 0.726 0.0
O309 O 0.12388 0.4655 0.68714 0.0
O310 O 0.10404 0.4485 0.70754 0.0
C311 C 0.11073 0.44445 0.68345 0.0
O312 O 0.10514 0.35535 0.76014 0.0
O313 O 0.1275 0.40543 0.76072 0.0
O314 O 0.06726 0.4519 0.76843 0.0
O315 O 0.08463 0.45966 0.79986 0.0
H316 H 0.07061 0.47333 0.85499 0.0
H317 H 0.02999 0.37285 0.86922 0.0
H318 H 0.04646 0.38796 0.78457 0.0
O319 O 0.1473 0.91936 0.73029 0.0
Tb320 Tb 0.16245 0.9922 0.71112 0.0
Eu321 Eu 0.17807 0.97664 0.75274 0.0
C322 C 0.14899 0.88871 0.75527 0.0
O323 O 0.15727 0.91671 0.7747 0.0
C324 C 0.16899 0.84832 0.70287 0.0
O325 O 0.18114 0.07928 0.73018 0.0
C326 C 0.19778 0.96313 0.79266 0.0
C327 C 0.19284 0.11032 0.72142 0.0
O328 O 0.20528 0.07968 0.72343 0.0
C329 C 0.15153 0.09357 0.75256 0.0
C330 C 0.20818 0.99157 0.81475 0.0
C331 C 0.20652 0.97961 0.84472 0.0
C332 C 0.21725 0.9997 0.86495 0.0
C333 C 0.22956 1.03328 0.85398 0.0
C334 C 0.23198 1.04157 0.82447 0.0
C335 C 0.22109 1.0217 0.80528 0.0
O336 O 0.15971 0.89291 0.69344 0.0
O337 O 0.17723 0.86856 0.72532 0.0
O338 O 0.16538 1.02625 0.66789 0.0
O339 O 0.18351 0.98763 0.69191 0.0
C340 C 0.17908 1.01056 0.66693 0.0
O341 O 0.1599 1.05366 0.7691 0.0
O342 O 0.15136 0.08168 0.72513 0.0
O343 O 0.20037 0.9752 0.76544 0.0
O344 O 0.18403 0.95673 0.79803 0.0
H345 H 0.19711 0.95247 0.85198 0.0
H346 H 0.23774 1.05186 0.86834 0.0
H347 H 0.22284 1.02873 0.7826 0.0
O348 O 0.91544 0.27865 0.53962 0.0
Tb349 Tb 0.89789 0.24824 0.51197 0.0
Eu350 Eu 0.92964 0.18909 0.50154 0.0
C351 C 0.92004 0.34266 0.54233 0.0
O352 O 0.93181 0.35465 0.55684 0.0
C353 C 0.91496 0.32503 0.46466 0.0
O354 O 0.93625 0.11063 0.46849 0.0
C355 C 0.94952 0.19953 0.54161 0.0
C356 C 0.92671 0.0933 0.44907 0.0
O357 O 0.91516 0.13122 0.44674 0.0
C358 C 0.90076 0.08729 0.50432 0.0
C359 C 0.96041 0.17222 0.5628 0.0
C360 C 0.95878 0.1843 0.59275 0.0
C361 C 0.96961 0.16594 0.61283 0.0
C362 C 0.98202 0.13367 0.60188 0.0
C363 C 0.98437 0.12438 0.57235 0.0
C364 C 0.97336 0.14294 0.5531 0.0
O365 O 0.90219 0.3048 0.47292 0.0
O366 O 0.92661 0.29301 0.47498 0.0
O367 O 0.88047 0.23558 0.54243 0.0
O368 O 0.87913 0.3135 0.51186 0.0
C369 C 0.87187 0.28095 0.53134 0.0
O370 O 0.9146 0.09473 0.51013 0.0
O371 O 0.89306 0.14222 0.4986 0.0
O372 O 0.95215 0.19638 0.51398 0.0
O373 O 0.93581 0.19615 0.54726 0.0
H374 H 0.9493 0.21048 0.60016 0.0
H375 H 0.9901 0.11494 0.61643 0.0
H376 H 0.97511 0.13696 0.53036 0.0
O377 O 0.88785 0.59839 0.47662 0.0
Tb378 Tb 0.87005 0.66557 0.46634 0.0
Eu379 Eu 0.83842 0.72453 0.50004 0.0
C380 C 0.88893 0.58026 0.50363 0.0
O381 O 0.88047 0.60986 0.52233 0.0
C382 C 0.84527 0.57151 0.47367 0.0
O383 O 0.8286 0.79366 0.46668 0.0
C384 C 0.8205 0.72933 0.54301 0.0
C385 C 0.83638 0.8263 0.44775 0.0
O386 O 0.85026 0.8186 0.44746 0.0
C387 C 0.87035 0.81495 0.49681 0.0
C388 C 0.80886 0.73488 0.56542 0.0
C389 C 0.81079 0.71878 0.59496 0.0
C390 C 0.79953 0.72876 0.61522 0.0
C391 C 0.78651 0.75718 0.60481 0.0
C392 C 0.78409 0.77012 0.57559 0.0
C393 C 0.79534 0.75885 0.55638 0.0
O394 O 0.85734 0.58646 0.48636 0.0
O395 O 0.83561 0.62134 0.47404 0.0
O396 O 0.87255 0.64969 0.42045 0.0
O397 O 0.85257 0.68565 0.43652 0.0
C398 C 0.8595 0.66745 0.41381 0.0
O399 O 0.85688 0.8065 0.50607 0.0
O400 O 0.87712 0.76655 0.48216 0.0
O401 O 0.8182 0.75505 0.51752 0.0
O402 O 0.83306 0.69919 0.54575 0.0
H403 H 0.82094 0.69829 0.60196 0.0
H404 H 0.77794 0.76902 0.61938 0.0
H405 H 0.79356 0.7705 0.53401 0.0
O406 O 0.91415 0.62315 0.31631 0.0
Tb407 Tb 0.8962 0.65205 0.34291 0.0
Eu408 Eu 0.92715 0.71622 0.35245 0.0
C409 C 0.91901 0.55966 0.31367 0.0
O410 O 0.93095 0.54917 0.29974 0.0
C411 C 0.91372 0.57978 0.39059 0.0
O412 O 0.93475 0.79618 0.38417 0.0
C413 C 0.94581 0.7055 0.31042 0.0
C414 C 0.92563 0.81559 0.4039 0.0
O415 O 0.91393 0.77903 0.40723 0.0
C416 C 0.89769 0.81406 0.35039 0.0
C417 C 0.95668 0.73321 0.28954 0.0
C418 C 0.95504 0.72272 0.25948 0.0
C419 C 0.96592 0.74185 0.23971 0.0
C420 C 0.97843 0.77302 0.25127 0.0
C421 C 0.98066 0.78096 0.281 0.0
C422 C 0.96961 0.76172 0.29974 0.0
O423 O 0.90079 0.59817 0.38255 0.0
O424 O 0.92506 0.61294 0.37968 0.0
O425 O 0.87873 0.65846 0.31194 0.0
O426 O 0.87847 0.58035 0.34256 0.0
C427 C 0.87085 0.60972 0.32269 0.0
O428 O 0.91159 0.80879 0.34503 0.0
O429 O 0.89026 0.75767 0.35535 0.0
O430 O 0.94907 0.7033 0.33781 0.0
O431 O 0.9321 0.71479 0.306 0.0
H432 H 0.9455 0.69717 0.25178 0.0
H433 H 0.98681 0.79014 0.23721 0.0
H434 H 0.97118 0.76827 0.32254 0.0
O435 O 0.8876 0.29939 0.3777 0.0
Tb436 Tb 0.86939 0.23464 0.38772 0.0
Eu437 Eu 0.83765 0.19003 0.35822 0.0
C438 C 0.88797 0.32001 0.35093 0.0
O439 O 0.87869 0.29327 0.33289 0.0
C440 C 0.84589 0.33876 0.38875 0.0
O441 O 0.82762 0.11046 0.38636 0.0
C442 C 0.82079 0.20565 0.31343 0.0
C443 C 0.82387 1.05118 0.37495 0.0
O444 O 0.82422 1.04446 0.34699 0.0
C445 C 0.86798 0.08834 0.35774 0.0
C446 C 0.81066 0.17512 0.29137 0.0
C447 C 0.81214 0.18849 0.2615 0.0
C448 C 0.80131 0.1688 0.24145 0.0
C449 C 0.7891 0.13448 0.25232 0.0
C450 C 0.78696 0.12395 0.28177 0.0
C451 C 0.79797 0.14279 0.30083 0.0
O452 O 0.85792 0.32691 0.37557 0.0
O453 O 0.83636 0.2882 0.38789 0.0
O454 O 0.8726 0.23494 0.43375 0.0
O455 O 0.85256 0.20076 0.41662 0.0
C456 C 0.8598 0.21236 0.43992 0.0
O457 O 0.85389 0.09694 0.35368 0.0
O458 O 0.87608 0.13958 0.36688 0.0
O459 O 0.81661 0.20368 0.34019 0.0
O460 O 0.83479 0.20158 0.31105 0.0
H461 H 0.82138 0.21682 0.25418 0.0
H462 H 0.78098 0.11556 0.23779 0.0
H463 H 0.79625 0.1356 0.32351 0.0
O464 O 0.60863 0.3602 0.56909 0.0
Tb465 Tb 0.62363 0.39997 0.6006 0.0
Eu466 Eu 0.59008 0.46474 0.60289 0.0
C467 C 0.60985 0.30347 0.55341 0.0
O468 O 0.59962 0.29047 0.53486 0.0
C469 C 0.60228 0.32923 0.6436 0.0
O470 O 0.58091 0.54213 0.63422 0.0
C471 C 0.57115 0.44797 0.56132 0.0
C472 C 0.58927 0.5718 0.65332 0.0
O473 O 0.60265 0.55245 0.65533 0.0
C474 C 0.61939 0.56301 0.6021 0.0
C475 C 0.56065 0.47601 0.53933 0.0
C476 C 0.56227 0.463 0.50944 0.0
C477 C 0.55149 0.4816 0.48918 0.0
C478 C 0.5391 0.51491 0.49992 0.0
C479 C 0.53679 0.5257 0.52942 0.0
C480 C 0.54775 0.50678 0.54869 0.0
O481 O 0.61577 0.34133 0.63697 0.0
O482 O 0.59164 0.3659 0.63197 0.0
O483 O 0.64154 0.40324 0.57089 0.0
O484 O 0.64394 0.35002 0.6096 0.0
C485 C 0.65072 0.37108 0.58695 0.0
O486 O 0.60598 0.55455 0.59323 0.0
O487 O 0.62658 0.50962 0.61198 0.0
O488 O 0.56808 0.45609 0.58851 0.0
O489 O 0.58503 0.447 0.55681 0.0
H490 H 0.57168 0.43588 0.50221 0.0
H491 H 0.53085 0.53136 0.4853 0.0
H492 H 0.54608 0.5152 0.57133 0.0
O493 O 0.65779 1.04688 0.56425 0.0
Tb494 Tb 0.6432 1.00542 0.5959 0.0
Eu495 Eu 0.67644 0.94601 0.60066 0.0
C496 C 0.65631 0.10479 0.54958 0.0
O497 O 0.66608 0.119 0.53038 0.0
C498 C 0.66349 0.07915 0.64005 0.0
O499 O 0.68615 0.87334 0.63259 0.0
C500 C 0.69494 0.95985 0.55882 0.0
C501 C 0.6787 0.85734 0.65533 0.0
O502 O 0.66657 0.88953 0.65975 0.0
C503 C 0.64789 0.84145 0.60051 0.0
C504 C 0.70555 0.92777 0.53844 0.0
C505 C 0.70466 0.93954 0.50846 0.0
C506 C 0.71567 0.91782 0.48953 0.0
C507 C 0.72754 0.88295 0.50164 0.0
C508 C 0.72907 0.87292 0.53137 0.0
C509 C 0.71786 0.89454 0.54935 0.0
O510 O 0.6503 1.059 0.63444 0.0
O511 O 0.67454 1.04813 0.62753 0.0
O512 O 0.62409 0.9986 0.56911 0.0
O513 O 0.62382 1.06233 0.60512 0.0
C514 C 0.61576 1.03557 0.58524 0.0
O515 O 0.66169 0.84979 0.59473 0.0
O516 O 0.6398 0.89555 0.60599 0.0
O517 O 0.69819 0.95936 0.58617 0.0
O518 O 0.68106 0.95548 0.55424 0.0
H519 H 0.69569 0.96835 0.50017 0.0
H520 H 0.73598 0.8648 0.4879 0.0
H521 H 0.71888 0.88656 0.57217 0.0
O522 O 0.6349 1.06576 0.72782 0.0
Tb523 Tb 0.61785 0.99041 0.7277 0.0
Eu524 Eu 0.58561 0.94503 0.7512 0.0
C525 C 0.63783 0.09729 0.75215 0.0
O526 O 0.63403 1.06735 0.77611 0.0
C527 C 0.59476 0.09698 0.72587 0.0
O528 O 0.57891 0.86684 0.71777 0.0
C529 C 0.56742 0.95319 0.79367 0.0
C530 C 0.5747 0.80417 0.72444 0.0
O531 O 0.57154 0.78992 0.75111 0.0
C532 C 0.61633 0.85121 0.75958 0.0
C533 C 0.55753 0.92213 0.81565 0.0
C534 C 0.55929 0.93401 0.84558 0.0
C535 C 0.54871 0.91298 0.86571 0.0
C536 C 0.53633 0.87946 0.85465 0.0
C537 C 0.53397 0.87063 0.82506 0.0
C538 C 0.54483 0.89023 0.8061 0.0
O539 O 0.60634 0.0822 0.74027 0.0
O540 O 0.58498 1.04769 0.7245 0.0
O541 O 0.62027 0.96968 0.68204 0.0
O542 O 0.60012 0.95382 0.70144 0.0
C543 C 0.60703 0.95089 0.67752 0.0
O544 O 0.6021 0.85529 0.75783 0.0
O545 O 0.62444 0.90529 0.75453 0.0
O546 O 0.56392 0.94572 0.76654 0.0
O547 O 0.58135 0.9575 0.7977 0.0
H548 H 0.5686 0.96212 0.85289 0.0
H549 H 0.52813 0.8614 0.86895 0.0
H550 H 0.54313 0.8822 0.78342 0.0
O551 O 0.64299 0.42237 0.72523 0.0
Tb552 Tb 0.65888 0.49245 0.70681 0.0
Eu553 Eu 0.67529 0.47722 0.75206 0.0
C554 C 0.64435 0.3929 0.75059 0.0
O555 O 0.65297 0.42015 0.76962 0.0
C556 C 0.66696 0.34515 0.70475 0.0
O557 O 0.67796 0.57472 0.72606 0.0
C558 C 0.69493 0.47691 0.79202 0.0
C559 C 0.68959 0.60571 0.71697 0.0
O560 O 0.70213 0.57624 0.71945 0.0
C561 C 0.64877 0.59442 0.7502 0.0
C562 C 0.70709 0.47935 0.81346 0.0
C563 C 0.7055 0.46323 0.84308 0.0
C564 C 0.71714 0.47093 0.86272 0.0
C565 C 0.73016 0.49741 0.85181 0.0
C566 C 0.73218 0.51106 0.8226 0.0
C567 C 0.7206 0.5017 0.80379 0.0
O568 O 0.6576 0.38787 0.6944 0.0
O569 O 0.67522 0.36751 0.72669 0.0
O570 O 0.65934 0.51985 0.66223 0.0
O571 O 0.67889 0.49007 0.68368 0.0
C572 C 0.67309 0.50702 0.65904 0.0
O573 O 0.65691 0.55425 0.76705 0.0
O574 O 0.64869 0.58307 0.72268 0.0
O575 O 0.69731 0.49091 0.76493 0.0
O576 O 0.68158 0.45978 0.79763 0.0
H577 H 0.69531 0.44449 0.85063 0.0
H578 H 0.73902 0.50732 0.86609 0.0
H579 H 0.72208 0.5141 0.78143 0.0
O580 O 0.40803 0.80113 0.53185 0.0
Tb581 Tb 0.39325 0.7587 0.50049 0.0
Eu582 Eu 0.42659 0.70031 0.50102 0.0
C583 C 0.40641 0.85785 0.54739 0.0
O584 O 0.41655 0.87297 0.56586 0.0
C585 C 0.41455 0.83248 0.4586 0.0
O586 O 0.43364 0.62108 0.4689 0.0
C587 C 0.4467 0.71214 0.54039 0.0
C588 C 0.42527 0.60997 0.44684 0.0
O589 O 0.41446 0.65191 0.44274 0.0
C590 C 0.39803 0.59681 0.50042 0.0
C591 C 0.45728 0.68193 0.56162 0.0
C592 C 0.45579 0.69266 0.59164 0.0
C593 C 0.46658 0.67193 0.61141 0.0
C594 C 0.47886 0.63885 0.6001 0.0
C595 C 0.48105 0.63004 0.57046 0.0
C596 C 0.47007 0.65125 0.5516 0.0
O597 O 0.40111 0.81548 0.46358 0.0
O598 O 0.42524 0.80034 0.47229 0.0
O599 O 0.37538 0.75474 0.53033 0.0
O600 O 0.37278 0.80673 0.49132 0.0
C601 C 0.36614 0.7866 0.5143 0.0
O602 O 0.4111 0.60826 0.51082 0.0
O603 O 0.39084 0.64876 0.48936 0.0
O604 O 0.44903 0.70231 0.51296 0.0
O605 O 0.43298 0.71764 0.54631 0.0
H606 H 0.44648 0.71971 0.59938 0.0
H607 H 0.48709 0.621 0.61445 0.0
H608 H 0.47162 0.64461 0.52883 0.0
O609 O 0.35696 0.10724 0.5382 0.0
Tb610 Tb 0.37259 0.15305 0.50982 0.0
Eu611 Eu 0.34022 0.21489 0.504 0.0
C612 C 0.35807 1.04598 0.55048 0.0
O613 O 0.34785 1.02695 0.56791 0.0
C614 C 0.35338 0.08439 0.46317 0.0
O615 O 0.32873 0.29257 0.47669 0.0
C616 C 0.32321 0.19685 0.54818 0.0
C617 C 0.32932 0.29224 0.44865 0.0
O618 O 0.33547 0.24021 0.43558 0.0
C619 C 0.36927 0.31797 0.50383 0.0
C620 C 0.31245 0.22734 0.56873 0.0
C621 C 0.31371 0.2171 0.59878 0.0
C622 C 0.30274 0.23776 0.61805 0.0
C623 C 0.29052 0.27033 0.60612 0.0
C624 C 0.28856 0.27806 0.57638 0.0
C625 C 0.29972 0.25734 0.55807 0.0
O626 O 0.36646 0.10501 0.46938 0.0
O627 O 0.34223 0.11414 0.47599 0.0
O628 O 0.39101 0.15553 0.53869 0.0
O629 O 0.39123 0.08979 0.50317 0.0
C630 C 0.39903 0.11355 0.52411 0.0
O631 O 0.35521 0.31131 0.50717 0.0
O632 O 0.37737 0.26264 0.50139 0.0
O633 O 0.31933 0.19182 0.52123 0.0
O634 O 0.33702 0.2087 0.55108 0.0
H635 H 0.323 0.19033 0.60687 0.0
H636 H 0.28213 0.28848 0.61995 0.0
H637 H 0.29835 0.26364 0.53523 0.0
O638 O 0.38052 0.08526 0.37242 0.0
Tb639 Tb 0.39709 0.16064 0.38042 0.0
Eu640 Eu 0.42907 0.2197 0.35126 0.0
C641 C 0.37864 1.065 0.3458 0.0
O642 O 0.38445 0.10148 0.32531 0.0
C643 C 0.42167 1.06607 0.37544 0.0
O644 O 0.43385 0.3083 0.38222 0.0
C645 C 0.44795 0.22521 0.31027 0.0
C646 C 0.42346 0.33824 0.39664 0.0
O647 O 0.41081 0.30963 0.39691 0.0
C648 C 0.39647 0.30074 0.34511 0.0
C649 C 0.45968 0.23081 0.28825 0.0
C650 C 0.45772 0.21594 0.25858 0.0
C651 C 0.46892 0.22724 0.23839 0.0
C652 C 0.48191 0.25562 0.24904 0.0
C653 C 0.48435 0.26728 0.27837 0.0
C654 C 0.47315 0.25486 0.29754 0.0
O655 O 0.41023 0.0827 0.361 0.0
O656 O 0.43142 0.11565 0.37699 0.0
O657 O 0.39453 0.15706 0.42687 0.0
O658 O 0.41477 0.18387 0.40941 0.0
C659 C 0.40774 0.17411 0.43278 0.0
O660 O 0.41026 0.2931 0.33833 0.0
O661 O 0.38946 0.255 0.36052 0.0
O662 O 0.45031 0.245 0.33681 0.0
O663 O 0.43507 0.19957 0.30579 0.0
H664 H 0.44755 0.19561 0.25142 0.0
H665 H 0.49045 0.2686 0.23459 0.0
H666 H 0.47489 0.26597 0.31999 0.0
O667 O 0.37504 0.75234 0.36904 0.0
Tb668 Tb 0.36223 0.6809 0.3939 0.0
Eu669 Eu 0.33915 0.68067 0.35532 0.0
C670 C 0.37063 0.7747 0.34401 0.0
O671 O 0.36014 0.74259 0.33111 0.0
C672 C 0.35105 0.82206 0.39686 0.0
O673 O 0.32731 0.59537 0.37959 0.0
C674 C 0.32197 0.70531 0.31159 0.0
C675 C 0.3342 0.54542 0.39285 0.0
O676 O 0.34804 0.54854 0.39571 0.0
C677 C 0.36735 0.5666 0.35199 0.0
C678 C 0.31143 0.67645 0.2901 0.0
C679 C 0.31239 0.6922 0.26041 0.0
C680 C 0.30136 0.67305 0.24078 0.0
C681 C 0.28944 0.63687 0.25187 0.0
C682 C 0.28794 0.62289 0.28128 0.0
C683 C 0.29914 0.64162 0.29992 0.0
O684 O 0.36249 0.78751 0.40365 0.0
O685 O 0.34103 0.79101 0.38024 0.0
O686 O 0.36138 0.65677 0.43874 0.0
O687 O 0.34178 0.67719 0.41502 0.0
C688 C 0.34733 0.66341 0.44027 0.0
O689 O 0.35538 0.59275 0.34033 0.0
O690 O 0.37253 0.59369 0.37542 0.0
O691 O 0.31815 0.70503 0.33856 0.0
O692 O 0.33575 0.6952 0.30856 0.0
H693 H 0.32142 0.72187 0.25292 0.0
H694 H 0.28095 0.62078 0.23764 0.0
H695 H 0.29811 0.63024 0.32247 0.0
O696 O 0.60536 0.87441 0.06412 0.0
Tb697 Tb 0.62302 0.90275 0.09182 0.0
Eu698 Eu 0.59154 0.96221 0.10214 0.0
C699 C 0.60074 0.81067 0.06074 0.0
O700 O 0.58897 0.79956 1.04612 0.0
C701 C 0.6061 0.82582 0.13927 0.0
O702 O 0.58427 1.04173 0.13427 0.0
C703 C 0.57225 0.94899 0.061 0.0
C704 C 0.59351 1.06007 0.15413 0.0
O705 O 0.60509 1.02268 0.15728 0.0
C706 C 0.62055 1.06309 0.10039 0.0
C707 C 0.56095 0.97377 1.0402 0.0
C708 C 0.56209 0.9602 1.01021 0.0
C709 C 0.55079 0.97662 0.99083 0.0
C710 C 0.53856 1.00894 1.00239 0.0
C711 C 0.53681 1.01989 1.03194 0.0
C712 C 0.54813 1.00266 1.05055 0.0
O713 O 0.61888 0.8448 0.13061 0.0
O714 O 0.59451 0.85887 0.1292 0.0
O715 O 0.64055 0.91918 0.06195 0.0
O716 O 0.64142 0.8355 0.08987 0.0
C717 C 0.64888 0.87078 0.07152 0.0
O718 O 0.60676 1.05626 0.09403 0.0
O719 O 0.62802 1.00764 0.1064 0.0
O720 O 0.56939 0.94783 0.08854 0.0
O721 O 0.58585 0.9593 0.05593 0.0
H722 H 0.57151 0.93439 1.00227 0.0
H723 H 0.52996 1.02423 0.98836 0.0
H724 H 0.54684 1.01116 0.0733 0.0
O725 O 0.63273 0.55101 0.12359 0.0
Tb726 Tb 0.65074 0.48579 0.13419 0.0
Eu727 Eu 0.68271 0.42977 0.10536 0.0
C728 C 0.63253 0.57305 0.09703 0.0
O729 O 0.64191 0.54759 0.07906 0.0
C730 C 0.67562 0.57983 0.13403 0.0
O731 O 0.69421 0.34107 0.12568 0.0
C732 C 0.69772 0.45149 0.05868 0.0
C733 C 0.69667 0.33534 0.15318 0.0
O734 O 0.69395 0.38755 0.17023 0.0
C735 C 0.65112 0.33563 0.10686 0.0
C736 C 0.7079 0.41912 1.03745 0.0
C737 C 0.70657 0.43028 1.00745 0.0
C738 C 0.71729 0.40782 0.98784 0.0
C739 C 0.72936 0.37345 0.99962 0.0
C740 C 0.7314 0.36551 1.02932 0.0
C741 C 0.72039 0.38661 1.04774 0.0
O742 O 0.664 0.56932 0.11911 0.0
O743 O 0.6843 0.52614 0.13587 0.0
O744 O 0.64825 0.50231 0.17992 0.0
O745 O 0.66642 0.44676 0.16473 0.0
C746 C 0.66019 0.47223 0.18716 0.0
O747 O 0.66524 0.34159 0.10237 0.0
O748 O 0.64342 0.3884 0.11581 0.0
O749 O 0.70252 0.45729 0.08496 0.0
O750 O 0.68388 0.43884 0.05789 0.0
H751 H 0.69745 0.45889 0.99974 0.0
H752 H 0.73762 0.35385 0.98587 0.0
H753 H 0.72179 0.37916 0.07051 0.0
O754 O 0.6068 0.52298 0.28917 0.0
Tb755 Tb 0.62417 0.49525 0.26092 0.0
Eu756 Eu 0.59269 0.43519 0.25183 0.0
C757 C 0.60212 0.58649 0.29267 0.0
O758 O 0.59051 0.59702 0.30767 0.0
C759 C 0.60668 0.57188 0.21412 0.0
O760 O 0.58487 0.3558 0.22002 0.0
C761 C 0.57416 0.4475 0.29411 0.0
C762 C 0.5938 0.33769 0.19973 0.0
O763 O 0.60532 0.37531 0.19607 0.0
C764 C 0.62168 0.33481 0.25232 0.0
C765 C 0.56314 0.42016 0.31478 0.0
C766 C 0.56413 0.43402 0.34476 0.0
C767 C 0.55297 0.4153 0.36399 0.0
C768 C 0.54092 0.38105 0.35209 0.0
C769 C 0.53938 0.36924 0.32244 0.0
C770 C 0.55066 0.38815 0.3042 0.0
O771 O 0.61958 0.55314 0.22226 0.0
O772 O 0.59525 0.53862 0.2247 0.0
O773 O 0.64206 0.47926 0.29021 0.0
O774 O 0.64252 0.56327 0.26243 0.0
C775 C 0.65023 0.52811 0.28046 0.0
O776 O 0.60797 0.3413 0.25908 0.0
O777 O 0.62909 0.39047 0.24622 0.0
O778 O 0.5709 0.45101 0.26674 0.0
O779 O 0.5878 0.43586 0.29836 0.0
H780 H 0.57335 0.46176 0.35281 0.0
H781 H 0.53236 0.36454 0.36588 0.0
H782 H 0.54961 0.37867 0.28145 0.0
O783 O 0.63307 0.84709 0.22846 0.0
Tb784 Tb 0.651 0.91242 0.21739 0.0
Eu785 Eu 0.68302 0.96637 0.24597 0.0
C786 C 0.63312 0.8256 0.25511 0.0
O787 O 0.64267 0.85168 0.27275 0.0
C788 C 0.67569 0.81717 0.21656 0.0
O789 O 0.69464 1.05537 0.22612 0.0
C790 C 0.6979 0.94269 0.2928 0.0
C791 C 0.697 1.06155 0.19864 0.0
O792 O 0.69421 1.0095 0.18148 0.0
C793 C 0.65179 1.06197 0.24506 0.0
C794 C 0.70794 0.97347 0.31485 0.0
C795 C 0.7063 0.96041 0.34462 0.0
C796 C 0.71702 0.98015 0.36483 0.0
C797 C 0.72934 1.01403 0.35423 0.0
C798 C 0.73159 1.02471 0.32481 0.0
C799 C 0.72065 1.0059 0.30557 0.0
O800 O 0.6641 0.82726 0.23145 0.0
O801 O 0.68443 0.87082 0.21502 0.0
O802 O 0.64794 0.89853 0.17161 0.0
O803 O 0.66657 0.95135 0.18679 0.0
C804 C 0.65996 0.92787 0.16431 0.0
O805 O 0.66593 1.05569 0.24912 0.0
O806 O 0.64392 1.00928 0.23638 0.0
O807 O 0.70283 0.93915 0.26661 0.0
O808 O 0.68403 0.95448 0.29335 0.0
H809 H 0.697 0.93218 0.35175 0.0
H810 H 0.73742 1.03258 0.36892 0.0
H811 H 0.72243 1.01318 0.28292 0.0
O812 O 0.39511 0.23235 0.97686 0.0
Tb813 Tb 0.41085 0.16275 0.95757 0.0
Eu814 Eu 0.42737 0.17995 1.00155 0.0
C815 C 0.39665 0.26242 1.00214 0.0
O816 O 0.4054 0.23582 1.02098 0.0
C817 C 0.41806 0.30984 0.95396 0.0
O818 O 0.43066 0.0804 0.97686 0.0
C819 C 0.44691 0.19324 1.04179 0.0
C820 C 0.44232 1.05105 0.96706 0.0
O821 O 0.45469 0.08275 0.96865 0.0
C822 C 0.40117 1.0608 1.00081 0.0
C823 C 0.45729 0.165 0.06377 0.0
C824 C 0.45596 0.17919 0.09368 0.0
C825 C 0.46683 0.15963 0.1136 0.0
C826 C 0.47883 0.12404 0.10257 0.0
C827 C 0.48091 0.11374 0.07312 0.0
C828 C 0.46996 0.13307 0.05412 0.0
O829 O 0.40876 0.26596 0.94394 0.0
O830 O 0.42647 0.28868 0.97577 0.0
O831 O 0.41162 0.13378 0.91314 0.0
O832 O 0.43097 0.16651 0.93484 0.0
C833 C 0.42532 0.14816 0.91013 0.0
O834 O 0.40938 0.10172 1.01738 0.0
O835 O 0.40089 1.07165 0.97331 0.0
O836 O 0.4496 0.18185 1.01453 0.0
O837 O 0.43314 0.19875 1.04707 0.0
H838 H 0.44679 0.20778 0.10113 0.0
H839 H 0.48706 0.106 0.11689 0.0
H840 H 0.47152 0.12447 1.03146 0.0
O841 O 0.38674 0.5889 0.97962 0.0
Tb842 Tb 0.36983 0.66474 0.97965 0.0
Eu843 Eu 0.33756 0.71169 1.00303 0.0
C844 C 0.3897 0.55775 1.00392 0.0
O845 O 0.38596 0.58789 1.02793 0.0
C846 C 0.34658 0.55899 0.97868 0.0
O847 O 0.33096 0.78909 0.96953 0.0
C848 C 0.31926 0.70485 1.04526 0.0
C849 C 0.3266 0.8515 0.9762 0.0
O850 O 0.3233 0.86578 1.00284 0.0
C851 C 0.36851 0.80486 1.01124 0.0
C852 C 0.30942 0.73679 0.06707 0.0
C853 C 0.31077 0.72284 0.09683 0.0
C854 C 0.30011 0.7439 0.11674 0.0
C855 C 0.28803 0.77938 0.10572 0.0
C856 C 0.28614 0.79121 0.07617 0.0
C857 C 0.29712 0.77159 0.05743 0.0
O858 O 0.35809 0.57455 0.99322 0.0
O859 O 0.33688 0.60822 0.97678 0.0
O860 O 0.37205 0.68332 0.93383 0.0
O861 O 0.35208 0.70127 0.95361 0.0
C862 C 0.35886 0.70276 0.92954 0.0
O863 O 0.35427 0.80093 1.00965 0.0
O864 O 0.37656 0.75068 1.00613 0.0
O865 O 0.31582 0.71169 1.0181 0.0
O866 O 0.33317 0.70041 1.04946 0.0
H867 H 0.3198 0.69294 0.10416 0.0
H868 H 0.27974 0.79657 0.12003 0.0
H869 H 0.29581 0.78172 1.03482 0.0
O870 O 0.40851 0.60904 0.81419 0.0
Tb871 Tb 0.39404 0.64962 0.84629 0.0
Eu872 Eu 0.42728 0.70838 0.85051 0.0
C873 C 0.40707 0.55091 0.79949 0.0
O874 O 0.41669 0.53736 0.77991 0.0
C875 C 0.41429 0.57576 0.89009 0.0
O876 O 0.43783 0.78257 0.88133 0.0
C877 C 0.44455 0.69056 0.80673 0.0
C878 C 0.43088 0.79889 0.90475 0.0
O879 O 0.41891 0.76614 0.91022 0.0
C880 C 0.39896 0.8134 0.85169 0.0
C881 C 0.45523 0.72083 0.78608 0.0
C882 C 0.45421 0.70906 0.756 0.0
C883 C 0.46536 0.72936 0.73702 0.0
C884 C 0.47744 0.76267 0.74924 0.0
C885 C 0.47903 0.77208 0.77899 0.0
C886 C 0.46774 0.75229 0.79695 0.0
O887 O 0.40111 0.59564 0.88456 0.0
O888 O 0.42534 0.60709 0.87767 0.0
O889 O 0.37476 0.65764 0.82012 0.0
O890 O 0.37473 0.59175 0.85526 0.0
C891 C 0.36652 0.61973 0.83603 0.0
O892 O 0.4127 0.80494 0.84558 0.0
O893 O 0.39081 0.75935 0.85706 0.0
O894 O 0.44836 0.68797 0.83378 0.0
O895 O 0.43072 0.70057 0.80354 0.0
H896 H 0.44503 0.68154 0.74769 0.0
H897 H 0.486 0.78015 0.73564 0.0
H898 H 0.46889 0.76025 0.81978 0.0
O899 O 0.36027 0.29273 0.82159 0.0
Tb900 Tb 0.37552 0.25523 0.85295 0.0
Eu901 Eu 0.34204 0.19113 0.85579 0.0
C902 C 0.36125 0.34856 0.80546 0.0
O903 O 0.35086 0.35978 0.78714 0.0
C904 C 0.35442 0.3266 0.89642 0.0
O905 O 0.33275 0.1134 0.88662 0.0
C906 C 0.32313 0.21006 0.81455 0.0
C907 C 0.34108 0.08405 0.90572 0.0
O908 O 0.35444 0.10388 0.90791 0.0
C909 C 0.3711 0.09244 0.85445 0.0
C910 C 0.31238 0.1827 0.79295 0.0
C911 C 0.31383 0.19531 0.76304 0.0
C912 C 0.30279 0.17734 0.74321 0.0
C913 C 0.29041 0.14493 0.75429 0.0
C914 C 0.2883 0.13508 0.78379 0.0
C915 C 0.29944 0.1533 0.80274 0.0
O916 O 0.36787 0.31532 0.88925 0.0
O917 O 0.34376 0.28918 0.88525 0.0
O918 O 0.39328 0.25118 0.82289 0.0
O919 O 0.39591 0.30548 0.86142 0.0
C920 C 0.40257 0.28372 0.83872 0.0
O921 O 0.3577 0.10107 0.84566 0.0
O922 O 0.37838 0.1458 0.8644 0.0
O923 O 0.3201 0.20313 0.8418 0.0
O924 O 0.33698 0.20841 0.80978 0.0
H925 H 0.32328 0.22166 0.75549 0.0
H926 H 0.28199 0.12875 0.73992 0.0
H927 H 0.29785 0.14551 0.82542 0.0
C928 C 0.06309 0.45204 0.91507 0.0
C929 C 0.05048 0.4449 0.89855 0.0
H930 H 0.07255 0.47267 0.95637 0.0
C931 C 0.03747 0.45456 0.9132 0.0
H932 H 0.0734 0.44524 0.90512 0.0
C933 C 0.03695 0.46715 0.94274 0.0
C934 C 0.04943 0.47476 0.95951 0.0
H935 H 0.02738 0.45262 0.90196 0.0
H936 H 0.02648 0.46985 0.95222 0.0
C937 C 0.06257 0.46696 0.9449 0.0
C938 C 0.22883 0.96982 0.94342 0.0
C939 C 0.21613 0.95491 0.95835 0.0
H940 H 0.23946 0.98697 0.9044 0.0
C941 C 0.20338 0.95619 0.94194 0.0
H942 H 0.23898 0.97306 0.95441 0.0
C943 C 0.20353 0.97069 0.91203 0.0
C944 C 0.21645 0.98349 0.89716 0.0
H945 H 0.19326 0.94522 0.95202 0.0
H946 H 0.19345 0.97195 0.9007 0.0
C947 C 0.22904 0.98109 0.91386 0.0
C948 C 0.04121 0.94334 0.445 0.0
C949 C 0.05425 0.95565 0.4594 0.0
H950 H 0.02993 0.92725 0.40626 0.0
C951 C 0.06674 0.95147 0.44256 0.0
H952 H 0.03122 0.94289 0.45653 0.0
C953 C 0.06605 0.93744 0.41263 0.0
C954 C 0.05283 0.9276 0.39819 0.0
H955 H 0.07708 0.96017 0.45234 0.0
H956 H 0.07596 0.93428 0.40093 0.0
C957 C 0.04049 0.93169 0.4154 0.0
C958 C 0.23065 0.42537 0.44049 0.0
C959 C 0.21809 0.42659 0.45714 0.0
H960 H 0.24051 0.43071 0.3998 0.0
C961 C 0.20524 0.44081 0.44209 0.0
H962 H 0.24103 0.41765 0.44999 0.0
C963 C 0.20514 0.45413 0.41215 0.0
C964 C 0.21784 0.45274 0.39589 0.0
H965 H 0.19517 0.44188 0.45328 0.0
H966 H 0.1951 0.46668 0.40192 0.0
C967 C 0.23045 0.43577 0.41086 0.0
C968 C 0.97683 0.70924 0.16104 0.0
C969 C 0.96387 0.69806 0.14621 0.0
H970 H 0.98783 0.72501 0.20016 0.0
C971 C 0.95126 0.70344 0.16265 0.0
H972 H 0.98692 0.70882 0.14988 0.0
C973 C 0.95174 0.71783 0.19256 0.0
C974 C 0.96487 0.72685 0.20739 0.0
H975 H 0.94097 0.69553 0.15257 0.0
H976 H 0.94175 0.72204 0.20391 0.0
C977 C 0.97734 0.72127 0.19064 0.0
C978 C 0.8147 0.19331 0.1939 0.0
C979 C 0.80186 0.18636 0.2095 0.0
H980 H 0.82476 0.21294 0.15325 0.0
C981 C 0.78907 0.19502 0.19384 0.0
H982 H 0.82487 0.1872 0.20463 0.0
C983 C 0.78899 0.20664 0.16426 0.0
C984 C 0.8017 0.21426 0.14842 0.0
H985 H 0.77881 0.19315 0.20431 0.0
H986 H 0.77866 0.20868 0.15397 0.0
C987 C 0.81463 0.20726 0.16401 0.0
C988 C 0.95532 0.20545 0.68965 0.0
C989 C 0.96804 0.21296 0.70582 0.0
H990 H 0.94559 0.18433 0.64861 0.0
C991 C 0.98095 0.20358 0.69082 0.0
H992 H 0.94507 0.21209 0.69988 0.0
C993 C 0.98127 0.19076 0.6613 0.0
C994 C 0.96868 0.18262 0.6449 0.0
H995 H 0.99112 0.20584 0.70177 0.0
H996 H 0.99168 0.18815 0.65149 0.0
C997 C 0.95563 0.19033 0.65983 0.0
C998 C 0.81423 0.68906 0.69198 0.0
C999 C 0.8016 0.67629 0.70775 0.0
H1000 H 0.82374 0.71617 0.65149 0.0
C1001 C 0.78865 0.68145 0.6923 0.0
H1002 H 0.82452 0.68586 0.70243 0.0
C1003 C 0.78826 0.69498 0.66289 0.0
C1004 C 0.80071 0.70923 0.647 0.0
H1005 H 0.77846 0.67566 0.70272 0.0
H1006 H 0.77787 0.69359 0.65283 0.0
C1007 C 0.81378 0.70564 0.66229 0.0
C1008 C 0.56583 0.44139 0.41235 0.0
C1009 C 0.55315 0.43346 0.39605 0.0
H1010 H 0.57551 0.46303 0.45344 0.0
C1011 C 0.54022 0.44207 0.41111 0.0
H1012 H 0.57611 0.43524 0.4022 0.0
C1013 C 0.53986 0.45509 0.44067 0.0
C1014 C 0.55242 0.464 0.45712 0.0
H1015 H 0.53005 0.43939 0.40019 0.0
H1016 H 0.52945 0.4574 0.45047 0.0
C1017 C 0.56548 0.45657 0.4422 0.0
C1018 C 0.72845 0.94148 0.44241 0.0
C1019 C 0.71551 0.93418 0.45752 0.0
H1020 H 0.73912 0.95542 0.40288 0.0
C1021 C 0.70279 0.94212 0.44143 0.0
H1022 H 0.73862 0.93853 0.45327 0.0
C1023 C 0.7031 0.95647 0.41164 0.0
C1024 C 0.71614 0.96292 0.39669 0.0
H1025 H 0.69253 0.93672 0.45171 0.0
H1026 H 0.69307 0.96321 0.40047 0.0
C1027 C 0.72874 0.95371 0.41288 0.0
C1028 C 0.53795 0.94535 0.94433 0.0
C1029 C 0.55092 0.95794 0.95893 0.0
H1030 H 0.52688 0.92841 0.9054 0.0
C1031 C 0.56349 0.95403 0.9423 0.0
H1032 H 0.52791 0.94456 0.95564 0.0
C1033 C 0.56296 0.93944 0.91243 0.0
C1034 C 0.54982 0.92883 0.89788 0.0
H1035 H 0.57378 0.96312 0.95221 0.0
H1036 H 0.57292 0.93624 0.90088 0.0
C1037 C 0.53738 0.93326 0.91477 0.0
C1038 C 0.72893 0.43233 0.90918 0.0
C1039 C 0.71639 0.45152 0.89444 0.0
H1040 H 0.73949 0.41129 0.94802 0.0
C1041 C 0.70374 0.45398 0.91086 0.0
H1042 H 0.73893 0.42623 0.89802 0.0
C1043 C 0.70383 0.43936 0.94071 0.0
C1044 C 0.71662 0.42277 0.95552 0.0
H1045 H 0.69375 0.46824 0.90086 0.0
H1046 H 0.69379 0.44124 0.952 0.0
C1047 C 0.72914 0.42072 0.93873 0.0
C1048 C 0.45271 0.6938 0.65864 0.0
C1049 C 0.46575 0.6871 0.64361 0.0
H1050 H 0.44216 0.71278 0.69888 0.0
C1051 C 0.47835 0.69445 0.66003 0.0
H1052 H 0.44266 0.68834 0.6474 0.0
C1053 C 0.47805 0.70542 0.6897 0.0
C1054 C 0.46514 0.71341 0.70486 0.0
H1055 H 0.48874 0.69252 0.65012 0.0
H1056 H 0.48823 0.70703 0.70061 0.0
C1057 C 0.45242 0.70698 0.6886 0.0
C1058 C 0.31623 0.19977 0.6956 0.0
C1059 C 0.30338 0.19478 0.71129 0.0
H1060 H 0.32635 0.21797 0.65495 0.0
C1061 C 0.29063 0.20544 0.69573 0.0
H1062 H 0.32637 0.19209 0.70625 0.0
C1063 C 0.29057 0.21694 0.66615 0.0
C1064 C 0.3033 0.22262 0.65024 0.0
H1065 H 0.28038 0.2053 0.70626 0.0
H1066 H 0.28024 0.22041 0.65596 0.0
C1067 C 0.3162 0.21378 0.66574 0.0
C1068 C 0.45453 0.20476 0.19134 0.0
C1069 C 0.46767 0.20931 0.20643 0.0
H1070 H 0.44372 0.18503 0.15118 0.0
C1071 C 0.48011 0.19748 0.19018 0.0
H1072 H 0.44458 0.21355 0.2024 0.0
C1073 C 0.47963 0.18533 0.16069 0.0
C1074 C 0.46665 0.17874 0.14549 0.0
H1075 H 0.49055 0.19683 0.19999 0.0
H1076 H 0.4898 0.1815 0.14999 0.0
C1077 C 0.45403 0.18926 0.16152 0.0
C1078 C 0.31392 0.71656 0.16352 0.0
C1079 C 0.30088 0.72592 0.14861 0.0
H1080 H 0.32449 0.69246 0.20335 0.0
C1081 C 0.28828 0.71825 0.16478 0.0
H1082 H 0.32397 0.72228 0.15244 0.0
C1083 C 0.28861 0.7038 0.19418 0.0
C1084 C 0.30153 0.69304 0.20913 0.0
H1085 H 0.27789 0.72246 0.15487 0.0
H1086 H 0.27847 0.7015 0.2051 0.0
C1087 C 0.31424 0.70026 0.19314 0.0
C1088 C 0.11863 0.24176 0.06595 0.0
C1089 C 0.10477 0.25602 0.07513 0.0
H1090 H 0.13633 0.17258 0.06773 0.0
C1091 C 0.09787 0.20975 0.09361 0.0
H1092 H 0.12389 0.27535 1.05081 0.0
C1093 C 0.10504 0.15131 0.10376 0.0
C1094 C 0.11891 0.13697 0.09431 0.0
H1095 H 0.08701 0.21926 0.10038 0.0
H1096 H 0.09966 0.11657 0.11826 0.0
C1097 C 0.12562 0.18263 0.07534 0.0
C1098 C 0.0992 0.20271 0.26058 0.0
C1099 C 0.10588 0.15724 0.27975 0.0
H1100 H 0.10124 0.29526 0.23559 0.0
C1101 C 0.11953 0.17277 0.29006 0.0
H1102 H 0.08847 0.19239 0.25302 0.0
C1103 C 0.12657 0.23209 0.28096 0.0
C1104 C 0.12012 0.27681 0.26118 0.0
H1105 H 0.12461 0.13984 0.30573 0.0
H1106 H 0.13713 0.24284 0.28937 0.0
C1107 C 0.10644 0.26133 0.25072 0.0
C1108 C 0.87633 0.97504 1.02569 0.0
C1109 C 0.87184 1.00223 0.05207 0.0
H1110 H 0.89065 0.90573 1.00386 0.0
C1111 C 0.87798 0.97584 0.07716 0.0
H1112 H 0.87142 0.99279 1.0062 0.0
C1113 C 0.88852 0.92505 0.07601 0.0
C1114 C 0.89316 0.89784 1.04974 0.0
H1115 H 0.87458 0.9946 0.09789 0.0
H1116 H 0.8931 0.90698 0.09591 0.0
C1117 C 0.88702 0.92381 1.02446 0.0
C1118 C 0.87086 0.8731 0.82505 0.0
C1119 C 0.87503 0.83487 0.84923 0.0
H1120 H 0.86853 0.97352 0.80633 0.0
C1121 C 0.8803 0.87046 0.87318 0.0
H1122 H 0.86675 0.8474 0.80614 0.0
C1123 C 0.88004 0.94218 0.8741 0.0
C1124 C 0.8759 0.98064 0.8502 0.0
H1125 H 0.88385 0.84295 0.89198 0.0
H1126 H 0.88311 0.96747 0.89367 0.0
C1127 C 0.87158 0.94533 0.82534 0.0
C1128 C 0.13248 0.63166 0.55285 0.0
C1129 C 0.14706 0.64716 0.55395 0.0
H1130 H 0.11098 0.6697 0.55359 0.0
C1131 C 0.1511 0.71706 0.55488 0.0
H1132 H 0.12909 0.57981 0.54806 0.0
C1133 C 0.14076 0.76944 0.55505 0.0
C1134 C 0.12618 0.7538 0.55618 0.0
H1135 H 0.16226 0.73136 0.55355 0.0
H1136 H 0.14409 0.82173 0.55156 0.0
C1137 C 0.12216 0.68386 0.55492 0.0
C1138 C 0.14171 0.70616 0.73182 0.0
C1139 C 0.1449 0.66818 0.75646 0.0
H1140 H 0.13852 0.80499 0.71321 0.0
C1141 C 0.14849 0.70398 0.78168 0.0
H1142 H 0.13925 0.68057 0.71193 0.0
C1143 C 0.14921 0.77618 0.78187 0.0
C1144 C 0.14577 0.81398 0.75716 0.0
H1145 H 0.15084 0.6762 0.80118 0.0
H1146 H 0.15262 0.80224 0.80124 0.0
C1147 C 0.14144 0.7779 0.73255 0.0
C1148 C 0.89822 0.41421 0.54082 0.0
C1149 C 0.91198 0.4012 0.53076 0.0
H1150 H 0.88019 0.48151 0.54004 0.0
C1151 C 0.91838 0.44801 0.51181 0.0
H1152 H 0.89332 0.38008 0.55624 0.0
C1153 C 0.91079 0.50557 0.50201 0.0
C1154 C 0.89701 0.51865 0.51228 0.0
H1155 H 0.92917 0.43954 0.50436 0.0
H1156 H 0.91579 0.54058 0.48706 0.0
C1157 C 0.89082 0.47257 0.5318 0.0
C1158 C 0.90967 0.39649 0.35374 0.0
C1159 C 0.89618 0.38136 0.34217 0.0
H1160 H 0.92779 0.46475 0.35286 0.0
C1161 C 0.8903 0.42579 0.32157 0.0
H1162 H 0.91446 0.36283 0.36951 0.0
C1163 C 0.89765 0.48464 0.31292 0.0
C1164 C 0.91104 0.50004 0.32452 0.0
H1165 H 0.8799 0.4155 0.31228 0.0
H1166 H 0.89296 0.51762 0.29679 0.0
C1167 C 0.91722 0.45464 0.34435 0.0
C1168 C 0.62722 0.2291 0.5277 0.0
C1169 C 0.62236 0.25592 0.55387 0.0
H1170 H 0.64143 0.16039 0.50609 0.0
C1171 C 0.62838 0.23002 0.57927 0.0
H1172 H 0.62271 0.24708 0.5077 0.0
C1173 C 0.63919 0.17932 0.57826 0.0
C1174 C 0.64391 0.15254 0.55197 0.0
H1175 H 0.62459 0.24778 0.5998 0.0
H1176 H 0.644 0.16164 0.59787 0.0
C1177 C 0.63787 0.17883 0.52676 0.0
C1178 C 0.64494 0.28053 0.77731 0.0
C1179 C 0.64074 0.31872 0.75313 0.0
H1180 H 0.64735 0.18016 0.79602 0.0
C1181 C 0.63546 0.28309 0.72922 0.0
H1182 H 0.64907 0.30626 0.7962 0.0
C1183 C 0.63574 0.21136 0.7283 0.0
C1184 C 0.63994 0.17293 0.75218 0.0
H1185 H 0.63189 0.31058 0.71042 0.0
H1186 H 0.63269 0.18603 0.70873 0.0
C1187 C 0.64427 0.2083 0.77702 0.0
C1188 C 0.37551 0.97251 0.52206 0.0
C1189 C 0.37085 1.00074 0.54819 0.0
H1190 H 0.39087 0.90728 0.5009 0.0
C1191 C 0.37745 0.97842 0.57349 0.0
H1192 H 0.37033 0.98698 0.50225 0.0
C1193 C 0.38864 0.93085 0.5728 0.0
C1194 C 0.39353 0.90311 0.54681 0.0
H1195 H 0.37391 0.99786 0.59402 0.0
H1196 H 0.39351 0.91567 0.59285 0.0
C1197 C 0.38699 0.92533 0.52133 0.0
C1198 C 0.38845 0.94726 0.34317 0.0
C1199 C 0.37662 0.99112 0.34076 0.0
H1200 H 0.3958 0.84311 0.34636 0.0
C1201 C 0.36315 0.96332 0.3348 0.0
H1202 H 0.39901 0.96784 0.34682 0.0
C1203 C 0.36145 0.89178 0.3329 0.0
C1204 C 0.37314 0.84774 0.3378 0.0
H1205 H 0.35394 0.99653 0.33264 0.0
H1206 H 0.35082 0.87094 0.32979 0.0
C1207 C 0.38669 0.87604 0.34235 0.0
C1208 C 0.60291 0.70525 0.09103 0.0
C1209 C 0.60889 0.75156 0.07136 0.0
H1210 H 0.60602 0.61309 0.11576 0.0
C1211 C 0.62232 0.73785 0.05981 0.0
H1212 H 0.59236 0.7143 0.0996 0.0
C1213 C 0.62986 0.6794 0.06817 0.0
C1214 C 0.62415 0.63385 0.08849 0.0
H1215 H 0.62689 0.77186 1.04394 0.0
H1216 H 0.64027 0.6703 0.0589 0.0
C1217 C 0.61066 0.64754 0.10014 0.0
C1218 C 0.60374 0.6921 0.26236 0.0
C1219 C 0.61005 0.64602 0.28173 0.0
H1220 H 0.60639 0.78444 0.23752 0.0
C1221 C 0.62362 0.66036 0.29272 0.0
H1222 H 0.59307 0.68258 0.25423 0.0
C1223 C 0.63097 0.71917 0.28406 0.0
C1224 C 0.62492 0.76445 0.26399 0.0
H1225 H 0.62846 0.62657 0.30839 0.0
H1226 H 0.64149 0.72876 0.29288 0.0
C1227 C 0.61129 0.75018 0.25293 0.0
C1228 C 0.39717 0.37521 1.0289 0.0
C1229 C 0.39297 0.33649 1.00475 0.0
H1230 H 0.39945 0.47595 1.04766 0.0
C1231 C 0.38758 0.37154 0.9809 0.0
H1232 H 0.40138 0.34994 1.04774 0.0
C1233 C 0.38776 0.44327 0.98001 0.0
C1234 C 0.39194 0.48222 1.00389 0.0
H1235 H 0.38401 0.34363 0.96212 0.0
H1236 H 0.38462 0.46818 0.96049 0.0
C1237 C 0.39637 0.4474 1.02867 0.0
C1238 C 0.39055 0.4753 0.82888 0.0
C1239 C 0.39486 0.50212 0.80239 0.0
H1240 H 0.37641 0.40596 0.85111 0.0
C1241 C 0.3886 0.47503 0.77746 0.0
H1242 H 0.39556 0.49363 0.84824 0.0
C1243 C 0.37809 0.42393 0.7789 0.0
C1244 C 0.37362 0.39712 0.8053 0.0
H1245 H 0.39185 0.4935 0.75663 0.0
H1246 H 0.37339 0.40532 0.75912 0.0
C1247 C 0.3799 0.42375 0.83041 0.0
C1248 C 0.08908 0.23491 0.16926 0.0
C1249 C 0.10182 0.26794 0.16016 0.0
H1250 H 0.07926 0.15088 0.19287 0.0
C1251 C 0.11466 0.23568 0.16888 0.0
H1252 H 0.07887 0.25643 0.16313 0.0
C1253 C 0.11488 0.17481 0.18554 0.0
C1254 C 0.10227 0.14149 0.19486 0.0
H1255 H 0.12484 0.25732 0.16262 0.0
H1256 H 0.12521 0.15408 0.19135 0.0
C1257 C 0.0893 0.17329 0.18628 0.0
C1258 C 0.15821 0.18045 0.16503 0.0
C1259 C 0.17089 0.15018 0.15451 0.0
H1260 H 0.14821 0.25274 0.19346 0.0
C1261 C 0.18383 0.17634 0.16612 0.0
H1262 H 0.14795 0.16272 0.15721 0.0
C1263 C 0.18399 0.23061 0.18698 0.0
C1264 C 0.17121 0.25955 0.19782 0.0
H1265 H 0.19388 0.15512 0.15897 0.0
H1266 H 0.19416 0.24932 0.19487 0.0
C1267 C 0.15836 0.23258 0.18632 0.0
C1268 C 0.90608 0.9385 0.93574 0.0
C1269 C 0.91616 0.88501 0.93878 0.0
H1270 H 0.90016 1.03399 0.91579 0.0
C1271 C 0.92873 0.89104 0.92214 0.0
H1272 H 0.89645 0.93806 0.94842 0.0
C1273 C 0.93072 0.94665 0.9025 0.0
C1274 C 0.92025 0.99845 0.89891 0.0
H1275 H 0.93692 0.85196 0.9238 0.0
H1276 H 0.94031 0.94816 0.88968 0.0
C1277 C 0.90815 0.99385 0.91663 0.0
C1278 C 0.83894 0.99065 0.92938 0.0
C1279 C 0.85113 1.00898 0.94593 0.0
H1280 H 0.82888 0.91562 0.9009 0.0
C1281 C 0.86244 0.96139 0.94584 0.0
H1282 H 0.82989 1.02519 0.9287 0.0
C1283 C 0.8616 0.89826 0.93118 0.0
C1284 C 0.84978 0.87964 0.91391 0.0
H1285 H 0.87207 0.97197 0.95785 0.0
H1286 H 0.87057 0.86371 0.93353 0.0
C1287 C 0.83837 0.92756 0.91321 0.0
C1288 C 0.1145 0.71858 0.66964 0.0
C1289 C 0.10391 0.76908 0.66482 0.0
H1290 H 0.12084 0.62532 0.69093 0.0
C1291 C 0.09099 0.76033 0.68022 0.0
H1292 H 0.12447 0.72091 0.65809 0.0
C1293 C 0.08907 0.705 0.70009 0.0
C1294 C 0.09998 0.65619 0.70536 0.0
H1295 H 0.08241 0.79687 0.67726 0.0
H1296 H 0.07913 0.70131 0.71171 0.0
C1297 C 0.11251 0.66358 0.68904 0.0
C1298 C 0.15717 0.70055 0.65254 0.0
C1299 C 0.16769 0.64909 0.65484 0.0
H1300 H 0.14941 0.79937 0.66472 0.0
C1301 C 0.17915 0.66342 0.67398 0.0
H1302 H 0.14827 0.69352 0.63799 0.0
C1303 C 0.17977 0.72624 0.69034 0.0
C1304 C 0.16909 0.77756 0.68772 0.0
H1305 H 0.18756 0.62579 0.6766 0.0
H1306 H 0.18869 0.73485 0.70469 0.0
C1307 C 0.15791 0.76261 0.66815 0.0
C1308 C 0.92794 0.48428 0.41881 0.0
C1309 C 0.91493 0.51594 0.41038 0.0
H1310 H 0.93848 0.40123 0.44183 0.0
C1311 C 0.90236 0.48248 0.41986 0.0
H1312 H 0.93796 0.50681 0.41209 0.0
C1313 C 0.90266 0.4216 0.43649 0.0
C1314 C 0.91555 0.38945 0.44507 0.0
H1315 H 0.89201 0.50312 0.41421 0.0
H1316 H 0.89252 0.39988 0.44286 0.0
C1317 C 0.92825 0.42265 0.43583 0.0
C1318 C 0.83202 0.48373 0.44037 0.0
C1319 C 0.84479 0.51109 0.45221 0.0
H1320 H 0.8221 0.40843 0.41209 0.0
C1321 C 0.85763 0.48067 0.44257 0.0
H1322 H 0.82186 0.50486 0.44692 0.0
C1323 C 0.85779 0.42728 0.42181 0.0
C1324 C 0.8451 0.39914 0.41012 0.0
H1325 H 0.86778 0.4992 0.45066 0.0
H1326 H 0.86803 0.40697 0.41529 0.0
C1327 C 0.83216 0.42813 0.42015 0.0
C1328 C 0.58492 0.2066 0.70036 0.0
C1329 C 0.59549 0.15521 0.70387 0.0
H1330 H 0.57852 0.30111 0.67914 0.0
C1331 C 0.60754 0.16034 0.68606 0.0
H1332 H 0.57535 0.20466 0.71323 0.0
C1333 C 0.6095 0.21589 0.66699 0.0
C1334 C 0.59932 0.26899 0.66401 0.0
H1335 H 0.61558 0.12044 0.68678 0.0
H1336 H 0.61914 0.21678 0.6543 0.0
C1337 C 0.58678 0.26236 0.68072 0.0
C1338 C 0.6775 0.16173 0.67504 0.0
C1339 C 0.66529 0.14449 0.65831 0.0
H1340 H 0.68773 0.2357 0.70381 0.0
C1341 C 0.65414 0.19286 0.65836 0.0
H1342 H 0.68643 0.12649 0.67573 0.0
C1343 C 0.65516 0.2557 0.67313 0.0
C1344 C 0.66698 0.27335 0.69064 0.0
H1345 H 0.6445 0.18319 0.64623 0.0
H1346 H 0.6463 0.29085 0.6706 0.0
C1347 C 0.67823 0.2246 0.69136 0.0
C1348 C 0.4072 0.9818 0.40571 0.0
C1349 C 0.42073 1.00607 0.39699 0.0
H1350 H 0.39475 0.91205 0.43083 0.0
C1351 C 0.43264 0.97232 0.40944 0.0
H1352 H 0.39764 1.00626 0.39787 0.0
C1353 C 0.43093 0.91627 0.42914 0.0
C1354 C 0.41724 0.89188 0.43735 0.0
H1355 H 0.44331 0.98883 0.40385 0.0
H1356 H 0.44037 0.89213 0.43792 0.0
C1357 C 0.4055 0.92681 0.42515 0.0
C1358 C 0.3637 0.99467 0.42887 0.0
C1359 C 0.35164 1.02228 0.44284 0.0
H1360 H 0.37275 0.91387 0.40327 0.0
C1361 C 0.33859 0.98626 0.43848 0.0
H1362 H 0.374 1.01955 0.43114 0.0
C1363 C 0.33787 0.92409 0.4219 0.0
C1364 C 0.35019 0.89537 0.40911 0.0
H1365 H 0.32899 1.00465 0.44876 0.0
H1366 H 0.32782 0.89673 0.4204 0.0
C1367 C 0.36298 0.93322 0.4126 0.0
C1368 C 0.61815 0.72929 0.168 0.0
C1369 C 0.60535 0.76179 0.15912 0.0
H1370 H 0.62859 0.64781 0.19073 0.0
C1371 C 0.59256 0.72932 0.16837 0.0
H1372 H 0.62835 0.7505 0.1617 0.0
C1373 C 0.5927 0.668 0.18562 0.0
C1374 C 0.60563 0.63589 0.19432 0.0
H1375 H 0.58239 0.75103 0.16217 0.0
H1376 H 0.58263 0.646 0.19227 0.0
C1377 C 0.61828 0.66874 0.18488 0.0
C1378 C 0.66343 0.6714 0.16498 0.0
C1379 C 0.67621 0.64117 0.15493 0.0
H1380 H 0.65326 0.74575 0.19236 0.0
C1381 C 0.68908 0.66996 0.16568 0.0
H1382 H 0.65323 0.65159 0.15771 0.0
C1383 C 0.6891 0.72706 0.18513 0.0
C1384 C 0.67625 0.75591 0.19563 0.0
H1385 H 0.69919 0.64897 0.15872 0.0
H1386 H 0.69922 0.74796 0.1923 0.0
C1387 C 0.66345 0.72583 0.1853 0.0
C1388 C 0.40603 0.39885 0.92277 0.0
C1389 C 0.41795 0.38143 0.93993 0.0
H1390 H 0.39529 0.47138 0.89628 0.0
C1391 C 0.4292 0.4304 0.94062 0.0
H1392 H 0.39716 0.36349 0.92043 0.0
C1393 C 0.4284 0.49331 0.92455 0.0
C1394 C 0.41611 0.5104 0.90813 0.0
H1395 H 0.43875 0.41944 0.95285 0.0
H1396 H 0.43734 0.52868 0.9252 0.0
C1397 C 0.40496 0.46179 0.90822 0.0
C1398 C 0.33701 0.44832 0.95342 0.0
C1399 C 0.34745 0.50059 0.95674 0.0
H1400 H 0.33081 0.35297 0.93233 0.0
C1401 C 0.35946 0.49621 0.93882 0.0
H1402 H 0.32748 0.44971 0.96642 0.0
C1403 C 0.3615 0.4406 0.91971 0.0
C1404 C 0.35146 0.38667 0.91694 0.0
H1405 H 0.36743 0.53663 0.93952 0.0
H1406 H 0.37106 0.44028 0.90682 0.0
C1407 C 0.33896 0.39243 0.93381 0.0
C1408 C 0.16712 0.34452 0.09877 0.0
C1409 C 0.16052 0.39177 0.08032 0.0
H1410 H 0.17003 0.32217 0.14319 0.0
C1411 C 0.16242 0.46211 0.08696 0.0
H1412 H 0.16735 0.29029 0.09318 0.0
C1413 C 0.16322 0.48095 0.11587 0.0
C1414 C 0.16458 0.42926 0.1365 0.0
H1415 H 0.15918 0.50112 0.07175 0.0
H1416 H 0.161 0.53362 0.12215 0.0
C1417 C 0.1683 0.36242 0.12769 0.0
C1418 C 0.16762 0.07734 0.25632 0.0
C1419 C 0.16164 1.02941 0.27528 0.0
H1420 H 0.16878 0.10058 0.21165 0.0
C1421 C 0.1638 0.95941 0.26842 0.0
H1422 H 0.16792 0.13149 0.26206 0.0
C1423 C 0.1637 0.94078 0.23943 0.0
C1424 C 0.16403 0.99282 0.21878 0.0
H1425 H 0.16133 0.91989 0.28396 0.0
H1426 H 0.16174 0.88775 0.23329 0.0
C1427 C 0.16772 1.06007 0.22724 0.0
C1428 C 0.84138 0.78966 0.99064 0.0
C1429 C 0.84972 0.75806 1.01183 0.0
H1430 H 0.83084 0.77386 0.95066 0.0
C1431 C 0.84755 0.68738 1.01703 0.0
H1432 H 0.84238 0.84451 0.98677 0.0
C1433 C 0.84152 0.64631 0.99551 0.0
C1434 C 0.83709 0.67706 0.96994 0.0
H1435 H 0.85325 0.66174 1.03415 0.0
H1436 H 0.84273 0.5909 0.99673 0.0
C1437 C 0.83481 0.74868 0.96974 0.0
C1438 C 0.92094 0.10695 0.98834 0.0
C1439 C 0.91401 0.14797 1.00877 0.0
H1440 H 0.92446 0.09441 0.94344 0.0
C1441 C 0.91359 0.21939 1.00359 0.0
H1442 H 0.92259 1.05256 0.99233 0.0
C1443 C 0.91299 0.24188 0.97519 0.0
C1444 C 0.91564 0.19467 0.95319 0.0
H1445 H 0.9099 0.25396 1.02016 0.0
H1446 H 0.90908 0.29308 0.97041 0.0
C1447 C 0.9215 0.13024 0.9601 0.0
C1448 C 0.1811 1.02109 0.61519 0.0
C1449 C 0.18508 0.98539 0.63994 0.0
H1450 H 0.16881 1.01505 0.57682 0.0
C1451 C 0.18655 0.91339 0.6382 0.0
H1452 H 0.18048 0.07686 0.61546 0.0
C1453 C 0.17902 0.87761 0.61696 0.0
C1454 C 0.17108 0.91492 0.59683 0.0
H1455 H 0.19036 0.88447 0.65647 0.0
H1456 H 0.17731 0.82273 0.61955 0.0
C1457 C 0.17422 0.98526 0.59312 0.0
C1458 C 0.1045 0.39852 0.63514 0.0
C1459 C 0.10332 0.45004 0.65602 0.0
H1460 H 0.1052 0.37856 0.59012 0.0
C1461 C 0.0978 0.5146 0.64825 0.0
H1462 H 0.10798 0.34709 0.64073 0.0
C1463 C 0.09714 0.53251 0.61937 0.0
C1464 C 0.10313 0.48702 0.59942 0.0
H1465 H 0.09597 0.55394 0.66419 0.0
H1466 H 0.09571 0.58635 0.614 0.0
C1467 C 0.10282 0.4166 0.60636 0.0
C1468 C 0.85034 0.30764 0.50531 0.0
C1469 C 0.85702 0.26166 0.52418 0.0
H1470 H 0.84739 0.32793 0.46076 0.0
C1471 C 0.85547 0.19095 0.51789 0.0
H1472 H 0.84987 0.36203 0.51055 0.0
C1473 C 0.85485 0.17102 0.48907 0.0
C1474 C 0.85333 0.22179 0.46812 0.0
H1475 H 0.85873 0.15282 0.53344 0.0
H1476 H 0.8572 0.11832 0.48308 0.0
C1477 C 0.84932 0.28853 0.47651 0.0
C1478 C 0.85311 0.70915 0.36536 0.0
C1479 C 0.85299 0.65638 0.38569 0.0
H1480 H 0.85539 0.73209 0.32104 0.0
C1481 C 0.84967 0.58904 0.37679 0.0
H1482 H 0.85491 0.76203 0.37182 0.0
C1483 C 0.84985 0.57289 0.34759 0.0
C1484 C 0.85564 0.62221 0.32899 0.0
H1485 H 0.84872 0.54796 0.39212 0.0
H1486 H 0.8498 0.51894 0.34153 0.0
C1487 C 0.85308 0.69163 0.33626 0.0
C1488 C 0.6676 0.46695 0.58494 0.0
C1489 C 0.66549 0.39619 0.5901 0.0
H1490 H 0.67233 0.56342 0.60534 0.0
C1491 C 0.67392 0.36463 0.61115 0.0
H1492 H 0.66185 0.49253 0.56787 0.0
C1493 C 0.68044 0.40561 0.63211 0.0
C1494 C 0.6781 0.4772 0.63198 0.0
H1495 H 0.67298 0.30973 0.61497 0.0
H1496 H 0.68445 0.38041 0.65115 0.0
C1497 C 0.67358 0.50803 0.6065 0.0
C1498 C 0.59481 1.0478 0.61496 0.0
C1499 C 0.60189 1.00768 0.59443 0.0
H1500 H 0.59111 1.0587 0.65987 0.0
C1501 C 0.60228 0.93607 0.59915 0.0
H1502 H 0.59313 0.10229 0.61127 0.0
C1503 C 0.60282 0.9126 0.62742 0.0
C1504 C 0.60007 0.959 0.64965 0.0
H1505 H 0.60607 0.90217 0.58242 0.0
H1506 H 0.60676 0.86134 0.63195 0.0
C1507 C 0.59415 1.0235 0.64305 0.0
C1508 C 0.34289 0.79628 0.49118 0.0
C1509 C 0.35123 0.76317 0.51198 0.0
H1510 H 0.33387 0.78444 0.44948 0.0
C1511 C 0.34928 0.69177 0.51556 0.0
H1512 H 0.34346 0.85179 0.48884 0.0
C1513 C 0.34446 0.65283 0.49222 0.0
C1514 C 0.34068 0.68669 0.46693 0.0
H1515 H 0.35468 0.66484 0.53272 0.0
H1516 H 0.34605 0.5976 0.49223 0.0
C1517 C 0.3375 0.75735 0.46835 0.0
C1518 C 0.42007 0.08419 0.49823 0.0
C1519 C 0.41395 0.1311 0.51751 0.0
H1520 H 0.42056 1.05931 0.45355 0.0
C1521 C 0.41517 0.20124 0.51022 0.0
H1522 H 0.42124 1.0306 0.50423 0.0
C1523 C 0.41391 0.21847 0.48123 0.0
C1524 C 0.41449 0.16566 0.46076 0.0
H1525 H 0.4127 0.24061 0.52592 0.0
H1526 H 0.41109 0.27056 0.4752 0.0
C1527 C 0.41925 0.10005 0.46908 0.0
C1528 C 0.66991 0.83749 0.09749 0.0
C1529 C 0.66386 0.88659 0.07916 0.0
H1530 H 0.67128 0.81097 0.14173 0.0
C1531 C 0.66593 0.95619 0.08696 0.0
H1532 H 0.67022 0.78379 0.09108 0.0
C1533 C 0.66619 0.97273 0.11619 0.0
C1534 C 0.66652 0.91918 0.13614 0.0
H1535 H 0.66336 0.99672 0.07194 0.0
H1536 H 0.66443 1.02531 0.12309 0.0
C1537 C 0.67009 0.8526 0.12675 0.0
C1538 C 0.67088 0.56253 0.25381 0.0
C1539 C 0.66512 0.513 0.27228 0.0
H1540 H 0.67155 0.58965 0.20959 0.0
C1541 C 0.66716 0.44356 0.26428 0.0
H1542 H 0.67123 0.61617 0.26032 0.0
C1543 C 0.66705 0.42733 0.23501 0.0
C1544 C 0.66703 0.48111 0.21516 0.0
H1545 H 0.66482 0.40274 0.2793 0.0
H1546 H 0.66528 0.37472 0.2281 0.0
C1547 C 0.67063 0.54779 0.22453 0.0
C1548 C 0.42588 0.29029 0.86261 0.0
C1549 C 0.41732 0.25847 0.8417 0.0
H1550 H 0.43675 0.27492 0.90221 0.0
C1551 C 0.41939 0.18773 0.83635 0.0
H1552 H 0.42496 0.34519 0.86657 0.0
C1553 C 0.42557 0.14689 0.85762 0.0
C1554 C 0.43026 0.1779 0.88306 0.0
H1555 H 0.41351 0.16192 0.81942 0.0
H1556 H 0.42429 0.09146 0.8564 0.0
C1557 C 0.4326 0.24954 0.88325 0.0
C1558 C 0.35331 0.71884 0.85138 0.0
C1559 C 0.35279 0.64734 0.84618 0.0
H1560 H 0.35819 0.79292 0.88445 0.0
C1561 C 0.34595 0.6067 0.86678 0.0
H1562 H 0.35691 0.75318 0.8347 0.0
C1563 C 0.34571 0.63024 0.89508 0.0
C1564 C 0.35171 0.69471 0.90182 0.0
H1565 H 0.34417 0.5523 0.86281 0.0
H1566 H 0.34286 0.59461 0.91182 0.0
C1567 C 0.3542 0.74167 0.87977 0.0
C1568 C 0.99839 0.633 1.03794 0.0
C1569 C 0.99201 0.60491 0.06256 0.0
H1570 H 0.01636 0.63429 1.00965 0.0
C1571 C 0.99955 0.55294 0.07721 0.0
H1572 H 0.99314 0.674 1.02631 0.0
C1573 C 0.01297 0.53006 0.06762 0.0
C1574 C 0.01938 0.55832 1.04305 0.0
H1575 H 0.99502 0.52922 0.09603 0.0
H1576 H 0.0182 0.4891 0.07929 0.0
C1577 C 0.01182 0.61023 1.02839 0.0
C1578 C 0.26641 0.79329 1.03878 0.0
C1579 C 0.27231 0.81957 0.06443 0.0
H1580 H 0.24922 0.79557 1.00837 0.0
C1581 C 0.26467 0.87162 0.0788 0.0
H1582 H 0.27169 0.75211 1.02729 0.0
C1583 C 0.25163 0.89635 0.06791 0.0
C1584 C 0.24577 0.86999 1.04225 0.0
H1585 H 0.26883 0.89396 0.09837 0.0
H1586 H 0.24619 0.93689 0.07949 0.0
C1587 C 0.25343 0.81818 1.02785 0.0
C1588 C 0.01459 0.79738 0.32708 0.0
C1589 C 0.02227 0.8504 0.3134 0.0
H1590 H 0.99582 0.73382 0.32772 0.0
C1591 C 0.01596 0.88092 0.28911 0.0
H1592 H 0.01906 0.77167 0.34555 0.0
C1593 C 1.00254 0.85917 0.27884 0.0
C1594 C 0.99488 0.8061 0.29249 0.0
H1595 H 0.02128 0.92281 0.27821 0.0
H1596 H 0.99808 0.8848 0.26034 0.0
C1597 C 1.00116 0.77567 0.31682 0.0
C1598 C 0.26662 0.54169 0.27764 0.0
C1599 C 0.27424 0.59293 0.29276 0.0
H1600 H 0.2481 0.47653 0.27565 0.0
C1601 C 0.26832 0.61748 0.31854 0.0
H1602 H 0.27083 0.52055 0.25796 0.0
C1603 C 0.25524 0.59207 0.32874 0.0
C1604 C 0.24757 0.5413 0.31349 0.0
H1605 H 0.27362 0.65784 0.33061 0.0
H1606 H 0.25098 0.61346 0.34834 0.0
C1607 C 0.25351 0.51639 0.28782 0.0
C1608 C 0.76654 0.26485 1.03822 0.0
C1609 C 0.77267 0.29512 0.06287 0.0
H1610 H 0.74889 0.26113 1.00886 0.0
C1611 C 0.76493 0.34803 0.07649 0.0
H1612 H 0.77194 0.22309 1.02733 0.0
C1613 C 0.75161 0.36989 0.06586 0.0
C1614 C 0.74547 0.33963 1.04121 0.0
H1615 H 0.76926 0.37352 0.09524 0.0
H1616 H 0.74626 0.41179 0.07673 0.0
C1617 C 0.75321 0.28665 1.02761 0.0
C1618 C 1.0093 0.28341 0.77883 0.0
C1619 C 0.99619 0.30662 0.78996 0.0
H1620 H 0.03216 0.28596 0.78155 0.0
C1621 C 0.99658 0.35305 0.81317 0.0
H1622 H 0.0095 0.24662 0.76138 0.0
C1623 C 0.00963 0.37541 0.82487 0.0
C1624 C 0.02274 0.35207 0.8138 0.0
H1625 H 0.98678 0.37282 0.82218 0.0
H1626 H 1.00941 0.41219 0.84233 0.0
C1627 C 0.02235 0.30577 0.79054 0.0
C1628 C 0.76783 0.60746 0.81693 0.0
C1629 C 0.77372 0.58083 0.79147 0.0
H1630 H 0.75031 0.60776 0.84633 0.0
C1631 C 0.76573 0.53064 0.77644 0.0
H1632 H 0.77337 0.64724 0.82891 0.0
C1633 C 0.75233 0.50846 0.78637 0.0
C1634 C 0.74647 0.53531 0.81178 0.0
H1635 H 0.76987 0.50792 0.757 0.0
H1636 H 0.74662 0.46942 0.77429 0.0
C1637 C 0.75449 0.58499 0.82693 0.0
C1638 C 0.99958 1.05237 0.53842 0.0
C1639 C 0.99863 0.09774 0.56189 0.0
H1640 H 0.01297 0.99165 0.51119 0.0
C1641 C 0.01153 0.1176 0.5754 0.0
H1642 H 0.99 1.03482 0.5276 0.0
C1643 C 0.02484 0.09299 0.56586 0.0
C1644 C 0.02579 1.04765 0.54236 0.0
H1645 H 0.01139 0.15334 0.59323 0.0
H1646 H 0.03441 0.11057 0.57668 0.0
C1647 C 0.01288 1.02762 0.52893 0.0
C1648 C 0.26815 0.27326 0.54018 0.0
C1649 C 0.27446 0.3039 0.56454 0.0
H1650 H 0.25031 0.26902 0.51133 0.0
C1651 C 0.26682 0.3573 0.57813 0.0
H1652 H 0.27344 0.23111 0.52933 0.0
C1653 C 0.25343 0.37921 0.56774 0.0
C1654 C 0.24711 0.34857 0.54337 0.0
H1655 H 0.27127 0.38309 0.59669 0.0
H1656 H 0.24818 0.42144 0.57859 0.0
C1657 C 0.25475 0.29504 0.52984 0.0
C1658 C 0.26761 0.13994 0.81891 0.0
C1659 C 0.27404 0.10977 0.79469 0.0
H1660 H 0.24945 0.14446 0.84667 0.0
C1661 C 0.26634 1.05766 0.78022 0.0
H1662 H 0.27298 0.18111 0.83038 0.0
C1663 C 0.25275 1.03657 0.78958 0.0
C1664 C 0.2463 1.06682 0.81375 0.0
H1665 H 0.27089 1.03235 0.76172 0.0
H1666 H 0.24743 0.99531 0.77809 0.0
C1667 C 0.25401 0.11895 0.82823 0.0
C1668 C 0.75049 0.79201 0.52911 0.0
C1669 C 0.74279 0.8438 0.5436 0.0
H1670 H 0.76917 0.72827 0.52767 0.0
C1671 C 0.74874 0.86985 0.56925 0.0
H1672 H 0.74629 0.7693 0.50966 0.0
C1673 C 0.76194 0.84578 0.57974 0.0
C1674 C 0.76974 0.79503 0.5649 0.0
H1675 H 0.7434 0.91049 0.58094 0.0
H1676 H 0.7662 0.86839 0.59917 0.0
C1677 C 0.76371 0.76828 0.53951 0.0
C1678 C 0.74659 0.09584 0.29038 0.0
C1679 C 0.74577 1.05131 0.31406 0.0
H1680 H 0.7599 0.15392 0.26205 0.0
C1681 C 0.75871 1.0304 0.32686 0.0
H1682 H 0.73696 0.11402 0.28006 0.0
C1683 C 0.77197 1.05317 0.3164 0.0
C1684 C 0.7728 0.09761 0.29269 0.0
H1685 H 0.75865 0.9951 0.34475 0.0
H1686 H 0.78161 1.03501 0.32672 0.0
C1687 C 0.75985 0.11861 0.27993 0.0
C1688 C 0.50265 0.54987 0.57421 0.0
C1689 C 0.49516 0.60192 0.55942 0.0
H1690 H 0.52122 0.48534 0.57666 0.0
C1691 C 0.50164 0.62885 0.53463 0.0
H1692 H 0.49809 0.52649 0.59307 0.0
C1693 C 0.51505 0.605 0.52514 0.0
C1694 C 0.52257 0.55325 0.54006 0.0
H1695 H 0.49651 0.66974 0.52276 0.0
H1696 H 0.51963 0.62813 0.50623 0.0
C1697 C 0.51607 0.52617 0.56477 0.0
C1698 C 0.51365 0.87543 0.78905 0.0
C1699 C 0.5198 0.84527 0.81359 0.0
H1700 H 0.49615 0.87767 0.75937 0.0
C1701 C 0.51214 0.79198 0.82706 0.0
H1702 H 0.51895 0.91771 0.77836 0.0
C1703 C 0.49892 0.76915 0.81615 0.0
C1704 C 0.49288 0.79884 0.7914 0.0
H1705 H 0.51649 0.76683 0.84579 0.0
H1706 H 0.49359 0.72692 0.8268 0.0
C1707 C 0.50047 0.85257 0.77814 0.0
C1708 C 0.51962 0.36738 0.28504 0.0
C1709 C 0.52559 0.34078 0.31044 0.0
H1710 H 0.5021 0.36654 0.25534 0.0
C1711 C 0.51791 0.28889 0.32481 0.0
H1712 H 0.52499 0.40817 0.27353 0.0
C1713 C 0.50469 0.26518 0.31439 0.0
C1714 C 0.49865 0.29234 0.28918 0.0
H1715 H 0.52216 0.26608 0.34413 0.0
H1716 H 0.49923 0.22485 0.32602 0.0
C1717 C 0.5064 0.34353 0.27458 0.0
C1718 C 0.50152 0.11844 1.03817 0.0
C1719 C 0.49509 0.08807 0.06224 0.0
H1720 H 0.51964 0.12279 1.01035 0.0
C1721 C 0.50275 1.0361 0.07667 0.0
H1722 H 0.49621 0.15966 1.02681 0.0
C1723 C 0.51633 1.01525 0.0673 0.0
C1724 C 0.52271 1.04547 1.04315 0.0
H1725 H 0.49818 1.0108 0.0951 0.0
H1726 H 0.5217 0.97417 0.07866 0.0
C1727 C 0.51508 0.09753 1.0288 0.0
C1728 C 0.07744 0.67023 0.1732 0.0
C1729 C 0.0903 0.63513 0.16804 0.0
H1730 H 0.0676 0.76369 0.18834 0.0
C1731 C 0.10327 0.66939 0.17326 0.0
H1732 H 0.06729 0.64512 0.16917 0.0
C1733 C 0.10344 0.7374 0.18292 0.0
C1734 C 0.09065 0.7724 0.18859 0.0
H1735 H 0.11337 0.64425 0.16917 0.0
H1736 H 0.11367 0.76201 0.1866 0.0
C1737 C 0.07761 0.738 0.18395 0.0
C1738 C 0.19342 0.72895 0.21431 0.0
C1739 C 0.18989 0.66165 0.20541 0.0
H1740 H 0.19253 0.8369 0.20433 0.0
C1741 C 0.18443 0.651 0.17773 0.0
H1742 H 0.19766 0.73862 0.23553 0.0
C1743 C 0.18145 0.707 0.16022 0.0
C1744 C 0.18415 0.77413 0.16988 0.0
H1745 H 0.18159 0.59988 0.17022 0.0
H1746 H 0.17637 0.69811 0.13966 0.0
C1747 C 0.19057 0.78505 0.19655 0.0
C1748 C 0.94333 0.52449 0.91564 0.0
C1749 C 0.93186 0.5199 0.93477 0.0
H1750 H 0.95522 0.47397 0.88237 0.0
C1751 C 0.92436 0.45748 0.93697 0.0
H1752 H 0.94918 0.57238 0.91347 0.0
C1753 C 0.92806 0.40085 0.92001 0.0
C1754 C 0.93907 0.40612 0.89977 0.0
H1755 H 0.91543 0.45286 0.95151 0.0
H1756 H 0.92179 0.3541 0.92171 0.0
C1757 C 0.94676 0.46834 0.89791 0.0
C1758 C 0.84179 0.37847 0.90861 0.0
C1759 C 0.83265 0.35734 0.93065 0.0
H1760 H 0.84666 0.45435 0.87725 0.0
C1761 C 0.8204 0.397 0.93642 0.0
H1762 H 0.85129 0.3493 0.90342 0.0
C1763 C 0.81768 0.45783 0.92107 0.0
C1764 C 0.82726 0.48025 0.89998 0.0
H1765 H 0.81314 0.38212 0.95328 0.0
H1766 H 0.80843 0.48855 0.92648 0.0
C1767 C 0.83916 0.4391 0.89362 0.0
C1768 C 0.07159 0.18942 0.70496 0.0
C1769 C 0.08029 0.24858 0.70578 0.0
H1770 H 0.06838 0.0879 0.68717 0.0
C1771 C 0.09253 0.25063 0.68851 0.0
H1772 H 0.06217 0.18628 0.71828 0.0
C1773 C 0.0963 0.19392 0.67168 0.0
C1774 C 0.0877 0.13461 0.67099 0.0
H1775 H 0.0996 0.29482 0.68912 0.0
H1776 H 0.10607 0.19614 0.65939 0.0
C1777 C 0.07512 0.13331 0.68723 0.0
C1778 C 0.17905 0.21762 0.71232 0.0
C1779 C 0.19122 0.17754 0.70683 0.0
H1780 H 0.16665 0.30576 0.70121 0.0
C1781 C 0.20095 0.2001 0.68605 0.0
H1782 H 0.17141 0.2021 0.72838 0.0
C1783 C 0.19815 0.25993 0.67016 0.0
C1784 C 0.18567 0.29851 0.67503 0.0
H1785 H 0.21038 0.17013 0.68128 0.0
H1786 H 0.20557 0.27485 0.65357 0.0
C1787 C 0.17634 0.27739 0.69676 0.0
C1788 C 0.9397 0.9874 0.43175 0.0
C1789 C 0.92689 1.02352 0.4362 0.0
H1790 H 0.94941 0.89295 0.4174 0.0
C1791 C 0.91388 0.99026 0.43032 0.0
H1792 H 0.94987 1.01173 0.43628 0.0
C1793 C 0.91361 0.92208 0.42088 0.0
C1794 C 0.92635 0.88601 0.41604 0.0
H1795 H 0.9038 1.01619 0.43385 0.0
H1796 H 0.90335 0.89811 0.41678 0.0
C1797 C 0.93944 0.91951 0.42118 0.0
C1798 C 0.83051 0.86986 0.39948 0.0
C1799 C 0.82996 0.87816 0.42918 0.0
H1800 H 0.82839 0.91806 0.3587 0.0
C1801 C 0.82525 0.9406 0.44089 0.0
H1802 H 0.83411 0.82179 0.39021 0.0
C1803 C 0.82219 0.9962 0.423 0.0
C1804 C 0.82361 0.98946 0.39322 0.0
H1805 H 0.82491 0.94783 0.46386 0.0
H1806 H 0.81948 1.0454 0.43255 0.0
C1807 C 0.82716 0.92486 0.38155 0.0
C1808 C 0.5724 0.62998 0.68726 0.0
C1809 C 0.58447 0.63266 0.6696 0.0
H1810 H 0.55991 0.68241 0.71913 0.0
C1811 C 0.59255 0.69355 0.66853 0.0
H1812 H 0.56606 0.58332 0.68846 0.0
C1813 C 0.58877 0.75063 0.68511 0.0
C1814 C 0.5771 0.74724 0.70386 0.0
H1815 H 0.6019 0.69675 0.65501 0.0
H1816 H 0.59543 0.79627 0.68427 0.0
C1817 C 0.56889 0.68649 0.70471 0.0
C1818 C 0.67322 0.77449 0.69441 0.0
C1819 C 0.68261 0.79715 0.67308 0.0
H1820 H 0.66821 0.6969 0.7249 0.0
C1821 C 0.69503 0.75861 0.66758 0.0
H1822 H 0.66359 0.80285 0.69933 0.0
C1823 C 0.69772 0.69731 0.6825 0.0
C1824 C 0.68793 0.67333 0.70286 0.0
H1825 H 0.70248 0.77479 0.65125 0.0
H1826 H 0.70714 0.66755 0.67736 0.0
C1827 C 0.67583 0.71332 0.70899 0.0
C1828 C 0.41253 0.45069 0.40853 0.0
C1829 C 0.42477 0.40896 0.40816 0.0
H1830 H 0.40326 0.5469 0.42003 0.0
C1831 C 0.43766 0.43557 0.41899 0.0
H1832 H 0.40243 0.43194 0.40025 0.0
C1833 C 0.43805 0.50197 0.43113 0.0
C1834 C 0.42568 0.5431 0.43166 0.0
H1835 H 0.44723 0.40444 0.41892 0.0
H1836 H 0.44794 0.52081 0.44035 0.0
C1837 C 0.41302 0.51707 0.41972 0.0
C1838 C 0.32424 0.4818 0.43379 0.0
C1839 C 0.32711 0.48429 0.40444 0.0
H1840 H 0.32234 0.4184 0.47087 0.0
C1841 C 0.32806 0.42249 0.3889 0.0
H1842 H 0.3239 0.52888 0.4463 0.0
C1843 C 0.32752 0.35902 0.40295 0.0
C1844 C 0.32603 0.35648 0.43282 0.0
H1845 H 0.33063 0.42338 0.36633 0.0
H1846 H 0.32937 0.31242 0.39071 0.0
C1847 C 0.32355 0.41835 0.44785 0.0
C1848 C 0.58017 0.16485 0.17179 0.0
C1849 C 0.59308 0.13022 0.16667 0.0
H1850 H 0.57018 0.25794 0.18698 0.0
C1851 C 0.606 0.16496 0.17191 0.0
H1852 H 0.57006 0.13934 0.16775 0.0
C1853 C 0.60606 0.23297 0.18156 0.0
C1854 C 0.59321 0.26748 0.18725 0.0
H1855 H 0.61615 0.14017 0.16786 0.0
H1856 H 0.61625 0.25795 0.18525 0.0
C1857 C 0.58023 0.23262 0.18259 0.0
C1858 C 0.70046 0.20872 0.14646 0.0
C1859 C 0.69976 0.26616 0.16489 0.0
H1860 H 0.70023 0.09875 0.14263 0.0
C1861 C 0.70029 0.25541 0.19453 0.0
H1862 H 0.7002 0.21512 0.12347 0.0
C1863 C 0.70043 0.1885 0.20549 0.0
C1864 C 0.69994 0.13101 0.18704 0.0
H1865 H 0.69985 0.29846 0.2093 0.0
H1866 H 0.70012 0.18206 0.22847 0.0
C1867 C 0.70051 0.14182 0.15742 0.0
C1868 C 0.42903 0.94125 0.95992 0.0
C1869 C 0.44074 0.98304 0.95282 0.0
H1870 H 0.41692 0.85057 0.95088 0.0
C1871 C 0.45002 0.9609 0.93111 0.0
H1872 H 0.42177 0.95629 0.97676 0.0
C1873 C 0.44717 0.89968 0.91592 0.0
C1874 C 0.43509 0.85934 0.92246 0.0
H1875 H 0.45911 0.99214 0.92512 0.0
H1876 H 0.45418 0.88501 0.89859 0.0
C1877 C 0.42627 0.88023 0.94509 0.0
C1878 C 0.34442 0.9625 0.92063 0.0
C1879 C 0.33628 1.02305 0.92178 0.0
H1880 H 0.34738 0.85999 0.93618 0.0
C1881 C 0.32417 1.02531 0.93933 0.0
H1882 H 0.3538 0.95965 0.90719 0.0
C1883 C 0.32069 0.96873 0.95663 0.0
C1884 C 0.32896 0.90836 0.95573 0.0
H1885 H 0.31779 1.07171 0.94058 0.0
H1886 H 0.31168 0.97249 0.97099 0.0
C1887 C 0.34067 0.90535 0.93706 0.0
C1888 C 0.14556 0.71417 0.0964 0.0
C1889 C 0.13793 0.77581 0.10135 0.0
H1890 H 0.1451 0.6034 0.09232 0.0
C1891 C 0.12297 0.76846 0.10511 0.0
H1892 H 0.15703 0.7161 0.0938 0.0
C1893 C 0.11602 0.70312 0.10396 0.0
C1894 C 0.12372 0.64137 0.09981 0.0
H1895 H 0.11653 0.81363 0.10928 0.0
H1896 H 0.10459 0.70093 0.10717 0.0
C1897 C 0.13865 0.64872 0.09589 0.0
C1898 C 0.12556 0.64455 0.24994 0.0
C1899 C 0.1406 0.63774 0.25266 0.0
H1900 H 0.10709 0.71108 0.24893 0.0
C1901 C 0.14827 0.69977 0.25692 0.0
H1902 H 0.11904 0.59914 0.24642 0.0
C1903 C 0.14128 0.765 0.25786 0.0
C1904 C 0.12627 0.77168 0.25487 0.0
H1905 H 0.15979 0.69828 0.25878 0.0
H1906 H 0.14773 0.81062 0.26107 0.0
C1907 C 0.11858 0.70954 0.25134 0.0
C1908 C 0.867 0.44635 0.99756 0.0
C1909 C 0.87476 0.38512 1.00259 0.0
H1910 H 0.86738 0.55702 0.99241 0.0
C1911 C 0.88964 0.39354 1.00701 0.0
H1912 H 0.8556 0.44351 0.99384 0.0
C1913 C 0.89643 0.45921 1.00664 0.0
C1914 C 0.88873 0.52036 1.00136 0.0
H1915 H 0.89614 0.34895 1.01127 0.0
H1916 H 0.90783 0.46181 1.01034 0.0
C1917 C 0.87384 0.51212 0.99667 0.0
C1918 C 0.89076 0.49524 0.85104 0.0
C1919 C 0.87622 0.4988 0.84292 0.0
H1920 H 0.90958 0.4329 0.85666 0.0
C1921 C 0.87 0.43808 0.83188 0.0
H1922 H 0.89588 0.54002 0.86047 0.0
C1923 C 0.87781 0.37552 0.83044 0.0
C1924 C 0.89224 0.37143 0.8395 0.0
H1925 H 0.85878 0.43755 0.82629 0.0
H1926 H 0.87232 0.3294 0.8233 0.0
C1927 C 0.89867 0.43327 0.84895 0.0
C1928 C 0.12276 0.19585 0.60103 0.0
C1929 C 0.13032 0.13353 0.60425 0.0
H1930 H 0.12351 0.30653 0.59857 0.0
C1931 C 0.14538 0.1396 0.60704 0.0
H1932 H 0.11125 0.19477 0.59891 0.0
C1933 C 0.1525 0.20465 0.60621 0.0
C1934 C 0.14486 0.26701 0.60339 0.0
H1935 H 0.15175 0.09359 0.60961 0.0
H1936 H 0.16401 0.20605 0.60831 0.0
C1937 C 0.12985 0.26069 0.60098 0.0
C1938 C 0.14857 0.21275 0.77524 0.0
C1939 C 0.14243 0.15315 0.763 0.0
H1940 H 0.1463 0.32088 0.78508 0.0
C1941 C 0.12804 0.15805 0.75397 0.0
H1942 H 0.1597 0.21233 0.78157 0.0
C1943 C 0.12021 0.2202 0.75635 0.0
C1944 C 0.12658 0.28104 0.76703 0.0
H1945 H 0.12299 0.11424 0.74366 0.0
H1946 H 0.10943 0.22159 0.74797 0.0
C1947 C 0.14085 0.27557 0.77698 0.0
C1948 C 0.87116 0.94583 0.50796 0.0
C1949 C 0.87832 0.88389 0.50122 0.0
H1950 H 0.87239 1.05573 0.5144 0.0
C1951 C 0.89326 0.88984 0.49652 0.0
H1952 H 0.85976 0.94506 0.5116 0.0
C1953 C 0.9006 0.95418 0.49832 0.0
C1954 C 0.89333 1.01634 0.50417 0.0
H1955 H 0.89938 0.84439 0.49113 0.0
H1956 H 0.91197 0.95536 0.49429 0.0
C1957 C 0.87847 1.01021 0.50923 0.0
C1958 C 0.87498 0.89022 0.34971 0.0
C1959 C 0.89008 0.88459 0.35098 0.0
H1960 H 0.85626 0.95562 0.35026 0.0
C1961 C 0.89764 0.94748 0.35305 0.0
H1962 H 0.86859 0.84407 0.34762 0.0
C1963 C 0.8905 1.01211 0.35454 0.0
C1964 C 0.87538 1.01787 0.35358 0.0
H1965 H 0.90919 0.94689 0.35411 0.0
H1966 H 0.89698 1.05809 0.35676 0.0
C1967 C 0.86781 0.95503 0.35089 0.0
C1968 C 0.6191 0.69579 0.59616 0.0
C1969 C 0.6267 0.63441 0.60167 0.0
H1970 H 0.61956 0.80605 0.59139 0.0
C1971 C 0.64157 0.64236 0.60673 0.0
H1972 H 0.60772 0.69347 0.59218 0.0
C1973 C 0.64849 0.70796 0.60597 0.0
C1974 C 0.64084 0.76941 0.6007 0.0
H1975 H 0.64795 0.59734 0.61123 0.0
H1976 H 0.65987 0.71051 0.61 0.0
C1977 C 0.62597 0.76131 0.59589 0.0
C1978 C 0.62517 0.65782 0.75234 0.0
C1979 C 0.63971 0.65422 0.76048 0.0
H1980 H 0.60638 0.72029 0.74653 0.0
C1981 C 0.64596 0.71514 0.77129 0.0
H1982 H 0.62003 0.61294 0.74305 0.0
C1983 C 0.63818 0.77784 0.7725 0.0
C1984 C 0.62376 0.78193 0.76344 0.0
H1985 H 0.65718 0.71567 0.77685 0.0
H1986 H 0.6437 0.82404 0.77946 0.0
C1987 C 0.61729 0.71995 0.75422 0.0
C1988 C 0.39839 0.46346 0.50745 0.0
C1989 C 0.39086 0.52481 0.50127 0.0
H1990 H 0.39788 0.35286 0.51276 0.0
C1991 C 0.37604 0.5165 0.49577 0.0
H1992 H 0.40974 0.46594 0.51168 0.0
C1993 C 0.36906 0.4511 0.49692 0.0
C1994 C 0.37658 0.38968 0.50298 0.0
H1995 H 0.36972 0.56128 0.49064 0.0
H1996 H 0.3577 0.44872 0.49263 0.0
C1997 C 0.39147 0.39775 0.508 0.0
C1998 C 0.37381 0.37348 0.3398 0.0
C1999 C 0.3889 0.3689 0.33957 0.0
H2000 H 0.35517 0.43854 0.3425 0.0
C2001 C 0.39652 0.43166 0.3389 0.0
H2002 H 0.36745 0.32688 0.34064 0.0
C2003 C 0.3894 0.4959 0.34065 0.0
C2004 C 0.37436 0.50038 0.34202 0.0
H2005 H 0.40807 0.43124 0.3393 0.0
H2006 H 0.39577 0.54237 0.34241 0.0
C2007 C 0.36668 0.43793 0.34066 0.0
C2008 C 0.62818 0.26099 0.10538 0.0
C2009 C 0.64329 0.26598 0.10318 0.0
H2010 H 0.6093 0.19642 0.106 0.0
C2011 C 0.65058 0.203 0.09928 0.0
H2012 H 0.62192 0.30721 0.10853 0.0
C2013 C 0.6432 0.13876 0.09814 0.0
C2014 C 0.62815 0.13368 0.10071 0.0
H2015 H 0.6621 0.20298 0.09756 0.0
H2016 H 0.64938 0.09252 0.09496 0.0
C2017 C 0.62081 0.19671 0.10393 0.0
C2018 C 0.65157 0.19473 0.25221 0.0
C2019 C 0.64413 0.13177 0.24889 0.0
H2020 H 0.65058 0.30534 0.25621 0.0
C2021 C 0.629 0.1369 0.24739 0.0
H2022 H 0.66311 0.19461 0.25336 0.0
C2023 C 0.62174 0.20128 0.24901 0.0
C2024 C 0.62922 0.26426 0.25169 0.0
H2025 H 0.62263 0.09071 0.2447 0.0
H2026 H 0.61021 0.20165 0.24752 0.0
C2027 C 0.6443 0.2591 0.25351 0.0
C2028 C 0.39052 0.87814 1.0236 0.0
C2029 C 0.37603 0.87408 1.01495 0.0
H2030 H 0.40964 0.94011 1.02734 0.0
C2031 C 0.36958 0.93593 1.00588 0.0
H2032 H 0.39602 0.83201 1.03044 0.0
C2033 C 0.37752 0.99789 1.00374 0.0
C2034 C 0.39212 1.00139 1.01142 0.0
H2035 H 0.35861 0.93557 0.9985 0.0
H2036 H 0.37238 1.04267 0.99458 0.0
C2037 C 0.39837 0.94067 1.02211 0.0
C2038 C 0.3999 0.94679 0.85733 0.0
C2039 C 0.39205 0.88554 0.85231 0.0
H2040 H 0.39967 1.05751 0.86257 0.0
C2041 C 0.37717 0.89401 0.84804 0.0
H2042 H 0.41131 0.94392 0.86091 0.0
C2043 C 0.37046 0.95974 0.84855 0.0
C2044 C 0.37825 1.02092 0.8538 0.0
H2045 H 0.37062 0.84941 0.84376 0.0
H2046 H 0.35906 0.96239 0.84497 0.0
C2047 C 0.39314 1.01261 0.85834 0.0
loop_
_geom_bond_atom_site_label_1
_geom_bond_atom_site_label_2
_geom_bond_distance
_geom_bond_site_symmetry_2
_ccdc_geom_bond_type
O0 Tb1 2.292 . S
O0 C3 1.255 . S
Tb1 O0 2.292 . S
Tb1 O17 2.326 . S
Tb1 O19 2.500 . S
Tb1 O20 2.473 . S
Tb1 O23 2.324 . S
Eu2 O6 2.292 . S
Eu2 C7 2.852 . S
Eu2 O18 2.324 . S
Eu2 O22 2.326 . S
Eu2 O24 2.500 . S
Eu2 O25 2.473 . S
C3 O0 1.255 . S
C3 O4 1.247 . S
O4 C3 1.247 . S
C5 O17 1.242 . S
C5 O18 1.258 . S
O6 Eu2 2.292 . S
O6 C8 1.255 . S
C7 Eu2 2.852 . S
C7 C11 1.547 . S
C7 O24 1.273 . S
C7 O25 1.257 . S
C8 O6 1.255 . S
C8 O9 1.247 . S
O9 C8 1.247 . S
C10 O22 1.242 . S
C10 O23 1.258 . S
C11 C7 1.547 . S
C11 C12 1.351 1_554 S
C11 C16 1.377 1_554 S
C12 C11 1.351 1_556 S
C12 C13 1.404 . S
C12 H26 0.929 . S
C13 C12 1.404 . S
C13 C14 1.389 . S
C14 C13 1.389 . S
C14 C15 1.399 . S
C14 H27 0.931 . S
C15 C14 1.399 . S
C15 C16 1.390 . S
C16 C11 1.377 1_556 S
C16 C15 1.390 . S
C16 H28 0.929 1_556 S
O17 Tb1 2.326 . S
O17 C5 1.242 . S
O18 Eu2 2.324 . S
O18 C5 1.258 . S
O19 Tb1 2.500 . S
O19 C21 1.273 . S
O20 Tb1 2.473 . S
O20 C21 1.257 . S
C21 O19 1.273 . S
C21 O20 1.257 . S
O22 Eu2 2.326 . S
O22 C10 1.242 . S
O23 Tb1 2.324 . S
O23 C10 1.258 . S
O24 Eu2 2.500 . S
O24 C7 1.273 . S
O25 Eu2 2.473 . S
O25 C7 1.257 . S
H26 C12 0.929 . S
H27 C14 0.931 . S
H28 C16 0.929 1_554 S
O29 Tb30 2.292 1_545 S
O29 C32 1.255 . S
Tb30 O29 2.292 1_565 S
Tb30 O46 2.326 . S
Tb30 O48 2.500 . S
Tb30 O49 2.473 . S
Tb30 O52 2.324 . S
Eu31 O35 2.292 . S
Eu31 C36 2.852 . S
Eu31 O47 2.324 . S
Eu31 O51 2.326 . S
Eu31 O53 2.500 . S
Eu31 O54 2.473 . S
C32 O29 1.255 . S
C32 O33 1.247 . S
O33 C32 1.247 . S
C34 O46 1.242 . S
C34 O47 1.258 . S
O35 Eu31 2.292 . S
O35 C37 1.255 . S
C36 Eu31 2.852 . S
C36 C40 1.547 . S
C36 O53 1.273 . S
C36 O54 1.257 . S
C37 O35 1.255 . S
C37 O38 1.247 . S
O38 C37 1.247 . S
C39 O51 1.242 . S
C39 O52 1.258 . S
C40 C36 1.547 . S
C40 C41 1.351 1_554 S
C40 C45 1.377 1_554 S
C41 C40 1.351 1_556 S
C41 C42 1.404 . S
C41 H55 0.929 . S
C42 C41 1.404 . S
C42 C43 1.389 . S
C43 C42 1.389 . S
C43 C44 1.399 . S
C43 H56 0.931 . S
C44 C43 1.399 . S
C44 C45 1.390 . S
C45 C40 1.377 1_556 S
C45 C44 1.390 . S
C45 H57 0.929 1_556 S
O46 Tb30 2.326 . S
O46 C34 1.242 . S
O47 Eu31 2.324 . S
O47 C34 1.258 . S
O48 Tb30 2.500 . S
O48 C50 1.273 . S
O49 Tb30 2.473 . S
O49 C50 1.257 . S
C50 O48 1.273 . S
C50 O49 1.257 . S
O51 Eu31 2.326 . S
O51 C39 1.242 . S
O52 Tb30 2.324 . S
O52 C39 1.258 . S
O53 Eu31 2.500 . S
O53 C36 1.273 . S
O54 Eu31 2.473 . S
O54 C36 1.257 . S
H55 C41 0.929 . S
H56 C43 0.931 . S
H57 C45 0.929 1_554 S
O58 Tb59 2.292 1_545 S
O58 C61 1.255 . S
Tb59 O58 2.292 1_565 S
Tb59 O75 2.326 . S
Tb59 O77 2.500 . S
Tb59 O78 2.473 . S
Tb59 O81 2.324 . S
Eu60 O64 2.292 . S
Eu60 C65 2.852 . S
Eu60 O76 2.324 . S
Eu60 O80 2.326 . S
Eu60 O82 2.500 . S
Eu60 O83 2.473 . S
C61 O58 1.255 . S
C61 O62 1.247 . S
O62 C61 1.247 . S
C63 O75 1.242 . S
C63 O76 1.258 . S
O64 Eu60 2.292 . S
O64 C66 1.255 . S
C65 Eu60 2.852 . S
C65 C69 1.503 . S
C65 O82 1.273 . S
C65 O83 1.257 . S
C66 O64 1.255 . S
C66 O67 1.247 . S
O67 C66 1.247 . S
C68 O80 1.242 . S
C68 O81 1.258 . S
C69 C65 1.503 . S
C69 C70 1.379 . S
C69 C74 1.392 . S
C70 C69 1.379 . S
C70 C71 1.404 . S
C70 H84 0.929 . S
C71 C70 1.404 . S
C71 C72 1.389 . S
C72 C71 1.389 . S
C72 C73 1.399 . S
C72 H85 0.931 . S
C73 C72 1.399 . S
C73 C74 1.390 . S
C74 C69 1.392 . S
C74 C73 1.390 . S
C74 H86 0.929 . S
O75 Tb59 2.326 . S
O75 C63 1.242 . S
O76 Eu60 2.324 . S
O76 C63 1.258 . S
O77 Tb59 2.500 . S
O77 C79 1.273 . S
O78 Tb59 2.473 . S
O78 C79 1.257 . S
C79 O77 1.273 . S
C79 O78 1.257 . S
O80 Eu60 2.326 . S
O80 C68 1.242 . S
O81 Tb59 2.324 . S
O81 C68 1.258 . S
O82 Eu60 2.500 . S
O82 C65 1.273 . S
O83 Eu60 2.473 . S
O83 C65 1.257 . S
H84 C70 0.929 . S
H85 C72 0.931 . S
H86 C74 0.929 . S
O87 Tb88 2.292 . S
O87 C90 1.255 . S
Tb88 O87 2.292 . S
Tb88 O104 2.326 . S
Tb88 O106 2.500 . S
Tb88 O107 2.473 . S
Tb88 O110 2.324 . S
Eu89 O93 2.292 . S
Eu89 C94 2.852 . S
Eu89 O105 2.324 . S
Eu89 O109 2.326 . S
Eu89 O111 2.500 . S
Eu89 O112 2.473 . S
C90 O87 1.255 . S
C90 O91 1.247 . S
O91 C90 1.247 . S
C92 O104 1.242 . S
C92 O105 1.258 . S
O93 Eu89 2.292 . S
O93 C95 1.255 . S
C94 Eu89 2.852 . S
C94 C98 1.503 . S
C94 O111 1.273 . S
C94 O112 1.257 . S
C95 O93 1.255 . S
C95 O96 1.247 . S
O96 C95 1.247 . S
C97 O109 1.242 . S
C97 O110 1.258 . S
C98 C94 1.503 . S
C98 C99 1.379 . S
C98 C103 1.392 . S
C99 C98 1.379 . S
C99 C100 1.404 . S
C99 H113 0.929 . S
C100 C99 1.404 . S
C100 C101 1.389 . S
C101 C100 1.389 . S
C101 C102 1.399 . S
C101 H114 0.931 . S
C102 C101 1.399 . S
C102 C103 1.390 . S
C103 C98 1.392 . S
C103 C102 1.390 . S
C103 H115 0.929 . S
O104 Tb88 2.326 . S
O104 C92 1.242 . S
O105 Eu89 2.324 . S
O105 C92 1.258 . S
O106 Tb88 2.500 . S
O106 C108 1.273 . S
O107 Tb88 2.473 . S
O107 C108 1.257 . S
C108 O106 1.273 . S
C108 O107 1.257 . S
O109 Eu89 2.326 . S
O109 C97 1.242 . S
O110 Tb88 2.324 . S
O110 C97 1.258 . S
O111 Eu89 2.500 . S
O111 C94 1.273 . S
O112 Eu89 2.473 . S
O112 C94 1.257 . S
H113 C99 0.929 . S
H114 C101 0.931 . S
H115 C103 0.929 . S
O116 Tb117 2.292 . S
O116 C119 1.255 . S
Tb117 O116 2.292 . S
Tb117 O133 2.326 . S
Tb117 O135 2.500 . S
Tb117 O136 2.473 . S
Tb117 O139 2.324 . S
Eu118 O122 2.292 . S
Eu118 C123 2.852 . S
Eu118 O134 2.324 . S
Eu118 O138 2.326 . S
Eu118 O140 2.500 . S
Eu118 O141 2.473 . S
C119 O116 1.255 . S
C119 O120 1.247 . S
O120 C119 1.247 . S
C121 O133 1.242 . S
C121 O134 1.258 . S
O122 Eu118 2.292 . S
O122 C124 1.255 . S
C123 Eu118 2.852 . S
C123 C127 1.547 . S
C123 O140 1.273 . S
C123 O141 1.257 . S
C124 O122 1.255 . S
C124 O125 1.247 . S
O125 C124 1.247 . S
C126 O138 1.242 . S
C126 O139 1.258 . S
C127 C123 1.547 . S
C127 C128 1.351 1_556 S
C127 C132 1.377 1_556 S
C128 C127 1.351 1_554 S
C128 C129 1.404 . S
C128 H142 0.929 . S
C129 C128 1.404 . S
C129 C130 1.389 . S
C130 C129 1.389 . S
C130 C131 1.399 . S
C130 H143 0.931 . S
C131 C130 1.399 . S
C131 C132 1.390 . S
C132 C127 1.377 1_554 S
C132 C131 1.390 . S
C132 H144 0.929 1_554 S
O133 Tb117 2.326 . S
O133 C121 1.242 . S
O134 Eu118 2.324 . S
O134 C121 1.258 . S
O135 Tb117 2.500 . S
O135 C137 1.273 . S
O136 Tb117 2.473 . S
O136 C137 1.257 . S
C137 O135 1.273 . S
C137 O136 1.257 . S
O138 Eu118 2.326 . S
O138 C126 1.242 . S
O139 Tb117 2.324 . S
O139 C126 1.258 . S
O140 Eu118 2.500 . S
O140 C123 1.273 . S
O141 Eu118 2.473 . S
O141 C123 1.257 . S
H142 C128 0.929 . S
H143 C130 0.931 . S
H144 C132 0.929 1_556 S
O145 Tb146 2.292 1_565 S
O145 C148 1.255 . S
Tb146 O145 2.292 1_545 S
Tb146 O162 2.326 . S
Tb146 O164 2.500 . S
Tb146 O165 2.473 . S
Tb146 O168 2.324 . S
Eu147 O151 2.292 . S
Eu147 C152 2.852 . S
Eu147 O163 2.324 . S
Eu147 O167 2.326 . S
Eu147 O169 2.500 . S
Eu147 O170 2.473 . S
C148 O145 1.255 . S
C148 O149 1.247 . S
O149 C148 1.247 . S
C150 O162 1.242 . S
C150 O163 1.258 . S
O151 Eu147 2.292 . S
O151 C153 1.255 . S
C152 Eu147 2.852 . S
C152 C156 1.547 . S
C152 O169 1.273 . S
C152 O170 1.257 . S
C153 O151 1.255 . S
C153 O154 1.247 . S
O154 C153 1.247 . S
C155 O167 1.242 . S
C155 O168 1.258 . S
C156 C152 1.547 . S
C156 C157 1.351 1_556 S
C156 C161 1.377 1_556 S
C157 C156 1.351 1_554 S
C157 C158 1.404 . S
C157 H171 0.929 . S
C158 C157 1.404 . S
C158 C159 1.389 . S
C159 C158 1.389 . S
C159 C160 1.399 . S
C159 H172 0.931 . S
C160 C159 1.399 . S
C160 C161 1.390 . S
C161 C156 1.377 1_554 S
C161 C160 1.390 . S
C161 H173 0.929 1_554 S
O162 Tb146 2.326 . S
O162 C150 1.242 . S
O163 Eu147 2.324 . S
O163 C150 1.258 . S
O164 Tb146 2.500 . S
O164 C166 1.273 . S
O165 Tb146 2.473 . S
O165 C166 1.257 . S
C166 O164 1.273 . S
C166 O165 1.257 . S
O167 Eu147 2.326 . S
O167 C155 1.242 . S
O168 Tb146 2.324 . S
O168 C155 1.258 . S
O169 Eu147 2.500 . S
O169 C152 1.273 . S
O170 Eu147 2.473 . S
O170 C152 1.257 . S
H171 C157 0.929 . S
H172 C159 0.931 . S
H173 C161 0.929 1_556 S
O174 Tb175 2.292 1_565 S
O174 C177 1.255 . S
Tb175 O174 2.292 1_545 S
Tb175 O191 2.326 . S
Tb175 O193 2.500 . S
Tb175 O194 2.473 . S
Tb175 O197 2.324 . S
Eu176 O180 2.292 . S
Eu176 C181 2.852 . S
Eu176 O192 2.324 . S
Eu176 O196 2.326 . S
Eu176 O198 2.500 . S
Eu176 O199 2.473 . S
C177 O174 1.255 . S
C177 O178 1.247 . S
O178 C177 1.247 . S
C179 O191 1.242 . S
C179 O192 1.258 . S
O180 Eu176 2.292 . S
O180 C182 1.255 . S
C181 Eu176 2.852 . S
C181 C185 1.503 . S
C181 O198 1.273 . S
C181 O199 1.257 . S
C182 O180 1.255 . S
C182 O183 1.247 . S
O183 C182 1.247 . S
C184 O196 1.242 . S
C184 O197 1.258 . S
C185 C181 1.503 . S
C185 C186 1.379 . S
C185 C190 1.392 . S
C186 C185 1.379 . S
C186 C187 1.404 . S
C186 H200 0.929 . S
C187 C186 1.404 . S
C187 C188 1.389 . S
C188 C187 1.389 . S
C188 C189 1.399 . S
C188 H201 0.931 . S
C189 C188 1.399 . S
C189 C190 1.390 . S
C190 C185 1.392 . S
C190 C189 1.390 . S
C190 H202 0.929 . S
O191 Tb175 2.326 . S
O191 C179 1.242 . S
O192 Eu176 2.324 . S
O192 C179 1.258 . S
O193 Tb175 2.500 . S
O193 C195 1.273 . S
O194 Tb175 2.473 . S
O194 C195 1.257 . S
C195 O193 1.273 . S
C195 O194 1.257 . S
O196 Eu176 2.326 . S
O196 C184 1.242 . S
O197 Tb175 2.324 . S
O197 C184 1.258 . S
O198 Eu176 2.500 . S
O198 C181 1.273 . S
O199 Eu176 2.473 . S
O199 C181 1.257 . S
H200 C186 0.929 . S
H201 C188 0.931 . S
H202 C190 0.929 . S
O203 Tb204 2.292 . S
O203 C206 1.255 . S
Tb204 O203 2.292 . S
Tb204 O220 2.326 . S
Tb204 O222 2.500 . S
Tb204 O223 2.473 . S
Tb204 O226 2.324 . S
Eu205 O209 2.292 . S
Eu205 C210 2.852 . S
Eu205 O221 2.324 . S
Eu205 O225 2.326 . S
Eu205 O227 2.500 . S
Eu205 O228 2.473 . S
C206 O203 1.255 . S
C206 O207 1.247 . S
O207 C206 1.247 . S
C208 O220 1.242 . S
C208 O221 1.258 . S
O209 Eu205 2.292 . S
O209 C211 1.255 . S
C210 Eu205 2.852 . S
C210 C214 1.503 . S
C210 O227 1.273 . S
C210 O228 1.257 . S
C211 O209 1.255 . S
C211 O212 1.247 . S
O212 C211 1.247 . S
C213 O225 1.242 . S
C213 O226 1.258 . S
C214 C210 1.503 . S
C214 C215 1.379 . S
C214 C219 1.392 . S
C215 C214 1.379 . S
C215 C216 1.404 . S
C215 H229 0.929 . S
C216 C215 1.404 . S
C216 C217 1.389 . S
C217 C216 1.389 . S
C217 C218 1.399 . S
C217 H230 0.931 . S
C218 C217 1.399 . S
C218 C219 1.390 . S
C219 C214 1.392 . S
C219 C218 1.390 . S
C219 H231 0.929 . S
O220 Tb204 2.326 . S
O220 C208 1.242 . S
O221 Eu205 2.324 . S
O221 C208 1.258 . S
O222 Tb204 2.500 . S
O222 C224 1.273 . S
O223 Tb204 2.473 . S
O223 C224 1.257 . S
C224 O222 1.273 . S
C224 O223 1.257 . S
O225 Eu205 2.326 . S
O225 C213 1.242 . S
O226 Tb204 2.324 . S
O226 C213 1.258 . S
O227 Eu205 2.500 . S
O227 C210 1.273 . S
O228 Eu205 2.473 . S
O228 C210 1.257 . S
H229 C215 0.929 . S
H230 C217 0.931 . S
H231 C219 0.929 . S
O232 Tb233 2.292 . S
O232 C235 1.255 . S
Tb233 O232 2.292 . S
Tb233 O249 2.326 . S
Tb233 O251 2.500 . S
Tb233 O252 2.473 . S
Tb233 O255 2.324 . S
Eu234 O238 2.281 1_565 S
Eu234 C239 2.852 . S
Eu234 O250 2.324 . S
Eu234 O254 2.326 . S
Eu234 O256 2.500 . S
Eu234 O257 2.473 . S
C235 O232 1.255 . S
C235 O236 1.247 . S
O236 C235 1.247 . S
C237 O249 1.242 . S
C237 O250 1.258 . S
O238 Eu234 2.281 1_545 S
O238 C240 1.264 . S
C239 Eu234 2.852 . S
C239 C243 1.503 . S
C239 O256 1.273 . S
C239 O257 1.257 . S
C240 O238 1.264 . S
C240 O241 1.247 . S
O241 C240 1.247 . S
C242 O254 1.242 . S
C242 O255 1.258 . S
C243 C239 1.503 . S
C243 C244 1.379 . S
C243 C248 1.392 . S
C244 C243 1.379 . S
C244 C245 1.404 . S
C244 H258 0.929 . S
C245 C244 1.404 . S
C245 C246 1.389 . S
C246 C245 1.389 . S
C246 C247 1.399 . S
C246 H259 0.931 . S
C247 C246 1.399 . S
C247 C248 1.390 . S
C248 C243 1.392 . S
C248 C247 1.390 . S
C248 H260 0.929 . S
O249 Tb233 2.326 . S
O249 C237 1.242 . S
O250 Eu234 2.324 . S
O250 C237 1.258 . S
O251 Tb233 2.500 . S
O251 C253 1.273 . S
O252 Tb233 2.473 . S
O252 C253 1.257 . S
C253 O251 1.273 . S
C253 O252 1.257 . S
O254 Eu234 2.326 . S
O254 C242 1.242 . S
O255 Tb233 2.324 . S
O255 C242 1.258 . S
O256 Eu234 2.500 . S
O256 C239 1.273 . S
O257 Eu234 2.473 . S
O257 C239 1.257 . S
H258 C244 0.929 . S
H259 C246 0.931 . S
H260 C248 0.929 . S
O261 Tb262 2.292 . S
O261 C264 1.255 . S
Tb262 O261 2.292 . S
Tb262 O278 2.326 . S
Tb262 O280 2.500 . S
Tb262 O281 2.473 . S
Tb262 O284 2.324 . S
Eu263 O267 2.292 . S
Eu263 C268 2.852 . S
Eu263 O279 2.324 . S
Eu263 O283 2.326 . S
Eu263 O285 2.500 . S
Eu263 O286 2.473 . S
C264 O261 1.255 . S
C264 O265 1.247 . S
O265 C264 1.247 . S
C266 O278 1.242 . S
C266 O279 1.258 . S
O267 Eu263 2.292 . S
O267 C269 1.255 . S
C268 Eu263 2.852 . S
C268 C272 1.503 . S
C268 O285 1.273 . S
C268 O286 1.257 . S
C269 O267 1.255 . S
C269 O270 1.247 . S
O270 C269 1.247 . S
C271 O283 1.242 . S
C271 O284 1.258 . S
C272 C268 1.503 . S
C272 C273 1.379 . S
C272 C277 1.392 . S
C273 C272 1.379 . S
C273 C274 1.404 . S
C273 H287 0.929 . S
C274 C273 1.404 . S
C274 C275 1.389 . S
C275 C274 1.389 . S
C275 C276 1.399 . S
C275 H288 0.931 . S
C276 C275 1.399 . S
C276 C277 1.390 . S
C277 C272 1.392 . S
C277 C276 1.390 . S
C277 H289 0.929 . S
O278 Tb262 2.326 . S
O278 C266 1.242 . S
O279 Eu263 2.324 . S
O279 C266 1.258 . S
O280 Tb262 2.500 . S
O280 C282 1.273 . S
O281 Tb262 2.473 . S
O281 C282 1.257 . S
C282 O280 1.273 . S
C282 O281 1.257 . S
O283 Eu263 2.326 . S
O283 C271 1.242 . S
O284 Tb262 2.324 . S
O284 C271 1.258 . S
O285 Eu263 2.500 . S
O285 C268 1.273 . S
O286 Eu263 2.473 . S
O286 C268 1.257 . S
H287 C273 0.929 . S
H288 C275 0.931 . S
H289 C277 0.929 . S
O290 Tb291 2.292 . S
O290 C293 1.255 . S
Tb291 O290 2.292 . S
Tb291 O307 2.326 . S
Tb291 O309 2.500 . S
Tb291 O310 2.473 . S
Tb291 O313 2.324 . S
Eu292 O296 2.292 . S
Eu292 C297 2.852 . S
Eu292 O308 2.324 . S
Eu292 O312 2.326 . S
Eu292 O314 2.500 . S
Eu292 O315 2.473 . S
C293 O290 1.255 . S
C293 O294 1.247 . S
O294 C293 1.247 . S
C295 O307 1.242 . S
C295 O308 1.258 . S
O296 Eu292 2.292 . S
O296 C298 1.255 . S
C297 Eu292 2.852 . S
C297 C301 1.503 . S
C297 O314 1.273 . S
C297 O315 1.257 . S
C298 O296 1.255 . S
C298 O299 1.247 . S
O299 C298 1.247 . S
C300 O312 1.242 . S
C300 O313 1.258 . S
C301 C297 1.503 . S
C301 C302 1.379 . S
C301 C306 1.392 . S
C302 C301 1.379 . S
C302 C303 1.404 . S
C302 H316 0.929 . S
C303 C302 1.404 . S
C303 C304 1.389 . S
C304 C303 1.389 . S
C304 C305 1.399 . S
C304 H317 0.931 . S
C305 C304 1.399 . S
C305 C306 1.390 . S
C306 C301 1.392 . S
C306 C305 1.390 . S
C306 H318 0.929 . S
O307 Tb291 2.326 . S
O307 C295 1.242 . S
O308 Eu292 2.324 . S
O308 C295 1.258 . S
O309 Tb291 2.500 . S
O309 C311 1.273 . S
O310 Tb291 2.473 . S
O310 C311 1.257 . S
C311 O309 1.273 . S
C311 O310 1.257 . S
O312 Eu292 2.326 . S
O312 C300 1.242 . S
O313 Tb291 2.324 . S
O313 C300 1.258 . S
O314 Eu292 2.500 . S
O314 C297 1.273 . S
O315 Eu292 2.473 . S
O315 C297 1.257 . S
H316 C302 0.929 . S
H317 C304 0.931 . S
H318 C306 0.929 . S
O319 Tb320 2.292 . S
O319 C322 1.255 . S
Tb320 O319 2.292 . S
Tb320 O336 2.326 . S
Tb320 O338 2.500 . S
Tb320 O339 2.473 . S
Tb320 O342 2.324 . S
Eu321 O325 2.281 1_565 S
Eu321 C326 2.852 . S
Eu321 O337 2.324 . S
Eu321 O341 2.326 . S
Eu321 O343 2.500 . S
Eu321 O344 2.473 . S
C322 O319 1.255 . S
C322 O323 1.247 . S
O323 C322 1.247 . S
C324 O336 1.242 . S
C324 O337 1.258 . S
O325 Eu321 2.281 1_545 S
O325 C327 1.264 . S
C326 Eu321 2.852 . S
C326 C330 1.503 . S
C326 O343 1.273 . S
C326 O344 1.257 . S
C327 O325 1.264 . S
C327 O328 1.247 . S
O328 C327 1.247 . S
C329 O341 1.242 . S
C329 O342 1.258 . S
C330 C326 1.503 . S
C330 C331 1.379 . S
C330 C335 1.392 . S
C331 C330 1.379 . S
C331 C332 1.404 . S
C331 H345 0.929 . S
C332 C331 1.404 . S
C332 C333 1.389 . S
C333 C332 1.389 . S
C333 C334 1.399 . S
C333 H346 0.931 . S
C334 C333 1.399 . S
C334 C335 1.390 . S
C335 C330 1.392 . S
C335 C334 1.390 . S
C335 H347 0.929 . S
O336 Tb320 2.326 . S
O336 C324 1.242 . S
O337 Eu321 2.324 . S
O337 C324 1.258 . S
O338 Tb320 2.500 . S
O338 C340 1.273 . S
O339 Tb320 2.473 . S
O339 C340 1.257 . S
C340 O338 1.273 . S
C340 O339 1.257 . S
O341 Eu321 2.326 . S
O341 C329 1.242 . S
O342 Tb320 2.324 . S
O342 C329 1.258 . S
O343 Eu321 2.500 . S
O343 C326 1.273 . S
O344 Eu321 2.473 . S
O344 C326 1.257 . S
H345 C331 0.929 . S
H346 C333 0.931 . S
H347 C335 0.929 . S
O348 Tb349 2.292 . S
O348 C351 1.255 . S
Tb349 O348 2.292 . S
Tb349 O365 2.326 . S
Tb349 O367 2.500 . S
Tb349 O368 2.473 . S
Tb349 O371 2.324 . S
Eu350 O354 2.281 1_545 S
Eu350 C355 2.852 . S
Eu350 O366 2.324 . S
Eu350 O370 2.326 . S
Eu350 O372 2.500 . S
Eu350 O373 2.473 . S
C351 O348 1.255 . S
C351 O352 1.247 . S
O352 C351 1.247 . S
C353 O365 1.242 . S
C353 O366 1.258 . S
O354 Eu350 2.281 1_565 S
O354 C356 1.264 . S
C355 Eu350 2.852 . S
C355 C359 1.503 . S
C355 O372 1.273 . S
C355 O373 1.257 . S
C356 O354 1.264 . S
C356 O357 1.247 . S
O357 C356 1.247 . S
C358 O370 1.242 . S
C358 O371 1.258 . S
C359 C355 1.503 . S
C359 C360 1.379 . S
C359 C364 1.392 . S
C360 C359 1.379 . S
C360 C361 1.404 . S
C360 H374 0.929 . S
C361 C360 1.404 . S
C361 C362 1.389 . S
C362 C361 1.389 . S
C362 C363 1.399 . S
C362 H375 0.931 . S
C363 C362 1.399 . S
C363 C364 1.390 . S
C364 C359 1.392 . S
C364 C363 1.390 . S
C364 H376 0.929 . S
O365 Tb349 2.326 . S
O365 C353 1.242 . S
O366 Eu350 2.324 . S
O366 C353 1.258 . S
O367 Tb349 2.500 . S
O367 C369 1.273 . S
O368 Tb349 2.473 . S
O368 C369 1.257 . S
C369 O367 1.273 . S
C369 O368 1.257 . S
O370 Eu350 2.326 . S
O370 C358 1.242 . S
O371 Tb349 2.324 . S
O371 C358 1.258 . S
O372 Eu350 2.500 . S
O372 C355 1.273 . S
O373 Eu350 2.473 . S
O373 C355 1.257 . S
H374 C360 0.929 . S
H375 C362 0.931 . S
H376 C364 0.929 . S
O377 Tb378 2.292 . S
O377 C380 1.255 . S
Tb378 O377 2.292 . S
Tb378 O394 2.326 . S
Tb378 O396 2.500 . S
Tb378 O397 2.473 . S
Tb378 O400 2.324 . S
Eu379 O383 2.292 . S
Eu379 C384 2.852 . S
Eu379 O395 2.324 . S
Eu379 O399 2.326 . S
Eu379 O401 2.500 . S
Eu379 O402 2.473 . S
C380 O377 1.255 . S
C380 O381 1.247 . S
O381 C380 1.247 . S
C382 O394 1.242 . S
C382 O395 1.258 . S
O383 Eu379 2.292 . S
O383 C385 1.255 . S
C384 Eu379 2.852 . S
C384 C388 1.503 . S
C384 O401 1.273 . S
C384 O402 1.257 . S
C385 O383 1.255 . S
C385 O386 1.247 . S
O386 C385 1.247 . S
C387 O399 1.242 . S
C387 O400 1.258 . S
C388 C384 1.503 . S
C388 C389 1.379 . S
C388 C393 1.392 . S
C389 C388 1.379 . S
C389 C390 1.404 . S
C389 H403 0.929 . S
C390 C389 1.404 . S
C390 C391 1.389 . S
C391 C390 1.389 . S
C391 C392 1.399 . S
C391 H404 0.931 . S
C392 C391 1.399 . S
C392 C393 1.390 . S
C393 C388 1.392 . S
C393 C392 1.390 . S
C393 H405 0.929 . S
O394 Tb378 2.326 . S
O394 C382 1.242 . S
O395 Eu379 2.324 . S
O395 C382 1.258 . S
O396 Tb378 2.500 . S
O396 C398 1.273 . S
O397 Tb378 2.473 . S
O397 C398 1.257 . S
C398 O396 1.273 . S
C398 O397 1.257 . S
O399 Eu379 2.326 . S
O399 C387 1.242 . S
O400 Tb378 2.324 . S
O400 C387 1.258 . S
O401 Eu379 2.500 . S
O401 C384 1.273 . S
O402 Eu379 2.473 . S
O402 C384 1.257 . S
H403 C389 0.929 . S
H404 C391 0.931 . S
H405 C393 0.929 . S
O406 Tb407 2.292 . S
O406 C409 1.255 . S
Tb407 O406 2.292 . S
Tb407 O423 2.326 . S
Tb407 O425 2.500 . S
Tb407 O426 2.473 . S
Tb407 O429 2.324 . S
Eu408 O412 2.292 . S
Eu408 C413 2.852 . S
Eu408 O424 2.324 . S
Eu408 O428 2.326 . S
Eu408 O430 2.500 . S
Eu408 O431 2.473 . S
C409 O406 1.255 . S
C409 O410 1.247 . S
O410 C409 1.247 . S
C411 O423 1.242 . S
C411 O424 1.258 . S
O412 Eu408 2.292 . S
O412 C414 1.255 . S
C413 Eu408 2.852 . S
C413 C417 1.503 . S
C413 O430 1.273 . S
C413 O431 1.257 . S
C414 O412 1.255 . S
C414 O415 1.247 . S
O415 C414 1.247 . S
C416 O428 1.242 . S
C416 O429 1.258 . S
C417 C413 1.503 . S
C417 C418 1.379 . S
C417 C422 1.392 . S
C418 C417 1.379 . S
C418 C419 1.404 . S
C418 H432 0.929 . S
C419 C418 1.404 . S
C419 C420 1.389 . S
C420 C419 1.389 . S
C420 C421 1.399 . S
C420 H433 0.931 . S
C421 C420 1.399 . S
C421 C422 1.390 . S
C422 C417 1.392 . S
C422 C421 1.390 . S
C422 H434 0.929 . S
O423 Tb407 2.326 . S
O423 C411 1.242 . S
O424 Eu408 2.324 . S
O424 C411 1.258 . S
O425 Tb407 2.500 . S
O425 C427 1.273 . S
O426 Tb407 2.473 . S
O426 C427 1.257 . S
C427 O425 1.273 . S
C427 O426 1.257 . S
O428 Eu408 2.326 . S
O428 C416 1.242 . S
O429 Tb407 2.324 . S
O429 C416 1.258 . S
O430 Eu408 2.500 . S
O430 C413 1.273 . S
O431 Eu408 2.473 . S
O431 C413 1.257 . S
H432 C418 0.929 . S
H433 C420 0.931 . S
H434 C422 0.929 . S
O435 Tb436 2.292 . S
O435 C438 1.255 . S
Tb436 O435 2.292 . S
Tb436 O452 2.326 . S
Tb436 O454 2.500 . S
Tb436 O455 2.473 . S
Tb436 O458 2.324 . S
Eu437 O441 2.281 1_545 S
Eu437 C442 2.852 . S
Eu437 O453 2.324 . S
Eu437 O457 2.326 . S
Eu437 O459 2.500 . S
Eu437 O460 2.473 . S
C438 O435 1.255 . S
C438 O439 1.247 . S
O439 C438 1.247 . S
C440 O452 1.242 . S
C440 O453 1.258 . S
O441 Eu437 2.281 1_565 S
O441 C443 1.264 . S
C442 Eu437 2.852 . S
C442 C446 1.503 . S
C442 O459 1.273 . S
C442 O460 1.257 . S
C443 O441 1.264 . S
C443 O444 1.247 . S
O444 C443 1.247 . S
C445 O457 1.242 . S
C445 O458 1.258 . S
C446 C442 1.503 . S
C446 C447 1.379 . S
C446 C451 1.392 . S
C447 C446 1.379 . S
C447 C448 1.404 . S
C447 H461 0.929 . S
C448 C447 1.404 . S
C448 C449 1.389 . S
C449 C448 1.389 . S
C449 C450 1.399 . S
C449 H462 0.931 . S
C450 C449 1.399 . S
C450 C451 1.390 . S
C451 C446 1.392 . S
C451 C450 1.390 . S
C451 H463 0.929 . S
O452 Tb436 2.326 . S
O452 C440 1.242 . S
O453 Eu437 2.324 . S
O453 C440 1.258 . S
O454 Tb436 2.500 . S
O454 C456 1.273 . S
O455 Tb436 2.473 . S
O455 C456 1.257 . S
C456 O454 1.273 . S
C456 O455 1.257 . S
O457 Eu437 2.326 . S
O457 C445 1.242 . S
O458 Tb436 2.324 . S
O458 C445 1.258 . S
O459 Eu437 2.500 . S
O459 C442 1.273 . S
O460 Eu437 2.473 . S
O460 C442 1.257 . S
H461 C447 0.929 . S
H462 C449 0.931 . S
H463 C451 0.929 . S
O464 Tb465 2.292 . S
O464 C467 1.255 . S
Tb465 O464 2.292 . S
Tb465 O481 2.326 . S
Tb465 O483 2.500 . S
Tb465 O484 2.473 . S
Tb465 O487 2.324 . S
Eu466 O470 2.292 . S
Eu466 C471 2.852 . S
Eu466 O482 2.324 . S
Eu466 O486 2.326 . S
Eu466 O488 2.500 . S
Eu466 O489 2.473 . S
C467 O464 1.255 . S
C467 O468 1.247 . S
O468 C467 1.247 . S
C469 O481 1.242 . S
C469 O482 1.258 . S
O470 Eu466 2.292 . S
O470 C472 1.255 . S
C471 Eu466 2.852 . S
C471 C475 1.503 . S
C471 O488 1.273 . S
C471 O489 1.257 . S
C472 O470 1.255 . S
C472 O473 1.247 . S
O473 C472 1.247 . S
C474 O486 1.242 . S
C474 O487 1.258 . S
C475 C471 1.503 . S
C475 C476 1.379 . S
C475 C480 1.392 . S
C476 C475 1.379 . S
C476 C477 1.404 . S
C476 H490 0.929 . S
C477 C476 1.404 . S
C477 C478 1.389 . S
C478 C477 1.389 . S
C478 C479 1.399 . S
C478 H491 0.931 . S
C479 C478 1.399 . S
C479 C480 1.390 . S
C480 C475 1.392 . S
C480 C479 1.390 . S
C480 H492 0.929 . S
O481 Tb465 2.326 . S
O481 C469 1.242 . S
O482 Eu466 2.324 . S
O482 C469 1.258 . S
O483 Tb465 2.500 . S
O483 C485 1.273 . S
O484 Tb465 2.473 . S
O484 C485 1.257 . S
C485 O483 1.273 . S
C485 O484 1.257 . S
O486 Eu466 2.326 . S
O486 C474 1.242 . S
O487 Tb465 2.324 . S
O487 C474 1.258 . S
O488 Eu466 2.500 . S
O488 C471 1.273 . S
O489 Eu466 2.473 . S
O489 C471 1.257 . S
H490 C476 0.929 . S
H491 C478 0.931 . S
H492 C480 0.929 . S
O493 Tb494 2.292 1_545 S
O493 C496 1.255 . S
Tb494 O493 2.292 1_565 S
Tb494 O510 2.326 . S
Tb494 O512 2.500 . S
Tb494 O513 2.473 . S
Tb494 O516 2.324 . S
Eu495 O499 2.292 . S
Eu495 C500 2.852 . S
Eu495 O511 2.324 . S
Eu495 O515 2.326 . S
Eu495 O517 2.500 . S
Eu495 O518 2.473 . S
C496 O493 1.255 . S
C496 O497 1.247 . S
O497 C496 1.247 . S
C498 O510 1.242 . S
C498 O511 1.258 . S
O499 Eu495 2.292 . S
O499 C501 1.255 . S
C500 Eu495 2.852 . S
C500 C504 1.503 . S
C500 O517 1.273 . S
C500 O518 1.257 . S
C501 O499 1.255 . S
C501 O502 1.247 . S
O502 C501 1.247 . S
C503 O515 1.242 . S
C503 O516 1.258 . S
C504 C500 1.503 . S
C504 C505 1.379 . S
C504 C509 1.392 . S
C505 C504 1.379 . S
C505 C506 1.404 . S
C505 H519 0.929 . S
C506 C505 1.404 . S
C506 C507 1.389 . S
C507 C506 1.389 . S
C507 C508 1.399 . S
C507 H520 0.931 . S
C508 C507 1.399 . S
C508 C509 1.390 . S
C509 C504 1.392 . S
C509 C508 1.390 . S
C509 H521 0.929 . S
O510 Tb494 2.326 . S
O510 C498 1.242 . S
O511 Eu495 2.324 . S
O511 C498 1.258 . S
O512 Tb494 2.500 . S
O512 C514 1.273 . S
O513 Tb494 2.473 . S
O513 C514 1.257 . S
C514 O512 1.273 . S
C514 O513 1.257 . S
O515 Eu495 2.326 . S
O515 C503 1.242 . S
O516 Tb494 2.324 . S
O516 C503 1.258 . S
O517 Eu495 2.500 . S
O517 C500 1.273 . S
O518 Eu495 2.473 . S
O518 C500 1.257 . S
H519 C505 0.929 . S
H520 C507 0.931 . S
H521 C509 0.929 . S
O522 Tb523 2.292 1_545 S
O522 C525 1.255 . S
Tb523 O522 2.292 1_565 S
Tb523 O539 2.326 . S
Tb523 O541 2.500 . S
Tb523 O542 2.473 . S
Tb523 O545 2.324 . S
Eu524 O528 2.292 . S
Eu524 C529 2.852 . S
Eu524 O540 2.324 . S
Eu524 O544 2.326 . S
Eu524 O546 2.500 . S
Eu524 O547 2.473 . S
C525 O522 1.255 . S
C525 O526 1.247 . S
O526 C525 1.247 . S
C527 O539 1.242 . S
C527 O540 1.258 . S
O528 Eu524 2.292 . S
O528 C530 1.255 . S
C529 Eu524 2.852 . S
C529 C533 1.503 . S
C529 O546 1.273 . S
C529 O547 1.257 . S
C530 O528 1.255 . S
C530 O531 1.247 . S
O531 C530 1.247 . S
C532 O544 1.242 . S
C532 O545 1.258 . S
C533 C529 1.503 . S
C533 C534 1.379 . S
C533 C538 1.392 . S
C534 C533 1.379 . S
C534 C535 1.404 . S
C534 H548 0.929 . S
C535 C534 1.404 . S
C535 C536 1.389 . S
C536 C535 1.389 . S
C536 C537 1.399 . S
C536 H549 0.931 . S
C537 C536 1.399 . S
C537 C538 1.390 . S
C538 C533 1.392 . S
C538 C537 1.390 . S
C538 H550 0.929 . S
O539 Tb523 2.326 . S
O539 C527 1.242 . S
O540 Eu524 2.324 . S
O540 C527 1.258 . S
O541 Tb523 2.500 . S
O541 C543 1.273 . S
O542 Tb523 2.473 . S
O542 C543 1.257 . S
C543 O541 1.273 . S
C543 O542 1.257 . S
O544 Eu524 2.326 . S
O544 C532 1.242 . S
O545 Tb523 2.324 . S
O545 C532 1.258 . S
O546 Eu524 2.500 . S
O546 C529 1.273 . S
O547 Eu524 2.473 . S
O547 C529 1.257 . S
H548 C534 0.929 . S
H549 C536 0.931 . S
H550 C538 0.929 . S
O551 Tb552 2.292 . S
O551 C554 1.255 . S
Tb552 O551 2.292 . S
Tb552 O568 2.326 . S
Tb552 O570 2.500 . S
Tb552 O571 2.473 . S
Tb552 O574 2.324 . S
Eu553 O557 2.292 . S
Eu553 C558 2.852 . S
Eu553 O569 2.324 . S
Eu553 O573 2.326 . S
Eu553 O575 2.500 . S
Eu553 O576 2.473 . S
C554 O551 1.255 . S
C554 O555 1.247 . S
O555 C554 1.247 . S
C556 O568 1.242 . S
C556 O569 1.258 . S
O557 Eu553 2.292 . S
O557 C559 1.255 . S
C558 Eu553 2.852 . S
C558 C562 1.503 . S
C558 O575 1.273 . S
C558 O576 1.257 . S
C559 O557 1.255 . S
C559 O560 1.247 . S
O560 C559 1.247 . S
C561 O573 1.242 . S
C561 O574 1.258 . S
C562 C558 1.503 . S
C562 C563 1.379 . S
C562 C567 1.392 . S
C563 C562 1.379 . S
C563 C564 1.404 . S
C563 H577 0.929 . S
C564 C563 1.404 . S
C564 C565 1.389 . S
C565 C564 1.389 . S
C565 C566 1.399 . S
C565 H578 0.931 . S
C566 C565 1.399 . S
C566 C567 1.390 . S
C567 C562 1.392 . S
C567 C566 1.390 . S
C567 H579 0.929 . S
O568 Tb552 2.326 . S
O568 C556 1.242 . S
O569 Eu553 2.324 . S
O569 C556 1.258 . S
O570 Tb552 2.500 . S
O570 C572 1.273 . S
O571 Tb552 2.473 . S
O571 C572 1.257 . S
C572 O570 1.273 . S
C572 O571 1.257 . S
O573 Eu553 2.326 . S
O573 C561 1.242 . S
O574 Tb552 2.324 . S
O574 C561 1.258 . S
O575 Eu553 2.500 . S
O575 C558 1.273 . S
O576 Eu553 2.473 . S
O576 C558 1.257 . S
H577 C563 0.929 . S
H578 C565 0.931 . S
H579 C567 0.929 . S
O580 Tb581 2.292 . S
O580 C583 1.255 . S
Tb581 O580 2.292 . S
Tb581 O597 2.326 . S
Tb581 O599 2.500 . S
Tb581 O600 2.473 . S
Tb581 O603 2.324 . S
Eu582 O586 2.292 . S
Eu582 C587 2.852 . S
Eu582 O598 2.324 . S
Eu582 O602 2.326 . S
Eu582 O604 2.500 . S
Eu582 O605 2.473 . S
C583 O580 1.255 . S
C583 O584 1.247 . S
O584 C583 1.247 . S
C585 O597 1.242 . S
C585 O598 1.258 . S
O586 Eu582 2.292 . S
O586 C588 1.255 . S
C587 Eu582 2.852 . S
C587 C591 1.503 . S
C587 O604 1.273 . S
C587 O605 1.257 . S
C588 O586 1.255 . S
C588 O589 1.247 . S
O589 C588 1.247 . S
C590 O602 1.242 . S
C590 O603 1.258 . S
C591 C587 1.503 . S
C591 C592 1.379 . S
C591 C596 1.392 . S
C592 C591 1.379 . S
C592 C593 1.404 . S
C592 H606 0.929 . S
C593 C592 1.404 . S
C593 C594 1.389 . S
C594 C593 1.389 . S
C594 C595 1.399 . S
C594 H607 0.931 . S
C595 C594 1.399 . S
C595 C596 1.390 . S
C596 C591 1.392 . S
C596 C595 1.390 . S
C596 H608 0.929 . S
O597 Tb581 2.326 . S
O597 C585 1.242 . S
O598 Eu582 2.324 . S
O598 C585 1.258 . S
O599 Tb581 2.500 . S
O599 C601 1.273 . S
O600 Tb581 2.473 . S
O600 C601 1.257 . S
C601 O599 1.273 . S
C601 O600 1.257 . S
O602 Eu582 2.326 . S
O602 C590 1.242 . S
O603 Tb581 2.324 . S
O603 C590 1.258 . S
O604 Eu582 2.500 . S
O604 C587 1.273 . S
O605 Eu582 2.473 . S
O605 C587 1.257 . S
H606 C592 0.929 . S
H607 C594 0.931 . S
H608 C596 0.929 . S
O609 Tb610 2.292 1_565 S
O609 C612 1.255 . S
Tb610 O609 2.292 1_545 S
Tb610 O626 2.326 . S
Tb610 O628 2.500 . S
Tb610 O629 2.473 . S
Tb610 O632 2.324 . S
Eu611 O615 2.292 . S
Eu611 C616 2.852 . S
Eu611 O627 2.324 . S
Eu611 O631 2.326 . S
Eu611 O633 2.500 . S
Eu611 O634 2.473 . S
C612 O609 1.255 . S
C612 O613 1.247 . S
O613 C612 1.247 . S
C614 O626 1.242 . S
C614 O627 1.258 . S
O615 Eu611 2.292 . S
O615 C617 1.255 . S
C616 Eu611 2.852 . S
C616 C620 1.503 . S
C616 O633 1.273 . S
C616 O634 1.257 . S
C617 O615 1.255 . S
C617 O618 1.247 . S
O618 C617 1.247 . S
C619 O631 1.242 . S
C619 O632 1.258 . S
C620 C616 1.503 . S
C620 C621 1.379 . S
C620 C625 1.392 . S
C621 C620 1.379 . S
C621 C622 1.404 . S
C621 H635 0.929 . S
C622 C621 1.404 . S
C622 C623 1.389 . S
C623 C622 1.389 . S
C623 C624 1.399 . S
C623 H636 0.931 . S
C624 C623 1.399 . S
C624 C625 1.390 . S
C625 C620 1.392 . S
C625 C624 1.390 . S
C625 H637 0.929 . S
O626 Tb610 2.326 . S
O626 C614 1.242 . S
O627 Eu611 2.324 . S
O627 C614 1.258 . S
O628 Tb610 2.500 . S
O628 C630 1.273 . S
O629 Tb610 2.473 . S
O629 C630 1.257 . S
C630 O628 1.273 . S
C630 O629 1.257 . S
O631 Eu611 2.326 . S
O631 C619 1.242 . S
O632 Tb610 2.324 . S
O632 C619 1.258 . S
O633 Eu611 2.500 . S
O633 C616 1.273 . S
O634 Eu611 2.473 . S
O634 C616 1.257 . S
H635 C621 0.929 . S
H636 C623 0.931 . S
H637 C625 0.929 . S
O638 Tb639 2.292 1_565 S
O638 C641 1.255 . S
Tb639 O638 2.292 1_545 S
Tb639 O655 2.326 . S
Tb639 O657 2.500 . S
Tb639 O658 2.473 . S
Tb639 O661 2.324 . S
Eu640 O644 2.292 . S
Eu640 C645 2.852 . S
Eu640 O656 2.324 . S
Eu640 O660 2.326 . S
Eu640 O662 2.500 . S
Eu640 O663 2.473 . S
C641 O638 1.255 . S
C641 O642 1.247 . S
O642 C641 1.247 . S
C643 O655 1.242 . S
C643 O656 1.258 . S
O644 Eu640 2.292 . S
O644 C646 1.255 . S
C645 Eu640 2.852 . S
C645 C649 1.503 . S
C645 O662 1.273 . S
C645 O663 1.257 . S
C646 O644 1.255 . S
C646 O647 1.247 . S
O647 C646 1.247 . S
C648 O660 1.242 . S
C648 O661 1.258 . S
C649 C645 1.503 . S
C649 C650 1.379 . S
C649 C654 1.392 . S
C650 C649 1.379 . S
C650 C651 1.404 . S
C650 H664 0.929 . S
C651 C650 1.404 . S
C651 C652 1.389 . S
C652 C651 1.389 . S
C652 C653 1.399 . S
C652 H665 0.931 . S
C653 C652 1.399 . S
C653 C654 1.390 . S
C654 C649 1.392 . S
C654 C653 1.390 . S
C654 H666 0.929 . S
O655 Tb639 2.326 . S
O655 C643 1.242 . S
O656 Eu640 2.324 . S
O656 C643 1.258 . S
O657 Tb639 2.500 . S
O657 C659 1.273 . S
O658 Tb639 2.473 . S
O658 C659 1.257 . S
C659 O657 1.273 . S
C659 O658 1.257 . S
O660 Eu640 2.326 . S
O660 C648 1.242 . S
O661 Tb639 2.324 . S
O661 C648 1.258 . S
O662 Eu640 2.500 . S
O662 C645 1.273 . S
O663 Eu640 2.473 . S
O663 C645 1.257 . S
H664 C650 0.929 . S
H665 C652 0.931 . S
H666 C654 0.929 . S
O667 Tb668 2.292 . S
O667 C670 1.255 . S
Tb668 O667 2.292 . S
Tb668 O684 2.326 . S
Tb668 O686 2.500 . S
Tb668 O687 2.473 . S
Tb668 O690 2.324 . S
Eu669 O673 2.292 . S
Eu669 C674 2.852 . S
Eu669 O685 2.324 . S
Eu669 O689 2.326 . S
Eu669 O691 2.500 . S
Eu669 O692 2.473 . S
C670 O667 1.255 . S
C670 O671 1.247 . S
O671 C670 1.247 . S
C672 O684 1.242 . S
C672 O685 1.258 . S
O673 Eu669 2.292 . S
O673 C675 1.255 . S
C674 Eu669 2.852 . S
C674 C678 1.503 . S
C674 O691 1.273 . S
C674 O692 1.257 . S
C675 O673 1.255 . S
C675 O676 1.247 . S
O676 C675 1.247 . S
C677 O689 1.242 . S
C677 O690 1.258 . S
C678 C674 1.503 . S
C678 C679 1.379 . S
C678 C683 1.392 . S
C679 C678 1.379 . S
C679 C680 1.404 . S
C679 H693 0.929 . S
C680 C679 1.404 . S
C680 C681 1.389 . S
C681 C680 1.389 . S
C681 C682 1.399 . S
C681 H694 0.931 . S
C682 C681 1.399 . S
C682 C683 1.390 . S
C683 C678 1.392 . S
C683 C682 1.390 . S
C683 H695 0.929 . S
O684 Tb668 2.326 . S
O684 C672 1.242 . S
O685 Eu669 2.324 . S
O685 C672 1.258 . S
O686 Tb668 2.500 . S
O686 C688 1.273 . S
O687 Tb668 2.473 . S
O687 C688 1.257 . S
C688 O686 1.273 . S
C688 O687 1.257 . S
O689 Eu669 2.326 . S
O689 C677 1.242 . S
O690 Tb668 2.324 . S
O690 C677 1.258 . S
O691 Eu669 2.500 . S
O691 C674 1.273 . S
O692 Eu669 2.473 . S
O692 C674 1.257 . S
H693 C679 0.929 . S
H694 C681 0.931 . S
H695 C683 0.929 . S
O696 Tb697 2.292 . S
O696 C699 1.255 . S
Tb697 O696 2.292 . S
Tb697 O713 2.326 . S
Tb697 O715 2.500 . S
Tb697 O716 2.473 . S
Tb697 O719 2.324 . S
Eu698 O702 2.281 1_565 S
Eu698 C703 2.852 . S
Eu698 O714 2.324 . S
Eu698 O718 2.326 . S
Eu698 O720 2.500 . S
Eu698 O721 2.473 . S
C699 O696 1.255 . S
C699 O700 1.247 . S
O700 C699 1.247 . S
C701 O713 1.242 . S
C701 O714 1.258 . S
O702 Eu698 2.281 1_545 S
O702 C704 1.264 . S
C703 Eu698 2.852 . S
C703 C707 1.547 . S
C703 O720 1.273 . S
C703 O721 1.257 . S
C704 O702 1.264 . S
C704 O705 1.247 . S
O705 C704 1.247 . S
C706 O718 1.242 . S
C706 O719 1.258 . S
C707 C703 1.547 . S
C707 C708 1.351 1_554 S
C707 C712 1.377 1_554 S
C708 C707 1.351 1_556 S
C708 C709 1.404 . S
C708 H722 0.929 . S
C709 C708 1.404 . S
C709 C710 1.389 . S
C710 C709 1.389 . S
C710 C711 1.399 . S
C710 H723 0.931 . S
C711 C710 1.399 . S
C711 C712 1.390 . S
C712 C707 1.377 1_556 S
C712 C711 1.390 . S
C712 H724 0.929 1_556 S
O713 Tb697 2.326 . S
O713 C701 1.242 . S
O714 Eu698 2.324 . S
O714 C701 1.258 . S
O715 Tb697 2.500 . S
O715 C717 1.273 . S
O716 Tb697 2.473 . S
O716 C717 1.257 . S
C717 O715 1.273 . S
C717 O716 1.257 . S
O718 Eu698 2.326 . S
O718 C706 1.242 . S
O719 Tb697 2.324 . S
O719 C706 1.258 . S
O720 Eu698 2.500 . S
O720 C703 1.273 . S
O721 Eu698 2.473 . S
O721 C703 1.257 . S
H722 C708 0.929 . S
H723 C710 0.931 . S
H724 C712 0.929 1_554 S
O725 Tb726 2.292 . S
O725 C728 1.255 . S
Tb726 O725 2.292 . S
Tb726 O742 2.326 . S
Tb726 O744 2.500 . S
Tb726 O745 2.473 . S
Tb726 O748 2.324 . S
Eu727 O731 2.292 . S
Eu727 C732 2.852 . S
Eu727 O743 2.324 . S
Eu727 O747 2.326 . S
Eu727 O749 2.500 . S
Eu727 O750 2.473 . S
C728 O725 1.255 . S
C728 O729 1.247 . S
O729 C728 1.247 . S
C730 O742 1.242 . S
C730 O743 1.258 . S
O731 Eu727 2.292 . S
O731 C733 1.255 . S
C732 Eu727 2.852 . S
C732 C736 1.547 . S
C732 O749 1.273 . S
C732 O750 1.257 . S
C733 O731 1.255 . S
C733 O734 1.247 . S
O734 C733 1.247 . S
C735 O747 1.242 . S
C735 O748 1.258 . S
C736 C732 1.547 . S
C736 C737 1.351 1_554 S
C736 C741 1.377 1_554 S
C737 C736 1.351 1_556 S
C737 C738 1.404 . S
C737 H751 0.929 . S
C738 C737 1.404 . S
C738 C739 1.389 . S
C739 C738 1.389 . S
C739 C740 1.399 . S
C739 H752 0.931 . S
C740 C739 1.399 . S
C740 C741 1.390 . S
C741 C736 1.377 1_556 S
C741 C740 1.390 . S
C741 H753 0.929 1_556 S
O742 Tb726 2.326 . S
O742 C730 1.242 . S
O743 Eu727 2.324 . S
O743 C730 1.258 . S
O744 Tb726 2.500 . S
O744 C746 1.273 . S
O745 Tb726 2.473 . S
O745 C746 1.257 . S
C746 O744 1.273 . S
C746 O745 1.257 . S
O747 Eu727 2.326 . S
O747 C735 1.242 . S
O748 Tb726 2.324 . S
O748 C735 1.258 . S
O749 Eu727 2.500 . S
O749 C732 1.273 . S
O750 Eu727 2.473 . S
O750 C732 1.257 . S
H751 C737 0.929 . S
H752 C739 0.931 . S
H753 C741 0.929 1_554 S
O754 Tb755 2.292 . S
O754 C757 1.255 . S
Tb755 O754 2.292 . S
Tb755 O771 2.326 . S
Tb755 O773 2.500 . S
Tb755 O774 2.473 . S
Tb755 O777 2.324 . S
Eu756 O760 2.292 . S
Eu756 C761 2.852 . S
Eu756 O772 2.324 . S
Eu756 O776 2.326 . S
Eu756 O778 2.500 . S
Eu756 O779 2.473 . S
C757 O754 1.255 . S
C757 O758 1.247 . S
O758 C757 1.247 . S
C759 O771 1.242 . S
C759 O772 1.258 . S
O760 Eu756 2.292 . S
O760 C762 1.255 . S
C761 Eu756 2.852 . S
C761 C765 1.503 . S
C761 O778 1.273 . S
C761 O779 1.257 . S
C762 O760 1.255 . S
C762 O763 1.247 . S
O763 C762 1.247 . S
C764 O776 1.242 . S
C764 O777 1.258 . S
C765 C761 1.503 . S
C765 C766 1.379 . S
C765 C770 1.392 . S
C766 C765 1.379 . S
C766 C767 1.404 . S
C766 H780 0.929 . S
C767 C766 1.404 . S
C767 C768 1.389 . S
C768 C767 1.389 . S
C768 C769 1.399 . S
C768 H781 0.931 . S
C769 C768 1.399 . S
C769 C770 1.390 . S
C770 C765 1.392 . S
C770 C769 1.390 . S
C770 H782 0.929 . S
O771 Tb755 2.326 . S
O771 C759 1.242 . S
O772 Eu756 2.324 . S
O772 C759 1.258 . S
O773 Tb755 2.500 . S
O773 C775 1.273 . S
O774 Tb755 2.473 . S
O774 C775 1.257 . S
C775 O773 1.273 . S
C775 O774 1.257 . S
O776 Eu756 2.326 . S
O776 C764 1.242 . S
O777 Tb755 2.324 . S
O777 C764 1.258 . S
O778 Eu756 2.500 . S
O778 C761 1.273 . S
O779 Eu756 2.473 . S
O779 C761 1.257 . S
H780 C766 0.929 . S
H781 C768 0.931 . S
H782 C770 0.929 . S
O783 Tb784 2.292 . S
O783 C786 1.255 . S
Tb784 O783 2.292 . S
Tb784 O800 2.326 . S
Tb784 O802 2.500 . S
Tb784 O803 2.473 . S
Tb784 O806 2.324 . S
Eu785 O789 2.281 1_565 S
Eu785 C790 2.852 . S
Eu785 O801 2.324 . S
Eu785 O805 2.326 . S
Eu785 O807 2.500 . S
Eu785 O808 2.473 . S
C786 O783 1.255 . S
C786 O787 1.247 . S
O787 C786 1.247 . S
C788 O800 1.242 . S
C788 O801 1.258 . S
O789 Eu785 2.281 1_545 S
O789 C791 1.264 . S
C790 Eu785 2.852 . S
C790 C794 1.503 . S
C790 O807 1.273 . S
C790 O808 1.257 . S
C791 O789 1.264 . S
C791 O792 1.247 . S
O792 C791 1.247 . S
C793 O805 1.242 . S
C793 O806 1.258 . S
C794 C790 1.503 . S
C794 C795 1.379 . S
C794 C799 1.392 . S
C795 C794 1.379 . S
C795 C796 1.404 . S
C795 H809 0.929 . S
C796 C795 1.404 . S
C796 C797 1.389 . S
C797 C796 1.389 . S
C797 C798 1.399 . S
C797 H810 0.931 . S
C798 C797 1.399 . S
C798 C799 1.390 . S
C799 C794 1.392 . S
C799 C798 1.390 . S
C799 H811 0.929 . S
O800 Tb784 2.326 . S
O800 C788 1.242 . S
O801 Eu785 2.324 . S
O801 C788 1.258 . S
O802 Tb784 2.500 . S
O802 C804 1.273 . S
O803 Tb784 2.473 . S
O803 C804 1.257 . S
C804 O802 1.273 . S
C804 O803 1.257 . S
O805 Eu785 2.326 . S
O805 C793 1.242 . S
O806 Tb784 2.324 . S
O806 C793 1.258 . S
O807 Eu785 2.500 . S
O807 C790 1.273 . S
O808 Eu785 2.473 . S
O808 C790 1.257 . S
H809 C795 0.929 . S
H810 C797 0.931 . S
H811 C799 0.929 . S
O812 Tb813 2.292 . S
O812 C815 1.255 . S
Tb813 O812 2.292 . S
Tb813 O829 2.326 . S
Tb813 O831 2.500 . S
Tb813 O832 2.473 . S
Tb813 O835 2.324 . S
Eu814 O818 2.281 1_545 S
Eu814 C819 2.852 . S
Eu814 O830 2.324 . S
Eu814 O834 2.326 . S
Eu814 O836 2.500 . S
Eu814 O837 2.473 . S
C815 O812 1.255 . S
C815 O816 1.247 . S
O816 C815 1.247 . S
C817 O829 1.242 . S
C817 O830 1.258 . S
O818 Eu814 2.281 1_565 S
O818 C820 1.264 . S
C819 Eu814 2.852 . S
C819 C823 1.547 . S
C819 O836 1.273 . S
C819 O837 1.257 . S
C820 O818 1.264 . S
C820 O821 1.247 . S
O821 C820 1.247 . S
C822 O834 1.242 . S
C822 O835 1.258 . S
C823 C819 1.547 . S
C823 C824 1.351 1_556 S
C823 C828 1.377 1_556 S
C824 C823 1.351 1_554 S
C824 C825 1.404 . S
C824 H838 0.929 . S
C825 C824 1.404 . S
C825 C826 1.389 . S
C826 C825 1.389 . S
C826 C827 1.399 . S
C826 H839 0.931 . S
C827 C826 1.399 . S
C827 C828 1.390 . S
C828 C823 1.377 1_554 S
C828 C827 1.390 . S
C828 H840 0.929 1_554 S
O829 Tb813 2.326 . S
O829 C817 1.242 . S
O830 Eu814 2.324 . S
O830 C817 1.258 . S
O831 Tb813 2.500 . S
O831 C833 1.273 . S
O832 Tb813 2.473 . S
O832 C833 1.257 . S
C833 O831 1.273 . S
C833 O832 1.257 . S
O834 Eu814 2.326 . S
O834 C822 1.242 . S
O835 Tb813 2.324 . S
O835 C822 1.258 . S
O836 Eu814 2.500 . S
O836 C819 1.273 . S
O837 Eu814 2.473 . S
O837 C819 1.257 . S
H838 C824 0.929 . S
H839 C826 0.931 . S
H840 C828 0.929 1_556 S
O841 Tb842 2.292 . S
O841 C844 1.255 . S
Tb842 O841 2.292 . S
Tb842 O858 2.326 . S
Tb842 O860 2.500 . S
Tb842 O861 2.473 . S
Tb842 O864 2.324 . S
Eu843 O847 2.292 . S
Eu843 C848 2.852 . S
Eu843 O859 2.324 . S
Eu843 O863 2.326 . S
Eu843 O865 2.500 . S
Eu843 O866 2.473 . S
C844 O841 1.255 . S
C844 O845 1.247 . S
O845 C844 1.247 . S
C846 O858 1.242 . S
C846 O859 1.258 . S
O847 Eu843 2.292 . S
O847 C849 1.255 . S
C848 Eu843 2.852 . S
C848 C852 1.547 . S
C848 O865 1.273 . S
C848 O866 1.257 . S
C849 O847 1.255 . S
C849 O850 1.247 . S
O850 C849 1.247 . S
C851 O863 1.242 . S
C851 O864 1.258 . S
C852 C848 1.547 . S
C852 C853 1.351 1_556 S
C852 C857 1.377 1_556 S
C853 C852 1.351 1_554 S
C853 C854 1.404 . S
C853 H867 0.929 . S
C854 C853 1.404 . S
C854 C855 1.389 . S
C855 C854 1.389 . S
C855 C856 1.399 . S
C855 H868 0.931 . S
C856 C855 1.399 . S
C856 C857 1.390 . S
C857 C852 1.377 1_554 S
C857 C856 1.390 . S
C857 H869 0.929 1_554 S
O858 Tb842 2.326 . S
O858 C846 1.242 . S
O859 Eu843 2.324 . S
O859 C846 1.258 . S
O860 Tb842 2.500 . S
O860 C862 1.273 . S
O861 Tb842 2.473 . S
O861 C862 1.257 . S
C862 O860 1.273 . S
C862 O861 1.257 . S
O863 Eu843 2.326 . S
O863 C851 1.242 . S
O864 Tb842 2.324 . S
O864 C851 1.258 . S
O865 Eu843 2.500 . S
O865 C848 1.273 . S
O866 Eu843 2.473 . S
O866 C848 1.257 . S
H867 C853 0.929 . S
H868 C855 0.931 . S
H869 C857 0.929 1_556 S
O870 Tb871 2.292 . S
O870 C873 1.255 . S
Tb871 O870 2.292 . S
Tb871 O887 2.326 . S
Tb871 O889 2.500 . S
Tb871 O890 2.473 . S
Tb871 O893 2.324 . S
Eu872 O876 2.292 . S
Eu872 C877 2.852 . S
Eu872 O888 2.324 . S
Eu872 O892 2.326 . S
Eu872 O894 2.500 . S
Eu872 O895 2.473 . S
C873 O870 1.255 . S
C873 O874 1.247 . S
O874 C873 1.247 . S
C875 O887 1.242 . S
C875 O888 1.258 . S
O876 Eu872 2.292 . S
O876 C878 1.255 . S
C877 Eu872 2.852 . S
C877 C881 1.503 . S
C877 O894 1.273 . S
C877 O895 1.257 . S
C878 O876 1.255 . S
C878 O879 1.247 . S
O879 C878 1.247 . S
C880 O892 1.242 . S
C880 O893 1.258 . S
C881 C877 1.503 . S
C881 C882 1.379 . S
C881 C886 1.392 . S
C882 C881 1.379 . S
C882 C883 1.404 . S
C882 H896 0.929 . S
C883 C882 1.404 . S
C883 C884 1.389 . S
C884 C883 1.389 . S
C884 C885 1.399 . S
C884 H897 0.931 . S
C885 C884 1.399 . S
C885 C886 1.390 . S
C886 C881 1.392 . S
C886 C885 1.390 . S
C886 H898 0.929 . S
O887 Tb871 2.326 . S
O887 C875 1.242 . S
O888 Eu872 2.324 . S
O888 C875 1.258 . S
O889 Tb871 2.500 . S
O889 C891 1.273 . S
O890 Tb871 2.473 . S
O890 C891 1.257 . S
C891 O889 1.273 . S
C891 O890 1.257 . S
O892 Eu872 2.326 . S
O892 C880 1.242 . S
O893 Tb871 2.324 . S
O893 C880 1.258 . S
O894 Eu872 2.500 . S
O894 C877 1.273 . S
O895 Eu872 2.473 . S
O895 C877 1.257 . S
H896 C882 0.929 . S
H897 C884 0.931 . S
H898 C886 0.929 . S
O899 Tb900 2.292 . S
O899 C902 1.255 . S
Tb900 O899 2.292 . S
Tb900 O916 2.326 . S
Tb900 O918 2.500 . S
Tb900 O919 2.473 . S
Tb900 O922 2.324 . S
Eu901 O905 2.281 1_545 S
Eu901 C906 2.852 . S
Eu901 O917 2.324 . S
Eu901 O921 2.326 . S
Eu901 O923 2.500 . S
Eu901 O924 2.473 . S
C902 O899 1.255 . S
C902 O903 1.247 . S
O903 C902 1.247 . S
C904 O916 1.242 . S
C904 O917 1.258 . S
O905 Eu901 2.281 1_565 S
O905 C907 1.264 . S
C906 Eu901 2.852 . S
C906 C910 1.503 . S
C906 O923 1.273 . S
C906 O924 1.257 . S
C907 O905 1.264 . S
C907 O908 1.247 . S
O908 C907 1.247 . S
C909 O921 1.242 . S
C909 O922 1.258 . S
C910 C906 1.503 . S
C910 C911 1.379 . S
C910 C915 1.392 . S
C911 C910 1.379 . S
C911 C912 1.404 . S
C911 H925 0.929 . S
C912 C911 1.404 . S
C912 C913 1.389 . S
C913 C912 1.389 . S
C913 C914 1.399 . S
C913 H926 0.931 . S
C914 C913 1.399 . S
C914 C915 1.390 . S
C915 C910 1.392 . S
C915 C914 1.390 . S
C915 H927 0.929 . S
O916 Tb900 2.326 . S
O916 C904 1.242 . S
O917 Eu901 2.324 . S
O917 C904 1.258 . S
O918 Tb900 2.500 . S
O918 C920 1.273 . S
O919 Tb900 2.473 . S
O919 C920 1.257 . S
C920 O918 1.273 . S
C920 O919 1.257 . S
O921 Eu901 2.326 . S
O921 C909 1.242 . S
O922 Tb900 2.324 . S
O922 C909 1.258 . S
O923 Eu901 2.500 . S
O923 C906 1.273 . S
O924 Eu901 2.473 . S
O924 C906 1.257 . S
H925 C911 0.929 . S
H926 C913 0.931 . S
H927 C915 0.929 . S
C928 C929 1.387 . S
C928 H932 0.950 . S
C928 C937 1.390 . S
C929 C928 1.387 . S
C929 C931 1.387 . S
H930 C937 0.950 . S
C931 C929 1.387 . S
C931 C933 1.390 . S
C931 H935 0.950 . S
H932 C928 0.950 . S
C933 C931 1.390 . S
C933 C934 1.387 . S
C933 H936 0.950 . S
C934 C933 1.387 . S
C934 C937 1.387 . S
H935 C931 0.950 . S
H936 C933 0.950 . S
C937 C928 1.390 . S
C937 H930 0.950 . S
C937 C934 1.387 . S
C938 C939 1.387 . S
C938 H942 0.950 . S
C938 C947 1.390 . S
C939 C938 1.387 . S
C939 C941 1.387 . S
H940 C947 0.950 . S
C941 C939 1.387 . S
C941 C943 1.390 . S
C941 H945 0.950 . S
H942 C938 0.950 . S
C943 C941 1.390 . S
C943 C944 1.387 . S
C943 H946 0.950 . S
C944 C943 1.387 . S
C944 C947 1.387 . S
H945 C941 0.950 . S
H946 C943 0.950 . S
C947 C938 1.390 . S
C947 H940 0.950 . S
C947 C944 1.387 . S
C948 C949 1.387 . S
C948 H952 0.950 . S
C948 C957 1.390 . S
C949 C948 1.387 . S
C949 C951 1.387 . S
H950 C957 0.950 . S
C951 C949 1.387 . S
C951 C953 1.390 . S
C951 H955 0.950 . S
H952 C948 0.950 . S
C953 C951 1.390 . S
C953 C954 1.387 . S
C953 H956 0.950 . S
C954 C953 1.387 . S
C954 C957 1.387 . S
H955 C951 0.950 . S
H956 C953 0.950 . S
C957 C948 1.390 . S
C957 H950 0.950 . S
C957 C954 1.387 . S
C958 C959 1.387 . S
C958 H962 0.950 . S
C958 C967 1.390 . S
C959 C958 1.387 . S
C959 C961 1.387 . S
H960 C967 0.950 . S
C961 C959 1.387 . S
C961 C963 1.390 . S
C961 H965 0.950 . S
H962 C958 0.950 . S
C963 C961 1.390 . S
C963 C964 1.387 . S
C963 H966 0.950 . S
C964 C963 1.387 . S
C964 C967 1.387 . S
H965 C961 0.950 . S
H966 C963 0.950 . S
C967 C958 1.390 . S
C967 H960 0.950 . S
C967 C964 1.387 . S
C968 C969 1.387 . S
C968 H972 0.950 . S
C968 C977 1.390 . S
C969 C968 1.387 . S
C969 C971 1.387 . S
H970 C977 0.950 . S
C971 C969 1.387 . S
C971 C973 1.390 . S
C971 H975 0.950 . S
H972 C968 0.950 . S
C973 C971 1.390 . S
C973 C974 1.387 . S
C973 H976 0.950 . S
C974 C973 1.387 . S
C974 C977 1.387 . S
H975 C971 0.950 . S
H976 C973 0.950 . S
C977 C968 1.390 . S
C977 H970 0.950 . S
C977 C974 1.387 . S
C978 C979 1.387 . S
C978 H982 0.950 . S
C978 C987 1.390 . S
C979 C978 1.387 . S
C979 C981 1.387 . S
H980 C987 0.950 . S
C981 C979 1.387 . S
C981 C983 1.390 . S
C981 H985 0.950 . S
H982 C978 0.950 . S
C983 C981 1.390 . S
C983 C984 1.387 . S
C983 H986 0.950 . S
C984 C983 1.387 . S
C984 C987 1.387 . S
H985 C981 0.950 . S
H986 C983 0.950 . S
C987 C978 1.390 . S
C987 H980 0.950 . S
C987 C984 1.387 . S
C988 C989 1.387 . S
C988 H992 0.950 . S
C988 C997 1.390 . S
C989 C988 1.387 . S
C989 C991 1.387 . S
H990 C997 0.950 . S
C991 C989 1.387 . S
C991 C993 1.390 . S
C991 H995 0.950 . S
H992 C988 0.950 . S
C993 C991 1.390 . S
C993 C994 1.387 . S
C993 H996 0.950 . S
C994 C993 1.387 . S
C994 C997 1.387 . S
H995 C991 0.950 . S
H996 C993 0.950 . S
C997 C988 1.390 . S
C997 H990 0.950 . S
C997 C994 1.387 . S
C998 C999 1.387 . S
C998 H1002 0.950 . S
C998 C1007 1.390 . S
C999 C998 1.387 . S
C999 C1001 1.387 . S
H1000 C1007 0.950 . S
C1001 C999 1.387 . S
C1001 C1003 1.390 . S
C1001 H1005 0.950 . S
H1002 C998 0.950 . S
C1003 C1001 1.390 . S
C1003 C1004 1.387 . S
C1003 H1006 0.950 . S
C1004 C1003 1.387 . S
C1004 C1007 1.387 . S
H1005 C1001 0.950 . S
H1006 C1003 0.950 . S
C1007 C998 1.390 . S
C1007 H1000 0.950 . S
C1007 C1004 1.387 . S
C1008 C1009 1.387 . S
C1008 H1012 0.950 . S
C1008 C1017 1.390 . S
C1009 C1008 1.387 . S
C1009 C1011 1.387 . S
H1010 C1017 0.950 . S
C1011 C1009 1.387 . S
C1011 C1013 1.390 . S
C1011 H1015 0.950 . S
H1012 C1008 0.950 . S
C1013 C1011 1.390 . S
C1013 C1014 1.387 . S
C1013 H1016 0.950 . S
C1014 C1013 1.387 . S
C1014 C1017 1.387 . S
H1015 C1011 0.950 . S
H1016 C1013 0.950 . S
C1017 C1008 1.390 . S
C1017 H1010 0.950 . S
C1017 C1014 1.387 . S
C1018 C1019 1.387 . S
C1018 H1022 0.950 . S
C1018 C1027 1.390 . S
C1019 C1018 1.387 . S
C1019 C1021 1.387 . S
H1020 C1027 0.950 . S
C1021 C1019 1.387 . S
C1021 C1023 1.390 . S
C1021 H1025 0.950 . S
H1022 C1018 0.950 . S
C1023 C1021 1.390 . S
C1023 C1024 1.387 . S
C1023 H1026 0.950 . S
C1024 C1023 1.387 . S
C1024 C1027 1.387 . S
H1025 C1021 0.950 . S
H1026 C1023 0.950 . S
C1027 C1018 1.390 . S
C1027 H1020 0.950 . S
C1027 C1024 1.387 . S
C1028 C1029 1.387 . S
C1028 H1032 0.950 . S
C1028 C1037 1.390 . S
C1029 C1028 1.387 . S
C1029 C1031 1.387 . S
H1030 C1037 0.950 . S
C1031 C1029 1.387 . S
C1031 C1033 1.390 . S
C1031 H1035 0.950 . S
H1032 C1028 0.950 . S
C1033 C1031 1.390 . S
C1033 C1034 1.387 . S
C1033 H1036 0.950 . S
C1034 C1033 1.387 . S
C1034 C1037 1.387 . S
H1035 C1031 0.950 . S
H1036 C1033 0.950 . S
C1037 C1028 1.390 . S
C1037 H1030 0.950 . S
C1037 C1034 1.387 . S
C1038 C1039 1.387 . S
C1038 H1042 0.950 . S
C1038 C1047 1.390 . S
C1039 C1038 1.387 . S
C1039 C1041 1.387 . S
H1040 C1047 0.950 . S
C1041 C1039 1.387 . S
C1041 C1043 1.390 . S
C1041 H1045 0.950 . S
H1042 C1038 0.950 . S
C1043 C1041 1.390 . S
C1043 C1044 1.387 . S
C1043 H1046 0.950 . S
C1044 C1043 1.387 . S
C1044 C1047 1.387 . S
H1045 C1041 0.950 . S
H1046 C1043 0.950 . S
C1047 C1038 1.390 . S
C1047 H1040 0.950 . S
C1047 C1044 1.387 . S
C1048 C1049 1.387 . S
C1048 H1052 0.950 . S
C1048 C1057 1.390 . S
C1049 C1048 1.387 . S
C1049 C1051 1.387 . S
H1050 C1057 0.950 . S
C1051 C1049 1.387 . S
C1051 C1053 1.390 . S
C1051 H1055 0.950 . S
H1052 C1048 0.950 . S
C1053 C1051 1.390 . S
C1053 C1054 1.387 . S
C1053 H1056 0.950 . S
C1054 C1053 1.387 . S
C1054 C1057 1.387 . S
H1055 C1051 0.950 . S
H1056 C1053 0.950 . S
C1057 C1048 1.390 . S
C1057 H1050 0.950 . S
C1057 C1054 1.387 . S
C1058 C1059 1.387 . S
C1058 H1062 0.950 . S
C1058 C1067 1.390 . S
C1059 C1058 1.387 . S
C1059 C1061 1.387 . S
H1060 C1067 0.950 . S
C1061 C1059 1.387 . S
C1061 C1063 1.390 . S
C1061 H1065 0.950 . S
H1062 C1058 0.950 . S
C1063 C1061 1.390 . S
C1063 C1064 1.387 . S
C1063 H1066 0.950 . S
C1064 C1063 1.387 . S
C1064 C1067 1.387 . S
H1065 C1061 0.950 . S
H1066 C1063 0.950 . S
C1067 C1058 1.390 . S
C1067 H1060 0.950 . S
C1067 C1064 1.387 . S
C1068 C1069 1.387 . S
C1068 H1072 0.950 . S
C1068 C1077 1.390 . S
C1069 C1068 1.387 . S
C1069 C1071 1.387 . S
H1070 C1077 0.950 . S
C1071 C1069 1.387 . S
C1071 C1073 1.390 . S
C1071 H1075 0.950 . S
H1072 C1068 0.950 . S
C1073 C1071 1.390 . S
C1073 C1074 1.387 . S
C1073 H1076 0.950 . S
C1074 C1073 1.387 . S
C1074 C1077 1.387 . S
H1075 C1071 0.950 . S
H1076 C1073 0.950 . S
C1077 C1068 1.390 . S
C1077 H1070 0.950 . S
C1077 C1074 1.387 . S
C1078 C1079 1.387 . S
C1078 H1082 0.950 . S
C1078 C1087 1.390 . S
C1079 C1078 1.387 . S
C1079 C1081 1.387 . S
H1080 C1087 0.950 . S
C1081 C1079 1.387 . S
C1081 C1083 1.390 . S
C1081 H1085 0.950 . S
H1082 C1078 0.950 . S
C1083 C1081 1.390 . S
C1083 C1084 1.387 . S
C1083 H1086 0.950 . S
C1084 C1083 1.387 . S
C1084 C1087 1.387 . S
H1085 C1081 0.950 . S
H1086 C1083 0.950 . S
C1087 C1078 1.390 . S
C1087 H1080 0.950 . S
C1087 C1084 1.387 . S
C1088 C1089 1.387 . S
C1088 H1092 0.950 . S
C1088 C1097 1.390 . S
C1089 C1088 1.387 . S
C1089 C1091 1.387 . S
H1090 C1097 0.950 . S
C1091 C1089 1.387 . S
C1091 C1093 1.390 . S
C1091 H1095 0.950 . S
H1092 C1088 0.950 . S
C1093 C1091 1.390 . S
C1093 C1094 1.387 . S
C1093 H1096 0.950 . S
C1094 C1093 1.387 . S
C1094 C1097 1.387 . S
H1095 C1091 0.950 . S
H1096 C1093 0.950 . S
C1097 C1088 1.390 . S
C1097 H1090 0.950 . S
C1097 C1094 1.387 . S
C1098 C1099 1.387 . S
C1098 H1102 0.950 . S
C1098 C1107 1.390 . S
C1099 C1098 1.387 . S
C1099 C1101 1.387 . S
H1100 C1107 0.950 . S
C1101 C1099 1.387 . S
C1101 C1103 1.390 . S
C1101 H1105 0.950 . S
H1102 C1098 0.950 . S
C1103 C1101 1.390 . S
C1103 C1104 1.387 . S
C1103 H1106 0.950 . S
C1104 C1103 1.387 . S
C1104 C1107 1.387 . S
H1105 C1101 0.950 . S
H1106 C1103 0.950 . S
C1107 C1098 1.390 . S
C1107 H1100 0.950 . S
C1107 C1104 1.387 . S
C1108 C1109 1.387 . S
C1108 H1112 0.950 . S
C1108 C1117 1.390 . S
C1109 C1108 1.387 . S
C1109 C1111 1.387 . S
H1110 C1117 0.950 . S
C1111 C1109 1.387 . S
C1111 C1113 1.390 . S
C1111 H1115 0.950 1_556 S
H1112 C1108 0.950 . S
C1113 C1111 1.390 . S
C1113 C1114 1.387 . S
C1113 H1116 0.950 1_556 S
C1114 C1113 1.387 . S
C1114 C1117 1.387 . S
H1115 C1111 0.950 1_554 S
H1116 C1113 0.950 1_554 S
C1117 C1108 1.390 . S
C1117 H1110 0.950 . S
C1117 C1114 1.387 . S
C1118 C1119 1.387 . S
C1118 H1122 0.950 . S
C1118 C1127 1.390 . S
C1119 C1118 1.387 . S
C1119 C1121 1.387 . S
H1120 C1127 0.950 . S
C1121 C1119 1.387 . S
C1121 C1123 1.390 . S
C1121 H1125 0.950 . S
H1122 C1118 0.950 . S
C1123 C1121 1.390 . S
C1123 C1124 1.387 . S
C1123 H1126 0.950 . S
C1124 C1123 1.387 . S
C1124 C1127 1.387 . S
H1125 C1121 0.950 . S
H1126 C1123 0.950 . S
C1127 C1118 1.390 . S
C1127 H1120 0.950 . S
C1127 C1124 1.387 . S
C1128 C1129 1.387 . S
C1128 H1132 0.950 . S
C1128 C1137 1.390 . S
C1129 C1128 1.387 . S
C1129 C1131 1.387 . S
H1130 C1137 0.950 . S
C1131 C1129 1.387 . S
C1131 C1133 1.390 . S
C1131 H1135 0.950 . S
H1132 C1128 0.950 . S
C1133 C1131 1.390 . S
C1133 C1134 1.387 . S
C1133 H1136 0.950 . S
C1134 C1133 1.387 . S
C1134 C1137 1.387 . S
H1135 C1131 0.950 . S
H1136 C1133 0.950 . S
C1137 C1128 1.390 . S
C1137 H1130 0.950 . S
C1137 C1134 1.387 . S
C1138 C1139 1.387 . S
C1138 H1142 0.950 . S
C1138 C1147 1.390 . S
C1139 C1138 1.387 . S
C1139 C1141 1.387 . S
H1140 C1147 0.950 . S
C1141 C1139 1.387 . S
C1141 C1143 1.390 . S
C1141 H1145 0.950 . S
H1142 C1138 0.950 . S
C1143 C1141 1.390 . S
C1143 C1144 1.387 . S
C1143 H1146 0.950 . S
C1144 C1143 1.387 . S
C1144 C1147 1.387 . S
H1145 C1141 0.950 . S
H1146 C1143 0.950 . S
C1147 C1138 1.390 . S
C1147 H1140 0.950 . S
C1147 C1144 1.387 . S
C1148 C1149 1.387 . S
C1148 H1152 0.950 . S
C1148 C1157 1.390 . S
C1149 C1148 1.387 . S
C1149 C1151 1.387 . S
H1150 C1157 0.950 . S
C1151 C1149 1.387 . S
C1151 C1153 1.390 . S
C1151 H1155 0.950 . S
H1152 C1148 0.950 . S
C1153 C1151 1.390 . S
C1153 C1154 1.387 . S
C1153 H1156 0.950 . S
C1154 C1153 1.387 . S
C1154 C1157 1.387 . S
H1155 C1151 0.950 . S
H1156 C1153 0.950 . S
C1157 C1148 1.390 . S
C1157 H1150 0.950 . S
C1157 C1154 1.387 . S
C1158 C1159 1.387 . S
C1158 H1162 0.950 . S
C1158 C1167 1.390 . S
C1159 C1158 1.387 . S
C1159 C1161 1.387 . S
H1160 C1167 0.950 . S
C1161 C1159 1.387 . S
C1161 C1163 1.390 . S
C1161 H1165 0.950 . S
H1162 C1158 0.950 . S
C1163 C1161 1.390 . S
C1163 C1164 1.387 . S
C1163 H1166 0.950 . S
C1164 C1163 1.387 . S
C1164 C1167 1.387 . S
H1165 C1161 0.950 . S
H1166 C1163 0.950 . S
C1167 C1158 1.390 . S
C1167 H1160 0.950 . S
C1167 C1164 1.387 . S
C1168 C1169 1.387 . S
C1168 H1172 0.950 . S
C1168 C1177 1.390 . S
C1169 C1168 1.387 . S
C1169 C1171 1.387 . S
H1170 C1177 0.950 . S
C1171 C1169 1.387 . S
C1171 C1173 1.390 . S
C1171 H1175 0.950 . S
H1172 C1168 0.950 . S
C1173 C1171 1.390 . S
C1173 C1174 1.387 . S
C1173 H1176 0.950 . S
C1174 C1173 1.387 . S
C1174 C1177 1.387 . S
H1175 C1171 0.950 . S
H1176 C1173 0.950 . S
C1177 C1168 1.390 . S
C1177 H1170 0.950 . S
C1177 C1174 1.387 . S
C1178 C1179 1.387 . S
C1178 H1182 0.950 . S
C1178 C1187 1.390 . S
C1179 C1178 1.387 . S
C1179 C1181 1.387 . S
H1180 C1187 0.950 . S
C1181 C1179 1.387 . S
C1181 C1183 1.390 . S
C1181 H1185 0.950 . S
H1182 C1178 0.950 . S
C1183 C1181 1.390 . S
C1183 C1184 1.387 . S
C1183 H1186 0.950 . S
C1184 C1183 1.387 . S
C1184 C1187 1.387 . S
H1185 C1181 0.950 . S
H1186 C1183 0.950 . S
C1187 C1178 1.390 . S
C1187 H1180 0.950 . S
C1187 C1184 1.387 . S
C1188 C1189 1.387 . S
C1188 H1192 0.950 . S
C1188 C1197 1.390 . S
C1189 C1188 1.387 . S
C1189 C1191 1.387 . S
H1190 C1197 0.950 . S
C1191 C1189 1.387 . S
C1191 C1193 1.390 . S
C1191 H1195 0.950 . S
H1192 C1188 0.950 . S
C1193 C1191 1.390 . S
C1193 C1194 1.387 . S
C1193 H1196 0.950 . S
C1194 C1193 1.387 . S
C1194 C1197 1.387 . S
H1195 C1191 0.950 . S
H1196 C1193 0.950 . S
C1197 C1188 1.390 . S
C1197 H1190 0.950 . S
C1197 C1194 1.387 . S
C1198 C1199 1.387 . S
C1198 H1202 0.950 . S
C1198 C1207 1.390 . S
C1199 C1198 1.387 . S
C1199 C1201 1.387 . S
H1200 C1207 0.950 . S
C1201 C1199 1.387 . S
C1201 C1203 1.390 . S
C1201 H1205 0.950 . S
H1202 C1198 0.950 . S
C1203 C1201 1.390 . S
C1203 C1204 1.387 . S
C1203 H1206 0.950 . S
C1204 C1203 1.387 . S
C1204 C1207 1.387 . S
H1205 C1201 0.950 . S
H1206 C1203 0.950 . S
C1207 C1198 1.390 . S
C1207 H1200 0.950 . S
C1207 C1204 1.387 . S
C1208 C1209 1.387 . S
C1208 H1212 0.950 . S
C1208 C1217 1.390 . S
C1209 C1208 1.387 . S
C1209 C1211 1.387 . S
H1210 C1217 0.950 . S
C1211 C1209 1.387 . S
C1211 C1213 1.390 . S
C1211 H1215 0.950 1_554 S
H1212 C1208 0.950 . S
C1213 C1211 1.390 . S
C1213 C1214 1.387 . S
C1213 H1216 0.950 1_554 S
C1214 C1213 1.387 . S
C1214 C1217 1.387 . S
H1215 C1211 0.950 1_556 S
H1216 C1213 0.950 1_556 S
C1217 C1208 1.390 . S
C1217 H1210 0.950 . S
C1217 C1214 1.387 . S
C1218 C1219 1.387 . S
C1218 H1222 0.950 . S
C1218 C1227 1.390 . S
C1219 C1218 1.387 . S
C1219 C1221 1.387 . S
H1220 C1227 0.950 . S
C1221 C1219 1.387 . S
C1221 C1223 1.390 . S
C1221 H1225 0.950 . S
H1222 C1218 0.950 . S
C1223 C1221 1.390 . S
C1223 C1224 1.387 . S
C1223 H1226 0.950 . S
C1224 C1223 1.387 . S
C1224 C1227 1.387 . S
H1225 C1221 0.950 . S
H1226 C1223 0.950 . S
C1227 C1218 1.390 . S
C1227 H1220 0.950 . S
C1227 C1224 1.387 . S
C1228 C1229 1.387 . S
C1228 H1232 0.950 1_556 S
C1228 C1237 1.390 . S
C1229 C1228 1.387 . S
C1229 C1231 1.387 . S
H1230 C1237 0.950 1_554 S
C1231 C1229 1.387 . S
C1231 C1233 1.390 . S
C1231 H1235 0.950 . S
H1232 C1228 0.950 1_554 S
C1233 C1231 1.390 . S
C1233 C1234 1.387 . S
C1233 H1236 0.950 . S
C1234 C1233 1.387 . S
C1234 C1237 1.387 . S
H1235 C1231 0.950 . S
H1236 C1233 0.950 . S
C1237 C1228 1.390 . S
C1237 H1230 0.950 1_556 S
C1237 C1234 1.387 . S
C1238 C1239 1.387 . S
C1238 H1242 0.950 . S
C1238 C1247 1.390 . S
C1239 C1238 1.387 . S
C1239 C1241 1.387 . S
H1240 C1247 0.950 . S
C1241 C1239 1.387 . S
C1241 C1243 1.390 . S
C1241 H1245 0.950 . S
H1242 C1238 0.950 . S
C1243 C1241 1.390 . S
C1243 C1244 1.387 . S
C1243 H1246 0.950 . S
C1244 C1243 1.387 . S
C1244 C1247 1.387 . S
H1245 C1241 0.950 . S
H1246 C1243 0.950 . S
C1247 C1238 1.390 . S
C1247 H1240 0.950 . S
C1247 C1244 1.387 . S
C1248 C1249 1.387 . S
C1248 H1252 0.950 . S
C1248 C1257 1.390 . S
C1249 C1248 1.387 . S
C1249 C1251 1.387 . S
H1250 C1257 0.950 . S
C1251 C1249 1.387 . S
C1251 C1253 1.390 . S
C1251 H1255 0.950 . S
H1252 C1248 0.950 . S
C1253 C1251 1.390 . S
C1253 C1254 1.387 . S
C1253 H1256 0.950 . S
C1254 C1253 1.387 . S
C1254 C1257 1.387 . S
H1255 C1251 0.950 . S
H1256 C1253 0.950 . S
C1257 C1248 1.390 . S
C1257 H1250 0.950 . S
C1257 C1254 1.387 . S
C1258 C1259 1.387 . S
C1258 H1262 0.950 . S
C1258 C1267 1.390 . S
C1259 C1258 1.387 . S
C1259 C1261 1.387 . S
H1260 C1267 0.950 . S
C1261 C1259 1.387 . S
C1261 C1263 1.390 . S
C1261 H1265 0.950 . S
H1262 C1258 0.950 . S
C1263 C1261 1.390 . S
C1263 C1264 1.387 . S
C1263 H1266 0.950 . S
C1264 C1263 1.387 . S
C1264 C1267 1.387 . S
H1265 C1261 0.950 . S
H1266 C1263 0.950 . S
C1267 C1258 1.390 . S
C1267 H1260 0.950 . S
C1267 C1264 1.387 . S
C1268 C1269 1.387 . S
C1268 H1272 0.950 . S
C1268 C1277 1.390 . S
C1269 C1268 1.387 . S
C1269 C1271 1.387 . S
H1270 C1277 0.950 . S
C1271 C1269 1.387 . S
C1271 C1273 1.390 . S
C1271 H1275 0.950 . S
H1272 C1268 0.950 . S
C1273 C1271 1.390 . S
C1273 C1274 1.387 . S
C1273 H1276 0.950 . S
C1274 C1273 1.387 . S
C1274 C1277 1.387 . S
H1275 C1271 0.950 . S
H1276 C1273 0.950 . S
C1277 C1268 1.390 . S
C1277 H1270 0.950 . S
C1277 C1274 1.387 . S
C1278 C1279 1.387 . S
C1278 H1282 0.950 . S
C1278 C1287 1.390 . S
C1279 C1278 1.387 . S
C1279 C1281 1.387 . S
H1280 C1287 0.950 . S
C1281 C1279 1.387 . S
C1281 C1283 1.390 . S
C1281 H1285 0.950 . S
H1282 C1278 0.950 . S
C1283 C1281 1.390 . S
C1283 C1284 1.387 . S
C1283 H1286 0.950 . S
C1284 C1283 1.387 . S
C1284 C1287 1.387 . S
H1285 C1281 0.950 . S
H1286 C1283 0.950 . S
C1287 C1278 1.390 . S
C1287 H1280 0.950 . S
C1287 C1284 1.387 . S
C1288 C1289 1.387 . S
C1288 H1292 0.950 . S
C1288 C1297 1.390 . S
C1289 C1288 1.387 . S
C1289 C1291 1.387 . S
H1290 C1297 0.950 . S
C1291 C1289 1.387 . S
C1291 C1293 1.390 . S
C1291 H1295 0.950 . S
H1292 C1288 0.950 . S
C1293 C1291 1.390 . S
C1293 C1294 1.387 . S
C1293 H1296 0.950 . S
C1294 C1293 1.387 . S
C1294 C1297 1.387 . S
H1295 C1291 0.950 . S
H1296 C1293 0.950 . S
C1297 C1288 1.390 . S
C1297 H1290 0.950 . S
C1297 C1294 1.387 . S
C1298 C1299 1.387 . S
C1298 H1302 0.950 . S
C1298 C1307 1.390 . S
C1299 C1298 1.387 . S
C1299 C1301 1.387 . S
H1300 C1307 0.950 . S
C1301 C1299 1.387 . S
C1301 C1303 1.390 . S
C1301 H1305 0.950 . S
H1302 C1298 0.950 . S
C1303 C1301 1.390 . S
C1303 C1304 1.387 . S
C1303 H1306 0.950 . S
C1304 C1303 1.387 . S
C1304 C1307 1.387 . S
H1305 C1301 0.950 . S
H1306 C1303 0.950 . S
C1307 C1298 1.390 . S
C1307 H1300 0.950 . S
C1307 C1304 1.387 . S
C1308 C1309 1.387 . S
C1308 H1312 0.950 . S
C1308 C1317 1.390 . S
C1309 C1308 1.387 . S
C1309 C1311 1.387 . S
H1310 C1317 0.950 . S
C1311 C1309 1.387 . S
C1311 C1313 1.390 . S
C1311 H1315 0.950 . S
H1312 C1308 0.950 . S
C1313 C1311 1.390 . S
C1313 C1314 1.387 . S
C1313 H1316 0.950 . S
C1314 C1313 1.387 . S
C1314 C1317 1.387 . S
H1315 C1311 0.950 . S
H1316 C1313 0.950 . S
C1317 C1308 1.390 . S
C1317 H1310 0.950 . S
C1317 C1314 1.387 . S
C1318 C1319 1.387 . S
C1318 H1322 0.950 . S
C1318 C1327 1.390 . S
C1319 C1318 1.387 . S
C1319 C1321 1.387 . S
H1320 C1327 0.950 . S
C1321 C1319 1.387 . S
C1321 C1323 1.390 . S
C1321 H1325 0.950 . S
H1322 C1318 0.950 . S
C1323 C1321 1.390 . S
C1323 C1324 1.387 . S
C1323 H1326 0.950 . S
C1324 C1323 1.387 . S
C1324 C1327 1.387 . S
H1325 C1321 0.950 . S
H1326 C1323 0.950 . S
C1327 C1318 1.390 . S
C1327 H1320 0.950 . S
C1327 C1324 1.387 . S
C1328 C1329 1.387 . S
C1328 H1332 0.950 . S
C1328 C1337 1.390 . S
C1329 C1328 1.387 . S
C1329 C1331 1.387 . S
H1330 C1337 0.950 . S
C1331 C1329 1.387 . S
C1331 C1333 1.390 . S
C1331 H1335 0.950 . S
H1332 C1328 0.950 . S
C1333 C1331 1.390 . S
C1333 C1334 1.387 . S
C1333 H1336 0.950 . S
C1334 C1333 1.387 . S
C1334 C1337 1.387 . S
H1335 C1331 0.950 . S
H1336 C1333 0.950 . S
C1337 C1328 1.390 . S
C1337 H1330 0.950 . S
C1337 C1334 1.387 . S
C1338 C1339 1.387 . S
C1338 H1342 0.950 . S
C1338 C1347 1.390 . S
C1339 C1338 1.387 . S
C1339 C1341 1.387 . S
H1340 C1347 0.950 . S
C1341 C1339 1.387 . S
C1341 C1343 1.390 . S
C1341 H1345 0.950 . S
H1342 C1338 0.950 . S
C1343 C1341 1.390 . S
C1343 C1344 1.387 . S
C1343 H1346 0.950 . S
C1344 C1343 1.387 . S
C1344 C1347 1.387 . S
H1345 C1341 0.950 . S
H1346 C1343 0.950 . S
C1347 C1338 1.390 . S
C1347 H1340 0.950 . S
C1347 C1344 1.387 . S
C1348 C1349 1.387 . S
C1348 H1352 0.950 . S
C1348 C1357 1.390 . S
C1349 C1348 1.387 . S
C1349 C1351 1.387 . S
H1350 C1357 0.950 . S
C1351 C1349 1.387 . S
C1351 C1353 1.390 . S
C1351 H1355 0.950 . S
H1352 C1348 0.950 . S
C1353 C1351 1.390 . S
C1353 C1354 1.387 . S
C1353 H1356 0.950 . S
C1354 C1353 1.387 . S
C1354 C1357 1.387 . S
H1355 C1351 0.950 . S
H1356 C1353 0.950 . S
C1357 C1348 1.390 . S
C1357 H1350 0.950 . S
C1357 C1354 1.387 . S
C1358 C1359 1.387 . S
C1358 H1362 0.950 . S
C1358 C1367 1.390 . S
C1359 C1358 1.387 . S
C1359 C1361 1.387 . S
H1360 C1367 0.950 . S
C1361 C1359 1.387 . S
C1361 C1363 1.390 . S
C1361 H1365 0.950 . S
H1362 C1358 0.950 . S
C1363 C1361 1.390 . S
C1363 C1364 1.387 . S
C1363 H1366 0.950 . S
C1364 C1363 1.387 . S
C1364 C1367 1.387 . S
H1365 C1361 0.950 . S
H1366 C1363 0.950 . S
C1367 C1358 1.390 . S
C1367 H1360 0.950 . S
C1367 C1364 1.387 . S
C1368 C1369 1.387 . S
C1368 H1372 0.950 . S
C1368 C1377 1.390 . S
C1369 C1368 1.387 . S
C1369 C1371 1.387 . S
H1370 C1377 0.950 . S
C1371 C1369 1.387 . S
C1371 C1373 1.390 . S
C1371 H1375 0.950 . S
H1372 C1368 0.950 . S
C1373 C1371 1.390 . S
C1373 C1374 1.387 . S
C1373 H1376 0.950 . S
C1374 C1373 1.387 . S
C1374 C1377 1.387 . S
H1375 C1371 0.950 . S
H1376 C1373 0.950 . S
C1377 C1368 1.390 . S
C1377 H1370 0.950 . S
C1377 C1374 1.387 . S
C1378 C1379 1.387 . S
C1378 H1382 0.950 . S
C1378 C1387 1.390 . S
C1379 C1378 1.387 . S
C1379 C1381 1.387 . S
H1380 C1387 0.950 . S
C1381 C1379 1.387 . S
C1381 C1383 1.390 . S
C1381 H1385 0.950 . S
H1382 C1378 0.950 . S
C1383 C1381 1.390 . S
C1383 C1384 1.387 . S
C1383 H1386 0.950 . S
C1384 C1383 1.387 . S
C1384 C1387 1.387 . S
H1385 C1381 0.950 . S
H1386 C1383 0.950 . S
C1387 C1378 1.390 . S
C1387 H1380 0.950 . S
C1387 C1384 1.387 . S
C1388 C1389 1.387 . S
C1388 H1392 0.950 . S
C1388 C1397 1.390 . S
C1389 C1388 1.387 . S
C1389 C1391 1.387 . S
H1390 C1397 0.950 . S
C1391 C1389 1.387 . S
C1391 C1393 1.390 . S
C1391 H1395 0.950 . S
H1392 C1388 0.950 . S
C1393 C1391 1.390 . S
C1393 C1394 1.387 . S
C1393 H1396 0.950 . S
C1394 C1393 1.387 . S
C1394 C1397 1.387 . S
H1395 C1391 0.950 . S
H1396 C1393 0.950 . S
C1397 C1388 1.390 . S
C1397 H1390 0.950 . S
C1397 C1394 1.387 . S
C1398 C1399 1.387 . S
C1398 H1402 0.950 . S
C1398 C1407 1.390 . S
C1399 C1398 1.387 . S
C1399 C1401 1.387 . S
H1400 C1407 0.950 . S
C1401 C1399 1.387 . S
C1401 C1403 1.390 . S
C1401 H1405 0.950 . S
H1402 C1398 0.950 . S
C1403 C1401 1.390 . S
C1403 C1404 1.387 . S
C1403 H1406 0.950 . S
C1404 C1403 1.387 . S
C1404 C1407 1.387 . S
H1405 C1401 0.950 . S
H1406 C1403 0.950 . S
C1407 C1398 1.390 . S
C1407 H1400 0.950 . S
C1407 C1404 1.387 . S
C1408 C1409 1.387 . S
C1408 H1412 0.950 . S
C1408 C1417 1.390 . S
C1409 C1408 1.387 . S
C1409 C1411 1.387 . S
H1410 C1417 0.950 . S
C1411 C1409 1.387 . S
C1411 C1413 1.390 . S
C1411 H1415 0.950 . S
H1412 C1408 0.950 . S
C1413 C1411 1.390 . S
C1413 C1414 1.387 . S
C1413 H1416 0.950 . S
C1414 C1413 1.387 . S
C1414 C1417 1.387 . S
H1415 C1411 0.950 . S
H1416 C1413 0.950 . S
C1417 C1408 1.390 . S
C1417 H1410 0.950 . S
C1417 C1414 1.387 . S
C1418 C1419 1.387 . S
C1418 H1422 0.950 1_565 S
C1418 C1427 1.390 . S
C1419 C1418 1.387 . S
C1419 C1421 1.387 . S
H1420 C1427 0.950 1_545 S
C1421 C1419 1.387 . S
C1421 C1423 1.390 . S
C1421 H1425 0.950 . S
H1422 C1418 0.950 1_545 S
C1423 C1421 1.390 . S
C1423 C1424 1.387 . S
C1423 H1426 0.950 . S
C1424 C1423 1.387 . S
C1424 C1427 1.387 . S
H1425 C1421 0.950 . S
H1426 C1423 0.950 . S
C1427 C1418 1.390 . S
C1427 H1420 0.950 1_565 S
C1427 C1424 1.387 . S
C1428 C1429 1.387 . S
C1428 H1432 0.950 . S
C1428 C1437 1.390 . S
C1429 C1428 1.387 . S
C1429 C1431 1.387 . S
H1430 C1437 0.950 . S
C1431 C1429 1.387 . S
C1431 C1433 1.390 . S
C1431 H1435 0.950 . S
H1432 C1428 0.950 . S
C1433 C1431 1.390 . S
C1433 C1434 1.387 . S
C1433 H1436 0.950 . S
C1434 C1433 1.387 . S
C1434 C1437 1.387 . S
H1435 C1431 0.950 . S
H1436 C1433 0.950 . S
C1437 C1428 1.390 . S
C1437 H1430 0.950 . S
C1437 C1434 1.387 . S
C1438 C1439 1.387 . S
C1438 H1442 0.950 1_545 S
C1438 C1447 1.390 . S
C1439 C1438 1.387 . S
C1439 C1441 1.387 . S
H1440 C1447 0.950 1_565 S
C1441 C1439 1.387 . S
C1441 C1443 1.390 . S
C1441 H1445 0.950 . S
H1442 C1438 0.950 1_565 S
C1443 C1441 1.390 . S
C1443 C1444 1.387 . S
C1443 H1446 0.950 . S
C1444 C1443 1.387 . S
C1444 C1447 1.387 . S
H1445 C1441 0.950 . S
H1446 C1443 0.950 . S
C1447 C1438 1.390 . S
C1447 H1440 0.950 1_545 S
C1447 C1444 1.387 . S
C1448 C1449 1.387 . S
C1448 H1452 0.950 . S
C1448 C1457 1.390 . S
C1449 C1448 1.387 . S
C1449 C1451 1.387 . S
H1450 C1457 0.950 . S
C1451 C1449 1.387 . S
C1451 C1453 1.390 . S
C1451 H1455 0.950 . S
H1452 C1448 0.950 . S
C1453 C1451 1.390 . S
C1453 C1454 1.387 . S
C1453 H1456 0.950 . S
C1454 C1453 1.387 . S
C1454 C1457 1.387 . S
H1455 C1451 0.950 . S
H1456 C1453 0.950 . S
C1457 C1448 1.390 . S
C1457 H1450 0.950 . S
C1457 C1454 1.387 . S
C1458 C1459 1.387 . S
C1458 H1462 0.950 . S
C1458 C1467 1.390 . S
C1459 C1458 1.387 . S
C1459 C1461 1.387 . S
H1460 C1467 0.950 . S
C1461 C1459 1.387 . S
C1461 C1463 1.390 . S
C1461 H1465 0.950 . S
H1462 C1458 0.950 . S
C1463 C1461 1.390 . S
C1463 C1464 1.387 . S
C1463 H1466 0.950 . S
C1464 C1463 1.387 . S
C1464 C1467 1.387 . S
H1465 C1461 0.950 . S
H1466 C1463 0.950 . S
C1467 C1458 1.390 . S
C1467 H1460 0.950 . S
C1467 C1464 1.387 . S
C1468 C1469 1.387 . S
C1468 H1472 0.950 . S
C1468 C1477 1.390 . S
C1469 C1468 1.387 . S
C1469 C1471 1.387 . S
H1470 C1477 0.950 . S
C1471 C1469 1.387 . S
C1471 C1473 1.390 . S
C1471 H1475 0.950 . S
H1472 C1468 0.950 . S
C1473 C1471 1.390 . S
C1473 C1474 1.387 . S
C1473 H1476 0.950 . S
C1474 C1473 1.387 . S
C1474 C1477 1.387 . S
H1475 C1471 0.950 . S
H1476 C1473 0.950 . S
C1477 C1468 1.390 . S
C1477 H1470 0.950 . S
C1477 C1474 1.387 . S
C1478 C1479 1.387 . S
C1478 H1482 0.950 . S
C1478 C1487 1.390 . S
C1479 C1478 1.387 . S
C1479 C1481 1.387 . S
H1480 C1487 0.950 . S
C1481 C1479 1.387 . S
C1481 C1483 1.390 . S
C1481 H1485 0.950 . S
H1482 C1478 0.950 . S
C1483 C1481 1.390 . S
C1483 C1484 1.387 . S
C1483 H1486 0.950 . S
C1484 C1483 1.387 . S
C1484 C1487 1.387 . S
H1485 C1481 0.950 . S
H1486 C1483 0.950 . S
C1487 C1478 1.390 . S
C1487 H1480 0.950 . S
C1487 C1484 1.387 . S
C1488 C1489 1.387 . S
C1488 H1492 0.950 . S
C1488 C1497 1.390 . S
C1489 C1488 1.387 . S
C1489 C1491 1.387 . S
H1490 C1497 0.950 . S
C1491 C1489 1.387 . S
C1491 C1493 1.390 . S
C1491 H1495 0.950 . S
H1492 C1488 0.950 . S
C1493 C1491 1.390 . S
C1493 C1494 1.387 . S
C1493 H1496 0.950 . S
C1494 C1493 1.387 . S
C1494 C1497 1.387 . S
H1495 C1491 0.950 . S
H1496 C1493 0.950 . S
C1497 C1488 1.390 . S
C1497 H1490 0.950 . S
C1497 C1494 1.387 . S
C1498 C1499 1.387 . S
C1498 H1502 0.950 1_565 S
C1498 C1507 1.390 . S
C1499 C1498 1.387 . S
C1499 C1501 1.387 . S
H1500 C1507 0.950 1_545 S
C1501 C1499 1.387 . S
C1501 C1503 1.390 . S
C1501 H1505 0.950 . S
H1502 C1498 0.950 1_545 S
C1503 C1501 1.390 . S
C1503 C1504 1.387 . S
C1503 H1506 0.950 . S
C1504 C1503 1.387 . S
C1504 C1507 1.387 . S
H1505 C1501 0.950 . S
H1506 C1503 0.950 . S
C1507 C1498 1.390 . S
C1507 H1500 0.950 1_565 S
C1507 C1504 1.387 . S
C1508 C1509 1.387 . S
C1508 H1512 0.950 . S
C1508 C1517 1.390 . S
C1509 C1508 1.387 . S
C1509 C1511 1.387 . S
H1510 C1517 0.950 . S
C1511 C1509 1.387 . S
C1511 C1513 1.390 . S
C1511 H1515 0.950 . S
H1512 C1508 0.950 . S
C1513 C1511 1.390 . S
C1513 C1514 1.387 . S
C1513 H1516 0.950 . S
C1514 C1513 1.387 . S
C1514 C1517 1.387 . S
H1515 C1511 0.950 . S
H1516 C1513 0.950 . S
C1517 C1508 1.390 . S
C1517 H1510 0.950 . S
C1517 C1514 1.387 . S
C1518 C1519 1.387 . S
C1518 H1522 0.950 . S
C1518 C1527 1.390 . S
C1519 C1518 1.387 . S
C1519 C1521 1.387 . S
H1520 C1527 0.950 . S
C1521 C1519 1.387 . S
C1521 C1523 1.390 . S
C1521 H1525 0.950 . S
H1522 C1518 0.950 . S
C1523 C1521 1.390 . S
C1523 C1524 1.387 . S
C1523 H1526 0.950 . S
C1524 C1523 1.387 . S
C1524 C1527 1.387 . S
H1525 C1521 0.950 . S
H1526 C1523 0.950 . S
C1527 C1518 1.390 . S
C1527 H1520 0.950 . S
C1527 C1524 1.387 . S
C1528 C1529 1.387 . S
C1528 H1532 0.950 . S
C1528 C1537 1.390 . S
C1529 C1528 1.387 . S
C1529 C1531 1.387 . S
H1530 C1537 0.950 . S
C1531 C1529 1.387 . S
C1531 C1533 1.390 . S
C1531 H1535 0.950 . S
H1532 C1528 0.950 . S
C1533 C1531 1.390 . S
C1533 C1534 1.387 . S
C1533 H1536 0.950 . S
C1534 C1533 1.387 . S
C1534 C1537 1.387 . S
H1535 C1531 0.950 . S
H1536 C1533 0.950 . S
C1537 C1528 1.390 . S
C1537 H1530 0.950 . S
C1537 C1534 1.387 . S
C1538 C1539 1.387 . S
C1538 H1542 0.950 . S
C1538 C1547 1.390 . S
C1539 C1538 1.387 . S
C1539 C1541 1.387 . S
H1540 C1547 0.950 . S
C1541 C1539 1.387 . S
C1541 C1543 1.390 . S
C1541 H1545 0.950 . S
H1542 C1538 0.950 . S
C1543 C1541 1.390 . S
C1543 C1544 1.387 . S
C1543 H1546 0.950 . S
C1544 C1543 1.387 . S
C1544 C1547 1.387 . S
H1545 C1541 0.950 . S
H1546 C1543 0.950 . S
C1547 C1538 1.390 . S
C1547 H1540 0.950 . S
C1547 C1544 1.387 . S
C1548 C1549 1.387 . S
C1548 H1552 0.950 . S
C1548 C1557 1.390 . S
C1549 C1548 1.387 . S
C1549 C1551 1.387 . S
H1550 C1557 0.950 . S
C1551 C1549 1.387 . S
C1551 C1553 1.390 . S
C1551 H1555 0.950 . S
H1552 C1548 0.950 . S
C1553 C1551 1.390 . S
C1553 C1554 1.387 . S
C1553 H1556 0.950 . S
C1554 C1553 1.387 . S
C1554 C1557 1.387 . S
H1555 C1551 0.950 . S
H1556 C1553 0.950 . S
C1557 C1548 1.390 . S
C1557 H1550 0.950 . S
C1557 C1554 1.387 . S
C1558 C1559 1.387 . S
C1558 H1562 0.950 . S
C1558 C1567 1.390 . S
C1559 C1558 1.387 . S
C1559 C1561 1.387 . S
H1560 C1567 0.950 . S
C1561 C1559 1.387 . S
C1561 C1563 1.390 . S
C1561 H1565 0.950 . S
H1562 C1558 0.950 . S
C1563 C1561 1.390 . S
C1563 C1564 1.387 . S
C1563 H1566 0.950 . S
C1564 C1563 1.387 . S
C1564 C1567 1.387 . S
H1565 C1561 0.950 . S
H1566 C1563 0.950 . S
C1567 C1558 1.390 . S
C1567 H1560 0.950 . S
C1567 C1564 1.387 . S
C1568 C1569 1.387 . S
C1568 H1572 0.950 . S
C1568 C1577 1.390 1_654 S
C1569 C1568 1.387 . S
C1569 C1571 1.387 . S
H1570 C1577 0.950 . S
C1571 C1569 1.387 . S
C1571 C1573 1.390 1_654 S
C1571 H1575 0.950 . S
H1572 C1568 0.950 . S
C1573 C1571 1.390 1_456 S
C1573 C1574 1.387 . S
C1573 H1576 0.950 . S
C1574 C1573 1.387 . S
C1574 C1577 1.387 . S
H1575 C1571 0.950 . S
H1576 C1573 0.950 . S
C1577 C1568 1.390 1_456 S
C1577 H1570 0.950 . S
C1577 C1574 1.387 . S
C1578 C1579 1.387 . S
C1578 H1582 0.950 . S
C1578 C1587 1.390 1_554 S
C1579 C1578 1.387 . S
C1579 C1581 1.387 . S
H1580 C1587 0.950 . S
C1581 C1579 1.387 . S
C1581 C1583 1.390 1_554 S
C1581 H1585 0.950 . S
H1582 C1578 0.950 . S
C1583 C1581 1.390 1_556 S
C1583 C1584 1.387 . S
C1583 H1586 0.950 . S
C1584 C1583 1.387 . S
C1584 C1587 1.387 . S
H1585 C1581 0.950 . S
H1586 C1583 0.950 . S
C1587 C1578 1.390 1_556 S
C1587 H1580 0.950 . S
C1587 C1584 1.387 . S
C1588 C1589 1.387 . S
C1588 H1592 0.950 . S
C1588 C1597 1.390 1_455 S
C1589 C1588 1.387 . S
C1589 C1591 1.387 . S
H1590 C1597 0.950 . S
C1591 C1589 1.387 . S
C1591 C1593 1.390 1_455 S
C1591 H1595 0.950 . S
H1592 C1588 0.950 . S
C1593 C1591 1.390 1_655 S
C1593 C1594 1.387 . S
C1593 H1596 0.950 . S
C1594 C1593 1.387 . S
C1594 C1597 1.387 . S
H1595 C1591 0.950 . S
H1596 C1593 0.950 . S
C1597 C1588 1.390 1_655 S
C1597 H1590 0.950 . S
C1597 C1594 1.387 . S
C1598 C1599 1.387 . S
C1598 H1602 0.950 . S
C1598 C1607 1.390 . S
C1599 C1598 1.387 . S
C1599 C1601 1.387 . S
H1600 C1607 0.950 . S
C1601 C1599 1.387 . S
C1601 C1603 1.390 . S
C1601 H1605 0.950 . S
H1602 C1598 0.950 . S
C1603 C1601 1.390 . S
C1603 C1604 1.387 . S
C1603 H1606 0.950 . S
C1604 C1603 1.387 . S
C1604 C1607 1.387 . S
H1605 C1601 0.950 . S
H1606 C1603 0.950 . S
C1607 C1598 1.390 . S
C1607 H1600 0.950 . S
C1607 C1604 1.387 . S
C1608 C1609 1.387 . S
C1608 H1612 0.950 . S
C1608 C1617 1.390 1_554 S
C1609 C1608 1.387 . S
C1609 C1611 1.387 . S
H1610 C1617 0.950 . S
C1611 C1609 1.387 . S
C1611 C1613 1.390 1_554 S
C1611 H1615 0.950 . S
H1612 C1608 0.950 . S
C1613 C1611 1.390 1_556 S
C1613 C1614 1.387 . S
C1613 H1616 0.950 . S
C1614 C1613 1.387 . S
C1614 C1617 1.387 . S
H1615 C1611 0.950 . S
H1616 C1613 0.950 . S
C1617 C1608 1.390 1_556 S
C1617 H1610 0.950 . S
C1617 C1614 1.387 . S
C1618 C1619 1.387 . S
C1618 H1622 0.950 . S
C1618 C1627 1.390 1_655 S
C1619 C1618 1.387 . S
C1619 C1621 1.387 . S
H1620 C1627 0.950 . S
C1621 C1619 1.387 . S
C1621 C1623 1.390 1_655 S
C1621 H1625 0.950 . S
H1622 C1618 0.950 . S
C1623 C1621 1.390 1_455 S
C1623 C1624 1.387 . S
C1623 H1626 0.950 . S
C1624 C1623 1.387 . S
C1624 C1627 1.387 . S
H1625 C1621 0.950 . S
H1626 C1623 0.950 . S
C1627 C1618 1.390 1_455 S
C1627 H1620 0.950 . S
C1627 C1624 1.387 . S
C1628 C1629 1.387 . S
C1628 H1632 0.950 . S
C1628 C1637 1.390 . S
C1629 C1628 1.387 . S
C1629 C1631 1.387 . S
H1630 C1637 0.950 . S
C1631 C1629 1.387 . S
C1631 C1633 1.390 . S
C1631 H1635 0.950 . S
H1632 C1628 0.950 . S
C1633 C1631 1.390 . S
C1633 C1634 1.387 . S
C1633 H1636 0.950 . S
C1634 C1633 1.387 . S
C1634 C1637 1.387 . S
H1635 C1631 0.950 . S
H1636 C1633 0.950 . S
C1637 C1628 1.390 . S
C1637 H1630 0.950 . S
C1637 C1634 1.387 . S
C1638 C1639 1.387 1_565 S
C1638 H1642 0.950 . S
C1638 C1647 1.390 1_655 S
C1639 C1638 1.387 1_545 S
C1639 C1641 1.387 . S
H1640 C1647 0.950 . S
C1641 C1639 1.387 . S
C1641 C1643 1.390 1_655 S
C1641 H1645 0.950 . S
H1642 C1638 0.950 . S
C1643 C1641 1.390 1_455 S
C1643 C1644 1.387 1_545 S
C1643 H1646 0.950 . S
C1644 C1643 1.387 1_565 S
C1644 C1647 1.387 . S
H1645 C1641 0.950 . S
H1646 C1643 0.950 . S
C1647 C1638 1.390 1_455 S
C1647 H1640 0.950 . S
C1647 C1644 1.387 . S
C1648 C1649 1.387 . S
C1648 H1652 0.950 . S
C1648 C1657 1.390 . S
C1649 C1648 1.387 . S
C1649 C1651 1.387 . S
H1650 C1657 0.950 . S
C1651 C1649 1.387 . S
C1651 C1653 1.390 . S
C1651 H1655 0.950 . S
H1652 C1648 0.950 . S
C1653 C1651 1.390 . S
C1653 C1654 1.387 . S
C1653 H1656 0.950 . S
C1654 C1653 1.387 . S
C1654 C1657 1.387 . S
H1655 C1651 0.950 . S
H1656 C1653 0.950 . S
C1657 C1648 1.390 . S
C1657 H1650 0.950 . S
C1657 C1654 1.387 . S
C1658 C1659 1.387 . S
C1658 H1662 0.950 . S
C1658 C1667 1.390 . S
C1659 C1658 1.387 . S
C1659 C1661 1.387 1_545 S
H1660 C1667 0.950 . S
C1661 C1659 1.387 1_565 S
C1661 C1663 1.390 . S
C1661 H1665 0.950 . S
H1662 C1658 0.950 . S
C1663 C1661 1.390 . S
C1663 C1664 1.387 . S
C1663 H1666 0.950 . S
C1664 C1663 1.387 . S
C1664 C1667 1.387 1_565 S
H1665 C1661 0.950 . S
H1666 C1663 0.950 . S
C1667 C1658 1.390 . S
C1667 H1660 0.950 . S
C1667 C1664 1.387 1_545 S
C1668 C1669 1.387 . S
C1668 H1672 0.950 . S
C1668 C1677 1.390 . S
C1669 C1668 1.387 . S
C1669 C1671 1.387 . S
H1670 C1677 0.950 . S
C1671 C1669 1.387 . S
C1671 C1673 1.390 . S
C1671 H1675 0.950 . S
H1672 C1668 0.950 . S
C1673 C1671 1.390 . S
C1673 C1674 1.387 . S
C1673 H1676 0.950 . S
C1674 C1673 1.387 . S
C1674 C1677 1.387 . S
H1675 C1671 0.950 . S
H1676 C1673 0.950 . S
C1677 C1668 1.390 . S
C1677 H1670 0.950 . S
C1677 C1674 1.387 . S
C1678 C1679 1.387 1_545 S
C1678 H1682 0.950 . S
C1678 C1687 1.390 . S
C1679 C1678 1.387 1_565 S
C1679 C1681 1.387 . S
H1680 C1687 0.950 . S
C1681 C1679 1.387 . S
C1681 C1683 1.390 . S
C1681 H1685 0.950 . S
H1682 C1678 0.950 . S
C1683 C1681 1.390 . S
C1683 C1684 1.387 1_565 S
C1683 H1686 0.950 . S
C1684 C1683 1.387 1_545 S
C1684 C1687 1.387 . S
H1685 C1681 0.950 . S
H1686 C1683 0.950 . S
C1687 C1678 1.390 . S
C1687 H1680 0.950 . S
C1687 C1684 1.387 . S
C1688 C1689 1.387 . S
C1688 H1692 0.950 . S
C1688 C1697 1.390 . S
C1689 C1688 1.387 . S
C1689 C1691 1.387 . S
H1690 C1697 0.950 . S
C1691 C1689 1.387 . S
C1691 C1693 1.390 . S
C1691 H1695 0.950 . S
H1692 C1688 0.950 . S
C1693 C1691 1.390 . S
C1693 C1694 1.387 . S
C1693 H1696 0.950 . S
C1694 C1693 1.387 . S
C1694 C1697 1.387 . S
H1695 C1691 0.950 . S
H1696 C1693 0.950 . S
C1697 C1688 1.390 . S
C1697 H1690 0.950 . S
C1697 C1694 1.387 . S
C1698 C1699 1.387 . S
C1698 H1702 0.950 . S
C1698 C1707 1.390 . S
C1699 C1698 1.387 . S
C1699 C1701 1.387 . S
H1700 C1707 0.950 . S
C1701 C1699 1.387 . S
C1701 C1703 1.390 . S
C1701 H1705 0.950 . S
H1702 C1698 0.950 . S
C1703 C1701 1.390 . S
C1703 C1704 1.387 . S
C1703 H1706 0.950 . S
C1704 C1703 1.387 . S
C1704 C1707 1.387 . S
H1705 C1701 0.950 . S
H1706 C1703 0.950 . S
C1707 C1698 1.390 . S
C1707 H1700 0.950 . S
C1707 C1704 1.387 . S
C1708 C1709 1.387 . S
C1708 H1712 0.950 . S
C1708 C1717 1.390 . S
C1709 C1708 1.387 . S
C1709 C1711 1.387 . S
H1710 C1717 0.950 . S
C1711 C1709 1.387 . S
C1711 C1713 1.390 . S
C1711 H1715 0.950 . S
H1712 C1708 0.950 . S
C1713 C1711 1.390 . S
C1713 C1714 1.387 . S
C1713 H1716 0.950 . S
C1714 C1713 1.387 . S
C1714 C1717 1.387 . S
H1715 C1711 0.950 . S
H1716 C1713 0.950 . S
C1717 C1708 1.390 . S
C1717 H1710 0.950 . S
C1717 C1714 1.387 . S
C1718 C1719 1.387 . S
C1718 H1722 0.950 . S
C1718 C1727 1.390 1_554 S
C1719 C1718 1.387 . S
C1719 C1721 1.387 1_545 S
H1720 C1727 0.950 . S
C1721 C1719 1.387 1_565 S
C1721 C1723 1.390 1_554 S
C1721 H1725 0.950 . S
H1722 C1718 0.950 . S
C1723 C1721 1.390 1_556 S
C1723 C1724 1.387 . S
C1723 H1726 0.950 . S
C1724 C1723 1.387 . S
C1724 C1727 1.387 1_565 S
H1725 C1721 0.950 . S
H1726 C1723 0.950 . S
C1727 C1718 1.390 1_556 S
C1727 H1720 0.950 . S
C1727 C1724 1.387 1_545 S
C1728 C1729 1.387 . S
C1728 H1732 0.950 . S
C1728 C1737 1.390 . S
C1729 C1728 1.387 . S
C1729 C1731 1.387 . S
H1730 C1737 0.950 . S
C1731 C1729 1.387 . S
C1731 C1733 1.390 . S
C1731 H1735 0.950 . S
H1732 C1728 0.950 . S
C1733 C1731 1.390 . S
C1733 C1734 1.387 . S
C1733 H1736 0.950 . S
C1734 C1733 1.387 . S
C1734 C1737 1.387 . S
H1735 C1731 0.950 . S
H1736 C1733 0.950 . S
C1737 C1728 1.390 . S
C1737 H1730 0.950 . S
C1737 C1734 1.387 . S
C1738 C1739 1.387 . S
C1738 H1742 0.950 . S
C1738 C1747 1.390 . S
C1739 C1738 1.387 . S
C1739 C1741 1.387 . S
H1740 C1747 0.950 . S
C1741 C1739 1.387 . S
C1741 C1743 1.390 . S
C1741 H1745 0.950 . S
H1742 C1738 0.950 . S
C1743 C1741 1.390 . S
C1743 C1744 1.387 . S
C1743 H1746 0.950 . S
C1744 C1743 1.387 . S
C1744 C1747 1.387 . S
H1745 C1741 0.950 . S
H1746 C1743 0.950 . S
C1747 C1738 1.390 . S
C1747 H1740 0.950 . S
C1747 C1744 1.387 . S
C1748 C1749 1.387 . S
C1748 H1752 0.950 . S
C1748 C1757 1.390 . S
C1749 C1748 1.387 . S
C1749 C1751 1.387 . S
H1750 C1757 0.950 . S
C1751 C1749 1.387 . S
C1751 C1753 1.390 . S
C1751 H1755 0.950 . S
H1752 C1748 0.950 . S
C1753 C1751 1.390 . S
C1753 C1754 1.387 . S
C1753 H1756 0.950 . S
C1754 C1753 1.387 . S
C1754 C1757 1.387 . S
H1755 C1751 0.950 . S
H1756 C1753 0.950 . S
C1757 C1748 1.390 . S
C1757 H1750 0.950 . S
C1757 C1754 1.387 . S
C1758 C1759 1.387 . S
C1758 H1762 0.950 . S
C1758 C1767 1.390 . S
C1759 C1758 1.387 . S
C1759 C1761 1.387 . S
H1760 C1767 0.950 . S
C1761 C1759 1.387 . S
C1761 C1763 1.390 . S
C1761 H1765 0.950 . S
H1762 C1758 0.950 . S
C1763 C1761 1.390 . S
C1763 C1764 1.387 . S
C1763 H1766 0.950 . S
C1764 C1763 1.387 . S
C1764 C1767 1.387 . S
H1765 C1761 0.950 . S
H1766 C1763 0.950 . S
C1767 C1758 1.390 . S
C1767 H1760 0.950 . S
C1767 C1764 1.387 . S
C1768 C1769 1.387 . S
C1768 H1772 0.950 . S
C1768 C1777 1.390 . S
C1769 C1768 1.387 . S
C1769 C1771 1.387 . S
H1770 C1777 0.950 . S
C1771 C1769 1.387 . S
C1771 C1773 1.390 . S
C1771 H1775 0.950 . S
H1772 C1768 0.950 . S
C1773 C1771 1.390 . S
C1773 C1774 1.387 . S
C1773 H1776 0.950 . S
C1774 C1773 1.387 . S
C1774 C1777 1.387 . S
H1775 C1771 0.950 . S
H1776 C1773 0.950 . S
C1777 C1768 1.390 . S
C1777 H1770 0.950 . S
C1777 C1774 1.387 . S
C1778 C1779 1.387 . S
C1778 H1782 0.950 . S
C1778 C1787 1.390 . S
C1779 C1778 1.387 . S
C1779 C1781 1.387 . S
H1780 C1787 0.950 . S
C1781 C1779 1.387 . S
C1781 C1783 1.390 . S
C1781 H1785 0.950 . S
H1782 C1778 0.950 . S
C1783 C1781 1.390 . S
C1783 C1784 1.387 . S
C1783 H1786 0.950 . S
C1784 C1783 1.387 . S
C1784 C1787 1.387 . S
H1785 C1781 0.950 . S
H1786 C1783 0.950 . S
C1787 C1778 1.390 . S
C1787 H1780 0.950 . S
C1787 C1784 1.387 . S
C1788 C1789 1.387 . S
C1788 H1792 0.950 . S
C1788 C1797 1.390 . S
C1789 C1788 1.387 . S
C1789 C1791 1.387 . S
H1790 C1797 0.950 . S
C1791 C1789 1.387 . S
C1791 C1793 1.390 . S
C1791 H1795 0.950 . S
H1792 C1788 0.950 . S
C1793 C1791 1.390 . S
C1793 C1794 1.387 . S
C1793 H1796 0.950 . S
C1794 C1793 1.387 . S
C1794 C1797 1.387 . S
H1795 C1791 0.950 . S
H1796 C1793 0.950 . S
C1797 C1788 1.390 . S
C1797 H1790 0.950 . S
C1797 C1794 1.387 . S
C1798 C1799 1.387 . S
C1798 H1802 0.950 . S
C1798 C1807 1.390 . S
C1799 C1798 1.387 . S
C1799 C1801 1.387 . S
H1800 C1807 0.950 . S
C1801 C1799 1.387 . S
C1801 C1803 1.390 . S
C1801 H1805 0.950 . S
H1802 C1798 0.950 . S
C1803 C1801 1.390 . S
C1803 C1804 1.387 . S
C1803 H1806 0.950 . S
C1804 C1803 1.387 . S
C1804 C1807 1.387 . S
H1805 C1801 0.950 . S
H1806 C1803 0.950 . S
C1807 C1798 1.390 . S
C1807 H1800 0.950 . S
C1807 C1804 1.387 . S
C1808 C1809 1.387 . S
C1808 H1812 0.950 . S
C1808 C1817 1.390 . S
C1809 C1808 1.387 . S
C1809 C1811 1.387 . S
H1810 C1817 0.950 . S
C1811 C1809 1.387 . S
C1811 C1813 1.390 . S
C1811 H1815 0.950 . S
H1812 C1808 0.950 . S
C1813 C1811 1.390 . S
C1813 C1814 1.387 . S
C1813 H1816 0.950 . S
C1814 C1813 1.387 . S
C1814 C1817 1.387 . S
H1815 C1811 0.950 . S
H1816 C1813 0.950 . S
C1817 C1808 1.390 . S
C1817 H1810 0.950 . S
C1817 C1814 1.387 . S
C1818 C1819 1.387 . S
C1818 H1822 0.950 . S
C1818 C1827 1.390 . S
C1819 C1818 1.387 . S
C1819 C1821 1.387 . S
H1820 C1827 0.950 . S
C1821 C1819 1.387 . S
C1821 C1823 1.390 . S
C1821 H1825 0.950 . S
H1822 C1818 0.950 . S
C1823 C1821 1.390 . S
C1823 C1824 1.387 . S
C1823 H1826 0.950 . S
C1824 C1823 1.387 . S
C1824 C1827 1.387 . S
H1825 C1821 0.950 . S
H1826 C1823 0.950 . S
C1827 C1818 1.390 . S
C1827 H1820 0.950 . S
C1827 C1824 1.387 . S
C1828 C1829 1.387 . S
C1828 H1832 0.950 . S
C1828 C1837 1.390 . S
C1829 C1828 1.387 . S
C1829 C1831 1.387 . S
H1830 C1837 0.950 . S
C1831 C1829 1.387 . S
C1831 C1833 1.390 . S
C1831 H1835 0.950 . S
H1832 C1828 0.950 . S
C1833 C1831 1.390 . S
C1833 C1834 1.387 . S
C1833 H1836 0.950 . S
C1834 C1833 1.387 . S
C1834 C1837 1.387 . S
H1835 C1831 0.950 . S
H1836 C1833 0.950 . S
C1837 C1828 1.390 . S
C1837 H1830 0.950 . S
C1837 C1834 1.387 . S
C1838 C1839 1.387 . S
C1838 H1842 0.950 . S
C1838 C1847 1.390 . S
C1839 C1838 1.387 . S
C1839 C1841 1.387 . S
H1840 C1847 0.950 . S
C1841 C1839 1.387 . S
C1841 C1843 1.390 . S
C1841 H1845 0.950 . S
H1842 C1838 0.950 . S
C1843 C1841 1.390 . S
C1843 C1844 1.387 . S
C1843 H1846 0.950 . S
C1844 C1843 1.387 . S
C1844 C1847 1.387 . S
H1845 C1841 0.950 . S
H1846 C1843 0.950 . S
C1847 C1838 1.390 . S
C1847 H1840 0.950 . S
C1847 C1844 1.387 . S
C1848 C1849 1.387 . S
C1848 H1852 0.950 . S
C1848 C1857 1.390 . S
C1849 C1848 1.387 . S
C1849 C1851 1.387 . S
H1850 C1857 0.950 . S
C1851 C1849 1.387 . S
C1851 C1853 1.390 . S
C1851 H1855 0.950 . S
H1852 C1848 0.950 . S
C1853 C1851 1.390 . S
C1853 C1854 1.387 . S
C1853 H1856 0.950 . S
C1854 C1853 1.387 . S
C1854 C1857 1.387 . S
H1855 C1851 0.950 . S
H1856 C1853 0.950 . S
C1857 C1848 1.390 . S
C1857 H1850 0.950 . S
C1857 C1854 1.387 . S
C1858 C1859 1.387 . S
C1858 H1862 0.950 . S
C1858 C1867 1.390 . S
C1859 C1858 1.387 . S
C1859 C1861 1.387 . S
H1860 C1867 0.950 . S
C1861 C1859 1.387 . S
C1861 C1863 1.390 . S
C1861 H1865 0.950 . S
H1862 C1858 0.950 . S
C1863 C1861 1.390 . S
C1863 C1864 1.387 . S
C1863 H1866 0.950 . S
C1864 C1863 1.387 . S
C1864 C1867 1.387 . S
H1865 C1861 0.950 . S
H1866 C1863 0.950 . S
C1867 C1858 1.390 . S
C1867 H1860 0.950 . S
C1867 C1864 1.387 . S
C1868 C1869 1.387 . S
C1868 H1872 0.950 . S
C1868 C1877 1.390 . S
C1869 C1868 1.387 . S
C1869 C1871 1.387 . S
H1870 C1877 0.950 . S
C1871 C1869 1.387 . S
C1871 C1873 1.390 . S
C1871 H1875 0.950 . S
H1872 C1868 0.950 . S
C1873 C1871 1.390 . S
C1873 C1874 1.387 . S
C1873 H1876 0.950 . S
C1874 C1873 1.387 . S
C1874 C1877 1.387 . S
H1875 C1871 0.950 . S
H1876 C1873 0.950 . S
C1877 C1868 1.390 . S
C1877 H1870 0.950 . S
C1877 C1874 1.387 . S
C1878 C1879 1.387 . S
C1878 H1882 0.950 . S
C1878 C1887 1.390 . S
C1879 C1878 1.387 . S
C1879 C1881 1.387 . S
H1880 C1887 0.950 . S
C1881 C1879 1.387 . S
C1881 C1883 1.390 . S
C1881 H1885 0.950 . S
H1882 C1878 0.950 . S
C1883 C1881 1.390 . S
C1883 C1884 1.387 . S
C1883 H1886 0.950 . S
C1884 C1883 1.387 . S
C1884 C1887 1.387 . S
H1885 C1881 0.950 . S
H1886 C1883 0.950 . S
C1887 C1878 1.390 . S
C1887 H1880 0.950 . S
C1887 C1884 1.387 . S
C1888 C1889 1.387 . S
C1888 H1892 0.950 . S
C1888 C1897 1.390 . S
C1889 C1888 1.387 . S
C1889 C1891 1.387 . S
H1890 C1897 0.950 . S
C1891 C1889 1.387 . S
C1891 C1893 1.390 . S
C1891 H1895 0.950 . S
H1892 C1888 0.950 . S
C1893 C1891 1.390 . S
C1893 C1894 1.387 . S
C1893 H1896 0.950 . S
C1894 C1893 1.387 . S
C1894 C1897 1.387 . S
H1895 C1891 0.950 . S
H1896 C1893 0.950 . S
C1897 C1888 1.390 . S
C1897 H1890 0.950 . S
C1897 C1894 1.387 . S
C1898 C1899 1.387 . S
C1898 H1902 0.950 . S
C1898 C1907 1.390 . S
C1899 C1898 1.387 . S
C1899 C1901 1.387 . S
H1900 C1907 0.950 . S
C1901 C1899 1.387 . S
C1901 C1903 1.390 . S
C1901 H1905 0.950 . S
H1902 C1898 0.950 . S
C1903 C1901 1.390 . S
C1903 C1904 1.387 . S
C1903 H1906 0.950 . S
C1904 C1903 1.387 . S
C1904 C1907 1.387 . S
H1905 C1901 0.950 . S
H1906 C1903 0.950 . S
C1907 C1898 1.390 . S
C1907 H1900 0.950 . S
C1907 C1904 1.387 . S
C1908 C1909 1.387 . S
C1908 H1912 0.950 . S
C1908 C1917 1.390 . S
C1909 C1908 1.387 . S
C1909 C1911 1.387 . S
H1910 C1917 0.950 . S
C1911 C1909 1.387 . S
C1911 C1913 1.390 . S
C1911 H1915 0.950 . S
H1912 C1908 0.950 . S
C1913 C1911 1.390 . S
C1913 C1914 1.387 . S
C1913 H1916 0.950 . S
C1914 C1913 1.387 . S
C1914 C1917 1.387 . S
H1915 C1911 0.950 . S
H1916 C1913 0.950 . S
C1917 C1908 1.390 . S
C1917 H1910 0.950 . S
C1917 C1914 1.387 . S
C1918 C1919 1.387 . S
C1918 H1922 0.950 . S
C1918 C1927 1.390 . S
C1919 C1918 1.387 . S
C1919 C1921 1.387 . S
H1920 C1927 0.950 . S
C1921 C1919 1.387 . S
C1921 C1923 1.390 . S
C1921 H1925 0.950 . S
H1922 C1918 0.950 . S
C1923 C1921 1.390 . S
C1923 C1924 1.387 . S
C1923 H1926 0.950 . S
C1924 C1923 1.387 . S
C1924 C1927 1.387 . S
H1925 C1921 0.950 . S
H1926 C1923 0.950 . S
C1927 C1918 1.390 . S
C1927 H1920 0.950 . S
C1927 C1924 1.387 . S
C1928 C1929 1.387 . S
C1928 H1932 0.950 . S
C1928 C1937 1.390 . S
C1929 C1928 1.387 . S
C1929 C1931 1.387 . S
H1930 C1937 0.950 . S
C1931 C1929 1.387 . S
C1931 C1933 1.390 . S
C1931 H1935 0.950 . S
H1932 C1928 0.950 . S
C1933 C1931 1.390 . S
C1933 C1934 1.387 . S
C1933 H1936 0.950 . S
C1934 C1933 1.387 . S
C1934 C1937 1.387 . S
H1935 C1931 0.950 . S
H1936 C1933 0.950 . S
C1937 C1928 1.390 . S
C1937 H1930 0.950 . S
C1937 C1934 1.387 . S
C1938 C1939 1.387 . S
C1938 H1942 0.950 . S
C1938 C1947 1.390 . S
C1939 C1938 1.387 . S
C1939 C1941 1.387 . S
H1940 C1947 0.950 . S
C1941 C1939 1.387 . S
C1941 C1943 1.390 . S
C1941 H1945 0.950 . S
H1942 C1938 0.950 . S
C1943 C1941 1.390 . S
C1943 C1944 1.387 . S
C1943 H1946 0.950 . S
C1944 C1943 1.387 . S
C1944 C1947 1.387 . S
H1945 C1941 0.950 . S
H1946 C1943 0.950 . S
C1947 C1938 1.390 . S
C1947 H1940 0.950 . S
C1947 C1944 1.387 . S
C1948 C1949 1.387 . S
C1948 H1952 0.950 . S
C1948 C1957 1.390 . S
C1949 C1948 1.387 . S
C1949 C1951 1.387 . S
H1950 C1957 0.950 . S
C1951 C1949 1.387 . S
C1951 C1953 1.390 . S
C1951 H1955 0.950 . S
H1952 C1948 0.950 . S
C1953 C1951 1.390 . S
C1953 C1954 1.387 . S
C1953 H1956 0.950 . S
C1954 C1953 1.387 . S
C1954 C1957 1.387 . S
H1955 C1951 0.950 . S
H1956 C1953 0.950 . S
C1957 C1948 1.390 . S
C1957 H1950 0.950 . S
C1957 C1954 1.387 . S
C1958 C1959 1.387 . S
C1958 H1962 0.950 . S
C1958 C1967 1.390 . S
C1959 C1958 1.387 . S
C1959 C1961 1.387 . S
H1960 C1967 0.950 . S
C1961 C1959 1.387 . S
C1961 C1963 1.390 . S
C1961 H1965 0.950 . S
H1962 C1958 0.950 . S
C1963 C1961 1.390 . S
C1963 C1964 1.387 . S
C1963 H1966 0.950 . S
C1964 C1963 1.387 . S
C1964 C1967 1.387 . S
H1965 C1961 0.950 . S
H1966 C1963 0.950 . S
C1967 C1958 1.390 . S
C1967 H1960 0.950 . S
C1967 C1964 1.387 . S
C1968 C1969 1.387 . S
C1968 H1972 0.950 . S
C1968 C1977 1.390 . S
C1969 C1968 1.387 . S
C1969 C1971 1.387 . S
H1970 C1977 0.950 . S
C1971 C1969 1.387 . S
C1971 C1973 1.390 . S
C1971 H1975 0.950 . S
H1972 C1968 0.950 . S
C1973 C1971 1.390 . S
C1973 C1974 1.387 . S
C1973 H1976 0.950 . S
C1974 C1973 1.387 . S
C1974 C1977 1.387 . S
H1975 C1971 0.950 . S
H1976 C1973 0.950 . S
C1977 C1968 1.390 . S
C1977 H1970 0.950 . S
C1977 C1974 1.387 . S
C1978 C1979 1.387 . S
C1978 H1982 0.950 . S
C1978 C1987 1.390 . S
C1979 C1978 1.387 . S
C1979 C1981 1.387 . S
H1980 C1987 0.950 . S
C1981 C1979 1.387 . S
C1981 C1983 1.390 . S
C1981 H1985 0.950 . S
H1982 C1978 0.950 . S
C1983 C1981 1.390 . S
C1983 C1984 1.387 . S
C1983 H1986 0.950 . S
C1984 C1983 1.387 . S
C1984 C1987 1.387 . S
H1985 C1981 0.950 . S
H1986 C1983 0.950 . S
C1987 C1978 1.390 . S
C1987 H1980 0.950 . S
C1987 C1984 1.387 . S
C1988 C1989 1.387 . S
C1988 H1992 0.950 . S
C1988 C1997 1.390 . S
C1989 C1988 1.387 . S
C1989 C1991 1.387 . S
H1990 C1997 0.950 . S
C1991 C1989 1.387 . S
C1991 C1993 1.390 . S
C1991 H1995 0.950 . S
H1992 C1988 0.950 . S
C1993 C1991 1.390 . S
C1993 C1994 1.387 . S
C1993 H1996 0.950 . S
C1994 C1993 1.387 . S
C1994 C1997 1.387 . S
H1995 C1991 0.950 . S
H1996 C1993 0.950 . S
C1997 C1988 1.390 . S
C1997 H1990 0.950 . S
C1997 C1994 1.387 . S
C1998 C1999 1.387 . S
C1998 H2002 0.950 . S
C1998 C2007 1.390 . S
C1999 C1998 1.387 . S
C1999 C2001 1.387 . S
H2000 C2007 0.950 . S
C2001 C1999 1.387 . S
C2001 C2003 1.390 . S
C2001 H2005 0.950 . S
H2002 C1998 0.950 . S
C2003 C2001 1.390 . S
C2003 C2004 1.387 . S
C2003 H2006 0.950 . S
C2004 C2003 1.387 . S
C2004 C2007 1.387 . S
H2005 C2001 0.950 . S
H2006 C2003 0.950 . S
C2007 C1998 1.390 . S
C2007 H2000 0.950 . S
C2007 C2004 1.387 . S
C2008 C2009 1.387 . S
C2008 H2012 0.950 . S
C2008 C2017 1.390 . S
C2009 C2008 1.387 . S
C2009 C2011 1.387 . S
H2010 C2017 0.950 . S
C2011 C2009 1.387 . S
C2011 C2013 1.390 . S
C2011 H2015 0.950 . S
H2012 C2008 0.950 . S
C2013 C2011 1.390 . S
C2013 C2014 1.387 . S
C2013 H2016 0.950 . S
C2014 C2013 1.387 . S
C2014 C2017 1.387 . S
H2015 C2011 0.950 . S
H2016 C2013 0.950 . S
C2017 C2008 1.390 . S
C2017 H2010 0.950 . S
C2017 C2014 1.387 . S
C2018 C2019 1.387 . S
C2018 H2022 0.950 . S
C2018 C2027 1.390 . S
C2019 C2018 1.387 . S
C2019 C2021 1.387 . S
H2020 C2027 0.950 . S
C2021 C2019 1.387 . S
C2021 C2023 1.390 . S
C2021 H2025 0.950 . S
H2022 C2018 0.950 . S
C2023 C2021 1.390 . S
C2023 C2024 1.387 . S
C2023 H2026 0.950 . S
C2024 C2023 1.387 . S
C2024 C2027 1.387 . S
H2025 C2021 0.950 . S
H2026 C2023 0.950 . S
C2027 C2018 1.390 . S
C2027 H2020 0.950 . S
C2027 C2024 1.387 . S
C2028 C2029 1.387 . S
C2028 H2032 0.950 . S
C2028 C2037 1.390 . S
C2029 C2028 1.387 . S
C2029 C2031 1.387 . S
H2030 C2037 0.950 . S
C2031 C2029 1.387 . S
C2031 C2033 1.390 . S
C2031 H2035 0.950 . S
H2032 C2028 0.950 . S
C2033 C2031 1.390 . S
C2033 C2034 1.387 . S
C2033 H2036 0.950 . S
C2034 C2033 1.387 . S
C2034 C2037 1.387 . S
H2035 C2031 0.950 . S
H2036 C2033 0.950 . S
C2037 C2028 1.390 . S
C2037 H2030 0.950 . S
C2037 C2034 1.387 . S
C2038 C2039 1.387 . S
C2038 H2042 0.950 . S
C2038 C2047 1.390 . S
C2039 C2038 1.387 . S
C2039 C2041 1.387 . S
H2040 C2047 0.950 . S
C2041 C2039 1.387 . S
C2041 C2043 1.390 . S
C2041 H2045 0.950 . S
H2042 C2038 0.950 . S
C2043 C2041 1.390 . S
C2043 C2044 1.387 . S
C2043 H2046 0.950 . S
C2044 C2043 1.387 . S
C2044 C2047 1.387 . S
H2045 C2041 0.950 . S
H2046 C2043 0.950 . S
C2047 C2038 1.390 . S
C2047 H2040 0.950 . S
C2047 C2044 1.387 . S
C929 C303 2.909 . S
C934 C13 2.909 . S
C939 C42 2.912 . S
C944 C332 2.912 . S
C949 C245 2.912 . S
C954 C71 2.912 . S
C959 C274 2.912 . S
C964 C100 2.912 . S
C969 C129 2.909 . S
C974 C419 2.909 . S
C979 C448 2.912 . S
C984 C158 2.912 . S
C989 C187 2.912 . S
C994 C361 2.912 . S
C999 C216 2.912 . S
C1004 C390 2.912 . S
C1009 C767 2.909 . S
C1014 C477 2.909 . S
C1019 C506 2.912 . S
C1024 C796 2.912 . S
C1029 C709 2.912 . S
C1034 C535 2.912 . S
C1039 C564 2.912 . S
C1044 C738 2.912 . S
C1049 C593 2.912 . S
C1054 C883 2.912 . S
C1059 C912 2.912 . S
C1064 C622 2.912 . S
C1069 C651 2.912 . S
C1074 C825 2.912 . S
C1079 C854 2.912 . S
C1084 C680 2.912 . S
C1089 C3 0.934 . S
C1094 C32 0.933 . S
C1099 C61 0.931 . S
C1104 C90 0.931 . S
C1109 C148 0.936 . S
C1114 C119 0.936 . S
C1119 C206 0.931 . S
C1124 C177 0.931 . S
C1129 C264 0.934 . S
C1134 C235 0.933 . S
C1139 C293 0.931 . S
C1144 C322 0.931 . S
C1149 C351 0.931 . S
C1154 C380 0.931 . S
C1159 C438 0.936 . S
C1164 C409 0.936 . S
C1169 C467 0.936 . S
C1174 C496 0.936 . S
C1179 C554 0.936 . S
C1184 C525 0.936 . S
C1189 C612 0.936 . S
C1194 C583 0.936 . S
C1199 C641 0.936 . S
C1204 C670 0.936 . S
C1209 C699 0.931 . S
C1214 C728 0.931 . S
C1219 C757 0.931 . S
C1224 C786 0.931 . S
C1229 C815 0.931 . S
C1234 C844 0.931 . S
C1239 C873 0.936 . S
C1244 C902 0.936 . S
C1249 C5 2.490 . S
C1254 C63 2.490 1_545 S
C1259 C34 2.492 1_545 S
C1264 C92 2.492 . S
C1269 C121 2.490 . S
C1274 C179 2.490 1_565 S
C1279 C150 2.492 1_565 S
C1284 C208 2.492 . S
C1289 C237 2.492 . S
C1294 C295 2.492 . S
C1299 C266 2.492 . S
C1304 C324 2.492 . S
C1309 C411 2.492 . S
C1314 C353 2.492 . S
C1319 C382 2.492 . S
C1324 C440 2.492 . S
C1329 C527 2.490 1_545 S
C1334 C469 2.490 . S
C1339 C498 2.490 1_545 S
C1344 C556 2.490 . S
C1349 C643 2.490 1_565 S
C1354 C585 2.490 . S
C1359 C614 2.490 1_565 S
C1364 C672 2.490 . S
C1369 C701 2.492 . S
C1374 C759 2.492 . S
C1379 C730 2.492 . S
C1384 C788 2.492 . S
C1389 C817 2.490 . S
C1394 C875 2.490 . S
C1399 C846 2.492 . S
C1404 C904 2.492 . S
C1409 C21 0.371 . S
C1414 C108 0.371 . S
C1419 C79 0.371 . S
C1424 C50 0.371 . S
C1429 C137 0.363 . S
C1434 C224 0.363 . S
C1439 C166 0.363 . S
C1444 C195 0.363 . S
C1449 C340 0.363 . S
C1454 C253 0.363 . S
C1459 C311 0.363 . S
C1464 C282 0.363 . S
C1469 C369 0.363 . S
C1474 C456 0.363 . S
C1479 C398 0.371 . S
C1484 C427 0.371 . S
C1489 C485 0.363 . S
C1494 C572 0.363 . S
C1499 C514 0.371 . S
C1504 C543 0.371 . S
C1509 C601 0.368 . S
C1514 C688 0.366 . S
C1519 C630 0.368 . S
C1524 C659 0.366 . S
C1529 C717 0.371 . S
C1534 C804 0.371 . S
C1539 C775 0.371 . S
C1544 C746 0.371 . S
C1549 C920 0.363 . S
C1554 C833 0.363 . S
C1559 C891 0.371 . S
C1564 C862 0.371 . S
C1569 C131 3.038 . S
C1574 C15 3.038 . S
C1579 C856 3.038 . S
C1584 C44 3.038 . S
C1589 C73 3.038 . S
C1594 C421 3.038 . S
C1599 C682 3.039 . S
C1604 C102 3.039 . S
C1609 C160 3.038 . S
C1614 C740 3.038 . S
C1619 C189 3.038 . S
C1624 C305 3.038 . S
C1629 C218 3.038 . S
C1634 C566 3.038 . S
C1639 C363 3.039 . S
C1644 C247 3.039 . S
C1649 C624 3.038 . S
C1654 C276 3.038 . S
C1659 C914 3.038 . S
C1664 C334 3.038 . S
C1669 C508 3.038 . S
C1674 C392 3.038 . S
C1679 C798 3.037 . S
C1684 C450 3.037 . S
C1689 C595 3.039 . S
C1694 C479 3.039 . S
C1699 C537 3.039 . S
C1704 C885 3.039 . S
C1709 C769 3.039 . S
C1714 C653 3.039 . S
C1719 C827 3.038 . S
C1724 C711 3.038 . S
C1729 C8 0.843 . S
C1734 C66 0.843 . S
C1739 C95 0.843 . S
C1744 C37 0.843 . S
C1749 C124 0.837 . S
C1754 C182 0.837 . S
C1759 C153 0.843 . S
C1764 C211 0.843 . S
C1769 C298 0.843 . S
C1774 C240 0.843 . S
C1779 C327 0.837 . S
C1784 C269 0.837 . S
C1789 C356 0.837 . S
C1794 C414 0.837 . S
C1799 C385 0.837 . S
C1804 C443 0.837 . S
C1809 C472 0.843 . S
C1814 C530 0.843 . S
C1819 C501 0.837 . S
C1824 C559 0.837 . S
C1829 C646 0.843 . S
C1834 C588 0.843 . S
C1839 C675 0.837 . S
C1844 C617 0.837 . S
C1849 C704 0.843 . S
C1854 C762 0.843 . S
C1859 C733 0.843 . S
C1864 C791 0.843 . S
C1869 C820 0.843 . S
C1874 C878 0.843 . S
C1879 C907 0.843 . S
C1884 C849 0.843 . S
C1889 C39 3.306 . S
C1894 C10 3.306 . S
C1899 C97 3.307 . S
C1904 C68 3.307 . S
C1909 C155 3.307 . S
C1914 C126 3.307 . S
C1919 C213 3.306 . S
C1924 C184 3.306 . S
C1929 C242 3.306 1_545 S
C1934 C271 3.306 . S
C1939 C329 3.305 1_545 S
C1944 C300 3.305 . S
C1949 C387 3.306 . S
C1954 C358 3.306 1_565 S
C1959 C416 3.306 . S
C1964 C445 3.306 1_565 S
C1969 C474 3.307 . S
C1974 C503 3.307 . S
C1979 C561 3.306 . S
C1984 C532 3.306 . S
C1989 C590 3.305 . S
C1994 C619 3.305 . S
C1999 C648 3.306 . S
C2004 C677 3.306 . S
C2009 C735 3.305 . S
C2014 C706 3.305 1_545 S
C2019 C793 3.305 1_545 S
C2024 C764 3.305 . S
C2029 C851 3.306 . S
C2034 C822 3.306 1_565 S
C2039 C880 3.307 . S
C2044 C909 3.307 1_565 S
