# Generated by pormake.
# Topology cha, (4)-cn, num edge types: 1
# Building blocks:
#     Node 0, Type 0, BuildingBlock: TATPOV_clean_sbu_0, # of connection points: 4
#     Node 1, Type 0, BuildingBlock: TATPOV_clean_sbu_0, # of connection points: 4
#     Node 2, Type 0, BuildingBlock: TATPOV_clean_sbu_0, # of connection points: 4
#     Node 3, Type 0, BuildingBlock: TATPOV_clean_sbu_0, # of connection points: 4
#     Node 4, Type 0, BuildingBlock: TATPOV_clean_sbu_0, # of connection points: 4
#     Node 5, Type 0, BuildingBlock: TATPOV_clean_sbu_0, # of connection points: 4
#     Node 6, Type 0, BuildingBlock: TATPOV_clean_sbu_0, # of connection points: 4
#     Node 7, Type 0, BuildingBlock: TATPOV_clean_sbu_0, # of connection points: 4
#     Node 8, Type 0, BuildingBlock: TATPOV_clean_sbu_0, # of connection points: 4
#     Node 9, Type 0, BuildingBlock: TATPOV_clean_sbu_0, # of connection points: 4
#     Node 10, Type 0, BuildingBlock: TATPOV_clean_sbu_0, # of connection points: 4
#     Node 11, Type 0, BuildingBlock: TATPOV_clean_sbu_0, # of connection points: 4
#     Node 12, Type 0, BuildingBlock: TATPOV_clean_sbu_0, # of connection points: 4
#     Node 13, Type 0, BuildingBlock: TATPOV_clean_sbu_0, # of connection points: 4
#     Node 14, Type 0, BuildingBlock: TATPOV_clean_sbu_0, # of connection points: 4
#     Node 15, Type 0, BuildingBlock: TATPOV_clean_sbu_0, # of connection points: 4
#     Node 16, Type 0, BuildingBlock: TATPOV_clean_sbu_0, # of connection points: 4
#     Node 17, Type 0, BuildingBlock: TATPOV_clean_sbu_0, # of connection points: 4
#     Node 18, Type 0, BuildingBlock: TATPOV_clean_sbu_0, # of connection points: 4
#     Node 19, Type 0, BuildingBlock: TATPOV_clean_sbu_0, # of connection points: 4
#     Node 20, Type 0, BuildingBlock: TATPOV_clean_sbu_0, # of connection points: 4
#     Node 21, Type 0, BuildingBlock: TATPOV_clean_sbu_0, # of connection points: 4
#     Node 22, Type 0, BuildingBlock: TATPOV_clean_sbu_0, # of connection points: 4
#     Node 23, Type 0, BuildingBlock: TATPOV_clean_sbu_0, # of connection points: 4
#     Node 24, Type 0, BuildingBlock: TATPOV_clean_sbu_0, # of connection points: 4
#     Node 25, Type 0, BuildingBlock: TATPOV_clean_sbu_0, # of connection points: 4
#     Node 26, Type 0, BuildingBlock: TATPOV_clean_sbu_0, # of connection points: 4
#     Node 27, Type 0, BuildingBlock: TATPOV_clean_sbu_0, # of connection points: 4
#     Node 28, Type 0, BuildingBlock: TATPOV_clean_sbu_0, # of connection points: 4
#     Node 29, Type 0, BuildingBlock: TATPOV_clean_sbu_0, # of connection points: 4
#     Node 30, Type 0, BuildingBlock: TATPOV_clean_sbu_0, # of connection points: 4
#     Node 31, Type 0, BuildingBlock: TATPOV_clean_sbu_0, # of connection points: 4
#     Node 32, Type 0, BuildingBlock: TATPOV_clean_sbu_0, # of connection points: 4
#     Node 33, Type 0, BuildingBlock: TATPOV_clean_sbu_0, # of connection points: 4
#     Node 34, Type 0, BuildingBlock: TATPOV_clean_sbu_0, # of connection points: 4
#     Node 35, Type 0, BuildingBlock: TATPOV_clean_sbu_0, # of connection points: 4
#     Edge 36, Type (0, 0), None
#     Edge 37, Type (0, 0), None
#     Edge 38, Type (0, 0), None
#     Edge 39, Type (0, 0), None
#     Edge 40, Type (0, 0), None
#     Edge 41, Type (0, 0), None
#     Edge 42, Type (0, 0), None
#     Edge 43, Type (0, 0), None
#     Edge 44, Type (0, 0), None
#     Edge 45, Type (0, 0), None
#     Edge 46, Type (0, 0), None
#     Edge 47, Type (0, 0), None
#     Edge 48, Type (0, 0), None
#     Edge 49, Type (0, 0), None
#     Edge 50, Type (0, 0), None
#     Edge 51, Type (0, 0), None
#     Edge 52, Type (0, 0), None
#     Edge 53, Type (0, 0), None
#     Edge 54, Type (0, 0), None
#     Edge 55, Type (0, 0), None
#     Edge 56, Type (0, 0), None
#     Edge 57, Type (0, 0), None
#     Edge 58, Type (0, 0), None
#     Edge 59, Type (0, 0), None
#     Edge 60, Type (0, 0), None
#     Edge 61, Type (0, 0), None
#     Edge 62, Type (0, 0), None
#     Edge 63, Type (0, 0), None
#     Edge 64, Type (0, 0), None
#     Edge 65, Type (0, 0), None
#     Edge 66, Type (0, 0), None
#     Edge 67, Type (0, 0), None
#     Edge 68, Type (0, 0), None
#     Edge 69, Type (0, 0), None
#     Edge 70, Type (0, 0), None
#     Edge 71, Type (0, 0), None
#     Edge 72, Type (0, 0), None
#     Edge 73, Type (0, 0), None
#     Edge 74, Type (0, 0), None
#     Edge 75, Type (0, 0), None
#     Edge 76, Type (0, 0), None
#     Edge 77, Type (0, 0), None
#     Edge 78, Type (0, 0), None
#     Edge 79, Type (0, 0), None
#     Edge 80, Type (0, 0), None
#     Edge 81, Type (0, 0), None
#     Edge 82, Type (0, 0), None
#     Edge 83, Type (0, 0), None
#     Edge 84, Type (0, 0), None
#     Edge 85, Type (0, 0), None
#     Edge 86, Type (0, 0), None
#     Edge 87, Type (0, 0), None
#     Edge 88, Type (0, 0), None
#     Edge 89, Type (0, 0), None
#     Edge 90, Type (0, 0), None
#     Edge 91, Type (0, 0), None
#     Edge 92, Type (0, 0), None
#     Edge 93, Type (0, 0), None
#     Edge 94, Type (0, 0), None
#     Edge 95, Type (0, 0), None
#     Edge 96, Type (0, 0), None
#     Edge 97, Type (0, 0), None
#     Edge 98, Type (0, 0), None
#     Edge 99, Type (0, 0), None
#     Edge 100, Type (0, 0), None
#     Edge 101, Type (0, 0), None
#     Edge 102, Type (0, 0), None
#     Edge 103, Type (0, 0), None
#     Edge 104, Type (0, 0), None
#     Edge 105, Type (0, 0), None
#     Edge 106, Type (0, 0), None
#     Edge 107, Type (0, 0), None
# Relax obj value: 0.165
# Max RMSD: 0.135
# Mean RMSD: 0.135
data_MOF--net-cha--node1-TATPOV_clean_sbu_0--edge1-none
_symmetry_space_group_name_H-M    P1
_symmetry_Int_Tables_number       1
_symmetry_cell_setting            triclinic
loop_
_symmetry_equiv_pos_as_xyz
'x, y, z'
_cell_length_a     28.906217
_cell_length_b     28.903229
_cell_length_c     37.253449
_cell_angle_alpha  89.999953
_cell_angle_beta   90.000119
_cell_angle_gamma 119.99622
loop_
_atom_site_label
_atom_site_type_symbol
_atom_site_fract_x
_atom_site_fract_y
_atom_site_fract_z
_atom_type_partial_charge
Zn0 Zn 0.96534 0.30939 0.01707 0.0
Zn1 Zn 0.02224 0.26321 0.02651 0.0
O2 O 0.02325 0.30548 0.07272 0.0
O3 O 0.98372 0.35232 0.06201 0.0
O4 O 0.08751 0.25206 0.0302 0.0
O5 O 0.99159 0.34231 -0.03106 0.0
O6 O 0.02769 0.29115 -0.02573 0.0
C7 C 0.00781 0.3377 0.08343 0.0
C8 C 0.90792 0.18918 0.02409 0.0
O9 O 0.95279 0.19146 0.02826 0.0
O10 O 0.90561 0.23151 0.01925 0.0
C11 C 0.10962 0.2507 0.05949 0.0
O12 O 0.08884 0.25379 0.09011 0.0
C13 C 0.01582 0.32047 -0.04476 0.0
Zn14 Zn 0.73697 0.68242 0.01706 0.0
Zn15 Zn 0.78313 0.7855 0.02651 0.0
O16 O 0.74085 0.74425 0.07271 0.0
O17 O 0.69403 0.65788 0.06201 0.0
O18 O 0.79428 0.86193 0.03019 0.0
O19 O 0.70406 0.67575 -0.03107 0.0
O20 O 0.75519 0.76301 -0.02573 0.0
C21 C 0.70863 0.69659 0.08342 0.0
C22 C 0.85716 0.7452 0.02409 0.0
O23 O 0.85487 0.78779 0.02826 0.0
O24 O 0.81485 0.70057 0.01925 0.0
C25 C 0.7957 0.88543 0.05948 0.0
O26 O 0.79267 0.86158 0.0901 0.0
C27 C 0.72588 0.72182 -0.04476 0.0
Zn28 Zn 0.36389 0.08097 0.01706 0.0
Zn29 Zn 0.26081 0.02406 0.02652 0.0
O30 O 0.30208 0.02305 0.07272 0.0
O31 O 0.38844 0.06259 0.06201 0.0
O32 O 0.1844 0.95879 0.0302 0.0
O33 O 0.37055 0.05472 -0.03106 0.0
O34 O 0.2833 0.01861 -0.02572 0.0
C35 C 0.34973 0.03849 0.08343 0.0
C36 C 0.30111 0.13841 0.02409 0.0
O37 O 0.25852 0.09353 0.02827 0.0
O38 O 0.34574 0.14071 0.01925 0.0
C39 C 0.16093 0.93668 0.05949 0.0
O40 O 0.1848 0.95745 0.09012 0.0
C41 C 0.32448 0.03048 -0.04476 0.0
Zn42 Zn 0.30715 0.9675 0.85518 0.0
Zn43 Zn 0.26099 0.02443 0.84573 0.0
O44 O 0.30327 0.02546 0.79953 0.0
O45 O 0.35008 0.9859 0.81023 0.0
O46 O 0.24984 0.08971 0.84205 0.0
O47 O 0.34006 0.99375 0.90331 0.0
O48 O 0.28893 0.02988 0.89797 0.0
C49 C 0.33548 0.01001 0.78882 0.0
C50 C 0.18695 0.91009 0.84815 0.0
O51 O 0.18924 0.95497 0.84398 0.0
O52 O 0.22927 0.90778 0.853 0.0
C53 C 0.24842 0.11179 0.81276 0.0
O54 O 0.25145 0.09097 0.78214 0.0
C55 C 0.31824 0.018 0.917 0.0
Zn56 Zn 0.07877 0.36611 0.85518 0.0
Zn57 Zn 0.02187 0.26302 0.84573 0.0
O58 O 0.02087 0.30429 0.79952 0.0
O59 O 0.06039 0.39066 0.81023 0.0
O60 O 0.9566 0.1866 0.84204 0.0
O61 O 0.05253 0.37278 0.9033 0.0
O62 O 0.01642 0.28552 0.89797 0.0
C63 C 0.0363 0.35195 0.78881 0.0
C64 C 0.1362 0.30332 0.84815 0.0
O65 O 0.09132 0.26072 0.84398 0.0
O66 O 0.1385 0.34795 0.85299 0.0
C67 C 0.93449 0.16314 0.81275 0.0
O68 O 0.95526 0.18702 0.78213 0.0
C69 C 0.02829 0.32671 0.917 0.0
Zn70 Zn 0.68023 0.73915 0.85518 0.0
Zn71 Zn 0.7833 0.78531 0.84573 0.0
O72 O 0.74204 0.74303 0.79952 0.0
O73 O 0.65568 0.69621 0.81023 0.0
O74 O 0.85972 0.79646 0.84204 0.0
O75 O 0.67357 0.70623 0.90331 0.0
O76 O 0.76082 0.75737 0.89796 0.0
C77 C 0.69438 0.71081 0.78882 0.0
C78 C 0.743 0.85935 0.84815 0.0
O79 O 0.78559 0.85707 0.84397 0.0
O80 O 0.69838 0.81703 0.853 0.0
C81 C 0.88319 0.79782 0.81275 0.0
O82 O 0.85932 0.79473 0.78213 0.0
C83 C 0.71963 0.72806 0.917 0.0
Zn84 Zn 0.07877 0.73913 0.85518 0.0
Zn85 Zn 0.02187 0.78531 0.84573 0.0
O86 O 0.02087 0.74304 0.79952 0.0
O87 O 0.0604 0.6962 0.81023 0.0
O88 O 0.9566 0.79646 0.84204 0.0
O89 O 0.05253 0.70621 0.9033 0.0
O90 O 0.01642 0.75737 0.89797 0.0
C91 C 0.0363 0.71082 0.78881 0.0
C92 C 0.1362 0.85934 0.84815 0.0
O93 O 0.09133 0.85706 0.84398 0.0
O94 O 0.1385 0.81701 0.85299 0.0
C95 C 0.93449 0.79782 0.81275 0.0
O96 O 0.95527 0.79472 0.78213 0.0
C97 C 0.0283 0.72805 0.917 0.0
Zn98 Zn 0.30715 0.3661 0.85518 0.0
Zn99 Zn 0.26098 0.26301 0.84573 0.0
O100 O 0.30327 0.30427 0.79953 0.0
O101 O 0.35008 0.39064 0.81023 0.0
O102 O 0.24984 0.18659 0.84205 0.0
O103 O 0.34006 0.37277 0.90331 0.0
O104 O 0.28893 0.28551 0.89797 0.0
C105 C 0.33548 0.35193 0.78882 0.0
C106 C 0.18695 0.30332 0.84815 0.0
O107 O 0.18924 0.26073 0.84398 0.0
O108 O 0.22927 0.34795 0.853 0.0
C109 C 0.24842 0.16309 0.81276 0.0
O110 O 0.25145 0.18694 0.78213 0.0
C111 C 0.31824 0.3267 0.917 0.0
Zn112 Zn 0.68023 0.96754 0.85518 0.0
Zn113 Zn 0.7833 0.02445 0.84573 0.0
O114 O 0.74203 0.02547 0.79952 0.0
O115 O 0.65567 0.98593 0.81023 0.0
O116 O 0.85972 0.08973 0.84204 0.0
O117 O 0.67357 0.9938 0.90331 0.0
O118 O 0.76082 0.02991 0.89796 0.0
C119 C 0.69438 0.01003 0.78882 0.0
C120 C 0.743 0.91011 0.84815 0.0
O121 O 0.78559 0.95499 0.84397 0.0
O122 O 0.69838 0.90781 0.853 0.0
C123 C 0.88318 0.11184 0.81275 0.0
O124 O 0.85931 0.09107 0.78212 0.0
C125 C 0.71963 0.01804 0.917 0.0
Zn126 Zn 0.73697 0.08102 0.01706 0.0
Zn127 Zn 0.78313 0.02409 0.02651 0.0
O128 O 0.74085 0.02306 0.07271 0.0
O129 O 0.69403 0.06262 0.06201 0.0
O130 O 0.79428 0.95881 0.03019 0.0
O131 O 0.70405 0.05477 -0.03107 0.0
O132 O 0.75518 0.01864 -0.02573 0.0
C133 C 0.70863 0.03851 0.08342 0.0
C134 C 0.85716 0.13843 0.02409 0.0
O135 O 0.85487 0.09354 0.02826 0.0
O136 O 0.81485 0.14074 0.01925 0.0
C137 C 0.79569 0.93673 0.05948 0.0
O138 O 0.79266 0.95755 0.09011 0.0
C139 C 0.72587 0.03052 -0.04476 0.0
Zn140 Zn 0.96534 0.68241 0.01707 0.0
Zn141 Zn 0.02224 0.7855 0.02651 0.0
O142 O 0.02325 0.74423 0.07272 0.0
O143 O 0.98372 0.65786 0.06201 0.0
O144 O 0.08752 0.86192 0.0302 0.0
O145 O 0.99159 0.67574 -0.03106 0.0
O146 O 0.0277 0.763 -0.02573 0.0
C147 C 0.00781 0.69657 0.08343 0.0
C148 C 0.90792 0.7452 0.02409 0.0
O149 O 0.95279 0.78779 0.02826 0.0
O150 O 0.90561 0.70057 0.01925 0.0
C151 C 0.10963 0.88538 0.05949 0.0
O152 O 0.08885 0.8615 0.09011 0.0
C153 C 0.01582 0.72181 -0.04476 0.0
Zn154 Zn 0.36388 0.30937 0.01706 0.0
Zn155 Zn 0.26081 0.26321 0.02652 0.0
O156 O 0.30208 0.30549 0.07272 0.0
O157 O 0.38844 0.35231 0.06201 0.0
O158 O 0.18439 0.25206 0.0302 0.0
O159 O 0.37055 0.34229 -0.03106 0.0
O160 O 0.28329 0.29115 -0.02572 0.0
C161 C 0.34973 0.3377 0.08342 0.0
C162 C 0.30111 0.18917 0.02409 0.0
O163 O 0.25852 0.19145 0.02827 0.0
O164 O 0.34574 0.23148 0.01925 0.0
C165 C 0.16092 0.2507 0.05949 0.0
O166 O 0.18479 0.25379 0.09012 0.0
C167 C 0.32448 0.32046 -0.04476 0.0
Zn168 Zn 0.63201 0.64272 0.3504 0.0
Zn169 Zn 0.68891 0.59654 0.35984 0.0
O170 O 0.68991 0.63882 0.40605 0.0
O171 O 0.65039 0.68566 0.39535 0.0
O172 O 0.75418 0.58539 0.36353 0.0
O173 O 0.65825 0.67564 0.30227 0.0
O174 O 0.69436 0.62449 0.30761 0.0
C175 C 0.67448 0.67103 0.41676 0.0
C176 C 0.57458 0.52252 0.35742 0.0
O177 O 0.61946 0.52479 0.3616 0.0
O178 O 0.57228 0.56484 0.35258 0.0
C179 C 0.77629 0.58403 0.39282 0.0
O180 O 0.75551 0.58713 0.42345 0.0
C181 C 0.68248 0.6538 0.28857 0.0
Zn182 Zn 0.40364 0.01575 0.3504 0.0
Zn183 Zn 0.4498 0.11884 0.35984 0.0
O184 O 0.40751 0.07758 0.40605 0.0
O185 O 0.3607 0.99121 0.39534 0.0
O186 O 0.46094 0.19526 0.36352 0.0
O187 O 0.37072 0.00908 0.30227 0.0
O188 O 0.42185 0.09635 0.3076 0.0
C189 C 0.3753 0.02992 0.41675 0.0
C190 C 0.52383 0.07853 0.35742 0.0
O191 O 0.52154 0.12113 0.3616 0.0
O192 O 0.48151 0.0339 0.35258 0.0
C193 C 0.46236 0.21876 0.39281 0.0
O194 O 0.45933 0.19492 0.42344 0.0
C195 C 0.39254 0.05515 0.28857 0.0
Zn196 Zn 0.03055 0.41431 0.3504 0.0
Zn197 Zn 0.92748 0.3574 0.35985 0.0
O198 O 0.96875 0.35638 0.40605 0.0
O199 O 0.05511 0.39592 0.39534 0.0
O200 O 0.85106 0.29213 0.36353 0.0
O201 O 0.03721 0.38805 0.30227 0.0
O202 O 0.94996 0.35194 0.30761 0.0
C203 C 0.0164 0.37182 0.41676 0.0
C204 C 0.96778 0.47174 0.35743 0.0
O205 O 0.92519 0.42686 0.3616 0.0
O206 O 0.0124 0.47404 0.35258 0.0
C207 C 0.8276 0.27001 0.39283 0.0
O208 O 0.85147 0.29079 0.42345 0.0
C209 C 0.99115 0.36382 0.28857 0.0
Zn210 Zn 0.97382 0.30083 0.18851 0.0
Zn211 Zn 0.92765 0.35776 0.17907 0.0
O212 O 0.96994 0.3588 0.13286 0.0
O213 O 0.01675 0.31923 0.14357 0.0
O214 O 0.9165 0.42304 0.17539 0.0
O215 O 0.00673 0.32708 0.23664 0.0
O216 O 0.9556 0.36322 0.2313 0.0
C217 C 0.00216 0.34336 0.12216 0.0
C218 C 0.85362 0.24342 0.18148 0.0
O219 O 0.85591 0.2883 0.17731 0.0
O220 O 0.89594 0.24111 0.18633 0.0
C221 C 0.91507 0.44511 0.1461 0.0
O222 O 0.91809 0.42429 0.11547 0.0
C223 C 0.98491 0.35133 0.25034 0.0
Zn224 Zn 0.74545 0.69946 0.18851 0.0
Zn225 Zn 0.68854 0.59636 0.17906 0.0
O226 O 0.68752 0.63762 0.13286 0.0
O227 O 0.72706 0.724 0.14356 0.0
O228 O 0.62327 0.51993 0.17538 0.0
O229 O 0.7192 0.70611 0.23664 0.0
O230 O 0.68308 0.61885 0.2313 0.0
C231 C 0.70296 0.68528 0.12216 0.0
C232 C 0.80287 0.63666 0.18148 0.0
O233 O 0.75799 0.59406 0.17731 0.0
O234 O 0.80517 0.68129 0.18632 0.0
C235 C 0.60116 0.49647 0.14609 0.0
O236 O 0.62193 0.52035 0.11546 0.0
C237 C 0.69496 0.66004 0.25033 0.0
Zn238 Zn 0.34688 0.07247 0.18851 0.0
Zn239 Zn 0.44997 0.11865 0.17906 0.0
O240 O 0.40871 0.07636 0.13286 0.0
O241 O 0.32234 0.02953 0.14357 0.0
O242 O 0.52639 0.12979 0.17538 0.0
O243 O 0.34023 0.03957 0.23664 0.0
O244 O 0.42748 0.0907 0.2313 0.0
C245 C 0.36105 0.04414 0.12216 0.0
C246 C 0.40966 0.19268 0.18148 0.0
O247 O 0.45225 0.1904 0.1773 0.0
O248 O 0.36504 0.15036 0.18633 0.0
C249 C 0.54986 0.13116 0.14609 0.0
O250 O 0.526 0.12808 0.11546 0.0
C251 C 0.3863 0.06139 0.25033 0.0
Zn252 Zn 0.74545 0.07246 0.18851 0.0
Zn253 Zn 0.68854 0.11865 0.17906 0.0
O254 O 0.68752 0.07637 0.13286 0.0
O255 O 0.72706 0.02952 0.14356 0.0
O256 O 0.62327 0.1298 0.17538 0.0
O257 O 0.7192 0.03955 0.23664 0.0
O258 O 0.68309 0.0907 0.2313 0.0
C259 C 0.70296 0.04414 0.12216 0.0
C260 C 0.80287 0.19267 0.18148 0.0
O261 O 0.75799 0.19039 0.17731 0.0
O262 O 0.80517 0.15034 0.18632 0.0
C263 C 0.60116 0.13116 0.14609 0.0
O264 O 0.62195 0.12808 0.11546 0.0
C265 C 0.69497 0.06138 0.25034 0.0
Zn266 Zn 0.97382 0.69945 0.18851 0.0
Zn267 Zn 0.92765 0.59635 0.17907 0.0
O268 O 0.96994 0.6376 0.13286 0.0
O269 O 0.01675 0.72398 0.14357 0.0
O270 O 0.9165 0.51992 0.17539 0.0
O271 O 0.00672 0.7061 0.23664 0.0
O272 O 0.9556 0.61884 0.2313 0.0
C273 C 0.00216 0.68526 0.12216 0.0
C274 C 0.85362 0.63666 0.18148 0.0
O275 O 0.85591 0.59407 0.17731 0.0
O276 O 0.89594 0.68129 0.18633 0.0
C277 C 0.91507 0.49642 0.1461 0.0
O278 O 0.91809 0.52026 0.11547 0.0
C279 C 0.9849 0.66004 0.25034 0.0
Zn280 Zn 0.34688 0.30087 0.18851 0.0
Zn281 Zn 0.44997 0.35779 0.17906 0.0
O282 O 0.4087 0.35881 0.13286 0.0
O283 O 0.32233 0.31926 0.14357 0.0
O284 O 0.52639 0.42306 0.17538 0.0
O285 O 0.34023 0.32713 0.23664 0.0
O286 O 0.42748 0.36325 0.2313 0.0
C287 C 0.36105 0.34337 0.12216 0.0
C288 C 0.40966 0.24344 0.18148 0.0
O289 O 0.45225 0.28832 0.1773 0.0
O290 O 0.36504 0.24114 0.18633 0.0
C291 C 0.54985 0.44517 0.14608 0.0
O292 O 0.52598 0.42439 0.11546 0.0
C293 C 0.3863 0.35137 0.25033 0.0
Zn294 Zn 0.40363 0.41435 0.3504 0.0
Zn295 Zn 0.4498 0.35742 0.35984 0.0
O296 O 0.40751 0.3564 0.40604 0.0
O297 O 0.3607 0.39596 0.39534 0.0
O298 O 0.46094 0.29215 0.36352 0.0
O299 O 0.37072 0.3881 0.30227 0.0
O300 O 0.42185 0.35197 0.3076 0.0
C301 C 0.3753 0.37184 0.41675 0.0
C302 C 0.52383 0.47176 0.35742 0.0
O303 O 0.52154 0.42688 0.3616 0.0
O304 O 0.48151 0.47408 0.35258 0.0
C305 C 0.46236 0.27006 0.39281 0.0
O306 O 0.45933 0.29088 0.42344 0.0
C307 C 0.39254 0.36385 0.28857 0.0
Zn308 Zn 0.63201 0.01575 0.3504 0.0
Zn309 Zn 0.68891 0.11883 0.35984 0.0
O310 O 0.68991 0.07756 0.40605 0.0
O311 O 0.65039 0.99119 0.39535 0.0
O312 O 0.75418 0.19525 0.36353 0.0
O313 O 0.65825 0.00908 0.30227 0.0
O314 O 0.69436 0.09634 0.30761 0.0
C315 C 0.67448 0.0299 0.41676 0.0
C316 C 0.57458 0.07853 0.35742 0.0
O317 O 0.61946 0.12113 0.3616 0.0
O318 O 0.57228 0.0339 0.35258 0.0
C319 C 0.7763 0.21871 0.39282 0.0
O320 O 0.75552 0.19483 0.42345 0.0
C321 C 0.68249 0.05514 0.28857 0.0
Zn322 Zn 0.03055 0.6427 0.3504 0.0
Zn323 Zn 0.92748 0.59654 0.35985 0.0
O324 O 0.96874 0.63882 0.40605 0.0
O325 O 0.0551 0.68564 0.39534 0.0
O326 O 0.85106 0.58539 0.36353 0.0
O327 O 0.03721 0.67562 0.30227 0.0
O328 O 0.94996 0.62448 0.30761 0.0
C329 C 0.0164 0.67104 0.41676 0.0
C330 C 0.96778 0.5225 0.35743 0.0
O331 O 0.92519 0.52479 0.3616 0.0
O332 O 0.0124 0.56482 0.35258 0.0
C333 C 0.82759 0.58404 0.39283 0.0
O334 O 0.85146 0.58713 0.42345 0.0
C335 C 0.99115 0.65379 0.28857 0.0
Zn336 Zn 0.29866 0.97606 0.68373 0.0
Zn337 Zn 0.35558 0.92987 0.69318 0.0
O338 O 0.35659 0.97215 0.73938 0.0
O339 O 0.31705 0.019 0.72868 0.0
O340 O 0.42085 0.91872 0.69686 0.0
O341 O 0.32492 0.00897 0.6356 0.0
O342 O 0.36103 0.95782 0.64094 0.0
C343 C 0.34116 0.00438 0.75008 0.0
C344 C 0.24125 0.85585 0.69076 0.0
O345 O 0.28612 0.85813 0.69493 0.0
O346 O 0.23894 0.89818 0.68592 0.0
C347 C 0.44295 0.91735 0.72615 0.0
O348 O 0.42216 0.92044 0.75678 0.0
C349 C 0.34915 0.98714 0.62191 0.0
Zn350 Zn 0.0703 0.34907 0.68373 0.0
Zn351 Zn 0.11646 0.45217 0.69317 0.0
O352 O 0.07418 0.41092 0.73938 0.0
O353 O 0.02736 0.32453 0.72867 0.0
O354 O 0.12761 0.5286 0.69685 0.0
O355 O 0.03739 0.34241 0.6356 0.0
O356 O 0.08852 0.42968 0.64094 0.0
C357 C 0.04196 0.36326 0.75008 0.0
C358 C 0.19049 0.41186 0.69076 0.0
O359 O 0.18821 0.45445 0.69493 0.0
O360 O 0.14818 0.36723 0.68592 0.0
C361 C 0.12904 0.5521 0.72614 0.0
O362 O 0.12602 0.52826 0.75677 0.0
C363 C 0.05921 0.38848 0.6219 0.0
Zn364 Zn 0.69724 0.74765 0.68373 0.0
Zn365 Zn 0.59415 0.69073 0.69318 0.0
O366 O 0.63541 0.68971 0.73938 0.0
O367 O 0.72178 0.72925 0.72867 0.0
O368 O 0.51773 0.62546 0.69686 0.0
O369 O 0.70388 0.72139 0.6356 0.0
O370 O 0.61663 0.68527 0.64094 0.0
C371 C 0.68307 0.70514 0.75008 0.0
C372 C 0.63445 0.80507 0.69076 0.0
O373 O 0.59186 0.7602 0.69494 0.0
O374 O 0.67908 0.80738 0.68592 0.0
C375 C 0.49426 0.60335 0.72616 0.0
O376 O 0.51813 0.62413 0.75678 0.0
C377 C 0.65782 0.69715 0.62191 0.0
Zn378 Zn 0.64049 0.63416 0.52185 0.0
Zn379 Zn 0.59432 0.6911 0.5124 0.0
O380 O 0.63661 0.69213 0.4662 0.0
O381 O 0.68342 0.65256 0.4769 0.0
O382 O 0.58317 0.75637 0.50872 0.0
O383 O 0.67339 0.66041 0.56998 0.0
O384 O 0.62227 0.69655 0.56464 0.0
C385 C 0.66882 0.67669 0.4555 0.0
C386 C 0.52029 0.57676 0.51481 0.0
O387 O 0.52258 0.62164 0.51064 0.0
O388 O 0.56261 0.57444 0.51966 0.0
C389 C 0.58174 0.77845 0.47943 0.0
O390 O 0.58475 0.75762 0.4488 0.0
C391 C 0.65157 0.68466 0.58367 0.0
Zn392 Zn 0.41212 0.03279 0.52184 0.0
Zn393 Zn 0.3552 0.92969 0.5124 0.0
O394 O 0.35419 0.97096 0.46619 0.0
O395 O 0.39373 0.05734 0.4769 0.0
O396 O 0.28993 0.85327 0.50871 0.0
O397 O 0.38586 0.03945 0.56997 0.0
O398 O 0.34975 0.95218 0.56463 0.0
C399 C 0.36962 0.01862 0.45549 0.0
C400 C 0.46953 0.97 0.51481 0.0
O401 O 0.42466 0.9274 0.51064 0.0
O402 O 0.47184 0.01462 0.51966 0.0
C403 C 0.26782 0.8298 0.47942 0.0
O404 O 0.2886 0.85368 0.4488 0.0
C405 C 0.36163 0.99338 0.58367 0.0
Zn406 Zn 0.01355 0.40581 0.52184 0.0
Zn407 Zn 0.11664 0.45198 0.51239 0.0
O408 O 0.07537 0.40969 0.46619 0.0
O409 O 0.989 0.36287 0.4769 0.0
O410 O 0.19306 0.46313 0.50871 0.0
O411 O 0.0069 0.3729 0.56997 0.0
O412 O 0.09415 0.42403 0.56463 0.0
C413 C 0.02772 0.37747 0.45549 0.0
C414 C 0.07633 0.52602 0.51481 0.0
O415 O 0.11892 0.52373 0.51064 0.0
O416 O 0.0317 0.4837 0.51966 0.0
C417 C 0.21653 0.4645 0.47942 0.0
O418 O 0.19267 0.46142 0.44879 0.0
C419 C 0.05296 0.39472 0.58367 0.0
Zn420 Zn 0.41212 0.40579 0.52184 0.0
Zn421 Zn 0.35521 0.45198 0.5124 0.0
O422 O 0.35419 0.4097 0.46619 0.0
O423 O 0.39373 0.36285 0.4769 0.0
O424 O 0.28994 0.46313 0.50871 0.0
O425 O 0.38587 0.37288 0.56997 0.0
O426 O 0.34975 0.42403 0.56463 0.0
C427 C 0.36962 0.37747 0.45549 0.0
C428 C 0.46954 0.526 0.51481 0.0
O429 O 0.42466 0.52373 0.51064 0.0
O430 O 0.47184 0.48368 0.51966 0.0
C431 C 0.26783 0.4645 0.47942 0.0
O432 O 0.28862 0.46141 0.4488 0.0
C433 C 0.36163 0.39471 0.58367 0.0
Zn434 Zn 0.64048 0.03278 0.52185 0.0
Zn435 Zn 0.59432 0.92968 0.5124 0.0
O436 O 0.6366 0.97093 0.4662 0.0
O437 O 0.68342 0.05732 0.4769 0.0
O438 O 0.58317 0.85326 0.50872 0.0
O439 O 0.67339 0.03944 0.56998 0.0
O440 O 0.62226 0.95218 0.56464 0.0
C441 C 0.66882 0.01859 0.4555 0.0
C442 C 0.52029 0.97 0.51481 0.0
O443 O 0.52258 0.9274 0.51064 0.0
O444 O 0.5626 0.01463 0.51966 0.0
C445 C 0.58174 0.82975 0.47943 0.0
O446 O 0.58475 0.85359 0.4488 0.0
C447 C 0.65157 0.99337 0.58367 0.0
Zn448 Zn 0.01355 0.6342 0.52185 0.0
Zn449 Zn 0.11664 0.69112 0.51239 0.0
O450 O 0.07537 0.69214 0.46619 0.0
O451 O 0.989 0.6526 0.4769 0.0
O452 O 0.19305 0.75639 0.50871 0.0
O453 O 0.0069 0.66046 0.56997 0.0
O454 O 0.09415 0.69658 0.56463 0.0
C455 C 0.02771 0.67671 0.45549 0.0
C456 C 0.07633 0.57678 0.51481 0.0
O457 O 0.11892 0.62165 0.51064 0.0
O458 O 0.0317 0.57447 0.51966 0.0
C459 C 0.21652 0.7785 0.47942 0.0
O460 O 0.19265 0.75773 0.44879 0.0
C461 C 0.05296 0.6847 0.58367 0.0
Zn462 Zn 0.0703 0.74769 0.68373 0.0
Zn463 Zn 0.11646 0.69075 0.69317 0.0
O464 O 0.07418 0.68972 0.73938 0.0
O465 O 0.02736 0.72929 0.72867 0.0
O466 O 0.12761 0.62548 0.69685 0.0
O467 O 0.03739 0.72144 0.6356 0.0
O468 O 0.08852 0.6853 0.64094 0.0
C469 C 0.04196 0.70516 0.75008 0.0
C470 C 0.19049 0.8051 0.69076 0.0
O471 O 0.1882 0.76021 0.69493 0.0
O472 O 0.14818 0.80741 0.68592 0.0
C473 C 0.12904 0.6034 0.72614 0.0
O474 O 0.12602 0.62422 0.75677 0.0
C475 C 0.05921 0.69719 0.6219 0.0
Zn476 Zn 0.29866 0.34906 0.68373 0.0
Zn477 Zn 0.35558 0.45216 0.69318 0.0
O478 O 0.35659 0.4109 0.73938 0.0
O479 O 0.31705 0.32452 0.72868 0.0
O480 O 0.42085 0.52859 0.69686 0.0
O481 O 0.32492 0.34241 0.6356 0.0
O482 O 0.36103 0.42967 0.64094 0.0
C483 C 0.34116 0.36324 0.75008 0.0
C484 C 0.24125 0.41186 0.69076 0.0
O485 O 0.28612 0.45445 0.69493 0.0
O486 O 0.23894 0.36723 0.68592 0.0
C487 C 0.44296 0.55205 0.72616 0.0
O488 O 0.42218 0.52818 0.75678 0.0
C489 C 0.34915 0.38847 0.62191 0.0
Zn490 Zn 0.69723 0.97604 0.68373 0.0
Zn491 Zn 0.59414 0.92987 0.69318 0.0
O492 O 0.63541 0.97216 0.73938 0.0
O493 O 0.72178 0.01898 0.72867 0.0
O494 O 0.51772 0.91872 0.69686 0.0
O495 O 0.70388 0.00895 0.6356 0.0
O496 O 0.61663 0.95782 0.64094 0.0
C497 C 0.68306 0.00438 0.75008 0.0
C498 C 0.63445 0.85584 0.69076 0.0
O499 O 0.59186 0.85812 0.69494 0.0
O500 O 0.67908 0.89815 0.68592 0.0
C501 C 0.49425 0.91736 0.72616 0.0
O502 O 0.51811 0.92044 0.75678 0.0
C503 C 0.65782 0.98713 0.62191 0.0
loop_
_geom_bond_atom_site_label_1
_geom_bond_atom_site_label_2
_geom_bond_distance
_geom_bond_site_symmetry_2
_ccdc_geom_bond_type
Zn0 O3 2.031 . S
Zn0 O5 2.049 . S
Zn0 O10 2.067 . S
Zn1 O2 1.962 . S
Zn1 O4 1.986 . S
Zn1 O6 1.996 . S
Zn1 O9 1.943 1_455 S
O2 Zn1 1.962 . S
O2 C7 1.254 1_455 S
O3 Zn0 2.031 . S
O3 C7 1.269 . S
O4 Zn1 1.986 . S
O4 C11 1.262 . S
O5 Zn0 2.049 . S
O5 C13 1.260 1_655 S
O6 Zn1 1.996 . S
O6 C13 1.257 . S
C7 O2 1.254 1_655 S
C7 O3 1.269 . S
C8 O9 1.249 . S
C8 O10 1.270 . S
O9 Zn1 1.943 1_655 S
O9 C8 1.249 . S
O10 Zn0 2.067 . S
O10 C8 1.270 . S
C11 O4 1.262 . S
C11 O12 1.232 . S
O12 C11 1.232 . S
C13 O5 1.260 1_455 S
C13 O6 1.257 . S
Zn14 O17 2.031 . S
Zn14 O19 2.049 . S
Zn14 O24 2.067 . S
Zn15 O16 1.962 . S
Zn15 O18 1.986 . S
Zn15 O20 1.996 . S
Zn15 O23 1.943 . S
O16 Zn15 1.962 . S
O16 C21 1.254 . S
O17 Zn14 2.031 . S
O17 C21 1.269 . S
O18 Zn15 1.986 . S
O18 C25 1.262 . S
O19 Zn14 2.049 . S
O19 C27 1.260 . S
O20 Zn15 1.996 . S
O20 C27 1.257 . S
C21 O16 1.254 . S
C21 O17 1.269 . S
C22 O23 1.249 . S
C22 O24 1.270 . S
O23 Zn15 1.943 . S
O23 C22 1.249 . S
O24 Zn14 2.067 . S
O24 C22 1.270 . S
C25 O18 1.262 . S
C25 O26 1.232 . S
O26 C25 1.232 . S
C27 O19 1.260 . S
C27 O20 1.257 . S
Zn28 O31 2.031 . S
Zn28 O33 2.049 . S
Zn28 O38 2.067 . S
Zn29 O30 1.962 . S
Zn29 O32 1.986 1_545 S
Zn29 O34 1.996 . S
Zn29 O37 1.943 . S
O30 Zn29 1.962 . S
O30 C35 1.254 . S
O31 Zn28 2.031 . S
O31 C35 1.269 . S
O32 Zn29 1.986 1_565 S
O32 C39 1.262 . S
O33 Zn28 2.049 . S
O33 C41 1.260 . S
O34 Zn29 1.996 . S
O34 C41 1.257 . S
C35 O30 1.254 . S
C35 O31 1.269 . S
C36 O37 1.249 . S
C36 O38 1.270 . S
O37 Zn29 1.943 . S
O37 C36 1.249 . S
O38 Zn28 2.067 . S
O38 C36 1.270 . S
C39 O32 1.262 . S
C39 O40 1.232 . S
O40 C39 1.232 . S
C41 O33 1.260 . S
C41 O34 1.257 . S
Zn42 O45 2.031 . S
Zn42 O47 2.049 . S
Zn42 O52 2.067 . S
Zn43 O44 1.962 . S
Zn43 O46 1.986 . S
Zn43 O48 1.996 . S
Zn43 O51 1.943 1_545 S
O44 Zn43 1.962 . S
O44 C49 1.254 1_545 S
O45 Zn42 2.031 . S
O45 C49 1.269 . S
O46 Zn43 1.986 . S
O46 C53 1.262 . S
O47 Zn42 2.049 . S
O47 C55 1.260 1_565 S
O48 Zn43 1.996 . S
O48 C55 1.257 . S
C49 O44 1.254 1_565 S
C49 O45 1.269 . S
C50 O51 1.249 . S
C50 O52 1.270 . S
O51 Zn43 1.943 1_565 S
O51 C50 1.249 . S
O52 Zn42 2.067 . S
O52 C50 1.270 . S
C53 O46 1.262 . S
C53 O54 1.232 . S
O54 C53 1.232 . S
C55 O47 1.260 1_545 S
C55 O48 1.257 . S
Zn56 O59 2.031 . S
Zn56 O61 2.049 . S
Zn56 O66 2.067 . S
Zn57 O58 1.962 . S
Zn57 O60 1.986 1_455 S
Zn57 O62 1.996 . S
Zn57 O65 1.943 . S
O58 Zn57 1.962 . S
O58 C63 1.254 . S
O59 Zn56 2.031 . S
O59 C63 1.269 . S
O60 Zn57 1.986 1_655 S
O60 C67 1.262 . S
O61 Zn56 2.049 . S
O61 C69 1.260 . S
O62 Zn57 1.996 . S
O62 C69 1.257 . S
C63 O58 1.254 . S
C63 O59 1.269 . S
C64 O65 1.249 . S
C64 O66 1.270 . S
O65 Zn57 1.943 . S
O65 C64 1.249 . S
O66 Zn56 2.067 . S
O66 C64 1.270 . S
C67 O60 1.262 . S
C67 O68 1.232 . S
O68 C67 1.232 . S
C69 O61 1.260 . S
C69 O62 1.257 . S
Zn70 O73 2.031 . S
Zn70 O75 2.049 . S
Zn70 O80 2.067 . S
Zn71 O72 1.962 . S
Zn71 O74 1.986 . S
Zn71 O76 1.996 . S
Zn71 O79 1.943 . S
O72 Zn71 1.962 . S
O72 C77 1.254 . S
O73 Zn70 2.031 . S
O73 C77 1.269 . S
O74 Zn71 1.986 . S
O74 C81 1.262 . S
O75 Zn70 2.049 . S
O75 C83 1.260 . S
O76 Zn71 1.996 . S
O76 C83 1.257 . S
C77 O72 1.254 . S
C77 O73 1.269 . S
C78 O79 1.249 . S
C78 O80 1.270 . S
O79 Zn71 1.943 . S
O79 C78 1.249 . S
O80 Zn70 2.067 . S
O80 C78 1.270 . S
C81 O74 1.262 . S
C81 O82 1.232 . S
O82 C81 1.232 . S
C83 O75 1.260 . S
C83 O76 1.257 . S
Zn84 O87 2.031 . S
Zn84 O89 2.049 . S
Zn84 O94 2.067 . S
Zn85 O86 1.962 . S
Zn85 O88 1.986 1_455 S
Zn85 O90 1.996 . S
Zn85 O93 1.943 . S
O86 Zn85 1.962 . S
O86 C91 1.254 . S
O87 Zn84 2.031 . S
O87 C91 1.269 . S
O88 Zn85 1.986 1_655 S
O88 C95 1.262 . S
O89 Zn84 2.049 . S
O89 C97 1.260 . S
O90 Zn85 1.996 . S
O90 C97 1.257 . S
C91 O86 1.254 . S
C91 O87 1.269 . S
C92 O93 1.249 . S
C92 O94 1.270 . S
O93 Zn85 1.943 . S
O93 C92 1.249 . S
O94 Zn84 2.067 . S
O94 C92 1.270 . S
C95 O88 1.262 . S
C95 O96 1.232 . S
O96 C95 1.232 . S
C97 O89 1.260 . S
C97 O90 1.257 . S
Zn98 O101 2.031 . S
Zn98 O103 2.049 . S
Zn98 O108 2.067 . S
Zn99 O100 1.962 . S
Zn99 O102 1.986 . S
Zn99 O104 1.996 . S
Zn99 O107 1.943 . S
O100 Zn99 1.962 . S
O100 C105 1.254 . S
O101 Zn98 2.031 . S
O101 C105 1.269 . S
O102 Zn99 1.986 . S
O102 C109 1.262 . S
O103 Zn98 2.049 . S
O103 C111 1.260 . S
O104 Zn99 1.996 . S
O104 C111 1.257 . S
C105 O100 1.254 . S
C105 O101 1.269 . S
C106 O107 1.249 . S
C106 O108 1.270 . S
O107 Zn99 1.943 . S
O107 C106 1.249 . S
O108 Zn98 2.067 . S
O108 C106 1.270 . S
C109 O102 1.262 . S
C109 O110 1.232 . S
O110 C109 1.232 . S
C111 O103 1.260 . S
C111 O104 1.257 . S
Zn112 O115 2.031 . S
Zn112 O117 2.049 . S
Zn112 O122 2.067 . S
Zn113 O114 1.962 . S
Zn113 O116 1.986 . S
Zn113 O118 1.996 . S
Zn113 O121 1.943 1_545 S
O114 Zn113 1.962 . S
O114 C119 1.254 1_545 S
O115 Zn112 2.031 . S
O115 C119 1.269 . S
O116 Zn113 1.986 . S
O116 C123 1.262 . S
O117 Zn112 2.049 . S
O117 C125 1.260 1_565 S
O118 Zn113 1.996 . S
O118 C125 1.257 . S
C119 O114 1.254 1_565 S
C119 O115 1.269 . S
C120 O121 1.249 . S
C120 O122 1.270 . S
O121 Zn113 1.943 1_565 S
O121 C120 1.249 . S
O122 Zn112 2.067 . S
O122 C120 1.270 . S
C123 O116 1.262 . S
C123 O124 1.232 . S
O124 C123 1.232 . S
C125 O117 1.260 1_545 S
C125 O118 1.257 . S
Zn126 O129 2.031 . S
Zn126 O131 2.049 . S
Zn126 O136 2.067 . S
Zn127 O128 1.962 . S
Zn127 O130 1.986 1_545 S
Zn127 O132 1.996 . S
Zn127 O135 1.943 . S
O128 Zn127 1.962 . S
O128 C133 1.254 . S
O129 Zn126 2.031 . S
O129 C133 1.269 . S
O130 Zn127 1.986 1_565 S
O130 C137 1.262 . S
O131 Zn126 2.049 . S
O131 C139 1.260 . S
O132 Zn127 1.996 . S
O132 C139 1.257 . S
C133 O128 1.254 . S
C133 O129 1.269 . S
C134 O135 1.249 . S
C134 O136 1.270 . S
O135 Zn127 1.943 . S
O135 C134 1.249 . S
O136 Zn126 2.067 . S
O136 C134 1.270 . S
C137 O130 1.262 . S
C137 O138 1.232 . S
O138 C137 1.232 . S
C139 O131 1.260 . S
C139 O132 1.257 . S
Zn140 O143 2.031 . S
Zn140 O145 2.049 . S
Zn140 O150 2.067 . S
Zn141 O142 1.962 . S
Zn141 O144 1.986 . S
Zn141 O146 1.996 . S
Zn141 O149 1.943 1_455 S
O142 Zn141 1.962 . S
O142 C147 1.254 1_455 S
O143 Zn140 2.031 . S
O143 C147 1.269 . S
O144 Zn141 1.986 . S
O144 C151 1.262 . S
O145 Zn140 2.049 . S
O145 C153 1.260 1_655 S
O146 Zn141 1.996 . S
O146 C153 1.257 . S
C147 O142 1.254 1_655 S
C147 O143 1.269 . S
C148 O149 1.249 . S
C148 O150 1.270 . S
O149 Zn141 1.943 1_655 S
O149 C148 1.249 . S
O150 Zn140 2.067 . S
O150 C148 1.270 . S
C151 O144 1.262 . S
C151 O152 1.232 . S
O152 C151 1.232 . S
C153 O145 1.260 1_455 S
C153 O146 1.257 . S
Zn154 O157 2.031 . S
Zn154 O159 2.049 . S
Zn154 O164 2.067 . S
Zn155 O156 1.962 . S
Zn155 O158 1.986 . S
Zn155 O160 1.996 . S
Zn155 O163 1.943 . S
O156 Zn155 1.962 . S
O156 C161 1.254 . S
O157 Zn154 2.031 . S
O157 C161 1.269 . S
O158 Zn155 1.986 . S
O158 C165 1.262 . S
O159 Zn154 2.049 . S
O159 C167 1.260 . S
O160 Zn155 1.996 . S
O160 C167 1.257 . S
C161 O156 1.254 . S
C161 O157 1.269 . S
C162 O163 1.249 . S
C162 O164 1.270 . S
O163 Zn155 1.943 . S
O163 C162 1.249 . S
O164 Zn154 2.067 . S
O164 C162 1.270 . S
C165 O158 1.262 . S
C165 O166 1.232 . S
O166 C165 1.232 . S
C167 O159 1.260 . S
C167 O160 1.257 . S
Zn168 O171 2.031 . S
Zn168 O173 2.049 . S
Zn168 O178 2.067 . S
Zn169 O170 1.962 . S
Zn169 O172 1.986 . S
Zn169 O174 1.996 . S
Zn169 O177 1.943 . S
O170 Zn169 1.962 . S
O170 C175 1.254 . S
O171 Zn168 2.031 . S
O171 C175 1.269 . S
O172 Zn169 1.986 . S
O172 C179 1.262 . S
O173 Zn168 2.049 . S
O173 C181 1.260 . S
O174 Zn169 1.996 . S
O174 C181 1.257 . S
C175 O170 1.254 . S
C175 O171 1.269 . S
C176 O177 1.249 . S
C176 O178 1.270 . S
O177 Zn169 1.943 . S
O177 C176 1.249 . S
O178 Zn168 2.067 . S
O178 C176 1.270 . S
C179 O172 1.262 . S
C179 O180 1.232 . S
O180 C179 1.232 . S
C181 O173 1.260 . S
C181 O174 1.257 . S
Zn182 O185 2.031 . S
Zn182 O187 2.049 . S
Zn182 O192 2.067 . S
Zn183 O184 1.962 . S
Zn183 O186 1.986 . S
Zn183 O188 1.996 . S
Zn183 O191 1.943 . S
O184 Zn183 1.962 . S
O184 C189 1.254 . S
O185 Zn182 2.031 . S
O185 C189 1.269 . S
O186 Zn183 1.986 . S
O186 C193 1.262 . S
O187 Zn182 2.049 . S
O187 C195 1.260 . S
O188 Zn183 1.996 . S
O188 C195 1.257 . S
C189 O184 1.254 . S
C189 O185 1.269 . S
C190 O191 1.249 . S
C190 O192 1.270 . S
O191 Zn183 1.943 . S
O191 C190 1.249 . S
O192 Zn182 2.067 . S
O192 C190 1.270 . S
C193 O186 1.262 . S
C193 O194 1.232 . S
O194 C193 1.232 . S
C195 O187 1.260 . S
C195 O188 1.257 . S
Zn196 O199 2.031 . S
Zn196 O201 2.049 . S
Zn196 O206 2.067 1_455 S
Zn197 O198 1.962 . S
Zn197 O200 1.986 . S
Zn197 O202 1.996 . S
Zn197 O205 1.943 . S
O198 Zn197 1.962 . S
O198 C203 1.254 1_655 S
O199 Zn196 2.031 . S
O199 C203 1.269 . S
O200 Zn197 1.986 . S
O200 C207 1.262 . S
O201 Zn196 2.049 . S
O201 C209 1.260 1_455 S
O202 Zn197 1.996 . S
O202 C209 1.257 . S
C203 O198 1.254 1_455 S
C203 O199 1.269 . S
C204 O205 1.249 . S
C204 O206 1.270 . S
O205 Zn197 1.943 . S
O205 C204 1.249 . S
O206 Zn196 2.067 1_655 S
O206 C204 1.270 . S
C207 O200 1.262 . S
C207 O208 1.232 . S
O208 C207 1.232 . S
C209 O201 1.260 1_655 S
C209 O202 1.257 . S
Zn210 O213 2.031 . S
Zn210 O215 2.049 . S
Zn210 O220 2.067 . S
Zn211 O212 1.962 . S
Zn211 O214 1.986 . S
Zn211 O216 1.996 . S
Zn211 O219 1.943 . S
O212 Zn211 1.962 . S
O212 C217 1.254 . S
O213 Zn210 2.031 . S
O213 C217 1.269 . S
O214 Zn211 1.986 . S
O214 C221 1.262 . S
O215 Zn210 2.049 . S
O215 C223 1.260 . S
O216 Zn211 1.996 . S
O216 C223 1.257 . S
C217 O212 1.254 . S
C217 O213 1.269 . S
C218 O219 1.249 . S
C218 O220 1.270 . S
O219 Zn211 1.943 . S
O219 C218 1.249 . S
O220 Zn210 2.067 . S
O220 C218 1.270 . S
C221 O214 1.262 . S
C221 O222 1.232 . S
O222 C221 1.232 . S
C223 O215 1.260 . S
C223 O216 1.257 . S
Zn224 O227 2.031 . S
Zn224 O229 2.049 . S
Zn224 O234 2.067 . S
Zn225 O226 1.962 . S
Zn225 O228 1.986 . S
Zn225 O230 1.996 . S
Zn225 O233 1.943 . S
O226 Zn225 1.962 . S
O226 C231 1.254 . S
O227 Zn224 2.031 . S
O227 C231 1.269 . S
O228 Zn225 1.986 . S
O228 C235 1.262 . S
O229 Zn224 2.049 . S
O229 C237 1.260 . S
O230 Zn225 1.996 . S
O230 C237 1.257 . S
C231 O226 1.254 . S
C231 O227 1.269 . S
C232 O233 1.249 . S
C232 O234 1.270 . S
O233 Zn225 1.943 . S
O233 C232 1.249 . S
O234 Zn224 2.067 . S
O234 C232 1.270 . S
C235 O228 1.262 . S
C235 O236 1.232 . S
O236 C235 1.232 . S
C237 O229 1.260 . S
C237 O230 1.257 . S
Zn238 O241 2.031 . S
Zn238 O243 2.049 . S
Zn238 O248 2.067 . S
Zn239 O240 1.962 . S
Zn239 O242 1.986 . S
Zn239 O244 1.996 . S
Zn239 O247 1.943 . S
O240 Zn239 1.962 . S
O240 C245 1.254 . S
O241 Zn238 2.031 . S
O241 C245 1.269 . S
O242 Zn239 1.986 . S
O242 C249 1.262 . S
O243 Zn238 2.049 . S
O243 C251 1.260 . S
O244 Zn239 1.996 . S
O244 C251 1.257 . S
C245 O240 1.254 . S
C245 O241 1.269 . S
C246 O247 1.249 . S
C246 O248 1.270 . S
O247 Zn239 1.943 . S
O247 C246 1.249 . S
O248 Zn238 2.067 . S
O248 C246 1.270 . S
C249 O242 1.262 . S
C249 O250 1.232 . S
O250 C249 1.232 . S
C251 O243 1.260 . S
C251 O244 1.257 . S
Zn252 O255 2.031 . S
Zn252 O257 2.049 . S
Zn252 O262 2.067 . S
Zn253 O254 1.962 . S
Zn253 O256 1.986 . S
Zn253 O258 1.996 . S
Zn253 O261 1.943 . S
O254 Zn253 1.962 . S
O254 C259 1.254 . S
O255 Zn252 2.031 . S
O255 C259 1.269 . S
O256 Zn253 1.986 . S
O256 C263 1.262 . S
O257 Zn252 2.049 . S
O257 C265 1.260 . S
O258 Zn253 1.996 . S
O258 C265 1.257 . S
C259 O254 1.254 . S
C259 O255 1.269 . S
C260 O261 1.249 . S
C260 O262 1.270 . S
O261 Zn253 1.943 . S
O261 C260 1.249 . S
O262 Zn252 2.067 . S
O262 C260 1.270 . S
C263 O256 1.262 . S
C263 O264 1.232 . S
O264 C263 1.232 . S
C265 O257 1.260 . S
C265 O258 1.257 . S
Zn266 O269 2.031 . S
Zn266 O271 2.049 . S
Zn266 O276 2.067 . S
Zn267 O268 1.962 . S
Zn267 O270 1.986 . S
Zn267 O272 1.996 . S
Zn267 O275 1.943 . S
O268 Zn267 1.962 . S
O268 C273 1.254 . S
O269 Zn266 2.031 . S
O269 C273 1.269 . S
O270 Zn267 1.986 . S
O270 C277 1.262 . S
O271 Zn266 2.049 . S
O271 C279 1.260 . S
O272 Zn267 1.996 . S
O272 C279 1.257 . S
C273 O268 1.254 . S
C273 O269 1.269 . S
C274 O275 1.249 . S
C274 O276 1.270 . S
O275 Zn267 1.943 . S
O275 C274 1.249 . S
O276 Zn266 2.067 . S
O276 C274 1.270 . S
C277 O270 1.262 . S
C277 O278 1.232 . S
O278 C277 1.232 . S
C279 O271 1.260 . S
C279 O272 1.257 . S
Zn280 O283 2.031 . S
Zn280 O285 2.049 . S
Zn280 O290 2.067 . S
Zn281 O282 1.962 . S
Zn281 O284 1.986 . S
Zn281 O286 1.996 . S
Zn281 O289 1.943 . S
O282 Zn281 1.962 . S
O282 C287 1.254 . S
O283 Zn280 2.031 . S
O283 C287 1.269 . S
O284 Zn281 1.986 . S
O284 C291 1.262 . S
O285 Zn280 2.049 . S
O285 C293 1.260 . S
O286 Zn281 1.996 . S
O286 C293 1.257 . S
C287 O282 1.254 . S
C287 O283 1.269 . S
C288 O289 1.249 . S
C288 O290 1.270 . S
O289 Zn281 1.943 . S
O289 C288 1.249 . S
O290 Zn280 2.067 . S
O290 C288 1.270 . S
C291 O284 1.262 . S
C291 O292 1.232 . S
O292 C291 1.232 . S
C293 O285 1.260 . S
C293 O286 1.257 . S
Zn294 O297 2.031 . S
Zn294 O299 2.049 . S
Zn294 O304 2.067 . S
Zn295 O296 1.962 . S
Zn295 O298 1.986 . S
Zn295 O300 1.996 . S
Zn295 O303 1.943 . S
O296 Zn295 1.962 . S
O296 C301 1.254 . S
O297 Zn294 2.031 . S
O297 C301 1.269 . S
O298 Zn295 1.986 . S
O298 C305 1.262 . S
O299 Zn294 2.049 . S
O299 C307 1.260 . S
O300 Zn295 1.996 . S
O300 C307 1.257 . S
C301 O296 1.254 . S
C301 O297 1.269 . S
C302 O303 1.249 . S
C302 O304 1.270 . S
O303 Zn295 1.943 . S
O303 C302 1.249 . S
O304 Zn294 2.067 . S
O304 C302 1.270 . S
C305 O298 1.262 . S
C305 O306 1.232 . S
O306 C305 1.232 . S
C307 O299 1.260 . S
C307 O300 1.257 . S
Zn308 O311 2.031 . S
Zn308 O313 2.049 . S
Zn308 O318 2.067 . S
Zn309 O310 1.962 . S
Zn309 O312 1.986 . S
Zn309 O314 1.996 . S
Zn309 O317 1.943 . S
O310 Zn309 1.962 . S
O310 C315 1.254 . S
O311 Zn308 2.031 . S
O311 C315 1.269 . S
O312 Zn309 1.986 . S
O312 C319 1.262 . S
O313 Zn308 2.049 . S
O313 C321 1.260 . S
O314 Zn309 1.996 . S
O314 C321 1.257 . S
C315 O310 1.254 . S
C315 O311 1.269 . S
C316 O317 1.249 . S
C316 O318 1.270 . S
O317 Zn309 1.943 . S
O317 C316 1.249 . S
O318 Zn308 2.067 . S
O318 C316 1.270 . S
C319 O312 1.262 . S
C319 O320 1.232 . S
O320 C319 1.232 . S
C321 O313 1.260 . S
C321 O314 1.257 . S
Zn322 O325 2.031 . S
Zn322 O327 2.049 . S
Zn322 O332 2.067 1_455 S
Zn323 O324 1.962 . S
Zn323 O326 1.986 . S
Zn323 O328 1.996 . S
Zn323 O331 1.943 . S
O324 Zn323 1.962 . S
O324 C329 1.254 1_655 S
O325 Zn322 2.031 . S
O325 C329 1.269 . S
O326 Zn323 1.986 . S
O326 C333 1.262 . S
O327 Zn322 2.049 . S
O327 C335 1.260 1_455 S
O328 Zn323 1.996 . S
O328 C335 1.257 . S
C329 O324 1.254 1_455 S
C329 O325 1.269 . S
C330 O331 1.249 . S
C330 O332 1.270 . S
O331 Zn323 1.943 . S
O331 C330 1.249 . S
O332 Zn322 2.067 1_655 S
O332 C330 1.270 . S
C333 O326 1.262 . S
C333 O334 1.232 . S
O334 C333 1.232 . S
C335 O327 1.260 1_655 S
C335 O328 1.257 . S
Zn336 O339 2.031 . S
Zn336 O341 2.049 . S
Zn336 O346 2.067 . S
Zn337 O338 1.962 . S
Zn337 O340 1.986 . S
Zn337 O342 1.996 . S
Zn337 O345 1.943 . S
O338 Zn337 1.962 . S
O338 C343 1.254 . S
O339 Zn336 2.031 . S
O339 C343 1.269 . S
O340 Zn337 1.986 . S
O340 C347 1.262 . S
O341 Zn336 2.049 . S
O341 C349 1.260 . S
O342 Zn337 1.996 . S
O342 C349 1.257 . S
C343 O338 1.254 . S
C343 O339 1.269 . S
C344 O345 1.249 . S
C344 O346 1.270 . S
O345 Zn337 1.943 . S
O345 C344 1.249 . S
O346 Zn336 2.067 . S
O346 C344 1.270 . S
C347 O340 1.262 . S
C347 O348 1.232 . S
O348 C347 1.232 . S
C349 O341 1.260 . S
C349 O342 1.257 . S
Zn350 O353 2.031 . S
Zn350 O355 2.049 . S
Zn350 O360 2.067 . S
Zn351 O352 1.962 . S
Zn351 O354 1.986 . S
Zn351 O356 1.996 . S
Zn351 O359 1.943 . S
O352 Zn351 1.962 . S
O352 C357 1.254 . S
O353 Zn350 2.031 . S
O353 C357 1.269 . S
O354 Zn351 1.986 . S
O354 C361 1.262 . S
O355 Zn350 2.049 . S
O355 C363 1.260 . S
O356 Zn351 1.996 . S
O356 C363 1.257 . S
C357 O352 1.254 . S
C357 O353 1.269 . S
C358 O359 1.249 . S
C358 O360 1.270 . S
O359 Zn351 1.943 . S
O359 C358 1.249 . S
O360 Zn350 2.067 . S
O360 C358 1.270 . S
C361 O354 1.262 . S
C361 O362 1.232 . S
O362 C361 1.232 . S
C363 O355 1.260 . S
C363 O356 1.257 . S
Zn364 O367 2.031 . S
Zn364 O369 2.049 . S
Zn364 O374 2.067 . S
Zn365 O366 1.962 . S
Zn365 O368 1.986 . S
Zn365 O370 1.996 . S
Zn365 O373 1.943 . S
O366 Zn365 1.962 . S
O366 C371 1.254 . S
O367 Zn364 2.031 . S
O367 C371 1.269 . S
O368 Zn365 1.986 . S
O368 C375 1.262 . S
O369 Zn364 2.049 . S
O369 C377 1.260 . S
O370 Zn365 1.996 . S
O370 C377 1.257 . S
C371 O366 1.254 . S
C371 O367 1.269 . S
C372 O373 1.249 . S
C372 O374 1.270 . S
O373 Zn365 1.943 . S
O373 C372 1.249 . S
O374 Zn364 2.067 . S
O374 C372 1.270 . S
C375 O368 1.262 . S
C375 O376 1.232 . S
O376 C375 1.232 . S
C377 O369 1.260 . S
C377 O370 1.257 . S
Zn378 O381 2.031 . S
Zn378 O383 2.049 . S
Zn378 O388 2.067 . S
Zn379 O380 1.962 . S
Zn379 O382 1.986 . S
Zn379 O384 1.996 . S
Zn379 O387 1.943 . S
O380 Zn379 1.962 . S
O380 C385 1.254 . S
O381 Zn378 2.031 . S
O381 C385 1.269 . S
O382 Zn379 1.986 . S
O382 C389 1.262 . S
O383 Zn378 2.049 . S
O383 C391 1.260 . S
O384 Zn379 1.996 . S
O384 C391 1.257 . S
C385 O380 1.254 . S
C385 O381 1.269 . S
C386 O387 1.249 . S
C386 O388 1.270 . S
O387 Zn379 1.943 . S
O387 C386 1.249 . S
O388 Zn378 2.067 . S
O388 C386 1.270 . S
C389 O382 1.262 . S
C389 O390 1.232 . S
O390 C389 1.232 . S
C391 O383 1.260 . S
C391 O384 1.257 . S
Zn392 O395 2.031 . S
Zn392 O397 2.049 . S
Zn392 O402 2.067 1_545 S
Zn393 O394 1.962 . S
Zn393 O396 1.986 . S
Zn393 O398 1.996 . S
Zn393 O401 1.943 . S
O394 Zn393 1.962 . S
O394 C399 1.254 1_565 S
O395 Zn392 2.031 . S
O395 C399 1.269 . S
O396 Zn393 1.986 . S
O396 C403 1.262 . S
O397 Zn392 2.049 . S
O397 C405 1.260 1_545 S
O398 Zn393 1.996 . S
O398 C405 1.257 . S
C399 O394 1.254 1_545 S
C399 O395 1.269 . S
C400 O401 1.249 . S
C400 O402 1.270 . S
O401 Zn393 1.943 . S
O401 C400 1.249 . S
O402 Zn392 2.067 1_565 S
O402 C400 1.270 . S
C403 O396 1.262 . S
C403 O404 1.232 . S
O404 C403 1.232 . S
C405 O397 1.260 1_565 S
C405 O398 1.257 . S
Zn406 O409 2.031 . S
Zn406 O411 2.049 . S
Zn406 O416 2.067 . S
Zn407 O408 1.962 . S
Zn407 O410 1.986 . S
Zn407 O412 1.996 . S
Zn407 O415 1.943 . S
O408 Zn407 1.962 . S
O408 C413 1.254 . S
O409 Zn406 2.031 . S
O409 C413 1.269 . S
O410 Zn407 1.986 . S
O410 C417 1.262 . S
O411 Zn406 2.049 . S
O411 C419 1.260 . S
O412 Zn407 1.996 . S
O412 C419 1.257 . S
C413 O408 1.254 . S
C413 O409 1.269 . S
C414 O415 1.249 . S
C414 O416 1.270 . S
O415 Zn407 1.943 . S
O415 C414 1.249 . S
O416 Zn406 2.067 . S
O416 C414 1.270 . S
C417 O410 1.262 . S
C417 O418 1.232 . S
O418 C417 1.232 . S
C419 O411 1.260 . S
C419 O412 1.257 . S
Zn420 O423 2.031 . S
Zn420 O425 2.049 . S
Zn420 O430 2.067 . S
Zn421 O422 1.962 . S
Zn421 O424 1.986 . S
Zn421 O426 1.996 . S
Zn421 O429 1.943 . S
O422 Zn421 1.962 . S
O422 C427 1.254 . S
O423 Zn420 2.031 . S
O423 C427 1.269 . S
O424 Zn421 1.986 . S
O424 C431 1.262 . S
O425 Zn420 2.049 . S
O425 C433 1.260 . S
O426 Zn421 1.996 . S
O426 C433 1.257 . S
C427 O422 1.254 . S
C427 O423 1.269 . S
C428 O429 1.249 . S
C428 O430 1.270 . S
O429 Zn421 1.943 . S
O429 C428 1.249 . S
O430 Zn420 2.067 . S
O430 C428 1.270 . S
C431 O424 1.262 . S
C431 O432 1.232 . S
O432 C431 1.232 . S
C433 O425 1.260 . S
C433 O426 1.257 . S
Zn434 O437 2.031 . S
Zn434 O439 2.049 . S
Zn434 O444 2.067 1_545 S
Zn435 O436 1.962 . S
Zn435 O438 1.986 . S
Zn435 O440 1.996 . S
Zn435 O443 1.943 . S
O436 Zn435 1.962 . S
O436 C441 1.254 1_565 S
O437 Zn434 2.031 . S
O437 C441 1.269 . S
O438 Zn435 1.986 . S
O438 C445 1.262 . S
O439 Zn434 2.049 . S
O439 C447 1.260 1_545 S
O440 Zn435 1.996 . S
O440 C447 1.257 . S
C441 O436 1.254 1_545 S
C441 O437 1.269 . S
C442 O443 1.249 . S
C442 O444 1.270 . S
O443 Zn435 1.943 . S
O443 C442 1.249 . S
O444 Zn434 2.067 1_565 S
O444 C442 1.270 . S
C445 O438 1.262 . S
C445 O446 1.232 . S
O446 C445 1.232 . S
C447 O439 1.260 1_565 S
C447 O440 1.257 . S
Zn448 O451 2.031 . S
Zn448 O453 2.049 . S
Zn448 O458 2.067 . S
Zn449 O450 1.962 . S
Zn449 O452 1.986 . S
Zn449 O454 1.996 . S
Zn449 O457 1.943 . S
O450 Zn449 1.962 . S
O450 C455 1.254 . S
O451 Zn448 2.031 . S
O451 C455 1.269 . S
O452 Zn449 1.986 . S
O452 C459 1.262 . S
O453 Zn448 2.049 . S
O453 C461 1.260 . S
O454 Zn449 1.996 . S
O454 C461 1.257 . S
C455 O450 1.254 . S
C455 O451 1.269 . S
C456 O457 1.249 . S
C456 O458 1.270 . S
O457 Zn449 1.943 . S
O457 C456 1.249 . S
O458 Zn448 2.067 . S
O458 C456 1.270 . S
C459 O452 1.262 . S
C459 O460 1.232 . S
O460 C459 1.232 . S
C461 O453 1.260 . S
C461 O454 1.257 . S
Zn462 O465 2.031 . S
Zn462 O467 2.049 . S
Zn462 O472 2.067 . S
Zn463 O464 1.962 . S
Zn463 O466 1.986 . S
Zn463 O468 1.996 . S
Zn463 O471 1.943 . S
O464 Zn463 1.962 . S
O464 C469 1.254 . S
O465 Zn462 2.031 . S
O465 C469 1.269 . S
O466 Zn463 1.986 . S
O466 C473 1.262 . S
O467 Zn462 2.049 . S
O467 C475 1.260 . S
O468 Zn463 1.996 . S
O468 C475 1.257 . S
C469 O464 1.254 . S
C469 O465 1.269 . S
C470 O471 1.249 . S
C470 O472 1.270 . S
O471 Zn463 1.943 . S
O471 C470 1.249 . S
O472 Zn462 2.067 . S
O472 C470 1.270 . S
C473 O466 1.262 . S
C473 O474 1.232 . S
O474 C473 1.232 . S
C475 O467 1.260 . S
C475 O468 1.257 . S
Zn476 O479 2.031 . S
Zn476 O481 2.049 . S
Zn476 O486 2.067 . S
Zn477 O478 1.962 . S
Zn477 O480 1.986 . S
Zn477 O482 1.996 . S
Zn477 O485 1.943 . S
O478 Zn477 1.962 . S
O478 C483 1.254 . S
O479 Zn476 2.031 . S
O479 C483 1.269 . S
O480 Zn477 1.986 . S
O480 C487 1.262 . S
O481 Zn476 2.049 . S
O481 C489 1.260 . S
O482 Zn477 1.996 . S
O482 C489 1.257 . S
C483 O478 1.254 . S
C483 O479 1.269 . S
C484 O485 1.249 . S
C484 O486 1.270 . S
O485 Zn477 1.943 . S
O485 C484 1.249 . S
O486 Zn476 2.067 . S
O486 C484 1.270 . S
C487 O480 1.262 . S
C487 O488 1.232 . S
O488 C487 1.232 . S
C489 O481 1.260 . S
C489 O482 1.257 . S
Zn490 O493 2.031 . S
Zn490 O495 2.049 . S
Zn490 O500 2.067 . S
Zn491 O492 1.962 . S
Zn491 O494 1.986 . S
Zn491 O496 1.996 . S
Zn491 O499 1.943 . S
O492 Zn491 1.962 . S
O492 C497 1.254 . S
O493 Zn490 2.031 . S
O493 C497 1.269 . S
O494 Zn491 1.986 . S
O494 C501 1.262 . S
O495 Zn490 2.049 . S
O495 C503 1.260 . S
O496 Zn491 1.996 . S
O496 C503 1.257 . S
C497 O492 1.254 . S
C497 O493 1.269 . S
C498 O499 1.249 . S
C498 O500 1.270 . S
O499 Zn491 1.943 . S
O499 C498 1.249 . S
O500 Zn490 2.067 . S
O500 C498 1.270 . S
C501 O494 1.262 . S
C501 O502 1.232 . S
O502 C501 1.232 . S
C503 O495 1.260 . S
C503 O496 1.257 . S
C11 C165 1.237 . S
C137 C25 1.236 . S
C151 C39 1.237 . S
C53 C109 1.237 . S
C67 C123 1.237 . S
C81 C95 1.236 . S
C179 C333 1.236 . S
C305 C193 1.237 . S
C207 C319 1.236 . S
C221 C277 1.237 . S
C235 C291 1.236 . S
C249 C263 1.236 . S
C347 C501 1.237 . S
C361 C473 1.236 . S
C487 C375 1.236 . S
C389 C445 1.236 . S
C459 C403 1.236 . S
C431 C417 1.237 . S
C7 C217 1.119 . S
C21 C231 1.119 . S
C35 C245 1.119 . S
C49 C343 1.119 . S
C357 C63 1.119 . S
C371 C77 1.119 . S
C91 C469 1.119 . S
C483 C105 1.119 . S
C119 C497 1.119 . S
C133 C259 1.119 . S
C147 C273 1.119 . S
C161 C287 1.119 . S
C385 C175 1.119 . S
C189 C399 1.119 . S
C203 C413 1.119 . S
C427 C301 1.119 . S
C441 C315 1.119 . S
C329 C455 1.119 . S
C13 C69 1.559 1_554 S
C83 C27 1.559 1_556 S
C55 C41 1.559 1_556 S
C97 C153 1.559 1_556 S
C167 C111 1.559 1_554 S
C125 C139 1.559 1_556 S
C237 C181 1.559 . S
C195 C251 1.559 . S
C209 C223 1.559 . S
C321 C265 1.559 . S
C335 C279 1.559 . S
C307 C293 1.559 . S
C349 C405 1.559 . S
C363 C419 1.559 . S
C377 C391 1.559 . S
C489 C433 1.559 . S
C503 C447 1.559 . S
C475 C461 1.559 . S
C134 C8 1.546 . S
C148 C22 1.546 . S
C36 C162 1.546 . S
C50 C92 1.546 . S
C106 C64 1.546 . S
C78 C120 1.546 . S
C302 C176 1.546 . S
C316 C190 1.546 . S
C204 C330 1.546 . S
C260 C218 1.546 . S
C274 C232 1.546 . S
C288 C246 1.546 . S
C344 C470 1.546 . S
C484 C358 1.546 . S
C372 C498 1.546 . S
C386 C428 1.546 . S
C400 C442 1.546 . S
C456 C414 1.546 . S
