# Generated by pormake.
# Topology crs, (6)-cn, num edge types: 1
# Building blocks:
#     Node 0, Type 0, BuildingBlock: INOVEN_clean_sbu_0, # of connection points: 6
#     Node 1, Type 0, BuildingBlock: INOVEN_clean_sbu_0, # of connection points: 6
#     Node 2, Type 0, BuildingBlock: INOVEN_clean_sbu_0, # of connection points: 6
#     Node 3, Type 0, BuildingBlock: INOVEN_clean_sbu_0, # of connection points: 6
#     Node 4, Type 0, BuildingBlock: INOVEN_clean_sbu_0, # of connection points: 6
#     Node 5, Type 0, BuildingBlock: INOVEN_clean_sbu_0, # of connection points: 6
#     Node 6, Type 0, BuildingBlock: INOVEN_clean_sbu_0, # of connection points: 6
#     Node 7, Type 0, BuildingBlock: INOVEN_clean_sbu_0, # of connection points: 6
#     Node 8, Type 0, BuildingBlock: INOVEN_clean_sbu_0, # of connection points: 6
#     Node 9, Type 0, BuildingBlock: INOVEN_clean_sbu_0, # of connection points: 6
#     Node 10, Type 0, BuildingBlock: INOVEN_clean_sbu_0, # of connection points: 6
#     Node 11, Type 0, BuildingBlock: INOVEN_clean_sbu_0, # of connection points: 6
#     Node 12, Type 0, BuildingBlock: INOVEN_clean_sbu_0, # of connection points: 6
#     Node 13, Type 0, BuildingBlock: INOVEN_clean_sbu_0, # of connection points: 6
#     Node 14, Type 0, BuildingBlock: INOVEN_clean_sbu_0, # of connection points: 6
#     Node 15, Type 0, BuildingBlock: INOVEN_clean_sbu_0, # of connection points: 6
#     Edge 16, Type (0, 0), BuildingBlock: ZUJKAS_clean_linker_0, # of connection points: 2
#     Edge 17, Type (0, 0), BuildingBlock: ZUJKAS_clean_linker_0, # of connection points: 2
#     Edge 18, Type (0, 0), BuildingBlock: ZUJKAS_clean_linker_0, # of connection points: 2
#     Edge 19, Type (0, 0), BuildingBlock: ZUJKAS_clean_linker_0, # of connection points: 2
#     Edge 20, Type (0, 0), BuildingBlock: ZUJKAS_clean_linker_0, # of connection points: 2
#     Edge 21, Type (0, 0), BuildingBlock: ZUJKAS_clean_linker_0, # of connection points: 2
#     Edge 22, Type (0, 0), BuildingBlock: ZUJKAS_clean_linker_0, # of connection points: 2
#     Edge 23, Type (0, 0), BuildingBlock: ZUJKAS_clean_linker_0, # of connection points: 2
#     Edge 24, Type (0, 0), BuildingBlock: ZUJKAS_clean_linker_0, # of connection points: 2
#     Edge 25, Type (0, 0), BuildingBlock: ZUJKAS_clean_linker_0, # of connection points: 2
#     Edge 26, Type (0, 0), BuildingBlock: ZUJKAS_clean_linker_0, # of connection points: 2
#     Edge 27, Type (0, 0), BuildingBlock: ZUJKAS_clean_linker_0, # of connection points: 2
#     Edge 28, Type (0, 0), BuildingBlock: ZUJKAS_clean_linker_0, # of connection points: 2
#     Edge 29, Type (0, 0), BuildingBlock: ZUJKAS_clean_linker_0, # of connection points: 2
#     Edge 30, Type (0, 0), BuildingBlock: ZUJKAS_clean_linker_0, # of connection points: 2
#     Edge 31, Type (0, 0), BuildingBlock: ZUJKAS_clean_linker_0, # of connection points: 2
#     Edge 32, Type (0, 0), BuildingBlock: ZUJKAS_clean_linker_0, # of connection points: 2
#     Edge 33, Type (0, 0), BuildingBlock: ZUJKAS_clean_linker_0, # of connection points: 2
#     Edge 34, Type (0, 0), BuildingBlock: ZUJKAS_clean_linker_0, # of connection points: 2
#     Edge 35, Type (0, 0), BuildingBlock: ZUJKAS_clean_linker_0, # of connection points: 2
#     Edge 36, Type (0, 0), BuildingBlock: ZUJKAS_clean_linker_0, # of connection points: 2
#     Edge 37, Type (0, 0), BuildingBlock: ZUJKAS_clean_linker_0, # of connection points: 2
#     Edge 38, Type (0, 0), BuildingBlock: ZUJKAS_clean_linker_0, # of connection points: 2
#     Edge 39, Type (0, 0), BuildingBlock: ZUJKAS_clean_linker_0, # of connection points: 2
#     Edge 40, Type (0, 0), BuildingBlock: ZUJKAS_clean_linker_0, # of connection points: 2
#     Edge 41, Type (0, 0), BuildingBlock: ZUJKAS_clean_linker_0, # of connection points: 2
#     Edge 42, Type (0, 0), BuildingBlock: ZUJKAS_clean_linker_0, # of connection points: 2
#     Edge 43, Type (0, 0), BuildingBlock: ZUJKAS_clean_linker_0, # of connection points: 2
#     Edge 44, Type (0, 0), BuildingBlock: ZUJKAS_clean_linker_0, # of connection points: 2
#     Edge 45, Type (0, 0), BuildingBlock: ZUJKAS_clean_linker_0, # of connection points: 2
#     Edge 46, Type (0, 0), BuildingBlock: ZUJKAS_clean_linker_0, # of connection points: 2
#     Edge 47, Type (0, 0), BuildingBlock: ZUJKAS_clean_linker_0, # of connection points: 2
#     Edge 48, Type (0, 0), BuildingBlock: ZUJKAS_clean_linker_0, # of connection points: 2
#     Edge 49, Type (0, 0), BuildingBlock: ZUJKAS_clean_linker_0, # of connection points: 2
#     Edge 50, Type (0, 0), BuildingBlock: ZUJKAS_clean_linker_0, # of connection points: 2
#     Edge 51, Type (0, 0), BuildingBlock: ZUJKAS_clean_linker_0, # of connection points: 2
#     Edge 52, Type (0, 0), BuildingBlock: ZUJKAS_clean_linker_0, # of connection points: 2
#     Edge 53, Type (0, 0), BuildingBlock: ZUJKAS_clean_linker_0, # of connection points: 2
#     Edge 54, Type (0, 0), BuildingBlock: ZUJKAS_clean_linker_0, # of connection points: 2
#     Edge 55, Type (0, 0), BuildingBlock: ZUJKAS_clean_linker_0, # of connection points: 2
#     Edge 56, Type (0, 0), BuildingBlock: ZUJKAS_clean_linker_0, # of connection points: 2
#     Edge 57, Type (0, 0), BuildingBlock: ZUJKAS_clean_linker_0, # of connection points: 2
#     Edge 58, Type (0, 0), BuildingBlock: ZUJKAS_clean_linker_0, # of connection points: 2
#     Edge 59, Type (0, 0), BuildingBlock: ZUJKAS_clean_linker_0, # of connection points: 2
#     Edge 60, Type (0, 0), BuildingBlock: ZUJKAS_clean_linker_0, # of connection points: 2
#     Edge 61, Type (0, 0), BuildingBlock: ZUJKAS_clean_linker_0, # of connection points: 2
#     Edge 62, Type (0, 0), BuildingBlock: ZUJKAS_clean_linker_0, # of connection points: 2
#     Edge 63, Type (0, 0), BuildingBlock: ZUJKAS_clean_linker_0, # of connection points: 2
# Relax obj value: 0.359
# Max RMSD: 0.328
# Mean RMSD: 0.274
data_MOF--net-crs--node1-INOVEN_clean_sbu_0--edge1-ZUJKAS_clean_linker_0
_symmetry_space_group_name_H-M    P1
_symmetry_Int_Tables_number       1
_symmetry_cell_setting            triclinic
loop_
_symmetry_equiv_pos_as_xyz
'x, y, z'
_cell_length_a     65.927489
_cell_length_b     66.904995
_cell_length_c     58.159394
_cell_angle_alpha  77.726514
_cell_angle_beta   79.260377
_cell_angle_gamma 69.245623
loop_
_atom_site_label
_atom_site_type_symbol
_atom_site_fract_x
_atom_site_fract_y
_atom_site_fract_z
_atom_type_partial_charge
Gd0 Gd 0.98293 0.00923 0.01873 0.0
Gd1 Gd 0.01988 0.01215 0.97902 0.0
C2 C 0.01036 0.96838 0.98984 0.0
C3 C 0.94825 1.00198 0.04169 0.0
C4 C 0.93727 0.98811 0.03661 0.0
C5 C 0.92251 0.98072 0.05379 0.0
C6 C 0.94255 0.98131 0.01442 0.0
C7 C 0.91853 0.95978 0.02638 0.0
C8 C 0.93372 0.96691 0.00954 0.0
C9 C 0.91295 0.9668 0.0486 0.0
C10 C 0.02114 1.00286 0.03382 0.0
C11 C 0.9941 0.05216 1.00916 0.0
C12 C 0.05275 0.02159 0.9545 0.0
C13 C 0.06197 0.03754 0.95859 0.0
C14 C 0.05195 0.05981 0.95093 0.0
C15 C 0.07808 0.03106 0.97394 0.0
C16 C 0.07085 0.06855 0.97738 0.0
C17 C 0.08242 0.04644 0.98329 0.0
C18 C 0.05634 0.07519 0.96031 0.0
C19 C 0.98145 0.01791 0.96455 0.0
O20 O 0.99237 0.97878 1.00259 0.0
O21 O 0.02579 0.97702 0.98059 0.0
O22 O 0.96768 0.99167 0.04838 0.0
O23 O 0.94769 0.01912 0.02563 0.0
O24 O 0.00225 0.01181 0.04534 0.0
O25 O 0.01888 0.9961 0.0161 0.0
O26 O 0.01224 0.04148 0.99678 0.0
O27 O 0.97807 0.04412 0.01722 0.0
O28 O 0.03317 0.02964 0.94772 0.0
O29 O 0.05495 0.00436 0.97086 0.0
O30 O 0.00026 0.00844 0.95331 0.0
O31 O 0.98398 0.02514 0.98175 0.0
H32 H 0.91836 0.98572 0.07108 0.0
H33 H 0.95348 0.9872 1.00071 0.0
H34 H 0.93828 0.96194 0.99224 0.0
H35 H 0.90139 0.96138 0.06199 0.0
H36 H 0.03962 0.0654 0.93893 0.0
H37 H 0.08632 0.01407 0.97995 0.0
H38 H 0.09427 0.04102 0.99581 0.0
H39 H 0.04736 0.09219 0.95533 0.0
Gd40 Gd -0.00302 0.27285 0.26778 0.0
Gd41 Gd 0.98526 0.24204 0.24785 0.0
C42 C 0.9651 0.24726 0.30072 0.0
C43 C -0.00224 0.30382 0.28742 0.0
C44 C -2e-05 0.30819 0.31052 0.0
C45 C 0.01987 0.29889 0.32028 0.0
C46 C 0.98255 0.32335 0.32199 0.0
C47 C 0.0053 0.321 0.3516 0.0
C48 C 0.98514 0.32963 0.3424 0.0
C49 C 0.0225 0.30527 0.34059 0.0
C50 C 0.02677 0.23237 0.27228 0.0
C51 C 0.017 0.26739 0.21507 0.0
C52 C 0.98396 0.21184 0.2273 0.0
C53 C 0.9876 0.20603 0.20338 0.0
C54 C 0.9698 0.20557 0.19376 0.0
C55 C 0.00856 0.1998 0.19055 0.0
C56 C 0.99383 0.19188 0.15938 0.0
C57 C 0.01164 0.19273 0.16876 0.0
C58 C 0.97285 0.19867 0.17199 0.0
C59 C 0.95541 0.28252 0.24449 0.0
O60 O 0.97158 0.26442 0.2967 0.0
O61 O 0.97152 0.23354 0.28546 0.0
O62 O 0.01502 0.29102 0.27645 0.0
O63 O 0.97965 0.30084 0.2854 0.0
O64 O 0.03152 0.25003 0.26867 0.0
O65 O 0.00628 0.23674 0.27536 0.0
O66 O 0.01131 0.24977 0.21953 0.0
O67 O 0.00951 0.28164 0.22975 0.0
O68 O 0.967 0.22867 0.23163 0.0
O69 O 0.001 0.21063 0.23669 0.0
O70 O 0.95059 0.26482 0.24927 0.0
O71 O 0.9759 0.27818 0.24044 0.0
H72 H 0.03364 0.28713 0.31189 0.0
H73 H 0.96712 0.3309 0.31472 0.0
H74 H 0.97166 0.34196 0.35036 0.0
H75 H 0.03815 0.2982 0.34744 0.0
H76 H 0.95353 0.21008 0.20339 0.0
H77 H 0.02263 0.19999 0.19749 0.0
H78 H 0.02798 0.18768 0.15939 0.0
H79 H 0.95885 0.19784 0.16548 0.0
Gd80 Gd 0.73872 0.24103 0.49675 0.0
Gd81 Gd 0.75011 0.26914 0.52569 0.0
C82 C 0.7034 0.26257 0.54034 0.0
C83 C 0.72764 0.21223 0.48395 0.0
C84 C 0.71602 0.19739 0.49666 0.0
C85 C 0.71482 0.18133 0.48554 0.0
C86 C 0.70662 0.19876 0.52023 0.0
C87 C 0.69431 0.16843 0.52133 0.0
C88 C 0.69582 0.18441 0.53249 0.0
C89 C 0.70402 0.16694 0.49777 0.0
C90 C 0.73883 0.28061 0.4724 0.0
C91 C 0.78634 0.24478 0.48563 0.0
C92 C 0.75662 0.30162 0.53618 0.0
C93 C 0.76513 0.31819 0.5215 0.0
C94 C 0.76702 0.33446 0.53168 0.0
C95 C 0.77258 0.31705 0.49743 0.0
C96 C 0.78548 0.34739 0.49423 0.0
C97 C 0.78258 0.33162 0.48384 0.0
C98 C 0.77716 0.34897 0.51816 0.0
C99 C 0.75686 0.22777 0.55059 0.0
O100 O 0.70933 0.24894 0.52487 0.0
O101 O 0.71579 0.27361 0.54275 0.0
O102 O 0.71593 0.23285 0.48118 0.0
O103 O 0.74683 0.20827 0.49054 0.0
O104 O 0.74341 0.26348 0.46281 0.0
O105 O 0.73236 0.27643 0.49429 0.0
O106 O 0.77853 0.26178 0.49676 0.0
O107 O 0.7751 0.23161 0.4868 0.0
O108 O 0.77085 0.28202 0.53849 0.0
O109 O 0.73753 0.30233 0.53192 0.0
O110 O 0.7601 0.24315 0.55821 0.0
O111 O 0.7508 0.23559 0.53037 0.0
H112 H 0.7221 0.18003 0.46738 0.0
H113 H 0.70768 0.21087 0.5292 0.0
H114 H 0.68861 0.18584 0.55065 0.0
H115 H 0.70276 0.15503 0.48857 0.0
H116 H 0.7614 0.33546 0.55027 0.0
H117 H 0.77125 0.30449 0.48935 0.0
H118 H 0.78865 0.33011 0.46543 0.0
H119 H 0.77949 0.36066 0.52685 0.0
Gd120 Gd 0.72932 0.99467 0.74233 0.0
Gd121 Gd 0.75872 0.00636 0.77019 0.0
C122 C 0.74961 0.03356 0.71793 0.0
C123 C 0.70252 0.99247 0.71664 0.0
C124 C 0.69021 0.00447 0.69643 0.0
C125 C 0.69541 0.99535 0.67562 0.0
C126 C 0.67252 0.02375 0.69797 0.0
C127 C 0.66432 0.02338 0.65889 0.0
C128 C 0.65968 0.03313 0.67932 0.0
C129 C 0.68268 0.00469 0.65706 0.0
C130 C 0.77037 0.96647 0.74475 0.0
C131 C 0.73477 0.97033 0.79613 0.0
C132 C 0.79194 0.00558 0.78829 0.0
C133 C 0.7982 0.00759 0.81062 0.0
C134 C 0.79866 0.0276 0.81402 0.0
C135 C 0.80585 0.98919 0.82764 0.0
C136 C 0.81563 0.01053 0.85013 0.0
C137 C 0.81441 0.99067 0.84722 0.0
C138 C 0.80719 0.02907 0.83361 0.0
C139 C 0.71613 0.03215 0.77841 0.0
O140 O 0.73461 0.02449 0.71828 0.0
O141 O 0.76285 0.02709 0.73459 0.0
O142 O 0.7238 0.98497 0.71167 0.0
O143 O 0.69607 0.99952 0.73709 0.0
O144 O 0.75326 0.96103 0.74543 0.0
O145 O 0.76523 0.98692 0.74163 0.0
O146 O 0.75054 0.97853 0.79566 0.0
O147 O 0.72214 0.97653 0.77882 0.0
O148 O 0.77923 0.02313 0.77662 0.0
O149 O 0.78743 0.9881 0.7878 0.0
O150 O 0.73191 0.03279 0.78837 0.0
O151 O 0.72407 0.01725 0.76612 0.0
H152 H 0.70887 0.98041 0.67407 0.0
H153 H 0.66818 0.03121 0.71379 0.0
H154 H 0.64572 0.04761 0.68119 0.0
H155 H 0.68653 0.99645 0.64188 0.0
H156 H 0.79316 0.04202 0.80109 0.0
H157 H 0.80587 0.9735 0.82549 0.0
H158 H 0.8206 0.97614 0.85978 0.0
H159 H 0.80818 0.04454 0.83515 0.0
Gd160 Gd 0.49849 0.76875 0.27059 0.0
Gd161 Gd 0.48417 0.73961 0.25093 0.0
C162 C 0.46634 0.74386 0.30451 0.0
C163 C 0.50156 0.79876 0.2901 0.0
C164 C 0.49737 0.80618 0.31321 0.0
C165 C 0.50912 0.79373 0.33214 0.0
C166 C 0.48271 0.82695 0.31566 0.0
C167 C 0.49297 0.82352 0.35476 0.0
C168 C 0.48045 0.83551 0.33625 0.0
C169 C 0.50693 0.80233 0.35273 0.0
C170 C 0.52792 0.72836 0.27145 0.0
C171 C 0.51735 0.76302 0.21753 0.0
C172 C 0.47928 0.7109 0.23081 0.0
C173 C 0.48496 0.70258 0.20818 0.0
C174 C 0.46875 0.69854 0.19919 0.0
C175 C 0.50609 0.69814 0.19574 0.0
C176 C 0.49474 0.68497 0.16593 0.0
C177 C 0.51096 0.6893 0.17479 0.0
C178 C 0.47355 0.68986 0.17829 0.0
C179 C 0.45518 0.78037 0.25031 0.0
O180 O 0.47387 0.76033 0.30071 0.0
O181 O 0.47101 0.731 0.28859 0.0
O182 O 0.51751 0.78073 0.28735 0.0
O183 O 0.48454 0.80099 0.28006 0.0
O184 O 0.53291 0.74597 0.26679 0.0
O185 O 0.50744 0.73269 0.27662 0.0
O186 O 0.51028 0.74625 0.22199 0.0
O187 O 0.51168 0.77682 0.23263 0.0
O188 O 0.46539 0.73048 0.23064 0.0
O189 O 0.495 0.70673 0.2437 0.0
O190 O 0.4499 0.76292 0.2559 0.0
O191 O 0.47561 0.7756 0.24468 0.0
H192 H 0.52057 0.77764 0.33079 0.0
H193 H 0.47346 0.83687 0.30132 0.0
H194 H 0.46926 0.85174 0.33744 0.0
H195 H 0.51693 0.79273 0.36656 0.0
H196 H 0.45238 0.70181 0.20858 0.0
H197 H 0.51883 0.70127 0.20229 0.0
H198 H 0.52739 0.6858 0.16556 0.0
H199 H 0.46079 0.68638 0.17219 0.0
Gd200 Gd 0.23681 0.74427 0.49521 0.0
Gd201 Gd 0.24789 0.76729 0.52475 0.0
C202 C 0.19925 0.76852 0.53478 0.0
C203 C 0.22022 0.7224 0.47719 0.0
C204 C 0.1993 0.71825 0.48254 0.0
C205 C 0.1873 0.72112 0.46392 0.0
C206 C 0.19036 0.71316 0.50604 0.0
C207 C 0.1577 0.71356 0.49206 0.0
C208 C 0.16974 0.7107 0.51075 0.0
C209 C 0.16664 0.71885 0.46862 0.0
C210 C 0.23916 0.78347 0.47228 0.0
C211 C 0.28567 0.74147 0.48616 0.0
C212 C 0.26374 0.79115 0.54058 0.0
C213 C 0.2832 0.79755 0.53189 0.0
C214 C 0.29421 0.8015 0.54787 0.0
C215 C 0.29214 0.79755 0.50803 0.0
C216 C 0.32393 0.80379 0.51653 0.0
C217 C 0.31241 0.80043 0.50046 0.0
C218 C 0.31428 0.80485 0.54022 0.0
C219 C 0.24573 0.72824 0.54811 0.0
O220 O 0.20628 0.75297 0.52167 0.0
O221 O 0.21199 0.77934 0.53648 0.0
O222 O 0.21869 0.74251 0.46876 0.0
O223 O 0.23399 0.71347 0.49294 0.0
O224 O 0.24686 0.76581 0.46318 0.0
O225 O 0.23018 0.77979 0.49328 0.0
O226 O 0.27857 0.7576 0.49851 0.0
O227 O 0.27277 0.73073 0.48479 0.0
O228 O 0.2678 0.7705 0.54851 0.0
O229 O 0.24803 0.79911 0.52706 0.0
O230 O 0.23869 0.74587 0.55726 0.0
O231 O 0.25446 0.73173 0.5269 0.0
H232 H 0.19386 0.72526 0.44571 0.0
H233 H 0.19918 0.71125 0.52076 0.0
H234 H 0.16317 0.70663 0.52896 0.0
H235 H 0.15787 0.72073 0.45387 0.0
H236 H 0.28748 0.80161 0.56634 0.0
H237 H 0.28376 0.79471 0.49535 0.0
H238 H 0.31924 0.79942 0.48215 0.0
H239 H 0.3222 0.8082 0.55297 0.0
Gd240 Gd 0.22734 0.50214 0.75448 0.0
Gd241 Gd 0.26264 0.51029 0.7714 0.0
C242 C 0.25137 0.53493 0.72026 0.0
C243 C 0.19291 0.50512 0.73697 0.0
C244 C 0.18513 0.5106 0.71345 0.0
C245 C 0.19282 0.49566 0.69751 0.0
C246 C 0.16891 0.53048 0.70732 0.0
C247 C 0.16719 0.51979 0.67045 0.0
C248 C 0.16008 0.53507 0.68599 0.0
C249 C 0.18396 0.50021 0.67625 0.0
C250 C 0.26727 0.4722 0.74637 0.0
C251 C 0.23909 0.47693 0.80542 0.0
C252 C 0.29723 0.50792 0.7881 0.0
C253 C 0.30486 0.50552 0.81101 0.0
C254 C 0.29209 0.51786 0.82854 0.0
C255 C 0.32598 0.49162 0.8147 0.0
C256 C 0.32244 0.50396 0.85212 0.0
C257 C 0.3347 0.4908 0.83507 0.0
C258 C 0.30087 0.51714 0.84892 0.0
C259 C 0.22254 0.53993 0.78012 0.0
O260 O 0.23348 0.52938 0.72608 0.0
O261 O 0.26755 0.52609 0.73347 0.0
O262 O 0.20892 0.48698 0.74114 0.0
O263 O 0.19472 0.52091 0.74548 0.0
O264 O 0.24914 0.46792 0.75201 0.0
O265 O 0.26341 0.49242 0.74359 0.0
O266 O 0.25667 0.48302 0.79985 0.0
O267 O 0.22293 0.48535 0.79211 0.0
O268 O 0.28227 0.52618 0.78133 0.0
O269 O 0.29411 0.49106 0.78339 0.0
O270 O 0.24056 0.54438 0.77459 0.0
O271 O 0.22664 0.51973 0.78258 0.0
H272 H 0.20525 0.48013 0.7017 0.0
H273 H 0.16265 0.54229 0.71929 0.0
H274 H 0.14734 0.55039 0.68193 0.0
H275 H 0.18956 0.48792 0.6649 0.0
H276 H 0.27562 0.52856 0.82616 0.0
H277 H 0.33605 0.48199 0.80136 0.0
H278 H 0.35148 0.48071 0.83683 0.0
H279 H 0.29103 0.52732 0.86186 0.0
Gd280 Gd 0.98525 0.49486 0.52953 0.0
Gd281 Gd 0.02266 0.50302 0.49192 0.0
C282 C 0.01881 0.45683 0.49935 0.0
C283 C 0.95128 0.48415 0.54859 0.0
C284 C 0.94069 0.47225 0.53915 0.0
C285 C 0.92151 0.46854 0.55097 0.0
C286 C 0.94955 0.46527 0.51726 0.0
C287 C 0.92043 0.45086 0.51883 0.0
C288 C 0.93986 0.45429 0.50746 0.0
C289 C 0.9113 0.45802 0.54075 0.0
C290 C 0.02068 0.49283 0.54737 0.0
C291 C 0.99053 0.54075 0.52305 0.0
C292 C 0.05445 0.51571 0.46907 0.0
C293 C 0.06058 0.53433 0.47068 0.0
C294 C 0.0685 0.54589 0.45009 0.0
C295 C 0.05547 0.54254 0.49211 0.0
C296 C 0.06425 0.5746 0.47191 0.0
C297 C 0.05715 0.56259 0.49266 0.0
C298 C 0.07052 0.56587 0.45074 0.0
C299 C 0.98671 0.50489 0.47474 0.0
O300 O -0.00032 0.46523 0.51158 0.0
O301 O 0.03283 0.46752 0.49196 0.0
O302 O 0.97091 0.47298 0.55441 0.0
O303 O 0.9501 0.50321 0.5362 0.0
O304 O 0.00107 0.49854 0.55869 0.0
O305 O 0.02072 0.4862 0.52861 0.0
O306 O 0.00919 0.53286 0.5097 0.0
O307 O 0.97669 0.52992 0.53093 0.0
O308 O 0.03576 0.52089 0.46086 0.0
O309 O 0.05682 0.50032 0.48755 0.0
O310 O 0.00635 0.49782 0.46395 0.0
O311 O 0.987 0.51198 0.49305 0.0
H312 H 0.91432 0.474 0.56781 0.0
H313 H 0.9637 0.46874 0.5073 0.0
H314 H 0.94738 0.449 0.49065 0.0
H315 H 0.89638 0.45539 0.55001 0.0
H316 H 0.07229 0.53989 0.43337 0.0
H317 H 0.04929 0.53391 0.50823 0.0
H318 H 0.05244 0.56895 0.50921 0.0
H319 H 0.07607 0.57489 0.43452 0.0
Gd320 Gd 0.23894 0.24368 0.9977 0.0
Gd321 Gd 0.25171 0.27054 0.02711 0.0
C322 C 0.20383 0.26691 0.04072 0.0
C323 C 0.22325 0.21885 0.9836 0.0
C324 C 0.20559 0.20997 0.99373 0.0
C325 C 0.19597 0.20294 0.97892 0.0
C326 C 0.19711 0.21004 0.01772 0.0
C327 C 0.16892 0.19675 0.01184 0.0
C328 C 0.17889 0.20349 0.02673 0.0
C329 C 0.17785 0.19628 0.98791 0.0
C330 C 0.24209 0.28228 0.97393 0.0
C331 C 0.28783 0.24329 0.98853 0.0
C332 C 0.26129 0.30208 0.03554 0.0
C333 C 0.27368 0.3157 0.02064 0.0
C334 C 0.2951 0.30632 0.0101 0.0
C335 C 0.26387 0.33826 0.01626 0.0
C336 C 0.29724 0.34193 0.99238 0.0
C337 C 0.27554 0.35128 1.00221 0.0
C338 C 0.30676 0.3193 0.99616 0.0
C339 C 0.25645 0.22966 0.05201 0.0
O340 O 0.2091 0.25385 0.02471 0.0
O341 O 0.21717 0.27652 0.04421 0.0
O342 O 0.21681 0.23991 0.97716 0.0
O343 O 0.24061 0.2114 0.99486 0.0
O344 O 0.24709 0.26507 0.96433 0.0
O345 O 0.23432 0.27857 0.99544 0.0
O346 O 0.28084 0.26044 0.99944 0.0
O347 O 0.27539 0.23141 0.98893 0.0
O348 O 0.27254 0.28171 0.0421 0.0
O349 O 0.24238 0.30471 0.02904 0.0
O350 O 0.26035 0.2446 0.05981 0.0
O351 O 0.2506 0.23762 0.03169 0.0
H352 H 0.2023 0.20286 0.96035 0.0
H353 H 0.20429 0.21554 0.02939 0.0
H354 H 0.17238 0.20411 0.04519 0.0
H355 H 0.1709 0.19065 0.9761 0.0
H356 H 0.30302 0.28894 0.01284 0.0
H357 H 0.24729 0.34583 0.02397 0.0
H358 H 0.26785 0.3687 0.9998 0.0
H359 H 0.32338 0.31164 0.98861 0.0
Gd360 Gd 0.22709 1.0023 0.25209 0.0
Gd361 Gd 0.25778 0.0132 0.27292 0.0
C362 C 0.2506 0.03687 0.22045 0.0
C363 C 0.19586 1.00096 0.23184 0.0
C364 C 0.1919 0.99694 0.20931 0.0
C365 C 0.19006 0.97687 0.20828 0.0
C366 C 0.18821 0.01331 0.1894 0.0
C367 C 0.17951 0.99001 0.16853 0.0
C368 C 0.18213 0.00985 0.16916 0.0
C369 C 0.18404 0.97341 0.18809 0.0
C370 C 0.26797 0.97289 0.24817 0.0
C371 C 0.23458 0.97933 0.30436 0.0
C372 C 0.28754 0.01505 0.29505 0.0
C373 C 0.29617 0.00677 0.31816 0.0
C374 C 0.29082 0.02081 0.33483 0.0
C375 C 0.31079 0.98565 0.32326 0.0
C376 C 0.31541 0.9933 0.36072 0.0
C377 C 0.32033 0.97898 0.34437 0.0
C378 C 0.30024 0.01413 0.3559 0.0
C379 C 0.21691 0.04261 0.27505 0.0
O380 O 0.23422 0.02907 0.22346 0.0
O381 O 0.26455 0.03044 0.23626 0.0
O382 O 0.20799 0.98437 0.24507 0.0
O383 O 0.19958 0.0189 0.23187 0.0
O384 O 0.25008 0.96839 0.25129 0.0
O385 O 0.26366 0.99319 0.24514 0.0
O386 O 0.25249 0.98474 0.29957 0.0
O387 O 0.21915 0.98838 0.29022 0.0
O388 O 0.26779 0.02897 0.29537 0.0
O389 O 0.29149 1.00143 0.28032 0.0
O390 O 0.23476 0.04738 0.26989 0.0
O391 O 0.22124 0.02227 0.27958 0.0
H392 H 0.19267 0.96398 0.22338 0.0
H393 H 0.18935 0.02901 0.18968 0.0
H394 H 0.1785 0.02304 0.15446 0.0
H395 H 0.18241 0.95787 0.18803 0.0
H396 H 0.27981 0.03726 0.33126 0.0
H397 H 0.31529 0.97445 0.31075 0.0
H398 H 0.33191 0.96279 0.34768 0.0
H399 H 0.29641 0.02569 0.36789 0.0
Gd400 Gd 0.50166 0.26638 0.77407 0.0
Gd401 Gd 0.48506 0.24088 0.752 0.0
C402 C 0.4678 0.24294 0.8058 0.0
C403 C 0.50756 0.29251 0.79723 0.0
C404 C 0.49789 0.3032 0.81839 0.0
C405 C 0.50667 0.29408 0.83996 0.0
C406 C 0.48125 0.32345 0.81681 0.0
C407 C 0.4835 0.32583 0.85742 0.0
C408 C 0.47411 0.33463 0.83615 0.0
C409 C 0.4995 0.30522 0.85927 0.0
C410 C 0.53034 0.22615 0.77031 0.0
C411 C 0.52002 0.26312 0.7204 0.0
C412 C 0.47683 0.2154 0.72989 0.0
C413 C 0.48273 0.20523 0.70833 0.0
C414 C 0.46883 0.21342 0.69051 0.0
C415 C 0.50027 0.18585 0.70671 0.0
C416 C 0.48847 0.18201 0.67109 0.0
C417 C 0.50314 0.17438 0.68821 0.0
C418 C 0.4717 0.20199 0.67205 0.0
C419 C 0.45646 0.28121 0.75606 0.0
O420 O 0.47511 0.25949 0.80239 0.0
O421 O 0.47257 0.23052 0.78946 0.0
O422 O 0.51711 0.27153 0.80096 0.0
O423 O 0.49663 0.29912 0.77889 0.0
O424 O 0.53572 0.24347 0.76692 0.0
O425 O 0.50997 0.23064 0.77648 0.0
O426 O 0.5115 0.24745 0.7234 0.0
O427 O 0.51597 0.27533 0.73689 0.0
O428 O 0.4669 0.2363 0.72737 0.0
O429 O 0.4905 0.20844 0.74577 0.0
O430 O 0.45119 0.2638 0.76015 0.0
O431 O 0.47677 0.27668 0.7495 0.0
H432 H 0.51969 0.27864 0.84169 0.0
H433 H 0.47419 0.33099 0.80043 0.0
H434 H 0.46162 0.35041 0.83425 0.0
H435 H 0.50732 0.29813 0.87525 0.0
H436 H 0.45499 0.22816 0.69145 0.0
H437 H 0.51122 0.17906 0.72023 0.0
H438 H 0.51638 0.15915 0.68777 0.0
H439 H 0.45994 0.20819 0.65936 0.0
Gd440 Gd 0.00071 0.76904 0.77213 0.0
Gd441 Gd 0.99004 0.73693 0.75264 0.0
C442 C 0.96887 0.7434 0.80498 0.0
C443 C 0.00028 0.80088 0.79111 0.0
C444 C -0.0038 0.80826 0.81427 0.0
C445 C 0.01147 0.79903 0.83072 0.0
C446 C 0.97781 0.82618 0.81906 0.0
C447 C 0.99092 0.82665 0.85534 0.0
C448 C 0.97514 0.83522 0.83943 0.0
C449 C 0.00883 0.80813 0.85106 0.0
C450 C 0.03107 0.72898 0.7767 0.0
C451 C 0.02145 0.76287 0.71939 0.0
C452 C 0.99059 0.70504 0.73371 0.0
C453 C 0.99321 0.6986 0.71035 0.0
C454 C 0.98034 0.71171 0.69254 0.0
C455 C 0.00785 0.67818 0.70644 0.0
C456 C -0.00439 0.68329 0.668 0.0
C457 C 0.0091 0.67061 0.68546 0.0
C458 C 0.98149 0.70408 0.67157 0.0
C459 C 0.95999 0.77723 0.74772 0.0
O460 O 0.97491 0.76084 0.80066 0.0
O461 O 0.97614 0.72912 0.79032 0.0
O462 O 0.01781 0.78443 0.78715 0.0
O463 O 0.98343 0.80064 0.78248 0.0
O464 O 0.03549 0.74688 0.77211 0.0
O465 O 0.01059 0.73292 0.78015 0.0
O466 O 0.01511 0.74562 0.72355 0.0
O467 O 0.01491 0.77677 0.73448 0.0
O468 O 0.97274 0.72054 0.73946 0.0
O469 O 0.00794 0.70615 0.7405 0.0
O470 O 0.95527 0.75948 0.75215 0.0
O471 O 0.98047 0.77292 0.74447 0.0
H472 H 0.0259 0.78528 0.82752 0.0
H473 H 0.96583 0.83367 0.80665 0.0
H474 H 0.96099 0.8493 0.84239 0.0
H475 H 0.02142 0.80126 0.86279 0.0
H476 H 0.969 0.72761 0.69503 0.0
H477 H 0.01786 0.66778 0.71998 0.0
H478 H 0.01994 0.65442 0.68339 0.0
H479 H 0.97107 0.71429 0.65832 0.0
Gd480 Gd 0.72532 0.50169 0.25353 0.0
Gd481 Gd 0.75966 0.51089 0.27095 0.0
C482 C 0.74827 0.5353 0.2194 0.0
C483 C 0.69087 0.50295 0.2373 0.0
C484 C 0.68329 0.50298 0.21498 0.0
C485 C 0.6806 0.48404 0.21134 0.0
C486 C 0.67713 0.52186 0.19813 0.0
C487 C 0.66436 0.5031 0.17533 0.0
C488 C 0.66779 0.52189 0.17838 0.0
C489 C 0.67137 0.48406 0.19168 0.0
C490 C 0.76573 0.47261 0.24485 0.0
C491 C 0.73709 0.47677 0.30475 0.0
C492 C 0.7937 0.51047 0.28746 0.0
C493 C 0.80118 0.51065 0.30982 0.0
C494 C 0.80072 0.53031 0.31523 0.0
C495 C 0.81069 0.49125 0.32473 0.0
C496 C 0.82044 0.51113 0.34903 0.0
C497 C 0.82016 0.49151 0.34423 0.0
C498 C 0.81016 0.53055 0.33466 0.0
C499 C 0.719 0.53981 0.27938 0.0
O500 O 0.73085 0.52894 0.22472 0.0
O501 O 0.76419 0.52708 0.23302 0.0
O502 O 0.70533 0.48504 0.24583 0.0
O503 O 0.69442 0.52032 0.23996 0.0
O504 O 0.74778 0.46804 0.24942 0.0
O505 O 0.76148 0.49282 0.2428 0.0
O506 O 0.75445 0.48324 0.29946 0.0
O507 O 0.72106 0.48513 0.2913 0.0
O508 O 0.779 0.52813 0.27886 0.0
O509 O 0.7906 0.49288 0.28477 0.0
O510 O 0.73679 0.54465 0.27439 0.0
O511 O 0.72362 0.51955 0.28172 0.0
H512 H 0.6851 0.46928 0.22406 0.0
H513 H 0.67891 0.53675 0.20051 0.0
H514 H 0.66242 0.53681 0.16608 0.0
H515 H 0.66923 0.46925 0.18957 0.0
H516 H 0.79367 0.54552 0.304 0.0
H517 H 0.81149 0.47582 0.32091 0.0
H518 H 0.82817 0.47626 0.35486 0.0
H519 H 0.80992 0.54593 0.3381 0.0
Gd520 Gd 0.7342 0.73668 0.99254 0.0
Gd521 Gd 0.74638 0.76716 0.02136 0.0
C522 C 0.69924 0.75991 0.03492 0.0
C523 C 0.73014 0.70255 0.9832 0.0
C524 C 0.72326 0.68445 0.99719 0.0
C525 C 0.70502 0.68797 0.01461 0.0
C526 C 0.7355 0.66324 0.99354 0.0
C527 C 0.71083 0.64926 0.02379 0.0
C528 C 0.72937 0.6458 1.00671 0.0
C529 C 0.69887 0.67053 0.0278 0.0
C530 C 0.72851 0.77774 0.96744 0.0
C531 C 0.78159 0.74403 0.97931 0.0
C532 C 0.75173 0.79995 0.03259 0.0
C533 C 0.76255 0.81574 0.02078 0.0
C534 C 0.76008 0.83336 0.03161 0.0
C535 C 0.7766 0.81252 0.99961 0.0
C536 C 0.78699 0.84357 1.00112 0.0
C537 C 0.78863 0.8264 0.98976 0.0
C538 C 0.77222 0.84717 0.02189 0.0
C539 C 0.7518 0.72596 0.0461 0.0
O540 O 0.70575 0.74444 0.02151 0.0
O541 O 0.71097 0.77232 0.03544 0.0
O542 O 0.7149 0.72165 0.9805 0.0
O543 O 0.74874 0.7032 0.9875 0.0
O544 O 0.72426 0.7627 0.96015 0.0
O545 O 0.73462 0.76982 0.98771 0.0
O546 O 0.77517 0.75922 0.99304 0.0
O547 O 0.76967 0.73192 0.97827 0.0
O548 O 0.76494 0.78003 0.03746 0.0
O549 O 0.73409 0.80128 0.0241 0.0
O550 O 0.756 0.74082 0.05374 0.0
O551 O 0.74581 0.73421 0.02592 0.0
H552 H 0.69553 0.70417 0.01808 0.0
H553 H 0.74971 0.66018 0.9803 0.0
H554 H 0.73873 0.62966 1.00292 0.0
H555 H 0.68467 0.6737 0.04101 0.0
H556 H 0.74938 0.83597 0.04804 0.0
H557 H 0.77875 0.7989 0.99108 0.0
H558 H 0.79966 0.82333 0.97362 0.0
H559 H 0.77082 0.86 0.03134 0.0
Gd560 Gd 0.47153 0.98689 0.54618 0.0
Gd561 Gd 0.50585 0.99764 0.50621 0.0
C562 C 0.50309 0.95078 0.51316 0.0
C563 C 0.44248 0.97096 0.5702 0.0
C564 C 0.43649 0.95308 0.56542 0.0
C565 C 0.44676 0.93163 0.57591 0.0
C566 C 0.42332 0.95678 0.5475 0.0
C567 C 0.43385 0.91812 0.54795 0.0
C568 C 0.42211 0.93945 0.5388 0.0
C569 C 0.44545 0.91426 0.56722 0.0
C570 C 0.50769 0.98745 0.56083 0.0
C571 C 0.47264 0.03411 0.53848 0.0
C572 C 0.53725 0.01114 0.4835 0.0
C573 C 0.54766 0.02462 0.49045 0.0
C574 C 0.5657 0.02909 0.47638 0.0
C575 C 0.53997 0.03237 0.51208 0.0
C576 C 0.56821 0.04879 0.50592 0.0
C577 C 0.54999 0.04443 0.51969 0.0
C578 C 0.576 0.0411 0.48411 0.0
C579 C 0.46994 0.99743 0.4911 0.0
O580 O 0.48459 0.95806 0.52695 0.0
O581 O 0.51624 0.96232 0.50494 0.0
O582 O 0.46216 0.96539 0.57627 0.0
O583 O 0.43755 0.98896 0.55488 0.0
O584 O 0.48846 0.99289 0.57291 0.0
O585 O 0.5071 0.98032 0.54264 0.0
O586 O 0.4912 0.0268 0.52483 0.0
O587 O 0.45978 0.02233 0.54718 0.0
O588 O 0.51685 0.02084 0.47955 0.0
O589 O 0.54048 0.99204 0.49657 0.0
O590 O 0.4891 0.99259 0.47876 0.0
O591 O 0.47033 0.0043 0.50956 0.0
H592 H 0.45685 0.92825 0.58991 0.0
H593 H 0.41482 0.97306 0.53934 0.0
H594 H 0.41235 0.94273 0.52454 0.0
H595 H 0.45439 0.89789 0.57473 0.0
H596 H 0.57193 0.02314 0.45965 0.0
H597 H 0.52661 0.02858 0.52359 0.0
H598 H 0.5438 0.04979 0.53672 0.0
H599 H 0.58993 0.04443 0.47303 0.0
Gd600 Gd 0.47567 0.50991 0.01912 0.0
Gd601 Gd 0.52305 0.49856 0.99277 0.0
C602 C 0.49963 0.4635 0.99947 0.0
C603 C 0.43472 0.51508 0.0292 0.0
C604 C 0.42208 0.5029 0.02341 0.0
C605 C 0.42819 0.48026 0.02998 0.0
C606 C 0.40537 0.51352 1.00888 0.0
C607 C 0.40249 0.47899 1.00593 0.0
C608 C 0.39557 0.50162 1.00033 0.0
C609 C 0.41846 0.46841 0.02129 0.0
C610 C 0.50766 0.49636 0.04725 0.0
C611 C 0.49956 0.54391 0.01472 0.0
C612 C 0.56403 0.49285 0.98033 0.0
C613 C 0.57924 0.50045 0.98888 0.0
C614 C 0.57307 0.52201 0.99235 0.0
C615 C 0.59934 0.4858 0.99536 0.0
C616 C 0.60689 0.51431 1.00873 0.0
C617 C 0.6131 0.49267 1.00517 0.0
C618 C 0.58665 0.52883 1.00228 0.0
C619 C 0.49068 0.51237 0.96507 0.0
O620 O 0.48142 0.47841 1.00661 0.0
O621 O 0.51886 0.46643 0.99543 0.0
O622 O 0.44882 0.50461 0.04442 0.0
O623 O 0.4425 0.52666 0.01095 0.0
O624 O 0.48826 0.50975 0.05258 0.0
O625 O 0.50821 0.48929 0.02858 0.0
O626 O 0.51783 0.52851 1.0085 0.0
O627 O 0.48009 0.54187 0.01647 0.0
O628 O 0.54869 0.50771 0.96874 0.0
O629 O 0.55682 0.47873 0.9956 0.0
O630 O 0.50969 0.4984 0.95991 0.0
O631 O 0.49059 0.51942 0.9835 0.0
H632 H 0.44104 0.47155 0.04114 0.0
H633 H 0.40035 0.53094 1.0036 0.0
H634 H 0.38262 0.51001 0.98929 0.0
H635 H 0.42388 0.45093 0.02597 0.0
H636 H 0.55761 0.53363 0.98763 0.0
H637 H 0.6043 0.46902 0.99303 0.0
H638 H 0.62866 0.48111 0.00969 0.0
H639 H 0.58107 0.54549 1.00515 0.0
H640 H 0.95847 0.08199 0.02917 0.0
H641 H 0.95841 0.11157 0.04773 0.0
H642 H 0.02773 0.09608 0.02706 0.0
H643 H 0.02798 0.06691 1.00794 0.0
H644 H 0.97904 0.10511 0.08447 0.0
H645 H 0.01069 0.16012 0.01366 0.0
H646 H 0.00143 0.13975 1.00722 0.0
H647 H 0.02848 0.13262 0.01531 0.0
C648 C 0.97363 0.08523 0.02805 0.0
C649 C 0.99322 0.07208 0.01708 0.0
C650 C 0.97358 0.10215 0.03865 0.0
C651 C 0.99311 0.10619 0.03855 0.0
C652 C 0.01247 0.09364 0.02677 0.0
H653 H 0.02557 0.15508 0.14739 0.0
H654 H 0.02703 0.13602 0.11522 0.0
C655 C 0.01254 0.07687 0.01596 0.0
C656 C 0.99382 0.12135 0.05346 0.0
H657 H 0.01199 0.16326 0.05384 0.0
C658 C 0.98595 0.11801 0.07762 0.0
C659 C 0.00312 0.13805 0.04463 0.0
C660 C 0.01122 0.14298 0.01873 0.0
C661 C 0.98736 0.13063 0.09323 0.0
C662 C -0.00294 0.14692 0.08454 0.0
C663 C 0.00471 0.15059 0.06038 0.0
C664 C -0.00113 0.16036 0.10066 0.0
C665 C 0.97859 0.12642 0.11904 0.0
C666 C 0.98297 0.18063 0.10251 0.0
C667 C 0.98206 0.19155 0.12086 0.0
C668 C -0.00292 0.18234 0.1376 0.0
C669 C 0.01388 0.16268 0.13469 0.0
C670 C 0.01472 0.15174 0.11638 0.0
H671 H 0.96938 0.11482 0.12244 0.0
H672 H 0.99239 0.11964 0.1299 0.0
H673 H 0.96767 0.14179 0.12506 0.0
H674 H 0.97057 0.18745 0.09053 0.0
H675 H 0.9691 0.2068 0.12249 0.0
H676 H 0.80707 0.21351 0.45723 0.0
H677 H 0.83955 0.21107 0.42809 0.0
H678 H 0.84478 0.2677 0.44727 0.0
H679 H 0.81262 0.27012 0.47656 0.0
H680 H 0.84457 0.24142 0.38924 0.0
H681 H 0.9072 0.22668 0.44811 0.0
H682 H 0.88083 0.22359 0.45916 0.0
H683 H 0.88368 0.25005 0.45256 0.0
C684 C 0.81532 0.22525 0.45555 0.0
C685 C 0.80721 0.24193 0.46944 0.0
C686 C 0.83388 0.22387 0.4388 0.0
C687 C 0.84487 0.23901 0.43565 0.0
C688 C 0.83696 0.2555 0.44969 0.0
H689 H 0.94735 0.27277 0.33547 0.0
H690 H 0.9189 0.26955 0.36829 0.0
C691 C 0.81844 0.25691 0.46642 0.0
C692 C 0.86373 0.23839 0.41675 0.0
H693 H 0.91714 0.23656 0.40675 0.0
C694 C 0.8605 0.24012 0.3931 0.0
C695 C 0.88453 0.23682 0.42172 0.0
C696 C 0.88939 0.23397 0.44678 0.0
C697 C 0.87723 0.24092 0.37431 0.0
C698 C 0.89797 0.23954 0.37926 0.0
C699 C 0.90127 0.23762 0.40292 0.0
C700 C 0.91623 0.2406 0.36005 0.0
C701 C 0.8723 0.24397 0.34923 0.0
C702 C 0.9247 0.22508 0.34478 0.0
C703 C 0.94101 0.22686 0.32595 0.0
C704 C 0.94933 0.24416 0.32202 0.0
C705 C 0.94135 0.25925 0.33787 0.0
C706 C 0.92505 0.25744 0.35669 0.0
H707 H 0.85444 0.25009 0.3481 0.0
H708 H 0.87979 0.25546 0.33725 0.0
H709 H 0.87923 0.22817 0.34274 0.0
H710 H 0.91852 0.21168 0.34728 0.0
H711 H 0.94678 0.21488 0.31422 0.0
H712 H 0.77276 0.06135 0.7151 0.0
H713 H 0.77355 0.09285 0.68503 0.0
H714 H 0.73123 0.0795 0.64641 0.0
H715 H 0.72972 0.04843 0.67691 0.0
H716 H 0.78773 0.09857 0.64008 0.0
H717 H 0.69854 0.1417 0.64745 0.0
H718 H 0.71067 0.11801 0.66813 0.0
H719 H 0.70564 0.11532 0.63971 0.0
C720 C 0.76356 0.06507 0.70024 0.0
C721 C 0.75107 0.05222 0.69869 0.0
C722 C 0.76402 0.08322 0.68294 0.0
C723 C 0.75206 0.08916 0.66343 0.0
C724 C 0.74007 0.07596 0.6615 0.0
H725 H 0.74485 0.19532 0.54008 0.0
H726 H 0.74345 0.16135 0.56603 0.0
C727 C 0.7394 0.05793 0.67896 0.0
C728 C 0.75256 0.10885 0.64513 0.0
H729 H 0.72023 0.15653 0.61599 0.0
C730 C 0.7729 0.11119 0.63494 0.0
C731 C 0.73331 0.12561 0.63808 0.0
C732 C 0.71082 0.12519 0.64907 0.0
C733 C 0.77451 0.12946 0.61823 0.0
C734 C 0.75532 0.14615 0.61129 0.0
C735 C 0.73499 0.14374 0.62108 0.0
C736 C 0.75611 0.16674 0.59512 0.0
C737 C 0.79685 0.13078 0.60801 0.0
C738 C 0.76348 0.18131 0.60267 0.0
C739 C 0.76393 0.2008 0.58801 0.0
C740 C 0.75715 0.20634 0.56525 0.0
C741 C 0.75 0.19167 0.55751 0.0
C742 C 0.74926 0.17221 0.57237 0.0
H743 H 0.80983 0.11478 0.61084 0.0
H744 H 0.79741 0.13709 0.58871 0.0
H745 H 0.80051 0.14212 0.61676 0.0
H746 H 0.76865 0.17772 0.62013 0.0
H747 H 0.76948 0.21168 0.59465 0.0
H748 H 0.94018 0.04397 0.97827 0.0
H749 H 0.90561 0.04414 0.96772 0.0
H750 H 0.94119 0.99097 0.92954 0.0
H751 H 0.97558 0.99096 0.93961 0.0
H752 H 0.89985 0.04855 0.91575 0.0
H753 H 0.88765 0.97449 0.9723 0.0
H754 H 0.90032 0.99087 0.98165 0.0
H755 H 0.91531 0.97302 0.96055 0.0
C756 C 0.94051 0.03224 0.96779 0.0
C757 C 0.96048 0.01763 0.95948 0.0
C758 C 0.92083 0.0323 0.96188 0.0
C759 C 0.9209 0.01742 0.94807 0.0
C760 C 0.9408 1.0024 0.94044 0.0
H761 H 0.85427 0.98195 0.86363 0.0
H762 H 0.8761 0.9855 0.89109 0.0
C763 C 0.96042 1.00257 0.946 0.0
C764 C 0.90072 0.01881 0.93926 0.0
H765 H 0.86821 0.98898 0.93898 0.0
C766 C 0.89253 0.03583 0.92114 0.0
C767 C 0.89135 1.00214 0.94634 0.0
C768 C 0.89895 0.98408 0.9664 0.0
C769 C 0.87619 0.03581 0.90874 0.0
C770 C 0.86757 0.01851 0.91507 0.0
C771 C 0.8749 1.00217 0.93413 0.0
C772 C 0.85294 0.01572 0.90043 0.0
C773 C 0.86935 0.05352 0.888 0.0
C774 C 0.83237 0.03123 0.8971 0.0
C775 C 0.81979 0.02923 0.88135 0.0
C776 C 0.82753 0.01158 0.86889 0.0
C777 C 0.8477 0.99559 0.87315 0.0
C778 C 0.86026 0.99765 0.88877 0.0
H779 H 0.88042 0.06339 0.88284 0.0
H780 H 0.86906 0.04658 0.87238 0.0
H781 H 0.85262 0.06446 0.89282 0.0
H782 H 0.82623 0.04506 0.90634 0.0
H783 H 0.80417 0.04164 0.87867 0.0
H784 H 0.02722 0.02177 0.06755 0.0
H785 H 0.06162 0.01786 0.08075 0.0
H786 H 0.0971 0.97643 0.0288 0.0
H787 H 0.06241 0.98006 0.01569 0.0
H788 H 0.10949 0.95912 0.07359 0.0
H789 H 0.10963 0.04344 0.05057 0.0
H790 H 0.08374 0.04222 0.06601 0.0
H791 H 0.09316 0.03324 0.03763 0.0
C792 C 0.04234 0.01194 0.05882 0.0
C793 C 0.04219 1.00113 0.04069 0.0
C794 C 0.06202 0.0099 0.0662 0.0
C795 C 0.08196 0.99713 0.05551 0.0
C796 C 0.0819 0.9865 0.03715 0.0
H797 H 0.18931 1.00258 0.12078 0.0
H798 H 0.17087 1.00102 0.08855 0.0
C799 C 0.06213 0.98859 0.02968 0.0
C800 C 0.10244 0.99368 0.06513 0.0
H801 H 0.12929 0.02151 0.08346 0.0
C802 C 0.11419 0.97268 0.07528 0.0
C803 C 0.10897 0.01124 0.06684 0.0
C804 C 0.09835 0.0338 0.05446 0.0
C805 C 0.13101 0.9691 0.08889 0.0
C806 C 0.13579 0.98704 0.0928 0.0
C807 C 0.1254 0.00775 0.08085 0.0
C808 C 0.1492 0.98526 0.11143 0.0
C809 C 0.143 0.9462 0.0995 0.0
C810 C 0.14315 0.97693 0.13493 0.0
C811 C 0.15358 0.97781 0.15325 0.0
C812 C 0.17015 0.98729 0.14855 0.0
C813 C 0.17652 0.99527 0.12495 0.0
C814 C 0.16611 0.99428 0.10654 0.0
H815 H 0.14392 0.93459 0.08792 0.0
H816 H 0.15983 0.9443 0.10231 0.0
H817 H 0.13394 0.94187 0.11684 0.0
H818 H 0.12964 0.97062 0.13929 0.0
H819 H 0.14792 0.97197 0.17127 0.0
H820 H 0.04889 0.43969 0.4632 0.0
H821 H 0.04865 0.41096 0.44333 0.0
H822 H -0.00371 0.39981 0.49531 0.0
H823 H -0.00363 0.42834 0.51529 0.0
H824 H 0.0505 0.36503 0.45961 0.0
H825 H 0.97092 0.42047 0.43032 0.0
H826 H 0.98884 0.42988 0.44197 0.0
H827 H 0.97262 0.41523 0.46162 0.0
C828 C 0.03776 0.43072 0.4708 0.0
C829 C 0.02246 0.43649 0.49063 0.0
C830 C 0.03759 0.41437 0.45938 0.0
C831 C 0.02217 0.40363 0.46766 0.0
C832 C 0.00809 0.40817 0.4885 0.0
H833 H 0.97835 0.32915 0.39291 0.0
H834 H 0.98303 0.34646 0.42381 0.0
C835 C 0.00822 0.42446 0.49989 0.0
C836 C 0.01942 0.38921 0.45333 0.0
H837 H 0.98486 0.38633 0.41816 0.0
C838 C 0.03614 0.36957 0.4506 0.0
C839 C 0.00054 0.39522 0.44181 0.0
C840 C 0.98223 0.4164 0.44386 0.0
C841 C 0.03453 0.35571 0.43648 0.0
C842 C 0.01598 0.36202 0.42431 0.0
C843 C -0.00095 0.38149 0.42751 0.0
C844 C 0.01424 0.34946 0.40703 0.0
C845 C 0.05263 0.33438 0.43494 0.0
C846 C 0.03024 0.34536 0.38741 0.0
C847 C 0.02766 0.33539 0.36988 0.0
C848 C 0.00885 0.32963 0.37142 0.0
C849 C 0.99296 0.33349 0.39123 0.0
C850 C -0.00435 0.34331 0.40889 0.0
H851 H 0.0613 0.32876 0.45098 0.0
H852 H 0.04629 0.32164 0.43282 0.0
H853 H 0.06477 0.33644 0.41941 0.0
H854 H 0.04437 0.35057 0.38517 0.0
H855 H 0.03996 0.33302 0.35459 0.0
H856 H 0.68481 0.28972 0.57343 0.0
H857 H 0.65227 0.29128 0.602 0.0
H858 H 0.64249 0.2414 0.57347 0.0
H859 H 0.67481 0.24002 0.54441 0.0
H860 H 0.60376 0.27442 0.58285 0.0
H861 H 0.6499 0.24633 0.66069 0.0
H862 H 0.65411 0.26992 0.64199 0.0
H863 H 0.66321 0.24471 0.63076 0.0
C864 C 0.67574 0.27911 0.57308 0.0
C865 C 0.68267 0.26459 0.55665 0.0
C866 C 0.65717 0.27993 0.5896 0.0
C867 C 0.64515 0.26612 0.5903 0.0
C868 C 0.65157 0.25211 0.57344 0.0
H869 H 0.53391 0.23996 0.68341 0.0
H870 H 0.56319 0.24146 0.65104 0.0
C871 C 0.67012 0.25133 0.55681 0.0
C872 C 0.62608 0.26617 0.60875 0.0
H873 H 0.61123 0.2589 0.66871 0.0
C874 C 0.60541 0.27093 0.60162 0.0
C875 C 0.62819 0.26155 0.63329 0.0
C876 C 0.65007 0.25513 0.6422 0.0
C877 C 0.58678 0.27169 0.61832 0.0
C878 C 0.58889 0.26728 0.64284 0.0
C879 C 0.60956 0.26242 0.64994 0.0
C880 C 0.56998 0.26739 0.66152 0.0
C881 C 0.56492 0.27767 0.60958 0.0
C882 C 0.56404 0.28136 0.67836 0.0
C883 C 0.5473 0.28053 0.69696 0.0
C884 C 0.53621 0.26555 0.69929 0.0
C885 C 0.54195 0.25182 0.68214 0.0
C886 C 0.55867 0.2527 0.66351 0.0
H887 H 0.56504 0.28592 0.59086 0.0
H888 H 0.56088 0.26273 0.61058 0.0
H889 H 0.55181 0.28842 0.62072 0.0
H890 H 0.57258 0.29277 0.67728 0.0
H891 H 0.54345 0.29129 0.70983 0.0
H892 H 0.75502 0.95513 0.83688 0.0
H893 H 0.75356 0.92395 0.86736 0.0
H894 H 0.70823 0.91295 0.83091 0.0
H895 H 0.70955 0.94411 0.80037 0.0
H896 H 0.71758 0.91376 0.89846 0.0
H897 H 0.75821 0.85407 0.83715 0.0
H898 H 0.75865 0.88154 0.83013 0.0
H899 H 0.73473 0.87578 0.82714 0.0
C900 C 0.74458 0.94623 0.83535 0.0
C901 C 0.73243 0.95234 0.81592 0.0
C902 C 0.74376 0.92831 0.8529 0.0
C903 C 0.73103 0.91572 0.85145 0.0
C904 C 0.71848 0.92207 0.8324 0.0
H905 H 0.71148 0.79535 0.92582 0.0
H906 H 0.71203 0.82894 0.89965 0.0
C907 C 0.71913 0.94009 0.81494 0.0
C908 C 0.73117 0.8958 0.86948 0.0
H909 H 0.744 0.84078 0.87536 0.0
C910 C 0.72343 0.89779 0.89342 0.0
C911 C 0.73887 0.87482 0.86314 0.0
C912 C 0.74828 0.87127 0.83806 0.0
C913 C 0.72246 0.87966 0.91085 0.0
C914 C 0.72999 0.85864 0.90446 0.0
C915 C 0.73809 0.8567 0.88054 0.0
C916 C 0.72885 0.83854 0.92177 0.0
C917 C 0.71256 0.88344 0.93576 0.0
C918 C 0.73795 0.83231 0.94341 0.0
C919 C 0.73729 0.81302 0.95877 0.0
C920 C 0.72791 0.79924 0.95271 0.0
C921 C 0.71881 0.80552 0.93118 0.0
C922 C 0.71922 0.8248 0.91605 0.0
H923 H 0.70198 0.90052 0.93622 0.0
H924 H 0.70267 0.87274 0.94387 0.0
H925 H 0.72585 0.87991 0.94676 0.0
H926 H 0.74605 0.84206 0.94826 0.0
H927 H 0.74456 0.80862 0.97507 0.0
H928 H 0.18704 0.29081 0.07715 0.0
H929 H 0.15356 0.29272 0.10458 0.0
H930 H 0.13917 0.25104 0.06736 0.0
H931 H 0.17234 0.2492 0.03976 0.0
H932 H 0.10763 0.30559 0.09451 0.0
H933 H 0.14038 0.2201 0.13808 0.0
H934 H 0.15783 0.23473 0.1205 0.0
H935 H 0.14247 0.22453 0.10625 0.0
C936 C 0.17669 0.28218 0.07463 0.0
C937 C 0.18262 0.26966 0.05629 0.0
C938 C 0.15754 0.28329 0.09036 0.0
C939 C 0.14402 0.27178 0.08824 0.0
C940 C 0.14952 0.2598 0.06957 0.0
H941 H 0.03282 0.24379 0.17856 0.0
H942 H 0.06217 0.24624 0.1466 0.0
C943 C 0.16854 0.2588 0.05375 0.0
C944 C 0.12445 0.27185 0.10582 0.0
H945 H 0.10365 0.23933 0.15017 0.0
C946 C 0.10673 0.29114 0.10673 0.0
C947 C 0.12325 0.25294 0.12163 0.0
C948 C 0.14202 0.23189 0.12181 0.0
C949 C 0.0877 0.29196 0.12279 0.0
C950 C 0.0866 0.27309 0.13889 0.0
C951 C 0.10438 0.2538 0.13787 0.0
C952 C 0.06744 0.27296 0.15722 0.0
C953 C 0.06879 0.3129 0.12189 0.0
C954 C 0.06037 0.28724 0.17386 0.0
C955 C 0.04336 0.28605 0.19202 0.0
C956 C 0.03325 0.2703 0.19424 0.0
C957 C 0.04015 0.25618 0.17739 0.0
C958 C 0.05702 0.25751 0.15911 0.0
H959 H 0.06933 0.32321 0.10423 0.0
H960 H 0.05288 0.30991 0.1259 0.0
H961 H 0.0697 0.32212 0.13522 0.0
H962 H 0.06845 0.29891 0.17329 0.0
H963 H 0.0387 0.297 0.20483 0.0
H964 H 0.76477 0.45802 0.33935 0.0
H965 H 0.76481 0.42714 0.37075 0.0
H966 H 0.70819 0.4232 0.34743 0.0
H967 H 0.70761 0.45452 0.31657 0.0
H968 H 0.7041 0.41532 0.39402 0.0
H969 H 0.78758 0.36527 0.36259 0.0
H970 H 0.78693 0.39002 0.3704 0.0
H971 H 0.77338 0.39083 0.34586 0.0
C972 C 0.7522 0.45072 0.34097 0.0
C973 C 0.73623 0.4589 0.32519 0.0
C974 C 0.75237 0.4328 0.35889 0.0
C975 C 0.73685 0.4222 0.36134 0.0
C976 C 0.72049 0.4308 0.34605 0.0
H977 H 0.75152 0.28931 0.42532 0.0
H978 H 0.75056 0.32386 0.40065 0.0
C979 C 0.72017 0.44884 0.3283 0.0
C980 C 0.73768 0.40211 0.37947 0.0
H981 H 0.77088 0.35085 0.39871 0.0
C982 C 0.71875 0.40125 0.39501 0.0
C983 C 0.75663 0.38343 0.38086 0.0
C984 C 0.77721 0.38228 0.3639 0.0
C985 C 0.71817 0.38249 0.41151 0.0
C986 C 0.73725 0.36396 0.41317 0.0
C987 C 0.75623 0.36494 0.39781 0.0
C988 C 0.73757 0.34283 0.42914 0.0
C989 C 0.69678 0.3825 0.4263 0.0
C990 C 0.73073 0.34144 0.45378 0.0
C991 C 0.73091 0.32144 0.46806 0.0
C992 C 0.73839 0.30225 0.45815 0.0
C993 C 0.74559 0.30367 0.43367 0.0
C994 C 0.74514 0.32355 0.41945 0.0
H995 H 0.68267 0.39541 0.41858 0.0
H996 H 0.69426 0.36667 0.42805 0.0
H997 H 0.69692 0.38553 0.44429 0.0
H998 H 0.72537 0.35578 0.46207 0.0
H999 H 0.72534 0.32099 0.48682 0.0
H1000 H 0.54983 0.97665 0.53888 0.0
H1001 H 0.57873 0.98958 0.54449 0.0
H1002 H 0.53589 0.02279 0.6003 0.0
H1003 H 0.50658 0.01166 0.59314 0.0
H1004 H 0.55654 0.04736 0.5754 0.0
H1005 H 0.61786 0.96552 0.59375 0.0
H1006 H 0.60958 0.97217 0.56467 0.0
H1007 H 0.59014 0.96922 0.59031 0.0
C1008 C 0.5466 0.98692 0.55211 0.0
C1009 C 0.52594 0.99334 0.56537 0.0
C1010 C 0.56324 0.99401 0.55561 0.0
C1011 C 0.5597 0.0069 0.57312 0.0
C1012 C 0.53908 0.01298 0.58659 0.0
H1013 H 0.61982 0.03615 0.66703 0.0
H1014 H 0.59507 0.0381 0.6398 0.0
C1015 C 0.52237 0.00638 0.58267 0.0
C1016 C 0.57722 0.014 0.57806 0.0
H1017 H 0.62769 0.99503 0.59685 0.0
C1018 C 0.57211 0.03591 0.57999 0.0
C1019 C 0.5978 0.99914 0.58369 0.0
C1020 C 0.60415 0.97519 0.58322 0.0
C1021 C 0.58612 0.04301 0.58918 0.0
C1022 C 0.60626 0.02799 0.59553 0.0
C1023 C 0.61225 0.00652 0.59172 0.0
C1024 C 0.61991 0.03297 0.60953 0.0
C1025 C 0.57876 0.06616 0.5933 0.0
C1026 C 0.64199 0.03011 0.60137 0.0
C1027 C 0.65625 0.02906 0.61695 0.0
C1028 C 0.64868 0.0305 0.64104 0.0
C1029 C 0.62619 0.03522 0.64859 0.0
C1030 C 0.61195 0.03637 0.63298 0.0
H1031 H 0.56547 0.07677 0.58262 0.0
H1032 H 0.57229 0.06687 0.61224 0.0
H1033 H 0.59262 0.07259 0.58919 0.0
H1034 H 0.64844 0.02739 0.58333 0.0
H1035 H 0.67343 0.0258 0.61049 0.0
H1036 H 0.986 0.94251 0.01123 0.0
H1037 H 0.98283 0.91236 0.99647 0.0
H1038 H 0.03263 0.91848 0.93828 0.0
H1039 H 0.03624 0.94834 0.95324 0.0
H1040 H 0.96894 0.91567 0.95593 0.0
H1041 H 0.05094 0.85397 0.95625 0.0
H1042 H 0.04276 0.87646 0.97229 0.0
H1043 H 0.05269 0.87971 0.94114 0.0
C1044 C -0.00332 0.9371 0.9956 0.0
C1045 C 0.01138 0.94783 0.98336 0.0
C1046 C -0.00518 0.91985 0.98719 0.0
C1047 C 0.00764 0.91297 0.96641 0.0
C1048 C 0.02297 0.92309 0.9547 0.0
H1049 H 0.97943 0.87017 0.85425 0.0
H1050 H 0.98095 0.88897 0.88509 0.0
C1051 C 0.02497 0.94025 0.96322 0.0
C1052 C 0.00324 0.89709 0.95542 0.0
H1053 H 0.02845 0.85249 0.92843 0.0
C1054 C 0.9819 0.90162 0.95032 0.0
C1055 C 0.01998 0.87851 0.9485 0.0
C1056 C 0.04281 0.87175 0.95508 0.0
C1057 C 0.97718 0.88888 0.93714 0.0
C1058 C -0.00566 0.87146 0.9284 0.0
C1059 C 0.01535 0.86606 0.93484 0.0
C1060 C 0.99134 0.85995 0.91083 0.0
C1061 C 0.95392 0.89446 0.93234 0.0
C1062 C -0.00312 0.83732 0.91496 0.0
C1063 C -0.00397 0.82646 0.89727 0.0
C1064 C 0.98976 0.83806 0.8751 0.0
C1065 C 0.98384 0.86076 0.87127 0.0
C1066 C 0.9847 0.87157 0.88891 0.0
H1067 H 0.9421 0.90276 0.94643 0.0
H1068 H 0.95141 0.90568 0.91529 0.0
H1069 H 0.95026 0.87978 0.93111 0.0
H1070 H 0.00219 0.82806 0.93172 0.0
H1071 H 0.00055 0.80898 0.90083 0.0
H1072 H 0.07732 0.10721 0.9588 0.0
H1073 H 0.08307 0.13206 0.98047 0.0
H1074 H 0.07394 0.09068 0.04659 0.0
H1075 H 0.06761 0.06613 0.02495 0.0
H1076 H 0.05707 0.15354 0.02321 0.0
H1077 H 0.13855 0.09161 0.03813 0.0
H1078 H 0.12335 0.09039 0.01598 0.0
H1079 H 0.11426 0.08405 0.04684 0.0
C1080 C 0.0763 0.10359 0.97796 0.0
C1081 C 0.0729 0.08439 0.99024 0.0
C1082 C 0.07943 0.1178 0.99031 0.0
C1083 C 0.07912 0.113 0.01505 0.0
C1084 C 0.07452 0.09445 0.02747 0.0
H1085 H 0.16153 0.17185 0.05446 0.0
H1086 H 0.13313 0.15482 0.06611 0.0
C1087 C 0.07142 0.08025 0.0151 0.0
C1088 C 0.08641 0.12605 0.02706 0.0
H1089 H 0.13335 0.12694 0.04236 0.0
C1090 C 0.07355 0.14769 0.02803 0.0
C1091 C 0.10764 0.11812 0.03398 0.0
C1092 C 0.12188 0.0948 0.03372 0.0
C1093 C 0.08222 0.16217 0.03363 0.0
C1094 C 0.10444 0.15486 0.03749 0.0
C1095 C 0.11638 0.13266 0.03916 0.0
C1096 C 0.11701 0.16991 0.03459 0.0
C1097 C 0.0678 0.18532 0.03423 0.0
C1098 C 0.11686 0.18477 0.0135 0.0
C1099 C 0.13288 0.19467 1.00696 0.0
C1100 C 0.14967 0.18959 0.02111 0.0
C1101 C 0.14883 0.17608 0.04314 0.0
C1102 C 0.1326 0.16633 0.04983 0.0
H1103 H 0.05092 0.18601 0.0422 0.0
H1104 H 0.0741 0.19361 0.04449 0.0
H1105 H 0.06679 0.19423 0.01584 0.0
H1106 H 0.10543 0.18747 1.00109 0.0
H1107 H 0.13279 0.20542 0.99014 0.0
H1108 H 0.70916 0.58337 0.27039 0.0
H1109 H 0.6733 0.61124 0.2695 0.0
H1110 H 0.64242 0.56201 0.28829 0.0
H1111 H 0.67866 0.53373 0.28917 0.0
H1112 H 0.64047 0.61546 0.23996 0.0
H1113 H 0.61054 0.60576 0.33645 0.0
H1114 H 0.63925 0.59587 0.32558 0.0
H1115 H 0.62141 0.58197 0.32238 0.0
C1116 C 0.69478 0.57838 0.2745 0.0
C1117 C 0.69679 0.5563 0.27996 0.0
C1118 C 0.67424 0.59439 0.27393 0.0
C1119 C 0.6551 0.58882 0.27899 0.0
C1120 C 0.65694 0.56675 0.2846 0.0
H1121 H 0.5224 0.68813 0.28517 0.0
H1122 H 0.55126 0.65238 0.28636 0.0
C1123 C 0.67764 0.5506 0.28505 0.0
C1124 C 0.63349 0.60638 0.2776 0.0
H1125 H 0.58854 0.6347 0.31167 0.0
C1126 C 0.62898 0.61948 0.25561 0.0
C1127 C 0.61837 0.61158 0.29795 0.0
C1128 C 0.62252 0.5982 0.32202 0.0
C1129 C 0.61023 0.63795 0.25353 0.0
C1130 C 0.59572 0.64391 0.27408 0.0
C1131 C 0.59964 0.63023 0.29592 0.0
C1132 C 0.57784 0.6653 0.27348 0.0
C1133 C 0.6063 0.65112 0.2293 0.0
C1134 C 0.58311 0.68444 0.26622 0.0
C1135 C 0.56679 0.70468 0.26557 0.0
C1136 C 0.54468 0.70643 0.27231 0.0
C1137 C 0.53928 0.68731 0.2798 0.0
C1138 C 0.55576 0.6669 0.28052 0.0
H1139 H 0.61422 0.64106 0.2151 0.0
H1140 H 0.58856 0.65853 0.22764 0.0
H1141 H 0.61346 0.66431 0.22636 0.0
H1142 H 0.59999 0.68375 0.26119 0.0
H1143 H 0.57158 0.71903 0.25978 0.0
H1144 H 0.33878 0.82303 0.47305 0.0
H1145 H 0.37212 0.83237 0.46265 0.0
H1146 H 0.39052 0.80237 0.53249 0.0
H1147 H 0.35868 0.79085 0.54202 0.0
H1148 H 0.37559 0.86032 0.48138 0.0
H1149 H 0.44944 0.79214 0.49934 0.0
H1150 H 0.42468 0.78784 0.49597 0.0
H1151 H 0.42992 0.78985 0.52471 0.0
C1152 C 0.35039 0.81749 0.48585 0.0
C1153 C 0.34565 0.80668 0.50869 0.0
C1154 C 0.3695 0.82293 0.47985 0.0
C1155 C 0.38397 0.81815 0.49672 0.0
C1156 C 0.38006 0.8059 0.51884 0.0
H1157 H 0.42504 0.88124 0.56954 0.0
H1158 H 0.42053 0.85429 0.55 0.0
C1159 C 0.36134 0.79989 0.52459 0.0
C1160 C 0.39966 0.8301 0.49375 0.0
H1161 H 0.44633 0.82616 0.51436 0.0
C1162 C 0.39147 0.85272 0.48766 0.0
C1163 C 0.42061 0.82036 0.5015 0.0
C1164 C 0.43166 0.79617 0.50545 0.0
C1165 C 0.40216 0.86591 0.49219 0.0
C1166 C 0.42157 0.85615 0.50305 0.0
C1167 C 0.43114 0.83355 0.50655 0.0
C1168 C 0.42962 0.86905 0.5145 0.0
C1169 C 0.39153 0.89019 0.48721 0.0
C1170 C 0.43699 0.88567 0.50102 0.0
C1171 C 0.43919 0.9012 0.51209 0.0
C1172 C 0.43432 0.90012 0.53679 0.0
C1173 C 0.42875 0.88244 0.55045 0.0
C1174 C 0.42634 0.86701 0.53933 0.0
H1175 H 0.375 0.89499 0.48166 0.0
H1176 H 0.39007 0.89754 0.50311 0.0
H1177 H 0.40185 0.89704 0.47267 0.0
H1178 H 0.43977 0.88731 0.48191 0.0
H1179 H 0.44426 0.91433 0.50135 0.0
H1180 H 0.02617 0.68846 0.78674 0.0
H1181 H 0.05546 0.653 0.79037 0.0
H1182 H 0.10372 0.68529 0.77499 0.0
H1183 H 0.07488 0.72034 0.77142 0.0
H1184 H 0.09275 0.63512 0.75649 0.0
H1185 H 0.11894 0.64427 0.83761 0.0
H1186 H 0.09282 0.66073 0.82776 0.0
H1187 H 0.11714 0.66717 0.81452 0.0
C1188 C 0.04304 0.68792 0.78421 0.0
C1189 C 0.04817 0.70723 0.77901 0.0
C1190 C 0.05976 0.66767 0.78624 0.0
C1191 C 0.08184 0.66643 0.78335 0.0
C1192 C 0.08686 0.68574 0.77778 0.0
H1193 H 0.2135 0.58334 0.77448 0.0
H1194 H 0.17793 0.61168 0.77661 0.0
C1195 C 0.07029 0.70583 0.77567 0.0
C1196 C 0.09992 0.64521 0.78592 0.0
H1197 H 0.14461 0.61763 0.81537 0.0
C1198 C 0.10388 0.63105 0.76963 0.0
C1199 C 0.11445 0.63982 0.80312 0.0
C1200 C 0.11054 0.65368 0.8219 0.0
C1201 C 0.12263 0.61239 0.76922 0.0
C1202 C 0.1377 0.60762 0.78572 0.0
C1203 C 0.13317 0.62128 0.80264 0.0
C1204 C 0.15917 0.58977 0.78448 0.0
C1205 C 0.12681 0.59854 0.75038 0.0
C1206 C 0.16065 0.56781 0.78843 0.0
C1207 C 0.18117 0.55141 0.78734 0.0
C1208 C 0.20055 0.55671 0.78223 0.0
C1209 C 0.19894 0.57866 0.77848 0.0
C1210 C 0.17856 0.59493 0.77967 0.0
H1211 H 0.1155 0.60631 0.73665 0.0
H1212 H 0.14389 0.59512 0.74161 0.0
H1213 H 0.12454 0.58282 0.75872 0.0
H1214 H 0.14596 0.56335 0.79254 0.0
H1215 H 0.18187 0.53465 0.79043 0.0
H1216 H 0.82391 0.33369 0.46551 0.0
H1217 H 0.85137 0.35179 0.45344 0.0
H1218 H 0.80703 0.40761 0.48312 0.0
H1219 H 0.77909 0.39007 0.49429 0.0
H1220 H 0.83658 0.41749 0.44311 0.0
H1221 H 0.87789 0.35126 0.51226 0.0
H1222 H 0.87263 0.34346 0.48684 0.0
H1223 H 0.8502 0.35606 0.50751 0.0
C1224 C 0.81962 0.35018 0.46857 0.0
C1225 C 0.79952 0.36028 0.48141 0.0
C1226 C 0.83542 0.36042 0.46178 0.0
C1227 C 0.83138 0.38072 0.46802 0.0
C1228 C 0.8105 0.39182 0.47837 0.0
H1229 H 0.87711 0.46329 0.51438 0.0
H1230 H 0.85904 0.44591 0.49563 0.0
C1231 C 0.79463 0.3817 0.48496 0.0
C1232 C 0.8495 0.38876 0.46804 0.0
H1233 H 0.89073 0.38046 0.50036 0.0
C1234 C 0.84878 0.40921 0.4552 0.0
C1235 C 0.86541 0.37783 0.48381 0.0
C1236 C 0.86663 0.356 0.49854 0.0
C1237 C 0.86278 0.4196 0.45877 0.0
C1238 C 0.87747 0.40938 0.47589 0.0
C1239 C 0.87935 0.38826 0.48732 0.0
C1240 C 0.88887 0.42114 0.48466 0.0
C1241 C 0.8612 0.44171 0.44484 0.0
C1242 C 0.91154 0.41264 0.48522 0.0
C1243 C 0.92182 0.42227 0.49637 0.0
C1244 C 0.90954 0.44048 0.50727 0.0
C1245 C 0.8869 0.4491 0.50642 0.0
C1246 C 0.87664 0.43946 0.49529 0.0
H1247 H 0.85551 0.44386 0.42737 0.0
H1248 H 0.84914 0.45418 0.45485 0.0
H1249 H 0.87718 0.44446 0.44193 0.0
H1250 H 0.92119 0.39832 0.47741 0.0
H1251 H 0.9393 0.41523 0.49685 0.0
H1252 H 0.30912 0.97753 0.23961 0.0
H1253 H 0.3448 0.9483 0.23705 0.0
H1254 H 0.31165 0.90103 0.25101 0.0
H1255 H 0.27651 0.92972 0.25341 0.0
H1256 H 0.36319 0.91045 0.27109 0.0
H1257 H 0.35219 0.88696 0.18984 0.0
H1258 H 0.33582 0.91255 0.19923 0.0
H1259 H 0.32921 0.88834 0.21225 0.0
C1260 C 0.30954 0.96089 0.24201 0.0
C1261 C 0.28994 0.956 0.24643 0.0
C1262 C 0.32991 0.9442 0.24061 0.0
C1263 C 0.33096 0.92242 0.24339 0.0
C1264 C 0.31137 0.91766 0.24825 0.0
H1265 H 0.41108 0.79105 0.25911 0.0
H1266 H 0.38352 0.827 0.25625 0.0
C1267 C 0.29121 0.93416 0.24969 0.0
C1268 C 0.35222 0.90432 0.24148 0.0
H1269 H 0.37848 0.86013 0.21369 0.0
C1270 C 0.36681 0.8997 0.25822 0.0
C1271 C 0.35706 0.89024 0.22466 0.0
C1272 C 0.34286 0.89487 0.20532 0.0
C1273 C 0.38528 0.88072 0.25946 0.0
C1274 C 0.38934 0.86607 0.24348 0.0
C1275 C 0.37534 0.87125 0.22606 0.0
C1276 C 0.40673 0.84437 0.24578 0.0
C1277 C 0.3997 0.87584 0.27863 0.0
C1278 C 0.42911 0.84202 0.24078 0.0
C1279 C 0.44505 0.82129 0.24224 0.0
C1280 C 0.43885 0.80257 0.24881 0.0
C1281 C 0.41646 0.80507 0.25396 0.0
C1282 C 0.40064 0.82566 0.25234 0.0
H1283 H 0.39303 0.88764 0.29124 0.0
H1284 H 0.4017 0.8593 0.28866 0.0
H1285 H 0.41615 0.87633 0.27041 0.0
H1286 H 0.43424 0.8562 0.23541 0.0
H1287 H 0.46216 0.81991 0.2381 0.0
H1288 H 0.30828 0.47679 0.73707 0.0
H1289 H 0.34396 0.44759 0.73601 0.0
H1290 H 0.31097 0.40008 0.75221 0.0
H1291 H 0.27571 0.42884 0.75317 0.0
H1292 H 0.36175 0.41177 0.77171 0.0
H1293 H 0.35292 0.38298 0.69293 0.0
H1294 H 0.336 0.40908 0.70066 0.0
H1295 H 0.32972 0.385 0.71515 0.0
C1296 C 0.30872 0.46011 0.74025 0.0
C1297 C 0.28915 0.45516 0.74499 0.0
C1298 C 0.32909 0.44343 0.73971 0.0
C1299 C 0.33022 0.42157 0.74363 0.0
C1300 C 0.31064 0.41675 0.74861 0.0
H1301 H 0.41252 0.29115 0.7655 0.0
H1302 H 0.38442 0.32669 0.76152 0.0
C1303 C 0.29042 0.43328 0.74922 0.0
C1304 C 0.35159 0.40353 0.74291 0.0
H1305 H 0.37927 0.35796 0.71786 0.0
C1306 C 0.36584 0.40022 0.75963 0.0
C1307 C 0.35704 0.38845 0.72709 0.0
C1308 C 0.34323 0.39164 0.70778 0.0
C1309 C 0.3846 0.38161 0.76185 0.0
C1310 C 0.38932 0.36599 0.74686 0.0
C1311 C 0.37562 0.36983 0.72946 0.0
C1312 C 0.40708 0.34462 0.75026 0.0
C1313 C 0.39864 0.37817 0.78099 0.0
C1314 C 0.42937 0.34274 0.74536 0.0
C1315 C 0.44565 0.32221 0.74752 0.0
C1316 C 0.43988 0.30327 0.75462 0.0
C1317 C 0.41759 0.30535 0.7599 0.0
C1318 C 0.40144 0.32571 0.75763 0.0
H1319 H 0.39143 0.39056 0.79289 0.0
H1320 H 0.40101 0.36187 0.79181 0.0
H1321 H 0.41499 0.37894 0.77271 0.0
H1322 H 0.43415 0.35708 0.73943 0.0
H1323 H 0.46268 0.32114 0.74333 0.0
H1324 H 0.17021 0.74683 0.53843 0.0
H1325 H 0.13784 0.74849 0.56733 0.0
H1326 H 0.14797 0.79817 0.59588 0.0
H1327 H 0.18041 0.79667 0.56694 0.0
H1328 H 0.1383 0.73975 0.61678 0.0
H1329 H 0.08221 0.82246 0.58909 0.0
H1330 H 0.10567 0.80896 0.56979 0.0
H1331 H 0.10912 0.82112 0.59288 0.0
C1332 C 0.16541 0.75839 0.55056 0.0
C1333 C 0.17801 0.77162 0.55029 0.0
C1334 C 0.14687 0.75928 0.56714 0.0
C1335 C 0.14032 0.77357 0.58369 0.0
C1336 C 0.15245 0.78727 0.58304 0.0
H1337 H 0.04263 0.79303 0.70767 0.0
H1338 H 0.07083 0.79579 0.67436 0.0
C1339 C 0.17107 0.78634 0.5665 0.0
C1340 C 0.12183 0.77293 0.60268 0.0
H1341 H 0.07149 0.80336 0.62597 0.0
C1342 C 0.12363 0.75362 0.61869 0.0
C1343 C 0.10276 0.79108 0.60531 0.0
C1344 C 0.09964 0.81205 0.58827 0.0
C1345 C 0.10711 0.75203 0.63746 0.0
C1346 C 0.08791 0.77012 0.64001 0.0
C1347 C 0.08613 0.78947 0.624 0.0
C1348 C 0.06972 0.76928 0.65938 0.0
C1349 C 0.11072 0.73116 0.65479 0.0
C1350 C 0.05917 0.75388 0.66176 0.0
C1351 C 0.04311 0.75218 0.68088 0.0
C1352 C 0.03699 0.76603 0.69792 0.0
C1353 C 0.04691 0.78206 0.69493 0.0
C1354 C 0.06307 0.78367 0.67587 0.0
H1355 H 0.12834 0.72137 0.65437 0.0
H1356 H 0.10422 0.73431 0.67318 0.0
H1357 H 0.10211 0.72134 0.65003 0.0
H1358 H 0.06356 0.74296 0.64897 0.0
H1359 H 0.03573 0.73976 0.68245 0.0
H1360 H 0.26544 0.95407 0.33374 0.0
H1361 H 0.26416 0.92287 0.36404 0.0
H1362 H 0.19847 0.93313 0.35172 0.0
H1363 H 0.19987 0.96404 0.32083 0.0
H1364 H 0.23981 0.91633 0.40541 0.0
H1365 H 0.22674 0.87094 0.34329 0.0
H1366 H 0.23351 0.89548 0.33325 0.0
H1367 H 0.20587 0.89673 0.34487 0.0
C1368 C 0.25062 0.94982 0.3375 0.0
C1369 C 0.2328 0.96163 0.32457 0.0
C1370 C 0.24992 0.93188 0.35494 0.0
C1371 C 0.2314 0.92514 0.36002 0.0
C1372 C 0.21323 0.93746 0.34782 0.0
H1373 H 0.21524 0.82448 0.48302 0.0
H1374 H 0.21242 0.85946 0.45719 0.0
C1375 C 0.21397 0.95534 0.33023 0.0
C1376 C 0.23143 0.90504 0.37763 0.0
H1377 H 0.22505 0.85545 0.38379 0.0
C1378 C 0.23653 0.90305 0.40066 0.0
C1379 C 0.22749 0.8874 0.37155 0.0
C1380 C 0.22331 0.88758 0.34685 0.0
C1381 C 0.2378 0.88414 0.41757 0.0
C1382 C 0.23341 0.8667 0.41162 0.0
C1383 C 0.22824 0.86875 0.38862 0.0
C1384 C 0.23536 0.84566 0.42822 0.0
C1385 C 0.24461 0.88276 0.44137 0.0
C1386 C 0.2489 0.82604 0.42073 0.0
C1387 C 0.25027 0.80614 0.43532 0.0
C1388 C 0.23817 0.80511 0.45795 0.0
C1389 C 0.22486 0.82468 0.46576 0.0
C1390 C 0.22335 0.84473 0.451 0.0
H1391 H 0.25295 0.89468 0.44092 0.0
H1392 H 0.22987 0.88635 0.45464 0.0
H1393 H 0.25574 0.8663 0.44739 0.0
H1394 H 0.25842 0.82609 0.40341 0.0
H1395 H 0.26078 0.79143 0.42872 0.0
H1396 H 0.03029 0.65967 0.64012 0.0
H1397 H 0.02902 0.64027 0.60942 0.0
H1398 H 0.9586 0.66601 0.61869 0.0
H1399 H 0.95975 0.68545 0.64926 0.0
H1400 H 0.01006 0.6089 0.61827 0.0
H1401 H 0.97216 0.6733 0.54682 0.0
H1402 H 0.98375 0.67855 0.5698 0.0
H1403 H 0.95676 0.6764 0.5755 0.0
C1404 C 0.01456 0.66144 0.63534 0.0
C1405 C -0.00488 0.67404 0.64714 0.0
C1406 C 0.01386 0.65043 0.61776 0.0
C1407 C 0.99373 0.65187 0.6116 0.0
C1408 C 0.97433 0.66508 0.62273 0.0
H1409 H 0.96299 0.55518 0.5618 0.0
H1410 H 0.96271 0.58416 0.58149 0.0
C1411 C 0.97502 0.67616 0.64025 0.0
C1412 C 0.99289 0.63766 0.59568 0.0
H1413 H 0.97239 0.63748 0.54593 0.0
C1414 C 0.00201 0.61519 0.60233 0.0
C1415 C 0.98249 0.64588 0.57482 0.0
C1416 C 0.97342 0.66986 0.56615 0.0
C1417 C 0.00044 0.6007 0.58909 0.0
C1418 C 0.98916 0.60891 0.56891 0.0
C1419 C 0.98065 0.63134 0.56172 0.0
C1420 C 0.98649 0.59412 0.55504 0.0
C1421 C 0.01076 0.57668 0.59681 0.0
C1422 C -0.00067 0.59079 0.53325 0.0
C1423 C -0.00049 0.57429 0.5219 0.0
C1424 C 0.98686 0.56087 0.53225 0.0
C1425 C 0.97288 0.56526 0.55331 0.0
C1426 C 0.97276 0.58173 0.56466 0.0
H1427 H 0.02265 0.57314 0.6096 0.0
H1428 H -0.0022 0.56963 0.60548 0.0
H1429 H 0.01927 0.5685 0.58129 0.0
H1430 H 0.01001 0.60023 0.5257 0.0
H1431 H 0.0102 0.57151 0.50552 0.0
H1432 H 0.31648 0.76071 0.48421 0.0
H1433 H 0.34884 0.75883 0.45528 0.0
H1434 H 0.33655 0.71129 0.42508 0.0
H1435 H 0.30363 0.71373 0.45345 0.0
H1436 H 0.38658 0.72711 0.44399 0.0
H1437 H 0.33854 0.75689 0.3676 0.0
H1438 H 0.32584 0.75747 0.39783 0.0
H1439 H 0.33496 0.73275 0.38559 0.0
C1440 C 0.32062 0.74985 0.47145 0.0
C1441 C 0.30713 0.73771 0.47095 0.0
C1442 C 0.33924 0.74871 0.45493 0.0
C1443 C 0.3449 0.73535 0.43751 0.0
C1444 C 0.33221 0.72222 0.43786 0.0
H1445 H 0.44497 0.71398 0.31617 0.0
H1446 H 0.41689 0.71113 0.34945 0.0
C1447 C 0.31347 0.72347 0.45429 0.0
C1448 C 0.36365 0.73566 0.41868 0.0
H1449 H 0.37708 0.7451 0.35857 0.0
C1450 C 0.38448 0.73109 0.42532 0.0
C1451 C 0.36095 0.74104 0.39426 0.0
C1452 C 0.33884 0.74753 0.38585 0.0
C1453 C 0.40267 0.73132 0.40825 0.0
C1454 C 0.39998 0.73643 0.38388 0.0
C1455 C 0.37918 0.74104 0.37725 0.0
C1456 C 0.41842 0.73719 0.36485 0.0
C1457 C 0.42473 0.72575 0.41639 0.0
C1458 C 0.4288 0.75272 0.36245 0.0
C1459 C 0.44491 0.75446 0.34332 0.0
C1460 C 0.45095 0.7407 0.32617 0.0
C1461 C 0.44086 0.72482 0.32901 0.0
C1462 C 0.42472 0.72318 0.34804 0.0
H1463 H 0.42508 0.71754 0.43512 0.0
H1464 H 0.4377 0.71511 0.40503 0.0
H1465 H 0.42858 0.74085 0.415 0.0
H1466 H 0.42399 0.76394 0.37498 0.0
H1467 H 0.45221 0.76695 0.34168 0.0
H1468 H 0.27745 0.06164 0.21286 0.0
H1469 H 0.27787 0.09262 0.18196 0.0
H1470 H 0.22832 0.08326 0.15046 0.0
H1471 H 0.22726 0.05266 0.18191 0.0
H1472 H 0.28762 0.0982 0.13586 0.0
H1473 H 0.20016 0.14588 0.15451 0.0
H1474 H 0.21329 0.12148 0.17374 0.0
H1475 H 0.20422 0.11999 0.14699 0.0
C1476 C 0.26666 0.06605 0.19935 0.0
C1477 C 0.25224 0.05454 0.20011 0.0
C1478 C 0.26689 0.08391 0.18159 0.0
C1479 C 0.25278 0.09086 0.16394 0.0
C1480 C 0.23892 0.07888 0.16415 0.0
H1481 H 0.2403 0.1995 0.04291 0.0
H1482 H 0.2392 0.16527 0.06844 0.0
C1483 C 0.23851 0.06112 0.18208 0.0
C1484 C 0.2528 0.11049 0.14548 0.0
H1485 H 0.22014 0.16025 0.12094 0.0
C1486 C 0.2728 0.1117 0.13268 0.0
C1487 C 0.23354 0.12837 0.14106 0.0
C1488 C 0.21163 0.12903 0.15494 0.0
C1489 C 0.27409 0.13003 0.11592 0.0
C1490 C 0.25491 0.14785 0.11165 0.0
C1491 C 0.23485 0.14656 0.12402 0.0
C1492 C 0.25566 0.16848 0.09568 0.0
C1493 C 0.29605 0.13027 0.10288 0.0
C1494 C 0.26511 0.18183 0.10241 0.0
C1495 C 0.2655 0.20142 0.08801 0.0
C1496 C 0.25662 0.2082 0.06633 0.0
C1497 C 0.24733 0.19476 0.05941 0.0
C1498 C 0.24667 0.17519 0.07405 0.0
H1499 H 0.30844 0.11383 0.10433 0.0
H1500 H 0.29474 0.13703 0.08384 0.0
H1501 H 0.30191 0.14079 0.11053 0.0
H1502 H 0.27198 0.17721 0.11905 0.0
H1503 H 0.27272 0.21137 0.09397 0.0
H1504 H 0.80894 0.76808 0.97312 0.0
H1505 H 0.84189 0.76563 0.94503 0.0
H1506 H 0.83539 0.71158 0.92139 0.0
H1507 H 0.80204 0.71419 0.94911 0.0
H1508 H 0.88113 0.73361 0.93968 0.0
H1509 H 0.83965 0.75175 0.85935 0.0
H1510 H 0.82474 0.75532 0.88835 0.0
H1511 H 0.83606 0.7288 0.87996 0.0
C1512 C 0.81446 0.7556 0.96202 0.0
C1513 C 0.80259 0.74144 0.96335 0.0
C1514 C 0.83339 0.75422 0.94593 0.0
C1515 C 0.84098 0.7387 0.9307 0.0
C1516 C 0.82961 0.72407 0.93249 0.0
H1517 H 0.94933 0.71197 0.81697 0.0
H1518 H 0.91955 0.70974 0.84848 0.0
C1519 C 0.81058 0.72549 0.94852 0.0
C1520 C 0.86066 0.738 0.91292 0.0
H1521 H 0.87824 0.7418 0.85346 0.0
C1522 C 0.88047 0.73543 0.92083 0.0
C1523 C 0.85987 0.74044 0.88826 0.0
C1524 C 0.83891 0.74444 0.87839 0.0
C1525 C 0.89947 0.73498 0.90485 0.0
C1526 C 0.89865 0.73741 0.88023 0.0
C1527 C 0.87891 0.73983 0.87233 0.0
C1528 C 0.91791 0.73792 0.86226 0.0
C1529 C 0.92036 0.7316 0.91449 0.0
C1530 C 0.92706 0.75445 0.85953 0.0
C1531 C 0.94412 0.75581 0.84148 0.0
C1532 C 0.95241 0.74067 0.82569 0.0
C1533 C 0.94351 0.72386 0.82882 0.0
C1534 C 0.92639 0.72258 0.84681 0.0
H1535 H 0.91978 0.72452 0.9336 0.0
H1536 H 0.93463 0.72081 0.90456 0.0
H1537 H 0.92289 0.74745 0.91251 0.0
H1538 H 0.92057 0.76672 0.87094 0.0
H1539 H 0.95043 0.76906 0.83956 0.0
H1540 H 0.21929 0.56035 0.6923 0.0
H1541 H 0.22027 0.59071 0.66068 0.0
H1542 H 0.28722 0.57949 0.66908 0.0
H1543 H 0.28615 0.54942 0.70121 0.0
H1544 H 0.26544 0.62093 0.66645 0.0
H1545 H 0.2456 0.59384 0.59262 0.0
H1546 H 0.22515 0.59458 0.61781 0.0
H1547 H 0.25251 0.57603 0.62009 0.0
C1548 C 0.23436 0.56409 0.68724 0.0
C1549 C 0.25268 0.55221 0.69939 0.0
C1550 C 0.23495 0.58148 0.66893 0.0
C1551 C 0.25395 0.58738 0.66195 0.0
C1552 C 0.27235 0.57535 0.67388 0.0
H1553 H 0.26869 0.68693 0.53741 0.0
H1554 H 0.27184 0.65214 0.56397 0.0
C1555 C 0.27174 0.55804 0.6923 0.0
C1556 C 0.25422 0.60685 0.64339 0.0
H1557 H 0.24227 0.63142 0.58713 0.0
C1558 C 0.26054 0.62304 0.64906 0.0
C1559 C 0.2482 0.60974 0.62038 0.0
C1560 C 0.24271 0.59251 0.61225 0.0
C1561 C 0.26034 0.6421 0.63292 0.0
C1562 C 0.25312 0.64556 0.61044 0.0
C1563 C 0.24753 0.62907 0.60439 0.0
C1564 C 0.25058 0.66649 0.59352 0.0
C1565 C 0.26811 0.65828 0.64014 0.0
C1566 C 0.2371 0.68619 0.60081 0.0
C1567 C 0.2354 0.70594 0.58578 0.0
C1568 C 0.24691 0.70669 0.56281 0.0
C1569 C 0.25971 0.68696 0.55501 0.0
C1570 C 0.26151 0.66706 0.57022 0.0
H1571 H 0.2794 0.65046 0.65388 0.0
H1572 H 0.27661 0.66637 0.62472 0.0
H1573 H 0.25384 0.67083 0.64777 0.0
H1574 H 0.22793 0.68634 0.61832 0.0
H1575 H 0.22511 0.72075 0.5923 0.0
H1576 H 0.29937 1.00104 0.40616 0.0
H1577 H 0.32066 0.99745 0.43807 0.0
H1578 H 0.38021 0.96975 0.39373 0.0
H1579 H 0.35917 0.97322 0.36192 0.0
H1580 H 0.38041 0.95014 0.44179 0.0
H1581 H 0.35408 0.04019 0.43106 0.0
H1582 H 0.33284 0.02811 0.43827 0.0
H1583 H 0.34941 0.02646 0.41004 0.0
C1584 C 0.317 0.99391 0.40338 0.0
C1585 C 0.32763 0.98762 0.38145 0.0
C1586 C 0.3291 0.9919 0.42158 0.0
C1587 C 0.35199 0.98375 0.41804 0.0
C1588 C 0.36253 0.97613 0.39678 0.0
H1589 H 0.47031 0.97591 0.45663 0.0
H1590 H 0.43935 0.97103 0.44412 0.0
C1591 C 0.35047 0.97804 0.37864 0.0
C1592 C 0.3653 0.98479 0.43532 0.0
H1593 H 0.38128 0.02052 0.45553 0.0
C1594 C 0.38036 0.96551 0.44514 0.0
C1595 C 0.36511 0.00486 0.43976 0.0
C1596 C 0.34963 0.02614 0.42916 0.0
C1597 C 0.39598 0.96582 0.45831 0.0
C1598 C 0.39668 0.98594 0.46152 0.0
C1599 C 0.38069 0.00513 0.45306 0.0
C1600 C 0.41541 0.98767 0.47066 0.0
C1601 C 0.41195 0.94455 0.46801 0.0
C1602 C 0.4122 0.99907 0.48946 0.0
C1603 C 0.42996 1.00212 0.49649 0.0
C1604 C 0.45105 0.99396 0.48465 0.0
C1605 C 0.45419 0.98243 0.46602 0.0
C1606 C 0.43655 0.97941 0.45903 0.0
H1607 H 0.40371 0.93219 0.47445 0.0
H1608 H 0.42508 0.93866 0.45364 0.0
H1609 H 0.41948 0.94608 0.48275 0.0
H1610 H 0.39597 0.00576 0.4985 0.0
H1611 H 0.42714 0.01116 0.51082 0.0
H1612 H 0.77803 0.88702 0.99974 0.0
H1613 H 0.80449 0.90594 0.99443 0.0
H1614 H 0.85665 0.84806 0.97823 0.0
H1615 H 0.83044 0.82869 0.98474 0.0
H1616 H 0.86395 0.86244 0.01379 0.0
H1617 H 0.84098 0.93144 0.9415 0.0
H1618 H 0.81771 0.93077 0.96285 0.0
H1619 H 0.83097 0.90883 0.94609 0.0
C1620 C 0.79509 0.8784 0.99469 0.0
C1621 C 0.80214 0.85628 0.99296 0.0
C1622 C 0.81018 0.88935 0.99128 0.0
C1623 C 0.83254 0.87847 0.98569 0.0
C1624 C 0.83945 0.85679 0.98237 0.0
H1625 H 0.93737 0.92498 1.00295 0.0
H1626 H 0.91882 0.90424 0.9898 0.0
C1627 C 0.8244 0.84578 0.98597 0.0
C1628 C 0.84874 0.88864 0.98719 0.0
H1629 H 0.86042 0.93585 0.97086 0.0
C1630 C 0.86356 0.87825 1.00395 0.0
C1631 C 0.84822 0.90927 0.97435 0.0
C1632 C 0.83375 0.92059 0.95502 0.0
C1633 C 0.87686 0.88853 1.00933 0.0
C1634 C 0.87528 0.90967 0.99758 0.0
C1635 C 0.86135 0.91966 0.97995 0.0
C1636 C 0.88659 0.92229 1.00486 0.0
C1637 C 0.89161 0.87727 0.02845 0.0
C1638 C 0.8745 0.9392 0.01763 0.0
C1639 C 0.88499 0.95098 0.02522 0.0
C1640 C 0.90773 0.94611 0.02 0.0
C1641 C 0.91981 0.9291 1.00719 0.0
C1642 C 0.90929 0.91726 0.99968 0.0
H1643 H 0.88933 0.86169 0.03748 0.0
H1644 H 0.90892 0.87394 0.02052 0.0
H1645 H 0.88849 0.88789 0.04192 0.0
H1646 H 0.85693 0.94322 0.02175 0.0
H1647 H 0.87523 0.96426 0.03463 0.0
H1648 H 0.65417 0.18028 0.54723 0.0
H1649 H 0.62958 0.15889 0.55968 0.0
H1650 H 0.68004 0.10393 0.53408 0.0
H1651 H 0.70487 0.12502 0.5222 0.0
H1652 H 0.61884 0.14611 0.52409 0.0
H1653 H 0.64925 0.07511 0.59166 0.0
H1654 H 0.6591 0.09789 0.58601 0.0
H1655 H 0.67075 0.07663 0.56812 0.0
C1656 C 0.66031 0.16337 0.54515 0.0
C1657 C 0.68129 0.15436 0.5334 0.0
C1658 C 0.64624 0.15119 0.55229 0.0
C1659 C 0.65302 0.12983 0.5479 0.0
C1660 C 0.67459 0.12026 0.53803 0.0
H1661 H 0.612 0.04013 0.50502 0.0
H1662 H 0.62991 0.06062 0.51944 0.0
C1663 C 0.68865 0.13242 0.53089 0.0
C1664 C 0.63669 0.1193 0.54836 0.0
H1665 H 0.62838 0.07049 0.56339 0.0
C1666 C 0.62045 0.1298 0.53324 0.0
C1667 C 0.639 0.09801 0.56017 0.0
C1668 C 0.65537 0.08639 0.57757 0.0
C1669 C 0.6076 0.11898 0.52806 0.0
C1670 C 0.61076 0.09723 0.53883 0.0
C1671 C 0.62607 0.08715 0.55511 0.0
C1672 C 0.59972 0.08419 0.53177 0.0
C1673 C 0.59196 0.13047 0.50978 0.0
C1674 C 0.57687 0.09058 0.53418 0.0
C1675 C 0.56663 0.07915 0.52564 0.0
C1676 C 0.57912 0.06102 0.51471 0.0
C1677 C 0.60201 0.05431 0.5129 0.0
C1678 C 0.61222 0.06581 0.5214 0.0
H1679 H 0.59521 0.14521 0.49935 0.0
H1680 H 0.59297 0.11961 0.49728 0.0
H1681 H 0.575 0.13555 0.51886 0.0
H1682 H 0.56694 0.10449 0.54254 0.0
H1683 H 0.54895 0.08468 0.52731 0.0
H1684 H 0.80656 0.47754 0.23759 0.0
H1685 H 0.84242 0.44873 0.23432 0.0
H1686 H 0.81 0.40132 0.24338 0.0
H1687 H 0.77459 0.42967 0.24652 0.0
H1688 H 0.86003 0.41017 0.26737 0.0
H1689 H 0.8525 0.38953 0.18288 0.0
H1690 H 0.83543 0.41457 0.19307 0.0
H1691 H 0.82906 0.38999 0.20443 0.0
C1692 C 0.80717 0.46097 0.23868 0.0
C1693 C 0.78772 0.45593 0.24207 0.0
C1694 C 0.82764 0.44452 0.23689 0.0
C1695 C 0.82896 0.42284 0.23819 0.0
C1696 C 0.8095 0.41791 0.24179 0.0
H1697 H 0.91146 0.29225 0.24878 0.0
H1698 H 0.88328 0.32781 0.2461 0.0
C1699 C 0.7892 0.4342 0.24367 0.0
C1700 C 0.85041 0.405 0.23632 0.0
H1701 H 0.87856 0.36237 0.20666 0.0
C1702 C 0.86435 0.39996 0.25382 0.0
C1703 C 0.85613 0.39166 0.21862 0.0
C1704 C 0.84261 0.39681 0.19854 0.0
C1705 C 0.88306 0.38123 0.2549 0.0
C1706 C 0.88808 0.36729 0.23791 0.0
C1707 C 0.87469 0.37294 0.21979 0.0
C1708 C 0.90583 0.34582 0.23976 0.0
C1709 C 0.89667 0.37583 0.27494 0.0
C1710 C 0.92808 0.34396 0.23697 0.0
C1711 C 0.94439 0.32346 0.23838 0.0
C1712 C 0.9387 0.30449 0.24264 0.0
C1713 C 0.91644 0.30649 0.24544 0.0
C1714 C 0.90026 0.32686 0.24391 0.0
H1715 H 0.88887 0.38658 0.28852 0.0
H1716 H 0.89946 0.35876 0.28362 0.0
H1717 H 0.91285 0.37763 0.26776 0.0
H1718 H 0.93283 0.35834 0.23347 0.0
H1719 H 0.96139 0.32244 0.23617 0.0
H1720 H 0.03168 0.60767 0.49001 0.0
H1721 H 0.03349 0.64272 0.49413 0.0
H1722 H 0.0997 0.62526 0.45917 0.0
H1723 H 0.09786 0.59037 0.45508 0.0
H1724 H 0.06026 0.64918 0.51892 0.0
H1725 H 0.07437 0.68633 0.42617 0.0
H1726 H 0.06412 0.66374 0.43427 0.0
H1727 H 0.09311 0.65924 0.43043 0.0
C1728 C 0.04654 0.61146 0.48317 0.0
C1729 C 0.06471 0.59636 0.47246 0.0
C1730 C 0.04749 0.63149 0.48533 0.0
C1731 C 0.06657 0.63674 0.47658 0.0
C1732 C 0.08457 0.62181 0.46541 0.0
H1733 H 0.14903 0.67876 0.51971 0.0
H1734 H 0.118 0.66721 0.51985 0.0
C1735 C 0.08359 0.60184 0.4632 0.0
C1736 C 0.06888 0.65665 0.48118 0.0
H1737 H 0.09237 0.69481 0.45458 0.0
C1738 C 0.06666 0.65964 0.50481 0.0
C1739 C 0.07635 0.67087 0.46282 0.0
C1740 C 0.07685 0.67001 0.437 0.0
C1741 C 0.07441 0.67468 0.51067 0.0
C1742 C 0.0851 0.68646 0.49247 0.0
C1743 C 0.08465 0.68545 0.46869 0.0
C1744 C 0.10044 0.69624 0.49742 0.0
C1745 C 0.07208 0.67693 0.53636 0.0
C1746 C 0.1009 0.71656 0.48507 0.0
C1747 C 0.11897 0.72298 0.48458 0.0
C1748 C 0.13675 0.70922 0.49657 0.0
C1749 C 0.13544 0.68976 0.51053 0.0
C1750 C 0.11754 0.68324 0.51078 0.0
H1751 H 0.05618 0.67556 0.54566 0.0
H1752 H 0.08517 0.66355 0.5452 0.0
H1753 H 0.07319 0.69263 0.53838 0.0
H1754 H 0.08795 0.72681 0.47456 0.0
H1755 H 0.11955 0.73819 0.47387 0.0
H1756 H 0.69857 0.0638 0.80581 0.0
H1757 H 0.66375 0.0933 0.80405 0.0
H1758 H 0.64864 0.06787 0.74957 0.0
H1759 H 0.68387 0.03839 0.75102 0.0
H1760 H 0.64123 0.11102 0.73772 0.0
H1761 H 0.60196 0.09509 0.8291 0.0
H1762 H 0.6286 0.09666 0.82883 0.0
H1763 H 0.62581 0.07533 0.81658 0.0
C1764 C 0.68769 0.06426 0.79371 0.0
C1765 C 0.6939 0.04859 0.77873 0.0
C1766 C 0.66766 0.08111 0.79282 0.0
C1767 C 0.65322 0.08272 0.77701 0.0
C1768 C 0.65932 0.06694 0.76212 0.0
H1769 H 0.52387 0.18638 0.78237 0.0
H1770 H 0.55199 0.15034 0.78257 0.0
C1771 C 0.67942 0.04999 0.76304 0.0
C1772 C 0.6326 0.10169 0.77503 0.0
H1773 H 0.58756 0.13127 0.80796 0.0
C1774 C 0.62936 0.11524 0.75304 0.0
C1775 C 0.61677 0.10718 0.79484 0.0
C1776 C 0.61832 0.09266 0.8186 0.0
C1777 C 0.61148 0.13458 0.75062 0.0
C1778 C 0.59652 0.14084 0.7708 0.0
C1779 C 0.5991 0.12672 0.79251 0.0
C1780 C 0.5791 0.16256 0.77005 0.0
C1781 C 0.60889 0.14819 0.7264 0.0
C1782 C 0.58486 0.18146 0.76321 0.0
C1783 C 0.56892 0.20191 0.7631 0.0
C1784 C 0.54671 0.2041 0.77003 0.0
C1785 C 0.54082 0.18524 0.7769 0.0
C1786 C 0.55689 0.16464 0.77704 0.0
H1787 H 0.61675 0.1382 0.71212 0.0
H1788 H 0.59139 0.15659 0.72401 0.0
H1789 H 0.61694 0.1606 0.72431 0.0
H1790 H 0.60184 0.18041 0.75827 0.0
H1791 H 0.57407 0.21607 0.75776 0.0
H1792 H 0.7772 0.55814 0.20777 0.0
H1793 H 0.77709 0.58863 0.17591 0.0
H1794 H 0.72214 0.58245 0.15131 0.0
H1795 H 0.72165 0.55247 0.18373 0.0
H1796 H 0.78314 0.59401 0.12965 0.0
H1797 H 0.69822 0.64522 0.15463 0.0
H1798 H 0.71166 0.62052 0.17325 0.0
H1799 H 0.69974 0.61967 0.14815 0.0
C1800 C 0.76509 0.56318 0.19557 0.0
C1801 C 0.74936 0.55275 0.19857 0.0
C1802 C 0.76502 0.58075 0.17726 0.0
C1803 C 0.74928 0.58847 0.16125 0.0
C1804 C 0.73405 0.57752 0.1637 0.0
H1805 H 0.73294 0.6971 0.0392 0.0
H1806 H 0.73213 0.66284 0.0651 0.0
C1807 C 0.73394 0.56011 0.1822 0.0
C1808 C 0.74904 0.60778 0.14213 0.0
H1809 H 0.7167 0.65826 0.11885 0.0
C1810 C 0.76854 0.60799 0.12739 0.0
C1811 C 0.73007 0.62629 0.13883 0.0
C1812 C 0.7088 0.62807 0.15469 0.0
C1813 C 0.76964 0.62593 0.10986 0.0
C1814 C 0.75077 0.64438 0.10673 0.0
C1815 C 0.73114 0.64408 0.12102 0.0
C1816 C 0.75161 0.66474 0.09019 0.0
C1817 C 0.79108 0.62509 0.09478 0.0
C1818 C 0.76273 0.67733 0.0955 0.0
C1819 C 0.76302 0.69685 0.08086 0.0
C1820 C 0.75239 0.70433 0.06029 0.0
C1821 C 0.74148 0.69164 0.05471 0.0
C1822 C 0.74093 0.67213 0.06961 0.0
H1823 H 0.80278 0.60831 0.09572 0.0
H1824 H 0.78848 0.63184 0.07598 0.0
H1825 H 0.79855 0.6351 0.10109 0.0
H1826 H 0.77091 0.67222 0.11131 0.0
H1827 H 0.77147 0.70624 0.08581 0.0
H1828 H 0.94408 0.52127 0.49347 0.0
H1829 H 0.91187 0.51869 0.48076 0.0
H1830 H 0.95298 0.48555 0.42409 0.0
H1831 H 0.98522 0.48646 0.43807 0.0
H1832 H 0.89518 0.5366 0.44303 0.0
H1833 H 0.91557 0.44922 0.44425 0.0
H1834 H 0.93232 0.45958 0.45638 0.0
H1835 H 0.93649 0.45803 0.42524 0.0
C1836 C 0.94624 0.51287 0.47877 0.0
C1837 C 0.96713 0.50376 0.46701 0.0
C1838 C 0.92782 0.51152 0.47139 0.0
C1839 C 0.92993 0.50148 0.45174 0.0
C1840 C 0.95086 0.49264 0.43981 0.0
H1841 H 0.84828 0.53375 0.34533 0.0
H1842 H 0.87133 0.53212 0.37436 0.0
C1843 C 0.96929 0.4935 0.44757 0.0
C1844 C 0.91021 0.50233 0.44211 0.0
H1845 H 0.88986 0.47306 0.4167 0.0
C1846 C 0.89381 0.52253 0.43786 0.0
C1847 C 0.90807 0.48402 0.43549 0.0
C1848 C 0.924 0.46149 0.44084 0.0
C1849 C 0.87617 0.52514 0.42596 0.0
C1850 C 0.87516 0.50722 0.41761 0.0
C1851 C 0.89073 0.4868 0.42306 0.0
C1852 C 0.85949 0.50966 0.4012 0.0
C1853 C 0.85907 0.5472 0.42195 0.0
C1854 C 0.84536 0.49736 0.40655 0.0
C1855 C 0.83225 0.49809 0.38984 0.0
C1856 C 0.83305 0.51124 0.36757 0.0
C1857 C 0.84695 0.52382 0.3625 0.0
C1858 C 0.86011 0.52295 0.3791 0.0
H1859 H 0.85794 0.55686 0.43578 0.0
H1860 H 0.86363 0.55613 0.40452 0.0
H1861 H 0.84273 0.54591 0.42192 0.0
H1862 H 0.84467 0.48704 0.42353 0.0
H1863 H 0.82161 0.48831 0.39427 0.0
H1864 H 0.12332 0.53684 0.66793 0.0
H1865 H 0.10387 0.53664 0.63629 0.0
H1866 H 0.16518 0.50934 0.59443 0.0
H1867 H 0.18494 0.50975 0.62602 0.0
H1868 H 0.10542 0.55304 0.5854 0.0
H1869 H 0.13405 0.46291 0.60803 0.0
H1870 H 0.13628 0.4798 0.62719 0.0
H1871 H 0.15439 0.47616 0.60012 0.0
C1872 C 0.13275 0.53141 0.65174 0.0
C1873 C 0.1557 0.52308 0.64961 0.0
C1874 C 0.12158 0.53124 0.63369 0.0
C1875 C 0.13312 0.5227 0.61323 0.0
C1876 C 0.15602 0.51573 0.61027 0.0
H1877 H 0.06397 0.47765 0.53056 0.0
H1878 H 0.09382 0.48714 0.54015 0.0
C1879 C 0.16725 0.5159 0.62835 0.0
C1880 C 0.12092 0.51895 0.59661 0.0
H1881 H 0.10683 0.47888 0.58297 0.0
C1882 C 0.10599 0.53683 0.58444 0.0
C1883 C 0.12185 0.49776 0.59532 0.0
C1884 C 0.13738 0.47799 0.60841 0.0
C1885 C 0.09117 0.5341 0.57192 0.0
C1886 C 0.09102 0.51296 0.5721 0.0
C1887 C 0.10694 0.49506 0.58292 0.0
C1888 C 0.07296 0.50907 0.56399 0.0
C1889 C 0.07546 0.55391 0.55918 0.0
C1890 C 0.05144 0.5181 0.57433 0.0
C1891 C 0.0345 0.51278 0.56883 0.0
C1892 C 0.03879 0.49817 0.55302 0.0
C1893 C 0.06027 0.48915 0.54258 0.0
C1894 C 0.07727 0.49455 0.54804 0.0
H1895 H 0.08303 0.5668 0.55237 0.0
H1896 H 0.07009 0.5501 0.54415 0.0
H1897 H 0.06088 0.56047 0.57181 0.0
H1898 H 0.04781 0.52881 0.58722 0.0
H1899 H 0.01804 0.52005 0.57705 0.0
H1900 H 0.53825 0.79339 0.20414 0.0
H1901 H 0.56704 0.79489 0.17114 0.0
H1902 H 0.56222 0.73888 0.15009 0.0
H1903 H 0.5333 0.73736 0.18284 0.0
H1904 H 0.60721 0.76288 0.16417 0.0
H1905 H 0.56164 0.78008 0.08721 0.0
H1906 H 0.5481 0.78374 0.11675 0.0
H1907 H 0.5591 0.75714 0.10861 0.0
C1908 C 0.54304 0.78158 0.19229 0.0
C1909 C 0.53333 0.7653 0.19617 0.0
C1910 C 0.55958 0.78243 0.17344 0.0
C1911 C 0.56668 0.76716 0.15791 0.0
C1912 C 0.55676 0.75112 0.16149 0.0
H1913 H 0.67251 0.7349 0.04347 0.0
H1914 H 0.64029 0.73735 0.07287 0.0
C1915 C 0.54025 0.75023 0.18035 0.0
C1916 C 0.58534 0.7672 0.13893 0.0
H1917 H 0.60037 0.77005 0.07906 0.0
C1918 C 0.60566 0.76462 0.14554 0.0
C1919 C 0.58339 0.76932 0.11461 0.0
C1920 C 0.56185 0.77292 0.10628 0.0
C1921 C 0.62414 0.76366 0.12864 0.0
C1922 C 0.62222 0.76581 0.10431 0.0
C1923 C 0.60188 0.76843 0.09767 0.0
C1924 C 0.6412 0.76512 0.08557 0.0
C1925 C 0.64574 0.75971 0.13712 0.0
C1926 C 0.6522 0.78023 0.08243 0.0
C1927 C 0.67069 0.77887 0.06564 0.0
C1928 C 0.67855 0.76244 0.0514 0.0
C1929 C 0.66702 0.74777 0.05405 0.0
C1930 C 0.64855 0.74913 0.0709 0.0
H1931 H 0.64576 0.7527 0.15624 0.0
H1932 H 0.65937 0.74859 0.12685 0.0
H1933 H 0.64885 0.77532 0.13465 0.0
H1934 H 0.64658 0.79303 0.09312 0.0
H1935 H 0.67898 0.79056 0.06406 0.0
H1936 H 0.63144 0.48674 0.1799 0.0
H1937 H 0.61142 0.48604 0.14913 0.0
H1938 H 0.64858 0.52011 0.09718 0.0
H1939 H 0.66887 0.52095 0.12821 0.0
H1940 H 0.60509 0.53598 0.09202 0.0
H1941 H 0.63352 0.44737 0.09876 0.0
H1942 H 0.62337 0.45452 0.12773 0.0
H1943 H 0.64682 0.46118 0.11137 0.0
C1944 C 0.63561 0.49382 0.16186 0.0
C1945 C 0.65204 0.50347 0.15634 0.0
C1946 C 0.62418 0.49337 0.14428 0.0
C1947 C 0.62904 0.50236 0.12072 0.0
C1948 C 0.6449 0.51273 0.11517 0.0
H1949 H 0.54969 0.46987 0.03915 0.0
H1950 H 0.58251 0.47362 0.04907 0.0
C1951 C 0.65638 0.51327 0.13289 0.0
C1952 C 0.61666 0.50136 0.10251 0.0
H1953 H 0.59708 0.4662 0.08666 0.0
C1954 C 0.60362 0.52072 0.09038 0.0
C1955 C 0.61546 0.48143 0.09945 0.0
C1956 C 0.63078 0.45996 0.10982 0.0
C1957 C 0.58783 0.52074 0.07717 0.0
C1958 C 0.58447 0.50098 0.07701 0.0
C1959 C 0.59908 0.48149 0.08718 0.0
C1960 C 0.56485 0.50014 0.06866 0.0
C1961 C 0.57487 0.54203 0.06388 0.0
C1962 C 0.54393 0.51348 0.07657 0.0
C1963 C 0.52531 0.51189 0.07004 0.0
C1964 C 0.52718 0.49651 0.056 0.0
C1965 C 0.54794 0.48245 0.04907 0.0
C1966 C 0.56665 0.48446 0.05499 0.0
H1967 H 0.58547 0.5521 0.05609 0.0
H1968 H 0.56741 0.53978 0.04945 0.0
H1969 H 0.56176 0.55114 0.07642 0.0
H1970 H 0.54191 0.52498 0.08808 0.0
H1971 H 0.50947 0.52287 0.07582 0.0
H1972 H 0.40272 0.47857 0.95919 0.0
H1973 H 0.38623 0.45816 0.9422 0.0
H1974 H 0.36538 0.43048 0.01266 0.0
H1975 H 0.38193 0.45068 0.02964 0.0
H1976 H 0.39381 0.40918 0.95331 0.0
H1977 H 0.30897 0.46206 0.97549 0.0
H1978 H 0.33238 0.4711 0.97145 0.0
H1979 H 0.32577 0.45513 0.99895 0.0
C1980 C 0.39437 0.4683 0.97093 0.0
C1981 C 0.39312 0.46642 0.99565 0.0
C1982 C 0.38513 0.4566 0.96125 0.0
C1983 C 0.37429 0.44322 0.97622 0.0
C1984 C 0.37348 0.44099 1.00089 0.0
H1985 H 0.33837 0.33692 0.99955 0.0
H1986 H 0.35819 0.36244 0.98556 0.0
C1987 C 0.38293 0.45244 0.01054 0.0
C1988 C 0.36343 0.43152 0.96662 0.0
H1989 H 0.31358 0.42552 0.97197 0.0
C1990 C 0.37621 0.41296 0.95673 0.0
C1991 C 0.34048 0.43692 0.97038 0.0
C1992 C 0.32603 0.45752 0.97943 0.0
C1993 C 0.36669 0.39841 0.95287 0.0
C1994 C 0.34399 0.40239 0.95967 0.0
C1995 C 0.33102 0.4222 0.96705 0.0
C1996 C 0.33401 0.38507 0.96355 0.0
C1997 C 0.3812 0.37851 0.94253 0.0
C1998 C 0.31367 0.38917 0.95595 0.0
C1999 C 0.30203 0.37465 0.96436 0.0
C2000 C 0.31061 0.35578 0.98043 0.0
C2001 C 0.33148 0.35114 0.98689 0.0
C2002 C 0.34296 0.36569 0.9787 0.0
H2003 H 0.39432 0.38227 0.92919 0.0
H2004 H 0.38927 0.36595 0.95682 0.0
H2005 H 0.37183 0.3718 0.93402 0.0
H2006 H 0.30634 0.40409 0.94441 0.0
H2007 H 0.28603 0.37852 0.95894 0.0
H2008 H 0.07067 0.22274 0.26817 0.0
H2009 H 0.09891 0.18725 0.27117 0.0
H2010 H 0.04948 0.15651 0.28419 0.0
H2011 H 0.02087 0.19237 0.2811 0.0
H2012 H 0.10435 0.15347 0.31016 0.0
H2013 H 0.0929 0.12728 0.23016 0.0
H2014 H 0.0818 0.15518 0.23475 0.0
H2015 H 0.06915 0.13591 0.25128 0.0
C2016 C 0.06572 0.20847 0.27166 0.0
C2017 C 0.04349 0.21041 0.27441 0.0
C2018 C 0.08194 0.18813 0.27337 0.0
C2019 C 0.07644 0.16912 0.2777 0.0
C2020 C 0.0542 0.17092 0.28049 0.0
H2021 H 0.17621 0.03725 0.2844 0.0
H2022 H 0.14022 0.066 0.2869 0.0
C2023 C 0.03785 0.1914 0.27885 0.0
C2024 C 0.09425 0.14768 0.27976 0.0
H2025 H 0.12187 0.10401 0.25135 0.0
C2026 C 0.10799 0.14255 0.29745 0.0
C2027 C 0.09901 0.13328 0.26329 0.0
C2028 C 0.08509 0.13812 0.24366 0.0
C2029 C 0.12663 0.12392 0.29868 0.0
C2030 C 0.13203 0.11008 0.28153 0.0
C2031 C 0.11777 0.1146 0.26449 0.0
C2032 C 0.1535 0.09232 0.27967 0.0
C2033 C 0.14067 0.1194 0.31814 0.0
C2034 C 0.17286 0.09752 0.27439 0.0
C2035 C 0.19322 0.08128 0.27292 0.0
C2036 C 0.19485 0.05932 0.27669 0.0
C2037 C 0.17548 0.054 0.28162 0.0
C2038 C 0.15494 0.07041 0.28298 0.0
H2039 H 0.13128 0.12743 0.33353 0.0
H2040 H 0.14762 0.10174 0.32434 0.0
H2041 H 0.15441 0.1258 0.31124 0.0
H2042 H 0.17223 0.11427 0.27134 0.0
H2043 H 0.20776 0.08601 0.26887 0.0
H2044 H 0.22353 0.32329 0.98666 0.0
H2045 H 0.22211 0.35816 0.9611 0.0
H2046 H 0.26061 0.32416 0.90411 0.0
H2047 H 0.2618 0.28966 0.92923 0.0
H2048 H 0.25301 0.37692 0.93604 0.0
H2049 H 0.20743 0.36391 0.87294 0.0
H2050 H 0.21123 0.34724 0.90161 0.0
H2051 H 0.23259 0.34217 0.87714 0.0
C2052 C 0.23179 0.3233 0.96874 0.0
C2053 C 0.2425 0.30365 0.95992 0.0
C2054 C 0.23096 0.34325 0.95409 0.0
C2055 C 0.24075 0.34396 0.93033 0.0
C2056 C 0.25234 0.32425 0.92204 0.0
H2057 H 0.27233 0.45007 0.83111 0.0
H2058 H 0.27194 0.41935 0.86237 0.0
C2059 C 0.2531 0.30445 0.93654 0.0
C2060 C 0.23858 0.36505 0.91386 0.0
H2061 H 0.22295 0.39218 0.85971 0.0
C2062 C 0.24626 0.38035 0.91944 0.0
C2063 C 0.22945 0.36988 0.89228 0.0
C2064 C 0.2195 0.35504 0.88572 0.0
C2065 C 0.24568 0.39985 0.90383 0.0
C2066 C 0.23759 0.40414 0.88163 0.0
C2067 C 0.22935 0.38907 0.87646 0.0
C2068 C 0.23761 0.42388 0.86336 0.0
C2069 C 0.25347 0.41575 0.91157 0.0
C2070 C 0.21864 0.43671 0.85269 0.0
C2071 C 0.21893 0.45416 0.83436 0.0
C2072 C 0.23819 0.45942 0.82617 0.0
C2073 C 0.25708 0.4468 0.83708 0.0
C2074 C 0.25684 0.4292 0.85522 0.0
H2075 H 0.25187 0.41385 0.93121 0.0
H2076 H 0.27103 0.41266 0.90488 0.0
H2077 H 0.24419 0.43272 0.90459 0.0
H2078 H 0.20355 0.43307 0.85839 0.0
H2079 H 0.20407 0.46338 0.82641 0.0
H2080 H 0.30684 0.21237 0.95937 0.0
H2081 H 0.33993 0.20852 0.93088 0.0
H2082 H 0.34958 0.26161 0.95324 0.0
H2083 H 0.31691 0.26538 0.98183 0.0
H2084 H 0.34676 0.23923 0.89346 0.0
H2085 H 0.41045 0.21746 0.95297 0.0
H2086 H 0.38341 0.21594 0.96357 0.0
H2087 H 0.38814 0.24151 0.95845 0.0
C2088 C 0.31622 0.22297 0.95857 0.0
C2089 C 0.30916 0.23913 0.97307 0.0
C2090 C 0.33512 0.22078 0.94219 0.0
C2091 C 0.34747 0.23457 0.94009 0.0
C2092 C 0.34069 0.25042 0.95486 0.0
H2093 H 0.45156 0.26703 0.84196 0.0
H2094 H 0.42313 0.26361 0.8748 0.0
C2095 C 0.32184 0.25262 0.97119 0.0
C2096 C 0.36647 0.23353 0.92134 0.0
H2097 H 0.42058 0.22913 0.91197 0.0
C2098 C 0.36296 0.23675 0.89754 0.0
C2099 C 0.38761 0.23044 0.9266 0.0
C2100 C 0.39273 0.22593 0.95179 0.0
C2101 C 0.37978 0.23761 0.87889 0.0
C2102 C 0.40084 0.2348 0.88414 0.0
C2103 C 0.40444 0.23132 0.90794 0.0
C2104 C 0.41918 0.23585 0.8651 0.0
C2105 C 0.37462 0.24228 0.85368 0.0
C2106 C 0.42689 0.22102 0.84907 0.0
C2107 C 0.44315 0.22291 0.83026 0.0
C2108 C 0.45216 0.23964 0.82712 0.0
C2109 C 0.44499 0.25397 0.84376 0.0
C2110 C 0.42872 0.25205 0.86258 0.0
H2111 H 0.35675 0.24919 0.85264 0.0
H2112 H 0.38257 0.25375 0.84247 0.0
H2113 H 0.38094 0.22698 0.84619 0.0
H2114 H 0.42011 0.20811 0.85092 0.0
H2115 H 0.44832 0.21149 0.81792 0.0
H2116 H 0.48345 0.47969 0.9513 0.0
H2117 H 0.45082 0.48047 0.93683 0.0
H2118 H 0.42109 0.54824 0.94276 0.0
H2119 H 0.45331 0.54691 0.95945 0.0
H2120 H 0.39137 0.53057 0.95401 0.0
H2121 H 0.43771 0.5026 0.87141 0.0
H2122 H 0.44858 0.48276 0.89584 0.0
H2123 H 0.45018 0.50969 0.89214 0.0
C2124 C 0.46994 0.49474 0.94957 0.0
C2125 C 0.47092 0.51335 0.95608 0.0
C2126 C 0.45137 0.49524 0.94108 0.0
C2127 C 0.43386 0.51464 0.93767 0.0
C2128 C 0.43455 0.53317 0.94483 0.0
H2129 H 0.32035 0.5407 0.86703 0.0
H2130 H 0.34467 0.54404 0.89185 0.0
C2131 C 0.45292 0.53246 0.95422 0.0
C2132 C 0.41501 0.51524 0.92673 0.0
H2133 H 0.40241 0.49801 0.88175 0.0
C2134 C 0.39377 0.52331 0.93833 0.0
C2135 C 0.41801 0.50673 0.90555 0.0
C2136 C 0.43984 0.50024 0.89042 0.0
C2137 C 0.37574 0.52136 0.93049 0.0
C2138 C 0.37906 0.51173 0.91014 0.0
C2139 C 0.40006 0.50476 0.89782 0.0
C2140 C 0.36102 0.50954 0.90025 0.0
C2141 C 0.35345 0.52887 0.9444 0.0
C2142 C 0.36182 0.48901 0.89723 0.0
C2143 C 0.34794 0.48704 0.88309 0.0
C2144 C 0.33322 0.50561 0.87148 0.0
C2145 C 0.33134 0.52608 0.87596 0.0
C2146 C 0.34521 0.52803 0.89018 0.0
H2147 H 0.35433 0.53196 0.96215 0.0
H2148 H 0.34328 0.54415 0.93455 0.0
H2149 H 0.34513 0.51663 0.94668 0.0
H2150 H 0.37407 0.47457 0.90463 0.0
H2151 H 0.34956 0.47106 0.88016 0.0
H2152 H 0.66896 0.64886 0.03149 0.0
H2153 H 0.65666 0.61763 0.0444 0.0
H2154 H 0.72248 0.57667 0.05547 0.0
H2155 H 0.73501 0.60814 0.04239 0.0
H2156 H 0.70688 0.56226 0.0264 0.0
H2157 H 0.64411 0.57812 0.10303 0.0
H2158 H 0.63832 0.60175 0.08078 0.0
H2159 H 0.66338 0.59279 0.09406 0.0
C2160 C 0.68073 0.63339 0.03748 0.0
C2161 C 0.70299 0.63096 0.03575 0.0
C2162 C 0.67363 0.61549 0.04504 0.0
C2163 C 0.68857 0.59479 0.05128 0.0
C2164 C 0.71063 0.5925 0.0509 0.0
H2165 H 0.6336 0.49281 0.04376 0.0
H2166 H 0.65729 0.50642 0.05967 0.0
C2167 C 0.71779 0.61045 0.04325 0.0
C2168 C 0.68162 0.57556 0.05374 0.0
H2169 H 0.63704 0.55933 0.07415 0.0
C2170 C 0.69212 0.56102 0.03761 0.0
C2171 C 0.66251 0.57366 0.0685 0.0
C2172 C 0.65164 0.58732 0.08773 0.0
C2173 C 0.68257 0.54649 0.03386 0.0
C2174 C 0.66206 0.54666 0.04644 0.0
C2175 C 0.65273 0.55942 0.06438 0.0
C2176 C 0.64815 0.53777 0.03744 0.0
C2177 C 0.69332 0.53255 0.01485 0.0
C2178 C 0.63567 0.55077 0.01943 0.0
C2179 C 0.62261 0.54298 0.00997 0.0
C2180 C 0.6215 0.52205 0.01856 0.0
C2181 C 0.63422 0.50893 0.03658 0.0
C2182 C 0.64753 0.51674 0.04593 0.0
H2183 H 0.71075 0.53138 0.00965 0.0
H2184 H 0.69228 0.51601 0.02101 0.0
H2185 H 0.68458 0.53965 0.99893 0.0
H2186 H 0.63622 0.56697 0.01251 0.0
H2187 H 0.61356 0.55335 0.99571 0.0
H2188 H 0.91596 0.78706 0.75357 0.0
H2189 H 0.8879 0.82271 0.751 0.0
H2190 H 0.93774 0.85304 0.73585 0.0
H2191 H 0.96618 0.81706 0.73829 0.0
H2192 H 0.90039 0.87058 0.77145 0.0
H2193 H 0.87414 0.86568 0.6883 0.0
H2194 H 0.87584 0.84216 0.71054 0.0
H2195 H 0.90023 0.84864 0.69785 0.0
C2196 C 0.92103 0.80128 0.74959 0.0
C2197 C 0.94332 0.7992 0.74599 0.0
C2198 C 0.90493 0.82169 0.7481 0.0
C2199 C 0.91066 0.84061 0.74295 0.0
C2200 C 0.93292 0.83868 0.73974 0.0
H2201 H 0.81062 0.9729 0.73798 0.0
H2202 H 0.84701 0.94467 0.73669 0.0
C2203 C 0.94914 0.81813 0.74109 0.0
C2204 C 0.89312 0.86218 0.74092 0.0
H2205 H 0.84904 0.89192 0.71129 0.0
C2206 C 0.88939 0.87552 0.75803 0.0
C2207 C 0.87881 0.86869 0.72334 0.0
C2208 C 0.88252 0.85567 0.70381 0.0
C2209 C 0.87095 0.89443 0.75888 0.0
C2210 C 0.856 0.90024 0.74206 0.0
C2211 C 0.86042 0.88748 0.72426 0.0
C2212 C 0.83444 0.91782 0.74409 0.0
C2213 C 0.86685 0.9074 0.77853 0.0
C2214 C 0.81534 0.91221 0.74872 0.0
C2215 C 0.7948 0.92814 0.74941 0.0
C2216 C 0.79267 0.95024 0.74534 0.0
C2217 C 0.81174 0.95602 0.74117 0.0
C2218 C 0.83251 0.9399 0.74052 0.0
H2219 H 0.87868 0.89944 0.79171 0.0
H2220 H 0.86825 0.9236 0.77087 0.0
H2221 H 0.85003 0.90987 0.7878 0.0
H2222 H 0.81634 0.89536 0.75161 0.0
H2223 H 0.7805 0.92305 0.75282 0.0
H2224 H 0.48224 0.19438 0.6241 0.0
H2225 H 0.47838 0.17226 0.59762 0.0
H2226 H 0.49165 0.11667 0.65292 0.0
H2227 H 0.49535 0.13858 0.67947 0.0
H2228 H 0.51353 0.10785 0.6082 0.0
H2229 H 0.42471 0.15215 0.60536 0.0
H2230 H 0.4422 0.16855 0.59688 0.0
H2231 H 0.4397 0.15489 0.62686 0.0
C2232 C 0.48443 0.17742 0.63056 0.0
C2233 C 0.48902 0.16825 0.65392 0.0
C2234 C 0.48215 0.16485 0.61546 0.0
C2235 C 0.48432 0.14297 0.62352 0.0
C2236 C 0.48983 0.13357 0.64643 0.0
H2237 H 0.44635 0.04856 0.5781 0.0
H2238 H 0.44748 0.07758 0.59693 0.0
C2239 C 0.49212 0.14608 0.66151 0.0
C2240 C 0.48049 0.1298 0.60839 0.0
H2241 H 0.44094 0.12397 0.58239 0.0
C2242 C 0.4977 0.11143 0.60244 0.0
C2243 C 0.45972 0.1344 0.60122 0.0
C2244 C 0.44043 0.15346 0.60802 0.0
C2245 C 0.49469 0.09743 0.58957 0.0
C2246 C 0.47403 0.10219 0.58209 0.0
C2247 C 0.45679 0.12056 0.58799 0.0
C2248 C 0.47005 0.08769 0.56882 0.0
C2249 C 0.51352 0.07734 0.58466 0.0
C2250 C 0.48149 0.08462 0.54631 0.0
C2251 C 0.48082 0.0682 0.53552 0.0
C2252 C 0.46868 0.05456 0.54707 0.0
C2253 C 0.45578 0.05884 0.56874 0.0
C2254 C 0.45648 0.07533 0.57955 0.0
H2255 H 0.52615 0.07326 0.59671 0.0
H2256 H 0.50786 0.06322 0.58666 0.0
H2257 H 0.52128 0.08014 0.56615 0.0
H2258 H 0.49182 0.09422 0.53764 0.0
H2259 H 0.49078 0.06546 0.5187 0.0
H2260 H 0.47899 0.36854 0.853 0.0
H2261 H 0.47645 0.38862 0.88443 0.0
H2262 H 0.47448 0.33291 0.93696 0.0
H2263 H 0.47706 0.31257 0.90547 0.0
H2264 H 0.44733 0.39919 0.92529 0.0
H2265 H 0.52955 0.34365 0.94675 0.0
H2266 H 0.51865 0.34366 0.92052 0.0
H2267 H 0.50895 0.3313 0.94895 0.0
C2268 C 0.47747 0.36068 0.87125 0.0
C2269 C 0.47844 0.33888 0.87673 0.0
C2270 C 0.47609 0.37218 0.8892 0.0
C2271 C 0.47568 0.36213 0.91297 0.0
C2272 C 0.47523 0.34081 0.91867 0.0
H2273 H 0.46743 0.44544 0.01567 0.0
H2274 H 0.46023 0.41843 0.99884 0.0
C2275 C 0.4767 0.32924 0.90068 0.0
C2276 C 0.47762 0.37354 0.93124 0.0
H2277 H 0.51357 0.37359 0.96653 0.0
C2278 C 0.46165 0.39351 0.93459 0.0
C2279 C 0.49642 0.36608 0.94318 0.0
C2280 C 0.51449 0.34509 0.93963 0.0
C2281 C 0.46439 0.4067 0.94879 0.0
C2282 C 0.4835 0.39946 0.96027 0.0
C2283 C 0.49896 0.37905 0.95774 0.0
C2284 C 0.48893 0.4137 0.97279 0.0
C2285 C 0.44738 0.42872 0.95028 0.0
C2286 C 0.50814 0.41899 0.96479 0.0
C2287 C 0.51247 0.43413 0.97467 0.0
C2288 C 0.49755 0.44436 0.99261 0.0
C2289 C 0.479 0.43807 1.00158 0.0
C2290 C 0.4748 0.42275 0.99188 0.0
H2291 H 0.43636 0.43368 0.93629 0.0
H2292 H 0.43717 0.42827 0.96773 0.0
H2293 H 0.4552 0.44125 0.94864 0.0
H2294 H 0.51936 0.41211 0.95015 0.0
H2295 H 0.52683 0.43872 0.96727 0.0
H2296 H 0.49355 0.80537 0.40186 0.0
H2297 H 0.49532 0.82207 0.43486 0.0
H2298 H 0.49409 0.88104 0.38666 0.0
H2299 H 0.49259 0.86456 0.35373 0.0
H2300 H 0.52879 0.84076 0.43725 0.0
H2301 H 0.44525 0.90163 0.44065 0.0
H2302 H 0.45192 0.87658 0.42939 0.0
H2303 H 0.45995 0.89865 0.41169 0.0
C2304 C 0.49359 0.82192 0.39834 0.0
C2305 C 0.49272 0.83371 0.3752 0.0
C2306 C 0.49453 0.83142 0.41719 0.0
C2307 C 0.49447 0.85286 0.41319 0.0
C2308 C 0.49361 0.86463 0.39017 0.0
H2309 H 0.53056 0.9369 0.47406 0.0
H2310 H 0.53027 0.90868 0.45356 0.0
C2311 C 0.49269 0.85519 0.37138 0.0
C2312 C 0.49633 0.86288 0.43269 0.0
H2313 H 0.4707 0.9065 0.46114 0.0
C2314 C 0.51598 0.85491 0.44282 0.0
C2315 C 0.47953 0.88128 0.43988 0.0
C2316 C 0.45788 0.89001 0.43004 0.0
C2317 C 0.51967 0.86558 0.45917 0.0
C2318 C 0.50328 0.88456 0.46546 0.0
C2319 C 0.48325 0.89191 0.4562 0.0
C2320 C 0.50698 0.89809 0.4802 0.0
C2321 C 0.54119 0.85688 0.46921 0.0
C2322 C 0.49453 0.90092 0.50228 0.0
C2323 C 0.49445 0.91717 0.51393 0.0
C2324 C 0.50698 0.93074 0.5037 0.0
C2325 C 0.5208 0.92669 0.48246 0.0
C2326 C 0.52068 0.91055 0.47072 0.0
H2327 H 0.55026 0.8399 0.46646 0.0
H2328 H 0.55146 0.86701 0.4603 0.0
H2329 H 0.53859 0.85764 0.48847 0.0
H2330 H 0.48418 0.89116 0.50998 0.0
H2331 H 0.48377 0.91974 0.53037 0.0
H2332 H 0.53678 0.55055 0.02055 0.0
H2333 H 0.53957 0.57807 0.04022 0.0
H2334 H 0.46943 0.60593 0.0499 0.0
H2335 H 0.46633 0.5788 0.02958 0.0
H2336 H 0.50638 0.63419 0.03332 0.0
H2337 H 0.50799 0.57469 0.11689 0.0
H2338 H 0.52077 0.5658 0.08892 0.0
H2339 H 0.49161 0.57614 0.09453 0.0
C2340 C 0.52193 0.56289 0.02611 0.0
C2341 C 0.50132 0.56246 0.02335 0.0
C2342 C 0.5236 0.57851 0.03749 0.0
C2343 C 0.50473 0.59385 0.0465 0.0
C2344 C 0.48416 0.5942 0.04289 0.0
H2345 H 0.4703 0.69478 0.12942 0.0
H2346 H 0.4757 0.67352 0.09813 0.0
C2347 C 0.48246 0.57865 0.03134 0.0
C2348 C 0.5064 0.60788 0.06197 0.0
H2349 H 0.5081 0.60909 0.11984 0.0
C2350 C 0.50686 0.62877 0.05222 0.0
C2351 C 0.50732 0.6005 0.08648 0.0
C2352 C 0.50693 0.57806 0.09753 0.0
C2353 C 0.50783 0.64275 0.06662 0.0
C2354 C 0.50795 0.63565 0.09135 0.0
C2355 C 0.50807 0.61449 0.10088 0.0
C2356 C 0.50644 0.65019 0.10803 0.0
C2357 C 0.5088 0.66491 0.05525 0.0
C2358 C 0.52195 0.64419 0.12398 0.0
C2359 C 0.51876 0.65617 0.1421 0.0
C2360 C 0.49988 0.67427 0.14468 0.0
C2361 C 0.48489 0.68079 0.12801 0.0
C2362 C 0.48809 0.66881 0.10993 0.0
H2363 H 0.51558 0.66527 0.03625 0.0
H2364 H 0.49201 0.67678 0.05625 0.0
H2365 H 0.51891 0.67012 0.06449 0.0
H2366 H 0.53614 0.62977 0.12292 0.0
H2367 H 0.53048 0.65061 0.15479 0.0
loop_
_geom_bond_atom_site_label_1
_geom_bond_atom_site_label_2
_geom_bond_distance
_geom_bond_site_symmetry_2
_ccdc_geom_bond_type
Gd0 C3 2.818 . S
Gd0 O20 2.377 1_654 S
Gd0 O22 2.448 . S
Gd0 O23 2.506 . S
Gd0 O24 2.435 1_655 S
Gd0 O25 2.717 1_655 S
Gd0 O27 2.395 1_565 S
Gd0 O31 2.327 1_564 S
Gd1 C12 2.818 . S
Gd1 O21 2.395 1_545 S
Gd1 O25 2.327 1_546 S
Gd1 O26 2.377 1_456 S
Gd1 O28 2.448 . S
Gd1 O29 2.506 . S
Gd1 O30 2.435 1_455 S
Gd1 O31 2.717 1_455 S
C2 O20 1.240 . S
C2 O21 1.240 . S
C3 Gd0 2.818 . S
C3 C4 1.510 . S
C3 O22 1.249 . S
C3 O23 1.252 . S
C4 C3 1.510 . S
C4 C5 1.404 . S
C4 C6 1.352 . S
C5 C4 1.404 . S
C5 C9 1.389 . S
C5 H32 0.930 . S
C6 C4 1.352 . S
C6 C8 1.374 . S
C6 H33 0.931 1_554 S
C7 C8 1.359 . S
C7 C9 1.364 . S
C8 C6 1.374 . S
C8 C7 1.359 . S
C8 H34 0.931 1_554 S
C9 C5 1.389 . S
C9 C7 1.364 . S
C9 H35 0.931 . S
C10 O24 1.256 . S
C10 O25 1.257 . S
C11 O26 1.240 . S
C11 O27 1.240 . S
C12 Gd1 2.818 . S
C12 C13 1.510 . S
C12 O28 1.249 . S
C12 O29 1.252 . S
C13 C12 1.510 . S
C13 C14 1.404 . S
C13 C15 1.352 . S
C14 C13 1.404 . S
C14 C18 1.389 . S
C14 H36 0.930 . S
C15 C13 1.352 . S
C15 C17 1.374 . S
C15 H37 0.931 1_556 S
C16 C17 1.359 . S
C16 C18 1.364 . S
C17 C15 1.374 . S
C17 C16 1.359 . S
C17 H38 0.931 1_556 S
C18 C14 1.389 . S
C18 C16 1.364 . S
C18 H39 0.931 . S
C19 O30 1.256 . S
C19 O31 1.257 . S
O20 Gd0 2.377 1_456 S
O20 C2 1.240 . S
O21 Gd1 2.395 1_565 S
O21 C2 1.240 . S
O22 Gd0 2.448 . S
O22 C3 1.249 . S
O23 Gd0 2.506 . S
O23 C3 1.252 . S
O24 Gd0 2.435 1_455 S
O24 C10 1.256 . S
O25 Gd0 2.717 1_455 S
O25 Gd1 2.327 1_564 S
O25 C10 1.257 . S
O26 Gd1 2.377 1_654 S
O26 C11 1.240 . S
O27 Gd0 2.395 1_545 S
O27 C11 1.240 . S
O28 Gd1 2.448 . S
O28 C12 1.249 . S
O29 Gd1 2.506 . S
O29 C12 1.252 . S
O30 Gd1 2.435 1_655 S
O30 C19 1.256 . S
O31 Gd0 2.327 1_546 S
O31 Gd1 2.717 1_655 S
O31 C19 1.257 . S
H32 C5 0.930 . S
H33 C6 0.931 1_556 S
H34 C8 0.931 1_556 S
H35 C9 0.931 . S
H36 C14 0.930 . S
H37 C15 0.931 1_554 S
H38 C17 0.931 1_554 S
H39 C18 0.931 . S
Gd40 C43 2.818 . S
Gd40 O60 2.377 1_455 S
Gd40 O62 2.448 . S
Gd40 O63 2.506 1_455 S
Gd40 O64 2.435 . S
Gd40 O65 2.717 . S
Gd40 O67 2.395 . S
Gd40 O71 2.327 1_455 S
Gd41 C52 2.818 . S
Gd41 O61 2.395 . S
Gd41 O65 2.327 1_655 S
Gd41 O66 2.377 1_655 S
Gd41 O68 2.448 . S
Gd41 O69 2.506 1_655 S
Gd41 O70 2.435 . S
Gd41 O71 2.717 . S
C42 O60 1.240 . S
C42 O61 1.240 . S
C43 Gd40 2.818 . S
C43 C44 1.510 . S
C43 O62 1.249 . S
C43 O63 1.252 1_455 S
C44 C43 1.510 . S
C44 C45 1.404 . S
C44 C46 1.352 1_455 S
C45 C44 1.404 . S
C45 C49 1.389 . S
C45 H72 0.930 . S
C46 C44 1.352 1_655 S
C46 C48 1.374 . S
C46 H73 0.931 . S
C47 C48 1.359 . S
C47 C49 1.364 1_655 S
C48 C46 1.374 . S
C48 C47 1.359 . S
C48 H74 0.931 . S
C49 C45 1.389 . S
C49 C47 1.364 1_455 S
C49 H75 0.931 . S
C50 O64 1.256 . S
C50 O65 1.257 . S
C51 O66 1.240 . S
C51 O67 1.240 . S
C52 Gd41 2.818 . S
C52 C53 1.507 . S
C52 O68 1.249 . S
C52 O69 1.252 1_655 S
C53 C52 1.507 . S
C53 C54 1.450 . S
C53 C55 1.315 1_655 S
C54 C53 1.450 . S
C54 C58 1.389 . S
C54 H76 0.930 . S
C55 C53 1.315 1_455 S
C55 C57 1.374 . S
C55 H77 0.931 . S
C56 C57 1.359 . S
C56 C58 1.364 1_455 S
C57 C55 1.374 . S
C57 C56 1.359 . S
C57 H78 0.931 . S
C58 C54 1.389 . S
C58 C56 1.364 1_655 S
C58 H79 0.931 . S
C59 O70 1.256 . S
C59 O71 1.257 . S
O60 Gd40 2.377 1_655 S
O60 C42 1.240 . S
O61 Gd41 2.395 . S
O61 C42 1.240 . S
O62 Gd40 2.448 . S
O62 C43 1.249 . S
O63 Gd40 2.506 1_655 S
O63 C43 1.252 1_655 S
O64 Gd40 2.435 . S
O64 C50 1.256 . S
O65 Gd40 2.717 . S
O65 Gd41 2.327 1_455 S
O65 C50 1.257 . S
O66 Gd41 2.377 1_455 S
O66 C51 1.240 . S
O67 Gd40 2.395 . S
O67 C51 1.240 . S
O68 Gd41 2.448 . S
O68 C52 1.249 . S
O69 Gd41 2.506 1_455 S
O69 C52 1.252 1_455 S
O70 Gd41 2.435 . S
O70 C59 1.256 . S
O71 Gd40 2.327 1_655 S
O71 Gd41 2.717 . S
O71 C59 1.257 . S
H72 C45 0.930 . S
H73 C46 0.931 . S
H74 C48 0.931 . S
H75 C49 0.931 . S
H76 C54 0.930 . S
H77 C55 0.931 . S
H78 C57 0.931 . S
H79 C58 0.931 . S
Gd80 C83 2.818 . S
Gd80 O100 2.377 . S
Gd80 O102 2.448 . S
Gd80 O103 2.506 . S
Gd80 O104 2.435 . S
Gd80 O105 2.717 . S
Gd80 O107 2.395 . S
Gd80 O111 2.327 . S
Gd81 C92 2.818 . S
Gd81 O101 2.395 . S
Gd81 O105 2.327 . S
Gd81 O106 2.377 . S
Gd81 O108 2.448 . S
Gd81 O109 2.506 . S
Gd81 O110 2.435 . S
Gd81 O111 2.717 . S
C82 O100 1.240 . S
C82 O101 1.240 . S
C83 Gd80 2.818 . S
C83 C84 1.510 . S
C83 O102 1.249 . S
C83 O103 1.252 . S
C84 C83 1.510 . S
C84 C85 1.404 . S
C84 C86 1.352 . S
C85 C84 1.404 . S
C85 C89 1.389 . S
C85 H112 0.930 . S
C86 C84 1.352 . S
C86 C88 1.374 . S
C86 H113 0.931 . S
C87 C88 1.359 . S
C87 C89 1.364 . S
C88 C86 1.374 . S
C88 C87 1.359 . S
C88 H114 0.931 . S
C89 C85 1.389 . S
C89 C87 1.364 . S
C89 H115 0.931 . S
C90 O104 1.256 . S
C90 O105 1.257 . S
C91 O106 1.240 . S
C91 O107 1.240 . S
C92 Gd81 2.818 . S
C92 C93 1.510 . S
C92 O108 1.249 . S
C92 O109 1.252 . S
C93 C92 1.510 . S
C93 C94 1.404 . S
C93 C95 1.352 . S
C94 C93 1.404 . S
C94 C98 1.389 . S
C94 H116 0.930 . S
C95 C93 1.352 . S
C95 C97 1.374 . S
C95 H117 0.931 . S
C96 C97 1.359 . S
C96 C98 1.364 . S
C97 C95 1.374 . S
C97 C96 1.359 . S
C97 H118 0.931 . S
C98 C94 1.389 . S
C98 C96 1.364 . S
C98 H119 0.931 . S
C99 O110 1.256 . S
C99 O111 1.257 . S
O100 Gd80 2.377 . S
O100 C82 1.240 . S
O101 Gd81 2.395 . S
O101 C82 1.240 . S
O102 Gd80 2.448 . S
O102 C83 1.249 . S
O103 Gd80 2.506 . S
O103 C83 1.252 . S
O104 Gd80 2.435 . S
O104 C90 1.256 . S
O105 Gd80 2.717 . S
O105 Gd81 2.327 . S
O105 C90 1.257 . S
O106 Gd81 2.377 . S
O106 C91 1.240 . S
O107 Gd80 2.395 . S
O107 C91 1.240 . S
O108 Gd81 2.448 . S
O108 C92 1.249 . S
O109 Gd81 2.506 . S
O109 C92 1.252 . S
O110 Gd81 2.435 . S
O110 C99 1.256 . S
O111 Gd80 2.327 . S
O111 Gd81 2.717 . S
O111 C99 1.257 . S
H112 C85 0.930 . S
H113 C86 0.931 . S
H114 C88 0.931 . S
H115 C89 0.931 . S
H116 C94 0.930 . S
H117 C95 0.931 . S
H118 C97 0.931 . S
H119 C98 0.931 . S
Gd120 C123 2.818 . S
Gd120 O140 2.377 1_565 S
Gd120 O142 2.448 . S
Gd120 O143 2.506 1_565 S
Gd120 O144 2.435 . S
Gd120 O145 2.717 . S
Gd120 O147 2.395 . S
Gd120 O151 2.327 1_565 S
Gd121 C132 2.818 . S
Gd121 O141 2.395 . S
Gd121 O145 2.327 1_545 S
Gd121 O146 2.377 1_545 S
Gd121 O148 2.448 . S
Gd121 O149 2.506 1_545 S
Gd121 O150 2.435 . S
Gd121 O151 2.717 . S
C122 O140 1.240 . S
C122 O141 1.240 . S
C123 Gd120 2.818 . S
C123 C124 1.515 1_565 S
C123 O142 1.249 . S
C123 O143 1.252 1_565 S
C124 C123 1.515 1_545 S
C124 C125 1.366 1_545 S
C124 C126 1.385 . S
C125 C124 1.366 1_565 S
C125 C129 1.389 . S
C125 H152 0.930 . S
C126 C124 1.385 . S
C126 C128 1.374 . S
C126 H153 0.931 . S
C127 C128 1.359 . S
C127 C129 1.364 1_545 S
C128 C126 1.374 . S
C128 C127 1.359 . S
C128 H154 0.931 . S
C129 C125 1.389 . S
C129 C127 1.364 1_565 S
C129 H155 0.931 . S
C130 O144 1.256 . S
C130 O145 1.257 . S
C131 O146 1.240 . S
C131 O147 1.240 . S
C132 Gd121 2.818 . S
C132 C133 1.512 1_545 S
C132 O148 1.249 . S
C132 O149 1.252 1_545 S
C133 C132 1.512 1_565 S
C133 C134 1.384 1_565 S
C133 C135 1.369 . S
C134 C133 1.384 1_545 S
C134 C138 1.389 . S
C134 H156 0.930 . S
C135 C133 1.369 . S
C135 C137 1.374 . S
C135 H157 0.931 . S
C136 C137 1.359 . S
C136 C138 1.364 1_565 S
C137 C135 1.374 . S
C137 C136 1.359 . S
C137 H158 0.931 . S
C138 C134 1.389 . S
C138 C136 1.364 1_545 S
C138 H159 0.931 . S
C139 O150 1.256 . S
C139 O151 1.257 . S
O140 Gd120 2.377 1_545 S
O140 C122 1.240 . S
O141 Gd121 2.395 . S
O141 C122 1.240 . S
O142 Gd120 2.448 . S
O142 C123 1.249 . S
O143 Gd120 2.506 1_545 S
O143 C123 1.252 1_545 S
O144 Gd120 2.435 . S
O144 C130 1.256 . S
O145 Gd120 2.717 . S
O145 Gd121 2.327 1_565 S
O145 C130 1.257 . S
O146 Gd121 2.377 1_565 S
O146 C131 1.240 . S
O147 Gd120 2.395 . S
O147 C131 1.240 . S
O148 Gd121 2.448 . S
O148 C132 1.249 . S
O149 Gd121 2.506 1_565 S
O149 C132 1.252 1_565 S
O150 Gd121 2.435 . S
O150 C139 1.256 . S
O151 Gd120 2.327 1_545 S
O151 Gd121 2.717 . S
O151 C139 1.257 . S
H152 C125 0.930 . S
H153 C126 0.931 . S
H154 C128 0.931 . S
H155 C129 0.931 . S
H156 C134 0.930 . S
H157 C135 0.931 . S
H158 C137 0.931 . S
H159 C138 0.931 . S
Gd160 C163 2.818 . S
Gd160 O180 2.377 . S
Gd160 O182 2.448 . S
Gd160 O183 2.506 . S
Gd160 O184 2.435 . S
Gd160 O185 2.717 . S
Gd160 O187 2.395 . S
Gd160 O191 2.327 . S
Gd161 C172 2.818 . S
Gd161 O181 2.395 . S
Gd161 O185 2.327 . S
Gd161 O186 2.377 . S
Gd161 O188 2.448 . S
Gd161 O189 2.506 . S
Gd161 O190 2.435 . S
Gd161 O191 2.717 . S
C162 O180 1.240 . S
C162 O181 1.240 . S
C163 Gd160 2.818 . S
C163 C164 1.510 . S
C163 O182 1.249 . S
C163 O183 1.252 . S
C164 C163 1.510 . S
C164 C165 1.404 . S
C164 C166 1.352 . S
C165 C164 1.404 . S
C165 C169 1.389 . S
C165 H192 0.930 . S
C166 C164 1.352 . S
C166 C168 1.374 . S
C166 H193 0.931 . S
C167 C168 1.359 . S
C167 C169 1.364 . S
C168 C166 1.374 . S
C168 C167 1.359 . S
C168 H194 0.931 . S
C169 C165 1.389 . S
C169 C167 1.364 . S
C169 H195 0.931 . S
C170 O184 1.256 . S
C170 O185 1.257 . S
C171 O186 1.240 . S
C171 O187 1.240 . S
C172 Gd161 2.818 . S
C172 C173 1.510 . S
C172 O188 1.249 . S
C172 O189 1.252 . S
C173 C172 1.510 . S
C173 C174 1.404 . S
C173 C175 1.352 . S
C174 C173 1.404 . S
C174 C178 1.389 . S
C174 H196 0.930 . S
C175 C173 1.352 . S
C175 C177 1.374 . S
C175 H197 0.931 . S
C176 C177 1.359 . S
C176 C178 1.364 . S
C177 C175 1.374 . S
C177 C176 1.359 . S
C177 H198 0.931 . S
C178 C174 1.389 . S
C178 C176 1.364 . S
C178 H199 0.931 . S
C179 O190 1.256 . S
C179 O191 1.257 . S
O180 Gd160 2.377 . S
O180 C162 1.240 . S
O181 Gd161 2.395 . S
O181 C162 1.240 . S
O182 Gd160 2.448 . S
O182 C163 1.249 . S
O183 Gd160 2.506 . S
O183 C163 1.252 . S
O184 Gd160 2.435 . S
O184 C170 1.256 . S
O185 Gd160 2.717 . S
O185 Gd161 2.327 . S
O185 C170 1.257 . S
O186 Gd161 2.377 . S
O186 C171 1.240 . S
O187 Gd160 2.395 . S
O187 C171 1.240 . S
O188 Gd161 2.448 . S
O188 C172 1.249 . S
O189 Gd161 2.506 . S
O189 C172 1.252 . S
O190 Gd161 2.435 . S
O190 C179 1.256 . S
O191 Gd160 2.327 . S
O191 Gd161 2.717 . S
O191 C179 1.257 . S
H192 C165 0.930 . S
H193 C166 0.931 . S
H194 C168 0.931 . S
H195 C169 0.931 . S
H196 C174 0.930 . S
H197 C175 0.931 . S
H198 C177 0.931 . S
H199 C178 0.931 . S
Gd200 C203 2.818 . S
Gd200 O220 2.377 . S
Gd200 O222 2.448 . S
Gd200 O223 2.506 . S
Gd200 O224 2.435 . S
Gd200 O225 2.717 . S
Gd200 O227 2.395 . S
Gd200 O231 2.327 . S
Gd201 C212 2.818 . S
Gd201 O221 2.395 . S
Gd201 O225 2.327 . S
Gd201 O226 2.377 . S
Gd201 O228 2.448 . S
Gd201 O229 2.506 . S
Gd201 O230 2.435 . S
Gd201 O231 2.717 . S
C202 O220 1.240 . S
C202 O221 1.240 . S
C203 Gd200 2.818 . S
C203 C204 1.510 . S
C203 O222 1.249 . S
C203 O223 1.252 . S
C204 C203 1.510 . S
C204 C205 1.404 . S
C204 C206 1.352 . S
C205 C204 1.404 . S
C205 C209 1.389 . S
C205 H232 0.930 . S
C206 C204 1.352 . S
C206 C208 1.374 . S
C206 H233 0.931 . S
C207 C208 1.359 . S
C207 C209 1.364 . S
C208 C206 1.374 . S
C208 C207 1.359 . S
C208 H234 0.931 . S
C209 C205 1.389 . S
C209 C207 1.364 . S
C209 H235 0.931 . S
C210 O224 1.256 . S
C210 O225 1.257 . S
C211 O226 1.240 . S
C211 O227 1.240 . S
C212 Gd201 2.818 . S
C212 C213 1.510 . S
C212 O228 1.249 . S
C212 O229 1.252 . S
C213 C212 1.510 . S
C213 C214 1.404 . S
C213 C215 1.352 . S
C214 C213 1.404 . S
C214 C218 1.389 . S
C214 H236 0.930 . S
C215 C213 1.352 . S
C215 C217 1.374 . S
C215 H237 0.931 . S
C216 C217 1.359 . S
C216 C218 1.364 . S
C217 C215 1.374 . S
C217 C216 1.359 . S
C217 H238 0.931 . S
C218 C214 1.389 . S
C218 C216 1.364 . S
C218 H239 0.931 . S
C219 O230 1.256 . S
C219 O231 1.257 . S
O220 Gd200 2.377 . S
O220 C202 1.240 . S
O221 Gd201 2.395 . S
O221 C202 1.240 . S
O222 Gd200 2.448 . S
O222 C203 1.249 . S
O223 Gd200 2.506 . S
O223 C203 1.252 . S
O224 Gd200 2.435 . S
O224 C210 1.256 . S
O225 Gd200 2.717 . S
O225 Gd201 2.327 . S
O225 C210 1.257 . S
O226 Gd201 2.377 . S
O226 C211 1.240 . S
O227 Gd200 2.395 . S
O227 C211 1.240 . S
O228 Gd201 2.448 . S
O228 C212 1.249 . S
O229 Gd201 2.506 . S
O229 C212 1.252 . S
O230 Gd201 2.435 . S
O230 C219 1.256 . S
O231 Gd200 2.327 . S
O231 Gd201 2.717 . S
O231 C219 1.257 . S
H232 C205 0.930 . S
H233 C206 0.931 . S
H234 C208 0.931 . S
H235 C209 0.931 . S
H236 C214 0.930 . S
H237 C215 0.931 . S
H238 C217 0.931 . S
H239 C218 0.931 . S
Gd240 C243 2.818 . S
Gd240 O260 2.377 . S
Gd240 O262 2.448 . S
Gd240 O263 2.506 . S
Gd240 O264 2.435 . S
Gd240 O265 2.717 . S
Gd240 O267 2.395 . S
Gd240 O271 2.327 . S
Gd241 C252 2.818 . S
Gd241 O261 2.395 . S
Gd241 O265 2.327 . S
Gd241 O266 2.377 . S
Gd241 O268 2.448 . S
Gd241 O269 2.506 . S
Gd241 O270 2.435 . S
Gd241 O271 2.717 . S
C242 O260 1.240 . S
C242 O261 1.240 . S
C243 Gd240 2.818 . S
C243 C244 1.510 . S
C243 O262 1.249 . S
C243 O263 1.252 . S
C244 C243 1.510 . S
C244 C245 1.404 . S
C244 C246 1.352 . S
C245 C244 1.404 . S
C245 C249 1.389 . S
C245 H272 0.930 . S
C246 C244 1.352 . S
C246 C248 1.374 . S
C246 H273 0.931 . S
C247 C248 1.359 . S
C247 C249 1.364 . S
C248 C246 1.374 . S
C248 C247 1.359 . S
C248 H274 0.931 . S
C249 C245 1.389 . S
C249 C247 1.364 . S
C249 H275 0.931 . S
C250 O264 1.256 . S
C250 O265 1.257 . S
C251 O266 1.240 . S
C251 O267 1.240 . S
C252 Gd241 2.818 . S
C252 C253 1.510 . S
C252 O268 1.249 . S
C252 O269 1.252 . S
C253 C252 1.510 . S
C253 C254 1.404 . S
C253 C255 1.352 . S
C254 C253 1.404 . S
C254 C258 1.389 . S
C254 H276 0.930 . S
C255 C253 1.352 . S
C255 C257 1.374 . S
C255 H277 0.931 . S
C256 C257 1.359 . S
C256 C258 1.364 . S
C257 C255 1.374 . S
C257 C256 1.359 . S
C257 H278 0.931 . S
C258 C254 1.389 . S
C258 C256 1.364 . S
C258 H279 0.931 . S
C259 O270 1.256 . S
C259 O271 1.257 . S
O260 Gd240 2.377 . S
O260 C242 1.240 . S
O261 Gd241 2.395 . S
O261 C242 1.240 . S
O262 Gd240 2.448 . S
O262 C243 1.249 . S
O263 Gd240 2.506 . S
O263 C243 1.252 . S
O264 Gd240 2.435 . S
O264 C250 1.256 . S
O265 Gd240 2.717 . S
O265 Gd241 2.327 . S
O265 C250 1.257 . S
O266 Gd241 2.377 . S
O266 C251 1.240 . S
O267 Gd240 2.395 . S
O267 C251 1.240 . S
O268 Gd241 2.448 . S
O268 C252 1.249 . S
O269 Gd241 2.506 . S
O269 C252 1.252 . S
O270 Gd241 2.435 . S
O270 C259 1.256 . S
O271 Gd240 2.327 . S
O271 Gd241 2.717 . S
O271 C259 1.257 . S
H272 C245 0.930 . S
H273 C246 0.931 . S
H274 C248 0.931 . S
H275 C249 0.931 . S
H276 C254 0.930 . S
H277 C255 0.931 . S
H278 C257 0.931 . S
H279 C258 0.931 . S
Gd280 C283 2.818 . S
Gd280 O300 2.377 1_655 S
Gd280 O302 2.448 . S
Gd280 O303 2.506 . S
Gd280 O304 2.435 1_655 S
Gd280 O305 2.717 1_655 S
Gd280 O307 2.395 . S
Gd280 O311 2.327 . S
Gd281 C292 2.818 . S
Gd281 O301 2.395 . S
Gd281 O305 2.327 . S
Gd281 O306 2.377 1_455 S
Gd281 O308 2.448 . S
Gd281 O309 2.506 . S
Gd281 O310 2.435 1_455 S
Gd281 O311 2.717 1_455 S
C282 O300 1.240 . S
C282 O301 1.240 . S
C283 Gd280 2.818 . S
C283 C284 1.510 . S
C283 O302 1.249 . S
C283 O303 1.252 . S
C284 C283 1.510 . S
C284 C285 1.404 . S
C284 C286 1.352 . S
C285 C284 1.404 . S
C285 C289 1.389 . S
C285 H312 0.930 . S
C286 C284 1.352 . S
C286 C288 1.374 . S
C286 H313 0.931 . S
C287 C288 1.359 . S
C287 C289 1.364 . S
C288 C286 1.374 . S
C288 C287 1.359 . S
C288 H314 0.931 . S
C289 C285 1.389 . S
C289 C287 1.364 . S
C289 H315 0.931 . S
C290 O304 1.256 . S
C290 O305 1.257 . S
C291 O306 1.240 . S
C291 O307 1.240 . S
C292 Gd281 2.818 . S
C292 C293 1.510 . S
C292 O308 1.249 . S
C292 O309 1.252 . S
C293 C292 1.510 . S
C293 C294 1.404 . S
C293 C295 1.352 . S
C294 C293 1.404 . S
C294 C298 1.389 . S
C294 H316 0.930 . S
C295 C293 1.352 . S
C295 C297 1.374 . S
C295 H317 0.931 . S
C296 C297 1.359 . S
C296 C298 1.364 . S
C297 C295 1.374 . S
C297 C296 1.359 . S
C297 H318 0.931 . S
C298 C294 1.389 . S
C298 C296 1.364 . S
C298 H319 0.931 . S
C299 O310 1.256 . S
C299 O311 1.257 . S
O300 Gd280 2.377 1_455 S
O300 C282 1.240 . S
O301 Gd281 2.395 . S
O301 C282 1.240 . S
O302 Gd280 2.448 . S
O302 C283 1.249 . S
O303 Gd280 2.506 . S
O303 C283 1.252 . S
O304 Gd280 2.435 1_455 S
O304 C290 1.256 . S
O305 Gd280 2.717 1_455 S
O305 Gd281 2.327 . S
O305 C290 1.257 . S
O306 Gd281 2.377 1_655 S
O306 C291 1.240 . S
O307 Gd280 2.395 . S
O307 C291 1.240 . S
O308 Gd281 2.448 . S
O308 C292 1.249 . S
O309 Gd281 2.506 . S
O309 C292 1.252 . S
O310 Gd281 2.435 1_655 S
O310 C299 1.256 . S
O311 Gd280 2.327 . S
O311 Gd281 2.717 1_655 S
O311 C299 1.257 . S
H312 C285 0.930 . S
H313 C286 0.931 . S
H314 C288 0.931 . S
H315 C289 0.931 . S
H316 C294 0.930 . S
H317 C295 0.931 . S
H318 C297 0.931 . S
H319 C298 0.931 . S
Gd320 C323 2.818 . S
Gd320 O340 2.377 1_556 S
Gd320 O342 2.448 . S
Gd320 O343 2.513 . S
Gd320 O344 2.435 . S
Gd320 O345 2.717 . S
Gd320 O347 2.395 . S
Gd320 O351 2.327 1_556 S
Gd321 C332 2.818 . S
Gd321 O341 2.395 . S
Gd321 O345 2.327 1_554 S
Gd321 O346 2.377 1_554 S
Gd321 O348 2.448 . S
Gd321 O349 2.519 . S
Gd321 O350 2.435 . S
Gd321 O351 2.717 . S
C322 O340 1.240 . S
C322 O341 1.240 . S
C323 Gd320 2.818 . S
C323 C324 1.510 . S
C323 O342 1.249 . S
C323 O343 1.272 . S
C324 C323 1.510 . S
C324 C325 1.404 . S
C324 C326 1.352 1_556 S
C325 C324 1.404 . S
C325 C329 1.389 . S
C325 H352 0.930 . S
C326 C324 1.352 1_554 S
C326 C328 1.374 . S
C326 H353 0.931 . S
C327 C328 1.359 1_556 S
C327 C329 1.364 . S
C328 C326 1.374 . S
C328 C327 1.359 1_554 S
C328 H354 0.931 . S
C329 C325 1.389 . S
C329 C327 1.364 . S
C329 H355 0.931 . S
C330 O344 1.256 . S
C330 O345 1.257 . S
C331 O346 1.240 . S
C331 O347 1.240 . S
C332 Gd321 2.818 . S
C332 C333 1.510 . S
C332 O348 1.249 . S
C332 O349 1.289 . S
C333 C332 1.510 . S
C333 C334 1.404 . S
C333 C335 1.352 1_554 S
C334 C333 1.404 . S
C334 C338 1.389 . S
C334 H356 0.930 . S
C335 C333 1.352 1_556 S
C335 C337 1.374 . S
C335 H357 0.931 . S
C336 C337 1.359 1_554 S
C336 C338 1.364 . S
C337 C335 1.374 . S
C337 C336 1.359 1_556 S
C337 H358 0.931 . S
C338 C334 1.389 . S
C338 C336 1.364 . S
C338 H359 0.931 . S
C339 O350 1.256 . S
C339 O351 1.257 . S
O340 Gd320 2.377 1_554 S
O340 C322 1.240 . S
O341 Gd321 2.395 . S
O341 C322 1.240 . S
O342 Gd320 2.448 . S
O342 C323 1.249 . S
O343 Gd320 2.513 . S
O343 C323 1.272 . S
O344 Gd320 2.435 . S
O344 C330 1.256 . S
O345 Gd320 2.717 . S
O345 Gd321 2.327 1_556 S
O345 C330 1.257 . S
O346 Gd321 2.377 1_556 S
O346 C331 1.240 . S
O347 Gd320 2.395 . S
O347 C331 1.240 . S
O348 Gd321 2.448 . S
O348 C332 1.249 . S
O349 Gd321 2.519 . S
O349 C332 1.289 . S
O350 Gd321 2.435 . S
O350 C339 1.256 . S
O351 Gd320 2.327 1_554 S
O351 Gd321 2.717 . S
O351 C339 1.257 . S
H352 C325 0.930 . S
H353 C326 0.931 . S
H354 C328 0.931 . S
H355 C329 0.931 . S
H356 C334 0.930 . S
H357 C335 0.931 . S
H358 C337 0.931 . S
H359 C338 0.931 . S
Gd360 C363 2.818 . S
Gd360 O380 2.377 1_565 S
Gd360 O382 2.448 . S
Gd360 O383 2.506 1_565 S
Gd360 O384 2.435 . S
Gd360 O385 2.717 . S
Gd360 O387 2.395 . S
Gd360 O391 2.327 1_565 S
Gd361 C372 2.818 . S
Gd361 O381 2.395 . S
Gd361 O385 2.327 1_545 S
Gd361 O386 2.377 1_545 S
Gd361 O388 2.448 . S
Gd361 O389 2.506 1_545 S
Gd361 O390 2.435 . S
Gd361 O391 2.717 . S
C362 O380 1.240 . S
C362 O381 1.240 . S
C363 Gd360 2.818 . S
C363 C364 1.515 1_565 S
C363 O382 1.249 . S
C363 O383 1.252 1_565 S
C364 C363 1.515 1_545 S
C364 C365 1.366 1_545 S
C364 C366 1.385 . S
C365 C364 1.366 1_565 S
C365 C369 1.389 . S
C365 H392 0.930 . S
C366 C364 1.385 . S
C366 C368 1.374 . S
C366 H393 0.931 . S
C367 C368 1.359 . S
C367 C369 1.364 1_545 S
C368 C366 1.374 . S
C368 C367 1.359 . S
C368 H394 0.931 . S
C369 C365 1.389 . S
C369 C367 1.364 1_565 S
C369 H395 0.931 . S
C370 O384 1.256 . S
C370 O385 1.257 . S
C371 O386 1.240 . S
C371 O387 1.240 . S
C372 Gd361 2.818 . S
C372 C373 1.513 1_545 S
C372 O388 1.249 . S
C372 O389 1.252 1_545 S
C373 C372 1.513 1_565 S
C373 C374 1.384 1_565 S
C373 C375 1.369 . S
C374 C373 1.384 1_545 S
C374 C378 1.389 . S
C374 H396 0.930 . S
C375 C373 1.369 . S
C375 C377 1.374 . S
C375 H397 0.931 . S
C376 C377 1.359 . S
C376 C378 1.364 1_565 S
C377 C375 1.374 . S
C377 C376 1.359 . S
C377 H398 0.931 . S
C378 C374 1.389 . S
C378 C376 1.364 1_545 S
C378 H399 0.931 . S
C379 O390 1.256 . S
C379 O391 1.257 . S
O380 Gd360 2.377 1_545 S
O380 C362 1.240 . S
O381 Gd361 2.395 . S
O381 C362 1.240 . S
O382 Gd360 2.448 . S
O382 C363 1.249 . S
O383 Gd360 2.506 1_545 S
O383 C363 1.252 1_545 S
O384 Gd360 2.435 . S
O384 C370 1.256 . S
O385 Gd360 2.717 . S
O385 Gd361 2.327 1_565 S
O385 C370 1.257 . S
O386 Gd361 2.377 1_565 S
O386 C371 1.240 . S
O387 Gd360 2.395 . S
O387 C371 1.240 . S
O388 Gd361 2.448 . S
O388 C372 1.249 . S
O389 Gd361 2.506 1_565 S
O389 C372 1.252 1_565 S
O390 Gd361 2.435 . S
O390 C379 1.256 . S
O391 Gd360 2.327 1_545 S
O391 Gd361 2.717 . S
O391 C379 1.257 . S
H392 C365 0.930 . S
H393 C366 0.931 . S
H394 C368 0.931 . S
H395 C369 0.931 . S
H396 C374 0.930 . S
H397 C375 0.931 . S
H398 C377 0.931 . S
H399 C378 0.931 . S
Gd400 C403 2.818 . S
Gd400 O420 2.377 . S
Gd400 O422 2.448 . S
Gd400 O423 2.506 . S
Gd400 O424 2.435 . S
Gd400 O425 2.717 . S
Gd400 O427 2.395 . S
Gd400 O431 2.327 . S
Gd401 C412 2.818 . S
Gd401 O421 2.395 . S
Gd401 O425 2.327 . S
Gd401 O426 2.377 . S
Gd401 O428 2.448 . S
Gd401 O429 2.506 . S
Gd401 O430 2.435 . S
Gd401 O431 2.717 . S
C402 O420 1.240 . S
C402 O421 1.240 . S
C403 Gd400 2.818 . S
C403 C404 1.510 . S
C403 O422 1.249 . S
C403 O423 1.252 . S
C404 C403 1.510 . S
C404 C405 1.404 . S
C404 C406 1.352 . S
C405 C404 1.404 . S
C405 C409 1.389 . S
C405 H432 0.930 . S
C406 C404 1.352 . S
C406 C408 1.374 . S
C406 H433 0.931 . S
C407 C408 1.359 . S
C407 C409 1.364 . S
C408 C406 1.374 . S
C408 C407 1.359 . S
C408 H434 0.931 . S
C409 C405 1.389 . S
C409 C407 1.364 . S
C409 H435 0.931 . S
C410 O424 1.256 . S
C410 O425 1.257 . S
C411 O426 1.240 . S
C411 O427 1.240 . S
C412 Gd401 2.818 . S
C412 C413 1.510 . S
C412 O428 1.249 . S
C412 O429 1.252 . S
C413 C412 1.510 . S
C413 C414 1.404 . S
C413 C415 1.352 . S
C414 C413 1.404 . S
C414 C418 1.389 . S
C414 H436 0.930 . S
C415 C413 1.352 . S
C415 C417 1.374 . S
C415 H437 0.931 . S
C416 C417 1.359 . S
C416 C418 1.364 . S
C417 C415 1.374 . S
C417 C416 1.359 . S
C417 H438 0.931 . S
C418 C414 1.389 . S
C418 C416 1.364 . S
C418 H439 0.931 . S
C419 O430 1.256 . S
C419 O431 1.257 . S
O420 Gd400 2.377 . S
O420 C402 1.240 . S
O421 Gd401 2.395 . S
O421 C402 1.240 . S
O422 Gd400 2.448 . S
O422 C403 1.249 . S
O423 Gd400 2.506 . S
O423 C403 1.252 . S
O424 Gd400 2.435 . S
O424 C410 1.256 . S
O425 Gd400 2.717 . S
O425 Gd401 2.327 . S
O425 C410 1.257 . S
O426 Gd401 2.377 . S
O426 C411 1.240 . S
O427 Gd400 2.395 . S
O427 C411 1.240 . S
O428 Gd401 2.448 . S
O428 C412 1.249 . S
O429 Gd401 2.506 . S
O429 C412 1.252 . S
O430 Gd401 2.435 . S
O430 C419 1.256 . S
O431 Gd400 2.327 . S
O431 Gd401 2.717 . S
O431 C419 1.257 . S
H432 C405 0.930 . S
H433 C406 0.931 . S
H434 C408 0.931 . S
H435 C409 0.931 . S
H436 C414 0.930 . S
H437 C415 0.931 . S
H438 C417 0.931 . S
H439 C418 0.931 . S
Gd440 C443 2.818 . S
Gd440 O460 2.377 1_455 S
Gd440 O462 2.448 . S
Gd440 O463 2.506 1_455 S
Gd440 O464 2.435 . S
Gd440 O465 2.717 . S
Gd440 O467 2.395 . S
Gd440 O471 2.327 1_455 S
Gd441 C452 2.818 . S
Gd441 O461 2.395 . S
Gd441 O465 2.327 1_655 S
Gd441 O466 2.377 1_655 S
Gd441 O468 2.448 . S
Gd441 O469 2.506 1_655 S
Gd441 O470 2.435 . S
Gd441 O471 2.717 . S
C442 O460 1.240 . S
C442 O461 1.240 . S
C443 Gd440 2.818 . S
C443 C444 1.510 . S
C443 O462 1.249 . S
C443 O463 1.252 1_455 S
C444 C443 1.510 . S
C444 C445 1.404 . S
C444 C446 1.352 1_455 S
C445 C444 1.404 . S
C445 C449 1.389 . S
C445 H472 0.930 . S
C446 C444 1.352 1_655 S
C446 C448 1.374 . S
C446 H473 0.931 . S
C447 C448 1.359 . S
C447 C449 1.364 1_655 S
C448 C446 1.374 . S
C448 C447 1.359 . S
C448 H474 0.931 . S
C449 C445 1.389 . S
C449 C447 1.364 1_455 S
C449 H475 0.931 . S
C450 O464 1.256 . S
C450 O465 1.257 . S
C451 O466 1.240 . S
C451 O467 1.240 . S
C452 Gd441 2.818 . S
C452 C453 1.507 . S
C452 O468 1.249 . S
C452 O469 1.252 1_655 S
C453 C452 1.507 . S
C453 C454 1.450 . S
C453 C455 1.315 1_655 S
C454 C453 1.450 . S
C454 C458 1.389 . S
C454 H476 0.930 . S
C455 C453 1.315 1_455 S
C455 C457 1.374 . S
C455 H477 0.931 . S
C456 C457 1.359 . S
C456 C458 1.364 1_455 S
C457 C455 1.374 . S
C457 C456 1.359 . S
C457 H478 0.931 . S
C458 C454 1.389 . S
C458 C456 1.364 1_655 S
C458 H479 0.931 . S
C459 O470 1.256 . S
C459 O471 1.257 . S
O460 Gd440 2.377 1_655 S
O460 C442 1.240 . S
O461 Gd441 2.395 . S
O461 C442 1.240 . S
O462 Gd440 2.448 . S
O462 C443 1.249 . S
O463 Gd440 2.506 1_655 S
O463 C443 1.252 1_655 S
O464 Gd440 2.435 . S
O464 C450 1.256 . S
O465 Gd440 2.717 . S
O465 Gd441 2.327 1_455 S
O465 C450 1.257 . S
O466 Gd441 2.377 1_455 S
O466 C451 1.240 . S
O467 Gd440 2.395 . S
O467 C451 1.240 . S
O468 Gd441 2.448 . S
O468 C452 1.249 . S
O469 Gd441 2.506 1_455 S
O469 C452 1.252 1_455 S
O470 Gd441 2.435 . S
O470 C459 1.256 . S
O471 Gd440 2.327 1_655 S
O471 Gd441 2.717 . S
O471 C459 1.257 . S
H472 C445 0.930 . S
H473 C446 0.931 . S
H474 C448 0.931 . S
H475 C449 0.931 . S
H476 C454 0.930 . S
H477 C455 0.931 . S
H478 C457 0.931 . S
H479 C458 0.931 . S
Gd480 C483 2.818 . S
Gd480 O500 2.377 . S
Gd480 O502 2.448 . S
Gd480 O503 2.506 . S
Gd480 O504 2.435 . S
Gd480 O505 2.717 . S
Gd480 O507 2.395 . S
Gd480 O511 2.327 . S
Gd481 C492 2.818 . S
Gd481 O501 2.395 . S
Gd481 O505 2.327 . S
Gd481 O506 2.377 . S
Gd481 O508 2.448 . S
Gd481 O509 2.506 . S
Gd481 O510 2.435 . S
Gd481 O511 2.717 . S
C482 O500 1.240 . S
C482 O501 1.240 . S
C483 Gd480 2.818 . S
C483 C484 1.510 . S
C483 O502 1.249 . S
C483 O503 1.252 . S
C484 C483 1.510 . S
C484 C485 1.404 . S
C484 C486 1.352 . S
C485 C484 1.404 . S
C485 C489 1.389 . S
C485 H512 0.930 . S
C486 C484 1.352 . S
C486 C488 1.374 . S
C486 H513 0.931 . S
C487 C488 1.359 . S
C487 C489 1.364 . S
C488 C486 1.374 . S
C488 C487 1.359 . S
C488 H514 0.931 . S
C489 C485 1.389 . S
C489 C487 1.364 . S
C489 H515 0.931 . S
C490 O504 1.256 . S
C490 O505 1.257 . S
C491 O506 1.240 . S
C491 O507 1.240 . S
C492 Gd481 2.818 . S
C492 C493 1.510 . S
C492 O508 1.249 . S
C492 O509 1.252 . S
C493 C492 1.510 . S
C493 C494 1.404 . S
C493 C495 1.352 . S
C494 C493 1.404 . S
C494 C498 1.389 . S
C494 H516 0.930 . S
C495 C493 1.352 . S
C495 C497 1.374 . S
C495 H517 0.931 . S
C496 C497 1.359 . S
C496 C498 1.364 . S
C497 C495 1.374 . S
C497 C496 1.359 . S
C497 H518 0.931 . S
C498 C494 1.389 . S
C498 C496 1.364 . S
C498 H519 0.931 . S
C499 O510 1.256 . S
C499 O511 1.257 . S
O500 Gd480 2.377 . S
O500 C482 1.240 . S
O501 Gd481 2.395 . S
O501 C482 1.240 . S
O502 Gd480 2.448 . S
O502 C483 1.249 . S
O503 Gd480 2.506 . S
O503 C483 1.252 . S
O504 Gd480 2.435 . S
O504 C490 1.256 . S
O505 Gd480 2.717 . S
O505 Gd481 2.327 . S
O505 C490 1.257 . S
O506 Gd481 2.377 . S
O506 C491 1.240 . S
O507 Gd480 2.395 . S
O507 C491 1.240 . S
O508 Gd481 2.448 . S
O508 C492 1.249 . S
O509 Gd481 2.506 . S
O509 C492 1.252 . S
O510 Gd481 2.435 . S
O510 C499 1.256 . S
O511 Gd480 2.327 . S
O511 Gd481 2.717 . S
O511 C499 1.257 . S
H512 C485 0.930 . S
H513 C486 0.931 . S
H514 C488 0.931 . S
H515 C489 0.931 . S
H516 C494 0.930 . S
H517 C495 0.931 . S
H518 C497 0.931 . S
H519 C498 0.931 . S
Gd520 C523 2.818 . S
Gd520 O540 2.377 1_556 S
Gd520 O542 2.448 . S
Gd520 O543 2.513 . S
Gd520 O544 2.435 . S
Gd520 O545 2.717 . S
Gd520 O547 2.395 . S
Gd520 O551 2.327 1_556 S
Gd521 C532 2.818 . S
Gd521 O541 2.395 . S
Gd521 O545 2.327 1_554 S
Gd521 O546 2.377 1_554 S
Gd521 O548 2.448 . S
Gd521 O549 2.519 . S
Gd521 O550 2.435 . S
Gd521 O551 2.717 . S
C522 O540 1.240 . S
C522 O541 1.240 . S
C523 Gd520 2.818 . S
C523 C524 1.510 . S
C523 O542 1.249 . S
C523 O543 1.272 . S
C524 C523 1.510 . S
C524 C525 1.404 . S
C524 C526 1.352 1_556 S
C525 C524 1.404 . S
C525 C529 1.389 . S
C525 H552 0.930 . S
C526 C524 1.352 1_554 S
C526 C528 1.374 . S
C526 H553 0.931 . S
C527 C528 1.359 1_556 S
C527 C529 1.364 . S
C528 C526 1.374 . S
C528 C527 1.359 1_554 S
C528 H554 0.931 . S
C529 C525 1.389 . S
C529 C527 1.364 . S
C529 H555 0.931 . S
C530 O544 1.256 . S
C530 O545 1.257 . S
C531 O546 1.240 . S
C531 O547 1.240 . S
C532 Gd521 2.818 . S
C532 C533 1.510 . S
C532 O548 1.249 . S
C532 O549 1.289 . S
C533 C532 1.510 . S
C533 C534 1.404 . S
C533 C535 1.352 1_554 S
C534 C533 1.404 . S
C534 C538 1.389 . S
C534 H556 0.930 . S
C535 C533 1.352 1_556 S
C535 C537 1.374 . S
C535 H557 0.931 . S
C536 C537 1.359 1_554 S
C536 C538 1.364 . S
C537 C535 1.374 . S
C537 C536 1.359 1_556 S
C537 H558 0.931 . S
C538 C534 1.389 . S
C538 C536 1.364 . S
C538 H559 0.931 . S
C539 O550 1.256 . S
C539 O551 1.257 . S
O540 Gd520 2.377 1_554 S
O540 C522 1.240 . S
O541 Gd521 2.395 . S
O541 C522 1.240 . S
O542 Gd520 2.448 . S
O542 C523 1.249 . S
O543 Gd520 2.513 . S
O543 C523 1.272 . S
O544 Gd520 2.435 . S
O544 C530 1.256 . S
O545 Gd520 2.717 . S
O545 Gd521 2.327 1_556 S
O545 C530 1.257 . S
O546 Gd521 2.377 1_556 S
O546 C531 1.240 . S
O547 Gd520 2.395 . S
O547 C531 1.240 . S
O548 Gd521 2.448 . S
O548 C532 1.249 . S
O549 Gd521 2.519 . S
O549 C532 1.289 . S
O550 Gd521 2.435 . S
O550 C539 1.256 . S
O551 Gd520 2.327 1_554 S
O551 Gd521 2.717 . S
O551 C539 1.257 . S
H552 C525 0.930 . S
H553 C526 0.931 . S
H554 C528 0.931 . S
H555 C529 0.931 . S
H556 C534 0.930 . S
H557 C535 0.931 . S
H558 C537 0.931 . S
H559 C538 0.931 . S
Gd560 C563 2.818 . S
Gd560 O580 2.377 . S
Gd560 O582 2.448 . S
Gd560 O583 2.506 . S
Gd560 O584 2.435 . S
Gd560 O585 2.717 . S
Gd560 O587 2.395 1_565 S
Gd560 O591 2.327 1_565 S
Gd561 C572 2.818 . S
Gd561 O581 2.395 1_545 S
Gd561 O585 2.327 1_545 S
Gd561 O586 2.377 . S
Gd561 O588 2.448 . S
Gd561 O589 2.506 . S
Gd561 O590 2.435 . S
Gd561 O591 2.717 . S
C562 O580 1.240 . S
C562 O581 1.240 . S
C563 Gd560 2.818 . S
C563 C564 1.510 . S
C563 O582 1.249 . S
C563 O583 1.252 . S
C564 C563 1.510 . S
C564 C565 1.404 . S
C564 C566 1.352 . S
C565 C564 1.404 . S
C565 C569 1.389 . S
C565 H592 0.930 . S
C566 C564 1.352 . S
C566 C568 1.374 . S
C566 H593 0.931 . S
C567 C568 1.359 . S
C567 C569 1.364 . S
C568 C566 1.374 . S
C568 C567 1.359 . S
C568 H594 0.931 . S
C569 C565 1.389 . S
C569 C567 1.364 . S
C569 H595 0.931 . S
C570 O584 1.256 . S
C570 O585 1.257 . S
C571 O586 1.240 . S
C571 O587 1.240 . S
C572 Gd561 2.818 . S
C572 C573 1.510 . S
C572 O588 1.249 . S
C572 O589 1.252 . S
C573 C572 1.510 . S
C573 C574 1.404 . S
C573 C575 1.352 . S
C574 C573 1.404 . S
C574 C578 1.389 . S
C574 H596 0.930 . S
C575 C573 1.352 . S
C575 C577 1.374 . S
C575 H597 0.931 . S
C576 C577 1.359 . S
C576 C578 1.364 . S
C577 C575 1.374 . S
C577 C576 1.359 . S
C577 H598 0.931 . S
C578 C574 1.389 . S
C578 C576 1.364 . S
C578 H599 0.931 . S
C579 O590 1.256 . S
C579 O591 1.257 . S
O580 Gd560 2.377 . S
O580 C562 1.240 . S
O581 Gd561 2.395 1_565 S
O581 C562 1.240 . S
O582 Gd560 2.448 . S
O582 C563 1.249 . S
O583 Gd560 2.506 . S
O583 C563 1.252 . S
O584 Gd560 2.435 . S
O584 C570 1.256 . S
O585 Gd560 2.717 . S
O585 Gd561 2.327 1_565 S
O585 C570 1.257 . S
O586 Gd561 2.377 . S
O586 C571 1.240 . S
O587 Gd560 2.395 1_545 S
O587 C571 1.240 . S
O588 Gd561 2.448 . S
O588 C572 1.249 . S
O589 Gd561 2.506 . S
O589 C572 1.252 . S
O590 Gd561 2.435 . S
O590 C579 1.256 . S
O591 Gd560 2.327 1_545 S
O591 Gd561 2.717 . S
O591 C579 1.257 . S
H592 C565 0.930 . S
H593 C566 0.931 . S
H594 C568 0.931 . S
H595 C569 0.931 . S
H596 C574 0.930 . S
H597 C575 0.931 . S
H598 C577 0.931 . S
H599 C578 0.931 . S
Gd600 C603 2.818 . S
Gd600 O620 2.377 1_554 S
Gd600 O622 2.448 . S
Gd600 O623 2.506 . S
Gd600 O624 2.435 . S
Gd600 O625 2.717 . S
Gd600 O627 2.395 . S
Gd600 O631 2.327 1_554 S
Gd601 C612 2.818 . S
Gd601 O621 2.395 . S
Gd601 O625 2.327 1_556 S
Gd601 O626 2.377 1_556 S
Gd601 O628 2.448 . S
Gd601 O629 2.506 . S
Gd601 O630 2.435 . S
Gd601 O631 2.717 . S
C602 O620 1.240 . S
C602 O621 1.240 . S
C603 Gd600 2.818 . S
C603 C604 1.510 . S
C603 O622 1.249 . S
C603 O623 1.252 . S
C604 C603 1.510 . S
C604 C605 1.404 . S
C604 C606 1.352 . S
C605 C604 1.404 . S
C605 C609 1.389 . S
C605 H632 0.930 . S
C606 C604 1.352 . S
C606 C608 1.374 . S
C606 H633 0.931 1_554 S
C607 C608 1.359 . S
C607 C609 1.364 . S
C608 C606 1.374 . S
C608 C607 1.359 . S
C608 H634 0.931 1_554 S
C609 C605 1.389 . S
C609 C607 1.364 . S
C609 H635 0.931 . S
C610 O624 1.256 . S
C610 O625 1.257 . S
C611 O626 1.240 . S
C611 O627 1.240 . S
C612 Gd601 2.818 . S
C612 C613 1.510 . S
C612 O628 1.249 . S
C612 O629 1.252 . S
C613 C612 1.510 . S
C613 C614 1.404 . S
C613 C615 1.352 . S
C614 C613 1.404 . S
C614 C618 1.389 . S
C614 H636 0.930 . S
C615 C613 1.352 . S
C615 C617 1.374 . S
C615 H637 0.931 1_556 S
C616 C617 1.359 . S
C616 C618 1.364 . S
C617 C615 1.374 . S
C617 C616 1.359 . S
C617 H638 0.931 1_556 S
C618 C614 1.389 . S
C618 C616 1.364 . S
C618 H639 0.931 . S
C619 O630 1.256 . S
C619 O631 1.257 . S
O620 Gd600 2.377 1_556 S
O620 C602 1.240 . S
O621 Gd601 2.395 . S
O621 C602 1.240 . S
O622 Gd600 2.448 . S
O622 C603 1.249 . S
O623 Gd600 2.506 . S
O623 C603 1.252 . S
O624 Gd600 2.435 . S
O624 C610 1.256 . S
O625 Gd600 2.717 . S
O625 Gd601 2.327 1_554 S
O625 C610 1.257 . S
O626 Gd601 2.377 1_554 S
O626 C611 1.240 . S
O627 Gd600 2.395 . S
O627 C611 1.240 . S
O628 Gd601 2.448 . S
O628 C612 1.249 . S
O629 Gd601 2.506 . S
O629 C612 1.252 . S
O630 Gd601 2.435 . S
O630 C619 1.256 . S
O631 Gd600 2.327 1_556 S
O631 Gd601 2.717 . S
O631 C619 1.257 . S
H632 C605 0.930 . S
H633 C606 0.931 1_556 S
H634 C608 0.931 1_556 S
H635 C609 0.931 . S
H636 C614 0.930 . S
H637 C615 0.931 1_554 S
H638 C617 0.931 1_554 S
H639 C618 0.931 . S
H640 C648 0.929 . S
H641 C650 0.930 . S
H642 C652 0.930 . S
H643 C655 0.929 . S
H644 C658 0.930 . S
H645 C660 0.960 . S
H646 C660 0.960 . S
H647 C660 0.960 . S
C648 H640 0.929 . S
C648 C649 1.377 . S
C648 C650 1.384 . S
C649 C648 1.377 . S
C649 C655 1.390 1_655 S
C650 H641 0.930 . S
C650 C648 1.384 . S
C650 C651 1.372 . S
C651 C650 1.372 . S
C651 C652 1.400 1_655 S
C651 C656 1.490 . S
C652 H642 0.930 . S
C652 C651 1.400 1_455 S
C652 C655 1.386 . S
H653 C669 0.930 . S
H654 C670 0.931 . S
C655 H643 0.929 . S
C655 C649 1.390 1_455 S
C655 C652 1.386 . S
C656 C651 1.490 . S
C656 C658 1.395 . S
C656 C659 1.403 1_655 S
H657 C663 0.930 . S
C658 H644 0.930 . S
C658 C656 1.395 . S
C658 C661 1.403 . S
C659 C656 1.403 1_455 S
C659 C660 1.524 . S
C659 C663 1.400 . S
C660 H645 0.960 . S
C660 H646 0.960 . S
C660 H647 0.960 . S
C660 C659 1.524 . S
C661 C658 1.403 . S
C661 C662 1.392 . S
C661 C665 1.495 . S
C662 C661 1.392 . S
C662 C663 1.385 1_655 S
C662 C664 1.478 . S
C663 H657 0.930 . S
C663 C659 1.400 . S
C663 C662 1.385 1_455 S
C664 C662 1.478 . S
C664 C666 1.381 . S
C664 C670 1.383 1_655 S
C665 C661 1.495 . S
C665 H671 0.959 . S
C665 H672 0.961 . S
C665 H673 0.960 . S
C666 C664 1.381 . S
C666 C667 1.394 . S
C666 H674 0.930 . S
C667 C666 1.394 . S
C667 C668 1.383 1_655 S
C667 H675 0.929 . S
C668 C667 1.383 1_455 S
C668 C669 1.377 . S
C669 H653 0.930 . S
C669 C668 1.377 . S
C669 C670 1.379 . S
C670 H654 0.931 . S
C670 C664 1.383 1_455 S
C670 C669 1.379 . S
H671 C665 0.959 . S
H672 C665 0.961 . S
H673 C665 0.960 . S
H674 C666 0.930 . S
H675 C667 0.929 . S
H676 C684 0.929 . S
H677 C686 0.930 . S
H678 C688 0.930 . S
H679 C691 0.929 . S
H680 C694 0.930 . S
H681 C696 0.960 . S
H682 C696 0.960 . S
H683 C696 0.960 . S
C684 H676 0.929 . S
C684 C685 1.377 . S
C684 C686 1.384 . S
C685 C684 1.377 . S
C685 C691 1.390 . S
C686 H677 0.930 . S
C686 C684 1.384 . S
C686 C687 1.372 . S
C687 C686 1.372 . S
C687 C688 1.400 . S
C687 C692 1.490 . S
C688 H678 0.930 . S
C688 C687 1.400 . S
C688 C691 1.386 . S
H689 C705 0.930 . S
H690 C706 0.931 . S
C691 H679 0.929 . S
C691 C685 1.390 . S
C691 C688 1.386 . S
C692 C687 1.490 . S
C692 C694 1.395 . S
C692 C695 1.403 . S
H693 C699 0.930 . S
C694 H680 0.930 . S
C694 C692 1.395 . S
C694 C697 1.403 . S
C695 C692 1.403 . S
C695 C696 1.524 . S
C695 C699 1.400 . S
C696 H681 0.960 . S
C696 H682 0.960 . S
C696 H683 0.960 . S
C696 C695 1.524 . S
C697 C694 1.403 . S
C697 C698 1.392 . S
C697 C701 1.495 . S
C698 C697 1.392 . S
C698 C699 1.385 . S
C698 C700 1.478 . S
C699 H693 0.930 . S
C699 C695 1.400 . S
C699 C698 1.385 . S
C700 C698 1.478 . S
C700 C702 1.381 . S
C700 C706 1.383 . S
C701 C697 1.495 . S
C701 H707 0.959 . S
C701 H708 0.961 . S
C701 H709 0.960 . S
C702 C700 1.381 . S
C702 C703 1.394 . S
C702 H710 0.930 . S
C703 C702 1.394 . S
C703 C704 1.383 . S
C703 H711 0.929 . S
C704 C703 1.383 . S
C704 C705 1.377 . S
C705 H689 0.930 . S
C705 C704 1.377 . S
C705 C706 1.379 . S
C706 H690 0.931 . S
C706 C700 1.383 . S
C706 C705 1.379 . S
H707 C701 0.959 . S
H708 C701 0.961 . S
H709 C701 0.960 . S
H710 C702 0.930 . S
H711 C703 0.929 . S
H712 C720 0.929 . S
H713 C722 0.930 . S
H714 C724 0.930 . S
H715 C727 0.929 . S
H716 C730 0.930 . S
H717 C732 0.960 . S
H718 C732 0.960 . S
H719 C732 0.960 . S
C720 H712 0.929 . S
C720 C721 1.377 . S
C720 C722 1.384 . S
C721 C720 1.377 . S
C721 C727 1.390 . S
C722 H713 0.930 . S
C722 C720 1.384 . S
C722 C723 1.372 . S
C723 C722 1.372 . S
C723 C724 1.400 . S
C723 C728 1.490 . S
C724 H714 0.930 . S
C724 C723 1.400 . S
C724 C727 1.386 . S
H725 C741 0.930 . S
H726 C742 0.931 . S
C727 H715 0.929 . S
C727 C721 1.390 . S
C727 C724 1.386 . S
C728 C723 1.490 . S
C728 C730 1.395 . S
C728 C731 1.403 . S
H729 C735 0.930 . S
C730 H716 0.930 . S
C730 C728 1.395 . S
C730 C733 1.403 . S
C731 C728 1.403 . S
C731 C732 1.524 . S
C731 C735 1.400 . S
C732 H717 0.960 . S
C732 H718 0.960 . S
C732 H719 0.960 . S
C732 C731 1.524 . S
C733 C730 1.403 . S
C733 C734 1.392 . S
C733 C737 1.495 . S
C734 C733 1.392 . S
C734 C735 1.385 . S
C734 C736 1.478 . S
C735 H729 0.930 . S
C735 C731 1.400 . S
C735 C734 1.385 . S
C736 C734 1.478 . S
C736 C738 1.381 . S
C736 C742 1.383 . S
C737 C733 1.495 . S
C737 H743 0.959 . S
C737 H744 0.961 . S
C737 H745 0.960 . S
C738 C736 1.381 . S
C738 C739 1.394 . S
C738 H746 0.930 . S
C739 C738 1.394 . S
C739 C740 1.383 . S
C739 H747 0.929 . S
C740 C739 1.383 . S
C740 C741 1.377 . S
C741 H725 0.930 . S
C741 C740 1.377 . S
C741 C742 1.379 . S
C742 H726 0.931 . S
C742 C736 1.383 . S
C742 C741 1.379 . S
H743 C737 0.959 . S
H744 C737 0.961 . S
H745 C737 0.960 . S
H746 C738 0.930 . S
H747 C739 0.929 . S
H748 C756 0.929 . S
H749 C758 0.930 . S
H750 C760 0.930 1_565 S
H751 C763 0.929 . S
H752 C766 0.930 . S
H753 C768 0.960 . S
H754 C768 0.960 . S
H755 C768 0.960 . S
C756 H748 0.929 . S
C756 C757 1.377 . S
C756 C758 1.384 . S
C757 C756 1.377 . S
C757 C763 1.390 . S
C758 H749 0.930 . S
C758 C756 1.384 . S
C758 C759 1.372 . S
C759 C758 1.372 . S
C759 C760 1.400 . S
C759 C764 1.490 . S
C760 H750 0.930 1_545 S
C760 C759 1.400 . S
C760 C763 1.386 . S
H761 C777 0.930 . S
H762 C778 0.931 . S
C763 H751 0.929 . S
C763 C757 1.390 . S
C763 C760 1.386 . S
C764 C759 1.490 . S
C764 C766 1.395 . S
C764 C767 1.403 1_545 S
H765 C771 0.930 . S
C766 H752 0.930 . S
C766 C764 1.395 . S
C766 C769 1.403 . S
C767 C764 1.403 1_565 S
C767 C768 1.524 . S
C767 C771 1.400 . S
C768 H753 0.960 . S
C768 H754 0.960 . S
C768 H755 0.960 . S
C768 C767 1.524 . S
C769 C766 1.403 . S
C769 C770 1.392 . S
C769 C773 1.495 . S
C770 C769 1.392 . S
C770 C771 1.385 1_545 S
C770 C772 1.478 . S
C771 H765 0.930 . S
C771 C767 1.400 . S
C771 C770 1.385 1_565 S
C772 C770 1.478 . S
C772 C774 1.381 . S
C772 C778 1.383 1_545 S
C773 C769 1.495 . S
C773 H779 0.959 . S
C773 H780 0.961 . S
C773 H781 0.960 . S
C774 C772 1.381 . S
C774 C775 1.394 . S
C774 H782 0.930 . S
C775 C774 1.394 . S
C775 C776 1.383 1_545 S
C775 H783 0.929 . S
C776 C775 1.383 1_565 S
C776 C777 1.377 . S
C777 H761 0.930 . S
C777 C776 1.377 . S
C777 C778 1.379 . S
C778 H762 0.931 . S
C778 C772 1.383 1_565 S
C778 C777 1.379 . S
H779 C773 0.959 . S
H780 C773 0.961 . S
H781 C773 0.960 . S
H782 C774 0.930 . S
H783 C775 0.929 . S
H784 C792 0.929 . S
H785 C794 0.930 . S
H786 C796 0.953 . S
H787 C799 0.929 1_545 S
H788 C802 0.930 . S
H789 C804 0.960 . S
H790 C804 0.960 . S
H791 C804 0.960 . S
C792 H784 0.929 . S
C792 C793 1.377 . S
C792 C794 1.384 . S
C793 C792 1.377 . S
C793 C799 1.390 . S
C794 H785 0.930 . S
C794 C792 1.384 . S
C794 C795 1.372 . S
C795 C794 1.372 . S
C795 C796 1.389 1_565 S
C795 C800 1.490 . S
C796 H786 0.953 . S
C796 C795 1.389 1_545 S
C796 C799 1.374 1_545 S
H797 C813 0.930 . S
H798 C814 0.931 . S
C799 H787 0.929 1_565 S
C799 C793 1.390 . S
C799 C796 1.374 1_565 S
C800 C795 1.490 . S
C800 C802 1.395 . S
C800 C803 1.403 1_565 S
H801 C807 0.930 . S
C802 H788 0.930 . S
C802 C800 1.395 . S
C802 C805 1.403 . S
C803 C800 1.403 1_545 S
C803 C804 1.524 . S
C803 C807 1.400 . S
C804 H789 0.960 . S
C804 H790 0.960 . S
C804 H791 0.960 . S
C804 C803 1.524 . S
C805 C802 1.403 . S
C805 C806 1.392 . S
C805 C809 1.495 . S
C806 C805 1.392 . S
C806 C807 1.385 1_565 S
C806 C808 1.478 . S
C807 H801 0.930 . S
C807 C803 1.400 . S
C807 C806 1.385 1_545 S
C808 C806 1.478 . S
C808 C810 1.381 . S
C808 C814 1.383 1_565 S
C809 C805 1.495 . S
C809 H815 0.959 . S
C809 H816 0.961 . S
C809 H817 0.960 . S
C810 C808 1.381 . S
C810 C811 1.394 . S
C810 H818 0.930 . S
C811 C810 1.394 . S
C811 C812 1.383 1_565 S
C811 H819 0.929 . S
C812 C811 1.383 1_545 S
C812 C813 1.377 . S
C813 H797 0.930 . S
C813 C812 1.377 . S
C813 C814 1.379 . S
C814 H798 0.931 . S
C814 C808 1.383 1_545 S
C814 C813 1.379 . S
H815 C809 0.959 . S
H816 C809 0.961 . S
H817 C809 0.960 . S
H818 C810 0.930 . S
H819 C811 0.929 . S
H820 C828 0.929 . S
H821 C830 0.930 . S
H822 C832 0.930 . S
H823 C835 0.929 . S
H824 C838 0.930 . S
H825 C840 0.960 . S
H826 C840 0.960 . S
H827 C840 0.960 . S
C828 H820 0.929 . S
C828 C829 1.377 . S
C828 C830 1.384 . S
C829 C828 1.377 . S
C829 C835 1.390 1_455 S
C830 H821 0.930 . S
C830 C828 1.384 . S
C830 C831 1.372 . S
C831 C830 1.372 . S
C831 C832 1.400 1_455 S
C831 C836 1.490 . S
C832 H822 0.930 . S
C832 C831 1.400 1_655 S
C832 C835 1.386 . S
H833 C849 0.930 . S
H834 C850 0.931 . S
C835 H823 0.929 . S
C835 C829 1.390 1_655 S
C835 C832 1.386 . S
C836 C831 1.490 . S
C836 C838 1.395 . S
C836 C839 1.403 1_455 S
H837 C843 0.930 . S
C838 H824 0.930 . S
C838 C836 1.395 . S
C838 C841 1.403 . S
C839 C836 1.403 1_655 S
C839 C840 1.524 . S
C839 C843 1.400 . S
C840 H825 0.960 . S
C840 H826 0.960 . S
C840 H827 0.960 . S
C840 C839 1.524 . S
C841 C838 1.403 . S
C841 C842 1.392 . S
C841 C845 1.495 . S
C842 C841 1.392 . S
C842 C843 1.385 1_455 S
C842 C844 1.478 . S
C843 H837 0.930 . S
C843 C839 1.400 . S
C843 C842 1.385 1_655 S
C844 C842 1.478 . S
C844 C846 1.381 . S
C844 C850 1.383 1_455 S
C845 C841 1.495 . S
C845 H851 0.959 . S
C845 H852 0.961 . S
C845 H853 0.960 . S
C846 C844 1.381 . S
C846 C847 1.394 . S
C846 H854 0.930 . S
C847 C846 1.394 . S
C847 C848 1.383 1_455 S
C847 H855 0.929 . S
C848 C847 1.383 1_655 S
C848 C849 1.377 . S
C849 H833 0.930 . S
C849 C848 1.377 . S
C849 C850 1.379 . S
C850 H834 0.931 . S
C850 C844 1.383 1_655 S
C850 C849 1.379 . S
H851 C845 0.959 . S
H852 C845 0.961 . S
H853 C845 0.960 . S
H854 C846 0.930 . S
H855 C847 0.929 . S
H856 C864 0.929 . S
H857 C866 0.930 . S
H858 C868 0.930 . S
H859 C871 0.929 . S
H860 C874 0.930 . S
H861 C876 0.960 . S
H862 C876 0.960 . S
H863 C876 0.960 . S
C864 H856 0.929 . S
C864 C865 1.377 . S
C864 C866 1.384 . S
C865 C864 1.377 . S
C865 C871 1.390 . S
C866 H857 0.930 . S
C866 C864 1.384 . S
C866 C867 1.372 . S
C867 C866 1.372 . S
C867 C868 1.400 . S
C867 C872 1.490 . S
C868 H858 0.930 . S
C868 C867 1.400 . S
C868 C871 1.386 . S
H869 C885 0.930 . S
H870 C886 0.931 . S
C871 H859 0.929 . S
C871 C865 1.390 . S
C871 C868 1.386 . S
C872 C867 1.490 . S
C872 C874 1.395 . S
C872 C875 1.403 . S
H873 C879 0.930 . S
C874 H860 0.930 . S
C874 C872 1.395 . S
C874 C877 1.403 . S
C875 C872 1.403 . S
C875 C876 1.524 . S
C875 C879 1.400 . S
C876 H861 0.960 . S
C876 H862 0.960 . S
C876 H863 0.960 . S
C876 C875 1.524 . S
C877 C874 1.403 . S
C877 C878 1.392 . S
C877 C881 1.495 . S
C878 C877 1.392 . S
C878 C879 1.385 . S
C878 C880 1.478 . S
C879 H873 0.930 . S
C879 C875 1.400 . S
C879 C878 1.385 . S
C880 C878 1.478 . S
C880 C882 1.381 . S
C880 C886 1.383 . S
C881 C877 1.495 . S
C881 H887 0.959 . S
C881 H888 0.961 . S
C881 H889 0.960 . S
C882 C880 1.381 . S
C882 C883 1.394 . S
C882 H890 0.930 . S
C883 C882 1.394 . S
C883 C884 1.383 . S
C883 H891 0.929 . S
C884 C883 1.383 . S
C884 C885 1.377 . S
C885 H869 0.930 . S
C885 C884 1.377 . S
C885 C886 1.379 . S
C886 H870 0.931 . S
C886 C880 1.383 . S
C886 C885 1.379 . S
H887 C881 0.959 . S
H888 C881 0.961 . S
H889 C881 0.960 . S
H890 C882 0.930 . S
H891 C883 0.929 . S
H892 C900 0.929 . S
H893 C902 0.930 . S
H894 C904 0.930 . S
H895 C907 0.929 . S
H896 C910 0.930 . S
H897 C912 0.960 . S
H898 C912 0.960 . S
H899 C912 0.960 . S
C900 H892 0.929 . S
C900 C901 1.377 . S
C900 C902 1.384 . S
C901 C900 1.377 . S
C901 C907 1.390 . S
C902 H893 0.930 . S
C902 C900 1.384 . S
C902 C903 1.372 . S
C903 C902 1.372 . S
C903 C904 1.400 . S
C903 C908 1.490 . S
C904 H894 0.930 . S
C904 C903 1.400 . S
C904 C907 1.386 . S
H905 C921 0.930 . S
H906 C922 0.931 . S
C907 H895 0.929 . S
C907 C901 1.390 . S
C907 C904 1.386 . S
C908 C903 1.490 . S
C908 C910 1.395 . S
C908 C911 1.403 . S
H909 C915 0.930 . S
C910 H896 0.930 . S
C910 C908 1.395 . S
C910 C913 1.403 . S
C911 C908 1.403 . S
C911 C912 1.524 . S
C911 C915 1.400 . S
C912 H897 0.960 . S
C912 H898 0.960 . S
C912 H899 0.960 . S
C912 C911 1.524 . S
C913 C910 1.403 . S
C913 C914 1.392 . S
C913 C917 1.495 . S
C914 C913 1.392 . S
C914 C915 1.385 . S
C914 C916 1.478 . S
C915 H909 0.930 . S
C915 C911 1.400 . S
C915 C914 1.385 . S
C916 C914 1.478 . S
C916 C918 1.381 . S
C916 C922 1.383 . S
C917 C913 1.495 . S
C917 H923 0.959 . S
C917 H924 0.961 . S
C917 H925 0.960 . S
C918 C916 1.381 . S
C918 C919 1.394 . S
C918 H926 0.930 . S
C919 C918 1.394 . S
C919 C920 1.383 . S
C919 H927 0.929 . S
C920 C919 1.383 . S
C920 C921 1.377 . S
C921 H905 0.930 . S
C921 C920 1.377 . S
C921 C922 1.379 . S
C922 H906 0.931 . S
C922 C916 1.383 . S
C922 C921 1.379 . S
H923 C917 0.959 . S
H924 C917 0.961 . S
H925 C917 0.960 . S
H926 C918 0.930 . S
H927 C919 0.929 . S
H928 C936 0.929 . S
H929 C938 0.930 . S
H930 C940 0.930 . S
H931 C943 0.929 . S
H932 C946 0.930 . S
H933 C948 0.960 . S
H934 C948 0.960 . S
H935 C948 0.960 . S
C936 H928 0.929 . S
C936 C937 1.377 . S
C936 C938 1.384 . S
C937 C936 1.377 . S
C937 C943 1.390 . S
C938 H929 0.930 . S
C938 C936 1.384 . S
C938 C939 1.372 . S
C939 C938 1.372 . S
C939 C940 1.400 . S
C939 C944 1.490 . S
C940 H930 0.930 . S
C940 C939 1.400 . S
C940 C943 1.386 . S
H941 C957 0.930 . S
H942 C958 0.931 . S
C943 H931 0.929 . S
C943 C937 1.390 . S
C943 C940 1.386 . S
C944 C939 1.490 . S
C944 C946 1.395 . S
C944 C947 1.403 . S
H945 C951 0.930 . S
C946 H932 0.930 . S
C946 C944 1.395 . S
C946 C949 1.403 . S
C947 C944 1.403 . S
C947 C948 1.524 . S
C947 C951 1.400 . S
C948 H933 0.960 . S
C948 H934 0.960 . S
C948 H935 0.960 . S
C948 C947 1.524 . S
C949 C946 1.403 . S
C949 C950 1.392 . S
C949 C953 1.495 . S
C950 C949 1.392 . S
C950 C951 1.385 . S
C950 C952 1.478 . S
C951 H945 0.930 . S
C951 C947 1.400 . S
C951 C950 1.385 . S
C952 C950 1.478 . S
C952 C954 1.381 . S
C952 C958 1.383 . S
C953 C949 1.495 . S
C953 H959 0.959 . S
C953 H960 0.961 . S
C953 H961 0.960 . S
C954 C952 1.381 . S
C954 C955 1.394 . S
C954 H962 0.930 . S
C955 C954 1.394 . S
C955 C956 1.383 . S
C955 H963 0.929 . S
C956 C955 1.383 . S
C956 C957 1.377 . S
C957 H941 0.930 . S
C957 C956 1.377 . S
C957 C958 1.379 . S
C958 H942 0.931 . S
C958 C952 1.383 . S
C958 C957 1.379 . S
H959 C953 0.959 . S
H960 C953 0.961 . S
H961 C953 0.960 . S
H962 C954 0.930 . S
H963 C955 0.929 . S
H964 C972 0.929 . S
H965 C974 0.930 . S
H966 C976 0.930 . S
H967 C979 0.929 . S
H968 C982 0.930 . S
H969 C984 0.960 . S
H970 C984 0.960 . S
H971 C984 0.960 . S
C972 H964 0.929 . S
C972 C973 1.377 . S
C972 C974 1.384 . S
C973 C972 1.377 . S
C973 C979 1.390 . S
C974 H965 0.930 . S
C974 C972 1.384 . S
C974 C975 1.372 . S
C975 C974 1.372 . S
C975 C976 1.400 . S
C975 C980 1.490 . S
C976 H966 0.930 . S
C976 C975 1.400 . S
C976 C979 1.386 . S
H977 C993 0.930 . S
H978 C994 0.931 . S
C979 H967 0.929 . S
C979 C973 1.390 . S
C979 C976 1.386 . S
C980 C975 1.490 . S
C980 C982 1.395 . S
C980 C983 1.403 . S
H981 C987 0.930 . S
C982 H968 0.930 . S
C982 C980 1.395 . S
C982 C985 1.403 . S
C983 C980 1.403 . S
C983 C984 1.524 . S
C983 C987 1.400 . S
C984 H969 0.960 . S
C984 H970 0.960 . S
C984 H971 0.960 . S
C984 C983 1.524 . S
C985 C982 1.403 . S
C985 C986 1.392 . S
C985 C989 1.495 . S
C986 C985 1.392 . S
C986 C987 1.385 . S
C986 C988 1.478 . S
C987 H981 0.930 . S
C987 C983 1.400 . S
C987 C986 1.385 . S
C988 C986 1.478 . S
C988 C990 1.381 . S
C988 C994 1.383 . S
C989 C985 1.495 . S
C989 H995 0.959 . S
C989 H996 0.961 . S
C989 H997 0.960 . S
C990 C988 1.381 . S
C990 C991 1.394 . S
C990 H998 0.930 . S
C991 C990 1.394 . S
C991 C992 1.383 . S
C991 H999 0.929 . S
C992 C991 1.383 . S
C992 C993 1.377 . S
C993 H977 0.930 . S
C993 C992 1.377 . S
C993 C994 1.379 . S
C994 H978 0.931 . S
C994 C988 1.383 . S
C994 C993 1.379 . S
H995 C989 0.959 . S
H996 C989 0.961 . S
H997 C989 0.960 . S
H998 C990 0.930 . S
H999 C991 0.929 . S
H1000 C1008 0.945 . S
H1001 C1010 0.930 1_545 S
H1002 C1012 0.930 . S
H1003 C1015 0.929 . S
H1004 C1018 0.930 . S
H1005 C1020 0.960 . S
H1006 C1020 0.960 . S
H1007 C1020 0.960 . S
C1008 H1000 0.945 . S
C1008 C1009 1.377 . S
C1008 C1010 1.384 . S
C1009 C1008 1.377 . S
C1009 C1015 1.390 . S
C1010 H1001 0.930 1_565 S
C1010 C1008 1.384 . S
C1010 C1011 1.372 . S
C1011 C1010 1.372 . S
C1011 C1012 1.400 . S
C1011 C1016 1.490 . S
C1012 H1002 0.930 . S
C1012 C1011 1.400 . S
C1012 C1015 1.386 . S
H1013 C1029 0.937 . S
H1014 C1030 0.931 . S
C1015 H1003 0.929 . S
C1015 C1009 1.390 . S
C1015 C1012 1.386 . S
C1016 C1011 1.490 . S
C1016 C1018 1.395 1_565 S
C1016 C1019 1.403 . S
H1017 C1023 0.930 . S
C1018 H1004 0.930 . S
C1018 C1016 1.395 1_545 S
C1018 C1021 1.403 . S
C1019 C1016 1.403 . S
C1019 C1020 1.524 . S
C1019 C1023 1.400 . S
C1020 H1005 0.960 . S
C1020 H1006 0.960 . S
C1020 H1007 0.960 . S
C1020 C1019 1.524 . S
C1021 C1018 1.403 . S
C1021 C1022 1.392 . S
C1021 C1025 1.495 . S
C1022 C1021 1.392 . S
C1022 C1023 1.385 1_545 S
C1022 C1024 1.478 . S
C1023 H1017 0.930 . S
C1023 C1019 1.400 . S
C1023 C1022 1.385 1_565 S
C1024 C1022 1.478 . S
C1024 C1026 1.381 . S
C1024 C1030 1.383 1_545 S
C1025 C1021 1.495 . S
C1025 H1031 0.959 . S
C1025 H1032 0.961 . S
C1025 H1033 0.960 . S
C1026 C1024 1.381 . S
C1026 C1027 1.394 . S
C1026 H1034 0.930 . S
C1027 C1026 1.394 . S
C1027 C1028 1.383 . S
C1027 H1035 0.929 . S
C1028 C1027 1.383 . S
C1028 C1029 1.356 1_545 S
C1029 H1013 0.937 . S
C1029 C1028 1.356 1_565 S
C1029 C1030 1.393 . S
C1030 H1014 0.931 . S
C1030 C1024 1.383 1_565 S
C1030 C1029 1.393 . S
H1031 C1025 0.959 . S
H1032 C1025 0.961 . S
H1033 C1025 0.960 . S
H1034 C1026 0.930 . S
H1035 C1027 0.929 . S
H1036 C1044 0.929 . S
H1037 C1046 0.930 . S
H1038 C1048 0.930 1_655 S
H1039 C1051 0.930 . S
H1040 C1054 0.930 . S
H1041 C1056 0.960 . S
H1042 C1056 0.960 . S
H1043 C1056 0.960 . S
C1044 H1036 0.929 . S
C1044 C1045 1.377 . S
C1044 C1046 1.384 . S
C1045 C1044 1.377 . S
C1045 C1051 1.390 . S
C1046 H1037 0.930 . S
C1046 C1044 1.384 . S
C1046 C1047 1.372 . S
C1047 C1046 1.372 . S
C1047 C1048 1.400 . S
C1047 C1052 1.490 . S
C1048 H1038 0.930 1_455 S
C1048 C1047 1.400 . S
C1048 C1051 1.386 . S
H1049 C1065 0.930 . S
H1050 C1066 0.931 . S
C1051 H1039 0.930 . S
C1051 C1045 1.390 . S
C1051 C1048 1.386 . S
C1052 C1047 1.490 . S
C1052 C1054 1.395 1_455 S
C1052 C1055 1.403 . S
H1053 C1059 0.930 . S
C1054 H1040 0.930 . S
C1054 C1052 1.395 1_655 S
C1054 C1057 1.403 . S
C1055 C1052 1.403 . S
C1055 C1056 1.524 . S
C1055 C1059 1.400 . S
C1056 H1041 0.960 . S
C1056 H1042 0.960 . S
C1056 H1043 0.960 . S
C1056 C1055 1.524 . S
C1057 C1054 1.403 . S
C1057 C1058 1.392 . S
C1057 C1061 1.495 . S
C1058 C1057 1.392 . S
C1058 C1059 1.385 1_655 S
C1058 C1060 1.478 . S
C1059 H1053 0.930 . S
C1059 C1055 1.400 . S
C1059 C1058 1.385 1_455 S
C1060 C1058 1.478 . S
C1060 C1062 1.381 1_655 S
C1060 C1066 1.383 . S
C1061 C1057 1.495 . S
C1061 H1067 0.959 . S
C1061 H1068 0.961 . S
C1061 H1069 0.960 . S
C1062 C1060 1.381 1_455 S
C1062 C1063 1.394 . S
C1062 H1070 0.930 . S
C1063 C1062 1.394 . S
C1063 C1064 1.383 1_455 S
C1063 H1071 0.929 . S
C1064 C1063 1.383 1_655 S
C1064 C1065 1.377 . S
C1065 H1049 0.930 . S
C1065 C1064 1.377 . S
C1065 C1066 1.379 . S
C1066 H1050 0.931 . S
C1066 C1060 1.383 . S
C1066 C1065 1.379 . S
H1067 C1061 0.959 . S
H1068 C1061 0.961 . S
H1069 C1061 0.960 . S
H1070 C1062 0.930 . S
H1071 C1063 0.929 . S
H1072 C1080 0.929 . S
H1073 C1082 0.930 . S
H1074 C1084 0.930 1_554 S
H1075 C1087 0.929 . S
H1076 C1090 0.930 . S
H1077 C1092 0.960 . S
H1078 C1092 0.960 . S
H1079 C1092 0.960 . S
C1080 H1072 0.929 . S
C1080 C1081 1.377 . S
C1080 C1082 1.384 . S
C1081 C1080 1.377 . S
C1081 C1087 1.390 . S
C1082 H1073 0.930 . S
C1082 C1080 1.384 . S
C1082 C1083 1.372 . S
C1083 C1082 1.372 . S
C1083 C1084 1.400 . S
C1083 C1088 1.490 . S
C1084 H1074 0.930 1_556 S
C1084 C1083 1.400 . S
C1084 C1087 1.386 . S
H1085 C1101 0.930 . S
H1086 C1102 0.931 . S
C1087 H1075 0.929 . S
C1087 C1081 1.390 . S
C1087 C1084 1.386 . S
C1088 C1083 1.490 . S
C1088 C1090 1.395 . S
C1088 C1091 1.403 . S
H1089 C1095 0.930 . S
C1090 H1076 0.930 . S
C1090 C1088 1.395 . S
C1090 C1093 1.403 . S
C1091 C1088 1.403 . S
C1091 C1092 1.524 . S
C1091 C1095 1.400 . S
C1092 H1077 0.960 . S
C1092 H1078 0.960 . S
C1092 H1079 0.960 . S
C1092 C1091 1.524 . S
C1093 C1090 1.403 . S
C1093 C1094 1.392 . S
C1093 C1097 1.495 . S
C1094 C1093 1.392 . S
C1094 C1095 1.385 . S
C1094 C1096 1.478 . S
C1095 H1089 0.930 . S
C1095 C1091 1.400 . S
C1095 C1094 1.385 . S
C1096 C1094 1.478 . S
C1096 C1098 1.381 . S
C1096 C1102 1.383 1_556 S
C1097 C1093 1.495 . S
C1097 H1103 0.959 . S
C1097 H1104 0.961 . S
C1097 H1105 0.960 . S
C1098 C1096 1.381 . S
C1098 C1099 1.394 . S
C1098 H1106 0.930 . S
C1099 C1098 1.394 . S
C1099 C1100 1.383 . S
C1099 H1107 0.929 . S
C1100 C1099 1.383 . S
C1100 C1101 1.377 1_556 S
C1101 H1085 0.930 . S
C1101 C1100 1.377 1_554 S
C1101 C1102 1.379 . S
C1102 H1086 0.931 . S
C1102 C1096 1.383 1_554 S
C1102 C1101 1.379 . S
H1103 C1097 0.959 . S
H1104 C1097 0.961 . S
H1105 C1097 0.960 . S
H1106 C1098 0.930 . S
H1107 C1099 0.929 . S
H1108 C1116 0.929 . S
H1109 C1118 0.930 . S
H1110 C1120 0.930 . S
H1111 C1123 0.929 . S
H1112 C1126 0.930 . S
H1113 C1128 0.960 . S
H1114 C1128 0.960 . S
H1115 C1128 0.960 . S
C1116 H1108 0.929 . S
C1116 C1117 1.377 . S
C1116 C1118 1.384 . S
C1117 C1116 1.377 . S
C1117 C1123 1.390 . S
C1118 H1109 0.930 . S
C1118 C1116 1.384 . S
C1118 C1119 1.372 . S
C1119 C1118 1.372 . S
C1119 C1120 1.400 . S
C1119 C1124 1.490 . S
C1120 H1110 0.930 . S
C1120 C1119 1.400 . S
C1120 C1123 1.386 . S
H1121 C1137 0.930 . S
H1122 C1138 0.931 . S
C1123 H1111 0.929 . S
C1123 C1117 1.390 . S
C1123 C1120 1.386 . S
C1124 C1119 1.490 . S
C1124 C1126 1.395 . S
C1124 C1127 1.403 . S
H1125 C1131 0.930 . S
C1126 H1112 0.930 . S
C1126 C1124 1.395 . S
C1126 C1129 1.403 . S
C1127 C1124 1.403 . S
C1127 C1128 1.524 . S
C1127 C1131 1.400 . S
C1128 H1113 0.960 . S
C1128 H1114 0.960 . S
C1128 H1115 0.960 . S
C1128 C1127 1.524 . S
C1129 C1126 1.403 . S
C1129 C1130 1.392 . S
C1129 C1133 1.495 . S
C1130 C1129 1.392 . S
C1130 C1131 1.385 . S
C1130 C1132 1.478 . S
C1131 H1125 0.930 . S
C1131 C1127 1.400 . S
C1131 C1130 1.385 . S
C1132 C1130 1.478 . S
C1132 C1134 1.381 . S
C1132 C1138 1.383 . S
C1133 C1129 1.495 . S
C1133 H1139 0.959 . S
C1133 H1140 0.961 . S
C1133 H1141 0.960 . S
C1134 C1132 1.381 . S
C1134 C1135 1.394 . S
C1134 H1142 0.930 . S
C1135 C1134 1.394 . S
C1135 C1136 1.383 . S
C1135 H1143 0.929 . S
C1136 C1135 1.383 . S
C1136 C1137 1.377 . S
C1137 H1121 0.930 . S
C1137 C1136 1.377 . S
C1137 C1138 1.379 . S
C1138 H1122 0.931 . S
C1138 C1132 1.383 . S
C1138 C1137 1.379 . S
H1139 C1133 0.959 . S
H1140 C1133 0.961 . S
H1141 C1133 0.960 . S
H1142 C1134 0.930 . S
H1143 C1135 0.929 . S
H1144 C1152 0.929 . S
H1145 C1154 0.930 . S
H1146 C1156 0.930 . S
H1147 C1159 0.929 . S
H1148 C1162 0.930 . S
H1149 C1164 0.960 . S
H1150 C1164 0.960 . S
H1151 C1164 0.960 . S
C1152 H1144 0.929 . S
C1152 C1153 1.377 . S
C1152 C1154 1.384 . S
C1153 C1152 1.377 . S
C1153 C1159 1.390 . S
C1154 H1145 0.930 . S
C1154 C1152 1.384 . S
C1154 C1155 1.372 . S
C1155 C1154 1.372 . S
C1155 C1156 1.400 . S
C1155 C1160 1.490 . S
C1156 H1146 0.930 . S
C1156 C1155 1.400 . S
C1156 C1159 1.386 . S
H1157 C1173 0.930 . S
H1158 C1174 0.931 . S
C1159 H1147 0.929 . S
C1159 C1153 1.390 . S
C1159 C1156 1.386 . S
C1160 C1155 1.490 . S
C1160 C1162 1.395 . S
C1160 C1163 1.403 . S
H1161 C1167 0.930 . S
C1162 H1148 0.930 . S
C1162 C1160 1.395 . S
C1162 C1165 1.403 . S
C1163 C1160 1.403 . S
C1163 C1164 1.524 . S
C1163 C1167 1.400 . S
C1164 H1149 0.960 . S
C1164 H1150 0.960 . S
C1164 H1151 0.960 . S
C1164 C1163 1.524 . S
C1165 C1162 1.403 . S
C1165 C1166 1.392 . S
C1165 C1169 1.495 . S
C1166 C1165 1.392 . S
C1166 C1167 1.385 . S
C1166 C1168 1.478 . S
C1167 H1161 0.930 . S
C1167 C1163 1.400 . S
C1167 C1166 1.385 . S
C1168 C1166 1.478 . S
C1168 C1170 1.381 . S
C1168 C1174 1.383 . S
C1169 C1165 1.495 . S
C1169 H1175 0.959 . S
C1169 H1176 0.961 . S
C1169 H1177 0.960 . S
C1170 C1168 1.381 . S
C1170 C1171 1.394 . S
C1170 H1178 0.930 . S
C1171 C1170 1.394 . S
C1171 C1172 1.383 . S
C1171 H1179 0.929 . S
C1172 C1171 1.383 . S
C1172 C1173 1.377 . S
C1173 H1157 0.930 . S
C1173 C1172 1.377 . S
C1173 C1174 1.379 . S
C1174 H1158 0.931 . S
C1174 C1168 1.383 . S
C1174 C1173 1.379 . S
H1175 C1169 0.959 . S
H1176 C1169 0.961 . S
H1177 C1169 0.960 . S
H1178 C1170 0.930 . S
H1179 C1171 0.929 . S
H1180 C1188 0.929 . S
H1181 C1190 0.930 . S
H1182 C1192 0.930 . S
H1183 C1195 0.929 . S
H1184 C1198 0.930 . S
H1185 C1200 0.960 . S
H1186 C1200 0.960 . S
H1187 C1200 0.960 . S
C1188 H1180 0.929 . S
C1188 C1189 1.377 . S
C1188 C1190 1.384 . S
C1189 C1188 1.377 . S
C1189 C1195 1.390 . S
C1190 H1181 0.930 . S
C1190 C1188 1.384 . S
C1190 C1191 1.372 . S
C1191 C1190 1.372 . S
C1191 C1192 1.400 . S
C1191 C1196 1.490 . S
C1192 H1182 0.930 . S
C1192 C1191 1.400 . S
C1192 C1195 1.386 . S
H1193 C1209 0.930 . S
H1194 C1210 0.931 . S
C1195 H1183 0.929 . S
C1195 C1189 1.390 . S
C1195 C1192 1.386 . S
C1196 C1191 1.490 . S
C1196 C1198 1.395 . S
C1196 C1199 1.403 . S
H1197 C1203 0.930 . S
C1198 H1184 0.930 . S
C1198 C1196 1.395 . S
C1198 C1201 1.403 . S
C1199 C1196 1.403 . S
C1199 C1200 1.524 . S
C1199 C1203 1.400 . S
C1200 H1185 0.960 . S
C1200 H1186 0.960 . S
C1200 H1187 0.960 . S
C1200 C1199 1.524 . S
C1201 C1198 1.403 . S
C1201 C1202 1.392 . S
C1201 C1205 1.495 . S
C1202 C1201 1.392 . S
C1202 C1203 1.385 . S
C1202 C1204 1.478 . S
C1203 H1197 0.930 . S
C1203 C1199 1.400 . S
C1203 C1202 1.385 . S
C1204 C1202 1.478 . S
C1204 C1206 1.381 . S
C1204 C1210 1.383 . S
C1205 C1201 1.495 . S
C1205 H1211 0.959 . S
C1205 H1212 0.961 . S
C1205 H1213 0.960 . S
C1206 C1204 1.381 . S
C1206 C1207 1.394 . S
C1206 H1214 0.930 . S
C1207 C1206 1.394 . S
C1207 C1208 1.383 . S
C1207 H1215 0.929 . S
C1208 C1207 1.383 . S
C1208 C1209 1.377 . S
C1209 H1193 0.930 . S
C1209 C1208 1.377 . S
C1209 C1210 1.379 . S
C1210 H1194 0.931 . S
C1210 C1204 1.383 . S
C1210 C1209 1.379 . S
H1211 C1205 0.959 . S
H1212 C1205 0.961 . S
H1213 C1205 0.960 . S
H1214 C1206 0.930 . S
H1215 C1207 0.929 . S
H1216 C1224 0.929 . S
H1217 C1226 0.930 . S
H1218 C1228 0.930 . S
H1219 C1231 0.929 . S
H1220 C1234 0.930 . S
H1221 C1236 0.960 . S
H1222 C1236 0.960 . S
H1223 C1236 0.960 . S
C1224 H1216 0.929 . S
C1224 C1225 1.377 . S
C1224 C1226 1.384 . S
C1225 C1224 1.377 . S
C1225 C1231 1.390 . S
C1226 H1217 0.930 . S
C1226 C1224 1.384 . S
C1226 C1227 1.372 . S
C1227 C1226 1.372 . S
C1227 C1228 1.400 . S
C1227 C1232 1.490 . S
C1228 H1218 0.930 . S
C1228 C1227 1.400 . S
C1228 C1231 1.386 . S
H1229 C1245 0.930 . S
H1230 C1246 0.931 . S
C1231 H1219 0.929 . S
C1231 C1225 1.390 . S
C1231 C1228 1.386 . S
C1232 C1227 1.490 . S
C1232 C1234 1.395 . S
C1232 C1235 1.403 . S
H1233 C1239 0.930 . S
C1234 H1220 0.930 . S
C1234 C1232 1.395 . S
C1234 C1237 1.403 . S
C1235 C1232 1.403 . S
C1235 C1236 1.524 . S
C1235 C1239 1.400 . S
C1236 H1221 0.960 . S
C1236 H1222 0.960 . S
C1236 H1223 0.960 . S
C1236 C1235 1.524 . S
C1237 C1234 1.403 . S
C1237 C1238 1.392 . S
C1237 C1241 1.495 . S
C1238 C1237 1.392 . S
C1238 C1239 1.385 . S
C1238 C1240 1.478 . S
C1239 H1233 0.930 . S
C1239 C1235 1.400 . S
C1239 C1238 1.385 . S
C1240 C1238 1.478 . S
C1240 C1242 1.381 . S
C1240 C1246 1.383 . S
C1241 C1237 1.495 . S
C1241 H1247 0.959 . S
C1241 H1248 0.961 . S
C1241 H1249 0.960 . S
C1242 C1240 1.381 . S
C1242 C1243 1.394 . S
C1242 H1250 0.930 . S
C1243 C1242 1.394 . S
C1243 C1244 1.383 . S
C1243 H1251 0.929 . S
C1244 C1243 1.383 . S
C1244 C1245 1.377 . S
C1245 H1229 0.930 . S
C1245 C1244 1.377 . S
C1245 C1246 1.379 . S
C1246 H1230 0.931 . S
C1246 C1240 1.383 . S
C1246 C1245 1.379 . S
H1247 C1241 0.959 . S
H1248 C1241 0.961 . S
H1249 C1241 0.960 . S
H1250 C1242 0.930 . S
H1251 C1243 0.929 . S
H1252 C1260 0.929 . S
H1253 C1262 0.930 . S
H1254 C1264 0.930 . S
H1255 C1267 0.929 . S
H1256 C1270 0.930 . S
H1257 C1272 0.960 . S
H1258 C1272 0.960 . S
H1259 C1272 0.960 . S
C1260 H1252 0.929 . S
C1260 C1261 1.377 . S
C1260 C1262 1.384 . S
C1261 C1260 1.377 . S
C1261 C1267 1.390 . S
C1262 H1253 0.930 . S
C1262 C1260 1.384 . S
C1262 C1263 1.372 . S
C1263 C1262 1.372 . S
C1263 C1264 1.400 . S
C1263 C1268 1.490 . S
C1264 H1254 0.930 . S
C1264 C1263 1.400 . S
C1264 C1267 1.386 . S
H1265 C1281 0.930 . S
H1266 C1282 0.931 . S
C1267 H1255 0.929 . S
C1267 C1261 1.390 . S
C1267 C1264 1.386 . S
C1268 C1263 1.490 . S
C1268 C1270 1.395 . S
C1268 C1271 1.403 . S
H1269 C1275 0.930 . S
C1270 H1256 0.930 . S
C1270 C1268 1.395 . S
C1270 C1273 1.403 . S
C1271 C1268 1.403 . S
C1271 C1272 1.524 . S
C1271 C1275 1.400 . S
C1272 H1257 0.960 . S
C1272 H1258 0.960 . S
C1272 H1259 0.960 . S
C1272 C1271 1.524 . S
C1273 C1270 1.403 . S
C1273 C1274 1.392 . S
C1273 C1277 1.495 . S
C1274 C1273 1.392 . S
C1274 C1275 1.385 . S
C1274 C1276 1.478 . S
C1275 H1269 0.930 . S
C1275 C1271 1.400 . S
C1275 C1274 1.385 . S
C1276 C1274 1.478 . S
C1276 C1278 1.381 . S
C1276 C1282 1.383 . S
C1277 C1273 1.495 . S
C1277 H1283 0.959 . S
C1277 H1284 0.961 . S
C1277 H1285 0.960 . S
C1278 C1276 1.381 . S
C1278 C1279 1.394 . S
C1278 H1286 0.930 . S
C1279 C1278 1.394 . S
C1279 C1280 1.383 . S
C1279 H1287 0.929 . S
C1280 C1279 1.383 . S
C1280 C1281 1.377 . S
C1281 H1265 0.930 . S
C1281 C1280 1.377 . S
C1281 C1282 1.379 . S
C1282 H1266 0.931 . S
C1282 C1276 1.383 . S
C1282 C1281 1.379 . S
H1283 C1277 0.959 . S
H1284 C1277 0.961 . S
H1285 C1277 0.960 . S
H1286 C1278 0.930 . S
H1287 C1279 0.929 . S
H1288 C1296 0.929 . S
H1289 C1298 0.930 . S
H1290 C1300 0.930 . S
H1291 C1303 0.929 . S
H1292 C1306 0.930 . S
H1293 C1308 0.960 . S
H1294 C1308 0.960 . S
H1295 C1308 0.960 . S
C1296 H1288 0.929 . S
C1296 C1297 1.377 . S
C1296 C1298 1.384 . S
C1297 C1296 1.377 . S
C1297 C1303 1.390 . S
C1298 H1289 0.930 . S
C1298 C1296 1.384 . S
C1298 C1299 1.372 . S
C1299 C1298 1.372 . S
C1299 C1300 1.400 . S
C1299 C1304 1.490 . S
C1300 H1290 0.930 . S
C1300 C1299 1.400 . S
C1300 C1303 1.386 . S
H1301 C1317 0.930 . S
H1302 C1318 0.931 . S
C1303 H1291 0.929 . S
C1303 C1297 1.390 . S
C1303 C1300 1.386 . S
C1304 C1299 1.490 . S
C1304 C1306 1.395 . S
C1304 C1307 1.403 . S
H1305 C1311 0.930 . S
C1306 H1292 0.930 . S
C1306 C1304 1.395 . S
C1306 C1309 1.403 . S
C1307 C1304 1.403 . S
C1307 C1308 1.524 . S
C1307 C1311 1.400 . S
C1308 H1293 0.960 . S
C1308 H1294 0.960 . S
C1308 H1295 0.960 . S
C1308 C1307 1.524 . S
C1309 C1306 1.403 . S
C1309 C1310 1.392 . S
C1309 C1313 1.495 . S
C1310 C1309 1.392 . S
C1310 C1311 1.385 . S
C1310 C1312 1.478 . S
C1311 H1305 0.930 . S
C1311 C1307 1.400 . S
C1311 C1310 1.385 . S
C1312 C1310 1.478 . S
C1312 C1314 1.381 . S
C1312 C1318 1.383 . S
C1313 C1309 1.495 . S
C1313 H1319 0.959 . S
C1313 H1320 0.961 . S
C1313 H1321 0.960 . S
C1314 C1312 1.381 . S
C1314 C1315 1.394 . S
C1314 H1322 0.930 . S
C1315 C1314 1.394 . S
C1315 C1316 1.383 . S
C1315 H1323 0.929 . S
C1316 C1315 1.383 . S
C1316 C1317 1.377 . S
C1317 H1301 0.930 . S
C1317 C1316 1.377 . S
C1317 C1318 1.379 . S
C1318 H1302 0.931 . S
C1318 C1312 1.383 . S
C1318 C1317 1.379 . S
H1319 C1313 0.959 . S
H1320 C1313 0.961 . S
H1321 C1313 0.960 . S
H1322 C1314 0.930 . S
H1323 C1315 0.929 . S
H1324 C1332 0.929 . S
H1325 C1334 0.930 . S
H1326 C1336 0.930 . S
H1327 C1339 0.929 . S
H1328 C1342 0.930 . S
H1329 C1344 0.960 . S
H1330 C1344 0.960 . S
H1331 C1344 0.960 . S
C1332 H1324 0.929 . S
C1332 C1333 1.377 . S
C1332 C1334 1.384 . S
C1333 C1332 1.377 . S
C1333 C1339 1.390 . S
C1334 H1325 0.930 . S
C1334 C1332 1.384 . S
C1334 C1335 1.372 . S
C1335 C1334 1.372 . S
C1335 C1336 1.400 . S
C1335 C1340 1.490 . S
C1336 H1326 0.930 . S
C1336 C1335 1.400 . S
C1336 C1339 1.386 . S
H1337 C1353 0.930 . S
H1338 C1354 0.931 . S
C1339 H1327 0.929 . S
C1339 C1333 1.390 . S
C1339 C1336 1.386 . S
C1340 C1335 1.490 . S
C1340 C1342 1.395 . S
C1340 C1343 1.403 . S
H1341 C1347 0.930 . S
C1342 H1328 0.930 . S
C1342 C1340 1.395 . S
C1342 C1345 1.403 . S
C1343 C1340 1.403 . S
C1343 C1344 1.524 . S
C1343 C1347 1.400 . S
C1344 H1329 0.960 . S
C1344 H1330 0.960 . S
C1344 H1331 0.960 . S
C1344 C1343 1.524 . S
C1345 C1342 1.403 . S
C1345 C1346 1.392 . S
C1345 C1349 1.495 . S
C1346 C1345 1.392 . S
C1346 C1347 1.385 . S
C1346 C1348 1.478 . S
C1347 H1341 0.930 . S
C1347 C1343 1.400 . S
C1347 C1346 1.385 . S
C1348 C1346 1.478 . S
C1348 C1350 1.381 . S
C1348 C1354 1.383 . S
C1349 C1345 1.495 . S
C1349 H1355 0.959 . S
C1349 H1356 0.961 . S
C1349 H1357 0.960 . S
C1350 C1348 1.381 . S
C1350 C1351 1.394 . S
C1350 H1358 0.930 . S
C1351 C1350 1.394 . S
C1351 C1352 1.383 . S
C1351 H1359 0.929 . S
C1352 C1351 1.383 . S
C1352 C1353 1.377 . S
C1353 H1337 0.930 . S
C1353 C1352 1.377 . S
C1353 C1354 1.379 . S
C1354 H1338 0.931 . S
C1354 C1348 1.383 . S
C1354 C1353 1.379 . S
H1355 C1349 0.959 . S
H1356 C1349 0.961 . S
H1357 C1349 0.960 . S
H1358 C1350 0.930 . S
H1359 C1351 0.929 . S
H1360 C1368 0.929 . S
H1361 C1370 0.930 . S
H1362 C1372 0.930 . S
H1363 C1375 0.929 . S
H1364 C1378 0.930 . S
H1365 C1380 0.960 . S
H1366 C1380 0.960 . S
H1367 C1380 0.960 . S
C1368 H1360 0.929 . S
C1368 C1369 1.377 . S
C1368 C1370 1.384 . S
C1369 C1368 1.377 . S
C1369 C1375 1.390 . S
C1370 H1361 0.930 . S
C1370 C1368 1.384 . S
C1370 C1371 1.372 . S
C1371 C1370 1.372 . S
C1371 C1372 1.400 . S
C1371 C1376 1.490 . S
C1372 H1362 0.930 . S
C1372 C1371 1.400 . S
C1372 C1375 1.386 . S
H1373 C1389 0.930 . S
H1374 C1390 0.931 . S
C1375 H1363 0.929 . S
C1375 C1369 1.390 . S
C1375 C1372 1.386 . S
C1376 C1371 1.490 . S
C1376 C1378 1.395 . S
C1376 C1379 1.403 . S
H1377 C1383 0.930 . S
C1378 H1364 0.930 . S
C1378 C1376 1.395 . S
C1378 C1381 1.403 . S
C1379 C1376 1.403 . S
C1379 C1380 1.524 . S
C1379 C1383 1.400 . S
C1380 H1365 0.960 . S
C1380 H1366 0.960 . S
C1380 H1367 0.960 . S
C1380 C1379 1.524 . S
C1381 C1378 1.403 . S
C1381 C1382 1.392 . S
C1381 C1385 1.495 . S
C1382 C1381 1.392 . S
C1382 C1383 1.385 . S
C1382 C1384 1.478 . S
C1383 H1377 0.930 . S
C1383 C1379 1.400 . S
C1383 C1382 1.385 . S
C1384 C1382 1.478 . S
C1384 C1386 1.381 . S
C1384 C1390 1.383 . S
C1385 C1381 1.495 . S
C1385 H1391 0.959 . S
C1385 H1392 0.961 . S
C1385 H1393 0.960 . S
C1386 C1384 1.381 . S
C1386 C1387 1.394 . S
C1386 H1394 0.930 . S
C1387 C1386 1.394 . S
C1387 C1388 1.383 . S
C1387 H1395 0.929 . S
C1388 C1387 1.383 . S
C1388 C1389 1.377 . S
C1389 H1373 0.930 . S
C1389 C1388 1.377 . S
C1389 C1390 1.379 . S
C1390 H1374 0.931 . S
C1390 C1384 1.383 . S
C1390 C1389 1.379 . S
H1391 C1385 0.959 . S
H1392 C1385 0.961 . S
H1393 C1385 0.960 . S
H1394 C1386 0.930 . S
H1395 C1387 0.929 . S
H1396 C1404 0.929 . S
H1397 C1406 0.930 . S
H1398 C1408 0.930 . S
H1399 C1411 0.929 . S
H1400 C1414 0.930 . S
H1401 C1416 0.960 . S
H1402 C1416 0.960 . S
H1403 C1416 0.960 . S
C1404 H1396 0.929 . S
C1404 C1405 1.377 . S
C1404 C1406 1.384 . S
C1405 C1404 1.377 . S
C1405 C1411 1.390 1_455 S
C1406 H1397 0.930 . S
C1406 C1404 1.384 . S
C1406 C1407 1.372 . S
C1407 C1406 1.372 . S
C1407 C1408 1.400 1_455 S
C1407 C1412 1.490 . S
C1408 H1398 0.930 . S
C1408 C1407 1.400 1_655 S
C1408 C1411 1.386 . S
H1409 C1425 0.930 . S
H1410 C1426 0.931 . S
C1411 H1399 0.929 . S
C1411 C1405 1.390 1_655 S
C1411 C1408 1.386 . S
C1412 C1407 1.490 . S
C1412 C1414 1.395 . S
C1412 C1415 1.403 1_455 S
H1413 C1419 0.930 . S
C1414 H1400 0.930 . S
C1414 C1412 1.395 . S
C1414 C1417 1.403 . S
C1415 C1412 1.403 1_655 S
C1415 C1416 1.524 . S
C1415 C1419 1.400 . S
C1416 H1401 0.960 . S
C1416 H1402 0.960 . S
C1416 H1403 0.960 . S
C1416 C1415 1.524 . S
C1417 C1414 1.403 . S
C1417 C1418 1.392 1_455 S
C1417 C1421 1.495 . S
C1418 C1417 1.392 1_655 S
C1418 C1419 1.385 . S
C1418 C1420 1.478 . S
C1419 H1413 0.930 . S
C1419 C1415 1.400 . S
C1419 C1418 1.385 . S
C1420 C1418 1.478 . S
C1420 C1422 1.381 1_655 S
C1420 C1426 1.383 . S
C1421 C1417 1.495 . S
C1421 H1427 0.959 . S
C1421 H1428 0.961 . S
C1421 H1429 0.960 . S
C1422 C1420 1.381 1_455 S
C1422 C1423 1.394 . S
C1422 H1430 0.930 . S
C1423 C1422 1.394 . S
C1423 C1424 1.383 1_455 S
C1423 H1431 0.929 . S
C1424 C1423 1.383 1_655 S
C1424 C1425 1.377 . S
C1425 H1409 0.930 . S
C1425 C1424 1.377 . S
C1425 C1426 1.379 . S
C1426 H1410 0.931 . S
C1426 C1420 1.383 . S
C1426 C1425 1.379 . S
H1427 C1421 0.959 . S
H1428 C1421 0.961 . S
H1429 C1421 0.960 . S
H1430 C1422 0.930 . S
H1431 C1423 0.929 . S
H1432 C1440 0.929 . S
H1433 C1442 0.930 . S
H1434 C1444 0.930 . S
H1435 C1447 0.929 . S
H1436 C1450 0.930 . S
H1437 C1452 0.960 . S
H1438 C1452 0.960 . S
H1439 C1452 0.960 . S
C1440 H1432 0.929 . S
C1440 C1441 1.377 . S
C1440 C1442 1.384 . S
C1441 C1440 1.377 . S
C1441 C1447 1.390 . S
C1442 H1433 0.930 . S
C1442 C1440 1.384 . S
C1442 C1443 1.372 . S
C1443 C1442 1.372 . S
C1443 C1444 1.400 . S
C1443 C1448 1.490 . S
C1444 H1434 0.930 . S
C1444 C1443 1.400 . S
C1444 C1447 1.386 . S
H1445 C1461 0.930 . S
H1446 C1462 0.931 . S
C1447 H1435 0.929 . S
C1447 C1441 1.390 . S
C1447 C1444 1.386 . S
C1448 C1443 1.490 . S
C1448 C1450 1.395 . S
C1448 C1451 1.403 . S
H1449 C1455 0.930 . S
C1450 H1436 0.930 . S
C1450 C1448 1.395 . S
C1450 C1453 1.403 . S
C1451 C1448 1.403 . S
C1451 C1452 1.524 . S
C1451 C1455 1.400 . S
C1452 H1437 0.960 . S
C1452 H1438 0.960 . S
C1452 H1439 0.960 . S
C1452 C1451 1.524 . S
C1453 C1450 1.403 . S
C1453 C1454 1.392 . S
C1453 C1457 1.495 . S
C1454 C1453 1.392 . S
C1454 C1455 1.385 . S
C1454 C1456 1.478 . S
C1455 H1449 0.930 . S
C1455 C1451 1.400 . S
C1455 C1454 1.385 . S
C1456 C1454 1.478 . S
C1456 C1458 1.381 . S
C1456 C1462 1.383 . S
C1457 C1453 1.495 . S
C1457 H1463 0.959 . S
C1457 H1464 0.961 . S
C1457 H1465 0.960 . S
C1458 C1456 1.381 . S
C1458 C1459 1.394 . S
C1458 H1466 0.930 . S
C1459 C1458 1.394 . S
C1459 C1460 1.383 . S
C1459 H1467 0.929 . S
C1460 C1459 1.383 . S
C1460 C1461 1.377 . S
C1461 H1445 0.930 . S
C1461 C1460 1.377 . S
C1461 C1462 1.379 . S
C1462 H1446 0.931 . S
C1462 C1456 1.383 . S
C1462 C1461 1.379 . S
H1463 C1457 0.959 . S
H1464 C1457 0.961 . S
H1465 C1457 0.960 . S
H1466 C1458 0.930 . S
H1467 C1459 0.929 . S
H1468 C1476 0.929 . S
H1469 C1478 0.930 . S
H1470 C1480 0.930 . S
H1471 C1483 0.929 . S
H1472 C1486 0.930 . S
H1473 C1488 0.960 . S
H1474 C1488 0.960 . S
H1475 C1488 0.960 . S
C1476 H1468 0.929 . S
C1476 C1477 1.377 . S
C1476 C1478 1.384 . S
C1477 C1476 1.377 . S
C1477 C1483 1.390 . S
C1478 H1469 0.930 . S
C1478 C1476 1.384 . S
C1478 C1479 1.372 . S
C1479 C1478 1.372 . S
C1479 C1480 1.400 . S
C1479 C1484 1.490 . S
C1480 H1470 0.930 . S
C1480 C1479 1.400 . S
C1480 C1483 1.386 . S
H1481 C1497 0.930 . S
H1482 C1498 0.931 . S
C1483 H1471 0.929 . S
C1483 C1477 1.390 . S
C1483 C1480 1.386 . S
C1484 C1479 1.490 . S
C1484 C1486 1.395 . S
C1484 C1487 1.403 . S
H1485 C1491 0.930 . S
C1486 H1472 0.930 . S
C1486 C1484 1.395 . S
C1486 C1489 1.403 . S
C1487 C1484 1.403 . S
C1487 C1488 1.524 . S
C1487 C1491 1.400 . S
C1488 H1473 0.960 . S
C1488 H1474 0.960 . S
C1488 H1475 0.960 . S
C1488 C1487 1.524 . S
C1489 C1486 1.403 . S
C1489 C1490 1.392 . S
C1489 C1493 1.495 . S
C1490 C1489 1.392 . S
C1490 C1491 1.385 . S
C1490 C1492 1.478 . S
C1491 H1485 0.930 . S
C1491 C1487 1.400 . S
C1491 C1490 1.385 . S
C1492 C1490 1.478 . S
C1492 C1494 1.381 . S
C1492 C1498 1.383 . S
C1493 C1489 1.495 . S
C1493 H1499 0.959 . S
C1493 H1500 0.961 . S
C1493 H1501 0.960 . S
C1494 C1492 1.381 . S
C1494 C1495 1.394 . S
C1494 H1502 0.930 . S
C1495 C1494 1.394 . S
C1495 C1496 1.383 . S
C1495 H1503 0.929 . S
C1496 C1495 1.383 . S
C1496 C1497 1.377 . S
C1497 H1481 0.930 . S
C1497 C1496 1.377 . S
C1497 C1498 1.379 . S
C1498 H1482 0.931 . S
C1498 C1492 1.383 . S
C1498 C1497 1.379 . S
H1499 C1493 0.959 . S
H1500 C1493 0.961 . S
H1501 C1493 0.960 . S
H1502 C1494 0.930 . S
H1503 C1495 0.929 . S
H1504 C1512 0.929 . S
H1505 C1514 0.930 . S
H1506 C1516 0.930 . S
H1507 C1519 0.929 . S
H1508 C1522 0.930 . S
H1509 C1524 0.960 . S
H1510 C1524 0.960 . S
H1511 C1524 0.960 . S
C1512 H1504 0.929 . S
C1512 C1513 1.377 . S
C1512 C1514 1.384 . S
C1513 C1512 1.377 . S
C1513 C1519 1.390 . S
C1514 H1505 0.930 . S
C1514 C1512 1.384 . S
C1514 C1515 1.372 . S
C1515 C1514 1.372 . S
C1515 C1516 1.400 . S
C1515 C1520 1.490 . S
C1516 H1506 0.930 . S
C1516 C1515 1.400 . S
C1516 C1519 1.386 . S
H1517 C1533 0.930 . S
H1518 C1534 0.931 . S
C1519 H1507 0.929 . S
C1519 C1513 1.390 . S
C1519 C1516 1.386 . S
C1520 C1515 1.490 . S
C1520 C1522 1.395 . S
C1520 C1523 1.403 . S
H1521 C1527 0.930 . S
C1522 H1508 0.930 . S
C1522 C1520 1.395 . S
C1522 C1525 1.403 . S
C1523 C1520 1.403 . S
C1523 C1524 1.524 . S
C1523 C1527 1.400 . S
C1524 H1509 0.960 . S
C1524 H1510 0.960 . S
C1524 H1511 0.960 . S
C1524 C1523 1.524 . S
C1525 C1522 1.403 . S
C1525 C1526 1.392 . S
C1525 C1529 1.495 . S
C1526 C1525 1.392 . S
C1526 C1527 1.385 . S
C1526 C1528 1.478 . S
C1527 H1521 0.930 . S
C1527 C1523 1.400 . S
C1527 C1526 1.385 . S
C1528 C1526 1.478 . S
C1528 C1530 1.381 . S
C1528 C1534 1.383 . S
C1529 C1525 1.495 . S
C1529 H1535 0.959 . S
C1529 H1536 0.961 . S
C1529 H1537 0.960 . S
C1530 C1528 1.381 . S
C1530 C1531 1.394 . S
C1530 H1538 0.930 . S
C1531 C1530 1.394 . S
C1531 C1532 1.383 . S
C1531 H1539 0.929 . S
C1532 C1531 1.383 . S
C1532 C1533 1.377 . S
C1533 H1517 0.930 . S
C1533 C1532 1.377 . S
C1533 C1534 1.379 . S
C1534 H1518 0.931 . S
C1534 C1528 1.383 . S
C1534 C1533 1.379 . S
H1535 C1529 0.959 . S
H1536 C1529 0.961 . S
H1537 C1529 0.960 . S
H1538 C1530 0.930 . S
H1539 C1531 0.929 . S
H1540 C1548 0.929 . S
H1541 C1550 0.930 . S
H1542 C1552 0.930 . S
H1543 C1555 0.929 . S
H1544 C1558 0.930 . S
H1545 C1560 0.960 . S
H1546 C1560 0.960 . S
H1547 C1560 0.960 . S
C1548 H1540 0.929 . S
C1548 C1549 1.377 . S
C1548 C1550 1.384 . S
C1549 C1548 1.377 . S
C1549 C1555 1.390 . S
C1550 H1541 0.930 . S
C1550 C1548 1.384 . S
C1550 C1551 1.372 . S
C1551 C1550 1.372 . S
C1551 C1552 1.400 . S
C1551 C1556 1.490 . S
C1552 H1542 0.930 . S
C1552 C1551 1.400 . S
C1552 C1555 1.386 . S
H1553 C1569 0.930 . S
H1554 C1570 0.931 . S
C1555 H1543 0.929 . S
C1555 C1549 1.390 . S
C1555 C1552 1.386 . S
C1556 C1551 1.490 . S
C1556 C1558 1.395 . S
C1556 C1559 1.403 . S
H1557 C1563 0.930 . S
C1558 H1544 0.930 . S
C1558 C1556 1.395 . S
C1558 C1561 1.403 . S
C1559 C1556 1.403 . S
C1559 C1560 1.524 . S
C1559 C1563 1.400 . S
C1560 H1545 0.960 . S
C1560 H1546 0.960 . S
C1560 H1547 0.960 . S
C1560 C1559 1.524 . S
C1561 C1558 1.403 . S
C1561 C1562 1.392 . S
C1561 C1565 1.495 . S
C1562 C1561 1.392 . S
C1562 C1563 1.385 . S
C1562 C1564 1.478 . S
C1563 H1557 0.930 . S
C1563 C1559 1.400 . S
C1563 C1562 1.385 . S
C1564 C1562 1.478 . S
C1564 C1566 1.381 . S
C1564 C1570 1.383 . S
C1565 C1561 1.495 . S
C1565 H1571 0.959 . S
C1565 H1572 0.961 . S
C1565 H1573 0.960 . S
C1566 C1564 1.381 . S
C1566 C1567 1.394 . S
C1566 H1574 0.930 . S
C1567 C1566 1.394 . S
C1567 C1568 1.383 . S
C1567 H1575 0.929 . S
C1568 C1567 1.383 . S
C1568 C1569 1.377 . S
C1569 H1553 0.930 . S
C1569 C1568 1.377 . S
C1569 C1570 1.379 . S
C1570 H1554 0.931 . S
C1570 C1564 1.383 . S
C1570 C1569 1.379 . S
H1571 C1565 0.959 . S
H1572 C1565 0.961 . S
H1573 C1565 0.960 . S
H1574 C1566 0.930 . S
H1575 C1567 0.929 . S
H1576 C1584 0.929 . S
H1577 C1586 0.930 . S
H1578 C1588 0.940 . S
H1579 C1591 0.929 . S
H1580 C1594 0.930 . S
H1581 C1596 0.960 . S
H1582 C1596 0.960 . S
H1583 C1596 0.960 . S
C1584 H1576 0.929 . S
C1584 C1585 1.377 . S
C1584 C1586 1.384 . S
C1585 C1584 1.377 . S
C1585 C1591 1.390 . S
C1586 H1577 0.930 . S
C1586 C1584 1.384 . S
C1586 C1587 1.372 . S
C1587 C1586 1.372 . S
C1587 C1588 1.401 1_565 S
C1587 C1592 1.490 1_565 S
C1588 H1578 0.940 . S
C1588 C1587 1.401 1_545 S
C1588 C1591 1.375 1_545 S
H1589 C1605 0.930 . S
H1590 C1606 0.931 . S
C1591 H1579 0.929 . S
C1591 C1585 1.390 . S
C1591 C1588 1.375 1_565 S
C1592 C1587 1.490 1_545 S
C1592 C1594 1.395 1_545 S
C1592 C1595 1.403 . S
H1593 C1599 0.930 . S
C1594 H1580 0.930 . S
C1594 C1592 1.395 1_565 S
C1594 C1597 1.403 . S
C1595 C1592 1.403 . S
C1595 C1596 1.524 . S
C1595 C1599 1.400 . S
C1596 H1581 0.960 . S
C1596 H1582 0.960 . S
C1596 H1583 0.960 . S
C1596 C1595 1.524 . S
C1597 C1594 1.403 . S
C1597 C1598 1.392 1_565 S
C1597 C1601 1.495 . S
C1598 C1597 1.392 1_545 S
C1598 C1599 1.385 . S
C1598 C1600 1.478 . S
C1599 H1593 0.930 . S
C1599 C1595 1.400 . S
C1599 C1598 1.385 . S
C1600 C1598 1.478 . S
C1600 C1602 1.381 . S
C1600 C1606 1.383 . S
C1601 C1597 1.495 . S
C1601 H1607 0.959 . S
C1601 H1608 0.961 . S
C1601 H1609 0.960 . S
C1602 C1600 1.381 . S
C1602 C1603 1.394 . S
C1602 H1610 0.930 . S
C1603 C1602 1.394 . S
C1603 C1604 1.383 . S
C1603 H1611 0.929 . S
C1604 C1603 1.383 . S
C1604 C1605 1.377 . S
C1605 H1589 0.930 . S
C1605 C1604 1.377 . S
C1605 C1606 1.379 . S
C1606 H1590 0.931 . S
C1606 C1600 1.383 . S
C1606 C1605 1.379 . S
H1607 C1601 0.959 . S
H1608 C1601 0.961 . S
H1609 C1601 0.960 . S
H1610 C1602 0.930 . S
H1611 C1603 0.929 . S
H1612 C1620 0.929 . S
H1613 C1622 0.930 . S
H1614 C1624 0.930 . S
H1615 C1627 0.929 . S
H1616 C1630 0.930 . S
H1617 C1632 0.960 . S
H1618 C1632 0.960 1_554 S
H1619 C1632 0.960 . S
C1620 H1612 0.929 . S
C1620 C1621 1.377 . S
C1620 C1622 1.384 . S
C1621 C1620 1.377 . S
C1621 C1627 1.390 1_554 S
C1622 H1613 0.930 . S
C1622 C1620 1.384 . S
C1622 C1623 1.372 . S
C1623 C1622 1.372 . S
C1623 C1624 1.400 1_554 S
C1623 C1628 1.490 . S
C1624 H1614 0.930 . S
C1624 C1623 1.400 1_556 S
C1624 C1627 1.386 . S
H1625 C1641 0.944 . S
H1626 C1642 0.931 1_556 S
C1627 H1615 0.929 . S
C1627 C1621 1.390 1_556 S
C1627 C1624 1.386 . S
C1628 C1623 1.490 . S
C1628 C1630 1.395 . S
C1628 C1631 1.403 . S
H1629 C1635 0.930 . S
C1630 H1616 0.930 . S
C1630 C1628 1.395 . S
C1630 C1633 1.403 . S
C1631 C1628 1.403 . S
C1631 C1632 1.524 1_554 S
C1631 C1635 1.400 . S
C1632 H1617 0.960 . S
C1632 H1618 0.960 1_556 S
C1632 H1619 0.960 . S
C1632 C1631 1.524 1_556 S
C1633 C1630 1.403 . S
C1633 C1634 1.392 . S
C1633 C1637 1.495 . S
C1634 C1633 1.392 . S
C1634 C1635 1.385 . S
C1634 C1636 1.478 . S
C1635 H1629 0.930 . S
C1635 C1631 1.400 . S
C1635 C1634 1.385 . S
C1636 C1634 1.478 . S
C1636 C1638 1.381 . S
C1636 C1642 1.383 . S
C1637 C1633 1.495 . S
C1637 H1643 0.959 . S
C1637 H1644 0.961 . S
C1637 H1645 0.960 . S
C1638 C1636 1.381 . S
C1638 C1639 1.394 . S
C1638 H1646 0.930 . S
C1639 C1638 1.394 . S
C1639 C1640 1.383 . S
C1639 H1647 0.929 . S
C1640 C1639 1.383 . S
C1640 C1641 1.377 . S
C1641 H1625 0.944 . S
C1641 C1640 1.377 . S
C1641 C1642 1.379 . S
C1642 H1626 0.931 1_554 S
C1642 C1636 1.383 . S
C1642 C1641 1.379 . S
H1643 C1637 0.959 . S
H1644 C1637 0.961 . S
H1645 C1637 0.960 . S
H1646 C1638 0.930 . S
H1647 C1639 0.929 . S
H1648 C1656 0.929 . S
H1649 C1658 0.930 . S
H1650 C1660 0.930 . S
H1651 C1663 0.929 . S
H1652 C1666 0.930 . S
H1653 C1668 0.960 . S
H1654 C1668 0.960 . S
H1655 C1668 0.960 . S
C1656 H1648 0.929 . S
C1656 C1657 1.377 . S
C1656 C1658 1.384 . S
C1657 C1656 1.377 . S
C1657 C1663 1.390 . S
C1658 H1649 0.930 . S
C1658 C1656 1.384 . S
C1658 C1659 1.372 . S
C1659 C1658 1.372 . S
C1659 C1660 1.400 . S
C1659 C1664 1.490 . S
C1660 H1650 0.930 . S
C1660 C1659 1.400 . S
C1660 C1663 1.386 . S
H1661 C1677 0.930 . S
H1662 C1678 0.931 . S
C1663 H1651 0.929 . S
C1663 C1657 1.390 . S
C1663 C1660 1.386 . S
C1664 C1659 1.490 . S
C1664 C1666 1.395 . S
C1664 C1667 1.403 . S
H1665 C1671 0.930 . S
C1666 H1652 0.930 . S
C1666 C1664 1.395 . S
C1666 C1669 1.403 . S
C1667 C1664 1.403 . S
C1667 C1668 1.524 . S
C1667 C1671 1.400 . S
C1668 H1653 0.960 . S
C1668 H1654 0.960 . S
C1668 H1655 0.960 . S
C1668 C1667 1.524 . S
C1669 C1666 1.403 . S
C1669 C1670 1.392 . S
C1669 C1673 1.495 . S
C1670 C1669 1.392 . S
C1670 C1671 1.385 . S
C1670 C1672 1.478 . S
C1671 H1665 0.930 . S
C1671 C1667 1.400 . S
C1671 C1670 1.385 . S
C1672 C1670 1.478 . S
C1672 C1674 1.381 . S
C1672 C1678 1.383 . S
C1673 C1669 1.495 . S
C1673 H1679 0.959 . S
C1673 H1680 0.961 . S
C1673 H1681 0.960 . S
C1674 C1672 1.381 . S
C1674 C1675 1.394 . S
C1674 H1682 0.930 . S
C1675 C1674 1.394 . S
C1675 C1676 1.383 . S
C1675 H1683 0.929 . S
C1676 C1675 1.383 . S
C1676 C1677 1.377 . S
C1677 H1661 0.930 . S
C1677 C1676 1.377 . S
C1677 C1678 1.379 . S
C1678 H1662 0.931 . S
C1678 C1672 1.383 . S
C1678 C1677 1.379 . S
H1679 C1673 0.959 . S
H1680 C1673 0.961 . S
H1681 C1673 0.960 . S
H1682 C1674 0.930 . S
H1683 C1675 0.929 . S
H1684 C1692 0.929 . S
H1685 C1694 0.930 . S
H1686 C1696 0.930 . S
H1687 C1699 0.929 . S
H1688 C1702 0.930 . S
H1689 C1704 0.960 . S
H1690 C1704 0.960 . S
H1691 C1704 0.960 . S
C1692 H1684 0.929 . S
C1692 C1693 1.377 . S
C1692 C1694 1.384 . S
C1693 C1692 1.377 . S
C1693 C1699 1.390 . S
C1694 H1685 0.930 . S
C1694 C1692 1.384 . S
C1694 C1695 1.372 . S
C1695 C1694 1.372 . S
C1695 C1696 1.400 . S
C1695 C1700 1.490 . S
C1696 H1686 0.930 . S
C1696 C1695 1.400 . S
C1696 C1699 1.386 . S
H1697 C1713 0.930 . S
H1698 C1714 0.931 . S
C1699 H1687 0.929 . S
C1699 C1693 1.390 . S
C1699 C1696 1.386 . S
C1700 C1695 1.490 . S
C1700 C1702 1.395 . S
C1700 C1703 1.403 . S
H1701 C1707 0.930 . S
C1702 H1688 0.930 . S
C1702 C1700 1.395 . S
C1702 C1705 1.403 . S
C1703 C1700 1.403 . S
C1703 C1704 1.524 . S
C1703 C1707 1.400 . S
C1704 H1689 0.960 . S
C1704 H1690 0.960 . S
C1704 H1691 0.960 . S
C1704 C1703 1.524 . S
C1705 C1702 1.403 . S
C1705 C1706 1.392 . S
C1705 C1709 1.495 . S
C1706 C1705 1.392 . S
C1706 C1707 1.385 . S
C1706 C1708 1.478 . S
C1707 H1701 0.930 . S
C1707 C1703 1.400 . S
C1707 C1706 1.385 . S
C1708 C1706 1.478 . S
C1708 C1710 1.381 . S
C1708 C1714 1.383 . S
C1709 C1705 1.495 . S
C1709 H1715 0.959 . S
C1709 H1716 0.961 . S
C1709 H1717 0.960 . S
C1710 C1708 1.381 . S
C1710 C1711 1.394 . S
C1710 H1718 0.930 . S
C1711 C1710 1.394 . S
C1711 C1712 1.383 . S
C1711 H1719 0.929 . S
C1712 C1711 1.383 . S
C1712 C1713 1.377 . S
C1713 H1697 0.930 . S
C1713 C1712 1.377 . S
C1713 C1714 1.379 . S
C1714 H1698 0.931 . S
C1714 C1708 1.383 . S
C1714 C1713 1.379 . S
H1715 C1709 0.959 . S
H1716 C1709 0.961 . S
H1717 C1709 0.960 . S
H1718 C1710 0.930 . S
H1719 C1711 0.929 . S
H1720 C1728 0.929 . S
H1721 C1730 0.930 . S
H1722 C1732 0.930 . S
H1723 C1735 0.929 . S
H1724 C1738 0.930 . S
H1725 C1740 0.960 . S
H1726 C1740 0.960 . S
H1727 C1740 0.960 . S
C1728 H1720 0.929 . S
C1728 C1729 1.377 . S
C1728 C1730 1.384 . S
C1729 C1728 1.377 . S
C1729 C1735 1.390 . S
C1730 H1721 0.930 . S
C1730 C1728 1.384 . S
C1730 C1731 1.372 . S
C1731 C1730 1.372 . S
C1731 C1732 1.400 . S
C1731 C1736 1.490 . S
C1732 H1722 0.930 . S
C1732 C1731 1.400 . S
C1732 C1735 1.386 . S
H1733 C1749 0.930 . S
H1734 C1750 0.931 . S
C1735 H1723 0.929 . S
C1735 C1729 1.390 . S
C1735 C1732 1.386 . S
C1736 C1731 1.490 . S
C1736 C1738 1.395 . S
C1736 C1739 1.403 . S
H1737 C1743 0.930 . S
C1738 H1724 0.930 . S
C1738 C1736 1.395 . S
C1738 C1741 1.403 . S
C1739 C1736 1.403 . S
C1739 C1740 1.524 . S
C1739 C1743 1.400 . S
C1740 H1725 0.960 . S
C1740 H1726 0.960 . S
C1740 H1727 0.960 . S
C1740 C1739 1.524 . S
C1741 C1738 1.403 . S
C1741 C1742 1.392 . S
C1741 C1745 1.495 . S
C1742 C1741 1.392 . S
C1742 C1743 1.385 . S
C1742 C1744 1.478 . S
C1743 H1737 0.930 . S
C1743 C1739 1.400 . S
C1743 C1742 1.385 . S
C1744 C1742 1.478 . S
C1744 C1746 1.381 . S
C1744 C1750 1.383 . S
C1745 C1741 1.495 . S
C1745 H1751 0.959 . S
C1745 H1752 0.961 . S
C1745 H1753 0.960 . S
C1746 C1744 1.381 . S
C1746 C1747 1.394 . S
C1746 H1754 0.930 . S
C1747 C1746 1.394 . S
C1747 C1748 1.383 . S
C1747 H1755 0.929 . S
C1748 C1747 1.383 . S
C1748 C1749 1.377 . S
C1749 H1733 0.930 . S
C1749 C1748 1.377 . S
C1749 C1750 1.379 . S
C1750 H1734 0.931 . S
C1750 C1744 1.383 . S
C1750 C1749 1.379 . S
H1751 C1745 0.959 . S
H1752 C1745 0.961 . S
H1753 C1745 0.960 . S
H1754 C1746 0.930 . S
H1755 C1747 0.929 . S
H1756 C1764 0.929 . S
H1757 C1766 0.930 . S
H1758 C1768 0.930 . S
H1759 C1771 0.929 . S
H1760 C1774 0.930 . S
H1761 C1776 0.960 . S
H1762 C1776 0.960 . S
H1763 C1776 0.960 . S
C1764 H1756 0.929 . S
C1764 C1765 1.377 . S
C1764 C1766 1.384 . S
C1765 C1764 1.377 . S
C1765 C1771 1.390 . S
C1766 H1757 0.930 . S
C1766 C1764 1.384 . S
C1766 C1767 1.372 . S
C1767 C1766 1.372 . S
C1767 C1768 1.400 . S
C1767 C1772 1.490 . S
C1768 H1758 0.930 . S
C1768 C1767 1.400 . S
C1768 C1771 1.386 . S
H1769 C1785 0.930 . S
H1770 C1786 0.931 . S
C1771 H1759 0.929 . S
C1771 C1765 1.390 . S
C1771 C1768 1.386 . S
C1772 C1767 1.490 . S
C1772 C1774 1.395 . S
C1772 C1775 1.403 . S
H1773 C1779 0.930 . S
C1774 H1760 0.930 . S
C1774 C1772 1.395 . S
C1774 C1777 1.403 . S
C1775 C1772 1.403 . S
C1775 C1776 1.524 . S
C1775 C1779 1.400 . S
C1776 H1761 0.960 . S
C1776 H1762 0.960 . S
C1776 H1763 0.960 . S
C1776 C1775 1.524 . S
C1777 C1774 1.403 . S
C1777 C1778 1.392 . S
C1777 C1781 1.495 . S
C1778 C1777 1.392 . S
C1778 C1779 1.385 . S
C1778 C1780 1.478 . S
C1779 H1773 0.930 . S
C1779 C1775 1.400 . S
C1779 C1778 1.385 . S
C1780 C1778 1.478 . S
C1780 C1782 1.381 . S
C1780 C1786 1.383 . S
C1781 C1777 1.495 . S
C1781 H1787 0.959 . S
C1781 H1788 0.961 . S
C1781 H1789 0.960 . S
C1782 C1780 1.381 . S
C1782 C1783 1.394 . S
C1782 H1790 0.930 . S
C1783 C1782 1.394 . S
C1783 C1784 1.383 . S
C1783 H1791 0.929 . S
C1784 C1783 1.383 . S
C1784 C1785 1.377 . S
C1785 H1769 0.930 . S
C1785 C1784 1.377 . S
C1785 C1786 1.379 . S
C1786 H1770 0.931 . S
C1786 C1780 1.383 . S
C1786 C1785 1.379 . S
H1787 C1781 0.959 . S
H1788 C1781 0.961 . S
H1789 C1781 0.960 . S
H1790 C1782 0.930 . S
H1791 C1783 0.929 . S
H1792 C1800 0.929 . S
H1793 C1802 0.930 . S
H1794 C1804 0.930 . S
H1795 C1807 0.929 . S
H1796 C1810 0.930 . S
H1797 C1812 0.960 . S
H1798 C1812 0.960 . S
H1799 C1812 0.960 . S
C1800 H1792 0.929 . S
C1800 C1801 1.377 . S
C1800 C1802 1.384 . S
C1801 C1800 1.377 . S
C1801 C1807 1.390 . S
C1802 H1793 0.930 . S
C1802 C1800 1.384 . S
C1802 C1803 1.372 . S
C1803 C1802 1.372 . S
C1803 C1804 1.400 . S
C1803 C1808 1.490 . S
C1804 H1794 0.930 . S
C1804 C1803 1.400 . S
C1804 C1807 1.386 . S
H1805 C1821 0.930 . S
H1806 C1822 0.931 . S
C1807 H1795 0.929 . S
C1807 C1801 1.390 . S
C1807 C1804 1.386 . S
C1808 C1803 1.490 . S
C1808 C1810 1.395 . S
C1808 C1811 1.403 . S
H1809 C1815 0.930 . S
C1810 H1796 0.930 . S
C1810 C1808 1.395 . S
C1810 C1813 1.403 . S
C1811 C1808 1.403 . S
C1811 C1812 1.524 . S
C1811 C1815 1.400 . S
C1812 H1797 0.960 . S
C1812 H1798 0.960 . S
C1812 H1799 0.960 . S
C1812 C1811 1.524 . S
C1813 C1810 1.403 . S
C1813 C1814 1.392 . S
C1813 C1817 1.495 . S
C1814 C1813 1.392 . S
C1814 C1815 1.385 . S
C1814 C1816 1.478 . S
C1815 H1809 0.930 . S
C1815 C1811 1.400 . S
C1815 C1814 1.385 . S
C1816 C1814 1.478 . S
C1816 C1818 1.381 . S
C1816 C1822 1.383 . S
C1817 C1813 1.495 . S
C1817 H1823 0.959 . S
C1817 H1824 0.961 . S
C1817 H1825 0.960 . S
C1818 C1816 1.381 . S
C1818 C1819 1.394 . S
C1818 H1826 0.930 . S
C1819 C1818 1.394 . S
C1819 C1820 1.383 . S
C1819 H1827 0.929 . S
C1820 C1819 1.383 . S
C1820 C1821 1.377 . S
C1821 H1805 0.930 . S
C1821 C1820 1.377 . S
C1821 C1822 1.379 . S
C1822 H1806 0.931 . S
C1822 C1816 1.383 . S
C1822 C1821 1.379 . S
H1823 C1817 0.959 . S
H1824 C1817 0.961 . S
H1825 C1817 0.960 . S
H1826 C1818 0.930 . S
H1827 C1819 0.929 . S
H1828 C1836 0.929 . S
H1829 C1838 0.930 . S
H1830 C1840 0.930 . S
H1831 C1843 0.929 . S
H1832 C1846 0.930 . S
H1833 C1848 0.960 . S
H1834 C1848 0.960 . S
H1835 C1848 0.960 . S
C1836 H1828 0.929 . S
C1836 C1837 1.377 . S
C1836 C1838 1.384 . S
C1837 C1836 1.377 . S
C1837 C1843 1.390 . S
C1838 H1829 0.930 . S
C1838 C1836 1.384 . S
C1838 C1839 1.372 . S
C1839 C1838 1.372 . S
C1839 C1840 1.400 . S
C1839 C1844 1.490 . S
C1840 H1830 0.930 . S
C1840 C1839 1.400 . S
C1840 C1843 1.386 . S
H1841 C1857 0.930 . S
H1842 C1858 0.931 . S
C1843 H1831 0.929 . S
C1843 C1837 1.390 . S
C1843 C1840 1.386 . S
C1844 C1839 1.490 . S
C1844 C1846 1.395 . S
C1844 C1847 1.403 . S
H1845 C1851 0.930 . S
C1846 H1832 0.930 . S
C1846 C1844 1.395 . S
C1846 C1849 1.403 . S
C1847 C1844 1.403 . S
C1847 C1848 1.524 . S
C1847 C1851 1.400 . S
C1848 H1833 0.960 . S
C1848 H1834 0.960 . S
C1848 H1835 0.960 . S
C1848 C1847 1.524 . S
C1849 C1846 1.403 . S
C1849 C1850 1.392 . S
C1849 C1853 1.495 . S
C1850 C1849 1.392 . S
C1850 C1851 1.385 . S
C1850 C1852 1.478 . S
C1851 H1845 0.930 . S
C1851 C1847 1.400 . S
C1851 C1850 1.385 . S
C1852 C1850 1.478 . S
C1852 C1854 1.381 . S
C1852 C1858 1.383 . S
C1853 C1849 1.495 . S
C1853 H1859 0.959 . S
C1853 H1860 0.961 . S
C1853 H1861 0.960 . S
C1854 C1852 1.381 . S
C1854 C1855 1.394 . S
C1854 H1862 0.930 . S
C1855 C1854 1.394 . S
C1855 C1856 1.383 . S
C1855 H1863 0.929 . S
C1856 C1855 1.383 . S
C1856 C1857 1.377 . S
C1857 H1841 0.930 . S
C1857 C1856 1.377 . S
C1857 C1858 1.379 . S
C1858 H1842 0.931 . S
C1858 C1852 1.383 . S
C1858 C1857 1.379 . S
H1859 C1853 0.959 . S
H1860 C1853 0.961 . S
H1861 C1853 0.960 . S
H1862 C1854 0.930 . S
H1863 C1855 0.929 . S
H1864 C1872 0.929 . S
H1865 C1874 0.930 . S
H1866 C1876 0.930 . S
H1867 C1879 0.929 . S
H1868 C1882 0.930 . S
H1869 C1884 0.960 . S
H1870 C1884 0.960 . S
H1871 C1884 0.960 . S
C1872 H1864 0.929 . S
C1872 C1873 1.377 . S
C1872 C1874 1.384 . S
C1873 C1872 1.377 . S
C1873 C1879 1.390 . S
C1874 H1865 0.930 . S
C1874 C1872 1.384 . S
C1874 C1875 1.372 . S
C1875 C1874 1.372 . S
C1875 C1876 1.400 . S
C1875 C1880 1.490 . S
C1876 H1866 0.930 . S
C1876 C1875 1.400 . S
C1876 C1879 1.386 . S
H1877 C1893 0.930 . S
H1878 C1894 0.931 . S
C1879 H1867 0.929 . S
C1879 C1873 1.390 . S
C1879 C1876 1.386 . S
C1880 C1875 1.490 . S
C1880 C1882 1.395 . S
C1880 C1883 1.403 . S
H1881 C1887 0.930 . S
C1882 H1868 0.930 . S
C1882 C1880 1.395 . S
C1882 C1885 1.403 . S
C1883 C1880 1.403 . S
C1883 C1884 1.524 . S
C1883 C1887 1.400 . S
C1884 H1869 0.960 . S
C1884 H1870 0.960 . S
C1884 H1871 0.960 . S
C1884 C1883 1.524 . S
C1885 C1882 1.403 . S
C1885 C1886 1.392 . S
C1885 C1889 1.495 . S
C1886 C1885 1.392 . S
C1886 C1887 1.385 . S
C1886 C1888 1.478 . S
C1887 H1881 0.930 . S
C1887 C1883 1.400 . S
C1887 C1886 1.385 . S
C1888 C1886 1.478 . S
C1888 C1890 1.381 . S
C1888 C1894 1.383 . S
C1889 C1885 1.495 . S
C1889 H1895 0.959 . S
C1889 H1896 0.961 . S
C1889 H1897 0.960 . S
C1890 C1888 1.381 . S
C1890 C1891 1.394 . S
C1890 H1898 0.930 . S
C1891 C1890 1.394 . S
C1891 C1892 1.383 . S
C1891 H1899 0.929 . S
C1892 C1891 1.383 . S
C1892 C1893 1.377 . S
C1893 H1877 0.930 . S
C1893 C1892 1.377 . S
C1893 C1894 1.379 . S
C1894 H1878 0.931 . S
C1894 C1888 1.383 . S
C1894 C1893 1.379 . S
H1895 C1889 0.959 . S
H1896 C1889 0.961 . S
H1897 C1889 0.960 . S
H1898 C1890 0.930 . S
H1899 C1891 0.929 . S
H1900 C1908 0.929 . S
H1901 C1910 0.930 . S
H1902 C1912 0.930 . S
H1903 C1915 0.929 . S
H1904 C1918 0.930 . S
H1905 C1920 0.960 . S
H1906 C1920 0.960 . S
H1907 C1920 0.960 . S
C1908 H1900 0.929 . S
C1908 C1909 1.377 . S
C1908 C1910 1.384 . S
C1909 C1908 1.377 . S
C1909 C1915 1.390 . S
C1910 H1901 0.930 . S
C1910 C1908 1.384 . S
C1910 C1911 1.372 . S
C1911 C1910 1.372 . S
C1911 C1912 1.400 . S
C1911 C1916 1.490 . S
C1912 H1902 0.930 . S
C1912 C1911 1.400 . S
C1912 C1915 1.386 . S
H1913 C1929 0.930 . S
H1914 C1930 0.931 . S
C1915 H1903 0.929 . S
C1915 C1909 1.390 . S
C1915 C1912 1.386 . S
C1916 C1911 1.490 . S
C1916 C1918 1.395 . S
C1916 C1919 1.403 . S
H1917 C1923 0.930 . S
C1918 H1904 0.930 . S
C1918 C1916 1.395 . S
C1918 C1921 1.403 . S
C1919 C1916 1.403 . S
C1919 C1920 1.524 . S
C1919 C1923 1.400 . S
C1920 H1905 0.960 . S
C1920 H1906 0.960 . S
C1920 H1907 0.960 . S
C1920 C1919 1.524 . S
C1921 C1918 1.403 . S
C1921 C1922 1.392 . S
C1921 C1925 1.495 . S
C1922 C1921 1.392 . S
C1922 C1923 1.385 . S
C1922 C1924 1.478 . S
C1923 H1917 0.930 . S
C1923 C1919 1.400 . S
C1923 C1922 1.385 . S
C1924 C1922 1.478 . S
C1924 C1926 1.381 . S
C1924 C1930 1.383 . S
C1925 C1921 1.495 . S
C1925 H1931 0.959 . S
C1925 H1932 0.961 . S
C1925 H1933 0.960 . S
C1926 C1924 1.381 . S
C1926 C1927 1.394 . S
C1926 H1934 0.930 . S
C1927 C1926 1.394 . S
C1927 C1928 1.383 . S
C1927 H1935 0.929 . S
C1928 C1927 1.383 . S
C1928 C1929 1.377 . S
C1929 H1913 0.930 . S
C1929 C1928 1.377 . S
C1929 C1930 1.379 . S
C1930 H1914 0.931 . S
C1930 C1924 1.383 . S
C1930 C1929 1.379 . S
H1931 C1925 0.959 . S
H1932 C1925 0.961 . S
H1933 C1925 0.960 . S
H1934 C1926 0.930 . S
H1935 C1927 0.929 . S
H1936 C1944 0.929 . S
H1937 C1946 0.930 . S
H1938 C1948 0.930 . S
H1939 C1951 0.929 . S
H1940 C1954 0.930 . S
H1941 C1956 0.960 . S
H1942 C1956 0.960 . S
H1943 C1956 0.960 . S
C1944 H1936 0.929 . S
C1944 C1945 1.377 . S
C1944 C1946 1.384 . S
C1945 C1944 1.377 . S
C1945 C1951 1.390 . S
C1946 H1937 0.930 . S
C1946 C1944 1.384 . S
C1946 C1947 1.372 . S
C1947 C1946 1.372 . S
C1947 C1948 1.400 . S
C1947 C1952 1.490 . S
C1948 H1938 0.930 . S
C1948 C1947 1.400 . S
C1948 C1951 1.386 . S
H1949 C1965 0.930 . S
H1950 C1966 0.931 . S
C1951 H1939 0.929 . S
C1951 C1945 1.390 . S
C1951 C1948 1.386 . S
C1952 C1947 1.490 . S
C1952 C1954 1.395 . S
C1952 C1955 1.403 . S
H1953 C1959 0.930 . S
C1954 H1940 0.930 . S
C1954 C1952 1.395 . S
C1954 C1957 1.403 . S
C1955 C1952 1.403 . S
C1955 C1956 1.524 . S
C1955 C1959 1.400 . S
C1956 H1941 0.960 . S
C1956 H1942 0.960 . S
C1956 H1943 0.960 . S
C1956 C1955 1.524 . S
C1957 C1954 1.403 . S
C1957 C1958 1.392 . S
C1957 C1961 1.495 . S
C1958 C1957 1.392 . S
C1958 C1959 1.385 . S
C1958 C1960 1.478 . S
C1959 H1953 0.930 . S
C1959 C1955 1.400 . S
C1959 C1958 1.385 . S
C1960 C1958 1.478 . S
C1960 C1962 1.381 . S
C1960 C1966 1.383 . S
C1961 C1957 1.495 . S
C1961 H1967 0.959 . S
C1961 H1968 0.961 . S
C1961 H1969 0.960 . S
C1962 C1960 1.381 . S
C1962 C1963 1.394 . S
C1962 H1970 0.930 . S
C1963 C1962 1.394 . S
C1963 C1964 1.383 . S
C1963 H1971 0.929 . S
C1964 C1963 1.383 . S
C1964 C1965 1.377 . S
C1965 H1949 0.930 . S
C1965 C1964 1.377 . S
C1965 C1966 1.379 . S
C1966 H1950 0.931 . S
C1966 C1960 1.383 . S
C1966 C1965 1.379 . S
H1967 C1961 0.959 . S
H1968 C1961 0.961 . S
H1969 C1961 0.960 . S
H1970 C1962 0.930 . S
H1971 C1963 0.929 . S
H1972 C1980 0.929 1_556 S
H1973 C1982 0.930 1_556 S
H1974 C1984 0.930 . S
H1975 C1987 0.929 . S
H1976 C1990 0.930 . S
H1977 C1992 0.960 . S
H1978 C1992 0.960 . S
H1979 C1992 0.960 . S
C1980 H1972 0.929 1_554 S
C1980 C1981 1.377 . S
C1980 C1982 1.384 . S
C1981 C1980 1.377 . S
C1981 C1987 1.390 . S
C1982 H1973 0.930 1_554 S
C1982 C1980 1.384 . S
C1982 C1983 1.372 . S
C1983 C1982 1.372 . S
C1983 C1984 1.400 . S
C1983 C1988 1.490 . S
C1984 H1974 0.930 . S
C1984 C1983 1.400 . S
C1984 C1987 1.386 . S
H1985 C2001 0.930 . S
H1986 C2002 0.931 . S
C1987 H1975 0.929 . S
C1987 C1981 1.390 . S
C1987 C1984 1.386 . S
C1988 C1983 1.490 . S
C1988 C1990 1.395 . S
C1988 C1991 1.403 . S
H1989 C1995 0.930 . S
C1990 H1976 0.930 . S
C1990 C1988 1.395 . S
C1990 C1993 1.403 . S
C1991 C1988 1.403 . S
C1991 C1992 1.524 . S
C1991 C1995 1.400 . S
C1992 H1977 0.960 . S
C1992 H1978 0.960 . S
C1992 H1979 0.960 . S
C1992 C1991 1.524 . S
C1993 C1990 1.403 . S
C1993 C1994 1.392 . S
C1993 C1997 1.495 1_554 S
C1994 C1993 1.392 . S
C1994 C1995 1.385 . S
C1994 C1996 1.478 . S
C1995 H1989 0.930 . S
C1995 C1991 1.400 . S
C1995 C1994 1.385 . S
C1996 C1994 1.478 . S
C1996 C1998 1.381 1_554 S
C1996 C2002 1.383 . S
C1997 C1993 1.495 1_556 S
C1997 H2003 0.959 . S
C1997 H2004 0.961 1_556 S
C1997 H2005 0.960 . S
C1998 C1996 1.381 1_556 S
C1998 C1999 1.394 . S
C1998 H2006 0.930 . S
C1999 C1998 1.394 . S
C1999 C2000 1.383 1_556 S
C1999 H2007 0.929 . S
C2000 C1999 1.383 1_554 S
C2000 C2001 1.377 . S
C2001 H1985 0.930 . S
C2001 C2000 1.377 . S
C2001 C2002 1.379 . S
C2002 H1986 0.931 . S
C2002 C1996 1.383 . S
C2002 C2001 1.379 . S
H2003 C1997 0.959 . S
H2004 C1997 0.961 1_554 S
H2005 C1997 0.960 . S
H2006 C1998 0.930 . S
H2007 C1999 0.929 . S
H2008 C2016 0.929 . S
H2009 C2018 0.930 . S
H2010 C2020 0.930 . S
H2011 C2023 0.929 . S
H2012 C2026 0.930 . S
H2013 C2028 0.960 . S
H2014 C2028 0.960 . S
H2015 C2028 0.960 . S
C2016 H2008 0.929 . S
C2016 C2017 1.377 . S
C2016 C2018 1.384 . S
C2017 C2016 1.377 . S
C2017 C2023 1.390 . S
C2018 H2009 0.930 . S
C2018 C2016 1.384 . S
C2018 C2019 1.372 . S
C2019 C2018 1.372 . S
C2019 C2020 1.400 . S
C2019 C2024 1.490 . S
C2020 H2010 0.930 . S
C2020 C2019 1.400 . S
C2020 C2023 1.386 . S
H2021 C2037 0.930 . S
H2022 C2038 0.931 . S
C2023 H2011 0.929 . S
C2023 C2017 1.390 . S
C2023 C2020 1.386 . S
C2024 C2019 1.490 . S
C2024 C2026 1.395 . S
C2024 C2027 1.403 . S
H2025 C2031 0.930 . S
C2026 H2012 0.930 . S
C2026 C2024 1.395 . S
C2026 C2029 1.403 . S
C2027 C2024 1.403 . S
C2027 C2028 1.524 . S
C2027 C2031 1.400 . S
C2028 H2013 0.960 . S
C2028 H2014 0.960 . S
C2028 H2015 0.960 . S
C2028 C2027 1.524 . S
C2029 C2026 1.403 . S
C2029 C2030 1.392 . S
C2029 C2033 1.495 . S
C2030 C2029 1.392 . S
C2030 C2031 1.385 . S
C2030 C2032 1.478 . S
C2031 H2025 0.930 . S
C2031 C2027 1.400 . S
C2031 C2030 1.385 . S
C2032 C2030 1.478 . S
C2032 C2034 1.381 . S
C2032 C2038 1.383 . S
C2033 C2029 1.495 . S
C2033 H2039 0.959 . S
C2033 H2040 0.961 . S
C2033 H2041 0.960 . S
C2034 C2032 1.381 . S
C2034 C2035 1.394 . S
C2034 H2042 0.930 . S
C2035 C2034 1.394 . S
C2035 C2036 1.383 . S
C2035 H2043 0.929 . S
C2036 C2035 1.383 . S
C2036 C2037 1.377 . S
C2037 H2021 0.930 . S
C2037 C2036 1.377 . S
C2037 C2038 1.379 . S
C2038 H2022 0.931 . S
C2038 C2032 1.383 . S
C2038 C2037 1.379 . S
H2039 C2033 0.959 . S
H2040 C2033 0.961 . S
H2041 C2033 0.960 . S
H2042 C2034 0.930 . S
H2043 C2035 0.929 . S
H2044 C2052 0.929 . S
H2045 C2054 0.930 . S
H2046 C2056 0.930 . S
H2047 C2059 0.929 . S
H2048 C2062 0.930 . S
H2049 C2064 0.960 . S
H2050 C2064 0.960 . S
H2051 C2064 0.960 . S
C2052 H2044 0.929 . S
C2052 C2053 1.377 . S
C2052 C2054 1.384 . S
C2053 C2052 1.377 . S
C2053 C2059 1.390 . S
C2054 H2045 0.930 . S
C2054 C2052 1.384 . S
C2054 C2055 1.372 . S
C2055 C2054 1.372 . S
C2055 C2056 1.400 . S
C2055 C2060 1.490 . S
C2056 H2046 0.930 . S
C2056 C2055 1.400 . S
C2056 C2059 1.386 . S
H2057 C2073 0.930 . S
H2058 C2074 0.931 . S
C2059 H2047 0.929 . S
C2059 C2053 1.390 . S
C2059 C2056 1.386 . S
C2060 C2055 1.490 . S
C2060 C2062 1.395 . S
C2060 C2063 1.403 . S
H2061 C2067 0.930 . S
C2062 H2048 0.930 . S
C2062 C2060 1.395 . S
C2062 C2065 1.403 . S
C2063 C2060 1.403 . S
C2063 C2064 1.524 . S
C2063 C2067 1.400 . S
C2064 H2049 0.960 . S
C2064 H2050 0.960 . S
C2064 H2051 0.960 . S
C2064 C2063 1.524 . S
C2065 C2062 1.403 . S
C2065 C2066 1.392 . S
C2065 C2069 1.495 . S
C2066 C2065 1.392 . S
C2066 C2067 1.385 . S
C2066 C2068 1.478 . S
C2067 H2061 0.930 . S
C2067 C2063 1.400 . S
C2067 C2066 1.385 . S
C2068 C2066 1.478 . S
C2068 C2070 1.381 . S
C2068 C2074 1.383 . S
C2069 C2065 1.495 . S
C2069 H2075 0.959 . S
C2069 H2076 0.961 . S
C2069 H2077 0.960 . S
C2070 C2068 1.381 . S
C2070 C2071 1.394 . S
C2070 H2078 0.930 . S
C2071 C2070 1.394 . S
C2071 C2072 1.383 . S
C2071 H2079 0.929 . S
C2072 C2071 1.383 . S
C2072 C2073 1.377 . S
C2073 H2057 0.930 . S
C2073 C2072 1.377 . S
C2073 C2074 1.379 . S
C2074 H2058 0.931 . S
C2074 C2068 1.383 . S
C2074 C2073 1.379 . S
H2075 C2069 0.959 . S
H2076 C2069 0.961 . S
H2077 C2069 0.960 . S
H2078 C2070 0.930 . S
H2079 C2071 0.929 . S
H2080 C2088 0.929 . S
H2081 C2090 0.930 . S
H2082 C2092 0.930 . S
H2083 C2095 0.929 . S
H2084 C2098 0.930 . S
H2085 C2100 0.960 . S
H2086 C2100 0.960 . S
H2087 C2100 0.960 . S
C2088 H2080 0.929 . S
C2088 C2089 1.377 . S
C2088 C2090 1.384 . S
C2089 C2088 1.377 . S
C2089 C2095 1.390 . S
C2090 H2081 0.930 . S
C2090 C2088 1.384 . S
C2090 C2091 1.372 . S
C2091 C2090 1.372 . S
C2091 C2092 1.400 . S
C2091 C2096 1.490 . S
C2092 H2082 0.930 . S
C2092 C2091 1.400 . S
C2092 C2095 1.386 . S
H2093 C2109 0.930 . S
H2094 C2110 0.931 . S
C2095 H2083 0.929 . S
C2095 C2089 1.390 . S
C2095 C2092 1.386 . S
C2096 C2091 1.490 . S
C2096 C2098 1.395 . S
C2096 C2099 1.403 . S
H2097 C2103 0.930 . S
C2098 H2084 0.930 . S
C2098 C2096 1.395 . S
C2098 C2101 1.403 . S
C2099 C2096 1.403 . S
C2099 C2100 1.524 . S
C2099 C2103 1.400 . S
C2100 H2085 0.960 . S
C2100 H2086 0.960 . S
C2100 H2087 0.960 . S
C2100 C2099 1.524 . S
C2101 C2098 1.403 . S
C2101 C2102 1.392 . S
C2101 C2105 1.495 . S
C2102 C2101 1.392 . S
C2102 C2103 1.385 . S
C2102 C2104 1.478 . S
C2103 H2097 0.930 . S
C2103 C2099 1.400 . S
C2103 C2102 1.385 . S
C2104 C2102 1.478 . S
C2104 C2106 1.381 . S
C2104 C2110 1.383 . S
C2105 C2101 1.495 . S
C2105 H2111 0.959 . S
C2105 H2112 0.961 . S
C2105 H2113 0.960 . S
C2106 C2104 1.381 . S
C2106 C2107 1.394 . S
C2106 H2114 0.930 . S
C2107 C2106 1.394 . S
C2107 C2108 1.383 . S
C2107 H2115 0.929 . S
C2108 C2107 1.383 . S
C2108 C2109 1.377 . S
C2109 H2093 0.930 . S
C2109 C2108 1.377 . S
C2109 C2110 1.379 . S
C2110 H2094 0.931 . S
C2110 C2104 1.383 . S
C2110 C2109 1.379 . S
H2111 C2105 0.959 . S
H2112 C2105 0.961 . S
H2113 C2105 0.960 . S
H2114 C2106 0.930 . S
H2115 C2107 0.929 . S
H2116 C2124 0.929 . S
H2117 C2126 0.930 . S
H2118 C2128 0.930 . S
H2119 C2131 0.929 . S
H2120 C2134 0.930 . S
H2121 C2136 0.960 . S
H2122 C2136 0.960 . S
H2123 C2136 0.960 . S
C2124 H2116 0.929 . S
C2124 C2125 1.377 . S
C2124 C2126 1.384 . S
C2125 C2124 1.377 . S
C2125 C2131 1.390 . S
C2126 H2117 0.930 . S
C2126 C2124 1.384 . S
C2126 C2127 1.372 . S
C2127 C2126 1.372 . S
C2127 C2128 1.400 . S
C2127 C2132 1.490 . S
C2128 H2118 0.930 . S
C2128 C2127 1.400 . S
C2128 C2131 1.386 . S
H2129 C2145 0.930 . S
H2130 C2146 0.931 . S
C2131 H2119 0.929 . S
C2131 C2125 1.390 . S
C2131 C2128 1.386 . S
C2132 C2127 1.490 . S
C2132 C2134 1.395 . S
C2132 C2135 1.403 . S
H2133 C2139 0.930 . S
C2134 H2120 0.930 . S
C2134 C2132 1.395 . S
C2134 C2137 1.403 . S
C2135 C2132 1.403 . S
C2135 C2136 1.524 . S
C2135 C2139 1.400 . S
C2136 H2121 0.960 . S
C2136 H2122 0.960 . S
C2136 H2123 0.960 . S
C2136 C2135 1.524 . S
C2137 C2134 1.403 . S
C2137 C2138 1.392 . S
C2137 C2141 1.495 . S
C2138 C2137 1.392 . S
C2138 C2139 1.385 . S
C2138 C2140 1.478 . S
C2139 H2133 0.930 . S
C2139 C2135 1.400 . S
C2139 C2138 1.385 . S
C2140 C2138 1.478 . S
C2140 C2142 1.381 . S
C2140 C2146 1.383 . S
C2141 C2137 1.495 . S
C2141 H2147 0.959 . S
C2141 H2148 0.961 . S
C2141 H2149 0.960 . S
C2142 C2140 1.381 . S
C2142 C2143 1.394 . S
C2142 H2150 0.930 . S
C2143 C2142 1.394 . S
C2143 C2144 1.383 . S
C2143 H2151 0.929 . S
C2144 C2143 1.383 . S
C2144 C2145 1.377 . S
C2145 H2129 0.930 . S
C2145 C2144 1.377 . S
C2145 C2146 1.379 . S
C2146 H2130 0.931 . S
C2146 C2140 1.383 . S
C2146 C2145 1.379 . S
H2147 C2141 0.959 . S
H2148 C2141 0.961 . S
H2149 C2141 0.960 . S
H2150 C2142 0.930 . S
H2151 C2143 0.929 . S
H2152 C2160 0.929 . S
H2153 C2162 0.930 . S
H2154 C2164 0.930 . S
H2155 C2167 0.929 . S
H2156 C2170 0.930 . S
H2157 C2172 0.960 . S
H2158 C2172 0.960 . S
H2159 C2172 0.960 . S
C2160 H2152 0.929 . S
C2160 C2161 1.377 . S
C2160 C2162 1.384 . S
C2161 C2160 1.377 . S
C2161 C2167 1.390 1_556 S
C2162 H2153 0.930 . S
C2162 C2160 1.384 . S
C2162 C2163 1.372 . S
C2163 C2162 1.372 . S
C2163 C2164 1.400 1_556 S
C2163 C2168 1.490 . S
C2164 H2154 0.930 . S
C2164 C2163 1.400 1_554 S
C2164 C2167 1.386 . S
H2165 C2181 0.930 . S
H2166 C2182 0.931 1_554 S
C2167 H2155 0.929 . S
C2167 C2161 1.390 1_554 S
C2167 C2164 1.386 . S
C2168 C2163 1.490 . S
C2168 C2170 1.395 . S
C2168 C2171 1.403 . S
H2169 C2175 0.930 . S
C2170 H2156 0.930 . S
C2170 C2168 1.395 . S
C2170 C2173 1.403 . S
C2171 C2168 1.403 . S
C2171 C2172 1.524 . S
C2171 C2175 1.400 . S
C2172 H2157 0.960 . S
C2172 H2158 0.960 . S
C2172 H2159 0.960 . S
C2172 C2171 1.524 . S
C2173 C2170 1.403 . S
C2173 C2174 1.392 . S
C2173 C2177 1.495 . S
C2174 C2173 1.392 . S
C2174 C2175 1.385 . S
C2174 C2176 1.478 . S
C2175 H2169 0.930 . S
C2175 C2171 1.400 . S
C2175 C2174 1.385 . S
C2176 C2174 1.478 . S
C2176 C2178 1.381 . S
C2176 C2182 1.383 . S
C2177 C2173 1.495 . S
C2177 H2183 0.959 . S
C2177 H2184 0.961 . S
C2177 H2185 0.960 . S
C2178 C2176 1.381 . S
C2178 C2179 1.394 . S
C2178 H2186 0.930 . S
C2179 C2178 1.394 . S
C2179 C2180 1.383 . S
C2179 H2187 0.929 . S
C2180 C2179 1.383 . S
C2180 C2181 1.377 . S
C2181 H2165 0.930 . S
C2181 C2180 1.377 . S
C2181 C2182 1.379 . S
C2182 H2166 0.931 1_556 S
C2182 C2176 1.383 . S
C2182 C2181 1.379 . S
H2183 C2177 0.959 . S
H2184 C2177 0.961 . S
H2185 C2177 0.960 . S
H2186 C2178 0.930 . S
H2187 C2179 0.929 . S
H2188 C2196 0.929 . S
H2189 C2198 0.930 . S
H2190 C2200 0.930 . S
H2191 C2203 0.929 . S
H2192 C2206 0.930 . S
H2193 C2208 0.960 . S
H2194 C2208 0.960 . S
H2195 C2208 0.960 . S
C2196 H2188 0.929 . S
C2196 C2197 1.377 . S
C2196 C2198 1.384 . S
C2197 C2196 1.377 . S
C2197 C2203 1.390 . S
C2198 H2189 0.930 . S
C2198 C2196 1.384 . S
C2198 C2199 1.372 . S
C2199 C2198 1.372 . S
C2199 C2200 1.400 . S
C2199 C2204 1.490 . S
C2200 H2190 0.930 . S
C2200 C2199 1.400 . S
C2200 C2203 1.386 . S
H2201 C2217 0.930 . S
H2202 C2218 0.931 . S
C2203 H2191 0.929 . S
C2203 C2197 1.390 . S
C2203 C2200 1.386 . S
C2204 C2199 1.490 . S
C2204 C2206 1.395 . S
C2204 C2207 1.403 . S
H2205 C2211 0.930 . S
C2206 H2192 0.930 . S
C2206 C2204 1.395 . S
C2206 C2209 1.403 . S
C2207 C2204 1.403 . S
C2207 C2208 1.524 . S
C2207 C2211 1.400 . S
C2208 H2193 0.960 . S
C2208 H2194 0.960 . S
C2208 H2195 0.960 . S
C2208 C2207 1.524 . S
C2209 C2206 1.403 . S
C2209 C2210 1.392 . S
C2209 C2213 1.495 . S
C2210 C2209 1.392 . S
C2210 C2211 1.385 . S
C2210 C2212 1.478 . S
C2211 H2205 0.930 . S
C2211 C2207 1.400 . S
C2211 C2210 1.385 . S
C2212 C2210 1.478 . S
C2212 C2214 1.381 . S
C2212 C2218 1.383 . S
C2213 C2209 1.495 . S
C2213 H2219 0.959 . S
C2213 H2220 0.961 . S
C2213 H2221 0.960 . S
C2214 C2212 1.381 . S
C2214 C2215 1.394 . S
C2214 H2222 0.930 . S
C2215 C2214 1.394 . S
C2215 C2216 1.383 . S
C2215 H2223 0.929 . S
C2216 C2215 1.383 . S
C2216 C2217 1.377 . S
C2217 H2201 0.930 . S
C2217 C2216 1.377 . S
C2217 C2218 1.379 . S
C2218 H2202 0.931 . S
C2218 C2212 1.383 . S
C2218 C2217 1.379 . S
H2219 C2213 0.959 . S
H2220 C2213 0.961 . S
H2221 C2213 0.960 . S
H2222 C2214 0.930 . S
H2223 C2215 0.929 . S
H2224 C2232 0.929 . S
H2225 C2234 0.930 . S
H2226 C2236 0.930 . S
H2227 C2239 0.929 . S
H2228 C2242 0.930 . S
H2229 C2244 0.960 . S
H2230 C2244 0.960 . S
H2231 C2244 0.960 . S
C2232 H2224 0.929 . S
C2232 C2233 1.377 . S
C2232 C2234 1.384 . S
C2233 C2232 1.377 . S
C2233 C2239 1.390 . S
C2234 H2225 0.930 . S
C2234 C2232 1.384 . S
C2234 C2235 1.372 . S
C2235 C2234 1.372 . S
C2235 C2236 1.400 . S
C2235 C2240 1.490 . S
C2236 H2226 0.930 . S
C2236 C2235 1.400 . S
C2236 C2239 1.386 . S
H2237 C2253 0.930 . S
H2238 C2254 0.931 . S
C2239 H2227 0.929 . S
C2239 C2233 1.390 . S
C2239 C2236 1.386 . S
C2240 C2235 1.490 . S
C2240 C2242 1.395 . S
C2240 C2243 1.403 . S
H2241 C2247 0.930 . S
C2242 H2228 0.930 . S
C2242 C2240 1.395 . S
C2242 C2245 1.403 . S
C2243 C2240 1.403 . S
C2243 C2244 1.524 . S
C2243 C2247 1.400 . S
C2244 H2229 0.960 . S
C2244 H2230 0.960 . S
C2244 H2231 0.960 . S
C2244 C2243 1.524 . S
C2245 C2242 1.403 . S
C2245 C2246 1.392 . S
C2245 C2249 1.495 . S
C2246 C2245 1.392 . S
C2246 C2247 1.385 . S
C2246 C2248 1.478 . S
C2247 H2241 0.930 . S
C2247 C2243 1.400 . S
C2247 C2246 1.385 . S
C2248 C2246 1.478 . S
C2248 C2250 1.381 . S
C2248 C2254 1.383 . S
C2249 C2245 1.495 . S
C2249 H2255 0.959 . S
C2249 H2256 0.961 . S
C2249 H2257 0.960 . S
C2250 C2248 1.381 . S
C2250 C2251 1.394 . S
C2250 H2258 0.930 . S
C2251 C2250 1.394 . S
C2251 C2252 1.383 . S
C2251 H2259 0.929 . S
C2252 C2251 1.383 . S
C2252 C2253 1.377 . S
C2253 H2237 0.930 . S
C2253 C2252 1.377 . S
C2253 C2254 1.379 . S
C2254 H2238 0.931 . S
C2254 C2248 1.383 . S
C2254 C2253 1.379 . S
H2255 C2249 0.959 . S
H2256 C2249 0.961 . S
H2257 C2249 0.960 . S
H2258 C2250 0.930 . S
H2259 C2251 0.929 . S
H2260 C2268 0.929 . S
H2261 C2270 0.930 . S
H2262 C2272 0.930 . S
H2263 C2275 0.929 . S
H2264 C2278 0.930 . S
H2265 C2280 0.960 . S
H2266 C2280 0.960 . S
H2267 C2280 0.960 . S
C2268 H2260 0.929 . S
C2268 C2269 1.377 . S
C2268 C2270 1.384 . S
C2269 C2268 1.377 . S
C2269 C2275 1.390 . S
C2270 H2261 0.930 . S
C2270 C2268 1.384 . S
C2270 C2271 1.372 . S
C2271 C2270 1.372 . S
C2271 C2272 1.400 . S
C2271 C2276 1.490 . S
C2272 H2262 0.930 . S
C2272 C2271 1.400 . S
C2272 C2275 1.386 . S
H2273 C2289 0.930 . S
H2274 C2290 0.931 . S
C2275 H2263 0.929 . S
C2275 C2269 1.390 . S
C2275 C2272 1.386 . S
C2276 C2271 1.490 . S
C2276 C2278 1.395 . S
C2276 C2279 1.403 . S
H2277 C2283 0.930 . S
C2278 H2264 0.930 . S
C2278 C2276 1.395 . S
C2278 C2281 1.403 . S
C2279 C2276 1.403 . S
C2279 C2280 1.524 . S
C2279 C2283 1.400 . S
C2280 H2265 0.960 . S
C2280 H2266 0.960 . S
C2280 H2267 0.960 . S
C2280 C2279 1.524 . S
C2281 C2278 1.403 . S
C2281 C2282 1.392 . S
C2281 C2285 1.495 . S
C2282 C2281 1.392 . S
C2282 C2283 1.385 . S
C2282 C2284 1.478 . S
C2283 H2277 0.930 . S
C2283 C2279 1.400 . S
C2283 C2282 1.385 . S
C2284 C2282 1.478 . S
C2284 C2286 1.381 . S
C2284 C2290 1.383 . S
C2285 C2281 1.495 . S
C2285 H2291 0.959 . S
C2285 H2292 0.961 . S
C2285 H2293 0.960 . S
C2286 C2284 1.381 . S
C2286 C2287 1.394 . S
C2286 H2294 0.930 . S
C2287 C2286 1.394 . S
C2287 C2288 1.383 . S
C2287 H2295 0.929 . S
C2288 C2287 1.383 . S
C2288 C2289 1.377 . S
C2289 H2273 0.930 . S
C2289 C2288 1.377 . S
C2289 C2290 1.379 . S
C2290 H2274 0.931 . S
C2290 C2284 1.383 . S
C2290 C2289 1.379 . S
H2291 C2285 0.959 . S
H2292 C2285 0.961 . S
H2293 C2285 0.960 . S
H2294 C2286 0.930 . S
H2295 C2287 0.929 . S
H2296 C2304 0.929 . S
H2297 C2306 0.930 . S
H2298 C2308 0.930 . S
H2299 C2311 0.929 . S
H2300 C2314 0.930 . S
H2301 C2316 0.960 . S
H2302 C2316 0.960 . S
H2303 C2316 0.960 . S
C2304 H2296 0.929 . S
C2304 C2305 1.377 . S
C2304 C2306 1.384 . S
C2305 C2304 1.377 . S
C2305 C2311 1.390 . S
C2306 H2297 0.930 . S
C2306 C2304 1.384 . S
C2306 C2307 1.372 . S
C2307 C2306 1.372 . S
C2307 C2308 1.400 . S
C2307 C2312 1.490 . S
C2308 H2298 0.930 . S
C2308 C2307 1.400 . S
C2308 C2311 1.386 . S
H2309 C2325 0.930 . S
H2310 C2326 0.931 . S
C2311 H2299 0.929 . S
C2311 C2305 1.390 . S
C2311 C2308 1.386 . S
C2312 C2307 1.490 . S
C2312 C2314 1.395 . S
C2312 C2315 1.403 . S
H2313 C2319 0.930 . S
C2314 H2300 0.930 . S
C2314 C2312 1.395 . S
C2314 C2317 1.403 . S
C2315 C2312 1.403 . S
C2315 C2316 1.524 . S
C2315 C2319 1.400 . S
C2316 H2301 0.960 . S
C2316 H2302 0.960 . S
C2316 H2303 0.960 . S
C2316 C2315 1.524 . S
C2317 C2314 1.403 . S
C2317 C2318 1.392 . S
C2317 C2321 1.495 . S
C2318 C2317 1.392 . S
C2318 C2319 1.385 . S
C2318 C2320 1.478 . S
C2319 H2313 0.930 . S
C2319 C2315 1.400 . S
C2319 C2318 1.385 . S
C2320 C2318 1.478 . S
C2320 C2322 1.381 . S
C2320 C2326 1.383 . S
C2321 C2317 1.495 . S
C2321 H2327 0.959 . S
C2321 H2328 0.961 . S
C2321 H2329 0.960 . S
C2322 C2320 1.381 . S
C2322 C2323 1.394 . S
C2322 H2330 0.930 . S
C2323 C2322 1.394 . S
C2323 C2324 1.383 . S
C2323 H2331 0.929 . S
C2324 C2323 1.383 . S
C2324 C2325 1.377 . S
C2325 H2309 0.930 . S
C2325 C2324 1.377 . S
C2325 C2326 1.379 . S
C2326 H2310 0.931 . S
C2326 C2320 1.383 . S
C2326 C2325 1.379 . S
H2327 C2321 0.959 . S
H2328 C2321 0.961 . S
H2329 C2321 0.960 . S
H2330 C2322 0.930 . S
H2331 C2323 0.929 . S
H2332 C2340 0.929 . S
H2333 C2342 0.930 . S
H2334 C2344 0.930 . S
H2335 C2347 0.929 . S
H2336 C2350 0.930 . S
H2337 C2352 0.960 . S
H2338 C2352 0.960 . S
H2339 C2352 0.960 . S
C2340 H2332 0.929 . S
C2340 C2341 1.377 . S
C2340 C2342 1.384 . S
C2341 C2340 1.377 . S
C2341 C2347 1.390 . S
C2342 H2333 0.930 . S
C2342 C2340 1.384 . S
C2342 C2343 1.372 . S
C2343 C2342 1.372 . S
C2343 C2344 1.400 . S
C2343 C2348 1.490 . S
C2344 H2334 0.930 . S
C2344 C2343 1.400 . S
C2344 C2347 1.386 . S
H2345 C2361 0.930 . S
H2346 C2362 0.931 . S
C2347 H2335 0.929 . S
C2347 C2341 1.390 . S
C2347 C2344 1.386 . S
C2348 C2343 1.490 . S
C2348 C2350 1.395 . S
C2348 C2351 1.403 . S
H2349 C2355 0.930 . S
C2350 H2336 0.930 . S
C2350 C2348 1.395 . S
C2350 C2353 1.403 . S
C2351 C2348 1.403 . S
C2351 C2352 1.524 . S
C2351 C2355 1.400 . S
C2352 H2337 0.960 . S
C2352 H2338 0.960 . S
C2352 H2339 0.960 . S
C2352 C2351 1.524 . S
C2353 C2350 1.403 . S
C2353 C2354 1.392 . S
C2353 C2357 1.495 . S
C2354 C2353 1.392 . S
C2354 C2355 1.385 . S
C2354 C2356 1.478 . S
C2355 H2349 0.930 . S
C2355 C2351 1.400 . S
C2355 C2354 1.385 . S
C2356 C2354 1.478 . S
C2356 C2358 1.381 . S
C2356 C2362 1.383 . S
C2357 C2353 1.495 . S
C2357 H2363 0.959 . S
C2357 H2364 0.961 . S
C2357 H2365 0.960 . S
C2358 C2356 1.381 . S
C2358 C2359 1.394 . S
C2358 H2366 0.930 . S
C2359 C2358 1.394 . S
C2359 C2360 1.383 . S
C2359 H2367 0.929 . S
C2360 C2359 1.383 . S
C2360 C2361 1.377 . S
C2361 H2345 0.930 . S
C2361 C2360 1.377 . S
C2361 C2362 1.379 . S
C2362 H2346 0.931 . S
C2362 C2356 1.383 . S
C2362 C2361 1.379 . S
H2363 C2357 0.959 . S
H2364 C2357 0.961 . S
H2365 C2357 0.960 . S
H2366 C2358 0.930 . S
H2367 C2359 0.929 . S
C649 C11 0.976 . S
C668 C56 0.928 . S
C685 C91 1.803 . S
C704 C42 1.777 . S
C721 C122 2.059 . S
C740 C99 2.070 . S
C757 C19 1.062 . S
C776 C136 1.022 . S
C793 C10 1.058 . S
C812 C367 1.052 . S
C829 C282 0.977 . S
C848 C47 0.974 . S
C865 C82 1.803 . S
C884 C411 1.792 . S
C901 C131 2.059 . S
C920 C530 2.057 . S
C937 C322 1.802 . S
C956 C51 1.789 . S
C973 C491 2.064 . S
C992 C90 2.066 . S
C1009 C570 1.064 . S
C1028 C127 1.054 . S
C1045 C2 0.978 . S
C1064 C447 0.990 . S
C1081 C16 0.597 . S
C1100 C327 0.597 . S
C1117 C499 1.516 . S
C1136 C170 1.495 . S
C1153 C216 0.554 . S
C1172 C567 0.586 . S
C1189 C450 1.516 . S
C1208 C259 1.532 . S
C1225 C96 0.552 . S
C1244 C287 0.580 . S
C1261 C370 1.518 . S
C1280 C179 1.513 . S
C1297 C250 1.514 . S
C1316 C419 1.533 . S
C1333 C202 1.804 . S
C1352 C451 1.791 . S
C1369 C371 2.059 . S
C1388 C210 2.056 . S
C1405 C456 0.967 . S
C1424 C291 0.969 . S
C1441 C211 1.803 . S
C1460 C162 1.794 . S
C1477 C362 2.059 . S
C1496 C339 2.071 . S
C1513 C531 1.803 . S
C1532 C442 1.791 . S
C1549 C242 2.063 . S
C1568 C219 2.050 . S
C1585 C376 1.050 . S
C1604 C579 1.038 . S
C1621 C536 0.541 . S
C1640 C7 0.646 . S
C1657 C87 0.550 . S
C1676 C576 0.641 . S
C1693 C490 1.512 . S
C1712 C59 1.535 . S
C1729 C296 0.602 . S
C1748 C207 0.583 . S
C1765 C139 1.515 . S
C1784 C410 1.496 . S
C1801 C482 2.059 . S
C1820 C539 2.071 . S
C1837 C299 1.055 . S
C1856 C496 1.064 . S
C1873 C247 1.043 . S
C1892 C290 1.031 . S
C1909 C171 1.787 . S
C1928 C522 1.794 . S
C1945 C487 1.045 . S
C1964 C610 1.037 . S
C1981 C607 0.584 . S
C2000 C336 0.598 . S
C2017 C50 1.519 . S
C2036 C379 1.490 . S
C2053 C330 2.063 . S
C2072 C251 2.070 . S
C2089 C331 1.804 . S
C2108 C402 1.771 . S
C2125 C619 1.054 . S
C2144 C256 1.075 . S
C2161 C527 0.549 . S
C2180 C616 0.576 . S
C2197 C459 1.514 . S
C2216 C130 1.529 . S
C2233 C416 0.964 . S
C2252 C571 0.961 . S
C2269 C407 0.954 . S
C2288 C602 0.965 . S
C2305 C167 0.965 . S
C2324 C562 0.983 . S
C2341 C611 0.976 . S
C2360 C176 0.990 . S
