# Generated by pormake.
# Topology unb, (4)-cn, num edge types: 1
# Building blocks:
#     Node 0, Type 0, BuildingBlock: CEKHIL_clean_sbu_0, # of connection points: 4
#     Node 1, Type 0, BuildingBlock: CEKHIL_clean_sbu_0, # of connection points: 4
#     Node 2, Type 0, BuildingBlock: CEKHIL_clean_sbu_0, # of connection points: 4
#     Node 3, Type 0, BuildingBlock: CEKHIL_clean_sbu_0, # of connection points: 4
#     Node 4, Type 0, BuildingBlock: CEKHIL_clean_sbu_0, # of connection points: 4
#     Node 5, Type 0, BuildingBlock: CEKHIL_clean_sbu_0, # of connection points: 4
#     Node 6, Type 0, BuildingBlock: CEKHIL_clean_sbu_0, # of connection points: 4
#     Node 7, Type 0, BuildingBlock: CEKHIL_clean_sbu_0, # of connection points: 4
#     Node 8, Type 0, BuildingBlock: CEKHIL_clean_sbu_0, # of connection points: 4
#     Node 9, Type 0, BuildingBlock: CEKHIL_clean_sbu_0, # of connection points: 4
#     Node 10, Type 0, BuildingBlock: CEKHIL_clean_sbu_0, # of connection points: 4
#     Node 11, Type 0, BuildingBlock: CEKHIL_clean_sbu_0, # of connection points: 4
#     Node 12, Type 0, BuildingBlock: CEKHIL_clean_sbu_0, # of connection points: 4
#     Node 13, Type 0, BuildingBlock: CEKHIL_clean_sbu_0, # of connection points: 4
#     Node 14, Type 0, BuildingBlock: CEKHIL_clean_sbu_0, # of connection points: 4
#     Node 15, Type 0, BuildingBlock: CEKHIL_clean_sbu_0, # of connection points: 4
#     Node 16, Type 0, BuildingBlock: CEKHIL_clean_sbu_0, # of connection points: 4
#     Node 17, Type 0, BuildingBlock: CEKHIL_clean_sbu_0, # of connection points: 4
#     Edge 18, Type (0, 0), BuildingBlock: KIFKEQ_clean_linker_1, # of connection points: 2
#     Edge 19, Type (0, 0), BuildingBlock: KIFKEQ_clean_linker_1, # of connection points: 2
#     Edge 20, Type (0, 0), BuildingBlock: KIFKEQ_clean_linker_1, # of connection points: 2
#     Edge 21, Type (0, 0), BuildingBlock: KIFKEQ_clean_linker_1, # of connection points: 2
#     Edge 22, Type (0, 0), BuildingBlock: KIFKEQ_clean_linker_1, # of connection points: 2
#     Edge 23, Type (0, 0), BuildingBlock: KIFKEQ_clean_linker_1, # of connection points: 2
#     Edge 24, Type (0, 0), BuildingBlock: KIFKEQ_clean_linker_1, # of connection points: 2
#     Edge 25, Type (0, 0), BuildingBlock: KIFKEQ_clean_linker_1, # of connection points: 2
#     Edge 26, Type (0, 0), BuildingBlock: KIFKEQ_clean_linker_1, # of connection points: 2
#     Edge 27, Type (0, 0), BuildingBlock: KIFKEQ_clean_linker_1, # of connection points: 2
#     Edge 28, Type (0, 0), BuildingBlock: KIFKEQ_clean_linker_1, # of connection points: 2
#     Edge 29, Type (0, 0), BuildingBlock: KIFKEQ_clean_linker_1, # of connection points: 2
#     Edge 30, Type (0, 0), BuildingBlock: KIFKEQ_clean_linker_1, # of connection points: 2
#     Edge 31, Type (0, 0), BuildingBlock: KIFKEQ_clean_linker_1, # of connection points: 2
#     Edge 32, Type (0, 0), BuildingBlock: KIFKEQ_clean_linker_1, # of connection points: 2
#     Edge 33, Type (0, 0), BuildingBlock: KIFKEQ_clean_linker_1, # of connection points: 2
#     Edge 34, Type (0, 0), BuildingBlock: KIFKEQ_clean_linker_1, # of connection points: 2
#     Edge 35, Type (0, 0), BuildingBlock: KIFKEQ_clean_linker_1, # of connection points: 2
#     Edge 36, Type (0, 0), BuildingBlock: KIFKEQ_clean_linker_1, # of connection points: 2
#     Edge 37, Type (0, 0), BuildingBlock: KIFKEQ_clean_linker_1, # of connection points: 2
#     Edge 38, Type (0, 0), BuildingBlock: KIFKEQ_clean_linker_1, # of connection points: 2
#     Edge 39, Type (0, 0), BuildingBlock: KIFKEQ_clean_linker_1, # of connection points: 2
#     Edge 40, Type (0, 0), BuildingBlock: KIFKEQ_clean_linker_1, # of connection points: 2
#     Edge 41, Type (0, 0), BuildingBlock: KIFKEQ_clean_linker_1, # of connection points: 2
#     Edge 42, Type (0, 0), BuildingBlock: KIFKEQ_clean_linker_1, # of connection points: 2
#     Edge 43, Type (0, 0), BuildingBlock: KIFKEQ_clean_linker_1, # of connection points: 2
#     Edge 44, Type (0, 0), BuildingBlock: KIFKEQ_clean_linker_1, # of connection points: 2
#     Edge 45, Type (0, 0), BuildingBlock: KIFKEQ_clean_linker_1, # of connection points: 2
#     Edge 46, Type (0, 0), BuildingBlock: KIFKEQ_clean_linker_1, # of connection points: 2
#     Edge 47, Type (0, 0), BuildingBlock: KIFKEQ_clean_linker_1, # of connection points: 2
#     Edge 48, Type (0, 0), BuildingBlock: KIFKEQ_clean_linker_1, # of connection points: 2
#     Edge 49, Type (0, 0), BuildingBlock: KIFKEQ_clean_linker_1, # of connection points: 2
#     Edge 50, Type (0, 0), BuildingBlock: KIFKEQ_clean_linker_1, # of connection points: 2
#     Edge 51, Type (0, 0), BuildingBlock: KIFKEQ_clean_linker_1, # of connection points: 2
#     Edge 52, Type (0, 0), BuildingBlock: KIFKEQ_clean_linker_1, # of connection points: 2
#     Edge 53, Type (0, 0), BuildingBlock: KIFKEQ_clean_linker_1, # of connection points: 2
# Relax obj value: 0.114
# Max RMSD: 0.094
# Mean RMSD: 0.094
data_MOF--net-unb--node1-CEKHIL_clean_sbu_0--edge1-KIFKEQ_clean_linker_1
_symmetry_space_group_name_H-M    P1
_symmetry_Int_Tables_number       1
_symmetry_cell_setting            triclinic
loop_
_symmetry_equiv_pos_as_xyz
'x, y, z'
_cell_length_a     62.284964
_cell_length_b     62.27896
_cell_length_c     25.878868
_cell_angle_alpha  89.975849
_cell_angle_beta   90.021113
_cell_angle_gamma 119.91162
loop_
_atom_site_label
_atom_site_type_symbol
_atom_site_fract_x
_atom_site_fract_y
_atom_site_fract_z
_atom_type_partial_charge
Co0 Co 0.16231 0.2871 0.09366 0.0
O1 O 0.13141 0.28781 0.09725 0.0
O2 O 0.1351 0.25659 0.06752 0.0
C3 C 0.17668 0.30384 0.17312 0.0
O4 O 0.18952 0.27803 0.08225 0.0
Co5 Co 0.21499 0.33345 0.1006 0.0
O6 O 0.22788 0.31027 0.09296 0.0
C7 C 0.1818 0.32585 0.01237 0.0
C8 C 0.12092 0.266 0.07579 0.0
C9 C 0.21327 0.28752 0.08248 0.0
O10 O 0.16841 0.30272 0.02349 0.0
O11 O 0.19927 0.34135 0.04158 0.0
O12 O 0.16082 0.28022 0.16882 0.0
O13 O 0.18224 0.31607 0.13069 0.0
Co14 Co 0.77013 0.88724 0.09331 0.0
O15 O 0.76983 0.85586 0.09706 0.0
O16 O 0.80112 0.89102 0.06874 0.0
C17 C 0.75246 0.88447 0.17203 0.0
O18 O 0.77863 0.92328 0.08203 0.0
Co19 Co 0.72266 0.89181 0.09628 0.0
O20 O 0.74522 0.92796 0.08716 0.0
C21 C 0.73258 0.86728 0.00995 0.0
C22 C 0.79182 0.86743 0.07648 0.0
C23 C 0.76833 0.93681 0.07945 0.0
O24 O 0.75564 0.87818 0.02214 0.0
O25 O 0.71604 0.86785 0.03832 0.0
O26 O 0.77616 0.89241 0.16871 0.0
O27 O 0.74063 0.87761 0.12909 0.0
Co28 Co 0.16926 0.89288 0.09435 0.0
O29 O 0.20066 0.92392 0.09788 0.0
O30 O 0.16564 0.9199 0.06798 0.0
C31 C 0.17174 0.87861 0.17388 0.0
O32 O 0.13316 0.86549 0.08288 0.0
Co33 Co 0.16347 0.84037 0.10141 0.0
O34 O 0.12741 0.82721 0.09335 0.0
C35 C 0.18888 0.87364 0.01329 0.0
C36 C 0.18917 0.93422 0.07619 0.0
C37 C 0.1191 0.84172 0.08291 0.0
O38 O 0.17891 0.88685 0.02429 0.0
O39 O 0.1871 0.85623 0.04254 0.0
O40 O 0.16381 0.89436 0.16946 0.0
O41 O 0.17853 0.87311 0.13152 0.0
Co42 Co 0.29863 0.15039 0.91118 0.0
O43 O 0.29885 0.11923 0.90727 0.0
O44 O 0.26799 0.12343 0.93735 0.0
C45 C 0.31534 0.16484 0.8317 0.0
O46 O 0.28993 0.17781 0.92304 0.0
Co47 Co 0.34521 0.20286 0.90452 0.0
O48 O 0.32234 0.2161 0.91287 0.0
C49 C 0.33748 0.16941 0.9923 0.0
C50 C 0.27707 0.109 0.9289 0.0
C51 C 0.29956 0.20158 0.92322 0.0
O52 O 0.31432 0.15619 0.98127 0.0
O53 O 0.35303 0.18688 0.96315 0.0
O54 O 0.29168 0.14913 0.83608 0.0
O55 O 0.32763 0.17018 0.87405 0.0
Co56 Co 0.90473 0.15901 0.90892 0.0
O57 O 0.93558 0.19074 0.90776 0.0
O58 O 0.93149 0.15578 0.93819 0.0
C59 C 0.89203 0.16131 0.82773 0.0
O60 O 0.87768 0.12265 0.91854 0.0
Co61 Co 0.85199 0.15215 0.89642 0.0
O62 O 0.83935 0.11614 0.90454 0.0
C63 C 0.88209 0.17592 0.98954 0.0
C64 C 0.94575 0.17935 0.93044 0.0
C65 C 0.85399 0.10822 0.91675 0.0
O66 O 0.89686 0.16776 0.97828 0.0
O67 O 0.86488 0.17379 0.9592 0.0
O68 O 0.90822 0.1541 0.8345 0.0
O69 O 0.88528 0.16786 0.86882 0.0
Co70 Co 0.89727 0.75668 0.91024 0.0
O71 O 0.86601 0.75673 0.90662 0.0
O72 O 0.9011 0.78729 0.93707 0.0
C73 C 0.89497 0.74027 0.8304 0.0
O74 O 0.9333 0.76517 0.922 0.0
Co75 Co 0.9032 0.71008 0.90239 0.0
O76 O 0.93925 0.73281 0.91099 0.0
C77 C 0.87753 0.71748 0.99074 0.0
C78 C 0.87765 0.77842 0.9286 0.0
C79 C 0.94745 0.75553 0.92185 0.0
O80 O 0.88732 0.74067 0.98005 0.0
O81 O 0.87954 0.70206 0.96129 0.0
O82 O 0.90297 0.76393 0.83526 0.0
O83 O 0.88803 0.7278 0.87253 0.0
Co84 Co 0.82873 0.62039 0.42486 0.0
O85 O 0.79691 0.61909 0.43008 0.0
O86 O 0.80237 0.58903 0.39971 0.0
C87 C 0.84348 0.63779 0.50377 0.0
O88 O 0.85731 0.61343 0.41203 0.0
Co89 Co 0.87963 0.66918 0.42858 0.0
O90 O 0.89452 0.64805 0.41536 0.0
C91 C 0.84457 0.65878 0.34308 0.0
C92 C 0.78729 0.59731 0.40868 0.0
C93 C 0.88113 0.62482 0.40786 0.0
O94 O 0.83313 0.63556 0.35442 0.0
O95 O 0.86147 0.67527 0.37182 0.0
O96 O 0.82856 0.61393 0.50001 0.0
O97 O 0.8477 0.6498 0.46126 0.0
Co98 Co 0.4348 0.21966 0.42586 0.0
O99 O 0.43577 0.18896 0.43083 0.0
O100 O 0.46594 0.22424 0.40009 0.0
C101 C 0.41779 0.21722 0.50512 0.0
O102 O 0.44206 0.25532 0.41316 0.0
Co103 Co 0.38633 0.22248 0.43078 0.0
O104 O 0.4077 0.25842 0.41783 0.0
C105 C 0.39605 0.19755 0.34476 0.0
C106 C 0.45749 0.20087 0.4091 0.0
C107 C 0.43086 0.268 0.40966 0.0
O108 O 0.4193 0.20901 0.3557 0.0
O109 O 0.37978 0.19825 0.3738 0.0
O110 O 0.4416 0.2259 0.50093 0.0
O111 O 0.40559 0.20958 0.46281 0.0
Co112 Co 0.83518 0.22731 0.43024 0.0
O113 O 0.86611 0.25882 0.43224 0.0
O114 O 0.83069 0.25347 0.4016 0.0
C115 C 0.83782 0.21444 0.51111 0.0
O116 O 0.79934 0.19904 0.42006 0.0
Co117 Co 0.83213 0.176 0.44065 0.0
O118 O 0.7962 0.16163 0.4274 0.0
C119 C 0.85476 0.20742 0.34903 0.0
C120 C 0.85413 0.26838 0.40963 0.0
C121 C 0.78665 0.17517 0.41795 0.0
O122 O 0.84474 0.22055 0.36053 0.0
O123 O 0.85425 0.19088 0.37921 0.0
O124 O 0.82969 0.22992 0.50483 0.0
O125 O 0.84523 0.20871 0.46986 0.0
Co126 Co 0.96359 0.48406 0.24398 0.0
O127 O 0.96259 0.45242 0.23919 0.0
O128 O 0.93201 0.45746 0.26788 0.0
C129 C 0.98168 0.4991 0.16565 0.0
O130 O 0.95663 0.51267 0.25589 0.0
Co131 Co 1.01296 0.53448 0.24316 0.0
O132 O 0.99184 0.54949 0.25592 0.0
C133 C 1.00075 0.49902 0.32801 0.0
C134 C 0.94061 0.44257 0.25963 0.0
C135 C 0.96842 0.53643 0.26144 0.0
O136 O 0.97774 0.48835 0.3154 0.0
O137 O 1.01803 0.51556 0.30005 0.0
O138 O 0.95783 0.48406 0.1686 0.0
O139 O 0.99336 0.50308 0.20861 0.0
Co140 Co 0.5714 0.49077 0.24449 0.0
O141 O 0.60303 0.52133 0.23958 0.0
O142 O 0.598 0.48575 0.26847 0.0
C143 C 0.55633 0.4938 0.16611 0.0
O144 O 0.54283 0.45528 0.25659 0.0
Co145 Co 0.52097 0.4898 0.24368 0.0
O146 O 0.50602 0.45377 0.25711 0.0
C147 C 0.5565 0.51313 0.3283 0.0
C148 C 0.61288 0.5092 0.26014 0.0
C149 C 0.51909 0.44338 0.26251 0.0
O150 O 0.56714 0.50071 0.31584 0.0
O151 O 0.53995 0.51388 0.3003 0.0
O152 O 0.57137 0.48496 0.16913 0.0
O153 O 0.55235 0.50153 0.20903 0.0
Co154 Co 0.56451 0.09137 0.24582 0.0
O155 O 0.53377 0.09225 0.24023 0.0
O156 O 0.56886 0.12241 0.27167 0.0
C157 C 0.56252 0.07456 0.16652 0.0
O158 O 0.60012 0.09871 0.25932 0.0
Co159 Co 0.56745 0.04296 0.24107 0.0
O160 O 0.60325 0.06435 0.2554 0.0
C161 C 0.54215 0.05245 0.32663 0.0
C162 C 0.54552 0.11391 0.26222 0.0
C163 C 0.61276 0.08751 0.26355 0.0
O164 O 0.55357 0.07572 0.31578 0.0
O165 O 0.54298 0.03625 0.29763 0.0
O166 O 0.57109 0.09834 0.17087 0.0
O167 O 0.55468 0.06226 0.20868 0.0
Co168 Co 0.49644 0.95544 0.76044 0.0
O169 O 0.46519 0.95547 0.76467 0.0
O170 O 0.46953 0.92471 0.73448 0.0
C171 C 0.51097 0.97225 0.83982 0.0
O172 O 0.52396 0.94694 0.74824 0.0
Co173 Co 0.54882 1.00217 0.76667 0.0
O174 O 0.56221 0.97943 0.75821 0.0
C175 C 0.51516 0.99421 0.67913 0.0
C176 C 0.45502 0.93369 0.74309 0.0
C177 C 0.54773 0.95665 0.74787 0.0
O178 O 0.50201 0.97106 0.69033 0.0
O179 O 0.53268 1.00982 0.70807 0.0
O180 O 0.49536 0.94856 0.83553 0.0
O181 O 0.5162 0.98451 0.79744 0.0
Co182 Co 0.10273 0.55339 0.76112 0.0
O183 O 0.10267 0.52212 0.76485 0.0
O184 O 0.13374 0.55737 0.73621 0.0
C185 C 0.08527 0.55069 0.83999 0.0
O186 O 0.11105 0.58936 0.74991 0.0
Co187 Co 0.05521 0.55782 0.76457 0.0
O188 O 0.07766 0.59403 0.75596 0.0
C189 C 0.06492 0.53312 0.67825 0.0
C190 C 0.12462 0.53381 0.74407 0.0
C191 C 0.10076 0.6029 0.74793 0.0
O192 O 0.08804 0.54414 0.69011 0.0
O193 O 0.04846 0.53375 0.70678 0.0
O194 O 0.10897 0.55869 0.83641 0.0
O195 O 0.0733 0.5437 0.79721 0.0
Co196 Co 0.50236 0.56099 0.7612 0.0
O197 O 0.53336 0.59237 0.76501 0.0
O198 O 0.49793 0.58774 0.73614 0.0
C199 C 0.50517 0.54629 0.84013 0.0
O200 O 0.46659 0.53309 0.7498 0.0
Co201 Co 0.4987 0.50937 0.76476 0.0
O202 O 0.46244 0.49526 0.75587 0.0
C203 C 0.52312 0.54384 0.67843 0.0
C204 C 0.52143 0.60238 0.74407 0.0
C205 C 0.45331 0.50927 0.74774 0.0
O206 O 0.51185 0.55573 0.69025 0.0
O207 O 0.52271 0.52685 0.70699 0.0
O208 O 0.49689 0.56179 0.83646 0.0
O209 O 0.51238 0.5415 0.79742 0.0
Co210 Co 0.63041 0.81773 0.57584 0.0
O211 O 0.63019 0.78639 0.57252 0.0
O212 O 0.59915 0.79092 0.60016 0.0
C213 C 0.64842 0.83242 0.49731 0.0
O214 O 0.62241 0.84565 0.58656 0.0
Co215 Co 0.67832 0.8693 0.57318 0.0
O216 O 0.65613 0.88344 0.58144 0.0
C217 C 0.66767 0.83478 0.65973 0.0
C218 C 0.60815 0.77633 0.59283 0.0
C219 C 0.63296 0.86947 0.5889 0.0
O220 O 0.64464 0.82296 0.64724 0.0
O221 O 0.68443 0.85172 0.63149 0.0
O222 O 0.62465 0.81698 0.50034 0.0
O223 O 0.6601 0.8372 0.54042 0.0
Co224 Co 0.23866 0.82557 0.57923 0.0
O225 O 0.26973 0.85692 0.57539 0.0
O226 O 0.26573 0.82186 0.60503 0.0
C227 C 0.22414 0.82811 0.50002 0.0
O228 O 0.2112 0.78951 0.59086 0.0
Co229 Co 0.18625 0.82009 0.5732 0.0
O230 O 0.17298 0.78398 0.58091 0.0
C231 C 0.21989 0.84537 0.66088 0.0
C232 C 0.28006 0.84539 0.59678 0.0
C233 C 0.18741 0.77555 0.59101 0.0
O234 O 0.23293 0.83524 0.64953 0.0
O235 O 0.20247 0.84373 0.63192 0.0
O236 O 0.23985 0.82009 0.50403 0.0
O237 O 0.21887 0.83496 0.54256 0.0
Co238 Co 0.23091 0.42399 0.57807 0.0
O239 O 0.19967 0.42403 0.57448 0.0
O240 O 0.23489 0.45486 0.60378 0.0
C241 C 0.22813 0.40685 0.4989 0.0
O242 O 0.26693 0.43238 0.58947 0.0
Co243 Co 0.23636 0.37706 0.57201 0.0
O244 O 0.27249 0.39969 0.57979 0.0
C245 C 0.21119 0.38553 0.65985 0.0
C246 C 0.21138 0.44588 0.59573 0.0
C247 C 0.2809 0.42254 0.58975 0.0
O248 O 0.22131 0.40867 0.64846 0.0
O249 O 0.2128 0.36973 0.63086 0.0
O250 O 0.23627 0.43057 0.50283 0.0
O251 O 0.22136 0.39477 0.54151 0.0
H252 H 0.22842 0.42218 0.39844 0.0
H253 H 0.21957 0.35994 0.48865 0.0
H254 H 0.21712 0.39647 0.32035 0.0
H255 H 0.20884 0.33465 0.41144 0.0
H256 H 0.16061 0.28867 0.27313 0.0
H257 H 0.17491 0.31429 0.35135 0.0
H258 H 0.23038 0.37528 0.26167 0.0
H259 H 0.21594 0.35008 0.1843 0.0
C260 C 0.22454 0.40324 0.40148 0.0
C261 C 0.22485 0.39317 0.4498 0.0
C262 C 0.21802 0.38843 0.35681 0.0
C263 C 0.21174 0.36329 0.35961 0.0
C264 C 0.21297 0.35366 0.40781 0.0
C265 C 0.2194 0.36835 0.45213 0.0
C266 C 0.17609 0.30739 0.27045 0.0
C267 C 0.18703 0.31728 0.22244 0.0
C268 C 0.1843 0.32215 0.31519 0.0
C269 C 0.20367 0.34706 0.31278 0.0
C270 C 0.21511 0.35647 0.26496 0.0
C271 C 0.20692 0.34183 0.22056 0.0
H272 H 0.69565 0.87034 0.48779 0.0
H273 H 0.6334 0.81791 0.39666 0.0
H274 H 0.72106 0.88513 0.41064 0.0
H275 H 0.65918 0.83235 0.31882 0.0
H276 H 0.70566 0.8764 0.18224 0.0
H277 H 0.68033 0.86577 0.25954 0.0
H278 H 0.74172 0.87272 0.35032 0.0
H279 H 0.76743 0.88407 0.27236 0.0
C280 C 0.68729 0.86201 0.45109 0.0
C281 C 0.66241 0.84287 0.44849 0.0
C282 C 0.70203 0.87039 0.40676 0.0
C283 C 0.69243 0.85983 0.35829 0.0
C284 C 0.66725 0.84114 0.35536 0.0
C285 C 0.65239 0.8328 0.39995 0.0
C286 C 0.71393 0.87597 0.21876 0.0
C287 C 0.73864 0.88109 0.22103 0.0
C288 C 0.69923 0.86959 0.26316 0.0
C289 C 0.70871 0.86801 0.31136 0.0
C290 C 0.73375 0.87393 0.314 0.0
C291 C 0.74857 0.88046 0.26934 0.0
H292 H 0.23911 0.82771 0.39957 0.0
H293 H 0.18555 0.83631 0.4897 0.0
H294 H 0.22444 0.83872 0.32138 0.0
H295 H 0.17073 0.84675 0.4124 0.0
H296 H 0.17251 0.89471 0.27379 0.0
H297 H 0.18399 0.88058 0.35212 0.0
H298 H 0.18994 0.8252 0.26277 0.0
H299 H 0.17903 0.83948 0.18528 0.0
C300 C 0.22394 0.83146 0.40257 0.0
C301 C 0.2136 0.83118 0.4509 0.0
C302 C 0.21551 0.83782 0.35785 0.0
C303 C 0.19653 0.84395 0.3606 0.0
C304 C 0.1857 0.84273 0.4088 0.0
C305 C 0.1941 0.83646 0.45318 0.0
C306 C 0.17589 0.87929 0.27121 0.0
C307 C 0.17491 0.86833 0.22326 0.0
C308 C 0.18252 0.87117 0.31601 0.0
C309 C 0.18824 0.85189 0.31372 0.0
C310 C 0.18627 0.84041 0.26597 0.0
C311 C 0.17973 0.84851 0.2215 0.0
H312 H 0.43341 0.21787 0.60541 0.0
H313 H 0.37084 0.20849 0.51577 0.0
H314 H 0.40785 0.20639 0.68369 0.0
H315 H 0.34567 0.19764 0.59323 0.0
H316 H 0.30002 0.1492 0.73154 0.0
H317 H 0.32548 0.16385 0.65316 0.0
H318 H 0.38661 0.21897 0.74311 0.0
H319 H 0.36159 0.20411 0.82063 0.0
C320 C 0.41442 0.21387 0.60256 0.0
C321 C 0.40422 0.21405 0.55432 0.0
C322 C 0.39969 0.20724 0.64735 0.0
C323 C 0.37449 0.20075 0.6448 0.0
C324 C 0.36473 0.20191 0.5967 0.0
C325 C 0.37934 0.20842 0.55222 0.0
C326 C 0.31875 0.16467 0.73425 0.0
C327 C 0.32872 0.17538 0.78238 0.0
C328 C 0.33342 0.1731 0.68941 0.0
C329 C 0.35832 0.19248 0.69179 0.0
C330 C 0.36781 0.20369 0.73977 0.0
C331 C 0.35327 0.19526 0.78428 0.0
H332 H 0.86154 0.24115 0.59731 0.0
H333 H 0.8228 0.16685 0.53635 0.0
H334 H 0.87481 0.22622 0.67225 0.0
H335 H 0.83522 0.15184 0.61196 0.0
H336 H 0.8443 0.14406 0.80003 0.0
H337 H 0.82905 0.15609 0.72422 0.0
H338 H 0.9039 0.19974 0.66828 0.0
H339 H 0.91913 0.18689 0.74338 0.0
C340 C 0.85517 0.22154 0.60086 0.0
C341 C 0.84082 0.20507 0.56155 0.0
C342 C 0.86304 0.21308 0.64321 0.0
C343 C 0.8562 0.18793 0.64744 0.0
C344 C 0.84079 0.1713 0.60947 0.0
C345 C 0.83353 0.17985 0.56655 0.0
C346 C 0.8574 0.15561 0.7707 0.0
C347 C 0.88283 0.16416 0.77696 0.0
C348 C 0.84869 0.16264 0.72768 0.0
C349 C 0.86534 0.17906 0.69091 0.0
C350 C 0.89074 0.18717 0.69638 0.0
C351 C 0.8994 0.17955 0.7388 0.0
H352 H 0.89349 0.75558 0.73079 0.0
H353 H 0.88903 0.69443 0.81819 0.0
H354 H 0.88233 0.73021 0.65223 0.0
H355 H 0.87853 0.6695 0.74046 0.0
H356 H 0.82977 0.62218 0.60453 0.0
H357 H 0.84426 0.64782 0.68262 0.0
H358 H 0.89562 0.71045 0.59063 0.0
H359 H 0.88087 0.68519 0.51337 0.0
C360 C 0.89067 0.73698 0.73305 0.0
C361 C 0.8921 0.72707 0.7808 0.0
C362 C 0.88421 0.72235 0.68811 0.0
C363 C 0.87917 0.69757 0.68999 0.0
C364 C 0.88165 0.68819 0.73753 0.0
C365 C 0.88796 0.70268 0.78216 0.0
C366 C 0.84438 0.6413 0.60127 0.0
C367 C 0.85407 0.65157 0.55269 0.0
C368 C 0.85273 0.65608 0.64596 0.0
C369 C 0.871 0.68141 0.64299 0.0
C370 C 0.88119 0.69128 0.59448 0.0
C371 C 0.87284 0.67661 0.5501 0.0
H372 H 0.96644 0.48534 0.06492 0.0
H373 H 1.02915 0.53659 0.15648 0.0
H374 H 0.99216 0.4998 0.98706 0.0
H375 H 0.05453 0.55148 0.07926 0.0
H376 H 0.1003 0.55007 0.94012 0.0
H377 H 0.07476 0.539 0.01827 0.0
H378 H 1.01363 0.53313 0.92816 0.0
H379 H 0.03878 0.54342 0.85066 0.0
C380 C 0.98553 0.50001 0.0683 0.0
C381 C 0.99569 0.50972 0.11694 0.0
C382 C 1.00036 0.50836 0.02368 0.0
C383 C 1.02565 0.52673 0.02669 0.0
C384 C 0.03541 0.53697 0.0753 0.0
C385 C 1.02069 0.52855 0.11967 0.0
C386 C 0.08154 0.54676 0.9373 0.0
C387 C 0.07162 0.54756 0.88912 0.0
C388 C 0.06681 0.54039 0.98208 0.0
C389 C 0.04189 0.53484 0.97968 0.0
C390 C 0.03244 0.53665 0.93161 0.0
C391 C 0.04703 0.54283 0.88708 0.0
H392 H 0.57025 0.49244 0.06546 0.0
H393 H 0.51881 0.50383 0.15673 0.0
H394 H 0.55592 0.50384 0.98754 0.0
H395 H 0.50403 0.51446 0.07943 0.0
H396 H 0.50547 0.56171 0.94032 0.0
H397 H 0.51644 0.54714 0.01854 0.0
H398 H 0.5228 0.4922 0.92834 0.0
H399 H 0.51265 0.50718 0.85079 0.0
C400 C 0.55556 0.49688 0.06876 0.0
C401 C 0.54577 0.49727 0.11735 0.0
C402 C 0.54728 0.50344 0.0241 0.0
C403 C 0.52889 0.51037 0.02699 0.0
C404 C 0.51856 0.50983 0.07554 0.0
C405 C 0.52691 0.50345 0.11997 0.0
C406 C 0.50887 0.54631 0.9375 0.0
C407 C 0.50825 0.53572 0.88927 0.0
C408 C 0.51518 0.53789 0.98232 0.0
C409 C 0.52084 0.51857 0.97993 0.0
C410 C 0.5192 0.50744 0.9318 0.0
C411 C 0.5131 0.51593 0.88723 0.0
H412 H 0.55445 0.02784 0.15573 0.0
H413 H 0.56311 0.0902 0.06627 0.0
H414 H 0.54389 1.00275 0.07819 0.0
H415 H 0.55192 0.06471 0.98792 0.0
H416 H 0.54995 1.0187 0.85076 0.0
H417 H 0.56471 0.04374 0.92828 0.0
H418 H 0.51011 0.98231 0.0184 0.0
H419 H 0.49556 0.95684 0.94003 0.0
C420 C 0.55429 0.03632 0.1193 0.0
C421 C 0.55963 0.0611 0.11728 0.0
C422 C 0.54795 0.02175 0.07477 0.0
C423 C 0.54666 0.03145 0.0267 0.0
C424 C 0.55288 0.05659 0.02423 0.0
C425 C 0.55935 0.07128 0.06906 0.0
C426 C 0.5412 1.01032 0.88715 0.0
C427 C 0.52149 0.98568 0.88911 0.0
C428 C 0.54957 0.02487 0.93167 0.0
C429 C 0.53847 1.0153 0.9797 0.0
C430 C 0.51927 0.99031 0.98212 0.0
C431 C 0.5109 0.97564 0.93728 0.0
H432 H 0.20775 0.37298 0.97566 0.0
H433 H 0.14683 0.30028 0.93775 0.0
H434 H 0.2061 0.38745 0.89027 0.0
H435 H 0.14458 0.31526 0.85182 0.0
H436 H 0.18804 0.33818 0.69579 0.0
H437 H 0.17242 0.32409 0.78163 0.0
H438 H 0.18717 0.39761 0.82192 0.0
H439 H 0.2039 0.41216 0.73555 0.0
C440 C 0.19361 0.36016 0.94941 0.0
C441 C 0.17794 0.33522 0.96294 0.0
C442 C 0.1924 0.36864 0.90047 0.0
C443 C 0.17538 0.35244 0.86395 0.0
C444 C 0.15822 0.32805 0.87892 0.0
C445 C 0.15955 0.31946 0.92801 0.0
C446 C 0.18773 0.35138 0.72256 0.0
C447 C 0.19803 0.37652 0.70941 0.0
C448 C 0.17833 0.34314 0.77177 0.0
C449 C 0.17885 0.3598 0.80891 0.0
C450 C 0.187 0.38446 0.79433 0.0
C451 C 0.19663 0.3928 0.74497 0.0
H452 H 0.71077 0.83614 0.68268 0.0
H453 H 0.64192 0.82325 0.74989 0.0
H454 H 0.72673 0.8357 0.76837 0.0
H455 H 0.65821 0.82432 0.83574 0.0
H456 H 0.6889 0.82616 0.9876 0.0
H457 H 0.67268 0.80961 0.90218 0.0
H458 H 0.74175 0.86519 0.83406 0.0
H459 H 0.75826 0.88055 0.91967 0.0
C460 C 0.699 0.83297 0.71596 0.0
C461 C 0.67534 0.83016 0.71013 0.0
C462 C 0.70815 0.83283 0.765 0.0
C463 C 0.69403 0.83054 0.80913 0.0
C464 C 0.6696 0.82591 0.80277 0.0
C465 C 0.66025 0.82546 0.75358 0.0
C466 C 0.70072 0.83439 0.95423 0.0
C467 C 0.72462 0.85485 0.95977 0.0
C468 C 0.69142 0.82501 0.90534 0.0
C469 C 0.70565 0.83636 0.86106 0.0
C470 C 0.73027 0.85575 0.86716 0.0
C471 C 0.73975 0.86474 0.91621 0.0
H472 H 0.19841 0.90892 0.93929 0.0
H473 H 0.21016 0.84778 0.97627 0.0
H474 H 0.21588 0.91156 0.85352 0.0
H475 H 0.22655 0.84983 0.891 0.0
H476 H 0.25377 0.85257 0.73661 0.0
H477 H 0.25581 0.8691 0.82312 0.0
H478 H 0.19707 0.88398 0.78282 0.0
H479 H 0.19568 0.86855 0.69683 0.0
C480 C 0.20491 0.89623 0.92938 0.0
C481 C 0.20221 0.87767 0.96399 0.0
C482 C 0.21498 0.89779 0.88038 0.0
C483 C 0.22228 0.88068 0.86519 0.0
C484 C 0.22138 0.86348 0.90141 0.0
C485 C 0.21154 0.86205 0.95027 0.0
C486 C 0.24167 0.85984 0.74605 0.0
C487 C 0.22402 0.85851 0.71045 0.0
C488 C 0.24287 0.86935 0.79549 0.0
C489 C 0.22631 0.87745 0.81011 0.0
C490 C 0.21024 0.87809 0.77293 0.0
C491 C 0.20917 0.86881 0.72364 0.0
H492 H 0.34869 0.17263 0.30899 0.0
H493 H 0.42355 0.19154 0.26905 0.0
H494 H 0.33507 0.15727 0.22289 0.0
H495 H 0.4095 0.17496 0.18239 0.0
H496 H 0.38442 0.1957 0.0298 0.0
H497 H 0.39884 0.19354 0.11488 0.0
H498 H 0.32708 0.13079 0.15121 0.0
H499 H 0.31214 0.1336 0.06563 0.0
C500 C 0.36221 0.173 0.28213 0.0
C501 C 0.38742 0.18417 0.2953 0.0
C502 C 0.35425 0.16376 0.23271 0.0
C503 C 0.37127 0.16525 0.19537 0.0
C504 C 0.39605 0.17409 0.21006 0.0
C505 C 0.40411 0.18362 0.25962 0.0
C506 C 0.37169 0.18119 0.05551 0.0
C507 C 0.34685 0.16533 0.04152 0.0
C508 C 0.38015 0.17969 0.10428 0.0
C509 C 0.36405 0.16217 0.1402 0.0
C510 C 0.33979 0.14483 0.12467 0.0
C511 C 0.33121 0.14648 0.07577 0.0
H512 H 0.85222 0.19227 0.02883 0.0
H513 H 0.91678 0.18616 0.06525 0.0
H514 H 0.85235 0.20688 0.11533 0.0
H515 H 0.9173 0.20165 0.15214 0.0
H516 H 0.87763 0.18298 0.31215 0.0
H517 H 0.89039 0.1822 0.2244 0.0
H518 H 0.87155 0.23786 0.1813 0.0
H519 H 0.85786 0.23809 0.26957 0.0
C520 C 0.86675 0.19445 0.05501 0.0
C521 C 0.88417 0.18749 0.04045 0.0
C522 C 0.867 0.20318 0.10458 0.0
C523 C 0.88476 0.20531 0.14074 0.0
C524 C 0.90315 0.19984 0.12527 0.0
C525 C 0.90284 0.19095 0.07557 0.0
C526 C 0.87645 0.19533 0.28429 0.0
C527 C 0.86608 0.21012 0.29759 0.0
C528 C 0.88411 0.1951 0.23394 0.0
C529 C 0.88174 0.20978 0.19572 0.0
C530 C 0.87317 0.22601 0.20981 0.0
C531 C 0.86536 0.22616 0.26034 0.0
H532 H 0.8648 0.74183 0.06224 0.0
H533 H 0.85897 0.67098 0.02953 0.0
H534 H 0.84621 0.72647 0.14703 0.0
H535 H 0.84155 0.65619 0.11384 0.0
H536 H 0.81271 0.63047 0.2658 0.0
H537 H 0.8108 0.64422 0.17844 0.0
H538 H 0.86398 0.71953 0.22132 0.0
H539 H 0.86503 0.70616 0.30811 0.0
C540 C 0.85942 0.72298 0.07293 0.0
C541 C 0.86398 0.70787 0.03974 0.0
C542 C 0.8487 0.71416 0.12135 0.0
C543 C 0.84265 0.69019 0.13751 0.0
C544 C 0.84563 0.67461 0.10268 0.0
C545 C 0.85606 0.6833 0.05436 0.0
C546 C 0.82352 0.65003 0.25674 0.0
C547 C 0.83969 0.66708 0.29331 0.0
C548 C 0.82243 0.65791 0.20676 0.0
C549 C 0.83768 0.68288 0.19255 0.0
C550 C 0.8519 0.70019 0.23071 0.0
C551 C 0.8528 0.69239 0.28054 0.0
H552 H 0.97464 0.48824 0.41763 0.0
H553 H 0.04298 0.49877 0.35221 0.0
H554 H 0.99054 0.48951 0.50397 0.0
H555 H 0.05853 0.4986 0.4385 0.0
H556 H 0.09057 0.5452 0.58782 0.0
H557 H 0.07397 0.52904 0.50265 0.0
H558 H 1.00451 0.47497 0.57192 0.0
H559 H 1.02086 0.49227 0.65683 0.0
C560 C 0.99273 0.48993 0.42183 0.0
C561 C 1.00784 0.49396 0.37867 0.0
C562 C 1.00186 0.4905 0.47133 0.0
C563 C 1.02608 0.49464 0.47831 0.0
C564 C 0.04013 0.49613 0.43458 0.0
C565 C 1.03119 0.4961 0.38521 0.0
C566 C 0.07195 0.52956 0.58475 0.0
C567 C 0.05678 0.52032 0.62844 0.0
C568 C 0.06241 0.5201 0.53596 0.0
C569 C 0.03768 0.5009 0.53026 0.0
C570 C 1.02336 0.4902 0.57476 0.0
C571 C 0.03273 0.50002 0.62335 0.0
H572 H 0.56415 0.54088 0.65676 0.0
H573 H 0.51074 0.55724 0.58805 0.0
H574 H 0.58127 0.54171 0.57172 0.0
H575 H 0.52675 0.55668 0.50277 0.0
H576 H 0.55663 0.55559 0.35208 0.0
H577 H 0.55702 0.57155 0.43819 0.0
H578 H 0.56658 0.51299 0.50421 0.0
H579 H 0.56762 0.49811 0.41802 0.0
C580 C 0.55625 0.54488 0.62332 0.0
C581 C 0.53587 0.54854 0.62854 0.0
C582 C 0.56598 0.54527 0.57465 0.0
C583 C 0.5551 0.54873 0.53021 0.0
C584 C 0.53582 0.55419 0.53603 0.0
C585 C 0.52646 0.55433 0.58489 0.0
C586 C 0.55944 0.54659 0.38515 0.0
C587 C 0.56164 0.52539 0.37882 0.0
C588 C 0.55954 0.55563 0.43442 0.0
C589 C 0.56123 0.54325 0.47827 0.0
C590 C 0.56543 0.52319 0.47146 0.0
C591 C 0.56588 0.51449 0.42206 0.0
H592 H 0.47917 0.96865 0.60628 0.0
H593 H 0.54121 0.0411 0.64124 0.0
H594 H 0.476 0.98342 0.52077 0.0
H595 H 0.53868 0.05536 0.55623 0.0
H596 H 0.53602 0.07986 0.40236 0.0
H597 H 0.51968 0.06581 0.48916 0.0
H598 H 0.50224 0.99146 0.44861 0.0
H599 H 0.51735 1.00507 0.36235 0.0
C600 C 0.49196 0.98772 0.59597 0.0
C601 C 0.51089 1.00347 0.62995 0.0
C602 C 0.4901 0.99621 0.54711 0.0
C603 C 0.5073 1.02047 0.53135 0.0
C604 C 0.52493 0.03666 0.56701 0.0
C605 C 0.52664 0.02829 0.61575 0.0
C606 C 0.52819 0.06043 0.41181 0.0
C607 C 0.52876 0.04377 0.37606 0.0
C608 C 0.51881 0.05237 0.46145 0.0
C609 C 0.51014 0.02762 0.47617 0.0
C610 C 0.50861 1.0106 0.43877 0.0
C611 C 0.51771 1.01856 0.38925 0.0
H612 H 0.26196 0.29945 0.08607 0.0
H613 H 0.18997 0.24147 0.03626 0.0
H614 H 0.28107 0.2777 0.04662 0.0
H615 H 0.20927 0.21985 0.99567 0.0
H616 H 0.25307 0.17814 0.96745 0.0
H617 H 0.23135 0.19729 0.00817 0.0
H618 H 0.29021 0.26945 0.96174 0.0
H619 H 0.31207 0.25048 0.92217 0.0
C620 C 0.25012 0.28196 0.067 0.0
C621 C 0.22435 0.27237 0.06432 0.0
C622 C 0.26116 0.26955 0.0438 0.0
C623 C 0.24685 0.24717 0.01692 0.0
C624 C 0.22094 0.23699 0.01605 0.0
C625 C 0.20984 0.24942 0.03944 0.0
C626 C 0.26125 0.19808 0.96533 0.0
C627 C 0.28449 0.2127 0.94163 0.0
C628 C 0.24875 0.20908 0.98877 0.0
C629 C 0.25915 0.23502 0.98918 0.0
C630 C 0.28187 0.24949 0.96355 0.0
C631 C 0.29434 0.23854 0.94028 0.0
H632 H 0.80549 0.07107 0.91154 0.0
H633 H 0.87723 0.08615 0.96612 0.0
H634 H 0.78643 0.03047 0.95205 0.0
H635 H 0.85799 0.04558 0.00785 0.0
H636 H 0.75462 0.97238 0.07677 0.0
H637 H 0.77625 1.01303 0.03649 0.0
H638 H 0.83697 1.00125 0.99712 0.0
H639 H 0.8155 0.96064 0.03865 0.0
C640 C 0.81729 0.06571 0.93187 0.0
C641 C 0.84298 0.0821 0.93551 0.0
C642 C 0.80627 0.04241 0.95571 0.0
C643 C 0.82052 0.03473 0.98425 0.0
C644 C 0.84636 0.0507 0.98617 0.0
C645 C 0.85743 0.07405 0.96212 0.0
C646 C 0.77271 0.97849 0.06012 0.0
C647 C 0.78318 0.96301 0.06101 0.0
C648 C 0.78506 1.00181 0.0364 0.0
C649 C 0.80825 1.01042 0.01249 0.0
C650 C 0.81921 0.99538 0.01516 0.0
C651 C 0.80686 0.97201 0.0391 0.0
H652 H 0.97023 0.80181 0.96688 0.0
H653 H 0.9839 0.74305 0.92072 0.0
H654 H 1.01092 0.82341 0.00806 0.0
H655 H 1.0246 0.76481 0.96072 0.0
H656 H 0.08271 0.79289 0.08542 0.0
H657 H 0.04197 0.77374 0.04555 0.0
H658 H 0.05539 0.84563 0.99607 0.0
H659 H 0.09614 0.86496 0.03712 0.0
C660 C 0.98203 0.79367 0.96465 0.0
C661 C 0.97356 0.77053 0.94056 0.0
C662 C 1.00544 0.8061 0.98837 0.0
C663 C 1.02104 0.79574 0.98863 0.0
C664 C 1.01294 0.77312 0.96263 0.0
C665 C 0.98959 0.7607 0.9391 0.0
C666 C 0.07696 0.80474 0.0666 0.0
C667 C 0.09293 0.83055 0.06448 0.0
C668 C 0.05359 0.79367 0.04314 0.0
C669 C 0.04541 0.80801 0.01656 0.0
C670 C 0.06094 0.83394 0.01622 0.0
C671 C 0.08438 0.84506 0.03987 0.0
H672 H 0.82784 0.76334 0.92524 0.0
H673 H 0.89831 0.82336 0.97645 0.0
H674 H 0.80707 0.78449 0.96178 0.0
H675 H 0.87771 0.84407 0.01383 0.0
H676 H 0.77571 0.81746 0.07955 0.0
H677 H 0.79601 0.7959 0.04295 0.0
H678 H 0.85688 0.86596 0.99187 0.0
H679 H 0.83696 0.88738 0.02936 0.0
C680 C 0.83892 0.78108 0.94402 0.0
C681 C 0.86479 0.79168 0.94753 0.0
C682 C 0.82699 0.79311 0.96549 0.0
C683 C 0.84063 0.81607 0.99096 0.0
C684 C 0.86652 0.82666 0.99395 0.0
C685 C 0.87839 0.81469 0.97256 0.0
C686 C 0.79356 0.82825 0.06099 0.0
C687 C 0.80475 0.8542 0.05779 0.0
C688 C 0.8051 0.81586 0.03946 0.0
C689 C 0.82814 0.82909 0.0142 0.0
C690 C 0.83936 0.85507 0.01156 0.0
C691 C 0.82786 0.86741 0.03304 0.0
H692 H 0.16909 0.95906 0.02795 0.0
H693 H 0.23909 0.96826 0.07968 0.0
H694 H 0.19028 1.00034 0.99052 0.0
H695 H 0.26044 1.01011 0.0431 0.0
H696 H 0.29274 0.0747 0.9257 0.0
H697 H 0.27194 0.03276 0.96195 0.0
H698 H 0.2116 0.04294 0.01311 0.0
H699 H 0.23198 0.08428 0.97604 0.0
C700 C 0.18903 0.97002 0.03195 0.0
C701 C 0.20233 0.9603 0.05717 0.0
C702 C 0.20124 0.99384 0.01051 0.0
C703 C 0.22717 1.00877 0.01366 0.0
C704 C 0.2405 0.99911 0.03927 0.0
C705 C 0.22824 0.97519 0.06077 0.0
C706 C 0.27491 0.06784 0.94422 0.0
C707 C 0.264 0.08286 0.94757 0.0
C708 C 0.26307 0.04386 0.96552 0.0
C709 C 0.24 0.0343 0.99066 0.0
C710 C 0.22911 0.04936 0.99348 0.0
C711 C 0.24089 0.07322 0.97227 0.0
H712 H 0.97019 0.1592 0.97987 0.0
H713 H 0.98005 0.22926 0.92671 0.0
H714 H 1.01158 0.18016 0.01669 0.0
H715 H 1.02203 0.25039 0.96277 0.0
H716 H 0.0872 0.28238 0.07913 0.0
H717 H 0.04514 0.262 0.0436 0.0
H718 H 0.05405 0.20086 0.99262 0.0
H719 H 0.09556 0.22086 0.02894 0.0
C720 C 0.9813 0.17911 0.97553 0.0
C721 C 0.97174 0.19249 0.95001 0.0
C722 C 1.00518 0.19118 0.99657 0.0
C723 C 1.02037 0.21705 0.99275 0.0
C724 C 1.01084 0.23049 0.96706 0.0
C725 C 0.98683 0.21836 0.94591 0.0
C726 C 0.08005 0.26447 0.06078 0.0
C727 C 0.09476 0.25321 0.0573 0.0
C728 C 0.056 0.25287 0.0399 0.0
C729 C 0.04603 0.22969 0.01509 0.0
C730 C 0.0608 0.21847 0.01204 0.0
C731 C 0.08474 0.23002 0.03282 0.0
H732 H 0.92699 0.64428 0.36466 0.0
H733 H 0.86321 0.57425 0.40533 0.0
H734 H 0.94654 0.62294 0.32674 0.0
H735 H 0.88355 0.55254 0.36979 0.0
H736 H 0.91798 0.51933 0.2615 0.0
H737 H 0.89648 0.53997 0.29658 0.0
H738 H 0.9669 0.60192 0.34314 0.0
H739 H 0.98809 0.5821 0.30571 0.0
C740 C 0.91729 0.62424 0.36658 0.0
C741 C 0.89353 0.61108 0.38869 0.0
C742 C 0.92865 0.61186 0.34484 0.0
C743 C 0.91694 0.5858 0.34532 0.0
C744 C 0.89317 0.57256 0.36785 0.0
C745 C 0.88155 0.58503 0.38884 0.0
C746 C 0.92882 0.53752 0.27863 0.0
C747 C 0.95484 0.54912 0.27998 0.0
C748 C 0.91647 0.5493 0.29937 0.0
C749 C 0.92977 0.57286 0.3228 0.0
C750 C 0.9558 0.5842 0.32435 0.0
C751 C 0.96808 0.57269 0.30289 0.0
H752 H 0.47406 0.418 0.30949 0.0
H753 H 0.53578 0.40967 0.26072 0.0
H754 H 0.45439 0.3771 0.34725 0.0
H755 H 0.51523 0.36761 0.29611 0.0
H756 H 0.48151 0.30002 0.40474 0.0
H757 H 0.50325 0.34204 0.36921 0.0
H758 H 0.43277 0.33583 0.33094 0.0
H759 H 0.41146 0.29499 0.36884 0.0
C760 C 0.48325 0.40719 0.30573 0.0
C761 C 0.50648 0.41721 0.28141 0.0
C762 C 0.47182 0.38346 0.32738 0.0
C763 C 0.48289 0.36852 0.3246 0.0
C764 C 0.50612 0.37847 0.29985 0.0
C765 C 0.51785 0.40256 0.27893 0.0
C766 C 0.47073 0.30784 0.38932 0.0
C767 C 0.44468 0.29412 0.39049 0.0
C768 C 0.48321 0.33191 0.36832 0.0
C769 C 0.46995 0.34277 0.34714 0.0
C770 C 0.44388 0.32875 0.34799 0.0
C771 C 0.43151 0.30504 0.36972 0.0
H772 H 0.63868 0.06804 0.309 0.0
H773 H 0.6453 0.13811 0.26639 0.0
H774 H 0.67908 0.0893 0.34876 0.0
H775 H 0.68698 0.15977 0.30365 0.0
H776 H 0.75388 0.19302 0.41405 0.0
H777 H 0.71215 0.17264 0.377 0.0
H778 H 0.72037 0.10992 0.33483 0.0
H779 H 0.76081 0.12944 0.37444 0.0
C780 C 0.64903 0.08808 0.30702 0.0
C781 C 0.63867 0.10127 0.28382 0.0
C782 C 0.6725 0.10042 0.32981 0.0
C783 C 0.68687 0.12648 0.32927 0.0
C784 C 0.67658 0.13975 0.30567 0.0
C785 C 0.65271 0.12732 0.28368 0.0
C786 C 0.74652 0.17471 0.39751 0.0
C787 C 0.76065 0.16276 0.39816 0.0
C788 C 0.72263 0.16306 0.37562 0.0
C789 C 0.71241 0.13935 0.35287 0.0
C790 C 0.72688 0.12773 0.35314 0.0
C791 C 0.75037 0.13907 0.37587 0.0
H792 H 0.56604 0.15905 0.30969 0.0
H793 H 0.49583 0.09879 0.25794 0.0
H794 H 0.54506 0.17954 0.34683 0.0
H795 H 0.47475 0.1196 0.29432 0.0
H796 H 0.44257 0.15121 0.41274 0.0
H797 H 0.46364 0.1304 0.37629 0.0
H798 H 0.52348 0.201 0.3248 0.0
H799 H 0.50273 0.2217 0.36201 0.0
C800 C 0.54611 0.15029 0.30562 0.0
C801 C 0.53267 0.12727 0.28056 0.0
C802 C 0.53404 0.16211 0.32689 0.0
C803 C 0.50812 0.15129 0.32383 0.0
C804 C 0.49467 0.12838 0.29815 0.0
C805 C 0.5068 0.11654 0.27675 0.0
C806 C 0.46036 0.16229 0.39413 0.0
C807 C 0.47099 0.18817 0.39064 0.0
C808 C 0.47234 0.15033 0.37269 0.0
C809 C 0.4953 0.16393 0.34728 0.0
C810 C 0.50602 0.18986 0.34453 0.0
C811 C 0.49405 0.20177 0.36584 0.0
H812 H 0.83308 0.29217 0.36052 0.0
H813 H 0.90372 0.30324 0.41276 0.0
H814 H 0.85353 0.33339 0.32236 0.0
H815 H 0.92427 0.34487 0.37535 0.0
H816 H 0.95581 0.40807 0.25637 0.0
H817 H 0.93505 0.36633 0.29306 0.0
H818 H 0.87463 0.37653 0.34344 0.0
H819 H 0.89512 0.41793 0.30595 0.0
C820 C 0.85299 0.30351 0.36441 0.0
C821 C 0.86671 0.29434 0.38993 0.0
C822 C 0.86476 0.32727 0.34257 0.0
C823 C 0.89064 0.34262 0.34552 0.0
C824 C 0.90436 0.33352 0.37158 0.0
C825 C 0.89255 0.30971 0.39353 0.0
C826 C 0.93796 0.40129 0.27476 0.0
C827 C 0.92711 0.41638 0.27791 0.0
C828 C 0.92615 0.37741 0.29635 0.0
C829 C 0.90315 0.36795 0.3216 0.0
C830 C 0.89216 0.38296 0.32388 0.0
C831 C 0.90396 0.4068 0.30239 0.0
H832 H 0.63744 0.48834 0.30716 0.0
H833 H 0.64742 0.55879 0.25646 0.0
H834 H 0.67877 0.50919 0.34493 0.0
H835 H 0.68909 0.5797 0.29339 0.0
H836 H 0.7522 0.61179 0.4124 0.0
H837 H 0.71046 0.59052 0.37565 0.0
H838 H 0.72193 0.53103 0.32422 0.0
H839 H 0.76328 0.55199 0.36177 0.0
C840 C 0.64858 0.50828 0.30342 0.0
C841 C 0.63905 0.52184 0.27855 0.0
C842 C 0.67239 0.52028 0.32507 0.0
C843 C 0.68741 0.54623 0.32256 0.0
C844 C 0.678 0.55976 0.29689 0.0
C845 C 0.65416 0.54773 0.27516 0.0
C846 C 0.74569 0.59404 0.39376 0.0
C847 C 0.76112 0.58359 0.39032 0.0
C848 C 0.72182 0.58193 0.37214 0.0
C849 C 0.71271 0.55903 0.34657 0.0
C850 C 0.72807 0.54845 0.34402 0.0
C851 C 0.75189 0.56054 0.36553 0.0
H852 H 0.586 0.84677 0.63047 0.0
H853 H 0.64686 0.91878 0.5894 0.0
H854 H 0.56479 0.86643 0.67093 0.0
H855 H 0.62542 0.93833 0.62845 0.0
H856 H 0.59647 0.96858 0.75123 0.0
H857 H 0.61551 0.94679 0.7116 0.0
H858 H 0.54368 0.88938 0.6596 0.0
H859 H 0.52448 0.91092 0.70062 0.0
C860 C 0.59469 0.86677 0.62912 0.0
C861 C 0.61829 0.88112 0.60672 0.0
C862 C 0.58247 0.87809 0.65244 0.0
C863 C 0.59346 0.90408 0.65388 0.0
C864 C 0.61658 0.91833 0.62949 0.0
C865 C 0.62882 0.90705 0.60647 0.0
C866 C 0.58462 0.95117 0.73188 0.0
C867 C 0.55887 0.94163 0.72918 0.0
C868 C 0.59563 0.93874 0.70854 0.0
C869 C 0.58129 0.91644 0.68138 0.0
C870 C 0.5554 0.90641 0.68025 0.0
C871 C 0.54435 0.91881 0.70389 0.0
H872 H 0.13869 0.739 0.58638 0.0
H873 H 0.21034 0.75265 0.63827 0.0
H874 H 0.11932 0.69805 0.62536 0.0
H875 H 0.19079 0.71175 0.67861 0.0
H876 H 0.14777 0.62674 0.70652 0.0
H877 H 0.1694 0.66766 0.66646 0.0
H878 H 0.1091 0.67965 0.70862 0.0
H879 H 0.08727 0.63865 0.74732 0.0
C880 C 0.15039 0.73325 0.60586 0.0
C881 C 0.17615 0.74933 0.60915 0.0
C882 C 0.1392 0.70976 0.62882 0.0
C883 C 0.15334 0.70157 0.65617 0.0
C884 C 0.17923 0.71726 0.65781 0.0
C885 C 0.19049 0.74079 0.63457 0.0
C886 C 0.13924 0.63821 0.70786 0.0
C887 C 0.11563 0.62918 0.73009 0.0
C888 C 0.15169 0.66177 0.68479 0.0
C889 C 0.14092 0.67699 0.68338 0.0
C890 C 0.11778 0.66831 0.70756 0.0
C891 C 0.10531 0.64479 0.73037 0.0
H892 H 0.41793 0.45999 0.74719 0.0
H893 H 0.42919 0.53207 0.70566 0.0
H894 H 0.37697 0.44055 0.70817 0.0
H895 H 0.38836 0.51253 0.66523 0.0
H896 H 0.31754 0.41034 0.58601 0.0
H897 H 0.35844 0.43202 0.62516 0.0
H898 H 0.34443 0.48983 0.67697 0.0
H899 H 0.30363 0.4684 0.63641 0.0
C900 C 0.41166 0.47176 0.73 0.0
C901 C 0.42706 0.49768 0.72964 0.0
C902 C 0.38816 0.46055 0.707 0.0
C903 C 0.37933 0.47485 0.68254 0.0
C904 C 0.39436 0.50083 0.6838 0.0
C905 C 0.41787 0.51208 0.70709 0.0
C906 C 0.32322 0.42782 0.60519 0.0
C907 C 0.30709 0.43749 0.60799 0.0
C908 C 0.34668 0.44018 0.62827 0.0
C909 C 0.35477 0.46256 0.65524 0.0
C910 C 0.33901 0.47273 0.65643 0.0
C911 C 0.31553 0.4604 0.63307 0.0
H912 H 0.23195 0.49095 0.64314 0.0
H913 H 0.16156 0.43054 0.59264 0.0
H914 H 0.21115 0.51145 0.68072 0.0
H915 H 0.14061 0.45145 0.62934 0.0
H916 H 0.10897 0.48394 0.7473 0.0
H917 H 0.12957 0.4627 0.71062 0.0
H918 H 0.18993 0.533 0.65915 0.0
H919 H 0.16972 0.55411 0.69674 0.0
C920 C 0.21201 0.48215 0.63942 0.0
C921 C 0.19847 0.4591 0.61457 0.0
C922 C 0.20003 0.494 0.66094 0.0
C923 C 0.1741 0.48321 0.65824 0.0
C924 C 0.16055 0.46022 0.63287 0.0
C925 C 0.17258 0.44832 0.61129 0.0
C926 C 0.12677 0.49486 0.72865 0.0
C927 C 0.13773 0.52077 0.72534 0.0
C928 C 0.13848 0.48265 0.70707 0.0
C929 C 0.16147 0.49604 0.68165 0.0
C930 C 0.17246 0.522 0.67895 0.0
C931 C 0.1608 0.53416 0.70048 0.0
H932 H 0.50063 0.62671 0.69639 0.0
H933 H 0.57115 0.63694 0.74716 0.0
H934 H 0.5213 0.66785 0.6581 0.0
H935 H 0.59195 0.67859 0.7098 0.0
H936 H 0.6236 0.74192 0.59062 0.0
H937 H 0.60289 0.7003 0.62809 0.0
H938 H 0.54257 0.71075 0.67819 0.0
H939 H 0.56291 0.75188 0.63979 0.0
C940 C 0.52056 0.63788 0.70004 0.0
C941 C 0.53418 0.62847 0.72512 0.0
C942 C 0.53247 0.6616 0.67811 0.0
C943 C 0.5584 0.67673 0.6806 0.0
C944 C 0.57202 0.66743 0.70635 0.0
C945 C 0.56006 0.64361 0.72833 0.0
C946 C 0.60578 0.7352 0.60913 0.0
C947 C 0.59488 0.75025 0.61184 0.0
C948 C 0.594 0.7114 0.63117 0.0
C949 C 0.57101 0.70202 0.6565 0.0
C950 C 0.56005 0.71706 0.65852 0.0
C951 C 0.57179 0.74077 0.63651 0.0
H952 H 0.31408 0.8953 0.5931 0.0
H953 H 0.30503 0.82533 0.64461 0.0
H954 H 0.35596 0.91669 0.62943 0.0
H955 H 0.34637 0.84657 0.6818 0.0
H956 H 0.43037 0.88854 0.69612 0.0
H957 H 0.38898 0.868 0.65925 0.0
H958 H 0.37861 0.92821 0.71048 0.0
H959 H 0.42057 0.94916 0.74652 0.0
C960 C 0.32104 0.88446 0.6119 0.0
C961 C 0.30618 0.85855 0.61554 0.0
C962 C 0.34499 0.89675 0.63327 0.0
C963 C 0.35471 0.88344 0.65877 0.0
C964 C 0.33981 0.8575 0.6619 0.0
C965 C 0.31597 0.84527 0.64061 0.0
C966 C 0.41926 0.89738 0.69995 0.0
C967 C 0.42885 0.9205 0.72459 0.0
C968 C 0.39537 0.88551 0.67885 0.0
C969 C 0.38024 0.89634 0.68173 0.0
C970 C 0.38976 0.91941 0.70685 0.0
C971 C 0.41375 0.93133 0.72804 0.0
loop_
_geom_bond_atom_site_label_1
_geom_bond_atom_site_label_2
_geom_bond_distance
_geom_bond_site_symmetry_2
_ccdc_geom_bond_type
Co0 O1 2.216 . S
Co0 O2 2.091 . S
Co0 O4 2.004 . S
Co0 O10 2.021 1_554 S
Co0 O12 2.137 . S
Co0 O13 2.244 . S
O1 Co0 2.216 . S
O1 C8 1.247 . S
O2 Co0 2.091 . S
O2 C8 1.261 . S
C3 O12 1.247 . S
C3 O13 1.272 . S
O4 Co0 2.004 . S
O4 C9 1.259 . S
Co5 O6 2.061 . S
Co5 O11 2.052 1_554 S
Co5 O13 2.135 . S
O6 Co5 2.061 . S
O6 C9 1.235 . S
C7 O10 1.238 . S
C7 O11 1.241 . S
C8 O1 1.247 . S
C8 O2 1.261 . S
C9 O4 1.259 . S
C9 O6 1.235 . S
O10 Co0 2.021 1_556 S
O10 C7 1.238 . S
O11 Co5 2.052 1_556 S
O11 C7 1.241 . S
O12 Co0 2.137 . S
O12 C3 1.247 . S
O13 Co0 2.244 . S
O13 C3 1.272 . S
O13 Co5 2.135 . S
Co14 O15 2.216 . S
Co14 O16 2.091 . S
Co14 O18 2.004 . S
Co14 O24 2.021 1_554 S
Co14 O26 2.137 . S
Co14 O27 2.244 . S
O15 Co14 2.216 . S
O15 C22 1.247 . S
O16 Co14 2.091 . S
O16 C22 1.261 . S
C17 O26 1.247 . S
C17 O27 1.272 . S
O18 Co14 2.004 . S
O18 C23 1.259 . S
Co19 O20 2.061 . S
Co19 O25 2.052 1_554 S
Co19 O27 2.135 . S
O20 Co19 2.061 . S
O20 C23 1.235 . S
C21 O24 1.238 . S
C21 O25 1.241 . S
C22 O15 1.247 . S
C22 O16 1.261 . S
C23 O18 1.259 . S
C23 O20 1.235 . S
O24 Co14 2.021 1_556 S
O24 C21 1.238 . S
O25 Co19 2.052 1_556 S
O25 C21 1.241 . S
O26 Co14 2.137 . S
O26 C17 1.247 . S
O27 Co14 2.244 . S
O27 C17 1.272 . S
O27 Co19 2.135 . S
Co28 O29 2.216 . S
Co28 O30 2.091 . S
Co28 O32 2.004 . S
Co28 O38 2.021 1_554 S
Co28 O40 2.137 . S
Co28 O41 2.244 . S
O29 Co28 2.216 . S
O29 C36 1.247 . S
O30 Co28 2.091 . S
O30 C36 1.261 . S
C31 O40 1.247 . S
C31 O41 1.272 . S
O32 Co28 2.004 . S
O32 C37 1.259 . S
Co33 O34 2.061 . S
Co33 O39 2.052 1_554 S
Co33 O41 2.135 . S
O34 Co33 2.061 . S
O34 C37 1.235 . S
C35 O38 1.238 . S
C35 O39 1.241 . S
C36 O29 1.247 . S
C36 O30 1.261 . S
C37 O32 1.259 . S
C37 O34 1.235 . S
O38 Co28 2.021 1_556 S
O38 C35 1.238 . S
O39 Co33 2.052 1_556 S
O39 C35 1.241 . S
O40 Co28 2.137 . S
O40 C31 1.247 . S
O41 Co28 2.244 . S
O41 C31 1.272 . S
O41 Co33 2.135 . S
Co42 O43 2.216 . S
Co42 O44 2.091 . S
Co42 O46 2.004 . S
Co42 O52 2.021 1_556 S
Co42 O54 2.137 . S
Co42 O55 2.244 . S
O43 Co42 2.216 . S
O43 C50 1.247 . S
O44 Co42 2.091 . S
O44 C50 1.261 . S
C45 O54 1.247 . S
C45 O55 1.272 . S
O46 Co42 2.004 . S
O46 C51 1.259 . S
Co47 O48 2.061 . S
Co47 O53 2.052 1_556 S
Co47 O55 2.135 . S
O48 Co47 2.061 . S
O48 C51 1.235 . S
C49 O52 1.238 . S
C49 O53 1.241 . S
C50 O43 1.247 . S
C50 O44 1.261 . S
C51 O46 1.259 . S
C51 O48 1.235 . S
O52 Co42 2.021 1_554 S
O52 C49 1.238 . S
O53 Co47 2.052 1_554 S
O53 C49 1.241 . S
O54 Co42 2.137 . S
O54 C45 1.247 . S
O55 Co42 2.244 . S
O55 C45 1.272 . S
O55 Co47 2.135 . S
Co56 O57 2.216 . S
Co56 O58 2.091 . S
Co56 O60 2.004 . S
Co56 O66 2.021 1_556 S
Co56 O68 2.137 . S
Co56 O69 2.244 . S
O57 Co56 2.216 . S
O57 C64 1.247 . S
O58 Co56 2.091 . S
O58 C64 1.261 . S
C59 O68 1.247 . S
C59 O69 1.272 . S
O60 Co56 2.004 . S
O60 C65 1.259 . S
Co61 O62 2.061 . S
Co61 O67 2.052 1_556 S
Co61 O69 2.135 . S
O62 Co61 2.061 . S
O62 C65 1.235 . S
C63 O66 1.238 . S
C63 O67 1.241 . S
C64 O57 1.247 . S
C64 O58 1.261 . S
C65 O60 1.259 . S
C65 O62 1.235 . S
O66 Co56 2.021 1_554 S
O66 C63 1.238 . S
O67 Co61 2.052 1_554 S
O67 C63 1.241 . S
O68 Co56 2.137 . S
O68 C59 1.247 . S
O69 Co56 2.244 . S
O69 C59 1.272 . S
O69 Co61 2.135 . S
Co70 O71 2.216 . S
Co70 O72 2.091 . S
Co70 O74 2.004 . S
Co70 O80 2.021 1_556 S
Co70 O82 2.137 . S
Co70 O83 2.244 . S
O71 Co70 2.216 . S
O71 C78 1.247 . S
O72 Co70 2.091 . S
O72 C78 1.261 . S
C73 O82 1.247 . S
C73 O83 1.272 . S
O74 Co70 2.004 . S
O74 C79 1.259 . S
Co75 O76 2.061 . S
Co75 O81 2.052 1_556 S
Co75 O83 2.135 . S
O76 Co75 2.061 . S
O76 C79 1.235 . S
C77 O80 1.238 . S
C77 O81 1.241 . S
C78 O71 1.247 . S
C78 O72 1.261 . S
C79 O74 1.259 . S
C79 O76 1.235 . S
O80 Co70 2.021 1_554 S
O80 C77 1.238 . S
O81 Co75 2.052 1_554 S
O81 C77 1.241 . S
O82 Co70 2.137 . S
O82 C73 1.247 . S
O83 Co70 2.244 . S
O83 C73 1.272 . S
O83 Co75 2.135 . S
Co84 O85 2.216 . S
Co84 O86 2.091 . S
Co84 O88 2.004 . S
Co84 O94 2.021 . S
Co84 O96 2.137 . S
Co84 O97 2.244 . S
O85 Co84 2.216 . S
O85 C92 1.247 . S
O86 Co84 2.091 . S
O86 C92 1.261 . S
C87 O96 1.247 . S
C87 O97 1.272 . S
O88 Co84 2.004 . S
O88 C93 1.259 . S
Co89 O90 2.061 . S
Co89 O95 2.052 . S
Co89 O97 2.135 . S
O90 Co89 2.061 . S
O90 C93 1.235 . S
C91 O94 1.238 . S
C91 O95 1.241 . S
C92 O85 1.247 . S
C92 O86 1.261 . S
C93 O88 1.259 . S
C93 O90 1.235 . S
O94 Co84 2.021 . S
O94 C91 1.238 . S
O95 Co89 2.052 . S
O95 C91 1.241 . S
O96 Co84 2.137 . S
O96 C87 1.247 . S
O97 Co84 2.244 . S
O97 C87 1.272 . S
O97 Co89 2.135 . S
Co98 O99 2.216 . S
Co98 O100 2.091 . S
Co98 O102 2.004 . S
Co98 O108 2.021 . S
Co98 O110 2.137 . S
Co98 O111 2.244 . S
O99 Co98 2.216 . S
O99 C106 1.247 . S
O100 Co98 2.091 . S
O100 C106 1.261 . S
C101 O110 1.247 . S
C101 O111 1.272 . S
O102 Co98 2.004 . S
O102 C107 1.259 . S
Co103 O104 2.061 . S
Co103 O109 2.052 . S
Co103 O111 2.135 . S
O104 Co103 2.061 . S
O104 C107 1.235 . S
C105 O108 1.238 . S
C105 O109 1.241 . S
C106 O99 1.247 . S
C106 O100 1.261 . S
C107 O102 1.259 . S
C107 O104 1.235 . S
O108 Co98 2.021 . S
O108 C105 1.238 . S
O109 Co103 2.052 . S
O109 C105 1.241 . S
O110 Co98 2.137 . S
O110 C101 1.247 . S
O111 Co98 2.244 . S
O111 C101 1.272 . S
O111 Co103 2.135 . S
Co112 O113 2.216 . S
Co112 O114 2.091 . S
Co112 O116 2.004 . S
Co112 O122 2.021 . S
Co112 O124 2.137 . S
Co112 O125 2.244 . S
O113 Co112 2.216 . S
O113 C120 1.247 . S
O114 Co112 2.091 . S
O114 C120 1.261 . S
C115 O124 1.247 . S
C115 O125 1.272 . S
O116 Co112 2.004 . S
O116 C121 1.259 . S
Co117 O118 2.061 . S
Co117 O123 2.052 . S
Co117 O125 2.135 . S
O118 Co117 2.061 . S
O118 C121 1.235 . S
C119 O122 1.238 . S
C119 O123 1.241 . S
C120 O113 1.247 . S
C120 O114 1.261 . S
C121 O116 1.259 . S
C121 O118 1.235 . S
O122 Co112 2.021 . S
O122 C119 1.238 . S
O123 Co117 2.052 . S
O123 C119 1.241 . S
O124 Co112 2.137 . S
O124 C115 1.247 . S
O125 Co112 2.244 . S
O125 C115 1.272 . S
O125 Co117 2.135 . S
Co126 O127 2.216 . S
Co126 O128 2.091 . S
Co126 O130 2.004 . S
Co126 O136 2.021 . S
Co126 O138 2.137 . S
Co126 O139 2.244 . S
O127 Co126 2.216 . S
O127 C134 1.247 . S
O128 Co126 2.091 . S
O128 C134 1.261 . S
C129 O138 1.247 . S
C129 O139 1.272 . S
O130 Co126 2.004 . S
O130 C135 1.259 . S
Co131 O132 2.061 . S
Co131 O137 2.052 . S
Co131 O139 2.135 . S
O132 Co131 2.061 . S
O132 C135 1.235 . S
C133 O136 1.238 . S
C133 O137 1.241 . S
C134 O127 1.247 . S
C134 O128 1.261 . S
C135 O130 1.259 . S
C135 O132 1.235 . S
O136 Co126 2.021 . S
O136 C133 1.238 . S
O137 Co131 2.052 . S
O137 C133 1.241 . S
O138 Co126 2.137 . S
O138 C129 1.247 . S
O139 Co126 2.244 . S
O139 C129 1.272 . S
O139 Co131 2.135 . S
Co140 O141 2.216 . S
Co140 O142 2.091 . S
Co140 O144 2.004 . S
Co140 O150 2.021 . S
Co140 O152 2.137 . S
Co140 O153 2.244 . S
O141 Co140 2.216 . S
O141 C148 1.247 . S
O142 Co140 2.091 . S
O142 C148 1.261 . S
C143 O152 1.247 . S
C143 O153 1.272 . S
O144 Co140 2.004 . S
O144 C149 1.259 . S
Co145 O146 2.061 . S
Co145 O151 2.052 . S
Co145 O153 2.135 . S
O146 Co145 2.061 . S
O146 C149 1.235 . S
C147 O150 1.238 . S
C147 O151 1.241 . S
C148 O141 1.247 . S
C148 O142 1.261 . S
C149 O144 1.259 . S
C149 O146 1.235 . S
O150 Co140 2.021 . S
O150 C147 1.238 . S
O151 Co145 2.052 . S
O151 C147 1.241 . S
O152 Co140 2.137 . S
O152 C143 1.247 . S
O153 Co140 2.244 . S
O153 C143 1.272 . S
O153 Co145 2.135 . S
Co154 O155 2.216 . S
Co154 O156 2.091 . S
Co154 O158 2.004 . S
Co154 O164 2.021 . S
Co154 O166 2.137 . S
Co154 O167 2.244 . S
O155 Co154 2.216 . S
O155 C162 1.247 . S
O156 Co154 2.091 . S
O156 C162 1.261 . S
C157 O166 1.247 . S
C157 O167 1.272 . S
O158 Co154 2.004 . S
O158 C163 1.259 . S
Co159 O160 2.061 . S
Co159 O165 2.052 . S
Co159 O167 2.135 . S
O160 Co159 2.061 . S
O160 C163 1.235 . S
C161 O164 1.238 . S
C161 O165 1.241 . S
C162 O155 1.247 . S
C162 O156 1.261 . S
C163 O158 1.259 . S
C163 O160 1.235 . S
O164 Co154 2.021 . S
O164 C161 1.238 . S
O165 Co159 2.052 . S
O165 C161 1.241 . S
O166 Co154 2.137 . S
O166 C157 1.247 . S
O167 Co154 2.244 . S
O167 C157 1.272 . S
O167 Co159 2.135 . S
Co168 O169 2.216 . S
Co168 O170 2.091 . S
Co168 O172 2.004 . S
Co168 O178 2.021 . S
Co168 O180 2.137 . S
Co168 O181 2.244 . S
O169 Co168 2.216 . S
O169 C176 1.247 . S
O170 Co168 2.091 . S
O170 C176 1.261 . S
C171 O180 1.247 . S
C171 O181 1.272 . S
O172 Co168 2.004 . S
O172 C177 1.259 . S
Co173 O174 2.061 . S
Co173 O179 2.052 . S
Co173 O181 2.135 . S
O174 Co173 2.061 . S
O174 C177 1.235 . S
C175 O178 1.238 . S
C175 O179 1.241 . S
C176 O169 1.247 . S
C176 O170 1.261 . S
C177 O172 1.259 . S
C177 O174 1.235 . S
O178 Co168 2.021 . S
O178 C175 1.238 . S
O179 Co173 2.052 . S
O179 C175 1.241 . S
O180 Co168 2.137 . S
O180 C171 1.247 . S
O181 Co168 2.244 . S
O181 C171 1.272 . S
O181 Co173 2.135 . S
Co182 O183 2.216 . S
Co182 O184 2.091 . S
Co182 O186 2.004 . S
Co182 O192 2.021 . S
Co182 O194 2.137 . S
Co182 O195 2.244 . S
O183 Co182 2.216 . S
O183 C190 1.247 . S
O184 Co182 2.091 . S
O184 C190 1.261 . S
C185 O194 1.247 . S
C185 O195 1.272 . S
O186 Co182 2.004 . S
O186 C191 1.259 . S
Co187 O188 2.061 . S
Co187 O193 2.052 . S
Co187 O195 2.135 . S
O188 Co187 2.061 . S
O188 C191 1.235 . S
C189 O192 1.238 . S
C189 O193 1.241 . S
C190 O183 1.247 . S
C190 O184 1.261 . S
C191 O186 1.259 . S
C191 O188 1.235 . S
O192 Co182 2.021 . S
O192 C189 1.238 . S
O193 Co187 2.052 . S
O193 C189 1.241 . S
O194 Co182 2.137 . S
O194 C185 1.247 . S
O195 Co182 2.244 . S
O195 C185 1.272 . S
O195 Co187 2.135 . S
Co196 O197 2.216 . S
Co196 O198 2.091 . S
Co196 O200 2.004 . S
Co196 O206 2.021 . S
Co196 O208 2.137 . S
Co196 O209 2.244 . S
O197 Co196 2.216 . S
O197 C204 1.247 . S
O198 Co196 2.091 . S
O198 C204 1.261 . S
C199 O208 1.247 . S
C199 O209 1.272 . S
O200 Co196 2.004 . S
O200 C205 1.259 . S
Co201 O202 2.061 . S
Co201 O207 2.052 . S
Co201 O209 2.135 . S
O202 Co201 2.061 . S
O202 C205 1.235 . S
C203 O206 1.238 . S
C203 O207 1.241 . S
C204 O197 1.247 . S
C204 O198 1.261 . S
C205 O200 1.259 . S
C205 O202 1.235 . S
O206 Co196 2.021 . S
O206 C203 1.238 . S
O207 Co201 2.052 . S
O207 C203 1.241 . S
O208 Co196 2.137 . S
O208 C199 1.247 . S
O209 Co196 2.244 . S
O209 C199 1.272 . S
O209 Co201 2.135 . S
Co210 O211 2.216 . S
Co210 O212 2.091 . S
Co210 O214 2.004 . S
Co210 O220 2.021 . S
Co210 O222 2.137 . S
Co210 O223 2.244 . S
O211 Co210 2.216 . S
O211 C218 1.247 . S
O212 Co210 2.091 . S
O212 C218 1.261 . S
C213 O222 1.247 . S
C213 O223 1.272 . S
O214 Co210 2.004 . S
O214 C219 1.259 . S
Co215 O216 2.061 . S
Co215 O221 2.052 . S
Co215 O223 2.135 . S
O216 Co215 2.061 . S
O216 C219 1.235 . S
C217 O220 1.238 . S
C217 O221 1.241 . S
C218 O211 1.247 . S
C218 O212 1.261 . S
C219 O214 1.259 . S
C219 O216 1.235 . S
O220 Co210 2.021 . S
O220 C217 1.238 . S
O221 Co215 2.052 . S
O221 C217 1.241 . S
O222 Co210 2.137 . S
O222 C213 1.247 . S
O223 Co210 2.244 . S
O223 C213 1.272 . S
O223 Co215 2.135 . S
Co224 O225 2.216 . S
Co224 O226 2.091 . S
Co224 O228 2.004 . S
Co224 O234 2.021 . S
Co224 O236 2.137 . S
Co224 O237 2.244 . S
O225 Co224 2.216 . S
O225 C232 1.247 . S
O226 Co224 2.091 . S
O226 C232 1.261 . S
C227 O236 1.247 . S
C227 O237 1.272 . S
O228 Co224 2.004 . S
O228 C233 1.259 . S
Co229 O230 2.061 . S
Co229 O235 2.052 . S
Co229 O237 2.135 . S
O230 Co229 2.061 . S
O230 C233 1.235 . S
C231 O234 1.238 . S
C231 O235 1.241 . S
C232 O225 1.247 . S
C232 O226 1.261 . S
C233 O228 1.259 . S
C233 O230 1.235 . S
O234 Co224 2.021 . S
O234 C231 1.238 . S
O235 Co229 2.052 . S
O235 C231 1.241 . S
O236 Co224 2.137 . S
O236 C227 1.247 . S
O237 Co224 2.244 . S
O237 C227 1.272 . S
O237 Co229 2.135 . S
Co238 O239 2.216 . S
Co238 O240 2.091 . S
Co238 O242 2.004 . S
Co238 O248 2.021 . S
Co238 O250 2.137 . S
Co238 O251 2.244 . S
O239 Co238 2.216 . S
O239 C246 1.247 . S
O240 Co238 2.091 . S
O240 C246 1.261 . S
C241 O250 1.247 . S
C241 O251 1.272 . S
O242 Co238 2.004 . S
O242 C247 1.259 . S
Co243 O244 2.061 . S
Co243 O249 2.052 . S
Co243 O251 2.135 . S
O244 Co243 2.061 . S
O244 C247 1.235 . S
C245 O248 1.238 . S
C245 O249 1.241 . S
C246 O239 1.247 . S
C246 O240 1.261 . S
C247 O242 1.259 . S
C247 O244 1.235 . S
O248 Co238 2.021 . S
O248 C245 1.238 . S
O249 Co243 2.052 . S
O249 C245 1.241 . S
O250 Co238 2.137 . S
O250 C241 1.247 . S
O251 Co238 2.244 . S
O251 C241 1.272 . S
O251 Co243 2.135 . S
H252 C260 0.950 . S
H253 C265 0.950 . S
H254 C262 0.950 . S
H255 C264 0.950 . S
H256 C266 0.950 . S
H257 C268 0.950 . S
H258 C270 0.950 . S
H259 C271 0.950 . S
C260 H252 0.950 . S
C260 C261 1.386 . S
C260 C262 1.391 . S
C261 C260 1.386 . S
C261 C265 1.393 . S
C262 H254 0.950 . S
C262 C260 1.391 . S
C262 C263 1.400 . S
C263 C262 1.400 . S
C263 C264 1.398 . S
C263 C269 1.491 . S
C264 H255 0.950 . S
C264 C263 1.398 . S
C264 C265 1.391 . S
C265 H253 0.950 . S
C265 C261 1.393 . S
C265 C264 1.391 . S
C266 H256 0.950 . S
C266 C267 1.386 . S
C266 C268 1.391 . S
C267 C266 1.386 . S
C267 C271 1.393 . S
C268 H257 0.950 . S
C268 C266 1.391 . S
C268 C269 1.400 . S
C269 C263 1.491 . S
C269 C268 1.400 . S
C269 C270 1.398 . S
C270 H258 0.950 . S
C270 C269 1.398 . S
C270 C271 1.391 . S
C271 H259 0.950 . S
C271 C267 1.393 . S
C271 C270 1.391 . S
H272 C280 0.950 . S
H273 C285 0.950 . S
H274 C282 0.950 . S
H275 C284 0.950 . S
H276 C286 0.950 . S
H277 C288 0.950 . S
H278 C290 0.950 . S
H279 C291 0.950 . S
C280 H272 0.950 . S
C280 C281 1.386 . S
C280 C282 1.391 . S
C281 C280 1.386 . S
C281 C285 1.393 . S
C282 H274 0.950 . S
C282 C280 1.391 . S
C282 C283 1.400 . S
C283 C282 1.400 . S
C283 C284 1.398 . S
C283 C289 1.491 . S
C284 H275 0.950 . S
C284 C283 1.398 . S
C284 C285 1.391 . S
C285 H273 0.950 . S
C285 C281 1.393 . S
C285 C284 1.391 . S
C286 H276 0.950 . S
C286 C287 1.386 . S
C286 C288 1.391 . S
C287 C286 1.386 . S
C287 C291 1.393 . S
C288 H277 0.950 . S
C288 C286 1.391 . S
C288 C289 1.400 . S
C289 C283 1.491 . S
C289 C288 1.400 . S
C289 C290 1.398 . S
C290 H278 0.950 . S
C290 C289 1.398 . S
C290 C291 1.391 . S
C291 H279 0.950 . S
C291 C287 1.393 . S
C291 C290 1.391 . S
H292 C300 0.950 . S
H293 C305 0.950 . S
H294 C302 0.950 . S
H295 C304 0.950 . S
H296 C306 0.950 . S
H297 C308 0.950 . S
H298 C310 0.950 . S
H299 C311 0.950 . S
C300 H292 0.950 . S
C300 C301 1.386 . S
C300 C302 1.391 . S
C301 C300 1.386 . S
C301 C305 1.393 . S
C302 H294 0.950 . S
C302 C300 1.391 . S
C302 C303 1.400 . S
C303 C302 1.400 . S
C303 C304 1.398 . S
C303 C309 1.491 . S
C304 H295 0.950 . S
C304 C303 1.398 . S
C304 C305 1.391 . S
C305 H293 0.950 . S
C305 C301 1.393 . S
C305 C304 1.391 . S
C306 H296 0.950 . S
C306 C307 1.386 . S
C306 C308 1.391 . S
C307 C306 1.386 . S
C307 C311 1.393 . S
C308 H297 0.950 . S
C308 C306 1.391 . S
C308 C309 1.400 . S
C309 C303 1.491 . S
C309 C308 1.400 . S
C309 C310 1.398 . S
C310 H298 0.950 . S
C310 C309 1.398 . S
C310 C311 1.391 . S
C311 H299 0.950 . S
C311 C307 1.393 . S
C311 C310 1.391 . S
H312 C320 0.950 . S
H313 C325 0.950 . S
H314 C322 0.950 . S
H315 C324 0.950 . S
H316 C326 0.950 . S
H317 C328 0.950 . S
H318 C330 0.950 . S
H319 C331 0.950 . S
C320 H312 0.950 . S
C320 C321 1.386 . S
C320 C322 1.391 . S
C321 C320 1.386 . S
C321 C325 1.393 . S
C322 H314 0.950 . S
C322 C320 1.391 . S
C322 C323 1.400 . S
C323 C322 1.400 . S
C323 C324 1.398 . S
C323 C329 1.491 . S
C324 H315 0.950 . S
C324 C323 1.398 . S
C324 C325 1.391 . S
C325 H313 0.950 . S
C325 C321 1.393 . S
C325 C324 1.391 . S
C326 H316 0.950 . S
C326 C327 1.386 . S
C326 C328 1.391 . S
C327 C326 1.386 . S
C327 C331 1.393 . S
C328 H317 0.950 . S
C328 C326 1.391 . S
C328 C329 1.400 . S
C329 C323 1.491 . S
C329 C328 1.400 . S
C329 C330 1.398 . S
C330 H318 0.950 . S
C330 C329 1.398 . S
C330 C331 1.391 . S
C331 H319 0.950 . S
C331 C327 1.393 . S
C331 C330 1.391 . S
H332 C340 0.950 . S
H333 C345 0.950 . S
H334 C342 0.950 . S
H335 C344 0.950 . S
H336 C346 0.950 . S
H337 C348 0.950 . S
H338 C350 0.950 . S
H339 C351 0.950 . S
C340 H332 0.950 . S
C340 C341 1.386 . S
C340 C342 1.391 . S
C341 C340 1.386 . S
C341 C345 1.393 . S
C342 H334 0.950 . S
C342 C340 1.391 . S
C342 C343 1.400 . S
C343 C342 1.400 . S
C343 C344 1.398 . S
C343 C349 1.491 . S
C344 H335 0.950 . S
C344 C343 1.398 . S
C344 C345 1.391 . S
C345 H333 0.950 . S
C345 C341 1.393 . S
C345 C344 1.391 . S
C346 H336 0.950 . S
C346 C347 1.386 . S
C346 C348 1.391 . S
C347 C346 1.386 . S
C347 C351 1.393 . S
C348 H337 0.950 . S
C348 C346 1.391 . S
C348 C349 1.400 . S
C349 C343 1.491 . S
C349 C348 1.400 . S
C349 C350 1.398 . S
C350 H338 0.950 . S
C350 C349 1.398 . S
C350 C351 1.391 . S
C351 H339 0.950 . S
C351 C347 1.393 . S
C351 C350 1.391 . S
H352 C360 0.950 . S
H353 C365 0.950 . S
H354 C362 0.950 . S
H355 C364 0.950 . S
H356 C366 0.950 . S
H357 C368 0.950 . S
H358 C370 0.950 . S
H359 C371 0.950 . S
C360 H352 0.950 . S
C360 C361 1.386 . S
C360 C362 1.391 . S
C361 C360 1.386 . S
C361 C365 1.393 . S
C362 H354 0.950 . S
C362 C360 1.391 . S
C362 C363 1.400 . S
C363 C362 1.400 . S
C363 C364 1.398 . S
C363 C369 1.491 . S
C364 H355 0.950 . S
C364 C363 1.398 . S
C364 C365 1.391 . S
C365 H353 0.950 . S
C365 C361 1.393 . S
C365 C364 1.391 . S
C366 H356 0.950 . S
C366 C367 1.386 . S
C366 C368 1.391 . S
C367 C366 1.386 . S
C367 C371 1.393 . S
C368 H357 0.950 . S
C368 C366 1.391 . S
C368 C369 1.400 . S
C369 C363 1.491 . S
C369 C368 1.400 . S
C369 C370 1.398 . S
C370 H358 0.950 . S
C370 C369 1.398 . S
C370 C371 1.391 . S
C371 H359 0.950 . S
C371 C367 1.393 . S
C371 C370 1.391 . S
H372 C380 0.950 . S
H373 C385 0.950 1_455 S
H374 C382 0.950 . S
H375 C384 0.950 . S
H376 C386 0.950 . S
H377 C388 0.950 . S
H378 C390 0.950 . S
H379 C391 0.952 . S
C380 H372 0.950 . S
C380 C381 1.386 . S
C380 C382 1.391 . S
C381 C380 1.386 . S
C381 C385 1.393 . S
C382 H374 0.950 . S
C382 C380 1.391 . S
C382 C383 1.400 . S
C383 C382 1.400 . S
C383 C384 1.398 1_655 S
C383 C389 1.491 1_654 S
C384 H375 0.950 . S
C384 C383 1.398 1_455 S
C384 C385 1.391 1_455 S
C385 H373 0.950 1_655 S
C385 C381 1.393 . S
C385 C384 1.391 1_655 S
C386 H376 0.950 . S
C386 C387 1.386 . S
C386 C388 1.391 . S
C387 C386 1.386 . S
C387 C391 1.393 . S
C388 H377 0.950 . S
C388 C386 1.391 . S
C388 C389 1.400 . S
C389 C383 1.491 1_456 S
C389 C388 1.400 . S
C389 C390 1.398 1_455 S
C390 H378 0.950 . S
C390 C389 1.398 1_655 S
C390 C391 1.391 1_655 S
C391 H379 0.952 . S
C391 C387 1.393 . S
C391 C390 1.391 1_455 S
H392 C400 0.950 . S
H393 C405 0.950 . S
H394 C402 0.950 . S
H395 C404 0.950 . S
H396 C406 0.950 . S
H397 C408 0.950 . S
H398 C410 0.950 . S
H399 C411 0.950 . S
C400 H392 0.950 . S
C400 C401 1.386 . S
C400 C402 1.391 . S
C401 C400 1.386 . S
C401 C405 1.393 . S
C402 H394 0.950 . S
C402 C400 1.391 . S
C402 C403 1.400 . S
C403 C402 1.400 . S
C403 C404 1.398 . S
C403 C409 1.491 1_554 S
C404 H395 0.950 . S
C404 C403 1.398 . S
C404 C405 1.391 . S
C405 H393 0.950 . S
C405 C401 1.393 . S
C405 C404 1.391 . S
C406 H396 0.950 . S
C406 C407 1.386 . S
C406 C408 1.391 . S
C407 C406 1.386 . S
C407 C411 1.393 . S
C408 H397 0.950 . S
C408 C406 1.391 . S
C408 C409 1.400 . S
C409 C403 1.491 1_556 S
C409 C408 1.400 . S
C409 C410 1.398 . S
C410 H398 0.950 . S
C410 C409 1.398 . S
C410 C411 1.391 . S
C411 H399 0.950 . S
C411 C407 1.393 . S
C411 C410 1.391 . S
H412 C420 0.950 1_565 S
H413 C425 0.950 . S
H414 C422 0.950 . S
H415 C424 0.950 . S
H416 C426 0.941 1_545 S
H417 C428 0.950 . S
H418 C430 0.950 . S
H419 C431 0.950 . S
C420 H412 0.950 1_545 S
C420 C421 1.386 . S
C420 C422 1.391 1_545 S
C421 C420 1.386 . S
C421 C425 1.393 . S
C422 H414 0.950 . S
C422 C420 1.391 1_565 S
C422 C423 1.400 1_565 S
C423 C422 1.400 1_545 S
C423 C424 1.398 . S
C423 C429 1.491 1_544 S
C424 H415 0.950 . S
C424 C423 1.398 . S
C424 C425 1.391 . S
C425 H413 0.950 . S
C425 C421 1.393 . S
C425 C424 1.391 . S
C426 H416 0.941 1_565 S
C426 C427 1.399 . S
C426 C428 1.386 1_565 S
C427 C426 1.399 . S
C427 C431 1.393 . S
C428 H417 0.950 . S
C428 C426 1.386 1_545 S
C428 C429 1.400 1_545 S
C429 C423 1.491 1_566 S
C429 C428 1.400 1_565 S
C429 C430 1.398 . S
C430 H418 0.950 . S
C430 C429 1.398 . S
C430 C431 1.391 . S
C431 H419 0.950 . S
C431 C427 1.393 . S
C431 C430 1.391 . S
H432 C440 0.950 . S
H433 C445 0.950 . S
H434 C442 0.950 . S
H435 C444 0.950 . S
H436 C446 0.950 . S
H437 C448 0.950 . S
H438 C450 0.950 . S
H439 C451 0.950 . S
C440 H432 0.950 . S
C440 C441 1.386 . S
C440 C442 1.391 . S
C441 C440 1.386 . S
C441 C445 1.393 . S
C442 H434 0.950 . S
C442 C440 1.391 . S
C442 C443 1.400 . S
C443 C442 1.400 . S
C443 C444 1.398 . S
C443 C449 1.491 . S
C444 H435 0.950 . S
C444 C443 1.398 . S
C444 C445 1.391 . S
C445 H433 0.950 . S
C445 C441 1.393 . S
C445 C444 1.391 . S
C446 H436 0.950 . S
C446 C447 1.386 . S
C446 C448 1.391 . S
C447 C446 1.386 . S
C447 C451 1.393 . S
C448 H437 0.950 . S
C448 C446 1.391 . S
C448 C449 1.400 . S
C449 C443 1.491 . S
C449 C448 1.400 . S
C449 C450 1.398 . S
C450 H438 0.950 . S
C450 C449 1.398 . S
C450 C451 1.391 . S
C451 H439 0.950 . S
C451 C447 1.393 . S
C451 C450 1.391 . S
H452 C460 0.950 . S
H453 C465 0.950 . S
H454 C462 0.950 . S
H455 C464 0.950 . S
H456 C466 0.950 . S
H457 C468 0.950 . S
H458 C470 0.950 . S
H459 C471 0.950 . S
C460 H452 0.950 . S
C460 C461 1.386 . S
C460 C462 1.391 . S
C461 C460 1.386 . S
C461 C465 1.393 . S
C462 H454 0.950 . S
C462 C460 1.391 . S
C462 C463 1.400 . S
C463 C462 1.400 . S
C463 C464 1.398 . S
C463 C469 1.491 . S
C464 H455 0.950 . S
C464 C463 1.398 . S
C464 C465 1.391 . S
C465 H453 0.950 . S
C465 C461 1.393 . S
C465 C464 1.391 . S
C466 H456 0.950 . S
C466 C467 1.386 . S
C466 C468 1.391 . S
C467 C466 1.386 . S
C467 C471 1.393 . S
C468 H457 0.950 . S
C468 C466 1.391 . S
C468 C469 1.400 . S
C469 C463 1.491 . S
C469 C468 1.400 . S
C469 C470 1.398 . S
C470 H458 0.950 . S
C470 C469 1.398 . S
C470 C471 1.391 . S
C471 H459 0.950 . S
C471 C467 1.393 . S
C471 C470 1.391 . S
H472 C480 0.950 . S
H473 C485 0.950 . S
H474 C482 0.950 . S
H475 C484 0.950 . S
H476 C486 0.950 . S
H477 C488 0.950 . S
H478 C490 0.950 . S
H479 C491 0.950 . S
C480 H472 0.950 . S
C480 C481 1.386 . S
C480 C482 1.391 . S
C481 C480 1.386 . S
C481 C485 1.393 . S
C482 H474 0.950 . S
C482 C480 1.391 . S
C482 C483 1.400 . S
C483 C482 1.400 . S
C483 C484 1.398 . S
C483 C489 1.491 . S
C484 H475 0.950 . S
C484 C483 1.398 . S
C484 C485 1.391 . S
C485 H473 0.950 . S
C485 C481 1.393 . S
C485 C484 1.391 . S
C486 H476 0.950 . S
C486 C487 1.386 . S
C486 C488 1.391 . S
C487 C486 1.386 . S
C487 C491 1.393 . S
C488 H477 0.950 . S
C488 C486 1.391 . S
C488 C489 1.400 . S
C489 C483 1.491 . S
C489 C488 1.400 . S
C489 C490 1.398 . S
C490 H478 0.950 . S
C490 C489 1.398 . S
C490 C491 1.391 . S
C491 H479 0.950 . S
C491 C487 1.393 . S
C491 C490 1.391 . S
H492 C500 0.950 . S
H493 C505 0.950 . S
H494 C502 0.950 . S
H495 C504 0.950 . S
H496 C506 0.950 . S
H497 C508 0.950 . S
H498 C510 0.950 . S
H499 C511 0.950 . S
C500 H492 0.950 . S
C500 C501 1.386 . S
C500 C502 1.391 . S
C501 C500 1.386 . S
C501 C505 1.393 . S
C502 H494 0.950 . S
C502 C500 1.391 . S
C502 C503 1.400 . S
C503 C502 1.400 . S
C503 C504 1.398 . S
C503 C509 1.491 . S
C504 H495 0.950 . S
C504 C503 1.398 . S
C504 C505 1.391 . S
C505 H493 0.950 . S
C505 C501 1.393 . S
C505 C504 1.391 . S
C506 H496 0.950 . S
C506 C507 1.386 . S
C506 C508 1.391 . S
C507 C506 1.386 . S
C507 C511 1.393 . S
C508 H497 0.950 . S
C508 C506 1.391 . S
C508 C509 1.400 . S
C509 C503 1.491 . S
C509 C508 1.400 . S
C509 C510 1.398 . S
C510 H498 0.950 . S
C510 C509 1.398 . S
C510 C511 1.391 . S
C511 H499 0.950 . S
C511 C507 1.393 . S
C511 C510 1.391 . S
H512 C520 0.950 . S
H513 C525 0.950 . S
H514 C522 0.950 . S
H515 C524 0.950 . S
H516 C526 0.950 . S
H517 C528 0.950 . S
H518 C530 0.950 . S
H519 C531 0.950 . S
C520 H512 0.950 . S
C520 C521 1.386 . S
C520 C522 1.391 . S
C521 C520 1.386 . S
C521 C525 1.393 . S
C522 H514 0.950 . S
C522 C520 1.391 . S
C522 C523 1.400 . S
C523 C522 1.400 . S
C523 C524 1.398 . S
C523 C529 1.491 . S
C524 H515 0.950 . S
C524 C523 1.398 . S
C524 C525 1.391 . S
C525 H513 0.950 . S
C525 C521 1.393 . S
C525 C524 1.391 . S
C526 H516 0.950 . S
C526 C527 1.386 . S
C526 C528 1.391 . S
C527 C526 1.386 . S
C527 C531 1.393 . S
C528 H517 0.950 . S
C528 C526 1.391 . S
C528 C529 1.400 . S
C529 C523 1.491 . S
C529 C528 1.400 . S
C529 C530 1.398 . S
C530 H518 0.950 . S
C530 C529 1.398 . S
C530 C531 1.391 . S
C531 H519 0.950 . S
C531 C527 1.393 . S
C531 C530 1.391 . S
H532 C540 0.950 . S
H533 C545 0.950 . S
H534 C542 0.950 . S
H535 C544 0.950 . S
H536 C546 0.950 . S
H537 C548 0.950 . S
H538 C550 0.950 . S
H539 C551 0.950 . S
C540 H532 0.950 . S
C540 C541 1.386 . S
C540 C542 1.391 . S
C541 C540 1.386 . S
C541 C545 1.393 . S
C542 H534 0.950 . S
C542 C540 1.391 . S
C542 C543 1.400 . S
C543 C542 1.400 . S
C543 C544 1.398 . S
C543 C549 1.491 . S
C544 H535 0.950 . S
C544 C543 1.398 . S
C544 C545 1.391 . S
C545 H533 0.950 . S
C545 C541 1.393 . S
C545 C544 1.391 . S
C546 H536 0.950 . S
C546 C547 1.386 . S
C546 C548 1.391 . S
C547 C546 1.386 . S
C547 C551 1.393 . S
C548 H537 0.950 . S
C548 C546 1.391 . S
C548 C549 1.400 . S
C549 C543 1.491 . S
C549 C548 1.400 . S
C549 C550 1.398 . S
C550 H538 0.950 . S
C550 C549 1.398 . S
C550 C551 1.391 . S
C551 H539 0.950 . S
C551 C547 1.393 . S
C551 C550 1.391 . S
H552 C560 0.950 . S
H553 C565 0.950 . S
H554 C562 0.950 . S
H555 C564 0.950 . S
H556 C566 0.950 . S
H557 C568 0.950 . S
H558 C570 0.950 . S
H559 C571 0.950 1_655 S
C560 H552 0.950 . S
C560 C561 1.386 . S
C560 C562 1.391 . S
C561 C560 1.386 . S
C561 C565 1.392 1_655 S
C562 H554 0.950 . S
C562 C560 1.391 . S
C562 C563 1.400 . S
C563 C562 1.400 . S
C563 C564 1.398 1_655 S
C563 C569 1.491 1_655 S
C564 H555 0.950 . S
C564 C563 1.398 1_455 S
C564 C565 1.391 . S
C565 H553 0.950 . S
C565 C561 1.392 1_455 S
C565 C564 1.391 . S
C566 H556 0.950 . S
C566 C567 1.386 . S
C566 C568 1.391 . S
C567 C566 1.386 . S
C567 C571 1.393 . S
C568 H557 0.950 . S
C568 C566 1.391 . S
C568 C569 1.400 . S
C569 C563 1.491 1_455 S
C569 C568 1.400 . S
C569 C570 1.398 1_455 S
C570 H558 0.950 . S
C570 C569 1.398 1_655 S
C570 C571 1.391 1_655 S
C571 H559 0.950 1_455 S
C571 C567 1.393 . S
C571 C570 1.391 1_455 S
H572 C580 0.950 . S
H573 C585 0.950 . S
H574 C582 0.950 . S
H575 C584 0.950 . S
H576 C586 0.950 . S
H577 C588 0.950 . S
H578 C590 0.950 . S
H579 C591 0.950 . S
C580 H572 0.950 . S
C580 C581 1.386 . S
C580 C582 1.391 . S
C581 C580 1.386 . S
C581 C585 1.393 . S
C582 H574 0.950 . S
C582 C580 1.391 . S
C582 C583 1.400 . S
C583 C582 1.400 . S
C583 C584 1.398 . S
C583 C589 1.491 . S
C584 H575 0.950 . S
C584 C583 1.398 . S
C584 C585 1.391 . S
C585 H573 0.950 . S
C585 C581 1.393 . S
C585 C584 1.391 . S
C586 H576 0.950 . S
C586 C587 1.386 . S
C586 C588 1.391 . S
C587 C586 1.386 . S
C587 C591 1.393 . S
C588 H577 0.950 . S
C588 C586 1.391 . S
C588 C589 1.400 . S
C589 C583 1.491 . S
C589 C588 1.400 . S
C589 C590 1.398 . S
C590 H578 0.950 . S
C590 C589 1.398 . S
C590 C591 1.391 . S
C591 H579 0.950 . S
C591 C587 1.393 . S
C591 C590 1.391 . S
H592 C600 0.950 . S
H593 C605 0.950 . S
H594 C602 0.950 . S
H595 C604 0.950 . S
H596 C606 0.950 . S
H597 C608 0.950 . S
H598 C610 0.950 . S
H599 C611 0.950 . S
C600 H592 0.950 . S
C600 C601 1.386 . S
C600 C602 1.391 . S
C601 C600 1.386 . S
C601 C605 1.393 . S
C602 H594 0.950 . S
C602 C600 1.391 . S
C602 C603 1.400 . S
C603 C602 1.400 . S
C603 C604 1.398 . S
C603 C609 1.491 1_565 S
C604 H595 0.950 . S
C604 C603 1.398 . S
C604 C605 1.391 . S
C605 H593 0.950 . S
C605 C601 1.393 . S
C605 C604 1.391 . S
C606 H596 0.950 . S
C606 C607 1.386 . S
C606 C608 1.391 . S
C607 C606 1.386 . S
C607 C611 1.393 . S
C608 H597 0.950 . S
C608 C606 1.391 . S
C608 C609 1.400 . S
C609 C603 1.491 1_545 S
C609 C608 1.400 . S
C609 C610 1.398 . S
C610 H598 0.950 . S
C610 C609 1.398 . S
C610 C611 1.391 . S
C611 H599 0.950 . S
C611 C607 1.393 . S
C611 C610 1.391 . S
H612 C620 0.950 . S
H613 C625 0.950 . S
H614 C622 0.950 . S
H615 C624 0.950 . S
H616 C626 0.950 . S
H617 C628 0.950 . S
H618 C630 0.950 . S
H619 C631 0.950 . S
C620 H612 0.950 . S
C620 C621 1.386 1_556 S
C620 C622 1.391 . S
C621 C620 1.386 1_554 S
C621 C625 1.393 . S
C622 H614 0.950 . S
C622 C620 1.391 . S
C622 C623 1.400 1_556 S
C623 C622 1.400 1_554 S
C623 C624 1.398 . S
C623 C629 1.491 1_554 S
C624 H615 0.950 . S
C624 C623 1.398 . S
C624 C625 1.391 . S
C625 H613 0.950 . S
C625 C621 1.393 . S
C625 C624 1.391 . S
C626 H616 0.950 . S
C626 C627 1.386 1_554 S
C626 C628 1.391 . S
C627 C626 1.386 1_556 S
C627 C631 1.393 . S
C628 H617 0.950 . S
C628 C626 1.391 . S
C628 C629 1.400 1_554 S
C629 C623 1.491 1_556 S
C629 C628 1.400 1_556 S
C629 C630 1.398 . S
C630 H618 0.950 . S
C630 C629 1.398 . S
C630 C631 1.391 . S
C631 H619 0.950 . S
C631 C627 1.393 . S
C631 C630 1.391 . S
H632 C640 0.950 . S
H633 C645 0.950 . S
H634 C642 0.950 . S
H635 C644 0.950 . S
H636 C646 0.950 . S
H637 C648 0.950 . S
H638 C650 0.950 . S
H639 C651 0.950 . S
C640 H632 0.950 . S
C640 C641 1.386 . S
C640 C642 1.391 . S
C641 C640 1.386 . S
C641 C645 1.393 1_556 S
C642 H634 0.950 . S
C642 C640 1.391 . S
C642 C643 1.400 . S
C643 C642 1.400 . S
C643 C644 1.398 1_556 S
C643 C649 1.491 1_546 S
C644 H635 0.950 . S
C644 C643 1.398 1_554 S
C644 C645 1.391 . S
C645 H633 0.950 . S
C645 C641 1.393 1_554 S
C645 C644 1.391 . S
C646 H636 0.950 . S
C646 C647 1.386 . S
C646 C648 1.391 . S
C647 C646 1.386 . S
C647 C651 1.393 1_554 S
C648 H637 0.950 . S
C648 C646 1.391 . S
C648 C649 1.400 . S
C649 C643 1.491 1_564 S
C649 C648 1.400 . S
C649 C650 1.398 1_554 S
C650 H638 0.950 . S
C650 C649 1.398 1_556 S
C650 C651 1.391 . S
C651 H639 0.950 . S
C651 C647 1.393 1_556 S
C651 C650 1.391 . S
H652 C660 0.950 . S
H653 C665 0.950 . S
H654 C662 0.950 1_554 S
H655 C664 0.950 . S
H656 C666 0.950 . S
H657 C668 0.950 1_556 S
H658 C670 0.950 . S
H659 C671 0.950 . S
C660 H652 0.950 . S
C660 C661 1.386 . S
C660 C662 1.391 . S
C661 C660 1.386 . S
C661 C665 1.393 . S
C662 H654 0.950 1_556 S
C662 C660 1.391 . S
C662 C663 1.400 . S
C663 C662 1.400 . S
C663 C664 1.398 . S
C663 C669 1.491 1_656 S
C664 H655 0.950 . S
C664 C663 1.398 . S
C664 C665 1.391 . S
C665 H653 0.950 . S
C665 C661 1.393 . S
C665 C664 1.391 . S
C666 H656 0.950 . S
C666 C667 1.386 . S
C666 C668 1.391 . S
C667 C666 1.386 . S
C667 C671 1.393 . S
C668 H657 0.950 1_554 S
C668 C666 1.391 . S
C668 C669 1.400 . S
C669 C663 1.491 1_454 S
C669 C668 1.400 . S
C669 C670 1.398 . S
C670 H658 0.950 . S
C670 C669 1.398 . S
C670 C671 1.391 . S
C671 H659 0.950 . S
C671 C667 1.393 . S
C671 C670 1.391 . S
H672 C680 0.950 . S
H673 C685 0.950 . S
H674 C682 0.950 . S
H675 C684 0.950 . S
H676 C686 0.950 . S
H677 C688 0.950 . S
H678 C690 0.950 . S
H679 C691 0.950 . S
C680 H672 0.950 . S
C680 C681 1.386 . S
C680 C682 1.391 . S
C681 C680 1.386 . S
C681 C685 1.393 1_556 S
C682 H674 0.950 . S
C682 C680 1.391 . S
C682 C683 1.400 . S
C683 C682 1.400 . S
C683 C684 1.398 1_556 S
C683 C689 1.491 1_556 S
C684 H675 0.950 . S
C684 C683 1.398 1_554 S
C684 C685 1.391 . S
C685 H673 0.950 . S
C685 C681 1.393 1_554 S
C685 C684 1.391 . S
C686 H676 0.950 . S
C686 C687 1.386 . S
C686 C688 1.391 . S
C687 C686 1.386 . S
C687 C691 1.393 1_554 S
C688 H677 0.950 . S
C688 C686 1.391 . S
C688 C689 1.400 . S
C689 C683 1.491 1_554 S
C689 C688 1.400 . S
C689 C690 1.398 1_554 S
C690 H678 0.950 . S
C690 C689 1.398 1_556 S
C690 C691 1.391 . S
C691 H679 0.950 . S
C691 C687 1.393 1_556 S
C691 C690 1.391 . S
H692 C700 0.950 . S
H693 C705 0.950 . S
H694 C702 0.950 . S
H695 C704 0.950 . S
H696 C706 0.950 . S
H697 C708 0.950 . S
H698 C710 0.950 . S
H699 C711 0.950 . S
C700 H692 0.950 . S
C700 C701 1.386 . S
C700 C702 1.391 1_554 S
C701 C700 1.386 . S
C701 C705 1.393 . S
C702 H694 0.950 . S
C702 C700 1.391 1_556 S
C702 C703 1.400 1_556 S
C703 C702 1.400 1_554 S
C703 C704 1.398 . S
C703 C709 1.491 1_564 S
C704 H695 0.950 . S
C704 C703 1.398 . S
C704 C705 1.391 . S
C705 H693 0.950 . S
C705 C701 1.393 . S
C705 C704 1.391 . S
C706 H696 0.950 . S
C706 C707 1.386 . S
C706 C708 1.391 1_556 S
C707 C706 1.386 . S
C707 C711 1.393 . S
C708 H697 0.950 . S
C708 C706 1.391 1_554 S
C708 C709 1.400 1_554 S
C709 C703 1.491 1_546 S
C709 C708 1.400 1_556 S
C709 C710 1.398 . S
C710 H698 0.950 . S
C710 C709 1.398 . S
C710 C711 1.391 . S
C711 H699 0.950 . S
C711 C707 1.393 . S
C711 C710 1.391 . S
H712 C720 0.950 . S
H713 C725 0.950 . S
H714 C722 0.950 1_554 S
H715 C724 0.950 . S
H716 C726 0.950 . S
H717 C728 0.950 1_556 S
H718 C730 0.950 . S
H719 C731 0.950 . S
C720 H712 0.950 . S
C720 C721 1.386 . S
C720 C722 1.391 . S
C721 C720 1.386 . S
C721 C725 1.393 . S
C722 H714 0.950 1_556 S
C722 C720 1.391 . S
C722 C723 1.400 . S
C723 C722 1.400 . S
C723 C724 1.398 . S
C723 C729 1.491 1_656 S
C724 H715 0.950 . S
C724 C723 1.398 . S
C724 C725 1.391 . S
C725 H713 0.950 . S
C725 C721 1.393 . S
C725 C724 1.391 . S
C726 H716 0.950 . S
C726 C727 1.386 . S
C726 C728 1.391 . S
C727 C726 1.386 . S
C727 C731 1.393 . S
C728 H717 0.950 1_554 S
C728 C726 1.391 . S
C728 C729 1.400 . S
C729 C723 1.491 1_454 S
C729 C728 1.400 . S
C729 C730 1.398 . S
C730 H718 0.950 . S
C730 C729 1.398 . S
C730 C731 1.391 . S
C731 H719 0.950 . S
C731 C727 1.393 . S
C731 C730 1.391 . S
H732 C740 0.950 . S
H733 C745 0.950 . S
H734 C742 0.950 . S
H735 C744 0.950 . S
H736 C746 0.950 . S
H737 C748 0.950 . S
H738 C750 0.950 . S
H739 C751 0.950 . S
C740 H732 0.950 . S
C740 C741 1.386 . S
C740 C742 1.391 . S
C741 C740 1.386 . S
C741 C745 1.393 . S
C742 H734 0.950 . S
C742 C740 1.391 . S
C742 C743 1.400 . S
C743 C742 1.400 . S
C743 C744 1.398 . S
C743 C749 1.491 . S
C744 H735 0.950 . S
C744 C743 1.398 . S
C744 C745 1.391 . S
C745 H733 0.950 . S
C745 C741 1.393 . S
C745 C744 1.391 . S
C746 H736 0.950 . S
C746 C747 1.386 . S
C746 C748 1.391 . S
C747 C746 1.386 . S
C747 C751 1.393 . S
C748 H737 0.950 . S
C748 C746 1.391 . S
C748 C749 1.400 . S
C749 C743 1.491 . S
C749 C748 1.400 . S
C749 C750 1.398 . S
C750 H738 0.950 . S
C750 C749 1.398 . S
C750 C751 1.391 . S
C751 H739 0.950 . S
C751 C747 1.393 . S
C751 C750 1.391 . S
H752 C760 0.950 . S
H753 C765 0.950 . S
H754 C762 0.950 . S
H755 C764 0.950 . S
H756 C766 0.950 . S
H757 C768 0.950 . S
H758 C770 0.950 . S
H759 C771 0.950 . S
C760 H752 0.950 . S
C760 C761 1.386 . S
C760 C762 1.391 . S
C761 C760 1.386 . S
C761 C765 1.393 . S
C762 H754 0.950 . S
C762 C760 1.391 . S
C762 C763 1.400 . S
C763 C762 1.400 . S
C763 C764 1.398 . S
C763 C769 1.491 . S
C764 H755 0.950 . S
C764 C763 1.398 . S
C764 C765 1.391 . S
C765 H753 0.950 . S
C765 C761 1.393 . S
C765 C764 1.391 . S
C766 H756 0.950 . S
C766 C767 1.386 . S
C766 C768 1.391 . S
C767 C766 1.386 . S
C767 C771 1.393 . S
C768 H757 0.950 . S
C768 C766 1.391 . S
C768 C769 1.400 . S
C769 C763 1.491 . S
C769 C768 1.400 . S
C769 C770 1.398 . S
C770 H758 0.950 . S
C770 C769 1.398 . S
C770 C771 1.391 . S
C771 H759 0.950 . S
C771 C767 1.393 . S
C771 C770 1.391 . S
H772 C780 0.950 . S
H773 C785 0.950 . S
H774 C782 0.950 . S
H775 C784 0.950 . S
H776 C786 0.950 . S
H777 C788 0.950 . S
H778 C790 0.950 . S
H779 C791 0.950 . S
C780 H772 0.950 . S
C780 C781 1.386 . S
C780 C782 1.391 . S
C781 C780 1.386 . S
C781 C785 1.393 . S
C782 H774 0.950 . S
C782 C780 1.391 . S
C782 C783 1.400 . S
C783 C782 1.400 . S
C783 C784 1.398 . S
C783 C789 1.491 . S
C784 H775 0.950 . S
C784 C783 1.398 . S
C784 C785 1.391 . S
C785 H773 0.950 . S
C785 C781 1.393 . S
C785 C784 1.391 . S
C786 H776 0.950 . S
C786 C787 1.386 . S
C786 C788 1.391 . S
C787 C786 1.386 . S
C787 C791 1.393 . S
C788 H777 0.950 . S
C788 C786 1.391 . S
C788 C789 1.400 . S
C789 C783 1.491 . S
C789 C788 1.400 . S
C789 C790 1.398 . S
C790 H778 0.950 . S
C790 C789 1.398 . S
C790 C791 1.391 . S
C791 H779 0.950 . S
C791 C787 1.393 . S
C791 C790 1.391 . S
H792 C800 0.950 . S
H793 C805 0.950 . S
H794 C802 0.950 . S
H795 C804 0.950 . S
H796 C806 0.950 . S
H797 C808 0.950 . S
H798 C810 0.950 . S
H799 C811 0.950 . S
C800 H792 0.950 . S
C800 C801 1.386 . S
C800 C802 1.391 . S
C801 C800 1.386 . S
C801 C805 1.393 . S
C802 H794 0.950 . S
C802 C800 1.391 . S
C802 C803 1.400 . S
C803 C802 1.400 . S
C803 C804 1.398 . S
C803 C809 1.491 . S
C804 H795 0.950 . S
C804 C803 1.398 . S
C804 C805 1.391 . S
C805 H793 0.950 . S
C805 C801 1.393 . S
C805 C804 1.391 . S
C806 H796 0.950 . S
C806 C807 1.386 . S
C806 C808 1.391 . S
C807 C806 1.386 . S
C807 C811 1.393 . S
C808 H797 0.950 . S
C808 C806 1.391 . S
C808 C809 1.400 . S
C809 C803 1.491 . S
C809 C808 1.400 . S
C809 C810 1.398 . S
C810 H798 0.950 . S
C810 C809 1.398 . S
C810 C811 1.391 . S
C811 H799 0.950 . S
C811 C807 1.393 . S
C811 C810 1.391 . S
H812 C820 0.950 . S
H813 C825 0.950 . S
H814 C822 0.950 . S
H815 C824 0.950 . S
H816 C826 0.950 . S
H817 C828 0.950 . S
H818 C830 0.950 . S
H819 C831 0.950 . S
C820 H812 0.950 . S
C820 C821 1.386 . S
C820 C822 1.391 . S
C821 C820 1.386 . S
C821 C825 1.393 . S
C822 H814 0.950 . S
C822 C820 1.391 . S
C822 C823 1.400 . S
C823 C822 1.400 . S
C823 C824 1.398 . S
C823 C829 1.491 . S
C824 H815 0.950 . S
C824 C823 1.398 . S
C824 C825 1.391 . S
C825 H813 0.950 . S
C825 C821 1.393 . S
C825 C824 1.391 . S
C826 H816 0.950 . S
C826 C827 1.386 . S
C826 C828 1.391 . S
C827 C826 1.386 . S
C827 C831 1.393 . S
C828 H817 0.950 . S
C828 C826 1.391 . S
C828 C829 1.400 . S
C829 C823 1.491 . S
C829 C828 1.400 . S
C829 C830 1.398 . S
C830 H818 0.950 . S
C830 C829 1.398 . S
C830 C831 1.391 . S
C831 H819 0.950 . S
C831 C827 1.393 . S
C831 C830 1.391 . S
H832 C840 0.950 . S
H833 C845 0.950 . S
H834 C842 0.950 . S
H835 C844 0.950 . S
H836 C846 0.950 . S
H837 C848 0.950 . S
H838 C850 0.950 . S
H839 C851 0.950 . S
C840 H832 0.950 . S
C840 C841 1.386 . S
C840 C842 1.391 . S
C841 C840 1.386 . S
C841 C845 1.393 . S
C842 H834 0.950 . S
C842 C840 1.391 . S
C842 C843 1.400 . S
C843 C842 1.400 . S
C843 C844 1.398 . S
C843 C849 1.491 . S
C844 H835 0.950 . S
C844 C843 1.398 . S
C844 C845 1.391 . S
C845 H833 0.950 . S
C845 C841 1.393 . S
C845 C844 1.391 . S
C846 H836 0.950 . S
C846 C847 1.386 . S
C846 C848 1.391 . S
C847 C846 1.386 . S
C847 C851 1.393 . S
C848 H837 0.950 . S
C848 C846 1.391 . S
C848 C849 1.400 . S
C849 C843 1.491 . S
C849 C848 1.400 . S
C849 C850 1.398 . S
C850 H838 0.950 . S
C850 C849 1.398 . S
C850 C851 1.391 . S
C851 H839 0.950 . S
C851 C847 1.393 . S
C851 C850 1.391 . S
H852 C860 0.950 . S
H853 C865 0.950 . S
H854 C862 0.950 . S
H855 C864 0.950 . S
H856 C866 0.950 . S
H857 C868 0.950 . S
H858 C870 0.950 . S
H859 C871 0.950 . S
C860 H852 0.950 . S
C860 C861 1.386 . S
C860 C862 1.391 . S
C861 C860 1.386 . S
C861 C865 1.393 . S
C862 H854 0.950 . S
C862 C860 1.391 . S
C862 C863 1.400 . S
C863 C862 1.400 . S
C863 C864 1.398 . S
C863 C869 1.491 . S
C864 H855 0.950 . S
C864 C863 1.398 . S
C864 C865 1.391 . S
C865 H853 0.950 . S
C865 C861 1.393 . S
C865 C864 1.391 . S
C866 H856 0.950 . S
C866 C867 1.386 . S
C866 C868 1.391 . S
C867 C866 1.386 . S
C867 C871 1.393 . S
C868 H857 0.950 . S
C868 C866 1.391 . S
C868 C869 1.400 . S
C869 C863 1.491 . S
C869 C868 1.400 . S
C869 C870 1.398 . S
C870 H858 0.950 . S
C870 C869 1.398 . S
C870 C871 1.391 . S
C871 H859 0.950 . S
C871 C867 1.393 . S
C871 C870 1.391 . S
H872 C880 0.950 . S
H873 C885 0.950 . S
H874 C882 0.950 . S
H875 C884 0.950 . S
H876 C886 0.950 . S
H877 C888 0.950 . S
H878 C890 0.950 . S
H879 C891 0.950 . S
C880 H872 0.950 . S
C880 C881 1.386 . S
C880 C882 1.391 . S
C881 C880 1.386 . S
C881 C885 1.393 . S
C882 H874 0.950 . S
C882 C880 1.391 . S
C882 C883 1.400 . S
C883 C882 1.400 . S
C883 C884 1.398 . S
C883 C889 1.491 . S
C884 H875 0.950 . S
C884 C883 1.398 . S
C884 C885 1.391 . S
C885 H873 0.950 . S
C885 C881 1.393 . S
C885 C884 1.391 . S
C886 H876 0.950 . S
C886 C887 1.386 . S
C886 C888 1.391 . S
C887 C886 1.386 . S
C887 C891 1.393 . S
C888 H877 0.950 . S
C888 C886 1.391 . S
C888 C889 1.400 . S
C889 C883 1.491 . S
C889 C888 1.400 . S
C889 C890 1.398 . S
C890 H878 0.950 . S
C890 C889 1.398 . S
C890 C891 1.391 . S
C891 H879 0.950 . S
C891 C887 1.393 . S
C891 C890 1.391 . S
H892 C900 0.950 . S
H893 C905 0.950 . S
H894 C902 0.950 . S
H895 C904 0.950 . S
H896 C906 0.950 . S
H897 C908 0.950 . S
H898 C910 0.950 . S
H899 C911 0.950 . S
C900 H892 0.950 . S
C900 C901 1.386 . S
C900 C902 1.391 . S
C901 C900 1.386 . S
C901 C905 1.393 . S
C902 H894 0.950 . S
C902 C900 1.391 . S
C902 C903 1.400 . S
C903 C902 1.400 . S
C903 C904 1.398 . S
C903 C909 1.491 . S
C904 H895 0.950 . S
C904 C903 1.398 . S
C904 C905 1.391 . S
C905 H893 0.950 . S
C905 C901 1.393 . S
C905 C904 1.391 . S
C906 H896 0.950 . S
C906 C907 1.386 . S
C906 C908 1.391 . S
C907 C906 1.386 . S
C907 C911 1.393 . S
C908 H897 0.950 . S
C908 C906 1.391 . S
C908 C909 1.400 . S
C909 C903 1.491 . S
C909 C908 1.400 . S
C909 C910 1.398 . S
C910 H898 0.950 . S
C910 C909 1.398 . S
C910 C911 1.391 . S
C911 H899 0.950 . S
C911 C907 1.393 . S
C911 C910 1.391 . S
H912 C920 0.950 . S
H913 C925 0.950 . S
H914 C922 0.950 . S
H915 C924 0.950 . S
H916 C926 0.950 . S
H917 C928 0.950 . S
H918 C930 0.950 . S
H919 C931 0.950 . S
C920 H912 0.950 . S
C920 C921 1.386 . S
C920 C922 1.391 . S
C921 C920 1.386 . S
C921 C925 1.393 . S
C922 H914 0.950 . S
C922 C920 1.391 . S
C922 C923 1.400 . S
C923 C922 1.400 . S
C923 C924 1.398 . S
C923 C929 1.491 . S
C924 H915 0.950 . S
C924 C923 1.398 . S
C924 C925 1.391 . S
C925 H913 0.950 . S
C925 C921 1.393 . S
C925 C924 1.391 . S
C926 H916 0.950 . S
C926 C927 1.386 . S
C926 C928 1.391 . S
C927 C926 1.386 . S
C927 C931 1.393 . S
C928 H917 0.950 . S
C928 C926 1.391 . S
C928 C929 1.400 . S
C929 C923 1.491 . S
C929 C928 1.400 . S
C929 C930 1.398 . S
C930 H918 0.950 . S
C930 C929 1.398 . S
C930 C931 1.391 . S
C931 H919 0.950 . S
C931 C927 1.393 . S
C931 C930 1.391 . S
H932 C940 0.950 . S
H933 C945 0.950 . S
H934 C942 0.950 . S
H935 C944 0.950 . S
H936 C946 0.950 . S
H937 C948 0.950 . S
H938 C950 0.950 . S
H939 C951 0.950 . S
C940 H932 0.950 . S
C940 C941 1.386 . S
C940 C942 1.391 . S
C941 C940 1.386 . S
C941 C945 1.393 . S
C942 H934 0.950 . S
C942 C940 1.391 . S
C942 C943 1.400 . S
C943 C942 1.400 . S
C943 C944 1.398 . S
C943 C949 1.491 . S
C944 H935 0.950 . S
C944 C943 1.398 . S
C944 C945 1.391 . S
C945 H933 0.950 . S
C945 C941 1.393 . S
C945 C944 1.391 . S
C946 H936 0.950 . S
C946 C947 1.386 . S
C946 C948 1.391 . S
C947 C946 1.386 . S
C947 C951 1.393 . S
C948 H937 0.950 . S
C948 C946 1.391 . S
C948 C949 1.400 . S
C949 C943 1.491 . S
C949 C948 1.400 . S
C949 C950 1.398 . S
C950 H938 0.950 . S
C950 C949 1.398 . S
C950 C951 1.391 . S
C951 H939 0.950 . S
C951 C947 1.393 . S
C951 C950 1.391 . S
H952 C960 0.950 . S
H953 C965 0.950 . S
H954 C962 0.950 . S
H955 C964 0.950 . S
H956 C966 0.950 . S
H957 C968 0.950 . S
H958 C970 0.950 . S
H959 C971 0.950 . S
C960 H952 0.950 . S
C960 C961 1.386 . S
C960 C962 1.391 . S
C961 C960 1.386 . S
C961 C965 1.393 . S
C962 H954 0.950 . S
C962 C960 1.391 . S
C962 C963 1.400 . S
C963 C962 1.400 . S
C963 C964 1.398 . S
C963 C969 1.491 . S
C964 H955 0.950 . S
C964 C963 1.398 . S
C964 C965 1.391 . S
C965 H953 0.950 . S
C965 C961 1.393 . S
C965 C964 1.391 . S
C966 H956 0.950 . S
C966 C967 1.386 . S
C966 C968 1.391 . S
C967 C966 1.386 . S
C967 C971 1.393 . S
C968 H957 0.950 . S
C968 C966 1.391 . S
C968 C969 1.400 . S
C969 C963 1.491 . S
C969 C968 1.400 . S
C969 C970 1.398 . S
C970 H958 0.950 . S
C970 C969 1.398 . S
C970 C971 1.391 . S
C971 H959 0.950 . S
C971 C967 1.393 . S
C971 C970 1.391 . S
C261 C241 1.860 . S
C267 C3 1.858 . S
C281 C213 1.858 . S
C287 C17 1.860 . S
C301 C227 1.860 . S
C307 C31 1.858 . S
C321 C101 1.860 . S
C327 C45 1.859 . S
C341 C115 1.859 . S
C347 C59 1.858 . S
C361 C73 1.860 . S
C367 C87 1.859 . S
C381 C129 1.860 . S
C387 C185 1.858 . S
C401 C143 1.860 . S
C407 C199 1.859 . S
C421 C157 1.858 . S
C427 C171 1.860 . S
C441 C7 0.408 . S
C447 C245 0.441 . S
C461 C217 0.393 . S
C467 C21 0.444 . S
C481 C35 0.425 . S
C487 C231 0.396 . S
C501 C105 0.414 . S
C507 C49 0.437 . S
C521 C63 0.395 . S
C527 C119 0.427 . S
C541 C77 0.420 . S
C547 C91 0.400 . S
C561 C133 0.442 . S
C567 C189 0.390 . S
C581 C203 0.391 . S
C587 C147 0.434 . S
C601 C175 0.431 . S
C607 C161 0.422 . S
C621 C9 1.734 . S
C627 C51 1.738 . S
C641 C65 1.736 . S
C647 C23 1.730 . S
C661 C79 1.729 . S
C667 C37 1.732 . S
C681 C78 1.726 . S
C687 C22 1.719 . S
C701 C36 1.724 . S
C707 C50 1.726 . S
C721 C64 1.725 . S
C727 C8 1.726 . S
C741 C93 1.732 . S
C747 C135 1.738 . S
C761 C149 1.733 . S
C767 C107 1.738 . S
C781 C163 1.738 . S
C787 C121 1.732 . S
C801 C162 1.726 . S
C807 C106 1.724 . S
C821 C120 1.727 . S
C827 C134 1.723 . S
C841 C148 1.724 . S
C847 C92 1.727 . S
C861 C219 1.733 . S
C867 C177 1.729 . S
C881 C233 1.738 . S
C887 C191 1.732 . S
C901 C205 1.736 . S
C907 C247 1.730 . S
C921 C246 1.727 . S
C927 C190 1.723 . S
C941 C204 1.722 . S
C947 C218 1.727 . S
C961 C232 1.719 . S
C967 C176 1.720 . S
