# Generated by pormake.
# Topology unr, (4)-cn, num edge types: 1
# Building blocks:
#     Node 0, Type 0, BuildingBlock: KUFVIS_clean_sbu_0, # of connection points: 4
#     Node 1, Type 0, BuildingBlock: KUFVIS_clean_sbu_0, # of connection points: 4
#     Node 2, Type 0, BuildingBlock: KUFVIS_clean_sbu_0, # of connection points: 4
#     Node 3, Type 0, BuildingBlock: KUFVIS_clean_sbu_0, # of connection points: 4
#     Node 4, Type 0, BuildingBlock: KUFVIS_clean_sbu_0, # of connection points: 4
#     Node 5, Type 0, BuildingBlock: KUFVIS_clean_sbu_0, # of connection points: 4
#     Node 6, Type 0, BuildingBlock: KUFVIS_clean_sbu_0, # of connection points: 4
#     Node 7, Type 0, BuildingBlock: KUFVIS_clean_sbu_0, # of connection points: 4
#     Node 8, Type 0, BuildingBlock: KUFVIS_clean_sbu_0, # of connection points: 4
#     Node 9, Type 0, BuildingBlock: KUFVIS_clean_sbu_0, # of connection points: 4
#     Node 10, Type 0, BuildingBlock: KUFVIS_clean_sbu_0, # of connection points: 4
#     Node 11, Type 0, BuildingBlock: KUFVIS_clean_sbu_0, # of connection points: 4
#     Node 12, Type 0, BuildingBlock: KUFVIS_clean_sbu_0, # of connection points: 4
#     Node 13, Type 0, BuildingBlock: KUFVIS_clean_sbu_0, # of connection points: 4
#     Node 14, Type 0, BuildingBlock: KUFVIS_clean_sbu_0, # of connection points: 4
#     Node 15, Type 0, BuildingBlock: KUFVIS_clean_sbu_0, # of connection points: 4
#     Node 16, Type 0, BuildingBlock: KUFVIS_clean_sbu_0, # of connection points: 4
#     Node 17, Type 0, BuildingBlock: KUFVIS_clean_sbu_0, # of connection points: 4
#     Node 18, Type 0, BuildingBlock: KUFVIS_clean_sbu_0, # of connection points: 4
#     Node 19, Type 0, BuildingBlock: KUFVIS_clean_sbu_0, # of connection points: 4
#     Node 20, Type 0, BuildingBlock: KUFVIS_clean_sbu_0, # of connection points: 4
#     Node 21, Type 0, BuildingBlock: KUFVIS_clean_sbu_0, # of connection points: 4
#     Node 22, Type 0, BuildingBlock: KUFVIS_clean_sbu_0, # of connection points: 4
#     Node 23, Type 0, BuildingBlock: KUFVIS_clean_sbu_0, # of connection points: 4
#     Node 24, Type 0, BuildingBlock: KUFVIS_clean_sbu_0, # of connection points: 4
#     Node 25, Type 0, BuildingBlock: KUFVIS_clean_sbu_0, # of connection points: 4
#     Node 26, Type 0, BuildingBlock: KUFVIS_clean_sbu_0, # of connection points: 4
#     Node 27, Type 0, BuildingBlock: KUFVIS_clean_sbu_0, # of connection points: 4
#     Node 28, Type 0, BuildingBlock: KUFVIS_clean_sbu_0, # of connection points: 4
#     Node 29, Type 0, BuildingBlock: KUFVIS_clean_sbu_0, # of connection points: 4
#     Node 30, Type 0, BuildingBlock: KUFVIS_clean_sbu_0, # of connection points: 4
#     Node 31, Type 0, BuildingBlock: KUFVIS_clean_sbu_0, # of connection points: 4
#     Node 32, Type 0, BuildingBlock: KUFVIS_clean_sbu_0, # of connection points: 4
#     Node 33, Type 0, BuildingBlock: KUFVIS_clean_sbu_0, # of connection points: 4
#     Node 34, Type 0, BuildingBlock: KUFVIS_clean_sbu_0, # of connection points: 4
#     Node 35, Type 0, BuildingBlock: KUFVIS_clean_sbu_0, # of connection points: 4
#     Edge 36, Type (0, 0), BuildingBlock: AJUNOK_clean_linker_0, # of connection points: 2
#     Edge 37, Type (0, 0), BuildingBlock: AJUNOK_clean_linker_0, # of connection points: 2
#     Edge 38, Type (0, 0), BuildingBlock: AJUNOK_clean_linker_0, # of connection points: 2
#     Edge 39, Type (0, 0), BuildingBlock: AJUNOK_clean_linker_0, # of connection points: 2
#     Edge 40, Type (0, 0), BuildingBlock: AJUNOK_clean_linker_0, # of connection points: 2
#     Edge 41, Type (0, 0), BuildingBlock: AJUNOK_clean_linker_0, # of connection points: 2
#     Edge 42, Type (0, 0), BuildingBlock: AJUNOK_clean_linker_0, # of connection points: 2
#     Edge 43, Type (0, 0), BuildingBlock: AJUNOK_clean_linker_0, # of connection points: 2
#     Edge 44, Type (0, 0), BuildingBlock: AJUNOK_clean_linker_0, # of connection points: 2
#     Edge 45, Type (0, 0), BuildingBlock: AJUNOK_clean_linker_0, # of connection points: 2
#     Edge 46, Type (0, 0), BuildingBlock: AJUNOK_clean_linker_0, # of connection points: 2
#     Edge 47, Type (0, 0), BuildingBlock: AJUNOK_clean_linker_0, # of connection points: 2
#     Edge 48, Type (0, 0), BuildingBlock: AJUNOK_clean_linker_0, # of connection points: 2
#     Edge 49, Type (0, 0), BuildingBlock: AJUNOK_clean_linker_0, # of connection points: 2
#     Edge 50, Type (0, 0), BuildingBlock: AJUNOK_clean_linker_0, # of connection points: 2
#     Edge 51, Type (0, 0), BuildingBlock: AJUNOK_clean_linker_0, # of connection points: 2
#     Edge 52, Type (0, 0), BuildingBlock: AJUNOK_clean_linker_0, # of connection points: 2
#     Edge 53, Type (0, 0), BuildingBlock: AJUNOK_clean_linker_0, # of connection points: 2
#     Edge 54, Type (0, 0), BuildingBlock: AJUNOK_clean_linker_0, # of connection points: 2
#     Edge 55, Type (0, 0), BuildingBlock: AJUNOK_clean_linker_0, # of connection points: 2
#     Edge 56, Type (0, 0), BuildingBlock: AJUNOK_clean_linker_0, # of connection points: 2
#     Edge 57, Type (0, 0), BuildingBlock: AJUNOK_clean_linker_0, # of connection points: 2
#     Edge 58, Type (0, 0), BuildingBlock: AJUNOK_clean_linker_0, # of connection points: 2
#     Edge 59, Type (0, 0), BuildingBlock: AJUNOK_clean_linker_0, # of connection points: 2
#     Edge 60, Type (0, 0), BuildingBlock: AJUNOK_clean_linker_0, # of connection points: 2
#     Edge 61, Type (0, 0), BuildingBlock: AJUNOK_clean_linker_0, # of connection points: 2
#     Edge 62, Type (0, 0), BuildingBlock: AJUNOK_clean_linker_0, # of connection points: 2
#     Edge 63, Type (0, 0), BuildingBlock: AJUNOK_clean_linker_0, # of connection points: 2
#     Edge 64, Type (0, 0), BuildingBlock: AJUNOK_clean_linker_0, # of connection points: 2
#     Edge 65, Type (0, 0), BuildingBlock: AJUNOK_clean_linker_0, # of connection points: 2
#     Edge 66, Type (0, 0), BuildingBlock: AJUNOK_clean_linker_0, # of connection points: 2
#     Edge 67, Type (0, 0), BuildingBlock: AJUNOK_clean_linker_0, # of connection points: 2
#     Edge 68, Type (0, 0), BuildingBlock: AJUNOK_clean_linker_0, # of connection points: 2
#     Edge 69, Type (0, 0), BuildingBlock: AJUNOK_clean_linker_0, # of connection points: 2
#     Edge 70, Type (0, 0), BuildingBlock: AJUNOK_clean_linker_0, # of connection points: 2
#     Edge 71, Type (0, 0), BuildingBlock: AJUNOK_clean_linker_0, # of connection points: 2
#     Edge 72, Type (0, 0), BuildingBlock: AJUNOK_clean_linker_0, # of connection points: 2
#     Edge 73, Type (0, 0), BuildingBlock: AJUNOK_clean_linker_0, # of connection points: 2
#     Edge 74, Type (0, 0), BuildingBlock: AJUNOK_clean_linker_0, # of connection points: 2
#     Edge 75, Type (0, 0), BuildingBlock: AJUNOK_clean_linker_0, # of connection points: 2
#     Edge 76, Type (0, 0), BuildingBlock: AJUNOK_clean_linker_0, # of connection points: 2
#     Edge 77, Type (0, 0), BuildingBlock: AJUNOK_clean_linker_0, # of connection points: 2
#     Edge 78, Type (0, 0), BuildingBlock: AJUNOK_clean_linker_0, # of connection points: 2
#     Edge 79, Type (0, 0), BuildingBlock: AJUNOK_clean_linker_0, # of connection points: 2
#     Edge 80, Type (0, 0), BuildingBlock: AJUNOK_clean_linker_0, # of connection points: 2
#     Edge 81, Type (0, 0), BuildingBlock: AJUNOK_clean_linker_0, # of connection points: 2
#     Edge 82, Type (0, 0), BuildingBlock: AJUNOK_clean_linker_0, # of connection points: 2
#     Edge 83, Type (0, 0), BuildingBlock: AJUNOK_clean_linker_0, # of connection points: 2
#     Edge 84, Type (0, 0), BuildingBlock: AJUNOK_clean_linker_0, # of connection points: 2
#     Edge 85, Type (0, 0), BuildingBlock: AJUNOK_clean_linker_0, # of connection points: 2
#     Edge 86, Type (0, 0), BuildingBlock: AJUNOK_clean_linker_0, # of connection points: 2
#     Edge 87, Type (0, 0), BuildingBlock: AJUNOK_clean_linker_0, # of connection points: 2
#     Edge 88, Type (0, 0), BuildingBlock: AJUNOK_clean_linker_0, # of connection points: 2
#     Edge 89, Type (0, 0), BuildingBlock: AJUNOK_clean_linker_0, # of connection points: 2
#     Edge 90, Type (0, 0), BuildingBlock: AJUNOK_clean_linker_0, # of connection points: 2
#     Edge 91, Type (0, 0), BuildingBlock: AJUNOK_clean_linker_0, # of connection points: 2
#     Edge 92, Type (0, 0), BuildingBlock: AJUNOK_clean_linker_0, # of connection points: 2
#     Edge 93, Type (0, 0), BuildingBlock: AJUNOK_clean_linker_0, # of connection points: 2
#     Edge 94, Type (0, 0), BuildingBlock: AJUNOK_clean_linker_0, # of connection points: 2
#     Edge 95, Type (0, 0), BuildingBlock: AJUNOK_clean_linker_0, # of connection points: 2
#     Edge 96, Type (0, 0), BuildingBlock: AJUNOK_clean_linker_0, # of connection points: 2
#     Edge 97, Type (0, 0), BuildingBlock: AJUNOK_clean_linker_0, # of connection points: 2
#     Edge 98, Type (0, 0), BuildingBlock: AJUNOK_clean_linker_0, # of connection points: 2
#     Edge 99, Type (0, 0), BuildingBlock: AJUNOK_clean_linker_0, # of connection points: 2
#     Edge 100, Type (0, 0), BuildingBlock: AJUNOK_clean_linker_0, # of connection points: 2
#     Edge 101, Type (0, 0), BuildingBlock: AJUNOK_clean_linker_0, # of connection points: 2
#     Edge 102, Type (0, 0), BuildingBlock: AJUNOK_clean_linker_0, # of connection points: 2
#     Edge 103, Type (0, 0), BuildingBlock: AJUNOK_clean_linker_0, # of connection points: 2
#     Edge 104, Type (0, 0), BuildingBlock: AJUNOK_clean_linker_0, # of connection points: 2
#     Edge 105, Type (0, 0), BuildingBlock: AJUNOK_clean_linker_0, # of connection points: 2
#     Edge 106, Type (0, 0), BuildingBlock: AJUNOK_clean_linker_0, # of connection points: 2
#     Edge 107, Type (0, 0), BuildingBlock: AJUNOK_clean_linker_0, # of connection points: 2
# Relax obj value: 0.381
# Max RMSD: 0.199
# Mean RMSD: 0.194
data_MOF--net-unr--node1-KUFVIS_clean_sbu_0--edge1-AJUNOK_clean_linker_0
_symmetry_space_group_name_H-M    P1
_symmetry_Int_Tables_number       1
_symmetry_cell_setting            triclinic
loop_
_symmetry_equiv_pos_as_xyz
'x, y, z'
_cell_length_a     35.972054
_cell_length_b     35.914255
_cell_length_c     77.919301
_cell_angle_alpha  89.945171
_cell_angle_beta   90.048852
_cell_angle_gamma 120.08315
loop_
_atom_site_label
_atom_site_type_symbol
_atom_site_fract_x
_atom_site_fract_y
_atom_site_fract_z
_atom_type_partial_charge
Mn0 Mn 0.1666 0.13429 0.18318 0.0
Mn1 Mn 0.20979 0.0874 0.20657 0.0
C2 C 0.15514 0.06577 0.17574 0.0
C3 C 0.10506 0.13867 0.17769 0.0
C4 C 0.26031 0.16938 0.18622 0.0
O5 O 0.18049 0.16481 0.20657 0.0
O6 O 0.18903 0.11612 0.22243 0.0
C7 C 0.13981 0.01885 0.2272 0.0
N8 N 0.16955 0.03072 0.2145 0.0
C9 C 0.15046 0.957 0.20966 0.0
C10 C 0.119 0.94409 0.22232 0.0
C11 C 0.1133 0.97497 0.23103 0.0
C12 C 0.17551 0.00104 0.20618 0.0
H13 H 0.13573 0.04266 0.23399 0.0
C14 C 0.18356 0.1488 0.22093 0.0
O15 O 0.14213 0.16901 0.17221 0.0
O16 O 0.10541 0.11024 0.18758 0.0
N17 N 0.22894 0.05871 0.19101 0.0
C18 C 0.25872 0.07561 0.17822 0.0
C19 C 0.26676 0.04852 0.16785 0.0
C20 C 0.24415 0.00402 0.17069 0.0
C21 C 0.21345 0.98707 0.18379 0.0
C22 C 0.20667 0.01577 0.19369 0.0
H23 H 0.27615 0.10935 0.17575 0.0
O24 O 0.15059 0.08937 0.16426 0.0
O25 O 0.16946 0.08527 0.19008 0.0
O26 O 0.22997 0.16606 0.17665 0.0
O27 O 0.25392 0.14481 0.19905 0.0
C28 C 0.18871 0.94269 0.18718 0.0
C29 C 0.15731 0.92766 0.20016 0.0
H30 H 0.09894 0.91043 0.22526 0.0
H31 H 0.08789 0.9647 0.24038 0.0
H32 H 0.29028 0.06198 0.15765 0.0
H33 H 0.25029 0.98313 0.16263 0.0
H34 H 0.19332 0.91981 0.17977 0.0
H35 H 0.13822 0.89341 0.2026 0.0
Mn36 Mn 0.86389 0.03785 0.18218 0.0
Mn37 Mn 0.91892 0.12787 0.20461 0.0
C38 C 0.92971 0.0924 0.1708 0.0
C39 C 0.85443 0.96927 0.1806 0.0
C40 C 0.83792 0.1036 0.18417 0.0
O41 O 0.83483 0.02345 0.20573 0.0
O42 O 0.88631 0.07903 0.22036 0.0
C43 C 0.97973 0.1047 0.21971 0.0
N44 N 0.97221 0.13437 0.21209 0.0
C45 C 0.04757 0.18649 0.2113 0.0
C46 C 0.05612 0.15721 0.21987 0.0
C47 C 0.0221 0.11576 0.2237 0.0
C48 C 0.00478 0.17319 0.20729 0.0
H49 H 0.95352 0.07282 0.22262 0.0
C50 C 0.85174 0.04261 0.21977 0.0
O51 O 0.82486 0.97619 0.17431 0.0
O52 O 0.88781 0.00165 0.18708 0.0
N53 N 0.95298 0.1793 0.19164 0.0
C54 C 0.94009 0.20052 0.18085 0.0
C55 C 0.97033 0.24126 0.17455 0.0
C56 C 0.01356 0.26008 0.17954 0.0
C57 C 0.02614 0.23785 0.19076 0.0
C58 C -0.00561 0.19759 0.19683 0.0
H59 H 0.90703 0.18682 0.17721 0.0
O60 O 0.90169 0.06147 0.16126 0.0
O61 O 0.91681 0.09008 0.1865 0.0
O62 O 0.83414 0.07091 0.17616 0.0
O63 O 0.86457 0.12277 0.19647 0.0
C64 C 0.06915 0.2533 0.19567 0.0
C65 C 0.07992 0.22744 0.2058 0.0
H66 H 0.08876 0.16566 0.223 0.0
H67 H 0.0284 0.09237 0.2297 0.0
H68 H 0.96028 0.2582 0.16592 0.0
H69 H 0.03689 0.29133 0.17451 0.0
H70 H 0.0944 0.28432 0.19119 0.0
H71 H 0.11331 0.23883 0.20885 0.0
Mn72 Mn 0.95332 0.8248 0.18095 0.0
Mn73 Mn 0.86209 0.77143 0.20196 0.0
C74 C 0.89662 0.83653 0.17431 0.0
C75 C 0.01968 0.88802 0.18088 0.0
C76 C 0.89941 0.73164 0.17938 0.0
O77 O 0.96636 0.80385 0.20354 0.0
O78 O 0.90807 0.79131 0.21949 0.0
C79 C 0.84966 0.82969 0.22497 0.0
N80 N 0.8364 0.80237 0.21136 0.0
C81 C 0.77319 0.80872 0.20797 0.0
C82 C 0.78714 0.83824 0.22146 0.0
C83 C 0.82581 0.8493 0.22976 0.0
C84 C 0.79892 0.79127 0.20328 0.0
H85 H 0.87922 0.83783 0.23156 0.0
C86 C 0.94653 0.79759 0.21798 0.0
O87 O 0.01519 0.85471 0.17246 0.0
O88 O 0.98672 0.883 0.18921 0.0
N89 N 0.81783 0.75329 0.18458 0.0
C90 C 0.8176 0.74015 0.16816 0.0
C91 C 0.78275 0.7299 0.15727 0.0
C92 C 0.74975 0.73681 0.16281 0.0
C93 C 0.75369 0.75661 0.17868 0.0
C94 C 0.78887 0.76496 0.18917 0.0
H95 H 0.84527 0.74146 0.16272 0.0
O96 O 0.92692 0.84626 0.16313 0.0
O97 O 0.90044 0.81852 0.18789 0.0
O98 O 0.92455 0.76435 0.17038 0.0
O99 O 0.88574 0.73606 0.19375 0.0
C100 C 0.72607 0.77166 0.18379 0.0
C101 C 0.73581 0.7977 0.19846 0.0
H102 H 0.76909 0.85362 0.22524 0.0
H103 H 0.83758 0.87408 0.23936 0.0
H104 H 0.78247 0.7188 0.14433 0.0
H105 H 0.72348 0.73016 0.15419 0.0
H106 H 0.69844 0.7652 0.17605 0.0
H107 H 0.71526 0.81054 0.20192 0.0
Mn108 Mn 0.12409 0.16952 0.32144 0.0
Mn109 Mn 0.08418 0.22347 0.30022 0.0
C110 C 0.05609 0.15837 0.328 0.0
C111 C 0.12836 0.10703 0.32244 0.0
C112 C 0.15822 0.2629 0.32554 0.0
O113 O 0.16034 0.19127 0.29958 0.0
O114 O 0.12044 0.21256 0.28433 0.0
C115 C 0.02884 0.16608 0.27249 0.0
N116 N 0.03292 0.18659 0.28767 0.0
C117 C 0.95684 0.16032 0.28873 0.0
C118 C 0.9517 0.1378 0.27346 0.0
C119 C 0.98787 0.14105 0.26523 0.0
C120 C -0.00151 0.18524 0.29528 0.0
H121 H 0.05653 0.16847 0.26607 0.0
C122 C 0.15013 0.20284 0.2856 0.0
O123 O 0.15646 0.14117 0.33065 0.0
O124 O 0.10024 0.11058 0.3134 0.0
N125 N 0.04727 0.23286 0.3152 0.0
C126 C 0.05765 0.25803 0.32946 0.0
C127 C 0.02509 0.25891 0.33906 0.0
C128 C 0.98209 0.2341 0.33384 0.0
C129 C 0.97214 0.20899 0.31896 0.0
C130 C 0.00602 0.20946 0.30991 0.0
H131 H 0.09047 0.27735 0.33348 0.0
O132 O 0.07664 0.14845 0.33911 0.0
O133 O 0.07754 0.1764 0.31427 0.0
O134 O 0.1549 0.22888 0.33203 0.0
O135 O 0.13578 0.26343 0.31292 0.0
C136 C 0.92987 0.18322 0.31284 0.0
C137 C 0.92224 0.159 0.2977 0.0
H138 H 0.92015 0.11825 0.26789 0.0
H139 H 0.98398 0.12361 0.25351 0.0
H140 H 0.03314 0.27866 0.35046 0.0
H141 H 0.95701 0.2347 0.34131 0.0
H142 H 0.903 0.18194 0.31965 0.0
H143 H 0.88964 0.1395 0.29305 0.0
Mn144 Mn 0.82045 0.95847 0.3208 0.0
Mn145 Mn 0.77221 0.86709 0.29814 0.0
C146 C 0.83332 0.90223 0.32732 0.0
C147 C 0.88052 0.02624 0.32161 0.0
C148 C 0.72793 0.89868 0.3226 0.0
O149 O 0.79982 0.97354 0.2988 0.0
O150 O 0.78494 0.91554 0.28247 0.0
C151 C 0.8404 0.87714 0.27414 0.0
N152 N 0.81245 0.85501 0.28703 0.0
C153 C 0.83868 0.80513 0.28872 0.0
C154 C 0.86777 0.82748 0.2755 0.0
C155 C 0.86896 0.86388 0.26834 0.0
C156 C 0.81135 0.82009 0.29415 0.0
H157 H 0.84181 0.90551 0.26871 0.0
C158 C 0.79191 0.954 0.28434 0.0
O159 O 0.84638 0.01925 0.33003 0.0
O160 O 0.8785 0.99441 0.31332 0.0
N161 N 0.76007 0.81895 0.3126 0.0
C162 C 0.73209 0.80234 0.32596 0.0
C163 C 0.72825 0.76682 0.33504 0.0
C164 C 0.75313 0.74845 0.33023 0.0
C165 C 0.78141 0.76569 0.31631 0.0
C166 C 0.7836 0.801 0.30768 0.0
H167 H 0.71277 0.81597 0.32958 0.0
O168 O 0.84162 0.93201 0.33861 0.0
O169 O 0.81592 0.90616 0.31353 0.0
O170 O 0.76058 0.92803 0.33034 0.0
O171 O 0.72975 0.87738 0.30974 0.0
C172 C 0.80808 0.74969 0.31087 0.0
C173 C 0.83676 0.76946 0.2971 0.0
H174 H 0.89003 0.8176 0.27101 0.0
H175 H 0.89244 0.88219 0.25856 0.0
H176 H 0.70618 0.75366 0.34573 0.0
H177 H 0.75035 0.72123 0.33734 0.0
H178 H 0.8072 0.72255 0.31734 0.0
H179 H 0.85766 0.75737 0.29322 0.0
Mn180 Mn 0.03282 0.86374 0.31895 0.0
Mn181 Mn 0.12515 0.91134 0.29718 0.0
C182 C 0.08922 0.93086 0.32775 0.0
C183 C 0.9666 0.85946 0.32014 0.0
C184 C 0.09383 0.83149 0.31931 0.0
O185 O 0.01766 0.83183 0.29602 0.0
O186 O 0.07768 0.87606 0.28119 0.0
C187 C 0.10889 0.96973 0.27599 0.0
N188 N 0.13416 0.96395 0.28741 0.0
C189 C 0.18122 0.0404 0.29021 0.0
C190 C 0.15629 0.04713 0.27812 0.0
C191 C 0.11962 0.01161 0.27123 0.0
C192 C 0.16877 -0.00212 0.29459 0.0
H193 H 0.08012 0.94259 0.27093 0.0
C194 C 0.03889 0.84469 0.28201 0.0
O195 O 0.97117 0.82927 0.32736 0.0
O196 O -0.00027 0.8899 0.31268 0.0
N197 N 0.17305 0.94707 0.31171 0.0
C198 C 0.19115 0.93525 0.32439 0.0
C199 C 0.22681 0.96699 0.3334 0.0
C200 C 0.2436 0.0106 0.32926 0.0
C201 C 0.22462 0.02204 0.3161 0.0
C202 C 0.1895 0.98892 0.30741 0.0
H203 H 0.17861 0.90189 0.32756 0.0
O204 O 0.05889 0.90696 0.33845 0.0
O205 O 0.08576 0.91245 0.31322 0.0
O206 O 0.06203 0.83122 0.32666 0.0
O207 O 0.11709 0.85816 0.30762 0.0
C208 C 0.23855 0.06504 0.31153 0.0
C209 C 0.21673 0.07422 0.29864 0.0
H210 H 0.16419 0.07939 0.27446 0.0
H211 H 0.09928 0.01634 0.26239 0.0
H212 H 0.24126 0.95786 0.34354 0.0
H213 H 0.27081 0.03503 0.33636 0.0
H214 H 0.26546 0.09132 0.31808 0.0
H215 H 0.22701 0.10741 0.29555 0.0
Mn216 Mn 0.79468 0.8402 0.81942 0.0
Mn217 Mn 0.86491 0.88933 0.79058 0.0
C218 C 0.83487 0.91762 0.82463 0.0
C219 C 0.72492 0.81861 0.82499 0.0
C220 C 0.86789 0.82317 0.81542 0.0
O221 O 0.77971 0.80309 0.79659 0.0
O222 O 0.80921 0.85994 0.77911 0.0
C223 C 0.867 0.97398 0.76501 0.0
N224 N 0.89255 0.95875 0.77028 0.0
C225 C 0.95936 0.03751 0.7675 0.0
C226 C 0.929 0.04633 0.76006 0.0
C227 C 0.88477 0.01715 0.76031 0.0
C228 C 0.94032 0.99046 0.77296 0.0
H229 H 0.83249 0.9532 0.76535 0.0
C230 C 0.784 0.8198 0.78149 0.0
O231 O 0.74222 0.79785 0.83194 0.0
O232 O 0.74673 0.84797 0.81394 0.0
N233 N 0.9313 0.91607 0.80416 0.0
C234 C 0.93355 0.9081 0.82455 0.0
C235 C 0.96647 0.94459 0.83952 0.0
C236 C 0.03214 0.04505 0.82659 0.0
C237 C 0.03356 0.05007 0.80708 0.0
C238 C 0.96502 0.97781 0.78791 0.0
H239 H 0.90487 0.88822 0.83138 0.0
O240 O 0.81484 0.89132 0.8371 0.0
O241 O 0.83242 0.89554 0.8108 0.0
O242 O 0.84306 0.82537 0.82679 0.0
O243 O 0.8622 0.83306 0.79993 0.0
C244 C 0.04231 0.09005 0.79722 0.0
C245 C 0.00144 0.07892 0.7742 0.0
H246 H 0.93808 0.07888 0.75666 0.0
H247 H 0.86334 0.02878 0.75667 0.0
H248 H 0.95962 0.93596 0.85305 0.0
H249 H 0.04351 0.07093 0.8356 0.0
H250 H 0.07238 0.11679 0.79978 0.0
H251 H 0.00561 0.10545 0.76658 0.0
Mn252 Mn 0.13692 0.94507 0.82569 0.0
Mn253 Mn 0.08207 0.96992 0.80375 0.0
C254 C 0.05792 0.8916 0.82837 0.0
C255 C 0.16308 0.89831 0.82588 0.0
C256 C 0.15292 0.0371 0.82495 0.0
O257 O 0.17249 0.97467 0.80282 0.0
O258 O 0.11168 0.94816 0.78854 0.0
C259 C 0.02382 0.88938 0.78347 0.0
N260 N 0.02494 0.92033 0.7939 0.0
C261 C 0.95601 0.90668 0.77878 0.0
C262 C 0.95443 0.87121 0.77121 0.0
C263 C 0.98703 0.86175 0.77413 0.0
C264 C 0.9914 0.92898 0.79373 0.0
H265 H 0.04966 0.88234 0.78365 0.0
C266 C 0.15204 0.96327 0.78841 0.0
O267 O 0.18151 0.93284 0.83529 0.0
O268 O 0.13321 0.8937 0.81579 0.0
N269 N 0.05878 0.00517 0.81826 0.0
C270 C 0.07322 0.00967 0.83492 0.0
C271 C 0.03533 0.99547 0.84061 0.0
C272 C 0.98585 0.98093 0.81565 0.0
C273 C 0.93914 0.97355 0.8142 0.0
C274 C -0.00288 0.97931 0.8107 0.0
H275 H 0.07347 0.00997 0.82131 0.0
O276 O 0.08358 0.89739 0.84096 0.0
O277 O 0.07918 0.9266 0.81912 0.0
O278 O 0.14848 0.00773 0.83606 0.0
O279 O 0.14069 0.02189 0.8099 0.0
C280 C 0.89787 0.94788 0.79767 0.0
C281 C 0.91459 0.91252 0.7774 0.0
H282 H 0.9265 0.84912 0.76381 0.0
H283 H 0.98459 0.83312 0.76844 0.0
H284 H 0.03097 -0.00253 0.85443 0.0
H285 H 0.94265 0.97493 0.81737 0.0
H286 H 0.87217 0.95447 0.79689 0.0
H287 H 0.89235 0.89405 0.76705 0.0
Mn288 Mn 0.02823 0.18571 0.82195 0.0
Mn289 Mn 0.01351 0.11996 0.79145 0.0
C290 C 0.07316 0.15102 0.82729 0.0
C291 C 0.07506 0.25697 0.82635 0.0
C292 C 0.94227 0.10833 0.8178 0.0
O293 O -0.00057 0.19882 0.79971 0.0
O294 O 0.04119 0.18206 0.78703 0.0
C295 C 0.11206 0.15516 0.77166 0.0
N296 N 0.07295 0.11919 0.7725 0.0
C297 C 0.1055 0.07248 0.76956 0.0
C298 C 0.14522 0.11117 0.76939 0.0
C299 C 0.14854 0.15147 0.77069 0.0
C300 C 0.06727 0.07389 0.77128 0.0
H301 H 0.11514 0.18628 0.77393 0.0
C302 C 0.01756 0.19847 0.78558 0.0
O303 O 0.03802 0.23869 0.83413 0.0
O304 O 0.08217 0.23515 0.81523 0.0
N305 N 0.97664 0.0411 0.79718 0.0
C306 C 0.96933 0.04397 0.81987 0.0
C307 C 0.97396 0.00577 0.83922 0.0
C308 C 0.01491 0.94105 0.82299 0.0
C309 C 0.04733 0.99515 0.7914 0.0
C310 C 0.02616 0.03166 0.78068 0.0
H311 H 0.98027 0.07465 0.82544 0.0
O312 O 0.06612 0.17166 0.83917 0.0
O313 O 0.04597 0.14548 0.81464 0.0
O314 O 0.96784 0.13398 0.82946 0.0
O315 O 0.95727 0.11377 0.80222 0.0
C316 C 0.08091 -0.00144 0.7799 0.0
C317 C 0.10663 0.03416 0.7698 0.0
H318 H 0.17495 0.11036 0.76878 0.0
H319 H 0.17993 0.18017 0.77099 0.0
H320 H 0.97107 0.01148 0.85278 0.0
H321 H 0.02577 0.92909 0.83272 0.0
H322 H 0.05771 0.99519 0.78828 0.0
H323 H 0.1341 0.03401 0.76418 0.0
Mn324 Mn 0.83861 0.80405 0.67802 0.0
Mn325 Mn 0.88631 0.87272 0.70756 0.0
C326 C 0.916 0.8429 0.67332 0.0
C327 C 0.8206 0.73242 0.6765 0.0
C328 C 0.82386 0.87917 0.6812 0.0
O329 O 0.79915 0.79051 0.69986 0.0
O330 O 0.85403 0.81549 0.718 0.0
C331 C 0.96692 0.86827 0.73384 0.0
N332 N 0.95338 0.8956 0.72902 0.0
C333 C 0.0326 0.96 0.73335 0.0
C334 C 0.03909 0.92813 0.74081 0.0
C335 C 0.00939 0.88416 0.73914 0.0
C336 C 0.98668 0.94336 0.72715 0.0
H337 H 0.94536 0.83395 0.73272 0.0
C338 C 0.8139 0.79242 0.7151 0.0
O339 O 0.7996 0.74581 0.66717 0.0
O340 O 0.84931 0.75933 0.68645 0.0
N341 N 0.91684 0.94042 0.69518 0.0
C342 C 0.9108 0.94415 0.6748 0.0
C343 C 0.94906 0.97675 0.66047 0.0
C344 C 0.04903 0.03903 0.67485 0.0
C345 C 0.05233 0.03881 0.69438 0.0
C346 C 0.97708 0.97075 0.71228 0.0
H347 H 0.89117 0.91586 0.66764 0.0
O348 O 0.89045 0.8215 0.6609 0.0
O349 O 0.89313 0.84395 0.68624 0.0
O350 O 0.82489 0.85327 0.66979 0.0
O351 O 0.83237 0.87273 0.69687 0.0
C352 C 0.09086 0.0447 0.70484 0.0
C353 C 0.07537 0.00124 0.72749 0.0
H354 H 0.07059 0.93639 0.74551 0.0
H355 H 0.01968 0.86148 0.74249 0.0
H356 H 0.94148 0.97077 0.64683 0.0
H357 H 0.07562 0.05006 0.66618 0.0
H358 H 0.11819 0.07478 0.70303 0.0
H359 H 0.10178 0.00358 0.73537 0.0
Mn360 Mn 0.18528 0.02917 0.68097 0.0
Mn361 Mn 0.11739 0.0126 0.71088 0.0
C362 C 0.15423 0.07717 0.67615 0.0
C363 C 0.2575 0.07481 0.67767 0.0
C364 C 0.10566 0.94368 0.68332 0.0
O365 O 0.19305 0.99601 0.7026 0.0
O366 O 0.1762 0.03416 0.71871 0.0
C367 C 0.15714 0.10862 0.73202 0.0
N368 N 0.11906 0.07189 0.73019 0.0
C369 C 0.07893 0.11046 0.73168 0.0
C370 C 0.11969 0.14788 0.73368 0.0
C371 C 0.1579 0.14715 0.73356 0.0
C372 C 0.07527 0.06974 0.73069 0.0
H373 H 0.18684 0.10835 0.73041 0.0
C374 C 0.19167 0.00985 0.71767 0.0
O375 O 0.23874 0.03834 0.66942 0.0
O376 O 0.23557 0.0812 0.68899 0.0
N377 N 0.03989 0.98011 0.70377 0.0
C378 C 0.04449 0.97426 0.68108 0.0
C379 C 0.00932 0.98224 0.66134 0.0
C380 C 0.9465 0.02575 0.6771 0.0
C381 C -0.00139 0.05496 0.70915 0.0
C382 C 0.03188 0.03029 0.72052 0.0
H383 H 0.07548 0.98497 0.67595 0.0
O384 O 0.17511 0.07055 0.66425 0.0
O385 O 0.14719 0.04839 0.68846 0.0
O386 O 0.13271 0.97051 0.67226 0.0
O387 O 0.10962 0.95659 0.69918 0.0
C388 C 0.0085 0.09298 0.71881 0.0
C389 C 0.04543 0.11772 0.72833 0.0
H390 H 0.12263 0.17943 0.73439 0.0
H391 H 0.18833 0.17692 0.73436 0.0
H392 H 0.01603 0.98008 0.64784 0.0
H393 H 0.93632 0.03831 0.66738 0.0
H394 H 0.00073 0.0663 0.71172 0.0
H395 H 0.05162 0.1498 0.73082 0.0
Mn396 Mn 0.95409 0.15217 0.67547 0.0
Mn397 Mn 0.97432 0.09124 0.69664 0.0
C398 C 0.90053 0.07296 0.6706 0.0
C399 C 0.90995 0.1816 0.67559 0.0
C400 C 0.04488 0.16351 0.6776 0.0
O401 O 0.98008 0.18403 0.69922 0.0
O402 O 0.95085 0.12076 0.71153 0.0
C403 C 0.89212 0.03355 0.7158 0.0
N404 N 0.92406 0.03471 0.70599 0.0
C405 C 0.9067 0.96397 0.72067 0.0
C406 C 0.87104 0.96299 0.7277 0.0
C407 C 0.86307 -0.00343 0.72473 0.0
C408 C 0.93167 0.00059 0.70625 0.0
H409 H 0.88541 0.05961 0.71545 0.0
C410 C 0.96471 0.16119 0.71285 0.0
O411 O 0.94624 0.20064 0.6673 0.0
O412 O 0.90159 0.14818 0.68432 0.0
N413 N 0.01039 0.06747 0.68243 0.0
C414 C 0.01649 0.08243 0.66581 0.0
C415 C 0.00192 0.04485 0.66017 0.0
C416 C 0.98355 0.99378 0.68473 0.0
C417 C 0.974 0.94624 0.68579 0.0
C418 C 0.98208 0.00511 0.68966 0.0
H419 H 0.00417 0.10025 0.65947 0.0
O420 O 0.90744 0.10108 0.6588 0.0
O421 O 0.93442 0.09241 0.6805 0.0
O422 O 0.01869 0.16535 0.66634 0.0
O423 O 0.02714 0.14945 0.69202 0.0
C424 C 0.9457 0.90409 0.70168 0.0
C425 C 0.91014 0.92097 0.72169 0.0
H426 H 0.84768 0.93482 0.73467 0.0
H427 H 0.83442 0.99472 0.73008 0.0
H428 H 0.00289 0.04057 0.64625 0.0
H429 H 0.97581 0.94998 0.68263 0.0
H430 H 0.9499 0.87671 0.70213 0.0
H431 H 0.88987 0.89796 0.73153 0.0
Mn432 Mn 0.83314 0.4694 0.51644 0.0
Mn433 Mn 0.87296 0.42067 0.54007 0.0
C434 C 0.8213 0.40093 0.50846 0.0
C435 C 0.7685 0.46887 0.5133 0.0
C436 C 0.9255 0.49931 0.51755 0.0
O437 O 0.85025 0.50344 0.53889 0.0
O438 O 0.85979 0.45674 0.55507 0.0
C439 C 0.79378 0.36315 0.5591 0.0
N440 N 0.82714 0.36839 0.54913 0.0
C441 C 0.7966 0.29178 0.54625 0.0
C442 C 0.76247 0.28551 0.55687 0.0
C443 C 0.76077 0.32141 0.56309 0.0
C444 C 0.82831 0.33416 0.54253 0.0
H445 H 0.79207 0.39061 0.5637 0.0
C446 C 0.85697 0.4907 0.55332 0.0
O447 O 0.80279 0.49974 0.50607 0.0
O448 O 0.7744 0.44393 0.52313 0.0
N449 N 0.88657 0.38444 0.5266 0.0
C450 C 0.91852 0.39594 0.51488 0.0
C451 C 0.92371 0.36407 0.50668 0.0
C452 C 0.89587 0.32054 0.51062 0.0
C453 C 0.86319 0.3094 0.52277 0.0
C454 C 0.86016 0.34272 0.53074 0.0
H455 H 0.93991 0.42912 0.51187 0.0
O456 O 0.81588 0.42462 0.4974 0.0
O457 O 0.83545 0.42006 0.5229 0.0
O458 O 0.89525 0.49985 0.5091 0.0
O459 O 0.91974 0.47363 0.53008 0.0
C460 C 0.83277 0.26652 0.52692 0.0
C461 C 0.79931 0.2577 0.53856 0.0
H462 H 0.73692 0.25334 0.55994 0.0
H463 H 0.73423 0.31718 0.57093 0.0
H464 H 0.94901 0.37305 0.49731 0.0
H465 H 0.89956 0.29596 0.50411 0.0
H466 H 0.83415 0.24007 0.5209 0.0
H467 H 0.77527 0.2246 0.54122 0.0
Mn468 Mn 0.52008 0.36265 0.51504 0.0
Mn469 Mn 0.57856 0.45267 0.53751 0.0
C470 C 0.58906 0.41483 0.50506 0.0
C471 C 0.50509 0.29174 0.51418 0.0
C472 C 0.49881 0.43133 0.5167 0.0
O473 O 0.48992 0.35154 0.53815 0.0
O474 O 0.54309 0.40519 0.55334 0.0
C475 C 0.63583 0.429 0.55584 0.0
N476 N 0.63067 0.45679 0.54557 0.0
C477 C 0.70711 0.50406 0.5435 0.0
C478 C 0.71328 0.47635 0.5543 0.0
C479 C 0.67749 0.43844 0.56035 0.0
C480 C 0.66488 0.49266 0.53926 0.0
H481 H 0.60834 0.39987 0.5605 0.0
C482 C 0.5069 0.37033 0.5523 0.0
O483 O 0.47836 0.30127 0.50687 0.0
O484 O 0.53816 0.32267 0.52129 0.0
N485 N 0.6149 0.50145 0.52348 0.0
C486 C 0.60373 0.52272 0.51198 0.0
C487 C 0.63577 0.56018 0.50401 0.0
C488 C 0.6791 0.57586 0.50814 0.0
C489 C 0.68992 0.55383 0.5202 0.0
C490 C 0.6565 0.51661 0.52771 0.0
H491 H 0.57071 0.51154 0.50906 0.0
O492 O 0.56231 0.3843 0.49502 0.0
O493 O 0.57347 0.41274 0.52013 0.0
O494 O 0.49504 0.39938 0.5081 0.0
O495 O 0.52578 0.44982 0.52896 0.0
C496 C 0.73261 0.56681 0.52477 0.0
C497 C 0.74121 0.54185 0.53636 0.0
H498 H 0.74531 0.48343 0.55778 0.0
H499 H 0.68202 0.41663 0.56851 0.0
H500 H 0.62703 0.57706 0.4948 0.0
H501 H 0.70378 0.60471 0.50193 0.0
H502 H 0.75911 0.5954 0.51915 0.0
H503 H 0.7742 0.55155 0.53939 0.0
Mn504 Mn 0.61786 0.16104 0.5142 0.0
Mn505 Mn 0.52306 0.098 0.53381 0.0
C506 C 0.5586 0.16872 0.50828 0.0
C507 C 0.6831 0.22495 0.51361 0.0
C508 C 0.56549 0.06757 0.50803 0.0
O509 O 0.63301 0.13822 0.53564 0.0
O510 O 0.56951 0.10843 0.55006 0.0
C511 C 0.51561 0.14363 0.56399 0.0
N512 N 0.50313 0.12818 0.54778 0.0
C513 C 0.44764 0.14706 0.54809 0.0
C514 C 0.46096 0.16459 0.56451 0.0
C515 C 0.49443 0.16198 0.57262 0.0
C516 C 0.46891 0.12778 0.54036 0.0
H517 H 0.54144 0.14185 0.5703 0.0
C518 C 0.60989 0.12172 0.54912 0.0
O519 O 0.6782 0.19165 0.50515 0.0
O520 O 0.65106 0.21994 0.52291 0.0
N521 N 0.47771 0.08922 0.51839 0.0
C522 C 0.46836 0.07054 0.50261 0.0
C523 C 0.43504 0.06949 0.49286 0.0
C524 C 0.41184 0.0882 0.49937 0.0
C525 C 0.42231 0.10781 0.51556 0.0
C526 C 0.45579 0.10762 0.5247 0.0
H527 H 0.48674 0.05734 0.49742 0.0
O528 O 0.58958 0.1816 0.49717 0.0
O529 O 0.56282 0.14997 0.52166 0.0
O530 O 0.59422 0.10362 0.50229 0.0
O531 O 0.53945 0.06328 0.51999 0.0
C532 C 0.40139 0.12825 0.52285 0.0
C533 C 0.41386 0.14762 0.53916 0.0
H534 H 0.44532 0.17954 0.57111 0.0
H535 H 0.50396 0.17434 0.58543 0.0
H536 H 0.42759 0.0547 0.48029 0.0
H537 H 0.38638 0.08771 0.49176 0.0
H538 H 0.37559 0.12916 0.51604 0.0
H539 H 0.39725 0.16287 0.54473 0.0
Mn540 Mn 0.78503 0.50043 0.6511 0.0
Mn541 Mn 0.75427 0.5636 0.63198 0.0
C542 C 0.7167 0.48927 0.65638 0.0
C543 C 0.7926 0.44045 0.64951 0.0
C544 C 0.82305 0.59169 0.65926 0.0
O545 O 0.82665 0.52927 0.63107 0.0
O546 O 0.7902 0.55377 0.61551 0.0
C547 C 0.70261 0.52267 0.60105 0.0
N548 N 0.70448 0.5359 0.61757 0.0
C549 C 0.63161 0.52182 0.61605 0.0
C550 C 0.62864 0.5069 0.59923 0.0
C551 C 0.66453 0.50806 0.59162 0.0
C552 C 0.67078 0.53716 0.62466 0.0
H553 H 0.73016 0.5238 0.59501 0.0
C554 C 0.81943 0.54338 0.61705 0.0
O555 O 0.81699 0.47203 0.65968 0.0
O556 O 0.76453 0.44423 0.64036 0.0
N557 N 0.71806 0.57244 0.64798 0.0
C558 C 0.72769 0.59095 0.66449 0.0
C559 C 0.69359 0.59167 0.67305 0.0
C560 C 0.65257 0.57523 0.66571 0.0
C561 C 0.64385 0.557 0.6493 0.0
C562 C 0.67682 0.55541 0.64065 0.0
H563 H 0.73699 0.58212 0.65328 0.0
O564 O 0.73424 0.4747 0.66704 0.0
O565 O 0.74006 0.50969 0.64322 0.0
O566 O 0.81322 0.55507 0.66512 0.0
O567 O 0.8061 0.59699 0.64585 0.0
C568 C 0.60366 0.54046 0.64116 0.0
C569 C 0.59771 0.52335 0.62444 0.0
H570 H 0.59935 0.49546 0.59188 0.0
H571 H 0.66295 0.49823 0.57847 0.0
H572 H 0.69925 0.60548 0.68577 0.0
H573 H 0.62771 0.5769 0.67292 0.0
H574 H 0.57737 0.54136 0.64752 0.0
H575 H 0.56711 0.51195 0.6181 0.0
Mn576 Mn 0.48623 0.29313 0.65505 0.0
Mn577 Mn 0.45487 0.20303 0.63281 0.0
C578 C 0.50256 0.24157 0.66528 0.0
C579 C 0.54212 0.36413 0.65613 0.0
C580 C 0.39525 0.22473 0.65217 0.0
O581 O 0.46906 0.30412 0.63144 0.0
O582 O 0.46914 0.25042 0.61656 0.0
C583 C 0.53506 0.22249 0.61501 0.0
N584 N 0.50201 0.19666 0.6256 0.0
C585 C 0.52729 0.14628 0.6281 0.0
C586 C 0.5612 0.17189 0.61693 0.0
C587 C 0.56544 0.21051 0.61061 0.0
C588 C 0.49835 0.16018 0.63223 0.0
H589 H 0.53809 0.25191 0.60996 0.0
C590 C 0.46831 0.28561 0.61734 0.0
O591 O 0.50495 0.35424 0.66265 0.0
O592 O 0.54609 0.33327 0.6498 0.0
N593 N 0.44063 0.15497 0.64761 0.0
C594 C 0.40918 0.13655 0.65969 0.0
C595 C 0.4023 0.09924 0.66825 0.0
C596 C 0.4277 0.08095 0.66422 0.0
C597 C 0.46032 0.10071 0.65191 0.0
C598 C 0.46576 0.13803 0.64387 0.0
H599 H 0.38947 0.15004 0.66279 0.0
O600 O 0.50545 0.27149 0.67548 0.0
O601 O 0.48896 0.24328 0.65021 0.0
O602 O 0.42297 0.25617 0.66125 0.0
O603 O 0.40507 0.20722 0.64005 0.0
C604 C 0.4883 0.08541 0.64758 0.0
C605 C 0.52179 0.1082 0.63569 0.0
H606 H 0.58465 0.16272 0.61344 0.0
H607 H 0.59181 0.23096 0.60229 0.0
H608 H 0.37739 0.0846 0.67789 0.0
H609 H 0.4224 0.05219 0.67087 0.0
H610 H 0.48485 0.05662 0.65357 0.0
H611 H 0.54365 0.09661 0.63273 0.0
Mn612 Mn 0.6952 0.19522 0.65103 0.0
Mn613 Mn 0.78269 0.22814 0.62862 0.0
C614 C 0.75142 0.26562 0.65442 0.0
C615 C 0.63039 0.19315 0.65465 0.0
C616 C 0.75063 0.15868 0.65325 0.0
O617 O 0.67783 0.15757 0.62888 0.0
O618 O 0.73566 0.20079 0.61179 0.0
C619 C 0.80499 0.28937 0.60035 0.0
N620 N 0.81219 0.28187 0.6168 0.0
C621 C 0.87947 0.34885 0.61746 0.0
C622 C 0.87159 0.3581 0.60092 0.0
C623 C 0.83503 0.32758 0.59219 0.0
C624 C 0.84965 0.30913 0.62469 0.0
H625 H 0.77727 0.26563 0.59334 0.0
C626 C 0.69643 0.17021 0.61405 0.0
O627 O 0.6373 0.1655 0.66274 0.0
O628 O 0.65851 0.21719 0.6434 0.0
N629 N 0.82706 0.25737 0.64617 0.0
C630 C 0.82518 0.25081 0.66352 0.0
C631 C 0.85996 0.27756 0.67412 0.0
C632 C 0.89493 0.31429 0.66725 0.0
C633 C 0.89292 0.3253 0.65022 0.0
C634 C 0.85753 0.29634 0.64021 0.0
H635 H 0.79607 0.22825 0.66973 0.0
O636 O 0.72465 0.24651 0.66693 0.0
O637 O 0.74551 0.24207 0.64116 0.0
O638 O 0.72707 0.16681 0.66278 0.0
O639 O 0.75366 0.1699 0.638 0.0
C640 C 0.92298 0.36546 0.64328 0.0
C641 C 0.91652 0.37703 0.62679 0.0
H642 H 0.89426 0.38771 0.59454 0.0
H643 H 0.83131 0.33309 0.57901 0.0
H644 H 0.85861 0.27114 0.68775 0.0
H645 H 0.92124 0.3357 0.67554 0.0
H646 H 0.95065 0.38812 0.65069 0.0
H647 H 0.93988 0.40795 0.6215 0.0
Mn648 Mn 0.48238 0.19235 0.15639 0.0
Mn649 Mn 0.50642 0.22187 0.13635 0.0
C650 C 0.49202 0.26737 0.16565 0.0
C651 C 0.40951 0.17681 0.16275 0.0
C652 C 0.5399 0.16074 0.15099 0.0
O653 O 0.45339 0.14409 0.13606 0.0
O654 O 0.45611 0.19492 0.1214 0.0
C655 C 0.52679 0.31766 0.10628 0.0
N656 N 0.54444 0.29578 0.11352 0.0
C657 C 0.62164 0.36399 0.10939 0.0
C658 C 0.59982 0.38152 0.10046 0.0
C659 C 0.55394 0.35989 0.09968 0.0
C660 C 0.5929 0.32171 0.11529 0.0
H661 H 0.49226 0.30364 0.10609 0.0
C662 C 0.44525 0.15601 0.1217 0.0
O663 O 0.42795 0.16027 0.17139 0.0
O664 O 0.43275 0.20242 0.15094 0.0
N665 N 0.57653 0.242 0.14847 0.0
C666 C 0.58987 0.24907 0.17377 0.0
C667 C 0.65243 0.29596 0.19142 0.0
C668 C 0.69425 0.36692 0.18201 0.0
C669 C 0.68991 0.37683 0.15409 0.0
C670 C 0.61399 0.31051 0.12866 0.0
H671 H 0.57695 0.23744 0.16115 0.0
O672 O 0.50743 0.24684 0.17395 0.0
O673 O 0.47368 0.24505 0.15178 0.0
O674 O 0.5199 0.16403 0.16402 0.0
O675 O 0.53015 0.17441 0.13691 0.0
C676 C 0.7088 0.40882 0.13858 0.0
C677 C 0.66981 0.39113 0.11481 0.0
H678 H 0.6178 0.414 0.09549 0.0
H679 H 0.53906 0.37679 0.09407 0.0
H680 H 0.65182 0.28954 0.20502 0.0
H681 H 0.69909 0.38313 0.16971 0.0
H682 H 0.7417 0.43306 0.13981 0.0
H683 H 0.68206 0.41494 0.10442 0.0
Mn684 Mn 0.81064 0.29282 0.15531 0.0
Mn685 Mn 0.73879 0.32256 0.13359 0.0
C686 C 0.7321 0.2426 0.15949 0.0
C687 C 0.83722 0.24694 0.15702 0.0
C688 C 0.81612 0.38274 0.15675 0.0
O689 O 0.84785 0.3217 0.13334 0.0
O690 O 0.7989 0.33289 0.12141 0.0
C691 C 0.65424 0.26461 0.09799 0.0
N692 N 0.66162 0.27655 0.11508 0.0
C693 C 0.58613 0.23286 0.11825 0.0
C694 C 0.58246 0.21039 0.10355 0.0
C695 C 0.61742 0.22618 0.09331 0.0
C696 C 0.62686 0.25578 0.12651 0.0
H697 H 0.67777 0.2826 0.08859 0.0
C698 C 0.8341 0.33241 0.12023 0.0
O699 O 0.85611 0.28339 0.16523 0.0
O700 O 0.80632 0.23968 0.1468 0.0
N701 N 0.7091 0.32577 0.15398 0.0
C702 C 0.72799 0.32415 0.17118 0.0
C703 C 0.704 0.32561 0.16045 0.0
C704 C 0.63969 0.305 0.15427 0.0
C705 C 0.59166 0.30297 0.15415 0.0
C706 C 0.64183 0.28976 0.14704 0.0
H707 H 0.75669 0.32412 0.17124 0.0
O708 O 0.75908 0.24767 0.17146 0.0
O709 O 0.75299 0.27741 0.14924 0.0
O710 O 0.82418 0.3553 0.1646 0.0
O711 O 0.7902 0.37199 0.14408 0.0
C712 C 0.54831 0.27937 0.14063 0.0
C713 C 0.5535 0.24267 0.12196 0.0
H714 H 0.55175 0.18807 0.09817 0.0
H715 H 0.61219 0.21004 0.08134 0.0
H716 H 0.66655 0.31857 0.16775 0.0
H717 H 0.60174 0.30668 0.15565 0.0
H718 H 0.52966 0.29381 0.1398 0.0
H719 H 0.52747 0.22689 0.11254 0.0
Mn720 Mn 0.70705 0.52131 0.15207 0.0
Mn721 Mn 0.68645 0.44033 0.12764 0.0
C722 C 0.74526 0.48728 0.16168 0.0
C723 C 0.75289 0.59371 0.15157 0.0
C724 C 0.62048 0.44605 0.15146 0.0
O725 O 0.68051 0.52419 0.12866 0.0
O726 O 0.71279 0.49497 0.11432 0.0
C727 C 0.77936 0.4364 0.10748 0.0
N728 N 0.73924 0.41285 0.11357 0.0
C729 C 0.74046 0.34032 0.10751 0.0
C730 C 0.77805 0.37002 0.09868 0.0
C731 C 0.7997 0.41521 0.1008 0.0
C732 C 0.72188 0.36465 0.1163 0.0
H733 H 0.79479 0.47106 0.10721 0.0
C734 C 0.69409 0.51743 0.11444 0.0
O735 O 0.71542 0.57807 0.15893 0.0
O736 O 0.76123 0.56765 0.14344 0.0
N737 N 0.6405 0.37055 0.1402 0.0
C738 C 0.62741 0.37171 0.16254 0.0
C739 C 0.62228 0.32585 0.17886 0.0
C740 C 0.65473 0.2589 0.16828 0.0
C741 C 0.68645 0.2689 0.14065 0.0
C742 C 0.68506 0.33984 0.12943 0.0
H743 H 0.63022 0.37668 0.14853 0.0
O744 O 0.74174 0.5141 0.17165 0.0
O745 O 0.72039 0.47752 0.14812 0.0
O746 O 0.6471 0.475 0.16179 0.0
O747 O 0.63403 0.44584 0.13594 0.0
C748 C 0.71015 0.25871 0.1254 0.0
C749 C 0.73181 0.29162 0.11026 0.0
H750 H 0.79614 0.35813 0.09262 0.0
H751 H 0.83162 0.43436 0.09547 0.0
H752 H 0.60863 0.32644 0.19136 0.0
H753 H 0.6591 0.2414 0.17834 0.0
H754 H 0.69409 0.2627 0.13625 0.0
H755 H 0.74925 0.2808 0.10264 0.0
Mn756 Mn 0.5203 0.14234 0.01645 0.0
Mn757 Mn 0.57991 0.22174 0.04099 0.0
C758 C 0.59337 0.17355 0.00783 0.0
C759 C 0.48901 0.06981 0.01523 0.0
C760 C 0.513 0.21992 0.01583 0.0
O761 O 0.48885 0.13975 0.03967 0.0
O762 O 0.54818 0.16915 0.05558 0.0
C763 C 0.6766 0.22637 0.06486 0.0
N764 N 0.66104 0.25131 0.05909 0.0
C765 C 0.73634 0.32047 0.06269 0.0
C766 C 0.74401 0.29122 0.07185 0.0
C767 C 0.71738 0.24614 0.07189 0.0
C768 C 0.69335 0.29973 0.05566 0.0
H769 H 0.65667 0.19169 0.06482 0.0
C770 C 0.50705 0.14654 0.05449 0.0
O771 O 0.47032 0.08896 0.00806 0.0
O772 O 0.52262 0.09239 0.02453 0.0
N773 N 0.60717 0.28902 0.02531 0.0
C774 C 0.60112 0.2906 1.00042 0.0
C775 C 0.64118 0.35652 0.98708 0.0
C776 C 0.73356 0.41593 0.013 0.0
C777 C 0.74581 0.3875 0.03079 0.0
C778 C 0.68463 0.32739 0.04215 0.0
H779 H 0.58138 0.26163 0.99326 0.0
O780 O 0.56274 0.14853 0.99754 0.0
O781 O 0.57871 0.18268 0.02176 0.0
O782 O 0.5113 0.19093 0.00587 0.0
O783 O 0.52412 0.21893 0.03162 0.0
C784 C 0.78475 0.39651 0.04396 0.0
C785 C 0.77572 0.36477 0.05849 0.0
H786 H 0.77435 0.3031 0.07759 0.0
H787 H 0.72847 0.22633 0.07787 0.0
H788 H 0.63479 0.36558 0.97456 0.0
H789 H 0.74764 0.40712 0.0228 0.0
H790 H 0.81658 0.42381 0.04346 0.0
H791 H 0.80403 0.37453 0.06597 0.0
Mn792 Mn 0.846 0.37162 0.01098 0.0
Mn793 Mn 0.74714 0.33681 0.03348 0.0
C794 C 0.81642 0.41811 0.00653 0.0
C795 C 0.91833 0.42148 0.01114 0.0
C796 C 0.76341 0.28158 0.00786 0.0
O797 O 0.8547 0.34444 0.03319 0.0
O798 O 0.7889 0.31465 0.04423 0.0
C799 C 0.74664 0.41824 0.06933 0.0
N800 N 0.72424 0.3889 0.05639 0.0
C801 C 0.67986 0.41958 0.05389 0.0
C802 C 0.69835 0.44439 0.06845 0.0
C803 C 0.7346 0.44705 0.07504 0.0
C804 C 0.70078 0.40003 0.04452 0.0
H805 H 0.77816 0.42573 0.07292 0.0
C806 C 0.82899 0.32603 0.04566 0.0
O807 O 0.90403 0.38666 0.00195 0.0
O808 O 0.89165 0.42506 0.0208 0.0
N809 N 0.7238 0.34656 0.00878 0.0
C810 C 0.72369 0.32849 0.99019 0.0
C811 C 0.67429 0.31666 0.9832 0.0
C812 C 0.66064 0.3465 0.01124 0.0
C813 C 0.61758 0.35192 0.01363 0.0
C814 C 0.67843 0.35583 0.01783 0.0
H815 H 0.73439 0.34105 0.003 0.0
O816 O 0.83804 0.41328 0.99442 0.0
O817 O 0.80306 0.38434 0.01728 0.0
O818 O 0.79875 0.31005 1.00031 0.0
O819 O 0.74741 0.29094 0.02049 0.0
C820 C 0.59814 0.37481 0.02836 0.0
C821 C 0.63827 0.41003 0.04915 0.0
H822 H 0.68465 0.46151 0.07471 0.0
H823 H 0.75285 0.47125 0.08454 0.0
H824 H 0.65771 0.30416 0.97106 0.0
H825 H 0.62231 0.34884 0.01181 0.0
H826 H 0.56493 0.36321 0.02837 0.0
H827 H 0.62606 0.4243 0.0584 0.0
Mn828 Mn 0.62528 0.47006 0.01215 0.0
Mn829 Mn 0.61546 0.43192 0.03385 0.0
C830 C 0.56334 0.39629 0.00171 0.0
C831 C 0.56703 0.48469 0.00709 0.0
C832 C 0.71101 0.49818 0.01794 0.0
O833 O 0.64262 0.51397 0.03318 0.0
O834 O 0.59411 0.46219 0.04793 0.0
C835 C 0.53665 0.33375 0.06246 0.0
N836 N 0.5753 0.35521 0.0547 0.0
C837 C 0.58636 0.29076 0.05722 0.0
C838 C 0.54712 0.27113 0.0665 0.0
C839 C 0.52225 0.29152 0.06847 0.0
C840 C 0.59983 0.33132 0.0522 0.0
H841 H 0.51699 0.34852 0.06376 0.0
C842 C 0.62239 0.50133 0.0474 0.0
O843 O 0.60204 0.50319 0.99851 0.0
O844 O 0.56464 0.45699 0.01792 0.0
N845 N 0.66558 0.40986 0.02369 0.0
C846 C 0.67994 0.41872 0.00196 0.0
C847 C 0.70777 0.38267 0.99005 0.0
C848 C 0.66626 0.28811 0.00737 0.0
C849 C 0.65841 0.28267 0.02271 0.0
C850 C 0.63683 0.34586 0.03943 0.0
H851 H 0.67625 0.44084 0.99392 0.0
O852 O 0.59886 0.41859 0.9934 0.0
O853 O 0.56581 0.41639 0.01597 0.0
O854 O 0.69029 0.5029 0.00558 0.0
O855 O 0.68631 0.47674 0.03112 0.0
C856 C 0.63708 0.25262 0.03396 0.0
C857 C 0.6132 0.27116 0.05346 0.0
H858 H 0.53424 0.23881 0.07148 0.0
H859 H 0.49123 0.2741 0.07468 0.0
H860 H 0.72172 0.39235 0.97712 0.0
H861 H 0.66411 0.26084 0.00142 0.0
H862 H 0.64079 0.22479 0.03342 0.0
H863 H 0.59942 0.24777 0.06376 0.0
Mn864 Mn 0.49496 0.7916 0.84921 0.0
Mn865 Mn 0.53314 0.73956 0.87228 0.0
C866 C 0.4857 0.72555 0.83963 0.0
C867 C 0.43512 0.79923 0.8461 0.0
C868 C 0.58763 0.82315 0.85302 0.0
O869 O 0.50748 0.81976 0.87297 0.0
O870 O 0.51453 0.76977 0.88812 0.0
C871 C 0.45702 0.67427 0.89127 0.0
N872 N 0.48919 0.68411 0.87982 0.0
C873 C 0.46785 0.60938 0.87656 0.0
C874 C 0.43488 0.59853 0.88852 0.0
C875 C 0.42928 0.63113 0.89582 0.0
C876 C 0.49476 0.65298 0.87266 0.0
H877 H 0.45238 0.69919 0.89671 0.0
C878 C 0.51012 0.80295 0.88708 0.0
O879 O 0.47202 0.82932 0.84031 0.0
O880 O 0.43402 0.76636 0.85326 0.0
N881 N 0.55065 0.70851 0.85742 0.0
C882 C 0.58098 0.72376 0.84484 0.0
C883 C 0.58858 0.69509 0.83534 0.0
C884 C 0.56485 0.65084 0.83885 0.0
C885 C 0.53327 0.63568 0.85167 0.0
C886 C 0.52705 0.66586 0.86067 0.0
H887 H 0.59891 0.7574 0.84192 0.0
O888 O 0.48118 0.75076 0.82894 0.0
O889 O 0.49732 0.74181 0.8547 0.0
O890 O 0.55845 0.82383 0.8439 0.0
O891 O 0.58003 0.79562 0.8649 0.0
C892 C 0.50695 0.59168 0.85554 0.0
C893 C 0.47439 0.57855 0.86804 0.0
H894 H 0.41322 0.56526 0.89195 0.0
H895 H 0.40345 0.623 0.90484 0.0
H896 H 0.61256 0.70708 0.82528 0.0
H897 H 0.5706 0.62874 0.83142 0.0
H898 H 0.51108 0.56762 0.84881 0.0
H899 H 0.45403 0.5446 0.87076 0.0
Mn900 Mn 0.19311 0.69608 0.84824 0.0
Mn901 Mn 0.23216 0.78752 0.87083 0.0
C902 C 0.25985 0.7555 0.8416 0.0
C903 C 0.19291 0.63242 0.84492 0.0
C904 C 0.15759 0.75422 0.84565 0.0
O905 O 0.15685 0.67738 0.8703 0.0
O906 O 0.19346 0.73869 0.88569 0.0
C907 C 0.28584 0.7744 0.89618 0.0
N908 N 0.2822 0.79865 0.88357 0.0
C909 C 0.3584 0.84865 0.88411 0.0
C910 C 0.36286 0.82438 0.89719 0.0
C911 C 0.32656 0.78674 0.90301 0.0
C912 C 0.31713 0.83453 0.87758 0.0
H913 H 0.25811 0.74506 0.90054 0.0
C914 C 0.1644 0.69892 0.88429 0.0
O915 O 0.16273 0.63694 0.83775 0.0
O916 O 0.21974 0.6631 0.85477 0.0
N917 N 0.27075 0.83639 0.85726 0.0
C918 C 0.26213 0.85252 0.84296 0.0
C919 C 0.29551 0.88823 0.83457 0.0
C920 C 0.3376 0.90694 0.84094 0.0
C921 C 0.34583 0.88972 0.85565 0.0
C922 C 0.31107 0.85444 0.86361 0.0
H923 H 0.23013 0.83796 0.83794 0.0
O924 O 0.23928 0.72601 0.83015 0.0
O925 O 0.23931 0.7494 0.85582 0.0
O926 O 0.15976 0.72304 0.83908 0.0
O927 O 0.18196 0.77831 0.8577 0.0
C928 C 0.38738 0.90532 0.86238 0.0
C929 C 0.39367 0.88476 0.87659 0.0
H930 H 0.39421 0.8334 0.90239 0.0
H931 H 0.33033 0.76672 0.91237 0.0
H932 H 0.28886 0.90103 0.82313 0.0
H933 H 0.36343 0.93408 0.83429 0.0
H934 H 0.41486 0.93246 0.85647 0.0
H935 H 0.42593 0.89626 0.88134 0.0
Mn936 Mn 0.28824 0.48588 0.84813 0.0
Mn937 Mn 0.19908 0.45248 0.87128 0.0
C938 C 0.23317 0.49742 0.83811 0.0
C939 C 0.35531 0.54755 0.84503 0.0
C940 C 0.22272 0.39409 0.85161 0.0
O941 O 0.30371 0.47276 0.87169 0.0
O942 O 0.24773 0.4676 0.88675 0.0
C943 C 0.22258 0.53541 0.88802 0.0
N944 N 0.19457 0.50104 0.87837 0.0
C945 C 0.14816 0.53072 0.87463 0.0
C946 C 0.17586 0.56585 0.88493 0.0
C947 C 0.21351 0.56845 0.89149 0.0
C948 C 0.159 0.49892 0.87155 0.0
H949 H 0.25158 0.53755 0.89301 0.0
C950 C 0.28427 0.46998 0.88574 0.0
O951 O 0.34986 0.5113 0.83903 0.0
O952 O 0.32326 0.54599 0.85275 0.0
N953 N 0.14948 0.43765 0.85745 0.0
C954 C 0.12776 0.40343 0.84676 0.0
C955 C 0.09037 0.39714 0.83849 0.0
C956 C 0.07534 0.42587 0.84145 0.0
C957 C 0.09794 0.46066 0.85265 0.0
C958 C 0.13492 0.46513 0.86059 0.0
H959 H 0.13856 0.38087 0.84474 0.0
O960 O 0.26253 0.5004 0.82766 0.0
O961 O 0.23689 0.4854 0.85323 0.0
O962 O 0.25477 0.42237 0.84295 0.0
O963 O 0.2031 0.40254 0.86342 0.0
C964 C 0.08576 0.49163 0.85594 0.0
C965 C 0.11108 0.52682 0.86679 0.0
H966 H 0.16898 0.5914 0.88759 0.0
H967 H 0.2354 0.59576 0.89922 0.0
H968 H 0.0731 0.3701 0.82991 0.0
H969 H 0.04663 0.42111 0.83497 0.0
H970 H 0.05757 0.48926 0.84986 0.0
H971 H 0.10234 0.55127 0.86865 0.0
Mn972 Mn 0.45791 0.83285 0.98878 0.0
Mn973 Mn 0.40143 0.86585 0.96662 0.0
C974 C 0.38839 0.81352 0.99862 0.0
C975 C 0.47107 0.77614 0.99015 0.0
C976 C 0.48198 0.92309 0.98704 0.0
O977 O 0.48805 0.85233 0.96547 0.0
O978 O 0.43233 0.84847 0.95068 0.0
C979 C 0.33719 0.78597 0.94936 0.0
N980 N 0.34684 0.82133 0.95894 0.0
C981 C 0.27302 0.80383 0.95933 0.0
C982 C 0.26248 0.768 0.94899 0.0
C983 C 0.29441 0.75833 0.94439 0.0
C984 C 0.31597 0.82968 0.96418 0.0
H985 H 0.36199 0.77902 0.94561 0.0
C986 C 0.46878 0.85045 0.95143 0.0
O987 O 0.49843 0.81252 0.99728 0.0
O988 O 0.43917 0.77483 0.98221 0.0
N989 N 0.36944 0.88303 0.98101 0.0
C990 C 0.38297 0.91222 0.99403 0.0
C991 C 0.35405 0.92249 0.00176 0.0
C992 C 0.31128 0.90243 0.99611 0.0
C993 C 0.29761 0.87144 0.98308 0.0
C994 C 0.32803 0.86269 0.9758 0.0
H995 H 0.41524 0.92723 0.99868 0.0
O996 O 0.41586 0.81123 0.00871 0.0
O997 O 0.40412 0.82873 0.9837 0.0
O998 O 0.4834 0.89459 0.99633 0.0
O999 O 0.45696 0.91402 0.97412 0.0
C1000 C 0.25458 0.84747 0.97758 0.0
C1001 C 0.24228 0.81367 0.96569 0.0
H1002 H 0.22979 0.74701 0.94494 0.0
H1003 H 0.28605 0.72982 0.93691 0.0
H1004 H 0.3647 0.94569 0.01211 0.0
H1005 H 0.28893 0.91015 0.00222 0.0
H1006 H 0.23043 0.85378 0.98285 0.0
H1007 H 0.20884 0.79445 0.96201 0.0
Mn1008 Mn 0.15299 0.61527 0.98304 0.0
Mn1009 Mn 0.09202 0.52124 0.96296 0.0
C1010 C 0.16314 0.55746 0.98853 0.0
C1011 C 0.2157 0.68046 0.98504 0.0
C1012 C 0.06048 0.56049 0.98961 0.0
O1013 O 0.1289 0.63049 0.96215 0.0
O1014 O 0.10054 0.5682 0.94699 0.0
C1015 C 0.13288 0.5129 0.93166 0.0
N1016 N 0.12144 0.50193 0.94834 0.0
C1017 C 0.13833 0.44503 0.94668 0.0
C1018 C 0.15192 0.45691 0.92973 0.0
C1019 C 0.14783 0.49003 0.92209 0.0
C1020 C 0.12178 0.46764 0.95539 0.0
H1021 H 0.12927 0.53794 0.92557 0.0
C1022 C 0.11261 0.60842 0.94841 0.0
O1023 O 0.18141 0.67441 0.99299 0.0
O1024 O 0.21184 0.65072 0.97455 0.0
N1025 N 0.08476 0.4758 0.97809 0.0
C1026 C 0.06612 0.46528 0.99388 0.0
C1027 C 0.06526 0.4313 0.00312 0.0
C1028 C 0.08354 0.40829 0.99601 0.0
C1029 C 0.10265 0.41968 0.97975 0.0
C1030 C 0.103 0.45427 0.97126 0.0
H1031 H 0.05238 0.48287 0.99945 0.0
O1032 O 0.17424 0.58784 0.99981 0.0
O1033 O 0.14475 0.56127 0.97486 0.0
O1034 O 0.09608 0.58964 0.99535 0.0
O1035 O 0.05699 0.53582 0.97727 0.0
C1036 C 0.12113 0.39788 0.97158 0.0
C1037 C 0.13858 0.41028 0.95497 0.0
H1038 H 0.16379 0.43966 0.92223 0.0
H1039 H 0.15479 0.49685 0.90872 0.0
H1040 H 0.05053 0.42288 0.01569 0.0
H1041 H 0.08265 0.38192 0.00312 0.0
H1042 H 0.12132 0.37101 0.97781 0.0
H1043 H 0.15151 0.39246 0.94858 0.0
Mn1044 Mn 0.36871 0.53239 0.98751 0.0
Mn1045 Mn 0.45911 0.57976 0.96416 0.0
C1046 C 0.42564 0.59986 0.9956 0.0
C1047 C 0.29997 0.52247 0.98935 0.0
C1048 C 0.42858 0.49892 0.98549 0.0
O1049 O 0.35305 0.50073 0.96446 0.0
O1050 O 0.40999 0.54838 0.94861 0.0
C1051 C 0.45208 0.64323 0.94216 0.0
N1052 N 0.47268 0.6344 0.95481 0.0
C1053 C 0.52727 0.70908 0.95689 0.0
C1054 C 0.50633 0.71897 0.94402 0.0
C1055 C 0.46836 0.68593 0.93675 0.0
C1056 C 0.50937 0.66594 0.96186 0.0
H1057 H 0.4231 0.61796 0.93646 0.0
C1058 C 0.37207 0.51591 0.95013 0.0
O1059 O 0.30841 0.49469 0.99641 0.0
O1060 O 0.33137 0.55576 0.98211 0.0
N1061 N 0.50769 0.61184 0.97889 0.0
C1062 C 0.52235 0.59754 0.99202 0.0
C1063 C 0.55867 0.62697 0.00135 0.0
C1064 C 0.57971 0.67085 0.99708 0.0
C1065 C 0.56404 0.68491 0.98358 0.0
C1066 C 0.52758 0.65408 0.97476 0.0
H1067 H 0.50647 0.56405 0.99544 0.0
O1068 O 0.39595 0.57665 0.0067 0.0
O1069 O 0.4209 0.58132 0.98101 0.0
O1070 O 0.40011 0.50098 0.99453 0.0
O1071 O 0.44853 0.52449 0.97309 0.0
C1072 C 0.58278 0.72843 0.9787 0.0
C1073 C 0.5645 0.74048 0.96532 0.0
H1074 H 0.51862 0.75189 0.93987 0.0
H1075 H 0.4514 0.69347 0.92718 0.0
H1076 H 0.57038 0.61585 0.01183 0.0
H1077 H 0.60767 0.69349 0.00435 0.0
H1078 H 0.61105 0.75296 0.98526 0.0
H1079 H 0.57897 0.77409 0.9618 0.0
Mn1080 Mn 0.13433 0.51299 0.49629 0.0
Mn1081 Mn 0.21303 0.56949 0.47368 0.0
C1082 C 0.15952 0.5928 0.49864 0.0
C1083 C 0.06154 0.48603 0.49626 0.0
C1084 C 0.21134 0.49882 0.49458 0.0
O1085 O 0.12937 0.47715 0.4742 0.0
O1086 O 0.15985 0.53806 0.45978 0.0
C1087 C 0.19027 0.62534 0.45189 0.0
N1088 N 0.21988 0.6261 0.46301 0.0
C1089 C 0.27596 0.69326 0.44632 0.0
C1090 C 0.24272 0.69002 0.43638 0.0
C1091 C 0.20072 0.65745 0.43956 0.0
C1092 C 0.26238 0.65913 0.46208 0.0
H1093 H 0.15724 0.59979 0.45251 0.0
C1094 C 0.13751 0.49723 0.45985 0.0
O1095 O 0.07776 0.46773 0.50567 0.0
O1096 O 0.08675 0.51626 0.48626 0.0
N1097 N 0.27209 0.59332 0.48756 0.0
C1098 C 0.26332 0.58048 0.50449 0.0
C1099 C 0.28737 0.61852 0.50943 0.0
C1100 C 0.32059 0.66616 0.48398 0.0
C1101 C 0.35963 0.71277 0.48225 0.0
C1102 C 0.30731 0.6545 0.47907 0.0
H1103 H 0.23325 0.5654 0.51096 0.0
O1104 O 0.13949 0.56697 0.51124 0.0
O1105 O 0.17357 0.5715 0.48964 0.0
O1106 O 0.18464 0.49951 0.50591 0.0
O1107 O 0.20846 0.51223 0.47981 0.0
C1108 C 0.37533 0.75325 0.46543 0.0
C1109 C 0.32358 0.73579 0.44483 0.0
H1110 H 0.24889 0.71405 0.42669 0.0
H1111 H 0.17498 0.65681 0.43219 0.0
H1112 H 0.29336 0.62395 0.52326 0.0
H1113 H 0.35759 0.70942 0.48545 0.0
H1114 H 0.40676 0.77885 0.46485 0.0
H1115 H 0.32745 0.75736 0.4342 0.0
Mn1116 Mn 0.48315 0.62301 0.48748 0.0
Mn1117 Mn 0.42908 0.63549 0.45876 0.0
C1118 C 0.40462 0.57788 0.49464 0.0
C1119 C 0.5102 0.57861 0.49074 0.0
C1120 C 0.49143 0.70824 0.48373 0.0
O1121 O 0.52025 0.65036 0.46395 0.0
O1122 O 0.461 0.60816 0.4512 0.0
C1123 C 0.3619 0.53702 0.43733 0.0
N1124 N 0.36639 0.57609 0.44059 0.0
C1125 C 0.28889 0.54835 0.43466 0.0
C1126 C 0.28738 0.51001 0.42951 0.0
C1127 C 0.3228 0.50403 0.43125 0.0
C1128 C 0.32824 0.58339 0.43947 0.0
H1129 H 0.38842 0.5315 0.43959 0.0
C1130 C 0.50071 0.63152 0.44996 0.0
O1131 O 0.52948 0.61617 0.49816 0.0
O1132 O 0.47879 0.56955 0.48057 0.0
N1133 N 0.38906 0.67386 0.46538 0.0
C1134 C 0.4003 0.68312 0.48797 0.0
C1135 C 0.35803 0.679 0.50746 0.0
C1136 C 0.25186 0.63698 0.49178 0.0
C1137 C 0.27131 0.60237 0.4606 0.0
C1138 C 0.32824 0.62364 0.44938 0.0
H1139 H 0.42113 0.67376 0.49367 0.0
O1140 O 0.43385 0.58536 0.50591 0.0
O1141 O 0.42467 0.60415 0.48163 0.0
O1142 O 0.49255 0.6833 0.49536 0.0
O1143 O 0.48072 0.69232 0.46837 0.0
C1144 C 0.24031 0.56983 0.44888 0.0
C1145 C 0.25023 0.54842 0.43636 0.0
H1146 H 0.25736 0.48275 0.42531 0.0
H1147 H 0.31951 0.47314 0.42818 0.0
H1148 H 0.36673 0.68197 0.52099 0.0
H1149 H 0.22977 0.62661 0.50164 0.0
H1150 H 0.26064 0.59225 0.45742 0.0
H1151 H 0.22323 0.52536 0.42913 0.0
Mn1152 Mn 0.37276 0.85727 0.48625 0.0
Mn1153 Mn 0.34938 0.78576 0.45804 0.0
C1154 C 0.41195 0.81894 0.49149 0.0
C1155 C 0.42622 0.92865 0.48799 0.0
C1156 C 0.28216 0.78305 0.48437 0.0
O1157 O 0.34607 0.86896 0.46371 0.0
O1158 O 0.37461 0.84125 0.44625 0.0
C1159 C 0.43708 0.78643 0.43589 0.0
N1160 N 0.39292 0.75969 0.4382 0.0
C1161 C 0.40274 0.69096 0.43584 0.0
C1162 C 0.44445 0.72211 0.43073 0.0
C1163 C 0.46137 0.76663 0.43265 0.0
C1164 C 0.37517 0.71001 0.441 0.0
H1165 H 0.40479 0.77853 0.43674 0.0
C1166 C 0.35722 0.86424 0.44842 0.0
O1167 O 0.39153 0.91507 0.49713 0.0
O1168 O 0.42778 0.90233 0.47761 0.0
N1169 N 0.3101 0.71999 0.47161 0.0
C1170 C 0.29977 0.71998 0.49157 0.0
C1171 C 0.30488 0.68735 0.50772 0.0
C1172 C 0.33895 0.62049 0.49503 0.0
C1173 C 0.3412 0.61763 0.47568 0.0
C1174 C 0.33787 0.68576 0.45608 0.0
H1175 H 0.30174 0.70431 0.50119 0.0
O1176 O 0.40775 0.84078 0.50368 0.0
O1177 O 0.38821 0.818 0.47845 0.0
O1178 O 0.31065 0.8083 0.49539 0.0
O1179 O 0.29616 0.78801 0.46856 0.0
C1180 C 0.37107 0.60776 0.46542 0.0
C1181 C 0.39974 0.64797 0.44213 0.0
H1182 H 0.4678 0.71234 0.42794 0.0
H1183 H 0.4956 0.7875 0.43091 0.0
H1184 H 0.30119 0.68905 0.52304 0.0
H1185 H 0.35303 0.60844 0.50397 0.0
H1186 H 0.3677 0.57773 0.46784 0.0
H1187 H 0.42309 0.64317 0.43527 0.0
Mn1188 Mn 0.18941 0.47885 0.35415 0.0
Mn1189 Mn 0.25028 0.56194 0.37853 0.0
C1190 C 0.26097 0.51483 0.34421 0.0
C1191 C 0.16591 0.40677 0.35329 0.0
C1192 C 0.17441 0.55284 0.35546 0.0
O1193 O 0.16112 0.47391 0.37785 0.0
O1194 O 0.22242 0.50854 0.39285 0.0
C1195 C 0.34996 0.56974 0.399 0.0
N1196 N 0.33326 0.59317 0.39296 0.0
C1197 C 0.41001 0.6634 0.39462 0.0
C1198 C 0.41837 0.63597 0.40456 0.0
C1199 C 0.39237 0.59087 0.40469 0.0
C1200 C 0.36482 0.64075 0.3883 0.0
H1201 H 0.33092 0.53507 0.39897 0.0
C1202 C 0.18149 0.48247 0.39216 0.0
O1203 O 0.14276 0.42149 0.34641 0.0
O1204 O 0.19989 0.43313 0.36157 0.0
N1205 N 0.27172 0.62725 0.36319 0.0
C1206 C 0.25709 0.6202 0.34095 0.0
C1207 C 0.2974 0.65648 0.32038 0.0
C1208 C 0.40157 0.73473 0.33353 0.0
C1209 C 0.41815 0.72599 0.35939 0.0
C1210 C 0.35196 0.66489 0.3746 0.0
H1211 H 0.23511 0.58869 0.33646 0.0
O1212 O 0.23024 0.48934 0.33409 0.0
O1213 O 0.24652 0.52276 0.35851 0.0
O1214 O 0.17217 0.52346 0.34538 0.0
O1215 O 0.191 0.55539 0.37069 0.0
C1216 C 0.45833 0.73689 0.37315 0.0
C1217 C 0.45063 0.7065 0.3889 0.0
H1218 H 0.44912 0.64916 0.41052 0.0
H1219 H 0.40564 0.57204 0.4097 0.0
H1220 H 0.28767 0.64779 0.30706 0.0
H1221 H 0.4236 0.74778 0.32285 0.0
H1222 H 0.49159 0.76043 0.37149 0.0
H1223 H 0.4794 0.71614 0.39628 0.0
Mn1224 Mn 0.51597 0.70612 0.34311 0.0
Mn1225 Mn 0.41746 0.67526 0.36701 0.0
C1226 C 0.48783 0.75491 0.33867 0.0
C1227 C 0.58819 0.7541 0.34401 0.0
C1228 C 0.43437 0.61627 0.34323 0.0
O1229 O 0.5221 0.67938 0.36565 0.0
O1230 O 0.45383 0.64494 0.37441 0.0
C1231 C 0.42344 0.76234 0.39771 0.0
N1232 N 0.39878 0.73042 0.38576 0.0
C1233 C 0.35493 0.76246 0.38417 0.0
C1234 C 0.37686 0.79081 0.39724 0.0
C1235 C 0.41472 0.79473 0.40203 0.0
C1236 C 0.37563 0.74097 0.37431 0.0
H1237 H 0.45481 0.76901 0.40151 0.0
C1238 C 0.49439 0.65838 0.37714 0.0
O1239 O 0.57389 0.71865 0.33525 0.0
O1240 O 0.56136 0.75919 0.35298 0.0
N1241 N 0.38491 0.66995 0.34508 0.0
C1242 C 0.39794 0.66527 0.32874 0.0
C1243 C 0.37122 0.67413 0.32029 0.0
C1244 C 0.33515 0.6897 0.34388 0.0
C1245 C 0.29356 0.69241 0.34381 0.0
C1246 C 0.35068 0.69668 0.3506 0.0
H1247 H 0.42478 0.66467 0.32353 0.0
O1248 O 0.51113 0.75182 0.32684 0.0
O1249 O 0.47157 0.71745 0.34759 0.0
O1250 O 0.46786 0.64317 0.33411 0.0
O1251 O 0.42443 0.62739 0.35745 0.0
C1252 C 0.27009 0.71528 0.35845 0.0
C1253 C 0.31159 0.754 0.37997 0.0
H1254 H 0.36621 0.81152 0.40279 0.0
H1255 H 0.43706 0.82284 0.40923 0.0
H1256 H 0.36677 0.67085 0.30638 0.0
H1257 H 0.29666 0.69011 0.34138 0.0
H1258 H 0.23747 0.697 0.35908 0.0
H1259 H 0.30084 0.7683 0.3897 0.0
Mn1260 Mn 0.28847 0.8043 0.34661 0.0
Mn1261 Mn 0.28447 0.77207 0.3648 0.0
C1262 C 0.22045 0.72913 0.33727 0.0
C1263 C 0.23222 0.82096 0.34145 0.0
C1264 C 0.37842 0.83741 0.35135 0.0
O1265 O 0.30842 0.85234 0.36651 0.0
O1266 O 0.26344 0.79973 0.38118 0.0
C1267 C 0.20972 0.67999 0.39402 0.0
N1268 N 0.24796 0.70032 0.38587 0.0
C1269 C 0.2625 0.63883 0.39335 0.0
C1270 C 0.2232 0.62089 0.40237 0.0
C1271 C 0.19649 0.63956 0.40169 0.0
C1272 C 0.27318 0.67727 0.38495 0.0
H1273 H 0.18875 0.69346 0.39388 0.0
C1274 C 0.28904 0.83935 0.38081 0.0
O1275 O 0.26632 0.8371 0.33236 0.0
O1276 O 0.22926 0.79411 0.35279 0.0
N1277 N 0.33702 0.75171 0.35498 0.0
C1278 C 0.34798 0.75939 0.33391 0.0
C1279 C 0.34436 0.7204 0.31899 0.0
C1280 C 0.32119 0.62468 0.33518 0.0
C1281 C 0.32002 0.6221 0.35384 0.0
C1282 C 0.30833 0.69001 0.37108 0.0
H1283 H 0.3438 0.7816 0.32636 0.0
O1284 O 0.25638 0.74959 0.32877 0.0
O1285 O 0.22658 0.7505 0.35153 0.0
O1286 O 0.35505 0.83855 0.33911 0.0
O1287 O 0.35522 0.82025 0.36508 0.0
C1288 C 0.30492 0.59258 0.36817 0.0
C1289 C 0.28524 0.61383 0.38965 0.0
H1290 H 0.21067 0.58985 0.40855 0.0
H1291 H 0.16464 0.622 0.40713 0.0
H1292 H 0.34627 0.72725 0.30527 0.0
H1293 H 0.31181 0.59706 0.32727 0.0
H1294 H 0.31093 0.56648 0.36768 0.0
H1295 H 0.27431 0.59217 0.40083 0.0
C1296 C 0.05152 0.16162 0.16869 0.0
C1297 C 0.06297 0.1298 0.17097 0.0
C1298 C 0.00789 0.14977 0.16663 0.0
C1299 C 0.9753 0.10635 0.1675 0.0
H1300 H 0.07572 0.19534 0.16948 0.0
H1301 H -0.00048 0.17449 0.16497 0.0
S1302 S 0.99088 0.01175 0.16645 0.0
N1303 N 0.03962 0.05361 0.16849 0.0
N1304 N 0.95869 0.03199 0.16569 0.0
C1305 C 0.98737 0.07481 0.16702 0.0
C1306 C 0.03109 0.08651 0.16863 0.0
C1307 C 0.8393 0.89993 0.16645 0.0
C1308 C 0.85346 0.92782 0.1807 0.0
C1309 C 0.85184 0.86869 0.16444 0.0
C1310 C 0.87908 0.86536 0.17653 0.0
H1311 H 0.82109 0.90417 0.15633 0.0
H1312 H 0.84165 0.84834 0.15316 0.0
S1313 S 0.92487 0.9315 0.21586 0.0
N1314 N 0.89299 0.94743 0.20766 0.0
N1315 N 0.92089 0.89376 0.20272 0.0
C1316 C 0.89239 0.89257 0.19092 0.0
C1317 C 0.878 0.9222 0.19339 0.0
C1318 C 0.12238 0.98826 0.16597 0.0
C1319 C 0.12264 0.01975 0.17676 0.0
C1320 C 0.09033 0.94453 0.16777 0.0
C1321 C 0.05796 0.93168 0.18036 0.0
H1322 H 0.14682 -0.00258 0.15619 0.0
H1323 H 0.09016 0.92107 0.15901 0.0
S1324 S 0.04489 0.003 0.21151 0.0
N1325 N 0.08748 0.03514 0.20006 0.0
N1326 N 0.02959 0.95465 0.204 0.0
C1327 C 0.05901 0.96329 0.19136 0.0
C1328 C 0.09058 0.00697 0.18933 0.0
C1329 C 0.09412 0.03191 0.31302 0.0
C1330 C 0.12428 0.06411 0.32388 0.0
C1331 C 0.08361 0.98944 0.31477 0.0
C1332 C 0.10326 0.97683 0.32719 0.0
H1333 H 0.07756 0.03914 0.30309 0.0
H1334 H 0.05966 0.96617 0.30614 0.0
S1335 S 0.185 0.04771 0.35877 0.0
N1336 N 0.1744 0.08052 0.3476 0.0
N1337 N 0.15431 -0.00094 0.35068 0.0
C1338 C 0.13376 0.00813 0.33818 0.0
C1339 C 0.14466 0.05224 0.33645 0.0
C1340 C 0.93569 0.09458 0.33603 0.0
C1341 C 0.92207 0.06651 0.32184 0.0
C1342 C 0.97943 0.12575 0.33809 0.0
C1343 C 0.00993 0.12905 0.326 0.0
H1344 H 0.9131 0.09084 0.346 0.0
H1345 H 0.98955 0.14644 0.34926 0.0
S1346 S 0.99025 0.06264 0.28692 0.0
N1347 N 0.9424 0.04648 0.29506 0.0
N1348 N 0.02377 0.1006 0.30001 0.0
C1349 C -0.00373 0.10148 0.31177 0.0
C1350 C 0.95239 0.07168 0.3093 0.0
C1351 C 0.86471 0.85576 0.33596 0.0
C1352 C 0.8641 0.88708 0.32531 0.0
C1353 C 0.89625 0.84377 0.33366 0.0
C1354 C 0.9276 0.86309 0.32071 0.0
H1355 H 0.84124 0.84102 0.34613 0.0
H1356 H 0.89723 0.82091 0.34245 0.0
S1357 S 0.93962 0.94762 0.28988 0.0
N1358 N 0.8981 0.93775 0.3019 0.0
N1359 N 0.95438 0.91371 0.29675 0.0
C1360 C 0.92575 0.8932 0.30969 0.0
C1361 C 0.89498 0.90591 0.31232 0.0
C1362 C 0.93955 0.81991 0.80895 0.0
C1363 C 0.91101 0.82237 0.82093 0.0
C1364 C 0.98442 0.83422 0.81265 0.0
C1365 C 0.00644 0.85726 0.8277 0.0
H1366 H 0.92699 0.80677 0.79642 0.0
H1367 H 0.00262 0.8278 0.80333 0.0
S1368 S 0.94367 0.85047 0.8669 0.0
N1369 N 0.90625 0.83033 0.85184 0.0
N1370 N 0.98967 0.86348 0.85738 0.0
C1371 C 0.97643 0.8509 0.84102 0.0
C1372 C 0.92975 0.83253 0.83786 0.0
C1373 C 0.13516 0.13523 0.81536 0.0
C1374 C 0.10903 0.13578 0.82906 0.0
C1375 C 0.15298 0.10704 0.81478 0.0
C1376 C 0.15194 0.08089 0.82877 0.0
H1377 H 0.13961 0.15499 0.80431 0.0
H1378 H 0.16647 0.10444 0.80277 0.0
S1379 S 0.11558 0.09355 0.8722 0.0
N1380 N 0.1018 0.12214 0.85984 0.0
N1381 N 0.13958 0.07488 0.85964 0.0
C1382 C 0.13825 0.09202 0.84429 0.0
C1383 C 0.11709 0.11856 0.8444 0.0
C1384 C 0.87838 0.99437 0.83919 0.0
C1385 C 0.85182 0.96764 0.82569 0.0
C1386 C 0.90121 0.04082 0.83815 0.0
C1387 C 0.90224 0.06339 0.82281 0.0
H1388 H 0.88407 0.97945 0.85018 0.0
H1389 H 0.9236 0.05849 0.84837 0.0
S1390 S 0.81629 0.01164 0.78998 0.0
N1391 N 0.81052 0.97044 0.80152 0.0
N1392 N 0.85842 0.05495 0.79789 0.0
C1393 C 0.86919 0.03748 0.81107 0.0
C1394 C 0.84297 0.99079 0.813 0.0
C1395 C 0.84054 -0.00162 0.68503 0.0
C1396 C 0.86498 0.02142 0.67036 0.0
C1397 C 0.82419 0.95271 0.68813 0.0
C1398 C 0.82595 0.92413 0.67589 0.0
H1399 H 0.83431 0.01635 0.69452 0.0
H1400 H 0.8101 0.93959 0.70049 0.0
S1401 S 0.86077 0.96095 0.6307 0.0
N1402 N 0.87398 0.00649 0.64073 0.0
N1403 N 0.83784 0.92216 0.64515 0.0
C1404 C 0.83904 0.9447 0.65932 0.0
C1405 C 0.85921 0.99205 0.65678 0.0
C1406 C 0.04028 0.90684 0.66181 0.0
C1407 C 0.06078 0.90523 0.67735 0.0
C1408 C -0.00588 0.88582 0.66009 0.0
C1409 C 0.96563 0.8588 0.67308 0.0
H1410 H 0.05954 0.92991 0.65202 0.0
H1411 H 0.98088 0.89323 0.64899 0.0
S1412 S 0.00307 0.81644 0.70869 0.0
N1413 N 0.04803 0.85819 0.70164 0.0
N1414 N 0.96385 0.81389 0.69676 0.0
C1415 C 0.98638 0.84733 0.68587 0.0
C1416 C 0.03286 0.87152 0.68848 0.0
C1417 C 0.11139 0.15852 0.68877 0.0
C1418 C 0.08773 0.16027 0.67438 0.0
C1419 C 0.13844 0.13933 0.68848 0.0
C1420 C 0.14005 0.11416 0.67459 0.0
H1421 H 0.10792 0.17124 0.70083 0.0
H1422 H 0.15655 0.14219 0.69987 0.0
S1423 S 0.1048 0.12749 0.63088 0.0
N1424 N 0.08589 0.15147 0.64333 0.0
N1425 N 0.13036 0.11073 0.64356 0.0
C1426 C 0.12538 0.12474 0.65908 0.0
C1427 C 0.10032 0.14757 0.65894 0.0
C1428 C 0.66679 0.46693 0.49676 0.0
C1429 C 0.63479 0.42798 0.50399 0.0
C1430 C 0.71087 0.48077 0.49932 0.0
C1431 C 0.72327 0.45603 0.50933 0.0
H1432 H 0.65784 0.48742 0.48985 0.0
H1433 H 0.735 0.51132 0.49403 0.0
S1434 S 0.64973 0.34785 0.52839 0.0
N1435 N 0.61849 0.36284 0.51907 0.0
N1436 N 0.69828 0.38807 0.52477 0.0
C1437 C 0.69066 0.41578 0.51553 0.0
C1438 C 0.64715 0.4019 0.51256 0.0
C1439 C 0.49527 0.22561 0.49914 0.0
C1440 C 0.50275 0.24961 0.51432 0.0
C1441 C 0.51171 0.19745 0.49723 0.0
C1442 C 0.53645 0.19348 0.51034 0.0
H1443 H 0.48002 0.2313 0.48826 0.0
H1444 H 0.50682 0.18035 0.48524 0.0
S1445 S 0.56622 0.25106 0.5521 0.0
N1446 N 0.53327 0.26459 0.54307 0.0
N1447 N 0.56985 0.21827 0.53832 0.0
C1448 C 0.54322 0.21683 0.52558 0.0
C1449 C 0.52418 0.24259 0.52797 0.0
C1450 C 0.72223 0.30098 0.52203 0.0
C1451 C 0.72135 0.26823 0.51198 0.0
C1452 C 0.75525 0.34312 0.52057 0.0
C1453 C 0.78899 0.35504 0.50897 0.0
H1454 H 0.69727 0.29428 0.53133 0.0
H1455 H 0.7547 0.36667 0.52897 0.0
S1456 S 0.80299 0.28244 0.47946 0.0
N1457 N 0.75795 0.25042 0.48987 0.0
N1458 N 0.82029 0.33151 0.48695 0.0
C1459 C 0.78903 0.32324 0.49859 0.0
C1460 C 0.75522 0.27934 0.50022 0.0
C1461 C 0.80254 0.38426 0.66434 0.0
C1462 C 0.79289 0.39968 0.64934 0.0
C1463 C 0.79142 0.34087 0.66573 0.0
C1464 C 0.77093 0.31226 0.65209 0.0
H1465 H 0.81578 0.40488 0.67546 0.0
H1466 H 0.79694 0.32922 0.67775 0.0
S1467 S 0.74195 0.33824 0.60971 0.0
N1468 N 0.76595 0.38439 0.6201 0.0
N1469 N 0.74244 0.3028 0.62302 0.0
C1470 C 0.76356 0.32816 0.63671 0.0
C1471 C 0.77545 0.37207 0.63523 0.0
C1472 C 0.59959 0.43166 0.66976 0.0
C1473 C 0.5797 0.40771 0.65488 0.0
C1474 C 0.64411 0.46138 0.66994 0.0
C1475 C 0.66951 0.46735 0.65531 0.0
H1476 H 0.58179 0.42432 0.68168 0.0
H1477 H 0.65919 0.47737 0.68185 0.0
S1478 S 0.63161 0.41206 0.61337 0.0
N1479 N 0.58763 0.39504 0.6249 0.0
N1480 N 0.67117 0.44579 0.62591 0.0
C1481 C 0.64923 0.44509 0.64023 0.0
C1482 C 0.60415 0.41697 0.63981 0.0
C1483 C 0.60049 0.24085 0.65177 0.0
C1484 C 0.59701 0.20371 0.65937 0.0
C1485 C 0.57103 0.25378 0.65508 0.0
C1486 C 0.53608 0.23005 0.66595 0.0
H1487 H 0.62587 0.26027 0.64277 0.0
H1488 H 0.57456 0.28158 0.64822 0.0
S1489 S 0.51608 0.13566 0.69201 0.0
N1490 N 0.55913 0.1468 0.68052 0.0
N1491 N 0.5021 0.17144 0.68646 0.0
C1492 C 0.53327 0.19473 0.67481 0.0
C1493 C 0.56409 0.18139 0.67153 0.0
C1494 C 0.65924 0.18123 0.14188 0.0
C1495 C 0.6824 0.19955 0.15768 0.0
C1496 C 0.61384 0.16722 0.13952 0.0
C1497 C 0.58545 0.16179 0.15333 0.0
H1498 H 0.67697 0.1817 0.13061 0.0
H1499 H 0.60133 0.16138 0.12659 0.0
S1500 S 0.62011 0.15692 0.19829 0.0
N1501 N 0.66588 0.17714 0.18756 0.0
N1502 N 0.58229 0.1487 0.18419 0.0
C1503 C 0.60524 0.16149 0.16942 0.0
C1504 C 0.65234 0.17724 0.17131 0.0
C1505 C 0.79766 0.42317 0.17851 0.0
C1506 C 0.82304 0.42463 0.16435 0.0
C1507 C 0.77715 0.44845 0.17898 0.0
C1508 C 0.77917 0.47409 0.1649 0.0
H1509 H 0.78941 0.39887 0.1883 0.0
H1510 H 0.75602 0.44439 0.18958 0.0
S1511 S 0.86293 0.51031 0.13114 0.0
N1512 N 0.86471 0.46997 0.14056 0.0
N1513 N 0.82486 0.51503 0.14105 0.0
C1514 C 0.81264 0.48382 0.15315 0.0
C1515 C 0.83456 0.45942 0.15296 0.0
C1516 C 0.50842 0.33995 0.15107 0.0
C1517 C 0.51065 0.3179 0.16603 0.0
C1518 C 0.54236 0.3821 0.14644 0.0
C1519 C 0.57565 0.40872 0.15795 0.0
H1520 H 0.48513 0.32156 0.14121 0.0
H1521 H 0.5435 0.39302 0.1334 0.0
S1522 S 0.57513 0.37915 0.20395 0.0
N1523 N 0.53814 0.33352 0.19516 0.0
N1524 N 0.5931 0.41569 0.1885 0.0
C1525 C 0.56827 0.39216 0.17513 0.0
C1526 C 0.53807 0.34656 0.17883 0.0
C1527 C 0.53565 0.31947 0.98811 0.0
C1528 C 0.53087 0.3466 0.99996 0.0
C1529 C 0.5194 0.27457 0.9917 0.0
C1530 C 0.50679 0.25745 0.00865 0.0
H1531 H 0.554 0.33318 0.97651 0.0
H1532 H 0.52368 0.25556 0.98197 0.0
S1533 S 0.45528 0.3016 0.03692 0.0
N1534 N 0.48239 0.34091 0.02302 0.0
N1535 N 0.46601 0.26302 0.03226 0.0
C1536 C 0.49182 0.28043 0.01839 0.0
C1537 C 0.50056 0.32312 0.0132 0.0
C1538 C 0.71147 0.20663 0.01589 0.0
C1539 C 0.73242 0.2358 0.00212 0.0
C1540 C 0.6661 0.18282 0.01723 0.0
C1541 C 0.6397 0.18445 0.00423 0.0
H1542 H 0.72968 0.20915 0.02736 0.0
H1543 H 0.6519 0.16681 0.02924 0.0
S1544 S 0.67843 0.22979 0.96076 0.0
N1545 N 0.72302 0.24798 0.97217 0.0
N1546 N 0.63835 0.19831 0.97368 0.0
C1547 C 0.6603 0.20029 0.98815 0.0
C1548 C 0.70675 0.22758 0.9873 0.0
C1549 C 0.81352 0.48318 0.02416 0.0
C1550 C 0.81462 0.46295 0.00819 0.0
C1551 C 0.7837 0.49891 0.02746 0.0
C1552 C 0.75728 0.5021 0.01441 0.0
H1553 H 0.83273 0.48374 0.03482 0.0
H1554 H 0.77908 0.50526 0.04062 0.0
S1555 S 0.77671 0.49035 0.96796 0.0
N1556 N 0.80461 0.4715 0.97781 0.0
N1557 N 0.75591 0.50655 0.98313 0.0
C1558 C 0.77164 0.49809 0.99752 0.0
C1559 C 0.79936 0.47873 0.99447 0.0
C1560 C 0.32208 0.76274 0.85675 0.0
C1561 C 0.30659 0.77499 0.84264 0.0
C1562 C 0.36516 0.77624 0.85849 0.0
C1563 C 0.39465 0.79992 0.84553 0.0
H1564 H 0.30042 0.74106 0.86642 0.0
H1565 H 0.37483 0.76513 0.86966 0.0
S1566 S 0.37076 0.84106 0.80583 0.0
N1567 N 0.32383 0.8142 0.81568 0.0
N1568 N 0.40612 0.83726 0.81822 0.0
C1569 C 0.38028 0.81369 0.83137 0.0
C1570 C 0.33571 0.80099 0.82992 0.0
C1571 C 0.23664 0.59901 0.84958 0.0
C1572 C 0.20081 0.59674 0.84141 0.0
C1573 C 0.24672 0.56709 0.84762 0.0
C1574 C 0.22192 0.53117 0.83732 0.0
H1575 H 0.25704 0.6252 0.85812 0.0
H1576 H 0.27333 0.57008 0.85506 0.0
S1577 S 0.12871 0.51202 0.81077 0.0
N1578 N 0.14256 0.55757 0.82096 0.0
N1579 N 0.16275 0.49649 0.81712 0.0
C1580 C 0.18754 0.52906 0.82803 0.0
C1581 C 0.17664 0.5621 0.83015 0.0
C1582 C 0.39336 0.6225 0.85376 0.0
C1583 C 0.39346 0.59075 0.84323 0.0
C1584 C 0.42203 0.66546 0.85138 0.0
C1585 C 0.45467 0.67944 0.83917 0.0
H1586 H 0.37002 0.61456 0.86393 0.0
H1587 H 0.41921 0.68803 0.85974 0.0
S1588 S 0.47086 0.61091 0.80812 0.0
N1589 N 0.42855 0.57647 0.81948 0.0
N1590 N 0.48617 0.65934 0.81593 0.0
C1591 C 0.45638 0.64888 0.82846 0.0
C1592 C 0.42534 0.60398 0.83047 0.0
C1593 C 0.43035 0.66167 0.98121 0.0
C1594 C 0.44334 0.64652 0.99518 0.0
C1595 C 0.4458 0.7049 0.97879 0.0
C1596 C 0.47113 0.73528 0.99124 0.0
H1597 H 0.4076 0.63971 0.97187 0.0
H1598 H 0.43468 0.71405 0.96747 0.0
S1599 S 0.51186 0.7121 0.03123 0.0
N1600 N 0.48383 0.6646 0.02184 0.0
N1601 N 0.50869 0.74739 0.01852 0.0
C1602 C 0.48432 0.72104 0.00564 0.0
C1603 C 0.47052 0.67615 0.00754 0.0
C1604 C 0.26701 0.75439 0.99664 0.0
C1605 C 0.25879 0.71413 0.99044 0.0
C1606 C 0.30909 0.78638 0.00105 0.0
C1607 C 0.3434 0.77852 0.99948 0.0
H1608 H 0.2413 0.76171 0.99745 0.0
H1609 H 0.31502 0.81759 0.0052 0.0
S1610 S 0.33536 0.67341 0.99001 0.0
N1611 N 0.28652 0.6652 0.9869 0.0
N1612 N 0.36407 0.72408 0.99606 0.0
C1613 C 0.33415 0.73654 0.99566 0.0
C1614 C 0.29217 0.70467 0.99078 0.0
C1615 C 0.19748 0.51926 0.00248 0.0
C1616 C 0.18893 0.53606 0.98761 0.0
C1617 C 0.23107 0.50979 0.00276 0.0
C1618 C 0.2567 0.51703 0.98814 0.0
H1619 H 0.18013 0.51627 0.01424 0.0
H1620 H 0.23925 0.50044 0.01477 0.0
S1621 S 0.24613 0.55798 0.94588 0.0
N1622 N 0.20913 0.55902 0.95802 0.0
N1623 N 0.2685 0.53709 0.95807 0.0
C1624 C 0.24581 0.52997 0.97287 0.0
C1625 C 0.21299 0.54084 0.97273 0.0
C1626 C 0.28009 0.49856 0.48363 0.0
C1627 C 0.25627 0.50042 0.49793 0.0
C1628 C 0.32592 0.51565 0.48372 0.0
C1629 C 0.35374 0.54248 0.49711 0.0
H1630 H 0.26329 0.48529 0.47166 0.0
H1631 H 0.33999 0.51095 0.47226 0.0
S1632 S 0.30864 0.53907 0.5407 0.0
N1633 N 0.26498 0.51463 0.52865 0.0
N1634 N 0.34997 0.55172 0.5279 0.0
C1635 C 0.32981 0.53559 0.51272 0.0
C1636 C 0.28221 0.51494 0.51314 0.0
C1637 C 0.49048 0.77858 0.47587 0.0
C1638 C 0.48801 0.74917 0.48857 0.0
C1639 C 0.47276 0.80624 0.47821 0.0
C1640 C 0.44483 0.80147 0.49216 0.0
H1641 H 0.5051 0.77928 0.46368 0.0
H1642 H 0.47629 0.82777 0.4678 0.0
S1643 S 0.44773 0.74848 0.53283 0.0
N1644 N 0.4733 0.73404 0.51913 0.0
N1645 N 0.43286 0.77841 0.52193 0.0
C1646 C 0.44945 0.77897 0.50625 0.0
C1647 C 0.47204 0.75449 0.50468 0.0
C1648 C 0.23178 0.72104 0.50711 0.0
C1649 C 0.23756 0.74041 0.49036 0.0
C1650 C 0.20361 0.67519 0.51047 0.0
C1651 C 0.17661 0.64463 0.49769 0.0
H1652 H 0.25407 0.73995 0.51716 0.0
H1653 H 0.20677 0.66292 0.52275 0.0
S1654 S 0.14555 0.68748 0.46006 0.0
N1655 N 0.19228 0.72917 0.4657 0.0
N1656 N 0.13715 0.64738 0.47298 0.0
C1657 C 0.17246 0.66667 0.48316 0.0
C1658 C 0.20292 0.71277 0.47928 0.0
C1659 C 0.16466 0.65802 0.35275 0.0
C1660 C 0.18785 0.6785 0.33729 0.0
C1661 C 0.15866 0.61721 0.35859 0.0
C1662 C 0.16679 0.58993 0.34805 0.0
H1663 H 0.15975 0.67741 0.3621 0.0
H1664 H 0.14876 0.60764 0.37171 0.0
S1665 S 0.1929 0.61319 0.30141 0.0
N1666 N 0.20134 0.65973 0.30907 0.0
N1667 N 0.17493 0.57878 0.31761 0.0
C1668 C 0.17446 0.60407 0.33045 0.0
C1669 C 0.1885 0.64878 0.32556 0.0
C1670 C 0.33261 0.52121 0.35333 0.0
C1671 C 0.30714 0.5253 0.34055 0.0
C1672 C 0.37789 0.54323 0.35197 0.0
C1673 C 0.39955 0.57161 0.33807 0.0
H1674 H 0.31798 0.50516 0.3653 0.0
H1675 H 0.39589 0.5445 0.36333 0.0
S1676 S 0.34633 0.56572 0.29657 0.0
N1677 N 0.30589 0.53663 0.30974 0.0
N1678 N 0.3908 0.58343 0.30801 0.0
C1679 C 0.37403 0.56497 0.3234 0.0
C1680 C 0.32766 0.5398 0.32443 0.0
C1681 C 0.43777 0.83264 0.33094 0.0
C1682 C 0.42266 0.83622 0.34768 0.0
C1683 C 0.46934 0.81862 0.32803 0.0
C1684 C 0.48168 0.79858 0.34135 0.0
H1685 H 0.42304 0.83782 0.31977 0.0
H1686 H 0.47541 0.81398 0.31481 0.0
S1687 S 0.50233 0.86058 0.38234 0.0
N1688 N 0.4588 0.85966 0.37491 0.0
N1689 N 0.51342 0.8323 0.36875 0.0
C1690 C 0.48113 0.81951 0.35713 0.0
C1691 C 0.45128 0.83624 0.36037 0.0
C1692 C 0.19634 0.21874 0.25941 0.0
C1693 C 0.16128 0.18998 0.26953 0.0
C1694 C 0.20317 0.206 0.24319 0.0
C1695 C 0.17473 0.16457 0.23683 0.0
H1696 H 0.21822 0.25094 0.26401 0.0
H1697 H 0.23097 0.2282 0.23573 0.0
S1698 S 0.07585 0.08024 0.25775 0.0
N1699 N 0.09696 0.11994 0.27177 0.0
N1700 N 0.10879 0.09677 0.24116 0.0
C1701 C 0.13905 0.13647 0.24667 0.0
C1702 C 0.13257 0.14903 0.2631 0.0
C1703 C 0.86033 0.03306 0.25081 0.0
C1704 C 0.83316 0.02123 0.23638 0.0
C1705 C 0.84526 0.01324 0.26669 0.0
C1706 C 0.80265 0.98016 0.26873 0.0
H1707 H 0.8941 0.05679 0.24972 0.0
H1708 H 0.86784 0.02217 0.2772 0.0
S1709 S 0.71688 0.93978 0.23583 0.0
N1710 N 0.76012 0.97673 0.22569 0.0
N1711 N 0.73234 0.938 0.25565 0.0
C1712 C 0.77454 0.96862 0.2547 0.0
C1713 C 0.78968 0.98945 0.23848 0.0
C1714 C 0.0351 0.85037 0.25035 0.0
C1715 C 0.01663 0.82677 0.26548 0.0
C1716 C 0.01287 0.839 0.23481 0.0
C1717 C 0.97125 0.80361 0.23376 0.0
H1718 H 0.06622 0.87933 0.25067 0.0
H1719 H 0.02725 0.8595 0.22374 0.0
S1720 S 0.9112 0.72592 0.26846 0.0
N1721 N 0.95621 0.76241 0.27772 0.0
N1722 N 0.91418 0.74132 0.24828 0.0
C1723 C 0.95326 0.77778 0.24835 0.0
C1724 C 0.97605 0.78923 0.26427 0.0
C1725 C 0.76465 0.80252 0.73437 0.0
C1726 C 0.78615 0.7799 0.73059 0.0
C1727 C 0.75709 0.80946 0.75149 0.0
C1728 C 0.77045 0.79381 0.76544 0.0
H1729 H 0.75879 0.81973 0.72428 0.0
H1730 H 0.74553 0.83166 0.75385 0.0
S1731 S 0.81817 0.72359 0.76201 0.0
N1732 N 0.81308 0.73499 0.7419 0.0
N1733 N 0.79855 0.74767 0.77399 0.0
C1734 C 0.78592 0.76576 0.76166 0.0
C1735 C 0.79395 0.759 0.74424 0.0
C1736 C 0.1487 0.9408 0.7574 0.0
C1737 C 0.17261 0.96963 0.77082 0.0
C1738 C 0.15914 0.95096 0.73982 0.0
C1739 C 0.19416 0.99067 0.7346 0.0
H1740 H 0.11941 0.91119 0.76045 0.0
H1741 H 0.13688 0.92938 0.73027 0.0
S1742 S 0.2707 0.07569 0.76428 0.0
N1743 N 0.23604 0.03797 0.77734 0.0
N1744 N 0.25525 0.05729 0.74459 0.0
C1745 C 0.22048 0.01815 0.7479 0.0
C1746 C 0.20999 0.00765 0.76585 0.0
C1747 C 0.99044 0.15806 0.74132 0.0
C1748 C 0.97539 0.17899 0.73119 0.0
C1749 C 0.01395 0.17609 0.75582 0.0
C1750 C 0.003 0.19904 0.76708 0.0
H1751 H 0.98447 0.12706 0.73816 0.0
H1752 H 0.03811 0.1678 0.75875 0.0
S1753 S 0.95208 0.26029 0.75034 0.0
N1754 N 0.9527 0.23284 0.73333 0.0
N1755 N 0.9726 0.24681 0.76668 0.0
C1756 C 0.98137 0.2185 0.75881 0.0
C1757 C 0.97033 0.21074 0.74034 0.0
C1758 C 0.83759 0.53836 0.56965 0.0
C1759 C 0.85757 0.51339 0.56923 0.0
C1760 C 0.82908 0.55174 0.58527 0.0
C1761 C 0.84024 0.54061 0.60105 0.0
H1762 H 0.82577 0.54513 0.55797 0.0
H1763 H 0.81095 0.56838 0.58493 0.0
S1764 S 0.90408 0.48598 0.60644 0.0
N1765 N 0.89652 0.48589 0.58556 0.0
N1766 N 0.88026 0.51068 0.61494 0.0
C1767 C 0.86506 0.5203 0.60063 0.0
C1768 C 0.8737 0.50669 0.5847 0.0
C1769 C 0.46984 0.30357 0.56957 0.0
C1770 C 0.48749 0.34825 0.56847 0.0
C1771 C 0.46128 0.28321 0.58553 0.0
C1772 C 0.4698 0.30681 0.6009 0.0
H1773 H 0.46551 0.28461 0.55815 0.0
H1774 H 0.44982 0.24898 0.58578 0.0
S1775 S 0.50739 0.42343 0.60445 0.0
N1776 N 0.50702 0.41468 0.58364 0.0
N1777 N 0.49061 0.37639 0.61378 0.0
C1778 C 0.48345 0.35093 0.59984 0.0
C1779 C 0.49245 0.37168 0.58357 0.0
C1780 C 0.63841 0.10278 0.57514 0.0
C1781 C 0.63227 0.13245 0.56557 0.0
C1782 C 0.6577 0.11402 0.59149 0.0
C1783 C 0.67036 0.15476 0.5985 0.0
H1784 H 0.62861 0.07121 0.56995 0.0
H1785 H 0.66364 0.09139 0.59845 0.0
S1786 S 0.65649 0.24101 0.57904 0.0
N1787 N 0.63737 0.20231 0.56458 0.0
N1788 N 0.67295 0.22319 0.59521 0.0
C1789 C 0.66284 0.18369 0.5892 0.0
C1790 C 0.64385 0.17253 0.57271 0.0
C1791 C 0.48966 0.11866 0.08534 0.0
C1792 C 0.48077 0.13644 0.07078 0.0
C1793 C 0.47264 0.11872 0.10182 0.0
C1794 C 0.44624 0.13698 0.10449 0.0
H1795 H 0.51261 0.10764 0.08428 0.0
H1796 H 0.48405 0.10864 0.11275 0.0
S1797 S 0.4061 0.17945 0.07003 0.0
N1798 N 0.43804 0.16623 0.05983 0.0
N1799 N 0.40663 0.16663 0.09036 0.0
C1800 C 0.43329 0.1501 0.08962 0.0
C1801 C 0.45039 0.14985 0.07293 0.0
C1802 C 0.86913 0.36667 0.07298 0.0
C1803 C 0.84718 0.32705 0.06388 0.0
C1804 C 0.87033 0.36898 0.09137 0.0
C1805 C 0.8503 0.33171 0.10186 0.0
H1806 H 0.88097 0.39647 0.0659 0.0
H1807 H 0.88283 0.40024 0.09731 0.0
S1808 S 0.8047 0.22034 0.08492 0.0
N1809 N 0.81672 0.24996 0.06732 0.0
N1810 N 0.81899 0.25409 0.10127 0.0
C1811 C 0.83564 0.29231 0.09291 0.0
C1812 C 0.83442 0.28999 0.07417 0.0
C1813 C 0.63472 0.51141 0.09556 0.0
C1814 C 0.67867 0.52563 0.09782 0.0
C1815 C 0.61729 0.50899 0.07911 0.0
C1816 C 0.6431 0.52134 0.06422 0.0
H1817 H 0.61296 0.49859 0.10637 0.0
H1818 H 0.58271 0.49385 0.07791 0.0
S1819 S 0.76168 0.56869 0.06376 0.0
N1820 N 0.74857 0.55771 0.0842 0.0
N1821 N 0.7164 0.55464 0.05344 0.0
C1822 C 0.68792 0.54041 0.06663 0.0
C1823 C 0.70552 0.54202 0.08338 0.0
C1824 C 0.45684 0.79868 0.92878 0.0
C1825 C 0.4831 0.8398 0.93566 0.0
C1826 C 0.46576 0.78773 0.91282 0.0
C1827 C 0.50103 0.81764 0.90316 0.0
H1828 H 0.42886 0.7749 0.93575 0.0
H1829 H 0.44458 0.75569 0.90792 0.0
S1830 S 0.5796 0.92969 0.91551 0.0
N1831 N 0.54578 0.91076 0.93186 0.0
N1832 N 0.56263 0.89002 0.90142 0.0
C1833 C 0.52765 0.85903 0.9098 0.0
C1834 C 0.51873 0.87013 0.92626 0.0
C1835 C 0.14508 0.67665 0.93183 0.0
C1836 C 0.11548 0.63237 0.93249 0.0
C1837 C 0.1586 0.69826 0.91619 0.0
C1838 C 0.14248 0.67668 0.90045 0.0
H1839 H 0.16022 0.69425 0.94343 0.0
H1840 H 0.18375 0.73171 0.91654 0.0
S1841 S 0.05239 0.56453 0.89571 0.0
N1842 N 0.06235 0.57014 0.91652 0.0
N1843 N 0.08708 0.6111 0.8869 0.0
C1844 C 0.10847 0.63379 0.90106 0.0
C1845 C 0.09502 0.61159 0.91712 0.0
C1846 C 0.32394 0.52115 0.90846 0.0
C1847 C 0.30829 0.47988 0.90168 0.0
C1848 C 0.34302 0.53156 0.92456 0.0
C1849 C 0.34723 0.5011 0.93434 0.0
H1850 H 0.32113 0.54551 0.90129 0.0
H1851 H 0.35452 0.56374 0.92941 0.0
S1852 S 0.30904 0.38774 0.92263 0.0
N1853 N 0.29597 0.40753 0.906 0.0
N1854 N 0.33295 0.42757 0.93659 0.0
C1855 C 0.33088 0.45931 0.92793 0.0
C1856 C 0.31123 0.4486 0.91141 0.0
C1857 C 0.15033 0.45175 0.43889 0.0
C1858 C 0.13061 0.47616 0.4428 0.0
C1859 C 0.16292 0.44954 0.42188 0.0
C1860 C 0.15644 0.47199 0.40842 0.0
H1861 H 0.16074 0.43878 0.44918 0.0
H1862 H 0.18148 0.43386 0.41958 0.0
S1863 S 0.09562 0.5299 0.41136 0.0
N1864 N 0.09722 0.51506 0.43128 0.0
N1865 N 0.1209 0.51121 0.39963 0.0
C1866 C 0.13129 0.49095 0.41185 0.0
C1867 C 0.11842 0.493 0.429 0.0
C1868 C 0.53317 0.68705 0.4059 0.0
C1869 C 0.50999 0.65168 0.39456 0.0
C1870 C 0.53557 0.68148 0.42397 0.0
C1871 C 0.51711 0.64017 0.4315 0.0
H1872 H 0.54564 0.71945 0.40109 0.0
H1873 H 0.54844 0.70956 0.43218 0.0
S1874 S 0.46533 0.5374 0.40693 0.0
N1875 N 0.47615 0.57428 0.39205 0.0
N1876 N 0.4832 0.56376 0.42521 0.0
C1877 C 0.49988 0.60509 0.41981 0.0
C1878 C 0.4959 0.61071 0.40163 0.0
C1879 C 0.29644 0.8545 0.42927 0.0
C1880 C 0.34095 0.87427 0.43232 0.0
C1881 C 0.27975 0.84809 0.41237 0.0
C1882 C 0.30673 0.8616 0.39774 0.0
H1883 H 0.27417 0.83983 0.43983 0.0
H1884 H 0.24525 0.82899 0.41071 0.0
S1885 S 0.42593 0.92062 0.39897 0.0
N1886 N 0.41171 0.91136 0.41936 0.0
N1887 N 0.38074 0.90058 0.38792 0.0
C1888 C 0.35134 0.88554 0.40079 0.0
C1889 C 0.36826 0.8914 0.41796 0.0
C1890 C 0.33616 0.1935 0.19166 0.0
C1891 C 0.305 0.19171 0.1801 0.0
C1892 C 0.36852 0.18589 0.18603 0.0
C1893 C 0.37273 0.17982 0.16858 0.0
H1894 H 0.33203 0.19484 0.20538 0.0
H1895 H 0.39019 0.18463 0.19538 0.0
S1896 S 0.31133 0.19112 0.13268 0.0
N1897 N 0.28793 0.19552 0.15017 0.0
N1898 N 0.35113 0.1844 0.1394 0.0
C1899 C 0.34683 0.18591 0.15668 0.0
C1900 C 0.313 0.19232 0.16247 0.0
C1901 C 0.81671 0.15802 0.18678 0.0
C1902 C 0.82162 0.12923 0.17614 0.0
C1903 C 0.82541 0.19792 0.1806 0.0
C1904 C 0.83751 0.20939 0.16346 0.0
H1905 H 0.81044 0.15145 0.20038 0.0
H1906 H 0.8222 0.21977 0.18925 0.0
S1907 S 0.84412 0.14137 0.12937 0.0
N1908 N 0.83238 0.11191 0.14697 0.0
N1909 N 0.84643 0.18671 0.13518 0.0
C1910 C 0.83738 0.17903 0.15219 0.0
C1911 C 0.82919 0.13854 0.15852 0.0
C1912 C 0.86545 0.6856 0.15385 0.0
C1913 C 0.87233 0.68884 0.17169 0.0
C1914 C 0.8247 0.6568 0.14723 0.0
C1915 C 0.79024 0.63121 0.1583 0.0
H1916 H 0.88982 0.70842 0.14521 0.0
H1917 H 0.81987 0.65479 0.13346 0.0
S1918 S 0.79607 0.61756 0.20512 0.0
N1919 N 0.84522 0.65418 0.19947 0.0
N1920 N 0.76762 0.60491 0.1873 0.0
C1921 C 0.79816 0.63105 0.17582 0.0
C1922 C 0.83999 0.65747 0.18232 0.0
C1923 C 0.15794 0.3351 0.35766 0.0
C1924 C 0.16582 0.36924 0.34668 0.0
C1925 C 0.16439 0.30188 0.35187 0.0
C1926 C 0.17934 0.30292 0.3351 0.0
H1927 H 0.1454 0.33339 0.37045 0.0
H1928 H 0.15272 0.2732 0.35969 0.0
S1929 S 0.2187 0.39277 0.30411 0.0
N1930 N 0.1982 0.40693 0.32006 0.0
N1931 N 0.21313 0.34591 0.30975 0.0
C1932 C 0.19453 0.34062 0.32543 0.0
C1933 C 0.186 0.37306 0.33089 0.0
C1934 C 0.65467 0.82002 0.3514 0.0
C1935 C 0.62515 0.79373 0.33884 0.0
C1936 C 0.68533 0.86255 0.34752 0.0
C1937 C 0.68648 0.87894 0.33102 0.0
H1938 H 0.6548 0.80722 0.36399 0.0
H1939 H 0.71148 0.88014 0.35648 0.0
S1940 S 0.60455 0.82933 0.29703 0.0
N1941 N 0.59159 0.79085 0.31136 0.0
N1942 N 0.64692 0.87227 0.30495 0.0
C1943 C 0.65125 0.85626 0.32016 0.0
C1944 C 0.62206 0.81247 0.32352 0.0
C1945 C 0.13499 0.79562 0.31616 0.0
C1946 C 0.11344 0.80924 0.32728 0.0
C1947 C 0.17521 0.80196 0.32055 0.0
C1948 C 0.19348 0.82011 0.33641 0.0
H1949 H 0.1234 0.78551 0.30318 0.0
H1950 H 0.19226 0.79307 0.31147 0.0
S1951 S 0.14415 0.84874 0.37181 0.0
N1952 N 0.10885 0.83316 0.356 0.0
N1953 N 0.18418 0.84305 0.36458 0.0
C1954 C 0.16948 0.82763 0.34858 0.0
C1955 C 0.12877 0.82167 0.34405 0.0
C1956 C 0.66385 0.82994 0.82179 0.0
C1957 C 0.68968 0.82097 0.83261 0.0
C1958 C 0.63545 0.8417 0.8286 0.0
C1959 C 0.63141 0.84337 0.84645 0.0
H1960 H 0.66529 0.82732 0.80797 0.0
H1961 H 0.61296 0.84385 0.81997 0.0
S1962 S 0.70215 0.83729 0.87959 0.0
N1963 N 0.71692 0.82467 0.86147 0.0
N1964 N 0.664 0.84801 0.87434 0.0
C1965 C 0.6624 0.84202 0.85706 0.0
C1966 C 0.69033 0.82879 0.8502 0.0
C1967 C 0.15367 0.79117 0.82087 0.0
C1968 C 0.13483 0.77184 0.8366 0.0
C1969 C 0.16655 0.83439 0.81802 0.0
C1970 C 0.16016 0.85832 0.83074 0.0
H1971 H 0.16447 0.77528 0.81202 0.0
H1972 H 0.18246 0.84946 0.80609 0.0
S1973 S 0.09289 0.81431 0.86972 0.0
N1974 N 0.09494 0.77316 0.86134 0.0
N1975 N 0.1219 0.85556 0.85692 0.0
C1976 C 0.13435 0.83655 0.84494 0.0
C1977 C 0.11916 0.79218 0.84717 0.0
C1978 C 0.18575 0.35031 0.82706 0.0
C1979 C 0.19711 0.35143 0.84437 0.0
C1980 C 0.14404 0.32174 0.82167 0.0
C1981 C 0.11321 0.29297 0.83332 0.0
H1982 H 0.20725 0.3749 0.81815 0.0
H1983 H 0.13569 0.32219 0.80833 0.0
S1984 S 0.13266 0.27302 0.87816 0.0
N1985 N 0.17867 0.31448 0.87183 0.0
N1986 N 0.09981 0.25993 0.86158 0.0
C1987 C 0.12605 0.28991 0.84998 0.0
C1988 C 0.16862 0.3186 0.85538 0.0
C1989 C 0.86743 0.66808 0.66046 0.0
C1990 C 0.845 0.6298 0.66994 0.0
C1991 C 0.85472 0.69886 0.66138 0.0
C1992 C 0.82345 0.69446 0.67327 0.0
H1993 H 0.88817 0.67013 0.64998 0.0
H1994 H 0.86979 0.72651 0.65291 0.0
S1995 S 0.77905 0.61466 0.70848 0.0
N1996 N 0.8052 0.59796 0.69616 0.0
N1997 N 0.78563 0.65937 0.69956 0.0
C1998 C 0.81021 0.66231 0.68583 0.0
C1999 C 0.82155 0.62987 0.68424 0.0
C2000 C 0.34722 0.18872 0.67627 0.0
C2001 C 0.35161 0.19725 0.65859 0.0
C2002 C 0.31883 0.14732 0.68226 0.0
C2003 C 0.29359 0.11368 0.67078 0.0
H2004 H 0.36914 0.21245 0.68534 0.0
H2005 H 0.31676 0.14141 0.69596 0.0
S2006 S 0.28366 0.1238 0.62394 0.0
N2007 N 0.32092 0.17227 0.6302 0.0
N2008 N 0.26836 0.0939 0.64145 0.0
C2009 C 0.29402 0.12328 0.65335 0.0
C2010 C 0.32184 0.16564 0.64735 0.0
C2011 C 0.79741 0.15926 0.67718 0.0
C2012 C 0.78688 0.15433 0.65966 0.0
C2013 C 0.83981 0.17376 0.68235 0.0
C2014 C 0.87251 0.18355 0.67019 0.0
H2015 H 0.77384 0.15526 0.68674 0.0
H2016 H 0.84704 0.17653 0.69595 0.0
S2017 S 0.85908 0.16492 0.62336 0.0
N2018 N 0.81067 0.1504 0.63062 0.0
N2019 N 0.89052 0.18173 0.64037 0.0
C2020 C 0.86172 0.17616 0.65286 0.0
C2021 C 0.81858 0.15918 0.64767 0.0
C2022 C 0.02723 0.50723 0.51753 0.0
C2023 C 0.02485 0.48908 0.50138 0.0
C2024 C 0.00072 0.52383 0.52153 0.0
C2025 C 0.96813 0.51838 0.51008 0.0
H2026 H 0.05054 0.50974 0.52697 0.0
H2027 H 0.00092 0.53427 0.5346 0.0
S2028 S 0.96005 0.48826 0.46426 0.0
N2029 N -0.00242 0.47942 0.47217 0.0
N2030 N 0.94414 0.50673 0.48038 0.0
C2031 C 0.97028 0.50709 0.49306 0.0
C2032 C -0.00159 0.49167 0.48874 0.0
C2033 C 0.49318 0.46853 0.49193 0.0
C2034 C 0.48308 0.45777 0.50929 0.0
C2035 C 0.50692 0.51024 0.48635 0.0
C2036 C 0.50976 0.5416 0.49787 0.0
H2037 H 0.49546 0.44644 0.48311 0.0
H2038 H 0.51514 0.51807 0.47293 0.0
S2039 S 0.47185 0.52417 0.5429 0.0
N2040 N 0.46583 0.47749 0.53671 0.0
N2041 N 0.49186 0.55653 0.52617 0.0
C2042 C 0.49449 0.52953 0.51465 0.0
C2043 C 0.47972 0.48693 0.5202 0.0
C2044 C 0.53328 0.02751 0.48251 0.0
C2045 C 0.55281 0.02863 0.49825 0.0
C2046 C 0.49037 0.99602 0.47972 0.0
C2047 C 0.46752 0.96481 0.49235 0.0
H2048 H 0.54802 0.05486 0.47389 0.0
H2049 H 0.47452 -0.00291 0.46805 0.0
S2050 S 0.51535 0.93996 0.52963 0.0
N2051 N 0.55464 0.98575 0.52193 0.0
N2052 N 0.47342 0.92673 0.51712 0.0
C2053 C 0.49065 0.96011 0.50585 0.0
C2054 C 0.5345 0.99114 0.50819 0.0
C2055 C 0.49328 0.00412 0.01868 0.0
C2056 C 0.48481 0.03073 0.00811 0.0
C2057 C 0.49988 0.97224 0.01157 0.0
C2058 C 0.49859 0.96666 0.99369 0.0
H2059 H 0.49463 0.00793 0.0325 0.0
H2060 H 0.50237 0.94983 0.02014 0.0
S2061 S 0.48861 0.03561 0.96062 0.0
N2062 N 0.48158 0.05369 0.97906 0.0
N2063 N 0.49806 -0.00352 0.96564 0.0
C2064 C 0.49579 -0.00311 0.98307 0.0
C2065 C 0.4867 0.02754 0.99028 0.0
C2066 C 0.98785 0.48461 0.01874 0.0
C2067 C 0.95566 0.46176 0.00649 0.0
C2068 C 0.02059 0.52673 0.01528 0.0
C2069 C 0.02137 0.54586 0.99945 0.0
H2070 H 0.98862 0.4693 0.03062 0.0
H2071 H 0.0484 0.54123 0.02365 0.0
S2072 S 0.93404 0.50704 0.9675 0.0
N2073 N 0.91966 0.46621 0.98078 0.0
N2074 N 0.97961 0.54656 0.97518 0.0
C2075 C 0.984 0.52741 0.9895 0.0
C2076 C 0.95228 0.48405 0.99235 0.0
C2077 C 0.47578 0.47002 0.97969 0.0
C2078 C 0.44919 0.47518 0.99159 0.0
C2079 C 0.51536 0.47566 0.98473 0.0
C2080 C 0.52762 0.48305 0.00196 0.0
H2081 H 0.46874 0.46768 0.96607 0.0
H2082 H 0.53652 0.47452 0.97511 0.0
S2083 S 0.46133 0.48012 0.03885 0.0
N2084 N 0.43231 0.47607 0.02176 0.0
N2085 N 0.50567 0.4828 0.0315 0.0
C2086 C 0.49792 0.48005 0.01434 0.0
C2087 C 0.45824 0.47594 0.00912 0.0
loop_
_geom_bond_atom_site_label_1
_geom_bond_atom_site_label_2
_geom_bond_distance
_geom_bond_site_symmetry_2
_ccdc_geom_bond_type
Mn0 O5 2.095 . S
Mn0 O15 2.162 . S
Mn0 O16 2.297 . S
Mn0 O24 2.385 . S
Mn0 O25 2.209 . S
Mn0 O26 2.094 . S
Mn1 O6 2.121 . S
Mn1 N8 2.257 . S
Mn1 N17 2.282 . S
Mn1 O25 2.215 . S
Mn1 O27 2.117 . S
C2 O24 1.234 . S
C2 O25 1.283 . S
C3 O15 1.281 . S
C3 O16 1.236 . S
C4 O26 1.240 . S
C4 O27 1.264 . S
O5 Mn0 2.095 . S
O5 C14 1.250 . S
O6 Mn1 2.121 . S
O6 C14 1.258 . S
C7 N8 1.326 . S
C7 C11 1.460 . S
C7 H13 0.929 . S
N8 Mn1 2.257 . S
N8 C7 1.326 . S
N8 C12 1.362 . S
C9 C10 1.258 . S
C9 C12 1.431 1_565 S
C9 C29 1.449 . S
C10 C9 1.258 . S
C10 C11 1.477 1_565 S
C10 H30 0.931 . S
C11 C7 1.460 . S
C11 C10 1.477 1_545 S
C11 H31 0.930 . S
C12 N8 1.362 . S
C12 C9 1.431 1_545 S
C12 C22 1.476 . S
H13 C7 0.929 . S
C14 O5 1.250 . S
C14 O6 1.258 . S
O15 Mn0 2.162 . S
O15 C3 1.281 . S
O16 Mn0 2.297 . S
O16 C3 1.236 . S
N17 Mn1 2.282 . S
N17 C18 1.328 . S
N17 C22 1.318 . S
C18 N17 1.328 . S
C18 C19 1.457 . S
C18 H23 0.929 . S
C19 C18 1.457 . S
C19 C20 1.291 1_545 S
C19 H32 0.931 . S
C20 C19 1.291 1_565 S
C20 C21 1.373 . S
C20 H33 0.929 . S
C21 C20 1.373 . S
C21 C22 1.396 1_565 S
C21 C28 1.403 . S
C22 C12 1.476 . S
C22 N17 1.318 . S
C22 C21 1.396 1_545 S
H23 C18 0.929 . S
O24 Mn0 2.385 . S
O24 C2 1.234 . S
O25 Mn0 2.209 . S
O25 Mn1 2.215 . S
O25 C2 1.283 . S
O26 Mn0 2.094 . S
O26 C4 1.240 . S
O27 Mn1 2.117 . S
O27 C4 1.264 . S
C28 C21 1.403 . S
C28 C29 1.399 . S
C28 H34 0.929 . S
C29 C9 1.449 . S
C29 C28 1.399 . S
C29 H35 0.930 . S
H30 C10 0.931 . S
H31 C11 0.930 . S
H32 C19 0.931 . S
H33 C20 0.929 . S
H34 C28 0.929 . S
H35 C29 0.930 . S
Mn36 O41 2.095 1_545 S
Mn36 O51 2.162 1_545 S
Mn36 O52 2.297 1_545 S
Mn36 O60 2.385 . S
Mn36 O61 2.209 . S
Mn36 O62 2.094 . S
Mn37 O42 2.121 . S
Mn37 N44 2.257 . S
Mn37 N53 2.282 . S
Mn37 O61 2.215 . S
Mn37 O63 2.117 . S
C38 O60 1.234 . S
C38 O61 1.283 . S
C39 O51 1.281 . S
C39 O52 1.236 . S
C40 O62 1.240 . S
C40 O63 1.264 . S
O41 Mn36 2.095 1_565 S
O41 C50 1.250 1_565 S
O42 Mn37 2.121 . S
O42 C50 1.258 . S
C43 N44 1.326 . S
C43 C47 1.460 . S
C43 H49 0.929 . S
N44 Mn37 2.257 . S
N44 C43 1.326 . S
N44 C48 1.362 . S
C45 C46 1.258 . S
C45 C48 1.431 1_455 S
C45 C65 1.449 . S
C46 C45 1.258 . S
C46 C47 1.477 1_455 S
C46 H66 0.931 . S
C47 C43 1.460 . S
C47 C46 1.477 1_655 S
C47 H67 0.930 . S
C48 N44 1.362 . S
C48 C45 1.431 1_655 S
C48 C58 1.476 . S
H49 C43 0.929 . S
C50 O41 1.250 1_545 S
C50 O42 1.258 . S
O51 Mn36 2.162 1_565 S
O51 C39 1.281 . S
O52 Mn36 2.297 1_565 S
O52 C39 1.236 . S
N53 Mn37 2.282 . S
N53 C54 1.328 . S
N53 C58 1.318 . S
C54 N53 1.328 . S
C54 C55 1.457 . S
C54 H59 0.929 . S
C55 C54 1.457 . S
C55 C56 1.291 1_655 S
C55 H68 0.931 . S
C56 C55 1.291 1_455 S
C56 C57 1.373 . S
C56 H69 0.929 . S
C57 C56 1.373 . S
C57 C58 1.396 1_455 S
C57 C64 1.403 . S
C58 C48 1.476 . S
C58 N53 1.318 . S
C58 C57 1.396 1_655 S
H59 C54 0.929 . S
O60 Mn36 2.385 . S
O60 C38 1.234 . S
O61 Mn36 2.209 . S
O61 Mn37 2.215 . S
O61 C38 1.283 . S
O62 Mn36 2.094 . S
O62 C40 1.240 . S
O63 Mn37 2.117 . S
O63 C40 1.264 . S
C64 C57 1.403 . S
C64 C65 1.399 . S
C64 H70 0.929 . S
C65 C45 1.449 . S
C65 C64 1.399 . S
C65 H71 0.930 . S
H66 C46 0.931 . S
H67 C47 0.930 . S
H68 C55 0.931 . S
H69 C56 0.929 . S
H70 C64 0.929 . S
H71 C65 0.930 . S
Mn72 O77 2.095 1_655 S
Mn72 O87 2.162 1_655 S
Mn72 O88 2.297 1_655 S
Mn72 O96 2.385 . S
Mn72 O97 2.209 . S
Mn72 O98 2.094 . S
Mn73 O78 2.121 . S
Mn73 N80 2.257 . S
Mn73 N89 2.282 . S
Mn73 O97 2.215 . S
Mn73 O99 2.117 . S
C74 O96 1.234 . S
C74 O97 1.283 . S
C75 O87 1.281 . S
C75 O88 1.236 . S
C76 O98 1.240 . S
C76 O99 1.264 . S
O77 Mn72 2.095 1_455 S
O77 C86 1.250 1_455 S
O78 Mn73 2.121 . S
O78 C86 1.258 . S
C79 N80 1.326 . S
C79 C83 1.460 . S
C79 H85 0.929 . S
N80 Mn73 2.257 . S
N80 C79 1.326 . S
N80 C84 1.362 . S
C81 C82 1.258 . S
C81 C84 1.431 . S
C81 C101 1.449 . S
C82 C81 1.258 . S
C82 C83 1.477 . S
C82 H102 0.931 . S
C83 C79 1.460 . S
C83 C82 1.477 . S
C83 H103 0.930 . S
C84 N80 1.362 . S
C84 C81 1.431 . S
C84 C94 1.476 . S
H85 C79 0.929 . S
C86 O77 1.250 1_655 S
C86 O78 1.258 . S
O87 Mn72 2.162 1_455 S
O87 C75 1.281 . S
O88 Mn72 2.297 1_455 S
O88 C75 1.236 . S
N89 Mn73 2.282 . S
N89 C90 1.328 . S
N89 C94 1.318 . S
C90 N89 1.328 . S
C90 C91 1.457 . S
C90 H95 0.929 . S
C91 C90 1.457 . S
C91 C92 1.291 . S
C91 H104 0.931 . S
C92 C91 1.291 . S
C92 C93 1.373 . S
C92 H105 0.929 . S
C93 C92 1.373 . S
C93 C94 1.396 . S
C93 C100 1.403 . S
C94 C84 1.476 . S
C94 N89 1.318 . S
C94 C93 1.396 . S
H95 C90 0.929 . S
O96 Mn72 2.385 . S
O96 C74 1.234 . S
O97 Mn72 2.209 . S
O97 Mn73 2.215 . S
O97 C74 1.283 . S
O98 Mn72 2.094 . S
O98 C76 1.240 . S
O99 Mn73 2.117 . S
O99 C76 1.264 . S
C100 C93 1.403 . S
C100 C101 1.399 . S
C100 H106 0.929 . S
C101 C81 1.449 . S
C101 C100 1.399 . S
C101 H107 0.930 . S
H102 C82 0.931 . S
H103 C83 0.930 . S
H104 C91 0.931 . S
H105 C92 0.929 . S
H106 C100 0.929 . S
H107 C101 0.930 . S
Mn108 O113 2.095 . S
Mn108 O123 2.162 . S
Mn108 O124 2.297 . S
Mn108 O132 2.385 . S
Mn108 O133 2.209 . S
Mn108 O134 2.094 . S
Mn109 O114 2.121 . S
Mn109 N116 2.257 . S
Mn109 N125 2.282 . S
Mn109 O133 2.215 . S
Mn109 O135 2.117 . S
C110 O132 1.234 . S
C110 O133 1.283 . S
C111 O123 1.281 . S
C111 O124 1.236 . S
C112 O134 1.240 . S
C112 O135 1.264 . S
O113 Mn108 2.095 . S
O113 C122 1.250 . S
O114 Mn109 2.121 . S
O114 C122 1.258 . S
C115 N116 1.326 . S
C115 C119 1.460 . S
C115 H121 0.929 . S
N116 Mn109 2.257 . S
N116 C115 1.326 . S
N116 C120 1.362 . S
C117 C118 1.258 . S
C117 C120 1.431 1_655 S
C117 C137 1.449 . S
C118 C117 1.258 . S
C118 C119 1.477 1_655 S
C118 H138 0.931 . S
C119 C115 1.460 . S
C119 C118 1.477 1_455 S
C119 H139 0.930 . S
C120 N116 1.362 . S
C120 C117 1.431 1_455 S
C120 C130 1.476 . S
H121 C115 0.929 . S
C122 O113 1.250 . S
C122 O114 1.258 . S
O123 Mn108 2.162 . S
O123 C111 1.281 . S
O124 Mn108 2.297 . S
O124 C111 1.236 . S
N125 Mn109 2.282 . S
N125 C126 1.328 . S
N125 C130 1.318 . S
C126 N125 1.328 . S
C126 C127 1.457 . S
C126 H131 0.929 . S
C127 C126 1.457 . S
C127 C128 1.291 1_455 S
C127 H140 0.931 . S
C128 C127 1.291 1_655 S
C128 C129 1.373 . S
C128 H141 0.929 . S
C129 C128 1.373 . S
C129 C130 1.396 1_655 S
C129 C136 1.403 . S
C130 C120 1.476 . S
C130 N125 1.318 . S
C130 C129 1.396 1_455 S
H131 C126 0.929 . S
O132 Mn108 2.385 . S
O132 C110 1.234 . S
O133 Mn108 2.209 . S
O133 Mn109 2.215 . S
O133 C110 1.283 . S
O134 Mn108 2.094 . S
O134 C112 1.240 . S
O135 Mn109 2.117 . S
O135 C112 1.264 . S
C136 C129 1.403 . S
C136 C137 1.399 . S
C136 H142 0.929 . S
C137 C117 1.449 . S
C137 C136 1.399 . S
C137 H143 0.930 . S
H138 C118 0.931 . S
H139 C119 0.930 . S
H140 C127 0.931 . S
H141 C128 0.929 . S
H142 C136 0.929 . S
H143 C137 0.930 . S
Mn144 O149 2.095 1_565 S
Mn144 O159 2.162 1_565 S
Mn144 O160 2.297 1_565 S
Mn144 O168 2.385 . S
Mn144 O169 2.209 . S
Mn144 O170 2.094 . S
Mn145 O150 2.121 . S
Mn145 N152 2.257 . S
Mn145 N161 2.282 . S
Mn145 O169 2.215 . S
Mn145 O171 2.117 . S
C146 O168 1.234 . S
C146 O169 1.283 . S
C147 O159 1.281 . S
C147 O160 1.236 . S
C148 O170 1.240 . S
C148 O171 1.264 . S
O149 Mn144 2.095 1_545 S
O149 C158 1.250 1_545 S
O150 Mn145 2.121 . S
O150 C158 1.258 . S
C151 N152 1.326 . S
C151 C155 1.460 . S
C151 H157 0.929 . S
N152 Mn145 2.257 . S
N152 C151 1.326 . S
N152 C156 1.362 . S
C153 C154 1.258 . S
C153 C156 1.431 . S
C153 C173 1.449 . S
C154 C153 1.258 . S
C154 C155 1.477 . S
C154 H174 0.931 . S
C155 C151 1.460 . S
C155 C154 1.477 . S
C155 H175 0.930 . S
C156 N152 1.362 . S
C156 C153 1.431 . S
C156 C166 1.476 . S
H157 C151 0.929 . S
C158 O149 1.250 1_565 S
C158 O150 1.258 . S
O159 Mn144 2.162 1_545 S
O159 C147 1.281 . S
O160 Mn144 2.297 1_545 S
O160 C147 1.236 . S
N161 Mn145 2.282 . S
N161 C162 1.328 . S
N161 C166 1.318 . S
C162 N161 1.328 . S
C162 C163 1.457 . S
C162 H167 0.929 . S
C163 C162 1.457 . S
C163 C164 1.291 . S
C163 H176 0.931 . S
C164 C163 1.291 . S
C164 C165 1.373 . S
C164 H177 0.929 . S
C165 C164 1.373 . S
C165 C166 1.396 . S
C165 C172 1.403 . S
C166 C156 1.476 . S
C166 N161 1.318 . S
C166 C165 1.396 . S
H167 C162 0.929 . S
O168 Mn144 2.385 . S
O168 C146 1.234 . S
O169 Mn144 2.209 . S
O169 Mn145 2.215 . S
O169 C146 1.283 . S
O170 Mn144 2.094 . S
O170 C148 1.240 . S
O171 Mn145 2.117 . S
O171 C148 1.264 . S
C172 C165 1.403 . S
C172 C173 1.399 . S
C172 H178 0.929 . S
C173 C153 1.449 . S
C173 C172 1.399 . S
C173 H179 0.930 . S
H174 C154 0.931 . S
H175 C155 0.930 . S
H176 C163 0.931 . S
H177 C164 0.929 . S
H178 C172 0.929 . S
H179 C173 0.930 . S
Mn180 O185 2.095 1_455 S
Mn180 O195 2.162 1_455 S
Mn180 O196 2.297 1_455 S
Mn180 O204 2.385 . S
Mn180 O205 2.209 . S
Mn180 O206 2.094 . S
Mn181 O186 2.121 . S
Mn181 N188 2.257 . S
Mn181 N197 2.282 . S
Mn181 O205 2.215 . S
Mn181 O207 2.117 . S
C182 O204 1.234 . S
C182 O205 1.283 . S
C183 O195 1.281 . S
C183 O196 1.236 . S
C184 O206 1.240 . S
C184 O207 1.264 . S
O185 Mn180 2.095 1_655 S
O185 C194 1.250 1_655 S
O186 Mn181 2.121 . S
O186 C194 1.258 . S
C187 N188 1.326 . S
C187 C191 1.460 . S
C187 H193 0.929 . S
N188 Mn181 2.257 . S
N188 C187 1.326 . S
N188 C192 1.362 . S
C189 C190 1.258 . S
C189 C192 1.431 1_545 S
C189 C209 1.449 . S
C190 C189 1.258 . S
C190 C191 1.477 1_545 S
C190 H210 0.931 . S
C191 C187 1.460 . S
C191 C190 1.477 1_565 S
C191 H211 0.930 . S
C192 N188 1.362 . S
C192 C189 1.431 1_565 S
C192 C202 1.476 . S
H193 C187 0.929 . S
C194 O185 1.250 1_455 S
C194 O186 1.258 . S
O195 Mn180 2.162 1_655 S
O195 C183 1.281 . S
O196 Mn180 2.297 1_655 S
O196 C183 1.236 . S
N197 Mn181 2.282 . S
N197 C198 1.328 . S
N197 C202 1.318 . S
C198 N197 1.328 . S
C198 C199 1.457 . S
C198 H203 0.929 . S
C199 C198 1.457 . S
C199 C200 1.291 1_565 S
C199 H212 0.931 . S
C200 C199 1.291 1_545 S
C200 C201 1.373 . S
C200 H213 0.929 . S
C201 C200 1.373 . S
C201 C202 1.396 1_545 S
C201 C208 1.403 . S
C202 C192 1.476 . S
C202 N197 1.318 . S
C202 C201 1.396 1_565 S
H203 C198 0.929 . S
O204 Mn180 2.385 . S
O204 C182 1.234 . S
O205 Mn180 2.209 . S
O205 Mn181 2.215 . S
O205 C182 1.283 . S
O206 Mn180 2.094 . S
O206 C184 1.240 . S
O207 Mn181 2.117 . S
O207 C184 1.264 . S
C208 C201 1.403 . S
C208 C209 1.399 . S
C208 H214 0.929 . S
C209 C189 1.449 . S
C209 C208 1.399 . S
C209 H215 0.930 . S
H210 C190 0.931 . S
H211 C191 0.930 . S
H212 C199 0.931 . S
H213 C200 0.929 . S
H214 C208 0.929 . S
H215 C209 0.930 . S
Mn216 O221 2.095 . S
Mn216 O231 2.162 . S
Mn216 O232 2.297 . S
Mn216 O240 2.385 . S
Mn216 O241 2.209 . S
Mn216 O242 2.094 . S
Mn217 O222 2.121 . S
Mn217 N224 2.257 . S
Mn217 N233 2.282 . S
Mn217 O241 2.215 . S
Mn217 O243 2.117 . S
C218 O240 1.234 . S
C218 O241 1.283 . S
C219 O231 1.281 . S
C219 O232 1.236 . S
C220 O242 1.240 . S
C220 O243 1.264 . S
O221 Mn216 2.095 . S
O221 C230 1.250 . S
O222 Mn217 2.121 . S
O222 C230 1.258 . S
C223 N224 1.326 . S
C223 C227 1.460 . S
C223 H229 0.929 . S
N224 Mn217 2.257 . S
N224 C223 1.326 . S
N224 C228 1.362 . S
C225 C226 1.258 . S
C225 C228 1.431 1_545 S
C225 C245 1.449 . S
C226 C225 1.258 . S
C226 C227 1.477 1_545 S
C226 H246 0.931 . S
C227 C223 1.460 . S
C227 C226 1.477 1_565 S
C227 H247 0.930 . S
C228 N224 1.362 . S
C228 C225 1.431 1_565 S
C228 C238 1.476 . S
H229 C223 0.929 . S
C230 O221 1.250 . S
C230 O222 1.258 . S
O231 Mn216 2.162 . S
O231 C219 1.281 . S
O232 Mn216 2.297 . S
O232 C219 1.236 . S
N233 Mn217 2.282 . S
N233 C234 1.328 . S
N233 C238 1.318 . S
C234 N233 1.328 . S
C234 C235 1.457 1_665 S
C234 H239 0.929 . S
C235 C234 1.457 1_445 S
C235 C236 1.291 . S
C235 H248 0.931 . S
C236 C235 1.291 . S
C236 C237 1.373 . S
C236 H249 0.929 . S
C237 C236 1.373 . S
C237 C238 1.396 1_445 S
C237 C244 1.403 . S
C238 C228 1.476 . S
C238 N233 1.318 . S
C238 C237 1.396 1_665 S
H239 C234 0.929 . S
O240 Mn216 2.385 . S
O240 C218 1.234 . S
O241 Mn216 2.209 . S
O241 Mn217 2.215 . S
O241 C218 1.283 . S
O242 Mn216 2.094 . S
O242 C220 1.240 . S
O243 Mn217 2.117 . S
O243 C220 1.264 . S
C244 C237 1.403 . S
C244 C245 1.399 1_455 S
C244 H250 0.929 . S
C245 C225 1.449 . S
C245 C244 1.399 1_655 S
C245 H251 0.930 1_655 S
H246 C226 0.931 . S
H247 C227 0.930 . S
H248 C235 0.931 . S
H249 C236 0.929 . S
H250 C244 0.929 . S
H251 C245 0.930 1_455 S
Mn252 O257 2.095 1_565 S
Mn252 O267 2.162 . S
Mn252 O268 2.297 . S
Mn252 O276 2.385 . S
Mn252 O277 2.209 . S
Mn252 O278 2.094 1_565 S
Mn253 O258 2.121 . S
Mn253 N260 2.257 1_545 S
Mn253 N269 2.285 1_545 S
Mn253 O277 2.215 1_545 S
Mn253 O279 2.117 . S
C254 O276 1.234 . S
C254 O277 1.283 . S
C255 O267 1.281 . S
C255 O268 1.236 . S
C256 O278 1.240 . S
C256 O279 1.264 . S
O257 Mn252 2.095 1_545 S
O257 C266 1.250 . S
O258 Mn253 2.121 . S
O258 C266 1.258 . S
C259 N260 1.326 . S
C259 C263 1.460 . S
C259 H265 0.929 . S
N260 Mn253 2.257 1_565 S
N260 C259 1.326 . S
N260 C264 1.362 . S
C261 C262 1.258 . S
C261 C264 1.431 1_655 S
C261 C281 1.449 . S
C262 C261 1.258 . S
C262 C263 1.477 1_655 S
C262 H282 0.931 . S
C263 C259 1.460 . S
C263 C262 1.477 1_455 S
C263 H283 0.930 . S
C264 N260 1.362 . S
C264 C261 1.431 1_455 S
C264 C274 1.476 . S
H265 C259 0.929 . S
C266 O257 1.250 . S
C266 O258 1.258 . S
O267 Mn252 2.162 . S
O267 C255 1.281 . S
O268 Mn252 2.297 . S
O268 C255 1.236 . S
N269 Mn253 2.285 1_565 S
N269 C270 1.323 1_565 S
N269 C274 1.319 . S
C270 N269 1.323 1_545 S
C270 C271 1.457 1_455 S
C270 H275 0.929 . S
C271 C270 1.457 1_655 S
C271 C272 1.291 1_545 S
C271 H284 0.931 . S
C272 C271 1.291 1_565 S
C272 C273 1.373 . S
C272 H285 0.929 . S
C273 C272 1.373 . S
C273 C274 1.396 1_655 S
C273 C280 1.403 . S
C274 C264 1.476 . S
C274 N269 1.319 . S
C274 C273 1.396 1_455 S
H275 C270 0.929 . S
O276 Mn252 2.385 . S
O276 C254 1.234 . S
O277 Mn252 2.209 . S
O277 Mn253 2.215 1_565 S
O277 C254 1.283 . S
O278 Mn252 2.094 1_545 S
O278 C256 1.240 . S
O279 Mn253 2.117 . S
O279 C256 1.264 . S
C280 C273 1.403 . S
C280 C281 1.399 . S
C280 H286 0.929 . S
C281 C261 1.449 . S
C281 C280 1.399 . S
C281 H287 0.930 . S
H282 C262 0.931 . S
H283 C263 0.930 . S
H284 C271 0.931 . S
H285 C272 0.929 . S
H286 C280 0.929 . S
H287 C281 0.930 . S
Mn288 O293 2.095 1_455 S
Mn288 O303 2.162 . S
Mn288 O304 2.297 . S
Mn288 O312 2.385 . S
Mn288 O313 2.209 . S
Mn288 O314 2.094 1_455 S
Mn289 O294 2.121 . S
Mn289 N296 2.257 1_655 S
Mn289 N305 2.285 . S
Mn289 O313 2.215 1_655 S
Mn289 O315 2.117 . S
C290 O312 1.234 . S
C290 O313 1.283 . S
C291 O303 1.281 . S
C291 O304 1.236 . S
C292 O314 1.240 . S
C292 O315 1.264 . S
O293 Mn288 2.095 1_655 S
O293 C302 1.250 . S
O294 Mn289 2.121 . S
O294 C302 1.258 . S
C295 N296 1.326 . S
C295 C299 1.460 . S
C295 H301 0.929 . S
N296 Mn289 2.257 1_455 S
N296 C295 1.326 . S
N296 C300 1.362 . S
C297 C298 1.258 . S
C297 C300 1.431 . S
C297 C317 1.470 . S
C298 C297 1.258 . S
C298 C299 1.477 . S
C298 H318 0.931 . S
C299 C295 1.460 . S
C299 C298 1.477 . S
C299 H319 0.930 . S
C300 N296 1.362 . S
C300 C297 1.431 . S
C300 C310 1.476 . S
H301 C295 0.929 . S
C302 O293 1.250 . S
C302 O294 1.258 . S
O303 Mn288 2.162 . S
O303 C291 1.281 . S
O304 Mn288 2.297 . S
O304 C291 1.236 . S
N305 Mn289 2.285 . S
N305 C306 1.329 . S
N305 C310 1.313 1_655 S
C306 N305 1.329 . S
C306 C307 1.457 1_545 S
C306 H311 0.929 . S
C307 C306 1.457 1_565 S
C307 C308 1.291 1_655 S
C307 H320 0.931 . S
C308 C307 1.291 1_455 S
C308 C309 1.373 . S
C308 H321 0.929 . S
C309 C308 1.373 . S
C309 C310 1.396 1_565 S
C309 C316 1.403 . S
C310 C300 1.476 . S
C310 N305 1.313 1_455 S
C310 C309 1.396 1_545 S
H311 C306 0.929 . S
O312 Mn288 2.385 . S
O312 C290 1.234 . S
O313 Mn288 2.209 . S
O313 Mn289 2.215 1_455 S
O313 C290 1.283 . S
O314 Mn288 2.094 1_655 S
O314 C292 1.240 . S
O315 Mn289 2.117 . S
O315 C292 1.264 . S
C316 C309 1.403 . S
C316 C317 1.394 1_565 S
C316 H322 0.929 . S
C317 C297 1.470 . S
C317 C316 1.394 1_545 S
C317 H323 0.914 1_545 S
H318 C298 0.931 . S
H319 C299 0.930 . S
H320 C307 0.931 . S
H321 C308 0.929 . S
H322 C316 0.929 . S
H323 C317 0.914 1_565 S
Mn324 O329 2.095 . S
Mn324 O339 2.162 . S
Mn324 O340 2.297 . S
Mn324 O348 2.385 . S
Mn324 O349 2.209 . S
Mn324 O350 2.094 . S
Mn325 O330 2.121 . S
Mn325 N332 2.257 . S
Mn325 N341 2.282 . S
Mn325 O349 2.215 . S
Mn325 O351 2.117 . S
C326 O348 1.234 . S
C326 O349 1.283 . S
C327 O339 1.281 . S
C327 O340 1.236 . S
C328 O350 1.240 . S
C328 O351 1.264 . S
O329 Mn324 2.095 . S
O329 C338 1.250 . S
O330 Mn325 2.121 . S
O330 C338 1.258 . S
C331 N332 1.326 . S
C331 C335 1.460 . S
C331 H337 0.929 . S
N332 Mn325 2.257 . S
N332 C331 1.326 . S
N332 C336 1.362 . S
C333 C334 1.258 . S
C333 C336 1.431 1_455 S
C333 C353 1.449 . S
C334 C333 1.258 . S
C334 C335 1.477 1_455 S
C334 H354 0.931 . S
C335 C331 1.460 . S
C335 C334 1.477 1_655 S
C335 H355 0.930 . S
C336 N332 1.362 . S
C336 C333 1.431 1_655 S
C336 C346 1.476 . S
H337 C331 0.929 . S
C338 O329 1.250 . S
C338 O330 1.258 . S
O339 Mn324 2.162 . S
O339 C327 1.281 . S
O340 Mn324 2.297 . S
O340 C327 1.236 . S
N341 Mn325 2.282 . S
N341 C342 1.328 . S
N341 C346 1.318 . S
C342 N341 1.328 . S
C342 C343 1.457 1_665 S
C342 H347 0.929 . S
C343 C342 1.457 1_445 S
C343 C344 1.291 . S
C343 H356 0.931 . S
C344 C343 1.291 . S
C344 C345 1.373 . S
C344 H357 0.929 . S
C345 C344 1.373 . S
C345 C346 1.396 1_445 S
C345 C352 1.403 . S
C346 C336 1.476 . S
C346 N341 1.318 . S
C346 C345 1.396 1_665 S
H347 C342 0.929 . S
O348 Mn324 2.385 . S
O348 C326 1.234 . S
O349 Mn324 2.209 . S
O349 Mn325 2.215 . S
O349 C326 1.283 . S
O350 Mn324 2.094 . S
O350 C328 1.240 . S
O351 Mn325 2.117 . S
O351 C328 1.264 . S
C352 C345 1.403 . S
C352 C353 1.399 1_545 S
C352 H358 0.929 . S
C353 C333 1.449 . S
C353 C352 1.399 1_565 S
C353 H359 0.930 1_565 S
H354 C334 0.931 . S
H355 C335 0.930 . S
H356 C343 0.931 . S
H357 C344 0.929 . S
H358 C352 0.929 . S
H359 C353 0.930 1_545 S
Mn360 O365 2.095 1_545 S
Mn360 O375 2.162 . S
Mn360 O376 2.297 . S
Mn360 O384 2.385 . S
Mn360 O385 2.209 . S
Mn360 O386 2.094 1_545 S
Mn361 O366 2.121 . S
Mn361 N368 2.257 1_565 S
Mn361 N377 2.283 . S
Mn361 O385 2.215 1_565 S
Mn361 O387 2.117 . S
C362 O384 1.234 . S
C362 O385 1.283 . S
C363 O375 1.281 . S
C363 O376 1.236 . S
C364 O386 1.240 . S
C364 O387 1.264 . S
O365 Mn360 2.095 1_565 S
O365 C374 1.250 . S
O366 Mn361 2.121 . S
O366 C374 1.258 . S
C367 N368 1.326 . S
C367 C371 1.460 . S
C367 H373 0.929 . S
N368 Mn361 2.257 1_545 S
N368 C367 1.326 . S
N368 C372 1.362 . S
C369 C370 1.258 . S
C369 C372 1.431 . S
C369 C389 1.469 . S
C370 C369 1.258 . S
C370 C371 1.477 . S
C370 H390 0.931 . S
C371 C367 1.460 . S
C371 C370 1.477 . S
C371 H391 0.930 . S
C372 N368 1.362 . S
C372 C369 1.431 . S
C372 C382 1.476 . S
H373 C367 0.929 . S
C374 O365 1.250 . S
C374 O366 1.258 . S
O375 Mn360 2.162 . S
O375 C363 1.281 . S
O376 Mn360 2.297 . S
O376 C363 1.236 . S
N377 Mn361 2.283 . S
N377 C378 1.328 . S
N377 C382 1.315 1_565 S
C378 N377 1.328 . S
C378 C379 1.457 1_455 S
C378 H383 0.929 . S
C379 C378 1.457 1_655 S
C379 C380 1.291 1_565 S
C379 H392 0.931 . S
C380 C379 1.291 1_545 S
C380 C381 1.373 . S
C380 H393 0.929 . S
C381 C380 1.373 . S
C381 C382 1.396 1_655 S
C381 C388 1.403 . S
C382 C372 1.476 . S
C382 N377 1.315 1_545 S
C382 C381 1.396 1_455 S
H383 C378 0.929 . S
O384 Mn360 2.385 . S
O384 C362 1.234 . S
O385 Mn360 2.209 . S
O385 Mn361 2.215 1_545 S
O385 C362 1.283 . S
O386 Mn360 2.094 1_565 S
O386 C364 1.240 . S
O387 Mn361 2.117 . S
O387 C364 1.264 . S
C388 C381 1.403 . S
C388 C389 1.394 1_655 S
C388 H394 0.929 . S
C389 C369 1.469 . S
C389 C388 1.394 1_455 S
C389 H395 0.915 1_455 S
H390 C370 0.931 . S
H391 C371 0.930 . S
H392 C379 0.931 . S
H393 C380 0.929 . S
H394 C388 0.929 . S
H395 C389 0.915 1_655 S
Mn396 O401 2.095 1_655 S
Mn396 O411 2.162 . S
Mn396 O412 2.297 . S
Mn396 O420 2.385 . S
Mn396 O421 2.209 . S
Mn396 O422 2.094 1_655 S
Mn397 O402 2.121 . S
Mn397 N404 2.257 1_455 S
Mn397 N413 2.286 1_455 S
Mn397 O421 2.215 1_455 S
Mn397 O423 2.117 . S
C398 O420 1.234 . S
C398 O421 1.283 . S
C399 O411 1.281 . S
C399 O412 1.236 . S
C400 O422 1.240 . S
C400 O423 1.264 . S
O401 Mn396 2.095 1_455 S
O401 C410 1.250 . S
O402 Mn397 2.121 . S
O402 C410 1.258 . S
C403 N404 1.326 . S
C403 C407 1.460 . S
C403 H409 0.929 . S
N404 Mn397 2.257 1_655 S
N404 C403 1.326 . S
N404 C408 1.362 . S
C405 C406 1.258 . S
C405 C408 1.431 1_565 S
C405 C425 1.449 . S
C406 C405 1.258 . S
C406 C407 1.477 1_565 S
C406 H426 0.931 . S
C407 C403 1.460 . S
C407 C406 1.477 1_545 S
C407 H427 0.930 . S
C408 N404 1.362 . S
C408 C405 1.431 1_545 S
C408 C418 1.476 . S
H409 C403 0.929 . S
C410 O401 1.250 . S
C410 O402 1.258 . S
O411 Mn396 2.162 . S
O411 C399 1.281 . S
O412 Mn396 2.297 . S
O412 C399 1.236 . S
N413 Mn397 2.286 1_655 S
N413 C414 1.323 1_655 S
N413 C418 1.320 . S
C414 N413 1.323 1_455 S
C414 C415 1.457 1_545 S
C414 H419 0.929 . S
C415 C414 1.457 1_565 S
C415 C416 1.291 1_455 S
C415 H428 0.931 . S
C416 C415 1.291 1_655 S
C416 C417 1.373 . S
C416 H429 0.929 . S
C417 C416 1.373 . S
C417 C418 1.396 1_565 S
C417 C424 1.403 . S
C418 C408 1.476 . S
C418 N413 1.320 . S
C418 C417 1.396 1_545 S
H419 C414 0.929 . S
O420 Mn396 2.385 . S
O420 C398 1.234 . S
O421 Mn396 2.209 . S
O421 Mn397 2.215 1_655 S
O421 C398 1.283 . S
O422 Mn396 2.094 1_455 S
O422 C400 1.240 . S
O423 Mn397 2.117 . S
O423 C400 1.264 . S
C424 C417 1.403 . S
C424 C425 1.399 . S
C424 H430 0.929 . S
C425 C405 1.449 . S
C425 C424 1.399 . S
C425 H431 0.930 . S
H426 C406 0.931 . S
H427 C407 0.930 . S
H428 C415 0.931 . S
H429 C416 0.929 . S
H430 C424 0.929 . S
H431 C425 0.930 . S
Mn432 O437 2.095 . S
Mn432 O447 2.162 . S
Mn432 O448 2.297 . S
Mn432 O456 2.385 . S
Mn432 O457 2.209 . S
Mn432 O458 2.094 . S
Mn433 O438 2.121 . S
Mn433 N440 2.257 . S
Mn433 N449 2.282 . S
Mn433 O457 2.215 . S
Mn433 O459 2.117 . S
C434 O456 1.234 . S
C434 O457 1.283 . S
C435 O447 1.281 . S
C435 O448 1.236 . S
C436 O458 1.240 . S
C436 O459 1.264 . S
O437 Mn432 2.095 . S
O437 C446 1.250 . S
O438 Mn433 2.121 . S
O438 C446 1.258 . S
C439 N440 1.326 . S
C439 C443 1.460 . S
C439 H445 0.929 . S
N440 Mn433 2.257 . S
N440 C439 1.326 . S
N440 C444 1.362 . S
C441 C442 1.258 . S
C441 C444 1.431 . S
C441 C461 1.449 . S
C442 C441 1.258 . S
C442 C443 1.477 . S
C442 H462 0.931 . S
C443 C439 1.460 . S
C443 C442 1.477 . S
C443 H463 0.930 . S
C444 N440 1.362 . S
C444 C441 1.431 . S
C444 C454 1.476 . S
H445 C439 0.929 . S
C446 O437 1.250 . S
C446 O438 1.258 . S
O447 Mn432 2.162 . S
O447 C435 1.281 . S
O448 Mn432 2.297 . S
O448 C435 1.236 . S
N449 Mn433 2.282 . S
N449 C450 1.328 . S
N449 C454 1.318 . S
C450 N449 1.328 . S
C450 C451 1.457 . S
C450 H455 0.929 . S
C451 C450 1.457 . S
C451 C452 1.291 . S
C451 H464 0.931 . S
C452 C451 1.291 . S
C452 C453 1.373 . S
C452 H465 0.929 . S
C453 C452 1.373 . S
C453 C454 1.396 . S
C453 C460 1.403 . S
C454 C444 1.476 . S
C454 N449 1.318 . S
C454 C453 1.396 . S
H455 C450 0.929 . S
O456 Mn432 2.385 . S
O456 C434 1.234 . S
O457 Mn432 2.209 . S
O457 Mn433 2.215 . S
O457 C434 1.283 . S
O458 Mn432 2.094 . S
O458 C436 1.240 . S
O459 Mn433 2.117 . S
O459 C436 1.264 . S
C460 C453 1.403 . S
C460 C461 1.399 . S
C460 H466 0.929 . S
C461 C441 1.449 . S
C461 C460 1.399 . S
C461 H467 0.930 . S
H462 C442 0.931 . S
H463 C443 0.930 . S
H464 C451 0.931 . S
H465 C452 0.929 . S
H466 C460 0.929 . S
H467 C461 0.930 . S
Mn468 O473 2.095 . S
Mn468 O483 2.162 . S
Mn468 O484 2.297 . S
Mn468 O492 2.385 . S
Mn468 O493 2.209 . S
Mn468 O494 2.094 . S
Mn469 O474 2.121 . S
Mn469 N476 2.257 . S
Mn469 N485 2.282 . S
Mn469 O493 2.215 . S
Mn469 O495 2.117 . S
C470 O492 1.234 . S
C470 O493 1.283 . S
C471 O483 1.281 . S
C471 O484 1.236 . S
C472 O494 1.240 . S
C472 O495 1.264 . S
O473 Mn468 2.095 . S
O473 C482 1.250 . S
O474 Mn469 2.121 . S
O474 C482 1.258 . S
C475 N476 1.326 . S
C475 C479 1.460 . S
C475 H481 0.929 . S
N476 Mn469 2.257 . S
N476 C475 1.326 . S
N476 C480 1.362 . S
C477 C478 1.258 . S
C477 C480 1.431 . S
C477 C497 1.449 . S
C478 C477 1.258 . S
C478 C479 1.477 . S
C478 H498 0.931 . S
C479 C475 1.460 . S
C479 C478 1.477 . S
C479 H499 0.930 . S
C480 N476 1.362 . S
C480 C477 1.431 . S
C480 C490 1.476 . S
H481 C475 0.929 . S
C482 O473 1.250 . S
C482 O474 1.258 . S
O483 Mn468 2.162 . S
O483 C471 1.281 . S
O484 Mn468 2.297 . S
O484 C471 1.236 . S
N485 Mn469 2.282 . S
N485 C486 1.328 . S
N485 C490 1.318 . S
C486 N485 1.328 . S
C486 C487 1.457 . S
C486 H491 0.929 . S
C487 C486 1.457 . S
C487 C488 1.291 . S
C487 H500 0.931 . S
C488 C487 1.291 . S
C488 C489 1.373 . S
C488 H501 0.929 . S
C489 C488 1.373 . S
C489 C490 1.396 . S
C489 C496 1.403 . S
C490 C480 1.476 . S
C490 N485 1.318 . S
C490 C489 1.396 . S
H491 C486 0.929 . S
O492 Mn468 2.385 . S
O492 C470 1.234 . S
O493 Mn468 2.209 . S
O493 Mn469 2.215 . S
O493 C470 1.283 . S
O494 Mn468 2.094 . S
O494 C472 1.240 . S
O495 Mn469 2.117 . S
O495 C472 1.264 . S
C496 C489 1.403 . S
C496 C497 1.399 . S
C496 H502 0.929 . S
C497 C477 1.449 . S
C497 C496 1.399 . S
C497 H503 0.930 . S
H498 C478 0.931 . S
H499 C479 0.930 . S
H500 C487 0.931 . S
H501 C488 0.929 . S
H502 C496 0.929 . S
H503 C497 0.930 . S
Mn504 O509 2.095 . S
Mn504 O519 2.162 . S
Mn504 O520 2.297 . S
Mn504 O528 2.385 . S
Mn504 O529 2.209 . S
Mn504 O530 2.094 . S
Mn505 O510 2.121 . S
Mn505 N512 2.257 . S
Mn505 N521 2.282 . S
Mn505 O529 2.215 . S
Mn505 O531 2.117 . S
C506 O528 1.234 . S
C506 O529 1.283 . S
C507 O519 1.281 . S
C507 O520 1.236 . S
C508 O530 1.240 . S
C508 O531 1.264 . S
O509 Mn504 2.095 . S
O509 C518 1.250 . S
O510 Mn505 2.121 . S
O510 C518 1.258 . S
C511 N512 1.326 . S
C511 C515 1.460 . S
C511 H517 0.929 . S
N512 Mn505 2.257 . S
N512 C511 1.326 . S
N512 C516 1.362 . S
C513 C514 1.258 . S
C513 C516 1.431 . S
C513 C533 1.449 . S
C514 C513 1.258 . S
C514 C515 1.477 . S
C514 H534 0.931 . S
C515 C511 1.460 . S
C515 C514 1.477 . S
C515 H535 0.930 . S
C516 N512 1.362 . S
C516 C513 1.431 . S
C516 C526 1.476 . S
H517 C511 0.929 . S
C518 O509 1.250 . S
C518 O510 1.258 . S
O519 Mn504 2.162 . S
O519 C507 1.281 . S
O520 Mn504 2.297 . S
O520 C507 1.236 . S
N521 Mn505 2.282 . S
N521 C522 1.328 . S
N521 C526 1.318 . S
C522 N521 1.328 . S
C522 C523 1.457 . S
C522 H527 0.929 . S
C523 C522 1.457 . S
C523 C524 1.291 . S
C523 H536 0.931 . S
C524 C523 1.291 . S
C524 C525 1.373 . S
C524 H537 0.929 . S
C525 C524 1.373 . S
C525 C526 1.396 . S
C525 C532 1.403 . S
C526 C516 1.476 . S
C526 N521 1.318 . S
C526 C525 1.396 . S
H527 C522 0.929 . S
O528 Mn504 2.385 . S
O528 C506 1.234 . S
O529 Mn504 2.209 . S
O529 Mn505 2.215 . S
O529 C506 1.283 . S
O530 Mn504 2.094 . S
O530 C508 1.240 . S
O531 Mn505 2.117 . S
O531 C508 1.264 . S
C532 C525 1.403 . S
C532 C533 1.399 . S
C532 H538 0.929 . S
C533 C513 1.449 . S
C533 C532 1.399 . S
C533 H539 0.930 . S
H534 C514 0.931 . S
H535 C515 0.930 . S
H536 C523 0.931 . S
H537 C524 0.929 . S
H538 C532 0.929 . S
H539 C533 0.930 . S
Mn540 O545 2.095 . S
Mn540 O555 2.162 . S
Mn540 O556 2.297 . S
Mn540 O564 2.385 . S
Mn540 O565 2.209 . S
Mn540 O566 2.094 . S
Mn541 O546 2.121 . S
Mn541 N548 2.257 . S
Mn541 N557 2.282 . S
Mn541 O565 2.215 . S
Mn541 O567 2.117 . S
C542 O564 1.234 . S
C542 O565 1.283 . S
C543 O555 1.281 . S
C543 O556 1.236 . S
C544 O566 1.240 . S
C544 O567 1.264 . S
O545 Mn540 2.095 . S
O545 C554 1.250 . S
O546 Mn541 2.121 . S
O546 C554 1.258 . S
C547 N548 1.326 . S
C547 C551 1.460 . S
C547 H553 0.929 . S
N548 Mn541 2.257 . S
N548 C547 1.326 . S
N548 C552 1.362 . S
C549 C550 1.258 . S
C549 C552 1.431 . S
C549 C569 1.449 . S
C550 C549 1.258 . S
C550 C551 1.477 . S
C550 H570 0.931 . S
C551 C547 1.460 . S
C551 C550 1.477 . S
C551 H571 0.930 . S
C552 N548 1.362 . S
C552 C549 1.431 . S
C552 C562 1.476 . S
H553 C547 0.929 . S
C554 O545 1.250 . S
C554 O546 1.258 . S
O555 Mn540 2.162 . S
O555 C543 1.281 . S
O556 Mn540 2.297 . S
O556 C543 1.236 . S
N557 Mn541 2.282 . S
N557 C558 1.328 . S
N557 C562 1.318 . S
C558 N557 1.328 . S
C558 C559 1.457 . S
C558 H563 0.929 . S
C559 C558 1.457 . S
C559 C560 1.291 . S
C559 H572 0.931 . S
C560 C559 1.291 . S
C560 C561 1.373 . S
C560 H573 0.929 . S
C561 C560 1.373 . S
C561 C562 1.396 . S
C561 C568 1.403 . S
C562 C552 1.476 . S
C562 N557 1.318 . S
C562 C561 1.396 . S
H563 C558 0.929 . S
O564 Mn540 2.385 . S
O564 C542 1.234 . S
O565 Mn540 2.209 . S
O565 Mn541 2.215 . S
O565 C542 1.283 . S
O566 Mn540 2.094 . S
O566 C544 1.240 . S
O567 Mn541 2.117 . S
O567 C544 1.264 . S
C568 C561 1.403 . S
C568 C569 1.399 . S
C568 H574 0.929 . S
C569 C549 1.449 . S
C569 C568 1.399 . S
C569 H575 0.930 . S
H570 C550 0.931 . S
H571 C551 0.930 . S
H572 C559 0.931 . S
H573 C560 0.929 . S
H574 C568 0.929 . S
H575 C569 0.930 . S
Mn576 O581 2.095 . S
Mn576 O591 2.162 . S
Mn576 O592 2.297 . S
Mn576 O600 2.385 . S
Mn576 O601 2.209 . S
Mn576 O602 2.094 . S
Mn577 O582 2.121 . S
Mn577 N584 2.257 . S
Mn577 N593 2.282 . S
Mn577 O601 2.215 . S
Mn577 O603 2.117 . S
C578 O600 1.234 . S
C578 O601 1.283 . S
C579 O591 1.281 . S
C579 O592 1.236 . S
C580 O602 1.240 . S
C580 O603 1.264 . S
O581 Mn576 2.095 . S
O581 C590 1.250 . S
O582 Mn577 2.121 . S
O582 C590 1.258 . S
C583 N584 1.326 . S
C583 C587 1.460 . S
C583 H589 0.929 . S
N584 Mn577 2.257 . S
N584 C583 1.326 . S
N584 C588 1.362 . S
C585 C586 1.258 . S
C585 C588 1.431 . S
C585 C605 1.449 . S
C586 C585 1.258 . S
C586 C587 1.477 . S
C586 H606 0.931 . S
C587 C583 1.460 . S
C587 C586 1.477 . S
C587 H607 0.930 . S
C588 N584 1.362 . S
C588 C585 1.431 . S
C588 C598 1.476 . S
H589 C583 0.929 . S
C590 O581 1.250 . S
C590 O582 1.258 . S
O591 Mn576 2.162 . S
O591 C579 1.281 . S
O592 Mn576 2.297 . S
O592 C579 1.236 . S
N593 Mn577 2.282 . S
N593 C594 1.328 . S
N593 C598 1.318 . S
C594 N593 1.328 . S
C594 C595 1.457 . S
C594 H599 0.929 . S
C595 C594 1.457 . S
C595 C596 1.291 . S
C595 H608 0.931 . S
C596 C595 1.291 . S
C596 C597 1.373 . S
C596 H609 0.929 . S
C597 C596 1.373 . S
C597 C598 1.396 . S
C597 C604 1.403 . S
C598 C588 1.476 . S
C598 N593 1.318 . S
C598 C597 1.396 . S
H599 C594 0.929 . S
O600 Mn576 2.385 . S
O600 C578 1.234 . S
O601 Mn576 2.209 . S
O601 Mn577 2.215 . S
O601 C578 1.283 . S
O602 Mn576 2.094 . S
O602 C580 1.240 . S
O603 Mn577 2.117 . S
O603 C580 1.264 . S
C604 C597 1.403 . S
C604 C605 1.399 . S
C604 H610 0.929 . S
C605 C585 1.449 . S
C605 C604 1.399 . S
C605 H611 0.930 . S
H606 C586 0.931 . S
H607 C587 0.930 . S
H608 C595 0.931 . S
H609 C596 0.929 . S
H610 C604 0.929 . S
H611 C605 0.930 . S
Mn612 O617 2.095 . S
Mn612 O627 2.162 . S
Mn612 O628 2.297 . S
Mn612 O636 2.385 . S
Mn612 O637 2.209 . S
Mn612 O638 2.094 . S
Mn613 O618 2.121 . S
Mn613 N620 2.257 . S
Mn613 N629 2.282 . S
Mn613 O637 2.215 . S
Mn613 O639 2.117 . S
C614 O636 1.234 . S
C614 O637 1.283 . S
C615 O627 1.281 . S
C615 O628 1.236 . S
C616 O638 1.240 . S
C616 O639 1.264 . S
O617 Mn612 2.095 . S
O617 C626 1.250 . S
O618 Mn613 2.121 . S
O618 C626 1.258 . S
C619 N620 1.326 . S
C619 C623 1.460 . S
C619 H625 0.929 . S
N620 Mn613 2.257 . S
N620 C619 1.326 . S
N620 C624 1.362 . S
C621 C622 1.258 . S
C621 C624 1.431 . S
C621 C641 1.449 . S
C622 C621 1.258 . S
C622 C623 1.477 . S
C622 H642 0.931 . S
C623 C619 1.460 . S
C623 C622 1.477 . S
C623 H643 0.930 . S
C624 N620 1.362 . S
C624 C621 1.431 . S
C624 C634 1.476 . S
H625 C619 0.929 . S
C626 O617 1.250 . S
C626 O618 1.258 . S
O627 Mn612 2.162 . S
O627 C615 1.281 . S
O628 Mn612 2.297 . S
O628 C615 1.236 . S
N629 Mn613 2.282 . S
N629 C630 1.328 . S
N629 C634 1.318 . S
C630 N629 1.328 . S
C630 C631 1.457 . S
C630 H635 0.929 . S
C631 C630 1.457 . S
C631 C632 1.291 . S
C631 H644 0.931 . S
C632 C631 1.291 . S
C632 C633 1.373 . S
C632 H645 0.929 . S
C633 C632 1.373 . S
C633 C634 1.396 . S
C633 C640 1.403 . S
C634 C624 1.476 . S
C634 N629 1.318 . S
C634 C633 1.396 . S
H635 C630 0.929 . S
O636 Mn612 2.385 . S
O636 C614 1.234 . S
O637 Mn612 2.209 . S
O637 Mn613 2.215 . S
O637 C614 1.283 . S
O638 Mn612 2.094 . S
O638 C616 1.240 . S
O639 Mn613 2.117 . S
O639 C616 1.264 . S
C640 C633 1.403 . S
C640 C641 1.399 . S
C640 H646 0.929 . S
C641 C621 1.449 . S
C641 C640 1.399 . S
C641 H647 0.930 . S
H642 C622 0.931 . S
H643 C623 0.930 . S
H644 C631 0.931 . S
H645 C632 0.929 . S
H646 C640 0.929 . S
H647 C641 0.930 . S
Mn648 O653 2.095 . S
Mn648 O663 2.162 . S
Mn648 O664 2.297 . S
Mn648 O672 2.385 . S
Mn648 O673 2.209 . S
Mn648 O674 2.094 . S
Mn649 O654 2.121 . S
Mn649 N656 2.257 . S
Mn649 N665 2.282 . S
Mn649 O673 2.215 . S
Mn649 O675 2.117 . S
C650 O672 1.234 . S
C650 O673 1.283 . S
C651 O663 1.281 . S
C651 O664 1.236 . S
C652 O674 1.240 . S
C652 O675 1.264 . S
O653 Mn648 2.095 . S
O653 C662 1.250 . S
O654 Mn649 2.121 . S
O654 C662 1.258 . S
C655 N656 1.326 . S
C655 C659 1.460 . S
C655 H661 0.929 . S
N656 Mn649 2.257 . S
N656 C655 1.326 . S
N656 C660 1.362 . S
C657 C658 1.258 . S
C657 C660 1.431 . S
C657 C677 1.449 . S
C658 C657 1.258 . S
C658 C659 1.477 . S
C658 H678 0.931 . S
C659 C655 1.460 . S
C659 C658 1.477 . S
C659 H679 0.930 . S
C660 N656 1.362 . S
C660 C657 1.431 . S
C660 C670 1.476 . S
H661 C655 0.929 . S
C662 O653 1.250 . S
C662 O654 1.258 . S
O663 Mn648 2.162 . S
O663 C651 1.281 . S
O664 Mn648 2.297 . S
O664 C651 1.236 . S
N665 Mn649 2.282 . S
N665 C666 1.328 . S
N665 C670 1.318 . S
C666 N665 1.328 . S
C666 C667 1.457 . S
C666 H671 0.929 . S
C667 C666 1.457 . S
C667 C668 1.291 . S
C667 H680 0.931 . S
C668 C667 1.291 . S
C668 C669 1.373 . S
C668 H681 0.929 . S
C669 C668 1.373 . S
C669 C670 1.396 . S
C669 C676 1.403 . S
C670 C660 1.476 . S
C670 N665 1.318 . S
C670 C669 1.396 . S
H671 C666 0.929 . S
O672 Mn648 2.385 . S
O672 C650 1.234 . S
O673 Mn648 2.209 . S
O673 Mn649 2.215 . S
O673 C650 1.283 . S
O674 Mn648 2.094 . S
O674 C652 1.240 . S
O675 Mn649 2.117 . S
O675 C652 1.264 . S
C676 C669 1.403 . S
C676 C677 1.399 . S
C676 H682 0.929 . S
C677 C657 1.449 . S
C677 C676 1.399 . S
C677 H683 0.930 . S
H678 C658 0.931 . S
H679 C659 0.930 . S
H680 C667 0.931 . S
H681 C668 0.929 . S
H682 C676 0.929 . S
H683 C677 0.930 . S
Mn684 O689 2.095 . S
Mn684 O699 2.162 . S
Mn684 O700 2.297 . S
Mn684 O708 2.385 . S
Mn684 O709 2.209 . S
Mn684 O710 2.094 . S
Mn685 O690 2.121 . S
Mn685 N692 2.257 . S
Mn685 N701 2.282 . S
Mn685 O709 2.215 . S
Mn685 O711 2.117 . S
C686 O708 1.234 . S
C686 O709 1.283 . S
C687 O699 1.281 . S
C687 O700 1.236 . S
C688 O710 1.240 . S
C688 O711 1.264 . S
O689 Mn684 2.095 . S
O689 C698 1.250 . S
O690 Mn685 2.121 . S
O690 C698 1.258 . S
C691 N692 1.326 . S
C691 C695 1.460 . S
C691 H697 0.929 . S
N692 Mn685 2.257 . S
N692 C691 1.326 . S
N692 C696 1.362 . S
C693 C694 1.258 . S
C693 C696 1.431 . S
C693 C713 1.449 . S
C694 C693 1.258 . S
C694 C695 1.477 . S
C694 H714 0.931 . S
C695 C691 1.460 . S
C695 C694 1.477 . S
C695 H715 0.930 . S
C696 N692 1.362 . S
C696 C693 1.431 . S
C696 C706 1.476 . S
H697 C691 0.929 . S
C698 O689 1.250 . S
C698 O690 1.258 . S
O699 Mn684 2.162 . S
O699 C687 1.281 . S
O700 Mn684 2.297 . S
O700 C687 1.236 . S
N701 Mn685 2.282 . S
N701 C702 1.328 . S
N701 C706 1.318 . S
C702 N701 1.328 . S
C702 C703 1.457 . S
C702 H707 0.929 . S
C703 C702 1.457 . S
C703 C704 1.291 . S
C703 H716 0.931 . S
C704 C703 1.291 . S
C704 C705 1.373 . S
C704 H717 0.929 . S
C705 C704 1.373 . S
C705 C706 1.396 . S
C705 C712 1.403 . S
C706 C696 1.476 . S
C706 N701 1.318 . S
C706 C705 1.396 . S
H707 C702 0.929 . S
O708 Mn684 2.385 . S
O708 C686 1.234 . S
O709 Mn684 2.209 . S
O709 Mn685 2.215 . S
O709 C686 1.283 . S
O710 Mn684 2.094 . S
O710 C688 1.240 . S
O711 Mn685 2.117 . S
O711 C688 1.264 . S
C712 C705 1.403 . S
C712 C713 1.399 . S
C712 H718 0.929 . S
C713 C693 1.449 . S
C713 C712 1.399 . S
C713 H719 0.930 . S
H714 C694 0.931 . S
H715 C695 0.930 . S
H716 C703 0.931 . S
H717 C704 0.929 . S
H718 C712 0.929 . S
H719 C713 0.930 . S
Mn720 O725 2.095 . S
Mn720 O735 2.162 . S
Mn720 O736 2.297 . S
Mn720 O744 2.385 . S
Mn720 O745 2.209 . S
Mn720 O746 2.094 . S
Mn721 O726 2.121 . S
Mn721 N728 2.257 . S
Mn721 N737 2.282 . S
Mn721 O745 2.215 . S
Mn721 O747 2.117 . S
C722 O744 1.234 . S
C722 O745 1.283 . S
C723 O735 1.281 . S
C723 O736 1.236 . S
C724 O746 1.240 . S
C724 O747 1.264 . S
O725 Mn720 2.095 . S
O725 C734 1.250 . S
O726 Mn721 2.121 . S
O726 C734 1.258 . S
C727 N728 1.326 . S
C727 C731 1.460 . S
C727 H733 0.929 . S
N728 Mn721 2.257 . S
N728 C727 1.326 . S
N728 C732 1.362 . S
C729 C730 1.258 . S
C729 C732 1.431 . S
C729 C749 1.449 . S
C730 C729 1.258 . S
C730 C731 1.477 . S
C730 H750 0.931 . S
C731 C727 1.460 . S
C731 C730 1.477 . S
C731 H751 0.930 . S
C732 N728 1.362 . S
C732 C729 1.431 . S
C732 C742 1.476 . S
H733 C727 0.929 . S
C734 O725 1.250 . S
C734 O726 1.258 . S
O735 Mn720 2.162 . S
O735 C723 1.281 . S
O736 Mn720 2.297 . S
O736 C723 1.236 . S
N737 Mn721 2.282 . S
N737 C738 1.328 . S
N737 C742 1.318 . S
C738 N737 1.328 . S
C738 C739 1.457 . S
C738 H743 0.929 . S
C739 C738 1.457 . S
C739 C740 1.291 . S
C739 H752 0.931 . S
C740 C739 1.291 . S
C740 C741 1.373 . S
C740 H753 0.929 . S
C741 C740 1.373 . S
C741 C742 1.396 . S
C741 C748 1.403 . S
C742 C732 1.476 . S
C742 N737 1.318 . S
C742 C741 1.396 . S
H743 C738 0.929 . S
O744 Mn720 2.385 . S
O744 C722 1.234 . S
O745 Mn720 2.209 . S
O745 Mn721 2.215 . S
O745 C722 1.283 . S
O746 Mn720 2.094 . S
O746 C724 1.240 . S
O747 Mn721 2.117 . S
O747 C724 1.264 . S
C748 C741 1.403 . S
C748 C749 1.399 . S
C748 H754 0.929 . S
C749 C729 1.449 . S
C749 C748 1.399 . S
C749 H755 0.930 . S
H750 C730 0.931 . S
H751 C731 0.930 . S
H752 C739 0.931 . S
H753 C740 0.929 . S
H754 C748 0.929 . S
H755 C749 0.930 . S
Mn756 O761 2.095 . S
Mn756 O771 2.162 1_554 S
Mn756 O772 2.297 . S
Mn756 O780 2.385 1_554 S
Mn756 O781 2.209 . S
Mn756 O782 2.094 1_554 S
Mn757 O762 2.121 . S
Mn757 N764 2.257 . S
Mn757 N773 2.282 . S
Mn757 O781 2.215 . S
Mn757 O783 2.117 . S
C758 O780 1.234 1_554 S
C758 O781 1.283 . S
C759 O771 1.281 . S
C759 O772 1.236 1_556 S
C760 O782 1.240 1_554 S
C760 O783 1.264 . S
O761 Mn756 2.095 . S
O761 C770 1.250 . S
O762 Mn757 2.121 . S
O762 C770 1.258 . S
C763 N764 1.326 . S
C763 C767 1.460 . S
C763 H769 0.929 . S
N764 Mn757 2.257 . S
N764 C763 1.326 . S
N764 C768 1.362 . S
C765 C766 1.258 . S
C765 C768 1.431 . S
C765 C785 1.449 . S
C766 C765 1.258 . S
C766 C767 1.477 . S
C766 H786 0.931 . S
C767 C763 1.460 . S
C767 C766 1.477 . S
C767 H787 0.930 . S
C768 N764 1.362 . S
C768 C765 1.431 . S
C768 C778 1.476 . S
H769 C763 0.929 . S
C770 O761 1.250 . S
C770 O762 1.258 . S
O771 Mn756 2.162 1_556 S
O771 C759 1.281 . S
O772 Mn756 2.297 . S
O772 C759 1.236 1_554 S
N773 Mn757 2.282 . S
N773 C774 1.328 . S
N773 C778 1.318 . S
C774 N773 1.328 . S
C774 C775 1.457 1_554 S
C774 H779 0.929 1_554 S
C775 C774 1.457 1_556 S
C775 C776 1.291 1_556 S
C775 H788 0.931 . S
C776 C775 1.291 1_554 S
C776 C777 1.373 . S
C776 H789 0.923 1_554 S
C777 C776 1.373 . S
C777 C778 1.396 . S
C777 C784 1.403 . S
C778 C768 1.476 . S
C778 N773 1.318 . S
C778 C777 1.396 . S
H779 C774 0.929 1_556 S
O780 Mn756 2.385 1_556 S
O780 C758 1.234 1_556 S
O781 Mn756 2.209 . S
O781 Mn757 2.215 . S
O781 C758 1.283 . S
O782 Mn756 2.094 1_556 S
O782 C760 1.240 1_556 S
O783 Mn757 2.117 . S
O783 C760 1.264 . S
C784 C777 1.403 . S
C784 C785 1.399 . S
C784 H790 0.929 . S
C785 C765 1.449 . S
C785 C784 1.399 . S
C785 H791 0.930 . S
H786 C766 0.931 . S
H787 C767 0.930 . S
H788 C775 0.931 . S
H789 C776 0.923 1_556 S
H790 C784 0.929 . S
H791 C785 0.930 . S
Mn792 O797 2.095 . S
Mn792 O807 2.162 1_554 S
Mn792 O808 2.297 . S
Mn792 O816 2.385 1_554 S
Mn792 O817 2.209 . S
Mn792 O818 2.094 1_554 S
Mn793 O798 2.121 . S
Mn793 N800 2.257 . S
Mn793 N809 2.282 . S
Mn793 O817 2.215 . S
Mn793 O819 2.117 . S
C794 O816 1.234 1_554 S
C794 O817 1.283 . S
C795 O807 1.281 . S
C795 O808 1.236 1_556 S
C796 O818 1.240 1_554 S
C796 O819 1.264 . S
O797 Mn792 2.095 . S
O797 C806 1.250 . S
O798 Mn793 2.121 . S
O798 C806 1.258 . S
C799 N800 1.326 . S
C799 C803 1.460 . S
C799 H805 0.929 . S
N800 Mn793 2.257 . S
N800 C799 1.326 . S
N800 C804 1.362 . S
C801 C802 1.258 . S
C801 C804 1.431 . S
C801 C821 1.449 . S
C802 C801 1.258 . S
C802 C803 1.477 . S
C802 H822 0.931 . S
C803 C799 1.460 . S
C803 C802 1.477 . S
C803 H823 0.930 . S
C804 N800 1.362 . S
C804 C801 1.431 . S
C804 C814 1.476 . S
H805 C799 0.929 . S
C806 O797 1.250 . S
C806 O798 1.258 . S
O807 Mn792 2.162 1_556 S
O807 C795 1.281 . S
O808 Mn792 2.297 . S
O808 C795 1.236 1_554 S
N809 Mn793 2.282 . S
N809 C810 1.328 . S
N809 C814 1.318 . S
C810 N809 1.328 . S
C810 C811 1.457 1_554 S
C810 H815 0.929 1_554 S
C811 C810 1.457 1_556 S
C811 C812 1.291 1_556 S
C811 H824 0.931 . S
C812 C811 1.291 1_554 S
C812 C813 1.373 . S
C812 H825 0.923 1_554 S
C813 C812 1.373 . S
C813 C814 1.396 . S
C813 C820 1.403 . S
C814 C804 1.476 . S
C814 N809 1.318 . S
C814 C813 1.396 . S
H815 C810 0.929 1_556 S
O816 Mn792 2.385 1_556 S
O816 C794 1.234 1_556 S
O817 Mn792 2.209 . S
O817 Mn793 2.215 . S
O817 C794 1.283 . S
O818 Mn792 2.094 1_556 S
O818 C796 1.240 1_556 S
O819 Mn793 2.117 . S
O819 C796 1.264 . S
C820 C813 1.403 . S
C820 C821 1.399 . S
C820 H826 0.929 . S
C821 C801 1.449 . S
C821 C820 1.399 . S
C821 H827 0.930 . S
H822 C802 0.931 . S
H823 C803 0.930 . S
H824 C811 0.931 . S
H825 C812 0.923 1_556 S
H826 C820 0.929 . S
H827 C821 0.930 . S
Mn828 O833 2.095 . S
Mn828 O843 2.162 1_554 S
Mn828 O844 2.297 . S
Mn828 O852 2.385 1_554 S
Mn828 O853 2.209 . S
Mn828 O854 2.094 1_554 S
Mn829 O834 2.121 . S
Mn829 N836 2.257 . S
Mn829 N845 2.282 . S
Mn829 O853 2.215 . S
Mn829 O855 2.117 . S
C830 O852 1.234 1_554 S
C830 O853 1.283 . S
C831 O843 1.281 . S
C831 O844 1.236 1_556 S
C832 O854 1.240 1_554 S
C832 O855 1.264 . S
O833 Mn828 2.095 . S
O833 C842 1.250 . S
O834 Mn829 2.121 . S
O834 C842 1.258 . S
C835 N836 1.326 . S
C835 C839 1.460 . S
C835 H841 0.929 . S
N836 Mn829 2.257 . S
N836 C835 1.326 . S
N836 C840 1.362 . S
C837 C838 1.258 . S
C837 C840 1.431 . S
C837 C857 1.449 . S
C838 C837 1.258 . S
C838 C839 1.477 . S
C838 H858 0.931 . S
C839 C835 1.460 . S
C839 C838 1.477 . S
C839 H859 0.930 . S
C840 N836 1.362 . S
C840 C837 1.431 . S
C840 C850 1.476 . S
H841 C835 0.929 . S
C842 O833 1.250 . S
C842 O834 1.258 . S
O843 Mn828 2.162 1_556 S
O843 C831 1.281 . S
O844 Mn828 2.297 . S
O844 C831 1.236 1_554 S
N845 Mn829 2.282 . S
N845 C846 1.328 . S
N845 C850 1.318 . S
C846 N845 1.328 . S
C846 C847 1.457 1_554 S
C846 H851 0.929 1_554 S
C847 C846 1.457 1_556 S
C847 C848 1.291 1_556 S
C847 H860 0.931 . S
C848 C847 1.291 1_554 S
C848 C849 1.373 . S
C848 H861 0.923 1_554 S
C849 C848 1.373 . S
C849 C850 1.396 . S
C849 C856 1.403 . S
C850 C840 1.476 . S
C850 N845 1.318 . S
C850 C849 1.396 . S
H851 C846 0.929 1_556 S
O852 Mn828 2.385 1_556 S
O852 C830 1.234 1_556 S
O853 Mn828 2.209 . S
O853 Mn829 2.215 . S
O853 C830 1.283 . S
O854 Mn828 2.094 1_556 S
O854 C832 1.240 1_556 S
O855 Mn829 2.117 . S
O855 C832 1.264 . S
C856 C849 1.403 . S
C856 C857 1.399 . S
C856 H862 0.929 . S
C857 C837 1.449 . S
C857 C856 1.399 . S
C857 H863 0.930 . S
H858 C838 0.931 . S
H859 C839 0.930 . S
H860 C847 0.931 . S
H861 C848 0.923 1_556 S
H862 C856 0.929 . S
H863 C857 0.930 . S
Mn864 O869 2.095 . S
Mn864 O879 2.162 . S
Mn864 O880 2.297 . S
Mn864 O888 2.385 . S
Mn864 O889 2.209 . S
Mn864 O890 2.094 . S
Mn865 O870 2.121 . S
Mn865 N872 2.257 . S
Mn865 N881 2.282 . S
Mn865 O889 2.215 . S
Mn865 O891 2.117 . S
C866 O888 1.234 . S
C866 O889 1.283 . S
C867 O879 1.281 . S
C867 O880 1.236 . S
C868 O890 1.240 . S
C868 O891 1.264 . S
O869 Mn864 2.095 . S
O869 C878 1.250 . S
O870 Mn865 2.121 . S
O870 C878 1.258 . S
C871 N872 1.326 . S
C871 C875 1.460 . S
C871 H877 0.929 . S
N872 Mn865 2.257 . S
N872 C871 1.326 . S
N872 C876 1.362 . S
C873 C874 1.258 . S
C873 C876 1.431 . S
C873 C893 1.449 . S
C874 C873 1.258 . S
C874 C875 1.477 . S
C874 H894 0.931 . S
C875 C871 1.460 . S
C875 C874 1.477 . S
C875 H895 0.930 . S
C876 N872 1.362 . S
C876 C873 1.431 . S
C876 C886 1.476 . S
H877 C871 0.929 . S
C878 O869 1.250 . S
C878 O870 1.258 . S
O879 Mn864 2.162 . S
O879 C867 1.281 . S
O880 Mn864 2.297 . S
O880 C867 1.236 . S
N881 Mn865 2.282 . S
N881 C882 1.328 . S
N881 C886 1.318 . S
C882 N881 1.328 . S
C882 C883 1.457 . S
C882 H887 0.929 . S
C883 C882 1.457 . S
C883 C884 1.291 . S
C883 H896 0.931 . S
C884 C883 1.291 . S
C884 C885 1.373 . S
C884 H897 0.929 . S
C885 C884 1.373 . S
C885 C886 1.396 . S
C885 C892 1.403 . S
C886 C876 1.476 . S
C886 N881 1.318 . S
C886 C885 1.396 . S
H887 C882 0.929 . S
O888 Mn864 2.385 . S
O888 C866 1.234 . S
O889 Mn864 2.209 . S
O889 Mn865 2.215 . S
O889 C866 1.283 . S
O890 Mn864 2.094 . S
O890 C868 1.240 . S
O891 Mn865 2.117 . S
O891 C868 1.264 . S
C892 C885 1.403 . S
C892 C893 1.399 . S
C892 H898 0.929 . S
C893 C873 1.449 . S
C893 C892 1.399 . S
C893 H899 0.930 . S
H894 C874 0.931 . S
H895 C875 0.930 . S
H896 C883 0.931 . S
H897 C884 0.929 . S
H898 C892 0.929 . S
H899 C893 0.930 . S
Mn900 O905 2.095 . S
Mn900 O915 2.162 . S
Mn900 O916 2.297 . S
Mn900 O924 2.385 . S
Mn900 O925 2.209 . S
Mn900 O926 2.094 . S
Mn901 O906 2.121 . S
Mn901 N908 2.257 . S
Mn901 N917 2.282 . S
Mn901 O925 2.215 . S
Mn901 O927 2.117 . S
C902 O924 1.234 . S
C902 O925 1.283 . S
C903 O915 1.281 . S
C903 O916 1.236 . S
C904 O926 1.240 . S
C904 O927 1.264 . S
O905 Mn900 2.095 . S
O905 C914 1.250 . S
O906 Mn901 2.121 . S
O906 C914 1.258 . S
C907 N908 1.326 . S
C907 C911 1.460 . S
C907 H913 0.929 . S
N908 Mn901 2.257 . S
N908 C907 1.326 . S
N908 C912 1.362 . S
C909 C910 1.258 . S
C909 C912 1.431 . S
C909 C929 1.449 . S
C910 C909 1.258 . S
C910 C911 1.477 . S
C910 H930 0.931 . S
C911 C907 1.460 . S
C911 C910 1.477 . S
C911 H931 0.930 . S
C912 N908 1.362 . S
C912 C909 1.431 . S
C912 C922 1.476 . S
H913 C907 0.929 . S
C914 O905 1.250 . S
C914 O906 1.258 . S
O915 Mn900 2.162 . S
O915 C903 1.281 . S
O916 Mn900 2.297 . S
O916 C903 1.236 . S
N917 Mn901 2.282 . S
N917 C918 1.328 . S
N917 C922 1.318 . S
C918 N917 1.328 . S
C918 C919 1.457 . S
C918 H923 0.929 . S
C919 C918 1.457 . S
C919 C920 1.291 . S
C919 H932 0.931 . S
C920 C919 1.291 . S
C920 C921 1.373 . S
C920 H933 0.929 . S
C921 C920 1.373 . S
C921 C922 1.396 . S
C921 C928 1.403 . S
C922 C912 1.476 . S
C922 N917 1.318 . S
C922 C921 1.396 . S
H923 C918 0.929 . S
O924 Mn900 2.385 . S
O924 C902 1.234 . S
O925 Mn900 2.209 . S
O925 Mn901 2.215 . S
O925 C902 1.283 . S
O926 Mn900 2.094 . S
O926 C904 1.240 . S
O927 Mn901 2.117 . S
O927 C904 1.264 . S
C928 C921 1.403 . S
C928 C929 1.399 . S
C928 H934 0.929 . S
C929 C909 1.449 . S
C929 C928 1.399 . S
C929 H935 0.930 . S
H930 C910 0.931 . S
H931 C911 0.930 . S
H932 C919 0.931 . S
H933 C920 0.929 . S
H934 C928 0.929 . S
H935 C929 0.930 . S
Mn936 O941 2.095 . S
Mn936 O951 2.162 . S
Mn936 O952 2.297 . S
Mn936 O960 2.385 . S
Mn936 O961 2.209 . S
Mn936 O962 2.094 . S
Mn937 O942 2.121 . S
Mn937 N944 2.257 . S
Mn937 N953 2.282 . S
Mn937 O961 2.215 . S
Mn937 O963 2.117 . S
C938 O960 1.234 . S
C938 O961 1.283 . S
C939 O951 1.281 . S
C939 O952 1.236 . S
C940 O962 1.240 . S
C940 O963 1.264 . S
O941 Mn936 2.095 . S
O941 C950 1.250 . S
O942 Mn937 2.121 . S
O942 C950 1.258 . S
C943 N944 1.326 . S
C943 C947 1.460 . S
C943 H949 0.929 . S
N944 Mn937 2.257 . S
N944 C943 1.326 . S
N944 C948 1.362 . S
C945 C946 1.258 . S
C945 C948 1.431 . S
C945 C965 1.449 . S
C946 C945 1.258 . S
C946 C947 1.477 . S
C946 H966 0.931 . S
C947 C943 1.460 . S
C947 C946 1.477 . S
C947 H967 0.930 . S
C948 N944 1.362 . S
C948 C945 1.431 . S
C948 C958 1.476 . S
H949 C943 0.929 . S
C950 O941 1.250 . S
C950 O942 1.258 . S
O951 Mn936 2.162 . S
O951 C939 1.281 . S
O952 Mn936 2.297 . S
O952 C939 1.236 . S
N953 Mn937 2.282 . S
N953 C954 1.328 . S
N953 C958 1.318 . S
C954 N953 1.328 . S
C954 C955 1.457 . S
C954 H959 0.929 . S
C955 C954 1.457 . S
C955 C956 1.291 . S
C955 H968 0.931 . S
C956 C955 1.291 . S
C956 C957 1.373 . S
C956 H969 0.929 . S
C957 C956 1.373 . S
C957 C958 1.396 . S
C957 C964 1.403 . S
C958 C948 1.476 . S
C958 N953 1.318 . S
C958 C957 1.396 . S
H959 C954 0.929 . S
O960 Mn936 2.385 . S
O960 C938 1.234 . S
O961 Mn936 2.209 . S
O961 Mn937 2.215 . S
O961 C938 1.283 . S
O962 Mn936 2.094 . S
O962 C940 1.240 . S
O963 Mn937 2.117 . S
O963 C940 1.264 . S
C964 C957 1.403 . S
C964 C965 1.399 . S
C964 H970 0.929 . S
C965 C945 1.449 . S
C965 C964 1.399 . S
C965 H971 0.930 . S
H966 C946 0.931 . S
H967 C947 0.930 . S
H968 C955 0.931 . S
H969 C956 0.929 . S
H970 C964 0.929 . S
H971 C965 0.930 . S
Mn972 O977 2.095 . S
Mn972 O987 2.162 1_556 S
Mn972 O988 2.297 . S
Mn972 O996 2.385 1_556 S
Mn972 O997 2.209 . S
Mn972 O998 2.094 1_556 S
Mn973 O978 2.121 . S
Mn973 N980 2.257 . S
Mn973 N989 2.282 . S
Mn973 O997 2.215 . S
Mn973 O999 2.117 . S
C974 O996 1.234 1_556 S
C974 O997 1.283 . S
C975 O987 1.281 1_556 S
C975 O988 1.236 . S
C976 O998 1.234 1_556 S
C976 O999 1.279 . S
O977 Mn972 2.095 . S
O977 C986 1.250 . S
O978 Mn973 2.121 . S
O978 C986 1.258 . S
C979 N980 1.326 . S
C979 C983 1.460 . S
C979 H985 0.929 . S
N980 Mn973 2.257 . S
N980 C979 1.326 . S
N980 C984 1.362 . S
C981 C982 1.258 . S
C981 C984 1.431 . S
C981 C1001 1.449 . S
C982 C981 1.258 . S
C982 C983 1.477 . S
C982 H1002 0.931 . S
C983 C979 1.460 . S
C983 C982 1.477 . S
C983 H1003 0.930 . S
C984 N980 1.362 . S
C984 C981 1.431 . S
C984 C994 1.476 . S
H985 C979 0.929 . S
C986 O977 1.250 . S
C986 O978 1.258 . S
O987 Mn972 2.162 1_554 S
O987 C975 1.281 1_554 S
O988 Mn972 2.297 . S
O988 C975 1.236 . S
N989 Mn973 2.282 . S
N989 C990 1.328 . S
N989 C994 1.318 . S
C990 N989 1.328 . S
C990 C991 1.457 1_556 S
C990 H995 0.929 1_556 S
C991 C990 1.457 1_554 S
C991 C992 1.291 1_554 S
C991 H1004 0.931 . S
C992 C991 1.291 1_556 S
C992 C993 1.373 . S
C992 H1005 0.929 1_556 S
C993 C992 1.373 . S
C993 C994 1.396 . S
C993 C1000 1.403 . S
C994 C984 1.476 . S
C994 N989 1.318 . S
C994 C993 1.396 . S
H995 C990 0.929 1_554 S
O996 Mn972 2.385 1_554 S
O996 C974 1.234 1_554 S
O997 Mn972 2.209 . S
O997 Mn973 2.215 . S
O997 C974 1.283 . S
O998 Mn972 2.094 1_554 S
O998 C976 1.234 1_554 S
O999 Mn973 2.117 . S
O999 C976 1.279 . S
C1000 C993 1.403 . S
C1000 C1001 1.399 . S
C1000 H1006 0.929 . S
C1001 C981 1.449 . S
C1001 C1000 1.399 . S
C1001 H1007 0.930 . S
H1002 C982 0.931 . S
H1003 C983 0.930 . S
H1004 C991 0.931 . S
H1005 C992 0.929 1_554 S
H1006 C1000 0.929 . S
H1007 C1001 0.930 . S
Mn1008 O1013 2.095 . S
Mn1008 O1023 2.162 1_556 S
Mn1008 O1024 2.297 . S
Mn1008 O1032 2.385 1_556 S
Mn1008 O1033 2.209 . S
Mn1008 O1034 2.094 1_556 S
Mn1009 O1014 2.121 . S
Mn1009 N1016 2.257 . S
Mn1009 N1025 2.282 . S
Mn1009 O1033 2.215 . S
Mn1009 O1035 2.117 . S
C1010 O1032 1.234 1_556 S
C1010 O1033 1.283 . S
C1011 O1023 1.281 1_556 S
C1011 O1024 1.236 . S
C1012 O1034 1.234 1_556 S
C1012 O1035 1.278 . S
O1013 Mn1008 2.095 . S
O1013 C1022 1.250 . S
O1014 Mn1009 2.121 . S
O1014 C1022 1.258 . S
C1015 N1016 1.326 . S
C1015 C1019 1.460 . S
C1015 H1021 0.929 . S
N1016 Mn1009 2.257 . S
N1016 C1015 1.326 . S
N1016 C1020 1.362 . S
C1017 C1018 1.258 . S
C1017 C1020 1.431 . S
C1017 C1037 1.449 . S
C1018 C1017 1.258 . S
C1018 C1019 1.477 . S
C1018 H1038 0.931 . S
C1019 C1015 1.460 . S
C1019 C1018 1.477 . S
C1019 H1039 0.930 . S
C1020 N1016 1.362 . S
C1020 C1017 1.431 . S
C1020 C1030 1.476 . S
H1021 C1015 0.929 . S
C1022 O1013 1.250 . S
C1022 O1014 1.258 . S
O1023 Mn1008 2.162 1_554 S
O1023 C1011 1.281 1_554 S
O1024 Mn1008 2.297 . S
O1024 C1011 1.236 . S
N1025 Mn1009 2.282 . S
N1025 C1026 1.328 . S
N1025 C1030 1.318 . S
C1026 N1025 1.328 . S
C1026 C1027 1.457 1_556 S
C1026 H1031 0.929 1_556 S
C1027 C1026 1.457 1_554 S
C1027 C1028 1.291 1_554 S
C1027 H1040 0.931 . S
C1028 C1027 1.291 1_556 S
C1028 C1029 1.373 . S
C1028 H1041 0.929 1_556 S
C1029 C1028 1.373 . S
C1029 C1030 1.396 . S
C1029 C1036 1.403 . S
C1030 C1020 1.476 . S
C1030 N1025 1.318 . S
C1030 C1029 1.396 . S
H1031 C1026 0.929 1_554 S
O1032 Mn1008 2.385 1_554 S
O1032 C1010 1.234 1_554 S
O1033 Mn1008 2.209 . S
O1033 Mn1009 2.215 . S
O1033 C1010 1.283 . S
O1034 Mn1008 2.094 1_554 S
O1034 C1012 1.234 1_554 S
O1035 Mn1009 2.117 . S
O1035 C1012 1.278 . S
C1036 C1029 1.403 . S
C1036 C1037 1.399 . S
C1036 H1042 0.929 . S
C1037 C1017 1.449 . S
C1037 C1036 1.399 . S
C1037 H1043 0.930 . S
H1038 C1018 0.931 . S
H1039 C1019 0.930 . S
H1040 C1027 0.931 . S
H1041 C1028 0.929 1_554 S
H1042 C1036 0.929 . S
H1043 C1037 0.930 . S
Mn1044 O1049 2.095 . S
Mn1044 O1059 2.162 1_556 S
Mn1044 O1060 2.297 . S
Mn1044 O1068 2.385 1_556 S
Mn1044 O1069 2.209 . S
Mn1044 O1070 2.094 1_556 S
Mn1045 O1050 2.121 . S
Mn1045 N1052 2.257 . S
Mn1045 N1061 2.282 . S
Mn1045 O1069 2.215 . S
Mn1045 O1071 2.117 . S
C1046 O1068 1.234 1_556 S
C1046 O1069 1.283 . S
C1047 O1059 1.281 1_556 S
C1047 O1060 1.236 . S
C1048 O1070 1.234 1_556 S
C1048 O1071 1.279 . S
O1049 Mn1044 2.095 . S
O1049 C1058 1.250 . S
O1050 Mn1045 2.121 . S
O1050 C1058 1.258 . S
C1051 N1052 1.326 . S
C1051 C1055 1.460 . S
C1051 H1057 0.929 . S
N1052 Mn1045 2.257 . S
N1052 C1051 1.326 . S
N1052 C1056 1.362 . S
C1053 C1054 1.258 . S
C1053 C1056 1.431 . S
C1053 C1073 1.449 . S
C1054 C1053 1.258 . S
C1054 C1055 1.477 . S
C1054 H1074 0.931 . S
C1055 C1051 1.460 . S
C1055 C1054 1.477 . S
C1055 H1075 0.930 . S
C1056 N1052 1.362 . S
C1056 C1053 1.431 . S
C1056 C1066 1.476 . S
H1057 C1051 0.929 . S
C1058 O1049 1.250 . S
C1058 O1050 1.258 . S
O1059 Mn1044 2.162 1_554 S
O1059 C1047 1.281 1_554 S
O1060 Mn1044 2.297 . S
O1060 C1047 1.236 . S
N1061 Mn1045 2.282 . S
N1061 C1062 1.328 . S
N1061 C1066 1.318 . S
C1062 N1061 1.328 . S
C1062 C1063 1.457 1_556 S
C1062 H1067 0.929 1_556 S
C1063 C1062 1.457 1_554 S
C1063 C1064 1.291 1_554 S
C1063 H1076 0.931 . S
C1064 C1063 1.291 1_556 S
C1064 C1065 1.373 . S
C1064 H1077 0.929 1_556 S
C1065 C1064 1.373 . S
C1065 C1066 1.396 . S
C1065 C1072 1.403 . S
C1066 C1056 1.476 . S
C1066 N1061 1.318 . S
C1066 C1065 1.396 . S
H1067 C1062 0.929 1_554 S
O1068 Mn1044 2.385 1_554 S
O1068 C1046 1.234 1_554 S
O1069 Mn1044 2.209 . S
O1069 Mn1045 2.215 . S
O1069 C1046 1.283 . S
O1070 Mn1044 2.094 1_554 S
O1070 C1048 1.234 1_554 S
O1071 Mn1045 2.117 . S
O1071 C1048 1.279 . S
C1072 C1065 1.403 . S
C1072 C1073 1.399 . S
C1072 H1078 0.929 . S
C1073 C1053 1.449 . S
C1073 C1072 1.399 . S
C1073 H1079 0.930 . S
H1074 C1054 0.931 . S
H1075 C1055 0.930 . S
H1076 C1063 0.931 . S
H1077 C1064 0.929 1_554 S
H1078 C1072 0.929 . S
H1079 C1073 0.930 . S
Mn1080 O1085 2.095 . S
Mn1080 O1095 2.162 . S
Mn1080 O1096 2.297 . S
Mn1080 O1104 2.385 . S
Mn1080 O1105 2.209 . S
Mn1080 O1106 2.094 . S
Mn1081 O1086 2.121 . S
Mn1081 N1088 2.257 . S
Mn1081 N1097 2.282 . S
Mn1081 O1105 2.215 . S
Mn1081 O1107 2.117 . S
C1082 O1104 1.234 . S
C1082 O1105 1.283 . S
C1083 O1095 1.281 . S
C1083 O1096 1.236 . S
C1084 O1106 1.240 . S
C1084 O1107 1.264 . S
O1085 Mn1080 2.095 . S
O1085 C1094 1.250 . S
O1086 Mn1081 2.121 . S
O1086 C1094 1.258 . S
C1087 N1088 1.326 . S
C1087 C1091 1.460 . S
C1087 H1093 0.929 . S
N1088 Mn1081 2.257 . S
N1088 C1087 1.326 . S
N1088 C1092 1.362 . S
C1089 C1090 1.258 . S
C1089 C1092 1.431 . S
C1089 C1109 1.449 . S
C1090 C1089 1.258 . S
C1090 C1091 1.477 . S
C1090 H1110 0.931 . S
C1091 C1087 1.460 . S
C1091 C1090 1.477 . S
C1091 H1111 0.930 . S
C1092 N1088 1.362 . S
C1092 C1089 1.431 . S
C1092 C1102 1.476 . S
H1093 C1087 0.929 . S
C1094 O1085 1.250 . S
C1094 O1086 1.258 . S
O1095 Mn1080 2.162 . S
O1095 C1083 1.281 . S
O1096 Mn1080 2.297 . S
O1096 C1083 1.236 . S
N1097 Mn1081 2.282 . S
N1097 C1098 1.328 . S
N1097 C1102 1.318 . S
C1098 N1097 1.328 . S
C1098 C1099 1.457 . S
C1098 H1103 0.929 . S
C1099 C1098 1.457 . S
C1099 C1100 1.291 . S
C1099 H1112 0.931 . S
C1100 C1099 1.291 . S
C1100 C1101 1.373 . S
C1100 H1113 0.929 . S
C1101 C1100 1.373 . S
C1101 C1102 1.396 . S
C1101 C1108 1.403 . S
C1102 C1092 1.476 . S
C1102 N1097 1.318 . S
C1102 C1101 1.396 . S
H1103 C1098 0.929 . S
O1104 Mn1080 2.385 . S
O1104 C1082 1.234 . S
O1105 Mn1080 2.209 . S
O1105 Mn1081 2.215 . S
O1105 C1082 1.283 . S
O1106 Mn1080 2.094 . S
O1106 C1084 1.240 . S
O1107 Mn1081 2.117 . S
O1107 C1084 1.264 . S
C1108 C1101 1.403 . S
C1108 C1109 1.399 . S
C1108 H1114 0.929 . S
C1109 C1089 1.449 . S
C1109 C1108 1.399 . S
C1109 H1115 0.930 . S
H1110 C1090 0.931 . S
H1111 C1091 0.930 . S
H1112 C1099 0.931 . S
H1113 C1100 0.929 . S
H1114 C1108 0.929 . S
H1115 C1109 0.930 . S
Mn1116 O1121 2.095 . S
Mn1116 O1131 2.162 . S
Mn1116 O1132 2.297 . S
Mn1116 O1140 2.385 . S
Mn1116 O1141 2.209 . S
Mn1116 O1142 2.094 . S
Mn1117 O1122 2.121 . S
Mn1117 N1124 2.257 . S
Mn1117 N1133 2.282 . S
Mn1117 O1141 2.215 . S
Mn1117 O1143 2.117 . S
C1118 O1140 1.234 . S
C1118 O1141 1.283 . S
C1119 O1131 1.281 . S
C1119 O1132 1.236 . S
C1120 O1142 1.240 . S
C1120 O1143 1.264 . S
O1121 Mn1116 2.095 . S
O1121 C1130 1.250 . S
O1122 Mn1117 2.121 . S
O1122 C1130 1.258 . S
C1123 N1124 1.326 . S
C1123 C1127 1.460 . S
C1123 H1129 0.929 . S
N1124 Mn1117 2.257 . S
N1124 C1123 1.326 . S
N1124 C1128 1.362 . S
C1125 C1126 1.258 . S
C1125 C1128 1.431 . S
C1125 C1145 1.449 . S
C1126 C1125 1.258 . S
C1126 C1127 1.477 . S
C1126 H1146 0.931 . S
C1127 C1123 1.460 . S
C1127 C1126 1.477 . S
C1127 H1147 0.930 . S
C1128 N1124 1.362 . S
C1128 C1125 1.431 . S
C1128 C1138 1.476 . S
H1129 C1123 0.929 . S
C1130 O1121 1.250 . S
C1130 O1122 1.258 . S
O1131 Mn1116 2.162 . S
O1131 C1119 1.281 . S
O1132 Mn1116 2.297 . S
O1132 C1119 1.236 . S
N1133 Mn1117 2.282 . S
N1133 C1134 1.328 . S
N1133 C1138 1.318 . S
C1134 N1133 1.328 . S
C1134 C1135 1.457 . S
C1134 H1139 0.929 . S
C1135 C1134 1.457 . S
C1135 C1136 1.291 . S
C1135 H1148 0.931 . S
C1136 C1135 1.291 . S
C1136 C1137 1.373 . S
C1136 H1149 0.929 . S
C1137 C1136 1.373 . S
C1137 C1138 1.396 . S
C1137 C1144 1.403 . S
C1138 C1128 1.476 . S
C1138 N1133 1.318 . S
C1138 C1137 1.396 . S
H1139 C1134 0.929 . S
O1140 Mn1116 2.385 . S
O1140 C1118 1.234 . S
O1141 Mn1116 2.209 . S
O1141 Mn1117 2.215 . S
O1141 C1118 1.283 . S
O1142 Mn1116 2.094 . S
O1142 C1120 1.240 . S
O1143 Mn1117 2.117 . S
O1143 C1120 1.264 . S
C1144 C1137 1.403 . S
C1144 C1145 1.399 . S
C1144 H1150 0.929 . S
C1145 C1125 1.449 . S
C1145 C1144 1.399 . S
C1145 H1151 0.930 . S
H1146 C1126 0.931 . S
H1147 C1127 0.930 . S
H1148 C1135 0.931 . S
H1149 C1136 0.929 . S
H1150 C1144 0.929 . S
H1151 C1145 0.930 . S
Mn1152 O1157 2.095 . S
Mn1152 O1167 2.162 . S
Mn1152 O1168 2.297 . S
Mn1152 O1176 2.385 . S
Mn1152 O1177 2.209 . S
Mn1152 O1178 2.094 . S
Mn1153 O1158 2.121 . S
Mn1153 N1160 2.257 . S
Mn1153 N1169 2.282 . S
Mn1153 O1177 2.215 . S
Mn1153 O1179 2.117 . S
C1154 O1176 1.234 . S
C1154 O1177 1.283 . S
C1155 O1167 1.281 . S
C1155 O1168 1.236 . S
C1156 O1178 1.240 . S
C1156 O1179 1.264 . S
O1157 Mn1152 2.095 . S
O1157 C1166 1.250 . S
O1158 Mn1153 2.121 . S
O1158 C1166 1.258 . S
C1159 N1160 1.326 . S
C1159 C1163 1.460 . S
C1159 H1165 0.929 . S
N1160 Mn1153 2.257 . S
N1160 C1159 1.326 . S
N1160 C1164 1.362 . S
C1161 C1162 1.258 . S
C1161 C1164 1.431 . S
C1161 C1181 1.449 . S
C1162 C1161 1.258 . S
C1162 C1163 1.477 . S
C1162 H1182 0.931 . S
C1163 C1159 1.460 . S
C1163 C1162 1.477 . S
C1163 H1183 0.930 . S
C1164 N1160 1.362 . S
C1164 C1161 1.431 . S
C1164 C1174 1.476 . S
H1165 C1159 0.929 . S
C1166 O1157 1.250 . S
C1166 O1158 1.258 . S
O1167 Mn1152 2.162 . S
O1167 C1155 1.281 . S
O1168 Mn1152 2.297 . S
O1168 C1155 1.236 . S
N1169 Mn1153 2.282 . S
N1169 C1170 1.328 . S
N1169 C1174 1.318 . S
C1170 N1169 1.328 . S
C1170 C1171 1.457 . S
C1170 H1175 0.929 . S
C1171 C1170 1.457 . S
C1171 C1172 1.291 . S
C1171 H1184 0.931 . S
C1172 C1171 1.291 . S
C1172 C1173 1.373 . S
C1172 H1185 0.929 . S
C1173 C1172 1.373 . S
C1173 C1174 1.396 . S
C1173 C1180 1.403 . S
C1174 C1164 1.476 . S
C1174 N1169 1.318 . S
C1174 C1173 1.396 . S
H1175 C1170 0.929 . S
O1176 Mn1152 2.385 . S
O1176 C1154 1.234 . S
O1177 Mn1152 2.209 . S
O1177 Mn1153 2.215 . S
O1177 C1154 1.283 . S
O1178 Mn1152 2.094 . S
O1178 C1156 1.240 . S
O1179 Mn1153 2.117 . S
O1179 C1156 1.264 . S
C1180 C1173 1.403 . S
C1180 C1181 1.399 . S
C1180 H1186 0.929 . S
C1181 C1161 1.449 . S
C1181 C1180 1.399 . S
C1181 H1187 0.930 . S
H1182 C1162 0.931 . S
H1183 C1163 0.930 . S
H1184 C1171 0.931 . S
H1185 C1172 0.929 . S
H1186 C1180 0.929 . S
H1187 C1181 0.930 . S
Mn1188 O1193 2.095 . S
Mn1188 O1203 2.162 . S
Mn1188 O1204 2.297 . S
Mn1188 O1212 2.385 . S
Mn1188 O1213 2.209 . S
Mn1188 O1214 2.094 . S
Mn1189 O1194 2.121 . S
Mn1189 N1196 2.257 . S
Mn1189 N1205 2.282 . S
Mn1189 O1213 2.215 . S
Mn1189 O1215 2.117 . S
C1190 O1212 1.234 . S
C1190 O1213 1.283 . S
C1191 O1203 1.281 . S
C1191 O1204 1.236 . S
C1192 O1214 1.240 . S
C1192 O1215 1.264 . S
O1193 Mn1188 2.095 . S
O1193 C1202 1.250 . S
O1194 Mn1189 2.121 . S
O1194 C1202 1.258 . S
C1195 N1196 1.326 . S
C1195 C1199 1.460 . S
C1195 H1201 0.929 . S
N1196 Mn1189 2.257 . S
N1196 C1195 1.326 . S
N1196 C1200 1.362 . S
C1197 C1198 1.258 . S
C1197 C1200 1.431 . S
C1197 C1217 1.449 . S
C1198 C1197 1.258 . S
C1198 C1199 1.477 . S
C1198 H1218 0.931 . S
C1199 C1195 1.460 . S
C1199 C1198 1.477 . S
C1199 H1219 0.930 . S
C1200 N1196 1.362 . S
C1200 C1197 1.431 . S
C1200 C1210 1.476 . S
H1201 C1195 0.929 . S
C1202 O1193 1.250 . S
C1202 O1194 1.258 . S
O1203 Mn1188 2.162 . S
O1203 C1191 1.281 . S
O1204 Mn1188 2.297 . S
O1204 C1191 1.236 . S
N1205 Mn1189 2.282 . S
N1205 C1206 1.328 . S
N1205 C1210 1.318 . S
C1206 N1205 1.328 . S
C1206 C1207 1.457 . S
C1206 H1211 0.929 . S
C1207 C1206 1.457 . S
C1207 C1208 1.291 . S
C1207 H1220 0.931 . S
C1208 C1207 1.291 . S
C1208 C1209 1.373 . S
C1208 H1221 0.929 . S
C1209 C1208 1.373 . S
C1209 C1210 1.396 . S
C1209 C1216 1.403 . S
C1210 C1200 1.476 . S
C1210 N1205 1.318 . S
C1210 C1209 1.396 . S
H1211 C1206 0.929 . S
O1212 Mn1188 2.385 . S
O1212 C1190 1.234 . S
O1213 Mn1188 2.209 . S
O1213 Mn1189 2.215 . S
O1213 C1190 1.283 . S
O1214 Mn1188 2.094 . S
O1214 C1192 1.240 . S
O1215 Mn1189 2.117 . S
O1215 C1192 1.264 . S
C1216 C1209 1.403 . S
C1216 C1217 1.399 . S
C1216 H1222 0.929 . S
C1217 C1197 1.449 . S
C1217 C1216 1.399 . S
C1217 H1223 0.930 . S
H1218 C1198 0.931 . S
H1219 C1199 0.930 . S
H1220 C1207 0.931 . S
H1221 C1208 0.929 . S
H1222 C1216 0.929 . S
H1223 C1217 0.930 . S
Mn1224 O1229 2.095 . S
Mn1224 O1239 2.162 . S
Mn1224 O1240 2.297 . S
Mn1224 O1248 2.385 . S
Mn1224 O1249 2.209 . S
Mn1224 O1250 2.094 . S
Mn1225 O1230 2.121 . S
Mn1225 N1232 2.257 . S
Mn1225 N1241 2.282 . S
Mn1225 O1249 2.215 . S
Mn1225 O1251 2.117 . S
C1226 O1248 1.234 . S
C1226 O1249 1.283 . S
C1227 O1239 1.281 . S
C1227 O1240 1.236 . S
C1228 O1250 1.240 . S
C1228 O1251 1.264 . S
O1229 Mn1224 2.095 . S
O1229 C1238 1.250 . S
O1230 Mn1225 2.121 . S
O1230 C1238 1.258 . S
C1231 N1232 1.326 . S
C1231 C1235 1.460 . S
C1231 H1237 0.929 . S
N1232 Mn1225 2.257 . S
N1232 C1231 1.326 . S
N1232 C1236 1.362 . S
C1233 C1234 1.258 . S
C1233 C1236 1.431 . S
C1233 C1253 1.449 . S
C1234 C1233 1.258 . S
C1234 C1235 1.477 . S
C1234 H1254 0.931 . S
C1235 C1231 1.460 . S
C1235 C1234 1.477 . S
C1235 H1255 0.930 . S
C1236 N1232 1.362 . S
C1236 C1233 1.431 . S
C1236 C1246 1.476 . S
H1237 C1231 0.929 . S
C1238 O1229 1.250 . S
C1238 O1230 1.258 . S
O1239 Mn1224 2.162 . S
O1239 C1227 1.281 . S
O1240 Mn1224 2.297 . S
O1240 C1227 1.236 . S
N1241 Mn1225 2.282 . S
N1241 C1242 1.328 . S
N1241 C1246 1.318 . S
C1242 N1241 1.328 . S
C1242 C1243 1.457 . S
C1242 H1247 0.929 . S
C1243 C1242 1.457 . S
C1243 C1244 1.291 . S
C1243 H1256 0.931 . S
C1244 C1243 1.291 . S
C1244 C1245 1.373 . S
C1244 H1257 0.929 . S
C1245 C1244 1.373 . S
C1245 C1246 1.396 . S
C1245 C1252 1.403 . S
C1246 C1236 1.476 . S
C1246 N1241 1.318 . S
C1246 C1245 1.396 . S
H1247 C1242 0.929 . S
O1248 Mn1224 2.385 . S
O1248 C1226 1.234 . S
O1249 Mn1224 2.209 . S
O1249 Mn1225 2.215 . S
O1249 C1226 1.283 . S
O1250 Mn1224 2.094 . S
O1250 C1228 1.240 . S
O1251 Mn1225 2.117 . S
O1251 C1228 1.264 . S
C1252 C1245 1.403 . S
C1252 C1253 1.399 . S
C1252 H1258 0.929 . S
C1253 C1233 1.449 . S
C1253 C1252 1.399 . S
C1253 H1259 0.930 . S
H1254 C1234 0.931 . S
H1255 C1235 0.930 . S
H1256 C1243 0.931 . S
H1257 C1244 0.929 . S
H1258 C1252 0.929 . S
H1259 C1253 0.930 . S
Mn1260 O1265 2.095 . S
Mn1260 O1275 2.162 . S
Mn1260 O1276 2.297 . S
Mn1260 O1284 2.385 . S
Mn1260 O1285 2.209 . S
Mn1260 O1286 2.094 . S
Mn1261 O1266 2.121 . S
Mn1261 N1268 2.257 . S
Mn1261 N1277 2.282 . S
Mn1261 O1285 2.215 . S
Mn1261 O1287 2.117 . S
C1262 O1284 1.234 . S
C1262 O1285 1.283 . S
C1263 O1275 1.281 . S
C1263 O1276 1.236 . S
C1264 O1286 1.240 . S
C1264 O1287 1.264 . S
O1265 Mn1260 2.095 . S
O1265 C1274 1.250 . S
O1266 Mn1261 2.121 . S
O1266 C1274 1.258 . S
C1267 N1268 1.326 . S
C1267 C1271 1.460 . S
C1267 H1273 0.929 . S
N1268 Mn1261 2.257 . S
N1268 C1267 1.326 . S
N1268 C1272 1.362 . S
C1269 C1270 1.258 . S
C1269 C1272 1.431 . S
C1269 C1289 1.449 . S
C1270 C1269 1.258 . S
C1270 C1271 1.477 . S
C1270 H1290 0.931 . S
C1271 C1267 1.460 . S
C1271 C1270 1.477 . S
C1271 H1291 0.930 . S
C1272 N1268 1.362 . S
C1272 C1269 1.431 . S
C1272 C1282 1.476 . S
H1273 C1267 0.929 . S
C1274 O1265 1.250 . S
C1274 O1266 1.258 . S
O1275 Mn1260 2.162 . S
O1275 C1263 1.281 . S
O1276 Mn1260 2.297 . S
O1276 C1263 1.236 . S
N1277 Mn1261 2.282 . S
N1277 C1278 1.328 . S
N1277 C1282 1.318 . S
C1278 N1277 1.328 . S
C1278 C1279 1.457 . S
C1278 H1283 0.929 . S
C1279 C1278 1.457 . S
C1279 C1280 1.291 . S
C1279 H1292 0.931 . S
C1280 C1279 1.291 . S
C1280 C1281 1.373 . S
C1280 H1293 0.929 . S
C1281 C1280 1.373 . S
C1281 C1282 1.396 . S
C1281 C1288 1.403 . S
C1282 C1272 1.476 . S
C1282 N1277 1.318 . S
C1282 C1281 1.396 . S
H1283 C1278 0.929 . S
O1284 Mn1260 2.385 . S
O1284 C1262 1.234 . S
O1285 Mn1260 2.209 . S
O1285 Mn1261 2.215 . S
O1285 C1262 1.283 . S
O1286 Mn1260 2.094 . S
O1286 C1264 1.240 . S
O1287 Mn1261 2.117 . S
O1287 C1264 1.264 . S
C1288 C1281 1.403 . S
C1288 C1289 1.399 . S
C1288 H1294 0.929 . S
C1289 C1269 1.449 . S
C1289 C1288 1.399 . S
C1289 H1295 0.930 . S
H1290 C1270 0.931 . S
H1291 C1271 0.930 . S
H1292 C1279 0.931 . S
H1293 C1280 0.929 . S
H1294 C1288 0.929 . S
H1295 C1289 0.930 . S
C1296 C1297 1.369 . S
C1296 C1298 1.419 1_455 S
C1296 H1300 0.930 . S
C1297 C1296 1.369 . S
C1297 C1306 1.429 . S
C1298 C1296 1.419 1_655 S
C1298 C1299 1.363 . S
C1298 H1301 0.929 . S
C1299 C1298 1.363 . S
C1299 C1305 1.416 1_655 S
H1300 C1296 0.930 . S
H1301 C1298 0.929 . S
S1302 N1303 1.613 . S
S1302 N1304 1.610 1_455 S
N1303 S1302 1.613 . S
N1303 C1306 1.350 . S
N1304 S1302 1.610 1_655 S
N1304 C1305 1.356 1_655 S
C1305 C1299 1.416 1_455 S
C1305 N1304 1.356 1_455 S
C1305 C1306 1.443 . S
C1306 C1297 1.429 . S
C1306 N1303 1.350 . S
C1306 C1305 1.443 . S
C1307 C1308 1.369 . S
C1307 C1309 1.419 . S
C1307 H1311 0.930 . S
C1308 C1307 1.369 . S
C1308 C1317 1.429 . S
C1309 C1307 1.419 . S
C1309 C1310 1.363 . S
C1309 H1312 0.929 . S
C1310 C1309 1.363 . S
C1310 C1316 1.428 . S
H1311 C1307 0.930 . S
H1312 C1309 0.929 . S
S1313 N1314 1.613 . S
S1313 N1315 1.610 . S
N1314 S1313 1.613 . S
N1314 C1317 1.350 . S
N1315 S1313 1.610 . S
N1315 C1316 1.351 . S
C1316 C1310 1.428 . S
C1316 N1315 1.351 . S
C1316 C1317 1.434 . S
C1317 C1308 1.429 . S
C1317 N1314 1.350 . S
C1317 C1316 1.434 . S
C1318 C1319 1.369 . S
C1318 C1320 1.419 1_545 S
C1318 H1322 0.930 . S
C1319 C1318 1.369 . S
C1319 C1328 1.429 1_545 S
C1320 C1318 1.419 1_565 S
C1320 C1321 1.363 . S
C1320 H1323 0.929 . S
C1321 C1320 1.363 . S
C1321 C1327 1.428 . S
H1322 C1318 0.930 . S
H1323 C1320 0.929 . S
S1324 N1325 1.613 1_565 S
S1324 N1326 1.610 . S
N1325 S1324 1.613 1_545 S
N1325 C1328 1.350 1_545 S
N1326 S1324 1.610 . S
N1326 C1327 1.351 . S
C1327 C1321 1.428 . S
C1327 N1326 1.351 . S
C1327 C1328 1.434 . S
C1328 C1319 1.429 1_565 S
C1328 N1325 1.350 1_565 S
C1328 C1327 1.434 . S
C1329 C1330 1.369 . S
C1329 C1331 1.421 . S
C1329 H1333 0.930 . S
C1330 C1329 1.369 . S
C1330 C1339 1.429 . S
C1331 C1329 1.421 . S
C1331 C1332 1.360 1_545 S
C1331 H1334 0.930 1_545 S
C1332 C1331 1.360 1_565 S
C1332 C1338 1.428 . S
H1333 C1329 0.930 . S
H1334 C1331 0.930 1_565 S
S1335 N1336 1.613 1_565 S
S1335 N1337 1.610 . S
N1336 S1335 1.613 1_545 S
N1336 C1339 1.350 . S
N1337 S1335 1.610 . S
N1337 C1338 1.351 . S
C1338 C1332 1.428 . S
C1338 N1337 1.351 . S
C1338 C1339 1.434 1_565 S
C1339 C1330 1.429 . S
C1339 N1336 1.350 . S
C1339 C1338 1.434 1_545 S
C1340 C1341 1.369 . S
C1340 C1342 1.419 1_655 S
C1340 H1344 0.930 . S
C1341 C1340 1.369 . S
C1341 C1350 1.429 . S
C1342 C1340 1.419 1_455 S
C1342 C1343 1.363 . S
C1342 H1345 0.929 . S
C1343 C1342 1.363 . S
C1343 C1349 1.428 1_455 S
H1344 C1340 0.930 . S
H1345 C1342 0.929 . S
S1346 N1347 1.613 . S
S1346 N1348 1.610 1_655 S
N1347 S1346 1.613 . S
N1347 C1350 1.350 . S
N1348 S1346 1.610 1_455 S
N1348 C1349 1.351 1_455 S
C1349 C1343 1.428 1_655 S
C1349 N1348 1.351 1_655 S
C1349 C1350 1.434 . S
C1350 C1341 1.429 . S
C1350 N1347 1.350 . S
C1350 C1349 1.434 . S
C1351 C1352 1.369 . S
C1351 C1353 1.419 . S
C1351 H1355 0.930 . S
C1352 C1351 1.369 . S
C1352 C1361 1.429 . S
C1353 C1351 1.419 . S
C1353 C1354 1.363 . S
C1353 H1356 0.929 . S
C1354 C1353 1.363 . S
C1354 C1360 1.428 . S
H1355 C1351 0.930 . S
H1356 C1353 0.929 . S
S1357 N1358 1.613 . S
S1357 N1359 1.610 . S
N1358 S1357 1.613 . S
N1358 C1361 1.350 . S
N1359 S1357 1.610 . S
N1359 C1360 1.351 . S
C1360 C1354 1.428 . S
C1360 N1359 1.351 . S
C1360 C1361 1.434 . S
C1361 C1352 1.429 . S
C1361 N1358 1.350 . S
C1361 C1360 1.434 . S
C1362 C1363 1.369 . S
C1362 C1364 1.419 1_655 S
C1362 H1366 0.930 . S
C1363 C1362 1.369 . S
C1363 C1372 1.429 . S
C1364 C1362 1.419 1_455 S
C1364 C1365 1.363 . S
C1364 H1367 0.929 . S
C1365 C1364 1.363 . S
C1365 C1371 1.428 . S
H1366 C1362 0.930 . S
H1367 C1364 0.929 . S
S1368 N1369 1.613 . S
S1368 N1370 1.610 1_655 S
N1369 S1368 1.613 . S
N1369 C1372 1.350 . S
N1370 S1368 1.610 1_455 S
N1370 C1371 1.351 . S
C1371 C1365 1.428 . S
C1371 N1370 1.351 . S
C1371 C1372 1.434 1_455 S
C1372 C1363 1.429 . S
C1372 N1369 1.350 . S
C1372 C1371 1.434 1_655 S
C1373 C1374 1.369 . S
C1373 C1375 1.419 . S
C1373 H1377 0.930 . S
C1374 C1373 1.369 . S
C1374 C1383 1.429 . S
C1375 C1373 1.419 . S
C1375 C1376 1.363 . S
C1375 H1378 0.929 . S
C1376 C1375 1.363 . S
C1376 C1382 1.428 . S
H1377 C1373 0.930 . S
H1378 C1375 0.929 . S
S1379 N1380 1.613 . S
S1379 N1381 1.610 . S
N1380 S1379 1.613 . S
N1380 C1383 1.350 . S
N1381 S1379 1.610 . S
N1381 C1382 1.351 . S
C1382 C1376 1.428 . S
C1382 N1381 1.351 . S
C1382 C1383 1.434 . S
C1383 C1374 1.429 . S
C1383 N1380 1.350 . S
C1383 C1382 1.434 . S
C1384 C1385 1.369 . S
C1384 C1386 1.419 1_565 S
C1384 H1388 0.930 . S
C1385 C1384 1.369 . S
C1385 C1394 1.429 . S
C1386 C1384 1.419 1_545 S
C1386 C1387 1.363 . S
C1386 H1389 0.929 . S
C1387 C1386 1.363 . S
C1387 C1393 1.428 . S
H1388 C1384 0.930 . S
H1389 C1386 0.929 . S
S1390 N1391 1.613 1_545 S
S1390 N1392 1.610 . S
N1391 S1390 1.613 1_565 S
N1391 C1394 1.350 . S
N1392 S1390 1.610 . S
N1392 C1393 1.351 . S
C1393 C1387 1.428 . S
C1393 N1392 1.351 . S
C1393 C1394 1.434 1_545 S
C1394 C1385 1.429 . S
C1394 N1391 1.350 . S
C1394 C1393 1.434 1_565 S
C1395 C1396 1.369 . S
C1395 C1397 1.419 1_545 S
C1395 H1399 0.930 . S
C1396 C1395 1.369 . S
C1396 C1405 1.429 . S
C1397 C1395 1.419 1_565 S
C1397 C1398 1.363 . S
C1397 H1400 0.929 . S
C1398 C1397 1.363 . S
C1398 C1404 1.428 . S
H1399 C1395 0.930 . S
H1400 C1397 0.929 . S
S1401 N1402 1.613 1_565 S
S1401 N1403 1.610 . S
N1402 S1401 1.613 1_545 S
N1402 C1405 1.350 . S
N1403 S1401 1.610 . S
N1403 C1404 1.351 . S
C1404 C1398 1.428 . S
C1404 N1403 1.351 . S
C1404 C1405 1.434 1_565 S
C1405 C1396 1.429 . S
C1405 N1402 1.350 . S
C1405 C1404 1.434 1_545 S
C1406 C1407 1.369 . S
C1406 C1408 1.419 1_455 S
C1406 H1410 0.930 . S
C1407 C1406 1.369 . S
C1407 C1416 1.429 . S
C1408 C1406 1.419 1_655 S
C1408 C1409 1.363 . S
C1408 H1411 0.929 . S
C1409 C1408 1.363 . S
C1409 C1415 1.428 . S
H1410 C1406 0.930 . S
H1411 C1408 0.929 . S
S1412 N1413 1.613 1_655 S
S1412 N1414 1.610 . S
N1413 S1412 1.613 1_455 S
N1413 C1416 1.350 . S
N1414 S1412 1.610 . S
N1414 C1415 1.351 . S
C1415 C1409 1.428 . S
C1415 N1414 1.351 . S
C1415 C1416 1.434 1_655 S
C1416 C1407 1.429 . S
C1416 N1413 1.350 . S
C1416 C1415 1.434 1_455 S
C1417 C1418 1.369 . S
C1417 C1419 1.419 . S
C1417 H1421 0.930 . S
C1418 C1417 1.369 . S
C1418 C1427 1.429 . S
C1419 C1417 1.419 . S
C1419 C1420 1.363 . S
C1419 H1422 0.929 . S
C1420 C1419 1.363 . S
C1420 C1426 1.428 . S
H1421 C1417 0.930 . S
H1422 C1419 0.929 . S
S1423 N1424 1.613 . S
S1423 N1425 1.610 . S
N1424 S1423 1.613 . S
N1424 C1427 1.350 . S
N1425 S1423 1.610 . S
N1425 C1426 1.351 . S
C1426 C1420 1.428 . S
C1426 N1425 1.351 . S
C1426 C1427 1.434 . S
C1427 C1418 1.429 . S
C1427 N1424 1.350 . S
C1427 C1426 1.434 . S
C1428 C1429 1.369 . S
C1428 C1430 1.419 . S
C1428 H1432 0.930 . S
C1429 C1428 1.369 . S
C1429 C1438 1.429 . S
C1430 C1428 1.419 . S
C1430 C1431 1.363 . S
C1430 H1433 0.929 . S
C1431 C1430 1.363 . S
C1431 C1437 1.428 . S
H1432 C1428 0.930 . S
H1433 C1430 0.929 . S
S1434 N1435 1.613 . S
S1434 N1436 1.610 . S
N1435 S1434 1.613 . S
N1435 C1438 1.350 . S
N1436 S1434 1.610 . S
N1436 C1437 1.351 . S
C1437 C1431 1.428 . S
C1437 N1436 1.351 . S
C1437 C1438 1.434 . S
C1438 C1429 1.429 . S
C1438 N1435 1.350 . S
C1438 C1437 1.434 . S
C1439 C1440 1.369 . S
C1439 C1441 1.419 . S
C1439 H1443 0.930 . S
C1440 C1439 1.369 . S
C1440 C1449 1.429 . S
C1441 C1439 1.419 . S
C1441 C1442 1.363 . S
C1441 H1444 0.929 . S
C1442 C1441 1.363 . S
C1442 C1448 1.428 . S
H1443 C1439 0.930 . S
H1444 C1441 0.929 . S
S1445 N1446 1.613 . S
S1445 N1447 1.610 . S
N1446 S1445 1.613 . S
N1446 C1449 1.350 . S
N1447 S1445 1.610 . S
N1447 C1448 1.351 . S
C1448 C1442 1.428 . S
C1448 N1447 1.351 . S
C1448 C1449 1.434 . S
C1449 C1440 1.429 . S
C1449 N1446 1.350 . S
C1449 C1448 1.434 . S
C1450 C1451 1.369 . S
C1450 C1452 1.419 . S
C1450 H1454 0.930 . S
C1451 C1450 1.369 . S
C1451 C1460 1.429 . S
C1452 C1450 1.419 . S
C1452 C1453 1.363 . S
C1452 H1455 0.929 . S
C1453 C1452 1.363 . S
C1453 C1459 1.428 . S
H1454 C1450 0.930 . S
H1455 C1452 0.929 . S
S1456 N1457 1.613 . S
S1456 N1458 1.610 . S
N1457 S1456 1.613 . S
N1457 C1460 1.350 . S
N1458 S1456 1.610 . S
N1458 C1459 1.351 . S
C1459 C1453 1.428 . S
C1459 N1458 1.351 . S
C1459 C1460 1.434 . S
C1460 C1451 1.429 . S
C1460 N1457 1.350 . S
C1460 C1459 1.434 . S
C1461 C1462 1.369 . S
C1461 C1463 1.419 . S
C1461 H1465 0.930 . S
C1462 C1461 1.369 . S
C1462 C1471 1.429 . S
C1463 C1461 1.419 . S
C1463 C1464 1.363 . S
C1463 H1466 0.929 . S
C1464 C1463 1.363 . S
C1464 C1470 1.428 . S
H1465 C1461 0.930 . S
H1466 C1463 0.929 . S
S1467 N1468 1.613 . S
S1467 N1469 1.610 . S
N1468 S1467 1.613 . S
N1468 C1471 1.350 . S
N1469 S1467 1.610 . S
N1469 C1470 1.351 . S
C1470 C1464 1.428 . S
C1470 N1469 1.351 . S
C1470 C1471 1.434 . S
C1471 C1462 1.429 . S
C1471 N1468 1.350 . S
C1471 C1470 1.434 . S
C1472 C1473 1.369 . S
C1472 C1474 1.419 . S
C1472 H1476 0.930 . S
C1473 C1472 1.369 . S
C1473 C1482 1.429 . S
C1474 C1472 1.419 . S
C1474 C1475 1.363 . S
C1474 H1477 0.929 . S
C1475 C1474 1.363 . S
C1475 C1481 1.428 . S
H1476 C1472 0.930 . S
H1477 C1474 0.929 . S
S1478 N1479 1.613 . S
S1478 N1480 1.610 . S
N1479 S1478 1.613 . S
N1479 C1482 1.350 . S
N1480 S1478 1.610 . S
N1480 C1481 1.351 . S
C1481 C1475 1.428 . S
C1481 N1480 1.351 . S
C1481 C1482 1.434 . S
C1482 C1473 1.429 . S
C1482 N1479 1.350 . S
C1482 C1481 1.434 . S
C1483 C1484 1.369 . S
C1483 C1485 1.419 . S
C1483 H1487 0.930 . S
C1484 C1483 1.369 . S
C1484 C1493 1.429 . S
C1485 C1483 1.419 . S
C1485 C1486 1.363 . S
C1485 H1488 0.929 . S
C1486 C1485 1.363 . S
C1486 C1492 1.428 . S
H1487 C1483 0.930 . S
H1488 C1485 0.929 . S
S1489 N1490 1.613 . S
S1489 N1491 1.610 . S
N1490 S1489 1.613 . S
N1490 C1493 1.350 . S
N1491 S1489 1.610 . S
N1491 C1492 1.351 . S
C1492 C1486 1.428 . S
C1492 N1491 1.351 . S
C1492 C1493 1.434 . S
C1493 C1484 1.429 . S
C1493 N1490 1.350 . S
C1493 C1492 1.434 . S
C1494 C1495 1.369 . S
C1494 C1496 1.419 . S
C1494 H1498 0.930 . S
C1495 C1494 1.369 . S
C1495 C1504 1.429 . S
C1496 C1494 1.419 . S
C1496 C1497 1.363 . S
C1496 H1499 0.929 . S
C1497 C1496 1.363 . S
C1497 C1503 1.428 . S
H1498 C1494 0.930 . S
H1499 C1496 0.929 . S
S1500 N1501 1.613 . S
S1500 N1502 1.610 . S
N1501 S1500 1.613 . S
N1501 C1504 1.350 . S
N1502 S1500 1.610 . S
N1502 C1503 1.351 . S
C1503 C1497 1.428 . S
C1503 N1502 1.351 . S
C1503 C1504 1.434 . S
C1504 C1495 1.429 . S
C1504 N1501 1.350 . S
C1504 C1503 1.434 . S
C1505 C1506 1.369 . S
C1505 C1507 1.419 . S
C1505 H1509 0.930 . S
C1506 C1505 1.369 . S
C1506 C1515 1.429 . S
C1507 C1505 1.419 . S
C1507 C1508 1.363 . S
C1507 H1510 0.929 . S
C1508 C1507 1.363 . S
C1508 C1514 1.428 . S
H1509 C1505 0.930 . S
H1510 C1507 0.929 . S
S1511 N1512 1.613 . S
S1511 N1513 1.610 . S
N1512 S1511 1.613 . S
N1512 C1515 1.350 . S
N1513 S1511 1.610 . S
N1513 C1514 1.351 . S
C1514 C1508 1.428 . S
C1514 N1513 1.351 . S
C1514 C1515 1.434 . S
C1515 C1506 1.429 . S
C1515 N1512 1.350 . S
C1515 C1514 1.434 . S
C1516 C1517 1.369 . S
C1516 C1518 1.419 . S
C1516 H1520 0.930 . S
C1517 C1516 1.369 . S
C1517 C1526 1.429 . S
C1518 C1516 1.419 . S
C1518 C1519 1.363 . S
C1518 H1521 0.929 . S
C1519 C1518 1.363 . S
C1519 C1525 1.428 . S
H1520 C1516 0.930 . S
H1521 C1518 0.929 . S
S1522 N1523 1.613 . S
S1522 N1524 1.610 . S
N1523 S1522 1.613 . S
N1523 C1526 1.350 . S
N1524 S1522 1.610 . S
N1524 C1525 1.351 . S
C1525 C1519 1.428 . S
C1525 N1524 1.351 . S
C1525 C1526 1.434 . S
C1526 C1517 1.429 . S
C1526 N1523 1.350 . S
C1526 C1525 1.434 . S
C1527 C1528 1.369 1_556 S
C1527 C1529 1.419 . S
C1527 H1531 0.930 . S
C1528 C1527 1.369 1_554 S
C1528 C1537 1.429 . S
C1529 C1527 1.419 . S
C1529 C1530 1.363 1_556 S
C1529 H1532 0.929 . S
C1530 C1529 1.363 1_554 S
C1530 C1536 1.428 . S
H1531 C1527 0.930 . S
H1532 C1529 0.929 . S
S1533 N1534 1.613 . S
S1533 N1535 1.610 . S
N1534 S1533 1.613 . S
N1534 C1537 1.350 . S
N1535 S1533 1.610 . S
N1535 C1536 1.351 . S
C1536 C1530 1.428 . S
C1536 N1535 1.351 . S
C1536 C1537 1.434 . S
C1537 C1528 1.429 . S
C1537 N1534 1.350 . S
C1537 C1536 1.434 . S
C1538 C1539 1.369 . S
C1538 C1540 1.419 . S
C1538 H1542 0.930 . S
C1539 C1538 1.369 . S
C1539 C1548 1.428 . S
C1540 C1538 1.419 . S
C1540 C1541 1.363 . S
C1540 H1543 0.929 . S
C1541 C1540 1.363 . S
C1541 C1547 1.428 . S
H1542 C1538 0.930 . S
H1543 C1540 0.929 . S
S1544 N1545 1.616 . S
S1544 N1546 1.610 . S
N1545 S1544 1.616 . S
N1545 C1548 1.350 . S
N1546 S1544 1.610 . S
N1546 C1547 1.351 . S
C1547 C1541 1.428 . S
C1547 N1546 1.351 . S
C1547 C1548 1.438 . S
C1548 C1539 1.428 . S
C1548 N1545 1.350 . S
C1548 C1547 1.438 . S
C1549 C1550 1.369 . S
C1549 C1551 1.419 . S
C1549 H1553 0.930 . S
C1550 C1549 1.369 . S
C1550 C1559 1.429 1_554 S
C1551 C1549 1.419 . S
C1551 C1552 1.357 1_554 S
C1551 H1554 0.929 . S
C1552 C1551 1.357 1_556 S
C1552 C1558 1.434 . S
H1553 C1549 0.930 . S
H1554 C1551 0.929 . S
S1555 N1556 1.613 . S
S1555 N1557 1.610 . S
N1556 S1555 1.613 . S
N1556 C1559 1.350 . S
N1557 S1555 1.610 . S
N1557 C1558 1.351 . S
C1558 C1552 1.434 . S
C1558 N1557 1.351 . S
C1558 C1559 1.434 . S
C1559 C1550 1.429 1_556 S
C1559 N1556 1.350 . S
C1559 C1558 1.434 . S
C1560 C1561 1.369 . S
C1560 C1562 1.419 . S
C1560 H1564 0.930 . S
C1561 C1560 1.369 . S
C1561 C1570 1.429 . S
C1562 C1560 1.419 . S
C1562 C1563 1.363 . S
C1562 H1565 0.929 . S
C1563 C1562 1.363 . S
C1563 C1569 1.428 . S
H1564 C1560 0.930 . S
H1565 C1562 0.929 . S
S1566 N1567 1.613 . S
S1566 N1568 1.610 . S
N1567 S1566 1.613 . S
N1567 C1570 1.350 . S
N1568 S1566 1.610 . S
N1568 C1569 1.351 . S
C1569 C1563 1.428 . S
C1569 N1568 1.351 . S
C1569 C1570 1.434 . S
C1570 C1561 1.429 . S
C1570 N1567 1.350 . S
C1570 C1569 1.434 . S
C1571 C1572 1.369 . S
C1571 C1573 1.419 . S
C1571 H1575 0.930 . S
C1572 C1571 1.369 . S
C1572 C1581 1.429 . S
C1573 C1571 1.419 . S
C1573 C1574 1.363 . S
C1573 H1576 0.929 . S
C1574 C1573 1.363 . S
C1574 C1580 1.428 . S
H1575 C1571 0.930 . S
H1576 C1573 0.929 . S
S1577 N1578 1.613 . S
S1577 N1579 1.610 . S
N1578 S1577 1.613 . S
N1578 C1581 1.350 . S
N1579 S1577 1.610 . S
N1579 C1580 1.351 . S
C1580 C1574 1.428 . S
C1580 N1579 1.351 . S
C1580 C1581 1.434 . S
C1581 C1572 1.429 . S
C1581 N1578 1.350 . S
C1581 C1580 1.434 . S
C1582 C1583 1.369 . S
C1582 C1584 1.419 . S
C1582 H1586 0.930 . S
C1583 C1582 1.369 . S
C1583 C1592 1.429 . S
C1584 C1582 1.419 . S
C1584 C1585 1.363 . S
C1584 H1587 0.929 . S
C1585 C1584 1.363 . S
C1585 C1591 1.428 . S
H1586 C1582 0.930 . S
H1587 C1584 0.929 . S
S1588 N1589 1.613 . S
S1588 N1590 1.610 . S
N1589 S1588 1.613 . S
N1589 C1592 1.350 . S
N1590 S1588 1.610 . S
N1590 C1591 1.351 . S
C1591 C1585 1.428 . S
C1591 N1590 1.351 . S
C1591 C1592 1.434 . S
C1592 C1583 1.429 . S
C1592 N1589 1.350 . S
C1592 C1591 1.434 . S
C1593 C1594 1.369 . S
C1593 C1595 1.419 . S
C1593 H1597 0.930 . S
C1594 C1593 1.369 . S
C1594 C1603 1.429 1_556 S
C1595 C1593 1.419 . S
C1595 C1596 1.360 1_556 S
C1595 H1598 0.929 . S
C1596 C1595 1.360 1_554 S
C1596 C1602 1.431 . S
H1597 C1593 0.930 . S
H1598 C1595 0.929 . S
S1599 N1600 1.613 . S
S1599 N1601 1.610 . S
N1600 S1599 1.613 . S
N1600 C1603 1.350 . S
N1601 S1599 1.610 . S
N1601 C1602 1.351 . S
C1602 C1596 1.431 . S
C1602 N1601 1.351 . S
C1602 C1603 1.434 . S
C1603 C1594 1.429 1_554 S
C1603 N1600 1.350 . S
C1603 C1602 1.434 . S
C1604 C1605 1.369 . S
C1604 C1606 1.418 . S
C1604 H1608 0.930 . S
C1605 C1604 1.369 . S
C1605 C1614 1.429 1_554 S
C1606 C1604 1.418 . S
C1606 C1607 1.364 1_554 S
C1606 H1609 0.929 . S
C1607 C1606 1.364 1_556 S
C1607 C1613 1.428 . S
H1608 C1604 0.930 . S
H1609 C1606 0.929 . S
S1610 N1611 1.613 . S
S1610 N1612 1.610 . S
N1611 S1610 1.613 . S
N1611 C1614 1.350 . S
N1612 S1610 1.610 . S
N1612 C1613 1.351 . S
C1613 C1607 1.428 . S
C1613 N1612 1.351 . S
C1613 C1614 1.434 . S
C1614 C1605 1.429 1_556 S
C1614 N1611 1.350 . S
C1614 C1613 1.434 . S
C1615 C1616 1.369 1_554 S
C1615 C1617 1.419 . S
C1615 H1619 0.930 . S
C1616 C1615 1.369 1_556 S
C1616 C1625 1.429 . S
C1617 C1615 1.419 . S
C1617 C1618 1.365 1_554 S
C1617 H1620 0.929 . S
C1618 C1617 1.365 1_556 S
C1618 C1624 1.426 . S
H1619 C1615 0.930 . S
H1620 C1617 0.929 . S
S1621 N1622 1.613 . S
S1621 N1623 1.610 . S
N1622 S1621 1.613 . S
N1622 C1625 1.350 . S
N1623 S1621 1.610 . S
N1623 C1624 1.351 . S
C1624 C1618 1.426 . S
C1624 N1623 1.351 . S
C1624 C1625 1.434 . S
C1625 C1616 1.429 . S
C1625 N1622 1.350 . S
C1625 C1624 1.434 . S
C1626 C1627 1.369 . S
C1626 C1628 1.419 . S
C1626 H1630 0.930 . S
C1627 C1626 1.369 . S
C1627 C1636 1.429 . S
C1628 C1626 1.419 . S
C1628 C1629 1.363 . S
C1628 H1631 0.929 . S
C1629 C1628 1.363 . S
C1629 C1635 1.428 . S
H1630 C1626 0.930 . S
H1631 C1628 0.929 . S
S1632 N1633 1.613 . S
S1632 N1634 1.610 . S
N1633 S1632 1.613 . S
N1633 C1636 1.350 . S
N1634 S1632 1.610 . S
N1634 C1635 1.351 . S
C1635 C1629 1.428 . S
C1635 N1634 1.351 . S
C1635 C1636 1.434 . S
C1636 C1627 1.429 . S
C1636 N1633 1.350 . S
C1636 C1635 1.434 . S
C1637 C1638 1.369 . S
C1637 C1639 1.419 . S
C1637 H1641 0.930 . S
C1638 C1637 1.369 . S
C1638 C1647 1.429 . S
C1639 C1637 1.419 . S
C1639 C1640 1.363 . S
C1639 H1642 0.929 . S
C1640 C1639 1.363 . S
C1640 C1646 1.428 . S
H1641 C1637 0.930 . S
H1642 C1639 0.929 . S
S1643 N1644 1.613 . S
S1643 N1645 1.610 . S
N1644 S1643 1.613 . S
N1644 C1647 1.350 . S
N1645 S1643 1.610 . S
N1645 C1646 1.351 . S
C1646 C1640 1.428 . S
C1646 N1645 1.351 . S
C1646 C1647 1.434 . S
C1647 C1638 1.429 . S
C1647 N1644 1.350 . S
C1647 C1646 1.434 . S
C1648 C1649 1.369 . S
C1648 C1650 1.419 . S
C1648 H1652 0.930 . S
C1649 C1648 1.369 . S
C1649 C1658 1.429 . S
C1650 C1648 1.419 . S
C1650 C1651 1.363 . S
C1650 H1653 0.929 . S
C1651 C1650 1.363 . S
C1651 C1657 1.428 . S
H1652 C1648 0.930 . S
H1653 C1650 0.929 . S
S1654 N1655 1.613 . S
S1654 N1656 1.610 . S
N1655 S1654 1.613 . S
N1655 C1658 1.350 . S
N1656 S1654 1.610 . S
N1656 C1657 1.351 . S
C1657 C1651 1.428 . S
C1657 N1656 1.351 . S
C1657 C1658 1.434 . S
C1658 C1649 1.429 . S
C1658 N1655 1.350 . S
C1658 C1657 1.434 . S
C1659 C1660 1.369 . S
C1659 C1661 1.419 . S
C1659 H1663 0.930 . S
C1660 C1659 1.369 . S
C1660 C1669 1.429 . S
C1661 C1659 1.419 . S
C1661 C1662 1.363 . S
C1661 H1664 0.929 . S
C1662 C1661 1.363 . S
C1662 C1668 1.428 . S
H1663 C1659 0.930 . S
H1664 C1661 0.929 . S
S1665 N1666 1.613 . S
S1665 N1667 1.610 . S
N1666 S1665 1.613 . S
N1666 C1669 1.350 . S
N1667 S1665 1.610 . S
N1667 C1668 1.351 . S
C1668 C1662 1.428 . S
C1668 N1667 1.351 . S
C1668 C1669 1.434 . S
C1669 C1660 1.429 . S
C1669 N1666 1.350 . S
C1669 C1668 1.434 . S
C1670 C1671 1.369 . S
C1670 C1672 1.419 . S
C1670 H1674 0.930 . S
C1671 C1670 1.369 . S
C1671 C1680 1.429 . S
C1672 C1670 1.419 . S
C1672 C1673 1.363 . S
C1672 H1675 0.929 . S
C1673 C1672 1.363 . S
C1673 C1679 1.428 . S
H1674 C1670 0.930 . S
H1675 C1672 0.929 . S
S1676 N1677 1.613 . S
S1676 N1678 1.610 . S
N1677 S1676 1.613 . S
N1677 C1680 1.350 . S
N1678 S1676 1.610 . S
N1678 C1679 1.351 . S
C1679 C1673 1.428 . S
C1679 N1678 1.351 . S
C1679 C1680 1.434 . S
C1680 C1671 1.429 . S
C1680 N1677 1.350 . S
C1680 C1679 1.434 . S
C1681 C1682 1.369 . S
C1681 C1683 1.419 . S
C1681 H1685 0.930 . S
C1682 C1681 1.369 . S
C1682 C1691 1.429 . S
C1683 C1681 1.419 . S
C1683 C1684 1.363 . S
C1683 H1686 0.929 . S
C1684 C1683 1.363 . S
C1684 C1690 1.428 . S
H1685 C1681 0.930 . S
H1686 C1683 0.929 . S
S1687 N1688 1.613 . S
S1687 N1689 1.610 . S
N1688 S1687 1.613 . S
N1688 C1691 1.350 . S
N1689 S1687 1.610 . S
N1689 C1690 1.351 . S
C1690 C1684 1.428 . S
C1690 N1689 1.351 . S
C1690 C1691 1.434 . S
C1691 C1682 1.429 . S
C1691 N1688 1.350 . S
C1691 C1690 1.434 . S
C1692 C1693 1.369 . S
C1692 C1694 1.419 . S
C1692 H1696 0.930 . S
C1693 C1692 1.369 . S
C1693 C1702 1.429 . S
C1694 C1692 1.419 . S
C1694 C1695 1.363 . S
C1694 H1697 0.929 . S
C1695 C1694 1.363 . S
C1695 C1701 1.428 . S
H1696 C1692 0.930 . S
H1697 C1694 0.929 . S
S1698 N1699 1.613 . S
S1698 N1700 1.610 . S
N1699 S1698 1.613 . S
N1699 C1702 1.350 . S
N1700 S1698 1.610 . S
N1700 C1701 1.351 . S
C1701 C1695 1.428 . S
C1701 N1700 1.351 . S
C1701 C1702 1.434 . S
C1702 C1693 1.429 . S
C1702 N1699 1.350 . S
C1702 C1701 1.434 . S
C1703 C1704 1.369 1_545 S
C1703 C1705 1.419 . S
C1703 H1707 0.930 . S
C1704 C1703 1.369 1_565 S
C1704 C1713 1.429 . S
C1705 C1703 1.419 . S
C1705 C1706 1.363 . S
C1705 H1708 0.929 . S
C1706 C1705 1.363 . S
C1706 C1712 1.428 1_545 S
H1707 C1703 0.930 . S
H1708 C1705 0.929 . S
S1709 N1710 1.613 . S
S1709 N1711 1.610 . S
N1710 S1709 1.613 . S
N1710 C1713 1.350 . S
N1711 S1709 1.610 . S
N1711 C1712 1.351 . S
C1712 C1706 1.428 1_565 S
C1712 N1711 1.351 . S
C1712 C1713 1.434 . S
C1713 C1704 1.429 . S
C1713 N1710 1.350 . S
C1713 C1712 1.434 . S
C1714 C1715 1.369 1_455 S
C1714 C1716 1.419 . S
C1714 H1718 0.930 . S
C1715 C1714 1.369 1_655 S
C1715 C1724 1.429 . S
C1716 C1714 1.419 . S
C1716 C1717 1.363 . S
C1716 H1719 0.929 . S
C1717 C1716 1.363 . S
C1717 C1723 1.428 1_455 S
H1718 C1714 0.930 . S
H1719 C1716 0.929 . S
S1720 N1721 1.613 . S
S1720 N1722 1.610 . S
N1721 S1720 1.613 . S
N1721 C1724 1.350 . S
N1722 S1720 1.610 . S
N1722 C1723 1.351 . S
C1723 C1717 1.428 1_655 S
C1723 N1722 1.351 . S
C1723 C1724 1.434 . S
C1724 C1715 1.429 . S
C1724 N1721 1.350 . S
C1724 C1723 1.434 . S
C1725 C1726 1.369 . S
C1725 C1727 1.419 . S
C1725 H1729 0.930 . S
C1726 C1725 1.369 . S
C1726 C1735 1.429 . S
C1727 C1725 1.419 . S
C1727 C1728 1.363 . S
C1727 H1730 0.929 . S
C1728 C1727 1.363 . S
C1728 C1734 1.428 . S
H1729 C1725 0.930 . S
H1730 C1727 0.929 . S
S1731 N1732 1.613 . S
S1731 N1733 1.610 . S
N1732 S1731 1.613 . S
N1732 C1735 1.350 . S
N1733 S1731 1.610 . S
N1733 C1734 1.351 . S
C1734 C1728 1.428 . S
C1734 N1733 1.351 . S
C1734 C1735 1.434 . S
C1735 C1726 1.429 . S
C1735 N1732 1.350 . S
C1735 C1734 1.434 . S
C1736 C1737 1.369 1_565 S
C1736 C1738 1.419 . S
C1736 H1740 0.930 . S
C1737 C1736 1.369 1_545 S
C1737 C1746 1.429 . S
C1738 C1736 1.419 . S
C1738 C1739 1.363 . S
C1738 H1741 0.929 . S
C1739 C1738 1.363 . S
C1739 C1745 1.428 1_565 S
H1740 C1736 0.930 . S
H1741 C1738 0.929 . S
S1742 N1743 1.613 . S
S1742 N1744 1.610 . S
N1743 S1742 1.613 . S
N1743 C1746 1.350 . S
N1744 S1742 1.610 . S
N1744 C1745 1.351 . S
C1745 C1739 1.428 1_545 S
C1745 N1744 1.351 . S
C1745 C1746 1.434 . S
C1746 C1737 1.429 . S
C1746 N1743 1.350 . S
C1746 C1745 1.434 . S
C1747 C1748 1.369 . S
C1747 C1749 1.419 . S
C1747 H1751 0.930 . S
C1748 C1747 1.369 . S
C1748 C1757 1.433 . S
C1749 C1747 1.419 . S
C1749 C1750 1.362 1_455 S
C1749 H1752 0.919 . S
C1750 C1749 1.362 1_655 S
C1750 C1756 1.428 . S
H1751 C1747 0.930 . S
H1752 C1749 0.919 . S
S1753 N1754 1.615 . S
S1753 N1755 1.612 1_455 S
N1754 S1753 1.615 . S
N1754 C1757 1.346 . S
N1755 S1753 1.612 1_655 S
N1755 C1756 1.351 . S
C1756 C1750 1.428 . S
C1756 N1755 1.351 . S
C1756 C1757 1.434 1_655 S
C1757 C1748 1.433 . S
C1757 N1754 1.346 . S
C1757 C1756 1.434 1_455 S
C1758 C1759 1.369 . S
C1758 C1760 1.419 . S
C1758 H1762 0.930 . S
C1759 C1758 1.369 . S
C1759 C1768 1.429 . S
C1760 C1758 1.419 . S
C1760 C1761 1.363 . S
C1760 H1763 0.929 . S
C1761 C1760 1.363 . S
C1761 C1767 1.428 . S
H1762 C1758 0.930 . S
H1763 C1760 0.929 . S
S1764 N1765 1.613 . S
S1764 N1766 1.610 . S
N1765 S1764 1.613 . S
N1765 C1768 1.350 . S
N1766 S1764 1.610 . S
N1766 C1767 1.351 . S
C1767 C1761 1.428 . S
C1767 N1766 1.351 . S
C1767 C1768 1.434 . S
C1768 C1759 1.429 . S
C1768 N1765 1.350 . S
C1768 C1767 1.434 . S
C1769 C1770 1.369 . S
C1769 C1771 1.419 . S
C1769 H1773 0.930 . S
C1770 C1769 1.369 . S
C1770 C1779 1.429 . S
C1771 C1769 1.419 . S
C1771 C1772 1.363 . S
C1771 H1774 0.929 . S
C1772 C1771 1.363 . S
C1772 C1778 1.428 . S
H1773 C1769 0.930 . S
H1774 C1771 0.929 . S
S1775 N1776 1.613 . S
S1775 N1777 1.610 . S
N1776 S1775 1.613 . S
N1776 C1779 1.350 . S
N1777 S1775 1.610 . S
N1777 C1778 1.351 . S
C1778 C1772 1.428 . S
C1778 N1777 1.351 . S
C1778 C1779 1.434 . S
C1779 C1770 1.429 . S
C1779 N1776 1.350 . S
C1779 C1778 1.434 . S
C1780 C1781 1.369 . S
C1780 C1782 1.419 . S
C1780 H1784 0.930 . S
C1781 C1780 1.369 . S
C1781 C1790 1.429 . S
C1782 C1780 1.419 . S
C1782 C1783 1.363 . S
C1782 H1785 0.929 . S
C1783 C1782 1.363 . S
C1783 C1789 1.428 . S
H1784 C1780 0.930 . S
H1785 C1782 0.929 . S
S1786 N1787 1.613 . S
S1786 N1788 1.610 . S
N1787 S1786 1.613 . S
N1787 C1790 1.350 . S
N1788 S1786 1.610 . S
N1788 C1789 1.351 . S
C1789 C1783 1.428 . S
C1789 N1788 1.351 . S
C1789 C1790 1.434 . S
C1790 C1781 1.429 . S
C1790 N1787 1.350 . S
C1790 C1789 1.434 . S
C1791 C1792 1.369 . S
C1791 C1793 1.419 . S
C1791 H1795 0.930 . S
C1792 C1791 1.369 . S
C1792 C1801 1.429 . S
C1793 C1791 1.419 . S
C1793 C1794 1.363 . S
C1793 H1796 0.929 . S
C1794 C1793 1.363 . S
C1794 C1800 1.428 . S
H1795 C1791 0.930 . S
H1796 C1793 0.929 . S
S1797 N1798 1.613 . S
S1797 N1799 1.610 . S
N1798 S1797 1.613 . S
N1798 C1801 1.350 . S
N1799 S1797 1.610 . S
N1799 C1800 1.351 . S
C1800 C1794 1.428 . S
C1800 N1799 1.351 . S
C1800 C1801 1.434 . S
C1801 C1792 1.429 . S
C1801 N1798 1.350 . S
C1801 C1800 1.434 . S
C1802 C1803 1.369 . S
C1802 C1804 1.419 . S
C1802 H1806 0.930 . S
C1803 C1802 1.369 . S
C1803 C1812 1.429 . S
C1804 C1802 1.419 . S
C1804 C1805 1.363 . S
C1804 H1807 0.929 . S
C1805 C1804 1.363 . S
C1805 C1811 1.428 . S
H1806 C1802 0.930 . S
H1807 C1804 0.929 . S
S1808 N1809 1.613 . S
S1808 N1810 1.610 . S
N1809 S1808 1.613 . S
N1809 C1812 1.350 . S
N1810 S1808 1.610 . S
N1810 C1811 1.351 . S
C1811 C1805 1.428 . S
C1811 N1810 1.351 . S
C1811 C1812 1.434 . S
C1812 C1803 1.429 . S
C1812 N1809 1.350 . S
C1812 C1811 1.434 . S
C1813 C1814 1.369 . S
C1813 C1815 1.419 . S
C1813 H1817 0.930 . S
C1814 C1813 1.369 . S
C1814 C1823 1.429 . S
C1815 C1813 1.419 . S
C1815 C1816 1.363 . S
C1815 H1818 0.929 . S
C1816 C1815 1.363 . S
C1816 C1822 1.428 . S
H1817 C1813 0.930 . S
H1818 C1815 0.929 . S
S1819 N1820 1.613 . S
S1819 N1821 1.610 . S
N1820 S1819 1.613 . S
N1820 C1823 1.350 . S
N1821 S1819 1.610 . S
N1821 C1822 1.351 . S
C1822 C1816 1.428 . S
C1822 N1821 1.351 . S
C1822 C1823 1.434 . S
C1823 C1814 1.429 . S
C1823 N1820 1.350 . S
C1823 C1822 1.434 . S
C1824 C1825 1.369 . S
C1824 C1826 1.419 . S
C1824 H1828 0.930 . S
C1825 C1824 1.369 . S
C1825 C1834 1.429 . S
C1826 C1824 1.419 . S
C1826 C1827 1.363 . S
C1826 H1829 0.929 . S
C1827 C1826 1.363 . S
C1827 C1833 1.428 . S
H1828 C1824 0.930 . S
H1829 C1826 0.929 . S
S1830 N1831 1.613 . S
S1830 N1832 1.610 . S
N1831 S1830 1.613 . S
N1831 C1834 1.350 . S
N1832 S1830 1.610 . S
N1832 C1833 1.351 . S
C1833 C1827 1.428 . S
C1833 N1832 1.351 . S
C1833 C1834 1.434 . S
C1834 C1825 1.429 . S
C1834 N1831 1.350 . S
C1834 C1833 1.434 . S
C1835 C1836 1.369 . S
C1835 C1837 1.419 . S
C1835 H1839 0.930 . S
C1836 C1835 1.369 . S
C1836 C1845 1.429 . S
C1837 C1835 1.419 . S
C1837 C1838 1.363 . S
C1837 H1840 0.929 . S
C1838 C1837 1.363 . S
C1838 C1844 1.428 . S
H1839 C1835 0.930 . S
H1840 C1837 0.929 . S
S1841 N1842 1.613 . S
S1841 N1843 1.610 . S
N1842 S1841 1.613 . S
N1842 C1845 1.350 . S
N1843 S1841 1.610 . S
N1843 C1844 1.351 . S
C1844 C1838 1.428 . S
C1844 N1843 1.351 . S
C1844 C1845 1.434 . S
C1845 C1836 1.429 . S
C1845 N1842 1.350 . S
C1845 C1844 1.434 . S
C1846 C1847 1.369 . S
C1846 C1848 1.419 . S
C1846 H1850 0.930 . S
C1847 C1846 1.369 . S
C1847 C1856 1.429 . S
C1848 C1846 1.419 . S
C1848 C1849 1.363 . S
C1848 H1851 0.929 . S
C1849 C1848 1.363 . S
C1849 C1855 1.428 . S
H1850 C1846 0.930 . S
H1851 C1848 0.929 . S
S1852 N1853 1.613 . S
S1852 N1854 1.610 . S
N1853 S1852 1.613 . S
N1853 C1856 1.350 . S
N1854 S1852 1.610 . S
N1854 C1855 1.351 . S
C1855 C1849 1.428 . S
C1855 N1854 1.351 . S
C1855 C1856 1.434 . S
C1856 C1847 1.429 . S
C1856 N1853 1.350 . S
C1856 C1855 1.434 . S
C1857 C1858 1.369 . S
C1857 C1859 1.419 . S
C1857 H1861 0.930 . S
C1858 C1857 1.369 . S
C1858 C1867 1.429 . S
C1859 C1857 1.419 . S
C1859 C1860 1.363 . S
C1859 H1862 0.929 . S
C1860 C1859 1.363 . S
C1860 C1866 1.428 . S
H1861 C1857 0.930 . S
H1862 C1859 0.929 . S
S1863 N1864 1.613 . S
S1863 N1865 1.610 . S
N1864 S1863 1.613 . S
N1864 C1867 1.350 . S
N1865 S1863 1.610 . S
N1865 C1866 1.351 . S
C1866 C1860 1.428 . S
C1866 N1865 1.351 . S
C1866 C1867 1.434 . S
C1867 C1858 1.429 . S
C1867 N1864 1.350 . S
C1867 C1866 1.434 . S
C1868 C1869 1.369 . S
C1868 C1870 1.419 . S
C1868 H1872 0.930 . S
C1869 C1868 1.369 . S
C1869 C1878 1.429 . S
C1870 C1868 1.419 . S
C1870 C1871 1.363 . S
C1870 H1873 0.929 . S
C1871 C1870 1.363 . S
C1871 C1877 1.428 . S
H1872 C1868 0.930 . S
H1873 C1870 0.929 . S
S1874 N1875 1.613 . S
S1874 N1876 1.610 . S
N1875 S1874 1.613 . S
N1875 C1878 1.350 . S
N1876 S1874 1.610 . S
N1876 C1877 1.351 . S
C1877 C1871 1.428 . S
C1877 N1876 1.351 . S
C1877 C1878 1.434 . S
C1878 C1869 1.429 . S
C1878 N1875 1.350 . S
C1878 C1877 1.434 . S
C1879 C1880 1.369 . S
C1879 C1881 1.419 . S
C1879 H1883 0.930 . S
C1880 C1879 1.369 . S
C1880 C1889 1.429 . S
C1881 C1879 1.419 . S
C1881 C1882 1.363 . S
C1881 H1884 0.929 . S
C1882 C1881 1.363 . S
C1882 C1888 1.428 . S
H1883 C1879 0.930 . S
H1884 C1881 0.929 . S
S1885 N1886 1.613 . S
S1885 N1887 1.610 . S
N1886 S1885 1.613 . S
N1886 C1889 1.350 . S
N1887 S1885 1.610 . S
N1887 C1888 1.351 . S
C1888 C1882 1.428 . S
C1888 N1887 1.351 . S
C1888 C1889 1.434 . S
C1889 C1880 1.429 . S
C1889 N1886 1.350 . S
C1889 C1888 1.434 . S
C1890 C1891 1.369 . S
C1890 C1892 1.419 . S
C1890 H1894 0.930 . S
C1891 C1890 1.369 . S
C1891 C1900 1.429 . S
C1892 C1890 1.419 . S
C1892 C1893 1.363 . S
C1892 H1895 0.929 . S
C1893 C1892 1.363 . S
C1893 C1899 1.428 . S
H1894 C1890 0.930 . S
H1895 C1892 0.929 . S
S1896 N1897 1.613 . S
S1896 N1898 1.610 . S
N1897 S1896 1.613 . S
N1897 C1900 1.350 . S
N1898 S1896 1.610 . S
N1898 C1899 1.351 . S
C1899 C1893 1.428 . S
C1899 N1898 1.351 . S
C1899 C1900 1.434 . S
C1900 C1891 1.429 . S
C1900 N1897 1.350 . S
C1900 C1899 1.434 . S
C1901 C1902 1.369 . S
C1901 C1903 1.419 . S
C1901 H1905 0.930 . S
C1902 C1901 1.369 . S
C1902 C1911 1.429 . S
C1903 C1901 1.419 . S
C1903 C1904 1.363 . S
C1903 H1906 0.929 . S
C1904 C1903 1.363 . S
C1904 C1910 1.428 . S
H1905 C1901 0.930 . S
H1906 C1903 0.929 . S
S1907 N1908 1.613 . S
S1907 N1909 1.610 . S
N1908 S1907 1.613 . S
N1908 C1911 1.350 . S
N1909 S1907 1.610 . S
N1909 C1910 1.351 . S
C1910 C1904 1.428 . S
C1910 N1909 1.351 . S
C1910 C1911 1.434 . S
C1911 C1902 1.429 . S
C1911 N1908 1.350 . S
C1911 C1910 1.434 . S
C1912 C1913 1.369 . S
C1912 C1914 1.419 . S
C1912 H1916 0.930 . S
C1913 C1912 1.369 . S
C1913 C1922 1.429 . S
C1914 C1912 1.419 . S
C1914 C1915 1.363 . S
C1914 H1917 0.929 . S
C1915 C1914 1.363 . S
C1915 C1921 1.428 . S
H1916 C1912 0.930 . S
H1917 C1914 0.929 . S
S1918 N1919 1.613 . S
S1918 N1920 1.610 . S
N1919 S1918 1.613 . S
N1919 C1922 1.350 . S
N1920 S1918 1.610 . S
N1920 C1921 1.351 . S
C1921 C1915 1.428 . S
C1921 N1920 1.351 . S
C1921 C1922 1.434 . S
C1922 C1913 1.429 . S
C1922 N1919 1.350 . S
C1922 C1921 1.434 . S
C1923 C1924 1.369 . S
C1923 C1925 1.419 . S
C1923 H1927 0.930 . S
C1924 C1923 1.369 . S
C1924 C1933 1.429 . S
C1925 C1923 1.419 . S
C1925 C1926 1.363 . S
C1925 H1928 0.929 . S
C1926 C1925 1.363 . S
C1926 C1932 1.428 . S
H1927 C1923 0.930 . S
H1928 C1925 0.929 . S
S1929 N1930 1.613 . S
S1929 N1931 1.610 . S
N1930 S1929 1.613 . S
N1930 C1933 1.350 . S
N1931 S1929 1.610 . S
N1931 C1932 1.351 . S
C1932 C1926 1.428 . S
C1932 N1931 1.351 . S
C1932 C1933 1.434 . S
C1933 C1924 1.429 . S
C1933 N1930 1.350 . S
C1933 C1932 1.434 . S
C1934 C1935 1.369 . S
C1934 C1936 1.419 . S
C1934 H1938 0.930 . S
C1935 C1934 1.369 . S
C1935 C1944 1.429 . S
C1936 C1934 1.419 . S
C1936 C1937 1.363 . S
C1936 H1939 0.929 . S
C1937 C1936 1.363 . S
C1937 C1943 1.428 . S
H1938 C1934 0.930 . S
H1939 C1936 0.929 . S
S1940 N1941 1.613 . S
S1940 N1942 1.610 . S
N1941 S1940 1.613 . S
N1941 C1944 1.350 . S
N1942 S1940 1.610 . S
N1942 C1943 1.351 . S
C1943 C1937 1.428 . S
C1943 N1942 1.351 . S
C1943 C1944 1.434 . S
C1944 C1935 1.429 . S
C1944 N1941 1.350 . S
C1944 C1943 1.434 . S
C1945 C1946 1.369 . S
C1945 C1947 1.419 . S
C1945 H1949 0.930 . S
C1946 C1945 1.369 . S
C1946 C1955 1.429 . S
C1947 C1945 1.419 . S
C1947 C1948 1.363 . S
C1947 H1950 0.929 . S
C1948 C1947 1.363 . S
C1948 C1954 1.428 . S
H1949 C1945 0.930 . S
H1950 C1947 0.929 . S
S1951 N1952 1.613 . S
S1951 N1953 1.610 . S
N1952 S1951 1.613 . S
N1952 C1955 1.350 . S
N1953 S1951 1.610 . S
N1953 C1954 1.351 . S
C1954 C1948 1.428 . S
C1954 N1953 1.351 . S
C1954 C1955 1.434 . S
C1955 C1946 1.429 . S
C1955 N1952 1.350 . S
C1955 C1954 1.434 . S
C1956 C1957 1.369 . S
C1956 C1958 1.419 . S
C1956 H1960 0.930 . S
C1957 C1956 1.369 . S
C1957 C1966 1.429 . S
C1958 C1956 1.419 . S
C1958 C1959 1.363 . S
C1958 H1961 0.929 . S
C1959 C1958 1.363 . S
C1959 C1965 1.428 . S
H1960 C1956 0.930 . S
H1961 C1958 0.929 . S
S1962 N1963 1.613 . S
S1962 N1964 1.610 . S
N1963 S1962 1.613 . S
N1963 C1966 1.350 . S
N1964 S1962 1.610 . S
N1964 C1965 1.351 . S
C1965 C1959 1.428 . S
C1965 N1964 1.351 . S
C1965 C1966 1.434 . S
C1966 C1957 1.429 . S
C1966 N1963 1.350 . S
C1966 C1965 1.434 . S
C1967 C1968 1.369 . S
C1967 C1969 1.419 . S
C1967 H1971 0.930 . S
C1968 C1967 1.369 . S
C1968 C1977 1.429 . S
C1969 C1967 1.419 . S
C1969 C1970 1.363 . S
C1969 H1972 0.929 . S
C1970 C1969 1.363 . S
C1970 C1976 1.428 . S
H1971 C1967 0.930 . S
H1972 C1969 0.929 . S
S1973 N1974 1.613 . S
S1973 N1975 1.610 . S
N1974 S1973 1.613 . S
N1974 C1977 1.350 . S
N1975 S1973 1.610 . S
N1975 C1976 1.351 . S
C1976 C1970 1.428 . S
C1976 N1975 1.351 . S
C1976 C1977 1.434 . S
C1977 C1968 1.429 . S
C1977 N1974 1.350 . S
C1977 C1976 1.434 . S
C1978 C1979 1.369 . S
C1978 C1980 1.419 . S
C1978 H1982 0.930 . S
C1979 C1978 1.369 . S
C1979 C1988 1.429 . S
C1980 C1978 1.419 . S
C1980 C1981 1.363 . S
C1980 H1983 0.929 . S
C1981 C1980 1.363 . S
C1981 C1987 1.428 . S
H1982 C1978 0.930 . S
H1983 C1980 0.929 . S
S1984 N1985 1.613 . S
S1984 N1986 1.610 . S
N1985 S1984 1.613 . S
N1985 C1988 1.350 . S
N1986 S1984 1.610 . S
N1986 C1987 1.351 . S
C1987 C1981 1.428 . S
C1987 N1986 1.351 . S
C1987 C1988 1.434 . S
C1988 C1979 1.429 . S
C1988 N1985 1.350 . S
C1988 C1987 1.434 . S
C1989 C1990 1.369 . S
C1989 C1991 1.419 . S
C1989 H1993 0.930 . S
C1990 C1989 1.369 . S
C1990 C1999 1.429 . S
C1991 C1989 1.419 . S
C1991 C1992 1.363 . S
C1991 H1994 0.929 . S
C1992 C1991 1.363 . S
C1992 C1998 1.428 . S
H1993 C1989 0.930 . S
H1994 C1991 0.929 . S
S1995 N1996 1.613 . S
S1995 N1997 1.610 . S
N1996 S1995 1.613 . S
N1996 C1999 1.350 . S
N1997 S1995 1.610 . S
N1997 C1998 1.351 . S
C1998 C1992 1.428 . S
C1998 N1997 1.351 . S
C1998 C1999 1.434 . S
C1999 C1990 1.429 . S
C1999 N1996 1.350 . S
C1999 C1998 1.434 . S
C2000 C2001 1.369 . S
C2000 C2002 1.419 . S
C2000 H2004 0.930 . S
C2001 C2000 1.369 . S
C2001 C2010 1.429 . S
C2002 C2000 1.419 . S
C2002 C2003 1.363 . S
C2002 H2005 0.929 . S
C2003 C2002 1.363 . S
C2003 C2009 1.428 . S
H2004 C2000 0.930 . S
H2005 C2002 0.929 . S
S2006 N2007 1.613 . S
S2006 N2008 1.610 . S
N2007 S2006 1.613 . S
N2007 C2010 1.350 . S
N2008 S2006 1.610 . S
N2008 C2009 1.351 . S
C2009 C2003 1.428 . S
C2009 N2008 1.351 . S
C2009 C2010 1.434 . S
C2010 C2001 1.429 . S
C2010 N2007 1.350 . S
C2010 C2009 1.434 . S
C2011 C2012 1.369 . S
C2011 C2013 1.419 . S
C2011 H2015 0.930 . S
C2012 C2011 1.369 . S
C2012 C2021 1.429 . S
C2013 C2011 1.419 . S
C2013 C2014 1.363 . S
C2013 H2016 0.929 . S
C2014 C2013 1.363 . S
C2014 C2020 1.428 . S
H2015 C2011 0.930 . S
H2016 C2013 0.929 . S
S2017 N2018 1.613 . S
S2017 N2019 1.610 . S
N2018 S2017 1.613 . S
N2018 C2021 1.350 . S
N2019 S2017 1.610 . S
N2019 C2020 1.351 . S
C2020 C2014 1.428 . S
C2020 N2019 1.351 . S
C2020 C2021 1.434 . S
C2021 C2012 1.429 . S
C2021 N2018 1.350 . S
C2021 C2020 1.434 . S
C2022 C2023 1.358 1_655 S
C2022 C2024 1.433 . S
C2022 H2026 0.927 . S
C2023 C2022 1.358 1_455 S
C2023 C2032 1.429 . S
C2024 C2022 1.433 . S
C2024 C2025 1.363 . S
C2024 H2027 0.929 . S
C2025 C2024 1.363 . S
C2025 C2031 1.428 1_655 S
H2026 C2022 0.927 . S
H2027 C2024 0.929 . S
S2028 N2029 1.613 . S
S2028 N2030 1.610 . S
N2029 S2028 1.613 . S
N2029 C2032 1.350 . S
N2030 S2028 1.610 . S
N2030 C2031 1.351 . S
C2031 C2025 1.428 1_455 S
C2031 N2030 1.351 . S
C2031 C2032 1.434 . S
C2032 C2023 1.429 . S
C2032 N2029 1.350 . S
C2032 C2031 1.434 . S
C2033 C2034 1.369 . S
C2033 C2035 1.419 . S
C2033 H2037 0.930 . S
C2034 C2033 1.369 . S
C2034 C2043 1.429 . S
C2035 C2033 1.419 . S
C2035 C2036 1.363 . S
C2035 H2038 0.929 . S
C2036 C2035 1.363 . S
C2036 C2042 1.428 . S
H2037 C2033 0.930 . S
H2038 C2035 0.929 . S
S2039 N2040 1.613 . S
S2039 N2041 1.610 . S
N2040 S2039 1.613 . S
N2040 C2043 1.350 . S
N2041 S2039 1.610 . S
N2041 C2042 1.351 . S
C2042 C2036 1.428 . S
C2042 N2041 1.351 . S
C2042 C2043 1.434 . S
C2043 C2034 1.429 . S
C2043 N2040 1.350 . S
C2043 C2042 1.434 . S
C2044 C2045 1.369 . S
C2044 C2046 1.419 . S
C2044 H2048 0.930 . S
C2045 C2044 1.369 . S
C2045 C2054 1.429 1_545 S
C2046 C2044 1.419 . S
C2046 C2047 1.363 1_545 S
C2046 H2049 0.929 . S
C2047 C2046 1.363 1_565 S
C2047 C2053 1.428 . S
H2048 C2044 0.930 . S
H2049 C2046 0.929 . S
S2050 N2051 1.613 . S
S2050 N2052 1.610 . S
N2051 S2050 1.613 . S
N2051 C2054 1.350 . S
N2052 S2050 1.610 . S
N2052 C2053 1.351 . S
C2053 C2047 1.428 . S
C2053 N2052 1.351 . S
C2053 C2054 1.434 . S
C2054 C2045 1.429 1_565 S
C2054 N2051 1.350 . S
C2054 C2053 1.434 . S
C2055 C2056 1.369 1_554 S
C2055 C2057 1.419 . S
C2055 H2059 0.930 . S
C2056 C2055 1.369 1_556 S
C2056 C2065 1.429 1_545 S
C2057 C2055 1.419 . S
C2057 C2058 1.363 1_545 S
C2057 H2060 0.929 . S
C2058 C2057 1.363 1_565 S
C2058 C2064 1.428 1_554 S
H2059 C2055 0.930 . S
H2060 C2057 0.929 . S
S2061 N2062 1.613 . S
S2061 N2063 1.610 . S
N2062 S2061 1.613 . S
N2062 C2065 1.350 . S
N2063 S2061 1.610 . S
N2063 C2064 1.351 . S
C2064 C2058 1.428 1_556 S
C2064 N2063 1.351 . S
C2064 C2065 1.434 . S
C2065 C2056 1.429 1_565 S
C2065 N2062 1.350 . S
C2065 C2064 1.434 . S
C2066 C2067 1.369 1_554 S
C2066 C2068 1.419 1_655 S
C2066 H2070 0.930 . S
C2067 C2066 1.369 1_556 S
C2067 C2076 1.429 . S
C2068 C2066 1.419 1_455 S
C2068 C2069 1.363 . S
C2068 H2071 0.929 . S
C2069 C2068 1.363 . S
C2069 C2075 1.428 1_554 S
H2070 C2066 0.930 . S
H2071 C2068 0.929 . S
S2072 N2073 1.613 1_455 S
S2072 N2074 1.610 . S
N2073 S2072 1.613 1_655 S
N2073 C2076 1.350 . S
N2074 S2072 1.610 . S
N2074 C2075 1.351 . S
C2075 C2069 1.428 1_556 S
C2075 N2074 1.351 . S
C2075 C2076 1.434 1_455 S
C2076 C2067 1.429 . S
C2076 N2073 1.350 . S
C2076 C2075 1.434 1_655 S
C2077 C2078 1.369 1_556 S
C2077 C2079 1.419 . S
C2077 H2081 0.930 . S
C2078 C2077 1.369 1_554 S
C2078 C2087 1.429 . S
C2079 C2077 1.419 . S
C2079 C2080 1.363 . S
C2079 H2082 0.929 . S
C2080 C2079 1.363 . S
C2080 C2086 1.428 1_556 S
H2081 C2077 0.930 . S
H2082 C2079 0.929 . S
S2083 N2084 1.613 . S
S2083 N2085 1.610 . S
N2084 S2083 1.613 . S
N2084 C2087 1.350 . S
N2085 S2083 1.610 . S
N2085 C2086 1.351 . S
C2086 C2080 1.428 1_554 S
C2086 N2085 1.351 . S
C2086 C2087 1.434 . S
C2087 C2078 1.429 . S
C2087 N2084 1.350 . S
C2087 C2086 1.434 . S
C1297 C3 1.361 . S
C1299 C38 1.520 . S
C1308 C39 1.364 . S
C1310 C74 1.520 . S
C1319 C2 1.521 . S
C1321 C75 1.362 . S
C1330 C111 1.373 . S
C1332 C182 1.518 . S
C1341 C147 1.360 . S
C1343 C110 1.520 . S
C1352 C146 1.520 . S
C1354 C183 1.365 . S
C1363 C220 1.251 . S
C1365 C254 1.503 . S
C1374 C290 1.502 . S
C1376 C256 1.256 . S
C1385 C218 1.504 . S
C1387 C292 1.251 . S
C1396 C398 1.502 . S
C1398 C328 1.258 . S
C1407 C364 1.262 . S
C1409 C326 1.503 . S
C1418 C400 1.262 . S
C1420 C362 1.502 . S
C1429 C470 1.520 . S
C1431 C435 1.361 . S
C1440 C471 1.362 . S
C1442 C506 1.520 . S
C1451 C507 1.371 . S
C1453 C434 1.519 . S
C1462 C543 1.366 . S
C1464 C614 1.519 . S
C1473 C579 1.368 . S
C1475 C542 1.519 . S
C1484 C615 1.373 . S
C1486 C578 1.518 . S
C1495 C686 1.502 . S
C1497 C652 1.251 . S
C1506 C688 1.263 . S
C1508 C722 1.502 . S
C1517 C650 1.503 . S
C1519 C724 1.249 . S
C1528 C830 1.503 . S
C1530 C760 1.255 . S
C1539 C796 1.243 . S
C1541 C758 1.504 . S
C1550 C794 1.502 . S
C1552 C832 1.253 1_556 S
C1561 C902 1.517 . S
C1563 C867 1.373 . S
C1572 C903 1.374 . S
C1574 C938 1.518 . S
C1583 C939 1.374 . S
C1585 C866 1.518 . S
C1594 C1046 1.518 . S
C1596 C975 1.370 1_554 S
C1605 C1011 1.362 1_554 S
C1607 C974 1.520 . S
C1616 C1010 1.518 . S
C1618 C1047 1.371 . S
C1627 C1084 1.262 . S
C1629 C1118 1.502 . S
C1638 C1120 1.256 . S
C1640 C1154 1.503 . S
C1649 C1156 1.260 . S
C1651 C1082 1.503 . S
C1660 C1262 1.502 . S
C1662 C1192 1.254 . S
C1671 C1190 1.502 . S
C1673 C1228 1.257 . S
C1682 C1264 1.255 . S
C1684 C1226 1.503 . S
C1693 C122 1.582 . S
C1695 C14 1.583 . S
C1704 C50 1.586 1_565 S
C1706 C158 1.585 1_545 S
C1715 C194 1.588 1_655 S
C1717 C86 1.583 1_455 S
C1726 C338 1.591 . S
C1728 C230 1.589 . S
C1737 C266 1.590 . S
C1739 C374 1.590 . S
C1748 C410 1.591 . S
C1750 C302 1.590 . S
C1759 C446 1.579 . S
C1761 C554 1.588 . S
C1770 C482 1.579 . S
C1772 C590 1.588 . S
C1781 C518 1.582 . S
C1783 C626 1.584 . S
C1792 C770 1.585 . S
C1794 C662 1.585 . S
C1803 C806 1.583 . S
C1805 C698 1.584 . S
C1814 C734 1.587 . S
C1816 C842 1.586 . S
C1825 C986 1.582 . S
C1827 C878 1.587 . S
C1836 C1022 1.580 . S
C1838 C914 1.589 . S
C1847 C950 1.582 . S
C1849 C1058 1.587 . S
C1858 C1094 1.580 . S
C1860 C1202 1.581 . S
C1869 C1238 1.586 . S
C1871 C1130 1.587 . S
C1880 C1166 1.582 . S
C1882 C1274 1.582 . S
C1891 C4 1.692 . S
C1893 C651 1.799 . S
C1902 C40 1.683 . S
C1904 C687 1.804 . S
C1913 C76 1.680 . S
C1915 C723 1.808 . S
C1924 C1191 1.804 . S
C1926 C112 1.685 . S
C1935 C1227 1.804 . S
C1937 C148 1.686 . S
C1946 C184 1.679 . S
C1948 C1263 1.806 . S
C1957 C219 1.806 . S
C1959 C868 1.681 . S
C1968 C904 1.692 . S
C1970 C255 1.799 . S
C1979 C940 1.683 . S
C1981 C291 1.806 . S
C1990 C544 1.679 . S
C1992 C327 1.807 . S
C2001 C580 1.680 . S
C2003 C363 1.808 . S
C2012 C616 1.679 . S
C2014 C399 1.807 . S
C2023 C1083 1.797 . S
C2025 C436 1.691 . S
C2034 C472 1.681 . S
C2036 C1119 1.807 . S
C2045 C508 1.692 . S
C2047 C1155 1.800 . S
C2056 C759 1.807 . S
C2058 C976 1.679 1_554 S
C2067 C795 1.808 . S
C2069 C1012 1.680 1_554 S
C2078 C1048 1.690 1_554 S
C2080 C831 1.799 . S
