# Generated by pormake.
# Topology umk, (4)-cn, num edge types: 1
# Building blocks:
#     Node 0, Type 0, BuildingBlock: TATPOV_clean_sbu_0, # of connection points: 4
#     Node 1, Type 0, BuildingBlock: TATPOV_clean_sbu_0, # of connection points: 4
#     Node 2, Type 0, BuildingBlock: TATPOV_clean_sbu_0, # of connection points: 4
#     Node 3, Type 0, BuildingBlock: TATPOV_clean_sbu_0, # of connection points: 4
#     Node 4, Type 0, BuildingBlock: TATPOV_clean_sbu_0, # of connection points: 4
#     Node 5, Type 0, BuildingBlock: TATPOV_clean_sbu_0, # of connection points: 4
#     Node 6, Type 0, BuildingBlock: TATPOV_clean_sbu_0, # of connection points: 4
#     Node 7, Type 0, BuildingBlock: TATPOV_clean_sbu_0, # of connection points: 4
#     Node 8, Type 0, BuildingBlock: TATPOV_clean_sbu_0, # of connection points: 4
#     Node 9, Type 0, BuildingBlock: TATPOV_clean_sbu_0, # of connection points: 4
#     Node 10, Type 0, BuildingBlock: TATPOV_clean_sbu_0, # of connection points: 4
#     Node 11, Type 0, BuildingBlock: TATPOV_clean_sbu_0, # of connection points: 4
#     Node 12, Type 0, BuildingBlock: TATPOV_clean_sbu_0, # of connection points: 4
#     Node 13, Type 0, BuildingBlock: TATPOV_clean_sbu_0, # of connection points: 4
#     Node 14, Type 0, BuildingBlock: TATPOV_clean_sbu_0, # of connection points: 4
#     Node 15, Type 0, BuildingBlock: TATPOV_clean_sbu_0, # of connection points: 4
#     Node 16, Type 0, BuildingBlock: TATPOV_clean_sbu_0, # of connection points: 4
#     Node 17, Type 0, BuildingBlock: TATPOV_clean_sbu_0, # of connection points: 4
#     Node 18, Type 0, BuildingBlock: TATPOV_clean_sbu_0, # of connection points: 4
#     Node 19, Type 0, BuildingBlock: TATPOV_clean_sbu_0, # of connection points: 4
#     Node 20, Type 0, BuildingBlock: TATPOV_clean_sbu_0, # of connection points: 4
#     Node 21, Type 0, BuildingBlock: TATPOV_clean_sbu_0, # of connection points: 4
#     Node 22, Type 0, BuildingBlock: TATPOV_clean_sbu_0, # of connection points: 4
#     Node 23, Type 0, BuildingBlock: TATPOV_clean_sbu_0, # of connection points: 4
#     Edge 24, Type (0, 0), BuildingBlock: ZUJKAS_clean_linker_0, # of connection points: 2
#     Edge 25, Type (0, 0), BuildingBlock: ZUJKAS_clean_linker_0, # of connection points: 2
#     Edge 26, Type (0, 0), BuildingBlock: ZUJKAS_clean_linker_0, # of connection points: 2
#     Edge 27, Type (0, 0), BuildingBlock: ZUJKAS_clean_linker_0, # of connection points: 2
#     Edge 28, Type (0, 0), BuildingBlock: ZUJKAS_clean_linker_0, # of connection points: 2
#     Edge 29, Type (0, 0), BuildingBlock: ZUJKAS_clean_linker_0, # of connection points: 2
#     Edge 30, Type (0, 0), BuildingBlock: ZUJKAS_clean_linker_0, # of connection points: 2
#     Edge 31, Type (0, 0), BuildingBlock: ZUJKAS_clean_linker_0, # of connection points: 2
#     Edge 32, Type (0, 0), BuildingBlock: ZUJKAS_clean_linker_0, # of connection points: 2
#     Edge 33, Type (0, 0), BuildingBlock: ZUJKAS_clean_linker_0, # of connection points: 2
#     Edge 34, Type (0, 0), BuildingBlock: ZUJKAS_clean_linker_0, # of connection points: 2
#     Edge 35, Type (0, 0), BuildingBlock: ZUJKAS_clean_linker_0, # of connection points: 2
#     Edge 36, Type (0, 0), BuildingBlock: ZUJKAS_clean_linker_0, # of connection points: 2
#     Edge 37, Type (0, 0), BuildingBlock: ZUJKAS_clean_linker_0, # of connection points: 2
#     Edge 38, Type (0, 0), BuildingBlock: ZUJKAS_clean_linker_0, # of connection points: 2
#     Edge 39, Type (0, 0), BuildingBlock: ZUJKAS_clean_linker_0, # of connection points: 2
#     Edge 40, Type (0, 0), BuildingBlock: ZUJKAS_clean_linker_0, # of connection points: 2
#     Edge 41, Type (0, 0), BuildingBlock: ZUJKAS_clean_linker_0, # of connection points: 2
#     Edge 42, Type (0, 0), BuildingBlock: ZUJKAS_clean_linker_0, # of connection points: 2
#     Edge 43, Type (0, 0), BuildingBlock: ZUJKAS_clean_linker_0, # of connection points: 2
#     Edge 44, Type (0, 0), BuildingBlock: ZUJKAS_clean_linker_0, # of connection points: 2
#     Edge 45, Type (0, 0), BuildingBlock: ZUJKAS_clean_linker_0, # of connection points: 2
#     Edge 46, Type (0, 0), BuildingBlock: ZUJKAS_clean_linker_0, # of connection points: 2
#     Edge 47, Type (0, 0), BuildingBlock: ZUJKAS_clean_linker_0, # of connection points: 2
#     Edge 48, Type (0, 0), BuildingBlock: ZUJKAS_clean_linker_0, # of connection points: 2
#     Edge 49, Type (0, 0), BuildingBlock: ZUJKAS_clean_linker_0, # of connection points: 2
#     Edge 50, Type (0, 0), BuildingBlock: ZUJKAS_clean_linker_0, # of connection points: 2
#     Edge 51, Type (0, 0), BuildingBlock: ZUJKAS_clean_linker_0, # of connection points: 2
#     Edge 52, Type (0, 0), BuildingBlock: ZUJKAS_clean_linker_0, # of connection points: 2
#     Edge 53, Type (0, 0), BuildingBlock: ZUJKAS_clean_linker_0, # of connection points: 2
#     Edge 54, Type (0, 0), BuildingBlock: ZUJKAS_clean_linker_0, # of connection points: 2
#     Edge 55, Type (0, 0), BuildingBlock: ZUJKAS_clean_linker_0, # of connection points: 2
#     Edge 56, Type (0, 0), BuildingBlock: ZUJKAS_clean_linker_0, # of connection points: 2
#     Edge 57, Type (0, 0), BuildingBlock: ZUJKAS_clean_linker_0, # of connection points: 2
#     Edge 58, Type (0, 0), BuildingBlock: ZUJKAS_clean_linker_0, # of connection points: 2
#     Edge 59, Type (0, 0), BuildingBlock: ZUJKAS_clean_linker_0, # of connection points: 2
#     Edge 60, Type (0, 0), BuildingBlock: ZUJKAS_clean_linker_0, # of connection points: 2
#     Edge 61, Type (0, 0), BuildingBlock: ZUJKAS_clean_linker_0, # of connection points: 2
#     Edge 62, Type (0, 0), BuildingBlock: ZUJKAS_clean_linker_0, # of connection points: 2
#     Edge 63, Type (0, 0), BuildingBlock: ZUJKAS_clean_linker_0, # of connection points: 2
#     Edge 64, Type (0, 0), BuildingBlock: ZUJKAS_clean_linker_0, # of connection points: 2
#     Edge 65, Type (0, 0), BuildingBlock: ZUJKAS_clean_linker_0, # of connection points: 2
#     Edge 66, Type (0, 0), BuildingBlock: ZUJKAS_clean_linker_0, # of connection points: 2
#     Edge 67, Type (0, 0), BuildingBlock: ZUJKAS_clean_linker_0, # of connection points: 2
#     Edge 68, Type (0, 0), BuildingBlock: ZUJKAS_clean_linker_0, # of connection points: 2
#     Edge 69, Type (0, 0), BuildingBlock: ZUJKAS_clean_linker_0, # of connection points: 2
#     Edge 70, Type (0, 0), BuildingBlock: ZUJKAS_clean_linker_0, # of connection points: 2
#     Edge 71, Type (0, 0), BuildingBlock: ZUJKAS_clean_linker_0, # of connection points: 2
# Relax obj value: 0.096
# Max RMSD: 0.112
# Mean RMSD: 0.112
data_MOF--net-umk--node1-TATPOV_clean_sbu_0--edge1-ZUJKAS_clean_linker_0
_symmetry_space_group_name_H-M    P1
_symmetry_Int_Tables_number       1
_symmetry_cell_setting            triclinic
loop_
_symmetry_equiv_pos_as_xyz
'x, y, z'
_cell_length_a     84.231131
_cell_length_b     84.224806
_cell_length_c     55.770354
_cell_angle_alpha  89.975523
_cell_angle_beta   89.976137
_cell_angle_gamma 120.00371
loop_
_atom_site_label
_atom_site_type_symbol
_atom_site_fract_x
_atom_site_fract_y
_atom_site_fract_z
_atom_type_partial_charge
Zn0 Zn 0.35808 0.47199 0.09459 0.0
Zn1 Zn 0.33008 0.46457 0.06627 0.0
O2 O 0.3213 0.46738 0.0998 0.0
O3 O 0.34571 0.47646 0.12242 0.0
O4 O 0.30842 0.4595 0.0459 0.0
O5 O 0.375 0.49289 0.07322 0.0
O6 O 0.35132 0.48814 0.05126 0.0
C7 C 0.32926 0.47271 0.12002 0.0
C8 C 0.3424 0.4363 0.07279 0.0
O9 O 0.33249 0.44151 0.06192 0.0
O10 O 0.35391 0.44659 0.08835 0.0
C11 C 0.293 0.44519 0.04961 0.0
O12 O 0.29169 0.43355 0.06626 0.0
C13 C 0.36844 0.49737 0.05578 0.0
Zn14 Zn 0.89968 0.35826 0.5983 0.0
Zn15 Zn 0.87592 0.32905 0.57314 0.0
O16 O 0.87042 0.31989 0.60797 0.0
O17 O 0.89067 0.34352 0.62885 0.0
O18 O 0.85736 0.30696 0.5551 0.0
O19 O 0.88815 0.3726 0.58592 0.0
O20 O 0.86925 0.34879 0.56412 0.0
C21 C 0.87757 0.32712 0.62805 0.0
C22 C 0.91709 0.34632 0.56394 0.0
O23 O 0.90072 0.33364 0.5598 0.0
O24 O 0.92017 0.35857 0.57936 0.0
C25 C 0.85931 0.2931 0.55183 0.0
O26 O 0.87412 0.29341 0.55987 0.0
C27 C 0.87525 0.36531 0.57079 0.0
Zn28 Zn 0.53358 0.89183 0.09448 0.0
Zn29 Zn 0.54039 0.86911 0.0695 0.0
O30 O 0.53889 0.86055 0.10459 0.0
O31 O 0.53067 0.87775 0.12466 0.0
O32 O 0.54447 0.85071 0.0519 0.0
O33 O 0.51142 0.88529 0.07419 0.0
O34 O 0.51624 0.86533 0.05484 0.0
C35 C 0.5344 0.86495 0.12425 0.0
C36 C 0.56851 0.90989 0.06998 0.0
O37 O 0.56317 0.894 0.06139 0.0
O38 O 0.55863 0.91235 0.08496 0.0
C39 C 0.55726 0.84778 0.05829 0.0
O40 O 0.56824 0.85755 0.0758 0.0
C41 C 0.50661 0.87294 0.0584 0.0
Zn42 Zn 0.63755 0.5368 0.61289 0.0
Zn43 Zn 0.66746 0.54577 0.58752 0.0
O44 O 0.67688 0.54889 0.62226 0.0
O45 O 0.65268 0.54419 0.64305 0.0
O46 O 0.68949 0.55093 0.56797 0.0
O47 O 0.62527 0.51074 0.60112 0.0
O48 O 0.64898 0.51929 0.57729 0.0
C49 C 0.66935 0.54835 0.64229 0.0
C50 C 0.64681 0.56652 0.57991 0.0
O51 O 0.66103 0.5652 0.57611 0.0
O52 O 0.63447 0.55551 0.59414 0.0
C53 C 0.70485 0.56563 0.56972 0.0
O54 O 0.70659 0.57842 0.58474 0.0
C55 C 0.63319 0.50705 0.58456 0.0
Zn56 Zn 0.11672 0.64367 0.12314 0.0
Zn57 Zn 0.13543 0.67506 0.09895 0.0
O58 O 0.14501 0.68208 0.13368 0.0
O59 O 0.13113 0.65569 0.15281 0.0
O60 O 0.15111 0.69858 0.08113 0.0
O61 O 0.12564 0.63101 0.10094 0.0
O62 O 0.14138 0.65707 0.08145 0.0
C63 C 0.14234 0.67276 0.15278 0.0
C64 C 0.09383 0.6568 0.10235 0.0
O65 O 0.10894 0.66953 0.09396 0.0
O66 O 0.09363 0.64448 0.11563 0.0
C67 C 0.14643 0.70283 0.06156 0.0
O68 O 0.13027 0.69161 0.05232 0.0
C69 C 0.1365 0.6402 0.08417 0.0
Zn70 Zn 0.46697 0.10785 0.60726 0.0
Zn71 Zn 0.4571 0.12831 0.58254 0.0
O72 O 0.45509 0.13465 0.61772 0.0
O73 O 0.46007 0.1152 0.6381 0.0
O74 O 0.45118 0.14543 0.56478 0.0
O75 O 0.49282 0.1223 0.59476 0.0
O76 O 0.48319 0.13627 0.57039 0.0
C77 C 0.456 0.12777 0.63766 0.0
C78 C 0.43646 0.08695 0.57545 0.0
O79 O 0.43742 0.10237 0.57198 0.0
O80 O 0.44804 0.0859 0.58885 0.0
C81 C 0.44313 0.14222 0.54462 0.0
O82 O 0.43773 0.12642 0.53398 0.0
C83 C 0.49583 0.13332 0.57764 0.0
Zn84 Zn 0.54086 0.64158 0.87797 0.0
Zn85 Zn 0.54669 0.67022 0.90464 0.0
O86 O 0.54636 0.67882 0.87008 0.0
O87 O 0.54107 0.65499 0.8481 0.0
O88 O 0.55108 0.69215 0.92382 0.0
O89 O 0.51734 0.62573 0.89615 0.0
O90 O 0.52184 0.64969 0.9173 0.0
C91 C 0.54398 0.67122 0.84964 0.0
C92 C 0.57407 0.65627 0.90544 0.0
O93 O 0.56881 0.66707 0.9134 0.0
O94 O 0.56462 0.64434 0.88983 0.0
C95 C 0.55239 0.69264 0.94653 0.0
O96 O 0.55081 0.6783 0.95802 0.0
C97 C 0.51213 0.6327 0.91227 0.0
Zn98 Zn 0.88651 0.52979 0.40082 0.0
Zn99 Zn 0.86464 0.5369 0.42642 0.0
O100 O 0.85518 0.53539 0.39177 0.0
O101 O 0.87143 0.5261 0.37145 0.0
O102 O 0.84768 0.5422 0.44556 0.0
O103 O 0.88102 0.50833 0.42187 0.0
O104 O 0.8606 0.51254 0.44107 0.0
C105 C 0.85892 0.53025 0.37213 0.0
C106 C 0.90572 0.56467 0.42401 0.0
O107 O 0.89006 0.55932 0.43343 0.0
O108 O 0.90767 0.55479 0.40852 0.0
C109 C 0.84747 0.55702 0.44219 0.0
O110 O 0.85858 0.56879 0.42618 0.0
C111 C 0.86867 0.50332 0.43771 0.0
Zn112 Zn 0.35815 0.89317 0.8952 0.0
Zn113 Zn 0.32934 0.87274 0.92174 0.0
O114 O 0.31961 0.86571 0.88703 0.0
O115 O 0.34294 0.88556 0.86534 0.0
O116 O 0.30717 0.85623 0.94158 0.0
O117 O 0.37052 0.87933 0.90598 0.0
O118 O 0.34823 0.86516 0.93219 0.0
C119 C 0.32652 0.8726 0.8667 0.0
C120 C 0.35004 0.91428 0.9281 0.0
O121 O 0.33585 0.89882 0.9324 0.0
O122 O 0.36211 0.91535 0.91361 0.0
C123 C 0.2913 0.85323 0.93579 0.0
O124 O 0.28948 0.86146 0.91684 0.0
C125 C 0.36357 0.86841 0.92346 0.0
Zn126 Zn 0.47893 0.367 0.39984 0.0
Zn127 Zn 0.46712 0.33604 0.42452 0.0
O128 O 0.46681 0.32829 0.38934 0.0
O129 O 0.47647 0.35384 0.36889 0.0
O130 O 0.45961 0.31263 0.44233 0.0
O131 O 0.50293 0.3787 0.41718 0.0
O132 O 0.49246 0.35384 0.43938 0.0
C133 C 0.47086 0.33682 0.3694 0.0
C134 C 0.44561 0.35612 0.42707 0.0
O135 O 0.44706 0.34224 0.43266 0.0
O136 O 0.45753 0.36855 0.4137 0.0
C137 C 0.44666 0.29735 0.43487 0.0
O138 O 0.43751 0.29697 0.41559 0.0
C139 C 0.50511 0.37005 0.43423 0.0
Zn140 Zn 0.11842 0.48916 0.8849 0.0
Zn141 Zn 0.13295 0.47491 0.91452 0.0
O142 O 0.14366 0.47429 0.88151 0.0
O143 O 0.1315 0.48572 0.85697 0.0
O144 O 0.14587 0.466 0.93619 0.0
O145 O 0.13051 0.51304 0.90277 0.0
O146 O 0.14068 0.50045 0.92862 0.0
C147 C 0.14181 0.47901 0.86046 0.0
C148 C 0.0915 0.45615 0.90981 0.0
O149 O 0.10552 0.4562 0.91848 0.0
O150 O 0.09346 0.46874 0.89555 0.0
C151 C 0.14568 0.45104 0.93232 0.0
O152 O 0.13594 0.44059 0.91439 0.0
C153 C 0.1391 0.51405 0.92184 0.0
Zn154 Zn 0.63566 0.11992 0.39278 0.0
Zn155 Zn 0.66671 0.13755 0.41792 0.0
O156 O 0.67514 0.14617 0.38327 0.0
O157 O 0.64963 0.13158 0.36245 0.0
O158 O 0.68982 0.15227 0.43662 0.0
O159 O 0.62444 0.13234 0.41129 0.0
O160 O 0.64935 0.14527 0.43351 0.0
C161 C 0.66674 0.14259 0.36328 0.0
C162 C 0.64541 0.09592 0.41856 0.0
O163 O 0.65958 0.11085 0.42464 0.0
O164 O 0.63326 0.09621 0.40543 0.0
C165 C 0.70327 0.14943 0.43585 0.0
O166 O 0.7021 0.13601 0.42255 0.0
C167 C 0.63334 0.14245 0.42878 0.0
Zn168 Zn 0.63589 0.52389 0.90694 0.0
Zn169 Zn 0.66665 0.53416 0.93107 0.0
O170 O 0.67395 0.53396 0.89577 0.0
O171 O 0.64828 0.52471 0.87583 0.0
O172 O 0.69021 0.54141 0.9484 0.0
O173 O 0.62306 0.50059 0.92558 0.0
O174 O 0.6484 0.50882 0.94592 0.0
C175 C 0.66518 0.52978 0.87603 0.0
C176 C 0.64812 0.55742 0.93336 0.0
O177 O 0.66131 0.55492 0.93939 0.0
O178 O 0.63563 0.54612 0.91958 0.0
C179 C 0.70525 0.55449 0.94048 0.0
O180 O 0.70507 0.56349 0.92133 0.0
C181 C 0.63157 0.49732 0.94175 0.0
Zn182 Zn 0.09923 0.62761 0.41226 0.0
Zn183 Zn 0.12047 0.65635 0.43933 0.0
O184 O 0.12868 0.66575 0.40484 0.0
O185 O 0.10931 0.64274 0.38234 0.0
O186 O 0.13736 0.6784 0.4589 0.0
O187 O 0.11083 0.61374 0.42594 0.0
O188 O 0.1261 0.63643 0.45124 0.0
C189 C 0.12256 0.65899 0.38421 0.0
C190 C 0.07893 0.63859 0.44302 0.0
O191 O 0.0948 0.65174 0.44837 0.0
O192 O 0.07723 0.62618 0.42868 0.0
C193 C 0.1399 0.69407 0.4529 0.0
O194 O 0.13095 0.69539 0.43442 0.0
C195 C 0.12162 0.62046 0.44359 0.0
Zn196 Zn 0.47366 0.11203 0.89696 0.0
Zn197 Zn 0.46559 0.13268 0.92421 0.0
O198 O 0.46642 0.14241 0.88993 0.0
O199 O 0.47635 0.12739 0.86811 0.0
O200 O 0.46016 0.14939 0.94383 0.0
O201 O 0.49563 0.1181 0.91728 0.0
O202 O 0.49027 0.1371 0.93813 0.0
C203 C 0.47154 0.13938 0.86979 0.0
C204 C 0.43883 0.09151 0.92082 0.0
O205 O 0.44362 0.10688 0.93077 0.0
O206 O 0.44902 0.09029 0.90509 0.0
C207 C 0.44433 0.14778 0.94375 0.0
O208 O 0.43116 0.13454 0.93123 0.0
C209 C 0.50016 0.12989 0.93379 0.0
Zn210 Zn 0.35661 0.46277 0.37201 0.0
Zn211 Zn 0.32877 0.45635 0.40086 0.0
O212 O 0.31834 0.45563 0.36702 0.0
O213 O 0.34121 0.46025 0.34338 0.0
O214 O 0.3079 0.45205 0.42238 0.0
O215 O 0.37243 0.48738 0.38779 0.0
O216 O 0.34953 0.48152 0.41205 0.0
C217 C 0.32499 0.45716 0.34606 0.0
C218 C 0.34438 0.43039 0.40086 0.0
O219 O 0.33306 0.43488 0.40909 0.0
O220 O 0.35585 0.44011 0.3849 0.0
C221 C 0.29266 0.43716 0.42131 0.0
O222 O 0.29073 0.42446 0.40601 0.0
C223 C 0.36596 0.49209 0.40513 0.0
Zn224 Zn 0.87726 0.36036 0.87897 0.0
Zn225 Zn 0.86301 0.33215 0.90914 0.0
O226 O 0.85238 0.32047 0.876 0.0
O227 O 0.86259 0.34427 0.85186 0.0
O228 O 0.8503 0.31056 0.93142 0.0
O229 O 0.86704 0.37344 0.89784 0.0
O230 O 0.85539 0.35017 0.92301 0.0
C231 C 0.85315 0.32715 0.85523 0.0
C232 C 0.90434 0.35371 0.90203 0.0
O233 O 0.89051 0.34103 0.91297 0.0
O234 O 0.90219 0.36353 0.8866 0.0
C235 C 0.84991 0.29552 0.92739 0.0
O236 O 0.85868 0.29424 0.90868 0.0
C237 C 0.85791 0.3658 0.91657 0.0
Zn238 Zn 0.52619 0.89431 0.38616 0.0
Zn239 Zn 0.53581 0.87427 0.41218 0.0
O240 O 0.53801 0.86719 0.3774 0.0
O241 O 0.53095 0.88463 0.35582 0.0
O242 O 0.54132 0.85731 0.43107 0.0
O243 O 0.50118 0.88243 0.40095 0.0
O244 O 0.50964 0.86673 0.42389 0.0
C245 C 0.53587 0.87271 0.35704 0.0
C246 C 0.55739 0.91594 0.41656 0.0
O247 O 0.55565 0.90049 0.42228 0.0
O248 O 0.54638 0.91673 0.4018 0.0
C249 C 0.55731 0.85977 0.43452 0.0
O250 O 0.57158 0.87465 0.42614 0.0
C251 C 0.49768 0.87101 0.41768 0.0
Zn252 Zn 0.46002 0.36047 0.10446 0.0
Zn253 Zn 0.45294 0.33033 0.0807 0.0
O254 O 0.44895 0.32159 0.11576 0.0
O255 O 0.45295 0.34603 0.13528 0.0
O256 O 0.44914 0.30807 0.06274 0.0
O257 O 0.48613 0.37364 0.09301 0.0
O258 O 0.47977 0.34911 0.07188 0.0
C259 C 0.44908 0.32943 0.13534 0.0
C260 C 0.43095 0.34951 0.07015 0.0
O261 O 0.43326 0.3358 0.06703 0.0
O262 O 0.44102 0.36209 0.0847 0.0
C263 C 0.43366 0.29368 0.05991 0.0
O264 O 0.41889 0.29305 0.06872 0.0
C265 C 0.49106 0.36549 0.07832 0.0
Zn266 Zn 0.10145 0.44674 0.6101 0.0
Zn267 Zn 0.12552 0.44335 0.58297 0.0
O268 O 0.1341 0.44246 0.61751 0.0
O269 O 0.11375 0.44481 0.63969 0.0
O270 O 0.14414 0.44148 0.56263 0.0
O271 O 0.10897 0.47136 0.59519 0.0
O272 O 0.12849 0.46813 0.5724 0.0
C273 C 0.12773 0.44298 0.63805 0.0
C274 C 0.08464 0.41493 0.57974 0.0
O275 O 0.10102 0.42087 0.57254 0.0
O276 O 0.08131 0.42356 0.59569 0.0
C277 C 0.14668 0.42787 0.56431 0.0
O278 O 0.13678 0.41469 0.5796 0.0
C279 C 0.12107 0.47744 0.57889 0.0
Zn280 Zn 0.64484 0.10309 0.10343 0.0
Zn281 Zn 0.67364 0.12555 0.07711 0.0
O282 O 0.6829 0.13364 0.11184 0.0
O283 O 0.65884 0.11483 0.13339 0.0
O284 O 0.69518 0.14321 0.05713 0.0
O285 O 0.62928 0.11195 0.08745 0.0
O286 O 0.65334 0.13086 0.06602 0.0
C287 C 0.67527 0.12779 0.13218 0.0
C288 C 0.65816 0.08395 0.07481 0.0
O289 O 0.66969 0.1 0.06743 0.0
O290 O 0.64617 0.08175 0.09019 0.0
C291 C 0.71091 0.14476 0.05933 0.0
O292 O 0.71317 0.13431 0.07484 0.0
C293 C 0.63653 0.12435 0.07164 0.0
Zn294 Zn 0.52156 0.64099 0.5969 0.0
Zn295 Zn 0.53109 0.66958 0.56853 0.0
O296 O 0.52838 0.67854 0.60206 0.0
O297 O 0.51787 0.65388 0.6246 0.0
O298 O 0.53722 0.69155 0.5481 0.0
O299 O 0.50027 0.62502 0.57564 0.0
O300 O 0.50757 0.64894 0.55265 0.0
C301 C 0.52254 0.67059 0.62222 0.0
C302 C 0.5576 0.65535 0.57589 0.0
O303 O 0.55348 0.66611 0.56501 0.0
O304 O 0.54651 0.64379 0.59085 0.0
C305 C 0.55259 0.70623 0.54995 0.0
O306 O 0.56489 0.70676 0.56493 0.0
C307 C 0.49708 0.632 0.55748 0.0
Zn308 Zn 0.89047 0.52616 0.1059 0.0
Zn309 Zn 0.87189 0.53919 0.08249 0.0
O310 O 0.86409 0.53855 0.11765 0.0
O311 O 0.88051 0.52916 0.13728 0.0
O312 O 0.85594 0.5471 0.0656 0.0
O313 O 0.87732 0.50224 0.08823 0.0
O314 O 0.8639 0.51408 0.06673 0.0
C315 C 0.86892 0.53454 0.13733 0.0
C316 C 0.91359 0.55977 0.07986 0.0
O317 O 0.89851 0.55923 0.0752 0.0
O318 O 0.91363 0.54705 0.09194 0.0
C319 C 0.85993 0.55652 0.04646 0.0
O320 O 0.87597 0.56222 0.0363 0.0
C321 C 0.86675 0.50087 0.07125 0.0
Zn322 Zn 0.35761 0.8888 0.60676 0.0
Zn323 Zn 0.3278 0.86833 0.58082 0.0
O324 O 0.31981 0.85864 0.61529 0.0
O325 O 0.34528 0.87377 0.63605 0.0
O326 O 0.3053 0.85216 0.56151 0.0
O327 O 0.37247 0.88202 0.58525 0.0
O328 O 0.34723 0.86328 0.56571 0.0
C329 C 0.32842 0.86183 0.63507 0.0
C330 C 0.34321 0.90969 0.58415 0.0
O331 O 0.332 0.89431 0.57474 0.0
O332 O 0.35507 0.91079 0.59906 0.0
C333 C 0.28935 0.84722 0.56945 0.0
O334 O 0.28757 0.85325 0.59044 0.0
C335 C 0.3644 0.87014 0.56904 0.0
H336 H 0.29198 0.45568 0.12699 0.0
H337 H 0.2761 0.45296 0.16505 0.0
H338 H 0.32817 0.48819 0.19899 0.0
H339 H 0.34389 0.4911 0.16144 0.0
H340 H 0.28065 0.43689 0.20315 0.0
H341 H 0.29761 0.50576 0.23173 0.0
H342 H 0.29924 0.50054 0.20068 0.0
H343 H 0.3183 0.50722 0.22091 0.0
C344 C 0.29993 0.46328 0.14244 0.0
C345 C 0.31919 0.47346 0.14132 0.0
C346 C 0.29084 0.46174 0.16414 0.0
C347 C 0.30088 0.47062 0.18484 0.0
C348 C 0.32001 0.48164 0.18321 0.0
H349 H 0.32914 0.44621 0.30221 0.0
H350 H 0.31404 0.44613 0.26516 0.0
C351 C 0.32905 0.48308 0.16173 0.0
C352 C 0.29237 0.46596 0.209 0.0
H353 H 0.29999 0.48607 0.26397 0.0
C354 C 0.28413 0.44758 0.21637 0.0
C355 C 0.29623 0.47969 0.22632 0.0
C356 C 0.30313 0.49936 0.21935 0.0
C357 C 0.28253 0.44304 0.24077 0.0
C358 C 0.28965 0.45725 0.25799 0.0
C359 C 0.295 0.47519 0.25074 0.0
C360 C 0.29622 0.45472 0.28151 0.0
C361 C 0.2749 0.42326 0.24782 0.0
C362 C 0.29133 0.45971 0.30314 0.0
C363 C 0.30003 0.45972 0.32462 0.0
C364 C 0.31404 0.45524 0.32447 0.0
C365 C 0.31848 0.44983 0.30288 0.0
C366 C 0.30967 0.44956 0.28169 0.0
H367 H 0.26375 0.41407 0.23541 0.0
H368 H 0.2859 0.4197 0.24656 0.0
H369 H 0.26951 0.42067 0.26645 0.0
H370 H 0.28118 0.46402 0.30329 0.0
H371 H 0.29641 0.46401 0.34105 0.0
H372 H 0.89217 0.3373 0.67268 0.0
H373 H 0.87928 0.32187 0.71043 0.0
H374 H 0.83371 0.2779 0.67296 0.0
H375 H 0.84654 0.29353 0.63466 0.0
H376 H 0.82235 0.29087 0.70943 0.0
H377 H 0.87579 0.27799 0.7442 0.0
H378 H 0.88654 0.30114 0.7336 0.0
H379 H 0.87439 0.28248 0.71279 0.0
C380 C 0.87954 0.32423 0.67231 0.0
C381 C 0.87036 0.3167 0.65063 0.0
C382 C 0.87228 0.31527 0.69396 0.0
C383 C 0.85574 0.2985 0.69452 0.0
C384 C 0.84663 0.2907 0.67289 0.0
H385 H 0.84485 0.29147 0.84868 0.0
H386 H 0.83751 0.275 0.81028 0.0
C387 C 0.85397 0.29967 0.65107 0.0
C388 C 0.84724 0.29073 0.71807 0.0
H389 H 0.86069 0.28766 0.77457 0.0
C390 C 0.83039 0.28947 0.72359 0.0
C391 C 0.85725 0.28812 0.73648 0.0
C392 C 0.87439 0.28728 0.73133 0.0
C393 C 0.82474 0.28845 0.74749 0.0
C394 C 0.83649 0.2892 0.76614 0.0
C395 C 0.85185 0.28759 0.76038 0.0
C396 C 0.83583 0.29618 0.79033 0.0
C397 C 0.80691 0.28793 0.75254 0.0
C398 C 0.83678 0.31326 0.79206 0.0
C399 C 0.84101 0.32263 0.81376 0.0
C400 C 0.84452 0.31521 0.83426 0.0
C401 C 0.84216 0.29748 0.83313 0.0
C402 C 0.83798 0.28807 0.81122 0.0
H403 H 0.79634 0.27911 0.73924 0.0
H404 H 0.80172 0.28272 0.77085 0.0
H405 H 0.80894 0.30195 0.75073 0.0
H406 H 0.83573 0.32011 0.77621 0.0
H407 H 0.84264 0.33623 0.81411 0.0
H408 H 0.5392 0.88662 0.3123 0.0
H409 H 0.54263 0.87412 0.27469 0.0
H410 H 0.54309 0.82971 0.31256 0.0
H411 H 0.53966 0.84228 0.35087 0.0
H412 H 0.57178 0.86403 0.26147 0.0
H413 H 0.49916 0.80719 0.26065 0.0
H414 H 0.50538 0.82712 0.27894 0.0
H415 H 0.51357 0.81181 0.28668 0.0
C416 C 0.54011 0.87424 0.3128 0.0
C417 C 0.53901 0.86536 0.33458 0.0
C418 C 0.54218 0.86718 0.29127 0.0
C419 C 0.54311 0.85103 0.29092 0.0
C420 C 0.54241 0.84221 0.31257 0.0
H421 H 0.55124 0.84492 0.13455 0.0
H422 H 0.5541 0.83388 0.17432 0.0
C423 C 0.54046 0.8494 0.33435 0.0
C424 C 0.54366 0.84339 0.26733 0.0
H425 H 0.51339 0.81867 0.22319 0.0
C426 C 0.5593 0.85351 0.25311 0.0
C427 C 0.52736 0.8296 0.25668 0.0
C428 C 0.51035 0.81819 0.27141 0.0
C429 C 0.55835 0.85192 0.22804 0.0
C430 C 0.54133 0.83983 0.21718 0.0
C431 C 0.5264 0.82796 0.23162 0.0
C432 C 0.53748 0.84317 0.19239 0.0
C433 C 0.57489 0.86477 0.21332 0.0
C434 C 0.52671 0.85142 0.18936 0.0
C435 C 0.52514 0.85775 0.16695 0.0
C436 C 0.53424 0.85588 0.147 0.0
C437 C 0.54413 0.84659 0.14967 0.0
C438 C 0.54581 0.84032 0.17232 0.0
H439 H 0.58706 0.87342 0.22464 0.0
H440 H 0.57843 0.85675 0.20083 0.0
H441 H 0.57176 0.87389 0.20241 0.0
H442 H 0.52021 0.85381 0.20463 0.0
H443 H 0.51724 0.86465 0.16545 0.0
H444 H 0.6496 0.51361 0.83376 0.0
H445 H 0.66414 0.5194 0.79463 0.0
H446 H 0.71665 0.556 0.82656 0.0
H447 H 0.70203 0.55021 0.86624 0.0
H448 H 0.70766 0.57178 0.7895 0.0
H449 H 0.69737 0.50508 0.75951 0.0
H450 H 0.67654 0.50207 0.77239 0.0
H451 H 0.69673 0.51031 0.79083 0.0
C452 C 0.6643 0.52262 0.83261 0.0
C453 C 0.67465 0.53154 0.85305 0.0
C454 C 0.67265 0.52575 0.81022 0.0
C455 C 0.69154 0.53787 0.80771 0.0
C456 C 0.70209 0.54639 0.82818 0.0
H457 H 0.69994 0.54558 0.65134 0.0
H458 H 0.71383 0.5473 0.69076 0.0
C459 C 0.69373 0.54309 0.85079 0.0
C460 C 0.69921 0.54337 0.78326 0.0
H461 H 0.69425 0.52412 0.72808 0.0
C462 C 0.70543 0.56152 0.77612 0.0
C463 C 0.6968 0.53017 0.76582 0.0
C464 C 0.69169 0.51087 0.77263 0.0
C465 C 0.7068 0.56617 0.75175 0.0
C466 C 0.70158 0.55225 0.73432 0.0
C467 C 0.6979 0.53474 0.74146 0.0
C468 C 0.69583 0.55428 0.70998 0.0
C469 C 0.71246 0.58561 0.74494 0.0
C470 C 0.68122 0.5577 0.70778 0.0
C471 C 0.67319 0.5565 0.68556 0.0
C472 C 0.67958 0.55185 0.66499 0.0
C473 C 0.69479 0.54925 0.66692 0.0
C474 C 0.70273 0.55025 0.68936 0.0
H475 H 0.72257 0.59546 0.75796 0.0
H476 H 0.71852 0.58902 0.72667 0.0
H477 H 0.70026 0.58737 0.74534 0.0
H478 H 0.67535 0.56036 0.72349 0.0
H479 H 0.66155 0.55865 0.68465 0.0
H480 H 0.1553 0.69131 0.37932 0.0
H481 H 0.16896 0.70822 0.34192 0.0
H482 H 0.12172 0.66822 0.30258 0.0
H483 H 0.10815 0.65139 0.33936 0.0
H484 H 0.17726 0.69357 0.30102 0.0
H485 H 0.1291 0.71724 0.27705 0.0
H486 H 0.13158 0.71126 0.30743 0.0
H487 H 0.11676 0.69376 0.28655 0.0
C488 C 0.14777 0.68628 0.36269 0.0
C489 C 0.13068 0.66997 0.36226 0.0
C490 C 0.15557 0.69597 0.34142 0.0
C491 C 0.14617 0.68966 0.31961 0.0
C492 C 0.12901 0.67358 0.31931 0.0
H493 H 0.1484 0.65675 0.19106 0.0
H494 H 0.15735 0.66918 0.23115 0.0
C495 C 0.12135 0.66385 0.34035 0.0
C496 C 0.15461 0.6984 0.29648 0.0
H497 H 0.14141 0.70786 0.24323 0.0
C498 C 0.16989 0.6974 0.28852 0.0
C499 C 0.14541 0.70398 0.28034 0.0
C500 C 0.12993 0.70683 0.2884 0.0
C501 C 0.17449 0.69926 0.26409 0.0
C502 C 0.1633 0.7018 0.24741 0.0
C503 C 0.14979 0.70551 0.25589 0.0
C504 C 0.16222 0.69626 0.22198 0.0
C505 C 0.19041 0.69707 0.2562 0.0
C506 C 0.16207 0.70735 0.20324 0.0
C507 C 0.1568 0.70015 0.18007 0.0
C508 C 0.15127 0.68168 0.17555 0.0
C509 C 0.15248 0.671 0.19402 0.0
C510 C 0.15786 0.6782 0.21695 0.0
H511 H 0.20167 0.70324 0.26958 0.0
H512 H 0.1859 0.68226 0.25498 0.0
H513 H 0.19579 0.70355 0.23846 0.0
H514 H 0.16515 0.72125 0.2068 0.0
H515 H 0.15594 0.70867 0.16615 0.0
H516 H 0.49056 0.14415 0.82869 0.0
H517 H 0.48554 0.15425 0.79011 0.0
H518 H 0.44551 0.16554 0.82191 0.0
H519 H 0.45049 0.15526 0.86102 0.0
H520 H 0.4317 0.14217 0.78446 0.0
H521 H 0.49712 0.20084 0.7556 0.0
H522 H 0.50147 0.18371 0.76778 0.0
H523 H 0.49212 0.19436 0.7868 0.0
C524 C 0.48102 0.14922 0.82767 0.0
C525 C 0.4708 0.14876 0.84781 0.0
C526 C 0.47832 0.15523 0.80561 0.0
C527 C 0.46536 0.16095 0.80315 0.0
C528 C 0.45576 0.16141 0.8235 0.0
H529 H 0.45775 0.16072 0.64649 0.0
H530 H 0.45583 0.17292 0.68579 0.0
C531 C 0.45861 0.15553 0.84578 0.0
C532 C 0.45986 0.16308 0.77866 0.0
H533 H 0.47944 0.17799 0.72372 0.0
C534 C 0.44195 0.15055 0.77124 0.0
C535 C 0.473 0.1743 0.76137 0.0
C536 C 0.49194 0.1892 0.76842 0.0
C537 C 0.43764 0.14712 0.74682 0.0
C538 C 0.45166 0.15627 0.72961 0.0
C539 C 0.46878 0.17065 0.73695 0.0
C540 C 0.45022 0.14849 0.7054 0.0
C541 C 0.41851 0.13268 0.73974 0.0
C542 C 0.44773 0.13078 0.70349 0.0
C543 C 0.44904 0.12393 0.68133 0.0
C544 C 0.45287 0.13463 0.66053 0.0
C545 C 0.45471 0.15215 0.66224 0.0
C546 C 0.4536 0.15912 0.68461 0.0
H547 H 0.40825 0.13235 0.75257 0.0
H548 H 0.41506 0.13511 0.72139 0.0
H549 H 0.41746 0.11902 0.74019 0.0
H550 H 0.44558 0.1225 0.71935 0.0
H551 H 0.44749 0.11037 0.68062 0.0
H552 H 0.50238 0.6567 0.66259 0.0
H553 H 0.50719 0.67185 0.70102 0.0
H554 H 0.54788 0.72299 0.66943 0.0
H555 H 0.54322 0.70763 0.63052 0.0
H556 H 0.56182 0.7139 0.70554 0.0
H557 H 0.49703 0.70619 0.73817 0.0
H558 H 0.49208 0.68459 0.72583 0.0
H559 H 0.50098 0.70451 0.70663 0.0
C560 C 0.51198 0.6713 0.6636 0.0
C561 C 0.5226 0.68093 0.64364 0.0
C562 C 0.51454 0.68005 0.68559 0.0
C563 C 0.52773 0.69867 0.68816 0.0
C564 C 0.53748 0.70867 0.66782 0.0
H565 H 0.54094 0.70214 0.84467 0.0
H566 H 0.54047 0.71708 0.80689 0.0
C567 C 0.53482 0.69989 0.64562 0.0
C568 C 0.53363 0.70604 0.71271 0.0
H569 H 0.51501 0.69946 0.76863 0.0
C570 C 0.55175 0.71153 0.71929 0.0
C571 C 0.52078 0.70352 0.73079 0.0
C572 C 0.5017 0.69959 0.72486 0.0
C573 C 0.5565 0.71171 0.74341 0.0
C574 C 0.54275 0.70602 0.76116 0.0
C575 C 0.52545 0.70334 0.75491 0.0
C576 C 0.54466 0.69861 0.78434 0.0
C577 C 0.57579 0.71634 0.74948 0.0
C578 C 0.54694 0.68322 0.78404 0.0
C579 C 0.54696 0.6746 0.8053 0.0
C580 C 0.54472 0.68117 0.82744 0.0
C581 C 0.54276 0.69682 0.82785 0.0
C582 C 0.54252 0.70537 0.80637 0.0
H583 H 0.58578 0.72663 0.73673 0.0
H584 H 0.57954 0.72176 0.76803 0.0
H585 H 0.57689 0.70378 0.74801 0.0
H586 H 0.54817 0.6775 0.7672 0.0
H587 H 0.54855 0.66262 0.80431 0.0
H588 H 0.85581 0.51065 0.33224 0.0
H589 H 0.84583 0.51405 0.29268 0.0
H590 H 0.8312 0.55275 0.32074 0.0
H591 H 0.84142 0.54947 0.36087 0.0
H592 H 0.81298 0.51083 0.27249 0.0
H593 H 0.87249 0.58231 0.27125 0.0
H594 H 0.87058 0.56636 0.29422 0.0
H595 H 0.85535 0.57548 0.29434 0.0
C596 C 0.85018 0.51966 0.33017 0.0
C597 C 0.84968 0.53003 0.34955 0.0
C598 C 0.84435 0.52149 0.30755 0.0
C599 C 0.83797 0.5338 0.30373 0.0
C600 C 0.83624 0.54329 0.32333 0.0
H601 H 0.84266 0.54439 0.14515 0.0
H602 H 0.83016 0.54677 0.18406 0.0
C603 C 0.84201 0.54136 0.3462 0.0
C604 C 0.83568 0.53801 0.27865 0.0
H605 H 0.86208 0.5674 0.23445 0.0
C606 C 0.82317 0.52351 0.26413 0.0
C607 C 0.84899 0.55458 0.26781 0.0
C608 C 0.86268 0.57064 0.28257 0.0
C609 C 0.82506 0.52436 0.2391 0.0
C610 C 0.83976 0.54006 0.22855 0.0
C611 C 0.85082 0.55539 0.24277 0.0
C612 C 0.84681 0.53892 0.20481 0.0
C613 C 0.8127 0.50775 0.22425 0.0
C614 C 0.86023 0.53376 0.20384 0.0
C615 C 0.86732 0.53237 0.18192 0.0
C616 C 0.86116 0.53615 0.16042 0.0
C617 C 0.84768 0.54139 0.1614 0.0
C618 C 0.84053 0.54276 0.18353 0.0
H619 H 0.80032 0.4978 0.23439 0.0
H620 H 0.80836 0.51192 0.20774 0.0
H621 H 0.82035 0.5008 0.21868 0.0
H622 H 0.86519 0.53074 0.22017 0.0
H623 H 0.87767 0.52832 0.18191 0.0
H624 H 0.29122 0.84182 0.64328 0.0
H625 H 0.27595 0.83107 0.68232 0.0
H626 H 0.3286 0.85097 0.71614 0.0
H627 H 0.34377 0.86134 0.67763 0.0
H628 H 0.30082 0.81739 0.73521 0.0
H629 H 0.27933 0.87015 0.72954 0.0
H630 H 0.27183 0.8526 0.70696 0.0
H631 H 0.29552 0.87012 0.70839 0.0
C632 C 0.29946 0.84354 0.65901 0.0
C633 C 0.31873 0.85271 0.65746 0.0
C634 C 0.29072 0.83745 0.68127 0.0
C635 C 0.30117 0.84046 0.70214 0.0
C636 C 0.32026 0.84849 0.70026 0.0
H637 H 0.33485 0.88863 0.82286 0.0
H638 H 0.32007 0.87547 0.7849 0.0
C639 C 0.32894 0.85455 0.67821 0.0
C640 C 0.29312 0.8375 0.72647 0.0
H641 H 0.28327 0.86125 0.76764 0.0
C642 C 0.29623 0.82641 0.74234 0.0
C643 C 0.28697 0.84917 0.73561 0.0
C644 C 0.2832 0.86125 0.71937 0.0
C645 C 0.29583 0.82852 0.76725 0.0
C646 C 0.29197 0.84191 0.77632 0.0
C647 C 0.28634 0.8511 0.76052 0.0
C648 C 0.2987 0.85012 0.80024 0.0
C649 C 0.30169 0.81806 0.78352 0.0
C650 C 0.29131 0.84038 0.82164 0.0
C651 C 0.29985 0.84793 0.84362 0.0
C652 C 0.31591 0.86523 0.84434 0.0
C653 C 0.32264 0.8752 0.82295 0.0
C654 C 0.31412 0.86774 0.8012 0.0
H655 H 0.30453 0.80836 0.77348 0.0
H656 H 0.31425 0.82777 0.7935 0.0
H657 H 0.29074 0.81016 0.79685 0.0
H658 H 0.27931 0.82681 0.82125 0.0
H659 H 0.29431 0.83997 0.85986 0.0
H660 H 0.44915 0.29996 0.3605 0.0
H661 H 0.44225 0.28483 0.32112 0.0
H662 H 0.47975 0.33649 0.28777 0.0
H663 H 0.48664 0.35154 0.32661 0.0
H664 H 0.42667 0.29431 0.28415 0.0
H665 H 0.49193 0.30147 0.25304 0.0
H666 H 0.48721 0.3027 0.28442 0.0
H667 H 0.49591 0.32274 0.26558 0.0
C668 C 0.45622 0.30795 0.34479 0.0
C669 C 0.46835 0.32696 0.34658 0.0
C670 C 0.45227 0.2993 0.32236 0.0
C671 C 0.46073 0.30947 0.30159 0.0
C672 C 0.47341 0.32826 0.3036 0.0
H673 H 0.43958 0.33856 0.17743 0.0
H674 H 0.43794 0.32545 0.21679 0.0
C675 C 0.47718 0.33691 0.32582 0.0
C676 C 0.45471 0.30158 0.27736 0.0
H677 H 0.47302 0.30496 0.22185 0.0
C678 C 0.43661 0.29595 0.27058 0.0
C679 C 0.46749 0.30321 0.2597 0.0
C680 C 0.48666 0.30766 0.26616 0.0
C681 C 0.4317 0.29437 0.24631 0.0
C682 C 0.4453 0.29881 0.22859 0.0
C683 C 0.46266 0.30192 0.23543 0.0
C684 C 0.44319 0.30422 0.20406 0.0
C685 C 0.41234 0.2893 0.23988 0.0
C686 C 0.44674 0.29667 0.18371 0.0
C687 C 0.44774 0.30424 0.16099 0.0
C688 C 0.44559 0.31968 0.15847 0.0
C689 C 0.44139 0.32672 0.17879 0.0
C690 C 0.44021 0.31908 0.20131 0.0
H691 H 0.40247 0.27959 0.25324 0.0
H692 H 0.41112 0.30183 0.24008 0.0
H693 H 0.40851 0.28301 0.22179 0.0
H694 H 0.44933 0.28536 0.18553 0.0
H695 H 0.45106 0.29856 0.14563 0.0
H696 H 0.16334 0.45082 0.64493 0.0
H697 H 0.1782 0.45269 0.68367 0.0
H698 H 0.12662 0.43469 0.71975 0.0
H699 H 0.11192 0.43268 0.68171 0.0
H700 H 0.18152 0.47582 0.71878 0.0
H701 H 0.1452 0.40687 0.75732 0.0
H702 H 0.14511 0.41073 0.72543 0.0
H703 H 0.12824 0.41133 0.74484 0.0
C704 C 0.15515 0.44682 0.66114 0.0
C705 C 0.13652 0.44177 0.66036 0.0
C706 C 0.16363 0.44785 0.6832 0.0
C707 C 0.15346 0.44347 0.7046 0.0
C708 C 0.13468 0.4376 0.70351 0.0
H709 H 0.14483 0.49235 0.81535 0.0
H710 H 0.15606 0.48455 0.77986 0.0
C711 C 0.12632 0.43672 0.6817 0.0
C712 C 0.16241 0.44778 0.72846 0.0
H713 H 0.15047 0.43233 0.7857 0.0
C714 C 0.17533 0.46614 0.73342 0.0
C715 C 0.15503 0.43514 0.74764 0.0
C716 C 0.1428 0.41488 0.7434 0.0
C717 C 0.1786 0.47268 0.75706 0.0
C718 C 0.16835 0.46064 0.7759 0.0
C719 C 0.1579 0.44176 0.77123 0.0
C720 C 0.16473 0.46758 0.79849 0.0
C721 C 0.19186 0.49273 0.76139 0.0
C722 C 0.1656 0.46049 0.82095 0.0
C723 C 0.1589 0.4648 0.84148 0.0
C724 C 0.15098 0.47604 0.83972 0.0
C725 C 0.15078 0.48361 0.81736 0.0
C726 C 0.15749 0.47937 0.79702 0.0
H727 H 0.20386 0.4977 0.7492 0.0
H728 H 0.18502 0.50078 0.75736 0.0
H729 H 0.19679 0.49538 0.78023 0.0
H730 H 0.17088 0.45115 0.82245 0.0
H731 H 0.15922 0.45874 0.85847 0.0
H732 H 0.7039 0.15951 0.35516 0.0
H733 H 0.71964 0.1695 0.3163 0.0
H734 H 0.66788 0.1534 0.28193 0.0
H735 H 0.65227 0.14364 0.32024 0.0
H736 H 0.71326 0.14663 0.27891 0.0
H737 H 0.70057 0.20121 0.2482 0.0
H738 H 0.69889 0.19483 0.27946 0.0
H739 H 0.67955 0.18271 0.25962 0.0
C740 C 0.69599 0.15851 0.33935 0.0
C741 C 0.67682 0.15067 0.34072 0.0
C742 C 0.705 0.16426 0.31721 0.0
C743 C 0.69501 0.16256 0.29627 0.0
C744 C 0.676 0.15538 0.29789 0.0
H745 H 0.66825 0.11114 0.17539 0.0
H746 H 0.68181 0.12457 0.21378 0.0
C747 C 0.66702 0.14955 0.31982 0.0
C748 C 0.70343 0.16545 0.27217 0.0
H749 H 0.69842 0.17925 0.21665 0.0
C750 C 0.71073 0.15435 0.26538 0.0
C751 C 0.70073 0.17593 0.25451 0.0
C752 C 0.69471 0.1895 0.26095 0.0
C753 C 0.71273 0.15138 0.24111 0.0
C754 C 0.70701 0.15946 0.2234 0.0
C755 C 0.70241 0.17269 0.23022 0.0
C756 C 0.70133 0.15118 0.19929 0.0
C757 C 0.71947 0.13838 0.23466 0.0
C758 C 0.70769 0.16171 0.17825 0.0
C759 C 0.69986 0.15397 0.156 0.0
C760 C 0.68529 0.13577 0.15474 0.0
C761 C 0.67938 0.12522 0.17578 0.0
C762 C 0.6873 0.13283 0.19775 0.0
H763 H 0.72985 0.13941 0.2478 0.0
H764 H 0.7078 0.12409 0.23524 0.0
H765 H 0.72556 0.14117 0.2164 0.0
H766 H 0.71831 0.17599 0.17913 0.0
H767 H 0.70462 0.1624 0.14003 0.0
H768 H 0.16941 0.47119 0.96802 0.0
H769 H 0.1918 0.46548 0.98806 0.0
H770 H 0.17191 0.41497 0.94871 0.0
H771 H 0.14961 0.42075 0.92812 0.0
H772 H 0.18851 0.43693 0.01623 0.0
H773 H 0.22644 0.44315 0.93182 0.0
H774 H 0.20913 0.44974 0.93376 0.0
H775 H 0.20258 0.42595 0.93169 0.0
C776 C 0.16967 0.45878 0.9637 0.0
C777 C 0.15785 0.44653 0.94625 0.0
C778 C 0.18247 0.45553 0.97522 0.0
C779 C 0.18372 0.43997 0.96956 0.0
C780 C 0.17141 0.42726 0.95297 0.0
H781 H 0.25806 0.41599 0.05274 0.0
H782 H 0.23056 0.41238 0.0328 0.0
C783 C 0.15862 0.43054 0.94132 0.0
C784 C 0.19845 0.43763 0.98047 0.0
H785 H 0.23798 0.43752 0.96724 0.0
C786 C 0.19925 0.43687 0.00555 0.0
C787 C 0.21252 0.43777 0.96643 0.0
C788 C 0.2128 0.43934 0.93945 0.0
C789 C 0.21397 0.43668 0.01703 0.0
C790 C 0.22808 0.4369 0.003 0.0
C791 C 0.22706 0.43722 0.9779 0.0
C792 C 0.24474 0.43831 0.014 0.0
C793 C 0.21471 0.43707 0.04408 0.0
C794 C 0.26189 0.45376 0.00935 0.0
C795 C 0.27763 0.45579 0.0205 0.0
C796 C 0.27651 0.44238 0.03654 0.0
C797 C 0.25937 0.42664 0.04062 0.0
C798 C 0.24362 0.42459 0.02936 0.0
H799 H 0.20493 0.44083 0.05199 0.0
H800 H 0.21108 0.42327 0.05085 0.0
H801 H 0.22873 0.44697 0.05049 0.0
H802 H 0.26305 0.46447 0.99747 0.0
H803 H 0.29062 0.46805 0.0169 0.0
H804 H 0.71044 0.17948 0.46231 0.0
H805 H 0.73882 0.20056 0.48282 0.0
H806 H 0.76295 0.16828 0.46048 0.0
H807 H 0.73457 0.14716 0.43938 0.0
H808 H 0.75703 0.19397 0.51949 0.0
H809 H 0.80028 0.21991 0.43737 0.0
H810 H 0.77558 0.2067 0.43607 0.0
H811 H 0.78858 0.19553 0.44201 0.0
C812 C 0.72175 0.1768 0.46172 0.0
C813 C 0.72029 0.16169 0.44907 0.0
C814 C 0.73795 0.18886 0.4735 0.0
C815 C 0.75304 0.1861 0.4729 0.0
C816 C 0.75156 0.17082 0.46076 0.0
H817 H 0.86005 0.26225 0.53802 0.0
H818 H 0.8351 0.23451 0.51956 0.0
C819 C 0.73531 0.15874 0.44884 0.0
C820 C 0.77023 0.19946 0.48497 0.0
H821 H 0.81424 0.23334 0.47411 0.0
C822 C 0.76961 0.20243 0.50963 0.0
C823 C 0.78662 0.21043 0.47202 0.0
C824 C 0.78789 0.20815 0.44537 0.0
C825 C 0.78474 0.21651 0.52153 0.0
C826 C 0.80082 0.22794 0.50839 0.0
C827 C 0.80182 0.22447 0.48403 0.0
C828 C 0.81602 0.2446 0.51918 0.0
C829 C 0.78332 0.21942 0.54796 0.0
C830 C 0.81352 0.25945 0.52462 0.0
C831 C 0.82769 0.27528 0.53494 0.0
C832 C 0.84461 0.27653 0.54008 0.0
C833 C 0.84714 0.26167 0.53435 0.0
C834 C 0.83296 0.24584 0.52382 0.0
H835 H 0.77183 0.20711 0.55653 0.0
H836 H 0.79628 0.22284 0.55732 0.0
H837 H 0.78085 0.23108 0.55039 0.0
H838 H 0.80057 0.25875 0.52088 0.0
H839 H 0.82528 0.28646 0.5391 0.0
H840 H 0.53558 0.82397 0.0235 0.0
H841 H 0.53709 0.79788 0.00712 0.0
H842 H 0.58378 0.81098 0.0519 0.0
H843 H 0.58248 0.83727 0.06837 0.0
H844 H 0.58734 0.80262 0.00323 0.0
H845 H 0.52211 0.74996 0.04456 0.0
H846 H 0.52014 0.7671 0.02777 0.0
H847 H 0.5341 0.77356 0.05432 0.0
C848 C 0.54622 0.82138 0.02984 0.0
C849 C 0.55885 0.83264 0.04736 0.0
C850 C 0.54699 0.80639 0.02055 0.0
C851 C 0.56034 0.80235 0.02864 0.0
C852 C 0.5733 0.81383 0.04559 0.0
H853 H 0.55396 0.69779 0.99517 0.0
H854 H 0.55781 0.72482 0.01675 0.0
C855 C 0.57252 0.82883 0.05496 0.0
C856 C 0.56073 0.78614 0.01924 0.0
H857 H 0.53472 0.73965 0.0141 0.0
C858 C 0.57594 0.78882 0.00577 0.0
C859 C 0.54595 0.76817 0.02297 0.0
C860 C 0.52972 0.76444 0.03839 0.0
C861 C 0.57641 0.774 0.99502 0.0
C862 C 0.56117 0.75614 0.99763 0.0
C863 C 0.54631 0.75339 0.01196 0.0
C864 C 0.55991 0.74023 0.98469 0.0
C865 C 0.59315 0.77759 0.98087 0.0
C866 C 0.55969 0.73993 0.95955 0.0
C867 C 0.55746 0.72454 0.94719 0.0
C868 C 0.5553 0.7091 0.95976 0.0
C869 C 0.55562 0.70947 0.98497 0.0
C870 C 0.55782 0.72489 0.99733 0.0
H871 H 0.6054 0.79067 0.98632 0.0
H872 H 0.59617 0.76627 0.98316 0.0
H873 H 0.59065 0.77863 0.96155 0.0
H874 H 0.56088 0.75147 0.94947 0.0
H875 H 0.55722 0.7247 0.92778 0.0
H876 H 0.70547 0.54159 0.53751 0.0
H877 H 0.73184 0.54428 0.5158 0.0
H878 H 0.7665 0.5972 0.54793 0.0
H879 H 0.74014 0.59455 0.57008 0.0
H880 H 0.7557 0.57122 0.48321 0.0
H881 H 0.79203 0.56767 0.56461 0.0
H882 H 0.76822 0.56156 0.56507 0.0
H883 H 0.78586 0.58524 0.56446 0.0
C884 C 0.71867 0.55384 0.53997 0.0
C885 C 0.72073 0.5678 0.55568 0.0
C886 C 0.73372 0.55536 0.52749 0.0
C887 C 0.75113 0.57082 0.5305 0.0
C888 C 0.75321 0.58502 0.54568 0.0
H889 H 0.84311 0.58706 0.439 0.0
H890 H 0.82097 0.59253 0.4606 0.0
C891 C 0.73812 0.58352 0.55823 0.0
C892 C 0.76703 0.5717 0.51796 0.0
H893 H 0.80629 0.57019 0.52738 0.0
C894 C 0.76688 0.57118 0.49281 0.0
C895 C 0.78145 0.57147 0.53064 0.0
C896 C 0.78194 0.57138 0.55769 0.0
C897 C 0.78059 0.57004 0.47995 0.0
C898 C 0.79494 0.56967 0.49264 0.0
C899 C 0.7953 0.57059 0.51776 0.0
C900 C 0.80893 0.56695 0.48025 0.0
C901 C 0.77921 0.56847 0.45298 0.0
C902 C 0.80977 0.55099 0.48463 0.0
C903 C 0.82241 0.54786 0.47243 0.0
C904 C 0.83451 0.56068 0.45567 0.0
C905 C 0.8339 0.57686 0.45168 0.0
C906 C 0.82123 0.57999 0.46393 0.0
H907 H 0.76549 0.56532 0.44642 0.0
H908 H 0.7896 0.58166 0.44488 0.0
H909 H 0.78199 0.55761 0.44659 0.0
H910 H 0.8004 0.54079 0.49721 0.0
H911 H 0.82256 0.53529 0.47599 0.0
H912 H 0.25521 0.83942 0.92414 0.0
H913 H 0.22834 0.8158 0.94556 0.0
H914 H 0.26359 0.81294 -0.00068 0.0
H915 H 0.29051 0.83648 0.97809 0.0
H916 H 0.22242 0.77946 0.95638 0.0
H917 H 0.22386 0.81794 0.03793 0.0
H918 H 0.23537 0.82916 0.01043 0.0
H919 H 0.24542 0.81976 0.03016 0.0
C920 C 0.25724 0.83392 0.94066 0.0
C921 C 0.275 0.83982 0.94942 0.0
C922 C 0.24188 0.82042 0.95284 0.0
C923 C 0.24402 0.81281 0.97412 0.0
C924 C 0.26168 0.81887 0.98311 0.0
H925 H 0.18207 0.72665 0.07333 0.0
H926 H 0.20427 0.75369 0.05115 0.0
C927 C 0.27704 0.83225 0.97088 0.0
C928 C 0.22793 0.7977 0.98619 0.0
H929 H 0.20464 0.78548 0.03925 0.0
C930 C 0.21833 0.78078 0.97438 0.0
C931 C 0.22274 0.79955 0.00965 0.0
C932 C 0.23226 0.81762 0.02278 0.0
C933 C 0.20414 0.76537 0.98585 0.0
C934 C 0.19919 0.7671 0.00956 0.0
C935 C 0.20847 0.78419 0.02108 0.0
C936 C 0.18526 0.7511 0.02327 0.0
C937 C 0.19521 0.7472 0.9729 0.0
C938 C 0.16708 0.74085 0.01519 0.0
C939 C 0.15435 0.72525 0.02775 0.0
C940 C 0.15954 0.71978 0.04876 0.0
C941 C 0.17761 0.73044 0.05718 0.0
C942 C 0.19033 0.74593 0.04455 0.0
H943 H 0.20347 0.74733 0.95728 0.0
H944 H 0.19317 0.73593 0.98514 0.0
H945 H 0.18158 0.74418 0.96617 0.0
H946 H 0.16278 0.74485 -0.00091 0.0
H947 H 0.14049 0.71743 0.02091 0.0
H948 H 0.42602 0.14025 0.50194 0.0
H949 H 0.42382 0.16502 0.48181 0.0
H950 H 0.45271 0.20141 0.54048 0.0
H951 H 0.45496 0.17693 0.56073 0.0
H952 H 0.40916 0.18918 0.50255 0.0
H953 H 0.48272 0.22558 0.47627 0.0
H954 H 0.47025 0.20143 0.4835 0.0
H955 H 0.47791 0.2182 0.50701 0.0
C956 C 0.43181 0.1535 0.51061 0.0
C957 C 0.44078 0.15666 0.53285 0.0
C958 C 0.4305 0.16758 0.49912 0.0
C959 C 0.43825 0.185 0.50964 0.0
C960 C 0.44678 0.18806 0.53206 0.0
H961 H 0.46167 0.29359 0.47633 0.0
H962 H 0.45774 0.26533 0.49398 0.0
C963 C 0.44803 0.17403 0.54358 0.0
C964 C 0.4381 0.20032 0.49701 0.0
H965 H 0.4666 0.24167 0.47108 0.0
C966 C 0.42163 0.20061 0.49541 0.0
C967 C 0.45443 0.21511 0.48781 0.0
C968 C 0.47235 0.21511 0.4885 0.0
C969 C 0.42123 0.21577 0.48559 0.0
C970 C 0.43769 0.23078 0.47686 0.0
C971 C 0.45403 0.23019 0.47793 0.0
C972 C 0.43854 0.24753 0.46714 0.0
C973 C 0.4034 0.21592 0.48544 0.0
C974 C 0.4289 0.24686 0.4463 0.0
C975 C 0.43105 0.26302 0.4362 0.0
C976 C 0.44304 0.28012 0.44664 0.0
C977 C 0.45236 0.28067 0.4678 0.0
C978 C 0.45014 0.26453 0.47791 0.0
H979 H 0.39312 0.20543 0.49774 0.0
H980 H 0.40561 0.22959 0.4907 0.0
H981 H 0.39761 0.2129 0.46705 0.0
H982 H 0.42014 0.23392 0.43746 0.0
H983 H 0.42374 0.26215 0.41983 0.0
H984 H 0.82486 0.54427 0.06137 0.0
H985 H 0.80146 0.54873 0.04197 0.0
H986 H 0.84019 0.5817 0.98722 0.0
H987 H 0.86373 0.57698 0.00629 0.0
H988 H 0.80031 0.58019 0.03172 0.0
H989 H 0.79758 0.54269 0.94825 0.0
H990 H 0.80926 0.54183 0.9749 0.0
H991 H 0.81971 0.56166 0.95579 0.0
C992 C 0.82847 0.55251 0.04522 0.0
C993 C 0.84614 0.56014 0.03525 0.0
C994 C 0.81507 0.55507 0.03419 0.0
C995 C 0.81901 0.56532 0.01298 0.0
C996 C 0.83677 0.57343 0.00332 0.0
H997 H 0.73995 0.5776 0.92399 0.0
H998 H 0.7689 0.583 0.94149 0.0
C999 C 0.85021 0.5708 0.0143 0.0
C1000 C 0.80426 0.56705 0.00099 0.0
H1001 H 0.77752 0.55446 0.95078 0.0
C1002 C 0.79542 0.57471 0.01394 0.0
C1003 C 0.79794 0.5599 0.97778 0.0
C1004 C 0.80647 0.55092 0.96338 0.0
C1005 C 0.78015 0.57503 0.00451 0.0
C1006 C 0.77349 0.56735 0.98166 0.0
C1007 C 0.78273 0.56034 0.96831 0.0
C1008 C 0.75619 0.56521 0.97199 0.0
C1009 C 0.77111 0.58337 0.01914 0.0
C1010 C 0.73951 0.5534 0.98337 0.0
C1011 C 0.72297 0.55019 0.97338 0.0
C1012 C 0.72282 0.55875 0.95181 0.0
C1013 C 0.7396 0.57084 0.94067 0.0
C1014 C 0.75614 0.57394 0.9506 0.0
H1015 H 0.7805 0.59285 0.03305 0.0
H1016 H 0.76646 0.59097 0.00751 0.0
H1017 H 0.75891 0.57227 0.02835 0.0
H1018 H 0.73926 0.54629 -0.00031 0.0
H1019 H 0.71029 0.54079 0.98239 0.0
H1020 H 0.15331 0.72977 0.43958 0.0
H1021 H 0.178 0.75715 0.45865 0.0
H1022 H 0.18214 0.72352 0.51386 0.0
H1023 H 0.1578 0.69604 0.4946 0.0
H1024 H 0.18204 0.77221 0.50326 0.0
H1025 H 0.23409 0.75134 0.48813 0.0
H1026 H 0.21184 0.73982 0.47405 0.0
H1027 H 0.21453 0.73461 0.50457 0.0
C1028 C 0.15942 0.7282 0.45584 0.0
C1029 C 0.15376 0.71072 0.46544 0.0
C1030 C 0.17352 0.74386 0.46671 0.0
C1031 C 0.18215 0.74232 0.48736 0.0
C1032 C 0.17598 0.72496 0.49757 0.0
H1033 H 0.25402 0.8277 0.5855 0.0
H1034 H 0.22765 0.80334 0.56444 0.0
C1035 C 0.162 0.70929 0.48661 0.0
C1036 C 0.19785 0.7588 0.49797 0.0
H1037 H 0.24269 0.77685 0.51388 0.0
C1038 C 0.19535 0.7733 0.50549 0.0
C1039 C 0.21527 0.76033 0.50039 0.0
C1040 C 0.21919 0.74578 0.49114 0.0
C1041 C 0.20973 0.78914 0.51594 0.0
C1042 C 0.2269 0.79027 0.51941 0.0
C1043 C 0.22948 0.77592 0.51139 0.0
C1044 C 0.24243 0.80604 0.53151 0.0
C1045 C 0.20645 0.8046 0.5228 0.0
C1046 C 0.25957 0.81551 0.52013 0.0
C1047 C 0.27473 0.82921 0.53227 0.0
C1048 C 0.27302 0.83375 0.556 0.0
C1049 C 0.25574 0.82461 0.56716 0.0
C1050 C 0.24062 0.81076 0.55508 0.0
H1051 H 0.19498 0.80411 0.51237 0.0
H1052 H 0.20272 0.80333 0.54208 0.0
H1053 H 0.21892 0.81815 0.51991 0.0
H1054 H 0.26129 0.81205 0.50197 0.0
H1055 H 0.28785 0.83605 0.52316 0.0
H1056 H 0.41176 0.14714 0.95007 0.0
H1057 H 0.40695 0.17059 0.9693 0.0
H1058 H 0.46469 0.20248 0.985 0.0
H1059 H 0.46968 0.17919 0.96602 0.0
H1060 H 0.41936 0.18665 0.02013 0.0
H1061 H 0.44937 0.23605 0.94453 0.0
H1062 H 0.44016 0.21168 0.94083 0.0
H1063 H 0.46221 0.22545 0.95448 0.0
C1064 C 0.42343 0.1591 0.95772 0.0
C1065 C 0.44112 0.16135 0.95642 0.0
C1066 C 0.42063 0.17244 0.9687 0.0
C1067 C 0.4355 0.18826 0.9783 0.0
C1068 C 0.45309 0.19039 0.97747 0.0
H1069 H 0.462 0.28996 0.04298 0.0
H1070 H 0.46046 0.26349 0.02304 0.0
C1071 C 0.45589 0.17704 0.96668 0.0
C1072 C 0.43286 0.20282 0.98892 0.0
H1073 H 0.44364 0.24722 0.98056 0.0
C1074 C 0.42444 0.19985 0.01145 0.0
C1075 C 0.43953 0.21994 0.97742 0.0
C1076 C 0.44822 0.22354 0.95289 0.0
C1077 C 0.42326 0.21392 0.02333 0.0
C1078 C 0.43035 0.23123 0.01206 0.0
C1079 C 0.43824 0.23395 0.98917 0.0
C1080 C 0.43087 0.2471 0.02425 0.0
C1081 C 0.41519 0.21041 0.04824 0.0
C1082 C 0.4147 0.24673 0.03136 0.0
C1083 C 0.41553 0.26187 0.04294 0.0
C1084 C 0.43254 0.27767 0.04737 0.0
C1085 C 0.44867 0.27803 0.03988 0.0
C1086 C 0.44782 0.26291 0.02845 0.0
H1087 H 0.41414 0.19787 0.05634 0.0
H1088 H 0.42359 0.22223 0.06021 0.0
H1089 H 0.40119 0.20854 0.04737 0.0
H1090 H 0.40145 0.2348 0.02785 0.0
H1091 H 0.40286 0.26121 0.04835 0.0
H1092 H 0.15622 0.40118 0.56393 0.0
H1093 H 0.18014 0.40043 0.5398 0.0
H1094 H 0.19316 0.45204 0.50736 0.0
H1095 H 0.16922 0.45285 0.53113 0.0
H1096 H 0.18999 0.42518 0.47443 0.0
H1097 H 0.23581 0.43316 0.55085 0.0
H1098 H 0.21258 0.41462 0.55343 0.0
H1099 H 0.2172 0.43788 0.55349 0.0
C1100 C 0.16417 0.41237 0.55166 0.0
C1101 C 0.16088 0.42712 0.54953 0.0
C1102 C 0.17787 0.41195 0.53798 0.0
C1103 C 0.18854 0.42629 0.52205 0.0
C1104 C 0.1851 0.44087 0.51962 0.0
H1105 H 0.29225 0.46081 0.45449 0.0
H1106 H 0.26638 0.45679 0.47884 0.0
C1107 C 0.17143 0.44132 0.53326 0.0
C1108 C 0.20331 0.42622 0.50779 0.0
H1109 H 0.24507 0.42908 0.51247 0.0
C1110 C 0.202 0.42594 0.4827 0.0
C1111 C 0.219 0.42739 0.51872 0.0
C1112 C 0.2214 0.42843 0.54559 0.0
C1113 C 0.21607 0.42693 0.46818 0.0
C1114 C 0.23171 0.42797 0.4791 0.0
C1115 C 0.23297 0.42813 0.5042 0.0
C1116 C 0.24737 0.42991 0.46478 0.0
C1117 C 0.21435 0.42743 0.44129 0.0
C1118 C 0.24529 0.41599 0.44908 0.0
C1119 C 0.26006 0.41825 0.43507 0.0
C1120 C 0.27716 0.43445 0.43664 0.0
C1121 C 0.27925 0.44819 0.45278 0.0
C1122 C 0.2645 0.44592 0.46674 0.0
H1123 H 0.20342 0.43045 0.43597 0.0
H1124 H 0.22751 0.43792 0.43318 0.0
H1125 H 0.21087 0.41389 0.43372 0.0
H1126 H 0.23224 0.40341 0.44761 0.0
H1127 H 0.25802 0.40736 0.42293 0.0
H1128 H 0.82898 0.29331 0.96609 0.0
H1129 H 0.80822 0.26602 0.989 0.0
H1130 H 0.82405 0.2336 0.9461 0.0
H1131 H 0.84471 0.26085 0.92274 0.0
H1132 H 0.7869 0.2182 0.94964 0.0
H1133 H 0.81812 0.23755 0.03985 0.0
H1134 H 0.81406 0.25473 0.02704 0.0
H1135 H 0.83017 0.24953 0.01301 0.0
C1136 C 0.82825 0.28044 0.96168 0.0
C1137 C 0.8385 0.27927 0.94255 0.0
C1138 C 0.81645 0.26486 0.97493 0.0
C1139 C 0.81479 0.24783 0.9695 0.0
C1140 C 0.82522 0.24665 0.95068 0.0
H1141 H 0.74648 0.15209 0.05984 0.0
H1142 H 0.77245 0.17567 0.037 0.0
C1143 C 0.83703 0.26224 0.93737 0.0
C1144 C 0.80115 0.23109 0.98233 0.0
H1145 H 0.78675 0.21314 0.03828 0.0
C1146 C 0.787 0.21698 0.969 0.0
C1147 C 0.80143 0.22937 0.00754 0.0
C1148 C 0.81687 0.24352 0.02267 0.0
C1149 C 0.77267 0.20159 0.9803 0.0
C1150 C 0.77232 0.20047 0.00562 0.0
C1151 C 0.78692 0.21414 0.01888 0.0
C1152 C 0.75652 0.1857 0.01873 0.0
C1153 C 0.75798 0.18673 0.96502 0.0
C1154 C 0.73902 0.18362 0.01617 0.0
C1155 C 0.72418 0.17018 0.02912 0.0
C1156 C 0.72658 0.15862 0.04509 0.0
C1157 C 0.74416 0.16073 0.04765 0.0
C1158 C 0.75901 0.1742 0.03464 0.0
H1159 H 0.76306 0.18676 0.94661 0.0
H1160 H 0.75297 0.17297 0.97309 0.0
H1161 H 0.74623 0.18915 0.96348 0.0
H1162 H 0.73687 0.19262 0.00442 0.0
H1163 H 0.71087 0.16901 0.02682 0.0
H1164 H 0.58929 0.8612 0.44829 0.0
H1165 H 0.59264 0.83663 0.46702 0.0
H1166 H 0.53395 0.80139 0.46648 0.0
H1167 H 0.53039 0.82571 0.44805 0.0
H1168 H 0.57188 0.81496 0.51335 0.0
H1169 H 0.55891 0.77408 0.42996 0.0
H1170 H 0.56765 0.79854 0.42963 0.0
H1171 H 0.54384 0.78305 0.43569 0.0
C1172 C 0.5771 0.84823 0.45223 0.0
C1173 C 0.55958 0.84539 0.44663 0.0
C1174 C 0.57905 0.83426 0.46292 0.0
C1175 C 0.56354 0.81723 0.46785 0.0
C1176 C 0.54607 0.81443 0.46257 0.0
H1177 H 0.5286 0.7107 0.52183 0.0
H1178 H 0.53369 0.73859 0.50171 0.0
C1179 C 0.54409 0.82838 0.45211 0.0
C1180 C 0.56534 0.8022 0.47861 0.0
H1181 H 0.55811 0.75939 0.46661 0.0
C1182 C 0.56917 0.80289 0.50316 0.0
C1183 C 0.56171 0.78655 0.46514 0.0
C1184 C 0.55791 0.78544 0.43859 0.0
C1185 C 0.56857 0.78785 0.51492 0.0
C1186 C 0.56442 0.77194 0.50156 0.0
C1187 C 0.56127 0.77159 0.4768 0.0
C1188 C 0.56191 0.755 0.51318 0.0
C1189 C 0.57143 0.78878 0.54171 0.0
C1190 C 0.5762 0.75488 0.52595 0.0
C1191 C 0.57329 0.73895 0.53766 0.0
C1192 C 0.55609 0.72283 0.53655 0.0
C1193 C 0.542 0.72288 0.5231 0.0
C1194 C 0.54489 0.73881 0.51156 0.0
H1195 H 0.57039 0.80024 0.54994 0.0
H1196 H 0.56122 0.77576 0.55042 0.0
H1197 H 0.58531 0.79098 0.54559 0.0
H1198 H 0.58956 0.76712 0.52697 0.0
H1199 H 0.58447 0.73932 0.5477 0.0
H1200 H 0.32775 0.415 0.0325 0.0
H1201 H 0.33061 0.38843 0.02056 0.0
H1202 H 0.35829 0.39209 0.08716 0.0
H1203 H 0.35534 0.41815 0.09915 0.0
H1204 H 0.36267 0.38995 0.01287 0.0
H1205 H 0.32663 0.33757 0.08175 0.0
H1206 H 0.32194 0.35606 0.07685 0.0
H1207 H 0.34019 0.35905 0.09667 0.0
C1208 C 0.334 0.40978 0.04481 0.0
C1209 C 0.34145 0.41875 0.06669 0.0
C1210 C 0.3356 0.3946 0.03798 0.0
C1211 C 0.34436 0.38802 0.05313 0.0
C1212 C 0.35099 0.3965 0.07542 0.0
H1213 H 0.43167 0.38072 0.05734 0.0
H1214 H 0.40627 0.38424 0.04374 0.0
C1215 C 0.34951 0.41162 0.08215 0.0
C1216 C 0.34942 0.37441 0.04475 0.0
H1217 H 0.35683 0.34146 0.06869 0.0
C1218 C 0.3608 0.37883 0.02454 0.0
C1219 C 0.34656 0.35944 0.05931 0.0
C1220 C 0.33296 0.35266 0.07967 0.0
C1221 C 0.37152 0.37059 0.02076 0.0
C1222 C 0.37108 0.35799 0.03789 0.0
C1223 C 0.3576 0.35151 0.05586 0.0
C1224 C 0.38694 0.35511 0.04118 0.0
C1225 C 0.38432 0.37657 -0.00047 0.0
C1226 C 0.38466 0.33751 0.04426 0.0
C1227 C 0.39937 0.33546 0.05216 0.0
C1228 C 0.41633 0.35101 0.0576 0.0
C1229 C 0.41873 0.3685 0.05338 0.0
C1230 C 0.40423 0.37052 0.04528 0.0
H1231 H 0.37786 0.3791 0.98372 0.0
H1232 H 0.39693 0.38967 0.00384 0.0
H1233 H 0.38821 0.36617 0.99473 0.0
H1234 H 0.37137 0.32543 0.04153 0.0
H1235 H 0.39716 0.32182 0.05541 0.0
H1236 H 0.0522 0.39238 0.60098 0.0
H1237 H 0.02442 0.36891 0.58222 0.0
H1238 H 0.05355 0.37646 0.51565 0.0
H1239 H 0.08179 0.40047 0.53464 0.0
H1240 H 0.02466 0.38033 0.50901 0.0
H1241 H -0.00015 0.31702 0.56024 0.0
H1242 H 0.00763 0.33514 0.58175 0.0
H1243 H 0.02374 0.33474 0.56067 0.0
C1244 C 0.05287 0.38875 0.58251 0.0
C1245 C 0.06909 0.39839 0.56919 0.0
C1246 C 0.03698 0.37506 0.57185 0.0
C1247 C 0.03689 0.37059 0.54758 0.0
C1248 C 0.05336 0.37949 0.53449 0.0
H1249 H 0.91888 0.3181 0.54156 0.0
H1250 H 0.94659 0.31899 0.52564 0.0
C1251 C 0.06945 0.39319 0.54532 0.0
C1252 C 0.01889 0.35949 0.53561 0.0
H1253 H 0.97604 0.32651 0.55235 0.0
C1254 C 0.01408 0.36804 0.5177 0.0
C1255 C 0.00502 0.34303 0.54598 0.0
C1256 C 0.00945 0.33189 0.56301 0.0
C1257 C 0.99564 0.36247 0.51325 0.0
C1258 C 0.9819 0.3484 0.52747 0.0
C1259 C 0.98659 0.33776 0.54202 0.0
C1260 C 0.96439 0.34794 0.53252 0.0
C1261 C 0.99116 0.3729 0.49507 0.0
C1262 C 0.9652 0.36387 0.54158 0.0
C1263 C 0.94962 0.36336 0.55083 0.0
C1264 C 0.93279 0.34687 0.55136 0.0
C1265 C 0.93169 0.33102 0.54132 0.0
C1266 C 0.94746 0.33151 0.53219 0.0
H1267 H 0.00039 0.37652 0.47928 0.0
H1268 H 0.97671 0.36486 0.48894 0.0
H1269 H 0.99346 0.38592 0.50316 0.0
H1270 H 0.97815 0.37659 0.54279 0.0
H1271 H 0.95092 0.37582 0.55832 0.0
H1272 H 0.5854 0.91685 0.02596 0.0
H1273 H 0.61212 0.94591 0.01282 0.0
H1274 H 0.61742 0.96762 0.08427 0.0
H1275 H 0.59089 0.9391 0.0972 0.0
H1276 H 0.6116 0.97937 0.01598 0.0
H1277 H 0.67092 0.98554 0.06544 0.0
H1278 H 0.65093 0.9636 0.05877 0.0
H1279 H 0.65122 0.97658 0.08463 0.0
C1280 C 0.59263 0.92771 0.03891 0.0
C1281 C 0.58608 0.92583 0.06254 0.0
C1282 C 0.60785 0.94425 0.03141 0.0
C1283 C 0.61694 0.9588 0.04767 0.0
C1284 C 0.61091 0.95645 0.07154 0.0
H1285 H 0.64587 0.05197 0.0984 0.0
H1286 H 0.64245 0.02341 0.08332 0.0
C1287 C 0.59562 0.9402 0.07887 0.0
C1288 C 0.63074 0.97747 0.03969 0.0
H1289 H 0.66924 0.01404 0.06218 0.0
C1290 C 0.62468 0.98695 0.02508 0.0
C1291 C 0.6479 0.98728 0.05126 0.0
C1292 C 0.6557 0.97764 0.06569 0.0
C1293 C 0.63393 0.0062 0.02488 0.0
C1294 C 0.64959 0.016 0.03952 0.0
C1295 C 0.65711 0.0065 0.05116 0.0
C1296 C 0.65454 0.03439 0.04866 0.0
C1297 C 0.62561 0.01585 0.01155 0.0
C1298 C 0.66289 0.05023 0.03431 0.0
C1299 C 0.66495 0.06681 0.04304 0.0
C1300 C 0.65842 0.06754 0.06601 0.0
C1301 C 0.65082 0.05181 0.08052 0.0
C1302 C 0.64898 0.03548 0.07199 0.0
H1303 H 0.61381 0.0063 0.00022 0.0
H1304 H 0.62082 0.02255 0.02454 0.0
H1305 H 0.6361 0.02672 -0.00011 0.0
H1306 H 0.66729 0.04963 0.01626 0.0
H1307 H 0.67087 0.07877 0.03151 0.0
H1308 H 0.61477 0.56533 0.57049 0.0
H1309 H 0.61023 0.59007 0.55653 0.0
H1310 H 0.66872 0.62543 0.54951 0.0
H1311 H 0.67341 0.60034 0.56359 0.0
H1312 H 0.65219 0.64021 0.57757 0.0
H1313 H 0.61375 0.61555 0.49329 0.0
H1314 H 0.60444 0.59735 0.51488 0.0
H1315 H 0.62781 0.60664 0.50488 0.0
C1316 C 0.6267 0.57824 0.56554 0.0
C1317 C 0.64445 0.58095 0.56828 0.0
C1318 C 0.62407 0.59233 0.55725 0.0
C1319 C 0.63912 0.60951 0.55154 0.0
C1320 C 0.65692 0.61217 0.55348 0.0
H1321 H 0.57981 0.66925 0.53622 0.0
H1322 H 0.60622 0.66561 0.52593 0.0
C1323 C 0.65957 0.59788 0.56153 0.0
C1324 C 0.63579 0.62496 0.54723 0.0
H1325 H 0.60361 0.63217 0.52043 0.0
C1326 C 0.64211 0.63895 0.56446 0.0
C1327 C 0.62307 0.62374 0.52976 0.0
C1328 C 0.61707 0.6101 0.50951 0.0
C1329 C 0.63401 0.64993 0.56679 0.0
C1330 C 0.61911 0.64655 0.55178 0.0
C1331 C 0.61474 0.63449 0.53235 0.0
C1332 C 0.60551 0.65189 0.55906 0.0
C1333 C 0.6405 0.66403 0.58652 0.0
C1334 C 0.59644 0.64546 0.58108 0.0
C1335 C 0.58136 0.6473 0.58682 0.0
C1336 C 0.57494 0.65562 0.57067 0.0
C1337 C 0.58449 0.66283 0.54904 0.0
C1338 C 0.59957 0.66079 0.54316 0.0
H1339 H 0.6555 0.67022 0.58933 0.0
H1340 H 0.63739 0.6751 0.58245 0.0
H1341 H 0.63359 0.65728 0.60354 0.0
H1342 H 0.60041 0.63809 0.59337 0.0
H1343 H 0.57436 0.64167 0.60366 0.0
H1344 H 0.92188 0.59497 0.06895 0.0
H1345 H 0.9526 0.62142 0.06151 0.0
H1346 H 0.97572 0.58593 0.0662 0.0
H1347 H 0.94546 0.5598 0.07359 0.0
H1348 H 0.98088 0.6332 0.0944 0.0
H1349 H 0.00325 0.6179 0.00914 0.0
H1350 H 0.97933 0.6075 0.01735 0.0
H1351 H 0.99295 0.59778 0.0276 0.0
C1352 C 0.93351 0.59282 0.06781 0.0
C1353 C 0.93132 0.57536 0.07202 0.0
C1354 C 0.951 0.6079 0.06355 0.0
C1355 C 0.9664 0.60559 0.06289 0.0
C1356 C 0.96401 0.588 0.06601 0.0
H1357 H 0.06147 0.63796 0.126 0.0
H1358 H 0.03156 0.63255 0.11337 0.0
C1359 C 0.9467 0.57308 0.07053 0.0
C1360 C 0.98531 0.62146 0.06252 0.0
H1361 H 0.02732 0.63281 0.04008 0.0
C1362 C 0.99101 0.63362 0.08201 0.0
C1363 C 0.99854 0.62239 0.04609 0.0
C1364 C 0.99314 0.6108 0.02372 0.0
C1365 C 0.00969 0.6449 0.0872 0.0
C1366 C 0.02286 0.64373 0.07273 0.0
C1367 C 0.01722 0.63344 0.05149 0.0
C1368 C 0.04157 0.6497 0.08172 0.0
C1369 C 0.01511 0.657 0.10908 0.0
C1370 C 0.05723 0.66111 0.06808 0.0
C1371 C 0.07451 0.66424 0.07532 0.0
C1372 C 0.07624 0.65567 0.09602 0.0
C1373 C 0.0606 0.64473 0.10994 0.0
C1374 C 0.04348 0.64178 0.10287 0.0
H1375 H 0.00528 0.66193 0.11234 0.0
H1376 H 0.01479 0.64895 0.12503 0.0
H1377 H 0.02912 0.66901 0.10725 0.0
H1378 H 0.056 0.66714 0.05152 0.0
H1379 H 0.08632 0.67268 0.06419 0.0
H1380 H 0.43652 0.05524 0.56791 0.0
H1381 H 0.41107 0.02589 0.55554 0.0
H1382 H 0.37705 0.05034 0.54653 0.0
H1383 H 0.4028 0.08016 0.5591 0.0
H1384 H 0.36146 0.02032 0.57585 0.0
H1385 H 0.3847 0.00186 0.49401 0.0
H1386 H 0.40298 0.01075 0.51543 0.0
H1387 H 0.39469 0.02534 0.50407 0.0
C1388 C 0.42376 0.05452 0.56286 0.0
C1389 C 0.42161 0.06997 0.56467 0.0
C1390 C 0.40925 0.03774 0.55546 0.0
C1391 C 0.39223 0.03596 0.54965 0.0
C1392 C 0.39015 0.05149 0.5506 0.0
H1393 H 0.32956 0.91657 0.54309 0.0
H1394 H 0.3339 0.94639 0.52998 0.0
C1395 C 0.40484 0.06847 0.5578 0.0
C1396 C 0.37633 0.01727 0.54641 0.0
H1397 H 0.36758 0.97634 0.523 0.0
C1398 C 0.36232 0.01075 0.56365 0.0
C1399 C 0.37699 0.00478 0.53007 0.0
C1400 C 0.39057 0.01114 0.50969 0.0
C1401 C 0.35076 0.99187 0.56723 0.0
C1402 C 0.35359 0.97937 0.55353 0.0
C1403 C 0.36569 0.9859 0.53396 0.0
C1404 C 0.34772 0.96066 0.56245 0.0
C1405 C 0.33663 0.98552 0.58694 0.0
C1406 C 0.35394 0.95879 0.58504 0.0
C1407 C 0.35169 0.942 0.59238 0.0
C1408 C 0.34318 0.92663 0.57729 0.0
C1409 C 0.33612 0.9282 0.55511 0.0
C1410 C 0.33857 0.94518 0.54762 0.0
H1411 H 0.33085 0.99479 0.58846 0.0
H1412 H 0.32528 0.97131 0.58379 0.0
H1413 H 0.34325 0.98594 0.60432 0.0
H1414 H 0.3615 0.9706 0.59654 0.0
H1415 H 0.35721 0.94123 0.6096 0.0
H1416 H 0.59126 0.66966 0.94876 0.0
H1417 H 0.61569 0.66538 0.96622 0.0
H1418 H 0.61809 0.63922 0.90088 0.0
H1419 H 0.59417 0.64356 0.88353 0.0
H1420 H 0.61136 0.6324 0.97501 0.0
H1421 H 0.67147 0.66764 0.91675 0.0
H1422 H 0.65376 0.67381 0.9173 0.0
H1423 H 0.65185 0.65584 0.89775 0.0
C1424 C 0.59745 0.6635 0.93795 0.0
C1425 C 0.59071 0.65678 0.91487 0.0
C1426 C 0.61139 0.66109 0.94792 0.0
C1427 C 0.619 0.65228 0.93473 0.0
C1428 C 0.61291 0.64655 0.91121 0.0
H1429 H 0.61784 0.56076 0.93546 0.0
H1430 H 0.6159 0.58773 0.94549 0.0
C1431 C 0.59898 0.6488 0.9014 0.0
C1432 C 0.63066 0.64586 0.94624 0.0
H1433 H 0.66349 0.63578 0.92934 0.0
C1434 C 0.62327 0.63372 0.96568 0.0
C1435 C 0.6466 0.64795 0.93481 0.0
C1436 C 0.65645 0.66223 0.91568 0.0
C1437 C 0.62955 0.62158 0.97129 0.0
C1438 C 0.64323 0.6214 0.95679 0.0
C1439 C 0.65261 0.63551 0.94004 0.0
C1440 C 0.64465 0.60462 0.95445 0.0
C1441 C 0.62036 0.60796 0.99132 0.0
C1442 C 0.66155 0.60512 0.95586 0.0
C1443 C 0.66272 0.58952 0.94998 0.0
C1444 C 0.64707 0.57344 0.94211 0.0
C1445 C 0.63017 0.57295 0.94134 0.0
C1446 C 0.62899 0.58833 0.94741 0.0
H1447 H 0.61662 0.61423 0.00621 0.0
H1448 H 0.60748 0.59612 0.98455 0.0
H1449 H 0.62931 0.60286 0.99841 0.0
H1450 H 0.67385 0.61765 0.96088 0.0
H1451 H 0.67593 0.59029 0.95066 0.0
H1452 H 0.91087 0.58347 0.46625 0.0
H1453 H 0.94009 0.60838 0.4817 0.0
H1454 H 0.96653 0.60858 0.41532 0.0
H1455 H 0.93771 0.58416 0.3999 0.0
H1456 H 0.96853 0.60371 0.48961 0.0
H1457 H 0.99266 0.66235 0.42881 0.0
H1458 H 0.96872 0.64491 0.43057 0.0
H1459 H 0.98414 0.6422 0.41068 0.0
C1460 C 0.92283 0.58928 0.45474 0.0
C1461 C 0.92208 0.58175 0.43197 0.0
C1462 C 0.93949 0.60351 0.46357 0.0
C1463 C 0.95548 0.61059 0.44956 0.0
C1464 C 0.95435 0.60379 0.42627 0.0
H1465 H 0.04535 0.60842 0.44711 0.0
H1466 H 0.0168 0.60691 0.45832 0.0
C1467 C 0.93786 0.58958 0.41757 0.0
C1468 C 0.9739 0.62234 0.46012 0.0
H1469 H 0.01654 0.65431 0.44107 0.0
C1470 C 0.97898 0.61531 0.47963 0.0
C1471 C 0.98759 0.63787 0.44781 0.0
C1472 C 0.98288 0.64735 0.42849 0.0
C1473 C 0.99748 0.62148 0.48454 0.0
C1474 C 0.01108 0.6347 0.46928 0.0
C1475 C 0.0061 0.64377 0.45237 0.0
C1476 C 0.0291 0.63584 0.46646 0.0
C1477 C 0.00223 0.61263 0.50466 0.0
C1478 C 0.04561 0.65267 0.46713 0.0
C1479 C 0.06214 0.65357 0.46062 0.0
C1480 C 0.06222 0.63772 0.45285 0.0
C1481 C 0.04574 0.62088 0.45292 0.0
C1482 C 0.0294 0.61996 0.45964 0.0
H1483 H 0.99255 0.60926 0.51988 0.0
H1484 H 0.00098 0.59959 0.4982 0.0
H1485 H 0.01644 0.62166 0.5112 0.0
H1486 H 0.04562 0.66512 0.47199 0.0
H1487 H 0.07466 0.66675 0.46063 0.0
H1488 H 0.42057 0.05997 0.89548 0.0
H1489 H 0.39498 0.03095 0.90858 0.0
H1490 H 0.39265 0.05557 0.97535 0.0
H1491 H 0.41867 0.08503 0.96221 0.0
H1492 H 0.39499 0.0248 0.9821 0.0
H1493 H 0.34031 0.00858 0.91668 0.0
H1494 H 0.36149 0.01675 0.90081 0.0
H1495 H 0.35883 0.03176 0.92146 0.0
C1496 C 0.41445 0.05937 0.91278 0.0
C1497 C 0.42174 0.07476 0.92789 0.0
C1498 C 0.3996 0.04278 0.92014 0.0
C1499 C 0.39163 0.04113 0.94277 0.0
C1500 C 0.39844 0.05662 0.95767 0.0
H1501 H 0.32382 0.92186 0.94499 0.0
H1502 H 0.32883 0.95195 0.95812 0.0
C1503 C 0.41329 0.0734 0.95017 0.0
C1504 C 0.37826 0.02255 0.95159 0.0
H1505 H 0.34417 0.98225 0.92906 0.0
C1506 C 0.38339 0.01557 0.9711 0.0
C1507 C 0.36274 0.0105 0.93785 0.0
C1508 C 0.35543 0.01739 0.91822 0.0
C1509 C 0.37516 0.99661 0.97487 0.0
C1510 C 0.36178 0.98448 0.95847 0.0
C1511 C 0.35476 0.99153 0.94132 0.0
C1512 C 0.35838 0.96559 0.95498 0.0
C1513 C 0.38193 0.98974 0.99517 0.0
C1514 C 0.37328 0.9633 0.949 0.0
C1515 C 0.37047 0.94638 0.94128 0.0
C1516 C 0.35266 0.9313 0.93935 0.0
C1517 C 0.3377 0.93327 0.94642 0.0
C1518 C 0.34053 0.9504 0.95392 0.0
H1519 H 0.38562 0.99898 0.01093 0.0
H1520 H 0.37148 0.97564 0.00068 0.0
H1521 H 0.3945 0.98965 0.98939 0.0
H1522 H 0.38713 0.97488 0.949 0.0
H1523 H 0.38227 0.94528 0.93607 0.0
H1524 H 0.358 0.4113 0.37839 0.0
H1525 H 0.36369 0.3881 0.39534 0.0
H1526 H 0.33814 0.38972 0.46167 0.0
H1527 H 0.33241 0.41334 0.44458 0.0
H1528 H 0.37226 0.39542 0.46868 0.0
H1529 H 0.33601 0.33447 0.41189 0.0
H1530 H 0.34701 0.35413 0.39273 0.0
H1531 H 0.3294 0.35185 0.41325 0.0
C1532 C 0.3532 0.40646 0.39641 0.0
C1533 C 0.34491 0.41425 0.41024 0.0
C1534 C 0.35623 0.39297 0.406 0.0
C1535 C 0.35105 0.38688 0.42966 0.0
C1536 C 0.34202 0.39403 0.44326 0.0
H1537 H 0.41263 0.32928 0.44533 0.0
H1538 H 0.38585 0.33234 0.45553 0.0
C1539 C 0.33878 0.40751 0.43351 0.0
C1540 C 0.35808 0.3756 0.44072 0.0
H1541 H 0.36786 0.34258 0.42369 0.0
C1542 C 0.37076 0.38339 0.45951 0.0
C1543 C 0.35581 0.35956 0.42942 0.0
C1544 C 0.34112 0.34944 0.41089 0.0
C1545 C 0.38309 0.37725 0.46467 0.0
C1546 C 0.38286 0.36326 0.45039 0.0
C1547 C 0.36839 0.35366 0.43423 0.0
C1548 C 0.39937 0.36141 0.44792 0.0
C1549 C 0.3972 0.38679 0.48405 0.0
C1550 C 0.41575 0.37669 0.44022 0.0
C1551 C 0.43085 0.37496 0.43418 0.0
C1552 C 0.42994 0.35788 0.43564 0.0
C1553 C 0.41374 0.34263 0.44411 0.0
C1554 C 0.39847 0.34435 0.44997 0.0
H1555 H 0.3914 0.39101 0.49899 0.0
H1556 H 0.40229 0.37786 0.49127 0.0
H1557 H 0.40898 0.39939 0.47656 0.0
H1558 H 0.41664 0.38987 0.43781 0.0
H1559 H 0.44312 0.38699 0.4278 0.0
H1560 H 0.05998 0.45718 0.90484 0.0
H1561 H 0.0288 0.43299 0.9134 0.0
H1562 H 0.04897 0.39768 0.93749 0.0
H1563 H 0.08059 0.42213 0.92914 0.0
H1564 H 0.01954 0.38257 0.90122 0.0
H1565 H 0.0027 0.41205 0.97916 0.0
H1566 H 0.01421 0.42851 0.95571 0.0
H1567 H 0.02599 0.41861 0.97105 0.0
C1568 C 0.05788 0.44435 0.91215 0.0
C1569 C 0.07276 0.44156 0.91625 0.0
C1570 C 0.04004 0.43059 0.91722 0.0
C1571 C 0.03663 0.41367 0.92639 0.0
C1572 C 0.05139 0.41075 0.93067 0.0
H1573 H 0.91679 0.34464 0.94245 0.0
H1574 H 0.9488 0.35407 0.95223 0.0
C1575 C 0.06939 0.4247 0.92588 0.0
C1576 C 0.0174 0.39886 0.92944 0.0
H1577 H 0.97717 0.39161 0.9538 0.0
C1578 C 0.0103 0.38416 0.91324 0.0
C1579 C 0.00542 0.40079 0.94535 0.0
C1580 C 0.01249 0.41575 0.96399 0.0
C1581 C 0.99131 0.37249 0.91087 0.0
C1582 C 0.97925 0.37577 0.92491 0.0
C1583 C 0.98643 0.38923 0.94285 0.0
C1584 C 0.9597 0.36787 0.91841 0.0
C1585 C 0.98427 0.35744 0.89237 0.0
C1586 C 0.95531 0.37254 0.89624 0.0
C1587 C 0.93724 0.36744 0.89079 0.0
C1588 C 0.92311 0.35749 0.90737 0.0
C1589 C 0.92739 0.35224 0.92929 0.0
C1590 C 0.94562 0.3576 0.9349 0.0
H1591 H 0.99425 0.35268 0.88925 0.0
H1592 H 0.97093 0.34556 0.89791 0.0
H1593 H 0.98228 0.36278 0.87512 0.0
H1594 H 0.966 0.38079 0.88347 0.0
H1595 H 0.93441 0.37164 0.87372 0.0
H1596 H 0.55696 0.94764 0.42055 0.0
H1597 H 0.58144 0.97728 0.43379 0.0
H1598 H 0.6155 0.95374 0.4494 0.0
H1599 H 0.59063 0.92349 0.43602 0.0
H1600 H 0.60228 0.9881 0.48022 0.0
H1601 H 0.64386 0.99678 0.39826 0.0
H1602 H 0.61973 0.97998 0.39835 0.0
H1603 H 0.63522 0.97649 0.41664 0.0
C1604 C 0.56957 0.94862 0.42695 0.0
C1605 C 0.57195 0.93327 0.42699 0.0
C1606 C 0.58352 0.96558 0.43467 0.0
C1607 C 0.60026 0.96769 0.44248 0.0
C1608 C 0.60264 0.95233 0.44337 0.0
H1609 H 0.67122 0.08783 0.43564 0.0
H1610 H 0.66607 0.05753 0.4482 0.0
C1611 C 0.58846 0.93512 0.4358 0.0
C1612 C 0.6152 0.9865 0.4477 0.0
H1613 H 0.64673 0.02353 0.41592 0.0
C1614 C 0.61263 0.99584 0.46679 0.0
C1615 C 0.62877 0.99654 0.43025 0.0
C1616 C 0.63221 0.98705 0.40967 0.0
C1617 C 0.62158 0.01504 0.46713 0.0
C1618 C 0.63321 0.02499 0.44787 0.0
C1619 C 0.63769 0.01578 0.43058 0.0
C1620 C 0.6368 0.04363 0.44212 0.0
C1621 C 0.61715 0.02448 0.48679 0.0
C1622 C 0.6221 0.04566 0.43433 0.0
C1623 C 0.62499 0.06267 0.42683 0.0
C1624 C 0.64268 0.0781 0.42711 0.0
C1625 C 0.65743 0.07616 0.43531 0.0
C1626 C 0.65454 0.05894 0.4425 0.0
H1627 H 0.61295 0.01616 0.50349 0.0
H1628 H 0.6291 0.03821 0.49071 0.0
H1629 H 0.60558 0.02634 0.48097 0.0
H1630 H 0.60835 0.03393 0.43358 0.0
H1631 H 0.61332 0.0637 0.42076 0.0
H1632 H 0.49257 0.64303 0.94143 0.0
H1633 H 0.46485 0.62293 0.96449 0.0
H1634 H 0.46598 0.57557 0.93723 0.0
H1635 H 0.49306 0.5954 0.91353 0.0
H1636 H 0.43194 0.56963 0.93762 0.0
H1637 H 0.46456 0.59802 0.02582 0.0
H1638 H 0.46403 0.61441 0.00575 0.0
H1639 H 0.47751 0.60395 0.99831 0.0
C1640 C 0.48684 0.62832 0.94031 0.0
C1641 C 0.49507 0.62081 0.92576 0.0
C1642 C 0.47106 0.61686 0.95359 0.0
C1643 C 0.46351 0.59774 0.95295 0.0
C1644 C 0.47153 0.59027 0.93804 0.0
H1645 H 0.4056 0.51404 0.0541 0.0
H1646 H 0.4266 0.5394 0.02873 0.0
C1647 C 0.48707 0.60165 0.92453 0.0
C1648 C 0.44758 0.58529 0.96812 0.0
H1649 H 0.43407 0.57392 0.02632 0.0
C1650 C 0.43231 0.57063 0.95702 0.0
C1651 C 0.44814 0.58659 0.99345 0.0
C1652 C 0.46448 0.60148 0.0066 0.0
C1653 C 0.41801 0.55678 0.97052 0.0
C1654 C 0.41871 0.55795 0.99585 0.0
C1655 C 0.43354 0.57308 0.0069 0.0
C1656 C 0.40545 0.5427 0.01133 0.0
C1657 C 0.40288 0.54053 0.95754 0.0
C1658 C 0.38649 0.53608 0.01012 0.0
C1659 C 0.37432 0.52126 0.02444 0.0
C1660 C 0.38098 0.51308 0.04052 0.0
C1661 C 0.39999 0.52003 0.04198 0.0
C1662 C 0.41205 0.53459 0.0275 0.0
H1663 H 0.40656 0.5398 0.9386 0.0
H1664 H 0.3996 0.5275 0.96662 0.0
H1665 H 0.39034 0.54171 0.95749 0.0
H1666 H 0.3811 0.54238 0.99818 0.0
H1667 H 0.35976 0.51632 0.02308 0.0
H1668 H 0.84442 0.35388 0.54305 0.0
H1669 H 0.83459 0.37327 0.5225 0.0
H1670 H 0.88078 0.42146 0.55245 0.0
H1671 H 0.89016 0.4023 0.57369 0.0
H1672 H 0.85125 0.42519 0.55203 0.0
H1673 H 0.85955 0.40076 0.46267 0.0
H1674 H 0.8428 0.38347 0.48203 0.0
H1675 H 0.86668 0.39472 0.48998 0.0
C1676 C 0.85234 0.3686 0.54542 0.0
C1677 C 0.86818 0.37656 0.5598 0.0
C1678 C 0.84677 0.37967 0.53357 0.0
C1679 C 0.85717 0.39886 0.5355 0.0
C1680 C 0.87253 0.4067 0.55063 0.0
H1681 H 0.88852 0.48615 0.44196 0.0
H1682 H 0.88162 0.45936 0.46591 0.0
C1683 C 0.87792 0.3957 0.56272 0.0
C1684 C 0.85309 0.41111 0.52087 0.0
H1685 H 0.85351 0.42494 0.46323 0.0
C1686 C 0.85148 0.42502 0.53259 0.0
C1687 C 0.85341 0.41085 0.49549 0.0
C1688 C 0.85584 0.39676 0.48173 0.0
C1689 C 0.85146 0.43935 0.51973 0.0
C1690 C 0.85248 0.43943 0.49441 0.0
C1691 C 0.85275 0.42483 0.48265 0.0
C1692 C 0.85601 0.45566 0.47991 0.0
C1693 C 0.85163 0.45488 0.53345 0.0
C1694 C 0.84389 0.46258 0.47979 0.0
C1695 C 0.84798 0.47821 0.46627 0.0
C1696 C 0.86407 0.48693 0.45237 0.0
C1697 C 0.87597 0.47976 0.45236 0.0
C1698 C 0.87202 0.46438 0.46603 0.0
H1699 H 0.85428 0.45438 0.55287 0.0
H1700 H 0.86226 0.46833 0.52621 0.0
H1701 H 0.8381 0.45401 0.53158 0.0
H1702 H 0.83128 0.45587 0.49 0.0
H1703 H 0.83847 0.48334 0.46647 0.0
H1704 H 0.39078 0.86453 0.90316 0.0
H1705 H 0.41249 0.85799 0.92358 0.0
H1706 H 0.38316 0.84997 0.99003 0.0
H1707 H 0.36104 0.85602 0.9695 0.0
H1708 H 0.43397 0.88053 0.9578 0.0
H1709 H 0.3964 0.80994 0.99427 0.0
H1710 H 0.38705 0.81782 0.97103 0.0
H1711 H 0.38582 0.82319 0.00196 0.0
C1712 C 0.38866 0.86089 0.922 0.0
C1713 C 0.37432 0.86096 0.93481 0.0
C1714 C 0.40106 0.85712 0.93362 0.0
C1715 C 0.39944 0.85344 0.95831 0.0
C1716 C 0.38448 0.8524 0.97087 0.0
H1717 H 0.48332 0.88644 0.06223 0.0
H1718 H 0.457 0.87954 0.03707 0.0
C1719 C 0.3719 0.85597 0.95915 0.0
C1720 C 0.41485 0.85362 0.97138 0.0
H1721 H 0.42579 0.83034 0.01219 0.0
C1722 C 0.4322 0.86939 0.96937 0.0
C1723 C 0.41257 0.83909 0.98643 0.0
C1724 C 0.39449 0.82148 0.98839 0.0
C1725 C 0.44716 0.87133 0.98264 0.0
C1726 C 0.44467 0.85725 -0.00141 0.0
C1727 C 0.42756 0.84115 1e-05 0.0
C1728 C 0.45951 0.85981 0.01499 0.0
C1729 C 0.46549 0.88863 0.97993 0.0
C1730 C 0.46937 0.85068 0.01112 0.0
C1731 C 0.48456 0.85465 0.02547 0.0
C1732 C 0.49001 0.86777 0.0439 0.0
C1733 C 0.47963 0.87638 0.04812 0.0
C1734 C 0.46454 0.87243 0.0338 0.0
H1735 H 0.46615 0.89627 0.96336 0.0
H1736 H 0.46778 0.89771 0.99552 0.0
H1737 H 0.47677 0.88543 0.97952 0.0
H1738 H 0.46563 0.84091 0.99661 0.0
H1739 H 0.49221 0.84772 0.02183 0.0
H1740 H 0.53724 0.4004 0.42228 0.0
H1741 H 0.56255 0.41972 0.44895 0.0
H1742 H 0.53595 0.3814 0.5068 0.0
H1743 H 0.51053 0.36173 0.48 0.0
H1744 H 0.5544 0.43422 0.4891 0.0
H1745 H 0.59103 0.3972 0.51488 0.0
H1746 H 0.5771 0.39166 0.48816 0.0
H1747 H 0.56642 0.38432 0.517 0.0
C1748 C 0.53695 0.39583 0.44052 0.0
C1749 C 0.52178 0.37966 0.44915 0.0
C1750 C 0.55146 0.40686 0.4557 0.0
C1751 C 0.55113 0.40197 0.4798 0.0
C1752 C 0.5366 0.38526 0.48814 0.0
H1753 H 0.60005 0.47769 0.59671 0.0
H1754 H 0.5813 0.45032 0.57269 0.0
C1755 C 0.52205 0.37409 0.47285 0.0
C1756 C 0.56442 0.41571 0.49671 0.0
H1757 H 0.59905 0.42477 0.53604 0.0
C1758 C 0.56421 0.43217 0.49927 0.0
C1759 C 0.57714 0.41294 0.50996 0.0
C1760 C 0.57812 0.39564 0.50732 0.0
C1761 C 0.57633 0.44595 0.51478 0.0
C1762 C 0.58891 0.44314 0.52824 0.0
C1763 C 0.58928 0.42675 0.52569 0.0
C1764 C 0.60166 0.45739 0.54493 0.0
C1765 C 0.57567 0.46349 0.51672 0.0
C1766 C 0.61951 0.47006 0.53751 0.0
C1767 C 0.63028 0.4858 0.55113 0.0
C1768 C 0.62327 0.48909 0.57229 0.0
C1769 C 0.60581 0.47568 0.58041 0.0
C1770 C 0.5951 0.45997 0.56681 0.0
H1771 H 0.56661 0.46438 0.50295 0.0
H1772 H 0.57044 0.46425 0.53471 0.0
H1773 H 0.58964 0.47555 0.51479 0.0
H1774 H 0.6247 0.46829 0.52054 0.0
H1775 H 0.64369 0.49582 0.54443 0.0
H1776 H 0.14624 0.54803 0.90812 0.0
H1777 H 0.15328 0.57414 0.93394 0.0
H1778 H 0.15342 0.54327 0.99564 0.0
H1779 H 0.14703 0.51733 0.96976 0.0
H1780 H 0.13062 0.5732 0.96684 0.0
H1781 H 0.19653 0.59242 0.01111 0.0
H1782 H 0.18858 0.57773 0.98508 0.0
H1783 H 0.18038 0.56846 0.01455 0.0
C1784 C 0.1482 0.54696 0.92713 0.0
C1785 C 0.14599 0.5306 0.93696 0.0
C1786 C 0.15224 0.5619 0.94185 0.0
C1787 C 0.15403 0.56076 0.96672 0.0
C1788 C 0.15258 0.54469 0.97646 0.0
H1789 H 0.13375 0.60675 0.08947 0.0
H1790 H 0.14107 0.58996 0.05995 0.0
C1791 C 0.14879 0.5298 0.96166 0.0
C1792 C 0.15497 0.57532 0.98261 0.0
H1793 H 0.17738 0.60236 0.03078 0.0
C1794 C 0.14108 0.57984 0.98048 0.0
C1795 C 0.16858 0.58396 0.00048 0.0
C1796 C 0.18446 0.58052 0.00279 0.0
C1797 C 0.13999 0.59216 0.99631 0.0
C1798 C 0.15314 0.60019 0.01473 0.0
C1799 C 0.16734 0.59613 0.01656 0.0
C1800 C 0.15123 0.61154 0.03338 0.0
C1801 C 0.12433 0.59595 0.99395 0.0
C1802 C 0.15492 0.62938 0.02828 0.0
C1803 C 0.1508 0.63908 0.04515 0.0
C1804 C 0.14277 0.63096 0.06724 0.0
C1805 C 0.13978 0.61334 0.07255 0.0
C1806 C 0.14404 0.60376 0.05579 0.0
H1807 H 0.11438 0.58739 0.97988 0.0
H1808 H 0.11695 0.59333 0.0113 0.0
H1809 H 0.12981 0.61059 0.98932 0.0
H1810 H 0.16046 0.63554 0.01099 0.0
H1811 H 0.15327 0.65263 0.04055 0.0
H1812 H 0.50308 0.14476 0.53104 0.0
H1813 H 0.53123 0.15319 0.50865 0.0
H1814 H 0.55702 0.14945 0.57355 0.0
H1815 H 0.52868 0.14019 0.59577 0.0
H1816 H 0.56719 0.17949 0.51008 0.0
H1817 H 0.55939 0.11164 0.53236 0.0
H1818 H 0.54187 0.11728 0.53903 0.0
H1819 H 0.56161 0.12526 0.55819 0.0
C1820 C 0.51485 0.14599 0.54058 0.0
C1821 C 0.51361 0.14149 0.56502 0.0
C1822 C 0.53092 0.15082 0.52778 0.0
C1823 C 0.54604 0.15144 0.53931 0.0
C1824 C 0.54532 0.14848 0.56415 0.0
H1825 H 0.64217 0.15417 0.47518 0.0
H1826 H 0.62375 0.16057 0.50343 0.0
C1827 C 0.52916 0.14328 0.57683 0.0
C1828 C 0.5619 0.15369 0.52503 0.0
H1829 H 0.58528 0.13175 0.50974 0.0
C1830 C 0.57123 0.16912 0.51012 0.0
C1831 C 0.56708 0.14006 0.52497 0.0
C1832 C 0.55687 0.12255 0.53929 0.0
C1833 C 0.58547 0.17116 0.49497 0.0
C1834 C 0.59046 0.15746 0.49484 0.0
C1835 C 0.58152 0.14233 0.51019 0.0
C1836 C 0.60345 0.15731 0.47716 0.0
C1837 C 0.59493 0.18776 0.47896 0.0
C1838 C 0.59824 0.15366 0.45303 0.0
C1839 C 0.60855 0.14977 0.43698 0.0
C1840 C 0.62431 0.14954 0.44477 0.0
C1841 C 0.63013 0.15431 0.46864 0.0
C1842 C 0.61965 0.15797 0.48478 0.0
H1843 H 0.59259 0.19898 0.48509 0.0
H1844 H 0.60991 0.19294 0.47828 0.0
H1845 H 0.58946 0.18389 0.46047 0.0
H1846 H 0.58562 0.1528 0.44691 0.0
H1847 H 0.60376 0.14623 0.41868 0.0
H1848 H 0.51351 0.40238 0.07659 0.0
H1849 H 0.54259 0.41949 0.05572 0.0
H1850 H 0.54034 0.36887 0.03586 0.0
H1851 H 0.51044 0.3515 0.05578 0.0
H1852 H 0.57531 0.4232 0.05941 0.0
H1853 H 0.54547 0.39087 0.97131 0.0
H1854 H 0.53139 0.38691 0.99741 0.0
H1855 H 0.54468 0.37567 0.99442 0.0
C1856 C 0.5192 0.39484 0.0679 0.0
C1857 C 0.50956 0.37558 0.06755 0.0
C1858 C 0.53592 0.40466 0.05603 0.0
C1859 C 0.54357 0.3955 0.04381 0.0
C1860 C 0.53448 0.37625 0.04455 0.0
H1861 H 0.64507 0.48135 0.97279 0.0
H1862 H 0.62712 0.45382 0.9975 0.0
C1863 C 0.51746 0.36635 0.05604 0.0
C1864 C 0.56037 0.40647 0.02923 0.0
H1865 H 0.57495 0.41612 0.97118 0.0
C1866 C 0.5754 0.42152 0.04013 0.0
C1867 C 0.56052 0.40414 0.00409 0.0
C1868 C 0.54464 0.38863 0.99101 0.0
C1869 C 0.58966 0.43525 0.02644 0.0
C1870 C 0.58921 0.43347 0.00119 0.0
C1871 C 0.57518 0.41748 0.99054 0.0
C1872 C 0.60075 0.44925 0.98528 0.0
C1873 C 0.60417 0.4522 0.03899 0.0
C1874 C 0.59196 0.45544 0.96965 0.0
C1875 C 0.60208 0.47077 0.95531 0.0
C1876 C 0.62133 0.48051 0.95638 0.0
C1877 C 0.63025 0.47421 0.97174 0.0
C1878 C 0.62002 0.45855 0.98594 0.0
H1879 H 0.60084 0.45259 0.05819 0.0
H1880 H 0.61747 0.45249 0.03811 0.0
H1881 H 0.60589 0.46477 0.0301 0.0
H1882 H 0.57713 0.44859 0.96888 0.0
H1883 H 0.59471 0.47522 0.94377 0.0
H1884 H 0.13666 0.62547 0.48854 0.0
H1885 H 0.14176 0.60356 0.51139 0.0
H1886 H 0.12528 0.56758 0.4501 0.0
H1887 H 0.11987 0.58914 0.42736 0.0
H1888 H 0.10534 0.55105 0.4904 0.0
H1889 H 0.17981 0.58668 0.51079 0.0
H1890 H 0.16866 0.59949 0.5182 0.0
H1891 H 0.17027 0.59423 0.48739 0.0
C1892 C 0.13453 0.61309 0.47977 0.0
C1893 C 0.12768 0.60895 0.45623 0.0
C1894 C 0.13754 0.60062 0.49282 0.0
C1895 C 0.13398 0.58398 0.48239 0.0
C1896 C 0.12812 0.58034 0.45848 0.0
H1897 H 0.14368 0.49312 0.54006 0.0
H1898 H 0.14841 0.52009 0.51735 0.0
C1899 C 0.125 0.59268 0.44553 0.0
C1900 C 0.13407 0.56936 0.49706 0.0
H1901 H 0.16088 0.55871 0.53179 0.0
C1902 C 0.11752 0.55272 0.49933 0.0
C1903 C 0.14999 0.57153 0.5086 0.0
C1904 C 0.16825 0.58888 0.50601 0.0
C1905 C 0.11638 0.53825 0.51303 0.0
C1906 C 0.13213 0.54058 0.52514 0.0
C1907 C 0.1488 0.55709 0.52262 0.0
C1908 C 0.13129 0.52586 0.54048 0.0
C1909 C 0.09831 0.5205 0.5143 0.0
C1910 C 0.12054 0.52056 0.56131 0.0
C1911 C 0.11775 0.50518 0.57423 0.0
C1912 C 0.12572 0.49483 0.56659 0.0
C1913 C 0.13727 0.50073 0.54636 0.0
C1914 C 0.14004 0.51616 0.5334 0.0
H1915 H 0.0888 0.5195 0.49982 0.0
H1916 H 0.10043 0.50853 0.513 0.0
H1917 H 0.09164 0.51971 0.53177 0.0
H1918 H 0.11385 0.52803 0.56716 0.0
H1919 H 0.10892 0.50115 0.58985 0.0
H1920 H 0.64787 0.15451 0.04263 0.0
H1921 H 0.62851 0.16401 0.02135 0.0
H1922 H 0.58024 0.11743 0.05059 0.0
H1923 H 0.59935 0.10833 0.07246 0.0
H1924 H 0.60504 0.14743 0.98741 0.0
H1925 H 0.56681 0.15573 0.06158 0.0
H1926 H 0.58691 0.15376 0.06672 0.0
H1927 H 0.56461 0.13352 0.06379 0.0
C1928 C 0.63313 0.14647 0.04477 0.0
C1929 C 0.62515 0.13071 0.05932 0.0
C1930 C 0.62209 0.15193 0.03264 0.0
C1931 C 0.6029 0.1417 0.0348 0.0
C1932 C 0.59499 0.12597 0.0493 0.0
H1933 H 0.52001 0.11251 0.93423 0.0
H1934 H 0.54686 0.1197 0.95814 0.0
C1935 C 0.60597 0.12066 0.06163 0.0
C1936 C 0.59092 0.14622 0.02023 0.0
H1937 H 0.55073 0.14679 0.02298 0.0
C1938 C 0.59341 0.14773 0.99528 0.0
C1939 C 0.57601 0.1472 0.03038 0.0
C1940 C 0.57359 0.14769 0.05712 0.0
C1941 C 0.58056 0.14857 0.98014 0.0
C1942 C 0.56448 0.14721 0.99017 0.0
C1943 C 0.56281 0.14736 0.0152 0.0
C1944 C 0.54848 0.14358 0.97513 0.0
C1945 C 0.58418 0.15046 0.9535 0.0
C1946 C 0.5399 0.15417 0.97738 0.0
C1947 C 0.52418 0.14983 0.96396 0.0
C1948 C 0.51681 0.13484 0.9481 0.0
C1949 C 0.52543 0.12429 0.94603 0.0
C1950 C 0.54094 0.1285 0.95955 0.0
H1951 H 0.59913 0.15845 0.94974 0.0
H1952 H 0.57888 0.13664 0.94554 0.0
H1953 H 0.57742 0.15729 0.94452 0.0
H1954 H 0.54535 0.16574 0.98954 0.0
H1955 H 0.51783 0.1582 0.96599 0.0
H1956 H 0.4891 0.6399 0.51274 0.0
H1957 H 0.46527 0.6186 0.48512 0.0
H1958 H 0.44647 0.57592 0.53853 0.0
H1959 H 0.47019 0.59687 0.56598 0.0
H1960 H 0.45452 0.56625 0.49428 0.0
H1961 H 0.4088 0.59582 0.48441 0.0
H1962 H 0.43286 0.61141 0.47978 0.0
H1963 H 0.42477 0.60174 0.50897 0.0
C1964 C 0.4797 0.62606 0.51871 0.0
C1965 C 0.48163 0.62005 0.5415 0.0
C1966 C 0.46605 0.61394 0.50296 0.0
C1967 C 0.45406 0.59573 0.50986 0.0
C1968 C 0.45559 0.58993 0.53287 0.0
H1969 H 0.35845 0.50461 0.44657 0.0
H1970 H 0.37981 0.53121 0.47044 0.0
C1971 C 0.46919 0.60194 0.54853 0.0
C1972 C 0.44094 0.58213 0.49265 0.0
H1973 H 0.40228 0.57023 0.45997 0.0
C1974 C 0.44313 0.56714 0.48673 0.0
C1975 C 0.42605 0.5833 0.483 0.0
C1976 C 0.4228 0.59884 0.48944 0.0
C1977 C 0.43076 0.55321 0.47152 0.0
C1978 C 0.41598 0.55447 0.4616 0.0
C1979 C 0.41374 0.56944 0.46747 0.0
C1980 C 0.40246 0.53993 0.4457 0.0
C1981 C 0.43336 0.53702 0.46667 0.0
C1982 C 0.408 0.53643 0.42358 0.0
C1983 C 0.39591 0.52123 0.40998 0.0
C1984 C 0.37799 0.50931 0.41821 0.0
C1985 C 0.37217 0.51346 0.43977 0.0
C1986 C 0.38433 0.52867 0.45341 0.0
H1987 H 0.44284 0.53616 0.47978 0.0
H1988 H 0.42004 0.52399 0.46729 0.0
H1989 H 0.43927 0.5384 0.44848 0.0
H1990 H 0.42188 0.54514 0.41718 0.0
H1991 H 0.40079 0.51856 0.39334 0.0
H1992 H 0.85078 0.36224 0.96475 0.0
H1993 H 0.84495 0.38253 0.99004 0.0
H1994 H 0.84399 0.41197 0.92721 0.0
H1995 H 0.85052 0.39222 0.90203 0.0
H1996 H 0.86749 0.43442 0.95859 0.0
H1997 H 0.80258 0.38959 0.00638 0.0
H1998 H 0.81876 0.38182 0.0098 0.0
H1999 H 0.80979 0.38191 0.98052 0.0
C2000 C 0.84889 0.37277 0.95632 0.0
C2001 C 0.85126 0.37577 0.93147 0.0
C2002 C 0.84542 0.38428 0.97077 0.0
C2003 C 0.84385 0.39869 0.96051 0.0
C2004 C 0.84514 0.40095 0.93553 0.0
H2005 H 0.84991 0.49586 0.02758 0.0
H2006 H 0.84094 0.47009 -4e-05 0.0
C2007 C 0.8489 0.38968 0.92116 0.0
C2008 C 0.84343 0.41287 0.97585 0.0
H2009 H 0.82216 0.4194 0.02391 0.0
C2010 C 0.85734 0.43115 0.97255 0.0
C2011 C 0.83025 0.40861 0.99415 0.0
C2012 C 0.8144 0.38943 0.99777 0.0
C2013 C 0.85886 0.44516 0.98758 0.0
C2014 C 0.84608 0.44081 0.00634 0.0
C2015 C 0.8319 0.42264 0.00941 0.0
C2016 C 0.84841 0.4548 0.02412 0.0
C2017 C 0.87463 0.46442 0.98394 0.0
C2018 C 0.85497 0.45435 0.04702 0.0
C2019 C 0.86019 0.46903 0.06273 0.0
C2020 C 0.85884 0.48438 0.05583 0.0
C2021 C 0.85118 0.48427 0.03338 0.0
C2022 C 0.84605 0.46959 0.01759 0.0
H2023 H 0.88471 0.46501 0.97061 0.0
H2024 H 0.86926 0.4733 0.9775 0.0
H2025 H 0.88185 0.47016 0.00117 0.0
H2026 H 0.85689 0.44305 0.05232 0.0
H2027 H 0.86587 0.46859 0.07998 0.0
H2028 H 0.47428 0.88437 0.41681 0.0
H2029 H 0.44787 0.87581 0.44234 0.0
H2030 H 0.45463 0.83285 0.47417 0.0
H2031 H 0.48192 0.84205 0.4493 0.0
H2032 H 0.41573 0.84658 0.44891 0.0
H2033 H 0.45648 0.86076 0.53276 0.0
H2034 H 0.46706 0.86617 0.50358 0.0
H2035 H 0.4555 0.84288 0.51424 0.0
C2036 C 0.47013 0.873 0.4291 0.0
C2037 C 0.48036 0.86405 0.43126 0.0
C2038 C 0.45494 0.86807 0.44367 0.0
C2039 C 0.44943 0.85392 0.46056 0.0
C2040 C 0.45893 0.84416 0.46178 0.0
H2041 H 0.35222 0.8389 0.54204 0.0
H2042 H 0.37076 0.83049 0.51678 0.0
C2043 C 0.47443 0.84935 0.44745 0.0
C2044 C 0.43446 0.85048 0.47756 0.0
H2045 H 0.42621 0.8542 0.53663 0.0
C2046 C 0.4179 0.84802 0.46815 0.0
C2047 C 0.43734 0.85238 0.50266 0.0
C2048 C 0.45508 0.85583 0.51398 0.0
C2049 C 0.40476 0.84877 0.48285 0.0
C2050 C 0.40793 0.85128 0.50785 0.0
C2051 C 0.42385 0.85233 0.51745 0.0
C2052 C 0.3964 0.8554 0.52393 0.0
C2053 C 0.38829 0.84818 0.47121 0.0
C2054 C 0.40469 0.87184 0.537 0.0
C2055 C 0.39427 0.87642 0.55179 0.0
C2056 C 0.37523 0.86477 0.55365 0.0
C2057 C 0.36686 0.84823 0.54072 0.0
C2058 C 0.37741 0.84346 0.5262 0.0
H2059 H 0.38999 0.85021 0.45149 0.0
H2060 H 0.376 0.8346 0.47456 0.0
H2061 H 0.38573 0.85888 0.47881 0.0
H2062 H 0.41929 0.88131 0.53551 0.0
H2063 H 0.40113 0.88929 0.56145 0.0
loop_
_geom_bond_atom_site_label_1
_geom_bond_atom_site_label_2
_geom_bond_distance
_geom_bond_site_symmetry_2
_ccdc_geom_bond_type
Zn0 O3 2.031 . S
Zn0 O5 2.049 . S
Zn0 O10 2.067 . S
Zn1 O2 1.962 . S
Zn1 O4 1.986 . S
Zn1 O6 1.996 . S
Zn1 O9 1.943 . S
O2 Zn1 1.962 . S
O2 C7 1.254 . S
O3 Zn0 2.031 . S
O3 C7 1.269 . S
O4 Zn1 1.986 . S
O4 C11 1.262 . S
O5 Zn0 2.049 . S
O5 C13 1.260 . S
O6 Zn1 1.996 . S
O6 C13 1.257 . S
C7 O2 1.254 . S
C7 O3 1.269 . S
C8 O9 1.249 . S
C8 O10 1.270 . S
O9 Zn1 1.943 . S
O9 C8 1.249 . S
O10 Zn0 2.067 . S
O10 C8 1.270 . S
C11 O4 1.262 . S
C11 O12 1.232 . S
O12 C11 1.232 . S
C13 O5 1.260 . S
C13 O6 1.257 . S
Zn14 O17 2.031 . S
Zn14 O19 2.049 . S
Zn14 O24 2.067 . S
Zn15 O16 1.962 . S
Zn15 O18 1.986 . S
Zn15 O20 1.996 . S
Zn15 O23 1.943 . S
O16 Zn15 1.962 . S
O16 C21 1.254 . S
O17 Zn14 2.031 . S
O17 C21 1.269 . S
O18 Zn15 1.986 . S
O18 C25 1.262 . S
O19 Zn14 2.049 . S
O19 C27 1.260 . S
O20 Zn15 1.996 . S
O20 C27 1.257 . S
C21 O16 1.254 . S
C21 O17 1.269 . S
C22 O23 1.249 . S
C22 O24 1.270 . S
O23 Zn15 1.943 . S
O23 C22 1.249 . S
O24 Zn14 2.067 . S
O24 C22 1.270 . S
C25 O18 1.262 . S
C25 O26 1.232 . S
O26 C25 1.232 . S
C27 O19 1.260 . S
C27 O20 1.257 . S
Zn28 O31 2.031 . S
Zn28 O33 2.049 . S
Zn28 O38 2.067 . S
Zn29 O30 1.962 . S
Zn29 O32 1.986 . S
Zn29 O34 1.996 . S
Zn29 O37 1.943 . S
O30 Zn29 1.962 . S
O30 C35 1.254 . S
O31 Zn28 2.031 . S
O31 C35 1.269 . S
O32 Zn29 1.986 . S
O32 C39 1.262 . S
O33 Zn28 2.049 . S
O33 C41 1.260 . S
O34 Zn29 1.996 . S
O34 C41 1.257 . S
C35 O30 1.254 . S
C35 O31 1.269 . S
C36 O37 1.249 . S
C36 O38 1.270 . S
O37 Zn29 1.943 . S
O37 C36 1.249 . S
O38 Zn28 2.067 . S
O38 C36 1.270 . S
C39 O32 1.262 . S
C39 O40 1.232 . S
O40 C39 1.232 . S
C41 O33 1.260 . S
C41 O34 1.257 . S
Zn42 O45 2.031 . S
Zn42 O47 2.049 . S
Zn42 O52 2.067 . S
Zn43 O44 1.962 . S
Zn43 O46 1.986 . S
Zn43 O48 1.996 . S
Zn43 O51 1.943 . S
O44 Zn43 1.962 . S
O44 C49 1.254 . S
O45 Zn42 2.031 . S
O45 C49 1.269 . S
O46 Zn43 1.986 . S
O46 C53 1.262 . S
O47 Zn42 2.049 . S
O47 C55 1.260 . S
O48 Zn43 1.996 . S
O48 C55 1.257 . S
C49 O44 1.254 . S
C49 O45 1.269 . S
C50 O51 1.249 . S
C50 O52 1.270 . S
O51 Zn43 1.943 . S
O51 C50 1.249 . S
O52 Zn42 2.067 . S
O52 C50 1.270 . S
C53 O46 1.262 . S
C53 O54 1.232 . S
O54 C53 1.232 . S
C55 O47 1.260 . S
C55 O48 1.257 . S
Zn56 O59 2.031 . S
Zn56 O61 2.049 . S
Zn56 O66 2.067 . S
Zn57 O58 1.962 . S
Zn57 O60 1.986 . S
Zn57 O62 1.996 . S
Zn57 O65 1.943 . S
O58 Zn57 1.962 . S
O58 C63 1.254 . S
O59 Zn56 2.031 . S
O59 C63 1.269 . S
O60 Zn57 1.986 . S
O60 C67 1.262 . S
O61 Zn56 2.049 . S
O61 C69 1.260 . S
O62 Zn57 1.996 . S
O62 C69 1.257 . S
C63 O58 1.254 . S
C63 O59 1.269 . S
C64 O65 1.249 . S
C64 O66 1.270 . S
O65 Zn57 1.943 . S
O65 C64 1.249 . S
O66 Zn56 2.067 . S
O66 C64 1.270 . S
C67 O60 1.262 . S
C67 O68 1.232 . S
O68 C67 1.232 . S
C69 O61 1.260 . S
C69 O62 1.257 . S
Zn70 O73 2.031 . S
Zn70 O75 2.049 . S
Zn70 O80 2.067 . S
Zn71 O72 1.962 . S
Zn71 O74 1.986 . S
Zn71 O76 1.996 . S
Zn71 O79 1.943 . S
O72 Zn71 1.962 . S
O72 C77 1.254 . S
O73 Zn70 2.031 . S
O73 C77 1.269 . S
O74 Zn71 1.986 . S
O74 C81 1.262 . S
O75 Zn70 2.049 . S
O75 C83 1.260 . S
O76 Zn71 1.996 . S
O76 C83 1.257 . S
C77 O72 1.254 . S
C77 O73 1.269 . S
C78 O79 1.249 . S
C78 O80 1.270 . S
O79 Zn71 1.943 . S
O79 C78 1.249 . S
O80 Zn70 2.067 . S
O80 C78 1.270 . S
C81 O74 1.262 . S
C81 O82 1.232 . S
O82 C81 1.232 . S
C83 O75 1.260 . S
C83 O76 1.257 . S
Zn84 O87 2.031 . S
Zn84 O89 2.049 . S
Zn84 O94 2.067 . S
Zn85 O86 1.962 . S
Zn85 O88 1.986 . S
Zn85 O90 1.996 . S
Zn85 O93 1.943 . S
O86 Zn85 1.962 . S
O86 C91 1.254 . S
O87 Zn84 2.031 . S
O87 C91 1.269 . S
O88 Zn85 1.986 . S
O88 C95 1.262 . S
O89 Zn84 2.049 . S
O89 C97 1.260 . S
O90 Zn85 1.996 . S
O90 C97 1.257 . S
C91 O86 1.254 . S
C91 O87 1.269 . S
C92 O93 1.249 . S
C92 O94 1.270 . S
O93 Zn85 1.943 . S
O93 C92 1.249 . S
O94 Zn84 2.067 . S
O94 C92 1.270 . S
C95 O88 1.262 . S
C95 O96 1.232 . S
O96 C95 1.232 . S
C97 O89 1.260 . S
C97 O90 1.257 . S
Zn98 O101 2.031 . S
Zn98 O103 2.049 . S
Zn98 O108 2.067 . S
Zn99 O100 1.962 . S
Zn99 O102 1.986 . S
Zn99 O104 1.996 . S
Zn99 O107 1.943 . S
O100 Zn99 1.962 . S
O100 C105 1.254 . S
O101 Zn98 2.031 . S
O101 C105 1.269 . S
O102 Zn99 1.986 . S
O102 C109 1.262 . S
O103 Zn98 2.049 . S
O103 C111 1.260 . S
O104 Zn99 1.996 . S
O104 C111 1.257 . S
C105 O100 1.254 . S
C105 O101 1.269 . S
C106 O107 1.249 . S
C106 O108 1.270 . S
O107 Zn99 1.943 . S
O107 C106 1.249 . S
O108 Zn98 2.067 . S
O108 C106 1.270 . S
C109 O102 1.262 . S
C109 O110 1.232 . S
O110 C109 1.232 . S
C111 O103 1.260 . S
C111 O104 1.257 . S
Zn112 O115 2.031 . S
Zn112 O117 2.049 . S
Zn112 O122 2.067 . S
Zn113 O114 1.962 . S
Zn113 O116 1.986 . S
Zn113 O118 1.996 . S
Zn113 O121 1.943 . S
O114 Zn113 1.962 . S
O114 C119 1.254 . S
O115 Zn112 2.031 . S
O115 C119 1.269 . S
O116 Zn113 1.986 . S
O116 C123 1.262 . S
O117 Zn112 2.049 . S
O117 C125 1.260 . S
O118 Zn113 1.996 . S
O118 C125 1.257 . S
C119 O114 1.254 . S
C119 O115 1.269 . S
C120 O121 1.249 . S
C120 O122 1.270 . S
O121 Zn113 1.943 . S
O121 C120 1.249 . S
O122 Zn112 2.067 . S
O122 C120 1.270 . S
C123 O116 1.262 . S
C123 O124 1.232 . S
O124 C123 1.232 . S
C125 O117 1.260 . S
C125 O118 1.257 . S
Zn126 O129 2.031 . S
Zn126 O131 2.049 . S
Zn126 O136 2.067 . S
Zn127 O128 1.962 . S
Zn127 O130 1.986 . S
Zn127 O132 1.996 . S
Zn127 O135 1.943 . S
O128 Zn127 1.962 . S
O128 C133 1.254 . S
O129 Zn126 2.031 . S
O129 C133 1.269 . S
O130 Zn127 1.986 . S
O130 C137 1.262 . S
O131 Zn126 2.049 . S
O131 C139 1.260 . S
O132 Zn127 1.996 . S
O132 C139 1.257 . S
C133 O128 1.254 . S
C133 O129 1.269 . S
C134 O135 1.249 . S
C134 O136 1.270 . S
O135 Zn127 1.943 . S
O135 C134 1.249 . S
O136 Zn126 2.067 . S
O136 C134 1.270 . S
C137 O130 1.262 . S
C137 O138 1.232 . S
O138 C137 1.232 . S
C139 O131 1.260 . S
C139 O132 1.257 . S
Zn140 O143 2.031 . S
Zn140 O145 2.049 . S
Zn140 O150 2.067 . S
Zn141 O142 1.962 . S
Zn141 O144 1.986 . S
Zn141 O146 1.996 . S
Zn141 O149 1.943 . S
O142 Zn141 1.962 . S
O142 C147 1.254 . S
O143 Zn140 2.031 . S
O143 C147 1.269 . S
O144 Zn141 1.986 . S
O144 C151 1.262 . S
O145 Zn140 2.049 . S
O145 C153 1.260 . S
O146 Zn141 1.996 . S
O146 C153 1.257 . S
C147 O142 1.254 . S
C147 O143 1.269 . S
C148 O149 1.249 . S
C148 O150 1.270 . S
O149 Zn141 1.943 . S
O149 C148 1.249 . S
O150 Zn140 2.067 . S
O150 C148 1.270 . S
C151 O144 1.262 . S
C151 O152 1.232 . S
O152 C151 1.232 . S
C153 O145 1.260 . S
C153 O146 1.257 . S
Zn154 O157 2.031 . S
Zn154 O159 2.049 . S
Zn154 O164 2.067 . S
Zn155 O156 1.962 . S
Zn155 O158 1.986 . S
Zn155 O160 1.996 . S
Zn155 O163 1.943 . S
O156 Zn155 1.962 . S
O156 C161 1.254 . S
O157 Zn154 2.031 . S
O157 C161 1.269 . S
O158 Zn155 1.986 . S
O158 C165 1.262 . S
O159 Zn154 2.049 . S
O159 C167 1.260 . S
O160 Zn155 1.996 . S
O160 C167 1.257 . S
C161 O156 1.254 . S
C161 O157 1.269 . S
C162 O163 1.249 . S
C162 O164 1.270 . S
O163 Zn155 1.943 . S
O163 C162 1.249 . S
O164 Zn154 2.067 . S
O164 C162 1.270 . S
C165 O158 1.262 . S
C165 O166 1.232 . S
O166 C165 1.232 . S
C167 O159 1.260 . S
C167 O160 1.257 . S
Zn168 O171 2.031 . S
Zn168 O173 2.049 . S
Zn168 O178 2.067 . S
Zn169 O170 1.962 . S
Zn169 O172 1.986 . S
Zn169 O174 1.996 . S
Zn169 O177 1.943 . S
O170 Zn169 1.962 . S
O170 C175 1.254 . S
O171 Zn168 2.031 . S
O171 C175 1.269 . S
O172 Zn169 1.986 . S
O172 C179 1.262 . S
O173 Zn168 2.049 . S
O173 C181 1.260 . S
O174 Zn169 1.996 . S
O174 C181 1.257 . S
C175 O170 1.254 . S
C175 O171 1.269 . S
C176 O177 1.249 . S
C176 O178 1.270 . S
O177 Zn169 1.943 . S
O177 C176 1.249 . S
O178 Zn168 2.067 . S
O178 C176 1.270 . S
C179 O172 1.262 . S
C179 O180 1.232 . S
O180 C179 1.232 . S
C181 O173 1.260 . S
C181 O174 1.257 . S
Zn182 O185 2.031 . S
Zn182 O187 2.049 . S
Zn182 O192 2.067 . S
Zn183 O184 1.962 . S
Zn183 O186 1.986 . S
Zn183 O188 1.996 . S
Zn183 O191 1.943 . S
O184 Zn183 1.962 . S
O184 C189 1.254 . S
O185 Zn182 2.031 . S
O185 C189 1.269 . S
O186 Zn183 1.986 . S
O186 C193 1.262 . S
O187 Zn182 2.049 . S
O187 C195 1.260 . S
O188 Zn183 1.996 . S
O188 C195 1.257 . S
C189 O184 1.254 . S
C189 O185 1.269 . S
C190 O191 1.249 . S
C190 O192 1.270 . S
O191 Zn183 1.943 . S
O191 C190 1.249 . S
O192 Zn182 2.067 . S
O192 C190 1.270 . S
C193 O186 1.262 . S
C193 O194 1.232 . S
O194 C193 1.232 . S
C195 O187 1.260 . S
C195 O188 1.257 . S
Zn196 O199 2.031 . S
Zn196 O201 2.049 . S
Zn196 O206 2.067 . S
Zn197 O198 1.962 . S
Zn197 O200 1.986 . S
Zn197 O202 1.996 . S
Zn197 O205 1.943 . S
O198 Zn197 1.962 . S
O198 C203 1.254 . S
O199 Zn196 2.031 . S
O199 C203 1.269 . S
O200 Zn197 1.986 . S
O200 C207 1.262 . S
O201 Zn196 2.049 . S
O201 C209 1.260 . S
O202 Zn197 1.996 . S
O202 C209 1.257 . S
C203 O198 1.254 . S
C203 O199 1.269 . S
C204 O205 1.249 . S
C204 O206 1.270 . S
O205 Zn197 1.943 . S
O205 C204 1.249 . S
O206 Zn196 2.067 . S
O206 C204 1.270 . S
C207 O200 1.262 . S
C207 O208 1.232 . S
O208 C207 1.232 . S
C209 O201 1.260 . S
C209 O202 1.257 . S
Zn210 O213 2.031 . S
Zn210 O215 2.049 . S
Zn210 O220 2.067 . S
Zn211 O212 1.962 . S
Zn211 O214 1.986 . S
Zn211 O216 1.996 . S
Zn211 O219 1.943 . S
O212 Zn211 1.962 . S
O212 C217 1.254 . S
O213 Zn210 2.031 . S
O213 C217 1.269 . S
O214 Zn211 1.986 . S
O214 C221 1.262 . S
O215 Zn210 2.049 . S
O215 C223 1.260 . S
O216 Zn211 1.996 . S
O216 C223 1.257 . S
C217 O212 1.254 . S
C217 O213 1.269 . S
C218 O219 1.249 . S
C218 O220 1.270 . S
O219 Zn211 1.943 . S
O219 C218 1.249 . S
O220 Zn210 2.067 . S
O220 C218 1.270 . S
C221 O214 1.262 . S
C221 O222 1.232 . S
O222 C221 1.232 . S
C223 O215 1.260 . S
C223 O216 1.257 . S
Zn224 O227 2.031 . S
Zn224 O229 2.049 . S
Zn224 O234 2.067 . S
Zn225 O226 1.962 . S
Zn225 O228 1.986 . S
Zn225 O230 1.996 . S
Zn225 O233 1.943 . S
O226 Zn225 1.962 . S
O226 C231 1.254 . S
O227 Zn224 2.031 . S
O227 C231 1.269 . S
O228 Zn225 1.986 . S
O228 C235 1.262 . S
O229 Zn224 2.049 . S
O229 C237 1.260 . S
O230 Zn225 1.996 . S
O230 C237 1.257 . S
C231 O226 1.254 . S
C231 O227 1.269 . S
C232 O233 1.249 . S
C232 O234 1.270 . S
O233 Zn225 1.943 . S
O233 C232 1.249 . S
O234 Zn224 2.067 . S
O234 C232 1.270 . S
C235 O228 1.262 . S
C235 O236 1.232 . S
O236 C235 1.232 . S
C237 O229 1.260 . S
C237 O230 1.257 . S
Zn238 O241 2.031 . S
Zn238 O243 2.049 . S
Zn238 O248 2.067 . S
Zn239 O240 1.962 . S
Zn239 O242 1.986 . S
Zn239 O244 1.996 . S
Zn239 O247 1.943 . S
O240 Zn239 1.962 . S
O240 C245 1.254 . S
O241 Zn238 2.031 . S
O241 C245 1.269 . S
O242 Zn239 1.986 . S
O242 C249 1.262 . S
O243 Zn238 2.049 . S
O243 C251 1.260 . S
O244 Zn239 1.996 . S
O244 C251 1.257 . S
C245 O240 1.254 . S
C245 O241 1.269 . S
C246 O247 1.249 . S
C246 O248 1.270 . S
O247 Zn239 1.943 . S
O247 C246 1.249 . S
O248 Zn238 2.067 . S
O248 C246 1.270 . S
C249 O242 1.262 . S
C249 O250 1.232 . S
O250 C249 1.232 . S
C251 O243 1.260 . S
C251 O244 1.257 . S
Zn252 O255 2.031 . S
Zn252 O257 2.049 . S
Zn252 O262 2.067 . S
Zn253 O254 1.962 . S
Zn253 O256 1.986 . S
Zn253 O258 1.996 . S
Zn253 O261 1.943 . S
O254 Zn253 1.962 . S
O254 C259 1.254 . S
O255 Zn252 2.031 . S
O255 C259 1.269 . S
O256 Zn253 1.986 . S
O256 C263 1.262 . S
O257 Zn252 2.049 . S
O257 C265 1.260 . S
O258 Zn253 1.996 . S
O258 C265 1.257 . S
C259 O254 1.254 . S
C259 O255 1.269 . S
C260 O261 1.249 . S
C260 O262 1.270 . S
O261 Zn253 1.943 . S
O261 C260 1.249 . S
O262 Zn252 2.067 . S
O262 C260 1.270 . S
C263 O256 1.262 . S
C263 O264 1.232 . S
O264 C263 1.232 . S
C265 O257 1.260 . S
C265 O258 1.257 . S
Zn266 O269 2.031 . S
Zn266 O271 2.049 . S
Zn266 O276 2.067 . S
Zn267 O268 1.962 . S
Zn267 O270 1.986 . S
Zn267 O272 1.996 . S
Zn267 O275 1.943 . S
O268 Zn267 1.962 . S
O268 C273 1.254 . S
O269 Zn266 2.031 . S
O269 C273 1.269 . S
O270 Zn267 1.986 . S
O270 C277 1.262 . S
O271 Zn266 2.049 . S
O271 C279 1.260 . S
O272 Zn267 1.996 . S
O272 C279 1.257 . S
C273 O268 1.254 . S
C273 O269 1.269 . S
C274 O275 1.249 . S
C274 O276 1.270 . S
O275 Zn267 1.943 . S
O275 C274 1.249 . S
O276 Zn266 2.067 . S
O276 C274 1.270 . S
C277 O270 1.262 . S
C277 O278 1.232 . S
O278 C277 1.232 . S
C279 O271 1.260 . S
C279 O272 1.257 . S
Zn280 O283 2.031 . S
Zn280 O285 2.049 . S
Zn280 O290 2.067 . S
Zn281 O282 1.962 . S
Zn281 O284 1.986 . S
Zn281 O286 1.996 . S
Zn281 O289 1.943 . S
O282 Zn281 1.962 . S
O282 C287 1.254 . S
O283 Zn280 2.031 . S
O283 C287 1.269 . S
O284 Zn281 1.986 . S
O284 C291 1.262 . S
O285 Zn280 2.049 . S
O285 C293 1.260 . S
O286 Zn281 1.996 . S
O286 C293 1.257 . S
C287 O282 1.254 . S
C287 O283 1.269 . S
C288 O289 1.249 . S
C288 O290 1.270 . S
O289 Zn281 1.943 . S
O289 C288 1.249 . S
O290 Zn280 2.067 . S
O290 C288 1.270 . S
C291 O284 1.262 . S
C291 O292 1.232 . S
O292 C291 1.232 . S
C293 O285 1.260 . S
C293 O286 1.257 . S
Zn294 O297 2.031 . S
Zn294 O299 2.049 . S
Zn294 O304 2.067 . S
Zn295 O296 1.962 . S
Zn295 O298 1.986 . S
Zn295 O300 1.996 . S
Zn295 O303 1.943 . S
O296 Zn295 1.962 . S
O296 C301 1.254 . S
O297 Zn294 2.031 . S
O297 C301 1.269 . S
O298 Zn295 1.986 . S
O298 C305 1.262 . S
O299 Zn294 2.049 . S
O299 C307 1.260 . S
O300 Zn295 1.996 . S
O300 C307 1.257 . S
C301 O296 1.254 . S
C301 O297 1.269 . S
C302 O303 1.249 . S
C302 O304 1.270 . S
O303 Zn295 1.943 . S
O303 C302 1.249 . S
O304 Zn294 2.067 . S
O304 C302 1.270 . S
C305 O298 1.262 . S
C305 O306 1.232 . S
O306 C305 1.232 . S
C307 O299 1.260 . S
C307 O300 1.257 . S
Zn308 O311 2.031 . S
Zn308 O313 2.049 . S
Zn308 O318 2.067 . S
Zn309 O310 1.962 . S
Zn309 O312 1.986 . S
Zn309 O314 1.996 . S
Zn309 O317 1.943 . S
O310 Zn309 1.962 . S
O310 C315 1.254 . S
O311 Zn308 2.031 . S
O311 C315 1.269 . S
O312 Zn309 1.986 . S
O312 C319 1.262 . S
O313 Zn308 2.049 . S
O313 C321 1.260 . S
O314 Zn309 1.996 . S
O314 C321 1.257 . S
C315 O310 1.254 . S
C315 O311 1.269 . S
C316 O317 1.249 . S
C316 O318 1.270 . S
O317 Zn309 1.943 . S
O317 C316 1.249 . S
O318 Zn308 2.067 . S
O318 C316 1.270 . S
C319 O312 1.262 . S
C319 O320 1.232 . S
O320 C319 1.232 . S
C321 O313 1.260 . S
C321 O314 1.257 . S
Zn322 O325 2.031 . S
Zn322 O327 2.049 . S
Zn322 O332 2.067 . S
Zn323 O324 1.962 . S
Zn323 O326 1.986 . S
Zn323 O328 1.996 . S
Zn323 O331 1.943 . S
O324 Zn323 1.962 . S
O324 C329 1.254 . S
O325 Zn322 2.031 . S
O325 C329 1.269 . S
O326 Zn323 1.986 . S
O326 C333 1.262 . S
O327 Zn322 2.049 . S
O327 C335 1.260 . S
O328 Zn323 1.996 . S
O328 C335 1.257 . S
C329 O324 1.254 . S
C329 O325 1.269 . S
C330 O331 1.249 . S
C330 O332 1.270 . S
O331 Zn323 1.943 . S
O331 C330 1.249 . S
O332 Zn322 2.067 . S
O332 C330 1.270 . S
C333 O326 1.262 . S
C333 O334 1.232 . S
O334 C333 1.232 . S
C335 O327 1.260 . S
C335 O328 1.257 . S
H336 C344 0.929 . S
H337 C346 0.930 . S
H338 C348 0.930 . S
H339 C351 0.929 . S
H340 C354 0.930 . S
H341 C356 0.960 . S
H342 C356 0.960 . S
H343 C356 0.960 . S
C344 H336 0.929 . S
C344 C345 1.377 . S
C344 C346 1.384 . S
C345 C344 1.377 . S
C345 C351 1.390 . S
C346 H337 0.930 . S
C346 C344 1.384 . S
C346 C347 1.372 . S
C347 C346 1.372 . S
C347 C348 1.400 . S
C347 C352 1.490 . S
C348 H338 0.930 . S
C348 C347 1.400 . S
C348 C351 1.386 . S
H349 C365 0.930 . S
H350 C366 0.931 . S
C351 H339 0.929 . S
C351 C345 1.390 . S
C351 C348 1.386 . S
C352 C347 1.490 . S
C352 C354 1.395 . S
C352 C355 1.403 . S
H353 C359 0.930 . S
C354 H340 0.930 . S
C354 C352 1.395 . S
C354 C357 1.403 . S
C355 C352 1.403 . S
C355 C356 1.524 . S
C355 C359 1.400 . S
C356 H341 0.960 . S
C356 H342 0.960 . S
C356 H343 0.960 . S
C356 C355 1.524 . S
C357 C354 1.403 . S
C357 C358 1.392 . S
C357 C361 1.495 . S
C358 C357 1.392 . S
C358 C359 1.385 . S
C358 C360 1.478 . S
C359 H353 0.930 . S
C359 C355 1.400 . S
C359 C358 1.385 . S
C360 C358 1.478 . S
C360 C362 1.381 . S
C360 C366 1.383 . S
C361 C357 1.495 . S
C361 H367 0.959 . S
C361 H368 0.961 . S
C361 H369 0.960 . S
C362 C360 1.381 . S
C362 C363 1.394 . S
C362 H370 0.930 . S
C363 C362 1.394 . S
C363 C364 1.383 . S
C363 H371 0.929 . S
C364 C363 1.383 . S
C364 C365 1.377 . S
C365 H349 0.930 . S
C365 C364 1.377 . S
C365 C366 1.379 . S
C366 H350 0.931 . S
C366 C360 1.383 . S
C366 C365 1.379 . S
H367 C361 0.959 . S
H368 C361 0.961 . S
H369 C361 0.960 . S
H370 C362 0.930 . S
H371 C363 0.929 . S
H372 C380 0.929 . S
H373 C382 0.930 . S
H374 C384 0.930 . S
H375 C387 0.929 . S
H376 C390 0.930 . S
H377 C392 0.960 . S
H378 C392 0.960 . S
H379 C392 0.960 . S
C380 H372 0.929 . S
C380 C381 1.377 . S
C380 C382 1.384 . S
C381 C380 1.377 . S
C381 C387 1.390 . S
C382 H373 0.930 . S
C382 C380 1.384 . S
C382 C383 1.372 . S
C383 C382 1.372 . S
C383 C384 1.400 . S
C383 C388 1.490 . S
C384 H374 0.930 . S
C384 C383 1.400 . S
C384 C387 1.386 . S
H385 C401 0.930 . S
H386 C402 0.931 . S
C387 H375 0.929 . S
C387 C381 1.390 . S
C387 C384 1.386 . S
C388 C383 1.490 . S
C388 C390 1.395 . S
C388 C391 1.403 . S
H389 C395 0.930 . S
C390 H376 0.930 . S
C390 C388 1.395 . S
C390 C393 1.403 . S
C391 C388 1.403 . S
C391 C392 1.524 . S
C391 C395 1.400 . S
C392 H377 0.960 . S
C392 H378 0.960 . S
C392 H379 0.960 . S
C392 C391 1.524 . S
C393 C390 1.403 . S
C393 C394 1.392 . S
C393 C397 1.495 . S
C394 C393 1.392 . S
C394 C395 1.385 . S
C394 C396 1.478 . S
C395 H389 0.930 . S
C395 C391 1.400 . S
C395 C394 1.385 . S
C396 C394 1.478 . S
C396 C398 1.381 . S
C396 C402 1.383 . S
C397 C393 1.495 . S
C397 H403 0.959 . S
C397 H404 0.961 . S
C397 H405 0.960 . S
C398 C396 1.381 . S
C398 C399 1.394 . S
C398 H406 0.930 . S
C399 C398 1.394 . S
C399 C400 1.383 . S
C399 H407 0.929 . S
C400 C399 1.383 . S
C400 C401 1.377 . S
C401 H385 0.930 . S
C401 C400 1.377 . S
C401 C402 1.379 . S
C402 H386 0.931 . S
C402 C396 1.383 . S
C402 C401 1.379 . S
H403 C397 0.959 . S
H404 C397 0.961 . S
H405 C397 0.960 . S
H406 C398 0.930 . S
H407 C399 0.929 . S
H408 C416 0.929 . S
H409 C418 0.930 . S
H410 C420 0.930 . S
H411 C423 0.929 . S
H412 C426 0.930 . S
H413 C428 0.960 . S
H414 C428 0.960 . S
H415 C428 0.960 . S
C416 H408 0.929 . S
C416 C417 1.377 . S
C416 C418 1.384 . S
C417 C416 1.377 . S
C417 C423 1.390 . S
C418 H409 0.930 . S
C418 C416 1.384 . S
C418 C419 1.372 . S
C419 C418 1.372 . S
C419 C420 1.400 . S
C419 C424 1.490 . S
C420 H410 0.930 . S
C420 C419 1.400 . S
C420 C423 1.386 . S
H421 C437 0.930 . S
H422 C438 0.931 . S
C423 H411 0.929 . S
C423 C417 1.390 . S
C423 C420 1.386 . S
C424 C419 1.490 . S
C424 C426 1.395 . S
C424 C427 1.403 . S
H425 C431 0.930 . S
C426 H412 0.930 . S
C426 C424 1.395 . S
C426 C429 1.403 . S
C427 C424 1.403 . S
C427 C428 1.524 . S
C427 C431 1.400 . S
C428 H413 0.960 . S
C428 H414 0.960 . S
C428 H415 0.960 . S
C428 C427 1.524 . S
C429 C426 1.403 . S
C429 C430 1.392 . S
C429 C433 1.495 . S
C430 C429 1.392 . S
C430 C431 1.385 . S
C430 C432 1.478 . S
C431 H425 0.930 . S
C431 C427 1.400 . S
C431 C430 1.385 . S
C432 C430 1.478 . S
C432 C434 1.381 . S
C432 C438 1.383 . S
C433 C429 1.495 . S
C433 H439 0.959 . S
C433 H440 0.961 . S
C433 H441 0.960 . S
C434 C432 1.381 . S
C434 C435 1.394 . S
C434 H442 0.930 . S
C435 C434 1.394 . S
C435 C436 1.383 . S
C435 H443 0.929 . S
C436 C435 1.383 . S
C436 C437 1.377 . S
C437 H421 0.930 . S
C437 C436 1.377 . S
C437 C438 1.379 . S
C438 H422 0.931 . S
C438 C432 1.383 . S
C438 C437 1.379 . S
H439 C433 0.959 . S
H440 C433 0.961 . S
H441 C433 0.960 . S
H442 C434 0.930 . S
H443 C435 0.929 . S
H444 C452 0.929 . S
H445 C454 0.930 . S
H446 C456 0.930 . S
H447 C459 0.929 . S
H448 C462 0.930 . S
H449 C464 0.960 . S
H450 C464 0.960 . S
H451 C464 0.960 . S
C452 H444 0.929 . S
C452 C453 1.377 . S
C452 C454 1.384 . S
C453 C452 1.377 . S
C453 C459 1.390 . S
C454 H445 0.930 . S
C454 C452 1.384 . S
C454 C455 1.372 . S
C455 C454 1.372 . S
C455 C456 1.400 . S
C455 C460 1.490 . S
C456 H446 0.930 . S
C456 C455 1.400 . S
C456 C459 1.386 . S
H457 C473 0.930 . S
H458 C474 0.931 . S
C459 H447 0.929 . S
C459 C453 1.390 . S
C459 C456 1.386 . S
C460 C455 1.490 . S
C460 C462 1.395 . S
C460 C463 1.403 . S
H461 C467 0.930 . S
C462 H448 0.930 . S
C462 C460 1.395 . S
C462 C465 1.403 . S
C463 C460 1.403 . S
C463 C464 1.524 . S
C463 C467 1.400 . S
C464 H449 0.960 . S
C464 H450 0.960 . S
C464 H451 0.960 . S
C464 C463 1.524 . S
C465 C462 1.403 . S
C465 C466 1.392 . S
C465 C469 1.495 . S
C466 C465 1.392 . S
C466 C467 1.385 . S
C466 C468 1.478 . S
C467 H461 0.930 . S
C467 C463 1.400 . S
C467 C466 1.385 . S
C468 C466 1.478 . S
C468 C470 1.381 . S
C468 C474 1.383 . S
C469 C465 1.495 . S
C469 H475 0.959 . S
C469 H476 0.961 . S
C469 H477 0.960 . S
C470 C468 1.381 . S
C470 C471 1.394 . S
C470 H478 0.930 . S
C471 C470 1.394 . S
C471 C472 1.383 . S
C471 H479 0.929 . S
C472 C471 1.383 . S
C472 C473 1.377 . S
C473 H457 0.930 . S
C473 C472 1.377 . S
C473 C474 1.379 . S
C474 H458 0.931 . S
C474 C468 1.383 . S
C474 C473 1.379 . S
H475 C469 0.959 . S
H476 C469 0.961 . S
H477 C469 0.960 . S
H478 C470 0.930 . S
H479 C471 0.929 . S
H480 C488 0.929 . S
H481 C490 0.930 . S
H482 C492 0.930 . S
H483 C495 0.929 . S
H484 C498 0.930 . S
H485 C500 0.960 . S
H486 C500 0.960 . S
H487 C500 0.960 . S
C488 H480 0.929 . S
C488 C489 1.377 . S
C488 C490 1.384 . S
C489 C488 1.377 . S
C489 C495 1.390 . S
C490 H481 0.930 . S
C490 C488 1.384 . S
C490 C491 1.372 . S
C491 C490 1.372 . S
C491 C492 1.400 . S
C491 C496 1.490 . S
C492 H482 0.930 . S
C492 C491 1.400 . S
C492 C495 1.386 . S
H493 C509 0.930 . S
H494 C510 0.931 . S
C495 H483 0.929 . S
C495 C489 1.390 . S
C495 C492 1.386 . S
C496 C491 1.490 . S
C496 C498 1.395 . S
C496 C499 1.403 . S
H497 C503 0.930 . S
C498 H484 0.930 . S
C498 C496 1.395 . S
C498 C501 1.403 . S
C499 C496 1.403 . S
C499 C500 1.524 . S
C499 C503 1.400 . S
C500 H485 0.960 . S
C500 H486 0.960 . S
C500 H487 0.960 . S
C500 C499 1.524 . S
C501 C498 1.403 . S
C501 C502 1.392 . S
C501 C505 1.495 . S
C502 C501 1.392 . S
C502 C503 1.385 . S
C502 C504 1.478 . S
C503 H497 0.930 . S
C503 C499 1.400 . S
C503 C502 1.385 . S
C504 C502 1.478 . S
C504 C506 1.381 . S
C504 C510 1.383 . S
C505 C501 1.495 . S
C505 H511 0.959 . S
C505 H512 0.961 . S
C505 H513 0.960 . S
C506 C504 1.381 . S
C506 C507 1.394 . S
C506 H514 0.930 . S
C507 C506 1.394 . S
C507 C508 1.383 . S
C507 H515 0.929 . S
C508 C507 1.383 . S
C508 C509 1.377 . S
C509 H493 0.930 . S
C509 C508 1.377 . S
C509 C510 1.379 . S
C510 H494 0.931 . S
C510 C504 1.383 . S
C510 C509 1.379 . S
H511 C505 0.959 . S
H512 C505 0.961 . S
H513 C505 0.960 . S
H514 C506 0.930 . S
H515 C507 0.929 . S
H516 C524 0.929 . S
H517 C526 0.930 . S
H518 C528 0.930 . S
H519 C531 0.929 . S
H520 C534 0.930 . S
H521 C536 0.960 . S
H522 C536 0.960 . S
H523 C536 0.960 . S
C524 H516 0.929 . S
C524 C525 1.377 . S
C524 C526 1.384 . S
C525 C524 1.377 . S
C525 C531 1.390 . S
C526 H517 0.930 . S
C526 C524 1.384 . S
C526 C527 1.372 . S
C527 C526 1.372 . S
C527 C528 1.400 . S
C527 C532 1.490 . S
C528 H518 0.930 . S
C528 C527 1.400 . S
C528 C531 1.386 . S
H529 C545 0.930 . S
H530 C546 0.931 . S
C531 H519 0.929 . S
C531 C525 1.390 . S
C531 C528 1.386 . S
C532 C527 1.490 . S
C532 C534 1.395 . S
C532 C535 1.403 . S
H533 C539 0.930 . S
C534 H520 0.930 . S
C534 C532 1.395 . S
C534 C537 1.403 . S
C535 C532 1.403 . S
C535 C536 1.524 . S
C535 C539 1.400 . S
C536 H521 0.960 . S
C536 H522 0.960 . S
C536 H523 0.960 . S
C536 C535 1.524 . S
C537 C534 1.403 . S
C537 C538 1.392 . S
C537 C541 1.495 . S
C538 C537 1.392 . S
C538 C539 1.385 . S
C538 C540 1.478 . S
C539 H533 0.930 . S
C539 C535 1.400 . S
C539 C538 1.385 . S
C540 C538 1.478 . S
C540 C542 1.381 . S
C540 C546 1.383 . S
C541 C537 1.495 . S
C541 H547 0.959 . S
C541 H548 0.961 . S
C541 H549 0.960 . S
C542 C540 1.381 . S
C542 C543 1.394 . S
C542 H550 0.930 . S
C543 C542 1.394 . S
C543 C544 1.383 . S
C543 H551 0.929 . S
C544 C543 1.383 . S
C544 C545 1.377 . S
C545 H529 0.930 . S
C545 C544 1.377 . S
C545 C546 1.379 . S
C546 H530 0.931 . S
C546 C540 1.383 . S
C546 C545 1.379 . S
H547 C541 0.959 . S
H548 C541 0.961 . S
H549 C541 0.960 . S
H550 C542 0.930 . S
H551 C543 0.929 . S
H552 C560 0.929 . S
H553 C562 0.930 . S
H554 C564 0.930 . S
H555 C567 0.929 . S
H556 C570 0.930 . S
H557 C572 0.960 . S
H558 C572 0.960 . S
H559 C572 0.960 . S
C560 H552 0.929 . S
C560 C561 1.377 . S
C560 C562 1.384 . S
C561 C560 1.377 . S
C561 C567 1.390 . S
C562 H553 0.930 . S
C562 C560 1.384 . S
C562 C563 1.372 . S
C563 C562 1.372 . S
C563 C564 1.400 . S
C563 C568 1.490 . S
C564 H554 0.930 . S
C564 C563 1.400 . S
C564 C567 1.386 . S
H565 C581 0.930 . S
H566 C582 0.931 . S
C567 H555 0.929 . S
C567 C561 1.390 . S
C567 C564 1.386 . S
C568 C563 1.490 . S
C568 C570 1.395 . S
C568 C571 1.403 . S
H569 C575 0.930 . S
C570 H556 0.930 . S
C570 C568 1.395 . S
C570 C573 1.403 . S
C571 C568 1.403 . S
C571 C572 1.524 . S
C571 C575 1.400 . S
C572 H557 0.960 . S
C572 H558 0.960 . S
C572 H559 0.960 . S
C572 C571 1.524 . S
C573 C570 1.403 . S
C573 C574 1.392 . S
C573 C577 1.495 . S
C574 C573 1.392 . S
C574 C575 1.385 . S
C574 C576 1.478 . S
C575 H569 0.930 . S
C575 C571 1.400 . S
C575 C574 1.385 . S
C576 C574 1.478 . S
C576 C578 1.381 . S
C576 C582 1.383 . S
C577 C573 1.495 . S
C577 H583 0.959 . S
C577 H584 0.961 . S
C577 H585 0.960 . S
C578 C576 1.381 . S
C578 C579 1.394 . S
C578 H586 0.930 . S
C579 C578 1.394 . S
C579 C580 1.383 . S
C579 H587 0.929 . S
C580 C579 1.383 . S
C580 C581 1.377 . S
C581 H565 0.930 . S
C581 C580 1.377 . S
C581 C582 1.379 . S
C582 H566 0.931 . S
C582 C576 1.383 . S
C582 C581 1.379 . S
H583 C577 0.959 . S
H584 C577 0.961 . S
H585 C577 0.960 . S
H586 C578 0.930 . S
H587 C579 0.929 . S
H588 C596 0.929 . S
H589 C598 0.930 . S
H590 C600 0.930 . S
H591 C603 0.929 . S
H592 C606 0.930 . S
H593 C608 0.960 . S
H594 C608 0.960 . S
H595 C608 0.960 . S
C596 H588 0.929 . S
C596 C597 1.377 . S
C596 C598 1.384 . S
C597 C596 1.377 . S
C597 C603 1.390 . S
C598 H589 0.930 . S
C598 C596 1.384 . S
C598 C599 1.372 . S
C599 C598 1.372 . S
C599 C600 1.400 . S
C599 C604 1.490 . S
C600 H590 0.930 . S
C600 C599 1.400 . S
C600 C603 1.386 . S
H601 C617 0.930 . S
H602 C618 0.931 . S
C603 H591 0.929 . S
C603 C597 1.390 . S
C603 C600 1.386 . S
C604 C599 1.490 . S
C604 C606 1.395 . S
C604 C607 1.403 . S
H605 C611 0.930 . S
C606 H592 0.930 . S
C606 C604 1.395 . S
C606 C609 1.403 . S
C607 C604 1.403 . S
C607 C608 1.524 . S
C607 C611 1.400 . S
C608 H593 0.960 . S
C608 H594 0.960 . S
C608 H595 0.960 . S
C608 C607 1.524 . S
C609 C606 1.403 . S
C609 C610 1.392 . S
C609 C613 1.495 . S
C610 C609 1.392 . S
C610 C611 1.385 . S
C610 C612 1.478 . S
C611 H605 0.930 . S
C611 C607 1.400 . S
C611 C610 1.385 . S
C612 C610 1.478 . S
C612 C614 1.381 . S
C612 C618 1.383 . S
C613 C609 1.495 . S
C613 H619 0.959 . S
C613 H620 0.961 . S
C613 H621 0.960 . S
C614 C612 1.381 . S
C614 C615 1.394 . S
C614 H622 0.930 . S
C615 C614 1.394 . S
C615 C616 1.383 . S
C615 H623 0.929 . S
C616 C615 1.383 . S
C616 C617 1.377 . S
C617 H601 0.930 . S
C617 C616 1.377 . S
C617 C618 1.379 . S
C618 H602 0.931 . S
C618 C612 1.383 . S
C618 C617 1.379 . S
H619 C613 0.959 . S
H620 C613 0.961 . S
H621 C613 0.960 . S
H622 C614 0.930 . S
H623 C615 0.929 . S
H624 C632 0.929 . S
H625 C634 0.930 . S
H626 C636 0.930 . S
H627 C639 0.929 . S
H628 C642 0.930 . S
H629 C644 0.960 . S
H630 C644 0.960 . S
H631 C644 0.960 . S
C632 H624 0.929 . S
C632 C633 1.377 . S
C632 C634 1.384 . S
C633 C632 1.377 . S
C633 C639 1.390 . S
C634 H625 0.930 . S
C634 C632 1.384 . S
C634 C635 1.372 . S
C635 C634 1.372 . S
C635 C636 1.400 . S
C635 C640 1.490 . S
C636 H626 0.930 . S
C636 C635 1.400 . S
C636 C639 1.386 . S
H637 C653 0.930 . S
H638 C654 0.931 . S
C639 H627 0.929 . S
C639 C633 1.390 . S
C639 C636 1.386 . S
C640 C635 1.490 . S
C640 C642 1.395 . S
C640 C643 1.403 . S
H641 C647 0.930 . S
C642 H628 0.930 . S
C642 C640 1.395 . S
C642 C645 1.403 . S
C643 C640 1.403 . S
C643 C644 1.524 . S
C643 C647 1.400 . S
C644 H629 0.960 . S
C644 H630 0.960 . S
C644 H631 0.960 . S
C644 C643 1.524 . S
C645 C642 1.403 . S
C645 C646 1.392 . S
C645 C649 1.495 . S
C646 C645 1.392 . S
C646 C647 1.385 . S
C646 C648 1.478 . S
C647 H641 0.930 . S
C647 C643 1.400 . S
C647 C646 1.385 . S
C648 C646 1.478 . S
C648 C650 1.381 . S
C648 C654 1.383 . S
C649 C645 1.495 . S
C649 H655 0.959 . S
C649 H656 0.961 . S
C649 H657 0.960 . S
C650 C648 1.381 . S
C650 C651 1.394 . S
C650 H658 0.930 . S
C651 C650 1.394 . S
C651 C652 1.383 . S
C651 H659 0.929 . S
C652 C651 1.383 . S
C652 C653 1.377 . S
C653 H637 0.930 . S
C653 C652 1.377 . S
C653 C654 1.379 . S
C654 H638 0.931 . S
C654 C648 1.383 . S
C654 C653 1.379 . S
H655 C649 0.959 . S
H656 C649 0.961 . S
H657 C649 0.960 . S
H658 C650 0.930 . S
H659 C651 0.929 . S
H660 C668 0.929 . S
H661 C670 0.930 . S
H662 C672 0.930 . S
H663 C675 0.929 . S
H664 C678 0.930 . S
H665 C680 0.960 . S
H666 C680 0.960 . S
H667 C680 0.960 . S
C668 H660 0.929 . S
C668 C669 1.377 . S
C668 C670 1.384 . S
C669 C668 1.377 . S
C669 C675 1.390 . S
C670 H661 0.930 . S
C670 C668 1.384 . S
C670 C671 1.372 . S
C671 C670 1.372 . S
C671 C672 1.400 . S
C671 C676 1.490 . S
C672 H662 0.930 . S
C672 C671 1.400 . S
C672 C675 1.386 . S
H673 C689 0.930 . S
H674 C690 0.931 . S
C675 H663 0.929 . S
C675 C669 1.390 . S
C675 C672 1.386 . S
C676 C671 1.490 . S
C676 C678 1.395 . S
C676 C679 1.403 . S
H677 C683 0.930 . S
C678 H664 0.930 . S
C678 C676 1.395 . S
C678 C681 1.403 . S
C679 C676 1.403 . S
C679 C680 1.524 . S
C679 C683 1.400 . S
C680 H665 0.960 . S
C680 H666 0.960 . S
C680 H667 0.960 . S
C680 C679 1.524 . S
C681 C678 1.403 . S
C681 C682 1.392 . S
C681 C685 1.495 . S
C682 C681 1.392 . S
C682 C683 1.385 . S
C682 C684 1.478 . S
C683 H677 0.930 . S
C683 C679 1.400 . S
C683 C682 1.385 . S
C684 C682 1.478 . S
C684 C686 1.381 . S
C684 C690 1.383 . S
C685 C681 1.495 . S
C685 H691 0.959 . S
C685 H692 0.961 . S
C685 H693 0.960 . S
C686 C684 1.381 . S
C686 C687 1.394 . S
C686 H694 0.930 . S
C687 C686 1.394 . S
C687 C688 1.383 . S
C687 H695 0.929 . S
C688 C687 1.383 . S
C688 C689 1.377 . S
C689 H673 0.930 . S
C689 C688 1.377 . S
C689 C690 1.379 . S
C690 H674 0.931 . S
C690 C684 1.383 . S
C690 C689 1.379 . S
H691 C685 0.959 . S
H692 C685 0.961 . S
H693 C685 0.960 . S
H694 C686 0.930 . S
H695 C687 0.929 . S
H696 C704 0.929 . S
H697 C706 0.930 . S
H698 C708 0.930 . S
H699 C711 0.929 . S
H700 C714 0.930 . S
H701 C716 0.960 . S
H702 C716 0.960 . S
H703 C716 0.960 . S
C704 H696 0.929 . S
C704 C705 1.377 . S
C704 C706 1.384 . S
C705 C704 1.377 . S
C705 C711 1.390 . S
C706 H697 0.930 . S
C706 C704 1.384 . S
C706 C707 1.372 . S
C707 C706 1.372 . S
C707 C708 1.400 . S
C707 C712 1.490 . S
C708 H698 0.930 . S
C708 C707 1.400 . S
C708 C711 1.386 . S
H709 C725 0.930 . S
H710 C726 0.931 . S
C711 H699 0.929 . S
C711 C705 1.390 . S
C711 C708 1.386 . S
C712 C707 1.490 . S
C712 C714 1.395 . S
C712 C715 1.403 . S
H713 C719 0.930 . S
C714 H700 0.930 . S
C714 C712 1.395 . S
C714 C717 1.403 . S
C715 C712 1.403 . S
C715 C716 1.524 . S
C715 C719 1.400 . S
C716 H701 0.960 . S
C716 H702 0.960 . S
C716 H703 0.960 . S
C716 C715 1.524 . S
C717 C714 1.403 . S
C717 C718 1.392 . S
C717 C721 1.495 . S
C718 C717 1.392 . S
C718 C719 1.385 . S
C718 C720 1.478 . S
C719 H713 0.930 . S
C719 C715 1.400 . S
C719 C718 1.385 . S
C720 C718 1.478 . S
C720 C722 1.381 . S
C720 C726 1.383 . S
C721 C717 1.495 . S
C721 H727 0.959 . S
C721 H728 0.961 . S
C721 H729 0.960 . S
C722 C720 1.381 . S
C722 C723 1.394 . S
C722 H730 0.930 . S
C723 C722 1.394 . S
C723 C724 1.383 . S
C723 H731 0.929 . S
C724 C723 1.383 . S
C724 C725 1.377 . S
C725 H709 0.930 . S
C725 C724 1.377 . S
C725 C726 1.379 . S
C726 H710 0.931 . S
C726 C720 1.383 . S
C726 C725 1.379 . S
H727 C721 0.959 . S
H728 C721 0.961 . S
H729 C721 0.960 . S
H730 C722 0.930 . S
H731 C723 0.929 . S
H732 C740 0.929 . S
H733 C742 0.930 . S
H734 C744 0.930 . S
H735 C747 0.929 . S
H736 C750 0.930 . S
H737 C752 0.960 . S
H738 C752 0.960 . S
H739 C752 0.960 . S
C740 H732 0.929 . S
C740 C741 1.377 . S
C740 C742 1.384 . S
C741 C740 1.377 . S
C741 C747 1.390 . S
C742 H733 0.930 . S
C742 C740 1.384 . S
C742 C743 1.372 . S
C743 C742 1.372 . S
C743 C744 1.400 . S
C743 C748 1.490 . S
C744 H734 0.930 . S
C744 C743 1.400 . S
C744 C747 1.386 . S
H745 C761 0.930 . S
H746 C762 0.931 . S
C747 H735 0.929 . S
C747 C741 1.390 . S
C747 C744 1.386 . S
C748 C743 1.490 . S
C748 C750 1.395 . S
C748 C751 1.403 . S
H749 C755 0.930 . S
C750 H736 0.930 . S
C750 C748 1.395 . S
C750 C753 1.403 . S
C751 C748 1.403 . S
C751 C752 1.524 . S
C751 C755 1.400 . S
C752 H737 0.960 . S
C752 H738 0.960 . S
C752 H739 0.960 . S
C752 C751 1.524 . S
C753 C750 1.403 . S
C753 C754 1.392 . S
C753 C757 1.495 . S
C754 C753 1.392 . S
C754 C755 1.385 . S
C754 C756 1.478 . S
C755 H749 0.930 . S
C755 C751 1.400 . S
C755 C754 1.385 . S
C756 C754 1.478 . S
C756 C758 1.381 . S
C756 C762 1.383 . S
C757 C753 1.495 . S
C757 H763 0.959 . S
C757 H764 0.961 . S
C757 H765 0.960 . S
C758 C756 1.381 . S
C758 C759 1.394 . S
C758 H766 0.930 . S
C759 C758 1.394 . S
C759 C760 1.383 . S
C759 H767 0.929 . S
C760 C759 1.383 . S
C760 C761 1.377 . S
C761 H745 0.930 . S
C761 C760 1.377 . S
C761 C762 1.379 . S
C762 H746 0.931 . S
C762 C756 1.383 . S
C762 C761 1.379 . S
H763 C757 0.959 . S
H764 C757 0.961 . S
H765 C757 0.960 . S
H766 C758 0.930 . S
H767 C759 0.929 . S
H768 C776 0.929 . S
H769 C778 0.930 . S
H770 C780 0.930 . S
H771 C783 0.929 . S
H772 C786 0.930 . S
H773 C788 0.960 . S
H774 C788 0.960 . S
H775 C788 0.960 . S
C776 H768 0.929 . S
C776 C777 1.377 . S
C776 C778 1.384 . S
C777 C776 1.377 . S
C777 C783 1.390 . S
C778 H769 0.930 . S
C778 C776 1.384 . S
C778 C779 1.372 . S
C779 C778 1.372 . S
C779 C780 1.400 . S
C779 C784 1.490 . S
C780 H770 0.930 . S
C780 C779 1.400 . S
C780 C783 1.386 . S
H781 C797 0.930 . S
H782 C798 0.931 . S
C783 H771 0.929 . S
C783 C777 1.390 . S
C783 C780 1.386 . S
C784 C779 1.490 . S
C784 C786 1.395 1_556 S
C784 C787 1.403 . S
H785 C791 0.930 . S
C786 H772 0.930 . S
C786 C784 1.395 1_554 S
C786 C789 1.403 . S
C787 C784 1.403 . S
C787 C788 1.524 . S
C787 C791 1.400 . S
C788 H773 0.960 . S
C788 H774 0.960 . S
C788 H775 0.960 . S
C788 C787 1.524 . S
C789 C786 1.403 . S
C789 C790 1.392 . S
C789 C793 1.495 . S
C790 C789 1.392 . S
C790 C791 1.385 1_554 S
C790 C792 1.478 . S
C791 H785 0.930 . S
C791 C787 1.400 . S
C791 C790 1.385 1_556 S
C792 C790 1.478 . S
C792 C794 1.381 . S
C792 C798 1.383 . S
C793 C789 1.495 . S
C793 H799 0.959 . S
C793 H800 0.961 . S
C793 H801 0.960 . S
C794 C792 1.381 . S
C794 C795 1.394 . S
C794 H802 0.930 . S
C795 C794 1.394 . S
C795 C796 1.383 . S
C795 H803 0.929 . S
C796 C795 1.383 . S
C796 C797 1.377 . S
C797 H781 0.930 . S
C797 C796 1.377 . S
C797 C798 1.379 . S
C798 H782 0.931 . S
C798 C792 1.383 . S
C798 C797 1.379 . S
H799 C793 0.959 . S
H800 C793 0.961 . S
H801 C793 0.960 . S
H802 C794 0.930 . S
H803 C795 0.929 . S
H804 C812 0.929 . S
H805 C814 0.930 . S
H806 C816 0.930 . S
H807 C819 0.929 . S
H808 C822 0.930 . S
H809 C824 0.960 . S
H810 C824 0.960 . S
H811 C824 0.960 . S
C812 H804 0.929 . S
C812 C813 1.377 . S
C812 C814 1.384 . S
C813 C812 1.377 . S
C813 C819 1.390 . S
C814 H805 0.930 . S
C814 C812 1.384 . S
C814 C815 1.372 . S
C815 C814 1.372 . S
C815 C816 1.400 . S
C815 C820 1.490 . S
C816 H806 0.930 . S
C816 C815 1.400 . S
C816 C819 1.386 . S
H817 C833 0.930 . S
H818 C834 0.931 . S
C819 H807 0.929 . S
C819 C813 1.390 . S
C819 C816 1.386 . S
C820 C815 1.490 . S
C820 C822 1.395 . S
C820 C823 1.403 . S
H821 C827 0.930 . S
C822 H808 0.930 . S
C822 C820 1.395 . S
C822 C825 1.403 . S
C823 C820 1.403 . S
C823 C824 1.524 . S
C823 C827 1.400 . S
C824 H809 0.960 . S
C824 H810 0.960 . S
C824 H811 0.960 . S
C824 C823 1.524 . S
C825 C822 1.403 . S
C825 C826 1.392 . S
C825 C829 1.495 . S
C826 C825 1.392 . S
C826 C827 1.385 . S
C826 C828 1.478 . S
C827 H821 0.930 . S
C827 C823 1.400 . S
C827 C826 1.385 . S
C828 C826 1.478 . S
C828 C830 1.381 . S
C828 C834 1.383 . S
C829 C825 1.495 . S
C829 H835 0.959 . S
C829 H836 0.961 . S
C829 H837 0.960 . S
C830 C828 1.381 . S
C830 C831 1.394 . S
C830 H838 0.930 . S
C831 C830 1.394 . S
C831 C832 1.383 . S
C831 H839 0.929 . S
C832 C831 1.383 . S
C832 C833 1.377 . S
C833 H817 0.930 . S
C833 C832 1.377 . S
C833 C834 1.379 . S
C834 H818 0.931 . S
C834 C828 1.383 . S
C834 C833 1.379 . S
H835 C829 0.959 . S
H836 C829 0.961 . S
H837 C829 0.960 . S
H838 C830 0.930 . S
H839 C831 0.929 . S
H840 C848 0.929 . S
H841 C850 0.930 1_556 S
H842 C852 0.930 . S
H843 C855 0.929 . S
H844 C858 0.930 . S
H845 C860 0.960 . S
H846 C860 0.960 . S
H847 C860 0.960 . S
C848 H840 0.929 . S
C848 C849 1.377 . S
C848 C850 1.384 . S
C849 C848 1.377 . S
C849 C855 1.390 . S
C850 H841 0.930 1_554 S
C850 C848 1.384 . S
C850 C851 1.372 . S
C851 C850 1.372 . S
C851 C852 1.400 . S
C851 C856 1.490 . S
C852 H842 0.930 . S
C852 C851 1.400 . S
C852 C855 1.386 . S
H853 C869 0.930 . S
H854 C870 0.931 1_554 S
C855 H843 0.929 . S
C855 C849 1.390 . S
C855 C852 1.386 . S
C856 C851 1.490 . S
C856 C858 1.395 1_554 S
C856 C859 1.403 . S
H857 C863 0.930 . S
C858 H844 0.930 . S
C858 C856 1.395 1_556 S
C858 C861 1.403 . S
C859 C856 1.403 . S
C859 C860 1.524 . S
C859 C863 1.400 . S
C860 H845 0.960 . S
C860 H846 0.960 . S
C860 H847 0.960 . S
C860 C859 1.524 . S
C861 C858 1.403 . S
C861 C862 1.392 . S
C861 C865 1.495 . S
C862 C861 1.392 . S
C862 C863 1.385 1_556 S
C862 C864 1.478 . S
C863 H857 0.930 . S
C863 C859 1.400 . S
C863 C862 1.385 1_554 S
C864 C862 1.478 . S
C864 C866 1.381 . S
C864 C870 1.383 . S
C865 C861 1.495 . S
C865 H871 0.959 . S
C865 H872 0.961 . S
C865 H873 0.960 . S
C866 C864 1.381 . S
C866 C867 1.394 . S
C866 H874 0.930 . S
C867 C866 1.394 . S
C867 C868 1.383 . S
C867 H875 0.929 . S
C868 C867 1.383 . S
C868 C869 1.377 . S
C869 H853 0.930 . S
C869 C868 1.377 . S
C869 C870 1.379 . S
C870 H854 0.931 1_556 S
C870 C864 1.383 . S
C870 C869 1.379 . S
H871 C865 0.959 . S
H872 C865 0.961 . S
H873 C865 0.960 . S
H874 C866 0.930 . S
H875 C867 0.929 . S
H876 C884 0.929 . S
H877 C886 0.930 . S
H878 C888 0.930 . S
H879 C891 0.929 . S
H880 C894 0.930 . S
H881 C896 0.960 . S
H882 C896 0.960 . S
H883 C896 0.960 . S
C884 H876 0.929 . S
C884 C885 1.377 . S
C884 C886 1.384 . S
C885 C884 1.377 . S
C885 C891 1.390 . S
C886 H877 0.930 . S
C886 C884 1.384 . S
C886 C887 1.372 . S
C887 C886 1.372 . S
C887 C888 1.400 . S
C887 C892 1.490 . S
C888 H878 0.930 . S
C888 C887 1.400 . S
C888 C891 1.386 . S
H889 C905 0.930 . S
H890 C906 0.931 . S
C891 H879 0.929 . S
C891 C885 1.390 . S
C891 C888 1.386 . S
C892 C887 1.490 . S
C892 C894 1.395 . S
C892 C895 1.403 . S
H893 C899 0.930 . S
C894 H880 0.930 . S
C894 C892 1.395 . S
C894 C897 1.403 . S
C895 C892 1.403 . S
C895 C896 1.524 . S
C895 C899 1.400 . S
C896 H881 0.960 . S
C896 H882 0.960 . S
C896 H883 0.960 . S
C896 C895 1.524 . S
C897 C894 1.403 . S
C897 C898 1.392 . S
C897 C901 1.495 . S
C898 C897 1.392 . S
C898 C899 1.385 . S
C898 C900 1.478 . S
C899 H893 0.930 . S
C899 C895 1.400 . S
C899 C898 1.385 . S
C900 C898 1.478 . S
C900 C902 1.381 . S
C900 C906 1.383 . S
C901 C897 1.495 . S
C901 H907 0.959 . S
C901 H908 0.961 . S
C901 H909 0.960 . S
C902 C900 1.381 . S
C902 C903 1.394 . S
C902 H910 0.930 . S
C903 C902 1.394 . S
C903 C904 1.383 . S
C903 H911 0.929 . S
C904 C903 1.383 . S
C904 C905 1.377 . S
C905 H889 0.930 . S
C905 C904 1.377 . S
C905 C906 1.379 . S
C906 H890 0.931 . S
C906 C900 1.383 . S
C906 C905 1.379 . S
H907 C901 0.959 . S
H908 C901 0.961 . S
H909 C901 0.960 . S
H910 C902 0.930 . S
H911 C903 0.929 . S
H912 C920 0.929 . S
H913 C922 0.930 . S
H914 C924 0.930 1_554 S
H915 C927 0.929 . S
H916 C930 0.930 . S
H917 C932 0.960 . S
H918 C932 0.960 . S
H919 C932 0.960 . S
C920 H912 0.929 . S
C920 C921 1.377 . S
C920 C922 1.384 . S
C921 C920 1.377 . S
C921 C927 1.390 . S
C922 H913 0.930 . S
C922 C920 1.384 . S
C922 C923 1.372 . S
C923 C922 1.372 . S
C923 C924 1.400 . S
C923 C928 1.490 . S
C924 H914 0.930 1_556 S
C924 C923 1.400 . S
C924 C927 1.386 . S
H925 C941 0.930 . S
H926 C942 0.931 . S
C927 H915 0.929 . S
C927 C921 1.390 . S
C927 C924 1.386 . S
C928 C923 1.490 . S
C928 C930 1.395 . S
C928 C931 1.403 1_556 S
H929 C935 0.930 . S
C930 H916 0.930 . S
C930 C928 1.395 . S
C930 C933 1.403 . S
C931 C928 1.403 1_554 S
C931 C932 1.524 . S
C931 C935 1.400 . S
C932 H917 0.960 . S
C932 H918 0.960 . S
C932 H919 0.960 . S
C932 C931 1.524 . S
C933 C930 1.403 . S
C933 C934 1.392 1_556 S
C933 C937 1.495 . S
C934 C933 1.392 1_554 S
C934 C935 1.385 . S
C934 C936 1.478 . S
C935 H929 0.930 . S
C935 C931 1.400 . S
C935 C934 1.385 . S
C936 C934 1.478 . S
C936 C938 1.381 . S
C936 C942 1.383 . S
C937 C933 1.495 . S
C937 H943 0.959 . S
C937 H944 0.961 . S
C937 H945 0.960 . S
C938 C936 1.381 . S
C938 C939 1.394 . S
C938 H946 0.930 1_554 S
C939 C938 1.394 . S
C939 C940 1.383 . S
C939 H947 0.929 . S
C940 C939 1.383 . S
C940 C941 1.377 . S
C941 H925 0.930 . S
C941 C940 1.377 . S
C941 C942 1.379 . S
C942 H926 0.931 . S
C942 C936 1.383 . S
C942 C941 1.379 . S
H943 C937 0.959 . S
H944 C937 0.961 . S
H945 C937 0.960 . S
H946 C938 0.930 1_556 S
H947 C939 0.929 . S
H948 C956 0.929 . S
H949 C958 0.930 . S
H950 C960 0.930 . S
H951 C963 0.929 . S
H952 C966 0.930 . S
H953 C968 0.960 . S
H954 C968 0.960 . S
H955 C968 0.960 . S
C956 H948 0.929 . S
C956 C957 1.377 . S
C956 C958 1.384 . S
C957 C956 1.377 . S
C957 C963 1.390 . S
C958 H949 0.930 . S
C958 C956 1.384 . S
C958 C959 1.372 . S
C959 C958 1.372 . S
C959 C960 1.400 . S
C959 C964 1.490 . S
C960 H950 0.930 . S
C960 C959 1.400 . S
C960 C963 1.386 . S
H961 C977 0.930 . S
H962 C978 0.931 . S
C963 H951 0.929 . S
C963 C957 1.390 . S
C963 C960 1.386 . S
C964 C959 1.490 . S
C964 C966 1.395 . S
C964 C967 1.403 . S
H965 C971 0.930 . S
C966 H952 0.930 . S
C966 C964 1.395 . S
C966 C969 1.403 . S
C967 C964 1.403 . S
C967 C968 1.524 . S
C967 C971 1.400 . S
C968 H953 0.960 . S
C968 H954 0.960 . S
C968 H955 0.960 . S
C968 C967 1.524 . S
C969 C966 1.403 . S
C969 C970 1.392 . S
C969 C973 1.495 . S
C970 C969 1.392 . S
C970 C971 1.385 . S
C970 C972 1.478 . S
C971 H965 0.930 . S
C971 C967 1.400 . S
C971 C970 1.385 . S
C972 C970 1.478 . S
C972 C974 1.381 . S
C972 C978 1.383 . S
C973 C969 1.495 . S
C973 H979 0.959 . S
C973 H980 0.961 . S
C973 H981 0.960 . S
C974 C972 1.381 . S
C974 C975 1.394 . S
C974 H982 0.930 . S
C975 C974 1.394 . S
C975 C976 1.383 . S
C975 H983 0.929 . S
C976 C975 1.383 . S
C976 C977 1.377 . S
C977 H961 0.930 . S
C977 C976 1.377 . S
C977 C978 1.379 . S
C978 H962 0.931 . S
C978 C972 1.383 . S
C978 C977 1.379 . S
H979 C973 0.959 . S
H980 C973 0.961 . S
H981 C973 0.960 . S
H982 C974 0.930 . S
H983 C975 0.929 . S
H984 C992 0.929 . S
H985 C994 0.930 . S
H986 C996 0.930 1_556 S
H987 C999 0.929 . S
H988 C1002 0.930 . S
H989 C1004 0.960 . S
H990 C1004 0.960 . S
H991 C1004 0.960 . S
C992 H984 0.929 . S
C992 C993 1.377 . S
C992 C994 1.384 . S
C993 C992 1.377 . S
C993 C999 1.390 . S
C994 H985 0.930 . S
C994 C992 1.384 . S
C994 C995 1.372 . S
C995 C994 1.372 . S
C995 C996 1.400 . S
C995 C1000 1.490 . S
C996 H986 0.930 1_554 S
C996 C995 1.400 . S
C996 C999 1.386 . S
H997 C1013 0.930 . S
H998 C1014 0.931 . S
C999 H987 0.929 . S
C999 C993 1.390 . S
C999 C996 1.386 . S
C1000 C995 1.490 . S
C1000 C1002 1.395 . S
C1000 C1003 1.403 1_554 S
H1001 C1007 0.930 . S
C1002 H988 0.930 . S
C1002 C1000 1.395 . S
C1002 C1005 1.403 . S
C1003 C1000 1.403 1_556 S
C1003 C1004 1.524 . S
C1003 C1007 1.400 . S
C1004 H989 0.960 . S
C1004 H990 0.960 . S
C1004 H991 0.960 . S
C1004 C1003 1.524 . S
C1005 C1002 1.403 . S
C1005 C1006 1.392 1_554 S
C1005 C1009 1.495 . S
C1006 C1005 1.392 1_556 S
C1006 C1007 1.385 . S
C1006 C1008 1.478 . S
C1007 H1001 0.930 . S
C1007 C1003 1.400 . S
C1007 C1006 1.385 . S
C1008 C1006 1.478 . S
C1008 C1010 1.381 . S
C1008 C1014 1.383 . S
C1009 C1005 1.495 . S
C1009 H1015 0.959 . S
C1009 H1016 0.961 . S
C1009 H1017 0.960 . S
C1010 C1008 1.381 . S
C1010 C1011 1.394 . S
C1010 H1018 0.930 1_556 S
C1011 C1010 1.394 . S
C1011 C1012 1.383 . S
C1011 H1019 0.929 . S
C1012 C1011 1.383 . S
C1012 C1013 1.377 . S
C1013 H997 0.930 . S
C1013 C1012 1.377 . S
C1013 C1014 1.379 . S
C1014 H998 0.931 . S
C1014 C1008 1.383 . S
C1014 C1013 1.379 . S
H1015 C1009 0.959 . S
H1016 C1009 0.961 . S
H1017 C1009 0.960 . S
H1018 C1010 0.930 1_554 S
H1019 C1011 0.929 . S
H1020 C1028 0.929 . S
H1021 C1030 0.930 . S
H1022 C1032 0.930 . S
H1023 C1035 0.929 . S
H1024 C1038 0.930 . S
H1025 C1040 0.960 . S
H1026 C1040 0.960 . S
H1027 C1040 0.960 . S
C1028 H1020 0.929 . S
C1028 C1029 1.377 . S
C1028 C1030 1.384 . S
C1029 C1028 1.377 . S
C1029 C1035 1.390 . S
C1030 H1021 0.930 . S
C1030 C1028 1.384 . S
C1030 C1031 1.372 . S
C1031 C1030 1.372 . S
C1031 C1032 1.400 . S
C1031 C1036 1.490 . S
C1032 H1022 0.930 . S
C1032 C1031 1.400 . S
C1032 C1035 1.386 . S
H1033 C1049 0.930 . S
H1034 C1050 0.931 . S
C1035 H1023 0.929 . S
C1035 C1029 1.390 . S
C1035 C1032 1.386 . S
C1036 C1031 1.490 . S
C1036 C1038 1.395 . S
C1036 C1039 1.403 . S
H1037 C1043 0.930 . S
C1038 H1024 0.930 . S
C1038 C1036 1.395 . S
C1038 C1041 1.403 . S
C1039 C1036 1.403 . S
C1039 C1040 1.524 . S
C1039 C1043 1.400 . S
C1040 H1025 0.960 . S
C1040 H1026 0.960 . S
C1040 H1027 0.960 . S
C1040 C1039 1.524 . S
C1041 C1038 1.403 . S
C1041 C1042 1.392 . S
C1041 C1045 1.495 . S
C1042 C1041 1.392 . S
C1042 C1043 1.385 . S
C1042 C1044 1.478 . S
C1043 H1037 0.930 . S
C1043 C1039 1.400 . S
C1043 C1042 1.385 . S
C1044 C1042 1.478 . S
C1044 C1046 1.381 . S
C1044 C1050 1.383 . S
C1045 C1041 1.495 . S
C1045 H1051 0.959 . S
C1045 H1052 0.961 . S
C1045 H1053 0.960 . S
C1046 C1044 1.381 . S
C1046 C1047 1.394 . S
C1046 H1054 0.930 . S
C1047 C1046 1.394 . S
C1047 C1048 1.383 . S
C1047 H1055 0.929 . S
C1048 C1047 1.383 . S
C1048 C1049 1.377 . S
C1049 H1033 0.930 . S
C1049 C1048 1.377 . S
C1049 C1050 1.379 . S
C1050 H1034 0.931 . S
C1050 C1044 1.383 . S
C1050 C1049 1.379 . S
H1051 C1045 0.959 . S
H1052 C1045 0.961 . S
H1053 C1045 0.960 . S
H1054 C1046 0.930 . S
H1055 C1047 0.929 . S
H1056 C1064 0.929 . S
H1057 C1066 0.930 . S
H1058 C1068 0.930 . S
H1059 C1071 0.929 . S
H1060 C1074 0.930 . S
H1061 C1076 0.960 . S
H1062 C1076 0.960 . S
H1063 C1076 0.960 . S
C1064 H1056 0.929 . S
C1064 C1065 1.377 . S
C1064 C1066 1.384 . S
C1065 C1064 1.377 . S
C1065 C1071 1.390 . S
C1066 H1057 0.930 . S
C1066 C1064 1.384 . S
C1066 C1067 1.372 . S
C1067 C1066 1.372 . S
C1067 C1068 1.400 . S
C1067 C1072 1.490 . S
C1068 H1058 0.930 . S
C1068 C1067 1.400 . S
C1068 C1071 1.386 . S
H1069 C1085 0.930 . S
H1070 C1086 0.931 . S
C1071 H1059 0.929 . S
C1071 C1065 1.390 . S
C1071 C1068 1.386 . S
C1072 C1067 1.490 . S
C1072 C1074 1.395 1_556 S
C1072 C1075 1.403 . S
H1073 C1079 0.930 . S
C1074 H1060 0.930 . S
C1074 C1072 1.395 1_554 S
C1074 C1077 1.403 . S
C1075 C1072 1.403 . S
C1075 C1076 1.524 . S
C1075 C1079 1.400 . S
C1076 H1061 0.960 . S
C1076 H1062 0.960 . S
C1076 H1063 0.960 . S
C1076 C1075 1.524 . S
C1077 C1074 1.403 . S
C1077 C1078 1.392 . S
C1077 C1081 1.495 . S
C1078 C1077 1.392 . S
C1078 C1079 1.385 1_554 S
C1078 C1080 1.478 . S
C1079 H1073 0.930 . S
C1079 C1075 1.400 . S
C1079 C1078 1.385 1_556 S
C1080 C1078 1.478 . S
C1080 C1082 1.381 . S
C1080 C1086 1.383 . S
C1081 C1077 1.495 . S
C1081 H1087 0.959 . S
C1081 H1088 0.961 . S
C1081 H1089 0.960 . S
C1082 C1080 1.381 . S
C1082 C1083 1.394 . S
C1082 H1090 0.930 . S
C1083 C1082 1.394 . S
C1083 C1084 1.383 . S
C1083 H1091 0.929 . S
C1084 C1083 1.383 . S
C1084 C1085 1.377 . S
C1085 H1069 0.930 . S
C1085 C1084 1.377 . S
C1085 C1086 1.379 . S
C1086 H1070 0.931 . S
C1086 C1080 1.383 . S
C1086 C1085 1.379 . S
H1087 C1081 0.959 . S
H1088 C1081 0.961 . S
H1089 C1081 0.960 . S
H1090 C1082 0.930 . S
H1091 C1083 0.929 . S
H1092 C1100 0.929 . S
H1093 C1102 0.930 . S
H1094 C1104 0.930 . S
H1095 C1107 0.929 . S
H1096 C1110 0.930 . S
H1097 C1112 0.960 . S
H1098 C1112 0.960 . S
H1099 C1112 0.960 . S
C1100 H1092 0.929 . S
C1100 C1101 1.377 . S
C1100 C1102 1.384 . S
C1101 C1100 1.377 . S
C1101 C1107 1.390 . S
C1102 H1093 0.930 . S
C1102 C1100 1.384 . S
C1102 C1103 1.372 . S
C1103 C1102 1.372 . S
C1103 C1104 1.400 . S
C1103 C1108 1.490 . S
C1104 H1094 0.930 . S
C1104 C1103 1.400 . S
C1104 C1107 1.386 . S
H1105 C1121 0.930 . S
H1106 C1122 0.931 . S
C1107 H1095 0.929 . S
C1107 C1101 1.390 . S
C1107 C1104 1.386 . S
C1108 C1103 1.490 . S
C1108 C1110 1.395 . S
C1108 C1111 1.403 . S
H1109 C1115 0.930 . S
C1110 H1096 0.930 . S
C1110 C1108 1.395 . S
C1110 C1113 1.403 . S
C1111 C1108 1.403 . S
C1111 C1112 1.524 . S
C1111 C1115 1.400 . S
C1112 H1097 0.960 . S
C1112 H1098 0.960 . S
C1112 H1099 0.960 . S
C1112 C1111 1.524 . S
C1113 C1110 1.403 . S
C1113 C1114 1.392 . S
C1113 C1117 1.495 . S
C1114 C1113 1.392 . S
C1114 C1115 1.385 . S
C1114 C1116 1.478 . S
C1115 H1109 0.930 . S
C1115 C1111 1.400 . S
C1115 C1114 1.385 . S
C1116 C1114 1.478 . S
C1116 C1118 1.381 . S
C1116 C1122 1.383 . S
C1117 C1113 1.495 . S
C1117 H1123 0.959 . S
C1117 H1124 0.961 . S
C1117 H1125 0.960 . S
C1118 C1116 1.381 . S
C1118 C1119 1.394 . S
C1118 H1126 0.930 . S
C1119 C1118 1.394 . S
C1119 C1120 1.383 . S
C1119 H1127 0.929 . S
C1120 C1119 1.383 . S
C1120 C1121 1.377 . S
C1121 H1105 0.930 . S
C1121 C1120 1.377 . S
C1121 C1122 1.379 . S
C1122 H1106 0.931 . S
C1122 C1116 1.383 . S
C1122 C1121 1.379 . S
H1123 C1117 0.959 . S
H1124 C1117 0.961 . S
H1125 C1117 0.960 . S
H1126 C1118 0.930 . S
H1127 C1119 0.929 . S
H1128 C1136 0.929 . S
H1129 C1138 0.930 . S
H1130 C1140 0.930 . S
H1131 C1143 0.929 . S
H1132 C1146 0.930 . S
H1133 C1148 0.960 . S
H1134 C1148 0.960 . S
H1135 C1148 0.960 . S
C1136 H1128 0.929 . S
C1136 C1137 1.377 . S
C1136 C1138 1.384 . S
C1137 C1136 1.377 . S
C1137 C1143 1.390 . S
C1138 H1129 0.930 . S
C1138 C1136 1.384 . S
C1138 C1139 1.372 . S
C1139 C1138 1.372 . S
C1139 C1140 1.400 . S
C1139 C1144 1.490 . S
C1140 H1130 0.930 . S
C1140 C1139 1.400 . S
C1140 C1143 1.386 . S
H1141 C1157 0.930 . S
H1142 C1158 0.931 . S
C1143 H1131 0.929 . S
C1143 C1137 1.390 . S
C1143 C1140 1.386 . S
C1144 C1139 1.490 . S
C1144 C1146 1.395 . S
C1144 C1147 1.403 1_556 S
H1145 C1151 0.930 . S
C1146 H1132 0.930 . S
C1146 C1144 1.395 . S
C1146 C1149 1.403 . S
C1147 C1144 1.403 1_554 S
C1147 C1148 1.524 . S
C1147 C1151 1.400 . S
C1148 H1133 0.960 . S
C1148 H1134 0.960 . S
C1148 H1135 0.960 . S
C1148 C1147 1.524 . S
C1149 C1146 1.403 . S
C1149 C1150 1.392 1_556 S
C1149 C1153 1.495 . S
C1150 C1149 1.392 1_554 S
C1150 C1151 1.385 . S
C1150 C1152 1.478 . S
C1151 H1145 0.930 . S
C1151 C1147 1.400 . S
C1151 C1150 1.385 . S
C1152 C1150 1.478 . S
C1152 C1154 1.381 . S
C1152 C1158 1.383 . S
C1153 C1149 1.495 . S
C1153 H1159 0.959 . S
C1153 H1160 0.961 . S
C1153 H1161 0.960 . S
C1154 C1152 1.381 . S
C1154 C1155 1.394 . S
C1154 H1162 0.930 . S
C1155 C1154 1.394 . S
C1155 C1156 1.383 . S
C1155 H1163 0.929 . S
C1156 C1155 1.383 . S
C1156 C1157 1.377 . S
C1157 H1141 0.930 . S
C1157 C1156 1.377 . S
C1157 C1158 1.379 . S
C1158 H1142 0.931 . S
C1158 C1152 1.383 . S
C1158 C1157 1.379 . S
H1159 C1153 0.959 . S
H1160 C1153 0.961 . S
H1161 C1153 0.960 . S
H1162 C1154 0.930 . S
H1163 C1155 0.929 . S
H1164 C1172 0.929 . S
H1165 C1174 0.930 . S
H1166 C1176 0.930 . S
H1167 C1179 0.929 . S
H1168 C1182 0.930 . S
H1169 C1184 0.960 . S
H1170 C1184 0.960 . S
H1171 C1184 0.960 . S
C1172 H1164 0.929 . S
C1172 C1173 1.377 . S
C1172 C1174 1.384 . S
C1173 C1172 1.377 . S
C1173 C1179 1.390 . S
C1174 H1165 0.930 . S
C1174 C1172 1.384 . S
C1174 C1175 1.372 . S
C1175 C1174 1.372 . S
C1175 C1176 1.400 . S
C1175 C1180 1.490 . S
C1176 H1166 0.930 . S
C1176 C1175 1.400 . S
C1176 C1179 1.386 . S
H1177 C1193 0.930 . S
H1178 C1194 0.931 . S
C1179 H1167 0.929 . S
C1179 C1173 1.390 . S
C1179 C1176 1.386 . S
C1180 C1175 1.490 . S
C1180 C1182 1.395 . S
C1180 C1183 1.403 . S
H1181 C1187 0.930 . S
C1182 H1168 0.930 . S
C1182 C1180 1.395 . S
C1182 C1185 1.403 . S
C1183 C1180 1.403 . S
C1183 C1184 1.524 . S
C1183 C1187 1.400 . S
C1184 H1169 0.960 . S
C1184 H1170 0.960 . S
C1184 H1171 0.960 . S
C1184 C1183 1.524 . S
C1185 C1182 1.403 . S
C1185 C1186 1.392 . S
C1185 C1189 1.495 . S
C1186 C1185 1.392 . S
C1186 C1187 1.385 . S
C1186 C1188 1.478 . S
C1187 H1181 0.930 . S
C1187 C1183 1.400 . S
C1187 C1186 1.385 . S
C1188 C1186 1.478 . S
C1188 C1190 1.381 . S
C1188 C1194 1.383 . S
C1189 C1185 1.495 . S
C1189 H1195 0.959 . S
C1189 H1196 0.961 . S
C1189 H1197 0.960 . S
C1190 C1188 1.381 . S
C1190 C1191 1.394 . S
C1190 H1198 0.930 . S
C1191 C1190 1.394 . S
C1191 C1192 1.383 . S
C1191 H1199 0.929 . S
C1192 C1191 1.383 . S
C1192 C1193 1.377 . S
C1193 H1177 0.930 . S
C1193 C1192 1.377 . S
C1193 C1194 1.379 . S
C1194 H1178 0.931 . S
C1194 C1188 1.383 . S
C1194 C1193 1.379 . S
H1195 C1189 0.959 . S
H1196 C1189 0.961 . S
H1197 C1189 0.960 . S
H1198 C1190 0.930 . S
H1199 C1191 0.929 . S
H1200 C1208 0.929 . S
H1201 C1210 0.930 . S
H1202 C1212 0.930 . S
H1203 C1215 0.929 . S
H1204 C1218 0.930 . S
H1205 C1220 0.960 . S
H1206 C1220 0.960 . S
H1207 C1220 0.960 . S
C1208 H1200 0.929 . S
C1208 C1209 1.377 . S
C1208 C1210 1.384 . S
C1209 C1208 1.377 . S
C1209 C1215 1.390 . S
C1210 H1201 0.930 . S
C1210 C1208 1.384 . S
C1210 C1211 1.372 . S
C1211 C1210 1.372 . S
C1211 C1212 1.400 . S
C1211 C1216 1.490 . S
C1212 H1202 0.930 . S
C1212 C1211 1.400 . S
C1212 C1215 1.386 . S
H1213 C1229 0.930 . S
H1214 C1230 0.931 . S
C1215 H1203 0.929 . S
C1215 C1209 1.390 . S
C1215 C1212 1.386 . S
C1216 C1211 1.490 . S
C1216 C1218 1.395 . S
C1216 C1219 1.403 . S
H1217 C1223 0.930 . S
C1218 H1204 0.930 . S
C1218 C1216 1.395 . S
C1218 C1221 1.403 . S
C1219 C1216 1.403 . S
C1219 C1220 1.524 . S
C1219 C1223 1.400 . S
C1220 H1205 0.960 . S
C1220 H1206 0.960 . S
C1220 H1207 0.960 . S
C1220 C1219 1.524 . S
C1221 C1218 1.403 . S
C1221 C1222 1.392 . S
C1221 C1225 1.495 . S
C1222 C1221 1.392 . S
C1222 C1223 1.385 . S
C1222 C1224 1.478 . S
C1223 H1217 0.930 . S
C1223 C1219 1.400 . S
C1223 C1222 1.385 . S
C1224 C1222 1.478 . S
C1224 C1226 1.381 . S
C1224 C1230 1.383 . S
C1225 C1221 1.495 . S
C1225 H1231 0.959 . S
C1225 H1232 0.961 . S
C1225 H1233 0.960 . S
C1226 C1224 1.381 . S
C1226 C1227 1.394 . S
C1226 H1234 0.930 . S
C1227 C1226 1.394 . S
C1227 C1228 1.383 . S
C1227 H1235 0.929 . S
C1228 C1227 1.383 . S
C1228 C1229 1.377 . S
C1229 H1213 0.930 . S
C1229 C1228 1.377 . S
C1229 C1230 1.379 . S
C1230 H1214 0.931 . S
C1230 C1224 1.383 . S
C1230 C1229 1.379 . S
H1231 C1225 0.959 . S
H1232 C1225 0.961 . S
H1233 C1225 0.960 . S
H1234 C1226 0.930 . S
H1235 C1227 0.929 . S
H1236 C1244 0.929 . S
H1237 C1246 0.930 . S
H1238 C1248 0.930 . S
H1239 C1251 0.929 . S
H1240 C1254 0.930 . S
H1241 C1256 0.960 . S
H1242 C1256 0.960 . S
H1243 C1256 0.960 . S
C1244 H1236 0.929 . S
C1244 C1245 1.377 . S
C1244 C1246 1.384 . S
C1245 C1244 1.377 . S
C1245 C1251 1.390 . S
C1246 H1237 0.930 . S
C1246 C1244 1.384 . S
C1246 C1247 1.372 . S
C1247 C1246 1.372 . S
C1247 C1248 1.400 . S
C1247 C1252 1.490 . S
C1248 H1238 0.930 . S
C1248 C1247 1.400 . S
C1248 C1251 1.386 . S
H1249 C1265 0.930 . S
H1250 C1266 0.931 . S
C1251 H1239 0.929 . S
C1251 C1245 1.390 . S
C1251 C1248 1.386 . S
C1252 C1247 1.490 . S
C1252 C1254 1.395 . S
C1252 C1255 1.403 . S
H1253 C1259 0.930 . S
C1254 H1240 0.930 . S
C1254 C1252 1.395 . S
C1254 C1257 1.403 1_455 S
C1255 C1252 1.403 . S
C1255 C1256 1.524 . S
C1255 C1259 1.400 1_455 S
C1256 H1241 0.960 . S
C1256 H1242 0.960 . S
C1256 H1243 0.960 . S
C1256 C1255 1.524 . S
C1257 C1254 1.403 1_655 S
C1257 C1258 1.392 . S
C1257 C1261 1.495 . S
C1258 C1257 1.392 . S
C1258 C1259 1.385 . S
C1258 C1260 1.478 . S
C1259 H1253 0.930 . S
C1259 C1255 1.400 1_655 S
C1259 C1258 1.385 . S
C1260 C1258 1.478 . S
C1260 C1262 1.381 . S
C1260 C1266 1.383 . S
C1261 C1257 1.495 . S
C1261 H1267 0.959 . S
C1261 H1268 0.961 . S
C1261 H1269 0.960 . S
C1262 C1260 1.381 . S
C1262 C1263 1.394 . S
C1262 H1270 0.930 . S
C1263 C1262 1.394 . S
C1263 C1264 1.383 . S
C1263 H1271 0.929 . S
C1264 C1263 1.383 . S
C1264 C1265 1.377 . S
C1265 H1249 0.930 . S
C1265 C1264 1.377 . S
C1265 C1266 1.379 . S
C1266 H1250 0.931 . S
C1266 C1260 1.383 . S
C1266 C1265 1.379 . S
H1267 C1261 0.959 . S
H1268 C1261 0.961 . S
H1269 C1261 0.960 . S
H1270 C1262 0.930 . S
H1271 C1263 0.929 . S
H1272 C1280 0.929 . S
H1273 C1282 0.930 . S
H1274 C1284 0.930 . S
H1275 C1287 0.929 . S
H1276 C1290 0.930 . S
H1277 C1292 0.960 . S
H1278 C1292 0.960 . S
H1279 C1292 0.960 . S
C1280 H1272 0.929 . S
C1280 C1281 1.377 . S
C1280 C1282 1.384 . S
C1281 C1280 1.377 . S
C1281 C1287 1.390 . S
C1282 H1273 0.930 . S
C1282 C1280 1.384 . S
C1282 C1283 1.372 . S
C1283 C1282 1.372 . S
C1283 C1284 1.400 . S
C1283 C1288 1.490 . S
C1284 H1274 0.930 . S
C1284 C1283 1.400 . S
C1284 C1287 1.386 . S
H1285 C1301 0.930 . S
H1286 C1302 0.931 . S
C1287 H1275 0.929 . S
C1287 C1281 1.390 . S
C1287 C1284 1.386 . S
C1288 C1283 1.490 . S
C1288 C1290 1.395 . S
C1288 C1291 1.403 . S
H1289 C1295 0.930 . S
C1290 H1276 0.930 . S
C1290 C1288 1.395 . S
C1290 C1293 1.403 1_565 S
C1291 C1288 1.403 . S
C1291 C1292 1.524 . S
C1291 C1295 1.400 1_565 S
C1292 H1277 0.960 . S
C1292 H1278 0.960 . S
C1292 H1279 0.960 . S
C1292 C1291 1.524 . S
C1293 C1290 1.403 1_545 S
C1293 C1294 1.392 . S
C1293 C1297 1.495 . S
C1294 C1293 1.392 . S
C1294 C1295 1.385 . S
C1294 C1296 1.478 . S
C1295 H1289 0.930 . S
C1295 C1291 1.400 1_545 S
C1295 C1294 1.385 . S
C1296 C1294 1.478 . S
C1296 C1298 1.381 . S
C1296 C1302 1.383 . S
C1297 C1293 1.495 . S
C1297 H1303 0.959 . S
C1297 H1304 0.961 . S
C1297 H1305 0.960 . S
C1298 C1296 1.381 . S
C1298 C1299 1.394 . S
C1298 H1306 0.930 . S
C1299 C1298 1.394 . S
C1299 C1300 1.383 . S
C1299 H1307 0.929 . S
C1300 C1299 1.383 . S
C1300 C1301 1.377 . S
C1301 H1285 0.930 . S
C1301 C1300 1.377 . S
C1301 C1302 1.379 . S
C1302 H1286 0.931 . S
C1302 C1296 1.383 . S
C1302 C1301 1.379 . S
H1303 C1297 0.959 . S
H1304 C1297 0.961 . S
H1305 C1297 0.960 . S
H1306 C1298 0.930 . S
H1307 C1299 0.929 . S
H1308 C1316 0.929 . S
H1309 C1318 0.930 . S
H1310 C1320 0.930 . S
H1311 C1323 0.929 . S
H1312 C1326 0.930 . S
H1313 C1328 0.960 . S
H1314 C1328 0.960 . S
H1315 C1328 0.960 . S
C1316 H1308 0.929 . S
C1316 C1317 1.377 . S
C1316 C1318 1.384 . S
C1317 C1316 1.377 . S
C1317 C1323 1.390 . S
C1318 H1309 0.930 . S
C1318 C1316 1.384 . S
C1318 C1319 1.372 . S
C1319 C1318 1.372 . S
C1319 C1320 1.400 . S
C1319 C1324 1.490 . S
C1320 H1310 0.930 . S
C1320 C1319 1.400 . S
C1320 C1323 1.386 . S
H1321 C1337 0.930 . S
H1322 C1338 0.931 . S
C1323 H1311 0.929 . S
C1323 C1317 1.390 . S
C1323 C1320 1.386 . S
C1324 C1319 1.490 . S
C1324 C1326 1.395 . S
C1324 C1327 1.403 . S
H1325 C1331 0.930 . S
C1326 H1312 0.930 . S
C1326 C1324 1.395 . S
C1326 C1329 1.403 . S
C1327 C1324 1.403 . S
C1327 C1328 1.524 . S
C1327 C1331 1.400 . S
C1328 H1313 0.960 . S
C1328 H1314 0.960 . S
C1328 H1315 0.960 . S
C1328 C1327 1.524 . S
C1329 C1326 1.403 . S
C1329 C1330 1.392 . S
C1329 C1333 1.495 . S
C1330 C1329 1.392 . S
C1330 C1331 1.385 . S
C1330 C1332 1.478 . S
C1331 H1325 0.930 . S
C1331 C1327 1.400 . S
C1331 C1330 1.385 . S
C1332 C1330 1.478 . S
C1332 C1334 1.381 . S
C1332 C1338 1.383 . S
C1333 C1329 1.495 . S
C1333 H1339 0.959 . S
C1333 H1340 0.961 . S
C1333 H1341 0.960 . S
C1334 C1332 1.381 . S
C1334 C1335 1.394 . S
C1334 H1342 0.930 . S
C1335 C1334 1.394 . S
C1335 C1336 1.383 . S
C1335 H1343 0.929 . S
C1336 C1335 1.383 . S
C1336 C1337 1.377 . S
C1337 H1321 0.930 . S
C1337 C1336 1.377 . S
C1337 C1338 1.379 . S
C1338 H1322 0.931 . S
C1338 C1332 1.383 . S
C1338 C1337 1.379 . S
H1339 C1333 0.959 . S
H1340 C1333 0.961 . S
H1341 C1333 0.960 . S
H1342 C1334 0.930 . S
H1343 C1335 0.929 . S
H1344 C1352 0.929 . S
H1345 C1354 0.930 . S
H1346 C1356 0.930 . S
H1347 C1359 0.929 . S
H1348 C1362 0.930 . S
H1349 C1364 0.960 . S
H1350 C1364 0.960 . S
H1351 C1364 0.960 . S
C1352 H1344 0.929 . S
C1352 C1353 1.377 . S
C1352 C1354 1.384 . S
C1353 C1352 1.377 . S
C1353 C1359 1.390 . S
C1354 H1345 0.930 . S
C1354 C1352 1.384 . S
C1354 C1355 1.372 . S
C1355 C1354 1.372 . S
C1355 C1356 1.400 . S
C1355 C1360 1.490 . S
C1356 H1346 0.930 . S
C1356 C1355 1.400 . S
C1356 C1359 1.386 . S
H1357 C1373 0.930 . S
H1358 C1374 0.931 . S
C1359 H1347 0.929 . S
C1359 C1353 1.390 . S
C1359 C1356 1.386 . S
C1360 C1355 1.490 . S
C1360 C1362 1.395 . S
C1360 C1363 1.403 . S
H1361 C1367 0.930 . S
C1362 H1348 0.930 . S
C1362 C1360 1.395 . S
C1362 C1365 1.403 1_655 S
C1363 C1360 1.403 . S
C1363 C1364 1.524 . S
C1363 C1367 1.400 1_655 S
C1364 H1349 0.960 . S
C1364 H1350 0.960 . S
C1364 H1351 0.960 . S
C1364 C1363 1.524 . S
C1365 C1362 1.403 1_455 S
C1365 C1366 1.392 . S
C1365 C1369 1.495 . S
C1366 C1365 1.392 . S
C1366 C1367 1.385 . S
C1366 C1368 1.478 . S
C1367 H1361 0.930 . S
C1367 C1363 1.400 1_455 S
C1367 C1366 1.385 . S
C1368 C1366 1.478 . S
C1368 C1370 1.381 . S
C1368 C1374 1.383 . S
C1369 C1365 1.495 . S
C1369 H1375 0.959 . S
C1369 H1376 0.961 . S
C1369 H1377 0.960 . S
C1370 C1368 1.381 . S
C1370 C1371 1.394 . S
C1370 H1378 0.930 . S
C1371 C1370 1.394 . S
C1371 C1372 1.383 . S
C1371 H1379 0.929 . S
C1372 C1371 1.383 . S
C1372 C1373 1.377 . S
C1373 H1357 0.930 . S
C1373 C1372 1.377 . S
C1373 C1374 1.379 . S
C1374 H1358 0.931 . S
C1374 C1368 1.383 . S
C1374 C1373 1.379 . S
H1375 C1369 0.959 . S
H1376 C1369 0.961 . S
H1377 C1369 0.960 . S
H1378 C1370 0.930 . S
H1379 C1371 0.929 . S
H1380 C1388 0.929 . S
H1381 C1390 0.930 . S
H1382 C1392 0.930 . S
H1383 C1395 0.929 . S
H1384 C1398 0.930 . S
H1385 C1400 0.960 . S
H1386 C1400 0.960 . S
H1387 C1400 0.960 . S
C1388 H1380 0.929 . S
C1388 C1389 1.377 . S
C1388 C1390 1.384 . S
C1389 C1388 1.377 . S
C1389 C1395 1.390 . S
C1390 H1381 0.930 . S
C1390 C1388 1.384 . S
C1390 C1391 1.372 . S
C1391 C1390 1.372 . S
C1391 C1392 1.400 . S
C1391 C1396 1.490 . S
C1392 H1382 0.930 . S
C1392 C1391 1.400 . S
C1392 C1395 1.386 . S
H1393 C1409 0.930 . S
H1394 C1410 0.931 . S
C1395 H1383 0.929 . S
C1395 C1389 1.390 . S
C1395 C1392 1.386 . S
C1396 C1391 1.490 . S
C1396 C1398 1.395 . S
C1396 C1399 1.403 . S
H1397 C1403 0.930 . S
C1398 H1384 0.930 . S
C1398 C1396 1.395 . S
C1398 C1401 1.403 1_545 S
C1399 C1396 1.403 . S
C1399 C1400 1.524 . S
C1399 C1403 1.400 1_545 S
C1400 H1385 0.960 . S
C1400 H1386 0.960 . S
C1400 H1387 0.960 . S
C1400 C1399 1.524 . S
C1401 C1398 1.403 1_565 S
C1401 C1402 1.392 . S
C1401 C1405 1.495 . S
C1402 C1401 1.392 . S
C1402 C1403 1.385 . S
C1402 C1404 1.478 . S
C1403 H1397 0.930 . S
C1403 C1399 1.400 1_565 S
C1403 C1402 1.385 . S
C1404 C1402 1.478 . S
C1404 C1406 1.381 . S
C1404 C1410 1.383 . S
C1405 C1401 1.495 . S
C1405 H1411 0.959 . S
C1405 H1412 0.961 . S
C1405 H1413 0.960 . S
C1406 C1404 1.381 . S
C1406 C1407 1.394 . S
C1406 H1414 0.930 . S
C1407 C1406 1.394 . S
C1407 C1408 1.383 . S
C1407 H1415 0.929 . S
C1408 C1407 1.383 . S
C1408 C1409 1.377 . S
C1409 H1393 0.930 . S
C1409 C1408 1.377 . S
C1409 C1410 1.379 . S
C1410 H1394 0.931 . S
C1410 C1404 1.383 . S
C1410 C1409 1.379 . S
H1411 C1405 0.959 . S
H1412 C1405 0.961 . S
H1413 C1405 0.960 . S
H1414 C1406 0.930 . S
H1415 C1407 0.929 . S
H1416 C1424 0.929 . S
H1417 C1426 0.930 . S
H1418 C1428 0.930 . S
H1419 C1431 0.929 . S
H1420 C1434 0.930 . S
H1421 C1436 0.960 . S
H1422 C1436 0.960 . S
H1423 C1436 0.960 . S
C1424 H1416 0.929 . S
C1424 C1425 1.377 . S
C1424 C1426 1.384 . S
C1425 C1424 1.377 . S
C1425 C1431 1.390 . S
C1426 H1417 0.930 . S
C1426 C1424 1.384 . S
C1426 C1427 1.372 . S
C1427 C1426 1.372 . S
C1427 C1428 1.400 . S
C1427 C1432 1.490 . S
C1428 H1418 0.930 . S
C1428 C1427 1.400 . S
C1428 C1431 1.386 . S
H1429 C1445 0.930 . S
H1430 C1446 0.931 . S
C1431 H1419 0.929 . S
C1431 C1425 1.390 . S
C1431 C1428 1.386 . S
C1432 C1427 1.490 . S
C1432 C1434 1.395 . S
C1432 C1435 1.403 . S
H1433 C1439 0.930 . S
C1434 H1420 0.930 . S
C1434 C1432 1.395 . S
C1434 C1437 1.403 . S
C1435 C1432 1.403 . S
C1435 C1436 1.524 . S
C1435 C1439 1.400 . S
C1436 H1421 0.960 . S
C1436 H1422 0.960 . S
C1436 H1423 0.960 . S
C1436 C1435 1.524 . S
C1437 C1434 1.403 . S
C1437 C1438 1.392 . S
C1437 C1441 1.495 . S
C1438 C1437 1.392 . S
C1438 C1439 1.385 . S
C1438 C1440 1.478 . S
C1439 H1433 0.930 . S
C1439 C1435 1.400 . S
C1439 C1438 1.385 . S
C1440 C1438 1.478 . S
C1440 C1442 1.381 . S
C1440 C1446 1.383 . S
C1441 C1437 1.495 . S
C1441 H1447 0.959 . S
C1441 H1448 0.961 . S
C1441 H1449 0.960 . S
C1442 C1440 1.381 . S
C1442 C1443 1.394 . S
C1442 H1450 0.930 . S
C1443 C1442 1.394 . S
C1443 C1444 1.383 . S
C1443 H1451 0.929 . S
C1444 C1443 1.383 . S
C1444 C1445 1.377 . S
C1445 H1429 0.930 . S
C1445 C1444 1.377 . S
C1445 C1446 1.379 . S
C1446 H1430 0.931 . S
C1446 C1440 1.383 . S
C1446 C1445 1.379 . S
H1447 C1441 0.959 . S
H1448 C1441 0.961 . S
H1449 C1441 0.960 . S
H1450 C1442 0.930 . S
H1451 C1443 0.929 . S
H1452 C1460 0.929 . S
H1453 C1462 0.930 . S
H1454 C1464 0.930 . S
H1455 C1467 0.929 . S
H1456 C1470 0.930 . S
H1457 C1472 0.960 . S
H1458 C1472 0.960 . S
H1459 C1472 0.960 . S
C1460 H1452 0.929 . S
C1460 C1461 1.377 . S
C1460 C1462 1.384 . S
C1461 C1460 1.377 . S
C1461 C1467 1.390 . S
C1462 H1453 0.930 . S
C1462 C1460 1.384 . S
C1462 C1463 1.372 . S
C1463 C1462 1.372 . S
C1463 C1464 1.400 . S
C1463 C1468 1.490 . S
C1464 H1454 0.930 . S
C1464 C1463 1.400 . S
C1464 C1467 1.386 . S
H1465 C1481 0.930 . S
H1466 C1482 0.931 . S
C1467 H1455 0.929 . S
C1467 C1461 1.390 . S
C1467 C1464 1.386 . S
C1468 C1463 1.490 . S
C1468 C1470 1.395 . S
C1468 C1471 1.403 . S
H1469 C1475 0.930 . S
C1470 H1456 0.930 . S
C1470 C1468 1.395 . S
C1470 C1473 1.403 1_655 S
C1471 C1468 1.403 . S
C1471 C1472 1.524 . S
C1471 C1475 1.400 1_655 S
C1472 H1457 0.960 . S
C1472 H1458 0.960 . S
C1472 H1459 0.960 . S
C1472 C1471 1.524 . S
C1473 C1470 1.403 1_455 S
C1473 C1474 1.392 . S
C1473 C1477 1.495 . S
C1474 C1473 1.392 . S
C1474 C1475 1.385 . S
C1474 C1476 1.478 . S
C1475 H1469 0.930 . S
C1475 C1471 1.400 1_455 S
C1475 C1474 1.385 . S
C1476 C1474 1.478 . S
C1476 C1478 1.381 . S
C1476 C1482 1.383 . S
C1477 C1473 1.495 . S
C1477 H1483 0.959 . S
C1477 H1484 0.961 . S
C1477 H1485 0.960 . S
C1478 C1476 1.381 . S
C1478 C1479 1.394 . S
C1478 H1486 0.930 . S
C1479 C1478 1.394 . S
C1479 C1480 1.383 . S
C1479 H1487 0.929 . S
C1480 C1479 1.383 . S
C1480 C1481 1.377 . S
C1481 H1465 0.930 . S
C1481 C1480 1.377 . S
C1481 C1482 1.379 . S
C1482 H1466 0.931 . S
C1482 C1476 1.383 . S
C1482 C1481 1.379 . S
H1483 C1477 0.959 . S
H1484 C1477 0.961 . S
H1485 C1477 0.960 . S
H1486 C1478 0.930 . S
H1487 C1479 0.929 . S
H1488 C1496 0.929 . S
H1489 C1498 0.930 . S
H1490 C1500 0.930 . S
H1491 C1503 0.929 . S
H1492 C1506 0.930 . S
H1493 C1508 0.960 . S
H1494 C1508 0.960 . S
H1495 C1508 0.960 . S
C1496 H1488 0.929 . S
C1496 C1497 1.377 . S
C1496 C1498 1.384 . S
C1497 C1496 1.377 . S
C1497 C1503 1.390 . S
C1498 H1489 0.930 . S
C1498 C1496 1.384 . S
C1498 C1499 1.372 . S
C1499 C1498 1.372 . S
C1499 C1500 1.400 . S
C1499 C1504 1.490 . S
C1500 H1490 0.930 . S
C1500 C1499 1.400 . S
C1500 C1503 1.386 . S
H1501 C1517 0.930 . S
H1502 C1518 0.931 . S
C1503 H1491 0.929 . S
C1503 C1497 1.390 . S
C1503 C1500 1.386 . S
C1504 C1499 1.490 . S
C1504 C1506 1.395 . S
C1504 C1507 1.403 . S
H1505 C1511 0.930 . S
C1506 H1492 0.930 . S
C1506 C1504 1.395 . S
C1506 C1509 1.403 1_545 S
C1507 C1504 1.403 . S
C1507 C1508 1.524 . S
C1507 C1511 1.400 1_545 S
C1508 H1493 0.960 . S
C1508 H1494 0.960 . S
C1508 H1495 0.960 . S
C1508 C1507 1.524 . S
C1509 C1506 1.403 1_565 S
C1509 C1510 1.392 . S
C1509 C1513 1.495 . S
C1510 C1509 1.392 . S
C1510 C1511 1.385 . S
C1510 C1512 1.478 . S
C1511 H1505 0.930 . S
C1511 C1507 1.400 1_565 S
C1511 C1510 1.385 . S
C1512 C1510 1.478 . S
C1512 C1514 1.381 . S
C1512 C1518 1.383 . S
C1513 C1509 1.495 . S
C1513 H1519 0.959 . S
C1513 H1520 0.961 . S
C1513 H1521 0.960 . S
C1514 C1512 1.381 . S
C1514 C1515 1.394 . S
C1514 H1522 0.930 . S
C1515 C1514 1.394 . S
C1515 C1516 1.383 . S
C1515 H1523 0.929 . S
C1516 C1515 1.383 . S
C1516 C1517 1.377 . S
C1517 H1501 0.930 . S
C1517 C1516 1.377 . S
C1517 C1518 1.379 . S
C1518 H1502 0.931 . S
C1518 C1512 1.383 . S
C1518 C1517 1.379 . S
H1519 C1513 0.959 . S
H1520 C1513 0.961 . S
H1521 C1513 0.960 . S
H1522 C1514 0.930 . S
H1523 C1515 0.929 . S
H1524 C1532 0.929 . S
H1525 C1534 0.930 . S
H1526 C1536 0.930 . S
H1527 C1539 0.929 . S
H1528 C1542 0.930 . S
H1529 C1544 0.960 . S
H1530 C1544 0.960 . S
H1531 C1544 0.960 . S
C1532 H1524 0.929 . S
C1532 C1533 1.377 . S
C1532 C1534 1.384 . S
C1533 C1532 1.377 . S
C1533 C1539 1.390 . S
C1534 H1525 0.930 . S
C1534 C1532 1.384 . S
C1534 C1535 1.372 . S
C1535 C1534 1.372 . S
C1535 C1536 1.400 . S
C1535 C1540 1.490 . S
C1536 H1526 0.930 . S
C1536 C1535 1.400 . S
C1536 C1539 1.386 . S
H1537 C1553 0.930 . S
H1538 C1554 0.931 . S
C1539 H1527 0.929 . S
C1539 C1533 1.390 . S
C1539 C1536 1.386 . S
C1540 C1535 1.490 . S
C1540 C1542 1.395 . S
C1540 C1543 1.403 . S
H1541 C1547 0.930 . S
C1542 H1528 0.930 . S
C1542 C1540 1.395 . S
C1542 C1545 1.403 . S
C1543 C1540 1.403 . S
C1543 C1544 1.524 . S
C1543 C1547 1.400 . S
C1544 H1529 0.960 . S
C1544 H1530 0.960 . S
C1544 H1531 0.960 . S
C1544 C1543 1.524 . S
C1545 C1542 1.403 . S
C1545 C1546 1.392 . S
C1545 C1549 1.495 . S
C1546 C1545 1.392 . S
C1546 C1547 1.385 . S
C1546 C1548 1.478 . S
C1547 H1541 0.930 . S
C1547 C1543 1.400 . S
C1547 C1546 1.385 . S
C1548 C1546 1.478 . S
C1548 C1550 1.381 . S
C1548 C1554 1.383 . S
C1549 C1545 1.495 . S
C1549 H1555 0.959 . S
C1549 H1556 0.961 . S
C1549 H1557 0.960 . S
C1550 C1548 1.381 . S
C1550 C1551 1.394 . S
C1550 H1558 0.930 . S
C1551 C1550 1.394 . S
C1551 C1552 1.383 . S
C1551 H1559 0.929 . S
C1552 C1551 1.383 . S
C1552 C1553 1.377 . S
C1553 H1537 0.930 . S
C1553 C1552 1.377 . S
C1553 C1554 1.379 . S
C1554 H1538 0.931 . S
C1554 C1548 1.383 . S
C1554 C1553 1.379 . S
H1555 C1549 0.959 . S
H1556 C1549 0.961 . S
H1557 C1549 0.960 . S
H1558 C1550 0.930 . S
H1559 C1551 0.929 . S
H1560 C1568 0.929 . S
H1561 C1570 0.930 . S
H1562 C1572 0.930 . S
H1563 C1575 0.929 . S
H1564 C1578 0.930 . S
H1565 C1580 0.960 . S
H1566 C1580 0.960 . S
H1567 C1580 0.960 . S
C1568 H1560 0.929 . S
C1568 C1569 1.377 . S
C1568 C1570 1.384 . S
C1569 C1568 1.377 . S
C1569 C1575 1.390 . S
C1570 H1561 0.930 . S
C1570 C1568 1.384 . S
C1570 C1571 1.372 . S
C1571 C1570 1.372 . S
C1571 C1572 1.400 . S
C1571 C1576 1.490 . S
C1572 H1562 0.930 . S
C1572 C1571 1.400 . S
C1572 C1575 1.386 . S
H1573 C1589 0.930 . S
H1574 C1590 0.931 . S
C1575 H1563 0.929 . S
C1575 C1569 1.390 . S
C1575 C1572 1.386 . S
C1576 C1571 1.490 . S
C1576 C1578 1.395 . S
C1576 C1579 1.403 . S
H1577 C1583 0.930 . S
C1578 H1564 0.930 . S
C1578 C1576 1.395 . S
C1578 C1581 1.403 1_455 S
C1579 C1576 1.403 . S
C1579 C1580 1.524 . S
C1579 C1583 1.400 1_455 S
C1580 H1565 0.960 . S
C1580 H1566 0.960 . S
C1580 H1567 0.960 . S
C1580 C1579 1.524 . S
C1581 C1578 1.403 1_655 S
C1581 C1582 1.392 . S
C1581 C1585 1.495 . S
C1582 C1581 1.392 . S
C1582 C1583 1.385 . S
C1582 C1584 1.478 . S
C1583 H1577 0.930 . S
C1583 C1579 1.400 1_655 S
C1583 C1582 1.385 . S
C1584 C1582 1.478 . S
C1584 C1586 1.381 . S
C1584 C1590 1.383 . S
C1585 C1581 1.495 . S
C1585 H1591 0.959 . S
C1585 H1592 0.961 . S
C1585 H1593 0.960 . S
C1586 C1584 1.381 . S
C1586 C1587 1.394 . S
C1586 H1594 0.930 . S
C1587 C1586 1.394 . S
C1587 C1588 1.383 . S
C1587 H1595 0.929 . S
C1588 C1587 1.383 . S
C1588 C1589 1.377 . S
C1589 H1573 0.930 . S
C1589 C1588 1.377 . S
C1589 C1590 1.379 . S
C1590 H1574 0.931 . S
C1590 C1584 1.383 . S
C1590 C1589 1.379 . S
H1591 C1585 0.959 . S
H1592 C1585 0.961 . S
H1593 C1585 0.960 . S
H1594 C1586 0.930 . S
H1595 C1587 0.929 . S
H1596 C1604 0.929 . S
H1597 C1606 0.930 . S
H1598 C1608 0.930 . S
H1599 C1611 0.929 . S
H1600 C1614 0.930 . S
H1601 C1616 0.960 . S
H1602 C1616 0.960 . S
H1603 C1616 0.960 . S
C1604 H1596 0.929 . S
C1604 C1605 1.377 . S
C1604 C1606 1.384 . S
C1605 C1604 1.377 . S
C1605 C1611 1.390 . S
C1606 H1597 0.930 . S
C1606 C1604 1.384 . S
C1606 C1607 1.372 . S
C1607 C1606 1.372 . S
C1607 C1608 1.400 . S
C1607 C1612 1.490 . S
C1608 H1598 0.930 . S
C1608 C1607 1.400 . S
C1608 C1611 1.386 . S
H1609 C1625 0.930 . S
H1610 C1626 0.931 . S
C1611 H1599 0.929 . S
C1611 C1605 1.390 . S
C1611 C1608 1.386 . S
C1612 C1607 1.490 . S
C1612 C1614 1.395 . S
C1612 C1615 1.403 . S
H1613 C1619 0.930 . S
C1614 H1600 0.930 . S
C1614 C1612 1.395 . S
C1614 C1617 1.403 1_565 S
C1615 C1612 1.403 . S
C1615 C1616 1.524 . S
C1615 C1619 1.400 1_565 S
C1616 H1601 0.960 . S
C1616 H1602 0.960 . S
C1616 H1603 0.960 . S
C1616 C1615 1.524 . S
C1617 C1614 1.403 1_545 S
C1617 C1618 1.392 . S
C1617 C1621 1.495 . S
C1618 C1617 1.392 . S
C1618 C1619 1.385 . S
C1618 C1620 1.478 . S
C1619 H1613 0.930 . S
C1619 C1615 1.400 1_545 S
C1619 C1618 1.385 . S
C1620 C1618 1.478 . S
C1620 C1622 1.381 . S
C1620 C1626 1.383 . S
C1621 C1617 1.495 . S
C1621 H1627 0.959 . S
C1621 H1628 0.961 . S
C1621 H1629 0.960 . S
C1622 C1620 1.381 . S
C1622 C1623 1.394 . S
C1622 H1630 0.930 . S
C1623 C1622 1.394 . S
C1623 C1624 1.383 . S
C1623 H1631 0.929 . S
C1624 C1623 1.383 . S
C1624 C1625 1.377 . S
C1625 H1609 0.930 . S
C1625 C1624 1.377 . S
C1625 C1626 1.379 . S
C1626 H1610 0.931 . S
C1626 C1620 1.383 . S
C1626 C1625 1.379 . S
H1627 C1621 0.959 . S
H1628 C1621 0.961 . S
H1629 C1621 0.960 . S
H1630 C1622 0.930 . S
H1631 C1623 0.929 . S
H1632 C1640 0.929 . S
H1633 C1642 0.930 . S
H1634 C1644 0.930 . S
H1635 C1647 0.929 . S
H1636 C1650 0.930 . S
H1637 C1652 0.960 . S
H1638 C1652 0.960 . S
H1639 C1652 0.960 1_556 S
C1640 H1632 0.929 . S
C1640 C1641 1.377 . S
C1640 C1642 1.384 . S
C1641 C1640 1.377 . S
C1641 C1647 1.390 . S
C1642 H1633 0.930 . S
C1642 C1640 1.384 . S
C1642 C1643 1.372 . S
C1643 C1642 1.372 . S
C1643 C1644 1.400 . S
C1643 C1648 1.490 . S
C1644 H1634 0.930 . S
C1644 C1643 1.400 . S
C1644 C1647 1.386 . S
H1645 C1661 0.930 . S
H1646 C1662 0.938 . S
C1647 H1635 0.929 . S
C1647 C1641 1.390 . S
C1647 C1644 1.386 . S
C1648 C1643 1.490 . S
C1648 C1650 1.395 . S
C1648 C1651 1.403 1_556 S
H1649 C1655 0.930 . S
C1650 H1636 0.930 . S
C1650 C1648 1.395 . S
C1650 C1653 1.403 . S
C1651 C1648 1.403 1_554 S
C1651 C1652 1.524 . S
C1651 C1655 1.400 . S
C1652 H1637 0.960 . S
C1652 H1638 0.960 . S
C1652 H1639 0.960 1_554 S
C1652 C1651 1.524 . S
C1653 C1650 1.403 . S
C1653 C1654 1.392 1_556 S
C1653 C1657 1.495 . S
C1654 C1653 1.392 1_554 S
C1654 C1655 1.385 . S
C1654 C1656 1.478 . S
C1655 H1649 0.930 . S
C1655 C1651 1.400 . S
C1655 C1654 1.385 . S
C1656 C1654 1.478 . S
C1656 C1658 1.381 . S
C1656 C1662 1.383 . S
C1657 C1653 1.495 . S
C1657 H1663 0.959 . S
C1657 H1664 0.961 . S
C1657 H1665 0.960 1_556 S
C1658 C1656 1.381 . S
C1658 C1659 1.394 . S
C1658 H1666 0.930 . S
C1659 C1658 1.394 . S
C1659 C1660 1.383 . S
C1659 H1667 0.929 . S
C1660 C1659 1.383 . S
C1660 C1661 1.377 . S
C1661 H1645 0.930 . S
C1661 C1660 1.377 . S
C1661 C1662 1.379 . S
C1662 H1646 0.938 . S
C1662 C1656 1.383 . S
C1662 C1661 1.379 . S
H1663 C1657 0.959 . S
H1664 C1657 0.961 . S
H1665 C1657 0.960 1_554 S
H1666 C1658 0.930 . S
H1667 C1659 0.929 . S
H1668 C1676 0.929 . S
H1669 C1678 0.930 . S
H1670 C1680 0.930 . S
H1671 C1683 0.929 . S
H1672 C1686 0.930 . S
H1673 C1688 0.960 . S
H1674 C1688 0.960 . S
H1675 C1688 0.960 . S
C1676 H1668 0.929 . S
C1676 C1677 1.377 . S
C1676 C1678 1.384 . S
C1677 C1676 1.377 . S
C1677 C1683 1.390 . S
C1678 H1669 0.930 . S
C1678 C1676 1.384 . S
C1678 C1679 1.372 . S
C1679 C1678 1.372 . S
C1679 C1680 1.400 . S
C1679 C1684 1.490 . S
C1680 H1670 0.930 . S
C1680 C1679 1.400 . S
C1680 C1683 1.386 . S
H1681 C1697 0.930 . S
H1682 C1698 0.931 . S
C1683 H1671 0.929 . S
C1683 C1677 1.390 . S
C1683 C1680 1.386 . S
C1684 C1679 1.490 . S
C1684 C1686 1.395 . S
C1684 C1687 1.403 . S
H1685 C1691 0.930 . S
C1686 H1672 0.930 . S
C1686 C1684 1.395 . S
C1686 C1689 1.403 . S
C1687 C1684 1.403 . S
C1687 C1688 1.524 . S
C1687 C1691 1.400 . S
C1688 H1673 0.960 . S
C1688 H1674 0.960 . S
C1688 H1675 0.960 . S
C1688 C1687 1.524 . S
C1689 C1686 1.403 . S
C1689 C1690 1.392 . S
C1689 C1693 1.495 . S
C1690 C1689 1.392 . S
C1690 C1691 1.385 . S
C1690 C1692 1.478 . S
C1691 H1685 0.930 . S
C1691 C1687 1.400 . S
C1691 C1690 1.385 . S
C1692 C1690 1.478 . S
C1692 C1694 1.381 . S
C1692 C1698 1.383 . S
C1693 C1689 1.495 . S
C1693 H1699 0.959 . S
C1693 H1700 0.961 . S
C1693 H1701 0.960 . S
C1694 C1692 1.381 . S
C1694 C1695 1.394 . S
C1694 H1702 0.930 . S
C1695 C1694 1.394 . S
C1695 C1696 1.383 . S
C1695 H1703 0.929 . S
C1696 C1695 1.383 . S
C1696 C1697 1.377 . S
C1697 H1681 0.930 . S
C1697 C1696 1.377 . S
C1697 C1698 1.379 . S
C1698 H1682 0.931 . S
C1698 C1692 1.383 . S
C1698 C1697 1.379 . S
H1699 C1693 0.959 . S
H1700 C1693 0.961 . S
H1701 C1693 0.960 . S
H1702 C1694 0.930 . S
H1703 C1695 0.929 . S
H1704 C1712 0.929 . S
H1705 C1714 0.930 . S
H1706 C1716 0.930 1_554 S
H1707 C1719 0.929 . S
H1708 C1722 0.930 . S
H1709 C1724 0.960 . S
H1710 C1724 0.960 1_556 S
H1711 C1724 0.960 . S
C1712 H1704 0.929 . S
C1712 C1713 1.377 . S
C1712 C1714 1.384 . S
C1713 C1712 1.377 . S
C1713 C1719 1.390 . S
C1714 H1705 0.930 . S
C1714 C1712 1.384 . S
C1714 C1715 1.372 . S
C1715 C1714 1.372 . S
C1715 C1716 1.400 . S
C1715 C1720 1.490 . S
C1716 H1706 0.930 1_556 S
C1716 C1715 1.400 . S
C1716 C1719 1.386 . S
H1717 C1733 0.930 . S
H1718 C1734 0.931 . S
C1719 H1707 0.929 . S
C1719 C1713 1.390 . S
C1719 C1716 1.386 . S
C1720 C1715 1.490 . S
C1720 C1722 1.395 . S
C1720 C1723 1.403 1_556 S
H1721 C1727 0.930 . S
C1722 H1708 0.930 . S
C1722 C1720 1.395 . S
C1722 C1725 1.403 . S
C1723 C1720 1.403 1_554 S
C1723 C1724 1.524 . S
C1723 C1727 1.400 . S
C1724 H1709 0.960 . S
C1724 H1710 0.960 1_554 S
C1724 H1711 0.960 . S
C1724 C1723 1.524 . S
C1725 C1722 1.403 . S
C1725 C1726 1.392 1_556 S
C1725 C1729 1.495 . S
C1726 C1725 1.392 1_554 S
C1726 C1727 1.385 . S
C1726 C1728 1.478 . S
C1727 H1721 0.930 . S
C1727 C1723 1.400 . S
C1727 C1726 1.385 . S
C1728 C1726 1.478 . S
C1728 C1730 1.381 . S
C1728 C1734 1.383 . S
C1729 C1725 1.495 . S
C1729 H1735 0.959 . S
C1729 H1736 0.961 1_556 S
C1729 H1737 0.960 . S
C1730 C1728 1.381 . S
C1730 C1731 1.394 . S
C1730 H1738 0.930 1_554 S
C1731 C1730 1.394 . S
C1731 C1732 1.383 . S
C1731 H1739 0.929 . S
C1732 C1731 1.383 . S
C1732 C1733 1.377 . S
C1733 H1717 0.930 . S
C1733 C1732 1.377 . S
C1733 C1734 1.379 . S
C1734 H1718 0.931 . S
C1734 C1728 1.383 . S
C1734 C1733 1.379 . S
H1735 C1729 0.959 . S
H1736 C1729 0.961 1_554 S
H1737 C1729 0.960 . S
H1738 C1730 0.930 1_556 S
H1739 C1731 0.929 . S
H1740 C1748 0.929 . S
H1741 C1750 0.930 . S
H1742 C1752 0.930 . S
H1743 C1755 0.929 . S
H1744 C1758 0.930 . S
H1745 C1760 0.960 . S
H1746 C1760 0.960 . S
H1747 C1760 0.960 . S
C1748 H1740 0.929 . S
C1748 C1749 1.377 . S
C1748 C1750 1.384 . S
C1749 C1748 1.377 . S
C1749 C1755 1.390 . S
C1750 H1741 0.930 . S
C1750 C1748 1.384 . S
C1750 C1751 1.372 . S
C1751 C1750 1.372 . S
C1751 C1752 1.400 . S
C1751 C1756 1.490 . S
C1752 H1742 0.930 . S
C1752 C1751 1.400 . S
C1752 C1755 1.386 . S
H1753 C1769 0.930 . S
H1754 C1770 0.931 . S
C1755 H1743 0.929 . S
C1755 C1749 1.390 . S
C1755 C1752 1.386 . S
C1756 C1751 1.490 . S
C1756 C1758 1.395 . S
C1756 C1759 1.403 . S
H1757 C1763 0.930 . S
C1758 H1744 0.930 . S
C1758 C1756 1.395 . S
C1758 C1761 1.403 . S
C1759 C1756 1.403 . S
C1759 C1760 1.524 . S
C1759 C1763 1.400 . S
C1760 H1745 0.960 . S
C1760 H1746 0.960 . S
C1760 H1747 0.960 . S
C1760 C1759 1.524 . S
C1761 C1758 1.403 . S
C1761 C1762 1.392 . S
C1761 C1765 1.495 . S
C1762 C1761 1.392 . S
C1762 C1763 1.385 . S
C1762 C1764 1.478 . S
C1763 H1757 0.930 . S
C1763 C1759 1.400 . S
C1763 C1762 1.385 . S
C1764 C1762 1.478 . S
C1764 C1766 1.381 . S
C1764 C1770 1.383 . S
C1765 C1761 1.495 . S
C1765 H1771 0.959 . S
C1765 H1772 0.961 . S
C1765 H1773 0.960 . S
C1766 C1764 1.381 . S
C1766 C1767 1.394 . S
C1766 H1774 0.930 . S
C1767 C1766 1.394 . S
C1767 C1768 1.383 . S
C1767 H1775 0.929 . S
C1768 C1767 1.383 . S
C1768 C1769 1.377 . S
C1769 H1753 0.930 . S
C1769 C1768 1.377 . S
C1769 C1770 1.379 . S
C1770 H1754 0.931 . S
C1770 C1764 1.383 . S
C1770 C1769 1.379 . S
H1771 C1765 0.959 . S
H1772 C1765 0.961 . S
H1773 C1765 0.960 . S
H1774 C1766 0.930 . S
H1775 C1767 0.929 . S
H1776 C1784 0.929 . S
H1777 C1786 0.930 . S
H1778 C1788 0.932 1_554 S
H1779 C1791 0.929 . S
H1780 C1794 0.930 . S
H1781 C1796 0.960 . S
H1782 C1796 0.960 . S
H1783 C1796 0.960 . S
C1784 H1776 0.929 . S
C1784 C1785 1.377 . S
C1784 C1786 1.384 . S
C1785 C1784 1.377 . S
C1785 C1791 1.390 . S
C1786 H1777 0.930 . S
C1786 C1784 1.384 . S
C1786 C1787 1.372 . S
C1787 C1786 1.372 . S
C1787 C1788 1.400 . S
C1787 C1792 1.490 . S
C1788 H1778 0.932 1_556 S
C1788 C1787 1.400 . S
C1788 C1791 1.386 . S
H1789 C1805 0.930 . S
H1790 C1806 0.931 . S
C1791 H1779 0.929 . S
C1791 C1785 1.390 . S
C1791 C1788 1.386 . S
C1792 C1787 1.490 . S
C1792 C1794 1.395 . S
C1792 C1795 1.403 1_556 S
H1793 C1799 0.930 . S
C1794 H1780 0.930 . S
C1794 C1792 1.395 . S
C1794 C1797 1.403 . S
C1795 C1792 1.403 1_554 S
C1795 C1796 1.524 . S
C1795 C1799 1.400 . S
C1796 H1781 0.960 . S
C1796 H1782 0.960 . S
C1796 H1783 0.960 . S
C1796 C1795 1.524 . S
C1797 C1794 1.403 . S
C1797 C1798 1.392 1_556 S
C1797 C1801 1.495 . S
C1798 C1797 1.392 1_554 S
C1798 C1799 1.385 . S
C1798 C1800 1.478 . S
C1799 H1793 0.930 . S
C1799 C1795 1.400 . S
C1799 C1798 1.385 . S
C1800 C1798 1.478 . S
C1800 C1802 1.381 . S
C1800 C1806 1.383 . S
C1801 C1797 1.495 . S
C1801 H1807 0.959 . S
C1801 H1808 0.961 . S
C1801 H1809 0.960 . S
C1802 C1800 1.381 . S
C1802 C1803 1.394 . S
C1802 H1810 0.897 1_554 S
C1803 C1802 1.394 . S
C1803 C1804 1.383 . S
C1803 H1811 0.929 . S
C1804 C1803 1.383 . S
C1804 C1805 1.377 . S
C1805 H1789 0.930 . S
C1805 C1804 1.377 . S
C1805 C1806 1.379 . S
C1806 H1790 0.931 . S
C1806 C1800 1.383 . S
C1806 C1805 1.379 . S
H1807 C1801 0.959 . S
H1808 C1801 0.961 . S
H1809 C1801 0.960 . S
H1810 C1802 0.897 1_556 S
H1811 C1803 0.929 . S
H1812 C1820 0.929 . S
H1813 C1822 0.930 . S
H1814 C1824 0.930 . S
H1815 C1827 0.929 . S
H1816 C1830 0.930 . S
H1817 C1832 0.960 . S
H1818 C1832 0.960 . S
H1819 C1832 0.960 . S
C1820 H1812 0.929 . S
C1820 C1821 1.377 . S
C1820 C1822 1.384 . S
C1821 C1820 1.377 . S
C1821 C1827 1.390 . S
C1822 H1813 0.930 . S
C1822 C1820 1.384 . S
C1822 C1823 1.372 . S
C1823 C1822 1.372 . S
C1823 C1824 1.400 . S
C1823 C1828 1.490 . S
C1824 H1814 0.930 . S
C1824 C1823 1.400 . S
C1824 C1827 1.386 . S
H1825 C1841 0.930 . S
H1826 C1842 0.931 . S
C1827 H1815 0.929 . S
C1827 C1821 1.390 . S
C1827 C1824 1.386 . S
C1828 C1823 1.490 . S
C1828 C1830 1.395 . S
C1828 C1831 1.403 . S
H1829 C1835 0.930 . S
C1830 H1816 0.930 . S
C1830 C1828 1.395 . S
C1830 C1833 1.403 . S
C1831 C1828 1.403 . S
C1831 C1832 1.524 . S
C1831 C1835 1.400 . S
C1832 H1817 0.960 . S
C1832 H1818 0.960 . S
C1832 H1819 0.960 . S
C1832 C1831 1.524 . S
C1833 C1830 1.403 . S
C1833 C1834 1.392 . S
C1833 C1837 1.495 . S
C1834 C1833 1.392 . S
C1834 C1835 1.385 . S
C1834 C1836 1.478 . S
C1835 H1829 0.930 . S
C1835 C1831 1.400 . S
C1835 C1834 1.385 . S
C1836 C1834 1.478 . S
C1836 C1838 1.381 . S
C1836 C1842 1.383 . S
C1837 C1833 1.495 . S
C1837 H1843 0.959 . S
C1837 H1844 0.961 . S
C1837 H1845 0.960 . S
C1838 C1836 1.381 . S
C1838 C1839 1.394 . S
C1838 H1846 0.930 . S
C1839 C1838 1.394 . S
C1839 C1840 1.383 . S
C1839 H1847 0.929 . S
C1840 C1839 1.383 . S
C1840 C1841 1.377 . S
C1841 H1825 0.930 . S
C1841 C1840 1.377 . S
C1841 C1842 1.379 . S
C1842 H1826 0.931 . S
C1842 C1836 1.383 . S
C1842 C1841 1.379 . S
H1843 C1837 0.959 . S
H1844 C1837 0.961 . S
H1845 C1837 0.960 . S
H1846 C1838 0.930 . S
H1847 C1839 0.929 . S
H1848 C1856 0.929 . S
H1849 C1858 0.930 . S
H1850 C1860 0.930 . S
H1851 C1863 0.929 . S
H1852 C1866 0.930 . S
H1853 C1868 0.960 . S
H1854 C1868 0.960 . S
H1855 C1868 0.960 . S
C1856 H1848 0.929 . S
C1856 C1857 1.377 . S
C1856 C1858 1.384 . S
C1857 C1856 1.377 . S
C1857 C1863 1.390 . S
C1858 H1849 0.930 . S
C1858 C1856 1.384 . S
C1858 C1859 1.372 . S
C1859 C1858 1.372 . S
C1859 C1860 1.400 . S
C1859 C1864 1.490 . S
C1860 H1850 0.930 . S
C1860 C1859 1.400 . S
C1860 C1863 1.386 . S
H1861 C1877 0.930 . S
H1862 C1878 0.931 . S
C1863 H1851 0.929 . S
C1863 C1857 1.390 . S
C1863 C1860 1.386 . S
C1864 C1859 1.490 . S
C1864 C1866 1.395 . S
C1864 C1867 1.403 1_554 S
H1865 C1871 0.930 . S
C1866 H1852 0.930 . S
C1866 C1864 1.395 . S
C1866 C1869 1.403 . S
C1867 C1864 1.403 1_556 S
C1867 C1868 1.524 . S
C1867 C1871 1.400 . S
C1868 H1853 0.960 . S
C1868 H1854 0.960 . S
C1868 H1855 0.960 . S
C1868 C1867 1.524 . S
C1869 C1866 1.403 . S
C1869 C1870 1.392 1_554 S
C1869 C1873 1.495 . S
C1870 C1869 1.392 1_556 S
C1870 C1871 1.385 . S
C1870 C1872 1.478 . S
C1871 H1865 0.930 . S
C1871 C1867 1.400 . S
C1871 C1870 1.385 . S
C1872 C1870 1.478 . S
C1872 C1874 1.381 . S
C1872 C1878 1.383 . S
C1873 C1869 1.495 . S
C1873 H1879 0.959 . S
C1873 H1880 0.961 . S
C1873 H1881 0.960 . S
C1874 C1872 1.381 . S
C1874 C1875 1.394 . S
C1874 H1882 0.930 . S
C1875 C1874 1.394 . S
C1875 C1876 1.383 . S
C1875 H1883 0.929 . S
C1876 C1875 1.383 . S
C1876 C1877 1.377 . S
C1877 H1861 0.930 . S
C1877 C1876 1.377 . S
C1877 C1878 1.379 . S
C1878 H1862 0.931 . S
C1878 C1872 1.383 . S
C1878 C1877 1.379 . S
H1879 C1873 0.959 . S
H1880 C1873 0.961 . S
H1881 C1873 0.960 . S
H1882 C1874 0.930 . S
H1883 C1875 0.929 . S
H1884 C1892 0.929 . S
H1885 C1894 0.930 . S
H1886 C1896 0.930 . S
H1887 C1899 0.929 . S
H1888 C1902 0.930 . S
H1889 C1904 0.960 . S
H1890 C1904 0.960 . S
H1891 C1904 0.960 . S
C1892 H1884 0.929 . S
C1892 C1893 1.377 . S
C1892 C1894 1.384 . S
C1893 C1892 1.377 . S
C1893 C1899 1.390 . S
C1894 H1885 0.930 . S
C1894 C1892 1.384 . S
C1894 C1895 1.372 . S
C1895 C1894 1.372 . S
C1895 C1896 1.400 . S
C1895 C1900 1.490 . S
C1896 H1886 0.930 . S
C1896 C1895 1.400 . S
C1896 C1899 1.386 . S
H1897 C1913 0.930 . S
H1898 C1914 0.931 . S
C1899 H1887 0.929 . S
C1899 C1893 1.390 . S
C1899 C1896 1.386 . S
C1900 C1895 1.490 . S
C1900 C1902 1.395 . S
C1900 C1903 1.403 . S
H1901 C1907 0.930 . S
C1902 H1888 0.930 . S
C1902 C1900 1.395 . S
C1902 C1905 1.403 . S
C1903 C1900 1.403 . S
C1903 C1904 1.524 . S
C1903 C1907 1.400 . S
C1904 H1889 0.960 . S
C1904 H1890 0.960 . S
C1904 H1891 0.960 . S
C1904 C1903 1.524 . S
C1905 C1902 1.403 . S
C1905 C1906 1.392 . S
C1905 C1909 1.495 . S
C1906 C1905 1.392 . S
C1906 C1907 1.385 . S
C1906 C1908 1.478 . S
C1907 H1901 0.930 . S
C1907 C1903 1.400 . S
C1907 C1906 1.385 . S
C1908 C1906 1.478 . S
C1908 C1910 1.381 . S
C1908 C1914 1.383 . S
C1909 C1905 1.495 . S
C1909 H1915 0.959 . S
C1909 H1916 0.961 . S
C1909 H1917 0.960 . S
C1910 C1908 1.381 . S
C1910 C1911 1.394 . S
C1910 H1918 0.930 . S
C1911 C1910 1.394 . S
C1911 C1912 1.383 . S
C1911 H1919 0.929 . S
C1912 C1911 1.383 . S
C1912 C1913 1.377 . S
C1913 H1897 0.930 . S
C1913 C1912 1.377 . S
C1913 C1914 1.379 . S
C1914 H1898 0.931 . S
C1914 C1908 1.383 . S
C1914 C1913 1.379 . S
H1915 C1909 0.959 . S
H1916 C1909 0.961 . S
H1917 C1909 0.960 . S
H1918 C1910 0.930 . S
H1919 C1911 0.929 . S
H1920 C1928 0.929 . S
H1921 C1930 0.930 . S
H1922 C1932 0.930 . S
H1923 C1935 0.929 . S
H1924 C1938 0.930 . S
H1925 C1940 0.960 . S
H1926 C1940 0.960 . S
H1927 C1940 0.960 . S
C1928 H1920 0.929 . S
C1928 C1929 1.377 . S
C1928 C1930 1.384 . S
C1929 C1928 1.377 . S
C1929 C1935 1.390 . S
C1930 H1921 0.930 . S
C1930 C1928 1.384 . S
C1930 C1931 1.372 . S
C1931 C1930 1.372 . S
C1931 C1932 1.400 . S
C1931 C1936 1.490 . S
C1932 H1922 0.930 . S
C1932 C1931 1.400 . S
C1932 C1935 1.386 . S
H1933 C1949 0.930 . S
H1934 C1950 0.931 . S
C1935 H1923 0.929 . S
C1935 C1929 1.390 . S
C1935 C1932 1.386 . S
C1936 C1931 1.490 . S
C1936 C1938 1.395 1_554 S
C1936 C1939 1.403 . S
H1937 C1943 0.930 . S
C1938 H1924 0.930 . S
C1938 C1936 1.395 1_556 S
C1938 C1941 1.403 . S
C1939 C1936 1.403 . S
C1939 C1940 1.524 . S
C1939 C1943 1.400 . S
C1940 H1925 0.960 . S
C1940 H1926 0.960 . S
C1940 H1927 0.960 . S
C1940 C1939 1.524 . S
C1941 C1938 1.403 . S
C1941 C1942 1.392 . S
C1941 C1945 1.495 . S
C1942 C1941 1.392 . S
C1942 C1943 1.385 1_556 S
C1942 C1944 1.478 . S
C1943 H1937 0.930 . S
C1943 C1939 1.400 . S
C1943 C1942 1.385 1_554 S
C1944 C1942 1.478 . S
C1944 C1946 1.381 . S
C1944 C1950 1.383 . S
C1945 C1941 1.495 . S
C1945 H1951 0.959 . S
C1945 H1952 0.961 . S
C1945 H1953 0.960 . S
C1946 C1944 1.381 . S
C1946 C1947 1.394 . S
C1946 H1954 0.930 . S
C1947 C1946 1.394 . S
C1947 C1948 1.383 . S
C1947 H1955 0.929 . S
C1948 C1947 1.383 . S
C1948 C1949 1.377 . S
C1949 H1933 0.930 . S
C1949 C1948 1.377 . S
C1949 C1950 1.379 . S
C1950 H1934 0.931 . S
C1950 C1944 1.383 . S
C1950 C1949 1.379 . S
H1951 C1945 0.959 . S
H1952 C1945 0.961 . S
H1953 C1945 0.960 . S
H1954 C1946 0.930 . S
H1955 C1947 0.929 . S
H1956 C1964 0.929 . S
H1957 C1966 0.930 . S
H1958 C1968 0.930 . S
H1959 C1971 0.929 . S
H1960 C1974 0.930 . S
H1961 C1976 0.960 . S
H1962 C1976 0.960 . S
H1963 C1976 0.960 . S
C1964 H1956 0.929 . S
C1964 C1965 1.377 . S
C1964 C1966 1.384 . S
C1965 C1964 1.377 . S
C1965 C1971 1.390 . S
C1966 H1957 0.930 . S
C1966 C1964 1.384 . S
C1966 C1967 1.372 . S
C1967 C1966 1.372 . S
C1967 C1968 1.400 . S
C1967 C1972 1.490 . S
C1968 H1958 0.930 . S
C1968 C1967 1.400 . S
C1968 C1971 1.386 . S
H1969 C1985 0.930 . S
H1970 C1986 0.931 . S
C1971 H1959 0.929 . S
C1971 C1965 1.390 . S
C1971 C1968 1.386 . S
C1972 C1967 1.490 . S
C1972 C1974 1.395 . S
C1972 C1975 1.403 . S
H1973 C1979 0.930 . S
C1974 H1960 0.930 . S
C1974 C1972 1.395 . S
C1974 C1977 1.403 . S
C1975 C1972 1.403 . S
C1975 C1976 1.524 . S
C1975 C1979 1.400 . S
C1976 H1961 0.960 . S
C1976 H1962 0.960 . S
C1976 H1963 0.960 . S
C1976 C1975 1.524 . S
C1977 C1974 1.403 . S
C1977 C1978 1.392 . S
C1977 C1981 1.495 . S
C1978 C1977 1.392 . S
C1978 C1979 1.385 . S
C1978 C1980 1.478 . S
C1979 H1973 0.930 . S
C1979 C1975 1.400 . S
C1979 C1978 1.385 . S
C1980 C1978 1.478 . S
C1980 C1982 1.381 . S
C1980 C1986 1.383 . S
C1981 C1977 1.495 . S
C1981 H1987 0.959 . S
C1981 H1988 0.961 . S
C1981 H1989 0.960 . S
C1982 C1980 1.381 . S
C1982 C1983 1.394 . S
C1982 H1990 0.930 . S
C1983 C1982 1.394 . S
C1983 C1984 1.383 . S
C1983 H1991 0.929 . S
C1984 C1983 1.383 . S
C1984 C1985 1.377 . S
C1985 H1969 0.930 . S
C1985 C1984 1.377 . S
C1985 C1986 1.379 . S
C1986 H1970 0.931 . S
C1986 C1980 1.383 . S
C1986 C1985 1.379 . S
H1987 C1981 0.959 . S
H1988 C1981 0.961 . S
H1989 C1981 0.960 . S
H1990 C1982 0.930 . S
H1991 C1983 0.929 . S
H1992 C2000 0.929 . S
H1993 C2002 0.930 1_554 S
H1994 C2004 0.930 . S
H1995 C2007 0.929 . S
H1996 C2010 0.930 . S
H1997 C2012 0.960 . S
H1998 C2012 0.960 . S
H1999 C2012 0.960 . S
C2000 H1992 0.929 . S
C2000 C2001 1.377 . S
C2000 C2002 1.384 . S
C2001 C2000 1.377 . S
C2001 C2007 1.390 . S
C2002 H1993 0.930 1_556 S
C2002 C2000 1.384 . S
C2002 C2003 1.372 . S
C2003 C2002 1.372 . S
C2003 C2004 1.400 . S
C2003 C2008 1.490 . S
C2004 H1994 0.930 . S
C2004 C2003 1.400 . S
C2004 C2007 1.386 . S
H2005 C2021 0.930 . S
H2006 C2022 0.931 1_556 S
C2007 H1995 0.929 . S
C2007 C2001 1.390 . S
C2007 C2004 1.386 . S
C2008 C2003 1.490 . S
C2008 C2010 1.395 . S
C2008 C2011 1.403 . S
H2009 C2015 0.930 . S
C2010 H1996 0.930 . S
C2010 C2008 1.395 . S
C2010 C2013 1.403 1_556 S
C2011 C2008 1.403 . S
C2011 C2012 1.524 . S
C2011 C2015 1.400 1_556 S
C2012 H1997 0.960 . S
C2012 H1998 0.960 . S
C2012 H1999 0.960 . S
C2012 C2011 1.524 . S
C2013 C2010 1.403 1_554 S
C2013 C2014 1.392 . S
C2013 C2017 1.495 . S
C2014 C2013 1.392 . S
C2014 C2015 1.385 . S
C2014 C2016 1.478 . S
C2015 H2009 0.930 . S
C2015 C2011 1.400 1_554 S
C2015 C2014 1.385 . S
C2016 C2014 1.478 . S
C2016 C2018 1.381 . S
C2016 C2022 1.383 . S
C2017 C2013 1.495 . S
C2017 H2023 0.959 . S
C2017 H2024 0.961 . S
C2017 H2025 0.960 . S
C2018 C2016 1.381 . S
C2018 C2019 1.394 . S
C2018 H2026 0.930 . S
C2019 C2018 1.394 . S
C2019 C2020 1.383 . S
C2019 H2027 0.929 . S
C2020 C2019 1.383 . S
C2020 C2021 1.377 . S
C2021 H2005 0.930 . S
C2021 C2020 1.377 . S
C2021 C2022 1.379 . S
C2022 H2006 0.931 1_554 S
C2022 C2016 1.383 . S
C2022 C2021 1.379 . S
H2023 C2017 0.959 . S
H2024 C2017 0.961 . S
H2025 C2017 0.960 . S
H2026 C2018 0.930 . S
H2027 C2019 0.929 . S
H2028 C2036 0.929 . S
H2029 C2038 0.930 . S
H2030 C2040 0.930 . S
H2031 C2043 0.929 . S
H2032 C2046 0.930 . S
H2033 C2048 0.960 . S
H2034 C2048 0.960 . S
H2035 C2048 0.960 . S
C2036 H2028 0.929 . S
C2036 C2037 1.377 . S
C2036 C2038 1.384 . S
C2037 C2036 1.377 . S
C2037 C2043 1.390 . S
C2038 H2029 0.930 . S
C2038 C2036 1.384 . S
C2038 C2039 1.372 . S
C2039 C2038 1.372 . S
C2039 C2040 1.400 . S
C2039 C2044 1.490 . S
C2040 H2030 0.930 . S
C2040 C2039 1.400 . S
C2040 C2043 1.386 . S
H2041 C2057 0.930 . S
H2042 C2058 0.931 . S
C2043 H2031 0.929 . S
C2043 C2037 1.390 . S
C2043 C2040 1.386 . S
C2044 C2039 1.490 . S
C2044 C2046 1.395 . S
C2044 C2047 1.403 . S
H2045 C2051 0.930 . S
C2046 H2032 0.930 . S
C2046 C2044 1.395 . S
C2046 C2049 1.403 . S
C2047 C2044 1.403 . S
C2047 C2048 1.524 . S
C2047 C2051 1.400 . S
C2048 H2033 0.960 . S
C2048 H2034 0.960 . S
C2048 H2035 0.960 . S
C2048 C2047 1.524 . S
C2049 C2046 1.403 . S
C2049 C2050 1.392 . S
C2049 C2053 1.495 . S
C2050 C2049 1.392 . S
C2050 C2051 1.385 . S
C2050 C2052 1.478 . S
C2051 H2045 0.930 . S
C2051 C2047 1.400 . S
C2051 C2050 1.385 . S
C2052 C2050 1.478 . S
C2052 C2054 1.381 . S
C2052 C2058 1.383 . S
C2053 C2049 1.495 . S
C2053 H2059 0.959 . S
C2053 H2060 0.961 . S
C2053 H2061 0.960 . S
C2054 C2052 1.381 . S
C2054 C2055 1.394 . S
C2054 H2062 0.930 . S
C2055 C2054 1.394 . S
C2055 C2056 1.383 . S
C2055 H2063 0.929 . S
C2056 C2055 1.383 . S
C2056 C2057 1.377 . S
C2057 H2041 0.930 . S
C2057 C2056 1.377 . S
C2057 C2058 1.379 . S
C2058 H2042 0.931 . S
C2058 C2052 1.383 . S
C2058 C2057 1.379 . S
H2059 C2053 0.959 . S
H2060 C2053 0.961 . S
H2061 C2053 0.960 . S
H2062 C2054 0.930 . S
H2063 C2055 0.929 . S
C345 C7 1.497 . S
C364 C217 1.510 . S
C381 C21 1.498 . S
C400 C231 1.485 . S
C417 C245 1.497 . S
C436 C35 1.488 . S
C453 C175 1.497 . S
C472 C49 1.510 . S
C489 C189 1.500 . S
C508 C63 1.481 . S
C525 C203 1.496 . S
C544 C77 1.502 . S
C561 C301 1.496 . S
C580 C91 1.505 . S
C597 C105 1.500 . S
C616 C315 1.481 . S
C633 C329 1.502 . S
C652 C119 1.492 . S
C669 C133 1.497 . S
C688 C259 1.510 . S
C705 C273 1.501 . S
C724 C147 1.502 . S
C741 C161 1.501 . S
C760 C287 1.498 . S
C777 C151 1.093 . S
C796 C11 1.079 . S
C813 C165 1.093 . S
C832 C25 1.076 . S
C849 C39 1.097 . S
C868 C95 1.095 . S
C885 C53 1.094 . S
C904 C109 1.080 . S
C921 C123 1.098 . S
C940 C67 1.099 . S
C957 C81 1.099 . S
C976 C137 1.108 . S
C993 C319 1.094 . S
C1012 C179 1.113 . S
C1029 C193 1.093 . S
C1048 C333 1.108 . S
C1065 C207 1.098 . S
C1084 C263 1.078 . S
C1101 C277 1.097 . S
C1120 C221 1.079 . S
C1137 C235 1.098 . S
C1156 C291 1.102 . S
C1173 C249 1.095 . S
C1192 C305 1.087 . S
C1209 C8 0.981 . S
C1228 C260 1.017 . S
C1245 C274 0.971 . S
C1264 C22 0.968 . S
C1281 C36 0.977 . S
C1300 C288 0.938 . S
C1317 C50 0.980 . S
C1336 C302 1.020 . S
C1353 C316 0.980 . S
C1372 C64 1.018 . S
C1389 C78 0.970 . S
C1408 C330 1.023 . S
C1425 C92 0.978 . S
C1444 C176 1.023 . S
C1461 C106 0.985 . S
C1480 C190 0.927 . S
C1497 C204 0.974 . S
C1516 C120 0.949 . S
C1533 C218 0.978 . S
C1552 C134 0.934 . S
C1569 C148 0.970 . S
C1588 C232 0.970 . S
C1605 C246 0.968 . S
C1624 C162 1.010 . S
C1641 C97 1.496 . S
C1660 C13 1.520 . S
C1677 C27 1.497 . S
C1696 C111 1.520 . S
C1713 C125 1.490 . S
C1732 C41 1.477 . S
C1749 C139 1.491 . S
C1768 C55 1.481 . S
C1785 C153 1.495 . S
C1804 C69 1.505 . S
C1821 C83 1.484 . S
C1840 C167 1.471 . S
C1857 C265 1.494 . S
C1876 C181 1.491 . S
C1893 C195 1.494 . S
C1912 C279 1.486 . S
C1929 C293 1.484 . S
C1948 C209 1.493 . S
C1965 C307 1.493 . S
C1984 C223 1.453 . S
C2001 C237 1.497 . S
C2020 C321 1.464 . S
C2037 C251 1.488 . S
C2056 C335 1.516 . S
