# Generated by pormake.
# Topology ech, (8)-cn, num edge types: 1
# Building blocks:
#     Node 0, Type 0, BuildingBlock: TAGTUT_clean_sbu_3, # of connection points: 8
#     Node 1, Type 0, BuildingBlock: TAGTUT_clean_sbu_3, # of connection points: 8
#     Node 2, Type 0, BuildingBlock: TAGTUT_clean_sbu_3, # of connection points: 8
#     Node 3, Type 0, BuildingBlock: TAGTUT_clean_sbu_3, # of connection points: 8
#     Node 4, Type 0, BuildingBlock: TAGTUT_clean_sbu_3, # of connection points: 8
#     Node 5, Type 0, BuildingBlock: TAGTUT_clean_sbu_3, # of connection points: 8
#     Node 6, Type 0, BuildingBlock: TAGTUT_clean_sbu_3, # of connection points: 8
#     Node 7, Type 0, BuildingBlock: TAGTUT_clean_sbu_3, # of connection points: 8
#     Node 8, Type 0, BuildingBlock: TAGTUT_clean_sbu_3, # of connection points: 8
#     Node 9, Type 0, BuildingBlock: TAGTUT_clean_sbu_3, # of connection points: 8
#     Node 10, Type 0, BuildingBlock: TAGTUT_clean_sbu_3, # of connection points: 8
#     Node 11, Type 0, BuildingBlock: TAGTUT_clean_sbu_3, # of connection points: 8
#     Node 12, Type 0, BuildingBlock: TAGTUT_clean_sbu_3, # of connection points: 8
#     Node 13, Type 0, BuildingBlock: TAGTUT_clean_sbu_3, # of connection points: 8
#     Node 14, Type 0, BuildingBlock: TAGTUT_clean_sbu_3, # of connection points: 8
#     Node 15, Type 0, BuildingBlock: TAGTUT_clean_sbu_3, # of connection points: 8
#     Node 16, Type 0, BuildingBlock: TAGTUT_clean_sbu_3, # of connection points: 8
#     Node 17, Type 0, BuildingBlock: TAGTUT_clean_sbu_3, # of connection points: 8
#     Node 18, Type 0, BuildingBlock: TAGTUT_clean_sbu_3, # of connection points: 8
#     Node 19, Type 0, BuildingBlock: TAGTUT_clean_sbu_3, # of connection points: 8
#     Node 20, Type 0, BuildingBlock: TAGTUT_clean_sbu_3, # of connection points: 8
#     Node 21, Type 0, BuildingBlock: TAGTUT_clean_sbu_3, # of connection points: 8
#     Node 22, Type 0, BuildingBlock: TAGTUT_clean_sbu_3, # of connection points: 8
#     Node 23, Type 0, BuildingBlock: TAGTUT_clean_sbu_3, # of connection points: 8
#     Edge 24, Type (0, 0), BuildingBlock: CIFDUS_clean_linker_0, # of connection points: 2
#     Edge 25, Type (0, 0), BuildingBlock: CIFDUS_clean_linker_0, # of connection points: 2
#     Edge 26, Type (0, 0), BuildingBlock: CIFDUS_clean_linker_0, # of connection points: 2
#     Edge 27, Type (0, 0), BuildingBlock: CIFDUS_clean_linker_0, # of connection points: 2
#     Edge 28, Type (0, 0), BuildingBlock: CIFDUS_clean_linker_0, # of connection points: 2
#     Edge 29, Type (0, 0), BuildingBlock: CIFDUS_clean_linker_0, # of connection points: 2
#     Edge 30, Type (0, 0), BuildingBlock: CIFDUS_clean_linker_0, # of connection points: 2
#     Edge 31, Type (0, 0), BuildingBlock: CIFDUS_clean_linker_0, # of connection points: 2
#     Edge 32, Type (0, 0), BuildingBlock: CIFDUS_clean_linker_0, # of connection points: 2
#     Edge 33, Type (0, 0), BuildingBlock: CIFDUS_clean_linker_0, # of connection points: 2
#     Edge 34, Type (0, 0), BuildingBlock: CIFDUS_clean_linker_0, # of connection points: 2
#     Edge 35, Type (0, 0), BuildingBlock: CIFDUS_clean_linker_0, # of connection points: 2
#     Edge 36, Type (0, 0), BuildingBlock: CIFDUS_clean_linker_0, # of connection points: 2
#     Edge 37, Type (0, 0), BuildingBlock: CIFDUS_clean_linker_0, # of connection points: 2
#     Edge 38, Type (0, 0), BuildingBlock: CIFDUS_clean_linker_0, # of connection points: 2
#     Edge 39, Type (0, 0), BuildingBlock: CIFDUS_clean_linker_0, # of connection points: 2
#     Edge 40, Type (0, 0), BuildingBlock: CIFDUS_clean_linker_0, # of connection points: 2
#     Edge 41, Type (0, 0), BuildingBlock: CIFDUS_clean_linker_0, # of connection points: 2
#     Edge 42, Type (0, 0), BuildingBlock: CIFDUS_clean_linker_0, # of connection points: 2
#     Edge 43, Type (0, 0), BuildingBlock: CIFDUS_clean_linker_0, # of connection points: 2
#     Edge 44, Type (0, 0), BuildingBlock: CIFDUS_clean_linker_0, # of connection points: 2
#     Edge 45, Type (0, 0), BuildingBlock: CIFDUS_clean_linker_0, # of connection points: 2
#     Edge 46, Type (0, 0), BuildingBlock: CIFDUS_clean_linker_0, # of connection points: 2
#     Edge 47, Type (0, 0), BuildingBlock: CIFDUS_clean_linker_0, # of connection points: 2
#     Edge 48, Type (0, 0), BuildingBlock: CIFDUS_clean_linker_0, # of connection points: 2
#     Edge 49, Type (0, 0), BuildingBlock: CIFDUS_clean_linker_0, # of connection points: 2
#     Edge 50, Type (0, 0), BuildingBlock: CIFDUS_clean_linker_0, # of connection points: 2
#     Edge 51, Type (0, 0), BuildingBlock: CIFDUS_clean_linker_0, # of connection points: 2
#     Edge 52, Type (0, 0), BuildingBlock: CIFDUS_clean_linker_0, # of connection points: 2
#     Edge 53, Type (0, 0), BuildingBlock: CIFDUS_clean_linker_0, # of connection points: 2
#     Edge 54, Type (0, 0), BuildingBlock: CIFDUS_clean_linker_0, # of connection points: 2
#     Edge 55, Type (0, 0), BuildingBlock: CIFDUS_clean_linker_0, # of connection points: 2
#     Edge 56, Type (0, 0), BuildingBlock: CIFDUS_clean_linker_0, # of connection points: 2
#     Edge 57, Type (0, 0), BuildingBlock: CIFDUS_clean_linker_0, # of connection points: 2
#     Edge 58, Type (0, 0), BuildingBlock: CIFDUS_clean_linker_0, # of connection points: 2
#     Edge 59, Type (0, 0), BuildingBlock: CIFDUS_clean_linker_0, # of connection points: 2
#     Edge 60, Type (0, 0), BuildingBlock: CIFDUS_clean_linker_0, # of connection points: 2
#     Edge 61, Type (0, 0), BuildingBlock: CIFDUS_clean_linker_0, # of connection points: 2
#     Edge 62, Type (0, 0), BuildingBlock: CIFDUS_clean_linker_0, # of connection points: 2
#     Edge 63, Type (0, 0), BuildingBlock: CIFDUS_clean_linker_0, # of connection points: 2
#     Edge 64, Type (0, 0), BuildingBlock: CIFDUS_clean_linker_0, # of connection points: 2
#     Edge 65, Type (0, 0), BuildingBlock: CIFDUS_clean_linker_0, # of connection points: 2
#     Edge 66, Type (0, 0), BuildingBlock: CIFDUS_clean_linker_0, # of connection points: 2
#     Edge 67, Type (0, 0), BuildingBlock: CIFDUS_clean_linker_0, # of connection points: 2
#     Edge 68, Type (0, 0), BuildingBlock: CIFDUS_clean_linker_0, # of connection points: 2
#     Edge 69, Type (0, 0), BuildingBlock: CIFDUS_clean_linker_0, # of connection points: 2
#     Edge 70, Type (0, 0), BuildingBlock: CIFDUS_clean_linker_0, # of connection points: 2
#     Edge 71, Type (0, 0), BuildingBlock: CIFDUS_clean_linker_0, # of connection points: 2
#     Edge 72, Type (0, 0), BuildingBlock: CIFDUS_clean_linker_0, # of connection points: 2
#     Edge 73, Type (0, 0), BuildingBlock: CIFDUS_clean_linker_0, # of connection points: 2
#     Edge 74, Type (0, 0), BuildingBlock: CIFDUS_clean_linker_0, # of connection points: 2
#     Edge 75, Type (0, 0), BuildingBlock: CIFDUS_clean_linker_0, # of connection points: 2
#     Edge 76, Type (0, 0), BuildingBlock: CIFDUS_clean_linker_0, # of connection points: 2
#     Edge 77, Type (0, 0), BuildingBlock: CIFDUS_clean_linker_0, # of connection points: 2
#     Edge 78, Type (0, 0), BuildingBlock: CIFDUS_clean_linker_0, # of connection points: 2
#     Edge 79, Type (0, 0), BuildingBlock: CIFDUS_clean_linker_0, # of connection points: 2
#     Edge 80, Type (0, 0), BuildingBlock: CIFDUS_clean_linker_0, # of connection points: 2
#     Edge 81, Type (0, 0), BuildingBlock: CIFDUS_clean_linker_0, # of connection points: 2
#     Edge 82, Type (0, 0), BuildingBlock: CIFDUS_clean_linker_0, # of connection points: 2
#     Edge 83, Type (0, 0), BuildingBlock: CIFDUS_clean_linker_0, # of connection points: 2
#     Edge 84, Type (0, 0), BuildingBlock: CIFDUS_clean_linker_0, # of connection points: 2
#     Edge 85, Type (0, 0), BuildingBlock: CIFDUS_clean_linker_0, # of connection points: 2
#     Edge 86, Type (0, 0), BuildingBlock: CIFDUS_clean_linker_0, # of connection points: 2
#     Edge 87, Type (0, 0), BuildingBlock: CIFDUS_clean_linker_0, # of connection points: 2
#     Edge 88, Type (0, 0), BuildingBlock: CIFDUS_clean_linker_0, # of connection points: 2
#     Edge 89, Type (0, 0), BuildingBlock: CIFDUS_clean_linker_0, # of connection points: 2
#     Edge 90, Type (0, 0), BuildingBlock: CIFDUS_clean_linker_0, # of connection points: 2
#     Edge 91, Type (0, 0), BuildingBlock: CIFDUS_clean_linker_0, # of connection points: 2
#     Edge 92, Type (0, 0), BuildingBlock: CIFDUS_clean_linker_0, # of connection points: 2
#     Edge 93, Type (0, 0), BuildingBlock: CIFDUS_clean_linker_0, # of connection points: 2
#     Edge 94, Type (0, 0), BuildingBlock: CIFDUS_clean_linker_0, # of connection points: 2
#     Edge 95, Type (0, 0), BuildingBlock: CIFDUS_clean_linker_0, # of connection points: 2
#     Edge 96, Type (0, 0), BuildingBlock: CIFDUS_clean_linker_0, # of connection points: 2
#     Edge 97, Type (0, 0), BuildingBlock: CIFDUS_clean_linker_0, # of connection points: 2
#     Edge 98, Type (0, 0), BuildingBlock: CIFDUS_clean_linker_0, # of connection points: 2
#     Edge 99, Type (0, 0), BuildingBlock: CIFDUS_clean_linker_0, # of connection points: 2
#     Edge 100, Type (0, 0), BuildingBlock: CIFDUS_clean_linker_0, # of connection points: 2
#     Edge 101, Type (0, 0), BuildingBlock: CIFDUS_clean_linker_0, # of connection points: 2
#     Edge 102, Type (0, 0), BuildingBlock: CIFDUS_clean_linker_0, # of connection points: 2
#     Edge 103, Type (0, 0), BuildingBlock: CIFDUS_clean_linker_0, # of connection points: 2
#     Edge 104, Type (0, 0), BuildingBlock: CIFDUS_clean_linker_0, # of connection points: 2
#     Edge 105, Type (0, 0), BuildingBlock: CIFDUS_clean_linker_0, # of connection points: 2
#     Edge 106, Type (0, 0), BuildingBlock: CIFDUS_clean_linker_0, # of connection points: 2
#     Edge 107, Type (0, 0), BuildingBlock: CIFDUS_clean_linker_0, # of connection points: 2
#     Edge 108, Type (0, 0), BuildingBlock: CIFDUS_clean_linker_0, # of connection points: 2
#     Edge 109, Type (0, 0), BuildingBlock: CIFDUS_clean_linker_0, # of connection points: 2
#     Edge 110, Type (0, 0), BuildingBlock: CIFDUS_clean_linker_0, # of connection points: 2
#     Edge 111, Type (0, 0), BuildingBlock: CIFDUS_clean_linker_0, # of connection points: 2
#     Edge 112, Type (0, 0), BuildingBlock: CIFDUS_clean_linker_0, # of connection points: 2
#     Edge 113, Type (0, 0), BuildingBlock: CIFDUS_clean_linker_0, # of connection points: 2
#     Edge 114, Type (0, 0), BuildingBlock: CIFDUS_clean_linker_0, # of connection points: 2
#     Edge 115, Type (0, 0), BuildingBlock: CIFDUS_clean_linker_0, # of connection points: 2
#     Edge 116, Type (0, 0), BuildingBlock: CIFDUS_clean_linker_0, # of connection points: 2
#     Edge 117, Type (0, 0), BuildingBlock: CIFDUS_clean_linker_0, # of connection points: 2
#     Edge 118, Type (0, 0), BuildingBlock: CIFDUS_clean_linker_0, # of connection points: 2
#     Edge 119, Type (0, 0), BuildingBlock: CIFDUS_clean_linker_0, # of connection points: 2
# Relax obj value: 0.268
# Max RMSD: 0.247
# Mean RMSD: 0.245
data_MOF--net-ech--node1-TAGTUT_clean_sbu_3--edge1-CIFDUS_clean_linker_0
_symmetry_space_group_name_H-M    P1
_symmetry_Int_Tables_number       1
_symmetry_cell_setting            triclinic
loop_
_symmetry_equiv_pos_as_xyz
'x, y, z'
_cell_length_a     41.753412
_cell_length_b     41.991381
_cell_length_c     41.728959
_cell_angle_alpha  90.243697
_cell_angle_beta   90.015533
_cell_angle_gamma 89.855601
loop_
_atom_site_label
_atom_site_type_symbol
_atom_site_fract_x
_atom_site_fract_y
_atom_site_fract_z
_atom_type_partial_charge
C0 C 0.09601 0.203 0.45252 0.0
C1 C 0.20306 0.19738 0.38542 0.0
C2 C 0.16235 0.28345 0.34306 0.0
Mg3 Mg 0.04201 0.26295 0.45858 0.0
Mg4 Mg 0.07156 0.33579 0.4625 0.0
O5 O 0.06859 0.29733 0.44002 0.0
Mg6 Mg 0.10821 0.27425 0.42944 0.0
O7 O 0.14632 0.24737 0.41783 0.0
Mg8 Mg 0.12614 0.22274 0.38148 0.0
Mg9 Mg 0.18632 0.26475 0.41018 0.0
C10 C 0.11493 0.34755 0.40263 0.0
O11 O 0.1395 0.29768 0.47012 0.0
O12 O -0.00112 0.29944 0.45102 0.0
O13 O 0.1907 0.29252 0.45354 0.0
O14 O 0.05027 0.28041 0.50946 0.0
O15 O 0.02311 0.34726 0.45287 0.0
O16 O 0.07577 0.3266 0.51336 0.0
O17 O 0.08141 0.25071 0.38851 0.0
O18 O 0.03331 0.24378 0.40956 0.0
C19 C 0.05368 0.23819 0.38765 0.0
C20 C 0.99828 0.33006 0.44811 0.0
O21 O 0.11914 0.31756 0.3978 0.0
O22 O 0.17385 0.19422 0.37636 0.0
O23 O 0.1052 0.3586 0.42978 0.0
O24 O 0.14375 0.25912 0.34277 0.0
O25 O 0.21299 0.22208 0.40047 0.0
O26 O 0.17955 0.29047 0.36729 0.0
O27 O 0.09112 0.23252 0.45985 0.0
O28 O 0.10773 0.19439 0.42512 0.0
C29 C 0.06292 0.30231 0.52638 0.0
C30 C 0.16983 0.30247 0.47384 0.0
C31 C 0.46723 0.76737 0.8985 0.0
C32 C 0.51187 0.69127 0.98513 0.0
C33 C 0.42832 0.71375 0.03842 0.0
Mg34 Mg 0.39595 0.77277 0.87108 0.0
Mg35 Mg 0.33703 0.72373 0.8884 0.0
O36 O 0.37087 0.7476 0.90376 0.0
Mg37 Mg 0.40719 0.72773 0.92778 0.0
O38 O 0.44467 0.71137 0.95156 0.0
Mg39 Mg 0.45939 0.75089 0.97325 0.0
Mg40 Mg 0.43954 0.67558 0.97778 0.0
C41 C 0.34102 0.69202 0.95701 0.0
O42 O 0.40763 0.68011 0.901 0.0
O43 O 0.34786 0.79402 0.8527 0.0
O44 O 0.41683 0.64564 0.94163 0.0
O45 O 0.3923 0.73234 0.83117 0.0
O46 O 0.30849 0.76157 0.86927 0.0
O47 O 0.35687 0.69722 0.85024 0.0
O48 O 0.41025 0.77387 0.95612 0.0
O49 O 0.39884 0.8066 0.9147 0.0
C50 C 0.40476 0.80186 0.9447 0.0
C51 C 0.31812 0.78684 0.85516 0.0
O52 O 0.36969 0.70258 0.96158 0.0
O53 O 0.50574 0.72132 0.98326 0.0
O54 O 0.32548 0.69716 0.931 0.0
O55 O 0.4409 0.73646 0.02266 0.0
O56 O 0.4899 0.67004 0.984 0.0
O57 O 0.42115 0.68758 0.02458 0.0
O58 O 0.44135 0.75224 0.89203 0.0
O59 O 0.47927 0.76595 0.92645 0.0
C60 C 0.37732 0.70566 0.82933 0.0
C61 C 0.40986 0.65174 0.91224 0.0
C62 C 0.55456 0.26115 0.60926 0.0
C63 C 0.50004 0.16383 0.56278 0.0
C64 C 0.56201 0.18059 0.47851 0.0
Mg65 Mg 0.62552 0.28081 0.61156 0.0
Mg66 Mg 0.68899 0.24465 0.58088 0.0
O67 O 0.64626 0.25543 0.57633 0.0
Mg68 Mg 0.61027 0.22471 0.56891 0.0
O69 O 0.57154 0.19831 0.56159 0.0
Mg70 Mg 0.54246 0.22943 0.54065 0.0
Mg71 Mg 0.57266 0.15598 0.54679 0.0
C72 C 0.6723 0.19755 0.52374 0.0
O73 O 0.62575 0.18651 0.60556 0.0
O74 O 0.67034 0.31334 0.61327 0.0
O75 O 0.61347 0.14349 0.5771 0.0
O76 O 0.64945 0.24886 0.65153 0.0
O77 O 0.71131 0.29053 0.5871 0.0
O78 O 0.68956 0.22323 0.62622 0.0
O79 O 0.58958 0.26182 0.53466 0.0
O80 O 0.60343 0.30376 0.56613 0.0
C81 C 0.59285 0.29207 0.53938 0.0
C82 C 0.69937 0.31373 0.60325 0.0
O83 O 0.642 0.19957 0.52959 0.0
O84 O 0.5006 0.19324 0.55381 0.0
O85 O 0.69336 0.21246 0.54047 0.0
O86 O 0.55045 0.20546 0.49192 0.0
O87 O 0.52496 0.14599 0.56179 0.0
O88 O 0.57387 0.15778 0.49488 0.0
O89 O 0.58281 0.24966 0.60853 0.0
O90 O 0.53434 0.25429 0.58755 0.0
C91 C 0.67279 0.22879 0.65111 0.0
C92 C 0.6183 0.15691 0.60438 0.0
C93 C 0.96199 0.72294 0.09586 0.0
C94 C 0.02078 0.79482 0.00935 0.0
C95 C 0.9346 0.7905 0.95783 0.0
Mg96 Mg 0.89056 0.72664 0.119 0.0
Mg97 Mg 0.84336 0.78773 0.1067 0.0
O98 O 0.87149 0.75876 0.08864 0.0
Mg99 Mg 0.91105 0.77346 0.06614 0.0
O100 O 0.95171 0.78389 0.04435 0.0
Mg101 Mg 0.96053 0.74364 0.02038 0.0
Mg102 Mg 0.95167 0.8208 0.0196 0.0
C103 C 0.85112 0.81897 0.03832 0.0
O104 O 0.91953 0.81902 0.09589 0.0
O105 O 0.83831 0.7119 0.13239 0.0
O106 O 0.93715 0.85263 0.0576 0.0
O107 O 0.88963 0.76123 0.16304 0.0
O108 O 0.80736 0.75427 0.1206 0.0
O109 O 0.86652 0.80676 0.14791 0.0
O110 O 0.90785 0.72896 0.03465 0.0
O111 O 0.89124 0.69615 0.07376 0.0
C112 C 0.89871 0.70142 0.04436 0.0
C113 C 0.81082 0.7256 0.13037 0.0
O114 O 0.87807 0.80479 0.03286 0.0
O115 O 0.01135 0.76588 0.01326 0.0
O116 O 0.83619 0.8166 0.06504 0.0
O117 O 0.94645 0.76542 0.97065 0.0
O118 O 0.00162 0.81865 0.00957 0.0
O119 O 0.9278 0.81473 0.97494 0.0
O120 O 0.93945 0.7429 0.10136 0.0
O121 O 0.97505 0.72109 0.06819 0.0
C122 C 0.88136 0.79012 0.16861 0.0
C123 C 0.92976 0.8464 0.0868 0.0
C124 C 0.46504 0.10096 0.19831 0.0
C125 C 0.39002 0.20253 0.21904 0.0
C126 C 0.34345 0.13587 0.28242 0.0
Mg127 Mg 0.47412 0.03544 0.24019 0.0
Mg128 Mg 0.45945 0.03516 0.31775 0.0
O129 O 0.44517 0.04601 0.277 0.0
Mg130 Mg 0.43388 0.0904 0.26685 0.0
O131 O 0.42278 0.13454 0.25224 0.0
Mg132 Mg 0.39087 0.12144 0.21831 0.0
Mg133 Mg 0.4108 0.1666 0.28085 0.0
C134 C 0.39907 0.07603 0.33657 0.0
O135 O 0.46822 0.11247 0.30397 0.0
O136 O 0.46815 0.98215 0.25689 0.0
O137 O 0.45079 0.16231 0.31471 0.0
O138 O 0.52044 0.04162 0.27073 0.0
O139 O 0.45504 0.9857 0.30926 0.0
O140 O 0.50846 0.04772 0.32234 0.0
O141 O 0.3991 0.06976 0.23045 0.0
O142 O 0.43017 0.03104 0.21038 0.0
C143 C 0.40493 0.04814 0.20939 0.0
C144 C 0.45915 0.9696 0.28351 0.0
O145 O 0.39707 0.0887 0.30864 0.0
O146 O 0.38453 0.17534 0.20595 0.0
O147 O 0.4222 0.0579 0.34519 0.0
O148 O 0.34715 0.12568 0.25357 0.0
O149 O 0.40204 0.2051 0.24727 0.0
O150 O 0.36566 0.15042 0.2975 0.0
O151 O 0.47086 0.08997 0.22656 0.0
O152 O 0.43814 0.11432 0.19082 0.0
C153 C 0.52892 0.04671 0.29978 0.0
C154 C 0.4701 0.13888 0.3195 0.0
C155 C 0.0371 0.89352 0.70225 0.0
C156 C 0.11565 0.79681 0.68583 0.0
C157 C 0.15766 0.8362 0.772 0.0
Mg158 Mg 0.03196 0.94584 0.76337 0.0
Mg159 Mg 0.0415 0.91783 0.83726 0.0
O160 O 0.05761 0.92189 0.79567 0.0
Mg161 Mg 0.069 0.88389 0.77072 0.0
O162 O 0.08075 0.8479 0.74123 0.0
Mg163 Mg 0.11313 0.87192 0.71488 0.0
Mg164 Mg 0.09153 0.80754 0.75506 0.0
C165 C 0.10406 0.8762 0.84181 0.0
O166 O 0.0336 0.84922 0.79699 0.0
O167 O 0.03901 0.98968 0.79862 0.0
O168 O 0.05121 0.79932 0.78688 0.0
O169 O 0.98517 0.93179 0.7875 0.0
O170 O 0.04796 0.9671 0.84673 0.0
O171 O 0.99086 0.90853 0.83503 0.0
O172 O 0.10447 0.91516 0.74417 0.0
O173 O 0.07681 0.95975 0.73806 0.0
C174 C 0.10105 0.94258 0.73153 0.0
C175 C 0.04683 0.99153 0.8285 0.0
O176 O 0.10588 0.87401 0.81109 0.0
O177 O 0.12131 0.82672 0.68435 0.0
O178 O 0.07916 0.88712 0.8563 0.0
O179 O 0.15586 0.85649 0.74902 0.0
O180 O 0.10201 0.78419 0.71019 0.0
O181 O 0.13518 0.81671 0.77815 0.0
O182 O 0.03274 0.89772 0.73258 0.0
O183 O 0.06475 0.88574 0.69042 0.0
C184 C 0.97327 0.91826 0.81202 0.0
C185 C 0.03158 0.81876 0.80046 0.0
C186 C 0.90496 0.46187 0.76374 0.0
C187 C 0.97283 0.52338 0.69473 0.0
C188 C 0.04422 0.44585 0.70027 0.0
Mg189 Mg 0.88579 0.38956 0.76394 0.0
Mg190 Mg 0.91334 0.33136 0.71729 0.0
O191 O 0.92208 0.36822 0.74057 0.0
Mg192 Mg 0.94076 0.40792 0.72175 0.0
O193 O 0.95881 0.44851 0.70725 0.0
Mg194 Mg 0.97991 0.46416 0.74721 0.0
Mg195 Mg 0.97884 0.45451 0.668 0.0
C196 C 0.98103 0.34736 0.68709 0.0
O197 O 0.91217 0.40645 0.67501 0.0
O198 O 0.87124 0.33961 0.78384 0.0
O199 O 0.94502 0.42846 0.63825 0.0
O200 O 0.84988 0.38195 0.72033 0.0
O201 O 0.89456 0.30085 0.75477 0.0
O202 O 0.87462 0.34646 0.68843 0.0
O203 O 0.97023 0.41231 0.76719 0.0
O204 O 0.92885 0.39675 0.79839 0.0
C205 C 0.95869 0.40448 0.79469 0.0
C206 C 0.87684 0.31002 0.7782 0.0
O207 O 0.9786 0.37639 0.69675 0.0
O208 O 0.97964 0.51422 0.72328 0.0
O209 O 0.95901 0.32659 0.69209 0.0
O210 O 0.0307 0.45282 0.72696 0.0
O211 O 0.97184 0.50443 0.67066 0.0
O212 O 0.02832 0.44364 0.67425 0.0
O213 O 0.90167 0.43732 0.74575 0.0
O214 O 0.93179 0.47584 0.76642 0.0
C215 C 0.85164 0.36574 0.69409 0.0
C216 C 0.91909 0.41409 0.64613 0.0
C217 C 0.60942 0.55789 0.26769 0.0
C218 C 0.56639 0.49493 0.17335 0.0
C219 C 0.48289 0.56081 0.18184 0.0
Mg220 Mg 0.61145 0.63125 0.27901 0.0
Mg221 Mg 0.58842 0.68827 0.22811 0.0
O222 O 0.58 0.64917 0.24703 0.0
Mg223 Mg 0.5734 0.60928 0.22155 0.0
O224 O 0.56691 0.56797 0.20022 0.0
Mg225 Mg 0.54277 0.54438 0.2337 0.0
Mg226 Mg 0.55114 0.56577 0.15833 0.0
C227 C 0.52905 0.66596 0.18583 0.0
O228 O 0.60985 0.62044 0.17932 0.0
O229 O 0.61115 0.67998 0.30436 0.0
O230 O 0.58298 0.60008 0.13688 0.0
O231 O 0.65509 0.6475 0.24807 0.0
O232 O 0.59205 0.71737 0.27104 0.0
O233 O 0.63562 0.6799 0.21 0.0
O234 O 0.5361 0.59559 0.25958 0.0
O235 O 0.5634 0.61537 0.30189 0.0
C236 C 0.53716 0.60526 0.28902 0.0
C237 C 0.60305 0.70879 0.2984 0.0
O238 O 0.53516 0.6367 0.19261 0.0
O239 O 0.55696 0.49825 0.2027 0.0
O240 O 0.54686 0.68902 0.19562 0.0
O241 O 0.49537 0.55113 0.20787 0.0
O242 O 0.5648 0.51759 0.15301 0.0
O243 O 0.50004 0.56932 0.15814 0.0
O244 O 0.6108 0.58464 0.25324 0.0
O245 O 0.5876 0.53797 0.26106 0.0
C246 C 0.65865 0.66412 0.22253 0.0
C247 C 0.60634 0.61601 0.14883 0.0
C248 C 0.20304 0.46462 0.10261 0.0
C249 C 0.22395 0.39718 0.20721 0.0
C250 C 0.29354 0.3498 0.14888 0.0
Mg251 Mg 0.24723 0.47238 0.03665 0.0
Mg252 Mg 0.32537 0.46292 0.04225 0.0
O253 O 0.28491 0.44699 0.05093 0.0
Mg254 Mg 0.2731 0.43714 0.09525 0.0
O255 O 0.25775 0.42722 0.13935 0.0
Mg256 Mg 0.22746 0.39252 0.1263 0.0
Mg257 Mg 0.28558 0.41913 0.17329 0.0
C258 C 0.34424 0.40591 0.08702 0.0
O259 O 0.30655 0.47425 0.11696 0.0
O260 O 0.26801 0.46384 0.98445 0.0
O261 O 0.31707 0.46008 0.16799 0.0
O262 O 0.2746 0.52168 0.04017 0.0
O263 O 0.32057 0.45386 0.99275 0.0
O264 O 0.32629 0.51295 0.0498 0.0
O265 O 0.24137 0.39876 0.07484 0.0
O266 O 0.22071 0.42571 0.03378 0.0
C267 C 0.22115 0.40132 0.05198 0.0
C268 C 0.29601 0.4553 0.97448 0.0
O269 O 0.31545 0.40249 0.0969 0.0
O270 O 0.2132 0.38911 0.17955 0.0
O271 O 0.35325 0.42939 0.06966 0.0
O272 O 0.2657 0.35131 0.13561 0.0
O273 O 0.25093 0.41131 0.21081 0.0
O274 O 0.30608 0.37396 0.16255 0.0
O275 O 0.23095 0.47195 0.09156 0.0
O276 O 0.1972 0.43751 0.11595 0.0
C277 C 0.30302 0.53204 0.04555 0.0
C278 C 0.32119 0.47829 0.14367 0.0
C279 C 0.70659 0.03861 0.88955 0.0
C280 C 0.72515 0.10791 0.78522 0.0
C281 C 0.79859 0.15042 0.84167 0.0
Mg282 Mg 0.75412 0.03014 0.95431 0.0
Mg283 Mg 0.83166 0.03894 0.94468 0.0
O284 O 0.79087 0.05582 0.93899 0.0
Mg285 Mg 0.77738 0.06544 0.89519 0.0
O286 O 0.76046 0.07511 0.85147 0.0
Mg287 Mg 0.73127 0.11049 0.86574 0.0
Mg288 Mg 0.78723 0.08189 0.81637 0.0
C289 C 0.84912 0.09727 0.90279 0.0
O290 O 0.81006 0.02826 0.87236 0.0
O291 O 0.77822 0.03736 0.00596 0.0
O292 O 0.81817 0.03964 0.82023 0.0
O293 O 0.78151 0.98132 0.9484 0.0
O294 O 0.83047 0.04522 0.99471 0.0
O295 O 0.83211 0.98965 0.9342 0.0
O296 O 0.74617 0.10365 0.91687 0.0
O297 O 0.72744 0.07674 0.95887 0.0
C298 C 0.7267 0.10094 0.9404 0.0
C299 C 0.80717 0.04425 0.01453 0.0
O300 O 0.82004 0.10025 0.89335 0.0
O301 O 0.71509 0.11483 0.81337 0.0
O302 O 0.85916 0.07329 0.91876 0.0
O303 O 0.7708 0.15074 0.85526 0.0
O304 O 0.75208 0.09397 0.78015 0.0
O305 O 0.80959 0.12556 0.82785 0.0
O306 O 0.73485 0.0309 0.89986 0.0
O307 O 0.70056 0.06595 0.87665 0.0
C308 C 0.80922 0.97077 0.94028 0.0
C309 C 0.82331 0.02256 0.84523 0.0
C310 C 0.76945 0.90491 0.45941 0.0
C311 C 0.69175 0.98191 0.51212 0.0
C312 C 0.69819 0.03926 0.42903 0.0
Mg313 Mg 0.7744 0.8821 0.38917 0.0
Mg314 Mg 0.72487 0.89757 0.32982 0.0
O315 O 0.74792 0.91356 0.36412 0.0
Mg316 Mg 0.72586 0.93384 0.40186 0.0
O317 O 0.70909 0.9539 0.44129 0.0
Mg318 Mg 0.74744 0.979 0.45577 0.0
Mg319 Mg 0.66973 0.97442 0.44129 0.0
C320 C 0.69081 0.96448 0.33628 0.0
O321 O 0.67998 0.90291 0.40088 0.0
O322 O 0.79692 0.86511 0.34128 0.0
O323 O 0.64207 0.93743 0.41832 0.0
O324 O 0.73541 0.84142 0.3846 0.0
O325 O 0.76249 0.87646 0.30144 0.0
O326 O 0.69871 0.86029 0.35041 0.0
O327 O 0.76892 0.96563 0.40573 0.0
O328 O 0.80568 0.92774 0.39389 0.0
C329 C 0.79796 0.95683 0.40088 0.0
C330 C 0.78895 0.86479 0.31162 0.0
O331 O 0.69924 0.96702 0.36591 0.0
O332 O 0.7213 0.98465 0.50423 0.0
O333 O 0.69785 0.94009 0.31896 0.0
O334 O 0.72447 0.02759 0.43985 0.0
O335 O 0.66902 0.97765 0.49197 0.0
O336 O 0.67409 0.02155 0.42358 0.0
O337 O 0.7522 0.89977 0.43463 0.0
O338 O 0.77005 0.9324 0.4726 0.0
C339 C 0.70808 0.8395 0.37048 0.0
C340 C 0.65066 0.91047 0.40654 0.0
C341 C 0.26368 0.5861 0.53473 0.0
C342 C 0.17205 0.51639 0.49758 0.0
C343 C 0.19415 0.45441 0.57631 0.0
Mg344 Mg 0.28013 0.61081 0.60411 0.0
Mg345 Mg 0.24494 0.59289 0.67278 0.0
O346 O 0.25737 0.57963 0.63239 0.0
Mg347 Mg 0.22886 0.55999 0.59918 0.0
O348 O 0.20482 0.54002 0.56403 0.0
Mg349 Mg 0.23862 0.51417 0.54271 0.0
Mg350 Mg 0.16574 0.5202 0.57164 0.0
C351 C 0.20491 0.5294 0.67033 0.0
O352 O 0.18352 0.59276 0.6057 0.0
O353 O 0.31097 0.62706 0.64823 0.0
O354 O 0.14311 0.55756 0.59892 0.0
O355 O 0.24116 0.65077 0.61569 0.0
O356 O 0.28937 0.60793 0.69343 0.0
O357 O 0.21754 0.63269 0.6604 0.0
O358 O 0.27047 0.52598 0.58915 0.0
O359 O 0.30875 0.56387 0.59521 0.0
C360 C 0.30017 0.53446 0.59105 0.0
C361 C 0.31151 0.62295 0.67869 0.0
O362 O 0.20738 0.52797 0.63954 0.0
O363 O 0.20254 0.51184 0.49949 0.0
O364 O 0.21726 0.55199 0.687 0.0
O365 O 0.21816 0.46637 0.56162 0.0
O366 O 0.15419 0.51922 0.52235 0.0
O367 O 0.17134 0.47199 0.58635 0.0
O368 O 0.25161 0.59339 0.56205 0.0
O369 O 0.25859 0.55881 0.52252 0.0
C370 C 0.21933 0.65252 0.63747 0.0
C371 C 0.15349 0.58547 0.60584 0.0
C372 C 0.93953 0.76566 0.61213 0.0
C373 C 0.005 0.68484 0.55261 0.0
C374 C 0.93081 0.69114 0.47765 0.0
Mg375 Mg 0.86587 0.76878 0.62447 0.0
Mg376 Mg 0.80723 0.72565 0.59269 0.0
O377 O 0.84673 0.74549 0.58706 0.0
Mg378 Mg 0.88707 0.72355 0.57396 0.0
O379 O 0.92876 0.70539 0.56195 0.0
Mg380 Mg 0.94852 0.74187 0.53938 0.0
Mg381 Mg 0.93391 0.66448 0.54557 0.0
C382 C 0.82812 0.69003 0.52906 0.0
O383 O 0.88033 0.68004 0.60595 0.0
O384 O 0.81677 0.79234 0.63245 0.0
O385 O 0.90287 0.63953 0.5784 0.0
O386 O 0.8512 0.72654 0.66047 0.0
O387 O 0.77812 0.76647 0.60565 0.0
O388 O 0.8143 0.69782 0.63419 0.0
O389 O 0.8967 0.76705 0.5426 0.0
O390 O 0.87939 0.80111 0.58146 0.0
C391 C 0.88962 0.79548 0.55266 0.0
C392 C 0.78761 0.78956 0.62347 0.0
O393 O 0.85765 0.69736 0.53415 0.0
O394 O 0.99776 0.71359 0.54442 0.0
O395 O 0.80551 0.69841 0.54824 0.0
O396 O 0.93877 0.71818 0.48958 0.0
O397 O 0.98403 0.66279 0.55493 0.0
O398 O 0.92609 0.66691 0.49533 0.0
O399 O 0.91418 0.74859 0.6142 0.0
O400 O 0.95716 0.7646 0.58721 0.0
C401 C 0.83204 0.70243 0.65861 0.0
C402 C 0.8869 0.65046 0.60231 0.0
C403 C 0.55546 0.22268 0.09885 0.0
C404 C 0.50222 0.31822 0.04669 0.0
C405 C 0.56436 0.30231 0.96551 0.0
Mg406 Mg 0.6276 0.20824 0.10645 0.0
Mg407 Mg 0.68615 0.25639 0.08781 0.0
O408 O 0.64875 0.23706 0.07426 0.0
Mg409 Mg 0.61008 0.26346 0.06311 0.0
O410 O 0.57057 0.28582 0.0523 0.0
Mg411 Mg 0.54551 0.25305 0.02875 0.0
Mg412 Mg 0.57502 0.32558 0.03316 0.0
C413 C 0.67097 0.29928 0.02779 0.0
O414 O 0.61892 0.30526 0.09872 0.0
O415 O 0.67689 0.18158 0.11175 0.0
O416 O 0.60856 0.3469 0.0664 0.0
O417 O 0.64011 0.24011 0.15084 0.0
O418 O 0.71526 0.21505 0.09477 0.0
O419 O 0.67398 0.27694 0.13252 0.0
O420 O 0.59571 0.22471 0.02704 0.0
O421 O 0.61289 0.18422 0.05836 0.0
C422 C 0.60138 0.19488 0.03165 0.0
C423 C 0.70639 0.18803 0.10568 0.0
O424 O 0.64135 0.29098 0.02748 0.0
O425 O 0.50239 0.28807 0.04027 0.0
O426 O 0.69093 0.28943 0.04895 0.0
O427 O 0.55231 0.27777 0.979 0.0
O428 O 0.52696 0.33583 0.04361 0.0
O429 O 0.57853 0.32362 0.98203 0.0
O430 O 0.58259 0.23616 0.09989 0.0
O431 O 0.53648 0.22719 0.07542 0.0
C432 C 0.6561 0.26588 0.15453 0.0
C433 C 0.61763 0.33541 0.09341 0.0
C434 C 0.38364 0.7056 0.45245 0.0
C435 C 0.29088 0.69787 0.37224 0.0
C436 C 0.3362 0.78427 0.33264 0.0
Mg437 Mg 0.44039 0.7613 0.46436 0.0
Mg438 Mg 0.42496 0.83705 0.44715 0.0
O439 O 0.42305 0.79436 0.43516 0.0
Mg440 Mg 0.38335 0.77367 0.42132 0.0
O441 O 0.34542 0.74871 0.40738 0.0
Mg442 Mg 0.36833 0.72193 0.37499 0.0
Mg443 Mg 0.30528 0.76467 0.39712 0.0
C444 C 0.38584 0.84285 0.38321 0.0
O445 O 0.34882 0.80375 0.45499 0.0
O446 O 0.48908 0.78954 0.46148 0.0
O447 O 0.29828 0.79583 0.43764 0.0
O448 O 0.42503 0.79088 0.50899 0.0
O449 O 0.47574 0.83867 0.4443 0.0
O450 O 0.411 0.84059 0.49622 0.0
O451 O 0.4155 0.74354 0.38736 0.0
O452 O 0.45508 0.73292 0.42129 0.0
C453 C 0.4408 0.7276 0.39482 0.0
C454 C 0.49663 0.81741 0.45118 0.0
O455 O 0.37943 0.81301 0.38312 0.0
O456 O 0.32061 0.69605 0.36504 0.0
O457 O 0.39926 0.85704 0.40692 0.0
O458 O 0.35669 0.76108 0.33406 0.0
O459 O 0.27907 0.72171 0.38739 0.0
O460 O 0.31528 0.78867 0.35439 0.0
O461 O 0.38977 0.73514 0.45893 0.0
O462 O 0.37733 0.6959 0.42351 0.0
C463 C 0.41509 0.8187 0.51694 0.0
C464 C 0.31833 0.80871 0.45702 0.0
C465 C 0.09845 0.30095 0.96242 0.0
C466 C 0.18968 0.29714 0.87593 0.0
C467 C 0.12639 0.22628 0.8322 0.0
Mg468 Mg 0.04161 0.25061 0.98015 0.0
Mg469 Mg 0.05502 0.17456 0.97081 0.0
O470 O 0.05394 0.21449 0.95147 0.0
Mg471 Mg 0.09307 0.23131 0.93136 0.0
O472 O 0.13146 0.25256 0.91253 0.0
Mg473 Mg 0.10952 0.28533 0.88499 0.0
Mg474 Mg 0.16534 0.23032 0.89486 0.0
C475 C 0.08581 0.15862 0.90331 0.0
O476 O 0.12661 0.19893 0.96084 0.0
O477 O 0.99205 0.2247 0.98233 0.0
O478 O 0.17231 0.19556 0.93214 0.0
O479 O 0.05791 0.22599 0.02643 0.0
O480 O 0.00432 0.17316 0.97257 0.0
O481 O 0.07348 0.176 0.01881 0.0
O482 O 0.06171 0.26316 0.89949 0.0
O483 O 0.0252 0.2749 0.93654 0.0
C484 C 0.0363 0.27793 0.90838 0.0
C485 C 0.98395 0.1957 0.97637 0.0
O486 O 0.09062 0.18806 0.89613 0.0
O487 O 0.16046 0.30654 0.87309 0.0
O488 O 0.07681 0.14953 0.93124 0.0
O489 O 0.11267 0.253 0.83855 0.0
O490 O 0.19709 0.26916 0.88556 0.0
O491 O 0.14595 0.21311 0.85151 0.0
O492 O 0.0925 0.27154 0.96827 0.0
O493 O 0.10578 0.31089 0.93412 0.0
C494 C 0.06888 0.19979 0.0373 0.0
C495 C 0.15464 0.18724 0.95579 0.0
C496 C 0.58576 0.9609 0.77256 0.0
C497 C 0.52286 0.04539 0.71083 0.0
C498 C 0.45316 0.96473 0.69633 0.0
Mg499 Mg 0.59355 0.88804 0.75698 0.0
Mg500 Mg 0.56104 0.8459 0.69838 0.0
O501 O 0.5563 0.87809 0.7285 0.0
Mg502 Mg 0.5455 0.92274 0.71813 0.0
O503 O 0.53633 0.96808 0.71199 0.0
Mg504 Mg 0.51229 0.97637 0.75216 0.0
Mg505 Mg 0.51889 0.98227 0.67366 0.0
C506 C 0.49928 0.87717 0.66971 0.0
O507 O 0.57743 0.92557 0.67393 0.0
O508 O 0.59632 0.83451 0.76582 0.0
O509 O 0.55497 0.96334 0.64279 0.0
O510 O 0.63122 0.88082 0.71508 0.0
O511 O 0.57013 0.80593 0.72869 0.0
O512 O 0.60419 0.85728 0.67511 0.0
O513 O 0.51328 0.92094 0.7629 0.0
O514 O 0.55177 0.89548 0.79104 0.0
C515 C 0.52315 0.9069 0.78861 0.0
C516 C 0.58661 0.80785 0.75446 0.0
O517 O 0.50496 0.90366 0.68429 0.0
O518 O 0.51952 0.03032 0.73747 0.0
O519 O 0.51762 0.85278 0.67192 0.0
O520 O 0.4627 0.97109 0.72496 0.0
O521 O 0.52074 0.03161 0.6836 0.0
O522 O 0.47224 0.96499 0.67265 0.0
O523 O 0.58686 0.94055 0.74951 0.0
O524 O 0.56071 0.97793 0.77727 0.0
C525 C 0.62978 0.86937 0.68642 0.0
C526 C 0.57641 0.94228 0.64838 0.0
C527 C 0.90231 0.04813 0.28351 0.0
C528 C 0.97343 0.97742 0.21019 0.0
C529 C 0.04103 0.05136 0.218 0.0
Mg530 Mg 0.89033 0.12153 0.28036 0.0
Mg531 Mg 0.9136 0.1691 0.22157 0.0
O532 O 0.92484 0.13708 0.25031 0.0
Mg533 Mg 0.93911 0.09407 0.23449 0.0
O534 O 0.95298 0.05073 0.22241 0.0
Mg535 Mg 0.975 0.03719 0.26275 0.0
Mg536 Mg 0.97678 0.04726 0.18464 0.0
C537 C 0.979 0.14613 0.18964 0.0
O538 O 0.90827 0.09371 0.18893 0.0
O539 O 0.8817 0.17426 0.29513 0.0
O540 O 0.94211 0.07097 0.15323 0.0
O541 O 0.84975 0.12623 0.24192 0.0
O542 O 0.90053 0.20581 0.25601 0.0
O543 O 0.87065 0.15169 0.19983 0.0
O544 O 0.97069 0.09115 0.27864 0.0
O545 O 0.93527 0.11461 0.31218 0.0
C546 C 0.96311 0.10236 0.30633 0.0
C547 C 0.88707 0.20196 0.28339 0.0
O548 O 0.97713 0.11908 0.20379 0.0
O549 O 0.97328 0.98642 0.23972 0.0
O550 O 0.95744 0.16791 0.19257 0.0
O551 O 0.02543 0.04296 0.24275 0.0
O552 O 0.9752 0.99676 0.18658 0.0
O553 O 0.02653 0.05943 0.19237 0.0
O554 O 0.90042 0.07167 0.26441 0.0
O555 O 0.92694 0.03031 0.28406 0.0
C556 C 0.84778 0.13648 0.21305 0.0
C557 C 0.91561 0.08504 0.16032 0.0
C558 C 0.03404 0.58766 0.20226 0.0
C559 C 0.10684 0.68362 0.24166 0.0
C560 C 0.1373 0.61624 0.31152 0.0
Mg561 Mg 0.01557 0.5217 0.24327 0.0
Mg562 Mg 0.00308 0.5328 0.31912 0.0
O563 O 0.03317 0.5339 0.28599 0.0
Mg564 Mg 0.0479 0.57698 0.27691 0.0
O565 O 0.0645 0.6196 0.26468 0.0
Mg566 Mg 0.1026 0.60394 0.23917 0.0
Mg567 Mg 0.0737 0.64873 0.29694 0.0
C568 C 0.06127 0.56567 0.35282 0.0
O569 O 0.00669 0.60279 0.30511 0.0
O570 O 0.01884 0.47185 0.2693 0.0
O571 O 0.02828 0.64947 0.3208 0.0
O572 O 0.96246 0.53038 0.25814 0.0
O573 O 0.99516 0.48263 0.31612 0.0
O574 O 0.96081 0.55615 0.30447 0.0
O575 O 0.09011 0.55403 0.25109 0.0
O576 O 0.0659 0.51439 0.22565 0.0
C577 C 0.09047 0.5317 0.23027 0.0
C578 C 0.01302 0.4648 0.29878 0.0
O579 O 0.07286 0.57454 0.3258 0.0
O580 O 0.11277 0.65654 0.22857 0.0
O581 O 0.03357 0.55284 0.35569 0.0
O582 O 0.13852 0.60746 0.28206 0.0
O583 O 0.09106 0.68654 0.2678 0.0
O584 O 0.11265 0.62988 0.3232 0.0
O585 O 0.02163 0.57632 0.22817 0.0
O586 O 0.06282 0.59871 0.20139 0.0
C587 C 0.94691 0.54602 0.27944 0.0
C588 C 0.00519 0.62943 0.3205 0.0
C589 C 0.46006 0.3935 0.69624 0.0
C590 C 0.37255 0.30053 0.70009 0.0
C591 C 0.33528 0.35734 0.77708 0.0
Mg592 Mg 0.47259 0.45224 0.74902 0.0
Mg593 Mg 0.46607 0.43334 0.826 0.0
O594 O 0.44759 0.43386 0.78547 0.0
Mg595 Mg 0.43198 0.39378 0.76693 0.0
O596 O 0.41528 0.35499 0.74407 0.0
Mg597 Mg 0.38374 0.37825 0.71543 0.0
Mg598 Mg 0.39875 0.32087 0.76699 0.0
C599 C 0.40239 0.3953 0.83925 0.0
O600 O 0.46568 0.36032 0.79707 0.0
O601 O 0.46979 0.50001 0.77855 0.0
O602 O 0.43936 0.31347 0.79913 0.0
O603 O 0.52123 0.44117 0.7728 0.0
O604 O 0.46253 0.48362 0.82956 0.0
O605 O 0.51598 0.42127 0.82189 0.0
O606 O 0.39692 0.4238 0.73862 0.0
O607 O 0.42648 0.46495 0.72413 0.0
C608 C 0.40068 0.44903 0.72222 0.0
C609 C 0.46407 0.50559 0.80842 0.0
O610 O 0.39755 0.39088 0.80925 0.0
O611 O 0.37109 0.33002 0.69249 0.0
O612 O 0.42859 0.40674 0.8506 0.0
O613 O 0.33975 0.37173 0.75035 0.0
O614 O 0.38395 0.29106 0.72702 0.0
O615 O 0.35629 0.33868 0.78888 0.0
O616 O 0.46703 0.40043 0.72554 0.0
O617 O 0.43149 0.38518 0.68758 0.0
C618 C 0.53346 0.42987 0.7984 0.0
C619 C 0.46291 0.33148 0.80732 0.0
C620 C 0.65028 0.59289 0.90777 0.0
C621 C 0.69234 0.67074 0.82955 0.0
C622 C 0.7603 0.60155 0.79862 0.0
Mg623 Mg 0.68111 0.53464 0.94545 0.0
Mg624 Mg 0.75855 0.53233 0.96139 0.0
O625 O 0.72616 0.53348 0.92966 0.0
Mg626 Mg 0.72359 0.57108 0.90089 0.0
O627 O 0.71774 0.60838 0.87277 0.0
Mg628 Mg 0.68862 0.5916 0.83895 0.0
Mg629 Mg 0.74909 0.6369 0.8613 0.0
C630 C 0.79641 0.54372 0.89607 0.0
O631 O 0.75159 0.60249 0.93626 0.0
O632 O 0.69357 0.48589 0.96718 0.0
O633 O 0.77528 0.63928 0.90497 0.0
O634 O 0.69319 0.56016 0.99261 0.0
O635 O 0.74687 0.48498 0.97609 0.0
O636 O 0.74563 0.56379 0.00163 0.0
O637 O 0.6976 0.54142 0.86214 0.0
O638 O 0.6698 0.51207 0.89708 0.0
C639 C 0.67759 0.519 0.86823 0.0
C640 C 0.71932 0.47162 0.9761 0.0
O641 O 0.77165 0.55577 0.88253 0.0
O642 O 0.68003 0.64336 0.82371 0.0
O643 O 0.79774 0.53717 0.92623 0.0
O644 O 0.73158 0.59024 0.80035 0.0
O645 O 0.71851 0.67421 0.84514 0.0
O646 O 0.77266 0.61691 0.82182 0.0
O647 O 0.67562 0.58306 0.92153 0.0
O648 O 0.64936 0.59807 0.87754 0.0
C649 C 0.71664 0.56997 0.00953 0.0
C650 C 0.7719 0.62493 0.93173 0.0
C651 C 0.17336 0.96479 0.13127 0.0
C652 C 0.18386 0.01212 0.01869 0.0
C653 C 0.20454 0.91381 0.98943 0.0
Mg654 Mg 0.20232 0.89803 0.16206 0.0
Mg655 Mg 0.26485 0.85872 0.13342 0.0
O656 O 0.231 0.88588 0.12619 0.0
Mg657 Mg 0.22441 0.92038 0.09496 0.0
O658 O 0.21381 0.95509 0.06438 0.0
Mg659 Mg 0.16855 0.94292 0.05568 0.0
Mg660 Mg 0.24057 0.96458 0.02935 0.0
C661 C 0.27935 0.87382 0.0609 0.0
O662 O 0.26821 0.94801 0.10598 0.0
O663 O 0.20377 0.84665 0.17917 0.0
O664 O 0.28172 0.97513 0.06123 0.0
O665 O 0.24821 0.90617 0.1956 0.0
O666 O 0.23956 0.81804 0.15106 0.0
O667 O 0.2888 0.87969 0.1723 0.0
O668 O 0.17816 0.89575 0.08139 0.0
O669 O 0.16096 0.88261 0.12996 0.0
C670 C 0.15764 0.88247 0.09954 0.0
C671 C 0.21647 0.82001 0.17113 0.0
O672 O 0.25524 0.89269 0.05769 0.0
O673 O 0.16402 0.99224 0.03096 0.0
O674 O 0.28674 0.86044 0.0874 0.0
O675 O 0.18155 0.91894 0.00887 0.0
O676 O 0.21378 0.00595 0.01571 0.0
O677 O 0.2318 0.92745 0.99276 0.0
O678 O 0.19873 0.94804 0.13607 0.0
O679 O 0.15939 0.96544 0.10397 0.0
C680 C 0.27725 0.89526 0.19589 0.0
C681 C 0.28542 0.96832 0.09112 0.0
C682 C 0.18502 0.04058 0.59815 0.0
C683 C 0.18316 0.11779 0.69511 0.0
C684 C 0.27268 0.15108 0.65027 0.0
Mg685 Mg 0.23883 0.02587 0.54064 0.0
Mg686 Mg 0.31613 0.02997 0.55676 0.0
O687 O 0.27597 0.04827 0.56077 0.0
Mg688 Mg 0.2572 0.06397 0.60133 0.0
O689 O 0.23266 0.08012 0.63937 0.0
Mg690 Mg 0.20805 0.1147 0.61764 0.0
Mg691 Mg 0.24846 0.08825 0.67966 0.0
C692 C 0.33334 0.08849 0.60103 0.0
O693 O 0.28074 0.02654 0.63535 0.0
O694 O 0.26724 0.02799 0.49206 0.0
O695 O 0.27374 0.04451 0.68598 0.0
O696 O 0.26189 0.97581 0.55066 0.0
O697 O 0.31859 0.03691 0.50618 0.0
O698 O 0.31271 0.9803 0.56647 0.0
O699 O 0.23265 0.10214 0.57162 0.0
O700 O 0.21672 0.07356 0.52966 0.0
C701 C 0.21625 0.0993 0.54592 0.0
C702 C 0.29651 0.03454 0.48503 0.0
O703 O 0.30378 0.09508 0.60736 0.0
O704 O 0.1811 0.1258 0.66555 0.0
O705 O 0.34206 0.06308 0.58622 0.0
O706 O 0.24866 0.15241 0.63087 0.0
O707 O 0.20638 0.10104 0.70578 0.0
O708 O 0.27646 0.12832 0.67001 0.0
O709 O 0.21413 0.03227 0.59186 0.0
O710 O 0.17737 0.06951 0.60615 0.0
C711 C 0.2885 0.96319 0.55949 0.0
C712 C 0.2842 0.02374 0.66596 0.0
C713 C 0.68642 0.45398 0.39792 0.0
C714 C 0.69773 0.38077 0.29528 0.0
C715 C 0.77723 0.34122 0.34874 0.0
Mg716 Mg 0.73658 0.46439 0.45992 0.0
Mg717 Mg 0.8128 0.46862 0.44116 0.0
O718 O 0.77536 0.44467 0.44002 0.0
Mg719 Mg 0.75897 0.43084 0.39801 0.0
O720 O 0.7382 0.41638 0.35726 0.0
Mg721 Mg 0.71113 0.38125 0.37512 0.0
Mg722 Mg 0.76162 0.40714 0.32092 0.0
C723 C 0.83512 0.4108 0.39825 0.0
O724 O 0.78398 0.47075 0.36868 0.0
O725 O 0.76609 0.46049 0.50815 0.0
O726 O 0.78736 0.45119 0.31836 0.0
O727 O 0.75477 0.51589 0.45287 0.0
O728 O 0.8174 0.46111 0.49092 0.0
O729 O 0.80443 0.51852 0.43423 0.0
O730 O 0.73291 0.39056 0.42346 0.0
O731 O 0.71652 0.41536 0.46759 0.0
C732 C 0.71618 0.3912 0.44906 0.0
C733 C 0.79651 0.4579 0.51311 0.0
O734 O 0.80619 0.40167 0.39277 0.0
O735 O 0.68992 0.37341 0.32405 0.0
O736 O 0.84166 0.43789 0.41111 0.0
O737 O 0.75028 0.34159 0.36377 0.0
O738 O 0.72369 0.39546 0.28866 0.0
O739 O 0.78691 0.36511 0.33273 0.0
O740 O 0.71489 0.46094 0.40725 0.0
O741 O 0.67939 0.42619 0.38636 0.0
C742 C 0.77873 0.53218 0.44338 0.0
C743 C 0.79261 0.47315 0.33914 0.0
H744 H 0.04183 0.40618 0.28661 0.0
H745 H 0.04295 0.48665 0.35139 0.0
H746 H 0.08167 0.4603 0.38529 0.0
H747 H 0.1089 0.41184 0.40137 0.0
H748 H 0.10557 0.32903 0.34003 0.0
H749 H 0.07609 0.35905 0.29975 0.0
C750 C 0.05077 0.41786 0.30803 0.0
C751 C 0.03843 0.44783 0.31699 0.0
C752 C 0.07312 0.40223 0.32813 0.0
C753 C 0.05092 0.46304 0.34447 0.0
C754 C 0.07344 0.44814 0.36385 0.0
C755 C 0.10261 0.40056 0.37879 0.0
C756 C 0.10928 0.36807 0.37415 0.0
C757 C 0.08383 0.41732 0.3566 0.0
C758 C 0.10114 0.35407 0.34444 0.0
C759 C 0.08354 0.37109 0.32152 0.0
H760 H 0.44387 0.64605 0.85763 0.0
H761 H 0.37705 0.59685 0.91859 0.0
H762 H 0.38586 0.54757 0.88843 0.0
H763 H 0.41734 0.51759 0.84994 0.0
H764 H 0.48669 0.56464 0.79014 0.0
H765 H 0.47181 0.61624 0.81431 0.0
C766 C 0.43068 0.62465 0.86361 0.0
C767 C 0.40967 0.62477 0.88998 0.0
C768 C 0.43673 0.59623 0.84682 0.0
C769 C 0.39307 0.59706 0.89815 0.0
C770 C 0.39826 0.56898 0.88109 0.0
C771 C 0.42922 0.53917 0.8421 0.0
C772 C 0.45372 0.53744 0.81907 0.0
C773 C 0.42088 0.56812 0.85626 0.0
C774 C 0.4681 0.56553 0.80822 0.0
C775 C 0.45963 0.59487 0.82207 0.0
H776 H 0.50519 0.10091 0.68301 0.0
H777 H 0.58242 0.05478 0.73308 0.0
H778 H 0.6214 0.08758 0.70492 0.0
H779 H 0.63341 0.1214 0.65746 0.0
H780 H 0.55554 0.17027 0.61103 0.0
H781 H 0.51709 0.14523 0.64657 0.0
C782 C 0.53039 0.09953 0.68926 0.0
C783 C 0.5409 0.07543 0.70996 0.0
C784 C 0.55271 0.11825 0.67265 0.0
C785 C 0.57368 0.07351 0.71753 0.0
C786 C 0.59611 0.09181 0.70084 0.0
C787 C 0.60809 0.12689 0.65561 0.0
C788 C 0.59707 0.14633 0.63059 0.0
C789 C 0.58596 0.11292 0.67692 0.0
C790 C 0.56438 0.15416 0.62905 0.0
C791 C 0.54235 0.14008 0.64963 0.0
H792 H 0.90329 0.8658 0.14418 0.0
H793 H 0.98709 0.87408 0.0842 0.0
H794 H 0.01222 0.90901 0.12304 0.0
H795 H 0.00803 0.94252 0.17006 0.0
H796 H 0.9229 0.9407 0.22801 0.0
H797 H 0.90083 0.89786 0.19465 0.0
C798 C 0.927 0.87534 0.13985 0.0
C799 C 0.94293 0.86816 0.11107 0.0
C800 C 0.94128 0.89619 0.16219 0.0
C801 C 0.97388 0.88018 0.10574 0.0
C802 C 0.98853 0.8998 0.12811 0.0
C803 C 0.98532 0.93155 0.17623 0.0
C804 C 0.9672 0.94427 0.20138 0.0
C805 C 0.97222 0.9085 0.156 0.0
C806 C 0.93755 0.93059 0.20909 0.0
C807 C 0.92471 0.90651 0.18965 0.0
H808 H 0.33074 0.08502 0.46714 0.0
H809 H 0.28176 0.00291 0.42923 0.0
H810 H 0.30504 0.01291 0.37609 0.0
H811 H 0.34652 0.03996 0.34364 0.0
H812 H 0.39677 0.12045 0.38324 0.0
H813 H 0.36508 0.11698 0.43244 0.0
C814 C 0.32479 0.06964 0.44704 0.0
C815 C 0.30527 0.04289 0.45196 0.0
C816 C 0.33836 0.07546 0.41699 0.0
C817 C 0.29702 0.02345 0.42586 0.0
C818 C 0.31038 0.02915 0.39561 0.0
C819 C 0.34946 0.05743 0.36264 0.0
C820 C 0.37347 0.08067 0.36004 0.0
C821 C 0.33203 0.05439 0.39126 0.0
C822 C 0.37796 0.10278 0.38482 0.0
C823 C 0.36016 0.10051 0.41299 0.0
H824 H 0.21697 0.92279 0.9256 0.0
H825 H 0.17336 0.8579 0.99226 0.0
H826 H 0.14063 0.8353 0.94957 0.0
H827 H 0.11493 0.84403 0.89719 0.0
H828 H 0.15929 0.9071 0.8294 0.0
H829 H 0.20118 0.92011 0.86824 0.0
C830 C 0.20144 0.9027 0.93039 0.0
C831 C 0.197 0.89255 0.96212 0.0
C832 C 0.182 0.89016 0.9057 0.0
C833 C 0.17677 0.86646 0.96803 0.0
C834 C 0.15775 0.85373 0.94371 0.0
C835 C 0.13449 0.85964 0.89059 0.0
C836 C 0.13387 0.87491 0.86078 0.0
C837 C 0.15858 0.86694 0.91301 0.0
C838 C 0.15932 0.89507 0.85232 0.0
C839 C 0.18317 0.90272 0.87462 0.0
H840 H 0.8416 0.41391 0.51943 0.0
H841 H 0.77968 0.47497 0.57511 0.0
H842 H 0.81007 0.46144 0.62387 0.0
H843 H 0.85983 0.43932 0.64791 0.0
H844 H 0.92408 0.38359 0.58924 0.0
H845 H 0.88708 0.38774 0.54398 0.0
C846 C 0.83452 0.42406 0.54234 0.0
C847 C 0.80911 0.44604 0.54378 0.0
C848 C 0.85272 0.41725 0.56945 0.0
C849 C 0.79943 0.45827 0.57355 0.0
C850 C 0.81694 0.4507 0.60123 0.0
C851 C 0.86515 0.4275 0.62536 0.0
C852 C 0.89434 0.41105 0.62156 0.0
C853 C 0.84446 0.4313 0.59912 0.0
C854 C 0.9016 0.39618 0.59239 0.0
C855 C 0.88056 0.39867 0.56664 0.0
H856 H 0.67188 0.61572 0.01748 0.0
H857 H 0.74238 0.56158 0.06944 0.0
H858 H 0.71788 0.57811 0.12038 0.0
H859 H 0.66932 0.59839 0.14868 0.0
H860 H 0.59851 0.6508 0.09528 0.0
H861 H 0.63059 0.64559 0.0467 0.0
C862 C 0.6825 0.60838 0.04003 0.0
C863 C 0.70864 0.58713 0.03972 0.0
C864 C 0.668 0.61762 0.06906 0.0
C865 C 0.7223 0.57796 0.06904 0.0
C866 C 0.70808 0.58721 0.09818 0.0
C867 C 0.6618 0.61002 0.12676 0.0
C868 C 0.63153 0.625 0.12557 0.0
C869 C 0.67994 0.60577 0.09841 0.0
C870 C 0.62178 0.63942 0.09684 0.0
C871 C 0.63993 0.63602 0.06892 0.0
H872 H 0.4039 0.41233 0.10788 0.0
H873 H 0.33641 0.34275 0.07387 0.0
H874 H 0.3804 0.30609 0.06049 0.0
H875 H 0.43872 0.29914 0.04883 0.0
H876 H 0.50422 0.37168 0.08247 0.0
H877 H 0.46064 0.40158 0.10535 0.0
C878 C 0.3989 0.38863 0.09865 0.0
C879 C 0.36746 0.38021 0.09138 0.0
C880 C 0.42407 0.36858 0.08987 0.0
C881 C 0.36077 0.34953 0.07964 0.0
C882 C 0.3859 0.32885 0.07149 0.0
C883 C 0.44333 0.32131 0.06139 0.0
C884 C 0.47457 0.33369 0.06252 0.0
C885 C 0.41779 0.33895 0.07476 0.0
C886 C 0.4803 0.36207 0.0798 0.0
C887 C 0.45542 0.37921 0.09338 0.0
H888 H 0.97223 0.17493 0.91791 0.0
H889 H 0.92488 0.20146 0.00579 0.0
H890 H 0.87428 0.17928 0.98517 0.0
H891 H 0.84754 0.14334 0.94653 0.0
H892 H 0.89875 0.11032 0.86317 0.0
H893 H 0.94386 0.145 0.87674 0.0
C894 C 0.95058 0.17636 0.93227 0.0
C895 C 0.95201 0.1891 0.96343 0.0
C896 C 0.92247 0.16255 0.9208 0.0
C897 C 0.92409 0.19148 0.98183 0.0
C898 C 0.89537 0.1787 0.97006 0.0
C899 C 0.86811 0.14496 0.93072 0.0
C900 C 0.86991 0.1251 0.90355 0.0
C901 C 0.89474 0.16297 0.94016 0.0
C902 C 0.89685 0.12609 0.8837 0.0
C903 C 0.92268 0.14552 0.89176 0.0
H904 H 0.6408 0.8595 0.4441 0.0
H905 H 0.60314 0.91041 0.36293 0.0
H906 H 0.55242 0.88178 0.36751 0.0
H907 H 0.51646 0.84993 0.40012 0.0
H908 H 0.55176 0.8012 0.48374 0.0
H909 H 0.60604 0.82112 0.47282 0.0
C910 C 0.62178 0.8633 0.4268 0.0
C911 C 0.62542 0.88664 0.40303 0.0
C912 C 0.59221 0.84786 0.43064 0.0
C913 C 0.6007 0.89219 0.38108 0.0
C914 C 0.57169 0.87612 0.38396 0.0
C915 C 0.53612 0.84343 0.41584 0.0
C916 C 0.53016 0.82495 0.44319 0.0
C917 C 0.56675 0.85519 0.40958 0.0
C918 C 0.55584 0.8158 0.46281 0.0
C919 C 0.58676 0.82722 0.45656 0.0
H920 H 0.02043 0.65048 0.60408 0.0
H921 H 0.06293 0.70089 0.52517 0.0
H922 H 0.11577 0.6788 0.5392 0.0
H923 H 0.1475 0.63818 0.56892 0.0
H924 H 0.10279 0.58651 0.64583 0.0
H925 H 0.0533 0.6167 0.6383 0.0
C926 C 0.04137 0.65698 0.59018 0.0
C927 C 0.03782 0.67666 0.56321 0.0
C928 C 0.07124 0.64401 0.59822 0.0
C929 C 0.06513 0.68555 0.54585 0.0
C930 C 0.09524 0.67282 0.55384 0.0
C931 C 0.12724 0.63451 0.58474 0.0
C932 C 0.12869 0.61037 0.60808 0.0
C933 C 0.09835 0.65111 0.57931 0.0
C934 C 0.10219 0.60519 0.628 0.0
C935 C 0.07384 0.6222 0.62345 0.0
H936 H 0.91335 0.52841 0.67422 0.0
H937 H 0.99336 0.58485 0.70615 0.0
H938 H 0.96585 0.63351 0.68803 0.0
H939 H 0.92516 0.6569 0.6524 0.0
H940 H 0.85085 0.59766 0.61281 0.0
H941 H 0.86877 0.5531 0.646 0.0
C942 C 0.92445 0.55153 0.6777 0.0
C943 C 0.9555 0.55341 0.69054 0.0
C944 C 0.90917 0.57868 0.66611 0.0
C945 C 0.96962 0.58315 0.69583 0.0
C946 C 0.9539 0.61077 0.68544 0.0
C947 C 0.91205 0.6346 0.65236 0.0
C948 C 0.88674 0.63021 0.63056 0.0
C949 C 0.92445 0.60852 0.6691 0.0
C950 C 0.87013 0.60135 0.6298 0.0
C951 C 0.88076 0.57586 0.64831 0.0
H952 H 0.56044 0.43129 0.19137 0.0
H953 H 0.61517 0.49494 0.13163 0.0
H954 H 0.64214 0.45036 0.10666 0.0
H955 H 0.64364 0.39379 0.09465 0.0
H956 H 0.58871 0.3285 0.15159 0.0
H957 H 0.56967 0.37256 0.18534 0.0
C958 C 0.57858 0.43527 0.17326 0.0
C959 C 0.58473 0.46644 0.1626 0.0
C960 C 0.59423 0.40911 0.15841 0.0
C961 C 0.60889 0.4712 0.13951 0.0
C962 C 0.62469 0.44569 0.12529 0.0
C963 C 0.62851 0.38911 0.11525 0.0
C964 C 0.61748 0.35812 0.12051 0.0
C965 C 0.61662 0.41459 0.13353 0.0
C966 C 0.59775 0.35225 0.14718 0.0
C967 C 0.58639 0.37754 0.16616 0.0
H968 H 0.39812 0.95488 0.29083 0.0
H969 H 0.49175 0.91285 0.2809 0.0
H970 H 0.47198 0.86316 0.30446 0.0
H971 H 0.43263 0.83857 0.3405 0.0
H972 H 0.34322 0.88622 0.35971 0.0
H973 H 0.35583 0.92647 0.31927 0.0
C974 C 0.41372 0.93423 0.29258 0.0
C975 C 0.44622 0.93718 0.2843 0.0
C976 C 0.40281 0.90704 0.30841 0.0
C977 C 0.46659 0.91079 0.28687 0.0
C978 C 0.45534 0.88265 0.30077 0.0
C979 C 0.41544 0.85712 0.33471 0.0
C980 C 0.38702 0.85965 0.3526 0.0
C981 C 0.42416 0.88141 0.31352 0.0
C982 C 0.36506 0.88392 0.34587 0.0
C983 C 0.37247 0.90699 0.32303 0.0
H984 H 0.10992 0.10044 0.90995 0.0
H985 H 0.06021 0.16021 0.8427 0.0
H986 H 0.0451 0.11312 0.81094 0.0
H987 H 0.03923 0.05384 0.80758 0.0
H988 H 0.0857 0.99634 0.87983 0.0
H989 H 0.10805 0.04329 0.90447 0.0
C990 C 0.09655 0.10319 0.88779 0.0
C991 C 0.08625 0.13353 0.87857 0.0
C992 C 0.08631 0.07616 0.87112 0.0
C993 C 0.06878 0.13698 0.84999 0.0
C994 C 0.05965 0.11 0.8322 0.0
C995 C 0.05428 0.05171 0.82864 0.0
C996 C 0.05991 0.0215 0.84218 0.0
C997 C 0.06702 0.07928 0.8434 0.0
C998 C 0.07997 0.01918 0.86926 0.0
C999 C 0.09321 0.04606 0.88332 0.0
H1000 H 0.67308 0.92746 0.53655 0.0
H1001 H 0.68966 0.02594 0.56032 0.0
H1002 H 0.6578 0.02012 0.60943 0.0
H1003 H 0.61706 0.98968 0.6387 0.0
H1004 H 0.59527 0.89347 0.61033 0.0
H1005 H 0.63756 0.89519 0.56947 0.0
C1006 C 0.67056 0.94723 0.55324 0.0
C1007 C 0.68332 0.97701 0.54544 0.0
C1008 C 0.65081 0.94409 0.57988 0.0
C1009 C 0.68009 0.00281 0.56648 0.0
C1010 C 0.66157 -0.00047 0.59412 0.0
C1011 C 0.62217 0.96902 0.6238 0.0
C1012 C 0.60368 0.94142 0.62696 0.0
C1013 C 0.64549 0.97078 0.59999 0.0
C1014 C 0.60987 0.91462 0.60806 0.0
C1015 C 0.63376 0.91576 0.58479 0.0
H1016 H 0.85958 0.05345 0.1549 0.0
H1017 H 0.91916 0.12301 0.10843 0.0
H1018 H 0.88496 0.12104 0.06082 0.0
H1019 H 0.84443 0.09321 0.02984 0.0
H1020 H 0.78848 0.01854 0.07265 0.0
H1021 H 0.81414 0.02924 0.12477 0.0
C1022 C 0.86442 0.06867 0.13453 0.0
C1023 C 0.89165 0.0884 0.13483 0.0
C1024 C 0.8455 0.06617 0.1067 0.0
C1025 C 0.89824 0.10778 0.10846 0.0
C1026 C 0.87879 0.10653 0.08133 0.0
C1027 C 0.83741 0.07961 0.05075 0.0
C1028 C 0.81508 0.05474 0.04744 0.0
C1029 C 0.85329 0.08485 0.07976 0.0
C1030 C 0.80567 0.03772 0.07468 0.0
C1031 C 0.8206 0.04366 0.10431 0.0
H1032 H 0.11617 0.54683 0.48923 0.0
H1033 H 0.1948 0.50534 0.43618 0.0
H1034 H 0.16924 0.52164 0.38572 0.0
H1035 H 0.1225 0.54496 0.35719 0.0
H1036 H 0.04438 0.58457 0.41213 0.0
H1037 H 0.07259 0.5726 0.46188 0.0
C1038 C 0.12782 0.54094 0.46673 0.0
C1039 C 0.15704 0.52415 0.46647 0.0
C1040 C 0.11338 0.55069 0.43831 0.0
C1041 C 0.17203 0.51774 0.437 0.0
C1042 C 0.15754 0.52725 0.40823 0.0
C1043 C 0.11223 0.55171 0.38012 0.0
C1044 C 0.08163 0.56578 0.38133 0.0
C1045 C 0.12807 0.54356 0.40865 0.0
C1046 C 0.06803 0.57393 0.41092 0.0
C1047 C 0.08396 0.56679 0.43924 0.0
H1048 H 0.32015 0.39835 0.96185 0.0
H1049 H 0.28381 0.48259 0.91575 0.0
H1050 H 0.30887 0.46574 0.86507 0.0
H1051 H 0.35115 0.43361 0.83867 0.0
H1052 H 0.39402 0.35502 0.88915 0.0
H1053 H 0.35609 0.3624 0.93335 0.0
C1054 C 0.31693 0.41248 0.94035 0.0
C1055 C 0.30063 0.44175 0.9423 0.0
C1056 C 0.33305 0.4037 0.91236 0.0
C1057 C 0.29625 0.45995 0.91458 0.0
C1058 C 0.31091 0.45046 0.88583 0.0
C1059 C 0.35129 0.41753 0.85897 0.0
C1060 C 0.37501 0.39378 0.86101 0.0
C1061 C 0.33088 0.42337 0.88506 0.0
C1062 C 0.37575 0.3733 0.88735 0.0
C1063 C 0.35425 0.37769 0.91256 0.0
H1064 H 0.63713 0.65458 0.91497 0.0
H1065 H 0.60964 0.56137 0.94742 0.0
H1066 H 0.56745 0.58506 0.98107 0.0
H1067 H 0.53501 0.63176 0.99563 0.0
H1068 H 0.56302 0.72504 0.96276 0.0
H1069 H 0.60977 0.70204 0.93633 0.0
C1070 C 0.62174 0.6396 0.92944 0.0
C1071 C 0.6252 0.60641 0.92806 0.0
C1072 C 0.5983 0.65342 0.94903 0.0
C1073 C 0.6064 0.58698 0.94764 0.0
C1074 C 0.58263 0.60052 0.96698 0.0
C1075 C 0.5518 0.6472 0.9834 0.0
C1076 C 0.54507 0.67995 0.98046 0.0
C1077 C 0.5779 0.63367 0.9672 0.0
C1078 C 0.56744 0.69973 0.96522 0.0
C1079 C 0.59392 0.68653 0.94963 0.0
H1080 H 0.05487 0.78028 0.06074 0.0
H1081 H 0.0591 0.83124 0.97158 0.0
H1082 H 0.10375 0.86327 0.99188 0.0
H1083 H 0.13598 0.88164 0.03785 0.0
H1084 H 0.12581 0.83447 0.12906 0.0
H1085 H 0.08856 0.79667 0.10546 0.0
C1086 C 0.0667 0.79732 0.04526 0.0
C1087 C 0.05441 0.803 0.01456 0.0
C1088 C 0.09035 0.81726 0.05801 0.0
C1089 C 0.06889 0.826 0.99503 0.0
C1090 C 0.09392 0.84471 0.00688 0.0
C1091 C 0.12562 0.86306 0.05249 0.0
C1092 C 0.13334 0.86123 0.08524 0.0
C1093 C 0.10382 0.8415 0.03885 0.0
C1094 C 0.11978 0.83694 0.10394 0.0
C1095 C 0.09878 0.81498 0.09038 0.0
H1096 H 0.39269 0.07791 0.62241 0.0
H1097 H 0.33149 0.15187 0.58576 0.0
H1098 H 0.37856 0.18424 0.57261 0.0
H1099 H 0.4376 0.18679 0.56297 0.0
H1100 H 0.49674 0.10913 0.59671 0.0
H1101 H 0.45038 0.08308 0.61895 0.0
C1102 C 0.38967 0.10163 0.61258 0.0
C1103 C 0.3588 0.11251 0.6051 0.0
C1104 C 0.41669 0.11903 0.60337 0.0
C1105 C 0.35507 0.14314 0.59214 0.0
C1106 C 0.38204 0.16136 0.58403 0.0
C1107 C 0.44029 0.16429 0.57535 0.0
C1108 C 0.47074 0.14973 0.57726 0.0
C1109 C 0.41306 0.14879 0.588 0.0
C1110 C 0.47371 0.12073 0.59393 0.0
C1111 C 0.44716 0.10576 0.60702 0.0
H1112 H 0.8971 0.42508 0.39103 0.0
H1113 H 0.83373 0.34528 0.4033 0.0
H1114 H 0.87934 0.31152 0.41851 0.0
H1115 H 0.93667 0.3074 0.43621 0.0
H1116 H 0.99635 0.39118 0.42809 0.0
H1117 H 0.95283 0.42045 0.40464 0.0
C1118 C 0.89328 0.40009 0.39639 0.0
C1119 C 0.86208 0.38787 0.39638 0.0
C1120 C 0.91899 0.38167 0.40717 0.0
C1121 C 0.85759 0.35532 0.40293 0.0
C1122 C 0.88362 0.33617 0.41227 0.0
C1123 C 0.94003 0.33205 0.4294 0.0
C1124 C 0.96985 0.34694 0.43476 0.0
C1125 C 0.9143 0.34952 0.41597 0.0
C1126 C 0.97375 0.37889 0.42516 0.0
C1127 C 0.94886 0.39584 0.41131 0.0
H1128 H 0.18034 0.34944 0.20954 0.0
H1129 H 0.23071 0.41701 0.26932 0.0
H1130 H 0.21221 0.38929 0.31716 0.0
H1131 H 0.18842 0.3422 0.34118 0.0
H1132 H 0.14118 0.27229 0.28163 0.0
H1133 H 0.15155 0.30497 0.23429 0.0
C1134 C 0.18671 0.35859 0.23303 0.0
C1135 C 0.20723 0.38506 0.23586 0.0
C1136 C 0.17703 0.34182 0.26035 0.0
C1137 C 0.21522 0.39652 0.26649 0.0
C1138 C 0.20478 0.3806 0.29382 0.0
C1139 C 0.18026 0.33403 0.31787 0.0
C1140 C 0.16483 0.30439 0.31478 0.0
C1141 C 0.18685 0.35253 0.2909 0.0
C1142 C 0.15354 0.29476 0.28457 0.0
C1143 C 0.15949 0.31343 0.25754 0.0
H1144 H 0.3805 0.72203 0.766 0.0
H1145 H 0.3773 0.64171 0.82985 0.0
H1146 H 0.36312 0.6066 0.78587 0.0
H1147 H 0.33898 0.60137 0.73289 0.0
H1148 H 0.33809 0.68148 0.66877 0.0
H1149 H 0.36631 0.71387 0.70871 0.0
C1150 C 0.37806 0.69662 0.76987 0.0
C1151 C 0.3802 0.68444 0.80115 0.0
C1152 C 0.36798 0.67668 0.74451 0.0
C1153 C 0.37643 0.65154 0.80596 0.0
C1154 C 0.36769 0.63149 0.78085 0.0
C1155 C 0.34582 0.62565 0.72735 0.0
C1156 C 0.33601 0.63923 0.69832 0.0
C1157 C 0.36147 0.64417 0.75056 0.0
C1158 C 0.34532 0.67055 0.69111 0.0
C1159 C 0.36124 0.68916 0.71406 0.0
H1160 H 0.64002 0.18677 0.6888 0.0
H1161 H 0.73105 0.23339 0.67634 0.0
H1162 H 0.75611 0.19699 0.71409 0.0
H1163 H 0.75307 0.15054 0.74834 0.0
H1164 H 0.66219 0.1059 0.76626 0.0
H1165 H 0.63601 0.14252 0.72839 0.0
C1166 C 0.66503 0.18943 0.69528 0.0
C1167 C 0.68373 0.21276 0.68023 0.0
C1168 C 0.67947 0.16808 0.71692 0.0
C1169 C 0.71628 0.21573 0.68807 0.0
C1170 C 0.7307 0.19469 0.70924 0.0
C1171 C 0.72767 0.1483 0.74323 0.0
C1172 C 0.70973 0.12488 0.75873 0.0
C1173 C 0.71276 0.17029 0.72306 0.0
C1174 C 0.67655 0.12315 0.75349 0.0
C1175 C 0.66159 0.14425 0.73221 0.0
H1176 H 0.83984 0.76745 0.21014 0.0
H1177 H 0.91305 0.83839 0.19948 0.0
H1178 H 0.89237 0.86727 0.24666 0.0
H1179 H 0.84751 0.87647 0.28496 0.0
H1180 H 0.77123 0.80772 0.28987 0.0
H1181 H 0.79859 0.77379 0.25082 0.0
C1182 C 0.85197 0.78859 0.219 0.0
C1183 C 0.87794 0.80088 0.20184 0.0
C1184 C 0.8386 0.80589 0.24442 0.0
C1185 C 0.89304 0.82869 0.21265 0.0
C1186 C 0.88097 0.84527 0.23928 0.0
C1187 C 0.83728 0.85388 0.27758 0.0
C1188 C 0.80739 0.84453 0.28968 0.0
C1189 C 0.85277 0.83492 0.25434 0.0
C1190 C 0.79409 0.81533 0.28031 0.0
C1191 C 0.80976 0.79593 0.25818 0.0
H1192 H 0.33248 0.13737 0.34593 0.0
H1193 H 0.28379 0.13102 0.255 0.0
H1194 H 0.23277 0.14319 0.28141 0.0
H1195 H 0.20497 0.16665 0.3282 0.0
H1196 H 0.25597 0.17752 0.41748 0.0
H1197 H 0.30302 0.15168 0.39415 0.0
C1198 C 0.31059 0.13778 0.33197 0.0
C1199 C 0.31198 0.13401 0.2985 0.0
C1200 C 0.28181 0.14592 0.34708 0.0
C1201 C 0.28337 0.13411 0.28078 0.0
C1202 C 0.25425 0.14134 0.29586 0.0
C1203 C 0.22605 0.16237 0.34279 0.0
C1204 C 0.22729 0.17426 0.37435 0.0
C1205 C 0.25355 0.14894 0.3287 0.0
C1206 C 0.25471 0.16882 0.39303 0.0
C1207 C 0.28161 0.15422 0.37965 0.0
H1208 H 0.22111 0.84965 0.75924 0.0
H1209 H 0.15665 0.81812 0.83352 0.0
H1210 H 0.20123 0.80639 0.86839 0.0
H1211 H 0.25778 0.796 0.87466 0.0
H1212 H 0.32402 0.82219 0.80024 0.0
H1213 H 0.27998 0.84513 0.76882 0.0
C1214 C 0.217 0.84088 0.78329 0.0
C1215 C 0.18558 0.83474 0.79367 0.0
C1216 C 0.24313 0.83254 0.80304 0.0
C1217 C 0.18056 0.82309 0.82484 0.0
C1218 C 0.20607 0.81616 0.84488 0.0
C1219 C 0.26265 0.80723 0.85179 0.0
C1220 C 0.29379 0.8069 0.83944 0.0
C1221 C 0.23734 0.8194 0.8337 0.0
C1222 C 0.30004 0.82206 0.81013 0.0
C1223 C 0.27484 0.83494 0.79207 0.0
H1224 H 0.7598 0.32753 0.58365 0.0
H1225 H 0.68907 0.35352 0.65448 0.0
H1226 H 0.7304 0.37817 0.68749 0.0
H1227 H 0.78803 0.3814 0.70148 0.0
H1228 H 0.85795 0.35206 0.63106 0.0
H1229 H 0.81587 0.3407 0.59276 0.0
C1230 C 0.75324 0.33941 0.60585 0.0
C1231 C 0.72155 0.33778 0.61692 0.0
C1232 C 0.77725 0.35264 0.62525 0.0
C1233 C 0.71338 0.35395 0.64545 0.0
C1234 C 0.7371 0.36785 0.6646 0.0
C1235 C 0.79399 0.3734 0.67747 0.0
C1236 C 0.82608 0.36702 0.66947 0.0
C1237 C 0.76939 0.36563 0.65563 0.0
C1238 C 0.83343 0.35672 0.63814 0.0
C1239 C 0.80934 0.35007 0.61611 0.0
H1240 H 0.67138 0.68324 0.16222 0.0
H1241 H 0.71757 0.65025 0.24849 0.0
H1242 H 0.77007 0.66225 0.22534 0.0
H1243 H 0.80212 0.68879 0.18317 0.0
H1244 H 0.7543 0.72493 0.09919 0.0
H1245 H 0.70318 0.70461 0.11861 0.0
C1246 C 0.69291 0.67843 0.17596 0.0
C1247 C 0.69054 0.66655 0.2073 0.0
C1248 C 0.72275 0.68606 0.16287 0.0
C1249 C 0.71873 0.65969 0.2244 0.0
C1250 C 0.74874 0.66666 0.21123 0.0
C1251 C 0.78055 0.69153 0.16894 0.0
C1252 C 0.78172 0.70844 0.13997 0.0
C1253 C 0.75097 0.68082 0.18087 0.0
C1254 C 0.75374 0.71219 0.12172 0.0
C1255 C 0.72456 0.70067 0.13282 0.0
H1256 H 0.34024 0.20936 0.17713 0.0
H1257 H 0.41585 0.26183 0.22389 0.0
H1258 H 0.39497 0.3115 0.20183 0.0
H1259 H 0.35259 0.34039 0.17438 0.0
H1260 H 0.27364 0.28937 0.1316 0.0
H1261 H 0.2989 0.23871 0.1463 0.0
C1262 C 0.35245 0.23162 0.18201 0.0
C1263 C 0.37959 0.23189 0.20223 0.0
C1264 C 0.3396 0.26034 0.17011 0.0
C1265 C 0.39489 0.26097 0.2086 0.0
C1266 C 0.38294 0.28938 0.19599 0.0
C1267 C 0.34086 0.31827 0.16788 0.0
C1268 C 0.31087 0.31888 0.15224 0.0
C1269 C 0.35485 0.28943 0.1775 0.0
C1270 C 0.29656 0.28977 0.14374 0.0
C1271 C 0.31094 0.26076 0.15234 0.0
H1272 H 0.78015 0.21384 0.84258 0.0
H1273 H 0.86251 0.15231 0.83241 0.0
H1274 H 0.89482 0.19665 0.81468 0.0
H1275 H 0.8982 0.25118 0.79456 0.0
H1276 H 0.81725 0.31417 0.80498 0.0
H1277 H 0.7862 0.27144 0.82978 0.0
C1278 C 0.80536 0.21039 0.83735 0.0
C1279 C 0.81866 0.17955 0.83871 0.0
C1280 C 0.82405 0.23623 0.82636 0.0
C1281 C 0.85146 0.17563 0.83164 0.0
C1282 C 0.87005 0.201 0.82114 0.0
C1283 C 0.87392 0.25566 0.80268 0.0
C1284 C 0.85996 0.28564 0.79753 0.0
C1285 C 0.85631 0.2311 0.81717 0.0
C1286 C 0.82859 0.29124 0.80863 0.0
C1287 C 0.81074 0.26675 0.82271 0.0
H1288 H 0.65168 0.70687 0.34122 0.0
H1289 H 0.57456 0.76669 0.30761 0.0
H1290 H 0.59734 0.81214 0.33636 0.0
H1291 H 0.64474 0.83648 0.35959 0.0
H1292 H 0.72562 0.77848 0.38676 0.0
H1293 H 0.69544 0.73038 0.37289 0.0
C1294 C 0.63935 0.72963 0.34098 0.0
C1295 C 0.61177 0.73365 0.32191 0.0
C1296 C 0.65356 0.75598 0.35604 0.0
C1297 C 0.59605 0.76322 0.32174 0.0
C1298 C 0.60912 0.78917 0.33809 0.0
C1299 C 0.65548 0.81327 0.36344 0.0
C1300 C 0.68762 0.81101 0.37343 0.0
C1301 C 0.63877 0.78614 0.35364 0.0
C1302 C 0.70102 0.78084 0.37884 0.0
C1303 C 0.68388 0.75338 0.37054 0.0
H1304 H 0.10188 0.73512 0.67432 0.0
H1305 H 0.16489 0.81059 0.64456 0.0
H1306 H 0.20121 0.77172 0.62022 0.0
H1307 H 0.22065 0.71555 0.61846 0.0
H1308 H 0.15906 0.64216 0.65578 0.0
H1309 H 0.11673 0.68031 0.66487 0.0
C1310 C 0.12311 0.74315 0.66173 0.0
C1311 C 0.1311 0.77549 0.66211 0.0
C1312 C 0.14458 0.72072 0.64925 0.0
C1313 C 0.15832 0.78566 0.64503 0.0
C1314 C 0.17936 0.76339 0.63136 0.0
C1315 C 0.19764 0.70799 0.6277 0.0
C1316 C 0.193 0.67601 0.63621 0.0
C1317 C 0.1737 0.7307 0.63505 0.0
C1318 C 0.16316 0.66655 0.64861 0.0
C1319 C 0.13891 0.68844 0.65418 0.0
H1320 H 0.81939 0.62685 0.78814 0.0
H1321 H 0.73778 0.58802 0.73787 0.0
H1322 H 0.75617 0.6132 0.68845 0.0
H1323 H 0.78913 0.6539 0.66271 0.0
H1324 H 0.86652 0.6983 0.71498 0.0
H1325 H 0.85556 0.66363 0.76078 0.0
C1326 C 0.80581 0.62321 0.76627 0.0
C1327 C 0.77668 0.60592 0.76711 0.0
C1328 C 0.81523 0.63968 0.73858 0.0
C1329 C 0.76007 0.60113 0.73822 0.0
C1330 C 0.77037 0.61601 0.71001 0.0
C1331 C 0.80396 0.65598 0.68394 0.0
C1332 C 0.82833 0.67937 0.6855 0.0
C1333 C 0.79686 0.63669 0.71044 0.0
C1334 C 0.84736 0.68106 0.71319 0.0
C1335 C 0.84111 0.66113 0.73935 0.0
H1336 H 0.66461 0.32879 0.16082 0.0
H1337 H 0.64258 0.24465 0.21535 0.0
H1338 H 0.64746 0.2754 0.26532 0.0
H1339 H 0.66647 0.32421 0.29277 0.0
H1340 H 0.68932 0.40726 0.23673 0.0
H1341 H 0.67393 0.37926 0.18778 0.0
C1342 C 0.66021 0.31724 0.1836 0.0
C1343 C 0.65386 0.28443 0.18453 0.0
C1344 C 0.66298 0.33497 0.21183 0.0
C1345 C 0.64782 0.26987 0.21413 0.0
C1346 C 0.65064 0.28744 0.24262 0.0
C1347 C 0.66703 0.33646 0.26995 0.0
C1348 C 0.67942 0.36755 0.26818 0.0
C1349 C 0.65936 0.31975 0.24174 0.0
C1350 C 0.68019 0.3832 0.23852 0.0
C1351 C 0.67166 0.36714 0.21056 0.0
H1352 H 0.33438 0.86472 0.20541 0.0
H1353 H 0.25777 0.9118 0.25689 0.0
H1354 H 0.27309 0.88337 0.3055 0.0
H1355 H 0.29991 0.83781 0.32945 0.0
H1356 H 0.37214 0.78569 0.27663 0.0
H1357 H 0.36612 0.82312 0.23193 0.0
C1358 C 0.32133 0.86949 0.22739 0.0
C1359 C 0.29413 0.88988 0.22699 0.0
C1360 C 0.32864 0.85115 0.25457 0.0
C1361 C 0.27843 0.89616 0.25611 0.0
C1362 C 0.28687 0.87942 0.28383 0.0
C1363 C 0.31457 0.83437 0.30826 0.0
C1364 C 0.33585 0.80809 0.30614 0.0
C1365 C 0.31047 0.85546 0.28264 0.0
C1366 C 0.35517 0.80511 0.27877 0.0
C1367 C 0.35176 0.82664 0.25329 0.0
H1368 H 0.12361 0.16357 0.8226 0.0
H1369 H 0.12183 0.25285 0.77226 0.0
H1370 H 0.13339 0.22491 0.72173 0.0
H1371 H 0.15549 0.17658 0.69523 0.0
H1372 H 0.16058 0.08869 0.74821 0.0
H1373 H 0.13513 0.11428 0.79422 0.0
C1374 C 0.12439 0.17675 0.80033 0.0
C1375 C 0.12214 0.21012 0.80106 0.0
C1376 C 0.13213 0.16072 0.77196 0.0
C1377 C 0.12341 0.2271 0.7722 0.0
C1378 C 0.13042 0.21113 0.74342 0.0
C1379 C 0.15002 0.16286 0.7165 0.0
C1380 C 0.16031 0.13097 0.71865 0.0
C1381 C 0.13657 0.17815 0.74342 0.0
C1382 C 0.15326 0.11338 0.74628 0.0
C1383 C 0.13883 0.12802 0.77259 0.0
H1384 H 0.73114 0.80695 0.59674 0.0
H1385 H 0.79146 0.82391 0.67892 0.0
H1386 H 0.74937 0.85591 0.70396 0.0
H1387 H 0.69251 0.87221 0.70575 0.0
H1388 H 0.63268 0.85291 0.6235 0.0
H1389 H 0.67762 0.83027 0.59501 0.0
C1390 C 0.73518 0.81801 0.61994 0.0
C1391 C 0.76399 0.81254 0.63621 0.0
C1392 C 0.71095 0.83633 0.63422 0.0
C1393 C 0.76927 0.82756 0.66598 0.0
C1394 C 0.74519 0.84584 0.68038 0.0
C1395 C 0.68957 0.86398 0.68125 0.0
C1396 C 0.65908 0.86438 0.66698 0.0
C1397 C 0.71548 0.8495 0.66519 0.0
C1398 C 0.65578 0.85338 0.63518 0.0
C1399 C 0.68147 0.83986 0.61886 0.0
H1400 H 0.70874 0.15493 0.16115 0.0
H1401 H 0.76196 0.17411 0.07488 0.0
H1402 H 0.81067 0.1531 0.09955 0.0
H1403 H 0.83965 0.14066 0.14882 0.0
H1404 H 0.78755 0.12564 0.23673 0.0
H1405 H 0.73689 0.13325 0.2083 0.0
C1406 C 0.73076 0.15336 0.14742 0.0
C1407 C 0.73195 0.16623 0.11638 0.0
C1408 C 0.75903 0.14284 0.16239 0.0
C1409 C 0.76063 0.16445 0.09888 0.0
C1410 C 0.7885 0.15272 0.11308 0.0
C1411 C 0.81719 0.13844 0.16168 0.0
C1412 C 0.81738 0.13347 0.19501 0.0
C1413 C 0.78831 0.14369 0.14538 0.0
C1414 C 0.78809 0.12986 0.21115 0.0
C1415 C 0.7591 0.13437 0.19491 0.0
H1416 H 0.19888 0.61399 0.29052 0.0
H1417 H 0.14184 0.62211 0.37643 0.0
H1418 H 0.18705 0.64541 0.40496 0.0
H1419 H 0.23828 0.6741 0.40159 0.0
H1420 H 0.29547 0.66573 0.31593 0.0
H1421 H 0.25476 0.63193 0.29122 0.0
C1422 C 0.19669 0.61973 0.3158 0.0
C1423 C 0.16678 0.61744 0.331 0.0
C1424 C 0.22251 0.63399 0.33183 0.0
C1425 C 0.16446 0.62446 0.36394 0.0
C1426 C 0.19021 0.63805 0.38023 0.0
C1427 C 0.24199 0.66433 0.37775 0.0
C1428 C 0.26923 0.67296 0.36021 0.0
C1429 C 0.21858 0.64482 0.36377 0.0
C1430 C 0.27437 0.65963 0.3297 0.0
C1431 C 0.25112 0.64035 0.31554 0.0
H1432 H 0.19437 0.33248 0.82146 0.0
H1433 H 0.24508 0.30712 0.90771 0.0
H1434 H 0.29424 0.33017 0.88642 0.0
H1435 H 0.32451 0.34779 0.83997 0.0
H1436 H 0.27578 0.36976 0.75167 0.0
H1437 H 0.22412 0.35836 0.77705 0.0
C1438 C 0.21599 0.33295 0.83586 0.0
C1439 C 0.21629 0.31798 0.866 0.0
C1440 C 0.24462 0.34508 0.82284 0.0
C1441 C 0.24445 0.31835 0.88438 0.0
C1442 C 0.27256 0.33138 0.87216 0.0
C1443 C 0.30254 0.35086 0.82645 0.0
C1444 C 0.30402 0.35906 0.79383 0.0
C1445 C 0.27324 0.34332 0.84087 0.0
C1446 C 0.27531 0.36335 0.77678 0.0
C1447 C 0.24579 0.35654 0.79123 0.0
H1448 H 0.6326 0.80406 0.79941 0.0
H1449 H 0.56876 0.74606 0.74242 0.0
H1450 H 0.59563 0.69796 0.76169 0.0
H1451 H 0.63968 0.67317 0.79147 0.0
H1452 H 0.70499 0.73237 0.84562 0.0
H1453 H 0.6751 0.77961 0.83003 0.0
C1454 C 0.62414 0.78094 0.79144 0.0
C1455 C 0.59882 0.77861 0.7694 0.0
C1456 C 0.64029 0.75375 0.8016 0.0
C1457 C 0.58829 0.74844 0.75933 0.0
C1458 C 0.60374 0.721 0.77018 0.0
C1459 C 0.64738 0.6964 0.7999 0.0
C1460 C 0.67466 0.69928 0.81946 0.0
C1461 C 0.63025 0.7235 0.79069 0.0
C1462 C 0.68428 0.72951 0.83025 0.0
C1463 C 0.66712 0.75652 0.82153 0.0
H1464 H 0.16288 0.8168 0.20693 0.0
H1465 H 0.23448 0.75785 0.16084 0.0
H1466 H 0.20517 0.71011 0.17683 0.0
H1467 H 0.15941 0.68561 0.20399 0.0
H1468 H 0.08855 0.74527 0.25017 0.0
H1469 H 0.11737 0.79275 0.23316 0.0
C1470 C 0.17237 0.79357 0.20046 0.0
C1471 C 0.20093 0.79087 0.18282 0.0
C1472 C 0.15531 0.76653 0.20926 0.0
C1473 C 0.21262 0.76054 0.17456 0.0
C1474 C 0.1958 0.7333 0.18351 0.0
C1475 C 0.15002 0.70902 0.20991 0.0
C1476 C 0.12188 0.71207 0.22816 0.0
C1477 C 0.16703 0.73609 0.20068 0.0
C1478 C 0.1102 0.74244 0.23611 0.0
C1479 C 0.1267 0.76951 0.22655 0.0
H1480 H 0.26834 0.21486 0.63527 0.0
H1481 H 0.33426 0.14219 0.66715 0.0
H1482 H 0.37362 0.1822 0.68091 0.0
H1483 H 0.38566 0.23775 0.69301 0.0
H1484 H 0.32096 0.31142 0.66158 0.0
H1485 H 0.28532 0.27145 0.63834 0.0
C1486 C 0.2916 0.20787 0.64447 0.0
C1487 C 0.29793 0.17569 0.65099 0.0
C1488 C 0.31431 0.23124 0.653 0.0
C1489 C 0.32836 0.16692 0.66269 0.0
C1490 C 0.35103 0.18977 0.6706 0.0
C1491 C 0.36414 0.24505 0.68042 0.0
C1492 C 0.35568 0.2773 0.67953 0.0
C1493 C 0.34365 0.22201 0.66736 0.0
C1494 C 0.32797 0.28659 0.6627 0.0
C1495 C 0.3074 0.26373 0.64959 0.0
H1496 H 0.83805 0.33647 0.32695 0.0
H1497 H 0.76127 0.27983 0.36579 0.0
H1498 H 0.79115 0.23113 0.3527 0.0
H1499 H 0.8357 0.20498 0.32356 0.0
H1500 H 0.9095 0.26273 0.28083 0.0
H1501 H 0.88411 0.31077 0.3022 0.0
C1502 C 0.82782 0.31352 0.33288 0.0
C1503 C 0.79709 0.31185 0.3468 0.0
C1504 C 0.84453 0.28582 0.32428 0.0
C1505 C 0.78472 0.28187 0.35491 0.0
C1506 C 0.80174 0.25401 0.34723 0.0
C1507 C 0.84656 0.22804 0.31947 0.0
C1508 C 0.87439 0.23032 0.30044 0.0
C1509 C 0.83116 0.25571 0.3309 0.0
C1510 C 0.888 0.26037 0.29514 0.0
C1511 C 0.87347 0.28783 0.30733 0.0
H1512 H 0.13489 0.33101 0.5215 0.0
H1513 H 0.23158 0.32008 0.48672 0.0
H1514 H 0.24953 0.36224 0.52248 0.0
H1515 H 0.23588 0.40885 0.55529 0.0
H1516 H 0.13818 0.42224 0.58654 0.0
H1517 H 0.1231 0.3722 0.56174 0.0
C1518 C 0.1599 0.33749 0.52204 0.0
C1519 C 0.18143 0.32304 0.50053 0.0
C1520 C 0.17007 0.36238 0.54225 0.0
C1521 C 0.21411 0.33119 0.50238 0.0
C1522 C 0.22452 0.35539 0.5229 0.0
C1523 C 0.21148 0.40034 0.55764 0.0
C1524 C 0.18824 0.41972 0.57254 0.0
C1525 C 0.20242 0.37219 0.54176 0.0
C1526 C 0.15682 0.40796 0.5756 0.0
C1527 C 0.14793 0.37942 0.56084 0.0
H1528 H 0.26596 0.57875 0.01866 0.0
H1529 H 0.35845 0.56245 0.06191 0.0
H1530 H 0.37738 0.61348 0.04201 0.0
H1531 H 0.37067 0.65794 0.00434 0.0
H1532 H 0.27832 0.67423 0.96098 0.0
H1533 H 0.2565 0.6284 0.98899 0.0
C1534 C 0.28995 0.58673 0.02455 0.0
C1535 C 0.31086 0.56633 0.04122 0.0
C1536 C 0.30102 0.61599 0.01246 0.0
C1537 C 0.34188 0.57731 0.0487 0.0
C1538 C 0.35285 0.60652 0.03718 0.0
C1539 C 0.34554 0.65219 0.00186 0.0
C1540 C 0.32643 0.66941 0.98018 0.0
C1541 C 0.33311 0.62539 0.01779 0.0
C1542 C 0.29385 0.66123 0.97712 0.0
C1543 C 0.28127 0.6349 0.99312 0.0
H1544 H 0.63775 0.16565 0.47776 0.0
H1545 H 0.7338 0.1775 0.51429 0.0
H1546 H 0.75218 0.13284 0.48197 0.0
H1547 H 0.7392 0.08489 0.45116 0.0
H1548 H 0.64325 0.07227 0.41479 0.0
H1549 H 0.62716 0.12307 0.43819 0.0
C1550 C 0.66278 0.15878 0.47828 0.0
C1551 C 0.68403 0.17449 0.49922 0.0
C1552 C 0.67336 0.13275 0.45965 0.0
C1553 C 0.71662 0.16568 0.49888 0.0
C1554 C 0.72728 0.14001 0.48037 0.0
C1555 C 0.71503 0.09363 0.4474 0.0
C1556 C 0.69232 0.07414 0.43199 0.0
C1557 C 0.7056 0.12253 0.46173 0.0
C1558 C 0.66123 0.08635 0.42697 0.0
C1559 C 0.65184 0.11537 0.44067 0.0
H1560 H 0.88013 0.8501 0.9886 0.0
H1561 H 0.78841 0.83541 0.03366 0.0
H1562 H 0.76501 0.87777 0.00173 0.0
H1563 H 0.77293 0.92483 0.96837 0.0
H1564 H 0.86471 0.94015 0.92357 0.0
H1565 H 0.88516 0.8911 0.94678 0.0
C1566 C 0.85486 0.85544 0.99065 0.0
C1567 C 0.83635 0.84 0.01396 0.0
C1568 C 0.84145 0.88019 0.97233 0.0
C1569 C 0.80351 0.84742 0.01643 0.0
C1570 C 0.78999 0.87163 0.99809 0.0
C1571 C 0.79707 0.91698 0.96281 0.0
C1572 C 0.81743 0.93669 0.94494 0.0
C1573 C 0.80907 0.88912 0.97702 0.0
C1574 C 0.84857 0.9258 0.9377 0.0
C1575 C 0.86045 0.89778 0.9512 0.0
H1576 H 0.54985 0.12563 0.44653 0.0
H1577 H 0.55858 0.22702 0.43335 0.0
H1578 H 0.53333 0.22276 0.38069 0.0
H1579 H 0.50149 0.19132 0.34213 0.0
H1580 H 0.48869 0.09092 0.35838 0.0
H1581 H 0.52286 0.0935 0.40557 0.0
C1582 C 0.54718 0.14661 0.43167 0.0
C1583 C 0.55587 0.17659 0.44385 0.0
C1584 C 0.53136 0.14419 0.40203 0.0
C1585 C 0.55192 0.20366 0.42449 0.0
C1586 C 0.53722 0.20129 0.3945 0.0
C1587 C 0.50665 0.16999 0.35579 0.0
C1588 C 0.49317 0.1408 0.34634 0.0
C1589 C 0.52556 0.17189 0.38365 0.0
C1590 C 0.49982 0.11337 0.36437 0.0
C1591 C 0.519 0.11494 0.3917 0.0
H1592 H 0.96332 0.75055 0.91488 0.0
H1593 H 0.91606 0.84189 0.92169 0.0
H1594 H 0.93914 0.85754 0.8704 0.0
H1595 H 0.98033 0.84873 0.82876 0.0
H1596 H 0.0294 0.75828 0.82422 0.0
H1597 H 0.99777 0.73886 0.86893 0.0
C1598 C 0.9572 0.77354 0.90479 0.0
C1599 C 0.93852 0.79522 0.92268 0.0
C1600 C 0.97155 0.7829 0.87586 0.0
C1601 C 0.93067 0.82477 0.9088 0.0
C1602 C 0.94415 0.83391 0.87953 0.0
C1603 C 0.98397 0.82476 0.83743 0.0
C1604 C 0.00802 0.80551 0.82365 0.0
C1605 C 0.966 0.81381 0.86374 0.0
C1606 C 0.01149 0.77398 0.83451 0.0
C1607 C 0.9934 0.76277 0.86023 0.0
H1608 H 0.07292 0.34946 0.57034 0.0
H1609 H 0.03892 0.25289 0.56114 0.0
H1610 H 0.01414 0.25634 0.61379 0.0
H1611 H 0.99333 0.2904 0.65715 0.0
H1612 H 0.02951 0.38584 0.66744 0.0
H1613 H 0.06266 0.37889 0.61993 0.0
C1614 C 0.06123 0.32875 0.5803 0.0
C1615 C 0.05714 0.30136 0.56139 0.0
C1616 C 0.0468 0.33085 0.61061 0.0
C1617 C 0.04187 0.27466 0.57484 0.0
C1618 C 0.02755 0.27657 0.60499 0.0
C1619 C 0.0091 0.30943 0.6496 0.0
C1620 C 0.00775 0.33926 0.66501 0.0
C1621 C 0.0284 0.30516 0.62232 0.0
C1622 C 0.02911 0.36319 0.65532 0.0
C1623 C 0.04823 0.35918 0.62822 0.0
H1624 H 0.51 0.72325 0.16019 0.0
H1625 H 0.48266 0.62475 0.16668 0.0
H1626 H 0.44256 0.63204 0.12511 0.0
H1627 H 0.42242 0.66434 0.08049 0.0
H1628 H 0.44725 0.76395 0.07594 0.0
H1629 H 0.47948 0.75876 0.12425 0.0
C1630 C 0.49499 0.70347 0.15285 0.0
C1631 C 0.50086 0.67281 0.16508 0.0
C1632 C 0.47118 0.70818 0.12939 0.0
C1633 C 0.48017 0.64794 0.15616 0.0
C1634 C 0.45679 0.65228 0.1327 0.0
C1635 C 0.43382 0.68526 0.09065 0.0
C1636 C 0.43346 0.71413 0.07368 0.0
C1637 C 0.45311 0.68198 0.11808 0.0
C1638 C 0.44775 0.74112 0.08792 0.0
C1639 C 0.46661 0.73812 0.11542 0.0
H1640 H 0.44977 0.55142 0.1271 0.0
H1641 H 0.43812 0.56261 0.22922 0.0
H1642 H 0.38355 0.54212 0.22571 0.0
H1643 H 0.34343 0.51175 0.19505 0.0
H1644 H 0.35927 0.49474 0.09443 0.0
H1645 H 0.40717 0.52725 0.09558 0.0
C1646 C 0.43492 0.55032 0.1484 0.0
C1647 C 0.448 0.55783 0.17838 0.0
C1648 C 0.40424 0.5371 0.14645 0.0
C1649 C 0.42858 0.55638 0.20587 0.0
C1650 C 0.39748 0.54451 0.20394 0.0
C1651 C 0.35708 0.51583 0.17333 0.0
C1652 C 0.34736 0.50166 0.14446 0.0
C1653 C 0.38573 0.53319 0.1746 0.0
C1654 C 0.36534 0.50675 0.11651 0.0
C1655 C 0.39318 0.52482 0.11732 0.0
H1656 H 0.83942 0.98009 0.79752 0.0
H1657 H 0.86639 0.01296 0.89168 0.0
H1658 H 0.90998 0.97481 0.89356 0.0
H1659 H 0.94512 0.93806 0.86585 0.0
H1660 H 0.92525 0.91157 0.76808 0.0
H1661 H 0.87379 0.93972 0.77044 0.0
C1662 C 0.85467 0.97844 0.8185 0.0
C1663 C 0.84899 -0.00157 0.84496 0.0
C1664 C 0.88087 0.95722 0.81883 0.0
C1665 C 0.86925 0.99663 0.87177 0.0
C1666 C 0.8945 0.9751 0.8727 0.0
C1667 C 0.92888 0.9373 0.84554 0.0
C1668 C 0.93872 0.92275 0.81696 0.0
C1669 C 0.90089 0.95569 0.84621 0.0
C1670 C 0.91788 0.9225 0.79048 0.0
C1671 C 0.88877 0.93907 0.79164 0.0
H1672 H 0.57896 0.02875 0.26197 0.0
H1673 H 0.55601 0.06075 0.35774 0.0
H1674 H 0.60808 0.04265 0.37667 0.0
H1675 H 0.65458 0.00805 0.36816 0.0
H1676 H 0.67641 0.97373 0.2731 0.0
H1677 H 0.63056 0.00275 0.25172 0.0
C1678 C 0.58569 0.0327 0.28677 0.0
C1679 C 0.56324 0.04529 0.30855 0.0
C1680 C 0.61533 0.0213 0.29778 0.0
C1681 C 0.57258 0.05058 0.34054 0.0
C1682 C 0.60236 0.04011 0.35146 0.0
C1683 C 0.65003 0.0078 0.34267 0.0
C1684 C 0.66858 0.98828 0.32247 0.0
C1685 C 0.62314 0.02389 0.33066 0.0
C1686 C 0.66218 0.98812 0.28936 0.0
C1687 C 0.63591 0.00469 0.27708 0.0
H1688 H 0.17929 0.47437 0.64705 0.0
H1689 H 0.18062 0.53455 0.73104 0.0
H1690 H 0.13359 0.50757 0.75193 0.0
H1691 H 0.08572 0.47574 0.74043 0.0
H1692 H 0.08199 0.41921 0.65402 0.0
H1693 H 0.13651 0.43499 0.64072 0.0
C1694 C 0.16955 0.48126 0.67009 0.0
C1695 C 0.18272 0.50727 0.6867 0.0
C1696 C 0.14175 0.46639 0.6815 0.0
C1697 C 0.17065 0.51503 0.71728 0.0
C1698 C 0.14355 0.49971 0.72925 0.0
C1699 C 0.09717 0.46603 0.71918 0.0
C1700 C 0.07956 0.44678 0.6979 0.0
C1701 C 0.12787 0.47665 0.71068 0.0
C1702 C 0.09485 0.43434 0.67057 0.0
C1703 C 0.12592 0.44365 0.66274 0.0
H1704 H 0.82761 0.57446 0.43407 0.0
H1705 H 0.73019 0.5684 0.46828 0.0
H1706 H 0.73548 0.62007 0.49432 0.0
H1707 H 0.77076 0.66154 0.51588 0.0
H1708 H 0.86776 0.66827 0.48153 0.0
H1709 H 0.85957 0.62204 0.44698 0.0
C1710 C 0.80723 0.58477 0.44648 0.0
C1711 C 0.77888 0.56699 0.44996 0.0
C1712 C 0.81058 0.61434 0.46208 0.0
C1713 C 0.75255 0.58115 0.46564 0.0
C1714 C 0.75558 0.61071 0.48078 0.0
C1715 C 0.78998 0.65338 0.50039 0.0
C1716 C 0.82045 0.66756 0.50246 0.0
C1717 C 0.785 0.62668 0.48057 0.0
C1718 C 0.84462 0.65702 0.48148 0.0
C1719 C 0.83984 0.63063 0.46155 0.0
H1720 H 0.67527 0.42883 0.95643 0.0
H1721 H 0.75988 0.43897 0.01507 0.0
H1722 H 0.75561 0.38345 0.03157 0.0
H1723 H 0.72464 0.33462 0.03385 0.0
H1724 H 0.63962 0.32418 0.97594 0.0
H1725 H 0.64784 0.37725 0.95368 0.0
C1726 C 0.69272 0.41885 0.97285 0.0
C1727 C 0.71738 0.438 0.98519 0.0
C1728 C 0.69021 0.38699 0.98207 0.0
C1729 C 0.74046 0.42467 0.00564 0.0
C1730 C 0.73809 0.39298 0.01497 0.0
C1731 C 0.70823 0.34354 0.01581 0.0
C1732 C 0.68087 0.326 0.00735 0.0
C1733 C 0.71268 0.3742 0.00387 0.0
C1734 C 0.66026 0.33774 0.98355 0.0
C1735 C 0.66492 0.36806 0.97091 0.0
H1736 H 0.24928 0.92149 0.52843 0.0
H1737 H 0.34116 0.92738 0.57551 0.0
H1738 H 0.35762 0.87746 0.55028 0.0
H1739 H 0.34922 0.83714 0.50778 0.0
H1740 H 0.25776 0.83305 0.45975 0.0
H1741 H 0.23808 0.87685 0.49244 0.0
C1742 C 0.27259 0.91148 0.53399 0.0
C1743 C 0.29411 0.92869 0.55337 0.0
C1744 C 0.28242 0.88331 0.5185 0.0
C1745 C 0.32414 0.91498 0.56039 0.0
C1746 C 0.33376 0.88651 0.54569 0.0
C1747 C 0.32498 0.84568 0.50463 0.0
C1748 C 0.3055 0.83221 0.48062 0.0
C1749 C 0.31371 0.87134 0.52342 0.0
C1750 C 0.27367 0.84307 0.47762 0.0
C1751 C 0.26226 0.86825 0.49636 0.0
H1752 H 0.22056 0.06311 0.00448 0.0
H1753 H 0.12192 0.03381 0.0138 0.0
H1754 H 0.10416 0.08752 -0.00035 0.0
H1755 H 0.1169 0.1416 0.98131 0.0
H1756 H 0.21561 0.16945 0.96985 0.0
H1757 H 0.2332 0.11749 0.98926 0.0
C1758 C 0.19513 0.0683 0.00336 0.0
C1759 C 0.1726 0.04429 0.00974 0.0
C1760 C 0.18516 0.09907 0.99534 0.0
C1761 C 0.13977 0.05175 0.0087 0.0
C1762 C 0.12961 0.08248 0.00076 0.0
C1763 C 0.14223 0.13656 0.98383 0.0
C1764 C 0.16496 0.15927 0.97425 0.0
C1765 C 0.15212 0.10623 0.99377 0.0
C1766 C 0.19773 0.15229 0.97716 0.0
C1767 C 0.20776 0.12255 0.98797 0.0
H1768 H 0.46129 0.82657 0.65756 0.0
H1769 H 0.48091 0.92256 0.62743 0.0
H1770 H 0.44768 0.91495 0.57991 0.0
H1771 H 0.42356 0.87765 0.54196 0.0
H1772 H 0.41002 0.77949 0.56886 0.0
H1773 H 0.42955 0.79132 0.6228 0.0
C1774 C 0.45743 0.84606 0.641 0.0
C1775 C 0.47312 0.87523 0.6461 0.0
C1776 C 0.43972 0.84088 0.61289 0.0
C1777 C 0.46833 0.90023 0.62446 0.0
C1778 C 0.44973 0.89569 0.59701 0.0
C1779 C 0.4238 0.85905 0.55991 0.0
C1780 C 0.4159 0.8276 0.55125 0.0
C1781 C 0.43666 0.86565 0.59025 0.0
C1782 C 0.41633 0.80381 0.57484 0.0
C1783 C 0.42774 0.81052 0.60561 0.0
H1784 H 0.00779 0.20163 0.17197 0.0
H1785 H 0.00716 0.10064 0.15308 0.0
H1786 H 0.04377 0.10767 0.10842 0.0
H1787 H 0.06693 0.14329 0.06872 0.0
H1788 H 0.06441 0.24488 0.08465 0.0
H1789 H 0.03924 0.23683 0.13674 0.0
C1790 C 0.01624 0.18117 0.15842 0.0
C1791 C 0.00494 0.15062 0.16599 0.0
C1792 C 0.03666 0.18554 0.132 0.0
C1793 C 0.01613 0.12427 0.14834 0.0
C1794 C 0.0368 0.12833 0.12246 0.0
C1795 C 0.062 0.16367 0.08402 0.0
C1796 C 0.06676 0.19467 0.07235 0.0
C1797 C 0.04615 0.15897 0.11328 0.0
C1798 C 0.0605 0.22073 0.09278 0.0
C1799 C 0.04573 0.21618 0.12246 0.0
H1800 H 0.9816 0.68692 0.33789 0.0
H1801 H 0.9708 0.58636 0.35512 0.0
H1802 H 0.93851 0.59758 0.40238 0.0
H1803 H 0.92453 0.63537 0.44484 0.0
H1804 H 0.94152 0.73582 0.43116 0.0
H1805 H 0.95973 0.72537 0.37657 0.0
C1806 C 0.97135 0.66749 0.3515 0.0
C1807 C 0.97843 0.63582 0.34281 0.0
C1808 C 0.95452 0.67417 0.37984 0.0
C1809 C 0.96499 0.61087 0.36058 0.0
C1810 C 0.94704 0.61733 0.3881 0.0
C1811 C 0.93144 0.65514 0.42972 0.0
C1812 C 0.93255 0.68626 0.44247 0.0
C1813 C 0.94323 0.64882 0.39887 0.0
C1814 C 0.941 0.71157 0.42224 0.0
C1815 C 0.95158 0.70559 0.39102 0.0
H1816 H 0.51002 0.36391 0.83961 0.0
H1817 H 0.46717 0.27091 0.83092 0.0
H1818 H 0.49833 0.25227 0.87649 0.0
H1819 H 0.53276 0.26402 0.92278 0.0
H1820 H 0.57501 0.35733 0.93217 0.0
H1821 H 0.54913 0.37398 0.88274 0.0
C1822 C 0.50788 0.33946 0.84726 0.0
C1823 C 0.48582 0.31915 0.83185 0.0
C1824 C 0.52569 0.32886 0.87391 0.0
C1825 C 0.48359 0.28736 0.84231 0.0
C1826 C 0.50145 0.27659 0.86849 0.0
C1827 C 0.53709 0.28774 0.9136 0.0
C1828 C 0.55565 0.30939 0.9316 0.0
C1829 C 0.52189 0.29737 0.88506 0.0
C1830 C 0.56091 0.34002 0.91905 0.0
C1831 C 0.546 0.34968 0.89065 0.0
H1832 H 0.57098 0.47644 0.77409 0.0
H1833 H 0.57318 0.3949 0.8365 0.0
H1834 H 0.62381 0.41319 0.85951 0.0
H1835 H 0.66022 0.45767 0.86945 0.0
H1836 H 0.65557 0.54163 0.81055 0.0
H1837 H 0.61362 0.51678 0.77776 0.0
C1838 C 0.58313 0.46205 0.7919 0.0
C1839 C 0.56806 0.43464 0.80418 0.0
C1840 C 0.61151 0.4735 0.80587 0.0
C1841 C 0.58403 0.41635 0.82727 0.0
C1842 C 0.6129 0.42688 0.84041 0.0
C1843 C 0.6506 0.47018 0.84886 0.0
C1844 C 0.66043 0.50161 0.84268 0.0
C1845 C 0.62576 0.45629 0.83116 0.0
C1846 C 0.64829 0.51745 0.81575 0.0
C1847 C 0.62409 0.50334 0.79726 0.0
H1848 H 0.08695 0.07258 0.17673 0.0
H1849 H 0.07151 0.00721 0.25469 0.0
H1850 H 0.11794 0.97618 0.23846 0.0
H1851 H 0.15345 0.96014 0.19355 0.0
H1852 H 0.17028 0.02685 0.11727 0.0
H1853 H 0.13379 0.06504 0.14187 0.0
C1854 C 0.09453 0.05232 0.19092 0.0
C1855 C 0.07511 0.04168 0.21608 0.0
C1856 C 0.12137 0.03435 0.18146 0.0
C1857 C 0.08566 0.01574 0.23475 0.0
C1858 C 0.11217 0.99767 0.22535 0.0
C1859 C 0.15031 0.98364 0.18331 0.0
C1860 C 0.16371 0.99045 0.15336 0.0
C1861 C 0.12888 0.00554 0.19745 0.0
C1862 C 0.15966 0.02102 0.14021 0.0
C1863 C 0.13859 0.0428 0.15408 0.0
H1864 H 0.40186 0.97215 0.7365 0.0
H1865 H 0.42699 0.94869 0.63882 0.0
H1866 H 0.3722 0.95591 0.62206 0.0
H1867 H 0.32147 0.98249 0.63224 0.0
H1868 H 0.29647 0.00988 0.72887 0.0
H1869 H 0.34603 0.9867 0.74881 0.0
C1870 C 0.39514 0.96771 0.71177 0.0
C1871 C 0.41879 0.9607 0.68892 0.0
C1872 C 0.36349 0.97319 0.70183 0.0
C1873 C 0.40953 0.95442 0.65702 0.0
C1874 C 0.37804 0.95876 0.64722 0.0
C1875 C 0.32629 0.98246 0.65778 0.0
C1876 C 0.30616 -0.00072 0.67873 0.0
C1877 C 0.35538 0.97023 0.66899 0.0
C1878 C 0.31223 0.99807 0.71195 0.0
C1879 C 0.3407 0.98496 0.72344 0.0
H1880 H 0.90683 0.56528 0.32698 0.0
H1881 H 0.90734 0.52416 0.23191 0.0
H1882 H 0.85336 0.50383 0.24026 0.0
H1883 H 0.8137 0.48599 0.27908 0.0
H1884 H 0.81642 0.52183 0.37604 0.0
H1885 H 0.86117 0.55634 0.36237 0.0
C1886 C 0.89484 0.55266 0.30768 0.0
C1887 C 0.91157 0.54501 0.27937 0.0
C1888 C 0.86468 0.53939 0.31336 0.0
C1889 C 0.8953 0.52959 0.25427 0.0
C1890 C 0.86451 0.51774 0.25913 0.0
C1891 C 0.82361 0.50179 0.29715 0.0
C1892 C 0.81274 0.50024 0.32904 0.0
C1893 C 0.85014 0.52049 0.28938 0.0
C1894 C 0.82505 0.52177 0.3517 0.0
C1895 C 0.85068 0.54151 0.34383 0.0
H1896 H 0.16069 0.08817 0.51502 0.0
H1897 H 0.21518 0.16323 0.56 0.0
H1898 H 0.17591 0.20259 0.54133 0.0
H1899 H 0.13166 0.21581 0.50462 0.0
H1900 H 0.08048 0.14048 0.45647 0.0
H1901 H 0.11207 0.1007 0.48524 0.0
C1902 C 0.16397 0.11314 0.52091 0.0
C1903 C 0.19134 0.12301 0.53793 0.0
C1904 C 0.14157 0.1354 0.50994 0.0
C1905 C 0.19461 0.15522 0.54637 0.0
C1906 C 0.17213 0.17764 0.53578 0.0
C1907 C 0.12643 0.19067 0.50161 0.0
C1908 C 0.10374 0.18092 0.47861 0.0
C1909 C 0.14614 0.16808 0.51661 0.0
C1910 C 0.0976 0.14837 0.47433 0.0
C1911 C 0.11605 0.12571 0.49032 0.0
H1912 H 0.34185 0.85953 0.06522 0.0
H1913 H 0.26661 0.87672 0.99649 0.0
H1914 H 0.30346 0.864 0.95267 0.0
H1915 H 0.35372 0.83971 0.93533 0.0
H1916 H 0.4258 0.81481 0.00511 0.0
H1917 H 0.3938 0.83984 0.04742 0.0
C1918 C 0.33349 0.86062 0.04062 0.0
C1919 C 0.30146 0.86868 0.03397 0.0
C1920 C 0.35437 0.85214 0.01593 0.0
C1921 C 0.29117 0.87078 0.00207 0.0
C1922 C 0.3122 0.86333 0.97712 0.0
C1923 C 0.36301 0.84079 0.9596 0.0
C1924 C 0.39203 0.8255 0.96728 0.0
C1925 C 0.3435 0.85302 0.98391 0.0
C1926 C 0.40357 0.8266 -0.00118 0.0
C1927 C 0.3851 0.84049 0.02295 0.0
H1928 H 0.63192 0.27585 0.49075 0.0
H1929 H 0.57454 0.35304 0.52807 0.0
H1930 H 0.60644 0.39127 0.49782 0.0
H1931 H 0.65717 0.403 0.47148 0.0
H1932 H 0.71793 0.32665 0.43803 0.0
H1933 H 0.6782 0.28751 0.45608 0.0
C1934 C 0.62543 0.3009 0.49096 0.0
C1935 C 0.60091 0.31177 0.51152 0.0
C1936 C 0.64529 0.32282 0.47528 0.0
C1937 C 0.59311 0.34426 0.51215 0.0
C1938 C 0.61172 0.36609 0.49533 0.0
C1939 C 0.66157 0.37776 0.46782 0.0
C1940 C 0.6908 0.36749 0.45451 0.0
C1941 C 0.63901 0.35572 0.47862 0.0
C1942 C 0.6958 0.33493 0.44879 0.0
C1943 C 0.67311 0.31266 0.4591 0.0
H1944 H 0.83177 0.64665 0.92389 0.0
H1945 H 0.76271 0.62125 0.99623 0.0
H1946 H 0.80114 0.63464 0.03826 0.0
H1947 H 0.85067 0.66013 0.0537 0.0
H1948 H 0.91595 0.6946 0.98147 0.0
H1949 H 0.88298 0.67005 0.93964 0.0
C1950 C 0.82515 0.64406 0.94889 0.0
C1951 C 0.79462 0.6328 0.9572 0.0
C1952 C 0.84676 0.65315 0.97266 0.0
C1953 C 0.78638 0.62909 0.98948 0.0
C1954 C 0.80823 0.637 0.01339 0.0
C1955 C 0.85829 0.66161 0.0289 0.0
C1956 C 0.88551 0.67937 0.02051 0.0
C1957 C 0.83813 0.64972 0.00517 0.0
C1958 C 0.89497 0.68111 0.98832 0.0
C1959 C 0.87597 0.66744 0.96449 0.0
H1960 H 0.51787 0.13411 0.21254 0.0
H1961 H 0.46897 0.08583 0.13557 0.0
H1962 H 0.49712 0.11831 0.09625 0.0
H1963 H 0.52535 0.1679 0.08526 0.0
H1964 H 0.57154 0.21911 0.16211 0.0
H1965 H 0.55457 0.17825 0.20032 0.0
C1966 C 0.51474 0.12969 0.18708 0.0
C1967 C 0.49153 0.10786 0.17668 0.0
C1968 C 0.52935 0.14993 0.16486 0.0
C1969 C 0.48702 0.10246 0.14382 0.0
C1970 C 0.50261 0.12143 0.12146 0.0
C1971 C 0.53185 0.16995 0.11037 0.0
C1972 C 0.54849 0.19685 0.12131 0.0
C1973 C 0.52202 0.14658 0.13191 0.0
C1974 C 0.55801 0.19882 0.1535 0.0
C1975 C 0.54844 0.17546 0.17522 0.0
H1976 H 0.9609 0.82366 0.59688 0.0
H1977 H 0.93269 0.76688 0.67789 0.0
H1978 H 0.95468 0.80746 0.71444 0.0
H1979 H 0.9908 0.85342 0.72207 0.0
H1980 H 0.02367 0.90594 0.63983 0.0
H1981 H 0.99021 0.8731 0.60479 0.0
C1982 C 0.9592 0.8203 0.6226 0.0
C1983 C 0.94607 0.79197 0.63481 0.0
C1984 C 0.9727 0.84305 0.64306 0.0
C1985 C 0.94305 0.78834 0.66805 0.0
C1986 C 0.95575 0.81146 0.68883 0.0
C1987 C 0.98958 0.8585 0.69663 0.0
C1988 C 0.0095 0.88219 0.68342 0.0
C1989 C 0.97185 0.8382 0.6765 0.0
C1990 C 0.00832 0.88806 0.65041 0.0
C1991 C 0.98952 0.86903 0.63042 0.0
H1992 H 0.94314 0.37827 0.85109 0.0
H1993 H 0.02476 0.39999 0.79168 0.0
H1994 H 0.0573 0.36172 0.8217 0.0
H1995 H 0.06014 0.31685 0.86083 0.0
H1996 H 0.97391 0.29118 0.91182 0.0
H1997 H 0.94521 0.33482 0.88762 0.0
C1998 C 0.96815 0.37505 0.84475 0.0
C1999 C 0.98113 0.39134 0.81863 0.0
C2000 C 0.98563 0.35117 0.85979 0.0
C2001 C 0.01394 0.38748 0.81156 0.0
C2002 C 0.03243 0.36515 0.8283 0.0
C2003 C 0.03499 0.32061 0.86608 0.0
C2004 C 0.01927 0.30094 0.88818 0.0
C2005 C 0.01805 0.34572 0.85147 0.0
C2006 C 0.98667 0.30616 0.89505 0.0
C2007 C 0.97021 0.33129 0.88148 0.0
H2008 H 0.51713 0.60651 0.35076 0.0
H2009 H 0.49371 0.64197 0.25696 0.0
H2010 H 0.45828 0.68215 0.28068 0.0
H2011 H 0.44085 0.71295 0.32933 0.0
H2012 H 0.46376 0.67456 0.42243 0.0
H2013 H 0.49157 0.63015 0.39792 0.0
C2014 C 0.50329 0.62222 0.33547 0.0
C2015 C 0.50807 0.62107 0.30222 0.0
C2016 C 0.48319 0.64551 0.34927 0.0
C2017 C 0.49019 0.64191 0.28269 0.0
C2018 C 0.47021 0.66532 0.2963 0.0
C2019 C 0.45129 0.69447 0.34412 0.0
C2020 C 0.45102 0.69791 0.37775 0.0
C2021 C 0.46753 0.66828 0.32974 0.0
C2022 C 0.46439 0.67333 0.39649 0.0
C2023 C 0.48031 0.64765 0.38253 0.0
H2024 H 0.08377 0.51597 0.16821 0.0
H2025 H 0.15451 0.54451 0.2379 0.0
H2026 H 0.19724 0.5343 0.19867 0.0
H2027 H 0.21402 0.50764 0.14852 0.0
H2028 H 0.14259 0.47469 0.0818 0.0
H2029 H 0.10025 0.49761 0.11524 0.0
C2030 C 0.10856 0.52016 0.17479 0.0
C2031 C 0.11625 0.52982 0.20618 0.0
C2032 C 0.13268 0.51393 0.15239 0.0
C2033 C 0.14822 0.5364 0.21404 0.0
C2034 C 0.17254 0.53063 0.19162 0.0
C2035 C 0.18926 0.50705 0.1406 0.0
C2036 C 0.1812 0.48999 0.11267 0.0
C2037 C 0.16506 0.51821 0.16116 0.0
C2038 C 0.14915 0.48832 0.10291 0.0
C2039 C 0.12501 0.50082 0.12236 0.0
H2040 H 0.58259 0.98317 0.83337 0.0
H2041 H 0.64948 0.94655 0.76352 0.0
H2042 H 0.69425 0.96107 0.79874 0.0
H2043 H 0.714 0.99261 0.84502 0.0
H2044 H 0.64635 0.03229 0.91216 0.0
H2045 H 0.60218 0.00727 0.88302 0.0
C2046 C 0.60695 0.97796 0.82595 0.0
C2047 C 0.61274 0.96448 0.7955 0.0
C2048 C 0.63241 0.98675 0.84608 0.0
C2049 C 0.64439 0.95721 0.78666 0.0
C2050 C 0.66997 0.96558 0.80679 0.0
C2051 C 0.68969 0.99437 0.85407 0.0
C2052 C 0.68335 0.0137 0.88104 0.0
C2053 C 0.66429 0.98139 0.83605 0.0
C2054 C 0.65174 0.0169 0.89194 0.0
C2055 C 0.62649 0.00307 0.87492 0.0
H2056 H 0.78573 0.00892 0.36632 0.0
H2057 H 0.86131 0.95865 0.41545 0.0
H2058 H 0.90141 0.99007 0.38697 0.0
H2059 H 0.914 0.02188 0.3405 0.0
H2060 H 0.83866 0.06513 0.28463 0.0
H2061 H 0.79894 0.0469 0.32386 0.0
C2062 C 0.81099 0.00574 0.3716 0.0
C2063 C 0.82092 0.98155 0.39261 0.0
C2064 C 0.83365 0.02202 0.35338 0.0
C2065 C 0.85348 0.97718 0.3992 0.0
C2066 C 0.87624 0.99489 0.38277 0.0
C2067 C 0.88888 0.02757 0.33696 0.0
C2068 C 0.87887 0.04359 0.30919 0.0
C2069 C 0.86649 0.01575 0.35845 0.0
C2070 C 0.84662 0.05214 0.30556 0.0
C2071 C 0.82405 0.04166 0.32788 0.0
H2072 H 0.2876 0.48445 0.62963 0.0
H2073 H 0.3646 0.53332 0.58168 0.0
H2074 H 0.40345 0.5082 0.61741 0.0
H2075 H 0.41406 0.48039 0.66756 0.0
H2076 H 0.33702 0.43393 0.71781 0.0
H2077 H 0.29937 0.45038 0.6759 0.0
C2078 C 0.31299 0.48862 0.62614 0.0
C2079 C 0.32329 0.51083 0.60315 0.0
C2080 C 0.33494 0.47549 0.64789 0.0
C2081 C 0.35621 0.51627 0.59918 0.0
C2082 C 0.37832 0.5023 0.6199 0.0
C2083 C 0.38903 0.47377 0.66936 0.0
C2084 C 0.37807 0.45679 0.69619 0.0
C2085 C 0.36771 0.48333 0.64535 0.0
C2086 C 0.34584 0.44748 0.69763 0.0
C2087 C 0.32439 0.45678 0.67365 0.0
H2088 H 0.85228 0.78601 0.50081 0.0
H2089 H 0.90155 0.85889 0.5544 0.0
H2090 H 0.86928 0.89999 0.52827 0.0
H2091 H 0.82208 0.91419 0.49655 0.0
H2092 H 0.77037 0.84112 0.44526 0.0
H2093 H 0.80834 0.80098 0.46438 0.0
C2094 C 0.85685 0.81099 0.50569 0.0
C2095 C 0.87955 0.81955 0.52913 0.0
C2096 C 0.83698 0.83429 0.49188 0.0
C2097 C 0.88458 0.8519 0.53604 0.0
C2098 C 0.86576 0.87529 0.5215 0.0
C2099 C 0.81908 0.8895 0.48945 0.0
C2100 C 0.79299 0.88059 0.46998 0.0
C2101 C 0.84095 0.86661 0.50054 0.0
C2102 C 0.78999 0.84858 0.4605 0.0
C2103 C 0.81177 0.82564 0.47134 0.0
H2104 H 0.63748 0.21241 0.98168 0.0
H2105 H 0.58536 0.13317 0.021 0.0
H2106 H 0.61747 0.0961 0.98903 0.0
H2107 H 0.66796 0.08637 0.96146 0.0
H2108 H 0.72476 0.16504 0.92776 0.0
H2109 H 0.68315 0.20251 0.94571 0.0
C2110 C 0.63218 0.18712 0.98199 0.0
C2111 C 0.60924 0.17531 0.00358 0.0
C2112 C 0.65238 0.16597 0.9655 0.0
C2113 C 0.60282 0.14258 0.00435 0.0
C2114 C 0.62152 0.12146 0.98649 0.0
C2115 C 0.67104 0.11174 0.95765 0.0
C2116 C 0.69974 0.12322 0.94446 0.0
C2117 C 0.64768 0.13285 0.96888 0.0
C2118 C 0.70304 0.15586 0.93846 0.0
C2119 C 0.67932 0.17718 0.94877 0.0
H2120 H 0.28819 0.64571 0.55136 0.0
H2121 H 0.29839 0.56854 0.4829 0.0
H2122 H 0.34164 0.59571 0.457 0.0
H2123 H 0.37374 0.6425 0.44969 0.0
H2124 H 0.36177 0.72341 0.5125 0.0
H2125 H 0.3239 0.69319 0.54529 0.0
C2126 C 0.2999 0.63493 0.53082 0.0
C2127 C 0.28945 0.60509 0.51925 0.0
C2128 C 0.32509 0.65111 0.51509 0.0
C2129 C 0.30526 0.59151 0.49255 0.0
C2130 C 0.33042 0.60692 0.4776 0.0
C2131 C 0.36339 0.65342 0.47094 0.0
C2132 C 0.37029 0.68528 0.47821 0.0
C2133 C 0.3402 0.63682 0.48828 0.0
C2134 C 0.35698 0.69884 0.50619 0.0
C2135 C 0.33482 0.68173 0.52468 0.0
H2136 H 0.16209 0.41341 0.03012 0.0
H2137 H 0.22189 0.33741 0.06553 0.0
H2138 H 0.18217 0.29816 0.04765 0.0
H2139 H 0.13699 0.286 0.01162 0.0
H2140 H 0.08185 0.36274 0.97088 0.0
H2141 H 0.11252 0.40146 0.00209 0.0
C2142 C 0.16624 0.38824 0.03431 0.0
C2143 C 0.19522 0.37804 0.04799 0.0
C2144 C 0.14401 0.36611 0.02307 0.0
C2145 C 0.19991 0.34562 0.05445 0.0
C2146 C 0.17728 0.32327 0.04416 0.0
C2147 C 0.13087 0.31111 0.01074 0.0
C2148 C 0.10743 0.32179 0.98908 0.0
C2149 C 0.15009 0.33323 0.02699 0.0
C2150 C 0.09983 0.35426 0.98754 0.0
C2151 C 0.1176 0.37631 0.00504 0.0
H2152 H 0.53483 0.89003 0.84867 0.0
H2153 H 0.46125 0.88638 0.77646 0.0
H2154 H 0.43611 0.84127 0.80414 0.0
H2155 H 0.44042 0.79772 0.845 0.0
H2156 H 0.52359 0.79697 0.90699 0.0
H2157 H 0.54088 0.84707 0.88558 0.0
C2158 C 0.5128 0.87986 0.83934 0.0
C2159 C 0.50019 0.89134 0.81048 0.0
C2160 C 0.50118 0.85178 0.85266 0.0
C2161 C 0.47144 0.87818 0.79884 0.0
C2162 C 0.4576 0.85176 0.81416 0.0
C2163 C 0.46237 0.80835 0.85362 0.0
C2164 C 0.47995 0.79366 0.87844 0.0
C2165 C 0.47327 0.83728 0.84022 0.0
C2166 C 0.50893 0.80772 0.88851 0.0
C2167 C 0.51888 0.83671 0.87651 0.0
H2168 H 0.01395 0.13572 0.28676 0.0
H2169 H 0.96815 0.09776 0.37091 0.0
H2170 H -0.00159 0.13462 0.40478 0.0
H2171 H 0.02776 0.18432 0.40861 0.0
H2172 H 0.06835 0.22726 0.32425 0.0
H2173 H 0.05039 0.18155 0.29184 0.0
C2174 C 0.01174 0.13465 0.31265 0.0
C2175 C 0.98906 0.1142 0.3266 0.0
C2176 C 0.02734 0.15747 0.33154 0.0
C2177 C 0.98571 0.11324 0.35996 0.0
C2178 C 0.00263 0.13458 0.37915 0.0
C2179 C 0.03284 0.18358 0.3831 0.0
C2180 C 0.04807 0.20947 0.36833 0.0
C2181 C 0.02179 0.15799 0.36492 0.0
C2182 C 0.05591 0.20779 0.33575 0.0
C2183 C 0.04567 0.18174 0.31738 0.0
H2184 H 0.98686 0.63002 0.21185 0.0
H2185 H 0.03741 0.57838 0.13811 0.0
H2186 H 0.01772 0.61571 0.0977 0.0
H2187 H 0.99303 0.66702 0.08505 0.0
H2188 H 0.94565 0.72115 0.15945 0.0
H2189 H 0.9576 0.67913 0.19811 0.0
C2190 C 0.99229 0.6262 0.18669 0.0
C2191 C 0.01292 0.60119 0.17769 0.0
C2192 C 0.98254 0.64891 0.16403 0.0
C2193 C 0.02091 0.59706 0.1453 0.0
C2194 C 0.01017 0.61874 0.12237 0.0
C2195 C 0.98527 0.66972 0.10972 0.0
C2196 C 0.96896 0.69754 0.11946 0.0
C2197 C 0.99223 0.64552 0.13174 0.0
C2198 C 0.95855 0.7002 0.15138 0.0
C2199 C 0.96524 0.67609 0.17346 0.0
H2200 H 0.51198 0.35943 0.71405 0.0
H2201 H 0.46425 0.39933 0.63171 0.0
H2202 H 0.49401 0.36336 0.59641 0.0
H2203 H 0.5245 0.31415 0.59053 0.0
H2204 H 0.56945 0.271 0.67264 0.0
H2205 H 0.54988 0.31478 0.70681 0.0
C2206 C 0.50914 0.36115 0.68826 0.0
C2207 C 0.48591 0.38184 0.67534 0.0
C2208 C 0.52494 0.33912 0.66837 0.0
C2209 C 0.48207 0.3836 0.64202 0.0
C2210 C 0.49873 0.36276 0.62195 0.0
C2211 C 0.5302 0.31447 0.61591 0.0
C2212 C 0.54731 0.28901 0.62949 0.0
C2213 C 0.51866 0.33928 0.63511 0.0
C2214 C 0.55571 0.29015 0.66199 0.0
C2215 C 0.54455 0.31513 0.68139 0.0
H2216 H 0.78713 0.51907 0.83742 0.0
H2217 H 0.86064 0.53781 0.90775 0.0
H2218 H 0.90042 0.51196 0.873 0.0
H2219 H 0.91373 0.48449 0.82307 0.0
H2220 H 0.84005 0.46343 0.75367 0.0
H2221 H 0.80005 0.48914 0.78848 0.0
C2222 C 0.81198 0.51792 0.84496 0.0
C2223 C 0.82129 0.53089 0.87474 0.0
C2224 C 0.8342 0.50216 0.82547 0.0
C2225 C 0.8532 0.52834 0.88473 0.0
C2226 C 0.87576 0.51344 0.86501 0.0
C2227 C 0.88884 0.48541 0.81558 0.0
C2228 C 0.87968 0.47251 0.78578 0.0
C2229 C 0.86642 0.50023 0.83547 0.0
C2230 C 0.84744 0.47318 0.77658 0.0
C2231 C 0.82479 0.48811 0.79629 0.0
H2232 H 0.34596 0.99286 0.08438 0.0
H2233 H 0.26205 0.99435 0.14468 0.0
H2234 H 0.28993 0.02581 0.18475 0.0
H2235 H 0.34048 0.04532 0.20666 0.0
H2236 H 0.42558 0.0414 0.14849 0.0
H2237 H 0.39511 0.01962 0.10358 0.0
C2238 C 0.33388 0.00055 0.10609 0.0
C2239 C 0.30259 0.9905 0.11216 0.0
C2240 C 0.35027 0.01827 0.12956 0.0
C2241 C 0.28671 0.00098 0.14009 0.0
C2242 C 0.30246 0.01917 0.16296 0.0
C2243 C 0.35196 0.04065 0.18378 0.0
C2244 C 0.38498 0.04436 0.18082 0.0
C2245 C 0.33461 0.02688 0.15858 0.0
C2246 C 0.39998 0.0382 0.15121 0.0
C2247 C 0.38268 0.02558 0.12561 0.0
H2248 H 0.20238 0.98738 0.63023 0.0
H2249 H 0.11993 0.03987 0.59687 0.0
H2250 H 0.08573 0.01063 0.63398 0.0
H2251 H 0.08129 0.97775 0.68164 0.0
H2252 H 0.16384 0.92763 0.71811 0.0
H2253 H 0.19633 0.94855 0.67386 0.0
C2254 C 0.17672 0.99156 0.63017 0.0
C2255 C 0.1636 0.01584 0.6109 0.0
C2256 C 0.15759 0.97592 0.65281 0.0
C2257 C 0.13044 0.02126 0.61141 0.0
C2258 C 0.11103 0.00486 0.63292 0.0
C2259 C 0.10642 0.97129 0.67994 0.0
C2260 C 0.12053 0.95207 0.70366 0.0
C2261 C 0.12469 0.98349 0.6548 0.0
C2262 C 0.1527 0.94291 0.70045 0.0
C2263 C 0.17116 0.95481 0.67516 0.0
H2264 H 0.58668 0.53015 0.32035 0.0
H2265 H 0.67288 0.57076 0.28116 0.0
H2266 H 0.70413 0.54709 0.3251 0.0
H2267 H 0.70752 0.50617 0.3672 0.0
H2268 H 0.62152 0.45983 0.40008 0.0
H2269 H 0.58916 0.49489 0.36627 0.0
C2270 C 0.61231 0.53423 0.32164 0.0
C2271 C 0.62776 0.55135 0.29716 0.0
C2272 C 0.62995 0.51935 0.34575 0.0
C2273 C 0.66065 0.55736 0.29958 0.0
C2274 C 0.67843 0.54363 0.32454 0.0
C2275 C 0.68159 0.50459 0.36787 0.0
C2276 C 0.66672 0.48058 0.38616 0.0
C2277 C 0.66347 0.52332 0.34677 0.0
C2278 C 0.63328 0.47825 0.38633 0.0
C2279 C 0.61492 0.49807 0.3668 0.0
loop_
_geom_bond_atom_site_label_1
_geom_bond_atom_site_label_2
_geom_bond_distance
_geom_bond_site_symmetry_2
_ccdc_geom_bond_type
C0 O27 1.312 . S
C0 O28 1.208 . S
C1 O22 1.331 . S
C1 O25 1.244 . S
C2 O24 1.264 . S
C2 O26 1.273 . S
Mg3 O5 1.936 . S
Mg3 O12 2.081 . S
Mg3 O14 2.023 . S
Mg3 O18 2.031 . S
Mg3 O27 2.291 . S
Mg4 O5 1.963 . S
Mg4 O15 1.942 . S
Mg4 O16 1.955 . S
Mg4 O23 1.986 . S
O5 Mg3 1.936 . S
O5 Mg4 1.963 . S
O5 Mg6 1.915 . S
Mg6 O5 1.915 . S
Mg6 O7 1.915 . S
Mg6 O11 2.013 . S
Mg6 O17 2.114 . S
Mg6 O21 2.013 . S
Mg6 O27 2.114 . S
O7 Mg6 1.915 . S
O7 Mg8 1.936 . S
O7 Mg9 1.963 . S
Mg8 O7 1.936 . S
Mg8 O17 2.291 . S
Mg8 O22 2.081 . S
Mg8 O24 2.023 . S
Mg8 O28 2.031 . S
Mg9 O7 1.963 . S
Mg9 O13 1.986 . S
Mg9 O25 1.942 . S
Mg9 O26 1.955 . S
C10 O21 1.191 . S
C10 O23 1.307 . S
O11 Mg6 2.013 . S
O11 C30 1.191 . S
O12 Mg3 2.081 . S
O12 C20 1.331 1_455 S
O13 Mg9 1.986 . S
O13 C30 1.307 . S
O14 Mg3 2.023 . S
O14 C29 1.264 . S
O15 Mg4 1.942 . S
O15 C20 1.244 1_455 S
O16 Mg4 1.955 . S
O16 C29 1.273 . S
O17 Mg6 2.114 . S
O17 Mg8 2.291 . S
O17 C19 1.312 . S
O18 Mg3 2.031 . S
O18 C19 1.208 . S
C19 O17 1.312 . S
C19 O18 1.208 . S
C20 O12 1.331 1_655 S
C20 O15 1.244 1_655 S
O21 Mg6 2.013 . S
O21 C10 1.191 . S
O22 C1 1.331 . S
O22 Mg8 2.081 . S
O23 Mg4 1.986 . S
O23 C10 1.307 . S
O24 C2 1.264 . S
O24 Mg8 2.023 . S
O25 C1 1.244 . S
O25 Mg9 1.942 . S
O26 C2 1.273 . S
O26 Mg9 1.955 . S
O27 C0 1.312 . S
O27 Mg3 2.291 . S
O27 Mg6 2.114 . S
O28 C0 1.208 . S
O28 Mg8 2.031 . S
C29 O14 1.264 . S
C29 O16 1.273 . S
C30 O11 1.191 . S
C30 O13 1.307 . S
C31 O58 1.312 . S
C31 O59 1.208 . S
C32 O53 1.331 . S
C32 O56 1.244 . S
C33 O55 1.264 . S
C33 O57 1.282 . S
Mg34 O36 1.936 . S
Mg34 O43 2.081 . S
Mg34 O45 2.023 . S
Mg34 O49 2.031 . S
Mg34 O58 2.291 . S
Mg35 O36 1.963 . S
Mg35 O46 1.942 . S
Mg35 O47 1.955 . S
Mg35 O54 1.986 . S
O36 Mg34 1.936 . S
O36 Mg35 1.963 . S
O36 Mg37 1.915 . S
Mg37 O36 1.915 . S
Mg37 O38 1.915 . S
Mg37 O42 2.013 . S
Mg37 O48 2.114 . S
Mg37 O52 2.013 . S
Mg37 O58 2.114 . S
O38 Mg37 1.915 . S
O38 Mg39 1.936 . S
O38 Mg40 1.963 . S
Mg39 O38 1.936 . S
Mg39 O48 2.291 . S
Mg39 O53 2.081 . S
Mg39 O55 2.023 1_556 S
Mg39 O59 2.031 . S
Mg40 O38 1.963 . S
Mg40 O44 1.986 . S
Mg40 O56 1.942 . S
Mg40 O57 1.936 1_556 S
C41 O52 1.191 . S
C41 O54 1.307 . S
O42 Mg37 2.013 . S
O42 C61 1.191 . S
O43 Mg34 2.081 . S
O43 C51 1.331 . S
O44 Mg40 1.986 . S
O44 C61 1.307 . S
O45 Mg34 2.023 . S
O45 C60 1.264 . S
O46 Mg35 1.942 . S
O46 C51 1.244 . S
O47 Mg35 1.955 . S
O47 C60 1.273 . S
O48 Mg37 2.114 . S
O48 Mg39 2.291 . S
O48 C50 1.312 . S
O49 Mg34 2.031 . S
O49 C50 1.208 . S
C50 O48 1.312 . S
C50 O49 1.208 . S
C51 O43 1.331 . S
C51 O46 1.244 . S
O52 Mg37 2.013 . S
O52 C41 1.191 . S
O53 C32 1.331 . S
O53 Mg39 2.081 . S
O54 Mg35 1.986 . S
O54 C41 1.307 . S
O55 C33 1.264 . S
O55 Mg39 2.023 1_554 S
O56 C32 1.244 . S
O56 Mg40 1.942 . S
O57 C33 1.282 . S
O57 Mg40 1.936 1_554 S
O58 C31 1.312 . S
O58 Mg34 2.291 . S
O58 Mg37 2.114 . S
O59 C31 1.208 . S
O59 Mg39 2.031 . S
C60 O45 1.264 . S
C60 O47 1.273 . S
C61 O42 1.191 . S
C61 O44 1.307 . S
C62 O89 1.312 . S
C62 O90 1.208 . S
C63 O84 1.331 . S
C63 O87 1.244 . S
C64 O86 1.264 . S
C64 O88 1.273 . S
Mg65 O67 1.936 . S
Mg65 O74 2.081 . S
Mg65 O76 2.023 . S
Mg65 O80 2.031 . S
Mg65 O89 2.291 . S
Mg66 O67 1.963 . S
Mg66 O77 1.942 . S
Mg66 O78 1.955 . S
Mg66 O85 1.986 . S
O67 Mg65 1.936 . S
O67 Mg66 1.963 . S
O67 Mg68 1.915 . S
Mg68 O67 1.915 . S
Mg68 O69 1.915 . S
Mg68 O73 2.013 . S
Mg68 O79 2.114 . S
Mg68 O83 2.013 . S
Mg68 O89 2.114 . S
O69 Mg68 1.915 . S
O69 Mg70 1.936 . S
O69 Mg71 1.963 . S
Mg70 O69 1.936 . S
Mg70 O79 2.291 . S
Mg70 O84 2.081 . S
Mg70 O86 2.023 . S
Mg70 O90 2.031 . S
Mg71 O69 1.963 . S
Mg71 O75 1.986 . S
Mg71 O87 1.942 . S
Mg71 O88 1.955 . S
C72 O83 1.191 . S
C72 O85 1.307 . S
O73 Mg68 2.013 . S
O73 C92 1.191 . S
O74 Mg65 2.081 . S
O74 C82 1.331 . S
O75 Mg71 1.986 . S
O75 C92 1.307 . S
O76 Mg65 2.023 . S
O76 C91 1.264 . S
O77 Mg66 1.942 . S
O77 C82 1.244 . S
O78 Mg66 1.955 . S
O78 C91 1.273 . S
O79 Mg68 2.114 . S
O79 Mg70 2.291 . S
O79 C81 1.312 . S
O80 Mg65 2.031 . S
O80 C81 1.208 . S
C81 O79 1.312 . S
C81 O80 1.208 . S
C82 O74 1.331 . S
C82 O77 1.244 . S
O83 Mg68 2.013 . S
O83 C72 1.191 . S
O84 C63 1.331 . S
O84 Mg70 2.081 . S
O85 Mg66 1.986 . S
O85 C72 1.307 . S
O86 C64 1.264 . S
O86 Mg70 2.023 . S
O87 C63 1.244 . S
O87 Mg71 1.942 . S
O88 C64 1.273 . S
O88 Mg71 1.955 . S
O89 C62 1.312 . S
O89 Mg65 2.291 . S
O89 Mg68 2.114 . S
O90 C62 1.208 . S
O90 Mg70 2.031 . S
C91 O76 1.264 . S
C91 O78 1.273 . S
C92 O73 1.191 . S
C92 O75 1.307 . S
C93 O120 1.312 . S
C93 O121 1.208 . S
C94 O115 1.331 1_455 S
C94 O118 1.244 1_455 S
C95 O117 1.264 . S
C95 O119 1.282 . S
Mg96 O98 1.936 . S
Mg96 O105 2.081 . S
Mg96 O107 2.023 . S
Mg96 O111 2.031 . S
Mg96 O120 2.291 . S
Mg97 O98 1.963 . S
Mg97 O108 1.942 . S
Mg97 O109 1.955 . S
Mg97 O116 1.986 . S
O98 Mg96 1.936 . S
O98 Mg97 1.963 . S
O98 Mg99 1.915 . S
Mg99 O98 1.915 . S
Mg99 O100 1.915 . S
Mg99 O104 2.013 . S
Mg99 O110 2.114 . S
Mg99 O114 2.013 . S
Mg99 O120 2.114 . S
O100 Mg99 1.915 . S
O100 Mg101 1.936 . S
O100 Mg102 1.963 . S
Mg101 O100 1.936 . S
Mg101 O110 2.291 . S
Mg101 O115 2.081 . S
Mg101 O117 2.023 1_554 S
Mg101 O121 2.031 . S
Mg102 O100 1.963 . S
Mg102 O106 1.986 . S
Mg102 O118 1.942 . S
Mg102 O119 1.936 1_554 S
C103 O114 1.191 . S
C103 O116 1.307 . S
O104 Mg99 2.013 . S
O104 C123 1.191 . S
O105 Mg96 2.081 . S
O105 C113 1.331 . S
O106 Mg102 1.986 . S
O106 C123 1.307 . S
O107 Mg96 2.023 . S
O107 C122 1.264 . S
O108 Mg97 1.942 . S
O108 C113 1.244 . S
O109 Mg97 1.955 . S
O109 C122 1.273 . S
O110 Mg99 2.114 . S
O110 Mg101 2.291 . S
O110 C112 1.312 . S
O111 Mg96 2.031 . S
O111 C112 1.208 . S
C112 O110 1.312 . S
C112 O111 1.208 . S
C113 O105 1.331 . S
C113 O108 1.244 . S
O114 Mg99 2.013 . S
O114 C103 1.191 . S
O115 C94 1.331 1_655 S
O115 Mg101 2.081 . S
O116 Mg97 1.986 . S
O116 C103 1.307 . S
O117 C95 1.264 . S
O117 Mg101 2.023 1_556 S
O118 C94 1.244 1_655 S
O118 Mg102 1.942 . S
O119 C95 1.282 . S
O119 Mg102 1.936 1_556 S
O120 C93 1.312 . S
O120 Mg96 2.291 . S
O120 Mg99 2.114 . S
O121 C93 1.208 . S
O121 Mg101 2.031 . S
C122 O107 1.264 . S
C122 O109 1.273 . S
C123 O104 1.191 . S
C123 O106 1.307 . S
C124 O151 1.312 . S
C124 O152 1.208 . S
C125 O146 1.331 . S
C125 O149 1.244 . S
C126 O148 1.264 . S
C126 O150 1.273 . S
Mg127 O129 1.936 . S
Mg127 O136 2.081 . S
Mg127 O138 2.023 . S
Mg127 O142 2.031 . S
Mg127 O151 2.291 . S
Mg128 O129 1.963 . S
Mg128 O139 1.942 . S
Mg128 O140 1.955 . S
Mg128 O147 1.986 . S
O129 Mg127 1.936 . S
O129 Mg128 1.963 . S
O129 Mg130 1.915 . S
Mg130 O129 1.915 . S
Mg130 O131 1.915 . S
Mg130 O135 2.013 . S
Mg130 O141 2.114 . S
Mg130 O145 2.013 . S
Mg130 O151 2.114 . S
O131 Mg130 1.915 . S
O131 Mg132 1.936 . S
O131 Mg133 1.963 . S
Mg132 O131 1.936 . S
Mg132 O141 2.291 . S
Mg132 O146 2.081 . S
Mg132 O148 2.023 . S
Mg132 O152 2.031 . S
Mg133 O131 1.963 . S
Mg133 O137 1.986 . S
Mg133 O149 1.942 . S
Mg133 O150 1.955 . S
C134 O145 1.191 . S
C134 O147 1.307 . S
O135 Mg130 2.013 . S
O135 C154 1.191 . S
O136 Mg127 2.081 . S
O136 C144 1.331 1_545 S
O137 Mg133 1.986 . S
O137 C154 1.307 . S
O138 Mg127 2.023 . S
O138 C153 1.264 . S
O139 Mg128 1.942 . S
O139 C144 1.244 1_545 S
O140 Mg128 1.955 . S
O140 C153 1.273 . S
O141 Mg130 2.114 . S
O141 Mg132 2.291 . S
O141 C143 1.312 . S
O142 Mg127 2.031 . S
O142 C143 1.208 . S
C143 O141 1.312 . S
C143 O142 1.208 . S
C144 O136 1.331 1_565 S
C144 O139 1.244 1_565 S
O145 Mg130 2.013 . S
O145 C134 1.191 . S
O146 C125 1.331 . S
O146 Mg132 2.081 . S
O147 Mg128 1.986 . S
O147 C134 1.307 . S
O148 C126 1.264 . S
O148 Mg132 2.023 . S
O149 C125 1.244 . S
O149 Mg133 1.942 . S
O150 C126 1.273 . S
O150 Mg133 1.955 . S
O151 C124 1.312 . S
O151 Mg127 2.291 . S
O151 Mg130 2.114 . S
O152 C124 1.208 . S
O152 Mg132 2.031 . S
C153 O138 1.264 . S
C153 O140 1.273 . S
C154 O135 1.191 . S
C154 O137 1.307 . S
C155 O182 1.312 . S
C155 O183 1.208 . S
C156 O177 1.331 . S
C156 O180 1.244 . S
C157 O179 1.264 . S
C157 O181 1.273 . S
Mg158 O160 1.936 . S
Mg158 O167 2.081 . S
Mg158 O169 2.059 . S
Mg158 O173 2.031 . S
Mg158 O182 2.291 . S
Mg159 O160 1.963 . S
Mg159 O170 1.942 . S
Mg159 O171 1.974 . S
Mg159 O178 1.986 . S
O160 Mg158 1.936 . S
O160 Mg159 1.963 . S
O160 Mg161 1.915 . S
Mg161 O160 1.915 . S
Mg161 O162 1.915 . S
Mg161 O166 2.013 . S
Mg161 O172 2.114 . S
Mg161 O176 2.013 . S
Mg161 O182 2.114 . S
O162 Mg161 1.915 . S
O162 Mg163 1.936 . S
O162 Mg164 1.963 . S
Mg163 O162 1.936 . S
Mg163 O172 2.291 . S
Mg163 O177 2.081 . S
Mg163 O179 2.023 . S
Mg163 O183 2.031 . S
Mg164 O162 1.963 . S
Mg164 O168 1.986 . S
Mg164 O180 1.942 . S
Mg164 O181 1.955 . S
C165 O176 1.191 . S
C165 O178 1.307 . S
O166 Mg161 2.013 . S
O166 C185 1.191 . S
O167 Mg158 2.081 . S
O167 C175 1.331 1_565 S
O168 Mg164 1.986 . S
O168 C185 1.307 . S
O169 Mg158 2.059 . S
O169 C184 1.248 1_455 S
O170 Mg159 1.942 . S
O170 C175 1.244 1_565 S
O171 Mg159 1.974 . S
O171 C184 1.265 1_455 S
O172 Mg161 2.114 . S
O172 Mg163 2.291 . S
O172 C174 1.312 . S
O173 Mg158 2.031 . S
O173 C174 1.208 . S
C174 O172 1.312 . S
C174 O173 1.208 . S
C175 O167 1.331 1_545 S
C175 O170 1.244 1_545 S
O176 Mg161 2.013 . S
O176 C165 1.191 . S
O177 C156 1.331 . S
O177 Mg163 2.081 . S
O178 Mg159 1.986 . S
O178 C165 1.307 . S
O179 C157 1.264 . S
O179 Mg163 2.023 . S
O180 C156 1.244 . S
O180 Mg164 1.942 . S
O181 C157 1.273 . S
O181 Mg164 1.955 . S
O182 C155 1.312 . S
O182 Mg158 2.291 . S
O182 Mg161 2.114 . S
O183 C155 1.208 . S
O183 Mg163 2.031 . S
C184 O169 1.248 1_655 S
C184 O171 1.265 1_655 S
C185 O166 1.191 . S
C185 O168 1.307 . S
C186 O213 1.312 . S
C186 O214 1.208 . S
C187 O208 1.331 . S
C187 O211 1.244 . S
C188 O210 1.270 . S
C188 O212 1.273 . S
Mg189 O191 1.936 . S
Mg189 O198 2.081 . S
Mg189 O200 2.023 . S
Mg189 O204 2.031 . S
Mg189 O213 2.291 . S
Mg190 O191 1.963 . S
Mg190 O201 1.942 . S
Mg190 O202 1.955 . S
Mg190 O209 1.986 . S
O191 Mg189 1.936 . S
O191 Mg190 1.963 . S
O191 Mg192 1.915 . S
Mg192 O191 1.915 . S
Mg192 O193 1.915 . S
Mg192 O197 2.013 . S
Mg192 O203 2.114 . S
Mg192 O207 2.013 . S
Mg192 O213 2.114 . S
O193 Mg192 1.915 . S
O193 Mg194 1.936 . S
O193 Mg195 1.963 . S
Mg194 O193 1.936 . S
Mg194 O203 2.291 . S
Mg194 O208 2.081 . S
Mg194 O210 2.011 1_655 S
Mg194 O214 2.031 . S
Mg195 O193 1.963 . S
Mg195 O199 1.986 . S
Mg195 O211 1.942 . S
Mg195 O212 1.955 1_655 S
C196 O207 1.191 . S
C196 O209 1.307 . S
O197 Mg192 2.013 . S
O197 C216 1.191 . S
O198 Mg189 2.081 . S
O198 C206 1.331 . S
O199 Mg195 1.986 . S
O199 C216 1.307 . S
O200 Mg189 2.023 . S
O200 C215 1.264 . S
O201 Mg190 1.942 . S
O201 C206 1.244 . S
O202 Mg190 1.955 . S
O202 C215 1.273 . S
O203 Mg192 2.114 . S
O203 Mg194 2.291 . S
O203 C205 1.312 . S
O204 Mg189 2.031 . S
O204 C205 1.208 . S
C205 O203 1.312 . S
C205 O204 1.208 . S
C206 O198 1.331 . S
C206 O201 1.244 . S
O207 Mg192 2.013 . S
O207 C196 1.191 . S
O208 C187 1.331 . S
O208 Mg194 2.081 . S
O209 Mg190 1.986 . S
O209 C196 1.307 . S
O210 C188 1.270 . S
O210 Mg194 2.011 1_455 S
O211 C187 1.244 . S
O211 Mg195 1.942 . S
O212 C188 1.273 . S
O212 Mg195 1.955 1_455 S
O213 C186 1.312 . S
O213 Mg189 2.291 . S
O213 Mg192 2.114 . S
O214 C186 1.208 . S
O214 Mg194 2.031 . S
C215 O200 1.264 . S
C215 O202 1.273 . S
C216 O197 1.191 . S
C216 O199 1.307 . S
C217 O244 1.312 . S
C217 O245 1.208 . S
C218 O239 1.331 . S
C218 O242 1.244 . S
C219 O241 1.264 . S
C219 O243 1.273 . S
Mg220 O222 1.936 . S
Mg220 O229 2.081 . S
Mg220 O231 2.023 . S
Mg220 O235 2.031 . S
Mg220 O244 2.291 . S
Mg221 O222 1.963 . S
Mg221 O232 1.942 . S
Mg221 O233 1.955 . S
Mg221 O240 1.986 . S
O222 Mg220 1.936 . S
O222 Mg221 1.963 . S
O222 Mg223 1.915 . S
Mg223 O222 1.915 . S
Mg223 O224 1.915 . S
Mg223 O228 2.013 . S
Mg223 O234 2.114 . S
Mg223 O238 2.013 . S
Mg223 O244 2.114 . S
O224 Mg223 1.915 . S
O224 Mg225 1.936 . S
O224 Mg226 1.963 . S
Mg225 O224 1.936 . S
Mg225 O234 2.291 . S
Mg225 O239 2.081 . S
Mg225 O241 2.023 . S
Mg225 O245 2.031 . S
Mg226 O224 1.963 . S
Mg226 O230 1.986 . S
Mg226 O242 1.942 . S
Mg226 O243 1.955 . S
C227 O238 1.191 . S
C227 O240 1.307 . S
O228 Mg223 2.013 . S
O228 C247 1.191 . S
O229 Mg220 2.081 . S
O229 C237 1.331 . S
O230 Mg226 1.986 . S
O230 C247 1.307 . S
O231 Mg220 2.023 . S
O231 C246 1.264 . S
O232 Mg221 1.942 . S
O232 C237 1.244 . S
O233 Mg221 1.955 . S
O233 C246 1.273 . S
O234 Mg223 2.114 . S
O234 Mg225 2.291 . S
O234 C236 1.312 . S
O235 Mg220 2.031 . S
O235 C236 1.208 . S
C236 O234 1.312 . S
C236 O235 1.208 . S
C237 O229 1.331 . S
C237 O232 1.244 . S
O238 Mg223 2.013 . S
O238 C227 1.191 . S
O239 C218 1.331 . S
O239 Mg225 2.081 . S
O240 Mg221 1.986 . S
O240 C227 1.307 . S
O241 C219 1.264 . S
O241 Mg225 2.023 . S
O242 C218 1.244 . S
O242 Mg226 1.942 . S
O243 C219 1.273 . S
O243 Mg226 1.955 . S
O244 C217 1.312 . S
O244 Mg220 2.291 . S
O244 Mg223 2.114 . S
O245 C217 1.208 . S
O245 Mg225 2.031 . S
C246 O231 1.264 . S
C246 O233 1.273 . S
C247 O228 1.191 . S
C247 O230 1.307 . S
C248 O275 1.312 . S
C248 O276 1.208 . S
C249 O270 1.331 . S
C249 O273 1.244 . S
C250 O272 1.264 . S
C250 O274 1.273 . S
Mg251 O253 1.936 . S
Mg251 O260 2.081 . S
Mg251 O262 2.023 . S
Mg251 O266 2.031 . S
Mg251 O275 2.291 . S
Mg252 O253 1.963 . S
Mg252 O263 1.942 . S
Mg252 O264 1.955 . S
Mg252 O271 1.986 . S
O253 Mg251 1.936 . S
O253 Mg252 1.963 . S
O253 Mg254 1.915 . S
Mg254 O253 1.915 . S
Mg254 O255 1.915 . S
Mg254 O259 2.013 . S
Mg254 O265 2.114 . S
Mg254 O269 2.013 . S
Mg254 O275 2.114 . S
O255 Mg254 1.915 . S
O255 Mg256 1.936 . S
O255 Mg257 1.963 . S
Mg256 O255 1.936 . S
Mg256 O265 2.291 . S
Mg256 O270 2.081 . S
Mg256 O272 2.023 . S
Mg256 O276 2.031 . S
Mg257 O255 1.963 . S
Mg257 O261 1.986 . S
Mg257 O273 1.942 . S
Mg257 O274 1.955 . S
C258 O269 1.191 . S
C258 O271 1.307 . S
O259 Mg254 2.013 . S
O259 C278 1.191 . S
O260 Mg251 2.081 . S
O260 C268 1.331 1_554 S
O261 Mg257 1.986 . S
O261 C278 1.307 . S
O262 Mg251 2.023 . S
O262 C277 1.264 . S
O263 Mg252 1.942 . S
O263 C268 1.244 1_554 S
O264 Mg252 1.955 . S
O264 C277 1.273 . S
O265 Mg254 2.114 . S
O265 Mg256 2.291 . S
O265 C267 1.312 . S
O266 Mg251 2.031 . S
O266 C267 1.208 . S
C267 O265 1.312 . S
C267 O266 1.208 . S
C268 O260 1.331 1_556 S
C268 O263 1.244 1_556 S
O269 Mg254 2.013 . S
O269 C258 1.191 . S
O270 C249 1.331 . S
O270 Mg256 2.081 . S
O271 Mg252 1.986 . S
O271 C258 1.307 . S
O272 C250 1.264 . S
O272 Mg256 2.023 . S
O273 C249 1.244 . S
O273 Mg257 1.942 . S
O274 C250 1.273 . S
O274 Mg257 1.955 . S
O275 C248 1.312 . S
O275 Mg251 2.291 . S
O275 Mg254 2.114 . S
O276 C248 1.208 . S
O276 Mg256 2.031 . S
C277 O262 1.264 . S
C277 O264 1.273 . S
C278 O259 1.191 . S
C278 O261 1.307 . S
C279 O306 1.312 . S
C279 O307 1.208 . S
C280 O301 1.331 . S
C280 O304 1.244 . S
C281 O303 1.264 . S
C281 O305 1.273 . S
Mg282 O284 1.936 . S
Mg282 O291 2.081 . S
Mg282 O293 2.034 . S
Mg282 O297 2.031 . S
Mg282 O306 2.291 . S
Mg283 O284 1.963 . S
Mg283 O294 1.942 . S
Mg283 O295 1.953 1_545 S
Mg283 O302 1.986 . S
O284 Mg282 1.936 . S
O284 Mg283 1.963 . S
O284 Mg285 1.915 . S
Mg285 O284 1.915 . S
Mg285 O286 1.915 . S
Mg285 O290 2.013 . S
Mg285 O296 2.114 . S
Mg285 O300 2.013 . S
Mg285 O306 2.114 . S
O286 Mg285 1.915 . S
O286 Mg287 1.936 . S
O286 Mg288 1.963 . S
Mg287 O286 1.936 . S
Mg287 O296 2.291 . S
Mg287 O301 2.081 . S
Mg287 O303 2.023 . S
Mg287 O307 2.031 . S
Mg288 O286 1.963 . S
Mg288 O292 1.986 . S
Mg288 O304 1.942 . S
Mg288 O305 1.955 . S
C289 O300 1.191 . S
C289 O302 1.307 . S
O290 Mg285 2.013 . S
O290 C309 1.191 . S
O291 Mg282 2.081 . S
O291 C299 1.331 1_556 S
O292 Mg288 1.986 . S
O292 C309 1.307 . S
O293 Mg282 2.034 . S
O293 C308 1.259 1_545 S
O294 Mg283 1.942 . S
O294 C299 1.244 1_556 S
O295 Mg283 1.953 1_565 S
O295 C308 1.274 . S
O296 Mg285 2.114 . S
O296 Mg287 2.291 . S
O296 C298 1.312 . S
O297 Mg282 2.031 . S
O297 C298 1.208 . S
C298 O296 1.312 . S
C298 O297 1.208 . S
C299 O291 1.331 1_554 S
C299 O294 1.244 1_554 S
O300 Mg285 2.013 . S
O300 C289 1.191 . S
O301 C280 1.331 . S
O301 Mg287 2.081 . S
O302 Mg283 1.986 . S
O302 C289 1.307 . S
O303 C281 1.264 . S
O303 Mg287 2.023 . S
O304 C280 1.244 . S
O304 Mg288 1.942 . S
O305 C281 1.273 . S
O305 Mg288 1.955 . S
O306 C279 1.312 . S
O306 Mg282 2.291 . S
O306 Mg285 2.114 . S
O307 C279 1.208 . S
O307 Mg287 2.031 . S
C308 O293 1.259 1_565 S
C308 O295 1.274 . S
C309 O290 1.191 . S
C309 O292 1.307 . S
C310 O337 1.312 . S
C310 O338 1.208 . S
C311 O332 1.331 . S
C311 O335 1.244 . S
C312 O334 1.265 . S
C312 O336 1.286 . S
Mg313 O315 1.936 . S
Mg313 O322 2.081 . S
Mg313 O324 2.023 . S
Mg313 O328 2.031 . S
Mg313 O337 2.291 . S
Mg314 O315 1.963 . S
Mg314 O325 1.942 . S
Mg314 O326 1.955 . S
Mg314 O333 1.986 . S
O315 Mg313 1.936 . S
O315 Mg314 1.963 . S
O315 Mg316 1.915 . S
Mg316 O315 1.915 . S
Mg316 O317 1.915 . S
Mg316 O321 2.013 . S
Mg316 O327 2.114 . S
Mg316 O331 2.013 . S
Mg316 O337 2.114 . S
O317 Mg316 1.915 . S
O317 Mg318 1.936 . S
O317 Mg319 1.963 . S
Mg318 O317 1.936 . S
Mg318 O327 2.291 . S
Mg318 O332 2.081 . S
Mg318 O334 2.021 1_565 S
Mg318 O338 2.031 . S
Mg319 O317 1.963 . S
Mg319 O323 1.986 . S
Mg319 O335 1.942 . S
Mg319 O336 1.927 1_565 S
C320 O331 1.191 . S
C320 O333 1.307 . S
O321 Mg316 2.013 . S
O321 C340 1.191 . S
O322 Mg313 2.081 . S
O322 C330 1.331 . S
O323 Mg319 1.986 . S
O323 C340 1.307 . S
O324 Mg313 2.023 . S
O324 C339 1.264 . S
O325 Mg314 1.942 . S
O325 C330 1.244 . S
O326 Mg314 1.955 . S
O326 C339 1.273 . S
O327 Mg316 2.114 . S
O327 Mg318 2.291 . S
O327 C329 1.312 . S
O328 Mg313 2.031 . S
O328 C329 1.208 . S
C329 O327 1.312 . S
C329 O328 1.208 . S
C330 O322 1.331 . S
C330 O325 1.244 . S
O331 Mg316 2.013 . S
O331 C320 1.191 . S
O332 C311 1.331 . S
O332 Mg318 2.081 . S
O333 Mg314 1.986 . S
O333 C320 1.307 . S
O334 C312 1.265 . S
O334 Mg318 2.021 1_545 S
O335 C311 1.244 . S
O335 Mg319 1.942 . S
O336 C312 1.286 . S
O336 Mg319 1.927 1_545 S
O337 C310 1.312 . S
O337 Mg313 2.291 . S
O337 Mg316 2.114 . S
O338 C310 1.208 . S
O338 Mg318 2.031 . S
C339 O324 1.264 . S
C339 O326 1.273 . S
C340 O321 1.191 . S
C340 O323 1.307 . S
C341 O368 1.312 . S
C341 O369 1.208 . S
C342 O363 1.331 . S
C342 O366 1.244 . S
C343 O365 1.264 . S
C343 O367 1.273 . S
Mg344 O346 1.936 . S
Mg344 O353 2.081 . S
Mg344 O355 2.023 . S
Mg344 O359 2.031 . S
Mg344 O368 2.291 . S
Mg345 O346 1.963 . S
Mg345 O356 1.942 . S
Mg345 O357 1.955 . S
Mg345 O364 1.986 . S
O346 Mg344 1.936 . S
O346 Mg345 1.963 . S
O346 Mg347 1.915 . S
Mg347 O346 1.915 . S
Mg347 O348 1.915 . S
Mg347 O352 2.013 . S
Mg347 O358 2.114 . S
Mg347 O362 2.013 . S
Mg347 O368 2.114 . S
O348 Mg347 1.915 . S
O348 Mg349 1.936 . S
O348 Mg350 1.963 . S
Mg349 O348 1.936 . S
Mg349 O358 2.291 . S
Mg349 O363 2.081 . S
Mg349 O365 2.023 . S
Mg349 O369 2.031 . S
Mg350 O348 1.963 . S
Mg350 O354 1.986 . S
Mg350 O366 1.942 . S
Mg350 O367 1.955 . S
C351 O362 1.191 . S
C351 O364 1.307 . S
O352 Mg347 2.013 . S
O352 C371 1.191 . S
O353 Mg344 2.081 . S
O353 C361 1.331 . S
O354 Mg350 1.986 . S
O354 C371 1.307 . S
O355 Mg344 2.023 . S
O355 C370 1.264 . S
O356 Mg345 1.942 . S
O356 C361 1.244 . S
O357 Mg345 1.955 . S
O357 C370 1.273 . S
O358 Mg347 2.114 . S
O358 Mg349 2.291 . S
O358 C360 1.312 . S
O359 Mg344 2.031 . S
O359 C360 1.208 . S
C360 O358 1.312 . S
C360 O359 1.208 . S
C361 O353 1.331 . S
C361 O356 1.244 . S
O362 Mg347 2.013 . S
O362 C351 1.191 . S
O363 C342 1.331 . S
O363 Mg349 2.081 . S
O364 Mg345 1.986 . S
O364 C351 1.307 . S
O365 C343 1.264 . S
O365 Mg349 2.023 . S
O366 C342 1.244 . S
O366 Mg350 1.942 . S
O367 C343 1.273 . S
O367 Mg350 1.955 . S
O368 C341 1.312 . S
O368 Mg344 2.291 . S
O368 Mg347 2.114 . S
O369 C341 1.208 . S
O369 Mg349 2.031 . S
C370 O355 1.264 . S
C370 O357 1.273 . S
C371 O352 1.191 . S
C371 O354 1.307 . S
C372 O399 1.312 . S
C372 O400 1.208 . S
C373 O394 1.331 1_455 S
C373 O397 1.244 1_455 S
C374 O396 1.264 . S
C374 O398 1.273 . S
Mg375 O377 1.936 . S
Mg375 O384 2.081 . S
Mg375 O386 2.023 . S
Mg375 O390 2.031 . S
Mg375 O399 2.291 . S
Mg376 O377 1.963 . S
Mg376 O387 1.942 . S
Mg376 O388 1.955 . S
Mg376 O395 1.986 . S
O377 Mg375 1.936 . S
O377 Mg376 1.963 . S
O377 Mg378 1.915 . S
Mg378 O377 1.915 . S
Mg378 O379 1.915 . S
Mg378 O383 2.013 . S
Mg378 O389 2.114 . S
Mg378 O393 2.013 . S
Mg378 O399 2.114 . S
O379 Mg378 1.915 . S
O379 Mg380 1.936 . S
O379 Mg381 1.963 . S
Mg380 O379 1.936 . S
Mg380 O389 2.291 . S
Mg380 O394 2.081 . S
Mg380 O396 2.023 . S
Mg380 O400 2.031 . S
Mg381 O379 1.963 . S
Mg381 O385 1.986 . S
Mg381 O397 1.942 . S
Mg381 O398 1.955 . S
C382 O393 1.191 . S
C382 O395 1.307 . S
O383 Mg378 2.013 . S
O383 C402 1.191 . S
O384 Mg375 2.081 . S
O384 C392 1.331 . S
O385 Mg381 1.986 . S
O385 C402 1.307 . S
O386 Mg375 2.023 . S
O386 C401 1.264 . S
O387 Mg376 1.942 . S
O387 C392 1.244 . S
O388 Mg376 1.955 . S
O388 C401 1.273 . S
O389 Mg378 2.114 . S
O389 Mg380 2.291 . S
O389 C391 1.312 . S
O390 Mg375 2.031 . S
O390 C391 1.208 . S
C391 O389 1.312 . S
C391 O390 1.208 . S
C392 O384 1.331 . S
C392 O387 1.244 . S
O393 Mg378 2.013 . S
O393 C382 1.191 . S
O394 C373 1.331 1_655 S
O394 Mg380 2.081 . S
O395 Mg376 1.986 . S
O395 C382 1.307 . S
O396 C374 1.264 . S
O396 Mg380 2.023 . S
O397 C373 1.244 1_655 S
O397 Mg381 1.942 . S
O398 C374 1.273 . S
O398 Mg381 1.955 . S
O399 C372 1.312 . S
O399 Mg375 2.291 . S
O399 Mg378 2.114 . S
O400 C372 1.208 . S
O400 Mg380 2.031 . S
C401 O386 1.264 . S
C401 O388 1.273 . S
C402 O383 1.191 . S
C402 O385 1.307 . S
C403 O430 1.312 . S
C403 O431 1.208 . S
C404 O425 1.331 . S
C404 O428 1.244 . S
C405 O427 1.259 1_556 S
C405 O429 1.274 . S
Mg406 O408 1.936 . S
Mg406 O415 2.081 . S
Mg406 O417 2.023 . S
Mg406 O421 2.031 . S
Mg406 O430 2.291 . S
Mg407 O408 1.963 . S
Mg407 O418 1.942 . S
Mg407 O419 1.955 . S
Mg407 O426 1.986 . S
O408 Mg406 1.936 . S
O408 Mg407 1.963 . S
O408 Mg409 1.915 . S
Mg409 O408 1.915 . S
Mg409 O410 1.915 . S
Mg409 O414 2.013 . S
Mg409 O420 2.114 . S
Mg409 O424 2.013 . S
Mg409 O430 2.114 . S
O410 Mg409 1.915 . S
O410 Mg411 1.936 . S
O410 Mg412 1.963 . S
Mg411 O410 1.936 . S
Mg411 O420 2.291 . S
Mg411 O425 2.081 . S
Mg411 O427 2.034 . S
Mg411 O431 2.031 . S
Mg412 O410 1.963 . S
Mg412 O416 1.986 . S
Mg412 O428 1.942 . S
Mg412 O429 1.953 1_554 S
C413 O424 1.191 . S
C413 O426 1.307 . S
O414 Mg409 2.013 . S
O414 C433 1.191 . S
O415 Mg406 2.081 . S
O415 C423 1.331 . S
O416 Mg412 1.986 . S
O416 C433 1.307 . S
O417 Mg406 2.023 . S
O417 C432 1.264 . S
O418 Mg407 1.942 . S
O418 C423 1.244 . S
O419 Mg407 1.955 . S
O419 C432 1.273 . S
O420 Mg409 2.114 . S
O420 Mg411 2.291 . S
O420 C422 1.312 . S
O421 Mg406 2.031 . S
O421 C422 1.208 . S
C422 O420 1.312 . S
C422 O421 1.208 . S
C423 O415 1.331 . S
C423 O418 1.244 . S
O424 Mg409 2.013 . S
O424 C413 1.191 . S
O425 C404 1.331 . S
O425 Mg411 2.081 . S
O426 Mg407 1.986 . S
O426 C413 1.307 . S
O427 C405 1.259 1_554 S
O427 Mg411 2.034 . S
O428 C404 1.244 . S
O428 Mg412 1.942 . S
O429 C405 1.274 . S
O429 Mg412 1.953 1_556 S
O430 C403 1.312 . S
O430 Mg406 2.291 . S
O430 Mg409 2.114 . S
O431 C403 1.208 . S
O431 Mg411 2.031 . S
C432 O417 1.264 . S
C432 O419 1.273 . S
C433 O414 1.191 . S
C433 O416 1.307 . S
C434 O461 1.312 . S
C434 O462 1.208 . S
C435 O456 1.331 . S
C435 O459 1.244 . S
C436 O458 1.264 . S
C436 O460 1.273 . S
Mg437 O439 1.936 . S
Mg437 O446 2.081 . S
Mg437 O448 2.023 . S
Mg437 O452 2.031 . S
Mg437 O461 2.291 . S
Mg438 O439 1.963 . S
Mg438 O449 1.942 . S
Mg438 O450 1.955 . S
Mg438 O457 1.986 . S
O439 Mg437 1.936 . S
O439 Mg438 1.963 . S
O439 Mg440 1.915 . S
Mg440 O439 1.915 . S
Mg440 O441 1.915 . S
Mg440 O445 2.013 . S
Mg440 O451 2.114 . S
Mg440 O455 2.013 . S
Mg440 O461 2.114 . S
O441 Mg440 1.915 . S
O441 Mg442 1.936 . S
O441 Mg443 1.963 . S
Mg442 O441 1.936 . S
Mg442 O451 2.291 . S
Mg442 O456 2.081 . S
Mg442 O458 2.023 . S
Mg442 O462 2.031 . S
Mg443 O441 1.963 . S
Mg443 O447 1.986 . S
Mg443 O459 1.942 . S
Mg443 O460 1.955 . S
C444 O455 1.191 . S
C444 O457 1.307 . S
O445 Mg440 2.013 . S
O445 C464 1.191 . S
O446 Mg437 2.081 . S
O446 C454 1.331 . S
O447 Mg443 1.986 . S
O447 C464 1.307 . S
O448 Mg437 2.023 . S
O448 C463 1.264 . S
O449 Mg438 1.942 . S
O449 C454 1.244 . S
O450 Mg438 1.955 . S
O450 C463 1.273 . S
O451 Mg440 2.114 . S
O451 Mg442 2.291 . S
O451 C453 1.312 . S
O452 Mg437 2.031 . S
O452 C453 1.208 . S
C453 O451 1.312 . S
C453 O452 1.208 . S
C454 O446 1.331 . S
C454 O449 1.244 . S
O455 Mg440 2.013 . S
O455 C444 1.191 . S
O456 C435 1.331 . S
O456 Mg442 2.081 . S
O457 Mg438 1.986 . S
O457 C444 1.307 . S
O458 C436 1.264 . S
O458 Mg442 2.023 . S
O459 C435 1.244 . S
O459 Mg443 1.942 . S
O460 C436 1.273 . S
O460 Mg443 1.955 . S
O461 C434 1.312 . S
O461 Mg437 2.291 . S
O461 Mg440 2.114 . S
O462 C434 1.208 . S
O462 Mg442 2.031 . S
C463 O448 1.264 . S
C463 O450 1.273 . S
C464 O445 1.191 . S
C464 O447 1.307 . S
C465 O492 1.312 . S
C465 O493 1.208 . S
C466 O487 1.331 . S
C466 O490 1.244 . S
C467 O489 1.264 . S
C467 O491 1.273 . S
Mg468 O470 1.936 . S
Mg468 O477 2.081 . S
Mg468 O479 2.034 . S
Mg468 O483 2.031 . S
Mg468 O492 2.291 . S
Mg469 O470 1.963 . S
Mg469 O480 1.942 . S
Mg469 O481 1.953 1_556 S
Mg469 O488 1.986 . S
O470 Mg468 1.936 . S
O470 Mg469 1.963 . S
O470 Mg471 1.915 . S
Mg471 O470 1.915 . S
Mg471 O472 1.915 . S
Mg471 O476 2.013 . S
Mg471 O482 2.114 . S
Mg471 O486 2.013 . S
Mg471 O492 2.114 . S
O472 Mg471 1.915 . S
O472 Mg473 1.936 . S
O472 Mg474 1.963 . S
Mg473 O472 1.936 . S
Mg473 O482 2.291 . S
Mg473 O487 2.081 . S
Mg473 O489 2.023 . S
Mg473 O493 2.031 . S
Mg474 O472 1.963 . S
Mg474 O478 1.986 . S
Mg474 O490 1.942 . S
Mg474 O491 1.955 . S
C475 O486 1.191 . S
C475 O488 1.307 . S
O476 Mg471 2.013 . S
O476 C495 1.191 . S
O477 Mg468 2.081 . S
O477 C485 1.331 1_455 S
O478 Mg474 1.986 . S
O478 C495 1.307 . S
O479 Mg468 2.034 . S
O479 C494 1.259 1_556 S
O480 Mg469 1.942 . S
O480 C485 1.244 1_455 S
O481 Mg469 1.953 1_554 S
O481 C494 1.274 . S
O482 Mg471 2.114 . S
O482 Mg473 2.291 . S
O482 C484 1.312 . S
O483 Mg468 2.031 . S
O483 C484 1.208 . S
C484 O482 1.312 . S
C484 O483 1.208 . S
C485 O477 1.331 1_655 S
C485 O480 1.244 1_655 S
O486 Mg471 2.013 . S
O486 C475 1.191 . S
O487 C466 1.331 . S
O487 Mg473 2.081 . S
O488 Mg469 1.986 . S
O488 C475 1.307 . S
O489 C467 1.264 . S
O489 Mg473 2.023 . S
O490 C466 1.244 . S
O490 Mg474 1.942 . S
O491 C467 1.273 . S
O491 Mg474 1.955 . S
O492 C465 1.312 . S
O492 Mg468 2.291 . S
O492 Mg471 2.114 . S
O493 C465 1.208 . S
O493 Mg473 2.031 . S
C494 O479 1.259 1_554 S
C494 O481 1.274 . S
C495 O476 1.191 . S
C495 O478 1.307 . S
C496 O523 1.312 . S
C496 O524 1.208 . S
C497 O518 1.331 1_545 S
C497 O521 1.244 1_545 S
C498 O520 1.264 . S
C498 O522 1.273 . S
Mg499 O501 1.936 . S
Mg499 O508 2.081 . S
Mg499 O510 2.023 . S
Mg499 O514 2.031 . S
Mg499 O523 2.291 . S
Mg500 O501 1.963 . S
Mg500 O511 1.942 . S
Mg500 O512 1.955 . S
Mg500 O519 1.986 . S
O501 Mg499 1.936 . S
O501 Mg500 1.963 . S
O501 Mg502 1.915 . S
Mg502 O501 1.915 . S
Mg502 O503 1.915 . S
Mg502 O507 2.013 . S
Mg502 O513 2.114 . S
Mg502 O517 2.013 . S
Mg502 O523 2.114 . S
O503 Mg502 1.915 . S
O503 Mg504 1.936 . S
O503 Mg505 1.963 . S
Mg504 O503 1.936 . S
Mg504 O513 2.291 . S
Mg504 O518 2.081 . S
Mg504 O520 2.023 . S
Mg504 O524 2.031 . S
Mg505 O503 1.963 . S
Mg505 O509 1.986 . S
Mg505 O521 1.942 . S
Mg505 O522 1.955 . S
C506 O517 1.191 . S
C506 O519 1.307 . S
O507 Mg502 2.013 . S
O507 C526 1.191 . S
O508 Mg499 2.081 . S
O508 C516 1.331 . S
O509 Mg505 1.986 . S
O509 C526 1.307 . S
O510 Mg499 2.023 . S
O510 C525 1.264 . S
O511 Mg500 1.942 . S
O511 C516 1.244 . S
O512 Mg500 1.955 . S
O512 C525 1.273 . S
O513 Mg502 2.114 . S
O513 Mg504 2.291 . S
O513 C515 1.312 . S
O514 Mg499 2.031 . S
O514 C515 1.208 . S
C515 O513 1.312 . S
C515 O514 1.208 . S
C516 O508 1.331 . S
C516 O511 1.244 . S
O517 Mg502 2.013 . S
O517 C506 1.191 . S
O518 C497 1.331 1_565 S
O518 Mg504 2.081 . S
O519 Mg500 1.986 . S
O519 C506 1.307 . S
O520 C498 1.264 . S
O520 Mg504 2.023 . S
O521 C497 1.244 1_565 S
O521 Mg505 1.942 . S
O522 C498 1.273 . S
O522 Mg505 1.955 . S
O523 C496 1.312 . S
O523 Mg499 2.291 . S
O523 Mg502 2.114 . S
O524 C496 1.208 . S
O524 Mg504 2.031 . S
C525 O510 1.264 . S
C525 O512 1.273 . S
C526 O507 1.191 . S
C526 O509 1.307 . S
C527 O554 1.312 . S
C527 O555 1.208 . S
C528 O549 1.331 1_565 S
C528 O552 1.244 1_565 S
C529 O551 1.264 . S
C529 O553 1.273 . S
Mg530 O532 1.936 . S
Mg530 O539 2.081 . S
Mg530 O541 2.023 . S
Mg530 O545 2.031 . S
Mg530 O554 2.291 . S
Mg531 O532 1.963 . S
Mg531 O542 1.942 . S
Mg531 O543 1.955 . S
Mg531 O550 1.986 . S
O532 Mg530 1.936 . S
O532 Mg531 1.963 . S
O532 Mg533 1.915 . S
Mg533 O532 1.915 . S
Mg533 O534 1.915 . S
Mg533 O538 2.013 . S
Mg533 O544 2.114 . S
Mg533 O548 2.013 . S
Mg533 O554 2.114 . S
O534 Mg533 1.915 . S
O534 Mg535 1.936 . S
O534 Mg536 1.963 . S
Mg535 O534 1.936 . S
Mg535 O544 2.291 . S
Mg535 O549 2.081 . S
Mg535 O551 2.023 1_655 S
Mg535 O555 2.031 . S
Mg536 O534 1.963 . S
Mg536 O540 1.986 . S
Mg536 O552 1.942 . S
Mg536 O553 1.955 1_655 S
C537 O548 1.191 . S
C537 O550 1.307 . S
O538 Mg533 2.013 . S
O538 C557 1.191 . S
O539 Mg530 2.081 . S
O539 C547 1.331 . S
O540 Mg536 1.986 . S
O540 C557 1.307 . S
O541 Mg530 2.023 . S
O541 C556 1.264 . S
O542 Mg531 1.942 . S
O542 C547 1.244 . S
O543 Mg531 1.955 . S
O543 C556 1.273 . S
O544 Mg533 2.114 . S
O544 Mg535 2.291 . S
O544 C546 1.312 . S
O545 Mg530 2.031 . S
O545 C546 1.208 . S
C546 O544 1.312 . S
C546 O545 1.208 . S
C547 O539 1.331 . S
C547 O542 1.244 . S
O548 Mg533 2.013 . S
O548 C537 1.191 . S
O549 C528 1.331 1_545 S
O549 Mg535 2.081 . S
O550 Mg531 1.986 . S
O550 C537 1.307 . S
O551 C529 1.264 . S
O551 Mg535 2.023 1_455 S
O552 C528 1.244 1_545 S
O552 Mg536 1.942 . S
O553 C529 1.273 . S
O553 Mg536 1.955 1_455 S
O554 C527 1.312 . S
O554 Mg530 2.291 . S
O554 Mg533 2.114 . S
O555 C527 1.208 . S
O555 Mg535 2.031 . S
C556 O541 1.264 . S
C556 O543 1.273 . S
C557 O538 1.191 . S
C557 O540 1.307 . S
C558 O585 1.312 . S
C558 O586 1.208 . S
C559 O580 1.331 . S
C559 O583 1.244 . S
C560 O582 1.264 . S
C560 O584 1.273 . S
Mg561 O563 1.936 . S
Mg561 O570 2.081 . S
Mg561 O572 2.023 1_455 S
Mg561 O576 2.031 . S
Mg561 O585 2.291 . S
Mg562 O563 1.963 . S
Mg562 O573 1.942 . S
Mg562 O574 1.955 1_455 S
Mg562 O581 1.986 . S
O563 Mg561 1.936 . S
O563 Mg562 1.963 . S
O563 Mg564 1.915 . S
Mg564 O563 1.915 . S
Mg564 O565 1.915 . S
Mg564 O569 2.013 . S
Mg564 O575 2.114 . S
Mg564 O579 2.013 . S
Mg564 O585 2.114 . S
O565 Mg564 1.915 . S
O565 Mg566 1.936 . S
O565 Mg567 1.963 . S
Mg566 O565 1.936 . S
Mg566 O575 2.291 . S
Mg566 O580 2.081 . S
Mg566 O582 2.023 . S
Mg566 O586 2.031 . S
Mg567 O565 1.963 . S
Mg567 O571 1.986 . S
Mg567 O583 1.942 . S
Mg567 O584 1.955 . S
C568 O579 1.191 . S
C568 O581 1.307 . S
O569 Mg564 2.013 . S
O569 C588 1.191 . S
O570 Mg561 2.081 . S
O570 C578 1.331 . S
O571 Mg567 1.986 . S
O571 C588 1.307 . S
O572 Mg561 2.023 1_655 S
O572 C587 1.264 . S
O573 Mg562 1.942 . S
O573 C578 1.244 . S
O574 Mg562 1.955 1_655 S
O574 C587 1.273 . S
O575 Mg564 2.114 . S
O575 Mg566 2.291 . S
O575 C577 1.312 . S
O576 Mg561 2.031 . S
O576 C577 1.208 . S
C577 O575 1.312 . S
C577 O576 1.208 . S
C578 O570 1.331 . S
C578 O573 1.244 . S
O579 Mg564 2.013 . S
O579 C568 1.191 . S
O580 C559 1.331 . S
O580 Mg566 2.081 . S
O581 Mg562 1.986 . S
O581 C568 1.307 . S
O582 C560 1.264 . S
O582 Mg566 2.023 . S
O583 C559 1.244 . S
O583 Mg567 1.942 . S
O584 C560 1.273 . S
O584 Mg567 1.955 . S
O585 C558 1.312 . S
O585 Mg561 2.291 . S
O585 Mg564 2.114 . S
O586 C558 1.208 . S
O586 Mg566 2.031 . S
C587 O572 1.264 . S
C587 O574 1.273 . S
C588 O569 1.191 . S
C588 O571 1.307 . S
C589 O616 1.312 . S
C589 O617 1.208 . S
C590 O611 1.331 . S
C590 O614 1.244 . S
C591 O613 1.264 . S
C591 O615 1.273 . S
Mg592 O594 1.936 . S
Mg592 O601 2.081 . S
Mg592 O603 2.023 . S
Mg592 O607 2.031 . S
Mg592 O616 2.291 . S
Mg593 O594 1.963 . S
Mg593 O604 1.942 . S
Mg593 O605 1.955 . S
Mg593 O612 1.986 . S
O594 Mg592 1.936 . S
O594 Mg593 1.963 . S
O594 Mg595 1.915 . S
Mg595 O594 1.915 . S
Mg595 O596 1.915 . S
Mg595 O600 2.013 . S
Mg595 O606 2.114 . S
Mg595 O610 2.013 . S
Mg595 O616 2.114 . S
O596 Mg595 1.915 . S
O596 Mg597 1.936 . S
O596 Mg598 1.963 . S
Mg597 O596 1.936 . S
Mg597 O606 2.291 . S
Mg597 O611 2.081 . S
Mg597 O613 2.023 . S
Mg597 O617 2.031 . S
Mg598 O596 1.963 . S
Mg598 O602 1.986 . S
Mg598 O614 1.942 . S
Mg598 O615 1.955 . S
C599 O610 1.191 . S
C599 O612 1.307 . S
O600 Mg595 2.013 . S
O600 C619 1.191 . S
O601 Mg592 2.081 . S
O601 C609 1.331 . S
O602 Mg598 1.986 . S
O602 C619 1.307 . S
O603 Mg592 2.023 . S
O603 C618 1.264 . S
O604 Mg593 1.942 . S
O604 C609 1.244 . S
O605 Mg593 1.955 . S
O605 C618 1.273 . S
O606 Mg595 2.114 . S
O606 Mg597 2.291 . S
O606 C608 1.312 . S
O607 Mg592 2.031 . S
O607 C608 1.208 . S
C608 O606 1.312 . S
C608 O607 1.208 . S
C609 O601 1.331 . S
C609 O604 1.244 . S
O610 Mg595 2.013 . S
O610 C599 1.191 . S
O611 C590 1.331 . S
O611 Mg597 2.081 . S
O612 Mg593 1.986 . S
O612 C599 1.307 . S
O613 C591 1.264 . S
O613 Mg597 2.023 . S
O614 C590 1.244 . S
O614 Mg598 1.942 . S
O615 C591 1.273 . S
O615 Mg598 1.955 . S
O616 C589 1.312 . S
O616 Mg592 2.291 . S
O616 Mg595 2.114 . S
O617 C589 1.208 . S
O617 Mg597 2.031 . S
C618 O603 1.264 . S
C618 O605 1.273 . S
C619 O600 1.191 . S
C619 O602 1.307 . S
C620 O647 1.312 . S
C620 O648 1.208 . S
C621 O642 1.331 . S
C621 O645 1.244 . S
C622 O644 1.264 . S
C622 O646 1.273 . S
Mg623 O625 1.936 . S
Mg623 O632 2.081 . S
Mg623 O634 2.023 . S
Mg623 O638 2.031 . S
Mg623 O647 2.291 . S
Mg624 O625 1.963 . S
Mg624 O635 1.942 . S
Mg624 O636 1.955 . S
Mg624 O643 1.986 . S
O625 Mg623 1.936 . S
O625 Mg624 1.963 . S
O625 Mg626 1.915 . S
Mg626 O625 1.915 . S
Mg626 O627 1.915 . S
Mg626 O631 2.013 . S
Mg626 O637 2.114 . S
Mg626 O641 2.013 . S
Mg626 O647 2.114 . S
O627 Mg626 1.915 . S
O627 Mg628 1.936 . S
O627 Mg629 1.963 . S
Mg628 O627 1.936 . S
Mg628 O637 2.291 . S
Mg628 O642 2.081 . S
Mg628 O644 2.023 . S
Mg628 O648 2.031 . S
Mg629 O627 1.963 . S
Mg629 O633 1.986 . S
Mg629 O645 1.942 . S
Mg629 O646 1.955 . S
C630 O641 1.191 . S
C630 O643 1.307 . S
O631 Mg626 2.013 . S
O631 C650 1.191 . S
O632 Mg623 2.081 . S
O632 C640 1.331 . S
O633 Mg629 1.986 . S
O633 C650 1.307 . S
O634 Mg623 2.023 . S
O634 C649 1.264 . S
O635 Mg624 1.942 . S
O635 C640 1.244 . S
O636 Mg624 1.955 . S
O636 C649 1.273 . S
O637 Mg626 2.114 . S
O637 Mg628 2.291 . S
O637 C639 1.312 . S
O638 Mg623 2.031 . S
O638 C639 1.208 . S
C639 O637 1.312 . S
C639 O638 1.208 . S
C640 O632 1.331 . S
C640 O635 1.244 . S
O641 Mg626 2.013 . S
O641 C630 1.191 . S
O642 C621 1.331 . S
O642 Mg628 2.081 . S
O643 Mg624 1.986 . S
O643 C630 1.307 . S
O644 C622 1.264 . S
O644 Mg628 2.023 . S
O645 C621 1.244 . S
O645 Mg629 1.942 . S
O646 C622 1.273 . S
O646 Mg629 1.955 . S
O647 C620 1.312 . S
O647 Mg623 2.291 . S
O647 Mg626 2.114 . S
O648 C620 1.208 . S
O648 Mg628 2.031 . S
C649 O634 1.264 . S
C649 O636 1.273 . S
C650 O631 1.191 . S
C650 O633 1.307 . S
C651 O678 1.312 . S
C651 O679 1.208 . S
C652 O673 1.331 . S
C652 O676 1.244 . S
C653 O675 1.264 . S
C653 O677 1.273 . S
Mg654 O656 1.936 . S
Mg654 O663 2.081 . S
Mg654 O665 2.023 . S
Mg654 O669 2.031 . S
Mg654 O678 2.291 . S
Mg655 O656 1.963 . S
Mg655 O666 1.942 . S
Mg655 O667 1.955 . S
Mg655 O674 1.986 . S
O656 Mg654 1.936 . S
O656 Mg655 1.963 . S
O656 Mg657 1.915 . S
Mg657 O656 1.915 . S
Mg657 O658 1.915 . S
Mg657 O662 2.013 . S
Mg657 O668 2.114 . S
Mg657 O672 2.013 . S
Mg657 O678 2.114 . S
O658 Mg657 1.915 . S
O658 Mg659 1.936 . S
O658 Mg660 1.963 . S
Mg659 O658 1.936 . S
Mg659 O668 2.291 . S
Mg659 O673 2.081 1_565 S
Mg659 O675 2.023 . S
Mg659 O679 2.031 . S
Mg660 O658 1.963 . S
Mg660 O664 1.986 . S
Mg660 O676 1.942 1_565 S
Mg660 O677 1.955 . S
C661 O672 1.191 . S
C661 O674 1.307 . S
O662 Mg657 2.013 . S
O662 C681 1.191 . S
O663 Mg654 2.081 . S
O663 C671 1.331 . S
O664 Mg660 1.986 . S
O664 C681 1.307 . S
O665 Mg654 2.023 . S
O665 C680 1.264 . S
O666 Mg655 1.942 . S
O666 C671 1.244 . S
O667 Mg655 1.955 . S
O667 C680 1.273 . S
O668 Mg657 2.114 . S
O668 Mg659 2.291 . S
O668 C670 1.312 . S
O669 Mg654 2.031 . S
O669 C670 1.208 . S
C670 O668 1.312 . S
C670 O669 1.208 . S
C671 O663 1.331 . S
C671 O666 1.244 . S
O672 Mg657 2.013 . S
O672 C661 1.191 . S
O673 C652 1.331 . S
O673 Mg659 2.081 1_545 S
O674 Mg655 1.986 . S
O674 C661 1.307 . S
O675 C653 1.264 . S
O675 Mg659 2.023 . S
O676 C652 1.244 . S
O676 Mg660 1.942 1_545 S
O677 C653 1.273 . S
O677 Mg660 1.955 . S
O678 C651 1.312 . S
O678 Mg654 2.291 . S
O678 Mg657 2.114 . S
O679 C651 1.208 . S
O679 Mg659 2.031 . S
C680 O665 1.264 . S
C680 O667 1.273 . S
C681 O662 1.191 . S
C681 O664 1.307 . S
C682 O709 1.312 . S
C682 O710 1.208 . S
C683 O704 1.331 . S
C683 O707 1.244 . S
C684 O706 1.264 . S
C684 O708 1.273 . S
Mg685 O687 1.936 . S
Mg685 O694 2.081 . S
Mg685 O696 2.045 . S
Mg685 O700 2.031 . S
Mg685 O709 2.291 . S
Mg686 O687 1.963 . S
Mg686 O697 1.942 . S
Mg686 O698 1.952 . S
Mg686 O705 1.986 . S
O687 Mg685 1.936 . S
O687 Mg686 1.963 . S
O687 Mg688 1.915 . S
Mg688 O687 1.915 . S
Mg688 O689 1.915 . S
Mg688 O693 2.013 . S
Mg688 O699 2.114 . S
Mg688 O703 2.013 . S
Mg688 O709 2.114 . S
O689 Mg688 1.915 . S
O689 Mg690 1.936 . S
O689 Mg691 1.963 . S
Mg690 O689 1.936 . S
Mg690 O699 2.291 . S
Mg690 O704 2.081 . S
Mg690 O706 2.023 . S
Mg690 O710 2.031 . S
Mg691 O689 1.963 . S
Mg691 O695 1.986 . S
Mg691 O707 1.942 . S
Mg691 O708 1.955 . S
C692 O703 1.191 . S
C692 O705 1.307 . S
O693 Mg688 2.013 . S
O693 C712 1.191 . S
O694 Mg685 2.081 . S
O694 C702 1.331 . S
O695 Mg691 1.986 . S
O695 C712 1.307 . S
O696 Mg685 2.045 . S
O696 C711 1.254 1_545 S
O697 Mg686 1.942 . S
O697 C702 1.244 . S
O698 Mg686 1.952 . S
O698 C711 1.274 1_545 S
O699 Mg688 2.114 . S
O699 Mg690 2.291 . S
O699 C701 1.312 . S
O700 Mg685 2.031 . S
O700 C701 1.208 . S
C701 O699 1.312 . S
C701 O700 1.208 . S
C702 O694 1.331 . S
C702 O697 1.244 . S
O703 Mg688 2.013 . S
O703 C692 1.191 . S
O704 C683 1.331 . S
O704 Mg690 2.081 . S
O705 Mg686 1.986 . S
O705 C692 1.307 . S
O706 C684 1.264 . S
O706 Mg690 2.023 . S
O707 C683 1.244 . S
O707 Mg691 1.942 . S
O708 C684 1.273 . S
O708 Mg691 1.955 . S
O709 C682 1.312 . S
O709 Mg685 2.291 . S
O709 Mg688 2.114 . S
O710 C682 1.208 . S
O710 Mg690 2.031 . S
C711 O696 1.254 1_565 S
C711 O698 1.274 1_565 S
C712 O693 1.191 . S
C712 O695 1.307 . S
C713 O740 1.312 . S
C713 O741 1.208 . S
C714 O735 1.331 . S
C714 O738 1.244 . S
C715 O737 1.264 . S
C715 O739 1.273 . S
Mg716 O718 1.936 . S
Mg716 O725 2.081 . S
Mg716 O727 2.023 . S
Mg716 O731 2.031 . S
Mg716 O740 2.291 . S
Mg717 O718 1.963 . S
Mg717 O728 1.942 . S
Mg717 O729 1.955 . S
Mg717 O736 1.986 . S
O718 Mg716 1.936 . S
O718 Mg717 1.963 . S
O718 Mg719 1.915 . S
Mg719 O718 1.915 . S
Mg719 O720 1.915 . S
Mg719 O724 2.013 . S
Mg719 O730 2.114 . S
Mg719 O734 2.013 . S
Mg719 O740 2.114 . S
O720 Mg719 1.915 . S
O720 Mg721 1.936 . S
O720 Mg722 1.963 . S
Mg721 O720 1.936 . S
Mg721 O730 2.291 . S
Mg721 O735 2.081 . S
Mg721 O737 2.023 . S
Mg721 O741 2.031 . S
Mg722 O720 1.963 . S
Mg722 O726 1.986 . S
Mg722 O738 1.942 . S
Mg722 O739 1.955 . S
C723 O734 1.191 . S
C723 O736 1.307 . S
O724 Mg719 2.013 . S
O724 C743 1.191 . S
O725 Mg716 2.081 . S
O725 C733 1.331 . S
O726 Mg722 1.986 . S
O726 C743 1.307 . S
O727 Mg716 2.023 . S
O727 C742 1.264 . S
O728 Mg717 1.942 . S
O728 C733 1.244 . S
O729 Mg717 1.955 . S
O729 C742 1.273 . S
O730 Mg719 2.114 . S
O730 Mg721 2.291 . S
O730 C732 1.312 . S
O731 Mg716 2.031 . S
O731 C732 1.208 . S
C732 O730 1.312 . S
C732 O731 1.208 . S
C733 O725 1.331 . S
C733 O728 1.244 . S
O734 Mg719 2.013 . S
O734 C723 1.191 . S
O735 C714 1.331 . S
O735 Mg721 2.081 . S
O736 Mg717 1.986 . S
O736 C723 1.307 . S
O737 C715 1.264 . S
O737 Mg721 2.023 . S
O738 C714 1.244 . S
O738 Mg722 1.942 . S
O739 C715 1.273 . S
O739 Mg722 1.955 . S
O740 C713 1.312 . S
O740 Mg716 2.291 . S
O740 Mg719 2.114 . S
O741 C713 1.208 . S
O741 Mg721 2.031 . S
C742 O727 1.264 . S
C742 O729 1.273 . S
C743 O724 1.191 . S
C743 O726 1.307 . S
H744 C750 0.930 . S
H745 C753 0.930 . S
H746 C754 0.930 . S
H747 C755 0.930 . S
H748 C758 0.930 . S
H749 C759 0.930 . S
C750 H744 0.930 . S
C750 C751 1.355 . S
C750 C752 1.415 . S
C751 C750 1.355 . S
C751 C753 1.419 . S
C752 C750 1.415 . S
C752 C757 1.425 . S
C752 C759 1.409 . S
C753 H745 0.930 . S
C753 C751 1.419 . S
C753 C754 1.362 . S
C754 H746 0.930 . S
C754 C753 1.362 . S
C754 C757 1.409 . S
C755 H747 0.930 . S
C755 C756 1.355 . S
C755 C757 1.415 . S
C756 C755 1.355 . S
C756 C758 1.419 . S
C757 C752 1.425 . S
C757 C754 1.409 . S
C757 C755 1.415 . S
C758 H748 0.930 . S
C758 C756 1.419 . S
C758 C759 1.362 . S
C759 H749 0.930 . S
C759 C752 1.409 . S
C759 C758 1.362 . S
H760 C766 0.930 . S
H761 C769 0.930 . S
H762 C770 0.930 . S
H763 C771 0.930 . S
H764 C774 0.930 . S
H765 C775 0.930 . S
C766 H760 0.930 . S
C766 C767 1.355 . S
C766 C768 1.415 . S
C767 C766 1.355 . S
C767 C769 1.419 . S
C768 C766 1.415 . S
C768 C773 1.425 . S
C768 C775 1.409 . S
C769 H761 0.930 . S
C769 C767 1.419 . S
C769 C770 1.362 . S
C770 H762 0.930 . S
C770 C769 1.362 . S
C770 C773 1.409 . S
C771 H763 0.930 . S
C771 C772 1.355 . S
C771 C773 1.415 . S
C772 C771 1.355 . S
C772 C774 1.419 . S
C773 C768 1.425 . S
C773 C770 1.409 . S
C773 C771 1.415 . S
C774 H764 0.930 . S
C774 C772 1.419 . S
C774 C775 1.362 . S
C775 H765 0.930 . S
C775 C768 1.409 . S
C775 C774 1.362 . S
H776 C782 0.930 . S
H777 C785 0.930 . S
H778 C786 0.930 . S
H779 C787 0.930 . S
H780 C790 0.930 . S
H781 C791 0.930 . S
C782 H776 0.930 . S
C782 C783 1.355 . S
C782 C784 1.415 . S
C783 C782 1.355 . S
C783 C785 1.419 . S
C784 C782 1.415 . S
C784 C789 1.425 . S
C784 C791 1.409 . S
C785 H777 0.930 . S
C785 C783 1.419 . S
C785 C786 1.362 . S
C786 H778 0.930 . S
C786 C785 1.362 . S
C786 C789 1.409 . S
C787 H779 0.930 . S
C787 C788 1.355 . S
C787 C789 1.415 . S
C788 C787 1.355 . S
C788 C790 1.419 . S
C789 C784 1.425 . S
C789 C786 1.409 . S
C789 C787 1.415 . S
C790 H780 0.930 . S
C790 C788 1.419 . S
C790 C791 1.362 . S
C791 H781 0.930 . S
C791 C784 1.409 . S
C791 C790 1.362 . S
H792 C798 0.930 . S
H793 C801 0.930 . S
H794 C802 0.930 . S
H795 C803 0.930 . S
H796 C806 0.930 1_545 S
H797 C807 0.930 . S
C798 H792 0.930 . S
C798 C799 1.355 . S
C798 C800 1.415 . S
C799 C798 1.355 . S
C799 C801 1.419 . S
C800 C798 1.415 . S
C800 C805 1.425 . S
C800 C807 1.409 . S
C801 H793 0.930 . S
C801 C799 1.419 . S
C801 C802 1.362 . S
C802 H794 0.930 . S
C802 C801 1.362 . S
C802 C805 1.409 . S
C803 H795 0.930 . S
C803 C804 1.355 . S
C803 C805 1.415 . S
C804 C803 1.355 . S
C804 C806 1.419 . S
C805 C800 1.425 . S
C805 C802 1.409 . S
C805 C803 1.415 . S
C806 H796 0.930 1_565 S
C806 C804 1.419 . S
C806 C807 1.362 . S
C807 H797 0.930 . S
C807 C800 1.409 . S
C807 C806 1.362 . S
H808 C814 0.930 . S
H809 C817 0.930 . S
H810 C818 0.930 . S
H811 C819 0.930 . S
H812 C822 0.930 . S
H813 C823 0.930 . S
C814 H808 0.930 . S
C814 C815 1.355 . S
C814 C816 1.415 . S
C815 C814 1.355 . S
C815 C817 1.419 . S
C816 C814 1.415 . S
C816 C821 1.425 . S
C816 C823 1.409 . S
C817 H809 0.930 . S
C817 C815 1.419 . S
C817 C818 1.362 . S
C818 H810 0.930 . S
C818 C817 1.362 . S
C818 C821 1.409 . S
C819 H811 0.930 . S
C819 C820 1.355 . S
C819 C821 1.415 . S
C820 C819 1.355 . S
C820 C822 1.419 . S
C821 C816 1.425 . S
C821 C818 1.409 . S
C821 C819 1.415 . S
C822 H812 0.930 . S
C822 C820 1.419 . S
C822 C823 1.362 . S
C823 H813 0.930 . S
C823 C816 1.409 . S
C823 C822 1.362 . S
H824 C830 0.930 . S
H825 C833 0.930 1_554 S
H826 C834 0.930 . S
H827 C835 0.930 . S
H828 C838 0.930 . S
H829 C839 0.930 . S
C830 H824 0.930 . S
C830 C831 1.355 . S
C830 C832 1.415 . S
C831 C830 1.355 . S
C831 C833 1.419 . S
C832 C830 1.415 . S
C832 C837 1.425 . S
C832 C839 1.409 . S
C833 H825 0.930 1_556 S
C833 C831 1.419 . S
C833 C834 1.362 . S
C834 H826 0.930 . S
C834 C833 1.362 . S
C834 C837 1.409 . S
C835 H827 0.930 . S
C835 C836 1.355 . S
C835 C837 1.415 . S
C836 C835 1.355 . S
C836 C838 1.419 . S
C837 C832 1.425 . S
C837 C834 1.409 . S
C837 C835 1.415 . S
C838 H828 0.930 . S
C838 C836 1.419 . S
C838 C839 1.362 . S
C839 H829 0.930 . S
C839 C832 1.409 . S
C839 C838 1.362 . S
H840 C846 0.930 . S
H841 C849 0.930 . S
H842 C850 0.930 . S
H843 C851 0.930 . S
H844 C854 0.930 . S
H845 C855 0.930 . S
C846 H840 0.930 . S
C846 C847 1.355 . S
C846 C848 1.415 . S
C847 C846 1.355 . S
C847 C849 1.419 . S
C848 C846 1.415 . S
C848 C853 1.425 . S
C848 C855 1.409 . S
C849 H841 0.930 . S
C849 C847 1.419 . S
C849 C850 1.362 . S
C850 H842 0.930 . S
C850 C849 1.362 . S
C850 C853 1.409 . S
C851 H843 0.930 . S
C851 C852 1.355 . S
C851 C853 1.415 . S
C852 C851 1.355 . S
C852 C854 1.419 . S
C853 C848 1.425 . S
C853 C850 1.409 . S
C853 C851 1.415 . S
C854 H844 0.930 . S
C854 C852 1.419 . S
C854 C855 1.362 . S
C855 H845 0.930 . S
C855 C848 1.409 . S
C855 C854 1.362 . S
H856 C862 0.930 . S
H857 C865 0.930 . S
H858 C866 0.930 . S
H859 C867 0.930 . S
H860 C870 0.930 . S
H861 C871 0.930 . S
C862 H856 0.930 . S
C862 C863 1.355 . S
C862 C864 1.415 . S
C863 C862 1.355 . S
C863 C865 1.419 . S
C864 C862 1.415 . S
C864 C869 1.425 . S
C864 C871 1.409 . S
C865 H857 0.930 . S
C865 C863 1.419 . S
C865 C866 1.362 . S
C866 H858 0.930 . S
C866 C865 1.362 . S
C866 C869 1.409 . S
C867 H859 0.930 . S
C867 C868 1.355 . S
C867 C869 1.415 . S
C868 C867 1.355 . S
C868 C870 1.419 . S
C869 C864 1.425 . S
C869 C866 1.409 . S
C869 C867 1.415 . S
C870 H860 0.930 . S
C870 C868 1.419 . S
C870 C871 1.362 . S
C871 H861 0.930 . S
C871 C864 1.409 . S
C871 C870 1.362 . S
H872 C878 0.930 . S
H873 C881 0.930 . S
H874 C882 0.930 . S
H875 C883 0.930 . S
H876 C886 0.930 . S
H877 C887 0.930 . S
C878 H872 0.930 . S
C878 C879 1.355 . S
C878 C880 1.415 . S
C879 C878 1.355 . S
C879 C881 1.419 . S
C880 C878 1.415 . S
C880 C885 1.425 . S
C880 C887 1.409 . S
C881 H873 0.930 . S
C881 C879 1.419 . S
C881 C882 1.362 . S
C882 H874 0.930 . S
C882 C881 1.362 . S
C882 C885 1.409 . S
C883 H875 0.930 . S
C883 C884 1.355 . S
C883 C885 1.415 . S
C884 C883 1.355 . S
C884 C886 1.419 . S
C885 C880 1.425 . S
C885 C882 1.409 . S
C885 C883 1.415 . S
C886 H876 0.930 . S
C886 C884 1.419 . S
C886 C887 1.362 . S
C887 H877 0.930 . S
C887 C880 1.409 . S
C887 C886 1.362 . S
H888 C894 0.930 . S
H889 C897 0.930 . S
H890 C898 0.930 . S
H891 C899 0.930 . S
H892 C902 0.930 . S
H893 C903 0.930 . S
C894 H888 0.930 . S
C894 C895 1.355 . S
C894 C896 1.415 . S
C895 C894 1.355 . S
C895 C897 1.419 . S
C896 C894 1.415 . S
C896 C901 1.425 . S
C896 C903 1.409 . S
C897 H889 0.930 . S
C897 C895 1.419 . S
C897 C898 1.362 . S
C898 H890 0.930 . S
C898 C897 1.362 . S
C898 C901 1.409 . S
C899 H891 0.930 . S
C899 C900 1.355 . S
C899 C901 1.415 . S
C900 C899 1.355 . S
C900 C902 1.419 . S
C901 C896 1.425 . S
C901 C898 1.409 . S
C901 C899 1.415 . S
C902 H892 0.930 . S
C902 C900 1.419 . S
C902 C903 1.362 . S
C903 H893 0.930 . S
C903 C896 1.409 . S
C903 C902 1.362 . S
H904 C910 0.930 . S
H905 C913 0.930 . S
H906 C914 0.930 . S
H907 C915 0.930 . S
H908 C918 0.930 . S
H909 C919 0.930 . S
C910 H904 0.930 . S
C910 C911 1.355 . S
C910 C912 1.415 . S
C911 C910 1.355 . S
C911 C913 1.419 . S
C912 C910 1.415 . S
C912 C917 1.425 . S
C912 C919 1.409 . S
C913 H905 0.930 . S
C913 C911 1.419 . S
C913 C914 1.362 . S
C914 H906 0.930 . S
C914 C913 1.362 . S
C914 C917 1.409 . S
C915 H907 0.930 . S
C915 C916 1.355 . S
C915 C917 1.415 . S
C916 C915 1.355 . S
C916 C918 1.419 . S
C917 C912 1.425 . S
C917 C914 1.409 . S
C917 C915 1.415 . S
C918 H908 0.930 . S
C918 C916 1.419 . S
C918 C919 1.362 . S
C919 H909 0.930 . S
C919 C912 1.409 . S
C919 C918 1.362 . S
H920 C926 0.930 . S
H921 C929 0.930 . S
H922 C930 0.930 . S
H923 C931 0.930 . S
H924 C934 0.930 . S
H925 C935 0.930 . S
C926 H920 0.930 . S
C926 C927 1.355 . S
C926 C928 1.415 . S
C927 C926 1.355 . S
C927 C929 1.419 . S
C928 C926 1.415 . S
C928 C933 1.425 . S
C928 C935 1.409 . S
C929 H921 0.930 . S
C929 C927 1.419 . S
C929 C930 1.362 . S
C930 H922 0.930 . S
C930 C929 1.362 . S
C930 C933 1.409 . S
C931 H923 0.930 . S
C931 C932 1.355 . S
C931 C933 1.415 . S
C932 C931 1.355 . S
C932 C934 1.419 . S
C933 C928 1.425 . S
C933 C930 1.409 . S
C933 C931 1.415 . S
C934 H924 0.930 . S
C934 C932 1.419 . S
C934 C935 1.362 . S
C935 H925 0.930 . S
C935 C928 1.409 . S
C935 C934 1.362 . S
H936 C942 0.930 . S
H937 C945 0.930 . S
H938 C946 0.930 . S
H939 C947 0.930 . S
H940 C950 0.930 . S
H941 C951 0.930 . S
C942 H936 0.930 . S
C942 C943 1.355 . S
C942 C944 1.415 . S
C943 C942 1.355 . S
C943 C945 1.419 . S
C944 C942 1.415 . S
C944 C949 1.425 . S
C944 C951 1.409 . S
C945 H937 0.930 . S
C945 C943 1.419 . S
C945 C946 1.362 . S
C946 H938 0.930 . S
C946 C945 1.362 . S
C946 C949 1.409 . S
C947 H939 0.930 . S
C947 C948 1.355 . S
C947 C949 1.415 . S
C948 C947 1.355 . S
C948 C950 1.419 . S
C949 C944 1.425 . S
C949 C946 1.409 . S
C949 C947 1.415 . S
C950 H940 0.930 . S
C950 C948 1.419 . S
C950 C951 1.362 . S
C951 H941 0.930 . S
C951 C944 1.409 . S
C951 C950 1.362 . S
H952 C958 0.930 . S
H953 C961 0.930 . S
H954 C962 0.930 . S
H955 C963 0.930 . S
H956 C966 0.930 . S
H957 C967 0.930 . S
C958 H952 0.930 . S
C958 C959 1.355 . S
C958 C960 1.415 . S
C959 C958 1.355 . S
C959 C961 1.419 . S
C960 C958 1.415 . S
C960 C965 1.425 . S
C960 C967 1.409 . S
C961 H953 0.930 . S
C961 C959 1.419 . S
C961 C962 1.362 . S
C962 H954 0.930 . S
C962 C961 1.362 . S
C962 C965 1.409 . S
C963 H955 0.930 . S
C963 C964 1.355 . S
C963 C965 1.415 . S
C964 C963 1.355 . S
C964 C966 1.419 . S
C965 C960 1.425 . S
C965 C962 1.409 . S
C965 C963 1.415 . S
C966 H956 0.930 . S
C966 C964 1.419 . S
C966 C967 1.362 . S
C967 H957 0.930 . S
C967 C960 1.409 . S
C967 C966 1.362 . S
H968 C974 0.930 . S
H969 C977 0.930 . S
H970 C978 0.930 . S
H971 C979 0.930 . S
H972 C982 0.930 . S
H973 C983 0.930 . S
C974 H968 0.930 . S
C974 C975 1.355 . S
C974 C976 1.415 . S
C975 C974 1.355 . S
C975 C977 1.419 . S
C976 C974 1.415 . S
C976 C981 1.425 . S
C976 C983 1.409 . S
C977 H969 0.930 . S
C977 C975 1.419 . S
C977 C978 1.362 . S
C978 H970 0.930 . S
C978 C977 1.362 . S
C978 C981 1.409 . S
C979 H971 0.930 . S
C979 C980 1.355 . S
C979 C981 1.415 . S
C980 C979 1.355 . S
C980 C982 1.419 . S
C981 C976 1.425 . S
C981 C978 1.409 . S
C981 C979 1.415 . S
C982 H972 0.930 . S
C982 C980 1.419 . S
C982 C983 1.362 . S
C983 H973 0.930 . S
C983 C976 1.409 . S
C983 C982 1.362 . S
H984 C990 0.930 . S
H985 C993 0.930 . S
H986 C994 0.930 . S
H987 C995 0.930 . S
H988 C998 0.930 . S
H989 C999 0.930 . S
C990 H984 0.930 . S
C990 C991 1.355 . S
C990 C992 1.415 . S
C991 C990 1.355 . S
C991 C993 1.419 . S
C992 C990 1.415 . S
C992 C997 1.425 . S
C992 C999 1.409 . S
C993 H985 0.930 . S
C993 C991 1.419 . S
C993 C994 1.362 . S
C994 H986 0.930 . S
C994 C993 1.362 . S
C994 C997 1.409 . S
C995 H987 0.930 . S
C995 C996 1.355 . S
C995 C997 1.415 . S
C996 C995 1.355 . S
C996 C998 1.419 . S
C997 C992 1.425 . S
C997 C994 1.409 . S
C997 C995 1.415 . S
C998 H988 0.930 . S
C998 C996 1.419 . S
C998 C999 1.362 . S
C999 H989 0.930 . S
C999 C992 1.409 . S
C999 C998 1.362 . S
H1000 C1006 0.930 . S
H1001 C1009 0.930 . S
H1002 C1010 0.930 . S
H1003 C1011 0.930 . S
H1004 C1014 0.930 . S
H1005 C1015 0.930 . S
C1006 H1000 0.930 . S
C1006 C1007 1.355 . S
C1006 C1008 1.415 . S
C1007 C1006 1.355 . S
C1007 C1009 1.419 . S
C1008 C1006 1.415 . S
C1008 C1013 1.425 . S
C1008 C1015 1.409 . S
C1009 H1001 0.930 . S
C1009 C1007 1.419 . S
C1009 C1010 1.362 . S
C1010 H1002 0.930 . S
C1010 C1009 1.362 . S
C1010 C1013 1.409 . S
C1011 H1003 0.930 . S
C1011 C1012 1.355 . S
C1011 C1013 1.415 . S
C1012 C1011 1.355 . S
C1012 C1014 1.419 . S
C1013 C1008 1.425 . S
C1013 C1010 1.409 . S
C1013 C1011 1.415 . S
C1014 H1004 0.930 . S
C1014 C1012 1.419 . S
C1014 C1015 1.362 . S
C1015 H1005 0.930 . S
C1015 C1008 1.409 . S
C1015 C1014 1.362 . S
H1016 C1022 0.930 . S
H1017 C1025 0.930 . S
H1018 C1026 0.930 . S
H1019 C1027 0.930 . S
H1020 C1030 0.930 . S
H1021 C1031 0.930 . S
C1022 H1016 0.930 . S
C1022 C1023 1.355 . S
C1022 C1024 1.415 . S
C1023 C1022 1.355 . S
C1023 C1025 1.419 . S
C1024 C1022 1.415 . S
C1024 C1029 1.425 . S
C1024 C1031 1.409 . S
C1025 H1017 0.930 . S
C1025 C1023 1.419 . S
C1025 C1026 1.362 . S
C1026 H1018 0.930 . S
C1026 C1025 1.362 . S
C1026 C1029 1.409 . S
C1027 H1019 0.930 . S
C1027 C1028 1.355 . S
C1027 C1029 1.415 . S
C1028 C1027 1.355 . S
C1028 C1030 1.419 . S
C1029 C1024 1.425 . S
C1029 C1026 1.409 . S
C1029 C1027 1.415 . S
C1030 H1020 0.930 . S
C1030 C1028 1.419 . S
C1030 C1031 1.362 . S
C1031 H1021 0.930 . S
C1031 C1024 1.409 . S
C1031 C1030 1.362 . S
H1032 C1038 0.930 . S
H1033 C1041 0.930 . S
H1034 C1042 0.930 . S
H1035 C1043 0.930 . S
H1036 C1046 0.930 . S
H1037 C1047 0.930 . S
C1038 H1032 0.930 . S
C1038 C1039 1.355 . S
C1038 C1040 1.415 . S
C1039 C1038 1.355 . S
C1039 C1041 1.419 . S
C1040 C1038 1.415 . S
C1040 C1045 1.425 . S
C1040 C1047 1.409 . S
C1041 H1033 0.930 . S
C1041 C1039 1.419 . S
C1041 C1042 1.362 . S
C1042 H1034 0.930 . S
C1042 C1041 1.362 . S
C1042 C1045 1.409 . S
C1043 H1035 0.930 . S
C1043 C1044 1.355 . S
C1043 C1045 1.415 . S
C1044 C1043 1.355 . S
C1044 C1046 1.419 . S
C1045 C1040 1.425 . S
C1045 C1042 1.409 . S
C1045 C1043 1.415 . S
C1046 H1036 0.930 . S
C1046 C1044 1.419 . S
C1046 C1047 1.362 . S
C1047 H1037 0.930 . S
C1047 C1040 1.409 . S
C1047 C1046 1.362 . S
H1048 C1054 0.930 . S
H1049 C1057 0.930 . S
H1050 C1058 0.930 . S
H1051 C1059 0.930 . S
H1052 C1062 0.930 . S
H1053 C1063 0.930 . S
C1054 H1048 0.930 . S
C1054 C1055 1.355 . S
C1054 C1056 1.415 . S
C1055 C1054 1.355 . S
C1055 C1057 1.419 . S
C1056 C1054 1.415 . S
C1056 C1061 1.425 . S
C1056 C1063 1.409 . S
C1057 H1049 0.930 . S
C1057 C1055 1.419 . S
C1057 C1058 1.362 . S
C1058 H1050 0.930 . S
C1058 C1057 1.362 . S
C1058 C1061 1.409 . S
C1059 H1051 0.930 . S
C1059 C1060 1.355 . S
C1059 C1061 1.415 . S
C1060 C1059 1.355 . S
C1060 C1062 1.419 . S
C1061 C1056 1.425 . S
C1061 C1058 1.409 . S
C1061 C1059 1.415 . S
C1062 H1052 0.930 . S
C1062 C1060 1.419 . S
C1062 C1063 1.362 . S
C1063 H1053 0.930 . S
C1063 C1056 1.409 . S
C1063 C1062 1.362 . S
H1064 C1070 0.930 . S
H1065 C1073 0.930 . S
H1066 C1074 0.930 . S
H1067 C1075 0.930 . S
H1068 C1078 0.930 . S
H1069 C1079 0.930 . S
C1070 H1064 0.930 . S
C1070 C1071 1.355 . S
C1070 C1072 1.415 . S
C1071 C1070 1.355 . S
C1071 C1073 1.419 . S
C1072 C1070 1.415 . S
C1072 C1077 1.425 . S
C1072 C1079 1.409 . S
C1073 H1065 0.930 . S
C1073 C1071 1.419 . S
C1073 C1074 1.362 . S
C1074 H1066 0.930 . S
C1074 C1073 1.362 . S
C1074 C1077 1.409 . S
C1075 H1067 0.930 . S
C1075 C1076 1.355 . S
C1075 C1077 1.415 . S
C1076 C1075 1.355 . S
C1076 C1078 1.419 . S
C1077 C1072 1.425 . S
C1077 C1074 1.409 . S
C1077 C1075 1.415 . S
C1078 H1068 0.930 . S
C1078 C1076 1.419 . S
C1078 C1079 1.362 . S
C1079 H1069 0.930 . S
C1079 C1072 1.409 . S
C1079 C1078 1.362 . S
H1080 C1086 0.930 . S
H1081 C1089 0.930 . S
H1082 C1090 0.930 . S
H1083 C1091 0.930 . S
H1084 C1094 0.930 . S
H1085 C1095 0.930 . S
C1086 H1080 0.930 . S
C1086 C1087 1.355 . S
C1086 C1088 1.415 . S
C1087 C1086 1.355 . S
C1087 C1089 1.419 . S
C1088 C1086 1.415 . S
C1088 C1093 1.425 . S
C1088 C1095 1.409 . S
C1089 H1081 0.930 . S
C1089 C1087 1.419 . S
C1089 C1090 1.362 . S
C1090 H1082 0.930 . S
C1090 C1089 1.362 . S
C1090 C1093 1.409 . S
C1091 H1083 0.930 . S
C1091 C1092 1.355 . S
C1091 C1093 1.415 . S
C1092 C1091 1.355 . S
C1092 C1094 1.419 . S
C1093 C1088 1.425 . S
C1093 C1090 1.409 . S
C1093 C1091 1.415 . S
C1094 H1084 0.930 . S
C1094 C1092 1.419 . S
C1094 C1095 1.362 . S
C1095 H1085 0.930 . S
C1095 C1088 1.409 . S
C1095 C1094 1.362 . S
H1096 C1102 0.930 . S
H1097 C1105 0.930 . S
H1098 C1106 0.930 . S
H1099 C1107 0.930 . S
H1100 C1110 0.930 . S
H1101 C1111 0.930 . S
C1102 H1096 0.930 . S
C1102 C1103 1.355 . S
C1102 C1104 1.415 . S
C1103 C1102 1.355 . S
C1103 C1105 1.419 . S
C1104 C1102 1.415 . S
C1104 C1109 1.425 . S
C1104 C1111 1.409 . S
C1105 H1097 0.930 . S
C1105 C1103 1.419 . S
C1105 C1106 1.362 . S
C1106 H1098 0.930 . S
C1106 C1105 1.362 . S
C1106 C1109 1.409 . S
C1107 H1099 0.930 . S
C1107 C1108 1.355 . S
C1107 C1109 1.415 . S
C1108 C1107 1.355 . S
C1108 C1110 1.419 . S
C1109 C1104 1.425 . S
C1109 C1106 1.409 . S
C1109 C1107 1.415 . S
C1110 H1100 0.930 . S
C1110 C1108 1.419 . S
C1110 C1111 1.362 . S
C1111 H1101 0.930 . S
C1111 C1104 1.409 . S
C1111 C1110 1.362 . S
H1112 C1118 0.930 . S
H1113 C1121 0.930 . S
H1114 C1122 0.930 . S
H1115 C1123 0.930 . S
H1116 C1126 0.958 . S
H1117 C1127 0.930 . S
C1118 H1112 0.930 . S
C1118 C1119 1.355 . S
C1118 C1120 1.415 . S
C1119 C1118 1.355 . S
C1119 C1121 1.419 . S
C1120 C1118 1.415 . S
C1120 C1125 1.425 . S
C1120 C1127 1.409 . S
C1121 H1113 0.930 . S
C1121 C1119 1.419 . S
C1121 C1122 1.362 . S
C1122 H1114 0.930 . S
C1122 C1121 1.362 . S
C1122 C1125 1.409 . S
C1123 H1115 0.930 . S
C1123 C1124 1.355 . S
C1123 C1125 1.415 . S
C1124 C1123 1.355 . S
C1124 C1126 1.419 . S
C1125 C1120 1.425 . S
C1125 C1122 1.409 . S
C1125 C1123 1.415 . S
C1126 H1116 0.958 . S
C1126 C1124 1.419 . S
C1126 C1127 1.362 . S
C1127 H1117 0.930 . S
C1127 C1120 1.409 . S
C1127 C1126 1.362 . S
H1128 C1134 0.930 . S
H1129 C1137 0.930 . S
H1130 C1138 0.930 . S
H1131 C1139 0.930 . S
H1132 C1142 0.930 . S
H1133 C1143 0.930 . S
C1134 H1128 0.930 . S
C1134 C1135 1.355 . S
C1134 C1136 1.415 . S
C1135 C1134 1.355 . S
C1135 C1137 1.419 . S
C1136 C1134 1.415 . S
C1136 C1141 1.425 . S
C1136 C1143 1.409 . S
C1137 H1129 0.930 . S
C1137 C1135 1.419 . S
C1137 C1138 1.362 . S
C1138 H1130 0.930 . S
C1138 C1137 1.362 . S
C1138 C1141 1.409 . S
C1139 H1131 0.930 . S
C1139 C1140 1.355 . S
C1139 C1141 1.415 . S
C1140 C1139 1.355 . S
C1140 C1142 1.419 . S
C1141 C1136 1.425 . S
C1141 C1138 1.409 . S
C1141 C1139 1.415 . S
C1142 H1132 0.930 . S
C1142 C1140 1.419 . S
C1142 C1143 1.362 . S
C1143 H1133 0.930 . S
C1143 C1136 1.409 . S
C1143 C1142 1.362 . S
H1144 C1150 0.930 . S
H1145 C1153 0.930 . S
H1146 C1154 0.930 . S
H1147 C1155 0.930 . S
H1148 C1158 0.930 . S
H1149 C1159 0.930 . S
C1150 H1144 0.930 . S
C1150 C1151 1.355 . S
C1150 C1152 1.415 . S
C1151 C1150 1.355 . S
C1151 C1153 1.419 . S
C1152 C1150 1.415 . S
C1152 C1157 1.425 . S
C1152 C1159 1.409 . S
C1153 H1145 0.930 . S
C1153 C1151 1.419 . S
C1153 C1154 1.362 . S
C1154 H1146 0.930 . S
C1154 C1153 1.362 . S
C1154 C1157 1.409 . S
C1155 H1147 0.930 . S
C1155 C1156 1.355 . S
C1155 C1157 1.415 . S
C1156 C1155 1.355 . S
C1156 C1158 1.419 . S
C1157 C1152 1.425 . S
C1157 C1154 1.409 . S
C1157 C1155 1.415 . S
C1158 H1148 0.930 . S
C1158 C1156 1.419 . S
C1158 C1159 1.362 . S
C1159 H1149 0.930 . S
C1159 C1152 1.409 . S
C1159 C1158 1.362 . S
H1160 C1166 0.930 . S
H1161 C1169 0.930 . S
H1162 C1170 0.930 . S
H1163 C1171 0.930 . S
H1164 C1174 0.930 . S
H1165 C1175 0.930 . S
C1166 H1160 0.930 . S
C1166 C1167 1.355 . S
C1166 C1168 1.415 . S
C1167 C1166 1.355 . S
C1167 C1169 1.419 . S
C1168 C1166 1.415 . S
C1168 C1173 1.425 . S
C1168 C1175 1.409 . S
C1169 H1161 0.930 . S
C1169 C1167 1.419 . S
C1169 C1170 1.362 . S
C1170 H1162 0.930 . S
C1170 C1169 1.362 . S
C1170 C1173 1.409 . S
C1171 H1163 0.930 . S
C1171 C1172 1.355 . S
C1171 C1173 1.415 . S
C1172 C1171 1.355 . S
C1172 C1174 1.419 . S
C1173 C1168 1.425 . S
C1173 C1170 1.409 . S
C1173 C1171 1.415 . S
C1174 H1164 0.930 . S
C1174 C1172 1.419 . S
C1174 C1175 1.362 . S
C1175 H1165 0.930 . S
C1175 C1168 1.409 . S
C1175 C1174 1.362 . S
H1176 C1182 0.930 . S
H1177 C1185 0.930 . S
H1178 C1186 0.930 . S
H1179 C1187 0.930 . S
H1180 C1190 0.930 . S
H1181 C1191 0.930 . S
C1182 H1176 0.930 . S
C1182 C1183 1.355 . S
C1182 C1184 1.415 . S
C1183 C1182 1.355 . S
C1183 C1185 1.419 . S
C1184 C1182 1.415 . S
C1184 C1189 1.425 . S
C1184 C1191 1.409 . S
C1185 H1177 0.930 . S
C1185 C1183 1.419 . S
C1185 C1186 1.362 . S
C1186 H1178 0.930 . S
C1186 C1185 1.362 . S
C1186 C1189 1.409 . S
C1187 H1179 0.930 . S
C1187 C1188 1.355 . S
C1187 C1189 1.415 . S
C1188 C1187 1.355 . S
C1188 C1190 1.419 . S
C1189 C1184 1.425 . S
C1189 C1186 1.409 . S
C1189 C1187 1.415 . S
C1190 H1180 0.930 . S
C1190 C1188 1.419 . S
C1190 C1191 1.362 . S
C1191 H1181 0.930 . S
C1191 C1184 1.409 . S
C1191 C1190 1.362 . S
H1192 C1198 0.930 . S
H1193 C1201 0.930 . S
H1194 C1202 0.930 . S
H1195 C1203 0.930 . S
H1196 C1206 0.930 . S
H1197 C1207 0.930 . S
C1198 H1192 0.930 . S
C1198 C1199 1.355 . S
C1198 C1200 1.415 . S
C1199 C1198 1.355 . S
C1199 C1201 1.419 . S
C1200 C1198 1.415 . S
C1200 C1205 1.425 . S
C1200 C1207 1.409 . S
C1201 H1193 0.930 . S
C1201 C1199 1.419 . S
C1201 C1202 1.362 . S
C1202 H1194 0.930 . S
C1202 C1201 1.362 . S
C1202 C1205 1.409 . S
C1203 H1195 0.930 . S
C1203 C1204 1.355 . S
C1203 C1205 1.415 . S
C1204 C1203 1.355 . S
C1204 C1206 1.419 . S
C1205 C1200 1.425 . S
C1205 C1202 1.409 . S
C1205 C1203 1.415 . S
C1206 H1196 0.930 . S
C1206 C1204 1.419 . S
C1206 C1207 1.362 . S
C1207 H1197 0.930 . S
C1207 C1200 1.409 . S
C1207 C1206 1.362 . S
H1208 C1214 0.930 . S
H1209 C1217 0.930 . S
H1210 C1218 0.930 . S
H1211 C1219 0.930 . S
H1212 C1222 0.930 . S
H1213 C1223 0.930 . S
C1214 H1208 0.930 . S
C1214 C1215 1.355 . S
C1214 C1216 1.415 . S
C1215 C1214 1.355 . S
C1215 C1217 1.419 . S
C1216 C1214 1.415 . S
C1216 C1221 1.425 . S
C1216 C1223 1.409 . S
C1217 H1209 0.930 . S
C1217 C1215 1.419 . S
C1217 C1218 1.362 . S
C1218 H1210 0.930 . S
C1218 C1217 1.362 . S
C1218 C1221 1.409 . S
C1219 H1211 0.930 . S
C1219 C1220 1.355 . S
C1219 C1221 1.415 . S
C1220 C1219 1.355 . S
C1220 C1222 1.419 . S
C1221 C1216 1.425 . S
C1221 C1218 1.409 . S
C1221 C1219 1.415 . S
C1222 H1212 0.930 . S
C1222 C1220 1.419 . S
C1222 C1223 1.362 . S
C1223 H1213 0.930 . S
C1223 C1216 1.409 . S
C1223 C1222 1.362 . S
H1224 C1230 0.930 . S
H1225 C1233 0.930 . S
H1226 C1234 0.930 . S
H1227 C1235 0.930 . S
H1228 C1238 0.930 . S
H1229 C1239 0.930 . S
C1230 H1224 0.930 . S
C1230 C1231 1.355 . S
C1230 C1232 1.415 . S
C1231 C1230 1.355 . S
C1231 C1233 1.419 . S
C1232 C1230 1.415 . S
C1232 C1237 1.425 . S
C1232 C1239 1.409 . S
C1233 H1225 0.930 . S
C1233 C1231 1.419 . S
C1233 C1234 1.362 . S
C1234 H1226 0.930 . S
C1234 C1233 1.362 . S
C1234 C1237 1.409 . S
C1235 H1227 0.930 . S
C1235 C1236 1.355 . S
C1235 C1237 1.415 . S
C1236 C1235 1.355 . S
C1236 C1238 1.419 . S
C1237 C1232 1.425 . S
C1237 C1234 1.409 . S
C1237 C1235 1.415 . S
C1238 H1228 0.930 . S
C1238 C1236 1.419 . S
C1238 C1239 1.362 . S
C1239 H1229 0.930 . S
C1239 C1232 1.409 . S
C1239 C1238 1.362 . S
H1240 C1246 0.930 . S
H1241 C1249 0.930 . S
H1242 C1250 0.930 . S
H1243 C1251 0.930 . S
H1244 C1254 0.930 . S
H1245 C1255 0.930 . S
C1246 H1240 0.930 . S
C1246 C1247 1.355 . S
C1246 C1248 1.415 . S
C1247 C1246 1.355 . S
C1247 C1249 1.419 . S
C1248 C1246 1.415 . S
C1248 C1253 1.425 . S
C1248 C1255 1.409 . S
C1249 H1241 0.930 . S
C1249 C1247 1.419 . S
C1249 C1250 1.362 . S
C1250 H1242 0.930 . S
C1250 C1249 1.362 . S
C1250 C1253 1.409 . S
C1251 H1243 0.930 . S
C1251 C1252 1.355 . S
C1251 C1253 1.415 . S
C1252 C1251 1.355 . S
C1252 C1254 1.419 . S
C1253 C1248 1.425 . S
C1253 C1250 1.409 . S
C1253 C1251 1.415 . S
C1254 H1244 0.930 . S
C1254 C1252 1.419 . S
C1254 C1255 1.362 . S
C1255 H1245 0.930 . S
C1255 C1248 1.409 . S
C1255 C1254 1.362 . S
H1256 C1262 0.930 . S
H1257 C1265 0.930 . S
H1258 C1266 0.930 . S
H1259 C1267 0.930 . S
H1260 C1270 0.930 . S
H1261 C1271 0.930 . S
C1262 H1256 0.930 . S
C1262 C1263 1.355 . S
C1262 C1264 1.415 . S
C1263 C1262 1.355 . S
C1263 C1265 1.419 . S
C1264 C1262 1.415 . S
C1264 C1269 1.425 . S
C1264 C1271 1.409 . S
C1265 H1257 0.930 . S
C1265 C1263 1.419 . S
C1265 C1266 1.362 . S
C1266 H1258 0.930 . S
C1266 C1265 1.362 . S
C1266 C1269 1.409 . S
C1267 H1259 0.930 . S
C1267 C1268 1.355 . S
C1267 C1269 1.415 . S
C1268 C1267 1.355 . S
C1268 C1270 1.419 . S
C1269 C1264 1.425 . S
C1269 C1266 1.409 . S
C1269 C1267 1.415 . S
C1270 H1260 0.930 . S
C1270 C1268 1.419 . S
C1270 C1271 1.362 . S
C1271 H1261 0.930 . S
C1271 C1264 1.409 . S
C1271 C1270 1.362 . S
H1272 C1278 0.930 . S
H1273 C1281 0.930 . S
H1274 C1282 0.930 . S
H1275 C1283 0.930 . S
H1276 C1286 0.930 . S
H1277 C1287 0.930 . S
C1278 H1272 0.930 . S
C1278 C1279 1.355 . S
C1278 C1280 1.415 . S
C1279 C1278 1.355 . S
C1279 C1281 1.419 . S
C1280 C1278 1.415 . S
C1280 C1285 1.425 . S
C1280 C1287 1.409 . S
C1281 H1273 0.930 . S
C1281 C1279 1.419 . S
C1281 C1282 1.362 . S
C1282 H1274 0.930 . S
C1282 C1281 1.362 . S
C1282 C1285 1.409 . S
C1283 H1275 0.930 . S
C1283 C1284 1.355 . S
C1283 C1285 1.415 . S
C1284 C1283 1.355 . S
C1284 C1286 1.419 . S
C1285 C1280 1.425 . S
C1285 C1282 1.409 . S
C1285 C1283 1.415 . S
C1286 H1276 0.930 . S
C1286 C1284 1.419 . S
C1286 C1287 1.362 . S
C1287 H1277 0.930 . S
C1287 C1280 1.409 . S
C1287 C1286 1.362 . S
H1288 C1294 0.930 . S
H1289 C1297 0.930 . S
H1290 C1298 0.930 . S
H1291 C1299 0.930 . S
H1292 C1302 0.930 . S
H1293 C1303 0.930 . S
C1294 H1288 0.930 . S
C1294 C1295 1.355 . S
C1294 C1296 1.415 . S
C1295 C1294 1.355 . S
C1295 C1297 1.419 . S
C1296 C1294 1.415 . S
C1296 C1301 1.425 . S
C1296 C1303 1.409 . S
C1297 H1289 0.930 . S
C1297 C1295 1.419 . S
C1297 C1298 1.362 . S
C1298 H1290 0.930 . S
C1298 C1297 1.362 . S
C1298 C1301 1.409 . S
C1299 H1291 0.930 . S
C1299 C1300 1.355 . S
C1299 C1301 1.415 . S
C1300 C1299 1.355 . S
C1300 C1302 1.419 . S
C1301 C1296 1.425 . S
C1301 C1298 1.409 . S
C1301 C1299 1.415 . S
C1302 H1292 0.930 . S
C1302 C1300 1.419 . S
C1302 C1303 1.362 . S
C1303 H1293 0.930 . S
C1303 C1296 1.409 . S
C1303 C1302 1.362 . S
H1304 C1310 0.930 . S
H1305 C1313 0.930 . S
H1306 C1314 0.930 . S
H1307 C1315 0.930 . S
H1308 C1318 0.930 . S
H1309 C1319 0.930 . S
C1310 H1304 0.930 . S
C1310 C1311 1.355 . S
C1310 C1312 1.415 . S
C1311 C1310 1.355 . S
C1311 C1313 1.419 . S
C1312 C1310 1.415 . S
C1312 C1317 1.425 . S
C1312 C1319 1.409 . S
C1313 H1305 0.930 . S
C1313 C1311 1.419 . S
C1313 C1314 1.362 . S
C1314 H1306 0.930 . S
C1314 C1313 1.362 . S
C1314 C1317 1.409 . S
C1315 H1307 0.930 . S
C1315 C1316 1.355 . S
C1315 C1317 1.415 . S
C1316 C1315 1.355 . S
C1316 C1318 1.419 . S
C1317 C1312 1.425 . S
C1317 C1314 1.409 . S
C1317 C1315 1.415 . S
C1318 H1308 0.930 . S
C1318 C1316 1.419 . S
C1318 C1319 1.362 . S
C1319 H1309 0.930 . S
C1319 C1312 1.409 . S
C1319 C1318 1.362 . S
H1320 C1326 0.930 . S
H1321 C1329 0.930 . S
H1322 C1330 0.930 . S
H1323 C1331 0.930 . S
H1324 C1334 0.930 . S
H1325 C1335 0.930 . S
C1326 H1320 0.930 . S
C1326 C1327 1.355 . S
C1326 C1328 1.415 . S
C1327 C1326 1.355 . S
C1327 C1329 1.419 . S
C1328 C1326 1.415 . S
C1328 C1333 1.425 . S
C1328 C1335 1.409 . S
C1329 H1321 0.930 . S
C1329 C1327 1.419 . S
C1329 C1330 1.362 . S
C1330 H1322 0.930 . S
C1330 C1329 1.362 . S
C1330 C1333 1.409 . S
C1331 H1323 0.930 . S
C1331 C1332 1.355 . S
C1331 C1333 1.415 . S
C1332 C1331 1.355 . S
C1332 C1334 1.419 . S
C1333 C1328 1.425 . S
C1333 C1330 1.409 . S
C1333 C1331 1.415 . S
C1334 H1324 0.930 . S
C1334 C1332 1.419 . S
C1334 C1335 1.362 . S
C1335 H1325 0.930 . S
C1335 C1328 1.409 . S
C1335 C1334 1.362 . S
H1336 C1342 0.930 . S
H1337 C1345 0.930 . S
H1338 C1346 0.930 . S
H1339 C1347 0.930 . S
H1340 C1350 0.930 . S
H1341 C1351 0.930 . S
C1342 H1336 0.930 . S
C1342 C1343 1.355 . S
C1342 C1344 1.415 . S
C1343 C1342 1.355 . S
C1343 C1345 1.419 . S
C1344 C1342 1.415 . S
C1344 C1349 1.425 . S
C1344 C1351 1.409 . S
C1345 H1337 0.930 . S
C1345 C1343 1.419 . S
C1345 C1346 1.362 . S
C1346 H1338 0.930 . S
C1346 C1345 1.362 . S
C1346 C1349 1.409 . S
C1347 H1339 0.930 . S
C1347 C1348 1.355 . S
C1347 C1349 1.415 . S
C1348 C1347 1.355 . S
C1348 C1350 1.419 . S
C1349 C1344 1.425 . S
C1349 C1346 1.409 . S
C1349 C1347 1.415 . S
C1350 H1340 0.930 . S
C1350 C1348 1.419 . S
C1350 C1351 1.362 . S
C1351 H1341 0.930 . S
C1351 C1344 1.409 . S
C1351 C1350 1.362 . S
H1352 C1358 0.930 . S
H1353 C1361 0.930 . S
H1354 C1362 0.930 . S
H1355 C1363 0.930 . S
H1356 C1366 0.930 . S
H1357 C1367 0.930 . S
C1358 H1352 0.930 . S
C1358 C1359 1.355 . S
C1358 C1360 1.415 . S
C1359 C1358 1.355 . S
C1359 C1361 1.419 . S
C1360 C1358 1.415 . S
C1360 C1365 1.425 . S
C1360 C1367 1.409 . S
C1361 H1353 0.930 . S
C1361 C1359 1.419 . S
C1361 C1362 1.362 . S
C1362 H1354 0.930 . S
C1362 C1361 1.362 . S
C1362 C1365 1.409 . S
C1363 H1355 0.930 . S
C1363 C1364 1.355 . S
C1363 C1365 1.415 . S
C1364 C1363 1.355 . S
C1364 C1366 1.419 . S
C1365 C1360 1.425 . S
C1365 C1362 1.409 . S
C1365 C1363 1.415 . S
C1366 H1356 0.930 . S
C1366 C1364 1.419 . S
C1366 C1367 1.362 . S
C1367 H1357 0.930 . S
C1367 C1360 1.409 . S
C1367 C1366 1.362 . S
H1368 C1374 0.930 . S
H1369 C1377 0.930 . S
H1370 C1378 0.930 . S
H1371 C1379 0.930 . S
H1372 C1382 0.930 . S
H1373 C1383 0.930 . S
C1374 H1368 0.930 . S
C1374 C1375 1.355 . S
C1374 C1376 1.415 . S
C1375 C1374 1.355 . S
C1375 C1377 1.419 . S
C1376 C1374 1.415 . S
C1376 C1381 1.425 . S
C1376 C1383 1.409 . S
C1377 H1369 0.930 . S
C1377 C1375 1.419 . S
C1377 C1378 1.362 . S
C1378 H1370 0.930 . S
C1378 C1377 1.362 . S
C1378 C1381 1.409 . S
C1379 H1371 0.930 . S
C1379 C1380 1.355 . S
C1379 C1381 1.415 . S
C1380 C1379 1.355 . S
C1380 C1382 1.419 . S
C1381 C1376 1.425 . S
C1381 C1378 1.409 . S
C1381 C1379 1.415 . S
C1382 H1372 0.930 . S
C1382 C1380 1.419 . S
C1382 C1383 1.362 . S
C1383 H1373 0.930 . S
C1383 C1376 1.409 . S
C1383 C1382 1.362 . S
H1384 C1390 0.930 . S
H1385 C1393 0.930 . S
H1386 C1394 0.930 . S
H1387 C1395 0.930 . S
H1388 C1398 0.930 . S
H1389 C1399 0.930 . S
C1390 H1384 0.930 . S
C1390 C1391 1.355 . S
C1390 C1392 1.415 . S
C1391 C1390 1.355 . S
C1391 C1393 1.419 . S
C1392 C1390 1.415 . S
C1392 C1397 1.425 . S
C1392 C1399 1.409 . S
C1393 H1385 0.930 . S
C1393 C1391 1.419 . S
C1393 C1394 1.362 . S
C1394 H1386 0.930 . S
C1394 C1393 1.362 . S
C1394 C1397 1.409 . S
C1395 H1387 0.930 . S
C1395 C1396 1.355 . S
C1395 C1397 1.415 . S
C1396 C1395 1.355 . S
C1396 C1398 1.419 . S
C1397 C1392 1.425 . S
C1397 C1394 1.409 . S
C1397 C1395 1.415 . S
C1398 H1388 0.930 . S
C1398 C1396 1.419 . S
C1398 C1399 1.362 . S
C1399 H1389 0.930 . S
C1399 C1392 1.409 . S
C1399 C1398 1.362 . S
H1400 C1406 0.930 . S
H1401 C1409 0.930 . S
H1402 C1410 0.930 . S
H1403 C1411 0.930 . S
H1404 C1414 0.930 . S
H1405 C1415 0.930 . S
C1406 H1400 0.930 . S
C1406 C1407 1.355 . S
C1406 C1408 1.415 . S
C1407 C1406 1.355 . S
C1407 C1409 1.419 . S
C1408 C1406 1.415 . S
C1408 C1413 1.425 . S
C1408 C1415 1.409 . S
C1409 H1401 0.930 . S
C1409 C1407 1.419 . S
C1409 C1410 1.362 . S
C1410 H1402 0.930 . S
C1410 C1409 1.362 . S
C1410 C1413 1.409 . S
C1411 H1403 0.930 . S
C1411 C1412 1.355 . S
C1411 C1413 1.415 . S
C1412 C1411 1.355 . S
C1412 C1414 1.419 . S
C1413 C1408 1.425 . S
C1413 C1410 1.409 . S
C1413 C1411 1.415 . S
C1414 H1404 0.930 . S
C1414 C1412 1.419 . S
C1414 C1415 1.362 . S
C1415 H1405 0.930 . S
C1415 C1408 1.409 . S
C1415 C1414 1.362 . S
H1416 C1422 0.930 . S
H1417 C1425 0.930 . S
H1418 C1426 0.930 . S
H1419 C1427 0.930 . S
H1420 C1430 0.930 . S
H1421 C1431 0.930 . S
C1422 H1416 0.930 . S
C1422 C1423 1.355 . S
C1422 C1424 1.415 . S
C1423 C1422 1.355 . S
C1423 C1425 1.419 . S
C1424 C1422 1.415 . S
C1424 C1429 1.425 . S
C1424 C1431 1.409 . S
C1425 H1417 0.930 . S
C1425 C1423 1.419 . S
C1425 C1426 1.362 . S
C1426 H1418 0.930 . S
C1426 C1425 1.362 . S
C1426 C1429 1.409 . S
C1427 H1419 0.930 . S
C1427 C1428 1.355 . S
C1427 C1429 1.415 . S
C1428 C1427 1.355 . S
C1428 C1430 1.419 . S
C1429 C1424 1.425 . S
C1429 C1426 1.409 . S
C1429 C1427 1.415 . S
C1430 H1420 0.930 . S
C1430 C1428 1.419 . S
C1430 C1431 1.362 . S
C1431 H1421 0.930 . S
C1431 C1424 1.409 . S
C1431 C1430 1.362 . S
H1432 C1438 0.930 . S
H1433 C1441 0.930 . S
H1434 C1442 0.930 . S
H1435 C1443 0.930 . S
H1436 C1446 0.930 . S
H1437 C1447 0.930 . S
C1438 H1432 0.930 . S
C1438 C1439 1.355 . S
C1438 C1440 1.415 . S
C1439 C1438 1.355 . S
C1439 C1441 1.419 . S
C1440 C1438 1.415 . S
C1440 C1445 1.425 . S
C1440 C1447 1.409 . S
C1441 H1433 0.930 . S
C1441 C1439 1.419 . S
C1441 C1442 1.362 . S
C1442 H1434 0.930 . S
C1442 C1441 1.362 . S
C1442 C1445 1.409 . S
C1443 H1435 0.930 . S
C1443 C1444 1.355 . S
C1443 C1445 1.415 . S
C1444 C1443 1.355 . S
C1444 C1446 1.419 . S
C1445 C1440 1.425 . S
C1445 C1442 1.409 . S
C1445 C1443 1.415 . S
C1446 H1436 0.930 . S
C1446 C1444 1.419 . S
C1446 C1447 1.362 . S
C1447 H1437 0.930 . S
C1447 C1440 1.409 . S
C1447 C1446 1.362 . S
H1448 C1454 0.930 . S
H1449 C1457 0.930 . S
H1450 C1458 0.930 . S
H1451 C1459 0.930 . S
H1452 C1462 0.930 . S
H1453 C1463 0.930 . S
C1454 H1448 0.930 . S
C1454 C1455 1.355 . S
C1454 C1456 1.415 . S
C1455 C1454 1.355 . S
C1455 C1457 1.419 . S
C1456 C1454 1.415 . S
C1456 C1461 1.425 . S
C1456 C1463 1.409 . S
C1457 H1449 0.930 . S
C1457 C1455 1.419 . S
C1457 C1458 1.362 . S
C1458 H1450 0.930 . S
C1458 C1457 1.362 . S
C1458 C1461 1.409 . S
C1459 H1451 0.930 . S
C1459 C1460 1.355 . S
C1459 C1461 1.415 . S
C1460 C1459 1.355 . S
C1460 C1462 1.419 . S
C1461 C1456 1.425 . S
C1461 C1458 1.409 . S
C1461 C1459 1.415 . S
C1462 H1452 0.930 . S
C1462 C1460 1.419 . S
C1462 C1463 1.362 . S
C1463 H1453 0.930 . S
C1463 C1456 1.409 . S
C1463 C1462 1.362 . S
H1464 C1470 0.930 . S
H1465 C1473 0.930 . S
H1466 C1474 0.930 . S
H1467 C1475 0.930 . S
H1468 C1478 0.930 . S
H1469 C1479 0.930 . S
C1470 H1464 0.930 . S
C1470 C1471 1.355 . S
C1470 C1472 1.415 . S
C1471 C1470 1.355 . S
C1471 C1473 1.419 . S
C1472 C1470 1.415 . S
C1472 C1477 1.425 . S
C1472 C1479 1.409 . S
C1473 H1465 0.930 . S
C1473 C1471 1.419 . S
C1473 C1474 1.362 . S
C1474 H1466 0.930 . S
C1474 C1473 1.362 . S
C1474 C1477 1.409 . S
C1475 H1467 0.930 . S
C1475 C1476 1.355 . S
C1475 C1477 1.415 . S
C1476 C1475 1.355 . S
C1476 C1478 1.419 . S
C1477 C1472 1.425 . S
C1477 C1474 1.409 . S
C1477 C1475 1.415 . S
C1478 H1468 0.930 . S
C1478 C1476 1.419 . S
C1478 C1479 1.362 . S
C1479 H1469 0.930 . S
C1479 C1472 1.409 . S
C1479 C1478 1.362 . S
H1480 C1486 0.930 . S
H1481 C1489 0.930 . S
H1482 C1490 0.930 . S
H1483 C1491 0.930 . S
H1484 C1494 0.930 . S
H1485 C1495 0.930 . S
C1486 H1480 0.930 . S
C1486 C1487 1.355 . S
C1486 C1488 1.415 . S
C1487 C1486 1.355 . S
C1487 C1489 1.419 . S
C1488 C1486 1.415 . S
C1488 C1493 1.425 . S
C1488 C1495 1.409 . S
C1489 H1481 0.930 . S
C1489 C1487 1.419 . S
C1489 C1490 1.362 . S
C1490 H1482 0.930 . S
C1490 C1489 1.362 . S
C1490 C1493 1.409 . S
C1491 H1483 0.930 . S
C1491 C1492 1.355 . S
C1491 C1493 1.415 . S
C1492 C1491 1.355 . S
C1492 C1494 1.419 . S
C1493 C1488 1.425 . S
C1493 C1490 1.409 . S
C1493 C1491 1.415 . S
C1494 H1484 0.930 . S
C1494 C1492 1.419 . S
C1494 C1495 1.362 . S
C1495 H1485 0.930 . S
C1495 C1488 1.409 . S
C1495 C1494 1.362 . S
H1496 C1502 0.930 . S
H1497 C1505 0.930 . S
H1498 C1506 0.930 . S
H1499 C1507 0.930 . S
H1500 C1510 0.930 . S
H1501 C1511 0.930 . S
C1502 H1496 0.930 . S
C1502 C1503 1.355 . S
C1502 C1504 1.415 . S
C1503 C1502 1.355 . S
C1503 C1505 1.419 . S
C1504 C1502 1.415 . S
C1504 C1509 1.425 . S
C1504 C1511 1.409 . S
C1505 H1497 0.930 . S
C1505 C1503 1.419 . S
C1505 C1506 1.362 . S
C1506 H1498 0.930 . S
C1506 C1505 1.362 . S
C1506 C1509 1.409 . S
C1507 H1499 0.930 . S
C1507 C1508 1.355 . S
C1507 C1509 1.415 . S
C1508 C1507 1.355 . S
C1508 C1510 1.419 . S
C1509 C1504 1.425 . S
C1509 C1506 1.409 . S
C1509 C1507 1.415 . S
C1510 H1500 0.930 . S
C1510 C1508 1.419 . S
C1510 C1511 1.362 . S
C1511 H1501 0.930 . S
C1511 C1504 1.409 . S
C1511 C1510 1.362 . S
H1512 C1518 0.930 . S
H1513 C1521 0.930 . S
H1514 C1522 0.930 . S
H1515 C1523 0.930 . S
H1516 C1526 0.930 . S
H1517 C1527 0.930 . S
C1518 H1512 0.930 . S
C1518 C1519 1.355 . S
C1518 C1520 1.415 . S
C1519 C1518 1.355 . S
C1519 C1521 1.419 . S
C1520 C1518 1.415 . S
C1520 C1525 1.425 . S
C1520 C1527 1.409 . S
C1521 H1513 0.930 . S
C1521 C1519 1.419 . S
C1521 C1522 1.362 . S
C1522 H1514 0.930 . S
C1522 C1521 1.362 . S
C1522 C1525 1.409 . S
C1523 H1515 0.930 . S
C1523 C1524 1.355 . S
C1523 C1525 1.415 . S
C1524 C1523 1.355 . S
C1524 C1526 1.419 . S
C1525 C1520 1.425 . S
C1525 C1522 1.409 . S
C1525 C1523 1.415 . S
C1526 H1516 0.930 . S
C1526 C1524 1.419 . S
C1526 C1527 1.362 . S
C1527 H1517 0.930 . S
C1527 C1520 1.409 . S
C1527 C1526 1.362 . S
H1528 C1534 0.930 . S
H1529 C1537 0.930 . S
H1530 C1538 0.930 . S
H1531 C1539 0.930 . S
H1532 C1542 0.930 . S
H1533 C1543 0.930 . S
C1534 H1528 0.930 . S
C1534 C1535 1.355 . S
C1534 C1536 1.415 . S
C1535 C1534 1.355 . S
C1535 C1537 1.419 . S
C1536 C1534 1.415 . S
C1536 C1541 1.425 . S
C1536 C1543 1.409 1_554 S
C1537 H1529 0.930 . S
C1537 C1535 1.419 . S
C1537 C1538 1.362 . S
C1538 H1530 0.930 . S
C1538 C1537 1.362 . S
C1538 C1541 1.409 . S
C1539 H1531 0.930 . S
C1539 C1540 1.355 1_554 S
C1539 C1541 1.415 . S
C1540 C1539 1.355 1_556 S
C1540 C1542 1.419 . S
C1541 C1536 1.425 . S
C1541 C1538 1.409 . S
C1541 C1539 1.415 . S
C1542 H1532 0.930 . S
C1542 C1540 1.419 . S
C1542 C1543 1.362 . S
C1543 H1533 0.930 . S
C1543 C1536 1.409 1_556 S
C1543 C1542 1.362 . S
H1544 C1550 0.930 . S
H1545 C1553 0.930 . S
H1546 C1554 0.930 . S
H1547 C1555 0.930 . S
H1548 C1558 0.930 . S
H1549 C1559 0.930 . S
C1550 H1544 0.930 . S
C1550 C1551 1.355 . S
C1550 C1552 1.415 . S
C1551 C1550 1.355 . S
C1551 C1553 1.419 . S
C1552 C1550 1.415 . S
C1552 C1557 1.425 . S
C1552 C1559 1.409 . S
C1553 H1545 0.930 . S
C1553 C1551 1.419 . S
C1553 C1554 1.362 . S
C1554 H1546 0.930 . S
C1554 C1553 1.362 . S
C1554 C1557 1.409 . S
C1555 H1547 0.930 . S
C1555 C1556 1.355 . S
C1555 C1557 1.415 . S
C1556 C1555 1.355 . S
C1556 C1558 1.419 . S
C1557 C1552 1.425 . S
C1557 C1554 1.409 . S
C1557 C1555 1.415 . S
C1558 H1548 0.930 . S
C1558 C1556 1.419 . S
C1558 C1559 1.362 . S
C1559 H1549 0.930 . S
C1559 C1552 1.409 . S
C1559 C1558 1.362 . S
H1560 C1566 0.930 . S
H1561 C1569 0.930 . S
H1562 C1570 0.930 . S
H1563 C1571 0.930 . S
H1564 C1574 0.930 . S
H1565 C1575 0.930 . S
C1566 H1560 0.930 . S
C1566 C1567 1.355 1_556 S
C1566 C1568 1.415 . S
C1567 C1566 1.355 1_554 S
C1567 C1569 1.419 . S
C1568 C1566 1.415 . S
C1568 C1573 1.425 . S
C1568 C1575 1.409 . S
C1569 H1561 0.930 . S
C1569 C1567 1.419 . S
C1569 C1570 1.362 . S
C1570 H1562 0.930 . S
C1570 C1569 1.362 . S
C1570 C1573 1.409 1_554 S
C1571 H1563 0.930 . S
C1571 C1572 1.355 . S
C1571 C1573 1.415 . S
C1572 C1571 1.355 . S
C1572 C1574 1.419 . S
C1573 C1568 1.425 . S
C1573 C1570 1.409 1_556 S
C1573 C1571 1.415 . S
C1574 H1564 0.930 . S
C1574 C1572 1.419 . S
C1574 C1575 1.362 . S
C1575 H1565 0.930 . S
C1575 C1568 1.409 . S
C1575 C1574 1.362 . S
H1576 C1582 0.930 . S
H1577 C1585 0.930 . S
H1578 C1586 0.930 . S
H1579 C1587 0.930 . S
H1580 C1590 0.930 . S
H1581 C1591 0.930 . S
C1582 H1576 0.930 . S
C1582 C1583 1.355 . S
C1582 C1584 1.415 . S
C1583 C1582 1.355 . S
C1583 C1585 1.419 . S
C1584 C1582 1.415 . S
C1584 C1589 1.425 . S
C1584 C1591 1.409 . S
C1585 H1577 0.930 . S
C1585 C1583 1.419 . S
C1585 C1586 1.362 . S
C1586 H1578 0.930 . S
C1586 C1585 1.362 . S
C1586 C1589 1.409 . S
C1587 H1579 0.930 . S
C1587 C1588 1.355 . S
C1587 C1589 1.415 . S
C1588 C1587 1.355 . S
C1588 C1590 1.419 . S
C1589 C1584 1.425 . S
C1589 C1586 1.409 . S
C1589 C1587 1.415 . S
C1590 H1580 0.930 . S
C1590 C1588 1.419 . S
C1590 C1591 1.362 . S
C1591 H1581 0.930 . S
C1591 C1584 1.409 . S
C1591 C1590 1.362 . S
H1592 C1598 0.930 . S
H1593 C1601 0.930 . S
H1594 C1602 0.930 . S
H1595 C1603 0.930 . S
H1596 C1606 0.930 . S
H1597 C1607 0.930 . S
C1598 H1592 0.930 . S
C1598 C1599 1.355 . S
C1598 C1600 1.415 . S
C1599 C1598 1.355 . S
C1599 C1601 1.419 . S
C1600 C1598 1.415 . S
C1600 C1605 1.425 . S
C1600 C1607 1.409 . S
C1601 H1593 0.930 . S
C1601 C1599 1.419 . S
C1601 C1602 1.362 1_655 S
C1602 H1594 0.930 . S
C1602 C1601 1.362 1_455 S
C1602 C1605 1.409 1_455 S
C1603 H1595 0.930 . S
C1603 C1604 1.355 . S
C1603 C1605 1.415 1_455 S
C1604 C1603 1.355 . S
C1604 C1606 1.419 1_455 S
C1605 C1600 1.425 . S
C1605 C1602 1.409 1_655 S
C1605 C1603 1.415 1_655 S
C1606 H1596 0.930 . S
C1606 C1604 1.419 1_655 S
C1606 C1607 1.362 . S
C1607 H1597 0.930 . S
C1607 C1600 1.409 . S
C1607 C1606 1.362 . S
H1608 C1614 0.930 . S
H1609 C1617 0.930 . S
H1610 C1618 0.930 . S
H1611 C1619 0.930 . S
H1612 C1622 0.930 . S
H1613 C1623 0.930 . S
C1614 H1608 0.930 . S
C1614 C1615 1.355 . S
C1614 C1616 1.415 . S
C1615 C1614 1.355 . S
C1615 C1617 1.419 . S
C1616 C1614 1.415 . S
C1616 C1621 1.425 . S
C1616 C1623 1.409 . S
C1617 H1609 0.930 . S
C1617 C1615 1.419 . S
C1617 C1618 1.362 1_455 S
C1618 H1610 0.930 . S
C1618 C1617 1.362 1_655 S
C1618 C1621 1.409 1_655 S
C1619 H1611 0.930 . S
C1619 C1620 1.355 . S
C1619 C1621 1.415 1_655 S
C1620 C1619 1.355 . S
C1620 C1622 1.419 1_655 S
C1621 C1616 1.425 . S
C1621 C1618 1.409 1_455 S
C1621 C1619 1.415 1_455 S
C1622 H1612 0.930 . S
C1622 C1620 1.419 1_455 S
C1622 C1623 1.362 . S
C1623 H1613 0.930 . S
C1623 C1616 1.409 . S
C1623 C1622 1.362 . S
H1624 C1630 0.930 . S
H1625 C1633 0.930 . S
H1626 C1634 0.930 . S
H1627 C1635 0.930 . S
H1628 C1638 0.930 . S
H1629 C1639 0.930 . S
C1630 H1624 0.930 . S
C1630 C1631 1.355 . S
C1630 C1632 1.415 . S
C1631 C1630 1.355 . S
C1631 C1633 1.419 . S
C1632 C1630 1.415 . S
C1632 C1637 1.425 . S
C1632 C1639 1.409 . S
C1633 H1625 0.930 . S
C1633 C1631 1.419 . S
C1633 C1634 1.362 . S
C1634 H1626 0.930 . S
C1634 C1633 1.362 . S
C1634 C1637 1.409 . S
C1635 H1627 0.930 . S
C1635 C1636 1.355 . S
C1635 C1637 1.415 . S
C1636 C1635 1.355 . S
C1636 C1638 1.419 . S
C1637 C1632 1.425 . S
C1637 C1634 1.409 . S
C1637 C1635 1.415 . S
C1638 H1628 0.930 . S
C1638 C1636 1.419 . S
C1638 C1639 1.362 . S
C1639 H1629 0.930 . S
C1639 C1632 1.409 . S
C1639 C1638 1.362 . S
H1640 C1646 0.930 . S
H1641 C1649 0.930 . S
H1642 C1650 0.930 . S
H1643 C1651 0.930 . S
H1644 C1654 0.930 . S
H1645 C1655 0.930 . S
C1646 H1640 0.930 . S
C1646 C1647 1.355 . S
C1646 C1648 1.415 . S
C1647 C1646 1.355 . S
C1647 C1649 1.419 . S
C1648 C1646 1.415 . S
C1648 C1653 1.425 . S
C1648 C1655 1.409 . S
C1649 H1641 0.930 . S
C1649 C1647 1.419 . S
C1649 C1650 1.362 . S
C1650 H1642 0.930 . S
C1650 C1649 1.362 . S
C1650 C1653 1.409 . S
C1651 H1643 0.930 . S
C1651 C1652 1.355 . S
C1651 C1653 1.415 . S
C1652 C1651 1.355 . S
C1652 C1654 1.419 . S
C1653 C1648 1.425 . S
C1653 C1650 1.409 . S
C1653 C1651 1.415 . S
C1654 H1644 0.930 . S
C1654 C1652 1.419 . S
C1654 C1655 1.362 . S
C1655 H1645 0.930 . S
C1655 C1648 1.409 . S
C1655 C1654 1.362 . S
H1656 C1662 0.930 . S
H1657 C1665 0.930 . S
H1658 C1666 0.930 . S
H1659 C1667 0.930 . S
H1660 C1670 0.930 . S
H1661 C1671 0.930 . S
C1662 H1656 0.930 . S
C1662 C1663 1.355 1_565 S
C1662 C1664 1.415 . S
C1663 C1662 1.355 1_545 S
C1663 C1665 1.419 . S
C1664 C1662 1.415 . S
C1664 C1669 1.425 . S
C1664 C1671 1.409 . S
C1665 H1657 0.930 . S
C1665 C1663 1.419 . S
C1665 C1666 1.362 . S
C1666 H1658 0.930 . S
C1666 C1665 1.362 . S
C1666 C1669 1.409 1_545 S
C1667 H1659 0.930 . S
C1667 C1668 1.355 . S
C1667 C1669 1.415 . S
C1668 C1667 1.355 . S
C1668 C1670 1.419 . S
C1669 C1664 1.425 . S
C1669 C1666 1.409 1_565 S
C1669 C1667 1.415 . S
C1670 H1660 0.930 . S
C1670 C1668 1.419 . S
C1670 C1671 1.362 . S
C1671 H1661 0.930 . S
C1671 C1664 1.409 . S
C1671 C1670 1.362 . S
H1672 C1678 0.930 . S
H1673 C1681 0.930 . S
H1674 C1682 0.930 . S
H1675 C1683 0.930 . S
H1676 C1686 0.930 . S
H1677 C1687 0.930 . S
C1678 H1672 0.930 . S
C1678 C1679 1.355 . S
C1678 C1680 1.415 . S
C1679 C1678 1.355 . S
C1679 C1681 1.419 . S
C1680 C1678 1.415 . S
C1680 C1685 1.425 . S
C1680 C1687 1.409 1_545 S
C1681 H1673 0.930 . S
C1681 C1679 1.419 . S
C1681 C1682 1.362 . S
C1682 H1674 0.930 . S
C1682 C1681 1.362 . S
C1682 C1685 1.409 . S
C1683 H1675 0.930 . S
C1683 C1684 1.355 1_545 S
C1683 C1685 1.415 . S
C1684 C1683 1.355 1_565 S
C1684 C1686 1.419 . S
C1685 C1680 1.425 . S
C1685 C1682 1.409 . S
C1685 C1683 1.415 . S
C1686 H1676 0.930 . S
C1686 C1684 1.419 . S
C1686 C1687 1.362 . S
C1687 H1677 0.930 . S
C1687 C1680 1.409 1_565 S
C1687 C1686 1.362 . S
H1688 C1694 0.930 . S
H1689 C1697 0.930 . S
H1690 C1698 0.930 . S
H1691 C1699 0.930 . S
H1692 C1702 0.930 . S
H1693 C1703 0.930 . S
C1694 H1688 0.930 . S
C1694 C1695 1.355 . S
C1694 C1696 1.415 . S
C1695 C1694 1.355 . S
C1695 C1697 1.419 . S
C1696 C1694 1.415 . S
C1696 C1701 1.425 . S
C1696 C1703 1.409 . S
C1697 H1689 0.930 . S
C1697 C1695 1.419 . S
C1697 C1698 1.362 . S
C1698 H1690 0.930 . S
C1698 C1697 1.362 . S
C1698 C1701 1.409 . S
C1699 H1691 0.930 . S
C1699 C1700 1.355 . S
C1699 C1701 1.415 . S
C1700 C1699 1.355 . S
C1700 C1702 1.419 . S
C1701 C1696 1.425 . S
C1701 C1698 1.409 . S
C1701 C1699 1.415 . S
C1702 H1692 0.930 . S
C1702 C1700 1.419 . S
C1702 C1703 1.362 . S
C1703 H1693 0.930 . S
C1703 C1696 1.409 . S
C1703 C1702 1.362 . S
H1704 C1710 0.930 . S
H1705 C1713 0.930 . S
H1706 C1714 0.930 . S
H1707 C1715 0.930 . S
H1708 C1718 0.930 . S
H1709 C1719 0.930 . S
C1710 H1704 0.930 . S
C1710 C1711 1.355 . S
C1710 C1712 1.415 . S
C1711 C1710 1.355 . S
C1711 C1713 1.419 . S
C1712 C1710 1.415 . S
C1712 C1717 1.425 . S
C1712 C1719 1.409 . S
C1713 H1705 0.930 . S
C1713 C1711 1.419 . S
C1713 C1714 1.362 . S
C1714 H1706 0.930 . S
C1714 C1713 1.362 . S
C1714 C1717 1.409 . S
C1715 H1707 0.930 . S
C1715 C1716 1.355 . S
C1715 C1717 1.415 . S
C1716 C1715 1.355 . S
C1716 C1718 1.419 . S
C1717 C1712 1.425 . S
C1717 C1714 1.409 . S
C1717 C1715 1.415 . S
C1718 H1708 0.930 . S
C1718 C1716 1.419 . S
C1718 C1719 1.362 . S
C1719 H1709 0.930 . S
C1719 C1712 1.409 . S
C1719 C1718 1.362 . S
H1720 C1726 0.930 . S
H1721 C1729 0.930 . S
H1722 C1730 0.930 . S
H1723 C1731 0.930 . S
H1724 C1734 0.930 . S
H1725 C1735 0.930 . S
C1726 H1720 0.930 . S
C1726 C1727 1.355 . S
C1726 C1728 1.415 . S
C1727 C1726 1.355 . S
C1727 C1729 1.419 . S
C1728 C1726 1.415 . S
C1728 C1733 1.425 . S
C1728 C1735 1.409 . S
C1729 H1721 0.930 . S
C1729 C1727 1.419 . S
C1729 C1730 1.362 . S
C1730 H1722 0.930 . S
C1730 C1729 1.362 . S
C1730 C1733 1.409 . S
C1731 H1723 0.930 . S
C1731 C1732 1.355 . S
C1731 C1733 1.415 1_554 S
C1732 C1731 1.355 . S
C1732 C1734 1.419 . S
C1733 C1728 1.425 . S
C1733 C1730 1.409 . S
C1733 C1731 1.415 1_556 S
C1734 H1724 0.930 . S
C1734 C1732 1.419 . S
C1734 C1735 1.362 1_554 S
C1735 H1725 0.930 . S
C1735 C1728 1.409 . S
C1735 C1734 1.362 1_556 S
H1736 C1742 0.930 . S
H1737 C1745 0.930 . S
H1738 C1746 0.930 . S
H1739 C1747 0.930 . S
H1740 C1750 0.930 . S
H1741 C1751 0.930 . S
C1742 H1736 0.930 . S
C1742 C1743 1.355 . S
C1742 C1744 1.415 . S
C1743 C1742 1.355 . S
C1743 C1745 1.419 . S
C1744 C1742 1.415 . S
C1744 C1749 1.425 . S
C1744 C1751 1.409 . S
C1745 H1737 0.930 . S
C1745 C1743 1.419 . S
C1745 C1746 1.362 . S
C1746 H1738 0.930 . S
C1746 C1745 1.362 . S
C1746 C1749 1.409 . S
C1747 H1739 0.930 . S
C1747 C1748 1.355 . S
C1747 C1749 1.415 . S
C1748 C1747 1.355 . S
C1748 C1750 1.419 . S
C1749 C1744 1.425 . S
C1749 C1746 1.409 . S
C1749 C1747 1.415 . S
C1750 H1740 0.930 . S
C1750 C1748 1.419 . S
C1750 C1751 1.362 . S
C1751 H1741 0.930 . S
C1751 C1744 1.409 . S
C1751 C1750 1.362 . S
H1752 C1758 0.930 . S
H1753 C1761 0.930 . S
H1754 C1762 0.930 . S
H1755 C1763 0.930 . S
H1756 C1766 0.930 . S
H1757 C1767 0.930 . S
C1758 H1752 0.930 . S
C1758 C1759 1.355 . S
C1758 C1760 1.415 . S
C1759 C1758 1.355 . S
C1759 C1761 1.419 . S
C1760 C1758 1.415 . S
C1760 C1765 1.425 . S
C1760 C1767 1.409 . S
C1761 H1753 0.930 . S
C1761 C1759 1.419 . S
C1761 C1762 1.362 1_554 S
C1762 H1754 0.930 . S
C1762 C1761 1.362 1_556 S
C1762 C1765 1.409 1_556 S
C1763 H1755 0.930 . S
C1763 C1764 1.355 . S
C1763 C1765 1.415 1_556 S
C1764 C1763 1.355 . S
C1764 C1766 1.419 1_556 S
C1765 C1760 1.425 . S
C1765 C1762 1.409 1_554 S
C1765 C1763 1.415 1_554 S
C1766 H1756 0.930 . S
C1766 C1764 1.419 1_554 S
C1766 C1767 1.362 . S
C1767 H1757 0.930 . S
C1767 C1760 1.409 . S
C1767 C1766 1.362 . S
H1768 C1774 0.930 . S
H1769 C1777 0.930 . S
H1770 C1778 0.930 . S
H1771 C1779 0.930 . S
H1772 C1782 0.930 . S
H1773 C1783 0.930 . S
C1774 H1768 0.930 . S
C1774 C1775 1.355 . S
C1774 C1776 1.415 . S
C1775 C1774 1.355 . S
C1775 C1777 1.419 . S
C1776 C1774 1.415 . S
C1776 C1781 1.425 . S
C1776 C1783 1.409 . S
C1777 H1769 0.930 . S
C1777 C1775 1.419 . S
C1777 C1778 1.362 . S
C1778 H1770 0.930 . S
C1778 C1777 1.362 . S
C1778 C1781 1.409 . S
C1779 H1771 0.930 . S
C1779 C1780 1.355 . S
C1779 C1781 1.415 . S
C1780 C1779 1.355 . S
C1780 C1782 1.419 . S
C1781 C1776 1.425 . S
C1781 C1778 1.409 . S
C1781 C1779 1.415 . S
C1782 H1772 0.930 . S
C1782 C1780 1.419 . S
C1782 C1783 1.362 . S
C1783 H1773 0.930 . S
C1783 C1776 1.409 . S
C1783 C1782 1.362 . S
H1784 C1790 0.930 . S
H1785 C1793 0.930 . S
H1786 C1794 0.930 . S
H1787 C1795 0.930 . S
H1788 C1798 0.930 . S
H1789 C1799 0.930 1_655 S
C1790 H1784 0.930 . S
C1790 C1791 1.355 . S
C1790 C1792 1.415 1_655 S
C1791 C1790 1.355 . S
C1791 C1793 1.419 1_655 S
C1792 C1790 1.415 1_455 S
C1792 C1797 1.425 . S
C1792 C1799 1.409 . S
C1793 H1785 0.930 . S
C1793 C1791 1.419 1_455 S
C1793 C1794 1.362 . S
C1794 H1786 0.930 . S
C1794 C1793 1.362 . S
C1794 C1797 1.409 . S
C1795 H1787 0.930 . S
C1795 C1796 1.355 . S
C1795 C1797 1.415 . S
C1796 C1795 1.355 . S
C1796 C1798 1.419 . S
C1797 C1792 1.425 . S
C1797 C1794 1.409 . S
C1797 C1795 1.415 . S
C1798 H1788 0.930 . S
C1798 C1796 1.419 . S
C1798 C1799 1.362 . S
C1799 H1789 0.930 1_455 S
C1799 C1792 1.409 . S
C1799 C1798 1.362 . S
H1800 C1806 0.930 . S
H1801 C1809 0.930 . S
H1802 C1810 0.930 . S
H1803 C1811 0.930 . S
H1804 C1814 0.930 . S
H1805 C1815 0.930 . S
C1806 H1800 0.930 . S
C1806 C1807 1.355 . S
C1806 C1808 1.415 1_455 S
C1807 C1806 1.355 . S
C1807 C1809 1.419 1_455 S
C1808 C1806 1.415 1_655 S
C1808 C1813 1.425 . S
C1808 C1815 1.409 1_655 S
C1809 H1801 0.930 . S
C1809 C1807 1.419 1_655 S
C1809 C1810 1.362 . S
C1810 H1802 0.930 . S
C1810 C1809 1.362 . S
C1810 C1813 1.409 . S
C1811 H1803 0.930 . S
C1811 C1812 1.355 . S
C1811 C1813 1.415 . S
C1812 C1811 1.355 . S
C1812 C1814 1.419 . S
C1813 C1808 1.425 . S
C1813 C1810 1.409 . S
C1813 C1811 1.415 . S
C1814 H1804 0.930 . S
C1814 C1812 1.419 . S
C1814 C1815 1.362 1_655 S
C1815 H1805 0.930 . S
C1815 C1808 1.409 1_455 S
C1815 C1814 1.362 1_455 S
H1816 C1822 0.930 . S
H1817 C1825 0.930 . S
H1818 C1826 0.930 . S
H1819 C1827 0.930 . S
H1820 C1830 0.930 . S
H1821 C1831 0.930 . S
C1822 H1816 0.930 . S
C1822 C1823 1.355 . S
C1822 C1824 1.415 . S
C1823 C1822 1.355 . S
C1823 C1825 1.419 . S
C1824 C1822 1.415 . S
C1824 C1829 1.425 . S
C1824 C1831 1.409 . S
C1825 H1817 0.930 . S
C1825 C1823 1.419 . S
C1825 C1826 1.362 . S
C1826 H1818 0.930 . S
C1826 C1825 1.362 . S
C1826 C1829 1.409 . S
C1827 H1819 0.930 . S
C1827 C1828 1.355 . S
C1827 C1829 1.415 . S
C1828 C1827 1.355 . S
C1828 C1830 1.419 . S
C1829 C1824 1.425 . S
C1829 C1826 1.409 . S
C1829 C1827 1.415 . S
C1830 H1820 0.930 . S
C1830 C1828 1.419 . S
C1830 C1831 1.362 . S
C1831 H1821 0.930 . S
C1831 C1824 1.409 . S
C1831 C1830 1.362 . S
H1832 C1838 0.930 . S
H1833 C1841 0.930 . S
H1834 C1842 0.930 . S
H1835 C1843 0.930 . S
H1836 C1846 0.930 . S
H1837 C1847 0.930 . S
C1838 H1832 0.930 . S
C1838 C1839 1.355 . S
C1838 C1840 1.415 . S
C1839 C1838 1.355 . S
C1839 C1841 1.419 . S
C1840 C1838 1.415 . S
C1840 C1845 1.425 . S
C1840 C1847 1.409 . S
C1841 H1833 0.930 . S
C1841 C1839 1.419 . S
C1841 C1842 1.362 . S
C1842 H1834 0.930 . S
C1842 C1841 1.362 . S
C1842 C1845 1.409 . S
C1843 H1835 0.930 . S
C1843 C1844 1.355 . S
C1843 C1845 1.415 . S
C1844 C1843 1.355 . S
C1844 C1846 1.419 . S
C1845 C1840 1.425 . S
C1845 C1842 1.409 . S
C1845 C1843 1.415 . S
C1846 H1836 0.930 . S
C1846 C1844 1.419 . S
C1846 C1847 1.362 . S
C1847 H1837 0.930 . S
C1847 C1840 1.409 . S
C1847 C1846 1.362 . S
H1848 C1854 0.930 . S
H1849 C1857 0.930 . S
H1850 C1858 0.930 . S
H1851 C1859 0.930 . S
H1852 C1862 0.930 . S
H1853 C1863 0.930 . S
C1854 H1848 0.930 . S
C1854 C1855 1.355 . S
C1854 C1856 1.415 . S
C1855 C1854 1.355 . S
C1855 C1857 1.419 . S
C1856 C1854 1.415 . S
C1856 C1861 1.425 . S
C1856 C1863 1.409 . S
C1857 H1849 0.930 . S
C1857 C1855 1.419 . S
C1857 C1858 1.362 1_545 S
C1858 H1850 0.930 . S
C1858 C1857 1.362 1_565 S
C1858 C1861 1.409 1_565 S
C1859 H1851 0.930 . S
C1859 C1860 1.355 . S
C1859 C1861 1.415 1_565 S
C1860 C1859 1.355 . S
C1860 C1862 1.419 1_565 S
C1861 C1856 1.425 . S
C1861 C1858 1.409 1_545 S
C1861 C1859 1.415 1_545 S
C1862 H1852 0.930 . S
C1862 C1860 1.419 1_545 S
C1862 C1863 1.362 . S
C1863 H1853 0.930 . S
C1863 C1856 1.409 . S
C1863 C1862 1.362 . S
H1864 C1870 0.930 . S
H1865 C1873 0.930 . S
H1866 C1874 0.930 . S
H1867 C1875 0.930 . S
H1868 C1878 0.930 . S
H1869 C1879 0.930 . S
C1870 H1864 0.930 . S
C1870 C1871 1.355 . S
C1870 C1872 1.415 . S
C1871 C1870 1.355 . S
C1871 C1873 1.419 . S
C1872 C1870 1.415 . S
C1872 C1877 1.425 . S
C1872 C1879 1.409 . S
C1873 H1865 0.930 . S
C1873 C1871 1.419 . S
C1873 C1874 1.362 1_565 S
C1874 H1866 0.930 . S
C1874 C1873 1.362 1_545 S
C1874 C1877 1.409 1_545 S
C1875 H1867 0.930 . S
C1875 C1876 1.355 . S
C1875 C1877 1.415 1_545 S
C1876 C1875 1.355 . S
C1876 C1878 1.419 1_545 S
C1877 C1872 1.425 . S
C1877 C1874 1.409 1_565 S
C1877 C1875 1.415 1_565 S
C1878 H1868 0.930 . S
C1878 C1876 1.419 1_565 S
C1878 C1879 1.362 . S
C1879 H1869 0.930 . S
C1879 C1872 1.409 . S
C1879 C1878 1.362 . S
H1880 C1886 0.930 . S
H1881 C1889 0.930 . S
H1882 C1890 0.930 . S
H1883 C1891 0.930 . S
H1884 C1894 0.930 . S
H1885 C1895 0.930 . S
C1886 H1880 0.930 . S
C1886 C1887 1.355 . S
C1886 C1888 1.415 . S
C1887 C1886 1.355 . S
C1887 C1889 1.419 . S
C1888 C1886 1.415 . S
C1888 C1893 1.425 . S
C1888 C1895 1.409 . S
C1889 H1881 0.930 . S
C1889 C1887 1.419 . S
C1889 C1890 1.362 . S
C1890 H1882 0.930 . S
C1890 C1889 1.362 . S
C1890 C1893 1.409 . S
C1891 H1883 0.930 . S
C1891 C1892 1.355 . S
C1891 C1893 1.415 . S
C1892 C1891 1.355 . S
C1892 C1894 1.419 . S
C1893 C1888 1.425 . S
C1893 C1890 1.409 . S
C1893 C1891 1.415 . S
C1894 H1884 0.930 . S
C1894 C1892 1.419 . S
C1894 C1895 1.362 . S
C1895 H1885 0.930 . S
C1895 C1888 1.409 . S
C1895 C1894 1.362 . S
H1896 C1902 0.930 . S
H1897 C1905 0.930 . S
H1898 C1906 0.930 . S
H1899 C1907 0.930 . S
H1900 C1910 0.930 . S
H1901 C1911 0.930 . S
C1902 H1896 0.930 . S
C1902 C1903 1.355 . S
C1902 C1904 1.415 . S
C1903 C1902 1.355 . S
C1903 C1905 1.419 . S
C1904 C1902 1.415 . S
C1904 C1909 1.425 . S
C1904 C1911 1.409 . S
C1905 H1897 0.930 . S
C1905 C1903 1.419 . S
C1905 C1906 1.362 . S
C1906 H1898 0.930 . S
C1906 C1905 1.362 . S
C1906 C1909 1.409 . S
C1907 H1899 0.930 . S
C1907 C1908 1.355 . S
C1907 C1909 1.415 . S
C1908 C1907 1.355 . S
C1908 C1910 1.419 . S
C1909 C1904 1.425 . S
C1909 C1906 1.409 . S
C1909 C1907 1.415 . S
C1910 H1900 0.930 . S
C1910 C1908 1.419 . S
C1910 C1911 1.362 . S
C1911 H1901 0.930 . S
C1911 C1904 1.409 . S
C1911 C1910 1.362 . S
H1912 C1918 0.930 . S
H1913 C1921 0.930 . S
H1914 C1922 0.930 . S
H1915 C1923 0.930 . S
H1916 C1926 0.930 . S
H1917 C1927 0.930 . S
C1918 H1912 0.930 . S
C1918 C1919 1.355 . S
C1918 C1920 1.415 . S
C1919 C1918 1.355 . S
C1919 C1921 1.419 . S
C1920 C1918 1.415 . S
C1920 C1925 1.425 . S
C1920 C1927 1.409 . S
C1921 H1913 0.930 . S
C1921 C1919 1.419 . S
C1921 C1922 1.362 1_554 S
C1922 H1914 0.930 . S
C1922 C1921 1.362 1_556 S
C1922 C1925 1.409 1_556 S
C1923 H1915 0.930 . S
C1923 C1924 1.355 . S
C1923 C1925 1.415 1_556 S
C1924 C1923 1.355 . S
C1924 C1926 1.419 1_556 S
C1925 C1920 1.425 . S
C1925 C1922 1.409 1_554 S
C1925 C1923 1.415 1_554 S
C1926 H1916 0.930 . S
C1926 C1924 1.419 1_554 S
C1926 C1927 1.362 . S
C1927 H1917 0.930 . S
C1927 C1920 1.409 . S
C1927 C1926 1.362 . S
H1928 C1934 0.930 . S
H1929 C1937 0.930 . S
H1930 C1938 0.930 . S
H1931 C1939 0.930 . S
H1932 C1942 0.930 . S
H1933 C1943 0.930 . S
C1934 H1928 0.930 . S
C1934 C1935 1.355 . S
C1934 C1936 1.415 . S
C1935 C1934 1.355 . S
C1935 C1937 1.419 . S
C1936 C1934 1.415 . S
C1936 C1941 1.425 . S
C1936 C1943 1.409 . S
C1937 H1929 0.930 . S
C1937 C1935 1.419 . S
C1937 C1938 1.362 . S
C1938 H1930 0.930 . S
C1938 C1937 1.362 . S
C1938 C1941 1.409 . S
C1939 H1931 0.930 . S
C1939 C1940 1.355 . S
C1939 C1941 1.415 . S
C1940 C1939 1.355 . S
C1940 C1942 1.419 . S
C1941 C1936 1.425 . S
C1941 C1938 1.409 . S
C1941 C1939 1.415 . S
C1942 H1932 0.930 . S
C1942 C1940 1.419 . S
C1942 C1943 1.362 . S
C1943 H1933 0.930 . S
C1943 C1936 1.409 . S
C1943 C1942 1.362 . S
H1944 C1950 0.930 . S
H1945 C1953 0.930 . S
H1946 C1954 0.930 . S
H1947 C1955 0.930 . S
H1948 C1958 0.930 . S
H1949 C1959 0.930 . S
C1950 H1944 0.930 . S
C1950 C1951 1.355 . S
C1950 C1952 1.415 . S
C1951 C1950 1.355 . S
C1951 C1953 1.419 . S
C1952 C1950 1.415 . S
C1952 C1957 1.425 . S
C1952 C1959 1.409 . S
C1953 H1945 0.930 . S
C1953 C1951 1.419 . S
C1953 C1954 1.362 . S
C1954 H1946 0.930 . S
C1954 C1953 1.362 . S
C1954 C1957 1.409 . S
C1955 H1947 0.930 . S
C1955 C1956 1.355 . S
C1955 C1957 1.415 1_554 S
C1956 C1955 1.355 . S
C1956 C1958 1.419 . S
C1957 C1952 1.425 . S
C1957 C1954 1.409 . S
C1957 C1955 1.415 1_556 S
C1958 H1948 0.930 . S
C1958 C1956 1.419 . S
C1958 C1959 1.362 1_554 S
C1959 H1949 0.930 . S
C1959 C1952 1.409 . S
C1959 C1958 1.362 1_556 S
H1960 C1966 0.930 . S
H1961 C1969 0.930 . S
H1962 C1970 0.930 . S
H1963 C1971 0.930 . S
H1964 C1974 0.930 . S
H1965 C1975 0.930 . S
C1966 H1960 0.930 . S
C1966 C1967 1.355 . S
C1966 C1968 1.415 . S
C1967 C1966 1.355 . S
C1967 C1969 1.419 . S
C1968 C1966 1.415 . S
C1968 C1973 1.425 . S
C1968 C1975 1.409 . S
C1969 H1961 0.930 . S
C1969 C1967 1.419 . S
C1969 C1970 1.362 . S
C1970 H1962 0.930 . S
C1970 C1969 1.362 . S
C1970 C1973 1.409 . S
C1971 H1963 0.930 . S
C1971 C1972 1.355 . S
C1971 C1973 1.415 . S
C1972 C1971 1.355 . S
C1972 C1974 1.419 . S
C1973 C1968 1.425 . S
C1973 C1970 1.409 . S
C1973 C1971 1.415 . S
C1974 H1964 0.930 . S
C1974 C1972 1.419 . S
C1974 C1975 1.362 . S
C1975 H1965 0.930 . S
C1975 C1968 1.409 . S
C1975 C1974 1.362 . S
H1976 C1982 0.930 . S
H1977 C1985 0.930 . S
H1978 C1986 0.930 . S
H1979 C1987 0.930 . S
H1980 C1990 0.930 . S
H1981 C1991 0.930 . S
C1982 H1976 0.930 . S
C1982 C1983 1.355 . S
C1982 C1984 1.415 . S
C1983 C1982 1.355 . S
C1983 C1985 1.419 . S
C1984 C1982 1.415 . S
C1984 C1989 1.425 . S
C1984 C1991 1.409 1_655 S
C1985 H1977 0.930 . S
C1985 C1983 1.419 . S
C1985 C1986 1.362 . S
C1986 H1978 0.930 . S
C1986 C1985 1.362 . S
C1986 C1989 1.409 . S
C1987 H1979 0.930 . S
C1987 C1988 1.355 1_655 S
C1987 C1989 1.415 . S
C1988 C1987 1.355 1_455 S
C1988 C1990 1.419 . S
C1989 C1984 1.425 . S
C1989 C1986 1.409 . S
C1989 C1987 1.415 . S
C1990 H1980 0.930 . S
C1990 C1988 1.419 . S
C1990 C1991 1.362 . S
C1991 H1981 0.930 . S
C1991 C1984 1.409 1_455 S
C1991 C1990 1.362 . S
H1992 C1998 0.930 . S
H1993 C2001 0.930 . S
H1994 C2002 0.930 . S
H1995 C2003 0.930 . S
H1996 C2006 0.930 . S
H1997 C2007 0.930 1_655 S
C1998 H1992 0.930 . S
C1998 C1999 1.355 . S
C1998 C2000 1.415 1_655 S
C1999 C1998 1.355 . S
C1999 C2001 1.419 1_655 S
C2000 C1998 1.415 1_455 S
C2000 C2005 1.425 . S
C2000 C2007 1.409 . S
C2001 H1993 0.930 . S
C2001 C1999 1.419 1_455 S
C2001 C2002 1.362 . S
C2002 H1994 0.930 . S
C2002 C2001 1.362 . S
C2002 C2005 1.409 . S
C2003 H1995 0.930 . S
C2003 C2004 1.355 . S
C2003 C2005 1.415 . S
C2004 C2003 1.355 . S
C2004 C2006 1.419 . S
C2005 C2000 1.425 . S
C2005 C2002 1.409 . S
C2005 C2003 1.415 . S
C2006 H1996 0.930 . S
C2006 C2004 1.419 . S
C2006 C2007 1.362 . S
C2007 H1997 0.930 1_455 S
C2007 C2000 1.409 . S
C2007 C2006 1.362 . S
H2008 C2014 0.930 . S
H2009 C2017 0.930 . S
H2010 C2018 0.930 . S
H2011 C2019 0.930 . S
H2012 C2022 0.930 . S
H2013 C2023 0.930 . S
C2014 H2008 0.930 . S
C2014 C2015 1.355 . S
C2014 C2016 1.415 . S
C2015 C2014 1.355 . S
C2015 C2017 1.419 . S
C2016 C2014 1.415 . S
C2016 C2021 1.425 . S
C2016 C2023 1.409 . S
C2017 H2009 0.930 . S
C2017 C2015 1.419 . S
C2017 C2018 1.362 . S
C2018 H2010 0.930 . S
C2018 C2017 1.362 . S
C2018 C2021 1.409 . S
C2019 H2011 0.930 . S
C2019 C2020 1.355 . S
C2019 C2021 1.415 . S
C2020 C2019 1.355 . S
C2020 C2022 1.419 . S
C2021 C2016 1.425 . S
C2021 C2018 1.409 . S
C2021 C2019 1.415 . S
C2022 H2012 0.930 . S
C2022 C2020 1.419 . S
C2022 C2023 1.362 . S
C2023 H2013 0.930 . S
C2023 C2016 1.409 . S
C2023 C2022 1.362 . S
H2024 C2030 0.930 . S
H2025 C2033 0.930 . S
H2026 C2034 0.930 . S
H2027 C2035 0.930 . S
H2028 C2038 0.930 . S
H2029 C2039 0.930 . S
C2030 H2024 0.930 . S
C2030 C2031 1.355 . S
C2030 C2032 1.415 . S
C2031 C2030 1.355 . S
C2031 C2033 1.419 . S
C2032 C2030 1.415 . S
C2032 C2037 1.425 . S
C2032 C2039 1.409 . S
C2033 H2025 0.930 . S
C2033 C2031 1.419 . S
C2033 C2034 1.362 . S
C2034 H2026 0.930 . S
C2034 C2033 1.362 . S
C2034 C2037 1.409 . S
C2035 H2027 0.930 . S
C2035 C2036 1.355 . S
C2035 C2037 1.415 . S
C2036 C2035 1.355 . S
C2036 C2038 1.419 . S
C2037 C2032 1.425 . S
C2037 C2034 1.409 . S
C2037 C2035 1.415 . S
C2038 H2028 0.930 . S
C2038 C2036 1.419 . S
C2038 C2039 1.362 . S
C2039 H2029 0.930 . S
C2039 C2032 1.409 . S
C2039 C2038 1.362 . S
H2040 C2046 0.930 . S
H2041 C2049 0.930 . S
H2042 C2050 0.930 . S
H2043 C2051 0.930 . S
H2044 C2054 0.930 . S
H2045 C2055 0.930 . S
C2046 H2040 0.930 . S
C2046 C2047 1.355 . S
C2046 C2048 1.415 . S
C2047 C2046 1.355 . S
C2047 C2049 1.419 . S
C2048 C2046 1.415 . S
C2048 C2053 1.425 . S
C2048 C2055 1.409 . S
C2049 H2041 0.930 . S
C2049 C2047 1.419 . S
C2049 C2050 1.362 . S
C2050 H2042 0.930 . S
C2050 C2049 1.362 . S
C2050 C2053 1.409 . S
C2051 H2043 0.930 . S
C2051 C2052 1.355 . S
C2051 C2053 1.415 1_545 S
C2052 C2051 1.355 . S
C2052 C2054 1.419 . S
C2053 C2048 1.425 . S
C2053 C2050 1.409 . S
C2053 C2051 1.415 1_565 S
C2054 H2044 0.930 . S
C2054 C2052 1.419 . S
C2054 C2055 1.362 1_545 S
C2055 H2045 0.930 . S
C2055 C2048 1.409 . S
C2055 C2054 1.362 1_565 S
H2056 C2062 0.930 . S
H2057 C2065 0.930 . S
H2058 C2066 0.930 . S
H2059 C2067 0.930 . S
H2060 C2070 0.930 . S
H2061 C2071 0.930 . S
C2062 H2056 0.930 . S
C2062 C2063 1.355 1_545 S
C2062 C2064 1.415 . S
C2063 C2062 1.355 1_565 S
C2063 C2065 1.419 . S
C2064 C2062 1.415 . S
C2064 C2069 1.425 . S
C2064 C2071 1.409 . S
C2065 H2057 0.930 . S
C2065 C2063 1.419 . S
C2065 C2066 1.362 . S
C2066 H2058 0.930 . S
C2066 C2065 1.362 . S
C2066 C2069 1.409 1_565 S
C2067 H2059 0.930 . S
C2067 C2068 1.355 . S
C2067 C2069 1.415 . S
C2068 C2067 1.355 . S
C2068 C2070 1.419 . S
C2069 C2064 1.425 . S
C2069 C2066 1.409 1_545 S
C2069 C2067 1.415 . S
C2070 H2060 0.930 . S
C2070 C2068 1.419 . S
C2070 C2071 1.362 . S
C2071 H2061 0.930 . S
C2071 C2064 1.409 . S
C2071 C2070 1.362 . S
H2072 C2078 0.930 . S
H2073 C2081 0.930 . S
H2074 C2082 0.930 . S
H2075 C2083 0.930 . S
H2076 C2086 0.930 . S
H2077 C2087 0.930 . S
C2078 H2072 0.930 . S
C2078 C2079 1.355 . S
C2078 C2080 1.415 . S
C2079 C2078 1.355 . S
C2079 C2081 1.419 . S
C2080 C2078 1.415 . S
C2080 C2085 1.425 . S
C2080 C2087 1.409 . S
C2081 H2073 0.930 . S
C2081 C2079 1.419 . S
C2081 C2082 1.362 . S
C2082 H2074 0.930 . S
C2082 C2081 1.362 . S
C2082 C2085 1.409 . S
C2083 H2075 0.930 . S
C2083 C2084 1.355 . S
C2083 C2085 1.415 . S
C2084 C2083 1.355 . S
C2084 C2086 1.419 . S
C2085 C2080 1.425 . S
C2085 C2082 1.409 . S
C2085 C2083 1.415 . S
C2086 H2076 0.930 . S
C2086 C2084 1.419 . S
C2086 C2087 1.362 . S
C2087 H2077 0.930 . S
C2087 C2080 1.409 . S
C2087 C2086 1.362 . S
H2088 C2094 0.930 . S
H2089 C2097 0.930 . S
H2090 C2098 0.930 . S
H2091 C2099 0.930 . S
H2092 C2102 0.930 . S
H2093 C2103 0.930 . S
C2094 H2088 0.930 . S
C2094 C2095 1.355 . S
C2094 C2096 1.415 . S
C2095 C2094 1.355 . S
C2095 C2097 1.419 . S
C2096 C2094 1.415 . S
C2096 C2101 1.425 . S
C2096 C2103 1.409 . S
C2097 H2089 0.930 . S
C2097 C2095 1.419 . S
C2097 C2098 1.362 . S
C2098 H2090 0.930 . S
C2098 C2097 1.362 . S
C2098 C2101 1.409 . S
C2099 H2091 0.930 . S
C2099 C2100 1.355 . S
C2099 C2101 1.415 . S
C2100 C2099 1.355 . S
C2100 C2102 1.419 . S
C2101 C2096 1.425 . S
C2101 C2098 1.409 . S
C2101 C2099 1.415 . S
C2102 H2092 0.930 . S
C2102 C2100 1.419 . S
C2102 C2103 1.362 . S
C2103 H2093 0.930 . S
C2103 C2096 1.409 . S
C2103 C2102 1.362 . S
H2104 C2110 0.930 . S
H2105 C2113 0.930 . S
H2106 C2114 0.930 . S
H2107 C2115 0.930 . S
H2108 C2118 0.930 . S
H2109 C2119 0.930 1_554 S
C2110 H2104 0.930 . S
C2110 C2111 1.355 . S
C2110 C2112 1.415 1_554 S
C2111 C2110 1.355 . S
C2111 C2113 1.419 1_554 S
C2112 C2110 1.415 1_556 S
C2112 C2117 1.425 . S
C2112 C2119 1.409 . S
C2113 H2105 0.930 . S
C2113 C2111 1.419 1_556 S
C2113 C2114 1.362 . S
C2114 H2106 0.930 . S
C2114 C2113 1.362 . S
C2114 C2117 1.409 . S
C2115 H2107 0.930 . S
C2115 C2116 1.355 . S
C2115 C2117 1.415 . S
C2116 C2115 1.355 . S
C2116 C2118 1.419 . S
C2117 C2112 1.425 . S
C2117 C2114 1.409 . S
C2117 C2115 1.415 . S
C2118 H2108 0.930 . S
C2118 C2116 1.419 . S
C2118 C2119 1.362 . S
C2119 H2109 0.930 1_556 S
C2119 C2112 1.409 . S
C2119 C2118 1.362 . S
H2120 C2126 0.930 . S
H2121 C2129 0.930 . S
H2122 C2130 0.930 . S
H2123 C2131 0.930 . S
H2124 C2134 0.930 . S
H2125 C2135 0.930 . S
C2126 H2120 0.930 . S
C2126 C2127 1.355 . S
C2126 C2128 1.415 . S
C2127 C2126 1.355 . S
C2127 C2129 1.419 . S
C2128 C2126 1.415 . S
C2128 C2133 1.425 . S
C2128 C2135 1.409 . S
C2129 H2121 0.930 . S
C2129 C2127 1.419 . S
C2129 C2130 1.362 . S
C2130 H2122 0.930 . S
C2130 C2129 1.362 . S
C2130 C2133 1.409 . S
C2131 H2123 0.930 . S
C2131 C2132 1.355 . S
C2131 C2133 1.415 . S
C2132 C2131 1.355 . S
C2132 C2134 1.419 . S
C2133 C2128 1.425 . S
C2133 C2130 1.409 . S
C2133 C2131 1.415 . S
C2134 H2124 0.930 . S
C2134 C2132 1.419 . S
C2134 C2135 1.362 . S
C2135 H2125 0.930 . S
C2135 C2128 1.409 . S
C2135 C2134 1.362 . S
H2136 C2142 0.930 . S
H2137 C2145 0.930 . S
H2138 C2146 0.930 . S
H2139 C2147 0.930 . S
H2140 C2150 0.930 . S
H2141 C2151 0.930 . S
C2142 H2136 0.930 . S
C2142 C2143 1.355 . S
C2142 C2144 1.415 . S
C2143 C2142 1.355 . S
C2143 C2145 1.419 . S
C2144 C2142 1.415 . S
C2144 C2149 1.425 . S
C2144 C2151 1.409 1_554 S
C2145 H2137 0.930 . S
C2145 C2143 1.419 . S
C2145 C2146 1.362 . S
C2146 H2138 0.930 . S
C2146 C2145 1.362 . S
C2146 C2149 1.409 . S
C2147 H2139 0.930 . S
C2147 C2148 1.355 1_554 S
C2147 C2149 1.415 . S
C2148 C2147 1.355 1_556 S
C2148 C2150 1.419 . S
C2149 C2144 1.425 . S
C2149 C2146 1.409 . S
C2149 C2147 1.415 . S
C2150 H2140 0.930 . S
C2150 C2148 1.419 . S
C2150 C2151 1.362 . S
C2151 H2141 0.930 . S
C2151 C2144 1.409 1_556 S
C2151 C2150 1.362 . S
H2152 C2158 0.930 . S
H2153 C2161 0.930 . S
H2154 C2162 0.930 . S
H2155 C2163 0.930 . S
H2156 C2166 0.930 . S
H2157 C2167 0.930 . S
C2158 H2152 0.930 . S
C2158 C2159 1.355 . S
C2158 C2160 1.415 . S
C2159 C2158 1.355 . S
C2159 C2161 1.419 . S
C2160 C2158 1.415 . S
C2160 C2165 1.425 . S
C2160 C2167 1.409 . S
C2161 H2153 0.930 . S
C2161 C2159 1.419 . S
C2161 C2162 1.362 . S
C2162 H2154 0.930 . S
C2162 C2161 1.362 . S
C2162 C2165 1.409 . S
C2163 H2155 0.930 . S
C2163 C2164 1.355 . S
C2163 C2165 1.415 . S
C2164 C2163 1.355 . S
C2164 C2166 1.419 . S
C2165 C2160 1.425 . S
C2165 C2162 1.409 . S
C2165 C2163 1.415 . S
C2166 H2156 0.930 . S
C2166 C2164 1.419 . S
C2166 C2167 1.362 . S
C2167 H2157 0.930 . S
C2167 C2160 1.409 . S
C2167 C2166 1.362 . S
H2168 C2174 0.930 . S
H2169 C2177 0.930 . S
H2170 C2178 0.930 . S
H2171 C2179 0.930 . S
H2172 C2182 0.930 . S
H2173 C2183 0.930 . S
C2174 H2168 0.930 . S
C2174 C2175 1.355 . S
C2174 C2176 1.415 1_655 S
C2175 C2174 1.355 . S
C2175 C2177 1.419 1_655 S
C2176 C2174 1.415 1_455 S
C2176 C2181 1.425 . S
C2176 C2183 1.409 1_455 S
C2177 H2169 0.930 . S
C2177 C2175 1.419 1_455 S
C2177 C2178 1.362 . S
C2178 H2170 0.930 . S
C2178 C2177 1.362 . S
C2178 C2181 1.409 . S
C2179 H2171 0.930 . S
C2179 C2180 1.355 . S
C2179 C2181 1.415 . S
C2180 C2179 1.355 . S
C2180 C2182 1.419 . S
C2181 C2176 1.425 . S
C2181 C2178 1.409 . S
C2181 C2179 1.415 . S
C2182 H2172 0.930 . S
C2182 C2180 1.419 . S
C2182 C2183 1.362 1_455 S
C2183 H2173 0.930 . S
C2183 C2176 1.409 1_655 S
C2183 C2182 1.362 1_655 S
H2184 C2190 0.930 . S
H2185 C2193 0.930 . S
H2186 C2194 0.930 . S
H2187 C2195 0.930 . S
H2188 C2198 0.930 . S
H2189 C2199 0.922 1_455 S
C2190 H2184 0.930 . S
C2190 C2191 1.355 . S
C2190 C2192 1.415 1_455 S
C2191 C2190 1.355 . S
C2191 C2193 1.419 1_455 S
C2192 C2190 1.415 1_655 S
C2192 C2197 1.425 . S
C2192 C2199 1.411 . S
C2193 H2185 0.930 . S
C2193 C2191 1.419 1_655 S
C2193 C2194 1.362 . S
C2194 H2186 0.930 . S
C2194 C2193 1.362 . S
C2194 C2197 1.409 . S
C2195 H2187 0.930 . S
C2195 C2196 1.355 . S
C2195 C2197 1.415 . S
C2196 C2195 1.355 . S
C2196 C2198 1.419 . S
C2197 C2192 1.425 . S
C2197 C2194 1.409 . S
C2197 C2195 1.415 . S
C2198 H2188 0.930 . S
C2198 C2196 1.419 . S
C2198 C2199 1.369 . S
C2199 H2189 0.922 1_655 S
C2199 C2192 1.411 . S
C2199 C2198 1.369 . S
H2200 C2206 0.930 . S
H2201 C2209 0.930 . S
H2202 C2210 0.930 . S
H2203 C2211 0.930 . S
H2204 C2214 0.930 . S
H2205 C2215 0.930 . S
C2206 H2200 0.930 . S
C2206 C2207 1.355 . S
C2206 C2208 1.415 . S
C2207 C2206 1.355 . S
C2207 C2209 1.419 . S
C2208 C2206 1.415 . S
C2208 C2213 1.425 . S
C2208 C2215 1.409 . S
C2209 H2201 0.930 . S
C2209 C2207 1.419 . S
C2209 C2210 1.362 . S
C2210 H2202 0.930 . S
C2210 C2209 1.362 . S
C2210 C2213 1.409 . S
C2211 H2203 0.930 . S
C2211 C2212 1.355 . S
C2211 C2213 1.415 . S
C2212 C2211 1.355 . S
C2212 C2214 1.419 . S
C2213 C2208 1.425 . S
C2213 C2210 1.409 . S
C2213 C2211 1.415 . S
C2214 H2204 0.930 . S
C2214 C2212 1.419 . S
C2214 C2215 1.362 . S
C2215 H2205 0.930 . S
C2215 C2208 1.409 . S
C2215 C2214 1.362 . S
H2216 C2222 0.930 . S
H2217 C2225 0.930 . S
H2218 C2226 0.930 . S
H2219 C2227 0.930 . S
H2220 C2230 0.930 . S
H2221 C2231 0.930 . S
C2222 H2216 0.930 . S
C2222 C2223 1.355 . S
C2222 C2224 1.415 . S
C2223 C2222 1.355 . S
C2223 C2225 1.419 . S
C2224 C2222 1.415 . S
C2224 C2229 1.425 . S
C2224 C2231 1.409 . S
C2225 H2217 0.930 . S
C2225 C2223 1.419 . S
C2225 C2226 1.362 . S
C2226 H2218 0.930 . S
C2226 C2225 1.362 . S
C2226 C2229 1.409 . S
C2227 H2219 0.930 . S
C2227 C2228 1.355 . S
C2227 C2229 1.415 . S
C2228 C2227 1.355 . S
C2228 C2230 1.419 . S
C2229 C2224 1.425 . S
C2229 C2226 1.409 . S
C2229 C2227 1.415 . S
C2230 H2220 0.930 . S
C2230 C2228 1.419 . S
C2230 C2231 1.362 . S
C2231 H2221 0.930 . S
C2231 C2224 1.409 . S
C2231 C2230 1.362 . S
H2232 C2238 0.930 . S
H2233 C2241 0.930 . S
H2234 C2242 0.930 . S
H2235 C2243 0.930 . S
H2236 C2246 0.930 . S
H2237 C2247 0.930 . S
C2238 H2232 0.930 . S
C2238 C2239 1.355 1_545 S
C2238 C2240 1.415 . S
C2239 C2238 1.355 1_565 S
C2239 C2241 1.419 . S
C2240 C2238 1.415 . S
C2240 C2245 1.425 . S
C2240 C2247 1.409 . S
C2241 H2233 0.930 . S
C2241 C2239 1.419 . S
C2241 C2242 1.362 . S
C2242 H2234 0.930 . S
C2242 C2241 1.362 . S
C2242 C2245 1.409 1_565 S
C2243 H2235 0.930 . S
C2243 C2244 1.355 . S
C2243 C2245 1.415 . S
C2244 C2243 1.355 . S
C2244 C2246 1.419 . S
C2245 C2240 1.425 . S
C2245 C2242 1.409 1_545 S
C2245 C2243 1.415 . S
C2246 H2236 0.930 . S
C2246 C2244 1.419 . S
C2246 C2247 1.362 . S
C2247 H2237 0.930 . S
C2247 C2240 1.409 . S
C2247 C2246 1.362 . S
H2248 C2254 0.930 . S
H2249 C2257 0.930 . S
H2250 C2258 0.930 . S
H2251 C2259 0.930 . S
H2252 C2262 0.930 . S
H2253 C2263 0.930 . S
C2254 H2248 0.930 . S
C2254 C2255 1.355 . S
C2254 C2256 1.415 1_545 S
C2255 C2254 1.355 . S
C2255 C2257 1.419 1_545 S
C2256 C2254 1.415 1_565 S
C2256 C2261 1.425 . S
C2256 C2263 1.409 1_565 S
C2257 H2249 0.930 . S
C2257 C2255 1.419 1_565 S
C2257 C2258 1.362 . S
C2258 H2250 0.930 . S
C2258 C2257 1.362 . S
C2258 C2261 1.409 . S
C2259 H2251 0.930 . S
C2259 C2260 1.355 . S
C2259 C2261 1.415 . S
C2260 C2259 1.355 . S
C2260 C2262 1.419 . S
C2261 C2256 1.425 . S
C2261 C2258 1.409 . S
C2261 C2259 1.415 . S
C2262 H2252 0.930 . S
C2262 C2260 1.419 . S
C2262 C2263 1.362 1_565 S
C2263 H2253 0.930 . S
C2263 C2256 1.409 1_545 S
C2263 C2262 1.362 1_545 S
H2264 C2270 0.930 . S
H2265 C2273 0.930 . S
H2266 C2274 0.930 . S
H2267 C2275 0.930 . S
H2268 C2278 0.930 . S
H2269 C2279 0.930 . S
C2270 H2264 0.930 . S
C2270 C2271 1.355 . S
C2270 C2272 1.415 . S
C2271 C2270 1.355 . S
C2271 C2273 1.419 . S
C2272 C2270 1.415 . S
C2272 C2277 1.425 . S
C2272 C2279 1.409 . S
C2273 H2265 0.930 . S
C2273 C2271 1.419 . S
C2273 C2274 1.362 . S
C2274 H2266 0.930 . S
C2274 C2273 1.362 . S
C2274 C2277 1.409 . S
C2275 H2267 0.930 . S
C2275 C2276 1.355 . S
C2275 C2277 1.415 . S
C2276 C2275 1.355 . S
C2276 C2278 1.419 . S
C2277 C2272 1.425 . S
C2277 C2274 1.409 . S
C2277 C2275 1.415 . S
C2278 H2268 0.930 . S
C2278 C2276 1.419 . S
C2278 C2279 1.362 . S
C2279 H2269 0.930 . S
C2279 C2272 1.409 . S
C2279 C2278 1.362 . S
C751 C578 1.055 . S
C756 C10 1.140 . S
C767 C61 1.122 . S
C772 C609 1.126 . S
C783 C497 1.114 . S
C788 C92 1.102 . S
C799 C123 1.138 . S
C804 C528 1.107 . S
C815 C702 1.114 . S
C820 C134 1.095 . S
C831 C653 1.279 1_556 S
C836 C165 1.332 . S
C847 C733 1.061 . S
C852 C216 1.138 . S
C863 C649 1.332 1_554 S
C868 C247 1.269 . S
C879 C258 1.149 . S
C884 C404 1.075 . S
C895 C485 1.124 . S
C900 C289 1.118 . S
C911 C340 1.118 . S
C916 C454 1.109 . S
C927 C373 1.158 . S
C932 C371 1.093 . S
C943 C187 1.071 . S
C948 C402 1.139 . S
C959 C218 1.154 . S
C964 C433 1.100 . S
C975 C144 1.126 . S
C980 C444 1.090 . S
C991 C475 1.131 . S
C996 C175 1.127 . S
C1007 C311 1.046 . S
C1012 C526 1.136 . S
C1023 C557 1.143 . S
C1028 C299 1.051 . S
C1039 C342 1.094 . S
C1044 C568 1.083 . S
C1055 C268 1.088 . S
C1060 C599 1.104 . S
C1071 C620 1.146 . S
C1076 C32 1.110 . S
C1087 C94 1.136 . S
C1092 C670 1.091 . S
C1103 C692 1.162 . S
C1108 C63 1.077 . S
C1119 C723 1.161 . S
C1124 C20 1.071 . S
C1135 C249 1.511 . S
C1140 C2 1.671 . S
C1151 C60 1.579 . S
C1156 C361 1.403 . S
C1167 C91 1.593 . S
C1172 C280 1.488 . S
C1183 C122 1.553 . S
C1188 C330 1.393 . S
C1199 C126 1.664 . S
C1204 C1 1.522 . S
C1215 C157 1.577 . S
C1220 C51 1.484 . S
C1231 C82 1.412 . S
C1236 C215 1.585 . S
C1247 C246 1.647 . S
C1252 C113 1.491 . S
C1263 C125 1.552 . S
C1268 C250 1.675 . S
C1279 C281 1.579 . S
C1284 C206 1.456 . S
C1295 C237 1.487 . S
C1300 C339 1.585 . S
C1311 C156 1.427 . S
C1316 C370 1.603 . S
C1327 C622 1.645 . S
C1332 C401 1.784 . S
C1343 C432 1.649 . S
C1348 C714 1.543 . S
C1359 C680 1.533 . S
C1364 C436 1.736 . S
C1375 C467 1.567 . S
C1380 C683 1.431 . S
C1391 C392 1.444 . S
C1396 C525 1.537 . S
C1407 C423 1.517 . S
C1412 C556 1.652 . S
C1423 C560 1.548 . S
C1428 C435 1.390 . S
C1439 C466 1.530 . S
C1444 C591 1.641 . S
C1455 C516 1.282 . S
C1460 C621 1.492 . S
C1471 C671 1.519 . S
C1476 C559 1.300 . S
C1487 C684 1.595 . S
C1492 C590 1.420 . S
C1503 C715 1.601 . S
C1508 C547 1.506 . S
C1519 C30 1.443 . S
C1524 C343 1.447 . S
C1535 C277 1.463 . S
C1540 C41 1.491 . S
C1551 C72 1.477 . S
C1556 C312 1.414 . S
C1567 C103 1.452 . S
C1572 C308 1.515 . S
C1583 C64 1.460 . S
C1588 C154 1.403 . S
C1599 C95 1.360 . S
C1604 C185 1.458 . S
C1615 C29 1.406 . S
C1620 C196 1.473 . S
C1631 C227 1.422 . S
C1636 C33 1.418 . S
C1647 C219 1.423 . S
C1652 C278 1.490 . S
C1663 C309 1.445 . S
C1668 C184 1.474 . S
C1679 C153 1.462 . S
C1684 C320 1.442 . S
C1695 C351 1.468 . S
C1700 C188 1.433 . S
C1711 C742 1.419 . S
C1716 C382 1.512 . S
C1727 C640 1.284 . S
C1732 C413 1.287 . S
C1743 C711 1.420 . S
C1748 C464 1.499 . S
C1759 C652 1.233 . S
C1764 C495 1.313 . S
C1775 C506 1.441 . S
C1780 C463 1.503 . S
C1791 C537 1.470 . S
C1796 C494 1.471 . S
C1807 C588 1.509 . S
C1812 C374 1.450 . S
C1823 C619 1.487 . S
C1828 C405 1.420 . S
C1839 C618 1.515 . S
C1844 C639 1.430 . S
C1855 C529 1.465 . S
C1860 C651 1.438 . S
C1871 C498 1.372 . S
C1876 C712 1.464 . S
C1887 C587 1.460 . S
C1892 C743 1.390 . S
C1903 C701 1.753 . S
C1908 C0 1.787 . S
C1919 C661 1.789 . S
C1924 C50 1.747 . S
C1935 C81 1.778 . S
C1940 C732 1.775 . S
C1951 C650 1.758 . S
C1956 C112 1.701 . S
C1967 C124 1.710 . S
C1972 C403 1.745 . S
C1983 C372 1.823 . S
C1988 C155 1.799 . S
C1999 C205 1.741 . S
C2004 C484 1.689 . S
C2015 C236 1.783 . S
C2020 C453 1.761 . S
C2031 C577 1.799 . S
C2036 C248 1.779 . S
C2047 C496 1.788 . S
C2052 C279 1.797 . S
C2063 C329 1.769 . S
C2068 C527 1.753 . S
C2079 C360 1.826 . S
C2084 C608 1.789 . S
C2095 C391 1.855 . S
C2100 C310 1.804 . S
C2111 C422 1.798 . S
C2116 C298 1.760 . S
C2127 C341 1.779 . S
C2132 C434 1.817 . S
C2143 C267 1.774 . S
C2148 C465 1.742 . S
C2159 C515 1.787 . S
C2164 C31 1.762 . S
C2175 C546 1.785 . S
C2180 C19 1.734 . S
C2191 C558 1.833 . S
C2196 C93 1.800 . S
C2207 C589 1.782 . S
C2212 C62 1.729 . S
C2223 C630 1.782 . S
C2228 C186 1.717 . S
C2239 C681 1.767 . S
C2244 C143 1.665 . S
C2255 C682 1.836 . S
C2260 C174 1.784 . S
C2271 C217 1.805 . S
C2276 C713 1.841 . S
