# Generated by pormake.
# Topology rob, (6)-cn, num edge types: 1
# Building blocks:
#     Node 0, Type 0, BuildingBlock: VOLQOD_clean_sbu_1, # of connection points: 6
#     Node 1, Type 0, BuildingBlock: VOLQOD_clean_sbu_1, # of connection points: 6
#     Node 2, Type 0, BuildingBlock: VOLQOD_clean_sbu_1, # of connection points: 6
#     Node 3, Type 0, BuildingBlock: VOLQOD_clean_sbu_1, # of connection points: 6
#     Edge 4, Type (0, 0), BuildingBlock: FUNLAD_clean_linker_1, # of connection points: 2
#     Edge 5, Type (0, 0), BuildingBlock: FUNLAD_clean_linker_1, # of connection points: 2
#     Edge 6, Type (0, 0), BuildingBlock: FUNLAD_clean_linker_1, # of connection points: 2
#     Edge 7, Type (0, 0), BuildingBlock: FUNLAD_clean_linker_1, # of connection points: 2
#     Edge 8, Type (0, 0), BuildingBlock: FUNLAD_clean_linker_1, # of connection points: 2
#     Edge 9, Type (0, 0), BuildingBlock: FUNLAD_clean_linker_1, # of connection points: 2
#     Edge 10, Type (0, 0), BuildingBlock: FUNLAD_clean_linker_1, # of connection points: 2
#     Edge 11, Type (0, 0), BuildingBlock: FUNLAD_clean_linker_1, # of connection points: 2
#     Edge 12, Type (0, 0), BuildingBlock: FUNLAD_clean_linker_1, # of connection points: 2
#     Edge 13, Type (0, 0), BuildingBlock: FUNLAD_clean_linker_1, # of connection points: 2
#     Edge 14, Type (0, 0), BuildingBlock: FUNLAD_clean_linker_1, # of connection points: 2
#     Edge 15, Type (0, 0), BuildingBlock: FUNLAD_clean_linker_1, # of connection points: 2
# Relax obj value: 0.389
# Max RMSD: 0.278
# Mean RMSD: 0.278
data_MOF--net-rob--node1-VOLQOD_clean_sbu_1--edge1-FUNLAD_clean_linker_1
_symmetry_space_group_name_H-M    P1
_symmetry_Int_Tables_number       1
_symmetry_cell_setting            triclinic
loop_
_symmetry_equiv_pos_as_xyz
'x, y, z'
_cell_length_a     18.219092
_cell_length_b     30.107353
_cell_length_c     26.36674
_cell_angle_alpha  90.377018
_cell_angle_beta   89.908453
_cell_angle_gamma 89.818864
loop_
_atom_site_label
_atom_site_type_symbol
_atom_site_fract_x
_atom_site_fract_y
_atom_site_fract_z
_atom_type_partial_charge
O0 O 0.23471 0.33527 0.03009 0.0
Zn1 Zn 0.15945 0.28743 0.03801 0.0
O2 O 0.19873 0.22961 0.01618 0.0
Zn3 Zn 0.13996 0.20572 0.96088 0.0
Zn4 Zn 0.30022 0.23633 -0.00699 0.0
Zn5 Zn 0.19493 0.18859 0.07298 0.0
O6 O 0.10234 0.14438 0.97683 0.0
O7 O 0.13442 0.1344 0.05732 0.0
O8 O 0.07152 0.3051 -0.00299 0.0
O9 O 0.05578 0.24679 0.94605 0.0
O10 O 0.19864 0.20111 0.89637 0.0
O11 O 0.31263 0.21677 0.92025 0.0
O12 O 0.36993 0.20319 0.03807 0.0
O13 O 0.13128 0.28774 0.11152 0.0
O14 O 0.29577 0.16866 0.09177 0.0
O15 O 0.15659 0.21886 0.13584 0.0
C16 C 0.30013 0.33555 0.01336 0.0
C17 C 0.10351 0.12091 0.01686 0.0
C18 C 0.26655 0.20521 0.88638 0.0
C19 C 0.0364 0.28511 0.96212 0.0
C20 C 0.35976 0.17776 0.07581 0.0
C21 C 0.13434 0.25807 0.14556 0.0
O22 O 0.33148 0.30031 -0.00272 0.0
O23 O 0.81012 0.81212 0.97512 0.0
Zn24 Zn 0.72386 0.77157 0.97683 0.0
O25 O 0.75395 0.70931 0.97314 0.0
Zn26 Zn 0.7102 0.68114 0.9139 0.0
Zn27 Zn 0.86091 0.70623 0.96717 0.0
Zn28 Zn 0.72043 0.67864 0.03404 0.0
O29 O 0.65365 0.62661 0.93256 0.0
O30 O 0.65831 0.62518 0.01678 0.0
O31 O 0.65788 0.78779 0.91912 0.0
O32 O 0.6432 0.72357 0.87829 0.0
O33 O 0.78684 0.66272 0.86331 0.0
O34 O 0.89224 0.67619 0.90259 0.0
O35 O 0.90349 0.67358 0.02601 0.0
O36 O 0.67002 0.78529 0.04104 0.0
O37 O 0.80722 0.65778 0.07457 0.0
O38 O 0.66211 0.71998 0.07942 0.0
C39 C 0.87901 0.80626 0.97102 0.0
C40 C 0.63733 0.60871 0.97461 0.0
C41 C 0.85662 0.6618 0.86451 0.0
C42 C 0.6295 0.76478 0.88366 0.0
C43 C 0.87598 0.6571 0.06609 0.0
C44 C 0.64866 0.76147 0.07779 0.0
O45 O 0.90675 0.76756 0.96692 0.0
O46 O 0.19914 0.88469 0.47339 0.0
Zn47 Zn 0.29122 0.84852 0.47731 0.0
O48 O 0.26795 0.78511 0.47132 0.0
Zn49 Zn 0.28285 0.75466 0.53516 0.0
Zn50 Zn 0.16599 0.77782 0.45002 0.0
Zn51 Zn 0.33403 0.75878 0.42208 0.0
O52 O 0.35226 0.70243 0.52824 0.0
O53 O 0.39705 0.71078 0.4506 0.0
O54 O 0.33766 0.8616 0.54508 0.0
O55 O 0.32515 0.79736 0.58554 0.0
O56 O 0.18848 0.73037 0.56219 0.0
O57 O 0.1097 0.73998 0.49898 0.0
O58 O 0.16118 0.74812 0.38158 0.0
O59 O 0.35908 0.86931 0.42119 0.0
O60 O 0.27791 0.73185 0.36468 0.0
O61 O 0.3976 0.80432 0.39113 0.0
C62 C 0.13304 0.87607 0.46136 0.0
C63 C 0.39536 0.69049 0.49261 0.0
C64 C 0.12523 0.7251 0.54267 0.0
C65 C 0.34504 0.83792 0.58456 0.0
C66 C 0.21028 0.73064 0.35324 0.0
C67 C 0.4001 0.84651 0.39179 0.0
O68 O 0.11272 0.83687 0.44976 0.0
O69 O 0.68379 0.3776 0.52466 0.0
Zn70 Zn 0.76506 0.33326 0.53232 0.0
O71 O 0.73351 0.27457 0.50726 0.0
Zn72 Zn 0.74712 0.22916 0.55875 0.0
Zn73 Zn 0.6301 0.27655 0.48677 0.0
Zn74 Zn 0.79419 0.25789 0.45033 0.0
O75 O 0.81352 0.1787 0.53688 0.0
O76 O 0.85016 0.20179 0.46137 0.0
O77 O 0.78887 0.33001 0.60665 0.0
O78 O 0.78683 0.25729 0.6218 0.0
O79 O 0.65098 0.20359 0.57973 0.0
O80 O 0.5677 0.23988 0.53434 0.0
O81 O 0.61871 0.25524 0.41383 0.0
O82 O 0.8534 0.35761 0.49399 0.0
O83 O 0.73474 0.24815 0.38845 0.0
O84 O 0.86683 0.30441 0.436 0.0
C85 C 0.61824 0.37552 0.50822 0.0
C86 C 0.85137 0.17342 0.49669 0.0
C87 C 0.5846 0.21202 0.56864 0.0
C88 C 0.79691 0.29717 0.63635 0.0
C89 C 0.6664 0.2467 0.37954 0.0
C90 C 0.88646 0.34098 0.45577 0.0
O91 O 0.59077 0.33927 0.49206 0.0
H92 H 0.58413 0.55216 0.93659 0.0
C93 C 0.59394 0.56757 0.97337 0.0
H94 H 0.57572 0.56355 0.05235 0.0
H95 H 0.33527 0.42985 0.93204 0.0
H96 H 0.28697 0.49683 0.89387 0.0
H97 H 0.34288 0.56974 0.91203 0.0
H98 H 0.44874 0.57578 0.96716 0.0
C99 C 0.5654 0.54907 0.01519 0.0
C100 C 0.52307 0.5069 0.0119 0.0
C101 C 0.4581 0.50451 0.98231 0.0
C102 C 0.42271 0.46301 0.97475 0.0
C103 C 0.36185 0.46088 0.94142 0.0
C104 C 0.33389 0.49905 0.91889 0.0
C105 C 0.36559 0.54004 0.9289 0.0
C106 C 0.42687 0.54296 0.96024 0.0
H107 H 0.31294 0.40674 0.03056 0.0
C108 C 0.34024 0.37788 0.01408 0.0
H109 H 0.43773 0.35312 0.98064 0.0
H110 H 0.64475 0.50009 0.07252 0.0
H111 H 0.68723 0.4341 0.11587 0.0
H112 H 0.6207 0.36319 0.10743 0.0
H113 H 0.51207 0.3577 0.05492 0.0
C114 C 0.40872 0.38187 -0.00418 0.0
C115 C 0.44883 0.42466 8e-05 0.0
C116 C 0.51207 0.42736 0.03119 0.0
C117 C 0.54952 0.46846 0.03687 0.0
C118 C 0.61343 0.46995 0.06739 0.0
C119 C 0.63854 0.43227 0.09248 0.0
C120 C 0.60118 0.39233 0.08767 0.0
C121 C 0.53881 0.38967 0.05736 0.0
H122 H 0.48584 0.64593 0.47065 0.0
C123 C 0.44122 0.65053 0.49766 0.0
H124 H 0.37934 0.62114 0.55638 0.0
H125 H 0.55591 0.46138 0.42478 0.0
H126 H 0.47887 0.48314 0.35443 0.0
H127 H 0.39032 0.54486 0.36348 0.0
H128 H 0.38051 0.58611 0.44244 0.0
C129 C 0.42414 0.61744 0.5294 0.0
C130 C 0.46513 0.57461 0.52751 0.0
C131 C 0.46574 0.5486 0.48236 0.0
C132 C 0.51236 0.5108 0.47847 0.0
C133 C 0.51786 0.48846 0.43112 0.0
C134 C 0.47444 0.5009 0.39014 0.0
C135 C 0.42494 0.5358 0.39513 0.0
C136 C 0.4204 0.55948 0.44057 0.0
H137 H 0.51395 0.41235 0.50054 0.0
C138 C 0.57214 0.4158 0.50872 0.0
H139 H 0.65797 0.45981 0.52768 0.0
H140 H 0.47336 0.61568 0.62024 0.0
H141 H 0.5427 0.59046 0.6931 0.0
H142 H 0.61603 0.52152 0.68873 0.0
H143 H 0.62123 0.47768 0.61139 0.0
C144 C 0.60012 0.45621 0.5186 0.0
C145 C 0.55304 0.49665 0.52134 0.0
C146 C 0.54938 0.52137 0.56732 0.0
C147 C 0.50589 0.56062 0.57023 0.0
C148 C 0.50481 0.58532 0.61614 0.0
C149 C 0.54437 0.57124 0.65827 0.0
C150 C 0.58572 0.53246 0.65579 0.0
C151 C 0.58837 0.50767 0.61102 0.0
H152 H 0.05337 0.06249 0.05292 0.0
C153 C 0.06927 0.07667 0.01673 0.0
H154 H 0.07725 0.06678 0.93766 0.0
H155 H 0.01061 0.8692 0.0478 0.0
H156 H 0.12678 0.879 0.09089 0.0
H157 H 0.20026 0.94667 0.07823 0.0
H158 H 0.15663 1.00564 0.02371 0.0
C159 C 0.06077 0.05286 0.97385 0.0
C160 C 0.02455 0.00853 0.97396 0.0
C161 C 0.05347 0.97305 0.00314 0.0
C162 C 0.01361 0.93268 0.00757 0.0
C163 C 0.04038 0.89952 0.04072 0.0
C164 C 0.10685 0.90483 0.06605 0.0
C165 C 0.14804 0.94303 0.05914 0.0
C166 C 0.12198 0.97683 0.0281 0.0
H167 H 0.98378 0.84123 0.95698 0.0
C168 C 0.92759 0.84535 0.97016 0.0
H169 H 0.84685 0.88971 -0.00224 0.0
H170 H 0.95587 0.06874 0.91216 0.0
H171 H 0.8457 0.05643 0.86292 0.0
H172 H 0.78187 0.98435 0.86526 0.0
H173 H 0.82741 0.92437 0.9174 0.0
C174 C 0.90328 0.88561 0.98505 0.0
C175 C 0.94778 0.92666 0.97967 0.0
C176 C 0.92159 0.96104 0.94784 0.0
C177 C 0.95948 1.00218 0.94543 0.0
C178 C 0.93033 0.03647 0.91476 0.0
C179 C 0.8669 0.02991 0.88631 0.0
C180 C 0.83089 0.98938 0.8877 0.0
C181 C 0.85757 0.95527 0.91802 0.0
H182 H 0.93548 0.13341 0.45766 0.0
C183 C 0.89724 0.13363 0.48939 0.0
H184 H 0.85409 0.0969 0.55057 0.0
H185 H 0.0245 0.9576 0.38748 0.0
H186 H 0.92726 0.97648 0.32883 0.0
H187 H 0.83154 0.03093 0.35261 0.0
H188 H 0.83384 0.06764 0.43477 0.0
C189 C 0.89135 0.09733 0.51835 0.0
C190 C 0.93871 0.05789 0.50832 0.0
C191 C 0.93376 0.03462 0.46144 0.0
C192 C 0.98619 1.00119 0.44902 0.0
C193 C 0.98381 0.98142 0.40013 0.0
C194 C 0.92859 0.99225 0.36584 0.0
C195 C 0.87491 0.02305 0.37912 0.0
C196 C 0.87722 0.04412 0.42627 0.0
H197 H 0.01975 0.90243 0.46237 0.0
C198 C 0.07733 0.9116 0.46459 0.0
H199 H 0.15347 0.96326 0.47638 0.0
H200 H 0.96064 0.09423 0.60258 0.0
H201 H 0.05245 0.07184 0.66384 0.0
H202 H 0.13847 0.01054 0.64473 0.0
H203 H 0.13369 0.97156 0.56416 0.0
C204 C 0.09598 0.95417 0.47302 0.0
C205 C 0.04032 0.98896 0.48502 0.0
C206 C 0.04265 0.01061 0.53301 0.0
C207 C -0.00788 0.04532 0.5445 0.0
C208 C -0.00289 0.06727 0.59207 0.0
C209 C 0.04958 0.05477 0.62763 0.0
C210 C 0.09805 0.0203 0.61685 0.0
C211 C 0.09483 0.99831 0.57026 0.0
H212 H 0.6873 0.22866 0.29997 0.0
C213 C 0.64411 0.23464 0.32777 0.0
H214 H 0.52958 0.23798 0.33994 0.0
H215 H 0.46188 0.27525 0.10887 0.0
H216 H 0.44485 0.34869 0.14457 0.0
H217 H 0.47983 0.36506 0.23302 0.0
H218 H 0.53089 0.30758 0.28659 0.0
C219 C 0.57397 0.2308 0.31354 0.0
C220 C 0.5559 0.2208 0.25985 0.0
C221 C 0.52745 0.25495 0.2288 0.0
C222 C 0.50865 0.24564 0.17759 0.0
C223 C 0.47818 0.28022 0.14787 0.0
C224 C 0.46805 0.32273 0.16788 0.0
C225 C 0.48762 0.33194 0.21769 0.0
C226 C 0.51685 0.29859 0.24801 0.0
H227 H 0.40779 0.14814 0.14338 0.0
C228 C 0.42132 0.16681 0.10943 0.0
H229 H 0.49671 0.21049 0.07563 0.0
H230 H 0.60989 0.14767 0.30919 0.0
H231 H 0.63294 0.07492 0.27226 0.0
H232 H 0.60579 0.05989 0.1821 0.0
H233 H 0.55463 0.11767 0.12845 0.0
C234 C 0.48367 0.19042 0.1085 0.0
C235 C 0.51849 0.20205 0.15768 0.0
C236 C 0.55091 0.16862 0.18789 0.0
C237 C 0.5686 0.17775 0.23935 0.0
C238 C 0.5974 0.14302 0.26943 0.0
C239 C 0.61054 0.10101 0.24877 0.0
C240 C 0.59507 0.09251 0.19805 0.0
C241 C 0.56545 0.12579 0.16778 0.0
H242 H 0.58685 0.76055 0.14944 0.0
C243 C 0.60907 0.78225 0.12042 0.0
H244 H 0.62729 0.84907 0.09877 0.0
H245 H 0.36427 0.83367 0.27714 0.0
H246 H 0.28699 0.80873 0.20794 0.0
H247 H 0.33634 0.80193 0.12098 0.0
H248 H 0.46424 0.81945 0.10317 0.0
C249 C 0.60265 0.82656 0.12592 0.0
C250 C 0.56743 0.84506 0.17223 0.0
C251 C 0.49208 0.83709 0.18135 0.0
C252 C 0.46345 0.84201 0.23112 0.0
C253 C 0.38897 0.83102 0.23997 0.0
C254 C 0.34387 0.81673 0.2005 0.0
C255 C 0.37169 0.81283 0.15157 0.0
C256 C 0.44502 0.82276 0.14189 0.0
H257 H 0.42782 0.9019 0.34027 0.0
C258 C 0.44308 0.86856 0.35183 0.0
H259 H 0.5058 0.81117 0.33569 0.0
H260 H 0.70936 0.87355 0.16386 0.0
H261 H 0.78441 0.90431 0.23177 0.0
H262 H 0.73403 0.91368 0.3182 0.0
H263 H 0.60796 0.89224 0.33723 0.0
C264 C 0.49021 0.84438 0.32376 0.0
C265 C 0.51031 0.85579 0.27112 0.0
C266 C 0.58259 0.86976 0.26035 0.0
C267 C 0.61136 0.86452 0.21058 0.0
C268 C 0.68489 0.87697 0.2011 0.0
C269 C 0.72838 0.89467 0.23969 0.0
C270 C 0.70002 0.89992 0.28839 0.0
C271 C 0.62799 0.88743 0.29888 0.0
H272 H 0.5601 0.76499 0.81595 0.0
C273 C 0.58207 0.78601 0.846 0.0
H274 H 0.58848 0.85209 0.8747 0.0
H275 H 0.52222 0.84765 0.62702 0.0
H276 H 0.65467 0.85134 0.62239 0.0
H277 H 0.72941 0.85534 0.7002 0.0
H278 H 0.67127 0.85442 0.78354 0.0
C279 C 0.56783 0.8298 0.84552 0.0
C280 C 0.52498 0.84775 0.80265 0.0
C281 C 0.55908 0.85114 0.75466 0.0
C282 C 0.5157 0.85033 0.71002 0.0
C283 C 0.55179 0.84956 0.66238 0.0
C284 C 0.62809 0.85148 0.65914 0.0
C285 C 0.67023 0.85355 0.70295 0.0
C286 C 0.6364 0.853 0.75034 0.0
H287 H 0.40217 0.89096 0.62757 0.0
C288 C 0.38129 0.85722 0.62941 0.0
H289 H 0.37105 0.79925 0.67336 0.0
H290 H 0.4448 0.85266 0.88973 0.0
H291 H 0.31123 0.85612 0.89582 0.0
H292 H 0.23487 0.85686 0.81851 0.0
H293 H 0.29138 0.85394 0.7347 0.0
C294 C 0.39361 0.83253 0.67068 0.0
C295 C 0.43812 0.84788 0.71426 0.0
C296 C 0.40426 0.85131 0.76252 0.0
C297 C 0.44798 0.8512 0.80695 0.0
C298 C 0.41331 0.85261 0.85493 0.0
C299 C 0.33706 0.85474 0.85884 0.0
C300 C 0.29405 0.85514 0.81529 0.0
C301 C 0.32698 0.85331 0.76753 0.0
H302 H 0.54492 0.16843 0.62893 0.0
C303 C 0.52821 0.19466 0.60316 0.0
H304 H 0.45224 0.24632 0.59051 0.0
H305 H 0.31483 0.12456 0.7812 0.0
H306 H 0.28486 0.06983 0.71664 0.0
H307 H 0.32116 0.08099 0.62745 0.0
H308 H 0.38865 0.1469 0.60244 0.0
C309 C 0.46678 0.21773 0.61342 0.0
C310 C 0.43354 0.21421 0.66473 0.0
C311 C 0.39211 0.17642 0.67842 0.0
C312 C 0.36896 0.17082 0.72955 0.0
C313 C 0.33122 0.13147 0.74264 0.0
C314 C 0.31419 0.09957 0.70599 0.0
C315 C 0.33483 0.10578 0.65579 0.0
C316 C 0.37362 0.14363 0.64197 0.0
H317 H 0.24877 0.19956 0.80388 0.0
C318 C 0.29058 0.20007 0.83326 0.0
H319 H 0.40378 0.20042 0.84938 0.0
H320 H 0.51285 0.29066 0.65109 0.0
H321 H 0.54072 0.34619 0.71492 0.0
H322 H 0.496 0.33827 0.8027 0.0
H323 H 0.42407 0.27449 0.82728 0.0
C324 C 0.36179 0.19909 0.82018 0.0
C325 C 0.38544 0.20389 0.76646 0.0
C326 C 0.42562 0.2422 0.7524 0.0
C327 C 0.44998 0.24726 0.70157 0.0
C328 C 0.492 0.28524 0.68897 0.0
C329 C 0.50848 0.31749 0.72526 0.0
C330 C 0.4834 0.313 0.77467 0.0
C331 C 0.44232 0.276 0.78828 0.0
H332 H 0.90112 0.64205 0.14538 0.0
C333 C 0.92511 0.64429 0.10767 0.0
H334 H 0.02274 0.64778 0.0649 0.0
H335 H 0.14914 0.77185 0.23789 0.0
H336 H 0.15068 0.8196 0.16442 0.0
H337 H 0.10374 0.79313 0.08191 0.0
H338 H 0.05537 0.71887 0.07251 0.0
C339 C -0.00161 0.64497 0.10238 0.0
C340 C 0.04408 0.65578 0.14722 0.0
C341 C 0.07464 0.69896 0.15132 0.0
C342 C 0.10201 0.71413 0.1987 0.0
C343 C 0.12877 0.7582 0.20262 0.0
C344 C 0.12968 0.78614 0.16074 0.0
C345 C 0.10325 0.77126 0.11433 0.0
C346 C 0.07559 0.72837 0.10951 0.0
H347 H 0.23301 0.70009 0.27863 0.0
C348 C 0.18963 0.70957 0.30498 0.0
H349 H 0.07517 0.71117 0.31831 0.0
H350 H 0.00366 0.5686 0.14836 0.0
H351 H 0.00857 0.51897 0.22091 0.0
H352 H 0.05523 0.5454 0.30356 0.0
H353 H 0.09756 0.62144 0.31422 0.0
C354 C 0.11942 0.7032 0.29208 0.0
C355 C 0.09976 0.68572 0.24135 0.0
C356 C 0.07513 0.64138 0.23608 0.0
C357 C 0.04764 0.62627 0.18872 0.0
C358 C 0.02378 0.58177 0.184 0.0
C359 C 0.02668 0.553 0.22517 0.0
C360 C 0.05304 0.56787 0.27171 0.0
C361 C 0.07699 0.61156 0.27736 0.0
H362 H 0.92808 0.38802 0.40171 0.0
C363 C 0.94618 0.36463 0.43035 0.0
H364 H 0.02652 0.3191 0.45192 0.0
H365 H -0.0074 0.23812 0.23342 0.0
H366 H 0.94529 0.18 0.28718 0.0
H367 H 0.94353 0.18912 0.38009 0.0
H368 H 0.98496 0.25718 0.41936 0.0
C369 C 0.00934 0.34238 0.4229 0.0
C370 C 0.03284 0.33249 0.36989 0.0
C371 C 0.01577 0.2903 0.34848 0.0
C372 C 0.02338 0.2832 0.29547 0.0
C373 C -0.00544 0.24363 0.27394 0.0
C374 C 0.96603 0.21022 0.3043 0.0
C375 C 0.96454 0.21551 0.35655 0.0
C376 C 0.98845 0.25505 0.37856 0.0
H377 H 0.13275 0.24649 0.22761 0.0
C378 C 0.11526 0.26938 0.19825 0.0
H379 H 0.05919 0.32899 0.18185 0.0
H380 H 0.07356 0.41585 0.39938 0.0
H381 H 0.12683 0.4728 0.34586 0.0
H382 H 0.15119 0.45809 0.25523 0.0
H383 H 0.12198 0.38674 0.21738 0.0
C384 C 0.07631 0.30581 0.21098 0.0
C385 C 0.05764 0.31587 0.26497 0.0
C386 C 0.07671 0.3576 0.28663 0.0
C387 C 0.06323 0.36609 0.33901 0.0
C388 C 0.08194 0.40804 0.35966 0.0
C389 C 0.11293 0.44085 0.32947 0.0
C390 C 0.12672 0.43254 0.27845 0.0
C391 C 0.10942 0.3914 0.25714 0.0
H392 H 0.83166 0.27535 0.71152 0.0
C393 C 0.81662 0.30449 0.68958 0.0
H394 H 0.80053 0.37433 0.69174 0.0
H395 H 0.81613 0.27413 0.91931 0.0
H396 H 0.6883 0.25494 0.90287 0.0
H397 H 0.62714 0.27916 0.82416 0.0
H398 H 0.69361 0.32268 0.7613 0.0
C399 C 0.81448 0.34444 0.7125 0.0
C400 C 0.83706 0.34745 0.76637 0.0
C401 C 0.79668 0.32408 0.80342 0.0
C402 C 0.8317 0.3104 0.84865 0.0
C403 C 0.79163 0.2851 0.88415 0.0
C404 C 0.71844 0.2741 0.87522 0.0
C405 C 0.68397 0.28774 0.83089 0.0
C406 C 0.72252 0.31241 0.79514 0.0
H407 H 0.96527 0.3433 0.94727 0.0
C408 C 0.97815 0.30953 0.93533 0.0
H409 H 0.96197 0.25966 0.87988 0.0
H410 H 0.91974 0.40366 0.70948 0.0
H411 H 0.0443 0.42789 0.72815 0.0
H412 H 0.10706 0.40323 0.80597 0.0
H413 H 0.04616 0.35463 0.86547 0.0
C414 C 0.94963 0.29338 0.89222 0.0
C415 C 0.90639 0.32084 0.85669 0.0
C416 C 0.9429 0.35032 0.8233 0.0
C417 C 0.90738 0.36413 0.77815 0.0
C418 C 0.94506 0.39215 0.74411 0.0
C419 C 0.01622 0.40631 0.75445 0.0
C420 C 0.05154 0.39243 0.79829 0.0
C421 C 0.0158 0.36451 0.83226 0.0
H422 H 0.01153 0.70314 0.55655 0.0
C423 C 0.06649 0.70429 0.57252 0.0
H424 H 0.13235 0.69097 0.63663 0.0
H425 H 0.81661 0.72285 0.75114 0.0
H426 H 0.8243 0.79841 0.72075 0.0
H427 H 0.92081 0.82019 0.66017 0.0
H428 H 0.00969 0.76659 0.62963 0.0
C429 C 0.07759 0.69095 0.62035 0.0
C430 C 0.01589 0.67757 0.65359 0.0
C431 C 0.9646 0.70986 0.67112 0.0
C432 C 0.91029 0.69775 0.70707 0.0
C433 C 0.85959 0.73039 0.72421 0.0
C434 C 0.86324 0.77393 0.707 0.0
C435 C 0.9175 0.78613 0.67288 0.0
C436 C 0.96795 0.75475 0.65527 0.0
H437 H 0.95773 0.6521 0.82047 0.0
C438 C 0.89818 0.64997 0.81855 0.0
H439 H 0.80616 0.64588 0.76997 0.0
H440 H 0.10155 0.60705 0.62429 0.0
H441 H 0.09377 0.53151 0.65595 0.0
H442 H 0.00121 0.51143 0.72027 0.0
H443 H 0.91565 0.56683 0.75323 0.0
C444 C 0.86563 0.64562 0.77316 0.0
C445 C 0.90966 0.65419 0.72705 0.0
C446 C 0.95853 0.62155 0.708 0.0
C447 C 0.01176 0.63322 0.67105 0.0
C448 C 0.06035 0.6 0.65271 0.0
C449 C 0.05634 0.55655 0.67047 0.0
C450 C 0.00425 0.54523 0.70671 0.0
C451 C 0.95575 0.57726 0.72544 0.0
loop_
_geom_bond_atom_site_label_1
_geom_bond_atom_site_label_2
_geom_bond_distance
_geom_bond_site_symmetry_2
_ccdc_geom_bond_type
O0 Zn1 1.953 . S
O0 C16 1.225 1_556 S
Zn1 O0 1.953 . S
Zn1 O2 1.949 1_556 S
Zn1 O8 1.919 . S
Zn1 O13 1.924 1_556 S
O2 Zn1 1.949 1_554 S
O2 Zn3 1.923 1_554 S
O2 Zn4 1.950 . S
O2 Zn5 1.945 . S
Zn3 O2 1.923 1_556 S
Zn3 O6 1.933 . S
Zn3 O9 1.941 . S
Zn3 O10 1.965 . S
Zn4 O2 1.950 . S
Zn4 O11 1.938 1_554 S
Zn4 O12 1.906 . S
Zn4 O22 1.953 . S
Zn5 O2 1.945 . S
Zn5 O7 1.932 . S
Zn5 O14 1.977 . S
Zn5 O15 1.910 . S
O6 Zn3 1.933 . S
O6 C17 1.226 1_556 S
O7 Zn5 1.932 . S
O7 C17 1.307 . S
O8 Zn1 1.919 . S
O8 C19 1.253 . S
O9 Zn3 1.941 . S
O9 C19 1.283 . S
O10 Zn3 1.965 . S
O10 C18 1.303 . S
O11 Zn4 1.938 1_556 S
O11 C18 1.247 . S
O12 Zn4 1.906 . S
O12 C20 1.304 . S
O13 Zn1 1.924 1_554 S
O13 C21 1.311 . S
O14 Zn5 1.977 . S
O14 C20 1.272 . S
O15 Zn5 1.910 . S
O15 C21 1.231 . S
C16 O0 1.225 1_554 S
C16 O22 1.298 . S
C17 O6 1.226 1_554 S
C17 O7 1.307 . S
C18 O10 1.303 . S
C18 O11 1.247 . S
C19 O8 1.253 . S
C19 O9 1.283 . S
C20 O12 1.304 . S
C20 O14 1.272 . S
C21 O13 1.311 . S
C21 O15 1.231 . S
O22 Zn4 1.953 . S
O22 C16 1.298 . S
O23 Zn24 1.953 . S
O23 C39 1.225 1_556 S
Zn24 O23 1.953 . S
Zn24 O25 1.949 1_556 S
Zn24 O31 1.919 . S
Zn24 O36 1.924 1_556 S
O25 Zn24 1.949 1_554 S
O25 Zn26 1.923 1_554 S
O25 Zn27 1.950 . S
O25 Zn28 1.945 . S
Zn26 O25 1.923 1_556 S
Zn26 O29 1.933 . S
Zn26 O32 1.941 . S
Zn26 O33 1.965 . S
Zn27 O25 1.950 . S
Zn27 O34 1.938 1_554 S
Zn27 O35 1.906 . S
Zn27 O45 1.953 . S
Zn28 O25 1.945 . S
Zn28 O30 1.932 . S
Zn28 O37 1.977 . S
Zn28 O38 1.910 . S
O29 Zn26 1.933 . S
O29 C40 1.226 1_556 S
O30 Zn28 1.932 . S
O30 C40 1.307 . S
O31 Zn24 1.919 . S
O31 C42 1.253 . S
O32 Zn26 1.941 . S
O32 C42 1.283 . S
O33 Zn26 1.965 . S
O33 C41 1.303 . S
O34 Zn27 1.938 1_556 S
O34 C41 1.247 . S
O35 Zn27 1.906 . S
O35 C43 1.304 . S
O36 Zn24 1.924 1_554 S
O36 C44 1.311 . S
O37 Zn28 1.977 . S
O37 C43 1.272 . S
O38 Zn28 1.910 . S
O38 C44 1.231 . S
C39 O23 1.225 1_554 S
C39 O45 1.298 . S
C40 O29 1.226 1_554 S
C40 O30 1.307 . S
C41 O33 1.303 . S
C41 O34 1.247 . S
C42 O31 1.253 . S
C42 O32 1.283 . S
C43 O35 1.304 . S
C43 O37 1.272 . S
C44 O36 1.311 . S
C44 O38 1.231 . S
O45 Zn27 1.953 . S
O45 C39 1.298 . S
O46 Zn47 1.953 . S
O46 C62 1.225 . S
Zn47 O46 1.953 . S
Zn47 O48 1.949 . S
Zn47 O54 1.919 . S
Zn47 O59 1.924 . S
O48 Zn47 1.949 . S
O48 Zn49 1.923 . S
O48 Zn50 1.950 . S
O48 Zn51 1.945 . S
Zn49 O48 1.923 . S
Zn49 O52 1.933 . S
Zn49 O55 1.941 . S
Zn49 O56 1.965 . S
Zn50 O48 1.950 . S
Zn50 O57 1.938 . S
Zn50 O58 1.906 . S
Zn50 O68 1.953 . S
Zn51 O48 1.945 . S
Zn51 O53 1.932 . S
Zn51 O60 1.977 . S
Zn51 O61 1.910 . S
O52 Zn49 1.933 . S
O52 C63 1.226 . S
O53 Zn51 1.932 . S
O53 C63 1.307 . S
O54 Zn47 1.919 . S
O54 C65 1.253 . S
O55 Zn49 1.941 . S
O55 C65 1.283 . S
O56 Zn49 1.965 . S
O56 C64 1.303 . S
O57 Zn50 1.938 . S
O57 C64 1.247 . S
O58 Zn50 1.906 . S
O58 C66 1.304 . S
O59 Zn47 1.924 . S
O59 C67 1.311 . S
O60 Zn51 1.977 . S
O60 C66 1.272 . S
O61 Zn51 1.910 . S
O61 C67 1.231 . S
C62 O46 1.225 . S
C62 O68 1.298 . S
C63 O52 1.226 . S
C63 O53 1.307 . S
C64 O56 1.303 . S
C64 O57 1.247 . S
C65 O54 1.253 . S
C65 O55 1.283 . S
C66 O58 1.304 . S
C66 O60 1.272 . S
C67 O59 1.311 . S
C67 O61 1.231 . S
O68 Zn50 1.953 . S
O68 C62 1.298 . S
O69 Zn70 1.953 . S
O69 C85 1.225 . S
Zn70 O69 1.953 . S
Zn70 O71 1.949 . S
Zn70 O77 1.919 . S
Zn70 O82 1.924 . S
O71 Zn70 1.949 . S
O71 Zn72 1.923 . S
O71 Zn73 1.950 . S
O71 Zn74 1.945 . S
Zn72 O71 1.923 . S
Zn72 O75 1.933 . S
Zn72 O78 1.941 . S
Zn72 O79 1.965 . S
Zn73 O71 1.950 . S
Zn73 O80 1.938 . S
Zn73 O81 1.906 . S
Zn73 O91 1.953 . S
Zn74 O71 1.945 . S
Zn74 O76 1.932 . S
Zn74 O83 1.977 . S
Zn74 O84 1.910 . S
O75 Zn72 1.933 . S
O75 C86 1.226 . S
O76 Zn74 1.932 . S
O76 C86 1.307 . S
O77 Zn70 1.919 . S
O77 C88 1.253 . S
O78 Zn72 1.941 . S
O78 C88 1.283 . S
O79 Zn72 1.965 . S
O79 C87 1.303 . S
O80 Zn73 1.938 . S
O80 C87 1.247 . S
O81 Zn73 1.906 . S
O81 C89 1.304 . S
O82 Zn70 1.924 . S
O82 C90 1.311 . S
O83 Zn74 1.977 . S
O83 C89 1.272 . S
O84 Zn74 1.910 . S
O84 C90 1.231 . S
C85 O69 1.225 . S
C85 O91 1.298 . S
C86 O75 1.226 . S
C86 O76 1.307 . S
C87 O79 1.303 . S
C87 O80 1.247 . S
C88 O77 1.253 . S
C88 O78 1.283 . S
C89 O81 1.304 . S
C89 O83 1.272 . S
C90 O82 1.311 . S
C90 O84 1.231 . S
O91 Zn73 1.953 . S
O91 C85 1.298 . S
H92 C93 0.951 . S
C93 H92 0.951 . S
C93 C99 1.266 . S
H94 C99 0.949 1_556 S
H95 C103 0.949 . S
H96 C104 0.950 . S
H97 C105 0.951 . S
H98 C106 0.951 . S
C99 C93 1.266 . S
C99 H94 0.949 1_554 S
C99 C100 1.478 . S
C100 C99 1.478 . S
C100 C101 1.397 1_554 S
C100 C117 1.394 . S
C101 C100 1.397 1_556 S
C101 C102 1.438 . S
C101 C106 1.429 . S
C102 C101 1.438 . S
C102 C103 1.428 . S
C102 C115 1.394 1_556 S
C103 H95 0.949 . S
C103 C102 1.428 . S
C103 C104 1.345 . S
C104 H96 0.950 . S
C104 C103 1.345 . S
C104 C105 1.424 . S
C105 H97 0.951 . S
C105 C104 1.424 . S
C105 C106 1.347 . S
C106 H98 0.951 . S
C106 C101 1.429 . S
C106 C105 1.347 . S
H107 C108 0.950 1_556 S
C108 H107 0.950 1_554 S
C108 C114 1.265 . S
H109 C114 0.950 . S
H110 C118 0.949 . S
H111 C119 0.950 . S
H112 C120 0.951 . S
H113 C121 0.951 . S
C114 C108 1.265 . S
C114 H109 0.950 . S
C114 C115 1.478 . S
C115 C102 1.394 1_554 S
C115 C114 1.478 . S
C115 C116 1.397 . S
C116 C115 1.397 . S
C116 C117 1.438 . S
C116 C121 1.429 . S
C117 C100 1.394 . S
C117 C116 1.438 . S
C117 C118 1.428 . S
C118 H110 0.949 . S
C118 C117 1.428 . S
C118 C119 1.345 . S
C119 H111 0.950 . S
C119 C118 1.345 . S
C119 C120 1.424 . S
C120 H112 0.951 . S
C120 C119 1.424 . S
C120 C121 1.347 . S
C121 H113 0.951 . S
C121 C116 1.429 . S
C121 C120 1.347 . S
H122 C123 0.951 . S
C123 H122 0.951 . S
C123 C129 1.265 . S
H124 C129 0.950 . S
H125 C133 0.949 . S
H126 C134 0.950 . S
H127 C135 0.951 . S
H128 C136 0.951 . S
C129 C123 1.265 . S
C129 H124 0.950 . S
C129 C130 1.478 . S
C130 C129 1.478 . S
C130 C131 1.397 . S
C130 C147 1.394 . S
C131 C130 1.397 . S
C131 C132 1.438 . S
C131 C136 1.429 . S
C132 C131 1.438 . S
C132 C133 1.428 . S
C132 C145 1.394 . S
C133 H125 0.949 . S
C133 C132 1.428 . S
C133 C134 1.345 . S
C134 H126 0.950 . S
C134 C133 1.345 . S
C134 C135 1.424 . S
C135 H127 0.951 . S
C135 C134 1.424 . S
C135 C136 1.347 . S
C136 H128 0.951 . S
C136 C131 1.429 . S
C136 C135 1.347 . S
H137 C138 0.951 . S
C138 H137 0.951 . S
C138 C144 1.265 . S
H139 C144 0.950 . S
H140 C148 0.949 . S
H141 C149 0.950 . S
H142 C150 0.951 . S
H143 C151 0.951 . S
C144 C138 1.265 . S
C144 H139 0.950 . S
C144 C145 1.478 . S
C145 C132 1.394 . S
C145 C144 1.478 . S
C145 C146 1.397 . S
C146 C145 1.397 . S
C146 C147 1.438 . S
C146 C151 1.429 . S
C147 C130 1.394 . S
C147 C146 1.438 . S
C147 C148 1.428 . S
C148 H140 0.949 . S
C148 C147 1.428 . S
C148 C149 1.345 . S
C149 H141 0.950 . S
C149 C148 1.345 . S
C149 C150 1.424 . S
C150 H142 0.951 . S
C150 C149 1.424 . S
C150 C151 1.347 . S
C151 H143 0.951 . S
C151 C146 1.429 . S
C151 C150 1.347 . S
H152 C153 0.952 . S
C153 H152 0.952 . S
C153 C159 1.265 . S
H154 C159 0.950 . S
H155 C163 0.949 . S
H156 C164 0.950 1_655 S
H157 C165 0.951 . S
H158 C166 0.949 1_545 S
C159 C153 1.265 . S
C159 H154 0.950 . S
C159 C160 1.478 . S
C160 C159 1.478 . S
C160 C161 1.398 1_545 S
C160 C177 1.394 1_554 S
C161 C160 1.398 1_565 S
C161 C162 1.436 1_455 S
C161 C166 1.429 . S
C162 C161 1.436 1_655 S
C162 C163 1.428 . S
C162 C175 1.394 . S
C163 H155 0.949 . S
C163 C162 1.428 . S
C163 C164 1.345 1_655 S
C164 H156 0.950 1_455 S
C164 C163 1.345 1_455 S
C164 C165 1.424 . S
C165 H157 0.951 . S
C165 C164 1.424 . S
C165 C166 1.349 . S
C166 H158 0.949 1_565 S
C166 C161 1.429 . S
C166 C165 1.349 . S
H167 C168 0.951 . S
C168 H167 0.951 . S
C168 C174 1.264 1_554 S
H169 C174 0.951 . S
H170 C178 0.949 . S
H171 C179 0.950 . S
H172 C180 0.951 . S
H173 C181 0.959 . S
C174 C168 1.264 1_556 S
C174 H169 0.951 . S
C174 C175 1.478 1_556 S
C175 C162 1.394 . S
C175 C174 1.478 1_554 S
C175 C176 1.407 1_554 S
C176 C175 1.407 1_556 S
C176 C177 1.427 1_665 S
C176 C181 1.429 . S
C177 C160 1.394 1_556 S
C177 C176 1.427 1_445 S
C177 C178 1.428 . S
C178 H170 0.949 . S
C178 C177 1.428 . S
C178 C179 1.345 1_455 S
C179 H171 0.950 . S
C179 C178 1.345 1_655 S
C179 C180 1.424 . S
C180 H172 0.951 . S
C180 C179 1.424 . S
C180 C181 1.339 1_545 S
C181 H173 0.959 . S
C181 C176 1.429 . S
C181 C180 1.339 1_565 S
H182 C183 0.951 . S
C183 H182 0.951 . S
C183 C189 1.265 . S
H184 C189 0.950 . S
H185 C193 0.949 . S
H186 C194 0.950 1_455 S
H187 C195 0.951 . S
H188 C196 0.951 1_545 S
C189 C183 1.265 . S
C189 H184 0.950 . S
C189 C190 1.478 . S
C190 C189 1.478 . S
C190 C191 1.389 1_545 S
C190 C207 1.394 . S
C191 C190 1.389 1_565 S
C191 C192 1.446 1_655 S
C191 C196 1.429 . S
C192 C191 1.446 1_455 S
C192 C193 1.428 . S
C192 C205 1.394 . S
C193 H185 0.949 . S
C193 C192 1.428 . S
C193 C194 1.345 1_455 S
C194 H186 0.950 1_655 S
C194 C193 1.345 1_655 S
C194 C195 1.424 . S
C195 H187 0.951 . S
C195 C194 1.424 . S
C195 C196 1.347 . S
C196 H188 0.951 1_565 S
C196 C191 1.429 . S
C196 C195 1.347 . S
H197 C198 0.951 . S
C198 H197 0.951 . S
C198 C204 1.265 . S
H199 C204 0.950 . S
H200 C208 0.949 . S
H201 C209 0.950 . S
H202 C210 0.951 . S
H203 C211 0.943 1_565 S
C204 C198 1.265 . S
C204 H199 0.950 . S
C204 C205 1.478 . S
C205 C192 1.394 . S
C205 C204 1.478 . S
C205 C206 1.398 . S
C206 C205 1.398 . S
C206 C207 1.436 1_465 S
C206 C211 1.429 1_565 S
C207 C190 1.394 . S
C207 C206 1.436 1_645 S
C207 C208 1.428 . S
C208 H200 0.949 . S
C208 C207 1.428 . S
C208 C209 1.345 1_655 S
C209 H201 0.950 . S
C209 C208 1.345 1_455 S
C209 C210 1.424 . S
C210 H202 0.951 . S
C210 C209 1.424 . S
C210 C211 1.355 . S
C211 H203 0.943 1_545 S
C211 C206 1.429 1_545 S
C211 C210 1.355 . S
H212 C213 0.951 . S
C213 H212 0.951 . S
C213 C219 1.265 . S
H214 C219 0.950 . S
H215 C223 0.949 . S
H216 C224 0.950 . S
H217 C225 0.951 . S
H218 C226 0.951 . S
C219 C213 1.265 . S
C219 H214 0.950 . S
C219 C220 1.478 . S
C220 C219 1.478 . S
C220 C221 1.397 . S
C220 C237 1.394 . S
C221 C220 1.397 . S
C221 C222 1.438 . S
C221 C226 1.429 . S
C222 C221 1.438 . S
C222 C223 1.428 . S
C222 C235 1.394 . S
C223 H215 0.949 . S
C223 C222 1.428 . S
C223 C224 1.345 . S
C224 H216 0.950 . S
C224 C223 1.345 . S
C224 C225 1.424 . S
C225 H217 0.951 . S
C225 C224 1.424 . S
C225 C226 1.347 . S
C226 H218 0.951 . S
C226 C221 1.429 . S
C226 C225 1.347 . S
H227 C228 0.951 . S
C228 H227 0.951 . S
C228 C234 1.265 . S
H229 C234 0.950 . S
H230 C238 0.949 . S
H231 C239 0.950 . S
H232 C240 0.951 . S
H233 C241 0.951 . S
C234 C228 1.265 . S
C234 H229 0.950 . S
C234 C235 1.478 . S
C235 C222 1.394 . S
C235 C234 1.478 . S
C235 C236 1.397 . S
C236 C235 1.397 . S
C236 C237 1.438 . S
C236 C241 1.429 . S
C237 C220 1.394 . S
C237 C236 1.438 . S
C237 C238 1.428 . S
C238 H230 0.949 . S
C238 C237 1.428 . S
C238 C239 1.345 . S
C239 H231 0.950 . S
C239 C238 1.345 . S
C239 C240 1.424 . S
C240 H232 0.951 . S
C240 C239 1.424 . S
C240 C241 1.347 . S
C241 H233 0.951 . S
C241 C236 1.429 . S
C241 C240 1.347 . S
H242 C243 0.951 . S
C243 H242 0.951 . S
C243 C249 1.265 . S
H244 C249 0.950 . S
H245 C253 0.949 . S
H246 C254 0.950 . S
H247 C255 0.951 . S
H248 C256 0.951 . S
C249 C243 1.265 . S
C249 H244 0.950 . S
C249 C250 1.478 . S
C250 C249 1.478 . S
C250 C251 1.397 . S
C250 C267 1.394 . S
C251 C250 1.397 . S
C251 C252 1.438 . S
C251 C256 1.429 . S
C252 C251 1.438 . S
C252 C253 1.428 . S
C252 C265 1.394 . S
C253 H245 0.949 . S
C253 C252 1.428 . S
C253 C254 1.345 . S
C254 H246 0.950 . S
C254 C253 1.345 . S
C254 C255 1.424 . S
C255 H247 0.951 . S
C255 C254 1.424 . S
C255 C256 1.347 . S
C256 H248 0.951 . S
C256 C251 1.429 . S
C256 C255 1.347 . S
H257 C258 0.951 . S
C258 H257 0.951 . S
C258 C264 1.265 . S
H259 C264 0.950 . S
H260 C268 0.949 . S
H261 C269 0.950 . S
H262 C270 0.951 . S
H263 C271 0.951 . S
C264 C258 1.265 . S
C264 H259 0.950 . S
C264 C265 1.478 . S
C265 C252 1.394 . S
C265 C264 1.478 . S
C265 C266 1.397 . S
C266 C265 1.397 . S
C266 C267 1.438 . S
C266 C271 1.429 . S
C267 C250 1.394 . S
C267 C266 1.438 . S
C267 C268 1.428 . S
C268 H260 0.949 . S
C268 C267 1.428 . S
C268 C269 1.345 . S
C269 H261 0.950 . S
C269 C268 1.345 . S
C269 C270 1.424 . S
C270 H262 0.951 . S
C270 C269 1.424 . S
C270 C271 1.347 . S
C271 H263 0.951 . S
C271 C266 1.429 . S
C271 C270 1.347 . S
H272 C273 0.951 . S
C273 H272 0.951 . S
C273 C279 1.265 . S
H274 C279 0.950 . S
H275 C283 0.949 . S
H276 C284 0.950 . S
H277 C285 0.951 . S
H278 C286 0.951 . S
C279 C273 1.265 . S
C279 H274 0.950 . S
C279 C280 1.478 . S
C280 C279 1.478 . S
C280 C281 1.397 . S
C280 C297 1.394 . S
C281 C280 1.397 . S
C281 C282 1.438 . S
C281 C286 1.429 . S
C282 C281 1.438 . S
C282 C283 1.428 . S
C282 C295 1.394 . S
C283 H275 0.949 . S
C283 C282 1.428 . S
C283 C284 1.345 . S
C284 H276 0.950 . S
C284 C283 1.345 . S
C284 C285 1.424 . S
C285 H277 0.951 . S
C285 C284 1.424 . S
C285 C286 1.347 . S
C286 H278 0.951 . S
C286 C281 1.429 . S
C286 C285 1.347 . S
H287 C288 0.951 . S
C288 H287 0.951 . S
C288 C294 1.265 . S
H289 C294 0.950 . S
H290 C298 0.949 . S
H291 C299 0.950 . S
H292 C300 0.951 . S
H293 C301 0.951 . S
C294 C288 1.265 . S
C294 H289 0.950 . S
C294 C295 1.478 . S
C295 C282 1.394 . S
C295 C294 1.478 . S
C295 C296 1.397 . S
C296 C295 1.397 . S
C296 C297 1.438 . S
C296 C301 1.429 . S
C297 C280 1.394 . S
C297 C296 1.438 . S
C297 C298 1.428 . S
C298 H290 0.949 . S
C298 C297 1.428 . S
C298 C299 1.345 . S
C299 H291 0.950 . S
C299 C298 1.345 . S
C299 C300 1.424 . S
C300 H292 0.951 . S
C300 C299 1.424 . S
C300 C301 1.347 . S
C301 H293 0.951 . S
C301 C296 1.429 . S
C301 C300 1.347 . S
H302 C303 0.951 . S
C303 H302 0.951 . S
C303 C309 1.265 . S
H304 C309 0.950 . S
H305 C313 0.949 . S
H306 C314 0.950 . S
H307 C315 0.951 . S
H308 C316 0.951 . S
C309 C303 1.265 . S
C309 H304 0.950 . S
C309 C310 1.478 . S
C310 C309 1.478 . S
C310 C311 1.397 . S
C310 C327 1.394 . S
C311 C310 1.397 . S
C311 C312 1.438 . S
C311 C316 1.429 . S
C312 C311 1.438 . S
C312 C313 1.428 . S
C312 C325 1.394 . S
C313 H305 0.949 . S
C313 C312 1.428 . S
C313 C314 1.345 . S
C314 H306 0.950 . S
C314 C313 1.345 . S
C314 C315 1.424 . S
C315 H307 0.951 . S
C315 C314 1.424 . S
C315 C316 1.347 . S
C316 H308 0.951 . S
C316 C311 1.429 . S
C316 C315 1.347 . S
H317 C318 0.951 . S
C318 H317 0.951 . S
C318 C324 1.265 . S
H319 C324 0.950 . S
H320 C328 0.949 . S
H321 C329 0.950 . S
H322 C330 0.951 . S
H323 C331 0.951 . S
C324 C318 1.265 . S
C324 H319 0.950 . S
C324 C325 1.478 . S
C325 C312 1.394 . S
C325 C324 1.478 . S
C325 C326 1.397 . S
C326 C325 1.397 . S
C326 C327 1.438 . S
C326 C331 1.429 . S
C327 C310 1.394 . S
C327 C326 1.438 . S
C327 C328 1.428 . S
C328 H320 0.949 . S
C328 C327 1.428 . S
C328 C329 1.345 . S
C329 H321 0.950 . S
C329 C328 1.345 . S
C329 C330 1.424 . S
C330 H322 0.951 . S
C330 C329 1.424 . S
C330 C331 1.347 . S
C331 H323 0.951 . S
C331 C326 1.429 . S
C331 C330 1.347 . S
H332 C333 0.951 . S
C333 H332 0.951 . S
C333 C339 1.265 . S
H334 C339 0.950 . S
H335 C343 0.949 . S
H336 C344 0.950 . S
H337 C345 0.951 . S
H338 C346 0.951 . S
C339 C333 1.265 . S
C339 H334 0.950 . S
C339 C340 1.478 . S
C340 C339 1.478 . S
C340 C341 1.397 1_655 S
C340 C357 1.394 . S
C341 C340 1.397 1_455 S
C341 C342 1.438 . S
C341 C346 1.429 . S
C342 C341 1.438 . S
C342 C343 1.428 . S
C342 C355 1.394 . S
C343 H335 0.949 . S
C343 C342 1.428 . S
C343 C344 1.345 . S
C344 H336 0.950 . S
C344 C343 1.345 . S
C344 C345 1.424 . S
C345 H337 0.951 . S
C345 C344 1.424 . S
C345 C346 1.347 . S
C346 H338 0.951 . S
C346 C341 1.429 . S
C346 C345 1.347 . S
H347 C348 0.951 . S
C348 H347 0.951 . S
C348 C354 1.265 . S
H349 C354 0.950 . S
H350 C358 0.949 . S
H351 C359 0.950 . S
H352 C360 0.951 . S
H353 C361 0.951 . S
C354 C348 1.265 . S
C354 H349 0.950 . S
C354 C355 1.478 . S
C355 C342 1.394 . S
C355 C354 1.478 . S
C355 C356 1.397 1_455 S
C356 C355 1.397 1_655 S
C356 C357 1.438 . S
C356 C361 1.429 . S
C357 C340 1.394 . S
C357 C356 1.438 . S
C357 C358 1.428 . S
C358 H350 0.949 . S
C358 C357 1.428 . S
C358 C359 1.345 . S
C359 H351 0.950 . S
C359 C358 1.345 . S
C359 C360 1.424 . S
C360 H352 0.951 . S
C360 C359 1.424 . S
C360 C361 1.347 . S
C361 H353 0.951 . S
C361 C356 1.429 . S
C361 C360 1.347 . S
H362 C363 0.951 . S
C363 H362 0.951 . S
C363 C369 1.265 . S
H364 C369 0.950 . S
H365 C373 0.949 . S
H366 C374 0.950 . S
H367 C375 0.951 . S
H368 C376 0.947 1_655 S
C369 C363 1.265 . S
C369 H364 0.950 . S
C369 C370 1.478 . S
C370 C369 1.478 . S
C370 C371 1.394 1_655 S
C370 C387 1.394 . S
C371 C370 1.394 1_455 S
C371 C372 1.440 . S
C371 C376 1.429 . S
C372 C371 1.440 . S
C372 C373 1.428 . S
C372 C385 1.394 . S
C373 H365 0.949 . S
C373 C372 1.428 . S
C373 C374 1.345 . S
C374 H366 0.950 . S
C374 C373 1.345 . S
C374 C375 1.424 . S
C375 H367 0.951 . S
C375 C374 1.424 . S
C375 C376 1.351 . S
C376 H368 0.947 1_455 S
C376 C371 1.429 . S
C376 C375 1.351 . S
H377 C378 0.951 . S
C378 H377 0.951 . S
C378 C384 1.265 . S
H379 C384 0.950 . S
H380 C388 0.949 . S
H381 C389 0.950 . S
H382 C390 0.951 . S
H383 C391 0.947 1_455 S
C384 C378 1.265 . S
C384 H379 0.950 . S
C384 C385 1.478 . S
C385 C372 1.394 . S
C385 C384 1.478 . S
C385 C386 1.394 1_455 S
C386 C385 1.394 1_655 S
C386 C387 1.440 . S
C386 C391 1.429 . S
C387 C370 1.394 . S
C387 C386 1.440 . S
C387 C388 1.428 . S
C388 H380 0.949 . S
C388 C387 1.428 . S
C388 C389 1.345 . S
C389 H381 0.950 . S
C389 C388 1.345 . S
C389 C390 1.424 . S
C390 H382 0.951 . S
C390 C389 1.424 . S
C390 C391 1.351 . S
C391 H383 0.947 1_655 S
C391 C386 1.429 . S
C391 C390 1.351 . S
H392 C393 0.951 . S
C393 H392 0.951 . S
C393 C399 1.265 . S
H394 C399 0.950 . S
H395 C403 0.949 . S
H396 C404 0.950 . S
H397 C405 0.951 . S
H398 C406 0.951 . S
C399 C393 1.265 . S
C399 H394 0.950 . S
C399 C400 1.478 . S
C400 C399 1.478 . S
C400 C401 1.397 . S
C400 C417 1.394 . S
C401 C400 1.397 . S
C401 C402 1.438 1_655 S
C401 C406 1.429 . S
C402 C401 1.438 1_455 S
C402 C403 1.428 . S
C402 C415 1.394 . S
C403 H395 0.949 . S
C403 C402 1.428 . S
C403 C404 1.345 1_455 S
C404 H396 0.950 . S
C404 C403 1.345 1_655 S
C404 C405 1.424 . S
C405 H397 0.951 . S
C405 C404 1.424 . S
C405 C406 1.347 . S
C406 H398 0.951 . S
C406 C401 1.429 . S
C406 C405 1.347 . S
H407 C408 0.951 . S
C408 H407 0.951 . S
C408 C414 1.265 . S
H409 C414 0.950 . S
H410 C418 0.949 . S
H411 C419 0.950 . S
H412 C420 0.951 . S
H413 C421 0.951 . S
C414 C408 1.265 . S
C414 H409 0.950 . S
C414 C415 1.478 . S
C415 C402 1.394 . S
C415 C414 1.478 . S
C415 C416 1.397 . S
C416 C415 1.397 . S
C416 C417 1.438 1_455 S
C416 C421 1.429 . S
C417 C400 1.394 . S
C417 C416 1.438 1_655 S
C417 C418 1.428 . S
C418 H410 0.949 . S
C418 C417 1.428 . S
C418 C419 1.345 1_655 S
C419 H411 0.950 . S
C419 C418 1.345 1_455 S
C419 C420 1.424 . S
C420 H412 0.951 . S
C420 C419 1.424 . S
C420 C421 1.347 . S
C421 H413 0.951 . S
C421 C416 1.429 . S
C421 C420 1.347 . S
H422 C423 0.951 . S
C423 H422 0.951 . S
C423 C429 1.265 . S
H424 C429 0.950 . S
H425 C433 0.949 . S
H426 C434 0.950 . S
H427 C435 0.951 . S
H428 C436 0.951 . S
C429 C423 1.265 . S
C429 H424 0.950 . S
C429 C430 1.478 . S
C430 C429 1.478 . S
C430 C431 1.397 . S
C430 C447 1.394 . S
C431 C430 1.397 . S
C431 C432 1.438 1_455 S
C431 C436 1.429 . S
C432 C431 1.438 1_655 S
C432 C433 1.428 . S
C432 C445 1.394 . S
C433 H425 0.949 . S
C433 C432 1.428 . S
C433 C434 1.345 1_655 S
C434 H426 0.950 . S
C434 C433 1.345 1_455 S
C434 C435 1.424 . S
C435 H427 0.951 . S
C435 C434 1.424 . S
C435 C436 1.347 . S
C436 H428 0.951 . S
C436 C431 1.429 . S
C436 C435 1.347 . S
H437 C438 0.951 . S
C438 H437 0.951 . S
C438 C444 1.265 . S
H439 C444 0.950 . S
H440 C448 0.949 . S
H441 C449 0.950 . S
H442 C450 0.951 . S
H443 C451 0.951 . S
C444 C438 1.265 . S
C444 H439 0.950 . S
C444 C445 1.478 . S
C445 C432 1.394 . S
C445 C444 1.478 . S
C445 C446 1.397 . S
C446 C445 1.397 . S
C446 C447 1.438 1_655 S
C446 C451 1.429 . S
C447 C430 1.394 . S
C447 C446 1.438 1_455 S
C447 C448 1.428 . S
C448 H440 0.949 . S
C448 C447 1.428 . S
C448 C449 1.345 1_455 S
C449 H441 0.950 . S
C449 C448 1.345 1_655 S
C449 C450 1.424 . S
C450 H442 0.951 . S
C450 C449 1.424 . S
C450 C451 1.347 . S
C451 H443 0.951 . S
C451 C446 1.429 . S
C451 C450 1.347 . S
C93 C40 1.700 . S
C108 C16 1.698 . S
C123 C63 1.644 . S
C138 C85 1.637 . S
C153 C17 1.644 . S
C168 C39 1.636 . S
C183 C86 1.644 . S
C198 C62 1.636 . S
C213 C89 0.859 . S
C228 C20 0.836 . S
C243 C44 0.898 . S
C258 C67 0.902 . S
C273 C42 0.855 . S
C288 C65 0.853 . S
C303 C87 0.815 . S
C318 C18 0.806 . S
C333 C43 0.853 . S
C348 C66 0.841 . S
C363 C90 0.922 . S
C378 C21 0.878 . S
C393 C88 0.848 . S
C408 C19 0.859 . S
C423 C64 0.842 . S
C438 C41 0.842 . S
