# Generated by pormake.
# Topology wmi, (6)-cn, num edge types: 1
# Building blocks:
#     Node 0, Type 0, BuildingBlock: GEDQOX_clean_sbu_0, # of connection points: 6
#     Node 1, Type 0, BuildingBlock: GEDQOX_clean_sbu_0, # of connection points: 6
#     Node 2, Type 0, BuildingBlock: GEDQOX_clean_sbu_0, # of connection points: 6
#     Node 3, Type 0, BuildingBlock: GEDQOX_clean_sbu_0, # of connection points: 6
#     Node 4, Type 0, BuildingBlock: GEDQOX_clean_sbu_0, # of connection points: 6
#     Node 5, Type 0, BuildingBlock: GEDQOX_clean_sbu_0, # of connection points: 6
#     Node 6, Type 0, BuildingBlock: GEDQOX_clean_sbu_0, # of connection points: 6
#     Node 7, Type 0, BuildingBlock: GEDQOX_clean_sbu_0, # of connection points: 6
#     Node 8, Type 0, BuildingBlock: GEDQOX_clean_sbu_0, # of connection points: 6
#     Node 9, Type 0, BuildingBlock: GEDQOX_clean_sbu_0, # of connection points: 6
#     Node 10, Type 0, BuildingBlock: GEDQOX_clean_sbu_0, # of connection points: 6
#     Node 11, Type 0, BuildingBlock: GEDQOX_clean_sbu_0, # of connection points: 6
#     Node 12, Type 0, BuildingBlock: GEDQOX_clean_sbu_0, # of connection points: 6
#     Node 13, Type 0, BuildingBlock: GEDQOX_clean_sbu_0, # of connection points: 6
#     Node 14, Type 0, BuildingBlock: GEDQOX_clean_sbu_0, # of connection points: 6
#     Node 15, Type 0, BuildingBlock: GEDQOX_clean_sbu_0, # of connection points: 6
#     Node 16, Type 0, BuildingBlock: GEDQOX_clean_sbu_0, # of connection points: 6
#     Node 17, Type 0, BuildingBlock: GEDQOX_clean_sbu_0, # of connection points: 6
#     Edge 18, Type (0, 0), BuildingBlock: MIFKUJ_clean_linker_0, # of connection points: 2
#     Edge 19, Type (0, 0), BuildingBlock: MIFKUJ_clean_linker_0, # of connection points: 2
#     Edge 20, Type (0, 0), BuildingBlock: MIFKUJ_clean_linker_0, # of connection points: 2
#     Edge 21, Type (0, 0), BuildingBlock: MIFKUJ_clean_linker_0, # of connection points: 2
#     Edge 22, Type (0, 0), BuildingBlock: MIFKUJ_clean_linker_0, # of connection points: 2
#     Edge 23, Type (0, 0), BuildingBlock: MIFKUJ_clean_linker_0, # of connection points: 2
#     Edge 24, Type (0, 0), BuildingBlock: MIFKUJ_clean_linker_0, # of connection points: 2
#     Edge 25, Type (0, 0), BuildingBlock: MIFKUJ_clean_linker_0, # of connection points: 2
#     Edge 26, Type (0, 0), BuildingBlock: MIFKUJ_clean_linker_0, # of connection points: 2
#     Edge 27, Type (0, 0), BuildingBlock: MIFKUJ_clean_linker_0, # of connection points: 2
#     Edge 28, Type (0, 0), BuildingBlock: MIFKUJ_clean_linker_0, # of connection points: 2
#     Edge 29, Type (0, 0), BuildingBlock: MIFKUJ_clean_linker_0, # of connection points: 2
#     Edge 30, Type (0, 0), BuildingBlock: MIFKUJ_clean_linker_0, # of connection points: 2
#     Edge 31, Type (0, 0), BuildingBlock: MIFKUJ_clean_linker_0, # of connection points: 2
#     Edge 32, Type (0, 0), BuildingBlock: MIFKUJ_clean_linker_0, # of connection points: 2
#     Edge 33, Type (0, 0), BuildingBlock: MIFKUJ_clean_linker_0, # of connection points: 2
#     Edge 34, Type (0, 0), BuildingBlock: MIFKUJ_clean_linker_0, # of connection points: 2
#     Edge 35, Type (0, 0), BuildingBlock: MIFKUJ_clean_linker_0, # of connection points: 2
#     Edge 36, Type (0, 0), BuildingBlock: MIFKUJ_clean_linker_0, # of connection points: 2
#     Edge 37, Type (0, 0), BuildingBlock: MIFKUJ_clean_linker_0, # of connection points: 2
#     Edge 38, Type (0, 0), BuildingBlock: MIFKUJ_clean_linker_0, # of connection points: 2
#     Edge 39, Type (0, 0), BuildingBlock: MIFKUJ_clean_linker_0, # of connection points: 2
#     Edge 40, Type (0, 0), BuildingBlock: MIFKUJ_clean_linker_0, # of connection points: 2
#     Edge 41, Type (0, 0), BuildingBlock: MIFKUJ_clean_linker_0, # of connection points: 2
#     Edge 42, Type (0, 0), BuildingBlock: MIFKUJ_clean_linker_0, # of connection points: 2
#     Edge 43, Type (0, 0), BuildingBlock: MIFKUJ_clean_linker_0, # of connection points: 2
#     Edge 44, Type (0, 0), BuildingBlock: MIFKUJ_clean_linker_0, # of connection points: 2
#     Edge 45, Type (0, 0), BuildingBlock: MIFKUJ_clean_linker_0, # of connection points: 2
#     Edge 46, Type (0, 0), BuildingBlock: MIFKUJ_clean_linker_0, # of connection points: 2
#     Edge 47, Type (0, 0), BuildingBlock: MIFKUJ_clean_linker_0, # of connection points: 2
#     Edge 48, Type (0, 0), BuildingBlock: MIFKUJ_clean_linker_0, # of connection points: 2
#     Edge 49, Type (0, 0), BuildingBlock: MIFKUJ_clean_linker_0, # of connection points: 2
#     Edge 50, Type (0, 0), BuildingBlock: MIFKUJ_clean_linker_0, # of connection points: 2
#     Edge 51, Type (0, 0), BuildingBlock: MIFKUJ_clean_linker_0, # of connection points: 2
#     Edge 52, Type (0, 0), BuildingBlock: MIFKUJ_clean_linker_0, # of connection points: 2
#     Edge 53, Type (0, 0), BuildingBlock: MIFKUJ_clean_linker_0, # of connection points: 2
#     Edge 54, Type (0, 0), BuildingBlock: MIFKUJ_clean_linker_0, # of connection points: 2
#     Edge 55, Type (0, 0), BuildingBlock: MIFKUJ_clean_linker_0, # of connection points: 2
#     Edge 56, Type (0, 0), BuildingBlock: MIFKUJ_clean_linker_0, # of connection points: 2
#     Edge 57, Type (0, 0), BuildingBlock: MIFKUJ_clean_linker_0, # of connection points: 2
#     Edge 58, Type (0, 0), BuildingBlock: MIFKUJ_clean_linker_0, # of connection points: 2
#     Edge 59, Type (0, 0), BuildingBlock: MIFKUJ_clean_linker_0, # of connection points: 2
#     Edge 60, Type (0, 0), BuildingBlock: MIFKUJ_clean_linker_0, # of connection points: 2
#     Edge 61, Type (0, 0), BuildingBlock: MIFKUJ_clean_linker_0, # of connection points: 2
#     Edge 62, Type (0, 0), BuildingBlock: MIFKUJ_clean_linker_0, # of connection points: 2
#     Edge 63, Type (0, 0), BuildingBlock: MIFKUJ_clean_linker_0, # of connection points: 2
#     Edge 64, Type (0, 0), BuildingBlock: MIFKUJ_clean_linker_0, # of connection points: 2
#     Edge 65, Type (0, 0), BuildingBlock: MIFKUJ_clean_linker_0, # of connection points: 2
#     Edge 66, Type (0, 0), BuildingBlock: MIFKUJ_clean_linker_0, # of connection points: 2
#     Edge 67, Type (0, 0), BuildingBlock: MIFKUJ_clean_linker_0, # of connection points: 2
#     Edge 68, Type (0, 0), BuildingBlock: MIFKUJ_clean_linker_0, # of connection points: 2
#     Edge 69, Type (0, 0), BuildingBlock: MIFKUJ_clean_linker_0, # of connection points: 2
#     Edge 70, Type (0, 0), BuildingBlock: MIFKUJ_clean_linker_0, # of connection points: 2
#     Edge 71, Type (0, 0), BuildingBlock: MIFKUJ_clean_linker_0, # of connection points: 2
# Relax obj value: 0.090
# Max RMSD: 0.203
# Mean RMSD: 0.203
data_MOF--net-wmi--node1-GEDQOX_clean_sbu_0--edge1-MIFKUJ_clean_linker_0
_symmetry_space_group_name_H-M    P1
_symmetry_Int_Tables_number       1
_symmetry_cell_setting            triclinic
loop_
_symmetry_equiv_pos_as_xyz
'x, y, z'
_cell_length_a     49.677906
_cell_length_b     49.609875
_cell_length_c     105.84835
_cell_angle_alpha  90.047502
_cell_angle_beta   89.947223
_cell_angle_gamma 119.98146
loop_
_atom_site_label
_atom_site_type_symbol
_atom_site_fract_x
_atom_site_fract_y
_atom_site_fract_z
_atom_type_partial_charge
Nd0 Nd 0.47292 0.05237 0.09677 0.0
Nd1 Nd 0.49573 1.00473 0.10419 0.0
C2 C 0.46608 0.09849 0.08753 0.0
C3 C 0.47635 0.13191 0.09009 0.0
C4 C 0.49992 0.15568 0.08277 0.0
C5 C 0.50839 0.18698 0.08463 0.0
C6 C 0.49338 0.19546 0.0938 0.0
C7 C 0.46996 0.17166 0.10118 0.0
C8 C 0.46154 0.14039 0.09934 0.0
C9 C 0.45466 0.02704 0.12048 0.0
C10 C 0.54659 0.07966 0.10521 0.0
C11 C 0.50826 0.96448 0.11552 0.0
C12 C 0.51761 0.94107 0.11257 0.0
C13 C 0.53606 0.93617 0.12124 0.0
C14 C 0.54487 0.91386 0.1189 0.0
C15 C 0.53543 0.89575 0.1078 0.0
C16 C 0.51713 0.90095 0.09904 0.0
C17 C 0.50829 0.92335 0.1014 0.0
C18 C 0.49758 1.01224 0.07798 0.0
C19 C 0.42454 0.97919 0.09535 0.0
O20 O 0.48672 0.09167 0.08328 0.0
O21 O 0.44678 0.07775 0.09554 0.0
O22 O 0.43964 0.03624 0.11334 0.0
O23 O 0.48109 0.03449 0.11565 0.0
O24 O 0.52433 0.08553 0.10191 0.0
O25 O 0.54123 0.05104 0.10711 0.0
O26 O 0.4802 0.95796 0.11229 0.0
O27 O 0.52904 0.99374 0.11369 0.0
O28 O 0.50545 0.99408 0.08367 0.0
O29 O 0.48959 0.02494 0.08626 0.0
O30 O 0.44275 0.97642 0.1037 0.0
O31 O 0.4337 1.00538 0.08892 0.0
H32 H 0.51154 0.15003 0.07545 0.0
H33 H 0.52621 0.20448 0.07863 0.0
H34 H 0.45812 0.17716 0.10845 0.0
H35 H 0.44315 0.12283 0.10512 0.0
H36 H 0.54364 0.94962 0.12989 0.0
H37 H 0.55939 0.91102 0.12578 0.0
H38 H 0.50917 0.88733 0.09045 0.0
H39 H 0.49404 0.92669 0.09454 0.0
Nd40 Nd 1.01435 0.44753 0.09856 0.0
Nd41 Nd 0.06027 0.51888 0.10353 0.0
C42 C 0.96835 0.39024 0.09357 0.0
C43 C 0.93406 0.36907 0.09473 0.0
C44 C 0.9128 0.36916 0.08597 0.0
C45 C 0.88084 0.34729 0.0869 0.0
C46 C 0.86941 0.32465 0.09656 0.0
C47 C 0.89076 0.32504 0.10539 0.0
C48 C 0.92249 0.34675 0.10445 0.0
C49 C 0.04834 0.46067 0.12042 0.0
C50 C 0.98595 0.4938 0.10616 0.0
C51 C 0.10113 0.57357 0.11324 0.0
C52 C 0.12668 0.6046 0.10924 0.0
C53 C 0.15584 0.61723 0.1151 0.0
C54 C 0.17963 0.64739 0.11217 0.0
C55 C 0.17481 0.66583 0.10335 0.0
C56 C 0.14573 0.65282 0.09729 0.0
C57 C 0.12198 0.62259 0.10018 0.0
C58 C 0.0469 0.5097 0.07781 0.0
C59 C 0.08756 0.47513 0.09267 0.0
O60 O 0.97953 0.41259 0.08512 0.0
O61 O 0.98406 0.39851 0.10412 0.0
O62 O 0.04144 0.43731 0.11304 0.0
O63 O 0.03615 0.47656 0.11654 0.0
O64 O 0.9805 0.46608 0.10237 0.0
O65 O 1.01435 0.51678 0.10844 0.0
O66 O 0.10609 0.55003 0.11257 0.0
O67 O 0.0728 0.56611 0.11003 0.0
O68 O 0.06494 0.53666 0.08287 0.0
O69 O 0.03666 0.48958 0.08643 0.0
O70 O 0.09284 0.49972 0.09942 0.0
O71 O 0.05913 0.45311 0.08934 0.0
H72 H 0.92085 0.38577 0.07828 0.0
H73 H 0.86523 0.34762 0.07985 0.0
H74 H 0.88297 0.30847 0.11309 0.0
H75 H 0.93813 0.34574 0.11132 0.0
H76 H 0.16012 0.60389 0.1221 0.0
H77 H 0.20182 0.65627 0.11687 0.0
H78 H 0.14094 0.6663 0.09055 0.0
H79 H 0.09976 0.61357 0.09549 0.0
Nd80 Nd 0.62072 0.5929 0.09844 0.0
Nd81 Nd 0.54668 0.57041 0.10459 0.0
C82 C 0.67253 0.60042 0.08791 0.0
C83 C 0.69649 0.59122 0.0904 0.0
C84 C 0.69826 0.56928 0.08253 0.0
C85 C 0.7208 0.56055 0.08456 0.0
C86 C 0.74248 0.57366 0.09447 0.0
C87 C 0.74075 0.59572 0.10233 0.0
C88 C 0.71809 0.60437 0.10033 0.0
C89 C 0.61116 0.5983 0.1241 0.0
C90 C 0.56965 0.51825 0.10462 0.0
C91 C 0.49265 0.55802 0.11454 0.0
C92 C 0.45996 0.54758 0.11075 0.0
C93 C 0.45062 0.56956 0.10823 0.0
C94 C 0.4196 0.56005 0.10537 0.0
C95 C 0.39689 0.52827 0.10501 0.0
C96 C 0.40625 0.50627 0.10748 0.0
C97 C 0.43734 0.51578 0.11033 0.0
C98 C 0.55842 0.57283 0.07868 0.0
C99 C 0.59779 0.64391 0.10021 0.0
O100 O 0.64471 0.5781 0.08474 0.0
O101 O 0.67176 0.62126 0.09533 0.0
O102 O 0.63773 0.60477 0.11922 0.0
O103 O 0.59108 0.58703 0.11541 0.0
O104 O 0.59777 0.53964 0.10076 0.0
O105 O 0.54756 0.5248 0.10759 0.0
O106 O 0.51409 0.5859 0.11097 0.0
O107 O 0.50223 0.5377 0.11415 0.0
O108 O 0.53125 0.56435 0.08345 0.0
O109 O 0.57696 0.57894 0.08773 0.0
O110 O 0.5738 0.62327 0.10691 0.0
O111 O 0.61659 0.63664 0.09393 0.0
H112 H 0.68223 0.55891 0.07472 0.0
H113 H 0.72157 0.54389 0.07817 0.0
H114 H 0.75673 0.60614 0.11014 0.0
H115 H 0.71755 0.62136 0.10659 0.0
H116 H 0.46723 0.59425 0.10866 0.0
H117 H 0.4133 0.57774 0.10375 0.0
H118 H 0.38956 0.48159 0.10717 0.0
H119 H 0.44355 0.49818 0.11233 0.0
Nd120 Nd 0.05573 0.47028 0.92158 0.0
Nd121 Nd 1.01369 0.50087 0.91645 0.0
C122 C 0.09976 0.45639 0.92668 0.0
C123 C 0.13394 0.47074 0.92813 0.0
C124 C 0.14607 0.45411 0.93428 0.0
C125 C 0.17808 0.46475 0.93407 0.0
C126 C 0.19885 0.49232 0.92764 0.0
C127 C 0.18669 0.50964 0.92192 0.0
C128 C 0.15462 0.49895 0.92214 0.0
C129 C 0.02413 0.45449 0.89906 0.0
C130 C 0.08845 0.54603 0.91521 0.0
C131 C 0.97693 0.51951 0.90634 0.0
C132 C 0.95175 0.52614 0.90956 0.0
C133 C 0.92643 0.51624 0.90133 0.0
C134 C 0.90346 0.52416 0.90359 0.0
C135 C 0.90529 0.54229 0.91415 0.0
C136 C 0.9305 0.55182 0.92251 0.0
C137 C 0.95344 0.54377 0.92026 0.0
C138 C 0.02547 0.50218 0.94225 0.0
C139 C 0.98129 0.42755 0.92563 0.0
O140 O 0.08383 0.46077 0.93554 0.0
O141 O 0.08996 0.45718 0.9153 0.0
O142 O 0.02935 0.43588 0.90583 0.0
O143 O 0.03734 0.48184 0.90373 0.0
O144 O 0.09142 0.52306 0.92007 0.0
O145 O 0.06136 0.54184 0.91141 0.0
O146 O 0.97022 0.49038 0.90629 0.0
O147 O 1.00467 0.53853 0.91083 0.0
O148 O 1.00882 0.51292 0.93731 0.0
O149 O 0.03494 0.49197 0.93347 0.0
O150 O 0.97876 0.44917 0.91927 0.0
O151 O 1.00859 0.43136 0.92933 0.0
H152 H 0.13063 0.43224 0.93891 0.0
H153 H 0.18649 0.45104 0.9388 0.0
H154 H 0.20176 0.53083 0.91681 0.0
H155 H 0.14585 0.51213 0.91723 0.0
H156 H 0.92472 0.50284 0.89297 0.0
H157 H 0.88466 0.51672 0.89686 0.0
H158 H 0.93247 0.56544 0.93082 0.0
H159 H 0.97268 0.55169 0.9268 0.0
Nd160 Nd 0.59619 0.6165 0.92418 0.0
Nd161 Nd 0.56884 0.54143 0.9175 0.0
C162 C 0.60673 0.6689 0.93519 0.0
C163 C 0.59928 0.69415 0.93292 0.0
C164 C 0.57902 0.69762 0.94117 0.0
C165 C 0.57151 0.72106 0.93924 0.0
C166 C 0.58422 0.7419 0.92903 0.0
C167 C 0.60472 0.73857 0.92082 0.0
C168 C 0.61211 0.71498 0.92272 0.0
C169 C 0.60197 0.60713 0.89858 0.0
C170 C 0.52137 0.57016 0.91703 0.0
C171 C 0.55195 0.48742 0.90629 0.0
C172 C 0.54468 0.4553 0.90909 0.0
C173 C 0.53362 0.43318 0.89936 0.0
C174 C 0.52647 0.40252 0.90167 0.0
C175 C 0.53024 0.39321 0.9138 0.0
C176 C 0.54117 0.4155 0.92358 0.0
C177 C 0.54836 0.44627 0.92125 0.0
C178 C 0.57156 0.55277 0.94344 0.0
C179 C 0.64288 0.58728 0.9239 0.0
O180 O 0.58333 0.6415 0.93817 0.0
O181 O 0.62685 0.66714 0.92768 0.0
O182 O 0.61015 0.63408 0.90358 0.0
O183 O 0.58877 0.58682 0.9071 0.0
O184 O 0.54351 0.59722 0.92151 0.0
O185 O 0.52646 0.54734 0.91366 0.0
O186 O 0.58095 0.50954 0.90752 0.0
O187 O 0.53213 0.49558 0.91036 0.0
O188 O 0.56169 0.52527 0.93863 0.0
O189 O 0.57872 0.57156 0.93443 0.0
O190 O 0.62146 0.56308 0.9175 0.0
O191 O 0.63784 0.60907 0.92893 0.0
H192 H 0.56894 0.68215 0.94917 0.0
H193 H 0.55604 0.72311 0.94588 0.0
H194 H 0.61474 0.75393 0.91278 0.0
H195 H 0.6278 0.71306 0.91615 0.0
H196 H 0.53044 0.43961 0.88993 0.0
H197 H 0.51761 0.38601 0.89395 0.0
H198 H 0.54464 0.40931 0.93301 0.0
H199 H 0.55685 0.46302 0.9289 0.0
Nd200 Nd 0.45306 1.00778 0.92357 0.0
Nd201 Nd 0.52592 0.05992 0.91591 0.0
C202 C 0.40267 0.96403 0.93504 0.0
C203 C 0.37883 0.93101 0.93261 0.0
C204 C 0.38714 0.9094 0.92818 0.0
C205 C 0.36447 0.87813 0.92628 0.0
C206 C 0.33286 0.86767 0.92867 0.0
C207 C 0.32461 0.88948 0.93297 0.0
C208 C 0.34733 0.92072 0.93494 0.0
C209 C 0.45913 0.02174 0.89783 0.0
C210 C 0.50452 0.98521 0.91658 0.0
C211 C 0.57776 0.10173 0.90464 0.0
C212 C 0.61079 0.12376 0.9075 0.0
C213 C 0.62683 0.15078 0.90019 0.0
C214 C 0.65791 0.1725 0.90277 0.0
C215 C 0.67377 0.1678 0.91278 0.0
C216 C 0.65761 0.14052 0.92008 0.0
C217 C 0.62638 0.11875 0.91749 0.0
C218 C 0.51716 0.05214 0.94204 0.0
C219 C 0.4742 0.08084 0.92086 0.0
O220 O 0.43088 0.96975 0.93758 0.0
O221 O 0.40235 0.98516 0.9277 0.0
O222 O 0.43332 1.00169 0.90326 0.0
O223 O 0.48037 0.03051 0.90603 0.0
O224 O 0.47656 0.97814 0.92078 0.0
O225 O 0.52604 0.01384 0.91329 0.0
O226 O 0.55749 0.1083 0.90953 0.0
O227 O 0.56845 0.07188 0.90486 0.0
O228 O 0.54366 0.0711 0.93681 0.0
O229 O 0.49782 0.03898 0.93333 0.0
O230 O 0.49685 0.08346 0.91346 0.0
O231 O 0.45714 0.05567 0.92791 0.0
H232 H 0.41121 0.91663 0.9262 0.0
H233 H 0.3717 0.86219 0.92281 0.0
H234 H 0.3006 0.8823 0.93504 0.0
H235 H 0.34029 0.93684 0.93838 0.0
H236 H 0.61524 0.15514 0.89245 0.0
H237 H 0.66961 0.19291 0.89681 0.0
H238 H 0.66891 0.13625 0.92795 0.0
H239 H 0.61435 0.09817 0.92334 0.0
Nd240 Nd 0.14231 0.38451 0.43149 0.0
Nd241 Nd 0.16512 0.33701 0.43983 0.0
C242 C 0.13664 0.43086 0.42178 0.0
C243 C 0.1473 0.46429 0.42454 0.0
C244 C 0.17157 0.48818 0.41753 0.0
C245 C 0.18069 0.51956 0.4197 0.0
C246 C 0.16564 0.52797 0.42888 0.0
C247 C 0.14151 0.50402 0.43595 0.0
C248 C 0.13245 0.4727 0.4338 0.0
C249 C 0.12309 0.3598 0.45518 0.0
C250 C 0.21541 0.4119 0.44102 0.0
C251 C 0.17716 0.29703 0.45167 0.0
C252 C 0.1867 0.27372 0.44884 0.0
C253 C 0.20694 0.27052 0.45714 0.0
C254 C 0.21618 0.24851 0.45481 0.0
C255 C 0.20534 0.22905 0.44412 0.0
C256 C 0.18504 0.23238 0.43579 0.0
C257 C 0.17589 0.25453 0.4381 0.0
C258 C 0.16871 0.34492 0.41362 0.0
C259 C 0.09424 0.31108 0.43017 0.0
O260 O 0.15734 0.42375 0.41786 0.0
O261 O 0.11643 0.41 0.42952 0.0
O262 O 0.1086 0.36925 0.44785 0.0
O263 O 0.14967 0.36701 0.45059 0.0
O264 O 0.19358 0.41765 0.43694 0.0
O265 O 0.20982 0.38342 0.44345 0.0
O266 O 0.1492 0.29047 0.44824 0.0
O267 O 0.198 0.32628 0.44985 0.0
O268 O 0.17726 0.32746 0.41946 0.0
O269 O 0.1598 0.35697 0.42179 0.0
O270 O 0.11217 0.30846 0.43872 0.0
O271 O 0.1035 0.33721 0.42366 0.0
H272 H 0.18331 0.48261 0.41024 0.0
H273 H 0.19908 0.53719 0.41394 0.0
H274 H 0.12961 0.50945 0.44322 0.0
H275 H 0.11357 0.45506 0.43937 0.0
H276 H 0.21551 0.28499 0.4655 0.0
H277 H 0.23143 0.24639 0.46154 0.0
H278 H 0.17646 0.2181 0.42739 0.0
H279 H 0.16037 0.25661 0.43151 0.0
Nd280 Nd 0.6772 0.77803 0.43334 0.0
Nd281 Nd 0.7311 0.85149 0.43936 0.0
C282 C 0.63294 0.7265 0.4227 0.0
C283 C 0.60016 0.70223 0.42527 0.0
C284 C 0.57745 0.69507 0.41595 0.0
C285 C 0.54636 0.67235 0.4181 0.0
C286 C 0.53713 0.65604 0.42962 0.0
C287 C 0.55996 0.66323 0.43896 0.0
C288 C 0.59107 0.68611 0.43683 0.0
C289 C 0.69323 0.78735 0.45893 0.0
C290 C 0.65632 0.8311 0.43928 0.0
C291 C 0.77348 0.90507 0.44932 0.0
C292 C 0.79745 0.93684 0.44536 0.0
C293 C 0.82768 0.94969 0.4502 0.0
C294 C 0.85056 0.98005 0.44706 0.0
C295 C 0.84379 0.99846 0.439 0.0
C296 C 0.81359 0.98529 0.43394 0.0
C297 C 0.79067 0.95483 0.43708 0.0
C298 C 0.722 0.83906 0.41351 0.0
C299 C 0.75048 0.79854 0.4346 0.0
O300 O 0.63786 0.75435 0.41989 0.0
O301 O 0.65474 0.72716 0.42991 0.0
O302 O 0.67222 0.76099 0.45416 0.0
O303 O 0.70207 0.80739 0.45022 0.0
O304 O 0.64847 0.80258 0.43552 0.0
O305 O 0.68532 0.85246 0.44222 0.0
O306 O 0.77885 0.88242 0.44661 0.0
O307 O 0.74417 0.89715 0.44801 0.0
O308 O 0.74262 0.86578 0.4181 0.0
O309 O 0.70805 0.82146 0.42265 0.0
O310 O 0.75529 0.82285 0.44145 0.0
O311 O 0.72409 0.78077 0.4284 0.0
H312 H 0.58379 0.70705 0.40695 0.0
H313 H 0.52961 0.66724 0.41062 0.0
H314 H 0.55373 0.65146 0.448 0.0
H315 H 0.60794 0.6912 0.44425 0.0
H316 H 0.83358 0.93626 0.45653 0.0
H317 H 0.87364 0.98908 0.45095 0.0
H318 H 0.80741 0.99878 0.42778 0.0
H319 H 0.76759 0.94552 0.43314 0.0
Nd320 Nd 0.28664 0.92418 0.43462 0.0
Nd321 Nd 0.21121 0.89677 0.441 0.0
C322 C 0.33924 0.93413 0.42397 0.0
C323 C 0.36414 0.92608 0.42611 0.0
C324 C 0.36882 0.90775 0.41721 0.0
C325 C 0.39234 0.90022 0.41889 0.0
C326 C 0.41209 0.91099 0.42949 0.0
C327 C 0.40745 0.92945 0.43839 0.0
C328 C 0.38379 0.93685 0.43674 0.0
C329 C 0.27599 0.93046 0.46007 0.0
C330 C 0.24011 0.84943 0.44206 0.0
C331 C 0.15723 0.88061 0.45199 0.0
C332 C 0.12563 0.87489 0.44906 0.0
C333 C 0.10856 0.8796 0.45849 0.0
C334 C 0.07778 0.87219 0.45631 0.0
C335 C 0.06324 0.85977 0.44463 0.0
C336 C 0.08076 0.85578 0.43508 0.0
C337 C 0.1116 0.86325 0.43727 0.0
C338 C 0.2226 0.89701 0.41523 0.0
C339 C 0.25667 0.97057 0.43319 0.0
O340 O 0.3118 0.91133 0.42065 0.0
O341 O 0.33758 0.95393 0.43172 0.0
O342 O 0.30329 0.93918 0.45535 0.0
O343 O 0.25635 0.91665 0.45142 0.0
O344 O 0.26715 0.87146 0.43752 0.0
O345 O 0.21736 0.85467 0.44539 0.0
O346 O 0.18025 0.90943 0.45156 0.0
O347 O 0.16467 0.86058 0.44749 0.0
O348 O 0.19499 0.88655 0.41999 0.0
O349 O 0.24171 0.90601 0.42422 0.0
O350 O 0.23111 0.94915 0.4389 0.0
O351 O 0.27962 0.96585 0.42937 0.0
H352 H 0.35432 0.89933 0.40886 0.0
H353 H 0.39537 0.88637 0.41172 0.0
H354 H 0.4219 0.93793 0.44674 0.0
H355 H 0.38094 0.95101 0.44382 0.0
H356 H 0.1189 0.88861 0.46765 0.0
H357 H 0.06537 0.87618 0.46382 0.0
H358 H 0.07039 0.84605 0.426 0.0
H359 H 0.12429 0.85937 0.42983 0.0
Nd360 Nd 0.7283 0.80216 0.25771 0.0
Nd361 Nd 0.67493 0.82297 0.25265 0.0
C362 C 0.77376 0.79549 0.26757 0.0
C363 C 0.80707 0.80537 0.265 0.0
C364 C 0.83122 0.83397 0.26957 0.0
C365 C 0.8625 0.84269 0.26765 0.0
C366 C 0.87073 0.82304 0.26116 0.0
C367 C 0.84654 0.79445 0.25657 0.0
C368 C 0.81522 0.78572 0.25849 0.0
C369 C 0.70925 0.7939 0.2325 0.0
C370 C 0.75017 0.87645 0.25201 0.0
C371 C 0.63362 0.83556 0.24252 0.0
C372 C 0.61339 0.84843 0.24602 0.0
C373 C 0.60524 0.8634 0.23681 0.0
C374 C 0.58447 0.87392 0.23965 0.0
C375 C 0.57124 0.86961 0.25178 0.0
C376 C 0.57994 0.85506 0.26106 0.0
C377 C 0.60083 0.84465 0.25822 0.0
C378 C 0.68685 0.82184 0.27826 0.0
C379 C 0.65407 0.75038 0.25848 0.0
O380 O 0.76749 0.81711 0.27111 0.0
O381 O 0.75246 0.77482 0.26003 0.0
O382 O 0.73046 0.78835 0.23685 0.0
O383 O 0.7015 0.80572 0.24136 0.0
O384 O 0.75805 0.85509 0.25449 0.0
O385 O 0.72092 0.86978 0.25049 0.0
O386 O 0.62651 0.80852 0.24738 0.0
O387 O 0.66366 0.8549 0.24206 0.0
O388 O 0.6665 0.82868 0.27392 0.0
O389 O 0.69938 0.81654 0.26898 0.0
O390 O 0.64839 0.76979 0.252 0.0
O391 O 0.68173 0.75843 0.26345 0.0
H392 H 0.826 0.8496 0.27478 0.0
H393 H 0.88026 0.86463 0.27154 0.0
H394 H 0.85176 0.77877 0.2514 0.0
H395 H 0.79736 0.76341 0.25492 0.0
H396 H 0.61451 0.86644 0.22732 0.0
H397 H 0.57809 0.88465 0.23221 0.0
H398 H 0.5706 0.85171 0.27054 0.0
H399 H 0.60684 0.83327 0.26552 0.0
Nd400 Nd 0.26756 0.94687 0.25849 0.0
Nd401 Nd 0.24156 0.87521 0.25363 0.0
C402 C 0.27698 1.0032 0.26403 0.0
C403 C 0.26106 0.02188 0.26309 0.0
C404 C 0.25777 0.03666 0.27385 0.0
C405 C 0.24585 0.05699 0.27283 0.0
C406 C 0.23726 0.06333 0.261 0.0
C407 C 0.23975 0.04782 0.25031 0.0
C408 C 0.25136 0.02732 0.25134 0.0
C409 C 0.28758 0.93324 0.23651 0.0
C410 C 0.19313 0.90113 0.25052 0.0
C411 C 0.22707 0.8204 0.24377 0.0
C412 C 0.22061 0.78883 0.24743 0.0
C413 C 0.23616 0.77559 0.24119 0.0
C414 C 0.22892 0.745 0.2438 0.0
C415 C 0.20577 0.72678 0.25268 0.0
C416 C 0.19047 0.74023 0.25905 0.0
C417 C 0.19786 0.77091 0.25649 0.0
C418 C 0.23706 0.88488 0.27929 0.0
C419 C 0.31299 0.91895 0.26418 0.0
O420 O 0.26697 0.98069 0.27238 0.0
O421 O 0.28533 0.99604 0.25341 0.0
O422 O 0.30444 0.95689 0.24372 0.0
O423 O 0.25969 0.91756 0.2406 0.0
O424 O 0.21552 0.92887 0.25419 0.0
O425 O 0.19814 0.87774 0.24859 0.0
O426 O 0.25573 0.84343 0.24472 0.0
O427 O 0.20651 0.82834 0.24696 0.0
O428 O 0.22772 0.85771 0.27434 0.0
O429 O 0.24732 0.90479 0.2706 0.0
O430 O 0.29326 0.8941 0.25765 0.0
O431 O 0.307 0.94134 0.26741 0.0
H432 H 0.26521 0.03312 0.28301 0.0
H433 H 0.24444 0.06864 0.28125 0.0
H434 H 0.23293 0.05173 0.24108 0.0
H435 H 0.25337 0.01629 0.24284 0.0
H436 H 0.25359 0.78876 0.2341 0.0
H437 H 0.24093 0.73534 0.2386 0.0
H438 H 0.17282 0.72706 0.26606 0.0
H439 H 0.18546 0.78044 0.26149 0.0
Nd440 Nd 0.11944 0.34261 0.25787 0.0
Nd441 Nd 0.19151 0.38297 0.25195 0.0
C442 C 0.0607 0.29922 0.26202 0.0
C443 C 0.03855 0.26536 0.26327 0.0
C444 C 0.04828 0.24328 0.26427 0.0
C445 C 0.02637 0.21118 0.26397 0.0
C446 C 0.99427 0.20048 0.26255 0.0
C447 C 0.98494 0.22299 0.26165 0.0
C448 C 1.00672 0.25484 0.26204 0.0
C449 C 0.1342 0.37754 0.23616 0.0
C450 C 0.16028 0.30841 0.25031 0.0
C451 C 0.24677 0.42052 0.24174 0.0
C452 C 0.27907 0.44521 0.24488 0.0
C453 C 0.28582 0.47406 0.25007 0.0
C454 C 0.31676 0.49752 0.25217 0.0
C455 C 0.34173 0.49278 0.24911 0.0
C456 C 0.33475 0.46366 0.24412 0.0
C457 C 0.30392 0.44031 0.24201 0.0
C458 C 0.18267 0.36789 0.27757 0.0
C459 C 0.15373 0.41636 0.26396 0.0
O460 O 0.08036 0.31426 0.27121 0.0
O461 O 0.07276 0.30869 0.2508 0.0
O462 O 0.11232 0.37302 0.24398 0.0
O463 O 0.14786 0.36267 0.23958 0.0
O464 O 0.13585 0.30652 0.25615 0.0
O465 O 0.18254 0.33498 0.24572 0.0
O466 O 0.22443 0.42728 0.24236 0.0
O467 O 0.23797 0.39219 0.24554 0.0
O468 O 0.20979 0.38385 0.27235 0.0
O469 O 0.16243 0.36044 0.26914 0.0
O470 O 0.17725 0.41896 0.25711 0.0
O471 O 0.12956 0.38895 0.26716 0.0
H472 H 0.07277 0.25081 0.26505 0.0
H473 H 0.03466 0.19481 0.26483 0.0
H474 H 0.96079 0.21615 0.26022 0.0
H475 H 0.99867 0.2714 0.261 0.0
H476 H 0.26727 0.47872 0.25235 0.0
H477 H 0.32108 0.51966 0.2559 0.0
H478 H 0.35315 0.45879 0.24184 0.0
H479 H 0.2995 0.41838 0.23798 0.0
Nd480 Nd 0.81009 0.71862 0.76629 0.0
Nd481 Nd 0.83381 0.66894 0.77421 0.0
C482 C 0.80241 0.76147 0.75457 0.0
C483 C 0.81054 0.79436 0.75678 0.0
C484 C 0.82735 0.81697 0.74755 0.0
C485 C 0.83572 0.8482 0.74943 0.0
C486 C 0.82737 0.85769 0.7606 0.0
C487 C 0.81041 0.83495 0.76983 0.0
C488 C 0.80219 0.80371 0.76797 0.0
C489 C 0.80068 0.70366 0.79195 0.0
C490 C 0.88412 0.74465 0.77407 0.0
C491 C 0.84749 0.63017 0.78599 0.0
C492 C 0.85748 0.60736 0.78298 0.0
C493 C 0.84929 0.58224 0.79116 0.0
C494 C 0.8584 0.56027 0.78858 0.0
C495 C 0.87596 0.5629 0.77772 0.0
C496 C 0.88426 0.58825 0.76954 0.0
C497 C 0.87501 0.61021 0.77212 0.0
C498 C 0.83497 0.6776 0.74816 0.0
C499 C 0.76113 0.64335 0.7662 0.0
O500 O 0.82563 0.75674 0.75222 0.0
O501 O 0.78106 0.73986 0.7618 0.0
O502 O 0.79444 0.7233 0.78643 0.0
O503 O 0.81412 0.69555 0.78391 0.0
O504 O 0.86274 0.75049 0.76946 0.0
O505 O 0.87787 0.71645 0.77761 0.0
O506 O 0.81918 0.62269 0.78272 0.0
O507 O 0.86768 0.65961 0.78405 0.0
O508 O 0.84367 0.65965 0.75354 0.0
O509 O 0.82703 0.68976 0.75673 0.0
O510 O 0.78089 0.6394 0.77328 0.0
O511 O 0.76799 0.67052 0.761 0.0
H512 H 0.83405 0.81046 0.73882 0.0
H513 H 0.8484 0.86486 0.74204 0.0
H514 H 0.80387 0.84137 0.77861 0.0
H515 H 0.78945 0.78696 0.77533 0.0
H516 H 0.83585 0.57963 0.79961 0.0
H517 H 0.85196 0.54137 0.7952 0.0
H518 H 0.89749 0.59086 0.76103 0.0
H519 H 0.88147 0.62935 0.76562 0.0
Nd520 Nd 0.34464 0.11229 0.76493 0.0
Nd521 Nd 0.39397 0.18661 0.77184 0.0
C522 C 0.30197 0.0606 0.75379 0.0
C523 C 0.26909 0.03586 0.75615 0.0
C524 C 0.24539 0.03287 0.748 0.0
C525 C 0.21434 1.00975 0.74999 0.0
C526 C 0.20604 0.98875 0.76015 0.0
C527 C 0.22982 0.99167 0.76828 0.0
C528 C 0.26089 0.01491 0.76632 0.0
C529 C 0.35906 0.12051 0.7906 0.0
C530 C 0.31861 0.16117 0.77198 0.0
C531 C 0.43504 0.23984 0.7825 0.0
C532 C 0.45716 0.27289 0.77938 0.0
C533 C 0.48864 0.28552 0.78253 0.0
C534 C 0.51015 0.31673 0.77999 0.0
C535 C 0.50076 0.33627 0.77422 0.0
C536 C 0.46915 0.32356 0.77105 0.0
C537 C 0.44759 0.29221 0.77358 0.0
C538 C 0.38505 0.17633 0.74586 0.0
C539 C 0.41865 0.13719 0.76719 0.0
O540 O 0.30671 0.08834 0.75088 0.0
O541 O 0.32364 0.06164 0.76121 0.0
O542 O 0.33971 0.09397 0.78546 0.0
O543 O 0.3672 0.14119 0.78217 0.0
O544 O 0.31276 0.13344 0.76787 0.0
O545 O 0.34685 0.18382 0.77505 0.0
O546 O 0.44199 0.21926 0.77825 0.0
O547 O 0.40512 0.23003 0.78214 0.0
O548 O 0.40213 0.20365 0.75085 0.0
O549 O 0.37383 0.15703 0.75473 0.0
O550 O 0.42072 0.16061 0.77393 0.0
O551 O 0.3932 0.11798 0.76069 0.0
H552 H 0.2509 0.04843 0.74002 0.0
H553 H 0.19686 1.00805 0.74342 0.0
H554 H 0.22439 0.97622 0.77629 0.0
H555 H 0.27843 0.01645 0.77282 0.0
H556 H 0.49664 0.27122 0.78707 0.0
H557 H 0.53411 0.32567 0.78276 0.0
H558 H 0.4611 0.33775 0.76647 0.0
H559 H 0.42349 0.28316 0.77099 0.0
Nd560 Nd 0.94815 0.25427 0.76581 0.0
Nd561 Nd 0.87712 0.22811 0.77313 0.0
C562 C 1.00211 0.2638 0.75662 0.0
C563 C 0.02515 0.25327 0.75873 0.0
C564 C 0.0195 0.22376 0.7548 0.0
C565 C 0.04215 0.21496 0.75643 0.0
C566 C 0.07111 0.23542 0.76201 0.0
C567 C 0.07648 0.26479 0.76603 0.0
C568 C 0.05394 0.2736 0.76436 0.0
C569 C 0.93946 0.26881 0.78992 0.0
C570 C 0.90387 0.17953 0.77352 0.0
C571 C 0.82353 0.21196 0.78455 0.0
C572 C 0.79185 0.20575 0.78159 0.0
C573 C 0.77124 0.20113 0.79149 0.0
C574 C 0.74075 0.19412 0.78898 0.0
C575 C 0.73008 0.19158 0.77646 0.0
C576 C 0.75095 0.19634 0.76653 0.0
C577 C 0.78154 0.20339 0.76907 0.0
C578 C 0.88368 0.22899 0.7469 0.0
C579 C 0.92014 0.30078 0.76491 0.0
O580 O 0.97516 0.2442 0.75164 0.0
O581 O 0.99975 0.28095 0.76545 0.0
O582 O 0.96374 0.28541 0.783 0.0
O583 O 0.92128 0.24274 0.78462 0.0
O584 O 0.93129 0.20235 0.76976 0.0
O585 O 0.88046 0.18412 0.77615 0.0
O586 O 0.84624 0.2408 0.78366 0.0
O587 O 0.83107 0.19192 0.78018 0.0
O588 O 0.85731 0.21942 0.75256 0.0
O589 O 0.90426 0.23711 0.75521 0.0
O590 O 0.89836 0.28079 0.77261 0.0
O591 O 0.93997 0.2942 0.75911 0.0
H592 H 0.9977 0.20751 0.75035 0.0
H593 H 0.03714 0.19232 0.75305 0.0
H594 H 0.09813 0.28108 0.77057 0.0
H595 H 0.05916 0.29654 0.76744 0.0
H596 H 0.77866 0.20262 0.80122 0.0
H597 H 0.72534 0.19015 0.79688 0.0
H598 H 0.74376 0.19495 0.75679 0.0
H599 H 0.79707 0.20686 0.76127 0.0
Nd600 Nd 0.39393 0.14055 0.58986 0.0
Nd601 Nd 0.34257 0.16393 0.58457 0.0
C602 C 0.43824 0.13319 0.60037 0.0
C603 C 0.47148 0.14349 0.59806 0.0
C604 C 0.49167 0.15034 0.60835 0.0
C605 C 0.52324 0.16042 0.60643 0.0
C606 C 0.53545 0.16386 0.59414 0.0
C607 C 0.5151 0.15706 0.58382 0.0
C608 C 0.48352 0.14712 0.58576 0.0
C609 C 0.37507 0.1326 0.56468 0.0
C610 C 0.41805 0.21431 0.58214 0.0
C611 C 0.30204 0.17758 0.57448 0.0
C612 C 0.27858 0.186 0.57836 0.0
C613 C 0.25203 0.17641 0.5709 0.0
C614 C 0.22972 0.18456 0.57418 0.0
C615 C 0.23348 0.20259 0.58502 0.0
C616 C 0.26018 0.21216 0.59251 0.0
C617 C 0.28246 0.20386 0.58924 0.0
C618 C 0.35628 0.16515 0.61015 0.0
C619 C 0.31872 0.09047 0.59133 0.0
O620 O 0.43197 0.15481 0.60387 0.0
O621 O 0.41779 0.11319 0.59239 0.0
O622 O 0.39563 0.12612 0.56907 0.0
O623 O 0.36805 0.1452 0.57348 0.0
O624 O 0.42509 0.19323 0.58613 0.0
O625 O 0.38916 0.20778 0.57982 0.0
O626 O 0.29563 0.14903 0.57676 0.0
O627 O 0.33127 0.19824 0.57649 0.0
O628 O 0.33752 0.17403 0.60575 0.0
O629 O 0.36649 0.15692 0.60094 0.0
O630 O 0.313 0.111 0.58577 0.0
O631 O 0.34689 0.0969 0.59517 0.0
H632 H 0.48297 0.14781 0.61792 0.0
H633 H 0.538 0.16502 0.61461 0.0
H634 H 0.52366 0.1598 0.57423 0.0
H635 H 0.46854 0.14235 0.57763 0.0
H636 H 0.24862 0.16273 0.56244 0.0
H637 H 0.2097 0.1771 0.5681 0.0
H638 H 0.26366 0.22573 0.601 0.0
H639 H 0.30271 0.21142 0.5952 0.0
Nd640 Nd 0.9309 0.2798 0.59149 0.0
Nd641 Nd 0.90095 0.20811 0.58456 0.0
C642 C 0.94446 0.33735 0.5973 0.0
C643 C 0.93024 0.35732 0.59852 0.0
C644 C 0.89998 0.34755 0.59417 0.0
C645 C 0.88894 0.36868 0.59349 0.0
C646 C 0.9081 0.4001 0.59699 0.0
C647 C 0.93792 0.40933 0.60178 0.0
C648 C 0.94881 0.38821 0.60253 0.0
C649 C 0.9499 0.26722 0.56899 0.0
C650 C 0.85616 0.2382 0.58375 0.0
C651 C 0.88354 0.15396 0.57339 0.0
C652 C 0.87579 0.12147 0.57625 0.0
C653 C 0.89539 0.11047 0.57202 0.0
C654 C 0.88738 0.07936 0.5739 0.0
C655 C 0.85939 0.05832 0.57997 0.0
C656 C 0.83987 0.0694 0.58426 0.0
C657 C 0.84795 0.10054 0.58243 0.0
C658 C 0.89614 0.21472 0.6105 0.0
C659 C 0.97257 0.24719 0.59577 0.0
O660 O 0.93847 0.316 0.6059 0.0
O661 O 0.94518 0.32786 0.58584 0.0
O662 O 0.9677 0.28919 0.57671 0.0
O663 O 0.92188 0.25265 0.57291 0.0
O664 O 0.87856 0.26308 0.58941 0.0
O665 O 0.8606 0.21585 0.57933 0.0
O666 O 0.91267 0.17607 0.57431 0.0
O667 O 0.86408 0.16277 0.57727 0.0
O668 O 0.88642 0.18813 0.60494 0.0
O669 O 0.9074 0.23562 0.60223 0.0
O670 O 0.95225 0.22444 0.58843 0.0
O671 O 0.96798 0.26989 0.59997 0.0
H672 H 0.88535 0.32393 0.59086 0.0
H673 H 0.86593 0.36075 0.5897 0.0
H674 H 0.95314 0.43313 0.60476 0.0
H675 H 0.97229 0.39636 0.60582 0.0
H676 H 0.91676 0.12585 0.56707 0.0
H677 H 0.90282 0.07161 0.57033 0.0
H678 H 0.81835 0.05403 0.58911 0.0
H679 H 0.83214 0.10806 0.58577 0.0
Nd680 Nd 0.78578 0.67511 0.5892 0.0
Nd681 Nd 0.85446 0.71563 0.58836 0.0
C682 C 0.726 0.63722 0.59449 0.0
C683 C 0.70232 0.60419 0.59223 0.0
C684 C 0.6737 0.59109 0.59855 0.0
C685 C 0.65141 0.55958 0.59692 0.0
C686 C 0.65718 0.54028 0.58891 0.0
C687 C 0.68602 0.55364 0.58257 0.0
C688 C 0.70833 0.5852 0.58423 0.0
C689 C 0.80741 0.6944 0.56473 0.0
C690 C 0.82825 0.64309 0.58419 0.0
C691 C 0.91392 0.75806 0.58639 0.0
C692 C 0.9473 0.78245 0.58581 0.0
C693 C 0.96609 0.78483 0.57543 0.0
C694 C 0.99773 0.80771 0.57519 0.0
C695 C 1.01123 0.82883 0.58529 0.0
C696 C 0.99229 0.82626 0.59564 0.0
C697 C 0.96084 0.80345 0.59589 0.0
C698 C 0.83218 0.68721 0.61163 0.0
C699 C 0.81295 0.74986 0.59217 0.0
O700 O 0.74867 0.64211 0.60212 0.0
O701 O 0.73568 0.65574 0.58468 0.0
O702 O 0.78719 0.66599 0.56784 0.0
O703 O 0.81719 0.71064 0.57463 0.0
O704 O 0.80324 0.63988 0.58994 0.0
O705 O 0.84956 0.67064 0.58 0.0
O706 O 0.89888 0.73859 0.57716 0.0
O707 O 0.89712 0.7548 0.5964 0.0
O708 O 0.85594 0.68872 0.6059 0.0
O709 O 0.82051 0.69964 0.60485 0.0
O710 O 0.84032 0.75292 0.58959 0.0
O711 O 0.7877 0.72206 0.59319 0.0
H712 H 0.66867 0.60519 0.60487 0.0
H713 H 0.62985 0.55023 0.60215 0.0
H714 H 0.6913 0.53978 0.57622 0.0
H715 H 0.73035 0.59476 0.5793 0.0
H716 H 0.95637 0.76897 0.56752 0.0
H717 H 1.01152 0.80911 0.56702 0.0
H718 H 1.00188 0.84166 0.60369 0.0
H719 H 0.94715 0.80224 0.60407 0.0
H720 H 0.53781 0.8556 0.12498 0.0
H721 H 0.55473 0.8177 0.12166 0.0
H722 H 0.57045 0.84229 0.08221 0.0
H723 H 0.55354 0.88056 0.08548 0.0
H724 H 0.54334 0.77994 0.08505 0.0
H725 H 0.63214 0.86809 0.10277 0.0
H726 H 0.66108 0.91071 0.11796 0.0
H727 H 0.63675 0.84435 0.148 0.0
H728 H 0.6072 0.80137 0.13303 0.0
H729 H 0.6161 0.68554 0.08034 0.0
H730 H 0.61245 0.73333 0.07946 0.0
H731 H 0.58379 0.72053 0.11849 0.0
H732 H 0.58773 0.67361 0.11945 0.0
H733 H 0.62468 0.78228 0.11296 0.0
H734 H 0.52999 0.69564 0.09607 0.0
H735 H 0.50126 0.65211 0.08124 0.0
H736 H 0.53739 0.7153 0.04989 0.0
H737 H 0.56659 0.75921 0.06457 0.0
C738 C 0.54511 0.85325 0.1156 0.0
C739 C 0.5446 0.87156 0.10554 0.0
C740 C 0.55478 0.83144 0.1137 0.0
C741 C 0.56451 0.82742 0.10172 0.0
C742 C 0.56322 0.84498 0.09156 0.0
C743 C 0.55344 0.86683 0.09344 0.0
C744 C 0.57601 0.80491 0.09995 0.0
C745 C 0.56156 0.78088 0.09099 0.0
C746 C 0.59962 0.80572 0.10774 0.0
C747 C 0.61737 0.83151 0.11678 0.0
C748 C 0.6328 0.8626 0.11263 0.0
C749 C 0.64932 0.88683 0.1212 0.0
C750 C 0.65074 0.88025 0.13394 0.0
C751 C 0.63565 0.84942 0.13813 0.0
C752 C 0.61906 0.82511 0.1296 0.0
C753 C 0.60994 0.69352 0.0888 0.0
C754 C 0.6022 0.6758 0.09995 0.0
C755 C 0.60754 0.72062 0.08827 0.0
C756 C 0.59763 0.73047 0.09891 0.0
C757 C 0.59156 0.71359 0.11018 0.0
C758 C 0.59376 0.68665 0.11069 0.0
C759 C 0.59144 0.75698 0.09834 0.0
C760 C 0.60685 0.78173 0.10688 0.0
C761 C 0.56872 0.75677 0.0902 0.0
C762 C 0.55068 0.73061 0.08139 0.0
C763 C 0.53191 0.70021 0.08601 0.0
C764 C 0.51553 0.67549 0.07763 0.0
C765 C 0.51756 0.68093 0.06463 0.0
C766 C 0.53587 0.71113 0.05997 0.0
C767 C 0.55231 0.73595 0.06831 0.0
H768 H 0.50486 0.66174 0.05817 0.0
H769 H 0.66354 0.89903 0.14056 0.0
H770 H 0.38762 0.94351 0.11414 0.0
H771 H 0.34236 0.89173 0.11245 0.0
H772 H 0.34565 0.89943 0.07187 0.0
H773 H 0.3914 0.95226 0.07351 0.0
H774 H 0.28199 0.86509 0.08378 0.0
H775 H 0.37862 0.86619 0.08257 0.0
H776 H 0.4319 0.88272 0.08965 0.0
H777 H 0.39699 0.84004 0.12575 0.0
H778 H 0.34353 0.82372 0.11898 0.0
H779 H 0.19043 0.69765 0.08071 0.0
H780 H 0.23043 0.75179 0.07683 0.0
H781 H 0.25566 0.7627 0.11623 0.0
H782 H 0.21553 0.70897 0.12024 0.0
H783 H 0.30656 0.78724 0.10148 0.0
H784 H 0.21211 0.7922 0.10387 0.0
H785 H 0.1588 0.77826 0.09778 0.0
H786 H 0.1896 0.80974 0.05993 0.0
H787 H 0.24306 0.82348 0.06576 0.0
C788 C 0.37823 0.93464 0.10484 0.0
C789 C 0.39309 0.95185 0.09395 0.0
C790 C 0.3524 0.90495 0.10391 0.0
C791 C 0.34101 0.89145 0.09206 0.0
C792 C 0.35416 0.90943 0.08112 0.0
C793 C 0.38016 0.93958 0.08205 0.0
C794 C 0.31783 0.85763 0.09143 0.0
C795 C 0.28746 0.84792 0.08736 0.0
C796 C 0.32491 0.83532 0.09634 0.0
C797 C 0.35701 0.84412 0.10031 0.0
C798 C 0.38229 0.86055 0.09206 0.0
C799 C 0.41255 0.86986 0.09601 0.0
C800 C 0.41785 0.86256 0.10816 0.0
C801 C 0.39287 0.84576 0.11635 0.0
C802 C 0.36256 0.83647 0.11246 0.0
C803 C 0.20428 0.71161 0.08859 0.0
C804 C 0.19963 0.69872 0.1008 0.0
C805 C 0.22724 0.7426 0.08634 0.0
C806 C 0.24603 0.76148 0.09625 0.0
C807 C 0.24162 0.74862 0.1084 0.0
C808 C 0.21868 0.71774 0.11067 0.0
C809 C 0.27039 0.7946 0.09406 0.0
C810 C 0.3011 0.80423 0.09765 0.0
C811 C 0.26358 0.81674 0.08873 0.0
C812 C 0.23149 0.8085 0.08521 0.0
C813 C 0.20746 0.79589 0.09422 0.0
C814 C 0.17723 0.78808 0.09082 0.0
C815 C 0.17079 0.79302 0.07846 0.0
C816 C 0.1946 0.80586 0.06949 0.0
C817 C 0.22487 0.81368 0.07284 0.0
H818 H 0.14737 0.78697 0.07585 0.0
H819 H 0.4413 0.86983 0.11121 0.0
H820 H 0.09904 0.42977 0.10082 0.0
H821 H 0.15022 0.43327 0.1016 0.0
H822 H 0.18962 0.51808 0.0799 0.0
H823 H 0.13887 0.5152 0.07954 0.0
H824 H 0.21255 0.47661 0.07307 0.0
H825 H 0.19728 0.52649 0.10898 0.0
H826 H 0.1725 0.5319 0.12825 0.0
H827 H 0.1819 0.45943 0.14617 0.0
H828 H 0.20621 0.45313 0.12688 0.0
H829 H 0.37351 0.55326 0.088 0.0
H830 H 0.3193 0.53857 0.08444 0.0
H831 H 0.29014 0.46553 0.11214 0.0
H832 H 0.34444 0.48081 0.11609 0.0
H833 H 0.26018 0.49653 0.1157 0.0
H834 H 0.27974 0.44989 0.07991 0.0
H835 H 0.3077 0.44811 0.06096 0.0
H836 H 0.2918 0.51637 0.04289 0.0
H837 H 0.2641 0.5189 0.06181 0.0
C838 C 0.11843 0.44852 0.09586 0.0
C839 C 0.115 0.47196 0.08995 0.0
C840 C 0.1477 0.4507 0.09642 0.0
C841 C 0.17382 0.47607 0.09087 0.0
C842 C 0.16984 0.49828 0.0842 0.0
C843 C 0.14082 0.49652 0.08393 0.0
C844 C 0.20568 0.481 0.09286 0.0
C845 C 0.22304 0.48108 0.08238 0.0
C846 C 0.21924 0.48643 0.10503 0.0
C847 C 0.20321 0.48905 0.11641 0.0
C848 C 0.19361 0.51134 0.11694 0.0
C849 C 0.1798 0.51469 0.12789 0.0
C850 C 0.17581 0.49616 0.13844 0.0
C851 C 0.18517 0.47388 0.138 0.0
C852 C 0.19889 0.47036 0.12705 0.0
C853 C 0.35563 0.53414 0.09339 0.0
C854 C 0.36355 0.51828 0.10235 0.0
C855 C 0.3245 0.5255 0.09123 0.0
C856 C 0.3004 0.50063 0.09789 0.0
C857 C 0.3082 0.48469 0.10682 0.0
C858 C 0.33934 0.49332 0.10899 0.0
C859 C 0.26724 0.49207 0.0959 0.0
C860 C 0.24961 0.4915 0.1064 0.0
C861 C 0.2535 0.48629 0.08374 0.0
C862 C 0.27007 0.48477 0.07233 0.0
C863 C 0.28241 0.4647 0.07193 0.0
C864 C 0.29818 0.46353 0.06119 0.0
C865 C 0.30159 0.48216 0.05074 0.0
C866 C 0.28917 0.50197 0.051 0.0
C867 C 0.2734 0.50325 0.06173 0.0
H868 H 0.31381 0.48122 0.04243 0.0
H869 H 0.16543 0.49902 0.14696 0.0
H870 H 0.84225 0.50673 0.91093 0.0
H871 H 0.80313 0.52239 0.91329 0.0
H872 H 0.87413 0.61432 0.92459 0.0
H873 H 0.91361 0.59878 0.92221 0.0
H874 H 0.82297 0.59513 0.93899 0.0
H875 H 0.84362 0.6025 0.89492 0.0
H876 H 0.85121 0.58617 0.87384 0.0
H877 H 0.75751 0.50956 0.87426 0.0
H878 H 0.74946 0.52519 0.89542 0.0
H879 H 0.70121 0.63797 0.92931 0.0
H880 H 0.75136 0.63876 0.92878 0.0
H881 H 0.70296 0.54039 0.92076 0.0
H882 H 0.65374 0.53927 0.92136 0.0
H883 H 0.75001 0.57495 0.90357 0.0
H884 H 0.73315 0.56575 0.94924 0.0
H885 H 0.72641 0.58426 0.96998 0.0
H886 H 0.81435 0.66813 0.96571 0.0
H887 H 0.82149 0.65019 0.94487 0.0
C888 C 0.84967 0.53036 0.91384 0.0
C889 C 0.88121 0.55154 0.91625 0.0
C890 C 0.82721 0.53931 0.9152 0.0
C891 C 0.83567 0.56975 0.9189 0.0
C892 C 0.86699 0.59074 0.92168 0.0
C893 C 0.88954 0.58177 0.92035 0.0
C894 C 0.81162 0.57937 0.91972 0.0
C895 C 0.80738 0.59124 0.93116 0.0
C896 C 0.79126 0.57456 0.90952 0.0
C897 C 0.79603 0.5649 0.89681 0.0
C898 C 0.82472 0.58202 0.89057 0.0
C899 C 0.82908 0.57291 0.87859 0.0
C900 C 0.80489 0.54678 0.87273 0.0
C901 C 0.77624 0.52976 0.87882 0.0
C902 C 0.77175 0.53876 0.8908 0.0
C903 C 0.70137 0.61651 0.92761 0.0
C904 C 0.67342 0.5887 0.92518 0.0
C905 C 0.72999 0.61699 0.92729 0.0
C906 C 0.73091 0.58965 0.92457 0.0
C907 C 0.70293 0.56184 0.9227 0.0
C908 C 0.67469 0.56132 0.92304 0.0
C909 C 0.76054 0.5893 0.92298 0.0
C910 C 0.76594 0.57931 0.91133 0.0
C911 C 0.78199 0.59613 0.93293 0.0
C912 C 0.77767 0.60682 0.94544 0.0
C913 C 0.75091 0.58826 0.95267 0.0
C914 C 0.74704 0.59862 0.96446 0.0
C915 C 0.76986 0.62742 0.96914 0.0
C916 C 0.79666 0.64587 0.96206 0.0
C917 C 0.80065 0.6356 0.95027 0.0
H918 H 0.76682 0.63539 0.97826 0.0
H919 H 0.80831 0.53979 0.86346 0.0
H920 H 0.48443 0.12059 0.90165 0.0
H921 H 0.48929 0.17179 0.90273 0.0
H922 H 0.4603 0.15593 0.94172 0.0
H923 H 0.45518 0.10385 0.94067 0.0
H924 H 0.43774 0.19094 0.92693 0.0
H925 H 0.53342 0.19415 0.93707 0.0
H926 H 0.57447 0.18077 0.93363 0.0
H927 H 0.59666 0.22782 0.89787 0.0
H928 H 0.55534 0.241 0.90098 0.0
H929 H 0.50185 0.35589 0.93451 0.0
H930 H 0.48911 0.30191 0.93785 0.0
H931 H 0.52844 0.30199 0.9015 0.0
H932 H 0.54221 0.35607 0.89831 0.0
H933 H 0.54586 0.27453 0.91817 0.0
H934 H 0.44847 0.26696 0.90664 0.0
H935 H 0.40527 0.27774 0.90864 0.0
H936 H 0.38537 0.23811 0.94588 0.0
H937 H 0.42874 0.22746 0.94415 0.0
C938 C 0.47851 0.12764 0.91043 0.0
C939 C 0.46975 0.10827 0.92113 0.0
C940 C 0.48133 0.15701 0.91102 0.0
C941 C 0.47584 0.16801 0.92237 0.0
C942 C 0.46479 0.14793 0.93287 0.0
C943 C 0.46175 0.11816 0.93226 0.0
C944 C 0.48459 0.20139 0.92333 0.0
C945 C 0.46147 0.20931 0.92529 0.0
C946 C 0.51549 0.22534 0.92094 0.0
C947 C 0.54113 0.21842 0.91923 0.0
C948 C 0.54696 0.20154 0.92845 0.0
C949 C 0.57027 0.19397 0.92655 0.0
C950 C 0.58813 0.20339 0.91553 0.0
C951 C 0.5828 0.22053 0.9064 0.0
C952 C 0.55946 0.22809 0.90823 0.0
C953 C 0.5081 0.34455 0.92728 0.0
C954 C 0.52292 0.36043 0.91609 0.0
C955 C 0.50049 0.31351 0.92915 0.0
C956 C 0.50741 0.29758 0.91986 0.0
C957 C 0.5227 0.3136 0.90881 0.0
C958 C 0.53032 0.34454 0.90694 0.0
C959 C 0.49889 0.2643 0.92153 0.0
C960 C 0.52217 0.25634 0.92003 0.0
C961 C 0.46813 0.24039 0.92428 0.0
C962 C 0.44208 0.24677 0.92533 0.0
C963 C 0.43505 0.26079 0.9153 0.0
C964 C 0.4105 0.26683 0.91637 0.0
C965 C 0.39265 0.25871 0.9274 0.0
C966 C 0.39926 0.24445 0.93736 0.0
C967 C 0.42381 0.23839 0.93633 0.0
H968 H 0.37365 0.26339 0.92821 0.0
H969 H 0.60611 0.19745 0.91407 0.0
H970 H 0.70085 0.23131 0.91222 0.0
H971 H 0.75528 0.27018 0.9155 0.0
H972 H 0.77659 0.19756 0.9232 0.0
H973 H 0.72187 0.15822 0.91978 0.0
H974 H 0.80763 0.24677 0.93949 0.0
H975 H 0.796 0.23307 0.89506 0.0
H976 H 0.7728 0.22849 0.87403 0.0
H977 H 0.78909 0.32179 0.8771 0.0
H978 H 0.81197 0.32677 0.89824 0.0
H979 H 0.97255 0.3684 0.92964 0.0
H980 H 0.92251 0.31903 0.92914 0.0
H981 H 0.87407 0.37031 0.925 0.0
H982 H 0.92308 0.41898 0.9257 0.0
H983 H 0.86096 0.32563 0.90591 0.0
H984 H 0.8677 0.33577 0.95162 0.0
H985 H 0.89239 0.33993 0.97228 0.0
H986 H 0.88814 0.25239 0.96587 0.0
H987 H 0.86364 0.24786 0.9451 0.0
C988 C 0.71705 0.22346 0.91451 0.0
C989 C 0.70689 0.19149 0.91555 0.0
C990 C 0.74825 0.24579 0.91643 0.0
C991 C 0.77025 0.23687 0.9194 0.0
C992 C 0.76011 0.20506 0.92089 0.0
C993 C 0.72877 0.18259 0.91895 0.0
C994 C 0.80377 0.261 0.92065 0.0
C995 C 0.81949 0.26364 0.93204 0.0
C996 C 0.81945 0.28311 0.91097 0.0
C997 C 0.80544 0.28017 0.89829 0.0
C998 C 0.79437 0.25251 0.8913 0.0
C999 C 0.78133 0.24986 0.87935 0.0
C1000 C 0.77941 0.27481 0.87424 0.0
C1001 C 0.79057 0.30247 0.88107 0.0
C1002 C 0.8036 0.30522 0.89304 0.0
C1003 C 0.95115 0.36906 0.92895 0.0
C1004 C 0.95189 0.39765 0.92759 0.0
C1005 C 0.92261 0.34087 0.92861 0.0
C1006 C 0.89458 0.34102 0.92689 0.0
C1007 C 0.89536 0.36959 0.9262 0.0
C1008 C 0.92354 0.39746 0.92661 0.0
C1009 C 0.86436 0.31196 0.92485 0.0
C1010 C 0.84927 0.30839 0.91326 0.0
C1011 C 0.84957 0.28897 0.93428 0.0
C1012 C 0.86421 0.29167 0.94675 0.0
C1013 C 0.8723 0.31756 0.95456 0.0
C1014 C 0.8862 0.31995 0.9663 0.0
C1015 C 0.89197 0.29652 0.97036 0.0
C1016 C 0.88372 0.27057 0.9627 0.0
C1017 C 0.8698 0.26805 0.95095 0.0
H1018 H 0.90274 0.29841 0.97945 0.0
H1019 H 0.76932 0.27272 0.86498 0.0
H1020 H 0.20913 0.97973 0.42705 0.0
H1021 H 0.20828 0.02836 0.42687 0.0
H1022 H 0.30642 0.07915 0.43509 0.0
H1023 H 0.30737 0.02987 0.43523 0.0
H1024 H 0.27186 0.09497 0.45106 0.0
H1025 H 0.28224 0.08802 0.40676 0.0
H1026 H 0.27098 0.06287 0.38584 0.0
H1027 H 0.17761 0.0464 0.38773 0.0
H1028 H 0.18814 0.07103 0.40876 0.0
H1029 H 0.26287 0.23473 0.44763 0.0
H1030 H 0.27811 0.1954 0.44425 0.0
H1031 H 0.18509 0.1301 0.43191 0.0
H1032 H 0.16969 0.16927 0.43528 0.0
H1033 H 0.22575 0.12703 0.41678 0.0
H1034 H 0.21342 0.12758 0.46203 0.0
H1035 H 0.2235 0.15029 0.48343 0.0
H1036 H 0.31994 0.17764 0.47991 0.0
H1037 H 0.31048 0.15529 0.45846 0.0
C1038 C 0.23072 1.00128 0.42859 0.0
C1039 C 0.25836 1.00097 0.43111 0.0
C1040 C 0.23021 0.02915 0.42845 0.0
C1041 C 0.25729 0.05755 0.43089 0.0
C1042 C 0.28523 0.05753 0.43312 0.0
C1043 C 0.28585 0.02945 0.4331 0.0
C1044 C 0.25532 0.08656 0.43188 0.0
C1045 C 0.2625 0.10249 0.44346 0.0
C1046 C 0.2424 0.09596 0.42208 0.0
C1047 C 0.23595 0.08123 0.40939 0.0
C1048 C 0.25923 0.07884 0.40276 0.0
C1049 C 0.25299 0.0647 0.39087 0.0
C1050 C 0.22359 0.053 0.38546 0.0
C1051 C 0.20038 0.05547 0.39193 0.0
C1052 C 0.20649 0.06956 0.40383 0.0
C1053 C 0.24554 0.21193 0.44429 0.0
C1054 C 0.21495 0.20525 0.44178 0.0
C1055 C 0.25434 0.18941 0.44235 0.0
C1056 C 0.23272 0.15952 0.43795 0.0
C1057 C 0.2023 0.15294 0.43528 0.0
C1058 C 0.19351 0.17546 0.43718 0.0
C1059 C 0.24158 0.13505 0.43608 0.0
C1060 C 0.23562 0.11991 0.42433 0.0
C1061 C 0.25555 0.12634 0.44574 0.0
C1062 C 0.26132 0.14013 0.45857 0.0
C1063 C 0.23683 0.13869 0.46578 0.0
C1064 C 0.24242 0.15141 0.47794 0.0
C1065 C 0.27235 0.16543 0.48303 0.0
C1066 C 0.29676 0.16674 0.47597 0.0
C1067 C 0.2913 0.15406 0.46381 0.0
H1068 H 0.27663 0.17522 0.49244 0.0
H1069 H 0.2188 0.04206 0.37626 0.0
H1070 H 0.05707 0.27493 0.4488 0.0
H1071 H 1.01174 0.22317 0.44698 0.0
H1072 H 1.01547 0.23171 0.40639 0.0
H1073 H 0.06146 0.28434 0.4082 0.0
H1074 H 0.95114 0.19793 0.41868 0.0
H1075 H 0.04658 0.19591 0.41617 0.0
H1076 H 0.09996 0.21129 0.42276 0.0
H1077 H 0.06657 0.17177 0.45946 0.0
H1078 H 1.01305 0.15666 0.45317 0.0
H1079 H 0.85594 0.03028 0.41643 0.0
H1080 H 0.89592 0.08423 0.41206 0.0
H1081 H 0.9263 0.09524 0.45082 0.0
H1082 H 0.88649 0.04166 0.45526 0.0
H1083 H 0.97498 0.11885 0.43555 0.0
H1084 H 0.88178 0.12594 0.43923 0.0
H1085 H 0.82839 0.11301 0.43377 0.0
H1086 H 0.85713 0.14377 0.39568 0.0
H1087 H 0.91064 0.1565 0.40089 0.0
C1088 C 0.04782 0.26619 0.43948 0.0
C1089 C 0.06287 0.28359 0.42864 0.0
C1090 C 0.0219 0.23655 0.43846 0.0
C1091 C 1.01049 0.22337 0.42656 0.0
C1092 C 0.02395 0.24149 0.41567 0.0
C1093 C 0.05008 0.27154 0.4167 0.0
C1094 C 0.98689 0.18967 0.42583 0.0
C1095 C 0.95642 0.18046 0.42207 0.0
C1096 C 0.9937 0.16699 0.43049 0.0
C1097 C 0.02578 0.1753 0.43421 0.0
C1098 C 0.05063 0.19066 0.42567 0.0
C1099 C 0.08093 0.19933 0.42935 0.0
C1100 C 0.08666 0.19255 0.44153 0.0
C1101 C 0.06209 0.177 0.45003 0.0
C1102 C 0.03176 0.16835 0.4464 0.0
C1103 C 0.87095 0.04426 0.42405 0.0
C1104 C 0.86796 0.03143 0.4362 0.0
C1105 C 0.89387 0.07515 0.42153 0.0
C1106 C 0.91415 0.094 0.43112 0.0
C1107 C 0.91115 0.08122 0.44323 0.0
C1108 C 0.88836 0.05043 0.44574 0.0
C1109 C 0.9388 0.12692 0.42866 0.0
C1110 C 0.96963 0.13605 0.43188 0.0
C1111 C 0.93222 0.14943 0.42354 0.0
C1112 C 0.9001 0.1418 0.42041 0.0
C1113 C 0.87665 0.12969 0.42967 0.0
C1114 C 0.84638 0.12245 0.42662 0.0
C1115 C 0.83935 0.12746 0.41438 0.0
C1116 C 0.8626 0.13983 0.40516 0.0
C1117 C 0.89289 0.14707 0.40815 0.0
H1118 H 0.8159 0.12186 0.41204 0.0
H1119 H 0.11012 0.19928 0.44436 0.0
H1120 H 1.01475 0.83181 0.46145 0.0
H1121 H 0.96044 0.81691 0.45825 0.0
H1122 H 0.98084 0.85023 0.41987 0.0
H1123 H 0.03564 0.86635 0.42315 0.0
H1124 H 0.94372 0.86806 0.43059 0.0
H1125 H 0.94277 0.77129 0.42707 0.0
H1126 H 0.95316 0.72968 0.43364 0.0
H1127 H 0.89774 0.71354 0.46696 0.0
H1128 H 0.88739 0.75537 0.46069 0.0
H1129 H 0.78439 0.80164 0.41383 0.0
H1130 H 0.83632 0.8068 0.41394 0.0
H1131 H 0.82876 0.78998 0.4541 0.0
H1132 H 0.77738 0.78559 0.45403 0.0
H1133 H 0.85861 0.76159 0.44083 0.0
H1134 H 0.8635 0.86033 0.44564 0.0
H1135 H 0.85213 0.90161 0.4396 0.0
H1136 H 0.89978 0.91383 0.40435 0.0
H1137 H 0.91096 0.87219 0.41011 0.0
C1138 C 1.00787 0.83631 0.45235 0.0
C1139 C 0.02982 0.85039 0.44257 0.0
C1140 C 0.97659 0.82738 0.45048 0.0
C1141 C 0.96625 0.83195 0.43875 0.0
C1142 C 0.98809 0.84624 0.42899 0.0
C1143 C 1.01945 0.85524 0.43086 0.0
C1144 C 0.93279 0.8223 0.43677 0.0
C1145 C 0.9252 0.84459 0.4326 0.0
C1146 C 0.90836 0.79187 0.43966 0.0
C1147 C 0.91453 0.76667 0.44346 0.0
C1148 C 0.933 0.75904 0.43585 0.0
C1149 C 0.93885 0.73538 0.43951 0.0
C1150 C 0.92618 0.71902 0.45073 0.0
C1151 C 0.90757 0.72625 0.45829 0.0
C1152 C 0.90168 0.74992 0.45467 0.0
C1153 C 0.7934 0.79788 0.42256 0.0
C1154 C 0.77678 0.7927 0.43388 0.0
C1155 C 0.82316 0.80115 0.42265 0.0
C1156 C 0.83652 0.79897 0.43405 0.0
C1157 C 0.81892 0.79163 0.4452 0.0
C1158 C 0.78952 0.78897 0.44514 0.0
C1159 C 0.86978 0.8073 0.43466 0.0
C1160 C 0.87726 0.78488 0.43865 0.0
C1161 C 0.89411 0.83761 0.43167 0.0
C1162 C 0.88773 0.86288 0.42823 0.0
C1163 C 0.8713 0.87162 0.43655 0.0
C1164 C 0.86493 0.89511 0.43319 0.0
C1165 C 0.87514 0.91027 0.42158 0.0
C1166 C 0.89183 0.90202 0.41333 0.0
C1167 C 0.89819 0.87847 0.41664 0.0
H1168 H 0.8702 0.92846 0.41899 0.0
H1169 H 0.93073 0.70071 0.45354 0.0
H1170 H 0.32343 0.87483 0.27408 0.0
H1171 H 0.37236 0.8742 0.27419 0.0
H1172 H 0.42004 0.96745 0.25916 0.0
H1173 H 0.37088 0.96834 0.25931 0.0
H1174 H 0.42853 0.92353 0.24498 0.0
H1175 H 0.43813 0.95762 0.28773 0.0
H1176 H 0.42081 0.95694 0.30962 0.0
H1177 H 0.40727 0.86516 0.31486 0.0
H1178 H 0.42406 0.86508 0.29293 0.0
H1179 H 0.57168 0.92291 0.24425 0.0
H1180 H 0.53218 0.93765 0.24813 0.0
H1181 H 0.47806 0.85325 0.26943 0.0
H1182 H 0.5175 0.83846 0.26564 0.0
H1183 H 0.47674 0.89947 0.28103 0.0
H1184 H 0.46052 0.86186 0.23839 0.0
H1185 H 0.47443 0.85929 0.21623 0.0
H1186 H 0.49685 0.95395 0.21047 0.0
H1187 H 0.48351 0.95723 0.23267 0.0
C1188 C 0.34457 0.89558 0.2712 0.0
C1189 C 0.34352 0.92182 0.26689 0.0
C1190 C 0.3725 0.89517 0.27123 0.0
C1191 C 0.39995 0.92079 0.26671 0.0
C1192 C 0.39919 0.94748 0.26275 0.0
C1193 C 0.37123 0.94813 0.26297 0.0
C1194 C 0.42844 0.91825 0.26515 0.0
C1195 C 0.43959 0.91902 0.25289 0.0
C1196 C 0.44218 0.91131 0.27542 0.0
C1197 C 0.43214 0.91127 0.28864 0.0
C1198 C 0.43121 0.93718 0.29351 0.0
C1199 C 0.42153 0.93696 0.30593 0.0
C1200 C 0.41288 0.911 0.31362 0.0
C1201 C 0.41396 0.88525 0.3089 0.0
C1202 C 0.42359 0.88534 0.29647 0.0
C1203 C 0.55132 0.90741 0.24973 0.0
C1204 C 0.5478 0.87939 0.25458 0.0
C1205 C 0.52871 0.91589 0.25195 0.0
C1206 C 0.5018 0.89642 0.25895 0.0
C1207 C 0.49856 0.86877 0.26403 0.0
C1208 C 0.52123 0.86035 0.26187 0.0
C1209 C 0.47674 0.90443 0.26081 0.0
C1210 C 0.4661 0.9045 0.27312 0.0
C1211 C 0.46315 0.91175 0.25056 0.0
C1212 C 0.47142 0.90993 0.23724 0.0
C1213 C 0.46872 0.88223 0.23243 0.0
C1214 C 0.47644 0.88063 0.21986 0.0
C1215 C 0.48663 0.90648 0.21196 0.0
C1216 C 0.48904 0.93397 0.21661 0.0
C1217 C 0.4814 0.93572 0.22919 0.0
H1218 H 0.49256 0.90518 0.20222 0.0
H1219 H 0.4054 0.91088 0.32324 0.0
H1220 H 0.24488 0.70301 0.25503 0.0
H1221 H 0.23118 0.64887 0.25815 0.0
H1222 H 0.13397 0.62134 0.2589 0.0
H1223 H 0.14758 0.67567 0.25585 0.0
H1224 H 0.14534 0.59006 0.27649 0.0
H1225 H 0.16583 0.60663 0.23223 0.0
H1226 H 0.19477 0.63309 0.2129 0.0
H1227 H 0.27179 0.62317 0.22509 0.0
H1228 H 0.24336 0.59681 0.24452 0.0
H1229 H 0.10467 0.42754 0.26571 0.0
H1230 H 0.10844 0.47901 0.26541 0.0
H1231 H 0.20828 0.52324 0.26763 0.0
H1232 H 0.20469 0.47248 0.26794 0.0
H1233 H 0.18917 0.54343 0.24738 0.0
H1234 H 0.16635 0.52604 0.29214 0.0
H1235 H 0.13461 0.49733 0.31059 0.0
H1236 H 0.05861 0.50662 0.29651 0.0
H1237 H 0.08978 0.53504 0.27788 0.0
C1238 C 0.22056 0.68546 0.25578 0.0
C1239 C 0.19736 0.69377 0.25508 0.0
C1240 C 0.21272 0.65442 0.25757 0.0
C1241 C 0.18146 0.63077 0.25854 0.0
C1242 C 0.15824 0.63906 0.25816 0.0
C1243 C 0.16609 0.67019 0.25644 0.0
C1244 C 0.17326 0.59753 0.25985 0.0
C1245 C 0.15457 0.57973 0.27001 0.0
C1246 C 0.18522 0.58383 0.25145 0.0
C1247 C 0.20257 0.59999 0.23986 0.0
C1248 C 0.18903 0.61031 0.23082 0.0
C1249 C 0.20531 0.62522 0.21984 0.0
C1250 C 0.23513 0.62987 0.21778 0.0
C1251 C 0.24872 0.6196 0.2267 0.0
C1252 C 0.23251 0.60462 0.23769 0.0
C1253 C 0.12729 0.44827 0.26654 0.0
C1254 C 0.15438 0.44596 0.2668 0.0
C1255 C 0.12945 0.47767 0.26629 0.0
C1256 C 0.15871 0.50504 0.26636 0.0
C1257 C 0.1855 0.50254 0.26744 0.0
C1258 C 0.18337 0.47343 0.26767 0.0
C1259 C 0.16218 0.53634 0.26426 0.0
C1260 C 0.17983 0.55371 0.25384 0.0
C1261 C 0.14894 0.54935 0.27235 0.0
C1262 C 0.13026 0.53234 0.28355 0.0
C1263 C 0.14277 0.52171 0.29292 0.0
C1264 C 0.1249 0.50555 0.30342 0.0
C1265 C 0.09457 0.50007 0.3047 0.0
C1266 C 0.08208 0.51083 0.29549 0.0
C1267 C 0.09984 0.52699 0.28497 0.0
H1268 H 0.08078 0.48756 0.31284 0.0
H1269 H 0.24768 0.6414 0.20927 0.0
H1270 H 0.63476 0.7013 0.24256 0.0
H1271 H 0.58311 0.65441 0.24225 0.0
H1272 H 0.55947 0.68354 0.27684 0.0
H1273 H 0.61145 0.72997 0.27734 0.0
H1274 H 0.53207 0.62184 0.27653 0.0
H1275 H 0.54016 0.69932 0.24724 0.0
H1276 H 0.5628 0.7362 0.2295 0.0
H1277 H 0.54514 0.661 0.20446 0.0
H1278 H 0.52302 0.6237 0.22212 0.0
H1279 H 0.36718 0.53583 0.26841 0.0
H1280 H 0.42124 0.57717 0.27099 0.0
H1281 H 0.44591 0.5482 0.23657 0.0
H1282 H 0.39182 0.50768 0.23366 0.0
H1283 H 0.47311 0.60926 0.23707 0.0
H1284 H 0.46363 0.53149 0.26659 0.0
H1285 H 0.44076 0.49517 0.28449 0.0
H1286 H 0.46035 0.57148 0.30922 0.0
H1287 H 0.48297 0.60822 0.29143 0.0
C1288 C 0.61897 0.69691 0.25037 0.0
C1289 C 0.6273 0.71873 0.26015 0.0
C1290 C 0.58931 0.67039 0.25008 0.0
C1291 C 0.56704 0.66558 0.25936 0.0
C1292 C 0.57606 0.68656 0.26955 0.0
C1293 C 0.60585 0.71299 0.26989 0.0
C1294 C 0.5339 0.64017 0.25793 0.0
C1295 C 0.51911 0.61932 0.26795 0.0
C1296 C 0.51687 0.6364 0.24667 0.0
C1297 C 0.53008 0.65874 0.23602 0.0
C1298 C 0.54128 0.69066 0.23797 0.0
C1299 C 0.55403 0.71164 0.22793 0.0
C1300 C 0.55535 0.70092 0.21587 0.0
C1301 C 0.54406 0.66923 0.21382 0.0
C1302 C 0.53143 0.64816 0.22384 0.0
C1303 C 0.38401 0.53835 0.26132 0.0
C1304 C 0.3749 0.51811 0.25085 0.0
C1305 C 0.4151 0.56187 0.26289 0.0
C1306 C 0.43799 0.56569 0.25408 0.0
C1307 C 0.42889 0.54576 0.24356 0.0
C1308 C 0.39786 0.52231 0.24197 0.0
C1309 C 0.47126 0.59074 0.25564 0.0
C1310 C 0.48607 0.61165 0.24564 0.0
C1311 C 0.48821 0.5946 0.26693 0.0
C1312 C 0.47472 0.57256 0.27765 0.0
C1313 C 0.46285 0.54049 0.27583 0.0
C1314 C 0.44996 0.51984 0.28595 0.0
C1315 C 0.44902 0.531 0.29798 0.0
C1316 C 0.46105 0.56286 0.2999 0.0
C1317 C 0.47393 0.58361 0.2898 0.0
H1318 H 0.43904 0.51497 0.30581 0.0
H1319 H 0.56513 0.71719 0.2081 0.0
H1320 H 0.84092 0.4997 0.78047 0.0
H1321 H 0.85655 0.46081 0.77714 0.0
H1322 H 0.94754 0.53265 0.76533 0.0
H1323 H 0.93198 0.57196 0.76868 0.0
H1324 H 0.92721 0.48122 0.75052 0.0
H1325 H 0.93767 0.50187 0.79462 0.0
H1326 H 0.92237 0.50942 0.81591 0.0
H1327 H 0.8465 0.41524 0.81596 0.0
H1328 H 0.86104 0.40725 0.79458 0.0
H1329 H 0.97017 0.35869 0.75852 0.0
H1330 H 0.97118 0.40901 0.75918 0.0
H1331 H 0.87373 0.36101 0.76866 0.0
H1332 H 0.87245 0.31158 0.76792 0.0
H1333 H 0.90995 0.40804 0.78559 0.0
H1334 H 0.89685 0.39097 0.74006 0.0
H1335 H 0.91348 0.384 0.71893 0.0
H1336 H 0.99726 0.47243 0.72222 0.0
H1337 H 0.98129 0.47971 0.74345 0.0
C1338 C 0.86435 0.50736 0.77725 0.0
C1339 C 0.88529 0.53909 0.77501 0.0
C1340 C 0.87326 0.48503 0.77531 0.0
C1341 C 0.90345 0.49378 0.7712 0.0
C1342 C 0.92417 0.5253 0.76855 0.0
C1343 C 0.9152 0.54774 0.77045 0.0
C1344 C 0.91313 0.46982 0.76997 0.0
C1345 C 0.92398 0.46558 0.75827 0.0
C1346 C 0.90916 0.4494 0.78005 0.0
C1347 C 0.90035 0.45405 0.79294 0.0
C1348 C 0.91759 0.48284 0.79913 0.0
C1349 C 0.90907 0.48718 0.81122 0.0
C1350 C 0.88345 0.46284 0.81728 0.0
C1351 C 0.86634 0.43408 0.81126 0.0
C1352 C 0.87473 0.42962 0.79915 0.0
C1353 C 0.94892 0.35897 0.76048 0.0
C1354 C 0.92134 0.33113 0.76329 0.0
C1355 C 0.94952 0.38768 0.7609 0.0
C1356 C 0.92255 0.38879 0.76412 0.0
C1357 C 0.89489 0.36085 0.76632 0.0
C1358 C 0.89426 0.33251 0.76588 0.0
C1359 C 0.92257 0.41856 0.76601 0.0
C1360 C 0.9137 0.42402 0.77791 0.0
C1361 C 0.92858 0.44008 0.75615 0.0
C1362 C 0.93808 0.43569 0.7434 0.0
C1363 C 0.91895 0.40878 0.73632 0.0
C1364 C 0.92823 0.40481 0.72432 0.0
C1365 C 0.95646 0.42771 0.71925 0.0
C1366 C 0.97543 0.45468 0.72616 0.0
C1367 C 0.96628 0.45875 0.73818 0.0
H1368 H 0.9636 0.42459 0.70996 0.0
H1369 H 0.8769 0.46626 0.82664 0.0
H1370 H 0.75082 0.58529 0.76225 0.0
H1371 H 0.70128 0.53686 0.76107 0.0
H1372 H 0.6525 0.58804 0.76446 0.0
H1373 H 0.70271 0.63726 0.76545 0.0
H1374 H 0.63244 0.53641 0.78174 0.0
H1375 H 0.64724 0.55533 0.73755 0.0
H1376 H 0.67621 0.56937 0.71746 0.0
H1377 H 0.68952 0.49055 0.72076 0.0
H1378 H 0.66103 0.47628 0.74099 0.0
H1379 H 0.49347 0.38759 0.77673 0.0
H1380 H 0.53224 0.4423 0.77313 0.0
H1381 H 0.5996 0.41557 0.7627 0.0
H1382 H 0.56076 0.36094 0.7658 0.0
H1383 H 0.6042 0.45912 0.74725 0.0
H1384 H 0.59743 0.44498 0.79247 0.0
H1385 H 0.57177 0.43174 0.8133 0.0
H1386 H 0.54607 0.50193 0.80869 0.0
H1387 H 0.57116 0.51524 0.78772 0.0
C1388 C 0.72957 0.58636 0.76256 0.0
C1389 C 0.73063 0.61507 0.76393 0.0
C1390 C 0.70124 0.55862 0.76185 0.0
C1391 C 0.67313 0.55875 0.76264 0.0
C1392 C 0.67394 0.58743 0.7638 0.0
C1393 C 0.70255 0.61549 0.76427 0.0
C1394 C 0.64338 0.52849 0.76293 0.0
C1395 C 0.62571 0.51974 0.77407 0.0
C1396 C 0.6351 0.50648 0.75305 0.0
C1397 C 0.65211 0.51483 0.74084 0.0
C1398 C 0.65653 0.54111 0.73405 0.0
C1399 C 0.67284 0.54909 0.72262 0.0
C1400 C 0.68473 0.53089 0.71785 0.0
C1401 C 0.68029 0.50463 0.72448 0.0
C1402 C 0.66401 0.49655 0.73591 0.0
C1403 C 0.51641 0.39329 0.77351 0.0
C1404 C 0.52394 0.3697 0.77165 0.0
C1405 C 0.53869 0.42469 0.77157 0.0
C1406 C 0.56909 0.43327 0.7678 0.0
C1407 C 0.57641 0.4097 0.76565 0.0
C1408 C 0.55419 0.37839 0.76756 0.0
C1409 C 0.59358 0.46665 0.76621 0.0
C1410 C 0.61038 0.47593 0.75483 0.0
C1411 C 0.60121 0.48906 0.77592 0.0
C1412 C 0.58576 0.48078 0.78845 0.0
C1413 C 0.586 0.45734 0.79583 0.0
C1414 C 0.57161 0.44987 0.80768 0.0
C1415 C 0.55718 0.46589 0.81229 0.0
C1416 C 0.55715 0.48946 0.80508 0.0
C1417 C 0.57144 0.49697 0.79322 0.0
H1418 H 0.54611 0.46012 0.82148 0.0
H1419 H 0.69736 0.53711 0.709 0.0
H1420 H 0.46323 0.15812 0.78516 0.0
H1421 H 0.51431 0.16337 0.78398 0.0
H1422 H 0.49067 0.11481 0.74834 0.0
H1423 H 0.43875 0.11008 0.74927 0.0
H1424 H 0.527 0.09897 0.76595 0.0
H1425 H 0.53217 0.18909 0.74665 0.0
H1426 H 0.52094 0.23216 0.74567 0.0
H1427 H 0.57239 0.27051 0.77991 0.0
H1428 H 0.58357 0.2274 0.7812 0.0
H1429 H 0.69004 0.15336 0.75799 0.0
H1430 H 0.63632 0.14052 0.75412 0.0
H1431 H 0.64189 0.1988 0.78542 0.0
H1432 H 0.69577 0.21259 0.78904 0.0
H1433 H 0.61385 0.20827 0.76641 0.0
H1434 H 0.6038 0.1177 0.78746 0.0
H1435 H 0.61227 0.07321 0.79051 0.0
H1436 H 0.56888 0.03514 0.75479 0.0
H1437 H 0.56052 0.07966 0.75146 0.0
C1438 C 0.46856 0.14828 0.77705 0.0
C1439 C 0.44695 0.13413 0.76718 0.0
C1440 C 0.49794 0.15136 0.77641 0.0
C1441 C 0.50659 0.14003 0.76598 0.0
C1442 C 0.48448 0.12387 0.75646 0.0
C1443 C 0.45481 0.12104 0.75703 0.0
C1444 C 0.53941 0.14711 0.76498 0.0
C1445 C 0.54607 0.12281 0.76572 0.0
C1446 C 0.56427 0.17828 0.76504 0.0
C1447 C 0.55861 0.20492 0.76404 0.0
C1448 C 0.54103 0.20666 0.75399 0.0
C1449 C 0.53465 0.23108 0.75338 0.0
C1450 C 0.54591 0.25404 0.76273 0.0
C1451 C 0.56371 0.25272 0.77267 0.0
C1452 C 0.57012 0.22833 0.77333 0.0
C1453 C 0.67997 0.16373 0.76397 0.0
C1454 C 0.69737 0.18395 0.77388 0.0
C1455 C 0.64906 0.15608 0.76182 0.0
C1456 C 0.63475 0.16835 0.76956 0.0
C1457 C 0.65224 0.18889 0.77932 0.0
C1458 C 0.68306 0.19655 0.78146 0.0
C1459 C 0.60169 0.16013 0.76757 0.0
C1460 C 0.59495 0.18434 0.76634 0.0
C1461 C 0.57682 0.1289 0.76717 0.0
C1462 C 0.58191 0.1022 0.76914 0.0
C1463 C 0.59633 0.09999 0.78021 0.0
C1464 C 0.60105 0.07474 0.782 0.0
C1465 C 0.59122 0.05142 0.77283 0.0
C1466 C 0.57655 0.05326 0.76187 0.0
C1467 C 0.5718 0.07848 0.76003 0.0
H1468 H 0.59488 0.03188 0.77424 0.0
H1469 H 0.54085 0.27286 0.76227 0.0
H1470 H 0.02968 0.29596 0.60345 0.0
H1471 H 0.07884 0.29531 0.60517 0.0
H1472 H 0.03069 0.19794 0.59522 0.0
H1473 H 0.9822 0.19822 0.59382 0.0
H1474 H 0.07024 0.20766 0.61334 0.0
H1475 H 0.07325 0.25981 0.5736 0.0
H1476 H 0.07491 0.30225 0.56083 0.0
H1477 H 0.15742 0.36888 0.58021 0.0
H1478 H 0.15608 0.32698 0.59323 0.0
H1479 H 0.17017 0.16584 0.58396 0.0
H1480 H 0.13083 0.17991 0.58899 0.0
H1481 H 0.20264 0.27246 0.59916 0.0
H1482 H 0.24237 0.2587 0.59383 0.0
H1483 H 0.15803 0.27414 0.58488 0.0
H1484 H 0.15999 0.22184 0.62208 0.0
H1485 H 0.1599 0.18013 0.63476 0.0
H1486 H 0.0692 0.1148 0.62069 0.0
H1487 H 0.06891 0.15602 0.60777 0.0
C1488 C 0.02961 0.27436 0.60185 0.0
C1489 C 1.00199 0.24722 0.59842 0.0
C1490 C 0.05775 0.27406 0.60272 0.0
C1491 C 0.05864 0.24663 0.60016 0.0
C1492 C 0.0308 0.21941 0.59724 0.0
C1493 C 1.00296 0.21968 0.59638 0.0
C1494 C 0.08817 0.24558 0.60005 0.0
C1495 C 0.08939 0.2222 0.60709 0.0
C1496 C 0.11383 0.26524 0.59227 0.0
C1497 C 0.11433 0.29033 0.5845 0.0
C1498 C 0.09158 0.28355 0.57522 0.0
C1499 C 0.09249 0.30748 0.56792 0.0
C1500 C 0.11616 0.3382 0.56973 0.0
C1501 C 0.13904 0.34508 0.57884 0.0
C1502 C 0.13822 0.32127 0.58618 0.0
C1503 C 0.17769 0.18926 0.5872 0.0
C1504 C 0.20951 0.21112 0.58847 0.0
C1505 C 0.15511 0.19721 0.59019 0.0
C1506 C 0.16368 0.22717 0.59461 0.0
C1507 C 0.19542 0.24917 0.59583 0.0
C1508 C 0.2181 0.24118 0.59287 0.0
C1509 C 0.13928 0.23528 0.59771 0.0
C1510 C 0.13912 0.25998 0.59129 0.0
C1511 C 0.11458 0.2169 0.60609 0.0
C1512 C 0.11453 0.19202 0.6139 0.0
C1513 C 0.14011 0.19854 0.62162 0.0
C1514 C 0.14011 0.17498 0.62886 0.0
C1515 C 0.11458 0.14482 0.62851 0.0
C1516 C 0.08896 0.13817 0.62095 0.0
C1517 C 0.08885 0.16164 0.61368 0.0
H1518 H 0.11463 0.12662 0.63412 0.0
H1519 H 0.11683 0.35665 0.56404 0.0
H1520 H 0.86067 0.80782 0.59712 0.0
H1521 H 0.86101 0.8569 0.59642 0.0
H1522 H 0.76273 0.8081 0.58847 0.0
H1523 H 0.76227 0.75819 0.58903 0.0
H1524 H 0.79494 0.8577 0.57256 0.0
H1525 H 0.78848 0.84256 0.61695 0.0
H1526 H 0.80164 0.82999 0.63775 0.0
H1527 H 0.89438 0.90762 0.63461 0.0
H1528 H 0.88194 0.92041 0.6137 0.0
H1529 H 0.80184 1.00611 0.57714 0.0
H1530 H 0.78752 0.95162 0.58026 0.0
H1531 H 0.88254 0.9804 0.58972 0.0
H1532 H 0.89686 0.03485 0.58689 0.0
H1533 H 0.8432 0.93768 0.60613 0.0
H1534 H 0.85052 0.9491 0.56075 0.0
H1535 H 0.83767 0.96003 0.53957 0.0
H1536 H 0.74264 0.88826 0.5445 0.0
H1537 H 0.75481 0.87722 0.56581 0.0
C1538 C 0.83894 0.8073 0.59535 0.0
C1539 C 0.8114 0.77896 0.59313 0.0
C1540 C 0.83918 0.83552 0.59502 0.0
C1541 C 0.81187 0.83633 0.59251 0.0
C1542 C 0.78409 0.80807 0.59047 0.0
C1543 C 0.78379 0.77956 0.59089 0.0
C1544 C 0.81329 0.86702 0.59146 0.0
C1545 C 0.80479 0.87497 0.58001 0.0
C1546 C 0.8267 0.88982 0.60109 0.0
C1547 C 0.8343 0.88234 0.61371 0.0
C1548 C 0.81175 0.85684 0.62065 0.0
C1549 C 0.81907 0.84969 0.63247 0.0
C1550 C 0.84884 0.86797 0.63749 0.0
C1551 C 0.87133 0.89348 0.63071 0.0
C1552 C 0.86414 0.90072 0.61888 0.0
C1553 C 0.81967 1.00087 0.57997 0.0
C1554 C 0.85055 0.02498 0.58175 0.0
C1555 C 0.81148 0.96963 0.58164 0.0
C1556 C 0.83397 0.96176 0.58513 0.0
C1557 C 0.86474 0.98579 0.58699 0.0
C1558 C 0.87297 0.01697 0.58528 0.0
C1559 C 0.82562 0.92866 0.58709 0.0
C1560 C 0.83285 0.92028 0.59874 0.0
C1561 C 0.81095 0.90549 0.57765 0.0
C1562 C 0.80349 0.91266 0.56496 0.0
C1563 C 0.82679 0.93592 0.55739 0.0
C1564 C 0.81965 0.94207 0.54534 0.0
C1565 C 0.78933 0.92491 0.54071 0.0
C1566 C 0.76609 0.90157 0.54811 0.0
C1567 C 0.7731 0.89538 0.56018 0.0
H1568 H 0.78387 0.92964 0.53136 0.0
H1569 H 0.85447 0.86239 0.64664 0.0
H1570 H 0.2625 0.07786 0.5998 0.0
H1571 H 0.21414 0.02813 0.59969 0.0
H1572 H 0.26331 0.98249 0.58634 0.0
H1573 H 0.3124 0.03287 0.58657 0.0
H1574 H 0.21045 0.9673 0.57202 0.0
H1575 H 0.23118 0.96207 0.61548 0.0
H1576 H 0.24641 0.97979 0.6374 0.0
H1577 H 0.17336 1.00197 0.64013 0.0
H1578 H 0.15739 0.98387 0.61824 0.0
H1579 H 0.06167 0.8243 0.57722 0.0
H1580 H 0.11684 0.8641 0.57844 0.0
H1581 H 0.09202 0.92871 0.59444 0.0
H1582 H 0.03713 0.88934 0.59316 0.0
H1583 H 0.13667 0.92773 0.60802 0.0
H1584 H 0.11841 0.93477 0.56342 0.0
H1585 H 0.1031 0.9145 0.54175 0.0
H1586 H 0.17255 0.88714 0.54131 0.0
H1587 H 0.18826 0.90721 0.56299 0.0
C1588 C 0.26319 0.05713 0.59712 0.0
C1589 C 0.29126 0.05919 0.59329 0.0
C1590 C 0.23549 0.02865 0.59706 0.0
C1591 C 0.23497 1.00141 0.59307 0.0
C1592 C 0.26314 1.00316 0.58951 0.0
C1593 C 0.29118 0.03183 0.58976 0.0
C1594 C 0.20447 0.97201 0.5919 0.0
C1595 C 0.19454 0.95814 0.57996 0.0
C1596 C 0.18344 0.96024 0.60217 0.0
C1597 C 0.19326 0.97184 0.61521 0.0
C1598 C 0.21852 0.97095 0.62073 0.0
C1599 C 0.22721 0.98097 0.63316 0.0
C1600 C 0.211 0.99222 0.64014 0.0
C1601 C 0.18592 0.99329 0.63471 0.0
C1602 C 0.17692 0.98299 0.62231 0.0
C1603 C 0.06794 0.84714 0.58082 0.0
C1604 C 0.04484 0.85345 0.58519 0.0
C1605 C 0.09955 0.86989 0.58153 0.0
C1606 C 0.10873 0.89952 0.58654 0.0
C1607 C 0.08565 0.90601 0.59063 0.0
C1608 C 0.05419 0.88336 0.58994 0.0
C1609 C 0.14222 0.92358 0.58806 0.0
C1610 C 0.15267 0.93648 0.60011 0.0
C1611 C 0.16368 0.9342 0.57789 0.0
C1612 C 0.15424 0.92214 0.56487 0.0
C1613 C 0.13027 0.92424 0.55873 0.0
C1614 C 0.1216 0.91289 0.54643 0.0
C1615 C 0.13685 0.89955 0.54015 0.0
C1616 C 0.16084 0.89758 0.54616 0.0
C1617 C 0.16966 0.90896 0.55845 0.0
H1618 H 0.13011 0.89075 0.53063 0.0
H1619 H 0.21779 1.00001 0.64977 0.0
H1620 H 0.48922 0.05488 0.06442 0.0
H1621 H 0.48984 0.06054 0.04136 0.0
H1622 H 0.50353 0.98168 0.03709 0.0
H1623 H 0.50432 0.977 0.06001 0.0
H1624 H 0.53891 0.02174 0.02156 0.0
H1625 H 0.43144 0.97991 0.03105 0.0
H1626 H 0.38592 0.97695 0.04175 0.0
H1627 H 0.40812 0.06565 0.02623 0.0
H1628 H 0.45406 0.06936 0.01559 0.0
H1629 H 0.46401 1.01046 0.95487 0.0
H1630 H 0.45768 1.0018 0.97782 0.0
H1631 H 0.55198 0.07596 0.98341 0.0
H1632 H 0.5586 0.08371 0.96063 0.0
H1633 H 0.45952 0.03401 0.99792 0.0
H1634 H 0.58607 0.06184 1.00757 0.0
H1635 H 0.6278 0.05766 0.99671 0.0
H1636 H 0.56016 0.98368 0.97358 0.0
H1637 H 0.51798 0.98706 0.98443 0.0
C1638 C 0.49233 0.0388 0.05853 0.0
C1639 C 0.49681 0.01557 0.06404 0.0
C1640 C 0.49247 0.04187 0.04532 0.0
C1641 C 0.4964 0.02133 0.03733 0.0
C1642 C 0.50059 0.99798 0.04292 0.0
C1643 C 0.50093 0.99524 0.05607 0.0
C1644 C 0.49709 0.02448 0.02319 0.0
C1645 C 0.52147 0.02443 0.01645 0.0
C1646 C 0.47409 0.02729 0.01632 0.0
C1647 C 0.44635 0.02504 0.02261 0.0
C1648 C 0.42673 0.99888 0.02998 0.0
C1649 C 0.40084 0.99705 0.03603 0.0
C1650 C 0.39417 0.02113 0.03469 0.0
C1651 C 0.41333 0.04704 0.02727 0.0
C1652 C 0.43929 0.04901 0.02122 0.0
C1653 C 0.48335 0.02472 0.96101 0.0
C1654 C 0.51193 0.04739 0.9559 0.0
C1655 C 0.4797 0.01993 0.97416 0.0
C1656 C 0.50453 0.03781 0.98244 0.0
C1657 C 0.53265 0.06126 0.9773 0.0
C1658 C 0.53637 0.06579 0.96423 0.0
C1659 C 0.50159 0.03177 0.9964 0.0
C1660 C 0.47688 0.03131 1.00308 0.0
C1661 C 0.52372 0.02745 1.00321 0.0
C1662 C 0.5489 0.02494 0.99674 0.0
C1663 C 0.58009 0.04458 1.00021 0.0
C1664 C 0.60382 0.04236 0.99405 0.0
C1665 C 0.59663 0.02047 0.98444 0.0
C1666 C 0.56568 1.00067 0.981 0.0
C1667 C 0.54186 1.00275 0.98714 0.0
H1668 H 0.61503 0.01881 0.97967 0.0
H1669 H 0.37412 0.01968 0.03938 0.0
H1670 H 0.05957 0.48029 0.95468 0.0
H1671 H 0.06317 0.47496 0.97767 0.0
H1672 H 1.00248 0.51251 0.98385 0.0
H1673 H 0.99895 0.51789 0.96109 0.0
H1674 H 0.0841 0.5173 0.99698 0.0
H1675 H 0.95384 0.4749 1.00831 0.0
H1676 H 0.90264 0.44282 0.99828 0.0
H1677 H 0.93912 0.3956 0.97625 0.0
H1678 H 0.99032 0.42693 0.9863 0.0
H1679 H 0.06795 0.55332 0.05936 0.0
H1680 H 0.06415 0.54574 0.03653 0.0
H1681 H 1.01297 0.44625 0.04186 0.0
H1682 H 1.01642 0.45386 0.06493 0.0
H1683 H 0.9882 0.46226 0.02286 0.0
H1684 H 0.08926 0.4827 0.03321 0.0
H1685 H 0.14096 0.5101 0.04321 0.0
H1686 H 0.16401 0.59221 0.0217 0.0
H1687 H 0.11223 0.56548 0.01173 0.0
C1688 C 0.0471 0.48742 0.96097 0.0
C1689 C 0.02894 0.49944 0.95606 0.0
C1690 C 0.04917 0.48441 0.9741 0.0
C1691 C 0.03276 0.49295 0.98254 0.0
C1692 C 1.01496 0.50528 0.97759 0.0
C1693 C 1.01309 0.50849 0.96454 0.0
C1694 C 0.03422 0.4895 0.99652 0.0
C1695 C 0.06315 0.50516 1.00262 0.0
C1696 C 1.00698 0.47283 1.00393 0.0
C1697 C 0.97603 0.4535 0.998 0.0
C1698 C 0.95089 0.45755 1.00138 0.0
C1699 C 0.92186 0.43949 0.99568 0.0
C1700 C 0.91763 0.41722 0.98661 0.0
C1701 C 0.94241 0.41289 0.98325 0.0
C1702 C 0.97146 0.43082 0.98894 0.0
C1703 C 0.05574 0.52978 0.0557 0.0
C1704 C 0.04255 0.50418 0.06397 0.0
C1705 C 0.05375 0.52546 0.04261 0.0
C1706 C 0.03878 0.4954 0.03738 0.0
C1707 C 0.02479 0.46969 0.04562 0.0
C1708 C 0.02675 0.47403 0.0588 0.0
C1709 C 0.03799 0.49131 0.02334 0.0
C1710 C 1.00919 0.47421 0.01722 0.0
C1711 C 0.06542 0.50599 0.0159 0.0
C1712 C 0.09675 0.52212 0.02177 0.0
C1713 C 0.10527 0.50667 0.03067 0.0
C1714 C 0.13461 0.52207 0.03633 0.0
C1715 C 0.15574 0.55288 0.03311 0.0
C1716 C 0.14761 0.56834 0.02419 0.0
C1717 C 0.11828 0.55306 0.01852 0.0
H1718 H 0.17844 0.56477 0.0375 0.0
H1719 H 0.89516 0.4033 0.9822 0.0
H1720 H 0.59592 0.60977 0.95538 0.0
H1721 H 0.60078 0.61992 0.97827 0.0
H1722 H 0.55889 0.52147 0.98539 0.0
H1723 H 0.55416 0.51139 0.9627 0.0
H1724 H 0.55961 0.60335 0.99706 0.0
H1725 H 0.58976 0.50774 1.0112 0.0
H1726 H 0.61847 0.48343 1.00233 0.0
H1727 H 0.67288 0.56431 0.97945 0.0
H1728 H 0.64496 0.58933 0.98835 0.0
H1729 H 0.51677 0.55608 0.05968 0.0
H1730 H 0.52587 0.55946 0.03697 0.0
H1731 H 0.62408 0.59816 0.04348 0.0
H1732 H 0.61484 0.59437 0.06646 0.0
H1733 H 0.60597 0.55689 0.0249 0.0
H1734 H 0.59416 0.64402 0.03331 0.0
H1735 H 0.57057 0.67369 0.04188 0.0
H1736 H 0.48888 0.61943 0.01947 0.0
H1737 H 0.5117 0.58903 1.01094 0.0
C1738 C 0.58766 0.59036 0.96185 0.0
C1739 C 0.57458 0.55979 0.95721 0.0
C1740 C 0.59048 0.59616 0.97494 0.0
C1741 C 0.58059 0.57152 0.98364 0.0
C1742 C 0.56728 0.541 0.97895 0.0
C1743 C 0.56442 0.53524 0.96594 0.0
C1744 C 0.58349 0.57722 0.99762 0.0
C1745 C 0.56985 0.59328 1.00313 0.0
C1746 C 0.59775 0.56503 1.00562 0.0
C1747 C 0.61505 0.5503 1.00038 0.0
C1748 C 0.60798 0.52042 1.00434 0.0
C1749 C 0.62412 0.5065 0.9993 0.0
C1750 C 0.64745 0.52229 0.99031 0.0
C1751 C 0.65478 0.55207 0.98639 0.0
C1752 C 0.63878 0.56612 0.99142 0.0
C1753 C 0.54037 0.56536 0.05631 0.0
C1754 C 0.5651 0.57496 0.0649 0.0
C1755 C 0.54558 0.56747 0.04328 0.0
C1756 C 0.57575 0.5796 0.03839 0.0
C1757 C 0.60058 0.58886 0.04695 0.0
C1758 C 0.59532 0.58668 0.0601 0.0
C1759 C 0.58077 0.58174 0.02437 0.0
C1760 C 0.59593 0.56718 0.01884 0.0
C1761 C 0.56856 0.59599 0.01636 0.0
C1762 C 0.55462 0.6141 0.02153 0.0
C1763 C 0.57106 0.63822 0.03028 0.0
C1764 C 0.55783 0.6552 0.03513 0.0
C1765 C 0.52826 0.64845 0.03121 0.0
C1766 C 0.5118 0.62465 0.02248 0.0
C1767 C 0.52488 0.60755 0.01763 0.0
H1768 H 0.51812 0.66171 0.03491 0.0
H1769 H 0.65988 0.51146 0.98641 0.0
H1770 H 0.1368 0.3664 0.39961 0.0
H1771 H 0.13586 0.3703 0.37643 0.0
H1772 H 0.20104 0.33732 0.37322 0.0
H1773 H 0.20121 0.33232 0.39626 0.0
H1774 H 0.21288 0.39697 0.35846 0.0
H1775 H 0.13743 0.28746 0.36698 0.0
H1776 H 0.09038 0.24684 0.37762 0.0
H1777 H 0.03624 0.28289 0.36076 0.0
H1778 H 0.08313 0.32408 0.35019 0.0
H1779 H 0.22292 0.36803 0.29481 0.0
H1780 H 0.21728 0.36361 0.31773 0.0
H1781 H 0.12588 0.3531 0.31464 0.0
H1782 H 0.13091 0.3557 0.29148 0.0
H1783 H 0.12407 0.31889 0.33304 0.0
H1784 H 0.19357 0.42461 0.32337 0.0
H1785 H 0.2384 0.4698 0.31354 0.0
H1786 H 0.30084 0.44796 0.33306 0.0
H1787 H 0.25635 0.40235 0.34287 0.0
C1788 C 0.15096 0.36008 0.39394 0.0
C1789 C 0.16909 0.34905 0.39973 0.0
C1790 C 0.15036 0.36225 0.38072 0.0
C1791 C 0.16836 0.35406 0.3731 0.0
C1792 C 0.18699 0.34376 0.37891 0.0
C1793 C 0.18703 0.34089 0.39207 0.0
C1794 C 0.16778 0.3559 0.35907 0.0
C1795 C 0.19363 0.37979 0.35286 0.0
C1796 C 0.14209 0.33425 0.35182 0.0
C1797 C 0.11384 0.30905 0.35792 0.0
C1798 C 0.11555 0.28689 0.36563 0.0
C1799 C 0.0889 0.26373 0.37163 0.0
C1800 C 0.06036 0.26235 0.3699 0.0
C1801 C 0.05838 0.28403 0.36211 0.0
C1802 C 0.08497 0.30727 0.35611 0.0
C1803 C 0.20147 0.36444 0.29901 0.0
C1804 C 0.17744 0.36238 0.29136 0.0
C1805 C 0.19835 0.36222 0.31216 0.0
C1806 C 0.17154 0.35904 0.31808 0.0
C1807 C 0.14694 0.35582 0.3104 0.0
C1808 C 0.1498 0.3573 0.29715 0.0
C1809 C 0.16975 0.35964 0.33224 0.0
C1810 C 0.14339 0.33629 0.33852 0.0
C1811 C 0.19469 0.3824 0.33961 0.0
C1812 C 0.22158 0.4099 0.33378 0.0
C1813 C 0.21685 0.42932 0.3255 0.0
C1814 C 0.2422 0.45503 0.31994 0.0
C1815 C 0.27244 0.46171 0.32265 0.0
C1816 C 0.27739 0.44274 0.33096 0.0
C1817 C 0.25211 0.41697 0.33654 0.0
H1818 H 0.29204 0.48162 0.31833 0.0
H1819 H 0.03976 0.24443 0.37457 0.0
H1820 H 0.76777 0.86003 0.39607 0.0
H1821 H 0.76312 0.85193 0.37326 0.0
H1822 H 0.66363 0.79429 0.37708 0.0
H1823 H 0.66876 0.80064 0.40017 0.0
H1824 H 0.67916 0.77216 0.35887 0.0
H1825 H 0.70393 0.87627 0.36778 0.0
H1826 H 0.73317 0.92896 0.37693 0.0
H1827 H 0.81442 0.94595 0.35612 0.0
H1828 H 0.78576 0.89319 0.34697 0.0
H1829 H 0.64517 0.80861 0.29704 0.0
H1830 H 0.65246 0.80638 0.3198 0.0
H1831 H 0.74653 0.82695 0.31334 0.0
H1832 H 0.73896 0.82833 0.29036 0.0
H1833 H 0.73489 0.86673 0.33229 0.0
H1834 H 0.70351 0.76014 0.3221 0.0
H1835 H 0.66887 0.70901 0.31243 0.0
H1836 H 0.59306 0.6991 0.33533 0.0
H1837 H 0.62713 0.75043 0.34499 0.0
C1838 C 0.74494 0.84528 0.39205 0.0
C1839 C 0.7186 0.83111 0.39987 0.0
C1840 C 0.74221 0.8409 0.37895 0.0
C1841 C 0.71288 0.8234 0.37323 0.0
C1842 C 0.68657 0.80815 0.38114 0.0
C1843 C 0.68945 0.81174 0.39435 0.0
C1844 C 0.70979 0.8219 0.35907 0.0
C1845 C 0.69119 0.79297 0.35313 0.0
C1846 C 0.7255 0.84887 0.35135 0.0
C1847 C 0.74279 0.88066 0.3568 0.0
C1848 C 0.72809 0.89117 0.36522 0.0
C1849 C 0.74455 0.92106 0.3704 0.0
C1850 C 0.77566 0.94075 0.36713 0.0
C1851 C 0.79034 0.93064 0.35865 0.0
C1852 C 0.774 0.90076 0.35346 0.0
C1853 C 0.66733 0.8123 0.30044 0.0
C1854 C 0.69148 0.81853 0.29191 0.0
C1855 C 0.67142 0.81096 0.31346 0.0
C1856 C 0.69999 0.81642 0.3183 0.0
C1857 C 0.72423 0.82254 0.30981 0.0
C1858 C 0.71987 0.82316 0.29669 0.0
C1859 C 0.70463 0.81716 0.33225 0.0
C1860 C 0.72326 0.846 0.33811 0.0
C1861 C 0.68823 0.79032 0.33987 0.0
C1862 C 0.66782 0.75927 0.33419 0.0
C1863 C 0.67939 0.74718 0.325 0.0
C1864 C 0.65987 0.71814 0.31954 0.0
C1865 C 0.62876 0.70085 0.32325 0.0
C1866 C 0.61715 0.71253 0.33246 0.0
C1867 C 0.63657 0.74159 0.33794 0.0
H1868 H 0.61368 0.67837 0.319 0.0
H1869 H 0.78836 0.96388 0.37115 0.0
H1870 H 0.20252 0.84297 0.29732 0.0
H1871 H 0.20397 0.85052 0.32022 0.0
H1872 H 0.27432 0.94676 0.3156 0.0
H1873 H 0.27232 0.93948 0.29248 0.0
H1874 H 0.28544 0.90813 0.33547 0.0
H1875 H 0.2112 0.93873 0.32266 0.0
H1876 H 0.16454 0.93254 0.3118 0.0
H1877 H 0.10756 0.84807 0.3323 0.0
H1878 H 0.15393 0.8535 0.34316 0.0
H1879 H 0.27569 0.93678 0.40191 0.0
H1880 H 0.2821 0.94012 0.37881 0.0
H1881 H 0.19012 0.86039 0.37469 0.0
H1882 H 0.18316 0.85851 0.39751 0.0
H1883 H 0.19405 0.89807 0.35861 0.0
H1884 H 0.26446 0.86191 0.36993 0.0
H1885 H 0.30896 0.86387 0.38111 0.0
H1886 H 0.37074 0.95151 0.36357 0.0
H1887 H 0.32651 0.9503 0.35243 0.0
C1888 C 0.21813 0.86584 0.30115 0.0
C1889 C 0.23718 0.89067 0.29309 0.0
C1890 C 0.21898 0.8701 0.31426 0.0
C1891 C 0.23931 0.89916 0.31966 0.0
C1892 C 0.25851 0.9241 0.31165 0.0
C1893 C 0.25719 0.91999 0.29845 0.0
C1894 C 0.24 0.90305 0.33368 0.0
C1895 C 0.26572 0.90649 0.34056 0.0
C1896 C 0.21393 0.89996 0.34034 0.0
C1897 C 0.18609 0.89643 0.33367 0.0
C1898 C 0.18877 0.91867 0.32476 0.0
C1899 C 0.16236 0.91535 0.31863 0.0
C1900 C 0.13311 0.88997 0.32138 0.0
C1901 C 0.13022 0.86775 0.3302 0.0
C1902 C 0.15656 0.87096 0.33636 0.0
C1903 C 0.25708 0.91984 0.39602 0.0
C1904 C 0.22894 0.89737 0.4015 0.0
C1905 C 0.26074 0.92165 0.38279 0.0
C1906 C 0.23667 0.90038 0.37481 0.0
C1907 C 0.20903 0.87737 0.38046 0.0
C1908 C 0.20511 0.87613 0.39356 0.0
C1909 C 0.23922 0.9023 0.36063 0.0
C1910 C 0.21402 0.89995 0.35364 0.0
C1911 C 0.26548 0.90561 0.35391 0.0
C1912 C 0.29213 0.90619 0.36047 0.0
C1913 C 0.28751 0.8817 0.36852 0.0
C1914 C 0.31268 0.88266 0.37485 0.0
C1915 C 0.34264 0.90785 0.37309 0.0
C1916 C 0.34751 0.93205 0.36495 0.0
C1917 C 0.3224 0.93124 0.35862 0.0
H1918 H 0.36208 0.90857 0.378 0.0
H1919 H 0.11266 0.88754 0.3167 0.0
H1920 H 0.85888 0.65684 0.73017 0.0
H1921 H 0.85649 0.6605 0.70726 0.0
H1922 H 0.80604 0.7098 0.71153 0.0
H1923 H 0.80838 0.70611 0.73471 0.0
H1924 H 0.78035 0.66289 0.69298 0.0
H1925 H 0.88036 0.74932 0.70294 0.0
H1926 H 0.9321 0.77572 0.71294 0.0
H1927 H 0.95757 0.7171 0.69243 0.0
H1928 H 0.90581 0.69002 0.68244 0.0
H1929 H 0.79698 0.70221 0.62696 0.0
H1930 H 0.79561 0.70214 0.6501 0.0
H1931 H 0.85729 0.66446 0.65105 0.0
H1932 H 0.85934 0.66533 0.62795 0.0
H1933 H 0.87676 0.70957 0.66727 0.0
H1934 H 0.77686 0.6208 0.65842 0.0
H1935 H 0.72485 0.5924 0.64871 0.0
H1936 H 0.69892 0.65314 0.66721 0.0
H1937 H 0.75095 0.68219 0.6769 0.0
C1938 C 0.8474 0.66864 0.72627 0.0
C1939 C 0.83402 0.68139 0.73427 0.0
C1940 C 0.8461 0.67077 0.71313 0.0
C1941 C 0.83134 0.68568 0.7076 0.0
C1942 C 0.81764 0.69826 0.71555 0.0
C1943 C 0.81915 0.69633 0.72879 0.0
C1944 C 0.83033 0.68773 0.69351 0.0
C1945 C 0.80143 0.67362 0.68735 0.0
C1946 C 0.85778 0.70101 0.68611 0.0
C1947 C 0.88909 0.71748 0.69201 0.0
C1948 C 0.89691 0.74191 0.70062 0.0
C1949 C 0.92626 0.75702 0.70628 0.0
C1950 C 0.94809 0.74805 0.70334 0.0
C1951 C 0.94063 0.72401 0.6947 0.0
C1952 C 0.9113 0.7088 0.68903 0.0
C1953 C 0.80993 0.69355 0.63211 0.0
C1954 C 0.82828 0.68378 0.62559 0.0
C1955 C 0.8091 0.69345 0.64538 0.0
C1956 C 0.82622 0.68314 0.65246 0.0
C1957 C 0.84395 0.67268 0.6459 0.0
C1958 C 0.84498 0.67301 0.63266 0.0
C1959 C 0.82671 0.68424 0.66664 0.0
C1960 C 0.8556 0.69901 0.67285 0.0
C1961 C 0.79923 0.67136 0.67405 0.0
C1962 C 0.76792 0.65388 0.66827 0.0
C1963 C 0.76015 0.62826 0.66034 0.0
C1964 C 0.73065 0.61202 0.65485 0.0
C1965 C 0.70863 0.62102 0.65731 0.0
C1966 C 0.71602 0.64623 0.66529 0.0
C1967 C 0.74551 0.66258 0.67079 0.0
H1968 H 0.6858 0.60842 0.65305 0.0
H1969 H 0.9708 0.75977 0.70772 0.0
H1970 H 0.38024 0.13258 0.62249 0.0
H1971 H 0.38788 0.13101 0.64548 0.0
H1972 H 0.35634 0.19674 0.6514 0.0
H1973 H 0.34809 0.19781 0.6287 0.0
H1974 H 0.4125 0.21014 0.66507 0.0
H1975 H 0.30741 0.12324 0.65628 0.0
H1976 H 0.2718 0.07364 0.64567 0.0
H1977 H 0.32027 0.03108 0.66227 0.0
H1978 H 0.3564 0.08052 0.67284 0.0
H1979 H 0.38115 0.2143 0.72864 0.0
H1980 H 0.37768 0.20888 0.70574 0.0
H1981 H 0.3763 0.12141 0.70878 0.0
H1982 H 0.37728 0.12585 0.73198 0.0
H1983 H 0.34323 0.11595 0.69007 0.0
H1984 H 0.44477 0.19535 0.70011 0.0
H1985 H 0.48621 0.243 0.7101 0.0
H1986 H 0.45425 0.29773 0.6907 0.0
H1987 H 0.41231 0.25035 0.68073 0.0
C1988 C 0.37524 0.14685 0.62872 0.0
C1989 C 0.3636 0.16535 0.62379 0.0
C1990 C 0.37947 0.14585 0.64184 0.0
C1991 C 0.3726 0.16373 0.6502 0.0
C1992 C 0.36184 0.18279 0.64519 0.0
C1993 C 0.35709 0.18334 0.63219 0.0
C1994 C 0.37579 0.16249 0.66421 0.0
C1995 C 0.39727 0.18962 0.67057 0.0
C1996 C 0.35695 0.13536 0.67138 0.0
C1997 C 0.33477 0.10561 0.66523 0.0
C1998 C 0.31058 0.10335 0.6576 0.0
C1999 C 0.2903 0.07528 0.65161 0.0
C2000 C 0.2939 0.04932 0.65327 0.0
C2001 C 0.3176 0.05126 0.66098 0.0
C2002 C 0.33795 0.07927 0.66698 0.0
C2003 C 0.37967 0.19369 0.72443 0.0
C2004 C 0.37959 0.17056 0.73209 0.0
C2005 C 0.37812 0.19076 0.71127 0.0
C2006 C 0.378 0.16532 0.70531 0.0
C2007 C 0.37672 0.14149 0.71301 0.0
C2008 C 0.37723 0.14397 0.72629 0.0
C2009 C 0.37941 0.16408 0.69112 0.0
C2010 C 0.35883 0.13651 0.68469 0.0
C2011 C 0.39995 0.19058 0.68383 0.0
C2012 C 0.42524 0.21923 0.68974 0.0
C2013 C 0.44646 0.21752 0.69803 0.0
C2014 C 0.47005 0.24449 0.70369 0.0
C2015 C 0.47282 0.27336 0.70105 0.0
C2016 C 0.45205 0.27534 0.69274 0.0
C2017 C 0.42839 0.24844 0.68707 0.0
H2018 H 0.4911 0.29421 0.70544 0.0
H2019 H 0.27834 0.02768 0.6486 0.0
H2020 H 0.90218 0.2647 0.62425 0.0
H2021 H 0.90239 0.26949 0.64738 0.0
H2022 H 0.89571 0.17965 0.65108 0.0
H2023 H 0.89346 0.17416 0.62819 0.0
H2024 H 0.86073 0.18036 0.66713 0.0
H2025 H 0.9657 0.25517 0.65677 0.0
H2026 H 1.00795 0.30077 0.64598 0.0
H2027 H 0.97717 0.35968 0.66263 0.0
H2028 H 0.93446 0.31434 0.6734 0.0
H2029 H 0.93716 0.24599 0.73326 0.0
H2030 H 0.94243 0.24583 0.71014 0.0
H2031 H 0.84513 0.2162 0.70608 0.0
H2032 H 0.8397 0.21548 0.72901 0.0
H2033 H 0.93512 0.2752 0.69062 0.0
H2034 H 0.813 0.16659 0.68244 0.0
H2035 H 0.77673 0.11797 0.6935 0.0
H2036 H 0.85279 0.12129 0.71408 0.0
H2037 H 0.88948 0.1697 0.70307 0.0
C2038 C 0.90079 0.24608 0.63006 0.0
C2039 C 0.8977 0.21903 0.62442 0.0
C2040 C 0.90114 0.24887 0.6433 0.0
C2041 C 0.89942 0.22508 0.65116 0.0
C2042 C 0.89683 0.19833 0.6454 0.0
C2043 C 0.89567 0.19523 0.63225 0.0
C2044 C 0.8993 0.22719 0.66534 0.0
C2045 C 0.8771 0.20121 0.67218 0.0
C2046 C 0.92095 0.25398 0.67217 0.0
C2047 C 0.94671 0.28131 0.66579 0.0
C2048 C 0.96783 0.27782 0.65807 0.0
C2049 C 0.99187 0.30362 0.65196 0.0
C2050 C 0.9952 0.33309 0.65359 0.0
C2051 C 0.97454 0.33683 0.66136 0.0
C2052 C 0.95042 0.3111 0.66748 0.0
C2053 C 0.91695 0.23939 0.7274 0.0
C2054 C 0.88794 0.23036 0.73296 0.0
C2055 C 0.91999 0.23948 0.71418 0.0
C2056 C 0.89408 0.23054 0.70628 0.0
C2057 C 0.86538 0.22256 0.71189 0.0
C2058 C 0.86231 0.22224 0.72504 0.0
C2059 C 0.89645 0.22854 0.69224 0.0
C2060 C 0.91889 0.25446 0.68547 0.0
C2061 C 0.8759 0.20126 0.68545 0.0
C2062 C 0.85392 0.17194 0.69202 0.0
C2063 C 0.82197 0.15688 0.6893 0.0
C2064 C 0.80133 0.12937 0.69558 0.0
C2065 C 0.81242 0.11661 0.70454 0.0
C2066 C 0.84418 0.13126 0.7072 0.0
C2067 C 0.8649 0.15876 0.70096 0.0
H2068 H 0.79642 0.09534 0.70939 0.0
H2069 H 1.01382 0.35303 0.64885 0.0
H2070 H 0.34333 0.93759 0.23366 0.0
H2071 H 0.37229 0.94498 0.21411 0.0
H2072 H 0.29244 0.93031 0.19256 0.0
H2073 H 0.26291 0.92194 0.21233 0.0
H2074 H 0.32457 0.90721 0.18 0.0
H2075 H 0.35181 1.00454 0.20039 0.0
H2076 H 0.36937 0.04137 0.21827 0.0
H2077 H 0.45537 0.0406 0.21964 0.0
H2078 H 0.43814 1.00343 0.20187 0.0
H2079 H 0.39356 0.99542 0.12553 0.0
H2080 H 0.36707 0.97142 0.14505 0.0
H2081 H 0.45451 0.99364 0.16218 0.0
H2082 H 0.48173 0.01852 0.14225 0.0
H2083 H 0.42179 1.00942 0.17763 0.0
H2084 H 0.39707 0.91698 0.15526 0.0
H2085 H 0.37874 0.87868 0.13792 0.0
H2086 H 0.28813 0.86921 0.14023 0.0
H2087 H 0.30602 0.90789 0.15742 0.0
C2088 C 0.33158 0.93496 0.22473 0.0
C2089 C 0.30075 0.92899 0.22454 0.0
C2090 C 0.34833 0.93957 0.21353 0.0
C2091 C 0.33504 0.93916 0.20177 0.0
C2092 C 0.30343 0.931 0.20148 0.0
C2093 C 0.2864 0.92594 0.21277 0.0
C2094 C 0.35478 0.94937 0.19002 0.0
C2095 C 0.34564 0.92969 0.17943 0.0
C2096 C 0.38299 0.9783 0.18933 0.0
C2097 C 0.39358 1.00101 0.19988 0.0
C2098 C 0.3744 1.01211 0.20455 0.0
C2099 C 0.3843 0.03305 0.21466 0.0
C2100 C 0.41344 0.04326 0.22011 0.0
C2101 C 0.43279 0.03264 0.21542 0.0
C2102 C 0.42299 1.01166 0.20532 0.0
C2103 C 0.40737 0.99498 0.13336 0.0
C2104 C 0.43992 1.00907 0.13227 0.0
C2105 C 0.39198 0.98089 0.14457 0.0
C2106 C 0.40847 0.98019 0.15519 0.0
C2107 C 0.44108 0.99365 0.15413 0.0
C2108 C 0.45667 1.00773 0.14272 0.0
C2109 C 0.39142 0.96744 0.16746 0.0
C2110 C 0.40096 0.98674 0.17818 0.0
C2111 C 0.36358 0.93814 0.16824 0.0
C2112 C 0.35296 0.91548 0.15763 0.0
C2113 C 0.37332 0.90699 0.152 0.0
C2114 C 0.36298 0.88513 0.14221 0.0
C2115 C 0.33225 0.87141 0.13803 0.0
C2116 C 0.31189 0.87976 0.14352 0.0
C2117 C 0.32212 0.90164 0.15329 0.0
H2118 H 0.32416 0.85433 0.13053 0.0
H2119 H 0.42105 0.05945 0.22794 0.0
H2120 H 0.0933 0.44638 0.12317 0.0
H2121 H 0.11491 0.43921 0.14259 0.0
H2122 H 0.06604 0.47528 0.16405 0.0
H2123 H 0.04361 0.48217 0.14427 0.0
H2124 H 0.12542 0.49341 0.17422 0.0
H2125 H 0.03565 0.39764 0.16121 0.0
H2126 H 1.00359 0.35612 0.14602 0.0
H2127 H 0.07692 0.33492 0.14141 0.0
H2128 H 0.1096 0.37664 0.15644 0.0
H2129 H 0.11854 0.42138 0.23251 0.0
H2130 H 0.11221 0.44232 0.21278 0.0
H2131 H 0.15038 0.39365 0.19245 0.0
H2132 H 0.15566 0.3713 0.21252 0.0
H2133 H 0.09998 0.38424 0.18119 0.0
H2134 H 0.18858 0.47734 0.19554 0.0
H2135 H 0.22063 0.51861 0.2108 0.0
H2136 H 0.1509 0.54541 0.21303 0.0
H2137 H 0.11815 0.50399 0.1979 0.0
C2138 C 0.08754 0.45345 0.13197 0.0
C2139 C 0.06653 0.46467 0.13215 0.0
C2140 C 0.09992 0.44921 0.14313 0.0
C2141 C 0.09182 0.45613 0.15489 0.0
C2142 C 0.07262 0.46962 0.1551 0.0
C2143 C 0.05995 0.47378 0.1438 0.0
C2144 C 0.10165 0.44687 0.16676 0.0
C2145 C 0.11952 0.46949 0.17584 0.0
C2146 C 0.09493 0.41581 0.16876 0.0
C2147 C 0.07514 0.39039 0.15988 0.0
C2148 C 0.04499 0.38422 0.1569 0.0
C2149 C 0.02671 0.36066 0.14833 0.0
C2150 C 0.03823 0.34293 0.14274 0.0
C2151 C 0.06803 0.34868 0.14575 0.0
C2152 C 0.08643 0.37226 0.1543 0.0
C2153 C 0.1262 0.41548 0.22388 0.0
C2154 C 0.13759 0.39456 0.22413 0.0
C2155 C 0.12276 0.42779 0.21253 0.0
C2156 C 0.1311 0.42009 0.20098 0.0
C2157 C 0.14382 0.40015 0.2012 0.0
C2158 C 0.14716 0.38758 0.21269 0.0
C2159 C 0.12378 0.43072 0.18879 0.0
C2160 C 0.10622 0.40828 0.17961 0.0
C2161 C 0.13089 0.46196 0.18673 0.0
C2162 C 0.15079 0.48736 0.19564 0.0
C2163 C 0.17998 0.49191 0.19932 0.0
C2164 C 0.19828 0.51534 0.20795 0.0
C2165 C 0.18775 0.53454 0.2129 0.0
C2166 C 0.15899 0.53048 0.20918 0.0
C2167 C 0.14057 0.50706 0.20056 0.0
H2168 H 0.20189 0.55255 0.21961 0.0
H2169 H 0.02405 0.32471 0.1361 0.0
H2170 H 0.64592 0.75909 0.22817 0.0
H2171 H 0.62058 0.7246 0.21004 0.0
H2172 H 0.70941 0.76061 0.1917 0.0
H2173 H 0.73488 0.79396 0.20999 0.0
H2174 H 0.6616 0.75123 0.17468 0.0
H2175 H 0.68209 0.69795 0.20811 0.0
H2176 H 0.6778 0.67542 0.22926 0.0
H2177 H 0.5794 0.6167 0.22421 0.0
H2178 H 0.58296 0.63955 0.20318 0.0
H2179 H 0.64562 0.60522 0.14477 0.0
H2180 H 0.65306 0.63746 0.16335 0.0
H2181 H 0.58265 0.65673 0.14974 0.0
H2182 H 0.57412 0.62306 0.1313 0.0
H2183 H 0.61459 0.63811 0.1828 0.0
H2184 H 0.6184 0.74132 0.15637 0.0
H2185 H 0.62741 0.76387 0.13499 0.0
H2186 H 0.68199 0.72156 0.12558 0.0
H2187 H 0.67404 0.69947 0.14702 0.0
C2188 C 0.65994 0.76037 0.22014 0.0
C2189 C 0.69247 0.77966 0.22049 0.0
C2190 C 0.6454 0.74041 0.20978 0.0
C2191 C 0.66299 0.73982 0.19944 0.0
C2192 C 0.6952 0.76059 0.19947 0.0
C2193 C 0.70977 0.77983 0.20992 0.0
C2194 C 0.64869 0.7162 0.18904 0.0
C2195 C 0.65082 0.72646 0.1765 0.0
C2196 C 0.63492 0.68377 0.1913 0.0
C2197 C 0.6327 0.67096 0.20416 0.0
C2198 C 0.65944 0.68068 0.2116 0.0
C2199 C 0.65717 0.66773 0.22355 0.0
C2200 C 0.62835 0.64467 0.22808 0.0
C2201 C 0.60172 0.6346 0.22069 0.0
C2202 C 0.60383 0.64766 0.20879 0.0
C2203 C 0.63095 0.61547 0.14592 0.0
C2204 C 0.60926 0.61147 0.13652 0.0
C2205 C 0.63535 0.63408 0.15655 0.0
C2206 C 0.61876 0.64996 0.15794 0.0
C2207 C 0.59594 0.64492 0.14887 0.0
C2208 C 0.59095 0.62552 0.13834 0.0
C2209 C 0.62716 0.67309 0.16848 0.0
C2210 C 0.6243 0.66279 0.18103 0.0
C2211 C 0.64039 0.70545 0.16623 0.0
C2212 C 0.64515 0.71831 0.15325 0.0
C2213 C 0.63234 0.73685 0.14974 0.0
C2214 C 0.63738 0.74967 0.13763 0.0
C2215 C 0.65524 0.74414 0.12892 0.0
C2216 C 0.66811 0.72578 0.13233 0.0
C2217 C 0.66332 0.71308 0.14446 0.0
H2218 H 0.65909 0.75407 0.11954 0.0
H2219 H 0.62665 0.63462 0.23732 0.0
H2220 H 0.96245 0.42574 0.89356 0.0
H2221 H 0.93727 0.39376 0.87482 0.0
H2222 H 0.02737 0.42418 0.8583 0.0
H2223 H 0.05227 0.45678 0.87683 0.0
H2224 H 0.98793 0.41659 0.84018 0.0
H2225 H 0.98306 0.35511 0.87738 0.0
H2226 H 0.96576 0.33487 0.89894 0.0
H2227 H 0.87048 0.29489 0.88746 0.0
H2228 H 0.88721 0.3156 0.86595 0.0
H2229 H 0.98777 0.29997 0.80551 0.0
H2230 H 0.99084 0.33035 0.82404 0.0
H2231 H 0.89199 0.29432 0.82239 0.0
H2232 H 0.8888 0.26357 0.80342 0.0
H2233 H 0.9231 0.30353 0.84895 0.0
H2234 H 0.92448 0.35777 0.81204 0.0
H2235 H 0.93844 0.37643 0.79017 0.0
H2236 H 0.03469 0.42931 0.80061 0.0
H2237 H 0.02136 0.41033 0.82254 0.0
C2238 C 0.97674 0.4267 0.88564 0.0
C2239 C 1.00932 0.44452 0.88649 0.0
C2240 C 0.96236 0.4079 0.87502 0.0
C2241 C 0.98031 0.40579 0.86517 0.0
C2242 C 1.01282 0.42518 0.8657 0.0
C2243 C 0.02713 0.44416 0.87626 0.0
C2244 C 0.96599 0.38207 0.85476 0.0
C2245 C 0.97375 0.39192 0.84216 0.0
C2246 C 0.94627 0.34971 0.85714 0.0
C2247 C 0.93641 0.33722 0.87009 0.0
C2248 C 0.95843 0.34223 0.87949 0.0
C2249 C 0.94873 0.33071 0.89171 0.0
C2250 C 0.91705 0.31371 0.89459 0.0
C2251 C 0.89501 0.30819 0.88525 0.0
C2252 C 0.90459 0.31986 0.87305 0.0
C2253 C 0.96641 0.29771 0.80924 0.0
C2254 C 0.93801 0.27923 0.80297 0.0
C2255 C 0.96828 0.31528 0.81985 0.0
C2256 C 0.94179 0.31503 0.82456 0.0
C2257 C 0.91279 0.29489 0.81893 0.0
C2258 C 0.91091 0.27713 0.80815 0.0
C2259 C 0.94595 0.33819 0.83455 0.0
C2260 C 0.93659 0.32828 0.84701 0.0
C2261 C 0.96364 0.37054 0.83207 0.0
C2262 C 0.97192 0.38241 0.81893 0.0
C2263 C 0.94866 0.37316 0.80966 0.0
C2264 C 0.95646 0.38383 0.79724 0.0
C2265 C 0.98744 0.40405 0.79399 0.0
C2266 C 1.01069 0.41364 0.80315 0.0
C2267 C 1.00302 0.40293 0.81559 0.0
H2268 H 0.99343 0.41232 0.78437 0.0
H2269 H 0.90957 0.30466 0.90402 0.0
H2270 H 0.61576 0.64542 0.8787 0.0
H2271 H 0.64731 0.65038 0.86032 0.0
H2272 H 0.65217 0.56982 0.87226 0.0
H2273 H 0.62029 0.56495 0.89098 0.0
H2274 H 0.7091 0.61546 0.86546 0.0
H2275 H 0.6123 0.56691 0.84501 0.0
H2276 H 0.55954 0.55525 0.83915 0.0
H2277 H 0.59655 0.64716 0.82381 0.0
H2278 H 0.64953 0.65954 0.82971 0.0
H2279 H 0.78795 0.6462 0.80186 0.0
H2280 H 0.75323 0.61879 0.81993 0.0
H2281 H 0.74257 0.69854 0.82686 0.0
H2282 H 0.77714 0.72582 0.80928 0.0
H2283 H 0.6849 0.63857 0.82276 0.0
H2284 H 0.783 0.6856 0.84618 0.0
H2285 H 0.83418 0.69235 0.85175 0.0
H2286 H 0.79172 0.59508 0.86057 0.0
H2287 H 0.74034 0.58763 0.85481 0.0
C2288 C 0.62278 0.62817 0.87727 0.0
C2289 C 0.61508 0.60454 0.88625 0.0
C2290 C 0.64095 0.63105 0.8667 0.0
C2291 C 0.65215 0.61037 0.8647 0.0
C2292 C 0.64383 0.58607 0.87349 0.0
C2293 C 0.62525 0.58303 0.88412 0.0
C2294 C 0.67378 0.61586 0.85378 0.0
C2295 C 0.70347 0.61977 0.85605 0.0
C2296 C 0.66675 0.62135 0.84139 0.0
C2297 C 0.63492 0.6142 0.83787 0.0
C2298 C 0.60919 0.58473 0.84047 0.0
C2299 C 0.57923 0.57797 0.83713 0.0
C2300 C 0.57469 0.60047 0.83113 0.0
C2301 C 0.60011 0.62976 0.82845 0.0
C2302 C 0.63012 0.63664 0.83177 0.0
C2303 C 0.77888 0.65812 0.80749 0.0
C2304 C 0.78538 0.68826 0.8041 0.0
C2305 C 0.75888 0.64238 0.81777 0.0
C2306 C 0.74498 0.65649 0.82474 0.0
C2307 C 0.75274 0.68702 0.82165 0.0
C2308 C 0.77271 0.70267 0.81158 0.0
C2309 C 0.7205 0.6395 0.83459 0.0
C2310 C 0.69022 0.63351 0.8321 0.0
C2311 C 0.72685 0.63141 0.84662 0.0
C2312 C 0.75788 0.63595 0.84984 0.0
C2313 C 0.78462 0.66555 0.84911 0.0
C2314 C 0.81367 0.66953 0.85235 0.0
C2315 C 0.81623 0.64413 0.85646 0.0
C2316 C 0.78974 0.61471 0.85734 0.0
C2317 C 0.76065 0.6106 0.85408 0.0
H2318 H 0.83873 0.64727 0.859 0.0
H2319 H 0.55148 0.59519 0.82855 0.0
H2320 H 0.41976 0.16104 0.7985 0.0
H2321 H 0.44596 0.15359 0.81683 0.0
H2322 H 0.35896 0.07499 0.82862 0.0
H2323 H 0.33324 0.08186 0.81033 0.0
H2324 H 0.38915 0.1084 0.84862 0.0
H2325 H 0.41203 0.06564 0.81251 0.0
H2326 H 0.43306 0.06275 0.79178 0.0
H2327 H 0.52531 0.12839 0.80421 0.0
H2328 H 0.50475 0.13217 0.82498 0.0
H2329 H 0.4132 0.99968 0.88064 0.0
H2330 H 0.40562 0.02701 0.86316 0.0
H2331 H 0.49576 0.10691 0.87007 0.0
H2332 H 0.50352 0.07938 0.88794 0.0
H2333 H 0.47365 0.08424 0.84181 0.0
H2334 H 0.44537 0.11877 0.88006 0.0
H2335 H 0.41895 0.11053 0.90066 0.0
H2336 H 0.3311 0.04962 0.88326 0.0
H2337 H 0.35683 0.05741 0.86256 0.0
C2338 C 0.40618 0.14258 0.80513 0.0
C2339 C 0.37435 0.12202 0.80292 0.0
C2340 C 0.42124 0.13814 0.81558 0.0
C2341 C 0.4046 0.11344 0.82412 0.0
C2342 C 0.37249 0.0942 0.82225 0.0
C2343 C 0.35771 0.09826 0.81178 0.0
C2344 C 0.42004 0.10646 0.83484 0.0
C2345 C 0.40784 0.10344 0.84708 0.0
C2346 C 0.44462 0.10002 0.83301 0.0
C2347 C 0.45678 0.09955 0.82025 0.0
C2348 C 0.43673 0.07992 0.81076 0.0
C2349 C 0.44859 0.07797 0.79903 0.0
C2350 C 0.48051 0.09522 0.79672 0.0
C2351 C 0.5006 0.11493 0.80605 0.0
C2352 C 0.48884 0.11706 0.81779 0.0
C2353 C 0.43179 0.02288 0.87837 0.0
C2354 C 0.45893 0.03731 0.88578 0.0
C2355 C 0.42731 0.03855 0.86835 0.0
C2356 C 0.44988 0.06916 0.86534 0.0
C2357 C 0.47794 0.08328 0.87222 0.0
C2358 C 0.48242 0.0675 0.88241 0.0
C2359 C 0.44258 0.08616 0.85545 0.0
C2360 C 0.45592 0.09056 0.84337 0.0
C2361 C 0.41851 0.09318 0.85731 0.0
C2362 C 0.40306 0.08857 0.86977 0.0
C2363 C 0.42045 0.10347 0.88064 0.0
C2364 C 0.40561 0.09891 0.89232 0.0
C2365 C 0.37347 0.07949 0.89327 0.0
C2366 C 0.35602 0.06466 0.88251 0.0
C2367 C 0.37068 0.06921 0.8708 0.0
H2368 H 0.36207 0.07599 0.90233 0.0
H2369 H 0.48968 0.0933 0.7877 0.0
H2370 H 0.92715 0.25906 0.54461 0.0
H2371 H 0.95713 0.26546 0.52518 0.0
H2372 H 0.0324 0.27121 0.54746 0.0
H2373 H 1.0032 0.26608 0.56676 0.0
H2374 H 0.054 0.31954 0.53241 0.0
H2375 H 0.98963 0.20985 0.52722 0.0
H2376 H 0.94059 0.15983 0.52567 0.0
H2377 H 0.91416 0.19297 0.49317 0.0
H2378 H 0.96284 0.2434 0.49464 0.0
H2379 H 0.14841 0.34793 0.47672 0.0
H2380 H 0.1201 0.32255 0.49639 0.0
H2381 H 0.03449 0.30647 0.47929 0.0
H2382 H 0.06197 0.33056 0.45998 0.0
H2383 H 0.02154 0.25869 0.49266 0.0
H2384 H 0.08188 0.37029 0.49978 0.0
H2385 H 0.13001 0.42111 0.50162 0.0
H2386 H 0.16296 0.38465 0.53076 0.0
H2387 H 0.11517 0.33348 0.52897 0.0
C2388 C 0.94965 0.26066 0.54529 0.0
C2389 C 0.96276 0.26192 0.55719 0.0
C2390 C 0.96693 0.26452 0.53419 0.0
C2391 C 0.99741 0.26928 0.53481 0.0
C2392 C 1.00935 0.26823 0.54669 0.0
C2393 C 0.99241 0.26488 0.55772 0.0
C2394 C 1.01804 0.27823 0.52338 0.0
C2395 C 0.04704 0.30586 0.5238 0.0
C2396 C 1.0091 0.26082 0.51203 0.0
C2397 C 0.97979 0.23053 0.51111 0.0
C2398 C 0.97325 0.20658 0.5198 0.0
C2399 C 0.94553 0.17813 0.51893 0.0
C2400 C 0.92424 0.17325 0.50934 0.0
C2401 C 0.93066 0.1968 0.5006 0.0
C2402 C 0.95833 0.22531 0.50144 0.0
C2403 C 0.12352 0.33851 0.47717 0.0
C2404 C 0.10761 0.3417 0.46682 0.0
C2405 C 0.10731 0.32418 0.48843 0.0
C2406 C 0.07499 0.31287 0.48949 0.0
C2407 C 0.05923 0.31486 0.47888 0.0
C2408 C 0.07521 0.32899 0.46779 0.0
C2409 C 0.05717 0.3004 0.5016 0.0
C2410 C 0.02866 0.27212 0.50134 0.0
C2411 C 0.06644 0.3173 0.51309 0.0
C2412 C 0.09521 0.34796 0.5141 0.0
C2413 C 0.09953 0.37305 0.5065 0.0
C2414 C 0.12672 0.40192 0.50754 0.0
C2415 C 0.14959 0.40607 0.51626 0.0
C2416 C 0.14528 0.38137 0.52398 0.0
C2417 C 0.11816 0.35243 0.52295 0.0
H2418 H 0.17061 0.42844 0.51706 0.0
H2419 H 0.9028 0.1512 0.50868 0.0
H2420 H 0.6673 0.75213 0.4797 0.0
H2421 H 0.69355 0.74467 0.49778 0.0
H2422 H 0.78195 0.81541 0.48326 0.0
H2423 H 0.7555 0.8242 0.46543 0.0
H2424 H 0.77453 0.75201 0.48898 0.0
H2425 H 0.76717 0.83517 0.50809 0.0
H2426 H 0.74213 0.86476 0.51514 0.0
H2427 H 0.67899 0.78787 0.53829 0.0
H2428 H 0.70349 0.7577 0.53129 0.0
H2429 H 0.82984 0.756 0.55935 0.0
H2430 H 0.81715 0.77837 0.54131 0.0
H2431 H 0.76377 0.68708 0.52484 0.0
H2432 H 0.7762 0.66444 0.54298 0.0
H2433 H 0.76096 0.76825 0.53425 0.0
H2434 H 0.76468 0.69519 0.49204 0.0
H2435 H 0.79444 0.6703 0.485 0.0
H2436 H 0.87177 0.73356 0.50789 0.0
H2437 H 0.84268 0.75912 0.51492 0.0
C2438 C 0.69226 0.76684 0.48054 0.0
C2439 C 0.70921 0.78877 0.47107 0.0
C2440 C 0.70728 0.76237 0.49086 0.0
C2441 C 0.73979 0.77921 0.49187 0.0
C2442 C 0.75684 0.80201 0.48269 0.0
C2443 C 0.74165 0.80714 0.4725 0.0
C2444 C 0.75555 0.77127 0.50209 0.0
C2445 C 0.77166 0.75565 0.49888 0.0
C2446 C 0.75224 0.7763 0.51503 0.0
C2447 C 0.73695 0.79404 0.51905 0.0
C2448 C 0.7477 0.82442 0.51457 0.0
C2449 C 0.73368 0.84135 0.51859 0.0
C2450 C 0.7089 0.82816 0.52712 0.0
C2451 C 0.69815 0.79804 0.53166 0.0
C2452 C 0.71213 0.78103 0.52769 0.0
C2453 C 0.81587 0.74065 0.55179 0.0
C2454 C 0.80409 0.7083 0.55267 0.0
C2455 C 0.80843 0.75353 0.54148 0.0
C2456 C 0.7894 0.73456 0.53163 0.0
C2457 C 0.77868 0.70239 0.53221 0.0
C2458 C 0.78586 0.68942 0.54261 0.0
C2459 C 0.77934 0.74817 0.52119 0.0
C2460 C 0.76403 0.76467 0.52436 0.0
C2461 C 0.78371 0.74421 0.50822 0.0
C2462 C 0.80133 0.72884 0.50411 0.0
C2463 C 0.78805 0.70383 0.49555 0.0
C2464 C 0.80481 0.68961 0.49156 0.0
C2465 C 0.83494 0.70028 0.49602 0.0
C2466 C 0.84839 0.72523 0.50448 0.0
C2467 C 0.83174 0.73955 0.5085 0.0
H2468 H 0.84789 0.68927 0.49291 0.0
H2469 H 0.69809 0.8413 0.53023 0.0
H2470 H 0.30512 0.93593 0.48224 0.0
H2471 H 0.31017 0.96923 0.5002 0.0
H2472 H 0.24697 0.9931 0.48232 0.0
H2473 H 0.24111 0.95878 0.46442 0.0
H2474 H 0.30412 0.04562 0.48971 0.0
H2475 H 0.22352 0.95385 0.50856 0.0
H2476 H 0.19564 0.89905 0.51543 0.0
H2477 H 0.27212 0.9159 0.53944 0.0
H2478 H 0.30067 0.97073 0.53259 0.0
H2479 H 0.31185 0.10325 0.56031 0.0
H2480 H 0.28392 0.06866 0.54242 0.0
H2481 H 0.37137 0.09377 0.52458 0.0
H2482 H 0.39913 0.12729 0.54254 0.0
H2483 H 0.29004 0.01663 0.53507 0.0
H2484 H 0.36035 0.09251 0.49226 0.0
H2485 H 0.38523 0.14726 0.48536 0.0
H2486 H 0.32373 0.16196 0.50918 0.0
H2487 H 0.29829 0.10724 0.51614 0.0
C2488 C 0.29137 0.94735 0.48234 0.0
C2489 C 0.27225 0.9442 0.472 0.0
C2490 C 0.29443 0.96659 0.49261 0.0
C2491 C 0.27901 0.98384 0.49269 0.0
C2492 C 0.25906 0.98001 0.48254 0.0
C2493 C 0.25541 0.96008 0.47236 0.0
C2494 C 0.28601 1.00752 0.50289 0.0
C2495 C 0.30079 0.03921 0.49962 0.0
C2496 C 0.28131 0.99939 0.51587 0.0
C2497 C 0.26435 0.96637 0.51997 0.0
C2498 C 0.23454 0.94581 0.51521 0.0
C2499 C 0.21859 0.91475 0.51912 0.0
C2500 C 0.23216 0.90397 0.52782 0.0
C2501 C 0.26167 0.92427 0.53268 0.0
C2502 C 0.27773 0.95536 0.5288 0.0
C2503 C 0.32505 0.1021 0.55239 0.0
C2504 C 0.35775 0.11836 0.55278 0.0
C2505 C 0.30907 0.08205 0.54222 0.0
C2506 C 0.32546 0.07852 0.53207 0.0
C2507 C 0.35808 0.09617 0.53217 0.0
C2508 C 0.37396 0.11551 0.54244 0.0
C2509 C 0.30915 0.05472 0.52189 0.0
C2510 C 0.29292 0.02302 0.52516 0.0
C2511 C 0.31233 0.06283 0.50891 0.0
C2512 C 0.32761 0.09582 0.50481 0.0
C2513 C 0.35209 0.1074 0.49601 0.0
C2514 C 0.36632 0.13844 0.4921 0.0
C2515 C 0.35618 0.15811 0.49688 0.0
C2516 C 0.33171 0.14675 0.50556 0.0
C2517 C 0.31743 0.11574 0.50951 0.0
H2518 H 0.36721 0.18212 0.49384 0.0
H2519 H 0.21976 0.87992 0.53085 0.0
H2520 H 0.51297 0.46545 0.10861 0.0
H2521 H 0.50052 0.41119 0.10751 0.0
H2522 H 0.59692 0.44121 0.10032 0.0
H2523 H 0.60942 0.49544 0.10112 0.0
H2524 H 0.56278 0.39622 0.0848 0.0
H2525 H 0.55986 0.40953 0.12954 0.0
H2526 H 0.54351 0.42341 0.14934 0.0
H2527 H 0.44857 0.35454 0.14188 0.0
H2528 H 0.46431 0.34052 0.12194 0.0
H2529 H 0.55127 0.24821 0.09289 0.0
H2530 H 0.56441 0.30246 0.09538 0.0
H2531 H 0.46765 0.27295 0.10114 0.0
H2532 H 0.4543 0.21868 0.09862 0.0
H2533 H 0.50219 0.31758 0.11758 0.0
H2534 H 0.50544 0.30483 0.0727 0.0
H2535 H 0.52211 0.29095 0.05298 0.0
H2536 H 0.61706 0.35905 0.06088 0.0
H2537 H 0.601 0.37305 0.08075 0.0
C2538 C 0.53163 0.4606 0.10693 0.0
C2539 C 0.56227 0.48508 0.10499 0.0
C2540 C 0.52447 0.42941 0.10633 0.0
C2541 C 0.54777 0.4218 0.10394 0.0
C2542 C 0.57841 0.44623 0.10215 0.0
C2543 C 0.58557 0.47738 0.10267 0.0
C2544 C 0.54019 0.38854 0.10288 0.0
C2545 C 0.54993 0.3792 0.09208 0.0
C2546 C 0.52275 0.36586 0.11219 0.0
C2547 C 0.51323 0.37419 0.12419 0.0
C2548 C 0.53546 0.3975 0.13207 0.0
C2549 C 0.52631 0.40537 0.14333 0.0
C2550 C 0.49501 0.38993 0.14685 0.0
C2551 C 0.4728 0.36652 0.13913 0.0
C2552 C 0.48183 0.35858 0.12786 0.0
C2553 C 0.53269 0.25319 0.09458 0.0
C2554 C 0.50165 0.22881 0.0955 0.0
C2555 C 0.54028 0.28435 0.09602 0.0
C2556 C 0.51703 0.29207 0.09831 0.0
C2557 C 0.4861 0.26778 0.09941 0.0
C2558 C 0.47849 0.23663 0.098 0.0
C2559 C 0.52486 0.32536 0.09952 0.0
C2560 C 0.51511 0.33466 0.11033 0.0
C2561 C 0.54236 0.34805 0.09024 0.0
C2562 C 0.55205 0.33977 0.07827 0.0
C2563 C 0.5299 0.31668 0.07028 0.0
C2564 C 0.53923 0.30882 0.05907 0.0
C2565 C 0.57063 0.32405 0.0557 0.0
C2566 C 0.59275 0.34724 0.06351 0.0
C2567 C 0.58355 0.35517 0.07474 0.0
H2568 H 0.57781 0.31793 0.04701 0.0
H2569 H 0.48797 0.39605 0.15557 0.0
H2570 H 0.59974 0.0781 0.11117 0.0
H2571 H 0.65349 0.12082 0.11035 0.0
H2572 H 0.62178 0.1843 0.09992 0.0
H2573 H 0.56796 0.14166 0.10056 0.0
H2574 H 0.66875 0.19317 0.08511 0.0
H2575 H 0.65114 0.18539 0.12972 0.0
H2576 H 0.63551 0.15915 0.1504 0.0
H2577 H 0.70577 0.13317 0.14742 0.0
H2578 H 0.72155 0.1589 0.12663 0.0
H2579 H 0.81785 0.33072 0.0922 0.0
H2580 H 0.76295 0.29081 0.09414 0.0
H2581 H 0.78936 0.22337 0.1048 0.0
H2582 H 0.84407 0.26291 0.10281 0.0
H2583 H 0.74441 0.21816 0.1199 0.0
H2584 H 0.76069 0.22427 0.07499 0.0
H2585 H 0.77624 0.25031 0.05426 0.0
H2586 H 0.70837 0.27936 0.05785 0.0
H2587 H 0.6927 0.25383 0.07868 0.0
C2588 C 0.60407 0.10119 0.10885 0.0
C2589 C 0.57925 0.10625 0.10598 0.0
C2590 C 0.63496 0.12572 0.1084 0.0
C2591 C 0.64192 0.15603 0.10515 0.0
C2592 C 0.61718 0.16122 0.10244 0.0
C2593 C 0.58629 0.13673 0.10289 0.0
C2594 C 0.67495 0.18201 0.10416 0.0
C2595 C 0.68513 0.19892 0.09281 0.0
C2596 C 0.69673 0.18929 0.11405 0.0
C2597 C 0.68733 0.17383 0.12656 0.0
C2598 C 0.66309 0.17387 0.13343 0.0
C2599 C 0.65424 0.15912 0.14518 0.0
C2600 C 0.66958 0.14443 0.15021 0.0
C2601 C 0.69388 0.14453 0.1435 0.0
C2602 C 0.70281 0.15921 0.13174 0.0
C2603 C 0.81202 0.30733 0.09482 0.0
C2604 C 0.83564 0.30025 0.09738 0.0
C2605 C 0.78051 0.28446 0.09596 0.0
C2606 C 0.77177 0.25384 0.09957 0.0
C2607 C 0.7953 0.24675 0.10209 0.0
C2608 C 0.82672 0.26954 0.10097 0.0
C2609 C 0.73826 0.22917 0.10083 0.0
C2610 C 0.72799 0.21249 0.11223 0.0
C2611 C 0.71641 0.2221 0.09098 0.0
C2612 C 0.72576 0.23743 0.07845 0.0
C2613 C 0.74926 0.23643 0.0714 0.0
C2614 C 0.75806 0.25106 0.05963 0.0
C2615 C 0.74337 0.26656 0.05476 0.0
C2616 C 0.71977 0.26739 0.06164 0.0
C2617 C 0.71091 0.25283 0.07343 0.0
H2618 H 0.75021 0.27786 0.04564 0.0
H2619 H 0.66269 0.13304 0.15931 0.0
H2620 H 0.80382 0.61104 0.1013 0.0
H2621 H 0.84365 0.59639 0.10423 0.0
H2622 H 0.77699 0.50132 0.09487 0.0
H2623 H 0.73676 0.51562 0.09227 0.0
H2624 H 0.81207 0.50266 0.11433 0.0
H2625 H 0.83213 0.54977 0.07345 0.0
H2626 H 0.84202 0.59051 0.05781 0.0
H2627 H 0.92508 0.65484 0.07759 0.0
H2628 H 0.91545 0.61458 0.09346 0.0
H2629 H 0.92351 0.45352 0.10195 0.0
H2630 H 0.88163 0.46592 0.10095 0.0
H2631 H 0.94651 0.56126 0.11068 0.0
H2632 H 0.98845 0.54917 0.11163 0.0
H2633 H 0.91176 0.55899 0.09098 0.0
H2634 H 0.89138 0.51098 0.13186 0.0
H2635 H 0.88127 0.46955 0.14719 0.0
H2636 H 0.79864 0.40602 0.12697 0.0
H2637 H 0.80848 0.44698 0.11142 0.0
C2638 C 0.79744 0.58692 0.09999 0.0
C2639 C 0.7669 0.5646 0.09648 0.0
C2640 C 0.82042 0.57859 0.10155 0.0
C2641 C 0.81362 0.54774 0.09962 0.0
C2642 C 0.78302 0.52529 0.09638 0.0
C2643 C 0.76003 0.53361 0.09478 0.0
C2644 C 0.83843 0.53901 0.10086 0.0
C2645 C 0.83369 0.51475 0.10909 0.0
C2646 C 0.86702 0.55498 0.09423 0.0
C2647 C 0.87289 0.57926 0.08472 0.0
C2648 C 0.85237 0.57268 0.07452 0.0
C2649 C 0.85795 0.59568 0.06561 0.0
C2650 C 0.88411 0.62528 0.06672 0.0
C2651 C 0.90479 0.63192 0.07675 0.0
C2652 C 0.8993 0.60902 0.0857 0.0
C2653 C 0.92886 0.47706 0.10405 0.0
C2654 C 0.95956 0.50026 0.10691 0.0
C2655 C 0.90478 0.48413 0.10349 0.0
C2656 C 0.9107 0.51458 0.10577 0.0
C2657 C 0.94119 0.53762 0.10884 0.0
C2658 C 0.96522 0.53056 0.10945 0.0
C2659 C 0.88553 0.5228 0.10452 0.0
C2660 C 0.89017 0.54693 0.09625 0.0
C2661 C 0.85684 0.50661 0.11106 0.0
C2662 C 0.85084 0.48196 0.1204 0.0
C2663 C 0.87119 0.4881 0.13063 0.0
C2664 C 0.86548 0.46472 0.13937 0.0
C2665 C 0.83937 0.43515 0.13803 0.0
C2666 C 0.81887 0.42893 0.12798 0.0
C2667 C 0.82449 0.45223 0.11921 0.0
H2668 H 0.83499 0.41708 0.14481 0.0
H2669 H 0.8884 0.64304 0.05981 0.0
H2670 H 0.50097 0.6122 0.92013 0.0
H2671 H 0.44735 0.60161 0.92098 0.0
H2672 H 0.41407 0.50419 0.9143 0.0
H2673 H 0.46753 0.51475 0.913 0.0
H2674 H 0.37922 0.51965 0.90182 0.0
H2675 H 0.41595 0.53658 0.9448 0.0
H2676 H 0.45151 0.5659 0.96226 0.0
H2677 H 0.4324 0.64048 0.9568 0.0
H2678 H 0.397 0.61174 0.9392 0.0
H2679 H 0.22468 0.45517 0.92394 0.0
H2680 H 0.27941 0.47069 0.92163 0.0
H2681 H 0.30486 0.56702 0.92572 0.0
H2682 H 0.24999 0.55157 0.92845 0.0
H2683 H 0.34402 0.55494 0.93895 0.0
H2684 H 0.3048 0.53601 0.89661 0.0
H2685 H 0.26903 0.50599 0.87932 0.0
H2686 H 0.29256 0.43421 0.88382 0.0
H2687 H 0.32817 0.46361 0.90125 0.0
C2688 C 0.48228 0.58854 0.91873 0.0
C2689 C 0.48879 0.56436 0.91653 0.0
C2690 C 0.45148 0.58245 0.91932 0.0
C2691 C 0.42633 0.55192 0.91798 0.0
C2692 C 0.43284 0.52794 0.91541 0.0
C2693 C 0.46359 0.53405 0.91467 0.0
C2694 C 0.39331 0.54474 0.91942 0.0
C2695 C 0.37155 0.52711 0.91003 0.0
C2696 C 0.38307 0.55499 0.92995 0.0
C2697 C 0.40408 0.57215 0.94061 0.0
C2698 C 0.41948 0.55931 0.94728 0.0
C2699 C 0.43958 0.57581 0.95721 0.0
C2700 C 0.44427 0.60507 0.96062 0.0
C2701 C 0.42878 0.61783 0.95414 0.0
C2702 C 0.40867 0.60144 0.9442 0.0
C2703 C 0.24184 0.47967 0.92452 0.0
C2704 C 0.23265 0.50205 0.92642 0.0
C2705 C 0.27325 0.48857 0.92304 0.0
C2706 C 0.29646 0.52012 0.92331 0.0
C2707 C 0.28749 0.54253 0.9254 0.0
C2708 C 0.256 0.53365 0.92687 0.0
C2709 C 0.32996 0.52955 0.92143 0.0
C2710 C 0.35177 0.5476 0.93073 0.0
C2711 C 0.34022 0.51956 0.91084 0.0
C2712 C 0.31896 0.5019 0.90031 0.0
C2713 C 0.30218 0.51372 0.89397 0.0
C2714 C 0.28196 0.49683 0.88414 0.0
C2715 C 0.27847 0.46818 0.88049 0.0
C2716 C 0.29526 0.45639 0.88666 0.0
C2717 C 0.31549 0.47318 0.89651 0.0
H2718 H 0.2628 0.45513 0.87288 0.0
H2719 H 0.45986 0.61782 0.9683 0.0
H2720 H 0.46593 0.92271 0.92078 0.0
H2721 H 0.47964 0.88193 0.92194 0.0
H2722 H 0.57489 0.94893 0.91312 0.0
H2723 H 0.56125 0.98993 0.91171 0.0
H2724 H 0.55793 0.8953 0.90109 0.0
H2725 H 0.55082 0.92398 0.94376 0.0
H2726 H 0.52556 0.93377 0.96185 0.0
H2727 H 0.45172 0.83865 0.96094 0.0
H2728 H 0.47627 0.8284 0.94269 0.0
H2729 H 0.6227 0.80274 0.92179 0.0
H2730 H 0.6095 0.84368 0.91887 0.0
H2731 H 0.51427 0.77905 0.92877 0.0
H2732 H 0.52735 0.73808 0.93177 0.0
H2733 H 0.53195 0.83216 0.94022 0.0
H2734 H 0.5386 0.80334 0.89752 0.0
H2735 H 0.56321 0.79349 0.87921 0.0
H2736 H 0.63746 0.88845 0.88007 0.0
H2737 H 0.61349 0.89876 0.8985 0.0
C2738 C 0.4898 0.92888 0.91899 0.0
C2739 C 0.51248 0.95985 0.91622 0.0
C2740 C 0.49765 0.90544 0.91972 0.0
C2741 C 0.52847 0.9123 0.91787 0.0
C2742 C 0.55097 0.94295 0.91466 0.0
C2743 C 0.54311 0.96644 0.91386 0.0
C2744 C 0.53728 0.88771 0.91957 0.0
C2745 C 0.5526 0.88179 0.90971 0.0
C2746 C 0.52985 0.86949 0.93071 0.0
C2747 C 0.51526 0.8755 0.94179 0.0
C2748 C 0.5291 0.9052 0.94737 0.0
C2749 C 0.51492 0.91083 0.95765 0.0
C2750 C 0.48704 0.88687 0.96253 0.0
C2751 C 0.47331 0.8572 0.95714 0.0
C2752 C 0.48735 0.85146 0.94683 0.0
C2753 C 0.59886 0.7971 0.92322 0.0
C2754 C 0.57612 0.76695 0.92701 0.0
C2755 C 0.59131 0.82061 0.92154 0.0
C2756 C 0.56073 0.81456 0.92344 0.0
C2757 C 0.53803 0.7845 0.92725 0.0
C2758 C 0.54559 0.76103 0.929 0.0
C2759 C 0.55246 0.83955 0.9217 0.0
C2760 C 0.53728 0.84562 0.93158 0.0
C2761 C 0.56 0.85786 0.91057 0.0
C2762 C 0.5744 0.85174 0.89947 0.0
C2763 C 0.56029 0.82206 0.89387 0.0
C2764 C 0.57411 0.8164 0.88346 0.0
C2765 C 0.60192 0.8403 0.8785 0.0
C2766 C 0.61594 0.86994 0.88393 0.0
C2767 C 0.60224 0.87572 0.89435 0.0
H2768 H 0.61258 0.83588 0.87044 0.0
H2769 H 0.4761 0.89129 0.97049 0.0
H2770 H 0.3361 0.81546 0.93474 0.0
H2771 H 0.29638 0.76088 0.93184 0.0
H2772 H 0.23498 0.78916 0.91538 0.0
H2773 H 0.27451 0.84378 0.91837 0.0
H2774 H 0.20342 0.74343 0.93106 0.0
H2775 H 0.27499 0.75995 0.89742 0.0
H2776 H 0.32609 0.77545 0.88796 0.0
H2777 H 0.33271 0.70666 0.91021 0.0
H2778 H 0.28182 0.69101 0.91993 0.0
H2779 H 0.09141 0.59893 0.90579 0.0
H2780 H 0.13413 0.65243 0.90741 0.0
H2781 H 0.19032 0.62053 0.92596 0.0
H2782 H 0.14766 0.56664 0.92424 0.0
H2783 H 0.22501 0.66737 0.90952 0.0
H2784 H 0.15329 0.65079 0.94301 0.0
H2785 H 0.10198 0.63502 0.95231 0.0
H2786 H 0.09569 0.70415 0.93017 0.0
H2787 H 0.14679 0.72004 0.9206 0.0
C2788 C 0.31427 0.81011 0.93038 0.0
C2789 C 0.30866 0.83419 0.92677 0.0
C2790 C 0.2915 0.77878 0.92871 0.0
C2791 C 0.26263 0.77063 0.92322 0.0
C2792 C 0.25695 0.79464 0.91965 0.0
C2793 C 0.27962 0.82597 0.9214 0.0
C2794 C 0.23813 0.7372 0.92142 0.0
C2795 C 0.20813 0.72699 0.92618 0.0
C2796 C 0.2442 0.71525 0.91536 0.0
C2797 C 0.27474 0.72453 0.90949 0.0
C2798 C 0.28745 0.74828 0.90037 0.0
C2799 C 0.31636 0.75707 0.89495 0.0
C2800 C 0.33267 0.74211 0.89851 0.0
C2801 C 0.32007 0.71826 0.90747 0.0
C2802 C 0.29118 0.7094 0.91293 0.0
C2803 C 0.11291 0.6031 0.91011 0.0
C2804 C 0.11585 0.57826 0.91496 0.0
C2805 C 0.13735 0.63387 0.91109 0.0
C2806 C 0.16536 0.64075 0.91703 0.0
C2807 C 0.16893 0.61594 0.92139 0.0
C2808 C 0.14445 0.58506 0.9204 0.0
C2809 C 0.19035 0.67383 0.91905 0.0
C2810 C 0.22039 0.6839 0.91438 0.0
C2811 C 0.18435 0.69572 0.92518 0.0
C2812 C 0.15374 0.68641 0.931 0.0
C2813 C 0.14087 0.66248 0.94006 0.0
C2814 C 0.11184 0.65354 0.94539 0.0
C2815 C 0.09555 0.66852 0.94181 0.0
C2816 C 0.10832 0.69254 0.93292 0.0
C2817 C 0.13732 0.70154 0.92755 0.0
H2818 H 0.07308 0.66156 0.94594 0.0
H2819 H 0.35505 0.74895 0.8943 0.0
H2820 H 0.18482 0.79562 0.44642 0.0
H2821 H 0.17411 0.74207 0.44514 0.0
H2822 H 0.27098 0.775 0.43761 0.0
H2823 H 0.28173 0.82876 0.43849 0.0
H2824 H 0.23825 0.72995 0.42221 0.0
H2825 H 0.23382 0.74096 0.46693 0.0
H2826 H 0.21691 0.75364 0.48687 0.0
H2827 H 0.12236 0.68434 0.47901 0.0
H2828 H 0.13865 0.67152 0.45893 0.0
H2829 H 0.2242 0.57995 0.42869 0.0
H2830 H 0.23841 0.63436 0.43183 0.0
H2831 H 0.14185 0.60651 0.43695 0.0
H2832 H 0.12745 0.55215 0.43377 0.0
H2833 H 0.17643 0.64927 0.45414 0.0
H2834 H 0.18153 0.63985 0.40901 0.0
H2835 H 0.19915 0.62725 0.38923 0.0
H2836 H 0.29382 0.69392 0.39831 0.0
H2837 H 0.27679 0.70663 0.41824 0.0
C2838 C 0.20401 0.79161 0.44466 0.0
C2839 C 0.23423 0.81677 0.44262 0.0
C2840 C 0.19783 0.76078 0.44396 0.0
C2841 C 0.22174 0.75415 0.44142 0.0
C2842 C 0.25202 0.77926 0.43958 0.0
C2843 C 0.25819 0.81012 0.44015 0.0
C2844 C 0.21494 0.72115 0.44018 0.0
C2845 C 0.22519 0.7125 0.42933 0.0
C2846 C 0.1973 0.6979 0.44928 0.0
C2847 C 0.18743 0.70548 0.46137 0.0
C2848 C 0.20939 0.72858 0.46941 0.0
C2849 C 0.19992 0.73577 0.48075 0.0
C2850 C 0.16857 0.71986 0.48419 0.0
C2851 C 0.14663 0.69667 0.47632 0.0
C2852 C 0.15598 0.68941 0.46497 0.0
C2853 C 0.2059 0.58536 0.43037 0.0
C2854 C 0.1746 0.56141 0.43093 0.0
C2855 C 0.21411 0.61659 0.43219 0.0
C2856 C 0.19123 0.62481 0.43451 0.0
C2857 C 0.16003 0.60094 0.43522 0.0
C2858 C 0.15181 0.56973 0.43343 0.0
C2859 C 0.19964 0.65816 0.43617 0.0
C2860 C 0.18966 0.66683 0.44708 0.0
C2861 C 0.21766 0.68146 0.42717 0.0
C2862 C 0.22791 0.67396 0.41517 0.0
C2863 C 0.20612 0.65166 0.40683 0.0
C2864 C 0.216 0.64452 0.39558 0.0
C2865 C 0.24759 0.65971 0.39253 0.0
C2866 C 0.26936 0.68214 0.4007 0.0
C2867 C 0.25961 0.68934 0.41196 0.0
H2868 H 0.25519 0.65415 0.38382 0.0
H2869 H 0.16129 0.72546 0.49297 0.0
H2870 H 0.51452 0.59918 0.44127 0.0
H2871 H 0.46027 0.55889 0.44447 0.0
H2872 H 0.43002 0.6166 0.42601 0.0
H2873 H 0.48422 0.65729 0.42302 0.0
H2874 H 0.3951 0.58917 0.44681 0.0
H2875 H 0.42883 0.55585 0.41054 0.0
H2876 H 0.46277 0.54203 0.39853 0.0
H2877 H 0.44342 0.4688 0.4249 0.0
H2878 H 0.40967 0.48247 0.43718 0.0
H2879 H 0.23834 0.47286 0.43399 0.0
H2880 H 0.29248 0.51453 0.43333 0.0
H2881 H 0.32106 0.45299 0.44946 0.0
H2882 H 0.26695 0.4109 0.44988 0.0
H2883 H 0.35722 0.48251 0.43039 0.0
H2884 H 0.32237 0.51502 0.46648 0.0
H2885 H 0.28816 0.52872 0.47836 0.0
H2886 H 0.30928 0.6032 0.45241 0.0
H2887 H 0.34335 0.58972 0.44028 0.0
C2888 C 0.49637 0.60349 0.43799 0.0
C2889 C 0.50391 0.63156 0.43183 0.0
C2890 C 0.46527 0.58026 0.43974 0.0
C2891 C 0.44088 0.58444 0.43536 0.0
C2892 C 0.44831 0.61268 0.42944 0.0
C2893 C 0.4794 0.63586 0.42764 0.0
C2894 C 0.40769 0.55929 0.4368 0.0
C2895 C 0.38675 0.56594 0.4431 0.0
C2896 C 0.39675 0.5287 0.43222 0.0
C2897 C 0.41699 0.52041 0.42485 0.0
C2898 C 0.43202 0.53697 0.41384 0.0
C2899 C 0.45118 0.52913 0.40697 0.0
C2900 C 0.45532 0.50461 0.41097 0.0
C2901 C 0.44023 0.48782 0.42183 0.0
C2902 C 0.42107 0.49559 0.42874 0.0
C2903 C 0.25602 0.4682 0.43757 0.0
C2904 C 0.24804 0.43835 0.44202 0.0
C2905 C 0.28713 0.49221 0.43722 0.0
C2906 C 0.31112 0.48719 0.44144 0.0
C2907 C 0.30314 0.45759 0.44612 0.0
C2908 C 0.27205 0.43351 0.44642 0.0
C2909 C 0.34452 0.51228 0.44045 0.0
C2910 C 0.36553 0.50566 0.43419 0.0
C2911 C 0.35549 0.54287 0.44508 0.0
C2912 C 0.3352 0.55118 0.45241 0.0
C2913 C 0.31956 0.53419 0.46326 0.0
C2914 C 0.30022 0.54194 0.47005 0.0
C2915 C 0.29649 0.56677 0.46613 0.0
C2916 C 0.31217 0.58396 0.45543 0.0
C2917 C 0.33153 0.5763 0.4486 0.0
H2918 H 0.28149 0.57272 0.47139 0.0
H2919 H 0.47016 0.49857 0.40564 0.0
H2920 H 0.66107 0.88739 0.44569 0.0
H2921 H 0.62046 0.90166 0.44477 0.0
H2922 H 0.55426 0.80872 0.43257 0.0
H2923 H 0.59455 0.79437 0.43335 0.0
H2924 H 0.54922 0.84993 0.41829 0.0
H2925 H 0.55372 0.83519 0.46296 0.0
H2926 H 0.57901 0.84388 0.48377 0.0
H2927 H 0.60674 0.94081 0.48195 0.0
H2928 H 0.58195 0.93277 0.46103 0.0
H2929 H 0.40999 0.85541 0.42471 0.0
H2930 H 0.45144 0.84287 0.42704 0.0
H2931 H 0.51338 0.93592 0.44044 0.0
H2932 H 0.47185 0.94854 0.43823 0.0
H2933 H 0.5219 0.89644 0.45404 0.0
H2934 H 0.51741 0.9116 0.40961 0.0
H2935 H 0.49264 0.90354 0.38871 0.0
H2936 H 0.46594 0.80682 0.38988 0.0
H2937 H 0.4902 0.81421 0.41088 0.0
C2938 C 0.63783 0.86986 0.44292 0.0
C2939 C 0.63131 0.83965 0.43962 0.0
C2940 C 0.61451 0.87807 0.44242 0.0
C2941 C 0.58403 0.85627 0.43865 0.0
C2942 C 0.57748 0.82608 0.43548 0.0
C2943 C 0.60068 0.81785 0.43599 0.0
C2944 C 0.55912 0.86493 0.43767 0.0
C2945 C 0.54303 0.85972 0.42618 0.0
C2946 C 0.5514 0.87857 0.44779 0.0
C2947 C 0.56626 0.88344 0.46037 0.0
C2948 C 0.56543 0.85841 0.46695 0.0
C2949 C 0.57963 0.86321 0.47877 0.0
C2950 C 0.59455 0.89289 0.48416 0.0
C2951 C 0.59522 0.91783 0.47775 0.0
C2952 C 0.58107 0.91317 0.46592 0.0
C2953 C 0.43247 0.87334 0.42807 0.0
C2954 C 0.43744 0.90311 0.43119 0.0
C2955 C 0.45628 0.86612 0.4294 0.0
C2956 C 0.48596 0.88854 0.43373 0.0
C2957 C 0.49083 0.91811 0.43708 0.0
C2958 C 0.46694 0.9253 0.43582 0.0
C2959 C 0.51182 0.88118 0.43469 0.0
C2960 C 0.52812 0.88668 0.44615 0.0
C2961 C 0.51986 0.86791 0.42452 0.0
C2962 C 0.50537 0.86341 0.41187 0.0
C2963 C 0.50607 0.88857 0.40545 0.0
C2964 C 0.49214 0.88412 0.39358 0.0
C2965 C 0.47765 0.85467 0.38799 0.0
C2966 C 0.47713 0.82961 0.39424 0.0
C2967 C 0.49099 0.83392 0.40612 0.0
H2968 H 0.46689 0.85127 0.3788 0.0
H2969 H 0.60552 0.89656 0.49332 0.0
H2970 H 0.92093 0.88128 0.25637 0.0
H2971 H 0.97555 0.89612 0.25402 0.0
H2972 H 0.95166 0.80049 0.25915 0.0
H2973 H 0.89715 0.78564 0.26202 0.0
H2974 H 1.00235 0.83663 0.27209 0.0
H2975 H 0.96964 0.83718 0.2295 0.0
H2976 H 0.94673 0.85194 0.21205 0.0
H2977 H 1.01571 0.94806 0.21714 0.0
H2978 H 0.0388 0.9339 0.23474 0.0
H2979 H 0.13952 0.84482 0.24854 0.0
H2980 H 0.08595 0.83404 0.24953 0.0
H2981 H 0.11835 0.93232 0.25152 0.0
H2982 H 0.1724 0.94346 0.25072 0.0
H2983 H 0.06468 0.89724 0.23513 0.0
H2984 H 0.099 0.89569 0.27703 0.0
H2985 H 0.12316 0.88005 0.29359 0.0
H2986 H 0.05068 0.78487 0.28972 0.0
H2987 H 0.02675 0.79978 0.2727 0.0
C2988 C 0.92722 0.86335 0.25711 0.0
C2989 C 0.90429 0.83215 0.25937 0.0
C2990 C 0.95858 0.87188 0.25561 0.0
C2991 C 0.96798 0.84945 0.25623 0.0
C2992 C 0.94521 0.81833 0.25857 0.0
C2993 C 0.91385 0.80979 0.26009 0.0
C2994 C 1.00147 0.85836 0.2546 0.0
C2995 C 1.01575 0.84953 0.26391 0.0
C2996 C 0.01954 0.87593 0.2441 0.0
C2997 C 1.00574 0.88451 0.23352 0.0
C2998 C 0.97977 0.86149 0.22696 0.0
C2999 C 0.96678 0.86974 0.21704 0.0
C3000 C 0.9797 0.90093 0.21352 0.0
C3001 C 1.0057 0.92392 0.2199 0.0
C3002 C 1.01876 0.91579 0.22984 0.0
C3003 C 0.13544 0.8643 0.24901 0.0
C3004 C 0.16052 0.89509 0.24957 0.0
C3005 C 0.10465 0.85802 0.24962 0.0
C3006 C 0.098 0.88231 0.2507 0.0
C3007 C 0.12285 0.91316 0.25069 0.0
C3008 C 0.15378 0.91949 0.25026 0.0
C3009 C 0.06521 0.87519 0.25253 0.0
C3010 C 0.05116 0.88438 0.24329 0.0
C3011 C 0.0473 0.85786 0.26307 0.0
C3012 C 0.06125 0.84883 0.27347 0.0
C3013 C 0.08836 0.87137 0.2796 0.0
C3014 C 0.10202 0.86263 0.28909 0.0
C3015 C 0.08843 0.83149 0.29275 0.0
C3016 C 0.06119 0.80899 0.28688 0.0
C3017 C 0.04762 0.81756 0.27727 0.0
H3018 H 0.09899 0.8248 0.30013 0.0
H3019 H 0.96962 0.90727 0.20582 0.0
H3020 H 0.25475 0.10866 0.24296 0.0
H3021 H 0.23905 0.14797 0.24091 0.0
H3022 H 0.18111 0.11135 0.27394 0.0
H3023 H 0.19669 0.07171 0.27604 0.0
H3024 H 0.1518 0.12514 0.25425 0.0
H3025 H 0.24823 0.17579 0.27679 0.0
H3026 H 0.30341 0.19294 0.28067 0.0
H3027 H 0.32869 0.245 0.24606 0.0
H3028 H 0.27357 0.22777 0.24187 0.0
H3029 H 0.12896 0.25479 0.26419 0.0
H3030 H 0.13958 0.21192 0.26567 0.0
H3031 H 0.21114 0.25545 0.23733 0.0
H3032 H 0.20148 0.29915 0.23622 0.0
H3033 H 0.23252 0.23688 0.25506 0.0
H3034 H 0.13574 0.18627 0.2324 0.0
H3035 H 0.08052 0.16923 0.22863 0.0
H3036 H 0.05546 0.11705 0.26321 0.0
H3037 H 0.11061 0.13412 0.26728 0.0
C3038 C 0.23843 0.10872 0.24974 0.0
C3039 C 0.227 0.08692 0.25967 0.0
C3040 C 0.22961 0.13139 0.24859 0.0
C3041 C 0.209 0.13283 0.2573 0.0
C3042 C 0.19704 0.11077 0.2671 0.0
C3043 C 0.20615 0.08824 0.26834 0.0
C3044 C 0.20062 0.15784 0.2563 0.0
C3045 C 0.16938 0.14959 0.25458 0.0
C3046 C 0.22355 0.18979 0.25646 0.0
C3047 C 0.25673 0.20022 0.25895 0.0
C3048 C 0.26552 0.19067 0.26995 0.0
C3049 C 0.2968 0.20044 0.27222 0.0
C3050 C 0.31954 0.21998 0.2636 0.0
C3051 C 0.31105 0.22983 0.25271 0.0
C3052 C 0.27979 0.22008 0.25039 0.0
C3053 C 0.14667 0.2551 0.25812 0.0
C3054 C 0.16428 0.28051 0.25004 0.0
C3055 C 0.15268 0.23036 0.25895 0.0
C3056 C 0.17596 0.22995 0.25151 0.0
C3057 C 0.19307 0.25501 0.24322 0.0
C3058 C 0.18741 0.28001 0.24253 0.0
C3059 C 0.18361 0.20436 0.2528 0.0
C3060 C 0.21481 0.21248 0.25465 0.0
C3061 C 0.16059 0.17231 0.2527 0.0
C3062 C 0.12737 0.16172 0.2502 0.0
C3063 C 0.11849 0.17132 0.23924 0.0
C3064 C 0.08719 0.16164 0.23704 0.0
C3065 C 0.06451 0.14215 0.24569 0.0
C3066 C 0.07307 0.13219 0.25653 0.0
C3067 C 0.10434 0.14183 0.25878 0.0
H3068 H 0.0403 0.13469 0.24398 0.0
H3069 H 0.34374 0.22754 0.26538 0.0
H3070 H 0.74576 0.92881 0.25601 0.0
H3071 H 0.78781 0.98277 0.2573 0.0
H3072 H 0.85434 0.95394 0.24817 0.0
H3073 H 0.81244 0.8997 0.24759 0.0
H3074 H 0.87929 0.99443 0.26486 0.0
H3075 H 0.82932 0.99505 0.22667 0.0
H3076 H 0.78621 0.98618 0.21255 0.0
H3077 H 0.76814 0.0473 0.23517 0.0
H3078 H 0.81091 0.05622 0.24954 0.0
H3079 H 1.00049 0.15269 0.25197 0.0
H3080 H 0.96078 0.0978 0.24969 0.0
H3081 H 0.89395 0.11557 0.26822 0.0
H3082 H 0.93357 0.16998 0.27105 0.0
H3083 H 0.8713 0.08125 0.24561 0.0
H3084 H 0.92383 0.07859 0.28384 0.0
H3085 H 0.97016 0.08853 0.29606 0.0
H3086 H 0.98708 0.03168 0.27032 0.0
H3087 H 0.94101 0.02169 0.25786 0.0
C3088 C 0.76929 0.93395 0.25413 0.0
C3089 C 0.77554 0.90976 0.2516 0.0
C3090 C 0.79348 0.96503 0.25482 0.0
C3091 C 0.8246 0.97301 0.25261 0.0
C3092 C 0.83077 0.9488 0.24994 0.0
C3093 C 0.80665 0.91765 0.24953 0.0
C3094 C 0.85067 1.00629 0.25348 0.0
C3095 C 0.87755 1.01322 0.26044 0.0
C3096 C 0.84889 0.03136 0.24786 0.0
C3097 C 0.82314 0.02607 0.23925 0.0
C3098 C 0.81601 1.00643 0.22869 0.0
C3099 C 0.79166 1.00142 0.22063 0.0
C3100 C 0.77439 0.0161 0.22298 0.0
C3101 C 0.7815 0.0359 0.23337 0.0
C3102 C 0.80582 0.04097 0.24147 0.0
C3103 C 0.97755 0.14497 0.25579 0.0
C3104 C 0.97053 0.16629 0.26164 0.0
C3105 C 0.95472 0.11346 0.25438 0.0
C3106 C 0.92419 0.10242 0.25872 0.0
C3107 C 0.91717 0.12347 0.26466 0.0
C3108 C 0.94 0.1548 0.26621 0.0
C3109 C 0.89939 0.06908 0.25704 0.0
C3110 C 0.87286 0.06226 0.24993 0.0
C3111 C 0.90184 0.04411 0.26224 0.0
C3112 C 0.92915 0.04963 0.26986 0.0
C3113 C 0.93754 0.06836 0.28075 0.0
C3114 C 0.96373 0.07398 0.28772 0.0
C3115 C 0.9816 0.06081 0.28395 0.0
C3116 C 0.97323 0.04189 0.27322 0.0
C3117 C 0.94706 0.03621 0.26621 0.0
H3118 H 1.0019 0.06523 0.28935 0.0
H3119 H 0.75555 1.0122 0.21673 0.0
H3120 H 0.88257 0.91033 0.75468 0.0
H3121 H 0.89663 0.96477 0.75753 0.0
H3122 H 0.80676 0.93551 0.77399 0.0
H3123 H 0.79229 0.88098 0.77092 0.0
H3124 H 0.8222 0.98196 0.75711 0.0
H3125 H 0.87228 0.96388 0.79232 0.0
H3126 H 0.90651 0.94781 0.80265 0.0
H3127 H 0.98469 0.01748 0.78189 0.0
H3128 H 0.95083 0.03368 0.77131 0.0
H3129 H 0.85139 0.12656 0.78136 0.0
H3130 H 0.84015 0.07282 0.77993 0.0
H3131 H 0.93177 0.10429 0.76485 0.0
H3132 H 0.94345 0.15834 0.76642 0.0
H3133 H 0.91628 0.05698 0.78082 0.0
H3134 H 0.86783 0.07531 0.74555 0.0
H3135 H 0.83462 0.09175 0.73461 0.0
H3136 H 0.75464 0.02192 0.75443 0.0
H3137 H 0.78748 1.00541 0.76568 0.0
C3138 C 0.86568 0.91541 0.75884 0.0
C3139 C 0.83625 0.89108 0.76257 0.0
C3140 C 0.87389 0.94665 0.76058 0.0
C3141 C 0.85291 0.95444 0.7661 0.0
C3142 C 0.82345 0.93023 0.76975 0.0
C3143 C 0.81528 0.89898 0.76808 0.0
C3144 C 0.86146 0.98774 0.7679 0.0
C3145 C 0.84253 0.99821 0.76246 0.0
C3146 C 0.88852 1.00939 0.77453 0.0
C3147 C 0.90895 0.99978 0.78093 0.0
C3148 C 0.89672 0.97561 0.78989 0.0
C3149 C 0.91607 0.96651 0.7958 0.0
C3150 C 0.94774 0.98156 0.7929 0.0
C3151 C 0.96015 1.00581 0.78411 0.0
C3152 C 0.94089 0.01498 0.77816 0.0
C3153 C 0.86937 0.12222 0.77785 0.0
C3154 C 0.89833 0.14701 0.77395 0.0
C3155 C 0.86279 0.09131 0.77697 0.0
C3156 C 0.88484 0.08425 0.77204 0.0
C3157 C 0.91425 0.10899 0.76862 0.0
C3158 C 0.9209 0.13998 0.76954 0.0
C3159 C 0.87685 0.05112 0.77013 0.0
C3160 C 0.89591 0.04071 0.7755 0.0
C3161 C 0.85004 0.02955 0.76333 0.0
C3162 C 0.83018 0.03933 0.75655 0.0
C3163 C 0.8432 0.06362 0.74765 0.0
C3164 C 0.82444 0.07292 0.74138 0.0
C3165 C 0.79256 0.05793 0.74383 0.0
C3166 C 0.77936 0.03355 0.75255 0.0
C3167 C 0.79803 0.0242 0.75888 0.0
H3168 H 0.77808 0.06516 0.73896 0.0
H3169 H 0.96268 0.97448 0.79749 0.0
H3170 H 0.15316 0.99307 0.75754 0.0
H3171 H 0.09905 0.95235 0.76059 0.0
H3172 H 0.12911 0.88738 0.7707 0.0
H3173 H 0.18329 0.92781 0.76737 0.0
H3174 H 0.0801 0.86073 0.75477 0.0
H3175 H 0.10428 0.92035 0.79316 0.0
H3176 H 0.1225 0.96794 0.80593 0.0
H3177 H 0.05104 0.98221 0.79009 0.0
H3178 H 0.03266 0.93493 0.77708 0.0
H3179 H 0.93682 0.74173 0.77942 0.0
H3180 H 0.99097 0.78342 0.77787 0.0
H3181 H 0.96088 0.84831 0.7677 0.0
H3182 H 0.90663 0.80683 0.76928 0.0
H3183 H 1.00977 0.87513 0.78377 0.0
H3184 H 0.98561 0.81756 0.74536 0.0
H3185 H 0.96644 0.77074 0.73206 0.0
H3186 H 0.03709 0.75388 0.74692 0.0
H3187 H 0.0563 0.80031 0.76053 0.0
C3188 C 0.14834 0.97008 0.76033 0.0
C3189 C 0.17282 0.9639 0.76222 0.0
C3190 C 0.11728 0.94682 0.7622 0.0
C3191 C 0.10979 0.91671 0.76602 0.0
C3192 C 0.13414 0.91037 0.7678 0.0
C3193 C 0.16522 0.93366 0.76599 0.0
C3194 C 0.07665 0.89179 0.76804 0.0
C3195 C 0.06491 0.86375 0.76127 0.0
C3196 C 0.05632 0.89586 0.77622 0.0
C3197 C 0.0673 0.92426 0.78405 0.0
C3198 C 0.09261 0.93377 0.79232 0.0
C3199 C 0.10294 0.96067 0.79961 0.0
C3200 C 0.08799 0.97813 0.79879 0.0
C3201 C 0.06263 0.96869 0.7907 0.0
C3202 C 0.05223 0.94183 0.78337 0.0
C3203 C 0.9416 0.76491 0.777 0.0
C3204 C 0.91711 0.7707 0.77444 0.0
C3205 C 0.9727 0.78877 0.77603 0.0
C3206 C 0.9802 0.81906 0.77249 0.0
C3207 C 0.95583 0.8252 0.77041 0.0
C3208 C 0.92472 0.80133 0.77131 0.0
C3209 C 1.01334 0.84403 0.77057 0.0
C3210 C 0.02502 0.87208 0.77732 0.0
C3211 C 0.03355 0.8401 0.76228 0.0
C3212 C 0.02218 0.81223 0.75407 0.0
C3213 C 0.9969 0.80372 0.74588 0.0
C3214 C 0.98605 0.77728 0.73826 0.0
C3215 C 1.00051 0.75932 0.73865 0.0
C3216 C 0.02588 0.7678 0.74664 0.0
C3217 C 0.03676 0.79417 0.75432 0.0
H3218 H 0.99209 0.73887 0.73273 0.0
H3219 H 0.09602 0.99894 0.80445 0.0
H3220 H 0.32184 0.21794 0.77187 0.0
H3221 H 0.2792 0.22889 0.7709 0.0
H3222 H 0.21303 0.1305 0.77246 0.0
H3223 H 0.25581 0.11939 0.77278 0.0
H3224 H 0.19295 0.15357 0.75635 0.0
H3225 H 0.22961 0.18484 0.79847 0.0
H3226 H 0.26792 0.21248 0.81533 0.0
H3227 H 0.28953 0.3003 0.79906 0.0
H3228 H 0.25162 0.27319 0.78201 0.0
H3229 H 0.06399 0.17785 0.76775 0.0
H3230 H 0.10443 0.16379 0.77015 0.0
H3231 H 0.17474 0.25855 0.76235 0.0
H3232 H 0.13458 0.2727 0.75966 0.0
H3233 H 0.19066 0.23531 0.78255 0.0
H3234 H 0.15321 0.20146 0.74006 0.0
H3235 H 0.11307 0.17207 0.72401 0.0
H3236 H 0.0905 0.08627 0.7425 0.0
H3237 H 0.13024 0.1152 0.75875 0.0
C3238 C 0.29822 0.19858 0.77216 0.0
C3239 C 0.29238 0.16775 0.7725 0.0
C3240 C 0.2737 0.2049 0.77165 0.0
C3241 C 0.24255 0.18063 0.77184 0.0
C3242 C 0.23669 0.14978 0.77231 0.0
C3243 C 0.26125 0.14342 0.77256 0.0
C3244 C 0.21624 0.18737 0.77111 0.0
C3245 C 0.1923 0.1711 0.76227 0.0
C3246 C 0.21521 0.21057 0.77863 0.0
C3247 C 0.23796 0.22696 0.7889 0.0
C3248 C 0.24267 0.21005 0.79844 0.0
C3249 C 0.2643 0.22562 0.80804 0.0
C3250 C 0.2812 0.25812 0.80825 0.0
C3251 C 0.27645 0.27513 0.79888 0.0
C3252 C 0.25486 0.25967 0.78925 0.0
C3253 C 0.088 0.1957 0.76639 0.0
C3254 C 0.09577 0.22651 0.7635 0.0
C3255 C 0.11119 0.1876 0.76782 0.0
C3256 C 0.14277 0.21004 0.76637 0.0
C3257 C 0.15062 0.24079 0.76358 0.0
C3258 C 0.1275 0.24888 0.7621 0.0
C3259 C 0.16772 0.20166 0.76778 0.0
C3260 C 0.19135 0.21766 0.77673 0.0
C3261 C 0.1682 0.17791 0.76051 0.0
C3262 C 0.14448 0.16052 0.75069 0.0
C3263 C 0.13953 0.17634 0.74075 0.0
C3264 C 0.11688 0.15977 0.73161 0.0
C3265 C 0.09919 0.12733 0.73225 0.0
C3266 C 0.10418 0.1114 0.74202 0.0
C3267 C 0.12678 0.12787 0.75119 0.0
H3268 H 0.08166 0.11454 0.72517 0.0
H3269 H 0.29794 0.27013 0.81569 0.0
H3270 H 0.56114 0.14209 0.57672 0.0
H3271 H 0.61586 0.15754 0.57394 0.0
H3272 H 0.64095 0.22368 0.60435 0.0
H3273 H 0.58628 0.20887 0.60699 0.0
H3274 H 0.68257 0.24824 0.58503 0.0
H3275 H 0.63641 0.15419 0.60934 0.0
H3276 H 0.59814 0.09953 0.6142 0.0
H3277 H 0.62352 0.0699 0.58033 0.0
H3278 H 0.66166 0.12447 0.57517 0.0
H3279 H 0.83352 0.27004 0.59708 0.0
H3280 H 0.78013 0.25973 0.598 0.0
H3281 H 0.75295 0.18694 0.57023 0.0
H3282 H 0.80618 0.19632 0.56967 0.0
H3283 H 0.71229 0.16672 0.58801 0.0
H3284 H 0.76049 0.26205 0.56413 0.0
H3285 H 0.80061 0.31673 0.56037 0.0
H3286 H 0.77251 0.34452 0.594 0.0
H3287 H 0.7325 0.28991 0.59808 0.0
C3288 C 0.57828 0.16021 0.58272 0.0
C3289 C 0.5691 0.17406 0.59214 0.0
C3290 C 0.60963 0.16888 0.58118 0.0
C3291 C 0.63266 0.19157 0.58903 0.0
C3292 C 0.62371 0.20606 0.5982 0.0
C3293 C 0.59233 0.19733 0.59978 0.0
C3294 C 0.66585 0.19942 0.58792 0.0
C3295 C 0.68911 0.23046 0.58579 0.0
C3296 C 0.67454 0.17627 0.58872 0.0
C3297 C 0.65165 0.14344 0.5918 0.0
C3298 C 0.63364 0.13604 0.60287 0.0
C3299 C 0.61201 0.10507 0.60569 0.0
C3300 C 0.60834 0.08127 0.59756 0.0
C3301 C 0.62635 0.08837 0.58661 0.0
C3302 C 0.648 0.11931 0.58373 0.0
C3303 C 0.81632 0.25209 0.59103 0.0
C3304 C 0.82432 0.2341 0.58326 0.0
C3305 C 0.78566 0.24627 0.59153 0.0
C3306 C 0.76227 0.22278 0.58406 0.0
C3307 C 0.77039 0.20519 0.57611 0.0
C3308 C 0.80095 0.21069 0.57575 0.0
C3309 C 0.72917 0.21553 0.58493 0.0
C3310 C 0.70585 0.18455 0.5871 0.0
C3311 C 0.72054 0.23879 0.58419 0.0
C3312 C 0.74369 0.27182 0.58147 0.0
C3313 C 0.76292 0.2798 0.57075 0.0
C3314 C 0.78566 0.31077 0.56857 0.0
C3315 C 0.78922 0.33403 0.57699 0.0
C3316 C 0.76979 0.32644 0.58752 0.0
C3317 C 0.74704 0.29548 0.58976 0.0
H3318 H 0.80705 0.35794 0.57536 0.0
H3319 H 0.59158 0.0573 0.59976 0.0
H3320 H 0.85092 0.39436 0.60203 0.0
H3321 H 0.83528 0.43368 0.59934 0.0
H3322 H 0.92623 0.49805 0.58463 0.0
H3323 H 0.9421 0.45921 0.58759 0.0
H3324 H 0.91077 0.52795 0.59997 0.0
H3325 H 0.85681 0.4574 0.56557 0.0
H3326 H 0.82138 0.40633 0.55599 0.0
H3327 H 0.74594 0.39888 0.57845 0.0
H3328 H 0.78099 0.44981 0.58825 0.0
H3329 H 0.87959 0.64186 0.57516 0.0
H3330 H 0.89081 0.59921 0.57649 0.0
H3331 H 0.8016 0.54094 0.59391 0.0
H3332 H 0.79 0.5833 0.59245 0.0
H3333 H 0.81462 0.50732 0.57761 0.0
H3334 H 0.86803 0.57789 0.61164 0.0
H3335 H 0.9031 0.62894 0.62129 0.0
H3336 H 0.97953 0.63591 0.59968 0.0
H3337 H 0.94479 0.58508 0.58976 0.0
C3338 C 0.86752 0.41684 0.59816 0.0
C3339 C 0.89788 0.4236 0.59512 0.0
C3340 C 0.85851 0.43936 0.59657 0.0
C3341 C 0.8794 0.469 0.59164 0.0
C3342 C 0.90961 0.47558 0.58851 0.0
C3343 C 0.91871 0.45328 0.59024 0.0
C3344 C 0.87036 0.4935 0.58996 0.0
C3345 C 0.88995 0.52342 0.5949 0.0
C3346 C 0.84273 0.48773 0.58368 0.0
C3347 C 0.82158 0.45729 0.57771 0.0
C3348 C 0.8327 0.4448 0.5685 0.0
C3349 C 0.81267 0.41592 0.56302 0.0
C3350 C 0.78144 0.39938 0.56661 0.0
C3351 C 0.77014 0.41173 0.57568 0.0
C3352 C 0.79005 0.44062 0.58118 0.0
C3353 C 0.86216 0.61988 0.57915 0.0
C3354 C 0.83394 0.61623 0.58377 0.0
C3355 C 0.8687 0.59549 0.57997 0.0
C3356 C 0.84731 0.56686 0.58551 0.0
C3357 C 0.81859 0.56273 0.58964 0.0
C3358 C 0.81202 0.5871 0.58882 0.0
C3359 C 0.85533 0.54175 0.58742 0.0
C3360 C 0.83549 0.51176 0.58261 0.0
C3361 C 0.88273 0.5474 0.59382 0.0
C3362 C 0.90374 0.57782 0.59987 0.0
C3363 C 0.89227 0.59041 0.60888 0.0
C3364 C 0.9121 0.61929 0.61441 0.0
C3365 C 0.94351 0.63569 0.61108 0.0
C3366 C 0.95519 0.62319 0.60224 0.0
C3367 C 0.93544 0.59434 0.59667 0.0
H3368 H 0.95883 0.65805 0.61536 0.0
H3369 H 0.766 0.37697 0.56239 0.0
H3370 H 0.48125 0.23716 0.58147 0.0
H3371 H 0.52282 0.29159 0.58124 0.0
H3372 H 0.45451 0.32104 0.58071 0.0
H3373 H 0.41296 0.26677 0.5804 0.0
H3374 H 0.4994 0.35785 0.56632 0.0
H3375 H 0.4962 0.3203 0.60862 0.0
H3376 H 0.49757 0.28497 0.62467 0.0
H3377 H 0.5892 0.30826 0.61253 0.0
H3378 H 0.58822 0.34346 0.59631 0.0
H3379 H 0.59343 0.51326 0.58778 0.0
H3380 H 0.55463 0.45822 0.58578 0.0
H3381 H 0.62746 0.43512 0.58396 0.0
H3382 H 0.66647 0.49011 0.58649 0.0
H3383 H 0.58217 0.39495 0.59884 0.0
H3384 H 0.58593 0.43487 0.55722 0.0
H3385 H 0.58408 0.47036 0.54139 0.0
H3386 H 0.49076 0.4429 0.55261 0.0
H3387 H 0.49219 0.40753 0.56863 0.0
C3388 C 0.47504 0.2552 0.58119 0.0
C3389 C 0.4436 0.24738 0.58099 0.0
C3390 C 0.49892 0.28646 0.58117 0.0
C3391 C 0.49205 0.31078 0.58126 0.0
C3392 C 0.46067 0.30295 0.58068 0.0
C3393 C 0.43681 0.27174 0.5805 0.0
C3394 C 0.51728 0.34429 0.58212 0.0
C3395 C 0.51724 0.36592 0.57355 0.0
C3396 C 0.54123 0.35512 0.59133 0.0
C3397 C 0.54201 0.33427 0.60118 0.0
C3398 C 0.51657 0.31775 0.60933 0.0
C3399 C 0.51728 0.29777 0.61846 0.0
C3400 C 0.54342 0.29431 0.61959 0.0
C3401 C 0.56895 0.31093 0.61163 0.0
C3402 C 0.56834 0.33092 0.60248 0.0
C3403 C 0.60133 0.49655 0.58706 0.0
C3404 C 0.63332 0.50645 0.5873 0.0
C3405 C 0.579 0.46495 0.58576 0.0
C3406 C 0.58794 0.44228 0.58453 0.0
C3407 C 0.61982 0.45201 0.58483 0.0
C3408 C 0.6422 0.48364 0.58616 0.0
C3409 C 0.56406 0.40847 0.58313 0.0
C3410 C 0.56437 0.38682 0.5916 0.0
C3411 C 0.54026 0.39766 0.57388 0.0
C3412 C 0.53927 0.41875 0.56419 0.0
C3413 C 0.56509 0.43656 0.55637 0.0
C3414 C 0.5641 0.45662 0.54735 0.0
C3415 C 0.53734 0.45893 0.54601 0.0
C3416 C 0.51148 0.44111 0.55367 0.0
C3417 C 0.51235 0.42102 0.5627 0.0
H3418 H 0.53663 0.47449 0.53903 0.0
H3419 H 0.54392 0.27881 0.62666 0.0
loop_
_geom_bond_atom_site_label_1
_geom_bond_atom_site_label_2
_geom_bond_distance
_geom_bond_site_symmetry_2
_ccdc_geom_bond_type
Nd0 C2 2.836 . S
Nd0 O20 2.500 . S
Nd0 O21 2.492 . S
Nd0 O22 2.487 . S
Nd0 O23 2.682 1_545 S
Nd0 O24 2.410 . S
Nd0 O29 2.414 . S
Nd0 O31 2.424 1_545 S
Nd1 C11 2.836 . S
Nd1 O23 2.414 . S
Nd1 O25 2.424 1_565 S
Nd1 O26 2.500 . S
Nd1 O27 2.492 . S
Nd1 O28 2.487 . S
Nd1 O29 2.682 1_565 S
Nd1 O30 2.410 . S
C2 Nd0 2.836 . S
C2 C3 1.498 . S
C2 O20 1.258 . S
C2 O21 1.239 . S
C3 C2 1.498 . S
C3 C4 1.366 . S
C3 C8 1.407 . S
C4 C3 1.366 . S
C4 C5 1.392 . S
C4 H32 0.930 . S
C5 C4 1.392 . S
C5 C6 1.398 . S
C5 H33 0.929 . S
C6 C5 1.398 . S
C6 C7 1.352 . S
C7 C6 1.352 . S
C7 C8 1.384 . S
C7 H34 0.930 . S
C8 C3 1.407 . S
C8 C7 1.384 . S
C8 H35 0.929 . S
C9 O22 1.241 . S
C9 O23 1.273 1_545 S
C10 O24 1.251 . S
C10 O25 1.268 . S
C11 Nd1 2.836 . S
C11 C12 1.498 . S
C11 O26 1.258 . S
C11 O27 1.239 . S
C12 C11 1.498 . S
C12 C13 1.366 . S
C12 C17 1.407 . S
C13 C12 1.366 . S
C13 C14 1.392 . S
C13 H36 0.930 . S
C14 C13 1.392 . S
C14 C15 1.398 . S
C14 H37 0.929 . S
C15 C14 1.398 . S
C15 C16 1.352 . S
C16 C15 1.352 . S
C16 C17 1.384 . S
C16 H38 0.930 . S
C17 C12 1.407 . S
C17 C16 1.384 . S
C17 H39 0.929 . S
C18 O28 1.241 1_545 S
C18 O29 1.273 . S
C19 O30 1.251 . S
C19 O31 1.268 . S
O20 Nd0 2.500 . S
O20 C2 1.258 . S
O21 Nd0 2.492 . S
O21 C2 1.239 . S
O22 Nd0 2.487 . S
O22 C9 1.241 . S
O23 Nd0 2.682 1_565 S
O23 Nd1 2.414 . S
O23 C9 1.273 1_565 S
O24 Nd0 2.410 . S
O24 C10 1.251 . S
O25 Nd1 2.424 1_545 S
O25 C10 1.268 . S
O26 Nd1 2.500 . S
O26 C11 1.258 . S
O27 Nd1 2.492 . S
O27 C11 1.239 . S
O28 Nd1 2.487 . S
O28 C18 1.241 1_565 S
O29 Nd0 2.414 . S
O29 Nd1 2.682 1_545 S
O29 C18 1.273 . S
O30 Nd1 2.410 . S
O30 C19 1.251 . S
O31 Nd0 2.424 1_565 S
O31 C19 1.268 . S
H32 C4 0.930 . S
H33 C5 0.929 . S
H34 C7 0.930 . S
H35 C8 0.929 . S
H36 C13 0.930 . S
H37 C14 0.929 . S
H38 C16 0.930 . S
H39 C17 0.929 . S
Nd40 C42 2.836 1_455 S
Nd40 O60 2.500 1_455 S
Nd40 O61 2.492 1_455 S
Nd40 O62 2.487 . S
Nd40 O63 2.682 . S
Nd40 O64 2.410 1_455 S
Nd40 O69 2.414 . S
Nd40 O71 2.424 . S
Nd41 C51 2.836 . S
Nd41 O63 2.414 . S
Nd41 O65 2.424 1_455 S
Nd41 O66 2.500 . S
Nd41 O67 2.492 . S
Nd41 O68 2.487 . S
Nd41 O69 2.682 . S
Nd41 O70 2.410 . S
C42 Nd40 2.836 1_655 S
C42 C43 1.498 . S
C42 O60 1.258 . S
C42 O61 1.239 . S
C43 C42 1.498 . S
C43 C44 1.366 . S
C43 C48 1.407 . S
C44 C43 1.366 . S
C44 C45 1.392 . S
C44 H72 0.930 . S
C45 C44 1.392 . S
C45 C46 1.398 . S
C45 H73 0.929 . S
C46 C45 1.398 . S
C46 C47 1.352 . S
C47 C46 1.352 . S
C47 C48 1.384 . S
C47 H74 0.930 . S
C48 C43 1.407 . S
C48 C47 1.384 . S
C48 H75 0.929 . S
C49 O62 1.241 . S
C49 O63 1.273 . S
C50 O64 1.251 . S
C50 O65 1.268 . S
C51 Nd41 2.836 . S
C51 C52 1.498 . S
C51 O66 1.258 . S
C51 O67 1.239 . S
C52 C51 1.498 . S
C52 C53 1.366 . S
C52 C57 1.407 . S
C53 C52 1.366 . S
C53 C54 1.392 . S
C53 H76 0.930 . S
C54 C53 1.392 . S
C54 C55 1.398 . S
C54 H77 0.929 . S
C55 C54 1.398 . S
C55 C56 1.352 . S
C56 C55 1.352 . S
C56 C57 1.384 . S
C56 H78 0.930 . S
C57 C52 1.407 . S
C57 C56 1.384 . S
C57 H79 0.929 . S
C58 O68 1.241 . S
C58 O69 1.273 . S
C59 O70 1.251 . S
C59 O71 1.268 . S
O60 Nd40 2.500 1_655 S
O60 C42 1.258 . S
O61 Nd40 2.492 1_655 S
O61 C42 1.239 . S
O62 Nd40 2.487 . S
O62 C49 1.241 . S
O63 Nd40 2.682 . S
O63 Nd41 2.414 . S
O63 C49 1.273 . S
O64 Nd40 2.410 1_655 S
O64 C50 1.251 . S
O65 Nd41 2.424 1_655 S
O65 C50 1.268 . S
O66 Nd41 2.500 . S
O66 C51 1.258 . S
O67 Nd41 2.492 . S
O67 C51 1.239 . S
O68 Nd41 2.487 . S
O68 C58 1.241 . S
O69 Nd40 2.414 . S
O69 Nd41 2.682 . S
O69 C58 1.273 . S
O70 Nd41 2.410 . S
O70 C59 1.251 . S
O71 Nd40 2.424 . S
O71 C59 1.268 . S
H72 C44 0.930 . S
H73 C45 0.929 . S
H74 C47 0.930 . S
H75 C48 0.929 . S
H76 C53 0.930 . S
H77 C54 0.929 . S
H78 C56 0.930 . S
H79 C57 0.929 . S
Nd80 C82 2.836 . S
Nd80 O100 2.500 . S
Nd80 O101 2.492 . S
Nd80 O102 2.487 . S
Nd80 O103 2.682 . S
Nd80 O104 2.410 . S
Nd80 O109 2.414 . S
Nd80 O111 2.424 . S
Nd81 C91 2.836 . S
Nd81 O103 2.414 . S
Nd81 O105 2.424 . S
Nd81 O106 2.500 . S
Nd81 O107 2.492 . S
Nd81 O108 2.487 . S
Nd81 O109 2.682 . S
Nd81 O110 2.410 . S
C82 Nd80 2.836 . S
C82 C83 1.498 . S
C82 O100 1.258 . S
C82 O101 1.239 . S
C83 C82 1.498 . S
C83 C84 1.366 . S
C83 C88 1.407 . S
C84 C83 1.366 . S
C84 C85 1.392 . S
C84 H112 0.930 . S
C85 C84 1.392 . S
C85 C86 1.398 . S
C85 H113 0.929 . S
C86 C85 1.398 . S
C86 C87 1.352 . S
C87 C86 1.352 . S
C87 C88 1.384 . S
C87 H114 0.930 . S
C88 C83 1.407 . S
C88 C87 1.384 . S
C88 H115 0.929 . S
C89 O102 1.241 . S
C89 O103 1.273 . S
C90 O104 1.251 . S
C90 O105 1.268 . S
C91 Nd81 2.836 . S
C91 C92 1.498 . S
C91 O106 1.258 . S
C91 O107 1.239 . S
C92 C91 1.498 . S
C92 C93 1.366 . S
C92 C97 1.407 . S
C93 C92 1.366 . S
C93 C94 1.392 . S
C93 H116 0.930 . S
C94 C93 1.392 . S
C94 C95 1.398 . S
C94 H117 0.929 . S
C95 C94 1.398 . S
C95 C96 1.352 . S
C96 C95 1.352 . S
C96 C97 1.384 . S
C96 H118 0.930 . S
C97 C92 1.407 . S
C97 C96 1.384 . S
C97 H119 0.929 . S
C98 O108 1.241 . S
C98 O109 1.273 . S
C99 O110 1.251 . S
C99 O111 1.268 . S
O100 Nd80 2.500 . S
O100 C82 1.258 . S
O101 Nd80 2.492 . S
O101 C82 1.239 . S
O102 Nd80 2.487 . S
O102 C89 1.241 . S
O103 Nd80 2.682 . S
O103 Nd81 2.414 . S
O103 C89 1.273 . S
O104 Nd80 2.410 . S
O104 C90 1.251 . S
O105 Nd81 2.424 . S
O105 C90 1.268 . S
O106 Nd81 2.500 . S
O106 C91 1.258 . S
O107 Nd81 2.492 . S
O107 C91 1.239 . S
O108 Nd81 2.487 . S
O108 C98 1.241 . S
O109 Nd80 2.414 . S
O109 Nd81 2.682 . S
O109 C98 1.273 . S
O110 Nd81 2.410 . S
O110 C99 1.251 . S
O111 Nd80 2.424 . S
O111 C99 1.268 . S
H112 C84 0.930 . S
H113 C85 0.929 . S
H114 C87 0.930 . S
H115 C88 0.929 . S
H116 C93 0.930 . S
H117 C94 0.929 . S
H118 C96 0.930 . S
H119 C97 0.929 . S
Nd120 C122 2.836 . S
Nd120 O140 2.500 . S
Nd120 O141 2.492 . S
Nd120 O142 2.487 . S
Nd120 O143 2.682 1_455 S
Nd120 O144 2.410 . S
Nd120 O149 2.414 . S
Nd120 O151 2.424 1_455 S
Nd121 C131 2.836 . S
Nd121 O143 2.414 . S
Nd121 O145 2.424 1_655 S
Nd121 O146 2.500 . S
Nd121 O147 2.492 . S
Nd121 O148 2.487 . S
Nd121 O149 2.682 1_655 S
Nd121 O150 2.410 . S
C122 Nd120 2.836 . S
C122 C123 1.498 . S
C122 O140 1.258 . S
C122 O141 1.239 . S
C123 C122 1.498 . S
C123 C124 1.366 . S
C123 C128 1.407 . S
C124 C123 1.366 . S
C124 C125 1.392 . S
C124 H152 0.930 . S
C125 C124 1.392 . S
C125 C126 1.398 . S
C125 H153 0.929 . S
C126 C125 1.398 . S
C126 C127 1.352 . S
C127 C126 1.352 . S
C127 C128 1.384 . S
C127 H154 0.930 . S
C128 C123 1.407 . S
C128 C127 1.384 . S
C128 H155 0.929 . S
C129 O142 1.241 . S
C129 O143 1.273 1_455 S
C130 O144 1.251 . S
C130 O145 1.268 . S
C131 Nd121 2.836 . S
C131 C132 1.498 . S
C131 O146 1.258 . S
C131 O147 1.239 . S
C132 C131 1.498 . S
C132 C133 1.366 . S
C132 C137 1.407 . S
C133 C132 1.366 . S
C133 C134 1.392 . S
C133 H156 0.930 . S
C134 C133 1.392 . S
C134 C135 1.398 . S
C134 H157 0.929 . S
C135 C134 1.398 . S
C135 C136 1.352 . S
C136 C135 1.352 . S
C136 C137 1.384 . S
C136 H158 0.930 . S
C137 C132 1.407 . S
C137 C136 1.384 . S
C137 H159 0.929 . S
C138 O148 1.241 1_455 S
C138 O149 1.273 . S
C139 O150 1.251 . S
C139 O151 1.268 . S
O140 Nd120 2.500 . S
O140 C122 1.258 . S
O141 Nd120 2.492 . S
O141 C122 1.239 . S
O142 Nd120 2.487 . S
O142 C129 1.241 . S
O143 Nd120 2.682 1_655 S
O143 Nd121 2.414 . S
O143 C129 1.273 1_655 S
O144 Nd120 2.410 . S
O144 C130 1.251 . S
O145 Nd121 2.424 1_455 S
O145 C130 1.268 . S
O146 Nd121 2.500 . S
O146 C131 1.258 . S
O147 Nd121 2.492 . S
O147 C131 1.239 . S
O148 Nd121 2.487 . S
O148 C138 1.241 1_655 S
O149 Nd120 2.414 . S
O149 Nd121 2.682 1_455 S
O149 C138 1.273 . S
O150 Nd121 2.410 . S
O150 C139 1.251 . S
O151 Nd120 2.424 1_655 S
O151 C139 1.268 . S
H152 C124 0.930 . S
H153 C125 0.929 . S
H154 C127 0.930 . S
H155 C128 0.929 . S
H156 C133 0.930 . S
H157 C134 0.929 . S
H158 C136 0.930 . S
H159 C137 0.929 . S
Nd160 C162 2.836 . S
Nd160 O180 2.500 . S
Nd160 O181 2.492 . S
Nd160 O182 2.487 . S
Nd160 O183 2.682 . S
Nd160 O184 2.410 . S
Nd160 O189 2.414 . S
Nd160 O191 2.424 . S
Nd161 C171 2.836 . S
Nd161 O183 2.414 . S
Nd161 O185 2.424 . S
Nd161 O186 2.500 . S
Nd161 O187 2.492 . S
Nd161 O188 2.487 . S
Nd161 O189 2.682 . S
Nd161 O190 2.410 . S
C162 Nd160 2.836 . S
C162 C163 1.498 . S
C162 O180 1.258 . S
C162 O181 1.239 . S
C163 C162 1.498 . S
C163 C164 1.366 . S
C163 C168 1.407 . S
C164 C163 1.366 . S
C164 C165 1.392 . S
C164 H192 0.930 . S
C165 C164 1.392 . S
C165 C166 1.398 . S
C165 H193 0.929 . S
C166 C165 1.398 . S
C166 C167 1.352 . S
C167 C166 1.352 . S
C167 C168 1.384 . S
C167 H194 0.930 . S
C168 C163 1.407 . S
C168 C167 1.384 . S
C168 H195 0.929 . S
C169 O182 1.241 . S
C169 O183 1.273 . S
C170 O184 1.251 . S
C170 O185 1.268 . S
C171 Nd161 2.836 . S
C171 C172 1.498 . S
C171 O186 1.258 . S
C171 O187 1.239 . S
C172 C171 1.498 . S
C172 C173 1.366 . S
C172 C177 1.407 . S
C173 C172 1.366 . S
C173 C174 1.392 . S
C173 H196 0.930 . S
C174 C173 1.392 . S
C174 C175 1.398 . S
C174 H197 0.929 . S
C175 C174 1.398 . S
C175 C176 1.352 . S
C176 C175 1.352 . S
C176 C177 1.384 . S
C176 H198 0.930 . S
C177 C172 1.407 . S
C177 C176 1.384 . S
C177 H199 0.929 . S
C178 O188 1.241 . S
C178 O189 1.273 . S
C179 O190 1.251 . S
C179 O191 1.268 . S
O180 Nd160 2.500 . S
O180 C162 1.258 . S
O181 Nd160 2.492 . S
O181 C162 1.239 . S
O182 Nd160 2.487 . S
O182 C169 1.241 . S
O183 Nd160 2.682 . S
O183 Nd161 2.414 . S
O183 C169 1.273 . S
O184 Nd160 2.410 . S
O184 C170 1.251 . S
O185 Nd161 2.424 . S
O185 C170 1.268 . S
O186 Nd161 2.500 . S
O186 C171 1.258 . S
O187 Nd161 2.492 . S
O187 C171 1.239 . S
O188 Nd161 2.487 . S
O188 C178 1.241 . S
O189 Nd160 2.414 . S
O189 Nd161 2.682 . S
O189 C178 1.273 . S
O190 Nd161 2.410 . S
O190 C179 1.251 . S
O191 Nd160 2.424 . S
O191 C179 1.268 . S
H192 C164 0.930 . S
H193 C165 0.929 . S
H194 C167 0.930 . S
H195 C168 0.929 . S
H196 C173 0.930 . S
H197 C174 0.929 . S
H198 C176 0.930 . S
H199 C177 0.929 . S
Nd200 C202 2.836 1_545 S
Nd200 O220 2.500 1_545 S
Nd200 O221 2.492 1_545 S
Nd200 O222 2.487 . S
Nd200 O223 2.682 . S
Nd200 O224 2.410 1_545 S
Nd200 O229 2.414 . S
Nd200 O231 2.424 . S
Nd201 C211 2.836 . S
Nd201 O223 2.414 . S
Nd201 O225 2.424 1_545 S
Nd201 O226 2.500 . S
Nd201 O227 2.492 . S
Nd201 O228 2.487 . S
Nd201 O229 2.682 . S
Nd201 O230 2.410 . S
C202 Nd200 2.836 1_565 S
C202 C203 1.498 . S
C202 O220 1.258 . S
C202 O221 1.239 . S
C203 C202 1.498 . S
C203 C204 1.366 . S
C203 C208 1.407 . S
C204 C203 1.366 . S
C204 C205 1.392 . S
C204 H232 0.930 . S
C205 C204 1.392 . S
C205 C206 1.398 . S
C205 H233 0.929 . S
C206 C205 1.398 . S
C206 C207 1.352 . S
C207 C206 1.352 . S
C207 C208 1.384 . S
C207 H234 0.930 . S
C208 C203 1.407 . S
C208 C207 1.384 . S
C208 H235 0.929 . S
C209 O222 1.241 . S
C209 O223 1.273 . S
C210 O224 1.251 . S
C210 O225 1.268 . S
C211 Nd201 2.836 . S
C211 C212 1.498 . S
C211 O226 1.258 . S
C211 O227 1.239 . S
C212 C211 1.498 . S
C212 C213 1.366 . S
C212 C217 1.407 . S
C213 C212 1.366 . S
C213 C214 1.392 . S
C213 H236 0.930 . S
C214 C213 1.392 . S
C214 C215 1.398 . S
C214 H237 0.929 . S
C215 C214 1.398 . S
C215 C216 1.352 . S
C216 C215 1.352 . S
C216 C217 1.384 . S
C216 H238 0.930 . S
C217 C212 1.407 . S
C217 C216 1.384 . S
C217 H239 0.929 . S
C218 O228 1.241 . S
C218 O229 1.273 . S
C219 O230 1.251 . S
C219 O231 1.268 . S
O220 Nd200 2.500 1_565 S
O220 C202 1.258 . S
O221 Nd200 2.492 1_565 S
O221 C202 1.239 . S
O222 Nd200 2.487 . S
O222 C209 1.241 . S
O223 Nd200 2.682 . S
O223 Nd201 2.414 . S
O223 C209 1.273 . S
O224 Nd200 2.410 1_565 S
O224 C210 1.251 . S
O225 Nd201 2.424 1_565 S
O225 C210 1.268 . S
O226 Nd201 2.500 . S
O226 C211 1.258 . S
O227 Nd201 2.492 . S
O227 C211 1.239 . S
O228 Nd201 2.487 . S
O228 C218 1.241 . S
O229 Nd200 2.414 . S
O229 Nd201 2.682 . S
O229 C218 1.273 . S
O230 Nd201 2.410 . S
O230 C219 1.251 . S
O231 Nd200 2.424 . S
O231 C219 1.268 . S
H232 C204 0.930 . S
H233 C205 0.929 . S
H234 C207 0.930 . S
H235 C208 0.929 . S
H236 C213 0.930 . S
H237 C214 0.929 . S
H238 C216 0.930 . S
H239 C217 0.929 . S
Nd240 C242 2.836 . S
Nd240 O260 2.500 . S
Nd240 O261 2.492 . S
Nd240 O262 2.487 . S
Nd240 O263 2.682 . S
Nd240 O264 2.410 . S
Nd240 O269 2.414 . S
Nd240 O271 2.424 . S
Nd241 C251 2.836 . S
Nd241 O263 2.414 . S
Nd241 O265 2.424 . S
Nd241 O266 2.500 . S
Nd241 O267 2.492 . S
Nd241 O268 2.487 . S
Nd241 O269 2.682 . S
Nd241 O270 2.410 . S
C242 Nd240 2.836 . S
C242 C243 1.498 . S
C242 O260 1.258 . S
C242 O261 1.239 . S
C243 C242 1.498 . S
C243 C244 1.366 . S
C243 C248 1.407 . S
C244 C243 1.366 . S
C244 C245 1.392 . S
C244 H272 0.930 . S
C245 C244 1.392 . S
C245 C246 1.398 . S
C245 H273 0.929 . S
C246 C245 1.398 . S
C246 C247 1.352 . S
C247 C246 1.352 . S
C247 C248 1.384 . S
C247 H274 0.930 . S
C248 C243 1.407 . S
C248 C247 1.384 . S
C248 H275 0.929 . S
C249 O262 1.241 . S
C249 O263 1.273 . S
C250 O264 1.251 . S
C250 O265 1.268 . S
C251 Nd241 2.836 . S
C251 C252 1.498 . S
C251 O266 1.258 . S
C251 O267 1.239 . S
C252 C251 1.498 . S
C252 C253 1.366 . S
C252 C257 1.407 . S
C253 C252 1.366 . S
C253 C254 1.392 . S
C253 H276 0.930 . S
C254 C253 1.392 . S
C254 C255 1.398 . S
C254 H277 0.929 . S
C255 C254 1.398 . S
C255 C256 1.352 . S
C256 C255 1.352 . S
C256 C257 1.384 . S
C256 H278 0.930 . S
C257 C252 1.407 . S
C257 C256 1.384 . S
C257 H279 0.929 . S
C258 O268 1.241 . S
C258 O269 1.273 . S
C259 O270 1.251 . S
C259 O271 1.268 . S
O260 Nd240 2.500 . S
O260 C242 1.258 . S
O261 Nd240 2.492 . S
O261 C242 1.239 . S
O262 Nd240 2.487 . S
O262 C249 1.241 . S
O263 Nd240 2.682 . S
O263 Nd241 2.414 . S
O263 C249 1.273 . S
O264 Nd240 2.410 . S
O264 C250 1.251 . S
O265 Nd241 2.424 . S
O265 C250 1.268 . S
O266 Nd241 2.500 . S
O266 C251 1.258 . S
O267 Nd241 2.492 . S
O267 C251 1.239 . S
O268 Nd241 2.487 . S
O268 C258 1.241 . S
O269 Nd240 2.414 . S
O269 Nd241 2.682 . S
O269 C258 1.273 . S
O270 Nd241 2.410 . S
O270 C259 1.251 . S
O271 Nd240 2.424 . S
O271 C259 1.268 . S
H272 C244 0.930 . S
H273 C245 0.929 . S
H274 C247 0.930 . S
H275 C248 0.929 . S
H276 C253 0.930 . S
H277 C254 0.929 . S
H278 C256 0.930 . S
H279 C257 0.929 . S
Nd280 C282 2.836 . S
Nd280 O300 2.500 . S
Nd280 O301 2.492 . S
Nd280 O302 2.487 . S
Nd280 O303 2.682 . S
Nd280 O304 2.410 . S
Nd280 O309 2.414 . S
Nd280 O311 2.424 . S
Nd281 C291 2.836 . S
Nd281 O303 2.414 . S
Nd281 O305 2.424 . S
Nd281 O306 2.500 . S
Nd281 O307 2.492 . S
Nd281 O308 2.487 . S
Nd281 O309 2.682 . S
Nd281 O310 2.410 . S
C282 Nd280 2.836 . S
C282 C283 1.498 . S
C282 O300 1.258 . S
C282 O301 1.239 . S
C283 C282 1.498 . S
C283 C284 1.366 . S
C283 C288 1.407 . S
C284 C283 1.366 . S
C284 C285 1.392 . S
C284 H312 0.930 . S
C285 C284 1.392 . S
C285 C286 1.398 . S
C285 H313 0.929 . S
C286 C285 1.398 . S
C286 C287 1.352 . S
C287 C286 1.352 . S
C287 C288 1.384 . S
C287 H314 0.930 . S
C288 C283 1.407 . S
C288 C287 1.384 . S
C288 H315 0.929 . S
C289 O302 1.241 . S
C289 O303 1.273 . S
C290 O304 1.251 . S
C290 O305 1.268 . S
C291 Nd281 2.836 . S
C291 C292 1.498 . S
C291 O306 1.258 . S
C291 O307 1.239 . S
C292 C291 1.498 . S
C292 C293 1.366 . S
C292 C297 1.407 . S
C293 C292 1.366 . S
C293 C294 1.392 . S
C293 H316 0.930 . S
C294 C293 1.392 . S
C294 C295 1.398 . S
C294 H317 0.929 . S
C295 C294 1.398 . S
C295 C296 1.352 . S
C296 C295 1.352 . S
C296 C297 1.384 . S
C296 H318 0.930 1_565 S
C297 C292 1.407 . S
C297 C296 1.384 . S
C297 H319 0.929 . S
C298 O308 1.241 . S
C298 O309 1.273 . S
C299 O310 1.251 . S
C299 O311 1.268 . S
O300 Nd280 2.500 . S
O300 C282 1.258 . S
O301 Nd280 2.492 . S
O301 C282 1.239 . S
O302 Nd280 2.487 . S
O302 C289 1.241 . S
O303 Nd280 2.682 . S
O303 Nd281 2.414 . S
O303 C289 1.273 . S
O304 Nd280 2.410 . S
O304 C290 1.251 . S
O305 Nd281 2.424 . S
O305 C290 1.268 . S
O306 Nd281 2.500 . S
O306 C291 1.258 . S
O307 Nd281 2.492 . S
O307 C291 1.239 . S
O308 Nd281 2.487 . S
O308 C298 1.241 . S
O309 Nd280 2.414 . S
O309 Nd281 2.682 . S
O309 C298 1.273 . S
O310 Nd281 2.410 . S
O310 C299 1.251 . S
O311 Nd280 2.424 . S
O311 C299 1.268 . S
H312 C284 0.930 . S
H313 C285 0.929 . S
H314 C287 0.930 . S
H315 C288 0.929 . S
H316 C293 0.930 . S
H317 C294 0.929 . S
H318 C296 0.930 1_545 S
H319 C297 0.929 . S
Nd320 C322 2.836 . S
Nd320 O340 2.500 . S
Nd320 O341 2.492 . S
Nd320 O342 2.487 . S
Nd320 O343 2.682 . S
Nd320 O344 2.410 . S
Nd320 O349 2.414 . S
Nd320 O351 2.424 . S
Nd321 C331 2.836 . S
Nd321 O343 2.414 . S
Nd321 O345 2.424 . S
Nd321 O346 2.500 . S
Nd321 O347 2.492 . S
Nd321 O348 2.487 . S
Nd321 O349 2.682 . S
Nd321 O350 2.410 . S
C322 Nd320 2.836 . S
C322 C323 1.498 . S
C322 O340 1.258 . S
C322 O341 1.239 . S
C323 C322 1.498 . S
C323 C324 1.366 . S
C323 C328 1.407 . S
C324 C323 1.366 . S
C324 C325 1.392 . S
C324 H352 0.930 . S
C325 C324 1.392 . S
C325 C326 1.398 . S
C325 H353 0.929 . S
C326 C325 1.398 . S
C326 C327 1.352 . S
C327 C326 1.352 . S
C327 C328 1.384 . S
C327 H354 0.930 . S
C328 C323 1.407 . S
C328 C327 1.384 . S
C328 H355 0.929 . S
C329 O342 1.241 . S
C329 O343 1.273 . S
C330 O344 1.251 . S
C330 O345 1.268 . S
C331 Nd321 2.836 . S
C331 C332 1.498 . S
C331 O346 1.258 . S
C331 O347 1.239 . S
C332 C331 1.498 . S
C332 C333 1.366 . S
C332 C337 1.407 . S
C333 C332 1.366 . S
C333 C334 1.392 . S
C333 H356 0.930 . S
C334 C333 1.392 . S
C334 C335 1.398 . S
C334 H357 0.929 . S
C335 C334 1.398 . S
C335 C336 1.352 . S
C336 C335 1.352 . S
C336 C337 1.384 . S
C336 H358 0.930 . S
C337 C332 1.407 . S
C337 C336 1.384 . S
C337 H359 0.929 . S
C338 O348 1.241 . S
C338 O349 1.273 . S
C339 O350 1.251 . S
C339 O351 1.268 . S
O340 Nd320 2.500 . S
O340 C322 1.258 . S
O341 Nd320 2.492 . S
O341 C322 1.239 . S
O342 Nd320 2.487 . S
O342 C329 1.241 . S
O343 Nd320 2.682 . S
O343 Nd321 2.414 . S
O343 C329 1.273 . S
O344 Nd320 2.410 . S
O344 C330 1.251 . S
O345 Nd321 2.424 . S
O345 C330 1.268 . S
O346 Nd321 2.500 . S
O346 C331 1.258 . S
O347 Nd321 2.492 . S
O347 C331 1.239 . S
O348 Nd321 2.487 . S
O348 C338 1.241 . S
O349 Nd320 2.414 . S
O349 Nd321 2.682 . S
O349 C338 1.273 . S
O350 Nd321 2.410 . S
O350 C339 1.251 . S
O351 Nd320 2.424 . S
O351 C339 1.268 . S
H352 C324 0.930 . S
H353 C325 0.929 . S
H354 C327 0.930 . S
H355 C328 0.929 . S
H356 C333 0.930 . S
H357 C334 0.929 . S
H358 C336 0.930 . S
H359 C337 0.929 . S
Nd360 C362 2.836 . S
Nd360 O380 2.500 . S
Nd360 O381 2.492 . S
Nd360 O382 2.487 . S
Nd360 O383 2.682 . S
Nd360 O384 2.410 . S
Nd360 O389 2.414 . S
Nd360 O391 2.424 . S
Nd361 C371 2.836 . S
Nd361 O383 2.414 . S
Nd361 O385 2.424 . S
Nd361 O386 2.500 . S
Nd361 O387 2.492 . S
Nd361 O388 2.487 . S
Nd361 O389 2.682 . S
Nd361 O390 2.410 . S
C362 Nd360 2.836 . S
C362 C363 1.498 . S
C362 O380 1.258 . S
C362 O381 1.239 . S
C363 C362 1.498 . S
C363 C364 1.366 . S
C363 C368 1.407 . S
C364 C363 1.366 . S
C364 C365 1.392 . S
C364 H392 0.930 . S
C365 C364 1.392 . S
C365 C366 1.398 . S
C365 H393 0.929 . S
C366 C365 1.398 . S
C366 C367 1.352 . S
C367 C366 1.352 . S
C367 C368 1.384 . S
C367 H394 0.930 . S
C368 C363 1.407 . S
C368 C367 1.384 . S
C368 H395 0.929 . S
C369 O382 1.241 . S
C369 O383 1.273 . S
C370 O384 1.251 . S
C370 O385 1.268 . S
C371 Nd361 2.836 . S
C371 C372 1.498 . S
C371 O386 1.258 . S
C371 O387 1.239 . S
C372 C371 1.498 . S
C372 C373 1.366 . S
C372 C377 1.407 . S
C373 C372 1.366 . S
C373 C374 1.392 . S
C373 H396 0.930 . S
C374 C373 1.392 . S
C374 C375 1.398 . S
C374 H397 0.929 . S
C375 C374 1.398 . S
C375 C376 1.352 . S
C376 C375 1.352 . S
C376 C377 1.384 . S
C376 H398 0.930 . S
C377 C372 1.407 . S
C377 C376 1.384 . S
C377 H399 0.929 . S
C378 O388 1.241 . S
C378 O389 1.273 . S
C379 O390 1.251 . S
C379 O391 1.268 . S
O380 Nd360 2.500 . S
O380 C362 1.258 . S
O381 Nd360 2.492 . S
O381 C362 1.239 . S
O382 Nd360 2.487 . S
O382 C369 1.241 . S
O383 Nd360 2.682 . S
O383 Nd361 2.414 . S
O383 C369 1.273 . S
O384 Nd360 2.410 . S
O384 C370 1.251 . S
O385 Nd361 2.424 . S
O385 C370 1.268 . S
O386 Nd361 2.500 . S
O386 C371 1.258 . S
O387 Nd361 2.492 . S
O387 C371 1.239 . S
O388 Nd361 2.487 . S
O388 C378 1.241 . S
O389 Nd360 2.414 . S
O389 Nd361 2.682 . S
O389 C378 1.273 . S
O390 Nd361 2.410 . S
O390 C379 1.251 . S
O391 Nd360 2.424 . S
O391 C379 1.268 . S
H392 C364 0.930 . S
H393 C365 0.929 . S
H394 C367 0.930 . S
H395 C368 0.929 . S
H396 C373 0.930 . S
H397 C374 0.929 . S
H398 C376 0.930 . S
H399 C377 0.929 . S
Nd400 C402 2.836 . S
Nd400 O420 2.500 . S
Nd400 O421 2.492 . S
Nd400 O422 2.487 . S
Nd400 O423 2.682 . S
Nd400 O424 2.410 . S
Nd400 O429 2.414 . S
Nd400 O431 2.424 . S
Nd401 C411 2.836 . S
Nd401 O423 2.414 . S
Nd401 O425 2.424 . S
Nd401 O426 2.500 . S
Nd401 O427 2.492 . S
Nd401 O428 2.487 . S
Nd401 O429 2.682 . S
Nd401 O430 2.410 . S
C402 Nd400 2.836 . S
C402 C403 1.498 . S
C402 O420 1.258 . S
C402 O421 1.239 . S
C403 C402 1.498 . S
C403 C404 1.366 . S
C403 C408 1.407 1_565 S
C404 C403 1.366 . S
C404 C405 1.392 1_565 S
C404 H432 0.930 . S
C405 C404 1.392 1_545 S
C405 C406 1.398 . S
C405 H433 0.929 . S
C406 C405 1.398 . S
C406 C407 1.352 . S
C407 C406 1.352 . S
C407 C408 1.384 . S
C407 H434 0.930 . S
C408 C403 1.407 1_545 S
C408 C407 1.384 . S
C408 H435 0.929 . S
C409 O422 1.241 . S
C409 O423 1.273 . S
C410 O424 1.251 . S
C410 O425 1.268 . S
C411 Nd401 2.836 . S
C411 C412 1.498 . S
C411 O426 1.258 . S
C411 O427 1.239 . S
C412 C411 1.498 . S
C412 C413 1.366 . S
C412 C417 1.407 . S
C413 C412 1.366 . S
C413 C414 1.392 . S
C413 H436 0.930 . S
C414 C413 1.392 . S
C414 C415 1.398 . S
C414 H437 0.929 . S
C415 C414 1.398 . S
C415 C416 1.352 . S
C416 C415 1.352 . S
C416 C417 1.384 . S
C416 H438 0.930 . S
C417 C412 1.407 . S
C417 C416 1.384 . S
C417 H439 0.929 . S
C418 O428 1.241 . S
C418 O429 1.273 . S
C419 O430 1.251 . S
C419 O431 1.268 . S
O420 Nd400 2.500 . S
O420 C402 1.258 . S
O421 Nd400 2.492 . S
O421 C402 1.239 . S
O422 Nd400 2.487 . S
O422 C409 1.241 . S
O423 Nd400 2.682 . S
O423 Nd401 2.414 . S
O423 C409 1.273 . S
O424 Nd400 2.410 . S
O424 C410 1.251 . S
O425 Nd401 2.424 . S
O425 C410 1.268 . S
O426 Nd401 2.500 . S
O426 C411 1.258 . S
O427 Nd401 2.492 . S
O427 C411 1.239 . S
O428 Nd401 2.487 . S
O428 C418 1.241 . S
O429 Nd400 2.414 . S
O429 Nd401 2.682 . S
O429 C418 1.273 . S
O430 Nd401 2.410 . S
O430 C419 1.251 . S
O431 Nd400 2.424 . S
O431 C419 1.268 . S
H432 C404 0.930 . S
H433 C405 0.929 . S
H434 C407 0.930 . S
H435 C408 0.929 . S
H436 C413 0.930 . S
H437 C414 0.929 . S
H438 C416 0.930 . S
H439 C417 0.929 . S
Nd440 C442 2.836 . S
Nd440 O460 2.500 . S
Nd440 O461 2.492 . S
Nd440 O462 2.487 . S
Nd440 O463 2.682 . S
Nd440 O464 2.410 . S
Nd440 O469 2.414 . S
Nd440 O471 2.424 . S
Nd441 C451 2.836 . S
Nd441 O463 2.414 . S
Nd441 O465 2.424 . S
Nd441 O466 2.500 . S
Nd441 O467 2.492 . S
Nd441 O468 2.487 . S
Nd441 O469 2.682 . S
Nd441 O470 2.410 . S
C442 Nd440 2.836 . S
C442 C443 1.498 . S
C442 O460 1.258 . S
C442 O461 1.239 . S
C443 C442 1.498 . S
C443 C444 1.366 . S
C443 C448 1.407 . S
C444 C443 1.366 . S
C444 C445 1.392 . S
C444 H472 0.930 . S
C445 C444 1.392 . S
C445 C446 1.398 1_455 S
C445 H473 0.929 . S
C446 C445 1.398 1_655 S
C446 C447 1.344 . S
C447 C446 1.344 . S
C447 C448 1.375 1_655 S
C447 H474 0.948 . S
C448 C443 1.407 . S
C448 C447 1.375 1_455 S
C448 H475 0.929 . S
C449 O462 1.241 . S
C449 O463 1.273 . S
C450 O464 1.251 . S
C450 O465 1.268 . S
C451 Nd441 2.836 . S
C451 C452 1.498 . S
C451 O466 1.258 . S
C451 O467 1.239 . S
C452 C451 1.498 . S
C452 C453 1.366 . S
C452 C457 1.407 . S
C453 C452 1.366 . S
C453 C454 1.392 . S
C453 H476 0.930 . S
C454 C453 1.392 . S
C454 C455 1.398 . S
C454 H477 0.929 . S
C455 C454 1.398 . S
C455 C456 1.352 . S
C456 C455 1.352 . S
C456 C457 1.384 . S
C456 H478 0.930 . S
C457 C452 1.407 . S
C457 C456 1.384 . S
C457 H479 0.929 . S
C458 O468 1.241 . S
C458 O469 1.273 . S
C459 O470 1.251 . S
C459 O471 1.268 . S
O460 Nd440 2.500 . S
O460 C442 1.258 . S
O461 Nd440 2.492 . S
O461 C442 1.239 . S
O462 Nd440 2.487 . S
O462 C449 1.241 . S
O463 Nd440 2.682 . S
O463 Nd441 2.414 . S
O463 C449 1.273 . S
O464 Nd440 2.410 . S
O464 C450 1.251 . S
O465 Nd441 2.424 . S
O465 C450 1.268 . S
O466 Nd441 2.500 . S
O466 C451 1.258 . S
O467 Nd441 2.492 . S
O467 C451 1.239 . S
O468 Nd441 2.487 . S
O468 C458 1.241 . S
O469 Nd440 2.414 . S
O469 Nd441 2.682 . S
O469 C458 1.273 . S
O470 Nd441 2.410 . S
O470 C459 1.251 . S
O471 Nd440 2.424 . S
O471 C459 1.268 . S
H472 C444 0.930 . S
H473 C445 0.929 . S
H474 C447 0.948 . S
H475 C448 0.929 . S
H476 C453 0.930 . S
H477 C454 0.929 . S
H478 C456 0.930 . S
H479 C457 0.929 . S
Nd480 C482 2.836 . S
Nd480 O500 2.500 . S
Nd480 O501 2.492 . S
Nd480 O502 2.487 . S
Nd480 O503 2.682 . S
Nd480 O504 2.410 . S
Nd480 O509 2.414 . S
Nd480 O511 2.424 . S
Nd481 C491 2.836 . S
Nd481 O503 2.414 . S
Nd481 O505 2.424 . S
Nd481 O506 2.500 . S
Nd481 O507 2.492 . S
Nd481 O508 2.487 . S
Nd481 O509 2.682 . S
Nd481 O510 2.410 . S
C482 Nd480 2.836 . S
C482 C483 1.498 . S
C482 O500 1.258 . S
C482 O501 1.239 . S
C483 C482 1.498 . S
C483 C484 1.366 . S
C483 C488 1.407 . S
C484 C483 1.366 . S
C484 C485 1.392 . S
C484 H512 0.930 . S
C485 C484 1.392 . S
C485 C486 1.398 . S
C485 H513 0.929 . S
C486 C485 1.398 . S
C486 C487 1.352 . S
C487 C486 1.352 . S
C487 C488 1.384 . S
C487 H514 0.930 . S
C488 C483 1.407 . S
C488 C487 1.384 . S
C488 H515 0.929 . S
C489 O502 1.241 . S
C489 O503 1.273 . S
C490 O504 1.251 . S
C490 O505 1.268 . S
C491 Nd481 2.836 . S
C491 C492 1.498 . S
C491 O506 1.258 . S
C491 O507 1.239 . S
C492 C491 1.498 . S
C492 C493 1.366 . S
C492 C497 1.407 . S
C493 C492 1.366 . S
C493 C494 1.392 . S
C493 H516 0.930 . S
C494 C493 1.392 . S
C494 C495 1.398 . S
C494 H517 0.929 . S
C495 C494 1.398 . S
C495 C496 1.352 . S
C496 C495 1.352 . S
C496 C497 1.384 . S
C496 H518 0.930 . S
C497 C492 1.407 . S
C497 C496 1.384 . S
C497 H519 0.929 . S
C498 O508 1.241 . S
C498 O509 1.273 . S
C499 O510 1.251 . S
C499 O511 1.268 . S
O500 Nd480 2.500 . S
O500 C482 1.258 . S
O501 Nd480 2.492 . S
O501 C482 1.239 . S
O502 Nd480 2.487 . S
O502 C489 1.241 . S
O503 Nd480 2.682 . S
O503 Nd481 2.414 . S
O503 C489 1.273 . S
O504 Nd480 2.410 . S
O504 C490 1.251 . S
O505 Nd481 2.424 . S
O505 C490 1.268 . S
O506 Nd481 2.500 . S
O506 C491 1.258 . S
O507 Nd481 2.492 . S
O507 C491 1.239 . S
O508 Nd481 2.487 . S
O508 C498 1.241 . S
O509 Nd480 2.414 . S
O509 Nd481 2.682 . S
O509 C498 1.273 . S
O510 Nd481 2.410 . S
O510 C499 1.251 . S
O511 Nd480 2.424 . S
O511 C499 1.268 . S
H512 C484 0.930 . S
H513 C485 0.929 . S
H514 C487 0.930 . S
H515 C488 0.929 . S
H516 C493 0.930 . S
H517 C494 0.929 . S
H518 C496 0.930 . S
H519 C497 0.929 . S
Nd520 C522 2.836 . S
Nd520 O540 2.500 . S
Nd520 O541 2.492 . S
Nd520 O542 2.487 . S
Nd520 O543 2.682 . S
Nd520 O544 2.410 . S
Nd520 O549 2.414 . S
Nd520 O551 2.424 . S
Nd521 C531 2.836 . S
Nd521 O543 2.414 . S
Nd521 O545 2.424 . S
Nd521 O546 2.500 . S
Nd521 O547 2.492 . S
Nd521 O548 2.487 . S
Nd521 O549 2.682 . S
Nd521 O550 2.410 . S
C522 Nd520 2.836 . S
C522 C523 1.498 . S
C522 O540 1.258 . S
C522 O541 1.239 . S
C523 C522 1.498 . S
C523 C524 1.366 . S
C523 C528 1.407 . S
C524 C523 1.366 . S
C524 C525 1.392 . S
C524 H552 0.930 . S
C525 C524 1.392 . S
C525 C526 1.398 1_545 S
C525 H553 0.929 . S
C526 C525 1.398 1_565 S
C526 C527 1.344 . S
C527 C526 1.344 . S
C527 C528 1.375 1_565 S
C527 H554 0.948 . S
C528 C523 1.407 . S
C528 C527 1.375 1_545 S
C528 H555 0.929 . S
C529 O542 1.241 . S
C529 O543 1.273 . S
C530 O544 1.251 . S
C530 O545 1.268 . S
C531 Nd521 2.836 . S
C531 C532 1.498 . S
C531 O546 1.258 . S
C531 O547 1.239 . S
C532 C531 1.498 . S
C532 C533 1.366 . S
C532 C537 1.407 . S
C533 C532 1.366 . S
C533 C534 1.392 . S
C533 H556 0.930 . S
C534 C533 1.392 . S
C534 C535 1.398 . S
C534 H557 0.929 . S
C535 C534 1.398 . S
C535 C536 1.352 . S
C536 C535 1.352 . S
C536 C537 1.384 . S
C536 H558 0.930 . S
C537 C532 1.407 . S
C537 C536 1.384 . S
C537 H559 0.929 . S
C538 O548 1.241 . S
C538 O549 1.273 . S
C539 O550 1.251 . S
C539 O551 1.268 . S
O540 Nd520 2.500 . S
O540 C522 1.258 . S
O541 Nd520 2.492 . S
O541 C522 1.239 . S
O542 Nd520 2.487 . S
O542 C529 1.241 . S
O543 Nd520 2.682 . S
O543 Nd521 2.414 . S
O543 C529 1.273 . S
O544 Nd520 2.410 . S
O544 C530 1.251 . S
O545 Nd521 2.424 . S
O545 C530 1.268 . S
O546 Nd521 2.500 . S
O546 C531 1.258 . S
O547 Nd521 2.492 . S
O547 C531 1.239 . S
O548 Nd521 2.487 . S
O548 C538 1.241 . S
O549 Nd520 2.414 . S
O549 Nd521 2.682 . S
O549 C538 1.273 . S
O550 Nd521 2.410 . S
O550 C539 1.251 . S
O551 Nd520 2.424 . S
O551 C539 1.268 . S
H552 C524 0.930 . S
H553 C525 0.929 . S
H554 C527 0.948 . S
H555 C528 0.929 . S
H556 C533 0.930 . S
H557 C534 0.929 . S
H558 C536 0.930 . S
H559 C537 0.929 . S
Nd560 C562 2.836 . S
Nd560 O580 2.500 . S
Nd560 O581 2.492 . S
Nd560 O582 2.487 . S
Nd560 O583 2.682 . S
Nd560 O584 2.410 . S
Nd560 O589 2.414 . S
Nd560 O591 2.424 . S
Nd561 C571 2.836 . S
Nd561 O583 2.414 . S
Nd561 O585 2.424 . S
Nd561 O586 2.500 . S
Nd561 O587 2.492 . S
Nd561 O588 2.487 . S
Nd561 O589 2.682 . S
Nd561 O590 2.410 . S
C562 Nd560 2.836 . S
C562 C563 1.498 . S
C562 O580 1.258 . S
C562 O581 1.239 . S
C563 C562 1.498 . S
C563 C564 1.366 . S
C563 C568 1.407 1_655 S
C564 C563 1.366 . S
C564 C565 1.392 1_655 S
C564 H592 0.930 . S
C565 C564 1.392 1_455 S
C565 C566 1.398 . S
C565 H593 0.929 . S
C566 C565 1.398 . S
C566 C567 1.352 . S
C567 C566 1.352 . S
C567 C568 1.384 . S
C567 H594 0.930 . S
C568 C563 1.407 1_455 S
C568 C567 1.384 . S
C568 H595 0.929 . S
C569 O582 1.241 . S
C569 O583 1.273 . S
C570 O584 1.251 . S
C570 O585 1.268 . S
C571 Nd561 2.836 . S
C571 C572 1.498 . S
C571 O586 1.258 . S
C571 O587 1.239 . S
C572 C571 1.498 . S
C572 C573 1.366 . S
C572 C577 1.407 . S
C573 C572 1.366 . S
C573 C574 1.392 . S
C573 H596 0.930 . S
C574 C573 1.392 . S
C574 C575 1.398 . S
C574 H597 0.929 . S
C575 C574 1.398 . S
C575 C576 1.352 . S
C576 C575 1.352 . S
C576 C577 1.384 . S
C576 H598 0.930 . S
C577 C572 1.407 . S
C577 C576 1.384 . S
C577 H599 0.929 . S
C578 O588 1.241 . S
C578 O589 1.273 . S
C579 O590 1.251 . S
C579 O591 1.268 . S
O580 Nd560 2.500 . S
O580 C562 1.258 . S
O581 Nd560 2.492 . S
O581 C562 1.239 . S
O582 Nd560 2.487 . S
O582 C569 1.241 . S
O583 Nd560 2.682 . S
O583 Nd561 2.414 . S
O583 C569 1.273 . S
O584 Nd560 2.410 . S
O584 C570 1.251 . S
O585 Nd561 2.424 . S
O585 C570 1.268 . S
O586 Nd561 2.500 . S
O586 C571 1.258 . S
O587 Nd561 2.492 . S
O587 C571 1.239 . S
O588 Nd561 2.487 . S
O588 C578 1.241 . S
O589 Nd560 2.414 . S
O589 Nd561 2.682 . S
O589 C578 1.273 . S
O590 Nd561 2.410 . S
O590 C579 1.251 . S
O591 Nd560 2.424 . S
O591 C579 1.268 . S
H592 C564 0.930 . S
H593 C565 0.929 . S
H594 C567 0.930 . S
H595 C568 0.929 . S
H596 C573 0.930 . S
H597 C574 0.929 . S
H598 C576 0.930 . S
H599 C577 0.929 . S
Nd600 C602 2.836 . S
Nd600 O620 2.500 . S
Nd600 O621 2.492 . S
Nd600 O622 2.487 . S
Nd600 O623 2.682 . S
Nd600 O624 2.410 . S
Nd600 O629 2.414 . S
Nd600 O631 2.424 . S
Nd601 C611 2.836 . S
Nd601 O623 2.414 . S
Nd601 O625 2.424 . S
Nd601 O626 2.500 . S
Nd601 O627 2.492 . S
Nd601 O628 2.487 . S
Nd601 O629 2.682 . S
Nd601 O630 2.410 . S
C602 Nd600 2.836 . S
C602 C603 1.498 . S
C602 O620 1.258 . S
C602 O621 1.239 . S
C603 C602 1.498 . S
C603 C604 1.366 . S
C603 C608 1.407 . S
C604 C603 1.366 . S
C604 C605 1.392 . S
C604 H632 0.930 . S
C605 C604 1.392 . S
C605 C606 1.398 . S
C605 H633 0.929 . S
C606 C605 1.398 . S
C606 C607 1.352 . S
C607 C606 1.352 . S
C607 C608 1.384 . S
C607 H634 0.930 . S
C608 C603 1.407 . S
C608 C607 1.384 . S
C608 H635 0.929 . S
C609 O622 1.241 . S
C609 O623 1.273 . S
C610 O624 1.251 . S
C610 O625 1.268 . S
C611 Nd601 2.836 . S
C611 C612 1.498 . S
C611 O626 1.258 . S
C611 O627 1.239 . S
C612 C611 1.498 . S
C612 C613 1.366 . S
C612 C617 1.407 . S
C613 C612 1.366 . S
C613 C614 1.392 . S
C613 H636 0.930 . S
C614 C613 1.392 . S
C614 C615 1.398 . S
C614 H637 0.929 . S
C615 C614 1.398 . S
C615 C616 1.352 . S
C616 C615 1.352 . S
C616 C617 1.384 . S
C616 H638 0.930 . S
C617 C612 1.407 . S
C617 C616 1.384 . S
C617 H639 0.929 . S
C618 O628 1.241 . S
C618 O629 1.273 . S
C619 O630 1.251 . S
C619 O631 1.268 . S
O620 Nd600 2.500 . S
O620 C602 1.258 . S
O621 Nd600 2.492 . S
O621 C602 1.239 . S
O622 Nd600 2.487 . S
O622 C609 1.241 . S
O623 Nd600 2.682 . S
O623 Nd601 2.414 . S
O623 C609 1.273 . S
O624 Nd600 2.410 . S
O624 C610 1.251 . S
O625 Nd601 2.424 . S
O625 C610 1.268 . S
O626 Nd601 2.500 . S
O626 C611 1.258 . S
O627 Nd601 2.492 . S
O627 C611 1.239 . S
O628 Nd601 2.487 . S
O628 C618 1.241 . S
O629 Nd600 2.414 . S
O629 Nd601 2.682 . S
O629 C618 1.273 . S
O630 Nd601 2.410 . S
O630 C619 1.251 . S
O631 Nd600 2.424 . S
O631 C619 1.268 . S
H632 C604 0.930 . S
H633 C605 0.929 . S
H634 C607 0.930 . S
H635 C608 0.929 . S
H636 C613 0.930 . S
H637 C614 0.929 . S
H638 C616 0.930 . S
H639 C617 0.929 . S
Nd640 C642 2.836 . S
Nd640 O660 2.500 . S
Nd640 O661 2.492 . S
Nd640 O662 2.487 . S
Nd640 O663 2.682 . S
Nd640 O664 2.410 . S
Nd640 O669 2.414 . S
Nd640 O671 2.424 . S
Nd641 C651 2.836 . S
Nd641 O663 2.414 . S
Nd641 O665 2.424 . S
Nd641 O666 2.500 . S
Nd641 O667 2.492 . S
Nd641 O668 2.487 . S
Nd641 O669 2.682 . S
Nd641 O670 2.410 . S
C642 Nd640 2.836 . S
C642 C643 1.498 . S
C642 O660 1.258 . S
C642 O661 1.239 . S
C643 C642 1.498 . S
C643 C644 1.366 . S
C643 C648 1.407 . S
C644 C643 1.366 . S
C644 C645 1.392 . S
C644 H672 0.930 . S
C645 C644 1.392 . S
C645 C646 1.398 . S
C645 H673 0.929 . S
C646 C645 1.398 . S
C646 C647 1.352 . S
C647 C646 1.352 . S
C647 C648 1.384 . S
C647 H674 0.930 . S
C648 C643 1.407 . S
C648 C647 1.384 . S
C648 H675 0.929 . S
C649 O662 1.241 . S
C649 O663 1.273 . S
C650 O664 1.251 . S
C650 O665 1.268 . S
C651 Nd641 2.836 . S
C651 C652 1.498 . S
C651 O666 1.258 . S
C651 O667 1.239 . S
C652 C651 1.498 . S
C652 C653 1.366 . S
C652 C657 1.407 . S
C653 C652 1.366 . S
C653 C654 1.392 . S
C653 H676 0.930 . S
C654 C653 1.392 . S
C654 C655 1.398 . S
C654 H677 0.929 . S
C655 C654 1.398 . S
C655 C656 1.352 . S
C656 C655 1.352 . S
C656 C657 1.384 . S
C656 H678 0.930 . S
C657 C652 1.407 . S
C657 C656 1.384 . S
C657 H679 0.929 . S
C658 O668 1.241 . S
C658 O669 1.273 . S
C659 O670 1.251 . S
C659 O671 1.268 . S
O660 Nd640 2.500 . S
O660 C642 1.258 . S
O661 Nd640 2.492 . S
O661 C642 1.239 . S
O662 Nd640 2.487 . S
O662 C649 1.241 . S
O663 Nd640 2.682 . S
O663 Nd641 2.414 . S
O663 C649 1.273 . S
O664 Nd640 2.410 . S
O664 C650 1.251 . S
O665 Nd641 2.424 . S
O665 C650 1.268 . S
O666 Nd641 2.500 . S
O666 C651 1.258 . S
O667 Nd641 2.492 . S
O667 C651 1.239 . S
O668 Nd641 2.487 . S
O668 C658 1.241 . S
O669 Nd640 2.414 . S
O669 Nd641 2.682 . S
O669 C658 1.273 . S
O670 Nd641 2.410 . S
O670 C659 1.251 . S
O671 Nd640 2.424 . S
O671 C659 1.268 . S
H672 C644 0.930 . S
H673 C645 0.929 . S
H674 C647 0.930 . S
H675 C648 0.929 . S
H676 C653 0.930 . S
H677 C654 0.929 . S
H678 C656 0.930 . S
H679 C657 0.929 . S
Nd680 C682 2.836 . S
Nd680 O700 2.500 . S
Nd680 O701 2.492 . S
Nd680 O702 2.487 . S
Nd680 O703 2.682 . S
Nd680 O704 2.410 . S
Nd680 O709 2.414 . S
Nd680 O711 2.424 . S
Nd681 C691 2.836 . S
Nd681 O703 2.414 . S
Nd681 O705 2.424 . S
Nd681 O706 2.500 . S
Nd681 O707 2.492 . S
Nd681 O708 2.487 . S
Nd681 O709 2.682 . S
Nd681 O710 2.410 . S
C682 Nd680 2.836 . S
C682 C683 1.498 . S
C682 O700 1.258 . S
C682 O701 1.239 . S
C683 C682 1.498 . S
C683 C684 1.366 . S
C683 C688 1.407 . S
C684 C683 1.366 . S
C684 C685 1.392 . S
C684 H712 0.930 . S
C685 C684 1.392 . S
C685 C686 1.398 . S
C685 H713 0.929 . S
C686 C685 1.398 . S
C686 C687 1.352 . S
C687 C686 1.352 . S
C687 C688 1.384 . S
C687 H714 0.930 . S
C688 C683 1.407 . S
C688 C687 1.384 . S
C688 H715 0.929 . S
C689 O702 1.241 . S
C689 O703 1.273 . S
C690 O704 1.251 . S
C690 O705 1.268 . S
C691 Nd681 2.836 . S
C691 C692 1.498 . S
C691 O706 1.258 . S
C691 O707 1.239 . S
C692 C691 1.498 . S
C692 C693 1.366 . S
C692 C697 1.407 . S
C693 C692 1.366 . S
C693 C694 1.392 . S
C693 H716 0.930 . S
C694 C693 1.392 . S
C694 C695 1.398 . S
C694 H717 0.929 . S
C695 C694 1.398 . S
C695 C696 1.352 . S
C696 C695 1.352 . S
C696 C697 1.384 . S
C696 H718 0.930 1_655 S
C697 C692 1.407 . S
C697 C696 1.384 . S
C697 H719 0.929 . S
C698 O708 1.241 . S
C698 O709 1.273 . S
C699 O710 1.251 . S
C699 O711 1.268 . S
O700 Nd680 2.500 . S
O700 C682 1.258 . S
O701 Nd680 2.492 . S
O701 C682 1.239 . S
O702 Nd680 2.487 . S
O702 C689 1.241 . S
O703 Nd680 2.682 . S
O703 Nd681 2.414 . S
O703 C689 1.273 . S
O704 Nd680 2.410 . S
O704 C690 1.251 . S
O705 Nd681 2.424 . S
O705 C690 1.268 . S
O706 Nd681 2.500 . S
O706 C691 1.258 . S
O707 Nd681 2.492 . S
O707 C691 1.239 . S
O708 Nd681 2.487 . S
O708 C698 1.241 . S
O709 Nd680 2.414 . S
O709 Nd681 2.682 . S
O709 C698 1.273 . S
O710 Nd681 2.410 . S
O710 C699 1.251 . S
O711 Nd680 2.424 . S
O711 C699 1.268 . S
H712 C684 0.930 . S
H713 C685 0.929 . S
H714 C687 0.930 . S
H715 C688 0.929 . S
H716 C693 0.930 . S
H717 C694 0.929 . S
H718 C696 0.930 1_455 S
H719 C697 0.929 . S
H720 C738 0.951 . S
H721 C740 0.951 . S
H722 C742 0.950 . S
H723 C743 0.950 . S
H724 C745 0.950 . S
H725 C748 0.950 . S
H726 C749 0.950 . S
H727 C751 0.950 . S
H728 C752 0.950 . S
H729 C753 0.951 . S
H730 C755 0.951 . S
H731 C757 0.950 . S
H732 C758 0.950 . S
H733 C760 0.950 . S
H734 C763 0.950 . S
H735 C764 0.950 . S
H736 C766 0.950 . S
H737 C767 0.950 . S
C738 H720 0.951 . S
C738 C739 1.366 . S
C738 C740 1.388 . S
C739 C738 1.366 . S
C739 C743 1.385 . S
C740 H721 0.951 . S
C740 C738 1.388 . S
C740 C741 1.366 . S
C741 C740 1.366 . S
C741 C742 1.414 . S
C741 C744 1.499 . S
C742 H722 0.950 . S
C742 C741 1.414 . S
C742 C743 1.374 . S
C743 H723 0.950 . S
C743 C739 1.385 . S
C743 C742 1.374 . S
C744 C741 1.499 . S
C744 C745 1.373 . S
C744 C746 1.389 . S
C745 H724 0.950 . S
C745 C744 1.373 . S
C745 C761 1.377 . S
C746 C744 1.389 . S
C746 C747 1.524 . S
C746 C760 1.377 . S
C747 C746 1.524 . S
C747 C748 1.397 . S
C747 C752 1.363 . S
C748 H725 0.950 . S
C748 C747 1.397 . S
C748 C749 1.334 . S
C749 H726 0.950 . S
C749 C748 1.334 . S
C749 C750 1.287 . S
C750 C749 1.287 . S
C750 C751 1.524 . S
C750 H769 0.913 . S
C751 H727 0.950 . S
C751 C750 1.524 . S
C751 C752 1.415 . S
C752 H728 0.950 . S
C752 C747 1.363 . S
C752 C751 1.415 . S
C753 H729 0.951 . S
C753 C754 1.366 . S
C753 C755 1.388 . S
C754 C753 1.366 . S
C754 C758 1.385 . S
C755 H730 0.951 . S
C755 C753 1.388 . S
C755 C756 1.366 . S
C756 C755 1.366 . S
C756 C757 1.414 . S
C756 C759 1.499 . S
C757 H731 0.950 . S
C757 C756 1.414 . S
C757 C758 1.374 . S
C758 H732 0.950 . S
C758 C754 1.385 . S
C758 C757 1.374 . S
C759 C756 1.499 . S
C759 C760 1.373 . S
C759 C761 1.389 . S
C760 H733 0.950 . S
C760 C746 1.377 . S
C760 C759 1.373 . S
C761 C745 1.377 . S
C761 C759 1.389 . S
C761 C762 1.524 . S
C762 C761 1.524 . S
C762 C763 1.397 . S
C762 C767 1.363 . S
C763 H734 0.950 . S
C763 C762 1.397 . S
C763 C764 1.334 . S
C764 H735 0.950 . S
C764 C763 1.334 . S
C764 C765 1.287 . S
C765 C764 1.287 . S
C765 C766 1.524 . S
C765 H768 0.999 . S
C766 H736 0.950 . S
C766 C765 1.524 . S
C766 C767 1.415 . S
C767 H737 0.950 . S
C767 C762 1.363 . S
C767 C766 1.415 . S
H768 C765 0.999 . S
H769 C750 0.913 . S
H770 C788 0.951 . S
H771 C790 0.951 . S
H772 C792 0.950 . S
H773 C793 0.950 . S
H774 C795 0.950 . S
H775 C798 0.950 . S
H776 C799 0.950 . S
H777 C801 0.950 . S
H778 C802 0.950 . S
H779 C803 0.951 . S
H780 C805 0.951 . S
H781 C807 0.950 . S
H782 C808 0.950 . S
H783 C810 0.950 . S
H784 C813 0.950 . S
H785 C814 0.950 . S
H786 C816 0.950 . S
H787 C817 0.950 . S
C788 H770 0.951 . S
C788 C789 1.366 . S
C788 C790 1.388 . S
C789 C788 1.366 . S
C789 C793 1.385 . S
C790 H771 0.951 . S
C790 C788 1.388 . S
C790 C791 1.366 . S
C791 C790 1.366 . S
C791 C792 1.414 . S
C791 C794 1.499 . S
C792 H772 0.950 . S
C792 C791 1.414 . S
C792 C793 1.374 . S
C793 H773 0.950 . S
C793 C789 1.385 . S
C793 C792 1.374 . S
C794 C791 1.499 . S
C794 C795 1.373 . S
C794 C796 1.389 . S
C795 H774 0.950 . S
C795 C794 1.373 . S
C795 C811 1.377 . S
C796 C794 1.389 . S
C796 C797 1.524 . S
C796 C810 1.377 . S
C797 C796 1.524 . S
C797 C798 1.397 . S
C797 C802 1.363 . S
C798 H775 0.950 . S
C798 C797 1.397 . S
C798 C799 1.334 . S
C799 H776 0.950 . S
C799 C798 1.334 . S
C799 C800 1.287 . S
C800 C799 1.287 . S
C800 C801 1.524 . S
C800 H819 0.913 . S
C801 H777 0.950 . S
C801 C800 1.524 . S
C801 C802 1.415 . S
C802 H778 0.950 . S
C802 C797 1.363 . S
C802 C801 1.415 . S
C803 H779 0.951 . S
C803 C804 1.366 . S
C803 C805 1.388 . S
C804 C803 1.366 . S
C804 C808 1.385 . S
C805 H780 0.951 . S
C805 C803 1.388 . S
C805 C806 1.366 . S
C806 C805 1.366 . S
C806 C807 1.414 . S
C806 C809 1.499 . S
C807 H781 0.950 . S
C807 C806 1.414 . S
C807 C808 1.374 . S
C808 H782 0.950 . S
C808 C804 1.385 . S
C808 C807 1.374 . S
C809 C806 1.499 . S
C809 C810 1.373 . S
C809 C811 1.389 . S
C810 H783 0.950 . S
C810 C796 1.377 . S
C810 C809 1.373 . S
C811 C795 1.377 . S
C811 C809 1.389 . S
C811 C812 1.524 . S
C812 C811 1.524 . S
C812 C813 1.397 . S
C812 C817 1.363 . S
C813 H784 0.950 . S
C813 C812 1.397 . S
C813 C814 1.334 . S
C814 H785 0.950 . S
C814 C813 1.334 . S
C814 C815 1.287 . S
C815 C814 1.287 . S
C815 C816 1.524 . S
C815 H818 0.999 . S
C816 H786 0.950 . S
C816 C815 1.524 . S
C816 C817 1.415 . S
C817 H787 0.950 . S
C817 C812 1.363 . S
C817 C816 1.415 . S
H818 C815 0.999 . S
H819 C800 0.913 . S
H820 C838 0.951 . S
H821 C840 0.951 . S
H822 C842 0.950 . S
H823 C843 0.950 . S
H824 C845 0.950 . S
H825 C848 0.950 . S
H826 C849 0.950 . S
H827 C851 0.950 . S
H828 C852 0.950 . S
H829 C853 0.951 . S
H830 C855 0.951 . S
H831 C857 0.950 . S
H832 C858 0.950 . S
H833 C860 0.950 . S
H834 C863 0.950 . S
H835 C864 0.950 . S
H836 C866 0.950 . S
H837 C867 0.950 . S
C838 H820 0.951 . S
C838 C839 1.366 . S
C838 C840 1.388 . S
C839 C838 1.366 . S
C839 C843 1.385 . S
C840 H821 0.951 . S
C840 C838 1.388 . S
C840 C841 1.366 . S
C841 C840 1.366 . S
C841 C842 1.414 . S
C841 C844 1.499 . S
C842 H822 0.950 . S
C842 C841 1.414 . S
C842 C843 1.374 . S
C843 H823 0.950 . S
C843 C839 1.385 . S
C843 C842 1.374 . S
C844 C841 1.499 . S
C844 C845 1.373 . S
C844 C846 1.389 . S
C845 H824 0.950 . S
C845 C844 1.373 . S
C845 C861 1.377 . S
C846 C844 1.389 . S
C846 C847 1.524 . S
C846 C860 1.377 . S
C847 C846 1.524 . S
C847 C848 1.397 . S
C847 C852 1.363 . S
C848 H825 0.950 . S
C848 C847 1.397 . S
C848 C849 1.334 . S
C849 H826 0.950 . S
C849 C848 1.334 . S
C849 C850 1.287 . S
C850 C849 1.287 . S
C850 C851 1.524 . S
C850 H869 0.913 . S
C851 H827 0.950 . S
C851 C850 1.524 . S
C851 C852 1.415 . S
C852 H828 0.950 . S
C852 C847 1.363 . S
C852 C851 1.415 . S
C853 H829 0.951 . S
C853 C854 1.366 . S
C853 C855 1.388 . S
C854 C853 1.366 . S
C854 C858 1.385 . S
C855 H830 0.951 . S
C855 C853 1.388 . S
C855 C856 1.366 . S
C856 C855 1.366 . S
C856 C857 1.414 . S
C856 C859 1.499 . S
C857 H831 0.950 . S
C857 C856 1.414 . S
C857 C858 1.374 . S
C858 H832 0.950 . S
C858 C854 1.385 . S
C858 C857 1.374 . S
C859 C856 1.499 . S
C859 C860 1.373 . S
C859 C861 1.389 . S
C860 H833 0.950 . S
C860 C846 1.377 . S
C860 C859 1.373 . S
C861 C845 1.377 . S
C861 C859 1.389 . S
C861 C862 1.524 . S
C862 C861 1.524 . S
C862 C863 1.397 . S
C862 C867 1.363 . S
C863 H834 0.950 . S
C863 C862 1.397 . S
C863 C864 1.334 . S
C864 H835 0.950 . S
C864 C863 1.334 . S
C864 C865 1.287 . S
C865 C864 1.287 . S
C865 C866 1.524 . S
C865 H868 0.999 . S
C866 H836 0.950 . S
C866 C865 1.524 . S
C866 C867 1.415 . S
C867 H837 0.950 . S
C867 C862 1.363 . S
C867 C866 1.415 . S
H868 C865 0.999 . S
H869 C850 0.913 . S
H870 C888 0.951 . S
H871 C890 0.951 . S
H872 C892 0.950 . S
H873 C893 0.950 . S
H874 C895 0.950 . S
H875 C898 0.950 . S
H876 C899 0.950 . S
H877 C901 0.950 . S
H878 C902 0.950 . S
H879 C903 0.951 . S
H880 C905 0.951 . S
H881 C907 0.950 . S
H882 C908 0.950 . S
H883 C910 0.950 . S
H884 C913 0.950 . S
H885 C914 0.950 . S
H886 C916 0.950 . S
H887 C917 0.950 . S
C888 H870 0.951 . S
C888 C889 1.366 . S
C888 C890 1.388 . S
C889 C888 1.366 . S
C889 C893 1.385 . S
C890 H871 0.951 . S
C890 C888 1.388 . S
C890 C891 1.366 . S
C891 C890 1.366 . S
C891 C892 1.414 . S
C891 C894 1.499 . S
C892 H872 0.950 . S
C892 C891 1.414 . S
C892 C893 1.374 . S
C893 H873 0.950 . S
C893 C889 1.385 . S
C893 C892 1.374 . S
C894 C891 1.499 . S
C894 C895 1.373 . S
C894 C896 1.389 . S
C895 H874 0.950 . S
C895 C894 1.373 . S
C895 C911 1.377 . S
C896 C894 1.389 . S
C896 C897 1.524 . S
C896 C910 1.377 . S
C897 C896 1.524 . S
C897 C898 1.397 . S
C897 C902 1.363 . S
C898 H875 0.950 . S
C898 C897 1.397 . S
C898 C899 1.334 . S
C899 H876 0.950 . S
C899 C898 1.334 . S
C899 C900 1.287 . S
C900 C899 1.287 . S
C900 C901 1.524 . S
C900 H919 0.913 . S
C901 H877 0.950 . S
C901 C900 1.524 . S
C901 C902 1.415 . S
C902 H878 0.950 . S
C902 C897 1.363 . S
C902 C901 1.415 . S
C903 H879 0.951 . S
C903 C904 1.366 . S
C903 C905 1.388 . S
C904 C903 1.366 . S
C904 C908 1.385 . S
C905 H880 0.951 . S
C905 C903 1.388 . S
C905 C906 1.366 . S
C906 C905 1.366 . S
C906 C907 1.414 . S
C906 C909 1.499 . S
C907 H881 0.950 . S
C907 C906 1.414 . S
C907 C908 1.374 . S
C908 H882 0.950 . S
C908 C904 1.385 . S
C908 C907 1.374 . S
C909 C906 1.499 . S
C909 C910 1.373 . S
C909 C911 1.389 . S
C910 H883 0.950 . S
C910 C896 1.377 . S
C910 C909 1.373 . S
C911 C895 1.377 . S
C911 C909 1.389 . S
C911 C912 1.524 . S
C912 C911 1.524 . S
C912 C913 1.397 . S
C912 C917 1.363 . S
C913 H884 0.950 . S
C913 C912 1.397 . S
C913 C914 1.334 . S
C914 H885 0.950 . S
C914 C913 1.334 . S
C914 C915 1.287 . S
C915 C914 1.287 . S
C915 C916 1.524 . S
C915 H918 0.999 . S
C916 H886 0.950 . S
C916 C915 1.524 . S
C916 C917 1.415 . S
C917 H887 0.950 . S
C917 C912 1.363 . S
C917 C916 1.415 . S
H918 C915 0.999 . S
H919 C900 0.913 . S
H920 C938 0.951 . S
H921 C940 0.951 . S
H922 C942 0.950 . S
H923 C943 0.950 . S
H924 C945 0.950 . S
H925 C948 0.950 . S
H926 C949 0.950 . S
H927 C951 0.950 . S
H928 C952 0.950 . S
H929 C953 0.951 . S
H930 C955 0.951 . S
H931 C957 0.950 . S
H932 C958 0.950 . S
H933 C960 0.950 . S
H934 C963 0.950 . S
H935 C964 0.950 . S
H936 C966 0.950 . S
H937 C967 0.950 . S
C938 H920 0.951 . S
C938 C939 1.366 . S
C938 C940 1.388 . S
C939 C938 1.366 . S
C939 C943 1.385 . S
C940 H921 0.951 . S
C940 C938 1.388 . S
C940 C941 1.366 . S
C941 C940 1.366 . S
C941 C942 1.414 . S
C941 C944 1.499 . S
C942 H922 0.950 . S
C942 C941 1.414 . S
C942 C943 1.374 . S
C943 H923 0.950 . S
C943 C939 1.385 . S
C943 C942 1.374 . S
C944 C941 1.499 . S
C944 C945 1.373 . S
C944 C946 1.389 . S
C945 H924 0.950 . S
C945 C944 1.373 . S
C945 C961 1.377 . S
C946 C944 1.389 . S
C946 C947 1.524 . S
C946 C960 1.377 . S
C947 C946 1.524 . S
C947 C948 1.397 . S
C947 C952 1.363 . S
C948 H925 0.950 . S
C948 C947 1.397 . S
C948 C949 1.334 . S
C949 H926 0.950 . S
C949 C948 1.334 . S
C949 C950 1.287 . S
C950 C949 1.287 . S
C950 C951 1.524 . S
C950 H969 0.913 . S
C951 H927 0.950 . S
C951 C950 1.524 . S
C951 C952 1.415 . S
C952 H928 0.950 . S
C952 C947 1.363 . S
C952 C951 1.415 . S
C953 H929 0.951 . S
C953 C954 1.366 . S
C953 C955 1.388 . S
C954 C953 1.366 . S
C954 C958 1.385 . S
C955 H930 0.951 . S
C955 C953 1.388 . S
C955 C956 1.366 . S
C956 C955 1.366 . S
C956 C957 1.414 . S
C956 C959 1.499 . S
C957 H931 0.950 . S
C957 C956 1.414 . S
C957 C958 1.374 . S
C958 H932 0.950 . S
C958 C954 1.385 . S
C958 C957 1.374 . S
C959 C956 1.499 . S
C959 C960 1.373 . S
C959 C961 1.389 . S
C960 H933 0.950 . S
C960 C946 1.377 . S
C960 C959 1.373 . S
C961 C945 1.377 . S
C961 C959 1.389 . S
C961 C962 1.524 . S
C962 C961 1.524 . S
C962 C963 1.397 . S
C962 C967 1.363 . S
C963 H934 0.950 . S
C963 C962 1.397 . S
C963 C964 1.334 . S
C964 H935 0.950 . S
C964 C963 1.334 . S
C964 C965 1.287 . S
C965 C964 1.287 . S
C965 C966 1.524 . S
C965 H968 0.999 . S
C966 H936 0.950 . S
C966 C965 1.524 . S
C966 C967 1.415 . S
C967 H937 0.950 . S
C967 C962 1.363 . S
C967 C966 1.415 . S
H968 C965 0.999 . S
H969 C950 0.913 . S
H970 C988 0.951 . S
H971 C990 0.951 . S
H972 C992 0.950 . S
H973 C993 0.950 . S
H974 C995 0.950 . S
H975 C998 0.950 . S
H976 C999 0.950 . S
H977 C1001 0.950 . S
H978 C1002 0.950 . S
H979 C1003 0.951 . S
H980 C1005 0.951 . S
H981 C1007 0.950 . S
H982 C1008 0.950 . S
H983 C1010 0.950 . S
H984 C1013 0.950 . S
H985 C1014 0.950 . S
H986 C1016 0.950 . S
H987 C1017 0.950 . S
C988 H970 0.951 . S
C988 C989 1.366 . S
C988 C990 1.388 . S
C989 C988 1.366 . S
C989 C993 1.385 . S
C990 H971 0.951 . S
C990 C988 1.388 . S
C990 C991 1.366 . S
C991 C990 1.366 . S
C991 C992 1.414 . S
C991 C994 1.499 . S
C992 H972 0.950 . S
C992 C991 1.414 . S
C992 C993 1.374 . S
C993 H973 0.950 . S
C993 C989 1.385 . S
C993 C992 1.374 . S
C994 C991 1.499 . S
C994 C995 1.373 . S
C994 C996 1.389 . S
C995 H974 0.950 . S
C995 C994 1.373 . S
C995 C1011 1.377 . S
C996 C994 1.389 . S
C996 C997 1.524 . S
C996 C1010 1.377 . S
C997 C996 1.524 . S
C997 C998 1.397 . S
C997 C1002 1.363 . S
C998 H975 0.950 . S
C998 C997 1.397 . S
C998 C999 1.334 . S
C999 H976 0.950 . S
C999 C998 1.334 . S
C999 C1000 1.287 . S
C1000 C999 1.287 . S
C1000 C1001 1.524 . S
C1000 H1019 0.913 . S
C1001 H977 0.950 . S
C1001 C1000 1.524 . S
C1001 C1002 1.415 . S
C1002 H978 0.950 . S
C1002 C997 1.363 . S
C1002 C1001 1.415 . S
C1003 H979 0.951 . S
C1003 C1004 1.366 . S
C1003 C1005 1.388 . S
C1004 C1003 1.366 . S
C1004 C1008 1.385 . S
C1005 H980 0.951 . S
C1005 C1003 1.388 . S
C1005 C1006 1.366 . S
C1006 C1005 1.366 . S
C1006 C1007 1.414 . S
C1006 C1009 1.499 . S
C1007 H981 0.950 . S
C1007 C1006 1.414 . S
C1007 C1008 1.374 . S
C1008 H982 0.950 . S
C1008 C1004 1.385 . S
C1008 C1007 1.374 . S
C1009 C1006 1.499 . S
C1009 C1010 1.373 . S
C1009 C1011 1.389 . S
C1010 H983 0.950 . S
C1010 C996 1.377 . S
C1010 C1009 1.373 . S
C1011 C995 1.377 . S
C1011 C1009 1.389 . S
C1011 C1012 1.524 . S
C1012 C1011 1.524 . S
C1012 C1013 1.397 . S
C1012 C1017 1.363 . S
C1013 H984 0.950 . S
C1013 C1012 1.397 . S
C1013 C1014 1.334 . S
C1014 H985 0.950 . S
C1014 C1013 1.334 . S
C1014 C1015 1.287 . S
C1015 C1014 1.287 . S
C1015 C1016 1.524 . S
C1015 H1018 0.999 . S
C1016 H986 0.950 . S
C1016 C1015 1.524 . S
C1016 C1017 1.415 . S
C1017 H987 0.950 . S
C1017 C1012 1.363 . S
C1017 C1016 1.415 . S
H1018 C1015 0.999 . S
H1019 C1000 0.913 . S
H1020 C1038 0.951 . S
H1021 C1040 0.951 . S
H1022 C1042 0.950 . S
H1023 C1043 0.950 . S
H1024 C1045 0.950 . S
H1025 C1048 0.950 . S
H1026 C1049 0.950 . S
H1027 C1051 0.950 . S
H1028 C1052 0.950 . S
H1029 C1053 0.951 . S
H1030 C1055 0.951 . S
H1031 C1057 0.950 . S
H1032 C1058 0.950 . S
H1033 C1060 0.950 . S
H1034 C1063 0.950 . S
H1035 C1064 0.950 . S
H1036 C1066 0.950 . S
H1037 C1067 0.950 . S
C1038 H1020 0.951 . S
C1038 C1039 1.366 . S
C1038 C1040 1.388 . S
C1039 C1038 1.366 . S
C1039 C1043 1.385 . S
C1040 H1021 0.951 . S
C1040 C1038 1.388 . S
C1040 C1041 1.353 1_565 S
C1041 C1040 1.353 1_545 S
C1041 C1042 1.407 . S
C1041 C1044 1.518 . S
C1042 H1022 0.950 . S
C1042 C1041 1.407 . S
C1042 C1043 1.374 1_545 S
C1043 H1023 0.950 . S
C1043 C1039 1.385 . S
C1043 C1042 1.374 1_565 S
C1044 C1041 1.518 . S
C1044 C1045 1.373 . S
C1044 C1046 1.389 . S
C1045 H1024 0.950 . S
C1045 C1044 1.373 . S
C1045 C1061 1.377 . S
C1046 C1044 1.389 . S
C1046 C1047 1.524 . S
C1046 C1060 1.377 . S
C1047 C1046 1.524 . S
C1047 C1048 1.397 . S
C1047 C1052 1.363 . S
C1048 H1025 0.950 . S
C1048 C1047 1.397 . S
C1048 C1049 1.334 . S
C1049 H1026 0.950 . S
C1049 C1048 1.334 . S
C1049 C1050 1.287 . S
C1050 C1049 1.287 . S
C1050 C1051 1.524 . S
C1050 H1069 0.913 . S
C1051 H1027 0.950 . S
C1051 C1050 1.524 . S
C1051 C1052 1.415 . S
C1052 H1028 0.950 . S
C1052 C1047 1.363 . S
C1052 C1051 1.415 . S
C1053 H1029 0.951 . S
C1053 C1054 1.366 . S
C1053 C1055 1.388 . S
C1054 C1053 1.366 . S
C1054 C1058 1.385 . S
C1055 H1030 0.951 . S
C1055 C1053 1.388 . S
C1055 C1056 1.366 . S
C1056 C1055 1.366 . S
C1056 C1057 1.414 . S
C1056 C1059 1.499 . S
C1057 H1031 0.950 . S
C1057 C1056 1.414 . S
C1057 C1058 1.374 . S
C1058 H1032 0.950 . S
C1058 C1054 1.385 . S
C1058 C1057 1.374 . S
C1059 C1056 1.499 . S
C1059 C1060 1.373 . S
C1059 C1061 1.389 . S
C1060 H1033 0.950 . S
C1060 C1046 1.377 . S
C1060 C1059 1.373 . S
C1061 C1045 1.377 . S
C1061 C1059 1.389 . S
C1061 C1062 1.524 . S
C1062 C1061 1.524 . S
C1062 C1063 1.397 . S
C1062 C1067 1.363 . S
C1063 H1034 0.950 . S
C1063 C1062 1.397 . S
C1063 C1064 1.334 . S
C1064 H1035 0.950 . S
C1064 C1063 1.334 . S
C1064 C1065 1.287 . S
C1065 C1064 1.287 . S
C1065 C1066 1.524 . S
C1065 H1068 0.999 . S
C1066 H1036 0.950 . S
C1066 C1065 1.524 . S
C1066 C1067 1.415 . S
C1067 H1037 0.950 . S
C1067 C1062 1.363 . S
C1067 C1066 1.415 . S
H1068 C1065 0.999 . S
H1069 C1050 0.913 . S
H1070 C1088 0.951 . S
H1071 C1090 0.951 . S
H1072 C1092 0.950 . S
H1073 C1093 0.950 . S
H1074 C1095 0.950 . S
H1075 C1098 0.950 . S
H1076 C1099 0.950 . S
H1077 C1101 0.950 . S
H1078 C1102 0.950 . S
H1079 C1103 0.951 . S
H1080 C1105 0.951 . S
H1081 C1107 0.950 . S
H1082 C1108 0.950 . S
H1083 C1110 0.950 . S
H1084 C1113 0.950 . S
H1085 C1114 0.950 . S
H1086 C1116 0.950 . S
H1087 C1117 0.950 . S
C1088 H1070 0.951 . S
C1088 C1089 1.366 . S
C1088 C1090 1.388 . S
C1089 C1088 1.366 . S
C1089 C1093 1.385 . S
C1090 H1071 0.951 . S
C1090 C1088 1.388 . S
C1090 C1091 1.366 . S
C1091 C1090 1.366 . S
C1091 C1092 1.414 . S
C1091 C1094 1.499 . S
C1092 H1072 0.950 . S
C1092 C1091 1.414 . S
C1092 C1093 1.374 . S
C1093 H1073 0.950 . S
C1093 C1089 1.385 . S
C1093 C1092 1.374 . S
C1094 C1091 1.499 . S
C1094 C1095 1.373 1_455 S
C1094 C1096 1.389 . S
C1095 H1074 0.950 . S
C1095 C1094 1.373 1_655 S
C1095 C1111 1.377 . S
C1096 C1094 1.389 . S
C1096 C1097 1.524 . S
C1096 C1110 1.377 1_455 S
C1097 C1096 1.524 . S
C1097 C1098 1.397 . S
C1097 C1102 1.363 . S
C1098 H1075 0.950 . S
C1098 C1097 1.397 . S
C1098 C1099 1.334 . S
C1099 H1076 0.950 . S
C1099 C1098 1.334 . S
C1099 C1100 1.287 . S
C1100 C1099 1.287 . S
C1100 C1101 1.524 . S
C1100 H1119 0.913 . S
C1101 H1077 0.950 . S
C1101 C1100 1.524 . S
C1101 C1102 1.415 . S
C1102 H1078 0.950 . S
C1102 C1097 1.363 . S
C1102 C1101 1.415 . S
C1103 H1079 0.951 . S
C1103 C1104 1.366 . S
C1103 C1105 1.388 . S
C1104 C1103 1.366 . S
C1104 C1108 1.385 . S
C1105 H1080 0.951 . S
C1105 C1103 1.388 . S
C1105 C1106 1.366 . S
C1106 C1105 1.366 . S
C1106 C1107 1.414 . S
C1106 C1109 1.499 . S
C1107 H1081 0.950 . S
C1107 C1106 1.414 . S
C1107 C1108 1.374 . S
C1108 H1082 0.950 . S
C1108 C1104 1.385 . S
C1108 C1107 1.374 . S
C1109 C1106 1.499 . S
C1109 C1110 1.373 . S
C1109 C1111 1.389 . S
C1110 H1083 0.950 . S
C1110 C1096 1.377 1_655 S
C1110 C1109 1.373 . S
C1111 C1095 1.377 . S
C1111 C1109 1.389 . S
C1111 C1112 1.524 . S
C1112 C1111 1.524 . S
C1112 C1113 1.397 . S
C1112 C1117 1.363 . S
C1113 H1084 0.950 . S
C1113 C1112 1.397 . S
C1113 C1114 1.334 . S
C1114 H1085 0.950 . S
C1114 C1113 1.334 . S
C1114 C1115 1.287 . S
C1115 C1114 1.287 . S
C1115 C1116 1.524 . S
C1115 H1118 0.999 . S
C1116 H1086 0.950 . S
C1116 C1115 1.524 . S
C1116 C1117 1.415 . S
C1117 H1087 0.950 . S
C1117 C1112 1.363 . S
C1117 C1116 1.415 . S
H1118 C1115 0.999 . S
H1119 C1100 0.913 . S
H1120 C1138 0.951 1_455 S
H1121 C1140 0.951 . S
H1122 C1142 0.950 . S
H1123 C1143 0.950 . S
H1124 C1145 0.950 . S
H1125 C1148 0.950 . S
H1126 C1149 0.950 . S
H1127 C1151 0.950 . S
H1128 C1152 0.950 . S
H1129 C1153 0.951 . S
H1130 C1155 0.951 . S
H1131 C1157 0.950 . S
H1132 C1158 0.950 . S
H1133 C1160 0.950 . S
H1134 C1163 0.950 . S
H1135 C1164 0.950 . S
H1136 C1166 0.950 . S
H1137 C1167 0.950 . S
C1138 H1120 0.951 1_655 S
C1138 C1139 1.366 1_655 S
C1138 C1140 1.388 . S
C1139 C1138 1.366 1_455 S
C1139 C1143 1.385 . S
C1140 H1121 0.951 . S
C1140 C1138 1.388 . S
C1140 C1141 1.366 . S
C1141 C1140 1.366 . S
C1141 C1142 1.414 . S
C1141 C1144 1.499 . S
C1142 H1122 0.950 . S
C1142 C1141 1.414 . S
C1142 C1143 1.374 1_655 S
C1143 H1123 0.950 . S
C1143 C1139 1.385 . S
C1143 C1142 1.374 1_455 S
C1144 C1141 1.499 . S
C1144 C1145 1.373 . S
C1144 C1146 1.389 . S
C1145 H1124 0.950 . S
C1145 C1144 1.373 . S
C1145 C1161 1.377 . S
C1146 C1144 1.389 . S
C1146 C1147 1.524 . S
C1146 C1160 1.377 . S
C1147 C1146 1.524 . S
C1147 C1148 1.397 . S
C1147 C1152 1.363 . S
C1148 H1125 0.950 . S
C1148 C1147 1.397 . S
C1148 C1149 1.334 . S
C1149 H1126 0.950 . S
C1149 C1148 1.334 . S
C1149 C1150 1.287 . S
C1150 C1149 1.287 . S
C1150 C1151 1.524 . S
C1150 H1169 0.913 . S
C1151 H1127 0.950 . S
C1151 C1150 1.524 . S
C1151 C1152 1.415 . S
C1152 H1128 0.950 . S
C1152 C1147 1.363 . S
C1152 C1151 1.415 . S
C1153 H1129 0.951 . S
C1153 C1154 1.366 . S
C1153 C1155 1.388 . S
C1154 C1153 1.366 . S
C1154 C1158 1.385 . S
C1155 H1130 0.951 . S
C1155 C1153 1.388 . S
C1155 C1156 1.366 . S
C1156 C1155 1.366 . S
C1156 C1157 1.414 . S
C1156 C1159 1.499 . S
C1157 H1131 0.950 . S
C1157 C1156 1.414 . S
C1157 C1158 1.374 . S
C1158 H1132 0.950 . S
C1158 C1154 1.385 . S
C1158 C1157 1.374 . S
C1159 C1156 1.499 . S
C1159 C1160 1.373 . S
C1159 C1161 1.389 . S
C1160 H1133 0.950 . S
C1160 C1146 1.377 . S
C1160 C1159 1.373 . S
C1161 C1145 1.377 . S
C1161 C1159 1.389 . S
C1161 C1162 1.524 . S
C1162 C1161 1.524 . S
C1162 C1163 1.397 . S
C1162 C1167 1.363 . S
C1163 H1134 0.950 . S
C1163 C1162 1.397 . S
C1163 C1164 1.334 . S
C1164 H1135 0.950 . S
C1164 C1163 1.334 . S
C1164 C1165 1.287 . S
C1165 C1164 1.287 . S
C1165 C1166 1.524 . S
C1165 H1168 0.999 . S
C1166 H1136 0.950 . S
C1166 C1165 1.524 . S
C1166 C1167 1.415 . S
C1167 H1137 0.950 . S
C1167 C1162 1.363 . S
C1167 C1166 1.415 . S
H1168 C1165 0.999 . S
H1169 C1150 0.913 . S
H1170 C1188 0.951 . S
H1171 C1190 0.951 . S
H1172 C1192 0.950 . S
H1173 C1193 0.950 . S
H1174 C1195 0.950 . S
H1175 C1198 0.950 . S
H1176 C1199 0.950 . S
H1177 C1201 0.950 . S
H1178 C1202 0.950 . S
H1179 C1203 0.951 . S
H1180 C1205 0.951 . S
H1181 C1207 0.950 . S
H1182 C1208 0.950 . S
H1183 C1210 0.950 . S
H1184 C1213 0.950 . S
H1185 C1214 0.950 . S
H1186 C1216 0.950 . S
H1187 C1217 0.950 . S
C1188 H1170 0.951 . S
C1188 C1189 1.366 . S
C1188 C1190 1.388 . S
C1189 C1188 1.366 . S
C1189 C1193 1.385 . S
C1190 H1171 0.951 . S
C1190 C1188 1.388 . S
C1190 C1191 1.366 . S
C1191 C1190 1.366 . S
C1191 C1192 1.414 . S
C1191 C1194 1.499 . S
C1192 H1172 0.950 . S
C1192 C1191 1.414 . S
C1192 C1193 1.374 . S
C1193 H1173 0.950 . S
C1193 C1189 1.385 . S
C1193 C1192 1.374 . S
C1194 C1191 1.499 . S
C1194 C1195 1.373 . S
C1194 C1196 1.389 . S
C1195 H1174 0.950 . S
C1195 C1194 1.373 . S
C1195 C1211 1.377 . S
C1196 C1194 1.389 . S
C1196 C1197 1.524 . S
C1196 C1210 1.377 . S
C1197 C1196 1.524 . S
C1197 C1198 1.397 . S
C1197 C1202 1.363 . S
C1198 H1175 0.950 . S
C1198 C1197 1.397 . S
C1198 C1199 1.334 . S
C1199 H1176 0.950 . S
C1199 C1198 1.334 . S
C1199 C1200 1.287 . S
C1200 C1199 1.287 . S
C1200 C1201 1.524 . S
C1200 H1219 0.913 . S
C1201 H1177 0.950 . S
C1201 C1200 1.524 . S
C1201 C1202 1.415 . S
C1202 H1178 0.950 . S
C1202 C1197 1.363 . S
C1202 C1201 1.415 . S
C1203 H1179 0.951 . S
C1203 C1204 1.366 . S
C1203 C1205 1.388 . S
C1204 C1203 1.366 . S
C1204 C1208 1.385 . S
C1205 H1180 0.951 . S
C1205 C1203 1.388 . S
C1205 C1206 1.366 . S
C1206 C1205 1.366 . S
C1206 C1207 1.414 . S
C1206 C1209 1.499 . S
C1207 H1181 0.950 . S
C1207 C1206 1.414 . S
C1207 C1208 1.374 . S
C1208 H1182 0.950 . S
C1208 C1204 1.385 . S
C1208 C1207 1.374 . S
C1209 C1206 1.499 . S
C1209 C1210 1.373 . S
C1209 C1211 1.389 . S
C1210 H1183 0.950 . S
C1210 C1196 1.377 . S
C1210 C1209 1.373 . S
C1211 C1195 1.377 . S
C1211 C1209 1.389 . S
C1211 C1212 1.524 . S
C1212 C1211 1.524 . S
C1212 C1213 1.397 . S
C1212 C1217 1.363 . S
C1213 H1184 0.950 . S
C1213 C1212 1.397 . S
C1213 C1214 1.334 . S
C1214 H1185 0.950 . S
C1214 C1213 1.334 . S
C1214 C1215 1.287 . S
C1215 C1214 1.287 . S
C1215 C1216 1.524 . S
C1215 H1218 0.999 . S
C1216 H1186 0.950 . S
C1216 C1215 1.524 . S
C1216 C1217 1.415 . S
C1217 H1187 0.950 . S
C1217 C1212 1.363 . S
C1217 C1216 1.415 . S
H1218 C1215 0.999 . S
H1219 C1200 0.913 . S
H1220 C1238 0.951 . S
H1221 C1240 0.951 . S
H1222 C1242 0.950 . S
H1223 C1243 0.950 . S
H1224 C1245 0.950 . S
H1225 C1248 0.950 . S
H1226 C1249 0.950 . S
H1227 C1251 0.950 . S
H1228 C1252 0.950 . S
H1229 C1253 0.951 . S
H1230 C1255 0.951 . S
H1231 C1257 0.950 . S
H1232 C1258 0.950 . S
H1233 C1260 0.950 . S
H1234 C1263 0.950 . S
H1235 C1264 0.950 . S
H1236 C1266 0.950 . S
H1237 C1267 0.950 . S
C1238 H1220 0.951 . S
C1238 C1239 1.366 . S
C1238 C1240 1.388 . S
C1239 C1238 1.366 . S
C1239 C1243 1.385 . S
C1240 H1221 0.951 . S
C1240 C1238 1.388 . S
C1240 C1241 1.366 . S
C1241 C1240 1.366 . S
C1241 C1242 1.414 . S
C1241 C1244 1.499 . S
C1242 H1222 0.950 . S
C1242 C1241 1.414 . S
C1242 C1243 1.374 . S
C1243 H1223 0.950 . S
C1243 C1239 1.385 . S
C1243 C1242 1.374 . S
C1244 C1241 1.499 . S
C1244 C1245 1.373 . S
C1244 C1246 1.389 . S
C1245 H1224 0.950 . S
C1245 C1244 1.373 . S
C1245 C1261 1.377 . S
C1246 C1244 1.389 . S
C1246 C1247 1.524 . S
C1246 C1260 1.377 . S
C1247 C1246 1.524 . S
C1247 C1248 1.397 . S
C1247 C1252 1.363 . S
C1248 H1225 0.950 . S
C1248 C1247 1.397 . S
C1248 C1249 1.334 . S
C1249 H1226 0.950 . S
C1249 C1248 1.334 . S
C1249 C1250 1.287 . S
C1250 C1249 1.287 . S
C1250 C1251 1.524 . S
C1250 H1269 0.913 . S
C1251 H1227 0.950 . S
C1251 C1250 1.524 . S
C1251 C1252 1.415 . S
C1252 H1228 0.950 . S
C1252 C1247 1.363 . S
C1252 C1251 1.415 . S
C1253 H1229 0.951 . S
C1253 C1254 1.366 . S
C1253 C1255 1.388 . S
C1254 C1253 1.366 . S
C1254 C1258 1.385 . S
C1255 H1230 0.951 . S
C1255 C1253 1.388 . S
C1255 C1256 1.366 . S
C1256 C1255 1.366 . S
C1256 C1257 1.414 . S
C1256 C1259 1.499 . S
C1257 H1231 0.950 . S
C1257 C1256 1.414 . S
C1257 C1258 1.374 . S
C1258 H1232 0.950 . S
C1258 C1254 1.385 . S
C1258 C1257 1.374 . S
C1259 C1256 1.499 . S
C1259 C1260 1.373 . S
C1259 C1261 1.389 . S
C1260 H1233 0.950 . S
C1260 C1246 1.377 . S
C1260 C1259 1.373 . S
C1261 C1245 1.377 . S
C1261 C1259 1.389 . S
C1261 C1262 1.524 . S
C1262 C1261 1.524 . S
C1262 C1263 1.397 . S
C1262 C1267 1.363 . S
C1263 H1234 0.950 . S
C1263 C1262 1.397 . S
C1263 C1264 1.334 . S
C1264 H1235 0.950 . S
C1264 C1263 1.334 . S
C1264 C1265 1.287 . S
C1265 C1264 1.287 . S
C1265 C1266 1.524 . S
C1265 H1268 0.999 . S
C1266 H1236 0.950 . S
C1266 C1265 1.524 . S
C1266 C1267 1.415 . S
C1267 H1237 0.950 . S
C1267 C1262 1.363 . S
C1267 C1266 1.415 . S
H1268 C1265 0.999 . S
H1269 C1250 0.913 . S
H1270 C1288 0.951 . S
H1271 C1290 0.951 . S
H1272 C1292 0.950 . S
H1273 C1293 0.950 . S
H1274 C1295 0.950 . S
H1275 C1298 0.950 . S
H1276 C1299 0.950 . S
H1277 C1301 0.950 . S
H1278 C1302 0.950 . S
H1279 C1303 0.951 . S
H1280 C1305 0.951 . S
H1281 C1307 0.950 . S
H1282 C1308 0.950 . S
H1283 C1310 0.950 . S
H1284 C1313 0.950 . S
H1285 C1314 0.950 . S
H1286 C1316 0.950 . S
H1287 C1317 0.950 . S
C1288 H1270 0.951 . S
C1288 C1289 1.366 . S
C1288 C1290 1.388 . S
C1289 C1288 1.366 . S
C1289 C1293 1.385 . S
C1290 H1271 0.951 . S
C1290 C1288 1.388 . S
C1290 C1291 1.366 . S
C1291 C1290 1.366 . S
C1291 C1292 1.414 . S
C1291 C1294 1.499 . S
C1292 H1272 0.950 . S
C1292 C1291 1.414 . S
C1292 C1293 1.374 . S
C1293 H1273 0.950 . S
C1293 C1289 1.385 . S
C1293 C1292 1.374 . S
C1294 C1291 1.499 . S
C1294 C1295 1.373 . S
C1294 C1296 1.389 . S
C1295 H1274 0.950 . S
C1295 C1294 1.373 . S
C1295 C1311 1.377 . S
C1296 C1294 1.389 . S
C1296 C1297 1.524 . S
C1296 C1310 1.377 . S
C1297 C1296 1.524 . S
C1297 C1298 1.397 . S
C1297 C1302 1.363 . S
C1298 H1275 0.950 . S
C1298 C1297 1.397 . S
C1298 C1299 1.334 . S
C1299 H1276 0.950 . S
C1299 C1298 1.334 . S
C1299 C1300 1.287 . S
C1300 C1299 1.287 . S
C1300 C1301 1.524 . S
C1300 H1319 0.913 . S
C1301 H1277 0.950 . S
C1301 C1300 1.524 . S
C1301 C1302 1.415 . S
C1302 H1278 0.950 . S
C1302 C1297 1.363 . S
C1302 C1301 1.415 . S
C1303 H1279 0.951 . S
C1303 C1304 1.366 . S
C1303 C1305 1.388 . S
C1304 C1303 1.366 . S
C1304 C1308 1.385 . S
C1305 H1280 0.951 . S
C1305 C1303 1.388 . S
C1305 C1306 1.366 . S
C1306 C1305 1.366 . S
C1306 C1307 1.414 . S
C1306 C1309 1.499 . S
C1307 H1281 0.950 . S
C1307 C1306 1.414 . S
C1307 C1308 1.374 . S
C1308 H1282 0.950 . S
C1308 C1304 1.385 . S
C1308 C1307 1.374 . S
C1309 C1306 1.499 . S
C1309 C1310 1.373 . S
C1309 C1311 1.389 . S
C1310 H1283 0.950 . S
C1310 C1296 1.377 . S
C1310 C1309 1.373 . S
C1311 C1295 1.377 . S
C1311 C1309 1.389 . S
C1311 C1312 1.524 . S
C1312 C1311 1.524 . S
C1312 C1313 1.397 . S
C1312 C1317 1.363 . S
C1313 H1284 0.950 . S
C1313 C1312 1.397 . S
C1313 C1314 1.334 . S
C1314 H1285 0.950 . S
C1314 C1313 1.334 . S
C1314 C1315 1.287 . S
C1315 C1314 1.287 . S
C1315 C1316 1.524 . S
C1315 H1318 0.999 . S
C1316 H1286 0.950 . S
C1316 C1315 1.524 . S
C1316 C1317 1.415 . S
C1317 H1287 0.950 . S
C1317 C1312 1.363 . S
C1317 C1316 1.415 . S
H1318 C1315 0.999 . S
H1319 C1300 0.913 . S
H1320 C1338 0.951 . S
H1321 C1340 0.951 . S
H1322 C1342 0.950 . S
H1323 C1343 0.950 . S
H1324 C1345 0.950 . S
H1325 C1348 0.950 . S
H1326 C1349 0.950 . S
H1327 C1351 0.950 . S
H1328 C1352 0.950 . S
H1329 C1353 0.951 . S
H1330 C1355 0.951 . S
H1331 C1357 0.950 . S
H1332 C1358 0.950 . S
H1333 C1360 0.950 . S
H1334 C1363 0.950 . S
H1335 C1364 0.950 . S
H1336 C1366 0.950 . S
H1337 C1367 0.950 . S
C1338 H1320 0.951 . S
C1338 C1339 1.366 . S
C1338 C1340 1.388 . S
C1339 C1338 1.366 . S
C1339 C1343 1.385 . S
C1340 H1321 0.951 . S
C1340 C1338 1.388 . S
C1340 C1341 1.366 . S
C1341 C1340 1.366 . S
C1341 C1342 1.414 . S
C1341 C1344 1.499 . S
C1342 H1322 0.950 . S
C1342 C1341 1.414 . S
C1342 C1343 1.374 . S
C1343 H1323 0.950 . S
C1343 C1339 1.385 . S
C1343 C1342 1.374 . S
C1344 C1341 1.499 . S
C1344 C1345 1.373 . S
C1344 C1346 1.389 . S
C1345 H1324 0.950 . S
C1345 C1344 1.373 . S
C1345 C1361 1.377 . S
C1346 C1344 1.389 . S
C1346 C1347 1.524 . S
C1346 C1360 1.377 . S
C1347 C1346 1.524 . S
C1347 C1348 1.397 . S
C1347 C1352 1.363 . S
C1348 H1325 0.950 . S
C1348 C1347 1.397 . S
C1348 C1349 1.334 . S
C1349 H1326 0.950 . S
C1349 C1348 1.334 . S
C1349 C1350 1.287 . S
C1350 C1349 1.287 . S
C1350 C1351 1.524 . S
C1350 H1369 0.913 . S
C1351 H1327 0.950 . S
C1351 C1350 1.524 . S
C1351 C1352 1.415 . S
C1352 H1328 0.950 . S
C1352 C1347 1.363 . S
C1352 C1351 1.415 . S
C1353 H1329 0.951 . S
C1353 C1354 1.366 . S
C1353 C1355 1.388 . S
C1354 C1353 1.366 . S
C1354 C1358 1.385 . S
C1355 H1330 0.951 . S
C1355 C1353 1.388 . S
C1355 C1356 1.366 . S
C1356 C1355 1.366 . S
C1356 C1357 1.414 . S
C1356 C1359 1.499 . S
C1357 H1331 0.950 . S
C1357 C1356 1.414 . S
C1357 C1358 1.374 . S
C1358 H1332 0.950 . S
C1358 C1354 1.385 . S
C1358 C1357 1.374 . S
C1359 C1356 1.499 . S
C1359 C1360 1.373 . S
C1359 C1361 1.389 . S
C1360 H1333 0.950 . S
C1360 C1346 1.377 . S
C1360 C1359 1.373 . S
C1361 C1345 1.377 . S
C1361 C1359 1.389 . S
C1361 C1362 1.524 . S
C1362 C1361 1.524 . S
C1362 C1363 1.397 . S
C1362 C1367 1.363 . S
C1363 H1334 0.950 . S
C1363 C1362 1.397 . S
C1363 C1364 1.334 . S
C1364 H1335 0.950 . S
C1364 C1363 1.334 . S
C1364 C1365 1.287 . S
C1365 C1364 1.287 . S
C1365 C1366 1.524 . S
C1365 H1368 0.999 . S
C1366 H1336 0.950 . S
C1366 C1365 1.524 . S
C1366 C1367 1.415 . S
C1367 H1337 0.950 . S
C1367 C1362 1.363 . S
C1367 C1366 1.415 . S
H1368 C1365 0.999 . S
H1369 C1350 0.913 . S
H1370 C1388 0.951 . S
H1371 C1390 0.951 . S
H1372 C1392 0.950 . S
H1373 C1393 0.950 . S
H1374 C1395 0.950 . S
H1375 C1398 0.950 . S
H1376 C1399 0.950 . S
H1377 C1401 0.950 . S
H1378 C1402 0.950 . S
H1379 C1403 0.951 . S
H1380 C1405 0.951 . S
H1381 C1407 0.950 . S
H1382 C1408 0.950 . S
H1383 C1410 0.950 . S
H1384 C1413 0.950 . S
H1385 C1414 0.950 . S
H1386 C1416 0.950 . S
H1387 C1417 0.950 . S
C1388 H1370 0.951 . S
C1388 C1389 1.366 . S
C1388 C1390 1.388 . S
C1389 C1388 1.366 . S
C1389 C1393 1.385 . S
C1390 H1371 0.951 . S
C1390 C1388 1.388 . S
C1390 C1391 1.366 . S
C1391 C1390 1.366 . S
C1391 C1392 1.414 . S
C1391 C1394 1.499 . S
C1392 H1372 0.950 . S
C1392 C1391 1.414 . S
C1392 C1393 1.374 . S
C1393 H1373 0.950 . S
C1393 C1389 1.385 . S
C1393 C1392 1.374 . S
C1394 C1391 1.499 . S
C1394 C1395 1.373 . S
C1394 C1396 1.389 . S
C1395 H1374 0.950 . S
C1395 C1394 1.373 . S
C1395 C1411 1.377 . S
C1396 C1394 1.389 . S
C1396 C1397 1.524 . S
C1396 C1410 1.377 . S
C1397 C1396 1.524 . S
C1397 C1398 1.397 . S
C1397 C1402 1.363 . S
C1398 H1375 0.950 . S
C1398 C1397 1.397 . S
C1398 C1399 1.334 . S
C1399 H1376 0.950 . S
C1399 C1398 1.334 . S
C1399 C1400 1.287 . S
C1400 C1399 1.287 . S
C1400 C1401 1.524 . S
C1400 H1419 0.913 . S
C1401 H1377 0.950 . S
C1401 C1400 1.524 . S
C1401 C1402 1.415 . S
C1402 H1378 0.950 . S
C1402 C1397 1.363 . S
C1402 C1401 1.415 . S
C1403 H1379 0.951 . S
C1403 C1404 1.366 . S
C1403 C1405 1.388 . S
C1404 C1403 1.366 . S
C1404 C1408 1.385 . S
C1405 H1380 0.951 . S
C1405 C1403 1.388 . S
C1405 C1406 1.366 . S
C1406 C1405 1.366 . S
C1406 C1407 1.414 . S
C1406 C1409 1.499 . S
C1407 H1381 0.950 . S
C1407 C1406 1.414 . S
C1407 C1408 1.374 . S
C1408 H1382 0.950 . S
C1408 C1404 1.385 . S
C1408 C1407 1.374 . S
C1409 C1406 1.499 . S
C1409 C1410 1.373 . S
C1409 C1411 1.389 . S
C1410 H1383 0.950 . S
C1410 C1396 1.377 . S
C1410 C1409 1.373 . S
C1411 C1395 1.377 . S
C1411 C1409 1.389 . S
C1411 C1412 1.524 . S
C1412 C1411 1.524 . S
C1412 C1413 1.397 . S
C1412 C1417 1.363 . S
C1413 H1384 0.950 . S
C1413 C1412 1.397 . S
C1413 C1414 1.334 . S
C1414 H1385 0.950 . S
C1414 C1413 1.334 . S
C1414 C1415 1.287 . S
C1415 C1414 1.287 . S
C1415 C1416 1.524 . S
C1415 H1418 0.999 . S
C1416 H1386 0.950 . S
C1416 C1415 1.524 . S
C1416 C1417 1.415 . S
C1417 H1387 0.950 . S
C1417 C1412 1.363 . S
C1417 C1416 1.415 . S
H1418 C1415 0.999 . S
H1419 C1400 0.913 . S
H1420 C1438 0.951 . S
H1421 C1440 0.951 . S
H1422 C1442 0.950 . S
H1423 C1443 0.950 . S
H1424 C1445 0.950 . S
H1425 C1448 0.950 . S
H1426 C1449 0.950 . S
H1427 C1451 0.950 . S
H1428 C1452 0.950 . S
H1429 C1453 0.951 . S
H1430 C1455 0.951 . S
H1431 C1457 0.950 . S
H1432 C1458 0.950 . S
H1433 C1460 0.950 . S
H1434 C1463 0.950 . S
H1435 C1464 0.950 . S
H1436 C1466 0.950 . S
H1437 C1467 0.950 . S
C1438 H1420 0.951 . S
C1438 C1439 1.366 . S
C1438 C1440 1.388 . S
C1439 C1438 1.366 . S
C1439 C1443 1.385 . S
C1440 H1421 0.951 . S
C1440 C1438 1.388 . S
C1440 C1441 1.366 . S
C1441 C1440 1.366 . S
C1441 C1442 1.414 . S
C1441 C1444 1.499 . S
C1442 H1422 0.950 . S
C1442 C1441 1.414 . S
C1442 C1443 1.374 . S
C1443 H1423 0.950 . S
C1443 C1439 1.385 . S
C1443 C1442 1.374 . S
C1444 C1441 1.499 . S
C1444 C1445 1.373 . S
C1444 C1446 1.389 . S
C1445 H1424 0.950 . S
C1445 C1444 1.373 . S
C1445 C1461 1.377 . S
C1446 C1444 1.389 . S
C1446 C1447 1.524 . S
C1446 C1460 1.377 . S
C1447 C1446 1.524 . S
C1447 C1448 1.397 . S
C1447 C1452 1.363 . S
C1448 H1425 0.950 . S
C1448 C1447 1.397 . S
C1448 C1449 1.334 . S
C1449 H1426 0.950 . S
C1449 C1448 1.334 . S
C1449 C1450 1.287 . S
C1450 C1449 1.287 . S
C1450 C1451 1.524 . S
C1450 H1469 0.913 . S
C1451 H1427 0.950 . S
C1451 C1450 1.524 . S
C1451 C1452 1.415 . S
C1452 H1428 0.950 . S
C1452 C1447 1.363 . S
C1452 C1451 1.415 . S
C1453 H1429 0.951 . S
C1453 C1454 1.366 . S
C1453 C1455 1.388 . S
C1454 C1453 1.366 . S
C1454 C1458 1.385 . S
C1455 H1430 0.951 . S
C1455 C1453 1.388 . S
C1455 C1456 1.366 . S
C1456 C1455 1.366 . S
C1456 C1457 1.414 . S
C1456 C1459 1.499 . S
C1457 H1431 0.950 . S
C1457 C1456 1.414 . S
C1457 C1458 1.374 . S
C1458 H1432 0.950 . S
C1458 C1454 1.385 . S
C1458 C1457 1.374 . S
C1459 C1456 1.499 . S
C1459 C1460 1.373 . S
C1459 C1461 1.389 . S
C1460 H1433 0.950 . S
C1460 C1446 1.377 . S
C1460 C1459 1.373 . S
C1461 C1445 1.377 . S
C1461 C1459 1.389 . S
C1461 C1462 1.524 . S
C1462 C1461 1.524 . S
C1462 C1463 1.397 . S
C1462 C1467 1.363 . S
C1463 H1434 0.950 . S
C1463 C1462 1.397 . S
C1463 C1464 1.334 . S
C1464 H1435 0.950 . S
C1464 C1463 1.334 . S
C1464 C1465 1.287 . S
C1465 C1464 1.287 . S
C1465 C1466 1.524 . S
C1465 H1468 0.999 . S
C1466 H1436 0.950 . S
C1466 C1465 1.524 . S
C1466 C1467 1.415 . S
C1467 H1437 0.950 . S
C1467 C1462 1.363 . S
C1467 C1466 1.415 . S
H1468 C1465 0.999 . S
H1469 C1450 0.913 . S
H1470 C1488 0.951 . S
H1471 C1490 0.951 . S
H1472 C1492 0.950 . S
H1473 C1493 0.950 . S
H1474 C1495 0.950 1_655 S
H1475 C1498 0.950 . S
H1476 C1499 0.950 . S
H1477 C1501 0.950 . S
H1478 C1502 0.950 . S
H1479 C1503 0.951 . S
H1480 C1505 0.951 . S
H1481 C1507 0.950 . S
H1482 C1508 0.950 . S
H1483 C1510 0.950 . S
H1484 C1513 0.950 . S
H1485 C1514 0.950 . S
H1486 C1516 0.950 . S
H1487 C1517 0.950 1_655 S
C1488 H1470 0.951 . S
C1488 C1489 1.366 . S
C1488 C1490 1.388 1_655 S
C1489 C1488 1.366 . S
C1489 C1493 1.385 . S
C1490 H1471 0.951 . S
C1490 C1488 1.388 1_455 S
C1490 C1491 1.360 . S
C1491 C1490 1.360 . S
C1491 C1492 1.403 1_455 S
C1491 C1494 1.515 . S
C1492 H1472 0.950 . S
C1492 C1491 1.403 1_655 S
C1492 C1493 1.374 . S
C1493 H1473 0.950 . S
C1493 C1489 1.385 . S
C1493 C1492 1.374 . S
C1494 C1491 1.515 . S
C1494 C1495 1.373 . S
C1494 C1496 1.389 . S
C1495 H1474 0.950 1_455 S
C1495 C1494 1.373 . S
C1495 C1511 1.377 . S
C1496 C1494 1.389 . S
C1496 C1497 1.524 . S
C1496 C1510 1.377 . S
C1497 C1496 1.524 . S
C1497 C1498 1.397 . S
C1497 C1502 1.363 . S
C1498 H1475 0.950 . S
C1498 C1497 1.397 . S
C1498 C1499 1.334 . S
C1499 H1476 0.950 . S
C1499 C1498 1.334 . S
C1499 C1500 1.287 . S
C1500 C1499 1.287 . S
C1500 C1501 1.524 . S
C1500 H1519 0.913 . S
C1501 H1477 0.950 . S
C1501 C1500 1.524 . S
C1501 C1502 1.415 . S
C1502 H1478 0.950 . S
C1502 C1497 1.363 . S
C1502 C1501 1.415 . S
C1503 H1479 0.951 . S
C1503 C1504 1.366 . S
C1503 C1505 1.388 . S
C1504 C1503 1.366 . S
C1504 C1508 1.385 . S
C1505 H1480 0.951 . S
C1505 C1503 1.388 . S
C1505 C1506 1.366 . S
C1506 C1505 1.366 . S
C1506 C1507 1.414 . S
C1506 C1509 1.499 . S
C1507 H1481 0.950 . S
C1507 C1506 1.414 . S
C1507 C1508 1.374 . S
C1508 H1482 0.950 . S
C1508 C1504 1.385 . S
C1508 C1507 1.374 . S
C1509 C1506 1.499 . S
C1509 C1510 1.373 . S
C1509 C1511 1.389 . S
C1510 H1483 0.950 . S
C1510 C1496 1.377 . S
C1510 C1509 1.373 . S
C1511 C1495 1.377 . S
C1511 C1509 1.389 . S
C1511 C1512 1.524 . S
C1512 C1511 1.524 . S
C1512 C1513 1.397 . S
C1512 C1517 1.363 . S
C1513 H1484 0.950 . S
C1513 C1512 1.397 . S
C1513 C1514 1.334 . S
C1514 H1485 0.950 . S
C1514 C1513 1.334 . S
C1514 C1515 1.287 . S
C1515 C1514 1.287 . S
C1515 C1516 1.524 1_455 S
C1515 H1518 0.999 . S
C1516 H1486 0.950 . S
C1516 C1515 1.524 1_655 S
C1516 C1517 1.415 1_655 S
C1517 H1487 0.950 1_455 S
C1517 C1512 1.363 . S
C1517 C1516 1.415 1_455 S
H1518 C1515 0.999 . S
H1519 C1500 0.913 . S
H1520 C1538 0.951 . S
H1521 C1540 0.951 . S
H1522 C1542 0.950 . S
H1523 C1543 0.950 . S
H1524 C1545 0.950 . S
H1525 C1548 0.950 . S
H1526 C1549 0.950 . S
H1527 C1551 0.950 . S
H1528 C1552 0.950 . S
H1529 C1553 0.978 . S
H1530 C1555 0.951 . S
H1531 C1557 0.950 . S
H1532 C1558 0.950 . S
H1533 C1560 0.950 . S
H1534 C1563 0.950 . S
H1535 C1564 0.950 . S
H1536 C1566 0.950 . S
H1537 C1567 0.950 . S
C1538 H1520 0.951 . S
C1538 C1539 1.366 . S
C1538 C1540 1.388 . S
C1539 C1538 1.366 . S
C1539 C1543 1.385 . S
C1540 H1521 0.951 . S
C1540 C1538 1.388 . S
C1540 C1541 1.366 . S
C1541 C1540 1.366 . S
C1541 C1542 1.414 . S
C1541 C1544 1.499 . S
C1542 H1522 0.950 . S
C1542 C1541 1.414 . S
C1542 C1543 1.374 . S
C1543 H1523 0.950 . S
C1543 C1539 1.385 . S
C1543 C1542 1.374 . S
C1544 C1541 1.499 . S
C1544 C1545 1.373 . S
C1544 C1546 1.389 . S
C1545 H1524 0.950 . S
C1545 C1544 1.373 . S
C1545 C1561 1.377 . S
C1546 C1544 1.389 . S
C1546 C1547 1.524 . S
C1546 C1560 1.377 . S
C1547 C1546 1.524 . S
C1547 C1548 1.397 . S
C1547 C1552 1.363 . S
C1548 H1525 0.950 . S
C1548 C1547 1.397 . S
C1548 C1549 1.334 . S
C1549 H1526 0.950 . S
C1549 C1548 1.334 . S
C1549 C1550 1.287 . S
C1550 C1549 1.287 . S
C1550 C1551 1.524 . S
C1550 H1569 0.913 . S
C1551 H1527 0.950 . S
C1551 C1550 1.524 . S
C1551 C1552 1.415 . S
C1552 H1528 0.950 . S
C1552 C1547 1.363 . S
C1552 C1551 1.415 . S
C1553 H1529 0.978 . S
C1553 C1554 1.366 1_565 S
C1553 C1555 1.388 . S
C1554 C1553 1.366 1_545 S
C1554 C1558 1.385 . S
C1555 H1530 0.951 . S
C1555 C1553 1.388 . S
C1555 C1556 1.366 . S
C1556 C1555 1.366 . S
C1556 C1557 1.414 . S
C1556 C1559 1.499 . S
C1557 H1531 0.950 . S
C1557 C1556 1.414 . S
C1557 C1558 1.374 1_565 S
C1558 H1532 0.950 . S
C1558 C1554 1.385 . S
C1558 C1557 1.374 1_545 S
C1559 C1556 1.499 . S
C1559 C1560 1.373 . S
C1559 C1561 1.389 . S
C1560 H1533 0.950 . S
C1560 C1546 1.377 . S
C1560 C1559 1.373 . S
C1561 C1545 1.377 . S
C1561 C1559 1.389 . S
C1561 C1562 1.524 . S
C1562 C1561 1.524 . S
C1562 C1563 1.397 . S
C1562 C1567 1.363 . S
C1563 H1534 0.950 . S
C1563 C1562 1.397 . S
C1563 C1564 1.334 . S
C1564 H1535 0.950 . S
C1564 C1563 1.334 . S
C1564 C1565 1.287 . S
C1565 C1564 1.287 . S
C1565 C1566 1.524 . S
C1565 H1568 0.999 . S
C1566 H1536 0.950 . S
C1566 C1565 1.524 . S
C1566 C1567 1.415 . S
C1567 H1537 0.950 . S
C1567 C1562 1.363 . S
C1567 C1566 1.415 . S
H1568 C1565 0.999 . S
H1569 C1550 0.913 . S
H1570 C1588 0.951 . S
H1571 C1590 0.951 . S
H1572 C1592 0.950 . S
H1573 C1593 0.950 . S
H1574 C1595 0.950 1_545 S
H1575 C1598 0.950 1_565 S
H1576 C1599 0.950 . S
H1577 C1601 0.950 . S
H1578 C1602 0.950 . S
H1579 C1603 0.951 . S
H1580 C1605 0.951 . S
H1581 C1607 0.950 . S
H1582 C1608 0.950 . S
H1583 C1610 0.950 . S
H1584 C1613 0.950 . S
H1585 C1614 0.950 . S
H1586 C1616 0.950 . S
H1587 C1617 0.950 . S
C1588 H1570 0.951 . S
C1588 C1589 1.366 . S
C1588 C1590 1.388 . S
C1589 C1588 1.366 . S
C1589 C1593 1.385 . S
C1590 H1571 0.951 . S
C1590 C1588 1.388 . S
C1590 C1591 1.366 . S
C1591 C1590 1.366 . S
C1591 C1592 1.414 . S
C1591 C1594 1.499 . S
C1592 H1572 0.950 . S
C1592 C1591 1.414 . S
C1592 C1593 1.374 . S
C1593 H1573 0.950 . S
C1593 C1589 1.385 . S
C1593 C1592 1.374 . S
C1594 C1591 1.499 . S
C1594 C1595 1.373 1_545 S
C1594 C1596 1.389 1_545 S
C1595 H1574 0.950 1_565 S
C1595 C1594 1.373 1_565 S
C1595 C1611 1.377 . S
C1596 C1594 1.389 1_565 S
C1596 C1597 1.524 1_565 S
C1596 C1610 1.377 . S
C1597 C1596 1.524 1_545 S
C1597 C1598 1.397 . S
C1597 C1602 1.363 . S
C1598 H1575 0.950 1_545 S
C1598 C1597 1.397 . S
C1598 C1599 1.334 . S
C1599 H1576 0.950 . S
C1599 C1598 1.334 . S
C1599 C1600 1.287 . S
C1600 C1599 1.287 . S
C1600 C1601 1.524 . S
C1600 H1619 0.913 . S
C1601 H1577 0.950 . S
C1601 C1600 1.524 . S
C1601 C1602 1.415 . S
C1602 H1578 0.950 . S
C1602 C1597 1.363 . S
C1602 C1601 1.415 . S
C1603 H1579 0.951 . S
C1603 C1604 1.366 . S
C1603 C1605 1.388 . S
C1604 C1603 1.366 . S
C1604 C1608 1.385 . S
C1605 H1580 0.951 . S
C1605 C1603 1.388 . S
C1605 C1606 1.366 . S
C1606 C1605 1.366 . S
C1606 C1607 1.414 . S
C1606 C1609 1.499 . S
C1607 H1581 0.950 . S
C1607 C1606 1.414 . S
C1607 C1608 1.374 . S
C1608 H1582 0.950 . S
C1608 C1604 1.385 . S
C1608 C1607 1.374 . S
C1609 C1606 1.499 . S
C1609 C1610 1.373 . S
C1609 C1611 1.389 . S
C1610 H1583 0.950 . S
C1610 C1596 1.377 . S
C1610 C1609 1.373 . S
C1611 C1595 1.377 . S
C1611 C1609 1.389 . S
C1611 C1612 1.524 . S
C1612 C1611 1.524 . S
C1612 C1613 1.397 . S
C1612 C1617 1.363 . S
C1613 H1584 0.950 . S
C1613 C1612 1.397 . S
C1613 C1614 1.334 . S
C1614 H1585 0.950 . S
C1614 C1613 1.334 . S
C1614 C1615 1.287 . S
C1615 C1614 1.287 . S
C1615 C1616 1.524 . S
C1615 H1618 0.999 . S
C1616 H1586 0.950 . S
C1616 C1615 1.524 . S
C1616 C1617 1.415 . S
C1617 H1587 0.950 . S
C1617 C1612 1.363 . S
C1617 C1616 1.415 . S
H1618 C1615 0.999 . S
H1619 C1600 0.913 . S
H1620 C1638 0.951 . S
H1621 C1640 0.951 . S
H1622 C1642 0.950 . S
H1623 C1643 0.950 . S
H1624 C1645 0.950 . S
H1625 C1648 0.950 . S
H1626 C1649 0.950 . S
H1627 C1651 0.950 . S
H1628 C1652 0.950 . S
H1629 C1653 0.951 . S
H1630 C1655 0.951 . S
H1631 C1657 0.950 . S
H1632 C1658 0.950 . S
H1633 C1660 0.950 . S
H1634 C1663 0.950 . S
H1635 C1664 0.950 . S
H1636 C1666 0.950 . S
H1637 C1667 0.950 . S
C1638 H1620 0.951 . S
C1638 C1639 1.366 . S
C1638 C1640 1.388 . S
C1639 C1638 1.366 . S
C1639 C1643 1.385 1_545 S
C1640 H1621 0.951 . S
C1640 C1638 1.388 . S
C1640 C1641 1.366 . S
C1641 C1640 1.366 . S
C1641 C1642 1.414 1_545 S
C1641 C1644 1.499 . S
C1642 H1622 0.950 . S
C1642 C1641 1.414 1_565 S
C1642 C1643 1.374 . S
C1643 H1623 0.950 . S
C1643 C1639 1.385 1_565 S
C1643 C1642 1.374 . S
C1644 C1641 1.499 . S
C1644 C1645 1.373 . S
C1644 C1646 1.389 . S
C1645 H1624 0.950 . S
C1645 C1644 1.373 . S
C1645 C1661 1.377 1_554 S
C1646 C1644 1.389 . S
C1646 C1647 1.524 . S
C1646 C1660 1.377 1_554 S
C1647 C1646 1.524 . S
C1647 C1648 1.397 1_545 S
C1647 C1652 1.363 . S
C1648 H1625 0.950 . S
C1648 C1647 1.397 1_565 S
C1648 C1649 1.334 . S
C1649 H1626 0.950 . S
C1649 C1648 1.334 . S
C1649 C1650 1.287 1_565 S
C1650 C1649 1.287 1_545 S
C1650 C1651 1.524 . S
C1650 H1669 0.913 . S
C1651 H1627 0.950 . S
C1651 C1650 1.524 . S
C1651 C1652 1.415 . S
C1652 H1628 0.950 . S
C1652 C1647 1.363 . S
C1652 C1651 1.415 . S
C1653 H1629 0.951 . S
C1653 C1654 1.366 1_565 S
C1653 C1655 1.388 . S
C1654 C1653 1.366 1_545 S
C1654 C1658 1.385 . S
C1655 H1630 0.951 . S
C1655 C1653 1.388 . S
C1655 C1656 1.366 1_565 S
C1656 C1655 1.366 1_545 S
C1656 C1657 1.414 . S
C1656 C1659 1.499 . S
C1657 H1631 0.950 . S
C1657 C1656 1.414 . S
C1657 C1658 1.374 . S
C1658 H1632 0.950 . S
C1658 C1654 1.385 . S
C1658 C1657 1.374 . S
C1659 C1656 1.499 . S
C1659 C1660 1.373 . S
C1659 C1661 1.389 . S
C1660 H1633 0.950 . S
C1660 C1646 1.377 1_556 S
C1660 C1659 1.373 . S
C1661 C1645 1.377 1_556 S
C1661 C1659 1.389 . S
C1661 C1662 1.524 . S
C1662 C1661 1.524 . S
C1662 C1663 1.397 . S
C1662 C1667 1.363 1_545 S
C1663 H1634 0.950 . S
C1663 C1662 1.397 . S
C1663 C1664 1.334 . S
C1664 H1635 0.950 . S
C1664 C1663 1.334 . S
C1664 C1665 1.287 . S
C1665 C1664 1.287 . S
C1665 C1666 1.524 1_545 S
C1665 H1668 0.999 . S
C1666 H1636 0.950 . S
C1666 C1665 1.524 1_565 S
C1666 C1667 1.415 . S
C1667 H1637 0.950 . S
C1667 C1662 1.363 1_565 S
C1667 C1666 1.415 . S
H1668 C1665 0.999 . S
H1669 C1650 0.913 . S
H1670 C1688 0.951 1_655 S
H1671 C1690 0.951 1_655 S
H1672 C1692 0.950 . S
H1673 C1693 0.950 . S
H1674 C1695 0.950 . S
H1675 C1698 0.950 . S
H1676 C1699 0.950 . S
H1677 C1701 0.950 . S
H1678 C1702 0.950 . S
H1679 C1703 0.951 . S
H1680 C1705 0.951 . S
H1681 C1707 0.950 1_655 S
H1682 C1708 0.950 1_655 S
H1683 C1710 0.950 . S
H1684 C1713 0.950 . S
H1685 C1714 0.950 . S
H1686 C1716 0.950 . S
H1687 C1717 0.950 . S
C1688 H1670 0.951 1_455 S
C1688 C1689 1.366 . S
C1688 C1690 1.388 . S
C1689 C1688 1.366 . S
C1689 C1693 1.385 . S
C1690 H1671 0.951 1_455 S
C1690 C1688 1.388 . S
C1690 C1691 1.366 . S
C1691 C1690 1.366 . S
C1691 C1692 1.414 . S
C1691 C1694 1.499 . S
C1692 H1672 0.950 . S
C1692 C1691 1.414 . S
C1692 C1693 1.374 . S
C1693 H1673 0.950 . S
C1693 C1689 1.385 . S
C1693 C1692 1.374 . S
C1694 C1691 1.499 . S
C1694 C1695 1.373 . S
C1694 C1696 1.389 1_455 S
C1695 H1674 0.950 . S
C1695 C1694 1.373 . S
C1695 C1711 1.377 1_556 S
C1696 C1694 1.389 1_655 S
C1696 C1697 1.524 . S
C1696 C1710 1.377 1_556 S
C1697 C1696 1.524 . S
C1697 C1698 1.397 . S
C1697 C1702 1.363 . S
C1698 H1675 0.950 . S
C1698 C1697 1.397 . S
C1698 C1699 1.334 . S
C1699 H1676 0.950 . S
C1699 C1698 1.334 . S
C1699 C1700 1.287 . S
C1700 C1699 1.287 . S
C1700 C1701 1.524 . S
C1700 H1719 0.913 . S
C1701 H1677 0.950 . S
C1701 C1700 1.524 . S
C1701 C1702 1.415 . S
C1702 H1678 0.950 . S
C1702 C1697 1.363 . S
C1702 C1701 1.415 . S
C1703 H1679 0.951 . S
C1703 C1704 1.366 . S
C1703 C1705 1.388 . S
C1704 C1703 1.366 . S
C1704 C1708 1.385 . S
C1705 H1680 0.951 . S
C1705 C1703 1.388 . S
C1705 C1706 1.366 . S
C1706 C1705 1.366 . S
C1706 C1707 1.414 . S
C1706 C1709 1.499 . S
C1707 H1681 0.950 1_455 S
C1707 C1706 1.414 . S
C1707 C1708 1.374 . S
C1708 H1682 0.950 1_455 S
C1708 C1704 1.385 . S
C1708 C1707 1.374 . S
C1709 C1706 1.499 . S
C1709 C1710 1.373 1_455 S
C1709 C1711 1.389 . S
C1710 H1683 0.950 . S
C1710 C1696 1.377 1_554 S
C1710 C1709 1.373 1_655 S
C1711 C1695 1.377 1_554 S
C1711 C1709 1.389 . S
C1711 C1712 1.524 . S
C1712 C1711 1.524 . S
C1712 C1713 1.397 . S
C1712 C1717 1.363 . S
C1713 H1684 0.950 . S
C1713 C1712 1.397 . S
C1713 C1714 1.334 . S
C1714 H1685 0.950 . S
C1714 C1713 1.334 . S
C1714 C1715 1.287 . S
C1715 C1714 1.287 . S
C1715 C1716 1.524 . S
C1715 H1718 0.999 . S
C1716 H1686 0.950 . S
C1716 C1715 1.524 . S
C1716 C1717 1.415 . S
C1717 H1687 0.950 . S
C1717 C1712 1.363 . S
C1717 C1716 1.415 . S
H1718 C1715 0.999 . S
H1719 C1700 0.913 . S
H1720 C1738 0.951 . S
H1721 C1740 0.951 . S
H1722 C1742 0.950 . S
H1723 C1743 0.950 . S
H1724 C1745 0.950 . S
H1725 C1748 0.950 . S
H1726 C1749 0.950 . S
H1727 C1751 0.950 . S
H1728 C1752 0.950 . S
H1729 C1753 0.951 . S
H1730 C1755 0.951 . S
H1731 C1757 0.950 . S
H1732 C1758 0.950 . S
H1733 C1760 0.950 . S
H1734 C1763 0.950 . S
H1735 C1764 0.950 . S
H1736 C1766 0.950 . S
H1737 C1767 0.950 . S
C1738 H1720 0.951 . S
C1738 C1739 1.366 . S
C1738 C1740 1.388 . S
C1739 C1738 1.366 . S
C1739 C1743 1.385 . S
C1740 H1721 0.951 . S
C1740 C1738 1.388 . S
C1740 C1741 1.366 . S
C1741 C1740 1.366 . S
C1741 C1742 1.414 . S
C1741 C1744 1.499 . S
C1742 H1722 0.950 . S
C1742 C1741 1.414 . S
C1742 C1743 1.374 . S
C1743 H1723 0.950 . S
C1743 C1739 1.385 . S
C1743 C1742 1.374 . S
C1744 C1741 1.499 . S
C1744 C1745 1.373 . S
C1744 C1746 1.389 . S
C1745 H1724 0.950 . S
C1745 C1744 1.373 . S
C1745 C1761 1.377 1_556 S
C1746 C1744 1.389 . S
C1746 C1747 1.524 . S
C1746 C1760 1.377 1_556 S
C1747 C1746 1.524 . S
C1747 C1748 1.397 . S
C1747 C1752 1.363 . S
C1748 H1725 0.950 . S
C1748 C1747 1.397 . S
C1748 C1749 1.334 . S
C1749 H1726 0.950 . S
C1749 C1748 1.334 . S
C1749 C1750 1.287 . S
C1750 C1749 1.287 . S
C1750 C1751 1.524 . S
C1750 H1769 0.913 . S
C1751 H1727 0.950 . S
C1751 C1750 1.524 . S
C1751 C1752 1.415 . S
C1752 H1728 0.950 . S
C1752 C1747 1.363 . S
C1752 C1751 1.415 . S
C1753 H1729 0.951 . S
C1753 C1754 1.366 . S
C1753 C1755 1.388 . S
C1754 C1753 1.366 . S
C1754 C1758 1.385 . S
C1755 H1730 0.951 . S
C1755 C1753 1.388 . S
C1755 C1756 1.366 . S
C1756 C1755 1.366 . S
C1756 C1757 1.414 . S
C1756 C1759 1.499 . S
C1757 H1731 0.950 . S
C1757 C1756 1.414 . S
C1757 C1758 1.374 . S
C1758 H1732 0.950 . S
C1758 C1754 1.385 . S
C1758 C1757 1.374 . S
C1759 C1756 1.499 . S
C1759 C1760 1.373 . S
C1759 C1761 1.389 . S
C1760 H1733 0.950 . S
C1760 C1746 1.377 1_554 S
C1760 C1759 1.373 . S
C1761 C1745 1.377 1_554 S
C1761 C1759 1.389 . S
C1761 C1762 1.524 . S
C1762 C1761 1.524 . S
C1762 C1763 1.397 . S
C1762 C1767 1.363 . S
C1763 H1734 0.950 . S
C1763 C1762 1.397 . S
C1763 C1764 1.334 . S
C1764 H1735 0.950 . S
C1764 C1763 1.334 . S
C1764 C1765 1.287 . S
C1765 C1764 1.287 . S
C1765 C1766 1.524 . S
C1765 H1768 0.999 . S
C1766 H1736 0.950 . S
C1766 C1765 1.524 . S
C1766 C1767 1.415 . S
C1767 H1737 0.950 . S
C1767 C1762 1.363 . S
C1767 C1766 1.415 . S
H1768 C1765 0.999 . S
H1769 C1750 0.913 . S
H1770 C1788 0.951 . S
H1771 C1790 0.951 . S
H1772 C1792 0.950 . S
H1773 C1793 0.950 . S
H1774 C1795 0.950 . S
H1775 C1798 0.950 . S
H1776 C1799 0.950 . S
H1777 C1801 0.950 . S
H1778 C1802 0.950 . S
H1779 C1803 0.951 . S
H1780 C1805 0.951 . S
H1781 C1807 0.950 . S
H1782 C1808 0.950 . S
H1783 C1810 0.950 . S
H1784 C1813 0.950 . S
H1785 C1814 0.950 . S
H1786 C1816 0.950 . S
H1787 C1817 0.950 . S
C1788 H1770 0.951 . S
C1788 C1789 1.366 . S
C1788 C1790 1.388 . S
C1789 C1788 1.366 . S
C1789 C1793 1.385 . S
C1790 H1771 0.951 . S
C1790 C1788 1.388 . S
C1790 C1791 1.366 . S
C1791 C1790 1.366 . S
C1791 C1792 1.414 . S
C1791 C1794 1.499 . S
C1792 H1772 0.950 . S
C1792 C1791 1.414 . S
C1792 C1793 1.374 . S
C1793 H1773 0.950 . S
C1793 C1789 1.385 . S
C1793 C1792 1.374 . S
C1794 C1791 1.499 . S
C1794 C1795 1.373 . S
C1794 C1796 1.389 . S
C1795 H1774 0.950 . S
C1795 C1794 1.373 . S
C1795 C1811 1.377 . S
C1796 C1794 1.389 . S
C1796 C1797 1.524 . S
C1796 C1810 1.377 . S
C1797 C1796 1.524 . S
C1797 C1798 1.397 . S
C1797 C1802 1.363 . S
C1798 H1775 0.950 . S
C1798 C1797 1.397 . S
C1798 C1799 1.334 . S
C1799 H1776 0.950 . S
C1799 C1798 1.334 . S
C1799 C1800 1.287 . S
C1800 C1799 1.287 . S
C1800 C1801 1.524 . S
C1800 H1819 0.913 . S
C1801 H1777 0.950 . S
C1801 C1800 1.524 . S
C1801 C1802 1.415 . S
C1802 H1778 0.950 . S
C1802 C1797 1.363 . S
C1802 C1801 1.415 . S
C1803 H1779 0.951 . S
C1803 C1804 1.366 . S
C1803 C1805 1.388 . S
C1804 C1803 1.366 . S
C1804 C1808 1.385 . S
C1805 H1780 0.951 . S
C1805 C1803 1.388 . S
C1805 C1806 1.366 . S
C1806 C1805 1.366 . S
C1806 C1807 1.414 . S
C1806 C1809 1.499 . S
C1807 H1781 0.950 . S
C1807 C1806 1.414 . S
C1807 C1808 1.374 . S
C1808 H1782 0.950 . S
C1808 C1804 1.385 . S
C1808 C1807 1.374 . S
C1809 C1806 1.499 . S
C1809 C1810 1.373 . S
C1809 C1811 1.389 . S
C1810 H1783 0.950 . S
C1810 C1796 1.377 . S
C1810 C1809 1.373 . S
C1811 C1795 1.377 . S
C1811 C1809 1.389 . S
C1811 C1812 1.524 . S
C1812 C1811 1.524 . S
C1812 C1813 1.397 . S
C1812 C1817 1.363 . S
C1813 H1784 0.950 . S
C1813 C1812 1.397 . S
C1813 C1814 1.334 . S
C1814 H1785 0.950 . S
C1814 C1813 1.334 . S
C1814 C1815 1.287 . S
C1815 C1814 1.287 . S
C1815 C1816 1.524 . S
C1815 H1818 0.999 . S
C1816 H1786 0.950 . S
C1816 C1815 1.524 . S
C1816 C1817 1.415 . S
C1817 H1787 0.950 . S
C1817 C1812 1.363 . S
C1817 C1816 1.415 . S
H1818 C1815 0.999 . S
H1819 C1800 0.913 . S
H1820 C1838 0.951 . S
H1821 C1840 0.951 . S
H1822 C1842 0.950 . S
H1823 C1843 0.950 . S
H1824 C1845 0.950 . S
H1825 C1848 0.950 . S
H1826 C1849 0.950 . S
H1827 C1851 0.950 . S
H1828 C1852 0.950 . S
H1829 C1853 0.951 . S
H1830 C1855 0.951 . S
H1831 C1857 0.950 . S
H1832 C1858 0.950 . S
H1833 C1860 0.950 . S
H1834 C1863 0.950 . S
H1835 C1864 0.950 . S
H1836 C1866 0.950 . S
H1837 C1867 0.950 . S
C1838 H1820 0.951 . S
C1838 C1839 1.366 . S
C1838 C1840 1.388 . S
C1839 C1838 1.366 . S
C1839 C1843 1.385 . S
C1840 H1821 0.951 . S
C1840 C1838 1.388 . S
C1840 C1841 1.366 . S
C1841 C1840 1.366 . S
C1841 C1842 1.414 . S
C1841 C1844 1.499 . S
C1842 H1822 0.950 . S
C1842 C1841 1.414 . S
C1842 C1843 1.374 . S
C1843 H1823 0.950 . S
C1843 C1839 1.385 . S
C1843 C1842 1.374 . S
C1844 C1841 1.499 . S
C1844 C1845 1.373 . S
C1844 C1846 1.389 . S
C1845 H1824 0.950 . S
C1845 C1844 1.373 . S
C1845 C1861 1.377 . S
C1846 C1844 1.389 . S
C1846 C1847 1.524 . S
C1846 C1860 1.377 . S
C1847 C1846 1.524 . S
C1847 C1848 1.397 . S
C1847 C1852 1.363 . S
C1848 H1825 0.950 . S
C1848 C1847 1.397 . S
C1848 C1849 1.334 . S
C1849 H1826 0.950 . S
C1849 C1848 1.334 . S
C1849 C1850 1.287 . S
C1850 C1849 1.287 . S
C1850 C1851 1.524 . S
C1850 H1869 0.913 . S
C1851 H1827 0.950 . S
C1851 C1850 1.524 . S
C1851 C1852 1.415 . S
C1852 H1828 0.950 . S
C1852 C1847 1.363 . S
C1852 C1851 1.415 . S
C1853 H1829 0.951 . S
C1853 C1854 1.366 . S
C1853 C1855 1.388 . S
C1854 C1853 1.366 . S
C1854 C1858 1.385 . S
C1855 H1830 0.951 . S
C1855 C1853 1.388 . S
C1855 C1856 1.366 . S
C1856 C1855 1.366 . S
C1856 C1857 1.414 . S
C1856 C1859 1.499 . S
C1857 H1831 0.950 . S
C1857 C1856 1.414 . S
C1857 C1858 1.374 . S
C1858 H1832 0.950 . S
C1858 C1854 1.385 . S
C1858 C1857 1.374 . S
C1859 C1856 1.499 . S
C1859 C1860 1.373 . S
C1859 C1861 1.389 . S
C1860 H1833 0.950 . S
C1860 C1846 1.377 . S
C1860 C1859 1.373 . S
C1861 C1845 1.377 . S
C1861 C1859 1.389 . S
C1861 C1862 1.524 . S
C1862 C1861 1.524 . S
C1862 C1863 1.397 . S
C1862 C1867 1.363 . S
C1863 H1834 0.950 . S
C1863 C1862 1.397 . S
C1863 C1864 1.334 . S
C1864 H1835 0.950 . S
C1864 C1863 1.334 . S
C1864 C1865 1.287 . S
C1865 C1864 1.287 . S
C1865 C1866 1.524 . S
C1865 H1868 0.999 . S
C1866 H1836 0.950 . S
C1866 C1865 1.524 . S
C1866 C1867 1.415 . S
C1867 H1837 0.950 . S
C1867 C1862 1.363 . S
C1867 C1866 1.415 . S
H1868 C1865 0.999 . S
H1869 C1850 0.913 . S
H1870 C1888 0.951 . S
H1871 C1890 0.951 . S
H1872 C1892 0.950 . S
H1873 C1893 0.950 . S
H1874 C1895 0.950 . S
H1875 C1898 0.950 . S
H1876 C1899 0.950 . S
H1877 C1901 0.950 . S
H1878 C1902 0.950 . S
H1879 C1903 0.951 . S
H1880 C1905 0.951 . S
H1881 C1907 0.950 . S
H1882 C1908 0.950 . S
H1883 C1910 0.950 . S
H1884 C1913 0.950 . S
H1885 C1914 0.950 . S
H1886 C1916 0.950 . S
H1887 C1917 0.950 . S
C1888 H1870 0.951 . S
C1888 C1889 1.366 . S
C1888 C1890 1.388 . S
C1889 C1888 1.366 . S
C1889 C1893 1.385 . S
C1890 H1871 0.951 . S
C1890 C1888 1.388 . S
C1890 C1891 1.366 . S
C1891 C1890 1.366 . S
C1891 C1892 1.414 . S
C1891 C1894 1.499 . S
C1892 H1872 0.950 . S
C1892 C1891 1.414 . S
C1892 C1893 1.374 . S
C1893 H1873 0.950 . S
C1893 C1889 1.385 . S
C1893 C1892 1.374 . S
C1894 C1891 1.499 . S
C1894 C1895 1.373 . S
C1894 C1896 1.389 . S
C1895 H1874 0.950 . S
C1895 C1894 1.373 . S
C1895 C1911 1.377 . S
C1896 C1894 1.389 . S
C1896 C1897 1.524 . S
C1896 C1910 1.377 . S
C1897 C1896 1.524 . S
C1897 C1898 1.397 . S
C1897 C1902 1.363 . S
C1898 H1875 0.950 . S
C1898 C1897 1.397 . S
C1898 C1899 1.334 . S
C1899 H1876 0.950 . S
C1899 C1898 1.334 . S
C1899 C1900 1.287 . S
C1900 C1899 1.287 . S
C1900 C1901 1.524 . S
C1900 H1919 0.913 . S
C1901 H1877 0.950 . S
C1901 C1900 1.524 . S
C1901 C1902 1.415 . S
C1902 H1878 0.950 . S
C1902 C1897 1.363 . S
C1902 C1901 1.415 . S
C1903 H1879 0.951 . S
C1903 C1904 1.366 . S
C1903 C1905 1.388 . S
C1904 C1903 1.366 . S
C1904 C1908 1.385 . S
C1905 H1880 0.951 . S
C1905 C1903 1.388 . S
C1905 C1906 1.366 . S
C1906 C1905 1.366 . S
C1906 C1907 1.414 . S
C1906 C1909 1.499 . S
C1907 H1881 0.950 . S
C1907 C1906 1.414 . S
C1907 C1908 1.374 . S
C1908 H1882 0.950 . S
C1908 C1904 1.385 . S
C1908 C1907 1.374 . S
C1909 C1906 1.499 . S
C1909 C1910 1.373 . S
C1909 C1911 1.389 . S
C1910 H1883 0.950 . S
C1910 C1896 1.377 . S
C1910 C1909 1.373 . S
C1911 C1895 1.377 . S
C1911 C1909 1.389 . S
C1911 C1912 1.524 . S
C1912 C1911 1.524 . S
C1912 C1913 1.397 . S
C1912 C1917 1.363 . S
C1913 H1884 0.950 . S
C1913 C1912 1.397 . S
C1913 C1914 1.334 . S
C1914 H1885 0.950 . S
C1914 C1913 1.334 . S
C1914 C1915 1.287 . S
C1915 C1914 1.287 . S
C1915 C1916 1.524 . S
C1915 H1918 0.999 . S
C1916 H1886 0.950 . S
C1916 C1915 1.524 . S
C1916 C1917 1.415 . S
C1917 H1887 0.950 . S
C1917 C1912 1.363 . S
C1917 C1916 1.415 . S
H1918 C1915 0.999 . S
H1919 C1900 0.913 . S
H1920 C1938 0.951 . S
H1921 C1940 0.951 . S
H1922 C1942 0.950 . S
H1923 C1943 0.950 . S
H1924 C1945 0.950 . S
H1925 C1948 0.950 . S
H1926 C1949 0.950 . S
H1927 C1951 0.950 . S
H1928 C1952 0.950 . S
H1929 C1953 0.951 . S
H1930 C1955 0.951 . S
H1931 C1957 0.950 . S
H1932 C1958 0.950 . S
H1933 C1960 0.950 . S
H1934 C1963 0.950 . S
H1935 C1964 0.950 . S
H1936 C1966 0.950 . S
H1937 C1967 0.950 . S
C1938 H1920 0.951 . S
C1938 C1939 1.366 . S
C1938 C1940 1.388 . S
C1939 C1938 1.366 . S
C1939 C1943 1.385 . S
C1940 H1921 0.951 . S
C1940 C1938 1.388 . S
C1940 C1941 1.366 . S
C1941 C1940 1.366 . S
C1941 C1942 1.414 . S
C1941 C1944 1.499 . S
C1942 H1922 0.950 . S
C1942 C1941 1.414 . S
C1942 C1943 1.374 . S
C1943 H1923 0.950 . S
C1943 C1939 1.385 . S
C1943 C1942 1.374 . S
C1944 C1941 1.499 . S
C1944 C1945 1.373 . S
C1944 C1946 1.389 . S
C1945 H1924 0.950 . S
C1945 C1944 1.373 . S
C1945 C1961 1.377 . S
C1946 C1944 1.389 . S
C1946 C1947 1.524 . S
C1946 C1960 1.377 . S
C1947 C1946 1.524 . S
C1947 C1948 1.397 . S
C1947 C1952 1.363 . S
C1948 H1925 0.950 . S
C1948 C1947 1.397 . S
C1948 C1949 1.334 . S
C1949 H1926 0.950 . S
C1949 C1948 1.334 . S
C1949 C1950 1.287 . S
C1950 C1949 1.287 . S
C1950 C1951 1.524 . S
C1950 H1969 0.913 . S
C1951 H1927 0.950 . S
C1951 C1950 1.524 . S
C1951 C1952 1.415 . S
C1952 H1928 0.950 . S
C1952 C1947 1.363 . S
C1952 C1951 1.415 . S
C1953 H1929 0.951 . S
C1953 C1954 1.366 . S
C1953 C1955 1.388 . S
C1954 C1953 1.366 . S
C1954 C1958 1.385 . S
C1955 H1930 0.951 . S
C1955 C1953 1.388 . S
C1955 C1956 1.366 . S
C1956 C1955 1.366 . S
C1956 C1957 1.414 . S
C1956 C1959 1.499 . S
C1957 H1931 0.950 . S
C1957 C1956 1.414 . S
C1957 C1958 1.374 . S
C1958 H1932 0.950 . S
C1958 C1954 1.385 . S
C1958 C1957 1.374 . S
C1959 C1956 1.499 . S
C1959 C1960 1.373 . S
C1959 C1961 1.389 . S
C1960 H1933 0.950 . S
C1960 C1946 1.377 . S
C1960 C1959 1.373 . S
C1961 C1945 1.377 . S
C1961 C1959 1.389 . S
C1961 C1962 1.524 . S
C1962 C1961 1.524 . S
C1962 C1963 1.397 . S
C1962 C1967 1.363 . S
C1963 H1934 0.950 . S
C1963 C1962 1.397 . S
C1963 C1964 1.334 . S
C1964 H1935 0.950 . S
C1964 C1963 1.334 . S
C1964 C1965 1.287 . S
C1965 C1964 1.287 . S
C1965 C1966 1.524 . S
C1965 H1968 0.999 . S
C1966 H1936 0.950 . S
C1966 C1965 1.524 . S
C1966 C1967 1.415 . S
C1967 H1937 0.950 . S
C1967 C1962 1.363 . S
C1967 C1966 1.415 . S
H1968 C1965 0.999 . S
H1969 C1950 0.913 . S
H1970 C1988 0.951 . S
H1971 C1990 0.951 . S
H1972 C1992 0.950 . S
H1973 C1993 0.950 . S
H1974 C1995 0.950 . S
H1975 C1998 0.950 . S
H1976 C1999 0.950 . S
H1977 C2001 0.950 . S
H1978 C2002 0.950 . S
H1979 C2003 0.951 . S
H1980 C2005 0.951 . S
H1981 C2007 0.950 . S
H1982 C2008 0.950 . S
H1983 C2010 0.950 . S
H1984 C2013 0.950 . S
H1985 C2014 0.950 . S
H1986 C2016 0.950 . S
H1987 C2017 0.950 . S
C1988 H1970 0.951 . S
C1988 C1989 1.366 . S
C1988 C1990 1.388 . S
C1989 C1988 1.366 . S
C1989 C1993 1.385 . S
C1990 H1971 0.951 . S
C1990 C1988 1.388 . S
C1990 C1991 1.366 . S
C1991 C1990 1.366 . S
C1991 C1992 1.414 . S
C1991 C1994 1.499 . S
C1992 H1972 0.950 . S
C1992 C1991 1.414 . S
C1992 C1993 1.374 . S
C1993 H1973 0.950 . S
C1993 C1989 1.385 . S
C1993 C1992 1.374 . S
C1994 C1991 1.499 . S
C1994 C1995 1.373 . S
C1994 C1996 1.389 . S
C1995 H1974 0.950 . S
C1995 C1994 1.373 . S
C1995 C2011 1.377 . S
C1996 C1994 1.389 . S
C1996 C1997 1.524 . S
C1996 C2010 1.377 . S
C1997 C1996 1.524 . S
C1997 C1998 1.397 . S
C1997 C2002 1.363 . S
C1998 H1975 0.950 . S
C1998 C1997 1.397 . S
C1998 C1999 1.334 . S
C1999 H1976 0.950 . S
C1999 C1998 1.334 . S
C1999 C2000 1.287 . S
C2000 C1999 1.287 . S
C2000 C2001 1.524 . S
C2000 H2019 0.913 . S
C2001 H1977 0.950 . S
C2001 C2000 1.524 . S
C2001 C2002 1.415 . S
C2002 H1978 0.950 . S
C2002 C1997 1.363 . S
C2002 C2001 1.415 . S
C2003 H1979 0.951 . S
C2003 C2004 1.366 . S
C2003 C2005 1.388 . S
C2004 C2003 1.366 . S
C2004 C2008 1.385 . S
C2005 H1980 0.951 . S
C2005 C2003 1.388 . S
C2005 C2006 1.366 . S
C2006 C2005 1.366 . S
C2006 C2007 1.414 . S
C2006 C2009 1.499 . S
C2007 H1981 0.950 . S
C2007 C2006 1.414 . S
C2007 C2008 1.374 . S
C2008 H1982 0.950 . S
C2008 C2004 1.385 . S
C2008 C2007 1.374 . S
C2009 C2006 1.499 . S
C2009 C2010 1.373 . S
C2009 C2011 1.389 . S
C2010 H1983 0.950 . S
C2010 C1996 1.377 . S
C2010 C2009 1.373 . S
C2011 C1995 1.377 . S
C2011 C2009 1.389 . S
C2011 C2012 1.524 . S
C2012 C2011 1.524 . S
C2012 C2013 1.397 . S
C2012 C2017 1.363 . S
C2013 H1984 0.950 . S
C2013 C2012 1.397 . S
C2013 C2014 1.334 . S
C2014 H1985 0.950 . S
C2014 C2013 1.334 . S
C2014 C2015 1.287 . S
C2015 C2014 1.287 . S
C2015 C2016 1.524 . S
C2015 H2018 0.999 . S
C2016 H1986 0.950 . S
C2016 C2015 1.524 . S
C2016 C2017 1.415 . S
C2017 H1987 0.950 . S
C2017 C2012 1.363 . S
C2017 C2016 1.415 . S
H2018 C2015 0.999 . S
H2019 C2000 0.913 . S
H2020 C2038 0.951 . S
H2021 C2040 0.951 . S
H2022 C2042 0.950 . S
H2023 C2043 0.950 . S
H2024 C2045 0.950 . S
H2025 C2048 0.950 . S
H2026 C2049 0.950 . S
H2027 C2051 0.950 . S
H2028 C2052 0.950 . S
H2029 C2053 0.951 . S
H2030 C2055 0.951 . S
H2031 C2057 0.950 . S
H2032 C2058 0.950 . S
H2033 C2060 0.950 . S
H2034 C2063 0.950 . S
H2035 C2064 0.950 . S
H2036 C2066 0.950 . S
H2037 C2067 0.950 . S
C2038 H2020 0.951 . S
C2038 C2039 1.366 . S
C2038 C2040 1.388 . S
C2039 C2038 1.366 . S
C2039 C2043 1.385 . S
C2040 H2021 0.951 . S
C2040 C2038 1.388 . S
C2040 C2041 1.366 . S
C2041 C2040 1.366 . S
C2041 C2042 1.414 . S
C2041 C2044 1.499 . S
C2042 H2022 0.950 . S
C2042 C2041 1.414 . S
C2042 C2043 1.374 . S
C2043 H2023 0.950 . S
C2043 C2039 1.385 . S
C2043 C2042 1.374 . S
C2044 C2041 1.499 . S
C2044 C2045 1.373 . S
C2044 C2046 1.389 . S
C2045 H2024 0.950 . S
C2045 C2044 1.373 . S
C2045 C2061 1.377 . S
C2046 C2044 1.389 . S
C2046 C2047 1.524 . S
C2046 C2060 1.377 . S
C2047 C2046 1.524 . S
C2047 C2048 1.397 . S
C2047 C2052 1.363 . S
C2048 H2025 0.950 . S
C2048 C2047 1.397 . S
C2048 C2049 1.334 . S
C2049 H2026 0.950 . S
C2049 C2048 1.334 . S
C2049 C2050 1.287 . S
C2050 C2049 1.287 . S
C2050 C2051 1.524 . S
C2050 H2069 0.913 . S
C2051 H2027 0.950 . S
C2051 C2050 1.524 . S
C2051 C2052 1.415 . S
C2052 H2028 0.950 . S
C2052 C2047 1.363 . S
C2052 C2051 1.415 . S
C2053 H2029 0.951 . S
C2053 C2054 1.366 . S
C2053 C2055 1.388 . S
C2054 C2053 1.366 . S
C2054 C2058 1.385 . S
C2055 H2030 0.951 . S
C2055 C2053 1.388 . S
C2055 C2056 1.366 . S
C2056 C2055 1.366 . S
C2056 C2057 1.414 . S
C2056 C2059 1.499 . S
C2057 H2031 0.950 . S
C2057 C2056 1.414 . S
C2057 C2058 1.374 . S
C2058 H2032 0.950 . S
C2058 C2054 1.385 . S
C2058 C2057 1.374 . S
C2059 C2056 1.499 . S
C2059 C2060 1.373 . S
C2059 C2061 1.389 . S
C2060 H2033 0.950 . S
C2060 C2046 1.377 . S
C2060 C2059 1.373 . S
C2061 C2045 1.377 . S
C2061 C2059 1.389 . S
C2061 C2062 1.524 . S
C2062 C2061 1.524 . S
C2062 C2063 1.397 . S
C2062 C2067 1.363 . S
C2063 H2034 0.950 . S
C2063 C2062 1.397 . S
C2063 C2064 1.334 . S
C2064 H2035 0.950 . S
C2064 C2063 1.334 . S
C2064 C2065 1.287 . S
C2065 C2064 1.287 . S
C2065 C2066 1.524 . S
C2065 H2068 0.999 . S
C2066 H2036 0.950 . S
C2066 C2065 1.524 . S
C2066 C2067 1.415 . S
C2067 H2037 0.950 . S
C2067 C2062 1.363 . S
C2067 C2066 1.415 . S
H2068 C2065 0.999 . S
H2069 C2050 0.913 . S
H2070 C2088 0.951 . S
H2071 C2090 0.951 . S
H2072 C2092 0.950 . S
H2073 C2093 0.950 . S
H2074 C2095 0.950 . S
H2075 C2098 0.950 . S
H2076 C2099 0.950 . S
H2077 C2101 0.950 . S
H2078 C2102 0.949 1_565 S
H2079 C2103 0.951 . S
H2080 C2105 0.951 . S
H2081 C2107 0.950 . S
H2082 C2108 0.950 1_545 S
H2083 C2110 0.950 . S
H2084 C2113 0.950 . S
H2085 C2114 0.950 . S
H2086 C2116 0.950 . S
H2087 C2117 0.950 . S
C2088 H2070 0.951 . S
C2088 C2089 1.366 . S
C2088 C2090 1.388 . S
C2089 C2088 1.366 . S
C2089 C2093 1.385 . S
C2090 H2071 0.951 . S
C2090 C2088 1.388 . S
C2090 C2091 1.366 . S
C2091 C2090 1.366 . S
C2091 C2092 1.414 . S
C2091 C2094 1.499 . S
C2092 H2072 0.950 . S
C2092 C2091 1.414 . S
C2092 C2093 1.374 . S
C2093 H2073 0.950 . S
C2093 C2089 1.385 . S
C2093 C2092 1.374 . S
C2094 C2091 1.499 . S
C2094 C2095 1.373 . S
C2094 C2096 1.389 . S
C2095 H2074 0.950 . S
C2095 C2094 1.373 . S
C2095 C2111 1.377 . S
C2096 C2094 1.389 . S
C2096 C2097 1.524 . S
C2096 C2110 1.377 . S
C2097 C2096 1.524 . S
C2097 C2098 1.397 . S
C2097 C2102 1.362 1_565 S
C2098 H2075 0.950 . S
C2098 C2097 1.397 . S
C2098 C2099 1.334 1_565 S
C2099 H2076 0.950 . S
C2099 C2098 1.334 1_545 S
C2099 C2100 1.287 . S
C2100 C2099 1.287 . S
C2100 C2101 1.524 . S
C2100 H2119 0.913 . S
C2101 H2077 0.950 . S
C2101 C2100 1.524 . S
C2101 C2102 1.417 . S
C2102 H2078 0.949 1_545 S
C2102 C2097 1.362 1_545 S
C2102 C2101 1.417 . S
C2103 H2079 0.951 . S
C2103 C2104 1.366 . S
C2103 C2105 1.388 . S
C2104 C2103 1.366 . S
C2104 C2108 1.385 . S
C2105 H2080 0.951 . S
C2105 C2103 1.388 . S
C2105 C2106 1.366 . S
C2106 C2105 1.366 . S
C2106 C2107 1.414 . S
C2106 C2109 1.499 . S
C2107 H2081 0.950 . S
C2107 C2106 1.414 . S
C2107 C2108 1.374 . S
C2108 H2082 0.950 1_565 S
C2108 C2104 1.385 . S
C2108 C2107 1.374 . S
C2109 C2106 1.499 . S
C2109 C2110 1.373 . S
C2109 C2111 1.389 . S
C2110 H2083 0.950 . S
C2110 C2096 1.377 . S
C2110 C2109 1.373 . S
C2111 C2095 1.377 . S
C2111 C2109 1.389 . S
C2111 C2112 1.524 . S
C2112 C2111 1.524 . S
C2112 C2113 1.397 . S
C2112 C2117 1.363 . S
C2113 H2084 0.950 . S
C2113 C2112 1.397 . S
C2113 C2114 1.334 . S
C2114 H2085 0.950 . S
C2114 C2113 1.334 . S
C2114 C2115 1.287 . S
C2115 C2114 1.287 . S
C2115 C2116 1.524 . S
C2115 H2118 0.999 . S
C2116 H2086 0.950 . S
C2116 C2115 1.524 . S
C2116 C2117 1.415 . S
C2117 H2087 0.950 . S
C2117 C2112 1.363 . S
C2117 C2116 1.415 . S
H2118 C2115 0.999 . S
H2119 C2100 0.913 . S
H2120 C2138 0.951 . S
H2121 C2140 0.951 . S
H2122 C2142 0.950 . S
H2123 C2143 0.950 . S
H2124 C2145 0.950 . S
H2125 C2148 0.950 . S
H2126 C2149 0.950 . S
H2127 C2151 0.950 . S
H2128 C2152 0.950 . S
H2129 C2153 0.951 . S
H2130 C2155 0.951 . S
H2131 C2157 0.950 . S
H2132 C2158 0.950 . S
H2133 C2160 0.950 . S
H2134 C2163 0.950 . S
H2135 C2164 0.950 . S
H2136 C2166 0.950 . S
H2137 C2167 0.950 . S
C2138 H2120 0.951 . S
C2138 C2139 1.366 . S
C2138 C2140 1.388 . S
C2139 C2138 1.366 . S
C2139 C2143 1.385 . S
C2140 H2121 0.951 . S
C2140 C2138 1.388 . S
C2140 C2141 1.366 . S
C2141 C2140 1.366 . S
C2141 C2142 1.414 . S
C2141 C2144 1.499 . S
C2142 H2122 0.950 . S
C2142 C2141 1.414 . S
C2142 C2143 1.374 . S
C2143 H2123 0.950 . S
C2143 C2139 1.385 . S
C2143 C2142 1.374 . S
C2144 C2141 1.499 . S
C2144 C2145 1.373 . S
C2144 C2146 1.389 . S
C2145 H2124 0.950 . S
C2145 C2144 1.373 . S
C2145 C2161 1.377 . S
C2146 C2144 1.389 . S
C2146 C2147 1.524 . S
C2146 C2160 1.377 . S
C2147 C2146 1.524 . S
C2147 C2148 1.397 . S
C2147 C2152 1.363 . S
C2148 H2125 0.950 . S
C2148 C2147 1.397 . S
C2148 C2149 1.334 . S
C2149 H2126 0.950 . S
C2149 C2148 1.334 . S
C2149 C2150 1.287 . S
C2150 C2149 1.287 . S
C2150 C2151 1.524 . S
C2150 H2169 0.913 . S
C2151 H2127 0.950 . S
C2151 C2150 1.524 . S
C2151 C2152 1.415 . S
C2152 H2128 0.950 . S
C2152 C2147 1.363 . S
C2152 C2151 1.415 . S
C2153 H2129 0.951 . S
C2153 C2154 1.366 . S
C2153 C2155 1.388 . S
C2154 C2153 1.366 . S
C2154 C2158 1.385 . S
C2155 H2130 0.951 . S
C2155 C2153 1.388 . S
C2155 C2156 1.366 . S
C2156 C2155 1.366 . S
C2156 C2157 1.414 . S
C2156 C2159 1.499 . S
C2157 H2131 0.950 . S
C2157 C2156 1.414 . S
C2157 C2158 1.374 . S
C2158 H2132 0.950 . S
C2158 C2154 1.385 . S
C2158 C2157 1.374 . S
C2159 C2156 1.499 . S
C2159 C2160 1.373 . S
C2159 C2161 1.389 . S
C2160 H2133 0.950 . S
C2160 C2146 1.377 . S
C2160 C2159 1.373 . S
C2161 C2145 1.377 . S
C2161 C2159 1.389 . S
C2161 C2162 1.524 . S
C2162 C2161 1.524 . S
C2162 C2163 1.397 . S
C2162 C2167 1.363 . S
C2163 H2134 0.950 . S
C2163 C2162 1.397 . S
C2163 C2164 1.334 . S
C2164 H2135 0.950 . S
C2164 C2163 1.334 . S
C2164 C2165 1.287 . S
C2165 C2164 1.287 . S
C2165 C2166 1.524 . S
C2165 H2168 0.999 . S
C2166 H2136 0.950 . S
C2166 C2165 1.524 . S
C2166 C2167 1.415 . S
C2167 H2137 0.950 . S
C2167 C2162 1.363 . S
C2167 C2166 1.415 . S
H2168 C2165 0.999 . S
H2169 C2150 0.913 . S
H2170 C2188 0.951 . S
H2171 C2190 0.951 . S
H2172 C2192 0.950 . S
H2173 C2193 0.950 . S
H2174 C2195 0.950 . S
H2175 C2198 0.950 . S
H2176 C2199 0.950 . S
H2177 C2201 0.950 . S
H2178 C2202 0.950 . S
H2179 C2203 0.951 . S
H2180 C2205 0.951 . S
H2181 C2207 0.950 . S
H2182 C2208 0.950 . S
H2183 C2210 0.950 . S
H2184 C2213 0.950 . S
H2185 C2214 0.950 . S
H2186 C2216 0.950 . S
H2187 C2217 0.950 . S
C2188 H2170 0.951 . S
C2188 C2189 1.366 . S
C2188 C2190 1.388 . S
C2189 C2188 1.366 . S
C2189 C2193 1.385 . S
C2190 H2171 0.951 . S
C2190 C2188 1.388 . S
C2190 C2191 1.366 . S
C2191 C2190 1.366 . S
C2191 C2192 1.414 . S
C2191 C2194 1.499 . S
C2192 H2172 0.950 . S
C2192 C2191 1.414 . S
C2192 C2193 1.374 . S
C2193 H2173 0.950 . S
C2193 C2189 1.385 . S
C2193 C2192 1.374 . S
C2194 C2191 1.499 . S
C2194 C2195 1.373 . S
C2194 C2196 1.389 . S
C2195 H2174 0.950 . S
C2195 C2194 1.373 . S
C2195 C2211 1.377 . S
C2196 C2194 1.389 . S
C2196 C2197 1.524 . S
C2196 C2210 1.377 . S
C2197 C2196 1.524 . S
C2197 C2198 1.397 . S
C2197 C2202 1.363 . S
C2198 H2175 0.950 . S
C2198 C2197 1.397 . S
C2198 C2199 1.334 . S
C2199 H2176 0.950 . S
C2199 C2198 1.334 . S
C2199 C2200 1.287 . S
C2200 C2199 1.287 . S
C2200 C2201 1.524 . S
C2200 H2219 0.913 . S
C2201 H2177 0.950 . S
C2201 C2200 1.524 . S
C2201 C2202 1.415 . S
C2202 H2178 0.950 . S
C2202 C2197 1.363 . S
C2202 C2201 1.415 . S
C2203 H2179 0.951 . S
C2203 C2204 1.366 . S
C2203 C2205 1.388 . S
C2204 C2203 1.366 . S
C2204 C2208 1.385 . S
C2205 H2180 0.951 . S
C2205 C2203 1.388 . S
C2205 C2206 1.366 . S
C2206 C2205 1.366 . S
C2206 C2207 1.414 . S
C2206 C2209 1.499 . S
C2207 H2181 0.950 . S
C2207 C2206 1.414 . S
C2207 C2208 1.374 . S
C2208 H2182 0.950 . S
C2208 C2204 1.385 . S
C2208 C2207 1.374 . S
C2209 C2206 1.499 . S
C2209 C2210 1.373 . S
C2209 C2211 1.389 . S
C2210 H2183 0.950 . S
C2210 C2196 1.377 . S
C2210 C2209 1.373 . S
C2211 C2195 1.377 . S
C2211 C2209 1.389 . S
C2211 C2212 1.524 . S
C2212 C2211 1.524 . S
C2212 C2213 1.397 . S
C2212 C2217 1.363 . S
C2213 H2184 0.950 . S
C2213 C2212 1.397 . S
C2213 C2214 1.334 . S
C2214 H2185 0.950 . S
C2214 C2213 1.334 . S
C2214 C2215 1.287 . S
C2215 C2214 1.287 . S
C2215 C2216 1.524 . S
C2215 H2218 0.999 . S
C2216 H2186 0.950 . S
C2216 C2215 1.524 . S
C2216 C2217 1.415 . S
C2217 H2187 0.950 . S
C2217 C2212 1.363 . S
C2217 C2216 1.415 . S
H2218 C2215 0.999 . S
H2219 C2200 0.913 . S
H2220 C2238 0.951 . S
H2221 C2240 0.951 . S
H2222 C2242 0.971 . S
H2223 C2243 0.934 1_455 S
H2224 C2245 0.950 . S
H2225 C2248 0.950 . S
H2226 C2249 0.979 . S
H2227 C2251 0.950 . S
H2228 C2252 0.950 . S
H2229 C2253 0.951 . S
H2230 C2255 0.951 . S
H2231 C2257 0.950 . S
H2232 C2258 0.950 . S
H2233 C2260 0.950 . S
H2234 C2263 0.950 . S
H2235 C2264 0.950 . S
H2236 C2266 0.950 . S
H2237 C2267 0.950 . S
C2238 H2220 0.951 . S
C2238 C2239 1.366 . S
C2238 C2240 1.388 . S
C2239 C2238 1.366 . S
C2239 C2243 1.402 . S
C2240 H2221 0.951 . S
C2240 C2238 1.388 . S
C2240 C2241 1.366 . S
C2241 C2240 1.366 . S
C2241 C2242 1.414 . S
C2241 C2244 1.499 . S
C2242 H2222 0.971 . S
C2242 C2241 1.414 . S
C2242 C2243 1.374 . S
C2243 H2223 0.934 1_655 S
C2243 C2239 1.402 . S
C2243 C2242 1.374 . S
C2244 C2241 1.499 . S
C2244 C2245 1.373 . S
C2244 C2246 1.389 . S
C2245 H2224 0.950 . S
C2245 C2244 1.373 . S
C2245 C2261 1.377 . S
C2246 C2244 1.389 . S
C2246 C2247 1.524 . S
C2246 C2260 1.377 . S
C2247 C2246 1.524 . S
C2247 C2248 1.397 . S
C2247 C2252 1.363 . S
C2248 H2225 0.950 . S
C2248 C2247 1.397 . S
C2248 C2249 1.334 . S
C2249 H2226 0.979 . S
C2249 C2248 1.334 . S
C2249 C2250 1.287 . S
C2250 C2249 1.287 . S
C2250 C2251 1.524 . S
C2250 H2269 0.913 . S
C2251 H2227 0.950 . S
C2251 C2250 1.524 . S
C2251 C2252 1.415 . S
C2252 H2228 0.950 . S
C2252 C2247 1.363 . S
C2252 C2251 1.415 . S
C2253 H2229 0.951 . S
C2253 C2254 1.366 . S
C2253 C2255 1.388 . S
C2254 C2253 1.366 . S
C2254 C2258 1.385 . S
C2255 H2230 0.951 . S
C2255 C2253 1.388 . S
C2255 C2256 1.366 . S
C2256 C2255 1.366 . S
C2256 C2257 1.414 . S
C2256 C2259 1.499 . S
C2257 H2231 0.950 . S
C2257 C2256 1.414 . S
C2257 C2258 1.374 . S
C2258 H2232 0.950 . S
C2258 C2254 1.385 . S
C2258 C2257 1.374 . S
C2259 C2256 1.499 . S
C2259 C2260 1.373 . S
C2259 C2261 1.389 . S
C2260 H2233 0.950 . S
C2260 C2246 1.377 . S
C2260 C2259 1.373 . S
C2261 C2245 1.377 . S
C2261 C2259 1.389 . S
C2261 C2262 1.524 . S
C2262 C2261 1.524 . S
C2262 C2263 1.397 . S
C2262 C2267 1.363 . S
C2263 H2234 0.950 . S
C2263 C2262 1.397 . S
C2263 C2264 1.334 . S
C2264 H2235 0.950 . S
C2264 C2263 1.334 . S
C2264 C2265 1.287 . S
C2265 C2264 1.287 . S
C2265 C2266 1.524 . S
C2265 H2268 0.999 . S
C2266 H2236 0.950 . S
C2266 C2265 1.524 . S
C2266 C2267 1.415 . S
C2267 H2237 0.950 . S
C2267 C2262 1.363 . S
C2267 C2266 1.415 . S
H2268 C2265 0.999 . S
H2269 C2250 0.913 . S
H2270 C2288 0.951 . S
H2271 C2290 0.951 . S
H2272 C2292 0.950 . S
H2273 C2293 0.950 . S
H2274 C2295 0.950 . S
H2275 C2298 0.950 . S
H2276 C2299 0.950 . S
H2277 C2301 0.950 . S
H2278 C2302 0.950 . S
H2279 C2303 0.951 . S
H2280 C2305 0.951 . S
H2281 C2307 0.950 . S
H2282 C2308 0.950 . S
H2283 C2310 0.950 . S
H2284 C2313 0.950 . S
H2285 C2314 0.950 . S
H2286 C2316 0.950 . S
H2287 C2317 0.950 . S
C2288 H2270 0.951 . S
C2288 C2289 1.366 . S
C2288 C2290 1.388 . S
C2289 C2288 1.366 . S
C2289 C2293 1.385 . S
C2290 H2271 0.951 . S
C2290 C2288 1.388 . S
C2290 C2291 1.366 . S
C2291 C2290 1.366 . S
C2291 C2292 1.414 . S
C2291 C2294 1.499 . S
C2292 H2272 0.950 . S
C2292 C2291 1.414 . S
C2292 C2293 1.374 . S
C2293 H2273 0.950 . S
C2293 C2289 1.385 . S
C2293 C2292 1.374 . S
C2294 C2291 1.499 . S
C2294 C2295 1.373 . S
C2294 C2296 1.389 . S
C2295 H2274 0.950 . S
C2295 C2294 1.373 . S
C2295 C2311 1.377 . S
C2296 C2294 1.389 . S
C2296 C2297 1.524 . S
C2296 C2310 1.377 . S
C2297 C2296 1.524 . S
C2297 C2298 1.397 . S
C2297 C2302 1.363 . S
C2298 H2275 0.950 . S
C2298 C2297 1.397 . S
C2298 C2299 1.334 . S
C2299 H2276 0.950 . S
C2299 C2298 1.334 . S
C2299 C2300 1.287 . S
C2300 C2299 1.287 . S
C2300 C2301 1.524 . S
C2300 H2319 0.913 . S
C2301 H2277 0.950 . S
C2301 C2300 1.524 . S
C2301 C2302 1.415 . S
C2302 H2278 0.950 . S
C2302 C2297 1.363 . S
C2302 C2301 1.415 . S
C2303 H2279 0.951 . S
C2303 C2304 1.366 . S
C2303 C2305 1.388 . S
C2304 C2303 1.366 . S
C2304 C2308 1.385 . S
C2305 H2280 0.951 . S
C2305 C2303 1.388 . S
C2305 C2306 1.366 . S
C2306 C2305 1.366 . S
C2306 C2307 1.414 . S
C2306 C2309 1.499 . S
C2307 H2281 0.950 . S
C2307 C2306 1.414 . S
C2307 C2308 1.374 . S
C2308 H2282 0.950 . S
C2308 C2304 1.385 . S
C2308 C2307 1.374 . S
C2309 C2306 1.499 . S
C2309 C2310 1.373 . S
C2309 C2311 1.389 . S
C2310 H2283 0.950 . S
C2310 C2296 1.377 . S
C2310 C2309 1.373 . S
C2311 C2295 1.377 . S
C2311 C2309 1.389 . S
C2311 C2312 1.524 . S
C2312 C2311 1.524 . S
C2312 C2313 1.397 . S
C2312 C2317 1.363 . S
C2313 H2284 0.950 . S
C2313 C2312 1.397 . S
C2313 C2314 1.334 . S
C2314 H2285 0.950 . S
C2314 C2313 1.334 . S
C2314 C2315 1.287 . S
C2315 C2314 1.287 . S
C2315 C2316 1.524 . S
C2315 H2318 0.999 . S
C2316 H2286 0.950 . S
C2316 C2315 1.524 . S
C2316 C2317 1.415 . S
C2317 H2287 0.950 . S
C2317 C2312 1.363 . S
C2317 C2316 1.415 . S
H2318 C2315 0.999 . S
H2319 C2300 0.913 . S
H2320 C2338 0.951 . S
H2321 C2340 0.951 . S
H2322 C2342 0.950 . S
H2323 C2343 0.950 . S
H2324 C2345 0.950 . S
H2325 C2348 0.950 . S
H2326 C2349 0.950 . S
H2327 C2351 0.950 . S
H2328 C2352 0.950 . S
H2329 C2353 0.951 . S
H2330 C2355 0.951 . S
H2331 C2357 0.950 . S
H2332 C2358 0.950 . S
H2333 C2360 0.950 . S
H2334 C2363 0.950 . S
H2335 C2364 0.950 . S
H2336 C2366 0.950 1_565 S
H2337 C2367 0.950 . S
C2338 H2320 0.951 . S
C2338 C2339 1.366 . S
C2338 C2340 1.388 . S
C2339 C2338 1.366 . S
C2339 C2343 1.385 . S
C2340 H2321 0.951 . S
C2340 C2338 1.388 . S
C2340 C2341 1.366 . S
C2341 C2340 1.366 . S
C2341 C2342 1.414 . S
C2341 C2344 1.499 . S
C2342 H2322 0.950 . S
C2342 C2341 1.414 . S
C2342 C2343 1.374 . S
C2343 H2323 0.950 . S
C2343 C2339 1.385 . S
C2343 C2342 1.374 . S
C2344 C2341 1.499 . S
C2344 C2345 1.373 . S
C2344 C2346 1.389 . S
C2345 H2324 0.950 . S
C2345 C2344 1.373 . S
C2345 C2361 1.377 . S
C2346 C2344 1.389 . S
C2346 C2347 1.524 . S
C2346 C2360 1.377 . S
C2347 C2346 1.524 . S
C2347 C2348 1.397 . S
C2347 C2352 1.363 . S
C2348 H2325 0.950 . S
C2348 C2347 1.397 . S
C2348 C2349 1.334 . S
C2349 H2326 0.950 . S
C2349 C2348 1.334 . S
C2349 C2350 1.287 . S
C2350 C2349 1.287 . S
C2350 C2351 1.524 . S
C2350 H2369 0.913 . S
C2351 H2327 0.950 . S
C2351 C2350 1.524 . S
C2351 C2352 1.415 . S
C2352 H2328 0.950 . S
C2352 C2347 1.363 . S
C2352 C2351 1.415 . S
C2353 H2329 0.951 . S
C2353 C2354 1.366 . S
C2353 C2355 1.388 . S
C2354 C2353 1.366 . S
C2354 C2358 1.385 . S
C2355 H2330 0.951 . S
C2355 C2353 1.388 . S
C2355 C2356 1.366 . S
C2356 C2355 1.366 . S
C2356 C2357 1.414 . S
C2356 C2359 1.499 . S
C2357 H2331 0.950 . S
C2357 C2356 1.414 . S
C2357 C2358 1.374 . S
C2358 H2332 0.950 . S
C2358 C2354 1.385 . S
C2358 C2357 1.374 . S
C2359 C2356 1.499 . S
C2359 C2360 1.373 . S
C2359 C2361 1.389 . S
C2360 H2333 0.950 . S
C2360 C2346 1.377 . S
C2360 C2359 1.373 . S
C2361 C2345 1.377 . S
C2361 C2359 1.389 . S
C2361 C2362 1.524 . S
C2362 C2361 1.524 . S
C2362 C2363 1.397 . S
C2362 C2367 1.363 . S
C2363 H2334 0.950 . S
C2363 C2362 1.397 . S
C2363 C2364 1.334 . S
C2364 H2335 0.950 . S
C2364 C2363 1.334 . S
C2364 C2365 1.287 . S
C2365 C2364 1.287 . S
C2365 C2366 1.524 . S
C2365 H2368 0.999 . S
C2366 H2336 0.950 1_545 S
C2366 C2365 1.524 . S
C2366 C2367 1.415 . S
C2367 H2337 0.950 . S
C2367 C2362 1.363 . S
C2367 C2366 1.415 . S
H2368 C2365 0.999 . S
H2369 C2350 0.913 . S
H2370 C2388 0.951 . S
H2371 C2390 0.951 . S
H2372 C2392 0.950 . S
H2373 C2393 0.950 . S
H2374 C2395 0.950 . S
H2375 C2398 0.950 . S
H2376 C2399 0.950 . S
H2377 C2401 0.950 . S
H2378 C2402 0.950 . S
H2379 C2403 0.951 . S
H2380 C2405 0.951 . S
H2381 C2407 0.950 . S
H2382 C2408 0.950 . S
H2383 C2410 0.950 . S
H2384 C2413 0.950 . S
H2385 C2414 0.950 . S
H2386 C2416 0.950 . S
H2387 C2417 0.950 . S
C2388 H2370 0.951 . S
C2388 C2389 1.366 . S
C2388 C2390 1.388 . S
C2389 C2388 1.366 . S
C2389 C2393 1.385 . S
C2390 H2371 0.951 . S
C2390 C2388 1.388 . S
C2390 C2391 1.366 . S
C2391 C2390 1.366 . S
C2391 C2392 1.414 . S
C2391 C2394 1.499 . S
C2392 H2372 0.950 . S
C2392 C2391 1.414 . S
C2392 C2393 1.374 . S
C2393 H2373 0.950 . S
C2393 C2389 1.385 . S
C2393 C2392 1.374 . S
C2394 C2391 1.499 . S
C2394 C2395 1.373 1_655 S
C2394 C2396 1.389 . S
C2395 H2374 0.950 . S
C2395 C2394 1.373 1_455 S
C2395 C2411 1.377 . S
C2396 C2394 1.389 . S
C2396 C2397 1.524 . S
C2396 C2410 1.377 1_655 S
C2397 C2396 1.524 . S
C2397 C2398 1.397 . S
C2397 C2402 1.363 . S
C2398 H2375 0.950 . S
C2398 C2397 1.397 . S
C2398 C2399 1.334 . S
C2399 H2376 0.950 . S
C2399 C2398 1.334 . S
C2399 C2400 1.287 . S
C2400 C2399 1.287 . S
C2400 C2401 1.524 . S
C2400 H2419 0.913 . S
C2401 H2377 0.950 . S
C2401 C2400 1.524 . S
C2401 C2402 1.415 . S
C2402 H2378 0.950 . S
C2402 C2397 1.363 . S
C2402 C2401 1.415 . S
C2403 H2379 0.951 . S
C2403 C2404 1.366 . S
C2403 C2405 1.388 . S
C2404 C2403 1.366 . S
C2404 C2408 1.385 . S
C2405 H2380 0.951 . S
C2405 C2403 1.388 . S
C2405 C2406 1.366 . S
C2406 C2405 1.366 . S
C2406 C2407 1.414 . S
C2406 C2409 1.499 . S
C2407 H2381 0.950 . S
C2407 C2406 1.414 . S
C2407 C2408 1.374 . S
C2408 H2382 0.950 . S
C2408 C2404 1.385 . S
C2408 C2407 1.374 . S
C2409 C2406 1.499 . S
C2409 C2410 1.373 . S
C2409 C2411 1.389 . S
C2410 H2383 0.950 . S
C2410 C2396 1.377 1_455 S
C2410 C2409 1.373 . S
C2411 C2395 1.377 . S
C2411 C2409 1.389 . S
C2411 C2412 1.524 . S
C2412 C2411 1.524 . S
C2412 C2413 1.397 . S
C2412 C2417 1.363 . S
C2413 H2384 0.950 . S
C2413 C2412 1.397 . S
C2413 C2414 1.334 . S
C2414 H2385 0.950 . S
C2414 C2413 1.334 . S
C2414 C2415 1.287 . S
C2415 C2414 1.287 . S
C2415 C2416 1.524 . S
C2415 H2418 0.999 . S
C2416 H2386 0.950 . S
C2416 C2415 1.524 . S
C2416 C2417 1.415 . S
C2417 H2387 0.950 . S
C2417 C2412 1.363 . S
C2417 C2416 1.415 . S
H2418 C2415 0.999 . S
H2419 C2400 0.913 . S
H2420 C2438 0.951 . S
H2421 C2440 0.951 . S
H2422 C2442 0.950 . S
H2423 C2443 0.950 . S
H2424 C2445 0.950 . S
H2425 C2448 0.950 . S
H2426 C2449 0.950 . S
H2427 C2451 0.950 . S
H2428 C2452 0.950 . S
H2429 C2453 0.951 . S
H2430 C2455 0.951 . S
H2431 C2457 0.950 . S
H2432 C2458 0.950 . S
H2433 C2460 0.950 . S
H2434 C2463 0.950 . S
H2435 C2464 0.950 . S
H2436 C2466 0.950 . S
H2437 C2467 0.950 . S
C2438 H2420 0.951 . S
C2438 C2439 1.366 . S
C2438 C2440 1.388 . S
C2439 C2438 1.366 . S
C2439 C2443 1.385 . S
C2440 H2421 0.951 . S
C2440 C2438 1.388 . S
C2440 C2441 1.366 . S
C2441 C2440 1.366 . S
C2441 C2442 1.414 . S
C2441 C2444 1.499 . S
C2442 H2422 0.950 . S
C2442 C2441 1.414 . S
C2442 C2443 1.374 . S
C2443 H2423 0.950 . S
C2443 C2439 1.385 . S
C2443 C2442 1.374 . S
C2444 C2441 1.499 . S
C2444 C2445 1.373 . S
C2444 C2446 1.389 . S
C2445 H2424 0.950 . S
C2445 C2444 1.373 . S
C2445 C2461 1.377 . S
C2446 C2444 1.389 . S
C2446 C2447 1.524 . S
C2446 C2460 1.377 . S
C2447 C2446 1.524 . S
C2447 C2448 1.397 . S
C2447 C2452 1.363 . S
C2448 H2425 0.950 . S
C2448 C2447 1.397 . S
C2448 C2449 1.334 . S
C2449 H2426 0.950 . S
C2449 C2448 1.334 . S
C2449 C2450 1.287 . S
C2450 C2449 1.287 . S
C2450 C2451 1.524 . S
C2450 H2469 0.913 . S
C2451 H2427 0.950 . S
C2451 C2450 1.524 . S
C2451 C2452 1.415 . S
C2452 H2428 0.950 . S
C2452 C2447 1.363 . S
C2452 C2451 1.415 . S
C2453 H2429 0.951 . S
C2453 C2454 1.366 . S
C2453 C2455 1.388 . S
C2454 C2453 1.366 . S
C2454 C2458 1.385 . S
C2455 H2430 0.951 . S
C2455 C2453 1.388 . S
C2455 C2456 1.366 . S
C2456 C2455 1.366 . S
C2456 C2457 1.414 . S
C2456 C2459 1.499 . S
C2457 H2431 0.950 . S
C2457 C2456 1.414 . S
C2457 C2458 1.374 . S
C2458 H2432 0.950 . S
C2458 C2454 1.385 . S
C2458 C2457 1.374 . S
C2459 C2456 1.499 . S
C2459 C2460 1.373 . S
C2459 C2461 1.389 . S
C2460 H2433 0.950 . S
C2460 C2446 1.377 . S
C2460 C2459 1.373 . S
C2461 C2445 1.377 . S
C2461 C2459 1.389 . S
C2461 C2462 1.524 . S
C2462 C2461 1.524 . S
C2462 C2463 1.397 . S
C2462 C2467 1.363 . S
C2463 H2434 0.950 . S
C2463 C2462 1.397 . S
C2463 C2464 1.334 . S
C2464 H2435 0.950 . S
C2464 C2463 1.334 . S
C2464 C2465 1.287 . S
C2465 C2464 1.287 . S
C2465 C2466 1.524 . S
C2465 H2468 0.999 . S
C2466 H2436 0.950 . S
C2466 C2465 1.524 . S
C2466 C2467 1.415 . S
C2467 H2437 0.950 . S
C2467 C2462 1.363 . S
C2467 C2466 1.415 . S
H2468 C2465 0.999 . S
H2469 C2450 0.913 . S
H2470 C2488 0.951 . S
H2471 C2490 0.951 . S
H2472 C2492 0.950 . S
H2473 C2493 0.950 . S
H2474 C2495 0.950 . S
H2475 C2498 0.950 . S
H2476 C2499 0.950 . S
H2477 C2501 0.950 . S
H2478 C2502 0.950 . S
H2479 C2503 0.951 . S
H2480 C2505 0.951 . S
H2481 C2507 0.950 . S
H2482 C2508 0.950 . S
H2483 C2510 0.950 . S
H2484 C2513 0.950 . S
H2485 C2514 0.950 . S
H2486 C2516 0.950 . S
H2487 C2517 0.950 . S
C2488 H2470 0.951 . S
C2488 C2489 1.366 . S
C2488 C2490 1.388 . S
C2489 C2488 1.366 . S
C2489 C2493 1.385 . S
C2490 H2471 0.951 . S
C2490 C2488 1.388 . S
C2490 C2491 1.366 . S
C2491 C2490 1.366 . S
C2491 C2492 1.414 . S
C2491 C2494 1.499 . S
C2492 H2472 0.950 . S
C2492 C2491 1.414 . S
C2492 C2493 1.374 . S
C2493 H2473 0.950 . S
C2493 C2489 1.385 . S
C2493 C2492 1.374 . S
C2494 C2491 1.499 . S
C2494 C2495 1.373 1_565 S
C2494 C2496 1.389 . S
C2495 H2474 0.950 . S
C2495 C2494 1.373 1_545 S
C2495 C2511 1.377 . S
C2496 C2494 1.389 . S
C2496 C2497 1.524 . S
C2496 C2510 1.377 1_565 S
C2497 C2496 1.524 . S
C2497 C2498 1.397 . S
C2497 C2502 1.363 . S
C2498 H2475 0.950 . S
C2498 C2497 1.397 . S
C2498 C2499 1.334 . S
C2499 H2476 0.950 . S
C2499 C2498 1.334 . S
C2499 C2500 1.287 . S
C2500 C2499 1.287 . S
C2500 C2501 1.524 . S
C2500 H2519 0.913 . S
C2501 H2477 0.950 . S
C2501 C2500 1.524 . S
C2501 C2502 1.415 . S
C2502 H2478 0.950 . S
C2502 C2497 1.363 . S
C2502 C2501 1.415 . S
C2503 H2479 0.951 . S
C2503 C2504 1.366 . S
C2503 C2505 1.388 . S
C2504 C2503 1.366 . S
C2504 C2508 1.385 . S
C2505 H2480 0.951 . S
C2505 C2503 1.388 . S
C2505 C2506 1.366 . S
C2506 C2505 1.366 . S
C2506 C2507 1.414 . S
C2506 C2509 1.499 . S
C2507 H2481 0.950 . S
C2507 C2506 1.414 . S
C2507 C2508 1.374 . S
C2508 H2482 0.950 . S
C2508 C2504 1.385 . S
C2508 C2507 1.374 . S
C2509 C2506 1.499 . S
C2509 C2510 1.373 . S
C2509 C2511 1.389 . S
C2510 H2483 0.950 . S
C2510 C2496 1.377 1_545 S
C2510 C2509 1.373 . S
C2511 C2495 1.377 . S
C2511 C2509 1.389 . S
C2511 C2512 1.524 . S
C2512 C2511 1.524 . S
C2512 C2513 1.397 . S
C2512 C2517 1.363 . S
C2513 H2484 0.950 . S
C2513 C2512 1.397 . S
C2513 C2514 1.334 . S
C2514 H2485 0.950 . S
C2514 C2513 1.334 . S
C2514 C2515 1.287 . S
C2515 C2514 1.287 . S
C2515 C2516 1.524 . S
C2515 H2518 0.999 . S
C2516 H2486 0.950 . S
C2516 C2515 1.524 . S
C2516 C2517 1.415 . S
C2517 H2487 0.950 . S
C2517 C2512 1.363 . S
C2517 C2516 1.415 . S
H2518 C2515 0.999 . S
H2519 C2500 0.913 . S
H2520 C2538 0.951 . S
H2521 C2540 0.951 . S
H2522 C2542 0.950 . S
H2523 C2543 0.950 . S
H2524 C2545 0.950 . S
H2525 C2548 0.950 . S
H2526 C2549 0.950 . S
H2527 C2551 0.950 . S
H2528 C2552 0.950 . S
H2529 C2553 0.951 . S
H2530 C2555 0.951 . S
H2531 C2557 0.950 . S
H2532 C2558 0.950 . S
H2533 C2560 0.950 . S
H2534 C2563 0.950 . S
H2535 C2564 0.950 . S
H2536 C2566 0.950 . S
H2537 C2567 0.950 . S
C2538 H2520 0.951 . S
C2538 C2539 1.366 . S
C2538 C2540 1.388 . S
C2539 C2538 1.366 . S
C2539 C2543 1.385 . S
C2540 H2521 0.951 . S
C2540 C2538 1.388 . S
C2540 C2541 1.366 . S
C2541 C2540 1.366 . S
C2541 C2542 1.414 . S
C2541 C2544 1.499 . S
C2542 H2522 0.950 . S
C2542 C2541 1.414 . S
C2542 C2543 1.374 . S
C2543 H2523 0.950 . S
C2543 C2539 1.385 . S
C2543 C2542 1.374 . S
C2544 C2541 1.499 . S
C2544 C2545 1.373 . S
C2544 C2546 1.389 . S
C2545 H2524 0.950 . S
C2545 C2544 1.373 . S
C2545 C2561 1.377 . S
C2546 C2544 1.389 . S
C2546 C2547 1.524 . S
C2546 C2560 1.377 . S
C2547 C2546 1.524 . S
C2547 C2548 1.397 . S
C2547 C2552 1.363 . S
C2548 H2525 0.950 . S
C2548 C2547 1.397 . S
C2548 C2549 1.334 . S
C2549 H2526 0.950 . S
C2549 C2548 1.334 . S
C2549 C2550 1.287 . S
C2550 C2549 1.287 . S
C2550 C2551 1.524 . S
C2550 H2569 0.913 . S
C2551 H2527 0.950 . S
C2551 C2550 1.524 . S
C2551 C2552 1.415 . S
C2552 H2528 0.950 . S
C2552 C2547 1.363 . S
C2552 C2551 1.415 . S
C2553 H2529 0.951 . S
C2553 C2554 1.366 . S
C2553 C2555 1.388 . S
C2554 C2553 1.366 . S
C2554 C2558 1.385 . S
C2555 H2530 0.951 . S
C2555 C2553 1.388 . S
C2555 C2556 1.366 . S
C2556 C2555 1.366 . S
C2556 C2557 1.414 . S
C2556 C2559 1.499 . S
C2557 H2531 0.950 . S
C2557 C2556 1.414 . S
C2557 C2558 1.374 . S
C2558 H2532 0.950 . S
C2558 C2554 1.385 . S
C2558 C2557 1.374 . S
C2559 C2556 1.499 . S
C2559 C2560 1.373 . S
C2559 C2561 1.389 . S
C2560 H2533 0.950 . S
C2560 C2546 1.377 . S
C2560 C2559 1.373 . S
C2561 C2545 1.377 . S
C2561 C2559 1.389 . S
C2561 C2562 1.524 . S
C2562 C2561 1.524 . S
C2562 C2563 1.397 . S
C2562 C2567 1.363 . S
C2563 H2534 0.950 . S
C2563 C2562 1.397 . S
C2563 C2564 1.334 . S
C2564 H2535 0.950 . S
C2564 C2563 1.334 . S
C2564 C2565 1.287 . S
C2565 C2564 1.287 . S
C2565 C2566 1.524 . S
C2565 H2568 0.999 . S
C2566 H2536 0.950 . S
C2566 C2565 1.524 . S
C2566 C2567 1.415 . S
C2567 H2537 0.950 . S
C2567 C2562 1.363 . S
C2567 C2566 1.415 . S
H2568 C2565 0.999 . S
H2569 C2550 0.913 . S
H2570 C2588 0.951 . S
H2571 C2590 0.951 . S
H2572 C2592 0.950 . S
H2573 C2593 0.950 . S
H2574 C2595 0.950 . S
H2575 C2598 0.950 . S
H2576 C2599 0.950 . S
H2577 C2601 0.950 . S
H2578 C2602 0.950 . S
H2579 C2603 0.951 . S
H2580 C2605 0.951 . S
H2581 C2607 0.950 . S
H2582 C2608 0.950 . S
H2583 C2610 0.950 . S
H2584 C2613 0.950 . S
H2585 C2614 0.950 . S
H2586 C2616 0.950 . S
H2587 C2617 0.950 . S
C2588 H2570 0.951 . S
C2588 C2589 1.366 . S
C2588 C2590 1.388 . S
C2589 C2588 1.366 . S
C2589 C2593 1.385 . S
C2590 H2571 0.951 . S
C2590 C2588 1.388 . S
C2590 C2591 1.366 . S
C2591 C2590 1.366 . S
C2591 C2592 1.414 . S
C2591 C2594 1.499 . S
C2592 H2572 0.950 . S
C2592 C2591 1.414 . S
C2592 C2593 1.374 . S
C2593 H2573 0.950 . S
C2593 C2589 1.385 . S
C2593 C2592 1.374 . S
C2594 C2591 1.499 . S
C2594 C2595 1.373 . S
C2594 C2596 1.389 . S
C2595 H2574 0.950 . S
C2595 C2594 1.373 . S
C2595 C2611 1.377 . S
C2596 C2594 1.389 . S
C2596 C2597 1.524 . S
C2596 C2610 1.377 . S
C2597 C2596 1.524 . S
C2597 C2598 1.397 . S
C2597 C2602 1.363 . S
C2598 H2575 0.950 . S
C2598 C2597 1.397 . S
C2598 C2599 1.334 . S
C2599 H2576 0.950 . S
C2599 C2598 1.334 . S
C2599 C2600 1.287 . S
C2600 C2599 1.287 . S
C2600 C2601 1.524 . S
C2600 H2619 0.913 . S
C2601 H2577 0.950 . S
C2601 C2600 1.524 . S
C2601 C2602 1.415 . S
C2602 H2578 0.950 . S
C2602 C2597 1.363 . S
C2602 C2601 1.415 . S
C2603 H2579 0.951 . S
C2603 C2604 1.366 . S
C2603 C2605 1.388 . S
C2604 C2603 1.366 . S
C2604 C2608 1.385 . S
C2605 H2580 0.951 . S
C2605 C2603 1.388 . S
C2605 C2606 1.366 . S
C2606 C2605 1.366 . S
C2606 C2607 1.414 . S
C2606 C2609 1.499 . S
C2607 H2581 0.950 . S
C2607 C2606 1.414 . S
C2607 C2608 1.374 . S
C2608 H2582 0.950 . S
C2608 C2604 1.385 . S
C2608 C2607 1.374 . S
C2609 C2606 1.499 . S
C2609 C2610 1.373 . S
C2609 C2611 1.389 . S
C2610 H2583 0.950 . S
C2610 C2596 1.377 . S
C2610 C2609 1.373 . S
C2611 C2595 1.377 . S
C2611 C2609 1.389 . S
C2611 C2612 1.524 . S
C2612 C2611 1.524 . S
C2612 C2613 1.397 . S
C2612 C2617 1.363 . S
C2613 H2584 0.950 . S
C2613 C2612 1.397 . S
C2613 C2614 1.334 . S
C2614 H2585 0.950 . S
C2614 C2613 1.334 . S
C2614 C2615 1.287 . S
C2615 C2614 1.287 . S
C2615 C2616 1.524 . S
C2615 H2618 0.999 . S
C2616 H2586 0.950 . S
C2616 C2615 1.524 . S
C2616 C2617 1.415 . S
C2617 H2587 0.950 . S
C2617 C2612 1.363 . S
C2617 C2616 1.415 . S
H2618 C2615 0.999 . S
H2619 C2600 0.913 . S
H2620 C2638 0.951 . S
H2621 C2640 0.951 . S
H2622 C2642 0.950 . S
H2623 C2643 0.950 . S
H2624 C2645 0.950 . S
H2625 C2648 0.950 . S
H2626 C2649 0.950 . S
H2627 C2651 0.950 . S
H2628 C2652 0.950 . S
H2629 C2653 0.951 . S
H2630 C2655 0.951 . S
H2631 C2657 0.950 . S
H2632 C2658 0.950 . S
H2633 C2660 0.950 . S
H2634 C2663 0.950 . S
H2635 C2664 0.950 . S
H2636 C2666 0.950 . S
H2637 C2667 0.950 . S
C2638 H2620 0.951 . S
C2638 C2639 1.366 . S
C2638 C2640 1.388 . S
C2639 C2638 1.366 . S
C2639 C2643 1.385 . S
C2640 H2621 0.951 . S
C2640 C2638 1.388 . S
C2640 C2641 1.366 . S
C2641 C2640 1.366 . S
C2641 C2642 1.414 . S
C2641 C2644 1.499 . S
C2642 H2622 0.950 . S
C2642 C2641 1.414 . S
C2642 C2643 1.374 . S
C2643 H2623 0.950 . S
C2643 C2639 1.385 . S
C2643 C2642 1.374 . S
C2644 C2641 1.499 . S
C2644 C2645 1.373 . S
C2644 C2646 1.389 . S
C2645 H2624 0.950 . S
C2645 C2644 1.373 . S
C2645 C2661 1.377 . S
C2646 C2644 1.389 . S
C2646 C2647 1.524 . S
C2646 C2660 1.377 . S
C2647 C2646 1.524 . S
C2647 C2648 1.397 . S
C2647 C2652 1.363 . S
C2648 H2625 0.950 . S
C2648 C2647 1.397 . S
C2648 C2649 1.334 . S
C2649 H2626 0.950 . S
C2649 C2648 1.334 . S
C2649 C2650 1.287 . S
C2650 C2649 1.287 . S
C2650 C2651 1.524 . S
C2650 H2669 0.913 . S
C2651 H2627 0.950 . S
C2651 C2650 1.524 . S
C2651 C2652 1.415 . S
C2652 H2628 0.950 . S
C2652 C2647 1.363 . S
C2652 C2651 1.415 . S
C2653 H2629 0.951 . S
C2653 C2654 1.366 . S
C2653 C2655 1.388 . S
C2654 C2653 1.366 . S
C2654 C2658 1.385 . S
C2655 H2630 0.951 . S
C2655 C2653 1.388 . S
C2655 C2656 1.366 . S
C2656 C2655 1.366 . S
C2656 C2657 1.414 . S
C2656 C2659 1.499 . S
C2657 H2631 0.950 . S
C2657 C2656 1.414 . S
C2657 C2658 1.374 . S
C2658 H2632 0.950 . S
C2658 C2654 1.385 . S
C2658 C2657 1.374 . S
C2659 C2656 1.499 . S
C2659 C2660 1.373 . S
C2659 C2661 1.389 . S
C2660 H2633 0.950 . S
C2660 C2646 1.377 . S
C2660 C2659 1.373 . S
C2661 C2645 1.377 . S
C2661 C2659 1.389 . S
C2661 C2662 1.524 . S
C2662 C2661 1.524 . S
C2662 C2663 1.397 . S
C2662 C2667 1.363 . S
C2663 H2634 0.950 . S
C2663 C2662 1.397 . S
C2663 C2664 1.334 . S
C2664 H2635 0.950 . S
C2664 C2663 1.334 . S
C2664 C2665 1.287 . S
C2665 C2664 1.287 . S
C2665 C2666 1.524 . S
C2665 H2668 0.999 . S
C2666 H2636 0.950 . S
C2666 C2665 1.524 . S
C2666 C2667 1.415 . S
C2667 H2637 0.950 . S
C2667 C2662 1.363 . S
C2667 C2666 1.415 . S
H2668 C2665 0.999 . S
H2669 C2650 0.913 . S
H2670 C2688 0.951 . S
H2671 C2690 0.951 . S
H2672 C2692 0.950 . S
H2673 C2693 0.950 . S
H2674 C2695 0.950 . S
H2675 C2698 0.950 . S
H2676 C2699 0.950 . S
H2677 C2701 0.950 . S
H2678 C2702 0.950 . S
H2679 C2703 0.951 . S
H2680 C2705 0.951 . S
H2681 C2707 0.950 . S
H2682 C2708 0.950 . S
H2683 C2710 0.950 . S
H2684 C2713 0.950 . S
H2685 C2714 0.950 . S
H2686 C2716 0.950 . S
H2687 C2717 0.950 . S
C2688 H2670 0.951 . S
C2688 C2689 1.366 . S
C2688 C2690 1.388 . S
C2689 C2688 1.366 . S
C2689 C2693 1.385 . S
C2690 H2671 0.951 . S
C2690 C2688 1.388 . S
C2690 C2691 1.366 . S
C2691 C2690 1.366 . S
C2691 C2692 1.414 . S
C2691 C2694 1.499 . S
C2692 H2672 0.950 . S
C2692 C2691 1.414 . S
C2692 C2693 1.374 . S
C2693 H2673 0.950 . S
C2693 C2689 1.385 . S
C2693 C2692 1.374 . S
C2694 C2691 1.499 . S
C2694 C2695 1.373 . S
C2694 C2696 1.389 . S
C2695 H2674 0.950 . S
C2695 C2694 1.373 . S
C2695 C2711 1.377 . S
C2696 C2694 1.389 . S
C2696 C2697 1.524 . S
C2696 C2710 1.377 . S
C2697 C2696 1.524 . S
C2697 C2698 1.397 . S
C2697 C2702 1.363 . S
C2698 H2675 0.950 . S
C2698 C2697 1.397 . S
C2698 C2699 1.334 . S
C2699 H2676 0.950 . S
C2699 C2698 1.334 . S
C2699 C2700 1.287 . S
C2700 C2699 1.287 . S
C2700 C2701 1.524 . S
C2700 H2719 0.913 . S
C2701 H2677 0.950 . S
C2701 C2700 1.524 . S
C2701 C2702 1.415 . S
C2702 H2678 0.950 . S
C2702 C2697 1.363 . S
C2702 C2701 1.415 . S
C2703 H2679 0.951 . S
C2703 C2704 1.366 . S
C2703 C2705 1.388 . S
C2704 C2703 1.366 . S
C2704 C2708 1.385 . S
C2705 H2680 0.951 . S
C2705 C2703 1.388 . S
C2705 C2706 1.366 . S
C2706 C2705 1.366 . S
C2706 C2707 1.414 . S
C2706 C2709 1.499 . S
C2707 H2681 0.950 . S
C2707 C2706 1.414 . S
C2707 C2708 1.374 . S
C2708 H2682 0.950 . S
C2708 C2704 1.385 . S
C2708 C2707 1.374 . S
C2709 C2706 1.499 . S
C2709 C2710 1.373 . S
C2709 C2711 1.389 . S
C2710 H2683 0.950 . S
C2710 C2696 1.377 . S
C2710 C2709 1.373 . S
C2711 C2695 1.377 . S
C2711 C2709 1.389 . S
C2711 C2712 1.524 . S
C2712 C2711 1.524 . S
C2712 C2713 1.397 . S
C2712 C2717 1.363 . S
C2713 H2684 0.950 . S
C2713 C2712 1.397 . S
C2713 C2714 1.334 . S
C2714 H2685 0.950 . S
C2714 C2713 1.334 . S
C2714 C2715 1.287 . S
C2715 C2714 1.287 . S
C2715 C2716 1.524 . S
C2715 H2718 0.999 . S
C2716 H2686 0.950 . S
C2716 C2715 1.524 . S
C2716 C2717 1.415 . S
C2717 H2687 0.950 . S
C2717 C2712 1.363 . S
C2717 C2716 1.415 . S
H2718 C2715 0.999 . S
H2719 C2700 0.913 . S
H2720 C2738 0.951 . S
H2721 C2740 0.951 . S
H2722 C2742 0.950 . S
H2723 C2743 0.950 . S
H2724 C2745 0.950 . S
H2725 C2748 0.950 . S
H2726 C2749 0.950 . S
H2727 C2751 0.950 . S
H2728 C2752 0.950 . S
H2729 C2753 0.951 . S
H2730 C2755 0.951 . S
H2731 C2757 0.950 . S
H2732 C2758 0.950 . S
H2733 C2760 0.950 . S
H2734 C2763 0.950 . S
H2735 C2764 0.950 . S
H2736 C2766 0.950 . S
H2737 C2767 0.950 . S
C2738 H2720 0.951 . S
C2738 C2739 1.366 . S
C2738 C2740 1.388 . S
C2739 C2738 1.366 . S
C2739 C2743 1.385 . S
C2740 H2721 0.951 . S
C2740 C2738 1.388 . S
C2740 C2741 1.366 . S
C2741 C2740 1.366 . S
C2741 C2742 1.414 . S
C2741 C2744 1.499 . S
C2742 H2722 0.950 . S
C2742 C2741 1.414 . S
C2742 C2743 1.374 . S
C2743 H2723 0.950 . S
C2743 C2739 1.385 . S
C2743 C2742 1.374 . S
C2744 C2741 1.499 . S
C2744 C2745 1.373 . S
C2744 C2746 1.389 . S
C2745 H2724 0.950 . S
C2745 C2744 1.373 . S
C2745 C2761 1.377 . S
C2746 C2744 1.389 . S
C2746 C2747 1.524 . S
C2746 C2760 1.377 . S
C2747 C2746 1.524 . S
C2747 C2748 1.397 . S
C2747 C2752 1.363 . S
C2748 H2725 0.950 . S
C2748 C2747 1.397 . S
C2748 C2749 1.334 . S
C2749 H2726 0.950 . S
C2749 C2748 1.334 . S
C2749 C2750 1.287 . S
C2750 C2749 1.287 . S
C2750 C2751 1.524 . S
C2750 H2769 0.913 . S
C2751 H2727 0.950 . S
C2751 C2750 1.524 . S
C2751 C2752 1.415 . S
C2752 H2728 0.950 . S
C2752 C2747 1.363 . S
C2752 C2751 1.415 . S
C2753 H2729 0.951 . S
C2753 C2754 1.366 . S
C2753 C2755 1.388 . S
C2754 C2753 1.366 . S
C2754 C2758 1.385 . S
C2755 H2730 0.951 . S
C2755 C2753 1.388 . S
C2755 C2756 1.366 . S
C2756 C2755 1.366 . S
C2756 C2757 1.414 . S
C2756 C2759 1.499 . S
C2757 H2731 0.950 . S
C2757 C2756 1.414 . S
C2757 C2758 1.374 . S
C2758 H2732 0.950 . S
C2758 C2754 1.385 . S
C2758 C2757 1.374 . S
C2759 C2756 1.499 . S
C2759 C2760 1.373 . S
C2759 C2761 1.389 . S
C2760 H2733 0.950 . S
C2760 C2746 1.377 . S
C2760 C2759 1.373 . S
C2761 C2745 1.377 . S
C2761 C2759 1.389 . S
C2761 C2762 1.524 . S
C2762 C2761 1.524 . S
C2762 C2763 1.397 . S
C2762 C2767 1.363 . S
C2763 H2734 0.950 . S
C2763 C2762 1.397 . S
C2763 C2764 1.334 . S
C2764 H2735 0.950 . S
C2764 C2763 1.334 . S
C2764 C2765 1.287 . S
C2765 C2764 1.287 . S
C2765 C2766 1.524 . S
C2765 H2768 0.999 . S
C2766 H2736 0.950 . S
C2766 C2765 1.524 . S
C2766 C2767 1.415 . S
C2767 H2737 0.950 . S
C2767 C2762 1.363 . S
C2767 C2766 1.415 . S
H2768 C2765 0.999 . S
H2769 C2750 0.913 . S
H2770 C2788 0.951 . S
H2771 C2790 0.951 . S
H2772 C2792 0.950 . S
H2773 C2793 0.950 . S
H2774 C2795 0.950 . S
H2775 C2798 0.950 . S
H2776 C2799 0.950 . S
H2777 C2801 0.950 . S
H2778 C2802 0.950 . S
H2779 C2803 0.951 . S
H2780 C2805 0.951 . S
H2781 C2807 0.950 . S
H2782 C2808 0.950 . S
H2783 C2810 0.950 . S
H2784 C2813 0.950 . S
H2785 C2814 0.950 . S
H2786 C2816 0.950 . S
H2787 C2817 0.950 . S
C2788 H2770 0.951 . S
C2788 C2789 1.366 . S
C2788 C2790 1.388 . S
C2789 C2788 1.366 . S
C2789 C2793 1.385 . S
C2790 H2771 0.951 . S
C2790 C2788 1.388 . S
C2790 C2791 1.366 . S
C2791 C2790 1.366 . S
C2791 C2792 1.414 . S
C2791 C2794 1.499 . S
C2792 H2772 0.950 . S
C2792 C2791 1.414 . S
C2792 C2793 1.374 . S
C2793 H2773 0.950 . S
C2793 C2789 1.385 . S
C2793 C2792 1.374 . S
C2794 C2791 1.499 . S
C2794 C2795 1.373 . S
C2794 C2796 1.389 . S
C2795 H2774 0.950 . S
C2795 C2794 1.373 . S
C2795 C2811 1.377 . S
C2796 C2794 1.389 . S
C2796 C2797 1.524 . S
C2796 C2810 1.377 . S
C2797 C2796 1.524 . S
C2797 C2798 1.397 . S
C2797 C2802 1.363 . S
C2798 H2775 0.950 . S
C2798 C2797 1.397 . S
C2798 C2799 1.334 . S
C2799 H2776 0.950 . S
C2799 C2798 1.334 . S
C2799 C2800 1.287 . S
C2800 C2799 1.287 . S
C2800 C2801 1.524 . S
C2800 H2819 0.913 . S
C2801 H2777 0.950 . S
C2801 C2800 1.524 . S
C2801 C2802 1.415 . S
C2802 H2778 0.950 . S
C2802 C2797 1.363 . S
C2802 C2801 1.415 . S
C2803 H2779 0.951 . S
C2803 C2804 1.366 . S
C2803 C2805 1.388 . S
C2804 C2803 1.366 . S
C2804 C2808 1.385 . S
C2805 H2780 0.951 . S
C2805 C2803 1.388 . S
C2805 C2806 1.366 . S
C2806 C2805 1.366 . S
C2806 C2807 1.414 . S
C2806 C2809 1.499 . S
C2807 H2781 0.950 . S
C2807 C2806 1.414 . S
C2807 C2808 1.374 . S
C2808 H2782 0.950 . S
C2808 C2804 1.385 . S
C2808 C2807 1.374 . S
C2809 C2806 1.499 . S
C2809 C2810 1.373 . S
C2809 C2811 1.389 . S
C2810 H2783 0.950 . S
C2810 C2796 1.377 . S
C2810 C2809 1.373 . S
C2811 C2795 1.377 . S
C2811 C2809 1.389 . S
C2811 C2812 1.524 . S
C2812 C2811 1.524 . S
C2812 C2813 1.397 . S
C2812 C2817 1.363 . S
C2813 H2784 0.950 . S
C2813 C2812 1.397 . S
C2813 C2814 1.334 . S
C2814 H2785 0.950 . S
C2814 C2813 1.334 . S
C2814 C2815 1.287 . S
C2815 C2814 1.287 . S
C2815 C2816 1.524 . S
C2815 H2818 0.999 . S
C2816 H2786 0.950 . S
C2816 C2815 1.524 . S
C2816 C2817 1.415 . S
C2817 H2787 0.950 . S
C2817 C2812 1.363 . S
C2817 C2816 1.415 . S
H2818 C2815 0.999 . S
H2819 C2800 0.913 . S
H2820 C2838 0.951 . S
H2821 C2840 0.951 . S
H2822 C2842 0.950 . S
H2823 C2843 0.950 . S
H2824 C2845 0.950 . S
H2825 C2848 0.950 . S
H2826 C2849 0.950 . S
H2827 C2851 0.950 . S
H2828 C2852 0.950 . S
H2829 C2853 0.951 . S
H2830 C2855 0.951 . S
H2831 C2857 0.950 . S
H2832 C2858 0.950 . S
H2833 C2860 0.950 . S
H2834 C2863 0.950 . S
H2835 C2864 0.950 . S
H2836 C2866 0.950 . S
H2837 C2867 0.950 . S
C2838 H2820 0.951 . S
C2838 C2839 1.366 . S
C2838 C2840 1.388 . S
C2839 C2838 1.366 . S
C2839 C2843 1.385 . S
C2840 H2821 0.951 . S
C2840 C2838 1.388 . S
C2840 C2841 1.366 . S
C2841 C2840 1.366 . S
C2841 C2842 1.414 . S
C2841 C2844 1.499 . S
C2842 H2822 0.950 . S
C2842 C2841 1.414 . S
C2842 C2843 1.374 . S
C2843 H2823 0.950 . S
C2843 C2839 1.385 . S
C2843 C2842 1.374 . S
C2844 C2841 1.499 . S
C2844 C2845 1.373 . S
C2844 C2846 1.389 . S
C2845 H2824 0.950 . S
C2845 C2844 1.373 . S
C2845 C2861 1.377 . S
C2846 C2844 1.389 . S
C2846 C2847 1.524 . S
C2846 C2860 1.377 . S
C2847 C2846 1.524 . S
C2847 C2848 1.397 . S
C2847 C2852 1.363 . S
C2848 H2825 0.950 . S
C2848 C2847 1.397 . S
C2848 C2849 1.334 . S
C2849 H2826 0.950 . S
C2849 C2848 1.334 . S
C2849 C2850 1.287 . S
C2850 C2849 1.287 . S
C2850 C2851 1.524 . S
C2850 H2869 0.913 . S
C2851 H2827 0.950 . S
C2851 C2850 1.524 . S
C2851 C2852 1.415 . S
C2852 H2828 0.950 . S
C2852 C2847 1.363 . S
C2852 C2851 1.415 . S
C2853 H2829 0.951 . S
C2853 C2854 1.366 . S
C2853 C2855 1.388 . S
C2854 C2853 1.366 . S
C2854 C2858 1.385 . S
C2855 H2830 0.951 . S
C2855 C2853 1.388 . S
C2855 C2856 1.366 . S
C2856 C2855 1.366 . S
C2856 C2857 1.414 . S
C2856 C2859 1.499 . S
C2857 H2831 0.950 . S
C2857 C2856 1.414 . S
C2857 C2858 1.374 . S
C2858 H2832 0.950 . S
C2858 C2854 1.385 . S
C2858 C2857 1.374 . S
C2859 C2856 1.499 . S
C2859 C2860 1.373 . S
C2859 C2861 1.389 . S
C2860 H2833 0.950 . S
C2860 C2846 1.377 . S
C2860 C2859 1.373 . S
C2861 C2845 1.377 . S
C2861 C2859 1.389 . S
C2861 C2862 1.524 . S
C2862 C2861 1.524 . S
C2862 C2863 1.397 . S
C2862 C2867 1.363 . S
C2863 H2834 0.950 . S
C2863 C2862 1.397 . S
C2863 C2864 1.334 . S
C2864 H2835 0.950 . S
C2864 C2863 1.334 . S
C2864 C2865 1.287 . S
C2865 C2864 1.287 . S
C2865 C2866 1.524 . S
C2865 H2868 0.999 . S
C2866 H2836 0.950 . S
C2866 C2865 1.524 . S
C2866 C2867 1.415 . S
C2867 H2837 0.950 . S
C2867 C2862 1.363 . S
C2867 C2866 1.415 . S
H2868 C2865 0.999 . S
H2869 C2850 0.913 . S
H2870 C2888 0.951 . S
H2871 C2890 0.951 . S
H2872 C2892 0.950 . S
H2873 C2893 0.950 . S
H2874 C2895 0.950 . S
H2875 C2898 0.950 . S
H2876 C2899 0.950 . S
H2877 C2901 0.950 . S
H2878 C2902 0.950 . S
H2879 C2903 0.951 . S
H2880 C2905 0.951 . S
H2881 C2907 0.950 . S
H2882 C2908 0.950 . S
H2883 C2910 0.950 . S
H2884 C2913 0.950 . S
H2885 C2914 0.950 . S
H2886 C2916 0.950 . S
H2887 C2917 0.950 . S
C2888 H2870 0.951 . S
C2888 C2889 1.366 . S
C2888 C2890 1.388 . S
C2889 C2888 1.366 . S
C2889 C2893 1.385 . S
C2890 H2871 0.951 . S
C2890 C2888 1.388 . S
C2890 C2891 1.366 . S
C2891 C2890 1.366 . S
C2891 C2892 1.414 . S
C2891 C2894 1.499 . S
C2892 H2872 0.950 . S
C2892 C2891 1.414 . S
C2892 C2893 1.374 . S
C2893 H2873 0.950 . S
C2893 C2889 1.385 . S
C2893 C2892 1.374 . S
C2894 C2891 1.499 . S
C2894 C2895 1.373 . S
C2894 C2896 1.389 . S
C2895 H2874 0.950 . S
C2895 C2894 1.373 . S
C2895 C2911 1.377 . S
C2896 C2894 1.389 . S
C2896 C2897 1.524 . S
C2896 C2910 1.377 . S
C2897 C2896 1.524 . S
C2897 C2898 1.397 . S
C2897 C2902 1.363 . S
C2898 H2875 0.950 . S
C2898 C2897 1.397 . S
C2898 C2899 1.334 . S
C2899 H2876 0.950 . S
C2899 C2898 1.334 . S
C2899 C2900 1.287 . S
C2900 C2899 1.287 . S
C2900 C2901 1.524 . S
C2900 H2919 0.913 . S
C2901 H2877 0.950 . S
C2901 C2900 1.524 . S
C2901 C2902 1.415 . S
C2902 H2878 0.950 . S
C2902 C2897 1.363 . S
C2902 C2901 1.415 . S
C2903 H2879 0.951 . S
C2903 C2904 1.366 . S
C2903 C2905 1.388 . S
C2904 C2903 1.366 . S
C2904 C2908 1.385 . S
C2905 H2880 0.951 . S
C2905 C2903 1.388 . S
C2905 C2906 1.366 . S
C2906 C2905 1.366 . S
C2906 C2907 1.414 . S
C2906 C2909 1.499 . S
C2907 H2881 0.950 . S
C2907 C2906 1.414 . S
C2907 C2908 1.374 . S
C2908 H2882 0.950 . S
C2908 C2904 1.385 . S
C2908 C2907 1.374 . S
C2909 C2906 1.499 . S
C2909 C2910 1.373 . S
C2909 C2911 1.389 . S
C2910 H2883 0.950 . S
C2910 C2896 1.377 . S
C2910 C2909 1.373 . S
C2911 C2895 1.377 . S
C2911 C2909 1.389 . S
C2911 C2912 1.524 . S
C2912 C2911 1.524 . S
C2912 C2913 1.397 . S
C2912 C2917 1.363 . S
C2913 H2884 0.950 . S
C2913 C2912 1.397 . S
C2913 C2914 1.334 . S
C2914 H2885 0.950 . S
C2914 C2913 1.334 . S
C2914 C2915 1.287 . S
C2915 C2914 1.287 . S
C2915 C2916 1.524 . S
C2915 H2918 0.999 . S
C2916 H2886 0.950 . S
C2916 C2915 1.524 . S
C2916 C2917 1.415 . S
C2917 H2887 0.950 . S
C2917 C2912 1.363 . S
C2917 C2916 1.415 . S
H2918 C2915 0.999 . S
H2919 C2900 0.913 . S
H2920 C2938 0.951 . S
H2921 C2940 0.951 . S
H2922 C2942 0.950 . S
H2923 C2943 0.950 . S
H2924 C2945 0.950 . S
H2925 C2948 0.950 . S
H2926 C2949 0.950 . S
H2927 C2951 0.950 . S
H2928 C2952 0.950 . S
H2929 C2953 0.951 . S
H2930 C2955 0.951 . S
H2931 C2957 0.950 . S
H2932 C2958 0.950 . S
H2933 C2960 0.950 . S
H2934 C2963 0.950 . S
H2935 C2964 0.950 . S
H2936 C2966 0.950 . S
H2937 C2967 0.950 . S
C2938 H2920 0.951 . S
C2938 C2939 1.366 . S
C2938 C2940 1.388 . S
C2939 C2938 1.366 . S
C2939 C2943 1.385 . S
C2940 H2921 0.951 . S
C2940 C2938 1.388 . S
C2940 C2941 1.366 . S
C2941 C2940 1.366 . S
C2941 C2942 1.414 . S
C2941 C2944 1.499 . S
C2942 H2922 0.950 . S
C2942 C2941 1.414 . S
C2942 C2943 1.374 . S
C2943 H2923 0.950 . S
C2943 C2939 1.385 . S
C2943 C2942 1.374 . S
C2944 C2941 1.499 . S
C2944 C2945 1.373 . S
C2944 C2946 1.389 . S
C2945 H2924 0.950 . S
C2945 C2944 1.373 . S
C2945 C2961 1.377 . S
C2946 C2944 1.389 . S
C2946 C2947 1.524 . S
C2946 C2960 1.377 . S
C2947 C2946 1.524 . S
C2947 C2948 1.397 . S
C2947 C2952 1.363 . S
C2948 H2925 0.950 . S
C2948 C2947 1.397 . S
C2948 C2949 1.334 . S
C2949 H2926 0.950 . S
C2949 C2948 1.334 . S
C2949 C2950 1.287 . S
C2950 C2949 1.287 . S
C2950 C2951 1.524 . S
C2950 H2969 0.913 . S
C2951 H2927 0.950 . S
C2951 C2950 1.524 . S
C2951 C2952 1.415 . S
C2952 H2928 0.950 . S
C2952 C2947 1.363 . S
C2952 C2951 1.415 . S
C2953 H2929 0.951 . S
C2953 C2954 1.366 . S
C2953 C2955 1.388 . S
C2954 C2953 1.366 . S
C2954 C2958 1.385 . S
C2955 H2930 0.951 . S
C2955 C2953 1.388 . S
C2955 C2956 1.366 . S
C2956 C2955 1.366 . S
C2956 C2957 1.414 . S
C2956 C2959 1.499 . S
C2957 H2931 0.950 . S
C2957 C2956 1.414 . S
C2957 C2958 1.374 . S
C2958 H2932 0.950 . S
C2958 C2954 1.385 . S
C2958 C2957 1.374 . S
C2959 C2956 1.499 . S
C2959 C2960 1.373 . S
C2959 C2961 1.389 . S
C2960 H2933 0.950 . S
C2960 C2946 1.377 . S
C2960 C2959 1.373 . S
C2961 C2945 1.377 . S
C2961 C2959 1.389 . S
C2961 C2962 1.524 . S
C2962 C2961 1.524 . S
C2962 C2963 1.397 . S
C2962 C2967 1.363 . S
C2963 H2934 0.950 . S
C2963 C2962 1.397 . S
C2963 C2964 1.334 . S
C2964 H2935 0.950 . S
C2964 C2963 1.334 . S
C2964 C2965 1.287 . S
C2965 C2964 1.287 . S
C2965 C2966 1.524 . S
C2965 H2968 0.999 . S
C2966 H2936 0.950 . S
C2966 C2965 1.524 . S
C2966 C2967 1.415 . S
C2967 H2937 0.950 . S
C2967 C2962 1.363 . S
C2967 C2966 1.415 . S
H2968 C2965 0.999 . S
H2969 C2950 0.913 . S
H2970 C2988 0.951 . S
H2971 C2990 0.951 . S
H2972 C2992 0.950 . S
H2973 C2993 0.950 . S
H2974 C2995 0.950 . S
H2975 C2998 0.950 . S
H2976 C2999 0.950 . S
H2977 C3001 0.950 . S
H2978 C3002 0.950 1_455 S
H2979 C3003 0.951 . S
H2980 C3005 0.951 . S
H2981 C3007 0.950 . S
H2982 C3008 0.950 . S
H2983 C3010 0.950 . S
H2984 C3013 0.950 . S
H2985 C3014 0.950 . S
H2986 C3016 0.950 . S
H2987 C3017 0.937 1_655 S
C2988 H2970 0.951 . S
C2988 C2989 1.366 . S
C2988 C2990 1.388 . S
C2989 C2988 1.366 . S
C2989 C2993 1.385 . S
C2990 H2971 0.951 . S
C2990 C2988 1.388 . S
C2990 C2991 1.366 . S
C2991 C2990 1.366 . S
C2991 C2992 1.414 . S
C2991 C2994 1.499 . S
C2992 H2972 0.950 . S
C2992 C2991 1.414 . S
C2992 C2993 1.374 . S
C2993 H2973 0.950 . S
C2993 C2989 1.385 . S
C2993 C2992 1.374 . S
C2994 C2991 1.499 . S
C2994 C2995 1.373 . S
C2994 C2996 1.389 . S
C2995 H2974 0.950 . S
C2995 C2994 1.373 . S
C2995 C3011 1.377 1_655 S
C2996 C2994 1.389 . S
C2996 C2997 1.524 . S
C2996 C3010 1.377 1_655 S
C2997 C2996 1.524 . S
C2997 C2998 1.397 . S
C2997 C3002 1.363 . S
C2998 H2975 0.950 . S
C2998 C2997 1.397 . S
C2998 C2999 1.334 . S
C2999 H2976 0.950 . S
C2999 C2998 1.334 . S
C2999 C3000 1.287 . S
C3000 C2999 1.287 . S
C3000 C3001 1.524 . S
C3000 H3019 0.913 . S
C3001 H2977 0.950 . S
C3001 C3000 1.524 . S
C3001 C3002 1.415 . S
C3002 H2978 0.950 1_655 S
C3002 C2997 1.363 . S
C3002 C3001 1.415 . S
C3003 H2979 0.951 . S
C3003 C3004 1.366 . S
C3003 C3005 1.388 . S
C3004 C3003 1.366 . S
C3004 C3008 1.385 . S
C3005 H2980 0.951 . S
C3005 C3003 1.388 . S
C3005 C3006 1.366 . S
C3006 C3005 1.366 . S
C3006 C3007 1.414 . S
C3006 C3009 1.499 . S
C3007 H2981 0.950 . S
C3007 C3006 1.414 . S
C3007 C3008 1.374 . S
C3008 H2982 0.950 . S
C3008 C3004 1.385 . S
C3008 C3007 1.374 . S
C3009 C3006 1.499 . S
C3009 C3010 1.373 . S
C3009 C3011 1.389 . S
C3010 H2983 0.950 . S
C3010 C2996 1.377 1_455 S
C3010 C3009 1.373 . S
C3011 C2995 1.377 1_455 S
C3011 C3009 1.389 . S
C3011 C3012 1.524 . S
C3012 C3011 1.524 . S
C3012 C3013 1.397 . S
C3012 C3017 1.363 . S
C3013 H2984 0.950 . S
C3013 C3012 1.397 . S
C3013 C3014 1.334 . S
C3014 H2985 0.950 . S
C3014 C3013 1.334 . S
C3014 C3015 1.287 . S
C3015 C3014 1.287 . S
C3015 C3016 1.524 . S
C3015 H3018 0.999 . S
C3016 H2986 0.950 . S
C3016 C3015 1.524 . S
C3016 C3017 1.415 . S
C3017 H2987 0.937 1_455 S
C3017 C3012 1.363 . S
C3017 C3016 1.415 . S
H3018 C3015 0.999 . S
H3019 C3000 0.913 . S
H3020 C3038 0.951 . S
H3021 C3040 0.951 . S
H3022 C3042 0.950 . S
H3023 C3043 0.950 . S
H3024 C3045 0.950 . S
H3025 C3048 0.950 . S
H3026 C3049 0.950 . S
H3027 C3051 0.950 . S
H3028 C3052 0.950 . S
H3029 C3053 0.951 . S
H3030 C3055 0.951 . S
H3031 C3057 0.950 . S
H3032 C3058 0.950 . S
H3033 C3060 0.950 . S
H3034 C3063 0.950 . S
H3035 C3064 0.950 . S
H3036 C3066 0.950 . S
H3037 C3067 0.950 . S
C3038 H3020 0.951 . S
C3038 C3039 1.366 . S
C3038 C3040 1.388 . S
C3039 C3038 1.366 . S
C3039 C3043 1.385 . S
C3040 H3021 0.951 . S
C3040 C3038 1.388 . S
C3040 C3041 1.366 . S
C3041 C3040 1.366 . S
C3041 C3042 1.414 . S
C3041 C3044 1.499 . S
C3042 H3022 0.950 . S
C3042 C3041 1.414 . S
C3042 C3043 1.374 . S
C3043 H3023 0.950 . S
C3043 C3039 1.385 . S
C3043 C3042 1.374 . S
C3044 C3041 1.499 . S
C3044 C3045 1.373 . S
C3044 C3046 1.389 . S
C3045 H3024 0.950 . S
C3045 C3044 1.373 . S
C3045 C3061 1.377 . S
C3046 C3044 1.389 . S
C3046 C3047 1.524 . S
C3046 C3060 1.377 . S
C3047 C3046 1.524 . S
C3047 C3048 1.397 . S
C3047 C3052 1.363 . S
C3048 H3025 0.950 . S
C3048 C3047 1.397 . S
C3048 C3049 1.334 . S
C3049 H3026 0.950 . S
C3049 C3048 1.334 . S
C3049 C3050 1.287 . S
C3050 C3049 1.287 . S
C3050 C3051 1.524 . S
C3050 H3069 0.913 . S
C3051 H3027 0.950 . S
C3051 C3050 1.524 . S
C3051 C3052 1.415 . S
C3052 H3028 0.950 . S
C3052 C3047 1.363 . S
C3052 C3051 1.415 . S
C3053 H3029 0.951 . S
C3053 C3054 1.366 . S
C3053 C3055 1.388 . S
C3054 C3053 1.366 . S
C3054 C3058 1.385 . S
C3055 H3030 0.951 . S
C3055 C3053 1.388 . S
C3055 C3056 1.366 . S
C3056 C3055 1.366 . S
C3056 C3057 1.414 . S
C3056 C3059 1.499 . S
C3057 H3031 0.950 . S
C3057 C3056 1.414 . S
C3057 C3058 1.374 . S
C3058 H3032 0.950 . S
C3058 C3054 1.385 . S
C3058 C3057 1.374 . S
C3059 C3056 1.499 . S
C3059 C3060 1.373 . S
C3059 C3061 1.389 . S
C3060 H3033 0.950 . S
C3060 C3046 1.377 . S
C3060 C3059 1.373 . S
C3061 C3045 1.377 . S
C3061 C3059 1.389 . S
C3061 C3062 1.524 . S
C3062 C3061 1.524 . S
C3062 C3063 1.397 . S
C3062 C3067 1.363 . S
C3063 H3034 0.950 . S
C3063 C3062 1.397 . S
C3063 C3064 1.334 . S
C3064 H3035 0.950 . S
C3064 C3063 1.334 . S
C3064 C3065 1.287 . S
C3065 C3064 1.287 . S
C3065 C3066 1.524 . S
C3065 H3068 0.999 . S
C3066 H3036 0.950 . S
C3066 C3065 1.524 . S
C3066 C3067 1.415 . S
C3067 H3037 0.950 . S
C3067 C3062 1.363 . S
C3067 C3066 1.415 . S
H3068 C3065 0.999 . S
H3069 C3050 0.913 . S
H3070 C3088 0.951 . S
H3071 C3090 0.951 . S
H3072 C3092 0.950 . S
H3073 C3093 0.950 . S
H3074 C3095 0.950 1_565 S
H3075 C3098 0.950 1_565 S
H3076 C3099 0.950 1_565 S
H3077 C3101 0.950 . S
H3078 C3102 0.950 . S
H3079 C3103 0.951 . S
H3080 C3105 0.951 . S
H3081 C3107 0.950 . S
H3082 C3108 0.950 . S
H3083 C3110 0.950 . S
H3084 C3113 0.950 . S
H3085 C3114 0.950 . S
H3086 C3116 0.950 . S
H3087 C3117 0.950 . S
C3088 H3070 0.951 . S
C3088 C3089 1.366 . S
C3088 C3090 1.388 . S
C3089 C3088 1.366 . S
C3089 C3093 1.385 . S
C3090 H3071 0.951 . S
C3090 C3088 1.388 . S
C3090 C3091 1.366 . S
C3091 C3090 1.366 . S
C3091 C3092 1.414 . S
C3091 C3094 1.499 . S
C3092 H3072 0.950 . S
C3092 C3091 1.414 . S
C3092 C3093 1.374 . S
C3093 H3073 0.950 . S
C3093 C3089 1.385 . S
C3093 C3092 1.374 . S
C3094 C3091 1.499 . S
C3094 C3095 1.373 1_565 S
C3094 C3096 1.389 1_565 S
C3095 H3074 0.950 1_545 S
C3095 C3094 1.373 1_545 S
C3095 C3111 1.377 . S
C3096 C3094 1.389 1_545 S
C3096 C3097 1.524 . S
C3096 C3110 1.377 . S
C3097 C3096 1.524 . S
C3097 C3098 1.397 . S
C3097 C3102 1.363 . S
C3098 H3075 0.950 1_545 S
C3098 C3097 1.397 . S
C3098 C3099 1.334 . S
C3099 H3076 0.950 1_545 S
C3099 C3098 1.334 . S
C3099 C3100 1.287 . S
C3100 C3099 1.287 . S
C3100 C3101 1.524 . S
C3100 H3119 0.913 . S
C3101 H3077 0.950 . S
C3101 C3100 1.524 . S
C3101 C3102 1.415 . S
C3102 H3078 0.950 . S
C3102 C3097 1.363 . S
C3102 C3101 1.415 . S
C3103 H3079 0.951 . S
C3103 C3104 1.366 . S
C3103 C3105 1.388 . S
C3104 C3103 1.366 . S
C3104 C3108 1.385 . S
C3105 H3080 0.951 . S
C3105 C3103 1.388 . S
C3105 C3106 1.366 . S
C3106 C3105 1.366 . S
C3106 C3107 1.414 . S
C3106 C3109 1.499 . S
C3107 H3081 0.950 . S
C3107 C3106 1.414 . S
C3107 C3108 1.374 . S
C3108 H3082 0.950 . S
C3108 C3104 1.385 . S
C3108 C3107 1.374 . S
C3109 C3106 1.499 . S
C3109 C3110 1.373 . S
C3109 C3111 1.389 . S
C3110 H3083 0.950 . S
C3110 C3096 1.377 . S
C3110 C3109 1.373 . S
C3111 C3095 1.377 . S
C3111 C3109 1.389 . S
C3111 C3112 1.524 . S
C3112 C3111 1.524 . S
C3112 C3113 1.397 . S
C3112 C3117 1.363 . S
C3113 H3084 0.950 . S
C3113 C3112 1.397 . S
C3113 C3114 1.334 . S
C3114 H3085 0.950 . S
C3114 C3113 1.334 . S
C3114 C3115 1.287 . S
C3115 C3114 1.287 . S
C3115 C3116 1.524 . S
C3115 H3118 0.999 . S
C3116 H3086 0.950 . S
C3116 C3115 1.524 . S
C3116 C3117 1.415 . S
C3117 H3087 0.950 . S
C3117 C3112 1.363 . S
C3117 C3116 1.415 . S
H3118 C3115 0.999 . S
H3119 C3100 0.913 . S
H3120 C3138 0.951 . S
H3121 C3140 0.951 . S
H3122 C3142 0.950 . S
H3123 C3143 0.950 . S
H3124 C3145 0.950 . S
H3125 C3148 0.950 . S
H3126 C3149 0.950 . S
H3127 C3151 0.950 . S
H3128 C3152 0.950 . S
H3129 C3153 0.951 . S
H3130 C3155 0.951 . S
H3131 C3157 0.950 . S
H3132 C3158 0.950 . S
H3133 C3160 0.950 . S
H3134 C3163 0.950 . S
H3135 C3164 0.950 . S
H3136 C3166 0.950 1_565 S
H3137 C3167 0.950 . S
C3138 H3120 0.951 . S
C3138 C3139 1.366 . S
C3138 C3140 1.388 . S
C3139 C3138 1.366 . S
C3139 C3143 1.385 . S
C3140 H3121 0.951 . S
C3140 C3138 1.388 . S
C3140 C3141 1.366 . S
C3141 C3140 1.366 . S
C3141 C3142 1.414 . S
C3141 C3144 1.499 . S
C3142 H3122 0.950 . S
C3142 C3141 1.414 . S
C3142 C3143 1.374 . S
C3143 H3123 0.950 . S
C3143 C3139 1.385 . S
C3143 C3142 1.374 . S
C3144 C3141 1.499 . S
C3144 C3145 1.373 . S
C3144 C3146 1.377 1_565 S
C3145 H3124 0.950 . S
C3145 C3144 1.373 . S
C3145 C3161 1.377 1_565 S
C3146 C3144 1.377 1_545 S
C3146 C3147 1.507 1_545 S
C3146 C3160 1.409 . S
C3147 C3146 1.507 1_565 S
C3147 C3148 1.397 . S
C3147 C3152 1.363 1_565 S
C3148 H3125 0.950 . S
C3148 C3147 1.397 . S
C3148 C3149 1.334 . S
C3149 H3126 0.950 . S
C3149 C3148 1.334 . S
C3149 C3150 1.287 . S
C3150 C3149 1.287 . S
C3150 C3151 1.524 1_565 S
C3150 H3169 0.913 . S
C3151 H3127 0.950 . S
C3151 C3150 1.524 1_545 S
C3151 C3152 1.415 . S
C3152 H3128 0.950 . S
C3152 C3147 1.363 1_545 S
C3152 C3151 1.415 . S
C3153 H3129 0.951 . S
C3153 C3154 1.366 . S
C3153 C3155 1.388 . S
C3154 C3153 1.366 . S
C3154 C3158 1.385 . S
C3155 H3130 0.951 . S
C3155 C3153 1.388 . S
C3155 C3156 1.366 . S
C3156 C3155 1.366 . S
C3156 C3157 1.414 . S
C3156 C3159 1.499 . S
C3157 H3131 0.950 . S
C3157 C3156 1.414 . S
C3157 C3158 1.374 . S
C3158 H3132 0.950 . S
C3158 C3154 1.385 . S
C3158 C3157 1.374 . S
C3159 C3156 1.499 . S
C3159 C3160 1.373 . S
C3159 C3161 1.389 . S
C3160 H3133 0.950 . S
C3160 C3146 1.409 . S
C3160 C3159 1.373 . S
C3161 C3145 1.377 1_545 S
C3161 C3159 1.389 . S
C3161 C3162 1.524 . S
C3162 C3161 1.524 . S
C3162 C3163 1.397 . S
C3162 C3167 1.363 1_545 S
C3163 H3134 0.950 . S
C3163 C3162 1.397 . S
C3163 C3164 1.334 . S
C3164 H3135 0.950 . S
C3164 C3163 1.334 . S
C3164 C3165 1.287 . S
C3165 C3164 1.287 . S
C3165 C3166 1.523 . S
C3165 H3168 0.999 . S
C3166 H3136 0.950 1_545 S
C3166 C3165 1.523 . S
C3166 C3167 1.416 1_545 S
C3167 H3137 0.950 . S
C3167 C3162 1.363 1_565 S
C3167 C3166 1.416 1_565 S
H3168 C3165 0.999 . S
H3169 C3150 0.913 . S
H3170 C3188 0.951 . S
H3171 C3190 0.951 . S
H3172 C3192 0.950 . S
H3173 C3193 0.950 . S
H3174 C3195 0.950 . S
H3175 C3198 0.950 . S
H3176 C3199 0.950 . S
H3177 C3201 0.950 . S
H3178 C3202 0.950 . S
H3179 C3203 0.951 . S
H3180 C3205 0.951 . S
H3181 C3207 0.950 . S
H3182 C3208 0.950 . S
H3183 C3210 0.950 1_655 S
H3184 C3213 0.950 . S
H3185 C3214 0.950 . S
H3186 C3216 0.950 . S
H3187 C3217 0.950 . S
C3188 H3170 0.951 . S
C3188 C3189 1.366 . S
C3188 C3190 1.388 . S
C3189 C3188 1.366 . S
C3189 C3193 1.385 . S
C3190 H3171 0.951 . S
C3190 C3188 1.388 . S
C3190 C3191 1.366 . S
C3191 C3190 1.366 . S
C3191 C3192 1.414 . S
C3191 C3194 1.499 . S
C3192 H3172 0.950 . S
C3192 C3191 1.414 . S
C3192 C3193 1.374 . S
C3193 H3173 0.950 . S
C3193 C3189 1.385 . S
C3193 C3192 1.374 . S
C3194 C3191 1.499 . S
C3194 C3195 1.373 . S
C3194 C3196 1.389 . S
C3195 H3174 0.950 . S
C3195 C3194 1.373 . S
C3195 C3211 1.377 . S
C3196 C3194 1.389 . S
C3196 C3197 1.524 . S
C3196 C3210 1.377 . S
C3197 C3196 1.524 . S
C3197 C3198 1.397 . S
C3197 C3202 1.363 . S
C3198 H3175 0.950 . S
C3198 C3197 1.397 . S
C3198 C3199 1.334 . S
C3199 H3176 0.950 . S
C3199 C3198 1.334 . S
C3199 C3200 1.287 . S
C3200 C3199 1.287 . S
C3200 C3201 1.524 . S
C3200 H3219 0.913 . S
C3201 H3177 0.950 . S
C3201 C3200 1.524 . S
C3201 C3202 1.415 . S
C3202 H3178 0.950 . S
C3202 C3197 1.363 . S
C3202 C3201 1.415 . S
C3203 H3179 0.951 . S
C3203 C3204 1.366 . S
C3203 C3205 1.388 . S
C3204 C3203 1.366 . S
C3204 C3208 1.385 . S
C3205 H3180 0.951 . S
C3205 C3203 1.388 . S
C3205 C3206 1.366 . S
C3206 C3205 1.366 . S
C3206 C3207 1.414 . S
C3206 C3209 1.499 . S
C3207 H3181 0.950 . S
C3207 C3206 1.414 . S
C3207 C3208 1.374 . S
C3208 H3182 0.950 . S
C3208 C3204 1.385 . S
C3208 C3207 1.374 . S
C3209 C3206 1.499 . S
C3209 C3210 1.373 1_655 S
C3209 C3211 1.389 1_655 S
C3210 H3183 0.950 1_455 S
C3210 C3196 1.377 . S
C3210 C3209 1.373 1_455 S
C3211 C3195 1.377 . S
C3211 C3209 1.389 1_455 S
C3211 C3212 1.524 . S
C3212 C3211 1.524 . S
C3212 C3213 1.397 1_455 S
C3212 C3217 1.363 . S
C3213 H3184 0.950 . S
C3213 C3212 1.397 1_655 S
C3213 C3214 1.334 . S
C3214 H3185 0.950 . S
C3214 C3213 1.334 . S
C3214 C3215 1.287 1_655 S
C3215 C3214 1.287 1_455 S
C3215 C3216 1.524 . S
C3215 H3218 0.999 . S
C3216 H3186 0.950 . S
C3216 C3215 1.524 . S
C3216 C3217 1.415 . S
C3217 H3187 0.950 . S
C3217 C3212 1.363 . S
C3217 C3216 1.415 . S
H3218 C3215 0.999 . S
H3219 C3200 0.913 . S
H3220 C3238 0.951 . S
H3221 C3240 0.951 . S
H3222 C3242 0.950 . S
H3223 C3243 0.950 . S
H3224 C3245 0.950 . S
H3225 C3248 0.950 . S
H3226 C3249 0.950 . S
H3227 C3251 0.950 . S
H3228 C3252 0.950 . S
H3229 C3253 0.951 . S
H3230 C3255 0.951 . S
H3231 C3257 0.950 . S
H3232 C3258 0.950 . S
H3233 C3260 0.950 . S
H3234 C3263 0.950 . S
H3235 C3264 0.950 . S
H3236 C3266 0.950 . S
H3237 C3267 0.950 . S
C3238 H3220 0.951 . S
C3238 C3239 1.366 . S
C3238 C3240 1.388 . S
C3239 C3238 1.366 . S
C3239 C3243 1.385 . S
C3240 H3221 0.951 . S
C3240 C3238 1.388 . S
C3240 C3241 1.366 . S
C3241 C3240 1.366 . S
C3241 C3242 1.414 . S
C3241 C3244 1.499 . S
C3242 H3222 0.950 . S
C3242 C3241 1.414 . S
C3242 C3243 1.374 . S
C3243 H3223 0.950 . S
C3243 C3239 1.385 . S
C3243 C3242 1.374 . S
C3244 C3241 1.499 . S
C3244 C3245 1.373 . S
C3244 C3246 1.389 . S
C3245 H3224 0.950 . S
C3245 C3244 1.373 . S
C3245 C3261 1.377 . S
C3246 C3244 1.389 . S
C3246 C3247 1.524 . S
C3246 C3260 1.377 . S
C3247 C3246 1.524 . S
C3247 C3248 1.397 . S
C3247 C3252 1.363 . S
C3248 H3225 0.950 . S
C3248 C3247 1.397 . S
C3248 C3249 1.334 . S
C3249 H3226 0.950 . S
C3249 C3248 1.334 . S
C3249 C3250 1.287 . S
C3250 C3249 1.287 . S
C3250 C3251 1.524 . S
C3250 H3269 0.913 . S
C3251 H3227 0.950 . S
C3251 C3250 1.524 . S
C3251 C3252 1.415 . S
C3252 H3228 0.950 . S
C3252 C3247 1.363 . S
C3252 C3251 1.415 . S
C3253 H3229 0.951 . S
C3253 C3254 1.366 . S
C3253 C3255 1.388 . S
C3254 C3253 1.366 . S
C3254 C3258 1.385 . S
C3255 H3230 0.951 . S
C3255 C3253 1.388 . S
C3255 C3256 1.366 . S
C3256 C3255 1.366 . S
C3256 C3257 1.414 . S
C3256 C3259 1.499 . S
C3257 H3231 0.950 . S
C3257 C3256 1.414 . S
C3257 C3258 1.374 . S
C3258 H3232 0.950 . S
C3258 C3254 1.385 . S
C3258 C3257 1.374 . S
C3259 C3256 1.499 . S
C3259 C3260 1.373 . S
C3259 C3261 1.389 . S
C3260 H3233 0.950 . S
C3260 C3246 1.377 . S
C3260 C3259 1.373 . S
C3261 C3245 1.377 . S
C3261 C3259 1.389 . S
C3261 C3262 1.524 . S
C3262 C3261 1.524 . S
C3262 C3263 1.397 . S
C3262 C3267 1.363 . S
C3263 H3234 0.950 . S
C3263 C3262 1.397 . S
C3263 C3264 1.334 . S
C3264 H3235 0.950 . S
C3264 C3263 1.334 . S
C3264 C3265 1.287 . S
C3265 C3264 1.287 . S
C3265 C3266 1.524 . S
C3265 H3268 0.999 . S
C3266 H3236 0.950 . S
C3266 C3265 1.524 . S
C3266 C3267 1.415 . S
C3267 H3237 0.950 . S
C3267 C3262 1.363 . S
C3267 C3266 1.415 . S
H3268 C3265 0.999 . S
H3269 C3250 0.913 . S
H3270 C3288 0.951 . S
H3271 C3290 0.951 . S
H3272 C3292 0.950 . S
H3273 C3293 0.950 . S
H3274 C3295 0.950 . S
H3275 C3298 0.950 . S
H3276 C3299 0.950 . S
H3277 C3301 0.950 . S
H3278 C3302 0.950 . S
H3279 C3303 0.951 . S
H3280 C3305 0.951 . S
H3281 C3307 0.950 . S
H3282 C3308 0.950 . S
H3283 C3310 0.950 . S
H3284 C3313 0.950 . S
H3285 C3314 0.950 . S
H3286 C3316 0.950 . S
H3287 C3317 0.950 . S
C3288 H3270 0.951 . S
C3288 C3289 1.366 . S
C3288 C3290 1.388 . S
C3289 C3288 1.366 . S
C3289 C3293 1.385 . S
C3290 H3271 0.951 . S
C3290 C3288 1.388 . S
C3290 C3291 1.366 . S
C3291 C3290 1.366 . S
C3291 C3292 1.414 . S
C3291 C3294 1.499 . S
C3292 H3272 0.950 . S
C3292 C3291 1.414 . S
C3292 C3293 1.374 . S
C3293 H3273 0.950 . S
C3293 C3289 1.385 . S
C3293 C3292 1.374 . S
C3294 C3291 1.499 . S
C3294 C3295 1.373 . S
C3294 C3296 1.389 . S
C3295 H3274 0.950 . S
C3295 C3294 1.373 . S
C3295 C3311 1.377 . S
C3296 C3294 1.389 . S
C3296 C3297 1.524 . S
C3296 C3310 1.377 . S
C3297 C3296 1.524 . S
C3297 C3298 1.397 . S
C3297 C3302 1.363 . S
C3298 H3275 0.950 . S
C3298 C3297 1.397 . S
C3298 C3299 1.334 . S
C3299 H3276 0.950 . S
C3299 C3298 1.334 . S
C3299 C3300 1.287 . S
C3300 C3299 1.287 . S
C3300 C3301 1.524 . S
C3300 H3319 0.913 . S
C3301 H3277 0.950 . S
C3301 C3300 1.524 . S
C3301 C3302 1.415 . S
C3302 H3278 0.950 . S
C3302 C3297 1.363 . S
C3302 C3301 1.415 . S
C3303 H3279 0.951 . S
C3303 C3304 1.366 . S
C3303 C3305 1.388 . S
C3304 C3303 1.366 . S
C3304 C3308 1.385 . S
C3305 H3280 0.951 . S
C3305 C3303 1.388 . S
C3305 C3306 1.366 . S
C3306 C3305 1.366 . S
C3306 C3307 1.414 . S
C3306 C3309 1.499 . S
C3307 H3281 0.950 . S
C3307 C3306 1.414 . S
C3307 C3308 1.374 . S
C3308 H3282 0.950 . S
C3308 C3304 1.385 . S
C3308 C3307 1.374 . S
C3309 C3306 1.499 . S
C3309 C3310 1.373 . S
C3309 C3311 1.389 . S
C3310 H3283 0.950 . S
C3310 C3296 1.377 . S
C3310 C3309 1.373 . S
C3311 C3295 1.377 . S
C3311 C3309 1.389 . S
C3311 C3312 1.524 . S
C3312 C3311 1.524 . S
C3312 C3313 1.397 . S
C3312 C3317 1.363 . S
C3313 H3284 0.950 . S
C3313 C3312 1.397 . S
C3313 C3314 1.334 . S
C3314 H3285 0.950 . S
C3314 C3313 1.334 . S
C3314 C3315 1.287 . S
C3315 C3314 1.287 . S
C3315 C3316 1.524 . S
C3315 H3318 0.999 . S
C3316 H3286 0.950 . S
C3316 C3315 1.524 . S
C3316 C3317 1.415 . S
C3317 H3287 0.950 . S
C3317 C3312 1.363 . S
C3317 C3316 1.415 . S
H3318 C3315 0.999 . S
H3319 C3300 0.913 . S
H3320 C3338 0.951 . S
H3321 C3340 0.951 . S
H3322 C3342 0.950 . S
H3323 C3343 0.950 . S
H3324 C3345 0.950 . S
H3325 C3348 0.950 . S
H3326 C3349 0.950 . S
H3327 C3351 0.950 . S
H3328 C3352 0.950 . S
H3329 C3353 0.951 . S
H3330 C3355 0.951 . S
H3331 C3357 0.950 . S
H3332 C3358 0.950 . S
H3333 C3360 0.950 . S
H3334 C3363 0.950 . S
H3335 C3364 0.950 . S
H3336 C3366 0.950 . S
H3337 C3367 0.950 . S
C3338 H3320 0.951 . S
C3338 C3339 1.366 . S
C3338 C3340 1.388 . S
C3339 C3338 1.366 . S
C3339 C3343 1.385 . S
C3340 H3321 0.951 . S
C3340 C3338 1.388 . S
C3340 C3341 1.366 . S
C3341 C3340 1.366 . S
C3341 C3342 1.414 . S
C3341 C3344 1.499 . S
C3342 H3322 0.950 . S
C3342 C3341 1.414 . S
C3342 C3343 1.374 . S
C3343 H3323 0.950 . S
C3343 C3339 1.385 . S
C3343 C3342 1.374 . S
C3344 C3341 1.499 . S
C3344 C3345 1.373 . S
C3344 C3346 1.389 . S
C3345 H3324 0.950 . S
C3345 C3344 1.373 . S
C3345 C3361 1.377 . S
C3346 C3344 1.389 . S
C3346 C3347 1.524 . S
C3346 C3360 1.377 . S
C3347 C3346 1.524 . S
C3347 C3348 1.397 . S
C3347 C3352 1.363 . S
C3348 H3325 0.950 . S
C3348 C3347 1.397 . S
C3348 C3349 1.334 . S
C3349 H3326 0.950 . S
C3349 C3348 1.334 . S
C3349 C3350 1.287 . S
C3350 C3349 1.287 . S
C3350 C3351 1.524 . S
C3350 H3369 0.913 . S
C3351 H3327 0.950 . S
C3351 C3350 1.524 . S
C3351 C3352 1.415 . S
C3352 H3328 0.950 . S
C3352 C3347 1.363 . S
C3352 C3351 1.415 . S
C3353 H3329 0.951 . S
C3353 C3354 1.366 . S
C3353 C3355 1.388 . S
C3354 C3353 1.366 . S
C3354 C3358 1.385 . S
C3355 H3330 0.951 . S
C3355 C3353 1.388 . S
C3355 C3356 1.366 . S
C3356 C3355 1.366 . S
C3356 C3357 1.414 . S
C3356 C3359 1.499 . S
C3357 H3331 0.950 . S
C3357 C3356 1.414 . S
C3357 C3358 1.374 . S
C3358 H3332 0.950 . S
C3358 C3354 1.385 . S
C3358 C3357 1.374 . S
C3359 C3356 1.499 . S
C3359 C3360 1.373 . S
C3359 C3361 1.389 . S
C3360 H3333 0.950 . S
C3360 C3346 1.377 . S
C3360 C3359 1.373 . S
C3361 C3345 1.377 . S
C3361 C3359 1.389 . S
C3361 C3362 1.524 . S
C3362 C3361 1.524 . S
C3362 C3363 1.397 . S
C3362 C3367 1.363 . S
C3363 H3334 0.950 . S
C3363 C3362 1.397 . S
C3363 C3364 1.334 . S
C3364 H3335 0.950 . S
C3364 C3363 1.334 . S
C3364 C3365 1.287 . S
C3365 C3364 1.287 . S
C3365 C3366 1.524 . S
C3365 H3368 0.999 . S
C3366 H3336 0.950 . S
C3366 C3365 1.524 . S
C3366 C3367 1.415 . S
C3367 H3337 0.950 . S
C3367 C3362 1.363 . S
C3367 C3366 1.415 . S
H3368 C3365 0.999 . S
H3369 C3350 0.913 . S
H3370 C3388 0.951 . S
H3371 C3390 0.951 . S
H3372 C3392 0.950 . S
H3373 C3393 0.950 . S
H3374 C3395 0.950 . S
H3375 C3398 0.950 . S
H3376 C3399 0.950 . S
H3377 C3401 0.950 . S
H3378 C3402 0.950 . S
H3379 C3403 0.951 . S
H3380 C3405 0.951 . S
H3381 C3407 0.950 . S
H3382 C3408 0.950 . S
H3383 C3410 0.950 . S
H3384 C3413 0.950 . S
H3385 C3414 0.950 . S
H3386 C3416 0.950 . S
H3387 C3417 0.950 . S
C3388 H3370 0.951 . S
C3388 C3389 1.366 . S
C3388 C3390 1.388 . S
C3389 C3388 1.366 . S
C3389 C3393 1.385 . S
C3390 H3371 0.951 . S
C3390 C3388 1.388 . S
C3390 C3391 1.366 . S
C3391 C3390 1.366 . S
C3391 C3392 1.414 . S
C3391 C3394 1.499 . S
C3392 H3372 0.950 . S
C3392 C3391 1.414 . S
C3392 C3393 1.374 . S
C3393 H3373 0.950 . S
C3393 C3389 1.385 . S
C3393 C3392 1.374 . S
C3394 C3391 1.499 . S
C3394 C3395 1.373 . S
C3394 C3396 1.389 . S
C3395 H3374 0.950 . S
C3395 C3394 1.373 . S
C3395 C3411 1.377 . S
C3396 C3394 1.389 . S
C3396 C3397 1.524 . S
C3396 C3410 1.377 . S
C3397 C3396 1.524 . S
C3397 C3398 1.397 . S
C3397 C3402 1.363 . S
C3398 H3375 0.950 . S
C3398 C3397 1.397 . S
C3398 C3399 1.334 . S
C3399 H3376 0.950 . S
C3399 C3398 1.334 . S
C3399 C3400 1.287 . S
C3400 C3399 1.287 . S
C3400 C3401 1.524 . S
C3400 H3419 0.913 . S
C3401 H3377 0.950 . S
C3401 C3400 1.524 . S
C3401 C3402 1.415 . S
C3402 H3378 0.950 . S
C3402 C3397 1.363 . S
C3402 C3401 1.415 . S
C3403 H3379 0.951 . S
C3403 C3404 1.366 . S
C3403 C3405 1.388 . S
C3404 C3403 1.366 . S
C3404 C3408 1.385 . S
C3405 H3380 0.951 . S
C3405 C3403 1.388 . S
C3405 C3406 1.366 . S
C3406 C3405 1.366 . S
C3406 C3407 1.414 . S
C3406 C3409 1.499 . S
C3407 H3381 0.950 . S
C3407 C3406 1.414 . S
C3407 C3408 1.374 . S
C3408 H3382 0.950 . S
C3408 C3404 1.385 . S
C3408 C3407 1.374 . S
C3409 C3406 1.499 . S
C3409 C3410 1.373 . S
C3409 C3411 1.389 . S
C3410 H3383 0.950 . S
C3410 C3396 1.377 . S
C3410 C3409 1.373 . S
C3411 C3395 1.377 . S
C3411 C3409 1.389 . S
C3411 C3412 1.524 . S
C3412 C3411 1.524 . S
C3412 C3413 1.397 . S
C3412 C3417 1.363 . S
C3413 H3384 0.950 . S
C3413 C3412 1.397 . S
C3413 C3414 1.334 . S
C3414 H3385 0.950 . S
C3414 C3413 1.334 . S
C3414 C3415 1.287 . S
C3415 C3414 1.287 . S
C3415 C3416 1.524 . S
C3415 H3418 0.999 . S
C3416 H3386 0.950 . S
C3416 C3415 1.524 . S
C3416 C3417 1.415 . S
C3417 H3387 0.950 . S
C3417 C3412 1.363 . S
C3417 C3416 1.415 . S
H3418 C3415 0.999 . S
H3419 C3400 0.913 . S
C739 C15 1.141 . S
C754 C99 1.161 . S
C789 C19 1.162 . S
C804 C55 1.141 . S
C839 C59 1.161 . S
C854 C95 1.141 . S
C889 C135 1.140 . S
C904 C179 1.161 . S
C939 C219 1.161 . S
C954 C175 1.141 . S
C989 C215 1.140 . S
C1004 C139 1.161 . S
C1039 C339 1.161 . S
C1054 C255 1.140 . S
C1089 C259 1.161 . S
C1104 C295 1.141 1_545 S
C1139 C335 1.141 . S
C1154 C299 1.161 . S
C1189 C419 1.161 . S
C1204 C375 1.140 . S
C1239 C415 1.140 . S
C1254 C459 1.161 . S
C1289 C379 1.161 . S
C1304 C455 1.141 . S
C1339 C495 1.140 . S
C1354 C579 1.161 . S
C1389 C499 1.161 . S
C1404 C535 1.140 . S
C1439 C539 1.161 . S
C1454 C575 1.141 . S
C1489 C659 1.161 . S
C1504 C615 1.140 . S
C1539 C699 1.161 . S
C1554 C655 1.140 . S
C1589 C619 1.161 . S
C1604 C695 1.140 1_455 S
C1639 C18 1.785 . S
C1654 C218 1.786 . S
C1689 C138 1.786 . S
C1704 C58 1.786 . S
C1739 C178 1.786 . S
C1754 C98 1.786 . S
C1789 C258 1.786 . S
C1804 C458 1.786 . S
C1839 C298 1.786 . S
C1854 C378 1.785 . S
C1889 C418 1.785 . S
C1904 C338 1.785 . S
C1939 C498 1.785 . S
C1954 C698 1.785 . S
C1989 C618 1.785 . S
C2004 C538 1.786 . S
C2039 C658 1.785 . S
C2054 C578 1.785 . S
C2089 C409 2.038 . S
C2104 C9 2.038 1_565 S
C2139 C49 2.038 . S
C2154 C449 2.038 . S
C2189 C369 2.038 . S
C2204 C89 2.038 . S
C2239 C129 2.038 1_655 S
C2254 C569 2.038 . S
C2289 C169 2.037 . S
C2304 C489 2.037 . S
C2339 C529 2.038 . S
C2354 C209 2.038 . S
C2389 C649 2.037 . S
C2404 C249 2.038 . S
C2439 C289 2.037 . S
C2454 C689 2.038 . S
C2489 C329 2.037 . S
C2504 C609 2.037 . S
C2539 C90 1.847 . S
C2554 C6 1.862 . S
C2589 C10 1.847 . S
C2604 C46 1.861 . S
C2639 C86 1.862 . S
C2654 C50 1.847 . S
C2689 C170 1.847 . S
C2704 C126 1.862 . S
C2739 C210 1.847 . S
C2754 C166 1.862 . S
C2789 C206 1.862 . S
C2804 C130 1.847 . S
C2839 C330 1.847 . S
C2854 C246 1.862 . S
C2889 C286 1.862 . S
C2904 C250 1.847 . S
C2939 C290 1.847 . S
C2954 C326 1.862 . S
C2989 C366 1.862 . S
C3004 C410 1.847 . S
C3039 C406 1.862 . S
C3054 C450 1.847 . S
C3089 C370 1.847 . S
C3104 C446 1.862 . S
C3139 C486 1.862 . S
C3154 C570 1.847 . S
C3189 C526 1.862 . S
C3204 C490 1.847 . S
C3239 C530 1.847 . S
C3254 C566 1.862 . S
C3289 C606 1.862 . S
C3304 C650 1.847 . S
C3339 C646 1.862 . S
C3354 C690 1.847 . S
C3389 C610 1.847 . S
C3404 C686 1.862 . S
