# Generated by pormake.
# Topology umz, (4)-cn, num edge types: 1
# Building blocks:
#     Node 0, Type 0, BuildingBlock: GALJAG_clean_sbu_0, # of connection points: 4
#     Node 1, Type 0, BuildingBlock: GALJAG_clean_sbu_0, # of connection points: 4
#     Node 2, Type 0, BuildingBlock: GALJAG_clean_sbu_0, # of connection points: 4
#     Node 3, Type 0, BuildingBlock: GALJAG_clean_sbu_0, # of connection points: 4
#     Node 4, Type 0, BuildingBlock: GALJAG_clean_sbu_0, # of connection points: 4
#     Node 5, Type 0, BuildingBlock: GALJAG_clean_sbu_0, # of connection points: 4
#     Node 6, Type 0, BuildingBlock: GALJAG_clean_sbu_0, # of connection points: 4
#     Node 7, Type 0, BuildingBlock: GALJAG_clean_sbu_0, # of connection points: 4
#     Node 8, Type 0, BuildingBlock: GALJAG_clean_sbu_0, # of connection points: 4
#     Node 9, Type 0, BuildingBlock: GALJAG_clean_sbu_0, # of connection points: 4
#     Node 10, Type 0, BuildingBlock: GALJAG_clean_sbu_0, # of connection points: 4
#     Node 11, Type 0, BuildingBlock: GALJAG_clean_sbu_0, # of connection points: 4
#     Node 12, Type 0, BuildingBlock: GALJAG_clean_sbu_0, # of connection points: 4
#     Node 13, Type 0, BuildingBlock: GALJAG_clean_sbu_0, # of connection points: 4
#     Node 14, Type 0, BuildingBlock: GALJAG_clean_sbu_0, # of connection points: 4
#     Node 15, Type 0, BuildingBlock: GALJAG_clean_sbu_0, # of connection points: 4
#     Edge 16, Type (0, 0), BuildingBlock: MIFKUJ_clean_linker_0, # of connection points: 2
#     Edge 17, Type (0, 0), BuildingBlock: MIFKUJ_clean_linker_0, # of connection points: 2
#     Edge 18, Type (0, 0), BuildingBlock: MIFKUJ_clean_linker_0, # of connection points: 2
#     Edge 19, Type (0, 0), BuildingBlock: MIFKUJ_clean_linker_0, # of connection points: 2
#     Edge 20, Type (0, 0), BuildingBlock: MIFKUJ_clean_linker_0, # of connection points: 2
#     Edge 21, Type (0, 0), BuildingBlock: MIFKUJ_clean_linker_0, # of connection points: 2
#     Edge 22, Type (0, 0), BuildingBlock: MIFKUJ_clean_linker_0, # of connection points: 2
#     Edge 23, Type (0, 0), BuildingBlock: MIFKUJ_clean_linker_0, # of connection points: 2
#     Edge 24, Type (0, 0), BuildingBlock: MIFKUJ_clean_linker_0, # of connection points: 2
#     Edge 25, Type (0, 0), BuildingBlock: MIFKUJ_clean_linker_0, # of connection points: 2
#     Edge 26, Type (0, 0), BuildingBlock: MIFKUJ_clean_linker_0, # of connection points: 2
#     Edge 27, Type (0, 0), BuildingBlock: MIFKUJ_clean_linker_0, # of connection points: 2
#     Edge 28, Type (0, 0), BuildingBlock: MIFKUJ_clean_linker_0, # of connection points: 2
#     Edge 29, Type (0, 0), BuildingBlock: MIFKUJ_clean_linker_0, # of connection points: 2
#     Edge 30, Type (0, 0), BuildingBlock: MIFKUJ_clean_linker_0, # of connection points: 2
#     Edge 31, Type (0, 0), BuildingBlock: MIFKUJ_clean_linker_0, # of connection points: 2
#     Edge 32, Type (0, 0), BuildingBlock: MIFKUJ_clean_linker_0, # of connection points: 2
#     Edge 33, Type (0, 0), BuildingBlock: MIFKUJ_clean_linker_0, # of connection points: 2
#     Edge 34, Type (0, 0), BuildingBlock: MIFKUJ_clean_linker_0, # of connection points: 2
#     Edge 35, Type (0, 0), BuildingBlock: MIFKUJ_clean_linker_0, # of connection points: 2
#     Edge 36, Type (0, 0), BuildingBlock: MIFKUJ_clean_linker_0, # of connection points: 2
#     Edge 37, Type (0, 0), BuildingBlock: MIFKUJ_clean_linker_0, # of connection points: 2
#     Edge 38, Type (0, 0), BuildingBlock: MIFKUJ_clean_linker_0, # of connection points: 2
#     Edge 39, Type (0, 0), BuildingBlock: MIFKUJ_clean_linker_0, # of connection points: 2
#     Edge 40, Type (0, 0), BuildingBlock: MIFKUJ_clean_linker_0, # of connection points: 2
#     Edge 41, Type (0, 0), BuildingBlock: MIFKUJ_clean_linker_0, # of connection points: 2
#     Edge 42, Type (0, 0), BuildingBlock: MIFKUJ_clean_linker_0, # of connection points: 2
#     Edge 43, Type (0, 0), BuildingBlock: MIFKUJ_clean_linker_0, # of connection points: 2
#     Edge 44, Type (0, 0), BuildingBlock: MIFKUJ_clean_linker_0, # of connection points: 2
#     Edge 45, Type (0, 0), BuildingBlock: MIFKUJ_clean_linker_0, # of connection points: 2
#     Edge 46, Type (0, 0), BuildingBlock: MIFKUJ_clean_linker_0, # of connection points: 2
#     Edge 47, Type (0, 0), BuildingBlock: MIFKUJ_clean_linker_0, # of connection points: 2
# Relax obj value: 0.183
# Max RMSD: 0.169
# Mean RMSD: 0.169
data_MOF--net-umz--node1-GALJAG_clean_sbu_0--edge1-MIFKUJ_clean_linker_0
_symmetry_space_group_name_H-M    P1
_symmetry_Int_Tables_number       1
_symmetry_cell_setting            triclinic
loop_
_symmetry_equiv_pos_as_xyz
'x, y, z'
_cell_length_a     72.920307
_cell_length_b     73.003855
_cell_length_c     32.609369
_cell_angle_alpha  90.06606
_cell_angle_beta   90.011021
_cell_angle_gamma 89.939611
loop_
_atom_site_label
_atom_site_type_symbol
_atom_site_fract_x
_atom_site_fract_y
_atom_site_fract_z
_atom_type_partial_charge
In0 In 0.04092 0.61994 0.12097 0.0
O1 O 0.04939 0.59842 0.07402 0.0
O2 O 0.06978 0.61688 0.09579 0.0
C3 C 0.00604 0.60967 0.13444 0.0
C4 C 0.03607 0.6524 0.08348 0.0
C5 C 0.05645 0.61273 0.19378 0.0
O6 O 0.01549 0.60318 0.10544 0.0
O7 O 0.01414 0.62135 0.15641 0.0
O8 O 0.05658 0.6286 0.17829 0.0
O9 O 0.04856 0.60063 0.17244 0.0
C10 C 0.06587 0.60366 0.07244 0.0
O11 O 0.04054 0.65127 0.12079 0.0
O12 O 0.03402 0.63727 0.06556 0.0
In13 In 0.86897 0.02928 0.65124 0.0
O14 O 0.8378 0.0303 0.64664 0.0
O15 O 0.85282 0.0181 0.59759 0.0
C16 C 0.87541 0.04847 0.72024 0.0
C17 C 0.88473 0.05192 0.59684 0.0
C18 C 0.87878 0.99522 0.67397 0.0
O19 O 0.85931 0.04516 0.70795 0.0
O20 O 0.88797 0.04232 0.69752 0.0
O21 O 0.88614 0.00329 0.64397 0.0
O22 O 0.86639 0.00423 0.69187 0.0
C23 C 0.83739 0.02263 0.61187 0.0
O24 O 0.89284 0.03783 0.61024 0.0
O25 O 0.86887 0.05458 0.61116 0.0
In26 In 0.46395 0.85526 0.15119 0.0
O27 O 0.46418 0.82405 0.15352 0.0
O28 O 0.48021 0.83726 0.10781 0.0
C29 C 0.44209 0.86262 0.21553 0.0
C30 C 0.4423 0.866 0.08888 0.0
C31 C 0.49576 0.87059 0.17537 0.0
O32 O 0.4493 0.84707 0.21023 0.0
O33 O 0.44581 0.87428 0.18828 0.0
O34 O 0.48795 0.87493 0.14226 0.0
O35 O 0.48755 0.85855 0.19605 0.0
C36 C 0.47493 0.82239 0.1234 0.0
O37 O 0.45591 0.87527 0.10088 0.0
O38 O 0.43958 0.85135 0.10848 0.0
In39 In 0.63645 0.47346 0.63623 0.0
O40 O 0.66781 0.47482 0.63739 0.0
O41 O 0.65355 0.48901 0.59022 0.0
C42 C 0.62874 0.45181 0.70054 0.0
C43 C 0.62545 0.45286 0.57246 0.0
C44 C 0.61991 0.50406 0.66335 0.0
O45 O 0.64504 0.45608 0.69146 0.0
O46 O 0.61666 0.45816 0.67681 0.0
O47 O 0.61388 0.49466 0.63385 0.0
O48 O 0.63477 0.49837 0.67857 0.0
C49 C 0.66878 0.48447 0.60533 0.0
O50 O 0.61896 0.46855 0.57989 0.0
O51 O 0.63731 0.44733 0.59778 0.0
In52 In 0.03663 0.86297 0.86822 0.0
O53 O 0.03874 0.88454 0.91816 0.0
O54 O 0.06118 0.86613 0.91088 0.0
C55 C 0.00267 0.87232 0.84257 0.0
C56 C 0.03186 0.82834 0.89442 0.0
C57 C 0.05843 0.87367 0.80633 0.0
O58 O 0.00811 0.87517 0.87868 0.0
O59 O 0.01423 0.86461 0.81966 0.0
O60 O 0.05666 0.85701 0.81604 0.0
O61 O 0.04949 0.88477 0.8283 0.0
C62 C 0.05433 0.87942 0.93048 0.0
O63 O 0.03787 0.83189 0.85905 0.0
O64 O 0.02827 0.84215 0.91608 0.0
In65 In 0.63532 0.02914 0.35795 0.0
O66 O 0.61446 0.03267 0.409 0.0
O67 O 0.63317 0.05452 0.39863 0.0
C68 C 0.625 0.99568 0.33207 0.0
C69 C 0.66916 0.02282 0.38763 0.0
C70 C 0.62453 0.04926 0.29343 0.0
O71 O 0.62038 0.00209 0.36647 0.0
O72 O 0.63514 0.00598 0.31095 0.0
O73 O 0.64125 0.04768 0.30312 0.0
O74 O 0.61346 0.04109 0.31683 0.0
C75 C 0.62005 0.04831 0.41969 0.0
O76 O 0.66662 0.03191 0.35519 0.0
O77 O 0.65478 0.01682 0.40414 0.0
In78 In 0.44874 0.63692 0.83759 0.0
O79 O 0.44983 0.66769 0.84931 0.0
O80 O 0.46952 0.65074 0.87893 0.0
C81 C 0.4294 0.63805 0.76708 0.0
C82 C 0.42554 0.62595 0.89666 0.0
C83 C 0.47807 0.61609 0.81891 0.0
O84 O 0.44301 0.64828 0.77359 0.0
O85 O 0.4253 0.62762 0.79641 0.0
O86 O 0.46788 0.61269 0.8492 0.0
O87 O 0.47326 0.62973 0.79784 0.0
C88 C 0.46329 0.66667 0.8736 0.0
O89 O 0.43499 0.61481 0.87579 0.0
O90 O 0.42749 0.64258 0.88701 0.0
In91 In 0.86271 0.46209 0.33007 0.0
O92 O 0.83155 0.46386 0.33547 0.0
O93 O 0.84783 0.47657 0.38166 0.0
C94 C 0.86615 0.43737 0.26936 0.0
C95 C 0.87941 0.44244 0.38873 0.0
C96 C 0.87436 0.49367 0.29626 0.0
O97 O 0.85063 0.44313 0.28094 0.0
O98 O 0.87961 0.44404 0.28845 0.0
O99 O 0.88014 0.48804 0.33047 0.0
O100 O 0.86267 0.48346 0.27939 0.0
C101 C 0.832 0.47288 0.36856 0.0
O102 O 0.88767 0.45478 0.36885 0.0
O103 O 0.86282 0.44009 0.37898 0.0
In104 In 0.95568 0.3618 0.83253 0.0
O105 O 0.95297 0.36861 0.90007 0.0
O106 O 0.92881 0.36995 0.86363 0.0
C107 C 0.9822 0.38723 0.82838 0.0
C108 C 0.96004 0.32652 0.85363 0.0
C109 C 0.94477 0.36275 0.75386 0.0
O110 O 0.9654 0.3914 0.82998 0.0
O111 O 0.98555 0.37027 0.82947 0.0
O112 O 0.96026 0.35672 0.76445 0.0
O113 O 0.93461 0.36787 0.78303 0.0
C114 C 0.93591 0.37139 0.8988 0.0
O115 O 0.94523 0.3327 0.83927 0.0
O116 O 0.97297 0.33795 0.85523 0.0
In117 In 0.13508 0.9735 0.37112 0.0
O118 O 0.16616 0.97205 0.36241 0.0
O119 O 0.15554 0.9901 0.40773 0.0
C120 C 0.12492 0.9542 0.30464 0.0
C121 C 0.12617 0.95355 0.43781 0.0
C122 C 0.11731 0.00435 0.35026 0.0
O123 O 0.14158 0.95672 0.31363 0.0
O124 O 0.11361 0.96088 0.32978 0.0
O125 O 0.11157 0.99357 0.37756 0.0
O126 O 0.13238 -0.00018 0.33405 0.0
C127 C 0.16951 0.98353 0.3904 0.0
O128 O 0.12309 0.97046 0.4348 0.0
O129 O 0.13367 0.94643 0.40679 0.0
In130 In 0.52756 0.13139 0.85839 0.0
O131 O 0.53184 0.16233 0.86247 0.0
O132 O 0.51178 0.15005 0.90092 0.0
C133 C 0.5471 0.12147 0.79219 0.0
C134 C 0.54696 0.11695 0.92077 0.0
C135 C 0.49484 0.12049 0.83006 0.0
O136 O 0.54504 0.13809 0.80218 0.0
O137 O 0.53975 0.11009 0.81615 0.0
O138 O 0.50198 0.11388 0.86208 0.0
O139 O 0.50403 0.13293 0.81283 0.0
C140 C 0.51999 0.16445 0.89034 0.0
O141 O 0.53105 0.11156 0.91157 0.0
O142 O 0.55325 0.12939 0.89796 0.0
In143 In 0.35733 0.53345 0.34039 0.0
O144 O 0.37879 0.5461 0.3823 0.0
O145 O 0.35121 0.55543 0.38814 0.0
C146 C 0.3753 0.50276 0.31764 0.0
C147 C 0.326 0.51941 0.36983 0.0
C148 C 0.36073 0.55612 0.27577 0.0
O149 O 0.37822 0.51059 0.3515 0.0
O150 O 0.36339 0.5104 0.29553 0.0
O151 O 0.34598 0.54769 0.28312 0.0
O152 O 0.37343 0.55325 0.30116 0.0
C153 C 0.36761 0.55659 0.4003 0.0
O154 O 0.32648 0.52856 0.33698 0.0
O155 O 0.34125 0.51739 0.38752 0.0
In156 In 0.95483 0.14388 0.1602 0.0
O157 O 0.95551 0.13278 0.09525 0.0
O158 O 0.93005 0.13172 0.12699 0.0
C159 C 0.98381 0.12187 0.17174 0.0
C160 C 0.95663 0.17892 0.13487 0.0
C161 C 0.94286 0.14301 0.23829 0.0
O162 O 0.96764 0.1158 0.1691 0.0
O163 O 0.98535 0.13899 0.16763 0.0
O164 O 0.95816 0.1496 0.22833 0.0
O165 O 0.93314 0.13761 0.20863 0.0
C166 C 0.93879 0.12837 0.0944 0.0
O167 O 0.94177 0.17152 0.14549 0.0
O168 O 0.97057 0.16883 0.13831 0.0
In169 In 0.36088 0.95281 0.65517 0.0
O170 O 0.38279 0.94054 0.61387 0.0
O171 O 0.355 0.93286 0.60335 0.0
C172 C 0.38127 0.98202 0.67645 0.0
C173 C 0.33017 0.96763 0.62386 0.0
C174 C 0.36186 0.9309 0.72162 0.0
O175 O 0.38318 0.97394 0.64251 0.0
O176 O 0.36938 0.97514 0.69984 0.0
O177 O 0.35089 0.94422 0.71889 0.0
O178 O 0.37192 0.92848 0.69068 0.0
C179 C 0.37156 0.93144 0.59253 0.0
O180 O 0.32977 0.95372 0.64686 0.0
O181 O 0.34589 0.97422 0.61796 0.0
In182 In 0.53991 0.3651 0.13704 0.0
O183 O 0.54143 0.33385 0.14265 0.0
O184 O 0.52457 0.34535 0.0962 0.0
C185 C 0.56172 0.37569 0.19899 0.0
C186 C 0.55887 0.37742 0.07184 0.0
C187 C 0.50755 0.37819 0.16384 0.0
O188 O 0.55904 0.35898 0.19071 0.0
O189 O 0.55365 0.38686 0.17563 0.0
O190 O 0.51404 0.38209 0.12909 0.0
O191 O 0.5173 0.36752 0.18507 0.0
C192 C 0.53067 0.33107 0.11296 0.0
O193 O 0.5436 0.384 0.08244 0.0
O194 O 0.5648 0.36475 0.09455 0.0
In195 In 0.14027 0.5351 0.64461 0.0
O196 O 0.17051 0.52986 0.6314 0.0
O197 O 0.15077 0.51486 0.59712 0.0
C198 C 0.14931 0.5566 0.70843 0.0
C199 C 0.12598 0.55346 0.58078 0.0
C200 C 0.11705 0.51256 0.6844 0.0
O201 O 0.15626 0.54095 0.70305 0.0
O202 O 0.13844 0.56168 0.68056 0.0
O203 O 0.11269 0.52855 0.67371 0.0
O204 O 0.13307 0.50778 0.67448 0.0
C205 C 0.16746 0.51822 0.60359 0.0
O206 O 0.119 0.53895 0.59479 0.0
O207 O 0.14007 0.559 0.59957 0.0
H208 H 0.0303 0.6575 0.00191 0.0
H209 H 0.02702 0.68659 0.96553 0.0
H210 H 0.0331 0.7159 0.07966 0.0
H211 H 0.03643 0.68681 0.11637 0.0
H212 H 0.00403 0.72862 0.02974 0.0
H213 H 0.06853 0.71252 0.01758 0.0
H214 H 0.09453 0.69274 -0.00204 0.0
H215 H 0.0763 0.69304 0.87275 0.0
H216 H 0.05003 0.71261 0.89174 0.0
H217 H 0.02682 0.81814 0.97349 0.0
H218 H 0.02461 0.78718 0.00064 0.0
H219 H 0.02916 0.7652 0.87806 0.0
H220 H 0.0322 0.79634 0.85083 0.0
H221 H 0.05024 0.747 0.92603 0.0
H222 H 0.98773 0.76454 0.93363 0.0
H223 H 0.9611 0.78406 0.94988 0.0
H224 H 0.97346 0.78015 0.07831 0.0
H225 H 0.00034 0.76081 0.06282 0.0
C226 C 0.03089 0.67015 0.01929 0.0
C227 C 0.03369 0.66995 0.06194 0.0
C228 C 0.02904 0.68671 -0.00155 0.0
C229 C 0.02994 0.70331 0.01995 0.0
C230 C 0.03237 0.70317 0.06264 0.0
C231 C 0.03434 0.68659 0.08349 0.0
C232 C 0.02869 0.72089 -0.00213 0.0
C233 C 0.01418 0.73278 0.00729 0.0
C234 C 0.04154 0.72584 0.96739 0.0
C235 C 0.05721 0.71387 0.95616 0.0
C236 C 0.06996 0.70821 0.98594 0.0
C237 C 0.08477 0.69707 0.97491 0.0
C238 C 0.08705 0.69163 0.93413 0.0
C239 C 0.0745 0.69726 0.90432 0.0
C240 C 0.05966 0.70838 0.9152 0.0
C241 C 0.02721 0.80672 0.95227 0.0
C242 C 0.02967 0.80959 0.91008 0.0
C243 C 0.0258 0.78902 0.9678 0.0
C244 C 0.02635 0.77385 0.94133 0.0
C245 C 0.02862 0.77671 0.89903 0.0
C246 C 0.03034 0.79446 0.88351 0.0
C247 C 0.02573 0.75506 0.95838 0.0
C248 C 0.03988 0.74287 0.94803 0.0
C249 C 0.01235 0.74971 0.98747 0.0
C250 C 0.99615 0.76131 -0.00299 0.0
C251 C 0.98486 0.76794 0.96533 0.0
C252 C 0.9697 0.77896 0.97441 0.0
C253 C 0.96561 0.78337 0.0151 0.0
C254 C 0.97665 0.77673 0.04681 0.0
C255 C 0.99184 0.76571 0.03789 0.0
H256 H 0.95387 0.7919 0.02207 0.0
H257 H 0.09858 0.68311 0.92555 0.0
H258 H 0.67612 0.01054 0.46444 0.0
H259 H 0.70573 0.00883 0.49912 0.0
H260 H 0.73278 0.02759 0.3894 0.0
H261 H 0.70296 0.02977 0.35442 0.0
H262 H 0.74865 0.994 0.44054 0.0
H263 H 0.72987 0.0581 0.44616 0.0
H264 H 0.70723 0.08251 0.45954 0.0
H265 H 0.70204 0.0645 0.5843 0.0
H266 H 0.72444 0.03979 0.57143 0.0
H267 H 0.83422 0.01657 0.53004 0.0
H268 H 0.8061 0.01478 0.48978 0.0
H269 H 0.77403 0.02074 0.60035 0.0
H270 H 0.80226 0.0235 0.64051 0.0
H271 H 0.76057 0.04162 0.54598 0.0
H272 H 0.77855 0.97875 0.54536 0.0
H273 H 0.7991 0.95225 0.53566 0.0
H274 H 0.80386 0.96485 0.40751 0.0
H275 H 0.78352 0.99158 0.41655 0.0
C276 C 0.68836 0.01413 0.44747 0.0
C277 C 0.68728 0.02038 0.4068 0.0
C278 C 0.70523 0.01313 0.46734 0.0
C279 C 0.72129 0.01811 0.44671 0.0
C280 C 0.72043 0.02365 0.4056 0.0
C281 C 0.70346 0.02495 0.3858 0.0
C282 C 0.73875 0.0186 0.46936 0.0
C283 C 0.75152 0.00454 0.46314 0.0
C284 C 0.74194 0.03198 0.49979 0.0
C285 C 0.72868 0.04699 0.50771 0.0
C286 C 0.72377 0.05925 0.47633 0.0
C287 C 0.71101 0.07316 0.48384 0.0
C288 C 0.70317 0.07503 0.52272 0.0
C289 C 0.70811 0.06302 0.55419 0.0
C290 C 0.72085 0.04907 0.54682 0.0
C291 C 0.82116 0.01733 0.54578 0.0
C292 C 0.82036 0.02015 0.58835 0.0
C293 C 0.80508 0.0162 0.52276 0.0
C294 C 0.7879 0.01734 0.54204 0.0
C295 C 0.78712 0.01983 0.58476 0.0
C296 C 0.80322 0.02135 0.6077 0.0
C297 C 0.7708 0.01695 0.51744 0.0
C298 C 0.75795 0.03104 0.52333 0.0
C299 C 0.76741 0.00335 0.48728 0.0
C300 C 0.77966 0.98728 0.48173 0.0
C301 C 0.7841 0.97596 0.51517 0.0
C302 C 0.79569 0.96088 0.50978 0.0
C303 C 0.80282 0.9569 0.47102 0.0
C304 C 0.79834 0.96796 0.43753 0.0
C305 C 0.78677 0.98307 0.44276 0.0
H306 H 0.81179 0.94522 0.4669 0.0
H307 H 0.69328 0.0858 0.52847 0.0
H308 H 0.46817 0.78841 0.15484 0.0
H309 H 0.47269 0.75894 0.12035 0.0
H310 H 0.49586 0.78691 0.01591 0.0
H311 H 0.49206 0.81615 0.05079 0.0
H312 H 0.45608 0.74843 0.05614 0.0
H313 H 0.52271 0.7603 0.95934 0.0
H314 H 0.5532 0.77432 0.96835 0.0
H315 H 0.54912 0.76736 0.09875 0.0
H316 H 0.51873 0.75305 0.09053 0.0
H317 H 0.44995 0.70152 0.87311 0.0
H318 H 0.45758 0.72609 0.92113 0.0
H319 H 0.49875 0.69179 0.97712 0.0
H320 H 0.4913 0.66716 0.92895 0.0
H321 H 0.50938 0.72841 0.97262 0.0
H322 H 0.4597 0.69266 0.02141 0.0
H323 H 0.43016 0.67638 0.01653 0.0
H324 H 0.40245 0.72726 0.99347 0.0
H325 H 0.43188 0.74381 -0.00258 0.0
C326 C 0.4746 0.78818 0.12491 0.0
C327 C 0.47967 0.80452 0.10534 0.0
C328 C 0.47717 0.77136 0.10524 0.0
C329 C 0.48472 0.77068 0.06563 0.0
C330 C 0.49041 0.78699 0.0468 0.0
C331 C 0.48808 0.80374 0.06665 0.0
C332 C 0.48455 0.75338 0.04183 0.0
C333 C 0.46784 0.74397 0.03834 0.0
C334 C 0.49996 0.74728 0.01914 0.0
C335 C 0.51836 0.75569 0.0243 0.0
C336 C 0.52836 0.76165 0.98993 0.0
C337 C 0.54561 0.76968 0.9949 0.0
C338 C 0.55307 0.77177 0.0341 0.0
C339 C 0.5433 0.76579 0.06841 0.0
C340 C 0.52604 0.75774 0.06361 0.0
C341 C 0.46087 0.69934 0.8951 0.0
C342 C 0.46987 0.68239 0.8977 0.0
C343 C 0.46519 0.71335 0.92252 0.0
C344 C 0.4785 0.71057 0.95299 0.0
C345 C 0.48839 0.69412 0.95387 0.0
C346 C 0.48407 0.68008 0.92644 0.0
C347 C 0.48079 0.72423 0.98595 0.0
C348 C 0.49781 0.73283 0.99109 0.0
C349 C 0.46585 0.72929 0.01114 0.0
C350 C 0.44803 0.71946 0.00943 0.0
C351 C 0.44732 0.70037 0.01503 0.0
C352 C 0.4306 0.69109 0.01245 0.0
C353 C 0.41445 0.70078 0.00464 0.0
C354 C 0.41498 0.71978 -0.0005 0.0
C355 C 0.43168 0.72911 0.00194 0.0
H356 H 0.40151 0.69357 0.00264 0.0
H357 H 0.56643 0.778 0.03788 0.0
H358 H 0.67291 0.49656 0.52729 0.0
H359 H 0.70131 0.4982 0.4878 0.0
H360 H 0.73226 0.48254 0.59487 0.0
H361 H 0.70372 0.48038 0.63462 0.0
H362 H 0.74717 0.51334 0.53846 0.0
H363 H 0.72387 0.45097 0.54157 0.0
H364 H 0.70005 0.42742 0.53208 0.0
H365 H 0.696 0.44126 0.40447 0.0
H366 H 0.71928 0.4654 0.41355 0.0
H367 H 0.82983 0.48212 0.44902 0.0
H368 H 0.8022 0.48779 0.48918 0.0
H369 H 0.76913 0.48104 0.38031 0.0
H370 H 0.79679 0.47436 0.34043 0.0
H371 H 0.75459 0.46293 0.43756 0.0
H372 H 0.7768 0.52416 0.42971 0.0
H373 H 0.79916 0.54935 0.43519 0.0
H374 H 0.8042 0.53978 0.56459 0.0
H375 H 0.78205 0.51435 0.55981 0.0
C376 C 0.68578 0.49379 0.5427 0.0
C377 C 0.68615 0.48822 0.58395 0.0
C378 C 0.70195 0.49473 0.52008 0.0
C379 C 0.71874 0.49039 0.5385 0.0
C380 C 0.71934 0.48596 0.58032 0.0
C381 C 0.70309 0.48468 0.60287 0.0
C382 C 0.73535 0.48886 0.51305 0.0
C383 C 0.749 0.50225 0.51666 0.0
C384 C 0.73722 0.47471 0.48375 0.0
C385 C 0.72311 0.46023 0.47843 0.0
C386 C 0.71767 0.44923 0.51165 0.0
C387 C 0.70428 0.43575 0.50632 0.0
C388 C 0.69642 0.43292 0.46775 0.0
C389 C 0.70201 0.44353 0.43439 0.0
C390 C 0.71525 0.45716 0.43965 0.0
C391 C 0.81667 0.48204 0.43359 0.0
C392 C 0.81538 0.47779 0.39168 0.0
C393 C 0.80088 0.48542 0.45652 0.0
C394 C 0.78356 0.48513 0.43771 0.0
C395 C 0.78234 0.48133 0.39552 0.0
C396 C 0.79811 0.47756 0.37275 0.0
C397 C 0.76669 0.48747 0.4626 0.0
C398 C 0.7529 0.47417 0.45904 0.0
C399 C 0.76455 0.50193 0.49129 0.0
C400 C 0.77788 0.51723 0.49432 0.0
C401 C 0.78278 0.52733 0.45929 0.0
C402 C 0.7954 0.54167 0.46228 0.0
C403 C 0.80313 0.54613 0.5002 0.0
C404 C 0.79822 0.53629 0.53523 0.0
C405 C 0.78561 0.52192 0.53241 0.0
H406 H 0.81289 0.55724 0.50245 0.0
H407 H 0.68606 0.42247 0.46366 0.0
H408 H 0.99022 0.31022 0.88693 0.0
H409 H 0.99039 0.28428 0.93439 0.0
H410 H 0.93226 0.27712 0.91596 0.0
H411 H 0.93198 0.30292 0.8683 0.0
H412 H 0.94262 0.28232 -0.00189 0.0
H413 H 0.95971 0.24534 0.88205 0.0
H414 H 0.97832 0.23682 0.82187 0.0
H415 H 0.02612 0.23228 0.89813 0.0
H416 H 0.00783 0.24104 0.95872 0.0
H417 H 0.92796 0.1995 0.10753 0.0
H418 H 0.9296 0.2259 0.06182 0.0
H419 H 0.98868 0.22524 0.0704 0.0
H420 H 0.98711 0.19849 0.11522 0.0
H421 H 0.97873 0.22477 0.99387 0.0
H422 H 0.96241 0.26104 0.11006 0.0
H423 H 0.94481 0.27102 0.17066 0.0
H424 H 0.89686 0.27828 0.096 0.0
H425 H 0.91409 0.26813 0.035 0.0
C426 C 0.97759 0.30279 0.89211 0.0
C427 C 0.96107 0.30863 0.87422 0.0
C428 C 0.97771 0.28801 0.91922 0.0
C429 C 0.9613 0.27896 0.92878 0.0
C430 C 0.94502 0.28404 0.90899 0.0
C431 C 0.94492 0.29869 0.88163 0.0
C432 C 0.9608 0.26543 0.96228 0.0
C433 C 0.95027 0.26957 -0.00292 0.0
C434 C 0.9714 0.24926 0.96128 0.0
C435 C 0.98243 0.24404 0.92486 0.0
C436 C 0.97422 0.2427 0.88594 0.0
C437 C 0.98471 0.23779 0.85176 0.0
C438 C 0.0034 0.23406 0.85615 0.0
C439 C 0.01164 0.2352 0.89476 0.0
C440 C 0.00122 0.24012 0.92904 0.0
C441 C 0.94127 0.20527 0.10047 0.0
C442 C 0.95742 0.19689 0.11456 0.0
C443 C 0.9422 0.2204 0.07445 0.0
C444 C 0.95928 0.22754 0.06268 0.0
C445 C 0.97537 0.21988 0.07893 0.0
C446 C 0.97445 0.20465 0.10462 0.0
C447 C 0.96042 0.24153 0.02997 0.0
C448 C 0.97109 0.23752 0.9952 0.0
C449 C 0.95006 0.25792 0.03118 0.0
C450 C 0.93951 0.26361 0.06801 0.0
C451 C 0.94806 0.26455 0.10662 0.0
C452 C 0.93816 0.2703 0.14104 0.0
C453 C 0.91971 0.27522 0.13721 0.0
C454 C 0.91113 0.2744 0.09895 0.0
C455 C 0.92096 0.26868 0.06444 0.0
H456 H 0.91209 0.27971 0.16387 0.0
H457 H 0.0115 0.23025 0.82966 0.0
H458 H 0.29517 0.95456 0.62731 0.0
H459 H 0.26993 0.96219 0.58096 0.0
H460 H 0.30381 0.00264 0.52144 0.0
H461 H 0.32896 0.99536 0.5682 0.0
H462 H 0.26907 0.01425 0.52574 0.0
H463 H 0.3005 0.96159 0.47935 0.0
H464 H 0.31504 0.93118 0.48468 0.0
H465 H 0.26296 0.90709 0.51387 0.0
H466 H 0.24816 0.93743 0.50946 0.0
H467 H 0.20205 0.97328 0.35555 0.0
H468 H 0.23268 0.97636 0.38562 0.0
H469 H 0.20929 0.00476 0.48947 0.0
H470 H 0.17901 0.00243 0.45882 0.0
H471 H 0.24384 0.96093 0.45001 0.0
H472 H 0.23878 0.0306 0.53957 0.0
H473 H 0.22717 0.06186 0.52762 0.0
H474 H 0.23132 0.05377 0.39752 0.0
H475 H 0.24321 0.02256 0.40864 0.0
C476 C 0.2971 0.96533 0.6049 0.0
C477 C 0.31406 0.97422 0.601 0.0
C478 C 0.28273 0.96961 0.57834 0.0
C479 C 0.28519 0.98269 0.54724 0.0
C480 C 0.3017 0.99243 0.54507 0.0
C481 C 0.31604 0.98823 0.57176 0.0
C482 C 0.27098 0.98519 0.51541 0.0
C483 C 0.26351 0.00266 0.50903 0.0
C484 C 0.26447 0.97018 0.49216 0.0
C485 C 0.27324 0.95182 0.49436 0.0
C486 C 0.29217 0.94983 0.48717 0.0
C487 C 0.30046 0.9326 0.49001 0.0
C488 C 0.28993 0.91722 0.49966 0.0
C489 C 0.27109 0.91903 0.50641 0.0
C490 C 0.26274 0.93624 0.50372 0.0
C491 C 0.20358 0.98057 0.38428 0.0
C492 C 0.18819 0.98753 0.40499 0.0
C493 C 0.22104 0.98231 0.40147 0.0
C494 C 0.22334 0.99088 0.43974 0.0
C495 C 0.20801 -0.00153 0.45951 0.0
C496 C 0.19064 0.99699 0.44209 0.0
C497 C 0.24114 0.98992 0.46161 0.0
C498 C 0.24943 0.97267 0.46612 0.0
C499 C 0.2488 0.00529 0.48189 0.0
C500 C 0.2418 0.02416 0.47498 0.0
C501 C 0.23733 0.03551 0.50841 0.0
C502 C 0.23067 0.05323 0.50178 0.0
C503 C 0.22847 0.05979 0.46184 0.0
C504 C 0.23297 0.04866 0.42844 0.0
C505 C 0.23965 0.03093 0.4349 0.0
H506 H 0.2233 0.0735 0.45678 0.0
H507 H 0.29638 0.90389 0.50185 0.0
H508 H 0.53705 0.19713 0.87635 0.0
H509 H 0.53553 0.2246 0.91934 0.0
H510 H 0.49578 0.19823 -0.00253 0.0
H511 H 0.49693 0.17094 0.95422 0.0
H512 H 0.4877 0.23348 0.98894 0.0
H513 H 0.53976 0.1978 0.02255 0.0
H514 H 0.56796 0.1803 0.00856 0.0
H515 H 0.59484 0.22936 0.96818 0.0
H516 H 0.56652 0.24707 0.98031 0.0
H517 H 0.54101 0.29787 0.14437 0.0
H518 H 0.53549 0.2676 0.11411 0.0
H519 H 0.50581 0.29292 0.01458 0.0
H520 H 0.51076 0.32292 0.04513 0.0
H521 H 0.54727 0.25474 0.0451 0.0
H522 H 0.47412 0.26552 0.97514 0.0
H523 H 0.44503 0.2806 0.99397 0.0
H524 H 0.45946 0.27735 0.12141 0.0
H525 H 0.4885 0.26201 0.10343 0.0
C526 C 0.52776 0.19734 0.90226 0.0
C527 C 0.51726 0.18187 0.91225 0.0
C528 C 0.52696 0.21297 0.92686 0.0
C529 C 0.51582 0.21326 0.962 0.0
C530 C 0.50452 0.19823 0.97059 0.0
C531 C 0.50524 0.18265 0.94591 0.0
C532 C 0.51683 0.22874 0.99116 0.0
C533 C 0.5007 0.23817 0.00127 0.0
C534 C 0.53372 0.23427 0.00862 0.0
C535 C 0.55093 0.22375 0.00203 0.0
C536 C 0.55162 0.20485 0.01037 0.0
C537 C 0.56764 0.19489 0.00277 0.0
C538 C 0.58321 0.20372 0.98764 0.0
C539 C 0.58277 0.22254 0.97992 0.0
C540 C 0.56671 0.23254 0.98704 0.0
C541 C 0.53307 0.29689 0.1164 0.0
C542 C 0.52632 0.3127 0.09708 0.0
C543 C 0.52995 0.27964 0.09912 0.0
C544 C 0.52007 0.27799 0.06231 0.0
C545 C 0.5131 0.29379 0.04346 0.0
C546 C 0.51606 0.31095 0.06084 0.0
C547 C 0.51822 0.26004 0.04158 0.0
C548 C 0.53422 0.25003 0.03312 0.0
C549 C 0.50113 0.25365 0.02676 0.0
C550 C 0.48357 0.26272 0.03786 0.0
C551 C 0.47105 0.26793 0.0072 0.0
C552 C 0.45457 0.27655 0.01772 0.0
C553 C 0.45042 0.27997 0.05885 0.0
C554 C 0.46272 0.27475 0.08956 0.0
C555 C 0.4792 0.26612 0.0792 0.0
H556 H 0.43767 0.28666 0.06693 0.0
H557 H 0.59561 0.19598 0.98191 0.0
H558 H 0.29323 0.51368 0.33132 0.0
H559 H 0.26414 0.50487 0.36327 0.0
H560 H 0.29099 0.50221 0.4812 0.0
H561 H 0.32012 0.50993 0.44905 0.0
H562 H 0.26653 0.47716 0.4791 0.0
H563 H 0.26729 0.54172 0.44376 0.0
H564 H 0.26959 0.56812 0.3969 0.0
H565 H 0.22361 0.54809 0.3279 0.0
H566 H 0.22119 0.52144 0.37413 0.0
H567 H 0.20394 0.51674 0.62087 0.0
H568 H 0.22868 0.50792 0.57404 0.0
H569 H 0.18887 0.49445 0.48095 0.0
H570 H 0.16402 0.50283 0.52798 0.0
H571 H 0.216 0.5219 0.46013 0.0
H572 H 0.21208 0.46097 0.51143 0.0
H573 H 0.21027 0.43703 0.56453 0.0
H574 H 0.26299 0.45306 0.61087 0.0
H575 H 0.26501 0.47728 0.55844 0.0
C576 C 0.2929 0.51094 0.36395 0.0
C577 C 0.30881 0.51267 0.38787 0.0
C578 C 0.2763 0.50596 0.38219 0.0
C579 C 0.27528 0.50326 0.42481 0.0
C580 C 0.29139 0.5042 0.44829 0.0
C581 C 0.30803 0.50872 0.42993 0.0
C582 C 0.25739 0.501 0.44584 0.0
C583 C 0.25548 0.48694 0.47494 0.0
C584 C 0.24276 0.5135 0.43981 0.0
C585 C 0.24422 0.52948 0.412 0.0
C586 C 0.25776 0.54289 0.4184 0.0
C587 C 0.25907 0.5579 0.392 0.0
C588 C 0.24679 0.55974 0.35934 0.0
C589 C 0.23314 0.54661 0.35312 0.0
C590 C 0.23179 0.53155 0.3794 0.0
C591 C 0.20048 0.51149 0.59076 0.0
C592 C 0.18214 0.51053 0.57789 0.0
C593 C 0.21457 0.50637 0.56418 0.0
C594 C 0.21051 0.50047 0.52424 0.0
C595 C 0.19219 0.49884 0.51182 0.0
C596 C 0.17807 0.50362 0.53868 0.0
C597 C 0.22549 0.49851 0.4942 0.0
C598 C 0.22685 0.51181 0.46345 0.0
C599 C 0.23975 0.48563 0.49953 0.0
C600 C 0.23864 0.47103 0.53108 0.0
C601 C 0.22323 0.45949 0.53313 0.0
C602 C 0.22218 0.44585 0.56308 0.0
C603 C 0.2365 0.44354 0.59109 0.0
C604 C 0.25191 0.45486 0.58915 0.0
C605 C 0.25303 0.46853 0.55927 0.0
H606 H 0.23566 0.43297 0.61425 0.0
H607 H 0.24783 0.57138 0.33894 0.0
H608 H 0.10298 0.6081 0.07214 0.0
H609 H 0.1243 0.59947 0.01746 0.0
H610 H 0.0797 0.57485 0.95004 0.0
H611 H 0.05856 0.58273 0.00536 0.0
H612 H 0.10897 0.5558 0.9373 0.0
H613 H 0.09373 0.62001 0.93508 0.0
H614 H 0.09141 0.65106 0.96445 0.0
H615 H 0.14991 0.6529 0.97919 0.0
H616 H 0.15252 0.62167 0.95069 0.0
H617 H 0.13201 0.58819 0.73045 0.0
H618 H 0.12594 0.5981 0.80057 0.0
H619 H 0.16312 0.55687 0.84609 0.0
H620 H 0.16902 0.54662 0.77596 0.0
H621 H 0.14177 0.60834 0.87438 0.0
H622 H 0.1404 0.53198 0.90983 0.0
H623 H 0.13929 0.50284 0.8712 0.0
H624 H 0.10668 0.5285 0.77781 0.0
H625 H 0.10755 0.55766 0.81594 0.0
C626 C 0.09783 0.60052 0.04598 0.0
C627 C 0.07912 0.59625 0.04265 0.0
C628 C 0.11 0.59566 0.01474 0.0
C629 C 0.10352 0.58688 0.97924 0.0
C630 C 0.08501 0.58165 0.97709 0.0
C631 C 0.07292 0.58621 0.00865 0.0
C632 C 0.11548 0.58453 0.94285 0.0
C633 C 0.11636 0.56725 0.92405 0.0
C634 C 0.12482 0.59954 0.92481 0.0
C635 C 0.1233 0.61843 0.94125 0.0
C636 C 0.10608 0.627 0.94483 0.0
C637 C 0.10472 0.64462 0.96133 0.0
C638 C 0.1205 0.65393 0.97378 0.0
C639 C 0.13769 0.64565 0.96963 0.0
C640 C 0.13912 0.62798 0.95335 0.0
C641 C 0.13943 0.58167 0.75525 0.0
C642 C 0.1506 0.56632 0.74792 0.0
C643 C 0.13602 0.58743 0.79533 0.0
C644 C 0.14376 0.57791 0.82842 0.0
C645 C 0.15683 0.5642 0.82086 0.0
C646 C 0.16018 0.55836 0.78078 0.0
C647 C 0.13529 0.57969 0.86939 0.0
C648 C 0.13491 0.59682 0.88869 0.0
C649 C 0.12577 0.56477 0.88707 0.0
C650 C 0.12414 0.54695 0.86558 0.0
C651 C 0.13288 0.53131 0.88122 0.0
C652 C 0.13238 0.51483 0.85928 0.0
C653 C 0.12301 0.51384 0.82191 0.0
C654 C 0.11398 0.52927 0.80662 0.0
C655 C 0.11448 0.54576 0.82837 0.0
H656 H 0.12263 0.50108 0.80498 0.0
H657 H 0.11943 0.66758 0.98656 0.0
H658 H 0.9658 0.14171 0.30398 0.0
H659 H 0.9586 0.13036 0.37274 0.0
H660 H 0.9018 0.12452 0.33825 0.0
H661 H 0.90897 0.13548 0.26908 0.0
H662 H 0.9095 0.13939 0.42209 0.0
H663 H 0.92594 0.08955 0.32761 0.0
H664 H 0.94725 0.0746 0.27931 0.0
H665 H 0.98856 0.07227 0.37302 0.0
H666 H 0.96758 0.08757 0.42166 0.0
H667 H 0.86651 0.07466 0.54542 0.0
H668 H 0.87929 0.09379 0.49144 0.0
H669 H 0.93391 0.07636 0.5248 0.0
H670 H 0.92093 0.05624 0.57751 0.0
H671 H 0.93208 0.07629 0.44791 0.0
H672 H 0.91636 0.12131 0.54583 0.0
H673 H 0.89744 0.13781 0.59652 0.0
H674 H 0.85849 0.15149 0.50263 0.0
H675 H 0.87703 0.13485 0.45145 0.0
C676 C 0.9517 0.13842 0.31135 0.0
C677 C 0.93791 0.13939 0.28127 0.0
C678 C 0.94764 0.13191 0.35055 0.0
C679 C 0.92971 0.12657 0.36028 0.0
C680 C 0.91571 0.12866 0.33116 0.0
C681 C 0.91981 0.13485 0.29174 0.0
C682 C 0.92578 0.11706 0.39917 0.0
C683 C 0.91434 0.12558 0.42792 0.0
C684 C 0.93281 0.09938 0.4072 0.0
C685 C 0.94527 0.0899 0.37812 0.0
C686 C 0.93962 0.086 0.33781 0.0
C687 C 0.95163 0.07744 0.31039 0.0
C688 C 0.96926 0.07252 0.32307 0.0
C689 C 0.97489 0.07609 0.36325 0.0
C690 C 0.96296 0.08473 0.39073 0.0
C691 C 0.88125 0.07501 0.54142 0.0
C692 C 0.89276 0.06406 0.56564 0.0
C693 C 0.88858 0.08608 0.51076 0.0
C694 C 0.90764 0.08692 0.50458 0.0
C695 C 0.91918 0.07604 0.52906 0.0
C696 C 0.91179 0.06458 0.55916 0.0
C697 C 0.91524 0.09836 0.47097 0.0
C698 C 0.92743 0.09023 0.44297 0.0
C699 C 0.90926 0.11661 0.46421 0.0
C700 C 0.89806 0.12673 0.49483 0.0
C701 C 0.9037 0.12774 0.53602 0.0
C702 C 0.89305 0.13713 0.56484 0.0
C703 C 0.87676 0.14567 0.55281 0.0
C704 C 0.87111 0.14487 0.5119 0.0
C705 C 0.88171 0.13548 0.48296 0.0
H706 H 0.86853 0.15293 0.57517 0.0
H707 H 0.97854 0.0659 0.30178 0.0
H708 H 0.41371 0.84728 0.05473 0.0
H709 H 0.39633 0.85549 0.99312 0.0
H710 H 0.42752 0.90545 0.98256 0.0
H711 H 0.44511 0.89721 0.04363 0.0
H712 H 0.37459 0.8842 0.97055 0.0
H713 H 0.43787 0.91237 0.88344 0.0
H714 H 0.47135 0.90757 0.88113 0.0
H715 H 0.46442 0.85259 0.92504 0.0
H716 H 0.4309 0.85697 0.92703 0.0
H717 H 0.35133 0.94017 0.7992 0.0
H718 H 0.36096 0.92537 0.86291 0.0
H719 H 0.38773 0.88276 0.79311 0.0
H720 H 0.37873 0.89791 0.72947 0.0
H721 H 0.41055 0.89606 0.84423 0.0
H722 H 0.34916 0.87456 0.85521 0.0
H723 H 0.31541 0.87656 0.85586 0.0
H724 H 0.3176 0.91266 0.95978 0.0
H725 H 0.35139 0.91109 0.95942 0.0
C726 C 0.41676 0.86007 0.0394 0.0
C727 C 0.43088 0.87153 0.05367 0.0
C728 C 0.40677 0.86477 0.00437 0.0
C729 C 0.41081 0.88095 0.98305 0.0
C730 C 0.42439 0.89276 -0.00174 0.0
C731 C 0.43441 0.88805 0.03315 0.0
C732 C 0.40156 0.8851 0.94373 0.0
C733 C 0.38238 0.88677 0.94282 0.0
C734 C 0.41174 0.88793 0.90741 0.0
C735 C 0.43189 0.88507 0.90573 0.0
C736 C 0.44349 0.89924 0.89242 0.0
C737 C 0.46248 0.89659 0.89119 0.0
C738 C 0.47001 0.87981 0.90305 0.0
C739 C 0.45858 0.8656 0.91601 0.0
C740 C 0.43958 0.86817 0.91723 0.0
C741 C 0.3589 0.92742 0.79753 0.0
C742 C 0.36444 0.92025 0.75952 0.0
C743 C 0.36434 0.91892 0.83396 0.0
C744 C 0.37508 0.90293 0.83285 0.0
C745 C 0.37956 0.89514 0.79475 0.0
C746 C 0.37438 0.90378 0.75842 0.0
C747 C 0.38348 0.89557 0.87089 0.0
C748 C 0.40261 0.89335 0.87169 0.0
C749 C 0.37316 0.89184 0.90671 0.0
C750 C 0.35283 0.89281 0.90708 0.0
C751 C 0.34246 0.88304 0.87801 0.0
C752 C 0.32332 0.88408 0.87836 0.0
C753 C 0.31437 0.89476 0.90779 0.0
C754 C 0.32455 0.9044 0.93699 0.0
C755 C 0.3437 0.90342 0.93676 0.0
H756 H 0.29955 0.89554 0.90801 0.0
H757 H 0.48472 0.87779 0.90212 0.0
H758 H 0.58226 0.35481 0.25149 0.0
H759 H 0.59768 0.36506 0.31425 0.0
H760 H 0.57979 0.42046 0.29077 0.0
H761 H 0.56498 0.41044 0.2277 0.0
H762 H 0.61298 0.42113 0.31941 0.0
H763 H 0.55653 0.3909 0.35697 0.0
H764 H 0.53474 0.36511 0.35972 0.0
H765 H 0.57509 0.33205 0.42081 0.0
H766 H 0.5972 0.3576 0.41794 0.0
H767 H 0.60335 0.46406 0.51027 0.0
H768 H 0.59651 0.44779 0.44665 0.0
H769 H 0.62902 0.40188 0.48724 0.0
H770 H 0.63608 0.41818 0.55124 0.0
H771 H 0.59368 0.3929 0.45086 0.0
H772 H 0.6475 0.42872 0.42416 0.0
H773 H 0.66544 0.45731 0.42502 0.0
H774 H 0.62665 0.48254 0.34379 0.0
H775 H 0.60799 0.45441 0.34381 0.0
C776 C 0.58184 0.3692 0.25956 0.0
C777 C 0.57233 0.38182 0.23493 0.0
C778 C 0.59058 0.37502 0.29545 0.0
C779 C 0.58965 0.39348 0.30753 0.0
C780 C 0.58071 0.40615 0.28209 0.0
C781 C 0.57219 0.40039 0.24609 0.0
C782 C 0.5971 0.39967 0.34751 0.0
C783 C 0.60875 0.41496 0.34814 0.0
C784 C 0.59184 0.39141 0.385 0.0
C785 C 0.57858 0.37606 0.38676 0.0
C786 C 0.56079 0.37807 0.37069 0.0
C787 C 0.54838 0.36351 0.37232 0.0
C788 C 0.55355 0.34693 0.39029 0.0
C789 C 0.57112 0.34489 0.4068 0.0
C790 C 0.5836 0.3594 0.40519 0.0
C791 C 0.60895 0.45045 0.50585 0.0
C792 C 0.62031 0.4424 0.53558 0.0
C793 C 0.60507 0.44122 0.46947 0.0
C794 C 0.61245 0.42377 0.46223 0.0
C795 C 0.62328 0.41538 0.49238 0.0
C796 C 0.62731 0.4247 0.52877 0.0
C797 C 0.60905 0.41463 0.42257 0.0
C798 C 0.59822 0.39879 0.42206 0.0
C799 C 0.6147 0.42266 0.38521 0.0
C800 C 0.62626 0.43943 0.38419 0.0
C801 C 0.6427 0.44039 0.40671 0.0
C802 C 0.65301 0.45652 0.40704 0.0
C803 C 0.64725 0.47168 0.38433 0.0
C804 C 0.63112 0.47077 0.36133 0.0
C805 C 0.62063 0.45475 0.36124 0.0
H806 H 0.65528 0.48414 0.38461 0.0
H807 H 0.54392 0.33567 0.39154 0.0
H808 H 0.09091 0.95496 0.27108 0.0
H809 H 0.08091 0.94125 0.20674 0.0
H810 H 0.13519 0.91919 0.18759 0.0
H811 H 0.14549 0.93355 0.25166 0.0
H812 H 0.1225 0.93285 0.11859 0.0
H813 H 0.099 0.89161 0.21872 0.0
H814 H 0.08263 0.88228 0.28146 0.0
H815 H 0.03241 0.90419 0.23317 0.0
H816 H 0.04853 0.91388 0.17036 0.0
H817 H 0.08888 0.87273 0.95935 0.0
H818 H 0.10284 0.88492 0.02212 0.0
H819 H 0.05393 0.91644 0.04602 0.0
H820 H 0.03996 0.90445 0.98336 0.0
H821 H 0.0658 0.89541 0.1128 0.0
H822 H 0.09067 0.93781 0.01361 0.0
H823 H 0.10759 0.94626 0.95097 0.0
H824 H 0.15608 0.92027 -0.00201 0.0
H825 H 0.13936 0.91145 0.06071 0.0
C826 C 0.10069 0.94707 0.25336 0.0
C827 C 0.11893 0.94514 0.26652 0.0
C828 C 0.09495 0.93919 0.21662 0.0
C829 C 0.1072 0.92887 0.19272 0.0
C830 C 0.12548 0.92701 0.20567 0.0
C831 C 0.13133 0.93514 0.24227 0.0
C832 C 0.10086 0.92038 0.15389 0.0
C833 C 0.11029 0.92438 0.11745 0.0
C834 C 0.0848 0.9095 0.15229 0.0
C835 C 0.07501 0.90359 0.18994 0.0
C836 C 0.08449 0.89455 0.22159 0.0
C837 C 0.07525 0.88918 0.25715 0.0
C838 C 0.0565 0.89267 0.26133 0.0
C839 C 0.04694 0.9015 0.2299 0.0
C840 C 0.05611 0.90691 0.19428 0.0
C841 C 0.08119 0.88239 0.97782 0.0
C842 C 0.06333 0.88763 0.96657 0.0
C843 C 0.08918 0.88935 0.01355 0.0
C844 C 0.07939 0.90157 0.03857 0.0
C845 C 0.06167 0.907 0.02708 0.0
C846 C 0.05375 0.90019 0.99124 0.0
C847 C 0.08724 0.90818 0.07767 0.0
C848 C 0.0781 0.90375 0.11413 0.0
C849 C 0.10365 0.91845 0.07928 0.0
C850 C 0.11371 0.92379 0.04163 0.0
C851 C 0.10489 0.93375 0.01043 0.0
C852 C 0.11446 0.93864 0.97494 0.0
C853 C 0.13288 0.93376 0.97044 0.0
C854 C 0.14179 0.92402 0.00148 0.0
C855 C 0.13229 0.91908 0.03701 0.0
H856 H 0.14027 0.93756 0.94296 0.0
H857 H 0.04937 0.88851 0.28889 0.0
H858 H 0.54678 0.08757 0.75814 0.0
H859 H 0.56111 0.07775 0.69438 0.0
H860 H 0.58291 0.13211 0.67656 0.0
H861 H 0.56802 0.14222 0.74022 0.0
H862 H 0.56945 0.11918 0.60674 0.0
H863 H 0.61089 0.09677 0.70736 0.0
H864 H 0.62057 0.08098 0.77056 0.0
H865 H 0.59952 0.03017 0.7238 0.0
H866 H 0.58948 0.04571 0.66053 0.0
H867 H 0.62794 0.08303 0.44588 0.0
H868 H 0.61695 0.09806 0.5086 0.0
H869 H 0.58474 0.05028 0.53766 0.0
H870 H 0.59549 0.03528 0.47512 0.0
H871 H 0.60722 0.06264 0.60227 0.0
H872 H 0.56371 0.08673 0.50363 0.0
H873 H 0.55485 0.10311 0.44055 0.0
H874 H 0.58175 0.15167 0.48417 0.0
H875 H 0.59099 0.13548 0.5473 0.0
C876 C 0.55475 0.09742 0.74087 0.0
C877 C 0.55645 0.11562 0.75431 0.0
C878 C 0.56298 0.09177 0.70446 0.0
C879 C 0.5734 0.1041 0.6811 0.0
C880 C 0.57503 0.12235 0.69426 0.0
C881 C 0.56659 0.12809 0.73063 0.0
C882 C 0.58216 0.09784 0.64253 0.0
C883 C 0.57802 0.10703 0.60587 0.0
C884 C 0.59322 0.0819 0.64134 0.0
C885 C 0.59932 0.07244 0.67928 0.0
C886 C 0.60822 0.08226 0.71065 0.0
C887 C 0.61378 0.07334 0.74648 0.0
C888 C 0.61063 0.05459 0.75123 0.0
C889 C 0.60195 0.0447 0.72009 0.0
C890 C 0.59634 0.05355 0.68421 0.0
C891 C 0.61838 0.07583 0.46548 0.0
C892 C 0.61257 0.05799 0.4557 0.0
C893 C 0.61212 0.08442 0.50119 0.0
C894 C 0.60007 0.07524 0.52764 0.0
C895 C 0.59408 0.05755 0.51762 0.0
C896 C 0.60018 0.04904 0.48183 0.0
C897 C 0.59409 0.08369 0.56661 0.0
C898 C 0.59885 0.07492 0.60333 0.0
C899 C 0.58381 0.1001 0.56783 0.0
C900 C 0.57823 0.10983 0.52994 0.0
C901 C 0.56788 0.10085 0.49959 0.0
C902 C 0.56276 0.11011 0.46387 0.0
C903 C 0.56779 0.1284 0.45829 0.0
C904 C 0.5779 0.13749 0.48849 0.0
C905 C 0.58307 0.12828 0.52425 0.0
H906 H 0.5638 0.13555 0.43062 0.0
H907 H 0.61495 0.04772 0.77899 0.0
H908 H 0.38904 0.57924 0.26089 0.0
H909 H 0.39647 0.59447 0.1965 0.0
H910 H 0.3471 0.5728 0.14191 0.0
H911 H 0.33936 0.55784 0.20688 0.0
H912 H 0.40433 0.57757 0.12866 0.0
H913 H 0.3343 0.60056 0.06118 0.0
H914 H 0.30451 0.6124 0.08546 0.0
H915 H 0.33031 0.63383 0.19371 0.0
H916 H 0.36027 0.62235 0.16983 0.0
H917 H 0.4168 0.5911 0.91909 0.0
H918 H 0.40173 0.58138 0.9824 0.0
H919 H 0.39457 0.6379 0.01787 0.0
H920 H 0.40924 0.64772 0.95413 0.0
H921 H 0.3654 0.61746 0.04147 0.0
H922 H 0.43097 0.61452 0.05193 0.0
H923 H 0.46217 0.60538 0.03102 0.0
H924 H 0.44771 0.54869 0.04437 0.0
H925 H 0.41633 0.5575 0.06476 0.0
C926 C 0.37959 0.57799 0.2354 0.0
C927 C 0.36369 0.56726 0.23871 0.0
C928 C 0.38387 0.58667 0.19861 0.0
C929 C 0.37239 0.58473 0.16435 0.0
C930 C 0.35606 0.57466 0.16808 0.0
C931 C 0.35167 0.56608 0.20514 0.0
C932 C 0.37848 0.59178 0.124 0.0
C933 C 0.39578 0.5863 0.10969 0.0
C934 C 0.36743 0.60332 0.09938 0.0
C935 C 0.34949 0.61041 0.11388 0.0
C936 C 0.33362 0.60785 0.0901 0.0
C937 C 0.3167 0.61449 0.1038 0.0
C938 C 0.31551 0.6238 0.14117 0.0
C939 C 0.33124 0.62654 0.16486 0.0
C940 C 0.34818 0.61994 0.15128 0.0
C941 C 0.41172 0.60145 0.94005 0.0
C942 C 0.41435 0.62014 0.93195 0.0
C943 C 0.40314 0.59589 0.97619 0.0
C944 C 0.39732 0.60893 0.00509 0.0
C945 C 0.39897 0.62763 0.99597 0.0
C946 C 0.40742 0.6332 0.95963 0.0
C947 C 0.39111 0.60305 0.04624 0.0
C948 C 0.37384 0.60869 0.06057 0.0
C949 C 0.40236 0.59201 0.07151 0.0
C950 C 0.42125 0.58667 0.05945 0.0
C951 C 0.43441 0.60011 0.0501 0.0
C952 C 0.45213 0.59499 0.03838 0.0
C953 C 0.45691 0.57647 0.03626 0.0
C954 C 0.44398 0.56303 0.04596 0.0
C955 C 0.42623 0.56808 0.05761 0.0
H956 H 0.47063 0.57253 0.02719 0.0
H957 H 0.3024 0.62893 0.15173 0.0
H958 H 0.96729 0.36251 0.68718 0.0
H959 H 0.95929 0.37145 0.61697 0.0
H960 H 0.90277 0.37796 0.65314 0.0
H961 H 0.91068 0.36931 0.72341 0.0
H962 H 0.90886 0.36082 0.57291 0.0
H963 H 0.92769 0.41391 0.65599 0.0
H964 H 0.95025 0.42989 0.69958 0.0
H965 H 0.99006 0.42702 0.60278 0.0
H966 H 0.96778 0.4108 0.55879 0.0
H967 H 0.86272 0.42265 0.4483 0.0
H968 H 0.87716 0.40517 0.50309 0.0
H969 H 0.93063 0.41964 0.45638 0.0
H970 H 0.9161 0.43799 0.40245 0.0
H971 H 0.93136 0.42257 0.53415 0.0
H972 H 0.91207 0.37508 0.44579 0.0
H973 H 0.89134 0.35758 0.4007 0.0
H974 H 0.85533 0.34739 0.50228 0.0
H975 H 0.87569 0.36506 0.5479 0.0
C976 C 0.9531 0.36549 0.67992 0.0
C977 C 0.93959 0.36536 0.71066 0.0
C978 C 0.94858 0.3706 0.63991 0.0
C979 C 0.93049 0.37542 0.63015 0.0
C980 C 0.9168 0.37422 0.66021 0.0
C981 C 0.92134 0.36937 0.70029 0.0
C982 C 0.92598 0.38353 0.59 0.0
C983 C 0.91371 0.37431 0.56423 0.0
C984 C 0.93297 0.40079 0.57827 0.0
C985 C 0.94614 0.411 0.60428 0.0
C986 C 0.94128 0.41661 0.64409 0.0
C987 C 0.95401 0.42572 0.66885 0.0
C988 C 0.97159 0.42945 0.65398 0.0
C989 C 0.97644 0.42413 0.61425 0.0
C990 C 0.96377 0.41499 0.58939 0.0
C991 C 0.87756 0.42204 0.44961 0.0
C992 C 0.88832 0.4316 0.42114 0.0
C993 C 0.88582 0.41191 0.48074 0.0
C994 C 0.90502 0.41069 0.48334 0.0
C995 C 0.91581 0.42027 0.45486 0.0
C996 C 0.90752 0.43074 0.4241 0.0
C997 C 0.91363 0.40014 0.51714 0.0
C998 C 0.92673 0.40889 0.54192 0.0
C999 C 0.90768 0.38224 0.52747 0.0
C1000 C 0.89539 0.37149 0.50024 0.0
C1001 C 0.89967 0.36921 0.45848 0.0
C1002 C 0.88799 0.35924 0.43283 0.0
C1003 C 0.87201 0.3514 0.44861 0.0
C1004 C 0.86771 0.35347 0.49011 0.0
C1005 C 0.87934 0.36344 0.51589 0.0
H1006 H 0.86298 0.3437 0.42869 0.0
H1007 H 0.98144 0.43646 0.67322 0.0
H1008 H 0.94864 0.37479 0.97675 0.0
H1009 H 0.93089 0.38015 0.03895 0.0
H1010 H 0.88097 0.38121 0.96787 0.0
H1011 H 0.89878 0.37608 0.90507 0.0
H1012 H 0.88254 0.40929 0.0205 0.0
H1013 H 0.89023 0.34478 0.0302 0.0
H1014 H 0.90702 0.31543 0.02844 0.0
H1015 H 0.94028 0.33285 0.12982 0.0
H1016 H 0.9239 0.3624 0.13188 0.0
H1017 H 0.84052 0.42584 0.2135 0.0
H1018 H 0.84633 0.40836 0.15044 0.0
H1019 H 0.90342 0.40348 0.18352 0.0
H1020 H 0.89772 0.42067 0.24629 0.0
H1021 H 0.89087 0.37232 0.14676 0.0
H1022 H 0.88906 0.43839 0.12401 0.0
H1023 H 0.87405 0.46869 0.12536 0.0
H1024 H 0.83093 0.44835 0.04803 0.0
H1025 H 0.84561 0.41785 0.0467 0.0
C1026 C 0.93387 0.37614 0.97431 0.0
C1027 C 0.92508 0.37506 0.93608 0.0
C1028 C 0.92373 0.37902 0.00994 0.0
C1029 C 0.90457 0.38069 0.00812 0.0
C1030 C 0.89573 0.37977 0.96994 0.0
C1031 C 0.90591 0.37691 0.93414 0.0
C1032 C 0.8941 0.38463 0.04602 0.0
C1033 C 0.88392 0.40092 0.04781 0.0
C1034 C 0.89611 0.3738 0.08176 0.0
C1035 C 0.90586 0.35589 0.08104 0.0
C1036 C 0.90119 0.34241 0.05199 0.0
C1037 C 0.91063 0.32572 0.05095 0.0
C1038 C 0.92474 0.32231 0.07892 0.0
C1039 C 0.92935 0.33552 0.10816 0.0
C1040 C 0.91997 0.35223 0.10932 0.0
C1041 C 0.85422 0.42071 0.20761 0.0
C1042 C 0.86873 0.4248 0.23443 0.0
C1043 C 0.85751 0.41075 0.17165 0.0
C1044 C 0.87535 0.40481 0.16217 0.0
C1045 C 0.88956 0.40791 0.19027 0.0
C1046 C 0.8863 0.41786 0.226 0.0
C1047 C 0.8799 0.39722 0.12132 0.0
C1048 C 0.889 0.3803 0.11904 0.0
C1049 C 0.87703 0.40749 0.08511 0.0
C1050 C 0.86828 0.42582 0.08569 0.0
C1051 C 0.87631 0.44036 0.10755 0.0
C1052 C 0.86788 0.45756 0.10828 0.0
C1053 C 0.85151 0.46042 0.08691 0.0
C1054 C 0.84358 0.4461 0.06465 0.0
C1055 C 0.85195 0.42886 0.0639 0.0
H1056 H 0.845 0.47375 0.08749 0.0
H1057 H 0.9321 0.30944 0.07793 0.0
H1058 H 0.0743 0.85246 0.74673 0.0
H1059 H 0.08817 0.86309 0.68249 0.0
H1060 H 0.07985 0.91915 0.72029 0.0
H1061 H 0.06582 0.90868 0.78392 0.0
H1062 H 0.06594 0.91258 0.64525 0.0
H1063 H 0.12257 0.89966 0.71778 0.0
H1064 H 0.14432 0.87992 0.75522 0.0
H1065 H 0.14743 0.8436 0.65178 0.0
H1066 H 0.1255 0.86302 0.6139 0.0
H1067 H 0.11427 0.96733 0.51027 0.0
H1068 H 0.10488 0.95049 0.57114 0.0
H1069 H 0.11723 0.8994 0.51042 0.0
H1070 H 0.12712 0.91634 0.44919 0.0
H1071 H 0.12814 0.89922 0.59121 0.0
H1072 H 0.0736 0.91286 0.51673 0.0
H1073 H 0.05183 0.93223 0.4784 0.0
H1074 H 0.04416 0.96618 0.58466 0.0
H1075 H 0.06609 0.94717 0.62347 0.0
C1076 C 0.0757 0.86704 0.74153 0.0
C1077 C 0.06887 0.87976 0.77013 0.0
C1078 C 0.08365 0.87308 0.70491 0.0
C1079 C 0.085 0.8919 0.69665 0.0
C1080 C 0.07885 0.90456 0.72599 0.0
C1081 C 0.07087 0.89856 0.76237 0.0
C1082 C 0.0915 0.89863 0.6564 0.0
C1083 C 0.07961 0.90979 0.63364 0.0
C1084 C 0.10903 0.8943 0.64045 0.0
C1085 C 0.12223 0.88268 0.66319 0.0
C1086 C 0.12777 0.88738 0.70315 0.0
C1087 C 0.14015 0.87627 0.72443 0.0
C1088 C 0.14721 0.86049 0.70594 0.0
C1089 C 0.14193 0.85581 0.66609 0.0
C1090 C 0.12953 0.86687 0.6447 0.0
C1091 C 0.11506 0.95252 0.50983 0.0
C1092 C 0.12123 0.94312 0.47487 0.0
C1093 C 0.10966 0.9429 0.54462 0.0
C1094 C 0.11004 0.92369 0.54498 0.0
C1095 C 0.11675 0.91423 0.51062 0.0
C1096 C 0.12232 0.9239 0.47571 0.0
C1097 C 0.10281 0.91374 0.58103 0.0
C1098 C 0.11444 0.90186 0.60272 0.0
C1099 C 0.08495 0.91727 0.59604 0.0
C1100 C 0.07158 0.92864 0.57293 0.0
C1101 C 0.06735 0.92452 0.53185 0.0
C1102 C 0.05498 0.93543 0.51005 0.0
C1103 C 0.04664 0.95044 0.52906 0.0
C1104 C 0.05063 0.95455 0.56996 0.0
C1105 C 0.06301 0.94369 0.5919 0.0
H1106 H 0.03707 0.95888 0.51212 0.0
H1107 H 0.1568 0.8519 0.72246 0.0
H1108 H 0.58982 0.05075 0.26358 0.0
H1109 H 0.57971 0.06338 0.19815 0.0
H1110 H 0.63482 0.0814 0.17246 0.0
H1111 H 0.64517 0.06861 0.23821 0.0
H1112 H 0.60566 0.10753 0.15298 0.0
H1113 H 0.62302 0.04506 0.12786 0.0
H1114 H 0.62326 0.01192 0.14226 0.0
H1115 H 0.56499 0.00965 0.12406 0.0
H1116 H 0.56435 0.04287 0.11021 0.0
H1117 H 0.58205 0.12492 0.94411 0.0
H1118 H 0.59811 0.11418 0.00551 0.0
H1119 H 0.55036 0.08298 0.04042 0.0
H1120 H 0.53449 0.09323 0.97866 0.0
H1121 H 0.57983 0.06344 0.05246 0.0
H1122 H 0.56129 0.12528 0.08438 0.0
H1123 H 0.5595 0.1588 0.07564 0.0
H1124 H 0.61813 0.16261 0.08431 0.0
H1125 H 0.62028 0.12908 0.09262 0.0
C1126 C 0.59978 0.05756 0.24428 0.0
C1127 C 0.61831 0.0586 0.25584 0.0
C1128 C 0.59398 0.06472 0.20689 0.0
C1129 C 0.60658 0.0731 0.18044 0.0
C1130 C 0.62495 0.07491 0.19256 0.0
C1131 C 0.63082 0.06759 0.22998 0.0
C1132 C 0.60049 0.07916 0.13944 0.0
C1133 C 0.60033 0.09792 0.13054 0.0
C1134 C 0.59324 0.06655 0.1108 0.0
C1135 C 0.59362 0.04649 0.11829 0.0
C1136 C 0.61024 0.03752 0.12719 0.0
C1137 C 0.61045 0.01872 0.13523 0.0
C1138 C 0.59414 0.00869 0.13416 0.0
C1139 C 0.5776 0.01744 0.1249 0.0
C1140 C 0.57731 0.03625 0.1169 0.0
C1141 C 0.57505 0.11568 0.9648 0.0
C1142 C 0.55702 0.10992 0.95669 0.0
C1143 C 0.58419 0.10965 -3e-05 0.0
C1144 C 0.57535 0.09797 0.02786 0.0
C1145 C 0.55746 0.09198 0.01934 0.0
C1146 C 0.54839 0.09787 0.98407 0.0
C1147 C 0.58457 0.09196 0.06606 0.0
C1148 C 0.58537 0.07312 0.07449 0.0
C1149 C 0.59223 0.10454 0.09442 0.0
C1150 C 0.59096 0.12465 0.08865 0.0
C1151 C 0.57381 0.13325 0.08401 0.0
C1152 C 0.57273 0.15225 0.07925 0.0
C1153 C 0.5887 0.16282 0.07938 0.0
C1154 C 0.60578 0.15441 0.08418 0.0
C1155 C 0.60694 0.13541 0.08894 0.0
H1156 H 0.58784 0.17754 0.0759 0.0
H1157 H 0.59433 0.99414 0.14045 0.0
H1158 H 0.34629 0.57058 0.46124 0.0
H1159 H 0.35613 0.58942 0.51914 0.0
H1160 H 0.4113 0.59015 0.47096 0.0
H1161 H 0.40167 0.57034 0.41443 0.0
H1162 H 0.41365 0.58397 0.54579 0.0
H1163 H 0.38079 0.62913 0.47098 0.0
H1164 H 0.35497 0.64285 0.43299 0.0
H1165 H 0.32104 0.63928 0.54027 0.0
H1166 H 0.34658 0.6253 0.57878 0.0
H1167 H 0.44312 0.6487 0.69327 0.0
H1168 H 0.43122 0.64039 0.62549 0.0
H1169 H 0.3839 0.61562 0.68194 0.0
H1170 H 0.39595 0.62343 0.74989 0.0
H1171 H 0.37898 0.63731 0.59998 0.0
H1172 H 0.413 0.58774 0.66895 0.0
H1173 H 0.44041 0.57642 0.70536 0.0
H1174 H 0.47423 0.5917 0.60321 0.0
H1175 H 0.44701 0.6034 0.5665 0.0
C1176 C 0.36048 0.57491 0.46294 0.0
C1177 C 0.37325 0.56901 0.43357 0.0
C1178 C 0.36608 0.58581 0.49584 0.0
C1179 C 0.38443 0.59152 0.49922 0.0
C1180 C 0.39708 0.58595 0.46917 0.0
C1181 C 0.39158 0.57465 0.43686 0.0
C1182 C 0.3907 0.60215 0.53553 0.0
C1183 C 0.4062 0.59585 0.55692 0.0
C1184 C 0.38098 0.61759 0.55068 0.0
C1185 C 0.36557 0.62602 0.52767 0.0
C1186 C 0.36778 0.63114 0.4864 0.0
C1187 C 0.3532 0.63899 0.46478 0.0
C1188 C 0.33637 0.6419 0.48418 0.0
C1189 C 0.33409 0.637 0.52528 0.0
C1190 C 0.34862 0.62914 0.54703 0.0
C1191 C 0.42994 0.64193 0.69117 0.0
C1192 C 0.4205 0.63654 0.7267 0.0
C1193 C 0.42317 0.63723 0.6525 0.0
C1194 C 0.40674 0.62739 0.64897 0.0
C1195 C 0.39656 0.62331 0.68423 0.0
C1196 C 0.40349 0.62768 0.72292 0.0
C1197 C 0.40163 0.61894 0.60951 0.0
C1198 C 0.38642 0.6256 0.58797 0.0
C1199 C 0.41178 0.60407 0.5936 0.0
C1200 C 0.42803 0.59662 0.61522 0.0
C1201 C 0.4263 0.58881 0.65441 0.0
C1202 C 0.44179 0.58231 0.67508 0.0
C1203 C 0.45906 0.58339 0.65667 0.0
C1204 C 0.46085 0.5909 0.61747 0.0
C1205 C 0.4454 0.59746 0.59672 0.0
H1206 H 0.47104 0.57837 0.67273 0.0
H1207 H 0.3251 0.64797 0.46739 0.0
H1208 H 0.90888 0.0586 0.74847 0.0
H1209 H 0.91636 0.07201 0.81483 0.0
H1210 H 0.85898 0.07283 0.84701 0.0
H1211 H 0.8513 0.05954 0.77991 0.0
H1212 H 0.87697 0.10435 0.8709 0.0
H1213 H 0.88528 0.03993 0.88532 0.0
H1214 H 0.89643 0.00917 0.86637 0.0
H1215 H 0.95212 0.02758 0.87722 0.0
H1216 H 0.94131 0.05855 0.89562 0.0
H1217 H 0.90248 0.12085 0.08153 0.0
H1218 H 0.88863 0.10704 0.02026 0.0
H1219 H 0.94207 0.10319 0.96415 0.0
H1220 H 0.95594 0.11694 0.02497 0.0
H1221 H 0.92214 0.07126 0.95741 0.0
H1222 H 0.9135 0.13629 0.93594 0.0
H1223 H 0.90236 0.16715 0.95418 0.0
H1224 H 0.84699 0.14721 0.95724 0.0
H1225 H 0.85785 0.11616 0.93955 0.0
C1226 C 0.89781 0.06173 0.7695 0.0
C1227 C 0.87951 0.05789 0.75919 0.0
C1228 C 0.90212 0.06933 0.80747 0.0
C1229 C 0.88825 0.07307 0.83609 0.0
C1230 C 0.86988 0.06992 0.82538 0.0
C1231 C 0.86552 0.06233 0.78715 0.0
C1232 C 0.89323 0.07987 0.87738 0.0
C1233 C 0.88656 0.09697 0.89025 0.0
C1234 C 0.90589 0.07028 0.90234 0.0
C1235 C 0.91247 0.05161 0.8916 0.0
C1236 C 0.89991 0.03746 0.8834 0.0
C1237 C 0.90616 0.01998 0.87279 0.0
C1238 C 0.92497 0.01643 0.87053 0.0
C1239 C 0.93756 0.03035 0.87897 0.0
C1240 C 0.93137 0.04787 0.88954 0.0
C1241 C 0.91124 0.11704 0.0561 0.0
C1242 C 0.93027 0.11997 0.05794 0.0
C1243 C 0.90332 0.10922 0.02115 0.0
C1244 C 0.91435 0.10418 0.9877 0.0
C1245 C 0.93335 0.10696 0.9897 0.0
C1246 C 0.94124 0.11486 0.02441 0.0
C1247 C 0.90626 0.09594 0.9504 0.0
C1248 C 0.91234 0.07852 0.93836 0.0
C1249 C 0.89304 0.10521 0.92636 0.0
C1250 C 0.88651 0.12386 0.93694 0.0
C1251 C 0.89897 0.13845 0.94088 0.0
C1252 C 0.8927 0.15599 0.95104 0.0
C1253 C 0.87399 0.15913 0.957 0.0
C1254 C 0.86149 0.14475 0.9527 0.0
C1255 C 0.86769 0.12719 0.94259 0.0
H1256 H 0.86916 0.17271 0.96485 0.0
H1257 H 0.92979 0.00288 0.86232 0.0
H1258 H 0.4063 0.92279 0.56877 0.0
H1259 H 0.41573 0.90832 0.50451 0.0
H1260 H 0.35901 0.9027 0.4689 0.0
H1261 H 0.34947 0.91669 0.53369 0.0
H1262 H 0.3782 0.87348 0.44459 0.0
H1263 H 0.38401 0.93855 0.43462 0.0
H1264 H 0.39415 0.96934 0.45594 0.0
H1265 H 0.45042 0.95271 0.44449 0.0
H1266 H 0.44061 0.92172 0.42365 0.0
H1267 H 0.42154 0.89323 0.22749 0.0
H1268 H 0.40584 0.9026 0.29022 0.0
H1269 H 0.42288 0.85247 0.34912 0.0
H1270 H 0.43817 0.84277 0.2859 0.0
H1271 H 0.4209 0.9102 0.3595 0.0
H1272 H 0.39336 0.84164 0.42634 0.0
H1273 H 0.38031 0.81252 0.40145 0.0
H1274 H 0.3622 0.83902 0.29114 0.0
H1275 H 0.37491 0.86835 0.31559 0.0
C1276 C 0.39585 0.91824 0.54748 0.0
C1277 C 0.37718 0.92101 0.55596 0.0
C1278 C 0.40124 0.91002 0.51078 0.0
C1279 C 0.38807 0.90476 0.48164 0.0
C1280 C 0.36938 0.9067 0.49093 0.0
C1281 C 0.36397 0.91474 0.52788 0.0
C1282 C 0.39384 0.89842 0.4405 0.0
C1283 C 0.38755 0.88146 0.42592 0.0
C1284 C 0.40561 0.90911 0.41572 0.0
C1285 C 0.41157 0.92777 0.42793 0.0
C1286 C 0.39855 0.94143 0.43691 0.0
C1287 C 0.40424 0.95891 0.44888 0.0
C1288 C 0.42292 0.96296 0.45166 0.0
C1289 C 0.43595 0.94954 0.44237 0.0
C1290 C 0.43034 0.93202 0.43045 0.0
C1291 C 0.4217 0.88408 0.25363 0.0
C1292 C 0.43113 0.86732 0.25198 0.0
C1293 C 0.41275 0.88946 0.28945 0.0
C1294 C 0.41316 0.87824 0.32435 0.0
C1295 C 0.42213 0.86122 0.32238 0.0
C1296 C 0.43093 0.85574 0.28634 0.0
C1297 C 0.40553 0.88506 0.36362 0.0
C1298 C 0.41152 0.90216 0.37797 0.0
C1299 C 0.39308 0.87471 0.38751 0.0
C1300 C 0.38526 0.85715 0.37266 0.0
C1301 C 0.38654 0.84127 0.39684 0.0
C1302 C 0.37921 0.82472 0.3828 0.0
C1303 C 0.37049 0.82391 0.34468 0.0
C1304 C 0.36903 0.83965 0.32058 0.0
C1305 C 0.37632 0.85623 0.33449 0.0
H1306 H 0.36483 0.81108 0.33386 0.0
H1307 H 0.4273 0.97651 0.46093 0.0
H1308 H 0.54567 0.39954 0.01175 0.0
H1309 H 0.56098 0.40852 0.94826 0.0
H1310 H 0.6092 0.37829 0.98423 0.0
H1311 H 0.59383 0.36898 0.04791 0.0
H1312 H 0.61536 0.41544 0.95246 0.0
H1313 H 0.58553 0.35909 0.91689 0.0
H1314 H 0.55952 0.33758 0.91378 0.0
H1315 H 0.52858 0.37641 0.8431 0.0
H1316 H 0.5543 0.39828 0.84633 0.0
H1317 H 0.65165 0.43318 0.75257 0.0
H1318 H 0.64301 0.41671 0.81522 0.0
H1319 H 0.58624 0.43071 0.79431 0.0
H1320 H 0.59467 0.44654 0.73147 0.0
H1321 H 0.58832 0.39698 0.81902 0.0
H1322 H 0.61446 0.45469 0.86273 0.0
H1323 H 0.6387 0.47813 0.8678 0.0
H1324 H 0.67469 0.439 0.92435 0.0
H1325 H 0.65071 0.41526 0.91914 0.0
C1326 C 0.55956 0.39486 0.00628 0.0
C1327 C 0.56856 0.38353 0.03465 0.0
C1328 C 0.56825 0.39995 0.96998 0.0
C1329 C 0.58612 0.39391 0.96158 0.0
C1330 C 0.59537 0.383 0.99028 0.0
C1331 C 0.58658 0.3777 0.02648 0.0
C1332 C 0.59488 0.399 0.92243 0.0
C1333 C 0.60976 0.41112 0.92318 0.0
C1334 C 0.58726 0.39358 0.88448 0.0
C1335 C 0.57182 0.38037 0.88209 0.0
C1336 C 0.57313 0.3631 0.90094 0.0
C1337 C 0.55844 0.35083 0.89912 0.0
C1338 C 0.54239 0.35564 0.87831 0.0
C1339 C 0.54102 0.3727 0.85921 0.0
C1340 C 0.55566 0.38503 0.86098 0.0
C1341 C 0.63733 0.43258 0.76129 0.0
C1342 C 0.62383 0.44114 0.73725 0.0
C1343 C 0.63242 0.42325 0.79711 0.0
C1344 C 0.614 0.42265 0.80969 0.0
C1345 C 0.60053 0.43092 0.78517 0.0
C1346 C 0.60538 0.44001 0.74928 0.0
C1347 C 0.60853 0.41392 0.84886 0.0
C1348 C 0.59423 0.40106 0.84817 0.0
C1349 C 0.6165 0.41891 0.88688 0.0
C1350 C 0.6309 0.43316 0.89008 0.0
C1351 C 0.6276 0.45106 0.87595 0.0
C1352 C 0.64128 0.4644 0.8789 0.0
C1353 C 0.65825 0.46004 0.89626 0.0
C1354 C 0.66156 0.44234 0.91083 0.0
C1355 C 0.64793 0.42895 0.9079 0.0
H1356 H 0.66882 0.47038 0.89853 0.0
H1357 H 0.53104 0.34612 0.87694 0.0
H1358 H 0.09977 0.54057 0.52916 0.0
H1359 H 0.08992 0.55377 0.46401 0.0
H1360 H 0.12622 0.59963 0.48262 0.0
H1361 H 0.1364 0.58634 0.54799 0.0
H1362 H 0.08873 0.60815 0.45219 0.0
H1363 H 0.14136 0.57099 0.42214 0.0
H1364 H 0.16024 0.543 0.42572 0.0
H1365 H 0.11728 0.51225 0.36771 0.0
H1366 H 0.098 0.54 0.36441 0.0
H1367 H 0.0769 0.63535 0.24263 0.0
H1368 H 0.09066 0.62797 0.30918 0.0
H1369 H 0.06808 0.57343 0.30206 0.0
H1370 H 0.05474 0.58055 0.23537 0.0
H1371 H 0.1024 0.57204 0.32677 0.0
H1372 H 0.04874 0.60746 0.36236 0.0
H1373 H 0.02852 0.63455 0.36096 0.0
H1374 H 0.07196 0.66777 0.40964 0.0
H1375 H 0.09252 0.64089 0.41082 0.0
C1376 C 0.10554 0.55355 0.51965 0.0
C1377 C 0.11892 0.5624 0.54348 0.0
C1378 C 0.09992 0.56104 0.48243 0.0
C1379 C 0.10748 0.57755 0.46855 0.0
C1380 C 0.12029 0.58685 0.49297 0.0
C1381 C 0.12609 0.57923 0.53012 0.0
C1382 C 0.10249 0.58448 0.42756 0.0
C1383 C 0.09199 0.60051 0.42457 0.0
C1384 C 0.10654 0.57425 0.39188 0.0
C1385 C 0.11818 0.55756 0.39333 0.0
C1386 C 0.13588 0.55823 0.41044 0.0
C1387 C 0.14666 0.54241 0.41238 0.0
C1388 C 0.13995 0.52585 0.39703 0.0
C1389 C 0.12245 0.52508 0.37961 0.0
C1390 C 0.1116 0.54086 0.37766 0.0
C1391 C 0.0749 0.6218 0.25533 0.0
C1392 C 0.06475 0.60852 0.23391 0.0
C1393 C 0.0827 0.61762 0.29337 0.0
C1394 C 0.08026 0.60019 0.31073 0.0
C1395 C 0.07018 0.58694 0.28919 0.0
C1396 C 0.06252 0.59105 0.25115 0.0
C1397 C 0.08819 0.59555 0.35124 0.0
C1398 C 0.09931 0.5799 0.35418 0.0
C1399 C 0.08457 0.60608 0.38686 0.0
C1400 C 0.07223 0.62222 0.38621 0.0
C1401 C 0.05402 0.62057 0.37244 0.0
C1402 C 0.0425 0.63588 0.37175 0.0
C1403 C 0.04897 0.65289 0.38508 0.0
C1404 C 0.06698 0.6546 0.39924 0.0
C1405 C 0.07857 0.63933 0.39995 0.0
H1406 H 0.04003 0.66472 0.38453 0.0
H1407 H 0.14832 0.51361 0.39857 0.0
H1408 H 0.89596 0.52016 0.32996 0.0
H1409 H 0.91129 0.54525 0.29405 0.0
H1410 H 0.88514 0.5291 0.18101 0.0
H1411 H 0.86958 0.50409 0.21682 0.0
H1412 H 0.92348 0.53012 0.17804 0.0
H1413 H 0.87412 0.56898 0.21806 0.0
H1414 H 0.85182 0.58285 0.26569 0.0
H1415 H 0.89582 0.60602 0.33615 0.0
H1416 H 0.91841 0.59206 0.28931 0.0
H1417 H 0.98158 0.59351 0.08257 0.0
H1418 H 0.95232 0.57928 0.10099 0.0
H1419 H 0.96039 0.59553 0.2271 0.0
H1420 H 0.98893 0.61072 0.20823 0.0
H1421 H 0.9259 0.59629 0.2123 0.0
H1422 H 0.9743 0.55208 0.18619 0.0
H1423 H -0.00199 0.5368 0.14435 0.0
H1424 H 0.95738 0.52215 0.0548 0.0
H1425 H 0.93347 0.53754 0.09594 0.0
C1426 C 0.89321 0.52219 0.29764 0.0
C1427 C 0.88173 0.51012 0.27607 0.0
C1428 C 0.90185 0.53658 0.27725 0.0
C1429 C 0.89924 0.53904 0.23497 0.0
C1430 C 0.88721 0.52746 0.21371 0.0
C1431 C 0.87837 0.51319 0.23419 0.0
C1432 C 0.91099 0.55202 0.21236 0.0
C1433 C 0.92371 0.54469 0.18466 0.0
C1434 C 0.91152 0.57089 0.22201 0.0
C1435 C 0.89798 0.57937 0.25025 0.0
C1436 C 0.87905 0.57691 0.24389 0.0
C1437 C 0.86635 0.58482 0.27072 0.0
C1438 C 0.8724 0.59529 0.30396 0.0
C1439 C 0.89116 0.59791 0.31039 0.0
C1440 C 0.90392 0.59002 0.28366 0.0
C1441 C 0.97687 0.5943 0.11403 0.0
C1442 C 0.98755 0.60296 0.14414 0.0
C1443 C 0.96021 0.58613 0.12457 0.0
C1444 C 0.95438 0.58589 0.16565 0.0
C1445 C 0.96458 0.59547 0.19523 0.0
C1446 C 0.98095 0.60407 0.18448 0.0
C1447 C 0.93878 0.57427 0.17887 0.0
C1448 C 0.92537 0.58182 0.20485 0.0
C1449 C 0.93782 0.55544 0.16848 0.0
C1450 C 0.95216 0.54614 0.14384 0.0
C1451 C 0.97046 0.54569 0.15745 0.0
C1452 C 0.98392 0.537 0.13389 0.0
C1453 C 0.97921 0.52856 0.09687 0.0
C1454 C 0.96102 0.52874 0.08342 0.0
C1455 C 0.9475 0.53743 0.10684 0.0
H1456 H 0.98966 0.52184 0.07867 0.0
H1457 H 0.86254 0.6014 0.3247 0.0
H1458 H 0.90367 0.97214 0.63859 0.0
H1459 H 0.91767 0.94502 0.66964 0.0
H1460 H 0.88293 0.95129 0.77579 0.0
H1461 H 0.86877 0.97832 0.74485 0.0
H1462 H 0.92005 0.95135 0.79331 0.0
H1463 H 0.87755 0.91436 0.71977 0.0
H1464 H 0.8603 0.90353 0.65943 0.0
H1465 H 0.91063 0.88803 0.60046 0.0
H1466 H 0.92822 0.89902 0.66019 0.0
H1467 H 0.97282 0.88279 0.88737 0.0
H1468 H 0.94491 0.89752 0.86167 0.0
H1469 H 0.96522 0.89259 0.73776 0.0
H1470 H 0.99258 0.87706 0.76313 0.0
H1471 H 0.9299 0.88907 0.7364 0.0
H1472 H 0.97219 0.93181 0.7997 0.0
H1473 H 0.99083 0.94453 0.85606 0.0
H1474 H 0.94241 0.95127 0.9295 0.0
H1475 H 0.92351 0.93835 0.87372 0.0
C1476 C 0.89874 0.96749 0.66813 0.0
C1477 C 0.88528 0.97741 0.6895 0.0
C1478 C 0.90666 0.95194 0.68571 0.0
C1479 C 0.90126 0.94616 0.72493 0.0
C1480 C 0.88719 0.95553 0.74543 0.0
C1481 C 0.87916 0.97096 0.72771 0.0
C1482 C 0.91209 0.93206 0.74662 0.0
C1483 C 0.92185 0.93755 0.78153 0.0
C1484 C 0.91474 0.91429 0.73045 0.0
C1485 C 0.90422 0.90763 0.69443 0.0
C1486 C 0.88496 0.90878 0.69381 0.0
C1487 C 0.87512 0.90258 0.65973 0.0
C1488 C 0.88437 0.89512 0.62611 0.0
C1489 C 0.90348 0.89382 0.62653 0.0
C1490 C 0.91339 0.9 0.66053 0.0
C1491 C 0.97112 0.88457 0.85461 0.0
C1492 C 0.98491 0.87904 0.82723 0.0
C1493 C 0.95522 0.89302 0.83996 0.0
C1494 C 0.95317 0.89657 0.79786 0.0
C1495 C 0.96649 0.89005 0.77037 0.0
C1496 C 0.98217 0.88125 0.78492 0.0
C1497 C 0.93823 0.90854 0.78253 0.0
C1498 C 0.92775 0.9027 0.74879 0.0
C1499 C 0.93513 0.9262 0.79922 0.0
C1500 C 0.94649 0.93388 0.83281 0.0
C1501 C 0.96555 0.93587 0.82801 0.0
C1502 C 0.97615 0.94313 0.85982 0.0
C1503 C 0.96782 0.94864 0.8964 0.0
C1504 C 0.94885 0.94694 0.9012 0.0
C1505 C 0.93819 0.93964 0.86952 0.0
H1506 H 0.97605 0.95427 0.92098 0.0
H1507 H 0.87672 0.89033 0.59975 0.0
H1508 H 0.51769 0.89448 0.13366 0.0
H1509 H 0.54429 0.91114 0.1604 0.0
H1510 H 0.53839 0.88361 0.27661 0.0
H1511 H 0.51192 0.86682 0.25009 0.0
H1512 H 0.53888 0.92185 0.28166 0.0
H1513 H 0.57394 0.87339 0.22008 0.0
H1514 H 0.58364 0.85294 0.1639 0.0
H1515 H 0.60119 0.89937 0.09344 0.0
H1516 H 0.59134 0.92014 0.14898 0.0
H1517 H 0.61114 0.96724 0.37597 0.0
H1518 H 0.59391 0.94108 0.34932 0.0
H1519 H 0.60332 0.9599 0.22565 0.0
H1520 H 0.62134 0.98556 0.25216 0.0
H1521 H 0.60223 0.92383 0.22623 0.0
H1522 H 0.56446 0.97222 0.27964 0.0
H1523 H 0.55362 0.99425 0.33168 0.0
H1524 H 0.53949 0.94989 0.41201 0.0
H1525 H 0.55049 0.92759 0.36062 0.0
C1526 C 0.52223 0.89181 0.16471 0.0
C1527 C 0.51269 0.87947 0.18992 0.0
C1528 C 0.53747 0.90123 0.17983 0.0
C1529 C 0.5433 0.8985 0.22037 0.0
C1530 C 0.5341 0.88582 0.24519 0.0
C1531 C 0.51899 0.87628 0.23 0.0
C1532 C 0.55779 0.91018 0.23816 0.0
C1533 C 0.55285 0.92202 0.27013 0.0
C1534 C 0.57577 0.9108 0.22198 0.0
C1535 C 0.58175 0.89833 0.18858 0.0
C1536 C 0.57972 0.87926 0.19247 0.0
C1537 C 0.58527 0.8676 0.16077 0.0
C1538 C 0.59298 0.87485 0.12509 0.0
C1539 C 0.5952 0.89377 0.12108 0.0
C1540 C 0.58965 0.90549 0.15269 0.0
C1541 C 0.60987 0.96552 0.34308 0.0
C1542 C 0.61733 0.97847 0.31608 0.0
C1543 C 0.59999 0.95064 0.32789 0.0
C1544 C 0.59691 0.94883 0.28555 0.0
C1545 C 0.60545 0.96107 0.25843 0.0
C1546 C 0.6157 0.97574 0.2736 0.0
C1547 C 0.58333 0.93546 0.26992 0.0
C1548 C 0.58835 0.92344 0.23817 0.0
C1549 C 0.56523 0.93489 0.28567 0.0
C1550 C 0.55848 0.94825 0.31649 0.0
C1551 C 0.55915 0.96717 0.30851 0.0
C1552 C 0.55297 0.97971 0.33788 0.0
C1553 C 0.54592 0.97348 0.37518 0.0
C1554 C 0.54499 0.95469 0.38314 0.0
C1555 C 0.55118 0.9421 0.3539 0.0
H1556 H 0.54115 0.9832 0.39788 0.0
H1557 H 0.59728 0.8658 0.10058 0.0
H1558 H 0.62777 0.52412 0.73219 0.0
H1559 H 0.60697 0.54518 0.7682 0.0
H1560 H 0.56685 0.53834 0.67224 0.0
H1561 H 0.58741 0.51748 0.63618 0.0
H1562 H 0.58711 0.57829 0.74534 0.0
H1563 H 0.52714 0.52713 0.72074 0.0
H1564 H 0.52291 0.49378 0.71287 0.0
H1565 H 0.57241 0.48397 0.78073 0.0
H1566 H 0.57675 0.51722 0.78968 0.0
H1567 H 0.50091 0.62037 0.75372 0.0
H1568 H 0.5285 0.60284 0.73782 0.0
H1569 H 0.52065 0.57041 0.84699 0.0
H1570 H 0.49274 0.58776 0.86273 0.0
H1571 H 0.5281 0.54918 0.78414 0.0
H1572 H 0.55523 0.60183 0.84253 0.0
H1573 H 0.56066 0.63473 0.85445 0.0
H1574 H 0.57877 0.64099 0.72998 0.0
H1575 H 0.57318 0.60818 0.71709 0.0
C1576 C 0.61467 0.52744 0.7184 0.0
C1577 C 0.6091 0.51904 0.68163 0.0
C1578 C 0.60285 0.53945 0.73896 0.0
C1579 C 0.58534 0.54301 0.72306 0.0
C1580 C 0.58026 0.53554 0.68513 0.0
C1581 C 0.59203 0.52366 0.66456 0.0
C1582 C 0.57162 0.55326 0.74714 0.0
C1583 C 0.57424 0.572 0.75416 0.0
C1584 C 0.55515 0.54476 0.75982 0.0
C1585 C 0.55233 0.52469 0.75559 0.0
C1586 C 0.53705 0.51786 0.73424 0.0
C1587 C 0.53464 0.49897 0.72955 0.0
C1588 C 0.54741 0.48677 0.7462 0.0
C1589 C 0.56256 0.49343 0.76775 0.0
C1590 C 0.565 0.5123 0.77261 0.0
C1591 C 0.50508 0.60954 0.77442 0.0
C1592 C 0.49469 0.60539 0.80944 0.0
C1593 C 0.52094 0.59964 0.76549 0.0
C1594 C 0.52681 0.58554 0.79161 0.0
C1595 C 0.51642 0.58133 0.82658 0.0
C1596 C 0.50048 0.5912 0.83549 0.0
C1597 C 0.54316 0.57453 0.78073 0.0
C1598 C 0.54105 0.55555 0.77613 0.0
C1599 C 0.56022 0.58277 0.77123 0.0
C1600 C 0.56368 0.60254 0.77879 0.0
C1601 C 0.56025 0.61024 0.8176 0.0
C1602 C 0.56337 0.62888 0.82455 0.0
C1603 C 0.57003 0.63995 0.79298 0.0
C1604 C 0.57361 0.6324 0.75441 0.0
C1605 C 0.57049 0.61377 0.74728 0.0
H1606 H 0.57244 0.65438 0.79842 0.0
H1607 H 0.54554 0.47216 0.74245 0.0
H1608 H 0.08246 0.52047 0.71056 0.0
H1609 H 0.06076 0.49981 0.74393 0.0
H1610 H 0.10108 0.45654 0.74117 0.0
H1611 H 0.12291 0.47716 0.70776 0.0
H1612 H 0.06778 0.44633 0.70864 0.0
H1613 H 0.08939 0.47393 0.8354 0.0
H1614 H 0.09702 0.4995 0.88192 0.0
H1615 H 0.04237 0.52069 0.8698 0.0
H1616 H 0.03423 0.49491 0.82422 0.0
H1617 H 0.01887 0.38112 0.82125 0.0
H1618 H 0.0426 0.40347 0.80442 0.0
H1619 H 0.00219 0.44666 0.80526 0.0
H1620 H 0.9783 0.42435 0.82235 0.0
H1621 H 0.03564 0.45719 0.84064 0.0
H1622 H 0.01324 0.42949 0.71748 0.0
H1623 H 0.00456 0.40383 0.67226 0.0
H1624 H 0.0601 0.38426 0.67331 0.0
H1625 H 0.06905 0.40961 0.71923 0.0
C1626 C 0.08675 0.5066 0.71735 0.0
C1627 C 0.10431 0.50036 0.70631 0.0
C1628 C 0.0744 0.49487 0.73671 0.0
C1629 C 0.07939 0.47671 0.74524 0.0
C1630 C 0.09702 0.47054 0.73491 0.0
C1631 C 0.10943 0.48231 0.71578 0.0
C1632 C 0.0657 0.46377 0.76178 0.0
C1633 C 0.061 0.44851 0.73787 0.0
C1634 C 0.05639 0.46704 0.79911 0.0
C1635 C 0.06126 0.4826 0.82619 0.0
C1636 C 0.07903 0.48409 0.84253 0.0
C1637 C 0.08343 0.49859 0.86879 0.0
C1638 C 0.07027 0.51184 0.87838 0.0
C1639 C 0.05258 0.51046 0.86222 0.0
C1640 C 0.04801 0.49583 0.83645 0.0
C1641 C 0.01507 0.3954 0.81839 0.0
C1642 C 0.99673 0.40099 0.8227 0.0
C1643 C 0.02862 0.40814 0.80876 0.0
C1644 C 0.02406 0.42663 0.80315 0.0
C1645 C 0.00593 0.43242 0.80947 0.0
C1646 C 0.99233 0.41967 0.81905 0.0
C1647 C 0.03798 0.43961 0.78779 0.0
C1648 C 0.04256 0.45493 0.81163 0.0
C1649 C 0.04707 0.43652 0.75009 0.0
C1650 C 0.04178 0.42134 0.72216 0.0
C1651 C 0.02357 0.41963 0.70836 0.0
C1652 C 0.01861 0.40516 0.68255 0.0
C1653 C 0.03176 0.39241 0.66998 0.0
C1654 C 0.04992 0.39413 0.68313 0.0
C1655 C 0.05495 0.40855 0.70904 0.0
H1656 H 0.02789 0.38122 0.64999 0.0
H1657 H 0.07377 0.52311 0.8985 0.0
H1658 H 0.98422 0.08465 0.1785 0.0
H1659 H 0.00905 0.06565 0.20586 0.0
H1660 H 0.04323 0.11353 0.21808 0.0
H1661 H 0.01855 0.13261 0.19055 0.0
H1662 H 0.04623 0.05952 0.18451 0.0
H1663 H 0.06159 0.11031 0.31686 0.0
H1664 H 0.04563 0.1347 0.35534 0.0
H1665 H 0.99378 0.10929 0.32999 0.0
H1666 H 0.00946 0.08448 0.2924 0.0
H1667 H 0.12491 0.02736 0.28656 0.0
H1668 H 0.10399 0.04954 0.25517 0.0
H1669 H 0.06345 0.03774 0.34779 0.0
H1670 H 0.08433 0.0158 0.3796 0.0
H1671 H 0.06342 0.07361 0.32852 0.0
H1672 H 0.0618 0.01581 0.25858 0.0
H1673 H 0.07529 0.98932 0.22249 0.0
H1674 H 0.09474 0.02479 0.12699 0.0
H1675 H 0.08163 0.05154 0.16292 0.0
C1676 C 0.99715 0.09106 0.18632 0.0
C1677 C -0.00056 0.1101 0.18275 0.0
C1678 C 0.0113 0.08019 0.20175 0.0
C1679 C 0.02783 0.08827 0.21423 0.0
C1680 C 0.03049 0.10712 0.20878 0.0
C1681 C 0.0164 0.11797 0.19305 0.0
C1682 C 0.04164 0.07727 0.23626 0.0
C1683 C 0.05012 0.06265 0.21586 0.0
C1684 C 0.04624 0.08115 0.27752 0.0
C1685 C 0.03671 0.09567 0.30132 0.0
C1686 C 0.0468 0.10986 0.31973 0.0
C1687 C 0.0378 0.12374 0.34144 0.0
C1688 C 0.0187 0.12355 0.34502 0.0
C1689 C 0.00857 0.10941 0.32716 0.0
C1690 C 0.01751 0.09544 0.30566 0.0
C1691 C 0.11168 0.02978 0.30068 0.0
C1692 C 0.10614 0.01974 0.33521 0.0
C1693 C 0.09974 0.04239 0.28266 0.0
C1694 C 0.08209 0.04501 0.29882 0.0
C1695 C 0.077 0.03586 0.33483 0.0
C1696 C 0.08892 0.02329 0.35287 0.0
C1697 C 0.06837 0.05607 0.27649 0.0
C1698 C 0.05977 0.07064 0.29695 0.0
C1699 C 0.06326 0.0518 0.23568 0.0
C1700 C 0.0709 0.0357 0.21365 0.0
C1701 C 0.06906 0.01797 0.23002 0.0
C1702 C 0.07663 0.00291 0.20959 0.0
C1703 C 0.0859 0.00537 0.17252 0.0
C1704 C 0.08757 0.0229 0.15575 0.0
C1705 C 0.08007 0.03802 0.17612 0.0
H1706 H 0.09176 0.9937 0.15675 0.0
H1707 H 0.01175 0.13435 0.36169 0.0
H1708 H 0.38327 -0.00166 0.75122 0.0
H1709 H 0.39945 0.02644 0.76921 0.0
H1710 H 0.41788 0.03194 0.64401 0.0
H1711 H 0.40218 0.00336 0.62617 0.0
H1712 H 0.44479 0.03913 0.69291 0.0
H1713 H 0.38359 0.05995 0.68395 0.0
H1714 H 0.35018 0.06014 0.69533 0.0
H1715 H 0.35871 0.06687 0.82475 0.0
H1716 H 0.39219 0.06645 0.81426 0.0
H1717 H 0.48308 0.12418 0.75122 0.0
H1718 H 0.45952 0.10576 0.7171 0.0
H1719 H 0.44595 0.08039 0.83253 0.0
H1720 H 0.46964 0.09852 0.86673 0.0
H1721 H 0.41482 0.08758 0.77639 0.0
H1722 H 0.4767 0.06056 0.78133 0.0
H1723 H 0.50989 0.06235 0.7672 0.0
H1724 H 0.49883 0.06951 0.63887 0.0
H1725 H 0.46554 0.0681 0.65241 0.0
C1726 C 0.39078 0.00553 0.72754 0.0
C1727 C 0.39147 -0.00128 0.68732 0.0
C1728 C 0.39988 0.02168 0.73774 0.0
C1729 C 0.40953 0.03154 0.70773 0.0
C1730 C 0.41041 0.02463 0.66758 0.0
C1731 C 0.40148 0.00831 0.65746 0.0
C1732 C 0.41929 0.04861 0.71903 0.0
C1733 C 0.43809 0.04991 0.71029 0.0
C1734 C 0.4106 0.06273 0.74173 0.0
C1735 C 0.39044 0.06306 0.74831 0.0
C1736 C 0.37836 0.06134 0.71488 0.0
C1737 C 0.3594 0.06151 0.72117 0.0
C1738 C 0.35232 0.06349 0.76074 0.0
C1739 C 0.36421 0.06534 0.79411 0.0
C1740 C 0.38318 0.06517 0.788 0.0
C1741 C 0.47471 0.11505 0.7695 0.0
C1742 C 0.47829 0.11254 0.81147 0.0
C1743 C 0.46128 0.10458 0.74998 0.0
C1744 C 0.45118 0.09168 0.77236 0.0
C1745 C 0.45362 0.09034 0.81488 0.0
C1746 C 0.46721 0.1006 0.83429 0.0
C1747 C 0.44019 0.07766 0.7511 0.0
C1748 C 0.42126 0.07695 0.75808 0.0
C1749 C 0.44866 0.06424 0.72619 0.0
C1750 C 0.46866 0.06442 0.71792 0.0
C1751 C 0.48135 0.06262 0.75014 0.0
C1752 C 0.50018 0.06357 0.74224 0.0
C1753 C 0.50647 0.0661 0.70218 0.0
C1754 C 0.49394 0.06759 0.6699 0.0
C1755 C 0.47509 0.06672 0.67766 0.0
H1756 H 0.52104 0.06687 0.69614 0.0
H1757 H 0.33764 0.06361 0.76555 0.0
H1758 H 0.49675 0.38152 0.24341 0.0
H1759 H 0.47067 0.39902 0.26951 0.0
H1760 H 0.45373 0.41079 0.14537 0.0
H1761 H 0.48033 0.39405 0.1193 0.0
H1762 H 0.45432 0.4405 0.18549 0.0
H1763 H 0.42882 0.38169 0.21308 0.0
H1764 H 0.42777 0.35017 0.24003 0.0
H1765 H 0.43432 0.37058 0.3627 0.0
H1766 H 0.43566 0.40222 0.33644 0.0
H1767 H 0.37318 0.48589 0.24339 0.0
H1768 H 0.39229 0.4608 0.218 0.0
H1769 H 0.41973 0.45782 0.33499 0.0
H1770 H 0.40065 0.48301 0.36071 0.0
H1771 H 0.41173 0.42264 0.29713 0.0
H1772 H 0.43954 0.48138 0.2658 0.0
H1773 H 0.43936 0.51263 0.23715 0.0
H1774 H 0.42682 0.49103 0.11787 0.0
H1775 H 0.42666 0.45965 0.14599 0.0
C1776 C 0.48727 0.3876 0.22175 0.0
C1777 C 0.49056 0.38656 0.1794 0.0
C1778 C 0.47229 0.39751 0.23667 0.0
C1779 C 0.4601 0.40612 0.20942 0.0
C1780 C 0.46296 0.40433 0.167 0.0
C1781 C 0.47813 0.39475 0.15213 0.0
C1782 C 0.44552 0.41849 0.225 0.0
C1783 C 0.44478 0.43638 0.20929 0.0
C1784 C 0.43331 0.41335 0.25678 0.0
C1785 C 0.4325 0.39433 0.27273 0.0
C1786 C 0.43018 0.37945 0.24578 0.0
C1787 C 0.42951 0.36156 0.26094 0.0
C1788 C 0.43102 0.35837 0.30304 0.0
C1789 C 0.43317 0.37307 0.33009 0.0
C1790 C 0.43386 0.39099 0.31508 0.0
C1791 C 0.38312 0.47975 0.2639 0.0
C1792 C 0.3856 0.48651 0.30387 0.0
C1793 C 0.39398 0.46541 0.24937 0.0
C1794 C 0.40745 0.45761 0.27458 0.0
C1795 C 0.40935 0.46369 0.31518 0.0
C1796 C 0.39854 0.47812 0.3297 0.0
C1797 C 0.42067 0.44435 0.25735 0.0
C1798 C 0.42118 0.42647 0.27293 0.0
C1799 C 0.43256 0.44936 0.22508 0.0
C1800 C 0.4329 0.4682 0.20807 0.0
C1801 C 0.43661 0.48331 0.23353 0.0
C1802 C 0.43659 0.50104 0.21738 0.0
C1803 C 0.43303 0.50382 0.17574 0.0
C1804 C 0.42954 0.48886 0.15013 0.0
C1805 C 0.42952 0.4711 0.16615 0.0
H1806 H 0.43301 0.51756 0.16329 0.0
H1807 H 0.43049 0.34451 0.31472 0.0
loop_
_geom_bond_atom_site_label_1
_geom_bond_atom_site_label_2
_geom_bond_distance
_geom_bond_site_symmetry_2
_ccdc_geom_bond_type
In0 O1 2.294 . S
In0 O2 2.326 . S
In0 O6 2.282 . S
In0 O7 2.326 . S
In0 O8 2.266 . S
In0 O9 2.326 . S
In0 O11 2.294 . S
In0 O12 2.326 . S
O1 In0 2.294 . S
O1 C10 1.240 . S
O2 In0 2.326 . S
O2 C10 1.252 . S
C3 O6 1.245 1_655 S
C3 O7 1.260 1_655 S
C4 O11 1.240 . S
C4 O12 1.252 . S
C5 O8 1.252 . S
C5 O9 1.260 . S
O6 In0 2.282 . S
O6 C3 1.245 1_455 S
O7 In0 2.326 . S
O7 C3 1.260 1_455 S
O8 In0 2.266 . S
O8 C5 1.252 . S
O9 In0 2.326 . S
O9 C5 1.260 . S
C10 O1 1.240 . S
C10 O2 1.252 . S
O11 In0 2.294 . S
O11 C4 1.240 . S
O12 In0 2.326 . S
O12 C4 1.252 . S
In13 O14 2.294 . S
In13 O15 2.326 . S
In13 O19 2.266 . S
In13 O20 2.326 . S
In13 O21 2.282 . S
In13 O22 2.326 . S
In13 O24 2.294 . S
In13 O25 2.326 . S
O14 In13 2.294 . S
O14 C23 1.240 . S
O15 In13 2.326 . S
O15 C23 1.252 . S
C16 O19 1.252 . S
C16 O20 1.260 . S
C17 O24 1.240 . S
C17 O25 1.252 . S
C18 O21 1.245 1_565 S
C18 O22 1.260 1_565 S
O19 In13 2.266 . S
O19 C16 1.252 . S
O20 In13 2.326 . S
O20 C16 1.260 . S
O21 In13 2.282 . S
O21 C18 1.245 1_545 S
O22 In13 2.326 . S
O22 C18 1.260 1_545 S
C23 O14 1.240 . S
C23 O15 1.252 . S
O24 In13 2.294 . S
O24 C17 1.240 . S
O25 In13 2.326 . S
O25 C17 1.252 . S
In26 O27 2.294 . S
In26 O28 2.326 . S
In26 O32 2.266 . S
In26 O33 2.326 . S
In26 O34 2.266 . S
In26 O35 2.326 . S
In26 O37 2.294 . S
In26 O38 2.326 . S
O27 In26 2.294 . S
O27 C36 1.240 . S
O28 In26 2.326 . S
O28 C36 1.252 . S
C29 O32 1.252 . S
C29 O33 1.260 . S
C30 O37 1.240 . S
C30 O38 1.252 . S
C31 O34 1.252 . S
C31 O35 1.260 . S
O32 In26 2.266 . S
O32 C29 1.252 . S
O33 In26 2.326 . S
O33 C29 1.260 . S
O34 In26 2.266 . S
O34 C31 1.252 . S
O35 In26 2.326 . S
O35 C31 1.260 . S
C36 O27 1.240 . S
C36 O28 1.252 . S
O37 In26 2.294 . S
O37 C30 1.240 . S
O38 In26 2.326 . S
O38 C30 1.252 . S
In39 O40 2.294 . S
In39 O41 2.326 . S
In39 O45 2.266 . S
In39 O46 2.326 . S
In39 O47 2.266 . S
In39 O48 2.326 . S
In39 O50 2.294 . S
In39 O51 2.326 . S
O40 In39 2.294 . S
O40 C49 1.240 . S
O41 In39 2.326 . S
O41 C49 1.252 . S
C42 O45 1.252 . S
C42 O46 1.260 . S
C43 O50 1.240 . S
C43 O51 1.252 . S
C44 O47 1.252 . S
C44 O48 1.260 . S
O45 In39 2.266 . S
O45 C42 1.252 . S
O46 In39 2.326 . S
O46 C42 1.260 . S
O47 In39 2.266 . S
O47 C44 1.252 . S
O48 In39 2.326 . S
O48 C44 1.260 . S
C49 O40 1.240 . S
C49 O41 1.252 . S
O50 In39 2.294 . S
O50 C43 1.240 . S
O51 In39 2.326 . S
O51 C43 1.252 . S
In52 O53 2.294 . S
In52 O54 2.326 . S
In52 O58 2.282 . S
In52 O59 2.326 . S
In52 O60 2.266 . S
In52 O61 2.326 . S
In52 O63 2.294 . S
In52 O64 2.326 . S
O53 In52 2.294 . S
O53 C62 1.240 . S
O54 In52 2.326 . S
O54 C62 1.252 . S
C55 O58 1.245 1_655 S
C55 O59 1.260 1_655 S
C56 O63 1.240 . S
C56 O64 1.252 . S
C57 O60 1.252 . S
C57 O61 1.260 . S
O58 In52 2.282 . S
O58 C55 1.245 1_455 S
O59 In52 2.326 . S
O59 C55 1.260 1_455 S
O60 In52 2.266 . S
O60 C57 1.252 . S
O61 In52 2.326 . S
O61 C57 1.260 . S
C62 O53 1.240 . S
C62 O54 1.252 . S
O63 In52 2.294 . S
O63 C56 1.240 . S
O64 In52 2.326 . S
O64 C56 1.252 . S
In65 O66 2.294 . S
In65 O67 2.326 . S
In65 O71 2.282 . S
In65 O72 2.326 . S
In65 O73 2.266 . S
In65 O74 2.326 . S
In65 O76 2.294 . S
In65 O77 2.326 . S
O66 In65 2.294 . S
O66 C75 1.240 . S
O67 In65 2.326 . S
O67 C75 1.252 . S
C68 O71 1.245 1_565 S
C68 O72 1.260 1_565 S
C69 O76 1.240 . S
C69 O77 1.252 . S
C70 O73 1.252 . S
C70 O74 1.260 . S
O71 In65 2.282 . S
O71 C68 1.245 1_545 S
O72 In65 2.326 . S
O72 C68 1.260 1_545 S
O73 In65 2.266 . S
O73 C70 1.252 . S
O74 In65 2.326 . S
O74 C70 1.260 . S
C75 O66 1.240 . S
C75 O67 1.252 . S
O76 In65 2.294 . S
O76 C69 1.240 . S
O77 In65 2.326 . S
O77 C69 1.252 . S
In78 O79 2.294 . S
In78 O80 2.326 . S
In78 O84 2.266 . S
In78 O85 2.326 . S
In78 O86 2.266 . S
In78 O87 2.326 . S
In78 O89 2.294 . S
In78 O90 2.326 . S
O79 In78 2.294 . S
O79 C88 1.240 . S
O80 In78 2.326 . S
O80 C88 1.252 . S
C81 O84 1.252 . S
C81 O85 1.260 . S
C82 O89 1.240 . S
C82 O90 1.252 . S
C83 O86 1.252 . S
C83 O87 1.260 . S
O84 In78 2.266 . S
O84 C81 1.252 . S
O85 In78 2.326 . S
O85 C81 1.260 . S
O86 In78 2.266 . S
O86 C83 1.252 . S
O87 In78 2.326 . S
O87 C83 1.260 . S
C88 O79 1.240 . S
C88 O80 1.252 . S
O89 In78 2.294 . S
O89 C82 1.240 . S
O90 In78 2.326 . S
O90 C82 1.252 . S
In91 O92 2.294 . S
In91 O93 2.326 . S
In91 O97 2.266 . S
In91 O98 2.326 . S
In91 O99 2.266 . S
In91 O100 2.326 . S
In91 O102 2.294 . S
In91 O103 2.326 . S
O92 In91 2.294 . S
O92 C101 1.240 . S
O93 In91 2.326 . S
O93 C101 1.252 . S
C94 O97 1.252 . S
C94 O98 1.260 . S
C95 O102 1.240 . S
C95 O103 1.252 . S
C96 O99 1.252 . S
C96 O100 1.260 . S
O97 In91 2.266 . S
O97 C94 1.252 . S
O98 In91 2.326 . S
O98 C94 1.260 . S
O99 In91 2.266 . S
O99 C96 1.252 . S
O100 In91 2.326 . S
O100 C96 1.260 . S
C101 O92 1.240 . S
C101 O93 1.252 . S
O102 In91 2.294 . S
O102 C95 1.240 . S
O103 In91 2.326 . S
O103 C95 1.252 . S
In104 O105 2.294 . S
In104 O106 2.326 . S
In104 O110 2.282 . S
In104 O111 2.326 . S
In104 O112 2.266 . S
In104 O113 2.326 . S
In104 O115 2.294 . S
In104 O116 2.326 . S
O105 In104 2.294 . S
O105 C114 1.240 . S
O106 In104 2.326 . S
O106 C114 1.252 . S
C107 O110 1.245 1_455 S
C107 O111 1.260 1_455 S
C108 O115 1.240 . S
C108 O116 1.252 . S
C109 O112 1.252 . S
C109 O113 1.260 . S
O110 In104 2.282 . S
O110 C107 1.245 1_655 S
O111 In104 2.326 . S
O111 C107 1.260 1_655 S
O112 In104 2.266 . S
O112 C109 1.252 . S
O113 In104 2.326 . S
O113 C109 1.260 . S
C114 O105 1.240 . S
C114 O106 1.252 . S
O115 In104 2.294 . S
O115 C108 1.240 . S
O116 In104 2.326 . S
O116 C108 1.252 . S
In117 O118 2.294 . S
In117 O119 2.326 . S
In117 O123 2.266 . S
In117 O124 2.326 . S
In117 O125 2.282 . S
In117 O126 2.326 . S
In117 O128 2.294 . S
In117 O129 2.326 . S
O118 In117 2.294 . S
O118 C127 1.240 . S
O119 In117 2.326 . S
O119 C127 1.252 . S
C120 O123 1.252 . S
C120 O124 1.260 . S
C121 O128 1.240 . S
C121 O129 1.252 . S
C122 O125 1.245 1_545 S
C122 O126 1.260 1_545 S
O123 In117 2.266 . S
O123 C120 1.252 . S
O124 In117 2.326 . S
O124 C120 1.260 . S
O125 In117 2.282 . S
O125 C122 1.245 1_565 S
O126 In117 2.326 . S
O126 C122 1.260 1_565 S
C127 O118 1.240 . S
C127 O119 1.252 . S
O128 In117 2.294 . S
O128 C121 1.240 . S
O129 In117 2.326 . S
O129 C121 1.252 . S
In130 O131 2.294 . S
In130 O132 2.326 . S
In130 O136 2.266 . S
In130 O137 2.326 . S
In130 O138 2.266 . S
In130 O139 2.326 . S
In130 O141 2.294 . S
In130 O142 2.326 . S
O131 In130 2.294 . S
O131 C140 1.240 . S
O132 In130 2.326 . S
O132 C140 1.252 . S
C133 O136 1.252 . S
C133 O137 1.260 . S
C134 O141 1.240 . S
C134 O142 1.252 . S
C135 O138 1.252 . S
C135 O139 1.260 . S
O136 In130 2.266 . S
O136 C133 1.252 . S
O137 In130 2.326 . S
O137 C133 1.260 . S
O138 In130 2.266 . S
O138 C135 1.252 . S
O139 In130 2.326 . S
O139 C135 1.260 . S
C140 O131 1.240 . S
C140 O132 1.252 . S
O141 In130 2.294 . S
O141 C134 1.240 . S
O142 In130 2.326 . S
O142 C134 1.252 . S
In143 O144 2.294 . S
In143 O145 2.326 . S
In143 O149 2.266 . S
In143 O150 2.326 . S
In143 O151 2.266 . S
In143 O152 2.326 . S
In143 O154 2.294 . S
In143 O155 2.326 . S
O144 In143 2.294 . S
O144 C153 1.240 . S
O145 In143 2.326 . S
O145 C153 1.252 . S
C146 O149 1.252 . S
C146 O150 1.260 . S
C147 O154 1.240 . S
C147 O155 1.252 . S
C148 O151 1.252 . S
C148 O152 1.260 . S
O149 In143 2.266 . S
O149 C146 1.252 . S
O150 In143 2.326 . S
O150 C146 1.260 . S
O151 In143 2.266 . S
O151 C148 1.252 . S
O152 In143 2.326 . S
O152 C148 1.260 . S
C153 O144 1.240 . S
C153 O145 1.252 . S
O154 In143 2.294 . S
O154 C147 1.240 . S
O155 In143 2.326 . S
O155 C147 1.252 . S
In156 O157 2.294 . S
In156 O158 2.326 . S
In156 O162 2.282 . S
In156 O163 2.326 . S
In156 O164 2.266 . S
In156 O165 2.326 . S
In156 O167 2.294 . S
In156 O168 2.326 . S
O157 In156 2.294 . S
O157 C166 1.240 . S
O158 In156 2.326 . S
O158 C166 1.252 . S
C159 O162 1.245 1_455 S
C159 O163 1.260 1_455 S
C160 O167 1.240 . S
C160 O168 1.252 . S
C161 O164 1.252 . S
C161 O165 1.260 . S
O162 In156 2.282 . S
O162 C159 1.245 1_655 S
O163 In156 2.326 . S
O163 C159 1.260 1_655 S
O164 In156 2.266 . S
O164 C161 1.252 . S
O165 In156 2.326 . S
O165 C161 1.260 . S
C166 O157 1.240 . S
C166 O158 1.252 . S
O167 In156 2.294 . S
O167 C160 1.240 . S
O168 In156 2.326 . S
O168 C160 1.252 . S
In169 O170 2.294 . S
In169 O171 2.326 . S
In169 O175 2.282 . S
In169 O176 2.326 . S
In169 O177 2.266 . S
In169 O178 2.326 . S
In169 O180 2.294 . S
In169 O181 2.326 . S
O170 In169 2.294 . S
O170 C179 1.240 . S
O171 In169 2.326 . S
O171 C179 1.252 . S
C172 O175 1.245 1_545 S
C172 O176 1.260 1_545 S
C173 O180 1.240 . S
C173 O181 1.252 . S
C174 O177 1.252 . S
C174 O178 1.260 . S
O175 In169 2.282 . S
O175 C172 1.245 1_565 S
O176 In169 2.326 . S
O176 C172 1.260 1_565 S
O177 In169 2.266 . S
O177 C174 1.252 . S
O178 In169 2.326 . S
O178 C174 1.260 . S
C179 O170 1.240 . S
C179 O171 1.252 . S
O180 In169 2.294 . S
O180 C173 1.240 . S
O181 In169 2.326 . S
O181 C173 1.252 . S
In182 O183 2.294 . S
In182 O184 2.326 . S
In182 O188 2.266 . S
In182 O189 2.326 . S
In182 O190 2.266 . S
In182 O191 2.326 . S
In182 O193 2.294 . S
In182 O194 2.326 . S
O183 In182 2.294 . S
O183 C192 1.240 . S
O184 In182 2.326 . S
O184 C192 1.252 . S
C185 O188 1.252 . S
C185 O189 1.260 . S
C186 O193 1.240 . S
C186 O194 1.252 . S
C187 O190 1.252 . S
C187 O191 1.260 . S
O188 In182 2.266 . S
O188 C185 1.252 . S
O189 In182 2.326 . S
O189 C185 1.260 . S
O190 In182 2.266 . S
O190 C187 1.252 . S
O191 In182 2.326 . S
O191 C187 1.260 . S
C192 O183 1.240 . S
C192 O184 1.252 . S
O193 In182 2.294 . S
O193 C186 1.240 . S
O194 In182 2.326 . S
O194 C186 1.252 . S
In195 O196 2.294 . S
In195 O197 2.326 . S
In195 O201 2.266 . S
In195 O202 2.326 . S
In195 O203 2.266 . S
In195 O204 2.326 . S
In195 O206 2.294 . S
In195 O207 2.326 . S
O196 In195 2.294 . S
O196 C205 1.240 . S
O197 In195 2.326 . S
O197 C205 1.252 . S
C198 O201 1.252 . S
C198 O202 1.260 . S
C199 O206 1.240 . S
C199 O207 1.252 . S
C200 O203 1.252 . S
C200 O204 1.260 . S
O201 In195 2.266 . S
O201 C198 1.252 . S
O202 In195 2.326 . S
O202 C198 1.260 . S
O203 In195 2.266 . S
O203 C200 1.252 . S
O204 In195 2.326 . S
O204 C200 1.260 . S
C205 O196 1.240 . S
C205 O197 1.252 . S
O206 In195 2.294 . S
O206 C199 1.240 . S
O207 In195 2.326 . S
O207 C199 1.252 . S
H208 C226 0.951 . S
H209 C228 0.951 1_556 S
H210 C230 0.950 . S
H211 C231 0.950 . S
H212 C233 0.950 . S
H213 C236 0.950 1_554 S
H214 C237 0.950 . S
H215 C239 0.950 . S
H216 C240 0.950 . S
H217 C241 0.951 . S
H218 C243 0.951 1_554 S
H219 C245 0.950 . S
H220 C246 0.950 . S
H221 C248 0.950 . S
H222 C251 0.950 1_556 S
H223 C252 0.950 . S
H224 C254 0.950 . S
H225 C255 0.950 1_455 S
C226 H208 0.951 . S
C226 C227 1.366 . S
C226 C228 1.388 . S
C227 C226 1.366 . S
C227 C231 1.385 . S
C228 H209 0.951 1_554 S
C228 C226 1.388 . S
C228 C229 1.366 . S
C229 C228 1.366 . S
C229 C230 1.414 . S
C229 C232 1.499 . S
C230 H210 0.950 . S
C230 C229 1.414 . S
C230 C231 1.374 . S
C231 H211 0.950 . S
C231 C227 1.385 . S
C231 C230 1.374 . S
C232 C229 1.499 . S
C232 C233 1.373 . S
C232 C234 1.389 1_554 S
C233 H212 0.950 . S
C233 C232 1.373 . S
C233 C249 1.377 . S
C234 C232 1.389 1_556 S
C234 C235 1.524 . S
C234 C248 1.377 . S
C235 C234 1.524 . S
C235 C236 1.397 . S
C235 C240 1.363 . S
C236 H213 0.950 1_556 S
C236 C235 1.397 . S
C236 C237 1.334 . S
C237 H214 0.950 . S
C237 C236 1.334 . S
C237 C238 1.287 . S
C238 C237 1.287 . S
C238 C239 1.524 . S
C238 H257 0.913 . S
C239 H215 0.950 . S
C239 C238 1.524 . S
C239 C240 1.415 . S
C240 H216 0.950 . S
C240 C235 1.363 . S
C240 C239 1.415 . S
C241 H217 0.951 . S
C241 C242 1.366 . S
C241 C243 1.388 . S
C242 C241 1.366 . S
C242 C246 1.385 . S
C243 H218 0.951 1_556 S
C243 C241 1.388 . S
C243 C244 1.366 . S
C244 C243 1.366 . S
C244 C245 1.414 . S
C244 C247 1.499 . S
C245 H219 0.950 . S
C245 C244 1.414 . S
C245 C246 1.374 . S
C246 H220 0.950 . S
C246 C242 1.385 . S
C246 C245 1.374 . S
C247 C244 1.499 . S
C247 C248 1.373 . S
C247 C249 1.389 1_556 S
C248 H221 0.950 . S
C248 C234 1.377 . S
C248 C247 1.373 . S
C249 C233 1.377 . S
C249 C247 1.389 1_554 S
C249 C250 1.524 1_455 S
C250 C249 1.524 1_655 S
C250 C251 1.397 . S
C250 C255 1.363 . S
C251 H222 0.950 1_554 S
C251 C250 1.397 . S
C251 C252 1.334 . S
C252 H223 0.950 . S
C252 C251 1.334 . S
C252 C253 1.287 . S
C253 C252 1.287 . S
C253 C254 1.524 . S
C253 H256 0.999 . S
C254 H224 0.950 . S
C254 C253 1.524 . S
C254 C255 1.415 . S
C255 H225 0.950 1_655 S
C255 C250 1.363 . S
C255 C254 1.415 . S
H256 C253 0.999 . S
H257 C238 0.913 . S
H258 C276 0.951 . S
H259 C278 0.951 . S
H260 C280 0.950 . S
H261 C281 0.950 . S
H262 C283 0.951 . S
H263 C286 0.950 . S
H264 C287 0.950 . S
H265 C289 0.950 . S
H266 C290 0.950 . S
H267 C291 0.951 . S
H268 C293 0.951 . S
H269 C295 0.950 . S
H270 C296 0.950 . S
H271 C298 0.950 . S
H272 C301 0.950 . S
H273 C302 0.950 . S
H274 C304 0.950 . S
H275 C305 0.950 1_545 S
C276 H258 0.951 . S
C276 C277 1.366 . S
C276 C278 1.388 . S
C277 C276 1.366 . S
C277 C281 1.385 . S
C278 H259 0.951 . S
C278 C276 1.388 . S
C278 C279 1.366 . S
C279 C278 1.366 . S
C279 C280 1.414 . S
C279 C282 1.499 . S
C280 H260 0.950 . S
C280 C279 1.414 . S
C280 C281 1.374 . S
C281 H261 0.950 . S
C281 C277 1.385 . S
C281 C280 1.374 . S
C282 C279 1.499 . S
C282 C283 1.373 . S
C282 C284 1.389 . S
C283 H262 0.951 . S
C283 C282 1.373 . S
C283 C299 1.377 . S
C284 C282 1.389 . S
C284 C285 1.524 . S
C284 C298 1.377 . S
C285 C284 1.524 . S
C285 C286 1.397 . S
C285 C290 1.363 . S
C286 H263 0.950 . S
C286 C285 1.397 . S
C286 C287 1.334 . S
C287 H264 0.950 . S
C287 C286 1.334 . S
C287 C288 1.287 . S
C288 C287 1.287 . S
C288 C289 1.524 . S
C288 H307 0.913 . S
C289 H265 0.950 . S
C289 C288 1.524 . S
C289 C290 1.415 . S
C290 H266 0.950 . S
C290 C285 1.363 . S
C290 C289 1.415 . S
C291 H267 0.951 . S
C291 C292 1.366 . S
C291 C293 1.388 . S
C292 C291 1.366 . S
C292 C296 1.385 . S
C293 H268 0.951 . S
C293 C291 1.388 . S
C293 C294 1.366 . S
C294 C293 1.366 . S
C294 C295 1.414 . S
C294 C297 1.499 . S
C295 H269 0.950 . S
C295 C294 1.414 . S
C295 C296 1.374 . S
C296 H270 0.950 . S
C296 C292 1.385 . S
C296 C295 1.374 . S
C297 C294 1.499 . S
C297 C298 1.373 . S
C297 C299 1.389 . S
C298 H271 0.950 . S
C298 C284 1.377 . S
C298 C297 1.373 . S
C299 C283 1.377 . S
C299 C297 1.389 . S
C299 C300 1.524 1_545 S
C300 C299 1.524 1_565 S
C300 C301 1.397 . S
C300 C305 1.363 . S
C301 H272 0.950 . S
C301 C300 1.397 . S
C301 C302 1.334 . S
C302 H273 0.950 . S
C302 C301 1.334 . S
C302 C303 1.287 . S
C303 C302 1.287 . S
C303 C304 1.524 . S
C303 H306 0.999 . S
C304 H274 0.950 . S
C304 C303 1.524 . S
C304 C305 1.415 . S
C305 H275 0.950 1_565 S
C305 C300 1.363 . S
C305 C304 1.415 . S
H306 C303 0.999 . S
H307 C288 0.913 . S
H308 C326 0.951 . S
H309 C328 0.951 . S
H310 C330 0.950 1_556 S
H311 C331 0.950 . S
H312 C333 0.950 . S
H313 C336 0.950 . S
H314 C337 0.950 . S
H315 C339 0.950 . S
H316 C340 0.950 . S
H317 C341 0.951 . S
H318 C343 0.951 . S
H319 C345 0.950 1_554 S
H320 C346 0.950 . S
H321 C348 0.950 . S
H322 C351 0.950 . S
H323 C352 0.950 . S
H324 C354 0.950 . S
H325 C355 0.950 . S
C326 H308 0.951 . S
C326 C327 1.366 . S
C326 C328 1.388 . S
C327 C326 1.366 . S
C327 C331 1.385 . S
C328 H309 0.951 . S
C328 C326 1.388 . S
C328 C329 1.366 . S
C329 C328 1.366 . S
C329 C330 1.414 . S
C329 C332 1.499 . S
C330 H310 0.950 1_554 S
C330 C329 1.414 . S
C330 C331 1.374 . S
C331 H311 0.950 . S
C331 C327 1.385 . S
C331 C330 1.374 . S
C332 C329 1.499 . S
C332 C333 1.373 . S
C332 C334 1.389 . S
C333 H312 0.950 . S
C333 C332 1.373 . S
C333 C349 1.377 1_554 S
C334 C332 1.389 . S
C334 C335 1.524 . S
C334 C348 1.377 1_554 S
C335 C334 1.524 . S
C335 C336 1.397 1_554 S
C335 C340 1.363 . S
C336 H313 0.950 . S
C336 C335 1.397 1_556 S
C336 C337 1.334 . S
C337 H314 0.950 . S
C337 C336 1.334 . S
C337 C338 1.287 1_556 S
C338 C337 1.287 1_554 S
C338 C339 1.524 . S
C338 H357 0.913 . S
C339 H315 0.950 . S
C339 C338 1.524 . S
C339 C340 1.415 . S
C340 H316 0.950 . S
C340 C335 1.363 . S
C340 C339 1.415 . S
C341 H317 0.951 . S
C341 C342 1.366 . S
C341 C343 1.388 . S
C342 C341 1.366 . S
C342 C346 1.385 . S
C343 H318 0.951 . S
C343 C341 1.388 . S
C343 C344 1.366 . S
C344 C343 1.366 . S
C344 C345 1.414 . S
C344 C347 1.499 . S
C345 H319 0.950 1_556 S
C345 C344 1.414 . S
C345 C346 1.374 . S
C346 H320 0.950 . S
C346 C342 1.385 . S
C346 C345 1.374 . S
C347 C344 1.499 . S
C347 C348 1.373 . S
C347 C349 1.389 . S
C348 H321 0.950 . S
C348 C334 1.377 1_556 S
C348 C347 1.373 . S
C349 C333 1.377 1_556 S
C349 C347 1.389 . S
C349 C350 1.524 . S
C350 C349 1.524 . S
C350 C351 1.397 1_556 S
C350 C355 1.363 . S
C351 H322 0.950 . S
C351 C350 1.397 1_554 S
C351 C352 1.334 . S
C352 H323 0.950 . S
C352 C351 1.334 . S
C352 C353 1.287 1_554 S
C353 C352 1.287 1_556 S
C353 C354 1.524 . S
C353 H356 0.999 . S
C354 H324 0.950 . S
C354 C353 1.524 . S
C354 C355 1.415 . S
C355 H325 0.950 . S
C355 C350 1.363 . S
C355 C354 1.415 . S
H356 C353 0.999 . S
H357 C338 0.913 . S
H358 C376 0.951 . S
H359 C378 0.951 . S
H360 C380 0.950 . S
H361 C381 0.950 . S
H362 C383 0.950 . S
H363 C386 0.950 . S
H364 C387 0.950 . S
H365 C389 0.950 . S
H366 C390 0.950 . S
H367 C391 0.951 . S
H368 C393 0.951 . S
H369 C395 0.950 . S
H370 C396 0.950 . S
H371 C398 0.950 . S
H372 C401 0.950 . S
H373 C402 0.950 . S
H374 C404 0.950 . S
H375 C405 0.950 . S
C376 H358 0.951 . S
C376 C377 1.366 . S
C376 C378 1.388 . S
C377 C376 1.366 . S
C377 C381 1.385 . S
C378 H359 0.951 . S
C378 C376 1.388 . S
C378 C379 1.366 . S
C379 C378 1.366 . S
C379 C380 1.414 . S
C379 C382 1.499 . S
C380 H360 0.950 . S
C380 C379 1.414 . S
C380 C381 1.374 . S
C381 H361 0.950 . S
C381 C377 1.385 . S
C381 C380 1.374 . S
C382 C379 1.499 . S
C382 C383 1.373 . S
C382 C384 1.389 . S
C383 H362 0.950 . S
C383 C382 1.373 . S
C383 C399 1.377 . S
C384 C382 1.389 . S
C384 C385 1.524 . S
C384 C398 1.377 . S
C385 C384 1.524 . S
C385 C386 1.397 . S
C385 C390 1.363 . S
C386 H363 0.950 . S
C386 C385 1.397 . S
C386 C387 1.334 . S
C387 H364 0.950 . S
C387 C386 1.334 . S
C387 C388 1.287 . S
C388 C387 1.287 . S
C388 C389 1.524 . S
C388 H407 0.913 . S
C389 H365 0.950 . S
C389 C388 1.524 . S
C389 C390 1.415 . S
C390 H366 0.950 . S
C390 C385 1.363 . S
C390 C389 1.415 . S
C391 H367 0.951 . S
C391 C392 1.366 . S
C391 C393 1.388 . S
C392 C391 1.366 . S
C392 C396 1.385 . S
C393 H368 0.951 . S
C393 C391 1.388 . S
C393 C394 1.366 . S
C394 C393 1.366 . S
C394 C395 1.414 . S
C394 C397 1.499 . S
C395 H369 0.950 . S
C395 C394 1.414 . S
C395 C396 1.374 . S
C396 H370 0.950 . S
C396 C392 1.385 . S
C396 C395 1.374 . S
C397 C394 1.499 . S
C397 C398 1.373 . S
C397 C399 1.389 . S
C398 H371 0.950 . S
C398 C384 1.377 . S
C398 C397 1.373 . S
C399 C383 1.377 . S
C399 C397 1.389 . S
C399 C400 1.524 . S
C400 C399 1.524 . S
C400 C401 1.397 . S
C400 C405 1.363 . S
C401 H372 0.950 . S
C401 C400 1.397 . S
C401 C402 1.334 . S
C402 H373 0.950 . S
C402 C401 1.334 . S
C402 C403 1.287 . S
C403 C402 1.287 . S
C403 C404 1.524 . S
C403 H406 0.999 . S
C404 H374 0.950 . S
C404 C403 1.524 . S
C404 C405 1.415 . S
C405 H375 0.950 . S
C405 C400 1.363 . S
C405 C404 1.415 . S
H406 C403 0.999 . S
H407 C388 0.913 . S
H408 C426 0.955 . S
H409 C428 0.950 . S
H410 C430 0.950 . S
H411 C431 0.950 . S
H412 C433 0.950 . S
H413 C436 0.950 . S
H414 C437 0.952 . S
H415 C439 0.950 . S
H416 C440 0.950 . S
H417 C441 0.951 . S
H418 C443 0.951 . S
H419 C445 0.996 . S
H420 C446 0.981 . S
H421 C448 0.950 1_455 S
H422 C451 0.950 . S
H423 C452 0.950 . S
H424 C454 0.950 . S
H425 C455 0.950 . S
C426 H408 0.955 . S
C426 C427 1.362 1_455 S
C426 C428 1.388 . S
C427 C426 1.362 1_655 S
C427 C431 1.385 . S
C428 H409 0.950 . S
C428 C426 1.388 . S
C428 C429 1.366 1_455 S
C429 C428 1.366 1_655 S
C429 C430 1.414 . S
C429 C432 1.499 . S
C430 H410 0.950 . S
C430 C429 1.414 . S
C430 C431 1.374 . S
C431 H411 0.950 . S
C431 C427 1.385 . S
C431 C430 1.374 . S
C432 C429 1.499 . S
C432 C433 1.373 1_556 S
C432 C434 1.389 . S
C433 H412 0.950 . S
C433 C432 1.373 1_554 S
C433 C449 1.377 . S
C434 C432 1.389 . S
C434 C435 1.524 1_655 S
C434 C448 1.377 . S
C435 C434 1.524 1_455 S
C435 C436 1.397 1_455 S
C435 C440 1.363 . S
C436 H413 0.950 . S
C436 C435 1.397 1_655 S
C436 C437 1.336 . S
C437 H414 0.952 . S
C437 C436 1.336 . S
C437 C438 1.283 1_655 S
C438 C437 1.283 1_455 S
C438 C439 1.524 . S
C438 H457 0.913 . S
C439 H415 0.950 . S
C439 C438 1.524 . S
C439 C440 1.415 . S
C440 H416 0.950 . S
C440 C435 1.363 . S
C440 C439 1.415 . S
C441 H417 0.951 . S
C441 C442 1.366 . S
C441 C443 1.388 . S
C442 C441 1.366 . S
C442 C446 1.353 1_655 S
C443 H418 0.951 . S
C443 C441 1.388 . S
C443 C444 1.366 . S
C444 C443 1.366 . S
C444 C445 1.370 1_655 S
C444 C447 1.499 . S
C445 H419 0.996 . S
C445 C444 1.370 1_455 S
C445 C446 1.374 . S
C446 H420 0.981 . S
C446 C442 1.353 1_455 S
C446 C445 1.374 . S
C447 C444 1.499 . S
C447 C448 1.373 1_554 S
C447 C449 1.389 . S
C448 H421 0.950 1_655 S
C448 C434 1.377 . S
C448 C447 1.373 1_556 S
C449 C433 1.377 . S
C449 C447 1.389 . S
C449 C450 1.524 . S
C450 C449 1.524 . S
C450 C451 1.397 . S
C450 C455 1.363 . S
C451 H422 0.950 . S
C451 C450 1.397 . S
C451 C452 1.334 . S
C452 H423 0.950 . S
C452 C451 1.334 . S
C452 C453 1.287 . S
C453 C452 1.287 . S
C453 C454 1.524 . S
C453 H456 0.999 . S
C454 H424 0.950 . S
C454 C453 1.524 . S
C454 C455 1.415 . S
C455 H425 0.950 . S
C455 C450 1.363 . S
C455 C454 1.415 . S
H456 C453 0.999 . S
H457 C438 0.913 . S
H458 C476 0.951 . S
H459 C478 0.951 . S
H460 C480 0.950 . S
H461 C481 0.950 . S
H462 C483 0.919 1_545 S
H463 C486 0.950 . S
H464 C487 0.950 . S
H465 C489 0.950 . S
H466 C490 0.950 . S
H467 C491 0.951 . S
H468 C493 0.951 . S
H469 C495 0.950 . S
H470 C496 0.950 . S
H471 C498 0.950 . S
H472 C501 0.950 . S
H473 C502 0.950 . S
H474 C504 0.950 . S
H475 C505 0.950 . S
C476 H458 0.951 . S
C476 C477 1.366 . S
C476 C478 1.388 . S
C477 C476 1.366 . S
C477 C481 1.385 . S
C478 H459 0.951 . S
C478 C476 1.388 . S
C478 C479 1.366 . S
C479 C478 1.366 . S
C479 C480 1.414 . S
C479 C482 1.499 . S
C480 H460 0.950 . S
C480 C479 1.414 . S
C480 C481 1.374 . S
C481 H461 0.950 . S
C481 C477 1.385 . S
C481 C480 1.374 . S
C482 C479 1.499 . S
C482 C483 1.406 . S
C482 C484 1.389 . S
C483 H462 0.919 1_565 S
C483 C482 1.406 . S
C483 C499 1.376 1_565 S
C484 C482 1.389 . S
C484 C485 1.524 . S
C484 C498 1.377 . S
C485 C484 1.524 . S
C485 C486 1.397 . S
C485 C490 1.363 . S
C486 H463 0.950 . S
C486 C485 1.397 . S
C486 C487 1.334 . S
C487 H464 0.950 . S
C487 C486 1.334 . S
C487 C488 1.287 . S
C488 C487 1.287 . S
C488 C489 1.524 . S
C488 H507 0.913 . S
C489 H465 0.950 . S
C489 C488 1.524 . S
C489 C490 1.415 . S
C490 H466 0.950 . S
C490 C485 1.363 . S
C490 C489 1.415 . S
C491 H467 0.951 . S
C491 C492 1.366 . S
C491 C493 1.388 . S
C492 C491 1.366 . S
C492 C496 1.385 . S
C493 H468 0.951 . S
C493 C491 1.388 . S
C493 C494 1.366 . S
C494 C493 1.366 . S
C494 C495 1.414 . S
C494 C497 1.499 . S
C495 H469 0.950 . S
C495 C494 1.414 . S
C495 C496 1.374 . S
C496 H470 0.950 . S
C496 C492 1.385 . S
C496 C495 1.374 . S
C497 C494 1.499 . S
C497 C498 1.373 . S
C497 C499 1.389 1_565 S
C498 H471 0.950 . S
C498 C484 1.377 . S
C498 C497 1.373 . S
C499 C483 1.376 1_545 S
C499 C497 1.389 1_545 S
C499 C500 1.525 . S
C500 C499 1.525 . S
C500 C501 1.397 . S
C500 C505 1.363 . S
C501 H472 0.950 . S
C501 C500 1.397 . S
C501 C502 1.334 . S
C502 H473 0.950 . S
C502 C501 1.334 . S
C502 C503 1.287 . S
C503 C502 1.287 . S
C503 C504 1.524 . S
C503 H506 0.999 . S
C504 H474 0.950 . S
C504 C503 1.524 . S
C504 C505 1.415 . S
C505 H475 0.950 . S
C505 C500 1.363 . S
C505 C504 1.415 . S
H506 C503 0.999 . S
H507 C488 0.913 . S
H508 C526 0.951 . S
H509 C528 0.951 . S
H510 C530 0.950 1_554 S
H511 C531 0.950 . S
H512 C533 0.950 . S
H513 C536 0.954 . S
H514 C537 0.950 . S
H515 C539 0.950 . S
H516 C540 0.950 . S
H517 C541 0.951 . S
H518 C543 0.951 . S
H519 C545 0.950 1_556 S
H520 C546 0.950 . S
H521 C548 0.950 . S
H522 C551 0.953 . S
H523 C552 0.950 . S
H524 C554 0.950 . S
H525 C555 0.950 . S
C526 H508 0.951 . S
C526 C527 1.366 . S
C526 C528 1.388 . S
C527 C526 1.366 . S
C527 C531 1.385 . S
C528 H509 0.951 . S
C528 C526 1.388 . S
C528 C529 1.366 . S
C529 C528 1.366 . S
C529 C530 1.414 . S
C529 C532 1.499 . S
C530 H510 0.950 1_556 S
C530 C529 1.414 . S
C530 C531 1.374 . S
C531 H511 0.950 . S
C531 C527 1.385 . S
C531 C530 1.374 . S
C532 C529 1.499 . S
C532 C533 1.373 1_556 S
C532 C534 1.389 . S
C533 H512 0.950 . S
C533 C532 1.373 1_554 S
C533 C549 1.377 . S
C534 C532 1.389 . S
C534 C535 1.524 . S
C534 C548 1.377 . S
C535 C534 1.524 . S
C535 C536 1.397 . S
C535 C540 1.363 . S
C536 H513 0.954 . S
C536 C535 1.397 . S
C536 C537 1.334 . S
C537 H514 0.950 . S
C537 C536 1.334 . S
C537 C538 1.287 . S
C538 C537 1.287 . S
C538 C539 1.524 . S
C538 H557 0.913 . S
C539 H515 0.950 . S
C539 C538 1.524 . S
C539 C540 1.415 . S
C540 H516 0.950 . S
C540 C535 1.363 . S
C540 C539 1.415 . S
C541 H517 0.951 . S
C541 C542 1.366 . S
C541 C543 1.388 . S
C542 C541 1.366 . S
C542 C546 1.385 . S
C543 H518 0.951 . S
C543 C541 1.388 . S
C543 C544 1.366 . S
C544 C543 1.366 . S
C544 C545 1.414 . S
C544 C547 1.499 . S
C545 H519 0.950 1_554 S
C545 C544 1.414 . S
C545 C546 1.374 . S
C546 H520 0.950 . S
C546 C542 1.385 . S
C546 C545 1.374 . S
C547 C544 1.499 . S
C547 C548 1.373 1_554 S
C547 C549 1.389 . S
C548 H521 0.950 . S
C548 C534 1.377 . S
C548 C547 1.373 1_556 S
C549 C533 1.377 . S
C549 C547 1.389 . S
C549 C550 1.524 . S
C550 C549 1.524 . S
C550 C551 1.397 . S
C550 C555 1.363 . S
C551 H522 0.953 . S
C551 C550 1.397 . S
C551 C552 1.334 . S
C552 H523 0.950 . S
C552 C551 1.334 . S
C552 C553 1.287 . S
C553 C552 1.287 . S
C553 C554 1.524 . S
C553 H556 0.999 . S
C554 H524 0.950 . S
C554 C553 1.524 . S
C554 C555 1.415 . S
C555 H525 0.950 . S
C555 C550 1.363 . S
C555 C554 1.415 . S
H556 C553 0.999 . S
H557 C538 0.913 . S
H558 C576 0.951 . S
H559 C578 0.951 . S
H560 C580 0.950 . S
H561 C581 0.950 . S
H562 C583 0.950 . S
H563 C586 0.950 . S
H564 C587 0.950 . S
H565 C589 0.950 . S
H566 C590 0.950 . S
H567 C591 0.951 . S
H568 C593 0.951 . S
H569 C595 0.950 . S
H570 C596 0.950 . S
H571 C598 0.950 . S
H572 C601 0.950 . S
H573 C602 0.950 . S
H574 C604 0.950 . S
H575 C605 0.950 . S
C576 H558 0.951 . S
C576 C577 1.366 . S
C576 C578 1.388 . S
C577 C576 1.366 . S
C577 C581 1.385 . S
C578 H559 0.951 . S
C578 C576 1.388 . S
C578 C579 1.366 . S
C579 C578 1.366 . S
C579 C580 1.414 . S
C579 C582 1.499 . S
C580 H560 0.950 . S
C580 C579 1.414 . S
C580 C581 1.374 . S
C581 H561 0.950 . S
C581 C577 1.385 . S
C581 C580 1.374 . S
C582 C579 1.499 . S
C582 C583 1.373 . S
C582 C584 1.389 . S
C583 H562 0.950 . S
C583 C582 1.373 . S
C583 C599 1.377 . S
C584 C582 1.389 . S
C584 C585 1.524 . S
C584 C598 1.377 . S
C585 C584 1.524 . S
C585 C586 1.397 . S
C585 C590 1.363 . S
C586 H563 0.950 . S
C586 C585 1.397 . S
C586 C587 1.334 . S
C587 H564 0.950 . S
C587 C586 1.334 . S
C587 C588 1.287 . S
C588 C587 1.287 . S
C588 C589 1.524 . S
C588 H607 0.913 . S
C589 H565 0.950 . S
C589 C588 1.524 . S
C589 C590 1.415 . S
C590 H566 0.950 . S
C590 C585 1.363 . S
C590 C589 1.415 . S
C591 H567 0.951 . S
C591 C592 1.366 . S
C591 C593 1.388 . S
C592 C591 1.366 . S
C592 C596 1.385 . S
C593 H568 0.951 . S
C593 C591 1.388 . S
C593 C594 1.366 . S
C594 C593 1.366 . S
C594 C595 1.414 . S
C594 C597 1.499 . S
C595 H569 0.950 . S
C595 C594 1.414 . S
C595 C596 1.374 . S
C596 H570 0.950 . S
C596 C592 1.385 . S
C596 C595 1.374 . S
C597 C594 1.499 . S
C597 C598 1.373 . S
C597 C599 1.389 . S
C598 H571 0.950 . S
C598 C584 1.377 . S
C598 C597 1.373 . S
C599 C583 1.377 . S
C599 C597 1.389 . S
C599 C600 1.524 . S
C600 C599 1.524 . S
C600 C601 1.397 . S
C600 C605 1.363 . S
C601 H572 0.950 . S
C601 C600 1.397 . S
C601 C602 1.334 . S
C602 H573 0.950 . S
C602 C601 1.334 . S
C602 C603 1.287 . S
C603 C602 1.287 . S
C603 C604 1.524 . S
C603 H606 0.999 . S
C604 H574 0.950 . S
C604 C603 1.524 . S
C604 C605 1.415 . S
C605 H575 0.950 . S
C605 C600 1.363 . S
C605 C604 1.415 . S
H606 C603 0.999 . S
H607 C588 0.913 . S
H608 C626 0.951 . S
H609 C628 0.951 . S
H610 C630 0.950 . S
H611 C631 0.950 . S
H612 C633 0.950 . S
H613 C636 0.950 . S
H614 C637 0.950 . S
H615 C639 0.950 . S
H616 C640 0.950 . S
H617 C641 0.951 . S
H618 C643 0.951 . S
H619 C645 0.950 . S
H620 C646 0.950 . S
H621 C648 0.950 . S
H622 C651 0.950 . S
H623 C652 0.950 . S
H624 C654 0.950 . S
H625 C655 0.950 . S
C626 H608 0.951 . S
C626 C627 1.366 . S
C626 C628 1.388 1_554 S
C627 C626 1.366 . S
C627 C631 1.385 1_554 S
C628 H609 0.951 . S
C628 C626 1.388 1_556 S
C628 C629 1.366 . S
C629 C628 1.366 . S
C629 C630 1.414 . S
C629 C632 1.499 . S
C630 H610 0.950 . S
C630 C629 1.414 . S
C630 C631 1.374 . S
C631 H611 0.950 . S
C631 C627 1.385 1_556 S
C631 C630 1.374 . S
C632 C629 1.499 . S
C632 C633 1.373 . S
C632 C634 1.389 . S
C633 H612 0.950 . S
C633 C632 1.373 . S
C633 C649 1.377 . S
C634 C632 1.389 . S
C634 C635 1.524 . S
C634 C648 1.377 . S
C635 C634 1.524 . S
C635 C636 1.397 . S
C635 C640 1.363 . S
C636 H613 0.950 . S
C636 C635 1.397 . S
C636 C637 1.334 . S
C637 H614 0.950 . S
C637 C636 1.334 . S
C637 C638 1.287 . S
C638 C637 1.287 . S
C638 C639 1.524 . S
C638 H657 0.913 . S
C639 H615 0.950 . S
C639 C638 1.524 . S
C639 C640 1.415 . S
C640 H616 0.950 . S
C640 C635 1.363 . S
C640 C639 1.415 . S
C641 H617 0.951 . S
C641 C642 1.366 . S
C641 C643 1.388 . S
C642 C641 1.366 . S
C642 C646 1.385 . S
C643 H618 0.951 . S
C643 C641 1.388 . S
C643 C644 1.366 . S
C644 C643 1.366 . S
C644 C645 1.414 . S
C644 C647 1.499 . S
C645 H619 0.950 . S
C645 C644 1.414 . S
C645 C646 1.374 . S
C646 H620 0.950 . S
C646 C642 1.385 . S
C646 C645 1.374 . S
C647 C644 1.499 . S
C647 C648 1.373 . S
C647 C649 1.389 . S
C648 H621 0.950 . S
C648 C634 1.377 . S
C648 C647 1.373 . S
C649 C633 1.377 . S
C649 C647 1.389 . S
C649 C650 1.524 . S
C650 C649 1.524 . S
C650 C651 1.397 . S
C650 C655 1.363 . S
C651 H622 0.950 . S
C651 C650 1.397 . S
C651 C652 1.334 . S
C652 H623 0.950 . S
C652 C651 1.334 . S
C652 C653 1.287 . S
C653 C652 1.287 . S
C653 C654 1.524 . S
C653 H656 0.999 . S
C654 H624 0.950 . S
C654 C653 1.524 . S
C654 C655 1.415 . S
C655 H625 0.950 . S
C655 C650 1.363 . S
C655 C654 1.415 . S
H656 C653 0.999 . S
H657 C638 0.913 . S
H658 C676 0.951 . S
H659 C678 0.951 . S
H660 C680 0.950 . S
H661 C681 0.950 . S
H662 C683 0.950 . S
H663 C686 0.950 . S
H664 C687 0.950 . S
H665 C689 0.950 . S
H666 C690 0.950 . S
H667 C691 0.951 . S
H668 C693 0.951 . S
H669 C695 0.950 . S
H670 C696 0.950 . S
H671 C698 0.950 . S
H672 C701 0.950 . S
H673 C702 0.950 . S
H674 C704 0.950 . S
H675 C705 0.950 . S
C676 H658 0.951 . S
C676 C677 1.366 . S
C676 C678 1.388 . S
C677 C676 1.366 . S
C677 C681 1.385 . S
C678 H659 0.951 . S
C678 C676 1.388 . S
C678 C679 1.366 . S
C679 C678 1.366 . S
C679 C680 1.414 . S
C679 C682 1.499 . S
C680 H660 0.950 . S
C680 C679 1.414 . S
C680 C681 1.374 . S
C681 H661 0.950 . S
C681 C677 1.385 . S
C681 C680 1.374 . S
C682 C679 1.499 . S
C682 C683 1.373 . S
C682 C684 1.389 . S
C683 H662 0.950 . S
C683 C682 1.373 . S
C683 C699 1.377 . S
C684 C682 1.389 . S
C684 C685 1.524 . S
C684 C698 1.377 . S
C685 C684 1.524 . S
C685 C686 1.397 . S
C685 C690 1.363 . S
C686 H663 0.950 . S
C686 C685 1.397 . S
C686 C687 1.334 . S
C687 H664 0.950 . S
C687 C686 1.334 . S
C687 C688 1.287 . S
C688 C687 1.287 . S
C688 C689 1.524 . S
C688 H707 0.913 . S
C689 H665 0.950 . S
C689 C688 1.524 . S
C689 C690 1.415 . S
C690 H666 0.950 . S
C690 C685 1.363 . S
C690 C689 1.415 . S
C691 H667 0.951 . S
C691 C692 1.366 . S
C691 C693 1.388 . S
C692 C691 1.366 . S
C692 C696 1.385 . S
C693 H668 0.951 . S
C693 C691 1.388 . S
C693 C694 1.366 . S
C694 C693 1.366 . S
C694 C695 1.414 . S
C694 C697 1.499 . S
C695 H669 0.950 . S
C695 C694 1.414 . S
C695 C696 1.374 . S
C696 H670 0.950 . S
C696 C692 1.385 . S
C696 C695 1.374 . S
C697 C694 1.499 . S
C697 C698 1.373 . S
C697 C699 1.389 . S
C698 H671 0.950 . S
C698 C684 1.377 . S
C698 C697 1.373 . S
C699 C683 1.377 . S
C699 C697 1.389 . S
C699 C700 1.524 . S
C700 C699 1.524 . S
C700 C701 1.397 . S
C700 C705 1.363 . S
C701 H672 0.950 . S
C701 C700 1.397 . S
C701 C702 1.334 . S
C702 H673 0.950 . S
C702 C701 1.334 . S
C702 C703 1.287 . S
C703 C702 1.287 . S
C703 C704 1.524 . S
C703 H706 0.999 . S
C704 H674 0.950 . S
C704 C703 1.524 . S
C704 C705 1.415 . S
C705 H675 0.950 . S
C705 C700 1.363 . S
C705 C704 1.415 . S
H706 C703 0.999 . S
H707 C688 0.913 . S
H708 C726 0.951 . S
H709 C728 0.951 . S
H710 C730 0.950 . S
H711 C731 0.950 . S
H712 C733 0.950 . S
H713 C736 0.950 . S
H714 C737 0.950 . S
H715 C739 0.950 . S
H716 C740 0.950 . S
H717 C741 0.951 . S
H718 C743 0.951 . S
H719 C745 0.950 . S
H720 C746 0.950 . S
H721 C748 0.950 . S
H722 C751 0.950 . S
H723 C752 0.950 . S
H724 C754 0.950 . S
H725 C755 0.950 . S
C726 H708 0.951 . S
C726 C727 1.366 1_556 S
C726 C728 1.388 . S
C727 C726 1.366 1_554 S
C727 C731 1.385 . S
C728 H709 0.951 . S
C728 C726 1.388 . S
C728 C729 1.366 . S
C729 C728 1.366 . S
C729 C730 1.414 . S
C729 C732 1.499 . S
C730 H710 0.950 . S
C730 C729 1.414 . S
C730 C731 1.374 1_556 S
C731 H711 0.950 . S
C731 C727 1.385 . S
C731 C730 1.374 1_554 S
C732 C729 1.499 . S
C732 C733 1.373 . S
C732 C734 1.389 . S
C733 H712 0.950 . S
C733 C732 1.373 . S
C733 C749 1.377 . S
C734 C732 1.389 . S
C734 C735 1.524 . S
C734 C748 1.377 . S
C735 C734 1.524 . S
C735 C736 1.397 . S
C735 C740 1.363 . S
C736 H713 0.950 . S
C736 C735 1.397 . S
C736 C737 1.334 . S
C737 H714 0.950 . S
C737 C736 1.334 . S
C737 C738 1.287 . S
C738 C737 1.287 . S
C738 C739 1.524 . S
C738 H757 0.913 . S
C739 H715 0.950 . S
C739 C738 1.524 . S
C739 C740 1.415 . S
C740 H716 0.950 . S
C740 C735 1.363 . S
C740 C739 1.415 . S
C741 H717 0.951 . S
C741 C742 1.366 . S
C741 C743 1.388 . S
C742 C741 1.366 . S
C742 C746 1.385 . S
C743 H718 0.951 . S
C743 C741 1.388 . S
C743 C744 1.366 . S
C744 C743 1.366 . S
C744 C745 1.414 . S
C744 C747 1.499 . S
C745 H719 0.950 . S
C745 C744 1.414 . S
C745 C746 1.374 . S
C746 H720 0.950 . S
C746 C742 1.385 . S
C746 C745 1.374 . S
C747 C744 1.499 . S
C747 C748 1.373 . S
C747 C749 1.389 . S
C748 H721 0.950 . S
C748 C734 1.377 . S
C748 C747 1.373 . S
C749 C733 1.377 . S
C749 C747 1.389 . S
C749 C750 1.524 . S
C750 C749 1.524 . S
C750 C751 1.397 . S
C750 C755 1.363 . S
C751 H722 0.950 . S
C751 C750 1.397 . S
C751 C752 1.334 . S
C752 H723 0.950 . S
C752 C751 1.334 . S
C752 C753 1.287 . S
C753 C752 1.287 . S
C753 C754 1.524 . S
C753 H756 0.999 . S
C754 H724 0.950 . S
C754 C753 1.524 . S
C754 C755 1.415 . S
C755 H725 0.950 . S
C755 C750 1.363 . S
C755 C754 1.415 . S
H756 C753 0.999 . S
H757 C738 0.913 . S
H758 C776 0.951 . S
H759 C778 0.951 . S
H760 C780 0.950 . S
H761 C781 0.950 . S
H762 C783 0.950 . S
H763 C786 0.950 . S
H764 C787 0.950 . S
H765 C789 0.950 . S
H766 C790 0.950 . S
H767 C791 0.951 . S
H768 C793 0.951 . S
H769 C795 0.950 . S
H770 C796 0.950 . S
H771 C798 0.950 . S
H772 C801 0.950 . S
H773 C802 0.950 . S
H774 C804 0.950 . S
H775 C805 0.950 . S
C776 H758 0.951 . S
C776 C777 1.366 . S
C776 C778 1.388 . S
C777 C776 1.366 . S
C777 C781 1.385 . S
C778 H759 0.951 . S
C778 C776 1.388 . S
C778 C779 1.366 . S
C779 C778 1.366 . S
C779 C780 1.414 . S
C779 C782 1.499 . S
C780 H760 0.950 . S
C780 C779 1.414 . S
C780 C781 1.374 . S
C781 H761 0.950 . S
C781 C777 1.385 . S
C781 C780 1.374 . S
C782 C779 1.499 . S
C782 C783 1.373 . S
C782 C784 1.389 . S
C783 H762 0.950 . S
C783 C782 1.373 . S
C783 C799 1.377 . S
C784 C782 1.389 . S
C784 C785 1.524 . S
C784 C798 1.377 . S
C785 C784 1.524 . S
C785 C786 1.397 . S
C785 C790 1.363 . S
C786 H763 0.950 . S
C786 C785 1.397 . S
C786 C787 1.334 . S
C787 H764 0.950 . S
C787 C786 1.334 . S
C787 C788 1.287 . S
C788 C787 1.287 . S
C788 C789 1.524 . S
C788 H807 0.913 . S
C789 H765 0.950 . S
C789 C788 1.524 . S
C789 C790 1.415 . S
C790 H766 0.950 . S
C790 C785 1.363 . S
C790 C789 1.415 . S
C791 H767 0.951 . S
C791 C792 1.366 . S
C791 C793 1.388 . S
C792 C791 1.366 . S
C792 C796 1.385 . S
C793 H768 0.951 . S
C793 C791 1.388 . S
C793 C794 1.366 . S
C794 C793 1.366 . S
C794 C795 1.414 . S
C794 C797 1.499 . S
C795 H769 0.950 . S
C795 C794 1.414 . S
C795 C796 1.374 . S
C796 H770 0.950 . S
C796 C792 1.385 . S
C796 C795 1.374 . S
C797 C794 1.499 . S
C797 C798 1.373 . S
C797 C799 1.389 . S
C798 H771 0.950 . S
C798 C784 1.377 . S
C798 C797 1.373 . S
C799 C783 1.377 . S
C799 C797 1.389 . S
C799 C800 1.524 . S
C800 C799 1.524 . S
C800 C801 1.397 . S
C800 C805 1.363 . S
C801 H772 0.950 . S
C801 C800 1.397 . S
C801 C802 1.334 . S
C802 H773 0.950 . S
C802 C801 1.334 . S
C802 C803 1.287 . S
C803 C802 1.287 . S
C803 C804 1.524 . S
C803 H806 0.999 . S
C804 H774 0.950 . S
C804 C803 1.524 . S
C804 C805 1.415 . S
C805 H775 0.950 . S
C805 C800 1.363 . S
C805 C804 1.415 . S
H806 C803 0.999 . S
H807 C788 0.913 . S
H808 C826 0.951 . S
H809 C828 0.951 . S
H810 C830 0.950 . S
H811 C831 0.950 . S
H812 C833 0.950 . S
H813 C836 0.950 . S
H814 C837 0.950 . S
H815 C839 0.950 . S
H816 C840 0.950 . S
H817 C841 0.959 . S
H818 C843 0.951 . S
H819 C845 0.950 . S
H820 C846 0.947 1_556 S
H821 C848 0.950 . S
H822 C851 0.950 . S
H823 C852 0.950 . S
H824 C854 0.950 . S
H825 C855 0.950 . S
C826 H808 0.951 . S
C826 C827 1.366 . S
C826 C828 1.388 . S
C827 C826 1.366 . S
C827 C831 1.385 . S
C828 H809 0.951 . S
C828 C826 1.388 . S
C828 C829 1.366 . S
C829 C828 1.366 . S
C829 C830 1.414 . S
C829 C832 1.499 . S
C830 H810 0.950 . S
C830 C829 1.414 . S
C830 C831 1.374 . S
C831 H811 0.950 . S
C831 C827 1.385 . S
C831 C830 1.374 . S
C832 C829 1.499 . S
C832 C833 1.373 . S
C832 C834 1.389 . S
C833 H812 0.950 . S
C833 C832 1.373 . S
C833 C849 1.377 . S
C834 C832 1.389 . S
C834 C835 1.524 . S
C834 C848 1.377 . S
C835 C834 1.524 . S
C835 C836 1.397 . S
C835 C840 1.363 . S
C836 H813 0.950 . S
C836 C835 1.397 . S
C836 C837 1.334 . S
C837 H814 0.950 . S
C837 C836 1.334 . S
C837 C838 1.287 . S
C838 C837 1.287 . S
C838 C839 1.524 . S
C838 H857 0.913 . S
C839 H815 0.950 . S
C839 C838 1.524 . S
C839 C840 1.415 . S
C840 H816 0.950 . S
C840 C835 1.363 . S
C840 C839 1.415 . S
C841 H817 0.959 . S
C841 C842 1.371 . S
C841 C843 1.375 1_556 S
C842 C841 1.371 . S
C842 C846 1.385 1_556 S
C843 H818 0.951 . S
C843 C841 1.375 1_554 S
C843 C844 1.366 . S
C844 C843 1.366 . S
C844 C845 1.414 . S
C844 C847 1.499 . S
C845 H819 0.950 . S
C845 C844 1.414 . S
C845 C846 1.374 . S
C846 H820 0.947 1_554 S
C846 C842 1.385 1_554 S
C846 C845 1.374 . S
C847 C844 1.499 . S
C847 C848 1.373 . S
C847 C849 1.389 . S
C848 H821 0.950 . S
C848 C834 1.377 . S
C848 C847 1.373 . S
C849 C833 1.377 . S
C849 C847 1.389 . S
C849 C850 1.524 . S
C850 C849 1.524 . S
C850 C851 1.397 . S
C850 C855 1.363 . S
C851 H822 0.950 . S
C851 C850 1.397 . S
C851 C852 1.334 1_554 S
C852 H823 0.950 . S
C852 C851 1.334 1_556 S
C852 C853 1.287 . S
C853 C852 1.287 . S
C853 C854 1.524 1_556 S
C853 H856 0.999 . S
C854 H824 0.950 . S
C854 C853 1.524 1_554 S
C854 C855 1.415 . S
C855 H825 0.950 . S
C855 C850 1.363 . S
C855 C854 1.415 . S
H856 C853 0.999 . S
H857 C838 0.913 . S
H858 C876 0.951 . S
H859 C878 0.951 . S
H860 C880 0.950 . S
H861 C881 0.950 . S
H862 C883 0.950 . S
H863 C886 0.950 . S
H864 C887 0.950 . S
H865 C889 0.950 . S
H866 C890 0.950 . S
H867 C891 0.951 . S
H868 C893 0.951 . S
H869 C895 0.950 . S
H870 C896 0.950 . S
H871 C898 0.950 . S
H872 C901 0.950 . S
H873 C902 0.950 . S
H874 C904 0.950 . S
H875 C905 0.950 . S
C876 H858 0.951 . S
C876 C877 1.366 . S
C876 C878 1.388 . S
C877 C876 1.366 . S
C877 C881 1.385 . S
C878 H859 0.951 . S
C878 C876 1.388 . S
C878 C879 1.366 . S
C879 C878 1.366 . S
C879 C880 1.414 . S
C879 C882 1.499 . S
C880 H860 0.950 . S
C880 C879 1.414 . S
C880 C881 1.374 . S
C881 H861 0.950 . S
C881 C877 1.385 . S
C881 C880 1.374 . S
C882 C879 1.499 . S
C882 C883 1.373 . S
C882 C884 1.389 . S
C883 H862 0.950 . S
C883 C882 1.373 . S
C883 C899 1.377 . S
C884 C882 1.389 . S
C884 C885 1.524 . S
C884 C898 1.377 . S
C885 C884 1.524 . S
C885 C886 1.397 . S
C885 C890 1.363 . S
C886 H863 0.950 . S
C886 C885 1.397 . S
C886 C887 1.334 . S
C887 H864 0.950 . S
C887 C886 1.334 . S
C887 C888 1.287 . S
C888 C887 1.287 . S
C888 C889 1.524 . S
C888 H907 0.913 . S
C889 H865 0.950 . S
C889 C888 1.524 . S
C889 C890 1.415 . S
C890 H866 0.950 . S
C890 C885 1.363 . S
C890 C889 1.415 . S
C891 H867 0.951 . S
C891 C892 1.366 . S
C891 C893 1.388 . S
C892 C891 1.366 . S
C892 C896 1.385 . S
C893 H868 0.951 . S
C893 C891 1.388 . S
C893 C894 1.366 . S
C894 C893 1.366 . S
C894 C895 1.414 . S
C894 C897 1.499 . S
C895 H869 0.950 . S
C895 C894 1.414 . S
C895 C896 1.374 . S
C896 H870 0.950 . S
C896 C892 1.385 . S
C896 C895 1.374 . S
C897 C894 1.499 . S
C897 C898 1.373 . S
C897 C899 1.389 . S
C898 H871 0.950 . S
C898 C884 1.377 . S
C898 C897 1.373 . S
C899 C883 1.377 . S
C899 C897 1.389 . S
C899 C900 1.524 . S
C900 C899 1.524 . S
C900 C901 1.397 . S
C900 C905 1.363 . S
C901 H872 0.950 . S
C901 C900 1.397 . S
C901 C902 1.334 . S
C902 H873 0.950 . S
C902 C901 1.334 . S
C902 C903 1.287 . S
C903 C902 1.287 . S
C903 C904 1.524 . S
C903 H906 0.999 . S
C904 H874 0.950 . S
C904 C903 1.524 . S
C904 C905 1.415 . S
C905 H875 0.950 . S
C905 C900 1.363 . S
C905 C904 1.415 . S
H906 C903 0.999 . S
H907 C888 0.913 . S
H908 C926 0.951 . S
H909 C928 0.951 . S
H910 C930 0.950 . S
H911 C931 0.950 . S
H912 C933 0.950 . S
H913 C936 0.950 . S
H914 C937 0.950 . S
H915 C939 0.950 . S
H916 C940 0.950 . S
H917 C941 0.951 . S
H918 C943 0.951 . S
H919 C945 0.950 . S
H920 C946 0.950 . S
H921 C948 0.950 . S
H922 C951 0.950 . S
H923 C952 0.950 . S
H924 C954 0.950 . S
H925 C955 0.950 . S
C926 H908 0.951 . S
C926 C927 1.366 . S
C926 C928 1.388 . S
C927 C926 1.366 . S
C927 C931 1.385 . S
C928 H909 0.951 . S
C928 C926 1.388 . S
C928 C929 1.366 . S
C929 C928 1.366 . S
C929 C930 1.414 . S
C929 C932 1.499 . S
C930 H910 0.950 . S
C930 C929 1.414 . S
C930 C931 1.374 . S
C931 H911 0.950 . S
C931 C927 1.385 . S
C931 C930 1.374 . S
C932 C929 1.499 . S
C932 C933 1.373 . S
C932 C934 1.389 . S
C933 H912 0.950 . S
C933 C932 1.373 . S
C933 C949 1.377 . S
C934 C932 1.389 . S
C934 C935 1.524 . S
C934 C948 1.377 . S
C935 C934 1.524 . S
C935 C936 1.397 . S
C935 C940 1.363 . S
C936 H913 0.950 . S
C936 C935 1.397 . S
C936 C937 1.334 . S
C937 H914 0.950 . S
C937 C936 1.334 . S
C937 C938 1.287 . S
C938 C937 1.287 . S
C938 C939 1.524 . S
C938 H957 0.913 . S
C939 H915 0.950 . S
C939 C938 1.524 . S
C939 C940 1.415 . S
C940 H916 0.950 . S
C940 C935 1.363 . S
C940 C939 1.415 . S
C941 H917 0.951 . S
C941 C942 1.366 . S
C941 C943 1.388 1_556 S
C942 C941 1.366 . S
C942 C946 1.385 1_556 S
C943 H918 0.951 . S
C943 C941 1.388 1_554 S
C943 C944 1.366 . S
C944 C943 1.366 . S
C944 C945 1.414 . S
C944 C947 1.499 . S
C945 H919 0.950 . S
C945 C944 1.414 . S
C945 C946 1.374 . S
C946 H920 0.950 . S
C946 C942 1.385 1_554 S
C946 C945 1.374 . S
C947 C944 1.499 . S
C947 C948 1.373 . S
C947 C949 1.389 . S
C948 H921 0.950 . S
C948 C934 1.377 . S
C948 C947 1.373 . S
C949 C933 1.377 . S
C949 C947 1.389 . S
C949 C950 1.524 . S
C950 C949 1.524 . S
C950 C951 1.397 . S
C950 C955 1.363 . S
C951 H922 0.950 . S
C951 C950 1.397 . S
C951 C952 1.334 . S
C952 H923 0.950 . S
C952 C951 1.334 . S
C952 C953 1.287 . S
C953 C952 1.287 . S
C953 C954 1.524 . S
C953 H956 0.999 . S
C954 H924 0.950 . S
C954 C953 1.524 . S
C954 C955 1.415 . S
C955 H925 0.950 . S
C955 C950 1.363 . S
C955 C954 1.415 . S
H956 C953 0.999 . S
H957 C938 0.913 . S
H958 C976 0.951 . S
H959 C978 0.951 . S
H960 C980 0.950 . S
H961 C981 0.950 . S
H962 C983 0.950 . S
H963 C986 0.950 . S
H964 C987 0.950 . S
H965 C989 0.950 . S
H966 C990 0.950 . S
H967 C991 0.951 . S
H968 C993 0.951 . S
H969 C995 0.950 . S
H970 C996 0.950 . S
H971 C998 0.950 . S
H972 C1001 0.950 . S
H973 C1002 0.950 . S
H974 C1004 0.950 . S
H975 C1005 0.950 . S
C976 H958 0.951 . S
C976 C977 1.366 . S
C976 C978 1.388 . S
C977 C976 1.366 . S
C977 C981 1.385 . S
C978 H959 0.951 . S
C978 C976 1.388 . S
C978 C979 1.366 . S
C979 C978 1.366 . S
C979 C980 1.414 . S
C979 C982 1.499 . S
C980 H960 0.950 . S
C980 C979 1.414 . S
C980 C981 1.374 . S
C981 H961 0.950 . S
C981 C977 1.385 . S
C981 C980 1.374 . S
C982 C979 1.499 . S
C982 C983 1.373 . S
C982 C984 1.389 . S
C983 H962 0.950 . S
C983 C982 1.373 . S
C983 C999 1.377 . S
C984 C982 1.389 . S
C984 C985 1.524 . S
C984 C998 1.377 . S
C985 C984 1.524 . S
C985 C986 1.397 . S
C985 C990 1.363 . S
C986 H963 0.950 . S
C986 C985 1.397 . S
C986 C987 1.334 . S
C987 H964 0.950 . S
C987 C986 1.334 . S
C987 C988 1.287 . S
C988 C987 1.287 . S
C988 C989 1.524 . S
C988 H1007 0.913 . S
C989 H965 0.950 . S
C989 C988 1.524 . S
C989 C990 1.415 . S
C990 H966 0.950 . S
C990 C985 1.363 . S
C990 C989 1.415 . S
C991 H967 0.951 . S
C991 C992 1.366 . S
C991 C993 1.388 . S
C992 C991 1.366 . S
C992 C996 1.385 . S
C993 H968 0.951 . S
C993 C991 1.388 . S
C993 C994 1.366 . S
C994 C993 1.366 . S
C994 C995 1.414 . S
C994 C997 1.499 . S
C995 H969 0.950 . S
C995 C994 1.414 . S
C995 C996 1.374 . S
C996 H970 0.950 . S
C996 C992 1.385 . S
C996 C995 1.374 . S
C997 C994 1.499 . S
C997 C998 1.373 . S
C997 C999 1.389 . S
C998 H971 0.950 . S
C998 C984 1.377 . S
C998 C997 1.373 . S
C999 C983 1.377 . S
C999 C997 1.389 . S
C999 C1000 1.524 . S
C1000 C999 1.524 . S
C1000 C1001 1.397 . S
C1000 C1005 1.363 . S
C1001 H972 0.950 . S
C1001 C1000 1.397 . S
C1001 C1002 1.334 . S
C1002 H973 0.950 . S
C1002 C1001 1.334 . S
C1002 C1003 1.287 . S
C1003 C1002 1.287 . S
C1003 C1004 1.524 . S
C1003 H1006 0.999 . S
C1004 H974 0.950 . S
C1004 C1003 1.524 . S
C1004 C1005 1.415 . S
C1005 H975 0.950 . S
C1005 C1000 1.363 . S
C1005 C1004 1.415 . S
H1006 C1003 0.999 . S
H1007 C988 0.913 . S
H1008 C1026 0.951 . S
H1009 C1028 0.951 . S
H1010 C1030 0.950 . S
H1011 C1031 0.950 . S
H1012 C1033 0.950 . S
H1013 C1036 0.950 . S
H1014 C1037 0.950 . S
H1015 C1039 0.950 . S
H1016 C1040 0.950 . S
H1017 C1041 0.951 . S
H1018 C1043 0.951 . S
H1019 C1045 0.950 . S
H1020 C1046 0.950 . S
H1021 C1048 0.950 . S
H1022 C1051 0.950 . S
H1023 C1052 0.950 . S
H1024 C1054 0.950 . S
H1025 C1055 0.950 . S
C1026 H1008 0.951 . S
C1026 C1027 1.366 1_554 S
C1026 C1028 1.388 . S
C1027 C1026 1.366 1_556 S
C1027 C1031 1.385 . S
C1028 H1009 0.951 . S
C1028 C1026 1.388 . S
C1028 C1029 1.366 . S
C1029 C1028 1.366 . S
C1029 C1030 1.414 . S
C1029 C1032 1.499 . S
C1030 H1010 0.950 . S
C1030 C1029 1.414 . S
C1030 C1031 1.374 1_554 S
C1031 H1011 0.950 . S
C1031 C1027 1.385 . S
C1031 C1030 1.374 1_556 S
C1032 C1029 1.499 . S
C1032 C1033 1.373 . S
C1032 C1034 1.389 . S
C1033 H1012 0.950 . S
C1033 C1032 1.373 . S
C1033 C1049 1.377 . S
C1034 C1032 1.389 . S
C1034 C1035 1.524 . S
C1034 C1048 1.377 . S
C1035 C1034 1.524 . S
C1035 C1036 1.397 . S
C1035 C1040 1.363 . S
C1036 H1013 0.950 . S
C1036 C1035 1.397 . S
C1036 C1037 1.334 . S
C1037 H1014 0.950 . S
C1037 C1036 1.334 . S
C1037 C1038 1.287 . S
C1038 C1037 1.287 . S
C1038 C1039 1.524 . S
C1038 H1057 0.913 . S
C1039 H1015 0.950 . S
C1039 C1038 1.524 . S
C1039 C1040 1.415 . S
C1040 H1016 0.950 . S
C1040 C1035 1.363 . S
C1040 C1039 1.415 . S
C1041 H1017 0.951 . S
C1041 C1042 1.366 . S
C1041 C1043 1.388 . S
C1042 C1041 1.366 . S
C1042 C1046 1.385 . S
C1043 H1018 0.951 . S
C1043 C1041 1.388 . S
C1043 C1044 1.366 . S
C1044 C1043 1.366 . S
C1044 C1045 1.414 . S
C1044 C1047 1.499 . S
C1045 H1019 0.950 . S
C1045 C1044 1.414 . S
C1045 C1046 1.374 . S
C1046 H1020 0.950 . S
C1046 C1042 1.385 . S
C1046 C1045 1.374 . S
C1047 C1044 1.499 . S
C1047 C1048 1.373 . S
C1047 C1049 1.389 . S
C1048 H1021 0.950 . S
C1048 C1034 1.377 . S
C1048 C1047 1.373 . S
C1049 C1033 1.377 . S
C1049 C1047 1.389 . S
C1049 C1050 1.524 . S
C1050 C1049 1.524 . S
C1050 C1051 1.397 . S
C1050 C1055 1.363 . S
C1051 H1022 0.950 . S
C1051 C1050 1.397 . S
C1051 C1052 1.334 . S
C1052 H1023 0.950 . S
C1052 C1051 1.334 . S
C1052 C1053 1.287 . S
C1053 C1052 1.287 . S
C1053 C1054 1.524 . S
C1053 H1056 0.999 . S
C1054 H1024 0.950 . S
C1054 C1053 1.524 . S
C1054 C1055 1.415 . S
C1055 H1025 0.950 . S
C1055 C1050 1.363 . S
C1055 C1054 1.415 . S
H1056 C1053 0.999 . S
H1057 C1038 0.913 . S
H1058 C1076 0.951 . S
H1059 C1078 0.951 . S
H1060 C1080 0.950 . S
H1061 C1081 0.950 . S
H1062 C1083 0.950 . S
H1063 C1086 0.950 . S
H1064 C1087 0.950 . S
H1065 C1089 0.950 . S
H1066 C1090 0.950 . S
H1067 C1091 0.951 . S
H1068 C1093 0.951 . S
H1069 C1095 0.950 . S
H1070 C1096 0.950 . S
H1071 C1098 0.950 . S
H1072 C1101 0.950 . S
H1073 C1102 0.950 . S
H1074 C1104 0.950 . S
H1075 C1105 0.950 . S
C1076 H1058 0.951 . S
C1076 C1077 1.366 . S
C1076 C1078 1.388 . S
C1077 C1076 1.366 . S
C1077 C1081 1.385 . S
C1078 H1059 0.951 . S
C1078 C1076 1.388 . S
C1078 C1079 1.366 . S
C1079 C1078 1.366 . S
C1079 C1080 1.414 . S
C1079 C1082 1.499 . S
C1080 H1060 0.950 . S
C1080 C1079 1.414 . S
C1080 C1081 1.374 . S
C1081 H1061 0.950 . S
C1081 C1077 1.385 . S
C1081 C1080 1.374 . S
C1082 C1079 1.499 . S
C1082 C1083 1.373 . S
C1082 C1084 1.389 . S
C1083 H1062 0.950 . S
C1083 C1082 1.373 . S
C1083 C1099 1.377 . S
C1084 C1082 1.389 . S
C1084 C1085 1.524 . S
C1084 C1098 1.377 . S
C1085 C1084 1.524 . S
C1085 C1086 1.397 . S
C1085 C1090 1.363 . S
C1086 H1063 0.950 . S
C1086 C1085 1.397 . S
C1086 C1087 1.334 . S
C1087 H1064 0.950 . S
C1087 C1086 1.334 . S
C1087 C1088 1.287 . S
C1088 C1087 1.287 . S
C1088 C1089 1.524 . S
C1088 H1107 0.913 . S
C1089 H1065 0.950 . S
C1089 C1088 1.524 . S
C1089 C1090 1.415 . S
C1090 H1066 0.950 . S
C1090 C1085 1.363 . S
C1090 C1089 1.415 . S
C1091 H1067 0.951 . S
C1091 C1092 1.366 . S
C1091 C1093 1.388 . S
C1092 C1091 1.366 . S
C1092 C1096 1.385 . S
C1093 H1068 0.951 . S
C1093 C1091 1.388 . S
C1093 C1094 1.366 . S
C1094 C1093 1.366 . S
C1094 C1095 1.414 . S
C1094 C1097 1.499 . S
C1095 H1069 0.950 . S
C1095 C1094 1.414 . S
C1095 C1096 1.374 . S
C1096 H1070 0.950 . S
C1096 C1092 1.385 . S
C1096 C1095 1.374 . S
C1097 C1094 1.499 . S
C1097 C1098 1.373 . S
C1097 C1099 1.389 . S
C1098 H1071 0.950 . S
C1098 C1084 1.377 . S
C1098 C1097 1.373 . S
C1099 C1083 1.377 . S
C1099 C1097 1.389 . S
C1099 C1100 1.524 . S
C1100 C1099 1.524 . S
C1100 C1101 1.397 . S
C1100 C1105 1.363 . S
C1101 H1072 0.950 . S
C1101 C1100 1.397 . S
C1101 C1102 1.334 . S
C1102 H1073 0.950 . S
C1102 C1101 1.334 . S
C1102 C1103 1.287 . S
C1103 C1102 1.287 . S
C1103 C1104 1.524 . S
C1103 H1106 0.999 1_565 S
C1104 H1074 0.950 . S
C1104 C1103 1.524 . S
C1104 C1105 1.415 . S
C1105 H1075 0.950 . S
C1105 C1100 1.363 . S
C1105 C1104 1.415 . S
H1106 C1103 0.999 1_545 S
H1107 C1088 0.913 . S
H1108 C1126 0.951 . S
H1109 C1128 0.951 . S
H1110 C1130 0.950 . S
H1111 C1131 0.950 . S
H1112 C1133 0.950 . S
H1113 C1136 0.950 . S
H1114 C1137 0.950 . S
H1115 C1139 0.950 . S
H1116 C1140 0.950 . S
H1117 C1141 0.950 . S
H1118 C1143 0.951 . S
H1119 C1145 0.950 . S
H1120 C1146 0.957 . S
H1121 C1148 0.950 . S
H1122 C1151 0.950 . S
H1123 C1152 0.950 . S
H1124 C1154 0.950 . S
H1125 C1155 0.950 . S
C1126 H1108 0.951 . S
C1126 C1127 1.366 . S
C1126 C1128 1.388 . S
C1127 C1126 1.366 . S
C1127 C1131 1.385 . S
C1128 H1109 0.951 . S
C1128 C1126 1.388 . S
C1128 C1129 1.366 . S
C1129 C1128 1.366 . S
C1129 C1130 1.414 . S
C1129 C1132 1.499 . S
C1130 H1110 0.950 . S
C1130 C1129 1.414 . S
C1130 C1131 1.374 . S
C1131 H1111 0.950 . S
C1131 C1127 1.385 . S
C1131 C1130 1.374 . S
C1132 C1129 1.499 . S
C1132 C1133 1.373 . S
C1132 C1134 1.389 . S
C1133 H1112 0.950 . S
C1133 C1132 1.373 . S
C1133 C1149 1.377 . S
C1134 C1132 1.389 . S
C1134 C1135 1.524 . S
C1134 C1148 1.377 . S
C1135 C1134 1.524 . S
C1135 C1136 1.397 . S
C1135 C1140 1.363 . S
C1136 H1113 0.950 . S
C1136 C1135 1.397 . S
C1136 C1137 1.334 . S
C1137 H1114 0.950 . S
C1137 C1136 1.334 . S
C1137 C1138 1.287 . S
C1138 C1137 1.287 . S
C1138 C1139 1.524 . S
C1138 H1157 0.913 . S
C1139 H1115 0.950 . S
C1139 C1138 1.524 . S
C1139 C1140 1.415 . S
C1140 H1116 0.950 . S
C1140 C1135 1.363 . S
C1140 C1139 1.415 . S
C1141 H1117 0.950 . S
C1141 C1142 1.366 1_554 S
C1141 C1143 1.388 . S
C1142 C1141 1.366 1_556 S
C1142 C1146 1.389 . S
C1143 H1118 0.951 . S
C1143 C1141 1.388 . S
C1143 C1144 1.366 . S
C1144 C1143 1.366 . S
C1144 C1145 1.414 . S
C1144 C1147 1.499 . S
C1145 H1119 0.950 . S
C1145 C1144 1.414 . S
C1145 C1146 1.362 1_554 S
C1146 H1120 0.957 . S
C1146 C1142 1.389 . S
C1146 C1145 1.362 1_556 S
C1147 C1144 1.499 . S
C1147 C1148 1.373 . S
C1147 C1149 1.389 . S
C1148 H1121 0.950 . S
C1148 C1134 1.377 . S
C1148 C1147 1.373 . S
C1149 C1133 1.377 . S
C1149 C1147 1.389 . S
C1149 C1150 1.524 . S
C1150 C1149 1.524 . S
C1150 C1151 1.397 . S
C1150 C1155 1.363 . S
C1151 H1122 0.950 . S
C1151 C1150 1.397 . S
C1151 C1152 1.334 . S
C1152 H1123 0.950 . S
C1152 C1151 1.334 . S
C1152 C1153 1.287 . S
C1153 C1152 1.287 . S
C1153 C1154 1.524 . S
C1153 H1156 0.999 . S
C1154 H1124 0.950 . S
C1154 C1153 1.524 . S
C1154 C1155 1.415 . S
C1155 H1125 0.950 . S
C1155 C1150 1.363 . S
C1155 C1154 1.415 . S
H1156 C1153 0.999 . S
H1157 C1138 0.913 . S
H1158 C1176 0.951 . S
H1159 C1178 0.951 . S
H1160 C1180 0.950 . S
H1161 C1181 0.950 . S
H1162 C1183 0.950 . S
H1163 C1186 0.950 . S
H1164 C1187 0.950 . S
H1165 C1189 0.950 . S
H1166 C1190 0.950 . S
H1167 C1191 0.951 . S
H1168 C1193 0.951 . S
H1169 C1195 0.950 . S
H1170 C1196 0.950 . S
H1171 C1198 0.950 . S
H1172 C1201 0.950 . S
H1173 C1202 0.950 . S
H1174 C1204 0.950 . S
H1175 C1205 0.950 . S
C1176 H1158 0.951 . S
C1176 C1177 1.366 . S
C1176 C1178 1.388 . S
C1177 C1176 1.366 . S
C1177 C1181 1.385 . S
C1178 H1159 0.951 . S
C1178 C1176 1.388 . S
C1178 C1179 1.366 . S
C1179 C1178 1.366 . S
C1179 C1180 1.414 . S
C1179 C1182 1.499 . S
C1180 H1160 0.950 . S
C1180 C1179 1.414 . S
C1180 C1181 1.374 . S
C1181 H1161 0.950 . S
C1181 C1177 1.385 . S
C1181 C1180 1.374 . S
C1182 C1179 1.499 . S
C1182 C1183 1.373 . S
C1182 C1184 1.389 . S
C1183 H1162 0.950 . S
C1183 C1182 1.373 . S
C1183 C1199 1.377 . S
C1184 C1182 1.389 . S
C1184 C1185 1.524 . S
C1184 C1198 1.377 . S
C1185 C1184 1.524 . S
C1185 C1186 1.397 . S
C1185 C1190 1.363 . S
C1186 H1163 0.950 . S
C1186 C1185 1.397 . S
C1186 C1187 1.334 . S
C1187 H1164 0.950 . S
C1187 C1186 1.334 . S
C1187 C1188 1.287 . S
C1188 C1187 1.287 . S
C1188 C1189 1.524 . S
C1188 H1207 0.913 . S
C1189 H1165 0.950 . S
C1189 C1188 1.524 . S
C1189 C1190 1.415 . S
C1190 H1166 0.950 . S
C1190 C1185 1.363 . S
C1190 C1189 1.415 . S
C1191 H1167 0.951 . S
C1191 C1192 1.366 . S
C1191 C1193 1.388 . S
C1192 C1191 1.366 . S
C1192 C1196 1.385 . S
C1193 H1168 0.951 . S
C1193 C1191 1.388 . S
C1193 C1194 1.366 . S
C1194 C1193 1.366 . S
C1194 C1195 1.414 . S
C1194 C1197 1.499 . S
C1195 H1169 0.950 . S
C1195 C1194 1.414 . S
C1195 C1196 1.374 . S
C1196 H1170 0.950 . S
C1196 C1192 1.385 . S
C1196 C1195 1.374 . S
C1197 C1194 1.499 . S
C1197 C1198 1.373 . S
C1197 C1199 1.389 . S
C1198 H1171 0.950 . S
C1198 C1184 1.377 . S
C1198 C1197 1.373 . S
C1199 C1183 1.377 . S
C1199 C1197 1.389 . S
C1199 C1200 1.524 . S
C1200 C1199 1.524 . S
C1200 C1201 1.397 . S
C1200 C1205 1.363 . S
C1201 H1172 0.950 . S
C1201 C1200 1.397 . S
C1201 C1202 1.334 . S
C1202 H1173 0.950 . S
C1202 C1201 1.334 . S
C1202 C1203 1.287 . S
C1203 C1202 1.287 . S
C1203 C1204 1.524 . S
C1203 H1206 0.999 . S
C1204 H1174 0.950 . S
C1204 C1203 1.524 . S
C1204 C1205 1.415 . S
C1205 H1175 0.950 . S
C1205 C1200 1.363 . S
C1205 C1204 1.415 . S
H1206 C1203 0.999 . S
H1207 C1188 0.913 . S
H1208 C1226 0.951 . S
H1209 C1228 0.951 . S
H1210 C1230 0.950 . S
H1211 C1231 0.950 . S
H1212 C1233 0.950 . S
H1213 C1236 0.950 . S
H1214 C1237 0.950 . S
H1215 C1239 0.950 . S
H1216 C1240 0.950 . S
H1217 C1241 0.951 . S
H1218 C1243 0.951 . S
H1219 C1245 0.950 . S
H1220 C1246 0.950 . S
H1221 C1248 0.950 . S
H1222 C1251 0.950 . S
H1223 C1252 0.950 . S
H1224 C1254 0.950 . S
H1225 C1255 0.950 . S
C1226 H1208 0.951 . S
C1226 C1227 1.366 . S
C1226 C1228 1.388 . S
C1227 C1226 1.366 . S
C1227 C1231 1.385 . S
C1228 H1209 0.951 . S
C1228 C1226 1.388 . S
C1228 C1229 1.366 . S
C1229 C1228 1.366 . S
C1229 C1230 1.414 . S
C1229 C1232 1.499 . S
C1230 H1210 0.950 . S
C1230 C1229 1.414 . S
C1230 C1231 1.374 . S
C1231 H1211 0.950 . S
C1231 C1227 1.385 . S
C1231 C1230 1.374 . S
C1232 C1229 1.499 . S
C1232 C1233 1.373 . S
C1232 C1234 1.389 . S
C1233 H1212 0.950 . S
C1233 C1232 1.373 . S
C1233 C1249 1.377 . S
C1234 C1232 1.389 . S
C1234 C1235 1.524 . S
C1234 C1248 1.377 . S
C1235 C1234 1.524 . S
C1235 C1236 1.397 . S
C1235 C1240 1.363 . S
C1236 H1213 0.950 . S
C1236 C1235 1.397 . S
C1236 C1237 1.334 . S
C1237 H1214 0.950 . S
C1237 C1236 1.334 . S
C1237 C1238 1.287 . S
C1238 C1237 1.287 . S
C1238 C1239 1.524 . S
C1238 H1257 0.913 . S
C1239 H1215 0.950 . S
C1239 C1238 1.524 . S
C1239 C1240 1.415 . S
C1240 H1216 0.950 . S
C1240 C1235 1.363 . S
C1240 C1239 1.415 . S
C1241 H1217 0.951 . S
C1241 C1242 1.366 . S
C1241 C1243 1.388 1_554 S
C1242 C1241 1.366 . S
C1242 C1246 1.385 1_554 S
C1243 H1218 0.951 . S
C1243 C1241 1.388 1_556 S
C1243 C1244 1.366 . S
C1244 C1243 1.366 . S
C1244 C1245 1.414 . S
C1244 C1247 1.499 . S
C1245 H1219 0.950 . S
C1245 C1244 1.414 . S
C1245 C1246 1.374 . S
C1246 H1220 0.950 . S
C1246 C1242 1.385 1_556 S
C1246 C1245 1.374 . S
C1247 C1244 1.499 . S
C1247 C1248 1.373 . S
C1247 C1249 1.389 . S
C1248 H1221 0.950 . S
C1248 C1234 1.377 . S
C1248 C1247 1.373 . S
C1249 C1233 1.377 . S
C1249 C1247 1.389 . S
C1249 C1250 1.524 . S
C1250 C1249 1.524 . S
C1250 C1251 1.397 . S
C1250 C1255 1.363 . S
C1251 H1222 0.950 . S
C1251 C1250 1.397 . S
C1251 C1252 1.334 . S
C1252 H1223 0.950 . S
C1252 C1251 1.334 . S
C1252 C1253 1.287 . S
C1253 C1252 1.287 . S
C1253 C1254 1.524 . S
C1253 H1256 0.999 . S
C1254 H1224 0.950 . S
C1254 C1253 1.524 . S
C1254 C1255 1.415 . S
C1255 H1225 0.950 . S
C1255 C1250 1.363 . S
C1255 C1254 1.415 . S
H1256 C1253 0.999 . S
H1257 C1238 0.913 . S
H1258 C1276 0.951 . S
H1259 C1278 0.951 . S
H1260 C1280 0.950 . S
H1261 C1281 0.950 . S
H1262 C1283 0.950 . S
H1263 C1286 0.950 . S
H1264 C1287 0.950 . S
H1265 C1289 0.950 . S
H1266 C1290 0.950 . S
H1267 C1291 0.951 . S
H1268 C1293 0.951 . S
H1269 C1295 0.950 . S
H1270 C1296 0.950 . S
H1271 C1298 0.950 . S
H1272 C1301 0.950 . S
H1273 C1302 0.950 . S
H1274 C1304 0.950 . S
H1275 C1305 0.950 . S
C1276 H1258 0.951 . S
C1276 C1277 1.366 . S
C1276 C1278 1.388 . S
C1277 C1276 1.366 . S
C1277 C1281 1.385 . S
C1278 H1259 0.951 . S
C1278 C1276 1.388 . S
C1278 C1279 1.366 . S
C1279 C1278 1.366 . S
C1279 C1280 1.414 . S
C1279 C1282 1.499 . S
C1280 H1260 0.950 . S
C1280 C1279 1.414 . S
C1280 C1281 1.374 . S
C1281 H1261 0.950 . S
C1281 C1277 1.385 . S
C1281 C1280 1.374 . S
C1282 C1279 1.499 . S
C1282 C1283 1.373 . S
C1282 C1284 1.389 . S
C1283 H1262 0.950 . S
C1283 C1282 1.373 . S
C1283 C1299 1.377 . S
C1284 C1282 1.389 . S
C1284 C1285 1.524 . S
C1284 C1298 1.377 . S
C1285 C1284 1.524 . S
C1285 C1286 1.397 . S
C1285 C1290 1.363 . S
C1286 H1263 0.950 . S
C1286 C1285 1.397 . S
C1286 C1287 1.334 . S
C1287 H1264 0.950 . S
C1287 C1286 1.334 . S
C1287 C1288 1.287 . S
C1288 C1287 1.287 . S
C1288 C1289 1.524 . S
C1288 H1307 0.913 . S
C1289 H1265 0.950 . S
C1289 C1288 1.524 . S
C1289 C1290 1.415 . S
C1290 H1266 0.950 . S
C1290 C1285 1.363 . S
C1290 C1289 1.415 . S
C1291 H1267 0.951 . S
C1291 C1292 1.366 . S
C1291 C1293 1.388 . S
C1292 C1291 1.366 . S
C1292 C1296 1.385 . S
C1293 H1268 0.951 . S
C1293 C1291 1.388 . S
C1293 C1294 1.366 . S
C1294 C1293 1.366 . S
C1294 C1295 1.414 . S
C1294 C1297 1.499 . S
C1295 H1269 0.950 . S
C1295 C1294 1.414 . S
C1295 C1296 1.374 . S
C1296 H1270 0.950 . S
C1296 C1292 1.385 . S
C1296 C1295 1.374 . S
C1297 C1294 1.499 . S
C1297 C1298 1.373 . S
C1297 C1299 1.389 . S
C1298 H1271 0.950 . S
C1298 C1284 1.377 . S
C1298 C1297 1.373 . S
C1299 C1283 1.377 . S
C1299 C1297 1.389 . S
C1299 C1300 1.524 . S
C1300 C1299 1.524 . S
C1300 C1301 1.397 . S
C1300 C1305 1.363 . S
C1301 H1272 0.950 . S
C1301 C1300 1.397 . S
C1301 C1302 1.334 . S
C1302 H1273 0.950 . S
C1302 C1301 1.334 . S
C1302 C1303 1.287 . S
C1303 C1302 1.287 . S
C1303 C1304 1.524 . S
C1303 H1306 0.999 . S
C1304 H1274 0.950 . S
C1304 C1303 1.524 . S
C1304 C1305 1.415 . S
C1305 H1275 0.950 . S
C1305 C1300 1.363 . S
C1305 C1304 1.415 . S
H1306 C1303 0.999 . S
H1307 C1288 0.913 . S
H1308 C1326 0.951 . S
H1309 C1328 0.951 . S
H1310 C1330 0.950 . S
H1311 C1331 0.950 . S
H1312 C1333 0.950 . S
H1313 C1336 0.950 . S
H1314 C1337 0.950 . S
H1315 C1339 0.950 . S
H1316 C1340 0.950 . S
H1317 C1341 0.951 . S
H1318 C1343 0.951 . S
H1319 C1345 0.950 . S
H1320 C1346 0.950 . S
H1321 C1348 0.950 . S
H1322 C1351 0.950 . S
H1323 C1352 0.950 . S
H1324 C1354 0.950 . S
H1325 C1355 0.950 . S
C1326 H1308 0.951 . S
C1326 C1327 1.366 1_556 S
C1326 C1328 1.388 . S
C1327 C1326 1.366 1_554 S
C1327 C1331 1.385 . S
C1328 H1309 0.951 . S
C1328 C1326 1.388 . S
C1328 C1329 1.366 . S
C1329 C1328 1.366 . S
C1329 C1330 1.414 . S
C1329 C1332 1.499 . S
C1330 H1310 0.950 . S
C1330 C1329 1.414 . S
C1330 C1331 1.374 1_556 S
C1331 H1311 0.950 . S
C1331 C1327 1.385 . S
C1331 C1330 1.374 1_554 S
C1332 C1329 1.499 . S
C1332 C1333 1.373 . S
C1332 C1334 1.389 . S
C1333 H1312 0.950 . S
C1333 C1332 1.373 . S
C1333 C1349 1.377 . S
C1334 C1332 1.389 . S
C1334 C1335 1.524 . S
C1334 C1348 1.377 . S
C1335 C1334 1.524 . S
C1335 C1336 1.397 . S
C1335 C1340 1.363 . S
C1336 H1313 0.950 . S
C1336 C1335 1.397 . S
C1336 C1337 1.334 . S
C1337 H1314 0.950 . S
C1337 C1336 1.334 . S
C1337 C1338 1.287 . S
C1338 C1337 1.287 . S
C1338 C1339 1.524 . S
C1338 H1357 0.913 . S
C1339 H1315 0.950 . S
C1339 C1338 1.524 . S
C1339 C1340 1.415 . S
C1340 H1316 0.950 . S
C1340 C1335 1.363 . S
C1340 C1339 1.415 . S
C1341 H1317 0.951 . S
C1341 C1342 1.366 . S
C1341 C1343 1.388 . S
C1342 C1341 1.366 . S
C1342 C1346 1.385 . S
C1343 H1318 0.951 . S
C1343 C1341 1.388 . S
C1343 C1344 1.366 . S
C1344 C1343 1.366 . S
C1344 C1345 1.414 . S
C1344 C1347 1.499 . S
C1345 H1319 0.950 . S
C1345 C1344 1.414 . S
C1345 C1346 1.374 . S
C1346 H1320 0.950 . S
C1346 C1342 1.385 . S
C1346 C1345 1.374 . S
C1347 C1344 1.499 . S
C1347 C1348 1.373 . S
C1347 C1349 1.389 . S
C1348 H1321 0.950 . S
C1348 C1334 1.377 . S
C1348 C1347 1.373 . S
C1349 C1333 1.377 . S
C1349 C1347 1.389 . S
C1349 C1350 1.524 . S
C1350 C1349 1.524 . S
C1350 C1351 1.397 . S
C1350 C1355 1.363 . S
C1351 H1322 0.950 . S
C1351 C1350 1.397 . S
C1351 C1352 1.334 . S
C1352 H1323 0.950 . S
C1352 C1351 1.334 . S
C1352 C1353 1.287 . S
C1353 C1352 1.287 . S
C1353 C1354 1.524 . S
C1353 H1356 0.999 . S
C1354 H1324 0.950 . S
C1354 C1353 1.524 . S
C1354 C1355 1.415 . S
C1355 H1325 0.950 . S
C1355 C1350 1.363 . S
C1355 C1354 1.415 . S
H1356 C1353 0.999 . S
H1357 C1338 0.913 . S
H1358 C1376 0.951 . S
H1359 C1378 0.951 . S
H1360 C1380 0.950 . S
H1361 C1381 0.950 . S
H1362 C1383 0.950 . S
H1363 C1386 0.950 . S
H1364 C1387 0.950 . S
H1365 C1389 0.950 . S
H1366 C1390 0.950 . S
H1367 C1391 0.951 . S
H1368 C1393 0.951 . S
H1369 C1395 0.950 . S
H1370 C1396 0.950 . S
H1371 C1398 0.950 . S
H1372 C1401 0.950 . S
H1373 C1402 0.950 . S
H1374 C1404 0.950 . S
H1375 C1405 0.950 . S
C1376 H1358 0.951 . S
C1376 C1377 1.366 . S
C1376 C1378 1.388 . S
C1377 C1376 1.366 . S
C1377 C1381 1.385 . S
C1378 H1359 0.951 . S
C1378 C1376 1.388 . S
C1378 C1379 1.366 . S
C1379 C1378 1.366 . S
C1379 C1380 1.414 . S
C1379 C1382 1.499 . S
C1380 H1360 0.950 . S
C1380 C1379 1.414 . S
C1380 C1381 1.374 . S
C1381 H1361 0.950 . S
C1381 C1377 1.385 . S
C1381 C1380 1.374 . S
C1382 C1379 1.499 . S
C1382 C1383 1.373 . S
C1382 C1384 1.389 . S
C1383 H1362 0.950 . S
C1383 C1382 1.373 . S
C1383 C1399 1.377 . S
C1384 C1382 1.389 . S
C1384 C1385 1.524 . S
C1384 C1398 1.377 . S
C1385 C1384 1.524 . S
C1385 C1386 1.397 . S
C1385 C1390 1.363 . S
C1386 H1363 0.950 . S
C1386 C1385 1.397 . S
C1386 C1387 1.334 . S
C1387 H1364 0.950 . S
C1387 C1386 1.334 . S
C1387 C1388 1.287 . S
C1388 C1387 1.287 . S
C1388 C1389 1.524 . S
C1388 H1407 0.913 . S
C1389 H1365 0.950 . S
C1389 C1388 1.524 . S
C1389 C1390 1.415 . S
C1390 H1366 0.950 . S
C1390 C1385 1.363 . S
C1390 C1389 1.415 . S
C1391 H1367 0.951 . S
C1391 C1392 1.366 . S
C1391 C1393 1.388 . S
C1392 C1391 1.366 . S
C1392 C1396 1.385 . S
C1393 H1368 0.951 . S
C1393 C1391 1.388 . S
C1393 C1394 1.366 . S
C1394 C1393 1.366 . S
C1394 C1395 1.414 . S
C1394 C1397 1.499 . S
C1395 H1369 0.950 . S
C1395 C1394 1.414 . S
C1395 C1396 1.374 . S
C1396 H1370 0.950 . S
C1396 C1392 1.385 . S
C1396 C1395 1.374 . S
C1397 C1394 1.499 . S
C1397 C1398 1.373 . S
C1397 C1399 1.389 . S
C1398 H1371 0.950 . S
C1398 C1384 1.377 . S
C1398 C1397 1.373 . S
C1399 C1383 1.377 . S
C1399 C1397 1.389 . S
C1399 C1400 1.524 . S
C1400 C1399 1.524 . S
C1400 C1401 1.397 . S
C1400 C1405 1.363 . S
C1401 H1372 0.950 . S
C1401 C1400 1.397 . S
C1401 C1402 1.334 . S
C1402 H1373 0.950 . S
C1402 C1401 1.334 . S
C1402 C1403 1.287 . S
C1403 C1402 1.287 . S
C1403 C1404 1.524 . S
C1403 H1406 0.999 . S
C1404 H1374 0.950 . S
C1404 C1403 1.524 . S
C1404 C1405 1.415 . S
C1405 H1375 0.950 . S
C1405 C1400 1.363 . S
C1405 C1404 1.415 . S
H1406 C1403 0.999 . S
H1407 C1388 0.913 . S
H1408 C1426 0.951 . S
H1409 C1428 0.951 . S
H1410 C1430 0.950 . S
H1411 C1431 0.950 . S
H1412 C1433 0.950 . S
H1413 C1436 0.950 . S
H1414 C1437 0.950 . S
H1415 C1439 0.950 . S
H1416 C1440 0.950 . S
H1417 C1441 0.951 . S
H1418 C1443 0.951 . S
H1419 C1445 0.950 . S
H1420 C1446 0.950 . S
H1421 C1448 0.950 . S
H1422 C1451 0.950 . S
H1423 C1452 0.950 . S
H1424 C1454 0.950 . S
H1425 C1455 0.950 . S
C1426 H1408 0.951 . S
C1426 C1427 1.366 . S
C1426 C1428 1.388 . S
C1427 C1426 1.366 . S
C1427 C1431 1.385 . S
C1428 H1409 0.951 . S
C1428 C1426 1.388 . S
C1428 C1429 1.366 . S
C1429 C1428 1.366 . S
C1429 C1430 1.414 . S
C1429 C1432 1.499 . S
C1430 H1410 0.950 . S
C1430 C1429 1.414 . S
C1430 C1431 1.374 . S
C1431 H1411 0.950 . S
C1431 C1427 1.385 . S
C1431 C1430 1.374 . S
C1432 C1429 1.499 . S
C1432 C1433 1.373 . S
C1432 C1434 1.389 . S
C1433 H1412 0.950 . S
C1433 C1432 1.373 . S
C1433 C1449 1.377 . S
C1434 C1432 1.389 . S
C1434 C1435 1.524 . S
C1434 C1448 1.377 . S
C1435 C1434 1.524 . S
C1435 C1436 1.397 . S
C1435 C1440 1.363 . S
C1436 H1413 0.950 . S
C1436 C1435 1.397 . S
C1436 C1437 1.334 . S
C1437 H1414 0.950 . S
C1437 C1436 1.334 . S
C1437 C1438 1.287 . S
C1438 C1437 1.287 . S
C1438 C1439 1.524 . S
C1438 H1457 0.913 . S
C1439 H1415 0.950 . S
C1439 C1438 1.524 . S
C1439 C1440 1.415 . S
C1440 H1416 0.950 . S
C1440 C1435 1.363 . S
C1440 C1439 1.415 . S
C1441 H1417 0.951 . S
C1441 C1442 1.366 . S
C1441 C1443 1.388 . S
C1442 C1441 1.366 . S
C1442 C1446 1.385 . S
C1443 H1418 0.951 . S
C1443 C1441 1.388 . S
C1443 C1444 1.366 . S
C1444 C1443 1.366 . S
C1444 C1445 1.414 . S
C1444 C1447 1.499 . S
C1445 H1419 0.950 . S
C1445 C1444 1.414 . S
C1445 C1446 1.374 . S
C1446 H1420 0.950 . S
C1446 C1442 1.385 . S
C1446 C1445 1.374 . S
C1447 C1444 1.499 . S
C1447 C1448 1.373 . S
C1447 C1449 1.389 . S
C1448 H1421 0.950 . S
C1448 C1434 1.377 . S
C1448 C1447 1.373 . S
C1449 C1433 1.377 . S
C1449 C1447 1.389 . S
C1449 C1450 1.524 . S
C1450 C1449 1.524 . S
C1450 C1451 1.397 . S
C1450 C1455 1.363 . S
C1451 H1422 0.950 . S
C1451 C1450 1.397 . S
C1451 C1452 1.334 . S
C1452 H1423 0.950 . S
C1452 C1451 1.334 . S
C1452 C1453 1.287 . S
C1453 C1452 1.287 . S
C1453 C1454 1.524 . S
C1453 H1456 0.999 . S
C1454 H1424 0.950 . S
C1454 C1453 1.524 . S
C1454 C1455 1.415 . S
C1455 H1425 0.950 . S
C1455 C1450 1.363 . S
C1455 C1454 1.415 . S
H1456 C1453 0.999 . S
H1457 C1438 0.913 . S
H1458 C1476 0.951 . S
H1459 C1478 0.951 . S
H1460 C1480 0.950 . S
H1461 C1481 0.950 . S
H1462 C1483 0.950 . S
H1463 C1486 0.950 . S
H1464 C1487 0.950 . S
H1465 C1489 0.950 . S
H1466 C1490 0.950 . S
H1467 C1491 0.951 . S
H1468 C1493 0.951 . S
H1469 C1495 0.950 . S
H1470 C1496 0.918 1_455 S
H1471 C1498 0.950 . S
H1472 C1501 0.950 . S
H1473 C1502 0.950 . S
H1474 C1504 0.950 . S
H1475 C1505 0.950 . S
C1476 H1458 0.951 . S
C1476 C1477 1.366 . S
C1476 C1478 1.388 . S
C1477 C1476 1.366 . S
C1477 C1481 1.385 . S
C1478 H1459 0.951 . S
C1478 C1476 1.388 . S
C1478 C1479 1.366 . S
C1479 C1478 1.366 . S
C1479 C1480 1.414 . S
C1479 C1482 1.499 . S
C1480 H1460 0.950 . S
C1480 C1479 1.414 . S
C1480 C1481 1.374 . S
C1481 H1461 0.950 . S
C1481 C1477 1.385 . S
C1481 C1480 1.374 . S
C1482 C1479 1.499 . S
C1482 C1483 1.373 . S
C1482 C1484 1.389 . S
C1483 H1462 0.950 . S
C1483 C1482 1.373 . S
C1483 C1499 1.377 . S
C1484 C1482 1.389 . S
C1484 C1485 1.524 . S
C1484 C1498 1.377 . S
C1485 C1484 1.524 . S
C1485 C1486 1.397 . S
C1485 C1490 1.363 . S
C1486 H1463 0.950 . S
C1486 C1485 1.397 . S
C1486 C1487 1.334 . S
C1487 H1464 0.950 . S
C1487 C1486 1.334 . S
C1487 C1488 1.287 . S
C1488 C1487 1.287 . S
C1488 C1489 1.524 . S
C1488 H1507 0.913 . S
C1489 H1465 0.950 . S
C1489 C1488 1.524 . S
C1489 C1490 1.415 . S
C1490 H1466 0.950 . S
C1490 C1485 1.363 . S
C1490 C1489 1.415 . S
C1491 H1467 0.951 . S
C1491 C1492 1.366 . S
C1491 C1493 1.388 . S
C1492 C1491 1.366 . S
C1492 C1496 1.385 . S
C1493 H1468 0.951 . S
C1493 C1491 1.388 . S
C1493 C1494 1.366 . S
C1494 C1493 1.366 . S
C1494 C1495 1.414 . S
C1494 C1497 1.499 . S
C1495 H1469 0.950 . S
C1495 C1494 1.414 . S
C1495 C1496 1.374 . S
C1496 H1470 0.918 1_655 S
C1496 C1492 1.385 . S
C1496 C1495 1.374 . S
C1497 C1494 1.499 . S
C1497 C1498 1.373 . S
C1497 C1499 1.389 . S
C1498 H1471 0.950 . S
C1498 C1484 1.377 . S
C1498 C1497 1.373 . S
C1499 C1483 1.377 . S
C1499 C1497 1.389 . S
C1499 C1500 1.524 . S
C1500 C1499 1.524 . S
C1500 C1501 1.397 . S
C1500 C1505 1.363 . S
C1501 H1472 0.950 . S
C1501 C1500 1.397 . S
C1501 C1502 1.334 . S
C1502 H1473 0.950 . S
C1502 C1501 1.334 . S
C1502 C1503 1.287 . S
C1503 C1502 1.287 . S
C1503 C1504 1.524 . S
C1503 H1506 0.999 . S
C1504 H1474 0.950 . S
C1504 C1503 1.524 . S
C1504 C1505 1.415 . S
C1505 H1475 0.950 . S
C1505 C1500 1.363 . S
C1505 C1504 1.415 . S
H1506 C1503 0.999 . S
H1507 C1488 0.913 . S
H1508 C1526 0.951 . S
H1509 C1528 0.951 . S
H1510 C1530 0.950 . S
H1511 C1531 0.950 . S
H1512 C1533 0.950 . S
H1513 C1536 0.950 . S
H1514 C1537 0.950 . S
H1515 C1539 0.950 . S
H1516 C1540 0.950 . S
H1517 C1541 0.951 . S
H1518 C1543 0.951 . S
H1519 C1545 0.950 . S
H1520 C1546 0.950 . S
H1521 C1548 0.950 . S
H1522 C1551 0.950 . S
H1523 C1552 0.950 . S
H1524 C1554 0.950 . S
H1525 C1555 0.950 . S
C1526 H1508 0.951 . S
C1526 C1527 1.366 . S
C1526 C1528 1.388 . S
C1527 C1526 1.366 . S
C1527 C1531 1.385 . S
C1528 H1509 0.951 . S
C1528 C1526 1.388 . S
C1528 C1529 1.366 . S
C1529 C1528 1.366 . S
C1529 C1530 1.414 . S
C1529 C1532 1.499 . S
C1530 H1510 0.950 . S
C1530 C1529 1.414 . S
C1530 C1531 1.374 . S
C1531 H1511 0.950 . S
C1531 C1527 1.385 . S
C1531 C1530 1.374 . S
C1532 C1529 1.499 . S
C1532 C1533 1.373 . S
C1532 C1534 1.389 . S
C1533 H1512 0.950 . S
C1533 C1532 1.373 . S
C1533 C1549 1.377 . S
C1534 C1532 1.389 . S
C1534 C1535 1.524 . S
C1534 C1548 1.377 . S
C1535 C1534 1.524 . S
C1535 C1536 1.397 . S
C1535 C1540 1.363 . S
C1536 H1513 0.950 . S
C1536 C1535 1.397 . S
C1536 C1537 1.334 . S
C1537 H1514 0.950 . S
C1537 C1536 1.334 . S
C1537 C1538 1.287 . S
C1538 C1537 1.287 . S
C1538 C1539 1.524 . S
C1538 H1557 0.913 . S
C1539 H1515 0.950 . S
C1539 C1538 1.524 . S
C1539 C1540 1.415 . S
C1540 H1516 0.950 . S
C1540 C1535 1.363 . S
C1540 C1539 1.415 . S
C1541 H1517 0.951 . S
C1541 C1542 1.366 . S
C1541 C1543 1.388 . S
C1542 C1541 1.366 . S
C1542 C1546 1.385 . S
C1543 H1518 0.951 . S
C1543 C1541 1.388 . S
C1543 C1544 1.366 . S
C1544 C1543 1.366 . S
C1544 C1545 1.414 . S
C1544 C1547 1.499 . S
C1545 H1519 0.950 . S
C1545 C1544 1.414 . S
C1545 C1546 1.374 . S
C1546 H1520 0.950 . S
C1546 C1542 1.385 . S
C1546 C1545 1.374 . S
C1547 C1544 1.499 . S
C1547 C1548 1.373 . S
C1547 C1549 1.389 . S
C1548 H1521 0.950 . S
C1548 C1534 1.377 . S
C1548 C1547 1.373 . S
C1549 C1533 1.377 . S
C1549 C1547 1.389 . S
C1549 C1550 1.524 . S
C1550 C1549 1.524 . S
C1550 C1551 1.397 . S
C1550 C1555 1.363 . S
C1551 H1522 0.950 . S
C1551 C1550 1.397 . S
C1551 C1552 1.334 . S
C1552 H1523 0.950 . S
C1552 C1551 1.334 . S
C1552 C1553 1.287 . S
C1553 C1552 1.287 . S
C1553 C1554 1.524 . S
C1553 H1556 0.999 . S
C1554 H1524 0.950 . S
C1554 C1553 1.524 . S
C1554 C1555 1.415 . S
C1555 H1525 0.950 . S
C1555 C1550 1.363 . S
C1555 C1554 1.415 . S
H1556 C1553 0.999 . S
H1557 C1538 0.913 . S
H1558 C1576 0.951 . S
H1559 C1578 0.951 . S
H1560 C1580 0.950 . S
H1561 C1581 0.950 . S
H1562 C1583 0.950 . S
H1563 C1586 0.950 . S
H1564 C1587 0.950 . S
H1565 C1589 0.950 . S
H1566 C1590 0.950 . S
H1567 C1591 0.951 . S
H1568 C1593 0.951 . S
H1569 C1595 0.950 . S
H1570 C1596 0.950 . S
H1571 C1598 0.950 . S
H1572 C1601 0.950 . S
H1573 C1602 0.950 . S
H1574 C1604 0.950 . S
H1575 C1605 0.950 . S
C1576 H1558 0.951 . S
C1576 C1577 1.366 . S
C1576 C1578 1.388 . S
C1577 C1576 1.366 . S
C1577 C1581 1.385 . S
C1578 H1559 0.951 . S
C1578 C1576 1.388 . S
C1578 C1579 1.366 . S
C1579 C1578 1.366 . S
C1579 C1580 1.414 . S
C1579 C1582 1.499 . S
C1580 H1560 0.950 . S
C1580 C1579 1.414 . S
C1580 C1581 1.374 . S
C1581 H1561 0.950 . S
C1581 C1577 1.385 . S
C1581 C1580 1.374 . S
C1582 C1579 1.499 . S
C1582 C1583 1.373 . S
C1582 C1584 1.389 . S
C1583 H1562 0.950 . S
C1583 C1582 1.373 . S
C1583 C1599 1.377 . S
C1584 C1582 1.389 . S
C1584 C1585 1.524 . S
C1584 C1598 1.377 . S
C1585 C1584 1.524 . S
C1585 C1586 1.397 . S
C1585 C1590 1.363 . S
C1586 H1563 0.950 . S
C1586 C1585 1.397 . S
C1586 C1587 1.334 . S
C1587 H1564 0.950 . S
C1587 C1586 1.334 . S
C1587 C1588 1.287 . S
C1588 C1587 1.287 . S
C1588 C1589 1.524 . S
C1588 H1607 0.913 . S
C1589 H1565 0.950 . S
C1589 C1588 1.524 . S
C1589 C1590 1.415 . S
C1590 H1566 0.950 . S
C1590 C1585 1.363 . S
C1590 C1589 1.415 . S
C1591 H1567 0.951 . S
C1591 C1592 1.366 . S
C1591 C1593 1.388 . S
C1592 C1591 1.366 . S
C1592 C1596 1.385 . S
C1593 H1568 0.951 . S
C1593 C1591 1.388 . S
C1593 C1594 1.366 . S
C1594 C1593 1.366 . S
C1594 C1595 1.414 . S
C1594 C1597 1.499 . S
C1595 H1569 0.950 . S
C1595 C1594 1.414 . S
C1595 C1596 1.374 . S
C1596 H1570 0.950 . S
C1596 C1592 1.385 . S
C1596 C1595 1.374 . S
C1597 C1594 1.499 . S
C1597 C1598 1.373 . S
C1597 C1599 1.389 . S
C1598 H1571 0.950 . S
C1598 C1584 1.377 . S
C1598 C1597 1.373 . S
C1599 C1583 1.377 . S
C1599 C1597 1.389 . S
C1599 C1600 1.524 . S
C1600 C1599 1.524 . S
C1600 C1601 1.397 . S
C1600 C1605 1.363 . S
C1601 H1572 0.950 . S
C1601 C1600 1.397 . S
C1601 C1602 1.334 . S
C1602 H1573 0.950 . S
C1602 C1601 1.334 . S
C1602 C1603 1.287 . S
C1603 C1602 1.287 . S
C1603 C1604 1.524 . S
C1603 H1606 0.999 . S
C1604 H1574 0.950 . S
C1604 C1603 1.524 . S
C1604 C1605 1.415 . S
C1605 H1575 0.950 . S
C1605 C1600 1.363 . S
C1605 C1604 1.415 . S
H1606 C1603 0.999 . S
H1607 C1588 0.913 . S
H1608 C1626 0.951 . S
H1609 C1628 0.951 . S
H1610 C1630 0.950 . S
H1611 C1631 0.950 . S
H1612 C1633 0.950 . S
H1613 C1636 0.950 . S
H1614 C1637 0.950 . S
H1615 C1639 0.950 . S
H1616 C1640 0.950 . S
H1617 C1641 0.951 . S
H1618 C1643 0.951 . S
H1619 C1645 0.950 . S
H1620 C1646 0.950 . S
H1621 C1648 0.950 . S
H1622 C1651 0.950 . S
H1623 C1652 0.950 . S
H1624 C1654 0.950 . S
H1625 C1655 0.950 . S
C1626 H1608 0.951 . S
C1626 C1627 1.366 . S
C1626 C1628 1.388 . S
C1627 C1626 1.366 . S
C1627 C1631 1.385 . S
C1628 H1609 0.951 . S
C1628 C1626 1.388 . S
C1628 C1629 1.366 . S
C1629 C1628 1.366 . S
C1629 C1630 1.414 . S
C1629 C1632 1.499 . S
C1630 H1610 0.950 . S
C1630 C1629 1.414 . S
C1630 C1631 1.374 . S
C1631 H1611 0.950 . S
C1631 C1627 1.385 . S
C1631 C1630 1.374 . S
C1632 C1629 1.499 . S
C1632 C1633 1.373 . S
C1632 C1634 1.389 . S
C1633 H1612 0.950 . S
C1633 C1632 1.373 . S
C1633 C1649 1.377 . S
C1634 C1632 1.389 . S
C1634 C1635 1.524 . S
C1634 C1648 1.377 . S
C1635 C1634 1.524 . S
C1635 C1636 1.397 . S
C1635 C1640 1.363 . S
C1636 H1613 0.950 . S
C1636 C1635 1.397 . S
C1636 C1637 1.334 . S
C1637 H1614 0.950 . S
C1637 C1636 1.334 . S
C1637 C1638 1.287 . S
C1638 C1637 1.287 . S
C1638 C1639 1.524 . S
C1638 H1657 0.913 . S
C1639 H1615 0.950 . S
C1639 C1638 1.524 . S
C1639 C1640 1.415 . S
C1640 H1616 0.950 . S
C1640 C1635 1.363 . S
C1640 C1639 1.415 . S
C1641 H1617 0.951 . S
C1641 C1642 1.366 . S
C1641 C1643 1.388 . S
C1642 C1641 1.366 . S
C1642 C1646 1.385 . S
C1643 H1618 0.951 . S
C1643 C1641 1.388 . S
C1643 C1644 1.366 . S
C1644 C1643 1.366 . S
C1644 C1645 1.414 . S
C1644 C1647 1.499 . S
C1645 H1619 0.950 . S
C1645 C1644 1.414 . S
C1645 C1646 1.374 . S
C1646 H1620 0.950 . S
C1646 C1642 1.385 . S
C1646 C1645 1.374 . S
C1647 C1644 1.499 . S
C1647 C1648 1.373 . S
C1647 C1649 1.389 . S
C1648 H1621 0.950 . S
C1648 C1634 1.377 . S
C1648 C1647 1.373 . S
C1649 C1633 1.377 . S
C1649 C1647 1.389 . S
C1649 C1650 1.524 . S
C1650 C1649 1.524 . S
C1650 C1651 1.397 . S
C1650 C1655 1.363 . S
C1651 H1622 0.950 . S
C1651 C1650 1.397 . S
C1651 C1652 1.334 . S
C1652 H1623 0.950 . S
C1652 C1651 1.334 . S
C1652 C1653 1.287 . S
C1653 C1652 1.287 . S
C1653 C1654 1.524 . S
C1653 H1656 0.999 . S
C1654 H1624 0.950 . S
C1654 C1653 1.524 . S
C1654 C1655 1.415 . S
C1655 H1625 0.950 . S
C1655 C1650 1.363 . S
C1655 C1654 1.415 . S
H1656 C1653 0.999 . S
H1657 C1638 0.913 . S
H1658 C1676 0.936 1_655 S
H1659 C1678 0.951 . S
H1660 C1680 0.950 . S
H1661 C1681 0.950 . S
H1662 C1683 0.950 . S
H1663 C1686 0.950 . S
H1664 C1687 0.950 . S
H1665 C1689 0.950 1_655 S
H1666 C1690 0.950 . S
H1667 C1691 0.951 . S
H1668 C1693 0.951 . S
H1669 C1695 0.950 . S
H1670 C1696 0.967 . S
H1671 C1698 0.950 . S
H1672 C1701 0.950 . S
H1673 C1702 0.950 . S
H1674 C1704 0.950 . S
H1675 C1705 0.950 . S
C1676 H1658 0.936 1_455 S
C1676 C1677 1.366 . S
C1676 C1678 1.388 . S
C1677 C1676 1.366 . S
C1677 C1681 1.385 . S
C1678 H1659 0.951 . S
C1678 C1676 1.388 . S
C1678 C1679 1.366 . S
C1679 C1678 1.366 . S
C1679 C1680 1.414 . S
C1679 C1682 1.499 . S
C1680 H1660 0.950 . S
C1680 C1679 1.414 . S
C1680 C1681 1.374 . S
C1681 H1661 0.950 . S
C1681 C1677 1.385 . S
C1681 C1680 1.374 . S
C1682 C1679 1.499 . S
C1682 C1683 1.373 . S
C1682 C1684 1.389 . S
C1683 H1662 0.950 . S
C1683 C1682 1.373 . S
C1683 C1699 1.377 . S
C1684 C1682 1.389 . S
C1684 C1685 1.524 . S
C1684 C1698 1.377 . S
C1685 C1684 1.524 . S
C1685 C1686 1.397 . S
C1685 C1690 1.363 . S
C1686 H1663 0.950 . S
C1686 C1685 1.397 . S
C1686 C1687 1.334 . S
C1687 H1664 0.950 . S
C1687 C1686 1.334 . S
C1687 C1688 1.287 . S
C1688 C1687 1.287 . S
C1688 C1689 1.524 . S
C1688 H1707 0.913 1_455 S
C1689 H1665 0.950 1_455 S
C1689 C1688 1.524 . S
C1689 C1690 1.415 . S
C1690 H1666 0.950 . S
C1690 C1685 1.363 . S
C1690 C1689 1.415 . S
C1691 H1667 0.951 . S
C1691 C1692 1.366 . S
C1691 C1693 1.388 . S
C1692 C1691 1.366 . S
C1692 C1696 1.385 . S
C1693 H1668 0.951 . S
C1693 C1691 1.388 . S
C1693 C1694 1.366 . S
C1694 C1693 1.366 . S
C1694 C1695 1.414 . S
C1694 C1697 1.499 . S
C1695 H1669 0.950 . S
C1695 C1694 1.414 . S
C1695 C1696 1.374 . S
C1696 H1670 0.967 . S
C1696 C1692 1.385 . S
C1696 C1695 1.374 . S
C1697 C1694 1.499 . S
C1697 C1698 1.373 . S
C1697 C1699 1.389 . S
C1698 H1671 0.950 . S
C1698 C1684 1.377 . S
C1698 C1697 1.373 . S
C1699 C1683 1.377 . S
C1699 C1697 1.389 . S
C1699 C1700 1.524 . S
C1700 C1699 1.524 . S
C1700 C1701 1.397 . S
C1700 C1705 1.363 . S
C1701 H1672 0.950 . S
C1701 C1700 1.397 . S
C1701 C1702 1.334 . S
C1702 H1673 0.950 . S
C1702 C1701 1.334 . S
C1702 C1703 1.287 . S
C1703 C1702 1.287 . S
C1703 C1704 1.524 . S
C1703 H1706 0.999 . S
C1704 H1674 0.950 . S
C1704 C1703 1.524 . S
C1704 C1705 1.415 . S
C1705 H1675 0.950 . S
C1705 C1700 1.363 . S
C1705 C1704 1.415 . S
H1706 C1703 0.999 . S
H1707 C1688 0.913 1_655 S
H1708 C1726 0.951 . S
H1709 C1728 0.951 . S
H1710 C1730 0.950 . S
H1711 C1731 0.950 . S
H1712 C1733 0.950 . S
H1713 C1736 0.950 . S
H1714 C1737 0.950 . S
H1715 C1739 0.950 . S
H1716 C1740 0.950 . S
H1717 C1741 0.951 . S
H1718 C1743 0.951 . S
H1719 C1745 0.950 . S
H1720 C1746 0.950 . S
H1721 C1748 0.950 . S
H1722 C1751 0.950 . S
H1723 C1752 0.950 . S
H1724 C1754 0.950 . S
H1725 C1755 0.950 . S
C1726 H1708 0.951 . S
C1726 C1727 1.366 . S
C1726 C1728 1.388 . S
C1727 C1726 1.366 . S
C1727 C1731 1.385 . S
C1728 H1709 0.951 . S
C1728 C1726 1.388 . S
C1728 C1729 1.366 . S
C1729 C1728 1.366 . S
C1729 C1730 1.414 . S
C1729 C1732 1.499 . S
C1730 H1710 0.950 . S
C1730 C1729 1.414 . S
C1730 C1731 1.374 . S
C1731 H1711 0.950 . S
C1731 C1727 1.385 . S
C1731 C1730 1.374 . S
C1732 C1729 1.499 . S
C1732 C1733 1.373 . S
C1732 C1734 1.389 . S
C1733 H1712 0.950 . S
C1733 C1732 1.373 . S
C1733 C1749 1.377 . S
C1734 C1732 1.389 . S
C1734 C1735 1.524 . S
C1734 C1748 1.377 . S
C1735 C1734 1.524 . S
C1735 C1736 1.397 . S
C1735 C1740 1.363 . S
C1736 H1713 0.950 . S
C1736 C1735 1.397 . S
C1736 C1737 1.334 . S
C1737 H1714 0.950 . S
C1737 C1736 1.334 . S
C1737 C1738 1.287 . S
C1738 C1737 1.287 . S
C1738 C1739 1.524 . S
C1738 H1757 0.913 . S
C1739 H1715 0.950 . S
C1739 C1738 1.524 . S
C1739 C1740 1.415 . S
C1740 H1716 0.950 . S
C1740 C1735 1.363 . S
C1740 C1739 1.415 . S
C1741 H1717 0.951 . S
C1741 C1742 1.366 . S
C1741 C1743 1.388 . S
C1742 C1741 1.366 . S
C1742 C1746 1.385 . S
C1743 H1718 0.951 . S
C1743 C1741 1.388 . S
C1743 C1744 1.366 . S
C1744 C1743 1.366 . S
C1744 C1745 1.414 . S
C1744 C1747 1.499 . S
C1745 H1719 0.950 . S
C1745 C1744 1.414 . S
C1745 C1746 1.374 . S
C1746 H1720 0.950 . S
C1746 C1742 1.385 . S
C1746 C1745 1.374 . S
C1747 C1744 1.499 . S
C1747 C1748 1.373 . S
C1747 C1749 1.389 . S
C1748 H1721 0.950 . S
C1748 C1734 1.377 . S
C1748 C1747 1.373 . S
C1749 C1733 1.377 . S
C1749 C1747 1.389 . S
C1749 C1750 1.524 . S
C1750 C1749 1.524 . S
C1750 C1751 1.397 . S
C1750 C1755 1.363 . S
C1751 H1722 0.950 . S
C1751 C1750 1.397 . S
C1751 C1752 1.334 . S
C1752 H1723 0.950 . S
C1752 C1751 1.334 . S
C1752 C1753 1.287 . S
C1753 C1752 1.287 . S
C1753 C1754 1.524 . S
C1753 H1756 0.999 . S
C1754 H1724 0.950 . S
C1754 C1753 1.524 . S
C1754 C1755 1.415 . S
C1755 H1725 0.950 . S
C1755 C1750 1.363 . S
C1755 C1754 1.415 . S
H1756 C1753 0.999 . S
H1757 C1738 0.913 . S
H1758 C1776 0.951 . S
H1759 C1778 0.951 . S
H1760 C1780 0.950 . S
H1761 C1781 0.950 . S
H1762 C1783 0.950 . S
H1763 C1786 0.950 . S
H1764 C1787 0.950 . S
H1765 C1789 0.950 . S
H1766 C1790 0.950 . S
H1767 C1791 0.951 . S
H1768 C1793 0.951 . S
H1769 C1795 0.950 . S
H1770 C1796 0.950 . S
H1771 C1798 0.950 . S
H1772 C1801 0.950 . S
H1773 C1802 0.950 . S
H1774 C1804 0.950 . S
H1775 C1805 0.950 . S
C1776 H1758 0.951 . S
C1776 C1777 1.366 . S
C1776 C1778 1.388 . S
C1777 C1776 1.366 . S
C1777 C1781 1.385 . S
C1778 H1759 0.951 . S
C1778 C1776 1.388 . S
C1778 C1779 1.366 . S
C1779 C1778 1.366 . S
C1779 C1780 1.414 . S
C1779 C1782 1.499 . S
C1780 H1760 0.950 . S
C1780 C1779 1.414 . S
C1780 C1781 1.374 . S
C1781 H1761 0.950 . S
C1781 C1777 1.385 . S
C1781 C1780 1.374 . S
C1782 C1779 1.499 . S
C1782 C1783 1.373 . S
C1782 C1784 1.389 . S
C1783 H1762 0.950 . S
C1783 C1782 1.373 . S
C1783 C1799 1.377 . S
C1784 C1782 1.389 . S
C1784 C1785 1.524 . S
C1784 C1798 1.377 . S
C1785 C1784 1.524 . S
C1785 C1786 1.397 . S
C1785 C1790 1.363 . S
C1786 H1763 0.950 . S
C1786 C1785 1.397 . S
C1786 C1787 1.334 . S
C1787 H1764 0.950 . S
C1787 C1786 1.334 . S
C1787 C1788 1.287 . S
C1788 C1787 1.287 . S
C1788 C1789 1.524 . S
C1788 H1807 0.913 . S
C1789 H1765 0.950 . S
C1789 C1788 1.524 . S
C1789 C1790 1.415 . S
C1790 H1766 0.950 . S
C1790 C1785 1.363 . S
C1790 C1789 1.415 . S
C1791 H1767 0.951 . S
C1791 C1792 1.366 . S
C1791 C1793 1.388 . S
C1792 C1791 1.366 . S
C1792 C1796 1.385 . S
C1793 H1768 0.951 . S
C1793 C1791 1.388 . S
C1793 C1794 1.366 . S
C1794 C1793 1.366 . S
C1794 C1795 1.414 . S
C1794 C1797 1.499 . S
C1795 H1769 0.950 . S
C1795 C1794 1.414 . S
C1795 C1796 1.374 . S
C1796 H1770 0.950 . S
C1796 C1792 1.385 . S
C1796 C1795 1.374 . S
C1797 C1794 1.499 . S
C1797 C1798 1.373 . S
C1797 C1799 1.389 . S
C1798 H1771 0.950 . S
C1798 C1784 1.377 . S
C1798 C1797 1.373 . S
C1799 C1783 1.377 . S
C1799 C1797 1.389 . S
C1799 C1800 1.524 . S
C1800 C1799 1.524 . S
C1800 C1801 1.397 . S
C1800 C1805 1.363 . S
C1801 H1772 0.950 . S
C1801 C1800 1.397 . S
C1801 C1802 1.334 . S
C1802 H1773 0.950 . S
C1802 C1801 1.334 . S
C1802 C1803 1.287 . S
C1803 C1802 1.287 . S
C1803 C1804 1.524 . S
C1803 H1806 0.999 . S
C1804 H1774 0.950 . S
C1804 C1803 1.524 . S
C1804 C1805 1.415 . S
C1805 H1775 0.950 . S
C1805 C1800 1.363 . S
C1805 C1804 1.415 . S
H1806 C1803 0.999 . S
H1807 C1788 0.913 . S
C227 C4 0.929 . S
C242 C56 0.928 . S
C277 C69 0.929 . S
C292 C23 0.928 . S
C327 C36 0.928 . S
C342 C88 0.929 . S
C377 C49 0.929 . S
C392 C101 0.928 . S
C427 C108 0.928 . S
C442 C160 0.929 . S
C477 C173 0.929 . S
C492 C127 0.928 . S
C527 C140 0.929 . S
C542 C192 0.928 . S
C577 C147 0.929 . S
C592 C205 0.928 . S
C627 C10 1.604 . S
C642 C198 1.608 . S
C677 C161 1.608 . S
C692 C17 1.604 . S
C727 C30 1.605 . S
C742 C174 1.608 . S
C777 C185 1.608 . S
C792 C43 1.605 . S
C827 C120 1.608 . S
C842 C62 1.605 . S
C877 C133 1.607 . S
C892 C75 1.605 . S
C927 C148 1.608 . S
C942 C82 1.605 . S
C977 C109 1.608 . S
C992 C95 1.605 . S
C1027 C114 1.604 . S
C1042 C94 1.608 . S
C1077 C57 1.608 . S
C1092 C121 1.605 . S
C1127 C70 1.608 . S
C1142 C134 1.605 . S
C1177 C153 1.604 . S
C1192 C81 1.608 . S
C1227 C16 1.608 . S
C1242 C166 1.604 . S
C1277 C179 1.605 . S
C1292 C29 1.607 . S
C1327 C186 1.605 . S
C1342 C42 1.608 . S
C1377 C199 1.605 . S
C1392 C5 1.608 . S
C1427 C96 1.079 . S
C1442 C3 1.080 . S
C1477 C18 1.079 . S
C1492 C55 1.079 . S
C1527 C31 1.079 . S
C1542 C68 1.080 . S
C1577 C44 1.080 . S
C1592 C83 1.079 . S
C1627 C200 1.079 . S
C1642 C107 1.079 . S
C1677 C159 1.079 . S
C1692 C122 1.079 . S
C1727 C172 1.079 . S
C1742 C135 1.080 . S
C1777 C187 1.079 . S
C1792 C146 1.079 . S
