# Generated by pormake.
# Topology wiv, (6)-cn, num edge types: 1
# Building blocks:
#     Node 0, Type 0, BuildingBlock: INOVEN_clean_sbu_0, # of connection points: 6
#     Node 1, Type 0, BuildingBlock: INOVEN_clean_sbu_0, # of connection points: 6
#     Node 2, Type 0, BuildingBlock: INOVEN_clean_sbu_0, # of connection points: 6
#     Node 3, Type 0, BuildingBlock: INOVEN_clean_sbu_0, # of connection points: 6
#     Node 4, Type 0, BuildingBlock: INOVEN_clean_sbu_0, # of connection points: 6
#     Node 5, Type 0, BuildingBlock: INOVEN_clean_sbu_0, # of connection points: 6
#     Node 6, Type 0, BuildingBlock: INOVEN_clean_sbu_0, # of connection points: 6
#     Node 7, Type 0, BuildingBlock: INOVEN_clean_sbu_0, # of connection points: 6
#     Node 8, Type 0, BuildingBlock: INOVEN_clean_sbu_0, # of connection points: 6
#     Node 9, Type 0, BuildingBlock: INOVEN_clean_sbu_0, # of connection points: 6
#     Node 10, Type 0, BuildingBlock: INOVEN_clean_sbu_0, # of connection points: 6
#     Node 11, Type 0, BuildingBlock: INOVEN_clean_sbu_0, # of connection points: 6
#     Node 12, Type 0, BuildingBlock: INOVEN_clean_sbu_0, # of connection points: 6
#     Node 13, Type 0, BuildingBlock: INOVEN_clean_sbu_0, # of connection points: 6
#     Node 14, Type 0, BuildingBlock: INOVEN_clean_sbu_0, # of connection points: 6
#     Node 15, Type 0, BuildingBlock: INOVEN_clean_sbu_0, # of connection points: 6
#     Edge 16, Type (0, 0), BuildingBlock: KIFKEQ_clean_linker_1, # of connection points: 2
#     Edge 17, Type (0, 0), BuildingBlock: KIFKEQ_clean_linker_1, # of connection points: 2
#     Edge 18, Type (0, 0), BuildingBlock: KIFKEQ_clean_linker_1, # of connection points: 2
#     Edge 19, Type (0, 0), BuildingBlock: KIFKEQ_clean_linker_1, # of connection points: 2
#     Edge 20, Type (0, 0), BuildingBlock: KIFKEQ_clean_linker_1, # of connection points: 2
#     Edge 21, Type (0, 0), BuildingBlock: KIFKEQ_clean_linker_1, # of connection points: 2
#     Edge 22, Type (0, 0), BuildingBlock: KIFKEQ_clean_linker_1, # of connection points: 2
#     Edge 23, Type (0, 0), BuildingBlock: KIFKEQ_clean_linker_1, # of connection points: 2
#     Edge 24, Type (0, 0), BuildingBlock: KIFKEQ_clean_linker_1, # of connection points: 2
#     Edge 25, Type (0, 0), BuildingBlock: KIFKEQ_clean_linker_1, # of connection points: 2
#     Edge 26, Type (0, 0), BuildingBlock: KIFKEQ_clean_linker_1, # of connection points: 2
#     Edge 27, Type (0, 0), BuildingBlock: KIFKEQ_clean_linker_1, # of connection points: 2
#     Edge 28, Type (0, 0), BuildingBlock: KIFKEQ_clean_linker_1, # of connection points: 2
#     Edge 29, Type (0, 0), BuildingBlock: KIFKEQ_clean_linker_1, # of connection points: 2
#     Edge 30, Type (0, 0), BuildingBlock: KIFKEQ_clean_linker_1, # of connection points: 2
#     Edge 31, Type (0, 0), BuildingBlock: KIFKEQ_clean_linker_1, # of connection points: 2
#     Edge 32, Type (0, 0), BuildingBlock: KIFKEQ_clean_linker_1, # of connection points: 2
#     Edge 33, Type (0, 0), BuildingBlock: KIFKEQ_clean_linker_1, # of connection points: 2
#     Edge 34, Type (0, 0), BuildingBlock: KIFKEQ_clean_linker_1, # of connection points: 2
#     Edge 35, Type (0, 0), BuildingBlock: KIFKEQ_clean_linker_1, # of connection points: 2
#     Edge 36, Type (0, 0), BuildingBlock: KIFKEQ_clean_linker_1, # of connection points: 2
#     Edge 37, Type (0, 0), BuildingBlock: KIFKEQ_clean_linker_1, # of connection points: 2
#     Edge 38, Type (0, 0), BuildingBlock: KIFKEQ_clean_linker_1, # of connection points: 2
#     Edge 39, Type (0, 0), BuildingBlock: KIFKEQ_clean_linker_1, # of connection points: 2
#     Edge 40, Type (0, 0), BuildingBlock: KIFKEQ_clean_linker_1, # of connection points: 2
#     Edge 41, Type (0, 0), BuildingBlock: KIFKEQ_clean_linker_1, # of connection points: 2
#     Edge 42, Type (0, 0), BuildingBlock: KIFKEQ_clean_linker_1, # of connection points: 2
#     Edge 43, Type (0, 0), BuildingBlock: KIFKEQ_clean_linker_1, # of connection points: 2
#     Edge 44, Type (0, 0), BuildingBlock: KIFKEQ_clean_linker_1, # of connection points: 2
#     Edge 45, Type (0, 0), BuildingBlock: KIFKEQ_clean_linker_1, # of connection points: 2
#     Edge 46, Type (0, 0), BuildingBlock: KIFKEQ_clean_linker_1, # of connection points: 2
#     Edge 47, Type (0, 0), BuildingBlock: KIFKEQ_clean_linker_1, # of connection points: 2
#     Edge 48, Type (0, 0), BuildingBlock: KIFKEQ_clean_linker_1, # of connection points: 2
#     Edge 49, Type (0, 0), BuildingBlock: KIFKEQ_clean_linker_1, # of connection points: 2
#     Edge 50, Type (0, 0), BuildingBlock: KIFKEQ_clean_linker_1, # of connection points: 2
#     Edge 51, Type (0, 0), BuildingBlock: KIFKEQ_clean_linker_1, # of connection points: 2
#     Edge 52, Type (0, 0), BuildingBlock: KIFKEQ_clean_linker_1, # of connection points: 2
#     Edge 53, Type (0, 0), BuildingBlock: KIFKEQ_clean_linker_1, # of connection points: 2
#     Edge 54, Type (0, 0), BuildingBlock: KIFKEQ_clean_linker_1, # of connection points: 2
#     Edge 55, Type (0, 0), BuildingBlock: KIFKEQ_clean_linker_1, # of connection points: 2
#     Edge 56, Type (0, 0), BuildingBlock: KIFKEQ_clean_linker_1, # of connection points: 2
#     Edge 57, Type (0, 0), BuildingBlock: KIFKEQ_clean_linker_1, # of connection points: 2
#     Edge 58, Type (0, 0), BuildingBlock: KIFKEQ_clean_linker_1, # of connection points: 2
#     Edge 59, Type (0, 0), BuildingBlock: KIFKEQ_clean_linker_1, # of connection points: 2
#     Edge 60, Type (0, 0), BuildingBlock: KIFKEQ_clean_linker_1, # of connection points: 2
#     Edge 61, Type (0, 0), BuildingBlock: KIFKEQ_clean_linker_1, # of connection points: 2
#     Edge 62, Type (0, 0), BuildingBlock: KIFKEQ_clean_linker_1, # of connection points: 2
#     Edge 63, Type (0, 0), BuildingBlock: KIFKEQ_clean_linker_1, # of connection points: 2
# Relax obj value: 0.110
# Max RMSD: 0.176
# Mean RMSD: 0.176
data_MOF--net-wiv--node1-INOVEN_clean_sbu_0--edge1-KIFKEQ_clean_linker_1
_symmetry_space_group_name_H-M    P1
_symmetry_Int_Tables_number       1
_symmetry_cell_setting            triclinic
loop_
_symmetry_equiv_pos_as_xyz
'x, y, z'
_cell_length_a     52.128858
_cell_length_b     52.054638
_cell_length_c     25.123477
_cell_angle_alpha  90.206012
_cell_angle_beta   90.27326
_cell_angle_gamma 90.007905
loop_
_atom_site_label
_atom_site_type_symbol
_atom_site_fract_x
_atom_site_fract_y
_atom_site_fract_z
_atom_type_partial_charge
Gd0 Gd 0.34548 0.10843 0.17276 0.0
Gd1 Gd 0.38393 0.11482 0.07671 0.0
C2 C 0.40703 0.12264 0.19231 0.0
C3 C 0.32604 0.08907 0.25839 0.0
C4 C 0.32828 0.0944 0.31615 0.0
C5 C 0.33537 0.11878 0.33527 0.0
C6 C 0.3254 0.07423 0.35251 0.0
C7 C 0.33713 0.10257 0.42659 0.0
C8 C 0.32976 0.07824 0.40702 0.0
C9 C 0.33963 0.12285 0.38987 0.0
C10 C 0.35274 0.15936 0.15343 0.0
C11 C 0.32205 0.10618 0.05245 0.0
C12 C 0.40483 0.12531 0.98582 0.0
C13 C 0.39658 0.12429 0.9293 0.0
C14 C 0.37713 0.10741 0.91231 0.0
C15 C 0.40862 0.13992 0.89154 0.0
C16 C 0.38213 0.12159 0.82032 0.0
C17 C 0.40155 0.13855 0.83764 0.0
C18 C 0.36988 0.10617 0.85853 0.0
C19 C 0.38179 0.06786 0.1235 0.0
O20 O 0.38551 0.11196 0.2101 0.0
O21 O 0.40981 0.12933 0.14181 0.0
O22 O 0.31396 0.10604 0.22892 0.0
O23 O 0.347 0.08047 0.23611 0.0
O24 O 0.33697 0.15053 0.18861 0.0
O25 O 0.36282 0.14057 0.12956 0.0
O26 O 0.34532 0.11229 0.03578 0.0
O27 O 0.31725 0.10168 0.10374 0.0
O28 O 0.40725 0.10317 1.00982 0.0
O29 O 0.39397 0.14276 1.01594 0.0
O30 O 0.40262 0.07811 0.10494 0.0
O31 O 0.3629 0.08248 0.11398 0.0
H32 H 0.33803 0.13458 0.3079 0.0
H33 H 0.32036 0.05516 0.33856 0.0
H34 H 0.32806 0.062 0.43357 0.0
H35 H 0.34494 0.14193 0.40323 0.0
H36 H 0.36767 0.09497 0.94058 0.0
H37 H 0.42366 0.15309 0.90367 0.0
H38 H 0.4112 0.15092 0.80956 0.0
H39 H 0.35505 0.0927 0.84673 0.0
Gd40 Gd 0.11293 0.6238 0.97605 0.0
Gd41 Gd 0.11138 0.66037 0.88723 0.0
C42 C 0.10634 0.68498 1.00362 0.0
C43 C 0.1211 0.60107 0.06635 0.0
C44 C 0.12059 0.6081 0.12366 0.0
C45 C 0.10648 0.59296 0.15915 0.0
C46 C 0.13375 0.62971 0.14356 0.0
C47 C 0.1186 0.62082 0.2336 0.0
C48 C 0.13273 0.63602 0.19785 0.0
C49 C 0.10546 0.59922 0.21337 0.0
C50 C 0.06625 0.62778 0.92834 0.0
C51 C 0.11962 0.5981 0.86345 0.0
C52 C 0.10204 0.68226 0.79633 0.0
C53 C 0.10438 0.67555 0.73885 0.0
C54 C 0.12798 0.67742 0.71217 0.0
C55 C 0.08261 0.66779 0.70962 0.0
C56 C 0.10802 0.66364 0.62861 0.0
C57 C 0.08442 0.66182 0.65534 0.0
C58 C 0.12977 0.67153 0.6578 0.0
C59 C 0.15932 0.65421 0.92768 0.0
O60 O 0.11387 0.66201 1.01929 0.0
O61 O 0.10106 0.68917 0.95262 0.0
O62 O 0.09897 0.60072 0.04171 0.0
O63 O 0.13941 0.61086 0.03723 0.0
O64 O 0.07604 0.60648 0.94562 0.0
O65 O 0.08105 0.64636 0.9395 0.0
O66 O 0.11328 0.62114 0.8449 0.0
O67 O 0.12363 0.59452 0.91476 0.0
O68 O 0.12319 0.68584 0.82351 0.0
O69 O 0.08478 0.66979 0.82351 0.0
O70 O 0.14918 0.67612 0.91498 0.0
O71 O 0.14322 0.63637 0.91948 0.0
H72 H 0.0961 0.57625 0.14484 0.0
H73 H 0.14484 0.64178 0.11723 0.0
H74 H 0.14332 0.65263 0.21189 0.0
H75 H 0.09405 0.58727 0.23931 0.0
H76 H 0.14515 0.68346 0.73321 0.0
H77 H 0.06406 0.66645 0.72869 0.0
H78 H 0.06718 0.6562 0.63409 0.0
H79 H 0.14831 0.67291 0.63875 0.0
Gd80 Gd 0.66383 0.90385 0.16848 0.0
Gd81 Gd 0.62543 0.89737 0.07177 0.0
C82 C 0.60234 0.88911 0.18651 0.0
C83 C 0.6832 0.92279 0.25527 0.0
C84 C 0.67936 0.91738 0.31263 0.0
C85 C 0.69849 0.92348 0.35007 0.0
C86 C 0.65621 0.90678 0.33066 0.0
C87 C 0.67101 0.90911 0.42301 0.0
C88 C 0.65203 0.90283 0.38502 0.0
C89 C 0.69441 0.91935 0.40463 0.0
C90 C 0.65679 0.8529 0.1484 0.0
C91 C 0.68732 0.90658 0.04877 0.0
C92 C 0.60408 0.88725 0.98065 0.0
C93 C 0.61182 0.88752 0.92386 0.0
C94 C 0.59535 0.89852 0.88593 0.0
C95 C 0.63561 0.87779 0.90701 0.0
C96 C 0.62638 0.89045 0.81523 0.0
C97 C 0.64287 0.87935 0.85336 0.0
C98 C 0.60248 0.89993 0.83232 0.0
C99 C 0.62681 0.94381 0.12118 0.0
O100 O 0.62372 0.90011 0.20485 0.0
O101 O 0.59972 0.88234 0.13589 0.0
O102 O 0.69477 0.90501 0.22708 0.0
O103 O 0.66345 0.93278 0.23041 0.0
O104 O 0.67243 0.86186 0.18409 0.0
O105 O 0.64669 0.87156 0.12423 0.0
O106 O 0.664 0.90068 0.03131 0.0
O107 O 0.69218 0.91044 0.10041 0.0
O108 O 0.60266 0.90971 1.00402 0.0
O109 O 0.61415 0.86956 1.01139 0.0
O110 O 0.60597 0.93308 0.10327 0.0
O111 O 0.64595 0.92979 0.11041 0.0
H112 H 0.71655 0.93159 0.33716 0.0
H113 H 0.64113 0.90183 0.30276 0.0
H114 H 0.63361 0.89533 0.39724 0.0
H115 H 0.70968 0.92408 0.43234 0.0
H116 H 0.57696 0.90628 0.8979 0.0
H117 H 0.6487 0.86913 0.93534 0.0
H118 H 0.6613 0.87163 0.84168 0.0
H119 H 0.58942 0.9089 0.80438 0.0
Gd120 Gd 0.89759 0.38582 0.97531 0.0
Gd121 Gd 0.89954 0.3487 0.88651 0.0
C122 C 0.90564 0.32454 1.00292 0.0
C123 C 0.88901 0.40866 0.06553 0.0
C124 C 0.89151 0.40213 0.12271 0.0
C125 C 0.9109 0.3856 0.14117 0.0
C126 C 0.87404 0.41234 0.15941 0.0
C127 C 0.89535 0.38979 0.23249 0.0
C128 C 0.87593 0.4063 0.21362 0.0
C129 C 0.91276 0.37944 0.1954 0.0
C130 C 0.94387 0.38273 0.92645 0.0
C131 C 0.88962 0.41048 0.86266 0.0
C132 C 0.90896 0.32711 0.79521 0.0
C133 C 0.90767 0.33455 0.73799 0.0
C134 C 0.884 0.33771 0.71159 0.0
C135 C 0.93035 0.33789 0.70872 0.0
C136 C 0.90576 0.34732 0.62795 0.0
C137 C 0.92942 0.34424 0.65451 0.0
C138 C 0.88307 0.34402 0.6574 0.0
C139 C 0.85171 0.35418 0.92747 0.0
O140 O 0.89948 0.34787 1.01928 0.0
O141 O 0.90921 0.31975 0.95154 0.0
O142 O 0.91029 0.41128 0.03868 0.0
O143 O 0.87131 0.39625 0.03875 0.0
O144 O 0.93357 0.40397 0.94299 0.0
O145 O 0.92972 0.36388 0.93864 0.0
O146 O 0.89828 0.38801 0.84506 0.0
O147 O 0.88396 0.41364 0.91341 0.0
O148 O 0.88728 0.32458 0.82056 0.0
O149 O 0.92664 0.33814 0.82448 0.0
O150 O 0.86201 0.33241 0.9142 0.0
O151 O 0.86745 0.37221 0.91891 0.0
H152 H 0.92466 0.3775 0.11367 0.0
H153 H 0.85883 0.42501 0.14609 0.0
H154 H 0.86193 0.41433 0.24068 0.0
H155 H 0.92811 0.36688 0.20834 0.0
H156 H 0.8661 0.33514 0.73259 0.0
H157 H 0.94888 0.33553 0.72778 0.0
H158 H 0.94731 0.34694 0.63353 0.0
H159 H 0.86449 0.34583 0.63837 0.0
Gd160 Gd 0.34755 0.40125 0.13553 0.0
Gd161 Gd 0.38454 0.39881 0.22403 0.0
C162 C 0.40928 0.3909 0.11173 0.0
C163 C 0.32586 0.41145 0.04467 0.0
C164 C 0.33303 0.40978 0.98765 0.0
C165 C 0.34601 0.38831 0.96696 0.0
C166 C 0.32668 0.42998 0.95319 0.0
C167 C 0.34548 0.40701 0.87772 0.0
C168 C 0.33286 0.42867 0.89899 0.0
C169 C 0.35207 0.3869 0.91267 0.0
C170 C 0.35272 0.35309 0.17535 0.0
C171 C 0.32353 0.40611 0.25189 0.0
C172 C 0.40699 0.3914 0.31516 0.0
C173 C 0.39961 0.39298 0.37242 0.0
C174 C 0.40491 0.41526 0.4024 0.0
C175 C 0.38781 0.37212 0.39816 0.0
C176 C 0.38668 0.3959 0.4822 0.0
C177 C 0.38144 0.37357 0.45228 0.0
C178 C 0.39843 0.41675 0.45643 0.0
C179 C 0.38148 0.44531 0.17527 0.0
O180 O 0.38683 0.39961 0.0941 0.0
O181 O 0.41247 0.38525 0.16251 0.0
O182 O 0.32271 0.38983 0.07009 0.0
O183 O 0.33792 0.42867 0.07332 0.0
O184 O 0.33104 0.36357 0.16206 0.0
O185 O 0.37085 0.36879 0.16748 0.0
O186 O 0.34648 0.3983 0.26716 0.0
O187 O 0.31913 0.41165 0.2011 0.0
O188 O 0.40829 0.41303 0.28897 0.0
O189 O 0.39692 0.37285 0.28658 0.0
O190 O 0.40272 0.43467 0.19073 0.0
O191 O 0.36269 0.43124 0.18807 0.0
H192 H 0.35133 0.37248 0.99263 0.0
H193 H 0.31688 0.44684 0.96823 0.0
H194 H 0.3279 0.44479 0.87386 0.0
H195 H 0.36153 0.36979 0.89801 0.0
H196 H 0.41426 0.43158 0.38419 0.0
H197 H 0.38353 0.35459 0.37656 0.0
H198 H 0.37219 0.35723 0.4706 0.0
H199 H 0.4031 0.43411 0.47829 0.0
Gd200 Gd 0.39769 0.6243 0.81623 0.0
Gd201 Gd 0.40132 0.66262 0.91338 0.0
C202 C 0.40599 0.6863 0.79372 0.0
C203 C 0.38828 0.60298 0.72479 0.0
C204 C 0.38894 0.61083 0.66822 0.0
C205 C 0.39407 0.5924 0.62889 0.0
C206 C 0.38547 0.63656 0.653 0.0
C207 C 0.39285 0.62531 0.55972 0.0
C208 C 0.38748 0.64374 0.5994 0.0
C209 C 0.39591 0.5995 0.57531 0.0
C210 C 0.4431 0.62655 0.86875 0.0
C211 C 0.38797 0.60062 0.93078 0.0
C212 C 0.41953 0.68305 0.99977 0.0
C213 C 0.4142 0.67962 0.05704 0.0
C214 C 0.42648 0.69514 0.09512 0.0
C215 C 0.39807 0.65974 0.07422 0.0
C216 C 0.40753 0.67013 0.16711 0.0
C217 C 0.39484 0.65497 0.12861 0.0
C218 C 0.4231 0.69054 0.14965 0.0
C219 C 0.35112 0.65442 0.88997 0.0
O220 O 0.40258 0.66264 0.77557 0.0
O221 O 0.40708 0.6915 0.84573 0.0
O222 O 0.41054 0.60159 0.74889 0.0
O223 O 0.37043 0.61323 0.75474 0.0
O224 O 0.43336 0.60553 0.84923 0.0
O225 O 0.42881 0.64549 0.85754 0.0
O226 O 0.39661 0.62273 0.95097 0.0
O227 O 0.38361 0.59747 0.87917 0.0
O228 O 0.40149 0.69391 0.97103 0.0
O229 O 0.42981 0.66312 0.97613 0.0
O230 O 0.35911 0.67007 0.92668 0.0
O231 O 0.37029 0.64477 0.86665 0.0
H232 H 0.39679 0.57245 0.63966 0.0
H233 H 0.38142 0.65117 0.68252 0.0
H234 H 0.38528 0.66382 0.58928 0.0
H235 H 0.39958 0.58464 0.54605 0.0
H236 H 0.43911 0.7105 0.08271 0.0
H237 H 0.38828 0.64763 0.0455 0.0
H238 H 0.38244 0.63935 0.14054 0.0
H239 H 0.43331 0.70246 0.17811 0.0
Gd240 Gd 0.65955 0.61273 0.14122 0.0
Gd241 Gd 0.62297 0.61331 0.22993 0.0
C242 C 0.59724 0.62094 0.11788 0.0
C243 C 0.68212 0.60419 0.05065 0.0
C244 C 0.67564 0.60628 0.99336 0.0
C245 C 0.6952 0.61039 0.9562 0.0
C246 C 0.65021 0.60405 0.97512 0.0
C247 C 0.66406 0.60994 0.88318 0.0
C248 C 0.64447 0.60595 0.9207 0.0
C249 C 0.68951 0.61214 0.90172 0.0
C250 C 0.65346 0.66025 0.18371 0.0
C251 C 0.68404 0.60759 0.25766 0.0
C252 C 0.60023 0.61996 0.32065 0.0
C253 C 0.6075 0.61975 0.37789 0.0
C254 C 0.59385 0.60407 0.41318 0.0
C255 C 0.62785 0.63474 0.39794 0.0
C256 C 0.62062 0.61833 0.48776 0.0
C257 C 0.63433 0.63401 0.45219 0.0
C258 C 0.60033 0.60332 0.46732 0.0
C259 C 0.62709 0.5671 0.17991 0.0
O260 O 0.62028 0.61488 0.09916 0.0
O261 O 0.59361 0.62444 0.16929 0.0
O262 O 0.68433 0.6257 0.07714 0.0
O263 O 0.67001 0.58657 0.07757 0.0
O264 O 0.67534 0.65022 0.17073 0.0
O265 O 0.63558 0.64426 0.17484 0.0
O266 O 0.66106 0.61501 0.27311 0.0
O267 O 0.68829 0.60228 0.20671 0.0
O268 O 0.60111 0.59787 0.29589 0.0
O269 O 0.60872 0.63891 0.29145 0.0
O270 O 0.60577 0.57675 0.19723 0.0
O271 O 0.6456 0.58178 0.19219 0.0
H272 H 0.71495 0.6122 0.96932 0.0
H273 H 0.63477 0.60063 1.00284 0.0
H274 H 0.6247 0.60384 0.90795 0.0
H275 H 0.70505 0.61552 0.87417 0.0
H276 H 0.57815 0.59226 0.39877 0.0
H277 H 0.63878 0.64703 0.37178 0.0
H278 H 0.64988 0.64606 0.46634 0.0
H279 H 0.58957 0.59066 0.49305 0.0
Gd280 Gd 0.61374 0.38525 0.82712 0.0
Gd281 Gd 0.60764 0.34665 0.9229 0.0
C282 C 0.60464 0.32345 0.80234 0.0
C283 C 0.62401 0.40621 0.73624 0.0
C284 C 0.62305 0.39849 0.67918 0.0
C285 C 0.60774 0.41259 0.64363 0.0
C286 C 0.63684 0.37727 0.65952 0.0
C287 C 0.61997 0.38454 0.56971 0.0
C288 C 0.63531 0.37039 0.60548 0.0
C289 C 0.60614 0.40569 0.58978 0.0
C290 C 0.56704 0.38336 0.87453 0.0
C291 C 0.62228 0.40819 0.94258 0.0
C292 C 0.58824 0.32723 1.00851 0.0
C293 C 0.59278 0.32966 0.06664 0.0
C294 C 0.61763 0.33085 0.08852 0.0
C295 C 0.57166 0.33278 0.10051 0.0
C296 C 0.60003 0.33902 0.17708 0.0
C297 C 0.57522 0.33744 0.15498 0.0
C298 C 0.62121 0.33531 0.14325 0.0
C299 C 0.65842 0.35369 0.90311 0.0
O300 O 0.61054 0.34681 0.78566 0.0
O301 O 0.60075 0.31847 0.8538 0.0
O302 O 0.60187 0.40861 0.76006 0.0
O303 O 0.64153 0.39562 0.76671 0.0
O304 O 0.57738 0.4042 0.85607 0.0
O305 O 0.58146 0.36432 0.8648 0.0
O306 O 0.61167 0.38663 0.96055 0.0
O307 O 0.6286 0.41104 0.89193 0.0
O308 O 0.60553 0.31527 0.97973 0.0
O309 O 0.57942 0.34796 0.98557 0.0
O310 O 0.64963 0.33791 0.93837 0.0
O311 O 0.63967 0.3639 0.8793 0.0
H312 H 0.59683 0.42897 0.65763 0.0
H313 H 0.6488 0.36593 0.68583 0.0
H314 H 0.64647 0.35415 0.59169 0.0
H315 H 0.59371 0.41682 0.56404 0.0
H316 H 0.63429 0.32888 0.06322 0.0
H317 H 0.55231 0.33211 0.08456 0.0
H318 H 0.55847 0.33989 0.17983 0.0
H319 H 0.64058 0.33665 0.15879 0.0
Gd320 Gd 0.84534 0.60878 0.67342 0.0
Gd321 Gd 0.88376 0.61505 0.57739 0.0
C322 C 0.90692 0.62294 0.69273 0.0
C323 C 0.82565 0.59017 0.75948 0.0
C324 C 0.82881 0.59621 0.8167 0.0
C325 C 0.8494 0.61152 0.83427 0.0
C326 C 0.81236 0.58536 0.8545 0.0
C327 C 0.83783 0.60396 0.92694 0.0
C328 C 0.81673 0.5893 0.90911 0.0
C329 C 0.85392 0.61525 0.88873 0.0
C330 C 0.85296 0.65966 0.65441 0.0
C331 C 0.82196 0.60608 0.55294 0.0
C332 C 0.90408 0.62633 0.48659 0.0
C333 C 0.89559 0.6249 0.43023 0.0
C334 C 0.88121 0.60394 0.41104 0.0
C335 C 0.90201 0.64467 0.39494 0.0
C336 C 0.8806 0.62217 0.32149 0.0
C337 C 0.89457 0.64338 0.34129 0.0
C338 C 0.87388 0.60256 0.35735 0.0
C339 C 0.88168 0.5681 0.62413 0.0
O340 O 0.88548 0.61207 0.71052 0.0
O341 O 0.90958 0.6297 0.64228 0.0
O342 O 0.81387 0.60733 0.73006 0.0
O343 O 0.84609 0.58076 0.73649 0.0
O344 O 0.83716 0.6509 0.68955 0.0
O345 O 0.86285 0.64084 0.63036 0.0
O346 O 0.84535 0.61158 0.53608 0.0
O347 O 0.817 0.60234 0.60444 0.0
O348 O 0.9078 0.60443 0.51089 0.0
O349 O 0.89261 0.64338 0.51669 0.0
O350 O 0.90248 0.57827 0.60513 0.0
O351 O 0.86276 0.58273 0.6148 0.0
H352 H 0.8623 0.62019 0.80587 0.0
H353 H 0.79645 0.57339 0.84183 0.0
H354 H 0.80406 0.58019 0.9374 0.0
H355 H 0.87011 0.62695 0.90095 0.0
H356 H 0.87579 0.58848 0.43745 0.0
H357 H 0.91289 0.66113 0.40886 0.0
H358 H 0.8997 0.65913 0.31541 0.0
H359 H 0.8634 0.58579 0.34383 0.0
Gd360 Gd 0.61246 0.12528 0.47774 0.0
Gd361 Gd 0.60891 0.16167 0.38908 0.0
C362 C 0.60421 0.18613 0.5058 0.0
C363 C 0.62198 0.1036 0.56853 0.0
C364 C 0.62009 0.11097 0.62567 0.0
C365 C 0.59622 0.11533 0.65004 0.0
C366 C 0.64245 0.1133 0.65676 0.0
C367 C 0.61716 0.12396 0.73553 0.0
C368 C 0.64103 0.1198 0.71086 0.0
C369 C 0.59479 0.1217 0.7042 0.0
C370 C 0.56513 0.12815 0.43197 0.0
C371 C 0.61916 0.09967 0.36562 0.0
C372 C 0.59871 0.18335 0.29839 0.0
C373 C 0.60077 0.17644 0.24106 0.0
C374 C 0.61762 0.19014 0.20815 0.0
C375 C 0.58588 0.15663 0.21833 0.0
C376 C 0.6047 0.16449 0.13103 0.0
C377 C 0.58778 0.15079 0.16396 0.0
C378 C 0.61966 0.18418 0.15391 0.0
C379 C 0.65723 0.15791 0.42792 0.0
O380 O 0.61225 0.16332 0.52108 0.0
O381 O 0.59846 0.19028 0.45496 0.0
O382 O 0.60053 0.10044 0.54212 0.0
O383 O 0.63953 0.11528 0.54046 0.0
O384 O 0.57561 0.10706 0.44866 0.0
O385 O 0.57962 0.14699 0.44271 0.0
O386 O 0.61135 0.1223 0.34726 0.0
O387 O 0.62431 0.09653 0.41659 0.0
O388 O 0.6202 0.18685 0.32434 0.0
O389 O 0.58166 0.17113 0.32665 0.0
O390 O 0.64573 0.17921 0.41587 0.0
O391 O 0.64208 0.13908 0.42066 0.0
H392 H 0.57855 0.11366 0.62745 0.0
H393 H 0.66111 0.11006 0.63917 0.0
H394 H 0.65873 0.12174 0.73324 0.0
H395 H 0.57603 0.12436 0.72169 0.0
H396 H 0.62919 0.20561 0.2244 0.0
H397 H 0.57271 0.14561 0.24243 0.0
H398 H 0.57618 0.13534 0.14781 0.0
H399 H 0.63265 0.19532 0.12965 0.0
Gd400 Gd 0.16063 0.40134 0.6605 0.0
Gd401 Gd 0.12478 0.39557 0.57099 0.0
C402 C 0.09905 0.38854 0.68276 0.0
C403 C 0.1808 0.41477 0.75118 0.0
C404 C 0.17445 0.41176 0.80849 0.0
C405 C 0.1721 0.3874 0.83207 0.0
C406 C 0.17089 0.43367 0.84043 0.0
C407 C 0.16304 0.407 0.91859 0.0
C408 C 0.16523 0.43135 0.8947 0.0
C409 C 0.1665 0.38507 0.88639 0.0
C410 C 0.1584 0.3521 0.62543 0.0
C411 C 0.18543 0.40516 0.54443 0.0
C412 C 0.10305 0.38544 0.48009 0.0
C413 C 0.11041 0.38715 0.42333 0.0
C414 C 0.1277 0.40594 0.40553 0.0
C415 C 0.09983 0.36993 0.38622 0.0
C416 C 0.12315 0.39063 0.31383 0.0
C417 C 0.10611 0.37162 0.33215 0.0
C418 C 0.134 0.40766 0.35144 0.0
C419 C 0.12614 0.44329 0.61568 0.0
O420 O 0.12142 0.39699 0.70154 0.0
O421 O 0.09614 0.38323 0.6317 0.0
O422 O 0.18763 0.3942 0.72479 0.0
O423 O 0.16577 0.42975 0.72336 0.0
O424 O 0.17919 0.36415 0.63917 0.0
O425 O 0.13922 0.36698 0.63002 0.0
O426 O 0.16305 0.39589 0.52902 0.0
O427 O 0.18903 0.41203 0.5949 0.0
O428 O 0.10026 0.4072 0.50555 0.0
O429 O 0.1149 0.3681 0.50865 0.0
O430 O 0.10533 0.43167 0.60068 0.0
O431 O 0.14533 0.42945 0.60466 0.0
H432 H 0.1747 0.37008 0.80871 0.0
H433 H 0.17249 0.45268 0.82333 0.0
H434 H 0.1623 0.44869 0.9178 0.0
H435 H 0.16531 0.36601 0.90331 0.0
H436 H 0.13621 0.41943 0.4334 0.0
H437 H 0.08658 0.35518 0.39906 0.0
H438 H 0.09771 0.35786 0.30474 0.0
H439 H 0.14699 0.4227 0.33902 0.0
Gd440 Gd 0.39692 0.88324 0.46903 0.0
Gd441 Gd 0.40019 0.84666 0.37983 0.0
C442 C 0.40552 0.82232 0.49643 0.0
C443 C 0.38815 0.90524 0.56 0.0
C444 C 0.39023 0.89798 0.61718 0.0
C445 C 0.40886 0.90968 0.64986 0.0
C446 C 0.37362 0.8798 0.64002 0.0
C447 C 0.39418 0.88537 0.72692 0.0
C448 C 0.37554 0.87363 0.69419 0.0
C449 C 0.4109 0.90338 0.70392 0.0
C450 C 0.44379 0.88111 0.422 0.0
C451 C 0.38938 0.9084 0.35701 0.0
C452 C 0.40982 0.82427 0.28927 0.0
C453 C 0.40906 0.83105 0.23205 0.0
C454 C 0.40158 0.81246 0.19455 0.0
C455 C 0.41527 0.85584 0.2143 0.0
C456 C 0.4062 0.84334 0.12215 0.0
C457 C 0.41384 0.86193 0.16 0.0
C458 C 0.4002 0.81848 0.14029 0.0
C459 C 0.35206 0.85025 0.41942 0.0
O460 O 0.39817 0.8453 0.51241 0.0
O461 O 0.41022 0.81787 0.44529 0.0
O462 O 0.40966 0.90788 0.53401 0.0
O463 O 0.37031 0.89398 0.5314 0.0
O464 O 0.43305 0.90205 0.43892 0.0
O465 O 0.42977 0.86199 0.43296 0.0
O466 O 0.39868 0.88621 0.33922 0.0
O467 O 0.38325 0.91117 0.40759 0.0
O468 O 0.38773 0.82284 0.31324 0.0
O469 O 0.42733 0.8354 0.31874 0.0
O470 O 0.36352 0.829 0.40682 0.0
O471 O 0.36712 0.86907 0.41212 0.0
H472 H 0.42182 0.92388 0.63361 0.0
H473 H 0.35905 0.87032 0.61616 0.0
H474 H 0.36255 0.85946 0.71035 0.0
H475 H 0.42529 0.91302 0.72798 0.0
H476 H 0.39676 0.79319 0.20726 0.0
H477 H 0.42113 0.87053 0.24241 0.0
H478 H 0.41833 0.88135 0.14785 0.0
H479 H 0.39467 0.8035 0.1125 0.0
Gd480 Gd 0.85051 0.90026 0.64161 0.0
Gd481 Gd 0.88731 0.89939 0.73076 0.0
C482 C 0.91263 0.89068 0.61896 0.0
C483 C 0.82825 0.90961 0.55081 0.0
C484 C 0.83493 0.90791 0.49364 0.0
C485 C 0.81555 0.90362 0.45575 0.0
C486 C 0.86038 0.91052 0.47626 0.0
C487 C 0.84688 0.9046 0.38363 0.0
C488 C 0.86629 0.90882 0.42195 0.0
C489 C 0.8214 0.90203 0.40142 0.0
C490 C 0.85593 0.85275 0.68402 0.0
C491 C 0.82617 0.90529 0.75762 0.0
C492 C 0.91025 0.89356 0.82189 0.0
C493 C 0.90299 0.89384 0.87901 0.0
C494 C 0.91648 0.90977 0.91461 0.0
C495 C 0.88275 0.87876 0.89864 0.0
C496 C 0.88959 0.89581 0.98843 0.0
C497 C 0.87615 0.87972 0.95271 0.0
C498 C 0.90986 0.9108 0.96856 0.0
C499 C 0.88382 0.94518 0.67959 0.0
O500 O 0.88967 0.89715 0.60003 0.0
O501 O 0.91631 0.88728 0.67045 0.0
O502 O 0.82589 0.88789 0.57617 0.0
O503 O 0.84024 0.92705 0.57907 0.0
O504 O 0.8342 0.86296 0.67018 0.0
O505 O 0.87403 0.86848 0.67564 0.0
O506 O 0.84914 0.89771 0.77326 0.0
O507 O 0.82193 0.91081 0.70679 0.0
O508 O 0.90883 0.91554 0.79712 0.0
O509 O 0.90219 0.87431 0.79253 0.0
O510 O 0.90513 0.93502 0.69586 0.0
O511 O 0.86515 0.93106 0.69279 0.0
H512 H 0.79577 0.90165 0.46817 0.0
H513 H 0.87572 0.91392 0.50458 0.0
H514 H 0.88616 0.91054 0.41013 0.0
H515 H 0.80585 0.89918 0.37331 0.0
H516 H 0.93222 0.92152 0.90061 0.0
H517 H 0.87189 0.86634 0.8722 0.0
H518 H 0.86025 0.86814 0.96638 0.0
H519 H 0.92089 0.92313 0.99487 0.0
Gd520 Gd 0.89579 0.12695 0.32483 0.0
Gd521 Gd 0.89925 0.16293 0.41514 0.0
C522 C 0.90472 0.18791 0.299 0.0
C523 C 0.8862 0.10525 0.2338 0.0
C524 C 0.8879 0.11262 0.17696 0.0
C525 C 0.89918 0.09561 0.14048 0.0
C526 C 0.87877 0.13644 0.15856 0.0
C527 C 0.89205 0.12591 0.06797 0.0
C528 C 0.88075 0.14296 0.10463 0.0
C529 C 0.90129 0.10218 0.08666 0.0
C530 C 0.94283 0.12906 0.37173 0.0
C531 C 0.8885 0.1008 0.43621 0.0
C532 C 0.91027 0.18482 0.50578 0.0
C533 C 0.9084 0.1786 0.56303 0.0
C534 C 0.9087 0.19846 0.60086 0.0
C535 C 0.90631 0.15311 0.58052 0.0
C536 C 0.90473 0.16744 0.67321 0.0
C537 C 0.90439 0.14759 0.6349 0.0
C538 C 0.90697 0.19298 0.65531 0.0
C539 C 0.85086 0.15936 0.37632 0.0
O540 O 0.89748 0.16502 0.28212 0.0
O541 O 0.90922 0.19205 0.35042 0.0
O542 O 0.90798 0.10265 0.25916 0.0
O543 O 0.86866 0.11666 0.26261 0.0
O544 O 0.93224 0.10818 0.35394 0.0
O545 O 0.92861 0.14815 0.36148 0.0
O546 O 0.89578 0.12346 0.45563 0.0
O547 O 0.88415 0.0977 0.38486 0.0
O548 O 0.88866 0.18833 0.48039 0.0
O549 O 0.92668 0.17145 0.47797 0.0
O550 O 0.86237 0.18057 0.38939 0.0
O551 O 0.86612 0.14056 0.38236 0.0
H552 H 0.90637 0.07715 0.15366 0.0
H553 H 0.87018 0.15008 0.18581 0.0
H554 H 0.87373 0.16152 0.09175 0.0
H555 H 0.90986 0.08848 0.0595 0.0
H556 H 0.91042 0.21828 0.58829 0.0
H557 H 0.90619 0.13744 0.55219 0.0
H558 H 0.90234 0.12772 0.64678 0.0
H559 H 0.90774 0.2088 0.68338 0.0
Gd560 Gd 0.1616 0.10874 0.6376 0.0
Gd561 Gd 0.12503 0.11429 0.72566 0.0
C562 C 0.10022 0.12113 0.61301 0.0
C563 C 0.18315 0.09648 0.54773 0.0
C564 C 0.1766 0.09789 0.49021 0.0
C565 C 0.19567 0.10433 0.45331 0.0
C566 C 0.15158 0.09317 0.47152 0.0
C567 C 0.1648 0.10155 0.37991 0.0
C568 C 0.14571 0.09507 0.41709 0.0
C569 C 0.18988 0.10607 0.39885 0.0
C570 C 0.15891 0.15783 0.67378 0.0
C571 C 0.18558 0.10497 0.75472 0.0
C572 C 0.10311 0.12356 0.81635 0.0
C573 C 0.11021 0.12136 0.87372 0.0
C574 C 0.09695 0.10406 0.90643 0.0
C575 C 0.12987 0.13635 0.89664 0.0
C576 C 0.12274 0.11677 0.98381 0.0
C577 C 0.13604 0.13409 0.95088 0.0
C578 C 0.10316 0.10172 0.96058 0.0
C579 C 0.12669 0.06673 0.68035 0.0
O580 O 0.12217 0.111 0.5962 0.0
O581 O 0.09753 0.12808 0.66325 0.0
O582 O 0.18701 0.11833 0.57211 0.0
O583 O 0.17013 0.0803 0.57673 0.0
O584 O 0.17988 0.14585 0.66145 0.0
O585 O 0.13987 0.1429 0.66757 0.0
O586 O 0.16306 0.11409 0.76911 0.0
O587 O 0.18967 0.09832 0.70437 0.0
O588 O 0.10018 0.10204 0.79003 0.0
O589 O 0.11465 0.14121 0.7882 0.0
O590 O 0.10576 0.07834 0.69433 0.0
O591 O 0.14582 0.08052 0.69245 0.0
H592 H 0.2151 0.10812 0.46668 0.0
H593 H 0.13657 0.08793 0.499 0.0
H594 H 0.12627 0.09113 0.40406 0.0
H595 H 0.20502 0.11139 0.37165 0.0
H596 H 0.08172 0.09223 0.89004 0.0
H597 H 0.14052 0.14992 0.87276 0.0
H598 H 0.151 0.14627 0.96713 0.0
H599 H 0.09272 0.08785 0.98407 0.0
Gd600 Gd 0.11329 0.88476 0.32462 0.0
Gd601 Gd 0.10913 0.84853 0.41363 0.0
C602 C 0.1049 0.82387 0.29701 0.0
C603 C 0.12158 0.90715 0.23413 0.0
C604 C 0.12058 0.90015 0.17676 0.0
C605 C 0.10529 0.9147 0.14198 0.0
C606 C 0.1344 0.8792 0.15604 0.0
C607 C 0.11759 0.8876 0.06668 0.0
C608 C 0.13291 0.87299 0.1017 0.0
C609 C 0.10375 0.9085 0.08776 0.0
C610 C 0.06638 0.88309 0.37154 0.0
C611 C 0.12096 0.91039 0.43674 0.0
C612 C 0.0973 0.82713 0.50366 0.0
C613 C 0.09923 0.83369 0.56098 0.0
C614 C 0.10265 0.81406 0.59844 0.0
C615 C 0.09792 0.85927 0.5789 0.0
C616 C 0.10349 0.84539 0.67109 0.0
C617 C 0.10011 0.86506 0.6333 0.0
C618 C 0.10469 0.8198 0.65286 0.0
C619 C 0.15762 0.85129 0.37596 0.0
O620 O 0.11355 0.84649 0.2819 0.0
O621 O 0.09856 0.82003 0.34752 0.0
O622 O 0.0996 0.90803 0.25881 0.0
O623 O 0.13982 0.89704 0.26333 0.0
O624 O 0.07765 0.90399 0.35641 0.0
O625 O 0.08013 0.8639 0.35967 0.0
O626 O 0.11306 0.88785 0.45524 0.0
O627 O 0.12573 0.91349 0.38566 0.0
O628 O 0.11888 0.82294 0.47895 0.0
O629 O 0.08114 0.84051 0.47505 0.0
O630 O 0.14585 0.83029 0.38898 0.0
O631 O 0.14274 0.8704 0.38214 0.0
H632 H 0.09437 0.93089 0.15687 0.0
H633 H 0.14638 0.86757 0.18176 0.0
H634 H 0.14407 0.85694 0.08706 0.0
H635 H 0.0914 0.91996 0.0625 0.0
H636 H 0.1038 0.7942 0.58557 0.0
H637 H 0.0951 0.87479 0.55094 0.0
H638 H 0.09878 0.88495 0.64581 0.0
H639 H 0.1076 0.80418 0.6806 0.0
H640 H 0.41203 0.91579 0.25969 0.0
H641 H 0.36024 0.95191 0.37057 0.0
H642 H 0.40889 0.9532 0.20144 0.0
H643 H 0.35698 0.9893 0.31206 0.0
H644 H 0.34016 0.04188 0.165 0.0
H645 H 0.34072 1.00296 0.22012 0.0
H646 H 0.42309 0.99936 0.20604 0.0
H647 H 0.42259 0.0384 0.15259 0.0
C648 C 0.39975 0.93155 0.27146 0.0
C649 C 0.38641 0.9307 0.31999 0.0
C650 C 0.39808 0.95313 0.23815 0.0
C651 C 0.3827 0.97437 0.25197 0.0
C652 C 0.36885 0.97326 0.29987 0.0
C653 C 0.37085 0.95184 0.33361 0.0
C654 C 0.35838 0.03284 0.174 0.0
C655 C 0.38135 0.04353 0.15493 0.0
C656 C 0.35871 0.01053 0.20558 0.0
C657 C 0.38197 0.99794 0.21766 0.0
C658 C 0.40481 0.00833 0.19729 0.0
C659 C 0.40451 0.03082 0.16669 0.0
H660 H 0.9513 0.65075 0.67802 0.0
H661 H 0.91321 0.60242 0.7925 0.0
H662 H 0.98869 0.6537 0.73709 0.0
H663 H 0.95057 0.60531 0.85117 0.0
H664 H 0.03442 0.58824 0.90274 0.0
H665 H 0.99551 0.58887 0.84863 0.0
H666 H 1.00374 0.67067 0.82734 0.0
H667 H 0.04264 0.67012 0.88306 0.0
C668 C 0.95078 0.64087 0.71586 0.0
C669 C 0.92915 0.62622 0.73014 0.0
C670 C 0.97222 0.6427 0.74991 0.0
C671 C 0.97279 0.62964 0.79889 0.0
C672 C 0.95097 0.6154 0.81355 0.0
C673 C 0.92943 0.61385 0.7799 0.0
C674 C 0.02789 0.60646 0.88696 0.0
C675 C 0.04186 0.62911 0.89699 0.0
C676 C 0.00546 0.60681 0.85596 0.0
C677 C 0.99639 0.6298 0.83342 0.0
C678 C 0.01027 0.65257 0.84362 0.0
C679 C 0.03258 0.65227 0.87555 0.0
H680 H 0.58859 0.96009 0.18635 0.0
H681 H 0.66531 0.97932 0.13678 0.0
H682 H 0.58798 0.9978 0.24495 0.0
H683 H 0.66428 0.01781 0.19426 0.0
H684 H 0.62643 0.09943 0.25685 0.0
H685 H 0.62999 0.06188 0.19749 0.0
H686 H 0.61991 0.01153 0.33157 0.0
H687 H 0.61724 0.04874 0.39106 0.0
C688 C 0.60527 0.9725 0.18769 0.0
C689 C 0.62699 0.96675 0.15684 0.0
C690 C 0.60492 0.99405 0.22134 0.0
C691 C 0.626 0.01085 0.22396 0.0
C692 C 0.64769 1.00529 0.19276 0.0
C693 C 0.64832 0.98325 0.16009 0.0
C694 C 0.62517 0.08035 0.27371 0.0
C695 C 0.62165 0.07716 0.32886 0.0
C696 C 0.62731 0.05887 0.23974 0.0
C697 C 0.62528 0.03377 0.25994 0.0
C698 C 0.62158 0.03062 0.31489 0.0
C699 C 0.62011 0.05198 0.34894 0.0
H700 H 0.96184 0.42091 0.86331 0.0
H701 H 0.97753 0.34262 0.9088 0.0
H702 H 0.99926 0.4205 0.80476 0.0
H703 H 0.01579 0.34262 0.85126 0.0
H704 H 0.09894 0.38229 0.79185 0.0
H705 H 0.06156 0.37871 0.85089 0.0
H706 H 0.011 0.38575 0.71558 0.0
H707 H 0.04808 0.38846 0.65639 0.0
C708 C 0.9734 0.40364 0.86112 0.0
C709 C 0.96673 0.38181 0.89093 0.0
C710 C 0.9948 0.40343 0.82747 0.0
C711 C 0.01055 0.38161 0.82367 0.0
C712 C 1.00407 0.35976 0.85367 0.0
C713 C 0.98216 0.35973 0.88641 0.0
C714 C 0.07986 0.38282 0.77461 0.0
C715 C 0.0766 0.38558 0.7192 0.0
C716 C 0.05848 0.38066 0.80843 0.0
C717 C 0.03336 0.38186 0.7878 0.0
C718 C 0.03011 0.38467 0.73257 0.0
C719 C 0.0514 0.38618 0.69869 0.0
H720 H 0.3421 0.4801 0.16018 0.0
H721 H 0.41877 0.46187 0.10851 0.0
H722 H 0.34209 0.51822 0.10204 0.0
H723 H 0.41835 0.49912 0.04941 0.0
H724 H 0.39065 0.54962 0.90477 0.0
H725 H 0.38767 0.51241 0.96369 0.0
H726 H 0.37409 0.56268 0.09728 0.0
H727 H 0.37787 0.60018 0.03856 0.0
C728 C 0.35884 0.48414 0.13627 0.0
C729 C 0.38049 0.46804 0.13925 0.0
C730 C 0.35888 0.50598 0.10317 0.0
C731 C 0.38025 0.5117 0.07117 0.0
C732 C 0.4016 0.49525 0.07347 0.0
C733 C 0.40185 0.47395 0.1075 0.0
C734 C 0.38684 0.55284 0.94661 0.0
C735 C 0.38452 0.57802 0.96677 0.0
C736 C 0.38521 0.53147 0.98039 0.0
C737 C 0.38056 0.53457 0.03512 0.0
C738 C 0.37752 0.55966 0.05523 0.0
C739 C 0.37981 0.58114 1.02161 0.0
H740 H 0.54656 0.61402 0.14071 0.0
H741 H 0.59709 0.63303 1.01107 0.0
H742 H 0.50968 0.61631 0.0803 0.0
H743 H 0.55987 0.63605 0.95086 0.0
H744 H 0.4766 0.6664 0.88887 0.0
H745 H 0.51455 0.66604 0.94785 0.0
H746 H 0.49788 0.58774 0.99111 0.0
H747 H 0.46073 0.58778 0.93113 0.0
C748 C 0.54981 0.61894 0.09943 0.0
C749 C 0.57487 0.62328 0.08082 0.0
C750 C 0.52864 0.62018 0.06482 0.0
C751 C 0.53184 0.62643 1.01087 0.0
C752 C 0.55679 0.63134 0.9923 0.0
C753 C 0.57811 0.62946 0.02672 0.0
C754 C 0.48115 0.64913 0.9109 0.0
C755 C 0.46573 0.6271 0.90521 0.0
C756 C 0.50289 0.64889 0.94444 0.0
C757 C 0.50921 0.62684 0.97406 0.0
C758 C 0.49351 0.60501 0.9689 0.0
C759 C 0.47227 0.60503 0.93442 0.0
H760 H 0.58763 0.53554 0.15277 0.0
H761 H 0.6695 0.54356 0.13483 0.0
H762 H 0.58832 0.4968 0.09811 0.0
H763 H 0.67012 0.5048 0.07853 0.0
H764 H 0.65029 0.45257 0.92825 0.0
H765 H 0.65331 0.48992 0.98756 0.0
H766 H 0.60468 0.45174 0.10103 0.0
H767 H 0.60174 0.41444 0.04219 0.0
C768 C 0.60586 0.52901 0.13723 0.0
C769 C 0.62849 0.54287 0.14798 0.0
C770 C 0.60625 0.50667 0.10592 0.0
C771 C 0.62926 0.49757 0.08373 0.0
C772 C 0.652 0.51136 0.09454 0.0
C773 C 0.65167 0.53359 0.12679 0.0
C774 C 0.64038 0.45203 0.96602 0.0
C775 C 0.62567 0.43039 0.9801 0.0
C776 C 0.64224 0.47344 1.0002 0.0
C777 C 0.62913 0.47399 0.04907 0.0
C778 C 0.61482 0.45216 0.06352 0.0
C779 C 0.61325 0.43065 0.02977 0.0
H780 H 0.41542 0.41283 1.01332 0.0
H781 H 0.45327 0.36249 0.12499 0.0
H782 H 0.4525 0.40991 0.95411 0.0
H783 H 0.49015 0.35928 0.06531 0.0
H784 H 0.54087 0.34171 0.9155 0.0
H785 H 0.50238 0.34231 0.97164 0.0
H786 H 0.49918 0.42486 0.9587 0.0
H787 H 0.53795 0.42434 0.90453 0.0
C788 C 0.43152 0.40095 1.02508 0.0
C789 C 0.4313 0.38797 0.07416 0.0
C790 C 0.45286 0.39937 0.99119 0.0
C791 C 0.47439 0.38437 1.00487 0.0
C792 C 0.47387 0.37085 0.05328 0.0
C793 C 0.45274 0.37282 0.08766 0.0
C794 C 0.53205 0.35998 0.92501 0.0
C795 C 0.54282 0.38299 0.90618 0.0
C796 C 0.50996 0.36033 0.95713 0.0
C797 C 0.49764 0.38366 0.96984 0.0
C798 C 0.508 0.40654 0.94952 0.0
C799 C 0.53032 0.40623 0.9185 0.0
H800 H 0.86127 0.45454 0.87579 0.0
H801 H 0.91143 0.41658 0.76422 0.0
H802 H 0.85793 0.4914 0.81582 0.0
H803 H 0.90836 0.4536 0.7047 0.0
H804 H 0.92258 0.53883 0.65363 0.0
H805 H 0.9232 0.50013 0.70823 0.0
H806 H 0.84085 0.50372 0.72265 0.0
H807 H 0.84015 0.5422 0.66619 0.0
C808 C 0.87154 0.45399 0.83842 0.0
C809 C 0.88667 0.43252 0.82503 0.0
C810 C 0.86949 0.4751 0.80387 0.0
C811 C 0.8829 0.47556 0.75539 0.0
C812 C 0.89789 0.454 0.74183 0.0
C813 C 0.89956 0.43269 0.77591 0.0
C814 C 0.90453 0.53131 0.66802 0.0
C815 C 0.88133 0.54391 0.65603 0.0
C816 C 0.9049 0.50903 0.69929 0.0
C817 C 0.88211 0.49879 0.72015 0.0
C818 C 0.85881 0.51122 0.70774 0.0
C819 C 0.8584 0.53329 0.67544 0.0
H820 H 0.54051 0.17023 0.38844 0.0
H821 H 0.5347 0.0879 0.40309 0.0
H822 H 0.50212 0.17036 0.33125 0.0
H823 H 0.49618 0.08809 0.34756 0.0
H824 H 0.41347 0.10093 0.29084 0.0
H825 H 0.45062 0.10363 0.35011 0.0
H826 H 0.48837 0.15392 0.2391 0.0
H827 H 0.45119 0.1511 0.17927 0.0
C828 C 0.53109 0.15218 0.37947 0.0
C829 C 0.54092 0.12903 0.39992 0.0
C830 C 0.50908 0.15224 0.34671 0.0
C831 C 0.49598 0.12922 0.33466 0.0
C832 C 0.50555 0.10621 0.35626 0.0
C833 C 0.52773 0.1061 0.3881 0.0
C834 C 0.42957 0.11273 0.27902 0.0
C835 C 0.42923 0.12571 0.22992 0.0
C836 C 0.45099 0.11416 0.31302 0.0
C837 C 0.47262 0.12891 0.29944 0.0
C838 C 0.47202 0.14251 0.25107 0.0
C839 C 0.45072 0.14077 0.2166 0.0
H840 H 0.12947 0.59833 0.75567 0.0
H841 H 0.115 0.54707 0.88685 0.0
H842 H 0.13276 0.56115 0.69531 0.0
H843 H 0.11747 0.51024 0.82628 0.0
H844 H 0.08752 0.46065 0.67861 0.0
H845 H 0.08728 0.49801 0.73804 0.0
H846 H 0.16462 0.51626 0.69137 0.0
H847 H 0.16524 0.47808 0.63294 0.0
C848 C 0.12698 0.5792 0.77165 0.0
C849 C 0.12201 0.57575 0.82624 0.0
C850 C 0.12899 0.55792 0.73711 0.0
C851 C 0.1254 0.53277 0.75608 0.0
C852 C 0.12033 0.52936 0.8105 0.0
C853 C 0.11897 0.55051 0.8452 0.0
C854 C 0.1045 0.47261 0.68089 0.0
C855 C 0.12639 0.46643 0.65088 0.0
C856 C 0.10437 0.49396 0.7151 0.0
C857 C 0.12588 0.51014 0.71925 0.0
C858 C 0.14771 0.50422 0.68874 0.0
C859 C 0.14809 0.48237 0.65546 0.0
H860 H 0.59434 0.9126 0.28297 0.0
H861 H 0.55953 0.85857 0.17372 0.0
H862 H 0.55715 0.90926 0.34117 0.0
H863 H 0.52219 0.85525 0.23219 0.0
H864 H 0.46946 0.83943 0.37903 0.0
H865 H 0.50798 0.83998 0.32303 0.0
H866 H 0.51151 0.92251 0.33809 0.0
H867 H 0.47299 0.92197 0.39271 0.0
C868 C 0.5789 0.89978 0.27152 0.0
C869 C 0.58009 0.88585 0.22343 0.0
C870 C 0.5574 0.89802 0.30482 0.0
C871 C 0.5365 0.88205 0.29148 0.0
C872 C 0.53795 0.8676 0.24405 0.0
C873 C 0.55934 0.86963 0.21031 0.0
C874 C 0.47839 0.85767 0.37007 0.0
C875 C 0.46793 0.88066 0.39007 0.0
C876 C 0.50049 0.85801 0.33794 0.0
C877 C 0.51299 0.88131 0.32592 0.0
C878 C 0.50268 0.90418 0.34683 0.0
C879 C 0.48047 0.90387 0.37814 0.0
H880 H 0.84372 0.97897 0.66273 0.0
H881 H 0.92149 0.96283 0.61518 0.0
H882 H 0.8435 0.01723 0.60499 0.0
H883 H 0.92091 1.00022 0.55655 0.0
H884 H 0.89436 0.05011 0.41093 0.0
H885 H 0.89185 0.01281 0.46966 0.0
H886 H 0.87348 0.06244 0.60179 0.0
H887 H 0.87664 0.10006 0.54319 0.0
C888 C 0.86066 0.98349 0.6398 0.0
C889 C 0.88266 0.96794 0.64375 0.0
C890 C 0.86058 1.00542 0.60696 0.0
C891 C 0.88222 0.01176 0.57626 0.0
C892 C 0.90395 0.99586 0.57959 0.0
C893 C 0.90428 0.97447 0.61333 0.0
C894 C 0.88966 0.05315 0.45243 0.0
C895 C 0.88583 0.07817 0.47228 0.0
C896 C 0.88829 0.03174 0.48609 0.0
C897 C 0.8824 0.03464 0.54034 0.0
C898 C 0.87791 0.05957 0.56011 0.0
C899 C 0.87991 0.08112 0.52662 0.0
H900 H 0.05713 0.15115 0.62412 0.0
H901 H 0.09286 0.09743 0.51636 0.0
H902 H 0.02021 0.15441 0.56391 0.0
H903 H 0.05613 0.10077 0.4562 0.0
H904 H 0.97218 0.08817 0.40058 0.0
H905 H 0.01055 0.0875 0.45644 0.0
H906 H 0.00671 0.16996 0.47299 0.0
H907 H 0.96834 0.17064 0.41584 0.0
C908 C 0.05724 0.14015 0.58746 0.0
C909 C 0.07815 0.12407 0.57518 0.0
C910 C 0.03609 0.14215 0.55272 0.0
C911 C 0.03506 0.12784 0.50507 0.0
C912 C 0.05609 0.11194 0.49266 0.0
C913 C 0.07734 0.11018 0.52704 0.0
C914 C 0.97958 0.10623 0.41572 0.0
C915 C 0.96698 0.12945 0.404 0.0
C916 C 1.0017 0.10584 0.44773 0.0
C917 C 0.01183 0.12866 0.46949 0.0
C918 C 0.99933 0.15198 0.45745 0.0
C919 C 0.97733 0.15239 0.42467 0.0
H920 H 0.1178 0.96125 0.41139 0.0
H921 H 0.12977 0.91079 0.54519 0.0
H922 H 0.12011 0.99849 0.47089 0.0
H923 H 0.13283 0.94836 0.60461 0.0
H924 H 0.1654 0.03119 0.66773 0.0
H925 H 0.16506 0.9926 0.61045 0.0
H926 H 0.0891 0.01213 0.55536 0.0
H927 H 0.08903 0.0499 0.61364 0.0
C928 C 0.12122 0.95807 0.45341 0.0
C929 C 0.12359 0.93294 0.4734 0.0
C930 C 0.12246 0.97945 0.4875 0.0
C931 C 0.12673 0.97639 0.54239 0.0
C932 C 0.12968 0.95133 0.56243 0.0
C933 C 0.12779 0.92983 0.52843 0.0
C934 C 0.14862 0.02711 0.64355 0.0
C935 C 0.12719 0.0435 0.64549 0.0
C936 C 0.14839 1.00501 0.61096 0.0
C937 C 0.12702 0.99931 0.57848 0.0
C938 C 0.10583 0.01598 0.57989 0.0
C939 C 0.10578 0.03758 0.61343 0.0
H940 H 0.03161 0.84399 0.38819 0.0
H941 H 0.04968 0.92162 0.43585 0.0
H942 H 0.99373 0.84474 0.44666 0.0
H943 H 0.01263 0.92199 0.49524 0.0
H944 H 0.96358 0.896 0.64252 0.0
H945 H 1.00024 0.89315 0.58231 0.0
H946 H 0.94923 0.87559 0.45162 0.0
H947 H 0.91225 0.87917 0.51166 0.0
C948 C 0.02755 0.86113 0.41121 0.0
C949 C 0.04357 0.88279 0.40714 0.0
C950 C 0.00585 0.8616 0.4445 0.0
C951 C 1.00019 0.88345 0.47553 0.0
C952 C 0.01648 0.90488 0.47194 0.0
C953 C 0.03766 0.90467 0.43775 0.0
C954 C 0.9601 0.89141 0.60102 0.0
C955 C 0.93488 0.88785 0.58204 0.0
C956 C 0.98114 0.88986 0.56651 0.0
C957 C 0.97766 0.88407 0.51225 0.0
C958 C 0.95253 0.87992 0.4933 0.0
C959 C 0.93136 0.88212 0.52765 0.0
H960 H 0.31568 0.1929 0.12668 0.0
H961 H 0.39645 0.18856 0.16198 0.0
H962 H 0.31754 0.23955 0.13006 0.0
H963 H 0.39837 0.2356 0.16873 0.0
H964 H 0.39462 0.32423 0.14519 0.0
H965 H 0.39648 0.27754 0.13281 0.0
H966 H 0.31935 0.27123 0.194 0.0
H967 H 0.31727 0.31764 0.20351 0.0
C968 C 0.334 0.20209 0.13421 0.0
C969 C 0.35597 0.18716 0.14317 0.0
C970 C 0.33504 0.22891 0.13729 0.0
C971 C 0.35797 0.2417 0.15126 0.0
C972 C 0.38034 0.22668 0.15773 0.0
C973 C 0.37935 0.19968 0.15355 0.0
C974 C 0.37821 0.31273 0.15643 0.0
C975 C 0.35572 0.32465 0.17509 0.0
C976 C 0.37923 0.28589 0.1493 0.0
C977 C 0.35787 0.27029 0.16118 0.0
C978 C 0.33593 0.28237 0.18239 0.0
C979 C 0.3348 0.30908 0.18868 0.0
H980 H 0.32335 0.61072 0.9082 0.0
H981 H 0.3167 0.6889 0.85454 0.0
H982 H 0.27655 0.60839 0.91823 0.0
H983 H 0.27021 0.68652 0.86209 0.0
H984 H 0.19569 0.68993 0.94926 0.0
H985 H 0.24162 0.68733 0.93412 0.0
H986 H 0.23326 0.60852 0.88226 0.0
H987 H 0.18699 0.61105 0.89931 0.0
C988 C 0.31174 0.62699 0.89625 0.0
C989 C 0.32355 0.64985 0.87966 0.0
C990 C 0.28491 0.62578 0.90242 0.0
C991 C 0.26942 0.64747 0.89223 0.0
C992 C 0.28137 0.66965 0.87197 0.0
C993 C 0.30804 0.67091 0.86652 0.0
C994 C 0.20367 0.67193 0.93528 0.0
C995 C 0.18764 0.65076 0.9254 0.0
C996 C 0.23006 0.67049 0.92583 0.0
C997 C 0.24132 0.6479 0.90549 0.0
C998 C 0.2254 0.62627 0.89777 0.0
C999 C 0.19886 0.62768 0.90768 0.0
H1000 H 0.61211 0.825 0.15386 0.0
H1001 H 0.69341 0.81801 0.12797 0.0
H1002 H 0.60892 0.77818 0.16426 0.0
H1003 H 0.69034 0.77156 0.13525 0.0
H1004 H 0.6876 0.69605 0.21682 0.0
H1005 H 0.6861 0.74226 0.20385 0.0
H1006 H 0.61116 0.73504 0.13092 0.0
H1007 H 0.61237 0.68854 0.14651 0.0
C1008 C 0.62908 0.81331 0.14822 0.0
C1009 C 0.65297 0.82504 0.13951 0.0
C1010 C 0.62735 0.78646 0.15456 0.0
C1011 C 0.64949 0.77086 0.15206 0.0
C1012 C 0.67297 0.78276 0.13947 0.0
C1013 C 0.67472 0.80943 0.13417 0.0
C1014 C 0.67062 0.70439 0.19882 0.0
C1015 C 0.65016 0.68863 0.18272 0.0
C1016 C 0.66986 0.73094 0.19054 0.0
C1017 C 0.6488 0.74262 0.16479 0.0
C1018 C 0.62773 0.72692 0.15077 0.0
C1019 C 0.62837 0.70023 0.15983 0.0
H1020 H 0.81627 0.31908 0.95712 0.0
H1021 H 0.823 0.39598 0.89563 0.0
H1022 H 0.76994 0.32109 0.94699 0.0
H1023 H 0.77639 0.39774 0.88268 0.0
H1024 H 0.68735 0.39768 0.91069 0.0
H1025 H 0.7343 0.39984 0.91815 0.0
H1026 H 0.73869 0.31867 0.88202 0.0
H1027 H 0.69214 0.31659 0.8779 0.0
C1028 C 0.80775 0.3365 0.94151 0.0
C1029 C 0.82333 0.35731 0.92717 0.0
C1030 C 0.7811 0.33758 0.93487 0.0
C1031 C 0.7691 0.35935 0.91254 0.0
C1032 C 0.7847 0.38063 0.9 0.0
C1033 C 0.81148 0.37966 0.90748 0.0
C1034 C 0.69855 0.38055 0.90295 0.0
C1035 C 0.68619 0.35702 0.89311 0.0
C1036 C 0.7255 0.38168 0.90755 0.0
C1037 C 0.7406 0.35929 0.90206 0.0
C1038 C 0.72797 0.3362 0.88853 0.0
C1039 C 0.70121 0.33503 0.88503 0.0
H1040 H 0.89743 0.6878 0.66173 0.0
H1041 H 0.81636 0.69417 0.63085 0.0
H1042 H 0.90036 0.73473 0.67075 0.0
H1043 H 0.8192 0.74071 0.63665 0.0
H1044 H 0.8211 0.8174 0.71515 0.0
H1045 H 0.82262 0.77105 0.70371 0.0
H1046 H 0.89848 0.77731 0.63617 0.0
H1047 H 0.89724 0.82394 0.65033 0.0
C1048 C 0.88047 0.69936 0.65472 0.0
C1049 C 0.85671 0.68745 0.64499 0.0
C1050 C 0.88204 0.72628 0.66025 0.0
C1051 C 0.85988 0.74177 0.65585 0.0
C1052 C 0.83656 0.72963 0.64233 0.0
C1053 C 0.83495 0.7029 0.63787 0.0
C1054 C 0.83827 0.80883 0.69863 0.0
C1055 C 0.85899 0.82435 0.68366 0.0
C1056 C 0.83905 0.78218 0.69123 0.0
C1057 C 0.86041 0.77017 0.66749 0.0
C1058 C 0.88168 0.78567 0.65452 0.0
C1059 C 0.88101 0.81245 0.66273 0.0
H1060 H 0.81827 0.11891 0.35091 0.0
H1061 H 0.81927 0.19514 0.41895 0.0
H1062 H 0.77157 0.11689 0.36461 0.0
H1063 H 0.77402 0.19256 0.43608 0.0
H1064 H 0.69014 0.1971 0.4103 0.0
H1065 H 0.7356 0.19568 0.39484 0.0
H1066 H 0.73573 0.11377 0.42306 0.0
H1067 H 0.68891 0.11512 0.43504 0.0
C1068 C 0.80857 0.13516 0.3688 0.0
C1069 C 0.8225 0.15735 0.3828 0.0
C1070 C 0.78183 0.13395 0.37726 0.0
C1071 C 0.76855 0.15474 0.40078 0.0
C1072 C 0.78295 0.17646 0.41605 0.0
C1073 C 0.80924 0.1779 0.40648 0.0
C1074 C 0.69971 0.1787 0.41357 0.0
C1075 C 0.68574 0.15624 0.42428 0.0
C1076 C 0.72612 0.17788 0.40505 0.0
C1077 C 0.73989 0.15466 0.40844 0.0
C1078 C 0.72596 0.13204 0.41967 0.0
C1079 C 0.69914 0.13281 0.42721 0.0
H1080 H 0.19653 0.32007 0.65653 0.0
H1081 H 0.11716 0.31952 0.60707 0.0
H1082 H 0.19501 0.27446 0.67188 0.0
H1083 H 0.11595 0.27267 0.61904 0.0
H1084 H 0.11723 0.19002 0.68918 0.0
H1085 H 0.11574 0.23685 0.67723 0.0
H1086 H 0.19549 0.23585 0.63058 0.0
H1087 H 0.19723 0.19023 0.64596 0.0
C1088 C 0.17876 0.31008 0.64786 0.0
C1089 C 0.15701 0.32357 0.63012 0.0
C1090 C 0.17791 0.2836 0.65633 0.0
C1091 C 0.15547 0.26932 0.64598 0.0
C1092 C 0.13358 0.28282 0.62796 0.0
C1093 C 0.1343 0.30967 0.62047 0.0
C1094 C 0.13446 0.20004 0.67718 0.0
C1095 C 0.15741 0.18635 0.66926 0.0
C1096 C 0.13358 0.22688 0.66967 0.0
C1097 C 0.15557 0.24059 0.65337 0.0
C1098 C 0.17828 0.22653 0.64478 0.0
C1099 C 0.17926 0.20006 0.65328 0.0
H1100 H 0.32054 0.89267 0.43342 0.0
H1101 H 0.31894 0.81175 0.39578 0.0
H1102 H 0.27363 0.89444 0.42302 0.0
H1103 H 0.27328 0.8137 0.38183 0.0
H1104 H 0.18969 0.81372 0.40959 0.0
H1105 H 0.23529 0.81536 0.42428 0.0
H1106 H 0.23706 0.89343 0.36614 0.0
H1107 H 0.19015 0.89221 0.35498 0.0
C1108 C 0.31021 0.8753 0.42302 0.0
C1109 C 0.32354 0.85202 0.41616 0.0
C1110 C 0.28331 0.87633 0.41639 0.0
C1111 C 0.2692 0.85414 0.40206 0.0
C1112 C 0.28291 0.8311 0.39456 0.0
C1113 C 0.30942 0.82999 0.40222 0.0
C1114 C 0.19966 0.8313 0.39958 0.0
C1115 C 0.18613 0.85276 0.38054 0.0
C1116 C 0.22614 0.8322 0.40769 0.0
C1117 C 0.24043 0.85436 0.39553 0.0
C1118 C 0.22691 0.87601 0.37639 0.0
C1119 C 0.20002 0.87527 0.36937 0.0
H1120 H 0.2376 0.09271 0.74641 0.0
H1121 H 0.17977 0.11232 0.86194 0.0
H1122 H 0.26976 0.09107 0.81802 0.0
H1123 H 0.21157 0.11126 0.93251 0.0
H1124 H 0.2712 0.08936 0.05986 0.0
H1125 H 0.23892 0.08679 0.98852 0.0
H1126 H 0.29383 0.11727 0.87723 0.0
H1127 H 0.32559 0.11971 0.94747 0.0
C1128 C 0.23165 0.09663 0.78687 0.0
C1129 C 0.20589 0.10276 0.79766 0.0
C1130 C 0.25018 0.09586 0.82823 0.0
C1131 C 0.24357 0.10109 0.88187 0.0
C1132 C 0.21768 0.10675 0.89242 0.0
C1133 C 0.19931 0.10759 0.85132 0.0
C1134 C 0.27638 0.09547 1.02019 0.0
C1135 C 0.30135 0.10452 1.01008 0.0
C1136 C 0.25778 0.09408 0.97897 0.0
C1137 C 0.26352 0.10164 0.92618 0.0
C1138 C 0.2885 0.11068 0.91647 0.0
C1139 C 0.3069 0.11216 0.95742 0.0
H1140 H 0.09323 0.73676 0.99323 0.0
H1141 H 0.11446 0.68047 0.11104 0.0
H1142 H 0.09065 0.7695 0.06341 0.0
H1143 H 0.11272 0.71289 0.18023 0.0
H1144 H 0.09021 0.77241 0.30615 0.0
H1145 H 0.08843 0.73962 0.23582 0.0
H1146 H 0.11435 0.79558 0.12154 0.0
H1147 H 0.11534 0.82802 0.19068 0.0
C1148 C 0.09742 0.73128 0.03389 0.0
C1149 C 0.10418 0.70573 0.04573 0.0
C1150 C 0.09611 0.75018 0.07449 0.0
C1151 C 0.10151 0.74422 0.12842 0.0
C1152 C 0.10799 0.71856 0.13995 0.0
C1153 C 0.10925 0.6998 0.09961 0.0
C1154 C 0.09539 0.77773 0.26599 0.0
C1155 C 0.10299 0.8031 0.25485 0.0
C1156 C 0.09455 0.75881 0.22534 0.0
C1157 C 0.10127 0.76458 0.17206 0.0
C1158 C 0.10858 0.79007 0.16122 0.0
C1159 C 0.10939 0.80884 0.20158 0.0
H1160 H 0.68209 0.90336 0.94028 0.0
H1161 H 0.74004 0.9146 0.06117 0.0
H1162 H 0.7145 0.9037 0.87186 0.0
H1163 H 0.77287 0.91625 0.99178 0.0
H1164 H 0.82927 0.89123 0.86245 0.0
H1165 H 0.79696 0.89287 0.9312 0.0
H1166 H 0.74327 0.92568 0.81896 0.0
H1167 H 0.7758 0.92312 0.74908 0.0
C1168 C 0.7018 0.90603 0.95259 0.0
C1169 C 0.70814 0.9086 1.00712 0.0
C1170 C 0.72062 0.90657 0.91267 0.0
C1171 C 0.74677 0.90998 0.9252 0.0
C1172 C 0.75315 0.9131 0.97979 0.0
C1173 C 0.7342 0.91239 1.01999 0.0
C1174 C 0.81061 0.89884 0.85199 0.0
C1175 C 0.80542 0.90697 0.79942 0.0
C1176 C 0.79192 0.90001 0.89212 0.0
C1177 C 0.76709 0.90951 0.88178 0.0
C1178 C 0.76187 0.91784 0.82913 0.0
C1179 C 0.78067 0.91653 0.78869 0.0
H1180 H 0.91789 0.33051 0.10818 0.0
H1181 H 0.89843 0.27178 0.99382 0.0
H1182 H 0.91955 0.29881 0.17845 0.0
H1183 H 0.89846 0.23981 0.0647 0.0
H1184 H 0.91539 0.18169 0.19349 0.0
H1185 H 0.91744 0.21343 0.12344 0.0
H1186 H 0.90045 0.2731 0.23824 0.0
H1187 H 0.89998 0.241 0.30901 0.0
C1188 C 0.91381 0.31072 0.09794 0.0
C1189 C 0.90811 0.30392 0.04478 0.0
C1190 C 0.91448 0.29231 0.13884 0.0
C1191 C 0.90895 0.26618 0.12878 0.0
C1192 C 0.90338 0.25937 0.07516 0.0
C1193 C 0.90323 0.27784 0.03393 0.0
C1194 C 0.9123 0.20165 0.20405 0.0
C1195 C 0.90758 0.20859 0.25746 0.0
C1196 C 0.91319 0.22008 0.16325 0.0
C1197 C 0.90887 0.2464 0.17365 0.0
C1198 C 0.90437 0.25336 0.22752 0.0
C1199 C 0.90398 0.23484 0.26868 0.0
H1200 H 0.27168 0.41877 0.2418 0.0
H1201 H 0.32854 0.39783 0.35924 0.0
H1202 H 0.23914 0.42068 0.31189 0.0
H1203 H 0.29627 0.39917 0.42843 0.0
H1204 H 0.23644 0.42135 0.55413 0.0
H1205 H 0.26909 0.42366 0.48416 0.0
H1206 H 0.21387 0.39557 0.3693 0.0
H1207 H 0.18164 0.39368 0.43817 0.0
C1208 C 0.27733 0.41457 0.28238 0.0
C1209 C 0.30297 0.40808 0.29411 0.0
C1210 C 0.25855 0.4155 0.3229 0.0
C1211 C 0.26473 0.41005 0.37671 0.0
C1212 C 0.29048 0.4039 0.38821 0.0
C1213 C 0.30913 0.40292 0.3479 0.0
C1214 C 0.23125 0.41578 0.51393 0.0
C1215 C 0.20613 0.40735 0.50254 0.0
C1216 C 0.25009 0.41696 0.4735 0.0
C1217 C 0.24446 0.40984 0.42017 0.0
C1218 C 0.21923 0.40168 0.40907 0.0
C1219 C 0.20057 0.40043 0.44924 0.0
H1220 H 0.39466 0.73843 0.80099 0.0
H1221 H 0.42249 0.6813 0.69099 0.0
H1222 H 0.39474 0.77028 0.72977 0.0
H1223 H 0.42386 0.71299 0.62064 0.0
H1224 H 0.40349 0.76898 0.48667 0.0
H1225 H 0.40383 0.73708 0.55792 0.0
H1226 H 0.41461 0.79776 0.67388 0.0
H1227 H 0.41279 0.82924 0.60327 0.0
C1228 C 0.40128 0.73274 0.76189 0.0
C1229 C 0.40849 0.7071 0.75227 0.0
C1230 C 0.40143 0.75113 0.72051 0.0
C1231 C 0.40922 0.74469 0.66806 0.0
C1232 C 0.41706 0.71908 0.65929 0.0
C1233 C 0.41652 0.70073 0.70029 0.0
C1234 C 0.40608 0.77544 0.52736 0.0
C1235 C 0.40807 0.80186 0.53865 0.0
C1236 C 0.40639 0.75704 0.56877 0.0
C1237 C 0.40915 0.76435 0.62301 0.0
C1238 C 0.41177 0.79086 0.63362 0.0
C1239 C 0.41101 0.80914 0.59252 0.0
H1240 H 0.67983 0.61843 0.364 0.0
H1241 H 0.73528 0.59245 0.24885 0.0
H1242 H 0.71196 0.61674 0.43366 0.0
H1243 H 0.76773 0.58994 0.31964 0.0
H1244 H 0.82685 0.61439 0.44575 0.0
H1245 H 0.79467 0.6134 0.37622 0.0
H1246 H 0.73731 0.5925 0.49173 0.0
H1247 H 0.76986 0.59419 0.56243 0.0
C1248 C 0.6989 0.61215 0.35328 0.0
C1249 C 0.7047 0.6057 0.29997 0.0
C1250 C 0.71749 0.61093 0.39393 0.0
C1251 C 0.74282 0.60312 0.38333 0.0
C1252 C 0.74866 0.59643 0.32997 0.0
C1253 C 0.72994 0.59772 0.28903 0.0
C1254 C 0.80744 0.60944 0.45687 0.0
C1255 C 0.80126 0.60439 0.51059 0.0
C1256 C 0.78879 0.60869 0.41628 0.0
C1257 C 0.763 0.60281 0.42731 0.0
C1258 C 0.75676 0.59749 0.48104 0.0
C1259 C 0.77554 0.59829 0.52194 0.0
H1260 H 0.58919 0.23755 0.49757 0.0
H1261 H 0.61477 0.18144 0.61219 0.0
H1262 H 0.58707 0.26987 0.56871 0.0
H1263 H 0.61347 0.21346 0.68208 0.0
H1264 H 0.59235 0.27136 0.81162 0.0
H1265 H 0.58995 0.23897 0.74067 0.0
H1266 H 0.61082 0.2965 0.62525 0.0
H1267 H 0.61231 0.32855 0.69501 0.0
C1268 C 0.5944 0.23204 0.5377 0.0
C1269 C 0.6022 0.20667 0.54836 0.0
C1270 C 0.59336 0.25068 0.57884 0.0
C1271 C 0.60012 0.24464 0.63211 0.0
C1272 C 0.60765 0.21916 0.64244 0.0
C1273 C 0.60863 0.20064 0.60162 0.0
C1274 C 0.5963 0.27711 0.7711 0.0
C1275 C 0.60259 0.30283 0.75986 0.0
C1276 C 0.59509 0.25842 0.73005 0.0
C1277 C 0.6002 0.26475 0.67626 0.0
C1278 C 0.60627 0.29055 0.66535 0.0
C1279 C 0.60738 0.30911 0.70608 0.0
H1280 H 0.37453 0.13286 0.47257 0.0
H1281 H 0.31289 0.08111 0.51302 0.0
H1282 H 0.38435 0.13865 0.56659 0.0
H1283 H 0.32367 0.08574 0.60691 0.0
H1284 H 0.33404 0.11722 0.77561 0.0
H1285 H 0.32266 0.11367 0.68157 0.0
H1286 H 0.40293 0.11734 0.64017 0.0
H1287 H 0.41418 0.12133 0.734 0.0
C1288 C 0.36295 0.12277 0.5014 0.0
C1289 C 0.34286 0.1065 0.48468 0.0
C1290 C 0.36886 0.1258 0.55558 0.0
C1291 C 0.35496 0.11257 0.59487 0.0
C1292 C 0.3347 0.0965 0.57818 0.0
C1293 C 0.32872 0.09355 0.524 0.0
C1294 C 0.34927 0.11717 0.74643 0.0
C1295 C 0.37505 0.11963 0.7626 0.0
C1296 C 0.34274 0.11507 0.69233 0.0
C1297 C 0.36182 0.11521 0.65275 0.0
C1298 C 0.3876 0.11766 0.66908 0.0
C1299 C 0.3941 0.11991 0.72311 0.0
H1300 H 0.08477 0.62426 0.5737 0.0
H1301 H 0.13543 0.68895 0.55168 0.0
H1302 H 0.08723 0.61446 0.47888 0.0
H1303 H 0.13856 0.67865 0.45706 0.0
H1304 H 0.11546 0.66859 0.28059 0.0
H1305 H 0.11323 0.67897 0.37526 0.0
H1306 H 0.11708 0.59822 0.41314 0.0
H1307 H 0.11948 0.58783 0.31871 0.0
C1308 C 0.09641 0.63644 0.54866 0.0
C1309 C 0.10987 0.65743 0.57055 0.0
C1310 C 0.09806 0.63064 0.49427 0.0
C1311 C 0.11314 0.64571 0.46011 0.0
C1312 C 0.12656 0.66675 0.48196 0.0
C1313 C 0.125 0.67249 0.53643 0.0
C1314 C 0.11611 0.65303 0.30907 0.0
C1315 C 0.11758 0.62733 0.29167 0.0
C1316 C 0.11481 0.65901 0.36348 0.0
C1317 C 0.11488 0.63945 0.40205 0.0
C1318 C 0.11651 0.61378 0.38466 0.0
C1319 C 0.11787 0.60781 0.33034 0.0
H1320 H 0.68663 0.93944 0.50747 0.0
H1321 H 0.64426 0.87011 0.47151 0.0
H1322 H 0.67704 0.9341 0.60174 0.0
H1323 H 0.63434 0.86513 0.56549 0.0
H1324 H 0.59645 0.88189 0.72682 0.0
H1325 H 0.60818 0.88604 0.63345 0.0
H1326 H 0.68537 0.90663 0.67976 0.0
H1327 H 0.67345 0.90308 0.77349 0.0
C1328 C 0.67553 0.92289 0.51951 0.0
C1329 C 0.66613 0.90532 0.48131 0.0
C1330 C 0.66998 0.91986 0.57376 0.0
C1331 C 0.65474 0.89927 0.59138 0.0
C1332 C 0.64572 0.88149 0.55337 0.0
C1333 C 0.65139 0.88441 0.49926 0.0
C1334 C 0.6159 0.88745 0.71722 0.0
C1335 C 0.63395 0.89222 0.75793 0.0
C1336 C 0.62272 0.88957 0.66353 0.0
C1337 C 0.64776 0.89664 0.64885 0.0
C1338 C 0.66586 0.90135 0.68951 0.0
C1339 C 0.65908 0.89906 0.74331 0.0
H1340 H 0.88841 0.42204 0.31801 0.0
H1341 H 0.90706 0.34339 0.27899 0.0
H1342 H 0.89128 0.41197 0.41242 0.0
H1343 H 0.90986 0.33326 0.3736 0.0
H1344 H 0.9368 0.32963 0.54737 0.0
H1345 H 0.93499 0.34014 0.45293 0.0
H1346 H 0.86967 0.38922 0.4816 0.0
H1347 H 0.87219 0.37962 0.57626 0.0
C1348 C 0.8929 0.40251 0.32949 0.0
C1349 C 0.89742 0.38355 0.29055 0.0
C1350 C 0.89454 0.39671 0.38384 0.0
C1351 C 0.90074 0.37175 0.40104 0.0
C1352 C 0.90541 0.3528 0.36209 0.0
C1353 C 0.90379 0.35861 0.30767 0.0
C1354 C 0.92223 0.34292 0.53372 0.0
C1355 C 0.90467 0.35376 0.56984 0.0
C1356 C 0.92098 0.3487 0.47926 0.0
C1357 C 0.90215 0.36554 0.45923 0.0
C1358 C 0.88464 0.37642 0.49539 0.0
C1359 C 0.88589 0.37063 0.5498 0.0
H1360 H 0.39288 0.3587 0.55849 0.0
H1361 H 0.36591 0.43644 0.53748 0.0
H1362 H 0.3827 0.36122 0.65315 0.0
H1363 H 0.35628 0.43916 0.63235 0.0
H1364 H 0.31665 0.42431 0.79295 0.0
H1365 H 0.32645 0.42172 0.69837 0.0
H1366 H 0.3975 0.38289 0.73483 0.0
H1367 H 0.38801 0.38587 0.82959 0.0
C1368 C 0.38468 0.37631 0.57396 0.0
C1369 C 0.38023 0.39736 0.54014 0.0
C1370 C 0.37909 0.37785 0.62844 0.0
C1371 C 0.3687 0.40041 0.6506 0.0
C1372 C 0.36406 0.42139 0.6167 0.0
C1373 C 0.36982 0.41993 0.56231 0.0
C1374 C 0.33455 0.4155 0.78107 0.0
C1375 C 0.35151 0.40535 0.81944 0.0
C1376 C 0.34014 0.41396 0.72661 0.0
C1377 C 0.36278 0.40208 0.70876 0.0
C1378 C 0.37971 0.39184 0.74699 0.0
C1379 C 0.37421 0.39353 0.80149 0.0
H1380 H 0.40128 0.70371 0.25085 0.0
H1381 H 0.40858 0.62291 0.21469 0.0
H1382 H 0.39815 0.69363 0.34566 0.0
H1383 H 0.40496 0.61282 0.30906 0.0
H1384 H 0.42646 0.60638 0.48529 0.0
H1385 H 0.42983 0.61755 0.39157 0.0
H1386 H 0.36891 0.67297 0.41001 0.0
H1387 H 0.36518 0.66152 0.50381 0.0
C1388 C 0.40224 0.68381 0.26309 0.0
C1389 C 0.40515 0.66413 0.22502 0.0
C1390 C 0.40022 0.67801 0.31742 0.0
C1391 C 0.40134 0.6524 0.33513 0.0
C1392 C 0.40428 0.63277 0.29701 0.0
C1393 C 0.40608 0.63854 0.24275 0.0
C1394 C 0.41354 0.62075 0.46943 0.0
C1395 C 0.39539 0.63284 0.50245 0.0
C1396 C 0.41553 0.6272 0.41554 0.0
C1397 C 0.39955 0.64608 0.39301 0.0
C1398 C 0.38171 0.65853 0.42609 0.0
C1399 C 0.3796 0.65197 0.48002 0.0
H1400 H 0.69061 0.58906 0.79934 0.0
H1401 H 0.62373 0.63476 0.83503 0.0
H1402 H 0.68044 0.5914 0.70468 0.0
H1403 H 0.61369 0.63743 0.74038 0.0
H1404 H 0.58789 0.61507 0.57293 0.0
H1405 H 0.59855 0.61274 0.6671 0.0
H1406 H 0.67907 0.61912 0.62938 0.0
H1407 H 0.66845 0.62007 0.53482 0.0
C1408 C 0.67387 0.59986 0.78699 0.0
C1409 C 0.65799 0.61168 0.82503 0.0
C1410 C 0.66803 0.60125 0.73253 0.0
C1411 C 0.64618 0.61459 0.71446 0.0
C1412 C 0.63041 0.62657 0.75258 0.0
C1413 C 0.63619 0.62507 0.80703 0.0
C1414 C 0.60791 0.61567 0.58452 0.0
C1415 C 0.62727 0.61765 0.54584 0.0
C1416 C 0.61403 0.6147 0.63883 0.0
C1417 C 0.63971 0.6158 0.6563 0.0
C1418 C 0.65909 0.61792 0.61766 0.0
C1419 C 0.65296 0.61881 0.56326 0.0
H1420 H 0.6165 0.41677 0.48346 0.0
H1421 H 0.61979 0.33621 0.5239 0.0
H1422 H 0.61214 0.40549 0.38977 0.0
H1423 H 0.61601 0.32502 0.42966 0.0
H1424 H 0.63364 0.31726 0.24879 0.0
H1425 H 0.63934 0.32791 0.34318 0.0
H1426 H 0.5801 0.38552 0.33029 0.0
H1427 H 0.57469 0.37519 0.23616 0.0
C1428 C 0.61613 0.39663 0.4726 0.0
C1429 C 0.61831 0.37746 0.51181 0.0
C1430 C 0.6137 0.39017 0.41864 0.0
C1431 C 0.61359 0.36434 0.40202 0.0
C1432 C 0.61628 0.34512 0.44093 0.0
C1433 C 0.61851 0.35158 0.49509 0.0
C1434 C 0.62194 0.33229 0.26608 0.0
C1435 C 0.60366 0.34532 0.23479 0.0
C1436 C 0.62505 0.33824 0.32031 0.0
C1437 C 0.6102 0.35761 0.34445 0.0
C1438 C 0.59204 0.37068 0.31302 0.0
C1439 C 0.58875 0.36456 0.25908 0.0
H1440 H 0.88443 0.60039 0.97686 0.0
H1441 H 0.80426 0.61387 1.00859 0.0
H1442 H 0.89415 0.60479 0.07125 0.0
H1443 H 0.81399 0.61898 0.10322 0.0
H1444 H 0.83659 0.60217 0.27605 0.0
H1445 H 0.82627 0.59737 0.18192 0.0
H1446 H 0.89765 0.6345 0.14126 0.0
H1447 H 0.9087 0.63774 0.235 0.0
C1448 C 0.86889 0.60463 1.00398 0.0
C1449 C 0.84357 0.60688 0.98499 0.0
C1450 C 0.87447 0.60724 0.0583 0.0
C1451 C 0.85493 0.61243 0.09537 0.0
C1452 C 0.82955 0.61463 0.07629 0.0
C1453 C 0.82394 0.61178 1.02189 0.0
C1454 C 0.85027 0.60903 0.24709 0.0
C1455 C 0.87359 0.62026 0.26363 0.0
C1456 C 0.84415 0.60661 0.19286 0.0
C1457 C 0.8611 0.61546 0.15345 0.0
C1458 C 0.88423 0.62702 0.17008 0.0
C1459 C 0.89042 0.62927 0.22421 0.0
H1460 H 0.64697 0.10535 0.81751 0.0
H1461 H 0.58372 0.15686 0.78606 0.0
H1462 H 0.64417 0.11533 0.91216 0.0
H1463 H 0.58064 0.16634 0.88095 0.0
H1464 H 0.56562 0.15464 0.06031 0.0
H1465 H 0.56875 0.14492 0.96532 0.0
H1466 H 0.65121 0.15138 0.97506 0.0
H1467 H 0.64811 0.16067 0.07021 0.0
C1468 C 0.63261 0.11899 0.83053 0.0
C1469 C 0.61558 0.13026 0.79369 0.0
C1470 C 0.63097 0.12465 0.88499 0.0
C1471 C 0.61214 0.1416 0.90429 0.0
C1472 C 0.59512 0.1529 0.8676 0.0
C1473 C 0.59688 0.1474 0.81307 0.0
C1474 C 0.58444 0.1538 0.04228 0.0
C1475 C 0.60661 0.15843 0.073 0.0
C1476 C 0.58622 0.14848 0.98768 0.0
C1477 C 0.61024 0.1474 0.96244 0.0
C1478 C 0.63242 0.15186 0.99324 0.0
C1479 C 0.63063 0.15742 0.04772 0.0
H1480 H 0.16942 0.40242 0.26727 0.0
H1481 H 0.09071 0.38409 0.22827 0.0
H1482 H 0.1791 0.40631 0.17275 0.0
H1483 H 0.10042 0.38786 0.13394 0.0
H1484 H 0.13219 0.37153 0.968 0.0
H1485 H 0.12334 0.36714 0.06268 0.0
H1486 H 0.17114 0.43308 0.09601 0.0
H1487 H 0.18088 0.43681 1.00156 0.0
C1488 C 0.1541 0.3994 0.23866 0.0
C1489 C 0.12925 0.39288 0.25578 0.0
C1490 C 0.15967 0.40163 0.1843 0.0
C1491 C 0.14058 0.39737 0.1454 0.0
C1492 C 0.11575 0.39085 0.16252 0.0
C1493 C 0.11017 0.38866 0.21683 0.0
C1494 C 0.14107 0.38495 0.99548 0.0
C1495 C 0.1573 0.40452 0.97676 0.0
C1496 C 0.13572 0.38261 0.04989 0.0
C1497 C 0.14645 0.39977 0.0873 0.0
C1498 C 0.16273 0.41932 0.06862 0.0
C1499 C 0.16806 0.42166 1.01419 0.0
H1500 H 0.37016 0.82711 0.04915 0.0
H1501 H 0.43809 0.87422 0.06311 0.0
H1502 H 0.36774 0.83661 0.95453 0.0
H1503 H 0.43492 0.88479 0.96889 0.0
H1504 H 0.43751 0.87737 0.78723 0.0
H1505 H 0.44044 0.86732 0.88184 0.0
H1506 H 0.35778 0.86965 0.89286 0.0
H1507 H 0.35493 0.87927 0.79814 0.0
C1508 C 0.38464 0.83949 0.03213 0.0
C1509 C 0.4044 0.84977 0.06413 0.0
C1510 C 0.38303 0.84525 0.97777 0.0
C1511 C 0.4011 0.86154 0.95363 0.0
C1512 C 0.42081 0.87192 0.98568 0.0
C1513 C 0.42244 0.86612 0.04007 0.0
C1514 C 0.41997 0.87587 0.80992 0.0
C1515 C 0.39598 0.8791 0.78489 0.0
C1516 C 0.42163 0.87016 0.86434 0.0
C1517 C 0.39935 0.86764 0.89543 0.0
C1518 C 0.37537 0.87095 0.87029 0.0
C1519 C 0.37371 0.87651 0.81583 0.0
H1520 H 0.8255 0.87305 0.30715 0.0
H1521 H 0.8824 0.93265 0.32767 0.0
H1522 H 0.83487 0.87132 0.21234 0.0
H1523 H 0.8927 0.92997 0.23343 0.0
H1524 H 0.8869 0.93831 0.05317 0.0
H1525 H 0.87643 0.9403 0.14748 0.0
H1526 H 0.86627 0.85794 0.14929 0.0
H1527 H 0.87646 0.85605 0.05469 0.0
C1528 C 0.84001 0.88582 0.29157 0.0
C1529 C 0.8531 0.90305 0.32548 0.0
C1530 C 0.84565 0.88458 0.23709 0.0
C1531 C 0.86459 0.90049 0.21479 0.0
C1532 C 0.87775 0.91763 0.24876 0.0
C1533 C 0.87208 0.91891 0.3032 0.0
C1534 C 0.88259 0.92058 0.07372 0.0
C1535 C 0.88263 0.897 0.04613 0.0
C1536 C 0.87661 0.92171 0.128 0.0
C1537 C 0.87057 0.89928 0.1565 0.0
C1538 C 0.87043 0.8757 0.12876 0.0
C1539 C 0.87631 0.87459 0.07436 0.0
H1540 H 0.93307 0.11888 1.00164 0.0
H1541 H 0.85568 0.1483 1.00395 0.0
H1542 H 0.9363 0.12931 0.90743 0.0
H1543 H 0.85859 0.15824 0.90939 0.0
H1544 H 0.87973 0.19489 0.75121 0.0
H1545 H 0.87748 0.1858 0.84598 0.0
H1546 H 0.92191 0.1167 0.82196 0.0
H1547 H 0.9255 0.12662 0.7278 0.0
C1548 C 0.91664 0.12738 0.98189 0.0
C1549 C 0.89411 0.1327 1.01044 0.0
C1550 C 0.91845 0.13331 0.92769 0.0
C1551 C 0.89768 0.14456 0.90029 0.0
C1552 C 0.87517 0.14999 0.92904 0.0
C1553 C 0.87345 0.14423 0.98338 0.0
C1554 C 0.88935 0.17793 0.76613 0.0
C1555 C 0.90287 0.16157 0.73141 0.0
C1556 C 0.88774 0.1725 0.82061 0.0
C1557 C 0.89946 0.15045 0.84208 0.0
C1558 C 0.9129 0.13404 0.80731 0.0
C1559 C 0.91464 0.13955 0.7529 0.0
H1560 H 0.08975 0.10853 0.06738 0.0
H1561 H 0.17007 0.11996 0.03311 0.0
H1562 H 0.0999 0.10408 0.16141 0.0
H1563 H 0.18004 0.11705 0.12767 0.0
H1564 H 0.19335 0.08494 0.29474 0.0
H1565 H 0.18336 0.08842 0.20018 0.0
H1566 H 0.11235 0.12696 0.23843 0.0
H1567 H 0.1222 0.12301 0.33296 0.0
C1568 C 0.10962 0.11008 0.07972 0.0
C1569 C 0.12904 0.11454 0.04205 0.0
C1570 C 0.11543 0.10791 0.13409 0.0
C1571 C 0.14084 0.11026 0.15276 0.0
C1572 C 0.16027 0.11479 0.11511 0.0
C1573 C 0.15448 0.11684 0.06066 0.0
C1574 C 0.17566 0.09429 0.28299 0.0
C1575 C 0.1586 0.10366 0.32175 0.0
C1576 C 0.16993 0.09636 0.22855 0.0
C1577 C 0.147 0.10801 0.21108 0.0
C1578 C 0.12997 0.11743 0.24996 0.0
C1579 C 0.13565 0.11521 0.30441 0.0
H1580 H 0.08219 0.8197 0.75536 0.0
H1581 H 0.13003 0.88492 0.71873 0.0
H1582 H 0.08583 0.82965 0.84996 0.0
H1583 H 0.13399 0.89472 0.81334 0.0
H1584 H 0.11485 0.92081 0.98196 0.0
H1585 H 0.111 0.9106 0.88775 0.0
H1586 H 0.11433 0.82963 0.9243 0.0
H1587 H 0.11679 0.83985 1.01892 0.0
C1588 C 0.09371 0.83603 0.76749 0.0
C1589 C 0.10578 0.8515 0.72919 0.0
C1590 C 0.09586 0.84173 0.82192 0.0
C1591 C 0.11023 0.86303 0.83975 0.0
C1592 C 0.12238 0.87844 0.80136 0.0
C1593 C 0.12013 0.8728 0.74692 0.0
C1594 C 0.11446 0.9008 0.97012 0.0
C1595 C 0.11603 0.8812 1.00851 0.0
C1596 C 0.11261 0.89492 0.91577 0.0
C1597 C 0.11238 0.86925 0.89794 0.0
C1598 C 0.11412 0.84963 0.93629 0.0
C1599 C 0.11589 0.85551 0.99073 0.0
loop_
_geom_bond_atom_site_label_1
_geom_bond_atom_site_label_2
_geom_bond_distance
_geom_bond_site_symmetry_2
_ccdc_geom_bond_type
Gd0 C3 2.818 . S
Gd0 O20 2.377 . S
Gd0 O22 2.448 . S
Gd0 O23 2.506 . S
Gd0 O24 2.435 . S
Gd0 O25 2.717 . S
Gd0 O27 2.395 . S
Gd0 O31 2.327 . S
Gd1 C12 2.818 1_554 S
Gd1 O21 2.395 . S
Gd1 O25 2.327 . S
Gd1 O26 2.377 . S
Gd1 O28 2.448 1_554 S
Gd1 O29 2.506 1_554 S
Gd1 O30 2.435 . S
Gd1 O31 2.717 . S
C2 O20 1.240 . S
C2 O21 1.240 . S
C3 Gd0 2.818 . S
C3 C4 1.510 . S
C3 O22 1.249 . S
C3 O23 1.252 . S
C4 C3 1.510 . S
C4 C5 1.404 . S
C4 C6 1.352 . S
C5 C4 1.404 . S
C5 C9 1.389 . S
C5 H32 0.930 . S
C6 C4 1.352 . S
C6 C8 1.374 . S
C6 H33 0.931 . S
C7 C8 1.359 . S
C7 C9 1.364 . S
C8 C6 1.374 . S
C8 C7 1.359 . S
C8 H34 0.931 . S
C9 C5 1.389 . S
C9 C7 1.364 . S
C9 H35 0.931 . S
C10 O24 1.256 . S
C10 O25 1.257 . S
C11 O26 1.240 . S
C11 O27 1.240 . S
C12 Gd1 2.818 1_556 S
C12 C13 1.510 . S
C12 O28 1.249 . S
C12 O29 1.252 . S
C13 C12 1.510 . S
C13 C14 1.404 . S
C13 C15 1.352 . S
C14 C13 1.404 . S
C14 C18 1.389 . S
C14 H36 0.930 . S
C15 C13 1.352 . S
C15 C17 1.374 . S
C15 H37 0.931 . S
C16 C17 1.359 . S
C16 C18 1.364 . S
C17 C15 1.374 . S
C17 C16 1.359 . S
C17 H38 0.931 . S
C18 C14 1.389 . S
C18 C16 1.364 . S
C18 H39 0.931 . S
C19 O30 1.256 . S
C19 O31 1.257 . S
O20 Gd0 2.377 . S
O20 C2 1.240 . S
O21 Gd1 2.395 . S
O21 C2 1.240 . S
O22 Gd0 2.448 . S
O22 C3 1.249 . S
O23 Gd0 2.506 . S
O23 C3 1.252 . S
O24 Gd0 2.435 . S
O24 C10 1.256 . S
O25 Gd0 2.717 . S
O25 Gd1 2.327 . S
O25 C10 1.257 . S
O26 Gd1 2.377 . S
O26 C11 1.240 . S
O27 Gd0 2.395 . S
O27 C11 1.240 . S
O28 Gd1 2.448 1_556 S
O28 C12 1.249 . S
O29 Gd1 2.506 1_556 S
O29 C12 1.252 . S
O30 Gd1 2.435 . S
O30 C19 1.256 . S
O31 Gd0 2.327 . S
O31 Gd1 2.717 . S
O31 C19 1.257 . S
H32 C5 0.930 . S
H33 C6 0.931 . S
H34 C8 0.931 . S
H35 C9 0.931 . S
H36 C14 0.930 . S
H37 C15 0.931 . S
H38 C17 0.931 . S
H39 C18 0.931 . S
Gd40 C43 2.818 1_556 S
Gd40 O60 2.377 . S
Gd40 O62 2.448 1_556 S
Gd40 O63 2.506 1_556 S
Gd40 O64 2.435 . S
Gd40 O65 2.717 . S
Gd40 O67 2.395 . S
Gd40 O71 2.327 . S
Gd41 C52 2.818 . S
Gd41 O61 2.395 . S
Gd41 O65 2.327 . S
Gd41 O66 2.377 . S
Gd41 O68 2.448 . S
Gd41 O69 2.506 . S
Gd41 O70 2.435 . S
Gd41 O71 2.717 . S
C42 O60 1.240 . S
C42 O61 1.240 . S
C43 Gd40 2.818 1_554 S
C43 C44 1.510 . S
C43 O62 1.249 . S
C43 O63 1.252 . S
C44 C43 1.510 . S
C44 C45 1.404 . S
C44 C46 1.352 . S
C45 C44 1.404 . S
C45 C49 1.389 . S
C45 H72 0.930 . S
C46 C44 1.352 . S
C46 C48 1.374 . S
C46 H73 0.931 . S
C47 C48 1.359 . S
C47 C49 1.364 . S
C48 C46 1.374 . S
C48 C47 1.359 . S
C48 H74 0.931 . S
C49 C45 1.389 . S
C49 C47 1.364 . S
C49 H75 0.931 . S
C50 O64 1.256 . S
C50 O65 1.257 . S
C51 O66 1.240 . S
C51 O67 1.240 . S
C52 Gd41 2.818 . S
C52 C53 1.510 . S
C52 O68 1.249 . S
C52 O69 1.252 . S
C53 C52 1.510 . S
C53 C54 1.404 . S
C53 C55 1.352 . S
C54 C53 1.404 . S
C54 C58 1.389 . S
C54 H76 0.930 . S
C55 C53 1.352 . S
C55 C57 1.374 . S
C55 H77 0.931 . S
C56 C57 1.359 . S
C56 C58 1.364 . S
C57 C55 1.374 . S
C57 C56 1.359 . S
C57 H78 0.931 . S
C58 C54 1.389 . S
C58 C56 1.364 . S
C58 H79 0.931 . S
C59 O70 1.256 . S
C59 O71 1.257 . S
O60 Gd40 2.377 . S
O60 C42 1.240 . S
O61 Gd41 2.395 . S
O61 C42 1.240 . S
O62 Gd40 2.448 1_554 S
O62 C43 1.249 . S
O63 Gd40 2.506 1_554 S
O63 C43 1.252 . S
O64 Gd40 2.435 . S
O64 C50 1.256 . S
O65 Gd40 2.717 . S
O65 Gd41 2.327 . S
O65 C50 1.257 . S
O66 Gd41 2.377 . S
O66 C51 1.240 . S
O67 Gd40 2.395 . S
O67 C51 1.240 . S
O68 Gd41 2.448 . S
O68 C52 1.249 . S
O69 Gd41 2.506 . S
O69 C52 1.252 . S
O70 Gd41 2.435 . S
O70 C59 1.256 . S
O71 Gd40 2.327 . S
O71 Gd41 2.717 . S
O71 C59 1.257 . S
H72 C45 0.930 . S
H73 C46 0.931 . S
H74 C48 0.931 . S
H75 C49 0.931 . S
H76 C54 0.930 . S
H77 C55 0.931 . S
H78 C57 0.931 . S
H79 C58 0.931 . S
Gd80 C83 2.818 . S
Gd80 O100 2.377 . S
Gd80 O102 2.448 . S
Gd80 O103 2.506 . S
Gd80 O104 2.435 . S
Gd80 O105 2.717 . S
Gd80 O107 2.395 . S
Gd80 O111 2.327 . S
Gd81 C92 2.818 1_554 S
Gd81 O101 2.395 . S
Gd81 O105 2.327 . S
Gd81 O106 2.377 . S
Gd81 O108 2.448 1_554 S
Gd81 O109 2.506 1_554 S
Gd81 O110 2.435 . S
Gd81 O111 2.717 . S
C82 O100 1.240 . S
C82 O101 1.240 . S
C83 Gd80 2.818 . S
C83 C84 1.510 . S
C83 O102 1.249 . S
C83 O103 1.252 . S
C84 C83 1.510 . S
C84 C85 1.404 . S
C84 C86 1.352 . S
C85 C84 1.404 . S
C85 C89 1.389 . S
C85 H112 0.930 . S
C86 C84 1.352 . S
C86 C88 1.374 . S
C86 H113 0.931 . S
C87 C88 1.359 . S
C87 C89 1.364 . S
C88 C86 1.374 . S
C88 C87 1.359 . S
C88 H114 0.931 . S
C89 C85 1.389 . S
C89 C87 1.364 . S
C89 H115 0.931 . S
C90 O104 1.256 . S
C90 O105 1.257 . S
C91 O106 1.240 . S
C91 O107 1.240 . S
C92 Gd81 2.818 1_556 S
C92 C93 1.510 . S
C92 O108 1.249 . S
C92 O109 1.252 . S
C93 C92 1.510 . S
C93 C94 1.404 . S
C93 C95 1.352 . S
C94 C93 1.404 . S
C94 C98 1.389 . S
C94 H116 0.930 . S
C95 C93 1.352 . S
C95 C97 1.374 . S
C95 H117 0.931 . S
C96 C97 1.359 . S
C96 C98 1.364 . S
C97 C95 1.374 . S
C97 C96 1.359 . S
C97 H118 0.931 . S
C98 C94 1.389 . S
C98 C96 1.364 . S
C98 H119 0.931 . S
C99 O110 1.256 . S
C99 O111 1.257 . S
O100 Gd80 2.377 . S
O100 C82 1.240 . S
O101 Gd81 2.395 . S
O101 C82 1.240 . S
O102 Gd80 2.448 . S
O102 C83 1.249 . S
O103 Gd80 2.506 . S
O103 C83 1.252 . S
O104 Gd80 2.435 . S
O104 C90 1.256 . S
O105 Gd80 2.717 . S
O105 Gd81 2.327 . S
O105 C90 1.257 . S
O106 Gd81 2.377 . S
O106 C91 1.240 . S
O107 Gd80 2.395 . S
O107 C91 1.240 . S
O108 Gd81 2.448 1_556 S
O108 C92 1.249 . S
O109 Gd81 2.506 1_556 S
O109 C92 1.252 . S
O110 Gd81 2.435 . S
O110 C99 1.256 . S
O111 Gd80 2.327 . S
O111 Gd81 2.717 . S
O111 C99 1.257 . S
H112 C85 0.930 . S
H113 C86 0.931 . S
H114 C88 0.931 . S
H115 C89 0.931 . S
H116 C94 0.930 . S
H117 C95 0.931 . S
H118 C97 0.931 . S
H119 C98 0.931 . S
Gd120 C123 2.818 1_556 S
Gd120 O140 2.377 . S
Gd120 O142 2.448 1_556 S
Gd120 O143 2.506 1_556 S
Gd120 O144 2.435 . S
Gd120 O145 2.717 . S
Gd120 O147 2.395 . S
Gd120 O151 2.327 . S
Gd121 C132 2.818 . S
Gd121 O141 2.395 . S
Gd121 O145 2.327 . S
Gd121 O146 2.377 . S
Gd121 O148 2.448 . S
Gd121 O149 2.506 . S
Gd121 O150 2.435 . S
Gd121 O151 2.717 . S
C122 O140 1.240 . S
C122 O141 1.240 . S
C123 Gd120 2.818 1_554 S
C123 C124 1.510 . S
C123 O142 1.249 . S
C123 O143 1.252 . S
C124 C123 1.510 . S
C124 C125 1.404 . S
C124 C126 1.352 . S
C125 C124 1.404 . S
C125 C129 1.389 . S
C125 H152 0.930 . S
C126 C124 1.352 . S
C126 C128 1.374 . S
C126 H153 0.931 . S
C127 C128 1.359 . S
C127 C129 1.364 . S
C128 C126 1.374 . S
C128 C127 1.359 . S
C128 H154 0.931 . S
C129 C125 1.389 . S
C129 C127 1.364 . S
C129 H155 0.931 . S
C130 O144 1.256 . S
C130 O145 1.257 . S
C131 O146 1.240 . S
C131 O147 1.240 . S
C132 Gd121 2.818 . S
C132 C133 1.510 . S
C132 O148 1.249 . S
C132 O149 1.252 . S
C133 C132 1.510 . S
C133 C134 1.404 . S
C133 C135 1.352 . S
C134 C133 1.404 . S
C134 C138 1.389 . S
C134 H156 0.930 . S
C135 C133 1.352 . S
C135 C137 1.374 . S
C135 H157 0.931 . S
C136 C137 1.359 . S
C136 C138 1.364 . S
C137 C135 1.374 . S
C137 C136 1.359 . S
C137 H158 0.931 . S
C138 C134 1.389 . S
C138 C136 1.364 . S
C138 H159 0.931 . S
C139 O150 1.256 . S
C139 O151 1.257 . S
O140 Gd120 2.377 . S
O140 C122 1.240 . S
O141 Gd121 2.395 . S
O141 C122 1.240 . S
O142 Gd120 2.448 1_554 S
O142 C123 1.249 . S
O143 Gd120 2.506 1_554 S
O143 C123 1.252 . S
O144 Gd120 2.435 . S
O144 C130 1.256 . S
O145 Gd120 2.717 . S
O145 Gd121 2.327 . S
O145 C130 1.257 . S
O146 Gd121 2.377 . S
O146 C131 1.240 . S
O147 Gd120 2.395 . S
O147 C131 1.240 . S
O148 Gd121 2.448 . S
O148 C132 1.249 . S
O149 Gd121 2.506 . S
O149 C132 1.252 . S
O150 Gd121 2.435 . S
O150 C139 1.256 . S
O151 Gd120 2.327 . S
O151 Gd121 2.717 . S
O151 C139 1.257 . S
H152 C125 0.930 . S
H153 C126 0.931 . S
H154 C128 0.931 . S
H155 C129 0.931 . S
H156 C134 0.930 . S
H157 C135 0.931 . S
H158 C137 0.931 . S
H159 C138 0.931 . S
Gd160 C163 2.818 1_554 S
Gd160 O180 2.377 . S
Gd160 O182 2.448 1_554 S
Gd160 O183 2.506 1_554 S
Gd160 O184 2.435 . S
Gd160 O185 2.717 . S
Gd160 O187 2.395 . S
Gd160 O191 2.327 . S
Gd161 C172 2.818 . S
Gd161 O181 2.395 . S
Gd161 O185 2.327 . S
Gd161 O186 2.377 . S
Gd161 O188 2.448 . S
Gd161 O189 2.506 . S
Gd161 O190 2.435 . S
Gd161 O191 2.717 . S
C162 O180 1.240 . S
C162 O181 1.240 . S
C163 Gd160 2.818 1_556 S
C163 C164 1.510 . S
C163 O182 1.249 . S
C163 O183 1.252 . S
C164 C163 1.510 . S
C164 C165 1.404 . S
C164 C166 1.352 . S
C165 C164 1.404 . S
C165 C169 1.389 . S
C165 H192 0.930 . S
C166 C164 1.352 . S
C166 C168 1.374 . S
C166 H193 0.931 . S
C167 C168 1.359 . S
C167 C169 1.364 . S
C168 C166 1.374 . S
C168 C167 1.359 . S
C168 H194 0.931 . S
C169 C165 1.389 . S
C169 C167 1.364 . S
C169 H195 0.931 . S
C170 O184 1.256 . S
C170 O185 1.257 . S
C171 O186 1.240 . S
C171 O187 1.240 . S
C172 Gd161 2.818 . S
C172 C173 1.510 . S
C172 O188 1.249 . S
C172 O189 1.252 . S
C173 C172 1.510 . S
C173 C174 1.404 . S
C173 C175 1.352 . S
C174 C173 1.404 . S
C174 C178 1.389 . S
C174 H196 0.930 . S
C175 C173 1.352 . S
C175 C177 1.374 . S
C175 H197 0.931 . S
C176 C177 1.359 . S
C176 C178 1.364 . S
C177 C175 1.374 . S
C177 C176 1.359 . S
C177 H198 0.931 . S
C178 C174 1.389 . S
C178 C176 1.364 . S
C178 H199 0.931 . S
C179 O190 1.256 . S
C179 O191 1.257 . S
O180 Gd160 2.377 . S
O180 C162 1.240 . S
O181 Gd161 2.395 . S
O181 C162 1.240 . S
O182 Gd160 2.448 1_556 S
O182 C163 1.249 . S
O183 Gd160 2.506 1_556 S
O183 C163 1.252 . S
O184 Gd160 2.435 . S
O184 C170 1.256 . S
O185 Gd160 2.717 . S
O185 Gd161 2.327 . S
O185 C170 1.257 . S
O186 Gd161 2.377 . S
O186 C171 1.240 . S
O187 Gd160 2.395 . S
O187 C171 1.240 . S
O188 Gd161 2.448 . S
O188 C172 1.249 . S
O189 Gd161 2.506 . S
O189 C172 1.252 . S
O190 Gd161 2.435 . S
O190 C179 1.256 . S
O191 Gd160 2.327 . S
O191 Gd161 2.717 . S
O191 C179 1.257 . S
H192 C165 0.930 . S
H193 C166 0.931 . S
H194 C168 0.931 . S
H195 C169 0.931 . S
H196 C174 0.930 . S
H197 C175 0.931 . S
H198 C177 0.931 . S
H199 C178 0.931 . S
Gd200 C203 2.818 . S
Gd200 O220 2.377 . S
Gd200 O222 2.448 . S
Gd200 O223 2.506 . S
Gd200 O224 2.435 . S
Gd200 O225 2.717 . S
Gd200 O227 2.395 . S
Gd200 O231 2.327 . S
Gd201 C212 2.818 1_556 S
Gd201 O221 2.395 . S
Gd201 O225 2.327 . S
Gd201 O226 2.377 . S
Gd201 O228 2.448 1_556 S
Gd201 O229 2.506 1_556 S
Gd201 O230 2.435 . S
Gd201 O231 2.717 . S
C202 O220 1.240 . S
C202 O221 1.240 . S
C203 Gd200 2.818 . S
C203 C204 1.510 . S
C203 O222 1.249 . S
C203 O223 1.252 . S
C204 C203 1.510 . S
C204 C205 1.404 . S
C204 C206 1.352 . S
C205 C204 1.404 . S
C205 C209 1.389 . S
C205 H232 0.930 . S
C206 C204 1.352 . S
C206 C208 1.374 . S
C206 H233 0.931 . S
C207 C208 1.359 . S
C207 C209 1.364 . S
C208 C206 1.374 . S
C208 C207 1.359 . S
C208 H234 0.931 . S
C209 C205 1.389 . S
C209 C207 1.364 . S
C209 H235 0.931 . S
C210 O224 1.256 . S
C210 O225 1.257 . S
C211 O226 1.240 . S
C211 O227 1.240 . S
C212 Gd201 2.818 1_554 S
C212 C213 1.510 . S
C212 O228 1.249 . S
C212 O229 1.252 . S
C213 C212 1.510 . S
C213 C214 1.404 . S
C213 C215 1.352 . S
C214 C213 1.404 . S
C214 C218 1.389 . S
C214 H236 0.930 . S
C215 C213 1.352 . S
C215 C217 1.374 . S
C215 H237 0.931 . S
C216 C217 1.359 . S
C216 C218 1.364 . S
C217 C215 1.374 . S
C217 C216 1.359 . S
C217 H238 0.931 . S
C218 C214 1.389 . S
C218 C216 1.364 . S
C218 H239 0.931 . S
C219 O230 1.256 . S
C219 O231 1.257 . S
O220 Gd200 2.377 . S
O220 C202 1.240 . S
O221 Gd201 2.395 . S
O221 C202 1.240 . S
O222 Gd200 2.448 . S
O222 C203 1.249 . S
O223 Gd200 2.506 . S
O223 C203 1.252 . S
O224 Gd200 2.435 . S
O224 C210 1.256 . S
O225 Gd200 2.717 . S
O225 Gd201 2.327 . S
O225 C210 1.257 . S
O226 Gd201 2.377 . S
O226 C211 1.240 . S
O227 Gd200 2.395 . S
O227 C211 1.240 . S
O228 Gd201 2.448 1_554 S
O228 C212 1.249 . S
O229 Gd201 2.506 1_554 S
O229 C212 1.252 . S
O230 Gd201 2.435 . S
O230 C219 1.256 . S
O231 Gd200 2.327 . S
O231 Gd201 2.717 . S
O231 C219 1.257 . S
H232 C205 0.930 . S
H233 C206 0.931 . S
H234 C208 0.931 . S
H235 C209 0.931 . S
H236 C214 0.930 . S
H237 C215 0.931 . S
H238 C217 0.931 . S
H239 C218 0.931 . S
Gd240 C243 2.818 1_554 S
Gd240 O260 2.377 . S
Gd240 O262 2.448 1_554 S
Gd240 O263 2.506 1_554 S
Gd240 O264 2.435 . S
Gd240 O265 2.717 . S
Gd240 O267 2.395 . S
Gd240 O271 2.327 . S
Gd241 C252 2.818 . S
Gd241 O261 2.395 . S
Gd241 O265 2.327 . S
Gd241 O266 2.377 . S
Gd241 O268 2.448 . S
Gd241 O269 2.506 . S
Gd241 O270 2.435 . S
Gd241 O271 2.717 . S
C242 O260 1.240 . S
C242 O261 1.240 . S
C243 Gd240 2.818 1_556 S
C243 C244 1.510 . S
C243 O262 1.249 . S
C243 O263 1.252 . S
C244 C243 1.510 . S
C244 C245 1.404 . S
C244 C246 1.352 . S
C245 C244 1.404 . S
C245 C249 1.389 . S
C245 H272 0.930 . S
C246 C244 1.352 . S
C246 C248 1.374 . S
C246 H273 0.931 . S
C247 C248 1.359 . S
C247 C249 1.364 . S
C248 C246 1.374 . S
C248 C247 1.359 . S
C248 H274 0.931 . S
C249 C245 1.389 . S
C249 C247 1.364 . S
C249 H275 0.931 . S
C250 O264 1.256 . S
C250 O265 1.257 . S
C251 O266 1.240 . S
C251 O267 1.240 . S
C252 Gd241 2.818 . S
C252 C253 1.510 . S
C252 O268 1.249 . S
C252 O269 1.252 . S
C253 C252 1.510 . S
C253 C254 1.404 . S
C253 C255 1.352 . S
C254 C253 1.404 . S
C254 C258 1.389 . S
C254 H276 0.930 . S
C255 C253 1.352 . S
C255 C257 1.374 . S
C255 H277 0.931 . S
C256 C257 1.359 . S
C256 C258 1.364 . S
C257 C255 1.374 . S
C257 C256 1.359 . S
C257 H278 0.931 . S
C258 C254 1.389 . S
C258 C256 1.364 . S
C258 H279 0.931 . S
C259 O270 1.256 . S
C259 O271 1.257 . S
O260 Gd240 2.377 . S
O260 C242 1.240 . S
O261 Gd241 2.395 . S
O261 C242 1.240 . S
O262 Gd240 2.448 1_556 S
O262 C243 1.249 . S
O263 Gd240 2.506 1_556 S
O263 C243 1.252 . S
O264 Gd240 2.435 . S
O264 C250 1.256 . S
O265 Gd240 2.717 . S
O265 Gd241 2.327 . S
O265 C250 1.257 . S
O266 Gd241 2.377 . S
O266 C251 1.240 . S
O267 Gd240 2.395 . S
O267 C251 1.240 . S
O268 Gd241 2.448 . S
O268 C252 1.249 . S
O269 Gd241 2.506 . S
O269 C252 1.252 . S
O270 Gd241 2.435 . S
O270 C259 1.256 . S
O271 Gd240 2.327 . S
O271 Gd241 2.717 . S
O271 C259 1.257 . S
H272 C245 0.930 . S
H273 C246 0.931 . S
H274 C248 0.931 . S
H275 C249 0.931 . S
H276 C254 0.930 . S
H277 C255 0.931 . S
H278 C257 0.931 . S
H279 C258 0.931 . S
Gd280 C283 2.818 . S
Gd280 O300 2.377 . S
Gd280 O302 2.448 . S
Gd280 O303 2.506 . S
Gd280 O304 2.435 . S
Gd280 O305 2.717 . S
Gd280 O307 2.395 . S
Gd280 O311 2.327 . S
Gd281 C292 2.818 1_556 S
Gd281 O301 2.395 . S
Gd281 O305 2.327 . S
Gd281 O306 2.377 . S
Gd281 O308 2.448 1_556 S
Gd281 O309 2.506 1_556 S
Gd281 O310 2.435 . S
Gd281 O311 2.717 . S
C282 O300 1.240 . S
C282 O301 1.240 . S
C283 Gd280 2.818 . S
C283 C284 1.510 . S
C283 O302 1.249 . S
C283 O303 1.252 . S
C284 C283 1.510 . S
C284 C285 1.404 . S
C284 C286 1.352 . S
C285 C284 1.404 . S
C285 C289 1.389 . S
C285 H312 0.930 . S
C286 C284 1.352 . S
C286 C288 1.374 . S
C286 H313 0.931 . S
C287 C288 1.359 . S
C287 C289 1.364 . S
C288 C286 1.374 . S
C288 C287 1.359 . S
C288 H314 0.931 . S
C289 C285 1.389 . S
C289 C287 1.364 . S
C289 H315 0.931 . S
C290 O304 1.256 . S
C290 O305 1.257 . S
C291 O306 1.240 . S
C291 O307 1.240 . S
C292 Gd281 2.818 1_554 S
C292 C293 1.510 . S
C292 O308 1.249 . S
C292 O309 1.252 . S
C293 C292 1.510 . S
C293 C294 1.404 . S
C293 C295 1.352 . S
C294 C293 1.404 . S
C294 C298 1.389 . S
C294 H316 0.930 . S
C295 C293 1.352 . S
C295 C297 1.374 . S
C295 H317 0.931 . S
C296 C297 1.359 . S
C296 C298 1.364 . S
C297 C295 1.374 . S
C297 C296 1.359 . S
C297 H318 0.931 . S
C298 C294 1.389 . S
C298 C296 1.364 . S
C298 H319 0.931 . S
C299 O310 1.256 . S
C299 O311 1.257 . S
O300 Gd280 2.377 . S
O300 C282 1.240 . S
O301 Gd281 2.395 . S
O301 C282 1.240 . S
O302 Gd280 2.448 . S
O302 C283 1.249 . S
O303 Gd280 2.506 . S
O303 C283 1.252 . S
O304 Gd280 2.435 . S
O304 C290 1.256 . S
O305 Gd280 2.717 . S
O305 Gd281 2.327 . S
O305 C290 1.257 . S
O306 Gd281 2.377 . S
O306 C291 1.240 . S
O307 Gd280 2.395 . S
O307 C291 1.240 . S
O308 Gd281 2.448 1_554 S
O308 C292 1.249 . S
O309 Gd281 2.506 1_554 S
O309 C292 1.252 . S
O310 Gd281 2.435 . S
O310 C299 1.256 . S
O311 Gd280 2.327 . S
O311 Gd281 2.717 . S
O311 C299 1.257 . S
H312 C285 0.930 . S
H313 C286 0.931 . S
H314 C288 0.931 . S
H315 C289 0.931 . S
H316 C294 0.930 . S
H317 C295 0.931 . S
H318 C297 0.931 . S
H319 C298 0.931 . S
Gd320 C323 2.818 . S
Gd320 O340 2.377 . S
Gd320 O342 2.448 . S
Gd320 O343 2.506 . S
Gd320 O344 2.435 . S
Gd320 O345 2.717 . S
Gd320 O347 2.395 . S
Gd320 O351 2.327 . S
Gd321 C332 2.818 . S
Gd321 O341 2.395 . S
Gd321 O345 2.327 . S
Gd321 O346 2.377 . S
Gd321 O348 2.448 . S
Gd321 O349 2.506 . S
Gd321 O350 2.435 . S
Gd321 O351 2.717 . S
C322 O340 1.240 . S
C322 O341 1.240 . S
C323 Gd320 2.818 . S
C323 C324 1.510 . S
C323 O342 1.249 . S
C323 O343 1.252 . S
C324 C323 1.510 . S
C324 C325 1.404 . S
C324 C326 1.352 . S
C325 C324 1.404 . S
C325 C329 1.389 . S
C325 H352 0.930 . S
C326 C324 1.352 . S
C326 C328 1.374 . S
C326 H353 0.931 . S
C327 C328 1.359 . S
C327 C329 1.364 . S
C328 C326 1.374 . S
C328 C327 1.359 . S
C328 H354 0.931 . S
C329 C325 1.389 . S
C329 C327 1.364 . S
C329 H355 0.931 . S
C330 O344 1.256 . S
C330 O345 1.257 . S
C331 O346 1.240 . S
C331 O347 1.240 . S
C332 Gd321 2.818 . S
C332 C333 1.510 . S
C332 O348 1.249 . S
C332 O349 1.252 . S
C333 C332 1.510 . S
C333 C334 1.404 . S
C333 C335 1.352 . S
C334 C333 1.404 . S
C334 C338 1.389 . S
C334 H356 0.930 . S
C335 C333 1.352 . S
C335 C337 1.374 . S
C335 H357 0.931 . S
C336 C337 1.359 . S
C336 C338 1.364 . S
C337 C335 1.374 . S
C337 C336 1.359 . S
C337 H358 0.931 . S
C338 C334 1.389 . S
C338 C336 1.364 . S
C338 H359 0.931 . S
C339 O350 1.256 . S
C339 O351 1.257 . S
O340 Gd320 2.377 . S
O340 C322 1.240 . S
O341 Gd321 2.395 . S
O341 C322 1.240 . S
O342 Gd320 2.448 . S
O342 C323 1.249 . S
O343 Gd320 2.506 . S
O343 C323 1.252 . S
O344 Gd320 2.435 . S
O344 C330 1.256 . S
O345 Gd320 2.717 . S
O345 Gd321 2.327 . S
O345 C330 1.257 . S
O346 Gd321 2.377 . S
O346 C331 1.240 . S
O347 Gd320 2.395 . S
O347 C331 1.240 . S
O348 Gd321 2.448 . S
O348 C332 1.249 . S
O349 Gd321 2.506 . S
O349 C332 1.252 . S
O350 Gd321 2.435 . S
O350 C339 1.256 . S
O351 Gd320 2.327 . S
O351 Gd321 2.717 . S
O351 C339 1.257 . S
H352 C325 0.930 . S
H353 C326 0.931 . S
H354 C328 0.931 . S
H355 C329 0.931 . S
H356 C334 0.930 . S
H357 C335 0.931 . S
H358 C337 0.931 . S
H359 C338 0.931 . S
Gd360 C363 2.818 . S
Gd360 O380 2.377 . S
Gd360 O382 2.448 . S
Gd360 O383 2.506 . S
Gd360 O384 2.435 . S
Gd360 O385 2.717 . S
Gd360 O387 2.395 . S
Gd360 O391 2.327 . S
Gd361 C372 2.818 . S
Gd361 O381 2.395 . S
Gd361 O385 2.327 . S
Gd361 O386 2.377 . S
Gd361 O388 2.448 . S
Gd361 O389 2.506 . S
Gd361 O390 2.435 . S
Gd361 O391 2.717 . S
C362 O380 1.240 . S
C362 O381 1.240 . S
C363 Gd360 2.818 . S
C363 C364 1.510 . S
C363 O382 1.249 . S
C363 O383 1.252 . S
C364 C363 1.510 . S
C364 C365 1.404 . S
C364 C366 1.352 . S
C365 C364 1.404 . S
C365 C369 1.389 . S
C365 H392 0.930 . S
C366 C364 1.352 . S
C366 C368 1.374 . S
C366 H393 0.931 . S
C367 C368 1.359 . S
C367 C369 1.364 . S
C368 C366 1.374 . S
C368 C367 1.359 . S
C368 H394 0.931 . S
C369 C365 1.389 . S
C369 C367 1.364 . S
C369 H395 0.931 . S
C370 O384 1.256 . S
C370 O385 1.257 . S
C371 O386 1.240 . S
C371 O387 1.240 . S
C372 Gd361 2.818 . S
C372 C373 1.510 . S
C372 O388 1.249 . S
C372 O389 1.252 . S
C373 C372 1.510 . S
C373 C374 1.404 . S
C373 C375 1.352 . S
C374 C373 1.404 . S
C374 C378 1.389 . S
C374 H396 0.930 . S
C375 C373 1.352 . S
C375 C377 1.374 . S
C375 H397 0.931 . S
C376 C377 1.359 . S
C376 C378 1.364 . S
C377 C375 1.374 . S
C377 C376 1.359 . S
C377 H398 0.931 . S
C378 C374 1.389 . S
C378 C376 1.364 . S
C378 H399 0.931 . S
C379 O390 1.256 . S
C379 O391 1.257 . S
O380 Gd360 2.377 . S
O380 C362 1.240 . S
O381 Gd361 2.395 . S
O381 C362 1.240 . S
O382 Gd360 2.448 . S
O382 C363 1.249 . S
O383 Gd360 2.506 . S
O383 C363 1.252 . S
O384 Gd360 2.435 . S
O384 C370 1.256 . S
O385 Gd360 2.717 . S
O385 Gd361 2.327 . S
O385 C370 1.257 . S
O386 Gd361 2.377 . S
O386 C371 1.240 . S
O387 Gd360 2.395 . S
O387 C371 1.240 . S
O388 Gd361 2.448 . S
O388 C372 1.249 . S
O389 Gd361 2.506 . S
O389 C372 1.252 . S
O390 Gd361 2.435 . S
O390 C379 1.256 . S
O391 Gd360 2.327 . S
O391 Gd361 2.717 . S
O391 C379 1.257 . S
H392 C365 0.930 . S
H393 C366 0.931 . S
H394 C368 0.931 . S
H395 C369 0.931 . S
H396 C374 0.930 . S
H397 C375 0.931 . S
H398 C377 0.931 . S
H399 C378 0.931 . S
Gd400 C403 2.818 . S
Gd400 O420 2.377 . S
Gd400 O422 2.448 . S
Gd400 O423 2.506 . S
Gd400 O424 2.435 . S
Gd400 O425 2.717 . S
Gd400 O427 2.395 . S
Gd400 O431 2.327 . S
Gd401 C412 2.818 . S
Gd401 O421 2.395 . S
Gd401 O425 2.327 . S
Gd401 O426 2.377 . S
Gd401 O428 2.448 . S
Gd401 O429 2.506 . S
Gd401 O430 2.435 . S
Gd401 O431 2.717 . S
C402 O420 1.240 . S
C402 O421 1.240 . S
C403 Gd400 2.818 . S
C403 C404 1.510 . S
C403 O422 1.249 . S
C403 O423 1.252 . S
C404 C403 1.510 . S
C404 C405 1.404 . S
C404 C406 1.352 . S
C405 C404 1.404 . S
C405 C409 1.389 . S
C405 H432 0.930 . S
C406 C404 1.352 . S
C406 C408 1.374 . S
C406 H433 0.931 . S
C407 C408 1.359 . S
C407 C409 1.364 . S
C408 C406 1.374 . S
C408 C407 1.359 . S
C408 H434 0.931 . S
C409 C405 1.389 . S
C409 C407 1.364 . S
C409 H435 0.931 . S
C410 O424 1.256 . S
C410 O425 1.257 . S
C411 O426 1.240 . S
C411 O427 1.240 . S
C412 Gd401 2.818 . S
C412 C413 1.510 . S
C412 O428 1.249 . S
C412 O429 1.252 . S
C413 C412 1.510 . S
C413 C414 1.404 . S
C413 C415 1.352 . S
C414 C413 1.404 . S
C414 C418 1.389 . S
C414 H436 0.930 . S
C415 C413 1.352 . S
C415 C417 1.374 . S
C415 H437 0.931 . S
C416 C417 1.359 . S
C416 C418 1.364 . S
C417 C415 1.374 . S
C417 C416 1.359 . S
C417 H438 0.931 . S
C418 C414 1.389 . S
C418 C416 1.364 . S
C418 H439 0.931 . S
C419 O430 1.256 . S
C419 O431 1.257 . S
O420 Gd400 2.377 . S
O420 C402 1.240 . S
O421 Gd401 2.395 . S
O421 C402 1.240 . S
O422 Gd400 2.448 . S
O422 C403 1.249 . S
O423 Gd400 2.506 . S
O423 C403 1.252 . S
O424 Gd400 2.435 . S
O424 C410 1.256 . S
O425 Gd400 2.717 . S
O425 Gd401 2.327 . S
O425 C410 1.257 . S
O426 Gd401 2.377 . S
O426 C411 1.240 . S
O427 Gd400 2.395 . S
O427 C411 1.240 . S
O428 Gd401 2.448 . S
O428 C412 1.249 . S
O429 Gd401 2.506 . S
O429 C412 1.252 . S
O430 Gd401 2.435 . S
O430 C419 1.256 . S
O431 Gd400 2.327 . S
O431 Gd401 2.717 . S
O431 C419 1.257 . S
H432 C405 0.930 . S
H433 C406 0.931 . S
H434 C408 0.931 . S
H435 C409 0.931 . S
H436 C414 0.930 . S
H437 C415 0.931 . S
H438 C417 0.931 . S
H439 C418 0.931 . S
Gd440 C443 2.818 . S
Gd440 O460 2.377 . S
Gd440 O462 2.448 . S
Gd440 O463 2.506 . S
Gd440 O464 2.435 . S
Gd440 O465 2.717 . S
Gd440 O467 2.395 . S
Gd440 O471 2.327 . S
Gd441 C452 2.818 . S
Gd441 O461 2.395 . S
Gd441 O465 2.327 . S
Gd441 O466 2.377 . S
Gd441 O468 2.448 . S
Gd441 O469 2.506 . S
Gd441 O470 2.435 . S
Gd441 O471 2.717 . S
C442 O460 1.240 . S
C442 O461 1.240 . S
C443 Gd440 2.818 . S
C443 C444 1.510 . S
C443 O462 1.249 . S
C443 O463 1.252 . S
C444 C443 1.510 . S
C444 C445 1.404 . S
C444 C446 1.352 . S
C445 C444 1.404 . S
C445 C449 1.389 . S
C445 H472 0.930 . S
C446 C444 1.352 . S
C446 C448 1.374 . S
C446 H473 0.931 . S
C447 C448 1.359 . S
C447 C449 1.364 . S
C448 C446 1.374 . S
C448 C447 1.359 . S
C448 H474 0.931 . S
C449 C445 1.389 . S
C449 C447 1.364 . S
C449 H475 0.931 . S
C450 O464 1.256 . S
C450 O465 1.257 . S
C451 O466 1.240 . S
C451 O467 1.240 . S
C452 Gd441 2.818 . S
C452 C453 1.510 . S
C452 O468 1.249 . S
C452 O469 1.252 . S
C453 C452 1.510 . S
C453 C454 1.404 . S
C453 C455 1.352 . S
C454 C453 1.404 . S
C454 C458 1.389 . S
C454 H476 0.930 . S
C455 C453 1.352 . S
C455 C457 1.374 . S
C455 H477 0.931 . S
C456 C457 1.359 . S
C456 C458 1.364 . S
C457 C455 1.374 . S
C457 C456 1.359 . S
C457 H478 0.931 . S
C458 C454 1.389 . S
C458 C456 1.364 . S
C458 H479 0.931 . S
C459 O470 1.256 . S
C459 O471 1.257 . S
O460 Gd440 2.377 . S
O460 C442 1.240 . S
O461 Gd441 2.395 . S
O461 C442 1.240 . S
O462 Gd440 2.448 . S
O462 C443 1.249 . S
O463 Gd440 2.506 . S
O463 C443 1.252 . S
O464 Gd440 2.435 . S
O464 C450 1.256 . S
O465 Gd440 2.717 . S
O465 Gd441 2.327 . S
O465 C450 1.257 . S
O466 Gd441 2.377 . S
O466 C451 1.240 . S
O467 Gd440 2.395 . S
O467 C451 1.240 . S
O468 Gd441 2.448 . S
O468 C452 1.249 . S
O469 Gd441 2.506 . S
O469 C452 1.252 . S
O470 Gd441 2.435 . S
O470 C459 1.256 . S
O471 Gd440 2.327 . S
O471 Gd441 2.717 . S
O471 C459 1.257 . S
H472 C445 0.930 . S
H473 C446 0.931 . S
H474 C448 0.931 . S
H475 C449 0.931 . S
H476 C454 0.930 . S
H477 C455 0.931 . S
H478 C457 0.931 . S
H479 C458 0.931 . S
Gd480 C483 2.818 . S
Gd480 O500 2.377 . S
Gd480 O502 2.448 . S
Gd480 O503 2.506 . S
Gd480 O504 2.435 . S
Gd480 O505 2.717 . S
Gd480 O507 2.395 . S
Gd480 O511 2.327 . S
Gd481 C492 2.818 . S
Gd481 O501 2.395 . S
Gd481 O505 2.327 . S
Gd481 O506 2.377 . S
Gd481 O508 2.448 . S
Gd481 O509 2.506 . S
Gd481 O510 2.435 . S
Gd481 O511 2.717 . S
C482 O500 1.240 . S
C482 O501 1.240 . S
C483 Gd480 2.818 . S
C483 C484 1.510 . S
C483 O502 1.249 . S
C483 O503 1.252 . S
C484 C483 1.510 . S
C484 C485 1.404 . S
C484 C486 1.352 . S
C485 C484 1.404 . S
C485 C489 1.389 . S
C485 H512 0.930 . S
C486 C484 1.352 . S
C486 C488 1.374 . S
C486 H513 0.931 . S
C487 C488 1.359 . S
C487 C489 1.364 . S
C488 C486 1.374 . S
C488 C487 1.359 . S
C488 H514 0.931 . S
C489 C485 1.389 . S
C489 C487 1.364 . S
C489 H515 0.931 . S
C490 O504 1.256 . S
C490 O505 1.257 . S
C491 O506 1.240 . S
C491 O507 1.240 . S
C492 Gd481 2.818 . S
C492 C493 1.510 . S
C492 O508 1.249 . S
C492 O509 1.252 . S
C493 C492 1.510 . S
C493 C494 1.404 . S
C493 C495 1.352 . S
C494 C493 1.404 . S
C494 C498 1.389 . S
C494 H516 0.930 . S
C495 C493 1.352 . S
C495 C497 1.374 . S
C495 H517 0.931 . S
C496 C497 1.359 . S
C496 C498 1.364 . S
C497 C495 1.374 . S
C497 C496 1.359 . S
C497 H518 0.931 . S
C498 C494 1.389 . S
C498 C496 1.364 . S
C498 H519 0.931 . S
C499 O510 1.256 . S
C499 O511 1.257 . S
O500 Gd480 2.377 . S
O500 C482 1.240 . S
O501 Gd481 2.395 . S
O501 C482 1.240 . S
O502 Gd480 2.448 . S
O502 C483 1.249 . S
O503 Gd480 2.506 . S
O503 C483 1.252 . S
O504 Gd480 2.435 . S
O504 C490 1.256 . S
O505 Gd480 2.717 . S
O505 Gd481 2.327 . S
O505 C490 1.257 . S
O506 Gd481 2.377 . S
O506 C491 1.240 . S
O507 Gd480 2.395 . S
O507 C491 1.240 . S
O508 Gd481 2.448 . S
O508 C492 1.249 . S
O509 Gd481 2.506 . S
O509 C492 1.252 . S
O510 Gd481 2.435 . S
O510 C499 1.256 . S
O511 Gd480 2.327 . S
O511 Gd481 2.717 . S
O511 C499 1.257 . S
H512 C485 0.930 . S
H513 C486 0.931 . S
H514 C488 0.931 . S
H515 C489 0.931 . S
H516 C494 0.930 . S
H517 C495 0.931 . S
H518 C497 0.931 . S
H519 C498 0.931 . S
Gd520 C523 2.818 . S
Gd520 O540 2.377 . S
Gd520 O542 2.448 . S
Gd520 O543 2.506 . S
Gd520 O544 2.435 . S
Gd520 O545 2.717 . S
Gd520 O547 2.395 . S
Gd520 O551 2.327 . S
Gd521 C532 2.818 . S
Gd521 O541 2.395 . S
Gd521 O545 2.327 . S
Gd521 O546 2.377 . S
Gd521 O548 2.448 . S
Gd521 O549 2.506 . S
Gd521 O550 2.435 . S
Gd521 O551 2.717 . S
C522 O540 1.240 . S
C522 O541 1.240 . S
C523 Gd520 2.818 . S
C523 C524 1.510 . S
C523 O542 1.249 . S
C523 O543 1.252 . S
C524 C523 1.510 . S
C524 C525 1.404 . S
C524 C526 1.352 . S
C525 C524 1.404 . S
C525 C529 1.389 . S
C525 H552 0.930 . S
C526 C524 1.352 . S
C526 C528 1.374 . S
C526 H553 0.931 . S
C527 C528 1.359 . S
C527 C529 1.364 . S
C528 C526 1.374 . S
C528 C527 1.359 . S
C528 H554 0.931 . S
C529 C525 1.389 . S
C529 C527 1.364 . S
C529 H555 0.931 . S
C530 O544 1.256 . S
C530 O545 1.257 . S
C531 O546 1.240 . S
C531 O547 1.240 . S
C532 Gd521 2.818 . S
C532 C533 1.510 . S
C532 O548 1.249 . S
C532 O549 1.252 . S
C533 C532 1.510 . S
C533 C534 1.404 . S
C533 C535 1.352 . S
C534 C533 1.404 . S
C534 C538 1.389 . S
C534 H556 0.930 . S
C535 C533 1.352 . S
C535 C537 1.374 . S
C535 H557 0.931 . S
C536 C537 1.359 . S
C536 C538 1.364 . S
C537 C535 1.374 . S
C537 C536 1.359 . S
C537 H558 0.931 . S
C538 C534 1.389 . S
C538 C536 1.364 . S
C538 H559 0.931 . S
C539 O550 1.256 . S
C539 O551 1.257 . S
O540 Gd520 2.377 . S
O540 C522 1.240 . S
O541 Gd521 2.395 . S
O541 C522 1.240 . S
O542 Gd520 2.448 . S
O542 C523 1.249 . S
O543 Gd520 2.506 . S
O543 C523 1.252 . S
O544 Gd520 2.435 . S
O544 C530 1.256 . S
O545 Gd520 2.717 . S
O545 Gd521 2.327 . S
O545 C530 1.257 . S
O546 Gd521 2.377 . S
O546 C531 1.240 . S
O547 Gd520 2.395 . S
O547 C531 1.240 . S
O548 Gd521 2.448 . S
O548 C532 1.249 . S
O549 Gd521 2.506 . S
O549 C532 1.252 . S
O550 Gd521 2.435 . S
O550 C539 1.256 . S
O551 Gd520 2.327 . S
O551 Gd521 2.717 . S
O551 C539 1.257 . S
H552 C525 0.930 . S
H553 C526 0.931 . S
H554 C528 0.931 . S
H555 C529 0.931 . S
H556 C534 0.930 . S
H557 C535 0.931 . S
H558 C537 0.931 . S
H559 C538 0.931 . S
Gd560 C563 2.818 . S
Gd560 O580 2.377 . S
Gd560 O582 2.448 . S
Gd560 O583 2.506 . S
Gd560 O584 2.435 . S
Gd560 O585 2.717 . S
Gd560 O587 2.395 . S
Gd560 O591 2.327 . S
Gd561 C572 2.818 . S
Gd561 O581 2.395 . S
Gd561 O585 2.327 . S
Gd561 O586 2.377 . S
Gd561 O588 2.448 . S
Gd561 O589 2.506 . S
Gd561 O590 2.435 . S
Gd561 O591 2.717 . S
C562 O580 1.240 . S
C562 O581 1.240 . S
C563 Gd560 2.818 . S
C563 C564 1.510 . S
C563 O582 1.249 . S
C563 O583 1.252 . S
C564 C563 1.510 . S
C564 C565 1.404 . S
C564 C566 1.352 . S
C565 C564 1.404 . S
C565 C569 1.389 . S
C565 H592 0.930 . S
C566 C564 1.352 . S
C566 C568 1.374 . S
C566 H593 0.931 . S
C567 C568 1.359 . S
C567 C569 1.364 . S
C568 C566 1.374 . S
C568 C567 1.359 . S
C568 H594 0.931 . S
C569 C565 1.389 . S
C569 C567 1.364 . S
C569 H595 0.931 . S
C570 O584 1.256 . S
C570 O585 1.257 . S
C571 O586 1.240 . S
C571 O587 1.240 . S
C572 Gd561 2.818 . S
C572 C573 1.510 . S
C572 O588 1.249 . S
C572 O589 1.252 . S
C573 C572 1.510 . S
C573 C574 1.404 . S
C573 C575 1.352 . S
C574 C573 1.404 . S
C574 C578 1.389 . S
C574 H596 0.930 . S
C575 C573 1.352 . S
C575 C577 1.374 . S
C575 H597 0.931 . S
C576 C577 1.359 . S
C576 C578 1.364 . S
C577 C575 1.374 . S
C577 C576 1.359 . S
C577 H598 0.931 . S
C578 C574 1.389 . S
C578 C576 1.364 . S
C578 H599 0.931 . S
C579 O590 1.256 . S
C579 O591 1.257 . S
O580 Gd560 2.377 . S
O580 C562 1.240 . S
O581 Gd561 2.395 . S
O581 C562 1.240 . S
O582 Gd560 2.448 . S
O582 C563 1.249 . S
O583 Gd560 2.506 . S
O583 C563 1.252 . S
O584 Gd560 2.435 . S
O584 C570 1.256 . S
O585 Gd560 2.717 . S
O585 Gd561 2.327 . S
O585 C570 1.257 . S
O586 Gd561 2.377 . S
O586 C571 1.240 . S
O587 Gd560 2.395 . S
O587 C571 1.240 . S
O588 Gd561 2.448 . S
O588 C572 1.249 . S
O589 Gd561 2.506 . S
O589 C572 1.252 . S
O590 Gd561 2.435 . S
O590 C579 1.256 . S
O591 Gd560 2.327 . S
O591 Gd561 2.717 . S
O591 C579 1.257 . S
H592 C565 0.930 . S
H593 C566 0.931 . S
H594 C568 0.931 . S
H595 C569 0.931 . S
H596 C574 0.930 . S
H597 C575 0.931 . S
H598 C577 0.931 . S
H599 C578 0.931 . S
Gd600 C603 2.818 . S
Gd600 O620 2.377 . S
Gd600 O622 2.448 . S
Gd600 O623 2.506 . S
Gd600 O624 2.435 . S
Gd600 O625 2.717 . S
Gd600 O627 2.395 . S
Gd600 O631 2.327 . S
Gd601 C612 2.818 . S
Gd601 O621 2.395 . S
Gd601 O625 2.327 . S
Gd601 O626 2.377 . S
Gd601 O628 2.448 . S
Gd601 O629 2.506 . S
Gd601 O630 2.435 . S
Gd601 O631 2.717 . S
C602 O620 1.240 . S
C602 O621 1.240 . S
C603 Gd600 2.818 . S
C603 C604 1.510 . S
C603 O622 1.249 . S
C603 O623 1.252 . S
C604 C603 1.510 . S
C604 C605 1.404 . S
C604 C606 1.352 . S
C605 C604 1.404 . S
C605 C609 1.389 . S
C605 H632 0.930 . S
C606 C604 1.352 . S
C606 C608 1.374 . S
C606 H633 0.931 . S
C607 C608 1.359 . S
C607 C609 1.364 . S
C608 C606 1.374 . S
C608 C607 1.359 . S
C608 H634 0.931 . S
C609 C605 1.389 . S
C609 C607 1.364 . S
C609 H635 0.931 . S
C610 O624 1.256 . S
C610 O625 1.257 . S
C611 O626 1.240 . S
C611 O627 1.240 . S
C612 Gd601 2.818 . S
C612 C613 1.510 . S
C612 O628 1.249 . S
C612 O629 1.252 . S
C613 C612 1.510 . S
C613 C614 1.404 . S
C613 C615 1.352 . S
C614 C613 1.404 . S
C614 C618 1.389 . S
C614 H636 0.930 . S
C615 C613 1.352 . S
C615 C617 1.374 . S
C615 H637 0.931 . S
C616 C617 1.359 . S
C616 C618 1.364 . S
C617 C615 1.374 . S
C617 C616 1.359 . S
C617 H638 0.931 . S
C618 C614 1.389 . S
C618 C616 1.364 . S
C618 H639 0.931 . S
C619 O630 1.256 . S
C619 O631 1.257 . S
O620 Gd600 2.377 . S
O620 C602 1.240 . S
O621 Gd601 2.395 . S
O621 C602 1.240 . S
O622 Gd600 2.448 . S
O622 C603 1.249 . S
O623 Gd600 2.506 . S
O623 C603 1.252 . S
O624 Gd600 2.435 . S
O624 C610 1.256 . S
O625 Gd600 2.717 . S
O625 Gd601 2.327 . S
O625 C610 1.257 . S
O626 Gd601 2.377 . S
O626 C611 1.240 . S
O627 Gd600 2.395 . S
O627 C611 1.240 . S
O628 Gd601 2.448 . S
O628 C612 1.249 . S
O629 Gd601 2.506 . S
O629 C612 1.252 . S
O630 Gd601 2.435 . S
O630 C619 1.256 . S
O631 Gd600 2.327 . S
O631 Gd601 2.717 . S
O631 C619 1.257 . S
H632 C605 0.930 . S
H633 C606 0.931 . S
H634 C608 0.931 . S
H635 C609 0.931 . S
H636 C614 0.930 . S
H637 C615 0.931 . S
H638 C617 0.931 . S
H639 C618 0.931 . S
H640 C648 0.950 . S
H641 C653 0.950 . S
H642 C650 0.950 . S
H643 C652 0.950 . S
H644 C654 0.950 . S
H645 C656 0.950 1_565 S
H646 C658 0.958 . S
H647 C659 0.950 . S
C648 H640 0.950 . S
C648 C649 1.386 . S
C648 C650 1.391 . S
C649 C648 1.386 . S
C649 C653 1.393 . S
C650 H642 0.950 . S
C650 C648 1.391 . S
C650 C651 1.400 . S
C651 C650 1.400 . S
C651 C652 1.398 . S
C651 C657 1.491 . S
C652 H643 0.950 . S
C652 C651 1.398 . S
C652 C653 1.391 . S
C653 H641 0.950 . S
C653 C649 1.393 . S
C653 C652 1.391 . S
C654 H644 0.950 . S
C654 C655 1.386 . S
C654 C656 1.391 . S
C655 C654 1.386 . S
C655 C659 1.393 . S
C656 H645 0.950 1_545 S
C656 C654 1.391 . S
C656 C657 1.400 1_545 S
C657 C651 1.491 . S
C657 C656 1.400 1_565 S
C657 C658 1.405 . S
C658 H646 0.958 . S
C658 C657 1.405 . S
C658 C659 1.377 1_565 S
C659 H647 0.950 . S
C659 C655 1.393 . S
C659 C658 1.377 1_545 S
H660 C668 0.950 . S
H661 C673 0.950 . S
H662 C670 0.950 . S
H663 C672 0.950 . S
H664 C674 0.950 . S
H665 C676 0.950 . S
H666 C678 0.950 . S
H667 C679 0.950 . S
C668 H660 0.950 . S
C668 C669 1.386 . S
C668 C670 1.391 . S
C669 C668 1.386 . S
C669 C673 1.393 . S
C670 H662 0.950 . S
C670 C668 1.391 . S
C670 C671 1.400 . S
C671 C670 1.400 . S
C671 C672 1.398 . S
C671 C677 1.491 . S
C672 H663 0.950 . S
C672 C671 1.398 . S
C672 C673 1.391 . S
C673 H661 0.950 . S
C673 C669 1.393 . S
C673 C672 1.391 . S
C674 H664 0.950 . S
C674 C675 1.386 . S
C674 C676 1.391 1_455 S
C675 C674 1.386 . S
C675 C679 1.393 . S
C676 H665 0.950 . S
C676 C674 1.391 1_655 S
C676 C677 1.400 . S
C677 C671 1.491 . S
C677 C676 1.400 . S
C677 C678 1.398 1_655 S
C678 H666 0.950 . S
C678 C677 1.398 1_455 S
C678 C679 1.391 . S
C679 H667 0.950 . S
C679 C675 1.393 . S
C679 C678 1.391 . S
H680 C688 0.950 . S
H681 C693 0.950 . S
H682 C690 0.950 . S
H683 C692 0.950 . S
H684 C694 0.950 . S
H685 C696 0.950 . S
H686 C698 0.950 . S
H687 C699 0.950 . S
C688 H680 0.950 . S
C688 C689 1.386 . S
C688 C690 1.391 . S
C689 C688 1.386 . S
C689 C693 1.393 . S
C690 H682 0.950 . S
C690 C688 1.391 . S
C690 C691 1.400 1_565 S
C691 C690 1.400 1_545 S
C691 C692 1.398 . S
C691 C697 1.491 . S
C692 H683 0.950 . S
C692 C691 1.398 . S
C692 C693 1.391 1_545 S
C693 H681 0.950 . S
C693 C689 1.393 . S
C693 C692 1.391 1_565 S
C694 H684 0.950 . S
C694 C695 1.386 . S
C694 C696 1.391 . S
C695 C694 1.386 . S
C695 C699 1.393 . S
C696 H685 0.950 . S
C696 C694 1.391 . S
C696 C697 1.400 . S
C697 C691 1.491 . S
C697 C696 1.400 . S
C697 C698 1.398 . S
C698 H686 0.950 . S
C698 C697 1.398 . S
C698 C699 1.391 . S
C699 H687 0.950 . S
C699 C695 1.393 . S
C699 C698 1.391 . S
H700 C708 0.950 . S
H701 C713 0.950 . S
H702 C710 0.950 . S
H703 C712 0.950 . S
H704 C714 0.950 . S
H705 C716 0.950 . S
H706 C718 0.950 . S
H707 C719 0.950 . S
C708 H700 0.950 . S
C708 C709 1.386 . S
C708 C710 1.391 . S
C709 C708 1.386 . S
C709 C713 1.393 . S
C710 H702 0.950 . S
C710 C708 1.391 . S
C710 C711 1.400 1_655 S
C711 C710 1.400 1_455 S
C711 C712 1.398 . S
C711 C717 1.491 . S
C712 H703 0.950 . S
C712 C711 1.398 . S
C712 C713 1.391 1_455 S
C713 H701 0.950 . S
C713 C709 1.393 . S
C713 C712 1.391 1_655 S
C714 H704 0.950 . S
C714 C715 1.386 . S
C714 C716 1.391 . S
C715 C714 1.386 . S
C715 C719 1.393 . S
C716 H705 0.950 . S
C716 C714 1.391 . S
C716 C717 1.400 . S
C717 C711 1.491 . S
C717 C716 1.400 . S
C717 C718 1.398 . S
C718 H706 0.950 . S
C718 C717 1.398 . S
C718 C719 1.391 . S
C719 H707 0.950 . S
C719 C715 1.393 . S
C719 C718 1.391 . S
H720 C728 0.950 . S
H721 C733 0.950 . S
H722 C730 0.950 . S
H723 C732 0.950 1_556 S
H724 C734 0.950 . S
H725 C736 0.950 . S
H726 C738 0.950 . S
H727 C739 0.950 . S
C728 H720 0.950 . S
C728 C729 1.386 . S
C728 C730 1.391 . S
C729 C728 1.386 . S
C729 C733 1.393 . S
C730 H722 0.950 . S
C730 C728 1.391 . S
C730 C731 1.400 . S
C731 C730 1.400 . S
C731 C732 1.398 . S
C731 C737 1.491 . S
C732 H723 0.950 1_554 S
C732 C731 1.398 . S
C732 C733 1.391 . S
C733 H721 0.950 . S
C733 C729 1.393 . S
C733 C732 1.391 . S
C734 H724 0.950 . S
C734 C735 1.386 . S
C734 C736 1.391 . S
C735 C734 1.386 . S
C735 C739 1.393 1_556 S
C736 H725 0.950 . S
C736 C734 1.391 . S
C736 C737 1.400 1_556 S
C737 C731 1.491 . S
C737 C736 1.400 1_554 S
C737 C738 1.398 . S
C738 H726 0.950 . S
C738 C737 1.398 . S
C738 C739 1.391 . S
C739 H727 0.950 . S
C739 C735 1.393 1_554 S
C739 C738 1.391 . S
H740 C748 0.950 . S
H741 C753 0.947 1_556 S
H742 C750 0.950 . S
H743 C752 0.950 . S
H744 C754 0.950 . S
H745 C756 0.950 . S
H746 C758 0.950 . S
H747 C759 0.950 . S
C748 H740 0.950 . S
C748 C749 1.386 . S
C748 C750 1.391 . S
C749 C748 1.386 . S
C749 C753 1.405 . S
C750 H742 0.950 . S
C750 C748 1.391 . S
C750 C751 1.400 1_554 S
C751 C750 1.400 1_556 S
C751 C752 1.398 . S
C751 C757 1.491 . S
C752 H743 0.950 . S
C752 C751 1.398 . S
C752 C753 1.381 1_556 S
C753 H741 0.947 1_554 S
C753 C749 1.405 . S
C753 C752 1.381 1_554 S
C754 H744 0.950 . S
C754 C755 1.386 . S
C754 C756 1.391 . S
C755 C754 1.386 . S
C755 C759 1.393 . S
C756 H745 0.950 . S
C756 C754 1.391 . S
C756 C757 1.400 . S
C757 C751 1.491 . S
C757 C756 1.400 . S
C757 C758 1.398 . S
C758 H746 0.950 . S
C758 C757 1.398 . S
C758 C759 1.391 . S
C759 H747 0.950 . S
C759 C755 1.393 . S
C759 C758 1.391 . S
H760 C768 0.950 . S
H761 C773 0.950 . S
H762 C770 0.950 . S
H763 C772 0.950 . S
H764 C774 0.950 . S
H765 C776 0.950 . S
H766 C778 0.950 . S
H767 C779 0.950 . S
C768 H760 0.950 . S
C768 C769 1.386 . S
C768 C770 1.391 . S
C769 C768 1.386 . S
C769 C773 1.393 . S
C770 H762 0.950 . S
C770 C768 1.391 . S
C770 C771 1.400 . S
C771 C770 1.400 . S
C771 C772 1.398 . S
C771 C777 1.491 . S
C772 H763 0.950 . S
C772 C771 1.398 . S
C772 C773 1.391 . S
C773 H761 0.950 . S
C773 C769 1.393 . S
C773 C772 1.391 . S
C774 H764 0.950 . S
C774 C775 1.386 . S
C774 C776 1.391 . S
C775 C774 1.386 . S
C775 C779 1.393 1_556 S
C776 H765 0.950 . S
C776 C774 1.391 . S
C776 C777 1.400 1_556 S
C777 C771 1.491 . S
C777 C776 1.400 1_554 S
C777 C778 1.398 . S
C778 H766 0.950 . S
C778 C777 1.398 . S
C778 C779 1.391 . S
C779 H767 0.950 . S
C779 C775 1.393 1_554 S
C779 C778 1.391 . S
H780 C788 0.950 . S
H781 C793 0.950 . S
H782 C790 0.950 . S
H783 C792 0.950 . S
H784 C794 0.950 . S
H785 C796 0.950 1_554 S
H786 C798 0.950 . S
H787 C799 0.950 . S
C788 H780 0.950 . S
C788 C789 1.386 1_556 S
C788 C790 1.391 . S
C789 C788 1.386 1_554 S
C789 C793 1.393 . S
C790 H782 0.950 . S
C790 C788 1.391 . S
C790 C791 1.400 . S
C791 C790 1.400 . S
C791 C792 1.398 1_556 S
C791 C797 1.491 . S
C792 H783 0.950 . S
C792 C791 1.398 1_554 S
C792 C793 1.391 . S
C793 H781 0.950 . S
C793 C789 1.393 . S
C793 C792 1.391 . S
C794 H784 0.950 . S
C794 C795 1.386 . S
C794 C796 1.391 . S
C795 C794 1.386 . S
C795 C799 1.393 . S
C796 H785 0.950 1_556 S
C796 C794 1.391 . S
C796 C797 1.400 . S
C797 C791 1.491 . S
C797 C796 1.400 . S
C797 C798 1.398 . S
C798 H786 0.950 . S
C798 C797 1.398 . S
C798 C799 1.391 . S
C799 H787 0.950 . S
C799 C795 1.393 . S
C799 C798 1.391 . S
H800 C808 0.950 . S
H801 C813 0.950 . S
H802 C810 0.950 . S
H803 C812 0.950 . S
H804 C814 0.950 . S
H805 C816 0.950 . S
H806 C818 0.950 . S
H807 C819 0.950 . S
C808 H800 0.950 . S
C808 C809 1.386 . S
C808 C810 1.391 . S
C809 C808 1.386 . S
C809 C813 1.393 . S
C810 H802 0.950 . S
C810 C808 1.391 . S
C810 C811 1.400 . S
C811 C810 1.400 . S
C811 C812 1.398 . S
C811 C817 1.491 . S
C812 H803 0.950 . S
C812 C811 1.398 . S
C812 C813 1.391 . S
C813 H801 0.950 . S
C813 C809 1.393 . S
C813 C812 1.391 . S
C814 H804 0.950 . S
C814 C815 1.386 . S
C814 C816 1.391 . S
C815 C814 1.386 . S
C815 C819 1.393 . S
C816 H805 0.950 . S
C816 C814 1.391 . S
C816 C817 1.400 . S
C817 C811 1.491 . S
C817 C816 1.400 . S
C817 C818 1.398 . S
C818 H806 0.950 . S
C818 C817 1.398 . S
C818 C819 1.391 . S
C819 H807 0.950 . S
C819 C815 1.393 . S
C819 C818 1.391 . S
H820 C828 0.950 . S
H821 C833 0.950 . S
H822 C830 0.950 . S
H823 C832 0.950 . S
H824 C834 0.950 . S
H825 C836 0.950 . S
H826 C838 0.950 . S
H827 C839 0.950 . S
C828 H820 0.950 . S
C828 C829 1.386 . S
C828 C830 1.391 . S
C829 C828 1.386 . S
C829 C833 1.393 . S
C830 H822 0.950 . S
C830 C828 1.391 . S
C830 C831 1.400 . S
C831 C830 1.400 . S
C831 C832 1.398 . S
C831 C837 1.491 . S
C832 H823 0.950 . S
C832 C831 1.398 . S
C832 C833 1.391 . S
C833 H821 0.950 . S
C833 C829 1.393 . S
C833 C832 1.391 . S
C834 H824 0.950 . S
C834 C835 1.386 . S
C834 C836 1.391 . S
C835 C834 1.386 . S
C835 C839 1.393 . S
C836 H825 0.950 . S
C836 C834 1.391 . S
C836 C837 1.400 . S
C837 C831 1.491 . S
C837 C836 1.400 . S
C837 C838 1.398 . S
C838 H826 0.950 . S
C838 C837 1.398 . S
C838 C839 1.391 . S
C839 H827 0.950 . S
C839 C835 1.393 . S
C839 C838 1.391 . S
H840 C848 0.950 . S
H841 C853 0.950 . S
H842 C850 0.950 . S
H843 C852 0.950 . S
H844 C854 0.950 . S
H845 C856 0.950 . S
H846 C858 0.950 . S
H847 C859 0.950 . S
C848 H840 0.950 . S
C848 C849 1.386 . S
C848 C850 1.391 . S
C849 C848 1.386 . S
C849 C853 1.393 . S
C850 H842 0.950 . S
C850 C848 1.391 . S
C850 C851 1.400 . S
C851 C850 1.400 . S
C851 C852 1.398 . S
C851 C857 1.491 . S
C852 H843 0.950 . S
C852 C851 1.398 . S
C852 C853 1.391 . S
C853 H841 0.950 . S
C853 C849 1.393 . S
C853 C852 1.391 . S
C854 H844 0.950 . S
C854 C855 1.386 . S
C854 C856 1.391 . S
C855 C854 1.386 . S
C855 C859 1.393 . S
C856 H845 0.950 . S
C856 C854 1.391 . S
C856 C857 1.400 . S
C857 C851 1.491 . S
C857 C856 1.400 . S
C857 C858 1.398 . S
C858 H846 0.950 . S
C858 C857 1.398 . S
C858 C859 1.391 . S
C859 H847 0.950 . S
C859 C855 1.393 . S
C859 C858 1.391 . S
H860 C868 0.950 . S
H861 C873 0.950 . S
H862 C870 0.950 . S
H863 C872 0.950 . S
H864 C874 0.950 . S
H865 C876 0.950 . S
H866 C878 0.950 . S
H867 C879 0.950 . S
C868 H860 0.950 . S
C868 C869 1.386 . S
C868 C870 1.391 . S
C869 C868 1.386 . S
C869 C873 1.393 . S
C870 H862 0.950 . S
C870 C868 1.391 . S
C870 C871 1.400 . S
C871 C870 1.400 . S
C871 C872 1.398 . S
C871 C877 1.491 . S
C872 H863 0.950 . S
C872 C871 1.398 . S
C872 C873 1.391 . S
C873 H861 0.950 . S
C873 C869 1.393 . S
C873 C872 1.391 . S
C874 H864 0.950 . S
C874 C875 1.386 . S
C874 C876 1.391 . S
C875 C874 1.386 . S
C875 C879 1.393 . S
C876 H865 0.950 . S
C876 C874 1.391 . S
C876 C877 1.400 . S
C877 C871 1.491 . S
C877 C876 1.400 . S
C877 C878 1.398 . S
C878 H866 0.950 . S
C878 C877 1.398 . S
C878 C879 1.391 . S
C879 H867 0.950 . S
C879 C875 1.393 . S
C879 C878 1.391 . S
H880 C888 0.950 . S
H881 C893 0.950 . S
H882 C890 0.950 . S
H883 C892 0.950 . S
H884 C894 0.950 . S
H885 C896 0.950 . S
H886 C898 0.950 . S
H887 C899 0.950 . S
C888 H880 0.950 . S
C888 C889 1.386 . S
C888 C890 1.391 1_565 S
C889 C888 1.386 . S
C889 C893 1.393 . S
C890 H882 0.950 . S
C890 C888 1.391 1_545 S
C890 C891 1.400 . S
C891 C890 1.400 . S
C891 C892 1.398 1_545 S
C891 C897 1.491 . S
C892 H883 0.950 . S
C892 C891 1.398 1_565 S
C892 C893 1.391 . S
C893 H881 0.950 . S
C893 C889 1.393 . S
C893 C892 1.391 . S
C894 H884 0.950 . S
C894 C895 1.386 . S
C894 C896 1.391 . S
C895 C894 1.386 . S
C895 C899 1.393 . S
C896 H885 0.950 . S
C896 C894 1.391 . S
C896 C897 1.400 . S
C897 C891 1.491 . S
C897 C896 1.400 . S
C897 C898 1.398 . S
C898 H886 0.950 . S
C898 C897 1.398 . S
C898 C899 1.391 . S
C899 H887 0.950 . S
C899 C895 1.393 . S
C899 C898 1.391 . S
H900 C908 0.950 . S
H901 C913 0.950 . S
H902 C910 0.950 . S
H903 C912 0.950 . S
H904 C914 0.950 . S
H905 C916 0.950 . S
H906 C918 0.950 . S
H907 C919 0.950 . S
C908 H900 0.950 . S
C908 C909 1.386 . S
C908 C910 1.391 . S
C909 C908 1.386 . S
C909 C913 1.393 . S
C910 H902 0.950 . S
C910 C908 1.391 . S
C910 C911 1.400 . S
C911 C910 1.400 . S
C911 C912 1.398 . S
C911 C917 1.491 . S
C912 H903 0.950 . S
C912 C911 1.398 . S
C912 C913 1.391 . S
C913 H901 0.950 . S
C913 C909 1.393 . S
C913 C912 1.391 . S
C914 H904 0.950 . S
C914 C915 1.386 . S
C914 C916 1.391 1_655 S
C915 C914 1.386 . S
C915 C919 1.393 . S
C916 H905 0.950 . S
C916 C914 1.391 1_455 S
C916 C917 1.400 . S
C917 C911 1.491 . S
C917 C916 1.400 . S
C917 C918 1.398 1_455 S
C918 H906 0.950 . S
C918 C917 1.398 1_655 S
C918 C919 1.391 . S
C919 H907 0.950 . S
C919 C915 1.393 . S
C919 C918 1.391 . S
H920 C928 0.950 . S
H921 C933 0.950 . S
H922 C930 0.950 . S
H923 C932 0.950 . S
H924 C934 0.950 . S
H925 C936 0.950 . S
H926 C938 0.950 . S
H927 C939 0.950 . S
C928 H920 0.950 . S
C928 C929 1.386 . S
C928 C930 1.391 . S
C929 C928 1.386 . S
C929 C933 1.393 . S
C930 H922 0.950 . S
C930 C928 1.391 . S
C930 C931 1.400 . S
C931 C930 1.400 . S
C931 C932 1.398 . S
C931 C937 1.491 . S
C932 H923 0.950 . S
C932 C931 1.398 . S
C932 C933 1.391 . S
C933 H921 0.950 . S
C933 C929 1.393 . S
C933 C932 1.391 . S
C934 H924 0.950 . S
C934 C935 1.386 . S
C934 C936 1.391 1_545 S
C935 C934 1.386 . S
C935 C939 1.393 . S
C936 H925 0.950 . S
C936 C934 1.391 1_565 S
C936 C937 1.400 . S
C937 C931 1.491 . S
C937 C936 1.400 . S
C937 C938 1.398 1_565 S
C938 H926 0.950 . S
C938 C937 1.398 1_545 S
C938 C939 1.391 . S
C939 H927 0.950 . S
C939 C935 1.393 . S
C939 C938 1.391 . S
H940 C948 0.950 . S
H941 C953 0.950 . S
H942 C950 0.950 . S
H943 C952 0.950 . S
H944 C954 0.950 . S
H945 C956 0.950 . S
H946 C958 0.950 . S
H947 C959 0.950 . S
C948 H940 0.950 . S
C948 C949 1.386 . S
C948 C950 1.391 1_455 S
C949 C948 1.386 . S
C949 C953 1.393 . S
C950 H942 0.950 . S
C950 C948 1.391 1_655 S
C950 C951 1.400 . S
C951 C950 1.400 . S
C951 C952 1.398 1_655 S
C951 C957 1.491 . S
C952 H943 0.950 . S
C952 C951 1.398 1_455 S
C952 C953 1.391 . S
C953 H941 0.950 . S
C953 C949 1.393 . S
C953 C952 1.391 . S
C954 H944 0.950 . S
C954 C955 1.386 . S
C954 C956 1.391 . S
C955 C954 1.386 . S
C955 C959 1.393 . S
C956 H945 0.950 . S
C956 C954 1.391 . S
C956 C957 1.400 . S
C957 C951 1.491 . S
C957 C956 1.400 . S
C957 C958 1.398 . S
C958 H946 0.950 . S
C958 C957 1.398 . S
C958 C959 1.391 . S
C959 H947 0.950 . S
C959 C955 1.393 . S
C959 C958 1.391 . S
H960 C968 0.950 . S
H961 C973 0.950 . S
H962 C970 0.950 . S
H963 C972 0.950 . S
H964 C974 0.950 . S
H965 C976 0.950 . S
H966 C978 0.950 . S
H967 C979 0.950 . S
C968 H960 0.950 . S
C968 C969 1.386 . S
C968 C970 1.391 . S
C969 C968 1.386 . S
C969 C973 1.393 . S
C970 H962 0.950 . S
C970 C968 1.391 . S
C970 C971 1.400 . S
C971 C970 1.400 . S
C971 C972 1.398 . S
C971 C977 1.491 . S
C972 H963 0.950 . S
C972 C971 1.398 . S
C972 C973 1.391 . S
C973 H961 0.950 . S
C973 C969 1.393 . S
C973 C972 1.391 . S
C974 H964 0.950 . S
C974 C975 1.386 . S
C974 C976 1.391 . S
C975 C974 1.386 . S
C975 C979 1.393 . S
C976 H965 0.950 . S
C976 C974 1.391 . S
C976 C977 1.400 . S
C977 C971 1.491 . S
C977 C976 1.400 . S
C977 C978 1.398 . S
C978 H966 0.950 . S
C978 C977 1.398 . S
C978 C979 1.391 . S
C979 H967 0.950 . S
C979 C975 1.393 . S
C979 C978 1.391 . S
H980 C988 0.950 . S
H981 C993 0.950 . S
H982 C990 0.950 . S
H983 C992 0.950 . S
H984 C994 0.950 . S
H985 C996 0.950 . S
H986 C998 0.950 . S
H987 C999 0.950 . S
C988 H980 0.950 . S
C988 C989 1.386 . S
C988 C990 1.391 . S
C989 C988 1.386 . S
C989 C993 1.393 . S
C990 H982 0.950 . S
C990 C988 1.391 . S
C990 C991 1.400 . S
C991 C990 1.400 . S
C991 C992 1.398 . S
C991 C997 1.491 . S
C992 H983 0.950 . S
C992 C991 1.398 . S
C992 C993 1.391 . S
C993 H981 0.950 . S
C993 C989 1.393 . S
C993 C992 1.391 . S
C994 H984 0.950 . S
C994 C995 1.386 . S
C994 C996 1.391 . S
C995 C994 1.386 . S
C995 C999 1.393 . S
C996 H985 0.950 . S
C996 C994 1.391 . S
C996 C997 1.400 . S
C997 C991 1.491 . S
C997 C996 1.400 . S
C997 C998 1.398 . S
C998 H986 0.950 . S
C998 C997 1.398 . S
C998 C999 1.391 . S
C999 H987 0.950 . S
C999 C995 1.393 . S
C999 C998 1.391 . S
H1000 C1008 0.950 . S
H1001 C1013 0.950 . S
H1002 C1010 0.950 . S
H1003 C1012 0.950 . S
H1004 C1014 0.950 . S
H1005 C1016 0.950 . S
H1006 C1018 0.950 . S
H1007 C1019 0.950 . S
C1008 H1000 0.950 . S
C1008 C1009 1.386 . S
C1008 C1010 1.391 . S
C1009 C1008 1.386 . S
C1009 C1013 1.393 . S
C1010 H1002 0.950 . S
C1010 C1008 1.391 . S
C1010 C1011 1.400 . S
C1011 C1010 1.400 . S
C1011 C1012 1.398 . S
C1011 C1017 1.491 . S
C1012 H1003 0.950 . S
C1012 C1011 1.398 . S
C1012 C1013 1.391 . S
C1013 H1001 0.950 . S
C1013 C1009 1.393 . S
C1013 C1012 1.391 . S
C1014 H1004 0.950 . S
C1014 C1015 1.386 . S
C1014 C1016 1.391 . S
C1015 C1014 1.386 . S
C1015 C1019 1.393 . S
C1016 H1005 0.950 . S
C1016 C1014 1.391 . S
C1016 C1017 1.400 . S
C1017 C1011 1.491 . S
C1017 C1016 1.400 . S
C1017 C1018 1.398 . S
C1018 H1006 0.950 . S
C1018 C1017 1.398 . S
C1018 C1019 1.391 . S
C1019 H1007 0.950 . S
C1019 C1015 1.393 . S
C1019 C1018 1.391 . S
H1020 C1028 0.950 . S
H1021 C1033 0.950 . S
H1022 C1030 0.950 . S
H1023 C1032 0.950 . S
H1024 C1034 0.950 . S
H1025 C1036 0.950 . S
H1026 C1038 0.950 . S
H1027 C1039 0.950 . S
C1028 H1020 0.950 . S
C1028 C1029 1.386 . S
C1028 C1030 1.391 . S
C1029 C1028 1.386 . S
C1029 C1033 1.393 . S
C1030 H1022 0.950 . S
C1030 C1028 1.391 . S
C1030 C1031 1.400 . S
C1031 C1030 1.400 . S
C1031 C1032 1.398 . S
C1031 C1037 1.491 . S
C1032 H1023 0.950 . S
C1032 C1031 1.398 . S
C1032 C1033 1.391 . S
C1033 H1021 0.950 . S
C1033 C1029 1.393 . S
C1033 C1032 1.391 . S
C1034 H1024 0.950 . S
C1034 C1035 1.386 . S
C1034 C1036 1.391 . S
C1035 C1034 1.386 . S
C1035 C1039 1.393 . S
C1036 H1025 0.950 . S
C1036 C1034 1.391 . S
C1036 C1037 1.400 . S
C1037 C1031 1.491 . S
C1037 C1036 1.400 . S
C1037 C1038 1.398 . S
C1038 H1026 0.950 . S
C1038 C1037 1.398 . S
C1038 C1039 1.391 . S
C1039 H1027 0.950 . S
C1039 C1035 1.393 . S
C1039 C1038 1.391 . S
H1040 C1048 0.950 . S
H1041 C1053 0.950 . S
H1042 C1050 0.950 . S
H1043 C1052 0.950 . S
H1044 C1054 0.950 . S
H1045 C1056 0.950 . S
H1046 C1058 0.950 . S
H1047 C1059 0.950 . S
C1048 H1040 0.950 . S
C1048 C1049 1.386 . S
C1048 C1050 1.391 . S
C1049 C1048 1.386 . S
C1049 C1053 1.393 . S
C1050 H1042 0.950 . S
C1050 C1048 1.391 . S
C1050 C1051 1.400 . S
C1051 C1050 1.400 . S
C1051 C1052 1.398 . S
C1051 C1057 1.491 . S
C1052 H1043 0.950 . S
C1052 C1051 1.398 . S
C1052 C1053 1.391 . S
C1053 H1041 0.950 . S
C1053 C1049 1.393 . S
C1053 C1052 1.391 . S
C1054 H1044 0.950 . S
C1054 C1055 1.386 . S
C1054 C1056 1.391 . S
C1055 C1054 1.386 . S
C1055 C1059 1.393 . S
C1056 H1045 0.950 . S
C1056 C1054 1.391 . S
C1056 C1057 1.400 . S
C1057 C1051 1.491 . S
C1057 C1056 1.400 . S
C1057 C1058 1.398 . S
C1058 H1046 0.950 . S
C1058 C1057 1.398 . S
C1058 C1059 1.391 . S
C1059 H1047 0.950 . S
C1059 C1055 1.393 . S
C1059 C1058 1.391 . S
H1060 C1068 0.950 . S
H1061 C1073 0.950 . S
H1062 C1070 0.950 . S
H1063 C1072 0.950 . S
H1064 C1074 0.950 . S
H1065 C1076 0.950 . S
H1066 C1078 0.950 . S
H1067 C1079 0.950 . S
C1068 H1060 0.950 . S
C1068 C1069 1.386 . S
C1068 C1070 1.391 . S
C1069 C1068 1.386 . S
C1069 C1073 1.393 . S
C1070 H1062 0.950 . S
C1070 C1068 1.391 . S
C1070 C1071 1.400 . S
C1071 C1070 1.400 . S
C1071 C1072 1.398 . S
C1071 C1077 1.491 . S
C1072 H1063 0.950 . S
C1072 C1071 1.398 . S
C1072 C1073 1.391 . S
C1073 H1061 0.950 . S
C1073 C1069 1.393 . S
C1073 C1072 1.391 . S
C1074 H1064 0.950 . S
C1074 C1075 1.386 . S
C1074 C1076 1.391 . S
C1075 C1074 1.386 . S
C1075 C1079 1.393 . S
C1076 H1065 0.950 . S
C1076 C1074 1.391 . S
C1076 C1077 1.400 . S
C1077 C1071 1.491 . S
C1077 C1076 1.400 . S
C1077 C1078 1.398 . S
C1078 H1066 0.950 . S
C1078 C1077 1.398 . S
C1078 C1079 1.391 . S
C1079 H1067 0.950 . S
C1079 C1075 1.393 . S
C1079 C1078 1.391 . S
H1080 C1088 0.950 . S
H1081 C1093 0.950 . S
H1082 C1090 0.950 . S
H1083 C1092 0.950 . S
H1084 C1094 0.950 . S
H1085 C1096 0.950 . S
H1086 C1098 0.950 . S
H1087 C1099 0.950 . S
C1088 H1080 0.950 . S
C1088 C1089 1.386 . S
C1088 C1090 1.391 . S
C1089 C1088 1.386 . S
C1089 C1093 1.393 . S
C1090 H1082 0.950 . S
C1090 C1088 1.391 . S
C1090 C1091 1.400 . S
C1091 C1090 1.400 . S
C1091 C1092 1.398 . S
C1091 C1097 1.491 . S
C1092 H1083 0.950 . S
C1092 C1091 1.398 . S
C1092 C1093 1.391 . S
C1093 H1081 0.950 . S
C1093 C1089 1.393 . S
C1093 C1092 1.391 . S
C1094 H1084 0.950 . S
C1094 C1095 1.386 . S
C1094 C1096 1.391 . S
C1095 C1094 1.386 . S
C1095 C1099 1.393 . S
C1096 H1085 0.950 . S
C1096 C1094 1.391 . S
C1096 C1097 1.400 . S
C1097 C1091 1.491 . S
C1097 C1096 1.400 . S
C1097 C1098 1.398 . S
C1098 H1086 0.950 . S
C1098 C1097 1.398 . S
C1098 C1099 1.391 . S
C1099 H1087 0.950 . S
C1099 C1095 1.393 . S
C1099 C1098 1.391 . S
H1100 C1108 0.950 . S
H1101 C1113 0.950 . S
H1102 C1110 0.950 . S
H1103 C1112 0.950 . S
H1104 C1114 0.950 . S
H1105 C1116 0.950 . S
H1106 C1118 0.950 . S
H1107 C1119 0.950 . S
C1108 H1100 0.950 . S
C1108 C1109 1.386 . S
C1108 C1110 1.391 . S
C1109 C1108 1.386 . S
C1109 C1113 1.393 . S
C1110 H1102 0.950 . S
C1110 C1108 1.391 . S
C1110 C1111 1.400 . S
C1111 C1110 1.400 . S
C1111 C1112 1.398 . S
C1111 C1117 1.491 . S
C1112 H1103 0.950 . S
C1112 C1111 1.398 . S
C1112 C1113 1.391 . S
C1113 H1101 0.950 . S
C1113 C1109 1.393 . S
C1113 C1112 1.391 . S
C1114 H1104 0.950 . S
C1114 C1115 1.386 . S
C1114 C1116 1.391 . S
C1115 C1114 1.386 . S
C1115 C1119 1.393 . S
C1116 H1105 0.950 . S
C1116 C1114 1.391 . S
C1116 C1117 1.400 . S
C1117 C1111 1.491 . S
C1117 C1116 1.400 . S
C1117 C1118 1.398 . S
C1118 H1106 0.950 . S
C1118 C1117 1.398 . S
C1118 C1119 1.391 . S
C1119 H1107 0.950 . S
C1119 C1115 1.393 . S
C1119 C1118 1.391 . S
H1120 C1128 0.950 . S
H1121 C1133 0.950 . S
H1122 C1130 0.950 . S
H1123 C1132 0.950 . S
H1124 C1134 0.950 1_554 S
H1125 C1136 0.950 . S
H1126 C1138 0.950 . S
H1127 C1139 0.950 . S
C1128 H1120 0.950 . S
C1128 C1129 1.386 . S
C1128 C1130 1.391 . S
C1129 C1128 1.386 . S
C1129 C1133 1.393 . S
C1130 H1122 0.950 . S
C1130 C1128 1.391 . S
C1130 C1131 1.400 . S
C1131 C1130 1.400 . S
C1131 C1132 1.398 . S
C1131 C1137 1.491 . S
C1132 H1123 0.950 . S
C1132 C1131 1.398 . S
C1132 C1133 1.391 . S
C1133 H1121 0.950 . S
C1133 C1129 1.393 . S
C1133 C1132 1.391 . S
C1134 H1124 0.950 1_556 S
C1134 C1135 1.386 . S
C1134 C1136 1.391 . S
C1135 C1134 1.386 . S
C1135 C1139 1.393 . S
C1136 H1125 0.950 . S
C1136 C1134 1.391 . S
C1136 C1137 1.400 . S
C1137 C1131 1.491 . S
C1137 C1136 1.400 . S
C1137 C1138 1.398 . S
C1138 H1126 0.950 . S
C1138 C1137 1.398 . S
C1138 C1139 1.391 . S
C1139 H1127 0.950 . S
C1139 C1135 1.393 . S
C1139 C1138 1.391 . S
H1140 C1148 0.950 1_556 S
H1141 C1153 0.950 . S
H1142 C1150 0.950 . S
H1143 C1152 0.950 . S
H1144 C1154 0.950 . S
H1145 C1156 0.950 . S
H1146 C1158 0.950 . S
H1147 C1159 0.950 . S
C1148 H1140 0.950 1_554 S
C1148 C1149 1.386 . S
C1148 C1150 1.391 . S
C1149 C1148 1.386 . S
C1149 C1153 1.393 . S
C1150 H1142 0.950 . S
C1150 C1148 1.391 . S
C1150 C1151 1.400 . S
C1151 C1150 1.400 . S
C1151 C1152 1.398 . S
C1151 C1157 1.491 . S
C1152 H1143 0.950 . S
C1152 C1151 1.398 . S
C1152 C1153 1.391 . S
C1153 H1141 0.950 . S
C1153 C1149 1.393 . S
C1153 C1152 1.391 . S
C1154 H1144 0.950 . S
C1154 C1155 1.386 . S
C1154 C1156 1.391 . S
C1155 C1154 1.386 . S
C1155 C1159 1.393 . S
C1156 H1145 0.950 . S
C1156 C1154 1.391 . S
C1156 C1157 1.400 . S
C1157 C1151 1.491 . S
C1157 C1156 1.400 . S
C1157 C1158 1.398 . S
C1158 H1146 0.950 . S
C1158 C1157 1.398 . S
C1158 C1159 1.391 . S
C1159 H1147 0.950 . S
C1159 C1155 1.393 . S
C1159 C1158 1.391 . S
H1160 C1168 0.950 . S
H1161 C1173 0.950 1_554 S
H1162 C1170 0.950 . S
H1163 C1172 0.950 . S
H1164 C1174 0.950 . S
H1165 C1176 0.950 . S
H1166 C1178 0.950 . S
H1167 C1179 0.950 . S
C1168 H1160 0.950 . S
C1168 C1169 1.386 . S
C1168 C1170 1.391 . S
C1169 C1168 1.386 . S
C1169 C1173 1.393 . S
C1170 H1162 0.950 . S
C1170 C1168 1.391 . S
C1170 C1171 1.400 . S
C1171 C1170 1.400 . S
C1171 C1172 1.398 . S
C1171 C1177 1.491 . S
C1172 H1163 0.950 . S
C1172 C1171 1.398 . S
C1172 C1173 1.391 . S
C1173 H1161 0.950 1_556 S
C1173 C1169 1.393 . S
C1173 C1172 1.391 . S
C1174 H1164 0.950 . S
C1174 C1175 1.386 . S
C1174 C1176 1.391 . S
C1175 C1174 1.386 . S
C1175 C1179 1.393 . S
C1176 H1165 0.950 . S
C1176 C1174 1.391 . S
C1176 C1177 1.400 . S
C1177 C1171 1.491 . S
C1177 C1176 1.400 . S
C1177 C1178 1.398 . S
C1178 H1166 0.950 . S
C1178 C1177 1.398 . S
C1178 C1179 1.391 . S
C1179 H1167 0.950 . S
C1179 C1175 1.393 . S
C1179 C1178 1.391 . S
H1180 C1188 0.950 . S
H1181 C1193 0.950 . S
H1182 C1190 0.950 . S
H1183 C1192 0.950 . S
H1184 C1194 0.950 . S
H1185 C1196 0.950 . S
H1186 C1198 0.950 . S
H1187 C1199 0.950 . S
C1188 H1180 0.950 . S
C1188 C1189 1.386 . S
C1188 C1190 1.391 . S
C1189 C1188 1.386 . S
C1189 C1193 1.393 . S
C1190 H1182 0.950 . S
C1190 C1188 1.391 . S
C1190 C1191 1.400 . S
C1191 C1190 1.400 . S
C1191 C1192 1.398 . S
C1191 C1197 1.491 . S
C1192 H1183 0.950 . S
C1192 C1191 1.398 . S
C1192 C1193 1.391 . S
C1193 H1181 0.950 . S
C1193 C1189 1.393 . S
C1193 C1192 1.391 . S
C1194 H1184 0.950 . S
C1194 C1195 1.386 . S
C1194 C1196 1.391 . S
C1195 C1194 1.386 . S
C1195 C1199 1.393 . S
C1196 H1185 0.950 . S
C1196 C1194 1.391 . S
C1196 C1197 1.400 . S
C1197 C1191 1.491 . S
C1197 C1196 1.400 . S
C1197 C1198 1.398 . S
C1198 H1186 0.950 . S
C1198 C1197 1.398 . S
C1198 C1199 1.391 . S
C1199 H1187 0.950 . S
C1199 C1195 1.393 . S
C1199 C1198 1.391 . S
H1200 C1208 0.950 . S
H1201 C1213 0.950 . S
H1202 C1210 0.950 . S
H1203 C1212 0.950 . S
H1204 C1214 0.950 . S
H1205 C1216 0.950 . S
H1206 C1218 0.950 . S
H1207 C1219 0.950 . S
C1208 H1200 0.950 . S
C1208 C1209 1.386 . S
C1208 C1210 1.391 . S
C1209 C1208 1.386 . S
C1209 C1213 1.393 . S
C1210 H1202 0.950 . S
C1210 C1208 1.391 . S
C1210 C1211 1.400 . S
C1211 C1210 1.400 . S
C1211 C1212 1.398 . S
C1211 C1217 1.491 . S
C1212 H1203 0.950 . S
C1212 C1211 1.398 . S
C1212 C1213 1.391 . S
C1213 H1201 0.950 . S
C1213 C1209 1.393 . S
C1213 C1212 1.391 . S
C1214 H1204 0.950 . S
C1214 C1215 1.386 . S
C1214 C1216 1.391 . S
C1215 C1214 1.386 . S
C1215 C1219 1.393 . S
C1216 H1205 0.950 . S
C1216 C1214 1.391 . S
C1216 C1217 1.400 . S
C1217 C1211 1.491 . S
C1217 C1216 1.400 . S
C1217 C1218 1.398 . S
C1218 H1206 0.950 . S
C1218 C1217 1.398 . S
C1218 C1219 1.391 . S
C1219 H1207 0.950 . S
C1219 C1215 1.393 . S
C1219 C1218 1.391 . S
H1220 C1228 0.950 . S
H1221 C1233 0.950 . S
H1222 C1230 0.950 . S
H1223 C1232 0.950 . S
H1224 C1234 0.950 . S
H1225 C1236 0.950 . S
H1226 C1238 0.950 . S
H1227 C1239 0.950 . S
C1228 H1220 0.950 . S
C1228 C1229 1.386 . S
C1228 C1230 1.391 . S
C1229 C1228 1.386 . S
C1229 C1233 1.393 . S
C1230 H1222 0.950 . S
C1230 C1228 1.391 . S
C1230 C1231 1.400 . S
C1231 C1230 1.400 . S
C1231 C1232 1.398 . S
C1231 C1237 1.491 . S
C1232 H1223 0.950 . S
C1232 C1231 1.398 . S
C1232 C1233 1.391 . S
C1233 H1221 0.950 . S
C1233 C1229 1.393 . S
C1233 C1232 1.391 . S
C1234 H1224 0.950 . S
C1234 C1235 1.386 . S
C1234 C1236 1.391 . S
C1235 C1234 1.386 . S
C1235 C1239 1.393 . S
C1236 H1225 0.950 . S
C1236 C1234 1.391 . S
C1236 C1237 1.400 . S
C1237 C1231 1.491 . S
C1237 C1236 1.400 . S
C1237 C1238 1.398 . S
C1238 H1226 0.950 . S
C1238 C1237 1.398 . S
C1238 C1239 1.391 . S
C1239 H1227 0.950 . S
C1239 C1235 1.393 . S
C1239 C1238 1.391 . S
H1240 C1248 0.950 . S
H1241 C1253 0.950 . S
H1242 C1250 0.950 . S
H1243 C1252 0.950 . S
H1244 C1254 0.950 . S
H1245 C1256 0.950 . S
H1246 C1258 0.950 . S
H1247 C1259 0.950 . S
C1248 H1240 0.950 . S
C1248 C1249 1.386 . S
C1248 C1250 1.391 . S
C1249 C1248 1.386 . S
C1249 C1253 1.393 . S
C1250 H1242 0.950 . S
C1250 C1248 1.391 . S
C1250 C1251 1.400 . S
C1251 C1250 1.400 . S
C1251 C1252 1.398 . S
C1251 C1257 1.491 . S
C1252 H1243 0.950 . S
C1252 C1251 1.398 . S
C1252 C1253 1.391 . S
C1253 H1241 0.950 . S
C1253 C1249 1.393 . S
C1253 C1252 1.391 . S
C1254 H1244 0.950 . S
C1254 C1255 1.386 . S
C1254 C1256 1.391 . S
C1255 C1254 1.386 . S
C1255 C1259 1.393 . S
C1256 H1245 0.950 . S
C1256 C1254 1.391 . S
C1256 C1257 1.400 . S
C1257 C1251 1.491 . S
C1257 C1256 1.400 . S
C1257 C1258 1.398 . S
C1258 H1246 0.950 . S
C1258 C1257 1.398 . S
C1258 C1259 1.391 . S
C1259 H1247 0.950 . S
C1259 C1255 1.393 . S
C1259 C1258 1.391 . S
H1260 C1268 0.950 . S
H1261 C1273 0.950 . S
H1262 C1270 0.950 . S
H1263 C1272 0.950 . S
H1264 C1274 0.950 . S
H1265 C1276 0.950 . S
H1266 C1278 0.950 . S
H1267 C1279 0.950 . S
C1268 H1260 0.950 . S
C1268 C1269 1.386 . S
C1268 C1270 1.391 . S
C1269 C1268 1.386 . S
C1269 C1273 1.393 . S
C1270 H1262 0.950 . S
C1270 C1268 1.391 . S
C1270 C1271 1.400 . S
C1271 C1270 1.400 . S
C1271 C1272 1.398 . S
C1271 C1277 1.491 . S
C1272 H1263 0.950 . S
C1272 C1271 1.398 . S
C1272 C1273 1.391 . S
C1273 H1261 0.950 . S
C1273 C1269 1.393 . S
C1273 C1272 1.391 . S
C1274 H1264 0.950 . S
C1274 C1275 1.386 . S
C1274 C1276 1.391 . S
C1275 C1274 1.386 . S
C1275 C1279 1.393 . S
C1276 H1265 0.950 . S
C1276 C1274 1.391 . S
C1276 C1277 1.400 . S
C1277 C1271 1.491 . S
C1277 C1276 1.400 . S
C1277 C1278 1.398 . S
C1278 H1266 0.950 . S
C1278 C1277 1.398 . S
C1278 C1279 1.391 . S
C1279 H1267 0.950 . S
C1279 C1275 1.393 . S
C1279 C1278 1.391 . S
H1280 C1288 0.950 . S
H1281 C1293 0.950 . S
H1282 C1290 0.950 . S
H1283 C1292 0.950 . S
H1284 C1294 0.950 . S
H1285 C1296 0.950 . S
H1286 C1298 0.950 . S
H1287 C1299 0.950 . S
C1288 H1280 0.950 . S
C1288 C1289 1.386 . S
C1288 C1290 1.391 . S
C1289 C1288 1.386 . S
C1289 C1293 1.393 . S
C1290 H1282 0.950 . S
C1290 C1288 1.391 . S
C1290 C1291 1.400 . S
C1291 C1290 1.400 . S
C1291 C1292 1.398 . S
C1291 C1297 1.491 . S
C1292 H1283 0.950 . S
C1292 C1291 1.398 . S
C1292 C1293 1.391 . S
C1293 H1281 0.950 . S
C1293 C1289 1.393 . S
C1293 C1292 1.391 . S
C1294 H1284 0.950 . S
C1294 C1295 1.386 . S
C1294 C1296 1.391 . S
C1295 C1294 1.386 . S
C1295 C1299 1.393 . S
C1296 H1285 0.950 . S
C1296 C1294 1.391 . S
C1296 C1297 1.400 . S
C1297 C1291 1.491 . S
C1297 C1296 1.400 . S
C1297 C1298 1.398 . S
C1298 H1286 0.950 . S
C1298 C1297 1.398 . S
C1298 C1299 1.391 . S
C1299 H1287 0.950 . S
C1299 C1295 1.393 . S
C1299 C1298 1.391 . S
H1300 C1308 0.950 . S
H1301 C1313 0.950 . S
H1302 C1310 0.950 . S
H1303 C1312 0.950 . S
H1304 C1314 0.950 . S
H1305 C1316 0.950 . S
H1306 C1318 0.950 . S
H1307 C1319 0.950 . S
C1308 H1300 0.950 . S
C1308 C1309 1.386 . S
C1308 C1310 1.391 . S
C1309 C1308 1.386 . S
C1309 C1313 1.393 . S
C1310 H1302 0.950 . S
C1310 C1308 1.391 . S
C1310 C1311 1.400 . S
C1311 C1310 1.400 . S
C1311 C1312 1.398 . S
C1311 C1317 1.491 . S
C1312 H1303 0.950 . S
C1312 C1311 1.398 . S
C1312 C1313 1.391 . S
C1313 H1301 0.950 . S
C1313 C1309 1.393 . S
C1313 C1312 1.391 . S
C1314 H1304 0.950 . S
C1314 C1315 1.386 . S
C1314 C1316 1.391 . S
C1315 C1314 1.386 . S
C1315 C1319 1.393 . S
C1316 H1305 0.950 . S
C1316 C1314 1.391 . S
C1316 C1317 1.400 . S
C1317 C1311 1.491 . S
C1317 C1316 1.400 . S
C1317 C1318 1.398 . S
C1318 H1306 0.950 . S
C1318 C1317 1.398 . S
C1318 C1319 1.391 . S
C1319 H1307 0.950 . S
C1319 C1315 1.393 . S
C1319 C1318 1.391 . S
H1320 C1328 0.950 . S
H1321 C1333 0.950 . S
H1322 C1330 0.950 . S
H1323 C1332 0.950 . S
H1324 C1334 0.950 . S
H1325 C1336 0.950 . S
H1326 C1338 0.950 . S
H1327 C1339 0.950 . S
C1328 H1320 0.950 . S
C1328 C1329 1.386 . S
C1328 C1330 1.391 . S
C1329 C1328 1.386 . S
C1329 C1333 1.393 . S
C1330 H1322 0.950 . S
C1330 C1328 1.391 . S
C1330 C1331 1.400 . S
C1331 C1330 1.400 . S
C1331 C1332 1.398 . S
C1331 C1337 1.491 . S
C1332 H1323 0.950 . S
C1332 C1331 1.398 . S
C1332 C1333 1.391 . S
C1333 H1321 0.950 . S
C1333 C1329 1.393 . S
C1333 C1332 1.391 . S
C1334 H1324 0.950 . S
C1334 C1335 1.386 . S
C1334 C1336 1.391 . S
C1335 C1334 1.386 . S
C1335 C1339 1.393 . S
C1336 H1325 0.950 . S
C1336 C1334 1.391 . S
C1336 C1337 1.400 . S
C1337 C1331 1.491 . S
C1337 C1336 1.400 . S
C1337 C1338 1.398 . S
C1338 H1326 0.950 . S
C1338 C1337 1.398 . S
C1338 C1339 1.391 . S
C1339 H1327 0.950 . S
C1339 C1335 1.393 . S
C1339 C1338 1.391 . S
H1340 C1348 0.950 . S
H1341 C1353 0.950 . S
H1342 C1350 0.950 . S
H1343 C1352 0.950 . S
H1344 C1354 0.950 . S
H1345 C1356 0.950 . S
H1346 C1358 0.950 . S
H1347 C1359 0.950 . S
C1348 H1340 0.950 . S
C1348 C1349 1.386 . S
C1348 C1350 1.391 . S
C1349 C1348 1.386 . S
C1349 C1353 1.393 . S
C1350 H1342 0.950 . S
C1350 C1348 1.391 . S
C1350 C1351 1.400 . S
C1351 C1350 1.400 . S
C1351 C1352 1.398 . S
C1351 C1357 1.491 . S
C1352 H1343 0.950 . S
C1352 C1351 1.398 . S
C1352 C1353 1.391 . S
C1353 H1341 0.950 . S
C1353 C1349 1.393 . S
C1353 C1352 1.391 . S
C1354 H1344 0.950 . S
C1354 C1355 1.386 . S
C1354 C1356 1.391 . S
C1355 C1354 1.386 . S
C1355 C1359 1.393 . S
C1356 H1345 0.950 . S
C1356 C1354 1.391 . S
C1356 C1357 1.400 . S
C1357 C1351 1.491 . S
C1357 C1356 1.400 . S
C1357 C1358 1.398 . S
C1358 H1346 0.950 . S
C1358 C1357 1.398 . S
C1358 C1359 1.391 . S
C1359 H1347 0.950 . S
C1359 C1355 1.393 . S
C1359 C1358 1.391 . S
H1360 C1368 0.950 . S
H1361 C1373 0.950 . S
H1362 C1370 0.950 . S
H1363 C1372 0.950 . S
H1364 C1374 0.950 . S
H1365 C1376 0.950 . S
H1366 C1378 0.950 . S
H1367 C1379 0.950 . S
C1368 H1360 0.950 . S
C1368 C1369 1.386 . S
C1368 C1370 1.391 . S
C1369 C1368 1.386 . S
C1369 C1373 1.393 . S
C1370 H1362 0.950 . S
C1370 C1368 1.391 . S
C1370 C1371 1.400 . S
C1371 C1370 1.400 . S
C1371 C1372 1.398 . S
C1371 C1377 1.491 . S
C1372 H1363 0.950 . S
C1372 C1371 1.398 . S
C1372 C1373 1.391 . S
C1373 H1361 0.950 . S
C1373 C1369 1.393 . S
C1373 C1372 1.391 . S
C1374 H1364 0.950 . S
C1374 C1375 1.386 . S
C1374 C1376 1.391 . S
C1375 C1374 1.386 . S
C1375 C1379 1.393 . S
C1376 H1365 0.950 . S
C1376 C1374 1.391 . S
C1376 C1377 1.400 . S
C1377 C1371 1.491 . S
C1377 C1376 1.400 . S
C1377 C1378 1.398 . S
C1378 H1366 0.950 . S
C1378 C1377 1.398 . S
C1378 C1379 1.391 . S
C1379 H1367 0.950 . S
C1379 C1375 1.393 . S
C1379 C1378 1.391 . S
H1380 C1388 0.950 . S
H1381 C1393 0.950 . S
H1382 C1390 0.950 . S
H1383 C1392 0.950 . S
H1384 C1394 0.950 . S
H1385 C1396 0.950 . S
H1386 C1398 0.950 . S
H1387 C1399 0.950 . S
C1388 H1380 0.950 . S
C1388 C1389 1.386 . S
C1388 C1390 1.391 . S
C1389 C1388 1.386 . S
C1389 C1393 1.393 . S
C1390 H1382 0.950 . S
C1390 C1388 1.391 . S
C1390 C1391 1.400 . S
C1391 C1390 1.400 . S
C1391 C1392 1.398 . S
C1391 C1397 1.491 . S
C1392 H1383 0.950 . S
C1392 C1391 1.398 . S
C1392 C1393 1.391 . S
C1393 H1381 0.950 . S
C1393 C1389 1.393 . S
C1393 C1392 1.391 . S
C1394 H1384 0.950 . S
C1394 C1395 1.386 . S
C1394 C1396 1.391 . S
C1395 C1394 1.386 . S
C1395 C1399 1.393 . S
C1396 H1385 0.950 . S
C1396 C1394 1.391 . S
C1396 C1397 1.400 . S
C1397 C1391 1.491 . S
C1397 C1396 1.400 . S
C1397 C1398 1.398 . S
C1398 H1386 0.950 . S
C1398 C1397 1.398 . S
C1398 C1399 1.391 . S
C1399 H1387 0.950 . S
C1399 C1395 1.393 . S
C1399 C1398 1.391 . S
H1400 C1408 0.950 . S
H1401 C1413 0.950 . S
H1402 C1410 0.950 . S
H1403 C1412 0.950 . S
H1404 C1414 0.950 . S
H1405 C1416 0.950 . S
H1406 C1418 0.950 . S
H1407 C1419 0.950 . S
C1408 H1400 0.950 . S
C1408 C1409 1.386 . S
C1408 C1410 1.391 . S
C1409 C1408 1.386 . S
C1409 C1413 1.393 . S
C1410 H1402 0.950 . S
C1410 C1408 1.391 . S
C1410 C1411 1.400 . S
C1411 C1410 1.400 . S
C1411 C1412 1.398 . S
C1411 C1417 1.491 . S
C1412 H1403 0.950 . S
C1412 C1411 1.398 . S
C1412 C1413 1.391 . S
C1413 H1401 0.950 . S
C1413 C1409 1.393 . S
C1413 C1412 1.391 . S
C1414 H1404 0.950 . S
C1414 C1415 1.386 . S
C1414 C1416 1.391 . S
C1415 C1414 1.386 . S
C1415 C1419 1.393 . S
C1416 H1405 0.950 . S
C1416 C1414 1.391 . S
C1416 C1417 1.400 . S
C1417 C1411 1.491 . S
C1417 C1416 1.400 . S
C1417 C1418 1.398 . S
C1418 H1406 0.950 . S
C1418 C1417 1.398 . S
C1418 C1419 1.391 . S
C1419 H1407 0.950 . S
C1419 C1415 1.393 . S
C1419 C1418 1.391 . S
H1420 C1428 0.950 . S
H1421 C1433 0.950 . S
H1422 C1430 0.950 . S
H1423 C1432 0.950 . S
H1424 C1434 0.950 . S
H1425 C1436 0.950 . S
H1426 C1438 0.950 . S
H1427 C1439 0.950 . S
C1428 H1420 0.950 . S
C1428 C1429 1.386 . S
C1428 C1430 1.391 . S
C1429 C1428 1.386 . S
C1429 C1433 1.393 . S
C1430 H1422 0.950 . S
C1430 C1428 1.391 . S
C1430 C1431 1.400 . S
C1431 C1430 1.400 . S
C1431 C1432 1.398 . S
C1431 C1437 1.491 . S
C1432 H1423 0.950 . S
C1432 C1431 1.398 . S
C1432 C1433 1.391 . S
C1433 H1421 0.950 . S
C1433 C1429 1.393 . S
C1433 C1432 1.391 . S
C1434 H1424 0.950 . S
C1434 C1435 1.386 . S
C1434 C1436 1.391 . S
C1435 C1434 1.386 . S
C1435 C1439 1.393 . S
C1436 H1425 0.950 . S
C1436 C1434 1.391 . S
C1436 C1437 1.400 . S
C1437 C1431 1.491 . S
C1437 C1436 1.400 . S
C1437 C1438 1.398 . S
C1438 H1426 0.950 . S
C1438 C1437 1.398 . S
C1438 C1439 1.391 . S
C1439 H1427 0.950 . S
C1439 C1435 1.393 . S
C1439 C1438 1.391 . S
H1440 C1448 0.950 . S
H1441 C1453 0.950 . S
H1442 C1450 0.950 . S
H1443 C1452 0.950 . S
H1444 C1454 0.950 . S
H1445 C1456 0.950 . S
H1446 C1458 0.950 . S
H1447 C1459 0.950 . S
C1448 H1440 0.950 . S
C1448 C1449 1.386 1_554 S
C1448 C1450 1.391 . S
C1449 C1448 1.386 1_556 S
C1449 C1453 1.393 1_556 S
C1450 H1442 0.950 . S
C1450 C1448 1.391 . S
C1450 C1451 1.400 . S
C1451 C1450 1.400 . S
C1451 C1452 1.398 . S
C1451 C1457 1.491 . S
C1452 H1443 0.950 . S
C1452 C1451 1.398 . S
C1452 C1453 1.391 . S
C1453 H1441 0.950 . S
C1453 C1449 1.393 1_554 S
C1453 C1452 1.391 . S
C1454 H1444 0.950 . S
C1454 C1455 1.386 . S
C1454 C1456 1.391 . S
C1455 C1454 1.386 . S
C1455 C1459 1.393 . S
C1456 H1445 0.950 . S
C1456 C1454 1.391 . S
C1456 C1457 1.400 . S
C1457 C1451 1.491 . S
C1457 C1456 1.400 . S
C1457 C1458 1.398 . S
C1458 H1446 0.950 . S
C1458 C1457 1.398 . S
C1458 C1459 1.391 . S
C1459 H1447 0.950 . S
C1459 C1455 1.393 . S
C1459 C1458 1.391 . S
H1460 C1468 0.950 . S
H1461 C1473 0.950 . S
H1462 C1470 0.950 . S
H1463 C1472 0.950 . S
H1464 C1474 0.950 1_554 S
H1465 C1476 0.950 . S
H1466 C1478 0.950 . S
H1467 C1479 0.950 . S
C1468 H1460 0.950 . S
C1468 C1469 1.386 . S
C1468 C1470 1.391 . S
C1469 C1468 1.386 . S
C1469 C1473 1.393 . S
C1470 H1462 0.950 . S
C1470 C1468 1.391 . S
C1470 C1471 1.400 . S
C1471 C1470 1.400 . S
C1471 C1472 1.398 . S
C1471 C1477 1.491 . S
C1472 H1463 0.950 . S
C1472 C1471 1.398 . S
C1472 C1473 1.391 . S
C1473 H1461 0.950 . S
C1473 C1469 1.393 . S
C1473 C1472 1.391 . S
C1474 H1464 0.950 1_556 S
C1474 C1475 1.386 1_556 S
C1474 C1476 1.391 . S
C1475 C1474 1.386 1_554 S
C1475 C1479 1.393 1_554 S
C1476 H1465 0.950 . S
C1476 C1474 1.391 . S
C1476 C1477 1.400 . S
C1477 C1471 1.491 . S
C1477 C1476 1.400 . S
C1477 C1478 1.398 . S
C1478 H1466 0.950 . S
C1478 C1477 1.398 . S
C1478 C1479 1.391 . S
C1479 H1467 0.950 . S
C1479 C1475 1.393 1_556 S
C1479 C1478 1.391 . S
H1480 C1488 0.950 . S
H1481 C1493 0.950 . S
H1482 C1490 0.950 . S
H1483 C1492 0.950 . S
H1484 C1494 0.950 . S
H1485 C1496 0.950 . S
H1486 C1498 0.950 . S
H1487 C1499 0.950 1_556 S
C1488 H1480 0.950 . S
C1488 C1489 1.386 . S
C1488 C1490 1.391 . S
C1489 C1488 1.386 . S
C1489 C1493 1.393 . S
C1490 H1482 0.950 . S
C1490 C1488 1.391 . S
C1490 C1491 1.400 . S
C1491 C1490 1.400 . S
C1491 C1492 1.398 . S
C1491 C1497 1.491 . S
C1492 H1483 0.950 . S
C1492 C1491 1.398 . S
C1492 C1493 1.391 . S
C1493 H1481 0.950 . S
C1493 C1489 1.393 . S
C1493 C1492 1.391 . S
C1494 H1484 0.950 . S
C1494 C1495 1.386 1_554 S
C1494 C1496 1.391 . S
C1495 C1494 1.386 1_556 S
C1495 C1499 1.393 1_556 S
C1496 H1485 0.950 . S
C1496 C1494 1.391 . S
C1496 C1497 1.400 . S
C1497 C1491 1.491 . S
C1497 C1496 1.400 . S
C1497 C1498 1.398 . S
C1498 H1486 0.950 . S
C1498 C1497 1.398 . S
C1498 C1499 1.391 . S
C1499 H1487 0.950 1_554 S
C1499 C1495 1.393 1_554 S
C1499 C1498 1.391 . S
H1500 C1508 0.950 . S
H1501 C1513 0.950 1_554 S
H1502 C1510 0.950 . S
H1503 C1512 0.950 . S
H1504 C1514 0.950 . S
H1505 C1516 0.950 . S
H1506 C1518 0.950 . S
H1507 C1519 0.950 . S
C1508 H1500 0.950 . S
C1508 C1509 1.386 1_556 S
C1508 C1510 1.391 . S
C1509 C1508 1.386 1_554 S
C1509 C1513 1.393 1_554 S
C1510 H1502 0.950 . S
C1510 C1508 1.391 . S
C1510 C1511 1.400 . S
C1511 C1510 1.400 . S
C1511 C1512 1.398 . S
C1511 C1517 1.491 . S
C1512 H1503 0.950 . S
C1512 C1511 1.398 . S
C1512 C1513 1.391 . S
C1513 H1501 0.950 1_556 S
C1513 C1509 1.393 1_556 S
C1513 C1512 1.391 . S
C1514 H1504 0.950 . S
C1514 C1515 1.386 . S
C1514 C1516 1.391 . S
C1515 C1514 1.386 . S
C1515 C1519 1.393 . S
C1516 H1505 0.950 . S
C1516 C1514 1.391 . S
C1516 C1517 1.400 . S
C1517 C1511 1.491 . S
C1517 C1516 1.400 . S
C1517 C1518 1.398 . S
C1518 H1506 0.950 . S
C1518 C1517 1.398 . S
C1518 C1519 1.391 . S
C1519 H1507 0.950 . S
C1519 C1515 1.393 . S
C1519 C1518 1.391 . S
H1520 C1528 0.950 . S
H1521 C1533 0.950 . S
H1522 C1530 0.950 . S
H1523 C1532 0.950 . S
H1524 C1534 0.950 . S
H1525 C1536 0.950 . S
H1526 C1538 0.950 . S
H1527 C1539 0.950 1_556 S
C1528 H1520 0.950 . S
C1528 C1529 1.386 . S
C1528 C1530 1.391 . S
C1529 C1528 1.386 . S
C1529 C1533 1.393 . S
C1530 H1522 0.950 . S
C1530 C1528 1.391 . S
C1530 C1531 1.400 . S
C1531 C1530 1.400 . S
C1531 C1532 1.398 . S
C1531 C1537 1.491 . S
C1532 H1523 0.950 . S
C1532 C1531 1.398 . S
C1532 C1533 1.391 . S
C1533 H1521 0.950 . S
C1533 C1529 1.393 . S
C1533 C1532 1.391 . S
C1534 H1524 0.950 . S
C1534 C1535 1.386 1_554 S
C1534 C1536 1.391 . S
C1535 C1534 1.386 1_556 S
C1535 C1539 1.393 1_556 S
C1536 H1525 0.950 . S
C1536 C1534 1.391 . S
C1536 C1537 1.400 . S
C1537 C1531 1.491 . S
C1537 C1536 1.400 . S
C1537 C1538 1.398 . S
C1538 H1526 0.950 . S
C1538 C1537 1.398 . S
C1538 C1539 1.391 . S
C1539 H1527 0.950 1_554 S
C1539 C1535 1.393 1_554 S
C1539 C1538 1.391 . S
H1540 C1548 0.950 . S
H1541 C1553 0.950 1_554 S
H1542 C1550 0.950 . S
H1543 C1552 0.950 . S
H1544 C1554 0.950 . S
H1545 C1556 0.950 . S
H1546 C1558 0.950 . S
H1547 C1559 0.950 . S
C1548 H1540 0.950 . S
C1548 C1549 1.386 1_556 S
C1548 C1550 1.391 . S
C1549 C1548 1.386 1_554 S
C1549 C1553 1.393 1_554 S
C1550 H1542 0.950 . S
C1550 C1548 1.391 . S
C1550 C1551 1.400 . S
C1551 C1550 1.400 . S
C1551 C1552 1.398 . S
C1551 C1557 1.491 . S
C1552 H1543 0.950 . S
C1552 C1551 1.398 . S
C1552 C1553 1.391 . S
C1553 H1541 0.950 1_556 S
C1553 C1549 1.393 1_556 S
C1553 C1552 1.391 . S
C1554 H1544 0.950 . S
C1554 C1555 1.386 . S
C1554 C1556 1.391 . S
C1555 C1554 1.386 . S
C1555 C1559 1.393 . S
C1556 H1545 0.950 . S
C1556 C1554 1.391 . S
C1556 C1557 1.400 . S
C1557 C1551 1.491 . S
C1557 C1556 1.400 . S
C1557 C1558 1.398 . S
C1558 H1546 0.950 . S
C1558 C1557 1.398 . S
C1558 C1559 1.391 . S
C1559 H1547 0.950 . S
C1559 C1555 1.393 . S
C1559 C1558 1.391 . S
H1560 C1568 0.950 . S
H1561 C1573 0.950 1_556 S
H1562 C1570 0.950 . S
H1563 C1572 0.950 . S
H1564 C1574 0.950 . S
H1565 C1576 0.950 . S
H1566 C1578 0.950 . S
H1567 C1579 0.950 . S
C1568 H1560 0.950 . S
C1568 C1569 1.386 1_554 S
C1568 C1570 1.391 . S
C1569 C1568 1.386 1_556 S
C1569 C1573 1.393 1_556 S
C1570 H1562 0.950 . S
C1570 C1568 1.391 . S
C1570 C1571 1.400 . S
C1571 C1570 1.400 . S
C1571 C1572 1.398 . S
C1571 C1577 1.491 . S
C1572 H1563 0.950 . S
C1572 C1571 1.398 . S
C1572 C1573 1.391 . S
C1573 H1561 0.950 1_554 S
C1573 C1569 1.393 1_554 S
C1573 C1572 1.391 . S
C1574 H1564 0.950 . S
C1574 C1575 1.386 . S
C1574 C1576 1.391 . S
C1575 C1574 1.386 . S
C1575 C1579 1.393 . S
C1576 H1565 0.950 . S
C1576 C1574 1.391 . S
C1576 C1577 1.400 . S
C1577 C1571 1.491 . S
C1577 C1576 1.400 . S
C1577 C1578 1.398 . S
C1578 H1566 0.950 . S
C1578 C1577 1.398 . S
C1578 C1579 1.391 . S
C1579 H1567 0.950 . S
C1579 C1575 1.393 . S
C1579 C1578 1.391 . S
H1580 C1588 0.950 . S
H1581 C1593 0.950 . S
H1582 C1590 0.950 . S
H1583 C1592 0.950 . S
H1584 C1594 0.950 . S
H1585 C1596 0.950 . S
H1586 C1598 0.950 . S
H1587 C1599 0.950 1_554 S
C1588 H1580 0.950 . S
C1588 C1589 1.386 . S
C1588 C1590 1.391 . S
C1589 C1588 1.386 . S
C1589 C1593 1.393 . S
C1590 H1582 0.950 . S
C1590 C1588 1.391 . S
C1590 C1591 1.400 . S
C1591 C1590 1.400 . S
C1591 C1592 1.398 . S
C1591 C1597 1.491 . S
C1592 H1583 0.950 . S
C1592 C1591 1.398 . S
C1592 C1593 1.391 . S
C1593 H1581 0.950 . S
C1593 C1589 1.393 . S
C1593 C1592 1.391 . S
C1594 H1584 0.950 . S
C1594 C1595 1.386 1_556 S
C1594 C1596 1.391 . S
C1595 C1594 1.386 1_554 S
C1595 C1599 1.393 1_554 S
C1596 H1585 0.950 . S
C1596 C1594 1.391 . S
C1596 C1597 1.400 . S
C1597 C1591 1.491 . S
C1597 C1596 1.400 . S
C1597 C1598 1.398 . S
C1598 H1586 0.950 . S
C1598 C1597 1.398 . S
C1598 C1599 1.391 . S
C1599 H1587 0.950 1_556 S
C1599 C1595 1.393 1_556 S
C1599 C1598 1.391 . S
C649 C451 1.719 . S
C655 C19 1.716 . S
C669 C322 1.717 . S
C675 C50 1.714 . S
C689 C99 1.725 . S
C695 C371 1.722 . S
C709 C130 1.710 . S
C715 C402 1.710 . S
C729 C179 1.710 . S
C735 C211 1.710 . S
C749 C242 1.709 . S
C755 C210 1.711 . S
C769 C259 1.719 . S
C775 C291 1.722 . S
C789 C162 1.716 . S
C795 C290 1.721 . S
C809 C131 1.712 . S
C815 C339 1.717 . S
C829 C370 1.718 . S
C835 C2 1.721 . S
C849 C51 1.709 . S
C855 C419 1.711 . S
C869 C82 1.712 . S
C875 C450 1.717 . S
C889 C499 1.711 . S
C895 C531 1.709 . S
C909 C562 1.712 . S
C915 C530 1.711 . S
C929 C611 1.725 . S
C935 C579 1.726 . S
C949 C610 1.721 . S
C955 C482 1.724 . S
C969 C10 1.171 . S
C975 C170 1.162 . S
C989 C219 1.160 . S
C995 C59 1.156 . S
C1009 C90 1.190 . S
C1015 C250 1.196 . S
C1029 C139 1.193 . S
C1035 C299 1.185 . S
C1049 C330 1.184 . S
C1055 C490 1.192 . S
C1069 C539 1.178 . S
C1075 C379 1.168 . S
C1089 C410 1.178 . S
C1095 C570 1.168 . S
C1109 C459 1.172 . S
C1115 C619 1.182 . S
C1129 C571 2.288 . S
C1135 C11 2.286 1_556 S
C1149 C42 2.290 1_554 S
C1155 C602 2.292 . S
C1169 C91 2.291 1_556 S
C1175 C491 2.292 . S
C1189 C122 2.294 1_554 S
C1195 C522 2.294 . S
C1209 C171 2.284 . S
C1215 C411 2.283 . S
C1229 C202 2.294 . S
C1235 C442 2.294 . S
C1249 C251 2.290 . S
C1255 C331 2.292 . S
C1269 C362 2.290 . S
C1275 C282 2.292 . S
C1289 C7 1.084 . S
C1295 C16 1.084 . S
C1309 C56 1.079 . S
C1315 C47 1.079 . S
C1329 C87 1.077 . S
C1335 C96 1.077 . S
C1349 C127 1.078 . S
C1355 C136 1.078 . S
C1369 C176 1.088 . S
C1375 C167 1.088 . S
C1389 C216 1.082 . S
C1395 C207 1.082 . S
C1409 C247 1.077 . S
C1415 C256 1.077 . S
C1429 C287 1.077 . S
C1435 C296 1.077 . S
C1449 C327 1.087 . S
C1455 C336 1.087 . S
C1469 C367 1.081 . S
C1475 C376 1.081 . S
C1489 C416 1.079 . S
C1495 C407 1.079 . S
C1509 C456 1.080 . S
C1515 C447 1.080 . S
C1529 C487 1.083 . S
C1535 C496 1.083 . S
C1549 C527 1.081 . S
C1555 C536 1.081 . S
C1569 C576 1.089 . S
C1575 C567 1.089 . S
C1589 C616 1.088 . S
C1595 C607 1.088 . S
