# Generated by pormake.
# Topology yfu, (5)-cn, num edge types: 1
# Building blocks:
#     Node 0, Type 0, BuildingBlock: XOMCOT_clean_sbu_1, # of connection points: 5
#     Node 1, Type 0, BuildingBlock: XOMCOT_clean_sbu_1, # of connection points: 5
#     Node 2, Type 0, BuildingBlock: XOMCOT_clean_sbu_1, # of connection points: 5
#     Node 3, Type 0, BuildingBlock: XOMCOT_clean_sbu_1, # of connection points: 5
#     Node 4, Type 0, BuildingBlock: XOMCOT_clean_sbu_1, # of connection points: 5
#     Node 5, Type 0, BuildingBlock: XOMCOT_clean_sbu_1, # of connection points: 5
#     Node 6, Type 0, BuildingBlock: XOMCOT_clean_sbu_1, # of connection points: 5
#     Node 7, Type 0, BuildingBlock: XOMCOT_clean_sbu_1, # of connection points: 5
#     Node 8, Type 0, BuildingBlock: XOMCOT_clean_sbu_1, # of connection points: 5
#     Node 9, Type 0, BuildingBlock: XOMCOT_clean_sbu_1, # of connection points: 5
#     Node 10, Type 0, BuildingBlock: XOMCOT_clean_sbu_1, # of connection points: 5
#     Node 11, Type 0, BuildingBlock: XOMCOT_clean_sbu_1, # of connection points: 5
#     Node 12, Type 0, BuildingBlock: XOMCOT_clean_sbu_1, # of connection points: 5
#     Node 13, Type 0, BuildingBlock: XOMCOT_clean_sbu_1, # of connection points: 5
#     Node 14, Type 0, BuildingBlock: XOMCOT_clean_sbu_1, # of connection points: 5
#     Node 15, Type 0, BuildingBlock: XOMCOT_clean_sbu_1, # of connection points: 5
#     Node 16, Type 0, BuildingBlock: XOMCOT_clean_sbu_1, # of connection points: 5
#     Node 17, Type 0, BuildingBlock: XOMCOT_clean_sbu_1, # of connection points: 5
#     Node 18, Type 0, BuildingBlock: XOMCOT_clean_sbu_1, # of connection points: 5
#     Node 19, Type 0, BuildingBlock: XOMCOT_clean_sbu_1, # of connection points: 5
#     Node 20, Type 0, BuildingBlock: XOMCOT_clean_sbu_1, # of connection points: 5
#     Node 21, Type 0, BuildingBlock: XOMCOT_clean_sbu_1, # of connection points: 5
#     Node 22, Type 0, BuildingBlock: XOMCOT_clean_sbu_1, # of connection points: 5
#     Node 23, Type 0, BuildingBlock: XOMCOT_clean_sbu_1, # of connection points: 5
#     Node 24, Type 0, BuildingBlock: XOMCOT_clean_sbu_1, # of connection points: 5
#     Node 25, Type 0, BuildingBlock: XOMCOT_clean_sbu_1, # of connection points: 5
#     Node 26, Type 0, BuildingBlock: XOMCOT_clean_sbu_1, # of connection points: 5
#     Node 27, Type 0, BuildingBlock: XOMCOT_clean_sbu_1, # of connection points: 5
#     Node 28, Type 0, BuildingBlock: XOMCOT_clean_sbu_1, # of connection points: 5
#     Node 29, Type 0, BuildingBlock: XOMCOT_clean_sbu_1, # of connection points: 5
#     Node 30, Type 0, BuildingBlock: XOMCOT_clean_sbu_1, # of connection points: 5
#     Node 31, Type 0, BuildingBlock: XOMCOT_clean_sbu_1, # of connection points: 5
#     Edge 32, Type (0, 0), BuildingBlock: ZUJKAS_clean_linker_0, # of connection points: 2
#     Edge 33, Type (0, 0), BuildingBlock: ZUJKAS_clean_linker_0, # of connection points: 2
#     Edge 34, Type (0, 0), BuildingBlock: ZUJKAS_clean_linker_0, # of connection points: 2
#     Edge 35, Type (0, 0), BuildingBlock: ZUJKAS_clean_linker_0, # of connection points: 2
#     Edge 36, Type (0, 0), BuildingBlock: ZUJKAS_clean_linker_0, # of connection points: 2
#     Edge 37, Type (0, 0), BuildingBlock: ZUJKAS_clean_linker_0, # of connection points: 2
#     Edge 38, Type (0, 0), BuildingBlock: ZUJKAS_clean_linker_0, # of connection points: 2
#     Edge 39, Type (0, 0), BuildingBlock: ZUJKAS_clean_linker_0, # of connection points: 2
#     Edge 40, Type (0, 0), BuildingBlock: ZUJKAS_clean_linker_0, # of connection points: 2
#     Edge 41, Type (0, 0), BuildingBlock: ZUJKAS_clean_linker_0, # of connection points: 2
#     Edge 42, Type (0, 0), BuildingBlock: ZUJKAS_clean_linker_0, # of connection points: 2
#     Edge 43, Type (0, 0), BuildingBlock: ZUJKAS_clean_linker_0, # of connection points: 2
#     Edge 44, Type (0, 0), BuildingBlock: ZUJKAS_clean_linker_0, # of connection points: 2
#     Edge 45, Type (0, 0), BuildingBlock: ZUJKAS_clean_linker_0, # of connection points: 2
#     Edge 46, Type (0, 0), BuildingBlock: ZUJKAS_clean_linker_0, # of connection points: 2
#     Edge 47, Type (0, 0), BuildingBlock: ZUJKAS_clean_linker_0, # of connection points: 2
#     Edge 48, Type (0, 0), BuildingBlock: ZUJKAS_clean_linker_0, # of connection points: 2
#     Edge 49, Type (0, 0), BuildingBlock: ZUJKAS_clean_linker_0, # of connection points: 2
#     Edge 50, Type (0, 0), BuildingBlock: ZUJKAS_clean_linker_0, # of connection points: 2
#     Edge 51, Type (0, 0), BuildingBlock: ZUJKAS_clean_linker_0, # of connection points: 2
#     Edge 52, Type (0, 0), BuildingBlock: ZUJKAS_clean_linker_0, # of connection points: 2
#     Edge 53, Type (0, 0), BuildingBlock: ZUJKAS_clean_linker_0, # of connection points: 2
#     Edge 54, Type (0, 0), BuildingBlock: ZUJKAS_clean_linker_0, # of connection points: 2
#     Edge 55, Type (0, 0), BuildingBlock: ZUJKAS_clean_linker_0, # of connection points: 2
#     Edge 56, Type (0, 0), BuildingBlock: ZUJKAS_clean_linker_0, # of connection points: 2
#     Edge 57, Type (0, 0), BuildingBlock: ZUJKAS_clean_linker_0, # of connection points: 2
#     Edge 58, Type (0, 0), BuildingBlock: ZUJKAS_clean_linker_0, # of connection points: 2
#     Edge 59, Type (0, 0), BuildingBlock: ZUJKAS_clean_linker_0, # of connection points: 2
#     Edge 60, Type (0, 0), BuildingBlock: ZUJKAS_clean_linker_0, # of connection points: 2
#     Edge 61, Type (0, 0), BuildingBlock: ZUJKAS_clean_linker_0, # of connection points: 2
#     Edge 62, Type (0, 0), BuildingBlock: ZUJKAS_clean_linker_0, # of connection points: 2
#     Edge 63, Type (0, 0), BuildingBlock: ZUJKAS_clean_linker_0, # of connection points: 2
#     Edge 64, Type (0, 0), BuildingBlock: ZUJKAS_clean_linker_0, # of connection points: 2
#     Edge 65, Type (0, 0), BuildingBlock: ZUJKAS_clean_linker_0, # of connection points: 2
#     Edge 66, Type (0, 0), BuildingBlock: ZUJKAS_clean_linker_0, # of connection points: 2
#     Edge 67, Type (0, 0), BuildingBlock: ZUJKAS_clean_linker_0, # of connection points: 2
#     Edge 68, Type (0, 0), BuildingBlock: ZUJKAS_clean_linker_0, # of connection points: 2
#     Edge 69, Type (0, 0), BuildingBlock: ZUJKAS_clean_linker_0, # of connection points: 2
#     Edge 70, Type (0, 0), BuildingBlock: ZUJKAS_clean_linker_0, # of connection points: 2
#     Edge 71, Type (0, 0), BuildingBlock: ZUJKAS_clean_linker_0, # of connection points: 2
#     Edge 72, Type (0, 0), BuildingBlock: ZUJKAS_clean_linker_0, # of connection points: 2
#     Edge 73, Type (0, 0), BuildingBlock: ZUJKAS_clean_linker_0, # of connection points: 2
#     Edge 74, Type (0, 0), BuildingBlock: ZUJKAS_clean_linker_0, # of connection points: 2
#     Edge 75, Type (0, 0), BuildingBlock: ZUJKAS_clean_linker_0, # of connection points: 2
#     Edge 76, Type (0, 0), BuildingBlock: ZUJKAS_clean_linker_0, # of connection points: 2
#     Edge 77, Type (0, 0), BuildingBlock: ZUJKAS_clean_linker_0, # of connection points: 2
#     Edge 78, Type (0, 0), BuildingBlock: ZUJKAS_clean_linker_0, # of connection points: 2
#     Edge 79, Type (0, 0), BuildingBlock: ZUJKAS_clean_linker_0, # of connection points: 2
#     Edge 80, Type (0, 0), BuildingBlock: ZUJKAS_clean_linker_0, # of connection points: 2
#     Edge 81, Type (0, 0), BuildingBlock: ZUJKAS_clean_linker_0, # of connection points: 2
#     Edge 82, Type (0, 0), BuildingBlock: ZUJKAS_clean_linker_0, # of connection points: 2
#     Edge 83, Type (0, 0), BuildingBlock: ZUJKAS_clean_linker_0, # of connection points: 2
#     Edge 84, Type (0, 0), BuildingBlock: ZUJKAS_clean_linker_0, # of connection points: 2
#     Edge 85, Type (0, 0), BuildingBlock: ZUJKAS_clean_linker_0, # of connection points: 2
#     Edge 86, Type (0, 0), BuildingBlock: ZUJKAS_clean_linker_0, # of connection points: 2
#     Edge 87, Type (0, 0), BuildingBlock: ZUJKAS_clean_linker_0, # of connection points: 2
#     Edge 88, Type (0, 0), BuildingBlock: ZUJKAS_clean_linker_0, # of connection points: 2
#     Edge 89, Type (0, 0), BuildingBlock: ZUJKAS_clean_linker_0, # of connection points: 2
#     Edge 90, Type (0, 0), BuildingBlock: ZUJKAS_clean_linker_0, # of connection points: 2
#     Edge 91, Type (0, 0), BuildingBlock: ZUJKAS_clean_linker_0, # of connection points: 2
#     Edge 92, Type (0, 0), BuildingBlock: ZUJKAS_clean_linker_0, # of connection points: 2
#     Edge 93, Type (0, 0), BuildingBlock: ZUJKAS_clean_linker_0, # of connection points: 2
#     Edge 94, Type (0, 0), BuildingBlock: ZUJKAS_clean_linker_0, # of connection points: 2
#     Edge 95, Type (0, 0), BuildingBlock: ZUJKAS_clean_linker_0, # of connection points: 2
#     Edge 96, Type (0, 0), BuildingBlock: ZUJKAS_clean_linker_0, # of connection points: 2
#     Edge 97, Type (0, 0), BuildingBlock: ZUJKAS_clean_linker_0, # of connection points: 2
#     Edge 98, Type (0, 0), BuildingBlock: ZUJKAS_clean_linker_0, # of connection points: 2
#     Edge 99, Type (0, 0), BuildingBlock: ZUJKAS_clean_linker_0, # of connection points: 2
#     Edge 100, Type (0, 0), BuildingBlock: ZUJKAS_clean_linker_0, # of connection points: 2
#     Edge 101, Type (0, 0), BuildingBlock: ZUJKAS_clean_linker_0, # of connection points: 2
#     Edge 102, Type (0, 0), BuildingBlock: ZUJKAS_clean_linker_0, # of connection points: 2
#     Edge 103, Type (0, 0), BuildingBlock: ZUJKAS_clean_linker_0, # of connection points: 2
#     Edge 104, Type (0, 0), BuildingBlock: ZUJKAS_clean_linker_0, # of connection points: 2
#     Edge 105, Type (0, 0), BuildingBlock: ZUJKAS_clean_linker_0, # of connection points: 2
#     Edge 106, Type (0, 0), BuildingBlock: ZUJKAS_clean_linker_0, # of connection points: 2
#     Edge 107, Type (0, 0), BuildingBlock: ZUJKAS_clean_linker_0, # of connection points: 2
#     Edge 108, Type (0, 0), BuildingBlock: ZUJKAS_clean_linker_0, # of connection points: 2
#     Edge 109, Type (0, 0), BuildingBlock: ZUJKAS_clean_linker_0, # of connection points: 2
#     Edge 110, Type (0, 0), BuildingBlock: ZUJKAS_clean_linker_0, # of connection points: 2
#     Edge 111, Type (0, 0), BuildingBlock: ZUJKAS_clean_linker_0, # of connection points: 2
# Relax obj value: 0.460
# Max RMSD: 0.265
# Mean RMSD: 0.265
data_MOF--net-yfu--node1-XOMCOT_clean_sbu_1--edge1-ZUJKAS_clean_linker_0
_symmetry_space_group_name_H-M    P1
_symmetry_Int_Tables_number       1
_symmetry_cell_setting            triclinic
loop_
_symmetry_equiv_pos_as_xyz
'x, y, z'
_cell_length_a     57.803161
_cell_length_b     57.840948
_cell_length_c     101.52474
_cell_angle_alpha  89.960219
_cell_angle_beta   90.022671
_cell_angle_gamma 90.0316
loop_
_atom_site_label
_atom_site_type_symbol
_atom_site_fract_x
_atom_site_fract_y
_atom_site_fract_z
_atom_type_partial_charge
C0 C 0.08664 0.12686 0.29332 0.0
C1 C 0.07563 0.14764 0.29132 0.0
N2 N 0.07484 0.15922 0.30284 0.0
N3 N 0.09302 0.12509 0.30606 0.0
C4 C 0.08585 0.14526 0.31154 0.0
H5 H 0.08922 0.11378 0.2859 0.0
Co6 Co 0.10675 0.09933 0.31458 0.0
C7 C 0.15009 0.1244 0.32551 0.0
O8 O 0.15964 0.10928 0.33349 0.0
N9 N 0.1197 0.07351 0.32289 0.0
C10 C 0.12047 0.03991 0.33351 0.0
C11 C 0.10653 0.05703 0.32857 0.0
C12 C 0.14162 0.06555 0.32407 0.0
N13 N 0.14259 0.04532 0.33075 0.0
O14 O 0.12353 0.09141 0.2992 0.0
H15 H 0.08787 0.0575 0.32915 0.0
H16 H 0.15655 0.07404 0.31985 0.0
O17 O 0.13141 0.11966 0.31947 0.0
C18 C 0.11396 0.0761 0.29209 0.0
O19 O 0.09264 0.06977 0.29479 0.0
N20 N 0.09005 0.10576 0.32987 0.0
C21 C 0.06292 0.10623 0.35248 0.0
C22 C 0.08678 0.11015 0.35326 0.0
C23 C 0.1001 0.10971 0.34183 0.0
C24 C 0.06681 0.1024 0.32887 0.0
C25 C 0.05286 0.10269 0.34005 0.0
H26 H 0.11854 0.11126 0.34279 0.0
H27 H 0.05925 0.09849 0.31938 0.0
H28 H 0.08787 0.14918 0.32189 0.0
H29 H 0.0685 0.15347 0.28205 0.0
H30 H 0.11478 0.02494 0.33904 0.0
H31 H 0.09519 0.11302 0.36266 0.0
H32 H 0.03454 0.09917 0.33903 0.0
C33 C 0.15316 0.80718 0.57339 0.0
C34 C 0.13894 0.79021 0.56844 0.0
N35 N 0.12429 0.79978 0.55964 0.0
N36 N 0.14731 0.8277 0.56807 0.0
C37 C 0.13077 0.82234 0.5591 0.0
H38 H 0.16565 0.805 0.58123 0.0
Co39 Co 0.15799 0.85667 0.57451 0.0
C40 C 0.10602 0.86809 0.57067 0.0
O41 O 0.09717 0.84725 0.57142 0.0
N42 N 0.1689 0.88536 0.58082 0.0
C43 C 0.1704 0.91821 0.59212 0.0
C44 C 0.15634 0.90065 0.58785 0.0
C45 C 0.19071 0.89398 0.58106 0.0
N46 N 0.19211 0.91401 0.58793 0.0
O47 O 0.1665 0.8655 0.55722 0.0
H48 H 0.13835 0.89847 0.59048 0.0
H49 H 0.20543 0.88518 0.5768 0.0
O50 O 0.12776 0.87132 0.57201 0.0
C51 C 0.18637 0.85749 0.55441 0.0
O52 O 0.19651 0.84375 0.56297 0.0
N53 N 0.1517 0.8474 0.59203 0.0
C54 C 0.15207 0.82365 0.61607 0.0
C55 C 0.13219 0.82391 0.60804 0.0
C56 C 0.13226 0.83619 0.59618 0.0
C57 C 0.17053 0.84857 0.60011 0.0
C58 C 0.17068 0.83778 0.61234 0.0
H59 H 0.11766 0.83427 0.58979 0.0
H60 H 0.18634 0.85656 0.59676 0.0
H61 H 0.12255 0.83513 0.5529 0.0
H62 H 0.13824 0.7726 0.57201 0.0
H63 H 0.16527 0.9322 0.59856 0.0
H64 H 0.11732 0.8132 0.61017 0.0
H65 H 0.18612 0.83921 0.61831 0.0
C66 C 0.41185 0.87125 0.79267 0.0
C67 C 0.42231 0.85017 0.79097 0.0
N68 N 0.42978 0.84258 0.80275 0.0
N69 N 0.41244 0.87735 0.80553 0.0
C70 C 0.42356 0.85931 0.81141 0.0
H71 H 0.40419 0.88119 0.78481 0.0
Co72 Co 0.40078 0.90563 0.8129 0.0
C73 C 0.35352 0.88007 0.81998 0.0
O74 O 0.33633 0.89202 0.82498 0.0
N75 N 0.38997 0.93338 0.82003 0.0
C76 C 0.39112 0.9682 0.8292 0.0
C77 C 0.40396 0.95109 0.82331 0.0
C78 C 0.3686 0.94037 0.82372 0.0
N79 N 0.36881 0.96141 0.82952 0.0
O80 O 0.38777 0.91473 0.79656 0.0
H81 H 0.42249 0.95125 0.82185 0.0
H82 H 0.35317 0.93036 0.82215 0.0
O83 O 0.37243 0.89019 0.81714 0.0
C84 C 0.4014 0.92652 0.7894 0.0
O85 O 0.42323 0.92828 0.79286 0.0
N86 N 0.41404 0.89893 0.82912 0.0
C87 C 0.43523 0.90722 0.85313 0.0
C88 C 0.41249 0.89898 0.85272 0.0
C89 C 0.40199 0.89513 0.8405 0.0
C90 C 0.43674 0.90517 0.82945 0.0
C91 C 0.44769 0.90956 0.8414 0.0
H92 H 0.3838 0.89105 0.84029 0.0
H93 H 0.44572 0.90879 0.82033 0.0
H94 H 0.42694 0.85824 0.82187 0.0
H95 H 0.42462 0.84134 0.78167 0.0
H96 H 0.39794 0.98401 0.83337 0.0
H97 H 0.40249 0.89709 0.86168 0.0
H98 H 0.46535 0.91587 0.84146 0.0
C99 C 0.34314 0.18766 0.06586 0.0
C100 C 0.35901 0.20508 0.06382 0.0
N101 N 0.38041 0.19581 0.06387 0.0
N102 N 0.35437 0.16738 0.06713 0.0
C103 C 0.37705 0.17292 0.06583 0.0
H104 H 0.32464 0.18977 0.06686 0.0
Co105 Co 0.34045 0.1391 0.07164 0.0
C106 C 0.37954 0.11139 0.0817 0.0
O107 O 0.3672 0.10328 0.09155 0.0
N108 N 0.32652 0.11025 0.07598 0.0
C109 C 0.31942 0.07232 0.07527 0.0
C110 C 0.33229 0.09011 0.07007 0.0
C111 C 0.3097 0.10409 0.08462 0.0
N112 N 0.30519 0.0812 0.08443 0.0
O113 O 0.33994 0.13021 0.05364 0.0
H114 H 0.34534 0.08835 0.06251 0.0
H115 H 0.301 0.11576 0.0912 0.0
O116 O 0.37055 0.12546 0.07353 0.0
C117 C 0.32174 0.13767 0.04807 0.0
O118 O 0.30772 0.15103 0.05483 0.0
N119 N 0.33931 0.14921 0.08908 0.0
C120 C 0.33162 0.17249 0.11283 0.0
C121 C 0.35416 0.16628 0.10888 0.0
C122 C 0.35765 0.1547 0.09696 0.0
C123 C 0.3176 0.15597 0.09247 0.0
C124 C 0.31317 0.16631 0.10454 0.0
H125 H 0.37516 0.15174 0.0937 0.0
H126 H 0.30353 0.15359 0.08557 0.0
H127 H 0.39096 0.16051 0.06655 0.0
H128 H 0.35506 0.2233 0.06294 0.0
H129 H 0.32039 0.0543 0.07247 0.0
H130 H 0.36922 0.17153 0.11446 0.0
H131 H 0.29541 0.17027 0.10697 0.0
C132 C 0.05821 0.90131 0.18811 0.0
C133 C 0.04177 0.88419 0.18932 0.0
N134 N 0.05241 0.86349 0.18857 0.0
N135 N 0.07922 0.89156 0.18665 0.0
C136 C 0.07512 0.8685 0.18706 0.0
H137 H 0.05497 0.91971 0.18784 0.0
Co138 Co 0.10662 0.90756 0.18261 0.0
C139 C 0.13434 0.87303 0.16795 0.0
O140 O 0.14145 0.88842 0.15933 0.0
N141 N 0.13464 0.92341 0.17858 0.0
C142 C 0.1726 0.9304 0.17824 0.0
C143 C 0.15542 0.91673 0.18338 0.0
C144 C 0.13987 0.9415 0.17059 0.0
N145 N 0.16282 0.94597 0.17013 0.0
O146 O 0.11805 0.90263 0.20004 0.0
H147 H 0.15814 0.90201 0.18976 0.0
H148 H 0.1274 0.95123 0.16503 0.0
O149 O 0.12064 0.87892 0.17718 0.0
C150 C 0.10875 0.91422 0.20925 0.0
O151 O 0.09002 0.92624 0.20667 0.0
N152 N 0.09436 0.91373 0.16592 0.0
C153 C 0.07132 0.92764 0.14304 0.0
C154 C 0.07788 0.90442 0.14492 0.0
C155 C 0.0892 0.89778 0.15647 0.0
C156 C 0.08666 0.93585 0.16471 0.0
C157 C 0.07602 0.94343 0.15319 0.0
H158 H 0.09274 0.87967 0.15801 0.0
H159 H 0.08912 0.94784 0.17277 0.0
H160 H 0.08833 0.85556 0.18561 0.0
H161 H 0.02336 0.88688 0.19042 0.0
H162 H 0.19097 0.92826 0.1799 0.0
H163 H 0.07347 0.89118 0.13783 0.0
H164 H 0.07131 0.96147 0.15241 0.0
C165 C 0.35894 0.83101 0.43225 0.0
C166 C 0.37573 0.81479 0.43506 0.0
N167 N 0.39674 0.82443 0.43311 0.0
N168 N 0.36918 0.85088 0.42856 0.0
C169 C 0.39216 0.84635 0.42922 0.0
H170 H 0.34043 0.82833 0.43254 0.0
Co171 Co 0.35398 0.87749 0.4225 0.0
C172 C 0.39191 0.9102 0.41702 0.0
O173 O 0.38168 0.91731 0.40618 0.0
N174 N 0.33866 0.90474 0.41652 0.0
C175 C 0.32679 0.9414 0.4165 0.0
C176 C 0.34013 0.92526 0.42285 0.0
C177 C 0.32384 0.90893 0.40643 0.0
N178 N 0.31653 0.93113 0.40615 0.0
O179 O 0.34614 0.88542 0.44016 0.0
H180 H 0.35031 0.92831 0.43162 0.0
H181 H 0.31839 0.89616 0.39934 0.0
O182 O 0.38255 0.89456 0.42407 0.0
C183 C 0.3246 0.88246 0.44209 0.0
O184 O 0.3118 0.87429 0.43245 0.0
N185 N 0.35991 0.86789 0.40528 0.0
C186 C 0.3628 0.8423 0.38214 0.0
C187 C 0.38252 0.85311 0.38735 0.0
C188 C 0.38076 0.86574 0.39906 0.0
C189 C 0.34075 0.85731 0.40034 0.0
C190 C 0.34164 0.84497 0.38863 0.0
H191 H 0.39645 0.87217 0.40348 0.0
H192 H 0.32483 0.85757 0.40593 0.0
H193 H 0.40535 0.85882 0.42669 0.0
H194 H 0.37255 0.79704 0.43789 0.0
H195 H 0.32445 0.95922 0.41946 0.0
H196 H 0.39931 0.85077 0.38281 0.0
H197 H 0.32623 0.8361 0.38525 0.0
C198 C 0.46066 0.10251 0.66443 0.0
C199 C 0.47724 0.11889 0.66711 0.0
N200 N 0.46669 0.13788 0.67179 0.0
N201 N 0.43941 0.11102 0.66711 0.0
C202 C 0.44391 0.13238 0.67212 0.0
H203 H 0.46425 0.08539 0.66079 0.0
Co204 Co 0.41057 0.09506 0.66464 0.0
C205 C 0.39762 0.14354 0.65819 0.0
O206 O 0.41601 0.1467 0.65078 0.0
N207 N 0.38245 0.07929 0.66253 0.0
C208 C 0.34515 0.07038 0.66405 0.0
C209 C 0.36233 0.08492 0.66842 0.0
C210 C 0.3771 0.06105 0.65473 0.0
N211 N 0.3544 0.05538 0.65537 0.0
O212 O 0.40566 0.09504 0.68314 0.0
H213 H 0.36016 0.09904 0.67529 0.0
H214 H 0.38956 0.05221 0.64861 0.0
O215 O 0.39394 0.12402 0.66362 0.0
C216 C 0.41733 0.08107 0.69014 0.0
O217 O 0.43449 0.06969 0.68468 0.0
N218 N 0.41519 0.09326 0.64633 0.0
C219 C 0.42327 0.08267 0.61997 0.0
C220 C 0.40715 0.09969 0.62336 0.0
C221 C 0.40271 0.10414 0.63668 0.0
C222 C 0.42975 0.07567 0.64309 0.0
C223 C 0.43425 0.07024 0.63001 0.0
H224 H 0.38881 0.11579 0.63908 0.0
H225 H 0.43726 0.06514 0.65077 0.0
H226 H 0.43079 0.14386 0.67595 0.0
H227 H 0.49563 0.11717 0.66535 0.0
H228 H 0.32708 0.07138 0.66675 0.0
H229 H 0.3979 0.10918 0.61582 0.0
H230 H 0.4466 0.05671 0.62778 0.0
C231 C 0.14315 0.16193 0.94195 0.0
C232 C 0.1234 0.17287 0.9463 0.0
N233 N 0.10756 0.17239 0.93657 0.0
N234 N 0.13988 0.15432 0.92953 0.0
C235 C 0.1179 0.16082 0.92659 0.0
H236 H 0.15915 0.16055 0.94739 0.0
Co237 Co 0.16234 0.14098 0.91825 0.0
C238 C 0.13666 0.09718 0.90949 0.0
O239 O 0.15045 0.08969 0.90016 0.0
N240 N 0.18514 0.12847 0.90707 0.0
C241 C 0.2145 0.12894 0.89291 0.0
C242 C 0.19787 0.14198 0.89899 0.0
C243 C 0.19498 0.10725 0.90602 0.0
N244 N 0.21267 0.10708 0.89729 0.0
O245 O 0.17589 0.12486 0.93265 0.0
H246 H 0.19556 0.16039 0.89777 0.0
H247 H 0.18983 0.09244 0.91185 0.0
O248 O 0.14113 0.11585 0.91563 0.0
C249 C 0.1944 0.13472 0.93644 0.0
O250 O 0.2004 0.15427 0.93078 0.0
N251 N 0.15033 0.15767 0.9041 0.0
C252 C 0.1428 0.1864 0.88272 0.0
C253 C 0.13895 0.16265 0.88156 0.0
C254 C 0.14279 0.14843 0.89248 0.0
C255 C 0.15356 0.18088 0.90539 0.0
C256 C 0.14967 0.19564 0.89482 0.0
H257 H 0.14115 0.13004 0.89127 0.0
H258 H 0.1603 0.18781 0.91451 0.0
H259 H 0.10986 0.15776 0.91711 0.0
H260 H 0.12134 0.18157 0.95566 0.0
H261 H 0.227 0.13509 0.88578 0.0
H262 H 0.13391 0.15512 0.87222 0.0
H263 H 0.15303 0.21397 0.89589 0.0
C264 C 0.92572 0.87731 0.69953 0.0
C265 C 0.93666 0.85668 0.70195 0.0
N266 N 0.93733 0.84446 0.69068 0.0
N267 N 0.9192 0.87828 0.68677 0.0
C268 C 0.92661 0.85792 0.68162 0.0
H269 H 0.92329 0.89085 0.70669 0.0
Co270 Co 0.90462 0.90345 0.67824 0.0
C271 C 0.86425 0.87886 0.66453 0.0
O272 O 0.85777 0.89523 0.65636 0.0
N273 N 0.89075 0.92913 0.66997 0.0
C274 C 0.88887 0.96362 0.66031 0.0
C275 C 0.90332 0.94647 0.66466 0.0
C276 C 0.86858 0.93668 0.66918 0.0
N277 N 0.86699 0.95744 0.66308 0.0
O278 O 0.88631 0.9095 0.69338 0.0
H279 H 0.92196 0.94695 0.66416 0.0
H280 H 0.85393 0.92746 0.67325 0.0
O281 O 0.88148 0.88185 0.67218 0.0
C282 C 0.89571 0.92539 0.70016 0.0
O283 O 0.91605 0.93329 0.6965 0.0
N284 N 0.92346 0.89916 0.66354 0.0
C285 C 0.95141 0.91083 0.64236 0.0
C286 C 0.92982 0.90049 0.64024 0.0
C287 C 0.91596 0.89484 0.65103 0.0
C288 C 0.94539 0.90686 0.66576 0.0
C289 C 0.95965 0.91302 0.65527 0.0
H290 H 0.89872 0.88882 0.64915 0.0
H291 H 0.95093 0.91048 0.67573 0.0
H292 H 0.92436 0.85315 0.67139 0.0
H293 H 0.94429 0.85145 0.71122 0.0
H294 H 0.89406 0.97934 0.65533 0.0
H295 H 0.92299 0.89839 0.63037 0.0
H296 H 0.97645 0.92056 0.65725 0.0
C297 C 0.84873 0.20204 0.42087 0.0
C298 C 0.86704 0.21698 0.42227 0.0
N299 N 0.88638 0.20453 0.42449 0.0
N300 N 0.85626 0.18015 0.4222 0.0
C301 C 0.87934 0.18217 0.42437 0.0
H302 H 0.83103 0.2068 0.41874 0.0
Co303 Co 0.83674 0.15453 0.42033 0.0
C304 C 0.86716 0.11466 0.41556 0.0
O305 O 0.85243 0.10611 0.40699 0.0
N306 N 0.81658 0.12865 0.41869 0.0
C307 C 0.79993 0.09495 0.42363 0.0
C308 C 0.81518 0.11158 0.42777 0.0
C309 C 0.80172 0.12182 0.40909 0.0
N310 N 0.79152 0.10133 0.41183 0.0
O311 O 0.8338 0.15248 0.43889 0.0
H312 H 0.8253 0.11071 0.43671 0.0
H313 H 0.79901 0.13096 0.39997 0.0
O314 O 0.86302 0.13397 0.42113 0.0
C315 C 0.81744 0.16457 0.4436 0.0
O316 O 0.8063 0.17872 0.43571 0.0
N317 N 0.83867 0.15823 0.40207 0.0
C318 C 0.839 0.17507 0.37634 0.0
C319 C 0.8583 0.16339 0.38145 0.0
C320 C 0.85793 0.15535 0.39444 0.0
C321 C 0.81988 0.16961 0.39724 0.0
C322 C 0.81944 0.17769 0.38434 0.0
H323 H 0.87367 0.14836 0.39852 0.0
H324 H 0.80539 0.17312 0.40368 0.0
H325 H 0.89076 0.16757 0.42581 0.0
H326 H 0.8662 0.2356 0.42136 0.0
H327 H 0.79562 0.07924 0.42888 0.0
H328 H 0.87398 0.16161 0.37569 0.0
H329 H 0.80452 0.18739 0.38099 0.0
C330 C 0.57035 0.10178 0.17523 0.0
C331 C 0.55455 0.11943 0.17655 0.0
N332 N 0.56476 0.13929 0.17282 0.0
N333 N 0.59061 0.11044 0.17084 0.0
C334 C 0.58658 0.13342 0.16942 0.0
H335 H 0.56714 0.08373 0.17727 0.0
Co336 Co 0.61752 0.09318 0.16752 0.0
C337 C 0.65579 0.12756 0.16903 0.0
O338 O 0.66848 0.11629 0.16043 0.0
N339 N 0.64445 0.07537 0.16442 0.0
C340 C 0.67754 0.05689 0.16838 0.0
C341 C 0.66161 0.07222 0.17329 0.0
C342 C 0.65033 0.06144 0.15423 0.0
N343 N 0.6704 0.05006 0.15637 0.0
O344 O 0.61804 0.08327 0.18538 0.0
H345 H 0.66251 0.08057 0.18281 0.0
H346 H 0.63987 0.05897 0.14555 0.0
O347 O 0.63588 0.11986 0.17221 0.0
C348 C 0.60946 0.06315 0.18668 0.0
O349 O 0.60101 0.05277 0.17621 0.0
N350 N 0.61547 0.10159 0.14977 0.0
C351 C 0.59995 0.11029 0.12431 0.0
C352 C 0.61245 0.12716 0.1312 0.0
C353 C 0.62022 0.12243 0.14399 0.0
C354 C 0.60359 0.08504 0.14308 0.0
C355 C 0.59619 0.08877 0.13023 0.0
H356 H 0.62831 0.13622 0.14941 0.0
H357 H 0.59896 0.06912 0.14802 0.0
H358 H 0.59942 0.14571 0.16608 0.0
H359 H 0.53676 0.11773 0.17974 0.0
H360 H 0.69323 0.05134 0.17326 0.0
H361 H 0.61498 0.14423 0.12705 0.0
H362 H 0.58587 0.07562 0.12541 0.0
C363 C 0.6654 0.82472 0.92733 0.0
C364 C 0.64951 0.80816 0.9311 0.0
N365 N 0.62825 0.81771 0.93087 0.0
N366 N 0.65432 0.84474 0.92476 0.0
C367 C 0.63174 0.83996 0.92729 0.0
H368 H 0.68366 0.82188 0.92569 0.0
Co369 Co 0.66729 0.87124 0.91647 0.0
C370 C 0.62081 0.88366 0.90449 0.0
O371 O 0.62478 0.87485 0.89281 0.0
N372 N 0.67969 0.89806 0.90828 0.0
C373 C 0.68412 0.92725 0.89423 0.0
C374 C 0.67031 0.90921 0.89787 0.0
C375 C 0.6997 0.9097 0.91063 0.0
N376 N 0.70266 0.92767 0.9022 0.0
O377 O 0.66795 0.88693 0.93294 0.0
H378 H 0.655 0.90416 0.89265 0.0
H379 H 0.71204 0.9048 0.91814 0.0
O380 O 0.63624 0.88326 0.91348 0.0
C381 C 0.68554 0.87994 0.93932 0.0
O382 O 0.6989 0.86411 0.93404 0.0
N383 N 0.66936 0.85466 0.90045 0.0
C384 C 0.68048 0.82563 0.8794 0.0
C385 C 0.65877 0.82424 0.88553 0.0
C386 C 0.65373 0.83858 0.89619 0.0
C387 C 0.69072 0.85578 0.89471 0.0
C388 C 0.69645 0.84184 0.88404 0.0
H389 H 0.63744 0.83622 0.9012 0.0
H390 H 0.70404 0.86673 0.89878 0.0
H391 H 0.61781 0.85214 0.92586 0.0
H392 H 0.65316 0.79009 0.93294 0.0
H393 H 0.68131 0.93848 0.88584 0.0
H394 H 0.64621 0.81131 0.88261 0.0
H395 H 0.71358 0.84317 0.87978 0.0
C396 C 0.92803 0.13537 0.79468 0.0
C397 C 0.93708 0.15681 0.79186 0.0
N398 N 0.93483 0.17033 0.80257 0.0
N399 N 0.91986 0.13517 0.80713 0.0
C400 C 0.92417 0.15687 0.81164 0.0
H401 H 0.9281 0.12075 0.78808 0.0
Co402 Co 0.90726 0.10962 0.81646 0.0
C403 C 0.86703 0.13693 0.8099 0.0
O404 O 0.87084 0.13206 0.79746 0.0
N405 N 0.89571 0.08427 0.82569 0.0
C406 C 0.89803 0.04989 0.83526 0.0
C407 C 0.90925 0.06561 0.82745 0.0
C408 C 0.87618 0.07956 0.83258 0.0
N409 N 0.87725 0.05865 0.83864 0.0
O410 O 0.89519 0.09638 0.80074 0.0
H411 H 0.92655 0.06384 0.82355 0.0
H412 H 0.86194 0.09157 0.83356 0.0
O413 O 0.87927 0.12733 0.81886 0.0
C414 C 0.90662 0.08095 0.7947 0.0
O415 O 0.92785 0.07639 0.79853 0.0
N416 N 0.91964 0.12071 0.83212 0.0
C417 C 0.94127 0.12435 0.85643 0.0
C418 C 0.91725 0.12696 0.85542 0.0
C419 C 0.90669 0.12523 0.84308 0.0
C420 C 0.94307 0.11916 0.83286 0.0
C421 C 0.95431 0.12126 0.84492 0.0
H422 H 0.88805 0.12573 0.84254 0.0
H423 H 0.95293 0.11484 0.82414 0.0
H424 H 0.91991 0.16261 0.82149 0.0
H425 H 0.94561 0.16172 0.78279 0.0
H426 H 0.90484 0.03327 0.83823 0.0
H427 H 0.90668 0.12922 0.86413 0.0
H428 H 0.97287 0.11875 0.84535 0.0
C429 C 0.64969 0.18665 0.57214 0.0
C430 C 0.63259 0.20278 0.57002 0.0
N431 N 0.61187 0.19275 0.57223 0.0
N432 N 0.63999 0.16636 0.5756 0.0
C433 C 0.61692 0.17066 0.57562 0.0
H434 H 0.66808 0.18962 0.57126 0.0
Co435 Co 0.65642 0.13927 0.57974 0.0
C436 C 0.62178 0.10157 0.57978 0.0
O437 O 0.6326 0.09079 0.58936 0.0
N438 N 0.67349 0.11193 0.58364 0.0
C439 C 0.68948 0.07725 0.58059 0.0
C440 C 0.67584 0.09412 0.57511 0.0
C441 C 0.68637 0.10545 0.5942 0.0
N442 N 0.69611 0.08437 0.59261 0.0
O443 O 0.66629 0.13688 0.56193 0.0
H444 H 0.66792 0.0933 0.56547 0.0
H445 H 0.68858 0.11572 0.60298 0.0
O446 O 0.62915 0.12105 0.57561 0.0
C447 C 0.68666 0.14488 0.56062 0.0
O448 O 0.69685 0.15406 0.57095 0.0
N449 N 0.64835 0.14334 0.59733 0.0
C450 C 0.64155 0.16244 0.62218 0.0
C451 C 0.6234 0.15093 0.61573 0.0
C452 C 0.62719 0.14132 0.60323 0.0
C453 C 0.66601 0.15442 0.60353 0.0
C454 C 0.66321 0.16353 0.61607 0.0
H455 H 0.61272 0.13388 0.59802 0.0
H456 H 0.68221 0.15703 0.59841 0.0
H457 H 0.6041 0.15801 0.57841 0.0
H458 H 0.63533 0.22049 0.56698 0.0
H459 H 0.69446 0.06116 0.57595 0.0
H460 H 0.60625 0.15038 0.62001 0.0
H461 H 0.67742 0.17299 0.62048 0.0
C462 C 0.54857 0.89689 0.33178 0.0
C463 C 0.53238 0.88026 0.32889 0.0
N464 N 0.54152 0.86549 0.32008 0.0
N465 N 0.56829 0.89258 0.32509 0.0
C466 C 0.56293 0.87394 0.31754 0.0
H467 H 0.5459 0.91094 0.33856 0.0
Co468 Co 0.59674 0.90912 0.32643 0.0
C469 C 0.6123 0.8599 0.32642 0.0
O470 O 0.59501 0.85313 0.3339 0.0
N471 N 0.6244 0.9257 0.32742 0.0
C472 C 0.66023 0.9377 0.32343 0.0
C473 C 0.64316 0.92249 0.31974 0.0
C474 C 0.63033 0.94323 0.33554 0.0
N475 N 0.65218 0.95072 0.33343 0.0
O476 O 0.59633 0.91438 0.30808 0.0
H477 H 0.64435 0.90986 0.31192 0.0
H478 H 0.61903 0.9501 0.34305 0.0
O479 O 0.61461 0.88118 0.32344 0.0
C480 C 0.58456 0.93175 0.30441 0.0
O481 O 0.57135 0.94224 0.31307 0.0
N482 N 0.59714 0.90572 0.34489 0.0
C483 C 0.59254 0.90635 0.37213 0.0
C484 C 0.60743 0.89049 0.36613 0.0
C485 C 0.61018 0.89104 0.35243 0.0
C486 C 0.58411 0.92237 0.35077 0.0
C487 C 0.58146 0.92295 0.36437 0.0
H488 H 0.62279 0.8797 0.34807 0.0
H489 H 0.57549 0.9352 0.34477 0.0
H490 H 0.57487 0.86615 0.31065 0.0
H491 H 0.51558 0.87859 0.33349 0.0
H492 H 0.6772 0.93912 0.31901 0.0
H493 H 0.61655 0.87769 0.37194 0.0
H494 H 0.56992 0.93556 0.36874 0.0
C495 C 0.85813 0.80482 0.06002 0.0
C496 C 0.87488 0.78931 0.05621 0.0
N497 N 0.89305 0.80126 0.05154 0.0
N498 N 0.86575 0.82666 0.05806 0.0
C499 C 0.88672 0.8237 0.05227 0.0
H500 H 0.84158 0.80008 0.06408 0.0
Co501 Co 0.85045 0.85505 0.06219 0.0
C502 C 0.89887 0.86445 0.07019 0.0
O503 O 0.90035 0.84415 0.07597 0.0
N504 N 0.83546 0.88287 0.06578 0.0
C505 C 0.82702 0.92031 0.06571 0.0
C506 C 0.84182 0.90369 0.06101 0.0
C507 C 0.81665 0.88722 0.0733 0.0
N508 N 0.81122 0.90995 0.07348 0.0
O509 O 0.85061 0.86319 0.04409 0.0
H510 H 0.85645 0.90664 0.05459 0.0
H511 H 0.80711 0.87402 0.07854 0.0
O512 O 0.88003 0.87064 0.06465 0.0
C513 C 0.83421 0.85363 0.03778 0.0
O514 O 0.82253 0.83698 0.04357 0.0
N515 N 0.848 0.8471 0.08013 0.0
C516 C 0.83754 0.83354 0.10578 0.0
C517 C 0.85428 0.85057 0.10345 0.0
C518 C 0.85867 0.85774 0.09053 0.0
C519 C 0.83037 0.832 0.08238 0.0
C520 C 0.82506 0.8247 0.09508 0.0
H521 H 0.87023 0.87213 0.08904 0.0
H522 H 0.81993 0.826 0.07425 0.0
H523 H 0.89758 0.83779 0.04897 0.0
H524 H 0.87417 0.77072 0.05739 0.0
H525 H 0.82822 0.93869 0.06383 0.0
H526 H 0.86365 0.85841 0.11154 0.0
H527 H 0.81165 0.81184 0.09647 0.0
C528 C 0.55784 0.59137 0.81814 0.0
C529 C 0.54245 0.60888 0.81548 0.0
N530 N 0.55444 0.62851 0.81352 0.0
N531 N 0.57969 0.59969 0.81808 0.0
C532 C 0.57694 0.62236 0.81478 0.0
H533 H 0.55305 0.57362 0.81986 0.0
Co534 Co 0.60743 0.58228 0.82141 0.0
C535 C 0.61829 0.62724 0.83416 0.0
O536 O 0.59802 0.62814 0.84003 0.0
N537 N 0.63477 0.5655 0.82449 0.0
C538 C 0.67231 0.55752 0.82576 0.0
C539 C 0.65604 0.57238 0.8207 0.0
C540 C 0.63859 0.54615 0.83172 0.0
N541 N 0.66138 0.54103 0.8328 0.0
O542 O 0.61742 0.58757 0.80374 0.0
H543 H 0.65961 0.58784 0.81505 0.0
H544 H 0.62497 0.53636 0.83641 0.0
O545 O 0.62347 0.61006 0.82688 0.0
C546 C 0.60658 0.57677 0.79474 0.0
O547 O 0.58742 0.5658 0.79781 0.0
N548 N 0.59756 0.57489 0.83855 0.0
C549 C 0.58037 0.55755 0.8623 0.0
C550 C 0.59784 0.57447 0.86219 0.0
C551 C 0.60685 0.58222 0.8502 0.0
C552 C 0.58234 0.55694 0.8385 0.0
C553 C 0.57356 0.54799 0.8502 0.0
H554 H 0.62147 0.59376 0.85043 0.0
H555 H 0.57758 0.54895 0.82927 0.0
H556 H 0.59115 0.63425 0.81329 0.0
H557 H 0.52379 0.60737 0.81532 0.0
H558 H 0.69085 0.55951 0.82484 0.0
H559 H 0.60436 0.58203 0.8712 0.0
H560 H 0.56145 0.53374 0.84968 0.0
C561 C 0.61131 0.36088 0.05007 0.0
C562 C 0.59042 0.35048 0.04744 0.0
N563 N 0.58722 0.33321 0.05615 0.0
N564 N 0.62153 0.35032 0.06041 0.0
C565 C 0.60638 0.3334 0.06383 0.0
H566 H 0.61824 0.37572 0.04493 0.0
Co567 Co 0.64916 0.36052 0.06868 0.0
C568 C 0.63008 0.40709 0.07905 0.0
O569 O 0.64189 0.41041 0.08995 0.0
N570 N 0.67664 0.37057 0.07667 0.0
C571 C 0.71134 0.36923 0.08613 0.0
C572 C 0.69347 0.35636 0.08107 0.0
C573 C 0.68524 0.39207 0.07864 0.0
N574 N 0.70607 0.39174 0.08469 0.0
O575 O 0.66012 0.37323 0.05266 0.0
H576 H 0.69301 0.33772 0.08057 0.0
H577 H 0.67682 0.40771 0.07537 0.0
O578 O 0.63333 0.38897 0.07219 0.0
C579 C 0.6693 0.35895 0.04475 0.0
O580 O 0.66801 0.33675 0.04743 0.0
N581 N 0.63982 0.34693 0.08454 0.0
C582 C 0.63387 0.32151 0.10757 0.0
C583 C 0.62403 0.34355 0.10633 0.0
C584 C 0.62695 0.35595 0.09459 0.0
C585 C 0.6486 0.32518 0.08544 0.0
C586 C 0.64599 0.31223 0.09686 0.0
H587 H 0.61879 0.37255 0.09375 0.0
H588 H 0.65802 0.31798 0.07721 0.0
H589 H 0.60875 0.322 0.07214 0.0
H590 H 0.57845 0.3555 0.03975 0.0
H591 H 0.72677 0.36248 0.09079 0.0
H592 H 0.6141 0.35104 0.1143 0.0
H593 H 0.65391 0.29529 0.09739 0.0
C594 C 0.94678 0.41148 0.31897 0.0
C595 C 0.96246 0.39422 0.31637 0.0
N596 N 0.9526 0.37371 0.31923 0.0
N597 N 0.92692 0.40207 0.32337 0.0
C598 C 0.93103 0.37897 0.32353 0.0
H599 H 0.94987 0.42982 0.31794 0.0
Co600 Co 0.90116 0.41958 0.32851 0.0
C601 C 0.86522 0.38548 0.33555 0.0
O602 O 0.85864 0.39808 0.34565 0.0
N603 N 0.87515 0.43771 0.33347 0.0
C604 C 0.83962 0.4526 0.33286 0.0
C605 C 0.85465 0.43732 0.32707 0.0
C606 C 0.87213 0.45386 0.34301 0.0
N607 N 0.85061 0.46306 0.34293 0.0
O608 O 0.8934 0.4248 0.31058 0.0
H609 H 0.85071 0.42629 0.31877 0.0
H610 H 0.88542 0.45922 0.34978 0.0
O611 O 0.88216 0.392 0.3284 0.0
C612 C 0.9013 0.44414 0.30669 0.0
O613 O 0.91401 0.45636 0.31486 0.0
N614 N 0.91024 0.41593 0.346 0.0
C615 C 0.92923 0.41729 0.37116 0.0
C616 C 0.91805 0.39727 0.36662 0.0
C617 C 0.90892 0.3968 0.35386 0.0
C618 C 0.92228 0.43487 0.35001 0.0
C619 C 0.93141 0.43619 0.36264 0.0
H620 H 0.90163 0.38085 0.35028 0.0
H621 H 0.92464 0.4492 0.34328 0.0
H622 H 0.91853 0.36624 0.32675 0.0
H623 H 0.98004 0.39669 0.31297 0.0
H624 H 0.82183 0.45538 0.32997 0.0
H625 H 0.91686 0.38199 0.37275 0.0
H626 H 0.9409 0.45154 0.36551 0.0
C627 C 0.86208 0.69858 0.55623 0.0
C628 C 0.87995 0.71335 0.55324 0.0
N629 N 0.89798 0.70081 0.54885 0.0
N630 N 0.86866 0.67652 0.55404 0.0
C631 C 0.89033 0.67864 0.54896 0.0
H632 H 0.84549 0.70388 0.56001 0.0
Co633 Co 0.85083 0.64946 0.55797 0.0
C634 C 0.8983 0.63506 0.56693 0.0
O635 O 0.90422 0.65549 0.5715 0.0
N636 N 0.83349 0.62251 0.56165 0.0
C637 C 0.824 0.5852 0.56151 0.0
C638 C 0.83846 0.60169 0.55636 0.0
C639 C 0.81582 0.61809 0.57009 0.0
N640 N 0.80976 0.59545 0.57021 0.0
O641 O 0.85294 0.63989 0.54006 0.0
H642 H 0.85239 0.59846 0.5495 0.0
H643 H 0.80771 0.63104 0.57621 0.0
O644 O 0.87828 0.63184 0.56202 0.0
C645 C 0.83971 0.65083 0.53224 0.0
O646 O 0.82976 0.66986 0.53647 0.0
N647 N 0.84652 0.65944 0.57538 0.0
C648 C 0.83423 0.68064 0.59905 0.0
C649 C 0.85267 0.66479 0.59855 0.0
C650 C 0.85816 0.65387 0.58665 0.0
C651 C 0.82742 0.67313 0.57596 0.0
C652 C 0.82086 0.68375 0.58766 0.0
H653 H 0.87168 0.64112 0.58668 0.0
H654 H 0.81731 0.67601 0.56714 0.0
H655 H 0.90067 0.66408 0.5458 0.0
H656 H 0.87996 0.73185 0.55482 0.0
H657 H 0.82465 0.56686 0.55942 0.0
H658 H 0.86325 0.66131 0.60712 0.0
H659 H 0.80571 0.69473 0.58762 0.0
C660 C 0.57144 0.40019 0.67449 0.0
C661 C 0.55802 0.38088 0.67644 0.0
N662 N 0.57195 0.36225 0.67692 0.0
N663 N 0.59389 0.39404 0.67391 0.0
C664 C 0.59366 0.37068 0.67531 0.0
H665 H 0.5652 0.41768 0.67326 0.0
Co666 Co 0.6172 0.41592 0.67028 0.0
C667 C 0.65465 0.38292 0.6606 0.0
O668 O 0.66064 0.39424 0.64994 0.0
N669 N 0.63966 0.43908 0.66677 0.0
C670 C 0.65623 0.47349 0.66951 0.0
C671 C 0.64123 0.45767 0.67472 0.0
C672 C 0.65344 0.44464 0.65639 0.0
N673 N 0.66413 0.4654 0.65792 0.0
O674 O 0.62597 0.41698 0.68855 0.0
H675 H 0.63086 0.46048 0.6834 0.0
H676 H 0.65429 0.43461 0.64747 0.0
O677 O 0.63898 0.39092 0.66814 0.0
C678 C 0.61312 0.42506 0.69763 0.0
O679 O 0.59135 0.42957 0.69499 0.0
N680 N 0.60837 0.41555 0.65262 0.0
C681 C 0.58817 0.41737 0.62774 0.0
C682 C 0.59782 0.39671 0.63249 0.0
C683 C 0.60749 0.39606 0.64507 0.0
C684 C 0.59964 0.4359 0.64805 0.0
C685 C 0.58964 0.43726 0.63559 0.0
H686 H 0.61315 0.37962 0.64893 0.0
H687 H 0.5996 0.45097 0.65436 0.0
H688 H 0.60895 0.35998 0.67495 0.0
H689 H 0.53931 0.3805 0.67696 0.0
H690 H 0.6598 0.49031 0.67368 0.0
H691 H 0.59696 0.38091 0.62679 0.0
H692 H 0.58185 0.45341 0.63251 0.0
C693 C 0.85893 0.30456 0.92417 0.0
C694 C 0.87428 0.28738 0.92748 0.0
N695 N 0.89214 0.29694 0.93404 0.0
N696 N 0.86698 0.32515 0.92842 0.0
C697 C 0.88683 0.31972 0.93489 0.0
H698 H 0.84334 0.30223 0.91845 0.0
Co699 Co 0.85322 0.35385 0.92368 0.0
C700 C 0.90462 0.36834 0.92348 0.0
O701 O 0.91452 0.34933 0.91921 0.0
N702 N 0.83936 0.38208 0.91871 0.0
C703 C 0.83477 0.4165 0.90931 0.0
C704 C 0.85052 0.40051 0.91355 0.0
C705 C 0.81661 0.38724 0.91722 0.0
N706 N 0.81337 0.40821 0.91151 0.0
O707 O 0.84846 0.3613 0.94164 0.0
H708 H 0.8689 0.40172 0.91189 0.0
H709 H 0.80278 0.37539 0.91969 0.0
O710 O 0.88271 0.36947 0.92468 0.0
C711 C 0.83183 0.35028 0.94689 0.0
O712 O 0.8215 0.33398 0.94005 0.0
N713 N 0.85551 0.3463 0.90596 0.0
C714 C 0.84875 0.32895 0.88073 0.0
C715 C 0.87035 0.33809 0.88443 0.0
C716 C 0.87334 0.34702 0.89716 0.0
C717 C 0.8342 0.33887 0.9022 0.0
C718 C 0.83034 0.33044 0.88963 0.0
H719 H 0.88991 0.35395 0.89986 0.0
H720 H 0.82019 0.33879 0.90926 0.0
H721 H 0.89763 0.33227 0.93983 0.0
H722 H 0.8731 0.26946 0.92449 0.0
H723 H 0.83883 0.43227 0.90405 0.0
H724 H 0.88498 0.33747 0.87778 0.0
H725 H 0.81322 0.32424 0.8871 0.0
C726 C 0.93977 0.60378 0.17211 0.0
C727 C 0.95581 0.62086 0.17449 0.0
N728 N 0.94449 0.64044 0.1777 0.0
N729 N 0.91833 0.61243 0.17377 0.0
C730 C 0.92178 0.63475 0.1773 0.0
H731 H 0.94347 0.5863 0.169 0.0
Co732 Co 0.89083 0.59616 0.17044 0.0
C733 C 0.85615 0.63154 0.16318 0.0
O734 O 0.84595 0.61738 0.1549 0.0
N735 N 0.86288 0.57945 0.16734 0.0
C736 C 0.82663 0.56716 0.17031 0.0
C737 C 0.84412 0.58064 0.1753 0.0
C738 C 0.85617 0.56484 0.15761 0.0
N739 N 0.83424 0.55722 0.15917 0.0
O740 O 0.88509 0.59406 0.18881 0.0
H741 H 0.84287 0.59123 0.18403 0.0
H742 H 0.86659 0.5603 0.14921 0.0
O743 O 0.87409 0.62516 0.16953 0.0
C744 C 0.89559 0.57641 0.19327 0.0
O745 O 0.90947 0.56503 0.18533 0.0
N746 N 0.89823 0.59648 0.1526 0.0
C747 C 0.92176 0.59206 0.12877 0.0
C748 C 0.91199 0.61337 0.13248 0.0
C749 C 0.90035 0.61528 0.14455 0.0
C750 C 0.90747 0.57577 0.14907 0.0
C751 C 0.91843 0.57294 0.13704 0.0
H752 H 0.89473 0.63214 0.14778 0.0
H753 H 0.90688 0.56144 0.15592 0.0
H754 H 0.90794 0.64665 0.17951 0.0
H755 H 0.97436 0.61915 0.17345 0.0
H756 H 0.80962 0.56489 0.17458 0.0
H757 H 0.91468 0.62876 0.1266 0.0
H758 H 0.9253 0.55607 0.13458 0.0
C759 C 0.65574 0.70564 0.43341 0.0
C760 C 0.63869 0.72141 0.43651 0.0
N761 N 0.61816 0.71034 0.4368 0.0
N762 N 0.64612 0.68461 0.43175 0.0
C763 C 0.62327 0.68799 0.43414 0.0
H764 H 0.67379 0.70952 0.43168 0.0
Co765 Co 0.66092 0.65803 0.42479 0.0
C766 C 0.61783 0.64424 0.40981 0.0
O767 O 0.62556 0.65036 0.39816 0.0
N768 N 0.67526 0.63087 0.41803 0.0
C769 C 0.68167 0.59774 0.4075 0.0
C770 C 0.66588 0.61469 0.41002 0.0
C771 C 0.69703 0.62294 0.42031 0.0
N772 N 0.70133 0.60286 0.41391 0.0
O773 O 0.65854 0.6426 0.44128 0.0
H774 H 0.64878 0.61474 0.40595 0.0
H775 H 0.70956 0.63195 0.42634 0.0
O776 O 0.63071 0.6459 0.41997 0.0
C777 C 0.67247 0.65036 0.44991 0.0
O778 O 0.6837 0.66962 0.44742 0.0
N779 N 0.66577 0.67388 0.40865 0.0
C780 C 0.67843 0.69842 0.386 0.0
C781 C 0.65635 0.70114 0.3916 0.0
C782 C 0.65049 0.68897 0.40302 0.0
C783 C 0.68776 0.67242 0.40381 0.0
C784 C 0.69423 0.6839 0.39235 0.0
H785 H 0.63356 0.69162 0.40726 0.0
H786 H 0.70085 0.6628 0.40898 0.0
H787 H 0.61039 0.67451 0.43342 0.0
H788 H 0.64113 0.73986 0.43761 0.0
H789 H 0.67914 0.58316 0.40097 0.0
H790 H 0.64384 0.71295 0.3874 0.0
H791 H 0.7116 0.6815 0.38862 0.0
C792 C 0.45643 0.40206 0.16948 0.0
C793 C 0.47096 0.38345 0.17108 0.0
N794 N 0.45879 0.36397 0.16886 0.0
N795 N 0.43506 0.39448 0.16641 0.0
C796 C 0.43711 0.37114 0.16595 0.0
H797 H 0.46126 0.42002 0.17045 0.0
Co798 Co 0.40955 0.41386 0.16364 0.0
C799 C 0.3687 0.38348 0.16182 0.0
O800 O 0.35922 0.3973 0.15308 0.0
N801 N 0.38378 0.43399 0.16113 0.0
C802 C 0.35079 0.45223 0.16572 0.0
C803 C 0.3672 0.43724 0.17035 0.0
C804 C 0.37682 0.44748 0.15091 0.0
N805 N 0.35672 0.45861 0.15343 0.0
O806 O 0.40837 0.42041 0.18196 0.0
H807 H 0.3665 0.42855 0.17975 0.0
H808 H 0.38566 0.44861 0.14159 0.0
O809 O 0.38883 0.38791 0.16634 0.0
C810 C 0.41825 0.43941 0.18479 0.0
O811 O 0.42974 0.45025 0.17548 0.0
N812 N 0.41229 0.40865 0.1456 0.0
C813 C 0.42533 0.40592 0.11929 0.0
C814 C 0.41408 0.38725 0.12537 0.0
C815 C 0.40763 0.38896 0.13864 0.0
C816 C 0.42392 0.42648 0.1399 0.0
C817 C 0.43001 0.42577 0.12669 0.0
H818 H 0.40008 0.37406 0.14337 0.0
H819 H 0.42862 0.44135 0.14578 0.0
H820 H 0.423 0.35956 0.16363 0.0
H821 H 0.48919 0.38422 0.17349 0.0
H822 H 0.33553 0.45779 0.17101 0.0
H823 H 0.41106 0.37131 0.12005 0.0
H824 H 0.43954 0.44014 0.12249 0.0
C825 C 0.37387 0.68901 0.93523 0.0
C826 C 0.39201 0.70369 0.93791 0.0
N827 N 0.41144 0.69467 0.93271 0.0
N828 N 0.3817 0.67058 0.92846 0.0
C829 C 0.4047 0.67462 0.92698 0.0
H830 H 0.35603 0.69182 0.93795 0.0
Co831 Co 0.36313 0.64598 0.92251 0.0
C832 C 0.39568 0.6097 0.91439 0.0
O833 O 0.38279 0.60472 0.9041 0.0
N834 N 0.34415 0.62089 0.91671 0.0
C835 C 0.32784 0.58592 0.91684 0.0
C836 C 0.34304 0.60041 0.92313 0.0
C837 C 0.32926 0.61821 0.90646 0.0
N838 N 0.31916 0.5971 0.90633 0.0
O839 O 0.35758 0.63674 0.94022 0.0
H840 H 0.35304 0.59601 0.93178 0.0
H841 H 0.32558 0.63135 0.89922 0.0
O842 O 0.39001 0.62622 0.92203 0.0
C843 C 0.3381 0.64453 0.94397 0.0
O844 O 0.32663 0.65823 0.93596 0.0
N845 N 0.36682 0.65668 0.90539 0.0
C846 C 0.36494 0.68048 0.88158 0.0
C847 C 0.38474 0.66772 0.88502 0.0
C848 C 0.38547 0.65607 0.89713 0.0
C849 C 0.34787 0.66947 0.90232 0.0
C850 C 0.34624 0.68087 0.89035 0.0
H851 H 0.40125 0.64749 0.9 0.0
H852 H 0.33373 0.67058 0.90926 0.0
H853 H 0.41634 0.66305 0.92187 0.0
H854 H 0.39085 0.72005 0.94305 0.0
H855 H 0.32388 0.56831 0.91966 0.0
H856 H 0.39983 0.66756 0.87871 0.0
H857 H 0.33051 0.69025 0.88812 0.0
C858 C 0.08333 0.6027 0.70326 0.0
C859 C 0.07228 0.62315 0.70623 0.0
N860 N 0.0697 0.63553 0.69505 0.0
N861 N 0.0879 0.60208 0.69026 0.0
C862 C 0.0796 0.62239 0.68556 0.0
H863 H 0.08704 0.58886 0.7101 0.0
Co864 Co 0.09962 0.57699 0.68065 0.0
C865 C 0.13093 0.60064 0.66089 0.0
O866 O 0.12859 0.58547 0.65135 0.0
N867 N 0.11107 0.55141 0.67108 0.0
C868 C 0.11229 0.51728 0.66101 0.0
C869 C 0.09838 0.53296 0.6673 0.0
C870 C 0.13295 0.54596 0.66741 0.0
N871 N 0.13407 0.52549 0.661 0.0
O872 O 0.12331 0.57217 0.6934 0.0
H873 H 0.08017 0.53061 0.66912 0.0
H874 H 0.14781 0.55677 0.66946 0.0
O875 O 0.1199 0.59826 0.67168 0.0
C876 C 0.11874 0.55446 0.70034 0.0
O877 O 0.09859 0.5443 0.6987 0.0
N878 N 0.07541 0.58036 0.6686 0.0
C879 C 0.03904 0.57336 0.65126 0.0
C880 C 0.0573 0.5882 0.64791 0.0
C881 C 0.07533 0.59163 0.65679 0.0
C882 C 0.05653 0.56812 0.67258 0.0
C883 C 0.03827 0.56396 0.66394 0.0
H884 H 0.08904 0.60308 0.65396 0.0
H885 H 0.05654 0.56001 0.68219 0.0
H886 H 0.07984 0.62694 0.67524 0.0
H887 H 0.06622 0.62816 0.71589 0.0
H888 H 0.10663 0.50124 0.65658 0.0
H889 H 0.0582 0.59624 0.63828 0.0
H890 H 0.02409 0.55293 0.667 0.0
C891 C 0.15057 0.31068 0.43562 0.0
C892 C 0.13235 0.29546 0.43631 0.0
N893 N 0.11263 0.3071 0.43384 0.0
N894 N 0.14256 0.33199 0.43284 0.0
C895 C 0.1193 0.32929 0.43182 0.0
H896 H 0.16865 0.30623 0.43653 0.0
Co897 Co 0.16193 0.35718 0.42908 0.0
C898 C 0.13128 0.39392 0.41932 0.0
O899 O 0.1458 0.39941 0.40987 0.0
N900 N 0.18177 0.38274 0.42539 0.0
C901 C 0.19756 0.41782 0.42732 0.0
C902 C 0.18185 0.40253 0.4325 0.0
C903 C 0.1976 0.38676 0.41577 0.0
N904 N 0.20738 0.4079 0.41675 0.0
O905 O 0.16274 0.36531 0.44722 0.0
H906 H 0.17036 0.40619 0.44061 0.0
H907 H 0.20181 0.37484 0.40798 0.0
O908 O 0.13552 0.37697 0.42697 0.0
C909 C 0.17887 0.35544 0.45358 0.0
O910 O 0.19099 0.33936 0.44762 0.0
N911 N 0.16229 0.34773 0.41159 0.0
C912 C 0.16769 0.32495 0.38762 0.0
C913 C 0.14708 0.33683 0.3905 0.0
C914 C 0.1446 0.34793 0.40267 0.0
C915 C 0.18202 0.33574 0.40908 0.0
C916 C 0.18544 0.32497 0.39703 0.0
H917 H 0.1281 0.35553 0.40511 0.0
H918 H 0.19529 0.33466 0.41658 0.0
H919 H 0.1076 0.343 0.42898 0.0
H920 H 0.13365 0.27711 0.43825 0.0
H921 H 0.20069 0.4353 0.43068 0.0
H922 H 0.13259 0.33653 0.38375 0.0
H923 H 0.20169 0.3162 0.39529 0.0
C924 C 0.44532 0.59912 0.31726 0.0
C925 C 0.46016 0.61751 0.31568 0.0
N926 N 0.44755 0.63676 0.31351 0.0
N927 N 0.42334 0.60655 0.31609 0.0
C928 C 0.42525 0.62956 0.31376 0.0
H929 H 0.45022 0.58148 0.31945 0.0
Co930 Co 0.39687 0.58815 0.31863 0.0
C931 C 0.36338 0.62024 0.33074 0.0
O932 O 0.35615 0.60452 0.33914 0.0
N933 N 0.36968 0.5698 0.3211 0.0
C934 C 0.33337 0.5573 0.31836 0.0
C935 C 0.35016 0.57217 0.31384 0.0
C936 C 0.36394 0.55337 0.33008 0.0
N937 N 0.34209 0.54557 0.32864 0.0
O938 O 0.38905 0.59127 0.30046 0.0
H939 H 0.3478 0.58466 0.30604 0.0
H940 H 0.37507 0.54728 0.33782 0.0
O941 O 0.37934 0.61548 0.32254 0.0
C942 C 0.40225 0.58088 0.29239 0.0
O943 O 0.42099 0.5707 0.29684 0.0
N944 N 0.40611 0.5838 0.3361 0.0
C945 C 0.42659 0.57285 0.36039 0.0
C946 C 0.4187 0.59548 0.35757 0.0
C947 C 0.40855 0.60056 0.34541 0.0
C948 C 0.41507 0.56239 0.33819 0.0
C949 C 0.42408 0.55618 0.35039 0.0
H950 H 0.40393 0.61826 0.34328 0.0
H951 H 0.41463 0.54977 0.33033 0.0
H952 H 0.41054 0.64085 0.3124 0.0
H953 H 0.4788 0.61679 0.31655 0.0
H954 H 0.31581 0.556 0.31473 0.0
H955 H 0.42119 0.60971 0.36429 0.0
H956 H 0.42934 0.53843 0.3516 0.0
C957 C 0.15157 0.68002 0.04749 0.0
C958 C 0.13523 0.69624 0.04386 0.0
N959 N 0.1156 0.69177 0.05052 0.0
N960 N 0.14221 0.66521 0.0563 0.0
C961 C 0.12029 0.67299 0.05792 0.0
H962 H 0.16903 0.67914 0.04376 0.0
Co963 Co 0.15452 0.63852 0.06443 0.0
C964 C 0.11999 0.60551 0.05396 0.0
O965 O 0.13549 0.5912 0.04918 0.0
N966 N 0.16612 0.61198 0.07269 0.0
C967 C 0.16857 0.57958 0.08439 0.0
C968 C 0.15375 0.59534 0.07882 0.0
C969 C 0.18845 0.60617 0.07493 0.0
N970 N 0.19043 0.5864 0.08194 0.0
O971 O 0.16755 0.62853 0.04821 0.0
H972 H 0.13511 0.595 0.07961 0.0
H973 H 0.203 0.6164 0.07167 0.0
O974 O 0.12612 0.62338 0.06036 0.0
C975 C 0.18816 0.63595 0.04705 0.0
O976 O 0.19609 0.65037 0.05599 0.0
N977 N 0.14383 0.64864 0.08062 0.0
C978 C 0.13588 0.66649 0.10556 0.0
C979 C 0.11858 0.65378 0.09911 0.0
C980 C 0.12307 0.64454 0.08663 0.0
C981 C 0.16075 0.66081 0.0868 0.0
C982 C 0.15722 0.66976 0.09932 0.0
H983 H 0.10982 0.63445 0.08179 0.0
H984 H 0.17713 0.66353 0.08189 0.0
H985 H 0.10762 0.66464 0.06413 0.0
H986 H 0.13765 0.7103 0.03696 0.0
H987 H 0.16358 0.56477 0.09025 0.0
H988 H 0.10186 0.65107 0.10368 0.0
H989 H 0.17084 0.67981 0.10391 0.0
C990 C 0.06221 0.4245 0.80188 0.0
C991 C 0.04916 0.40566 0.79816 0.0
N992 N 0.05572 0.38727 0.80542 0.0
N993 N 0.07729 0.41816 0.81134 0.0
C994 C 0.0729 0.39532 0.81325 0.0
H995 H 0.05969 0.44202 0.79849 0.0
Co996 Co 0.09525 0.4386 0.82169 0.0
C997 C 0.11687 0.40519 0.84108 0.0
O998 O 0.11421 0.4175 0.85181 0.0
N999 N 0.1132 0.45927 0.83248 0.0
C1000 C 0.12463 0.48011 0.84981 0.0
C1001 C 0.1088 0.46458 0.84524 0.0
C1002 C 0.13237 0.47203 0.82966 0.0
N1003 N 0.13947 0.48493 0.84004 0.0
O1004 O 0.1195 0.43785 0.809 0.0
H1005 H 0.09513 0.45742 0.85122 0.0
H1006 H 0.14089 0.47216 0.8202 0.0
O1007 O 0.10955 0.41256 0.83003 0.0
C1008 C 0.11631 0.4516 0.79941 0.0
O1009 O 0.09756 0.4644 0.79923 0.0
N1010 N 0.07072 0.4404 0.83341 0.0
C1011 C 0.03828 0.4515 0.85257 0.0
C1012 C 0.0464 0.42864 0.85117 0.0
C1013 C 0.06282 0.42346 0.84156 0.0
C1014 C 0.06069 0.46169 0.83334 0.0
C1015 C 0.04495 0.46787 0.84308 0.0
H1016 H 0.0696 0.40611 0.84096 0.0
H1017 H 0.06659 0.47458 0.82638 0.0
H1018 H 0.08136 0.38495 0.82068 0.0
H1019 H 0.03488 0.40594 0.79127 0.0
H1020 H 0.1255 0.48692 0.85973 0.0
H1021 H 0.0407 0.41492 0.85766 0.0
H1022 H 0.03924 0.48565 0.84351 0.0
C1023 C 0.35148 0.31035 0.56409 0.0
C1024 C 0.3686 0.29401 0.56289 0.0
N1025 N 0.38941 0.30454 0.5638 0.0
N1026 N 0.36114 0.33135 0.5656 0.0
C1027 C 0.38426 0.32728 0.56538 0.0
H1028 H 0.33307 0.30703 0.56426 0.0
Co1029 Co 0.34441 0.35855 0.56925 0.0
C1030 C 0.37839 0.38871 0.5824 0.0
O1031 O 0.36381 0.39433 0.5918 0.0
N1032 N 0.32781 0.38642 0.57287 0.0
C1033 C 0.31964 0.42416 0.57238 0.0
C1034 C 0.33364 0.40702 0.5675 0.0
C1035 C 0.30996 0.39176 0.58102 0.0
N1036 N 0.30476 0.41454 0.58095 0.0
O1037 O 0.34781 0.36872 0.5515 0.0
H1038 H 0.34792 0.40968 0.56079 0.0
H1039 H 0.30133 0.37963 0.58736 0.0
O1040 O 0.37263 0.3742 0.57356 0.0
C1041 C 0.33495 0.35881 0.54307 0.0
O1042 O 0.32335 0.34032 0.54665 0.0
N1043 N 0.33953 0.34748 0.58624 0.0
C1044 C 0.32614 0.32571 0.60968 0.0
C1045 C 0.34941 0.33217 0.60743 0.0
C1046 C 0.35574 0.34306 0.59566 0.0
C1047 C 0.31752 0.3397 0.58774 0.0
C1048 C 0.31014 0.33011 0.59956 0.0
H1049 H 0.37376 0.34688 0.5939 0.0
H1050 H 0.30535 0.34157 0.57971 0.0
H1051 H 0.39702 0.34067 0.56685 0.0
H1052 H 0.36564 0.27568 0.56172 0.0
H1053 H 0.32066 0.44233 0.56991 0.0
H1054 H 0.36303 0.32811 0.61434 0.0
H1055 H 0.29199 0.32599 0.60043 0.0
H1056 H 0.18828 0.28277 0.38548 0.0
H1057 H 0.19048 0.25795 0.36638 0.0
H1058 H 0.15313 0.30825 0.34334 0.0
H1059 H 0.15155 0.33407 0.36254 0.0
H1060 H 0.13383 0.26341 0.34379 0.0
H1061 H 0.22657 0.2585 0.33156 0.0
H1062 H 0.22223 0.25669 0.34902 0.0
H1063 H 0.21413 0.28267 0.34036 0.0
C1064 C 0.18124 0.28912 0.37628 0.0
C1065 C 0.16998 0.31064 0.37555 0.0
C1066 C 0.18255 0.27483 0.36533 0.0
C1067 C 0.17252 0.28153 0.35337 0.0
C1068 C 0.16135 0.30301 0.35245 0.0
H1069 H 0.13899 0.1577 0.30759 0.0
H1070 H 0.1466 0.19915 0.30936 0.0
C1071 C 0.16025 0.31758 0.36346 0.0
C1072 C 0.17099 0.26424 0.34273 0.0
H1073 H 0.2044 0.22261 0.32858 0.0
C1074 C 0.14914 0.25489 0.33997 0.0
C1075 C 0.19102 0.25338 0.33773 0.0
C1076 C 0.21479 0.26352 0.33971 0.0
C1077 C 0.14697 0.23331 0.33383 0.0
C1078 C 0.16726 0.22119 0.33016 0.0
C1079 C 0.18892 0.23184 0.33155 0.0
C1080 C 0.16657 0.19619 0.32729 0.0
C1081 C 0.12317 0.22268 0.33257 0.0
C1082 C 0.17653 0.18075 0.33635 0.0
C1083 C 0.17246 0.15706 0.33531 0.0
C1084 C 0.15822 0.14853 0.32524 0.0
C1085 C 0.14973 0.16386 0.3156 0.0
C1086 C 0.15401 0.18754 0.31658 0.0
H1087 H 0.1096 0.23327 0.33741 0.0
H1088 H 0.1186 0.22102 0.322 0.0
H1089 H 0.12291 0.20511 0.33698 0.0
H1090 H 0.18634 0.18716 0.34469 0.0
H1091 H 0.1793 0.14567 0.34284 0.0
H1092 H 0.96205 0.8903 0.61901 0.0
H1093 H 0.98599 0.90605 0.6013 0.0
H1094 H 0.99317 0.97013 0.62267 0.0
H1095 H 0.96968 0.95413 0.64061 0.0
H1096 H 0.98523 0.9463 0.58483 0.0
H1097 H 0.05944 0.94742 0.62013 0.0
H1098 H 0.03268 0.93345 0.62454 0.0
H1099 H 0.03416 0.96443 0.62355 0.0
C1100 C 0.96856 0.9078 0.61985 0.0
C1101 C 0.96455 0.92081 0.63126 0.0
C1102 C 0.98205 0.91688 0.60971 0.0
C1103 C 0.99153 0.93919 0.61074 0.0
C1104 C 0.98633 0.95277 0.62178 0.0
H1105 H 0.11678 0.91445 0.57163 0.0
H1106 H 0.08962 0.94591 0.57607 0.0
C1107 C 0.97308 0.94356 0.63203 0.0
C1108 C 0.00926 0.94629 0.60108 0.0
H1109 H 0.06765 0.94225 0.59803 0.0
C1110 C 1.00333 0.9463 0.58766 0.0
C1111 C 0.03286 0.94726 0.60475 0.0
C1112 C 0.04034 0.94814 0.619 0.0
C1113 C 0.02034 0.94345 0.57797 0.0
C1114 C 0.04351 0.93992 0.5819 0.0
C1115 C 0.04976 0.94433 0.59503 0.0
C1116 C 0.05905 0.92448 0.57436 0.0
C1117 C 0.01308 0.94183 0.56374 0.0
C1118 C 0.05089 0.90227 0.57123 0.0
C1119 C 0.06631 0.88428 0.56895 0.0
C1120 C 0.09023 0.88808 0.56984 0.0
C1121 C 0.09843 0.91084 0.57134 0.0
C1122 C 0.08291 0.92892 0.57368 0.0
H1123 H 1.00004 0.95536 0.56147 0.0
H1124 H 0.02802 0.94381 0.55695 0.0
H1125 H 0.00474 0.92482 0.56196 0.0
H1126 H 0.03266 0.89811 0.57194 0.0
H1127 H 0.05938 0.86706 0.56751 0.0
H1128 H 0.3469 0.72364 0.87919 0.0
H1129 H 0.34374 0.74722 0.85955 0.0
H1130 H 0.37905 0.69499 0.83694 0.0
H1131 H 0.38145 0.67033 0.85671 0.0
H1132 H 0.39643 0.74505 0.8366 0.0
H1133 H 0.30346 0.73601 0.82495 0.0
H1134 H 0.30899 0.7379 0.84233 0.0
H1135 H 0.31996 0.71364 0.83317 0.0
C1136 C 0.35351 0.71674 0.87002 0.0
C1137 C 0.36402 0.69485 0.86948 0.0
C1138 C 0.35171 0.73031 0.85879 0.0
C1139 C 0.36062 0.72253 0.84678 0.0
C1140 C 0.3717 0.701 0.84613 0.0
H1141 H 0.3722 0.85113 0.80166 0.0
H1142 H 0.37372 0.80876 0.80257 0.0
C1143 C 0.37325 0.68711 0.85743 0.0
C1144 C 0.35988 0.73851 0.8355 0.0
H1145 H 0.32048 0.77399 0.82093 0.0
C1146 C 0.38004 0.75096 0.83263 0.0
C1147 C 0.33846 0.74591 0.83032 0.0
C1148 C 0.3165 0.73251 0.83275 0.0
C1149 C 0.37883 0.77251 0.82633 0.0
C1150 C 0.35691 0.7813 0.82262 0.0
C1151 C 0.33722 0.76729 0.8239 0.0
C1152 C 0.35343 0.8063 0.82044 0.0
C1153 C 0.40061 0.78672 0.82502 0.0
C1154 C 0.34067 0.8188 0.82981 0.0
C1155 C 0.33989 0.84284 0.82929 0.0
C1156 C 0.35205 0.85475 0.81947 0.0
C1157 C 0.36361 0.84225 0.80962 0.0
C1158 C 0.36427 0.81811 0.81007 0.0
H1159 H 0.41591 0.77803 0.8294 0.0
H1160 H 0.40416 0.78975 0.81444 0.0
H1161 H 0.3984 0.80381 0.82983 0.0
H1162 H 0.33219 0.81001 0.8379 0.0
H1163 H 0.33073 0.85211 0.83695 0.0
H1164 H 0.40762 0.09787 0.10182 0.0
H1165 H 0.44982 0.0976 0.10196 0.0
H1166 H 0.45064 0.11618 0.06078 0.0
H1167 H 0.40832 0.11736 0.06072 0.0
H1168 H 0.48159 0.07374 0.08883 0.0
H1169 H 0.48956 0.16704 0.07612 0.0
H1170 H 0.46219 0.1539 0.08016 0.0
H1171 H 0.47488 0.14943 0.06421 0.0
C1172 C 0.41677 0.10162 0.09276 0.0
C1173 C 0.40474 0.10784 0.0813 0.0
C1174 C 0.44088 0.10152 0.09284 0.0
C1175 C 0.45337 0.10737 0.08144 0.0
C1176 C 0.44137 0.11227 0.06977 0.0
H1177 H 0.59936 0.08795 0.10055 0.0
H1178 H 0.56732 0.0892 0.08471 0.0
C1179 C 0.41722 0.11273 0.06973 0.0
C1180 C 0.4789 0.10888 0.08213 0.0
H1181 H 0.52375 0.14729 0.08136 0.0
C1182 C 0.49095 0.0897 0.08702 0.0
C1183 C 0.49094 0.12978 0.0797 0.0
C1184 C 0.47878 0.15129 0.07485 0.0
C1185 C 0.51429 0.09126 0.09058 0.0
C1186 C 0.52624 0.1124 0.08859 0.0
C1187 C 0.51461 0.13109 0.08275 0.0
C1188 C 0.54907 0.11664 0.0948 0.0
C1189 C 0.5252 0.07083 0.0975 0.0
C1190 C 0.55067 0.13341 0.10476 0.0
C1191 C 0.56929 0.13326 0.11348 0.0
C1192 C 0.58637 0.11614 0.11246 0.0
C1193 C 0.58626 0.10122 0.10154 0.0
C1194 C 0.56786 0.10176 0.0926 0.0
H1195 H 0.51222 0.05757 0.10036 0.0
H1196 H 0.53786 0.06247 0.09082 0.0
H1197 H 0.53445 0.07645 0.10653 0.0
H1198 H 0.53648 0.1452 0.10659 0.0
H1199 H 0.56892 0.14484 0.12187 0.0
H1200 H 0.16128 0.66368 0.12807 0.0
H1201 H 0.16084 0.69147 0.14625 0.0
H1202 H 0.10171 0.72527 0.1288 0.0
H1203 H 0.1017 0.69708 0.11094 0.0
H1204 H 0.17077 0.73389 0.14132 0.0
H1205 H 0.08731 0.73379 0.16685 0.0
H1206 H 0.09555 0.71047 0.15605 0.0
H1207 H 0.08144 0.73591 0.14957 0.0
C1208 C 0.14761 0.67648 0.12848 0.0
C1209 C 0.13156 0.6784 0.11815 0.0
C1210 C 0.14739 0.69235 0.13883 0.0
C1211 C 0.13125 0.71047 0.13892 0.0
C1212 C 0.11402 0.71117 0.12915 0.0
H1213 H 0.14989 0.8521 0.14558 0.0
H1214 H 0.15216 0.81069 0.14132 0.0
C1215 C 0.11404 0.6951 0.1189 0.0
C1216 C 0.13508 0.73095 0.14741 0.0
H1217 H 0.10593 0.77239 0.1645 0.0
C1218 C 0.15674 0.74196 0.14671 0.0
C1219 C 0.11705 0.74139 0.15468 0.0
C1220 C 0.09415 0.72955 0.15692 0.0
C1221 C 0.1602 0.76396 0.15209 0.0
C1222 C 0.14132 0.77553 0.15795 0.0
C1223 C 0.12029 0.76373 0.15971 0.0
C1224 C 0.14226 0.80048 0.16107 0.0
C1225 C 0.18386 0.77484 0.15104 0.0
C1226 C 0.13572 0.80852 0.17355 0.0
C1227 C 0.13412 0.83221 0.17595 0.0
C1228 C 0.13896 0.84825 0.16589 0.0
C1229 C 0.14628 0.84018 0.15355 0.0
C1230 C 0.1477 0.8165 0.15113 0.0
H1231 H 0.19763 0.76144 0.15117 0.0
H1232 H 0.18523 0.78424 0.14154 0.0
H1233 H 0.1871 0.78722 0.1592 0.0
H1234 H 0.13136 0.79645 0.18133 0.0
H1235 H 0.12857 0.83795 0.1856 0.0
H1236 H 0.564 0.87384 0.38143 0.0
H1237 H 0.53892 0.87838 0.4004 0.0
H1238 H 0.57916 0.93719 0.4132 0.0
H1239 H 0.603 0.93387 0.39327 0.0
H1240 H 0.53437 0.88181 0.42523 0.0
H1241 H 0.52252 0.97081 0.40489 0.0
H1242 H 0.54129 0.95044 0.39695 0.0
H1243 H 0.55 0.96418 0.4121 0.0
C1244 C 0.568 0.88721 0.38856 0.0
C1245 C 0.58507 0.90371 0.38588 0.0
C1246 C 0.55364 0.88986 0.39945 0.0
C1247 C 0.55641 0.90885 0.40796 0.0
C1248 C 0.57594 0.92312 0.40643 0.0
H1249 H 0.41552 0.90736 0.44031 0.0
H1250 H 0.45727 0.91236 0.44357 0.0
C1251 C 0.58982 0.92099 0.3952 0.0
C1252 C 0.53645 0.91555 0.41639 0.0
H1253 H 0.49264 0.95513 0.41681 0.0
C1254 C 0.52539 0.89804 0.42365 0.0
C1255 C 0.52488 0.93699 0.41455 0.0
C1256 C 0.53514 0.95667 0.40667 0.0
C1257 C 0.50196 0.89981 0.42715 0.0
C1258 C 0.48982 0.92039 0.42408 0.0
C1259 C 0.50198 0.93926 0.41887 0.0
C1260 C 0.46422 0.92099 0.42319 0.0
C1261 C 0.48993 0.87875 0.43269 0.0
C1262 C 0.45406 0.92572 0.41089 0.0
C1263 C 0.43028 0.92365 0.40913 0.0
C1264 C 0.4162 0.91638 0.41956 0.0
C1265 C 0.42611 0.91278 0.43206 0.0
C1266 C 0.44995 0.91541 0.43391 0.0
H1267 H 0.50128 0.86325 0.43273 0.0
H1268 H 0.48462 0.88221 0.443 0.0
H1269 H 0.47418 0.87462 0.42689 0.0
H1270 H 0.46467 0.93004 0.40244 0.0
H1271 H 0.42317 0.92645 0.39938 0.0
H1272 H 0.35298 0.14041 0.66694 0.0
H1273 H 0.32428 0.1716 0.6678 0.0
H1274 H 0.37607 0.22021 0.6548 0.0
H1275 H 0.40471 0.1893 0.6538 0.0
H1276 H 0.33818 0.23477 0.6767 0.0
H1277 H 0.30799 0.19803 0.62889 0.0
H1278 H 0.31206 0.18007 0.64322 0.0
H1279 H 0.33674 0.19118 0.63458 0.0
C1280 C 0.35833 0.15784 0.66451 0.0
C1281 C 0.38094 0.16243 0.66006 0.0
C1282 C 0.34198 0.17559 0.66512 0.0
C1283 C 0.34821 0.19808 0.66145 0.0
C1284 C 0.3711 0.20291 0.65781 0.0
H1285 H 0.34842 0.32294 0.63391 0.0
H1286 H 0.3432 0.29337 0.6503 0.0
C1287 C 0.38734 0.18522 0.65706 0.0
C1288 C 0.33065 0.21588 0.65893 0.0
H1289 H 0.30385 0.23773 0.63202 0.0
C1290 C 0.32982 0.23533 0.66714 0.0
C1291 C 0.31914 0.21619 0.6467 0.0
C1292 C 0.31884 0.19528 0.63779 0.0
C1293 C 0.32009 0.25612 0.66265 0.0
C1294 C 0.31226 0.25756 0.64946 0.0
C1295 C 0.31019 0.23709 0.64206 0.0
C1296 C 0.3113 0.27978 0.64209 0.0
C1297 C 0.3194 0.27649 0.67189 0.0
C1298 C 0.29499 0.28275 0.63201 0.0
C1299 C 0.29911 0.29839 0.62183 0.0
C1300 C 0.31916 0.3124 0.62177 0.0
C1301 C 0.33353 0.31174 0.63298 0.0
C1302 C 0.33004 0.29522 0.6428 0.0
H1303 H 0.31363 0.27079 0.68182 0.0
H1304 H 0.3371 0.28367 0.67304 0.0
H1305 H 0.30759 0.29028 0.66834 0.0
H1306 H 0.28016 0.27135 0.63129 0.0
H1307 H 0.28717 0.29791 0.61366 0.0
H1308 H 0.10932 0.09807 0.93126 0.0
H1309 H 0.06754 0.09171 0.93188 0.0
H1310 H 0.06921 0.07086 0.89105 0.0
H1311 H 0.11089 0.07588 0.89067 0.0
H1312 H 0.04138 0.11796 0.91954 0.0
H1313 H 0.01729 0.03202 0.9021 0.0
H1314 H 0.0462 0.03794 0.90797 0.0
H1315 H 0.03876 0.04219 0.89083 0.0
C1316 C 0.10081 0.09113 0.92261 0.0
C1317 C 0.11322 0.08761 0.91088 0.0
C1318 C 0.07694 0.0875 0.92297 0.0
C1319 C 0.06507 0.0807 0.91155 0.0
C1320 C 0.07785 0.0754 0.90014 0.0
H1321 H 0.98007 0.14609 0.86508 0.0
H1322 H 1.00393 0.13487 0.88381 0.0
C1323 C 0.10177 0.07851 0.89987 0.0
C1324 C 0.03969 0.08416 0.91047 0.0
H1325 H 0.99423 0.06494 0.89217 0.0
C1326 C 0.03078 0.1059 0.91401 0.0
C1327 C 0.02526 0.0684 0.90369 0.0
C1328 C 0.03241 0.04375 0.90111 0.0
C1329 C 0.00934 0.11342 0.90926 0.0
C1330 C 0.99693 0.09918 0.90047 0.0
C1331 C 0.00413 0.07624 0.89857 0.0
C1332 C 0.97994 0.10904 0.89113 0.0
C1333 C 1.00103 0.13723 0.91292 0.0
C1334 C 0.95835 0.09855 0.88911 0.0
C1335 C 0.94468 0.10499 0.87834 0.0
C1336 C 0.95266 0.12173 0.86937 0.0
C1337 C 0.97357 0.13319 0.87188 0.0
C1338 C 0.98709 0.12689 0.88266 0.0
H1339 H 0.00566 0.14119 0.9233 0.0
H1340 H 0.00976 0.15015 0.90654 0.0
H1341 H 0.98202 0.13899 0.91172 0.0
H1342 H 0.95264 0.0846 0.89545 0.0
H1343 H 0.92873 0.0957 0.87651 0.0
H1344 H 0.8405 0.6697 0.62542 0.0
H1345 H 0.83815 0.69622 0.64423 0.0
H1346 H 0.81569 0.75083 0.61831 0.0
H1347 H 0.8191 0.72535 0.59959 0.0
H1348 H 0.86519 0.73777 0.64449 0.0
H1349 H 0.77246 0.75773 0.65053 0.0
H1350 H 0.78264 0.73128 0.643 0.0
H1351 H 0.78084 0.75754 0.63351 0.0
C1352 C 0.83492 0.68731 0.62373 0.0
C1353 C 0.82999 0.69525 0.61089 0.0
C1354 C 0.83331 0.70232 0.63452 0.0
C1355 C 0.82625 0.72529 0.63267 0.0
C1356 C 0.82046 0.73295 0.62001 0.0
H1357 H 0.83626 0.86214 0.64508 0.0
H1358 H 0.82456 0.82206 0.64171 0.0
C1359 C 0.82242 0.71821 0.60926 0.0
C1360 C 0.82839 0.74267 0.64325 0.0
H1361 H 0.79934 0.78918 0.65549 0.0
C1362 C 0.85076 0.74863 0.64736 0.0
C1363 C 0.80947 0.75666 0.64696 0.0
C1364 C 0.78497 0.75033 0.64337 0.0
C1365 C 0.85508 0.76973 0.65369 0.0
C1366 C 0.83634 0.78484 0.65626 0.0
C1367 C 0.81368 0.77767 0.6534 0.0
C1368 C 0.84028 0.80938 0.65969 0.0
C1369 C 0.87987 0.77659 0.65637 0.0
C1370 C 0.85227 0.81566 0.67114 0.0
C1371 C 0.85931 0.83853 0.67298 0.0
C1372 C 0.85411 0.85551 0.66349 0.0
C1373 C 0.84063 0.84946 0.65253 0.0
C1374 C 0.83385 0.82656 0.65062 0.0
H1375 H 0.89243 0.76431 0.65195 0.0
H1376 H 0.88346 0.79413 0.65242 0.0
H1377 H 0.88291 0.77694 0.66716 0.0
H1378 H 0.85693 0.80275 0.6784 0.0
H1379 H 0.86942 0.84276 0.68164 0.0
H1380 H 0.07362 0.08492 0.37585 0.0
H1381 H 0.04895 0.08131 0.39541 0.0
H1382 H 0.99532 0.11989 0.37564 0.0
H1383 H 0.02002 0.1243 0.35636 0.0
H1384 H 1.004 0.13354 0.40207 0.0
H1385 H 0.99166 0.03832 0.39697 0.0
H1386 H 0.02051 0.04995 0.39802 0.0
H1387 H 1.00331 0.05536 0.38364 0.0
C1388 C 0.0567 0.09295 0.37578 0.0
C1389 C 0.04867 0.10485 0.36456 0.0
C1390 C 0.0426 0.09066 0.3869 0.0
C1391 C 0.02032 0.10017 0.38689 0.0
C1392 C 0.01252 0.11243 0.37582 0.0
H1393 H 0.88868 0.0872 0.39773 0.0
H1394 H 0.92982 0.07908 0.39662 0.0
C1395 C 0.02655 0.11478 0.36477 0.0
C1396 C 0.0043 0.0971 0.39806 0.0
H1397 H 0.96444 0.05859 0.40945 0.0
C1398 C 0.99566 0.1171 0.40407 0.0
C1399 C 0.99388 0.0755 0.40071 0.0
C1400 C 1.00267 0.05347 0.39452 0.0
C1401 C 0.97493 0.11666 0.41119 0.0
C1402 C 0.96307 0.09534 0.41266 0.0
C1403 C 0.97352 0.07487 0.4082 0.0
C1404 C 0.93795 0.09486 0.41543 0.0
C1405 C 0.96471 0.13942 0.41562 0.0
C1406 C 0.92858 0.1052 0.42673 0.0
C1407 C 0.90502 0.11054 0.42719 0.0
C1408 C 0.89053 0.10483 0.41654 0.0
C1409 C 0.89947 0.09196 0.40602 0.0
C1410 C 0.92303 0.08719 0.40542 0.0
H1411 H 0.97518 0.15449 0.41237 0.0
H1412 H 0.94692 0.14152 0.41168 0.0
H1413 H 0.96382 0.13985 0.42653 0.0
H1414 H 0.93967 0.11056 0.43476 0.0
H1415 H 0.89837 0.12009 0.43554 0.0
H1416 H 0.63787 0.15441 0.18867 0.0
H1417 H 0.63642 0.19669 0.18863 0.0
H1418 H 0.68243 0.19809 0.15519 0.0
H1419 H 0.68477 0.15616 0.15553 0.0
H1420 H 0.68548 0.23794 0.16946 0.0
H1421 H 0.59422 0.21425 0.15845 0.0
H1422 H 0.60365 0.20806 0.17495 0.0
H1423 H 0.616 0.1928 0.16119 0.0
C1424 C 0.64843 0.16382 0.18167 0.0
C1425 C 0.66088 0.15203 0.17185 0.0
C1426 C 0.64757 0.18796 0.18166 0.0
C1427 C 0.65865 0.20043 0.17162 0.0
C1428 C 0.67356 0.18879 0.16296 0.0
H1429 H 0.62326 0.27606 0.10998 0.0
H1430 H 0.62703 0.25201 0.12948 0.0
C1431 C 0.6748 0.16473 0.16313 0.0
C1432 C 0.65106 0.22406 0.16806 0.0
H1433 H 0.60587 0.25118 0.15298 0.0
C1434 C 0.66793 0.24121 0.16618 0.0
C1435 C 0.62811 0.22809 0.16371 0.0
C1436 C 0.60946 0.20983 0.16458 0.0
C1437 C 0.66305 0.26125 0.15886 0.0
C1438 C 0.6405 0.26443 0.15374 0.0
C1439 C 0.62306 0.24861 0.15699 0.0
C1440 C 0.63596 0.28025 0.14256 0.0
C1441 C 0.68257 0.2776 0.15558 0.0
C1442 C 0.639 0.30428 0.14349 0.0
C1443 C 0.63713 0.31811 0.1322 0.0
C1444 C 0.6321 0.30802 0.11991 0.0
C1445 C 0.62758 0.28422 0.11926 0.0
C1446 C 0.62959 0.2705 0.13043 0.0
H1447 H 0.69954 0.27128 0.15926 0.0
H1448 H 0.68382 0.28005 0.14475 0.0
H1449 H 0.67913 0.2947 0.16011 0.0
H1450 H 0.64343 0.3122 0.15281 0.0
H1451 H 0.64067 0.33645 0.13296 0.0
H1452 H 0.5797 0.87067 0.89455 0.0
H1453 H 0.54287 0.89084 0.89648 0.0
H1454 H 0.5744 0.94188 0.92173 0.0
H1455 H 0.61163 0.92119 0.92008 0.0
H1456 H 0.51704 0.91295 0.92344 0.0
H1457 H 0.54784 0.96971 0.88297 0.0
H1458 H 0.56118 0.94162 0.88384 0.0
H1459 H 0.56569 0.96201 0.89693 0.0
C1460 C 0.57872 0.88596 0.90069 0.0
C1461 C 0.5984 0.89461 0.90703 0.0
C1462 C 0.55769 0.89733 0.90188 0.0
C1463 C 0.55606 0.91773 0.90927 0.0
C1464 C 0.57542 0.92601 0.91611 0.0
H1465 H 0.44412 0.95135 0.86043 0.0
H1466 H 0.46689 0.96422 0.87945 0.0
C1467 C 0.59655 0.91428 0.91511 0.0
C1468 C 0.53467 0.93123 0.90792 0.0
H1469 H 0.50874 0.95609 0.88153 0.0
C1470 C 0.515 0.92342 0.91465 0.0
C1471 C 0.53206 0.94558 0.89679 0.0
C1472 C 0.5528 0.95545 0.88973 0.0
C1473 C 0.49293 0.92628 0.90915 0.0
C1474 C 0.49094 0.93623 0.89646 0.0
C1475 C 0.51015 0.94776 0.89107 0.0
C1476 C 0.47191 0.92977 0.88733 0.0
C1477 C 0.4723 0.91687 0.91647 0.0
C1478 C 0.4665 0.9062 0.88559 0.0
C1479 C 0.45325 0.89895 0.87487 0.0
C1480 C 0.44562 0.91506 0.86557 0.0
C1481 C 0.44994 0.93869 0.86757 0.0
C1482 C 0.46283 0.94602 0.87843 0.0
H1483 H 0.47365 0.92122 0.9271 0.0
H1484 H 0.45578 0.92386 0.91256 0.0
H1485 H 0.4721 0.89773 0.91571 0.0
H1486 H 0.47395 0.89313 0.89194 0.0
H1487 H 0.45024 0.88064 0.87339 0.0
H1488 H 0.848 0.16799 0.79272 0.0
H1489 H 0.83795 0.2081 0.79771 0.0
H1490 H 0.84788 0.19471 0.83909 0.0
H1491 H 0.85808 0.15468 0.83428 0.0
H1492 H 0.80468 0.23017 0.82191 0.0
H1493 H 0.89985 0.24419 0.82095 0.0
H1494 H 0.8856 0.22238 0.8111 0.0
H1495 H 0.89025 0.21757 0.82836 0.0
C1496 C 0.84735 0.17334 0.80293 0.0
C1497 C 0.85435 0.1583 0.81311 0.0
C1498 C 0.84163 0.19626 0.80572 0.0
C1499 C 0.8426 0.20421 0.81871 0.0
C1500 C 0.84724 0.18871 0.82899 0.0
H1501 H 0.82567 0.28855 0.87794 0.0
H1502 H 0.8214 0.26508 0.85843 0.0
C1503 C 0.85304 0.16587 0.82622 0.0
C1504 C 0.84188 0.22903 0.82164 0.0
H1505 H 0.87746 0.27083 0.83369 0.0
C1506 C 0.82051 0.23948 0.82411 0.0
C1507 C 0.8626 0.24126 0.82407 0.0
C1508 C 0.88593 0.23093 0.82089 0.0
C1509 C 0.81942 0.261 0.83041 0.0
C1510 C 0.8402 0.27169 0.83461 0.0
C1511 C 0.86152 0.26252 0.83061 0.0
C1512 C 0.84032 0.28834 0.84564 0.0
C1513 C 0.79602 0.27127 0.83334 0.0
C1514 C 0.85304 0.30903 0.84509 0.0
C1515 C 0.85562 0.32268 0.85641 0.0
C1516 C 0.84564 0.31564 0.86839 0.0
C1517 C 0.83295 0.29492 0.8688 0.0
C1518 C 0.83035 0.28148 0.85759 0.0
H1519 H 0.78368 0.26749 0.82522 0.0
H1520 H 0.78897 0.26328 0.84243 0.0
H1521 H 0.79704 0.29028 0.83476 0.0
H1522 H 0.86131 0.31434 0.836 0.0
H1523 H 0.86551 0.33855 0.85581 0.0
H1524 H 0.60844 0.05651 0.579 0.0
H1525 H 0.56965 0.04171 0.57444 0.0
H1526 H 0.54656 0.11109 0.56578 0.0
H1527 H 0.58553 0.12549 0.56932 0.0
H1528 H 0.53855 0.05211 0.59018 0.0
H1529 H 0.50406 0.07817 0.54218 0.0
H1530 H 0.53475 0.07852 0.54555 0.0
H1531 H 0.5169 0.10322 0.54948 0.0
C1532 C 0.5952 0.06843 0.57569 0.0
C1533 C 0.59977 0.0922 0.57482 0.0
C1534 C 0.57309 0.05995 0.57299 0.0
C1535 C 0.55504 0.07521 0.56974 0.0
C1536 C 0.56014 0.09876 0.56791 0.0
H1537 H 0.4398 0.11497 0.60312 0.0
H1538 H 0.4666 0.10704 0.58515 0.0
C1539 C 0.58242 0.10711 0.5702 0.0
C1540 C 0.53061 0.0679 0.57148 0.0
H1541 H 0.47588 0.08031 0.56096 0.0
C1542 C 0.52488 0.0574 0.58351 0.0
C1543 C 0.51266 0.07472 0.56282 0.0
C1544 C 0.51753 0.08405 0.54924 0.0
C1545 C 0.50198 0.05597 0.5878 0.0
C1546 C 0.48416 0.06502 0.57973 0.0
C1547 C 0.48958 0.07351 0.56715 0.0
C1548 C 0.46124 0.07 0.58549 0.0
C1549 C 0.49742 0.04699 0.60156 0.0
C1550 C 0.44775 0.05204 0.59072 0.0
C1551 C 0.43275 0.05652 0.6012 0.0
C1552 C 0.43074 0.07907 0.60623 0.0
C1553 C 0.44116 0.09745 0.59944 0.0
C1554 C 0.45643 0.09292 0.58912 0.0
H1555 H 0.51361 0.04297 0.607 0.0
H1556 H 0.48751 0.05989 0.60736 0.0
H1557 H 0.48701 0.0309 0.601 0.0
H1558 H 0.451 0.03428 0.58789 0.0
H1559 H 0.42461 0.04212 0.60622 0.0
H1560 H 0.72096 0.71723 0.37992 0.0
H1561 H 0.73081 0.74127 0.36098 0.0
H1562 H 0.66101 0.73436 0.34642 0.0
H1563 H 0.65153 0.70886 0.36467 0.0
H1564 H 0.69286 0.73689 0.32613 0.0
H1565 H 0.70913 0.80687 0.36297 0.0
H1566 H 0.72725 0.78166 0.36299 0.0
H1567 H 0.6976 0.77944 0.36819 0.0
C1568 C 0.70786 0.72022 0.37249 0.0
C1569 C 0.68524 0.71143 0.37398 0.0
C1570 C 0.71353 0.73417 0.36171 0.0
C1571 C 0.69654 0.74002 0.35244 0.0
C1572 C 0.67443 0.73011 0.35348 0.0
H1573 H 0.60847 0.81338 0.32463 0.0
H1574 H 0.63994 0.78561 0.32411 0.0
C1575 C 0.66888 0.71587 0.36407 0.0
C1576 C 0.69995 0.7589 0.3428 0.0
H1577 H 0.6947 0.81746 0.34263 0.0
C1578 C 0.69415 0.7546 0.32958 0.0
C1579 C 0.70249 0.78204 0.34713 0.0
C1580 C 0.70944 0.78795 0.36107 0.0
C1581 C 0.68686 0.77261 0.32133 0.0
C1582 C 0.68527 0.79517 0.32653 0.0
C1583 C 0.6954 0.79998 0.33879 0.0
C1584 C 0.66707 0.81129 0.32206 0.0
C1585 C 0.67843 0.76701 0.30766 0.0
C1586 C 0.6717 0.835 0.32071 0.0
C1587 C 0.65358 0.85099 0.32111 0.0
C1588 C 0.63072 0.8434 0.3231 0.0
C1589 C 0.62598 0.81965 0.32327 0.0
C1590 C 0.64399 0.80374 0.32272 0.0
H1591 H 0.68959 0.75359 0.30309 0.0
H1592 H 0.66064 0.75986 0.30824 0.0
H1593 H 0.67823 0.78258 0.30125 0.0
H1594 H 0.68938 0.8412 0.32039 0.0
H1595 H 0.65767 0.86926 0.32091 0.0
H1596 H 0.07355 0.90976 0.11794 0.0
H1597 H 0.04591 0.91543 0.1003 0.0
H1598 H 0.01242 0.96926 0.12269 0.0
H1599 H 0.03814 0.9618 0.14101 0.0
H1600 H 0.98275 0.94066 0.11699 0.0
H1601 H 0.02862 0.95449 0.07054 0.0
H1602 H 0.04163 0.92978 0.07809 0.0
H1603 H 0.0432 0.95759 0.08618 0.0
C1604 C 0.06035 0.92285 0.11917 0.0
C1605 C 0.05785 0.93477 0.13117 0.0
C1606 C 0.04488 0.92659 0.10884 0.0
C1607 C 0.02707 0.94297 0.11004 0.0
C1608 C 0.02599 0.95652 0.12148 0.0
H1609 H 0.89721 0.9116 0.06832 0.0
H1610 H 0.92797 0.93874 0.07457 0.0
C1611 C 0.04096 0.95227 0.13199 0.0
C1612 C 0.00706 0.94217 0.10086 0.0
H1613 H 0.9935 0.92883 0.06903 0.0
C1614 C 0.985 0.93913 0.10643 0.0
C1615 C 0.00968 0.94033 0.08703 0.0
C1616 C 0.03209 0.94602 0.08017 0.0
C1617 C 0.96629 0.93164 0.09883 0.0
C1618 C 0.96978 0.92692 0.08534 0.0
C1619 C 0.99106 0.93221 0.07945 0.0
C1620 C 0.95331 0.91202 0.07828 0.0
C1621 C 0.94351 0.92654 0.10552 0.0
C1622 C 0.9578 0.88823 0.07792 0.0
C1623 C 0.9403 0.87276 0.0746 0.0
C1624 C 0.91812 0.88092 0.07146 0.0
C1625 C 0.91418 0.90488 0.07074 0.0
C1626 C 0.93169 0.92039 0.07423 0.0
H1627 H 0.94364 0.93136 0.11611 0.0
H1628 H 0.9294 0.93622 0.10056 0.0
H1629 H 0.93947 0.90782 0.10471 0.0
H1630 H 0.97438 0.88153 0.08112 0.0
H1631 H 0.94386 0.85439 0.07506 0.0
H1632 H 0.72155 0.80246 0.87734 0.0
H1633 H 0.72963 0.76884 0.8636 0.0
H1634 H 0.66218 0.77535 0.84572 0.0
H1635 H 0.65447 0.80949 0.85895 0.0
H1636 H 0.70576 0.73192 0.86771 0.0
H1637 H 0.69705 0.75048 0.81506 0.0
H1638 H 0.70291 0.77309 0.82689 0.0
H1639 H 0.67353 0.76454 0.82323 0.0
C1640 C 0.70886 0.79735 0.87005 0.0
C1641 C 0.68722 0.80844 0.86932 0.0
C1642 C 0.71353 0.7781 0.86221 0.0
C1643 C 0.69665 0.76965 0.85352 0.0
C1644 C 0.67577 0.78182 0.85207 0.0
H1645 H 0.61591 0.66222 0.85196 0.0
H1646 H 0.64388 0.69313 0.85542 0.0
C1647 C 0.67115 0.80111 0.85984 0.0
C1648 C 0.6981 0.74576 0.84842 0.0
H1649 H 0.67731 0.71401 0.82278 0.0
C1650 C 0.70052 0.72791 0.85771 0.0
C1651 C 0.6919 0.74024 0.83532 0.0
C1652 C 0.6915 0.75819 0.82456 0.0
C1653 C 0.69342 0.70539 0.85477 0.0
C1654 C 0.68348 0.70087 0.84235 0.0
C1655 C 0.68438 0.71776 0.83245 0.0
C1656 C 0.6678 0.68109 0.84051 0.0
C1657 C 0.6946 0.68715 0.86537 0.0
C1658 C 0.67186 0.66442 0.83079 0.0
C1659 C 0.65584 0.64667 0.82879 0.0
C1660 C 0.63542 0.64567 0.83634 0.0
C1661 C 0.63145 0.66251 0.846 0.0
C1662 C 0.64751 0.68005 0.84806 0.0
H1663 H 0.70935 0.6904 0.87215 0.0
H1664 H 0.67846 0.68767 0.87128 0.0
H1665 H 0.69639 0.66959 0.86107 0.0
H1666 H 0.6873 0.66522 0.82477 0.0
H1667 H 0.65929 0.63394 0.82122 0.0
H1668 H 0.60811 0.41333 0.05567 0.0
H1669 H 0.56696 0.42172 0.05285 0.0
H1670 H 0.56141 0.43583 0.09447 0.0
H1671 H 0.60242 0.42779 0.09726 0.0
H1672 H 0.53675 0.39393 0.06367 0.0
H1673 H 0.51617 0.48165 0.08051 0.0
H1674 H 0.54522 0.47341 0.07593 0.0
H1675 H 0.53479 0.46855 0.09246 0.0
C1676 C 0.59823 0.41911 0.06411 0.0
C1677 C 0.6083 0.4196 0.07672 0.0
C1678 C 0.57475 0.42391 0.06247 0.0
C1679 C 0.56106 0.42941 0.07342 0.0
C1680 C 0.57166 0.43213 0.0858 0.0
H1681 H 0.45603 0.37366 0.11128 0.0
H1682 H 0.48422 0.37885 0.0938 0.0
C1683 C 0.59517 0.42747 0.08742 0.0
C1684 C 0.53554 0.42777 0.07264 0.0
H1685 H 0.48773 0.45138 0.08664 0.0
C1686 C 0.52582 0.40684 0.06828 0.0
C1687 C 0.52105 0.44475 0.07824 0.0
C1688 C 0.5299 0.46843 0.08189 0.0
C1689 C 0.50265 0.40134 0.07092 0.0
C1690 C 0.48913 0.41696 0.07836 0.0
C1691 C 0.49808 0.43905 0.08117 0.0
C1692 C 0.46808 0.40953 0.08561 0.0
C1693 C 0.4934 0.37834 0.06629 0.0
C1694 C 0.44894 0.42439 0.08659 0.0
C1695 C 0.43307 0.4217 0.09686 0.0
C1696 C 0.43593 0.40388 0.10613 0.0
C1697 C 0.4533 0.38734 0.10415 0.0
C1698 C 0.46941 0.39028 0.09406 0.0
H1699 H 0.5003 0.37414 0.05636 0.0
H1700 H 0.49939 0.36452 0.07308 0.0
H1701 H 0.47421 0.37813 0.0659 0.0
H1702 H 0.44749 0.43933 0.0802 0.0
H1703 H 0.41978 0.43467 0.09823 0.0
H1704 H 0.80648 0.17831 0.35671 0.0
H1705 H 0.80517 0.20771 0.33932 0.0
H1706 H 0.87264 0.23195 0.35128 0.0
H1707 H 0.87423 0.2025 0.36819 0.0
H1708 H 0.80207 0.25023 0.34451 0.0
H1709 H 0.87865 0.24376 0.31334 0.0
H1710 H 0.86924 0.21967 0.32333 0.0
H1711 H 0.88893 0.24111 0.32988 0.0
C1712 C 0.82136 0.18941 0.35524 0.0
C1713 C 0.84044 0.18816 0.36382 0.0
C1714 C 0.82062 0.20616 0.3453 0.0
C1715 C 0.83889 0.22199 0.34384 0.0
C1716 C 0.85862 0.21957 0.35182 0.0
H1717 H 0.84319 0.35892 0.35367 0.0
H1718 H 0.83128 0.31888 0.35135 0.0
C1719 C 0.85949 0.20271 0.36161 0.0
C1720 C 0.83582 0.24363 0.33617 0.0
H1721 H 0.86889 0.28414 0.3208 0.0
C1722 C 0.81635 0.25736 0.3389 0.0
C1723 C 0.8538 0.25292 0.32835 0.0
C1724 C 0.87364 0.23836 0.32345 0.0
C1725 C 0.81595 0.28089 0.33562 0.0
C1726 C 0.8359 0.29105 0.32999 0.0
C1727 C 0.85387 0.27666 0.32558 0.0
C1728 C 0.84019 0.31632 0.33064 0.0
C1729 C 0.79461 0.29476 0.33888 0.0
C1730 C 0.84979 0.32825 0.31989 0.0
C1731 C 0.8574 0.35105 0.32137 0.0
C1732 C 0.85524 0.36235 0.33355 0.0
C1733 C 0.84479 0.35075 0.34412 0.0
C1734 C 0.83769 0.32787 0.34274 0.0
H1735 H 0.77878 0.28436 0.33701 0.0
H1736 H 0.79471 0.29917 0.34951 0.0
H1737 H 0.7936 0.31094 0.33301 0.0
H1738 H 0.8521 0.31969 0.3105 0.0
H1739 H 0.86537 0.35968 0.31305 0.0
H1740 H 0.94401 0.63544 0.57307 0.0
H1741 H 0.9667 0.60324 0.5814 0.0
H1742 H 0.90914 0.55702 0.57501 0.0
H1743 H 0.88618 0.58936 0.56665 0.0
H1744 H 0.92219 0.55915 0.60052 0.0
H1745 H 1.00036 0.5448 0.57109 0.0
H1746 H 0.99542 0.57531 0.57208 0.0
H1747 H 0.9743 0.55707 0.56409 0.0
C1748 C 0.93639 0.61832 0.57308 0.0
C1749 C 0.91326 0.61498 0.56944 0.0
C1750 C 0.9495 0.5998 0.57764 0.0
C1751 C 0.9397 0.57763 0.57864 0.0
C1752 C 0.91709 0.57391 0.57412 0.0
H1753 H 0.0238 0.52997 0.64517 0.0
H1754 H 0.99798 0.519 0.62691 0.0
C1755 C 0.904 0.59245 0.56943 0.0
C1756 C 0.95125 0.56055 0.5872 0.0
H1757 H 0.00678 0.54823 0.59566 0.0
C1758 C 0.94046 0.55549 0.59925 0.0
C1759 C 0.97489 0.55523 0.58549 0.0
C1760 C 0.98677 0.55818 0.57239 0.0
C1761 C 0.95366 0.54951 0.6103 0.0
C1762 C 0.97791 0.54855 0.60908 0.0
C1763 C 0.98812 0.54945 0.59657 0.0
C1764 C 0.99256 0.55419 0.62044 0.0
C1765 C 0.94208 0.54759 0.62356 0.0
C1766 C 0.99747 0.57755 0.62284 0.0
C1767 C 0.01197 0.58383 0.63315 0.0
C1768 C 0.02174 0.56683 0.64127 0.0
C1769 C 0.01624 0.5434 0.6391 0.0
C1770 C 1.00174 0.53709 0.62867 0.0
H1771 H 0.92327 0.544 0.62258 0.0
H1772 H 0.95022 0.53368 0.62951 0.0
H1773 H 0.94426 0.56413 0.62896 0.0
H1774 H 0.99028 0.59092 0.61657 0.0
H1775 H 0.0158 0.60197 0.63469 0.0
H1776 H 0.66626 0.16317 0.64508 0.0
H1777 H 0.66866 0.19594 0.66026 0.0
H1778 H 0.61199 0.22881 0.63987 0.0
H1779 H 0.60918 0.19591 0.62503 0.0
H1780 H 0.68202 0.23503 0.65031 0.0
H1781 H 0.60019 0.25203 0.67622 0.0
H1782 H 0.60682 0.22411 0.66922 0.0
H1783 H 0.5943 0.24656 0.65917 0.0
C1784 C 0.65359 0.17689 0.64431 0.0
C1785 C 0.63759 0.1771 0.63388 0.0
C1786 C 0.65501 0.19564 0.65294 0.0
C1787 C 0.64055 0.21491 0.65122 0.0
C1788 C 0.62302 0.21401 0.64163 0.0
H1789 H 0.66955 0.35378 0.64128 0.0
H1790 H 0.66969 0.31172 0.64205 0.0
C1791 C 0.62142 0.19515 0.6331 0.0
C1792 C 0.64677 0.23746 0.65723 0.0
H1793 H 0.62272 0.28644 0.66989 0.0
C1794 C 0.66919 0.24601 0.65495 0.0
C1795 C 0.6303 0.25179 0.66348 0.0
C1796 C 0.60665 0.24301 0.66729 0.0
C1797 C 0.67495 0.26903 0.65772 0.0
C1798 C 0.65767 0.28405 0.66255 0.0
C1799 C 0.63586 0.27503 0.66592 0.0
C1800 C 0.66097 0.30946 0.66277 0.0
C1801 C 0.69929 0.27716 0.655 0.0
C1802 C 0.65623 0.32224 0.67418 0.0
C1803 C 0.65604 0.34639 0.67374 0.0
C1804 C 0.66033 0.35813 0.66184 0.0
C1805 C 0.66642 0.34531 0.65063 0.0
C1806 C 0.66653 0.3212 0.65107 0.0
H1807 H 0.7119 0.26286 0.65633 0.0
H1808 H 0.70053 0.28304 0.64461 0.0
H1809 H 0.70429 0.29171 0.66154 0.0
H1810 H 0.65184 0.31354 0.68329 0.0
H1811 H 0.65135 0.35584 0.68255 0.0
H1812 H 0.03917 0.43277 0.87735 0.0
H1813 H 0.01416 0.4412 0.89567 0.0
H1814 H 0.98313 0.49731 0.87388 0.0
H1815 H 0.00587 0.4868 0.85465 0.0
H1816 H 0.00539 0.47454 0.91193 0.0
H1817 H 0.92619 0.46363 0.88085 0.0
H1818 H 0.95424 0.45813 0.8739 0.0
H1819 H 0.94532 0.4873 0.87751 0.0
C1820 C 0.0266 0.44647 0.87617 0.0
C1821 C 0.02407 0.45836 0.86418 0.0
C1822 C 0.01266 0.45177 0.88689 0.0
C1823 C 0.99627 0.46963 0.88614 0.0
C1824 C 0.99502 0.48294 0.87461 0.0
H1825 H 0.8895 0.41075 0.93192 0.0
H1826 H 0.90986 0.44745 0.92917 0.0
C1827 C 0.00839 0.47704 0.86362 0.0
C1828 C 0.97906 0.4716 0.89693 0.0
H1829 H 0.92424 0.45254 0.90258 0.0
C1830 C 0.98738 0.47054 0.90996 0.0
C1831 C 0.95524 0.46741 0.89454 0.0
C1832 C 0.94461 0.46913 0.88098 0.0
C1833 C 0.97397 0.46057 0.91996 0.0
C1834 C 0.95169 0.45241 0.91686 0.0
C1835 C 0.94169 0.45833 0.90474 0.0
C1836 C 0.94216 0.4317 0.92334 0.0
C1837 C 0.98468 0.45611 0.93324 0.0
C1838 C 0.95389 0.41069 0.92146 0.0
C1839 C 0.94208 0.38975 0.92244 0.0
C1840 C 0.91841 0.38955 0.92545 0.0
C1841 C 0.90753 0.41042 0.92904 0.0
C1842 C 0.91922 0.43142 0.92775 0.0
H1843 H 0.99714 0.47002 0.93584 0.0
H1844 H 0.97125 0.45484 0.94103 0.0
H1845 H 0.99435 0.43954 0.93292 0.0
H1846 H 0.97153 0.41053 0.91785 0.0
H1847 H 0.95109 0.37396 0.9199 0.0
H1848 H 0.8707 0.81749 0.12236 0.0
H1849 H 0.86478 0.78992 0.14027 0.0
H1850 H 0.79093 0.79866 0.13689 0.0
H1851 H 0.79676 0.826 0.11875 0.0
H1852 H 0.83862 0.78263 0.16485 0.0
H1853 H 0.80524 0.73402 0.1213 0.0
H1854 H 0.82006 0.76125 0.11956 0.0
H1855 H 0.7908 0.76048 0.12551 0.0
C1856 C 0.85325 0.81429 0.1258 0.0
C1857 C 0.83416 0.82338 0.119 0.0
C1858 C 0.84988 0.79857 0.13606 0.0
C1859 C 0.82741 0.79193 0.13967 0.0
C1860 C 0.80839 0.80337 0.13409 0.0
H1861 H 0.8121 0.64736 0.16064 0.0
H1862 H 0.79961 0.68774 0.15932 0.0
C1863 C 0.81174 0.81889 0.12372 0.0
C1864 C 0.82424 0.7698 0.1467 0.0
H1865 H 0.81299 0.71315 0.14023 0.0
C1866 C 0.83252 0.76746 0.15962 0.0
C1867 C 0.81622 0.75007 0.13983 0.0
C1868 C 0.80769 0.75138 0.12577 0.0
C1869 C 0.83401 0.74562 0.16564 0.0
C1870 C 0.8276 0.72574 0.15838 0.0
C1871 C 0.81786 0.72837 0.14582 0.0
C1872 C 0.83382 0.70198 0.16254 0.0
C1873 C 0.84297 0.74407 0.17956 0.0
C1874 C 0.85706 0.69655 0.16512 0.0
C1875 C 0.86412 0.67355 0.16604 0.0
C1876 C 0.84815 0.6556 0.1641 0.0
C1877 C 0.82475 0.66096 0.16208 0.0
C1878 C 0.8176 0.68398 0.16142 0.0
H1879 H 0.83785 0.75956 0.18533 0.0
H1880 H 0.83647 0.72838 0.18467 0.0
H1881 H 0.86216 0.7435 0.17938 0.0
H1882 H 0.87009 0.70999 0.16555 0.0
H1883 H 0.88231 0.66989 0.16736 0.0
H1884 H 0.60489 0.61216 0.42825 0.0
H1885 H 0.57051 0.58713 0.42742 0.0
H1886 H 0.54706 0.62325 0.39271 0.0
H1887 H 0.58135 0.6478 0.39329 0.0
H1888 H 0.5198 0.59597 0.42568 0.0
H1889 H 0.55674 0.55427 0.38163 0.0
H1890 H 0.57405 0.57093 0.39303 0.0
H1891 H 0.55791 0.58516 0.38019 0.0
C1892 C 0.59215 0.61494 0.42058 0.0
C1893 C 0.59585 0.63159 0.41068 0.0
C1894 C 0.57261 0.60068 0.42014 0.0
C1895 C 0.55663 0.60316 0.40986 0.0
C1896 C 0.55952 0.62088 0.40057 0.0
H1897 H 0.42854 0.59792 0.38388 0.0
H1898 H 0.45873 0.59599 0.40005 0.0
C1899 C 0.57907 0.63486 0.4009 0.0
C1900 C 0.53774 0.58646 0.40789 0.0
H1901 H 0.51485 0.55585 0.38265 0.0
C1902 C 0.51875 0.58654 0.41647 0.0
C1903 C 0.5369 0.57319 0.39626 0.0
C1904 C 0.55764 0.57064 0.38734 0.0
C1905 C 0.49777 0.57612 0.41276 0.0
C1906 C 0.49573 0.56643 0.39999 0.0
C1907 C 0.51583 0.56366 0.39233 0.0
C1908 C 0.47313 0.56356 0.39317 0.0
C1909 C 0.47792 0.5764 0.42237 0.0
C1910 C 0.47019 0.54567 0.38401 0.0
C1911 C 0.45412 0.54782 0.37383 0.0
C1912 C 0.43973 0.56752 0.37286 0.0
C1913 C 0.44015 0.58333 0.38344 0.0
C1914 C 0.45707 0.58176 0.39321 0.0
H1915 H 0.48427 0.5723 0.43244 0.0
H1916 H 0.47037 0.59402 0.42276 0.0
H1917 H 0.46423 0.56379 0.41968 0.0
H1918 H 0.48196 0.53109 0.38389 0.0
H1919 H 0.45463 0.5346 0.36637 0.0
H1920 H 0.32485 0.3702 0.15573 0.0
H1921 H 0.31021 0.33068 0.15516 0.0
H1922 H 0.37314 0.30634 0.17328 0.0
H1923 H 0.38773 0.34592 0.17421 0.0
H1924 H 0.34104 0.30384 0.13929 0.0
H1925 H 0.32191 0.26062 0.18704 0.0
H1926 H 0.31959 0.29157 0.18479 0.0
H1927 H 0.34752 0.27833 0.1863 0.0
C1928 C 0.33527 0.35656 0.16001 0.0
C1929 C 0.35776 0.36099 0.16459 0.0
C1930 C 0.32676 0.33404 0.15981 0.0
C1931 C 0.34063 0.31568 0.16416 0.0
C1932 C 0.36206 0.32034 0.17005 0.0
H1933 H 0.35788 0.17738 0.13555 0.0
H1934 H 0.35709 0.21033 0.15059 0.0
C1935 C 0.37051 0.34295 0.17038 0.0
C1936 C 0.33576 0.29226 0.15922 0.0
H1937 H 0.32471 0.23638 0.16806 0.0
C1938 C 0.33716 0.28915 0.14557 0.0
C1939 C 0.33135 0.27317 0.16751 0.0
C1940 C 0.32984 0.27597 0.18224 0.0
C1941 C 0.33445 0.26739 0.13991 0.0
C1942 C 0.32949 0.24824 0.14812 0.0
C1943 C 0.32823 0.2512 0.16183 0.0
C1944 C 0.32607 0.2252 0.14226 0.0
C1945 C 0.33751 0.26505 0.12518 0.0
C1946 C 0.30816 0.22209 0.13318 0.0
C1947 C 0.30917 0.20409 0.12412 0.0
C1948 C 0.32773 0.18824 0.12429 0.0
C1949 C 0.34389 0.1897 0.13467 0.0
C1950 C 0.34323 0.20826 0.1435 0.0
H1951 H 0.34692 0.28004 0.12091 0.0
H1952 H 0.34714 0.24904 0.12268 0.0
H1953 H 0.32025 0.26419 0.12041 0.0
H1954 H 0.29465 0.23496 0.13219 0.0
H1955 H 0.29633 0.2041 0.11639 0.0
H1956 H 0.59705 0.55702 0.88799 0.0
H1957 H 0.57391 0.5545 0.90814 0.0
H1958 H 0.51316 0.54018 0.8849 0.0
H1959 H 0.53523 0.54414 0.86497 0.0
H1960 H 0.53784 0.58651 0.91078 0.0
H1961 H 0.5026 0.49904 0.91717 0.0
H1962 H 0.52993 0.50449 0.90903 0.0
H1963 H 0.5031 0.50629 0.90001 0.0
C1964 C 0.5788 0.55312 0.88715 0.0
C1965 C 0.56808 0.55117 0.8747 0.0
C1966 C 0.56573 0.55126 0.89872 0.0
C1967 C 0.54193 0.54673 0.89803 0.0
C1968 C 0.53165 0.54296 0.88571 0.0
H1969 H 0.41619 0.57859 0.89809 0.0
H1970 H 0.45376 0.56032 0.90081 0.0
C1971 C 0.54446 0.5453 0.87422 0.0
C1972 C 0.52646 0.55119 0.90931 0.0
H1973 H 0.47417 0.53124 0.91965 0.0
C1974 C 0.52435 0.57427 0.91335 0.0
C1975 C 0.5092 0.53509 0.91286 0.0
C1976 C 0.51149 0.50978 0.90964 0.0
C1977 C 0.50349 0.58252 0.91859 0.0
C1978 C 0.48475 0.56697 0.92009 0.0
C1979 C 0.48842 0.5432 0.91823 0.0
C1980 C 0.46065 0.57548 0.91992 0.0
C1981 C 0.50074 0.60821 0.92074 0.0
C1982 C 0.45184 0.58973 0.92989 0.0
C1983 C 0.43043 0.60061 0.92823 0.0
C1984 C 0.41746 0.59708 0.91666 0.0
C1985 C 0.4258 0.58178 0.90707 0.0
C1986 C 0.44721 0.57117 0.90867 0.0
H1987 H 0.51675 0.61798 0.91834 0.0
H1988 H 0.48644 0.61501 0.91455 0.0
H1989 H 0.49636 0.61157 0.9312 0.0
H1990 H 0.46179 0.593 0.93874 0.0
H1991 H 0.42425 0.61208 0.93589 0.0
H1992 H 0.11834 0.8022 0.63122 0.0
H1993 H 0.12267 0.76641 0.64339 0.0
H1994 H 0.19676 0.77017 0.63879 0.0
H1995 H 0.19259 0.80389 0.62517 0.0
H1996 H 0.18462 0.73185 0.63074 0.0
H1997 H 0.13987 0.74253 0.67804 0.0
H1998 H 0.12017 0.75049 0.66523 0.0
H1999 H 0.14639 0.76698 0.66764 0.0
C2000 C 0.13562 0.79554 0.63273 0.0
C2001 C 0.15494 0.80598 0.62672 0.0
C2002 C 0.13812 0.77523 0.64006 0.0
C2003 C 0.16009 0.76549 0.64207 0.0
C2004 C 0.17959 0.77722 0.63732 0.0
H2005 H 0.15121 0.62892 0.67881 0.0
H2006 H 0.16453 0.66859 0.67527 0.0
C2007 C 0.17708 0.79696 0.6296 0.0
C2008 C 0.16244 0.74144 0.64698 0.0
H2009 H 0.13977 0.70313 0.66896 0.0
C2010 C 0.17529 0.72576 0.63933 0.0
C2011 C 0.15076 0.73331 0.65832 0.0
C2012 C 0.13879 0.74936 0.66783 0.0
C2013 C 0.1755 0.7021 0.64218 0.0
C2014 C 0.16158 0.69369 0.65257 0.0
C2015 C 0.15007 0.70947 0.6608 0.0
C2016 C 0.15703 0.66869 0.65437 0.0
C2017 C 0.19042 0.68643 0.63387 0.0
C2018 C 0.14889 0.65538 0.64375 0.0
C2019 C 0.14188 0.63256 0.64569 0.0
C2020 C 0.14219 0.62295 0.65836 0.0
C2021 C 0.15086 0.63601 0.66893 0.0
C2022 C 0.15839 0.65865 0.66693 0.0
H2023 H 0.20629 0.69559 0.63056 0.0
H2024 H 0.19565 0.67062 0.63932 0.0
H2025 H 0.1807 0.68128 0.62491 0.0
H2026 H 0.1469 0.66293 0.63405 0.0
H2027 H 0.13487 0.62298 0.63743 0.0
H2028 H 0.10766 0.41616 0.39998 0.0
H2029 H 0.06827 0.43069 0.40112 0.0
H2030 H 0.06559 0.41426 0.44261 0.0
H2031 H 0.10473 0.39839 0.44128 0.0
H2032 H 0.03094 0.39667 0.43208 0.0
H2033 H 0.03285 0.48466 0.41267 0.0
H2034 H 0.04875 0.46759 0.40114 0.0
H2035 H 0.05907 0.47035 0.41789 0.0
C2036 C 0.09886 0.41615 0.4094 0.0
C2037 C 0.10904 0.40596 0.4205 0.0
C2038 C 0.0764 0.42478 0.41011 0.0
C2039 C 0.064 0.42405 0.42203 0.0
C2040 C 0.0748 0.41514 0.43333 0.0
H2041 H 0.92911 0.45182 0.38957 0.0
H2042 H 0.95609 0.45611 0.40804 0.0
C2043 C 0.09709 0.40599 0.43254 0.0
C2044 C 0.03878 0.42858 0.42191 0.0
H2045 H 0.99964 0.46011 0.40454 0.0
C2046 C 0.02398 0.41105 0.42648 0.0
C2047 C 0.02923 0.44773 0.41517 0.0
C2048 C 0.04341 0.46872 0.41162 0.0
C2049 C 1.00068 0.41044 0.42274 0.0
C2050 C 0.99235 0.42728 0.41383 0.0
C2051 C 0.00616 0.44666 0.41099 0.0
C2052 C 0.97218 0.42269 0.40523 0.0
C2053 C 0.98572 0.39089 0.42764 0.0
C2054 C 0.97173 0.4022 0.3978 0.0
C2055 C 0.95631 0.39967 0.38736 0.0
C2056 C 0.94131 0.41776 0.38399 0.0
C2057 C 0.94065 0.43767 0.39194 0.0
C2058 C 0.95597 0.44011 0.4025 0.0
H2059 H 0.98977 0.387 0.43811 0.0
H2060 H 0.96701 0.39497 0.42677 0.0
H2061 H 0.98952 0.37504 0.42188 0.0
H2062 H 0.98454 0.38881 0.39936 0.0
H2063 H 0.95749 0.38434 0.38127 0.0
H2064 H 0.36459 0.65415 0.3122 0.0
H2065 H 0.36004 0.69571 0.31583 0.0
H2066 H 0.34414 0.68287 0.35672 0.0
H2067 H 0.34768 0.64129 0.35301 0.0
H2068 H 0.31911 0.71804 0.34726 0.0
H2069 H 0.41157 0.72982 0.33386 0.0
H2070 H 0.39392 0.71833 0.32087 0.0
H2071 H 0.39861 0.70168 0.33561 0.0
C2072 C 0.35967 0.66022 0.3219 0.0
C2073 C 0.35673 0.64461 0.33238 0.0
C2074 C 0.35724 0.68394 0.32397 0.0
C2075 C 0.35243 0.69238 0.33662 0.0
C2076 C 0.348 0.6767 0.34688 0.0
H2077 H 0.39357 0.80709 0.38042 0.0
H2078 H 0.39052 0.77307 0.36639 0.0
C2079 C 0.35 0.65296 0.34476 0.0
C2080 C 0.35373 0.7174 0.33952 0.0
H2081 H 0.39142 0.76281 0.34069 0.0
C2082 C 0.3348 0.72797 0.3457 0.0
C2083 C 0.37437 0.73016 0.33757 0.0
C2084 C 0.39585 0.71942 0.33173 0.0
C2085 C 0.33627 0.7506 0.35056 0.0
C2086 C 0.357 0.76329 0.34872 0.0
C2087 C 0.37551 0.7531 0.34195 0.0
C2088 C 0.36101 0.78569 0.35536 0.0
C2089 C 0.31617 0.76009 0.35837 0.0
C2090 C 0.34622 0.80459 0.35335 0.0
C2091 C 0.34784 0.82403 0.36146 0.0
C2092 C 0.36458 0.82498 0.3715 0.0
C2093 C 0.38067 0.80694 0.37268 0.0
C2094 C 0.37885 0.78742 0.3647 0.0
H2095 H 0.30364 0.74636 0.36117 0.0
H2096 H 0.32231 0.7687 0.3675 0.0
H2097 H 0.30682 0.77306 0.35233 0.0
H2098 H 0.33275 0.80385 0.34594 0.0
H2099 H 0.33533 0.83783 0.36032 0.0
H2100 H 0.08447 0.63493 0.05026 0.0
H2101 H 0.0447 0.62887 0.05761 0.0
H2102 H 0.06027 0.55751 0.06608 0.0
H2103 H 0.10024 0.56345 0.05858 0.0
H2104 H 0.00699 0.57809 0.05596 0.0
H2105 H 0.05249 0.61132 0.10064 0.0
H2106 H 0.05867 0.6243 0.0849 0.0
H2107 H 0.06764 0.5952 0.08813 0.0
C2108 C 0.07911 0.6177 0.05314 0.0
C2109 C 0.09531 0.59969 0.05404 0.0
C2110 C 0.0564 0.61425 0.05724 0.0
C2111 C 0.04973 0.59281 0.0624 0.0
C2112 C 0.06517 0.5741 0.06198 0.0
H2113 H 0.96146 0.56672 0.1274 0.0
H2114 H 0.98942 0.56513 0.10972 0.0
C2115 C 0.08794 0.5775 0.05772 0.0
C2116 C 0.02932 0.59176 0.07102 0.0
H2117 H 0.01279 0.6043 0.1024 0.0
C2118 C 0.00811 0.58373 0.06613 0.0
C2119 C 0.03108 0.59925 0.08422 0.0
C2120 C 0.05365 0.60797 0.08989 0.0
C2121 C 0.98845 0.58279 0.07428 0.0
C2122 C 0.99026 0.59031 0.0875 0.0
C2123 C 0.01149 0.59854 0.09226 0.0
C2124 C 0.97094 0.58874 0.09699 0.0
C2125 C 0.9661 0.57334 0.06884 0.0
C2126 C 0.95095 0.60231 0.09561 0.0
C2127 C 0.93445 0.60297 0.10572 0.0
C2128 C 0.93785 0.59019 0.11738 0.0
C2129 C 0.95776 0.57631 0.11849 0.0
C2130 C 0.97397 0.57549 0.1084 0.0
H2131 H 0.96874 0.56419 0.05933 0.0
H2132 H 0.95798 0.56124 0.07596 0.0
H2133 H 0.95388 0.58782 0.06714 0.0
H2134 H 0.94853 0.61302 0.08696 0.0
H2135 H 0.9193 0.61376 0.10452 0.0
H2136 H 0.10695 0.21341 0.87546 0.0
H2137 H 0.10895 0.24654 0.86054 0.0
H2138 H 0.17898 0.2281 0.85017 0.0
H2139 H 0.17691 0.19493 0.86524 0.0
H2140 H 0.17623 0.27041 0.86071 0.0
H2141 H 0.11011 0.26334 0.82187 0.0
H2142 H 0.09768 0.25593 0.83747 0.0
H2143 H 0.12065 0.23842 0.83079 0.0
C2144 C 0.12232 0.21592 0.86952 0.0
C2145 C 0.14167 0.20175 0.87127 0.0
C2146 C 0.12347 0.23473 0.86096 0.0
C2147 C 0.14403 0.23959 0.85412 0.0
C2148 C 0.16288 0.22444 0.85523 0.0
H2149 H 0.13013 0.37797 0.82054 0.0
H2150 H 0.14286 0.33777 0.82142 0.0
C2151 C 0.16169 0.20555 0.86377 0.0
C2152 C 0.14706 0.26269 0.84817 0.0
H2153 H 0.11756 0.30259 0.83015 0.0
C2154 C 0.16386 0.27732 0.8537 0.0
C2155 C 0.13125 0.27161 0.83887 0.0
C2156 C 0.11409 0.25637 0.83181 0.0
C2157 C 0.16373 0.3011 0.85117 0.0
C2158 C 0.14608 0.3104 0.84314 0.0
C2159 C 0.13081 0.29548 0.83655 0.0
C2160 C 0.14138 0.33546 0.84266 0.0
C2161 C 0.18187 0.31611 0.85759 0.0
C2162 C 0.13646 0.34748 0.85435 0.0
C2163 C 0.12929 0.37048 0.85391 0.0
C2164 C 0.12654 0.38168 0.84175 0.0
C2165 C 0.13198 0.36975 0.83008 0.0
C2166 C 0.13931 0.34682 0.83054 0.0
H2167 H 0.19827 0.3064 0.859 0.0
H2168 H 0.18549 0.33183 0.85165 0.0
H2169 H 0.17569 0.32153 0.86746 0.0
H2170 H 0.1373 0.33882 0.8638 0.0
H2171 H 0.12508 0.37917 0.86305 0.0
H2172 H 0.40287 0.40798 0.60252 0.0
H2173 H 0.44258 0.42215 0.60176 0.0
H2174 H 0.44532 0.40833 0.55999 0.0
H2175 H 0.40594 0.39307 0.56086 0.0
H2176 H 0.48063 0.39071 0.5706 0.0
H2177 H 0.47537 0.47859 0.59037 0.0
H2178 H 0.46041 0.46015 0.60166 0.0
H2179 H 0.44986 0.46321 0.58499 0.0
C2180 C 0.41183 0.40832 0.59316 0.0
C2181 C 0.40148 0.39928 0.5818 0.0
C2182 C 0.43443 0.41673 0.59267 0.0
C2183 C 0.44681 0.41685 0.58074 0.0
C2184 C 0.43608 0.4086 0.56928 0.0
H2185 H 0.5847 0.45115 0.6087 0.0
H2186 H 0.55494 0.45395 0.59153 0.0
C2187 C 0.41365 0.39977 0.56981 0.0
C2188 C 0.47184 0.42229 0.5808 0.0
H2189 H 0.51046 0.45621 0.59711 0.0
C2190 C 0.48721 0.4055 0.576 0.0
C2191 C 0.48075 0.44197 0.58731 0.0
C2192 C 0.46564 0.46209 0.5912 0.0
C2193 C 0.51076 0.40627 0.57918 0.0
C2194 C 0.51882 0.4238 0.58771 0.0
C2195 C 0.50417 0.44233 0.59088 0.0
C2196 C 0.53987 0.42051 0.59578 0.0
C2197 C 0.52639 0.38739 0.57415 0.0
C2198 C 0.54147 0.40067 0.60368 0.0
C2199 C 0.5582 0.3991 0.61348 0.0
C2200 C 0.57366 0.41744 0.61569 0.0
C2201 C 0.5729 0.43681 0.60729 0.0
C2202 C 0.55604 0.43838 0.59744 0.0
H2203 H 0.52147 0.38244 0.56395 0.0
H2204 H 0.54484 0.39277 0.57422 0.0
H2205 H 0.52437 0.37179 0.58042 0.0
H2206 H 0.52871 0.38701 0.60294 0.0
H2207 H 0.55785 0.38418 0.61993 0.0
H2208 H 0.18392 0.06369 0.33779 0.0
H2209 H 0.21598 0.04339 0.34862 0.0
H2210 H 0.17855 0.97913 0.34551 0.0
H2211 H 0.14669 0.99924 0.33456 0.0
H2212 H 0.21005 0.01859 0.37282 0.0
H2213 H 0.24452 0.9619 0.3333 0.0
H2214 H 0.22707 0.98712 0.32988 0.0
H2215 H 0.21369 0.96086 0.33548 0.0
C2216 C 0.18281 0.04515 0.33911 0.0
C2217 C 0.16275 0.03307 0.33536 0.0
C2218 C 0.20106 0.0336 0.34537 0.0
C2219 C 0.19971 0.00972 0.34779 0.0
C2220 C 0.18011 0.99748 0.34358 0.0
H2221 H 0.28121 0.91058 0.39286 0.0
H2222 H 0.25308 0.92954 0.37834 0.0
C2223 C 0.16183 0.00903 0.33742 0.0
C2224 C 0.21777 0.99796 0.35575 0.0
H2225 H 0.25795 0.95465 0.35506 0.0
C2226 C 0.22068 0.00475 0.36891 0.0
C2227 C 0.23134 0.97967 0.35068 0.0
C2228 C 0.2292 0.97201 0.33653 0.0
C2229 C 0.23656 0.99355 0.37721 0.0
C2230 C 0.25038 0.97543 0.37211 0.0
C2231 C 0.24741 0.96857 0.35894 0.0
C2232 C 0.26813 0.96363 0.38031 0.0
C2233 C 0.23792 1.00084 0.39146 0.0
C2234 C 0.28627 0.97635 0.38596 0.0
C2235 C 0.30227 0.9656 0.39426 0.0
C2236 C 0.30067 0.94181 0.39699 0.0
C2237 C 0.283 0.9289 0.39092 0.0
C2238 C 0.26687 0.93973 0.38265 0.0
H2239 H 0.22196 0.00996 0.39465 0.0
H2240 H 0.24065 0.9857 0.39801 0.0
H2241 H 0.25269 0.01288 0.39276 0.0
H2242 H 0.28797 0.99469 0.38401 0.0
H2243 H 0.31595 0.97595 0.39852 0.0
H2244 H 0.36677 0.03686 0.63168 0.0
H2245 H 0.3444 0.00959 0.61835 0.0
H2246 H 0.29121 0.0082 0.6481 0.0
H2247 H 0.31382 0.03455 0.66169 0.0
H2248 H 0.29984 0.96536 0.63854 0.0
H2249 H 0.28769 0.02706 0.59712 0.0
H2250 H 0.31727 0.02086 0.6012 0.0
H2251 H 0.29927 0.03585 0.61284 0.0
C2252 C 0.35048 0.03053 0.63549 0.0
C2253 C 0.34204 0.03819 0.64775 0.0
C2254 C 0.33755 0.01512 0.62776 0.0
C2255 C 0.31585 0.00719 0.63208 0.0
C2256 C 0.30779 0.0142 0.64449 0.0
H2257 H 0.19449 0.95961 0.59353 0.0
H2258 H 0.22707 0.98042 0.60312 0.0
C2259 C 0.3207 0.02947 0.65222 0.0
C2260 C 0.30114 0.99193 0.62371 0.0
H2261 H 0.27073 0.9903 0.59483 0.0
C2262 C 0.29364 0.9707 0.62892 0.0
C2263 C 0.2929 0.99899 0.6112 0.0
C2264 C 0.29949 0.022 0.60527 0.0
C2265 C 0.27767 0.95668 0.62217 0.0
C2266 C 0.26929 0.96382 0.60971 0.0
C2267 C 0.2773 0.98473 0.60433 0.0
C2268 C 0.2504 0.95118 0.60277 0.0
C2269 C 0.26905 0.93493 0.62877 0.0
C2270 C 0.25278 0.92793 0.59896 0.0
C2271 C 0.23397 0.91586 0.59355 0.0
C2272 C 0.21247 0.92687 0.5918 0.0
C2273 C 0.21062 0.95047 0.59498 0.0
C2274 C 0.22932 0.96245 0.60039 0.0
H2275 H 0.2735 0.93447 0.63942 0.0
H2276 H 0.24999 0.93332 0.62775 0.0
H2277 H 0.27713 0.91968 0.62401 0.0
H2278 H 0.26902 0.91898 0.60043 0.0
H2279 H 0.23601 0.89771 0.59123 0.0
H2280 H 0.19906 0.06286 0.8928 0.0
H2281 H 0.22254 0.032 0.88271 0.0
H2282 H 0.28137 0.07786 0.88179 0.0
H2283 H 0.2582 0.10835 0.89186 0.0
H2284 H 0.24503 0.03521 0.85766 0.0
H2285 H 0.30826 0.01827 0.89742 0.0
H2286 H 0.281 0.03265 0.90034 0.0
H2287 H 0.30528 0.04853 0.89389 0.0
C2288 C 0.21715 0.06606 0.8907 0.0
C2289 C 0.22684 0.08797 0.89309 0.0
C2290 C 0.23048 0.04854 0.88487 0.0
C2291 C 0.25377 0.05257 0.8816 0.0
C2292 C 0.26356 0.07421 0.8844 0.0
H2293 H 0.36551 0.00732 0.83479 0.0
H2294 H 0.33532 0.02674 0.84743 0.0
C2295 C 0.25027 0.09168 0.89007 0.0
C2296 C 0.26774 0.03502 0.87448 0.0
H2297 H 0.31997 0.00745 0.87549 0.0
C2298 C 0.26116 0.02869 0.86165 0.0
C2299 C 0.28879 0.02652 0.8797 0.0
C2300 C 0.29616 0.03165 0.89365 0.0
C2301 C 0.27576 0.01519 0.85366 0.0
C2302 C 0.29736 0.00788 0.85865 0.0
C2303 C 0.30344 0.01327 0.87166 0.0
C2304 C 0.31464 0.99601 0.85026 0.0
C2305 C 0.26863 0.00973 0.83972 0.0
C2306 C 0.31286 0.97231 0.84756 0.0
C2307 C 0.33028 0.96101 0.84044 0.0
C2308 C 0.34981 0.97327 0.83589 0.0
C2309 C 0.35104 0.9972 0.83831 0.0
C2310 C 0.33371 0.0084 0.84548 0.0
H2311 H 0.25151 0.01723 0.83717 0.0
H2312 H 0.28178 0.01651 0.83274 0.0
H2313 H 0.26781 0.9907 0.83838 0.0
H2314 H 0.29829 0.96245 0.85125 0.0
H2315 H 0.32876 0.94257 0.83891 0.0
H2316 H 0.26486 0.09721 0.0946 0.0
H2317 H 0.23808 0.07634 0.10901 0.0
H2318 H 0.28221 0.0163 0.10745 0.0
H2319 H 0.30891 0.037 0.09296 0.0
H2320 H 0.23702 0.00508 0.10421 0.0
H2321 H 0.24705 0.06225 0.14776 0.0
H2322 H 0.23799 0.07694 0.13306 0.0
H2323 H 0.26614 0.06377 0.13373 0.0
C2324 C 0.26895 0.07963 0.09741 0.0
C2325 C 0.2891 0.0688 0.09269 0.0
C2326 C 0.25364 0.06773 0.10567 0.0
C2327 C 0.25834 0.04489 0.10951 0.0
C2328 C 0.27826 0.03395 0.10465 0.0
H2329 H 0.20536 0.96457 0.1741 0.0
H2330 H 0.22699 0.98939 0.15906 0.0
C2331 C 0.29347 0.04576 0.09633 0.0
C2332 C 0.24244 0.03214 0.11843 0.0
H2333 H 0.219 0.03257 0.14932 0.0
C2334 C 0.23303 0.01111 0.11407 0.0
C2335 C 0.23741 0.03994 0.13133 0.0
C2336 C 0.24782 0.06185 0.13682 0.0
C2337 C 0.21894 0.99755 0.12227 0.0
C2338 C 0.21366 0.00548 0.13512 0.0
C2339 C 0.2229 0.02662 0.13944 0.0
C2340 C 0.19976 0.99144 0.14448 0.0
C2341 C 0.21052 0.97447 0.11725 0.0
C2342 C 0.17702 0.98477 0.14146 0.0
C2343 C 0.16467 0.97028 0.14998 0.0
C2344 C 0.17476 0.96235 0.16178 0.0
C2345 C 0.1972 0.96991 0.165 0.0
C2346 C 0.20955 0.98428 0.15645 0.0
H2347 H 0.22072 0.96846 0.10864 0.0
H2348 H 0.21148 0.96108 0.12508 0.0
H2349 H 0.19221 0.97609 0.11411 0.0
H2350 H 0.16891 0.9905 0.13241 0.0
H2351 H 0.14751 0.9648 0.14709 0.0
H2352 H 0.86174 1.0037 0.66296 0.0
H2353 H 0.82974 0.02557 0.65334 0.0
H2354 H 0.7946 0.96174 0.64419 0.0
H2355 H 0.82649 0.93983 0.65415 0.0
H2356 H 0.81753 0.02423 0.62813 0.0
H2357 H 0.7417 0.99937 0.6584 0.0
H2358 H 0.77104 0.99345 0.66348 0.0
H2359 H 0.75686 0.975 0.65171 0.0
C2360 C 0.84697 0.99438 0.65912 0.0
C2361 C 0.84658 0.97009 0.65929 0.0
C2362 C 0.82869 0.00687 0.65362 0.0
C2363 C 0.80962 0.99537 0.6481 0.0
C2364 C 0.80882 0.97107 0.64865 0.0
H2365 H 0.70009 0.03796 0.59524 0.0
H2366 H 0.7272 0.01693 0.60936 0.0
C2367 C 0.82705 0.95854 0.65432 0.0
C2368 C 0.79182 0.00882 0.64076 0.0
H2369 H 0.73374 0.01923 0.63825 0.0
C2370 C 0.79924 0.02329 0.63045 0.0
C2371 C 0.76791 0.00753 0.64371 0.0
C2372 C 0.75889 0.99318 0.65501 0.0
C2373 C 0.78346 0.03618 0.62293 0.0
C2374 C 0.75959 0.03476 0.62582 0.0
C2375 C 0.75208 0.02032 0.63609 0.0
C2376 C 0.7422 0.04766 0.61797 0.0
C2377 C 0.79238 0.05084 0.61172 0.0
C2378 C 0.74135 0.07192 0.6183 0.0
C2379 C 0.72586 0.08401 0.61022 0.0
C2380 C 0.71102 0.07204 0.60162 0.0
C2381 C 0.71153 0.04771 0.60159 0.0
C2382 C 0.72689 0.03565 0.60972 0.0
H2383 H 0.81062 0.04669 0.60921 0.0
H2384 H 0.78154 0.04845 0.60279 0.0
H2385 H 0.79151 0.06934 0.61456 0.0
H2386 H 0.75292 0.08151 0.62468 0.0
H2387 H 0.72598 0.10272 0.61043 0.0
H2388 H 0.78619 0.05478 0.41151 0.0
H2389 H 0.76023 0.03233 0.39758 0.0
H2390 H 0.73591 0.09501 0.37922 0.0
H2391 H 0.7619 0.11775 0.39323 0.0
H2392 H 0.71238 0.03447 0.39569 0.0
H2393 H 0.75424 0.05462 0.34772 0.0
H2394 H 0.76803 0.06052 0.36331 0.0
H2395 H 0.74558 0.07922 0.35732 0.0
C2396 C 0.77522 0.06389 0.4046 0.0
C2397 C 0.77614 0.08812 0.40352 0.0
C2398 C 0.76045 0.05098 0.39659 0.0
C2399 C 0.74631 0.06196 0.38727 0.0
C2400 C 0.747 0.08615 0.38618 0.0
H2401 H 0.63425 0.98679 0.34726 0.0
H2402 H 0.65568 0.01533 0.36021 0.0
C2403 C 0.76186 0.09912 0.3942 0.0
C2404 C 0.73074 0.04785 0.37888 0.0
H2405 H 0.72089 0.03112 0.34711 0.0
C2406 C 0.71411 0.03384 0.38505 0.0
C2407 C 0.7332 0.04693 0.36503 0.0
C2408 C 0.75133 0.06096 0.35791 0.0
C2409 C 0.70011 0.01866 0.37778 0.0
C2410 C 0.70256 0.01774 0.36392 0.0
C2411 C 0.71895 0.03199 0.35773 0.0
C2412 C 0.68936 1.00103 0.35578 0.0
C2413 C 0.68343 1.00312 0.38502 0.0
C2414 C 0.7012 0.98386 0.34875 0.0
C2415 C 0.68903 0.96754 0.34135 0.0
C2416 C 0.66471 0.96808 0.34077 0.0
C2417 C 0.65291 0.98559 0.34766 0.0
C2418 C 0.66513 1.00195 0.35506 0.0
H2419 H 0.68718 1.00243 0.39575 0.0
H2420 H 0.66557 0.00979 0.38373 0.0
H2421 H 0.68402 0.98527 0.38102 0.0
H2422 H 0.7199 0.98283 0.34918 0.0
H2423 H 0.69872 0.95419 0.33633 0.0
H2424 H 0.699 0.01498 0.16343 0.0
H2425 H 0.72012 0.98897 0.14873 0.0
H2426 H 0.68883 0.02185 0.11507 0.0
H2427 H 0.66785 0.04826 0.12968 0.0
H2428 H 0.69558 0.9609 0.12241 0.0
H2429 H 0.76795 0.02384 0.11633 0.0
H2430 H 0.75195 0.02205 0.13158 0.0
H2431 H 0.73844 0.03392 0.11721 0.0
C2432 C 0.69661 0.01676 0.15291 0.0
C2433 C 0.68183 0.03386 0.14774 0.0
C2434 C 0.70853 1.00173 0.14455 0.0
C2435 C 0.70594 1.00354 0.13087 0.0
C2436 C 0.6909 0.02018 0.12563 0.0
H2437 H 0.78879 0.94941 0.06713 0.0
H2438 H 0.76144 0.97081 0.08081 0.0
C2439 C 0.67889 0.03519 0.134 0.0
C2440 C 0.72005 0.98893 0.12204 0.0
H2441 H 0.77109 0.98841 0.10522 0.0
C2442 C 0.71209 0.96683 0.11861 0.0
C2443 C 0.74148 0.99684 0.11714 0.0
C2444 C 0.75066 0.02044 0.1207 0.0
C2445 C 0.72507 0.95241 0.11026 0.0
C2446 C 0.74668 0.96025 0.10545 0.0
C2447 C 0.75452 0.98242 0.1089 0.0
C2448 C 0.76154 0.94595 0.09674 0.0
C2449 C 0.71535 0.92914 0.10647 0.0
C2450 C 0.77054 0.92471 0.10108 0.0
C2451 C 0.78623 0.91242 0.09325 0.0
C2452 C 0.7934 0.9213 0.08101 0.0
C2453 C 0.78388 0.94228 0.07658 0.0
C2454 C 0.76817 0.95447 0.08436 0.0
H2455 H 0.69635 0.92829 0.10805 0.0
H2456 H 0.71907 0.92515 0.09598 0.0
H2457 H 0.72353 0.91557 0.11263 0.0
H2458 H 0.76606 0.91802 0.11072 0.0
H2459 H 0.79347 0.89648 0.09702 0.0
H2460 H 0.70135 0.97201 0.89427 0.0
H2461 H 0.73377 0.99509 0.88641 0.0
H2462 H 0.7811 0.9415 0.89855 0.0
H2463 H 0.74825 0.91772 0.90593 0.0
H2464 H 0.7722 0.01367 0.89628 0.0
H2465 H 0.7955 0.94595 0.85979 0.0
H2466 H 0.7694 0.94451 0.86946 0.0
H2467 H 0.79674 0.93668 0.87665 0.0
C2468 C 0.71868 0.96519 0.89536 0.0
C2469 C 0.72222 0.94285 0.90045 0.0
C2470 C 0.73724 0.97847 0.89092 0.0
C2471 C 0.75986 0.96981 0.89152 0.0
C2472 C 0.76372 0.94828 0.89762 0.0
H2473 H 0.88572 0.0259 0.85723 0.0
H2474 H 0.8576 0.00535 0.87066 0.0
C2475 C 0.745 0.93483 0.90202 0.0
C2476 C 0.77882 0.98291 0.88494 0.0
H2477 H 0.81801 0.97987 0.85977 0.0
C2478 C 0.78229 0.00623 0.88834 0.0
C2479 C 0.79184 0.9733 0.87446 0.0
C2480 C 0.78811 0.94882 0.86976 0.0
C2481 C 0.7983 0.02015 0.88155 0.0
C2482 C 0.81113 0.01055 0.87106 0.0
C2483 C 0.80806 0.98717 0.86782 0.0
C2484 C 0.82809 0.02431 0.86336 0.0
C2485 C 0.80147 0.045 0.88564 0.0
C2486 C 0.82084 0.04195 0.85477 0.0
C2487 C 0.83694 0.05364 0.84683 0.0
C2488 C 0.86058 0.04784 0.84733 0.0
C2489 C 0.86769 0.03055 0.85626 0.0
C2490 C 0.85163 0.01884 0.86408 0.0
H2491 H 0.79338 0.04864 0.89535 0.0
H2492 H 0.82015 0.04942 0.88616 0.0
H2493 H 0.79336 0.05645 0.87818 0.0
H2494 H 0.80266 0.04626 0.85396 0.0
H2495 H 0.83079 0.06671 0.84005 0.0
H2496 H 0.77457 0.38633 0.90257 0.0
H2497 H 0.74201 0.40442 0.89089 0.0
H2498 H 0.77289 0.47152 0.89683 0.0
H2499 H 0.80458 0.45374 0.90896 0.0
H2500 H 0.72734 0.47416 0.89941 0.0
H2501 H 0.74808 0.4264 0.8534 0.0
H2502 H 0.74077 0.40856 0.86726 0.0
H2503 H 0.76672 0.42572 0.86764 0.0
C2504 C 0.77408 0.40497 0.90165 0.0
C2505 C 0.79236 0.41857 0.90653 0.0
C2506 C 0.75564 0.41528 0.89479 0.0
C2507 C 0.75528 0.43933 0.89262 0.0
C2508 C 0.7728 0.45295 0.89822 0.0
H2509 H 0.70477 0.52355 0.83027 0.0
H2510 H 0.72456 0.4973 0.84523 0.0
C2511 C 0.79103 0.44273 0.90511 0.0
C2512 C 0.73753 0.4506 0.88408 0.0
H2513 H 0.71807 0.45361 0.8523 0.0
C2514 C 0.72512 0.46951 0.88914 0.0
C2515 C 0.73481 0.44473 0.87061 0.0
C2516 C 0.74841 0.42539 0.86433 0.0
C2517 C 0.71081 0.48317 0.88107 0.0
C2518 C 0.7082 0.4774 0.86758 0.0
C2519 C 0.71995 0.45799 0.86264 0.0
C2520 C 0.69523 0.49243 0.85818 0.0
C2521 C 0.69967 0.5044 0.88694 0.0
C2522 C 0.67186 0.49814 0.86021 0.0
C2523 C 0.66052 0.51361 0.85174 0.0
C2524 C 0.67222 0.5235 0.84093 0.0
C2525 C 0.69528 0.51681 0.83861 0.0
C2526 C 0.70662 0.50156 0.84713 0.0
H2527 H 0.70787 0.50943 0.89641 0.0
H2528 H 0.70077 0.5193 0.88006 0.0
H2529 H 0.68114 0.50079 0.88889 0.0
H2530 H 0.66245 0.49089 0.86845 0.0
H2531 H 0.64281 0.51827 0.85392 0.0
H2532 H 0.75249 0.39447 0.08799 0.0
H2533 H 0.77386 0.42505 0.09937 0.0
H2534 H 0.7106 0.46345 0.10448 0.0
H2535 H 0.68903 0.43273 0.09328 0.0
H2536 H 0.77691 0.47475 0.09428 0.0
H2537 H 0.73655 0.4531 0.14248 0.0
H2538 H 0.73577 0.43363 0.1286 0.0
H2539 H 0.71694 0.45829 0.12905 0.0
C2540 C 0.74313 0.40946 0.09149 0.0
C2541 C 0.71902 0.41105 0.08985 0.0
C2542 C 0.75539 0.42696 0.09793 0.0
C2543 C 0.74374 0.44631 0.10294 0.0
C2544 C 0.71984 0.44849 0.10082 0.0
H2545 H 0.78792 0.55697 0.1551 0.0
H2546 H 0.76608 0.53101 0.14073 0.0
C2547 C 0.70758 0.43103 0.09431 0.0
C2548 C 0.75652 0.46366 0.11084 0.0
H2549 H 0.76221 0.4847 0.14208 0.0
C2550 C 0.77371 0.477 0.10473 0.0
C2551 C 0.75228 0.46648 0.12447 0.0
C2552 C 0.73452 0.45204 0.13162 0.0
C2553 C 0.78662 0.49337 0.11185 0.0
C2554 C 0.78258 0.49601 0.12553 0.0
C2555 C 0.76528 0.4827 0.13161 0.0
C2556 C 0.79613 0.51232 0.13381 0.0
C2557 C 0.80413 0.50796 0.10461 0.0
C2558 C 0.82029 0.51036 0.13479 0.0
C2559 C 0.83283 0.52523 0.143 0.0
C2560 C 0.82141 0.54215 0.15052 0.0
C2561 C 0.79721 0.54397 0.14956 0.0
C2562 C 0.78472 0.52922 0.14129 0.0
H2563 H 0.80031 0.50876 0.09389 0.0
H2564 H 0.80463 0.52585 0.10855 0.0
H2565 H 0.82155 0.50019 0.10582 0.0
H2566 H 0.82944 0.49704 0.12941 0.0
H2567 H 0.85139 0.52312 0.14369 0.0
H2568 H 0.81305 0.49045 0.33886 0.0
H2569 H 0.79547 0.51719 0.35433 0.0
H2570 H 0.84909 0.50248 0.38265 0.0
H2571 H 0.86616 0.47454 0.36747 0.0
H2572 H 0.80869 0.50212 0.39435 0.0
H2573 H 0.8128 0.58139 0.36436 0.0
H2574 H 0.79853 0.55901 0.35528 0.0
H2575 H 0.82845 0.55554 0.35995 0.0
C2576 C 0.82117 0.49273 0.34837 0.0
C2577 C 0.84109 0.48013 0.35184 0.0
C2578 C 0.81126 0.50842 0.35716 0.0
C2579 C 0.82121 0.51234 0.36958 0.0
C2580 C 0.8412 0.49998 0.37308 0.0
H2581 H 0.74479 0.62057 0.41215 0.0
H2582 H 0.77925 0.59965 0.40441 0.0
C2583 C 0.85106 0.48407 0.36431 0.0
C2584 C 0.8097 0.52812 0.37913 0.0
H2585 H 0.78288 0.58056 0.3812 0.0
C2586 C 0.80347 0.51946 0.39157 0.0
C2587 C 0.80339 0.55103 0.37576 0.0
C2588 C 0.8114 0.56235 0.36317 0.0
C2589 C 0.78964 0.53237 0.40025 0.0
C2590 C 0.78122 0.55427 0.39624 0.0
C2591 C 0.78896 0.56365 0.38425 0.0
C2592 C 0.76222 0.56632 0.40338 0.0
C2593 C 0.78388 0.52215 0.41352 0.0
C2594 C 0.74142 0.55453 0.40577 0.0
C2595 C 0.72202 0.56633 0.41034 0.0
C2596 C 0.72271 0.59035 0.41238 0.0
C2597 C 0.74384 0.60204 0.41077 0.0
C2598 C 0.76344 0.59012 0.40624 0.0
H2599 H 0.7984 0.51136 0.41722 0.0
H2600 H 0.78004 0.53574 0.42092 0.0
H2601 H 0.76855 0.51071 0.41254 0.0
H2602 H 0.73968 0.53638 0.40334 0.0
H2603 H 0.706 0.55687 0.41158 0.0
H2604 H 0.67262 0.45585 0.63188 0.0
H2605 H 0.69766 0.47745 0.61688 0.0
H2606 H 0.71432 0.52519 0.64805 0.0
H2607 H 0.69079 0.50319 0.66322 0.0
H2608 H 0.69493 0.52122 0.60836 0.0
H2609 H 0.7777 0.51131 0.63516 0.0
H2610 H 0.75236 0.49462 0.63929 0.0
H2611 H 0.75569 0.52371 0.64535 0.0
C2612 C 0.68184 0.47068 0.63566 0.0
C2613 C 0.67933 0.47763 0.64889 0.0
C2614 C 0.69611 0.48315 0.627 0.0
C2615 C 0.70825 0.5028 0.63135 0.0
C2616 C 0.70569 0.5098 0.64448 0.0
H2617 H 0.7959 0.60795 0.59482 0.0
H2618 H 0.77004 0.58621 0.60948 0.0
C2619 C 0.69174 0.49727 0.65315 0.0
C2620 C 0.72291 0.51656 0.62212 0.0
H2621 H 0.77677 0.54023 0.61836 0.0
C2622 C 0.71289 0.52518 0.6105 0.0
C2623 C 0.74636 0.5219 0.6249 0.0
C2624 C 0.75872 0.5122 0.63679 0.0
C2625 C 0.72545 0.5393 0.60176 0.0
C2626 C 0.74878 0.54482 0.60463 0.0
C2627 C 0.75883 0.53618 0.61622 0.0
C2628 C 0.76333 0.55878 0.59551 0.0
C2629 C 0.7135 0.54858 0.58965 0.0
C2630 C 0.76812 0.55065 0.58278 0.0
C2631 C 0.78276 0.56306 0.5744 0.0
C2632 C 0.79313 0.58385 0.57855 0.0
C2633 C 0.78801 0.59218 0.59124 0.0
C2634 C 0.77337 0.57968 0.59966 0.0
H2635 H 0.69437 0.54807 0.59067 0.0
H2636 H 0.71889 0.56666 0.5876 0.0
H2637 H 0.71829 0.53781 0.58104 0.0
H2638 H 0.76091 0.53441 0.57941 0.0
H2639 H 0.78615 0.55622 0.56467 0.0
H2640 H 0.19642 0.54099 0.08727 0.0
H2641 H 0.23025 0.52281 0.09725 0.0
H2642 H 0.266 0.58826 0.09697 0.0
H2643 H 0.23184 0.60679 0.0873 0.0
H2644 H 0.27709 0.51982 0.08913 0.0
H2645 H 0.26669 0.5686 0.13605 0.0
H2646 H 0.24424 0.56755 0.12372 0.0
H2647 H 0.26923 0.58548 0.12125 0.0
C2648 C 0.21143 0.55157 0.08936 0.0
C2649 C 0.21126 0.57542 0.08667 0.0
C2650 C 0.23084 0.5411 0.09495 0.0
C2651 C 0.25051 0.55424 0.09801 0.0
C2652 C 0.25085 0.57787 0.09485 0.0
H2653 H 0.3725 0.48374 0.13255 0.0
H2654 H 0.34952 0.50863 0.11798 0.0
C2655 C 0.23138 0.58839 0.08922 0.0
C2656 C 0.26997 0.54315 0.10513 0.0
H2657 H 0.29575 0.54037 0.13536 0.0
C2658 C 0.28147 0.52451 0.09917 0.0
C2659 C 0.27548 0.54925 0.11826 0.0
C2660 C 0.26322 0.56869 0.12529 0.0
C2661 C 0.2978 0.5113 0.10615 0.0
C2662 C 0.30278 0.51701 0.11938 0.0
C2663 C 0.29193 0.53616 0.12518 0.0
C2664 C 0.31708 0.50185 0.12788 0.0
C2665 C 0.30871 0.49062 0.09958 0.0
C2666 C 0.30647 0.48993 0.13826 0.0
C2667 C 0.31944 0.47568 0.14652 0.0
C2668 C 0.34343 0.47314 0.14467 0.0
C2669 C 0.35406 0.48508 0.13419 0.0
C2670 C 0.34097 0.49936 0.12587 0.0
H2671 H 0.30089 0.48692 0.08981 0.0
H2672 H 0.32747 0.49388 0.09817 0.0
H2673 H 0.30689 0.47507 0.10591 0.0
H2674 H 0.28803 0.49154 0.13993 0.0
H2675 H 0.31051 0.46647 0.15427 0.0
H2676 H 0.14128 0.52447 0.85384 0.0
H2677 H 0.17578 0.54593 0.86 0.0
H2678 H 0.21721 0.50151 0.83535 0.0
H2679 H 0.18233 0.47929 0.82947 0.0
H2680 H 0.23486 0.50413 0.85946 0.0
H2681 H 0.21659 0.59312 0.8434 0.0
H2682 H 0.19271 0.58248 0.85286 0.0
H2683 H 0.20007 0.56875 0.83747 0.0
C2684 C 0.15767 0.51951 0.84953 0.0
C2685 C 0.15915 0.50008 0.84127 0.0
C2686 C 0.1774 0.532 0.85294 0.0
C2687 C 0.19916 0.52563 0.84802 0.0
C2688 C 0.20059 0.50689 0.8392 0.0
H2689 H 0.31527 0.60779 0.88031 0.0
H2690 H 0.28851 0.59038 0.86433 0.0
C2691 C 0.18068 0.49429 0.83577 0.0
C2692 C 0.22029 0.53679 0.85351 0.0
H2693 H 0.24191 0.58942 0.86263 0.0
C2694 C 0.23667 0.52278 0.85988 0.0
C2695 C 0.22302 0.56113 0.85393 0.0
C2696 C 0.20726 0.57717 0.84641 0.0
C2697 C 0.25466 0.53241 0.8674 0.0
C2698 C 0.25597 0.55673 0.86891 0.0
C2699 C 0.24065 0.57078 0.86175 0.0
C2700 C 0.27209 0.56771 0.8785 0.0
C2701 C 0.27184 0.51635 0.87384 0.0
C2702 C 0.27133 0.56131 0.89183 0.0
C2703 C 0.28655 0.57116 0.90092 0.0
C2704 C 0.30274 0.58793 0.89696 0.0
C2705 C 0.30297 0.59498 0.88369 0.0
C2706 C 0.28777 0.58495 0.87454 0.0
H2707 H 0.27354 0.49996 0.86822 0.0
H2708 H 0.28918 0.52449 0.87467 0.0
H2709 H 0.26569 0.51188 0.88388 0.0
H2710 H 0.25886 0.54867 0.89524 0.0
H2711 H 0.28552 0.56573 0.91111 0.0
H2712 H 0.30511 0.45973 0.58837 0.0
H2713 H 0.27734 0.47927 0.60264 0.0
H2714 H 0.23873 0.4159 0.60668 0.0
H2715 H 0.26613 0.39625 0.59219 0.0
H2716 H 0.22818 0.48368 0.59928 0.0
H2717 H 0.25133 0.43666 0.64517 0.0
H2718 H 0.26985 0.43703 0.63084 0.0
H2719 H 0.24479 0.41866 0.63123 0.0
C2720 C 0.29062 0.44993 0.59215 0.0
C2721 C 0.28801 0.4263 0.58914 0.0
C2722 C 0.27483 0.46113 0.60039 0.0
C2723 C 0.25621 0.44895 0.60588 0.0
C2724 C 0.25328 0.4255 0.60276 0.0
H2725 H 0.14101 0.4799 0.65648 0.0
H2726 H 0.17156 0.4625 0.64324 0.0
C2727 C 0.26901 0.41428 0.59448 0.0
C2728 C 0.23964 0.46089 0.61471 0.0
H2729 H 0.21852 0.46113 0.64611 0.0
C2730 C 0.22614 0.4789 0.60955 0.0
C2731 C 0.23704 0.45453 0.62808 0.0
C2732 C 0.25163 0.43579 0.63423 0.0
C2733 C 0.20961 0.49034 0.61732 0.0
C2734 C 0.20695 0.48396 0.6307 0.0
C2735 C 0.22064 0.46608 0.63588 0.0
C2736 C 0.18922 0.49477 0.63931 0.0
C2737 C 0.1946 0.50858 0.61098 0.0
C2738 C 0.1893 0.51865 0.64185 0.0
C2739 C 0.17166 0.52872 0.64937 0.0
C2740 C 0.15368 0.51505 0.65453 0.0
C2741 C 0.1543 0.491 0.65244 0.0
C2742 C 0.17186 0.481 0.64493 0.0
H2743 H 0.19488 0.50737 0.60006 0.0
H2744 H 0.17641 0.50708 0.61438 0.0
H2745 H 0.20111 0.52594 0.61378 0.0
H2746 H 0.20283 0.52955 0.63786 0.0
H2747 H 0.17168 0.54727 0.65074 0.0
H2748 H 0.34898 0.53867 0.35477 0.0
H2749 H 0.32765 0.51237 0.3692 0.0
H2750 H 0.28612 0.49006 0.3363 0.0
H2751 H 0.30761 0.51623 0.32171 0.0
H2752 H 0.27657 0.5141 0.37222 0.0
H2753 H 0.30969 0.42894 0.35505 0.0
H2754 H 0.32563 0.45552 0.35268 0.0
H2755 H 0.30081 0.4494 0.34267 0.0
C2756 C 0.33559 0.5279 0.35053 0.0
C2757 C 0.33004 0.52948 0.33706 0.0
C2758 C 0.32335 0.51297 0.35881 0.0
C2759 C 0.3055 0.49914 0.35378 0.0
C2760 C 0.30004 0.50042 0.34033 0.0
H2761 H 0.20924 0.40254 0.39026 0.0
H2762 H 0.23377 0.42411 0.37484 0.0
C2763 C 0.31218 0.5155 0.33204 0.0
C2764 C 0.2917 0.48446 0.36279 0.0
H2765 H 0.28011 0.42841 0.3711 0.0
C2766 C 0.27735 0.49536 0.37202 0.0
C2767 C 0.29265 0.46007 0.36238 0.0
C2768 C 0.3081 0.44765 0.35273 0.0
C2769 C 0.26369 0.48252 0.38079 0.0
C2770 C 0.26497 0.45805 0.38062 0.0
C2771 C 0.27923 0.44714 0.37129 0.0
C2772 C 0.25149 0.44361 0.38999 0.0
C2773 C 0.24757 0.49534 0.38992 0.0
C2774 C 0.25384 0.4468 0.40364 0.0
C2775 C 0.23971 0.43469 0.41242 0.0
C2776 C 0.22329 0.41876 0.40775 0.0
C2777 C 0.22182 0.41462 0.39413 0.0
C2778 C 0.23577 0.42699 0.38532 0.0
H2779 H 0.24357 0.51294 0.38616 0.0
H2780 H 0.23105 0.48581 0.39127 0.0
H2781 H 0.25596 0.4973 0.39969 0.0
H2782 H 0.26636 0.45897 0.4075 0.0
H2783 H 0.24149 0.43788 0.42288 0.0
H2784 H 0.15865 0.0618 0.29464 0.0
H2785 H 0.17735 0.0309 0.28188 0.0
H2786 H 0.11818 0.02829 0.25602 0.0
H2787 H 0.09921 0.05842 0.26895 0.0
H2788 H 0.15125 0.9863 0.27965 0.0
H2789 H 0.17702 0.02238 0.23139 0.0
H2790 H 0.17565 0.03963 0.24625 0.0
H2791 H 0.14974 0.03341 0.23708 0.0
C2792 C 0.15005 0.05513 0.28595 0.0
C2793 C 0.12753 0.06237 0.28271 0.0
C2794 C 0.16071 0.0375 0.27873 0.0
C2795 C 0.1492 0.02754 0.26797 0.0
C2796 C 0.12747 0.03604 0.26418 0.0
H2797 H 0.091 0.92673 0.23286 0.0
H2798 H 0.11136 0.94793 0.25001 0.0
C2799 C 0.11662 0.05318 0.27156 0.0
C2800 C 0.15744 0.00587 0.26192 0.0
H2801 H 0.16292 0.98267 0.23133 0.0
C2802 C 0.15476 0.98537 0.26917 0.0
C2803 C 0.16242 0.00472 0.24834 0.0
C2804 C 0.16661 0.02624 0.24032 0.0
C2805 C 0.15372 0.96389 0.26279 0.0
C2806 C 0.15536 0.96312 0.24892 0.0
C2807 C 0.16138 0.98326 0.24197 0.0
C2808 C 0.14527 0.94386 0.24124 0.0
C2809 C 0.14889 0.9425 0.27081 0.0
C2810 C 0.15768 0.93359 0.23091 0.0
C2811 C 0.14599 0.92119 0.22112 0.0
C2812 C 0.12172 0.91952 0.22139 0.0
C2813 C 0.10969 0.92783 0.23241 0.0
C2814 C 0.12139 0.93982 0.24228 0.0
H2815 H 0.15687 0.94387 0.28074 0.0
H2816 H 0.12993 0.94066 0.27217 0.0
H2817 H 0.15552 0.92673 0.26585 0.0
H2818 H 0.17608 0.93669 0.22987 0.0
H2819 H 0.15572 0.91498 0.21274 0.0
H2820 H 0.17344 0.88975 0.5359 0.0
H2821 H 0.19628 0.9031 0.51695 0.0
H2822 H 0.25089 0.85579 0.52745 0.0
H2823 H 0.22847 0.84246 0.54628 0.0
H2824 H 0.26527 0.90344 0.52148 0.0
H2825 H 0.20881 0.86316 0.48328 0.0
H2826 H 0.19546 0.88148 0.49542 0.0
H2827 H 0.2077 0.85432 0.50033 0.0
C2828 C 0.19025 0.88211 0.5341 0.0
C2829 C 0.19911 0.86498 0.54255 0.0
C2830 C 0.20327 0.88979 0.52332 0.0
C2831 C 0.22523 0.88039 0.52085 0.0
C2832 C 0.23403 0.86333 0.52926 0.0
H2833 H 0.33765 0.87278 0.46733 0.0
H2834 H 0.31381 0.8779 0.48711 0.0
C2835 C 0.2211 0.85565 0.53997 0.0
C2836 C 0.23911 0.8876 0.50935 0.0
H2837 H 0.24345 0.87979 0.47622 0.0
C2838 C 0.26042 0.89862 0.51152 0.0
C2839 C 0.2326 0.88139 0.49643 0.0
C2840 C 0.20997 0.86933 0.49362 0.0
C2841 C 0.27577 0.903 0.5011 0.0
C2842 C 0.26986 0.89556 0.48826 0.0
C2843 C 0.24805 0.88547 0.48606 0.0
C2844 C 0.28633 0.89639 0.47706 0.0
C2845 C 0.29816 0.91541 0.504 0.0
C2846 C 0.27898 0.90518 0.46487 0.0
C2847 C 0.29222 0.90162 0.45359 0.0
C2848 C 0.31326 0.88963 0.45434 0.0
C2849 C 0.32156 0.8823 0.46662 0.0
C2850 C 0.308 0.88538 0.47791 0.0
H2851 H 0.29626 0.92718 0.51258 0.0
H2852 H 0.31165 0.9025 0.50652 0.0
H2853 H 0.30417 0.92563 0.4954 0.0
H2854 H 0.26239 0.91374 0.46396 0.0
H2855 H 0.28561 0.90751 0.44418 0.0
H2856 H 0.37276 0.08218 0.6991 0.0
H2857 H 0.35739 0.06122 0.71821 0.0
H2858 H 0.42667 0.04163 0.7293 0.0
H2859 H 0.44208 0.06198 0.7101 0.0
H2860 H 0.36896 0.01071 0.71989 0.0
H2861 H 0.39227 0.06004 0.76477 0.0
H2862 H 0.38801 0.07362 0.74889 0.0
H2863 H 0.41474 0.05908 0.75254 0.0
C2864 C 0.38476 0.07403 0.70585 0.0
C2865 C 0.40863 0.07358 0.70311 0.0
C2866 C 0.37593 0.06204 0.71673 0.0
C2867 C 0.39093 0.05005 0.72517 0.0
C2868 C 0.41487 0.05106 0.72298 0.0
H2869 H 0.42378 0.93763 0.76688 0.0
H2870 H 0.41268 0.96734 0.75093 0.0
C2871 C 0.42365 0.06261 0.712 0.0
C2872 C 0.38193 0.03348 0.73498 0.0
H2873 H 0.38839 0.01867 0.76726 0.0
C2874 C 0.37244 0.01268 0.73033 0.0
C2875 C 0.38639 0.03619 0.74856 0.0
C2876 C 0.39573 0.05853 0.75404 0.0
C2877 C 0.36951 0.99368 0.73876 0.0
C2878 C 0.37611 0.99574 0.75208 0.0
C2879 C 0.38341 0.0172 0.75699 0.0
C2880 C 0.38004 0.97515 0.76033 0.0
C2881 C 0.36108 0.97101 0.73324 0.0
C2882 C 0.36495 0.96935 0.77063 0.0
C2883 C 0.37106 0.95201 0.77961 0.0
C2884 C 0.39258 0.94081 0.77853 0.0
C2885 C 0.40711 0.94601 0.76788 0.0
C2886 C 0.40079 0.96292 0.75879 0.0
H2887 H 0.35225 0.97335 0.72361 0.0
H2888 H 0.37608 0.95931 0.73179 0.0
H2889 H 0.34901 0.96251 0.74024 0.0
H2890 H 0.34898 0.97883 0.772 0.0
H2891 H 0.35973 0.94847 0.78786 0.0
H2892 H 0.19041 0.09247 0.94881 0.0
H2893 H 0.21546 0.0771 0.96635 0.0
H2894 H 0.25647 0.13941 0.96494 0.0
H2895 H 0.2322 0.15446 0.94745 0.0
H2896 H 0.28334 0.09977 0.96731 0.0
H2897 H 0.21142 0.10123 0.004 0.0
H2898 H 0.20816 0.08386 0.98944 0.0
H2899 H 0.20836 0.11481 0.98811 0.0
C2900 C 0.20484 0.10278 0.95225 0.0
C2901 C 0.2092 0.12477 0.94685 0.0
C2902 C 0.21912 0.09398 0.96224 0.0
C2903 C 0.23774 0.10718 0.967 0.0
C2904 C 0.24231 0.12884 0.96136 0.0
H2905 H 0.29393 0.16006 0.03102 0.0
H2906 H 0.27623 0.14471 0.01108 0.0
C2907 C 0.22826 0.13751 0.95141 0.0
C2908 C 0.25171 0.10002 0.97852 0.0
H2909 H 0.24913 0.10141 0.01205 0.0
C2910 C 0.27591 0.09932 0.97712 0.0
C2911 C 0.2419 0.09925 0.99127 0.0
C2912 C 0.21606 0.09988 0.99341 0.0
C2913 C 0.29053 0.10067 0.98814 0.0
C2914 C 0.2806 0.10244 0.00078 0.0
C2915 C 0.25657 0.10025 0.00226 0.0
C2916 C 0.29379 0.11172 0.01206 0.0
C2917 C 0.31631 0.10252 0.98615 0.0
C2918 C 0.31018 0.09849 0.01894 0.0
C2919 C 0.32063 0.10743 0.03033 0.0
C2920 C 0.31449 0.12952 0.03497 0.0
C2921 C 0.29886 0.14296 0.0277 0.0
C2922 C 0.28869 0.13418 0.01635 0.0
H2923 H 0.32131 0.10053 0.97564 0.0
H2924 H 0.32249 0.1196 0.9897 0.0
H2925 H 0.32524 0.089 0.99201 0.0
H2926 H 0.31424 0.08108 0.01579 0.0
H2927 H 0.3325 0.09666 0.03586 0.0
H2928 H 0.84972 0.93536 0.70332 0.0
H2929 H 0.83308 0.96039 0.72055 0.0
H2930 H 0.89977 0.96397 0.73954 0.0
H2931 H 0.91632 0.93953 0.72245 0.0
H2932 H 0.85737 0.95972 0.75702 0.0
H2933 H 0.8563 0.03075 0.71979 0.0
H2934 H 0.84257 1.00334 0.7165 0.0
H2935 H 0.87352 0.00527 0.71683 0.0
C2936 C 0.86053 0.94098 0.71143 0.0
C2937 C 0.88427 0.93574 0.71161 0.0
C2938 C 0.85107 0.9553 0.72118 0.0
C2939 C 0.86528 0.96404 0.73123 0.0
C2940 C 0.88854 0.95731 0.73188 0.0
H2941 H 0.92631 0.04664 0.78028 0.0
H2942 H 0.90712 0.01993 0.76528 0.0
C2943 C 0.89799 0.94343 0.72211 0.0
C2944 C 0.8576 0.9825 0.74024 0.0
H2945 H 0.86188 0.04123 0.74199 0.0
C2946 C 0.85721 0.97759 0.75377 0.0
C2947 C 0.85737 0.00576 0.73594 0.0
C2948 C 0.85741 0.01181 0.72148 0.0
C2949 C 0.85944 0.99532 0.76307 0.0
C2950 C 0.86233 0.0183 0.75866 0.0
C2951 C 0.85978 0.0235 0.74527 0.0
C2952 C 0.87334 0.03561 0.76726 0.0
C2953 C 0.86107 0.98923 0.77748 0.0
C2954 C 0.8607 0.05363 0.773 0.0
C2955 C 0.87167 0.06902 0.78163 0.0
C2956 C 0.89539 0.06656 0.78453 0.0
C2957 C 0.90804 0.04897 0.77832 0.0
C2958 C 0.8971 0.03365 0.76978 0.0
H2959 H 0.85285 0.97226 0.77959 0.0
H2960 H 0.87957 0.98818 0.78035 0.0
H2961 H 0.85273 1.00274 0.78363 0.0
H2962 H 0.84236 0.05542 0.77105 0.0
H2963 H 0.86146 0.08243 0.78627 0.0
H2964 H 0.67833 0.11521 0.54004 0.0
H2965 H 0.70235 0.10993 0.52029 0.0
H2966 H 0.74788 0.16428 0.5336 0.0
H2967 H 0.72458 0.16909 0.55334 0.0
H2968 H 0.71227 0.13827 0.50081 0.0
H2969 H 0.79429 0.11541 0.52501 0.0
H2970 H 0.7671 0.11552 0.53375 0.0
H2971 H 0.78362 0.14181 0.53192 0.0
C2972 C 0.69348 0.12598 0.5387 0.0
C2973 C 0.6997 0.14247 0.54823 0.0
C2974 C 0.70725 0.12286 0.52749 0.0
C2975 C 0.72733 0.13621 0.52568 0.0
C2976 C 0.73302 0.15313 0.53502 0.0
H2977 H 0.78738 0.19098 0.45753 0.0
H2978 H 0.76646 0.18018 0.47744 0.0
C2979 C 0.71951 0.15606 0.54623 0.0
C2980 C 0.74165 0.13393 0.51365 0.0
H2981 H 0.79792 0.13412 0.50344 0.0
C2982 C 0.73096 0.13686 0.50136 0.0
C2983 C 0.766 0.13133 0.51428 0.0
C2984 C 0.77834 0.12555 0.52696 0.0
C2985 C 0.74411 0.13932 0.48986 0.0
C2986 C 0.76855 0.13965 0.49076 0.0
C2987 C 0.77919 0.13461 0.50283 0.0
C2988 C 0.7831 0.14684 0.47948 0.0
C2989 C 0.73165 0.14204 0.47688 0.0
C2990 C 0.80062 0.1324 0.4746 0.0
C2991 C 0.81302 0.1388 0.46333 0.0
C2992 C 0.80793 0.15964 0.45679 0.0
C2993 C 0.79144 0.17466 0.46223 0.0
C2994 C 0.7793 0.1684 0.47353 0.0
H2995 H 0.71451 0.13333 0.4771 0.0
H2996 H 0.72862 0.16068 0.47496 0.0
H2997 H 0.74191 0.1348 0.46861 0.0
H2998 H 0.8041 0.11587 0.4792 0.0
H2999 H 0.82577 0.12694 0.45942 0.0
H3000 H 0.63685 0.07186 0.2082 0.0
H3001 H 0.63912 0.0489 0.22854 0.0
H3002 H 0.58502 0.0042 0.21405 0.0
H3003 H 0.58319 0.02645 0.19372 0.0
H3004 H 0.60831 0.03995 0.24732 0.0
H3005 H 0.63291 0.95742 0.22421 0.0
H3006 H 0.63385 0.98452 0.21539 0.0
H3007 H 0.6072 0.96843 0.21659 0.0
C3008 C 0.62546 0.05714 0.20941 0.0
C3009 C 0.60998 0.05079 0.19937 0.0
C3010 C 0.62684 0.04399 0.22098 0.0
C3011 C 0.61272 0.02442 0.22263 0.0
C3012 C 0.59669 0.01869 0.21279 0.0
H3013 H 0.55765 0.96319 0.2917 0.0
H3014 H 0.56751 0.98545 0.27204 0.0
C3015 C 0.59551 0.03157 0.20122 0.0
C3016 C 0.61373 0.01036 0.23482 0.0
H3017 H 0.61383 0.9544 0.24547 0.0
C3018 C 0.60991 0.02128 0.24696 0.0
C3019 C 0.61657 0.98606 0.23443 0.0
C3020 C 0.62315 0.9735 0.22196 0.0
C3021 C 0.60716 0.00838 0.25855 0.0
C3022 C 0.60741 0.98392 0.25788 0.0
C3023 C 0.61296 0.97311 0.24593 0.0
C3024 C 0.60097 0.96932 0.2693 0.0
C3025 C 0.60387 0.02113 0.27138 0.0
C3026 C 0.61583 0.9518 0.27378 0.0
C3027 C 0.60993 0.93861 0.28483 0.0
C3028 C 0.58913 0.94285 0.2916 0.0
C3029 C 0.57387 0.9597 0.28675 0.0
C3030 C 0.57963 0.97262 0.27562 0.0
H3031 H 0.61223 0.03843 0.27107 0.0
H3032 H 0.58511 0.02384 0.27311 0.0
H3033 H 0.61112 0.01128 0.27981 0.0
H3034 H 0.63225 0.94875 0.26896 0.0
H3035 H 0.6221 0.9258 0.28839 0.0
H3036 H 0.83843 0.8987 0.02966 0.0
H3037 H 0.81404 0.91822 0.0132 0.0
H3038 H 0.78263 0.85295 0.00321 0.0
H3039 H 0.80662 0.83342 0.01958 0.0
H3040 H 0.80047 0.89585 0.98149 0.0
H3041 H 0.73483 0.91029 0.0207 0.0
H3042 H 0.76559 0.91181 0.02385 0.0
H3043 H 0.75192 0.88427 0.02157 0.0
C3044 C 0.82684 0.88844 0.02366 0.0
C3045 C 0.82431 0.86454 0.02592 0.0
C3046 C 0.81285 0.89964 0.01435 0.0
C3047 C 0.79648 0.88697 0.00716 0.0
C3048 C 0.79516 0.86295 0.00874 0.0
H3049 H 0.68939 0.85812 0.96253 0.0
H3050 H 0.71455 0.86991 0.98064 0.0
C3051 C 0.80891 0.85183 0.01806 0.0
C3052 C 0.77914 0.89843 -0.00127 0.0
H3053 H 0.72122 0.90965 -0.00145 0.0
C3054 C 0.78333 0.89982 0.98518 0.0
C3055 C 0.75689 0.9035 0.0037 0.0
C3056 C 0.7519 0.90257 0.01826 0.0
C3057 C 0.7652 0.90406 0.9763 0.0
C3058 C 0.74242 0.90693 0.98119 0.0
C3059 C 0.7387 0.90759 0.99484 0.0
C3060 C 0.72225 0.90359 0.97242 0.0
C3061 C 0.77011 0.90312 0.96171 0.0
C3062 C 0.71708 0.91924 0.96226 0.0
C3063 C 0.70234 0.91258 0.95197 0.0
C3064 C 0.69283 0.89025 0.95181 0.0
C3065 C 0.69629 0.87555 0.9626 0.0
C3066 C 0.71072 0.88226 0.9729 0.0
H3067 H 0.78862 0.89957 0.95957 0.0
H3068 H 0.75944 0.88945 0.95701 0.0
H3069 H 0.76543 0.91988 0.95711 0.0
H3070 H 0.7258 0.9358 0.96175 0.0
H3071 H 0.70022 0.92396 0.94357 0.0
H3072 H 0.65281 0.57108 0.79015 0.0
H3073 H 0.66965 0.54938 0.77176 0.0
H3074 H 0.60278 0.54676 0.75297 0.0
H3075 H 0.58588 0.56795 0.77136 0.0
H3076 H 0.65138 0.5045 0.76814 0.0
H3077 H 0.64738 0.55361 0.72153 0.0
H3078 H 0.64831 0.56756 0.73747 0.0
H3079 H 0.62135 0.55686 0.73098 0.0
C3080 C 0.64195 0.56676 0.78182 0.0
C3081 C 0.618 0.57102 0.78218 0.0
C3082 C 0.65159 0.5543 0.77134 0.0
C3083 C 0.63749 0.54654 0.76098 0.0
C3084 C 0.61407 0.55289 0.76074 0.0
H3085 H 0.59198 0.4374 0.7205 0.0
H3086 H 0.60655 0.46488 0.73679 0.0
C3087 C 0.60438 0.56492 0.77129 0.0
C3088 C 0.64542 0.52801 0.752 0.0
H3089 H 0.6417 0.51179 0.71979 0.0
C3090 C 0.65011 0.50623 0.75752 0.0
C3091 C 0.64392 0.53027 0.73817 0.0
C3092 C 0.6402 0.55342 0.73169 0.0
C3093 C 0.65076 0.4863 0.74967 0.0
C3094 C 0.64673 0.4883 0.73602 0.0
C3095 C 0.64457 0.51031 0.73032 0.0
C3096 C 0.64044 0.46801 0.72795 0.0
C3097 C 0.65405 0.46303 0.75608 0.0
C3098 C 0.65509 0.45997 0.71796 0.0
C3099 C 0.64697 0.44378 0.70881 0.0
C3100 C 0.62383 0.43612 0.70927 0.0
C3101 C 0.60982 0.44304 0.71985 0.0
C3102 C 0.61811 0.45875 0.72915 0.0
H3103 H 0.66224 0.46463 0.76594 0.0
H3104 H 0.63692 0.45461 0.75732 0.0
H3105 H 0.66488 0.45166 0.7498 0.0
H3106 H 0.67235 0.46702 0.71688 0.0
H3107 H 0.65823 0.43878 0.70078 0.0
H3108 H 0.68472 0.33412 0.02384 0.0
H3109 H 0.71502 0.34509 0.00828 0.0
H3110 H 0.71949 0.41254 0.02612 0.0
H3111 H 0.68887 0.40179 0.04176 0.0
H3112 H 0.71913 0.39386 0.99118 0.0
H3113 H 0.78533 0.37099 0.02897 0.0
H3114 H 0.75763 0.35657 0.02921 0.0
H3115 H 0.75937 0.38669 0.03321 0.0
C3116 C 0.69179 0.35145 0.0243 0.0
C3117 C 0.68453 0.36704 0.03405 0.0
C3118 C 0.70905 0.35769 0.01541 0.0
C3119 C 0.71945 0.37953 0.01616 0.0
C3120 C 0.71155 0.39562 0.02543 0.0
H3121 H 0.83298 0.39345 0.95799 0.0
H3122 H 0.80889 0.40709 0.9764 0.0
C3123 C 0.69405 0.38946 0.0343 0.0
C3124 C 0.73986 0.38423 0.00789 0.0
H3125 H 0.79752 0.37184 0.00672 0.0
C3126 C 0.73645 0.38992 0.99463 0.0
C3127 C 0.76232 0.37896 0.0125 0.0
C3128 C 0.76661 0.373 0.02676 0.0
C3129 C 0.75477 0.38876 0.9856 0.0
C3130 C 0.7768 0.38151 0.99 0.0
C3131 C 0.78059 0.37752 0.00344 0.0
C3132 C 0.79427 0.37343 0.9805 0.0
C3133 C 0.75013 0.39334 0.97121 0.0
C3134 C 0.7944 0.34997 0.97709 0.0
C3135 C 0.80784 0.34223 0.96661 0.0
C3136 C 0.82156 0.3578 0.95945 0.0
C3137 C 0.82266 0.38107 0.96344 0.0
C3138 C 0.8089 0.3889 0.97388 0.0
H3139 H 0.7325 0.40035 0.9695 0.0
H3140 H 0.76303 0.40581 0.96729 0.0
H3141 H 0.752 0.37701 0.96556 0.0
H3142 H 0.78315 0.33784 0.98212 0.0
H3143 H 0.80674 0.32421 0.96376 0.0
H3144 H 0.86224 0.43539 0.29206 0.0
H3145 H 0.84894 0.45723 0.27265 0.0
H3146 H 0.91159 0.49777 0.27366 0.0
H3147 H 0.92465 0.47652 0.29298 0.0
H3148 H 0.86921 0.52397 0.27287 0.0
H3149 H 0.87404 0.4558 0.2341 0.0
H3150 H 0.85868 0.45006 0.24919 0.0
H3151 H 0.88957 0.45275 0.24944 0.0
C3152 C 0.87328 0.4487 0.28795 0.0
C3153 C 0.89443 0.45437 0.294 0.0
C3154 C 0.86564 0.46118 0.27693 0.0
C3155 C 0.87925 0.47919 0.27182 0.0
C3156 C 0.90074 0.48411 0.27757 0.0
H3157 H 0.92223 0.54739 0.20747 0.0
H3158 H 0.91103 0.52492 0.22672 0.0
C3159 C 0.90822 0.47189 0.28856 0.0
C3160 C 0.87154 0.49366 0.26065 0.0
H3161 H 0.87163 0.49432 0.22711 0.0
C3162 C 0.86904 0.5175 0.26284 0.0
C3163 C 0.87112 0.48502 0.24766 0.0
C3164 C 0.87352 0.45953 0.24483 0.0
C3165 C 0.86858 0.53321 0.25231 0.0
C3166 C 0.87039 0.52469 0.23933 0.0
C3167 C 0.87042 0.50071 0.23713 0.0
C3168 C 0.87686 0.53995 0.22826 0.0
C3169 C 0.86829 0.5588 0.25516 0.0
C3170 C 0.86159 0.55645 0.22303 0.0
C3171 C 0.86814 0.56966 0.21206 0.0
C3172 C 0.88988 0.56622 0.20616 0.0
C3173 C 0.90534 0.55033 0.21177 0.0
C3174 C 0.89891 0.53738 0.22272 0.0
H3175 H 0.86824 0.56254 0.26589 0.0
H3176 H 0.88364 0.56723 0.25066 0.0
H3177 H 0.85263 0.56668 0.25071 0.0
H3178 H 0.84446 0.5586 0.22717 0.0
H3179 H 0.85582 0.58165 0.20783 0.0
H3180 H 0.81875 0.67144 0.51146 0.0
H3181 H 0.79263 0.65297 0.49583 0.0
H3182 H 0.81148 0.58594 0.51101 0.0
H3183 H 0.83798 0.60438 0.52668 0.0
H3184 H 0.79503 0.6146 0.4764 0.0
H3185 H 0.74133 0.59662 0.52092 0.0
H3186 H 0.7651 0.6168 0.52164 0.0
H3187 H 0.77074 0.58644 0.52013 0.0
C3188 C 0.81798 0.65273 0.51118 0.0
C3189 C 0.8301 0.6394 0.52044 0.0
C3190 C 0.80305 0.64218 0.50223 0.0
C3191 C 0.79985 0.61814 0.50245 0.0
C3192 C 0.81359 0.60454 0.5108 0.0
H3193 H 0.68285 0.60444 0.44831 0.0
H3194 H 0.71193 0.58491 0.462 0.0
C3195 C 0.82879 0.61512 0.5197 0.0
C3196 C 0.77971 0.60846 0.49536 0.0
H3197 H 0.72215 0.59914 0.50065 0.0
C3198 C 0.77922 0.61024 0.4816 0.0
C3199 C 0.75919 0.60277 0.50224 0.0
C3200 C 0.75888 0.60052 0.51705 0.0
C3201 C 0.75827 0.60894 0.47464 0.0
C3202 C 0.73737 0.60578 0.48171 0.0
C3203 C 0.73822 0.60149 0.4953 0.0
C3204 C 0.71507 0.61309 0.47589 0.0
C3205 C 0.75836 0.6135 0.45999 0.0
C3206 C 0.70603 0.63454 0.47976 0.0
C3207 C 0.68958 0.64567 0.472 0.0
C3208 C 0.6817 0.63536 0.46034 0.0
C3209 C 0.68852 0.61263 0.45734 0.0
C3210 C 0.70528 0.60155 0.46507 0.0
H3211 H 0.77607 0.61649 0.45611 0.0
H3212 H 0.75078 0.59848 0.45473 0.0
H3213 H 0.7476 0.62889 0.45771 0.0
H3214 H 0.71334 0.64373 0.48809 0.0
H3215 H 0.68463 0.66321 0.47445 0.0
H3216 H 0.42875 0.57966 0.27053 0.0
H3217 H 0.41947 0.55944 0.25009 0.0
H3218 H 0.34998 0.54755 0.26398 0.0
H3219 H 0.35902 0.56849 0.28434 0.0
H3220 H 0.38093 0.50704 0.2598 0.0
H3221 H 0.37631 0.56513 0.21646 0.0
H3222 H 0.39862 0.57252 0.22807 0.0
H3223 H 0.36879 0.57437 0.23294 0.0
C3224 C 0.4112 0.57369 0.26894 0.0
C3225 C 0.3946 0.57557 0.27895 0.0
C3226 C 0.40588 0.5622 0.25727 0.0
C3227 C 0.38404 0.55209 0.25555 0.0
C3228 C 0.36684 0.5555 0.2651 0.0
H3229 H 0.38211 0.43177 0.20181 0.0
H3230 H 0.36872 0.45805 0.2191 0.0
C3231 C 0.37201 0.56752 0.27668 0.0
C3232 C 0.38135 0.53422 0.24532 0.0
H3233 H 0.38858 0.52605 0.21239 0.0
C3234 C 0.38195 0.51103 0.24937 0.0
C3235 C 0.38273 0.53965 0.23181 0.0
C3236 C 0.38137 0.56428 0.22701 0.0
C3237 C 0.38615 0.49317 0.24034 0.0
C3238 C 0.38918 0.49878 0.22689 0.0
C3239 C 0.38656 0.52183 0.22273 0.0
C3240 C 0.3976 0.48167 0.21718 0.0
C3241 C 0.38908 0.46882 0.24542 0.0
C3242 C 0.41837 0.48607 0.21049 0.0
C3243 C 0.4258 0.47139 0.20049 0.0
C3244 C 0.41268 0.4519 0.19703 0.0
C3245 C 0.39258 0.44669 0.20426 0.0
C3246 C 0.38492 0.46166 0.21416 0.0
H3247 H 0.39083 0.46828 0.25632 0.0
H3248 H 0.37369 0.45842 0.24267 0.0
H3249 H 0.40456 0.46054 0.24099 0.0
H3250 H 0.42857 0.50128 0.21277 0.0
H3251 H 0.44142 0.47578 0.19515 0.0
H3252 H 0.3465 0.60439 0.95778 0.0
H3253 H 0.32228 0.58812 0.97548 0.0
H3254 H 0.27955 0.64922 0.97455 0.0
H3255 H 0.3032 0.66527 0.95699 0.0
H3256 H 0.30973 0.60487 0.0007 0.0
H3257 H 0.23284 0.59668 0.96907 0.0
H3258 H 0.26169 0.59991 0.96244 0.0
H3259 H 0.24515 0.62495 0.96724 0.0
C3260 C 0.33211 0.61441 0.96152 0.0
C3261 C 0.32653 0.63598 0.95594 0.0
C3262 C 0.31823 0.60504 0.97152 0.0
C3263 C 0.2987 0.61716 0.97597 0.0
C3264 C 0.29408 0.63925 0.97093 0.0
H3265 H 0.22961 0.65411 0.04033 0.0
H3266 H 0.25654 0.64044 0.0238 0.0
C3267 C 0.30774 0.6485 0.96098 0.0
C3268 C 0.28292 0.60756 0.98603 0.0
H3269 H 0.22511 0.60549 0.99237 0.0
C3270 C 0.29126 0.60422 -0.00115 0.0
C3271 C 0.25891 0.60573 0.98355 0.0
C3272 C 0.24918 0.60673 0.96978 0.0
C3273 C 0.2759 0.60225 0.00949 0.0
C3274 C 0.25182 0.60442 0.00719 0.0
C3275 C 0.24357 0.6045 0.99421 0.0
C3276 C 0.23565 0.61115 0.01784 0.0
C3277 C 0.28568 0.5992 0.02315 0.0
C3278 C 0.2143 0.59992 0.0196 0.0
C3279 C 0.19846 0.6081 0.02895 0.0
C3280 C 0.20379 0.62764 0.0366 0.0
C3281 C 0.22504 0.63889 0.03469 0.0
C3282 C 0.24067 0.63086 0.02535 0.0
H3283 H 0.30134 0.58807 0.0229 0.0
H3284 H 0.29101 0.61629 0.02709 0.0
H3285 H 0.27284 0.59137 0.02997 0.0
H3286 H 0.20988 0.58493 0.01372 0.0
H3287 H 0.18221 0.59904 0.03028 0.0
H3288 H 0.15864 0.57366 0.71058 0.0
H3289 H 0.18538 0.55539 0.7264 0.0
H3290 H 0.14417 0.49316 0.7253 0.0
H3291 H 0.11802 0.51092 0.70977 0.0
H3292 H 0.17294 0.54164 0.7506 0.0
H3293 H 0.20719 0.46478 0.7264 0.0
H3294 H 0.19725 0.48956 0.71709 0.0
H3295 H 0.17743 0.46676 0.72169 0.0
C3296 C 0.15566 0.55593 0.71359 0.0
C3297 C 0.1361 0.54379 0.70909 0.0
C3298 C 0.17101 0.54549 0.72252 0.0
C3299 C 0.16721 0.52265 0.72677 0.0
C3300 C 0.14808 0.51045 0.72185 0.0
H3301 H 0.10841 0.4582 0.77364 0.0
H3302 H 0.13564 0.47271 0.75729 0.0
C3303 C 0.13278 0.52085 0.71313 0.0
C3304 C 0.17992 0.51245 0.73804 0.0
H3305 H 0.18791 0.45734 0.74883 0.0
C3306 C 0.17769 0.52351 0.75026 0.0
C3307 C 0.18698 0.48904 0.73772 0.0
C3308 C 0.19261 0.47703 0.72495 0.0
C3309 C 0.17736 0.51057 0.76195 0.0
C3310 C 0.17903 0.48623 0.7612 0.0
C3311 C 0.186 0.47597 0.74934 0.0
C3312 C 0.16519 0.47214 0.77039 0.0
C3313 C 0.1713 0.52245 0.7747 0.0
C3314 C 0.1731 0.4661 0.783 0.0
C3315 C 0.1575 0.4573 0.79234 0.0
C3316 C 0.13389 0.45514 0.78916 0.0
C3317 C 0.1265 0.45982 0.7763 0.0
C3318 C 0.14205 0.46801 0.76697 0.0
H3319 H 0.17449 0.54137 0.77418 0.0
H3320 H 0.1527 0.5196 0.77691 0.0
H3321 H 0.18155 0.51507 0.78294 0.0
H3322 H 0.19088 0.46935 0.78581 0.0
H3323 H 0.16353 0.45382 0.80224 0.0
H3324 H 0.17291 0.39953 0.46323 0.0
H3325 H 0.19823 0.4185 0.47938 0.0
H3326 H 0.23042 0.35296 0.4879 0.0
H3327 H 0.20598 0.33413 0.47155 0.0
H3328 H 0.218 0.39384 0.5106 0.0
H3329 H 0.27429 0.4123 0.46741 0.0
H3330 H 0.24318 0.41536 0.46684 0.0
H3331 H 0.25597 0.38711 0.46651 0.0
C3332 C 0.185 0.3891 0.46876 0.0
C3333 C 0.188 0.36547 0.46587 0.0
C3334 C 0.19937 0.39997 0.47799 0.0
C3335 C 0.2163 0.3871 0.4846 0.0
C3336 C 0.21747 0.36312 0.48278 0.0
H3337 H 0.32005 0.33985 0.52028 0.0
H3338 H 0.2942 0.35846 0.50452 0.0
C3339 C 0.2035 0.3524 0.47345 0.0
C3340 C 0.23515 0.39824 0.49199 0.0
H3341 H 0.29323 0.40553 0.488 0.0
C3342 C 0.23429 0.39766 0.50576 0.0
C3343 C 0.25625 0.40324 0.48556 0.0
C3344 C 0.25762 0.40472 0.47075 0.0
C3345 C 0.25465 0.39913 0.51322 0.0
C3346 C 0.27617 0.40082 0.50663 0.0
C3347 C 0.27668 0.40422 0.49298 0.0
C3348 C 0.2973 0.39248 0.5132 0.0
C3349 C 0.25335 0.396 0.52796 0.0
C3350 C 0.30882 0.40589 0.52263 0.0
C3351 C 0.32401 0.3953 0.53151 0.0
C3352 C 0.32724 0.37119 0.53119 0.0
C3353 C 0.31773 0.35842 0.52077 0.0
C3354 C 0.30297 0.36904 0.51178 0.0
H3355 H 0.23526 0.39644 0.53163 0.0
H3356 H 0.26117 0.37915 0.53073 0.0
H3357 H 0.26337 0.40982 0.53296 0.0
H3358 H 0.30461 0.42402 0.52382 0.0
H3359 H 0.33121 0.4056 0.53938 0.0
H3360 H 0.07983 0.18788 0.3241 0.0
H3361 H 0.058 0.22314 0.32878 0.0
H3362 H 0.02146 0.21575 0.29201 0.0
H3363 H 0.04212 0.18015 0.28755 0.0
H3364 H 0.05524 0.26362 0.31651 0.0
H3365 H 0.96798 0.22467 0.31642 0.0
H3366 H 0.99395 0.20738 0.31653 0.0
H3367 H 0.98288 0.21893 0.30129 0.0
C3368 C 0.06694 0.1935 0.31707 0.0
C3369 C 0.06277 0.18076 0.30547 0.0
C3370 C 0.05451 0.21382 0.31974 0.0
C3371 C 0.03758 0.22189 0.31092 0.0
C3372 C 0.03386 0.2096 0.29919 0.0
H3373 H 0.98594 0.3609 0.30201 0.0
H3374 H 0.00621 0.32398 0.30101 0.0
C3375 C 0.0461 0.18927 0.29655 0.0
C3376 C 0.02428 0.24351 0.31366 0.0
H3377 H 0.96953 0.26601 0.31421 0.0
C3378 C 0.03649 0.26406 0.31614 0.0
C3379 C 0.99975 0.24417 0.31347 0.0
C3380 C 0.98538 0.22255 0.31193 0.0
C3381 C 0.02497 0.28527 0.31787 0.0
C3382 C 1.00052 0.28618 0.31677 0.0
C3383 C 0.98826 0.26548 0.31485 0.0
C3384 C 0.98749 0.30846 0.31722 0.0
C3385 C 0.03917 0.30648 0.32098 0.0
C3386 C 0.96934 0.31185 0.32625 0.0
C3387 C 0.95747 0.33302 0.32675 0.0
C3388 C 0.96353 0.35126 0.31823 0.0
C3389 C 0.98119 0.34749 0.30894 0.0
C3390 C 0.99289 0.32635 0.30838 0.0
H3391 H 0.05586 0.30179 0.32573 0.0
H3392 H 0.04321 0.31575 0.31169 0.0
H3393 H 0.02968 0.31845 0.3276 0.0
H3394 H 0.96464 0.29825 0.33309 0.0
H3395 H 0.94402 0.33533 0.33405 0.0
H3396 H 0.91075 0.74407 0.5414 0.0
H3397 H 0.94988 0.75999 0.54078 0.0
H3398 H 0.9777 0.69329 0.55112 0.0
H3399 H 0.9385 0.67723 0.55188 0.0
H3400 H 0.98025 0.76188 0.56187 0.0
H3401 H 0.01964 0.71297 0.5206 0.0
H3402 H 0.98875 0.71423 0.5232 0.0
H3403 H 0.00635 0.69526 0.53302 0.0
C3404 C 0.92516 0.73268 0.54345 0.0
C3405 C 0.92131 0.70932 0.54673 0.0
C3406 C 0.94759 0.74183 0.54305 0.0
C3407 C 0.96686 0.72787 0.5458 0.0
C3408 C 0.96321 0.70436 0.5487 0.0
H3409 H 0.11342 0.75388 0.55824 0.0
H3410 H 0.07536 0.73707 0.55428 0.0
C3411 C 0.94071 0.69516 0.54912 0.0
C3412 C 0.99048 0.73838 0.54652 0.0
H3413 H 0.04511 0.73577 0.53361 0.0
C3414 C 0.99438 0.75626 0.55562 0.0
C3415 C 0.00902 0.73101 0.53844 0.0
C3416 C 0.00578 0.71246 0.52817 0.0
C3417 C 0.01628 0.76663 0.55704 0.0
C3418 C 0.03484 0.75937 0.54891 0.0
C3419 C 0.03095 0.74147 0.5398 0.0
C3420 C 0.05854 0.76963 0.55007 0.0
C3421 C 0.01946 0.78478 0.56757 0.0
C3422 C 0.0622 0.7935 0.54849 0.0
C3423 C 0.08403 0.8033 0.55088 0.0
C3424 C 0.10286 0.78946 0.5549 0.0
C3425 C 0.09941 0.76532 0.55555 0.0
C3426 C 0.07757 0.75558 0.55319 0.0
H3427 H 0.00564 0.78388 0.57515 0.0
H3428 H 0.03648 0.7829 0.57254 0.0
H3429 H 0.01873 0.80218 0.56298 0.0
H3430 H 0.04802 0.80469 0.54569 0.0
H3431 H 0.08573 0.82184 0.55006 0.0
H3432 H 0.42682 0.80268 0.78889 0.0
H3433 H 0.44977 0.76771 0.79177 0.0
H3434 H 0.48524 0.79912 0.82458 0.0
H3435 H 0.46177 0.83414 0.8219 0.0
H3436 H 0.49446 0.76149 0.7892 0.0
H3437 H 0.47078 0.73756 0.84037 0.0
H3438 H 0.45533 0.75937 0.83121 0.0
H3439 H 0.4825 0.76618 0.83895 0.0
C3440 C 0.43946 0.8022 0.79675 0.0
C3441 C 0.44244 0.82135 0.80514 0.0
C3442 C 0.45257 0.78208 0.79842 0.0
C3443 C 0.46921 0.78048 0.80847 0.0
C3444 C 0.47217 0.79953 0.81695 0.0
H3445 H 0.57115 0.6693 0.82286 0.0
H3446 H 0.55217 0.70736 0.82164 0.0
C3447 C 0.45877 0.81964 0.81539 0.0
C3448 C 0.48397 0.75925 0.80953 0.0
H3449 H 0.5006 0.71561 0.83033 0.0
C3450 C 0.49574 0.75152 0.79822 0.0
C3451 C 0.48582 0.74608 0.82129 0.0
C3452 C 0.47278 0.75255 0.83361 0.0
C3453 C 0.50899 0.73111 0.79831 0.0
C3454 C 0.51069 0.71796 0.81 0.0
C3455 C 0.49941 0.72582 0.82139 0.0
C3456 C 0.52289 0.69525 0.81031 0.0
C3457 C 0.52102 0.72356 0.78585 0.0
C3458 C 0.51284 0.67586 0.80428 0.0
C3459 C 0.52356 0.65418 0.80501 0.0
C3460 C 0.54469 0.65136 0.81171 0.0
C3461 C 0.55505 0.67094 0.81748 0.0
C3462 C 0.54413 0.69264 0.81688 0.0
H3463 H 0.52132 0.73748 0.7783 0.0
H3464 H 0.53906 0.71818 0.78802 0.0
H3465 H 0.51181 0.70841 0.78166 0.0
H3466 H 0.49645 0.67743 0.79918 0.0
H3467 H 0.51519 0.63951 0.80042 0.0
H3468 H 0.3882 0.23733 0.0522 0.0
H3469 H 0.42443 0.25901 0.05156 0.0
H3470 H 0.45855 0.20435 0.07293 0.0
H3471 H 0.42234 0.18252 0.07364 0.0
H3472 H 0.45018 0.27529 0.0724 0.0
H3473 H 0.50272 0.2147 0.04234 0.0
H3474 H 0.47169 0.2122 0.0437 0.0
H3475 H 0.49002 0.20214 0.05681 0.0
C3476 C 0.40336 0.22986 0.05678 0.0
C3477 C 0.4022 0.20811 0.06297 0.0
C3478 C 0.42413 0.24228 0.05636 0.0
C3479 C 0.44433 0.23325 0.06206 0.0
C3480 C 0.44335 0.21149 0.0682 0.0
H3481 H 0.58458 0.29051 0.06738 0.0
H3482 H 0.55007 0.2663 0.06974 0.0
C3483 C 0.42255 0.199 0.0686 0.0
C3484 C 0.46609 0.24711 0.06194 0.0
H3485 H 0.52206 0.24736 0.05104 0.0
C3486 C 0.46589 0.26918 0.06772 0.0
C3487 C 0.48668 0.23908 0.05594 0.0
C3488 C 0.48785 0.21582 0.04924 0.0
C3489 C 0.48561 0.28341 0.06766 0.0
C3490 C 0.50606 0.27561 0.06139 0.0
C3491 C 0.50641 0.25337 0.05582 0.0
C3492 C 0.52701 0.29051 0.06017 0.0
C3493 C 0.48441 0.30656 0.0745 0.0
C3494 C 0.52567 0.31212 0.0539 0.0
C3495 C 0.54531 0.32609 0.05265 0.0
C3496 C 0.56692 0.3187 0.0575 0.0
C3497 C 0.56825 0.29693 0.06367 0.0
C3498 C 0.54853 0.28297 0.06495 0.0
H3499 H 0.47071 0.30678 0.08217 0.0
H3500 H 0.50117 0.31107 0.07918 0.0
H3501 H 0.48013 0.32013 0.06716 0.0
H3502 H 0.50941 0.31817 0.04987 0.0
H3503 H 0.54343 0.34279 0.04798 0.0
H3504 H 0.98782 0.64969 0.18661 0.0
H3505 H 0.00583 0.68762 0.1893 0.0
H3506 H 0.94266 0.72045 0.17668 0.0
H3507 H 0.92453 0.68257 0.17391 0.0
H3508 H 0.01322 0.72103 0.17037 0.0
H3509 H 0.95776 0.75575 0.2103 0.0
H3510 H 0.9581 0.7255 0.20595 0.0
H3511 H 0.94194 0.74579 0.19618 0.0
C3512 C 0.9777 0.66494 0.18441 0.0
C3513 C 0.95466 0.66295 0.18005 0.0
C3514 C 0.98803 0.68665 0.186 0.0
C3515 C 0.97556 0.70694 0.18335 0.0
C3516 C 0.9525 0.70509 0.17908 0.0
H3517 H 0.00813 0.85324 0.18159 0.0
H3518 H 0.99022 0.81509 0.18052 0.0
C3519 C 0.94213 0.68335 0.1775 0.0
C3520 C 0.98702 0.72993 0.18455 0.0
H3521 H 0.9835 0.78227 0.20004 0.0
C3522 C 0.00681 0.73437 0.17692 0.0
C3523 C 0.97864 0.74737 0.19308 0.0
C3524 C 0.95807 0.74336 0.20194 0.0
C3525 C 0.01813 0.7559 0.17737 0.0
C3526 C 0.0097 0.77336 0.18587 0.0
C3527 C 0.98996 0.76889 0.19353 0.0
C3528 C 0.02081 0.79655 0.18675 0.0
C3529 C 0.03861 0.75999 0.16845 0.0
C3530 C 0.04392 0.79896 0.19082 0.0
C3531 C 0.05426 0.82085 0.19148 0.0
C3532 C 0.04164 0.84088 0.18821 0.0
C3533 C 0.01837 0.83836 0.18435 0.0
C3534 C 0.00809 0.81649 0.18366 0.0
H3535 H 0.03961 0.74694 0.16045 0.0
H3536 H 0.0378 0.77748 0.16396 0.0
H3537 H 0.05476 0.75889 0.17432 0.0
H3538 H 0.05395 0.7839 0.19357 0.0
H3539 H 0.07207 0.82207 0.1947 0.0
H3540 H 0.60683 0.75091 0.4487 0.0
H3541 H 0.56908 0.76998 0.44879 0.0
H3542 H 0.53978 0.7128 0.42727 0.0
H3543 H 0.57757 0.69399 0.42673 0.0
H3544 H 0.52743 0.75421 0.41663 0.0
H3545 H 0.51185 0.75592 0.47047 0.0
H3546 H 0.53888 0.76876 0.46575 0.0
H3547 H 0.53415 0.73838 0.46308 0.0
C3548 C 0.59238 0.74233 0.444 0.0
C3549 C 0.59541 0.7208 0.43775 0.0
C3550 C 0.57069 0.75317 0.44418 0.0
C3551 C 0.55141 0.74273 0.4382 0.0
C3552 C 0.55431 0.72118 0.43204 0.0
H3553 H 0.40726 0.78468 0.44629 0.0
H3554 H 0.44457 0.76507 0.44728 0.0
C3555 C 0.57598 0.71031 0.43185 0.0
C3556 C 0.52852 0.75469 0.43782 0.0
H3557 H 0.48634 0.77836 0.45722 0.0
C3558 C 0.51842 0.75942 0.42551 0.0
C3559 C 0.51656 0.76129 0.4494 0.0
C3560 C 0.52577 0.75565 0.46293 0.0
C3561 C 0.49698 0.7708 0.42446 0.0
C3562 C 0.48539 0.7781 0.43602 0.0
C3563 C 0.4953 0.77304 0.44834 0.0
C3564 C 0.46273 0.79049 0.43555 0.0
C3565 C 0.48673 0.77445 0.41094 0.0
C3566 C 0.46044 0.8116 0.42882 0.0
C3567 C 0.43896 0.82279 0.42809 0.0
C3568 C 0.4192 0.81328 0.4342 0.0
C3569 C 0.42178 0.79242 0.44124 0.0
C3570 C 0.44325 0.78121 0.44191 0.0
H3571 H 0.49436 0.76248 0.40357 0.0
H3572 H 0.46768 0.77191 0.41106 0.0
H3573 H 0.49035 0.79239 0.40767 0.0
H3574 H 0.47528 0.81944 0.42409 0.0
H3575 H 0.43792 0.8387 0.42254 0.0
H3576 H 0.44806 0.18048 0.66788 0.0
H3577 H 0.46803 0.21784 0.66963 0.0
H3578 H 0.52993 0.1831 0.68257 0.0
H3579 H 0.51007 0.14576 0.68089 0.0
H3580 H 0.5178 0.22441 0.69741 0.0
H3581 H 0.52003 0.23896 0.64333 0.0
H3582 H 0.49209 0.23203 0.65007 0.0
H3583 H 0.51479 0.21087 0.65053 0.0
C3584 C 0.4658 0.18082 0.67129 0.0
C3585 C 0.47749 0.16009 0.6742 0.0
C3586 C 0.47728 0.20218 0.67216 0.0
C3587 C 0.50061 0.20326 0.67604 0.0
C3588 C 0.51201 0.1827 0.67945 0.0
H3589 H 0.59141 0.32431 0.66555 0.0
H3590 H 0.57596 0.28473 0.66571 0.0
C3591 C 0.50064 0.16135 0.67846 0.0
C3592 C 0.51324 0.22577 0.67639 0.0
H3593 H 0.53251 0.26996 0.65683 0.0
C3594 C 0.52106 0.23435 0.68854 0.0
C3595 C 0.51795 0.23853 0.66479 0.0
C3596 C 0.51099 0.22963 0.6514 0.0
C3597 C 0.53275 0.25567 0.68944 0.0
C3598 C 0.53659 0.26892 0.6779 0.0
C3599 C 0.52946 0.25994 0.6657 0.0
C3600 C 0.54688 0.2926 0.67835 0.0
C3601 C 0.54098 0.26378 0.70276 0.0
C3602 C 0.53565 0.31031 0.6853 0.0
C3603 C 0.54431 0.33291 0.68511 0.0
C3604 C 0.56445 0.33844 0.67799 0.0
C3605 C 0.57602 0.3206 0.67125 0.0
C3606 C 0.56716 0.29797 0.67131 0.0
H3607 H 0.54287 0.24913 0.70977 0.0
H3608 H 0.55783 0.27291 0.70198 0.0
H3609 H 0.52811 0.27597 0.70693 0.0
H3610 H 0.51979 0.3068 0.69061 0.0
H3611 H 0.53505 0.34618 0.69046 0.0
H3612 H 0.07937 0.18027 0.95742 0.0
H3613 H 0.043 0.20189 0.95757 0.0
H3614 H 0.04972 0.21413 0.91584 0.0
H3615 H 0.08581 0.19202 0.91561 0.0
H3616 H 0.03309 0.24542 0.95241 0.0
H3617 H 0.98505 0.19069 0.91712 0.0
H3618 H 0.01313 0.18281 0.92342 0.0
H3619 H 0.01064 0.20278 0.90988 0.0
C3620 C 0.07303 0.18744 0.94826 0.0
C3621 C 0.08545 0.18419 0.93648 0.0
C3622 C 0.05221 0.19987 0.94835 0.0
C3623 C 0.04327 0.20949 0.93669 0.0
C3624 C 0.05578 0.20643 0.92492 0.0
H3625 H 0.93519 0.31618 0.93392 0.0
H3626 H 0.97215 0.29576 0.93522 0.0
C3627 C 0.07648 0.19374 0.92479 0.0
C3628 C 0.0211 0.2229 0.93695 0.0
H3629 H 0.96744 0.22656 0.92287 0.0
C3630 C 0.01871 0.24121 0.94597 0.0
C3631 C 1.00211 0.21741 0.92868 0.0
C3632 C 1.00272 0.19721 0.91932 0.0
C3633 C 0.9981 0.25414 0.94689 0.0
C3634 C 0.97938 0.24902 0.93836 0.0
C3635 C 0.98174 0.23067 0.92939 0.0
C3636 C 0.95701 0.26204 0.93865 0.0
C3637 C 0.99643 0.27278 0.95723 0.0
C3638 C 0.93599 0.25006 0.94009 0.0
C3639 C 0.9148 0.26171 0.93922 0.0
C3640 C 0.91399 0.28568 0.93687 0.0
C3641 C 0.93506 0.29782 0.9359 0.0
C3642 C 0.9563 0.2861 0.93667 0.0
H3643 H 0.00907 0.26997 0.96532 0.0
H3644 H 1.00033 0.28976 0.95265 0.0
H3645 H 0.97879 0.27356 0.96153 0.0
H3646 H 0.93596 0.23153 0.94167 0.0
H3647 H 0.89897 0.25183 0.94011 0.0
H3648 H 0.94127 0.81021 0.70864 0.0
H3649 H 0.96362 0.77456 0.70664 0.0
H3650 H 0.98154 0.79256 0.66671 0.0
H3651 H 0.95928 0.82864 0.66874 0.0
H3652 H 0.95932 0.73748 0.68786 0.0
H3653 H 0.04499 0.78134 0.68535 0.0
H3654 H 0.01931 0.79593 0.69112 0.0
H3655 H 0.02319 0.79062 0.67385 0.0
C3656 C 0.94996 0.80662 0.69943 0.0
C3657 C 0.94866 0.8224 0.68889 0.0
C3658 C 0.96266 0.78617 0.69828 0.0
C3659 C 0.97457 0.78103 0.68661 0.0
C3660 C 0.97277 0.79634 0.67589 0.0
H3661 H 0.07211 0.66595 0.67447 0.0
H3662 H 0.04871 0.70071 0.67117 0.0
C3663 C 0.95986 0.81682 0.677 0.0
C3664 C 0.98897 0.75972 0.68591 0.0
H3665 H 0.04498 0.74068 0.68537 0.0
C3666 C 0.97804 0.73816 0.68721 0.0
C3667 C 0.01339 0.7606 0.68499 0.0
C3668 C 0.02606 0.78332 0.68383 0.0
C3669 C 0.99084 0.71752 0.6878 0.0
C3670 C 0.01533 0.71843 0.68745 0.0
C3671 C 0.02624 0.73994 0.68571 0.0
C3672 C 0.02986 0.6974 0.68948 0.0
C3673 C 0.97791 0.6949 0.68872 0.0
C3674 C 0.02753 0.68417 0.701 0.0
C3675 C 0.0407 0.66415 0.70287 0.0
C3676 C 0.05685 0.65689 0.69333 0.0
C3677 C 0.05964 0.67061 0.68195 0.0
C3678 C 0.04634 0.69064 0.68007 0.0
H3679 H 0.96016 0.69643 0.6846 0.0
H3680 H 0.98715 0.6809 0.6834 0.0
H3681 H 0.97629 0.68986 0.69922 0.0
H3682 H 0.0154 0.6893 0.70858 0.0
H3683 H 0.03782 0.6542 0.71174 0.0
H3684 H 0.10164 0.26325 0.42672 0.0
H3685 H 0.06322 0.24611 0.42521 0.0
H3686 H 0.03271 0.31102 0.43674 0.0
H3687 H 0.07135 0.32843 0.43818 0.0
H3688 H 0.03084 0.23974 0.44389 0.0
H3689 H 0.99507 0.29565 0.40445 0.0
H3690 H 0.02544 0.29533 0.40854 0.0
H3691 H 0.00537 0.31148 0.41846 0.0
C3692 C 0.08683 0.27393 0.42899 0.0
C3693 C 0.08968 0.29726 0.43263 0.0
C3694 C 0.06479 0.26409 0.42806 0.0
C3695 C 0.04495 0.27726 0.4307 0.0
C3696 C 0.04767 0.30058 0.43435 0.0
H3697 H 0.89824 0.24707 0.43347 0.0
H3698 H 0.93691 0.26361 0.43509 0.0
C3699 C 0.06979 0.31052 0.43521 0.0
C3700 C 0.02161 0.26626 0.42994 0.0
H3701 H 0.96871 0.27021 0.41503 0.0
C3702 C 0.01729 0.24636 0.43753 0.0
C3703 C 1.0039 0.2748 0.42162 0.0
C3704 C 0.00768 0.29535 0.4127 0.0
C3705 C 0.99571 0.23508 0.43722 0.0
C3706 C 0.97797 0.24372 0.42896 0.0
C3707 C 0.98229 0.26358 0.42136 0.0
C3708 C 0.95457 0.2329 0.42832 0.0
C3709 C 0.99191 0.21434 0.44598 0.0
C3710 C 0.95149 0.21 0.424 0.0
C3711 C 0.92922 0.20043 0.423 0.0
C3712 C 0.90955 0.21365 0.42621 0.0
C3713 C 0.91284 0.23646 0.43069 0.0
C3714 C 0.93501 0.24596 0.43169 0.0
H3715 H 0.00504 0.21332 0.45395 0.0
H3716 H 0.97443 0.2148 0.45051 0.0
H3717 H 0.99322 0.19837 0.43998 0.0
H3718 H 0.96627 0.19967 0.42113 0.0
H3719 H 0.9274 0.18294 0.41937 0.0
H3720 H 0.44578 0.32725 0.15391 0.0
H3721 H 0.46266 0.28833 0.15422 0.0
H3722 H 0.5081 0.30883 0.18586 0.0
H3723 H 0.49177 0.34774 0.18529 0.0
H3724 H 0.5317 0.28677 0.16798 0.0
H3725 H 0.45318 0.23527 0.17884 0.0
H3726 H 0.45032 0.25248 0.16423 0.0
H3727 H 0.45361 0.26638 0.17998 0.0
C3728 C 0.45917 0.32331 0.16103 0.0
C3729 C 0.4675 0.34059 0.16954 0.0
C3730 C 0.46876 0.30102 0.16125 0.0
C3731 C 0.48651 0.29543 0.17019 0.0
C3732 C 0.4945 0.31263 0.17884 0.0
H3733 H 0.53508 0.15755 0.1905 0.0
H3734 H 0.51649 0.19559 0.1896 0.0
C3735 C 0.48517 0.33491 0.17849 0.0
C3736 C 0.49766 0.27214 0.17023 0.0
H3737 H 0.48691 0.21417 0.17289 0.0
C3738 C 0.52186 0.27092 0.16911 0.0
C3739 C 0.48496 0.25137 0.17183 0.0
C3740 C 0.45911 0.25138 0.17392 0.0
C3741 C 0.53368 0.2497 0.16957 0.0
C3742 C 0.52095 0.22886 0.17072 0.0
C3743 C 0.49673 0.23005 0.17186 0.0
C3744 C 0.53242 0.20572 0.17118 0.0
C3745 C 0.55975 0.25 0.16915 0.0
C3746 C 0.54745 0.19849 0.16109 0.0
C3747 C 0.55848 0.17694 0.16177 0.0
C3748 C 0.55417 0.16187 0.17234 0.0
C3749 C 0.53871 0.16884 0.18225 0.0
C3750 C 0.52806 0.19056 0.18172 0.0
H3751 H 0.56685 0.26702 0.17223 0.0
H3752 H 0.5672 0.23643 0.17561 0.0
H3753 H 0.56544 0.2468 0.15889 0.0
H3754 H 0.55057 0.20947 0.15264 0.0
H3755 H 0.56999 0.1718 0.15388 0.0
H3756 H 0.58861 0.82702 0.91751 0.0
H3757 H 0.55236 0.80538 0.91824 0.0
H3758 H 0.58163 0.75913 0.94711 0.0
H3759 H 0.61826 0.78049 0.94614 0.0
H3760 H 0.55883 0.73509 0.92933 0.0
H3761 H 0.50223 0.80696 0.94507 0.0
H3762 H 0.51718 0.81365 0.93009 0.0
H3763 H 0.53332 0.80936 0.94508 0.0
C3764 C 0.58725 0.8125 0.92419 0.0
C3765 C 0.60633 0.80568 0.9319 0.0
C3766 C 0.56642 0.80009 0.92461 0.0
C3767 C 0.56392 0.78081 0.93294 0.0
C3768 C 0.58298 0.77396 0.94064 0.0
H3769 H 0.42959 0.72112 0.9521 0.0
H3770 H 0.46712 0.74054 0.95226 0.0
C3771 C 0.60393 0.7862 0.9401 0.0
C3772 C 0.54174 0.76741 0.93332 0.0
H3773 H 0.48324 0.77306 0.93721 0.0
C3774 C 0.54232 0.7434 0.93114 0.0
C3775 C 0.52011 0.77805 0.93587 0.0
C3776 C 0.51816 0.80336 0.9393 0.0
C3777 C 0.52202 0.72989 0.93124 0.0
C3778 C 0.50029 0.74072 0.93319 0.0
C3779 C 0.49976 0.76467 0.93555 0.0
C3780 C 0.47792 0.72762 0.93323 0.0
C3781 C 0.5242 0.70406 0.92958 0.0
C3782 C 0.47127 0.71365 0.92251 0.0
C3783 C 0.4498 0.70225 0.92248 0.0
C3784 C 0.43427 0.70496 0.93304 0.0
C3785 C 0.44101 0.71885 0.94375 0.0
C3786 C 0.46253 0.72996 0.94386 0.0
H3787 H 0.54177 0.6979 0.93232 0.0
H3788 H 0.5113 0.69469 0.93569 0.0
H3789 H 0.52125 0.69952 0.9191 0.0
H3790 H 0.48243 0.71198 0.91401 0.0
H3791 H 0.44501 0.69196 0.91401 0.0
H3792 H 0.95173 0.18963 0.82504 0.0
H3793 H 0.97116 0.22723 0.82715 0.0
H3794 H 0.95945 0.24047 0.78591 0.0
H3795 H 0.9399 0.20315 0.78377 0.0
H3796 H 0.01162 0.24161 0.81249 0.0
H3797 H 0.93727 0.30042 0.80422 0.0
H3798 H 0.93371 0.27051 0.80895 0.0
H3799 H 0.94008 0.2779 0.79214 0.0
C3800 C 0.9529 0.20075 0.81649 0.0
C3801 C 0.94427 0.19334 0.80422 0.0
C3802 C 0.96417 0.22216 0.81768 0.0
C3803 C 0.96667 0.23677 0.80671 0.0
C3804 C 0.95753 0.22966 0.79455 0.0
H3805 H 0.03143 0.36638 0.78585 0.0
H3806 H 0.01051 0.32971 0.78693 0.0
C3807 C 0.94649 0.20822 0.79332 0.0
C3808 C 0.97978 0.25893 0.80769 0.0
H3809 H 0.97481 0.31724 0.80299 0.0
C3810 C 1.00355 0.2582 0.81056 0.0
C3811 C 0.96927 0.28055 0.80513 0.0
C3812 C 0.94364 0.28254 0.80255 0.0
C3813 C 0.01725 0.27837 0.81045 0.0
C3814 C 0.0068 0.3 0.80765 0.0
C3815 C 0.98291 0.30073 0.80506 0.0
C3816 C 0.02033 0.32202 0.80702 0.0
C3817 C 0.04293 0.27618 0.81283 0.0
C3818 C 0.0329 0.3301 0.81795 0.0
C3819 C 0.04495 0.35116 0.81736 0.0
C3820 C 0.04453 0.3648 0.80584 0.0
C3821 C 0.03201 0.35655 0.79491 0.0
C3822 C 0.02005 0.3355 0.79551 0.0
H3823 H 0.04907 0.25818 0.81133 0.0
H3824 H 0.05285 0.28782 0.80621 0.0
H3825 H 0.04682 0.28109 0.82316 0.0
H3826 H 0.03301 0.32036 0.82707 0.0
H3827 H 0.05398 0.35703 0.82607 0.0
H3828 H 0.60199 0.23875 0.57333 0.0
H3829 H 0.56417 0.25707 0.57143 0.0
H3830 H 0.53211 0.19021 0.56721 0.0
H3831 H 0.57 0.17161 0.56894 0.0
H3832 H 0.53192 0.25503 0.55071 0.0
H3833 H 0.49475 0.22015 0.59708 0.0
H3834 H 0.52534 0.21918 0.59354 0.0
H3835 H 0.50602 0.19874 0.586 0.0
C3836 C 0.58702 0.22782 0.57191 0.0
C3837 C 0.58927 0.20358 0.57131 0.0
C3838 C 0.56531 0.2384 0.57088 0.0
C3839 C 0.54521 0.22506 0.56933 0.0
C3840 C 0.5473 0.20088 0.56866 0.0
H3841 H 0.39909 0.25813 0.56386 0.0
H3842 H 0.4367 0.23975 0.56454 0.0
C3843 C 0.56905 0.19025 0.56966 0.0
C3844 C 0.52221 0.23659 0.56827 0.0
H3845 H 0.46952 0.24142 0.58332 0.0
C3846 C 0.51828 0.2521 0.55785 0.0
C3847 C 0.50438 0.23276 0.57758 0.0
C3848 C 0.50779 0.21697 0.58926 0.0
C3849 C 0.49695 0.26357 0.55636 0.0
C3850 C 0.47916 0.25988 0.56572 0.0
C3851 C 0.48311 0.24432 0.57613 0.0
C3852 C 0.4562 0.27163 0.56485 0.0
C3853 C 0.49351 0.27907 0.54456 0.0
C3854 C 0.45437 0.29586 0.56483 0.0
C3855 C 0.43264 0.30667 0.56432 0.0
C3856 C 0.41207 0.29351 0.56396 0.0
C3857 C 0.41414 0.26918 0.56403 0.0
C3858 C 0.43583 0.25846 0.56448 0.0
H3859 H 0.50591 0.27495 0.53654 0.0
H3860 H 0.47565 0.27756 0.54062 0.0
H3861 H 0.49643 0.2973 0.54753 0.0
H3862 H 0.46977 0.30649 0.56541 0.0
H3863 H 0.43216 0.32534 0.56428 0.0
H3864 H 0.56487 0.82673 0.31261 0.0
H3865 H 0.54858 0.78825 0.30891 0.0
H3866 H 0.48012 0.8149 0.31617 0.0
H3867 H 0.49611 0.85351 0.31929 0.0
H3868 H 0.52584 0.76239 0.32671 0.0
H3869 H 0.46801 0.77655 0.28399 0.0
H3870 H 0.48967 0.79735 0.28886 0.0
H3871 H 0.46225 0.79619 0.29725 0.0
C3872 C 0.54629 0.82461 0.31303 0.0
C3873 C 0.53184 0.84338 0.31625 0.0
C3874 C 0.53699 0.80248 0.31103 0.0
C3875 C 0.51305 0.79861 0.31211 0.0
C3876 C 0.49856 0.81742 0.31498 0.0
H3877 H 0.42453 0.67722 0.31806 0.0
H3878 H 0.44052 0.71642 0.31701 0.0
C3879 C 0.50781 0.83952 0.31693 0.0
C3880 C 0.50343 0.7747 0.31128 0.0
H3881 H 0.46227 0.74149 0.2961 0.0
C3882 C 0.51212 0.75779 0.3199 0.0
C3883 C 0.48536 0.76865 0.30248 0.0
C3884 C 0.47593 0.78559 0.29254 0.0
C3885 C 0.503 0.73525 0.32017 0.0
C3886 C 0.48484 0.72926 0.31145 0.0
C3887 C 0.47615 0.7461 0.3028 0.0
C3888 C 0.47476 0.70556 0.3112 0.0
C3889 C 0.51248 0.71819 0.33004 0.0
C3890 C 0.4885 0.68648 0.30785 0.0
C3891 C 0.47942 0.66407 0.3083 0.0
C3892 C 0.45631 0.66013 0.31213 0.0
C3893 C 0.44233 0.67943 0.31504 0.0
C3894 C 0.45147 0.7019 0.31452 0.0
H3895 H 0.52218 0.72693 0.33807 0.0
H3896 H 0.49835 0.70776 0.33448 0.0
H3897 H 0.52453 0.7062 0.32498 0.0
H3898 H 0.50637 0.68891 0.30494 0.0
H3899 H 0.4906 0.64982 0.30567 0.0
H3900 H 0.90363 0.76069 0.03977 0.0
H3901 H 0.94202 0.74301 0.03795 0.0
H3902 H 0.97231 0.80277 0.05666 0.0
H3903 H 0.9341 0.82082 0.05793 0.0
H3904 H 0.99998 0.78821 0.03817 0.0
H3905 H 0.97398 0.71218 0.0678 0.0
H3906 H 0.95698 0.71493 0.05312 0.0
H3907 H 0.95539 0.73689 0.06568 0.0
C3908 C 0.91855 0.77011 0.04335 0.0
C3909 C 0.91585 0.79208 0.04903 0.0
C3910 C 0.94047 0.75992 0.04243 0.0
C3911 C 0.96007 0.77119 0.04754 0.0
C3912 C 0.9575 0.79359 0.05272 0.0
H3913 H 0.08584 0.69947 0.07053 0.0
H3914 H 0.04877 0.71975 0.06951 0.0
C3915 C 0.93565 0.80396 0.0534 0.0
C3916 C 0.98314 0.75956 0.04776 0.0
H3917 H 0.01088 0.71033 0.05763 0.0
C3918 C 1.00237 0.7712 0.04247 0.0
C3919 C 0.98647 0.73754 0.0536 0.0
C3920 C 0.96717 0.72477 0.0605 0.0
C3921 C 0.02467 0.76146 0.04277 0.0
C3922 C 0.0278 0.739 0.04809 0.0
C3923 C 0.00857 0.72742 0.05342 0.0
C3924 C 0.05086 0.72737 0.04865 0.0
C3925 C 0.0447 0.77574 0.03779 0.0
C3926 C 0.06453 0.72471 0.03728 0.0
C3927 C 0.08598 0.71348 0.03793 0.0
C3928 C 0.09392 0.70409 0.04988 0.0
C3929 C 0.0801 0.70642 0.06118 0.0
C3930 C 0.05891 0.71803 0.06059 0.0
H3931 H 0.04072 0.79453 0.03811 0.0
H3932 H 0.0606 0.77259 0.04366 0.0
H3933 H 0.04823 0.77113 0.02738 0.0
H3934 H 0.05848 0.731 0.02785 0.0
H3935 H 0.09609 0.71157 0.02902 0.0
loop_
_geom_bond_atom_site_label_1
_geom_bond_atom_site_label_2
_geom_bond_distance
_geom_bond_site_symmetry_2
_ccdc_geom_bond_type
C0 C1 1.351 . S
C0 N3 1.368 . S
C0 H5 0.931 . S
C1 C0 1.351 . S
C1 N2 1.373 . S
C1 H29 0.930 . S
N2 C1 1.373 . S
N2 C4 1.340 . S
N3 C0 1.368 . S
N3 C4 1.321 . S
N3 Co6 2.135 . S
C4 N2 1.340 . S
C4 N3 1.321 . S
C4 H28 0.930 . S
H5 C0 0.931 . S
Co6 N3 2.135 . S
Co6 N9 2.121 . S
Co6 O14 2.055 . S
Co6 O17 2.039 . S
Co6 N20 2.140 . S
C7 O8 1.227 . S
C7 O17 1.265 . S
O8 C7 1.227 . S
N9 Co6 2.121 . S
N9 C11 1.375 . S
N9 C12 1.313 . S
C10 C11 1.338 . S
C10 N13 1.377 . S
C10 H30 0.930 . S
C11 N9 1.375 . S
C11 C10 1.338 . S
C11 H15 0.931 . S
C12 N9 1.313 . S
C12 N13 1.344 . S
C12 H16 0.930 . S
N13 C10 1.377 . S
N13 C12 1.344 . S
O14 Co6 2.055 . S
O14 C18 1.253 . S
H15 C11 0.931 . S
H16 C12 0.930 . S
O17 Co6 2.039 . S
O17 C7 1.265 . S
C18 O14 1.253 . S
C18 O19 1.227 . S
O19 C18 1.227 . S
N20 Co6 2.140 . S
N20 C23 1.346 . S
N20 C24 1.345 . S
C21 C22 1.387 . S
C21 C25 1.391 . S
C22 C21 1.387 . S
C22 C23 1.369 . S
C22 H31 0.929 . S
C23 N20 1.346 . S
C23 C22 1.369 . S
C23 H26 0.928 . S
C24 N20 1.345 . S
C24 C25 1.371 . S
C24 H27 0.931 . S
C25 C21 1.391 . S
C25 C24 1.371 . S
C25 H32 0.930 . S
H26 C23 0.928 . S
H27 C24 0.931 . S
H28 C4 0.930 . S
H29 C1 0.930 . S
H30 C10 0.930 . S
H31 C22 0.929 . S
H32 C25 0.930 . S
C33 C34 1.351 . S
C33 N36 1.368 . S
C33 H38 0.931 . S
C34 C33 1.351 . S
C34 N35 1.373 . S
C34 H62 0.930 . S
N35 C34 1.373 . S
N35 C37 1.340 . S
N36 C33 1.368 . S
N36 C37 1.321 . S
N36 Co39 2.135 . S
C37 N35 1.340 . S
C37 N36 1.321 . S
C37 H61 0.930 . S
H38 C33 0.931 . S
Co39 N36 2.135 . S
Co39 N42 2.121 . S
Co39 O47 2.055 . S
Co39 O50 2.039 . S
Co39 N53 2.140 . S
C40 O41 1.227 . S
C40 O50 1.265 . S
O41 C40 1.227 . S
N42 Co39 2.121 . S
N42 C44 1.375 . S
N42 C45 1.313 . S
C43 C44 1.338 . S
C43 N46 1.377 . S
C43 H63 0.930 . S
C44 N42 1.375 . S
C44 C43 1.338 . S
C44 H48 0.931 . S
C45 N42 1.313 . S
C45 N46 1.344 . S
C45 H49 0.930 . S
N46 C43 1.377 . S
N46 C45 1.344 . S
O47 Co39 2.055 . S
O47 C51 1.253 . S
H48 C44 0.931 . S
H49 C45 0.930 . S
O50 Co39 2.039 . S
O50 C40 1.265 . S
C51 O47 1.253 . S
C51 O52 1.227 . S
O52 C51 1.227 . S
N53 Co39 2.140 . S
N53 C56 1.346 . S
N53 C57 1.345 . S
C54 C55 1.387 . S
C54 C58 1.391 . S
C55 C54 1.387 . S
C55 C56 1.369 . S
C55 H64 0.929 . S
C56 N53 1.346 . S
C56 C55 1.369 . S
C56 H59 0.928 . S
C57 N53 1.345 . S
C57 C58 1.371 . S
C57 H60 0.931 . S
C58 C54 1.391 . S
C58 C57 1.371 . S
C58 H65 0.930 . S
H59 C56 0.928 . S
H60 C57 0.931 . S
H61 C37 0.930 . S
H62 C34 0.930 . S
H63 C43 0.930 . S
H64 C55 0.929 . S
H65 C58 0.930 . S
C66 C67 1.351 . S
C66 N69 1.368 . S
C66 H71 0.931 . S
C67 C66 1.351 . S
C67 N68 1.373 . S
C67 H95 0.930 . S
N68 C67 1.373 . S
N68 C70 1.340 . S
N69 C66 1.368 . S
N69 C70 1.321 . S
N69 Co72 2.135 . S
C70 N68 1.340 . S
C70 N69 1.321 . S
C70 H94 0.930 . S
H71 C66 0.931 . S
Co72 N69 2.135 . S
Co72 N75 2.121 . S
Co72 O80 2.055 . S
Co72 O83 2.039 . S
Co72 N86 2.140 . S
C73 O74 1.227 . S
C73 O83 1.265 . S
O74 C73 1.227 . S
N75 Co72 2.121 . S
N75 C77 1.375 . S
N75 C78 1.313 . S
C76 C77 1.338 . S
C76 N79 1.377 . S
C76 H96 0.930 . S
C77 N75 1.375 . S
C77 C76 1.338 . S
C77 H81 0.931 . S
C78 N75 1.313 . S
C78 N79 1.344 . S
C78 H82 0.930 . S
N79 C76 1.377 . S
N79 C78 1.344 . S
O80 Co72 2.055 . S
O80 C84 1.253 . S
H81 C77 0.931 . S
H82 C78 0.930 . S
O83 Co72 2.039 . S
O83 C73 1.265 . S
C84 O80 1.253 . S
C84 O85 1.227 . S
O85 C84 1.227 . S
N86 Co72 2.140 . S
N86 C89 1.346 . S
N86 C90 1.345 . S
C87 C88 1.387 . S
C87 C91 1.391 . S
C88 C87 1.387 . S
C88 C89 1.369 . S
C88 H97 0.929 . S
C89 N86 1.346 . S
C89 C88 1.369 . S
C89 H92 0.928 . S
C90 N86 1.345 . S
C90 C91 1.371 . S
C90 H93 0.931 . S
C91 C87 1.391 . S
C91 C90 1.371 . S
C91 H98 0.930 . S
H92 C89 0.928 . S
H93 C90 0.931 . S
H94 C70 0.930 . S
H95 C67 0.930 . S
H96 C76 0.930 . S
H97 C88 0.929 . S
H98 C91 0.930 . S
C99 C100 1.351 . S
C99 N102 1.368 . S
C99 H104 0.931 . S
C100 C99 1.351 . S
C100 N101 1.373 . S
C100 H128 0.930 . S
N101 C100 1.373 . S
N101 C103 1.340 . S
N102 C99 1.368 . S
N102 C103 1.321 . S
N102 Co105 2.135 . S
C103 N101 1.340 . S
C103 N102 1.321 . S
C103 H127 0.930 . S
H104 C99 0.931 . S
Co105 N102 2.135 . S
Co105 N108 2.121 . S
Co105 O113 2.055 . S
Co105 O116 2.039 . S
Co105 N119 2.140 . S
C106 O107 1.227 . S
C106 O116 1.265 . S
O107 C106 1.227 . S
N108 Co105 2.121 . S
N108 C110 1.375 . S
N108 C111 1.313 . S
C109 C110 1.338 . S
C109 N112 1.377 . S
C109 H129 0.930 . S
C110 N108 1.375 . S
C110 C109 1.338 . S
C110 H114 0.931 . S
C111 N108 1.313 . S
C111 N112 1.344 . S
C111 H115 0.930 . S
N112 C109 1.377 . S
N112 C111 1.344 . S
O113 Co105 2.055 . S
O113 C117 1.253 . S
H114 C110 0.931 . S
H115 C111 0.930 . S
O116 Co105 2.039 . S
O116 C106 1.265 . S
C117 O113 1.253 . S
C117 O118 1.227 . S
O118 C117 1.227 . S
N119 Co105 2.140 . S
N119 C122 1.346 . S
N119 C123 1.345 . S
C120 C121 1.387 . S
C120 C124 1.391 . S
C121 C120 1.387 . S
C121 C122 1.369 . S
C121 H130 0.929 . S
C122 N119 1.346 . S
C122 C121 1.369 . S
C122 H125 0.928 . S
C123 N119 1.345 . S
C123 C124 1.371 . S
C123 H126 0.931 . S
C124 C120 1.391 . S
C124 C123 1.371 . S
C124 H131 0.930 . S
H125 C122 0.928 . S
H126 C123 0.931 . S
H127 C103 0.930 . S
H128 C100 0.930 . S
H129 C109 0.930 . S
H130 C121 0.929 . S
H131 C124 0.930 . S
C132 C133 1.351 . S
C132 N135 1.368 . S
C132 H137 0.931 . S
C133 C132 1.351 . S
C133 N134 1.373 . S
C133 H161 0.930 . S
N134 C133 1.373 . S
N134 C136 1.340 . S
N135 C132 1.368 . S
N135 C136 1.321 . S
N135 Co138 2.135 . S
C136 N134 1.340 . S
C136 N135 1.321 . S
C136 H160 0.930 . S
H137 C132 0.931 . S
Co138 N135 2.135 . S
Co138 N141 2.121 . S
Co138 O146 2.055 . S
Co138 O149 2.039 . S
Co138 N152 2.140 . S
C139 O140 1.227 . S
C139 O149 1.265 . S
O140 C139 1.227 . S
N141 Co138 2.121 . S
N141 C143 1.375 . S
N141 C144 1.313 . S
C142 C143 1.338 . S
C142 N145 1.377 . S
C142 H162 0.930 . S
C143 N141 1.375 . S
C143 C142 1.338 . S
C143 H147 0.931 . S
C144 N141 1.313 . S
C144 N145 1.344 . S
C144 H148 0.930 . S
N145 C142 1.377 . S
N145 C144 1.344 . S
O146 Co138 2.055 . S
O146 C150 1.253 . S
H147 C143 0.931 . S
H148 C144 0.930 . S
O149 Co138 2.039 . S
O149 C139 1.265 . S
C150 O146 1.253 . S
C150 O151 1.227 . S
O151 C150 1.227 . S
N152 Co138 2.140 . S
N152 C155 1.346 . S
N152 C156 1.345 . S
C153 C154 1.387 . S
C153 C157 1.391 . S
C154 C153 1.387 . S
C154 C155 1.369 . S
C154 H163 0.929 . S
C155 N152 1.346 . S
C155 C154 1.369 . S
C155 H158 0.928 . S
C156 N152 1.345 . S
C156 C157 1.371 . S
C156 H159 0.931 . S
C157 C153 1.391 . S
C157 C156 1.371 . S
C157 H164 0.930 . S
H158 C155 0.928 . S
H159 C156 0.931 . S
H160 C136 0.930 . S
H161 C133 0.930 . S
H162 C142 0.930 . S
H163 C154 0.929 . S
H164 C157 0.930 . S
C165 C166 1.351 . S
C165 N168 1.368 . S
C165 H170 0.931 . S
C166 C165 1.351 . S
C166 N167 1.373 . S
C166 H194 0.930 . S
N167 C166 1.373 . S
N167 C169 1.340 . S
N168 C165 1.368 . S
N168 C169 1.321 . S
N168 Co171 2.135 . S
C169 N167 1.340 . S
C169 N168 1.321 . S
C169 H193 0.930 . S
H170 C165 0.931 . S
Co171 N168 2.135 . S
Co171 N174 2.121 . S
Co171 O179 2.055 . S
Co171 O182 2.039 . S
Co171 N185 2.140 . S
C172 O173 1.227 . S
C172 O182 1.265 . S
O173 C172 1.227 . S
N174 Co171 2.121 . S
N174 C176 1.375 . S
N174 C177 1.313 . S
C175 C176 1.338 . S
C175 N178 1.377 . S
C175 H195 0.930 . S
C176 N174 1.375 . S
C176 C175 1.338 . S
C176 H180 0.931 . S
C177 N174 1.313 . S
C177 N178 1.344 . S
C177 H181 0.930 . S
N178 C175 1.377 . S
N178 C177 1.344 . S
O179 Co171 2.055 . S
O179 C183 1.253 . S
H180 C176 0.931 . S
H181 C177 0.930 . S
O182 Co171 2.039 . S
O182 C172 1.265 . S
C183 O179 1.253 . S
C183 O184 1.227 . S
O184 C183 1.227 . S
N185 Co171 2.140 . S
N185 C188 1.346 . S
N185 C189 1.345 . S
C186 C187 1.387 . S
C186 C190 1.391 . S
C187 C186 1.387 . S
C187 C188 1.369 . S
C187 H196 0.929 . S
C188 N185 1.346 . S
C188 C187 1.369 . S
C188 H191 0.928 . S
C189 N185 1.345 . S
C189 C190 1.371 . S
C189 H192 0.931 . S
C190 C186 1.391 . S
C190 C189 1.371 . S
C190 H197 0.930 . S
H191 C188 0.928 . S
H192 C189 0.931 . S
H193 C169 0.930 . S
H194 C166 0.930 . S
H195 C175 0.930 . S
H196 C187 0.929 . S
H197 C190 0.930 . S
C198 C199 1.351 . S
C198 N201 1.368 . S
C198 H203 0.931 . S
C199 C198 1.351 . S
C199 N200 1.373 . S
C199 H227 0.930 . S
N200 C199 1.373 . S
N200 C202 1.340 . S
N201 C198 1.368 . S
N201 C202 1.321 . S
N201 Co204 2.135 . S
C202 N200 1.340 . S
C202 N201 1.321 . S
C202 H226 0.930 . S
H203 C198 0.931 . S
Co204 N201 2.135 . S
Co204 N207 2.121 . S
Co204 O212 2.055 . S
Co204 O215 2.039 . S
Co204 N218 2.140 . S
C205 O206 1.227 . S
C205 O215 1.265 . S
O206 C205 1.227 . S
N207 Co204 2.121 . S
N207 C209 1.375 . S
N207 C210 1.313 . S
C208 C209 1.338 . S
C208 N211 1.377 . S
C208 H228 0.930 . S
C209 N207 1.375 . S
C209 C208 1.338 . S
C209 H213 0.931 . S
C210 N207 1.313 . S
C210 N211 1.344 . S
C210 H214 0.930 . S
N211 C208 1.377 . S
N211 C210 1.344 . S
O212 Co204 2.055 . S
O212 C216 1.253 . S
H213 C209 0.931 . S
H214 C210 0.930 . S
O215 Co204 2.039 . S
O215 C205 1.265 . S
C216 O212 1.253 . S
C216 O217 1.227 . S
O217 C216 1.227 . S
N218 Co204 2.140 . S
N218 C221 1.346 . S
N218 C222 1.345 . S
C219 C220 1.387 . S
C219 C223 1.391 . S
C220 C219 1.387 . S
C220 C221 1.369 . S
C220 H229 0.929 . S
C221 N218 1.346 . S
C221 C220 1.369 . S
C221 H224 0.928 . S
C222 N218 1.345 . S
C222 C223 1.371 . S
C222 H225 0.931 . S
C223 C219 1.391 . S
C223 C222 1.371 . S
C223 H230 0.930 . S
H224 C221 0.928 . S
H225 C222 0.931 . S
H226 C202 0.930 . S
H227 C199 0.930 . S
H228 C208 0.930 . S
H229 C220 0.929 . S
H230 C223 0.930 . S
C231 C232 1.351 . S
C231 N234 1.368 . S
C231 H236 0.931 . S
C232 C231 1.351 . S
C232 N233 1.373 . S
C232 H260 0.930 . S
N233 C232 1.373 . S
N233 C235 1.340 . S
N234 C231 1.368 . S
N234 C235 1.321 . S
N234 Co237 2.135 . S
C235 N233 1.340 . S
C235 N234 1.321 . S
C235 H259 0.930 . S
H236 C231 0.931 . S
Co237 N234 2.135 . S
Co237 N240 2.121 . S
Co237 O245 2.055 . S
Co237 O248 2.039 . S
Co237 N251 2.140 . S
C238 O239 1.227 . S
C238 O248 1.265 . S
O239 C238 1.227 . S
N240 Co237 2.121 . S
N240 C242 1.375 . S
N240 C243 1.313 . S
C241 C242 1.338 . S
C241 N244 1.377 . S
C241 H261 0.930 . S
C242 N240 1.375 . S
C242 C241 1.338 . S
C242 H246 0.931 . S
C243 N240 1.313 . S
C243 N244 1.344 . S
C243 H247 0.930 . S
N244 C241 1.377 . S
N244 C243 1.344 . S
O245 Co237 2.055 . S
O245 C249 1.253 . S
H246 C242 0.931 . S
H247 C243 0.930 . S
O248 Co237 2.039 . S
O248 C238 1.265 . S
C249 O245 1.253 . S
C249 O250 1.227 . S
O250 C249 1.227 . S
N251 Co237 2.140 . S
N251 C254 1.346 . S
N251 C255 1.345 . S
C252 C253 1.387 . S
C252 C256 1.391 . S
C253 C252 1.387 . S
C253 C254 1.369 . S
C253 H262 0.929 . S
C254 N251 1.346 . S
C254 C253 1.369 . S
C254 H257 0.928 . S
C255 N251 1.345 . S
C255 C256 1.371 . S
C255 H258 0.931 . S
C256 C252 1.391 . S
C256 C255 1.371 . S
C256 H263 0.930 . S
H257 C254 0.928 . S
H258 C255 0.931 . S
H259 C235 0.930 . S
H260 C232 0.930 . S
H261 C241 0.930 . S
H262 C253 0.929 . S
H263 C256 0.930 . S
C264 C265 1.351 . S
C264 N267 1.368 . S
C264 H269 0.931 . S
C265 C264 1.351 . S
C265 N266 1.373 . S
C265 H293 0.930 . S
N266 C265 1.373 . S
N266 C268 1.340 . S
N267 C264 1.368 . S
N267 C268 1.321 . S
N267 Co270 2.135 . S
C268 N266 1.340 . S
C268 N267 1.321 . S
C268 H292 0.930 . S
H269 C264 0.931 . S
Co270 N267 2.135 . S
Co270 N273 2.121 . S
Co270 O278 2.055 . S
Co270 O281 2.039 . S
Co270 N284 2.140 . S
C271 O272 1.227 . S
C271 O281 1.265 . S
O272 C271 1.227 . S
N273 Co270 2.121 . S
N273 C275 1.375 . S
N273 C276 1.313 . S
C274 C275 1.338 . S
C274 N277 1.377 . S
C274 H294 0.930 . S
C275 N273 1.375 . S
C275 C274 1.338 . S
C275 H279 0.931 . S
C276 N273 1.313 . S
C276 N277 1.344 . S
C276 H280 0.930 . S
N277 C274 1.377 . S
N277 C276 1.344 . S
O278 Co270 2.055 . S
O278 C282 1.253 . S
H279 C275 0.931 . S
H280 C276 0.930 . S
O281 Co270 2.039 . S
O281 C271 1.265 . S
C282 O278 1.253 . S
C282 O283 1.227 . S
O283 C282 1.227 . S
N284 Co270 2.140 . S
N284 C287 1.346 . S
N284 C288 1.345 . S
C285 C286 1.387 . S
C285 C289 1.391 . S
C286 C285 1.387 . S
C286 C287 1.369 . S
C286 H295 0.929 . S
C287 N284 1.346 . S
C287 C286 1.369 . S
C287 H290 0.928 . S
C288 N284 1.345 . S
C288 C289 1.371 . S
C288 H291 0.931 . S
C289 C285 1.391 . S
C289 C288 1.371 . S
C289 H296 0.930 . S
H290 C287 0.928 . S
H291 C288 0.931 . S
H292 C268 0.930 . S
H293 C265 0.930 . S
H294 C274 0.930 . S
H295 C286 0.929 . S
H296 C289 0.930 . S
C297 C298 1.351 . S
C297 N300 1.368 . S
C297 H302 0.931 . S
C298 C297 1.351 . S
C298 N299 1.373 . S
C298 H326 0.930 . S
N299 C298 1.373 . S
N299 C301 1.340 . S
N300 C297 1.368 . S
N300 C301 1.321 . S
N300 Co303 2.135 . S
C301 N299 1.340 . S
C301 N300 1.321 . S
C301 H325 0.930 . S
H302 C297 0.931 . S
Co303 N300 2.135 . S
Co303 N306 2.121 . S
Co303 O311 2.055 . S
Co303 O314 2.039 . S
Co303 N317 2.140 . S
C304 O305 1.227 . S
C304 O314 1.265 . S
O305 C304 1.227 . S
N306 Co303 2.121 . S
N306 C308 1.375 . S
N306 C309 1.313 . S
C307 C308 1.338 . S
C307 N310 1.377 . S
C307 H327 0.930 . S
C308 N306 1.375 . S
C308 C307 1.338 . S
C308 H312 0.931 . S
C309 N306 1.313 . S
C309 N310 1.344 . S
C309 H313 0.930 . S
N310 C307 1.377 . S
N310 C309 1.344 . S
O311 Co303 2.055 . S
O311 C315 1.253 . S
H312 C308 0.931 . S
H313 C309 0.930 . S
O314 Co303 2.039 . S
O314 C304 1.265 . S
C315 O311 1.253 . S
C315 O316 1.227 . S
O316 C315 1.227 . S
N317 Co303 2.140 . S
N317 C320 1.346 . S
N317 C321 1.345 . S
C318 C319 1.387 . S
C318 C322 1.391 . S
C319 C318 1.387 . S
C319 C320 1.369 . S
C319 H328 0.929 . S
C320 N317 1.346 . S
C320 C319 1.369 . S
C320 H323 0.928 . S
C321 N317 1.345 . S
C321 C322 1.371 . S
C321 H324 0.931 . S
C322 C318 1.391 . S
C322 C321 1.371 . S
C322 H329 0.930 . S
H323 C320 0.928 . S
H324 C321 0.931 . S
H325 C301 0.930 . S
H326 C298 0.930 . S
H327 C307 0.930 . S
H328 C319 0.929 . S
H329 C322 0.930 . S
C330 C331 1.351 . S
C330 N333 1.368 . S
C330 H335 0.931 . S
C331 C330 1.351 . S
C331 N332 1.373 . S
C331 H359 0.930 . S
N332 C331 1.373 . S
N332 C334 1.340 . S
N333 C330 1.368 . S
N333 C334 1.321 . S
N333 Co336 2.135 . S
C334 N332 1.340 . S
C334 N333 1.321 . S
C334 H358 0.930 . S
H335 C330 0.931 . S
Co336 N333 2.135 . S
Co336 N339 2.121 . S
Co336 O344 2.055 . S
Co336 O347 2.039 . S
Co336 N350 2.140 . S
C337 O338 1.227 . S
C337 O347 1.265 . S
O338 C337 1.227 . S
N339 Co336 2.121 . S
N339 C341 1.375 . S
N339 C342 1.313 . S
C340 C341 1.338 . S
C340 N343 1.377 . S
C340 H360 0.930 . S
C341 N339 1.375 . S
C341 C340 1.338 . S
C341 H345 0.931 . S
C342 N339 1.313 . S
C342 N343 1.344 . S
C342 H346 0.930 . S
N343 C340 1.377 . S
N343 C342 1.344 . S
O344 Co336 2.055 . S
O344 C348 1.253 . S
H345 C341 0.931 . S
H346 C342 0.930 . S
O347 Co336 2.039 . S
O347 C337 1.265 . S
C348 O344 1.253 . S
C348 O349 1.227 . S
O349 C348 1.227 . S
N350 Co336 2.140 . S
N350 C353 1.346 . S
N350 C354 1.345 . S
C351 C352 1.387 . S
C351 C355 1.391 . S
C352 C351 1.387 . S
C352 C353 1.369 . S
C352 H361 0.929 . S
C353 N350 1.346 . S
C353 C352 1.369 . S
C353 H356 0.928 . S
C354 N350 1.345 . S
C354 C355 1.371 . S
C354 H357 0.931 . S
C355 C351 1.391 . S
C355 C354 1.371 . S
C355 H362 0.930 . S
H356 C353 0.928 . S
H357 C354 0.931 . S
H358 C334 0.930 . S
H359 C331 0.930 . S
H360 C340 0.930 . S
H361 C352 0.929 . S
H362 C355 0.930 . S
C363 C364 1.351 . S
C363 N366 1.368 . S
C363 H368 0.931 . S
C364 C363 1.351 . S
C364 N365 1.373 . S
C364 H392 0.930 . S
N365 C364 1.373 . S
N365 C367 1.340 . S
N366 C363 1.368 . S
N366 C367 1.321 . S
N366 Co369 2.135 . S
C367 N365 1.340 . S
C367 N366 1.321 . S
C367 H391 0.930 . S
H368 C363 0.931 . S
Co369 N366 2.135 . S
Co369 N372 2.121 . S
Co369 O377 2.055 . S
Co369 O380 2.039 . S
Co369 N383 2.140 . S
C370 O371 1.227 . S
C370 O380 1.265 . S
O371 C370 1.227 . S
N372 Co369 2.121 . S
N372 C374 1.375 . S
N372 C375 1.313 . S
C373 C374 1.338 . S
C373 N376 1.377 . S
C373 H393 0.930 . S
C374 N372 1.375 . S
C374 C373 1.338 . S
C374 H378 0.931 . S
C375 N372 1.313 . S
C375 N376 1.344 . S
C375 H379 0.930 . S
N376 C373 1.377 . S
N376 C375 1.344 . S
O377 Co369 2.055 . S
O377 C381 1.253 . S
H378 C374 0.931 . S
H379 C375 0.930 . S
O380 Co369 2.039 . S
O380 C370 1.265 . S
C381 O377 1.253 . S
C381 O382 1.227 . S
O382 C381 1.227 . S
N383 Co369 2.140 . S
N383 C386 1.346 . S
N383 C387 1.345 . S
C384 C385 1.387 . S
C384 C388 1.391 . S
C385 C384 1.387 . S
C385 C386 1.369 . S
C385 H394 0.929 . S
C386 N383 1.346 . S
C386 C385 1.369 . S
C386 H389 0.928 . S
C387 N383 1.345 . S
C387 C388 1.371 . S
C387 H390 0.931 . S
C388 C384 1.391 . S
C388 C387 1.371 . S
C388 H395 0.930 . S
H389 C386 0.928 . S
H390 C387 0.931 . S
H391 C367 0.930 . S
H392 C364 0.930 . S
H393 C373 0.930 . S
H394 C385 0.929 . S
H395 C388 0.930 . S
C396 C397 1.351 . S
C396 N399 1.368 . S
C396 H401 0.931 . S
C397 C396 1.351 . S
C397 N398 1.373 . S
C397 H425 0.930 . S
N398 C397 1.373 . S
N398 C400 1.340 . S
N399 C396 1.368 . S
N399 C400 1.321 . S
N399 Co402 2.135 . S
C400 N398 1.340 . S
C400 N399 1.321 . S
C400 H424 0.930 . S
H401 C396 0.931 . S
Co402 N399 2.135 . S
Co402 N405 2.121 . S
Co402 O410 2.055 . S
Co402 O413 2.039 . S
Co402 N416 2.140 . S
C403 O404 1.227 . S
C403 O413 1.265 . S
O404 C403 1.227 . S
N405 Co402 2.121 . S
N405 C407 1.375 . S
N405 C408 1.313 . S
C406 C407 1.338 . S
C406 N409 1.377 . S
C406 H426 0.930 . S
C407 N405 1.375 . S
C407 C406 1.338 . S
C407 H411 0.931 . S
C408 N405 1.313 . S
C408 N409 1.344 . S
C408 H412 0.930 . S
N409 C406 1.377 . S
N409 C408 1.344 . S
O410 Co402 2.055 . S
O410 C414 1.253 . S
H411 C407 0.931 . S
H412 C408 0.930 . S
O413 Co402 2.039 . S
O413 C403 1.265 . S
C414 O410 1.253 . S
C414 O415 1.227 . S
O415 C414 1.227 . S
N416 Co402 2.140 . S
N416 C419 1.346 . S
N416 C420 1.345 . S
C417 C418 1.387 . S
C417 C421 1.391 . S
C418 C417 1.387 . S
C418 C419 1.369 . S
C418 H427 0.929 . S
C419 N416 1.346 . S
C419 C418 1.369 . S
C419 H422 0.928 . S
C420 N416 1.345 . S
C420 C421 1.371 . S
C420 H423 0.931 . S
C421 C417 1.391 . S
C421 C420 1.371 . S
C421 H428 0.930 . S
H422 C419 0.928 . S
H423 C420 0.931 . S
H424 C400 0.930 . S
H425 C397 0.930 . S
H426 C406 0.930 . S
H427 C418 0.929 . S
H428 C421 0.930 . S
C429 C430 1.351 . S
C429 N432 1.368 . S
C429 H434 0.931 . S
C430 C429 1.351 . S
C430 N431 1.373 . S
C430 H458 0.930 . S
N431 C430 1.373 . S
N431 C433 1.340 . S
N432 C429 1.368 . S
N432 C433 1.321 . S
N432 Co435 2.135 . S
C433 N431 1.340 . S
C433 N432 1.321 . S
C433 H457 0.930 . S
H434 C429 0.931 . S
Co435 N432 2.135 . S
Co435 N438 2.121 . S
Co435 O443 2.055 . S
Co435 O446 2.039 . S
Co435 N449 2.140 . S
C436 O437 1.227 . S
C436 O446 1.265 . S
O437 C436 1.227 . S
N438 Co435 2.121 . S
N438 C440 1.375 . S
N438 C441 1.313 . S
C439 C440 1.338 . S
C439 N442 1.377 . S
C439 H459 0.930 . S
C440 N438 1.375 . S
C440 C439 1.338 . S
C440 H444 0.931 . S
C441 N438 1.313 . S
C441 N442 1.344 . S
C441 H445 0.930 . S
N442 C439 1.377 . S
N442 C441 1.344 . S
O443 Co435 2.055 . S
O443 C447 1.253 . S
H444 C440 0.931 . S
H445 C441 0.930 . S
O446 Co435 2.039 . S
O446 C436 1.265 . S
C447 O443 1.253 . S
C447 O448 1.227 . S
O448 C447 1.227 . S
N449 Co435 2.140 . S
N449 C452 1.346 . S
N449 C453 1.345 . S
C450 C451 1.387 . S
C450 C454 1.391 . S
C451 C450 1.387 . S
C451 C452 1.369 . S
C451 H460 0.929 . S
C452 N449 1.346 . S
C452 C451 1.369 . S
C452 H455 0.928 . S
C453 N449 1.345 . S
C453 C454 1.371 . S
C453 H456 0.931 . S
C454 C450 1.391 . S
C454 C453 1.371 . S
C454 H461 0.930 . S
H455 C452 0.928 . S
H456 C453 0.931 . S
H457 C433 0.930 . S
H458 C430 0.930 . S
H459 C439 0.930 . S
H460 C451 0.929 . S
H461 C454 0.930 . S
C462 C463 1.351 . S
C462 N465 1.368 . S
C462 H467 0.931 . S
C463 C462 1.351 . S
C463 N464 1.373 . S
C463 H491 0.930 . S
N464 C463 1.373 . S
N464 C466 1.340 . S
N465 C462 1.368 . S
N465 C466 1.321 . S
N465 Co468 2.135 . S
C466 N464 1.340 . S
C466 N465 1.321 . S
C466 H490 0.930 . S
H467 C462 0.931 . S
Co468 N465 2.135 . S
Co468 N471 2.121 . S
Co468 O476 2.055 . S
Co468 O479 2.039 . S
Co468 N482 2.140 . S
C469 O470 1.227 . S
C469 O479 1.265 . S
O470 C469 1.227 . S
N471 Co468 2.121 . S
N471 C473 1.375 . S
N471 C474 1.313 . S
C472 C473 1.338 . S
C472 N475 1.377 . S
C472 H492 0.930 . S
C473 N471 1.375 . S
C473 C472 1.338 . S
C473 H477 0.931 . S
C474 N471 1.313 . S
C474 N475 1.344 . S
C474 H478 0.930 . S
N475 C472 1.377 . S
N475 C474 1.344 . S
O476 Co468 2.055 . S
O476 C480 1.253 . S
H477 C473 0.931 . S
H478 C474 0.930 . S
O479 Co468 2.039 . S
O479 C469 1.265 . S
C480 O476 1.253 . S
C480 O481 1.227 . S
O481 C480 1.227 . S
N482 Co468 2.140 . S
N482 C485 1.346 . S
N482 C486 1.345 . S
C483 C484 1.387 . S
C483 C487 1.391 . S
C484 C483 1.387 . S
C484 C485 1.369 . S
C484 H493 0.929 . S
C485 N482 1.346 . S
C485 C484 1.369 . S
C485 H488 0.928 . S
C486 N482 1.345 . S
C486 C487 1.371 . S
C486 H489 0.931 . S
C487 C483 1.391 . S
C487 C486 1.371 . S
C487 H494 0.930 . S
H488 C485 0.928 . S
H489 C486 0.931 . S
H490 C466 0.930 . S
H491 C463 0.930 . S
H492 C472 0.930 . S
H493 C484 0.929 . S
H494 C487 0.930 . S
C495 C496 1.351 . S
C495 N498 1.368 . S
C495 H500 0.931 . S
C496 C495 1.351 . S
C496 N497 1.373 . S
C496 H524 0.930 . S
N497 C496 1.373 . S
N497 C499 1.340 . S
N498 C495 1.368 . S
N498 C499 1.321 . S
N498 Co501 2.135 . S
C499 N497 1.340 . S
C499 N498 1.321 . S
C499 H523 0.930 . S
H500 C495 0.931 . S
Co501 N498 2.135 . S
Co501 N504 2.121 . S
Co501 O509 2.055 . S
Co501 O512 2.039 . S
Co501 N515 2.140 . S
C502 O503 1.227 . S
C502 O512 1.265 . S
O503 C502 1.227 . S
N504 Co501 2.121 . S
N504 C506 1.375 . S
N504 C507 1.313 . S
C505 C506 1.338 . S
C505 N508 1.377 . S
C505 H525 0.930 . S
C506 N504 1.375 . S
C506 C505 1.338 . S
C506 H510 0.931 . S
C507 N504 1.313 . S
C507 N508 1.344 . S
C507 H511 0.930 . S
N508 C505 1.377 . S
N508 C507 1.344 . S
O509 Co501 2.055 . S
O509 C513 1.253 . S
H510 C506 0.931 . S
H511 C507 0.930 . S
O512 Co501 2.039 . S
O512 C502 1.265 . S
C513 O509 1.253 . S
C513 O514 1.227 . S
O514 C513 1.227 . S
N515 Co501 2.140 . S
N515 C518 1.346 . S
N515 C519 1.345 . S
C516 C517 1.387 . S
C516 C520 1.391 . S
C517 C516 1.387 . S
C517 C518 1.369 . S
C517 H526 0.929 . S
C518 N515 1.346 . S
C518 C517 1.369 . S
C518 H521 0.928 . S
C519 N515 1.345 . S
C519 C520 1.371 . S
C519 H522 0.931 . S
C520 C516 1.391 . S
C520 C519 1.371 . S
C520 H527 0.930 . S
H521 C518 0.928 . S
H522 C519 0.931 . S
H523 C499 0.930 . S
H524 C496 0.930 . S
H525 C505 0.930 . S
H526 C517 0.929 . S
H527 C520 0.930 . S
C528 C529 1.351 . S
C528 N531 1.368 . S
C528 H533 0.931 . S
C529 C528 1.351 . S
C529 N530 1.373 . S
C529 H557 0.930 . S
N530 C529 1.373 . S
N530 C532 1.340 . S
N531 C528 1.368 . S
N531 C532 1.321 . S
N531 Co534 2.135 . S
C532 N530 1.340 . S
C532 N531 1.321 . S
C532 H556 0.930 . S
H533 C528 0.931 . S
Co534 N531 2.135 . S
Co534 N537 2.121 . S
Co534 O542 2.055 . S
Co534 O545 2.039 . S
Co534 N548 2.140 . S
C535 O536 1.227 . S
C535 O545 1.265 . S
O536 C535 1.227 . S
N537 Co534 2.121 . S
N537 C539 1.375 . S
N537 C540 1.313 . S
C538 C539 1.338 . S
C538 N541 1.377 . S
C538 H558 0.930 . S
C539 N537 1.375 . S
C539 C538 1.338 . S
C539 H543 0.931 . S
C540 N537 1.313 . S
C540 N541 1.344 . S
C540 H544 0.930 . S
N541 C538 1.377 . S
N541 C540 1.344 . S
O542 Co534 2.055 . S
O542 C546 1.253 . S
H543 C539 0.931 . S
H544 C540 0.930 . S
O545 Co534 2.039 . S
O545 C535 1.265 . S
C546 O542 1.253 . S
C546 O547 1.227 . S
O547 C546 1.227 . S
N548 Co534 2.140 . S
N548 C551 1.346 . S
N548 C552 1.345 . S
C549 C550 1.387 . S
C549 C553 1.391 . S
C550 C549 1.387 . S
C550 C551 1.369 . S
C550 H559 0.929 . S
C551 N548 1.346 . S
C551 C550 1.369 . S
C551 H554 0.928 . S
C552 N548 1.345 . S
C552 C553 1.371 . S
C552 H555 0.931 . S
C553 C549 1.391 . S
C553 C552 1.371 . S
C553 H560 0.930 . S
H554 C551 0.928 . S
H555 C552 0.931 . S
H556 C532 0.930 . S
H557 C529 0.930 . S
H558 C538 0.930 . S
H559 C550 0.929 . S
H560 C553 0.930 . S
C561 C562 1.351 . S
C561 N564 1.368 . S
C561 H566 0.931 . S
C562 C561 1.351 . S
C562 N563 1.373 . S
C562 H590 0.930 . S
N563 C562 1.373 . S
N563 C565 1.340 . S
N564 C561 1.368 . S
N564 C565 1.321 . S
N564 Co567 2.135 . S
C565 N563 1.340 . S
C565 N564 1.321 . S
C565 H589 0.930 . S
H566 C561 0.931 . S
Co567 N564 2.135 . S
Co567 N570 2.121 . S
Co567 O575 2.055 . S
Co567 O578 2.039 . S
Co567 N581 2.140 . S
C568 O569 1.227 . S
C568 O578 1.265 . S
O569 C568 1.227 . S
N570 Co567 2.121 . S
N570 C572 1.375 . S
N570 C573 1.313 . S
C571 C572 1.338 . S
C571 N574 1.377 . S
C571 H591 0.930 . S
C572 N570 1.375 . S
C572 C571 1.338 . S
C572 H576 0.931 . S
C573 N570 1.313 . S
C573 N574 1.344 . S
C573 H577 0.930 . S
N574 C571 1.377 . S
N574 C573 1.344 . S
O575 Co567 2.055 . S
O575 C579 1.253 . S
H576 C572 0.931 . S
H577 C573 0.930 . S
O578 Co567 2.039 . S
O578 C568 1.265 . S
C579 O575 1.253 . S
C579 O580 1.227 . S
O580 C579 1.227 . S
N581 Co567 2.140 . S
N581 C584 1.346 . S
N581 C585 1.345 . S
C582 C583 1.387 . S
C582 C586 1.391 . S
C583 C582 1.387 . S
C583 C584 1.369 . S
C583 H592 0.929 . S
C584 N581 1.346 . S
C584 C583 1.369 . S
C584 H587 0.928 . S
C585 N581 1.345 . S
C585 C586 1.371 . S
C585 H588 0.931 . S
C586 C582 1.391 . S
C586 C585 1.371 . S
C586 H593 0.930 . S
H587 C584 0.928 . S
H588 C585 0.931 . S
H589 C565 0.930 . S
H590 C562 0.930 . S
H591 C571 0.930 . S
H592 C583 0.929 . S
H593 C586 0.930 . S
C594 C595 1.351 . S
C594 N597 1.368 . S
C594 H599 0.931 . S
C595 C594 1.351 . S
C595 N596 1.373 . S
C595 H623 0.930 . S
N596 C595 1.373 . S
N596 C598 1.340 . S
N597 C594 1.368 . S
N597 C598 1.321 . S
N597 Co600 2.135 . S
C598 N596 1.340 . S
C598 N597 1.321 . S
C598 H622 0.930 . S
H599 C594 0.931 . S
Co600 N597 2.135 . S
Co600 N603 2.121 . S
Co600 O608 2.055 . S
Co600 O611 2.039 . S
Co600 N614 2.140 . S
C601 O602 1.227 . S
C601 O611 1.265 . S
O602 C601 1.227 . S
N603 Co600 2.121 . S
N603 C605 1.375 . S
N603 C606 1.313 . S
C604 C605 1.338 . S
C604 N607 1.377 . S
C604 H624 0.930 . S
C605 N603 1.375 . S
C605 C604 1.338 . S
C605 H609 0.931 . S
C606 N603 1.313 . S
C606 N607 1.344 . S
C606 H610 0.930 . S
N607 C604 1.377 . S
N607 C606 1.344 . S
O608 Co600 2.055 . S
O608 C612 1.253 . S
H609 C605 0.931 . S
H610 C606 0.930 . S
O611 Co600 2.039 . S
O611 C601 1.265 . S
C612 O608 1.253 . S
C612 O613 1.227 . S
O613 C612 1.227 . S
N614 Co600 2.140 . S
N614 C617 1.346 . S
N614 C618 1.345 . S
C615 C616 1.387 . S
C615 C619 1.391 . S
C616 C615 1.387 . S
C616 C617 1.369 . S
C616 H625 0.929 . S
C617 N614 1.346 . S
C617 C616 1.369 . S
C617 H620 0.928 . S
C618 N614 1.345 . S
C618 C619 1.371 . S
C618 H621 0.931 . S
C619 C615 1.391 . S
C619 C618 1.371 . S
C619 H626 0.930 . S
H620 C617 0.928 . S
H621 C618 0.931 . S
H622 C598 0.930 . S
H623 C595 0.930 . S
H624 C604 0.930 . S
H625 C616 0.929 . S
H626 C619 0.930 . S
C627 C628 1.351 . S
C627 N630 1.368 . S
C627 H632 0.931 . S
C628 C627 1.351 . S
C628 N629 1.373 . S
C628 H656 0.930 . S
N629 C628 1.373 . S
N629 C631 1.340 . S
N630 C627 1.368 . S
N630 C631 1.321 . S
N630 Co633 2.135 . S
C631 N629 1.340 . S
C631 N630 1.321 . S
C631 H655 0.930 . S
H632 C627 0.931 . S
Co633 N630 2.135 . S
Co633 N636 2.121 . S
Co633 O641 2.055 . S
Co633 O644 2.039 . S
Co633 N647 2.140 . S
C634 O635 1.227 . S
C634 O644 1.265 . S
O635 C634 1.227 . S
N636 Co633 2.121 . S
N636 C638 1.375 . S
N636 C639 1.313 . S
C637 C638 1.338 . S
C637 N640 1.377 . S
C637 H657 0.930 . S
C638 N636 1.375 . S
C638 C637 1.338 . S
C638 H642 0.931 . S
C639 N636 1.313 . S
C639 N640 1.344 . S
C639 H643 0.930 . S
N640 C637 1.377 . S
N640 C639 1.344 . S
O641 Co633 2.055 . S
O641 C645 1.253 . S
H642 C638 0.931 . S
H643 C639 0.930 . S
O644 Co633 2.039 . S
O644 C634 1.265 . S
C645 O641 1.253 . S
C645 O646 1.227 . S
O646 C645 1.227 . S
N647 Co633 2.140 . S
N647 C650 1.346 . S
N647 C651 1.345 . S
C648 C649 1.387 . S
C648 C652 1.391 . S
C649 C648 1.387 . S
C649 C650 1.369 . S
C649 H658 0.929 . S
C650 N647 1.346 . S
C650 C649 1.369 . S
C650 H653 0.928 . S
C651 N647 1.345 . S
C651 C652 1.371 . S
C651 H654 0.931 . S
C652 C648 1.391 . S
C652 C651 1.371 . S
C652 H659 0.930 . S
H653 C650 0.928 . S
H654 C651 0.931 . S
H655 C631 0.930 . S
H656 C628 0.930 . S
H657 C637 0.930 . S
H658 C649 0.929 . S
H659 C652 0.930 . S
C660 C661 1.351 . S
C660 N663 1.368 . S
C660 H665 0.931 . S
C661 C660 1.351 . S
C661 N662 1.373 . S
C661 H689 0.930 . S
N662 C661 1.373 . S
N662 C664 1.340 . S
N663 C660 1.368 . S
N663 C664 1.321 . S
N663 Co666 2.135 . S
C664 N662 1.340 . S
C664 N663 1.321 . S
C664 H688 0.930 . S
H665 C660 0.931 . S
Co666 N663 2.135 . S
Co666 N669 2.121 . S
Co666 O674 2.055 . S
Co666 O677 2.039 . S
Co666 N680 2.140 . S
C667 O668 1.227 . S
C667 O677 1.265 . S
O668 C667 1.227 . S
N669 Co666 2.121 . S
N669 C671 1.375 . S
N669 C672 1.313 . S
C670 C671 1.338 . S
C670 N673 1.377 . S
C670 H690 0.930 . S
C671 N669 1.375 . S
C671 C670 1.338 . S
C671 H675 0.931 . S
C672 N669 1.313 . S
C672 N673 1.344 . S
C672 H676 0.930 . S
N673 C670 1.377 . S
N673 C672 1.344 . S
O674 Co666 2.055 . S
O674 C678 1.253 . S
H675 C671 0.931 . S
H676 C672 0.930 . S
O677 Co666 2.039 . S
O677 C667 1.265 . S
C678 O674 1.253 . S
C678 O679 1.227 . S
O679 C678 1.227 . S
N680 Co666 2.140 . S
N680 C683 1.346 . S
N680 C684 1.345 . S
C681 C682 1.387 . S
C681 C685 1.391 . S
C682 C681 1.387 . S
C682 C683 1.369 . S
C682 H691 0.929 . S
C683 N680 1.346 . S
C683 C682 1.369 . S
C683 H686 0.928 . S
C684 N680 1.345 . S
C684 C685 1.371 . S
C684 H687 0.931 . S
C685 C681 1.391 . S
C685 C684 1.371 . S
C685 H692 0.930 . S
H686 C683 0.928 . S
H687 C684 0.931 . S
H688 C664 0.930 . S
H689 C661 0.930 . S
H690 C670 0.930 . S
H691 C682 0.929 . S
H692 C685 0.930 . S
C693 C694 1.351 . S
C693 N696 1.368 . S
C693 H698 0.931 . S
C694 C693 1.351 . S
C694 N695 1.373 . S
C694 H722 0.930 . S
N695 C694 1.373 . S
N695 C697 1.340 . S
N696 C693 1.368 . S
N696 C697 1.321 . S
N696 Co699 2.135 . S
C697 N695 1.340 . S
C697 N696 1.321 . S
C697 H721 0.930 . S
H698 C693 0.931 . S
Co699 N696 2.135 . S
Co699 N702 2.121 . S
Co699 O707 2.055 . S
Co699 O710 2.039 . S
Co699 N713 2.140 . S
C700 O701 1.227 . S
C700 O710 1.265 . S
O701 C700 1.227 . S
N702 Co699 2.121 . S
N702 C704 1.375 . S
N702 C705 1.313 . S
C703 C704 1.338 . S
C703 N706 1.377 . S
C703 H723 0.930 . S
C704 N702 1.375 . S
C704 C703 1.338 . S
C704 H708 0.931 . S
C705 N702 1.313 . S
C705 N706 1.344 . S
C705 H709 0.930 . S
N706 C703 1.377 . S
N706 C705 1.344 . S
O707 Co699 2.055 . S
O707 C711 1.253 . S
H708 C704 0.931 . S
H709 C705 0.930 . S
O710 Co699 2.039 . S
O710 C700 1.265 . S
C711 O707 1.253 . S
C711 O712 1.227 . S
O712 C711 1.227 . S
N713 Co699 2.140 . S
N713 C716 1.346 . S
N713 C717 1.345 . S
C714 C715 1.387 . S
C714 C718 1.391 . S
C715 C714 1.387 . S
C715 C716 1.369 . S
C715 H724 0.929 . S
C716 N713 1.346 . S
C716 C715 1.369 . S
C716 H719 0.928 . S
C717 N713 1.345 . S
C717 C718 1.371 . S
C717 H720 0.931 . S
C718 C714 1.391 . S
C718 C717 1.371 . S
C718 H725 0.930 . S
H719 C716 0.928 . S
H720 C717 0.931 . S
H721 C697 0.930 . S
H722 C694 0.930 . S
H723 C703 0.930 . S
H724 C715 0.929 . S
H725 C718 0.930 . S
C726 C727 1.351 . S
C726 N729 1.368 . S
C726 H731 0.931 . S
C727 C726 1.351 . S
C727 N728 1.373 . S
C727 H755 0.930 . S
N728 C727 1.373 . S
N728 C730 1.340 . S
N729 C726 1.368 . S
N729 C730 1.321 . S
N729 Co732 2.135 . S
C730 N728 1.340 . S
C730 N729 1.321 . S
C730 H754 0.930 . S
H731 C726 0.931 . S
Co732 N729 2.135 . S
Co732 N735 2.121 . S
Co732 O740 2.055 . S
Co732 O743 2.039 . S
Co732 N746 2.140 . S
C733 O734 1.227 . S
C733 O743 1.265 . S
O734 C733 1.227 . S
N735 Co732 2.121 . S
N735 C737 1.375 . S
N735 C738 1.313 . S
C736 C737 1.338 . S
C736 N739 1.377 . S
C736 H756 0.930 . S
C737 N735 1.375 . S
C737 C736 1.338 . S
C737 H741 0.931 . S
C738 N735 1.313 . S
C738 N739 1.344 . S
C738 H742 0.930 . S
N739 C736 1.377 . S
N739 C738 1.344 . S
O740 Co732 2.055 . S
O740 C744 1.253 . S
H741 C737 0.931 . S
H742 C738 0.930 . S
O743 Co732 2.039 . S
O743 C733 1.265 . S
C744 O740 1.253 . S
C744 O745 1.227 . S
O745 C744 1.227 . S
N746 Co732 2.140 . S
N746 C749 1.346 . S
N746 C750 1.345 . S
C747 C748 1.387 . S
C747 C751 1.391 . S
C748 C747 1.387 . S
C748 C749 1.369 . S
C748 H757 0.929 . S
C749 N746 1.346 . S
C749 C748 1.369 . S
C749 H752 0.928 . S
C750 N746 1.345 . S
C750 C751 1.371 . S
C750 H753 0.931 . S
C751 C747 1.391 . S
C751 C750 1.371 . S
C751 H758 0.930 . S
H752 C749 0.928 . S
H753 C750 0.931 . S
H754 C730 0.930 . S
H755 C727 0.930 . S
H756 C736 0.930 . S
H757 C748 0.929 . S
H758 C751 0.930 . S
C759 C760 1.351 . S
C759 N762 1.368 . S
C759 H764 0.931 . S
C760 C759 1.351 . S
C760 N761 1.373 . S
C760 H788 0.930 . S
N761 C760 1.373 . S
N761 C763 1.340 . S
N762 C759 1.368 . S
N762 C763 1.321 . S
N762 Co765 2.135 . S
C763 N761 1.340 . S
C763 N762 1.321 . S
C763 H787 0.930 . S
H764 C759 0.931 . S
Co765 N762 2.135 . S
Co765 N768 2.121 . S
Co765 O773 2.055 . S
Co765 O776 2.039 . S
Co765 N779 2.140 . S
C766 O767 1.227 . S
C766 O776 1.265 . S
O767 C766 1.227 . S
N768 Co765 2.121 . S
N768 C770 1.375 . S
N768 C771 1.313 . S
C769 C770 1.338 . S
C769 N772 1.377 . S
C769 H789 0.930 . S
C770 N768 1.375 . S
C770 C769 1.338 . S
C770 H774 0.931 . S
C771 N768 1.313 . S
C771 N772 1.344 . S
C771 H775 0.930 . S
N772 C769 1.377 . S
N772 C771 1.344 . S
O773 Co765 2.055 . S
O773 C777 1.253 . S
H774 C770 0.931 . S
H775 C771 0.930 . S
O776 Co765 2.039 . S
O776 C766 1.265 . S
C777 O773 1.253 . S
C777 O778 1.227 . S
O778 C777 1.227 . S
N779 Co765 2.140 . S
N779 C782 1.346 . S
N779 C783 1.345 . S
C780 C781 1.387 . S
C780 C784 1.391 . S
C781 C780 1.387 . S
C781 C782 1.369 . S
C781 H790 0.929 . S
C782 N779 1.346 . S
C782 C781 1.369 . S
C782 H785 0.928 . S
C783 N779 1.345 . S
C783 C784 1.371 . S
C783 H786 0.931 . S
C784 C780 1.391 . S
C784 C783 1.371 . S
C784 H791 0.930 . S
H785 C782 0.928 . S
H786 C783 0.931 . S
H787 C763 0.930 . S
H788 C760 0.930 . S
H789 C769 0.930 . S
H790 C781 0.929 . S
H791 C784 0.930 . S
C792 C793 1.351 . S
C792 N795 1.368 . S
C792 H797 0.931 . S
C793 C792 1.351 . S
C793 N794 1.373 . S
C793 H821 0.930 . S
N794 C793 1.373 . S
N794 C796 1.340 . S
N795 C792 1.368 . S
N795 C796 1.321 . S
N795 Co798 2.135 . S
C796 N794 1.340 . S
C796 N795 1.321 . S
C796 H820 0.930 . S
H797 C792 0.931 . S
Co798 N795 2.135 . S
Co798 N801 2.121 . S
Co798 O806 2.055 . S
Co798 O809 2.039 . S
Co798 N812 2.140 . S
C799 O800 1.227 . S
C799 O809 1.265 . S
O800 C799 1.227 . S
N801 Co798 2.121 . S
N801 C803 1.375 . S
N801 C804 1.313 . S
C802 C803 1.338 . S
C802 N805 1.377 . S
C802 H822 0.930 . S
C803 N801 1.375 . S
C803 C802 1.338 . S
C803 H807 0.931 . S
C804 N801 1.313 . S
C804 N805 1.344 . S
C804 H808 0.930 . S
N805 C802 1.377 . S
N805 C804 1.344 . S
O806 Co798 2.055 . S
O806 C810 1.253 . S
H807 C803 0.931 . S
H808 C804 0.930 . S
O809 Co798 2.039 . S
O809 C799 1.265 . S
C810 O806 1.253 . S
C810 O811 1.227 . S
O811 C810 1.227 . S
N812 Co798 2.140 . S
N812 C815 1.346 . S
N812 C816 1.345 . S
C813 C814 1.387 . S
C813 C817 1.391 . S
C814 C813 1.387 . S
C814 C815 1.369 . S
C814 H823 0.929 . S
C815 N812 1.346 . S
C815 C814 1.369 . S
C815 H818 0.928 . S
C816 N812 1.345 . S
C816 C817 1.371 . S
C816 H819 0.931 . S
C817 C813 1.391 . S
C817 C816 1.371 . S
C817 H824 0.930 . S
H818 C815 0.928 . S
H819 C816 0.931 . S
H820 C796 0.930 . S
H821 C793 0.930 . S
H822 C802 0.930 . S
H823 C814 0.929 . S
H824 C817 0.930 . S
C825 C826 1.351 . S
C825 N828 1.368 . S
C825 H830 0.931 . S
C826 C825 1.351 . S
C826 N827 1.373 . S
C826 H854 0.930 . S
N827 C826 1.373 . S
N827 C829 1.340 . S
N828 C825 1.368 . S
N828 C829 1.321 . S
N828 Co831 2.135 . S
C829 N827 1.340 . S
C829 N828 1.321 . S
C829 H853 0.930 . S
H830 C825 0.931 . S
Co831 N828 2.135 . S
Co831 N834 2.121 . S
Co831 O839 2.055 . S
Co831 O842 2.039 . S
Co831 N845 2.140 . S
C832 O833 1.227 . S
C832 O842 1.265 . S
O833 C832 1.227 . S
N834 Co831 2.121 . S
N834 C836 1.375 . S
N834 C837 1.313 . S
C835 C836 1.338 . S
C835 N838 1.377 . S
C835 H855 0.930 . S
C836 N834 1.375 . S
C836 C835 1.338 . S
C836 H840 0.931 . S
C837 N834 1.313 . S
C837 N838 1.344 . S
C837 H841 0.930 . S
N838 C835 1.377 . S
N838 C837 1.344 . S
O839 Co831 2.055 . S
O839 C843 1.253 . S
H840 C836 0.931 . S
H841 C837 0.930 . S
O842 Co831 2.039 . S
O842 C832 1.265 . S
C843 O839 1.253 . S
C843 O844 1.227 . S
O844 C843 1.227 . S
N845 Co831 2.140 . S
N845 C848 1.346 . S
N845 C849 1.345 . S
C846 C847 1.387 . S
C846 C850 1.391 . S
C847 C846 1.387 . S
C847 C848 1.369 . S
C847 H856 0.929 . S
C848 N845 1.346 . S
C848 C847 1.369 . S
C848 H851 0.928 . S
C849 N845 1.345 . S
C849 C850 1.371 . S
C849 H852 0.931 . S
C850 C846 1.391 . S
C850 C849 1.371 . S
C850 H857 0.930 . S
H851 C848 0.928 . S
H852 C849 0.931 . S
H853 C829 0.930 . S
H854 C826 0.930 . S
H855 C835 0.930 . S
H856 C847 0.929 . S
H857 C850 0.930 . S
C858 C859 1.351 . S
C858 N861 1.368 . S
C858 H863 0.931 . S
C859 C858 1.351 . S
C859 N860 1.373 . S
C859 H887 0.930 . S
N860 C859 1.373 . S
N860 C862 1.340 . S
N861 C858 1.368 . S
N861 C862 1.321 . S
N861 Co864 2.135 . S
C862 N860 1.340 . S
C862 N861 1.321 . S
C862 H886 0.930 . S
H863 C858 0.931 . S
Co864 N861 2.135 . S
Co864 N867 2.121 . S
Co864 O872 2.055 . S
Co864 O875 2.039 . S
Co864 N878 2.140 . S
C865 O866 1.227 . S
C865 O875 1.265 . S
O866 C865 1.227 . S
N867 Co864 2.121 . S
N867 C869 1.375 . S
N867 C870 1.313 . S
C868 C869 1.338 . S
C868 N871 1.377 . S
C868 H888 0.930 . S
C869 N867 1.375 . S
C869 C868 1.338 . S
C869 H873 0.931 . S
C870 N867 1.313 . S
C870 N871 1.344 . S
C870 H874 0.930 . S
N871 C868 1.377 . S
N871 C870 1.344 . S
O872 Co864 2.055 . S
O872 C876 1.253 . S
H873 C869 0.931 . S
H874 C870 0.930 . S
O875 Co864 2.039 . S
O875 C865 1.265 . S
C876 O872 1.253 . S
C876 O877 1.227 . S
O877 C876 1.227 . S
N878 Co864 2.140 . S
N878 C881 1.346 . S
N878 C882 1.345 . S
C879 C880 1.387 . S
C879 C883 1.391 . S
C880 C879 1.387 . S
C880 C881 1.369 . S
C880 H889 0.929 . S
C881 N878 1.346 . S
C881 C880 1.369 . S
C881 H884 0.928 . S
C882 N878 1.345 . S
C882 C883 1.371 . S
C882 H885 0.931 . S
C883 C879 1.391 . S
C883 C882 1.371 . S
C883 H890 0.930 . S
H884 C881 0.928 . S
H885 C882 0.931 . S
H886 C862 0.930 . S
H887 C859 0.930 . S
H888 C868 0.930 . S
H889 C880 0.929 . S
H890 C883 0.930 . S
C891 C892 1.351 . S
C891 N894 1.368 . S
C891 H896 0.931 . S
C892 C891 1.351 . S
C892 N893 1.373 . S
C892 H920 0.930 . S
N893 C892 1.373 . S
N893 C895 1.340 . S
N894 C891 1.368 . S
N894 C895 1.321 . S
N894 Co897 2.135 . S
C895 N893 1.340 . S
C895 N894 1.321 . S
C895 H919 0.930 . S
H896 C891 0.931 . S
Co897 N894 2.135 . S
Co897 N900 2.121 . S
Co897 O905 2.055 . S
Co897 O908 2.039 . S
Co897 N911 2.140 . S
C898 O899 1.227 . S
C898 O908 1.265 . S
O899 C898 1.227 . S
N900 Co897 2.121 . S
N900 C902 1.375 . S
N900 C903 1.313 . S
C901 C902 1.338 . S
C901 N904 1.377 . S
C901 H921 0.930 . S
C902 N900 1.375 . S
C902 C901 1.338 . S
C902 H906 0.931 . S
C903 N900 1.313 . S
C903 N904 1.344 . S
C903 H907 0.930 . S
N904 C901 1.377 . S
N904 C903 1.344 . S
O905 Co897 2.055 . S
O905 C909 1.253 . S
H906 C902 0.931 . S
H907 C903 0.930 . S
O908 Co897 2.039 . S
O908 C898 1.265 . S
C909 O905 1.253 . S
C909 O910 1.227 . S
O910 C909 1.227 . S
N911 Co897 2.140 . S
N911 C914 1.346 . S
N911 C915 1.345 . S
C912 C913 1.387 . S
C912 C916 1.391 . S
C913 C912 1.387 . S
C913 C914 1.369 . S
C913 H922 0.929 . S
C914 N911 1.346 . S
C914 C913 1.369 . S
C914 H917 0.928 . S
C915 N911 1.345 . S
C915 C916 1.371 . S
C915 H918 0.931 . S
C916 C912 1.391 . S
C916 C915 1.371 . S
C916 H923 0.930 . S
H917 C914 0.928 . S
H918 C915 0.931 . S
H919 C895 0.930 . S
H920 C892 0.930 . S
H921 C901 0.930 . S
H922 C913 0.929 . S
H923 C916 0.930 . S
C924 C925 1.351 . S
C924 N927 1.368 . S
C924 H929 0.931 . S
C925 C924 1.351 . S
C925 N926 1.373 . S
C925 H953 0.930 . S
N926 C925 1.373 . S
N926 C928 1.340 . S
N927 C924 1.368 . S
N927 C928 1.321 . S
N927 Co930 2.135 . S
C928 N926 1.340 . S
C928 N927 1.321 . S
C928 H952 0.930 . S
H929 C924 0.931 . S
Co930 N927 2.135 . S
Co930 N933 2.121 . S
Co930 O938 2.055 . S
Co930 O941 2.039 . S
Co930 N944 2.140 . S
C931 O932 1.227 . S
C931 O941 1.265 . S
O932 C931 1.227 . S
N933 Co930 2.121 . S
N933 C935 1.375 . S
N933 C936 1.313 . S
C934 C935 1.338 . S
C934 N937 1.377 . S
C934 H954 0.930 . S
C935 N933 1.375 . S
C935 C934 1.338 . S
C935 H939 0.931 . S
C936 N933 1.313 . S
C936 N937 1.344 . S
C936 H940 0.930 . S
N937 C934 1.377 . S
N937 C936 1.344 . S
O938 Co930 2.055 . S
O938 C942 1.253 . S
H939 C935 0.931 . S
H940 C936 0.930 . S
O941 Co930 2.039 . S
O941 C931 1.265 . S
C942 O938 1.253 . S
C942 O943 1.227 . S
O943 C942 1.227 . S
N944 Co930 2.140 . S
N944 C947 1.346 . S
N944 C948 1.345 . S
C945 C946 1.387 . S
C945 C949 1.391 . S
C946 C945 1.387 . S
C946 C947 1.369 . S
C946 H955 0.929 . S
C947 N944 1.346 . S
C947 C946 1.369 . S
C947 H950 0.928 . S
C948 N944 1.345 . S
C948 C949 1.371 . S
C948 H951 0.931 . S
C949 C945 1.391 . S
C949 C948 1.371 . S
C949 H956 0.930 . S
H950 C947 0.928 . S
H951 C948 0.931 . S
H952 C928 0.930 . S
H953 C925 0.930 . S
H954 C934 0.930 . S
H955 C946 0.929 . S
H956 C949 0.930 . S
C957 C958 1.351 . S
C957 N960 1.368 . S
C957 H962 0.931 . S
C958 C957 1.351 . S
C958 N959 1.373 . S
C958 H986 0.930 . S
N959 C958 1.373 . S
N959 C961 1.340 . S
N960 C957 1.368 . S
N960 C961 1.321 . S
N960 Co963 2.135 . S
C961 N959 1.340 . S
C961 N960 1.321 . S
C961 H985 0.930 . S
H962 C957 0.931 . S
Co963 N960 2.135 . S
Co963 N966 2.121 . S
Co963 O971 2.055 . S
Co963 O974 2.039 . S
Co963 N977 2.140 . S
C964 O965 1.227 . S
C964 O974 1.265 . S
O965 C964 1.227 . S
N966 Co963 2.121 . S
N966 C968 1.375 . S
N966 C969 1.313 . S
C967 C968 1.338 . S
C967 N970 1.377 . S
C967 H987 0.930 . S
C968 N966 1.375 . S
C968 C967 1.338 . S
C968 H972 0.931 . S
C969 N966 1.313 . S
C969 N970 1.344 . S
C969 H973 0.930 . S
N970 C967 1.377 . S
N970 C969 1.344 . S
O971 Co963 2.055 . S
O971 C975 1.253 . S
H972 C968 0.931 . S
H973 C969 0.930 . S
O974 Co963 2.039 . S
O974 C964 1.265 . S
C975 O971 1.253 . S
C975 O976 1.227 . S
O976 C975 1.227 . S
N977 Co963 2.140 . S
N977 C980 1.346 . S
N977 C981 1.345 . S
C978 C979 1.387 . S
C978 C982 1.391 . S
C979 C978 1.387 . S
C979 C980 1.369 . S
C979 H988 0.929 . S
C980 N977 1.346 . S
C980 C979 1.369 . S
C980 H983 0.928 . S
C981 N977 1.345 . S
C981 C982 1.371 . S
C981 H984 0.931 . S
C982 C978 1.391 . S
C982 C981 1.371 . S
C982 H989 0.930 . S
H983 C980 0.928 . S
H984 C981 0.931 . S
H985 C961 0.930 . S
H986 C958 0.930 . S
H987 C967 0.930 . S
H988 C979 0.929 . S
H989 C982 0.930 . S
C990 C991 1.351 . S
C990 N993 1.368 . S
C990 H995 0.931 . S
C991 C990 1.351 . S
C991 N992 1.373 . S
C991 H1019 0.930 . S
N992 C991 1.373 . S
N992 C994 1.340 . S
N993 C990 1.368 . S
N993 C994 1.321 . S
N993 Co996 2.135 . S
C994 N992 1.340 . S
C994 N993 1.321 . S
C994 H1018 0.930 . S
H995 C990 0.931 . S
Co996 N993 2.135 . S
Co996 N999 2.121 . S
Co996 O1004 2.055 . S
Co996 O1007 2.039 . S
Co996 N1010 2.140 . S
C997 O998 1.227 . S
C997 O1007 1.265 . S
O998 C997 1.227 . S
N999 Co996 2.121 . S
N999 C1001 1.375 . S
N999 C1002 1.313 . S
C1000 C1001 1.338 . S
C1000 N1003 1.377 . S
C1000 H1020 0.930 . S
C1001 N999 1.375 . S
C1001 C1000 1.338 . S
C1001 H1005 0.931 . S
C1002 N999 1.313 . S
C1002 N1003 1.344 . S
C1002 H1006 0.930 . S
N1003 C1000 1.377 . S
N1003 C1002 1.344 . S
O1004 Co996 2.055 . S
O1004 C1008 1.253 . S
H1005 C1001 0.931 . S
H1006 C1002 0.930 . S
O1007 Co996 2.039 . S
O1007 C997 1.265 . S
C1008 O1004 1.253 . S
C1008 O1009 1.227 . S
O1009 C1008 1.227 . S
N1010 Co996 2.140 . S
N1010 C1013 1.346 . S
N1010 C1014 1.345 . S
C1011 C1012 1.387 . S
C1011 C1015 1.391 . S
C1012 C1011 1.387 . S
C1012 C1013 1.369 . S
C1012 H1021 0.929 . S
C1013 N1010 1.346 . S
C1013 C1012 1.369 . S
C1013 H1016 0.928 . S
C1014 N1010 1.345 . S
C1014 C1015 1.371 . S
C1014 H1017 0.931 . S
C1015 C1011 1.391 . S
C1015 C1014 1.371 . S
C1015 H1022 0.930 . S
H1016 C1013 0.928 . S
H1017 C1014 0.931 . S
H1018 C994 0.930 . S
H1019 C991 0.930 . S
H1020 C1000 0.930 . S
H1021 C1012 0.929 . S
H1022 C1015 0.930 . S
C1023 C1024 1.351 . S
C1023 N1026 1.368 . S
C1023 H1028 0.931 . S
C1024 C1023 1.351 . S
C1024 N1025 1.373 . S
C1024 H1052 0.930 . S
N1025 C1024 1.373 . S
N1025 C1027 1.340 . S
N1026 C1023 1.368 . S
N1026 C1027 1.321 . S
N1026 Co1029 2.135 . S
C1027 N1025 1.340 . S
C1027 N1026 1.321 . S
C1027 H1051 0.930 . S
H1028 C1023 0.931 . S
Co1029 N1026 2.135 . S
Co1029 N1032 2.121 . S
Co1029 O1037 2.055 . S
Co1029 O1040 2.039 . S
Co1029 N1043 2.140 . S
C1030 O1031 1.227 . S
C1030 O1040 1.265 . S
O1031 C1030 1.227 . S
N1032 Co1029 2.121 . S
N1032 C1034 1.375 . S
N1032 C1035 1.313 . S
C1033 C1034 1.338 . S
C1033 N1036 1.377 . S
C1033 H1053 0.930 . S
C1034 N1032 1.375 . S
C1034 C1033 1.338 . S
C1034 H1038 0.931 . S
C1035 N1032 1.313 . S
C1035 N1036 1.344 . S
C1035 H1039 0.930 . S
N1036 C1033 1.377 . S
N1036 C1035 1.344 . S
O1037 Co1029 2.055 . S
O1037 C1041 1.253 . S
H1038 C1034 0.931 . S
H1039 C1035 0.930 . S
O1040 Co1029 2.039 . S
O1040 C1030 1.265 . S
C1041 O1037 1.253 . S
C1041 O1042 1.227 . S
O1042 C1041 1.227 . S
N1043 Co1029 2.140 . S
N1043 C1046 1.346 . S
N1043 C1047 1.345 . S
C1044 C1045 1.387 . S
C1044 C1048 1.391 . S
C1045 C1044 1.387 . S
C1045 C1046 1.369 . S
C1045 H1054 0.929 . S
C1046 N1043 1.346 . S
C1046 C1045 1.369 . S
C1046 H1049 0.928 . S
C1047 N1043 1.345 . S
C1047 C1048 1.371 . S
C1047 H1050 0.931 . S
C1048 C1044 1.391 . S
C1048 C1047 1.371 . S
C1048 H1055 0.930 . S
H1049 C1046 0.928 . S
H1050 C1047 0.931 . S
H1051 C1027 0.930 . S
H1052 C1024 0.930 . S
H1053 C1033 0.930 . S
H1054 C1045 0.929 . S
H1055 C1048 0.930 . S
H1056 C1064 0.929 . S
H1057 C1066 0.930 . S
H1058 C1068 0.930 . S
H1059 C1071 0.929 . S
H1060 C1074 0.930 . S
H1061 C1076 0.960 . S
H1062 C1076 0.960 . S
H1063 C1076 0.960 . S
C1064 H1056 0.929 . S
C1064 C1065 1.377 . S
C1064 C1066 1.384 . S
C1065 C1064 1.377 . S
C1065 C1071 1.390 . S
C1066 H1057 0.930 . S
C1066 C1064 1.384 . S
C1066 C1067 1.372 . S
C1067 C1066 1.372 . S
C1067 C1068 1.400 . S
C1067 C1072 1.490 . S
C1068 H1058 0.930 . S
C1068 C1067 1.400 . S
C1068 C1071 1.386 . S
H1069 C1085 0.930 . S
H1070 C1086 0.931 . S
C1071 H1059 0.929 . S
C1071 C1065 1.390 . S
C1071 C1068 1.386 . S
C1072 C1067 1.490 . S
C1072 C1074 1.395 . S
C1072 C1075 1.403 . S
H1073 C1079 0.930 . S
C1074 H1060 0.930 . S
C1074 C1072 1.395 . S
C1074 C1077 1.403 . S
C1075 C1072 1.403 . S
C1075 C1076 1.524 . S
C1075 C1079 1.400 . S
C1076 H1061 0.960 . S
C1076 H1062 0.960 . S
C1076 H1063 0.960 . S
C1076 C1075 1.524 . S
C1077 C1074 1.403 . S
C1077 C1078 1.392 . S
C1077 C1081 1.495 . S
C1078 C1077 1.392 . S
C1078 C1079 1.385 . S
C1078 C1080 1.478 . S
C1079 H1073 0.930 . S
C1079 C1075 1.400 . S
C1079 C1078 1.385 . S
C1080 C1078 1.478 . S
C1080 C1082 1.381 . S
C1080 C1086 1.383 . S
C1081 C1077 1.495 . S
C1081 H1087 0.959 . S
C1081 H1088 0.961 . S
C1081 H1089 0.960 . S
C1082 C1080 1.381 . S
C1082 C1083 1.394 . S
C1082 H1090 0.930 . S
C1083 C1082 1.394 . S
C1083 C1084 1.383 . S
C1083 H1091 0.929 . S
C1084 C1083 1.383 . S
C1084 C1085 1.377 . S
C1085 H1069 0.930 . S
C1085 C1084 1.377 . S
C1085 C1086 1.379 . S
C1086 H1070 0.931 . S
C1086 C1080 1.383 . S
C1086 C1085 1.379 . S
H1087 C1081 0.959 . S
H1088 C1081 0.961 . S
H1089 C1081 0.960 . S
H1090 C1082 0.930 . S
H1091 C1083 0.929 . S
H1092 C1100 0.929 . S
H1093 C1102 0.930 . S
H1094 C1104 0.930 1_455 S
H1095 C1107 0.929 . S
H1096 C1110 0.930 1_655 S
H1097 C1112 0.960 . S
H1098 C1112 0.960 . S
H1099 C1112 0.960 . S
C1100 H1092 0.929 . S
C1100 C1101 1.377 . S
C1100 C1102 1.384 . S
C1101 C1100 1.377 . S
C1101 C1107 1.390 . S
C1102 H1093 0.930 . S
C1102 C1100 1.384 . S
C1102 C1103 1.372 . S
C1103 C1102 1.372 . S
C1103 C1104 1.400 . S
C1103 C1108 1.490 1_655 S
C1104 H1094 0.930 1_655 S
C1104 C1103 1.400 . S
C1104 C1107 1.386 . S
H1105 C1121 0.930 . S
H1106 C1122 0.931 . S
C1107 H1095 0.929 . S
C1107 C1101 1.390 . S
C1107 C1104 1.386 . S
C1108 C1103 1.490 1_455 S
C1108 C1110 1.395 . S
C1108 C1111 1.403 . S
H1109 C1115 0.930 . S
C1110 H1096 0.930 1_455 S
C1110 C1108 1.395 . S
C1110 C1113 1.403 . S
C1111 C1108 1.403 . S
C1111 C1112 1.524 . S
C1111 C1115 1.400 . S
C1112 H1097 0.960 . S
C1112 H1098 0.960 . S
C1112 H1099 0.960 . S
C1112 C1111 1.524 . S
C1113 C1110 1.403 . S
C1113 C1114 1.392 . S
C1113 C1117 1.495 . S
C1114 C1113 1.392 . S
C1114 C1115 1.385 . S
C1114 C1116 1.478 . S
C1115 H1109 0.930 . S
C1115 C1111 1.400 . S
C1115 C1114 1.385 . S
C1116 C1114 1.478 . S
C1116 C1118 1.381 . S
C1116 C1122 1.383 . S
C1117 C1113 1.495 . S
C1117 H1123 0.959 . S
C1117 H1124 0.961 . S
C1117 H1125 0.960 . S
C1118 C1116 1.381 . S
C1118 C1119 1.394 . S
C1118 H1126 0.930 . S
C1119 C1118 1.394 . S
C1119 C1120 1.383 . S
C1119 H1127 0.929 . S
C1120 C1119 1.383 . S
C1120 C1121 1.377 . S
C1121 H1105 0.930 . S
C1121 C1120 1.377 . S
C1121 C1122 1.379 . S
C1122 H1106 0.931 . S
C1122 C1116 1.383 . S
C1122 C1121 1.379 . S
H1123 C1117 0.959 . S
H1124 C1117 0.961 . S
H1125 C1117 0.960 . S
H1126 C1118 0.930 . S
H1127 C1119 0.929 . S
H1128 C1136 0.929 . S
H1129 C1138 0.930 . S
H1130 C1140 0.930 . S
H1131 C1143 0.929 . S
H1132 C1146 0.930 . S
H1133 C1148 0.960 . S
H1134 C1148 0.960 . S
H1135 C1148 0.960 . S
C1136 H1128 0.929 . S
C1136 C1137 1.377 . S
C1136 C1138 1.384 . S
C1137 C1136 1.377 . S
C1137 C1143 1.390 . S
C1138 H1129 0.930 . S
C1138 C1136 1.384 . S
C1138 C1139 1.372 . S
C1139 C1138 1.372 . S
C1139 C1140 1.400 . S
C1139 C1144 1.490 . S
C1140 H1130 0.930 . S
C1140 C1139 1.400 . S
C1140 C1143 1.386 . S
H1141 C1157 0.930 . S
H1142 C1158 0.931 . S
C1143 H1131 0.929 . S
C1143 C1137 1.390 . S
C1143 C1140 1.386 . S
C1144 C1139 1.490 . S
C1144 C1146 1.395 . S
C1144 C1147 1.403 . S
H1145 C1151 0.930 . S
C1146 H1132 0.930 . S
C1146 C1144 1.395 . S
C1146 C1149 1.403 . S
C1147 C1144 1.403 . S
C1147 C1148 1.524 . S
C1147 C1151 1.400 . S
C1148 H1133 0.960 . S
C1148 H1134 0.960 . S
C1148 H1135 0.960 . S
C1148 C1147 1.524 . S
C1149 C1146 1.403 . S
C1149 C1150 1.392 . S
C1149 C1153 1.495 . S
C1150 C1149 1.392 . S
C1150 C1151 1.385 . S
C1150 C1152 1.478 . S
C1151 H1145 0.930 . S
C1151 C1147 1.400 . S
C1151 C1150 1.385 . S
C1152 C1150 1.478 . S
C1152 C1154 1.381 . S
C1152 C1158 1.383 . S
C1153 C1149 1.495 . S
C1153 H1159 0.959 . S
C1153 H1160 0.961 . S
C1153 H1161 0.960 . S
C1154 C1152 1.381 . S
C1154 C1155 1.394 . S
C1154 H1162 0.930 . S
C1155 C1154 1.394 . S
C1155 C1156 1.383 . S
C1155 H1163 0.929 . S
C1156 C1155 1.383 . S
C1156 C1157 1.377 . S
C1157 H1141 0.930 . S
C1157 C1156 1.377 . S
C1157 C1158 1.379 . S
C1158 H1142 0.931 . S
C1158 C1152 1.383 . S
C1158 C1157 1.379 . S
H1159 C1153 0.959 . S
H1160 C1153 0.961 . S
H1161 C1153 0.960 . S
H1162 C1154 0.930 . S
H1163 C1155 0.929 . S
H1164 C1172 0.929 . S
H1165 C1174 0.930 . S
H1166 C1176 0.930 . S
H1167 C1179 0.929 . S
H1168 C1182 0.930 . S
H1169 C1184 0.960 . S
H1170 C1184 0.960 . S
H1171 C1184 0.960 . S
C1172 H1164 0.929 . S
C1172 C1173 1.377 . S
C1172 C1174 1.384 . S
C1173 C1172 1.377 . S
C1173 C1179 1.390 . S
C1174 H1165 0.930 . S
C1174 C1172 1.384 . S
C1174 C1175 1.372 . S
C1175 C1174 1.372 . S
C1175 C1176 1.400 . S
C1175 C1180 1.490 . S
C1176 H1166 0.930 . S
C1176 C1175 1.400 . S
C1176 C1179 1.386 . S
H1177 C1193 0.930 . S
H1178 C1194 0.931 . S
C1179 H1167 0.929 . S
C1179 C1173 1.390 . S
C1179 C1176 1.386 . S
C1180 C1175 1.490 . S
C1180 C1182 1.395 . S
C1180 C1183 1.403 . S
H1181 C1187 0.930 . S
C1182 H1168 0.930 . S
C1182 C1180 1.395 . S
C1182 C1185 1.403 . S
C1183 C1180 1.403 . S
C1183 C1184 1.524 . S
C1183 C1187 1.400 . S
C1184 H1169 0.960 . S
C1184 H1170 0.960 . S
C1184 H1171 0.960 . S
C1184 C1183 1.524 . S
C1185 C1182 1.403 . S
C1185 C1186 1.392 . S
C1185 C1189 1.495 . S
C1186 C1185 1.392 . S
C1186 C1187 1.385 . S
C1186 C1188 1.478 . S
C1187 H1181 0.930 . S
C1187 C1183 1.400 . S
C1187 C1186 1.385 . S
C1188 C1186 1.478 . S
C1188 C1190 1.381 . S
C1188 C1194 1.383 . S
C1189 C1185 1.495 . S
C1189 H1195 0.959 . S
C1189 H1196 0.961 . S
C1189 H1197 0.960 . S
C1190 C1188 1.381 . S
C1190 C1191 1.394 . S
C1190 H1198 0.930 . S
C1191 C1190 1.394 . S
C1191 C1192 1.383 . S
C1191 H1199 0.929 . S
C1192 C1191 1.383 . S
C1192 C1193 1.377 . S
C1193 H1177 0.930 . S
C1193 C1192 1.377 . S
C1193 C1194 1.379 . S
C1194 H1178 0.931 . S
C1194 C1188 1.383 . S
C1194 C1193 1.379 . S
H1195 C1189 0.959 . S
H1196 C1189 0.961 . S
H1197 C1189 0.960 . S
H1198 C1190 0.930 . S
H1199 C1191 0.929 . S
H1200 C1208 0.929 . S
H1201 C1210 0.930 . S
H1202 C1212 0.930 . S
H1203 C1215 0.929 . S
H1204 C1218 0.930 . S
H1205 C1220 0.960 . S
H1206 C1220 0.960 . S
H1207 C1220 0.960 . S
C1208 H1200 0.929 . S
C1208 C1209 1.377 . S
C1208 C1210 1.384 . S
C1209 C1208 1.377 . S
C1209 C1215 1.390 . S
C1210 H1201 0.930 . S
C1210 C1208 1.384 . S
C1210 C1211 1.372 . S
C1211 C1210 1.372 . S
C1211 C1212 1.400 . S
C1211 C1216 1.490 . S
C1212 H1202 0.930 . S
C1212 C1211 1.400 . S
C1212 C1215 1.386 . S
H1213 C1229 0.930 . S
H1214 C1230 0.931 . S
C1215 H1203 0.929 . S
C1215 C1209 1.390 . S
C1215 C1212 1.386 . S
C1216 C1211 1.490 . S
C1216 C1218 1.395 . S
C1216 C1219 1.403 . S
H1217 C1223 0.930 . S
C1218 H1204 0.930 . S
C1218 C1216 1.395 . S
C1218 C1221 1.403 . S
C1219 C1216 1.403 . S
C1219 C1220 1.524 . S
C1219 C1223 1.400 . S
C1220 H1205 0.960 . S
C1220 H1206 0.960 . S
C1220 H1207 0.960 . S
C1220 C1219 1.524 . S
C1221 C1218 1.403 . S
C1221 C1222 1.392 . S
C1221 C1225 1.495 . S
C1222 C1221 1.392 . S
C1222 C1223 1.385 . S
C1222 C1224 1.478 . S
C1223 H1217 0.930 . S
C1223 C1219 1.400 . S
C1223 C1222 1.385 . S
C1224 C1222 1.478 . S
C1224 C1226 1.381 . S
C1224 C1230 1.383 . S
C1225 C1221 1.495 . S
C1225 H1231 0.959 . S
C1225 H1232 0.961 . S
C1225 H1233 0.960 . S
C1226 C1224 1.381 . S
C1226 C1227 1.394 . S
C1226 H1234 0.930 . S
C1227 C1226 1.394 . S
C1227 C1228 1.383 . S
C1227 H1235 0.929 . S
C1228 C1227 1.383 . S
C1228 C1229 1.377 . S
C1229 H1213 0.930 . S
C1229 C1228 1.377 . S
C1229 C1230 1.379 . S
C1230 H1214 0.931 . S
C1230 C1224 1.383 . S
C1230 C1229 1.379 . S
H1231 C1225 0.959 . S
H1232 C1225 0.961 . S
H1233 C1225 0.960 . S
H1234 C1226 0.930 . S
H1235 C1227 0.929 . S
H1236 C1244 0.929 . S
H1237 C1246 0.930 . S
H1238 C1248 0.930 . S
H1239 C1251 0.929 . S
H1240 C1254 0.930 . S
H1241 C1256 0.960 . S
H1242 C1256 0.960 . S
H1243 C1256 0.960 . S
C1244 H1236 0.929 . S
C1244 C1245 1.377 . S
C1244 C1246 1.384 . S
C1245 C1244 1.377 . S
C1245 C1251 1.390 . S
C1246 H1237 0.930 . S
C1246 C1244 1.384 . S
C1246 C1247 1.372 . S
C1247 C1246 1.372 . S
C1247 C1248 1.400 . S
C1247 C1252 1.490 . S
C1248 H1238 0.930 . S
C1248 C1247 1.400 . S
C1248 C1251 1.386 . S
H1249 C1265 0.930 . S
H1250 C1266 0.931 . S
C1251 H1239 0.929 . S
C1251 C1245 1.390 . S
C1251 C1248 1.386 . S
C1252 C1247 1.490 . S
C1252 C1254 1.395 . S
C1252 C1255 1.403 . S
H1253 C1259 0.930 . S
C1254 H1240 0.930 . S
C1254 C1252 1.395 . S
C1254 C1257 1.403 . S
C1255 C1252 1.403 . S
C1255 C1256 1.524 . S
C1255 C1259 1.400 . S
C1256 H1241 0.960 . S
C1256 H1242 0.960 . S
C1256 H1243 0.960 . S
C1256 C1255 1.524 . S
C1257 C1254 1.403 . S
C1257 C1258 1.392 . S
C1257 C1261 1.495 . S
C1258 C1257 1.392 . S
C1258 C1259 1.385 . S
C1258 C1260 1.478 . S
C1259 H1253 0.930 . S
C1259 C1255 1.400 . S
C1259 C1258 1.385 . S
C1260 C1258 1.478 . S
C1260 C1262 1.381 . S
C1260 C1266 1.383 . S
C1261 C1257 1.495 . S
C1261 H1267 0.959 . S
C1261 H1268 0.961 . S
C1261 H1269 0.960 . S
C1262 C1260 1.381 . S
C1262 C1263 1.394 . S
C1262 H1270 0.930 . S
C1263 C1262 1.394 . S
C1263 C1264 1.383 . S
C1263 H1271 0.929 . S
C1264 C1263 1.383 . S
C1264 C1265 1.377 . S
C1265 H1249 0.930 . S
C1265 C1264 1.377 . S
C1265 C1266 1.379 . S
C1266 H1250 0.931 . S
C1266 C1260 1.383 . S
C1266 C1265 1.379 . S
H1267 C1261 0.959 . S
H1268 C1261 0.961 . S
H1269 C1261 0.960 . S
H1270 C1262 0.930 . S
H1271 C1263 0.929 . S
H1272 C1280 0.929 . S
H1273 C1282 0.930 . S
H1274 C1284 0.930 . S
H1275 C1287 0.929 . S
H1276 C1290 0.930 . S
H1277 C1292 0.960 . S
H1278 C1292 0.960 . S
H1279 C1292 0.960 . S
C1280 H1272 0.929 . S
C1280 C1281 1.377 . S
C1280 C1282 1.384 . S
C1281 C1280 1.377 . S
C1281 C1287 1.390 . S
C1282 H1273 0.930 . S
C1282 C1280 1.384 . S
C1282 C1283 1.372 . S
C1283 C1282 1.372 . S
C1283 C1284 1.400 . S
C1283 C1288 1.490 . S
C1284 H1274 0.930 . S
C1284 C1283 1.400 . S
C1284 C1287 1.386 . S
H1285 C1301 0.930 . S
H1286 C1302 0.931 . S
C1287 H1275 0.929 . S
C1287 C1281 1.390 . S
C1287 C1284 1.386 . S
C1288 C1283 1.490 . S
C1288 C1290 1.395 . S
C1288 C1291 1.403 . S
H1289 C1295 0.930 . S
C1290 H1276 0.930 . S
C1290 C1288 1.395 . S
C1290 C1293 1.403 . S
C1291 C1288 1.403 . S
C1291 C1292 1.524 . S
C1291 C1295 1.400 . S
C1292 H1277 0.960 . S
C1292 H1278 0.960 . S
C1292 H1279 0.960 . S
C1292 C1291 1.524 . S
C1293 C1290 1.403 . S
C1293 C1294 1.392 . S
C1293 C1297 1.495 . S
C1294 C1293 1.392 . S
C1294 C1295 1.385 . S
C1294 C1296 1.478 . S
C1295 H1289 0.930 . S
C1295 C1291 1.400 . S
C1295 C1294 1.385 . S
C1296 C1294 1.478 . S
C1296 C1298 1.381 . S
C1296 C1302 1.383 . S
C1297 C1293 1.495 . S
C1297 H1303 0.959 . S
C1297 H1304 0.961 . S
C1297 H1305 0.960 . S
C1298 C1296 1.381 . S
C1298 C1299 1.394 . S
C1298 H1306 0.930 . S
C1299 C1298 1.394 . S
C1299 C1300 1.383 . S
C1299 H1307 0.929 . S
C1300 C1299 1.383 . S
C1300 C1301 1.377 . S
C1301 H1285 0.930 . S
C1301 C1300 1.377 . S
C1301 C1302 1.379 . S
C1302 H1286 0.931 . S
C1302 C1296 1.383 . S
C1302 C1301 1.379 . S
H1303 C1297 0.959 . S
H1304 C1297 0.961 . S
H1305 C1297 0.960 . S
H1306 C1298 0.930 . S
H1307 C1299 0.929 . S
H1308 C1316 0.929 . S
H1309 C1318 0.930 . S
H1310 C1320 0.930 . S
H1311 C1323 0.929 . S
H1312 C1326 0.930 . S
H1313 C1328 0.960 . S
H1314 C1328 0.960 . S
H1315 C1328 0.960 . S
C1316 H1308 0.929 . S
C1316 C1317 1.377 . S
C1316 C1318 1.384 . S
C1317 C1316 1.377 . S
C1317 C1323 1.390 . S
C1318 H1309 0.930 . S
C1318 C1316 1.384 . S
C1318 C1319 1.372 . S
C1319 C1318 1.372 . S
C1319 C1320 1.400 . S
C1319 C1324 1.490 . S
C1320 H1310 0.930 . S
C1320 C1319 1.400 . S
C1320 C1323 1.386 . S
H1321 C1337 0.930 . S
H1322 C1338 0.931 1_455 S
C1323 H1311 0.929 . S
C1323 C1317 1.390 . S
C1323 C1320 1.386 . S
C1324 C1319 1.490 . S
C1324 C1326 1.395 . S
C1324 C1327 1.403 . S
H1325 C1331 0.930 . S
C1326 H1312 0.930 . S
C1326 C1324 1.395 . S
C1326 C1329 1.403 . S
C1327 C1324 1.403 . S
C1327 C1328 1.524 . S
C1327 C1331 1.400 . S
C1328 H1313 0.960 . S
C1328 H1314 0.960 . S
C1328 H1315 0.960 . S
C1328 C1327 1.524 . S
C1329 C1326 1.403 . S
C1329 C1330 1.392 . S
C1329 C1333 1.495 1_455 S
C1330 C1329 1.392 . S
C1330 C1331 1.385 . S
C1330 C1332 1.478 1_455 S
C1331 H1325 0.930 . S
C1331 C1327 1.400 . S
C1331 C1330 1.385 . S
C1332 C1330 1.478 1_655 S
C1332 C1334 1.381 . S
C1332 C1338 1.383 . S
C1333 C1329 1.495 1_655 S
C1333 H1339 0.959 . S
C1333 H1340 0.961 . S
C1333 H1341 0.960 . S
C1334 C1332 1.381 . S
C1334 C1335 1.394 . S
C1334 H1342 0.930 . S
C1335 C1334 1.394 . S
C1335 C1336 1.383 . S
C1335 H1343 0.929 . S
C1336 C1335 1.383 . S
C1336 C1337 1.377 . S
C1337 H1321 0.930 . S
C1337 C1336 1.377 . S
C1337 C1338 1.379 . S
C1338 H1322 0.931 1_655 S
C1338 C1332 1.383 . S
C1338 C1337 1.379 . S
H1339 C1333 0.959 . S
H1340 C1333 0.961 . S
H1341 C1333 0.960 . S
H1342 C1334 0.930 . S
H1343 C1335 0.929 . S
H1344 C1352 0.929 . S
H1345 C1354 0.930 . S
H1346 C1356 0.930 . S
H1347 C1359 0.929 . S
H1348 C1362 0.930 . S
H1349 C1364 0.960 . S
H1350 C1364 0.960 . S
H1351 C1364 0.960 . S
C1352 H1344 0.929 . S
C1352 C1353 1.377 . S
C1352 C1354 1.384 . S
C1353 C1352 1.377 . S
C1353 C1359 1.390 . S
C1354 H1345 0.930 . S
C1354 C1352 1.384 . S
C1354 C1355 1.372 . S
C1355 C1354 1.372 . S
C1355 C1356 1.400 . S
C1355 C1360 1.490 . S
C1356 H1346 0.930 . S
C1356 C1355 1.400 . S
C1356 C1359 1.386 . S
H1357 C1373 0.930 . S
H1358 C1374 0.931 . S
C1359 H1347 0.929 . S
C1359 C1353 1.390 . S
C1359 C1356 1.386 . S
C1360 C1355 1.490 . S
C1360 C1362 1.395 . S
C1360 C1363 1.403 . S
H1361 C1367 0.930 . S
C1362 H1348 0.930 . S
C1362 C1360 1.395 . S
C1362 C1365 1.403 . S
C1363 C1360 1.403 . S
C1363 C1364 1.524 . S
C1363 C1367 1.400 . S
C1364 H1349 0.960 . S
C1364 H1350 0.960 . S
C1364 H1351 0.960 . S
C1364 C1363 1.524 . S
C1365 C1362 1.403 . S
C1365 C1366 1.392 . S
C1365 C1369 1.495 . S
C1366 C1365 1.392 . S
C1366 C1367 1.385 . S
C1366 C1368 1.478 . S
C1367 H1361 0.930 . S
C1367 C1363 1.400 . S
C1367 C1366 1.385 . S
C1368 C1366 1.478 . S
C1368 C1370 1.381 . S
C1368 C1374 1.383 . S
C1369 C1365 1.495 . S
C1369 H1375 0.959 . S
C1369 H1376 0.961 . S
C1369 H1377 0.960 . S
C1370 C1368 1.381 . S
C1370 C1371 1.394 . S
C1370 H1378 0.930 . S
C1371 C1370 1.394 . S
C1371 C1372 1.383 . S
C1371 H1379 0.929 . S
C1372 C1371 1.383 . S
C1372 C1373 1.377 . S
C1373 H1357 0.930 . S
C1373 C1372 1.377 . S
C1373 C1374 1.379 . S
C1374 H1358 0.931 . S
C1374 C1368 1.383 . S
C1374 C1373 1.379 . S
H1375 C1369 0.959 . S
H1376 C1369 0.961 . S
H1377 C1369 0.960 . S
H1378 C1370 0.930 . S
H1379 C1371 0.929 . S
H1380 C1388 0.929 . S
H1381 C1390 0.930 . S
H1382 C1392 0.930 . S
H1383 C1395 0.929 . S
H1384 C1398 0.930 1_455 S
H1385 C1400 0.960 . S
H1386 C1400 0.960 . S
H1387 C1400 0.960 . S
C1388 H1380 0.929 . S
C1388 C1389 1.377 . S
C1388 C1390 1.384 . S
C1389 C1388 1.377 . S
C1389 C1395 1.390 . S
C1390 H1381 0.930 . S
C1390 C1388 1.384 . S
C1390 C1391 1.372 . S
C1391 C1390 1.372 . S
C1391 C1392 1.400 . S
C1391 C1396 1.490 1_455 S
C1392 H1382 0.930 . S
C1392 C1391 1.400 . S
C1392 C1395 1.386 . S
H1393 C1409 0.930 . S
H1394 C1410 0.931 . S
C1395 H1383 0.929 . S
C1395 C1389 1.390 . S
C1395 C1392 1.386 . S
C1396 C1391 1.490 1_655 S
C1396 C1398 1.395 . S
C1396 C1399 1.403 . S
H1397 C1403 0.930 . S
C1398 H1384 0.930 1_655 S
C1398 C1396 1.395 . S
C1398 C1401 1.403 . S
C1399 C1396 1.403 . S
C1399 C1400 1.524 . S
C1399 C1403 1.400 . S
C1400 H1385 0.960 . S
C1400 H1386 0.960 . S
C1400 H1387 0.960 . S
C1400 C1399 1.524 . S
C1401 C1398 1.403 . S
C1401 C1402 1.392 . S
C1401 C1405 1.495 . S
C1402 C1401 1.392 . S
C1402 C1403 1.385 . S
C1402 C1404 1.478 . S
C1403 H1397 0.930 . S
C1403 C1399 1.400 . S
C1403 C1402 1.385 . S
C1404 C1402 1.478 . S
C1404 C1406 1.381 . S
C1404 C1410 1.383 . S
C1405 C1401 1.495 . S
C1405 H1411 0.959 . S
C1405 H1412 0.961 . S
C1405 H1413 0.960 . S
C1406 C1404 1.381 . S
C1406 C1407 1.394 . S
C1406 H1414 0.930 . S
C1407 C1406 1.394 . S
C1407 C1408 1.383 . S
C1407 H1415 0.929 . S
C1408 C1407 1.383 . S
C1408 C1409 1.377 . S
C1409 H1393 0.930 . S
C1409 C1408 1.377 . S
C1409 C1410 1.379 . S
C1410 H1394 0.931 . S
C1410 C1404 1.383 . S
C1410 C1409 1.379 . S
H1411 C1405 0.959 . S
H1412 C1405 0.961 . S
H1413 C1405 0.960 . S
H1414 C1406 0.930 . S
H1415 C1407 0.929 . S
H1416 C1424 0.929 . S
H1417 C1426 0.930 . S
H1418 C1428 0.930 . S
H1419 C1431 0.929 . S
H1420 C1434 0.930 . S
H1421 C1436 0.960 . S
H1422 C1436 0.960 . S
H1423 C1436 0.960 . S
C1424 H1416 0.929 . S
C1424 C1425 1.377 . S
C1424 C1426 1.384 . S
C1425 C1424 1.377 . S
C1425 C1431 1.390 . S
C1426 H1417 0.930 . S
C1426 C1424 1.384 . S
C1426 C1427 1.372 . S
C1427 C1426 1.372 . S
C1427 C1428 1.400 . S
C1427 C1432 1.490 . S
C1428 H1418 0.930 . S
C1428 C1427 1.400 . S
C1428 C1431 1.386 . S
H1429 C1445 0.930 . S
H1430 C1446 0.931 . S
C1431 H1419 0.929 . S
C1431 C1425 1.390 . S
C1431 C1428 1.386 . S
C1432 C1427 1.490 . S
C1432 C1434 1.395 . S
C1432 C1435 1.403 . S
H1433 C1439 0.930 . S
C1434 H1420 0.930 . S
C1434 C1432 1.395 . S
C1434 C1437 1.403 . S
C1435 C1432 1.403 . S
C1435 C1436 1.524 . S
C1435 C1439 1.400 . S
C1436 H1421 0.960 . S
C1436 H1422 0.960 . S
C1436 H1423 0.960 . S
C1436 C1435 1.524 . S
C1437 C1434 1.403 . S
C1437 C1438 1.392 . S
C1437 C1441 1.495 . S
C1438 C1437 1.392 . S
C1438 C1439 1.385 . S
C1438 C1440 1.478 . S
C1439 H1433 0.930 . S
C1439 C1435 1.400 . S
C1439 C1438 1.385 . S
C1440 C1438 1.478 . S
C1440 C1442 1.381 . S
C1440 C1446 1.383 . S
C1441 C1437 1.495 . S
C1441 H1447 0.959 . S
C1441 H1448 0.961 . S
C1441 H1449 0.960 . S
C1442 C1440 1.381 . S
C1442 C1443 1.394 . S
C1442 H1450 0.930 . S
C1443 C1442 1.394 . S
C1443 C1444 1.383 . S
C1443 H1451 0.929 . S
C1444 C1443 1.383 . S
C1444 C1445 1.377 . S
C1445 H1429 0.930 . S
C1445 C1444 1.377 . S
C1445 C1446 1.379 . S
C1446 H1430 0.931 . S
C1446 C1440 1.383 . S
C1446 C1445 1.379 . S
H1447 C1441 0.959 . S
H1448 C1441 0.961 . S
H1449 C1441 0.960 . S
H1450 C1442 0.930 . S
H1451 C1443 0.929 . S
H1452 C1460 0.929 . S
H1453 C1462 0.930 . S
H1454 C1464 0.930 . S
H1455 C1467 0.929 . S
H1456 C1470 0.930 . S
H1457 C1472 0.960 . S
H1458 C1472 0.960 . S
H1459 C1472 0.960 . S
C1460 H1452 0.929 . S
C1460 C1461 1.377 . S
C1460 C1462 1.384 . S
C1461 C1460 1.377 . S
C1461 C1467 1.390 . S
C1462 H1453 0.930 . S
C1462 C1460 1.384 . S
C1462 C1463 1.372 . S
C1463 C1462 1.372 . S
C1463 C1464 1.400 . S
C1463 C1468 1.490 . S
C1464 H1454 0.930 . S
C1464 C1463 1.400 . S
C1464 C1467 1.386 . S
H1465 C1481 0.930 . S
H1466 C1482 0.931 . S
C1467 H1455 0.929 . S
C1467 C1461 1.390 . S
C1467 C1464 1.386 . S
C1468 C1463 1.490 . S
C1468 C1470 1.395 . S
C1468 C1471 1.403 . S
H1469 C1475 0.930 . S
C1470 H1456 0.930 . S
C1470 C1468 1.395 . S
C1470 C1473 1.403 . S
C1471 C1468 1.403 . S
C1471 C1472 1.524 . S
C1471 C1475 1.400 . S
C1472 H1457 0.960 . S
C1472 H1458 0.960 . S
C1472 H1459 0.960 . S
C1472 C1471 1.524 . S
C1473 C1470 1.403 . S
C1473 C1474 1.392 . S
C1473 C1477 1.495 . S
C1474 C1473 1.392 . S
C1474 C1475 1.385 . S
C1474 C1476 1.478 . S
C1475 H1469 0.930 . S
C1475 C1471 1.400 . S
C1475 C1474 1.385 . S
C1476 C1474 1.478 . S
C1476 C1478 1.381 . S
C1476 C1482 1.383 . S
C1477 C1473 1.495 . S
C1477 H1483 0.959 . S
C1477 H1484 0.961 . S
C1477 H1485 0.960 . S
C1478 C1476 1.381 . S
C1478 C1479 1.394 . S
C1478 H1486 0.930 . S
C1479 C1478 1.394 . S
C1479 C1480 1.383 . S
C1479 H1487 0.929 . S
C1480 C1479 1.383 . S
C1480 C1481 1.377 . S
C1481 H1465 0.930 . S
C1481 C1480 1.377 . S
C1481 C1482 1.379 . S
C1482 H1466 0.931 . S
C1482 C1476 1.383 . S
C1482 C1481 1.379 . S
H1483 C1477 0.959 . S
H1484 C1477 0.961 . S
H1485 C1477 0.960 . S
H1486 C1478 0.930 . S
H1487 C1479 0.929 . S
H1488 C1496 0.929 . S
H1489 C1498 0.930 . S
H1490 C1500 0.930 . S
H1491 C1503 0.929 . S
H1492 C1506 0.930 . S
H1493 C1508 0.960 . S
H1494 C1508 0.960 . S
H1495 C1508 0.960 . S
C1496 H1488 0.929 . S
C1496 C1497 1.377 . S
C1496 C1498 1.384 . S
C1497 C1496 1.377 . S
C1497 C1503 1.390 . S
C1498 H1489 0.930 . S
C1498 C1496 1.384 . S
C1498 C1499 1.372 . S
C1499 C1498 1.372 . S
C1499 C1500 1.400 . S
C1499 C1504 1.490 . S
C1500 H1490 0.930 . S
C1500 C1499 1.400 . S
C1500 C1503 1.386 . S
H1501 C1517 0.930 . S
H1502 C1518 0.931 . S
C1503 H1491 0.929 . S
C1503 C1497 1.390 . S
C1503 C1500 1.386 . S
C1504 C1499 1.490 . S
C1504 C1506 1.395 . S
C1504 C1507 1.403 . S
H1505 C1511 0.930 . S
C1506 H1492 0.930 . S
C1506 C1504 1.395 . S
C1506 C1509 1.403 . S
C1507 C1504 1.403 . S
C1507 C1508 1.524 . S
C1507 C1511 1.400 . S
C1508 H1493 0.960 . S
C1508 H1494 0.960 . S
C1508 H1495 0.960 . S
C1508 C1507 1.524 . S
C1509 C1506 1.403 . S
C1509 C1510 1.392 . S
C1509 C1513 1.495 . S
C1510 C1509 1.392 . S
C1510 C1511 1.385 . S
C1510 C1512 1.478 . S
C1511 H1505 0.930 . S
C1511 C1507 1.400 . S
C1511 C1510 1.385 . S
C1512 C1510 1.478 . S
C1512 C1514 1.381 . S
C1512 C1518 1.383 . S
C1513 C1509 1.495 . S
C1513 H1519 0.959 . S
C1513 H1520 0.961 . S
C1513 H1521 0.960 . S
C1514 C1512 1.381 . S
C1514 C1515 1.394 . S
C1514 H1522 0.930 . S
C1515 C1514 1.394 . S
C1515 C1516 1.383 . S
C1515 H1523 0.929 . S
C1516 C1515 1.383 . S
C1516 C1517 1.377 . S
C1517 H1501 0.930 . S
C1517 C1516 1.377 . S
C1517 C1518 1.379 . S
C1518 H1502 0.931 . S
C1518 C1512 1.383 . S
C1518 C1517 1.379 . S
H1519 C1513 0.959 . S
H1520 C1513 0.961 . S
H1521 C1513 0.960 . S
H1522 C1514 0.930 . S
H1523 C1515 0.929 . S
H1524 C1532 0.929 . S
H1525 C1534 0.930 . S
H1526 C1536 0.930 . S
H1527 C1539 0.929 . S
H1528 C1542 0.930 . S
H1529 C1544 0.960 . S
H1530 C1544 0.960 . S
H1531 C1544 0.960 . S
C1532 H1524 0.929 . S
C1532 C1533 1.377 . S
C1532 C1534 1.384 . S
C1533 C1532 1.377 . S
C1533 C1539 1.390 . S
C1534 H1525 0.930 . S
C1534 C1532 1.384 . S
C1534 C1535 1.372 . S
C1535 C1534 1.372 . S
C1535 C1536 1.400 . S
C1535 C1540 1.490 . S
C1536 H1526 0.930 . S
C1536 C1535 1.400 . S
C1536 C1539 1.386 . S
H1537 C1553 0.930 . S
H1538 C1554 0.931 . S
C1539 H1527 0.929 . S
C1539 C1533 1.390 . S
C1539 C1536 1.386 . S
C1540 C1535 1.490 . S
C1540 C1542 1.395 . S
C1540 C1543 1.403 . S
H1541 C1547 0.930 . S
C1542 H1528 0.930 . S
C1542 C1540 1.395 . S
C1542 C1545 1.403 . S
C1543 C1540 1.403 . S
C1543 C1544 1.524 . S
C1543 C1547 1.400 . S
C1544 H1529 0.960 . S
C1544 H1530 0.960 . S
C1544 H1531 0.960 . S
C1544 C1543 1.524 . S
C1545 C1542 1.403 . S
C1545 C1546 1.392 . S
C1545 C1549 1.495 . S
C1546 C1545 1.392 . S
C1546 C1547 1.385 . S
C1546 C1548 1.478 . S
C1547 H1541 0.930 . S
C1547 C1543 1.400 . S
C1547 C1546 1.385 . S
C1548 C1546 1.478 . S
C1548 C1550 1.381 . S
C1548 C1554 1.383 . S
C1549 C1545 1.495 . S
C1549 H1555 0.959 . S
C1549 H1556 0.961 . S
C1549 H1557 0.960 . S
C1550 C1548 1.381 . S
C1550 C1551 1.394 . S
C1550 H1558 0.930 . S
C1551 C1550 1.394 . S
C1551 C1552 1.383 . S
C1551 H1559 0.929 . S
C1552 C1551 1.383 . S
C1552 C1553 1.377 . S
C1553 H1537 0.930 . S
C1553 C1552 1.377 . S
C1553 C1554 1.379 . S
C1554 H1538 0.931 . S
C1554 C1548 1.383 . S
C1554 C1553 1.379 . S
H1555 C1549 0.959 . S
H1556 C1549 0.961 . S
H1557 C1549 0.960 . S
H1558 C1550 0.930 . S
H1559 C1551 0.929 . S
H1560 C1568 0.929 . S
H1561 C1570 0.930 . S
H1562 C1572 0.930 . S
H1563 C1575 0.929 . S
H1564 C1578 0.930 . S
H1565 C1580 0.960 . S
H1566 C1580 0.960 . S
H1567 C1580 0.960 . S
C1568 H1560 0.929 . S
C1568 C1569 1.377 . S
C1568 C1570 1.384 . S
C1569 C1568 1.377 . S
C1569 C1575 1.390 . S
C1570 H1561 0.930 . S
C1570 C1568 1.384 . S
C1570 C1571 1.372 . S
C1571 C1570 1.372 . S
C1571 C1572 1.400 . S
C1571 C1576 1.490 . S
C1572 H1562 0.930 . S
C1572 C1571 1.400 . S
C1572 C1575 1.386 . S
H1573 C1589 0.930 . S
H1574 C1590 0.931 . S
C1575 H1563 0.929 . S
C1575 C1569 1.390 . S
C1575 C1572 1.386 . S
C1576 C1571 1.490 . S
C1576 C1578 1.395 . S
C1576 C1579 1.403 . S
H1577 C1583 0.930 . S
C1578 H1564 0.930 . S
C1578 C1576 1.395 . S
C1578 C1581 1.403 . S
C1579 C1576 1.403 . S
C1579 C1580 1.524 . S
C1579 C1583 1.400 . S
C1580 H1565 0.960 . S
C1580 H1566 0.960 . S
C1580 H1567 0.960 . S
C1580 C1579 1.524 . S
C1581 C1578 1.403 . S
C1581 C1582 1.392 . S
C1581 C1585 1.495 . S
C1582 C1581 1.392 . S
C1582 C1583 1.385 . S
C1582 C1584 1.478 . S
C1583 H1577 0.930 . S
C1583 C1579 1.400 . S
C1583 C1582 1.385 . S
C1584 C1582 1.478 . S
C1584 C1586 1.381 . S
C1584 C1590 1.383 . S
C1585 C1581 1.495 . S
C1585 H1591 0.959 . S
C1585 H1592 0.961 . S
C1585 H1593 0.960 . S
C1586 C1584 1.381 . S
C1586 C1587 1.394 . S
C1586 H1594 0.930 . S
C1587 C1586 1.394 . S
C1587 C1588 1.383 . S
C1587 H1595 0.929 . S
C1588 C1587 1.383 . S
C1588 C1589 1.377 . S
C1589 H1573 0.930 . S
C1589 C1588 1.377 . S
C1589 C1590 1.379 . S
C1590 H1574 0.931 . S
C1590 C1584 1.383 . S
C1590 C1589 1.379 . S
H1591 C1585 0.959 . S
H1592 C1585 0.961 . S
H1593 C1585 0.960 . S
H1594 C1586 0.930 . S
H1595 C1587 0.929 . S
H1596 C1604 0.929 . S
H1597 C1606 0.930 . S
H1598 C1608 0.930 1_655 S
H1599 C1611 0.929 . S
H1600 C1614 0.930 . S
H1601 C1616 0.960 . S
H1602 C1616 0.960 1_455 S
H1603 C1616 0.960 . S
C1604 H1596 0.929 . S
C1604 C1605 1.377 . S
C1604 C1606 1.384 . S
C1605 C1604 1.377 . S
C1605 C1611 1.390 . S
C1606 H1597 0.930 . S
C1606 C1604 1.384 . S
C1606 C1607 1.372 . S
C1607 C1606 1.372 . S
C1607 C1608 1.400 . S
C1607 C1612 1.490 1_455 S
C1608 H1598 0.930 1_455 S
C1608 C1607 1.400 . S
C1608 C1611 1.386 . S
H1609 C1625 0.930 . S
H1610 C1626 0.931 . S
C1611 H1599 0.929 . S
C1611 C1605 1.390 . S
C1611 C1608 1.386 . S
C1612 C1607 1.490 1_655 S
C1612 C1614 1.395 . S
C1612 C1615 1.403 . S
H1613 C1619 0.930 . S
C1614 H1600 0.930 . S
C1614 C1612 1.395 . S
C1614 C1617 1.403 . S
C1615 C1612 1.403 . S
C1615 C1616 1.524 . S
C1615 C1619 1.400 . S
C1616 H1601 0.960 . S
C1616 H1602 0.960 1_655 S
C1616 H1603 0.960 . S
C1616 C1615 1.524 . S
C1617 C1614 1.403 . S
C1617 C1618 1.392 . S
C1617 C1621 1.495 . S
C1618 C1617 1.392 . S
C1618 C1619 1.385 . S
C1618 C1620 1.478 . S
C1619 H1613 0.930 . S
C1619 C1615 1.400 . S
C1619 C1618 1.385 . S
C1620 C1618 1.478 . S
C1620 C1622 1.381 . S
C1620 C1626 1.383 . S
C1621 C1617 1.495 . S
C1621 H1627 0.959 . S
C1621 H1628 0.961 . S
C1621 H1629 0.960 . S
C1622 C1620 1.381 . S
C1622 C1623 1.394 . S
C1622 H1630 0.930 . S
C1623 C1622 1.394 . S
C1623 C1624 1.383 . S
C1623 H1631 0.929 . S
C1624 C1623 1.383 . S
C1624 C1625 1.377 . S
C1625 H1609 0.930 . S
C1625 C1624 1.377 . S
C1625 C1626 1.379 . S
C1626 H1610 0.931 . S
C1626 C1620 1.383 . S
C1626 C1625 1.379 . S
H1627 C1621 0.959 . S
H1628 C1621 0.961 . S
H1629 C1621 0.960 . S
H1630 C1622 0.930 . S
H1631 C1623 0.929 . S
H1632 C1640 0.929 . S
H1633 C1642 0.930 . S
H1634 C1644 0.930 . S
H1635 C1647 0.929 . S
H1636 C1650 0.930 . S
H1637 C1652 0.960 . S
H1638 C1652 0.960 . S
H1639 C1652 0.960 . S
C1640 H1632 0.929 . S
C1640 C1641 1.377 . S
C1640 C1642 1.384 . S
C1641 C1640 1.377 . S
C1641 C1647 1.390 . S
C1642 H1633 0.930 . S
C1642 C1640 1.384 . S
C1642 C1643 1.372 . S
C1643 C1642 1.372 . S
C1643 C1644 1.400 . S
C1643 C1648 1.490 . S
C1644 H1634 0.930 . S
C1644 C1643 1.400 . S
C1644 C1647 1.386 . S
H1645 C1661 0.930 . S
H1646 C1662 0.931 . S
C1647 H1635 0.929 . S
C1647 C1641 1.390 . S
C1647 C1644 1.386 . S
C1648 C1643 1.490 . S
C1648 C1650 1.395 . S
C1648 C1651 1.403 . S
H1649 C1655 0.930 . S
C1650 H1636 0.930 . S
C1650 C1648 1.395 . S
C1650 C1653 1.403 . S
C1651 C1648 1.403 . S
C1651 C1652 1.524 . S
C1651 C1655 1.400 . S
C1652 H1637 0.960 . S
C1652 H1638 0.960 . S
C1652 H1639 0.960 . S
C1652 C1651 1.524 . S
C1653 C1650 1.403 . S
C1653 C1654 1.392 . S
C1653 C1657 1.495 . S
C1654 C1653 1.392 . S
C1654 C1655 1.385 . S
C1654 C1656 1.478 . S
C1655 H1649 0.930 . S
C1655 C1651 1.400 . S
C1655 C1654 1.385 . S
C1656 C1654 1.478 . S
C1656 C1658 1.381 . S
C1656 C1662 1.383 . S
C1657 C1653 1.495 . S
C1657 H1663 0.959 . S
C1657 H1664 0.961 . S
C1657 H1665 0.960 . S
C1658 C1656 1.381 . S
C1658 C1659 1.394 . S
C1658 H1666 0.930 . S
C1659 C1658 1.394 . S
C1659 C1660 1.383 . S
C1659 H1667 0.929 . S
C1660 C1659 1.383 . S
C1660 C1661 1.377 . S
C1661 H1645 0.930 . S
C1661 C1660 1.377 . S
C1661 C1662 1.379 . S
C1662 H1646 0.931 . S
C1662 C1656 1.383 . S
C1662 C1661 1.379 . S
H1663 C1657 0.959 . S
H1664 C1657 0.961 . S
H1665 C1657 0.960 . S
H1666 C1658 0.930 . S
H1667 C1659 0.929 . S
H1668 C1676 0.929 . S
H1669 C1678 0.930 . S
H1670 C1680 0.930 . S
H1671 C1683 0.929 . S
H1672 C1686 0.930 . S
H1673 C1688 0.960 . S
H1674 C1688 0.960 . S
H1675 C1688 0.960 . S
C1676 H1668 0.929 . S
C1676 C1677 1.377 . S
C1676 C1678 1.384 . S
C1677 C1676 1.377 . S
C1677 C1683 1.390 . S
C1678 H1669 0.930 . S
C1678 C1676 1.384 . S
C1678 C1679 1.372 . S
C1679 C1678 1.372 . S
C1679 C1680 1.400 . S
C1679 C1684 1.490 . S
C1680 H1670 0.930 . S
C1680 C1679 1.400 . S
C1680 C1683 1.386 . S
H1681 C1697 0.930 . S
H1682 C1698 0.931 . S
C1683 H1671 0.929 . S
C1683 C1677 1.390 . S
C1683 C1680 1.386 . S
C1684 C1679 1.490 . S
C1684 C1686 1.395 . S
C1684 C1687 1.403 . S
H1685 C1691 0.930 . S
C1686 H1672 0.930 . S
C1686 C1684 1.395 . S
C1686 C1689 1.403 . S
C1687 C1684 1.403 . S
C1687 C1688 1.524 . S
C1687 C1691 1.400 . S
C1688 H1673 0.960 . S
C1688 H1674 0.960 . S
C1688 H1675 0.960 . S
C1688 C1687 1.524 . S
C1689 C1686 1.403 . S
C1689 C1690 1.392 . S
C1689 C1693 1.495 . S
C1690 C1689 1.392 . S
C1690 C1691 1.385 . S
C1690 C1692 1.478 . S
C1691 H1685 0.930 . S
C1691 C1687 1.400 . S
C1691 C1690 1.385 . S
C1692 C1690 1.478 . S
C1692 C1694 1.381 . S
C1692 C1698 1.383 . S
C1693 C1689 1.495 . S
C1693 H1699 0.959 . S
C1693 H1700 0.961 . S
C1693 H1701 0.960 . S
C1694 C1692 1.381 . S
C1694 C1695 1.394 . S
C1694 H1702 0.930 . S
C1695 C1694 1.394 . S
C1695 C1696 1.383 . S
C1695 H1703 0.929 . S
C1696 C1695 1.383 . S
C1696 C1697 1.377 . S
C1697 H1681 0.930 . S
C1697 C1696 1.377 . S
C1697 C1698 1.379 . S
C1698 H1682 0.931 . S
C1698 C1692 1.383 . S
C1698 C1697 1.379 . S
H1699 C1693 0.959 . S
H1700 C1693 0.961 . S
H1701 C1693 0.960 . S
H1702 C1694 0.930 . S
H1703 C1695 0.929 . S
H1704 C1712 0.929 . S
H1705 C1714 0.930 . S
H1706 C1716 0.930 . S
H1707 C1719 0.929 . S
H1708 C1722 0.930 . S
H1709 C1724 0.960 . S
H1710 C1724 0.960 . S
H1711 C1724 0.960 . S
C1712 H1704 0.929 . S
C1712 C1713 1.377 . S
C1712 C1714 1.384 . S
C1713 C1712 1.377 . S
C1713 C1719 1.390 . S
C1714 H1705 0.930 . S
C1714 C1712 1.384 . S
C1714 C1715 1.372 . S
C1715 C1714 1.372 . S
C1715 C1716 1.400 . S
C1715 C1720 1.490 . S
C1716 H1706 0.930 . S
C1716 C1715 1.400 . S
C1716 C1719 1.386 . S
H1717 C1733 0.930 . S
H1718 C1734 0.931 . S
C1719 H1707 0.929 . S
C1719 C1713 1.390 . S
C1719 C1716 1.386 . S
C1720 C1715 1.490 . S
C1720 C1722 1.395 . S
C1720 C1723 1.403 . S
H1721 C1727 0.930 . S
C1722 H1708 0.930 . S
C1722 C1720 1.395 . S
C1722 C1725 1.403 . S
C1723 C1720 1.403 . S
C1723 C1724 1.524 . S
C1723 C1727 1.400 . S
C1724 H1709 0.960 . S
C1724 H1710 0.960 . S
C1724 H1711 0.960 . S
C1724 C1723 1.524 . S
C1725 C1722 1.403 . S
C1725 C1726 1.392 . S
C1725 C1729 1.495 . S
C1726 C1725 1.392 . S
C1726 C1727 1.385 . S
C1726 C1728 1.478 . S
C1727 H1721 0.930 . S
C1727 C1723 1.400 . S
C1727 C1726 1.385 . S
C1728 C1726 1.478 . S
C1728 C1730 1.381 . S
C1728 C1734 1.383 . S
C1729 C1725 1.495 . S
C1729 H1735 0.959 . S
C1729 H1736 0.961 . S
C1729 H1737 0.960 . S
C1730 C1728 1.381 . S
C1730 C1731 1.394 . S
C1730 H1738 0.930 . S
C1731 C1730 1.394 . S
C1731 C1732 1.383 . S
C1731 H1739 0.929 . S
C1732 C1731 1.383 . S
C1732 C1733 1.377 . S
C1733 H1717 0.930 . S
C1733 C1732 1.377 . S
C1733 C1734 1.379 . S
C1734 H1718 0.931 . S
C1734 C1728 1.383 . S
C1734 C1733 1.379 . S
H1735 C1729 0.959 . S
H1736 C1729 0.961 . S
H1737 C1729 0.960 . S
H1738 C1730 0.930 . S
H1739 C1731 0.929 . S
H1740 C1748 0.929 . S
H1741 C1750 0.930 . S
H1742 C1752 0.930 . S
H1743 C1755 0.929 . S
H1744 C1758 0.930 . S
H1745 C1760 0.960 . S
H1746 C1760 0.960 . S
H1747 C1760 0.960 . S
C1748 H1740 0.929 . S
C1748 C1749 1.377 . S
C1748 C1750 1.384 . S
C1749 C1748 1.377 . S
C1749 C1755 1.390 . S
C1750 H1741 0.930 . S
C1750 C1748 1.384 . S
C1750 C1751 1.372 . S
C1751 C1750 1.372 . S
C1751 C1752 1.400 . S
C1751 C1756 1.490 . S
C1752 H1742 0.930 . S
C1752 C1751 1.400 . S
C1752 C1755 1.386 . S
H1753 C1769 0.930 . S
H1754 C1770 0.931 . S
C1755 H1743 0.929 . S
C1755 C1749 1.390 . S
C1755 C1752 1.386 . S
C1756 C1751 1.490 . S
C1756 C1758 1.395 . S
C1756 C1759 1.403 . S
H1757 C1763 0.930 1_455 S
C1758 H1744 0.930 . S
C1758 C1756 1.395 . S
C1758 C1761 1.403 . S
C1759 C1756 1.403 . S
C1759 C1760 1.524 . S
C1759 C1763 1.400 . S
C1760 H1745 0.960 . S
C1760 H1746 0.960 . S
C1760 H1747 0.960 . S
C1760 C1759 1.524 . S
C1761 C1758 1.403 . S
C1761 C1762 1.392 . S
C1761 C1765 1.495 . S
C1762 C1761 1.392 . S
C1762 C1763 1.385 . S
C1762 C1764 1.478 1_655 S
C1763 H1757 0.930 1_655 S
C1763 C1759 1.400 . S
C1763 C1762 1.385 . S
C1764 C1762 1.478 1_455 S
C1764 C1766 1.381 . S
C1764 C1770 1.383 . S
C1765 C1761 1.495 . S
C1765 H1771 0.959 . S
C1765 H1772 0.961 . S
C1765 H1773 0.960 . S
C1766 C1764 1.381 . S
C1766 C1767 1.394 . S
C1766 H1774 0.930 . S
C1767 C1766 1.394 . S
C1767 C1768 1.383 . S
C1767 H1775 0.929 . S
C1768 C1767 1.383 . S
C1768 C1769 1.377 . S
C1769 H1753 0.930 . S
C1769 C1768 1.377 . S
C1769 C1770 1.379 . S
C1770 H1754 0.931 . S
C1770 C1764 1.383 . S
C1770 C1769 1.379 . S
H1771 C1765 0.959 . S
H1772 C1765 0.961 . S
H1773 C1765 0.960 . S
H1774 C1766 0.930 . S
H1775 C1767 0.929 . S
H1776 C1784 0.929 . S
H1777 C1786 0.930 . S
H1778 C1788 0.930 . S
H1779 C1791 0.929 . S
H1780 C1794 0.930 . S
H1781 C1796 0.960 . S
H1782 C1796 0.960 . S
H1783 C1796 0.960 . S
C1784 H1776 0.929 . S
C1784 C1785 1.377 . S
C1784 C1786 1.384 . S
C1785 C1784 1.377 . S
C1785 C1791 1.390 . S
C1786 H1777 0.930 . S
C1786 C1784 1.384 . S
C1786 C1787 1.372 . S
C1787 C1786 1.372 . S
C1787 C1788 1.400 . S
C1787 C1792 1.490 . S
C1788 H1778 0.930 . S
C1788 C1787 1.400 . S
C1788 C1791 1.386 . S
H1789 C1805 0.930 . S
H1790 C1806 0.931 . S
C1791 H1779 0.929 . S
C1791 C1785 1.390 . S
C1791 C1788 1.386 . S
C1792 C1787 1.490 . S
C1792 C1794 1.395 . S
C1792 C1795 1.403 . S
H1793 C1799 0.930 . S
C1794 H1780 0.930 . S
C1794 C1792 1.395 . S
C1794 C1797 1.403 . S
C1795 C1792 1.403 . S
C1795 C1796 1.524 . S
C1795 C1799 1.400 . S
C1796 H1781 0.960 . S
C1796 H1782 0.960 . S
C1796 H1783 0.960 . S
C1796 C1795 1.524 . S
C1797 C1794 1.403 . S
C1797 C1798 1.392 . S
C1797 C1801 1.495 . S
C1798 C1797 1.392 . S
C1798 C1799 1.385 . S
C1798 C1800 1.478 . S
C1799 H1793 0.930 . S
C1799 C1795 1.400 . S
C1799 C1798 1.385 . S
C1800 C1798 1.478 . S
C1800 C1802 1.381 . S
C1800 C1806 1.383 . S
C1801 C1797 1.495 . S
C1801 H1807 0.959 . S
C1801 H1808 0.961 . S
C1801 H1809 0.960 . S
C1802 C1800 1.381 . S
C1802 C1803 1.394 . S
C1802 H1810 0.930 . S
C1803 C1802 1.394 . S
C1803 C1804 1.383 . S
C1803 H1811 0.929 . S
C1804 C1803 1.383 . S
C1804 C1805 1.377 . S
C1805 H1789 0.930 . S
C1805 C1804 1.377 . S
C1805 C1806 1.379 . S
C1806 H1790 0.931 . S
C1806 C1800 1.383 . S
C1806 C1805 1.379 . S
H1807 C1801 0.959 . S
H1808 C1801 0.961 . S
H1809 C1801 0.960 . S
H1810 C1802 0.930 . S
H1811 C1803 0.929 . S
H1812 C1820 0.929 . S
H1813 C1822 0.930 . S
H1814 C1824 0.930 1_655 S
H1815 C1827 0.929 . S
H1816 C1830 0.930 1_455 S
H1817 C1832 0.960 . S
H1818 C1832 0.960 . S
H1819 C1832 0.960 . S
C1820 H1812 0.929 . S
C1820 C1821 1.377 . S
C1820 C1822 1.384 . S
C1821 C1820 1.377 . S
C1821 C1827 1.390 . S
C1822 H1813 0.930 . S
C1822 C1820 1.384 . S
C1822 C1823 1.372 . S
C1823 C1822 1.372 . S
C1823 C1824 1.400 . S
C1823 C1828 1.490 1_455 S
C1824 H1814 0.930 1_455 S
C1824 C1823 1.400 . S
C1824 C1827 1.386 . S
H1825 C1841 0.930 . S
H1826 C1842 0.931 . S
C1827 H1815 0.929 . S
C1827 C1821 1.390 . S
C1827 C1824 1.386 . S
C1828 C1823 1.490 1_655 S
C1828 C1830 1.395 . S
C1828 C1831 1.403 . S
H1829 C1835 0.930 . S
C1830 H1816 0.930 1_655 S
C1830 C1828 1.395 . S
C1830 C1833 1.403 . S
C1831 C1828 1.403 . S
C1831 C1832 1.524 . S
C1831 C1835 1.400 . S
C1832 H1817 0.960 . S
C1832 H1818 0.960 . S
C1832 H1819 0.960 . S
C1832 C1831 1.524 . S
C1833 C1830 1.403 . S
C1833 C1834 1.392 . S
C1833 C1837 1.495 . S
C1834 C1833 1.392 . S
C1834 C1835 1.385 . S
C1834 C1836 1.478 . S
C1835 H1829 0.930 . S
C1835 C1831 1.400 . S
C1835 C1834 1.385 . S
C1836 C1834 1.478 . S
C1836 C1838 1.381 . S
C1836 C1842 1.383 . S
C1837 C1833 1.495 . S
C1837 H1843 0.959 . S
C1837 H1844 0.961 . S
C1837 H1845 0.960 . S
C1838 C1836 1.381 . S
C1838 C1839 1.394 . S
C1838 H1846 0.930 . S
C1839 C1838 1.394 . S
C1839 C1840 1.383 . S
C1839 H1847 0.929 . S
C1840 C1839 1.383 . S
C1840 C1841 1.377 . S
C1841 H1825 0.930 . S
C1841 C1840 1.377 . S
C1841 C1842 1.379 . S
C1842 H1826 0.931 . S
C1842 C1836 1.383 . S
C1842 C1841 1.379 . S
H1843 C1837 0.959 . S
H1844 C1837 0.961 . S
H1845 C1837 0.960 . S
H1846 C1838 0.930 . S
H1847 C1839 0.929 . S
H1848 C1856 0.929 . S
H1849 C1858 0.930 . S
H1850 C1860 0.930 . S
H1851 C1863 0.929 . S
H1852 C1866 0.930 . S
H1853 C1868 0.960 . S
H1854 C1868 0.960 . S
H1855 C1868 0.960 . S
C1856 H1848 0.929 . S
C1856 C1857 1.377 . S
C1856 C1858 1.384 . S
C1857 C1856 1.377 . S
C1857 C1863 1.390 . S
C1858 H1849 0.930 . S
C1858 C1856 1.384 . S
C1858 C1859 1.372 . S
C1859 C1858 1.372 . S
C1859 C1860 1.400 . S
C1859 C1864 1.490 . S
C1860 H1850 0.930 . S
C1860 C1859 1.400 . S
C1860 C1863 1.386 . S
H1861 C1877 0.930 . S
H1862 C1878 0.931 . S
C1863 H1851 0.929 . S
C1863 C1857 1.390 . S
C1863 C1860 1.386 . S
C1864 C1859 1.490 . S
C1864 C1866 1.395 . S
C1864 C1867 1.403 . S
H1865 C1871 0.930 . S
C1866 H1852 0.930 . S
C1866 C1864 1.395 . S
C1866 C1869 1.403 . S
C1867 C1864 1.403 . S
C1867 C1868 1.524 . S
C1867 C1871 1.400 . S
C1868 H1853 0.960 . S
C1868 H1854 0.960 . S
C1868 H1855 0.960 . S
C1868 C1867 1.524 . S
C1869 C1866 1.403 . S
C1869 C1870 1.392 . S
C1869 C1873 1.495 . S
C1870 C1869 1.392 . S
C1870 C1871 1.385 . S
C1870 C1872 1.478 . S
C1871 H1865 0.930 . S
C1871 C1867 1.400 . S
C1871 C1870 1.385 . S
C1872 C1870 1.478 . S
C1872 C1874 1.381 . S
C1872 C1878 1.383 . S
C1873 C1869 1.495 . S
C1873 H1879 0.959 . S
C1873 H1880 0.961 . S
C1873 H1881 0.960 . S
C1874 C1872 1.381 . S
C1874 C1875 1.394 . S
C1874 H1882 0.930 . S
C1875 C1874 1.394 . S
C1875 C1876 1.383 . S
C1875 H1883 0.929 . S
C1876 C1875 1.383 . S
C1876 C1877 1.377 . S
C1877 H1861 0.930 . S
C1877 C1876 1.377 . S
C1877 C1878 1.379 . S
C1878 H1862 0.931 . S
C1878 C1872 1.383 . S
C1878 C1877 1.379 . S
H1879 C1873 0.959 . S
H1880 C1873 0.961 . S
H1881 C1873 0.960 . S
H1882 C1874 0.930 . S
H1883 C1875 0.929 . S
H1884 C1892 0.929 . S
H1885 C1894 0.930 . S
H1886 C1896 0.930 . S
H1887 C1899 0.929 . S
H1888 C1902 0.930 . S
H1889 C1904 0.960 . S
H1890 C1904 0.960 . S
H1891 C1904 0.960 . S
C1892 H1884 0.929 . S
C1892 C1893 1.377 . S
C1892 C1894 1.384 . S
C1893 C1892 1.377 . S
C1893 C1899 1.390 . S
C1894 H1885 0.930 . S
C1894 C1892 1.384 . S
C1894 C1895 1.372 . S
C1895 C1894 1.372 . S
C1895 C1896 1.400 . S
C1895 C1900 1.490 . S
C1896 H1886 0.930 . S
C1896 C1895 1.400 . S
C1896 C1899 1.386 . S
H1897 C1913 0.930 . S
H1898 C1914 0.931 . S
C1899 H1887 0.929 . S
C1899 C1893 1.390 . S
C1899 C1896 1.386 . S
C1900 C1895 1.490 . S
C1900 C1902 1.395 . S
C1900 C1903 1.403 . S
H1901 C1907 0.930 . S
C1902 H1888 0.930 . S
C1902 C1900 1.395 . S
C1902 C1905 1.403 . S
C1903 C1900 1.403 . S
C1903 C1904 1.524 . S
C1903 C1907 1.400 . S
C1904 H1889 0.960 . S
C1904 H1890 0.960 . S
C1904 H1891 0.960 . S
C1904 C1903 1.524 . S
C1905 C1902 1.403 . S
C1905 C1906 1.392 . S
C1905 C1909 1.495 . S
C1906 C1905 1.392 . S
C1906 C1907 1.385 . S
C1906 C1908 1.478 . S
C1907 H1901 0.930 . S
C1907 C1903 1.400 . S
C1907 C1906 1.385 . S
C1908 C1906 1.478 . S
C1908 C1910 1.381 . S
C1908 C1914 1.383 . S
C1909 C1905 1.495 . S
C1909 H1915 0.959 . S
C1909 H1916 0.961 . S
C1909 H1917 0.960 . S
C1910 C1908 1.381 . S
C1910 C1911 1.394 . S
C1910 H1918 0.930 . S
C1911 C1910 1.394 . S
C1911 C1912 1.383 . S
C1911 H1919 0.929 . S
C1912 C1911 1.383 . S
C1912 C1913 1.377 . S
C1913 H1897 0.930 . S
C1913 C1912 1.377 . S
C1913 C1914 1.379 . S
C1914 H1898 0.931 . S
C1914 C1908 1.383 . S
C1914 C1913 1.379 . S
H1915 C1909 0.959 . S
H1916 C1909 0.961 . S
H1917 C1909 0.960 . S
H1918 C1910 0.930 . S
H1919 C1911 0.929 . S
H1920 C1928 0.929 . S
H1921 C1930 0.930 . S
H1922 C1932 0.930 . S
H1923 C1935 0.929 . S
H1924 C1938 0.930 . S
H1925 C1940 0.960 . S
H1926 C1940 0.960 . S
H1927 C1940 0.960 . S
C1928 H1920 0.929 . S
C1928 C1929 1.377 . S
C1928 C1930 1.384 . S
C1929 C1928 1.377 . S
C1929 C1935 1.390 . S
C1930 H1921 0.930 . S
C1930 C1928 1.384 . S
C1930 C1931 1.372 . S
C1931 C1930 1.372 . S
C1931 C1932 1.400 . S
C1931 C1936 1.490 . S
C1932 H1922 0.930 . S
C1932 C1931 1.400 . S
C1932 C1935 1.386 . S
H1933 C1949 0.930 . S
H1934 C1950 0.931 . S
C1935 H1923 0.929 . S
C1935 C1929 1.390 . S
C1935 C1932 1.386 . S
C1936 C1931 1.490 . S
C1936 C1938 1.395 . S
C1936 C1939 1.403 . S
H1937 C1943 0.930 . S
C1938 H1924 0.930 . S
C1938 C1936 1.395 . S
C1938 C1941 1.403 . S
C1939 C1936 1.403 . S
C1939 C1940 1.524 . S
C1939 C1943 1.400 . S
C1940 H1925 0.960 . S
C1940 H1926 0.960 . S
C1940 H1927 0.960 . S
C1940 C1939 1.524 . S
C1941 C1938 1.403 . S
C1941 C1942 1.392 . S
C1941 C1945 1.495 . S
C1942 C1941 1.392 . S
C1942 C1943 1.385 . S
C1942 C1944 1.478 . S
C1943 H1937 0.930 . S
C1943 C1939 1.400 . S
C1943 C1942 1.385 . S
C1944 C1942 1.478 . S
C1944 C1946 1.381 . S
C1944 C1950 1.383 . S
C1945 C1941 1.495 . S
C1945 H1951 0.959 . S
C1945 H1952 0.961 . S
C1945 H1953 0.960 . S
C1946 C1944 1.381 . S
C1946 C1947 1.394 . S
C1946 H1954 0.930 . S
C1947 C1946 1.394 . S
C1947 C1948 1.383 . S
C1947 H1955 0.929 . S
C1948 C1947 1.383 . S
C1948 C1949 1.377 . S
C1949 H1933 0.930 . S
C1949 C1948 1.377 . S
C1949 C1950 1.379 . S
C1950 H1934 0.931 . S
C1950 C1944 1.383 . S
C1950 C1949 1.379 . S
H1951 C1945 0.959 . S
H1952 C1945 0.961 . S
H1953 C1945 0.960 . S
H1954 C1946 0.930 . S
H1955 C1947 0.929 . S
H1956 C1964 0.929 . S
H1957 C1966 0.930 . S
H1958 C1968 0.930 . S
H1959 C1971 0.929 . S
H1960 C1974 0.930 . S
H1961 C1976 0.960 . S
H1962 C1976 0.960 . S
H1963 C1976 0.960 . S
C1964 H1956 0.929 . S
C1964 C1965 1.377 . S
C1964 C1966 1.384 . S
C1965 C1964 1.377 . S
C1965 C1971 1.390 . S
C1966 H1957 0.930 . S
C1966 C1964 1.384 . S
C1966 C1967 1.372 . S
C1967 C1966 1.372 . S
C1967 C1968 1.400 . S
C1967 C1972 1.490 . S
C1968 H1958 0.930 . S
C1968 C1967 1.400 . S
C1968 C1971 1.386 . S
H1969 C1985 0.930 . S
H1970 C1986 0.931 . S
C1971 H1959 0.929 . S
C1971 C1965 1.390 . S
C1971 C1968 1.386 . S
C1972 C1967 1.490 . S
C1972 C1974 1.395 . S
C1972 C1975 1.403 . S
H1973 C1979 0.930 . S
C1974 H1960 0.930 . S
C1974 C1972 1.395 . S
C1974 C1977 1.403 . S
C1975 C1972 1.403 . S
C1975 C1976 1.524 . S
C1975 C1979 1.400 . S
C1976 H1961 0.960 . S
C1976 H1962 0.960 . S
C1976 H1963 0.960 . S
C1976 C1975 1.524 . S
C1977 C1974 1.403 . S
C1977 C1978 1.392 . S
C1977 C1981 1.495 . S
C1978 C1977 1.392 . S
C1978 C1979 1.385 . S
C1978 C1980 1.478 . S
C1979 H1973 0.930 . S
C1979 C1975 1.400 . S
C1979 C1978 1.385 . S
C1980 C1978 1.478 . S
C1980 C1982 1.381 . S
C1980 C1986 1.383 . S
C1981 C1977 1.495 . S
C1981 H1987 0.959 . S
C1981 H1988 0.961 . S
C1981 H1989 0.960 . S
C1982 C1980 1.381 . S
C1982 C1983 1.394 . S
C1982 H1990 0.930 . S
C1983 C1982 1.394 . S
C1983 C1984 1.383 . S
C1983 H1991 0.929 . S
C1984 C1983 1.383 . S
C1984 C1985 1.377 . S
C1985 H1969 0.930 . S
C1985 C1984 1.377 . S
C1985 C1986 1.379 . S
C1986 H1970 0.931 . S
C1986 C1980 1.383 . S
C1986 C1985 1.379 . S
H1987 C1981 0.959 . S
H1988 C1981 0.961 . S
H1989 C1981 0.960 . S
H1990 C1982 0.930 . S
H1991 C1983 0.929 . S
H1992 C2000 0.929 . S
H1993 C2002 0.930 . S
H1994 C2004 0.930 . S
H1995 C2007 0.929 . S
H1996 C2010 0.930 . S
H1997 C2012 0.960 . S
H1998 C2012 0.960 . S
H1999 C2012 0.960 . S
C2000 H1992 0.929 . S
C2000 C2001 1.377 . S
C2000 C2002 1.384 . S
C2001 C2000 1.377 . S
C2001 C2007 1.390 . S
C2002 H1993 0.930 . S
C2002 C2000 1.384 . S
C2002 C2003 1.372 . S
C2003 C2002 1.372 . S
C2003 C2004 1.400 . S
C2003 C2008 1.490 . S
C2004 H1994 0.930 . S
C2004 C2003 1.400 . S
C2004 C2007 1.386 . S
H2005 C2021 0.930 . S
H2006 C2022 0.931 . S
C2007 H1995 0.929 . S
C2007 C2001 1.390 . S
C2007 C2004 1.386 . S
C2008 C2003 1.490 . S
C2008 C2010 1.395 . S
C2008 C2011 1.403 . S
H2009 C2015 0.930 . S
C2010 H1996 0.930 . S
C2010 C2008 1.395 . S
C2010 C2013 1.403 . S
C2011 C2008 1.403 . S
C2011 C2012 1.524 . S
C2011 C2015 1.400 . S
C2012 H1997 0.960 . S
C2012 H1998 0.960 . S
C2012 H1999 0.960 . S
C2012 C2011 1.524 . S
C2013 C2010 1.403 . S
C2013 C2014 1.392 . S
C2013 C2017 1.495 . S
C2014 C2013 1.392 . S
C2014 C2015 1.385 . S
C2014 C2016 1.478 . S
C2015 H2009 0.930 . S
C2015 C2011 1.400 . S
C2015 C2014 1.385 . S
C2016 C2014 1.478 . S
C2016 C2018 1.381 . S
C2016 C2022 1.383 . S
C2017 C2013 1.495 . S
C2017 H2023 0.959 . S
C2017 H2024 0.961 . S
C2017 H2025 0.960 . S
C2018 C2016 1.381 . S
C2018 C2019 1.394 . S
C2018 H2026 0.930 . S
C2019 C2018 1.394 . S
C2019 C2020 1.383 . S
C2019 H2027 0.929 . S
C2020 C2019 1.383 . S
C2020 C2021 1.377 . S
C2021 H2005 0.930 . S
C2021 C2020 1.377 . S
C2021 C2022 1.379 . S
C2022 H2006 0.931 . S
C2022 C2016 1.383 . S
C2022 C2021 1.379 . S
H2023 C2017 0.959 . S
H2024 C2017 0.961 . S
H2025 C2017 0.960 . S
H2026 C2018 0.930 . S
H2027 C2019 0.929 . S
H2028 C2036 0.929 . S
H2029 C2038 0.930 . S
H2030 C2040 0.930 . S
H2031 C2043 0.929 . S
H2032 C2046 0.930 . S
H2033 C2048 0.960 . S
H2034 C2048 0.960 . S
H2035 C2048 0.960 . S
C2036 H2028 0.929 . S
C2036 C2037 1.377 . S
C2036 C2038 1.384 . S
C2037 C2036 1.377 . S
C2037 C2043 1.390 . S
C2038 H2029 0.930 . S
C2038 C2036 1.384 . S
C2038 C2039 1.372 . S
C2039 C2038 1.372 . S
C2039 C2040 1.400 . S
C2039 C2044 1.490 . S
C2040 H2030 0.930 . S
C2040 C2039 1.400 . S
C2040 C2043 1.386 . S
H2041 C2057 0.930 . S
H2042 C2058 0.931 1_455 S
C2043 H2031 0.929 . S
C2043 C2037 1.390 . S
C2043 C2040 1.386 . S
C2044 C2039 1.490 . S
C2044 C2046 1.395 . S
C2044 C2047 1.403 . S
H2045 C2051 0.930 . S
C2046 H2032 0.930 . S
C2046 C2044 1.395 . S
C2046 C2049 1.403 . S
C2047 C2044 1.403 . S
C2047 C2048 1.524 . S
C2047 C2051 1.400 . S
C2048 H2033 0.960 . S
C2048 H2034 0.960 . S
C2048 H2035 0.960 . S
C2048 C2047 1.524 . S
C2049 C2046 1.403 . S
C2049 C2050 1.392 . S
C2049 C2053 1.495 1_455 S
C2050 C2049 1.392 . S
C2050 C2051 1.385 . S
C2050 C2052 1.478 1_455 S
C2051 H2045 0.930 . S
C2051 C2047 1.400 . S
C2051 C2050 1.385 . S
C2052 C2050 1.478 1_655 S
C2052 C2054 1.381 . S
C2052 C2058 1.383 . S
C2053 C2049 1.495 1_655 S
C2053 H2059 0.959 . S
C2053 H2060 0.961 . S
C2053 H2061 0.960 . S
C2054 C2052 1.381 . S
C2054 C2055 1.394 . S
C2054 H2062 0.930 . S
C2055 C2054 1.394 . S
C2055 C2056 1.383 . S
C2055 H2063 0.929 . S
C2056 C2055 1.383 . S
C2056 C2057 1.377 . S
C2057 H2041 0.930 . S
C2057 C2056 1.377 . S
C2057 C2058 1.379 . S
C2058 H2042 0.931 1_655 S
C2058 C2052 1.383 . S
C2058 C2057 1.379 . S
H2059 C2053 0.959 . S
H2060 C2053 0.961 . S
H2061 C2053 0.960 . S
H2062 C2054 0.930 . S
H2063 C2055 0.929 . S
H2064 C2072 0.929 . S
H2065 C2074 0.930 . S
H2066 C2076 0.930 . S
H2067 C2079 0.929 . S
H2068 C2082 0.930 . S
H2069 C2084 0.960 . S
H2070 C2084 0.960 . S
H2071 C2084 0.960 . S
C2072 H2064 0.929 . S
C2072 C2073 1.377 . S
C2072 C2074 1.384 . S
C2073 C2072 1.377 . S
C2073 C2079 1.390 . S
C2074 H2065 0.930 . S
C2074 C2072 1.384 . S
C2074 C2075 1.372 . S
C2075 C2074 1.372 . S
C2075 C2076 1.400 . S
C2075 C2080 1.490 . S
C2076 H2066 0.930 . S
C2076 C2075 1.400 . S
C2076 C2079 1.386 . S
H2077 C2093 0.930 . S
H2078 C2094 0.931 . S
C2079 H2067 0.929 . S
C2079 C2073 1.390 . S
C2079 C2076 1.386 . S
C2080 C2075 1.490 . S
C2080 C2082 1.395 . S
C2080 C2083 1.403 . S
H2081 C2087 0.930 . S
C2082 H2068 0.930 . S
C2082 C2080 1.395 . S
C2082 C2085 1.403 . S
C2083 C2080 1.403 . S
C2083 C2084 1.524 . S
C2083 C2087 1.400 . S
C2084 H2069 0.960 . S
C2084 H2070 0.960 . S
C2084 H2071 0.960 . S
C2084 C2083 1.524 . S
C2085 C2082 1.403 . S
C2085 C2086 1.392 . S
C2085 C2089 1.495 . S
C2086 C2085 1.392 . S
C2086 C2087 1.385 . S
C2086 C2088 1.478 . S
C2087 H2081 0.930 . S
C2087 C2083 1.400 . S
C2087 C2086 1.385 . S
C2088 C2086 1.478 . S
C2088 C2090 1.381 . S
C2088 C2094 1.383 . S
C2089 C2085 1.495 . S
C2089 H2095 0.959 . S
C2089 H2096 0.961 . S
C2089 H2097 0.960 . S
C2090 C2088 1.381 . S
C2090 C2091 1.394 . S
C2090 H2098 0.930 . S
C2091 C2090 1.394 . S
C2091 C2092 1.383 . S
C2091 H2099 0.929 . S
C2092 C2091 1.383 . S
C2092 C2093 1.377 . S
C2093 H2077 0.930 . S
C2093 C2092 1.377 . S
C2093 C2094 1.379 . S
C2094 H2078 0.931 . S
C2094 C2088 1.383 . S
C2094 C2093 1.379 . S
H2095 C2089 0.959 . S
H2096 C2089 0.961 . S
H2097 C2089 0.960 . S
H2098 C2090 0.930 . S
H2099 C2091 0.929 . S
H2100 C2108 0.929 . S
H2101 C2110 0.930 . S
H2102 C2112 0.930 . S
H2103 C2115 0.929 . S
H2104 C2118 0.930 . S
H2105 C2120 0.960 . S
H2106 C2120 0.960 . S
H2107 C2120 0.960 . S
C2108 H2100 0.929 . S
C2108 C2109 1.377 . S
C2108 C2110 1.384 . S
C2109 C2108 1.377 . S
C2109 C2115 1.390 . S
C2110 H2101 0.930 . S
C2110 C2108 1.384 . S
C2110 C2111 1.372 . S
C2111 C2110 1.372 . S
C2111 C2112 1.400 . S
C2111 C2116 1.490 . S
C2112 H2102 0.930 . S
C2112 C2111 1.400 . S
C2112 C2115 1.386 . S
H2113 C2129 0.930 . S
H2114 C2130 0.929 1_455 S
C2115 H2103 0.929 . S
C2115 C2109 1.390 . S
C2115 C2112 1.386 . S
C2116 C2111 1.490 . S
C2116 C2118 1.395 . S
C2116 C2119 1.403 . S
H2117 C2123 0.930 . S
C2118 H2104 0.930 . S
C2118 C2116 1.395 . S
C2118 C2121 1.403 . S
C2119 C2116 1.403 . S
C2119 C2120 1.524 . S
C2119 C2123 1.400 . S
C2120 H2105 0.960 . S
C2120 H2106 0.960 . S
C2120 H2107 0.960 . S
C2120 C2119 1.524 . S
C2121 C2118 1.403 . S
C2121 C2122 1.392 . S
C2121 C2125 1.495 1_455 S
C2122 C2121 1.392 . S
C2122 C2123 1.385 . S
C2122 C2124 1.478 1_455 S
C2123 H2117 0.930 . S
C2123 C2119 1.400 . S
C2123 C2122 1.385 . S
C2124 C2122 1.478 1_655 S
C2124 C2126 1.381 . S
C2124 C2130 1.383 . S
C2125 C2121 1.495 1_655 S
C2125 H2131 0.959 . S
C2125 H2132 0.961 . S
C2125 H2133 0.960 . S
C2126 C2124 1.381 . S
C2126 C2127 1.394 . S
C2126 H2134 0.930 . S
C2127 C2126 1.394 . S
C2127 C2128 1.383 . S
C2127 H2135 0.929 . S
C2128 C2127 1.383 . S
C2128 C2129 1.377 . S
C2129 H2113 0.930 . S
C2129 C2128 1.377 . S
C2129 C2130 1.379 . S
C2130 H2114 0.929 1_655 S
C2130 C2124 1.383 . S
C2130 C2129 1.379 . S
H2131 C2125 0.959 . S
H2132 C2125 0.961 . S
H2133 C2125 0.960 . S
H2134 C2126 0.930 . S
H2135 C2127 0.929 . S
H2136 C2144 0.929 . S
H2137 C2146 0.930 . S
H2138 C2148 0.930 . S
H2139 C2151 0.929 . S
H2140 C2154 0.930 . S
H2141 C2156 0.960 . S
H2142 C2156 0.960 . S
H2143 C2156 0.960 . S
C2144 H2136 0.929 . S
C2144 C2145 1.377 . S
C2144 C2146 1.384 . S
C2145 C2144 1.377 . S
C2145 C2151 1.390 . S
C2146 H2137 0.930 . S
C2146 C2144 1.384 . S
C2146 C2147 1.372 . S
C2147 C2146 1.372 . S
C2147 C2148 1.400 . S
C2147 C2152 1.490 . S
C2148 H2138 0.930 . S
C2148 C2147 1.400 . S
C2148 C2151 1.386 . S
H2149 C2165 0.930 . S
H2150 C2166 0.931 . S
C2151 H2139 0.929 . S
C2151 C2145 1.390 . S
C2151 C2148 1.386 . S
C2152 C2147 1.490 . S
C2152 C2154 1.395 . S
C2152 C2155 1.403 . S
H2153 C2159 0.930 . S
C2154 H2140 0.930 . S
C2154 C2152 1.395 . S
C2154 C2157 1.403 . S
C2155 C2152 1.403 . S
C2155 C2156 1.524 . S
C2155 C2159 1.400 . S
C2156 H2141 0.960 . S
C2156 H2142 0.960 . S
C2156 H2143 0.960 . S
C2156 C2155 1.524 . S
C2157 C2154 1.403 . S
C2157 C2158 1.392 . S
C2157 C2161 1.495 . S
C2158 C2157 1.392 . S
C2158 C2159 1.385 . S
C2158 C2160 1.478 . S
C2159 H2153 0.930 . S
C2159 C2155 1.400 . S
C2159 C2158 1.385 . S
C2160 C2158 1.478 . S
C2160 C2162 1.381 . S
C2160 C2166 1.383 . S
C2161 C2157 1.495 . S
C2161 H2167 0.959 . S
C2161 H2168 0.961 . S
C2161 H2169 0.960 . S
C2162 C2160 1.381 . S
C2162 C2163 1.394 . S
C2162 H2170 0.930 . S
C2163 C2162 1.394 . S
C2163 C2164 1.383 . S
C2163 H2171 0.929 . S
C2164 C2163 1.383 . S
C2164 C2165 1.377 . S
C2165 H2149 0.930 . S
C2165 C2164 1.377 . S
C2165 C2166 1.379 . S
C2166 H2150 0.931 . S
C2166 C2160 1.383 . S
C2166 C2165 1.379 . S
H2167 C2161 0.959 . S
H2168 C2161 0.961 . S
H2169 C2161 0.960 . S
H2170 C2162 0.930 . S
H2171 C2163 0.929 . S
H2172 C2180 0.929 . S
H2173 C2182 0.930 . S
H2174 C2184 0.930 . S
H2175 C2187 0.929 . S
H2176 C2190 0.930 . S
H2177 C2192 0.960 . S
H2178 C2192 0.960 . S
H2179 C2192 0.960 . S
C2180 H2172 0.929 . S
C2180 C2181 1.377 . S
C2180 C2182 1.384 . S
C2181 C2180 1.377 . S
C2181 C2187 1.390 . S
C2182 H2173 0.930 . S
C2182 C2180 1.384 . S
C2182 C2183 1.372 . S
C2183 C2182 1.372 . S
C2183 C2184 1.400 . S
C2183 C2188 1.490 . S
C2184 H2174 0.930 . S
C2184 C2183 1.400 . S
C2184 C2187 1.386 . S
H2185 C2201 0.930 . S
H2186 C2202 0.931 . S
C2187 H2175 0.929 . S
C2187 C2181 1.390 . S
C2187 C2184 1.386 . S
C2188 C2183 1.490 . S
C2188 C2190 1.395 . S
C2188 C2191 1.403 . S
H2189 C2195 0.930 . S
C2190 H2176 0.930 . S
C2190 C2188 1.395 . S
C2190 C2193 1.403 . S
C2191 C2188 1.403 . S
C2191 C2192 1.524 . S
C2191 C2195 1.400 . S
C2192 H2177 0.960 . S
C2192 H2178 0.960 . S
C2192 H2179 0.960 . S
C2192 C2191 1.524 . S
C2193 C2190 1.403 . S
C2193 C2194 1.392 . S
C2193 C2197 1.495 . S
C2194 C2193 1.392 . S
C2194 C2195 1.385 . S
C2194 C2196 1.478 . S
C2195 H2189 0.930 . S
C2195 C2191 1.400 . S
C2195 C2194 1.385 . S
C2196 C2194 1.478 . S
C2196 C2198 1.381 . S
C2196 C2202 1.383 . S
C2197 C2193 1.495 . S
C2197 H2203 0.959 . S
C2197 H2204 0.961 . S
C2197 H2205 0.960 . S
C2198 C2196 1.381 . S
C2198 C2199 1.394 . S
C2198 H2206 0.930 . S
C2199 C2198 1.394 . S
C2199 C2200 1.383 . S
C2199 H2207 0.929 . S
C2200 C2199 1.383 . S
C2200 C2201 1.377 . S
C2201 H2185 0.930 . S
C2201 C2200 1.377 . S
C2201 C2202 1.379 . S
C2202 H2186 0.931 . S
C2202 C2196 1.383 . S
C2202 C2201 1.379 . S
H2203 C2197 0.959 . S
H2204 C2197 0.961 . S
H2205 C2197 0.960 . S
H2206 C2198 0.930 . S
H2207 C2199 0.929 . S
H2208 C2216 0.929 . S
H2209 C2218 0.930 . S
H2210 C2220 0.930 1_565 S
H2211 C2223 0.929 . S
H2212 C2226 0.930 1_545 S
H2213 C2228 0.960 . S
H2214 C2228 0.960 . S
H2215 C2228 0.960 . S
C2216 H2208 0.929 . S
C2216 C2217 1.377 . S
C2216 C2218 1.384 . S
C2217 C2216 1.377 . S
C2217 C2223 1.390 . S
C2218 H2209 0.930 . S
C2218 C2216 1.384 . S
C2218 C2219 1.372 . S
C2219 C2218 1.372 . S
C2219 C2220 1.400 . S
C2219 C2224 1.490 1_545 S
C2220 H2210 0.930 1_545 S
C2220 C2219 1.400 . S
C2220 C2223 1.386 . S
H2221 C2237 0.930 . S
H2222 C2238 0.931 . S
C2223 H2211 0.929 . S
C2223 C2217 1.390 . S
C2223 C2220 1.386 . S
C2224 C2219 1.490 1_565 S
C2224 C2226 1.395 . S
C2224 C2227 1.403 . S
H2225 C2231 0.930 . S
C2226 H2212 0.930 1_565 S
C2226 C2224 1.395 . S
C2226 C2229 1.403 . S
C2227 C2224 1.403 . S
C2227 C2228 1.524 . S
C2227 C2231 1.400 . S
C2228 H2213 0.960 . S
C2228 H2214 0.960 . S
C2228 H2215 0.960 . S
C2228 C2227 1.524 . S
C2229 C2226 1.403 . S
C2229 C2230 1.392 . S
C2229 C2233 1.495 . S
C2230 C2229 1.392 . S
C2230 C2231 1.385 . S
C2230 C2232 1.478 . S
C2231 H2225 0.930 . S
C2231 C2227 1.400 . S
C2231 C2230 1.385 . S
C2232 C2230 1.478 . S
C2232 C2234 1.381 . S
C2232 C2238 1.383 . S
C2233 C2229 1.495 . S
C2233 H2239 0.959 1_565 S
C2233 H2240 0.961 . S
C2233 H2241 0.960 . S
C2234 C2232 1.381 . S
C2234 C2235 1.394 . S
C2234 H2242 0.930 . S
C2235 C2234 1.394 . S
C2235 C2236 1.383 . S
C2235 H2243 0.929 . S
C2236 C2235 1.383 . S
C2236 C2237 1.377 . S
C2237 H2221 0.930 . S
C2237 C2236 1.377 . S
C2237 C2238 1.379 . S
C2238 H2222 0.931 . S
C2238 C2232 1.383 . S
C2238 C2237 1.379 . S
H2239 C2233 0.959 1_545 S
H2240 C2233 0.961 . S
H2241 C2233 0.960 . S
H2242 C2234 0.930 . S
H2243 C2235 0.929 . S
H2244 C2252 0.947 . S
H2245 C2254 0.930 . S
H2246 C2256 0.930 . S
H2247 C2259 0.929 . S
H2248 C2262 0.930 . S
H2249 C2264 0.960 . S
H2250 C2264 0.969 . S
H2251 C2264 0.960 . S
C2252 H2244 0.947 . S
C2252 C2253 1.377 . S
C2252 C2254 1.384 1_545 S
C2253 C2252 1.377 . S
C2253 C2259 1.390 . S
C2254 H2245 0.930 . S
C2254 C2252 1.384 1_565 S
C2254 C2255 1.359 1_565 S
C2255 C2254 1.359 1_545 S
C2255 C2256 1.436 . S
C2255 C2260 1.468 1_545 S
C2256 H2246 0.930 . S
C2256 C2255 1.436 . S
C2256 C2259 1.386 . S
H2257 C2273 0.930 . S
H2258 C2274 0.931 . S
C2259 H2247 0.929 . S
C2259 C2253 1.390 . S
C2259 C2256 1.386 . S
C2260 C2255 1.468 1_565 S
C2260 C2262 1.395 . S
C2260 C2263 1.403 . S
H2261 C2267 0.930 . S
C2262 H2248 0.930 . S
C2262 C2260 1.395 . S
C2262 C2265 1.403 . S
C2263 C2260 1.403 . S
C2263 C2264 1.524 1_565 S
C2263 C2267 1.400 . S
C2264 H2249 0.960 . S
C2264 H2250 0.969 . S
C2264 H2251 0.960 . S
C2264 C2263 1.524 1_545 S
C2265 C2262 1.403 . S
C2265 C2266 1.392 . S
C2265 C2269 1.495 . S
C2266 C2265 1.392 . S
C2266 C2267 1.385 . S
C2266 C2268 1.478 . S
C2267 H2261 0.930 . S
C2267 C2263 1.400 . S
C2267 C2266 1.385 . S
C2268 C2266 1.478 . S
C2268 C2270 1.381 . S
C2268 C2274 1.383 . S
C2269 C2265 1.495 . S
C2269 H2275 0.959 . S
C2269 H2276 0.961 . S
C2269 H2277 0.960 . S
C2270 C2268 1.381 . S
C2270 C2271 1.394 . S
C2270 H2278 0.930 . S
C2271 C2270 1.394 . S
C2271 C2272 1.383 . S
C2271 H2279 0.929 . S
C2272 C2271 1.383 . S
C2272 C2273 1.377 . S
C2273 H2257 0.930 . S
C2273 C2272 1.377 . S
C2273 C2274 1.379 . S
C2274 H2258 0.931 . S
C2274 C2268 1.383 . S
C2274 C2273 1.379 . S
H2275 C2269 0.959 . S
H2276 C2269 0.961 . S
H2277 C2269 0.960 . S
H2278 C2270 0.930 . S
H2279 C2271 0.929 . S
H2280 C2288 0.929 . S
H2281 C2290 0.930 . S
H2282 C2292 0.930 . S
H2283 C2295 0.929 . S
H2284 C2298 0.930 . S
H2285 C2300 0.960 . S
H2286 C2300 0.960 . S
H2287 C2300 0.960 . S
C2288 H2280 0.929 . S
C2288 C2289 1.377 . S
C2288 C2290 1.384 . S
C2289 C2288 1.377 . S
C2289 C2295 1.390 . S
C2290 H2281 0.930 . S
C2290 C2288 1.384 . S
C2290 C2291 1.372 . S
C2291 C2290 1.372 . S
C2291 C2292 1.400 . S
C2291 C2296 1.490 . S
C2292 H2282 0.930 . S
C2292 C2291 1.400 . S
C2292 C2295 1.386 . S
H2293 C2309 0.930 . S
H2294 C2310 0.931 . S
C2295 H2283 0.929 . S
C2295 C2289 1.390 . S
C2295 C2292 1.386 . S
C2296 C2291 1.490 . S
C2296 C2298 1.395 . S
C2296 C2299 1.403 . S
H2297 C2303 0.930 . S
C2298 H2284 0.930 . S
C2298 C2296 1.395 . S
C2298 C2301 1.403 . S
C2299 C2296 1.403 . S
C2299 C2300 1.524 . S
C2299 C2303 1.400 . S
C2300 H2285 0.960 . S
C2300 H2286 0.960 . S
C2300 H2287 0.960 . S
C2300 C2299 1.524 . S
C2301 C2298 1.403 . S
C2301 C2302 1.392 . S
C2301 C2305 1.495 1_545 S
C2302 C2301 1.392 . S
C2302 C2303 1.385 . S
C2302 C2304 1.478 1_545 S
C2303 H2297 0.930 . S
C2303 C2299 1.400 . S
C2303 C2302 1.385 . S
C2304 C2302 1.478 1_565 S
C2304 C2306 1.381 . S
C2304 C2310 1.383 1_565 S
C2305 C2301 1.495 1_565 S
C2305 H2311 0.959 . S
C2305 H2312 0.961 . S
C2305 H2313 0.960 . S
C2306 C2304 1.381 . S
C2306 C2307 1.394 . S
C2306 H2314 0.930 . S
C2307 C2306 1.394 . S
C2307 C2308 1.383 . S
C2307 H2315 0.929 . S
C2308 C2307 1.383 . S
C2308 C2309 1.377 . S
C2309 H2293 0.930 . S
C2309 C2308 1.377 . S
C2309 C2310 1.379 1_565 S
C2310 H2294 0.931 . S
C2310 C2304 1.383 1_545 S
C2310 C2309 1.379 1_545 S
H2311 C2305 0.959 . S
H2312 C2305 0.961 . S
H2313 C2305 0.960 . S
H2314 C2306 0.930 . S
H2315 C2307 0.929 . S
H2316 C2324 0.929 . S
H2317 C2326 0.930 . S
H2318 C2328 0.930 . S
H2319 C2331 0.929 . S
H2320 C2334 0.930 . S
H2321 C2336 0.960 . S
H2322 C2336 0.960 . S
H2323 C2336 0.960 . S
C2324 H2316 0.929 . S
C2324 C2325 1.377 . S
C2324 C2326 1.384 . S
C2325 C2324 1.377 . S
C2325 C2331 1.390 . S
C2326 H2317 0.930 . S
C2326 C2324 1.384 . S
C2326 C2327 1.372 . S
C2327 C2326 1.372 . S
C2327 C2328 1.400 . S
C2327 C2332 1.490 . S
C2328 H2318 0.930 . S
C2328 C2327 1.400 . S
C2328 C2331 1.386 . S
H2329 C2345 0.930 . S
H2330 C2346 0.931 . S
C2331 H2319 0.929 . S
C2331 C2325 1.390 . S
C2331 C2328 1.386 . S
C2332 C2327 1.490 . S
C2332 C2334 1.395 . S
C2332 C2335 1.403 . S
H2333 C2339 0.930 . S
C2334 H2320 0.930 . S
C2334 C2332 1.395 . S
C2334 C2337 1.403 . S
C2335 C2332 1.403 . S
C2335 C2336 1.524 . S
C2335 C2339 1.400 . S
C2336 H2321 0.960 . S
C2336 H2322 0.960 . S
C2336 H2323 0.960 . S
C2336 C2335 1.524 . S
C2337 C2334 1.403 . S
C2337 C2338 1.392 . S
C2337 C2341 1.495 1_545 S
C2338 C2337 1.392 . S
C2338 C2339 1.385 . S
C2338 C2340 1.478 1_545 S
C2339 H2333 0.930 . S
C2339 C2335 1.400 . S
C2339 C2338 1.385 . S
C2340 C2338 1.478 1_565 S
C2340 C2342 1.381 . S
C2340 C2346 1.383 . S
C2341 C2337 1.495 1_565 S
C2341 H2347 0.959 . S
C2341 H2348 0.961 . S
C2341 H2349 0.960 . S
C2342 C2340 1.381 . S
C2342 C2343 1.394 . S
C2342 H2350 0.930 1_565 S
C2343 C2342 1.394 . S
C2343 C2344 1.383 . S
C2343 H2351 0.929 . S
C2344 C2343 1.383 . S
C2344 C2345 1.377 . S
C2345 H2329 0.930 . S
C2345 C2344 1.377 . S
C2345 C2346 1.379 . S
C2346 H2330 0.931 . S
C2346 C2340 1.383 . S
C2346 C2345 1.379 . S
H2347 C2341 0.959 . S
H2348 C2341 0.961 . S
H2349 C2341 0.960 . S
H2350 C2342 0.930 1_545 S
H2351 C2343 0.929 . S
H2352 C2360 0.941 . S
H2353 C2362 0.930 . S
H2354 C2364 0.930 . S
H2355 C2367 0.929 . S
H2356 C2370 0.930 . S
H2357 C2372 0.960 . S
H2358 C2372 0.960 . S
H2359 C2372 0.960 1_565 S
C2360 H2352 0.941 . S
C2360 C2361 1.377 . S
C2360 C2362 1.384 1_565 S
C2361 C2360 1.377 . S
C2361 C2367 1.390 . S
C2362 H2353 0.930 . S
C2362 C2360 1.384 1_545 S
C2362 C2363 1.360 1_545 S
C2363 C2362 1.360 1_565 S
C2363 C2364 1.433 . S
C2363 C2368 1.470 1_565 S
C2364 H2354 0.930 . S
C2364 C2363 1.433 . S
C2364 C2367 1.386 . S
H2365 C2381 0.930 . S
H2366 C2382 0.931 . S
C2367 H2355 0.929 . S
C2367 C2361 1.390 . S
C2367 C2364 1.386 . S
C2368 C2363 1.470 1_545 S
C2368 C2370 1.395 . S
C2368 C2371 1.403 . S
H2369 C2375 0.930 . S
C2370 H2356 0.930 . S
C2370 C2368 1.395 . S
C2370 C2373 1.403 . S
C2371 C2368 1.403 . S
C2371 C2372 1.524 . S
C2371 C2375 1.400 . S
C2372 H2357 0.960 . S
C2372 H2358 0.960 . S
C2372 H2359 0.960 1_545 S
C2372 C2371 1.524 . S
C2373 C2370 1.403 . S
C2373 C2374 1.392 . S
C2373 C2377 1.495 . S
C2374 C2373 1.392 . S
C2374 C2375 1.385 . S
C2374 C2376 1.478 . S
C2375 H2369 0.930 . S
C2375 C2371 1.400 . S
C2375 C2374 1.385 . S
C2376 C2374 1.478 . S
C2376 C2378 1.381 . S
C2376 C2382 1.383 . S
C2377 C2373 1.495 . S
C2377 H2383 0.959 . S
C2377 H2384 0.961 . S
C2377 H2385 0.960 . S
C2378 C2376 1.381 . S
C2378 C2379 1.394 . S
C2378 H2386 0.930 . S
C2379 C2378 1.394 . S
C2379 C2380 1.383 . S
C2379 H2387 0.929 . S
C2380 C2379 1.383 . S
C2380 C2381 1.377 . S
C2381 H2365 0.930 . S
C2381 C2380 1.377 . S
C2381 C2382 1.379 . S
C2382 H2366 0.931 . S
C2382 C2376 1.383 . S
C2382 C2381 1.379 . S
H2383 C2377 0.959 . S
H2384 C2377 0.961 . S
H2385 C2377 0.960 . S
H2386 C2378 0.930 . S
H2387 C2379 0.929 . S
H2388 C2396 0.929 . S
H2389 C2398 0.930 . S
H2390 C2400 0.930 . S
H2391 C2403 0.929 . S
H2392 C2406 0.930 . S
H2393 C2408 0.960 . S
H2394 C2408 0.960 . S
H2395 C2408 0.960 . S
C2396 H2388 0.929 . S
C2396 C2397 1.377 . S
C2396 C2398 1.384 . S
C2397 C2396 1.377 . S
C2397 C2403 1.390 . S
C2398 H2389 0.930 . S
C2398 C2396 1.384 . S
C2398 C2399 1.372 . S
C2399 C2398 1.372 . S
C2399 C2400 1.400 . S
C2399 C2404 1.490 . S
C2400 H2390 0.930 . S
C2400 C2399 1.400 . S
C2400 C2403 1.386 . S
H2401 C2417 0.930 . S
H2402 C2418 0.931 . S
C2403 H2391 0.929 . S
C2403 C2397 1.390 . S
C2403 C2400 1.386 . S
C2404 C2399 1.490 . S
C2404 C2406 1.395 . S
C2404 C2407 1.403 . S
H2405 C2411 0.930 . S
C2406 H2392 0.930 . S
C2406 C2404 1.395 . S
C2406 C2409 1.403 . S
C2407 C2404 1.403 . S
C2407 C2408 1.524 . S
C2407 C2411 1.400 . S
C2408 H2393 0.960 . S
C2408 H2394 0.960 . S
C2408 H2395 0.960 . S
C2408 C2407 1.524 . S
C2409 C2406 1.403 . S
C2409 C2410 1.392 . S
C2409 C2413 1.495 . S
C2410 C2409 1.392 . S
C2410 C2411 1.385 . S
C2410 C2412 1.478 1_545 S
C2411 H2405 0.930 . S
C2411 C2407 1.400 . S
C2411 C2410 1.385 . S
C2412 C2410 1.478 1_565 S
C2412 C2414 1.381 . S
C2412 C2418 1.383 1_565 S
C2413 C2409 1.495 . S
C2413 H2419 0.959 . S
C2413 H2420 0.961 . S
C2413 H2421 0.960 . S
C2414 C2412 1.381 . S
C2414 C2415 1.394 . S
C2414 H2422 0.930 . S
C2415 C2414 1.394 . S
C2415 C2416 1.383 . S
C2415 H2423 0.929 . S
C2416 C2415 1.383 . S
C2416 C2417 1.377 . S
C2417 H2401 0.930 . S
C2417 C2416 1.377 . S
C2417 C2418 1.379 1_565 S
C2418 H2402 0.931 . S
C2418 C2412 1.383 1_545 S
C2418 C2417 1.379 1_545 S
H2419 C2413 0.959 . S
H2420 C2413 0.961 . S
H2421 C2413 0.960 . S
H2422 C2414 0.930 . S
H2423 C2415 0.929 . S
H2424 C2432 0.929 . S
H2425 C2434 0.932 . S
H2426 C2436 0.930 . S
H2427 C2439 0.929 . S
H2428 C2442 0.930 . S
H2429 C2444 0.960 . S
H2430 C2444 0.960 . S
H2431 C2444 0.960 . S
C2432 H2424 0.929 . S
C2432 C2433 1.377 . S
C2432 C2434 1.382 1_545 S
C2433 C2432 1.377 . S
C2433 C2439 1.390 . S
C2434 H2425 0.932 . S
C2434 C2432 1.382 1_565 S
C2434 C2435 1.372 1_565 S
C2435 C2434 1.372 1_545 S
C2435 C2436 1.400 . S
C2435 C2440 1.490 1_545 S
C2436 H2426 0.930 . S
C2436 C2435 1.400 . S
C2436 C2439 1.386 . S
H2437 C2453 0.930 . S
H2438 C2454 0.931 . S
C2439 H2427 0.929 . S
C2439 C2433 1.390 . S
C2439 C2436 1.386 . S
C2440 C2435 1.490 1_565 S
C2440 C2442 1.395 . S
C2440 C2443 1.403 . S
H2441 C2447 0.930 . S
C2442 H2428 0.930 . S
C2442 C2440 1.395 . S
C2442 C2445 1.403 . S
C2443 C2440 1.403 . S
C2443 C2444 1.524 1_565 S
C2443 C2447 1.400 . S
C2444 H2429 0.960 . S
C2444 H2430 0.960 . S
C2444 H2431 0.960 . S
C2444 C2443 1.524 1_545 S
C2445 C2442 1.403 . S
C2445 C2446 1.392 . S
C2445 C2449 1.495 . S
C2446 C2445 1.392 . S
C2446 C2447 1.385 . S
C2446 C2448 1.478 . S
C2447 H2441 0.930 . S
C2447 C2443 1.400 . S
C2447 C2446 1.385 . S
C2448 C2446 1.478 . S
C2448 C2450 1.381 . S
C2448 C2454 1.383 . S
C2449 C2445 1.495 . S
C2449 H2455 0.959 . S
C2449 H2456 0.961 . S
C2449 H2457 0.960 . S
C2450 C2448 1.381 . S
C2450 C2451 1.394 . S
C2450 H2458 0.930 . S
C2451 C2450 1.394 . S
C2451 C2452 1.383 . S
C2451 H2459 0.929 . S
C2452 C2451 1.383 . S
C2452 C2453 1.377 . S
C2453 H2437 0.930 . S
C2453 C2452 1.377 . S
C2453 C2454 1.379 . S
C2454 H2438 0.931 . S
C2454 C2448 1.383 . S
C2454 C2453 1.379 . S
H2455 C2449 0.959 . S
H2456 C2449 0.961 . S
H2457 C2449 0.960 . S
H2458 C2450 0.930 . S
H2459 C2451 0.929 . S
H2460 C2468 0.929 . S
H2461 C2470 0.930 . S
H2462 C2472 0.930 . S
H2463 C2475 0.929 . S
H2464 C2478 0.930 . S
H2465 C2480 0.960 . S
H2466 C2480 0.960 . S
H2467 C2480 0.960 . S
C2468 H2460 0.929 . S
C2468 C2469 1.377 . S
C2468 C2470 1.384 . S
C2469 C2468 1.377 . S
C2469 C2475 1.390 . S
C2470 H2461 0.930 . S
C2470 C2468 1.384 . S
C2470 C2471 1.372 . S
C2471 C2470 1.372 . S
C2471 C2472 1.400 . S
C2471 C2476 1.490 . S
C2472 H2462 0.930 . S
C2472 C2471 1.400 . S
C2472 C2475 1.386 . S
H2473 C2489 0.930 . S
H2474 C2490 0.931 1_565 S
C2475 H2463 0.929 . S
C2475 C2469 1.390 . S
C2475 C2472 1.386 . S
C2476 C2471 1.490 . S
C2476 C2478 1.395 . S
C2476 C2479 1.403 . S
H2477 C2483 0.930 . S
C2478 H2464 0.930 . S
C2478 C2476 1.395 . S
C2478 C2481 1.403 . S
C2479 C2476 1.403 . S
C2479 C2480 1.524 . S
C2479 C2483 1.400 . S
C2480 H2465 0.960 . S
C2480 H2466 0.960 . S
C2480 H2467 0.960 . S
C2480 C2479 1.524 . S
C2481 C2478 1.403 . S
C2481 C2482 1.392 . S
C2481 C2485 1.495 1_565 S
C2482 C2481 1.392 . S
C2482 C2483 1.385 . S
C2482 C2484 1.478 1_565 S
C2483 H2477 0.930 . S
C2483 C2479 1.400 . S
C2483 C2482 1.385 . S
C2484 C2482 1.478 1_545 S
C2484 C2486 1.381 . S
C2484 C2490 1.383 . S
C2485 C2481 1.495 1_545 S
C2485 H2491 0.959 . S
C2485 H2492 0.961 . S
C2485 H2493 0.960 . S
C2486 C2484 1.381 . S
C2486 C2487 1.394 . S
C2486 H2494 0.930 . S
C2487 C2486 1.394 . S
C2487 C2488 1.383 . S
C2487 H2495 0.929 . S
C2488 C2487 1.383 . S
C2488 C2489 1.377 . S
C2489 H2473 0.930 . S
C2489 C2488 1.377 . S
C2489 C2490 1.379 . S
C2490 H2474 0.931 1_545 S
C2490 C2484 1.383 . S
C2490 C2489 1.379 . S
H2491 C2485 0.959 . S
H2492 C2485 0.961 . S
H2493 C2485 0.960 . S
H2494 C2486 0.930 . S
H2495 C2487 0.929 . S
H2496 C2504 0.929 . S
H2497 C2506 0.930 . S
H2498 C2508 0.930 . S
H2499 C2511 0.929 . S
H2500 C2514 0.930 . S
H2501 C2516 0.960 . S
H2502 C2516 0.960 . S
H2503 C2516 0.960 . S
C2504 H2496 0.929 . S
C2504 C2505 1.377 . S
C2504 C2506 1.384 . S
C2505 C2504 1.377 . S
C2505 C2511 1.390 . S
C2506 H2497 0.930 . S
C2506 C2504 1.384 . S
C2506 C2507 1.372 . S
C2507 C2506 1.372 . S
C2507 C2508 1.400 . S
C2507 C2512 1.490 . S
C2508 H2498 0.930 . S
C2508 C2507 1.400 . S
C2508 C2511 1.386 . S
H2509 C2525 0.930 . S
H2510 C2526 0.931 . S
C2511 H2499 0.929 . S
C2511 C2505 1.390 . S
C2511 C2508 1.386 . S
C2512 C2507 1.490 . S
C2512 C2514 1.395 . S
C2512 C2515 1.403 . S
H2513 C2519 0.930 . S
C2514 H2500 0.930 . S
C2514 C2512 1.395 . S
C2514 C2517 1.403 . S
C2515 C2512 1.403 . S
C2515 C2516 1.524 . S
C2515 C2519 1.400 . S
C2516 H2501 0.960 . S
C2516 H2502 0.960 . S
C2516 H2503 0.960 . S
C2516 C2515 1.524 . S
C2517 C2514 1.403 . S
C2517 C2518 1.392 . S
C2517 C2521 1.495 . S
C2518 C2517 1.392 . S
C2518 C2519 1.385 . S
C2518 C2520 1.478 . S
C2519 H2513 0.930 . S
C2519 C2515 1.400 . S
C2519 C2518 1.385 . S
C2520 C2518 1.478 . S
C2520 C2522 1.381 . S
C2520 C2526 1.383 . S
C2521 C2517 1.495 . S
C2521 H2527 0.959 . S
C2521 H2528 0.961 . S
C2521 H2529 0.960 . S
C2522 C2520 1.381 . S
C2522 C2523 1.394 . S
C2522 H2530 0.930 . S
C2523 C2522 1.394 . S
C2523 C2524 1.383 . S
C2523 H2531 0.929 . S
C2524 C2523 1.383 . S
C2524 C2525 1.377 . S
C2525 H2509 0.930 . S
C2525 C2524 1.377 . S
C2525 C2526 1.379 . S
C2526 H2510 0.931 . S
C2526 C2520 1.383 . S
C2526 C2525 1.379 . S
H2527 C2521 0.959 . S
H2528 C2521 0.961 . S
H2529 C2521 0.960 . S
H2530 C2522 0.930 . S
H2531 C2523 0.929 . S
H2532 C2540 0.929 . S
H2533 C2542 0.930 . S
H2534 C2544 0.930 . S
H2535 C2547 0.929 . S
H2536 C2550 0.930 . S
H2537 C2552 0.960 . S
H2538 C2552 0.960 . S
H2539 C2552 0.960 . S
C2540 H2532 0.929 . S
C2540 C2541 1.377 . S
C2540 C2542 1.384 . S
C2541 C2540 1.377 . S
C2541 C2547 1.390 . S
C2542 H2533 0.930 . S
C2542 C2540 1.384 . S
C2542 C2543 1.372 . S
C2543 C2542 1.372 . S
C2543 C2544 1.400 . S
C2543 C2548 1.490 . S
C2544 H2534 0.930 . S
C2544 C2543 1.400 . S
C2544 C2547 1.386 . S
H2545 C2561 0.930 . S
H2546 C2562 0.931 . S
C2547 H2535 0.929 . S
C2547 C2541 1.390 . S
C2547 C2544 1.386 . S
C2548 C2543 1.490 . S
C2548 C2550 1.395 . S
C2548 C2551 1.403 . S
H2549 C2555 0.930 . S
C2550 H2536 0.930 . S
C2550 C2548 1.395 . S
C2550 C2553 1.403 . S
C2551 C2548 1.403 . S
C2551 C2552 1.524 . S
C2551 C2555 1.400 . S
C2552 H2537 0.960 . S
C2552 H2538 0.960 . S
C2552 H2539 0.960 . S
C2552 C2551 1.524 . S
C2553 C2550 1.403 . S
C2553 C2554 1.392 . S
C2553 C2557 1.495 . S
C2554 C2553 1.392 . S
C2554 C2555 1.385 . S
C2554 C2556 1.478 . S
C2555 H2549 0.930 . S
C2555 C2551 1.400 . S
C2555 C2554 1.385 . S
C2556 C2554 1.478 . S
C2556 C2558 1.381 . S
C2556 C2562 1.383 . S
C2557 C2553 1.495 . S
C2557 H2563 0.959 . S
C2557 H2564 0.961 . S
C2557 H2565 0.960 . S
C2558 C2556 1.381 . S
C2558 C2559 1.394 . S
C2558 H2566 0.930 . S
C2559 C2558 1.394 . S
C2559 C2560 1.383 . S
C2559 H2567 0.929 . S
C2560 C2559 1.383 . S
C2560 C2561 1.377 . S
C2561 H2545 0.930 . S
C2561 C2560 1.377 . S
C2561 C2562 1.379 . S
C2562 H2546 0.931 . S
C2562 C2556 1.383 . S
C2562 C2561 1.379 . S
H2563 C2557 0.959 . S
H2564 C2557 0.961 . S
H2565 C2557 0.960 . S
H2566 C2558 0.930 . S
H2567 C2559 0.929 . S
H2568 C2576 0.929 . S
H2569 C2578 0.930 . S
H2570 C2580 0.930 . S
H2571 C2583 0.929 . S
H2572 C2586 0.930 . S
H2573 C2588 0.960 . S
H2574 C2588 0.960 . S
H2575 C2588 0.960 . S
C2576 H2568 0.929 . S
C2576 C2577 1.377 . S
C2576 C2578 1.384 . S
C2577 C2576 1.377 . S
C2577 C2583 1.390 . S
C2578 H2569 0.930 . S
C2578 C2576 1.384 . S
C2578 C2579 1.372 . S
C2579 C2578 1.372 . S
C2579 C2580 1.400 . S
C2579 C2584 1.490 . S
C2580 H2570 0.930 . S
C2580 C2579 1.400 . S
C2580 C2583 1.386 . S
H2581 C2597 0.930 . S
H2582 C2598 0.931 . S
C2583 H2571 0.929 . S
C2583 C2577 1.390 . S
C2583 C2580 1.386 . S
C2584 C2579 1.490 . S
C2584 C2586 1.395 . S
C2584 C2587 1.403 . S
H2585 C2591 0.930 . S
C2586 H2572 0.930 . S
C2586 C2584 1.395 . S
C2586 C2589 1.403 . S
C2587 C2584 1.403 . S
C2587 C2588 1.524 . S
C2587 C2591 1.400 . S
C2588 H2573 0.960 . S
C2588 H2574 0.960 . S
C2588 H2575 0.960 . S
C2588 C2587 1.524 . S
C2589 C2586 1.403 . S
C2589 C2590 1.392 . S
C2589 C2593 1.495 . S
C2590 C2589 1.392 . S
C2590 C2591 1.385 . S
C2590 C2592 1.478 . S
C2591 H2585 0.930 . S
C2591 C2587 1.400 . S
C2591 C2590 1.385 . S
C2592 C2590 1.478 . S
C2592 C2594 1.381 . S
C2592 C2598 1.383 . S
C2593 C2589 1.495 . S
C2593 H2599 0.959 . S
C2593 H2600 0.961 . S
C2593 H2601 0.960 . S
C2594 C2592 1.381 . S
C2594 C2595 1.394 . S
C2594 H2602 0.930 . S
C2595 C2594 1.394 . S
C2595 C2596 1.383 . S
C2595 H2603 0.929 . S
C2596 C2595 1.383 . S
C2596 C2597 1.377 . S
C2597 H2581 0.930 . S
C2597 C2596 1.377 . S
C2597 C2598 1.379 . S
C2598 H2582 0.931 . S
C2598 C2592 1.383 . S
C2598 C2597 1.379 . S
H2599 C2593 0.959 . S
H2600 C2593 0.961 . S
H2601 C2593 0.960 . S
H2602 C2594 0.930 . S
H2603 C2595 0.929 . S
H2604 C2612 0.929 . S
H2605 C2614 0.930 . S
H2606 C2616 0.930 . S
H2607 C2619 0.929 . S
H2608 C2622 0.930 . S
H2609 C2624 0.960 . S
H2610 C2624 0.960 . S
H2611 C2624 0.960 . S
C2612 H2604 0.929 . S
C2612 C2613 1.377 . S
C2612 C2614 1.384 . S
C2613 C2612 1.377 . S
C2613 C2619 1.390 . S
C2614 H2605 0.930 . S
C2614 C2612 1.384 . S
C2614 C2615 1.372 . S
C2615 C2614 1.372 . S
C2615 C2616 1.400 . S
C2615 C2620 1.490 . S
C2616 H2606 0.930 . S
C2616 C2615 1.400 . S
C2616 C2619 1.386 . S
H2617 C2633 0.930 . S
H2618 C2634 0.931 . S
C2619 H2607 0.929 . S
C2619 C2613 1.390 . S
C2619 C2616 1.386 . S
C2620 C2615 1.490 . S
C2620 C2622 1.395 . S
C2620 C2623 1.403 . S
H2621 C2627 0.930 . S
C2622 H2608 0.930 . S
C2622 C2620 1.395 . S
C2622 C2625 1.403 . S
C2623 C2620 1.403 . S
C2623 C2624 1.524 . S
C2623 C2627 1.400 . S
C2624 H2609 0.960 . S
C2624 H2610 0.960 . S
C2624 H2611 0.960 . S
C2624 C2623 1.524 . S
C2625 C2622 1.403 . S
C2625 C2626 1.392 . S
C2625 C2629 1.495 . S
C2626 C2625 1.392 . S
C2626 C2627 1.385 . S
C2626 C2628 1.478 . S
C2627 H2621 0.930 . S
C2627 C2623 1.400 . S
C2627 C2626 1.385 . S
C2628 C2626 1.478 . S
C2628 C2630 1.381 . S
C2628 C2634 1.383 . S
C2629 C2625 1.495 . S
C2629 H2635 0.959 . S
C2629 H2636 0.961 . S
C2629 H2637 0.960 . S
C2630 C2628 1.381 . S
C2630 C2631 1.394 . S
C2630 H2638 0.930 . S
C2631 C2630 1.394 . S
C2631 C2632 1.383 . S
C2631 H2639 0.929 . S
C2632 C2631 1.383 . S
C2632 C2633 1.377 . S
C2633 H2617 0.930 . S
C2633 C2632 1.377 . S
C2633 C2634 1.379 . S
C2634 H2618 0.931 . S
C2634 C2628 1.383 . S
C2634 C2633 1.379 . S
H2635 C2629 0.959 . S
H2636 C2629 0.961 . S
H2637 C2629 0.960 . S
H2638 C2630 0.930 . S
H2639 C2631 0.929 . S
H2640 C2648 0.929 . S
H2641 C2650 0.930 . S
H2642 C2652 0.930 . S
H2643 C2655 0.929 . S
H2644 C2658 0.930 . S
H2645 C2660 0.960 . S
H2646 C2660 0.960 . S
H2647 C2660 0.960 . S
C2648 H2640 0.929 . S
C2648 C2649 1.377 . S
C2648 C2650 1.384 . S
C2649 C2648 1.377 . S
C2649 C2655 1.390 . S
C2650 H2641 0.930 . S
C2650 C2648 1.384 . S
C2650 C2651 1.372 . S
C2651 C2650 1.372 . S
C2651 C2652 1.400 . S
C2651 C2656 1.490 . S
C2652 H2642 0.930 . S
C2652 C2651 1.400 . S
C2652 C2655 1.386 . S
H2653 C2669 0.930 . S
H2654 C2670 0.931 . S
C2655 H2643 0.929 . S
C2655 C2649 1.390 . S
C2655 C2652 1.386 . S
C2656 C2651 1.490 . S
C2656 C2658 1.395 . S
C2656 C2659 1.403 . S
H2657 C2663 0.930 . S
C2658 H2644 0.930 . S
C2658 C2656 1.395 . S
C2658 C2661 1.403 . S
C2659 C2656 1.403 . S
C2659 C2660 1.524 . S
C2659 C2663 1.400 . S
C2660 H2645 0.960 . S
C2660 H2646 0.960 . S
C2660 H2647 0.960 . S
C2660 C2659 1.524 . S
C2661 C2658 1.403 . S
C2661 C2662 1.392 . S
C2661 C2665 1.495 . S
C2662 C2661 1.392 . S
C2662 C2663 1.385 . S
C2662 C2664 1.478 . S
C2663 H2657 0.930 . S
C2663 C2659 1.400 . S
C2663 C2662 1.385 . S
C2664 C2662 1.478 . S
C2664 C2666 1.381 . S
C2664 C2670 1.383 . S
C2665 C2661 1.495 . S
C2665 H2671 0.959 . S
C2665 H2672 0.961 . S
C2665 H2673 0.960 . S
C2666 C2664 1.381 . S
C2666 C2667 1.394 . S
C2666 H2674 0.930 . S
C2667 C2666 1.394 . S
C2667 C2668 1.383 . S
C2667 H2675 0.929 . S
C2668 C2667 1.383 . S
C2668 C2669 1.377 . S
C2669 H2653 0.930 . S
C2669 C2668 1.377 . S
C2669 C2670 1.379 . S
C2670 H2654 0.931 . S
C2670 C2664 1.383 . S
C2670 C2669 1.379 . S
H2671 C2665 0.959 . S
H2672 C2665 0.961 . S
H2673 C2665 0.960 . S
H2674 C2666 0.930 . S
H2675 C2667 0.929 . S
H2676 C2684 0.929 . S
H2677 C2686 0.930 . S
H2678 C2688 0.930 . S
H2679 C2691 0.929 . S
H2680 C2694 0.930 . S
H2681 C2696 0.960 . S
H2682 C2696 0.960 . S
H2683 C2696 0.960 . S
C2684 H2676 0.929 . S
C2684 C2685 1.377 . S
C2684 C2686 1.384 . S
C2685 C2684 1.377 . S
C2685 C2691 1.390 . S
C2686 H2677 0.930 . S
C2686 C2684 1.384 . S
C2686 C2687 1.372 . S
C2687 C2686 1.372 . S
C2687 C2688 1.400 . S
C2687 C2692 1.490 . S
C2688 H2678 0.930 . S
C2688 C2687 1.400 . S
C2688 C2691 1.386 . S
H2689 C2705 0.930 . S
H2690 C2706 0.931 . S
C2691 H2679 0.929 . S
C2691 C2685 1.390 . S
C2691 C2688 1.386 . S
C2692 C2687 1.490 . S
C2692 C2694 1.395 . S
C2692 C2695 1.403 . S
H2693 C2699 0.930 . S
C2694 H2680 0.930 . S
C2694 C2692 1.395 . S
C2694 C2697 1.403 . S
C2695 C2692 1.403 . S
C2695 C2696 1.524 . S
C2695 C2699 1.400 . S
C2696 H2681 0.960 . S
C2696 H2682 0.960 . S
C2696 H2683 0.960 . S
C2696 C2695 1.524 . S
C2697 C2694 1.403 . S
C2697 C2698 1.392 . S
C2697 C2701 1.495 . S
C2698 C2697 1.392 . S
C2698 C2699 1.385 . S
C2698 C2700 1.478 . S
C2699 H2693 0.930 . S
C2699 C2695 1.400 . S
C2699 C2698 1.385 . S
C2700 C2698 1.478 . S
C2700 C2702 1.381 . S
C2700 C2706 1.383 . S
C2701 C2697 1.495 . S
C2701 H2707 0.959 . S
C2701 H2708 0.961 . S
C2701 H2709 0.960 . S
C2702 C2700 1.381 . S
C2702 C2703 1.394 . S
C2702 H2710 0.930 . S
C2703 C2702 1.394 . S
C2703 C2704 1.383 . S
C2703 H2711 0.929 . S
C2704 C2703 1.383 . S
C2704 C2705 1.377 . S
C2705 H2689 0.930 . S
C2705 C2704 1.377 . S
C2705 C2706 1.379 . S
C2706 H2690 0.931 . S
C2706 C2700 1.383 . S
C2706 C2705 1.379 . S
H2707 C2701 0.959 . S
H2708 C2701 0.961 . S
H2709 C2701 0.960 . S
H2710 C2702 0.930 . S
H2711 C2703 0.929 . S
H2712 C2720 0.929 . S
H2713 C2722 0.930 . S
H2714 C2724 0.930 . S
H2715 C2727 0.929 . S
H2716 C2730 0.930 . S
H2717 C2732 0.960 . S
H2718 C2732 0.960 . S
H2719 C2732 0.960 . S
C2720 H2712 0.929 . S
C2720 C2721 1.377 . S
C2720 C2722 1.384 . S
C2721 C2720 1.377 . S
C2721 C2727 1.390 . S
C2722 H2713 0.930 . S
C2722 C2720 1.384 . S
C2722 C2723 1.372 . S
C2723 C2722 1.372 . S
C2723 C2724 1.400 . S
C2723 C2728 1.490 . S
C2724 H2714 0.930 . S
C2724 C2723 1.400 . S
C2724 C2727 1.386 . S
H2725 C2741 0.930 . S
H2726 C2742 0.931 . S
C2727 H2715 0.929 . S
C2727 C2721 1.390 . S
C2727 C2724 1.386 . S
C2728 C2723 1.490 . S
C2728 C2730 1.395 . S
C2728 C2731 1.403 . S
H2729 C2735 0.930 . S
C2730 H2716 0.930 . S
C2730 C2728 1.395 . S
C2730 C2733 1.403 . S
C2731 C2728 1.403 . S
C2731 C2732 1.524 . S
C2731 C2735 1.400 . S
C2732 H2717 0.960 . S
C2732 H2718 0.960 . S
C2732 H2719 0.960 . S
C2732 C2731 1.524 . S
C2733 C2730 1.403 . S
C2733 C2734 1.392 . S
C2733 C2737 1.495 . S
C2734 C2733 1.392 . S
C2734 C2735 1.385 . S
C2734 C2736 1.478 . S
C2735 H2729 0.930 . S
C2735 C2731 1.400 . S
C2735 C2734 1.385 . S
C2736 C2734 1.478 . S
C2736 C2738 1.381 . S
C2736 C2742 1.383 . S
C2737 C2733 1.495 . S
C2737 H2743 0.959 . S
C2737 H2744 0.961 . S
C2737 H2745 0.960 . S
C2738 C2736 1.381 . S
C2738 C2739 1.394 . S
C2738 H2746 0.930 . S
C2739 C2738 1.394 . S
C2739 C2740 1.383 . S
C2739 H2747 0.929 . S
C2740 C2739 1.383 . S
C2740 C2741 1.377 . S
C2741 H2725 0.930 . S
C2741 C2740 1.377 . S
C2741 C2742 1.379 . S
C2742 H2726 0.931 . S
C2742 C2736 1.383 . S
C2742 C2741 1.379 . S
H2743 C2737 0.959 . S
H2744 C2737 0.961 . S
H2745 C2737 0.960 . S
H2746 C2738 0.930 . S
H2747 C2739 0.929 . S
H2748 C2756 0.929 . S
H2749 C2758 0.930 . S
H2750 C2760 0.930 . S
H2751 C2763 0.929 . S
H2752 C2766 0.930 . S
H2753 C2768 0.960 . S
H2754 C2768 0.960 . S
H2755 C2768 0.960 . S
C2756 H2748 0.929 . S
C2756 C2757 1.377 . S
C2756 C2758 1.384 . S
C2757 C2756 1.377 . S
C2757 C2763 1.390 . S
C2758 H2749 0.930 . S
C2758 C2756 1.384 . S
C2758 C2759 1.372 . S
C2759 C2758 1.372 . S
C2759 C2760 1.400 . S
C2759 C2764 1.490 . S
C2760 H2750 0.930 . S
C2760 C2759 1.400 . S
C2760 C2763 1.386 . S
H2761 C2777 0.930 . S
H2762 C2778 0.931 . S
C2763 H2751 0.929 . S
C2763 C2757 1.390 . S
C2763 C2760 1.386 . S
C2764 C2759 1.490 . S
C2764 C2766 1.395 . S
C2764 C2767 1.403 . S
H2765 C2771 0.930 . S
C2766 H2752 0.930 . S
C2766 C2764 1.395 . S
C2766 C2769 1.403 . S
C2767 C2764 1.403 . S
C2767 C2768 1.524 . S
C2767 C2771 1.400 . S
C2768 H2753 0.960 . S
C2768 H2754 0.960 . S
C2768 H2755 0.960 . S
C2768 C2767 1.524 . S
C2769 C2766 1.403 . S
C2769 C2770 1.392 . S
C2769 C2773 1.495 . S
C2770 C2769 1.392 . S
C2770 C2771 1.385 . S
C2770 C2772 1.478 . S
C2771 H2765 0.930 . S
C2771 C2767 1.400 . S
C2771 C2770 1.385 . S
C2772 C2770 1.478 . S
C2772 C2774 1.381 . S
C2772 C2778 1.383 . S
C2773 C2769 1.495 . S
C2773 H2779 0.959 . S
C2773 H2780 0.961 . S
C2773 H2781 0.960 . S
C2774 C2772 1.381 . S
C2774 C2775 1.394 . S
C2774 H2782 0.930 . S
C2775 C2774 1.394 . S
C2775 C2776 1.383 . S
C2775 H2783 0.929 . S
C2776 C2775 1.383 . S
C2776 C2777 1.377 . S
C2777 H2761 0.930 . S
C2777 C2776 1.377 . S
C2777 C2778 1.379 . S
C2778 H2762 0.931 . S
C2778 C2772 1.383 . S
C2778 C2777 1.379 . S
H2779 C2773 0.959 . S
H2780 C2773 0.961 . S
H2781 C2773 0.960 . S
H2782 C2774 0.930 . S
H2783 C2775 0.929 . S
H2784 C2792 0.929 . S
H2785 C2794 0.930 . S
H2786 C2796 0.930 . S
H2787 C2799 0.929 . S
H2788 C2802 0.930 . S
H2789 C2804 0.960 . S
H2790 C2804 0.960 . S
H2791 C2804 0.960 . S
C2792 H2784 0.929 . S
C2792 C2793 1.377 . S
C2792 C2794 1.384 . S
C2793 C2792 1.377 . S
C2793 C2799 1.390 . S
C2794 H2785 0.930 . S
C2794 C2792 1.384 . S
C2794 C2795 1.372 . S
C2795 C2794 1.372 . S
C2795 C2796 1.400 . S
C2795 C2800 1.490 . S
C2796 H2786 0.930 . S
C2796 C2795 1.400 . S
C2796 C2799 1.386 . S
H2797 C2813 0.930 . S
H2798 C2814 0.931 . S
C2799 H2787 0.929 . S
C2799 C2793 1.390 . S
C2799 C2796 1.386 . S
C2800 C2795 1.490 . S
C2800 C2802 1.395 1_545 S
C2800 C2803 1.403 . S
H2801 C2807 0.930 . S
C2802 H2788 0.930 . S
C2802 C2800 1.395 1_565 S
C2802 C2805 1.403 . S
C2803 C2800 1.403 . S
C2803 C2804 1.524 . S
C2803 C2807 1.400 . S
C2804 H2789 0.960 . S
C2804 H2790 0.960 . S
C2804 H2791 0.960 . S
C2804 C2803 1.524 . S
C2805 C2802 1.403 . S
C2805 C2806 1.392 . S
C2805 C2809 1.495 . S
C2806 C2805 1.392 . S
C2806 C2807 1.385 1_565 S
C2806 C2808 1.478 . S
C2807 H2801 0.930 . S
C2807 C2803 1.400 . S
C2807 C2806 1.385 1_545 S
C2808 C2806 1.478 . S
C2808 C2810 1.381 . S
C2808 C2814 1.383 . S
C2809 C2805 1.495 . S
C2809 H2815 0.959 . S
C2809 H2816 0.961 . S
C2809 H2817 0.960 . S
C2810 C2808 1.381 . S
C2810 C2811 1.394 . S
C2810 H2818 0.930 . S
C2811 C2810 1.394 . S
C2811 C2812 1.383 . S
C2811 H2819 0.929 . S
C2812 C2811 1.383 . S
C2812 C2813 1.377 . S
C2813 H2797 0.930 . S
C2813 C2812 1.377 . S
C2813 C2814 1.379 . S
C2814 H2798 0.931 . S
C2814 C2808 1.383 . S
C2814 C2813 1.379 . S
H2815 C2809 0.959 . S
H2816 C2809 0.961 . S
H2817 C2809 0.960 . S
H2818 C2810 0.930 . S
H2819 C2811 0.929 . S
H2820 C2828 0.929 . S
H2821 C2830 0.930 . S
H2822 C2832 0.930 . S
H2823 C2835 0.929 . S
H2824 C2838 0.930 . S
H2825 C2840 0.960 . S
H2826 C2840 0.960 . S
H2827 C2840 0.960 . S
C2828 H2820 0.929 . S
C2828 C2829 1.377 . S
C2828 C2830 1.384 . S
C2829 C2828 1.377 . S
C2829 C2835 1.390 . S
C2830 H2821 0.930 . S
C2830 C2828 1.384 . S
C2830 C2831 1.372 . S
C2831 C2830 1.372 . S
C2831 C2832 1.400 . S
C2831 C2836 1.490 . S
C2832 H2822 0.930 . S
C2832 C2831 1.400 . S
C2832 C2835 1.386 . S
H2833 C2849 0.930 . S
H2834 C2850 0.931 . S
C2835 H2823 0.929 . S
C2835 C2829 1.390 . S
C2835 C2832 1.386 . S
C2836 C2831 1.490 . S
C2836 C2838 1.395 . S
C2836 C2839 1.403 . S
H2837 C2843 0.930 . S
C2838 H2824 0.930 . S
C2838 C2836 1.395 . S
C2838 C2841 1.403 . S
C2839 C2836 1.403 . S
C2839 C2840 1.524 . S
C2839 C2843 1.400 . S
C2840 H2825 0.960 . S
C2840 H2826 0.960 . S
C2840 H2827 0.960 . S
C2840 C2839 1.524 . S
C2841 C2838 1.403 . S
C2841 C2842 1.392 . S
C2841 C2845 1.495 . S
C2842 C2841 1.392 . S
C2842 C2843 1.385 . S
C2842 C2844 1.478 . S
C2843 H2837 0.930 . S
C2843 C2839 1.400 . S
C2843 C2842 1.385 . S
C2844 C2842 1.478 . S
C2844 C2846 1.381 . S
C2844 C2850 1.383 . S
C2845 C2841 1.495 . S
C2845 H2851 0.959 . S
C2845 H2852 0.961 . S
C2845 H2853 0.960 . S
C2846 C2844 1.381 . S
C2846 C2847 1.394 . S
C2846 H2854 0.930 . S
C2847 C2846 1.394 . S
C2847 C2848 1.383 . S
C2847 H2855 0.929 . S
C2848 C2847 1.383 . S
C2848 C2849 1.377 . S
C2849 H2833 0.930 . S
C2849 C2848 1.377 . S
C2849 C2850 1.379 . S
C2850 H2834 0.931 . S
C2850 C2844 1.383 . S
C2850 C2849 1.379 . S
H2851 C2845 0.959 . S
H2852 C2845 0.961 . S
H2853 C2845 0.960 . S
H2854 C2846 0.930 . S
H2855 C2847 0.929 . S
H2856 C2864 0.929 . S
H2857 C2866 0.930 . S
H2858 C2868 0.930 . S
H2859 C2871 0.929 . S
H2860 C2874 0.929 . S
H2861 C2876 0.960 . S
H2862 C2876 0.960 . S
H2863 C2876 0.960 . S
C2864 H2856 0.929 . S
C2864 C2865 1.377 . S
C2864 C2866 1.384 . S
C2865 C2864 1.377 . S
C2865 C2871 1.390 . S
C2866 H2857 0.930 . S
C2866 C2864 1.384 . S
C2866 C2867 1.372 . S
C2867 C2866 1.372 . S
C2867 C2868 1.400 . S
C2867 C2872 1.490 . S
C2868 H2858 0.930 . S
C2868 C2867 1.400 . S
C2868 C2871 1.386 . S
H2869 C2885 0.930 . S
H2870 C2886 0.931 . S
C2871 H2859 0.929 . S
C2871 C2865 1.390 . S
C2871 C2868 1.386 . S
C2872 C2867 1.490 . S
C2872 C2874 1.396 . S
C2872 C2875 1.403 . S
H2873 C2879 0.930 . S
C2874 H2860 0.929 . S
C2874 C2872 1.396 . S
C2874 C2877 1.401 1_545 S
C2875 C2872 1.403 . S
C2875 C2876 1.524 . S
C2875 C2879 1.400 1_545 S
C2876 H2861 0.960 . S
C2876 H2862 0.960 . S
C2876 H2863 0.960 . S
C2876 C2875 1.524 . S
C2877 C2874 1.401 1_565 S
C2877 C2878 1.392 . S
C2877 C2881 1.495 . S
C2878 C2877 1.392 . S
C2878 C2879 1.385 . S
C2878 C2880 1.478 . S
C2879 H2873 0.930 . S
C2879 C2875 1.400 1_565 S
C2879 C2878 1.385 . S
C2880 C2878 1.478 . S
C2880 C2882 1.381 . S
C2880 C2886 1.383 . S
C2881 C2877 1.495 . S
C2881 H2887 0.959 . S
C2881 H2888 0.961 . S
C2881 H2889 0.960 . S
C2882 C2880 1.381 . S
C2882 C2883 1.394 . S
C2882 H2890 0.930 . S
C2883 C2882 1.394 . S
C2883 C2884 1.383 . S
C2883 H2891 0.929 . S
C2884 C2883 1.383 . S
C2884 C2885 1.377 . S
C2885 H2869 0.930 . S
C2885 C2884 1.377 . S
C2885 C2886 1.379 . S
C2886 H2870 0.931 . S
C2886 C2880 1.383 . S
C2886 C2885 1.379 . S
H2887 C2881 0.959 . S
H2888 C2881 0.961 . S
H2889 C2881 0.960 . S
H2890 C2882 0.930 . S
H2891 C2883 0.929 . S
H2892 C2900 0.929 . S
H2893 C2902 0.930 . S
H2894 C2904 0.930 . S
H2895 C2907 0.929 . S
H2896 C2910 0.930 . S
H2897 C2912 1.000 . S
H2898 C2912 0.960 . S
H2899 C2912 0.960 . S
C2900 H2892 0.929 . S
C2900 C2901 1.377 . S
C2900 C2902 1.384 . S
C2901 C2900 1.377 . S
C2901 C2907 1.390 . S
C2902 H2893 0.930 . S
C2902 C2900 1.384 . S
C2902 C2903 1.372 . S
C2903 C2902 1.372 . S
C2903 C2904 1.400 . S
C2903 C2908 1.490 . S
C2904 H2894 0.930 . S
C2904 C2903 1.400 . S
C2904 C2907 1.386 . S
H2905 C2921 0.930 . S
H2906 C2922 0.931 . S
C2907 H2895 0.929 . S
C2907 C2901 1.390 . S
C2907 C2904 1.386 . S
C2908 C2903 1.490 . S
C2908 C2910 1.395 . S
C2908 C2911 1.403 . S
H2909 C2915 0.930 . S
C2910 H2896 0.930 . S
C2910 C2908 1.395 . S
C2910 C2913 1.403 1_556 S
C2911 C2908 1.403 . S
C2911 C2912 1.524 . S
C2911 C2915 1.400 1_556 S
C2912 H2897 1.000 . S
C2912 H2898 0.960 . S
C2912 H2899 0.960 . S
C2912 C2911 1.524 . S
C2913 C2910 1.403 1_554 S
C2913 C2914 1.392 . S
C2913 C2917 1.495 . S
C2914 C2913 1.392 . S
C2914 C2915 1.385 . S
C2914 C2916 1.478 . S
C2915 H2909 0.930 . S
C2915 C2911 1.400 1_554 S
C2915 C2914 1.385 . S
C2916 C2914 1.478 . S
C2916 C2918 1.381 . S
C2916 C2922 1.383 . S
C2917 C2913 1.495 . S
C2917 H2923 0.959 . S
C2917 H2924 0.961 . S
C2917 H2925 0.960 . S
C2918 C2916 1.381 . S
C2918 C2919 1.394 . S
C2918 H2926 0.930 . S
C2919 C2918 1.394 . S
C2919 C2920 1.383 . S
C2919 H2927 0.929 . S
C2920 C2919 1.383 . S
C2920 C2921 1.377 . S
C2921 H2905 0.930 . S
C2921 C2920 1.377 . S
C2921 C2922 1.379 . S
C2922 H2906 0.931 . S
C2922 C2916 1.383 . S
C2922 C2921 1.379 . S
H2923 C2917 0.959 . S
H2924 C2917 0.961 . S
H2925 C2917 0.960 . S
H2926 C2918 0.930 . S
H2927 C2919 0.929 . S
H2928 C2936 0.929 . S
H2929 C2938 0.930 . S
H2930 C2940 0.930 . S
H2931 C2943 0.929 . S
H2932 C2946 0.930 . S
H2933 C2948 0.960 . S
H2934 C2948 0.960 . S
H2935 C2948 0.960 . S
C2936 H2928 0.929 . S
C2936 C2937 1.377 . S
C2936 C2938 1.384 . S
C2937 C2936 1.377 . S
C2937 C2943 1.390 . S
C2938 H2929 0.930 . S
C2938 C2936 1.384 . S
C2938 C2939 1.372 . S
C2939 C2938 1.372 . S
C2939 C2940 1.400 . S
C2939 C2944 1.490 . S
C2940 H2930 0.930 . S
C2940 C2939 1.400 . S
C2940 C2943 1.386 . S
H2941 C2957 0.930 . S
H2942 C2958 0.931 . S
C2943 H2931 0.929 . S
C2943 C2937 1.390 . S
C2943 C2940 1.386 . S
C2944 C2939 1.490 . S
C2944 C2946 1.395 . S
C2944 C2947 1.403 1_565 S
H2945 C2951 0.930 . S
C2946 H2932 0.930 . S
C2946 C2944 1.395 . S
C2946 C2949 1.403 . S
C2947 C2944 1.403 1_545 S
C2947 C2948 1.524 . S
C2947 C2951 1.400 . S
C2948 H2933 0.960 . S
C2948 H2934 0.960 . S
C2948 H2935 0.960 . S
C2948 C2947 1.524 . S
C2949 C2946 1.403 . S
C2949 C2950 1.392 1_565 S
C2949 C2953 1.495 . S
C2950 C2949 1.392 1_545 S
C2950 C2951 1.385 . S
C2950 C2952 1.478 . S
C2951 H2945 0.930 . S
C2951 C2947 1.400 . S
C2951 C2950 1.385 . S
C2952 C2950 1.478 . S
C2952 C2954 1.381 . S
C2952 C2958 1.383 . S
C2953 C2949 1.495 . S
C2953 H2959 0.959 . S
C2953 H2960 0.961 . S
C2953 H2961 0.960 . S
C2954 C2952 1.381 . S
C2954 C2955 1.394 . S
C2954 H2962 0.930 . S
C2955 C2954 1.394 . S
C2955 C2956 1.383 . S
C2955 H2963 0.929 . S
C2956 C2955 1.383 . S
C2956 C2957 1.377 . S
C2957 H2941 0.930 . S
C2957 C2956 1.377 . S
C2957 C2958 1.379 . S
C2958 H2942 0.931 . S
C2958 C2952 1.383 . S
C2958 C2957 1.379 . S
H2959 C2953 0.959 . S
H2960 C2953 0.961 . S
H2961 C2953 0.960 . S
H2962 C2954 0.930 . S
H2963 C2955 0.929 . S
H2964 C2972 0.929 . S
H2965 C2974 0.930 . S
H2966 C2976 0.930 . S
H2967 C2979 0.929 . S
H2968 C2982 0.930 . S
H2969 C2984 0.960 . S
H2970 C2984 0.960 . S
H2971 C2984 0.960 . S
C2972 H2964 0.929 . S
C2972 C2973 1.377 . S
C2972 C2974 1.384 . S
C2973 C2972 1.377 . S
C2973 C2979 1.390 . S
C2974 H2965 0.930 . S
C2974 C2972 1.384 . S
C2974 C2975 1.372 . S
C2975 C2974 1.372 . S
C2975 C2976 1.400 . S
C2975 C2980 1.490 . S
C2976 H2966 0.930 . S
C2976 C2975 1.400 . S
C2976 C2979 1.386 . S
H2977 C2993 0.930 . S
H2978 C2994 0.931 . S
C2979 H2967 0.929 . S
C2979 C2973 1.390 . S
C2979 C2976 1.386 . S
C2980 C2975 1.490 . S
C2980 C2982 1.395 . S
C2980 C2983 1.403 . S
H2981 C2987 0.930 . S
C2982 H2968 0.930 . S
C2982 C2980 1.395 . S
C2982 C2985 1.403 . S
C2983 C2980 1.403 . S
C2983 C2984 1.524 . S
C2983 C2987 1.400 . S
C2984 H2969 0.960 . S
C2984 H2970 0.960 . S
C2984 H2971 0.960 . S
C2984 C2983 1.524 . S
C2985 C2982 1.403 . S
C2985 C2986 1.392 . S
C2985 C2989 1.495 . S
C2986 C2985 1.392 . S
C2986 C2987 1.385 . S
C2986 C2988 1.478 . S
C2987 H2981 0.930 . S
C2987 C2983 1.400 . S
C2987 C2986 1.385 . S
C2988 C2986 1.478 . S
C2988 C2990 1.381 . S
C2988 C2994 1.383 . S
C2989 C2985 1.495 . S
C2989 H2995 0.959 . S
C2989 H2996 0.961 . S
C2989 H2997 0.960 . S
C2990 C2988 1.381 . S
C2990 C2991 1.394 . S
C2990 H2998 0.930 . S
C2991 C2990 1.394 . S
C2991 C2992 1.383 . S
C2991 H2999 0.929 . S
C2992 C2991 1.383 . S
C2992 C2993 1.377 . S
C2993 H2977 0.930 . S
C2993 C2992 1.377 . S
C2993 C2994 1.379 . S
C2994 H2978 0.931 . S
C2994 C2988 1.383 . S
C2994 C2993 1.379 . S
H2995 C2989 0.959 . S
H2996 C2989 0.961 . S
H2997 C2989 0.960 . S
H2998 C2990 0.930 . S
H2999 C2991 0.929 . S
H3000 C3008 0.929 . S
H3001 C3010 0.930 . S
H3002 C3012 0.930 . S
H3003 C3015 0.929 . S
H3004 C3018 0.930 . S
H3005 C3020 0.960 . S
H3006 C3020 0.984 . S
H3007 C3020 0.960 . S
C3008 H3000 0.929 . S
C3008 C3009 1.377 . S
C3008 C3010 1.384 . S
C3009 C3008 1.377 . S
C3009 C3015 1.390 . S
C3010 H3001 0.930 . S
C3010 C3008 1.384 . S
C3010 C3011 1.372 . S
C3011 C3010 1.372 . S
C3011 C3012 1.400 . S
C3011 C3016 1.490 . S
C3012 H3002 0.930 . S
C3012 C3011 1.400 . S
C3012 C3015 1.386 . S
H3013 C3029 0.930 . S
H3014 C3030 0.931 . S
C3015 H3003 0.929 . S
C3015 C3009 1.390 . S
C3015 C3012 1.386 . S
C3016 C3011 1.490 . S
C3016 C3018 1.395 . S
C3016 C3019 1.403 1_545 S
H3017 C3023 0.930 . S
C3018 H3004 0.930 . S
C3018 C3016 1.395 . S
C3018 C3021 1.403 . S
C3019 C3016 1.403 1_565 S
C3019 C3020 1.524 . S
C3019 C3023 1.400 . S
C3020 H3005 0.960 . S
C3020 H3006 0.984 . S
C3020 H3007 0.960 . S
C3020 C3019 1.524 . S
C3021 C3018 1.403 . S
C3021 C3022 1.392 1_545 S
C3021 C3025 1.495 . S
C3022 C3021 1.392 1_565 S
C3022 C3023 1.385 . S
C3022 C3024 1.478 . S
C3023 H3017 0.930 . S
C3023 C3019 1.400 . S
C3023 C3022 1.385 . S
C3024 C3022 1.478 . S
C3024 C3026 1.381 . S
C3024 C3030 1.383 . S
C3025 C3021 1.495 . S
C3025 H3031 0.959 . S
C3025 H3032 0.961 . S
C3025 H3033 0.960 . S
C3026 C3024 1.381 . S
C3026 C3027 1.394 . S
C3026 H3034 0.930 . S
C3027 C3026 1.394 . S
C3027 C3028 1.383 . S
C3027 H3035 0.929 . S
C3028 C3027 1.383 . S
C3028 C3029 1.377 . S
C3029 H3013 0.930 . S
C3029 C3028 1.377 . S
C3029 C3030 1.379 . S
C3030 H3014 0.931 . S
C3030 C3024 1.383 . S
C3030 C3029 1.379 . S
H3031 C3025 0.959 . S
H3032 C3025 0.961 . S
H3033 C3025 0.960 . S
H3034 C3026 0.930 . S
H3035 C3027 0.929 . S
H3036 C3044 0.929 . S
H3037 C3046 0.930 . S
H3038 C3048 0.930 . S
H3039 C3051 0.929 . S
H3040 C3054 0.930 . S
H3041 C3056 0.960 . S
H3042 C3056 0.960 . S
H3043 C3056 0.960 . S
C3044 H3036 0.929 . S
C3044 C3045 1.377 . S
C3044 C3046 1.384 . S
C3045 C3044 1.377 . S
C3045 C3051 1.390 . S
C3046 H3037 0.930 . S
C3046 C3044 1.384 . S
C3046 C3047 1.372 . S
C3047 C3046 1.372 . S
C3047 C3048 1.400 . S
C3047 C3052 1.490 . S
C3048 H3038 0.930 . S
C3048 C3047 1.400 . S
C3048 C3051 1.386 . S
H3049 C3065 0.930 . S
H3050 C3066 0.931 . S
C3051 H3039 0.929 . S
C3051 C3045 1.390 . S
C3051 C3048 1.386 . S
C3052 C3047 1.490 . S
C3052 C3054 1.395 1_554 S
C3052 C3055 1.403 . S
H3053 C3059 0.929 1_554 S
C3054 H3040 0.930 . S
C3054 C3052 1.395 1_556 S
C3054 C3057 1.403 . S
C3055 C3052 1.403 . S
C3055 C3056 1.524 . S
C3055 C3059 1.375 1_554 S
C3056 H3041 0.960 . S
C3056 H3042 0.960 . S
C3056 H3043 0.960 . S
C3056 C3055 1.524 . S
C3057 C3054 1.403 . S
C3057 C3058 1.392 . S
C3057 C3061 1.495 . S
C3058 C3057 1.392 . S
C3058 C3059 1.412 . S
C3058 C3060 1.478 . S
C3059 H3053 0.929 1_556 S
C3059 C3055 1.375 1_556 S
C3059 C3058 1.412 . S
C3060 C3058 1.478 . S
C3060 C3062 1.381 . S
C3060 C3066 1.383 . S
C3061 C3057 1.495 . S
C3061 H3067 0.959 . S
C3061 H3068 0.961 . S
C3061 H3069 0.960 . S
C3062 C3060 1.381 . S
C3062 C3063 1.394 . S
C3062 H3070 0.930 . S
C3063 C3062 1.394 . S
C3063 C3064 1.383 . S
C3063 H3071 0.929 . S
C3064 C3063 1.383 . S
C3064 C3065 1.377 . S
C3065 H3049 0.930 . S
C3065 C3064 1.377 . S
C3065 C3066 1.379 . S
C3066 H3050 0.931 . S
C3066 C3060 1.383 . S
C3066 C3065 1.379 . S
H3067 C3061 0.959 . S
H3068 C3061 0.961 . S
H3069 C3061 0.960 . S
H3070 C3062 0.930 . S
H3071 C3063 0.929 . S
H3072 C3080 0.929 . S
H3073 C3082 0.930 . S
H3074 C3084 0.930 . S
H3075 C3087 0.929 . S
H3076 C3090 0.930 . S
H3077 C3092 0.960 . S
H3078 C3092 0.960 . S
H3079 C3092 0.960 . S
C3080 H3072 0.929 . S
C3080 C3081 1.377 . S
C3080 C3082 1.384 . S
C3081 C3080 1.377 . S
C3081 C3087 1.390 . S
C3082 H3073 0.930 . S
C3082 C3080 1.384 . S
C3082 C3083 1.372 . S
C3083 C3082 1.372 . S
C3083 C3084 1.400 . S
C3083 C3088 1.490 . S
C3084 H3074 0.930 . S
C3084 C3083 1.400 . S
C3084 C3087 1.386 . S
H3085 C3101 0.930 . S
H3086 C3102 0.931 . S
C3087 H3075 0.929 . S
C3087 C3081 1.390 . S
C3087 C3084 1.386 . S
C3088 C3083 1.490 . S
C3088 C3090 1.395 . S
C3088 C3091 1.403 . S
H3089 C3095 0.930 . S
C3090 H3076 0.930 . S
C3090 C3088 1.395 . S
C3090 C3093 1.403 . S
C3091 C3088 1.403 . S
C3091 C3092 1.524 . S
C3091 C3095 1.400 . S
C3092 H3077 0.960 . S
C3092 H3078 0.960 . S
C3092 H3079 0.960 . S
C3092 C3091 1.524 . S
C3093 C3090 1.403 . S
C3093 C3094 1.392 . S
C3093 C3097 1.495 . S
C3094 C3093 1.392 . S
C3094 C3095 1.385 . S
C3094 C3096 1.478 . S
C3095 H3089 0.930 . S
C3095 C3091 1.400 . S
C3095 C3094 1.385 . S
C3096 C3094 1.478 . S
C3096 C3098 1.381 . S
C3096 C3102 1.383 . S
C3097 C3093 1.495 . S
C3097 H3103 0.959 . S
C3097 H3104 0.961 . S
C3097 H3105 0.960 . S
C3098 C3096 1.381 . S
C3098 C3099 1.394 . S
C3098 H3106 0.930 . S
C3099 C3098 1.394 . S
C3099 C3100 1.383 . S
C3099 H3107 0.929 . S
C3100 C3099 1.383 . S
C3100 C3101 1.377 . S
C3101 H3085 0.930 . S
C3101 C3100 1.377 . S
C3101 C3102 1.379 . S
C3102 H3086 0.931 . S
C3102 C3096 1.383 . S
C3102 C3101 1.379 . S
H3103 C3097 0.959 . S
H3104 C3097 0.961 . S
H3105 C3097 0.960 . S
H3106 C3098 0.930 . S
H3107 C3099 0.929 . S
H3108 C3116 0.929 . S
H3109 C3118 0.930 . S
H3110 C3120 0.930 . S
H3111 C3123 0.929 . S
H3112 C3126 0.930 . S
H3113 C3128 0.960 . S
H3114 C3128 0.960 . S
H3115 C3128 0.960 . S
C3116 H3108 0.929 . S
C3116 C3117 1.377 . S
C3116 C3118 1.384 . S
C3117 C3116 1.377 . S
C3117 C3123 1.390 . S
C3118 H3109 0.930 . S
C3118 C3116 1.384 . S
C3118 C3119 1.372 . S
C3119 C3118 1.372 . S
C3119 C3120 1.400 . S
C3119 C3124 1.490 . S
C3120 H3110 0.930 . S
C3120 C3119 1.400 . S
C3120 C3123 1.386 . S
H3121 C3137 0.930 . S
H3122 C3138 0.931 . S
C3123 H3111 0.929 . S
C3123 C3117 1.390 . S
C3123 C3120 1.386 . S
C3124 C3119 1.490 . S
C3124 C3126 1.395 1_554 S
C3124 C3127 1.403 . S
H3125 C3131 0.941 . S
C3126 H3112 0.930 . S
C3126 C3124 1.395 1_556 S
C3126 C3129 1.403 . S
C3127 C3124 1.403 . S
C3127 C3128 1.524 . S
C3127 C3131 1.451 . S
C3128 H3113 0.960 . S
C3128 H3114 0.960 . S
C3128 H3115 0.960 . S
C3128 C3127 1.524 . S
C3129 C3126 1.403 . S
C3129 C3130 1.392 . S
C3129 C3133 1.495 . S
C3130 C3129 1.392 . S
C3130 C3131 1.326 1_556 S
C3130 C3132 1.478 . S
C3131 H3125 0.941 . S
C3131 C3127 1.451 . S
C3131 C3130 1.326 1_554 S
C3132 C3130 1.478 . S
C3132 C3134 1.381 . S
C3132 C3138 1.383 . S
C3133 C3129 1.495 . S
C3133 H3139 0.959 . S
C3133 H3140 0.961 . S
C3133 H3141 0.960 . S
C3134 C3132 1.381 . S
C3134 C3135 1.394 . S
C3134 H3142 0.930 . S
C3135 C3134 1.394 . S
C3135 C3136 1.383 . S
C3135 H3143 0.929 . S
C3136 C3135 1.383 . S
C3136 C3137 1.377 . S
C3137 H3121 0.930 . S
C3137 C3136 1.377 . S
C3137 C3138 1.379 . S
C3138 H3122 0.931 . S
C3138 C3132 1.383 . S
C3138 C3137 1.379 . S
H3139 C3133 0.959 . S
H3140 C3133 0.961 . S
H3141 C3133 0.960 . S
H3142 C3134 0.930 . S
H3143 C3135 0.929 . S
H3144 C3152 0.929 . S
H3145 C3154 0.930 . S
H3146 C3156 0.930 . S
H3147 C3159 0.929 . S
H3148 C3162 0.930 . S
H3149 C3164 0.960 . S
H3150 C3164 0.960 . S
H3151 C3164 0.960 . S
C3152 H3144 0.929 . S
C3152 C3153 1.377 . S
C3152 C3154 1.384 . S
C3153 C3152 1.377 . S
C3153 C3159 1.390 . S
C3154 H3145 0.930 . S
C3154 C3152 1.384 . S
C3154 C3155 1.372 . S
C3155 C3154 1.372 . S
C3155 C3156 1.400 . S
C3155 C3160 1.490 . S
C3156 H3146 0.930 . S
C3156 C3155 1.400 . S
C3156 C3159 1.386 . S
H3157 C3173 0.930 . S
H3158 C3174 0.931 . S
C3159 H3147 0.929 . S
C3159 C3153 1.390 . S
C3159 C3156 1.386 . S
C3160 C3155 1.490 . S
C3160 C3162 1.395 . S
C3160 C3163 1.403 . S
H3161 C3167 0.930 . S
C3162 H3148 0.930 . S
C3162 C3160 1.395 . S
C3162 C3165 1.403 . S
C3163 C3160 1.403 . S
C3163 C3164 1.524 . S
C3163 C3167 1.400 . S
C3164 H3149 0.960 . S
C3164 H3150 0.960 . S
C3164 H3151 0.960 . S
C3164 C3163 1.524 . S
C3165 C3162 1.403 . S
C3165 C3166 1.392 . S
C3165 C3169 1.495 . S
C3166 C3165 1.392 . S
C3166 C3167 1.385 . S
C3166 C3168 1.478 . S
C3167 H3161 0.930 . S
C3167 C3163 1.400 . S
C3167 C3166 1.385 . S
C3168 C3166 1.478 . S
C3168 C3170 1.381 . S
C3168 C3174 1.383 . S
C3169 C3165 1.495 . S
C3169 H3175 0.959 . S
C3169 H3176 0.961 . S
C3169 H3177 0.960 . S
C3170 C3168 1.381 . S
C3170 C3171 1.394 . S
C3170 H3178 0.930 . S
C3171 C3170 1.394 . S
C3171 C3172 1.383 . S
C3171 H3179 0.929 . S
C3172 C3171 1.383 . S
C3172 C3173 1.377 . S
C3173 H3157 0.930 . S
C3173 C3172 1.377 . S
C3173 C3174 1.379 . S
C3174 H3158 0.931 . S
C3174 C3168 1.383 . S
C3174 C3173 1.379 . S
H3175 C3169 0.959 . S
H3176 C3169 0.961 . S
H3177 C3169 0.960 . S
H3178 C3170 0.930 . S
H3179 C3171 0.929 . S
H3180 C3188 0.929 . S
H3181 C3190 0.930 . S
H3182 C3192 0.930 . S
H3183 C3195 0.929 . S
H3184 C3198 0.930 . S
H3185 C3200 0.960 . S
H3186 C3200 0.960 . S
H3187 C3200 0.960 . S
C3188 H3180 0.929 . S
C3188 C3189 1.377 . S
C3188 C3190 1.384 . S
C3189 C3188 1.377 . S
C3189 C3195 1.390 . S
C3190 H3181 0.930 . S
C3190 C3188 1.384 . S
C3190 C3191 1.372 . S
C3191 C3190 1.372 . S
C3191 C3192 1.400 . S
C3191 C3196 1.490 . S
C3192 H3182 0.930 . S
C3192 C3191 1.400 . S
C3192 C3195 1.386 . S
H3193 C3209 0.930 . S
H3194 C3210 0.931 . S
C3195 H3183 0.929 . S
C3195 C3189 1.390 . S
C3195 C3192 1.386 . S
C3196 C3191 1.490 . S
C3196 C3198 1.395 . S
C3196 C3199 1.403 . S
H3197 C3203 0.930 . S
C3198 H3184 0.930 . S
C3198 C3196 1.395 . S
C3198 C3201 1.403 . S
C3199 C3196 1.403 . S
C3199 C3200 1.524 . S
C3199 C3203 1.400 . S
C3200 H3185 0.960 . S
C3200 H3186 0.960 . S
C3200 H3187 0.960 . S
C3200 C3199 1.524 . S
C3201 C3198 1.403 . S
C3201 C3202 1.392 . S
C3201 C3205 1.495 . S
C3202 C3201 1.392 . S
C3202 C3203 1.385 . S
C3202 C3204 1.478 . S
C3203 H3197 0.930 . S
C3203 C3199 1.400 . S
C3203 C3202 1.385 . S
C3204 C3202 1.478 . S
C3204 C3206 1.381 . S
C3204 C3210 1.383 . S
C3205 C3201 1.495 . S
C3205 H3211 0.959 . S
C3205 H3212 0.961 . S
C3205 H3213 0.960 . S
C3206 C3204 1.381 . S
C3206 C3207 1.394 . S
C3206 H3214 0.930 . S
C3207 C3206 1.394 . S
C3207 C3208 1.383 . S
C3207 H3215 0.929 . S
C3208 C3207 1.383 . S
C3208 C3209 1.377 . S
C3209 H3193 0.930 . S
C3209 C3208 1.377 . S
C3209 C3210 1.379 . S
C3210 H3194 0.931 . S
C3210 C3204 1.383 . S
C3210 C3209 1.379 . S
H3211 C3205 0.959 . S
H3212 C3205 0.961 . S
H3213 C3205 0.960 . S
H3214 C3206 0.930 . S
H3215 C3207 0.929 . S
H3216 C3224 0.929 . S
H3217 C3226 0.930 . S
H3218 C3228 0.930 . S
H3219 C3231 0.929 . S
H3220 C3234 0.930 . S
H3221 C3236 0.960 . S
H3222 C3236 0.960 . S
H3223 C3236 0.960 . S
C3224 H3216 0.929 . S
C3224 C3225 1.377 . S
C3224 C3226 1.384 . S
C3225 C3224 1.377 . S
C3225 C3231 1.390 . S
C3226 H3217 0.930 . S
C3226 C3224 1.384 . S
C3226 C3227 1.372 . S
C3227 C3226 1.372 . S
C3227 C3228 1.400 . S
C3227 C3232 1.490 . S
C3228 H3218 0.930 . S
C3228 C3227 1.400 . S
C3228 C3231 1.386 . S
H3229 C3245 0.930 . S
H3230 C3246 0.931 . S
C3231 H3219 0.929 . S
C3231 C3225 1.390 . S
C3231 C3228 1.386 . S
C3232 C3227 1.490 . S
C3232 C3234 1.395 . S
C3232 C3235 1.403 . S
H3233 C3239 0.930 . S
C3234 H3220 0.930 . S
C3234 C3232 1.395 . S
C3234 C3237 1.403 . S
C3235 C3232 1.403 . S
C3235 C3236 1.524 . S
C3235 C3239 1.400 . S
C3236 H3221 0.960 . S
C3236 H3222 0.960 . S
C3236 H3223 0.960 . S
C3236 C3235 1.524 . S
C3237 C3234 1.403 . S
C3237 C3238 1.392 . S
C3237 C3241 1.495 . S
C3238 C3237 1.392 . S
C3238 C3239 1.385 . S
C3238 C3240 1.478 . S
C3239 H3233 0.930 . S
C3239 C3235 1.400 . S
C3239 C3238 1.385 . S
C3240 C3238 1.478 . S
C3240 C3242 1.381 . S
C3240 C3246 1.383 . S
C3241 C3237 1.495 . S
C3241 H3247 0.959 . S
C3241 H3248 0.961 . S
C3241 H3249 0.960 . S
C3242 C3240 1.381 . S
C3242 C3243 1.394 . S
C3242 H3250 0.930 . S
C3243 C3242 1.394 . S
C3243 C3244 1.383 . S
C3243 H3251 0.929 . S
C3244 C3243 1.383 . S
C3244 C3245 1.377 . S
C3245 H3229 0.930 . S
C3245 C3244 1.377 . S
C3245 C3246 1.379 . S
C3246 H3230 0.931 . S
C3246 C3240 1.383 . S
C3246 C3245 1.379 . S
H3247 C3241 0.959 . S
H3248 C3241 0.961 . S
H3249 C3241 0.960 . S
H3250 C3242 0.930 . S
H3251 C3243 0.929 . S
H3252 C3260 0.929 . S
H3253 C3262 0.930 . S
H3254 C3264 0.930 . S
H3255 C3267 0.929 . S
H3256 C3270 0.930 . S
H3257 C3272 0.960 . S
H3258 C3272 0.960 . S
H3259 C3272 0.960 . S
C3260 H3252 0.929 . S
C3260 C3261 1.377 . S
C3260 C3262 1.384 . S
C3261 C3260 1.377 . S
C3261 C3267 1.390 . S
C3262 H3253 0.930 . S
C3262 C3260 1.384 . S
C3262 C3263 1.372 . S
C3263 C3262 1.372 . S
C3263 C3264 1.400 . S
C3263 C3268 1.490 . S
C3264 H3254 0.930 . S
C3264 C3263 1.400 . S
C3264 C3267 1.386 . S
H3265 C3281 0.930 . S
H3266 C3282 0.931 . S
C3267 H3255 0.929 . S
C3267 C3261 1.390 . S
C3267 C3264 1.386 . S
C3268 C3263 1.490 . S
C3268 C3270 1.395 1_556 S
C3268 C3271 1.403 . S
H3269 C3275 0.941 . S
C3270 H3256 0.930 . S
C3270 C3268 1.395 1_554 S
C3270 C3273 1.403 . S
C3271 C3268 1.403 . S
C3271 C3272 1.524 . S
C3271 C3275 1.449 . S
C3272 H3257 0.960 . S
C3272 H3258 0.960 . S
C3272 H3259 0.960 . S
C3272 C3271 1.524 . S
C3273 C3270 1.403 . S
C3273 C3274 1.392 . S
C3273 C3277 1.495 . S
C3274 C3273 1.392 . S
C3274 C3275 1.329 1_554 S
C3274 C3276 1.478 . S
C3275 H3269 0.941 . S
C3275 C3271 1.449 . S
C3275 C3274 1.329 1_556 S
C3276 C3274 1.478 . S
C3276 C3278 1.381 . S
C3276 C3282 1.383 . S
C3277 C3273 1.495 . S
C3277 H3283 0.959 . S
C3277 H3284 0.961 . S
C3277 H3285 0.960 . S
C3278 C3276 1.381 . S
C3278 C3279 1.394 . S
C3278 H3286 0.930 . S
C3279 C3278 1.394 . S
C3279 C3280 1.383 . S
C3279 H3287 0.929 . S
C3280 C3279 1.383 . S
C3280 C3281 1.377 . S
C3281 H3265 0.930 . S
C3281 C3280 1.377 . S
C3281 C3282 1.379 . S
C3282 H3266 0.931 . S
C3282 C3276 1.383 . S
C3282 C3281 1.379 . S
H3283 C3277 0.959 . S
H3284 C3277 0.961 . S
H3285 C3277 0.960 . S
H3286 C3278 0.930 . S
H3287 C3279 0.929 . S
H3288 C3296 0.929 . S
H3289 C3298 0.930 . S
H3290 C3300 0.930 . S
H3291 C3303 0.929 . S
H3292 C3306 0.930 . S
H3293 C3308 0.960 . S
H3294 C3308 0.960 . S
H3295 C3308 0.960 . S
C3296 H3288 0.929 . S
C3296 C3297 1.377 . S
C3296 C3298 1.384 . S
C3297 C3296 1.377 . S
C3297 C3303 1.390 . S
C3298 H3289 0.930 . S
C3298 C3296 1.384 . S
C3298 C3299 1.372 . S
C3299 C3298 1.372 . S
C3299 C3300 1.400 . S
C3299 C3304 1.490 . S
C3300 H3290 0.930 . S
C3300 C3299 1.400 . S
C3300 C3303 1.386 . S
H3301 C3317 0.930 . S
H3302 C3318 0.931 . S
C3303 H3291 0.929 . S
C3303 C3297 1.390 . S
C3303 C3300 1.386 . S
C3304 C3299 1.490 . S
C3304 C3306 1.395 . S
C3304 C3307 1.403 . S
H3305 C3311 0.930 . S
C3306 H3292 0.930 . S
C3306 C3304 1.395 . S
C3306 C3309 1.403 . S
C3307 C3304 1.403 . S
C3307 C3308 1.524 . S
C3307 C3311 1.400 . S
C3308 H3293 0.960 . S
C3308 H3294 0.960 . S
C3308 H3295 0.960 . S
C3308 C3307 1.524 . S
C3309 C3306 1.403 . S
C3309 C3310 1.392 . S
C3309 C3313 1.495 . S
C3310 C3309 1.392 . S
C3310 C3311 1.385 . S
C3310 C3312 1.478 . S
C3311 H3305 0.930 . S
C3311 C3307 1.400 . S
C3311 C3310 1.385 . S
C3312 C3310 1.478 . S
C3312 C3314 1.381 . S
C3312 C3318 1.383 . S
C3313 C3309 1.495 . S
C3313 H3319 0.959 . S
C3313 H3320 0.961 . S
C3313 H3321 0.960 . S
C3314 C3312 1.381 . S
C3314 C3315 1.394 . S
C3314 H3322 0.930 . S
C3315 C3314 1.394 . S
C3315 C3316 1.383 . S
C3315 H3323 0.929 . S
C3316 C3315 1.383 . S
C3316 C3317 1.377 . S
C3317 H3301 0.930 . S
C3317 C3316 1.377 . S
C3317 C3318 1.379 . S
C3318 H3302 0.931 . S
C3318 C3312 1.383 . S
C3318 C3317 1.379 . S
H3319 C3313 0.959 . S
H3320 C3313 0.961 . S
H3321 C3313 0.960 . S
H3322 C3314 0.930 . S
H3323 C3315 0.929 . S
H3324 C3332 0.929 . S
H3325 C3334 0.930 . S
H3326 C3336 0.930 . S
H3327 C3339 0.929 . S
H3328 C3342 0.930 . S
H3329 C3344 0.960 . S
H3330 C3344 0.960 . S
H3331 C3344 0.960 . S
C3332 H3324 0.929 . S
C3332 C3333 1.377 . S
C3332 C3334 1.384 . S
C3333 C3332 1.377 . S
C3333 C3339 1.390 . S
C3334 H3325 0.930 . S
C3334 C3332 1.384 . S
C3334 C3335 1.372 . S
C3335 C3334 1.372 . S
C3335 C3336 1.400 . S
C3335 C3340 1.490 . S
C3336 H3326 0.930 . S
C3336 C3335 1.400 . S
C3336 C3339 1.386 . S
H3337 C3353 0.930 . S
H3338 C3354 0.931 . S
C3339 H3327 0.929 . S
C3339 C3333 1.390 . S
C3339 C3336 1.386 . S
C3340 C3335 1.490 . S
C3340 C3342 1.395 . S
C3340 C3343 1.403 . S
H3341 C3347 0.930 . S
C3342 H3328 0.930 . S
C3342 C3340 1.395 . S
C3342 C3345 1.403 . S
C3343 C3340 1.403 . S
C3343 C3344 1.524 . S
C3343 C3347 1.400 . S
C3344 H3329 0.960 . S
C3344 H3330 0.960 . S
C3344 H3331 0.960 . S
C3344 C3343 1.524 . S
C3345 C3342 1.403 . S
C3345 C3346 1.392 . S
C3345 C3349 1.495 . S
C3346 C3345 1.392 . S
C3346 C3347 1.385 . S
C3346 C3348 1.478 . S
C3347 H3341 0.930 . S
C3347 C3343 1.400 . S
C3347 C3346 1.385 . S
C3348 C3346 1.478 . S
C3348 C3350 1.381 . S
C3348 C3354 1.383 . S
C3349 C3345 1.495 . S
C3349 H3355 0.959 . S
C3349 H3356 0.961 . S
C3349 H3357 0.960 . S
C3350 C3348 1.381 . S
C3350 C3351 1.394 . S
C3350 H3358 0.930 . S
C3351 C3350 1.394 . S
C3351 C3352 1.383 . S
C3351 H3359 0.929 . S
C3352 C3351 1.383 . S
C3352 C3353 1.377 . S
C3353 H3337 0.930 . S
C3353 C3352 1.377 . S
C3353 C3354 1.379 . S
C3354 H3338 0.931 . S
C3354 C3348 1.383 . S
C3354 C3353 1.379 . S
H3355 C3349 0.959 . S
H3356 C3349 0.961 . S
H3357 C3349 0.960 . S
H3358 C3350 0.930 . S
H3359 C3351 0.929 . S
H3360 C3368 0.929 . S
H3361 C3370 0.930 . S
H3362 C3372 0.930 . S
H3363 C3375 0.929 . S
H3364 C3378 0.930 . S
H3365 C3380 0.960 . S
H3366 C3380 0.960 . S
H3367 C3380 0.960 . S
C3368 H3360 0.929 . S
C3368 C3369 1.377 . S
C3368 C3370 1.384 . S
C3369 C3368 1.377 . S
C3369 C3375 1.390 . S
C3370 H3361 0.930 . S
C3370 C3368 1.384 . S
C3370 C3371 1.372 . S
C3371 C3370 1.372 . S
C3371 C3372 1.400 . S
C3371 C3376 1.490 . S
C3372 H3362 0.930 . S
C3372 C3371 1.400 . S
C3372 C3375 1.386 . S
H3373 C3389 0.930 . S
H3374 C3390 0.931 . S
C3375 H3363 0.929 . S
C3375 C3369 1.390 . S
C3375 C3372 1.386 . S
C3376 C3371 1.490 . S
C3376 C3378 1.395 . S
C3376 C3379 1.403 1_455 S
H3377 C3383 0.930 . S
C3378 H3364 0.930 . S
C3378 C3376 1.395 . S
C3378 C3381 1.403 . S
C3379 C3376 1.403 1_655 S
C3379 C3380 1.524 . S
C3379 C3383 1.400 . S
C3380 H3365 0.960 . S
C3380 H3366 0.960 . S
C3380 H3367 0.960 . S
C3380 C3379 1.524 . S
C3381 C3378 1.403 . S
C3381 C3382 1.392 1_455 S
C3381 C3385 1.495 . S
C3382 C3381 1.392 1_655 S
C3382 C3383 1.385 . S
C3382 C3384 1.478 . S
C3383 H3377 0.930 . S
C3383 C3379 1.400 . S
C3383 C3382 1.385 . S
C3384 C3382 1.478 . S
C3384 C3386 1.381 . S
C3384 C3390 1.383 . S
C3385 C3381 1.495 . S
C3385 H3391 0.959 . S
C3385 H3392 0.961 . S
C3385 H3393 0.960 . S
C3386 C3384 1.381 . S
C3386 C3387 1.394 . S
C3386 H3394 0.930 . S
C3387 C3386 1.394 . S
C3387 C3388 1.383 . S
C3387 H3395 0.929 . S
C3388 C3387 1.383 . S
C3388 C3389 1.377 . S
C3389 H3373 0.930 . S
C3389 C3388 1.377 . S
C3389 C3390 1.379 . S
C3390 H3374 0.931 . S
C3390 C3384 1.383 . S
C3390 C3389 1.379 . S
H3391 C3385 0.959 . S
H3392 C3385 0.961 . S
H3393 C3385 0.960 . S
H3394 C3386 0.930 . S
H3395 C3387 0.929 . S
H3396 C3404 0.929 . S
H3397 C3406 0.930 . S
H3398 C3408 0.930 . S
H3399 C3411 0.929 . S
H3400 C3414 0.930 . S
H3401 C3416 0.960 1_455 S
H3402 C3416 0.960 . S
H3403 C3416 0.960 . S
C3404 H3396 0.929 . S
C3404 C3405 1.377 . S
C3404 C3406 1.384 . S
C3405 C3404 1.377 . S
C3405 C3411 1.390 . S
C3406 H3397 0.930 . S
C3406 C3404 1.384 . S
C3406 C3407 1.372 . S
C3407 C3406 1.372 . S
C3407 C3408 1.400 . S
C3407 C3412 1.490 . S
C3408 H3398 0.930 . S
C3408 C3407 1.400 . S
C3408 C3411 1.386 . S
H3409 C3425 0.930 . S
H3410 C3426 0.931 . S
C3411 H3399 0.929 . S
C3411 C3405 1.390 . S
C3411 C3408 1.386 . S
C3412 C3407 1.490 . S
C3412 C3414 1.395 . S
C3412 C3415 1.403 . S
H3413 C3419 0.930 . S
C3414 H3400 0.930 . S
C3414 C3412 1.395 . S
C3414 C3417 1.408 1_655 S
C3415 C3412 1.403 . S
C3415 C3416 1.524 . S
C3415 C3419 1.400 1_655 S
C3416 H3401 0.960 1_655 S
C3416 H3402 0.960 . S
C3416 H3403 0.960 . S
C3416 C3415 1.524 . S
C3417 C3414 1.408 1_455 S
C3417 C3418 1.388 . S
C3417 C3421 1.495 . S
C3418 C3417 1.388 . S
C3418 C3419 1.385 . S
C3418 C3420 1.478 . S
C3419 H3413 0.930 . S
C3419 C3415 1.400 1_455 S
C3419 C3418 1.385 . S
C3420 C3418 1.478 . S
C3420 C3422 1.381 . S
C3420 C3426 1.383 . S
C3421 C3417 1.495 . S
C3421 H3427 0.930 1_455 S
C3421 H3428 0.991 . S
C3421 H3429 0.961 . S
C3422 C3420 1.381 . S
C3422 C3423 1.394 . S
C3422 H3430 0.930 . S
C3423 C3422 1.394 . S
C3423 C3424 1.383 . S
C3423 H3431 0.929 . S
C3424 C3423 1.383 . S
C3424 C3425 1.377 . S
C3425 H3409 0.930 . S
C3425 C3424 1.377 . S
C3425 C3426 1.379 . S
C3426 H3410 0.931 . S
C3426 C3420 1.383 . S
C3426 C3425 1.379 . S
H3427 C3421 0.930 1_655 S
H3428 C3421 0.991 . S
H3429 C3421 0.961 . S
H3430 C3422 0.930 . S
H3431 C3423 0.929 . S
H3432 C3440 0.929 . S
H3433 C3442 0.930 . S
H3434 C3444 0.930 . S
H3435 C3447 0.929 . S
H3436 C3450 0.930 . S
H3437 C3452 0.960 . S
H3438 C3452 0.960 . S
H3439 C3452 0.960 . S
C3440 H3432 0.929 . S
C3440 C3441 1.377 . S
C3440 C3442 1.384 . S
C3441 C3440 1.377 . S
C3441 C3447 1.390 . S
C3442 H3433 0.930 . S
C3442 C3440 1.384 . S
C3442 C3443 1.372 . S
C3443 C3442 1.372 . S
C3443 C3444 1.400 . S
C3443 C3448 1.490 . S
C3444 H3434 0.930 . S
C3444 C3443 1.400 . S
C3444 C3447 1.386 . S
H3445 C3461 0.930 . S
H3446 C3462 0.931 . S
C3447 H3435 0.929 . S
C3447 C3441 1.390 . S
C3447 C3444 1.386 . S
C3448 C3443 1.490 . S
C3448 C3450 1.395 . S
C3448 C3451 1.403 . S
H3449 C3455 0.930 . S
C3450 H3436 0.930 . S
C3450 C3448 1.395 . S
C3450 C3453 1.403 . S
C3451 C3448 1.403 . S
C3451 C3452 1.524 . S
C3451 C3455 1.400 . S
C3452 H3437 0.960 . S
C3452 H3438 0.960 . S
C3452 H3439 0.960 . S
C3452 C3451 1.524 . S
C3453 C3450 1.403 . S
C3453 C3454 1.392 . S
C3453 C3457 1.495 . S
C3454 C3453 1.392 . S
C3454 C3455 1.385 . S
C3454 C3456 1.478 . S
C3455 H3449 0.930 . S
C3455 C3451 1.400 . S
C3455 C3454 1.385 . S
C3456 C3454 1.478 . S
C3456 C3458 1.381 . S
C3456 C3462 1.383 . S
C3457 C3453 1.495 . S
C3457 H3463 0.959 . S
C3457 H3464 0.961 . S
C3457 H3465 0.960 . S
C3458 C3456 1.381 . S
C3458 C3459 1.394 . S
C3458 H3466 0.930 . S
C3459 C3458 1.394 . S
C3459 C3460 1.383 . S
C3459 H3467 0.929 . S
C3460 C3459 1.383 . S
C3460 C3461 1.377 . S
C3461 H3445 0.930 . S
C3461 C3460 1.377 . S
C3461 C3462 1.379 . S
C3462 H3446 0.931 . S
C3462 C3456 1.383 . S
C3462 C3461 1.379 . S
H3463 C3457 0.959 . S
H3464 C3457 0.961 . S
H3465 C3457 0.960 . S
H3466 C3458 0.930 . S
H3467 C3459 0.929 . S
H3468 C3476 0.929 . S
H3469 C3478 0.930 . S
H3470 C3480 0.930 . S
H3471 C3483 0.929 . S
H3472 C3486 0.930 . S
H3473 C3488 0.960 . S
H3474 C3488 0.960 . S
H3475 C3488 0.960 . S
C3476 H3468 0.929 . S
C3476 C3477 1.377 . S
C3476 C3478 1.384 . S
C3477 C3476 1.377 . S
C3477 C3483 1.390 . S
C3478 H3469 0.930 . S
C3478 C3476 1.384 . S
C3478 C3479 1.372 . S
C3479 C3478 1.372 . S
C3479 C3480 1.400 . S
C3479 C3484 1.490 . S
C3480 H3470 0.930 . S
C3480 C3479 1.400 . S
C3480 C3483 1.386 . S
H3481 C3497 0.930 . S
H3482 C3498 0.931 . S
C3483 H3471 0.929 . S
C3483 C3477 1.390 . S
C3483 C3480 1.386 . S
C3484 C3479 1.490 . S
C3484 C3486 1.395 . S
C3484 C3487 1.403 . S
H3485 C3491 0.930 . S
C3486 H3472 0.930 . S
C3486 C3484 1.395 . S
C3486 C3489 1.403 . S
C3487 C3484 1.403 . S
C3487 C3488 1.524 . S
C3487 C3491 1.400 . S
C3488 H3473 0.960 . S
C3488 H3474 0.960 . S
C3488 H3475 0.960 . S
C3488 C3487 1.524 . S
C3489 C3486 1.403 . S
C3489 C3490 1.392 . S
C3489 C3493 1.495 . S
C3490 C3489 1.392 . S
C3490 C3491 1.385 . S
C3490 C3492 1.478 . S
C3491 H3485 0.930 . S
C3491 C3487 1.400 . S
C3491 C3490 1.385 . S
C3492 C3490 1.478 . S
C3492 C3494 1.381 . S
C3492 C3498 1.383 . S
C3493 C3489 1.495 . S
C3493 H3499 0.959 . S
C3493 H3500 0.961 . S
C3493 H3501 0.960 . S
C3494 C3492 1.381 . S
C3494 C3495 1.394 . S
C3494 H3502 0.930 . S
C3495 C3494 1.394 . S
C3495 C3496 1.383 . S
C3495 H3503 0.929 . S
C3496 C3495 1.383 . S
C3496 C3497 1.377 . S
C3497 H3481 0.930 . S
C3497 C3496 1.377 . S
C3497 C3498 1.379 . S
C3498 H3482 0.931 . S
C3498 C3492 1.383 . S
C3498 C3497 1.379 . S
H3499 C3493 0.959 . S
H3500 C3493 0.961 . S
H3501 C3493 0.960 . S
H3502 C3494 0.930 . S
H3503 C3495 0.929 . S
H3504 C3512 0.929 . S
H3505 C3514 0.930 . S
H3506 C3516 0.930 . S
H3507 C3519 0.929 . S
H3508 C3522 0.930 . S
H3509 C3524 0.960 . S
H3510 C3524 0.960 . S
H3511 C3524 0.960 . S
C3512 H3504 0.929 . S
C3512 C3513 1.377 . S
C3512 C3514 1.384 . S
C3513 C3512 1.377 . S
C3513 C3519 1.390 . S
C3514 H3505 0.930 . S
C3514 C3512 1.384 . S
C3514 C3515 1.372 . S
C3515 C3514 1.372 . S
C3515 C3516 1.400 . S
C3515 C3520 1.490 . S
C3516 H3506 0.930 . S
C3516 C3515 1.400 . S
C3516 C3519 1.386 . S
H3517 C3533 0.930 . S
H3518 C3534 0.931 . S
C3519 H3507 0.929 . S
C3519 C3513 1.390 . S
C3519 C3516 1.386 . S
C3520 C3515 1.490 . S
C3520 C3522 1.395 1_655 S
C3520 C3523 1.403 . S
H3521 C3527 0.930 . S
C3522 H3508 0.930 . S
C3522 C3520 1.395 1_455 S
C3522 C3525 1.403 . S
C3523 C3520 1.403 . S
C3523 C3524 1.524 . S
C3523 C3527 1.400 . S
C3524 H3509 0.960 . S
C3524 H3510 0.960 . S
C3524 H3511 0.960 . S
C3524 C3523 1.524 . S
C3525 C3522 1.403 . S
C3525 C3526 1.392 . S
C3525 C3529 1.495 . S
C3526 C3525 1.392 . S
C3526 C3527 1.385 1_455 S
C3526 C3528 1.478 . S
C3527 H3521 0.930 . S
C3527 C3523 1.400 . S
C3527 C3526 1.385 1_655 S
C3528 C3526 1.478 . S
C3528 C3530 1.381 . S
C3528 C3534 1.383 . S
C3529 C3525 1.495 . S
C3529 H3535 0.959 . S
C3529 H3536 0.961 . S
C3529 H3537 0.960 . S
C3530 C3528 1.381 . S
C3530 C3531 1.394 . S
C3530 H3538 0.930 . S
C3531 C3530 1.394 . S
C3531 C3532 1.383 . S
C3531 H3539 0.929 . S
C3532 C3531 1.383 . S
C3532 C3533 1.377 . S
C3533 H3517 0.930 . S
C3533 C3532 1.377 . S
C3533 C3534 1.379 . S
C3534 H3518 0.931 . S
C3534 C3528 1.383 . S
C3534 C3533 1.379 . S
H3535 C3529 0.959 . S
H3536 C3529 0.961 . S
H3537 C3529 0.960 . S
H3538 C3530 0.930 . S
H3539 C3531 0.929 . S
H3540 C3548 0.929 . S
H3541 C3550 0.930 . S
H3542 C3552 0.930 . S
H3543 C3555 0.929 . S
H3544 C3558 0.930 . S
H3545 C3560 0.960 . S
H3546 C3560 0.960 . S
H3547 C3560 0.960 . S
C3548 H3540 0.929 . S
C3548 C3549 1.377 . S
C3548 C3550 1.384 . S
C3549 C3548 1.377 . S
C3549 C3555 1.390 . S
C3550 H3541 0.930 . S
C3550 C3548 1.384 . S
C3550 C3551 1.372 . S
C3551 C3550 1.372 . S
C3551 C3552 1.400 . S
C3551 C3556 1.490 . S
C3552 H3542 0.930 . S
C3552 C3551 1.400 . S
C3552 C3555 1.386 . S
H3553 C3569 0.930 . S
H3554 C3570 0.931 . S
C3555 H3543 0.929 . S
C3555 C3549 1.390 . S
C3555 C3552 1.386 . S
C3556 C3551 1.490 . S
C3556 C3558 1.395 . S
C3556 C3559 1.403 . S
H3557 C3563 0.930 . S
C3558 H3544 0.930 . S
C3558 C3556 1.395 . S
C3558 C3561 1.403 . S
C3559 C3556 1.403 . S
C3559 C3560 1.524 . S
C3559 C3563 1.400 . S
C3560 H3545 0.960 . S
C3560 H3546 0.960 . S
C3560 H3547 0.960 . S
C3560 C3559 1.524 . S
C3561 C3558 1.403 . S
C3561 C3562 1.392 . S
C3561 C3565 1.495 . S
C3562 C3561 1.392 . S
C3562 C3563 1.385 . S
C3562 C3564 1.478 . S
C3563 H3557 0.930 . S
C3563 C3559 1.400 . S
C3563 C3562 1.385 . S
C3564 C3562 1.478 . S
C3564 C3566 1.381 . S
C3564 C3570 1.383 . S
C3565 C3561 1.495 . S
C3565 H3571 0.959 . S
C3565 H3572 0.961 . S
C3565 H3573 0.960 . S
C3566 C3564 1.381 . S
C3566 C3567 1.394 . S
C3566 H3574 0.930 . S
C3567 C3566 1.394 . S
C3567 C3568 1.383 . S
C3567 H3575 0.929 . S
C3568 C3567 1.383 . S
C3568 C3569 1.377 . S
C3569 H3553 0.930 . S
C3569 C3568 1.377 . S
C3569 C3570 1.379 . S
C3570 H3554 0.931 . S
C3570 C3564 1.383 . S
C3570 C3569 1.379 . S
H3571 C3565 0.959 . S
H3572 C3565 0.961 . S
H3573 C3565 0.960 . S
H3574 C3566 0.930 . S
H3575 C3567 0.929 . S
H3576 C3584 0.929 . S
H3577 C3586 0.930 . S
H3578 C3588 0.930 . S
H3579 C3591 0.929 . S
H3580 C3594 0.930 . S
H3581 C3596 0.960 . S
H3582 C3596 0.960 . S
H3583 C3596 0.960 . S
C3584 H3576 0.929 . S
C3584 C3585 1.377 . S
C3584 C3586 1.384 . S
C3585 C3584 1.377 . S
C3585 C3591 1.390 . S
C3586 H3577 0.930 . S
C3586 C3584 1.384 . S
C3586 C3587 1.372 . S
C3587 C3586 1.372 . S
C3587 C3588 1.400 . S
C3587 C3592 1.490 . S
C3588 H3578 0.930 . S
C3588 C3587 1.400 . S
C3588 C3591 1.386 . S
H3589 C3605 0.930 . S
H3590 C3606 0.931 . S
C3591 H3579 0.929 . S
C3591 C3585 1.390 . S
C3591 C3588 1.386 . S
C3592 C3587 1.490 . S
C3592 C3594 1.395 . S
C3592 C3595 1.403 . S
H3593 C3599 0.930 . S
C3594 H3580 0.930 . S
C3594 C3592 1.395 . S
C3594 C3597 1.403 . S
C3595 C3592 1.403 . S
C3595 C3596 1.524 . S
C3595 C3599 1.400 . S
C3596 H3581 0.960 . S
C3596 H3582 0.960 . S
C3596 H3583 0.960 . S
C3596 C3595 1.524 . S
C3597 C3594 1.403 . S
C3597 C3598 1.392 . S
C3597 C3601 1.495 . S
C3598 C3597 1.392 . S
C3598 C3599 1.385 . S
C3598 C3600 1.478 . S
C3599 H3593 0.930 . S
C3599 C3595 1.400 . S
C3599 C3598 1.385 . S
C3600 C3598 1.478 . S
C3600 C3602 1.381 . S
C3600 C3606 1.383 . S
C3601 C3597 1.495 . S
C3601 H3607 0.959 . S
C3601 H3608 0.961 . S
C3601 H3609 0.960 . S
C3602 C3600 1.381 . S
C3602 C3603 1.394 . S
C3602 H3610 0.930 . S
C3603 C3602 1.394 . S
C3603 C3604 1.383 . S
C3603 H3611 0.929 . S
C3604 C3603 1.383 . S
C3604 C3605 1.377 . S
C3605 H3589 0.930 . S
C3605 C3604 1.377 . S
C3605 C3606 1.379 . S
C3606 H3590 0.931 . S
C3606 C3600 1.383 . S
C3606 C3605 1.379 . S
H3607 C3601 0.959 . S
H3608 C3601 0.961 . S
H3609 C3601 0.960 . S
H3610 C3602 0.930 . S
H3611 C3603 0.929 . S
H3612 C3620 0.929 . S
H3613 C3622 0.930 . S
H3614 C3624 0.930 . S
H3615 C3627 0.929 . S
H3616 C3630 0.930 . S
H3617 C3632 0.960 . S
H3618 C3632 0.960 . S
H3619 C3632 0.960 . S
C3620 H3612 0.929 . S
C3620 C3621 1.377 . S
C3620 C3622 1.384 . S
C3621 C3620 1.377 . S
C3621 C3627 1.390 . S
C3622 H3613 0.930 . S
C3622 C3620 1.384 . S
C3622 C3623 1.372 . S
C3623 C3622 1.372 . S
C3623 C3624 1.400 . S
C3623 C3628 1.490 . S
C3624 H3614 0.930 . S
C3624 C3623 1.400 . S
C3624 C3627 1.386 . S
H3625 C3641 0.930 . S
H3626 C3642 0.931 . S
C3627 H3615 0.929 . S
C3627 C3621 1.390 . S
C3627 C3624 1.386 . S
C3628 C3623 1.490 . S
C3628 C3630 1.395 . S
C3628 C3631 1.403 1_455 S
H3629 C3635 0.930 . S
C3630 H3616 0.930 . S
C3630 C3628 1.395 . S
C3630 C3633 1.403 . S
C3631 C3628 1.403 1_655 S
C3631 C3632 1.524 . S
C3631 C3635 1.400 . S
C3632 H3617 0.960 . S
C3632 H3618 0.960 . S
C3632 H3619 0.960 . S
C3632 C3631 1.524 . S
C3633 C3630 1.403 . S
C3633 C3634 1.392 1_455 S
C3633 C3637 1.495 . S
C3634 C3633 1.392 1_655 S
C3634 C3635 1.385 . S
C3634 C3636 1.478 . S
C3635 H3629 0.930 . S
C3635 C3631 1.400 . S
C3635 C3634 1.385 . S
C3636 C3634 1.478 . S
C3636 C3638 1.381 . S
C3636 C3642 1.383 . S
C3637 C3633 1.495 . S
C3637 H3643 0.959 . S
C3637 H3644 0.961 . S
C3637 H3645 0.960 . S
C3638 C3636 1.381 . S
C3638 C3639 1.394 . S
C3638 H3646 0.930 . S
C3639 C3638 1.394 . S
C3639 C3640 1.383 . S
C3639 H3647 0.929 . S
C3640 C3639 1.383 . S
C3640 C3641 1.377 . S
C3641 H3625 0.930 . S
C3641 C3640 1.377 . S
C3641 C3642 1.379 . S
C3642 H3626 0.931 . S
C3642 C3636 1.383 . S
C3642 C3641 1.379 . S
H3643 C3637 0.959 . S
H3644 C3637 0.961 . S
H3645 C3637 0.960 . S
H3646 C3638 0.930 . S
H3647 C3639 0.929 . S
H3648 C3656 0.929 . S
H3649 C3658 0.930 . S
H3650 C3660 0.930 . S
H3651 C3663 0.929 . S
H3652 C3666 0.930 . S
H3653 C3668 0.960 . S
H3654 C3668 0.960 . S
H3655 C3668 0.960 . S
C3656 H3648 0.929 . S
C3656 C3657 1.377 . S
C3656 C3658 1.384 . S
C3657 C3656 1.377 . S
C3657 C3663 1.390 . S
C3658 H3649 0.930 . S
C3658 C3656 1.384 . S
C3658 C3659 1.372 . S
C3659 C3658 1.372 . S
C3659 C3660 1.400 . S
C3659 C3664 1.490 . S
C3660 H3650 0.930 . S
C3660 C3659 1.400 . S
C3660 C3663 1.386 . S
H3661 C3677 0.930 . S
H3662 C3678 0.931 . S
C3663 H3651 0.929 . S
C3663 C3657 1.390 . S
C3663 C3660 1.386 . S
C3664 C3659 1.490 . S
C3664 C3666 1.395 . S
C3664 C3667 1.403 1_655 S
H3665 C3671 0.930 . S
C3666 H3652 0.930 . S
C3666 C3664 1.395 . S
C3666 C3669 1.403 . S
C3667 C3664 1.403 1_455 S
C3667 C3668 1.524 . S
C3667 C3671 1.400 . S
C3668 H3653 0.960 . S
C3668 H3654 0.960 . S
C3668 H3655 0.960 . S
C3668 C3667 1.524 . S
C3669 C3666 1.403 . S
C3669 C3670 1.392 1_655 S
C3669 C3673 1.495 . S
C3670 C3669 1.392 1_455 S
C3670 C3671 1.385 . S
C3670 C3672 1.478 . S
C3671 H3665 0.930 . S
C3671 C3667 1.400 . S
C3671 C3670 1.385 . S
C3672 C3670 1.478 . S
C3672 C3674 1.381 . S
C3672 C3678 1.383 . S
C3673 C3669 1.495 . S
C3673 H3679 0.959 . S
C3673 H3680 0.961 . S
C3673 H3681 0.960 . S
C3674 C3672 1.381 . S
C3674 C3675 1.394 . S
C3674 H3682 0.930 . S
C3675 C3674 1.394 . S
C3675 C3676 1.383 . S
C3675 H3683 0.929 . S
C3676 C3675 1.383 . S
C3676 C3677 1.377 . S
C3677 H3661 0.930 . S
C3677 C3676 1.377 . S
C3677 C3678 1.379 . S
C3678 H3662 0.931 . S
C3678 C3672 1.383 . S
C3678 C3677 1.379 . S
H3679 C3673 0.959 . S
H3680 C3673 0.961 . S
H3681 C3673 0.960 . S
H3682 C3674 0.930 . S
H3683 C3675 0.929 . S
H3684 C3692 0.929 . S
H3685 C3694 0.930 . S
H3686 C3696 0.930 . S
H3687 C3699 0.929 . S
H3688 C3702 0.930 . S
H3689 C3704 0.960 . S
H3690 C3704 0.960 . S
H3691 C3704 0.960 . S
C3692 H3684 0.929 . S
C3692 C3693 1.377 . S
C3692 C3694 1.384 . S
C3693 C3692 1.377 . S
C3693 C3699 1.390 . S
C3694 H3685 0.930 . S
C3694 C3692 1.384 . S
C3694 C3695 1.372 . S
C3695 C3694 1.372 . S
C3695 C3696 1.400 . S
C3695 C3700 1.490 . S
C3696 H3686 0.930 . S
C3696 C3695 1.400 . S
C3696 C3699 1.386 . S
H3697 C3713 0.930 . S
H3698 C3714 0.931 . S
C3699 H3687 0.929 . S
C3699 C3693 1.390 . S
C3699 C3696 1.386 . S
C3700 C3695 1.490 . S
C3700 C3702 1.395 . S
C3700 C3703 1.403 1_455 S
H3701 C3707 0.930 . S
C3702 H3688 0.930 . S
C3702 C3700 1.395 . S
C3702 C3705 1.403 . S
C3703 C3700 1.403 1_655 S
C3703 C3704 1.524 . S
C3703 C3707 1.400 . S
C3704 H3689 0.960 . S
C3704 H3690 0.960 . S
C3704 H3691 0.960 . S
C3704 C3703 1.524 . S
C3705 C3702 1.403 . S
C3705 C3706 1.392 1_455 S
C3705 C3709 1.495 . S
C3706 C3705 1.392 1_655 S
C3706 C3707 1.385 . S
C3706 C3708 1.478 . S
C3707 H3701 0.930 . S
C3707 C3703 1.400 . S
C3707 C3706 1.385 . S
C3708 C3706 1.478 . S
C3708 C3710 1.381 . S
C3708 C3714 1.383 . S
C3709 C3705 1.495 . S
C3709 H3715 0.959 . S
C3709 H3716 0.961 . S
C3709 H3717 0.960 . S
C3710 C3708 1.381 . S
C3710 C3711 1.394 . S
C3710 H3718 0.930 . S
C3711 C3710 1.394 . S
C3711 C3712 1.383 . S
C3711 H3719 0.929 . S
C3712 C3711 1.383 . S
C3712 C3713 1.377 . S
C3713 H3697 0.930 . S
C3713 C3712 1.377 . S
C3713 C3714 1.379 . S
C3714 H3698 0.931 . S
C3714 C3708 1.383 . S
C3714 C3713 1.379 . S
H3715 C3709 0.959 . S
H3716 C3709 0.961 . S
H3717 C3709 0.960 . S
H3718 C3710 0.930 . S
H3719 C3711 0.929 . S
H3720 C3728 0.929 . S
H3721 C3730 0.930 . S
H3722 C3732 0.930 . S
H3723 C3735 0.929 . S
H3724 C3738 0.930 . S
H3725 C3740 0.960 . S
H3726 C3740 0.960 . S
H3727 C3740 0.960 . S
C3728 H3720 0.929 . S
C3728 C3729 1.377 . S
C3728 C3730 1.384 . S
C3729 C3728 1.377 . S
C3729 C3735 1.390 . S
C3730 H3721 0.930 . S
C3730 C3728 1.384 . S
C3730 C3731 1.372 . S
C3731 C3730 1.372 . S
C3731 C3732 1.400 . S
C3731 C3736 1.490 . S
C3732 H3722 0.930 . S
C3732 C3731 1.400 . S
C3732 C3735 1.386 . S
H3733 C3749 0.930 . S
H3734 C3750 0.931 . S
C3735 H3723 0.929 . S
C3735 C3729 1.390 . S
C3735 C3732 1.386 . S
C3736 C3731 1.490 . S
C3736 C3738 1.395 . S
C3736 C3739 1.403 . S
H3737 C3743 0.930 . S
C3738 H3724 0.930 . S
C3738 C3736 1.395 . S
C3738 C3741 1.403 . S
C3739 C3736 1.403 . S
C3739 C3740 1.524 . S
C3739 C3743 1.400 . S
C3740 H3725 0.960 . S
C3740 H3726 0.960 . S
C3740 H3727 0.960 . S
C3740 C3739 1.524 . S
C3741 C3738 1.403 . S
C3741 C3742 1.392 . S
C3741 C3745 1.495 . S
C3742 C3741 1.392 . S
C3742 C3743 1.385 . S
C3742 C3744 1.478 . S
C3743 H3737 0.930 . S
C3743 C3739 1.400 . S
C3743 C3742 1.385 . S
C3744 C3742 1.478 . S
C3744 C3746 1.381 . S
C3744 C3750 1.383 . S
C3745 C3741 1.495 . S
C3745 H3751 0.959 . S
C3745 H3752 0.961 . S
C3745 H3753 0.960 . S
C3746 C3744 1.381 . S
C3746 C3747 1.394 . S
C3746 H3754 0.930 . S
C3747 C3746 1.394 . S
C3747 C3748 1.383 . S
C3747 H3755 0.929 . S
C3748 C3747 1.383 . S
C3748 C3749 1.377 . S
C3749 H3733 0.930 . S
C3749 C3748 1.377 . S
C3749 C3750 1.379 . S
C3750 H3734 0.931 . S
C3750 C3744 1.383 . S
C3750 C3749 1.379 . S
H3751 C3745 0.959 . S
H3752 C3745 0.961 . S
H3753 C3745 0.960 . S
H3754 C3746 0.930 . S
H3755 C3747 0.929 . S
H3756 C3764 0.929 . S
H3757 C3766 0.930 . S
H3758 C3768 0.930 . S
H3759 C3771 0.929 . S
H3760 C3774 0.930 . S
H3761 C3776 0.960 . S
H3762 C3776 0.960 . S
H3763 C3776 0.960 . S
C3764 H3756 0.929 . S
C3764 C3765 1.377 . S
C3764 C3766 1.384 . S
C3765 C3764 1.377 . S
C3765 C3771 1.390 . S
C3766 H3757 0.930 . S
C3766 C3764 1.384 . S
C3766 C3767 1.372 . S
C3767 C3766 1.372 . S
C3767 C3768 1.400 . S
C3767 C3772 1.490 . S
C3768 H3758 0.930 . S
C3768 C3767 1.400 . S
C3768 C3771 1.386 . S
H3769 C3785 0.930 . S
H3770 C3786 0.931 . S
C3771 H3759 0.929 . S
C3771 C3765 1.390 . S
C3771 C3768 1.386 . S
C3772 C3767 1.490 . S
C3772 C3774 1.395 . S
C3772 C3775 1.403 . S
H3773 C3779 0.930 . S
C3774 H3760 0.930 . S
C3774 C3772 1.395 . S
C3774 C3777 1.403 . S
C3775 C3772 1.403 . S
C3775 C3776 1.524 . S
C3775 C3779 1.400 . S
C3776 H3761 0.960 . S
C3776 H3762 0.960 . S
C3776 H3763 0.960 . S
C3776 C3775 1.524 . S
C3777 C3774 1.403 . S
C3777 C3778 1.392 . S
C3777 C3781 1.495 . S
C3778 C3777 1.392 . S
C3778 C3779 1.385 . S
C3778 C3780 1.478 . S
C3779 H3773 0.930 . S
C3779 C3775 1.400 . S
C3779 C3778 1.385 . S
C3780 C3778 1.478 . S
C3780 C3782 1.381 . S
C3780 C3786 1.383 . S
C3781 C3777 1.495 . S
C3781 H3787 0.959 . S
C3781 H3788 0.961 . S
C3781 H3789 0.960 . S
C3782 C3780 1.381 . S
C3782 C3783 1.394 . S
C3782 H3790 0.930 . S
C3783 C3782 1.394 . S
C3783 C3784 1.383 . S
C3783 H3791 0.929 . S
C3784 C3783 1.383 . S
C3784 C3785 1.377 . S
C3785 H3769 0.930 . S
C3785 C3784 1.377 . S
C3785 C3786 1.379 . S
C3786 H3770 0.931 . S
C3786 C3780 1.383 . S
C3786 C3785 1.379 . S
H3787 C3781 0.959 . S
H3788 C3781 0.961 . S
H3789 C3781 0.960 . S
H3790 C3782 0.930 . S
H3791 C3783 0.929 . S
H3792 C3800 0.929 . S
H3793 C3802 0.930 . S
H3794 C3804 0.930 . S
H3795 C3807 0.929 . S
H3796 C3810 0.930 . S
H3797 C3812 0.960 . S
H3798 C3812 0.960 . S
H3799 C3812 0.960 . S
C3800 H3792 0.929 . S
C3800 C3801 1.377 . S
C3800 C3802 1.384 . S
C3801 C3800 1.377 . S
C3801 C3807 1.390 . S
C3802 H3793 0.930 . S
C3802 C3800 1.384 . S
C3802 C3803 1.372 . S
C3803 C3802 1.372 . S
C3803 C3804 1.400 . S
C3803 C3808 1.490 . S
C3804 H3794 0.930 . S
C3804 C3803 1.400 . S
C3804 C3807 1.386 . S
H3805 C3821 0.930 . S
H3806 C3822 0.931 . S
C3807 H3795 0.929 . S
C3807 C3801 1.390 . S
C3807 C3804 1.386 . S
C3808 C3803 1.490 . S
C3808 C3810 1.395 1_655 S
C3808 C3811 1.403 . S
H3809 C3815 0.930 . S
C3810 H3796 0.930 . S
C3810 C3808 1.395 1_455 S
C3810 C3813 1.403 . S
C3811 C3808 1.403 . S
C3811 C3812 1.524 . S
C3811 C3815 1.400 . S
C3812 H3797 0.960 . S
C3812 H3798 0.960 . S
C3812 H3799 0.960 . S
C3812 C3811 1.524 . S
C3813 C3810 1.403 . S
C3813 C3814 1.392 . S
C3813 C3817 1.495 . S
C3814 C3813 1.392 . S
C3814 C3815 1.385 1_455 S
C3814 C3816 1.478 . S
C3815 H3809 0.930 . S
C3815 C3811 1.400 . S
C3815 C3814 1.385 1_655 S
C3816 C3814 1.478 . S
C3816 C3818 1.381 . S
C3816 C3822 1.383 . S
C3817 C3813 1.495 . S
C3817 H3823 0.959 . S
C3817 H3824 0.961 . S
C3817 H3825 0.960 . S
C3818 C3816 1.381 . S
C3818 C3819 1.394 . S
C3818 H3826 0.930 . S
C3819 C3818 1.394 . S
C3819 C3820 1.383 . S
C3819 H3827 0.929 . S
C3820 C3819 1.383 . S
C3820 C3821 1.377 . S
C3821 H3805 0.930 . S
C3821 C3820 1.377 . S
C3821 C3822 1.379 . S
C3822 H3806 0.931 . S
C3822 C3816 1.383 . S
C3822 C3821 1.379 . S
H3823 C3817 0.959 . S
H3824 C3817 0.961 . S
H3825 C3817 0.960 . S
H3826 C3818 0.930 . S
H3827 C3819 0.929 . S
H3828 C3836 0.929 . S
H3829 C3838 0.930 . S
H3830 C3840 0.930 . S
H3831 C3843 0.929 . S
H3832 C3846 0.930 . S
H3833 C3848 0.960 . S
H3834 C3848 0.960 . S
H3835 C3848 0.960 . S
C3836 H3828 0.929 . S
C3836 C3837 1.377 . S
C3836 C3838 1.384 . S
C3837 C3836 1.377 . S
C3837 C3843 1.390 . S
C3838 H3829 0.930 . S
C3838 C3836 1.384 . S
C3838 C3839 1.372 . S
C3839 C3838 1.372 . S
C3839 C3840 1.400 . S
C3839 C3844 1.490 . S
C3840 H3830 0.930 . S
C3840 C3839 1.400 . S
C3840 C3843 1.386 . S
H3841 C3857 0.930 . S
H3842 C3858 0.931 . S
C3843 H3831 0.929 . S
C3843 C3837 1.390 . S
C3843 C3840 1.386 . S
C3844 C3839 1.490 . S
C3844 C3846 1.395 . S
C3844 C3847 1.403 . S
H3845 C3851 0.930 . S
C3846 H3832 0.930 . S
C3846 C3844 1.395 . S
C3846 C3849 1.403 . S
C3847 C3844 1.403 . S
C3847 C3848 1.524 . S
C3847 C3851 1.400 . S
C3848 H3833 0.960 . S
C3848 H3834 0.960 . S
C3848 H3835 0.960 . S
C3848 C3847 1.524 . S
C3849 C3846 1.403 . S
C3849 C3850 1.392 . S
C3849 C3853 1.495 . S
C3850 C3849 1.392 . S
C3850 C3851 1.385 . S
C3850 C3852 1.478 . S
C3851 H3845 0.930 . S
C3851 C3847 1.400 . S
C3851 C3850 1.385 . S
C3852 C3850 1.478 . S
C3852 C3854 1.381 . S
C3852 C3858 1.383 . S
C3853 C3849 1.495 . S
C3853 H3859 0.959 . S
C3853 H3860 0.961 . S
C3853 H3861 0.960 . S
C3854 C3852 1.381 . S
C3854 C3855 1.394 . S
C3854 H3862 0.930 . S
C3855 C3854 1.394 . S
C3855 C3856 1.383 . S
C3855 H3863 0.929 . S
C3856 C3855 1.383 . S
C3856 C3857 1.377 . S
C3857 H3841 0.930 . S
C3857 C3856 1.377 . S
C3857 C3858 1.379 . S
C3858 H3842 0.931 . S
C3858 C3852 1.383 . S
C3858 C3857 1.379 . S
H3859 C3853 0.959 . S
H3860 C3853 0.961 . S
H3861 C3853 0.960 . S
H3862 C3854 0.930 . S
H3863 C3855 0.929 . S
H3864 C3872 0.929 . S
H3865 C3874 0.930 . S
H3866 C3876 0.930 . S
H3867 C3879 0.929 . S
H3868 C3882 0.930 . S
H3869 C3884 0.960 . S
H3870 C3884 0.960 . S
H3871 C3884 0.960 . S
C3872 H3864 0.929 . S
C3872 C3873 1.377 . S
C3872 C3874 1.384 . S
C3873 C3872 1.377 . S
C3873 C3879 1.390 . S
C3874 H3865 0.930 . S
C3874 C3872 1.384 . S
C3874 C3875 1.372 . S
C3875 C3874 1.372 . S
C3875 C3876 1.400 . S
C3875 C3880 1.490 . S
C3876 H3866 0.930 . S
C3876 C3875 1.400 . S
C3876 C3879 1.386 . S
H3877 C3893 0.930 . S
H3878 C3894 0.931 . S
C3879 H3867 0.929 . S
C3879 C3873 1.390 . S
C3879 C3876 1.386 . S
C3880 C3875 1.490 . S
C3880 C3882 1.395 . S
C3880 C3883 1.403 . S
H3881 C3887 0.930 . S
C3882 H3868 0.930 . S
C3882 C3880 1.395 . S
C3882 C3885 1.403 . S
C3883 C3880 1.403 . S
C3883 C3884 1.524 . S
C3883 C3887 1.400 . S
C3884 H3869 0.960 . S
C3884 H3870 0.960 . S
C3884 H3871 0.960 . S
C3884 C3883 1.524 . S
C3885 C3882 1.403 . S
C3885 C3886 1.392 . S
C3885 C3889 1.495 . S
C3886 C3885 1.392 . S
C3886 C3887 1.385 . S
C3886 C3888 1.478 . S
C3887 H3881 0.930 . S
C3887 C3883 1.400 . S
C3887 C3886 1.385 . S
C3888 C3886 1.478 . S
C3888 C3890 1.381 . S
C3888 C3894 1.383 . S
C3889 C3885 1.495 . S
C3889 H3895 0.959 . S
C3889 H3896 0.961 . S
C3889 H3897 0.960 . S
C3890 C3888 1.381 . S
C3890 C3891 1.394 . S
C3890 H3898 0.930 . S
C3891 C3890 1.394 . S
C3891 C3892 1.383 . S
C3891 H3899 0.929 . S
C3892 C3891 1.383 . S
C3892 C3893 1.377 . S
C3893 H3877 0.930 . S
C3893 C3892 1.377 . S
C3893 C3894 1.379 . S
C3894 H3878 0.931 . S
C3894 C3888 1.383 . S
C3894 C3893 1.379 . S
H3895 C3889 0.959 . S
H3896 C3889 0.961 . S
H3897 C3889 0.960 . S
H3898 C3890 0.930 . S
H3899 C3891 0.929 . S
H3900 C3908 0.929 . S
H3901 C3910 0.930 . S
H3902 C3912 0.930 . S
H3903 C3915 0.929 . S
H3904 C3918 0.930 . S
H3905 C3920 0.960 . S
H3906 C3920 0.960 . S
H3907 C3920 0.960 . S
C3908 H3900 0.929 . S
C3908 C3909 1.377 . S
C3908 C3910 1.384 . S
C3909 C3908 1.377 . S
C3909 C3915 1.390 . S
C3910 H3901 0.930 . S
C3910 C3908 1.384 . S
C3910 C3911 1.372 . S
C3911 C3910 1.372 . S
C3911 C3912 1.400 . S
C3911 C3916 1.490 . S
C3912 H3902 0.930 . S
C3912 C3911 1.400 . S
C3912 C3915 1.386 . S
H3913 C3929 0.930 . S
H3914 C3930 0.931 . S
C3915 H3903 0.929 . S
C3915 C3909 1.390 . S
C3915 C3912 1.386 . S
C3916 C3911 1.490 . S
C3916 C3918 1.395 . S
C3916 C3919 1.403 . S
H3917 C3923 0.930 . S
C3918 H3904 0.930 . S
C3918 C3916 1.395 . S
C3918 C3921 1.403 1_655 S
C3919 C3916 1.403 . S
C3919 C3920 1.524 . S
C3919 C3923 1.400 1_655 S
C3920 H3905 0.960 . S
C3920 H3906 0.960 . S
C3920 H3907 0.960 . S
C3920 C3919 1.524 . S
C3921 C3918 1.403 1_455 S
C3921 C3922 1.392 . S
C3921 C3925 1.495 . S
C3922 C3921 1.392 . S
C3922 C3923 1.385 . S
C3922 C3924 1.478 . S
C3923 H3917 0.930 . S
C3923 C3919 1.400 1_455 S
C3923 C3922 1.385 . S
C3924 C3922 1.478 . S
C3924 C3926 1.381 . S
C3924 C3930 1.383 . S
C3925 C3921 1.495 . S
C3925 H3931 0.959 . S
C3925 H3932 0.961 . S
C3925 H3933 0.960 . S
C3926 C3924 1.381 . S
C3926 C3927 1.394 . S
C3926 H3934 0.930 . S
C3927 C3926 1.394 . S
C3927 C3928 1.383 . S
C3927 H3935 0.929 . S
C3928 C3927 1.383 . S
C3928 C3929 1.377 . S
C3929 H3913 0.930 . S
C3929 C3928 1.377 . S
C3929 C3930 1.379 . S
C3930 H3914 0.931 . S
C3930 C3924 1.383 . S
C3930 C3929 1.379 . S
H3931 C3925 0.959 . S
H3932 C3925 0.961 . S
H3933 C3925 0.960 . S
H3934 C3926 0.930 . S
H3935 C3927 0.929 . S
C1065 C912 0.337 . S
C1084 C7 0.337 . S
C1101 C285 0.307 . S
C1120 C40 0.491 . S
C1137 C846 0.345 . S
C1156 C73 0.337 . S
C1173 C106 0.411 . S
C1192 C351 0.354 . S
C1209 C978 0.339 . S
C1228 C139 0.473 . S
C1245 C483 0.319 . S
C1264 C172 0.401 . S
C1281 C205 0.441 . S
C1300 C1044 0.363 . S
C1317 C238 0.448 . S
C1336 C417 0.276 . S
C1353 C648 0.342 . S
C1372 C271 0.343 . S
C1389 C21 0.348 . S
C1408 C304 0.440 . S
C1425 C337 0.413 . S
C1444 C582 0.419 . S
C1461 C370 0.408 . S
C1480 C87 0.359 . S
C1497 C403 0.413 . S
C1516 C714 0.419 . S
C1533 C436 0.445 . S
C1552 C219 0.370 . S
C1569 C780 0.333 . S
C1588 C469 0.517 . S
C1605 C153 0.323 . S
C1624 C502 0.351 . S
C1641 C384 0.348 . S
C1660 C535 0.355 . S
C1677 C568 0.448 . S
C1696 C813 0.277 . S
C1713 C318 0.349 . S
C1732 C601 0.376 . S
C1749 C634 0.410 . S
C1768 C879 0.359 . S
C1785 C450 0.322 . S
C1804 C667 0.522 . S
C1821 C1011 0.309 . S
C1840 C700 0.464 . S
C1857 C516 0.310 . S
C1876 C733 0.459 . S
C1893 C766 0.437 . S
C1912 C945 0.380 . S
C1929 C799 0.445 . S
C1948 C120 0.367 . S
C1965 C549 0.347 . S
C1984 C832 0.377 . S
C2001 C54 0.315 . S
C2020 C865 0.388 . S
C2037 C898 0.408 . S
C2056 C615 0.351 . S
C2073 C931 0.444 . S
C2092 C186 0.375 . S
C2109 C964 0.408 . S
C2128 C747 0.343 . S
C2145 C252 0.319 . S
C2164 C997 0.366 . S
C2181 C1030 0.412 . S
C2200 C681 0.311 . S
C2217 N13 1.579 . S
C2236 N178 1.559 . S
C2253 N211 1.573 . S
C2272 N46 1.546 . S
C2289 N244 1.578 . S
C2308 N79 1.566 . S
C2325 N112 1.575 . S
C2344 N145 1.543 . S
C2361 N277 1.579 . S
C2380 N442 1.599 . S
C2397 N310 1.571 . S
C2416 N475 1.562 . S
C2433 N343 1.574 . S
C2452 N508 1.578 . S
C2469 N376 1.567 . S
C2488 N409 1.540 . S
C2505 N706 1.574 . S
C2524 N541 1.544 . S
C2541 N574 1.570 . S
C2560 N739 1.561 . S
C2577 N607 1.576 . S
C2596 N772 1.577 . S
C2613 N673 1.572 . S
C2632 N640 1.596 . S
C2649 N970 1.568 . S
C2668 N805 1.544 . S
C2685 N1003 1.571 . S
C2704 N838 1.555 . S
C2721 N1036 1.567 . S
C2740 N871 1.541 . S
C2757 N937 1.574 . S
C2776 N904 1.569 . S
C2793 C18 1.107 . S
C2812 C150 1.121 . S
C2829 C51 1.107 . S
C2848 C183 1.122 . S
C2865 C216 1.106 . S
C2884 C84 1.122 . S
C2901 C249 1.105 . S
C2920 C117 1.116 . S
C2937 C282 1.104 . S
C2956 C414 1.079 . S
C2973 C447 1.105 . S
C2992 C315 1.078 . S
C3009 C348 1.106 . S
C3028 C480 1.078 . S
C3045 C513 1.106 . S
C3064 C381 1.078 . S
C3081 C546 1.106 . S
C3100 C678 1.115 . S
C3117 C579 1.098 . S
C3136 C711 1.081 . S
C3153 C612 1.104 . S
C3172 C744 1.103 . S
C3189 C645 1.098 . S
C3208 C777 1.080 . S
C3225 C942 1.106 . S
C3244 C810 1.096 . S
C3261 C843 1.104 . S
C3280 C975 1.080 . S
C3297 C876 1.107 . S
C3316 C1008 1.082 . S
C3333 C909 1.107 . S
C3352 C1041 1.081 . S
C3369 N2 1.049 . S
C3388 N596 1.034 . S
C3405 N629 1.049 . S
C3424 N35 1.058 . S
C3441 N68 1.055 . S
C3460 N530 1.053 . S
C3477 N101 1.051 . S
C3496 N563 1.065 . S
C3513 N728 1.052 . S
C3532 N134 1.066 . S
C3549 N761 1.048 . S
C3568 N167 1.041 . S
C3585 N200 1.053 . S
C3604 N662 1.040 . S
C3621 N233 1.053 . S
C3640 N695 1.066 . S
C3657 N266 1.048 . S
C3676 N860 1.035 . S
C3693 N893 1.053 . S
C3712 N299 1.066 . S
C3729 N794 1.054 . S
C3748 N332 1.065 . S
C3765 N365 1.055 . S
C3784 N827 1.063 . S
C3801 N398 1.054 . S
C3820 N992 1.065 . S
C3837 N431 1.051 . S
C3856 N1025 1.061 . S
C3873 N464 1.051 . S
C3892 N926 1.035 . S
C3909 N497 1.048 . S
C3928 N959 1.037 . S
