# Generated by pormake.
# Topology uow, (4)-cn, num edge types: 1
# Building blocks:
#     Node 0, Type 0, BuildingBlock: QUQFOY_clean_sbu_1, # of connection points: 4
#     Node 1, Type 0, BuildingBlock: QUQFOY_clean_sbu_1, # of connection points: 4
#     Node 2, Type 0, BuildingBlock: QUQFOY_clean_sbu_1, # of connection points: 4
#     Node 3, Type 0, BuildingBlock: QUQFOY_clean_sbu_1, # of connection points: 4
#     Node 4, Type 0, BuildingBlock: QUQFOY_clean_sbu_1, # of connection points: 4
#     Node 5, Type 0, BuildingBlock: QUQFOY_clean_sbu_1, # of connection points: 4
#     Node 6, Type 0, BuildingBlock: QUQFOY_clean_sbu_1, # of connection points: 4
#     Node 7, Type 0, BuildingBlock: QUQFOY_clean_sbu_1, # of connection points: 4
#     Node 8, Type 0, BuildingBlock: QUQFOY_clean_sbu_1, # of connection points: 4
#     Node 9, Type 0, BuildingBlock: QUQFOY_clean_sbu_1, # of connection points: 4
#     Node 10, Type 0, BuildingBlock: QUQFOY_clean_sbu_1, # of connection points: 4
#     Node 11, Type 0, BuildingBlock: QUQFOY_clean_sbu_1, # of connection points: 4
#     Node 12, Type 0, BuildingBlock: QUQFOY_clean_sbu_1, # of connection points: 4
#     Node 13, Type 0, BuildingBlock: QUQFOY_clean_sbu_1, # of connection points: 4
#     Node 14, Type 0, BuildingBlock: QUQFOY_clean_sbu_1, # of connection points: 4
#     Node 15, Type 0, BuildingBlock: QUQFOY_clean_sbu_1, # of connection points: 4
#     Node 16, Type 0, BuildingBlock: QUQFOY_clean_sbu_1, # of connection points: 4
#     Node 17, Type 0, BuildingBlock: QUQFOY_clean_sbu_1, # of connection points: 4
#     Node 18, Type 0, BuildingBlock: QUQFOY_clean_sbu_1, # of connection points: 4
#     Node 19, Type 0, BuildingBlock: QUQFOY_clean_sbu_1, # of connection points: 4
#     Node 20, Type 0, BuildingBlock: QUQFOY_clean_sbu_1, # of connection points: 4
#     Node 21, Type 0, BuildingBlock: QUQFOY_clean_sbu_1, # of connection points: 4
#     Node 22, Type 0, BuildingBlock: QUQFOY_clean_sbu_1, # of connection points: 4
#     Node 23, Type 0, BuildingBlock: QUQFOY_clean_sbu_1, # of connection points: 4
#     Node 24, Type 0, BuildingBlock: QUQFOY_clean_sbu_1, # of connection points: 4
#     Node 25, Type 0, BuildingBlock: QUQFOY_clean_sbu_1, # of connection points: 4
#     Node 26, Type 0, BuildingBlock: QUQFOY_clean_sbu_1, # of connection points: 4
#     Node 27, Type 0, BuildingBlock: QUQFOY_clean_sbu_1, # of connection points: 4
#     Node 28, Type 0, BuildingBlock: QUQFOY_clean_sbu_1, # of connection points: 4
#     Node 29, Type 0, BuildingBlock: QUQFOY_clean_sbu_1, # of connection points: 4
#     Node 30, Type 0, BuildingBlock: QUQFOY_clean_sbu_1, # of connection points: 4
#     Node 31, Type 0, BuildingBlock: QUQFOY_clean_sbu_1, # of connection points: 4
#     Edge 32, Type (0, 0), BuildingBlock: KIFKEQ_clean_linker_1, # of connection points: 2
#     Edge 33, Type (0, 0), BuildingBlock: KIFKEQ_clean_linker_1, # of connection points: 2
#     Edge 34, Type (0, 0), BuildingBlock: KIFKEQ_clean_linker_1, # of connection points: 2
#     Edge 35, Type (0, 0), BuildingBlock: KIFKEQ_clean_linker_1, # of connection points: 2
#     Edge 36, Type (0, 0), BuildingBlock: KIFKEQ_clean_linker_1, # of connection points: 2
#     Edge 37, Type (0, 0), BuildingBlock: KIFKEQ_clean_linker_1, # of connection points: 2
#     Edge 38, Type (0, 0), BuildingBlock: KIFKEQ_clean_linker_1, # of connection points: 2
#     Edge 39, Type (0, 0), BuildingBlock: KIFKEQ_clean_linker_1, # of connection points: 2
#     Edge 40, Type (0, 0), BuildingBlock: KIFKEQ_clean_linker_1, # of connection points: 2
#     Edge 41, Type (0, 0), BuildingBlock: KIFKEQ_clean_linker_1, # of connection points: 2
#     Edge 42, Type (0, 0), BuildingBlock: KIFKEQ_clean_linker_1, # of connection points: 2
#     Edge 43, Type (0, 0), BuildingBlock: KIFKEQ_clean_linker_1, # of connection points: 2
#     Edge 44, Type (0, 0), BuildingBlock: KIFKEQ_clean_linker_1, # of connection points: 2
#     Edge 45, Type (0, 0), BuildingBlock: KIFKEQ_clean_linker_1, # of connection points: 2
#     Edge 46, Type (0, 0), BuildingBlock: KIFKEQ_clean_linker_1, # of connection points: 2
#     Edge 47, Type (0, 0), BuildingBlock: KIFKEQ_clean_linker_1, # of connection points: 2
#     Edge 48, Type (0, 0), BuildingBlock: KIFKEQ_clean_linker_1, # of connection points: 2
#     Edge 49, Type (0, 0), BuildingBlock: KIFKEQ_clean_linker_1, # of connection points: 2
#     Edge 50, Type (0, 0), BuildingBlock: KIFKEQ_clean_linker_1, # of connection points: 2
#     Edge 51, Type (0, 0), BuildingBlock: KIFKEQ_clean_linker_1, # of connection points: 2
#     Edge 52, Type (0, 0), BuildingBlock: KIFKEQ_clean_linker_1, # of connection points: 2
#     Edge 53, Type (0, 0), BuildingBlock: KIFKEQ_clean_linker_1, # of connection points: 2
#     Edge 54, Type (0, 0), BuildingBlock: KIFKEQ_clean_linker_1, # of connection points: 2
#     Edge 55, Type (0, 0), BuildingBlock: KIFKEQ_clean_linker_1, # of connection points: 2
#     Edge 56, Type (0, 0), BuildingBlock: KIFKEQ_clean_linker_1, # of connection points: 2
#     Edge 57, Type (0, 0), BuildingBlock: KIFKEQ_clean_linker_1, # of connection points: 2
#     Edge 58, Type (0, 0), BuildingBlock: KIFKEQ_clean_linker_1, # of connection points: 2
#     Edge 59, Type (0, 0), BuildingBlock: KIFKEQ_clean_linker_1, # of connection points: 2
#     Edge 60, Type (0, 0), BuildingBlock: KIFKEQ_clean_linker_1, # of connection points: 2
#     Edge 61, Type (0, 0), BuildingBlock: KIFKEQ_clean_linker_1, # of connection points: 2
#     Edge 62, Type (0, 0), BuildingBlock: KIFKEQ_clean_linker_1, # of connection points: 2
#     Edge 63, Type (0, 0), BuildingBlock: KIFKEQ_clean_linker_1, # of connection points: 2
#     Edge 64, Type (0, 0), BuildingBlock: KIFKEQ_clean_linker_1, # of connection points: 2
#     Edge 65, Type (0, 0), BuildingBlock: KIFKEQ_clean_linker_1, # of connection points: 2
#     Edge 66, Type (0, 0), BuildingBlock: KIFKEQ_clean_linker_1, # of connection points: 2
#     Edge 67, Type (0, 0), BuildingBlock: KIFKEQ_clean_linker_1, # of connection points: 2
#     Edge 68, Type (0, 0), BuildingBlock: KIFKEQ_clean_linker_1, # of connection points: 2
#     Edge 69, Type (0, 0), BuildingBlock: KIFKEQ_clean_linker_1, # of connection points: 2
#     Edge 70, Type (0, 0), BuildingBlock: KIFKEQ_clean_linker_1, # of connection points: 2
#     Edge 71, Type (0, 0), BuildingBlock: KIFKEQ_clean_linker_1, # of connection points: 2
#     Edge 72, Type (0, 0), BuildingBlock: KIFKEQ_clean_linker_1, # of connection points: 2
#     Edge 73, Type (0, 0), BuildingBlock: KIFKEQ_clean_linker_1, # of connection points: 2
#     Edge 74, Type (0, 0), BuildingBlock: KIFKEQ_clean_linker_1, # of connection points: 2
#     Edge 75, Type (0, 0), BuildingBlock: KIFKEQ_clean_linker_1, # of connection points: 2
#     Edge 76, Type (0, 0), BuildingBlock: KIFKEQ_clean_linker_1, # of connection points: 2
#     Edge 77, Type (0, 0), BuildingBlock: KIFKEQ_clean_linker_1, # of connection points: 2
#     Edge 78, Type (0, 0), BuildingBlock: KIFKEQ_clean_linker_1, # of connection points: 2
#     Edge 79, Type (0, 0), BuildingBlock: KIFKEQ_clean_linker_1, # of connection points: 2
#     Edge 80, Type (0, 0), BuildingBlock: KIFKEQ_clean_linker_1, # of connection points: 2
#     Edge 81, Type (0, 0), BuildingBlock: KIFKEQ_clean_linker_1, # of connection points: 2
#     Edge 82, Type (0, 0), BuildingBlock: KIFKEQ_clean_linker_1, # of connection points: 2
#     Edge 83, Type (0, 0), BuildingBlock: KIFKEQ_clean_linker_1, # of connection points: 2
#     Edge 84, Type (0, 0), BuildingBlock: KIFKEQ_clean_linker_1, # of connection points: 2
#     Edge 85, Type (0, 0), BuildingBlock: KIFKEQ_clean_linker_1, # of connection points: 2
#     Edge 86, Type (0, 0), BuildingBlock: KIFKEQ_clean_linker_1, # of connection points: 2
#     Edge 87, Type (0, 0), BuildingBlock: KIFKEQ_clean_linker_1, # of connection points: 2
#     Edge 88, Type (0, 0), BuildingBlock: KIFKEQ_clean_linker_1, # of connection points: 2
#     Edge 89, Type (0, 0), BuildingBlock: KIFKEQ_clean_linker_1, # of connection points: 2
#     Edge 90, Type (0, 0), BuildingBlock: KIFKEQ_clean_linker_1, # of connection points: 2
#     Edge 91, Type (0, 0), BuildingBlock: KIFKEQ_clean_linker_1, # of connection points: 2
#     Edge 92, Type (0, 0), BuildingBlock: KIFKEQ_clean_linker_1, # of connection points: 2
#     Edge 93, Type (0, 0), BuildingBlock: KIFKEQ_clean_linker_1, # of connection points: 2
#     Edge 94, Type (0, 0), BuildingBlock: KIFKEQ_clean_linker_1, # of connection points: 2
#     Edge 95, Type (0, 0), BuildingBlock: KIFKEQ_clean_linker_1, # of connection points: 2
# Relax obj value: 0.133
# Max RMSD: 0.127
# Mean RMSD: 0.127
data_MOF--net-uow--node1-QUQFOY_clean_sbu_1--edge1-KIFKEQ_clean_linker_1
_symmetry_space_group_name_H-M    P1
_symmetry_Int_Tables_number       1
_symmetry_cell_setting            triclinic
loop_
_symmetry_equiv_pos_as_xyz
'x, y, z'
_cell_length_a     65.216406
_cell_length_b     65.234528
_cell_length_c     44.969072
_cell_angle_alpha  90.011212
_cell_angle_beta   90.020857
_cell_angle_gamma 90.021552
loop_
_atom_site_label
_atom_site_type_symbol
_atom_site_fract_x
_atom_site_fract_y
_atom_site_fract_z
_atom_type_partial_charge
O0 O 0.02845 0.39764 0.32374 0.0
Cd1 Cd 0.05866 0.40304 0.31253 0.0
Cd2 Cd 0.0524 0.37054 0.27552 0.0
O3 O 0.02236 0.3737 0.2902 0.0
O4 O 0.06501 0.43243 0.32106 0.0
O5 O 0.06436 0.41941 0.27558 0.0
C6 C 0.06665 0.43517 0.29272 0.0
C7 C 0.05958 0.36196 0.22591 0.0
C8 C 0.01617 0.38514 0.31132 0.0
C9 C 0.08283 0.36569 0.3264 0.0
O10 O 0.07297 0.35774 0.30492 0.0
O11 O 0.08021 0.38445 0.33312 0.0
O12 O 0.05103 0.34916 0.24382 0.0
O13 O 0.0632 0.38022 0.23572 0.0
O14 O 0.86606 0.77893 0.57373 0.0
Cd15 Cd 0.86086 0.80932 0.5635 0.0
Cd16 Cd 0.89349 0.80342 0.52642 0.0
O17 O 0.89015 0.77322 0.54028 0.0
O18 O 0.83145 0.81562 0.57213 0.0
O19 O 0.8445 0.81554 0.52667 0.0
C20 C 0.82872 0.81758 0.54383 0.0
C21 C 0.90241 0.81112 0.47709 0.0
C22 C 0.87857 0.76678 0.56108 0.0
C23 C 0.89838 0.83305 0.57831 0.0
O24 O 0.90628 0.82354 0.55649 0.0
O25 O 0.87961 0.8304 0.58494 0.0
O26 O 0.91508 0.80237 0.495 0.0
O27 O 0.88409 0.81467 0.48672 0.0
O28 O 0.48436 0.61579 0.82168 0.0
Cd29 Cd 0.45391 0.61095 0.81159 0.0
Cd30 Cd 0.46063 0.64268 0.77377 0.0
O31 O 0.49088 0.6389 0.78719 0.0
O32 O 0.44806 0.58173 0.82192 0.0
O33 O 0.44645 0.59379 0.77597 0.0
C34 C 0.4452 0.57836 0.79393 0.0
C35 C 0.45228 0.64978 0.72413 0.0
C36 C 0.49691 0.62769 0.80865 0.0
C37 C 0.43155 0.64935 0.82576 0.0
O38 O 0.44137 0.65676 0.80382 0.0
O39 O 0.4334 0.6305 0.83258 0.0
O40 O 0.46225 0.66271 0.74024 0.0
O41 O 0.44775 0.63225 0.73573 0.0
O42 O 0.64815 0.23633 0.07465 0.0
Cd43 Cd 0.65344 0.20617 0.06344 0.0
Cd44 Cd 0.62098 0.21233 0.02653 0.0
O45 O 0.62429 0.24241 0.04097 0.0
O46 O 0.68297 0.1998 0.07092 0.0
O47 O 0.66918 0.20068 0.02589 0.0
C48 C 0.68524 0.1984 0.04246 0.0
C49 C 0.6118 0.20496 0.97719 0.0
C50 C 0.6357 0.2486 0.06214 0.0
C51 C 0.61609 0.18229 0.07787 0.0
O52 O 0.60818 0.19201 0.05625 0.0
O53 O 0.63488 0.18483 0.08452 0.0
O54 O 0.59926 0.21367 0.99532 0.0
O55 O 0.63017 0.20133 0.98658 0.0
O56 O 0.02892 0.61628 0.18085 0.0
Cd57 Cd 0.05915 0.61176 0.19258 0.0
Cd58 Cd 0.05165 0.64315 0.23007 0.0
O59 O 0.0216 0.63855 0.21619 0.0
O60 O 0.06644 0.58258 0.18395 0.0
O61 O 0.06467 0.59537 0.22951 0.0
C62 C 0.06755 0.57973 0.21232 0.0
C63 C 0.06007 0.64953 0.27983 0.0
C64 C 0.016 0.62763 0.19417 0.0
C65 C 0.08151 0.65045 0.17956 0.0
O66 O 0.07083 0.65789 0.2006 0.0
O67 O 0.08026 0.63149 0.17316 0.0
O68 O 0.04964 0.6625 0.26443 0.0
O69 O 0.06491 0.63232 0.2675 0.0
O70 O 0.64841 0.7757 0.4352 0.0
Cd71 Cd 0.6521 0.80632 0.445 0.0
Cd72 Cd 0.62089 0.7991 0.4831 0.0
O73 O 0.62595 0.76887 0.4705 0.0
O74 O 0.68111 0.81414 0.43595 0.0
O75 O 0.66834 0.81332 0.48157 0.0
C76 C 0.68393 0.81606 0.46425 0.0
C77 C 0.61422 0.80838 0.53247 0.0
C78 C 0.63715 0.76293 0.44898 0.0
C79 C 0.61276 0.82717 0.43073 0.0
O80 O 0.60569 0.81723 0.45278 0.0
O81 O 0.63168 0.82605 0.42403 0.0
O82 O 0.6015 0.79739 0.51744 0.0
O83 O 0.63137 0.81332 0.52003 0.0
O84 O 0.4872 0.39819 0.6854 0.0
Cd85 Cd 0.45657 0.4014 0.69659 0.0
Cd86 Cd 0.46623 0.37081 0.73287 0.0
O87 O 0.49623 0.37798 0.72236 0.0
O88 O 0.44907 0.43024 0.68616 0.0
O89 O 0.44894 0.41839 0.73228 0.0
C90 C 0.44664 0.43365 0.71423 0.0
C91 C 0.45571 0.36354 0.7815 0.0
C92 C 0.501 0.38846 0.69955 0.0
C93 C 0.43899 0.36135 0.68025 0.0
O94 O 0.4509 0.35467 0.70042 0.0
O95 O 0.43679 0.38056 0.67643 0.0
O96 O 0.46799 0.35155 0.76731 0.0
O97 O 0.44998 0.38025 0.76854 0.0
O98 O 0.86954 0.23686 0.93202 0.0
Cd99 Cd 0.8614 0.20663 0.93889 0.0
Cd100 Cd 0.89437 0.20692 0.97699 0.0
O101 O 0.89539 0.23739 0.96379 0.0
O102 O 0.83151 0.20317 0.93054 0.0
O103 O 0.84509 0.19974 0.97544 0.0
C104 C 0.82901 0.19972 0.95858 0.0
C105 C 0.90336 0.19811 0.02592 0.0
C106 C 0.88416 0.24641 0.94465 0.0
C107 C 0.89574 0.17885 0.92273 0.0
O108 O 0.90404 0.18559 0.94633 0.0
O109 O 0.87801 0.18501 0.91506 0.0
O110 O 0.91682 0.20417 0.00695 0.0
O111 O 0.8844 0.19787 0.01763 0.0
O112 O 0.98512 0.6167 0.68127 0.0
Cd113 Cd 0.95474 0.61108 0.69095 0.0
Cd114 Cd 0.96053 0.64363 0.72848 0.0
O115 O 0.99076 0.64091 0.71453 0.0
O116 O 0.94974 0.58164 0.68111 0.0
O117 O 0.94747 0.59408 0.72679 0.0
C118 C 0.94671 0.57846 0.7091 0.0
C119 C 0.95283 0.65243 0.77785 0.0
C120 C 0.99721 0.62935 0.69372 0.0
C121 C 0.9308 0.64836 0.67642 0.0
O122 O 0.94015 0.65614 0.69851 0.0
O123 O 0.93368 0.6297 0.66933 0.0
O124 O 0.96133 0.66523 0.75989 0.0
O125 O 0.94953 0.63406 0.76824 0.0
O126 O 0.1484 0.23655 0.43048 0.0
Cd127 Cd 0.15279 0.20632 0.44215 0.0
Cd128 Cd 0.12161 0.21386 0.47983 0.0
O129 O 0.12632 0.2439 0.46607 0.0
O130 O 0.18203 0.19883 0.43417 0.0
O131 O 0.1688 0.20088 0.47945 0.0
C132 C 0.1846 0.19787 0.46263 0.0
C133 C 0.11501 0.2054 0.5295 0.0
C134 C 0.13715 0.24949 0.44395 0.0
C135 C 0.11396 0.18428 0.42909 0.0
O136 O 0.10667 0.19488 0.45031 0.0
O137 O 0.13291 0.18542 0.42255 0.0
O138 O 0.10219 0.21598 0.51405 0.0
O139 O 0.13223 0.20045 0.51728 0.0
O140 O 0.52687 0.39661 0.18393 0.0
Cd141 Cd 0.55713 0.40213 0.19451 0.0
Cd142 Cd 0.55114 0.37017 0.23179 0.0
O143 O 0.52085 0.37315 0.2181 0.0
O144 O 0.56253 0.43156 0.18504 0.0
O145 O 0.56396 0.41892 0.23069 0.0
C146 C 0.56517 0.43459 0.21316 0.0
C147 C 0.55969 0.36375 0.28149 0.0
C148 C 0.5146 0.38429 0.19671 0.0
C149 C 0.58073 0.36451 0.18031 0.0
O150 O 0.57095 0.35666 0.20195 0.0
O151 O 0.57834 0.38333 0.17368 0.0
O152 O 0.55003 0.3504 0.2657 0.0
O153 O 0.56375 0.38129 0.26955 0.0
O154 O 0.3677 0.77981 0.93234 0.0
Cd155 Cd 0.36193 0.80996 0.9434 0.0
Cd156 Cd 0.39465 0.80398 0.98019 0.0
O157 O 0.39246 0.77402 0.96479 0.0
O158 O 0.33244 0.81587 0.9348 0.0
O159 O 0.34544 0.81563 0.98029 0.0
C160 C 0.32966 0.81763 0.96311 0.0
C161 C 0.40239 0.81114 0.03003 0.0
C162 C 0.38072 0.76773 0.94405 0.0
C163 C 0.39882 0.83479 0.92952 0.0
O164 O 0.40681 0.82523 0.95123 0.0
O165 O 0.3802 0.83166 0.92247 0.0
O166 O 0.41598 0.80396 0.01206 0.0
O167 O 0.38391 0.81329 0.02018 0.0
O168 O 0.98936 0.39856 0.81829 0.0
Cd169 Cd 0.95853 0.40201 0.80835 0.0
Cd170 Cd 0.96732 0.37037 0.77267 0.0
O171 O 0.99752 0.37691 0.78259 0.0
O172 O 0.95172 0.43106 0.81842 0.0
O173 O 0.95035 0.41871 0.77261 0.0
C174 C 0.9487 0.43419 0.79042 0.0
C175 C 0.95704 0.36099 0.72456 0.0
C176 C 1.00279 0.38811 0.80445 0.0
C177 C 0.94034 0.3627 0.82654 0.0
O178 O 0.95163 0.35554 0.806 0.0
O179 O 0.93876 0.38198 0.83017 0.0
O180 O 0.96827 0.34917 0.74072 0.0
O181 O 0.9523 0.37875 0.73522 0.0
O182 O 0.36909 0.23522 0.57271 0.0
Cd183 Cd 0.3612 0.20503 0.56485 0.0
Cd184 Cd 0.39387 0.20631 0.52644 0.0
O185 O 0.39471 0.23657 0.54062 0.0
O186 O 0.33138 0.20117 0.57335 0.0
O187 O 0.34476 0.19855 0.52822 0.0
C188 C 0.32876 0.19814 0.54522 0.0
C189 C 0.40276 0.19814 0.47727 0.0
C190 C 0.38354 0.24513 0.56027 0.0
C191 C 0.39598 0.17749 0.57977 0.0
O192 O 0.40404 0.18472 0.55632 0.0
O193 O 0.3782 0.18324 0.58781 0.0
O194 O 0.41621 0.20422 0.49625 0.0
O195 O 0.38384 0.19759 0.48566 0.0
O196 O 0.52877 0.61865 0.32266 0.0
Cd197 Cd 0.55902 0.61132 0.31444 0.0
Cd198 Cd 0.5569 0.64352 0.27597 0.0
O199 O 0.52639 0.64317 0.28908 0.0
O200 O 0.56251 0.58164 0.32401 0.0
O201 O 0.56626 0.59433 0.27865 0.0
C202 C 0.56606 0.57858 0.29611 0.0
C203 C 0.56549 0.65063 0.22636 0.0
C204 C 0.5183 0.63234 0.30949 0.0
C205 C 0.58525 0.64721 0.32938 0.0
O206 O 0.57737 0.65534 0.30637 0.0
O207 O 0.58058 0.62896 0.33678 0.0
O208 O 0.55708 0.6642 0.24316 0.0
O209 O 0.56849 0.63258 0.2373 0.0
O210 O 0.14801 0.78009 0.07546 0.0
Cd211 Cd 0.15281 0.81014 0.06312 0.0
Cd212 Cd 0.12181 0.80239 0.02515 0.0
O213 O 0.12616 0.77247 0.03968 0.0
O214 O 0.18201 0.81746 0.07176 0.0
O215 O 0.16932 0.81523 0.02618 0.0
C216 C 0.18493 0.81826 0.04338 0.0
C217 C 0.11561 0.81035 0.97518 0.0
C218 C 0.13674 0.76708 0.06216 0.0
C219 C 0.11407 0.83254 0.07517 0.0
O220 O 0.10682 0.82174 0.05409 0.0
O221 O 0.13298 0.83138 0.08195 0.0
O222 O 0.1026 0.80003 0.99067 0.0
O223 O 0.13277 0.81533 0.98756 0.0
O224 O 0.5288 0.89867 0.82508 0.0
Cd225 Cd 0.55905 0.90311 0.81331 0.0
Cd226 Cd 0.55138 0.8717 0.77578 0.0
O227 O 0.52138 0.87637 0.7898 0.0
O228 O 0.56646 0.9323 0.8218 0.0
O229 O 0.56456 0.91945 0.7763 0.0
C230 C 0.56751 0.93511 0.79341 0.0
C231 C 0.55961 0.86489 0.72607 0.0
C232 C 0.51583 0.88732 0.81181 0.0
C233 C 0.58131 0.86437 0.82625 0.0
O234 O 0.57059 0.85698 0.80519 0.0
O235 O 0.5801 0.88332 0.83275 0.0
O236 O 0.54916 0.8521 0.74175 0.0
O237 O 0.56454 0.88219 0.73806 0.0
O238 O 0.36556 0.27543 0.07218 0.0
Cd239 Cd 0.36099 0.30593 0.06217 0.0
Cd240 Cd 0.39289 0.29979 0.02479 0.0
O241 O 0.38872 0.26945 0.03751 0.0
O242 O 0.33172 0.31284 0.07077 0.0
O243 O 0.34484 0.31239 0.02533 0.0
C244 C 0.32907 0.31473 0.04244 0.0
C245 C 0.39989 0.3086 0.97533 0.0
C246 C 0.37742 0.26308 0.05867 0.0
C247 C 0.39926 0.32859 0.07692 0.0
O248 O 0.40699 0.31881 0.05519 0.0
O249 O 0.38035 0.32661 0.08324 0.0
O250 O 0.41282 0.2984 0.99111 0.0
O251 O 0.38241 0.3131 0.98714 0.0
O252 O 0.98389 0.11681 0.32525 0.0
Cd253 Cd 0.95378 0.11059 0.3144 0.0
Cd254 Cd 0.95919 0.14315 0.27718 0.0
O255 O 0.98923 0.14138 0.29237 0.0
O256 O 0.94818 0.081 0.32262 0.0
O257 O 0.94818 0.09431 0.27731 0.0
C258 C 0.94635 0.0784 0.29427 0.0
C259 C 0.95178 0.15128 0.22756 0.0
C260 C 0.99575 0.12991 0.31326 0.0
C261 C 0.92855 0.14711 0.32815 0.0
O262 O 0.93791 0.15507 0.30624 0.0
O263 O 0.93196 0.12859 0.33544 0.0
O264 O 0.95895 0.16474 0.24574 0.0
O265 O 0.94984 0.13269 0.23701 0.0
O266 O 0.14832 0.73532 0.57334 0.0
Cd267 Cd 0.15306 0.70501 0.56233 0.0
Cd268 Cd 0.12137 0.71177 0.52487 0.0
O269 O 0.12545 0.74194 0.53848 0.0
O270 O 0.18225 0.69799 0.57141 0.0
O271 O 0.16962 0.69886 0.52571 0.0
C272 C 0.1852 0.6963 0.54312 0.0
C273 C 0.11456 0.70327 0.47524 0.0
C274 C 0.13652 0.74791 0.56016 0.0
C275 C 0.11463 0.68244 0.57622 0.0
O276 O 0.10705 0.69255 0.55471 0.0
O277 O 0.13355 0.68415 0.5827 0.0
O278 O 0.10162 0.71349 0.49097 0.0
O279 O 0.13197 0.69865 0.48718 0.0
O280 O 0.52682 0.11615 0.68313 0.0
Cd281 Cd 0.55739 0.11155 0.69306 0.0
Cd282 Cd 0.55098 0.14393 0.73045 0.0
O283 O 0.52081 0.14005 0.71677 0.0
O284 O 0.5642 0.08226 0.68445 0.0
O285 O 0.56395 0.09536 0.7299 0.0
C286 C 0.56622 0.07959 0.71276 0.0
C287 C 0.55874 0.15285 0.77974 0.0
C288 C 0.51448 0.12836 0.69602 0.0
C289 C 0.58058 0.14952 0.67872 0.0
O290 O 0.57086 0.15717 0.70053 0.0
O291 O 0.57823 0.13074 0.67188 0.0
O292 O 0.54963 0.16539 0.76202 0.0
O293 O 0.56256 0.13462 0.76998 0.0
O294 O 0.14608 0.27892 0.92965 0.0
Cd295 Cd 0.1525 0.30894 0.94076 0.0
Cd296 Cd 0.11921 0.30414 0.97687 0.0
O297 O 0.1213 0.27399 0.9623 0.0
O298 O 0.18214 0.31421 0.93256 0.0
O299 O 0.16884 0.31431 0.97788 0.0
C300 C 0.18476 0.316 0.9609 0.0
C301 C 0.11015 0.31156 0.02623 0.0
C302 C 0.13283 0.26723 0.94165 0.0
C303 C 0.11636 0.33458 0.9257 0.0
O304 O 0.10772 0.32521 0.94706 0.0
O305 O 0.13505 0.33107 0.91948 0.0
O306 O 0.09727 0.30364 0.00782 0.0
O307 O 0.1287 0.31445 0.01706 0.0
O308 O 0.98289 0.89732 0.17857 0.0
Cd309 Cd 0.95283 0.90247 0.19063 0.0
Cd310 Cd 0.95992 0.8705 0.22795 0.0
O311 O 0.98981 0.87409 0.2128 0.0
O312 O 0.94614 0.93188 0.18275 0.0
O313 O 0.94772 0.91854 0.228 0.0
C314 C 0.9451 0.93442 0.2112 0.0
C315 C 0.95307 0.86205 0.2777 0.0
C316 C 0.99554 0.88526 0.19111 0.0
C317 C 0.92916 0.86472 0.17766 0.0
O318 O 0.93944 0.8571 0.19897 0.0
O319 O 0.93126 0.88351 0.17074 0.0
O320 O 0.9618 0.84932 0.25987 0.0
O321 O 0.94913 0.8802 0.26775 0.0
O322 O 0.36503 0.73513 0.43103 0.0
Cd323 Cd 0.36199 0.70503 0.44484 0.0
Cd324 Cd 0.39167 0.71634 0.48077 0.0
O325 O 0.3825 0.74582 0.47 0.0
O326 O 0.33329 0.69592 0.43616 0.0
O327 O 0.34547 0.69994 0.48175 0.0
C328 C 0.33016 0.69573 0.46452 0.0
C329 C 0.39873 0.70583 0.52948 0.0
C330 C 0.37312 0.74966 0.44584 0.0
C331 C 0.40241 0.68827 0.42992 0.0
O332 O 0.40866 0.70156 0.44854 0.0
O333 O 0.38331 0.68475 0.42716 0.0
O334 O 0.41032 0.71882 0.5159 0.0
O335 O 0.3825 0.69943 0.51589 0.0
O336 O 0.48624 0.1163 0.1812 0.0
Cd337 Cd 0.45585 0.10993 0.1899 0.0
Cd338 Cd 0.46006 0.14306 0.2267 0.0
O339 O 0.49044 0.14179 0.21292 0.0
O340 O 0.45168 0.08016 0.18151 0.0
O341 O 0.44847 0.09374 0.2264 0.0
C342 C 0.44824 0.07767 0.20955 0.0
C343 C 0.45171 0.15141 0.27589 0.0
C344 C 0.49764 0.12983 0.19311 0.0
C345 C 0.43039 0.14583 0.17414 0.0
O346 O 0.43897 0.15404 0.19654 0.0
O347 O 0.43449 0.12741 0.16701 0.0
O348 O 0.45872 0.16492 0.25767 0.0
O349 O 0.45037 0.1327 0.26671 0.0
O350 O 0.64789 0.73393 0.92815 0.0
Cd351 Cd 0.65267 0.70372 0.93965 0.0
Cd352 Cd 0.62134 0.71068 0.97738 0.0
O353 O 0.62543 0.74079 0.96342 0.0
O354 O 0.68195 0.69657 0.9313 0.0
O355 O 0.66888 0.69809 0.97671 0.0
C356 C 0.68463 0.6953 0.95971 0.0
C357 C 0.61552 0.70237 0.02735 0.0
C358 C 0.63627 0.74662 0.94145 0.0
C359 C 0.61414 0.68109 0.92649 0.0
O360 O 0.60668 0.69136 0.94794 0.0
O361 O 0.63305 0.6827 0.91987 0.0
O362 O 0.60226 0.71254 0.01209 0.0
O363 O 0.63264 0.69763 0.01469 0.0
O364 O 0.02829 0.89732 0.68264 0.0
Cd365 Cd 0.05876 0.90236 0.69249 0.0
Cd366 Cd 0.05254 0.87034 0.72988 0.0
O367 O 0.02217 0.87397 0.71694 0.0
O368 O 0.06435 0.93171 0.68265 0.0
O369 O 0.06605 0.9193 0.72839 0.0
C370 C 0.06717 0.93488 0.7107 0.0
C371 C 0.06145 0.86354 0.77935 0.0
C372 C 0.0159 0.88528 0.69575 0.0
C373 C 0.08167 0.86431 0.67787 0.0
O374 O 0.07186 0.8566 0.69959 0.0
O375 O 0.07958 0.88319 0.67135 0.0
O376 O 0.05142 0.85044 0.7636 0.0
O377 O 0.06568 0.88107 0.7675 0.0
O378 O 0.86517 0.27794 0.43083 0.0
Cd379 Cd 0.86051 0.30832 0.44158 0.0
Cd380 Cd 0.89277 0.30162 0.47885 0.0
O381 O 0.88887 0.27156 0.46463 0.0
O382 O 0.83117 0.3152 0.43351 0.0
O383 O 0.84458 0.31442 0.47877 0.0
C384 C 0.8287 0.31688 0.4619 0.0
C385 C 0.90192 0.30886 0.52823 0.0
C386 C 0.87731 0.26547 0.44357 0.0
C387 C 0.89837 0.3316 0.42753 0.0
O388 O 0.90603 0.32171 0.4492 0.0
O389 O 0.87958 0.32934 0.42069 0.0
O390 O 0.91437 0.29995 0.51017 0.0
O391 O 0.88365 0.31279 0.51874 0.0
O392 O 0.48289 0.89474 0.32582 0.0
Cd393 Cd 0.45287 0.9026 0.31753 0.0
Cd394 Cd 0.45429 0.86787 0.28271 0.0
O395 O 0.48457 0.86713 0.29754 0.0
O396 O 0.45056 0.93261 0.32557 0.0
O397 O 0.44563 0.91896 0.28107 0.0
C398 C 0.4466 0.93512 0.29768 0.0
C399 C 0.44648 0.85864 0.23359 0.0
C400 C 0.49295 0.87958 0.31569 0.0
C401 C 0.42471 0.86913 0.33533 0.0
O402 O 0.4317 0.8598 0.31271 0.0
O403 O 0.43114 0.88691 0.34218 0.0
O404 O 0.45171 0.84519 0.25311 0.0
O405 O 0.4465 0.87767 0.24152 0.0
O406 O 0.86514 0.73345 0.0749 0.0
Cd407 Cd 0.86032 0.7032 0.06352 0.0
Cd408 Cd 0.89256 0.71011 0.02651 0.0
O409 O 0.88872 0.7401 0.04105 0.0
O410 O 0.83094 0.69635 0.07135 0.0
O411 O 0.84441 0.69748 0.02616 0.0
C412 C 0.8285 0.69491 0.04292 0.0
C413 C 0.90131 0.70295 0.97697 0.0
C414 C 0.87727 0.74603 0.06232 0.0
C415 C 0.89814 0.67983 0.07741 0.0
O416 O 0.90585 0.68992 0.05598 0.0
O417 O 0.87931 0.68196 0.0841 0.0
O418 O 0.91392 0.71184 0.99484 0.0
O419 O 0.88312 0.699 0.98676 0.0
O420 O 0.02451 0.1159 0.81832 0.0
Cd421 Cd 0.05531 0.11144 0.81004 0.0
Cd422 Cd 0.0494 0.14326 0.772 0.0
O423 O 0.01889 0.13934 0.78396 0.0
O424 O 0.06126 0.08222 0.82022 0.0
O425 O 0.0637 0.09463 0.77454 0.0
C426 C 0.06475 0.07909 0.79232 0.0
C427 C 0.05883 0.15025 0.72282 0.0
C428 C 0.0123 0.12785 0.80472 0.0
C429 C 0.07753 0.14991 0.82502 0.0
O430 O 0.06813 0.15734 0.80272 0.0
O431 O 0.07538 0.1311 0.83189 0.0
O432 O 0.04845 0.16318 0.73833 0.0
O433 O 0.06314 0.13275 0.73471 0.0
O434 O 0.64731 0.27952 0.57614 0.0
Cd435 Cd 0.65264 0.30969 0.56463 0.0
Cd436 Cd 0.62045 0.30344 0.52784 0.0
O437 O 0.62409 0.27326 0.54163 0.0
O438 O 0.68207 0.31617 0.57289 0.0
O439 O 0.66889 0.3151 0.52751 0.0
C440 C 0.68471 0.31753 0.5445 0.0
C441 C 0.61357 0.31168 0.47815 0.0
C442 C 0.6352 0.26712 0.56315 0.0
C443 C 0.61493 0.33342 0.57871 0.0
O444 O 0.60685 0.32322 0.55765 0.0
O445 O 0.63387 0.33129 0.58478 0.0
O446 O 0.60048 0.30188 0.49419 0.0
O447 O 0.63112 0.31607 0.48984 0.0
H448 H 0.08227 0.38331 0.18481 0.0
H449 H 0.05207 0.32521 0.19927 0.0
H450 H 0.09488 0.37096 0.13678 0.0
H451 H 0.06487 0.31284 0.15178 0.0
H452 H 0.07268 0.30555 0.05153 0.0
H453 H 0.06021 0.3184 0.09894 0.0
H454 H 0.11939 0.34561 0.11638 0.0
H455 H 0.13187 0.33295 0.06843 0.0
C456 C 0.07821 0.36798 0.17768 0.0
C457 C 0.0661 0.35529 0.19584 0.0
C458 C 0.08561 0.36082 0.15031 0.0
C459 C 0.08094 0.34088 0.14046 0.0
C460 C 0.06858 0.32835 0.15849 0.0
C461 C 0.06128 0.33545 0.18581 0.0
C462 C 0.08312 0.31416 0.0655 0.0
C463 C 0.10331 0.31817 0.05619 0.0
C464 C 0.07596 0.32149 0.09277 0.0
C465 C 0.08878 0.33307 0.11147 0.0
C466 C 0.10905 0.33695 0.10232 0.0
C467 C 0.11626 0.32953 0.075 0.0
H468 H 0.9306 0.88343 0.31904 0.0
H469 H 0.96051 0.82525 0.30419 0.0
H470 H 0.91802 0.87103 0.36706 0.0
H471 H 0.94771 0.81281 0.35161 0.0
H472 H 0.93973 0.80479 0.45151 0.0
H473 H 0.95229 0.81785 0.4043 0.0
H474 H 0.89348 0.84604 0.3876 0.0
H475 H 0.88094 0.83322 0.4354 0.0
C476 C 0.9346 0.86807 0.32608 0.0
C477 C 0.94663 0.85537 0.30781 0.0
C478 C 0.92722 0.86089 0.35345 0.0
C479 C 0.93179 0.84089 0.36317 0.0
C480 C 0.94408 0.82836 0.34503 0.0
C481 C 0.95138 0.8355 0.31774 0.0
C482 C 0.92939 0.81366 0.43774 0.0
C483 C 0.90929 0.8179 0.44723 0.0
C484 C 0.9366 0.82112 0.41058 0.0
C485 C 0.92392 0.83303 0.39212 0.0
C486 C 0.90373 0.83714 0.40145 0.0
C487 C 0.89648 0.82962 0.4287 0.0
H488 H 0.4706 0.67615 0.68567 0.0
H489 H 0.41754 0.63728 0.69545 0.0
H490 H 0.45742 0.68877 0.63858 0.0
H491 H 0.40337 0.65094 0.64935 0.0
H492 H 0.38999 0.6682 0.55282 0.0
H493 H 0.40352 0.65321 0.59842 0.0
H494 H 0.43388 0.71057 0.61864 0.0
H495 H 0.42153 0.72479 0.57203 0.0
C496 C 0.45605 0.67034 0.67766 0.0
C497 C 0.44512 0.65572 0.69415 0.0
C498 C 0.44827 0.67778 0.65079 0.0
C499 C 0.42901 0.67129 0.64009 0.0
C500 C 0.41832 0.65624 0.65643 0.0
C501 C 0.42641 0.64838 0.68297 0.0
C502 C 0.39946 0.67758 0.56721 0.0
C503 C 0.40478 0.69762 0.55885 0.0
C504 C 0.40721 0.66902 0.59349 0.0
C505 C 0.42011 0.68048 0.6124 0.0
C506 C 0.42463 0.7009 0.60441 0.0
C507 C 0.41731 0.70923 0.57781 0.0
H508 H 0.58174 0.1318 0.82084 0.0
H509 H 0.55189 0.18997 0.80561 0.0
H510 H 0.595 0.14462 0.86826 0.0
H511 H 0.56538 0.20283 0.8524 0.0
H512 H 0.63287 0.18268 0.9353 0.0
H513 H 0.61985 0.16967 0.88784 0.0
H514 H 0.56134 0.19828 0.90522 0.0
H515 H 0.57438 0.21153 0.95206 0.0
C516 C 0.57791 0.14726 0.82766 0.0
C517 C 0.56568 0.15982 0.80948 0.0
C518 C 0.58568 0.15468 0.85468 0.0
C519 C 0.58132 0.17479 0.86412 0.0
C520 C 0.56887 0.1872 0.84604 0.0
C521 C 0.56116 0.17982 0.81911 0.0
C522 C 0.6173 0.18634 0.9288 0.0
C523 C 0.6047 0.19821 0.94742 0.0
C524 C 0.60977 0.17872 0.90176 0.0
C525 C 0.58952 0.18287 0.89274 0.0
C526 C 0.57708 0.19497 0.91126 0.0
C527 C 0.58456 0.20254 0.93821 0.0
H528 H 0.04121 0.67385 0.32055 0.0
H529 H 0.0961 0.63844 0.30604 0.0
H530 H 0.05482 0.68605 0.36764 0.0
H531 H 0.11067 0.65184 0.35199 0.0
H532 H 0.12579 0.66747 0.44849 0.0
H533 H 0.11215 0.65299 0.40262 0.0
H534 H 0.0772 0.70854 0.38817 0.0
H535 H 0.08965 0.72203 0.43519 0.0
C536 C 0.05626 0.66871 0.32753 0.0
C537 C 0.06756 0.65516 0.30976 0.0
C538 C 0.06428 0.67595 0.35438 0.0
C539 C 0.08416 0.67037 0.36373 0.0
C540 C 0.09526 0.65639 0.34604 0.0
C541 C 0.08694 0.64868 0.31956 0.0
C542 C 0.11532 0.67658 0.43526 0.0
C543 C 0.10873 0.69583 0.44537 0.0
C544 C 0.10748 0.66832 0.40882 0.0
C545 C 0.09323 0.67936 0.39148 0.0
C546 C 0.08751 0.69912 0.40116 0.0
C547 C 0.09489 0.70707 0.42797 0.0
H548 H 0.58969 0.79006 0.57344 0.0
H549 H 0.62505 0.84484 0.55772 0.0
H550 H 0.57717 0.8043 0.61994 0.0
H551 H 0.61136 0.86 0.60308 0.0
H552 H 0.59547 0.87596 0.69933 0.0
H553 H 0.61007 0.86197 0.65378 0.0
H554 H 0.5545 0.82699 0.63946 0.0
H555 H 0.54084 0.83984 0.68615 0.0
C556 C 0.59474 0.80522 0.58002 0.0
C557 C 0.60838 0.81631 0.56207 0.0
C558 C 0.58733 0.81359 0.60652 0.0
C559 C 0.59282 0.8336 0.61536 0.0
C560 C 0.60687 0.8445 0.59751 0.0
C561 C 0.61474 0.83585 0.57137 0.0
C562 C 0.58637 0.86542 0.68618 0.0
C563 C 0.56707 0.85893 0.69626 0.0
C564 C 0.59471 0.85737 0.65994 0.0
C565 C 0.5837 0.843 0.64277 0.0
C566 C 0.56388 0.8374 0.65235 0.0
C567 C 0.55584 0.845 0.67896 0.0
H568 H 0.42574 0.2904 0.93605 0.0
H569 H 0.38774 0.34386 0.94779 0.0
H570 H 0.43827 0.304 0.88917 0.0
H571 H 0.40136 0.35844 0.90194 0.0
H572 H 0.4184 0.37282 0.80554 0.0
H573 H 0.40341 0.35901 0.85099 0.0
H574 H 0.46034 0.32744 0.86974 0.0
H575 H 0.47451 0.34007 0.82328 0.0
C576 C 0.42011 0.30513 0.92852 0.0
C577 C 0.40576 0.31606 0.94549 0.0
C578 C 0.42751 0.31314 0.90178 0.0
C579 C 0.42126 0.33264 0.89171 0.0
C580 C 0.40646 0.34332 0.90853 0.0
C581 C 0.39864 0.33501 0.93493 0.0
C582 C 0.42768 0.36303 0.8196 0.0
C583 C 0.44757 0.35744 0.81087 0.0
C584 C 0.41912 0.35511 0.84578 0.0
C585 C 0.43046 0.34177 0.86419 0.0
C586 C 0.45075 0.33702 0.85587 0.0
C587 C 0.45906 0.3445 0.82937 0.0
H588 H 0.94056 0.18272 0.04129 0.0
H589 H 0.88081 0.19673 0.07738 0.0
H590 H 0.95165 0.17015 0.08995 0.0
H591 H 0.8923 0.18472 0.12648 0.0
H592 H 0.93998 0.18929 0.2099 0.0
H593 H 0.92704 0.19979 0.16117 0.0
H594 H 0.93501 0.13815 0.12854 0.0
H595 H 0.94736 0.12732 0.17779 0.0
C596 C 0.92983 0.18321 0.05966 0.0
C597 C 0.90983 0.19079 0.0556 0.0
C598 C 0.93616 0.17589 0.08738 0.0
C599 C 0.92278 0.17645 0.11174 0.0
C600 C 0.90283 0.18413 0.10788 0.0
C601 C 0.8963 0.19098 0.07989 0.0
C602 C 0.93901 0.17795 0.19236 0.0
C603 C 0.94477 0.15749 0.19759 0.0
C604 C 0.93147 0.18395 0.16461 0.0
C605 C 0.92999 0.16973 0.14135 0.0
C606 C 0.93599 0.14933 0.1463 0.0
C607 C 0.94306 0.14318 0.17436 0.0
H608 H 0.95906 0.68971 0.80361 0.0
H609 H 0.93086 0.63078 0.81947 0.0
H610 H 0.94594 0.70214 0.85085 0.0
H611 H 0.91796 0.6432 0.86731 0.0
H612 H 0.88016 0.68029 0.93556 0.0
H613 H 0.89279 0.66767 0.88769 0.0
H614 H 0.95092 0.6975 0.90358 0.0
H615 H 0.93826 0.71034 0.95086 0.0
C616 C 0.95023 0.67931 0.81733 0.0
C617 C 0.94606 0.65921 0.80776 0.0
C618 C 0.94274 0.68644 0.84452 0.0
C619 C 0.93086 0.67369 0.8629 0.0
C620 C 0.92684 0.6535 0.8535 0.0
C621 C 0.9344 0.64632 0.82624 0.0
C622 C 0.89556 0.6843 0.92866 0.0
C623 C 0.90816 0.6964 0.94699 0.0
C624 C 0.90287 0.6769 0.90137 0.0
C625 C 0.9229 0.68151 0.89181 0.0
C626 C 0.93534 0.69383 0.91005 0.0
C627 C 0.92808 0.70117 0.93725 0.0
H628 H 0.12573 0.16921 0.5555 0.0
H629 H 0.09061 0.22427 0.57008 0.0
H630 H 0.11182 0.15448 0.60101 0.0
H631 H 0.07789 0.21048 0.61674 0.0
H632 H 0.04072 0.17538 0.6825 0.0
H633 H 0.05492 0.18802 0.63606 0.0
H634 H 0.11012 0.15277 0.65172 0.0
H635 H 0.09496 0.13896 0.69703 0.0
C636 C 0.11544 0.17837 0.56895 0.0
C637 C 0.10918 0.19784 0.55928 0.0
C638 C 0.10745 0.16996 0.59517 0.0
C639 C 0.09337 0.18105 0.61272 0.0
C640 C 0.08804 0.20103 0.60355 0.0
C641 C 0.09558 0.20915 0.57696 0.0
C642 C 0.05576 0.17012 0.67567 0.0
C643 C 0.06672 0.15616 0.69325 0.0
C644 C 0.06411 0.17761 0.6492 0.0
C645 C 0.08398 0.17186 0.64007 0.0
C646 C 0.09473 0.15747 0.65754 0.0
C647 C 0.08608 0.14953 0.68364 0.0
H648 H 0.62464 0.34738 0.45107 0.0
H649 H 0.589 0.29243 0.43815 0.0
H650 H 0.61114 0.36143 0.40485 0.0
H651 H 0.57675 0.30545 0.39076 0.0
H652 H 0.54097 0.33917 0.32197 0.0
H653 H 0.5544 0.32738 0.36936 0.0
H654 H 0.60983 0.36245 0.35434 0.0
H655 H 0.59537 0.37549 0.30811 0.0
C656 C 0.61431 0.33809 0.43783 0.0
C657 C 0.60781 0.31886 0.44815 0.0
C658 C 0.60655 0.3461 0.41119 0.0
C659 C 0.59251 0.3348 0.39383 0.0
C660 C 0.58689 0.31507 0.40373 0.0
C661 C 0.59416 0.30738 0.43076 0.0
C662 C 0.55589 0.34458 0.32915 0.0
C663 C 0.5671 0.35829 0.3115 0.0
C664 C 0.56381 0.33757 0.35619 0.0
C665 C 0.58352 0.34352 0.36583 0.0
C666 C 0.59454 0.35762 0.3482 0.0
C667 C 0.58629 0.36511 0.32155 0.0
H668 H 0.44688 0.8809 0.18186 0.0
H669 H 0.43068 0.82167 0.21777 0.0
H670 H 0.43571 0.86949 0.13231 0.0
H671 H 0.41893 0.81066 0.16861 0.0
H672 H 0.37788 0.81543 0.07923 0.0
H673 H 0.38823 0.82736 0.12891 0.0
H674 H 0.45035 0.83497 0.09803 0.0
H675 H 0.44033 0.82245 0.04886 0.0
C676 C 0.44085 0.86554 0.1792 0.0
C677 C 0.43977 0.85213 0.2036 0.0
C678 C 0.43448 0.85904 0.15095 0.0
C679 C 0.4264 0.83927 0.14688 0.0
C680 C 0.425 0.82601 0.17132 0.0
C681 C 0.43185 0.83229 0.19933 0.0
C682 C 0.39375 0.81955 0.08314 0.0
C683 C 0.40832 0.81788 0.06026 0.0
C684 C 0.39963 0.82637 0.11146 0.0
C685 C 0.42003 0.83217 0.11704 0.0
C686 C 0.43452 0.8307 0.09413 0.0
C687 C 0.42878 0.8234 0.06612 0.0
H688 H 0.96374 0.32394 0.69839 0.0
H689 H 0.93206 0.38138 0.68521 0.0
H690 H 0.94947 0.31092 0.65222 0.0
H691 H 0.91808 0.36844 0.6383 0.0
H692 H 0.88076 0.33055 0.57072 0.0
H693 H 0.89383 0.34333 0.61828 0.0
H694 H 0.95265 0.3157 0.59971 0.0
H695 H 0.93954 0.30262 0.55288 0.0
C696 C 0.95387 0.3339 0.68548 0.0
C697 C 0.94912 0.35375 0.69547 0.0
C698 C 0.94572 0.32643 0.65889 0.0
C699 C 0.93263 0.33862 0.64145 0.0
C700 C 0.9279 0.35854 0.65136 0.0
C701 C 0.93607 0.36603 0.6781 0.0
C702 C 0.8964 0.32704 0.577 0.0
C703 C 0.90906 0.31549 0.55804 0.0
C704 C 0.90396 0.33453 0.60411 0.0
C705 C 0.92432 0.33058 0.61284 0.0
C706 C 0.93682 0.31881 0.59396 0.0
C707 C 0.9293 0.31135 0.56698 0.0
H708 H 0.43854 0.18915 0.29276 0.0
H709 H 0.44791 0.12774 0.32601 0.0
H710 H 0.4254 0.1997 0.34134 0.0
H711 H 0.43534 0.13864 0.37509 0.0
H712 H 0.44011 0.18332 0.46163 0.0
H713 H 0.45117 0.17081 0.41294 0.0
H714 H 0.39152 0.18463 0.37674 0.0
H715 H 0.38007 0.19657 0.4259 0.0
C716 C 0.43793 0.17795 0.31051 0.0
C717 C 0.44434 0.15763 0.30566 0.0
C718 C 0.43027 0.18397 0.33818 0.0
C719 C 0.42932 0.16994 0.36173 0.0
C720 C 0.43591 0.14968 0.35711 0.0
C721 C 0.4431 0.14348 0.32915 0.0
C722 C 0.42932 0.18368 0.44332 0.0
C723 C 0.40924 0.19101 0.4475 0.0
C724 C 0.43563 0.17639 0.41558 0.0
C725 C 0.42216 0.17673 0.39131 0.0
C726 C 0.40213 0.18421 0.39527 0.0
C727 C 0.39562 0.19103 0.42328 0.0
H728 H 0.60003 0.63791 0.19755 0.0
H729 H 0.5468 0.67645 0.18765 0.0
H730 H 0.6137 0.65088 0.15074 0.0
H731 H 0.55929 0.68819 0.13974 0.0
H732 H 0.59284 0.72219 0.06903 0.0
H733 H 0.58167 0.70936 0.11707 0.0
H734 H 0.61364 0.65234 0.10028 0.0
H735 H 0.62616 0.66617 0.05337 0.0
C736 C 0.59102 0.64879 0.18488 0.0
C737 C 0.57242 0.65624 0.19618 0.0
C738 C 0.5988 0.65624 0.1579 0.0
C739 C 0.58784 0.67092 0.14119 0.0
C740 C 0.56869 0.67753 0.15215 0.0
C741 C 0.56128 0.67057 0.17949 0.0
C742 C 0.5977 0.70704 0.07596 0.0
C743 C 0.61041 0.69521 0.0576 0.0
C744 C 0.59104 0.69947 0.10338 0.0
C745 C 0.59629 0.6795 0.11274 0.0
C746 C 0.60938 0.66784 0.09438 0.0
C747 C 0.61657 0.67572 0.06733 0.0
H748 H 0.09716 0.87524 0.80599 0.0
H749 H 0.04306 0.8384 0.81942 0.0
H750 H 0.11184 0.86187 0.8519 0.0
H751 H 0.05673 0.82621 0.86645 0.0
H752 H 0.09168 0.79098 0.93445 0.0
H753 H 0.07946 0.80422 0.88716 0.0
H754 H 0.113 0.86053 0.90253 0.0
H755 H 0.12645 0.84633 0.94868 0.0
C756 C 0.0882 0.86466 0.81925 0.0
C757 C 0.06902 0.85781 0.80917 0.0
C758 C 0.09657 0.85698 0.8457 0.0
C759 C 0.0857 0.84262 0.86309 0.0
C760 C 0.06602 0.83661 0.85343 0.0
C761 C 0.05796 0.84384 0.82661 0.0
C762 C 0.09667 0.80604 0.92736 0.0
C763 C 0.11005 0.8176 0.94512 0.0
C764 C 0.08942 0.81385 0.90039 0.0
C765 C 0.09479 0.83375 0.89091 0.0
C766 C 0.10861 0.8451 0.90858 0.0
C767 C 0.11634 0.83699 0.93517 0.0
H768 H 0.09489 0.37092 0.38449 0.0
H769 H 0.10051 0.32985 0.30958 0.0
H770 H 0.1125 0.34579 0.41605 0.0
H771 H 0.1179 0.30497 0.34082 0.0
H772 H 0.11097 0.27993 0.46223 0.0
H773 H 0.10221 0.31121 0.43535 0.0
H774 H 0.1489 0.29772 0.37019 0.0
H775 H 0.15754 0.26636 0.39676 0.0
C776 C 0.10026 0.35675 0.37463 0.0
C777 C 0.09621 0.3523 0.3446 0.0
C778 C 0.11021 0.34233 0.39273 0.0
C779 C 0.11656 0.32337 0.38096 0.0
C780 C 0.11345 0.3195 0.35055 0.0
C781 C 0.10333 0.33372 0.33266 0.0
C782 C 0.1197 0.28385 0.44256 0.0
C783 C 0.13472 0.27041 0.4314 0.0
C784 C 0.11473 0.30186 0.42721 0.0
C785 C 0.12466 0.30678 0.4004 0.0
C786 C 0.14073 0.29415 0.39052 0.0
C787 C 0.14572 0.2762 0.40584 0.0
H788 H 0.9337 0.85178 0.56161 0.0
H789 H 0.89399 0.84298 0.63738 0.0
H790 H 0.95895 0.86833 0.59327 0.0
H791 H 0.91952 0.85968 0.66939 0.0
H792 H 0.98645 0.85757 0.71289 0.0
H793 H 0.95483 0.84911 0.6865 0.0
H794 H 0.96605 0.89853 0.62478 0.0
H795 H 0.99769 0.90692 0.65086 0.0
C796 C 0.9302 0.85373 0.585 0.0
C797 C 0.91189 0.84599 0.59701 0.0
C798 C 0.94464 0.86335 0.60315 0.0
C799 C 0.94127 0.8653 0.63388 0.0
C800 C 0.92259 0.8583 0.6458 0.0
C801 C 0.90793 0.84888 0.62746 0.0
C802 C 0.98195 0.86694 0.69411 0.0
C803 C 0.99483 0.88271 0.68372 0.0
C804 C 0.96376 0.86213 0.67905 0.0
C805 C 0.9581 0.87297 0.65329 0.0
C806 C 0.97019 0.88968 0.64426 0.0
C807 C 0.98831 0.89451 0.65931 0.0
H808 H 0.35959 0.75019 0.89806 0.0
H809 H 0.4086 0.73823 0.96044 0.0
H810 H 0.36797 0.71876 0.87151 0.0
H811 H 0.417 0.70677 0.93362 0.0
H812 H 0.42128 0.64544 0.88473 0.0
H813 H 0.40532 0.67153 0.91652 0.0
H814 H 0.39854 0.71124 0.84033 0.0
H815 H 0.41441 0.68543 0.80887 0.0
C816 C 0.37194 0.74072 0.90646 0.0
C817 C 0.38361 0.74694 0.93118 0.0
C818 C 0.37676 0.72271 0.89114 0.0
C819 C 0.3933 0.71042 0.90024 0.0
C820 C 0.4041 0.71587 0.92614 0.0
C821 C 0.39934 0.73397 0.94142 0.0
C822 C 0.41597 0.65958 0.87475 0.0
C823 C 0.41917 0.66343 0.84433 0.0
C824 C 0.40699 0.67456 0.89297 0.0
C825 C 0.4007 0.69345 0.88094 0.0
C826 C 0.40299 0.69678 0.85025 0.0
C827 C 0.41221 0.68202 0.83223 0.0
H828 H 0.61969 0.17335 0.1373 0.0
H829 H 0.58146 0.16268 0.06042 0.0
H830 H 0.59378 0.15695 0.16898 0.0
H831 H 0.55586 0.14632 0.09175 0.0
H832 H 0.51723 0.10773 0.15 0.0
H833 H 0.54906 0.11634 0.12467 0.0
H834 H 0.55762 0.16785 0.18364 0.0
H835 H 0.52573 0.15923 0.20925 0.0
C836 C 0.60602 0.16706 0.1271 0.0
C837 C 0.60255 0.16935 0.09642 0.0
C838 C 0.59115 0.15783 0.14524 0.0
C839 C 0.57277 0.15039 0.13287 0.0
C840 C 0.56993 0.15169 0.10195 0.0
C841 C 0.58456 0.16116 0.084 0.0
C842 C 0.52604 0.12068 0.15801 0.0
C843 C 0.5187 0.13299 0.18141 0.0
C844 C 0.54428 0.12562 0.1434 0.0
C845 C 0.55571 0.14291 0.15191 0.0
C846 C 0.5492 0.15437 0.17666 0.0
C847 C 0.53085 0.14948 0.19123 0.0
H848 H 0.09542 0.64527 0.12236 0.0
H849 H 0.09638 0.68763 0.19619 0.0
H850 H 0.11291 0.6708 0.09131 0.0
H851 H 0.11374 0.71287 0.16546 0.0
H852 H 0.11143 0.73609 0.04303 0.0
H853 H 0.10205 0.7051 0.07025 0.0
H854 H 0.14611 0.72022 0.13848 0.0
H855 H 0.15544 0.75123 0.11152 0.0
C856 C 0.0997 0.65985 0.1321 0.0
C857 C 0.09443 0.66448 0.16168 0.0
C858 C 0.10959 0.67448 0.11429 0.0
C859 C 0.11471 0.69384 0.12593 0.0
C860 C 0.11025 0.69803 0.15589 0.0
C861 C 0.10015 0.68359 0.17347 0.0
C862 C 0.11946 0.7326 0.06349 0.0
C863 C 0.13396 0.74636 0.07529 0.0
C864 C 0.11413 0.71477 0.07904 0.0
C865 C 0.12314 0.71038 0.10672 0.0
C866 C 0.13867 0.72337 0.11743 0.0
C867 C 0.14405 0.74112 0.10188 0.0
H868 H 0.51949 0.84847 0.30062 0.0
H869 H 0.51355 0.90113 0.35837 0.0
H870 H 0.55124 0.83894 0.32619 0.0
H871 H 0.54507 0.89149 0.38376 0.0
H872 H 0.5772 0.84499 0.44831 0.0
H873 H 0.55086 0.86047 0.41717 0.0
H874 H 0.5885 0.85071 0.3395 0.0
H875 H 0.61522 0.83537 0.37097 0.0
C876 C 0.52511 0.85822 0.31834 0.0
C877 C 0.51378 0.87542 0.32765 0.0
C878 C 0.54335 0.85281 0.33287 0.0
C879 C 0.55049 0.86438 0.35714 0.0
C880 C 0.53979 0.88218 0.36533 0.0
C881 C 0.52173 0.88769 0.35069 0.0
C882 C 0.58004 0.84646 0.42466 0.0
C883 C 0.59827 0.83898 0.41208 0.0
C884 C 0.56498 0.8554 0.40684 0.0
C885 C 0.56763 0.85678 0.3759 0.0
C886 C 0.58607 0.84978 0.36329 0.0
C887 C 0.60138 0.84116 0.38129 0.0
H888 H 0.36112 0.27028 0.59686 0.0
H889 H 0.41873 0.26664 0.54962 0.0
H890 H 0.37319 0.30116 0.62248 0.0
H891 H 0.43072 0.29721 0.57559 0.0
H892 H 0.45182 0.32273 0.66855 0.0
H893 H 0.43684 0.29774 0.63486 0.0
H894 H 0.38882 0.34045 0.61227 0.0
H895 H 0.40423 0.36607 0.64583 0.0
C896 C 0.37615 0.27628 0.59146 0.0
C897 C 0.38905 0.26583 0.57144 0.0
C898 C 0.38298 0.294 0.60603 0.0
C899 C 0.40291 0.30139 0.60112 0.0
C900 C 0.41531 0.29172 0.57981 0.0
C901 C 0.4084 0.27423 0.56493 0.0
C902 C 0.43806 0.32691 0.65647 0.0
C903 C 0.42916 0.34639 0.65995 0.0
C904 C 0.4296 0.31261 0.637 0.0
C905 C 0.41181 0.31726 0.62085 0.0
C906 C 0.40262 0.33659 0.62446 0.0
C907 C 0.41141 0.35119 0.64359 0.0
H908 H 0.98399 0.15711 0.78943 0.0
H909 H 0.99233 0.10396 0.84547 0.0
H910 H 0.95203 0.16493 0.81512 0.0
H911 H 0.96017 0.11155 0.87067 0.0
H912 H 0.92804 0.15496 0.93844 0.0
H913 H 0.95268 0.13858 0.90581 0.0
H914 H 0.9166 0.15628 0.82941 0.0
H915 H 0.89182 0.17303 0.86243 0.0
C916 C 0.97874 0.14676 0.80666 0.0
C917 C 0.99095 0.13012 0.81574 0.0
C918 C 0.96033 0.1512 0.82132 0.0
C919 C 0.95368 0.13905 0.8453 0.0
C920 C 0.96506 0.12146 0.8527 0.0
C921 C 0.98348 0.11707 0.83816 0.0
C922 C 0.92509 0.15501 0.91472 0.0
C923 C 0.90806 0.16545 0.90302 0.0
C924 C 0.93918 0.14547 0.89596 0.0
C925 C 0.93671 0.14619 0.86491 0.0
C926 C 0.91904 0.15562 0.85321 0.0
C927 C 0.90477 0.16506 0.87212 0.0
H928 H 0.91169 0.68324 0.69396 0.0
H929 H 0.92105 0.64458 0.6172 0.0
H930 H 0.89514 0.70879 0.66287 0.0
H931 H 0.90432 0.6704 0.58576 0.0
H932 H 0.85696 0.7483 0.6058 0.0
H933 H 0.86525 0.71644 0.6313 0.0
H934 H 0.91484 0.70577 0.56965 0.0
H935 H 0.90645 0.73757 0.54382 0.0
C936 C 0.90985 0.68003 0.67047 0.0
C937 C 0.91777 0.66194 0.65801 0.0
C938 C 0.90023 0.69464 0.65264 0.0
C939 C 0.89844 0.69166 0.6218 0.0
C940 C 0.90558 0.67317 0.60943 0.0
C941 C 0.91501 0.65834 0.62744 0.0
C942 C 0.86938 0.739 0.59726 0.0
C943 C 0.88124 0.74571 0.57301 0.0
C944 C 0.87416 0.72075 0.61197 0.0
C945 C 0.89088 0.70872 0.60277 0.0
C946 C 0.9018 0.71463 0.57721 0.0
C947 C 0.89705 0.73294 0.56249 0.0
H948 H 0.02516 0.15744 0.29531 0.0
H949 H 0.01327 0.11027 0.3606 0.0
H950 H 0.05651 0.16682 0.32178 0.0
H951 H 0.04456 0.11968 0.38684 0.0
H952 H 0.07744 0.16836 0.44658 0.0
H953 H 0.05165 0.15163 0.41594 0.0
H954 H 0.0919 0.15539 0.33991 0.0
H955 H 0.118 0.17216 0.37088 0.0
C956 C 0.02942 0.14878 0.31491 0.0
C957 C 0.0165 0.13329 0.32603 0.0
C958 C 0.04745 0.15411 0.33 0.0
C959 C 0.05286 0.14413 0.35658 0.0
C960 C 0.04063 0.12781 0.36663 0.0
C961 C 0.02272 0.1224 0.35149 0.0
C962 C 0.08097 0.16533 0.42344 0.0
C963 C 0.09973 0.17164 0.41112 0.0
C964 C 0.06622 0.15563 0.40591 0.0
C965 C 0.06973 0.1522 0.37549 0.0
C966 C 0.08875 0.15792 0.36327 0.0
C967 C 0.10372 0.16737 0.38102 0.0
H968 H 0.60831 0.27819 0.04459 0.0
H969 H 0.65616 0.26611 0.10879 0.0
H970 H 0.59911 0.30934 0.07153 0.0
H971 H 0.647 0.29728 0.13546 0.0
H972 H 0.59841 0.32862 0.19689 0.0
H973 H 0.61569 0.30374 0.16544 0.0
H974 H 0.60958 0.34443 0.09021 0.0
H975 H 0.59216 0.36957 0.12198 0.0
C976 C 0.61719 0.2824 0.06401 0.0
C977 C 0.63275 0.26943 0.07477 0.0
C978 C 0.61197 0.30032 0.07937 0.0
C979 C 0.62216 0.3056 0.10585 0.0
C980 C 0.63867 0.29343 0.11538 0.0
C981 C 0.64394 0.27559 0.1 0.0
C982 C 0.60104 0.33245 0.17376 0.0
C983 C 0.59382 0.35101 0.16189 0.0
C984 C 0.61108 0.31824 0.15575 0.0
C985 C 0.61399 0.32211 0.12531 0.0
C986 C 0.60746 0.341 0.11357 0.0
C987 C 0.59762 0.35542 0.13178 0.0
H988 H 0.43421 0.8533 0.94658 0.0
H989 H 0.394 0.84597 0.871 0.0
H990 H 0.45937 0.87019 0.91525 0.0
H991 H 0.41939 0.86312 0.83933 0.0
H992 H 0.49889 0.90834 0.85838 0.0
H993 H 0.46732 0.90027 0.88484 0.0
H994 H 0.45394 0.85266 0.821 0.0
H995 H 0.48539 0.86088 0.7942 0.0
C996 C 0.43057 0.85568 0.92333 0.0
C997 C 0.41217 0.84818 0.91125 0.0
C998 C 0.44496 0.86551 0.90535 0.0
C999 C 0.44144 0.86796 0.87473 0.0
C1000 C 0.4226 0.86132 0.86281 0.0
C1001 C 0.40802 0.85165 0.88097 0.0
C1002 C 0.48904 0.89642 0.84958 0.0
C1003 C 0.49489 0.88504 0.8244 0.0
C1004 C 0.47096 0.89176 0.86484 0.0
C1005 C 0.45827 0.87562 0.85531 0.0
C1006 C 0.46331 0.86525 0.82888 0.0
C1007 C 0.48143 0.86991 0.81358 0.0
H1008 H 0.91916 0.26787 0.95685 0.0
H1009 H 0.86205 0.27209 0.9084 0.0
H1010 H 0.93137 0.2988 0.93208 0.0
H1011 H 0.87436 0.30329 0.88393 0.0
H1012 H 0.90545 0.36779 0.86063 0.0
H1013 H 0.88983 0.34235 0.89432 0.0
H1014 H 0.93831 0.29972 0.8735 0.0
H1015 H 0.95347 0.3245 0.83974 0.0
C1016 C 0.90898 0.27565 0.94154 0.0
C1017 C 0.88973 0.2673 0.9343 0.0
C1018 C 0.91601 0.29336 0.92736 0.0
C1019 C 0.90384 0.30329 0.906 0.0
C1020 C 0.88397 0.29595 0.90044 0.0
C1021 C 0.87701 0.27804 0.91434 0.0
C1022 C 0.9127 0.35298 0.86337 0.0
C1023 C 0.93059 0.34809 0.8474 0.0
C1024 C 0.90379 0.33849 0.88256 0.0
C1025 C 0.91302 0.3192 0.88664 0.0
C1026 C 0.93103 0.31455 0.87103 0.0
C1027 C 0.93959 0.32872 0.85149 0.0
H1028 H 0.48565 0.15708 0.71134 0.0
H1029 H 0.49517 0.10457 0.6544 0.0
H1030 H 0.45344 0.16428 0.68594 0.0
H1031 H 0.46275 0.11153 0.62947 0.0
H1032 H 0.42856 0.15435 0.56299 0.0
H1033 H 0.45395 0.13841 0.59486 0.0
H1034 H 0.41823 0.15469 0.67225 0.0
H1035 H 0.39271 0.17103 0.63999 0.0
C1036 C 0.48065 0.14676 0.69391 0.0
C1037 C 0.49322 0.13046 0.68457 0.0
C1038 C 0.46208 0.15082 0.67944 0.0
C1039 C 0.45562 0.13864 0.65536 0.0
C1040 C 0.46746 0.12145 0.64754 0.0
C1041 C 0.48604 0.11743 0.66192 0.0
C1042 C 0.42585 0.15416 0.58676 0.0
C1043 C 0.40871 0.16412 0.59897 0.0
C1044 C 0.44038 0.14487 0.60509 0.0
C1045 C 0.43824 0.14537 0.63619 0.0
C1046 C 0.42044 0.15424 0.64839 0.0
C1047 C 0.40573 0.16343 0.62992 0.0
H1048 H 0.65983 0.74467 0.40522 0.0
H1049 H 0.60953 0.73332 0.46557 0.0
H1050 H 0.65193 0.71301 0.37889 0.0
H1051 H 0.60145 0.70181 0.43885 0.0
H1052 H 0.59383 0.64224 0.3888 0.0
H1053 H 0.61096 0.66691 0.42163 0.0
H1054 H 0.62297 0.70602 0.34611 0.0
H1055 H 0.60615 0.68154 0.31361 0.0
C1056 C 0.64732 0.73525 0.41325 0.0
C1057 C 0.63509 0.74176 0.43721 0.0
C1058 C 0.64276 0.71712 0.39806 0.0
C1059 C 0.62584 0.70507 0.40643 0.0
C1060 C 0.61464 0.71069 0.43188 0.0
C1061 C 0.61923 0.72883 0.44714 0.0
C1062 C 0.60058 0.65589 0.37919 0.0
C1063 C 0.59851 0.66002 0.34865 0.0
C1064 C 0.61025 0.67007 0.39801 0.0
C1065 C 0.61827 0.68847 0.38653 0.0
C1066 C 0.61721 0.69193 0.35571 0.0
C1067 C 0.60741 0.67793 0.33705 0.0
H1068 H 0.11835 0.84576 0.13284 0.0
H1069 H 0.07721 0.84766 0.05761 0.0
H1070 H 0.0922 0.86253 0.16362 0.0
H1071 H 0.05133 0.86433 0.08808 0.0
H1072 H 0.02622 0.8594 0.20963 0.0
H1073 H 0.05762 0.85073 0.18289 0.0
H1074 H 0.04324 0.89612 0.11625 0.0
H1075 H 0.01184 0.90476 0.14273 0.0
C1076 C 0.10392 0.85013 0.12274 0.0
C1077 C 0.09979 0.84531 0.09285 0.0
C1078 C 0.08893 0.85959 0.14039 0.0
C1079 C 0.0697 0.86473 0.12829 0.0
C1080 C 0.06605 0.86079 0.09802 0.0
C1081 C 0.08085 0.85111 0.08059 0.0
C1082 C 0.02995 0.86784 0.18961 0.0
C1083 C 0.01631 0.88257 0.17813 0.0
C1084 C 0.04801 0.86293 0.17436 0.0
C1085 C 0.05277 0.87257 0.14727 0.0
C1086 C 0.03983 0.88822 0.13684 0.0
C1087 C 0.02185 0.8932 0.15212 0.0
H1088 H 0.65538 0.76333 0.89303 0.0
H1089 H 0.61049 0.77711 0.96085 0.0
H1090 H 0.64613 0.79465 0.8668 0.0
H1091 H 0.6012 0.80843 0.93436 0.0
H1092 H 0.59471 0.86896 0.88384 0.0
H1093 H 0.6121 0.84316 0.91456 0.0
H1094 H 0.61393 0.80208 0.8393 0.0
H1095 H 0.59666 0.82758 0.80891 0.0
C1096 C 0.64381 0.7732 0.90269 0.0
C1097 C 0.63346 0.76749 0.92886 0.0
C1098 C 0.63847 0.79113 0.88756 0.0
C1099 C 0.62274 0.80385 0.89828 0.0
C1100 C 0.61345 0.79899 0.92559 0.0
C1101 C 0.61872 0.78097 0.9407 0.0
C1102 C 0.5992 0.85455 0.87379 0.0
C1103 C 0.59423 0.85026 0.844 0.0
C1104 C 0.60903 0.83976 0.89141 0.0
C1105 C 0.61439 0.82059 0.87936 0.0
C1106 C 0.61024 0.81676 0.8492 0.0
C1107 C 0.6002 0.83135 0.83181 0.0
H1108 H 0.48514 0.35669 0.21424 0.0
H1109 H 0.49714 0.40427 0.14964 0.0
H1110 H 0.45428 0.34694 0.18687 0.0
H1111 H 0.46632 0.39452 0.12252 0.0
H1112 H 0.43573 0.3455 0.0611 0.0
H1113 H 0.4605 0.36268 0.09292 0.0
H1114 H 0.41907 0.35728 0.16738 0.0
H1115 H 0.394 0.34002 0.13524 0.0
C1116 C 0.48097 0.3654 0.19465 0.0
C1117 C 0.49384 0.38106 0.18392 0.0
C1118 C 0.46322 0.35985 0.17903 0.0
C1119 C 0.45804 0.36978 0.15231 0.0
C1120 C 0.4701 0.38638 0.14279 0.0
C1121 C 0.48774 0.392 0.15844 0.0
C1122 C 0.43173 0.34823 0.08414 0.0
C1123 C 0.41294 0.34133 0.09567 0.0
C1124 C 0.44589 0.35821 0.10235 0.0
C1125 C 0.44174 0.36135 0.13268 0.0
C1126 C 0.4227 0.355 0.14412 0.0
C1127 C 0.40832 0.34525 0.12569 0.0
H1128 H 0.90464 0.23574 0.46071 0.0
H1129 H 0.85529 0.24745 0.39882 0.0
H1130 H 0.91242 0.20383 0.43481 0.0
H1131 H 0.86294 0.21543 0.37326 0.0
H1132 H 0.90891 0.18166 0.31043 0.0
H1133 H 0.89231 0.20716 0.34153 0.0
H1134 H 0.9017 0.16881 0.41864 0.0
H1135 H 0.91853 0.14309 0.38721 0.0
C1136 C 0.89513 0.2313 0.44204 0.0
C1137 C 0.87957 0.24437 0.43156 0.0
C1138 C 0.89952 0.21292 0.42728 0.0
C1139 C 0.88846 0.20722 0.40173 0.0
C1140 C 0.87196 0.21956 0.39258 0.0
C1141 C 0.86755 0.23791 0.40732 0.0
C1142 C 0.90707 0.17844 0.33392 0.0
C1143 C 0.91515 0.16043 0.34639 0.0
C1144 C 0.89743 0.19302 0.35176 0.0
C1145 C 0.89575 0.19008 0.38262 0.0
C1146 C 0.90291 0.17158 0.39496 0.0
C1147 C 0.91239 0.1568 0.37695 0.0
H1148 H 0.07843 0.66542 0.55952 0.0
H1149 H 0.11914 0.6714 0.63479 0.0
H1150 H 0.05306 0.6488 0.59096 0.0
H1151 H 0.09346 0.65474 0.66657 0.0
H1152 H 0.0151 0.6085 0.64782 0.0
H1153 H 0.04644 0.61743 0.62143 0.0
H1154 H 0.05803 0.666 0.68442 0.0
H1155 H 0.02663 0.65708 0.71107 0.0
C1156 C 0.08208 0.66288 0.58273 0.0
C1157 C 0.10075 0.66978 0.5947 0.0
C1158 C 0.06758 0.65324 0.60073 0.0
C1159 C 0.07125 0.65047 0.63126 0.0
C1160 C 0.0902 0.65675 0.64313 0.0
C1161 C 0.10492 0.66615 0.62492 0.0
C1162 C 0.02449 0.62084 0.65648 0.0
C1163 C 0.01813 0.63228 0.68135 0.0
C1164 C 0.04244 0.62597 0.64125 0.0
C1165 C 0.05454 0.64258 0.65061 0.0
C1166 C 0.04905 0.65306 0.67674 0.0
C1167 C 0.031 0.64799 0.69194 0.0
H1168 H 0.60813 0.23745 0.54478 0.0
H1169 H 0.65538 0.24944 0.60994 0.0
H1170 H 0.59901 0.20598 0.57098 0.0
H1171 H 0.64636 0.21792 0.63584 0.0
H1172 H 0.59833 0.18516 0.69619 0.0
H1173 H 0.61544 0.21052 0.66542 0.0
H1174 H 0.60917 0.17091 0.58898 0.0
H1175 H 0.59187 0.14527 0.6201 0.0
C1176 C 0.6169 0.23316 0.56427 0.0
C1177 C 0.63227 0.24619 0.5755 0.0
C1178 C 0.61173 0.21504 0.57921 0.0
C1179 C 0.62178 0.2096 0.60572 0.0
C1180 C 0.6381 0.22187 0.61574 0.0
C1181 C 0.64331 0.23993 0.6008 0.0
C1182 C 0.60088 0.18166 0.67293 0.0
C1183 C 0.59364 0.16325 0.66055 0.0
C1184 C 0.61083 0.19617 0.6553 0.0
C1185 C 0.61366 0.19276 0.62472 0.0
C1186 C 0.60711 0.17401 0.61245 0.0
C1187 C 0.59735 0.15929 0.63028 0.0
H1188 H 0.03389 0.36256 0.78678 0.0
H1189 H 0.01927 0.40983 0.85069 0.0
H1190 H 0.06496 0.35443 0.8145 0.0
H1191 H 0.05049 0.40186 0.8781 0.0
H1192 H 0.08084 0.35357 0.94095 0.0
H1193 H 0.05704 0.37137 0.90848 0.0
H1194 H 0.0991 0.36429 0.835 0.0
H1195 H 0.12311 0.34624 0.8678 0.0
C1196 C 0.03758 0.37164 0.80623 0.0
C1197 C 0.02385 0.38658 0.81681 0.0
C1198 C 0.05548 0.36702 0.82208 0.0
C1199 C 0.06 0.37726 0.84881 0.0
C1200 C 0.04721 0.39343 0.85789 0.0
C1201 C 0.02934 0.39804 0.84208 0.0
C1202 C 0.08523 0.35612 0.91801 0.0
C1203 C 0.10379 0.34835 0.9069 0.0
C1204 C 0.07163 0.36649 0.8994 0.0
C1205 C 0.07614 0.36922 0.86909 0.0
C1206 C 0.09515 0.36231 0.85822 0.0
C1207 C 0.10894 0.3521 0.87702 0.0
H1208 H 0.85647 0.76318 0.10892 0.0
H1209 H 0.90377 0.77631 0.04435 0.0
H1210 H 0.86453 0.79494 0.13489 0.0
H1211 H 0.91191 0.80803 0.07061 0.0
H1212 H 0.91737 0.86885 0.11931 0.0
H1213 H 0.90055 0.84284 0.08829 0.0
H1214 H 0.8952 0.80319 0.16481 0.0
H1215 H 0.91186 0.82894 0.1955 0.0
C1216 C 0.86834 0.77298 0.09992 0.0
C1217 C 0.87968 0.76699 0.07477 0.0
C1218 C 0.87299 0.79118 0.1149 0.0
C1219 C 0.88904 0.80387 0.10505 0.0
C1220 C 0.89939 0.79865 0.07869 0.0
C1221 C 0.89478 0.78039 0.06373 0.0
C1222 C 0.91215 0.85475 0.12955 0.0
C1223 C 0.91603 0.85088 0.15979 0.0
C1224 C 0.90267 0.83983 0.11177 0.0
C1225 C 0.89659 0.82094 0.12407 0.0
C1226 C 0.89947 0.81764 0.15466 0.0
C1227 C 0.90915 0.83237 0.17225 0.0
H1228 H 0.44051 0.70199 0.41626 0.0
H1229 H 0.39855 0.6522 0.39839 0.0
H1230 H 0.4655 0.68677 0.38275 0.0
H1231 H 0.42412 0.63662 0.36504 0.0
H1232 H 0.49406 0.61025 0.34776 0.0
H1233 H 0.46348 0.62238 0.37399 0.0
H1234 H 0.46569 0.67891 0.3244 0.0
H1235 H 0.49596 0.66683 0.29782 0.0
C1236 C 0.43665 0.6877 0.40532 0.0
C1237 C 0.41754 0.67827 0.41007 0.0
C1238 C 0.45092 0.6791 0.38593 0.0
C1239 C 0.44664 0.66065 0.37116 0.0
C1240 C 0.42771 0.65092 0.37614 0.0
C1241 C 0.41314 0.65981 0.39516 0.0
C1242 C 0.48772 0.62505 0.34189 0.0
C1243 C 0.49761 0.63765 0.3209 0.0
C1244 C 0.47019 0.63193 0.35685 0.0
C1245 C 0.46242 0.65164 0.35138 0.0
C1246 C 0.4715 0.6637 0.32912 0.0
C1247 C 0.4888 0.65672 0.31385 0.0
H1248 H 0.42157 0.14167 0.11464 0.0
H1249 H 0.40926 0.17961 0.19128 0.0
H1250 H 0.40427 0.16684 0.08278 0.0
H1251 H 0.39225 0.20456 0.1598 0.0
H1252 H 0.35512 0.24408 0.1022 0.0
H1253 H 0.36322 0.21204 0.12739 0.0
H1254 H 0.4137 0.20215 0.06695 0.0
H1255 H 0.40542 0.23404 0.04137 0.0
C1256 C 0.41476 0.15511 0.12475 0.0
C1257 C 0.4169 0.15874 0.15542 0.0
C1258 C 0.405 0.16958 0.10651 0.0
C1259 C 0.39694 0.18775 0.11871 0.0
C1260 C 0.39804 0.19066 0.14964 0.0
C1261 C 0.40795 0.1764 0.16771 0.0
C1262 C 0.36769 0.23488 0.09384 0.0
C1263 C 0.37984 0.24185 0.07006 0.0
C1264 C 0.37236 0.21653 0.10836 0.0
C1265 C 0.38931 0.2047 0.0995 0.0
C1266 C 0.40048 0.21083 0.07428 0.0
C1267 C 0.39579 0.22921 0.05969 0.0
H1268 H 0.52706 0.65437 0.79057 0.0
H1269 H 0.51401 0.60744 0.85574 0.0
H1270 H 0.55831 0.66336 0.81756 0.0
H1271 H 0.54522 0.61642 0.88248 0.0
H1272 H 0.57745 0.665 0.94306 0.0
H1273 H 0.55211 0.6482 0.91174 0.0
H1274 H 0.59328 0.65211 0.83677 0.0
H1275 H 0.61891 0.66897 0.8684 0.0
C1276 C 0.53107 0.64563 0.81021 0.0
C1277 C 0.51781 0.63039 0.82121 0.0
C1278 C 0.54904 0.65074 0.82561 0.0
C1279 C 0.55406 0.64078 0.85237 0.0
C1280 C 0.54158 0.62458 0.86217 0.0
C1281 C 0.52371 0.6194 0.84674 0.0
C1282 C 0.58128 0.66199 0.92003 0.0
C1283 C 0.60016 0.66838 0.90819 0.0
C1284 C 0.56679 0.65224 0.9021 0.0
C1285 C 0.57069 0.64883 0.87176 0.0
C1286 C 0.58983 0.65462 0.86005 0.0
C1287 C 0.60453 0.66413 0.87819 0.0
H1288 H 0.0934 0.86926 0.61958 0.0
H1289 H 0.09871 0.8281 0.6944 0.0
H1290 H 0.11078 0.84398 0.58795 0.0
H1291 H 0.11593 0.80311 0.66312 0.0
H1292 H 0.15659 0.76517 0.60736 0.0
H1293 H 0.14739 0.79637 0.63392 0.0
H1294 H 0.10052 0.80906 0.56868 0.0
H1295 H 0.10979 0.77789 0.54183 0.0
C1296 C 0.09862 0.85502 0.62939 0.0
C1297 C 0.09459 0.85062 0.65944 0.0
C1298 C 0.10844 0.84052 0.61126 0.0
C1299 C 0.11473 0.82155 0.62303 0.0
C1300 C 0.11153 0.81765 0.6534 0.0
C1301 C 0.10151 0.83194 0.67132 0.0
C1302 C 0.14461 0.7748 0.59826 0.0
C1303 C 0.13371 0.7688 0.57268 0.0
C1304 C 0.13929 0.79266 0.61358 0.0
C1305 C 0.12302 0.80502 0.60367 0.0
C1306 C 0.11318 0.79991 0.57684 0.0
C1307 C 0.11845 0.78197 0.56152 0.0
H1308 H 0.89414 0.34281 0.36893 0.0
H1309 H 0.93409 0.34926 0.44497 0.0
H1310 H 0.9199 0.3598 0.33768 0.0
H1311 H 0.95957 0.36609 0.41405 0.0
H1312 H 0.98648 0.35788 0.2936 0.0
H1313 H 0.95499 0.34906 0.31999 0.0
H1314 H 0.96707 0.39691 0.38397 0.0
H1315 H 0.9986 0.40566 0.35786 0.0
C1316 C 0.90819 0.34824 0.37908 0.0
C1317 C 0.91215 0.34461 0.40937 0.0
C1318 C 0.92298 0.35783 0.36117 0.0
C1319 C 0.94179 0.36426 0.37338 0.0
C1320 C 0.94518 0.36155 0.40398 0.0
C1321 C 0.93061 0.35177 0.4217 0.0
C1322 C 0.98223 0.36681 0.31293 0.0
C1323 C 0.99528 0.38226 0.32385 0.0
C1324 C 0.9641 0.36182 0.32798 0.0
C1325 C 0.95868 0.37213 0.35429 0.0
C1326 C 0.971 0.38849 0.36402 0.0
C1327 C 0.98906 0.39353 0.34896 0.0
H1328 H 0.43048 0.8615 0.39394 0.0
H1329 H 0.38892 0.85021 0.32129 0.0
H1330 H 0.41356 0.83513 0.42322 0.0
H1331 H 0.37054 0.82513 0.35126 0.0
H1332 H 0.36756 0.76005 0.38789 0.0
H1333 H 0.37569 0.79215 0.36414 0.0
H1334 H 0.38854 0.81921 0.45008 0.0
H1335 H 0.38175 0.78621 0.47364 0.0
C1336 C 0.41708 0.85395 0.38481 0.0
C1337 C 0.41102 0.85773 0.35542 0.0
C1338 C 0.40725 0.83879 0.40162 0.0
C1339 C 0.39081 0.82742 0.38957 0.0
C1340 C 0.38359 0.83284 0.36106 0.0
C1341 C 0.39387 0.84748 0.34395 0.0
C1342 C 0.37178 0.77293 0.40183 0.0
C1343 C 0.37422 0.77047 0.43265 0.0
C1344 C 0.37634 0.79158 0.38816 0.0
C1345 C 0.38301 0.80857 0.40496 0.0
C1346 C 0.38402 0.80646 0.43615 0.0
C1347 C 0.37992 0.78757 0.44978 0.0
H1348 H 0.98543 0.65371 0.21238 0.0
H1349 H 0.99915 0.60702 0.14713 0.0
H1350 H 0.95389 0.662 0.18576 0.0
H1351 H 0.96754 0.6152 0.12084 0.0
H1352 H 0.93416 0.66272 0.06025 0.0
H1353 H 0.95961 0.64597 0.0913 0.0
H1354 H 0.91925 0.65104 0.16708 0.0
H1355 H 0.89355 0.66799 0.1357 0.0
C1356 C 0.9815 0.64487 0.1928 0.0
C1357 C 0.99504 0.62993 0.18164 0.0
C1358 C 0.96334 0.64956 0.17761 0.0
C1359 C 0.95836 0.63945 0.15095 0.0
C1360 C 0.97114 0.6235 0.14104 0.0
C1361 C 0.98924 0.61878 0.15621 0.0
C1362 C 0.93052 0.65995 0.08341 0.0
C1363 C 0.91189 0.66678 0.09555 0.0
C1364 C 0.94508 0.65021 0.1012 0.0
C1365 C 0.94149 0.64719 0.1317 0.0
C1366 C 0.9225 0.65326 0.14369 0.0
C1367 C 0.90774 0.66282 0.12569 0.0
H1368 H 0.15293 0.2489 0.89536 0.0
H1369 H 0.10445 0.23854 0.95914 0.0
H1370 H 0.14325 0.21763 0.86928 0.0
H1371 H 0.09474 0.20728 0.93279 0.0
H1372 H 0.08791 0.14597 0.88403 0.0
H1373 H 0.10491 0.17167 0.91544 0.0
H1374 H 0.11205 0.21109 0.839 0.0
H1375 H 0.09517 0.1857 0.80794 0.0
C1376 C 0.14044 0.23979 0.90417 0.0
C1377 C 0.12928 0.24645 0.92914 0.0
C1378 C 0.13487 0.22189 0.88912 0.0
C1379 C 0.11807 0.21013 0.89874 0.0
C1380 C 0.10781 0.21596 0.9249 0.0
C1381 C 0.11333 0.23395 0.93992 0.0
C1382 C 0.09347 0.15998 0.87393 0.0
C1383 C 0.09012 0.16386 0.84355 0.0
C1384 C 0.10307 0.17472 0.89192 0.0
C1385 C 0.10983 0.1934 0.8797 0.0
C1386 C 0.10727 0.19678 0.84907 0.0
C1387 C 0.09745 0.18226 0.83128 0.0
H1388 H 0.62169 0.34738 0.63556 0.0
H1389 H 0.57785 0.34931 0.56359 0.0
H1390 H 0.5973 0.36556 0.66763 0.0
H1391 H 0.5537 0.36728 0.59535 0.0
H1392 H 0.53295 0.36438 0.7185 0.0
H1393 H 0.56365 0.35548 0.69038 0.0
H1394 H 0.54696 0.39933 0.62269 0.0
H1395 H 0.51617 0.40812 0.65054 0.0
C1396 C 0.60704 0.35202 0.62643 0.0
C1397 C 0.60164 0.34679 0.5971 0.0
C1398 C 0.59305 0.36232 0.64482 0.0
C1399 C 0.57357 0.36787 0.63405 0.0
C1400 C 0.56866 0.36349 0.60428 0.0
C1401 C 0.58246 0.35302 0.5861 0.0
C1402 C 0.53608 0.37254 0.69802 0.0
C1403 C 0.52186 0.3867 0.68654 0.0
C1404 C 0.55375 0.36746 0.68193 0.0
C1405 C 0.55754 0.37644 0.65404 0.0
C1406 C 0.54425 0.39187 0.64384 0.0
C1407 C 0.52663 0.39696 0.65991 0.0
H1408 H 0.06085 0.44811 0.23548 0.0
H1409 H 0.07966 0.46942 0.32219 0.0
H1410 H 0.06294 0.48299 0.21645 0.0
H1411 H 0.08276 0.50417 0.30295 0.0
H1412 H 0.06098 0.56674 0.26931 0.0
H1413 H 0.06257 0.53185 0.28828 0.0
H1414 H 0.08349 0.51065 0.20237 0.0
H1415 H 0.08089 0.54546 0.18313 0.0
C1416 C 0.06582 0.46021 0.25035 0.0
C1417 C 0.06997 0.456 0.28038 0.0
C1418 C 0.06714 0.48026 0.2394 0.0
C1419 C 0.07293 0.49661 0.25812 0.0
C1420 C 0.0778 0.49217 0.28795 0.0
C1421 C 0.07619 0.47217 0.29897 0.0
C1422 C 0.0661 0.55465 0.25456 0.0
C1423 C 0.07071 0.55888 0.22468 0.0
C1424 C 0.06713 0.53458 0.26548 0.0
C1425 C 0.07308 0.51822 0.2469 0.0
C1426 C 0.0784 0.52267 0.21724 0.0
C1427 C 0.07709 0.5427 0.20623 0.0
H1428 H 0.79447 0.83056 0.57332 0.0
H1429 H 0.81568 0.81162 0.48667 0.0
H1430 H 0.75964 0.83332 0.55424 0.0
H1431 H 0.78074 0.81331 0.4678 0.0
H1432 H 0.71789 0.82969 0.43454 0.0
H1433 H 0.75272 0.8331 0.45351 0.0
H1434 H 0.73206 0.81297 0.54011 0.0
H1435 H 0.69715 0.81062 0.52138 0.0
C1436 C 0.79168 0.82699 0.55014 0.0
C1437 C 0.80785 0.82084 0.53153 0.0
C1438 C 0.77163 0.8284 0.5392 0.0
C1439 C 0.76713 0.82335 0.50945 0.0
C1440 C 0.78348 0.81765 0.49069 0.0
C1441 C 0.80359 0.81656 0.50154 0.0
C1442 C 0.72078 0.82626 0.45774 0.0
C1443 C 0.70474 0.81987 0.47644 0.0
C1444 C 0.74083 0.82803 0.46861 0.0
C1445 C 0.74545 0.82314 0.49838 0.0
C1446 C 0.72922 0.81721 0.51721 0.0
C1447 C 0.70912 0.81575 0.50643 0.0
H1448 H 0.45114 0.46962 0.68405 0.0
H1449 H 0.43384 0.44538 0.76975 0.0
H1450 H 0.44862 0.50427 0.70338 0.0
H1451 H 0.43015 0.48017 0.78888 0.0
H1452 H 0.45163 0.5425 0.82362 0.0
H1453 H 0.44975 0.50782 0.80428 0.0
H1454 H 0.42871 0.53143 0.71973 0.0
H1455 H 0.43174 0.5663 0.73883 0.0
C1456 C 0.44636 0.47171 0.70691 0.0
C1457 C 0.4428 0.45471 0.7254 0.0
C1458 C 0.44477 0.49168 0.71803 0.0
C1459 C 0.43925 0.49525 0.74787 0.0
C1460 C 0.4349 0.47816 0.76601 0.0
C1461 C 0.43683 0.45816 0.75498 0.0
C1462 C 0.44644 0.54029 0.80096 0.0
C1463 C 0.44194 0.55719 0.78273 0.0
C1464 C 0.44521 0.52029 0.78985 0.0
C1465 C 0.43912 0.51659 0.76027 0.0
C1466 C 0.43389 0.53356 0.74238 0.0
C1467 C 0.43546 0.5536 0.7534 0.0
H1468 H 0.79406 0.18919 0.92881 0.0
H1469 H 0.81681 0.20374 0.01644 0.0
H1470 H 0.75946 0.18609 0.94861 0.0
H1471 H 0.7821 0.20184 0.03612 0.0
H1472 H 0.71978 0.18409 0.06985 0.0
H1473 H 0.75429 0.18177 0.04949 0.0
H1474 H 0.73211 0.20541 0.96557 0.0
H1475 H 0.69748 0.20657 0.98559 0.0
C1476 C 0.79163 0.19178 0.95235 0.0
C1477 C 0.80817 0.19672 0.97105 0.0
C1478 C 0.77172 0.19018 0.96372 0.0
C1479 C 0.76773 0.19386 0.99404 0.0
C1480 C 0.78444 0.19852 0.01279 0.0
C1481 C 0.80441 0.19975 1.00148 0.0
C1482 C 0.72228 0.18855 0.04693 0.0
C1483 C 0.7059 0.19552 0.02934 0.0
C1484 C 0.74215 0.18741 0.03528 0.0
C1485 C 0.74625 0.19358 0.00585 0.0
C1486 C 0.72968 0.20018 0.98813 0.0
C1487 C 0.70975 0.20096 0.99965 0.0
H1488 H 0.93557 0.44564 0.73489 0.0
H1489 H 0.95356 0.47033 0.82006 0.0
H1490 H 0.93188 0.48033 0.71539 0.0
H1491 H 0.95097 0.50488 0.80036 0.0
H1492 H 0.93349 0.56665 0.76441 0.0
H1493 H 0.93068 0.53187 0.78392 0.0
H1494 H 0.95167 0.50788 0.69959 0.0
H1495 H 0.9534 0.54247 0.67986 0.0
C1496 C 0.9387 0.45848 0.74946 0.0
C1497 C 0.94487 0.4552 0.77901 0.0
C1498 C 0.93676 0.47843 0.73823 0.0
C1499 C 0.94128 0.49561 0.75612 0.0
C1500 C 0.947 0.49221 0.78591 0.0
C1501 C 0.94863 0.4723 0.79723 0.0
C1502 C 0.93726 0.55389 0.74998 0.0
C1503 C 0.94368 0.55735 0.7206 0.0
C1504 C 0.93581 0.53391 0.76122 0.0
C1505 C 0.94107 0.51686 0.7435 0.0
C1506 C 0.94711 0.52043 0.71389 0.0
C1507 C 0.94825 0.54036 0.70255 0.0
H1508 H 0.31633 0.20245 0.48746 0.0
H1509 H 0.29392 0.18742 0.57507 0.0
H1510 H 0.28153 0.20067 0.46801 0.0
H1511 H 0.25923 0.18451 0.5555 0.0
H1512 H 0.19727 0.20578 0.51938 0.0
H1513 H 0.23199 0.20428 0.539 0.0
H1514 H 0.25351 0.18067 0.45472 0.0
H1515 H 0.21888 0.18328 0.43475 0.0
C1516 C 0.30399 0.19838 0.50247 0.0
C1517 C 0.30788 0.19519 0.53283 0.0
C1518 C 0.28397 0.19723 0.49129 0.0
C1519 C 0.26734 0.19252 0.51011 0.0
C1520 C 0.27144 0.18864 0.54035 0.0
C1521 C 0.29141 0.19014 0.55159 0.0
C1522 C 0.2094 0.2001 0.50514 0.0
C1523 C 0.20532 0.19474 0.47547 0.0
C1524 C 0.22938 0.19911 0.51644 0.0
C1525 C 0.24579 0.19242 0.49851 0.0
C1526 C 0.24148 0.18635 0.46909 0.0
C1527 C 0.22154 0.18766 0.45767 0.0
H1528 H 0.57982 0.56687 0.24106 0.0
H1529 H 0.55822 0.54253 0.32464 0.0
H1530 H 0.58248 0.53216 0.22125 0.0
H1531 H 0.55988 0.508 0.30458 0.0
H1532 H 0.57718 0.44592 0.26924 0.0
H1533 H 0.58022 0.48055 0.28922 0.0
H1534 H 0.56199 0.50532 0.20402 0.0
H1535 H 0.55997 0.47083 0.18387 0.0
C1536 C 0.57563 0.5541 0.2552 0.0
C1537 C 0.5688 0.55748 0.28441 0.0
C1538 C 0.577 0.53416 0.24379 0.0
C1539 C 0.57129 0.5171 0.26116 0.0
C1540 C 0.56477 0.52058 0.29058 0.0
C1541 C 0.56368 0.54047 0.30209 0.0
C1542 C 0.57405 0.4588 0.25473 0.0
C1543 C 0.56831 0.4556 0.22498 0.0
C1544 C 0.57563 0.4787 0.26624 0.0
C1545 C 0.57122 0.49591 0.24838 0.0
C1546 C 0.56586 0.49261 0.21843 0.0
C1547 C 0.56456 0.47274 0.20686 0.0
H1548 H 0.2192 0.8318 0.07247 0.0
H1549 H 0.19801 0.81125 0.98654 0.0
H1550 H 0.25403 0.83435 0.05325 0.0
H1551 H 0.23291 0.81279 0.9676 0.0
H1552 H 0.31673 0.81202 0.02041 0.0
H1553 H 0.28183 0.81393 0.03941 0.0
H1554 H 0.2605 0.83301 0.95265 0.0
H1555 H 0.29528 0.83008 0.93347 0.0
C1556 C 0.22199 0.82784 0.04943 0.0
C1557 C 0.20582 0.82132 0.03104 0.0
C1558 C 0.24203 0.82913 0.03843 0.0
C1559 C 0.24651 0.82363 0.00884 0.0
C1560 C 0.23017 0.81749 0.99033 0.0
C1561 C 0.21008 0.81649 1.00124 0.0
C1562 C 0.3046 0.81678 0.00548 0.0
C1563 C 0.30878 0.82078 0.97539 0.0
C1564 C 0.28452 0.81799 0.0164 0.0
C1565 C 0.26813 0.82354 0.99761 0.0
C1566 C 0.27253 0.82824 0.96772 0.0
C1567 C 0.29255 0.82672 0.95672 0.0
H1568 H 0.56075 0.94807 0.73644 0.0
H1569 H 0.58114 0.96937 0.8224 0.0
H1570 H 0.56237 0.98293 0.71739 0.0
H1571 H 0.58377 1.00415 0.80307 0.0
H1572 H 0.56106 0.06671 0.77015 0.0
H1573 H 0.56331 0.03186 0.7892 0.0
H1574 H 0.58243 0.01062 0.70242 0.0
H1575 H 0.57915 0.04536 0.68318 0.0
C1576 C 0.56599 0.96016 0.75112 0.0
C1577 C 0.57072 0.95594 0.78097 0.0
C1578 C 0.56703 0.98022 0.74015 0.0
C1579 C 0.57313 0.99658 0.75864 0.0
C1580 C 0.57858 0.99214 0.78826 0.0
C1581 C 0.57724 0.97212 0.79932 0.0
C1582 C 0.56592 0.05461 0.75523 0.0
C1583 C 0.56981 0.0588 0.72511 0.0
C1584 C 0.56733 0.03456 0.76618 0.0
C1585 C 0.57296 0.0182 0.7474 0.0
C1586 C 0.57759 0.02263 0.71749 0.0
C1587 C 0.57589 0.04262 0.70646 0.0
H1588 H 0.2948 0.32797 0.07167 0.0
H1589 H 0.31627 0.30893 0.98519 0.0
H1590 H 0.26008 0.33107 0.0522 0.0
H1591 H 0.28147 0.31095 0.96596 0.0
H1592 H 0.21927 0.32869 0.93189 0.0
H1593 H 0.25398 0.3313 0.95144 0.0
H1594 H 0.23227 0.31111 0.03747 0.0
H1595 H 0.19743 0.30959 0.01813 0.0
C1596 C 0.29209 0.32446 0.04845 0.0
C1597 C 0.3083 0.3182 0.02998 0.0
C1598 C 0.27211 0.32606 0.0373 0.0
C1599 C 0.26774 0.3211 0.00747 0.0
C1600 C 0.28413 0.31524 0.98889 0.0
C1601 C 0.30416 0.31396 0.99995 0.0
C1602 C 0.22191 0.32503 0.95507 0.0
C1603 C 0.2056 0.3189 0.97344 0.0
C1604 C 0.24189 0.32635 0.96628 0.0
C1605 C 0.24616 0.32124 0.99607 0.0
C1606 C 0.22968 0.3155 0.01456 0.0
C1607 C 0.20964 0.3145 0.00344 0.0
H1608 H 0.95191 0.06591 0.23678 0.0
H1609 H 0.93404 0.04378 0.32343 0.0
H1610 H 0.94994 0.03118 0.21718 0.0
H1611 H 0.93102 0.00916 0.30364 0.0
H1612 H 0.95228 0.94686 0.26832 0.0
H1613 H 0.95097 0.98158 0.28803 0.0
H1614 H 0.92939 1.00364 0.2029 0.0
H1615 H 0.93173 0.96901 0.18293 0.0
C1616 C 0.94719 0.05366 0.25152 0.0
C1617 C 0.94324 0.0576 0.28169 0.0
C1618 C 0.94593 0.03368 0.24025 0.0
C1619 C 0.94039 0.01714 0.25877 0.0
C1620 C 0.93578 0.0213 0.28877 0.0
C1621 C 0.93735 0.04123 0.30011 0.0
C1622 C 0.94708 0.95911 0.25391 0.0
C1623 C 0.9422 0.95518 0.22403 0.0
C1624 C 0.94622 0.97909 0.26525 0.0
C1625 C 0.94016 0.99564 0.24711 0.0
C1626 C 0.93458 0.99148 0.21745 0.0
C1627 C 0.93574 0.97155 0.20601 0.0
H1628 H 0.29633 0.68109 0.43541 0.0
H1629 H 0.31669 0.7029 0.52112 0.0
H1630 H 0.26142 0.67822 0.45428 0.0
H1631 H 0.28173 0.70096 0.53969 0.0
H1632 H 0.21931 0.68368 0.57334 0.0
H1633 H 0.25419 0.68045 0.55462 0.0
H1634 H 0.23344 0.69889 0.46729 0.0
H1635 H 0.19845 0.70117 0.48583 0.0
C1636 C 0.29336 0.68521 0.45833 0.0
C1637 C 0.30931 0.69224 0.47674 0.0
C1638 C 0.27327 0.68374 0.46913 0.0
C1639 C 0.26854 0.68951 0.49852 0.0
C1640 C 0.28468 0.69606 0.5171 0.0
C1641 C 0.3048 0.69728 0.5064 0.0
C1642 C 0.22218 0.68681 0.55005 0.0
C1643 C 0.20609 0.69273 0.5311 0.0
C1644 C 0.24225 0.68512 0.53932 0.0
C1645 C 0.24685 0.68959 0.50942 0.0
C1646 C 0.23059 0.69502 0.49032 0.0
C1647 C 0.21047 0.69644 0.50099 0.0
H1648 H 0.43574 0.06721 0.26574 0.0
H1649 H 0.45413 0.04095 0.18174 0.0
H1650 H 0.43271 0.03291 0.28688 0.0
H1651 H 0.45203 0.0068 0.20306 0.0
H1652 H 0.43329 0.94592 0.24197 0.0
H1653 H 0.43101 0.98029 0.22083 0.0
H1654 H 0.45335 1.0058 0.30347 0.0
H1655 H 0.45473 0.97163 0.32483 0.0
C1656 C 0.43913 0.05411 0.25178 0.0
C1657 C 0.4452 0.05684 0.22208 0.0
C1658 C 0.43755 0.0344 0.26395 0.0
C1659 C 0.44224 0.01693 0.24682 0.0
C1660 C 0.44795 0.01974 0.2169 0.0
C1661 C 0.44929 0.03941 0.20467 0.0
C1662 C 0.43752 0.95891 0.25567 0.0
C1663 C 0.4442 0.95601 0.28508 0.0
C1664 C 0.43636 0.97865 0.24349 0.0
C1665 C 0.44208 0.99597 0.26031 0.0
C1666 C 0.44846 0.99299 0.2899 0.0
C1667 C 0.4494 0.9733 0.30215 0.0
H1668 H 0.79395 0.68159 0.07136 0.0
H1669 H 0.81613 0.70117 0.98551 0.0
H1670 H 0.75937 0.67878 0.05135 0.0
H1671 H 0.78143 0.69937 0.96572 0.0
H1672 H 0.71911 0.68217 0.93081 0.0
H1673 H 0.75375 0.67918 0.95062 0.0
H1674 H 0.73193 0.6993 0.03661 0.0
H1675 H 0.69721 0.70128 0.01704 0.0
C1676 C 0.79143 0.68528 0.04816 0.0
C1677 C 0.8078 0.69164 0.03005 0.0
C1678 C 0.77152 0.68385 0.0367 0.0
C1679 C 0.76738 0.68903 0.00689 0.0
C1680 C 0.78392 0.69494 0.98863 0.0
C1681 C 0.80388 0.69608 1.00002 0.0
C1682 C 0.7217 0.68572 0.95404 0.0
C1683 C 0.70539 0.69198 0.97233 0.0
C1684 C 0.74164 0.68418 0.96539 0.0
C1685 C 0.74586 0.68914 0.99526 0.0
C1686 C 0.72937 0.695 0.01366 0.0
C1687 C 0.7094 0.69626 1.00239 0.0
H1688 H 0.07876 0.06763 0.73728 0.0
H1689 H 0.05896 0.04292 0.82155 0.0
H1690 H 0.08258 0.03295 0.71778 0.0
H1691 H 0.06171 0.00838 0.80182 0.0
H1692 H 0.07963 0.9466 0.76643 0.0
H1693 H 0.08228 0.98134 0.78612 0.0
H1694 H 0.06292 1.00551 0.70108 0.0
H1695 H 0.06134 0.97094 0.6812 0.0
C1696 C 0.07524 0.05478 0.75165 0.0
C1697 C 0.06853 0.05806 0.78095 0.0
C1698 C 0.07727 0.03484 0.74041 0.0
C1699 C 0.07232 0.01767 0.75804 0.0
C1700 C 0.06603 0.02106 0.78759 0.0
C1701 C 0.0643 0.04095 0.79893 0.0
C1702 C 0.0762 0.95938 0.75189 0.0
C1703 C 0.07026 0.95598 0.72227 0.0
C1704 C 0.07755 0.97935 0.76323 0.0
C1705 C 0.07268 0.99643 0.74536 0.0
C1706 C 0.06716 0.99292 0.71551 0.0
C1707 C 0.06611 0.973 0.70409 0.0
H1708 H 0.71924 0.33052 0.57339 0.0
H1709 H 0.6973 0.31123 0.48724 0.0
H1710 H 0.75391 0.33326 0.55366 0.0
H1711 H 0.73206 0.31295 0.46775 0.0
H1712 H 0.79427 0.33019 0.43314 0.0
H1713 H 0.75966 0.33321 0.45294 0.0
H1714 H 0.78147 0.31292 0.53887 0.0
H1715 H 0.8162 0.31093 0.51929 0.0
C1716 C 0.72183 0.32687 0.55019 0.0
C1717 C 0.70551 0.32064 0.53189 0.0
C1718 C 0.74179 0.32827 0.53889 0.0
C1719 C 0.74601 0.32317 0.50908 0.0
C1720 C 0.72951 0.31734 0.49067 0.0
C1721 C 0.70951 0.31623 0.50188 0.0
C1722 C 0.79169 0.32662 0.45636 0.0
C1723 C 0.80799 0.3203 0.47462 0.0
C1724 C 0.77177 0.32817 0.4677 0.0
C1725 C 0.76754 0.32313 0.49753 0.0
C1726 C 0.78403 0.31725 0.51594 0.0
C1727 C 0.80401 0.316 0.50467 0.0
loop_
_geom_bond_atom_site_label_1
_geom_bond_atom_site_label_2
_geom_bond_distance
_geom_bond_site_symmetry_2
_ccdc_geom_bond_type
O0 Cd1 2.223 . S
O0 C8 1.315 . S
Cd1 O0 2.223 . S
Cd1 O4 2.297 . S
Cd1 O5 2.439 . S
Cd1 O11 2.240 . S
Cd2 O3 2.240 . S
Cd2 O10 2.223 . S
Cd2 O12 2.297 . S
Cd2 O13 2.439 . S
O3 Cd2 2.240 . S
O3 C8 1.279 . S
O4 Cd1 2.297 . S
O4 C6 1.247 . S
O5 Cd1 2.439 . S
O5 C6 1.208 . S
C6 O4 1.247 . S
C6 O5 1.208 . S
C7 O12 1.247 . S
C7 O13 1.208 . S
C8 O0 1.315 . S
C8 O3 1.279 . S
C9 O10 1.315 . S
C9 O11 1.279 . S
O10 Cd2 2.223 . S
O10 C9 1.315 . S
O11 Cd1 2.240 . S
O11 C9 1.279 . S
O12 Cd2 2.297 . S
O12 C7 1.247 . S
O13 Cd2 2.439 . S
O13 C7 1.208 . S
O14 Cd15 2.223 . S
O14 C22 1.315 . S
Cd15 O14 2.223 . S
Cd15 O18 2.297 . S
Cd15 O19 2.439 . S
Cd15 O25 2.240 . S
Cd16 O17 2.240 . S
Cd16 O24 2.223 . S
Cd16 O26 2.297 . S
Cd16 O27 2.439 . S
O17 Cd16 2.240 . S
O17 C22 1.279 . S
O18 Cd15 2.297 . S
O18 C20 1.247 . S
O19 Cd15 2.439 . S
O19 C20 1.208 . S
C20 O18 1.247 . S
C20 O19 1.208 . S
C21 O26 1.247 . S
C21 O27 1.208 . S
C22 O14 1.315 . S
C22 O17 1.279 . S
C23 O24 1.315 . S
C23 O25 1.279 . S
O24 Cd16 2.223 . S
O24 C23 1.315 . S
O25 Cd15 2.240 . S
O25 C23 1.279 . S
O26 Cd16 2.297 . S
O26 C21 1.247 . S
O27 Cd16 2.439 . S
O27 C21 1.208 . S
O28 Cd29 2.223 . S
O28 C36 1.315 . S
Cd29 O28 2.223 . S
Cd29 O32 2.297 . S
Cd29 O33 2.439 . S
Cd29 O39 2.240 . S
Cd30 O31 2.240 . S
Cd30 O38 2.223 . S
Cd30 O40 2.297 . S
Cd30 O41 2.439 . S
O31 Cd30 2.240 . S
O31 C36 1.279 . S
O32 Cd29 2.297 . S
O32 C34 1.247 . S
O33 Cd29 2.439 . S
O33 C34 1.208 . S
C34 O32 1.247 . S
C34 O33 1.208 . S
C35 O40 1.247 . S
C35 O41 1.208 . S
C36 O28 1.315 . S
C36 O31 1.279 . S
C37 O38 1.315 . S
C37 O39 1.279 . S
O38 Cd30 2.223 . S
O38 C37 1.315 . S
O39 Cd29 2.240 . S
O39 C37 1.279 . S
O40 Cd30 2.297 . S
O40 C35 1.247 . S
O41 Cd30 2.439 . S
O41 C35 1.208 . S
O42 Cd43 2.223 . S
O42 C50 1.315 . S
Cd43 O42 2.223 . S
Cd43 O46 2.297 . S
Cd43 O47 2.439 . S
Cd43 O53 2.240 . S
Cd44 O45 2.240 . S
Cd44 O52 2.223 . S
Cd44 O54 2.297 1_554 S
Cd44 O55 2.439 1_554 S
O45 Cd44 2.240 . S
O45 C50 1.279 . S
O46 Cd43 2.297 . S
O46 C48 1.247 . S
O47 Cd43 2.439 . S
O47 C48 1.208 . S
C48 O46 1.247 . S
C48 O47 1.208 . S
C49 O54 1.247 . S
C49 O55 1.208 . S
C50 O42 1.315 . S
C50 O45 1.279 . S
C51 O52 1.315 . S
C51 O53 1.279 . S
O52 Cd44 2.223 . S
O52 C51 1.315 . S
O53 Cd43 2.240 . S
O53 C51 1.279 . S
O54 Cd44 2.297 1_556 S
O54 C49 1.247 . S
O55 Cd44 2.439 1_556 S
O55 C49 1.208 . S
O56 Cd57 2.223 . S
O56 C64 1.315 . S
Cd57 O56 2.223 . S
Cd57 O60 2.297 . S
Cd57 O61 2.439 . S
Cd57 O67 2.240 . S
Cd58 O59 2.240 . S
Cd58 O66 2.223 . S
Cd58 O68 2.297 . S
Cd58 O69 2.439 . S
O59 Cd58 2.240 . S
O59 C64 1.279 . S
O60 Cd57 2.297 . S
O60 C62 1.247 . S
O61 Cd57 2.439 . S
O61 C62 1.208 . S
C62 O60 1.247 . S
C62 O61 1.208 . S
C63 O68 1.247 . S
C63 O69 1.208 . S
C64 O56 1.315 . S
C64 O59 1.279 . S
C65 O66 1.315 . S
C65 O67 1.279 . S
O66 Cd58 2.223 . S
O66 C65 1.315 . S
O67 Cd57 2.240 . S
O67 C65 1.279 . S
O68 Cd58 2.297 . S
O68 C63 1.247 . S
O69 Cd58 2.439 . S
O69 C63 1.208 . S
O70 Cd71 2.223 . S
O70 C78 1.315 . S
Cd71 O70 2.223 . S
Cd71 O74 2.297 . S
Cd71 O75 2.439 . S
Cd71 O81 2.240 . S
Cd72 O73 2.240 . S
Cd72 O80 2.223 . S
Cd72 O82 2.297 . S
Cd72 O83 2.439 . S
O73 Cd72 2.240 . S
O73 C78 1.279 . S
O74 Cd71 2.297 . S
O74 C76 1.247 . S
O75 Cd71 2.439 . S
O75 C76 1.208 . S
C76 O74 1.247 . S
C76 O75 1.208 . S
C77 O82 1.247 . S
C77 O83 1.208 . S
C78 O70 1.315 . S
C78 O73 1.279 . S
C79 O80 1.315 . S
C79 O81 1.279 . S
O80 Cd72 2.223 . S
O80 C79 1.315 . S
O81 Cd71 2.240 . S
O81 C79 1.279 . S
O82 Cd72 2.297 . S
O82 C77 1.247 . S
O83 Cd72 2.439 . S
O83 C77 1.208 . S
O84 Cd85 2.223 . S
O84 C92 1.315 . S
Cd85 O84 2.223 . S
Cd85 O88 2.297 . S
Cd85 O89 2.439 . S
Cd85 O95 2.240 . S
Cd86 O87 2.240 . S
Cd86 O94 2.223 . S
Cd86 O96 2.297 . S
Cd86 O97 2.439 . S
O87 Cd86 2.240 . S
O87 C92 1.279 . S
O88 Cd85 2.297 . S
O88 C90 1.247 . S
O89 Cd85 2.439 . S
O89 C90 1.208 . S
C90 O88 1.247 . S
C90 O89 1.208 . S
C91 O96 1.247 . S
C91 O97 1.208 . S
C92 O84 1.315 . S
C92 O87 1.279 . S
C93 O94 1.315 . S
C93 O95 1.279 . S
O94 Cd86 2.223 . S
O94 C93 1.315 . S
O95 Cd85 2.240 . S
O95 C93 1.279 . S
O96 Cd86 2.297 . S
O96 C91 1.247 . S
O97 Cd86 2.439 . S
O97 C91 1.208 . S
O98 Cd99 2.223 . S
O98 C106 1.315 . S
Cd99 O98 2.223 . S
Cd99 O102 2.297 . S
Cd99 O103 2.439 . S
Cd99 O109 2.240 . S
Cd100 O101 2.240 . S
Cd100 O108 2.223 . S
Cd100 O110 2.297 1_556 S
Cd100 O111 2.439 1_556 S
O101 Cd100 2.240 . S
O101 C106 1.279 . S
O102 Cd99 2.297 . S
O102 C104 1.247 . S
O103 Cd99 2.439 . S
O103 C104 1.208 . S
C104 O102 1.247 . S
C104 O103 1.208 . S
C105 O110 1.247 . S
C105 O111 1.208 . S
C106 O98 1.315 . S
C106 O101 1.279 . S
C107 O108 1.315 . S
C107 O109 1.279 . S
O108 Cd100 2.223 . S
O108 C107 1.315 . S
O109 Cd99 2.240 . S
O109 C107 1.279 . S
O110 Cd100 2.297 1_554 S
O110 C105 1.247 . S
O111 Cd100 2.439 1_554 S
O111 C105 1.208 . S
O112 Cd113 2.223 . S
O112 C120 1.315 . S
Cd113 O112 2.223 . S
Cd113 O116 2.297 . S
Cd113 O117 2.439 . S
Cd113 O123 2.240 . S
Cd114 O115 2.240 . S
Cd114 O122 2.223 . S
Cd114 O124 2.297 . S
Cd114 O125 2.439 . S
O115 Cd114 2.240 . S
O115 C120 1.279 . S
O116 Cd113 2.297 . S
O116 C118 1.247 . S
O117 Cd113 2.439 . S
O117 C118 1.208 . S
C118 O116 1.247 . S
C118 O117 1.208 . S
C119 O124 1.247 . S
C119 O125 1.208 . S
C120 O112 1.315 . S
C120 O115 1.279 . S
C121 O122 1.315 . S
C121 O123 1.279 . S
O122 Cd114 2.223 . S
O122 C121 1.315 . S
O123 Cd113 2.240 . S
O123 C121 1.279 . S
O124 Cd114 2.297 . S
O124 C119 1.247 . S
O125 Cd114 2.439 . S
O125 C119 1.208 . S
O126 Cd127 2.223 . S
O126 C134 1.315 . S
Cd127 O126 2.223 . S
Cd127 O130 2.297 . S
Cd127 O131 2.439 . S
Cd127 O137 2.240 . S
Cd128 O129 2.240 . S
Cd128 O136 2.223 . S
Cd128 O138 2.297 . S
Cd128 O139 2.439 . S
O129 Cd128 2.240 . S
O129 C134 1.279 . S
O130 Cd127 2.297 . S
O130 C132 1.247 . S
O131 Cd127 2.439 . S
O131 C132 1.208 . S
C132 O130 1.247 . S
C132 O131 1.208 . S
C133 O138 1.247 . S
C133 O139 1.208 . S
C134 O126 1.315 . S
C134 O129 1.279 . S
C135 O136 1.315 . S
C135 O137 1.279 . S
O136 Cd128 2.223 . S
O136 C135 1.315 . S
O137 Cd127 2.240 . S
O137 C135 1.279 . S
O138 Cd128 2.297 . S
O138 C133 1.247 . S
O139 Cd128 2.439 . S
O139 C133 1.208 . S
O140 Cd141 2.223 . S
O140 C148 1.315 . S
Cd141 O140 2.223 . S
Cd141 O144 2.297 . S
Cd141 O145 2.439 . S
Cd141 O151 2.240 . S
Cd142 O143 2.240 . S
Cd142 O150 2.223 . S
Cd142 O152 2.297 . S
Cd142 O153 2.439 . S
O143 Cd142 2.240 . S
O143 C148 1.279 . S
O144 Cd141 2.297 . S
O144 C146 1.247 . S
O145 Cd141 2.439 . S
O145 C146 1.208 . S
C146 O144 1.247 . S
C146 O145 1.208 . S
C147 O152 1.247 . S
C147 O153 1.208 . S
C148 O140 1.315 . S
C148 O143 1.279 . S
C149 O150 1.315 . S
C149 O151 1.279 . S
O150 Cd142 2.223 . S
O150 C149 1.315 . S
O151 Cd141 2.240 . S
O151 C149 1.279 . S
O152 Cd142 2.297 . S
O152 C147 1.247 . S
O153 Cd142 2.439 . S
O153 C147 1.208 . S
O154 Cd155 2.223 . S
O154 C162 1.315 . S
Cd155 O154 2.223 . S
Cd155 O158 2.297 . S
Cd155 O159 2.439 . S
Cd155 O165 2.240 . S
Cd156 O157 2.240 . S
Cd156 O164 2.223 . S
Cd156 O166 2.297 1_556 S
Cd156 O167 2.439 1_556 S
O157 Cd156 2.240 . S
O157 C162 1.279 . S
O158 Cd155 2.297 . S
O158 C160 1.247 . S
O159 Cd155 2.439 . S
O159 C160 1.208 . S
C160 O158 1.247 . S
C160 O159 1.208 . S
C161 O166 1.247 . S
C161 O167 1.208 . S
C162 O154 1.315 . S
C162 O157 1.279 . S
C163 O164 1.315 . S
C163 O165 1.279 . S
O164 Cd156 2.223 . S
O164 C163 1.315 . S
O165 Cd155 2.240 . S
O165 C163 1.279 . S
O166 Cd156 2.297 1_554 S
O166 C161 1.247 . S
O167 Cd156 2.439 1_554 S
O167 C161 1.208 . S
O168 Cd169 2.223 . S
O168 C176 1.315 . S
Cd169 O168 2.223 . S
Cd169 O172 2.297 . S
Cd169 O173 2.439 . S
Cd169 O179 2.240 . S
Cd170 O171 2.240 . S
Cd170 O178 2.223 . S
Cd170 O180 2.297 . S
Cd170 O181 2.439 . S
O171 Cd170 2.240 . S
O171 C176 1.279 . S
O172 Cd169 2.297 . S
O172 C174 1.247 . S
O173 Cd169 2.439 . S
O173 C174 1.208 . S
C174 O172 1.247 . S
C174 O173 1.208 . S
C175 O180 1.247 . S
C175 O181 1.208 . S
C176 O168 1.315 . S
C176 O171 1.279 . S
C177 O178 1.315 . S
C177 O179 1.279 . S
O178 Cd170 2.223 . S
O178 C177 1.315 . S
O179 Cd169 2.240 . S
O179 C177 1.279 . S
O180 Cd170 2.297 . S
O180 C175 1.247 . S
O181 Cd170 2.439 . S
O181 C175 1.208 . S
O182 Cd183 2.223 . S
O182 C190 1.315 . S
Cd183 O182 2.223 . S
Cd183 O186 2.297 . S
Cd183 O187 2.439 . S
Cd183 O193 2.240 . S
Cd184 O185 2.240 . S
Cd184 O192 2.223 . S
Cd184 O194 2.297 . S
Cd184 O195 2.439 . S
O185 Cd184 2.240 . S
O185 C190 1.279 . S
O186 Cd183 2.297 . S
O186 C188 1.247 . S
O187 Cd183 2.439 . S
O187 C188 1.208 . S
C188 O186 1.247 . S
C188 O187 1.208 . S
C189 O194 1.247 . S
C189 O195 1.208 . S
C190 O182 1.315 . S
C190 O185 1.279 . S
C191 O192 1.315 . S
C191 O193 1.279 . S
O192 Cd184 2.223 . S
O192 C191 1.315 . S
O193 Cd183 2.240 . S
O193 C191 1.279 . S
O194 Cd184 2.297 . S
O194 C189 1.247 . S
O195 Cd184 2.439 . S
O195 C189 1.208 . S
O196 Cd197 2.223 . S
O196 C204 1.315 . S
Cd197 O196 2.223 . S
Cd197 O200 2.297 . S
Cd197 O201 2.439 . S
Cd197 O207 2.240 . S
Cd198 O199 2.240 . S
Cd198 O206 2.223 . S
Cd198 O208 2.297 . S
Cd198 O209 2.439 . S
O199 Cd198 2.240 . S
O199 C204 1.279 . S
O200 Cd197 2.297 . S
O200 C202 1.247 . S
O201 Cd197 2.439 . S
O201 C202 1.208 . S
C202 O200 1.247 . S
C202 O201 1.208 . S
C203 O208 1.247 . S
C203 O209 1.208 . S
C204 O196 1.315 . S
C204 O199 1.279 . S
C205 O206 1.315 . S
C205 O207 1.279 . S
O206 Cd198 2.223 . S
O206 C205 1.315 . S
O207 Cd197 2.240 . S
O207 C205 1.279 . S
O208 Cd198 2.297 . S
O208 C203 1.247 . S
O209 Cd198 2.439 . S
O209 C203 1.208 . S
O210 Cd211 2.223 . S
O210 C218 1.315 . S
Cd211 O210 2.223 . S
Cd211 O214 2.297 . S
Cd211 O215 2.439 . S
Cd211 O221 2.240 . S
Cd212 O213 2.240 . S
Cd212 O220 2.223 . S
Cd212 O222 2.297 1_554 S
Cd212 O223 2.439 1_554 S
O213 Cd212 2.240 . S
O213 C218 1.279 . S
O214 Cd211 2.297 . S
O214 C216 1.247 . S
O215 Cd211 2.439 . S
O215 C216 1.208 . S
C216 O214 1.247 . S
C216 O215 1.208 . S
C217 O222 1.247 . S
C217 O223 1.208 . S
C218 O210 1.315 . S
C218 O213 1.279 . S
C219 O220 1.315 . S
C219 O221 1.279 . S
O220 Cd212 2.223 . S
O220 C219 1.315 . S
O221 Cd211 2.240 . S
O221 C219 1.279 . S
O222 Cd212 2.297 1_556 S
O222 C217 1.247 . S
O223 Cd212 2.439 1_556 S
O223 C217 1.208 . S
O224 Cd225 2.223 . S
O224 C232 1.315 . S
Cd225 O224 2.223 . S
Cd225 O228 2.297 . S
Cd225 O229 2.439 . S
Cd225 O235 2.240 . S
Cd226 O227 2.240 . S
Cd226 O234 2.223 . S
Cd226 O236 2.297 . S
Cd226 O237 2.439 . S
O227 Cd226 2.240 . S
O227 C232 1.279 . S
O228 Cd225 2.297 . S
O228 C230 1.247 . S
O229 Cd225 2.439 . S
O229 C230 1.208 . S
C230 O228 1.247 . S
C230 O229 1.208 . S
C231 O236 1.247 . S
C231 O237 1.208 . S
C232 O224 1.315 . S
C232 O227 1.279 . S
C233 O234 1.315 . S
C233 O235 1.279 . S
O234 Cd226 2.223 . S
O234 C233 1.315 . S
O235 Cd225 2.240 . S
O235 C233 1.279 . S
O236 Cd226 2.297 . S
O236 C231 1.247 . S
O237 Cd226 2.439 . S
O237 C231 1.208 . S
O238 Cd239 2.223 . S
O238 C246 1.315 . S
Cd239 O238 2.223 . S
Cd239 O242 2.297 . S
Cd239 O243 2.439 . S
Cd239 O249 2.240 . S
Cd240 O241 2.240 . S
Cd240 O248 2.223 . S
Cd240 O250 2.297 1_554 S
Cd240 O251 2.439 1_554 S
O241 Cd240 2.240 . S
O241 C246 1.279 . S
O242 Cd239 2.297 . S
O242 C244 1.247 . S
O243 Cd239 2.439 . S
O243 C244 1.208 . S
C244 O242 1.247 . S
C244 O243 1.208 . S
C245 O250 1.247 . S
C245 O251 1.208 . S
C246 O238 1.315 . S
C246 O241 1.279 . S
C247 O248 1.315 . S
C247 O249 1.279 . S
O248 Cd240 2.223 . S
O248 C247 1.315 . S
O249 Cd239 2.240 . S
O249 C247 1.279 . S
O250 Cd240 2.297 1_556 S
O250 C245 1.247 . S
O251 Cd240 2.439 1_556 S
O251 C245 1.208 . S
O252 Cd253 2.223 . S
O252 C260 1.315 . S
Cd253 O252 2.223 . S
Cd253 O256 2.297 . S
Cd253 O257 2.439 . S
Cd253 O263 2.240 . S
Cd254 O255 2.240 . S
Cd254 O262 2.223 . S
Cd254 O264 2.297 . S
Cd254 O265 2.439 . S
O255 Cd254 2.240 . S
O255 C260 1.279 . S
O256 Cd253 2.297 . S
O256 C258 1.247 . S
O257 Cd253 2.439 . S
O257 C258 1.208 . S
C258 O256 1.247 . S
C258 O257 1.208 . S
C259 O264 1.247 . S
C259 O265 1.208 . S
C260 O252 1.315 . S
C260 O255 1.279 . S
C261 O262 1.315 . S
C261 O263 1.279 . S
O262 Cd254 2.223 . S
O262 C261 1.315 . S
O263 Cd253 2.240 . S
O263 C261 1.279 . S
O264 Cd254 2.297 . S
O264 C259 1.247 . S
O265 Cd254 2.439 . S
O265 C259 1.208 . S
O266 Cd267 2.223 . S
O266 C274 1.315 . S
Cd267 O266 2.223 . S
Cd267 O270 2.297 . S
Cd267 O271 2.439 . S
Cd267 O277 2.240 . S
Cd268 O269 2.240 . S
Cd268 O276 2.223 . S
Cd268 O278 2.297 . S
Cd268 O279 2.439 . S
O269 Cd268 2.240 . S
O269 C274 1.279 . S
O270 Cd267 2.297 . S
O270 C272 1.247 . S
O271 Cd267 2.439 . S
O271 C272 1.208 . S
C272 O270 1.247 . S
C272 O271 1.208 . S
C273 O278 1.247 . S
C273 O279 1.208 . S
C274 O266 1.315 . S
C274 O269 1.279 . S
C275 O276 1.315 . S
C275 O277 1.279 . S
O276 Cd268 2.223 . S
O276 C275 1.315 . S
O277 Cd267 2.240 . S
O277 C275 1.279 . S
O278 Cd268 2.297 . S
O278 C273 1.247 . S
O279 Cd268 2.439 . S
O279 C273 1.208 . S
O280 Cd281 2.223 . S
O280 C288 1.315 . S
Cd281 O280 2.223 . S
Cd281 O284 2.297 . S
Cd281 O285 2.439 . S
Cd281 O291 2.240 . S
Cd282 O283 2.240 . S
Cd282 O290 2.223 . S
Cd282 O292 2.297 . S
Cd282 O293 2.439 . S
O283 Cd282 2.240 . S
O283 C288 1.279 . S
O284 Cd281 2.297 . S
O284 C286 1.247 . S
O285 Cd281 2.439 . S
O285 C286 1.208 . S
C286 O284 1.247 . S
C286 O285 1.208 . S
C287 O292 1.247 . S
C287 O293 1.208 . S
C288 O280 1.315 . S
C288 O283 1.279 . S
C289 O290 1.315 . S
C289 O291 1.279 . S
O290 Cd282 2.223 . S
O290 C289 1.315 . S
O291 Cd281 2.240 . S
O291 C289 1.279 . S
O292 Cd282 2.297 . S
O292 C287 1.247 . S
O293 Cd282 2.439 . S
O293 C287 1.208 . S
O294 Cd295 2.223 . S
O294 C302 1.315 . S
Cd295 O294 2.223 . S
Cd295 O298 2.297 . S
Cd295 O299 2.439 . S
Cd295 O305 2.240 . S
Cd296 O297 2.240 . S
Cd296 O304 2.223 . S
Cd296 O306 2.297 1_556 S
Cd296 O307 2.439 1_556 S
O297 Cd296 2.240 . S
O297 C302 1.279 . S
O298 Cd295 2.297 . S
O298 C300 1.247 . S
O299 Cd295 2.439 . S
O299 C300 1.208 . S
C300 O298 1.247 . S
C300 O299 1.208 . S
C301 O306 1.247 . S
C301 O307 1.208 . S
C302 O294 1.315 . S
C302 O297 1.279 . S
C303 O304 1.315 . S
C303 O305 1.279 . S
O304 Cd296 2.223 . S
O304 C303 1.315 . S
O305 Cd295 2.240 . S
O305 C303 1.279 . S
O306 Cd296 2.297 1_554 S
O306 C301 1.247 . S
O307 Cd296 2.439 1_554 S
O307 C301 1.208 . S
O308 Cd309 2.223 . S
O308 C316 1.315 . S
Cd309 O308 2.223 . S
Cd309 O312 2.297 . S
Cd309 O313 2.439 . S
Cd309 O319 2.240 . S
Cd310 O311 2.240 . S
Cd310 O318 2.223 . S
Cd310 O320 2.297 . S
Cd310 O321 2.439 . S
O311 Cd310 2.240 . S
O311 C316 1.279 . S
O312 Cd309 2.297 . S
O312 C314 1.247 . S
O313 Cd309 2.439 . S
O313 C314 1.208 . S
C314 O312 1.247 . S
C314 O313 1.208 . S
C315 O320 1.247 . S
C315 O321 1.208 . S
C316 O308 1.315 . S
C316 O311 1.279 . S
C317 O318 1.315 . S
C317 O319 1.279 . S
O318 Cd310 2.223 . S
O318 C317 1.315 . S
O319 Cd309 2.240 . S
O319 C317 1.279 . S
O320 Cd310 2.297 . S
O320 C315 1.247 . S
O321 Cd310 2.439 . S
O321 C315 1.208 . S
O322 Cd323 2.223 . S
O322 C330 1.315 . S
Cd323 O322 2.223 . S
Cd323 O326 2.297 . S
Cd323 O327 2.439 . S
Cd323 O333 2.240 . S
Cd324 O325 2.240 . S
Cd324 O332 2.223 . S
Cd324 O334 2.297 . S
Cd324 O335 2.439 . S
O325 Cd324 2.240 . S
O325 C330 1.279 . S
O326 Cd323 2.297 . S
O326 C328 1.247 . S
O327 Cd323 2.439 . S
O327 C328 1.208 . S
C328 O326 1.247 . S
C328 O327 1.208 . S
C329 O334 1.247 . S
C329 O335 1.208 . S
C330 O322 1.315 . S
C330 O325 1.279 . S
C331 O332 1.315 . S
C331 O333 1.279 . S
O332 Cd324 2.223 . S
O332 C331 1.315 . S
O333 Cd323 2.240 . S
O333 C331 1.279 . S
O334 Cd324 2.297 . S
O334 C329 1.247 . S
O335 Cd324 2.439 . S
O335 C329 1.208 . S
O336 Cd337 2.223 . S
O336 C344 1.315 . S
Cd337 O336 2.223 . S
Cd337 O340 2.297 . S
Cd337 O341 2.439 . S
Cd337 O347 2.240 . S
Cd338 O339 2.240 . S
Cd338 O346 2.223 . S
Cd338 O348 2.297 . S
Cd338 O349 2.439 . S
O339 Cd338 2.240 . S
O339 C344 1.279 . S
O340 Cd337 2.297 . S
O340 C342 1.247 . S
O341 Cd337 2.439 . S
O341 C342 1.208 . S
C342 O340 1.247 . S
C342 O341 1.208 . S
C343 O348 1.247 . S
C343 O349 1.208 . S
C344 O336 1.315 . S
C344 O339 1.279 . S
C345 O346 1.315 . S
C345 O347 1.279 . S
O346 Cd338 2.223 . S
O346 C345 1.315 . S
O347 Cd337 2.240 . S
O347 C345 1.279 . S
O348 Cd338 2.297 . S
O348 C343 1.247 . S
O349 Cd338 2.439 . S
O349 C343 1.208 . S
O350 Cd351 2.223 . S
O350 C358 1.315 . S
Cd351 O350 2.223 . S
Cd351 O354 2.297 . S
Cd351 O355 2.439 . S
Cd351 O361 2.240 . S
Cd352 O353 2.240 . S
Cd352 O360 2.223 . S
Cd352 O362 2.297 1_556 S
Cd352 O363 2.439 1_556 S
O353 Cd352 2.240 . S
O353 C358 1.279 . S
O354 Cd351 2.297 . S
O354 C356 1.247 . S
O355 Cd351 2.439 . S
O355 C356 1.208 . S
C356 O354 1.247 . S
C356 O355 1.208 . S
C357 O362 1.247 . S
C357 O363 1.208 . S
C358 O350 1.315 . S
C358 O353 1.279 . S
C359 O360 1.315 . S
C359 O361 1.279 . S
O360 Cd352 2.223 . S
O360 C359 1.315 . S
O361 Cd351 2.240 . S
O361 C359 1.279 . S
O362 Cd352 2.297 1_554 S
O362 C357 1.247 . S
O363 Cd352 2.439 1_554 S
O363 C357 1.208 . S
O364 Cd365 2.223 . S
O364 C372 1.315 . S
Cd365 O364 2.223 . S
Cd365 O368 2.297 . S
Cd365 O369 2.439 . S
Cd365 O375 2.240 . S
Cd366 O367 2.240 . S
Cd366 O374 2.223 . S
Cd366 O376 2.297 . S
Cd366 O377 2.439 . S
O367 Cd366 2.240 . S
O367 C372 1.279 . S
O368 Cd365 2.297 . S
O368 C370 1.247 . S
O369 Cd365 2.439 . S
O369 C370 1.208 . S
C370 O368 1.247 . S
C370 O369 1.208 . S
C371 O376 1.247 . S
C371 O377 1.208 . S
C372 O364 1.315 . S
C372 O367 1.279 . S
C373 O374 1.315 . S
C373 O375 1.279 . S
O374 Cd366 2.223 . S
O374 C373 1.315 . S
O375 Cd365 2.240 . S
O375 C373 1.279 . S
O376 Cd366 2.297 . S
O376 C371 1.247 . S
O377 Cd366 2.439 . S
O377 C371 1.208 . S
O378 Cd379 2.223 . S
O378 C386 1.315 . S
Cd379 O378 2.223 . S
Cd379 O382 2.297 . S
Cd379 O383 2.439 . S
Cd379 O389 2.240 . S
Cd380 O381 2.240 . S
Cd380 O388 2.223 . S
Cd380 O390 2.297 . S
Cd380 O391 2.439 . S
O381 Cd380 2.240 . S
O381 C386 1.279 . S
O382 Cd379 2.297 . S
O382 C384 1.247 . S
O383 Cd379 2.439 . S
O383 C384 1.208 . S
C384 O382 1.247 . S
C384 O383 1.208 . S
C385 O390 1.247 . S
C385 O391 1.208 . S
C386 O378 1.315 . S
C386 O381 1.279 . S
C387 O388 1.315 . S
C387 O389 1.279 . S
O388 Cd380 2.223 . S
O388 C387 1.315 . S
O389 Cd379 2.240 . S
O389 C387 1.279 . S
O390 Cd380 2.297 . S
O390 C385 1.247 . S
O391 Cd380 2.439 . S
O391 C385 1.208 . S
O392 Cd393 2.223 . S
O392 C400 1.315 . S
Cd393 O392 2.223 . S
Cd393 O396 2.297 . S
Cd393 O397 2.439 . S
Cd393 O403 2.240 . S
Cd394 O395 2.240 . S
Cd394 O402 2.223 . S
Cd394 O404 2.297 . S
Cd394 O405 2.439 . S
O395 Cd394 2.240 . S
O395 C400 1.279 . S
O396 Cd393 2.297 . S
O396 C398 1.247 . S
O397 Cd393 2.439 . S
O397 C398 1.208 . S
C398 O396 1.247 . S
C398 O397 1.208 . S
C399 O404 1.247 . S
C399 O405 1.208 . S
C400 O392 1.315 . S
C400 O395 1.279 . S
C401 O402 1.315 . S
C401 O403 1.279 . S
O402 Cd394 2.223 . S
O402 C401 1.315 . S
O403 Cd393 2.240 . S
O403 C401 1.279 . S
O404 Cd394 2.297 . S
O404 C399 1.247 . S
O405 Cd394 2.439 . S
O405 C399 1.208 . S
O406 Cd407 2.223 . S
O406 C414 1.315 . S
Cd407 O406 2.223 . S
Cd407 O410 2.297 . S
Cd407 O411 2.439 . S
Cd407 O417 2.240 . S
Cd408 O409 2.240 . S
Cd408 O416 2.223 . S
Cd408 O418 2.297 1_554 S
Cd408 O419 2.439 1_554 S
O409 Cd408 2.240 . S
O409 C414 1.279 . S
O410 Cd407 2.297 . S
O410 C412 1.247 . S
O411 Cd407 2.439 . S
O411 C412 1.208 . S
C412 O410 1.247 . S
C412 O411 1.208 . S
C413 O418 1.247 . S
C413 O419 1.208 . S
C414 O406 1.315 . S
C414 O409 1.279 . S
C415 O416 1.315 . S
C415 O417 1.279 . S
O416 Cd408 2.223 . S
O416 C415 1.315 . S
O417 Cd407 2.240 . S
O417 C415 1.279 . S
O418 Cd408 2.297 1_556 S
O418 C413 1.247 . S
O419 Cd408 2.439 1_556 S
O419 C413 1.208 . S
O420 Cd421 2.223 . S
O420 C428 1.315 . S
Cd421 O420 2.223 . S
Cd421 O424 2.297 . S
Cd421 O425 2.439 . S
Cd421 O431 2.240 . S
Cd422 O423 2.240 . S
Cd422 O430 2.223 . S
Cd422 O432 2.297 . S
Cd422 O433 2.439 . S
O423 Cd422 2.240 . S
O423 C428 1.279 . S
O424 Cd421 2.297 . S
O424 C426 1.247 . S
O425 Cd421 2.439 . S
O425 C426 1.208 . S
C426 O424 1.247 . S
C426 O425 1.208 . S
C427 O432 1.247 . S
C427 O433 1.208 . S
C428 O420 1.315 . S
C428 O423 1.279 . S
C429 O430 1.315 . S
C429 O431 1.279 . S
O430 Cd422 2.223 . S
O430 C429 1.315 . S
O431 Cd421 2.240 . S
O431 C429 1.279 . S
O432 Cd422 2.297 . S
O432 C427 1.247 . S
O433 Cd422 2.439 . S
O433 C427 1.208 . S
O434 Cd435 2.223 . S
O434 C442 1.315 . S
Cd435 O434 2.223 . S
Cd435 O438 2.297 . S
Cd435 O439 2.439 . S
Cd435 O445 2.240 . S
Cd436 O437 2.240 . S
Cd436 O444 2.223 . S
Cd436 O446 2.297 . S
Cd436 O447 2.439 . S
O437 Cd436 2.240 . S
O437 C442 1.279 . S
O438 Cd435 2.297 . S
O438 C440 1.247 . S
O439 Cd435 2.439 . S
O439 C440 1.208 . S
C440 O438 1.247 . S
C440 O439 1.208 . S
C441 O446 1.247 . S
C441 O447 1.208 . S
C442 O434 1.315 . S
C442 O437 1.279 . S
C443 O444 1.315 . S
C443 O445 1.279 . S
O444 Cd436 2.223 . S
O444 C443 1.315 . S
O445 Cd435 2.240 . S
O445 C443 1.279 . S
O446 Cd436 2.297 . S
O446 C441 1.247 . S
O447 Cd436 2.439 . S
O447 C441 1.208 . S
H448 C456 0.950 . S
H449 C461 0.950 . S
H450 C458 0.950 . S
H451 C460 0.950 . S
H452 C462 0.950 . S
H453 C464 0.950 . S
H454 C466 0.950 . S
H455 C467 0.950 . S
C456 H448 0.950 . S
C456 C457 1.386 . S
C456 C458 1.391 . S
C457 C456 1.386 . S
C457 C461 1.393 . S
C458 H450 0.950 . S
C458 C456 1.391 . S
C458 C459 1.400 . S
C459 C458 1.400 . S
C459 C460 1.398 . S
C459 C465 1.491 . S
C460 H451 0.950 . S
C460 C459 1.398 . S
C460 C461 1.391 . S
C461 H449 0.950 . S
C461 C457 1.393 . S
C461 C460 1.391 . S
C462 H452 0.950 . S
C462 C463 1.386 . S
C462 C464 1.391 . S
C463 C462 1.386 . S
C463 C467 1.393 . S
C464 H453 0.950 . S
C464 C462 1.391 . S
C464 C465 1.400 . S
C465 C459 1.491 . S
C465 C464 1.400 . S
C465 C466 1.398 . S
C466 H454 0.950 . S
C466 C465 1.398 . S
C466 C467 1.391 . S
C467 H455 0.950 . S
C467 C463 1.393 . S
C467 C466 1.391 . S
H468 C476 0.950 . S
H469 C481 0.950 . S
H470 C478 0.950 . S
H471 C480 0.950 . S
H472 C482 0.950 . S
H473 C484 0.950 . S
H474 C486 0.950 . S
H475 C487 0.950 . S
C476 H468 0.950 . S
C476 C477 1.386 . S
C476 C478 1.391 . S
C477 C476 1.386 . S
C477 C481 1.393 . S
C478 H470 0.950 . S
C478 C476 1.391 . S
C478 C479 1.400 . S
C479 C478 1.400 . S
C479 C480 1.398 . S
C479 C485 1.491 . S
C480 H471 0.950 . S
C480 C479 1.398 . S
C480 C481 1.391 . S
C481 H469 0.950 . S
C481 C477 1.393 . S
C481 C480 1.391 . S
C482 H472 0.950 . S
C482 C483 1.386 . S
C482 C484 1.391 . S
C483 C482 1.386 . S
C483 C487 1.393 . S
C484 H473 0.950 . S
C484 C482 1.391 . S
C484 C485 1.400 . S
C485 C479 1.491 . S
C485 C484 1.400 . S
C485 C486 1.398 . S
C486 H474 0.950 . S
C486 C485 1.398 . S
C486 C487 1.391 . S
C487 H475 0.950 . S
C487 C483 1.393 . S
C487 C486 1.391 . S
H488 C496 0.950 . S
H489 C501 0.950 . S
H490 C498 0.950 . S
H491 C500 0.950 . S
H492 C502 0.950 . S
H493 C504 0.950 . S
H494 C506 0.950 . S
H495 C507 0.950 . S
C496 H488 0.950 . S
C496 C497 1.386 . S
C496 C498 1.391 . S
C497 C496 1.386 . S
C497 C501 1.393 . S
C498 H490 0.950 . S
C498 C496 1.391 . S
C498 C499 1.400 . S
C499 C498 1.400 . S
C499 C500 1.398 . S
C499 C505 1.491 . S
C500 H491 0.950 . S
C500 C499 1.398 . S
C500 C501 1.391 . S
C501 H489 0.950 . S
C501 C497 1.393 . S
C501 C500 1.391 . S
C502 H492 0.950 . S
C502 C503 1.386 . S
C502 C504 1.391 . S
C503 C502 1.386 . S
C503 C507 1.393 . S
C504 H493 0.950 . S
C504 C502 1.391 . S
C504 C505 1.400 . S
C505 C499 1.491 . S
C505 C504 1.400 . S
C505 C506 1.398 . S
C506 H494 0.950 . S
C506 C505 1.398 . S
C506 C507 1.391 . S
C507 H495 0.950 . S
C507 C503 1.393 . S
C507 C506 1.391 . S
H508 C516 0.950 . S
H509 C521 0.950 . S
H510 C518 0.950 . S
H511 C520 0.950 . S
H512 C522 0.950 . S
H513 C524 0.950 . S
H514 C526 0.950 . S
H515 C527 0.950 . S
C516 H508 0.950 . S
C516 C517 1.386 . S
C516 C518 1.391 . S
C517 C516 1.386 . S
C517 C521 1.393 . S
C518 H510 0.950 . S
C518 C516 1.391 . S
C518 C519 1.400 . S
C519 C518 1.400 . S
C519 C520 1.398 . S
C519 C525 1.491 . S
C520 H511 0.950 . S
C520 C519 1.398 . S
C520 C521 1.391 . S
C521 H509 0.950 . S
C521 C517 1.393 . S
C521 C520 1.391 . S
C522 H512 0.950 . S
C522 C523 1.386 . S
C522 C524 1.391 . S
C523 C522 1.386 . S
C523 C527 1.393 . S
C524 H513 0.950 . S
C524 C522 1.391 . S
C524 C525 1.400 . S
C525 C519 1.491 . S
C525 C524 1.400 . S
C525 C526 1.398 . S
C526 H514 0.950 . S
C526 C525 1.398 . S
C526 C527 1.391 . S
C527 H515 0.950 . S
C527 C523 1.393 . S
C527 C526 1.391 . S
H528 C536 0.950 . S
H529 C541 0.950 . S
H530 C538 0.950 . S
H531 C540 0.950 . S
H532 C542 0.950 . S
H533 C544 0.950 . S
H534 C546 0.950 . S
H535 C547 0.950 . S
C536 H528 0.950 . S
C536 C537 1.386 . S
C536 C538 1.391 . S
C537 C536 1.386 . S
C537 C541 1.393 . S
C538 H530 0.950 . S
C538 C536 1.391 . S
C538 C539 1.400 . S
C539 C538 1.400 . S
C539 C540 1.398 . S
C539 C545 1.491 . S
C540 H531 0.950 . S
C540 C539 1.398 . S
C540 C541 1.391 . S
C541 H529 0.950 . S
C541 C537 1.393 . S
C541 C540 1.391 . S
C542 H532 0.950 . S
C542 C543 1.386 . S
C542 C544 1.391 . S
C543 C542 1.386 . S
C543 C547 1.393 . S
C544 H533 0.950 . S
C544 C542 1.391 . S
C544 C545 1.400 . S
C545 C539 1.491 . S
C545 C544 1.400 . S
C545 C546 1.398 . S
C546 H534 0.950 . S
C546 C545 1.398 . S
C546 C547 1.391 . S
C547 H535 0.950 . S
C547 C543 1.393 . S
C547 C546 1.391 . S
H548 C556 0.950 . S
H549 C561 0.950 . S
H550 C558 0.950 . S
H551 C560 0.950 . S
H552 C562 0.950 . S
H553 C564 0.950 . S
H554 C566 0.950 . S
H555 C567 0.950 . S
C556 H548 0.950 . S
C556 C557 1.386 . S
C556 C558 1.391 . S
C557 C556 1.386 . S
C557 C561 1.393 . S
C558 H550 0.950 . S
C558 C556 1.391 . S
C558 C559 1.400 . S
C559 C558 1.400 . S
C559 C560 1.398 . S
C559 C565 1.491 . S
C560 H551 0.950 . S
C560 C559 1.398 . S
C560 C561 1.391 . S
C561 H549 0.950 . S
C561 C557 1.393 . S
C561 C560 1.391 . S
C562 H552 0.950 . S
C562 C563 1.386 . S
C562 C564 1.391 . S
C563 C562 1.386 . S
C563 C567 1.393 . S
C564 H553 0.950 . S
C564 C562 1.391 . S
C564 C565 1.400 . S
C565 C559 1.491 . S
C565 C564 1.400 . S
C565 C566 1.398 . S
C566 H554 0.950 . S
C566 C565 1.398 . S
C566 C567 1.391 . S
C567 H555 0.950 . S
C567 C563 1.393 . S
C567 C566 1.391 . S
H568 C576 0.950 . S
H569 C581 0.950 . S
H570 C578 0.950 . S
H571 C580 0.950 . S
H572 C582 0.950 . S
H573 C584 0.950 . S
H574 C586 0.950 . S
H575 C587 0.950 . S
C576 H568 0.950 . S
C576 C577 1.386 . S
C576 C578 1.391 . S
C577 C576 1.386 . S
C577 C581 1.393 . S
C578 H570 0.950 . S
C578 C576 1.391 . S
C578 C579 1.400 . S
C579 C578 1.400 . S
C579 C580 1.398 . S
C579 C585 1.491 . S
C580 H571 0.950 . S
C580 C579 1.398 . S
C580 C581 1.391 . S
C581 H569 0.950 . S
C581 C577 1.393 . S
C581 C580 1.391 . S
C582 H572 0.950 . S
C582 C583 1.386 . S
C582 C584 1.391 . S
C583 C582 1.386 . S
C583 C587 1.393 . S
C584 H573 0.950 . S
C584 C582 1.391 . S
C584 C585 1.400 . S
C585 C579 1.491 . S
C585 C584 1.400 . S
C585 C586 1.398 . S
C586 H574 0.950 . S
C586 C585 1.398 . S
C586 C587 1.391 . S
C587 H575 0.950 . S
C587 C583 1.393 . S
C587 C586 1.391 . S
H588 C596 0.950 . S
H589 C601 0.950 . S
H590 C598 0.950 . S
H591 C600 0.950 . S
H592 C602 0.950 . S
H593 C604 0.950 . S
H594 C606 0.950 . S
H595 C607 0.950 . S
C596 H588 0.950 . S
C596 C597 1.386 . S
C596 C598 1.391 . S
C597 C596 1.386 . S
C597 C601 1.393 . S
C598 H590 0.950 . S
C598 C596 1.391 . S
C598 C599 1.400 . S
C599 C598 1.400 . S
C599 C600 1.398 . S
C599 C605 1.491 . S
C600 H591 0.950 . S
C600 C599 1.398 . S
C600 C601 1.391 . S
C601 H589 0.950 . S
C601 C597 1.393 . S
C601 C600 1.391 . S
C602 H592 0.950 . S
C602 C603 1.386 . S
C602 C604 1.391 . S
C603 C602 1.386 . S
C603 C607 1.393 . S
C604 H593 0.950 . S
C604 C602 1.391 . S
C604 C605 1.400 . S
C605 C599 1.491 . S
C605 C604 1.400 . S
C605 C606 1.398 . S
C606 H594 0.950 . S
C606 C605 1.398 . S
C606 C607 1.391 . S
C607 H595 0.950 . S
C607 C603 1.393 . S
C607 C606 1.391 . S
H608 C616 0.950 . S
H609 C621 0.950 . S
H610 C618 0.950 . S
H611 C620 0.950 . S
H612 C622 0.950 . S
H613 C624 0.950 . S
H614 C626 0.950 . S
H615 C627 0.950 . S
C616 H608 0.950 . S
C616 C617 1.386 . S
C616 C618 1.391 . S
C617 C616 1.386 . S
C617 C621 1.393 . S
C618 H610 0.950 . S
C618 C616 1.391 . S
C618 C619 1.400 . S
C619 C618 1.400 . S
C619 C620 1.398 . S
C619 C625 1.491 . S
C620 H611 0.950 . S
C620 C619 1.398 . S
C620 C621 1.391 . S
C621 H609 0.950 . S
C621 C617 1.393 . S
C621 C620 1.391 . S
C622 H612 0.950 . S
C622 C623 1.386 . S
C622 C624 1.391 . S
C623 C622 1.386 . S
C623 C627 1.393 . S
C624 H613 0.950 . S
C624 C622 1.391 . S
C624 C625 1.400 . S
C625 C619 1.491 . S
C625 C624 1.400 . S
C625 C626 1.398 . S
C626 H614 0.950 . S
C626 C625 1.398 . S
C626 C627 1.391 . S
C627 H615 0.950 . S
C627 C623 1.393 . S
C627 C626 1.391 . S
H628 C636 0.950 . S
H629 C641 0.950 . S
H630 C638 0.950 . S
H631 C640 0.950 . S
H632 C642 0.950 . S
H633 C644 0.950 . S
H634 C646 0.950 . S
H635 C647 0.950 . S
C636 H628 0.950 . S
C636 C637 1.386 . S
C636 C638 1.391 . S
C637 C636 1.386 . S
C637 C641 1.393 . S
C638 H630 0.950 . S
C638 C636 1.391 . S
C638 C639 1.400 . S
C639 C638 1.400 . S
C639 C640 1.398 . S
C639 C645 1.491 . S
C640 H631 0.950 . S
C640 C639 1.398 . S
C640 C641 1.391 . S
C641 H629 0.950 . S
C641 C637 1.393 . S
C641 C640 1.391 . S
C642 H632 0.950 . S
C642 C643 1.386 . S
C642 C644 1.391 . S
C643 C642 1.386 . S
C643 C647 1.393 . S
C644 H633 0.950 . S
C644 C642 1.391 . S
C644 C645 1.400 . S
C645 C639 1.491 . S
C645 C644 1.400 . S
C645 C646 1.398 . S
C646 H634 0.950 . S
C646 C645 1.398 . S
C646 C647 1.391 . S
C647 H635 0.950 . S
C647 C643 1.393 . S
C647 C646 1.391 . S
H648 C656 0.950 . S
H649 C661 0.950 . S
H650 C658 0.950 . S
H651 C660 0.950 . S
H652 C662 0.950 . S
H653 C664 0.950 . S
H654 C666 0.950 . S
H655 C667 0.950 . S
C656 H648 0.950 . S
C656 C657 1.386 . S
C656 C658 1.391 . S
C657 C656 1.386 . S
C657 C661 1.393 . S
C658 H650 0.950 . S
C658 C656 1.391 . S
C658 C659 1.400 . S
C659 C658 1.400 . S
C659 C660 1.398 . S
C659 C665 1.491 . S
C660 H651 0.950 . S
C660 C659 1.398 . S
C660 C661 1.391 . S
C661 H649 0.950 . S
C661 C657 1.393 . S
C661 C660 1.391 . S
C662 H652 0.950 . S
C662 C663 1.386 . S
C662 C664 1.391 . S
C663 C662 1.386 . S
C663 C667 1.393 . S
C664 H653 0.950 . S
C664 C662 1.391 . S
C664 C665 1.400 . S
C665 C659 1.491 . S
C665 C664 1.400 . S
C665 C666 1.398 . S
C666 H654 0.950 . S
C666 C665 1.398 . S
C666 C667 1.391 . S
C667 H655 0.950 . S
C667 C663 1.393 . S
C667 C666 1.391 . S
H668 C676 0.950 . S
H669 C681 0.950 . S
H670 C678 0.950 . S
H671 C680 0.950 . S
H672 C682 0.950 . S
H673 C684 0.950 . S
H674 C686 0.950 . S
H675 C687 0.950 . S
C676 H668 0.950 . S
C676 C677 1.386 . S
C676 C678 1.391 . S
C677 C676 1.386 . S
C677 C681 1.393 . S
C678 H670 0.950 . S
C678 C676 1.391 . S
C678 C679 1.400 . S
C679 C678 1.400 . S
C679 C680 1.398 . S
C679 C685 1.491 . S
C680 H671 0.950 . S
C680 C679 1.398 . S
C680 C681 1.391 . S
C681 H669 0.950 . S
C681 C677 1.393 . S
C681 C680 1.391 . S
C682 H672 0.950 . S
C682 C683 1.386 . S
C682 C684 1.391 . S
C683 C682 1.386 . S
C683 C687 1.393 . S
C684 H673 0.950 . S
C684 C682 1.391 . S
C684 C685 1.400 . S
C685 C679 1.491 . S
C685 C684 1.400 . S
C685 C686 1.398 . S
C686 H674 0.950 . S
C686 C685 1.398 . S
C686 C687 1.391 . S
C687 H675 0.950 . S
C687 C683 1.393 . S
C687 C686 1.391 . S
H688 C696 0.950 . S
H689 C701 0.950 . S
H690 C698 0.950 . S
H691 C700 0.950 . S
H692 C702 0.950 . S
H693 C704 0.950 . S
H694 C706 0.950 . S
H695 C707 0.950 . S
C696 H688 0.950 . S
C696 C697 1.386 . S
C696 C698 1.391 . S
C697 C696 1.386 . S
C697 C701 1.393 . S
C698 H690 0.950 . S
C698 C696 1.391 . S
C698 C699 1.400 . S
C699 C698 1.400 . S
C699 C700 1.398 . S
C699 C705 1.491 . S
C700 H691 0.950 . S
C700 C699 1.398 . S
C700 C701 1.391 . S
C701 H689 0.950 . S
C701 C697 1.393 . S
C701 C700 1.391 . S
C702 H692 0.950 . S
C702 C703 1.386 . S
C702 C704 1.391 . S
C703 C702 1.386 . S
C703 C707 1.393 . S
C704 H693 0.950 . S
C704 C702 1.391 . S
C704 C705 1.400 . S
C705 C699 1.491 . S
C705 C704 1.400 . S
C705 C706 1.398 . S
C706 H694 0.950 . S
C706 C705 1.398 . S
C706 C707 1.391 . S
C707 H695 0.950 . S
C707 C703 1.393 . S
C707 C706 1.391 . S
H708 C716 0.950 . S
H709 C721 0.950 . S
H710 C718 0.950 . S
H711 C720 0.950 . S
H712 C722 0.950 . S
H713 C724 0.950 . S
H714 C726 0.950 . S
H715 C727 0.950 . S
C716 H708 0.950 . S
C716 C717 1.386 . S
C716 C718 1.391 . S
C717 C716 1.386 . S
C717 C721 1.393 . S
C718 H710 0.950 . S
C718 C716 1.391 . S
C718 C719 1.400 . S
C719 C718 1.400 . S
C719 C720 1.398 . S
C719 C725 1.491 . S
C720 H711 0.950 . S
C720 C719 1.398 . S
C720 C721 1.391 . S
C721 H709 0.950 . S
C721 C717 1.393 . S
C721 C720 1.391 . S
C722 H712 0.950 . S
C722 C723 1.386 . S
C722 C724 1.391 . S
C723 C722 1.386 . S
C723 C727 1.393 . S
C724 H713 0.950 . S
C724 C722 1.391 . S
C724 C725 1.400 . S
C725 C719 1.491 . S
C725 C724 1.400 . S
C725 C726 1.398 . S
C726 H714 0.950 . S
C726 C725 1.398 . S
C726 C727 1.391 . S
C727 H715 0.950 . S
C727 C723 1.393 . S
C727 C726 1.391 . S
H728 C736 0.950 . S
H729 C741 0.950 . S
H730 C738 0.950 . S
H731 C740 0.950 . S
H732 C742 0.950 . S
H733 C744 0.950 . S
H734 C746 0.950 . S
H735 C747 0.950 . S
C736 H728 0.950 . S
C736 C737 1.386 . S
C736 C738 1.391 . S
C737 C736 1.386 . S
C737 C741 1.393 . S
C738 H730 0.950 . S
C738 C736 1.391 . S
C738 C739 1.400 . S
C739 C738 1.400 . S
C739 C740 1.398 . S
C739 C745 1.491 . S
C740 H731 0.950 . S
C740 C739 1.398 . S
C740 C741 1.391 . S
C741 H729 0.950 . S
C741 C737 1.393 . S
C741 C740 1.391 . S
C742 H732 0.950 . S
C742 C743 1.386 . S
C742 C744 1.391 . S
C743 C742 1.386 . S
C743 C747 1.393 . S
C744 H733 0.950 . S
C744 C742 1.391 . S
C744 C745 1.400 . S
C745 C739 1.491 . S
C745 C744 1.400 . S
C745 C746 1.398 . S
C746 H734 0.950 . S
C746 C745 1.398 . S
C746 C747 1.391 . S
C747 H735 0.950 . S
C747 C743 1.393 . S
C747 C746 1.391 . S
H748 C756 0.950 . S
H749 C761 0.950 . S
H750 C758 0.950 . S
H751 C760 0.950 . S
H752 C762 0.950 . S
H753 C764 0.950 . S
H754 C766 0.950 . S
H755 C767 0.950 . S
C756 H748 0.950 . S
C756 C757 1.386 . S
C756 C758 1.391 . S
C757 C756 1.386 . S
C757 C761 1.393 . S
C758 H750 0.950 . S
C758 C756 1.391 . S
C758 C759 1.400 . S
C759 C758 1.400 . S
C759 C760 1.398 . S
C759 C765 1.491 . S
C760 H751 0.950 . S
C760 C759 1.398 . S
C760 C761 1.391 . S
C761 H749 0.950 . S
C761 C757 1.393 . S
C761 C760 1.391 . S
C762 H752 0.950 . S
C762 C763 1.386 . S
C762 C764 1.391 . S
C763 C762 1.386 . S
C763 C767 1.393 . S
C764 H753 0.950 . S
C764 C762 1.391 . S
C764 C765 1.400 . S
C765 C759 1.491 . S
C765 C764 1.400 . S
C765 C766 1.398 . S
C766 H754 0.950 . S
C766 C765 1.398 . S
C766 C767 1.391 . S
C767 H755 0.950 . S
C767 C763 1.393 . S
C767 C766 1.391 . S
H768 C776 0.950 . S
H769 C781 0.950 . S
H770 C778 0.950 . S
H771 C780 0.950 . S
H772 C782 0.950 . S
H773 C784 0.950 . S
H774 C786 0.950 . S
H775 C787 0.950 . S
C776 H768 0.950 . S
C776 C777 1.386 . S
C776 C778 1.391 . S
C777 C776 1.386 . S
C777 C781 1.393 . S
C778 H770 0.950 . S
C778 C776 1.391 . S
C778 C779 1.400 . S
C779 C778 1.400 . S
C779 C780 1.398 . S
C779 C785 1.491 . S
C780 H771 0.950 . S
C780 C779 1.398 . S
C780 C781 1.391 . S
C781 H769 0.950 . S
C781 C777 1.393 . S
C781 C780 1.391 . S
C782 H772 0.950 . S
C782 C783 1.386 . S
C782 C784 1.391 . S
C783 C782 1.386 . S
C783 C787 1.393 . S
C784 H773 0.950 . S
C784 C782 1.391 . S
C784 C785 1.400 . S
C785 C779 1.491 . S
C785 C784 1.400 . S
C785 C786 1.398 . S
C786 H774 0.950 . S
C786 C785 1.398 . S
C786 C787 1.391 . S
C787 H775 0.950 . S
C787 C783 1.393 . S
C787 C786 1.391 . S
H788 C796 0.950 . S
H789 C801 0.950 . S
H790 C798 0.950 . S
H791 C800 0.950 . S
H792 C802 0.950 . S
H793 C804 0.950 . S
H794 C806 0.950 . S
H795 C807 0.950 1_455 S
C796 H788 0.950 . S
C796 C797 1.386 . S
C796 C798 1.391 . S
C797 C796 1.386 . S
C797 C801 1.393 . S
C798 H790 0.950 . S
C798 C796 1.391 . S
C798 C799 1.400 . S
C799 C798 1.400 . S
C799 C800 1.398 . S
C799 C805 1.491 . S
C800 H791 0.950 . S
C800 C799 1.398 . S
C800 C801 1.391 . S
C801 H789 0.950 . S
C801 C797 1.393 . S
C801 C800 1.391 . S
C802 H792 0.950 . S
C802 C803 1.386 . S
C802 C804 1.391 . S
C803 C802 1.386 . S
C803 C807 1.393 . S
C804 H793 0.950 . S
C804 C802 1.391 . S
C804 C805 1.400 . S
C805 C799 1.491 . S
C805 C804 1.400 . S
C805 C806 1.398 . S
C806 H794 0.950 . S
C806 C805 1.398 . S
C806 C807 1.391 . S
C807 H795 0.950 1_655 S
C807 C803 1.393 . S
C807 C806 1.391 . S
H808 C816 0.950 . S
H809 C821 0.950 . S
H810 C818 0.950 . S
H811 C820 0.950 . S
H812 C822 0.950 . S
H813 C824 0.950 . S
H814 C826 0.950 . S
H815 C827 0.950 . S
C816 H808 0.950 . S
C816 C817 1.386 . S
C816 C818 1.391 . S
C817 C816 1.386 . S
C817 C821 1.393 . S
C818 H810 0.950 . S
C818 C816 1.391 . S
C818 C819 1.400 . S
C819 C818 1.400 . S
C819 C820 1.398 . S
C819 C825 1.491 . S
C820 H811 0.950 . S
C820 C819 1.398 . S
C820 C821 1.391 . S
C821 H809 0.950 . S
C821 C817 1.393 . S
C821 C820 1.391 . S
C822 H812 0.950 . S
C822 C823 1.386 . S
C822 C824 1.391 . S
C823 C822 1.386 . S
C823 C827 1.393 . S
C824 H813 0.950 . S
C824 C822 1.391 . S
C824 C825 1.400 . S
C825 C819 1.491 . S
C825 C824 1.400 . S
C825 C826 1.398 . S
C826 H814 0.950 . S
C826 C825 1.398 . S
C826 C827 1.391 . S
C827 H815 0.950 . S
C827 C823 1.393 . S
C827 C826 1.391 . S
H828 C836 0.950 . S
H829 C841 0.950 . S
H830 C838 0.950 . S
H831 C840 0.950 . S
H832 C842 0.950 . S
H833 C844 0.950 . S
H834 C846 0.950 . S
H835 C847 0.950 . S
C836 H828 0.950 . S
C836 C837 1.386 . S
C836 C838 1.391 . S
C837 C836 1.386 . S
C837 C841 1.393 . S
C838 H830 0.950 . S
C838 C836 1.391 . S
C838 C839 1.400 . S
C839 C838 1.400 . S
C839 C840 1.398 . S
C839 C845 1.491 . S
C840 H831 0.950 . S
C840 C839 1.398 . S
C840 C841 1.391 . S
C841 H829 0.950 . S
C841 C837 1.393 . S
C841 C840 1.391 . S
C842 H832 0.950 . S
C842 C843 1.386 . S
C842 C844 1.391 . S
C843 C842 1.386 . S
C843 C847 1.393 . S
C844 H833 0.950 . S
C844 C842 1.391 . S
C844 C845 1.400 . S
C845 C839 1.491 . S
C845 C844 1.400 . S
C845 C846 1.398 . S
C846 H834 0.950 . S
C846 C845 1.398 . S
C846 C847 1.391 . S
C847 H835 0.950 . S
C847 C843 1.393 . S
C847 C846 1.391 . S
H848 C856 0.950 . S
H849 C861 0.950 . S
H850 C858 0.950 . S
H851 C860 0.950 . S
H852 C862 0.950 . S
H853 C864 0.950 . S
H854 C866 0.950 . S
H855 C867 0.950 . S
C856 H848 0.950 . S
C856 C857 1.386 . S
C856 C858 1.391 . S
C857 C856 1.386 . S
C857 C861 1.393 . S
C858 H850 0.950 . S
C858 C856 1.391 . S
C858 C859 1.400 . S
C859 C858 1.400 . S
C859 C860 1.398 . S
C859 C865 1.491 . S
C860 H851 0.950 . S
C860 C859 1.398 . S
C860 C861 1.391 . S
C861 H849 0.950 . S
C861 C857 1.393 . S
C861 C860 1.391 . S
C862 H852 0.950 . S
C862 C863 1.386 . S
C862 C864 1.391 . S
C863 C862 1.386 . S
C863 C867 1.393 . S
C864 H853 0.950 . S
C864 C862 1.391 . S
C864 C865 1.400 . S
C865 C859 1.491 . S
C865 C864 1.400 . S
C865 C866 1.398 . S
C866 H854 0.950 . S
C866 C865 1.398 . S
C866 C867 1.391 . S
C867 H855 0.950 . S
C867 C863 1.393 . S
C867 C866 1.391 . S
H868 C876 0.950 . S
H869 C881 0.950 . S
H870 C878 0.950 . S
H871 C880 0.950 . S
H872 C882 0.950 . S
H873 C884 0.950 . S
H874 C886 0.950 . S
H875 C887 0.950 . S
C876 H868 0.950 . S
C876 C877 1.386 . S
C876 C878 1.391 . S
C877 C876 1.386 . S
C877 C881 1.393 . S
C878 H870 0.950 . S
C878 C876 1.391 . S
C878 C879 1.400 . S
C879 C878 1.400 . S
C879 C880 1.398 . S
C879 C885 1.491 . S
C880 H871 0.950 . S
C880 C879 1.398 . S
C880 C881 1.391 . S
C881 H869 0.950 . S
C881 C877 1.393 . S
C881 C880 1.391 . S
C882 H872 0.950 . S
C882 C883 1.386 . S
C882 C884 1.391 . S
C883 C882 1.386 . S
C883 C887 1.393 . S
C884 H873 0.950 . S
C884 C882 1.391 . S
C884 C885 1.400 . S
C885 C879 1.491 . S
C885 C884 1.400 . S
C885 C886 1.398 . S
C886 H874 0.950 . S
C886 C885 1.398 . S
C886 C887 1.391 . S
C887 H875 0.950 . S
C887 C883 1.393 . S
C887 C886 1.391 . S
H888 C896 0.950 . S
H889 C901 0.950 . S
H890 C898 0.950 . S
H891 C900 0.950 . S
H892 C902 0.950 . S
H893 C904 0.950 . S
H894 C906 0.950 . S
H895 C907 0.950 . S
C896 H888 0.950 . S
C896 C897 1.386 . S
C896 C898 1.391 . S
C897 C896 1.386 . S
C897 C901 1.393 . S
C898 H890 0.950 . S
C898 C896 1.391 . S
C898 C899 1.400 . S
C899 C898 1.400 . S
C899 C900 1.398 . S
C899 C905 1.491 . S
C900 H891 0.950 . S
C900 C899 1.398 . S
C900 C901 1.391 . S
C901 H889 0.950 . S
C901 C897 1.393 . S
C901 C900 1.391 . S
C902 H892 0.950 . S
C902 C903 1.386 . S
C902 C904 1.391 . S
C903 C902 1.386 . S
C903 C907 1.393 . S
C904 H893 0.950 . S
C904 C902 1.391 . S
C904 C905 1.400 . S
C905 C899 1.491 . S
C905 C904 1.400 . S
C905 C906 1.398 . S
C906 H894 0.950 . S
C906 C905 1.398 . S
C906 C907 1.391 . S
C907 H895 0.950 . S
C907 C903 1.393 . S
C907 C906 1.391 . S
H908 C916 0.950 . S
H909 C921 0.950 1_455 S
H910 C918 0.950 . S
H911 C920 0.950 . S
H912 C922 0.950 . S
H913 C924 0.950 . S
H914 C926 0.950 . S
H915 C927 0.950 . S
C916 H908 0.950 . S
C916 C917 1.386 . S
C916 C918 1.391 . S
C917 C916 1.386 . S
C917 C921 1.393 . S
C918 H910 0.950 . S
C918 C916 1.391 . S
C918 C919 1.400 . S
C919 C918 1.400 . S
C919 C920 1.398 . S
C919 C925 1.491 . S
C920 H911 0.950 . S
C920 C919 1.398 . S
C920 C921 1.391 . S
C921 H909 0.950 1_655 S
C921 C917 1.393 . S
C921 C920 1.391 . S
C922 H912 0.950 . S
C922 C923 1.386 . S
C922 C924 1.391 . S
C923 C922 1.386 . S
C923 C927 1.393 . S
C924 H913 0.950 . S
C924 C922 1.391 . S
C924 C925 1.400 . S
C925 C919 1.491 . S
C925 C924 1.400 . S
C925 C926 1.398 . S
C926 H914 0.950 . S
C926 C925 1.398 . S
C926 C927 1.391 . S
C927 H915 0.950 . S
C927 C923 1.393 . S
C927 C926 1.391 . S
H928 C936 0.950 . S
H929 C941 0.950 . S
H930 C938 0.950 . S
H931 C940 0.950 . S
H932 C942 0.950 . S
H933 C944 0.950 . S
H934 C946 0.950 . S
H935 C947 0.950 . S
C936 H928 0.950 . S
C936 C937 1.386 . S
C936 C938 1.391 . S
C937 C936 1.386 . S
C937 C941 1.393 . S
C938 H930 0.950 . S
C938 C936 1.391 . S
C938 C939 1.400 . S
C939 C938 1.400 . S
C939 C940 1.398 . S
C939 C945 1.491 . S
C940 H931 0.950 . S
C940 C939 1.398 . S
C940 C941 1.391 . S
C941 H929 0.950 . S
C941 C937 1.393 . S
C941 C940 1.391 . S
C942 H932 0.950 . S
C942 C943 1.386 . S
C942 C944 1.391 . S
C943 C942 1.386 . S
C943 C947 1.393 . S
C944 H933 0.950 . S
C944 C942 1.391 . S
C944 C945 1.400 . S
C945 C939 1.491 . S
C945 C944 1.400 . S
C945 C946 1.398 . S
C946 H934 0.950 . S
C946 C945 1.398 . S
C946 C947 1.391 . S
C947 H935 0.950 . S
C947 C943 1.393 . S
C947 C946 1.391 . S
H948 C956 0.950 . S
H949 C961 0.950 1_655 S
H950 C958 0.950 . S
H951 C960 0.950 . S
H952 C962 0.950 . S
H953 C964 0.950 . S
H954 C966 0.950 . S
H955 C967 0.950 . S
C956 H948 0.950 . S
C956 C957 1.386 . S
C956 C958 1.391 . S
C957 C956 1.386 . S
C957 C961 1.393 . S
C958 H950 0.950 . S
C958 C956 1.391 . S
C958 C959 1.400 . S
C959 C958 1.400 . S
C959 C960 1.398 . S
C959 C965 1.491 . S
C960 H951 0.950 . S
C960 C959 1.398 . S
C960 C961 1.391 . S
C961 H949 0.950 1_455 S
C961 C957 1.393 . S
C961 C960 1.391 . S
C962 H952 0.950 . S
C962 C963 1.386 . S
C962 C964 1.391 . S
C963 C962 1.386 . S
C963 C967 1.393 . S
C964 H953 0.950 . S
C964 C962 1.391 . S
C964 C965 1.400 . S
C965 C959 1.491 . S
C965 C964 1.400 . S
C965 C966 1.398 . S
C966 H954 0.950 . S
C966 C965 1.398 . S
C966 C967 1.391 . S
C967 H955 0.950 . S
C967 C963 1.393 . S
C967 C966 1.391 . S
H968 C976 0.950 . S
H969 C981 0.950 . S
H970 C978 0.950 . S
H971 C980 0.950 . S
H972 C982 0.950 . S
H973 C984 0.950 . S
H974 C986 0.950 . S
H975 C987 0.950 . S
C976 H968 0.950 . S
C976 C977 1.386 . S
C976 C978 1.391 . S
C977 C976 1.386 . S
C977 C981 1.393 . S
C978 H970 0.950 . S
C978 C976 1.391 . S
C978 C979 1.400 . S
C979 C978 1.400 . S
C979 C980 1.398 . S
C979 C985 1.491 . S
C980 H971 0.950 . S
C980 C979 1.398 . S
C980 C981 1.391 . S
C981 H969 0.950 . S
C981 C977 1.393 . S
C981 C980 1.391 . S
C982 H972 0.950 . S
C982 C983 1.386 . S
C982 C984 1.391 . S
C983 C982 1.386 . S
C983 C987 1.393 . S
C984 H973 0.950 . S
C984 C982 1.391 . S
C984 C985 1.400 . S
C985 C979 1.491 . S
C985 C984 1.400 . S
C985 C986 1.398 . S
C986 H974 0.950 . S
C986 C985 1.398 . S
C986 C987 1.391 . S
C987 H975 0.950 . S
C987 C983 1.393 . S
C987 C986 1.391 . S
H988 C996 0.950 . S
H989 C1001 0.950 . S
H990 C998 0.950 . S
H991 C1000 0.950 . S
H992 C1002 0.950 . S
H993 C1004 0.950 . S
H994 C1006 0.950 . S
H995 C1007 0.950 . S
C996 H988 0.950 . S
C996 C997 1.386 . S
C996 C998 1.391 . S
C997 C996 1.386 . S
C997 C1001 1.393 . S
C998 H990 0.950 . S
C998 C996 1.391 . S
C998 C999 1.400 . S
C999 C998 1.400 . S
C999 C1000 1.398 . S
C999 C1005 1.491 . S
C1000 H991 0.950 . S
C1000 C999 1.398 . S
C1000 C1001 1.391 . S
C1001 H989 0.950 . S
C1001 C997 1.393 . S
C1001 C1000 1.391 . S
C1002 H992 0.950 . S
C1002 C1003 1.386 . S
C1002 C1004 1.391 . S
C1003 C1002 1.386 . S
C1003 C1007 1.393 . S
C1004 H993 0.950 . S
C1004 C1002 1.391 . S
C1004 C1005 1.400 . S
C1005 C999 1.491 . S
C1005 C1004 1.400 . S
C1005 C1006 1.398 . S
C1006 H994 0.950 . S
C1006 C1005 1.398 . S
C1006 C1007 1.391 . S
C1007 H995 0.950 . S
C1007 C1003 1.393 . S
C1007 C1006 1.391 . S
H1008 C1016 0.950 . S
H1009 C1021 0.950 . S
H1010 C1018 0.950 . S
H1011 C1020 0.950 . S
H1012 C1022 0.950 . S
H1013 C1024 0.950 . S
H1014 C1026 0.950 . S
H1015 C1027 0.950 . S
C1016 H1008 0.950 . S
C1016 C1017 1.386 . S
C1016 C1018 1.391 . S
C1017 C1016 1.386 . S
C1017 C1021 1.393 . S
C1018 H1010 0.950 . S
C1018 C1016 1.391 . S
C1018 C1019 1.400 . S
C1019 C1018 1.400 . S
C1019 C1020 1.398 . S
C1019 C1025 1.491 . S
C1020 H1011 0.950 . S
C1020 C1019 1.398 . S
C1020 C1021 1.391 . S
C1021 H1009 0.950 . S
C1021 C1017 1.393 . S
C1021 C1020 1.391 . S
C1022 H1012 0.950 . S
C1022 C1023 1.386 . S
C1022 C1024 1.391 . S
C1023 C1022 1.386 . S
C1023 C1027 1.393 . S
C1024 H1013 0.950 . S
C1024 C1022 1.391 . S
C1024 C1025 1.400 . S
C1025 C1019 1.491 . S
C1025 C1024 1.400 . S
C1025 C1026 1.398 . S
C1026 H1014 0.950 . S
C1026 C1025 1.398 . S
C1026 C1027 1.391 . S
C1027 H1015 0.950 . S
C1027 C1023 1.393 . S
C1027 C1026 1.391 . S
H1028 C1036 0.950 . S
H1029 C1041 0.950 . S
H1030 C1038 0.950 . S
H1031 C1040 0.950 . S
H1032 C1042 0.950 . S
H1033 C1044 0.950 . S
H1034 C1046 0.950 . S
H1035 C1047 0.950 . S
C1036 H1028 0.950 . S
C1036 C1037 1.386 . S
C1036 C1038 1.391 . S
C1037 C1036 1.386 . S
C1037 C1041 1.393 . S
C1038 H1030 0.950 . S
C1038 C1036 1.391 . S
C1038 C1039 1.400 . S
C1039 C1038 1.400 . S
C1039 C1040 1.398 . S
C1039 C1045 1.491 . S
C1040 H1031 0.950 . S
C1040 C1039 1.398 . S
C1040 C1041 1.391 . S
C1041 H1029 0.950 . S
C1041 C1037 1.393 . S
C1041 C1040 1.391 . S
C1042 H1032 0.950 . S
C1042 C1043 1.386 . S
C1042 C1044 1.391 . S
C1043 C1042 1.386 . S
C1043 C1047 1.393 . S
C1044 H1033 0.950 . S
C1044 C1042 1.391 . S
C1044 C1045 1.400 . S
C1045 C1039 1.491 . S
C1045 C1044 1.400 . S
C1045 C1046 1.398 . S
C1046 H1034 0.950 . S
C1046 C1045 1.398 . S
C1046 C1047 1.391 . S
C1047 H1035 0.950 . S
C1047 C1043 1.393 . S
C1047 C1046 1.391 . S
H1048 C1056 0.950 . S
H1049 C1061 0.950 . S
H1050 C1058 0.950 . S
H1051 C1060 0.950 . S
H1052 C1062 0.950 . S
H1053 C1064 0.950 . S
H1054 C1066 0.950 . S
H1055 C1067 0.950 . S
C1056 H1048 0.950 . S
C1056 C1057 1.386 . S
C1056 C1058 1.391 . S
C1057 C1056 1.386 . S
C1057 C1061 1.393 . S
C1058 H1050 0.950 . S
C1058 C1056 1.391 . S
C1058 C1059 1.400 . S
C1059 C1058 1.400 . S
C1059 C1060 1.398 . S
C1059 C1065 1.491 . S
C1060 H1051 0.950 . S
C1060 C1059 1.398 . S
C1060 C1061 1.391 . S
C1061 H1049 0.950 . S
C1061 C1057 1.393 . S
C1061 C1060 1.391 . S
C1062 H1052 0.950 . S
C1062 C1063 1.386 . S
C1062 C1064 1.391 . S
C1063 C1062 1.386 . S
C1063 C1067 1.393 . S
C1064 H1053 0.950 . S
C1064 C1062 1.391 . S
C1064 C1065 1.400 . S
C1065 C1059 1.491 . S
C1065 C1064 1.400 . S
C1065 C1066 1.398 . S
C1066 H1054 0.950 . S
C1066 C1065 1.398 . S
C1066 C1067 1.391 . S
C1067 H1055 0.950 . S
C1067 C1063 1.393 . S
C1067 C1066 1.391 . S
H1068 C1076 0.950 . S
H1069 C1081 0.950 . S
H1070 C1078 0.950 . S
H1071 C1080 0.950 . S
H1072 C1082 0.950 1_655 S
H1073 C1084 0.950 . S
H1074 C1086 0.950 . S
H1075 C1087 0.950 . S
C1076 H1068 0.950 . S
C1076 C1077 1.386 . S
C1076 C1078 1.391 . S
C1077 C1076 1.386 . S
C1077 C1081 1.393 . S
C1078 H1070 0.950 . S
C1078 C1076 1.391 . S
C1078 C1079 1.400 . S
C1079 C1078 1.400 . S
C1079 C1080 1.398 . S
C1079 C1085 1.491 . S
C1080 H1071 0.950 . S
C1080 C1079 1.398 . S
C1080 C1081 1.391 . S
C1081 H1069 0.950 . S
C1081 C1077 1.393 . S
C1081 C1080 1.391 . S
C1082 H1072 0.950 1_455 S
C1082 C1083 1.386 . S
C1082 C1084 1.391 . S
C1083 C1082 1.386 . S
C1083 C1087 1.393 . S
C1084 H1073 0.950 . S
C1084 C1082 1.391 . S
C1084 C1085 1.400 . S
C1085 C1079 1.491 . S
C1085 C1084 1.400 . S
C1085 C1086 1.398 . S
C1086 H1074 0.950 . S
C1086 C1085 1.398 . S
C1086 C1087 1.391 . S
C1087 H1075 0.950 . S
C1087 C1083 1.393 . S
C1087 C1086 1.391 . S
H1088 C1096 0.950 . S
H1089 C1101 0.950 . S
H1090 C1098 0.950 . S
H1091 C1100 0.950 . S
H1092 C1102 0.950 . S
H1093 C1104 0.950 . S
H1094 C1106 0.950 . S
H1095 C1107 0.950 . S
C1096 H1088 0.950 . S
C1096 C1097 1.386 . S
C1096 C1098 1.391 . S
C1097 C1096 1.386 . S
C1097 C1101 1.393 . S
C1098 H1090 0.950 . S
C1098 C1096 1.391 . S
C1098 C1099 1.400 . S
C1099 C1098 1.400 . S
C1099 C1100 1.398 . S
C1099 C1105 1.491 . S
C1100 H1091 0.950 . S
C1100 C1099 1.398 . S
C1100 C1101 1.391 . S
C1101 H1089 0.950 . S
C1101 C1097 1.393 . S
C1101 C1100 1.391 . S
C1102 H1092 0.950 . S
C1102 C1103 1.386 . S
C1102 C1104 1.391 . S
C1103 C1102 1.386 . S
C1103 C1107 1.393 . S
C1104 H1093 0.950 . S
C1104 C1102 1.391 . S
C1104 C1105 1.400 . S
C1105 C1099 1.491 . S
C1105 C1104 1.400 . S
C1105 C1106 1.398 . S
C1106 H1094 0.950 . S
C1106 C1105 1.398 . S
C1106 C1107 1.391 . S
C1107 H1095 0.950 . S
C1107 C1103 1.393 . S
C1107 C1106 1.391 . S
H1108 C1116 0.950 . S
H1109 C1121 0.950 . S
H1110 C1118 0.950 . S
H1111 C1120 0.950 . S
H1112 C1122 0.950 . S
H1113 C1124 0.950 . S
H1114 C1126 0.950 . S
H1115 C1127 0.950 . S
C1116 H1108 0.950 . S
C1116 C1117 1.386 . S
C1116 C1118 1.391 . S
C1117 C1116 1.386 . S
C1117 C1121 1.393 . S
C1118 H1110 0.950 . S
C1118 C1116 1.391 . S
C1118 C1119 1.400 . S
C1119 C1118 1.400 . S
C1119 C1120 1.398 . S
C1119 C1125 1.491 . S
C1120 H1111 0.950 . S
C1120 C1119 1.398 . S
C1120 C1121 1.391 . S
C1121 H1109 0.950 . S
C1121 C1117 1.393 . S
C1121 C1120 1.391 . S
C1122 H1112 0.950 . S
C1122 C1123 1.386 . S
C1122 C1124 1.391 . S
C1123 C1122 1.386 . S
C1123 C1127 1.393 . S
C1124 H1113 0.950 . S
C1124 C1122 1.391 . S
C1124 C1125 1.400 . S
C1125 C1119 1.491 . S
C1125 C1124 1.400 . S
C1125 C1126 1.398 . S
C1126 H1114 0.950 . S
C1126 C1125 1.398 . S
C1126 C1127 1.391 . S
C1127 H1115 0.950 . S
C1127 C1123 1.393 . S
C1127 C1126 1.391 . S
H1128 C1136 0.950 . S
H1129 C1141 0.950 . S
H1130 C1138 0.950 . S
H1131 C1140 0.950 . S
H1132 C1142 0.950 . S
H1133 C1144 0.950 . S
H1134 C1146 0.950 . S
H1135 C1147 0.950 . S
C1136 H1128 0.950 . S
C1136 C1137 1.386 . S
C1136 C1138 1.391 . S
C1137 C1136 1.386 . S
C1137 C1141 1.393 . S
C1138 H1130 0.950 . S
C1138 C1136 1.391 . S
C1138 C1139 1.400 . S
C1139 C1138 1.400 . S
C1139 C1140 1.398 . S
C1139 C1145 1.491 . S
C1140 H1131 0.950 . S
C1140 C1139 1.398 . S
C1140 C1141 1.391 . S
C1141 H1129 0.950 . S
C1141 C1137 1.393 . S
C1141 C1140 1.391 . S
C1142 H1132 0.950 . S
C1142 C1143 1.386 . S
C1142 C1144 1.391 . S
C1143 C1142 1.386 . S
C1143 C1147 1.393 . S
C1144 H1133 0.950 . S
C1144 C1142 1.391 . S
C1144 C1145 1.400 . S
C1145 C1139 1.491 . S
C1145 C1144 1.400 . S
C1145 C1146 1.398 . S
C1146 H1134 0.950 . S
C1146 C1145 1.398 . S
C1146 C1147 1.391 . S
C1147 H1135 0.950 . S
C1147 C1143 1.393 . S
C1147 C1146 1.391 . S
H1148 C1156 0.950 . S
H1149 C1161 0.950 . S
H1150 C1158 0.950 . S
H1151 C1160 0.950 . S
H1152 C1162 0.950 . S
H1153 C1164 0.950 . S
H1154 C1166 0.950 . S
H1155 C1167 0.950 . S
C1156 H1148 0.950 . S
C1156 C1157 1.386 . S
C1156 C1158 1.391 . S
C1157 C1156 1.386 . S
C1157 C1161 1.393 . S
C1158 H1150 0.950 . S
C1158 C1156 1.391 . S
C1158 C1159 1.400 . S
C1159 C1158 1.400 . S
C1159 C1160 1.398 . S
C1159 C1165 1.491 . S
C1160 H1151 0.950 . S
C1160 C1159 1.398 . S
C1160 C1161 1.391 . S
C1161 H1149 0.950 . S
C1161 C1157 1.393 . S
C1161 C1160 1.391 . S
C1162 H1152 0.950 . S
C1162 C1163 1.386 . S
C1162 C1164 1.391 . S
C1163 C1162 1.386 . S
C1163 C1167 1.393 . S
C1164 H1153 0.950 . S
C1164 C1162 1.391 . S
C1164 C1165 1.400 . S
C1165 C1159 1.491 . S
C1165 C1164 1.400 . S
C1165 C1166 1.398 . S
C1166 H1154 0.950 . S
C1166 C1165 1.398 . S
C1166 C1167 1.391 . S
C1167 H1155 0.950 . S
C1167 C1163 1.393 . S
C1167 C1166 1.391 . S
H1168 C1176 0.950 . S
H1169 C1181 0.950 . S
H1170 C1178 0.950 . S
H1171 C1180 0.950 . S
H1172 C1182 0.950 . S
H1173 C1184 0.950 . S
H1174 C1186 0.950 . S
H1175 C1187 0.950 . S
C1176 H1168 0.950 . S
C1176 C1177 1.386 . S
C1176 C1178 1.391 . S
C1177 C1176 1.386 . S
C1177 C1181 1.393 . S
C1178 H1170 0.950 . S
C1178 C1176 1.391 . S
C1178 C1179 1.400 . S
C1179 C1178 1.400 . S
C1179 C1180 1.398 . S
C1179 C1185 1.491 . S
C1180 H1171 0.950 . S
C1180 C1179 1.398 . S
C1180 C1181 1.391 . S
C1181 H1169 0.950 . S
C1181 C1177 1.393 . S
C1181 C1180 1.391 . S
C1182 H1172 0.950 . S
C1182 C1183 1.386 . S
C1182 C1184 1.391 . S
C1183 C1182 1.386 . S
C1183 C1187 1.393 . S
C1184 H1173 0.950 . S
C1184 C1182 1.391 . S
C1184 C1185 1.400 . S
C1185 C1179 1.491 . S
C1185 C1184 1.400 . S
C1185 C1186 1.398 . S
C1186 H1174 0.950 . S
C1186 C1185 1.398 . S
C1186 C1187 1.391 . S
C1187 H1175 0.950 . S
C1187 C1183 1.393 . S
C1187 C1186 1.391 . S
H1188 C1196 0.950 . S
H1189 C1201 0.950 1_655 S
H1190 C1198 0.950 . S
H1191 C1200 0.950 . S
H1192 C1202 0.950 . S
H1193 C1204 0.950 . S
H1194 C1206 0.950 . S
H1195 C1207 0.950 . S
C1196 H1188 0.950 . S
C1196 C1197 1.386 . S
C1196 C1198 1.391 . S
C1197 C1196 1.386 . S
C1197 C1201 1.393 . S
C1198 H1190 0.950 . S
C1198 C1196 1.391 . S
C1198 C1199 1.400 . S
C1199 C1198 1.400 . S
C1199 C1200 1.398 . S
C1199 C1205 1.491 . S
C1200 H1191 0.950 . S
C1200 C1199 1.398 . S
C1200 C1201 1.391 . S
C1201 H1189 0.950 1_455 S
C1201 C1197 1.393 . S
C1201 C1200 1.391 . S
C1202 H1192 0.950 . S
C1202 C1203 1.386 . S
C1202 C1204 1.391 . S
C1203 C1202 1.386 . S
C1203 C1207 1.393 . S
C1204 H1193 0.950 . S
C1204 C1202 1.391 . S
C1204 C1205 1.400 . S
C1205 C1199 1.491 . S
C1205 C1204 1.400 . S
C1205 C1206 1.398 . S
C1206 H1194 0.950 . S
C1206 C1205 1.398 . S
C1206 C1207 1.391 . S
C1207 H1195 0.950 . S
C1207 C1203 1.393 . S
C1207 C1206 1.391 . S
H1208 C1216 0.950 . S
H1209 C1221 0.950 . S
H1210 C1218 0.950 . S
H1211 C1220 0.950 . S
H1212 C1222 0.950 . S
H1213 C1224 0.950 . S
H1214 C1226 0.950 . S
H1215 C1227 0.950 . S
C1216 H1208 0.950 . S
C1216 C1217 1.386 . S
C1216 C1218 1.391 . S
C1217 C1216 1.386 . S
C1217 C1221 1.393 . S
C1218 H1210 0.950 . S
C1218 C1216 1.391 . S
C1218 C1219 1.400 . S
C1219 C1218 1.400 . S
C1219 C1220 1.398 . S
C1219 C1225 1.491 . S
C1220 H1211 0.950 . S
C1220 C1219 1.398 . S
C1220 C1221 1.391 . S
C1221 H1209 0.950 . S
C1221 C1217 1.393 . S
C1221 C1220 1.391 . S
C1222 H1212 0.950 . S
C1222 C1223 1.386 . S
C1222 C1224 1.391 . S
C1223 C1222 1.386 . S
C1223 C1227 1.393 . S
C1224 H1213 0.950 . S
C1224 C1222 1.391 . S
C1224 C1225 1.400 . S
C1225 C1219 1.491 . S
C1225 C1224 1.400 . S
C1225 C1226 1.398 . S
C1226 H1214 0.950 . S
C1226 C1225 1.398 . S
C1226 C1227 1.391 . S
C1227 H1215 0.950 . S
C1227 C1223 1.393 . S
C1227 C1226 1.391 . S
H1228 C1236 0.950 . S
H1229 C1241 0.950 . S
H1230 C1238 0.950 . S
H1231 C1240 0.950 . S
H1232 C1242 0.950 . S
H1233 C1244 0.950 . S
H1234 C1246 0.950 . S
H1235 C1247 0.950 . S
C1236 H1228 0.950 . S
C1236 C1237 1.386 . S
C1236 C1238 1.391 . S
C1237 C1236 1.386 . S
C1237 C1241 1.393 . S
C1238 H1230 0.950 . S
C1238 C1236 1.391 . S
C1238 C1239 1.400 . S
C1239 C1238 1.400 . S
C1239 C1240 1.398 . S
C1239 C1245 1.491 . S
C1240 H1231 0.950 . S
C1240 C1239 1.398 . S
C1240 C1241 1.391 . S
C1241 H1229 0.950 . S
C1241 C1237 1.393 . S
C1241 C1240 1.391 . S
C1242 H1232 0.950 . S
C1242 C1243 1.386 . S
C1242 C1244 1.391 . S
C1243 C1242 1.386 . S
C1243 C1247 1.393 . S
C1244 H1233 0.950 . S
C1244 C1242 1.391 . S
C1244 C1245 1.400 . S
C1245 C1239 1.491 . S
C1245 C1244 1.400 . S
C1245 C1246 1.398 . S
C1246 H1234 0.950 . S
C1246 C1245 1.398 . S
C1246 C1247 1.391 . S
C1247 H1235 0.950 . S
C1247 C1243 1.393 . S
C1247 C1246 1.391 . S
H1248 C1256 0.950 . S
H1249 C1261 0.950 . S
H1250 C1258 0.950 . S
H1251 C1260 0.950 . S
H1252 C1262 0.950 . S
H1253 C1264 0.950 . S
H1254 C1266 0.950 . S
H1255 C1267 0.950 . S
C1256 H1248 0.950 . S
C1256 C1257 1.386 . S
C1256 C1258 1.391 . S
C1257 C1256 1.386 . S
C1257 C1261 1.393 . S
C1258 H1250 0.950 . S
C1258 C1256 1.391 . S
C1258 C1259 1.400 . S
C1259 C1258 1.400 . S
C1259 C1260 1.398 . S
C1259 C1265 1.491 . S
C1260 H1251 0.950 . S
C1260 C1259 1.398 . S
C1260 C1261 1.391 . S
C1261 H1249 0.950 . S
C1261 C1257 1.393 . S
C1261 C1260 1.391 . S
C1262 H1252 0.950 . S
C1262 C1263 1.386 . S
C1262 C1264 1.391 . S
C1263 C1262 1.386 . S
C1263 C1267 1.393 . S
C1264 H1253 0.950 . S
C1264 C1262 1.391 . S
C1264 C1265 1.400 . S
C1265 C1259 1.491 . S
C1265 C1264 1.400 . S
C1265 C1266 1.398 . S
C1266 H1254 0.950 . S
C1266 C1265 1.398 . S
C1266 C1267 1.391 . S
C1267 H1255 0.950 . S
C1267 C1263 1.393 . S
C1267 C1266 1.391 . S
H1268 C1276 0.950 . S
H1269 C1281 0.950 . S
H1270 C1278 0.950 . S
H1271 C1280 0.950 . S
H1272 C1282 0.950 . S
H1273 C1284 0.950 . S
H1274 C1286 0.950 . S
H1275 C1287 0.950 . S
C1276 H1268 0.950 . S
C1276 C1277 1.386 . S
C1276 C1278 1.391 . S
C1277 C1276 1.386 . S
C1277 C1281 1.393 . S
C1278 H1270 0.950 . S
C1278 C1276 1.391 . S
C1278 C1279 1.400 . S
C1279 C1278 1.400 . S
C1279 C1280 1.398 . S
C1279 C1285 1.491 . S
C1280 H1271 0.950 . S
C1280 C1279 1.398 . S
C1280 C1281 1.391 . S
C1281 H1269 0.950 . S
C1281 C1277 1.393 . S
C1281 C1280 1.391 . S
C1282 H1272 0.950 . S
C1282 C1283 1.386 . S
C1282 C1284 1.391 . S
C1283 C1282 1.386 . S
C1283 C1287 1.393 . S
C1284 H1273 0.950 . S
C1284 C1282 1.391 . S
C1284 C1285 1.400 . S
C1285 C1279 1.491 . S
C1285 C1284 1.400 . S
C1285 C1286 1.398 . S
C1286 H1274 0.950 . S
C1286 C1285 1.398 . S
C1286 C1287 1.391 . S
C1287 H1275 0.950 . S
C1287 C1283 1.393 . S
C1287 C1286 1.391 . S
H1288 C1296 0.950 . S
H1289 C1301 0.950 . S
H1290 C1298 0.950 . S
H1291 C1300 0.950 . S
H1292 C1302 0.950 . S
H1293 C1304 0.950 . S
H1294 C1306 0.950 . S
H1295 C1307 0.950 . S
C1296 H1288 0.950 . S
C1296 C1297 1.386 . S
C1296 C1298 1.391 . S
C1297 C1296 1.386 . S
C1297 C1301 1.393 . S
C1298 H1290 0.950 . S
C1298 C1296 1.391 . S
C1298 C1299 1.400 . S
C1299 C1298 1.400 . S
C1299 C1300 1.398 . S
C1299 C1305 1.491 . S
C1300 H1291 0.950 . S
C1300 C1299 1.398 . S
C1300 C1301 1.391 . S
C1301 H1289 0.950 . S
C1301 C1297 1.393 . S
C1301 C1300 1.391 . S
C1302 H1292 0.950 . S
C1302 C1303 1.386 . S
C1302 C1304 1.391 . S
C1303 C1302 1.386 . S
C1303 C1307 1.393 . S
C1304 H1293 0.950 . S
C1304 C1302 1.391 . S
C1304 C1305 1.400 . S
C1305 C1299 1.491 . S
C1305 C1304 1.400 . S
C1305 C1306 1.398 . S
C1306 H1294 0.950 . S
C1306 C1305 1.398 . S
C1306 C1307 1.391 . S
C1307 H1295 0.950 . S
C1307 C1303 1.393 . S
C1307 C1306 1.391 . S
H1308 C1316 0.950 . S
H1309 C1321 0.950 . S
H1310 C1318 0.950 . S
H1311 C1320 0.950 . S
H1312 C1322 0.950 1_455 S
H1313 C1324 0.950 . S
H1314 C1326 0.950 . S
H1315 C1327 0.950 . S
C1316 H1308 0.950 . S
C1316 C1317 1.386 . S
C1316 C1318 1.391 . S
C1317 C1316 1.386 . S
C1317 C1321 1.393 . S
C1318 H1310 0.950 . S
C1318 C1316 1.391 . S
C1318 C1319 1.400 . S
C1319 C1318 1.400 . S
C1319 C1320 1.398 . S
C1319 C1325 1.491 . S
C1320 H1311 0.950 . S
C1320 C1319 1.398 . S
C1320 C1321 1.391 . S
C1321 H1309 0.950 . S
C1321 C1317 1.393 . S
C1321 C1320 1.391 . S
C1322 H1312 0.950 1_655 S
C1322 C1323 1.386 . S
C1322 C1324 1.391 . S
C1323 C1322 1.386 . S
C1323 C1327 1.393 . S
C1324 H1313 0.950 . S
C1324 C1322 1.391 . S
C1324 C1325 1.400 . S
C1325 C1319 1.491 . S
C1325 C1324 1.400 . S
C1325 C1326 1.398 . S
C1326 H1314 0.950 . S
C1326 C1325 1.398 . S
C1326 C1327 1.391 . S
C1327 H1315 0.950 . S
C1327 C1323 1.393 . S
C1327 C1326 1.391 . S
H1328 C1336 0.950 . S
H1329 C1341 0.950 . S
H1330 C1338 0.950 . S
H1331 C1340 0.950 . S
H1332 C1342 0.950 . S
H1333 C1344 0.950 . S
H1334 C1346 0.950 . S
H1335 C1347 0.950 . S
C1336 H1328 0.950 . S
C1336 C1337 1.386 . S
C1336 C1338 1.391 . S
C1337 C1336 1.386 . S
C1337 C1341 1.393 . S
C1338 H1330 0.950 . S
C1338 C1336 1.391 . S
C1338 C1339 1.400 . S
C1339 C1338 1.400 . S
C1339 C1340 1.398 . S
C1339 C1345 1.491 . S
C1340 H1331 0.950 . S
C1340 C1339 1.398 . S
C1340 C1341 1.391 . S
C1341 H1329 0.950 . S
C1341 C1337 1.393 . S
C1341 C1340 1.391 . S
C1342 H1332 0.950 . S
C1342 C1343 1.386 . S
C1342 C1344 1.391 . S
C1343 C1342 1.386 . S
C1343 C1347 1.393 . S
C1344 H1333 0.950 . S
C1344 C1342 1.391 . S
C1344 C1345 1.400 . S
C1345 C1339 1.491 . S
C1345 C1344 1.400 . S
C1345 C1346 1.398 . S
C1346 H1334 0.950 . S
C1346 C1345 1.398 . S
C1346 C1347 1.391 . S
C1347 H1335 0.950 . S
C1347 C1343 1.393 . S
C1347 C1346 1.391 . S
H1348 C1356 0.950 . S
H1349 C1361 0.950 1_455 S
H1350 C1358 0.950 . S
H1351 C1360 0.950 . S
H1352 C1362 0.950 . S
H1353 C1364 0.950 . S
H1354 C1366 0.950 . S
H1355 C1367 0.950 . S
C1356 H1348 0.950 . S
C1356 C1357 1.386 . S
C1356 C1358 1.391 . S
C1357 C1356 1.386 . S
C1357 C1361 1.393 . S
C1358 H1350 0.950 . S
C1358 C1356 1.391 . S
C1358 C1359 1.400 . S
C1359 C1358 1.400 . S
C1359 C1360 1.398 . S
C1359 C1365 1.491 . S
C1360 H1351 0.950 . S
C1360 C1359 1.398 . S
C1360 C1361 1.391 . S
C1361 H1349 0.950 1_655 S
C1361 C1357 1.393 . S
C1361 C1360 1.391 . S
C1362 H1352 0.950 . S
C1362 C1363 1.386 . S
C1362 C1364 1.391 . S
C1363 C1362 1.386 . S
C1363 C1367 1.393 . S
C1364 H1353 0.950 . S
C1364 C1362 1.391 . S
C1364 C1365 1.400 . S
C1365 C1359 1.491 . S
C1365 C1364 1.400 . S
C1365 C1366 1.398 . S
C1366 H1354 0.950 . S
C1366 C1365 1.398 . S
C1366 C1367 1.391 . S
C1367 H1355 0.950 . S
C1367 C1363 1.393 . S
C1367 C1366 1.391 . S
H1368 C1376 0.950 . S
H1369 C1381 0.950 . S
H1370 C1378 0.950 . S
H1371 C1380 0.950 . S
H1372 C1382 0.950 . S
H1373 C1384 0.950 . S
H1374 C1386 0.950 . S
H1375 C1387 0.950 . S
C1376 H1368 0.950 . S
C1376 C1377 1.386 . S
C1376 C1378 1.391 . S
C1377 C1376 1.386 . S
C1377 C1381 1.393 . S
C1378 H1370 0.950 . S
C1378 C1376 1.391 . S
C1378 C1379 1.400 . S
C1379 C1378 1.400 . S
C1379 C1380 1.398 . S
C1379 C1385 1.491 . S
C1380 H1371 0.950 . S
C1380 C1379 1.398 . S
C1380 C1381 1.391 . S
C1381 H1369 0.950 . S
C1381 C1377 1.393 . S
C1381 C1380 1.391 . S
C1382 H1372 0.950 . S
C1382 C1383 1.386 . S
C1382 C1384 1.391 . S
C1383 C1382 1.386 . S
C1383 C1387 1.393 . S
C1384 H1373 0.950 . S
C1384 C1382 1.391 . S
C1384 C1385 1.400 . S
C1385 C1379 1.491 . S
C1385 C1384 1.400 . S
C1385 C1386 1.398 . S
C1386 H1374 0.950 . S
C1386 C1385 1.398 . S
C1386 C1387 1.391 . S
C1387 H1375 0.950 . S
C1387 C1383 1.393 . S
C1387 C1386 1.391 . S
H1388 C1396 0.950 . S
H1389 C1401 0.950 . S
H1390 C1398 0.950 . S
H1391 C1400 0.950 . S
H1392 C1402 0.950 . S
H1393 C1404 0.950 . S
H1394 C1406 0.950 . S
H1395 C1407 0.950 . S
C1396 H1388 0.950 . S
C1396 C1397 1.386 . S
C1396 C1398 1.391 . S
C1397 C1396 1.386 . S
C1397 C1401 1.393 . S
C1398 H1390 0.950 . S
C1398 C1396 1.391 . S
C1398 C1399 1.400 . S
C1399 C1398 1.400 . S
C1399 C1400 1.398 . S
C1399 C1405 1.491 . S
C1400 H1391 0.950 . S
C1400 C1399 1.398 . S
C1400 C1401 1.391 . S
C1401 H1389 0.950 . S
C1401 C1397 1.393 . S
C1401 C1400 1.391 . S
C1402 H1392 0.950 . S
C1402 C1403 1.386 . S
C1402 C1404 1.391 . S
C1403 C1402 1.386 . S
C1403 C1407 1.393 . S
C1404 H1393 0.950 . S
C1404 C1402 1.391 . S
C1404 C1405 1.400 . S
C1405 C1399 1.491 . S
C1405 C1404 1.400 . S
C1405 C1406 1.398 . S
C1406 H1394 0.950 . S
C1406 C1405 1.398 . S
C1406 C1407 1.391 . S
C1407 H1395 0.950 . S
C1407 C1403 1.393 . S
C1407 C1406 1.391 . S
H1408 C1416 0.950 . S
H1409 C1421 0.950 . S
H1410 C1418 0.950 . S
H1411 C1420 0.950 . S
H1412 C1422 0.950 . S
H1413 C1424 0.950 . S
H1414 C1426 0.950 . S
H1415 C1427 0.950 . S
C1416 H1408 0.950 . S
C1416 C1417 1.386 . S
C1416 C1418 1.391 . S
C1417 C1416 1.386 . S
C1417 C1421 1.393 . S
C1418 H1410 0.950 . S
C1418 C1416 1.391 . S
C1418 C1419 1.400 . S
C1419 C1418 1.400 . S
C1419 C1420 1.398 . S
C1419 C1425 1.491 . S
C1420 H1411 0.950 . S
C1420 C1419 1.398 . S
C1420 C1421 1.391 . S
C1421 H1409 0.950 . S
C1421 C1417 1.393 . S
C1421 C1420 1.391 . S
C1422 H1412 0.950 . S
C1422 C1423 1.386 . S
C1422 C1424 1.391 . S
C1423 C1422 1.386 . S
C1423 C1427 1.393 . S
C1424 H1413 0.950 . S
C1424 C1422 1.391 . S
C1424 C1425 1.400 . S
C1425 C1419 1.491 . S
C1425 C1424 1.400 . S
C1425 C1426 1.398 . S
C1426 H1414 0.950 . S
C1426 C1425 1.398 . S
C1426 C1427 1.391 . S
C1427 H1415 0.950 . S
C1427 C1423 1.393 . S
C1427 C1426 1.391 . S
H1428 C1436 0.950 . S
H1429 C1441 0.950 . S
H1430 C1438 0.950 . S
H1431 C1440 0.950 . S
H1432 C1442 0.950 . S
H1433 C1444 0.950 . S
H1434 C1446 0.950 . S
H1435 C1447 0.950 . S
C1436 H1428 0.950 . S
C1436 C1437 1.386 . S
C1436 C1438 1.391 . S
C1437 C1436 1.386 . S
C1437 C1441 1.393 . S
C1438 H1430 0.950 . S
C1438 C1436 1.391 . S
C1438 C1439 1.400 . S
C1439 C1438 1.400 . S
C1439 C1440 1.398 . S
C1439 C1445 1.491 . S
C1440 H1431 0.950 . S
C1440 C1439 1.398 . S
C1440 C1441 1.391 . S
C1441 H1429 0.950 . S
C1441 C1437 1.393 . S
C1441 C1440 1.391 . S
C1442 H1432 0.950 . S
C1442 C1443 1.386 . S
C1442 C1444 1.391 . S
C1443 C1442 1.386 . S
C1443 C1447 1.393 . S
C1444 H1433 0.950 . S
C1444 C1442 1.391 . S
C1444 C1445 1.400 . S
C1445 C1439 1.491 . S
C1445 C1444 1.400 . S
C1445 C1446 1.398 . S
C1446 H1434 0.950 . S
C1446 C1445 1.398 . S
C1446 C1447 1.391 . S
C1447 H1435 0.950 . S
C1447 C1443 1.393 . S
C1447 C1446 1.391 . S
H1448 C1456 0.950 . S
H1449 C1461 0.950 . S
H1450 C1458 0.950 . S
H1451 C1460 0.950 . S
H1452 C1462 0.950 . S
H1453 C1464 0.950 . S
H1454 C1466 0.950 . S
H1455 C1467 0.950 . S
C1456 H1448 0.950 . S
C1456 C1457 1.386 . S
C1456 C1458 1.391 . S
C1457 C1456 1.386 . S
C1457 C1461 1.393 . S
C1458 H1450 0.950 . S
C1458 C1456 1.391 . S
C1458 C1459 1.400 . S
C1459 C1458 1.400 . S
C1459 C1460 1.398 . S
C1459 C1465 1.491 . S
C1460 H1451 0.950 . S
C1460 C1459 1.398 . S
C1460 C1461 1.391 . S
C1461 H1449 0.950 . S
C1461 C1457 1.393 . S
C1461 C1460 1.391 . S
C1462 H1452 0.950 . S
C1462 C1463 1.386 . S
C1462 C1464 1.391 . S
C1463 C1462 1.386 . S
C1463 C1467 1.393 . S
C1464 H1453 0.950 . S
C1464 C1462 1.391 . S
C1464 C1465 1.400 . S
C1465 C1459 1.491 . S
C1465 C1464 1.400 . S
C1465 C1466 1.398 . S
C1466 H1454 0.950 . S
C1466 C1465 1.398 . S
C1466 C1467 1.391 . S
C1467 H1455 0.950 . S
C1467 C1463 1.393 . S
C1467 C1466 1.391 . S
H1468 C1476 0.950 . S
H1469 C1481 0.950 . S
H1470 C1478 0.950 . S
H1471 C1480 0.950 . S
H1472 C1482 0.950 . S
H1473 C1484 0.950 . S
H1474 C1486 0.950 . S
H1475 C1487 0.950 . S
C1476 H1468 0.950 . S
C1476 C1477 1.386 . S
C1476 C1478 1.391 . S
C1477 C1476 1.386 . S
C1477 C1481 1.393 1_556 S
C1478 H1470 0.950 . S
C1478 C1476 1.391 . S
C1478 C1479 1.400 . S
C1479 C1478 1.400 . S
C1479 C1480 1.398 1_556 S
C1479 C1485 1.491 1_556 S
C1480 H1471 0.950 . S
C1480 C1479 1.398 1_554 S
C1480 C1481 1.391 . S
C1481 H1469 0.950 . S
C1481 C1477 1.393 1_554 S
C1481 C1480 1.391 . S
C1482 H1472 0.950 . S
C1482 C1483 1.386 . S
C1482 C1484 1.391 . S
C1483 C1482 1.386 . S
C1483 C1487 1.393 1_554 S
C1484 H1473 0.950 . S
C1484 C1482 1.391 . S
C1484 C1485 1.400 . S
C1485 C1479 1.491 1_554 S
C1485 C1484 1.400 . S
C1485 C1486 1.398 1_554 S
C1486 H1474 0.950 . S
C1486 C1485 1.398 1_556 S
C1486 C1487 1.391 . S
C1487 H1475 0.950 . S
C1487 C1483 1.393 1_556 S
C1487 C1486 1.391 . S
H1488 C1496 0.950 . S
H1489 C1501 0.950 . S
H1490 C1498 0.950 . S
H1491 C1500 0.950 . S
H1492 C1502 0.950 . S
H1493 C1504 0.950 . S
H1494 C1506 0.950 . S
H1495 C1507 0.950 . S
C1496 H1488 0.950 . S
C1496 C1497 1.386 . S
C1496 C1498 1.391 . S
C1497 C1496 1.386 . S
C1497 C1501 1.393 . S
C1498 H1490 0.950 . S
C1498 C1496 1.391 . S
C1498 C1499 1.400 . S
C1499 C1498 1.400 . S
C1499 C1500 1.398 . S
C1499 C1505 1.491 . S
C1500 H1491 0.950 . S
C1500 C1499 1.398 . S
C1500 C1501 1.391 . S
C1501 H1489 0.950 . S
C1501 C1497 1.393 . S
C1501 C1500 1.391 . S
C1502 H1492 0.950 . S
C1502 C1503 1.386 . S
C1502 C1504 1.391 . S
C1503 C1502 1.386 . S
C1503 C1507 1.393 . S
C1504 H1493 0.950 . S
C1504 C1502 1.391 . S
C1504 C1505 1.400 . S
C1505 C1499 1.491 . S
C1505 C1504 1.400 . S
C1505 C1506 1.398 . S
C1506 H1494 0.950 . S
C1506 C1505 1.398 . S
C1506 C1507 1.391 . S
C1507 H1495 0.950 . S
C1507 C1503 1.393 . S
C1507 C1506 1.391 . S
H1508 C1516 0.950 . S
H1509 C1521 0.950 . S
H1510 C1518 0.950 . S
H1511 C1520 0.950 . S
H1512 C1522 0.950 . S
H1513 C1524 0.950 . S
H1514 C1526 0.950 . S
H1515 C1527 0.950 . S
C1516 H1508 0.950 . S
C1516 C1517 1.386 . S
C1516 C1518 1.391 . S
C1517 C1516 1.386 . S
C1517 C1521 1.393 . S
C1518 H1510 0.950 . S
C1518 C1516 1.391 . S
C1518 C1519 1.400 . S
C1519 C1518 1.400 . S
C1519 C1520 1.398 . S
C1519 C1525 1.491 . S
C1520 H1511 0.950 . S
C1520 C1519 1.398 . S
C1520 C1521 1.391 . S
C1521 H1509 0.950 . S
C1521 C1517 1.393 . S
C1521 C1520 1.391 . S
C1522 H1512 0.950 . S
C1522 C1523 1.386 . S
C1522 C1524 1.391 . S
C1523 C1522 1.386 . S
C1523 C1527 1.393 . S
C1524 H1513 0.950 . S
C1524 C1522 1.391 . S
C1524 C1525 1.400 . S
C1525 C1519 1.491 . S
C1525 C1524 1.400 . S
C1525 C1526 1.398 . S
C1526 H1514 0.950 . S
C1526 C1525 1.398 . S
C1526 C1527 1.391 . S
C1527 H1515 0.950 . S
C1527 C1523 1.393 . S
C1527 C1526 1.391 . S
H1528 C1536 0.950 . S
H1529 C1541 0.950 . S
H1530 C1538 0.950 . S
H1531 C1540 0.950 . S
H1532 C1542 0.950 . S
H1533 C1544 0.950 . S
H1534 C1546 0.950 . S
H1535 C1547 0.950 . S
C1536 H1528 0.950 . S
C1536 C1537 1.386 . S
C1536 C1538 1.391 . S
C1537 C1536 1.386 . S
C1537 C1541 1.393 . S
C1538 H1530 0.950 . S
C1538 C1536 1.391 . S
C1538 C1539 1.400 . S
C1539 C1538 1.400 . S
C1539 C1540 1.398 . S
C1539 C1545 1.491 . S
C1540 H1531 0.950 . S
C1540 C1539 1.398 . S
C1540 C1541 1.391 . S
C1541 H1529 0.950 . S
C1541 C1537 1.393 . S
C1541 C1540 1.391 . S
C1542 H1532 0.950 . S
C1542 C1543 1.386 . S
C1542 C1544 1.391 . S
C1543 C1542 1.386 . S
C1543 C1547 1.393 . S
C1544 H1533 0.950 . S
C1544 C1542 1.391 . S
C1544 C1545 1.400 . S
C1545 C1539 1.491 . S
C1545 C1544 1.400 . S
C1545 C1546 1.398 . S
C1546 H1534 0.950 . S
C1546 C1545 1.398 . S
C1546 C1547 1.391 . S
C1547 H1535 0.950 . S
C1547 C1543 1.393 . S
C1547 C1546 1.391 . S
H1548 C1556 0.950 . S
H1549 C1561 0.950 . S
H1550 C1558 0.950 . S
H1551 C1560 0.950 . S
H1552 C1562 0.950 . S
H1553 C1564 0.950 . S
H1554 C1566 0.950 . S
H1555 C1567 0.950 . S
C1556 H1548 0.950 . S
C1556 C1557 1.386 . S
C1556 C1558 1.391 . S
C1557 C1556 1.386 . S
C1557 C1561 1.393 . S
C1558 H1550 0.950 . S
C1558 C1556 1.391 . S
C1558 C1559 1.400 . S
C1559 C1558 1.400 . S
C1559 C1560 1.398 . S
C1559 C1565 1.491 1_554 S
C1560 H1551 0.950 . S
C1560 C1559 1.398 . S
C1560 C1561 1.391 . S
C1561 H1549 0.950 . S
C1561 C1557 1.393 . S
C1561 C1560 1.391 . S
C1562 H1552 0.950 . S
C1562 C1563 1.386 . S
C1562 C1564 1.391 . S
C1563 C1562 1.386 . S
C1563 C1567 1.393 . S
C1564 H1553 0.950 . S
C1564 C1562 1.391 . S
C1564 C1565 1.400 . S
C1565 C1559 1.491 1_556 S
C1565 C1564 1.400 . S
C1565 C1566 1.398 . S
C1566 H1554 0.950 . S
C1566 C1565 1.398 . S
C1566 C1567 1.391 . S
C1567 H1555 0.950 . S
C1567 C1563 1.393 . S
C1567 C1566 1.391 . S
H1568 C1576 0.950 . S
H1569 C1581 0.950 . S
H1570 C1578 0.950 . S
H1571 C1580 0.950 . S
H1572 C1582 0.950 . S
H1573 C1584 0.950 . S
H1574 C1586 0.950 . S
H1575 C1587 0.950 . S
C1576 H1568 0.950 . S
C1576 C1577 1.386 . S
C1576 C1578 1.391 . S
C1577 C1576 1.386 . S
C1577 C1581 1.393 . S
C1578 H1570 0.950 . S
C1578 C1576 1.391 . S
C1578 C1579 1.400 . S
C1579 C1578 1.400 . S
C1579 C1580 1.398 . S
C1579 C1585 1.491 1_565 S
C1580 H1571 0.950 . S
C1580 C1579 1.398 . S
C1580 C1581 1.391 . S
C1581 H1569 0.950 . S
C1581 C1577 1.393 . S
C1581 C1580 1.391 . S
C1582 H1572 0.950 . S
C1582 C1583 1.386 . S
C1582 C1584 1.391 . S
C1583 C1582 1.386 . S
C1583 C1587 1.393 . S
C1584 H1573 0.950 . S
C1584 C1582 1.391 . S
C1584 C1585 1.400 . S
C1585 C1579 1.491 1_545 S
C1585 C1584 1.400 . S
C1585 C1586 1.398 . S
C1586 H1574 0.950 . S
C1586 C1585 1.398 . S
C1586 C1587 1.391 . S
C1587 H1575 0.950 . S
C1587 C1583 1.393 . S
C1587 C1586 1.391 . S
H1588 C1596 0.950 . S
H1589 C1601 0.950 . S
H1590 C1598 0.950 . S
H1591 C1600 0.950 . S
H1592 C1602 0.950 . S
H1593 C1604 0.950 . S
H1594 C1606 0.950 . S
H1595 C1607 0.950 . S
C1596 H1588 0.950 . S
C1596 C1597 1.386 . S
C1596 C1598 1.391 . S
C1597 C1596 1.386 . S
C1597 C1601 1.393 1_554 S
C1598 H1590 0.950 . S
C1598 C1596 1.391 . S
C1598 C1599 1.400 . S
C1599 C1598 1.400 . S
C1599 C1600 1.398 1_554 S
C1599 C1605 1.491 1_554 S
C1600 H1591 0.950 . S
C1600 C1599 1.398 1_556 S
C1600 C1601 1.391 . S
C1601 H1589 0.950 . S
C1601 C1597 1.393 1_556 S
C1601 C1600 1.391 . S
C1602 H1592 0.950 . S
C1602 C1603 1.386 . S
C1602 C1604 1.391 . S
C1603 C1602 1.386 . S
C1603 C1607 1.393 1_556 S
C1604 H1593 0.950 . S
C1604 C1602 1.391 . S
C1604 C1605 1.400 . S
C1605 C1599 1.491 1_556 S
C1605 C1604 1.400 . S
C1605 C1606 1.398 1_556 S
C1606 H1594 0.950 . S
C1606 C1605 1.398 1_554 S
C1606 C1607 1.391 . S
C1607 H1595 0.950 . S
C1607 C1603 1.393 1_554 S
C1607 C1606 1.391 . S
H1608 C1616 0.950 . S
H1609 C1621 0.950 . S
H1610 C1618 0.950 . S
H1611 C1620 0.950 . S
H1612 C1622 0.950 . S
H1613 C1624 0.950 . S
H1614 C1626 0.950 . S
H1615 C1627 0.950 . S
C1616 H1608 0.950 . S
C1616 C1617 1.386 . S
C1616 C1618 1.391 . S
C1617 C1616 1.386 . S
C1617 C1621 1.393 . S
C1618 H1610 0.950 . S
C1618 C1616 1.391 . S
C1618 C1619 1.400 . S
C1619 C1618 1.400 . S
C1619 C1620 1.398 . S
C1619 C1625 1.491 1_545 S
C1620 H1611 0.950 . S
C1620 C1619 1.398 . S
C1620 C1621 1.391 . S
C1621 H1609 0.950 . S
C1621 C1617 1.393 . S
C1621 C1620 1.391 . S
C1622 H1612 0.950 . S
C1622 C1623 1.386 . S
C1622 C1624 1.391 . S
C1623 C1622 1.386 . S
C1623 C1627 1.393 . S
C1624 H1613 0.950 . S
C1624 C1622 1.391 . S
C1624 C1625 1.400 . S
C1625 C1619 1.491 1_565 S
C1625 C1624 1.400 . S
C1625 C1626 1.398 . S
C1626 H1614 0.950 . S
C1626 C1625 1.398 . S
C1626 C1627 1.391 . S
C1627 H1615 0.950 . S
C1627 C1623 1.393 . S
C1627 C1626 1.391 . S
H1628 C1636 0.950 . S
H1629 C1641 0.950 . S
H1630 C1638 0.950 . S
H1631 C1640 0.950 . S
H1632 C1642 0.950 . S
H1633 C1644 0.950 . S
H1634 C1646 0.950 . S
H1635 C1647 0.950 . S
C1636 H1628 0.950 . S
C1636 C1637 1.386 . S
C1636 C1638 1.391 . S
C1637 C1636 1.386 . S
C1637 C1641 1.393 . S
C1638 H1630 0.950 . S
C1638 C1636 1.391 . S
C1638 C1639 1.400 . S
C1639 C1638 1.400 . S
C1639 C1640 1.398 . S
C1639 C1645 1.491 . S
C1640 H1631 0.950 . S
C1640 C1639 1.398 . S
C1640 C1641 1.391 . S
C1641 H1629 0.950 . S
C1641 C1637 1.393 . S
C1641 C1640 1.391 . S
C1642 H1632 0.950 . S
C1642 C1643 1.386 . S
C1642 C1644 1.391 . S
C1643 C1642 1.386 . S
C1643 C1647 1.393 . S
C1644 H1633 0.950 . S
C1644 C1642 1.391 . S
C1644 C1645 1.400 . S
C1645 C1639 1.491 . S
C1645 C1644 1.400 . S
C1645 C1646 1.398 . S
C1646 H1634 0.950 . S
C1646 C1645 1.398 . S
C1646 C1647 1.391 . S
C1647 H1635 0.950 . S
C1647 C1643 1.393 . S
C1647 C1646 1.391 . S
H1648 C1656 0.950 . S
H1649 C1661 0.950 . S
H1650 C1658 0.950 . S
H1651 C1660 0.950 . S
H1652 C1662 0.950 . S
H1653 C1664 0.950 . S
H1654 C1666 0.950 . S
H1655 C1667 0.950 . S
C1656 H1648 0.950 . S
C1656 C1657 1.386 . S
C1656 C1658 1.391 . S
C1657 C1656 1.386 . S
C1657 C1661 1.393 . S
C1658 H1650 0.950 . S
C1658 C1656 1.391 . S
C1658 C1659 1.400 . S
C1659 C1658 1.400 . S
C1659 C1660 1.398 . S
C1659 C1665 1.491 1_545 S
C1660 H1651 0.950 . S
C1660 C1659 1.398 . S
C1660 C1661 1.391 . S
C1661 H1649 0.950 . S
C1661 C1657 1.393 . S
C1661 C1660 1.391 . S
C1662 H1652 0.950 . S
C1662 C1663 1.386 . S
C1662 C1664 1.391 . S
C1663 C1662 1.386 . S
C1663 C1667 1.393 . S
C1664 H1653 0.950 . S
C1664 C1662 1.391 . S
C1664 C1665 1.400 . S
C1665 C1659 1.491 1_565 S
C1665 C1664 1.400 . S
C1665 C1666 1.398 . S
C1666 H1654 0.950 . S
C1666 C1665 1.398 . S
C1666 C1667 1.391 . S
C1667 H1655 0.950 . S
C1667 C1663 1.393 . S
C1667 C1666 1.391 . S
H1668 C1676 0.950 . S
H1669 C1681 0.950 . S
H1670 C1678 0.950 . S
H1671 C1680 0.950 . S
H1672 C1682 0.950 . S
H1673 C1684 0.950 . S
H1674 C1686 0.950 . S
H1675 C1687 0.950 . S
C1676 H1668 0.950 . S
C1676 C1677 1.386 . S
C1676 C1678 1.391 . S
C1677 C1676 1.386 . S
C1677 C1681 1.393 . S
C1678 H1670 0.950 . S
C1678 C1676 1.391 . S
C1678 C1679 1.400 . S
C1679 C1678 1.400 . S
C1679 C1680 1.398 1_554 S
C1679 C1685 1.491 1_554 S
C1680 H1671 0.950 . S
C1680 C1679 1.398 1_556 S
C1680 C1681 1.391 1_556 S
C1681 H1669 0.950 . S
C1681 C1677 1.393 . S
C1681 C1680 1.391 1_554 S
C1682 H1672 0.950 . S
C1682 C1683 1.386 . S
C1682 C1684 1.391 . S
C1683 C1682 1.386 . S
C1683 C1687 1.393 . S
C1684 H1673 0.950 . S
C1684 C1682 1.391 . S
C1684 C1685 1.400 . S
C1685 C1679 1.491 1_556 S
C1685 C1684 1.400 . S
C1685 C1686 1.398 1_556 S
C1686 H1674 0.950 . S
C1686 C1685 1.398 1_554 S
C1686 C1687 1.391 1_554 S
C1687 H1675 0.950 . S
C1687 C1683 1.393 . S
C1687 C1686 1.391 1_556 S
H1688 C1696 0.950 . S
H1689 C1701 0.950 . S
H1690 C1698 0.950 . S
H1691 C1700 0.950 . S
H1692 C1702 0.950 . S
H1693 C1704 0.950 . S
H1694 C1706 0.950 . S
H1695 C1707 0.950 . S
C1696 H1688 0.950 . S
C1696 C1697 1.386 . S
C1696 C1698 1.391 . S
C1697 C1696 1.386 . S
C1697 C1701 1.393 . S
C1698 H1690 0.950 . S
C1698 C1696 1.391 . S
C1698 C1699 1.400 . S
C1699 C1698 1.400 . S
C1699 C1700 1.398 . S
C1699 C1705 1.491 1_545 S
C1700 H1691 0.950 . S
C1700 C1699 1.398 . S
C1700 C1701 1.391 . S
C1701 H1689 0.950 . S
C1701 C1697 1.393 . S
C1701 C1700 1.391 . S
C1702 H1692 0.950 . S
C1702 C1703 1.386 . S
C1702 C1704 1.391 . S
C1703 C1702 1.386 . S
C1703 C1707 1.393 . S
C1704 H1693 0.950 . S
C1704 C1702 1.391 . S
C1704 C1705 1.400 . S
C1705 C1699 1.491 1_565 S
C1705 C1704 1.400 . S
C1705 C1706 1.398 . S
C1706 H1694 0.950 . S
C1706 C1705 1.398 . S
C1706 C1707 1.391 . S
C1707 H1695 0.950 . S
C1707 C1703 1.393 . S
C1707 C1706 1.391 . S
H1708 C1716 0.950 . S
H1709 C1721 0.950 . S
H1710 C1718 0.950 . S
H1711 C1720 0.950 . S
H1712 C1722 0.950 . S
H1713 C1724 0.950 . S
H1714 C1726 0.950 . S
H1715 C1727 0.950 . S
C1716 H1708 0.950 . S
C1716 C1717 1.386 . S
C1716 C1718 1.391 . S
C1717 C1716 1.386 . S
C1717 C1721 1.393 . S
C1718 H1710 0.950 . S
C1718 C1716 1.391 . S
C1718 C1719 1.400 . S
C1719 C1718 1.400 . S
C1719 C1720 1.398 . S
C1719 C1725 1.491 . S
C1720 H1711 0.950 . S
C1720 C1719 1.398 . S
C1720 C1721 1.391 . S
C1721 H1709 0.950 . S
C1721 C1717 1.393 . S
C1721 C1720 1.391 . S
C1722 H1712 0.950 . S
C1722 C1723 1.386 . S
C1722 C1724 1.391 . S
C1723 C1722 1.386 . S
C1723 C1727 1.393 . S
C1724 H1713 0.950 . S
C1724 C1722 1.391 . S
C1724 C1725 1.400 . S
C1725 C1719 1.491 . S
C1725 C1724 1.400 . S
C1725 C1726 1.398 . S
C1726 H1714 0.950 . S
C1726 C1725 1.398 . S
C1726 C1727 1.391 . S
C1727 H1715 0.950 . S
C1727 C1723 1.393 . S
C1727 C1726 1.391 . S
C457 C7 1.096 . S
C463 C301 1.100 . S
C477 C315 1.102 . S
C483 C21 1.094 . S
C497 C35 1.091 . S
C503 C329 1.107 . S
C517 C287 1.109 . S
C523 C49 1.087 . S
C537 C63 1.111 . S
C543 C273 1.087 . S
C557 C77 1.101 . S
C563 C231 1.098 . S
C577 C245 1.092 . S
C583 C91 1.107 . S
C597 C105 1.086 . S
C603 C259 1.111 . S
C617 C119 1.089 . S
C623 C413 1.108 . S
C637 C133 1.090 . S
C643 C427 1.109 . S
C657 C441 1.094 . S
C663 C147 1.105 . S
C677 C399 1.086 . S
C683 C161 1.111 . S
C697 C175 1.090 . S
C703 C385 1.106 . S
C717 C343 1.111 . S
C723 C189 1.086 . S
C737 C203 1.108 . S
C743 C357 1.091 . S
C757 C371 1.097 . S
C763 C217 1.102 . S
C777 C9 1.521 . S
C783 C134 1.524 . S
C797 C23 1.517 . S
C803 C372 1.530 1_655 S
C817 C162 1.529 . S
C823 C37 1.519 . S
C837 C51 1.511 . S
C843 C344 1.529 . S
C857 C65 1.522 . S
C863 C218 1.524 . S
C877 C400 1.526 . S
C883 C79 1.516 . S
C897 C190 1.524 . S
C903 C93 1.523 . S
C917 C428 1.531 1_655 S
C923 C107 1.509 . S
C937 C121 1.523 . S
C943 C22 1.525 . S
C957 C260 1.532 1_455 S
C963 C135 1.515 . S
C977 C50 1.526 . S
C983 C149 1.522 . S
C997 C163 1.523 . S
C1003 C232 1.524 . S
C1017 C106 1.524 . S
C1023 C177 1.523 . S
C1037 C288 1.531 . S
C1043 C191 1.517 . S
C1057 C78 1.534 . S
C1063 C205 1.506 . S
C1077 C219 1.506 . S
C1083 C316 1.537 1_455 S
C1097 C358 1.536 . S
C1103 C233 1.509 . S
C1117 C148 1.528 . S
C1123 C247 1.514 . S
C1137 C386 1.525 . S
C1143 C261 1.519 . S
C1157 C275 1.504 . S
C1163 C120 1.537 1_455 S
C1177 C442 1.534 . S
C1183 C289 1.506 . S
C1197 C176 1.532 1_455 S
C1203 C303 1.507 . S
C1217 C414 1.531 . S
C1223 C317 1.516 . S
C1237 C331 1.509 . S
C1243 C204 1.536 . S
C1257 C345 1.516 . S
C1263 C246 1.531 . S
C1277 C36 1.529 . S
C1283 C359 1.519 . S
C1297 C373 1.510 . S
C1303 C274 1.535 . S
C1317 C387 1.505 . S
C1323 C8 1.537 1_655 S
C1337 C401 1.522 . S
C1343 C330 1.526 . S
C1357 C64 1.533 1_655 S
C1363 C415 1.513 . S
C1377 C302 1.530 . S
C1383 C429 1.511 . S
C1397 C443 1.507 . S
C1403 C92 1.536 . S
C1417 C6 1.427 . S
C1423 C62 1.421 . S
C1437 C20 1.421 . S
C1443 C76 1.427 . S
C1457 C90 1.424 . S
C1463 C34 1.425 . S
C1477 C104 1.418 . S
C1483 C48 1.428 . S
C1497 C174 1.419 . S
C1503 C118 1.422 . S
C1517 C188 1.418 . S
C1523 C132 1.428 . S
C1537 C202 1.420 . S
C1543 C146 1.421 . S
C1557 C216 1.421 . S
C1563 C160 1.420 . S
C1577 C230 1.425 . S
C1583 C286 1.418 . S
C1597 C244 1.419 . S
C1603 C300 1.428 . S
C1617 C258 1.428 . S
C1623 C314 1.418 . S
C1637 C328 1.418 . S
C1643 C272 1.428 . S
C1657 C342 1.420 . S
C1663 C398 1.421 . S
C1677 C412 1.426 . S
C1683 C356 1.422 . S
C1697 C426 1.422 . S
C1703 C370 1.426 . S
C1717 C440 1.426 . S
C1723 C384 1.423 . S
