# Generated by pormake.
# Topology snl, (6)-cn, num edge types: 1
# Building blocks:
#     Node 0, Type 0, BuildingBlock: BETFAJ_clean_sbu_0, # of connection points: 6
#     Node 1, Type 0, BuildingBlock: BETFAJ_clean_sbu_0, # of connection points: 6
#     Node 2, Type 0, BuildingBlock: BETFAJ_clean_sbu_0, # of connection points: 6
#     Node 3, Type 0, BuildingBlock: BETFAJ_clean_sbu_0, # of connection points: 6
#     Node 4, Type 0, BuildingBlock: BETFAJ_clean_sbu_0, # of connection points: 6
#     Node 5, Type 0, BuildingBlock: BETFAJ_clean_sbu_0, # of connection points: 6
#     Node 6, Type 0, BuildingBlock: BETFAJ_clean_sbu_0, # of connection points: 6
#     Node 7, Type 0, BuildingBlock: BETFAJ_clean_sbu_0, # of connection points: 6
#     Node 8, Type 0, BuildingBlock: BETFAJ_clean_sbu_0, # of connection points: 6
#     Node 9, Type 0, BuildingBlock: BETFAJ_clean_sbu_0, # of connection points: 6
#     Node 10, Type 0, BuildingBlock: BETFAJ_clean_sbu_0, # of connection points: 6
#     Node 11, Type 0, BuildingBlock: BETFAJ_clean_sbu_0, # of connection points: 6
#     Node 12, Type 0, BuildingBlock: BETFAJ_clean_sbu_0, # of connection points: 6
#     Node 13, Type 0, BuildingBlock: BETFAJ_clean_sbu_0, # of connection points: 6
#     Node 14, Type 0, BuildingBlock: BETFAJ_clean_sbu_0, # of connection points: 6
#     Node 15, Type 0, BuildingBlock: BETFAJ_clean_sbu_0, # of connection points: 6
#     Edge 16, Type (0, 0), BuildingBlock: AJUNOK_clean_linker_0, # of connection points: 2
#     Edge 17, Type (0, 0), BuildingBlock: AJUNOK_clean_linker_0, # of connection points: 2
#     Edge 18, Type (0, 0), BuildingBlock: AJUNOK_clean_linker_0, # of connection points: 2
#     Edge 19, Type (0, 0), BuildingBlock: AJUNOK_clean_linker_0, # of connection points: 2
#     Edge 20, Type (0, 0), BuildingBlock: AJUNOK_clean_linker_0, # of connection points: 2
#     Edge 21, Type (0, 0), BuildingBlock: AJUNOK_clean_linker_0, # of connection points: 2
#     Edge 22, Type (0, 0), BuildingBlock: AJUNOK_clean_linker_0, # of connection points: 2
#     Edge 23, Type (0, 0), BuildingBlock: AJUNOK_clean_linker_0, # of connection points: 2
#     Edge 24, Type (0, 0), BuildingBlock: AJUNOK_clean_linker_0, # of connection points: 2
#     Edge 25, Type (0, 0), BuildingBlock: AJUNOK_clean_linker_0, # of connection points: 2
#     Edge 26, Type (0, 0), BuildingBlock: AJUNOK_clean_linker_0, # of connection points: 2
#     Edge 27, Type (0, 0), BuildingBlock: AJUNOK_clean_linker_0, # of connection points: 2
#     Edge 28, Type (0, 0), BuildingBlock: AJUNOK_clean_linker_0, # of connection points: 2
#     Edge 29, Type (0, 0), BuildingBlock: AJUNOK_clean_linker_0, # of connection points: 2
#     Edge 30, Type (0, 0), BuildingBlock: AJUNOK_clean_linker_0, # of connection points: 2
#     Edge 31, Type (0, 0), BuildingBlock: AJUNOK_clean_linker_0, # of connection points: 2
#     Edge 32, Type (0, 0), BuildingBlock: AJUNOK_clean_linker_0, # of connection points: 2
#     Edge 33, Type (0, 0), BuildingBlock: AJUNOK_clean_linker_0, # of connection points: 2
#     Edge 34, Type (0, 0), BuildingBlock: AJUNOK_clean_linker_0, # of connection points: 2
#     Edge 35, Type (0, 0), BuildingBlock: AJUNOK_clean_linker_0, # of connection points: 2
#     Edge 36, Type (0, 0), BuildingBlock: AJUNOK_clean_linker_0, # of connection points: 2
#     Edge 37, Type (0, 0), BuildingBlock: AJUNOK_clean_linker_0, # of connection points: 2
#     Edge 38, Type (0, 0), BuildingBlock: AJUNOK_clean_linker_0, # of connection points: 2
#     Edge 39, Type (0, 0), BuildingBlock: AJUNOK_clean_linker_0, # of connection points: 2
#     Edge 40, Type (0, 0), BuildingBlock: AJUNOK_clean_linker_0, # of connection points: 2
#     Edge 41, Type (0, 0), BuildingBlock: AJUNOK_clean_linker_0, # of connection points: 2
#     Edge 42, Type (0, 0), BuildingBlock: AJUNOK_clean_linker_0, # of connection points: 2
#     Edge 43, Type (0, 0), BuildingBlock: AJUNOK_clean_linker_0, # of connection points: 2
#     Edge 44, Type (0, 0), BuildingBlock: AJUNOK_clean_linker_0, # of connection points: 2
#     Edge 45, Type (0, 0), BuildingBlock: AJUNOK_clean_linker_0, # of connection points: 2
#     Edge 46, Type (0, 0), BuildingBlock: AJUNOK_clean_linker_0, # of connection points: 2
#     Edge 47, Type (0, 0), BuildingBlock: AJUNOK_clean_linker_0, # of connection points: 2
#     Edge 48, Type (0, 0), BuildingBlock: AJUNOK_clean_linker_0, # of connection points: 2
#     Edge 49, Type (0, 0), BuildingBlock: AJUNOK_clean_linker_0, # of connection points: 2
#     Edge 50, Type (0, 0), BuildingBlock: AJUNOK_clean_linker_0, # of connection points: 2
#     Edge 51, Type (0, 0), BuildingBlock: AJUNOK_clean_linker_0, # of connection points: 2
#     Edge 52, Type (0, 0), BuildingBlock: AJUNOK_clean_linker_0, # of connection points: 2
#     Edge 53, Type (0, 0), BuildingBlock: AJUNOK_clean_linker_0, # of connection points: 2
#     Edge 54, Type (0, 0), BuildingBlock: AJUNOK_clean_linker_0, # of connection points: 2
#     Edge 55, Type (0, 0), BuildingBlock: AJUNOK_clean_linker_0, # of connection points: 2
#     Edge 56, Type (0, 0), BuildingBlock: AJUNOK_clean_linker_0, # of connection points: 2
#     Edge 57, Type (0, 0), BuildingBlock: AJUNOK_clean_linker_0, # of connection points: 2
#     Edge 58, Type (0, 0), BuildingBlock: AJUNOK_clean_linker_0, # of connection points: 2
#     Edge 59, Type (0, 0), BuildingBlock: AJUNOK_clean_linker_0, # of connection points: 2
#     Edge 60, Type (0, 0), BuildingBlock: AJUNOK_clean_linker_0, # of connection points: 2
#     Edge 61, Type (0, 0), BuildingBlock: AJUNOK_clean_linker_0, # of connection points: 2
#     Edge 62, Type (0, 0), BuildingBlock: AJUNOK_clean_linker_0, # of connection points: 2
#     Edge 63, Type (0, 0), BuildingBlock: AJUNOK_clean_linker_0, # of connection points: 2
# Relax obj value: 0.197
# Max RMSD: 0.265
# Mean RMSD: 0.243
data_MOF--net-snl--node1-BETFAJ_clean_sbu_0--edge1-AJUNOK_clean_linker_0
_symmetry_space_group_name_H-M    P1
_symmetry_Int_Tables_number       1
_symmetry_cell_setting            triclinic
loop_
_symmetry_equiv_pos_as_xyz
'x, y, z'
_cell_length_a     41.12242
_cell_length_b     41.399388
_cell_length_c     21.505232
_cell_angle_alpha  102.49165
_cell_angle_beta   90.08878
_cell_angle_gamma 90.114278
loop_
_atom_site_label
_atom_site_type_symbol
_atom_site_fract_x
_atom_site_fract_y
_atom_site_fract_z
_atom_type_partial_charge
Sm0 Sm 0.16672 0.63197 0.10023 0.0
Sm1 Sm 0.13506 0.63313 0.22509 0.0
C2 C 0.1843 0.60865 0.9811 0.0
C3 C 0.17871 0.61554 0.91769 0.0
C4 C 0.16679 0.59001 0.86924 0.0
C5 C 0.16138 0.5954 0.80835 0.0
C6 C 0.16798 0.62641 0.7946 0.0
C7 C 0.17952 0.65219 0.84335 0.0
C8 C 0.18472 0.64685 0.90463 0.0
C9 C 0.15789 0.69795 0.1501 0.0
C10 C 0.08744 0.64555 0.11884 0.0
C11 C 0.11441 0.63634 0.34289 0.0
C12 C 0.12697 0.63598 0.40702 0.0
C13 C 0.14165 0.66409 0.44537 0.0
C14 C 0.15089 0.66395 0.50789 0.0
C15 C 0.14554 0.63577 0.53295 0.0
C16 C 0.13174 0.60745 0.49404 0.0
C17 C 0.12242 0.6076 0.43181 0.0
C18 C 0.13868 0.57218 0.13949 0.0
C19 C 0.21444 0.63508 0.22342 0.0
O20 O 0.15904 0.59764 1.00721 0.0
O21 O 0.20214 0.62962 1.02165 0.0
O22 O 0.14927 0.67559 0.17902 0.0
O23 O 0.17141 0.68575 0.09591 0.0
O24 O 0.11044 0.63083 0.07962 0.0
O25 O 0.09287 0.65453 0.18011 0.0
O26 O 0.12019 0.66248 0.31973 0.0
O27 O 0.11651 0.60875 0.30013 0.0
O28 O 0.16126 0.59287 0.15526 0.0
O29 O 0.11205 0.58412 0.16764 0.0
O30 O 0.18795 0.64067 0.25817 0.0
O31 O 0.21323 0.62798 0.16035 0.0
H32 H 0.16174 0.56577 0.87851 0.0
H33 H 0.1521 0.57523 0.77183 0.0
H34 H 0.18517 0.67622 0.83379 0.0
H35 H 0.19367 0.66706 0.94142 0.0
H36 H 0.14552 0.68635 0.42761 0.0
H37 H 0.16198 0.68591 0.53678 0.0
H38 H 0.12725 0.58546 0.51242 0.0
H39 H 0.11098 0.58568 0.40349 0.0
Sm40 Sm 0.66498 0.89687 0.45542 0.0
Sm41 Sm 0.63396 0.90294 0.33544 0.0
C42 C 0.68488 0.91582 0.57459 0.0
C43 C 0.67741 0.9107 0.63871 0.0
C44 C 0.66021 0.93531 0.68108 0.0
C45 C 0.65468 0.93238 0.7434 0.0
C46 C 0.66676 0.90509 0.76497 0.0
C47 C 0.68295 0.87983 0.72225 0.0
C48 C 0.68836 0.88264 0.65946 0.0
C49 C 0.65367 0.83267 0.3977 0.0
C50 C 0.58435 0.8878 0.43615 0.0
C51 C 0.61294 0.90331 0.21924 0.0
C52 C 0.62526 0.90349 0.15514 0.0
C53 C 0.64382 0.87719 0.12035 0.0
C54 C 0.65315 0.87707 0.05785 0.0
C55 C 0.6443 0.90334 0.02964 0.0
C56 C 0.62612 0.92972 0.06474 0.0
C57 C 0.61671 0.92978 0.12693 0.0
C58 C 0.63984 0.96084 0.42882 0.0
C59 C 0.71333 0.89921 0.33483 0.0
O60 O 0.66267 0.93128 0.54883 0.0
O61 O 0.69889 0.89187 0.53364 0.0
O62 O 0.64577 0.85654 0.37196 0.0
O63 O 0.66783 0.84228 0.45225 0.0
O64 O 0.6084 0.89781 0.47734 0.0
O65 O 0.58952 0.88255 0.37494 0.0
O66 O 0.61697 0.8763 0.24044 0.0
O67 O 0.6172 0.93025 0.26306 0.0
O68 O 0.66175 0.93993 0.40948 0.0
O69 O 0.6125 0.95037 0.4013 0.0
O70 O 0.68669 0.89922 0.30102 0.0
O71 O 0.71217 0.89927 0.39642 0.0
H72 H 0.65153 0.95722 0.66642 0.0
H73 H 0.64145 0.9518 0.77515 0.0
H74 H 0.69233 0.85849 0.73798 0.0
H75 H 0.70165 0.86326 0.6278 0.0
H76 H 0.65077 0.85653 0.14093 0.0
H77 H 0.66718 0.8565 0.03151 0.0
H78 H 0.61849 0.94995 0.04354 0.0
H79 H 0.60217 0.95013 0.15266 0.0
Sm80 Sm 0.38414 0.42102 0.70868 0.0
Sm81 Sm 0.37661 0.38167 0.5725 0.0
C82 C 0.36767 0.44377 0.82978 0.0
C83 C 0.37172 0.43525 0.89324 0.0
C84 C 0.34873 0.41469 0.91405 0.0
C85 C 0.35122 0.40741 0.97435 0.0
C86 C 0.37679 0.42037 1.01577 0.0
C87 C 0.39961 0.44132 0.99561 0.0
C88 C 0.39712 0.44867 0.93494 0.0
C89 C 0.44668 0.40859 0.66653 0.0
C90 C 0.39307 0.33826 0.67151 0.0
C91 C 0.37021 0.35946 0.44775 0.0
C92 C 0.37199 0.37155 0.38791 0.0
C93 C 0.39739 0.39203 0.37524 0.0
C94 C 0.3989 0.4015 0.31637 0.0
C95 C 0.37512 0.39055 0.26934 0.0
C96 C 0.34901 0.37143 0.28362 0.0
C97 C 0.34756 0.36196 0.34208 0.0
C98 C 0.32208 0.38829 0.64987 0.0
C99 C 0.38212 0.46181 0.59362 0.0
O100 O 0.34978 0.42354 0.78841 0.0
O101 O 0.39271 0.45516 0.80344 0.0
O102 O 0.42181 0.3987 0.63209 0.0
O103 O 0.43858 0.42547 0.72224 0.0
O104 O 0.384 0.36472 0.71506 0.0
O105 O 0.39718 0.33982 0.61166 0.0
O106 O 0.39729 0.35707 0.4786 0.0
O107 O 0.3459 0.37033 0.48542 0.0
O108 O 0.34152 0.41095 0.64359 0.0
O109 O 0.33175 0.36019 0.61575 0.0
O110 O 0.3864 0.43289 0.55541 0.0
O111 O 0.37841 0.46481 0.65609 0.0
H112 H 0.32843 0.40442 0.88398 0.0
H113 H 0.3327 0.39197 0.98898 0.0
H114 H 0.41949 0.45182 1.02659 0.0
H115 H 0.41497 0.46498 0.92088 0.0
H116 H 0.41624 0.40031 0.41033 0.0
H117 H 0.4191 0.41655 0.30693 0.0
H118 H 0.32985 0.36341 0.2491 0.0
H119 H 0.32746 0.34666 0.35118 0.0
Sm120 Sm 0.89311 0.11136 0.85042 0.0
Sm121 Sm 0.87974 0.14988 0.98026 0.0
C122 C 0.89348 0.08723 0.72477 0.0
C123 C 0.89101 0.09738 0.6625 0.0
C124 C 0.86355 0.11391 0.64575 0.0
C125 C 0.86101 0.1212 0.5851 0.0
C126 C 0.88572 0.1119 0.5394 0.0
C127 C 0.91344 0.096 0.55681 0.0
C128 C 0.91599 0.08878 0.61744 0.0
C129 C 0.94861 0.12062 0.92423 0.0
C130 C 0.89478 0.19444 0.88346 0.0
C131 C 0.87013 0.17175 0.10471 0.0
C132 C 0.87233 0.16016 0.16534 0.0
C133 C 0.89899 0.14183 0.17987 0.0
C134 C 0.90073 0.1324 0.23879 0.0
C135 C 0.87575 0.14083 0.28419 0.0
C136 C 0.84896 0.15876 0.26891 0.0
C137 C 0.84726 0.16819 0.21022 0.0
C138 C 0.82719 0.14089 0.89681 0.0
C139 C 0.88753 0.07067 0.9629 0.0
O140 O 0.86739 0.08896 0.76005 0.0
O141 O 0.91981 0.09554 0.7585 0.0
O142 O 0.92716 0.14255 0.92337 0.0
O143 O 0.94066 0.09309 0.88552 0.0
O144 O 0.88828 0.16689 0.84045 0.0
O145 O 0.89771 0.19406 0.9441 0.0
O146 O 0.8972 0.17639 0.07588 0.0
O147 O 0.84724 0.15862 0.06503 0.0
O148 O 0.84679 0.11879 0.90469 0.0
O149 O 0.83451 0.16899 0.93403 0.0
O150 O 0.89389 0.09969 0.9992 0.0
O151 O 0.88178 0.06793 0.90114 0.0
H152 H 0.84384 0.12094 0.67919 0.0
H153 H 0.83968 0.1342 0.57405 0.0
H154 H 0.9329 0.08842 0.52296 0.0
H155 H 0.93736 0.0759 0.62877 0.0
H156 H 0.91856 0.13499 0.14596 0.0
H157 H 0.92161 0.11844 0.24884 0.0
H158 H 0.82958 0.16624 0.30299 0.0
H159 H 0.82644 0.18226 0.2002 0.0
Sm160 Sm 0.16669 0.39342 0.9449 0.0
Sm161 Sm 0.13402 0.40053 0.83029 0.0
C162 C 0.1883 0.39858 0.06286 0.0
C163 C 0.17702 0.398 0.12771 0.0
C164 C 0.17464 0.42775 0.17353 0.0
C165 C 0.16707 0.4274 0.23659 0.0
C166 C 0.16183 0.39729 0.25502 0.0
C167 C 0.16359 0.36756 0.20907 0.0
C168 C 0.17109 0.36789 0.14594 0.0
C169 C 0.15685 0.33258 0.86323 0.0
C170 C 0.08529 0.3929 0.93852 0.0
C171 C 0.11267 0.39967 0.71389 0.0
C172 C 0.12534 0.39873 0.64934 0.0
C173 C 0.1294 0.3683 0.60605 0.0
C174 C 0.1378 0.36744 0.54291 0.0
C175 C 0.14197 0.39696 0.52181 0.0
C176 C 0.13946 0.42735 0.56559 0.0
C177 C 0.13108 0.42825 0.62879 0.0
C178 C 0.13968 0.45903 0.92117 0.0
C179 C 0.21338 0.39661 0.82602 0.0
O180 O 0.17999 0.42403 0.0396 0.0
O181 O 0.18777 0.3708 1.02032 0.0
O182 O 0.13624 0.35576 0.87615 0.0
O183 O 0.18424 0.34241 0.89098 0.0
O184 O 0.11132 0.39924 0.976 0.0
O185 O 0.08826 0.38714 0.87651 0.0
O186 O 0.11613 0.37298 0.7365 0.0
O187 O 0.1171 0.4269 0.75691 0.0
O188 O 0.16224 0.43832 0.90384 0.0
O189 O 0.11323 0.44923 0.88987 0.0
O190 O 0.18629 0.39153 0.79297 0.0
O191 O 0.21291 0.40199 0.88879 0.0
H192 H 0.17935 0.45129 0.16095 0.0
H193 H 0.1657 0.45065 0.27119 0.0
H194 H 0.16022 0.34398 0.22233 0.0
H195 H 0.17305 0.3445 0.11193 0.0
H196 H 0.12521 0.34512 0.62039 0.0
H197 H 0.14026 0.34369 0.51015 0.0
H198 H 0.14262 0.45043 0.5503 0.0
H199 H 0.1281 0.45209 0.66095 0.0
Sm200 Sm 0.8912 0.92023 0.20886 0.0
Sm201 Sm 0.87631 0.8822 0.07978 0.0
C202 C 0.89294 0.9439 0.33449 0.0
C203 C 0.88944 0.9336 0.39643 0.0
C204 C 0.85914 0.9245 0.41788 0.0
C205 C 0.85611 0.91721 0.47841 0.0
C206 C 0.88329 0.91858 0.5189 0.0
C207 C 0.91356 0.92751 0.49715 0.0
C208 C 0.91657 0.93495 0.43683 0.0
C209 C 0.94604 0.9112 0.13343 0.0
C210 C 0.89047 0.83683 0.17526 0.0
C211 C 0.8671 0.86091 0.95518 0.0
C212 C 0.86938 0.87323 0.89519 0.0
C213 C 0.89917 0.88294 0.87256 0.0
C214 C 0.90088 0.89188 0.81323 0.0
C215 C 0.87291 0.89122 0.77512 0.0
C216 C 0.84296 0.88299 0.79928 0.0
C217 C 0.84127 0.87394 0.8583 0.0
C218 C 0.82448 0.89066 0.16471 0.0
C219 C 0.88367 0.9618 0.09804 0.0
O220 O 0.86693 0.94433 0.29956 0.0
O221 O 0.91868 0.93378 0.30035 0.0
O222 O 0.92455 0.88923 0.13462 0.0
O223 O 0.93814 0.93871 0.17208 0.0
O224 O 0.88604 0.86464 0.21883 0.0
O225 O 0.89235 0.83717 0.11454 0.0
O226 O 0.89411 0.85623 0.98432 0.0
O227 O 0.8439 0.87313 0.99471 0.0
O228 O 0.84402 0.91289 0.15667 0.0
O229 O 0.83145 0.86279 0.12651 0.0
O230 O 0.88816 0.93278 0.0605 0.0
O231 O 0.88097 0.96473 0.16052 0.0
H232 H 0.83762 0.92349 0.38841 0.0
H233 H 0.83226 0.91118 0.49398 0.0
H234 H 0.93503 0.92867 0.52679 0.0
H235 H 0.94017 0.94217 0.42202 0.0
H236 H 0.92129 0.883 0.89998 0.0
H237 H 0.92431 0.89828 0.79627 0.0
H238 H 0.82077 0.88323 0.77221 0.0
H239 H 0.81793 0.86695 0.87471 0.0
Sm240 Sm 0.38851 0.61292 0.34714 0.0
Sm241 Sm 0.3754 0.65112 0.48476 0.0
C242 C 0.37668 0.58887 0.22422 0.0
C243 C 0.38028 0.59794 0.16136 0.0
C244 C 0.35612 0.61705 0.14007 0.0
C245 C 0.3581 0.62453 0.08001 0.0
C246 C 0.38433 0.61326 0.03941 0.0
C247 C 0.40834 0.59375 0.05997 0.0
C248 C 0.40635 0.58617 0.12043 0.0
C249 C 0.44844 0.62672 0.40324 0.0
C250 C 0.39531 0.69564 0.3888 0.0
C251 C 0.36376 0.67098 0.60804 0.0
C252 C 0.36877 0.66037 0.66841 0.0
C253 C 0.39614 0.64206 0.6794 0.0
C254 C 0.40019 0.63317 0.73834 0.0
C255 C 0.37696 0.64255 0.78683 0.0
C256 C 0.34899 0.65953 0.77426 0.0
C257 C 0.34502 0.66843 0.71577 0.0
C258 C 0.32396 0.64532 0.39936 0.0
C259 C 0.38624 0.57173 0.46126 0.0
O260 O 0.35628 0.60671 0.26366 0.0
O261 O 0.40251 0.5807 0.25306 0.0
O262 O 0.42155 0.63502 0.43077 0.0
O263 O 0.44409 0.61049 0.34519 0.0
O264 O 0.38804 0.66937 0.343 0.0
O265 O 0.39745 0.69364 0.44896 0.0
O266 O 0.38923 0.68068 0.58021 0.0
O267 O 0.34333 0.65315 0.56812 0.0
O268 O 0.3433 0.62252 0.40558 0.0
O269 O 0.33147 0.67235 0.43974 0.0
O270 O 0.39064 0.60064 0.49971 0.0
O271 O 0.38095 0.56923 0.39928 0.0
H272 H 0.33526 0.62597 0.16948 0.0
H273 H 0.33869 0.63875 0.06488 0.0
H274 H 0.42872 0.58454 0.02943 0.0
H275 H 0.42506 0.57092 0.13492 0.0
H276 H 0.41446 0.635 0.64286 0.0
H277 H 0.4218 0.61977 0.74661 0.0
H278 H 0.33024 0.66622 0.81004 0.0
H279 H 0.32342 0.68191 0.70766 0.0
Sm280 Sm 0.66682 0.1403 0.61298 0.0
Sm281 Sm 0.63505 0.13488 0.72861 0.0
C282 C 0.68785 0.13483 0.49467 0.0
C283 C 0.67737 0.1381 0.43084 0.0
C284 C 0.65688 0.11435 0.39331 0.0
C285 C 0.6506 0.11543 0.33006 0.0
C286 C 0.66477 0.14012 0.30329 0.0
C287 C 0.68402 0.16467 0.34153 0.0
C288 C 0.69041 0.16355 0.40472 0.0
C289 C 0.65628 0.20187 0.69099 0.0
C290 C 0.58538 0.13839 0.61965 0.0
C291 C 0.61446 0.139 0.84632 0.0
C292 C 0.62708 0.13638 0.90904 0.0
C293 C 0.64954 0.15942 0.94244 0.0
C294 C 0.65826 0.15856 1.0048 0.0
C295 C 0.64489 0.13451 0.03438 0.0
C296 C 0.62366 0.11059 0.99987 0.0
C297 C 0.61477 0.11159 0.93779 0.0
C298 C 0.64318 0.07455 0.64424 0.0
C299 C 0.71408 0.13579 0.73147 0.0
O300 O 0.67563 0.11039 0.51641 0.0
O301 O 0.69111 0.16183 0.53863 0.0
O302 O 0.63591 0.17832 0.67922 0.0
O303 O 0.68378 0.19213 0.66418 0.0
O304 O 0.61134 0.13178 0.58226 0.0
O305 O 0.58884 0.1464 0.68155 0.0
O306 O 0.62344 0.16471 0.82427 0.0
O307 O 0.61311 0.1117 0.80255 0.0
O308 O 0.66472 0.09674 0.6581 0.0
O309 O 0.6168 0.08366 0.67606 0.0
O310 O 0.68737 0.14317 0.76472 0.0
O311 O 0.71307 0.12993 0.66854 0.0
H312 H 0.64651 0.09433 0.41199 0.0
H313 H 0.63564 0.09624 0.30139 0.0
H314 H 0.69463 0.18435 0.32217 0.0
H315 H 0.70632 0.18207 0.43263 0.0
H316 H 0.65958 0.17875 0.92133 0.0
H317 H 0.67437 0.17754 0.03069 0.0
H318 H 0.6133 0.09161 1.02153 0.0
H319 H 0.59751 0.09352 0.91284 0.0
Sm320 Sm 0.90054 0.40002 0.83053 0.0
Sm321 Sm 0.86657 0.39635 0.95245 0.0
C322 C 0.92116 0.40145 0.71454 0.0
C323 C 0.90907 0.39835 0.64881 0.0
C324 C 0.90455 0.36726 0.60777 0.0
C325 C 0.89561 0.36504 0.5442 0.0
C326 C 0.89117 0.39385 0.52069 0.0
C327 C 0.89493 0.42485 0.56211 0.0
C328 C 0.9039 0.42708 0.62538 0.0
C329 C 0.89456 0.45915 0.91957 0.0
C330 C 0.82156 0.39504 0.82535 0.0
C331 C 0.84706 0.41615 0.07152 0.0
C332 C 0.85318 0.40955 0.13492 0.0
C333 C 0.85722 0.43663 0.18612 0.0
C334 C 0.86364 0.43172 0.247 0.0
C335 C 0.86614 0.39958 0.25791 0.0
C336 C 0.86263 0.37234 0.20639 0.0
C337 C 0.85629 0.37729 0.14511 0.0
C338 C 0.87951 0.33175 0.89677 0.0
C339 C 0.94787 0.39089 0.93974 0.0
O340 O 0.92241 0.37486 0.73813 0.0
O341 O 0.9119 0.42765 0.75613 0.0
O342 O 0.87236 0.43793 0.90309 0.0
O343 O 0.92119 0.44888 0.88969 0.0
O344 O 0.84901 0.38844 0.79423 0.0
O345 O 0.82118 0.40161 0.88869 0.0
O346 O 0.87135 0.42961 0.04717 0.0
O347 O 0.8313 0.39382 0.02961 0.0
O348 O 0.88732 0.35591 0.87213 0.0
O349 O 0.86384 0.34119 0.9496 0.0
O350 O 0.92266 0.40071 0.9777 0.0
O351 O 0.94439 0.38323 0.87775 0.0
H352 H 0.90839 0.34466 0.62437 0.0
H353 H 0.89236 0.34085 0.51333 0.0
H354 H 0.8918 0.44744 0.54507 0.0
H355 H 0.90744 0.4514 0.65566 0.0
H356 H 0.85544 0.46169 0.17893 0.0
H357 H 0.86671 0.45313 0.2857 0.0
H358 H 0.86423 0.34732 0.2137 0.0
H359 H 0.85374 0.35603 0.10596 0.0
Sm360 Sm 0.39737 0.13423 0.72334 0.0
Sm361 Sm 0.36618 0.14001 0.60754 0.0
C362 C 0.41819 0.13844 0.84108 0.0
C363 C 0.40573 0.13709 0.90465 0.0
C364 C 0.3974 0.16643 0.94809 0.0
C365 C 0.38944 0.16573 1.01076 0.0
C366 C 0.38998 0.13576 0.03106 0.0
C367 C 0.39664 0.10623 0.98701 0.0
C368 C 0.40461 0.10689 0.92435 0.0
C369 C 0.39071 0.0743 0.63592 0.0
C370 C 0.31811 0.13667 0.72493 0.0
C371 C 0.34513 0.13441 0.48921 0.0
C372 C 0.35659 0.13569 0.42495 0.0
C373 C 0.36527 0.1064 0.38181 0.0
C374 C 0.37301 0.10702 0.31902 0.0
C375 C 0.37214 0.13689 0.29829 0.0
C376 C 0.36409 0.16627 0.34156 0.0
C377 C 0.35635 0.16568 0.40439 0.0
C378 C 0.37635 0.20147 0.68659 0.0
C379 C 0.4475 0.13863 0.61605 0.0
O380 O 0.41013 0.1642 0.81843 0.0
O381 O 0.41842 0.1109 0.79774 0.0
O382 O 0.36876 0.09589 0.65101 0.0
O383 O 0.41688 0.08377 0.66855 0.0
O384 O 0.34479 0.14198 0.75914 0.0
O385 O 0.31935 0.13133 0.66219 0.0
O386 O 0.35436 0.10925 0.51244 0.0
O387 O 0.34455 0.16211 0.53191 0.0
O388 O 0.3968 0.17808 0.67486 0.0
O389 O 0.34891 0.1916 0.65926 0.0
O390 O 0.42176 0.1317 0.57786 0.0
O391 O 0.44362 0.14673 0.6778 0.0
H392 H 0.39812 0.1901 0.93437 0.0
H393 H 0.38432 0.18879 0.04406 0.0
H394 H 0.39657 0.08275 1.00156 0.0
H395 H 0.41086 0.08386 0.89199 0.0
H396 H 0.36522 0.08283 0.39602 0.0
H397 H 0.37856 0.08395 0.28612 0.0
H398 H 0.36332 0.18959 0.32648 0.0
H399 H 0.34945 0.18861 0.43636 0.0
Sm400 Sm 0.65771 0.65153 0.48042 0.0
Sm401 Sm 0.64221 0.61136 0.34318 0.0
C402 C 0.66899 0.67206 0.60419 0.0
C403 C 0.66492 0.66058 0.6645 0.0
C404 C 0.63471 0.65011 0.68381 0.0
C405 C 0.63184 0.64007 0.74193 0.0
C406 C 0.65916 0.63994 0.78142 0.0
C407 C 0.68931 0.65021 0.76162 0.0
C408 C 0.69213 0.66036 0.70391 0.0
C409 C 0.70804 0.64139 0.39267 0.0
C410 C 0.64529 0.57171 0.45985 0.0
C411 C 0.65223 0.5851 0.22041 0.0
C412 C 0.65152 0.59448 0.15734 0.0
C413 C 0.6808 0.6019 0.12972 0.0
C414 C 0.68113 0.60933 0.06932 0.0
C415 C 0.65228 0.60869 0.0339 0.0
C416 C 0.62283 0.60174 0.06173 0.0
C417 C 0.62245 0.59464 0.12273 0.0
C418 C 0.58347 0.62686 0.40226 0.0
C419 C 0.6396 0.6947 0.38075 0.0
O420 O 0.64299 0.68041 0.57597 0.0
O421 O 0.69037 0.65607 0.56414 0.0
O422 O 0.68754 0.62011 0.40134 0.0
O423 O 0.70288 0.66937 0.43201 0.0
O424 O 0.64352 0.60104 0.49814 0.0
O425 O 0.64824 0.56831 0.39708 0.0
O426 O 0.67506 0.59855 0.25995 0.0
O427 O 0.62472 0.58209 0.2492 0.0
O428 O 0.61092 0.63508 0.42799 0.0
O429 O 0.58672 0.6096 0.34471 0.0
O430 O 0.64489 0.66735 0.3363 0.0
O431 O 0.63826 0.69443 0.44181 0.0
H432 H 0.61333 0.64975 0.65421 0.0
H433 H 0.60832 0.63219 0.75584 0.0
H434 H 0.71069 0.65096 0.79139 0.0
H435 H 0.71567 0.66833 0.69023 0.0
H436 H 0.70368 0.6017 0.15466 0.0
H437 H 0.70413 0.61548 0.05025 0.0
H438 H 0.60017 0.60105 0.03573 0.0
H439 H 0.59946 0.5888 0.14226 0.0
Sm440 Sm 0.15534 0.88374 0.07723 0.0
Sm441 Sm 0.14031 0.92026 0.20716 0.0
C442 C 0.16419 0.86219 0.95275 0.0
C443 C 0.16173 0.87365 0.89212 0.0
C444 C 0.13203 0.88374 0.86992 0.0
C445 C 0.1302 0.89213 0.81019 0.0
C446 C 0.15797 0.89057 0.77143 0.0
C447 C 0.18784 0.88181 0.79503 0.0
C448 C 0.18963 0.87328 0.85442 0.0
C449 C 0.20833 0.8923 0.16011 0.0
C450 C 0.1482 0.96284 0.09742 0.0
C451 C 0.13546 0.94348 0.3326 0.0
C452 C 0.13977 0.93351 0.39447 0.0
C453 C 0.17034 0.9248 0.41533 0.0
C454 C 0.17383 0.9173 0.4756 0.0
C455 C 0.14685 0.91824 0.51624 0.0
C456 C 0.11635 0.92682 0.49507 0.0
C457 C 0.11288 0.93436 0.43502 0.0
C458 C 0.08566 0.91102 0.13075 0.0
C459 C 0.14329 0.83723 0.17198 0.0
O460 O 0.13732 0.85736 0.98204 0.0
O461 O 0.18728 0.87531 0.99196 0.0
O462 O 0.18771 0.91431 0.15598 0.0
O463 O 0.20197 0.86551 0.11825 0.0
O464 O 0.14255 0.93418 0.05947 0.0
O465 O 0.15144 0.96514 0.15974 0.0
O466 O 0.16133 0.94697 0.29955 0.0
O467 O 0.1112 0.9303 0.2967 0.0
O468 O 0.10723 0.88923 0.13211 0.0
O469 O 0.09375 0.93865 0.16882 0.0
O470 O 0.14839 0.8648 0.2159 0.0
O471 O 0.14006 0.83823 0.11175 0.0
H472 H 0.11012 0.8846 0.89808 0.0
H473 H 0.10686 0.89896 0.79357 0.0
H474 H 0.20988 0.88136 0.76736 0.0
H475 H 0.21289 0.86593 0.8706 0.0
H476 H 0.19165 0.92415 0.38554 0.0
H477 H 0.19779 0.91142 0.49087 0.0
H478 H 0.09506 0.92761 0.52498 0.0
H479 H 0.08909 0.9412 0.42043 0.0
Sm480 Sm 0.89919 0.6344 0.22244 0.0
Sm481 Sm 0.86778 0.63635 0.10663 0.0
C482 C 0.91941 0.64013 0.34112 0.0
C483 C 0.90719 0.63734 0.40418 0.0
C484 C 0.89867 0.66606 0.44914 0.0
C485 C 0.89066 0.66427 0.51128 0.0
C486 C 0.89134 0.63378 0.52963 0.0
C487 C 0.89832 0.60486 0.48408 0.0
C488 C 0.90631 0.60661 0.42188 0.0
C489 C 0.89433 0.57308 0.13678 0.0
C490 C 0.82008 0.63179 0.22414 0.0
C491 C 0.84785 0.6265 0.98668 0.0
C492 C 0.85869 0.62875 0.92243 0.0
C493 C 0.86753 0.59988 0.87831 0.0
C494 C 0.87468 0.60111 0.81551 0.0
C495 C 0.87313 0.63123 0.79569 0.0
C496 C 0.86484 0.6602 0.83993 0.0
C497 C 0.85766 0.659 0.90279 0.0
C498 C 0.8711 0.69911 0.1823 0.0
C499 C 0.94897 0.64514 0.11982 0.0
O500 O 0.90856 0.66494 0.31857 0.0
O501 O 0.92264 0.61296 0.29737 0.0
O502 O 0.87174 0.59361 0.15302 0.0
O503 O 0.92102 0.58503 0.16511 0.0
O504 O 0.84662 0.63903 0.25817 0.0
O505 O 0.8214 0.62592 0.16128 0.0
O506 O 0.86072 0.60333 1.01147 0.0
O507 O 0.8433 0.65409 0.02843 0.0
O508 O 0.89429 0.67839 0.17404 0.0
O509 O 0.84512 0.68569 0.15353 0.0
O510 O 0.92424 0.63446 0.08062 0.0
O511 O 0.94422 0.65256 0.18119 0.0
H512 H 0.89924 0.69012 0.43696 0.0
H513 H 0.88534 0.68689 0.54569 0.0
H514 H 0.89838 0.58099 0.49706 0.0
H515 H 0.91267 0.58403 0.38832 0.0
H516 H 0.86806 0.57616 0.89187 0.0
H517 H 0.8804 0.57831 0.78196 0.0
H518 H 0.86356 0.68372 0.82568 0.0
H519 H 0.85065 0.68164 0.93548 0.0
Sm520 Sm 0.15676 0.15259 0.98369 0.0
Sm521 Sm 0.14356 0.11413 0.85351 0.0
C522 C 0.16658 0.17475 0.1081 0.0
C523 C 0.16437 0.16354 0.16907 0.0
C524 C 0.13894 0.14316 0.18189 0.0
C525 C 0.13728 0.13384 0.24095 0.0
C526 C 0.1611 0.14451 0.28821 0.0
C527 C 0.18659 0.16465 0.27471 0.0
C528 C 0.18823 0.17392 0.21587 0.0
C529 C 0.20935 0.14459 0.90043 0.0
C530 C 0.14875 0.07327 0.96588 0.0
C531 C 0.14374 0.09019 0.72788 0.0
C532 C 0.14592 0.10059 0.66592 0.0
C533 C 0.17149 0.12055 0.65204 0.0
C534 C 0.17399 0.128 0.59149 0.0
C535 C 0.15106 0.11564 0.54337 0.0
C536 C 0.12509 0.09643 0.55806 0.0
C537 C 0.12263 0.08894 0.61844 0.0
C538 C 0.08807 0.12233 0.92668 0.0
C539 C 0.14079 0.19735 0.88728 0.0
O540 O 0.13948 0.17927 0.07913 0.0
O541 O 0.18932 0.16134 0.06859 0.0
O542 O 0.1899 0.12222 0.90811 0.0
O543 O 0.20136 0.1726 0.9371 0.0
O544 O 0.14285 0.10229 1.00245 0.0
O545 O 0.1544 0.07061 0.90413 0.0
O546 O 0.1698 0.09273 0.76356 0.0
O547 O 0.1172 0.0976 0.76114 0.0
O548 O 0.10929 0.14467 0.92634 0.0
O549 O 0.0963 0.09501 0.8878 0.0
O550 O 0.14678 0.16984 0.84381 0.0
O551 O 0.1385 0.19663 0.9479 0.0
H552 H 0.12029 0.1346 0.14651 0.0
H553 H 0.1174 0.11819 0.2496 0.0
H554 H 0.20496 0.17394 0.31024 0.0
H555 H 0.20805 0.18964 0.20719 0.0
H556 H 0.18973 0.13016 0.6877 0.0
H557 H 0.19388 0.14352 0.58238 0.0
H558 H 0.10702 0.08649 0.52228 0.0
H559 H 0.10272 0.07348 0.62772 0.0
Sm560 Sm 0.65538 0.38254 0.57481 0.0
Sm561 Sm 0.64114 0.4205 0.70404 0.0
C562 C 0.66464 0.36069 0.45037 0.0
C563 C 0.66095 0.37186 0.38944 0.0
C564 C 0.63028 0.3782 0.36559 0.0
C565 C 0.62747 0.38693 0.30626 0.0
C566 C 0.65525 0.38983 0.26955 0.0
C567 C 0.68589 0.38388 0.29401 0.0
C568 C 0.68868 0.37498 0.35304 0.0
C569 C 0.70706 0.38907 0.66002 0.0
C570 C 0.6481 0.46179 0.59271 0.0
C571 C 0.64003 0.44422 0.82972 0.0
C572 C 0.64228 0.43338 0.89141 0.0
C573 C 0.67258 0.42966 0.91967 0.0
C574 C 0.67433 0.42214 0.98018 0.0
C575 C 0.64587 0.41848 1.01432 0.0
C576 C 0.61562 0.42149 0.9855 0.0
C577 C 0.61385 0.42897 0.92504 0.0
C578 C 0.58549 0.41093 0.62961 0.0
C579 C 0.63928 0.33736 0.66991 0.0
O580 O 0.63833 0.3545 0.48003 0.0
O581 O 0.68729 0.37514 0.48941 0.0
O582 O 0.6882 0.41197 0.65294 0.0
O583 O 0.70038 0.36203 0.61896 0.0
O584 O 0.64239 0.43282 0.55584 0.0
O585 O 0.65202 0.46469 0.65499 0.0
O586 O 0.66628 0.44314 0.79511 0.0
O587 O 0.61398 0.43598 0.79511 0.0
O588 O 0.60733 0.38931 0.63054 0.0
O589 O 0.59438 0.43885 0.66602 0.0
O590 O 0.64485 0.36475 0.71405 0.0
O591 O 0.63742 0.33835 0.60946 0.0
H592 H 0.60837 0.37593 0.3922 0.0
H593 H 0.60341 0.39056 0.28848 0.0
H594 H 0.70783 0.38616 0.26746 0.0
H595 H 0.71264 0.37024 0.37008 0.0
H596 H 0.69501 0.43317 0.89563 0.0
H597 H 0.69802 0.42002 1.00101 0.0
H598 H 0.59323 0.41811 1.00979 0.0
H599 H 0.5901 0.43179 0.90501 0.0
Sm600 Sm 0.39812 0.89985 0.3317 0.0
Sm601 Sm 0.36565 0.89876 0.45622 0.0
C602 C 0.41861 0.89729 0.21418 0.0
C603 C 0.40576 0.89781 0.15033 0.0
C604 C 0.40019 0.86806 0.10568 0.0
C605 C 0.39197 0.86852 0.04287 0.0
C606 C 0.38953 0.89872 1.02371 0.0
C607 C 0.39339 0.92846 0.06895 0.0
C608 C 0.40158 0.92804 0.13164 0.0
C609 C 0.39348 0.96007 0.41896 0.0
C610 C 0.31869 0.89763 0.33288 0.0
C611 C 0.34688 0.92101 0.57483 0.0
C612 C 0.35334 0.91525 0.63861 0.0
C613 C 0.35883 0.94271 0.68837 0.0
C614 C 0.36593 0.93839 0.74934 0.0
C615 C 0.36777 0.90647 0.76152 0.0
C616 C 0.36206 0.87888 0.71181 0.0
C617 C 0.35509 0.88322 0.65046 0.0
C618 C 0.37691 0.83332 0.40206 0.0
C619 C 0.44539 0.88595 0.43773 0.0
O620 O 0.41282 0.87094 0.23667 0.0
O621 O 0.41686 0.92469 0.2576 0.0
O622 O 0.37116 0.939 0.40302 0.0
O623 O 0.42031 0.94876 0.39071 0.0
O624 O 0.3453 0.89235 0.29839 0.0
O625 O 0.31959 0.90374 0.3959 0.0
O626 O 0.371 0.93398 0.54884 0.0
O627 O 0.33085 0.89812 0.5346 0.0
O628 O 0.3846 0.85717 0.37658 0.0
O629 O 0.36258 0.84365 0.45623 0.0
O630 O 0.42209 0.8999 0.47734 0.0
O631 O 0.44023 0.87802 0.37622 0.0
H632 H 0.40329 0.84438 0.11865 0.0
H633 H 0.38899 0.8453 1.00864 0.0
H634 H 0.391 0.95205 0.0553 0.0
H635 H 0.40564 0.9514 0.16484 0.0
H636 H 0.3577 0.96757 0.67996 0.0
H637 H 0.3697 0.96005 0.78718 0.0
H638 H 0.36341 0.85406 0.72029 0.0
H639 H 0.35126 0.86164 0.61247 0.0
C640 C 0.17634 0.60714 0.67771 0.0
C641 C 0.16382 0.63102 0.72868 0.0
C642 C 0.17113 0.60944 0.6146 0.0
C643 C 0.15333 0.63578 0.60008 0.0
H644 H 0.19006 0.5863 0.68668 0.0
H645 H 0.1808 0.59023 0.57679 0.0
S646 S 0.11508 0.70461 0.71586 0.0
N647 N 0.13273 0.68183 0.76047 0.0
N648 N 0.12309 0.68625 0.64138 0.0
C649 C 0.14124 0.66025 0.65046 0.0
C650 C 0.14646 0.65786 0.7149 0.0
C651 C 0.64477 0.87542 0.91436 0.0
C652 C 0.65288 0.90293 0.96286 0.0
C653 C 0.64998 0.87588 0.85018 0.0
C654 C 0.66341 0.90388 0.83274 0.0
H655 H 0.63335 0.85387 0.926 0.0
H656 H 0.64257 0.85465 0.81396 0.0
S657 S 0.69249 0.98041 0.94216 0.0
N658 N 0.67757 0.95757 0.98956 0.0
N659 N 0.68742 0.95845 0.86899 0.0
C660 C 0.67284 0.93093 0.88095 0.0
C661 C 0.66755 0.93045 0.94605 0.0
C662 C 0.38271 0.43029 0.19641 0.0
C663 C 0.37784 0.39777 0.20454 0.0
C664 C 0.38326 0.4374 0.13524 0.0
C665 C 0.37901 0.41224 0.08002 0.0
H666 H 0.38517 0.45048 0.23763 0.0
H667 H 0.38602 0.4629 0.13125 0.0
S668 S 0.37003 0.32251 0.07542 0.0
N669 N 0.37185 0.33989 0.15203 0.0
N670 N 0.37302 0.35314 0.03771 0.0
C671 C 0.37556 0.3795 0.08767 0.0
C672 C 0.37494 0.37231 0.14966 0.0
C673 C 0.90919 0.13168 0.44561 0.0
C674 C 0.88271 0.11856 0.47375 0.0
C675 C 0.90692 0.13826 0.3842 0.0
C676 C 0.87806 0.13205 0.34813 0.0
H677 H 0.93176 0.13747 0.47171 0.0
H678 H 0.92777 0.14899 0.36538 0.0
S679 S 0.80277 0.09449 0.39673 0.0
N680 N 0.82743 0.09735 0.45837 0.0
N681 N 0.82317 0.10977 0.34353 0.0
C682 C 0.85166 0.11821 0.37504 0.0
C683 C 0.85397 0.11149 0.43754 0.0
C684 C 0.177 0.41476 0.36987 0.0
C685 C 0.15616 0.39689 0.32272 0.0
C686 C 0.17247 0.41448 0.43424 0.0
C687 C 0.14702 0.3962 0.45353 0.0
H688 H 0.19719 0.42878 0.35683 0.0
H689 H 0.1891 0.42844 0.46912 0.0
S690 S 0.08435 0.34733 0.34933 0.0
N691 N 0.10824 0.36181 0.29999 0.0
N692 N 0.09974 0.3612 0.42112 0.0
C693 C 0.12583 0.3785 0.40699 0.0
C694 C 0.1304 0.37884 0.34152 0.0
C695 C 0.89282 0.92534 0.69849 0.0
C696 C 0.87508 0.89799 0.70958 0.0
C697 C 0.89528 0.93183 0.63703 0.0
C698 C 0.88018 0.91123 0.58393 0.0
H699 H 0.90461 0.94209 0.73775 0.0
H700 H 0.90885 0.95343 0.63124 0.0
S701 S 0.83327 0.83479 0.58633 0.0
N702 N 0.84371 0.84912 0.6614 0.0
N703 N 0.84839 0.86123 0.54648 0.0
C704 C 0.86276 0.88357 0.59432 0.0
C705 C 0.86021 0.87699 0.65683 0.0
C706 C 0.38894 0.60361 0.85918 0.0
C707 C 0.38192 0.63575 0.85129 0.0
C708 C 0.39083 0.59661 0.92027 0.0
C709 C 0.38584 0.62153 0.97544 0.0
H710 H 0.39185 0.58356 0.8179 0.0
H711 H 0.39505 0.57131 0.92424 0.0
S712 S 0.37152 0.71054 0.98036 0.0
N713 N 0.37328 0.69323 0.90373 0.0
N714 N 0.37699 0.68019 1.01802 0.0
C715 C 0.38045 0.65402 0.96799 0.0
C716 C 0.37845 0.66109 0.9061 0.0
C717 C 0.62437 0.13436 0.14319 0.0
C718 C 0.65089 0.1358 0.1026 0.0
C719 C 0.62904 0.13605 0.20819 0.0
C720 C 0.66038 0.13939 0.23488 0.0
H721 H 0.59976 0.1323 0.12469 0.0
H722 H 0.60797 0.13499 0.23787 0.0
S723 S 0.73799 0.14225 0.14851 0.0
N724 N 0.70963 0.13941 0.09311 0.0
N725 N 0.71845 0.14267 0.21571 0.0
C726 C 0.68714 0.14067 0.19486 0.0
C727 C 0.68238 0.13887 0.12858 0.0
C728 C 0.85212 0.41284 0.37332 0.0
C729 C 0.87145 0.39508 0.32364 0.0
C730 C 0.85802 0.4114 0.43669 0.0
C731 C 0.88345 0.3921 0.45281 0.0
H732 H 0.83248 0.42835 0.36316 0.0
H733 H 0.84283 0.42588 0.47352 0.0
S734 S 0.94133 0.34117 0.34076 0.0
N735 N 0.91704 0.35756 0.29471 0.0
N736 N 0.92817 0.35483 0.41426 0.0
C737 C 0.90254 0.3736 0.40359 0.0
C738 C 0.89653 0.37508 0.33887 0.0
C739 C 0.35481 0.15209 0.1973 0.0
C740 C 0.37769 0.13707 0.23065 0.0
C741 C 0.35881 0.15146 0.13248 0.0
C742 C 0.38574 0.13567 0.09903 0.0
H743 H 0.33341 0.16393 0.22125 0.0
H744 H 0.34057 0.16305 0.1082 0.0
S745 S 0.45391 0.0954 0.1659 0.0
N746 N 0.42909 0.10782 0.22661 0.0
N747 N 0.43661 0.10658 0.1045 0.0
C748 C 0.40906 0.12111 0.13207 0.0
C749 C 0.40503 0.12181 0.19801 0.0
C750 C 0.63075 0.63666 0.94894 0.0
C751 C 0.65314 0.61491 0.96795 0.0
C752 C 0.6323 0.644 0.88808 0.0
C753 C 0.65633 0.62995 0.84388 0.0
H754 H 0.6124 0.64878 0.98191 0.0
H755 H 0.61512 0.66155 0.87621 0.0
S756 S 0.71798 0.56823 0.86683 0.0
N757 N 0.69811 0.57703 0.93503 0.0
N758 N 0.70116 0.59107 0.82143 0.0
C759 C 0.67808 0.60729 0.86145 0.0
C760 C 0.67646 0.59973 0.92317 0.0
C761 C 0.136 0.93173 0.63431 0.0
C762 C 0.15035 0.91084 0.58095 0.0
C763 C 0.1386 0.92513 0.69557 0.0
C764 C 0.15567 0.89734 0.70607 0.0
H765 H 0.12289 0.95362 0.62882 0.0
H766 H 0.12743 0.94213 0.73513 0.0
S767 S 0.19544 0.83337 0.58185 0.0
N768 N 0.18083 0.86026 0.54247 0.0
N769 N 0.18564 0.84778 0.65715 0.0
C770 C 0.16981 0.87604 0.65303 0.0
C771 C 0.16719 0.88279 0.59072 0.0
C772 C 0.85576 0.64761 0.6956 0.0
C773 C 0.8786 0.63212 0.7282 0.0
C774 C 0.85986 0.64789 0.63111 0.0
C775 C 0.88687 0.63256 0.59716 0.0
H776 H 0.83432 0.65918 0.71987 0.0
H777 H 0.84166 0.65988 0.6075 0.0
S778 S 0.95501 0.59133 0.66205 0.0
N779 N 0.93008 0.60291 0.72288 0.0
N780 N 0.93776 0.60335 0.60149 0.0
C781 C 0.91013 0.61749 0.62943 0.0
C782 C 0.906 0.61728 0.69503 0.0
C783 C 0.12694 0.13273 0.44728 0.0
C784 C 0.15415 0.12243 0.4779 0.0
C785 C 0.12925 0.13925 0.38584 0.0
C786 C 0.15887 0.13574 0.35218 0.0
H787 H 0.10371 0.13631 0.47145 0.0
H788 H 0.10777 0.1478 0.36508 0.0
S789 S 0.23651 0.10585 0.40783 0.0
N790 N 0.21112 0.10668 0.46757 0.0
N791 N 0.21545 0.1188 0.35251 0.0
C792 C 0.18607 0.12463 0.38158 0.0
C793 C 0.18372 0.11805 0.44417 0.0
C794 C 0.67087 0.38016 0.15364 0.0
C795 C 0.65245 0.39789 0.20507 0.0
C796 C 0.66867 0.38699 0.0925 0.0
C797 C 0.64781 0.41174 0.07987 0.0
H798 H 0.68686 0.36045 0.16039 0.0
H799 H 0.68311 0.37241 0.05454 0.0
S800 S 0.59641 0.46735 0.19872 0.0
N801 N 0.61411 0.44281 0.23969 0.0
N802 N 0.6097 0.45532 0.12493 0.0
C803 C 0.62954 0.42996 0.13094 0.0
C804 C 0.63191 0.42313 0.19333 0.0
C805 C 0.35919 0.88221 0.92076 0.0
C806 C 0.38516 0.8993 0.95588 0.0
C807 C 0.35421 0.88376 0.85698 0.0
C808 C 0.37512 0.90238 0.82657 0.0
H809 H 0.34219 0.86828 0.9432 0.0
H810 H 0.33334 0.87117 0.83191 0.0
S811 S 0.44918 0.94767 0.89544 0.0
N812 N 0.43373 0.93267 0.95417 0.0
N813 N 0.42442 0.93552 0.83429 0.0
C814 C 0.40196 0.91834 0.86046 0.0
C815 C 0.40696 0.91682 0.92517 0.0
C816 C 0.12709 0.75043 0.1975 0.0
C817 C 0.15616 0.73425 0.1743 0.0
C818 C 0.12352 0.78494 0.20254 0.0
C819 C 0.14908 0.80407 0.18546 0.0
H820 H 0.10632 0.73611 0.20689 0.0
H821 H 0.10008 0.79623 0.2157 0.0
S822 S 0.23056 0.77345 0.12713 0.0
N823 N 0.21138 0.74032 0.13902 0.0
N824 N 0.20454 0.80415 0.14783 0.0
C825 C 0.17865 0.78821 0.1663 0.0
C826 C 0.18226 0.75357 0.16111 0.0
C827 C 0.53238 0.85666 0.43994 0.0
C828 C 0.54976 0.8867 0.45585 0.0
C829 C 0.49807 0.85604 0.44038 0.0
C830 C 0.47983 0.88538 0.45811 0.0
H831 H 0.54533 0.83372 0.42262 0.0
H832 H 0.48571 0.8327 0.42286 0.0
S833 S 0.51297 0.97039 0.49645 0.0
N834 N 0.54527 0.94643 0.48208 0.0
N835 N 0.48164 0.94496 0.49029 0.0
C836 C 0.49687 0.91523 0.4765 0.0
C837 C 0.5316 0.916 0.47331 0.0
C838 C 0.37228 0.29558 0.72958 0.0
C839 C 0.39425 0.30469 0.68615 0.0
C840 C 0.36783 0.26209 0.73235 0.0
C841 C 0.38585 0.2367 0.69318 0.0
H842 H 0.35683 0.31408 0.75843 0.0
H843 H 0.34923 0.25589 0.76346 0.0
S844 S 0.44756 0.24767 0.57394 0.0
N845 N 0.43519 0.28556 0.60523 0.0
N846 N 0.42718 0.2232 0.61129 0.0
C847 C 0.40914 0.24573 0.65229 0.0
C848 C 0.41328 0.27957 0.64868 0.0
C849 C 1.0011 0.11835 0.98201 0.0
C850 C 0.98353 0.12863 0.9336 0.0
C851 C 0.03537 0.11886 0.98272 0.0
C852 C 0.05302 0.12968 0.93506 0.0
H853 H 0.98833 0.10825 1.01757 0.0
H854 H 0.04812 0.10909 1.01875 0.0
S855 S 0.0184 0.15737 0.79619 0.0
N856 N 0.98628 0.14922 0.83629 0.0
N857 N 0.05042 0.15016 0.83759 0.0
C858 C 0.03566 0.1408 0.88742 0.0
C859 C 1.00093 0.14027 0.8867 0.0
C860 C 0.12741 0.28953 0.90569 0.0
C861 C 0.14736 0.29758 0.85823 0.0
C862 C 0.12389 0.25669 0.91203 0.0
C863 C 0.13977 0.23042 0.87058 0.0
H864 H 0.1161 0.30898 0.94084 0.0
H865 H 0.10965 0.25205 0.95156 0.0
S866 S 0.19157 0.23815 0.73345 0.0
N867 N 0.1813 0.27666 0.7662 0.0
N868 N 0.17361 0.21462 0.7763 0.0
C869 C 0.15785 0.23792 0.81996 0.0
C870 C 0.16203 0.27159 0.81443 0.0
C871 C 0.03268 0.90701 0.07137 0.0
C872 C 0.0506 0.90291 0.12492 0.0
C873 C 0.99834 0.90713 0.07208 0.0
C874 C 0.98105 0.9032 0.12639 0.0
H875 H 0.04522 0.91195 0.03016 0.0
H876 H 0.98533 0.91212 0.03136 0.0
S877 S 1.01669 0.89226 0.2789 0.0
N878 N 0.04847 0.89475 0.23328 0.0
N879 N 0.98439 0.89506 0.23464 0.0
C880 C 0.99877 0.89801 0.17924 0.0
C881 C 0.03346 0.89784 0.1785 0.0
C882 C 0.41611 0.75353 0.41603 0.0
C883 C 0.39678 0.72951 0.37605 0.0
C884 C 0.41171 0.78741 0.41894 0.0
C885 C 0.38795 0.79868 0.38178 0.0
H886 H 0.43332 0.74622 0.4486 0.0
H887 H 0.42545 0.805 0.4539 0.0
S888 S 0.3332 0.74623 0.26466 0.0
N889 N 0.3548 0.71946 0.29434 0.0
N890 N 0.34653 0.78335 0.3002 0.0
C891 C 0.37013 0.77504 0.3381 0.0
C892 C 0.37465 0.74036 0.33492 0.0
C893 C 0.53323 0.10897 0.62186 0.0
C894 C 0.55143 0.13181 0.59631 0.0
C895 C 0.49914 0.10896 0.62077 0.0
C896 C 0.48158 0.13183 0.59418 0.0
H897 H 0.54543 0.09265 0.64756 0.0
H898 H 0.4864 0.09265 0.64573 0.0
S899 S 0.51745 0.19376 0.5132 0.0
N900 N 0.54935 0.17549 0.53731 0.0
N901 N 0.48499 0.17557 0.53553 0.0
C902 C 0.49935 0.15291 0.5636 0.0
C903 C 0.53435 0.15288 0.56461 0.0
C904 C 0.92001 0.24946 0.8842 0.0
C905 C 0.89386 0.2273 0.86684 0.0
C906 C 0.91651 0.28346 0.88581 0.0
C907 C 0.88658 0.29645 0.87121 0.0
H908 H 0.94264 0.24079 0.90059 0.0
H909 H 0.93643 0.30002 0.90403 0.0
S910 S 0.81089 0.24894 0.82268 0.0
N911 N 0.83754 0.22075 0.83289 0.0
N912 N 0.83074 0.28453 0.83741 0.0
C913 C 0.86084 0.27433 0.85088 0.0
C914 C 0.86454 0.23974 0.84827 0.0
C915 C 0.61842 0.78227 0.36834 0.0
C916 C 0.6494 0.797 0.37038 0.0
C917 C 0.61502 0.74807 0.36602 0.0
C918 C 0.64248 0.72767 0.36504 0.0
H919 H 0.59687 0.79763 0.37428 0.0
H920 H 0.59091 0.738 0.36928 0.0
S921 S 0.72868 0.75454 0.36861 0.0
N922 N 0.70771 0.78852 0.3688 0.0
N923 N 0.70139 0.72499 0.36598 0.0
C924 C 0.67337 0.74202 0.36388 0.0
C925 C 0.6768 0.77651 0.36596 0.0
C926 C 0.8509 0.7545 0.17221 0.0
C927 C 0.8757 0.73566 0.1925 0.0
C928 C 0.85565 0.78772 0.17022 0.0
C929 C 0.88492 0.80412 0.19059 0.0
H930 H 0.82802 0.74314 0.15429 0.0
H931 H 0.83656 0.80033 0.15015 0.0
S932 S 0.95625 0.76794 0.25539 0.0
N933 N 0.93003 0.73693 0.23796 0.0
N934 N 0.93839 0.80012 0.23596 0.0
C935 C 0.90932 0.78648 0.21459 0.0
C936 C 0.90478 0.75214 0.21541 0.0
C937 C 0.66305 0.26274 0.73667 0.0
C938 C 0.64656 0.23674 0.69551 0.0
C939 C 0.65855 0.29598 0.73231 0.0
C940 C 0.63808 0.30408 0.68542 0.0
H941 H 0.68053 0.25723 0.77063 0.0
H942 H 0.67285 0.31508 0.76278 0.0
S943 S 0.5896 0.24508 0.56626 0.0
N944 N 0.60865 0.22151 0.60743 0.0
N945 N 0.60038 0.28339 0.59873 0.0
C946 C 0.62062 0.27831 0.64575 0.0
C947 C 0.62485 0.24477 0.65078 0.0
C948 C 0.99919 0.42259 0.94789 0.0
C949 C 0.98186 0.39597 0.96289 0.0
C950 C 0.0333 0.42316 0.94785 0.0
C951 C 0.05156 0.3972 0.96299 0.0
H952 H 0.98633 0.44181 0.93081 0.0
H953 H 0.04545 0.44275 0.93055 0.0
S954 S 0.01798 0.32335 1.01159 0.0
N955 N 0.98543 0.34423 0.99807 0.0
N956 N 0.04979 0.34538 0.99822 0.0
C957 C 0.03463 0.37165 0.98268 0.0
C958 C 0.99969 0.37101 0.98254 0.0
C959 C 0.49909 0.60676 0.44441 0.0
C960 C 0.48138 0.63335 0.43053 0.0
C961 C 0.53329 0.60694 0.44473 0.0
C962 C 0.55096 0.63369 0.43108 0.0
H963 H 0.48653 0.58433 0.44883 0.0
H964 H 0.5459 0.58458 0.44917 0.0
S965 S 0.51603 0.71028 0.39634 0.0
N966 N 0.48396 0.68806 0.40728 0.0
N967 N 0.54819 0.68835 0.40776 0.0
C968 C 0.53353 0.66152 0.42238 0.0
C969 C 0.4987 0.66135 0.42208 0.0
C970 C 0.4947 0.40348 0.59085 0.0
C971 C 0.48148 0.40148 0.65035 0.0
C972 C 0.52882 0.40438 0.58205 0.0
C973 C 0.5505 0.40247 0.63199 0.0
H974 H 0.47875 0.40667 0.55252 0.0
H975 H 0.53821 0.40819 0.53715 0.0
S976 S 0.52818 0.39424 0.79474 0.0
N977 N 0.49302 0.39568 0.75835 0.0
N978 N 0.55625 0.39644 0.74108 0.0
C979 C 0.53742 0.39836 0.68997 0.0
C980 C 0.50314 0.39804 0.69929 0.0
C981 C 0.03565 0.61664 0.0836 0.0
C982 C 0.05318 0.6464 0.0983 0.0
C983 C 1.00151 0.61654 0.08548 0.0
C984 C 0.9833 0.64598 0.09843 0.0
H985 H 0.04835 0.59325 0.07761 0.0
H986 H 0.9899 0.59326 0.08419 0.0
S987 S 0.01804 0.73062 0.13939 0.0
N988 N 0.05021 0.70625 0.12717 0.0
N989 N 0.98597 0.70593 0.12627 0.0
C990 C 1.00072 0.67596 0.11026 0.0
C991 C 0.03558 0.67615 0.11075 0.0
C992 C 0.11159 0.52534 0.06279 0.0
C993 C 0.14027 0.54264 0.08524 0.0
C994 C 0.11184 0.49851 1.00991 0.0
C995 C 0.14082 0.48745 0.97736 0.0
H996 H 0.08856 0.53282 0.08576 0.0
H997 H 0.08901 0.4862 0.99462 0.0
S998 S 0.22263 0.52427 1.01573 0.0
N999 N 0.19865 0.54672 0.06987 0.0
N1000 N 0.199 0.49614 0.9711 0.0
C1001 C 0.16977 0.5042 0.99952 0.0
C1002 C 0.16952 0.53177 0.0532 0.0
C1003 C 0.74912 0.92257 0.26126 0.0
C1004 C 0.74476 0.89978 0.30079 0.0
C1005 C 0.77591 0.92055 0.21984 0.0
C1006 C 0.79874 0.8949 0.21453 0.0
H1007 H 0.73116 0.94167 0.26121 0.0
H1008 H 0.77785 0.93822 0.18948 0.0
S1009 S 0.79991 0.8304 0.31055 0.0
N1010 N 0.76698 0.85225 0.33513 0.0
N1011 N 0.81652 0.84766 0.25576 0.0
C1012 C 0.7953 0.87266 0.25532 0.0
C1013 C 0.76854 0.8753 0.29886 0.0
C1014 C 0.39595 0.52079 0.58912 0.0
C1015 C 0.38117 0.4905 0.56183 0.0
C1016 C 0.3983 0.54621 0.55508 0.0
C1017 C 0.38582 0.54262 0.49235 0.0
H1018 H 0.40654 0.5246 0.63631 0.0
H1019 H 0.41013 0.56901 0.57853 0.0
S1020 S 0.34259 0.46866 0.40134 0.0
N1021 N 0.35238 0.45877 0.46934 0.0
N1022 N 0.35684 0.50644 0.40611 0.0
C1023 C 0.37061 0.51254 0.46499 0.0
C1024 C 0.36821 0.48665 0.49957 0.0
C1025 C 0.80153 0.14746 0.79367 0.0
C1026 C 0.7998 0.13581 0.85056 0.0
C1027 C 0.77438 0.14581 0.75265 0.0
C1028 C 0.74448 0.13277 0.76778 0.0
H1029 H 0.82389 0.1583 0.78121 0.0
H1030 H 0.77641 0.15608 0.71058 0.0
S1031 S 0.7286 0.09585 0.9078 0.0
N1032 N 0.76682 0.10837 0.91684 0.0
N1033 N 0.71591 0.10544 0.84118 0.0
C1034 C 0.74314 0.11965 0.82311 0.0
C1035 C 0.77075 0.12108 0.86412 0.0
C1036 C 0.86593 0.52364 0.06638 0.0
C1037 C 0.89309 0.54491 0.07969 0.0
C1038 C 0.86572 0.49637 1.0135 0.0
C1039 C 0.89275 0.48936 0.97228 0.0
H1040 H 0.84502 0.52768 0.09765 0.0
H1041 H 0.84458 0.48036 1.0057 0.0
S1042 S 0.96658 0.54144 0.97868 0.0
N1043 N 0.94504 0.55955 0.04112 0.0
N1044 N 0.94523 0.50877 0.94409 0.0
C1045 C 0.91898 0.51161 0.98327 0.0
C1046 C 0.91903 0.53914 0.03638 0.0
C1047 C 0.24167 0.16646 0.81891 0.0
C1048 C 0.23495 0.14059 0.85024 0.0
C1049 C 0.26704 0.16403 0.77401 0.0
C1050 C 0.28701 0.13585 0.75964 0.0
H1051 H 0.22757 0.18903 0.83003 0.0
H1052 H 0.27208 0.18499 0.75282 0.0
S1053 S 0.2801 0.06153 0.82885 0.0
N1054 N 0.25011 0.08563 0.86234 0.0
N1055 N 0.29853 0.08176 0.78056 0.0
C1056 C 0.28026 0.1097 0.7899 0.0
C1057 C 0.25401 0.11183 0.83438 0.0
C1058 C 0.63535 0.54726 0.55602 0.0
C1059 C 0.64534 0.54281 0.49157 0.0
C1060 C 0.63731 0.52165 0.58973 0.0
C1061 C 0.64924 0.49035 0.56045 0.0
H1062 H 0.62579 0.57086 0.58104 0.0
H1063 H 0.62869 0.52619 0.63843 0.0
S1064 S 0.68092 0.46609 0.39477 0.0
N1065 N 0.66909 0.50476 0.40147 0.0
N1066 N 0.67291 0.4568 0.46404 0.0
C1067 C 0.65979 0.48568 0.49644 0.0
C1068 C 0.65774 0.51173 0.4622 0.0
C1069 C 0.28122 0.86799 0.24919 0.0
C1070 C 0.2876 0.89609 0.29731 0.0
C1071 C 0.25568 0.86741 0.20572 0.0
C1072 C 0.23527 0.89492 0.2079 0.0
H1073 H 0.2968 0.84647 0.24386 0.0
H1074 H 0.25271 0.84541 0.16868 0.0
S1075 S 0.24385 0.97596 0.32167 0.0
N1076 N 0.27258 0.95282 0.34349 0.0
N1077 N 0.22502 0.95219 0.26045 0.0
C1078 C 0.24166 0.92349 0.25557 0.0
C1079 C 0.26759 0.92389 0.30069 0.0
C1080 C 0.66736 1.01253 0.49153 0.0
C1081 C 0.64286 0.98825 0.48662 0.0
C1082 C 0.66886 0.0396 0.54447 0.0
C1083 C 0.64543 0.04372 0.59343 0.0
H1084 H 0.68503 1.01097 0.4537 0.0
H1085 H 0.6881 0.0576 0.54636 0.0
S1086 S 0.58376 0.9815 0.61341 0.0
N1087 N 0.60058 0.96609 0.54371 0.0
N1088 N 0.60168 0.01751 0.63976 0.0
C1089 C 0.62277 0.01815 0.59141 0.0
C1090 C 0.62178 0.99043 0.53871 0.0
C1091 C 0.26496 0.36963 0.77809 0.0
C1092 C 0.24408 0.39716 0.78993 0.0
C1093 C 0.29029 0.36697 0.73299 0.0
C1094 C 0.29596 0.392 0.69896 0.0
H1095 H 0.2608 0.34937 0.80167 0.0
H1096 H 0.30538 0.34504 0.72433 0.0
S1097 S 0.24829 0.46916 0.71348 0.0
N1098 N 0.23067 0.44971 0.76396 0.0
N1099 N 0.27891 0.44547 0.68175 0.0
C1100 C 0.27591 0.42009 0.71219 0.0
C1101 C 0.24977 0.42242 0.75687 0.0
C1102 C 0.89751 0.02063 0.09226 0.0
C1103 C 0.88228 0.99041 0.06607 0.0
C1104 C 0.89964 0.04583 0.05762 0.0
C1105 C 0.88653 0.04205 0.99534 0.0
H1106 H 0.90869 0.0245 0.13895 0.0
H1107 H 0.91194 0.06853 0.0801 0.0
S1108 S 0.84184 0.96833 0.90752 0.0
N1109 N 0.85232 0.95864 0.97534 0.0
N1110 N 0.85632 1.00591 0.91099 0.0
C1111 C 0.87075 1.01211 0.96925 0.0
C1112 C 0.86859 0.98645 1.00443 0.0
C1113 C 0.2634 0.61007 0.26531 0.0
C1114 C 0.24578 0.63824 0.25864 0.0
C1115 C 0.28883 0.61236 0.31041 0.0
C1116 C 0.29786 0.64298 0.34982 0.0
H1117 H 0.25644 0.58592 0.23783 0.0
H1118 H 0.30096 0.58987 0.31544 0.0
S1119 S 0.25933 0.72406 0.3493 0.0
N1120 N 0.23908 0.69746 0.29457 0.0
N1121 N 0.28712 0.70215 0.3772 0.0
C1122 C 0.28081 0.67135 0.34197 0.0
C1123 C 0.25479 0.66888 0.29692 0.0
C1124 C 0.41994 1.00303 0.50469 0.0
C1125 C 0.39143 0.98983 0.47281 0.0
C1126 C 0.41913 0.02967 0.55773 0.0
C1127 C 0.38979 0.0454 0.58028 0.0
H1128 H 0.44323 0.99264 0.48868 0.0
H1129 H 0.44197 0.03835 0.58062 0.0
S1130 S 0.30827 0.02339 0.50886 0.0
N1131 N 0.33288 0.99602 0.46534 0.0
N1132 N 0.33141 0.04718 0.56314 0.0
C1133 C 0.36103 0.03342 0.54732 0.0
C1134 C 0.36183 1.00551 0.49411 0.0
C1135 C 0.78942 0.61604 0.31355 0.0
C1136 C 0.78916 0.63021 0.25947 0.0
C1137 C 0.76245 0.61839 0.35451 0.0
C1138 C 0.73433 0.63559 0.34386 0.0
H1139 H 0.81106 0.60369 0.32528 0.0
H1140 H 0.76415 0.6078 0.39627 0.0
S1141 S 0.72054 0.67613 0.20794 0.0
N1142 N 0.75774 0.66102 0.19638 0.0
N1143 N 0.70716 0.66552 0.27314 0.0
C1144 C 0.73329 0.64897 0.28887 0.0
C1145 C 0.76063 0.64619 0.24662 0.0
C1146 C 0.13796 0.04876 0.06162 0.0
C1147 C 0.14892 0.04443 0.99775 0.0
C1148 C 0.13889 0.02299 0.09504 0.0
C1149 C 0.15065 0.99162 0.06597 0.0
H1150 H 0.12826 0.07233 0.08637 0.0
H1151 H 0.1295 0.02745 0.14317 0.0
S1152 S 0.18437 0.96742 0.90178 0.0
N1153 N 0.17328 1.00632 0.90847 0.0
N1154 N 0.1752 0.95804 0.97047 0.0
C1155 C 0.16225 0.98706 1.00263 0.0
C1156 C 0.16129 1.0133 0.96872 0.0
C1157 C 0.73238 0.39087 0.76812 0.0
C1158 C 0.73549 0.39315 0.70383 0.0
C1159 C 0.75993 0.39234 0.80835 0.0
C1160 C 0.79159 0.39585 0.78539 0.0
H1161 H 0.70858 0.38721 0.78703 0.0
H1162 H 0.75647 0.38986 0.85701 0.0
S1163 S 0.81182 0.40521 0.621 0.0
N1164 N 0.77197 0.40048 0.62004 0.0
N1165 N 0.82341 0.40375 0.69381 0.0
C1166 C 0.79448 0.39908 0.72123 0.0
C1167 C 0.76658 0.39752 0.68093 0.0
loop_
_geom_bond_atom_site_label_1
_geom_bond_atom_site_label_2
_geom_bond_distance
_geom_bond_site_symmetry_2
_ccdc_geom_bond_type
Sm0 C2 2.846 1_554 S
Sm0 O20 2.543 1_554 S
Sm0 O21 2.450 1_554 S
Sm0 O22 2.681 . S
Sm0 O23 2.464 . S
Sm0 O24 2.396 . S
Sm0 O28 2.386 . S
Sm0 O31 2.408 . S
Sm1 C11 2.846 . S
Sm1 O22 2.386 . S
Sm1 O25 2.408 . S
Sm1 O26 2.543 . S
Sm1 O27 2.450 . S
Sm1 O28 2.681 . S
Sm1 O29 2.464 . S
Sm1 O30 2.396 . S
C2 Sm0 2.846 1_556 S
C2 C3 1.506 . S
C2 O20 1.261 . S
C2 O21 1.242 . S
C3 C2 1.506 . S
C3 C4 1.358 . S
C3 C8 1.382 . S
C4 C3 1.358 . S
C4 C5 1.385 . S
C4 H32 0.930 . S
C5 C4 1.385 . S
C5 C6 1.395 . S
C5 H33 0.929 . S
C6 C5 1.395 . S
C6 C7 1.335 . S
C7 C6 1.335 . S
C7 C8 1.398 . S
C7 H34 0.930 . S
C8 C3 1.382 . S
C8 C7 1.398 . S
C8 H35 0.929 . S
C9 O22 1.271 . S
C9 O23 1.251 . S
C10 O24 1.252 . S
C10 O25 1.272 . S
C11 Sm1 2.846 . S
C11 C12 1.506 . S
C11 O26 1.261 . S
C11 O27 1.242 . S
C12 C11 1.506 . S
C12 C13 1.358 . S
C12 C17 1.382 . S
C13 C12 1.358 . S
C13 C14 1.385 . S
C13 H36 0.930 . S
C14 C13 1.385 . S
C14 C15 1.395 . S
C14 H37 0.929 . S
C15 C14 1.395 . S
C15 C16 1.335 . S
C16 C15 1.335 . S
C16 C17 1.398 . S
C16 H38 0.930 . S
C17 C12 1.382 . S
C17 C16 1.398 . S
C17 H39 0.929 . S
C18 O28 1.271 . S
C18 O29 1.251 . S
C19 O30 1.252 . S
C19 O31 1.272 . S
O20 Sm0 2.543 1_556 S
O20 C2 1.261 . S
O21 Sm0 2.450 1_556 S
O21 C2 1.242 . S
O22 Sm0 2.681 . S
O22 Sm1 2.386 . S
O22 C9 1.271 . S
O23 Sm0 2.464 . S
O23 C9 1.251 . S
O24 Sm0 2.396 . S
O24 C10 1.252 . S
O25 Sm1 2.408 . S
O25 C10 1.272 . S
O26 Sm1 2.543 . S
O26 C11 1.261 . S
O27 Sm1 2.450 . S
O27 C11 1.242 . S
O28 Sm0 2.386 . S
O28 Sm1 2.681 . S
O28 C18 1.271 . S
O29 Sm1 2.464 . S
O29 C18 1.251 . S
O30 Sm1 2.396 . S
O30 C19 1.252 . S
O31 Sm0 2.408 . S
O31 C19 1.272 . S
H32 C4 0.930 . S
H33 C5 0.929 . S
H34 C7 0.930 . S
H35 C8 0.929 . S
H36 C13 0.930 . S
H37 C14 0.929 . S
H38 C16 0.930 . S
H39 C17 0.929 . S
Sm40 C42 2.846 . S
Sm40 O60 2.543 . S
Sm40 O61 2.450 . S
Sm40 O62 2.681 . S
Sm40 O63 2.464 . S
Sm40 O64 2.396 . S
Sm40 O68 2.386 . S
Sm40 O71 2.408 . S
Sm41 C51 2.846 . S
Sm41 O62 2.386 . S
Sm41 O65 2.408 . S
Sm41 O66 2.543 . S
Sm41 O67 2.450 . S
Sm41 O68 2.681 . S
Sm41 O69 2.464 . S
Sm41 O70 2.396 . S
C42 Sm40 2.846 . S
C42 C43 1.506 . S
C42 O60 1.261 . S
C42 O61 1.242 . S
C43 C42 1.506 . S
C43 C44 1.358 . S
C43 C48 1.382 . S
C44 C43 1.358 . S
C44 C45 1.385 . S
C44 H72 0.930 . S
C45 C44 1.385 . S
C45 C46 1.395 . S
C45 H73 0.929 . S
C46 C45 1.395 . S
C46 C47 1.335 . S
C47 C46 1.335 . S
C47 C48 1.398 . S
C47 H74 0.930 . S
C48 C43 1.382 . S
C48 C47 1.398 . S
C48 H75 0.929 . S
C49 O62 1.271 . S
C49 O63 1.251 . S
C50 O64 1.252 . S
C50 O65 1.272 . S
C51 Sm41 2.846 . S
C51 C52 1.506 . S
C51 O66 1.261 . S
C51 O67 1.242 . S
C52 C51 1.506 . S
C52 C53 1.358 . S
C52 C57 1.382 . S
C53 C52 1.358 . S
C53 C54 1.385 . S
C53 H76 0.930 . S
C54 C53 1.385 . S
C54 C55 1.395 . S
C54 H77 0.929 . S
C55 C54 1.395 . S
C55 C56 1.335 . S
C56 C55 1.335 . S
C56 C57 1.398 . S
C56 H78 0.930 . S
C57 C52 1.382 . S
C57 C56 1.398 . S
C57 H79 0.929 . S
C58 O68 1.271 . S
C58 O69 1.251 . S
C59 O70 1.252 . S
C59 O71 1.272 . S
O60 Sm40 2.543 . S
O60 C42 1.261 . S
O61 Sm40 2.450 . S
O61 C42 1.242 . S
O62 Sm40 2.681 . S
O62 Sm41 2.386 . S
O62 C49 1.271 . S
O63 Sm40 2.464 . S
O63 C49 1.251 . S
O64 Sm40 2.396 . S
O64 C50 1.252 . S
O65 Sm41 2.408 . S
O65 C50 1.272 . S
O66 Sm41 2.543 . S
O66 C51 1.261 . S
O67 Sm41 2.450 . S
O67 C51 1.242 . S
O68 Sm40 2.386 . S
O68 Sm41 2.681 . S
O68 C58 1.271 . S
O69 Sm41 2.464 . S
O69 C58 1.251 . S
O70 Sm41 2.396 . S
O70 C59 1.252 . S
O71 Sm40 2.408 . S
O71 C59 1.272 . S
H72 C44 0.930 . S
H73 C45 0.929 . S
H74 C47 0.930 . S
H75 C48 0.929 . S
H76 C53 0.930 . S
H77 C54 0.929 . S
H78 C56 0.930 . S
H79 C57 0.929 . S
Sm80 C82 2.846 . S
Sm80 O100 2.543 . S
Sm80 O101 2.450 . S
Sm80 O102 2.681 . S
Sm80 O103 2.464 . S
Sm80 O104 2.396 . S
Sm80 O108 2.386 . S
Sm80 O111 2.408 . S
Sm81 C91 2.846 . S
Sm81 O102 2.386 . S
Sm81 O105 2.408 . S
Sm81 O106 2.543 . S
Sm81 O107 2.450 . S
Sm81 O108 2.681 . S
Sm81 O109 2.464 . S
Sm81 O110 2.396 . S
C82 Sm80 2.846 . S
C82 C83 1.506 . S
C82 O100 1.261 . S
C82 O101 1.242 . S
C83 C82 1.506 . S
C83 C84 1.358 . S
C83 C88 1.382 . S
C84 C83 1.358 . S
C84 C85 1.385 . S
C84 H112 0.930 . S
C85 C84 1.385 . S
C85 C86 1.395 1_556 S
C85 H113 0.929 . S
C86 C85 1.395 1_554 S
C86 C87 1.335 1_554 S
C87 C86 1.335 1_556 S
C87 C88 1.398 . S
C87 H114 0.930 1_556 S
C88 C83 1.382 . S
C88 C87 1.398 . S
C88 H115 0.929 . S
C89 O102 1.271 . S
C89 O103 1.251 . S
C90 O104 1.252 . S
C90 O105 1.272 . S
C91 Sm81 2.846 . S
C91 C92 1.506 . S
C91 O106 1.261 . S
C91 O107 1.242 . S
C92 C91 1.506 . S
C92 C93 1.358 . S
C92 C97 1.382 . S
C93 C92 1.358 . S
C93 C94 1.385 . S
C93 H116 0.930 . S
C94 C93 1.385 . S
C94 C95 1.395 . S
C94 H117 0.929 . S
C95 C94 1.395 . S
C95 C96 1.335 . S
C96 C95 1.335 . S
C96 C97 1.398 . S
C96 H118 0.930 . S
C97 C92 1.382 . S
C97 C96 1.398 . S
C97 H119 0.929 . S
C98 O108 1.271 . S
C98 O109 1.251 . S
C99 O110 1.252 . S
C99 O111 1.272 . S
O100 Sm80 2.543 . S
O100 C82 1.261 . S
O101 Sm80 2.450 . S
O101 C82 1.242 . S
O102 Sm80 2.681 . S
O102 Sm81 2.386 . S
O102 C89 1.271 . S
O103 Sm80 2.464 . S
O103 C89 1.251 . S
O104 Sm80 2.396 . S
O104 C90 1.252 . S
O105 Sm81 2.408 . S
O105 C90 1.272 . S
O106 Sm81 2.543 . S
O106 C91 1.261 . S
O107 Sm81 2.450 . S
O107 C91 1.242 . S
O108 Sm80 2.386 . S
O108 Sm81 2.681 . S
O108 C98 1.271 . S
O109 Sm81 2.464 . S
O109 C98 1.251 . S
O110 Sm81 2.396 . S
O110 C99 1.252 . S
O111 Sm80 2.408 . S
O111 C99 1.272 . S
H112 C84 0.930 . S
H113 C85 0.929 . S
H114 C87 0.930 1_554 S
H115 C88 0.929 . S
H116 C93 0.930 . S
H117 C94 0.929 . S
H118 C96 0.930 . S
H119 C97 0.929 . S
Sm120 C122 2.846 . S
Sm120 O140 2.543 . S
Sm120 O141 2.450 . S
Sm120 O142 2.681 . S
Sm120 O143 2.464 . S
Sm120 O144 2.396 . S
Sm120 O148 2.386 . S
Sm120 O151 2.408 . S
Sm121 C131 2.846 1_556 S
Sm121 O142 2.386 . S
Sm121 O145 2.408 . S
Sm121 O146 2.543 1_556 S
Sm121 O147 2.450 1_556 S
Sm121 O148 2.681 . S
Sm121 O149 2.464 . S
Sm121 O150 2.396 . S
C122 Sm120 2.846 . S
C122 C123 1.506 . S
C122 O140 1.261 . S
C122 O141 1.242 . S
C123 C122 1.506 . S
C123 C124 1.358 . S
C123 C128 1.382 . S
C124 C123 1.358 . S
C124 C125 1.385 . S
C124 H152 0.930 . S
C125 C124 1.385 . S
C125 C126 1.395 . S
C125 H153 0.929 . S
C126 C125 1.395 . S
C126 C127 1.335 . S
C127 C126 1.335 . S
C127 C128 1.398 . S
C127 H154 0.930 . S
C128 C123 1.382 . S
C128 C127 1.398 . S
C128 H155 0.929 . S
C129 O142 1.271 . S
C129 O143 1.251 . S
C130 O144 1.252 . S
C130 O145 1.272 . S
C131 Sm121 2.846 1_554 S
C131 C132 1.506 . S
C131 O146 1.261 . S
C131 O147 1.242 . S
C132 C131 1.506 . S
C132 C133 1.358 . S
C132 C137 1.382 . S
C133 C132 1.358 . S
C133 C134 1.385 . S
C133 H156 0.930 . S
C134 C133 1.385 . S
C134 C135 1.395 . S
C134 H157 0.929 . S
C135 C134 1.395 . S
C135 C136 1.335 . S
C136 C135 1.335 . S
C136 C137 1.398 . S
C136 H158 0.930 . S
C137 C132 1.382 . S
C137 C136 1.398 . S
C137 H159 0.929 . S
C138 O148 1.271 . S
C138 O149 1.251 . S
C139 O150 1.252 . S
C139 O151 1.272 . S
O140 Sm120 2.543 . S
O140 C122 1.261 . S
O141 Sm120 2.450 . S
O141 C122 1.242 . S
O142 Sm120 2.681 . S
O142 Sm121 2.386 . S
O142 C129 1.271 . S
O143 Sm120 2.464 . S
O143 C129 1.251 . S
O144 Sm120 2.396 . S
O144 C130 1.252 . S
O145 Sm121 2.408 . S
O145 C130 1.272 . S
O146 Sm121 2.543 1_554 S
O146 C131 1.261 . S
O147 Sm121 2.450 1_554 S
O147 C131 1.242 . S
O148 Sm120 2.386 . S
O148 Sm121 2.681 . S
O148 C138 1.271 . S
O149 Sm121 2.464 . S
O149 C138 1.251 . S
O150 Sm121 2.396 . S
O150 C139 1.252 . S
O151 Sm120 2.408 . S
O151 C139 1.272 . S
H152 C124 0.930 . S
H153 C125 0.929 . S
H154 C127 0.930 . S
H155 C128 0.929 . S
H156 C133 0.930 . S
H157 C134 0.929 . S
H158 C136 0.930 . S
H159 C137 0.929 . S
Sm160 C162 2.846 1_556 S
Sm160 O180 2.543 1_556 S
Sm160 O181 2.450 1_556 S
Sm160 O182 2.681 . S
Sm160 O183 2.464 . S
Sm160 O184 2.396 . S
Sm160 O188 2.386 . S
Sm160 O191 2.408 . S
Sm161 C171 2.846 . S
Sm161 O182 2.386 . S
Sm161 O185 2.408 . S
Sm161 O186 2.543 . S
Sm161 O187 2.450 . S
Sm161 O188 2.681 . S
Sm161 O189 2.464 . S
Sm161 O190 2.396 . S
C162 Sm160 2.846 1_554 S
C162 C163 1.506 . S
C162 O180 1.261 . S
C162 O181 1.242 . S
C163 C162 1.506 . S
C163 C164 1.358 . S
C163 C168 1.382 . S
C164 C163 1.358 . S
C164 C165 1.385 . S
C164 H192 0.930 . S
C165 C164 1.385 . S
C165 C166 1.395 . S
C165 H193 0.929 . S
C166 C165 1.395 . S
C166 C167 1.335 . S
C167 C166 1.335 . S
C167 C168 1.398 . S
C167 H194 0.930 . S
C168 C163 1.382 . S
C168 C167 1.398 . S
C168 H195 0.929 . S
C169 O182 1.271 . S
C169 O183 1.251 . S
C170 O184 1.252 . S
C170 O185 1.272 . S
C171 Sm161 2.846 . S
C171 C172 1.506 . S
C171 O186 1.261 . S
C171 O187 1.242 . S
C172 C171 1.506 . S
C172 C173 1.358 . S
C172 C177 1.382 . S
C173 C172 1.358 . S
C173 C174 1.385 . S
C173 H196 0.930 . S
C174 C173 1.385 . S
C174 C175 1.395 . S
C174 H197 0.929 . S
C175 C174 1.395 . S
C175 C176 1.335 . S
C176 C175 1.335 . S
C176 C177 1.398 . S
C176 H198 0.930 . S
C177 C172 1.382 . S
C177 C176 1.398 . S
C177 H199 0.929 . S
C178 O188 1.271 . S
C178 O189 1.251 . S
C179 O190 1.252 . S
C179 O191 1.272 . S
O180 Sm160 2.543 1_554 S
O180 C162 1.261 . S
O181 Sm160 2.450 1_554 S
O181 C162 1.242 . S
O182 Sm160 2.681 . S
O182 Sm161 2.386 . S
O182 C169 1.271 . S
O183 Sm160 2.464 . S
O183 C169 1.251 . S
O184 Sm160 2.396 . S
O184 C170 1.252 . S
O185 Sm161 2.408 . S
O185 C170 1.272 . S
O186 Sm161 2.543 . S
O186 C171 1.261 . S
O187 Sm161 2.450 . S
O187 C171 1.242 . S
O188 Sm160 2.386 . S
O188 Sm161 2.681 . S
O188 C178 1.271 . S
O189 Sm161 2.464 . S
O189 C178 1.251 . S
O190 Sm161 2.396 . S
O190 C179 1.252 . S
O191 Sm160 2.408 . S
O191 C179 1.272 . S
H192 C164 0.930 . S
H193 C165 0.929 . S
H194 C167 0.930 . S
H195 C168 0.929 . S
H196 C173 0.930 . S
H197 C174 0.929 . S
H198 C176 0.930 . S
H199 C177 0.929 . S
Sm200 C202 2.846 . S
Sm200 O220 2.543 . S
Sm200 O221 2.450 . S
Sm200 O222 2.681 . S
Sm200 O223 2.464 . S
Sm200 O224 2.396 . S
Sm200 O228 2.386 . S
Sm200 O231 2.408 . S
Sm201 C211 2.846 1_554 S
Sm201 O222 2.386 . S
Sm201 O225 2.408 . S
Sm201 O226 2.543 1_554 S
Sm201 O227 2.450 1_554 S
Sm201 O228 2.681 . S
Sm201 O229 2.464 . S
Sm201 O230 2.396 . S
C202 Sm200 2.846 . S
C202 C203 1.506 . S
C202 O220 1.261 . S
C202 O221 1.242 . S
C203 C202 1.506 . S
C203 C204 1.358 . S
C203 C208 1.382 . S
C204 C203 1.358 . S
C204 C205 1.385 . S
C204 H232 0.930 . S
C205 C204 1.385 . S
C205 C206 1.395 . S
C205 H233 0.929 . S
C206 C205 1.395 . S
C206 C207 1.335 . S
C207 C206 1.335 . S
C207 C208 1.398 . S
C207 H234 0.930 . S
C208 C203 1.382 . S
C208 C207 1.398 . S
C208 H235 0.929 . S
C209 O222 1.271 . S
C209 O223 1.251 . S
C210 O224 1.252 . S
C210 O225 1.272 . S
C211 Sm201 2.846 1_556 S
C211 C212 1.506 . S
C211 O226 1.261 . S
C211 O227 1.242 . S
C212 C211 1.506 . S
C212 C213 1.358 . S
C212 C217 1.382 . S
C213 C212 1.358 . S
C213 C214 1.385 . S
C213 H236 0.930 . S
C214 C213 1.385 . S
C214 C215 1.395 . S
C214 H237 0.929 . S
C215 C214 1.395 . S
C215 C216 1.335 . S
C216 C215 1.335 . S
C216 C217 1.398 . S
C216 H238 0.930 . S
C217 C212 1.382 . S
C217 C216 1.398 . S
C217 H239 0.929 . S
C218 O228 1.271 . S
C218 O229 1.251 . S
C219 O230 1.252 . S
C219 O231 1.272 . S
O220 Sm200 2.543 . S
O220 C202 1.261 . S
O221 Sm200 2.450 . S
O221 C202 1.242 . S
O222 Sm200 2.681 . S
O222 Sm201 2.386 . S
O222 C209 1.271 . S
O223 Sm200 2.464 . S
O223 C209 1.251 . S
O224 Sm200 2.396 . S
O224 C210 1.252 . S
O225 Sm201 2.408 . S
O225 C210 1.272 . S
O226 Sm201 2.543 1_556 S
O226 C211 1.261 . S
O227 Sm201 2.450 1_556 S
O227 C211 1.242 . S
O228 Sm200 2.386 . S
O228 Sm201 2.681 . S
O228 C218 1.271 . S
O229 Sm201 2.464 . S
O229 C218 1.251 . S
O230 Sm201 2.396 . S
O230 C219 1.252 . S
O231 Sm200 2.408 . S
O231 C219 1.272 . S
H232 C204 0.930 . S
H233 C205 0.929 . S
H234 C207 0.930 . S
H235 C208 0.929 . S
H236 C213 0.930 . S
H237 C214 0.929 . S
H238 C216 0.930 . S
H239 C217 0.929 . S
Sm240 C242 2.846 . S
Sm240 O260 2.543 . S
Sm240 O261 2.450 . S
Sm240 O262 2.681 . S
Sm240 O263 2.464 . S
Sm240 O264 2.396 . S
Sm240 O268 2.386 . S
Sm240 O271 2.408 . S
Sm241 C251 2.846 . S
Sm241 O262 2.386 . S
Sm241 O265 2.408 . S
Sm241 O266 2.543 . S
Sm241 O267 2.450 . S
Sm241 O268 2.681 . S
Sm241 O269 2.464 . S
Sm241 O270 2.396 . S
C242 Sm240 2.846 . S
C242 C243 1.506 . S
C242 O260 1.261 . S
C242 O261 1.242 . S
C243 C242 1.506 . S
C243 C244 1.358 . S
C243 C248 1.382 . S
C244 C243 1.358 . S
C244 C245 1.385 . S
C244 H272 0.930 . S
C245 C244 1.385 . S
C245 C246 1.395 1_554 S
C245 H273 0.929 . S
C246 C245 1.395 1_556 S
C246 C247 1.335 1_556 S
C247 C246 1.335 1_554 S
C247 C248 1.398 . S
C247 H274 0.930 1_554 S
C248 C243 1.382 . S
C248 C247 1.398 . S
C248 H275 0.929 . S
C249 O262 1.271 . S
C249 O263 1.251 . S
C250 O264 1.252 . S
C250 O265 1.272 . S
C251 Sm241 2.846 . S
C251 C252 1.506 . S
C251 O266 1.261 . S
C251 O267 1.242 . S
C252 C251 1.506 . S
C252 C253 1.358 . S
C252 C257 1.382 . S
C253 C252 1.358 . S
C253 C254 1.385 . S
C253 H276 0.930 . S
C254 C253 1.385 . S
C254 C255 1.395 . S
C254 H277 0.929 . S
C255 C254 1.395 . S
C255 C256 1.335 . S
C256 C255 1.335 . S
C256 C257 1.398 . S
C256 H278 0.930 . S
C257 C252 1.382 . S
C257 C256 1.398 . S
C257 H279 0.929 . S
C258 O268 1.271 . S
C258 O269 1.251 . S
C259 O270 1.252 . S
C259 O271 1.272 . S
O260 Sm240 2.543 . S
O260 C242 1.261 . S
O261 Sm240 2.450 . S
O261 C242 1.242 . S
O262 Sm240 2.681 . S
O262 Sm241 2.386 . S
O262 C249 1.271 . S
O263 Sm240 2.464 . S
O263 C249 1.251 . S
O264 Sm240 2.396 . S
O264 C250 1.252 . S
O265 Sm241 2.408 . S
O265 C250 1.272 . S
O266 Sm241 2.543 . S
O266 C251 1.261 . S
O267 Sm241 2.450 . S
O267 C251 1.242 . S
O268 Sm240 2.386 . S
O268 Sm241 2.681 . S
O268 C258 1.271 . S
O269 Sm241 2.464 . S
O269 C258 1.251 . S
O270 Sm241 2.396 . S
O270 C259 1.252 . S
O271 Sm240 2.408 . S
O271 C259 1.272 . S
H272 C244 0.930 . S
H273 C245 0.929 . S
H274 C247 0.930 1_556 S
H275 C248 0.929 . S
H276 C253 0.930 . S
H277 C254 0.929 . S
H278 C256 0.930 . S
H279 C257 0.929 . S
Sm280 C282 2.846 . S
Sm280 O300 2.543 . S
Sm280 O301 2.450 . S
Sm280 O302 2.681 . S
Sm280 O303 2.464 . S
Sm280 O304 2.396 . S
Sm280 O308 2.386 . S
Sm280 O311 2.408 . S
Sm281 C291 2.846 . S
Sm281 O302 2.386 . S
Sm281 O305 2.408 . S
Sm281 O306 2.543 . S
Sm281 O307 2.450 . S
Sm281 O308 2.681 . S
Sm281 O309 2.464 . S
Sm281 O310 2.396 . S
C282 Sm280 2.846 . S
C282 C283 1.506 . S
C282 O300 1.261 . S
C282 O301 1.242 . S
C283 C282 1.506 . S
C283 C284 1.358 . S
C283 C288 1.382 . S
C284 C283 1.358 . S
C284 C285 1.385 . S
C284 H312 0.930 . S
C285 C284 1.385 . S
C285 C286 1.395 . S
C285 H313 0.929 . S
C286 C285 1.395 . S
C286 C287 1.335 . S
C287 C286 1.335 . S
C287 C288 1.398 . S
C287 H314 0.930 . S
C288 C283 1.382 . S
C288 C287 1.398 . S
C288 H315 0.929 . S
C289 O302 1.271 . S
C289 O303 1.251 . S
C290 O304 1.252 . S
C290 O305 1.272 . S
C291 Sm281 2.846 . S
C291 C292 1.506 . S
C291 O306 1.261 . S
C291 O307 1.242 . S
C292 C291 1.506 . S
C292 C293 1.358 . S
C292 C297 1.382 . S
C293 C292 1.358 . S
C293 C294 1.385 . S
C293 H316 0.930 . S
C294 C293 1.385 . S
C294 C295 1.395 . S
C294 H317 0.929 . S
C295 C294 1.395 . S
C295 C296 1.335 . S
C296 C295 1.335 . S
C296 C297 1.398 . S
C296 H318 0.930 . S
C297 C292 1.382 . S
C297 C296 1.398 . S
C297 H319 0.929 . S
C298 O308 1.271 . S
C298 O309 1.251 . S
C299 O310 1.252 . S
C299 O311 1.272 . S
O300 Sm280 2.543 . S
O300 C282 1.261 . S
O301 Sm280 2.450 . S
O301 C282 1.242 . S
O302 Sm280 2.681 . S
O302 Sm281 2.386 . S
O302 C289 1.271 . S
O303 Sm280 2.464 . S
O303 C289 1.251 . S
O304 Sm280 2.396 . S
O304 C290 1.252 . S
O305 Sm281 2.408 . S
O305 C290 1.272 . S
O306 Sm281 2.543 . S
O306 C291 1.261 . S
O307 Sm281 2.450 . S
O307 C291 1.242 . S
O308 Sm280 2.386 . S
O308 Sm281 2.681 . S
O308 C298 1.271 . S
O309 Sm281 2.464 . S
O309 C298 1.251 . S
O310 Sm281 2.396 . S
O310 C299 1.252 . S
O311 Sm280 2.408 . S
O311 C299 1.272 . S
H312 C284 0.930 . S
H313 C285 0.929 . S
H314 C287 0.930 . S
H315 C288 0.929 . S
H316 C293 0.930 . S
H317 C294 0.929 . S
H318 C296 0.930 . S
H319 C297 0.929 . S
Sm320 C322 2.846 . S
Sm320 O340 2.543 . S
Sm320 O341 2.450 . S
Sm320 O342 2.681 . S
Sm320 O343 2.464 . S
Sm320 O344 2.396 . S
Sm320 O348 2.386 . S
Sm320 O351 2.408 . S
Sm321 C331 2.846 1_556 S
Sm321 O342 2.386 . S
Sm321 O345 2.408 . S
Sm321 O346 2.543 1_556 S
Sm321 O347 2.450 1_556 S
Sm321 O348 2.681 . S
Sm321 O349 2.464 . S
Sm321 O350 2.396 . S
C322 Sm320 2.846 . S
C322 C323 1.506 . S
C322 O340 1.261 . S
C322 O341 1.242 . S
C323 C322 1.506 . S
C323 C324 1.358 . S
C323 C328 1.382 . S
C324 C323 1.358 . S
C324 C325 1.385 . S
C324 H352 0.930 . S
C325 C324 1.385 . S
C325 C326 1.395 . S
C325 H353 0.929 . S
C326 C325 1.395 . S
C326 C327 1.335 . S
C327 C326 1.335 . S
C327 C328 1.398 . S
C327 H354 0.930 . S
C328 C323 1.382 . S
C328 C327 1.398 . S
C328 H355 0.929 . S
C329 O342 1.271 . S
C329 O343 1.251 . S
C330 O344 1.252 . S
C330 O345 1.272 . S
C331 Sm321 2.846 1_554 S
C331 C332 1.506 . S
C331 O346 1.261 . S
C331 O347 1.242 . S
C332 C331 1.506 . S
C332 C333 1.358 . S
C332 C337 1.382 . S
C333 C332 1.358 . S
C333 C334 1.385 . S
C333 H356 0.930 . S
C334 C333 1.385 . S
C334 C335 1.395 . S
C334 H357 0.929 . S
C335 C334 1.395 . S
C335 C336 1.335 . S
C336 C335 1.335 . S
C336 C337 1.398 . S
C336 H358 0.930 . S
C337 C332 1.382 . S
C337 C336 1.398 . S
C337 H359 0.929 . S
C338 O348 1.271 . S
C338 O349 1.251 . S
C339 O350 1.252 . S
C339 O351 1.272 . S
O340 Sm320 2.543 . S
O340 C322 1.261 . S
O341 Sm320 2.450 . S
O341 C322 1.242 . S
O342 Sm320 2.681 . S
O342 Sm321 2.386 . S
O342 C329 1.271 . S
O343 Sm320 2.464 . S
O343 C329 1.251 . S
O344 Sm320 2.396 . S
O344 C330 1.252 . S
O345 Sm321 2.408 . S
O345 C330 1.272 . S
O346 Sm321 2.543 1_554 S
O346 C331 1.261 . S
O347 Sm321 2.450 1_554 S
O347 C331 1.242 . S
O348 Sm320 2.386 . S
O348 Sm321 2.681 . S
O348 C338 1.271 . S
O349 Sm321 2.464 . S
O349 C338 1.251 . S
O350 Sm321 2.396 . S
O350 C339 1.252 . S
O351 Sm320 2.408 . S
O351 C339 1.272 . S
H352 C324 0.930 . S
H353 C325 0.929 . S
H354 C327 0.930 . S
H355 C328 0.929 . S
H356 C333 0.930 . S
H357 C334 0.929 . S
H358 C336 0.930 . S
H359 C337 0.929 . S
Sm360 C362 2.846 . S
Sm360 O380 2.543 . S
Sm360 O381 2.450 . S
Sm360 O382 2.681 . S
Sm360 O383 2.464 . S
Sm360 O384 2.396 . S
Sm360 O388 2.386 . S
Sm360 O391 2.408 . S
Sm361 C371 2.846 . S
Sm361 O382 2.386 . S
Sm361 O385 2.408 . S
Sm361 O386 2.543 . S
Sm361 O387 2.450 . S
Sm361 O388 2.681 . S
Sm361 O389 2.464 . S
Sm361 O390 2.396 . S
C362 Sm360 2.846 . S
C362 C363 1.506 . S
C362 O380 1.261 . S
C362 O381 1.242 . S
C363 C362 1.506 . S
C363 C364 1.358 . S
C363 C368 1.382 . S
C364 C363 1.358 . S
C364 C365 1.385 . S
C364 H392 0.930 . S
C365 C364 1.385 . S
C365 C366 1.395 . S
C365 H393 0.929 . S
C366 C365 1.395 . S
C366 C367 1.335 . S
C367 C366 1.335 . S
C367 C368 1.398 . S
C367 H394 0.930 . S
C368 C363 1.382 . S
C368 C367 1.398 . S
C368 H395 0.929 . S
C369 O382 1.271 . S
C369 O383 1.251 . S
C370 O384 1.252 . S
C370 O385 1.272 . S
C371 Sm361 2.846 . S
C371 C372 1.506 . S
C371 O386 1.261 . S
C371 O387 1.242 . S
C372 C371 1.506 . S
C372 C373 1.358 . S
C372 C377 1.382 . S
C373 C372 1.358 . S
C373 C374 1.385 . S
C373 H396 0.930 . S
C374 C373 1.385 . S
C374 C375 1.395 . S
C374 H397 0.929 . S
C375 C374 1.395 . S
C375 C376 1.335 . S
C376 C375 1.335 . S
C376 C377 1.398 . S
C376 H398 0.930 . S
C377 C372 1.382 . S
C377 C376 1.398 . S
C377 H399 0.929 . S
C378 O388 1.271 . S
C378 O389 1.251 . S
C379 O390 1.252 . S
C379 O391 1.272 . S
O380 Sm360 2.543 . S
O380 C362 1.261 . S
O381 Sm360 2.450 . S
O381 C362 1.242 . S
O382 Sm360 2.681 . S
O382 Sm361 2.386 . S
O382 C369 1.271 . S
O383 Sm360 2.464 . S
O383 C369 1.251 . S
O384 Sm360 2.396 . S
O384 C370 1.252 . S
O385 Sm361 2.408 . S
O385 C370 1.272 . S
O386 Sm361 2.543 . S
O386 C371 1.261 . S
O387 Sm361 2.450 . S
O387 C371 1.242 . S
O388 Sm360 2.386 . S
O388 Sm361 2.681 . S
O388 C378 1.271 . S
O389 Sm361 2.464 . S
O389 C378 1.251 . S
O390 Sm361 2.396 . S
O390 C379 1.252 . S
O391 Sm360 2.408 . S
O391 C379 1.272 . S
H392 C364 0.930 . S
H393 C365 0.929 . S
H394 C367 0.930 . S
H395 C368 0.929 . S
H396 C373 0.930 . S
H397 C374 0.929 . S
H398 C376 0.930 . S
H399 C377 0.929 . S
Sm400 C402 2.846 . S
Sm400 O420 2.543 . S
Sm400 O421 2.450 . S
Sm400 O422 2.681 . S
Sm400 O423 2.464 . S
Sm400 O424 2.396 . S
Sm400 O428 2.386 . S
Sm400 O431 2.408 . S
Sm401 C411 2.846 . S
Sm401 O422 2.386 . S
Sm401 O425 2.408 . S
Sm401 O426 2.543 . S
Sm401 O427 2.450 . S
Sm401 O428 2.681 . S
Sm401 O429 2.464 . S
Sm401 O430 2.396 . S
C402 Sm400 2.846 . S
C402 C403 1.506 . S
C402 O420 1.261 . S
C402 O421 1.242 . S
C403 C402 1.506 . S
C403 C404 1.358 . S
C403 C408 1.382 . S
C404 C403 1.358 . S
C404 C405 1.385 . S
C404 H432 0.930 . S
C405 C404 1.385 . S
C405 C406 1.395 . S
C405 H433 0.929 . S
C406 C405 1.395 . S
C406 C407 1.335 . S
C407 C406 1.335 . S
C407 C408 1.398 . S
C407 H434 0.930 . S
C408 C403 1.382 . S
C408 C407 1.398 . S
C408 H435 0.929 . S
C409 O422 1.271 . S
C409 O423 1.251 . S
C410 O424 1.252 . S
C410 O425 1.272 . S
C411 Sm401 2.846 . S
C411 C412 1.506 . S
C411 O426 1.261 . S
C411 O427 1.242 . S
C412 C411 1.506 . S
C412 C413 1.358 . S
C412 C417 1.382 . S
C413 C412 1.358 . S
C413 C414 1.385 . S
C413 H436 0.930 . S
C414 C413 1.385 . S
C414 C415 1.395 1_554 S
C414 H437 0.929 . S
C415 C414 1.395 1_556 S
C415 C416 1.335 1_556 S
C416 C415 1.335 1_554 S
C416 C417 1.398 . S
C416 H438 0.930 1_554 S
C417 C412 1.382 . S
C417 C416 1.398 . S
C417 H439 0.929 . S
C418 O428 1.271 . S
C418 O429 1.251 . S
C419 O430 1.252 . S
C419 O431 1.272 . S
O420 Sm400 2.543 . S
O420 C402 1.261 . S
O421 Sm400 2.450 . S
O421 C402 1.242 . S
O422 Sm400 2.681 . S
O422 Sm401 2.386 . S
O422 C409 1.271 . S
O423 Sm400 2.464 . S
O423 C409 1.251 . S
O424 Sm400 2.396 . S
O424 C410 1.252 . S
O425 Sm401 2.408 . S
O425 C410 1.272 . S
O426 Sm401 2.543 . S
O426 C411 1.261 . S
O427 Sm401 2.450 . S
O427 C411 1.242 . S
O428 Sm400 2.386 . S
O428 Sm401 2.681 . S
O428 C418 1.271 . S
O429 Sm401 2.464 . S
O429 C418 1.251 . S
O430 Sm401 2.396 . S
O430 C419 1.252 . S
O431 Sm400 2.408 . S
O431 C419 1.272 . S
H432 C404 0.930 . S
H433 C405 0.929 . S
H434 C407 0.930 . S
H435 C408 0.929 . S
H436 C413 0.930 . S
H437 C414 0.929 . S
H438 C416 0.930 1_556 S
H439 C417 0.929 . S
Sm440 C442 2.846 1_554 S
Sm440 O460 2.543 1_554 S
Sm440 O461 2.450 1_554 S
Sm440 O462 2.681 . S
Sm440 O463 2.464 . S
Sm440 O464 2.396 . S
Sm440 O468 2.386 . S
Sm440 O471 2.408 . S
Sm441 C451 2.846 . S
Sm441 O462 2.386 . S
Sm441 O465 2.408 . S
Sm441 O466 2.543 . S
Sm441 O467 2.450 . S
Sm441 O468 2.681 . S
Sm441 O469 2.464 . S
Sm441 O470 2.396 . S
C442 Sm440 2.846 1_556 S
C442 C443 1.506 . S
C442 O460 1.261 . S
C442 O461 1.242 . S
C443 C442 1.506 . S
C443 C444 1.358 . S
C443 C448 1.382 . S
C444 C443 1.358 . S
C444 C445 1.385 . S
C444 H472 0.930 . S
C445 C444 1.385 . S
C445 C446 1.395 . S
C445 H473 0.929 . S
C446 C445 1.395 . S
C446 C447 1.335 . S
C447 C446 1.335 . S
C447 C448 1.398 . S
C447 H474 0.930 . S
C448 C443 1.382 . S
C448 C447 1.398 . S
C448 H475 0.929 . S
C449 O462 1.271 . S
C449 O463 1.251 . S
C450 O464 1.252 . S
C450 O465 1.272 . S
C451 Sm441 2.846 . S
C451 C452 1.506 . S
C451 O466 1.261 . S
C451 O467 1.242 . S
C452 C451 1.506 . S
C452 C453 1.358 . S
C452 C457 1.382 . S
C453 C452 1.358 . S
C453 C454 1.385 . S
C453 H476 0.930 . S
C454 C453 1.385 . S
C454 C455 1.395 . S
C454 H477 0.929 . S
C455 C454 1.395 . S
C455 C456 1.335 . S
C456 C455 1.335 . S
C456 C457 1.398 . S
C456 H478 0.930 . S
C457 C452 1.382 . S
C457 C456 1.398 . S
C457 H479 0.929 . S
C458 O468 1.271 . S
C458 O469 1.251 . S
C459 O470 1.252 . S
C459 O471 1.272 . S
O460 Sm440 2.543 1_556 S
O460 C442 1.261 . S
O461 Sm440 2.450 1_556 S
O461 C442 1.242 . S
O462 Sm440 2.681 . S
O462 Sm441 2.386 . S
O462 C449 1.271 . S
O463 Sm440 2.464 . S
O463 C449 1.251 . S
O464 Sm440 2.396 . S
O464 C450 1.252 . S
O465 Sm441 2.408 . S
O465 C450 1.272 . S
O466 Sm441 2.543 . S
O466 C451 1.261 . S
O467 Sm441 2.450 . S
O467 C451 1.242 . S
O468 Sm440 2.386 . S
O468 Sm441 2.681 . S
O468 C458 1.271 . S
O469 Sm441 2.464 . S
O469 C458 1.251 . S
O470 Sm441 2.396 . S
O470 C459 1.252 . S
O471 Sm440 2.408 . S
O471 C459 1.272 . S
H472 C444 0.930 . S
H473 C445 0.929 . S
H474 C447 0.930 . S
H475 C448 0.929 . S
H476 C453 0.930 . S
H477 C454 0.929 . S
H478 C456 0.930 . S
H479 C457 0.929 . S
Sm480 C482 2.846 . S
Sm480 O500 2.543 . S
Sm480 O501 2.450 . S
Sm480 O502 2.681 . S
Sm480 O503 2.464 . S
Sm480 O504 2.396 . S
Sm480 O508 2.386 . S
Sm480 O511 2.408 . S
Sm481 C491 2.846 1_554 S
Sm481 O502 2.386 . S
Sm481 O505 2.408 . S
Sm481 O506 2.543 1_554 S
Sm481 O507 2.450 1_554 S
Sm481 O508 2.681 . S
Sm481 O509 2.464 . S
Sm481 O510 2.396 . S
C482 Sm480 2.846 . S
C482 C483 1.506 . S
C482 O500 1.261 . S
C482 O501 1.242 . S
C483 C482 1.506 . S
C483 C484 1.358 . S
C483 C488 1.382 . S
C484 C483 1.358 . S
C484 C485 1.385 . S
C484 H512 0.930 . S
C485 C484 1.385 . S
C485 C486 1.395 . S
C485 H513 0.929 . S
C486 C485 1.395 . S
C486 C487 1.335 . S
C487 C486 1.335 . S
C487 C488 1.398 . S
C487 H514 0.930 . S
C488 C483 1.382 . S
C488 C487 1.398 . S
C488 H515 0.929 . S
C489 O502 1.271 . S
C489 O503 1.251 . S
C490 O504 1.252 . S
C490 O505 1.272 . S
C491 Sm481 2.846 1_556 S
C491 C492 1.506 . S
C491 O506 1.261 . S
C491 O507 1.242 . S
C492 C491 1.506 . S
C492 C493 1.358 . S
C492 C497 1.382 . S
C493 C492 1.358 . S
C493 C494 1.385 . S
C493 H516 0.930 . S
C494 C493 1.385 . S
C494 C495 1.395 . S
C494 H517 0.929 . S
C495 C494 1.395 . S
C495 C496 1.335 . S
C496 C495 1.335 . S
C496 C497 1.398 . S
C496 H518 0.930 . S
C497 C492 1.382 . S
C497 C496 1.398 . S
C497 H519 0.929 . S
C498 O508 1.271 . S
C498 O509 1.251 . S
C499 O510 1.252 . S
C499 O511 1.272 . S
O500 Sm480 2.543 . S
O500 C482 1.261 . S
O501 Sm480 2.450 . S
O501 C482 1.242 . S
O502 Sm480 2.681 . S
O502 Sm481 2.386 . S
O502 C489 1.271 . S
O503 Sm480 2.464 . S
O503 C489 1.251 . S
O504 Sm480 2.396 . S
O504 C490 1.252 . S
O505 Sm481 2.408 . S
O505 C490 1.272 . S
O506 Sm481 2.543 1_556 S
O506 C491 1.261 . S
O507 Sm481 2.450 1_556 S
O507 C491 1.242 . S
O508 Sm480 2.386 . S
O508 Sm481 2.681 . S
O508 C498 1.271 . S
O509 Sm481 2.464 . S
O509 C498 1.251 . S
O510 Sm481 2.396 . S
O510 C499 1.252 . S
O511 Sm480 2.408 . S
O511 C499 1.272 . S
H512 C484 0.930 . S
H513 C485 0.929 . S
H514 C487 0.930 . S
H515 C488 0.929 . S
H516 C493 0.930 . S
H517 C494 0.929 . S
H518 C496 0.930 . S
H519 C497 0.929 . S
Sm520 C522 2.846 1_556 S
Sm520 O540 2.543 1_556 S
Sm520 O541 2.450 1_556 S
Sm520 O542 2.681 . S
Sm520 O543 2.464 . S
Sm520 O544 2.396 . S
Sm520 O548 2.386 . S
Sm520 O551 2.408 . S
Sm521 C531 2.846 . S
Sm521 O542 2.386 . S
Sm521 O545 2.408 . S
Sm521 O546 2.543 . S
Sm521 O547 2.450 . S
Sm521 O548 2.681 . S
Sm521 O549 2.464 . S
Sm521 O550 2.396 . S
C522 Sm520 2.846 1_554 S
C522 C523 1.506 . S
C522 O540 1.261 . S
C522 O541 1.242 . S
C523 C522 1.506 . S
C523 C524 1.358 . S
C523 C528 1.382 . S
C524 C523 1.358 . S
C524 C525 1.385 . S
C524 H552 0.930 . S
C525 C524 1.385 . S
C525 C526 1.395 . S
C525 H553 0.929 . S
C526 C525 1.395 . S
C526 C527 1.335 . S
C527 C526 1.335 . S
C527 C528 1.398 . S
C527 H554 0.930 . S
C528 C523 1.382 . S
C528 C527 1.398 . S
C528 H555 0.929 . S
C529 O542 1.271 . S
C529 O543 1.251 . S
C530 O544 1.252 . S
C530 O545 1.272 . S
C531 Sm521 2.846 . S
C531 C532 1.506 . S
C531 O546 1.261 . S
C531 O547 1.242 . S
C532 C531 1.506 . S
C532 C533 1.358 . S
C532 C537 1.382 . S
C533 C532 1.358 . S
C533 C534 1.385 . S
C533 H556 0.930 . S
C534 C533 1.385 . S
C534 C535 1.395 . S
C534 H557 0.929 . S
C535 C534 1.395 . S
C535 C536 1.335 . S
C536 C535 1.335 . S
C536 C537 1.398 . S
C536 H558 0.930 . S
C537 C532 1.382 . S
C537 C536 1.398 . S
C537 H559 0.929 . S
C538 O548 1.271 . S
C538 O549 1.251 . S
C539 O550 1.252 . S
C539 O551 1.272 . S
O540 Sm520 2.543 1_554 S
O540 C522 1.261 . S
O541 Sm520 2.450 1_554 S
O541 C522 1.242 . S
O542 Sm520 2.681 . S
O542 Sm521 2.386 . S
O542 C529 1.271 . S
O543 Sm520 2.464 . S
O543 C529 1.251 . S
O544 Sm520 2.396 . S
O544 C530 1.252 . S
O545 Sm521 2.408 . S
O545 C530 1.272 . S
O546 Sm521 2.543 . S
O546 C531 1.261 . S
O547 Sm521 2.450 . S
O547 C531 1.242 . S
O548 Sm520 2.386 . S
O548 Sm521 2.681 . S
O548 C538 1.271 . S
O549 Sm521 2.464 . S
O549 C538 1.251 . S
O550 Sm521 2.396 . S
O550 C539 1.252 . S
O551 Sm520 2.408 . S
O551 C539 1.272 . S
H552 C524 0.930 . S
H553 C525 0.929 . S
H554 C527 0.930 . S
H555 C528 0.929 . S
H556 C533 0.930 . S
H557 C534 0.929 . S
H558 C536 0.930 . S
H559 C537 0.929 . S
Sm560 C562 2.846 . S
Sm560 O580 2.543 . S
Sm560 O581 2.450 . S
Sm560 O582 2.681 . S
Sm560 O583 2.464 . S
Sm560 O584 2.396 . S
Sm560 O588 2.386 . S
Sm560 O591 2.408 . S
Sm561 C571 2.846 . S
Sm561 O582 2.386 . S
Sm561 O585 2.408 . S
Sm561 O586 2.543 . S
Sm561 O587 2.450 . S
Sm561 O588 2.681 . S
Sm561 O589 2.464 . S
Sm561 O590 2.396 . S
C562 Sm560 2.846 . S
C562 C563 1.506 . S
C562 O580 1.261 . S
C562 O581 1.242 . S
C563 C562 1.506 . S
C563 C564 1.358 . S
C563 C568 1.382 . S
C564 C563 1.358 . S
C564 C565 1.385 . S
C564 H592 0.930 . S
C565 C564 1.385 . S
C565 C566 1.395 . S
C565 H593 0.929 . S
C566 C565 1.395 . S
C566 C567 1.335 . S
C567 C566 1.335 . S
C567 C568 1.398 . S
C567 H594 0.930 . S
C568 C563 1.382 . S
C568 C567 1.398 . S
C568 H595 0.929 . S
C569 O582 1.271 . S
C569 O583 1.251 . S
C570 O584 1.252 . S
C570 O585 1.272 . S
C571 Sm561 2.846 . S
C571 C572 1.506 . S
C571 O586 1.261 . S
C571 O587 1.242 . S
C572 C571 1.506 . S
C572 C573 1.358 . S
C572 C577 1.382 . S
C573 C572 1.358 . S
C573 C574 1.385 . S
C573 H596 0.930 . S
C574 C573 1.385 . S
C574 C575 1.395 1_556 S
C574 H597 0.929 . S
C575 C574 1.395 1_554 S
C575 C576 1.335 1_554 S
C576 C575 1.335 1_556 S
C576 C577 1.398 . S
C576 H598 0.930 1_556 S
C577 C572 1.382 . S
C577 C576 1.398 . S
C577 H599 0.929 . S
C578 O588 1.271 . S
C578 O589 1.251 . S
C579 O590 1.252 . S
C579 O591 1.272 . S
O580 Sm560 2.543 . S
O580 C562 1.261 . S
O581 Sm560 2.450 . S
O581 C562 1.242 . S
O582 Sm560 2.681 . S
O582 Sm561 2.386 . S
O582 C569 1.271 . S
O583 Sm560 2.464 . S
O583 C569 1.251 . S
O584 Sm560 2.396 . S
O584 C570 1.252 . S
O585 Sm561 2.408 . S
O585 C570 1.272 . S
O586 Sm561 2.543 . S
O586 C571 1.261 . S
O587 Sm561 2.450 . S
O587 C571 1.242 . S
O588 Sm560 2.386 . S
O588 Sm561 2.681 . S
O588 C578 1.271 . S
O589 Sm561 2.464 . S
O589 C578 1.251 . S
O590 Sm561 2.396 . S
O590 C579 1.252 . S
O591 Sm560 2.408 . S
O591 C579 1.272 . S
H592 C564 0.930 . S
H593 C565 0.929 . S
H594 C567 0.930 . S
H595 C568 0.929 . S
H596 C573 0.930 . S
H597 C574 0.929 . S
H598 C576 0.930 1_554 S
H599 C577 0.929 . S
Sm600 C602 2.846 . S
Sm600 O620 2.543 . S
Sm600 O621 2.450 . S
Sm600 O622 2.681 . S
Sm600 O623 2.464 . S
Sm600 O624 2.396 . S
Sm600 O628 2.386 . S
Sm600 O631 2.408 . S
Sm601 C611 2.846 . S
Sm601 O622 2.386 . S
Sm601 O625 2.408 . S
Sm601 O626 2.543 . S
Sm601 O627 2.450 . S
Sm601 O628 2.681 . S
Sm601 O629 2.464 . S
Sm601 O630 2.396 . S
C602 Sm600 2.846 . S
C602 C603 1.506 . S
C602 O620 1.261 . S
C602 O621 1.242 . S
C603 C602 1.506 . S
C603 C604 1.358 . S
C603 C608 1.382 . S
C604 C603 1.358 . S
C604 C605 1.385 . S
C604 H632 0.930 . S
C605 C604 1.385 . S
C605 C606 1.395 . S
C605 H633 0.929 . S
C606 C605 1.395 . S
C606 C607 1.335 . S
C607 C606 1.335 . S
C607 C608 1.398 . S
C607 H634 0.930 . S
C608 C603 1.382 . S
C608 C607 1.398 . S
C608 H635 0.929 . S
C609 O622 1.271 . S
C609 O623 1.251 . S
C610 O624 1.252 . S
C610 O625 1.272 . S
C611 Sm601 2.846 . S
C611 C612 1.506 . S
C611 O626 1.261 . S
C611 O627 1.242 . S
C612 C611 1.506 . S
C612 C613 1.358 . S
C612 C617 1.382 . S
C613 C612 1.358 . S
C613 C614 1.385 . S
C613 H636 0.930 . S
C614 C613 1.385 . S
C614 C615 1.395 . S
C614 H637 0.929 . S
C615 C614 1.395 . S
C615 C616 1.335 . S
C616 C615 1.335 . S
C616 C617 1.398 . S
C616 H638 0.930 . S
C617 C612 1.382 . S
C617 C616 1.398 . S
C617 H639 0.929 . S
C618 O628 1.271 . S
C618 O629 1.251 . S
C619 O630 1.252 . S
C619 O631 1.272 . S
O620 Sm600 2.543 . S
O620 C602 1.261 . S
O621 Sm600 2.450 . S
O621 C602 1.242 . S
O622 Sm600 2.681 . S
O622 Sm601 2.386 . S
O622 C609 1.271 . S
O623 Sm600 2.464 . S
O623 C609 1.251 . S
O624 Sm600 2.396 . S
O624 C610 1.252 . S
O625 Sm601 2.408 . S
O625 C610 1.272 . S
O626 Sm601 2.543 . S
O626 C611 1.261 . S
O627 Sm601 2.450 . S
O627 C611 1.242 . S
O628 Sm600 2.386 . S
O628 Sm601 2.681 . S
O628 C618 1.271 . S
O629 Sm601 2.464 . S
O629 C618 1.251 . S
O630 Sm601 2.396 . S
O630 C619 1.252 . S
O631 Sm600 2.408 . S
O631 C619 1.272 . S
H632 C604 0.930 . S
H633 C605 0.929 . S
H634 C607 0.930 . S
H635 C608 0.929 . S
H636 C613 0.930 . S
H637 C614 0.929 . S
H638 C616 0.930 . S
H639 C617 0.929 . S
C640 C641 1.369 . S
C640 C642 1.419 . S
C640 H644 0.930 . S
C641 C640 1.369 . S
C641 C650 1.429 . S
C642 C640 1.419 . S
C642 C643 1.363 . S
C642 H645 0.929 . S
C643 C642 1.363 . S
C643 C649 1.428 . S
H644 C640 0.930 . S
H645 C642 0.929 . S
S646 N647 1.613 . S
S646 N648 1.610 . S
N647 S646 1.613 . S
N647 C650 1.350 . S
N648 S646 1.610 . S
N648 C649 1.351 . S
C649 C643 1.428 . S
C649 N648 1.351 . S
C649 C650 1.434 . S
C650 C641 1.429 . S
C650 N647 1.350 . S
C650 C649 1.434 . S
C651 C652 1.369 . S
C651 C653 1.419 . S
C651 H655 0.930 . S
C652 C651 1.369 . S
C652 C661 1.429 . S
C653 C651 1.419 . S
C653 C654 1.363 . S
C653 H656 0.929 . S
C654 C653 1.363 . S
C654 C660 1.428 . S
H655 C651 0.930 . S
H656 C653 0.929 . S
S657 N658 1.613 . S
S657 N659 1.610 . S
N658 S657 1.613 . S
N658 C661 1.350 . S
N659 S657 1.610 . S
N659 C660 1.351 . S
C660 C654 1.428 . S
C660 N659 1.351 . S
C660 C661 1.434 . S
C661 C652 1.429 . S
C661 N658 1.350 . S
C661 C660 1.434 . S
C662 C663 1.369 . S
C662 C664 1.419 . S
C662 H666 0.930 . S
C663 C662 1.369 . S
C663 C672 1.429 . S
C664 C662 1.419 . S
C664 C665 1.363 . S
C664 H667 0.929 . S
C665 C664 1.363 . S
C665 C671 1.428 . S
H666 C662 0.930 . S
H667 C664 0.929 . S
S668 N669 1.613 . S
S668 N670 1.610 . S
N669 S668 1.613 . S
N669 C672 1.350 . S
N670 S668 1.610 . S
N670 C671 1.351 . S
C671 C665 1.428 . S
C671 N670 1.351 . S
C671 C672 1.434 . S
C672 C663 1.429 . S
C672 N669 1.350 . S
C672 C671 1.434 . S
C673 C674 1.369 . S
C673 C675 1.419 . S
C673 H677 0.930 . S
C674 C673 1.369 . S
C674 C683 1.429 . S
C675 C673 1.419 . S
C675 C676 1.363 . S
C675 H678 0.929 . S
C676 C675 1.363 . S
C676 C682 1.428 . S
H677 C673 0.930 . S
H678 C675 0.929 . S
S679 N680 1.613 . S
S679 N681 1.610 . S
N680 S679 1.613 . S
N680 C683 1.350 . S
N681 S679 1.610 . S
N681 C682 1.351 . S
C682 C676 1.428 . S
C682 N681 1.351 . S
C682 C683 1.434 . S
C683 C674 1.429 . S
C683 N680 1.350 . S
C683 C682 1.434 . S
C684 C685 1.369 . S
C684 C686 1.419 . S
C684 H688 0.930 . S
C685 C684 1.369 . S
C685 C694 1.429 . S
C686 C684 1.419 . S
C686 C687 1.363 . S
C686 H689 0.929 . S
C687 C686 1.363 . S
C687 C693 1.428 . S
H688 C684 0.930 . S
H689 C686 0.929 . S
S690 N691 1.613 . S
S690 N692 1.610 . S
N691 S690 1.613 . S
N691 C694 1.350 . S
N692 S690 1.610 . S
N692 C693 1.351 . S
C693 C687 1.428 . S
C693 N692 1.351 . S
C693 C694 1.434 . S
C694 C685 1.429 . S
C694 N691 1.350 . S
C694 C693 1.434 . S
C695 C696 1.369 . S
C695 C697 1.419 . S
C695 H699 0.930 . S
C696 C695 1.369 . S
C696 C705 1.429 . S
C697 C695 1.419 . S
C697 C698 1.363 . S
C697 H700 0.929 . S
C698 C697 1.363 . S
C698 C704 1.428 . S
H699 C695 0.930 . S
H700 C697 0.929 . S
S701 N702 1.613 . S
S701 N703 1.610 . S
N702 S701 1.613 . S
N702 C705 1.350 . S
N703 S701 1.610 . S
N703 C704 1.351 . S
C704 C698 1.428 . S
C704 N703 1.351 . S
C704 C705 1.434 . S
C705 C696 1.429 . S
C705 N702 1.350 . S
C705 C704 1.434 . S
C706 C707 1.369 . S
C706 C708 1.419 . S
C706 H710 0.930 . S
C707 C706 1.369 . S
C707 C716 1.429 . S
C708 C706 1.419 . S
C708 C709 1.363 . S
C708 H711 0.929 . S
C709 C708 1.363 . S
C709 C715 1.428 . S
H710 C706 0.930 . S
H711 C708 0.929 . S
S712 N713 1.613 . S
S712 N714 1.610 . S
N713 S712 1.613 . S
N713 C716 1.350 . S
N714 S712 1.610 . S
N714 C715 1.351 . S
C715 C709 1.428 . S
C715 N714 1.351 . S
C715 C716 1.434 . S
C716 C707 1.429 . S
C716 N713 1.350 . S
C716 C715 1.434 . S
C717 C718 1.369 . S
C717 C719 1.419 . S
C717 H721 0.930 . S
C718 C717 1.369 . S
C718 C727 1.429 . S
C719 C717 1.419 . S
C719 C720 1.363 . S
C719 H722 0.929 . S
C720 C719 1.363 . S
C720 C726 1.428 . S
H721 C717 0.930 . S
H722 C719 0.929 . S
S723 N724 1.613 . S
S723 N725 1.610 . S
N724 S723 1.613 . S
N724 C727 1.350 . S
N725 S723 1.610 . S
N725 C726 1.351 . S
C726 C720 1.428 . S
C726 N725 1.351 . S
C726 C727 1.434 . S
C727 C718 1.429 . S
C727 N724 1.350 . S
C727 C726 1.434 . S
C728 C729 1.369 . S
C728 C730 1.419 . S
C728 H732 0.930 . S
C729 C728 1.369 . S
C729 C738 1.429 . S
C730 C728 1.419 . S
C730 C731 1.363 . S
C730 H733 0.929 . S
C731 C730 1.363 . S
C731 C737 1.428 . S
H732 C728 0.930 . S
H733 C730 0.929 . S
S734 N735 1.613 . S
S734 N736 1.610 . S
N735 S734 1.613 . S
N735 C738 1.350 . S
N736 S734 1.610 . S
N736 C737 1.351 . S
C737 C731 1.428 . S
C737 N736 1.351 . S
C737 C738 1.434 . S
C738 C729 1.429 . S
C738 N735 1.350 . S
C738 C737 1.434 . S
C739 C740 1.369 . S
C739 C741 1.419 . S
C739 H743 0.930 . S
C740 C739 1.369 . S
C740 C749 1.429 . S
C741 C739 1.419 . S
C741 C742 1.363 . S
C741 H744 0.929 . S
C742 C741 1.363 . S
C742 C748 1.428 . S
H743 C739 0.930 . S
H744 C741 0.929 . S
S745 N746 1.613 . S
S745 N747 1.610 . S
N746 S745 1.613 . S
N746 C749 1.350 . S
N747 S745 1.610 . S
N747 C748 1.351 . S
C748 C742 1.428 . S
C748 N747 1.351 . S
C748 C749 1.434 . S
C749 C740 1.429 . S
C749 N746 1.350 . S
C749 C748 1.434 . S
C750 C751 1.369 . S
C750 C752 1.419 . S
C750 H754 0.930 . S
C751 C750 1.369 . S
C751 C760 1.429 . S
C752 C750 1.419 . S
C752 C753 1.363 . S
C752 H755 0.929 . S
C753 C752 1.363 . S
C753 C759 1.428 . S
H754 C750 0.930 . S
H755 C752 0.929 . S
S756 N757 1.613 . S
S756 N758 1.610 . S
N757 S756 1.613 . S
N757 C760 1.350 . S
N758 S756 1.610 . S
N758 C759 1.351 . S
C759 C753 1.428 . S
C759 N758 1.351 . S
C759 C760 1.434 . S
C760 C751 1.429 . S
C760 N757 1.350 . S
C760 C759 1.434 . S
C761 C762 1.369 . S
C761 C763 1.419 . S
C761 H765 0.930 . S
C762 C761 1.369 . S
C762 C771 1.429 . S
C763 C761 1.419 . S
C763 C764 1.363 . S
C763 H766 0.929 . S
C764 C763 1.363 . S
C764 C770 1.428 . S
H765 C761 0.930 . S
H766 C763 0.929 . S
S767 N768 1.613 . S
S767 N769 1.610 . S
N768 S767 1.613 . S
N768 C771 1.350 . S
N769 S767 1.610 . S
N769 C770 1.351 . S
C770 C764 1.428 . S
C770 N769 1.351 . S
C770 C771 1.434 . S
C771 C762 1.429 . S
C771 N768 1.350 . S
C771 C770 1.434 . S
C772 C773 1.369 . S
C772 C774 1.419 . S
C772 H776 0.930 . S
C773 C772 1.369 . S
C773 C782 1.429 . S
C774 C772 1.419 . S
C774 C775 1.363 . S
C774 H777 0.929 . S
C775 C774 1.363 . S
C775 C781 1.428 . S
H776 C772 0.930 . S
H777 C774 0.929 . S
S778 N779 1.613 . S
S778 N780 1.610 . S
N779 S778 1.613 . S
N779 C782 1.350 . S
N780 S778 1.610 . S
N780 C781 1.351 . S
C781 C775 1.428 . S
C781 N780 1.351 . S
C781 C782 1.434 . S
C782 C773 1.429 . S
C782 N779 1.350 . S
C782 C781 1.434 . S
C783 C784 1.369 . S
C783 C785 1.419 . S
C783 H787 0.930 . S
C784 C783 1.369 . S
C784 C793 1.429 . S
C785 C783 1.419 . S
C785 C786 1.363 . S
C785 H788 0.929 . S
C786 C785 1.363 . S
C786 C792 1.428 . S
H787 C783 0.930 . S
H788 C785 0.929 . S
S789 N790 1.613 . S
S789 N791 1.610 . S
N790 S789 1.613 . S
N790 C793 1.350 . S
N791 S789 1.610 . S
N791 C792 1.351 . S
C792 C786 1.428 . S
C792 N791 1.351 . S
C792 C793 1.434 . S
C793 C784 1.429 . S
C793 N790 1.350 . S
C793 C792 1.434 . S
C794 C795 1.369 . S
C794 C796 1.419 . S
C794 H798 0.930 . S
C795 C794 1.369 . S
C795 C804 1.429 . S
C796 C794 1.419 . S
C796 C797 1.363 . S
C796 H799 0.929 . S
C797 C796 1.363 . S
C797 C803 1.428 . S
H798 C794 0.930 . S
H799 C796 0.929 . S
S800 N801 1.613 . S
S800 N802 1.610 . S
N801 S800 1.613 . S
N801 C804 1.350 . S
N802 S800 1.610 . S
N802 C803 1.351 . S
C803 C797 1.428 . S
C803 N802 1.351 . S
C803 C804 1.434 . S
C804 C795 1.429 . S
C804 N801 1.350 . S
C804 C803 1.434 . S
C805 C806 1.369 . S
C805 C807 1.419 . S
C805 H809 0.930 . S
C806 C805 1.369 . S
C806 C815 1.429 . S
C807 C805 1.419 . S
C807 C808 1.363 . S
C807 H810 0.929 . S
C808 C807 1.363 . S
C808 C814 1.428 . S
H809 C805 0.930 . S
H810 C807 0.929 . S
S811 N812 1.613 . S
S811 N813 1.610 . S
N812 S811 1.613 . S
N812 C815 1.350 . S
N813 S811 1.610 . S
N813 C814 1.351 . S
C814 C808 1.428 . S
C814 N813 1.351 . S
C814 C815 1.434 . S
C815 C806 1.429 . S
C815 N812 1.350 . S
C815 C814 1.434 . S
C816 C817 1.369 . S
C816 C818 1.419 . S
C816 H820 0.930 . S
C817 C816 1.369 . S
C817 C826 1.429 . S
C818 C816 1.419 . S
C818 C819 1.363 . S
C818 H821 0.929 . S
C819 C818 1.363 . S
C819 C825 1.428 . S
H820 C816 0.930 . S
H821 C818 0.929 . S
S822 N823 1.613 . S
S822 N824 1.610 . S
N823 S822 1.613 . S
N823 C826 1.350 . S
N824 S822 1.610 . S
N824 C825 1.351 . S
C825 C819 1.428 . S
C825 N824 1.351 . S
C825 C826 1.434 . S
C826 C817 1.429 . S
C826 N823 1.350 . S
C826 C825 1.434 . S
C827 C828 1.369 . S
C827 C829 1.419 . S
C827 H831 0.930 . S
C828 C827 1.369 . S
C828 C837 1.429 . S
C829 C827 1.419 . S
C829 C830 1.363 . S
C829 H832 0.929 . S
C830 C829 1.363 . S
C830 C836 1.428 . S
H831 C827 0.930 . S
H832 C829 0.929 . S
S833 N834 1.613 . S
S833 N835 1.610 . S
N834 S833 1.613 . S
N834 C837 1.350 . S
N835 S833 1.610 . S
N835 C836 1.351 . S
C836 C830 1.428 . S
C836 N835 1.351 . S
C836 C837 1.434 . S
C837 C828 1.429 . S
C837 N834 1.350 . S
C837 C836 1.434 . S
C838 C839 1.369 . S
C838 C840 1.419 . S
C838 H842 0.930 . S
C839 C838 1.369 . S
C839 C848 1.429 . S
C840 C838 1.419 . S
C840 C841 1.363 . S
C840 H843 0.929 . S
C841 C840 1.363 . S
C841 C847 1.428 . S
H842 C838 0.930 . S
H843 C840 0.929 . S
S844 N845 1.613 . S
S844 N846 1.610 . S
N845 S844 1.613 . S
N845 C848 1.350 . S
N846 S844 1.610 . S
N846 C847 1.351 . S
C847 C841 1.428 . S
C847 N846 1.351 . S
C847 C848 1.434 . S
C848 C839 1.429 . S
C848 N845 1.350 . S
C848 C847 1.434 . S
C849 C850 1.369 . S
C849 C851 1.419 1_655 S
C849 H853 0.930 . S
C850 C849 1.369 . S
C850 C859 1.429 . S
C851 C849 1.419 1_455 S
C851 C852 1.363 . S
C851 H854 0.929 . S
C852 C851 1.363 . S
C852 C858 1.428 . S
H853 C849 0.930 . S
H854 C851 0.929 . S
S855 N856 1.616 1_455 S
S855 N857 1.608 . S
N856 S855 1.616 1_655 S
N856 C859 1.350 . S
N857 S855 1.608 . S
N857 C858 1.351 . S
C858 C852 1.428 . S
C858 N857 1.351 . S
C858 C859 1.434 1_455 S
C859 C850 1.429 . S
C859 N856 1.350 . S
C859 C858 1.434 1_655 S
C860 C861 1.369 . S
C860 C862 1.419 . S
C860 H864 0.930 . S
C861 C860 1.369 . S
C861 C870 1.429 . S
C862 C860 1.419 . S
C862 C863 1.363 . S
C862 H865 0.929 . S
C863 C862 1.363 . S
C863 C869 1.428 . S
H864 C860 0.930 . S
H865 C862 0.929 . S
S866 N867 1.613 . S
S866 N868 1.610 . S
N867 S866 1.613 . S
N867 C870 1.350 . S
N868 S866 1.610 . S
N868 C869 1.351 . S
C869 C863 1.428 . S
C869 N868 1.351 . S
C869 C870 1.434 . S
C870 C861 1.429 . S
C870 N867 1.350 . S
C870 C869 1.434 . S
C871 C872 1.369 . S
C871 C873 1.419 1_455 S
C871 H875 0.930 . S
C872 C871 1.369 . S
C872 C881 1.429 . S
C873 C871 1.419 1_655 S
C873 C874 1.363 . S
C873 H876 0.929 . S
C874 C873 1.363 . S
C874 C880 1.428 . S
H875 C871 0.930 . S
H876 C873 0.929 . S
S877 N878 1.616 1_655 S
S877 N879 1.608 . S
N878 S877 1.616 1_455 S
N878 C881 1.350 . S
N879 S877 1.608 . S
N879 C880 1.351 . S
C880 C874 1.428 . S
C880 N879 1.351 . S
C880 C881 1.434 1_655 S
C881 C872 1.429 . S
C881 N878 1.350 . S
C881 C880 1.434 1_455 S
C882 C883 1.369 . S
C882 C884 1.419 . S
C882 H886 0.930 . S
C883 C882 1.369 . S
C883 C892 1.429 . S
C884 C882 1.419 . S
C884 C885 1.363 . S
C884 H887 0.929 . S
C885 C884 1.363 . S
C885 C891 1.428 . S
H886 C882 0.930 . S
H887 C884 0.929 . S
S888 N889 1.613 . S
S888 N890 1.610 . S
N889 S888 1.613 . S
N889 C892 1.350 . S
N890 S888 1.610 . S
N890 C891 1.351 . S
C891 C885 1.428 . S
C891 N890 1.351 . S
C891 C892 1.434 . S
C892 C883 1.429 . S
C892 N889 1.350 . S
C892 C891 1.434 . S
C893 C894 1.369 . S
C893 C895 1.419 . S
C893 H897 0.930 . S
C894 C893 1.369 . S
C894 C903 1.429 . S
C895 C893 1.419 . S
C895 C896 1.363 . S
C895 H898 0.929 . S
C896 C895 1.363 . S
C896 C902 1.428 . S
H897 C893 0.930 . S
H898 C895 0.929 . S
S899 N900 1.613 . S
S899 N901 1.610 . S
N900 S899 1.613 . S
N900 C903 1.350 . S
N901 S899 1.610 . S
N901 C902 1.351 . S
C902 C896 1.428 . S
C902 N901 1.351 . S
C902 C903 1.434 . S
C903 C894 1.429 . S
C903 N900 1.350 . S
C903 C902 1.434 . S
C904 C905 1.369 . S
C904 C906 1.419 . S
C904 H908 0.930 . S
C905 C904 1.369 . S
C905 C914 1.429 . S
C906 C904 1.419 . S
C906 C907 1.363 . S
C906 H909 0.929 . S
C907 C906 1.363 . S
C907 C913 1.428 . S
H908 C904 0.930 . S
H909 C906 0.929 . S
S910 N911 1.613 . S
S910 N912 1.610 . S
N911 S910 1.613 . S
N911 C914 1.350 . S
N912 S910 1.610 . S
N912 C913 1.351 . S
C913 C907 1.428 . S
C913 N912 1.351 . S
C913 C914 1.434 . S
C914 C905 1.429 . S
C914 N911 1.350 . S
C914 C913 1.434 . S
C915 C916 1.369 . S
C915 C917 1.419 . S
C915 H919 0.930 . S
C916 C915 1.369 . S
C916 C925 1.429 . S
C917 C915 1.419 . S
C917 C918 1.363 . S
C917 H920 0.929 . S
C918 C917 1.363 . S
C918 C924 1.428 . S
H919 C915 0.930 . S
H920 C917 0.929 . S
S921 N922 1.613 . S
S921 N923 1.610 . S
N922 S921 1.613 . S
N922 C925 1.350 . S
N923 S921 1.610 . S
N923 C924 1.351 . S
C924 C918 1.428 . S
C924 N923 1.351 . S
C924 C925 1.434 . S
C925 C916 1.429 . S
C925 N922 1.350 . S
C925 C924 1.434 . S
C926 C927 1.369 . S
C926 C928 1.419 . S
C926 H930 0.930 . S
C927 C926 1.369 . S
C927 C936 1.429 . S
C928 C926 1.419 . S
C928 C929 1.363 . S
C928 H931 0.929 . S
C929 C928 1.363 . S
C929 C935 1.428 . S
H930 C926 0.930 . S
H931 C928 0.929 . S
S932 N933 1.613 . S
S932 N934 1.610 . S
N933 S932 1.613 . S
N933 C936 1.350 . S
N934 S932 1.610 . S
N934 C935 1.351 . S
C935 C929 1.428 . S
C935 N934 1.351 . S
C935 C936 1.434 . S
C936 C927 1.429 . S
C936 N933 1.350 . S
C936 C935 1.434 . S
C937 C938 1.369 . S
C937 C939 1.419 . S
C937 H941 0.930 . S
C938 C937 1.369 . S
C938 C947 1.429 . S
C939 C937 1.419 . S
C939 C940 1.363 . S
C939 H942 0.929 . S
C940 C939 1.363 . S
C940 C946 1.428 . S
H941 C937 0.930 . S
H942 C939 0.929 . S
S943 N944 1.613 . S
S943 N945 1.610 . S
N944 S943 1.613 . S
N944 C947 1.350 . S
N945 S943 1.610 . S
N945 C946 1.351 . S
C946 C940 1.428 . S
C946 N945 1.351 . S
C946 C947 1.434 . S
C947 C938 1.429 . S
C947 N944 1.350 . S
C947 C946 1.434 . S
C948 C949 1.369 . S
C948 C950 1.419 1_655 S
C948 H952 0.930 . S
C949 C948 1.369 . S
C949 C958 1.429 . S
C950 C948 1.419 1_455 S
C950 C951 1.363 . S
C950 H953 0.929 . S
C951 C950 1.363 . S
C951 C957 1.428 . S
H952 C948 0.930 . S
H953 C950 0.929 . S
S954 N955 1.616 1_455 S
S954 N956 1.608 . S
N955 S954 1.616 1_655 S
N955 C958 1.350 1_554 S
N956 S954 1.608 . S
N956 C957 1.351 1_554 S
C957 C951 1.428 . S
C957 N956 1.351 1_556 S
C957 C958 1.434 1_455 S
C958 C949 1.429 . S
C958 N955 1.350 1_556 S
C958 C957 1.434 1_655 S
C959 C960 1.369 . S
C959 C961 1.419 . S
C959 H963 0.930 . S
C960 C959 1.369 . S
C960 C969 1.429 . S
C961 C959 1.419 . S
C961 C962 1.363 . S
C961 H964 0.929 . S
C962 C961 1.363 . S
C962 C968 1.428 . S
H963 C959 0.930 . S
H964 C961 0.929 . S
S965 N966 1.613 . S
S965 N967 1.610 . S
N966 S965 1.613 . S
N966 C969 1.350 . S
N967 S965 1.610 . S
N967 C968 1.351 . S
C968 C962 1.428 . S
C968 N967 1.351 . S
C968 C969 1.434 . S
C969 C960 1.429 . S
C969 N966 1.350 . S
C969 C968 1.434 . S
C970 C971 1.369 . S
C970 C972 1.419 . S
C970 H974 0.930 . S
C971 C970 1.369 . S
C971 C980 1.429 . S
C972 C970 1.419 . S
C972 C973 1.363 . S
C972 H975 0.929 . S
C973 C972 1.363 . S
C973 C979 1.428 . S
H974 C970 0.930 . S
H975 C972 0.929 . S
S976 N977 1.613 . S
S976 N978 1.610 . S
N977 S976 1.613 . S
N977 C980 1.350 . S
N978 S976 1.610 . S
N978 C979 1.351 . S
C979 C973 1.428 . S
C979 N978 1.351 . S
C979 C980 1.434 . S
C980 C971 1.429 . S
C980 N977 1.350 . S
C980 C979 1.434 . S
C981 C982 1.369 . S
C981 C983 1.419 1_455 S
C981 H985 0.930 . S
C982 C981 1.369 . S
C982 C991 1.429 . S
C983 C981 1.419 1_655 S
C983 C984 1.363 . S
C983 H986 0.929 . S
C984 C983 1.363 . S
C984 C990 1.428 . S
H985 C981 0.930 . S
H986 C983 0.929 . S
S987 N988 1.616 1_655 S
S987 N989 1.608 . S
N988 S987 1.616 1_455 S
N988 C991 1.350 . S
N989 S987 1.608 . S
N989 C990 1.351 . S
C990 C984 1.428 . S
C990 N989 1.351 . S
C990 C991 1.434 1_655 S
C991 C982 1.429 . S
C991 N988 1.350 . S
C991 C990 1.434 1_455 S
C992 C993 1.369 . S
C992 C994 1.421 . S
C992 H996 0.930 . S
C993 C992 1.369 . S
C993 C1002 1.429 1_554 S
C994 C992 1.421 . S
C994 C995 1.360 1_554 S
C994 H997 0.930 . S
C995 C994 1.360 1_556 S
C995 C1001 1.428 . S
H996 C992 0.930 . S
H997 C994 0.930 . S
S998 N999 1.613 . S
S998 N1000 1.610 . S
N999 S998 1.613 . S
N999 C1002 1.350 . S
N1000 S998 1.610 . S
N1000 C1001 1.351 . S
C1001 C995 1.428 . S
C1001 N1000 1.351 . S
C1001 C1002 1.434 . S
C1002 C993 1.429 1_556 S
C1002 N999 1.350 . S
C1002 C1001 1.434 . S
C1003 C1004 1.369 . S
C1003 C1005 1.419 . S
C1003 H1007 0.930 . S
C1004 C1003 1.369 . S
C1004 C1013 1.429 . S
C1005 C1003 1.419 . S
C1005 C1006 1.363 . S
C1005 H1008 0.929 . S
C1006 C1005 1.363 . S
C1006 C1012 1.428 . S
H1007 C1003 0.930 . S
H1008 C1005 0.929 . S
S1009 N1010 1.613 . S
S1009 N1011 1.610 . S
N1010 S1009 1.613 . S
N1010 C1013 1.350 . S
N1011 S1009 1.610 . S
N1011 C1012 1.351 . S
C1012 C1006 1.428 . S
C1012 N1011 1.351 . S
C1012 C1013 1.434 . S
C1013 C1004 1.429 . S
C1013 N1010 1.350 . S
C1013 C1012 1.434 . S
C1014 C1015 1.369 . S
C1014 C1016 1.419 . S
C1014 H1018 0.930 . S
C1015 C1014 1.369 . S
C1015 C1024 1.429 . S
C1016 C1014 1.419 . S
C1016 C1017 1.363 . S
C1016 H1019 0.929 . S
C1017 C1016 1.363 . S
C1017 C1023 1.428 . S
H1018 C1014 0.930 . S
H1019 C1016 0.929 . S
S1020 N1021 1.613 . S
S1020 N1022 1.610 . S
N1021 S1020 1.613 . S
N1021 C1024 1.350 . S
N1022 S1020 1.610 . S
N1022 C1023 1.351 . S
C1023 C1017 1.428 . S
C1023 N1022 1.351 . S
C1023 C1024 1.434 . S
C1024 C1015 1.429 . S
C1024 N1021 1.350 . S
C1024 C1023 1.434 . S
C1025 C1026 1.369 . S
C1025 C1027 1.419 . S
C1025 H1029 0.930 . S
C1026 C1025 1.369 . S
C1026 C1035 1.429 . S
C1027 C1025 1.419 . S
C1027 C1028 1.363 . S
C1027 H1030 0.929 . S
C1028 C1027 1.363 . S
C1028 C1034 1.428 . S
H1029 C1025 0.930 . S
H1030 C1027 0.929 . S
S1031 N1032 1.613 . S
S1031 N1033 1.610 . S
N1032 S1031 1.613 . S
N1032 C1035 1.350 . S
N1033 S1031 1.610 . S
N1033 C1034 1.351 . S
C1034 C1028 1.428 . S
C1034 N1033 1.351 . S
C1034 C1035 1.434 . S
C1035 C1026 1.429 . S
C1035 N1032 1.350 . S
C1035 C1034 1.434 . S
C1036 C1037 1.369 . S
C1036 C1038 1.419 . S
C1036 H1040 0.930 . S
C1037 C1036 1.369 . S
C1037 C1046 1.429 1_554 S
C1038 C1036 1.419 . S
C1038 C1039 1.363 1_554 S
C1038 H1041 0.929 . S
C1039 C1038 1.363 1_556 S
C1039 C1045 1.428 . S
H1040 C1036 0.930 . S
H1041 C1038 0.929 . S
S1042 N1043 1.613 . S
S1042 N1044 1.610 . S
N1043 S1042 1.613 . S
N1043 C1046 1.350 . S
N1044 S1042 1.610 . S
N1044 C1045 1.351 . S
C1045 C1039 1.428 . S
C1045 N1044 1.351 . S
C1045 C1046 1.434 . S
C1046 C1037 1.429 1_556 S
C1046 N1043 1.350 . S
C1046 C1045 1.434 . S
C1047 C1048 1.369 . S
C1047 C1049 1.419 . S
C1047 H1051 0.930 . S
C1048 C1047 1.369 . S
C1048 C1057 1.429 . S
C1049 C1047 1.419 . S
C1049 C1050 1.363 . S
C1049 H1052 0.929 . S
C1050 C1049 1.363 . S
C1050 C1056 1.428 . S
H1051 C1047 0.930 . S
H1052 C1049 0.929 . S
S1053 N1054 1.613 . S
S1053 N1055 1.610 . S
N1054 S1053 1.613 . S
N1054 C1057 1.350 . S
N1055 S1053 1.610 . S
N1055 C1056 1.351 . S
C1056 C1050 1.428 . S
C1056 N1055 1.351 . S
C1056 C1057 1.434 . S
C1057 C1048 1.429 . S
C1057 N1054 1.350 . S
C1057 C1056 1.434 . S
C1058 C1059 1.369 . S
C1058 C1060 1.419 . S
C1058 H1062 0.930 . S
C1059 C1058 1.369 . S
C1059 C1068 1.429 . S
C1060 C1058 1.419 . S
C1060 C1061 1.363 . S
C1060 H1063 0.929 . S
C1061 C1060 1.363 . S
C1061 C1067 1.428 . S
H1062 C1058 0.930 . S
H1063 C1060 0.929 . S
S1064 N1065 1.613 . S
S1064 N1066 1.610 . S
N1065 S1064 1.613 . S
N1065 C1068 1.350 . S
N1066 S1064 1.610 . S
N1066 C1067 1.351 . S
C1067 C1061 1.428 . S
C1067 N1066 1.351 . S
C1067 C1068 1.434 . S
C1068 C1059 1.429 . S
C1068 N1065 1.350 . S
C1068 C1067 1.434 . S
C1069 C1070 1.369 . S
C1069 C1071 1.419 . S
C1069 H1073 0.930 . S
C1070 C1069 1.369 . S
C1070 C1079 1.429 . S
C1071 C1069 1.419 . S
C1071 C1072 1.363 . S
C1071 H1074 0.929 . S
C1072 C1071 1.363 . S
C1072 C1078 1.428 . S
H1073 C1069 0.930 . S
H1074 C1071 0.929 . S
S1075 N1076 1.613 . S
S1075 N1077 1.610 . S
N1076 S1075 1.613 . S
N1076 C1079 1.350 . S
N1077 S1075 1.610 . S
N1077 C1078 1.351 . S
C1078 C1072 1.428 . S
C1078 N1077 1.351 . S
C1078 C1079 1.434 . S
C1079 C1070 1.429 . S
C1079 N1076 1.350 . S
C1079 C1078 1.434 . S
C1080 C1081 1.369 1_545 S
C1080 C1082 1.419 . S
C1080 H1084 0.930 . S
C1081 C1080 1.369 1_565 S
C1081 C1090 1.429 . S
C1082 C1080 1.419 . S
C1082 C1083 1.363 . S
C1082 H1085 0.929 . S
C1083 C1082 1.363 . S
C1083 C1089 1.428 1_545 S
H1084 C1080 0.930 . S
H1085 C1082 0.929 . S
S1086 N1087 1.613 . S
S1086 N1088 1.610 . S
N1087 S1086 1.613 . S
N1087 C1090 1.350 . S
N1088 S1086 1.610 . S
N1088 C1089 1.351 . S
C1089 C1083 1.428 1_565 S
C1089 N1088 1.351 . S
C1089 C1090 1.434 . S
C1090 C1081 1.429 . S
C1090 N1087 1.350 . S
C1090 C1089 1.434 . S
C1091 C1092 1.369 . S
C1091 C1093 1.419 . S
C1091 H1095 0.930 . S
C1092 C1091 1.369 . S
C1092 C1101 1.429 . S
C1093 C1091 1.419 . S
C1093 C1094 1.363 . S
C1093 H1096 0.929 . S
C1094 C1093 1.363 . S
C1094 C1100 1.428 . S
H1095 C1091 0.930 . S
H1096 C1093 0.929 . S
S1097 N1098 1.613 . S
S1097 N1099 1.610 . S
N1098 S1097 1.613 . S
N1098 C1101 1.350 . S
N1099 S1097 1.610 . S
N1099 C1100 1.351 . S
C1100 C1094 1.428 . S
C1100 N1099 1.351 . S
C1100 C1101 1.434 . S
C1101 C1092 1.429 . S
C1101 N1098 1.350 . S
C1101 C1100 1.434 . S
C1102 C1103 1.369 1_545 S
C1102 C1104 1.419 . S
C1102 H1106 0.930 . S
C1103 C1102 1.369 1_565 S
C1103 C1112 1.429 1_554 S
C1104 C1102 1.419 . S
C1104 C1105 1.363 1_554 S
C1104 H1107 0.929 . S
C1105 C1104 1.363 1_556 S
C1105 C1111 1.428 1_545 S
H1106 C1102 0.930 . S
H1107 C1104 0.929 . S
S1108 N1109 1.613 . S
S1108 N1110 1.610 . S
N1109 S1108 1.613 . S
N1109 C1112 1.350 . S
N1110 S1108 1.610 . S
N1110 C1111 1.351 . S
C1111 C1105 1.428 1_565 S
C1111 N1110 1.351 . S
C1111 C1112 1.434 . S
C1112 C1103 1.429 1_556 S
C1112 N1109 1.350 . S
C1112 C1111 1.434 . S
C1113 C1114 1.369 . S
C1113 C1115 1.419 . S
C1113 H1117 0.930 . S
C1114 C1113 1.369 . S
C1114 C1123 1.429 . S
C1115 C1113 1.419 . S
C1115 C1116 1.363 . S
C1115 H1118 0.929 . S
C1116 C1115 1.363 . S
C1116 C1122 1.428 . S
H1117 C1113 0.930 . S
H1118 C1115 0.929 . S
S1119 N1120 1.613 . S
S1119 N1121 1.610 . S
N1120 S1119 1.613 . S
N1120 C1123 1.350 . S
N1121 S1119 1.610 . S
N1121 C1122 1.351 . S
C1122 C1116 1.428 . S
C1122 N1121 1.351 . S
C1122 C1123 1.434 . S
C1123 C1114 1.429 . S
C1123 N1120 1.350 . S
C1123 C1122 1.434 . S
C1124 C1125 1.369 . S
C1124 C1126 1.419 1_565 S
C1124 H1128 0.930 . S
C1125 C1124 1.369 . S
C1125 C1134 1.429 1_565 S
C1126 C1124 1.419 1_545 S
C1126 C1127 1.363 . S
C1126 H1129 0.929 . S
C1127 C1126 1.363 . S
C1127 C1133 1.428 . S
H1128 C1124 0.930 . S
H1129 C1126 0.929 . S
S1130 N1131 1.613 . S
S1130 N1132 1.610 . S
N1131 S1130 1.613 . S
N1131 C1134 1.350 . S
N1132 S1130 1.610 . S
N1132 C1133 1.351 . S
C1133 C1127 1.428 . S
C1133 N1132 1.351 . S
C1133 C1134 1.433 . S
C1134 C1125 1.429 1_545 S
C1134 N1131 1.350 . S
C1134 C1133 1.433 . S
C1135 C1136 1.369 . S
C1135 C1137 1.419 . S
C1135 H1139 0.930 . S
C1136 C1135 1.369 . S
C1136 C1145 1.429 . S
C1137 C1135 1.419 . S
C1137 C1138 1.363 . S
C1137 H1140 0.929 . S
C1138 C1137 1.363 . S
C1138 C1144 1.428 . S
H1139 C1135 0.930 . S
H1140 C1137 0.929 . S
S1141 N1142 1.613 . S
S1141 N1143 1.610 . S
N1142 S1141 1.613 . S
N1142 C1145 1.350 . S
N1143 S1141 1.610 . S
N1143 C1144 1.351 . S
C1144 C1138 1.428 . S
C1144 N1143 1.351 . S
C1144 C1145 1.434 . S
C1145 C1136 1.429 . S
C1145 N1142 1.350 . S
C1145 C1144 1.434 . S
C1146 C1147 1.369 1_554 S
C1146 C1148 1.419 . S
C1146 H1150 0.930 . S
C1147 C1146 1.369 1_556 S
C1147 C1156 1.429 1_545 S
C1148 C1146 1.419 . S
C1148 C1149 1.363 1_545 S
C1148 H1151 0.929 . S
C1149 C1148 1.363 1_565 S
C1149 C1155 1.428 1_554 S
H1150 C1146 0.930 . S
H1151 C1148 0.929 . S
S1152 N1153 1.613 . S
S1152 N1154 1.610 . S
N1153 S1152 1.613 . S
N1153 C1156 1.350 . S
N1154 S1152 1.610 . S
N1154 C1155 1.351 . S
C1155 C1149 1.428 1_556 S
C1155 N1154 1.351 . S
C1155 C1156 1.434 . S
C1156 C1147 1.429 1_565 S
C1156 N1153 1.350 . S
C1156 C1155 1.434 . S
C1157 C1158 1.369 . S
C1157 C1159 1.419 . S
C1157 H1161 0.930 . S
C1158 C1157 1.369 . S
C1158 C1167 1.429 . S
C1159 C1157 1.419 . S
C1159 C1160 1.363 . S
C1159 H1162 0.929 . S
C1160 C1159 1.363 . S
C1160 C1166 1.428 . S
H1161 C1157 0.930 . S
H1162 C1159 0.929 . S
S1163 N1164 1.613 . S
S1163 N1165 1.610 . S
N1164 S1163 1.613 . S
N1164 C1167 1.350 . S
N1165 S1163 1.610 . S
N1165 C1166 1.351 . S
C1166 C1160 1.428 . S
C1166 N1165 1.351 . S
C1166 C1167 1.434 . S
C1167 C1158 1.429 . S
C1167 N1164 1.350 . S
C1167 C1166 1.434 . S
C641 C6 1.904 . S
C643 C15 1.897 . S
C652 C55 1.898 1_556 S
C654 C46 1.900 . S
C663 C95 1.542 . S
C665 C86 1.550 . S
C674 C126 1.542 . S
C676 C135 1.550 . S
C685 C166 1.905 . S
C687 C175 1.895 . S
C696 C215 1.544 . S
C698 C206 1.548 . S
C707 C255 1.542 . S
C709 C246 1.550 . S
C718 C295 1.904 1_554 S
C720 C286 1.896 . S
C729 C335 1.902 . S
C731 C326 1.897 . S
C740 C375 1.905 . S
C742 C366 1.895 1_554 S
C751 C415 1.542 . S
C753 C406 1.550 . S
C762 C455 1.549 . S
C764 C446 1.545 . S
C773 C495 1.905 . S
C775 C486 1.895 . S
C784 C535 1.545 . S
C786 C526 1.548 . S
C795 C566 1.544 . S
C797 C575 1.548 . S
C806 C606 1.897 1_556 S
C808 C615 1.902 . S
C817 C9 1.648 . S
C819 C459 1.721 . S
C828 C50 1.734 . S
C830 C619 1.733 . S
C839 C90 1.719 . S
C841 C378 1.649 . S
C850 C129 1.712 . S
C852 C538 1.713 . S
C861 C169 1.658 . S
C863 C539 1.725 . S
C872 C458 1.712 . S
C874 C209 1.713 . S
C883 C250 1.726 . S
C885 C618 1.656 . S
C894 C290 1.731 . S
C896 C379 1.731 . S
C905 C130 1.724 . S
C907 C338 1.653 . S
C916 C49 1.655 . S
C918 C419 1.724 . S
C927 C498 1.658 . S
C929 C210 1.724 . S
C938 C289 1.647 . S
C940 C579 1.719 . S
C949 C339 1.734 . S
C951 C170 1.733 . S
C960 C249 1.714 . S
C962 C418 1.715 . S
C971 C89 1.712 . S
C973 C578 1.713 . S
C982 C10 1.728 . S
C984 C499 1.729 . S
C993 C18 1.514 . S
C995 C178 1.516 . S
C1004 C59 1.823 . S
C1006 C218 1.822 . S
C1015 C99 2.090 . S
C1017 C259 2.094 . S
C1026 C138 1.826 . S
C1028 C299 1.819 . S
C1037 C489 1.514 . S
C1039 C329 1.516 . S
C1048 C529 1.825 . S
C1050 C370 1.819 . S
C1059 C410 2.095 . S
C1061 C570 2.091 . S
C1070 C610 1.821 . S
C1072 C449 1.824 . S
C1081 C58 1.513 . S
C1083 C298 1.515 . S
C1092 C179 1.819 . S
C1094 C98 1.825 . S
C1103 C219 2.090 . S
C1105 C139 2.093 . S
C1114 C19 1.822 . S
C1116 C258 1.822 . S
C1125 C609 1.517 . S
C1127 C369 1.515 . S
C1136 C490 1.823 . S
C1138 C409 1.822 . S
C1147 C530 2.095 . S
C1149 C450 2.091 . S
C1158 C569 1.823 . S
C1160 C330 1.820 . S
