# Generated by pormake.
# Topology lll, (7)-cn, num edge types: 1
# Building blocks:
#     Node 0, Type 0, BuildingBlock: HICVOG_clean_sbu_0, # of connection points: 7
#     Node 1, Type 0, BuildingBlock: HICVOG_clean_sbu_0, # of connection points: 7
#     Node 2, Type 0, BuildingBlock: HICVOG_clean_sbu_0, # of connection points: 7
#     Node 3, Type 0, BuildingBlock: HICVOG_clean_sbu_0, # of connection points: 7
#     Node 4, Type 0, BuildingBlock: HICVOG_clean_sbu_0, # of connection points: 7
#     Node 5, Type 0, BuildingBlock: HICVOG_clean_sbu_0, # of connection points: 7
#     Node 6, Type 0, BuildingBlock: HICVOG_clean_sbu_0, # of connection points: 7
#     Node 7, Type 0, BuildingBlock: HICVOG_clean_sbu_0, # of connection points: 7
#     Node 8, Type 0, BuildingBlock: HICVOG_clean_sbu_0, # of connection points: 7
#     Node 9, Type 0, BuildingBlock: HICVOG_clean_sbu_0, # of connection points: 7
#     Node 10, Type 0, BuildingBlock: HICVOG_clean_sbu_0, # of connection points: 7
#     Node 11, Type 0, BuildingBlock: HICVOG_clean_sbu_0, # of connection points: 7
#     Node 12, Type 0, BuildingBlock: HICVOG_clean_sbu_0, # of connection points: 7
#     Node 13, Type 0, BuildingBlock: HICVOG_clean_sbu_0, # of connection points: 7
#     Node 14, Type 0, BuildingBlock: HICVOG_clean_sbu_0, # of connection points: 7
#     Node 15, Type 0, BuildingBlock: HICVOG_clean_sbu_0, # of connection points: 7
#     Edge 16, Type (0, 0), None
#     Edge 17, Type (0, 0), None
#     Edge 18, Type (0, 0), None
#     Edge 19, Type (0, 0), None
#     Edge 20, Type (0, 0), None
#     Edge 21, Type (0, 0), None
#     Edge 22, Type (0, 0), None
#     Edge 23, Type (0, 0), None
#     Edge 24, Type (0, 0), None
#     Edge 25, Type (0, 0), None
#     Edge 26, Type (0, 0), None
#     Edge 27, Type (0, 0), None
#     Edge 28, Type (0, 0), None
#     Edge 29, Type (0, 0), None
#     Edge 30, Type (0, 0), None
#     Edge 31, Type (0, 0), None
#     Edge 32, Type (0, 0), None
#     Edge 33, Type (0, 0), None
#     Edge 34, Type (0, 0), None
#     Edge 35, Type (0, 0), None
#     Edge 36, Type (0, 0), None
#     Edge 37, Type (0, 0), None
#     Edge 38, Type (0, 0), None
#     Edge 39, Type (0, 0), None
#     Edge 40, Type (0, 0), None
#     Edge 41, Type (0, 0), None
#     Edge 42, Type (0, 0), None
#     Edge 43, Type (0, 0), None
#     Edge 44, Type (0, 0), None
#     Edge 45, Type (0, 0), None
#     Edge 46, Type (0, 0), None
#     Edge 47, Type (0, 0), None
#     Edge 48, Type (0, 0), None
#     Edge 49, Type (0, 0), None
#     Edge 50, Type (0, 0), None
#     Edge 51, Type (0, 0), None
#     Edge 52, Type (0, 0), None
#     Edge 53, Type (0, 0), None
#     Edge 54, Type (0, 0), None
#     Edge 55, Type (0, 0), None
#     Edge 56, Type (0, 0), None
#     Edge 57, Type (0, 0), None
#     Edge 58, Type (0, 0), None
#     Edge 59, Type (0, 0), None
#     Edge 60, Type (0, 0), None
#     Edge 61, Type (0, 0), None
#     Edge 62, Type (0, 0), None
#     Edge 63, Type (0, 0), None
#     Edge 64, Type (0, 0), None
#     Edge 65, Type (0, 0), None
#     Edge 66, Type (0, 0), None
#     Edge 67, Type (0, 0), None
#     Edge 68, Type (0, 0), None
#     Edge 69, Type (0, 0), None
#     Edge 70, Type (0, 0), None
#     Edge 71, Type (0, 0), None
# Relax obj value: 0.900
# Max RMSD: 0.234
# Mean RMSD: 0.234
data_MOF--net-lll--node1-HICVOG_clean_sbu_0--edge1-none
_symmetry_space_group_name_H-M    P1
_symmetry_Int_Tables_number       1
_symmetry_cell_setting            triclinic
loop_
_symmetry_equiv_pos_as_xyz
'x, y, z'
_cell_length_a     16.797236
_cell_length_b     16.71131
_cell_length_c     21.08439
_cell_angle_alpha  89.482935
_cell_angle_beta   90.325543
_cell_angle_gamma 89.610456
loop_
_atom_site_label
_atom_site_type_symbol
_atom_site_fract_x
_atom_site_fract_y
_atom_site_fract_z
_atom_type_partial_charge
Zn0 Zn 0.78032 0.11709 0.24907 0.0
C1 C 0.57456 0.0278 0.2532 0.0
N2 N 0.59317 0.02583 0.31573 0.0
C3 C 0.63611 0.09048 0.33093 0.0
N4 N 0.66441 0.11833 0.2726 0.0
N5 N 0.62943 0.07711 0.22543 0.0
C6 C 0.76487 0.04508 1.0065 0.0
O7 O 0.81874 0.09174 1.02972 0.0
O8 O 0.80318 0.24015 0.23864 0.0
Zn9 Zn 0.65796 0.09802 0.12923 0.0
N10 N 0.78889 1.0044 0.21735 0.0
C11 C 0.8397 0.901 0.15057 0.0
C12 C 0.81702 0.98085 0.15991 0.0
C13 C 0.77429 0.94743 0.26149 0.0
N14 N 0.84731 0.85207 0.2016 0.0
C15 C 0.82001 0.87623 0.25856 0.0
O16 O 0.75563 0.17547 0.11758 0.0
C17 C 0.82967 0.18293 0.12862 0.0
O18 O 0.85772 0.14847 0.17741 0.0
H19 H 0.82677 0.02303 0.1233 0.0
H20 H 0.75132 0.96685 0.30669 0.0
C21 C 0.49936 0.11872 1.06912 0.0
C22 C 0.42253 0.15367 1.06505 0.0
C23 C 0.44106 0.21039 0.16576 0.0
C24 C 0.52072 0.18806 0.16427 0.0
N25 N 0.54976 0.14291 0.11568 0.0
N26 N 0.39466 0.19503 0.11526 0.0
H27 H 0.52301 0.08459 1.02998 0.0
C28 C 0.75373 0.28815 0.21264 0.0
O29 O 0.68145 0.26348 0.20321 0.0
O30 O 0.69892 0.03225 1.03871 0.0
H31 H 0.55713 0.20327 0.20403 0.0
H32 H 0.85795 0.8796 0.10513 0.0
H33 H 0.41688 0.24411 0.20445 0.0
Zn34 Zn 0.90095 0.10023 0.374 0.0
C35 C 0.93828 0.11154 0.57044 0.0
N36 N 1.00644 0.07284 0.55683 0.0
C37 C 1.00124 0.04407 0.49702 0.0
N38 N 0.94482 0.09029 0.46609 0.0
N39 N 0.90481 0.12833 0.51137 0.0
C40 C 0.878 0.30632 0.49659 0.0
O41 O 0.91764 0.27605 0.54408 0.0
O42 O 0.95709 0.1746 0.2871 0.0
Zn43 Zn 0.94048 0.20322 0.43192 0.0
N44 N 0.89114 0.98469 0.3688 0.0
C45 C 0.83066 0.87153 0.41867 0.0
C46 C 0.85085 0.95238 0.41878 0.0
C47 C 0.91675 0.93645 0.32204 0.0
N48 N 0.83827 0.83058 0.36403 0.0
C49 C 0.87245 0.86574 0.31288 0.0
O50 O 0.85659 0.24442 0.36745 0.0
C51 C 0.78684 0.21962 0.36065 0.0
O52 O 0.77922 0.14546 0.37225 0.0
H53 H 0.83365 0.98939 0.45773 0.0
H54 H 0.94621 0.9644 0.28206 0.0
C55 C 0.08196 0.22742 0.48041 0.0
C56 C 0.13444 0.28865 0.49403 0.0
C57 C 0.15868 0.30669 0.38559 0.0
C58 C 0.09831 0.25206 0.37223 0.0
N59 N 0.05753 0.21602 0.4204 0.0
N60 N 0.17208 0.3279 0.44653 0.0
H61 H 0.04614 0.20488 0.51819 0.0
C62 C 0.9676 0.24904 0.26565 0.0
O63 O 0.95507 0.31007 0.30308 0.0
O64 O 0.92031 0.31741 0.44938 0.0
H65 H 0.08827 0.23766 0.32401 0.0
H66 H 0.80144 0.84407 0.45858 0.0
H67 H 0.19086 0.33561 0.34765 0.0
Zn68 Zn 0.91018 0.41766 0.62571 0.0
C69 C 0.906 0.46757 0.81797 0.0
N70 N 0.94272 0.5365 0.80403 0.0
C71 C 0.97138 0.53131 0.74395 0.0
N72 N 0.92808 0.4735 0.71323 0.0
N73 N 0.88898 0.43475 0.75868 0.0
C74 C 0.71594 0.38703 0.75967 0.0
O75 O 0.75075 0.42936 0.80264 0.0
O76 O 0.84227 0.46037 0.53042 0.0
Zn77 Zn 0.79902 0.46162 0.68669 0.0
N78 N 1.01779 0.38414 0.61448 0.0
C79 C 0.11703 0.30344 0.66475 0.0
C80 C 0.04876 0.34989 0.66811 0.0
C81 C 0.0553 0.37773 0.55829 0.0
N82 N 0.14883 0.28814 0.60735 0.0
C83 C 0.12101 0.3257 0.55425 0.0
O84 O 0.76482 0.38184 0.61954 0.0
C85 C 0.78931 0.31107 0.62085 0.0
O86 O 0.8588 0.3023 0.64275 0.0
H87 H 0.01816 0.3538 0.7128 0.0
H88 H 0.02732 0.40245 0.51599 0.0
C89 C 0.78439 0.61275 0.71728 0.0
C90 C 0.71109 0.63857 0.74018 0.0
C91 C 0.65657 0.62833 0.63783 0.0
C92 C 0.7289 0.59683 0.61748 0.0
N93 N 0.78632 0.57658 0.66066 0.0
N94 N 0.64789 0.64524 0.69995 0.0
H95 H 0.83006 0.59822 0.75082 0.0
C96 C 0.77077 0.47181 0.50446 0.0
O97 O 0.70777 0.4705 0.54002 0.0
O98 O 0.69159 0.42839 0.71404 0.0
H99 H 0.74156 0.59776 0.56772 0.0
H100 H 0.14236 0.27754 0.70702 0.0
H101 H 0.60816 0.63887 0.60475 0.0
Zn102 Zn 0.62436 0.40572 0.88253 0.0
C103 C 0.56458 0.40953 1.07108 0.0
N104 N 0.49609 0.44378 1.05174 0.0
C105 C 0.50866 0.47447 0.99288 0.0
N106 N 0.57139 0.43235 0.9679 0.0
N107 N 0.60678 0.395 1.01607 0.0
C108 C 0.67531 0.24613 1.03398 0.0
O109 O 0.6495 0.27214 1.08816 0.0
O110 O 0.56808 0.34501 0.79208 0.0
Zn111 Zn 0.58807 0.30268 0.94948 0.0
N112 N 0.65792 0.51338 0.87231 0.0
C113 C 0.75522 0.60563 0.90762 0.0
C114 C 0.70871 0.53862 0.91849 0.0
C115 C 0.64551 0.55633 0.81887 0.0
N116 N 0.75183 0.64154 0.85004 0.0
C117 C 0.69756 0.61901 0.8057 0.0
O118 O 0.66198 0.24658 0.88386 0.0
C119 C 0.73146 0.2717 0.87587 0.0
O120 O 0.74017 0.34419 0.8909 0.0
H121 H 0.71722 0.50375 0.96138 0.0
H122 H 0.60613 0.53281 0.78281 0.0
C123 C 0.4548 0.26067 0.99628 0.0
C124 C 0.40726 0.19431 1.00596 0.0
C125 C 0.37227 0.19598 0.89865 0.0
C126 C 0.43135 0.25323 0.88762 0.0
N127 N 0.47487 0.28098 0.93722 0.0
N128 N 0.36545 0.16265 0.95731 0.0
H129 H 0.49115 0.28201 1.03474 0.0
C130 C 0.55602 0.27273 0.76908 0.0
O131 O 0.55838 0.211 0.8072 0.0
O132 O 0.62447 0.2135 0.9992 0.0
H133 H 0.4395 0.27618 0.84076 0.0
H134 H 0.79788 0.62539 0.94223 0.0
H135 H 0.33621 0.17486 0.86022 0.0
Zn136 Zn 0.69602 0.43241 0.26334 0.0
C137 C 0.53392 0.50217 0.21256 0.0
N138 N 0.56513 0.51361 0.15396 0.0
C139 C 0.59808 0.44384 0.13643 0.0
N140 N 0.61214 0.40154 0.19214 0.0
N141 N 0.57407 0.43759 0.23913 0.0
C142 C 0.75179 0.46507 0.43369 0.0
O143 O 0.81228 0.46224 0.3946 0.0
O144 O 0.79924 0.41805 0.22562 0.0
Zn145 Zn 0.60026 0.39147 0.33005 0.0
N146 N 0.70514 0.54827 0.2766 0.0
C147 C 0.78105 0.63938 0.33864 0.0
C148 C 0.71825 0.58501 0.33272 0.0
C149 C 0.7425 0.57486 0.22427 0.0
N150 N 0.82881 0.65362 0.28812 0.0
C151 C 0.81051 0.62161 0.23108 0.0
O152 O 0.64991 0.2726 0.33143 0.0
C153 C 0.72283 0.28316 0.34373 0.0
O154 O 0.74674 0.353 0.33117 0.0
H155 H 0.68004 0.57385 0.37219 0.0
H156 H 0.73107 0.54514 0.17975 0.0
C157 C 0.44414 0.41586 0.38284 0.0
C158 C 0.38173 0.37679 0.4144 0.0
C159 C 0.38508 0.27704 0.33584 0.0
C160 C 0.46211 0.30139 0.32079 0.0
N161 N 0.49175 0.36861 0.34776 0.0
N162 N 0.34762 0.31337 0.38482 0.0
H163 H 0.4702 0.46944 0.40259 0.0
C164 C 0.77992 0.36554 0.18735 0.0
O165 O 0.7492 0.39129 0.13391 0.0
O166 O 0.67912 0.4456 0.41355 0.0
H167 H 0.49893 0.26638 0.28978 0.0
H168 H 0.79275 0.66797 0.38341 0.0
H169 H 0.35923 0.22504 0.31399 0.0
Zn170 Zn 0.63109 0.12135 0.58932 0.0
C171 C 0.59892 0.13946 0.39046 0.0
N172 N 0.52485 0.11477 0.40446 0.0
C173 C 0.5266 0.08247 0.46421 0.0
N174 N 0.59181 0.11399 0.4943 0.0
N175 N 0.63375 0.15208 0.44963 0.0
C176 C 0.79701 0.27474 0.48544 0.0
O177 O 0.78244 0.19859 0.49065 0.0
O178 O 0.57521 0.18357 0.67652 0.0
Zn179 Zn 0.63932 0.2609 0.49577 0.0
N180 N 0.66045 1.01238 0.5991 0.0
C181 C 0.767 0.92276 0.57817 0.0
C182 C 0.72357 0.99145 0.56288 0.0
C183 C 0.6336 0.96399 0.64534 0.0
N184 N 0.74877 0.88192 0.63184 0.0
C185 C 0.68518 0.90282 0.66788 0.0
O186 O 0.66233 0.26473 0.58815 0.0
C187 C 0.73086 0.24533 0.60647 0.0
O188 O 0.74614 0.17145 0.60364 0.0
H189 H 0.74308 0.03163 0.52588 0.0
H190 H 0.58494 0.98576 0.67394 0.0
C191 C 0.47016 0.30308 0.48207 0.0
C192 C 0.40911 0.3618 0.47904 0.0
C193 C 0.48066 0.43879 0.55286 0.0
C194 C 0.54674 0.38947 0.54378 0.0
N195 N 0.54191 0.32466 0.50523 0.0
N196 N 0.41475 0.42671 0.51716 0.0
H197 H 0.46715 0.25016 0.45319 0.0
C198 C 0.55186 0.25348 0.6984 0.0
O199 O 0.53954 0.31303 0.65915 0.0
O200 O 0.73779 0.31917 0.47419 0.0
H201 H 0.59942 0.39956 0.5712 0.0
H202 H 0.82013 0.90725 0.55249 0.0
H203 H 0.48374 0.48936 0.58444 0.0
Zn204 Zn 0.77532 0.1372 0.74195 0.0
C205 C 0.9629 1.01025 0.70645 0.0
N206 N 0.93005 1.00541 0.64789 0.0
C207 C 0.89511 0.0763 0.63298 0.0
N208 N 0.88243 0.114 0.69151 0.0
N209 N 0.92432 0.07321 0.73579 0.0
C210 C 0.78316 0.02164 0.93891 0.0
O211 O 0.72843 0.98688 0.90492 0.0
O212 O 0.71439 0.24595 0.73171 0.0
Zn213 Zn 0.91978 0.10611 0.83132 0.0
N214 N 0.71541 0.04117 0.75793 0.0
C215 C 0.60895 0.96866 0.80518 0.0
C216 C 0.64813 0.04104 0.79383 0.0
C217 C 0.75008 0.97017 0.74465 0.0
N218 N 0.63237 0.90316 0.77241 0.0
C219 C 0.69858 0.90597 0.73566 0.0
O220 O 0.87258 0.22512 0.85274 0.0
C221 C 0.79774 0.21251 0.85742 0.0
O222 O 0.77621 0.1475 0.83472 0.0
H223 H 0.62942 0.09402 0.81757 0.0
H224 H 0.80695 0.97047 0.72146 0.0
C225 C 0.07636 0.09565 0.8946 0.0
C226 C 0.1495 0.13617 0.8999 0.0
C227 C 0.15423 0.14865 0.78936 0.0
C228 C 0.07272 0.13686 0.78769 0.0
N229 N 0.03451 0.10898 0.8405 0.0
N230 N 0.1911 0.15044 0.84626 0.0
H231 H 0.04352 0.08075 0.93718 0.0
C232 C 0.75318 0.30817 0.74715 0.0
O233 O 0.82955 0.29968 0.75661 0.0
O234 O 0.84439 0.05516 0.91131 0.0
H235 H 0.04092 0.15327 0.74499 0.0
H236 H 0.55935 0.96492 0.83727 0.0
H237 H 0.18563 0.16621 0.74735 0.0
Zn238 Zn 0.94098 0.40854 1.08319 0.0
C239 C 0.94594 0.42365 0.87933 0.0
N240 N 1.01777 0.45462 0.89375 0.0
C241 C 0.0182 0.47749 0.95543 0.0
N242 N 0.95856 0.43551 0.98453 0.0
N243 N 0.91258 0.40456 0.93822 0.0
C244 C 0.7465 0.28545 1.00716 0.0
O245 O 0.75692 0.36264 1.01404 0.0
O246 O 0.97987 0.34431 0.17533 0.0
Zn247 Zn 0.91825 0.29074 0.96749 0.0
N248 N 0.90256 0.51721 0.10618 0.0
C249 C 0.86183 0.64765 1.0697 0.0
C250 C 0.88175 0.56816 1.05765 0.0
C251 C 0.90094 0.54416 0.16665 0.0
N252 N 0.85086 0.67058 0.13025 0.0
C253 C 0.86636 0.61956 0.17913 0.0
O254 O 0.92195 0.22053 1.0482 0.0
C255 C 0.87801 0.24337 1.09245 0.0
O256 O 0.86128 0.31748 1.09302 0.0
H257 H 0.87931 0.54837 1.0095 0.0
H258 H 0.91593 0.50348 0.20507 0.0
C259 C 0.07281 0.25371 0.92696 0.0
C260 C 0.14048 0.20604 0.93914 0.0
C261 C 0.14641 0.25646 1.04209 0.0
C262 C 0.07153 0.29136 1.03301 0.0
N263 N 0.03306 0.28173 0.97674 0.0
N264 N 0.17709 0.20954 0.99621 0.0
H265 H 0.04173 0.25194 0.88195 0.0
C266 C 0.99215 0.27159 0.19813 0.0
O267 O 1.01288 0.21399 0.15989 0.0
O268 O 0.80298 0.24451 0.98271 0.0
H269 H 0.04189 0.31921 1.07183 0.0
H270 H 0.8482 0.68893 1.03135 0.0
H271 H 0.17396 0.25616 1.08807 0.0
Zn272 Zn 0.11498 0.64441 0.62348 0.0
C273 C 0.11743 0.60884 0.82204 0.0
N274 N 0.08956 0.53634 0.80595 0.0
C275 C 0.06281 0.541 0.74482 0.0
N276 N 0.10238 0.60337 0.71687 0.0
N277 N 0.12882 0.64754 0.76494 0.0
C278 C 0.34086 0.66347 0.72145 0.0
O279 O 0.3968 0.64859 0.68027 0.0
O280 O 0.18169 0.58555 0.53483 0.0
Zn281 Zn 0.2039 0.60328 0.69387 0.0
N282 N 1.0054 0.66931 0.61675 0.0
C283 C 0.90627 0.76812 0.63333 0.0
C284 C 0.98299 0.73932 0.64379 0.0
C285 C 0.95046 0.62206 0.58961 0.0
N286 N 0.86134 0.73219 0.58813 0.0
C287 C 0.88641 0.66298 0.56043 0.0
O288 O 0.25566 0.67552 0.61644 0.0
C289 C 0.2346 0.74656 0.60305 0.0
O290 O 0.16299 0.76081 0.61589 0.0
H291 H 0.0254 0.77391 0.67025 0.0
H292 H 0.97038 0.56462 0.57212 0.0
C293 C 0.23496 0.45364 0.73365 0.0
C294 C 0.29866 0.39989 0.73163 0.0
C295 C 0.2837 0.39074 0.62161 0.0
C296 C 0.22401 0.44969 0.62374 0.0
N297 N 0.20615 0.48552 0.67934 0.0
N298 N 0.32313 0.36971 0.67559 0.0
H299 H 0.2231 0.48412 0.77757 0.0
C300 C 0.25362 0.56525 0.51406 0.0
O301 O 0.31513 0.56859 0.55257 0.0
O302 O 0.30272 0.60444 0.74161 0.0
H303 H 0.18968 0.46265 0.58238 0.0
H304 H 0.88723 0.82335 0.65481 0.0
H305 H 0.29768 0.36166 0.57755 0.0
Zn306 Zn 0.40955 0.61773 0.86696 0.0
C307 C 0.42576 0.62 1.06937 0.0
N308 N 0.49929 0.59093 1.05763 0.0
C309 C 0.50113 0.56698 0.9958 0.0
N310 N 0.44388 0.61046 0.96384 0.0
N311 N 0.39498 0.63694 1.00931 0.0
C312 C 0.36889 0.81678 0.9894 0.0
O313 O 0.40845 0.78834 1.03738 0.0
O314 O 0.46916 0.69831 0.78199 0.0
Zn315 Zn 0.44159 0.7086 0.93253 0.0
N316 N 0.39283 0.50398 0.8528 0.0
C317 C 0.31894 0.39601 0.89753 0.0
C318 C 0.35679 0.46892 0.90368 0.0
C319 C 0.39511 0.46623 0.79625 0.0
N320 N 0.31192 0.36409 0.83922 0.0
C321 C 0.34742 0.39788 0.78797 0.0
O322 O 0.37027 0.75434 0.86138 0.0
C323 C 0.29971 0.7319 0.85475 0.0
O324 O 0.28834 0.65847 0.86517 0.0
H325 H 0.35172 0.49965 0.9479 0.0
H326 H 0.41806 0.4982 0.75542 0.0
C327 C 0.58055 0.75204 0.98767 0.0
C328 C 0.6375 0.81222 0.98992 0.0
C329 C 0.66856 0.78911 0.8837 0.0
C330 C 0.60279 0.73853 0.87934 0.0
N331 N 0.5576 0.72371 0.93111 0.0
N332 N 0.68211 0.82884 0.93834 0.0
H333 H 0.54402 0.74029 1.02855 0.0
C334 C 0.48406 0.77284 0.76249 0.0
O335 O 0.48225 0.83 0.8044 0.0
O336 O 0.41166 0.8236 0.94211 0.0
H337 H 0.58784 0.71355 0.83493 0.0
H338 H 0.28924 0.36843 0.93742 0.0
H339 H 0.70529 0.8002 0.84284 0.0
Zn340 Zn 0.29783 0.96961 0.19012 0.0
C341 C 0.48199 0.03202 0.24426 0.0
N342 N 0.44786 0.0499 0.30083 0.0
C343 C 0.40179 0.98763 0.31786 0.0
N344 N 0.38589 0.94836 0.26116 0.0
N345 N 0.43409 0.97529 0.21604 0.0
C346 C 0.26896 0.97914 1.00614 0.0
O347 O 0.20607 0.97102 1.0413 0.0
O348 O 0.1914 0.9452 0.22053 0.0
Zn349 Zn 0.4121 0.92331 0.12592 0.0
N350 N 0.291 0.08284 0.16302 0.0
C351 C 0.15937 0.10584 0.12649 0.0
C352 C 0.24037 0.0981 0.11413 0.0
C353 C 0.27196 0.11257 0.22015 0.0
N354 N 0.1362 0.1149 0.18731 0.0
C355 C 0.19104 0.12163 0.23449 0.0
O356 O 0.36051 0.80548 0.14007 0.0
C357 C 0.28967 0.81549 0.12018 0.0
O358 O 0.26454 0.88638 0.12312 0.0
H359 H 0.2627 0.10583 1.06689 0.0
H360 H 0.31486 0.10607 0.25793 0.0
C361 C 0.55516 0.90228 1.04969 0.0
C362 C 0.63092 0.86707 1.04195 0.0
C363 C 0.64823 0.86341 0.15243 0.0
C364 C 0.56838 0.88263 0.15978 0.0
N365 N 0.52308 0.90285 0.10826 0.0
N366 N 0.67679 0.85132 1.09356 0.0
H367 H 0.51699 0.91413 1.00909 0.0
C368 C 0.21206 0.89772 0.26348 0.0
O369 O 0.24784 0.93175 0.31131 0.0
O370 O 0.34108 0.97052 1.03209 0.0
H371 H 0.54259 0.87795 0.20633 0.0
H372 H 0.11572 0.10637 1.0886 0.0
H373 H 0.68407 0.84825 0.19316 0.0
Zn374 Zn 0.09402 0.89119 0.37427 0.0
C375 C 0.0763 0.8857 0.57169 0.0
N376 N 1.0063 0.92302 0.5593 0.0
C377 C 1.00749 0.95074 0.49871 0.0
N378 N 0.06184 0.90439 0.46747 0.0
N379 N 0.10494 0.86525 0.51172 0.0
C380 C 0.29388 0.77348 0.46197 0.0
O381 O 0.27191 0.84888 0.4638 0.0
O382 O 0.04945 0.83357 0.28165 0.0
Zn383 Zn 0.12547 0.75333 0.47261 0.0
N384 N 0.12633 1.00123 0.36556 0.0
C385 C 0.21868 0.09711 0.40375 0.0
C386 C 0.17427 0.02825 0.41312 0.0
C387 C 0.11512 0.04461 0.31192 0.0
N388 N 0.21777 0.13225 0.34605 0.0
C389 C 0.168 0.1071 0.29948 0.0
O390 O 0.11616 0.72802 0.37956 0.0
C391 C 0.18147 0.74959 0.35904 0.0
O392 O 0.19626 0.82148 0.37045 0.0
H393 H 0.18288 0.99347 0.45594 0.0
H394 H 0.07799 0.02037 0.27478 0.0
C395 C 0.96264 0.71793 0.4805 0.0
C396 C 0.89864 0.66623 0.49181 0.0
C397 C 0.97032 0.56546 0.43815 0.0
C398 C 0.04004 0.60865 0.44858 0.0
N399 N 0.03534 0.68335 0.47407 0.0
N400 N 0.901 0.59405 0.46235 0.0
H401 H 0.95966 0.77938 0.49591 0.0
C402 C 0.02708 0.76472 0.25817 0.0
O403 O 1.00001 0.70946 0.29672 0.0
O404 O 0.24346 0.71995 0.4765 0.0
H405 H 0.09603 0.58554 0.43244 0.0
H406 H 0.25947 0.1185 0.43899 0.0
H407 H 0.9722 0.50781 0.41527 0.0
Zn408 Zn 0.11303 0.89818 0.82633 0.0
C409 C 0.12276 0.93012 0.62936 0.0
N410 N 0.08323 0.99827 0.64331 0.0
C411 C 0.05527 0.99343 0.70319 0.0
N412 N 0.09983 0.93474 0.73318 0.0
N413 N 0.14403 0.8984 0.68882 0.0
C414 C 0.30032 0.74204 0.72181 0.0
O415 O 0.22374 0.74481 0.7281 0.0
O416 O 0.18141 0.95739 0.91173 0.0
Zn417 Zn 0.2568 0.8957 0.73399 0.0
N418 N 1.00348 0.87175 0.83612 0.0
C419 C 0.90147 0.77712 0.81646 0.0
C420 C 0.97803 0.80545 0.80526 0.0
C421 C 0.9525 0.91453 0.87139 0.0
N422 N 0.85994 0.80841 0.86556 0.0
C423 C 0.8885 0.87245 0.89792 0.0
O424 O 0.26002 0.86441 0.82646 0.0
C425 C 0.23716 0.79549 0.84202 0.0
O426 O 0.16341 0.78368 0.83613 0.0
H427 H 1.01806 0.77325 0.7749 0.0
H428 H 0.97589 0.96662 0.8947 0.0
C429 C 0.29422 0.06597 0.71418 0.0
C430 C 0.34924 0.13012 0.71676 0.0
C431 C 0.42084 0.06019 0.79619 0.0
C432 C 0.37757 0.99165 0.78242 0.0
N433 N 0.31382 0.99583 0.74257 0.0
N434 N 0.408 0.12714 0.76112 0.0
H435 H 0.24588 0.06614 0.68 0.0
C436 C 0.25065 0.98188 0.93478 0.0
O437 O 0.311 0.99037 0.89712 0.0
O438 O 0.33338 0.80792 0.71132 0.0
H439 H 0.39068 0.93681 0.8072 0.0
H440 H 0.87957 0.72537 0.79176 0.0
H441 H 0.46624 0.05981 0.83254 0.0
Zn442 Zn 0.13218 0.7659 0.99161 0.0
C443 C 0.02906 0.56978 0.95923 0.0
N444 N 1.01568 0.60464 0.90191 0.0
C445 C 0.08132 0.64546 0.88579 0.0
N446 N 0.12142 0.65861 0.94287 0.0
N447 N 0.09078 0.61035 0.98729 0.0
C448 C 0.039 0.74445 0.18764 0.0
O449 O 0.03581 0.80483 0.14803 0.0
O450 O 0.22786 0.82888 0.9684 0.0
Zn451 Zn 0.13147 0.61904 1.08065 0.0
N452 N 0.03512 0.82697 0.99983 0.0
C453 C 0.97143 0.94442 1.03814 0.0
C454 C 0.03765 0.89449 1.0353 0.0
C455 C 0.96556 0.80273 0.97432 0.0
N456 N 0.9078 0.92798 1.00086 0.0
C457 C 0.90508 0.86051 0.96526 0.0
O458 O 0.24423 0.67641 1.09687 0.0
C459 C 0.23018 0.75051 0.1023 0.0
O460 O 0.16177 0.77186 1.08429 0.0
H461 H 0.08895 0.90735 1.06363 0.0
H462 H 0.96571 0.74827 0.94709 0.0
C463 C 0.12485 0.45294 0.11968 0.0
C464 C 0.17238 0.39371 0.14976 0.0
C465 C 0.27121 0.41726 1.07202 0.0
C466 C 0.23325 0.48938 1.05643 0.0
N467 N 0.16403 0.50868 1.08581 0.0
N468 N 0.24319 0.37428 0.122 0.0
H469 H 0.06821 0.47045 0.13953 0.0
C470 C 0.28764 0.785 0.97933 0.0
O471 O 0.274 0.70846 0.9827 0.0
O472 O 0.06389 0.67427 0.1671 0.0
H473 H 0.26069 0.53194 1.02473 0.0
H474 H 0.9721 0.99784 1.06675 0.0
H475 H 0.32728 0.40109 1.05051 0.0
Zn476 Zn 0.39055 0.61197 0.32543 0.0
C477 C 0.38109 0.57861 0.12966 0.0
N478 N 0.41768 0.50893 0.14512 0.0
C479 C 0.44189 0.51164 0.20662 0.0
N480 N 0.3968 0.56976 0.23472 0.0
N481 N 0.35974 0.61197 0.18837 0.0
C482 C 0.24655 0.82027 0.24498 0.0
O483 O 0.32333 0.81075 0.25276 0.0
O484 O 0.34108 0.56906 0.41988 0.0
Zn485 Zn 0.24685 0.63805 0.22835 0.0
N486 N 0.49728 0.65753 0.32743 0.0
C487 C 0.59814 0.72024 0.26557 0.0
C488 C 0.52456 0.68388 0.27012 0.0
C489 C 0.54261 0.6666 0.38006 0.0
N490 N 0.63718 0.74062 0.31915 0.0
C491 C 0.61122 0.71477 0.37653 0.0
O492 O 0.22424 0.62273 0.32129 0.0
C493 C 0.24396 0.68881 0.34103 0.0
O494 O 0.31405 0.70599 0.32678 0.0
H495 H 0.48976 0.67874 0.22748 0.0
H496 H 0.52049 0.64571 0.42529 0.0
C497 C 0.22048 0.4735 0.22802 0.0
C498 C 0.17447 0.40524 0.21842 0.0
C499 C 0.06958 0.47117 0.27127 0.0
C500 C 0.10664 0.54408 0.25789 0.0
N501 N 0.18067 0.54416 0.2314 0.0
N502 N 0.10306 0.40287 0.24865 0.0
H503 H 0.2815 0.47375 0.21288 0.0
C504 C 0.27312 0.54734 0.4448 0.0
O505 O 0.21817 0.51568 0.4087 0.0
O506 O 0.20425 0.76045 0.22715 0.0
H507 H 0.08019 0.5988 0.27322 0.0
H508 H 0.62174 0.73509 0.21982 0.0
H509 H 1.01298 0.46943 0.29541 0.0
Zn510 Zn 0.40316 0.93665 0.5811 0.0
C511 C 0.4335 0.94772 0.38303 0.0
N512 N 0.50668 0.97014 0.39987 0.0
C513 C 0.50595 0.99229 0.46127 0.0
N514 N 0.44186 0.95454 0.48838 0.0
N515 N 0.39538 0.93137 0.44001 0.0
C516 C 0.37183 0.75235 0.43661 0.0
O517 O 0.39404 0.79184 0.38603 0.0
O518 O 0.46262 0.87014 0.67048 0.0
Zn519 Zn 0.44024 0.84697 0.50982 0.0
N520 N 0.37953 0.04708 0.59028 0.0
C521 C 0.28655 0.15083 0.56632 0.0
C522 C 0.31623 0.07392 0.5556 0.0
C523 C 0.41931 0.09756 0.62825 0.0
N524 N 0.31331 0.19089 0.6179 0.0
C525 C 0.37288 0.15911 0.65444 0.0
O526 O 0.36974 0.78794 0.57896 0.0
C527 C 0.29856 0.80991 0.58924 0.0
O528 O 0.28655 0.88463 0.58393 0.0
H529 H 0.28786 0.0345 0.52238 0.0
H530 H 0.46982 0.07305 0.65421 0.0
C531 C 0.57209 0.81737 0.44577 0.0
C532 C 0.6301 0.76185 0.4315 0.0
C533 C 0.67493 0.76616 0.53663 0.0
C534 C 0.60771 0.81149 0.55251 0.0
N535 N 0.556 0.83438 0.50656 0.0
N536 N 0.68177 0.73667 0.4771 0.0
H537 H 0.52756 0.82918 0.41051 0.0
C538 C 0.48866 0.7994 0.6913 0.0
O539 O 0.50175 0.74333 0.64967 0.0
O540 O 0.4254 0.73978 0.47616 0.0
H541 H 0.59447 0.82301 0.60058 0.0
H542 H 0.23719 0.17414 0.53892 0.0
H543 H 0.71651 0.74854 0.57282 0.0
loop_
_geom_bond_atom_site_label_1
_geom_bond_atom_site_label_2
_geom_bond_distance
_geom_bond_site_symmetry_2
_ccdc_geom_bond_type
Zn0 N4 2.020 . S
Zn0 O8 2.019 . S
Zn0 N10 2.119 1_545 S
Zn0 O18 1.975 . S
C1 N2 1.334 . S
C1 N5 1.336 . S
N2 C1 1.334 . S
N2 C3 1.334 . S
C3 N2 1.334 . S
C3 N4 1.336 1_565 S
N4 Zn0 2.020 . S
N4 C3 1.336 1_545 S
N4 N5 1.354 1_545 S
N5 C1 1.336 . S
N5 N4 1.354 1_565 S
N5 Zn9 2.020 1_554 S
C6 O7 1.244 . S
C6 O30 1.257 . S
O7 C6 1.244 . S
O8 Zn0 2.019 . S
O8 C28 1.257 . S
Zn9 N5 2.020 1_556 S
Zn9 O16 1.975 1_566 S
Zn9 N25 2.119 1_565 S
Zn9 O30 2.019 . S
N10 Zn0 2.119 1_565 S
N10 C12 1.334 . S
N10 C13 1.328 1_565 S
C11 C12 1.391 . S
C11 N14 1.329 . S
C11 H32 0.930 . S
C12 N10 1.334 . S
C12 C11 1.391 . S
C12 H19 0.930 . S
C13 N10 1.328 1_545 S
C13 C15 1.392 1_545 S
C13 H20 0.930 . S
N14 C11 1.329 . S
N14 C15 1.331 . S
C15 C13 1.392 1_565 S
C15 N14 1.331 . S
O16 Zn9 1.975 1_544 S
O16 C17 1.252 . S
C17 O16 1.252 . S
C17 O18 1.252 . S
O18 Zn0 1.975 . S
O18 C17 1.252 . S
H19 C12 0.930 . S
H20 C13 0.930 . S
C21 C22 1.392 . S
C21 N25 1.328 . S
C21 H27 0.930 . S
C22 C21 1.392 . S
C22 N26 1.331 . S
C23 C24 1.391 . S
C23 N26 1.329 . S
C23 H33 0.930 . S
C24 C23 1.391 . S
C24 N25 1.334 . S
C24 H31 0.930 1_556 S
N25 Zn9 2.119 1_545 S
N25 C21 1.328 . S
N25 C24 1.334 . S
N26 C22 1.331 . S
N26 C23 1.329 . S
H27 C21 0.930 . S
C28 O8 1.257 . S
C28 O29 1.244 . S
O29 C28 1.244 . S
O30 C6 1.257 . S
O30 Zn9 2.019 . S
H31 C24 0.930 1_554 S
H32 C11 0.930 . S
H33 C23 0.930 . S
Zn34 N38 2.020 . S
Zn34 O42 2.019 . S
Zn34 N44 2.119 1_455 S
Zn34 O52 1.975 1_455 S
C35 N36 1.334 . S
C35 N39 1.336 1_455 S
N36 C35 1.334 . S
N36 C37 1.334 . S
C37 N36 1.334 . S
C37 N38 1.336 . S
N38 Zn34 2.020 . S
N38 C37 1.336 . S
N38 N39 1.354 1_455 S
N39 C35 1.336 1_655 S
N39 N38 1.354 1_655 S
N39 Zn43 2.020 . S
C40 O41 1.244 . S
C40 O64 1.257 . S
O41 C40 1.244 . S
O42 Zn34 2.019 . S
O42 C62 1.257 . S
Zn43 N39 2.020 . S
Zn43 O50 1.975 . S
Zn43 N59 2.119 1_655 S
Zn43 O64 2.019 . S
N44 Zn34 2.119 1_655 S
N44 C46 1.334 . S
N44 C47 1.328 . S
C45 C46 1.391 . S
C45 N48 1.329 . S
C45 H66 0.930 . S
C46 N44 1.334 . S
C46 C45 1.391 . S
C46 H53 0.930 . S
C47 N44 1.328 . S
C47 C49 1.392 . S
C47 H54 0.930 . S
N48 C45 1.329 . S
N48 C49 1.331 . S
C49 C47 1.392 . S
C49 N48 1.331 . S
O50 Zn43 1.975 . S
O50 C51 1.252 . S
C51 O50 1.252 . S
C51 O52 1.252 . S
O52 Zn34 1.975 1_655 S
O52 C51 1.252 . S
H53 C46 0.930 . S
H54 C47 0.930 . S
C55 C56 1.392 1_655 S
C55 N59 1.328 1_655 S
C55 H61 0.930 . S
C56 C55 1.392 1_455 S
C56 N60 1.331 . S
C57 C58 1.391 . S
C57 N60 1.329 . S
C57 H67 0.930 . S
C58 C57 1.391 . S
C58 N59 1.334 . S
C58 H65 0.930 . S
N59 Zn43 2.119 1_455 S
N59 C55 1.328 1_455 S
N59 C58 1.334 . S
N60 C56 1.331 . S
N60 C57 1.329 . S
H61 C55 0.930 . S
C62 O42 1.257 . S
C62 O63 1.244 . S
O63 C62 1.244 . S
O64 C40 1.257 . S
O64 Zn43 2.019 . S
H65 C58 0.930 . S
H66 C45 0.930 . S
H67 C57 0.930 . S
Zn68 N72 2.020 . S
Zn68 O76 2.019 . S
Zn68 N78 2.119 . S
Zn68 O86 1.975 . S
C69 N70 1.334 . S
C69 N73 1.336 . S
N70 C69 1.334 . S
N70 C71 1.334 . S
C71 N70 1.334 . S
C71 N72 1.336 . S
N72 Zn68 2.020 . S
N72 C71 1.336 . S
N72 N73 1.354 . S
N73 C69 1.336 . S
N73 N72 1.354 . S
N73 Zn77 2.020 . S
C74 O75 1.244 . S
C74 O98 1.257 . S
O75 C74 1.244 . S
O76 Zn68 2.019 . S
O76 C96 1.257 . S
Zn77 N73 2.020 . S
Zn77 O84 1.975 . S
Zn77 N93 2.119 . S
Zn77 O98 2.019 . S
N78 Zn68 2.119 . S
N78 C80 1.334 . S
N78 C81 1.328 . S
C79 C80 1.391 . S
C79 N82 1.329 . S
C79 H100 0.930 . S
C80 N78 1.334 . S
C80 C79 1.391 . S
C80 H87 0.930 . S
C81 N78 1.328 . S
C81 C83 1.392 . S
C81 H88 0.930 . S
N82 C79 1.329 . S
N82 C83 1.331 . S
C83 C81 1.392 . S
C83 N82 1.331 . S
O84 Zn77 1.975 . S
O84 C85 1.252 . S
C85 O84 1.252 . S
C85 O86 1.252 . S
O86 Zn68 1.975 . S
O86 C85 1.252 . S
H87 C80 0.930 . S
H88 C81 0.930 . S
C89 C90 1.392 . S
C89 N93 1.328 . S
C89 H95 0.930 . S
C90 C89 1.392 . S
C90 N94 1.331 . S
C91 C92 1.391 . S
C91 N94 1.329 . S
C91 H101 0.930 . S
C92 C91 1.391 . S
C92 N93 1.334 . S
C92 H99 0.930 . S
N93 Zn77 2.119 . S
N93 C89 1.328 . S
N93 C92 1.334 . S
N94 C90 1.331 . S
N94 C91 1.329 . S
H95 C89 0.930 . S
C96 O76 1.257 . S
C96 O97 1.244 . S
O97 C96 1.244 . S
O98 C74 1.257 . S
O98 Zn77 2.019 . S
H99 C92 0.930 . S
H100 C79 0.930 . S
H101 C91 0.930 . S
Zn102 N106 2.020 . S
Zn102 O110 2.019 . S
Zn102 N112 2.119 . S
Zn102 O120 1.975 . S
C103 N104 1.334 . S
C103 N107 1.336 . S
N104 C103 1.334 . S
N104 C105 1.334 . S
C105 N104 1.334 . S
C105 N106 1.336 . S
N106 Zn102 2.020 . S
N106 C105 1.336 . S
N106 N107 1.354 . S
N107 C103 1.336 . S
N107 N106 1.354 . S
N107 Zn111 2.020 . S
C108 O109 1.244 . S
C108 O132 1.257 . S
O109 C108 1.244 . S
O110 Zn102 2.019 . S
O110 C130 1.257 . S
Zn111 N107 2.020 . S
Zn111 O118 1.975 . S
Zn111 N127 2.119 . S
Zn111 O132 2.019 . S
N112 Zn102 2.119 . S
N112 C114 1.334 . S
N112 C115 1.328 . S
C113 C114 1.391 . S
C113 N116 1.329 . S
C113 H134 0.930 . S
C114 N112 1.334 . S
C114 C113 1.391 . S
C114 H121 0.930 . S
C115 N112 1.328 . S
C115 C117 1.392 . S
C115 H122 0.930 . S
N116 C113 1.329 . S
N116 C117 1.331 . S
C117 C115 1.392 . S
C117 N116 1.331 . S
O118 Zn111 1.975 . S
O118 C119 1.252 . S
C119 O118 1.252 . S
C119 O120 1.252 . S
O120 Zn102 1.975 . S
O120 C119 1.252 . S
H121 C114 0.930 . S
H122 C115 0.930 . S
C123 C124 1.392 . S
C123 N127 1.328 . S
C123 H129 0.930 . S
C124 C123 1.392 . S
C124 N128 1.331 . S
C125 C126 1.391 . S
C125 N128 1.329 . S
C125 H135 0.930 . S
C126 C125 1.391 . S
C126 N127 1.334 . S
C126 H133 0.930 . S
N127 Zn111 2.119 . S
N127 C123 1.328 . S
N127 C126 1.334 . S
N128 C124 1.331 . S
N128 C125 1.329 . S
H129 C123 0.930 . S
C130 O110 1.257 . S
C130 O131 1.244 . S
O131 C130 1.244 . S
O132 C108 1.257 . S
O132 Zn111 2.019 . S
H133 C126 0.930 . S
H134 C113 0.930 . S
H135 C125 0.930 . S
Zn136 N140 2.020 . S
Zn136 O144 2.019 . S
Zn136 N146 2.119 . S
Zn136 O154 1.975 . S
C137 N138 1.334 . S
C137 N141 1.336 . S
N138 C137 1.334 . S
N138 C139 1.334 . S
C139 N138 1.334 . S
C139 N140 1.336 . S
N140 Zn136 2.020 . S
N140 C139 1.336 . S
N140 N141 1.354 . S
N141 C137 1.336 . S
N141 N140 1.354 . S
N141 Zn145 2.020 . S
C142 O143 1.244 . S
C142 O166 1.257 . S
O143 C142 1.244 . S
O144 Zn136 2.019 . S
O144 C164 1.257 . S
Zn145 N141 2.020 . S
Zn145 O152 1.975 . S
Zn145 N161 2.119 . S
Zn145 O166 2.019 . S
N146 Zn136 2.119 . S
N146 C148 1.334 . S
N146 C149 1.328 . S
C147 C148 1.391 . S
C147 N150 1.329 . S
C147 H168 0.930 . S
C148 N146 1.334 . S
C148 C147 1.391 . S
C148 H155 0.930 . S
C149 N146 1.328 . S
C149 C151 1.392 . S
C149 H156 0.930 . S
N150 C147 1.329 . S
N150 C151 1.331 . S
C151 C149 1.392 . S
C151 N150 1.331 . S
O152 Zn145 1.975 . S
O152 C153 1.252 . S
C153 O152 1.252 . S
C153 O154 1.252 . S
O154 Zn136 1.975 . S
O154 C153 1.252 . S
H155 C148 0.930 . S
H156 C149 0.930 . S
C157 C158 1.392 . S
C157 N161 1.328 . S
C157 H163 0.930 . S
C158 C157 1.392 . S
C158 N162 1.331 . S
C159 C160 1.391 . S
C159 N162 1.329 . S
C159 H169 0.930 . S
C160 C159 1.391 . S
C160 N161 1.334 . S
C160 H167 0.930 . S
N161 Zn145 2.119 . S
N161 C157 1.328 . S
N161 C160 1.334 . S
N162 C158 1.331 . S
N162 C159 1.329 . S
H163 C157 0.930 . S
C164 O144 1.257 . S
C164 O165 1.244 . S
O165 C164 1.244 . S
O166 C142 1.257 . S
O166 Zn145 2.019 . S
H167 C160 0.930 . S
H168 C147 0.930 . S
H169 C159 0.930 . S
Zn170 N174 2.020 . S
Zn170 O178 2.019 . S
Zn170 N180 2.119 . S
Zn170 O188 1.975 . S
C171 N172 1.334 . S
C171 N175 1.336 . S
N172 C171 1.334 . S
N172 C173 1.334 . S
C173 N172 1.334 . S
C173 N174 1.336 . S
N174 Zn170 2.020 . S
N174 C173 1.336 . S
N174 N175 1.354 . S
N175 C171 1.336 . S
N175 N174 1.354 . S
N175 Zn179 2.020 . S
C176 O177 1.244 . S
C176 O200 1.257 . S
O177 C176 1.244 . S
O178 Zn170 2.019 . S
O178 C198 1.257 . S
Zn179 N175 2.020 . S
Zn179 O186 1.975 . S
Zn179 N195 2.119 . S
Zn179 O200 2.019 . S
N180 Zn170 2.119 . S
N180 C182 1.334 . S
N180 C183 1.328 . S
C181 C182 1.391 . S
C181 N184 1.329 . S
C181 H202 0.930 . S
C182 N180 1.334 . S
C182 C181 1.391 . S
C182 H189 0.930 . S
C183 N180 1.328 . S
C183 C185 1.392 . S
C183 H190 0.930 . S
N184 C181 1.329 . S
N184 C185 1.331 . S
C185 C183 1.392 . S
C185 N184 1.331 . S
O186 Zn179 1.975 . S
O186 C187 1.252 . S
C187 O186 1.252 . S
C187 O188 1.252 . S
O188 Zn170 1.975 . S
O188 C187 1.252 . S
H189 C182 0.930 . S
H190 C183 0.930 . S
C191 C192 1.392 . S
C191 N195 1.328 . S
C191 H197 0.930 . S
C192 C191 1.392 . S
C192 N196 1.331 . S
C193 C194 1.391 . S
C193 N196 1.329 . S
C193 H203 0.930 . S
C194 C193 1.391 . S
C194 N195 1.334 . S
C194 H201 0.930 . S
N195 Zn179 2.119 . S
N195 C191 1.328 . S
N195 C194 1.334 . S
N196 C192 1.331 . S
N196 C193 1.329 . S
H197 C191 0.930 . S
C198 O178 1.257 . S
C198 O199 1.244 . S
O199 C198 1.244 . S
O200 C176 1.257 . S
O200 Zn179 2.019 . S
H201 C194 0.930 . S
H202 C181 0.930 . S
H203 C193 0.930 . S
Zn204 N208 2.020 . S
Zn204 O212 2.019 . S
Zn204 N214 2.119 1_545 S
Zn204 O222 1.975 . S
C205 N206 1.334 . S
C205 N209 1.336 . S
N206 C205 1.334 . S
N206 C207 1.334 . S
C207 N206 1.334 . S
C207 N208 1.336 1_565 S
N208 Zn204 2.020 . S
N208 C207 1.336 1_545 S
N208 N209 1.354 1_545 S
N209 C205 1.336 . S
N209 N208 1.354 1_565 S
N209 Zn213 2.020 . S
C210 O211 1.244 . S
C210 O234 1.257 . S
O211 C210 1.244 . S
O212 Zn204 2.019 . S
O212 C232 1.257 . S
Zn213 N209 2.020 . S
Zn213 O220 1.975 1_565 S
Zn213 N229 2.119 1_565 S
Zn213 O234 2.019 . S
N214 Zn204 2.119 1_565 S
N214 C216 1.334 . S
N214 C217 1.328 1_565 S
C215 C216 1.391 . S
C215 N218 1.329 . S
C215 H236 0.930 . S
C216 N214 1.334 . S
C216 C215 1.391 . S
C216 H223 0.930 . S
C217 N214 1.328 1_545 S
C217 C219 1.392 1_545 S
C217 H224 0.930 . S
N218 C215 1.329 . S
N218 C219 1.331 . S
C219 C217 1.392 1_565 S
C219 N218 1.331 . S
O220 Zn213 1.975 1_545 S
O220 C221 1.252 . S
C221 O220 1.252 . S
C221 O222 1.252 . S
O222 Zn204 1.975 . S
O222 C221 1.252 . S
H223 C216 0.930 . S
H224 C217 0.930 . S
C225 C226 1.392 . S
C225 N229 1.328 . S
C225 H231 0.930 . S
C226 C225 1.392 . S
C226 N230 1.331 . S
C227 C228 1.391 . S
C227 N230 1.329 . S
C227 H237 0.930 . S
C228 C227 1.391 . S
C228 N229 1.334 . S
C228 H235 0.930 . S
N229 Zn213 2.119 1_545 S
N229 C225 1.328 . S
N229 C228 1.334 . S
N230 C226 1.331 . S
N230 C227 1.329 . S
H231 C225 0.930 . S
C232 O212 1.257 . S
C232 O233 1.244 . S
O233 C232 1.244 . S
O234 C210 1.257 . S
O234 Zn213 2.019 . S
H235 C228 0.930 . S
H236 C215 0.930 . S
H237 C227 0.930 . S
Zn238 N242 2.020 1_554 S
Zn238 O246 2.019 . S
Zn238 N248 2.119 1_455 S
Zn238 O256 1.975 1_454 S
C239 N240 1.334 . S
C239 N243 1.336 1_455 S
N240 C239 1.334 . S
N240 C241 1.334 . S
C241 N240 1.334 . S
C241 N242 1.336 . S
N242 Zn238 2.020 1_556 S
N242 C241 1.336 . S
N242 N243 1.354 1_455 S
N243 C239 1.336 1_655 S
N243 N242 1.354 1_655 S
N243 Zn247 2.020 . S
C244 O245 1.244 . S
C244 O268 1.257 . S
O245 C244 1.244 . S
O246 Zn238 2.019 . S
O246 C266 1.257 . S
Zn247 N243 2.020 . S
Zn247 O254 1.975 . S
Zn247 N263 2.119 1_655 S
Zn247 O268 2.019 . S
N248 Zn238 2.119 1_655 S
N248 C250 1.334 . S
N248 C251 1.328 . S
C249 C250 1.391 . S
C249 N252 1.329 . S
C249 H270 0.930 . S
C250 N248 1.334 . S
C250 C249 1.391 . S
C250 H257 0.930 1_554 S
C251 N248 1.328 . S
C251 C253 1.392 . S
C251 H258 0.930 . S
N252 C249 1.329 . S
N252 C253 1.331 . S
C253 C251 1.392 . S
C253 N252 1.331 . S
O254 Zn247 1.975 . S
O254 C255 1.252 . S
C255 O254 1.252 . S
C255 O256 1.252 . S
O256 Zn238 1.975 1_656 S
O256 C255 1.252 . S
H257 C250 0.930 1_556 S
H258 C251 0.930 . S
C259 C260 1.392 1_655 S
C259 N263 1.328 1_655 S
C259 H265 0.930 . S
C260 C259 1.392 1_455 S
C260 N264 1.331 . S
C261 C262 1.391 . S
C261 N264 1.329 . S
C261 H271 0.930 . S
C262 C261 1.391 . S
C262 N263 1.334 . S
C262 H269 0.930 . S
N263 Zn247 2.119 1_455 S
N263 C259 1.328 1_455 S
N263 C262 1.334 . S
N264 C260 1.331 . S
N264 C261 1.329 . S
H265 C259 0.930 . S
C266 O246 1.257 . S
C266 O267 1.244 . S
O267 C266 1.244 . S
O268 C244 1.257 . S
O268 Zn247 2.019 . S
H269 C262 0.930 . S
H270 C249 0.930 . S
H271 C261 0.930 . S
Zn272 N276 2.020 . S
Zn272 O280 2.019 . S
Zn272 N282 2.119 . S
Zn272 O290 1.975 . S
C273 N274 1.334 . S
C273 N277 1.336 . S
N274 C273 1.334 . S
N274 C275 1.334 . S
C275 N274 1.334 . S
C275 N276 1.336 . S
N276 Zn272 2.020 . S
N276 C275 1.336 . S
N276 N277 1.354 . S
N277 C273 1.336 . S
N277 N276 1.354 . S
N277 Zn281 2.020 . S
C278 O279 1.244 . S
C278 O302 1.257 . S
O279 C278 1.244 . S
O280 Zn272 2.019 . S
O280 C300 1.257 . S
Zn281 N277 2.020 . S
Zn281 O288 1.975 . S
Zn281 N297 2.119 . S
Zn281 O302 2.019 . S
N282 Zn272 2.119 . S
N282 C284 1.334 . S
N282 C285 1.328 . S
C283 C284 1.391 . S
C283 N286 1.329 . S
C283 H304 0.930 . S
C284 N282 1.334 . S
C284 C283 1.391 . S
C284 H291 0.930 . S
C285 N282 1.328 . S
C285 C287 1.392 . S
C285 H292 0.930 . S
N286 C283 1.329 . S
N286 C287 1.331 . S
C287 C285 1.392 . S
C287 N286 1.331 . S
O288 Zn281 1.975 . S
O288 C289 1.252 . S
C289 O288 1.252 . S
C289 O290 1.252 . S
O290 Zn272 1.975 . S
O290 C289 1.252 . S
H291 C284 0.930 . S
H292 C285 0.930 . S
C293 C294 1.392 . S
C293 N297 1.328 . S
C293 H299 0.930 . S
C294 C293 1.392 . S
C294 N298 1.331 . S
C295 C296 1.391 . S
C295 N298 1.329 . S
C295 H305 0.930 . S
C296 C295 1.391 . S
C296 N297 1.334 . S
C296 H303 0.930 . S
N297 Zn281 2.119 . S
N297 C293 1.328 . S
N297 C296 1.334 . S
N298 C294 1.331 . S
N298 C295 1.329 . S
H299 C293 0.930 . S
C300 O280 1.257 . S
C300 O301 1.244 . S
O301 C300 1.244 . S
O302 C278 1.257 . S
O302 Zn281 2.019 . S
H303 C296 0.930 . S
H304 C283 0.930 . S
H305 C295 0.930 . S
Zn306 N310 2.020 . S
Zn306 O314 2.019 . S
Zn306 N316 2.119 . S
Zn306 O324 1.975 . S
C307 N308 1.334 . S
C307 N311 1.336 . S
N308 C307 1.334 . S
N308 C309 1.334 . S
C309 N308 1.334 . S
C309 N310 1.336 . S
N310 Zn306 2.020 . S
N310 C309 1.336 . S
N310 N311 1.354 . S
N311 C307 1.336 . S
N311 N310 1.354 . S
N311 Zn315 2.020 . S
C312 O313 1.244 . S
C312 O336 1.257 . S
O313 C312 1.244 . S
O314 Zn306 2.019 . S
O314 C334 1.257 . S
Zn315 N311 2.020 . S
Zn315 O322 1.975 . S
Zn315 N331 2.119 . S
Zn315 O336 2.019 . S
N316 Zn306 2.119 . S
N316 C318 1.334 . S
N316 C319 1.328 . S
C317 C318 1.391 . S
C317 N320 1.329 . S
C317 H338 0.930 . S
C318 N316 1.334 . S
C318 C317 1.391 . S
C318 H325 0.930 . S
C319 N316 1.328 . S
C319 C321 1.392 . S
C319 H326 0.930 . S
N320 C317 1.329 . S
N320 C321 1.331 . S
C321 C319 1.392 . S
C321 N320 1.331 . S
O322 Zn315 1.975 . S
O322 C323 1.252 . S
C323 O322 1.252 . S
C323 O324 1.252 . S
O324 Zn306 1.975 . S
O324 C323 1.252 . S
H325 C318 0.930 . S
H326 C319 0.930 . S
C327 C328 1.392 . S
C327 N331 1.328 . S
C327 H333 0.930 . S
C328 C327 1.392 . S
C328 N332 1.331 . S
C329 C330 1.391 . S
C329 N332 1.329 . S
C329 H339 0.930 . S
C330 C329 1.391 . S
C330 N331 1.334 . S
C330 H337 0.930 . S
N331 Zn315 2.119 . S
N331 C327 1.328 . S
N331 C330 1.334 . S
N332 C328 1.331 . S
N332 C329 1.329 . S
H333 C327 0.930 . S
C334 O314 1.257 . S
C334 O335 1.244 . S
O335 C334 1.244 . S
O336 C312 1.257 . S
O336 Zn315 2.019 . S
H337 C330 0.930 . S
H338 C317 0.930 . S
H339 C329 0.930 . S
Zn340 N344 2.020 . S
Zn340 O348 2.019 . S
Zn340 N350 2.119 1_565 S
Zn340 O358 1.975 . S
C341 N342 1.334 . S
C341 N345 1.336 . S
N342 C341 1.334 . S
N342 C343 1.334 . S
C343 N342 1.334 . S
C343 N344 1.336 1_545 S
N344 Zn340 2.020 . S
N344 C343 1.336 1_565 S
N344 N345 1.354 1_565 S
N345 C341 1.336 . S
N345 N344 1.354 1_545 S
N345 Zn349 2.020 1_554 S
C346 O347 1.244 . S
C346 O370 1.257 . S
O347 C346 1.244 . S
O348 Zn340 2.019 . S
O348 C368 1.257 . S
Zn349 N345 2.020 1_556 S
Zn349 O356 1.975 1_546 S
Zn349 N365 2.119 1_545 S
Zn349 O370 2.019 . S
N350 Zn340 2.119 1_545 S
N350 C352 1.334 . S
N350 C353 1.328 1_545 S
C351 C352 1.391 . S
C351 N354 1.329 . S
C351 H372 0.930 . S
C352 N350 1.334 . S
C352 C351 1.391 . S
C352 H359 0.930 . S
C353 N350 1.328 1_565 S
C353 C355 1.392 1_565 S
C353 H360 0.930 . S
N354 C351 1.329 . S
N354 C355 1.331 . S
C355 C353 1.392 1_545 S
C355 N354 1.331 . S
O356 Zn349 1.975 1_564 S
O356 C357 1.252 . S
C357 O356 1.252 . S
C357 O358 1.252 . S
O358 Zn340 1.975 . S
O358 C357 1.252 . S
H359 C352 0.930 . S
H360 C353 0.930 . S
C361 C362 1.392 . S
C361 N365 1.328 . S
C361 H367 0.930 . S
C362 C361 1.392 . S
C362 N366 1.331 . S
C363 C364 1.391 . S
C363 N366 1.329 . S
C363 H373 0.930 . S
C364 C363 1.391 . S
C364 N365 1.334 . S
C364 H371 0.930 1_556 S
N365 Zn349 2.119 1_565 S
N365 C361 1.328 . S
N365 C364 1.334 . S
N366 C362 1.331 . S
N366 C363 1.329 . S
H367 C361 0.930 . S
C368 O348 1.257 . S
C368 O369 1.244 . S
O369 C368 1.244 . S
O370 C346 1.257 . S
O370 Zn349 2.019 . S
H371 C364 0.930 1_554 S
H372 C351 0.930 . S
H373 C363 0.930 . S
Zn374 N378 2.020 . S
Zn374 O382 2.019 . S
Zn374 N384 2.119 1_655 S
Zn374 O392 1.975 1_655 S
C375 N376 1.334 . S
C375 N379 1.336 1_655 S
N376 C375 1.334 . S
N376 C377 1.334 . S
C377 N376 1.334 . S
C377 N378 1.336 . S
N378 Zn374 2.020 . S
N378 C377 1.336 . S
N378 N379 1.354 1_655 S
N379 C375 1.336 1_455 S
N379 N378 1.354 1_455 S
N379 Zn383 2.020 . S
C380 O381 1.244 . S
C380 O404 1.257 . S
O381 C380 1.244 . S
O382 Zn374 2.019 . S
O382 C402 1.257 . S
Zn383 N379 2.020 . S
Zn383 O390 1.975 . S
Zn383 N399 2.119 1_455 S
Zn383 O404 2.019 . S
N384 Zn374 2.119 1_455 S
N384 C386 1.334 . S
N384 C387 1.328 . S
C385 C386 1.391 . S
C385 N388 1.329 . S
C385 H406 0.930 . S
C386 N384 1.334 . S
C386 C385 1.391 . S
C386 H393 0.930 . S
C387 N384 1.328 . S
C387 C389 1.392 . S
C387 H394 0.930 . S
N388 C385 1.329 . S
N388 C389 1.331 . S
C389 C387 1.392 . S
C389 N388 1.331 . S
O390 Zn383 1.975 . S
O390 C391 1.252 . S
C391 O390 1.252 . S
C391 O392 1.252 . S
O392 Zn374 1.975 1_455 S
O392 C391 1.252 . S
H393 C386 0.930 . S
H394 C387 0.930 . S
C395 C396 1.392 1_455 S
C395 N399 1.328 1_455 S
C395 H401 0.930 . S
C396 C395 1.392 1_655 S
C396 N400 1.331 . S
C397 C398 1.391 . S
C397 N400 1.329 . S
C397 H407 0.930 . S
C398 C397 1.391 . S
C398 N399 1.334 . S
C398 H405 0.930 . S
N399 Zn383 2.119 1_655 S
N399 C395 1.328 1_655 S
N399 C398 1.334 . S
N400 C396 1.331 . S
N400 C397 1.329 . S
H401 C395 0.930 . S
C402 O382 1.257 . S
C402 O403 1.244 . S
O403 C402 1.244 . S
O404 C380 1.257 . S
O404 Zn383 2.019 . S
H405 C398 0.930 . S
H406 C385 0.930 . S
H407 C397 0.930 . S
Zn408 N412 2.020 . S
Zn408 O416 2.019 . S
Zn408 N418 2.119 1_545 S
Zn408 O426 1.975 1_545 S
C409 N410 1.334 . S
C409 N413 1.336 1_545 S
N410 C409 1.334 . S
N410 C411 1.334 . S
C411 N410 1.334 . S
C411 N412 1.336 . S
N412 Zn408 2.020 . S
N412 C411 1.336 . S
N412 N413 1.354 1_545 S
N413 C409 1.336 1_565 S
N413 N412 1.354 1_565 S
N413 Zn417 2.020 . S
C414 O415 1.244 . S
C414 O438 1.257 . S
O415 C414 1.244 . S
O416 Zn408 2.019 . S
O416 C436 1.257 . S
Zn417 N413 2.020 . S
Zn417 O424 1.975 . S
Zn417 N433 2.119 1_565 S
Zn417 O438 2.019 . S
N418 Zn408 2.119 1_565 S
N418 C420 1.334 . S
N418 C421 1.328 . S
C419 C420 1.391 . S
C419 N422 1.329 . S
C419 H440 0.930 . S
C420 N418 1.334 . S
C420 C419 1.391 . S
C420 H427 0.930 . S
C421 N418 1.328 . S
C421 C423 1.392 . S
C421 H428 0.930 . S
N422 C419 1.329 . S
N422 C423 1.331 . S
C423 C421 1.392 . S
C423 N422 1.331 . S
O424 Zn417 1.975 . S
O424 C425 1.252 . S
C425 O424 1.252 . S
C425 O426 1.252 . S
O426 Zn408 1.975 1_565 S
O426 C425 1.252 . S
H427 C420 0.930 . S
H428 C421 0.930 . S
C429 C430 1.392 1_565 S
C429 N433 1.328 1_565 S
C429 H435 0.930 . S
C430 C429 1.392 1_545 S
C430 N434 1.331 . S
C431 C432 1.391 . S
C431 N434 1.329 . S
C431 H441 0.930 . S
C432 C431 1.391 . S
C432 N433 1.334 . S
C432 H439 0.930 . S
N433 Zn417 2.119 1_545 S
N433 C429 1.328 1_545 S
N433 C432 1.334 . S
N434 C430 1.331 . S
N434 C431 1.329 . S
H435 C429 0.930 . S
C436 O416 1.257 . S
C436 O437 1.244 . S
O437 C436 1.244 . S
O438 C414 1.257 . S
O438 Zn417 2.019 . S
H439 C432 0.930 . S
H440 C419 0.930 . S
H441 C431 0.930 . S
Zn442 N446 2.020 . S
Zn442 O450 2.019 . S
Zn442 N452 2.119 1_455 S
Zn442 O460 1.975 . S
C443 N444 1.334 . S
C443 N447 1.336 . S
N444 C443 1.334 . S
N444 C445 1.334 . S
C445 N444 1.334 . S
C445 N446 1.336 1_655 S
N446 Zn442 2.020 . S
N446 C445 1.336 1_455 S
N446 N447 1.354 1_455 S
N447 C443 1.336 . S
N447 N446 1.354 1_655 S
N447 Zn451 2.020 1_556 S
C448 O449 1.244 . S
C448 O472 1.257 . S
O449 C448 1.244 . S
O450 Zn442 2.019 . S
O450 C470 1.257 . S
Zn451 N447 2.020 1_554 S
Zn451 O458 1.975 1_654 S
Zn451 N467 2.119 1_655 S
Zn451 O472 2.019 . S
N452 Zn442 2.119 1_655 S
N452 C454 1.334 . S
N452 C455 1.328 1_655 S
C453 C454 1.391 . S
C453 N456 1.329 . S
C453 H474 0.930 . S
C454 N452 1.334 . S
C454 C453 1.391 . S
C454 H461 0.930 . S
C455 N452 1.328 1_455 S
C455 C457 1.392 1_455 S
C455 H462 0.930 . S
N456 C453 1.329 . S
N456 C457 1.331 . S
C457 C455 1.392 1_655 S
C457 N456 1.331 . S
O458 Zn451 1.975 1_456 S
O458 C459 1.252 . S
C459 O458 1.252 . S
C459 O460 1.252 . S
O460 Zn442 1.975 . S
O460 C459 1.252 . S
H461 C454 0.930 . S
H462 C455 0.930 . S
C463 C464 1.392 . S
C463 N467 1.328 . S
C463 H469 0.930 . S
C464 C463 1.392 . S
C464 N468 1.331 . S
C465 C466 1.391 . S
C465 N468 1.329 . S
C465 H475 0.930 . S
C466 C465 1.391 . S
C466 N467 1.334 . S
C466 H473 0.930 1_554 S
N467 Zn451 2.119 1_455 S
N467 C463 1.328 . S
N467 C466 1.334 . S
N468 C464 1.331 . S
N468 C465 1.329 . S
H469 C463 0.930 . S
C470 O450 1.257 . S
C470 O471 1.244 . S
O471 C470 1.244 . S
O472 C448 1.257 . S
O472 Zn451 2.019 . S
H473 C466 0.930 1_556 S
H474 C453 0.930 . S
H475 C465 0.930 . S
Zn476 N480 2.020 . S
Zn476 O484 2.019 . S
Zn476 N486 2.119 . S
Zn476 O494 1.975 . S
C477 N478 1.334 . S
C477 N481 1.336 . S
N478 C477 1.334 . S
N478 C479 1.334 . S
C479 N478 1.334 . S
C479 N480 1.336 . S
N480 Zn476 2.020 . S
N480 C479 1.336 . S
N480 N481 1.354 . S
N481 C477 1.336 . S
N481 N480 1.354 . S
N481 Zn485 2.020 . S
C482 O483 1.244 . S
C482 O506 1.257 . S
O483 C482 1.244 . S
O484 Zn476 2.019 . S
O484 C504 1.257 . S
Zn485 N481 2.020 . S
Zn485 O492 1.975 . S
Zn485 N501 2.119 . S
Zn485 O506 2.019 . S
N486 Zn476 2.119 . S
N486 C488 1.334 . S
N486 C489 1.328 . S
C487 C488 1.391 . S
C487 N490 1.329 . S
C487 H508 0.930 . S
C488 N486 1.334 . S
C488 C487 1.391 . S
C488 H495 0.930 . S
C489 N486 1.328 . S
C489 C491 1.392 . S
C489 H496 0.930 . S
N490 C487 1.329 . S
N490 C491 1.331 . S
C491 C489 1.392 . S
C491 N490 1.331 . S
O492 Zn485 1.975 . S
O492 C493 1.252 . S
C493 O492 1.252 . S
C493 O494 1.252 . S
O494 Zn476 1.975 . S
O494 C493 1.252 . S
H495 C488 0.930 . S
H496 C489 0.930 . S
C497 C498 1.392 . S
C497 N501 1.328 . S
C497 H503 0.930 . S
C498 C497 1.392 . S
C498 N502 1.331 . S
C499 C500 1.391 . S
C499 N502 1.329 . S
C499 H509 0.930 . S
C500 C499 1.391 . S
C500 N501 1.334 . S
C500 H507 0.930 . S
N501 Zn485 2.119 . S
N501 C497 1.328 . S
N501 C500 1.334 . S
N502 C498 1.331 . S
N502 C499 1.329 . S
H503 C497 0.930 . S
C504 O484 1.257 . S
C504 O505 1.244 . S
O505 C504 1.244 . S
O506 C482 1.257 . S
O506 Zn485 2.019 . S
H507 C500 0.930 . S
H508 C487 0.930 . S
H509 C499 0.930 . S
Zn510 N514 2.020 . S
Zn510 O518 2.019 . S
Zn510 N520 2.119 . S
Zn510 O528 1.975 . S
C511 N512 1.334 . S
C511 N515 1.336 . S
N512 C511 1.334 . S
N512 C513 1.334 . S
C513 N512 1.334 . S
C513 N514 1.336 . S
N514 Zn510 2.020 . S
N514 C513 1.336 . S
N514 N515 1.354 . S
N515 C511 1.336 . S
N515 N514 1.354 . S
N515 Zn519 2.020 . S
C516 O517 1.244 . S
C516 O540 1.257 . S
O517 C516 1.244 . S
O518 Zn510 2.019 . S
O518 C538 1.257 . S
Zn519 N515 2.020 . S
Zn519 O526 1.975 . S
Zn519 N535 2.119 . S
Zn519 O540 2.019 . S
N520 Zn510 2.119 . S
N520 C522 1.334 . S
N520 C523 1.328 . S
C521 C522 1.391 . S
C521 N524 1.329 . S
C521 H542 0.930 . S
C522 N520 1.334 . S
C522 C521 1.391 . S
C522 H529 0.930 . S
C523 N520 1.328 . S
C523 C525 1.392 . S
C523 H530 0.930 . S
N524 C521 1.329 . S
N524 C525 1.331 . S
C525 C523 1.392 . S
C525 N524 1.331 . S
O526 Zn519 1.975 . S
O526 C527 1.252 . S
C527 O526 1.252 . S
C527 O528 1.252 . S
O528 Zn510 1.975 . S
O528 C527 1.252 . S
H529 C522 0.930 . S
H530 C523 0.930 . S
C531 C532 1.392 . S
C531 N535 1.328 . S
C531 H537 0.930 . S
C532 C531 1.392 . S
C532 N536 1.331 . S
C533 C534 1.391 . S
C533 N536 1.329 . S
C533 H543 0.930 . S
C534 C533 1.391 . S
C534 N535 1.334 . S
C534 H541 0.930 . S
N535 Zn519 2.119 . S
N535 C531 1.328 . S
N535 C534 1.334 . S
N536 C532 1.331 . S
N536 C533 1.329 . S
H537 C531 0.930 . S
C538 O518 1.257 . S
C538 O539 1.244 . S
O539 C538 1.244 . S
O540 C516 1.257 . S
O540 Zn519 2.019 . S
H541 C534 0.930 . S
H542 C521 0.930 . S
H543 C533 0.930 . S
C17 C255 2.669 1_554 S
C153 C51 2.669 . S
C85 C187 2.669 . S
C119 C221 2.669 . S
C527 C289 2.669 . S
C425 C323 2.669 . S
C357 C459 2.669 1_554 S
C391 C493 2.669 . S
C124 C22 2.811 . S
C49 C15 2.811 1_545 S
C83 C56 2.811 1_655 S
C117 C90 2.811 . S
C158 C192 2.811 . S
C185 C219 2.811 1_545 S
C260 C226 2.811 1_455 S
C253 C151 2.811 . S
C396 C287 2.811 1_655 S
C321 C294 2.811 . S
C328 C362 2.811 . S
C389 C355 2.811 1_565 S
C423 C457 2.811 1_455 S
C464 C498 2.811 . S
C491 C532 2.811 . S
C525 C430 2.811 1_565 S
C164 C28 2.578 . S
C176 C40 2.578 . S
C74 C232 2.578 . S
C244 C108 2.578 . S
C414 C278 2.578 . S
C312 C470 2.578 . S
C482 C368 2.578 . S
C516 C380 2.578 . S
C210 C6 3.758 . S
C266 C62 3.758 . S
C96 C142 3.758 . S
C130 C198 3.758 . S
C300 C504 3.758 . S
C334 C538 3.758 . S
C436 C346 3.758 . S
C448 C402 3.758 . S
C171 C3 5.753 1_545 S
C35 C207 5.753 1_445 S
C69 C239 5.753 1_655 S
C139 C103 5.753 1_554 S
C273 C445 5.753 1_455 S
C477 C307 5.753 1_554 S
C343 C511 5.753 1_545 S
C375 C409 5.753 1_665 S
C1 C341 3.547 1_565 S
C37 C377 3.547 1_445 S
C275 C71 3.547 1_455 S
C309 C105 3.547 . S
C137 C479 3.547 . S
C173 C513 3.547 1_545 S
C411 C205 3.547 1_445 S
C443 C241 3.547 1_655 S
