# Generated by pormake.
# Topology upd, (4)-cn, num edge types: 1
# Building blocks:
#     Node 0, Type 0, BuildingBlock: MUDLON_clean_sbu_0, # of connection points: 4
#     Node 1, Type 0, BuildingBlock: MUDLON_clean_sbu_0, # of connection points: 4
#     Node 2, Type 0, BuildingBlock: MUDLON_clean_sbu_0, # of connection points: 4
#     Node 3, Type 0, BuildingBlock: MUDLON_clean_sbu_0, # of connection points: 4
#     Node 4, Type 0, BuildingBlock: MUDLON_clean_sbu_0, # of connection points: 4
#     Node 5, Type 0, BuildingBlock: MUDLON_clean_sbu_0, # of connection points: 4
#     Node 6, Type 0, BuildingBlock: MUDLON_clean_sbu_0, # of connection points: 4
#     Node 7, Type 0, BuildingBlock: MUDLON_clean_sbu_0, # of connection points: 4
#     Node 8, Type 0, BuildingBlock: MUDLON_clean_sbu_0, # of connection points: 4
#     Node 9, Type 0, BuildingBlock: MUDLON_clean_sbu_0, # of connection points: 4
#     Node 10, Type 0, BuildingBlock: MUDLON_clean_sbu_0, # of connection points: 4
#     Node 11, Type 0, BuildingBlock: MUDLON_clean_sbu_0, # of connection points: 4
#     Node 12, Type 0, BuildingBlock: MUDLON_clean_sbu_0, # of connection points: 4
#     Node 13, Type 0, BuildingBlock: MUDLON_clean_sbu_0, # of connection points: 4
#     Node 14, Type 0, BuildingBlock: MUDLON_clean_sbu_0, # of connection points: 4
#     Node 15, Type 0, BuildingBlock: MUDLON_clean_sbu_0, # of connection points: 4
#     Node 16, Type 0, BuildingBlock: MUDLON_clean_sbu_0, # of connection points: 4
#     Node 17, Type 0, BuildingBlock: MUDLON_clean_sbu_0, # of connection points: 4
#     Node 18, Type 0, BuildingBlock: MUDLON_clean_sbu_0, # of connection points: 4
#     Node 19, Type 0, BuildingBlock: MUDLON_clean_sbu_0, # of connection points: 4
#     Node 20, Type 0, BuildingBlock: MUDLON_clean_sbu_0, # of connection points: 4
#     Node 21, Type 0, BuildingBlock: MUDLON_clean_sbu_0, # of connection points: 4
#     Node 22, Type 0, BuildingBlock: MUDLON_clean_sbu_0, # of connection points: 4
#     Node 23, Type 0, BuildingBlock: MUDLON_clean_sbu_0, # of connection points: 4
#     Node 24, Type 0, BuildingBlock: MUDLON_clean_sbu_0, # of connection points: 4
#     Node 25, Type 0, BuildingBlock: MUDLON_clean_sbu_0, # of connection points: 4
#     Node 26, Type 0, BuildingBlock: MUDLON_clean_sbu_0, # of connection points: 4
#     Node 27, Type 0, BuildingBlock: MUDLON_clean_sbu_0, # of connection points: 4
#     Node 28, Type 0, BuildingBlock: MUDLON_clean_sbu_0, # of connection points: 4
#     Node 29, Type 0, BuildingBlock: MUDLON_clean_sbu_0, # of connection points: 4
#     Node 30, Type 0, BuildingBlock: MUDLON_clean_sbu_0, # of connection points: 4
#     Node 31, Type 0, BuildingBlock: MUDLON_clean_sbu_0, # of connection points: 4
#     Edge 32, Type (0, 0), BuildingBlock: UVAHIK_clean_linker_0, # of connection points: 2
#     Edge 33, Type (0, 0), BuildingBlock: UVAHIK_clean_linker_0, # of connection points: 2
#     Edge 34, Type (0, 0), BuildingBlock: UVAHIK_clean_linker_0, # of connection points: 2
#     Edge 35, Type (0, 0), BuildingBlock: UVAHIK_clean_linker_0, # of connection points: 2
#     Edge 36, Type (0, 0), BuildingBlock: UVAHIK_clean_linker_0, # of connection points: 2
#     Edge 37, Type (0, 0), BuildingBlock: UVAHIK_clean_linker_0, # of connection points: 2
#     Edge 38, Type (0, 0), BuildingBlock: UVAHIK_clean_linker_0, # of connection points: 2
#     Edge 39, Type (0, 0), BuildingBlock: UVAHIK_clean_linker_0, # of connection points: 2
#     Edge 40, Type (0, 0), BuildingBlock: UVAHIK_clean_linker_0, # of connection points: 2
#     Edge 41, Type (0, 0), BuildingBlock: UVAHIK_clean_linker_0, # of connection points: 2
#     Edge 42, Type (0, 0), BuildingBlock: UVAHIK_clean_linker_0, # of connection points: 2
#     Edge 43, Type (0, 0), BuildingBlock: UVAHIK_clean_linker_0, # of connection points: 2
#     Edge 44, Type (0, 0), BuildingBlock: UVAHIK_clean_linker_0, # of connection points: 2
#     Edge 45, Type (0, 0), BuildingBlock: UVAHIK_clean_linker_0, # of connection points: 2
#     Edge 46, Type (0, 0), BuildingBlock: UVAHIK_clean_linker_0, # of connection points: 2
#     Edge 47, Type (0, 0), BuildingBlock: UVAHIK_clean_linker_0, # of connection points: 2
#     Edge 48, Type (0, 0), BuildingBlock: UVAHIK_clean_linker_0, # of connection points: 2
#     Edge 49, Type (0, 0), BuildingBlock: UVAHIK_clean_linker_0, # of connection points: 2
#     Edge 50, Type (0, 0), BuildingBlock: UVAHIK_clean_linker_0, # of connection points: 2
#     Edge 51, Type (0, 0), BuildingBlock: UVAHIK_clean_linker_0, # of connection points: 2
#     Edge 52, Type (0, 0), BuildingBlock: UVAHIK_clean_linker_0, # of connection points: 2
#     Edge 53, Type (0, 0), BuildingBlock: UVAHIK_clean_linker_0, # of connection points: 2
#     Edge 54, Type (0, 0), BuildingBlock: UVAHIK_clean_linker_0, # of connection points: 2
#     Edge 55, Type (0, 0), BuildingBlock: UVAHIK_clean_linker_0, # of connection points: 2
#     Edge 56, Type (0, 0), BuildingBlock: UVAHIK_clean_linker_0, # of connection points: 2
#     Edge 57, Type (0, 0), BuildingBlock: UVAHIK_clean_linker_0, # of connection points: 2
#     Edge 58, Type (0, 0), BuildingBlock: UVAHIK_clean_linker_0, # of connection points: 2
#     Edge 59, Type (0, 0), BuildingBlock: UVAHIK_clean_linker_0, # of connection points: 2
#     Edge 60, Type (0, 0), BuildingBlock: UVAHIK_clean_linker_0, # of connection points: 2
#     Edge 61, Type (0, 0), BuildingBlock: UVAHIK_clean_linker_0, # of connection points: 2
#     Edge 62, Type (0, 0), BuildingBlock: UVAHIK_clean_linker_0, # of connection points: 2
#     Edge 63, Type (0, 0), BuildingBlock: UVAHIK_clean_linker_0, # of connection points: 2
#     Edge 64, Type (0, 0), BuildingBlock: UVAHIK_clean_linker_0, # of connection points: 2
#     Edge 65, Type (0, 0), BuildingBlock: UVAHIK_clean_linker_0, # of connection points: 2
#     Edge 66, Type (0, 0), BuildingBlock: UVAHIK_clean_linker_0, # of connection points: 2
#     Edge 67, Type (0, 0), BuildingBlock: UVAHIK_clean_linker_0, # of connection points: 2
#     Edge 68, Type (0, 0), BuildingBlock: UVAHIK_clean_linker_0, # of connection points: 2
#     Edge 69, Type (0, 0), BuildingBlock: UVAHIK_clean_linker_0, # of connection points: 2
#     Edge 70, Type (0, 0), BuildingBlock: UVAHIK_clean_linker_0, # of connection points: 2
#     Edge 71, Type (0, 0), BuildingBlock: UVAHIK_clean_linker_0, # of connection points: 2
#     Edge 72, Type (0, 0), BuildingBlock: UVAHIK_clean_linker_0, # of connection points: 2
#     Edge 73, Type (0, 0), BuildingBlock: UVAHIK_clean_linker_0, # of connection points: 2
#     Edge 74, Type (0, 0), BuildingBlock: UVAHIK_clean_linker_0, # of connection points: 2
#     Edge 75, Type (0, 0), BuildingBlock: UVAHIK_clean_linker_0, # of connection points: 2
#     Edge 76, Type (0, 0), BuildingBlock: UVAHIK_clean_linker_0, # of connection points: 2
#     Edge 77, Type (0, 0), BuildingBlock: UVAHIK_clean_linker_0, # of connection points: 2
#     Edge 78, Type (0, 0), BuildingBlock: UVAHIK_clean_linker_0, # of connection points: 2
#     Edge 79, Type (0, 0), BuildingBlock: UVAHIK_clean_linker_0, # of connection points: 2
#     Edge 80, Type (0, 0), BuildingBlock: UVAHIK_clean_linker_0, # of connection points: 2
#     Edge 81, Type (0, 0), BuildingBlock: UVAHIK_clean_linker_0, # of connection points: 2
#     Edge 82, Type (0, 0), BuildingBlock: UVAHIK_clean_linker_0, # of connection points: 2
#     Edge 83, Type (0, 0), BuildingBlock: UVAHIK_clean_linker_0, # of connection points: 2
#     Edge 84, Type (0, 0), BuildingBlock: UVAHIK_clean_linker_0, # of connection points: 2
#     Edge 85, Type (0, 0), BuildingBlock: UVAHIK_clean_linker_0, # of connection points: 2
#     Edge 86, Type (0, 0), BuildingBlock: UVAHIK_clean_linker_0, # of connection points: 2
#     Edge 87, Type (0, 0), BuildingBlock: UVAHIK_clean_linker_0, # of connection points: 2
#     Edge 88, Type (0, 0), BuildingBlock: UVAHIK_clean_linker_0, # of connection points: 2
#     Edge 89, Type (0, 0), BuildingBlock: UVAHIK_clean_linker_0, # of connection points: 2
#     Edge 90, Type (0, 0), BuildingBlock: UVAHIK_clean_linker_0, # of connection points: 2
#     Edge 91, Type (0, 0), BuildingBlock: UVAHIK_clean_linker_0, # of connection points: 2
#     Edge 92, Type (0, 0), BuildingBlock: UVAHIK_clean_linker_0, # of connection points: 2
#     Edge 93, Type (0, 0), BuildingBlock: UVAHIK_clean_linker_0, # of connection points: 2
#     Edge 94, Type (0, 0), BuildingBlock: UVAHIK_clean_linker_0, # of connection points: 2
#     Edge 95, Type (0, 0), BuildingBlock: UVAHIK_clean_linker_0, # of connection points: 2
# Relax obj value: 0.065
# Max RMSD: 0.095
# Mean RMSD: 0.095
data_MOF--net-upd--node1-MUDLON_clean_sbu_0--edge1-UVAHIK_clean_linker_0
_symmetry_space_group_name_H-M    P1
_symmetry_Int_Tables_number       1
_symmetry_cell_setting            triclinic
loop_
_symmetry_equiv_pos_as_xyz
'x, y, z'
_cell_length_a     58.311683
_cell_length_b     58.166075
_cell_length_c     87.485215
_cell_angle_alpha  90.027031
_cell_angle_beta   90.05328
_cell_angle_gamma 90.04341
loop_
_atom_site_label
_atom_site_type_symbol
_atom_site_fract_x
_atom_site_fract_y
_atom_site_fract_z
_atom_type_partial_charge
Mg0 Mg 0.14684 0.15368 0.31771 0.0
C1 C 0.09678 0.1672 0.32284 0.0
O2 O 0.10607 0.18692 0.32679 0.0
C3 C 0.17306 0.196 0.30754 0.0
O4 O 0.17278 0.19961 0.32236 0.0
C5 C 0.14849 0.10186 0.31393 0.0
O6 O 0.13102 0.10324 0.32336 0.0
O7 O 0.15925 0.12013 0.3104 0.0
O8 O 0.10955 0.15148 0.3174 0.0
O9 O 0.15563 0.1635 0.34106 0.0
C10 C 0.14209 0.15885 0.35204 0.0
O11 O 0.12455 0.14518 0.34949 0.0
O12 O 0.16225 0.17875 0.30218 0.0
Mg13 Mg 0.10819 0.89554 0.56558 0.0
C14 C 0.09281 0.84568 0.56993 0.0
O15 O 0.07311 0.85534 0.57336 0.0
C16 C 0.08024 0.93365 0.554 0.0
O17 O 0.09363 0.94315 0.56432 0.0
C18 C 0.14325 0.90028 0.54244 0.0
O19 O 0.12627 0.88894 0.53603 0.0
O20 O 0.14102 0.9066 0.55629 0.0
O21 O 0.1091 0.85819 0.56502 0.0
O22 O 0.10064 0.9038 0.58936 0.0
C23 C 0.1057 0.8893 0.59971 0.0
O24 O 0.11885 0.87176 0.59617 0.0
O25 O 0.08191 0.9121 0.55171 0.0
Mg26 Mg 0.36683 0.86053 0.81393 0.0
C27 C 0.41236 0.87891 0.81993 0.0
O28 O 0.39806 0.89593 0.82248 0.0
C29 C 0.33241 0.84136 0.79214 0.0
O30 O 0.32665 0.86315 0.79286 0.0
C31 C 0.36738 0.89781 0.79162 0.0
O32 O 0.38077 0.88177 0.78595 0.0
O33 O 0.35796 0.89419 0.80452 0.0
O34 O 0.40427 0.86 0.81492 0.0
O35 O 0.35875 0.85415 0.83784 0.0
C36 C 0.34664 0.83694 0.84177 0.0
O37 O 0.33532 0.82559 0.8312 0.0
O38 O 0.34972 0.83448 0.79976 0.0
Mg39 Mg 0.40386 0.12262 0.06826 0.0
C40 C 0.38722 0.1719 0.06706 0.0
O41 O 0.36841 0.16149 0.06253 0.0
C42 C 0.42617 0.08418 0.0523 0.0
O43 O 0.40894 0.0746 0.05959 0.0
C44 C 0.36912 0.1124 0.0449 0.0
O45 O 0.38724 0.11881 0.03706 0.0
O46 O 0.37045 0.11206 0.05942 0.0
O47 O 0.40534 0.16006 0.06899 0.0
O48 O 0.41137 0.11328 0.09194 0.0
C49 C 0.43136 0.10566 0.09487 0.0
O50 O 0.44531 0.10137 0.08345 0.0
O51 O 0.42905 0.1058 0.05357 0.0
Mg52 Mg 0.14716 0.85579 0.20427 0.0
C53 C 0.09729 0.86949 0.20355 0.0
O54 O 0.10676 0.88942 0.2067 0.0
C55 C 0.184 0.83777 0.22452 0.0
O56 O 0.19093 0.85884 0.22174 0.0
C57 C 0.14883 0.89206 0.22752 0.0
O58 O 0.13929 0.87436 0.23436 0.0
O59 O 0.15471 0.88991 0.21358 0.0
O60 O 0.10992 0.85164 0.20328 0.0
O61 O 0.15768 0.84849 0.18079 0.0
C62 C 0.14364 0.85243 0.16994 0.0
O63 O 0.12505 0.86438 0.17289 0.0
O64 O 0.16513 0.83096 0.21872 0.0
Mg65 Mg 0.40244 0.89781 0.45232 0.0
C66 C 0.4162 0.8478 0.44844 0.0
O67 O 0.43622 0.85716 0.44548 0.0
C68 C 0.42563 0.9357 0.46827 0.0
O69 O 0.40964 0.94578 0.46007 0.0
C70 C 0.35064 0.90043 0.4554 0.0
O71 O 0.35184 0.88251 0.44628 0.0
O72 O 0.36899 0.91097 0.45895 0.0
O73 O 0.39987 0.86055 0.45296 0.0
O74 O 0.4127 0.90465 0.42878 0.0
C75 C 0.43345 0.91037 0.42638 0.0
O76 O 0.44692 0.91416 0.43816 0.0
O77 O 0.42719 0.91388 0.46772 0.0
Mg78 Mg 0.36149 0.15723 0.70134 0.0
C79 C 0.41119 0.16988 0.69513 0.0
O80 O 0.40157 0.18876 0.68997 0.0
C81 C 0.33482 0.1742 0.72889 0.0
O82 O 0.33556 0.15216 0.73212 0.0
C83 C 0.36091 0.10539 0.704 0.0
O84 O 0.37935 0.10782 0.69553 0.0
O85 O 0.3491 0.12309 0.70726 0.0
O86 O 0.39874 0.15494 0.70176 0.0
O87 O 0.35376 0.16805 0.67802 0.0
C88 C 0.34708 0.18865 0.67601 0.0
O89 O 0.34301 0.20151 0.68805 0.0
O90 O 0.34558 0.18153 0.71721 0.0
Mg91 Mg 0.11478 0.1222 0.95241 0.0
C92 C 0.1386 0.16677 0.94919 0.0
O93 O 0.15483 0.15158 0.94673 0.0
C94 C 0.08605 0.08523 0.96379 0.0
O95 O 0.10104 0.07554 0.95462 0.0
C96 C 0.16422 0.10119 0.9554 0.0
O97 O 0.16574 0.10277 0.94045 0.0
O98 O 0.14578 0.10715 0.96203 0.0
O99 O 0.11896 0.15958 0.95337 0.0
O100 O 0.10632 0.11554 0.92847 0.0
C101 C 0.09257 0.13076 0.92341 0.0
O102 O 0.08617 0.14732 0.93268 0.0
O103 O 0.08691 0.10695 0.96556 0.0
Mg104 Mg 0.86808 0.85605 0.69823 0.0
C105 C 0.91583 0.87431 0.6982 0.0
O106 O 0.90351 0.8932 0.69802 0.0
C107 C 0.8286 0.83567 0.71398 0.0
O108 O 0.82035 0.85406 0.70722 0.0
C109 C 0.86011 0.89149 0.72102 0.0
O110 O 0.86886 0.87389 0.72841 0.0
O111 O 0.85704 0.88962 0.70666 0.0
O112 O 0.90553 0.85511 0.69957 0.0
O113 O 0.86076 0.84712 0.67447 0.0
C114 C 0.87518 0.85255 0.66417 0.0
O115 O 0.89181 0.86684 0.66767 0.0
O116 O 0.8498 0.83106 0.71232 0.0
Mg117 Mg 0.90333 0.11823 0.45335 0.0
C118 C 0.90665 0.12467 0.41915 0.0
O119 O 0.89245 0.1415 0.42238 0.0
C120 C 0.86815 0.11232 0.47626 0.0
O121 O 0.885 0.12365 0.48283 0.0
C122 C 0.93138 0.08042 0.46511 0.0
O123 O 0.91814 0.07087 0.45472 0.0
O124 O 0.92957 0.10196 0.46741 0.0
O125 O 0.91188 0.11041 0.42962 0.0
O126 O 0.90151 0.15557 0.45423 0.0
C127 C 0.91623 0.16844 0.44777 0.0
O128 O 0.93531 0.15923 0.44264 0.0
O129 O 0.8705 0.10641 0.46233 0.0
Mg130 Mg 0.64159 0.1587 0.20412 0.0
C131 C 0.59138 0.14624 0.20922 0.0
O132 O 0.60051 0.129 0.21676 0.0
C133 C 0.67936 0.17613 0.22373 0.0
O134 O 0.68532 0.15469 0.2212 0.0
C135 C 0.64645 0.1056 0.20573 0.0
O136 O 0.63715 0.10574 0.19204 0.0
O137 O 0.65031 0.12456 0.21248 0.0
O138 O 0.6044 0.16222 0.20437 0.0
O139 O 0.64901 0.16491 0.18011 0.0
C140 C 0.66402 0.17938 0.17579 0.0
O141 O 0.67792 0.18837 0.18599 0.0
O142 O 0.66064 0.18345 0.21802 0.0
Mg143 Mg 0.6062 0.89905 0.95483 0.0
C144 C 0.60119 0.89236 0.92078 0.0
O145 O 0.61168 0.87313 0.92433 0.0
C146 C 0.65757 0.91354 0.95711 0.0
O147 O 0.65845 0.9096 0.94233 0.0
C148 C 0.5817 0.93802 0.9684 0.0
O149 O 0.59844 0.94753 0.96058 0.0
O150 O 0.57998 0.9162 0.96835 0.0
O151 O 0.59872 0.90768 0.93105 0.0
O152 O 0.60507 0.86157 0.95557 0.0
C153 C 0.62389 0.85049 0.95529 0.0
O154 O 0.64317 0.86189 0.95697 0.0
O155 O 0.63871 0.91092 0.96416 0.0
Mg156 Mg 0.86349 0.1493 0.8135 0.0
C157 C 0.90642 0.13598 0.82793 0.0
O158 O 0.89012 0.13056 0.83763 0.0
C159 C 0.85204 0.1961 0.79834 0.0
O160 O 0.86386 0.20499 0.8097 0.0
C161 C 0.85434 0.09681 0.81061 0.0
O162 O 0.8669 0.09515 0.82302 0.0
O163 O 0.84958 0.11661 0.80532 0.0
O164 O 0.90073 0.14539 0.81533 0.0
O165 O 0.85385 0.1608 0.83638 0.0
C166 C 0.83872 0.17586 0.83938 0.0
O167 O 0.82495 0.18286 0.82844 0.0
O168 O 0.85076 0.17436 0.79704 0.0
Mg169 Mg 0.61029 0.11551 0.567 0.0
C170 C 0.60273 0.1248 0.60063 0.0
O171 O 0.61723 0.14145 0.59755 0.0
C172 C 0.66183 0.11079 0.56417 0.0
O173 O 0.66103 0.12903 0.57302 0.0
C174 C 0.58529 0.07781 0.55237 0.0
O175 O 0.6005 0.06767 0.56118 0.0
O176 O 0.58488 0.09969 0.55203 0.0
O177 O 0.59845 0.10988 0.59037 0.0
O178 O 0.61504 0.1525 0.56497 0.0
C179 C 0.60016 0.16718 0.56916 0.0
O180 O 0.57941 0.16011 0.57263 0.0
O181 O 0.64322 0.10056 0.5608 0.0
Mg182 Mg 0.63999 0.85609 0.31147 0.0
C183 C 0.58986 0.86898 0.30844 0.0
O184 O 0.59907 0.88777 0.30284 0.0
C185 C 0.67953 0.83805 0.29405 0.0
O186 O 0.68665 0.85835 0.29864 0.0
C187 C 0.64634 0.89204 0.28829 0.0
O188 O 0.6402 0.87375 0.28046 0.0
O189 O 0.64818 0.8903 0.30275 0.0
O190 O 0.60277 0.85186 0.31126 0.0
O191 O 0.64802 0.8493 0.33538 0.0
C192 C 0.63308 0.85493 0.34529 0.0
O193 O 0.61603 0.86824 0.34105 0.0
O194 O 0.65944 0.83152 0.29775 0.0
Mg195 Mg 0.9058 0.89894 0.06039 0.0
C196 C 0.93909 0.90741 0.08516 0.0
O197 O 0.95158 0.90841 0.0727 0.0
C198 C 0.86937 0.91158 0.03937 0.0
O199 O 0.88644 0.90446 0.0308 0.0
C200 C 0.92912 0.93759 0.04561 0.0
O201 O 0.91416 0.94705 0.05491 0.0
O202 O 0.93007 0.91574 0.04496 0.0
O203 O 0.91748 0.90503 0.08379 0.0
O204 O 0.90242 0.86171 0.05924 0.0
C205 C 0.91727 0.84832 0.06506 0.0
O206 O 0.93698 0.85688 0.06962 0.0
O207 O 0.87216 0.91192 0.05381 0.0
Mg208 Mg 0.6434 0.65842 0.81309 0.0
C209 C 0.59927 0.63366 0.81481 0.0
O210 O 0.6145 0.61779 0.8181 0.0
C211 C 0.67447 0.69729 0.80437 0.0
O212 O 0.67928 0.69496 0.81896 0.0
C213 C 0.65336 0.62209 0.79162 0.0
O214 O 0.64191 0.63788 0.78405 0.0
O215 O 0.6583 0.62599 0.80556 0.0
O216 O 0.60639 0.65338 0.81061 0.0
O217 O 0.64829 0.66842 0.83712 0.0
C218 C 0.63044 0.67609 0.84381 0.0
O219 O 0.61102 0.67655 0.83624 0.0
O220 O 0.6588 0.68477 0.79856 0.0
Mg221 Mg 0.60898 0.40039 0.06733 0.0
C222 C 0.63138 0.35445 0.06874 0.0
O223 O 0.64899 0.36854 0.06896 0.0
C224 C 0.57813 0.4364 0.05579 0.0
O225 O 0.58852 0.44606 0.06748 0.0
C226 C 0.64477 0.41009 0.04496 0.0
O227 O 0.62843 0.39957 0.03731 0.0
O228 O 0.64162 0.41402 0.05913 0.0
O229 O 0.61142 0.36287 0.06686 0.0
O230 O 0.59887 0.40861 0.09078 0.0
C231 C 0.60235 0.39405 0.1014 0.0
O232 O 0.61514 0.376 0.0985 0.0
O233 O 0.58284 0.41556 0.05262 0.0
Mg234 Mg 0.86931 0.36031 0.31341 0.0
C235 C 0.91658 0.34253 0.31905 0.0
O236 O 0.9042 0.32669 0.32587 0.0
C237 C 0.84884 0.31496 0.30091 0.0
O238 O 0.86271 0.30514 0.31077 0.0
C239 C 0.86985 0.40075 0.29361 0.0
O240 O 0.88415 0.38629 0.28711 0.0
O241 O 0.86014 0.39479 0.30601 0.0
O242 O 0.90637 0.35775 0.31115 0.0
O243 O 0.865 0.353 0.33762 0.0
C244 C 0.84971 0.33989 0.34322 0.0
O245 O 0.83274 0.33291 0.3345 0.0
O246 O 0.84901 0.33672 0.29956 0.0
Mg247 Mg 0.90428 0.6116 0.56585 0.0
C248 C 0.91823 0.66216 0.56829 0.0
O249 O 0.9385 0.65331 0.57118 0.0
C250 C 0.93367 0.57417 0.55461 0.0
O251 O 0.92257 0.565 0.56617 0.0
C252 C 0.85276 0.60936 0.56181 0.0
O253 O 0.85401 0.62733 0.57088 0.0
O254 O 0.87103 0.59842 0.55865 0.0
O255 O 0.90193 0.64887 0.56439 0.0
O256 O 0.91427 0.60484 0.58946 0.0
C257 C 0.90981 0.61961 0.59978 0.0
O258 O 0.89631 0.63696 0.59641 0.0
O259 O 0.92987 0.59516 0.55134 0.0
Mg260 Mg 0.65481 0.3617 0.69929 0.0
C261 C 0.60665 0.37818 0.6978 0.0
O262 O 0.61839 0.39743 0.69735 0.0
C263 C 0.69308 0.34283 0.7179 0.0
O264 O 0.69986 0.36393 0.71503 0.0
C265 C 0.65727 0.39896 0.72177 0.0
O266 O 0.64641 0.38226 0.72883 0.0
O267 O 0.66395 0.3956 0.7081 0.0
O268 O 0.61742 0.35938 0.69989 0.0
O269 O 0.66083 0.3556 0.67508 0.0
C270 C 0.67255 0.33846 0.67056 0.0
O271 O 0.68466 0.32687 0.6806 0.0
O272 O 0.67369 0.33626 0.71278 0.0
Mg273 Mg 0.89966 0.40448 0.9471 0.0
C274 C 0.8778 0.36144 0.93937 0.0
O275 O 0.86357 0.3779 0.93538 0.0
C276 C 0.92219 0.44058 0.96533 0.0
O277 O 0.90325 0.45019 0.96028 0.0
C278 C 0.86176 0.40755 0.96864 0.0
O279 O 0.87651 0.39315 0.97475 0.0
O280 O 0.86667 0.41654 0.95579 0.0
O281 O 0.89639 0.36708 0.94607 0.0
O282 O 0.90836 0.4119 0.9234 0.0
C283 C 0.92258 0.42728 0.91929 0.0
O284 O 0.92997 0.44223 0.92942 0.0
O285 O 0.92605 0.41966 0.96183 0.0
Mg286 Mg 0.86402 0.6569 0.19794 0.0
C287 C 0.91219 0.63896 0.19847 0.0
O288 O 0.9004 0.61972 0.19857 0.0
C289 C 0.84402 0.70194 0.21061 0.0
O290 O 0.8547 0.7112 0.19892 0.0
C291 C 0.85615 0.61981 0.21946 0.0
O292 O 0.86445 0.63697 0.22754 0.0
O293 O 0.85307 0.62281 0.20519 0.0
O294 O 0.90139 0.65793 0.19953 0.0
O295 O 0.8567 0.66711 0.1744 0.0
C296 C 0.87191 0.66329 0.16428 0.0
O297 O 0.88952 0.65031 0.16786 0.0
O298 O 0.84604 0.6805 0.21305 0.0
Mg299 Mg 0.61211 0.61874 0.44894 0.0
C300 C 0.59532 0.66819 0.44497 0.0
O301 O 0.57575 0.65796 0.4419 0.0
C302 C 0.58589 0.57996 0.46118 0.0
O303 O 0.60023 0.57065 0.45139 0.0
C304 C 0.64757 0.61467 0.47197 0.0
O305 O 0.63064 0.62608 0.47834 0.0
O306 O 0.64522 0.60816 0.45815 0.0
O307 O 0.61219 0.65614 0.4495 0.0
O308 O 0.60408 0.61019 0.42524 0.0
C309 C 0.60813 0.62495 0.41484 0.0
O310 O 0.62069 0.64301 0.41823 0.0
O311 O 0.5863 0.60169 0.46292 0.0
Mg312 Mg 0.3648 0.36067 0.20539 0.0
C313 C 0.41145 0.38013 0.20087 0.0
O314 O 0.39833 0.39848 0.20059 0.0
C315 C 0.33913 0.31843 0.21622 0.0
O316 O 0.33941 0.3144 0.20145 0.0
C317 C 0.33961 0.39774 0.22347 0.0
O318 O 0.32783 0.3799 0.22828 0.0
O319 O 0.35472 0.39485 0.21316 0.0
O320 O 0.40224 0.36077 0.20383 0.0
O321 O 0.35357 0.35086 0.18251 0.0
C322 C 0.36473 0.35672 0.17064 0.0
O323 O 0.38125 0.37194 0.17196 0.0
O324 O 0.34986 0.33588 0.22136 0.0
Mg325 Mg 0.40168 0.61223 0.94814 0.0
C326 C 0.40928 0.61782 0.91399 0.0
O327 O 0.39634 0.63595 0.91631 0.0
C328 C 0.3503 0.60647 0.95122 0.0
O329 O 0.35062 0.62341 0.94129 0.0
C330 C 0.43286 0.57733 0.96037 0.0
O331 O 0.42306 0.56748 0.94852 0.0
O332 O 0.42757 0.59805 0.96348 0.0
O333 O 0.41268 0.60386 0.92496 0.0
O334 O 0.39662 0.64931 0.9485 0.0
C335 C 0.41172 0.66391 0.94454 0.0
O336 O 0.43282 0.65692 0.94207 0.0
O337 O 0.36917 0.5974 0.95527 0.0
Mg338 Mg 0.14407 0.65562 0.70287 0.0
C339 C 0.09678 0.63589 0.70215 0.0
O340 O 0.10949 0.61726 0.7024 0.0
C341 C 0.16703 0.70046 0.7129 0.0
O342 O 0.16139 0.70682 0.69899 0.0
C343 C 0.15572 0.62042 0.72533 0.0
O344 O 0.14879 0.63818 0.73339 0.0
O345 O 0.15623 0.62225 0.71084 0.0
O346 O 0.1066 0.65533 0.70364 0.0
O347 O 0.15161 0.66508 0.67925 0.0
C348 C 0.13771 0.65888 0.6688 0.0
O349 O 0.12177 0.64374 0.67214 0.0
O350 O 0.16077 0.68078 0.71767 0.0
Mg351 Mg 0.11444 0.39593 0.45207 0.0
C352 C 0.08248 0.39033 0.42715 0.0
O353 O 0.07255 0.38168 0.43932 0.0
C354 C 0.16557 0.40512 0.45356 0.0
O355 O 0.16579 0.38795 0.44379 0.0
C356 C 0.08355 0.43087 0.46405 0.0
O357 O 0.09393 0.44046 0.45234 0.0
O358 O 0.08841 0.41009 0.46729 0.0
O359 O 0.10183 0.40017 0.42873 0.0
O360 O 0.12212 0.35927 0.45311 0.0
C361 C 0.10837 0.34249 0.45487 0.0
O362 O 0.08694 0.34653 0.4586 0.0
O363 O 0.14639 0.4131 0.45797 0.0
Mg364 Mg 0.36917 0.65273 0.31685 0.0
C365 C 0.4183 0.63547 0.31426 0.0
O366 O 0.40757 0.61617 0.3112 0.0
C367 C 0.34779 0.69769 0.30563 0.0
O368 O 0.35634 0.70562 0.31849 0.0
C369 C 0.35887 0.59999 0.31672 0.0
O370 O 0.36961 0.59941 0.32992 0.0
O371 O 0.35621 0.61912 0.30992 0.0
O372 O 0.40666 0.65388 0.3155 0.0
O373 O 0.36209 0.66309 0.34033 0.0
C374 C 0.37704 0.65846 0.35048 0.0
O375 O 0.39402 0.64465 0.34689 0.0
O376 O 0.35166 0.67693 0.30187 0.0
Mg377 Mg 0.10898 0.62283 0.06083 0.0
C378 C 0.08862 0.63302 0.09066 0.0
O379 O 0.08434 0.65119 0.08226 0.0
C380 C 0.1439 0.61388 0.03819 0.0
O381 O 0.12749 0.62534 0.03126 0.0
C382 C 0.08474 0.58545 0.04508 0.0
O383 O 0.10243 0.57555 0.05166 0.0
O384 O 0.08224 0.60708 0.0467 0.0
O385 O 0.09958 0.61631 0.08471 0.0
O386 O 0.11335 0.66019 0.05991 0.0
C387 C 0.13173 0.66684 0.06645 0.0
O388 O 0.14653 0.65113 0.07084 0.0
O389 O 0.14132 0.60905 0.05228 0.0
Mg390 Mg 0.14514 0.36056 0.81387 0.0
C391 C 0.09798 0.38194 0.81165 0.0
O392 O 0.11038 0.399 0.80634 0.0
C393 C 0.16326 0.31288 0.80399 0.0
O394 O 0.15465 0.30608 0.81711 0.0
C395 C 0.16049 0.4117 0.81147 0.0
O396 O 0.15445 0.41319 0.8259 0.0
O397 O 0.15894 0.39246 0.80465 0.0
O398 O 0.10767 0.36269 0.81413 0.0
O399 O 0.15267 0.3538 0.8378 0.0
C400 C 0.17011 0.34319 0.84292 0.0
O401 O 0.18696 0.3381 0.83355 0.0
O402 O 0.16028 0.33358 0.79976 0.0
Mg403 Mg 0.40919 0.39308 0.56006 0.0
C404 C 0.43305 0.38392 0.58859 0.0
O405 O 0.4396 0.36781 0.57903 0.0
C406 C 0.37497 0.40552 0.53735 0.0
O407 O 0.3923 0.39681 0.52969 0.0
C408 C 0.43672 0.431 0.54821 0.0
O409 O 0.42264 0.44045 0.55811 0.0
O410 O 0.43571 0.40933 0.54624 0.0
O411 O 0.41893 0.39908 0.5839 0.0
O412 O 0.40655 0.35565 0.55884 0.0
C413 C 0.3869 0.34615 0.55831 0.0
O414 O 0.36881 0.359 0.55567 0.0
O415 O 0.37676 0.40715 0.55182 0.0
C416 C 0.09932 0.30158 0.44774 0.0
C417 C 0.11551 0.31931 0.44959 0.0
C418 C 0.10525 0.28123 0.44013 0.0
C419 C 0.14484 0.2621 0.41032 0.0
H420 H 0.12232 0.2011 0.41997 0.0
C421 C 0.16205 0.18682 0.36942 0.0
C422 C 0.14335 0.17224 0.36645 0.0
C423 C 0.16154 0.2021 0.38178 0.0
C424 C 0.12864 0.21805 0.41705 0.0
H425 H 0.15112 0.32874 0.44593 0.0
H426 H 0.16139 0.2933 0.43281 0.0
H427 H 0.11579 0.23271 0.43787 0.0
H428 H 0.1099 0.16149 0.37463 0.0
H429 H 0.10875 0.1884 0.39586 0.0
H430 H 0.15684 0.24796 0.38929 0.0
C431 C 0.14401 0.29529 0.43697 0.0
C432 C 0.12493 0.23614 0.42734 0.0
C433 C 0.13813 0.31557 0.44458 0.0
C434 C 0.12465 0.17243 0.37659 0.0
C435 C 0.12404 0.18786 0.38885 0.0
C436 C 0.14838 0.24412 0.4 0.0
C437 C 0.12747 0.27821 0.43421 0.0
C438 C 0.13281 0.25842 0.42402 0.0
C439 C 0.1422 0.20334 0.39138 0.0
C440 C 0.14013 0.22188 0.40312 0.0
H441 H 0.08176 0.30386 0.45145 0.0
H442 H 0.09207 0.26844 0.43815 0.0
H443 H 0.15076 0.27913 0.40725 0.0
H444 H 0.1768 0.18698 0.3619 0.0
H445 H 0.1761 0.21335 0.38356 0.0
C446 C 0.07878 0.90784 0.61843 0.0
C447 C 0.09288 0.88923 0.61435 0.0
C448 C 0.0638 0.90612 0.63088 0.0
C449 C 0.03018 0.86283 0.65065 0.0
H450 H 0.01762 0.91124 0.67991 0.0
C451 C 0.95342 0.8553 0.69178 0.0
C452 C 0.94031 0.87538 0.6936 0.0
C453 C 0.97527 0.85632 0.68514 0.0
C454 C 0.02076 0.89759 0.67176 0.0
H455 H 0.10311 0.85462 0.62067 0.0
H456 H 0.07679 0.8516 0.64223 0.0
H457 H 0.05003 0.91502 0.66243 0.0
H458 H 0.94044 0.91242 0.69059 0.0
H459 H 0.97782 0.91411 0.6787 0.0
H460 H 1.00034 0.84593 0.65922 0.0
C461 C 0.07733 0.86749 0.63578 0.0
C462 C 0.03942 0.89975 0.6618 0.0
C463 C 0.09251 0.86931 0.62347 0.0
C464 C 0.95001 0.89657 0.68937 0.0
C465 C 0.97166 0.89757 0.68261 0.0
C466 C 0.01135 0.86081 0.66044 0.0
C467 C 0.06242 0.88565 0.63938 0.0
C468 C 0.04412 0.88254 0.651 0.0
C469 C 0.98441 0.87741 0.68004 0.0
C470 C 1.0061 0.87834 0.67096 0.0
H471 H 0.07866 0.92342 0.61165 0.0
H472 H 0.05242 0.92036 0.63334 0.0
H473 H 0.03321 0.8494 0.64231 0.0
H474 H 0.94652 0.8387 0.695 0.0
H475 H 0.98474 0.84047 0.68368 0.0
C476 C 0.42065 0.70421 0.93609 0.0
C477 C 0.40441 0.6871 0.93943 0.0
C478 C 0.41394 0.72477 0.92906 0.0
C479 C 0.36204 0.75862 0.91663 0.0
H480 H 0.40369 0.78047 0.88533 0.0
C481 C 0.33564 0.80836 0.86193 0.0
C482 C 0.34989 0.82645 0.85708 0.0
C483 C 0.34132 0.79539 0.87486 0.0
C484 C 0.39199 0.77482 0.89419 0.0
H485 H 0.3682 0.67859 0.93856 0.0
H486 H 0.35667 0.71371 0.92586 0.0
H487 H 0.41596 0.75021 0.90259 0.0
H488 H 0.38058 0.84594 0.86257 0.0
H489 H 0.39063 0.823 0.88496 0.0
H490 H 0.33758 0.78244 0.90735 0.0
C491 C 0.37453 0.71178 0.92897 0.0
C492 C 0.39906 0.75748 0.90419 0.0
C493 C 0.38119 0.69144 0.93623 0.0
C494 C 0.36919 0.83215 0.86598 0.0
C495 C 0.37505 0.81894 0.87876 0.0
C496 C 0.35484 0.7757 0.90642 0.0
C497 C 0.39086 0.72855 0.92494 0.0
C498 C 0.38408 0.74883 0.91543 0.0
C499 C 0.36153 0.80003 0.88307 0.0
C500 C 0.36966 0.78376 0.89498 0.0
H501 H 0.43866 0.70146 0.93852 0.0
H502 H 0.42699 0.73746 0.92655 0.0
H503 H 0.35013 0.75286 0.92531 0.0
H504 H 0.32065 0.80355 0.85534 0.0
H505 H 0.33063 0.78085 0.87789 0.0
C506 C 0.46159 0.09464 0.11367 0.0
C507 C 0.44048 0.10536 0.11069 0.0
C508 C 0.47248 0.09742 0.12776 0.0
C509 C 0.47699 0.13924 0.15888 0.0
H510 H 0.51641 0.09243 0.17628 0.0
C511 C 0.55944 0.15992 0.1923 0.0
C512 C 0.56759 0.14432 0.20331 0.0
C513 C 0.53913 0.15549 0.18431 0.0
C514 C 0.50521 0.10567 0.17183 0.0
H515 H 0.41361 0.12645 0.1205 0.0
H516 H 0.43266 0.13127 0.14526 0.0
H517 H 0.48914 0.08204 0.15642 0.0
H518 H 0.55963 0.11285 0.21551 0.0
H519 H 0.52398 0.10536 0.20179 0.0
H520 H 0.49336 0.16294 0.17415 0.0
C521 C 0.44086 0.12086 0.13658 0.0
C522 C 0.48973 0.09973 0.16028 0.0
C523 C 0.42986 0.11793 0.12245 0.0
C524 C 0.55399 0.12513 0.20699 0.0
C525 C 0.53362 0.12073 0.19904 0.0
C526 C 0.49247 0.14519 0.17047 0.0
C527 C 0.46257 0.11108 0.13926 0.0
C528 C 0.47595 0.11656 0.15331 0.0
C529 C 0.52638 0.13539 0.1872 0.0
C530 C 0.50728 0.1286 0.17677 0.0
H531 H 0.47022 0.08479 0.10487 0.0
H532 H 0.48927 0.08984 0.12932 0.0
H533 H 0.46673 0.15268 0.15373 0.0
H534 H 0.56943 0.17491 0.18917 0.0
H535 H 0.53424 0.16711 0.17522 0.0
C536 C 0.12767 0.841 0.14443 0.0
C537 C 0.14553 0.83979 0.15523 0.0
C538 C 0.12725 0.82623 0.13182 0.0
C539 C 0.16191 0.78548 0.10877 0.0
H540 H 0.10405 0.75349 0.10363 0.0
C541 C 0.15507 0.69724 0.07933 0.0
C542 C 0.13473 0.69089 0.07178 0.0
C543 C 0.15692 0.71846 0.0867 0.0
C544 C 0.12022 0.76254 0.1046 0.0
H545 H 0.17772 0.823 0.16065 0.0
H546 H 0.17704 0.79729 0.13858 0.0
H547 H 0.10674 0.78528 0.1216 0.0
H548 H 0.1008 0.70256 0.06529 0.0
H549 H 0.10418 0.73996 0.0779 0.0
H550 H 0.17548 0.76254 0.09191 0.0
C551 C 0.16333 0.80969 0.13989 0.0
C552 C 0.12178 0.78078 0.11498 0.0
C553 C 0.1637 0.8244 0.15258 0.0
C554 C 0.1167 0.70688 0.07103 0.0
C555 C 0.11857 0.72824 0.07839 0.0
C556 C 0.16031 0.76734 0.09829 0.0
C557 C 0.14476 0.80997 0.12961 0.0
C558 C 0.14274 0.79219 0.11741 0.0
C559 C 0.1385 0.73405 0.08668 0.0
C560 C 0.13956 0.75527 0.0963 0.0
H561 H 0.11343 0.8527 0.14604 0.0
H562 H 0.11289 0.82713 0.12398 0.0
H563 H 0.17823 0.79412 0.11023 0.0
H564 H 0.16934 0.68539 0.08012 0.0
H565 H 0.17243 0.72208 0.09307 0.0
C566 C 0.46532 0.91881 0.40821 0.0
C567 C 0.44347 0.90945 0.41084 0.0
C568 C 0.47642 0.9154 0.39427 0.0
C569 C 0.47958 0.87426 0.36275 0.0
H570 H 0.5187 0.92097 0.3449 0.0
C571 C 0.55962 0.85423 0.32632 0.0
C572 C 0.56653 0.87014 0.31513 0.0
C573 C 0.54007 0.85833 0.33518 0.0
C574 C 0.50758 0.90777 0.34952 0.0
H575 H 0.41574 0.88983 0.40067 0.0
H576 H 0.43524 0.8838 0.3762 0.0
H577 H 0.49273 0.93122 0.36555 0.0
H578 H 0.55714 0.90169 0.30352 0.0
H579 H 0.52284 0.90858 0.31874 0.0
H580 H 0.49483 0.85069 0.34689 0.0
C581 C 0.44378 0.89372 0.38502 0.0
C582 C 0.49287 0.91363 0.36149 0.0
C583 C 0.43254 0.89734 0.39897 0.0
C584 C 0.55243 0.88921 0.31215 0.0
C585 C 0.53284 0.89325 0.32095 0.0
C586 C 0.49438 0.86836 0.35078 0.0
C587 C 0.46601 0.90241 0.38261 0.0
C588 C 0.47911 0.89684 0.3685 0.0
C589 C 0.52695 0.87837 0.33299 0.0
C590 C 0.50894 0.88495 0.34424 0.0
H591 H 0.47421 0.92823 0.41711 0.0
H592 H 0.49362 0.92212 0.39287 0.0
H593 H 0.46929 0.86089 0.36797 0.0
H594 H 0.57012 0.8394 0.32896 0.0
H595 H 0.53615 0.84656 0.3444 0.0
C596 C 0.33889 0.22176 0.65868 0.0
C597 C 0.347 0.19921 0.66059 0.0
C598 C 0.34127 0.23306 0.6447 0.0
C599 C 0.34003 0.25107 0.6124 0.0
H600 H 0.3995 0.2468 0.59284 0.0
C601 C 0.36223 0.3117 0.56312 0.0
C602 C 0.38365 0.32261 0.56442 0.0
C603 C 0.35732 0.29199 0.57166 0.0
C604 C 0.38279 0.24819 0.59814 0.0
H605 H 0.36321 0.17048 0.64906 0.0
H606 H 0.36718 0.19022 0.6245 0.0
H607 H 0.39044 0.2216 0.61429 0.0
H608 H 0.41731 0.32038 0.57488 0.0
H609 H 0.40864 0.28645 0.59002 0.0
H610 H 0.33279 0.27853 0.59699 0.0
C611 C 0.35921 0.19923 0.63393 0.0
C612 C 0.37748 0.23352 0.61034 0.0
C613 C 0.35676 0.18786 0.64797 0.0
C614 C 0.40064 0.31239 0.57357 0.0
C615 C 0.39565 0.29281 0.58225 0.0
C616 C 0.34534 0.26576 0.60029 0.0
C617 C 0.35181 0.22212 0.63221 0.0
C618 C 0.35625 0.23523 0.61789 0.0
C619 C 0.37363 0.28287 0.58186 0.0
C620 C 0.367 0.26493 0.59322 0.0
H621 H 0.33129 0.23103 0.66814 0.0
H622 H 0.33566 0.25076 0.6439 0.0
H623 H 0.32337 0.25261 0.61778 0.0
H624 H 0.34884 0.31901 0.55603 0.0
H625 H 0.34038 0.28446 0.57074 0.0
C626 C 0.06986 0.14853 0.90245 0.0
C627 C 0.08213 0.12949 0.90798 0.0
C628 C 0.05704 0.147 0.88905 0.0
C629 C 0.02592 0.10385 0.86667 0.0
H630 H 0.00948 0.158 0.84325 0.0
C631 C 0.93519 0.11847 0.84539 0.0
C632 C 0.9306 0.13138 0.83217 0.0
C633 C 0.95759 0.11517 0.85045 0.0
C634 C 0.0141 0.1425 0.84937 0.0
H635 H 0.09182 0.09427 0.90319 0.0
H636 H 0.06945 0.09156 0.8795 0.0
H637 H 0.04384 0.15843 0.85904 0.0
H638 H 0.94616 0.15026 0.81351 0.0
H639 H 0.9857 0.14442 0.82239 0.0
H640 H 0.99612 0.08797 0.85708 0.0
C641 C 0.06951 0.10764 0.88574 0.0
C642 C 0.03369 0.14285 0.85862 0.0
C643 C 0.08244 0.10921 0.89926 0.0
C644 C 0.94914 0.14029 0.82378 0.0
C645 C 0.97175 0.13701 0.82889 0.0
C646 C 1.0065 0.10341 0.85729 0.0
C647 C 0.05614 0.12637 0.8807 0.0
C648 C 0.03916 0.12396 0.86802 0.0
C649 C 0.9762 0.12462 0.84243 0.0
C650 C 0.99966 0.12315 0.84917 0.0
H651 H 0.0694 0.16452 0.90881 0.0
H652 H 0.04678 0.1617 0.88577 0.0
H653 H 0.02952 0.08894 0.87367 0.0
H654 H 0.92139 0.11124 0.85214 0.0
H655 H 0.96016 0.10597 0.86107 0.0
C656 C 0.93088 0.7019 0.57562 0.0
C657 C 0.9131 0.68614 0.5729 0.0
C658 C 0.92624 0.72335 0.5822 0.0
C659 C 0.87815 0.7626 0.59425 0.0
H660 H 0.92303 0.7827 0.62412 0.0
C661 C 0.85978 0.82242 0.64621 0.0
C662 C 0.8765 0.83903 0.64979 0.0
C663 C 0.86329 0.80689 0.63419 0.0
C664 C 0.91045 0.77751 0.61567 0.0
H665 H 0.87633 0.68089 0.57443 0.0
H666 H 0.86835 0.71763 0.58638 0.0
H667 H 0.93141 0.7498 0.60801 0.0
H668 H 0.90933 0.85324 0.64285 0.0
H669 H 0.91547 0.82601 0.62209 0.0
H670 H 0.85672 0.78978 0.60275 0.0
C671 C 0.88585 0.71392 0.5831 0.0
C672 C 0.91529 0.75865 0.60633 0.0
C673 C 0.89045 0.69268 0.57627 0.0
C674 C 0.89611 0.84063 0.64049 0.0
C675 C 0.89973 0.82496 0.62863 0.0
C676 C 0.87316 0.78127 0.60382 0.0
C677 C 0.90374 0.72937 0.58652 0.0
C678 C 0.89915 0.75074 0.59555 0.0
C679 C 0.88367 0.80752 0.62563 0.0
C680 C 0.88922 0.78881 0.61469 0.0
H681 H 0.94849 0.69744 0.57304 0.0
H682 H 0.94043 0.73496 0.58423 0.0
H683 H 0.86542 0.75738 0.58593 0.0
H684 H 0.84446 0.82074 0.65312 0.0
H685 H 0.85065 0.79357 0.63216 0.0
C686 C 0.05836 0.17883 0.33322 0.0
C687 C 0.07308 0.16156 0.32775 0.0
C688 C 0.03739 0.17309 0.34003 0.0
C689 C 0.01213 0.12737 0.36258 0.0
H690 H 0.95439 0.15865 0.35569 0.0
C691 C 0.93412 0.10693 0.40046 0.0
C692 C 0.92061 0.1257 0.40501 0.0
C693 C 0.95005 0.10926 0.38858 0.0
C694 C 0.97041 0.14987 0.3579 0.0
H695 H 0.0768 0.12473 0.32456 0.0
H696 H 0.04042 0.1148 0.33664 0.0
H697 H 0.98731 0.16733 0.33944 0.0
H698 H 0.91267 0.16143 0.40028 0.0
H699 H 0.9408 0.16575 0.38011 0.0
H700 H 0.99602 0.11086 0.3815 0.0
C701 C 0.04511 0.13276 0.33562 0.0
C702 C 0.98923 0.15479 0.3485 0.0
C703 C 0.06589 0.1385 0.32862 0.0
C704 C 0.92265 0.14653 0.39698 0.0
C705 C 0.93883 0.14898 0.38531 0.0
C706 C 0.99349 0.12273 0.37213 0.0
C707 C 0.03088 0.14996 0.34169 0.0
C708 C 0.01033 0.14371 0.35083 0.0
C709 C 0.95318 0.13055 0.38116 0.0
C710 C 0.97238 0.13407 0.37005 0.0
H711 H 0.06337 0.19675 0.33273 0.0
H712 H 0.0268 0.1867 0.34468 0.0
H713 H 0.02829 0.1188 0.36478 0.0
H714 H 0.93285 0.09062 0.40636 0.0
H715 H 0.96029 0.09446 0.38549 0.0
C716 C 0.65642 0.32277 0.07837 0.0
C717 C 0.63452 0.33037 0.07394 0.0
C718 C 0.65925 0.30173 0.0858 0.0
C719 C 0.62611 0.26103 0.10959 0.0
H720 H 0.68353 0.2274 0.10928 0.0
C721 C 0.64278 0.18631 0.15128 0.0
C722 C 0.66254 0.18957 0.16028 0.0
C723 C 0.63938 0.19923 0.13798 0.0
C724 C 0.66737 0.23657 0.10943 0.0
H725 H 0.59859 0.32094 0.07284 0.0
H726 H 0.6036 0.28375 0.08535 0.0
H727 H 0.67671 0.2573 0.09023 0.0
H728 H 0.69495 0.20774 0.16175 0.0
H729 H 0.68918 0.22997 0.13838 0.0
H730 H 0.61689 0.24031 0.12885 0.0
C731 C 0.61855 0.29443 0.08352 0.0
C732 C 0.66346 0.2538 0.09857 0.0
C733 C 0.61569 0.31568 0.0762 0.0
C734 C 0.67953 0.20486 0.15511 0.0
C735 C 0.67626 0.21754 0.14169 0.0
C736 C 0.62989 0.24359 0.12029 0.0
C737 C 0.64029 0.2875 0.08886 0.0
C738 C 0.64305 0.26676 0.09878 0.0
C739 C 0.65582 0.2154 0.13327 0.0
C740 C 0.65078 0.23158 0.12057 0.0
H741 H 0.67137 0.33359 0.0768 0.0
H742 H 0.67622 0.2973 0.08986 0.0
H743 H 0.61034 0.27077 0.11036 0.0
H744 H 0.62934 0.17468 0.15491 0.0
H745 H 0.62357 0.19709 0.13163 0.0
C746 C 0.58502 0.87419 0.89716 0.0
C747 C 0.58812 0.8939 0.90625 0.0
C748 C 0.56938 0.87423 0.88503 0.0
C749 C 0.51702 0.90512 0.87298 0.0
H750 H 0.52164 0.86616 0.83711 0.0
C751 C 0.44494 0.9032 0.82881 0.0
C752 C 0.43649 0.88128 0.82503 0.0
C753 C 0.466 0.9057 0.8362 0.0
C754 C 0.52013 0.87707 0.84709 0.0
H755 H 0.57861 0.92969 0.90892 0.0
H756 H 0.55198 0.93006 0.88742 0.0
H757 H 0.5545 0.86993 0.85437 0.0
H758 H 0.44429 0.84486 0.8251 0.0
H759 H 0.48134 0.84925 0.8381 0.0
H760 H 0.48273 0.9122 0.86578 0.0
C761 C 0.561 0.91426 0.88999 0.0
C762 C 0.53892 0.87923 0.85701 0.0
C763 C 0.57645 0.91414 0.90225 0.0
C764 C 0.45035 0.86197 0.82787 0.0
C765 C 0.47155 0.86449 0.8353 0.0
C766 C 0.49841 0.90314 0.86302 0.0
C767 C 0.55663 0.89407 0.88157 0.0
C768 C 0.53753 0.89313 0.87018 0.0
C769 C 0.47919 0.88635 0.84 0.0
C770 C 0.49965 0.88899 0.85002 0.0
H771 H 0.59371 0.85826 0.89991 0.0
H772 H 0.56643 0.85829 0.87895 0.0
H773 H 0.51496 0.91549 0.88316 0.0
H774 H 0.43486 0.91848 0.82661 0.0
H775 H 0.47164 0.9228 0.83938 0.0
C776 C 0.88985 0.32033 0.93468 0.0
C777 C 0.87296 0.33755 0.93433 0.0
C778 C 0.88571 0.29883 0.92789 0.0
C779 C 0.83894 0.26225 0.91105 0.0
H780 H 0.88783 0.23899 0.88538 0.0
C781 C 0.82413 0.20622 0.85734 0.0
C782 C 0.83996 0.18869 0.85405 0.0
C783 C 0.82745 0.22075 0.86992 0.0
C784 C 0.87409 0.245 0.89268 0.0
H785 H 0.83808 0.34522 0.92731 0.0
H786 H 0.8311 0.30838 0.91539 0.0
H787 H 0.89541 0.27089 0.9027 0.0
H788 H 0.87109 0.17196 0.86193 0.0
H789 H 0.87687 0.19741 0.88377 0.0
H790 H 0.81738 0.237 0.9004 0.0
C791 C 0.84745 0.31109 0.92099 0.0
C792 C 0.87845 0.26329 0.90267 0.0
C793 C 0.85155 0.33243 0.92775 0.0
C794 C 0.85855 0.18531 0.86408 0.0
C795 C 0.86198 0.19998 0.87655 0.0
C796 C 0.83453 0.24412 0.90094 0.0
C797 C 0.86459 0.29412 0.92066 0.0
C798 C 0.8608 0.27254 0.91174 0.0
C799 C 0.84677 0.2182 0.87941 0.0
C800 C 0.85194 0.2356 0.89141 0.0
H801 H 0.90651 0.32371 0.93968 0.0
H802 H 0.89921 0.28606 0.92805 0.0
H803 H 0.82503 0.26855 0.91809 0.0
H804 H 0.80964 0.20931 0.84987 0.0
H805 H 0.81549 0.23472 0.87175 0.0
C806 C 0.44227 0.14099 0.69038 0.0
C807 C 0.43496 0.16404 0.69054 0.0
C808 C 0.46314 0.13493 0.6836 0.0
C809 C 0.51904 0.15635 0.67043 0.0
H810 H 0.51238 0.11151 0.63794 0.0
C811 C 0.58591 0.1472 0.62229 0.0
C812 C 0.58811 0.12621 0.61446 0.0
C813 C 0.56954 0.14985 0.63382 0.0
C814 C 0.51487 0.12363 0.64718 0.0
H815 H 0.44454 0.19893 0.68461 0.0
H816 H 0.48128 0.18836 0.67313 0.0
H817 H 0.48006 0.1198 0.65455 0.0
H818 H 0.57588 0.09109 0.61329 0.0
H819 H 0.54809 0.09529 0.63393 0.0
H820 H 0.55388 0.1601 0.66326 0.0
C821 C 0.47072 0.175 0.67811 0.0
C822 C 0.4962 0.12847 0.65667 0.0
C823 C 0.44965 0.18103 0.68464 0.0
C824 C 0.57447 0.10753 0.61903 0.0
C825 C 0.55836 0.11006 0.63078 0.0
C826 C 0.53788 0.15122 0.66112 0.0
C827 C 0.47734 0.15182 0.67712 0.0
C828 C 0.49795 0.14518 0.6682 0.0
C829 C 0.55516 0.13146 0.63804 0.0
C830 C 0.53595 0.13513 0.64912 0.0
H831 H 0.43136 0.12744 0.69478 0.0
H832 H 0.46792 0.11695 0.68308 0.0
H833 H 0.52089 0.16918 0.67934 0.0
H834 H 0.596 0.16203 0.61898 0.0
H835 H 0.56751 0.16671 0.63887 0.0
C836 C 0.61143 0.84338 0.36874 0.0
C837 C 0.63166 0.84234 0.36001 0.0
C838 C 0.60796 0.82829 0.38095 0.0
C839 C 0.63534 0.78786 0.40766 0.0
H840 H 0.57938 0.75258 0.40274 0.0
C841 C 0.62166 0.7 0.43699 0.0
C842 C 0.59926 0.69219 0.43991 0.0
C843 C 0.62539 0.7211 0.42975 0.0
C844 C 0.59482 0.76252 0.40463 0.0
H845 H 0.66484 0.82577 0.35804 0.0
H846 H 0.65889 0.79966 0.3796 0.0
H847 H 0.58684 0.78498 0.386 0.0
H848 H 0.56329 0.70117 0.43852 0.0
H849 H 0.56975 0.7385 0.42662 0.0
H850 H 0.64331 0.76558 0.42638 0.0
C851 C 0.64567 0.81207 0.37686 0.0
C852 C 0.59914 0.78108 0.39492 0.0
C853 C 0.64904 0.82699 0.3645 0.0
C854 C 0.58074 0.70662 0.43631 0.0
C855 C 0.58448 0.72795 0.42932 0.0
C856 C 0.63084 0.7695 0.41759 0.0
C857 C 0.62476 0.81204 0.38486 0.0
C858 C 0.61959 0.79372 0.39616 0.0
C859 C 0.60683 0.73517 0.42547 0.0
C860 C 0.61069 0.75627 0.41603 0.0
H861 H 0.59767 0.855 0.36566 0.0
H862 H 0.59179 0.8288 0.38703 0.0
H863 H 0.65116 0.79744 0.40894 0.0
H864 H 0.63634 0.68925 0.43951 0.0
H865 H 0.64282 0.72575 0.42686 0.0
C866 C 0.06066 0.88913 0.1964 0.0
C867 C 0.07402 0.869 0.1967 0.0
C868 C 0.04126 0.89058 0.18706 0.0
C869 C 0.99756 0.88839 0.16777 0.0
H870 H 0.01238 0.86657 0.12709 0.0
C871 C 0.93894 0.89798 0.11333 0.0
C872 C 0.95074 0.90524 0.10016 0.0
C873 C 0.95104 0.8927 0.12677 0.0
C874 C 0.00794 0.8727 0.1384 0.0
H875 H 0.07621 0.83389 0.18847 0.0
H876 H 0.04221 0.83637 0.17227 0.0
H877 H 0.03754 0.85713 0.14832 0.0
H878 H 0.98428 0.91402 0.0911 0.0
H879 H 1.00511 0.90486 0.11434 0.0
H880 H 0.96827 0.90468 0.1575 0.0
C881 C 0.04701 0.85118 0.17907 0.0
C882 C 0.0222 0.86704 0.15063 0.0
C883 C 0.0664 0.8497 0.18845 0.0
C884 C 0.97463 0.90823 0.10095 0.0
C885 C 0.98663 0.90285 0.11426 0.0
C886 C 0.98313 0.89393 0.15548 0.0
C887 C 0.03478 0.87194 0.17777 0.0
C888 C 0.01752 0.87522 0.16542 0.0
C889 C 0.97509 0.89443 0.12717 0.0
C890 C 0.98857 0.88665 0.14061 0.0
H891 H 0.06594 0.90427 0.2027 0.0
H892 H 0.03233 0.90686 0.18631 0.0
H893 H 0.9934 0.89483 0.17905 0.0
H894 H 0.92054 0.8955 0.11308 0.0
H895 H 0.94172 0.88632 0.1366 0.0
C896 C 0.65174 0.69562 0.86529 0.0
C897 C 0.63127 0.68677 0.85916 0.0
C898 C 0.65125 0.70923 0.87855 0.0
C899 C 0.61134 0.74802 0.89807 0.0
H900 H 0.65631 0.74902 0.9307 0.0
C901 C 0.60406 0.81498 0.94568 0.0
C902 C 0.62446 0.82659 0.94938 0.0
C903 C 0.60468 0.79446 0.93734 0.0
C904 C 0.64367 0.74902 0.92163 0.0
H905 H 0.5946 0.68357 0.86277 0.0
H906 H 0.59383 0.70686 0.88581 0.0
H907 H 0.65858 0.7194 0.91084 0.0
H908 H 0.6616 0.82478 0.94819 0.0
H909 H 0.66265 0.78943 0.93342 0.0
H910 H 0.59684 0.77792 0.90832 0.0
C911 C 0.61016 0.70386 0.88026 0.0
C912 C 0.64499 0.73205 0.91027 0.0
C913 C 0.61064 0.69043 0.86707 0.0
C914 C 0.64552 0.81636 0.9455 0.0
C915 C 0.64614 0.79595 0.93706 0.0
C916 C 0.61009 0.76497 0.90931 0.0
C917 C 0.63029 0.71412 0.88585 0.0
C918 C 0.62884 0.73142 0.89834 0.0
C919 C 0.62571 0.78517 0.9324 0.0
C920 C 0.62627 0.76581 0.92122 0.0
H921 H 0.66789 0.69311 0.85942 0.0
H922 H 0.66705 0.71693 0.88258 0.0
H923 H 0.59891 0.74836 0.88886 0.0
H924 H 0.58754 0.82225 0.94862 0.0
H925 H 0.58861 0.78631 0.9343 0.0
C926 C 0.57364 0.41323 0.11864 0.0
C927 C 0.58859 0.39481 0.11565 0.0
C928 C 0.55808 0.4121 0.13081 0.0
C929 C 0.52544 0.36945 0.15213 0.0
H930 H 0.51008 0.42013 0.17898 0.0
C931 C 0.44951 0.36229 0.19416 0.0
C932 C 0.43541 0.38179 0.19527 0.0
C933 C 0.47102 0.36371 0.18705 0.0
C934 C 0.514 0.40584 0.17149 0.0
H935 H 0.59972 0.36129 0.12367 0.0
H936 H 0.57248 0.35932 0.14474 0.0
H937 H 0.54254 0.42366 0.16152 0.0
H938 H 0.43331 0.4183 0.19031 0.0
H939 H 0.47009 0.42062 0.17765 0.0
H940 H 0.49638 0.35199 0.16139 0.0
C941 C 0.57272 0.37455 0.13762 0.0
C942 C 0.53267 0.40788 0.16154 0.0
C943 C 0.58842 0.37578 0.12558 0.0
C944 C 0.44368 0.40289 0.18969 0.0
C945 C 0.46499 0.40427 0.18249 0.0
C946 C 0.5066 0.36751 0.16191 0.0
C947 C 0.55701 0.39244 0.14014 0.0
C948 C 0.53842 0.3898 0.15162 0.0
C949 C 0.47881 0.38463 0.18079 0.0
C950 C 0.50037 0.38581 0.17158 0.0
H951 H 0.57332 0.42815 0.11123 0.0
H952 H 0.54611 0.42612 0.13244 0.0
H953 H 0.52927 0.35531 0.14448 0.0
H954 H 0.44371 0.34579 0.1984 0.0
H955 H 0.48134 0.3483 0.18624 0.0
C956 C 0.88622 0.19864 0.44363 0.0
C957 C 0.90928 0.19169 0.44253 0.0
C958 C 0.87853 0.21831 0.43603 0.0
C959 C 0.89571 0.272 0.41701 0.0
H960 H 0.84596 0.25828 0.38903 0.0
C961 C 0.87609 0.32862 0.36452 0.0
C962 C 0.8539 0.32871 0.3582 0.0
C963 C 0.88121 0.31491 0.37718 0.0
C964 C 0.85945 0.26277 0.39699 0.0
H965 H 0.94264 0.20098 0.43349 0.0
H966 H 0.92923 0.23566 0.42047 0.0
H967 H 0.85819 0.22947 0.40737 0.0
H968 H 0.81932 0.31575 0.3609 0.0
H969 H 0.82791 0.2927 0.38347 0.0
H970 H 0.89695 0.30537 0.40678 0.0
C971 C 0.91712 0.2257 0.42713 0.0
C972 C 0.86655 0.24611 0.40748 0.0
C973 C 0.92478 0.20582 0.43457 0.0
C974 C 0.83662 0.3159 0.36543 0.0
C975 C 0.84165 0.30249 0.37829 0.0
C976 C 0.88835 0.28887 0.4067 0.0
C977 C 0.89377 0.23169 0.42736 0.0
C978 C 0.885 0.25039 0.4174 0.0
C979 C 0.8642 0.30119 0.38405 0.0
C980 C 0.87041 0.28433 0.3963 0.0
H981 H 0.87378 0.18822 0.44967 0.0
H982 H 0.86048 0.22266 0.43651 0.0
H983 H 0.90988 0.27579 0.42463 0.0
H984 H 0.88989 0.33816 0.35919 0.0
H985 H 0.89884 0.31425 0.38104 0.0
C986 C 0.05924 0.65416 0.69474 0.0
C987 C 0.07266 0.63434 0.6968 0.0
C988 C 0.03791 0.65282 0.68739 0.0
C989 C 0.99416 0.61097 0.67232 0.0
H990 H 0.98232 0.6597 0.64316 0.0
C991 C 0.93734 0.60126 0.61822 0.0
C992 C 0.92307 0.61981 0.61426 0.0
C993 C 0.95231 0.60294 0.63071 0.0
C994 C 0.98518 0.6461 0.6514 0.0
H995 H 0.07357 0.59738 0.69343 0.0
H996 H 0.03706 0.59514 0.68033 0.0
H997 H 0.01435 0.66323 0.66081 0.0
H998 H 0.91264 0.65428 0.62075 0.0
H999 H 0.93891 0.6572 0.64238 0.0
H1000 H 0.96554 0.59339 0.66221 0.0
C1001 C 0.04259 0.61172 0.68459 0.0
C1002 C 1.00353 0.64816 0.66161 0.0
C1003 C 0.06373 0.61303 0.69206 0.0
C1004 C 0.92338 0.63965 0.62346 0.0
C1005 C 0.93853 0.64141 0.63581 0.0
C1006 C 0.97599 0.60879 0.66195 0.0
C1007 C 0.0296 0.63166 0.6818 0.0
C1008 C 0.00852 0.63048 0.67209 0.0
C1009 C 0.95349 0.62328 0.63937 0.0
C1010 C 0.97149 0.62622 0.65126 0.0
H1011 H 0.06554 0.67083 0.69832 0.0
H1012 H 0.0282 0.66849 0.68578 0.0
H1013 H 0.99711 0.59719 0.6804 0.0
H1014 H 0.93752 0.58574 0.61138 0.0
H1015 H 0.96373 0.58872 0.63312 0.0
C1016 C 0.59174 0.20754 0.57767 0.0
C1017 C 0.60777 0.19053 0.57374 0.0
C1018 C 0.5989 0.22814 0.58446 0.0
C1019 C 0.65155 0.26218 0.59532 0.0
H1020 H 0.61234 0.28304 0.62827 0.0
C1021 C 0.682 0.31045 0.6497 0.0
C1022 C 0.66814 0.32837 0.65526 0.0
C1023 C 0.67537 0.29785 0.6368 0.0
C1024 C 0.62334 0.27768 0.61896 0.0
H1025 H 0.64406 0.18232 0.57324 0.0
H1026 H 0.65641 0.21751 0.58553 0.0
H1027 H 0.59882 0.25314 0.61112 0.0
H1028 H 0.63708 0.34794 0.65106 0.0
H1029 H 0.62537 0.32563 0.62872 0.0
H1030 H 0.67663 0.28589 0.60403 0.0
C1031 C 0.63834 0.21546 0.58306 0.0
C1032 C 0.61555 0.26055 0.60902 0.0
C1033 C 0.63121 0.19508 0.57603 0.0
C1034 C 0.6482 0.33428 0.64709 0.0
C1035 C 0.64139 0.32143 0.63434 0.0
C1036 C 0.65949 0.27905 0.60547 0.0
C1037 C 0.62226 0.23206 0.58776 0.0
C1038 C 0.62967 0.25223 0.59719 0.0
C1039 C 0.65458 0.30269 0.62933 0.0
C1040 C 0.64556 0.28674 0.61751 0.0
H1041 H 0.57357 0.20464 0.57594 0.0
H1042 H 0.58601 0.24071 0.58749 0.0
H1043 H 0.66278 0.25669 0.58618 0.0
H1044 H 0.69747 0.3055 0.65572 0.0
H1045 H 0.68582 0.28342 0.63323 0.0
C1046 C 0.06673 0.40946 0.81863 0.0
C1047 C 0.07473 0.38667 0.81781 0.0
C1048 C 0.04696 0.41481 0.82691 0.0
C1049 C 0.99432 0.39238 0.84434 0.0
H1050 H 1.00617 0.43774 0.87586 0.0
C1051 C 0.93483 0.40396 0.89666 0.0
C1052 C 0.93441 0.42518 0.90436 0.0
C1053 C 0.94924 0.40062 0.88408 0.0
C1054 C 1.00219 0.42546 0.86694 0.0
H1055 H 0.06718 0.35142 0.82414 0.0
H1056 H 0.03225 0.36081 0.83837 0.0
H1057 H 0.03561 0.42912 0.85714 0.0
H1058 H 0.94747 0.46003 0.90419 0.0
H1059 H 0.97162 0.45469 0.88176 0.0
H1060 H 0.96076 0.3889 0.85395 0.0
C1061 C 0.04153 0.3745 0.8327 0.0
C1062 C 0.01923 0.42042 0.85625 0.0
C1063 C 0.06154 0.36915 0.82457 0.0
C1064 C 0.94757 0.44342 0.89858 0.0
C1065 C 0.96164 0.44022 0.8858 0.0
C1066 C 0.97704 0.39774 0.85489 0.0
C1067 C 0.0345 0.39748 0.83436 0.0
C1068 C 0.0156 0.40365 0.84496 0.0
C1069 C 0.96333 0.41853 0.87868 0.0
C1070 C 0.98083 0.41415 0.86651 0.0
H1071 H 0.07636 0.42342 0.81354 0.0
H1072 H 0.04178 0.43264 0.82787 0.0
H1073 H 0.99103 0.37948 0.83568 0.0
H1074 H 0.92502 0.38947 0.90087 0.0
H1075 H 0.95012 0.38359 0.87913 0.0
C1076 C 0.88724 0.81857 0.07055 0.0
C1077 C 0.91055 0.82475 0.06975 0.0
C1078 C 0.88055 0.79809 0.07763 0.0
C1079 C 0.89991 0.74141 0.09105 0.0
H1080 H 0.85796 0.75145 0.12474 0.0
C1081 C 0.89262 0.67793 0.14125 0.0
C1082 C 0.87236 0.67684 0.14992 0.0
C1083 C 0.89466 0.69337 0.1291 0.0
C1084 C 0.86923 0.74803 0.11518 0.0
H1085 H 0.94516 0.81345 0.0748 0.0
H1086 H 0.93345 0.77737 0.08684 0.0
H1087 H 0.86642 0.78273 0.10722 0.0
H1088 H 0.83777 0.69006 0.15193 0.0
H1089 H 0.84091 0.71632 0.13028 0.0
H1090 H 0.90268 0.70669 0.09886 0.0
C1091 C 0.92039 0.78854 0.08211 0.0
C1092 C 0.87416 0.76609 0.10517 0.0
C1093 C 0.92708 0.80923 0.07526 0.0
C1094 C 0.85368 0.6906 0.14556 0.0
C1095 C 0.85559 0.70584 0.13322 0.0
C1096 C 0.89466 0.72318 0.1009 0.0
C1097 C 0.89703 0.78313 0.0838 0.0
C1098 C 0.88993 0.76311 0.09321 0.0
C1099 C 0.87637 0.70795 0.1251 0.0
C1100 C 0.87968 0.72638 0.11337 0.0
H1101 H 0.87404 0.83013 0.06645 0.0
H1102 H 0.86244 0.79423 0.07868 0.0
H1103 H 0.91196 0.7386 0.08182 0.0
H1104 H 0.90743 0.66767 0.1443 0.0
H1105 H 0.91107 0.69459 0.12338 0.0
C1106 C 0.59323 0.64453 0.39138 0.0
C1107 C 0.59477 0.62456 0.4004 0.0
C1108 C 0.57762 0.64577 0.37928 0.0
C1109 C 0.54099 0.61238 0.35315 0.0
H1110 H 0.49947 0.66417 0.35644 0.0
C1111 C 0.45278 0.61372 0.32324 0.0
C1112 C 0.44248 0.63485 0.31955 0.0
C1113 C 0.474 0.61302 0.33067 0.0
C1114 C 0.51114 0.64987 0.35502 0.0
H1115 H 0.58212 0.58973 0.40312 0.0
H1116 H 0.55514 0.5918 0.38171 0.0
H1117 H 0.53221 0.66151 0.37353 0.0
H1118 H 0.44721 0.6718 0.31982 0.0
H1119 H 0.48472 0.67061 0.33213 0.0
H1120 H 0.52012 0.60077 0.33456 0.0
C1121 C 0.56594 0.60652 0.38414 0.0
C1122 C 0.52989 0.64831 0.36493 0.0
C1123 C 0.58135 0.60536 0.39641 0.0
C1124 C 0.45458 0.65524 0.3226 0.0
C1125 C 0.47602 0.65453 0.32983 0.0
C1126 C 0.52243 0.61413 0.34304 0.0
C1127 C 0.56344 0.62698 0.37575 0.0
C1128 C 0.5448 0.62938 0.36427 0.0
C1129 C 0.48572 0.63343 0.33441 0.0
C1130 C 0.50695 0.63269 0.34402 0.0
H1131 H 0.60327 0.65966 0.39412 0.0
H1132 H 0.5762 0.66168 0.37291 0.0
H1133 H 0.55235 0.59771 0.35231 0.0
H1134 H 0.44392 0.59766 0.32113 0.0
H1135 H 0.48059 0.59642 0.33412 0.0
C1136 C 0.40329 0.20478 0.08226 0.0
C1137 C 0.38598 0.1959 0.07275 0.0
C1138 C 0.40026 0.22575 0.08982 0.0
C1139 C 0.3534 0.26328 0.10359 0.0
H1140 H 0.40401 0.30259 0.11552 0.0
C1141 C 0.37547 0.34884 0.14337 0.0
C1142 C 0.36245 0.34315 0.15635 0.0
C1143 C 0.37636 0.33396 0.13081 0.0
C1144 C 0.38954 0.29209 0.11211 0.0
H1145 H 0.35262 0.20295 0.06284 0.0
H1146 H 0.34762 0.23983 0.07564 0.0
H1147 H 0.41042 0.27187 0.09716 0.0
H1148 H 0.33916 0.31788 0.16593 0.0
H1149 H 0.34105 0.29183 0.14427 0.0
H1150 H 0.33248 0.28363 0.11842 0.0
C1151 C 0.36326 0.23026 0.07766 0.0
C1152 C 0.39332 0.27421 0.10172 0.0
C1153 C 0.36621 0.20919 0.07021 0.0
C1154 C 0.34934 0.32286 0.15612 0.0
C1155 C 0.35037 0.30791 0.14362 0.0
C1156 C 0.34959 0.28126 0.11389 0.0
C1157 C 0.37992 0.23849 0.08795 0.0
C1158 C 0.37542 0.25922 0.09757 0.0
C1159 C 0.36437 0.31296 0.13095 0.0
C1160 C 0.36772 0.2956 0.11858 0.0
H1161 H 0.41871 0.19497 0.08453 0.0
H1162 H 0.4134 0.23134 0.09775 0.0
H1163 H 0.3392 0.25202 0.10083 0.0
H1164 H 0.38564 0.36442 0.14311 0.0
H1165 H 0.38692 0.33868 0.12113 0.0
C1166 C 0.42561 0.63518 0.89017 0.0
C1167 C 0.42315 0.61604 0.89985 0.0
C1168 C 0.4415 0.63491 0.8782 0.0
C1169 C 0.49519 0.60527 0.8673 0.0
H1170 H 0.48887 0.64088 0.83006 0.0
C1171 C 0.5678 0.60773 0.82355 0.0
C1172 C 0.57503 0.62987 0.81925 0.0
C1173 C 0.5467 0.60444 0.83074 0.0
C1174 C 0.49085 0.63088 0.84042 0.0
H1175 H 0.43427 0.58101 0.90385 0.0
H1176 H 0.46134 0.58018 0.88265 0.0
H1177 H 0.45623 0.63718 0.84745 0.0
H1178 H 0.56495 0.66571 0.81814 0.0
H1179 H 0.52793 0.65992 0.83073 0.0
H1180 H 0.52976 0.59907 0.86036 0.0
C1181 C 0.45159 0.59574 0.88461 0.0
C1182 C 0.47219 0.6288 0.85042 0.0
C1183 C 0.43591 0.59612 0.8967 0.0
C1184 C 0.55988 0.64843 0.82129 0.0
C1185 C 0.53867 0.64511 0.8285 0.0
C1186 C 0.51369 0.60717 0.85727 0.0
C1187 C 0.45515 0.61539 0.8755 0.0
C1188 C 0.4742 0.61616 0.8641 0.0
C1189 C 0.53226 0.62319 0.8338 0.0
C1190 C 0.51184 0.62016 0.84378 0.0
H1191 H 0.41612 0.65085 0.8923 0.0
H1192 H 0.44384 0.65045 0.87158 0.0
H1193 H 0.4977 0.59588 0.87785 0.0
H1194 H 0.57893 0.59301 0.822 0.0
H1195 H 0.54204 0.58728 0.83442 0.0
C1196 C 0.15245 0.68905 0.65068 0.0
C1197 C 0.13603 0.67222 0.65439 0.0
C1198 C 0.14865 0.70424 0.63851 0.0
C1199 C 0.10138 0.73295 0.62001 0.0
H1200 H 0.14506 0.75083 0.58884 0.0
C1201 C 0.07983 0.80675 0.57874 0.0
C1202 C 0.09772 0.82191 0.57505 0.0
C1203 C 0.08448 0.78563 0.58576 0.0
C1204 C 0.13272 0.74627 0.59756 0.0
H1205 H 0.10335 0.65739 0.64765 0.0
H1206 H 0.09665 0.68414 0.62669 0.0
H1207 H 0.15426 0.7193 0.60625 0.0
H1208 H 0.13465 0.82644 0.57539 0.0
H1209 H 0.1427 0.79038 0.58815 0.0
H1210 H 0.08037 0.76052 0.61219 0.0
C1211 C 0.11243 0.68552 0.63318 0.0
C1212 C 0.13799 0.72809 0.60746 0.0
C1213 C 0.11636 0.67015 0.64516 0.0
C1214 C 0.12043 0.81509 0.57796 0.0
C1215 C 0.12507 0.79423 0.58526 0.0
C1216 C 0.09629 0.75137 0.61035 0.0
C1217 C 0.12824 0.70307 0.62998 0.0
C1218 C 0.1224 0.72135 0.61882 0.0
C1219 C 0.10713 0.77938 0.5896 0.0
C1220 C 0.11193 0.75848 0.59904 0.0
H1221 H 0.16777 0.6911 0.65755 0.0
H1222 H 0.16108 0.71768 0.63631 0.0
H1223 H 0.08918 0.72832 0.62882 0.0
H1224 H 0.06215 0.81144 0.57654 0.0
H1225 H 0.07021 0.77446 0.58848 0.0
C1226 C 0.05794 0.36681 0.41004 0.0
C1227 C 0.07205 0.38617 0.41199 0.0
C1228 C 0.04719 0.36257 0.3961 0.0
C1229 C 0.02192 0.39082 0.36389 0.0
H1230 H 0.01929 0.32903 0.34727 0.0
C1231 C 0.95282 0.36599 0.31975 0.0
C1232 C 0.94089 0.34575 0.32357 0.0
C1233 C 0.97392 0.37108 0.32666 0.0
C1234 C 0.01982 0.34639 0.35173 0.0
H1235 H 0.08622 0.4162 0.40081 0.0
H1236 H 0.06648 0.40916 0.3763 0.0
H1237 H 0.04726 0.33828 0.36711 0.0
H1238 H 0.94265 0.31423 0.33675 0.0
H1239 H 0.97901 0.32312 0.34882 0.0
H1240 H 0.99345 0.3986 0.34935 0.0
C1241 C 0.06416 0.39714 0.38562 0.0
C1242 C 0.03594 0.35171 0.36302 0.0
C1243 C 0.07543 0.40115 0.39959 0.0
C1244 C 0.95131 0.33 0.33356 0.0
C1245 C 0.97232 0.33507 0.34044 0.0
C1246 C 1.00561 0.38546 0.35269 0.0
C1247 C 0.04995 0.37776 0.38379 0.0
C1248 C 0.03659 0.37373 0.3696 0.0
C1249 C 0.98357 0.35602 0.33748 0.0
C1250 C 1.00377 0.36292 0.3469 0.0
H1251 H 0.05513 0.35484 0.41934 0.0
H1252 H 0.0361 0.34768 0.3951 0.0
H1253 H 0.02195 0.40789 0.36885 0.0
H1254 H 0.94534 0.37848 0.31205 0.0
H1255 H 0.98228 0.38719 0.32391 0.0
C1256 C 0.36107 0.6882 0.36845 0.0
C1257 C 0.37819 0.67207 0.36481 0.0
C1258 C 0.36419 0.70367 0.38056 0.0
C1259 C 0.41056 0.73396 0.39946 0.0
H1260 H 0.36509 0.75204 0.42941 0.0
C1261 C 0.4295 0.80855 0.44059 0.0
C1262 C 0.41144 0.82387 0.44354 0.0
C1263 C 0.42523 0.78724 0.43373 0.0
C1264 C 0.37793 0.74739 0.42104 0.0
H1265 H 0.41139 0.65869 0.37168 0.0
H1266 H 0.41686 0.68582 0.39259 0.0
H1267 H 0.35716 0.71993 0.41215 0.0
H1268 H 0.37458 0.82842 0.44215 0.0
H1269 H 0.36722 0.79188 0.42967 0.0
H1270 H 0.43087 0.76194 0.40751 0.0
C1271 C 0.4011 0.68654 0.38604 0.0
C1272 C 0.37338 0.7289 0.41121 0.0
C1273 C 0.39788 0.67092 0.37409 0.0
C1274 C 0.3889 0.81696 0.44012 0.0
C1275 C 0.38467 0.79585 0.43299 0.0
C1276 C 0.41496 0.75263 0.40906 0.0
C1277 C 0.38459 0.70346 0.38914 0.0
C1278 C 0.38962 0.72209 0.40028 0.0
C1279 C 0.40284 0.7809 0.42932 0.0
C1280 C 0.39867 0.75978 0.41994 0.0
H1281 H 0.34569 0.68953 0.36155 0.0
H1282 H 0.35121 0.7166 0.38267 0.0
H1283 H 0.42326 0.72933 0.39097 0.0
H1284 H 0.44703 0.81329 0.44323 0.0
H1285 H 0.43963 0.77598 0.43154 0.0
C1286 C 0.07537 0.65296 0.11407 0.0
C1287 C 0.07902 0.63218 0.10627 0.0
C1288 C 0.06224 0.65354 0.12736 0.0
C1289 C 0.03331 0.61866 0.15719 0.0
H1290 H 0.98794 0.66722 0.15459 0.0
C1291 C 0.94696 0.61755 0.18966 0.0
C1292 C 0.93649 0.63857 0.19347 0.0
C1293 C 0.96798 0.61713 0.182 0.0
C1294 C 1.00074 0.65386 0.15577 0.0
H1295 H 0.07316 0.59544 0.10679 0.0
H1296 H 0.04965 0.59644 0.13006 0.0
H1297 H 0.01825 0.66522 0.13577 0.0
H1298 H 0.94094 0.67558 0.19346 0.0
H1299 H 0.97792 0.67485 0.18047 0.0
H1300 H 0.01527 0.60705 0.17711 0.0
C1301 C 0.05721 0.61227 0.12594 0.0
C1302 C 0.01816 0.65266 0.1449 0.0
C1303 C 0.07064 0.61167 0.11263 0.0
C1304 C 0.94841 0.6591 0.19056 0.0
C1305 C 0.96953 0.65867 0.18298 0.0
C1306 C 0.01583 0.61991 0.16817 0.0
C1307 C 0.05214 0.63339 0.13309 0.0
C1308 C 0.03458 0.63498 0.14538 0.0
C1309 C 0.97913 0.63772 0.17806 0.0
C1310 C 0.99918 0.63743 0.1675 0.0
H1311 H 0.08191 0.66901 0.10954 0.0
H1312 H 0.0592 0.66999 0.1328 0.0
H1313 H 0.04578 0.60492 0.15793 0.0
H1314 H 0.93833 0.60138 0.1918 0.0
H1315 H 0.97473 0.60068 0.17836 0.0
C1316 C 0.18651 0.31789 0.86348 0.0
C1317 C 0.16902 0.33264 0.85835 0.0
C1318 C 0.1836 0.30489 0.87681 0.0
C1319 C 0.13742 0.27817 0.89858 0.0
H1320 H 0.18546 0.26325 0.92755 0.0
C1321 C 0.12388 0.20637 0.94293 0.0
C1322 C 0.14226 0.19089 0.94426 0.0
C1323 C 0.12695 0.22766 0.9357 0.0
C1324 C 0.17186 0.26714 0.91953 0.0
H1325 H 0.13541 0.34642 0.86383 0.0
H1326 H 0.13042 0.32371 0.88699 0.0
H1327 H 0.19187 0.29334 0.90856 0.0
H1328 H 0.17863 0.18632 0.93998 0.0
H1329 H 0.18383 0.22283 0.92719 0.0
H1330 H 0.11781 0.25132 0.90889 0.0
C1331 C 0.14624 0.32202 0.88061 0.0
C1332 C 0.17555 0.28443 0.90867 0.0
C1333 C 0.14919 0.33512 0.86736 0.0
C1334 C 0.16404 0.19776 0.93909 0.0
C1335 C 0.16708 0.21889 0.93182 0.0
C1336 C 0.13381 0.26075 0.90931 0.0
C1337 C 0.16312 0.30627 0.88524 0.0
C1338 C 0.15851 0.28984 0.8979 0.0
C1339 C 0.14846 0.23388 0.92961 0.0
C1340 C 0.15116 0.25463 0.91973 0.0
H1341 H 0.20201 0.31558 0.85685 0.0
H1342 H 0.19689 0.29282 0.88004 0.0
H1343 H 0.12404 0.28171 0.89031 0.0
H1344 H 0.1069 0.20165 0.94684 0.0
H1345 H 0.11231 0.23894 0.93447 0.0
C1346 C 0.45336 0.36428 0.6099 0.0
C1347 C 0.44317 0.38437 0.60412 0.0
C1348 C 0.46558 0.36467 0.6236 0.0
C1349 C 0.49993 0.40392 0.64666 0.0
H1350 H 0.5031 0.35176 0.6742 0.0
C1351 C 0.57032 0.39934 0.69231 0.0
C1352 C 0.58231 0.3784 0.6929 0.0
C1353 C 0.54916 0.40082 0.68488 0.0
C1354 C 0.50246 0.36645 0.66662 0.0
H1355 H 0.43688 0.42045 0.60854 0.0
H1356 H 0.45854 0.42124 0.63264 0.0
H1357 H 0.47281 0.35353 0.65494 0.0
H1358 H 0.58075 0.34224 0.68702 0.0
H1359 H 0.54396 0.34483 0.67384 0.0
H1360 H 0.53004 0.41643 0.65783 0.0
C1361 C 0.45706 0.40517 0.62645 0.0
C1362 C 0.48506 0.3675 0.6556 0.0
C1363 C 0.44456 0.40471 0.61273 0.0
C1364 C 0.57192 0.35861 0.68681 0.0
C1365 C 0.55076 0.36012 0.67927 0.0
C1366 C 0.51732 0.40286 0.65765 0.0
C1367 C 0.46809 0.38521 0.63188 0.0
C1368 C 0.48396 0.38595 0.64522 0.0
C1369 C 0.53951 0.38143 0.67775 0.0
C1370 C 0.51917 0.38384 0.66753 0.0
H1371 H 0.45246 0.34826 0.6036 0.0
H1372 H 0.47403 0.34906 0.6273 0.0
H1373 H 0.49981 0.41822 0.63873 0.0
H1374 H 0.57775 0.41487 0.69704 0.0
H1375 H 0.54073 0.41739 0.68426 0.0
C1376 C 0.31191 0.28566 0.22035 0.0
C1377 C 0.32411 0.3045 0.22632 0.0
C1378 C 0.29596 0.27382 0.22931 0.0
C1379 C 0.25903 0.28126 0.26328 0.0
H1380 H 0.25192 0.21514 0.26017 0.0
C1381 C 0.20044 0.22878 0.30377 0.0
C1382 C 0.18815 0.21013 0.2976 0.0
C1383 C 0.21644 0.24076 0.29492 0.0
C1384 C 0.25347 0.23365 0.26102 0.0
H1385 H 0.32952 0.32523 0.24662 0.0
H1386 H 0.30188 0.30434 0.26235 0.0
H1387 H 0.28199 0.23436 0.24564 0.0
H1388 H 0.18257 0.18997 0.27706 0.0
H1389 H 0.21033 0.21105 0.26157 0.0
H1390 H 0.23051 0.28052 0.27869 0.0
C1391 C 0.30442 0.29895 0.25062 0.0
C1392 C 0.27077 0.24468 0.25272 0.0
C1393 C 0.32043 0.3108 0.24165 0.0
C1394 C 0.19175 0.20421 0.2822 0.0
C1395 C 0.20782 0.21618 0.27335 0.0
C1396 C 0.24174 0.27022 0.27161 0.0
C1397 C 0.29176 0.28049 0.2445 0.0
C1398 C 0.27376 0.26864 0.25371 0.0
C1399 C 0.22061 0.2344 0.27966 0.0
C1400 C 0.23871 0.24627 0.27057 0.0
H1401 H 0.31425 0.28034 0.20859 0.0
H1402 H 0.28639 0.25986 0.22415 0.0
H1403 H 0.26055 0.29977 0.26413 0.0
H1404 H 0.19814 0.23382 0.31559 0.0
H1405 H 0.22608 0.25456 0.30021 0.0
C1406 C 0.06239 0.97181 0.54833 0.0
C1407 C 0.06421 0.9482 0.54506 0.0
C1408 C 0.04791 0.98595 0.53978 0.0
C1409 C 0.01863 0.98986 0.50244 0.0
H1410 H 0.98313 0.03744 0.52255 0.0
C1411 C 0.94933 0.04234 0.47083 0.0
C1412 C 0.94743 0.06594 0.47409 0.0
C1413 C 0.96385 0.02825 0.47939 0.0
C1414 C 0.99315 0.02445 0.51673 0.0
H1415 H 0.052 0.92092 0.53024 0.0
H1416 H 0.0265 0.94565 0.51531 0.0
H1417 H 0.00714 0.01184 0.53774 0.0
H1418 H 0.95952 0.09327 0.48891 0.0
H1419 H 0.98509 0.06863 0.50386 0.0
H1420 H 1.00465 1.00246 0.48143 0.0
C1421 C 0.03652 0.95324 0.52444 0.0
C1422 C 1.00689 0.00972 0.52545 0.0
C1423 C 0.05101 0.93903 0.53306 0.0
C1424 C 0.96057 0.07516 0.4861 0.0
C1425 C 0.97511 0.06101 0.49473 0.0
C1426 C 1.00489 1.00459 0.49373 0.0
C1427 C 0.03484 0.9769 0.52768 0.0
C1428 C 0.01981 0.99224 0.51842 0.0
C1429 C 0.97688 0.03735 0.49149 0.0
C1430 C 0.99196 0.02206 0.50075 0.0
H1431 H 0.07232 0.9795 0.55747 0.0
H1432 H 0.04731 1.00411 0.54247 0.0
H1433 H 0.02864 0.97686 0.49663 0.0
H1434 H 0.93945 0.0346 0.46168 0.0
H1435 H 0.96451 0.01009 0.47671 0.0
C1436 C 0.19387 0.70572 0.73511 0.0
C1437 C 0.18265 0.71491 0.72224 0.0
C1438 C 0.21012 0.71873 0.74314 0.0
C1439 C 0.22876 0.77806 0.75066 0.0
H1440 H 0.28785 0.75086 0.75999 0.0
C1441 C 0.30314 0.83405 0.77195 0.0
C1442 C 0.3177 0.82532 0.78335 0.0
C1443 C 0.28738 0.8198 0.76456 0.0
C1444 C 0.27136 0.75865 0.75768 0.0
H1445 H 0.17932 0.74521 0.70799 0.0
H1446 H 0.20735 0.76802 0.72215 0.0
H1447 H 0.25817 0.72768 0.74762 0.0
H1448 H 0.32759 0.7946 0.79567 0.0
H1449 H 0.29957 0.76964 0.783 0.0
H1450 H 0.24154 0.80885 0.76089 0.0
C1451 C 0.20363 0.75071 0.72599 0.0
C1452 C 0.25436 0.74536 0.75057 0.0
C1453 C 0.18761 0.73762 0.71785 0.0
C1454 C 0.31666 0.80178 0.78687 0.0
C1455 C 0.3006 0.78749 0.77958 0.0
C1456 C 0.24561 0.79126 0.7579 0.0
C1457 C 0.21528 0.74132 0.73861 0.0
C1458 C 0.23297 0.75502 0.74682 0.0
C1459 C 0.28545 0.79644 0.76851 0.0
C1460 C 0.26728 0.78186 0.76133 0.0
H1461 H 0.19052 0.68826 0.73879 0.0
H1462 H 0.21865 0.71112 0.7529 0.0
H1463 H 0.21233 0.78588 0.74815 0.0
H1464 H 0.30371 0.85206 0.76883 0.0
H1465 H 0.27656 0.82722 0.7558 0.0
C1466 C 0.43867 0.04574 0.0426 0.0
C1467 C 0.44208 0.06966 0.04327 0.0
C1468 C 0.45369 0.0317 0.03442 0.0
C1469 C 0.49688 0.03242 1.00365 0.0
H1470 H 0.51553 0.97424 0.02139 0.0
C1471 C 0.56835 0.97672 0.9771 0.0
C1472 C 0.5654 0.95272 0.97698 0.0
C1473 C 0.55318 0.99088 0.98509 0.0
C1474 C 0.51027 0.99028 0.01618 0.0
H1475 H 0.46395 0.09759 0.03573 0.0
H1476 H 0.49034 0.07296 0.02142 0.0
H1477 H 0.48968 0.99942 0.03548 0.0
H1478 H 0.5441 0.92478 0.98518 0.0
H1479 H 0.51739 0.94956 0.99905 0.0
H1480 H 0.51741 0.02325 0.98432 0.0
C1481 C 0.47587 0.06514 0.02718 0.0
C1482 C 0.49547 1.00475 0.02427 0.0
C1483 C 0.46082 0.07924 0.03543 0.0
C1484 C 0.54689 0.94319 0.98507 0.0
C1485 C 0.53165 0.9574 0.99308 0.0
C1486 C 0.51165 0.01792 0.99554 0.0
C1487 C 0.47253 0.04117 0.02666 0.0
C1488 C 0.48858 0.02599 0.0181 0.0
C1489 C 0.53461 0.98143 0.99317 0.0
C1490 C 0.51856 0.99667 1.0017 0.0
H1491 H 0.42436 0.03776 0.04844 0.0
H1492 H 0.45039 0.01338 0.03406 0.0
H1493 H 0.49164 0.04849 0.99847 0.0
H1494 H 0.58247 0.98468 0.97105 0.0
H1495 H 0.55623 0.00924 0.9851 0.0
C1496 C 0.31778 0.70179 0.28522 0.0
C1497 C 0.33175 0.71193 0.29648 0.0
C1498 C 0.30124 0.71478 0.2775 0.0
C1499 C 0.26835 0.7695 0.28076 0.0
H1500 H 0.25363 0.75747 0.23827 0.0
C1501 C 0.2158 0.8317 0.24321 0.0
C1502 C 0.19865 0.82231 0.23378 0.0
C1503 C 0.23076 0.81745 0.2513 0.0
C1504 C 0.25738 0.76083 0.25019 0.0
H1505 H 0.33982 0.74389 0.30803 0.0
H1506 H 0.31163 0.76674 0.29421 0.0
H1507 H 0.28324 0.73478 0.25095 0.0
H1508 H 0.1836 0.79054 0.22556 0.0
H1509 H 0.21016 0.7655 0.23958 0.0
H1510 H 0.24294 0.79605 0.27978 0.0
C1511 C 0.31289 0.74857 0.29166 0.0
C1512 C 0.27435 0.74782 0.2575 0.0
C1513 C 0.32925 0.73551 0.2995 0.0
C1514 C 0.19659 0.79827 0.23277 0.0
C1515 C 0.21186 0.78396 0.24071 0.0
C1516 C 0.25161 0.78267 0.2734 0.0
C1517 C 0.29839 0.73833 0.2807 0.0
C1518 C 0.28017 0.75204 0.27288 0.0
C1519 C 0.22916 0.79344 0.25 0.0
C1520 C 0.24601 0.77855 0.25802 0.0
H1521 H 0.31913 0.68362 0.28267 0.0
H1522 H 0.29026 0.70616 0.26932 0.0
H1523 H 0.27189 0.77294 0.2927 0.0
H1524 H 0.21781 0.85015 0.24426 0.0
H1525 H 0.24401 0.82526 0.25827 0.0
C1526 C 0.4597 0.9398 0.48583 0.0
C1527 C 0.44187 0.94988 0.47733 0.0
C1528 C 0.4752 0.95357 0.494 0.0
C1529 C 0.49807 0.01301 0.49573 0.0
H1530 H 0.51756 0.99561 0.53647 0.0
C1531 C 0.55142 0.07379 0.53462 0.0
C1532 C 0.56891 0.06366 0.54338 0.0
C1533 C 0.53584 0.06005 0.52649 0.0
C1534 C 0.5125 1.00061 0.52504 0.0
H1535 H 0.42625 0.98235 0.47093 0.0
H1536 H 0.45302 1.00616 0.48519 0.0
H1537 H 0.49092 0.97103 0.52249 0.0
H1538 H 0.5839 0.03112 0.55028 0.0
H1539 H 0.55711 1.00737 0.53604 0.0
H1540 H 0.51969 0.04255 0.49824 0.0
C1541 C 0.45528 0.98768 0.4854 0.0
C1542 C 0.49723 0.98649 0.51702 0.0
C1543 C 0.43982 0.97397 0.47729 0.0
C1544 C 0.57057 0.03954 0.54373 0.0
C1545 C 0.55508 0.02586 0.53562 0.0
C1546 C 0.51338 0.02712 0.50374 0.0
C1547 C 0.47324 0.9777 0.4938 0.0
C1548 C 0.48979 0.99252 0.50227 0.0
C1549 C 0.53742 0.03589 0.52696 0.0
C1550 C 0.52082 0.0211 0.51849 0.0
H1551 H 0.4618 0.9213 0.48608 0.0
H1552 H 0.48895 0.94533 0.50026 0.0
H1553 H 0.49296 0.01801 0.4843 0.0
H1554 H 0.54963 0.09231 0.53414 0.0
H1555 H 0.52232 0.06835 0.52005 0.0
C1556 C 0.18423 0.27548 0.80058 0.0
C1557 C 0.179 0.29768 0.79527 0.0
C1558 C 0.20082 0.26207 0.79322 0.0
C1559 C 0.25168 0.26748 0.76826 0.0
H1560 H 0.24383 0.20185 0.76264 0.0
C1561 C 0.31468 0.21206 0.73252 0.0
C1562 C 0.3192 0.18957 0.73757 0.0
C1563 C 0.29807 0.22557 0.7398 0.0
C1564 C 0.24646 0.22012 0.7643 0.0
H1565 H 0.18668 0.32286 0.7777 0.0
H1566 H 0.21539 0.29941 0.76481 0.0
H1567 H 0.21324 0.22428 0.77437 0.0
H1568 H 0.31041 0.16403 0.75466 0.0
H1569 H 0.28187 0.18767 0.76748 0.0
H1570 H 0.28494 0.26332 0.75827 0.0
C1571 C 0.20692 0.29249 0.77482 0.0
C1572 C 0.22886 0.23299 0.771 0.0
C1573 C 0.19029 0.30586 0.78215 0.0
C1574 C 0.30729 0.18122 0.75039 0.0
C1575 C 0.29075 0.19473 0.75768 0.0
C1576 C 0.2693 0.2546 0.76159 0.0
C1577 C 0.21264 0.27055 0.78038 0.0
C1578 C 0.23124 0.25684 0.77307 0.0
C1579 C 0.28562 0.21694 0.75233 0.0
C1580 C 0.26695 0.23073 0.75954 0.0
H1581 H 0.17594 0.26864 0.81068 0.0
H1582 H 0.20491 0.24532 0.79788 0.0
H1583 H 0.25425 0.28576 0.76991 0.0
H1584 H 0.32345 0.21901 0.72264 0.0
H1585 H 0.29447 0.24252 0.73527 0.0
C1586 C 0.05283 0.08024 0.98197 0.0
C1587 C 0.06913 0.07069 0.97199 0.0
C1588 C 0.0373 0.06603 0.98977 0.0
C1589 C 0.02937 1.00571 1.00238 0.0
H1590 H 0.96542 0.02279 1.00625 0.0
C1591 C 0.96126 0.94301 0.02669 0.0
C1592 C 0.94477 0.95243 0.03658 0.0
C1593 C 0.97616 0.95738 0.01851 0.0
C1594 C 0.98328 0.01785 1.00542 0.0
H1595 H 0.08167 0.03872 0.96228 0.0
H1596 H 0.0547 0.01421 0.97572 0.0
H1597 H 0.99191 0.0484 0.99299 0.0
H1598 H 0.93102 0.98437 0.04557 0.0
H1599 H 0.95703 0.00919 0.03155 0.0
H1600 H 0.02083 0.97524 0.01486 0.0
C1601 C 0.05404 0.03258 0.97772 0.0
C1602 C 0.99847 0.03257 0.99782 0.0
C1603 C 0.06944 0.04671 0.96993 0.0
C1604 C 0.94345 0.97648 0.03802 0.0
C1605 C 0.9583 0.99078 0.02988 0.0
C1606 C 0.01421 0.99102 0.01 0.0
C1607 C 0.03784 0.042 0.9878 0.0
C1608 C 0.0217 0.02666 0.99618 0.0
C1609 C 0.97489 0.98146 0.02003 0.0
C1610 C 0.99095 0.99688 0.01162 0.0
H1611 H 0.05214 0.09864 0.98383 0.0
H1612 H 0.02513 0.07383 0.99755 0.0
H1613 H 0.04723 1.00077 1.00153 0.0
H1614 H 0.9627 0.92457 0.02529 0.0
H1615 H 0.98856 0.94961 0.01088 0.0
C1616 C 0.79106 0.82894 0.72697 0.0
C1617 C 0.81322 0.82108 0.72338 0.0
C1618 C 0.77618 0.81551 0.7357 0.0
C1619 C 0.76365 0.75618 0.74719 0.0
H1620 H 0.72895 0.78535 0.77966 0.0
C1621 C 0.68852 0.71087 0.77872 0.0
C1622 C 0.6887 0.71268 0.79475 0.0
C1623 C 0.70353 0.72414 0.76984 0.0
C1624 C 0.73855 0.77693 0.77067 0.0
H1625 H 0.83705 0.7928 0.72611 0.0
H1626 H 0.81081 0.76911 0.74136 0.0
H1627 H 0.75635 0.80791 0.76486 0.0
H1628 H 0.70438 0.73028 0.81398 0.0
H1629 H 0.73023 0.75353 0.79852 0.0
H1630 H 0.7458 0.72515 0.75306 0.0
C1631 C 0.80506 0.78576 0.73735 0.0
C1632 C 0.75413 0.78988 0.76212 0.0
C1633 C 0.82012 0.79936 0.7287 0.0
C1634 C 0.70377 0.72846 0.80166 0.0
C1635 C 0.71856 0.74185 0.7928 0.0
C1636 C 0.74786 0.74324 0.75566 0.0
C1637 C 0.78295 0.79376 0.74099 0.0
C1638 C 0.76687 0.77968 0.75029 0.0
C1639 C 0.7188 0.73969 0.7768 0.0
C1640 C 0.73516 0.75347 0.76751 0.0
H1641 H 0.78515 0.84558 0.72306 0.0
H1642 H 0.75919 0.82206 0.73815 0.0
H1643 H 0.77307 0.74788 0.73807 0.0
H1644 H 0.67719 0.69882 0.77304 0.0
H1645 H 0.70315 0.72226 0.75753 0.0
C1646 C 0.69214 0.21537 0.23252 0.0
C1647 C 0.69493 0.19136 0.23252 0.0
C1648 C 0.70791 0.22952 0.24018 0.0
C1649 C 0.75224 0.22873 0.27044 0.0
H1650 H 0.77696 0.28196 0.24948 0.0
C1651 C 0.83157 0.277 0.29342 0.0
C1652 C 0.83169 0.30111 0.29237 0.0
C1653 C 0.8146 0.26408 0.28604 0.0
C1654 C 0.77004 0.26734 0.2556 0.0
H1655 H 0.71617 0.1634 0.24083 0.0
H1656 H 0.74339 0.18794 0.25416 0.0
H1657 H 0.7469 0.25913 0.23733 0.0
H1658 H 0.81413 0.33051 0.28257 0.0
H1659 H 0.78439 0.30806 0.26996 0.0
H1660 H 0.77518 0.2369 0.28874 0.0
C1661 C 0.72906 0.19589 0.24831 0.0
C1662 C 0.75279 0.25427 0.24862 0.0
C1663 C 0.7135 0.18182 0.24058 0.0
C1664 C 0.81464 0.31196 0.28358 0.0
C1665 C 0.7976 0.29905 0.27627 0.0
C1666 C 0.76937 0.24186 0.27745 0.0
C1667 C 0.72659 0.2199 0.24811 0.0
C1668 C 0.74385 0.23468 0.2559 0.0
C1669 C 0.79723 0.27494 0.27749 0.0
C1670 C 0.77867 0.26122 0.27008 0.0
H1671 H 0.67805 0.22325 0.22639 0.0
H1672 H 0.70546 0.24797 0.23992 0.0
H1673 H 0.74548 0.21393 0.27644 0.0
H1674 H 0.8445 0.26808 0.30003 0.0
H1675 H 0.81514 0.24553 0.28701 0.0
C1676 C 0.83867 0.23505 0.78962 0.0
C1677 C 0.83757 0.21096 0.78847 0.0
C1678 C 0.8235 0.24891 0.7813 0.0
C1679 C 0.76636 0.24773 0.76353 0.0
H1680 H 0.78677 0.30289 0.74277 0.0
C1681 C 0.70514 0.30316 0.72621 0.0
C1682 C 0.70847 0.32708 0.72641 0.0
C1683 C 0.7208 0.28851 0.73352 0.0
C1684 C 0.78067 0.28773 0.74868 0.0
H1685 H 0.81993 0.18262 0.77736 0.0
H1686 H 0.79351 0.2068 0.76295 0.0
H1687 H 0.81465 0.2786 0.75577 0.0
H1688 H 0.73036 0.35442 0.7349 0.0
H1689 H 0.75705 0.32915 0.74795 0.0
H1690 H 0.73232 0.25704 0.75677 0.0
C1691 C 0.80601 0.21495 0.77035 0.0
C1692 C 0.79672 0.27376 0.75609 0.0
C1693 C 0.82129 0.20111 0.77854 0.0
C1694 C 0.7274 0.33605 0.73438 0.0
C1695 C 0.74286 0.3215 0.74178 0.0
C1696 C 0.75025 0.26181 0.75624 0.0
C1697 C 0.80676 0.23899 0.77177 0.0
C1698 C 0.78976 0.25363 0.76363 0.0
C1699 C 0.74001 0.2975 0.74129 0.0
C1700 C 0.75716 0.28208 0.74877 0.0
H1701 H 0.85095 0.24321 0.79717 0.0
H1702 H 0.82443 0.2674 0.7827 0.0
H1703 H 0.76041 0.23246 0.7694 0.0
H1704 H 0.69078 0.29571 0.7201 0.0
H1705 H 0.71811 0.27013 0.73276 0.0
C1706 C 0.6915 0.79952 0.28364 0.0
C1707 C 0.69497 0.82337 0.28482 0.0
C1708 C 0.70706 0.7858 0.27552 0.0
C1709 C 0.75058 0.78794 0.24523 0.0
H1710 H 0.7765 0.73413 0.26483 0.0
C1711 C 0.82737 0.73985 0.21871 0.0
C1712 C 0.82792 0.71578 0.21997 0.0
C1713 C 0.81118 0.75271 0.22684 0.0
C1714 C 0.76922 0.74888 0.25905 0.0
H1715 H 0.71711 0.8516 0.27808 0.0
H1716 H 0.74386 0.82778 0.26372 0.0
H1717 H 0.74702 0.75639 0.27795 0.0
H1718 H 0.81194 0.68636 0.23087 0.0
H1719 H 0.78337 0.7086 0.24463 0.0
H1720 H 0.77227 0.78035 0.22622 0.0
C1721 C 0.72925 0.81965 0.26914 0.0
C1722 C 0.75234 0.76164 0.26661 0.0
C1723 C 0.71397 0.83326 0.27744 0.0
C1724 C 0.81212 0.7049 0.22971 0.0
C1725 C 0.79575 0.71771 0.23768 0.0
C1726 C 0.76722 0.77503 0.23758 0.0
C1727 C 0.7261 0.79576 0.2682 0.0
C1728 C 0.743 0.78141 0.25983 0.0
C1729 C 0.79492 0.7418 0.23629 0.0
C1730 C 0.77695 0.75542 0.24443 0.0
H1731 H 0.67705 0.79141 0.28924 0.0
H1732 H 0.70417 0.76743 0.2749 0.0
H1733 H 0.7435 0.80298 0.23967 0.0
H1734 H 0.8394 0.74877 0.21138 0.0
H1735 H 0.81146 0.77124 0.22571 0.0
C1736 C 0.55322 0.44152 0.03247 0.0
C1737 C 0.56218 0.45017 0.04625 0.0
C1738 C 0.53911 0.45526 0.02325 0.0
C1739 C 0.50247 0.50745 0.02409 0.0
H1740 H 0.51219 0.50736 0.98027 0.0
C1741 C 0.45759 0.57275 0.98385 0.0
C1742 C 0.44887 0.56388 0.97007 0.0
C1743 C 0.47184 0.55928 0.99316 0.0
C1744 C 0.50909 0.50745 0.99247 0.0
H1745 H 0.56297 0.47992 0.06124 0.0
H1746 H 0.53859 0.50372 0.04521 0.0
H1747 H 0.53527 0.48236 0.9965 0.0
H1748 H 0.44859 0.53399 0.9552 0.0
H1749 H 0.47313 0.51066 0.97138 0.0
H1750 H 0.47626 0.53251 0.02006 0.0
C1751 C 0.54226 0.48632 0.04154 0.0
C1752 C 0.5223 0.49305 1.00178 0.0
C1753 C 0.55639 0.47267 0.0507 0.0
C1754 C 0.45499 0.54142 0.96572 0.0
C1755 C 0.46922 0.52804 0.97497 0.0
C1756 C 0.48924 0.52184 0.01478 0.0
C1757 C 0.53357 0.47788 0.02765 0.0
C1758 C 0.51915 0.49285 0.01771 0.0
C1759 C 0.47774 0.53671 0.98886 0.0
C1760 C 0.49235 0.52199 0.99885 0.0
H1761 H 0.55734 0.42427 0.02871 0.0
H1762 H 0.53248 0.44812 0.0127 0.0
H1763 H 0.49938 0.50752 0.0363 0.0
H1764 H 0.45322 0.58998 0.98753 0.0
H1765 H 0.47831 0.56659 1.00371 0.0
C1766 C 0.06239 0.46743 0.46914 0.0
C1767 C 0.06724 0.4446 0.47333 0.0
C1768 C 0.04764 0.48095 0.47791 0.0
C1769 C 0.02302 0.48624 0.51662 0.0
H1770 H 0.98083 0.52809 0.4966 0.0
C1771 C 0.95383 0.53691 0.54976 0.0
C1772 C 0.94963 0.55983 0.54547 0.0
C1773 C 0.96827 0.52291 0.54107 0.0
C1774 C 0.99271 0.51671 0.50238 0.0
H1775 H 0.06014 0.41801 0.49002 0.0
H1776 H 0.0341 0.44164 0.50535 0.0
H1777 H 1.00498 0.50289 0.48124 0.0
H1778 H 0.95756 0.58605 0.52868 0.0
H1779 H 0.98296 0.56159 0.5135 0.0
H1780 H 0.01071 0.50008 0.53777 0.0
C1781 C 0.04199 0.44913 0.49532 0.0
C1782 C 1.00653 0.50221 0.49357 0.0
C1783 C 0.05679 0.43553 0.48649 0.0
C1784 C 0.9604 0.56847 0.5323 0.0
C1785 C 0.97484 0.5544 0.52355 0.0
C1786 C 0.00916 0.50073 0.52544 0.0
C1787 C 0.03728 0.47204 0.49114 0.0
C1788 C 0.02194 0.48684 0.50057 0.0
C1789 C 0.97889 0.53141 0.52781 0.0
C1790 C 0.99386 0.5162 0.51843 0.0
H1791 H 0.07016 0.47504 0.4591 0.0
H1792 H 0.04473 0.49858 0.47447 0.0
H1793 H 0.03493 0.47491 0.5224 0.0
H1794 H 0.94581 0.52962 0.55982 0.0
H1795 H 0.97074 0.50523 0.54459 0.0
C1796 C 0.04745 0.58037 0.03076 0.0
C1797 C 0.06814 0.5712 0.03632 0.0
C1798 C 0.0317 0.56631 0.02301 0.0
C1799 C 0.02704 0.51095 1.00203 0.0
H1800 H 0.96235 0.51593 0.01156 0.0
C1801 C 0.96001 0.44554 0.97906 0.0
C1802 C 0.93892 0.45461 0.97414 0.0
C1803 C 0.97583 0.45944 0.98689 0.0
C1804 C 0.98032 0.51445 0.00862 0.0
H1805 H 0.08856 0.54009 0.03787 0.0
H1806 H 0.06126 0.51579 0.02447 0.0
H1807 H 0.98971 0.54148 0.02406 0.0
H1808 H 0.91793 0.48543 0.97372 0.0
H1809 H 0.9454 0.50949 0.98707 0.0
H1810 H 0.01768 0.48401 0.98653 0.0
C1811 C 0.05719 0.53382 0.02597 0.0
C1812 C 0.99601 0.52916 0.01579 0.0
C1813 C 0.07282 0.54778 0.03376 0.0
C1814 C 0.93396 0.47778 0.97736 0.0
C1815 C 0.9497 0.49161 0.98514 0.0
C1816 C 0.01134 0.49628 0.99482 0.0
C1817 C 0.03638 0.54283 0.02055 0.0
C1818 C 0.01958 0.52759 0.0126 0.0
C1819 C 0.97089 0.4827 0.98998 0.0
C1820 C 0.98775 0.49784 0.998 0.0
H1821 H 0.04332 0.59832 0.03253 0.0
H1822 H 0.01591 0.57386 0.01884 0.0
H1823 H 0.04504 0.50945 0.99916 0.0
H1824 H 0.96437 0.42777 0.97678 0.0
H1825 H 0.99187 0.45191 0.9906 0.0
C1826 C 0.55544 0.57421 0.48126 0.0
C1827 C 0.57007 0.56507 0.47004 0.0
C1828 C 0.54098 0.55976 0.48971 0.0
C1829 C 0.51423 0.50182 0.48905 0.0
H1830 H 0.50759 0.51142 0.53266 0.0
C1831 C 0.46726 0.43647 0.52815 0.0
C1832 C 0.45277 0.44572 0.53941 0.0
C1833 C 0.48189 0.45081 0.51973 0.0
C1834 C 0.50907 0.50862 0.52046 0.0
H1835 H 0.58084 0.53353 0.45888 0.0
H1836 H 0.55588 0.5085 0.47361 0.0
H1837 H 0.53175 0.53732 0.5178 0.0
H1838 H 0.4424 0.47732 0.55067 0.0
H1839 H 0.46759 0.50213 0.53598 0.0
H1840 H 0.49152 0.47315 0.4917 0.0
C1841 C 0.55533 0.52682 0.4758 0.0
C1842 C 0.5229 0.52351 0.51194 0.0
C1843 C 0.56978 0.54121 0.4674 0.0
C1844 C 0.45337 0.46955 0.54212 0.0
C1845 C 0.46795 0.48382 0.53374 0.0
C1846 C 0.50039 0.48693 0.49757 0.0
C1847 C 0.54077 0.53586 0.48708 0.0
C1848 C 0.52567 0.5203 0.49612 0.0
C1849 C 0.48238 0.47469 0.52242 0.0
C1850 C 0.4976 0.49015 0.51339 0.0
H1851 H 0.55523 0.59251 0.48357 0.0
H1852 H 0.5298 0.56732 0.49822 0.0
H1853 H 0.51572 0.49902 0.47685 0.0
H1854 H 0.46724 0.41819 0.52579 0.0
H1855 H 0.49296 0.44316 0.51119 0.0
C1856 C 0.14297 0.05938 0.31071 0.0
C1857 C 0.15362 0.07988 0.30602 0.0
C1858 C 0.14595 0.03907 0.30238 0.0
C1859 C 0.15846 0.01857 0.26367 0.0
H1860 H 0.16625 0.95964 0.28367 0.0
C1861 C 0.16377 0.93269 0.22966 0.0
C1862 C 0.15206 0.91388 0.23606 0.0
C1863 C 0.16663 0.95308 0.23803 0.0
C1864 C 0.16386 0.97592 0.27788 0.0
H1865 H 0.17625 0.09494 0.28908 0.0
H1866 H 0.18131 0.05946 0.27449 0.0
H1867 H 0.1666 0.99477 0.29885 0.0
H1868 H 0.13398 0.9019 0.25622 0.0
H1869 H 0.13848 0.93726 0.27054 0.0
H1870 H 0.15499 0.99972 0.24276 0.0
C1871 C 0.1706 0.05918 0.2846 0.0
C1872 C 0.16414 0.99606 0.28661 0.0
C1873 C 0.16782 0.07945 0.29303 0.0
C1874 C 0.14325 0.91595 0.25094 0.0
C1875 C 0.14599 0.93625 0.25924 0.0
C1876 C 0.158 0.99838 0.25494 0.0
C1877 C 0.15948 0.03882 0.28908 0.0
C1878 C 0.16111 0.01759 0.27964 0.0
C1879 C 0.15779 0.95509 0.25296 0.0
C1880 C 0.1603 0.97675 0.26197 0.0
H1881 H 0.13191 0.0591 0.32065 0.0
H1882 H 0.13699 0.02373 0.30607 0.0
H1883 H 0.15587 0.0349 0.25798 0.0
H1884 H 0.17081 0.93163 0.21823 0.0
H1885 H 0.17596 0.96718 0.23287 0.0
C1886 C 0.18289 0.91731 0.53977 0.0
C1887 C 0.16447 0.90477 0.53358 0.0
C1888 C 0.20291 0.92088 0.53121 0.0
C1889 C 0.22531 0.91804 0.49126 0.0
H1890 H 0.2844 0.91072 0.51098 0.0
C1891 C 0.30818 0.89561 0.45856 0.0
C1892 C 0.32874 0.90627 0.46308 0.0
C1893 C 0.28797 0.89919 0.46681 0.0
C1894 C 0.26804 0.91316 0.50534 0.0
H1895 H 0.15269 0.8862 0.51352 0.0
H1896 H 0.18741 0.89195 0.49887 0.0
H1897 H 0.24951 0.91002 0.52636 0.0
H1898 H 0.34399 0.92963 0.47956 0.0
H1899 H 0.30868 0.93572 0.49401 0.0
H1900 H 0.24384 0.92034 0.47018 0.0
C1901 C 0.18639 0.89952 0.51016 0.0
C1902 C 0.24802 0.9128 0.51416 0.0
C1903 C 0.16646 0.89604 0.51866 0.0
C1904 C 0.32845 0.92115 0.47576 0.0
C1905 C 0.30827 0.92454 0.48411 0.0
C1906 C 0.24528 0.91821 0.48245 0.0
C1907 C 0.20491 0.91196 0.51629 0.0
C1908 C 0.22635 0.91478 0.50719 0.0
C1909 C 0.28788 0.91334 0.47985 0.0
C1910 C 0.26685 0.91538 0.48935 0.0
H1911 H 0.18187 0.92432 0.55122 0.0
H1912 H 0.21677 0.93071 0.53624 0.0
H1913 H 0.20897 0.92017 0.48553 0.0
H1914 H 0.3078 0.88406 0.44885 0.0
H1915 H 0.27258 0.89017 0.46331 0.0
C1916 C 0.36866 0.06338 0.70755 0.0
C1917 C 0.35596 0.08304 0.71146 0.0
C1918 C 0.36598 0.04294 0.71576 0.0
C1919 C 0.34936 0.022 0.7537 0.0
H1920 H 0.35138 0.96231 0.73403 0.0
C1921 C 0.34797 0.93617 0.78792 0.0
C1922 C 0.36325 0.91916 0.78278 0.0
C1923 C 0.34413 0.95603 0.77919 0.0
C1924 C 0.35095 0.97884 0.73972 0.0
H1925 H 0.32987 0.09639 0.72675 0.0
H1926 H 0.32522 0.06063 0.74107 0.0
H1927 H 0.34952 0.99698 0.71845 0.0
H1928 H 0.38664 0.90984 0.76451 0.0
H1929 H 0.38026 0.94431 0.74956 0.0
H1930 H 0.35143 1.00388 0.77497 0.0
C1931 C 0.33738 0.06113 0.73172 0.0
C1932 C 0.34984 0.99871 0.73078 0.0
C1933 C 0.33993 0.08156 0.72343 0.0
C1934 C 0.37464 0.92249 0.7688 0.0
C1935 C 0.37084 0.94223 0.76013 0.0
C1936 C 0.35057 1.0021 0.76266 0.0
C1937 C 0.35063 0.04169 0.72812 0.0
C1938 C 0.34946 0.02054 0.73764 0.0
C1939 C 0.35547 0.95923 0.76515 0.0
C1940 C 0.35185 0.9803 0.75577 0.0
H1941 H 0.38116 0.06392 0.69841 0.0
H1942 H 0.37661 0.02835 0.71277 0.0
H1943 H 0.34931 0.03858 0.75934 0.0
H1944 H 0.33889 0.93409 0.79863 0.0
H1945 H 0.33209 0.96873 0.78335 0.0
C1946 C 0.34756 0.10528 0.02067 0.0
C1947 C 0.34762 0.10652 0.03672 0.0
C1948 C 0.32732 0.10082 0.01267 0.0
C1949 C 0.26482 0.10597 0.01609 0.0
H1950 H 0.26476 0.06862 0.97934 0.0
C1951 C 0.1825 0.09328 0.98077 0.0
C1952 C 0.18466 0.09579 0.96484 0.0
C1953 C 0.20189 0.09105 0.99003 0.0
C1954 C 0.26452 0.07921 0.98952 0.0
H1955 H 0.32645 0.10357 0.05698 0.0
H1956 H 0.29093 0.09572 0.04295 0.0
H1957 H 0.29942 0.07112 0.99493 0.0
H1958 H 0.20896 0.09689 0.94611 0.0
H1959 H 0.24287 0.09323 0.9623 0.0
H1960 H 0.23014 0.1145 0.01055 0.0
C1961 C 0.30662 0.09839 0.03657 0.0
C1962 C 0.28437 0.08062 0.99847 0.0
C1963 C 0.32697 0.10277 0.04462 0.0
C1964 C 0.20667 0.09496 0.95833 0.0
C1965 C 0.22612 0.09278 0.96762 0.0
C1966 C 0.24498 0.10458 1.00714 0.0
C1967 C 0.30655 0.09752 0.02049 0.0
C1968 C 0.28486 0.09429 0.01175 0.0
C1969 C 0.22398 0.09132 0.98362 0.0
C1970 C 0.24466 0.09141 0.99364 0.0
H1971 H 0.36315 0.10804 0.0142 0.0
H1972 H 0.32787 0.10061 1.00029 0.0
H1973 H 0.26468 0.11692 0.02611 0.0
H1974 H 0.16579 0.09361 0.98617 0.0
H1975 H 0.19958 0.08947 1.00227 0.0
C1976 C 0.85387 0.05396 0.80736 0.0
C1977 C 0.84849 0.0759 0.80168 0.0
C1978 C 0.85075 0.0344 0.79828 0.0
C1979 C 0.8489 0.0167 0.75803 0.0
H1980 H 0.828 0.9587 0.77481 0.0
C1981 C 0.8465 0.93268 0.72198 0.0
C1982 C 0.85477 0.91296 0.72946 0.0
C1983 C 0.84231 0.95295 0.73022 0.0
C1984 C 0.834 0.97474 0.76995 0.0
H1985 H 0.83479 0.09436 0.78215 0.0
H1986 H 0.82937 0.0602 0.76633 0.0
H1987 H 0.82663 0.99331 0.79051 0.0
H1988 H 0.86487 0.89908 0.7515 0.0
H1989 H 0.85794 0.93416 0.76566 0.0
H1990 H 0.85694 0.99801 0.73763 0.0
C1991 C 0.83619 0.05818 0.77777 0.0
C1992 C 0.83318 0.99457 0.77896 0.0
C1993 C 0.83916 0.07774 0.78689 0.0
C1994 C 0.85846 0.91389 0.74533 0.0
C1995 C 0.85428 0.93403 0.75352 0.0
C1996 C 0.84983 0.99682 0.74903 0.0
C1997 C 0.84228 0.03632 0.78327 0.0
C1998 C 0.84102 0.01571 0.77321 0.0
C1999 C 0.84622 0.95386 0.74611 0.0
C2000 C 0.84284 0.97548 0.75499 0.0
H2001 H 0.86109 0.0519 0.81869 0.0
H2002 H 0.85582 0.01785 0.80283 0.0
H2003 H 0.85527 0.03268 0.7533 0.0
H2004 H 0.84345 0.93251 0.70977 0.0
H2005 H 0.83594 0.96788 0.72417 0.0
C2006 C 0.68337 0.09004 0.54349 0.0
C2007 C 0.68353 0.10453 0.55637 0.0
C2008 C 0.70338 0.08658 0.53494 0.0
C2009 C 0.76653 0.09193 0.53624 0.0
H2010 H 0.76184 0.10208 0.49253 0.0
C2011 C 0.84506 0.11543 0.50017 0.0
C2012 C 0.84695 0.10741 0.48506 0.0
C2013 C 0.82518 0.1116 0.50865 0.0
C2014 C 0.76345 0.09874 0.50466 0.0
H2015 H 0.70508 0.12591 0.57075 0.0
H2016 H 0.73997 0.11962 0.556 0.0
H2017 H 0.72712 0.10101 0.50809 0.0
H2018 H 0.82937 0.08879 0.46707 0.0
H2019 H 0.79451 0.0818 0.48201 0.0
H2020 H 0.80278 0.08982 0.53291 0.0
C2021 C 0.72438 0.11097 0.55247 0.0
C2022 C 0.74353 0.09817 0.51359 0.0
C2023 C 0.70435 0.11465 0.5609 0.0
C2024 C 0.82844 0.09523 0.47867 0.0
C2025 C 0.80844 0.09132 0.48722 0.0
C2026 C 0.78639 0.09232 0.52731 0.0
C2027 C 0.72403 0.09728 0.53922 0.0
C2028 C 0.7449 0.09529 0.52953 0.0
C2029 C 0.80657 0.09951 0.50233 0.0
C2030 C 0.78519 0.09632 0.51146 0.0
H2031 H 0.66762 0.08201 0.53966 0.0
H2032 H 0.70263 0.07576 0.52487 0.0
H2033 H 0.76811 0.08928 0.54845 0.0
H2034 H 0.85888 0.12498 0.50548 0.0
H2035 H 0.82426 0.11863 0.5201 0.0
C2036 C 0.64566 0.06243 0.20699 0.0
C2037 C 0.65043 0.08367 0.21396 0.0
C2038 C 0.648 0.04191 0.2152 0.0
C2039 C 0.64742 0.0197 0.25457 0.0
H2040 H 0.6729 0.96473 0.2362 0.0
C2041 C 0.65586 0.93431 0.28828 0.0
C2042 C 0.64985 0.91422 0.28029 0.0
C2043 C 0.65828 0.95526 0.28052 0.0
C2044 C 0.66555 0.97987 0.24147 0.0
H2045 H 0.66199 0.09992 0.23496 0.0
H2046 H 0.66604 0.06418 0.24921 0.0
H2047 H 0.67264 1.00062 0.2218 0.0
H2048 H 0.6419 0.90038 0.25784 0.0
H2049 H 0.6457 0.93668 0.24448 0.0
H2050 H 0.63982 0.9989 0.27409 0.0
C2051 C 0.66028 0.0634 0.23744 0.0
C2052 C 0.66544 1.00045 0.2332 0.0
C2053 C 0.65807 0.08388 0.22923 0.0
C2054 C 0.64661 0.91548 0.26438 0.0
C2055 C 0.64897 0.93634 0.25666 0.0
C2056 C 0.64742 0.9991 0.26281 0.0
C2057 C 0.65504 0.0422 0.23059 0.0
C2058 C 0.65617 0.02055 0.2396 0.0
C2059 C 0.65474 0.95653 0.26461 0.0
C2060 C 0.65625 0.97885 0.2563 0.0
H2061 H 0.63973 0.06165 0.19526 0.0
H2062 H 0.64364 0.02586 0.20962 0.0
H2063 H 0.6399 0.03483 0.25976 0.0
H2064 H 0.65854 0.9339 0.30053 0.0
H2065 H 0.66299 0.97043 0.28698 0.0
C2066 C 0.70026 0.91916 0.95879 0.0
C2067 C 0.67869 0.91877 0.96593 0.0
C2068 C 0.72026 0.92228 0.96743 0.0
C2069 C 0.74231 0.91441 1.00657 0.0
H2070 H 0.79411 0.94961 0.99165 0.0
C2071 C 0.82719 0.92091 0.04079 0.0
C2072 C 0.84717 0.91749 0.0321 0.0
C2073 C 0.80604 0.92452 0.03353 0.0
C2074 C 0.77983 0.93963 0.99595 0.0
H2075 H 0.66119 0.92223 0.98771 0.0
H2076 H 0.69596 0.9278 1.00268 0.0
H2077 H 0.75832 0.94935 0.97717 0.0
H2078 H 0.8607 0.91604 0.00901 0.0
H2079 H 0.82411 0.92207 0.99649 0.0
H2080 H 0.76394 0.90423 0.02515 0.0
C2081 C 0.69748 0.92534 0.99045 0.0
C2082 C 0.75933 0.93947 0.98764 0.0
C2083 C 0.67753 0.92227 0.98183 0.0
C2084 C 0.84566 0.91854 0.01608 0.0
C2085 C 0.82465 0.9222 0.00886 0.0
C2086 C 0.76282 0.91454 0.01487 0.0
C2087 C 0.71912 0.92505 0.9834 0.0
C2088 C 0.74042 0.92658 0.99273 0.0
C2089 C 0.8045 0.92493 0.01746 0.0
C2090 C 0.78196 0.92684 0.00953 0.0
H2091 H 0.70178 0.9165 0.94658 0.0
H2092 H 0.73666 0.92175 0.96165 0.0
H2093 H 0.72818 0.90407 0.01073 0.0
H2094 H 0.82779 0.92025 0.05315 0.0
H2095 H 0.79086 0.9268 0.04049 0.0
C2096 C 0.6477 0.42629 0.74281 0.0
C2097 C 0.66011 0.42152 0.72941 0.0
C2098 C 0.64927 0.44777 0.74982 0.0
C2099 C 0.68448 0.49906 0.75467 0.0
H2100 H 0.62648 0.52962 0.76231 0.0
C2101 C 0.67109 0.5825 0.79155 0.0
C2102 C 0.65786 0.59954 0.78431 0.0
C2103 C 0.6737 0.56076 0.7848 0.0
C2104 C 0.6428 0.52127 0.76026 0.0
H2105 H 0.68452 0.43535 0.71314 0.0
H2106 H 0.68753 0.47305 0.72566 0.0
H2107 H 0.62677 0.49144 0.7507 0.0
H2108 H 0.63754 0.60725 0.76413 0.0
H2109 H 0.64174 0.56944 0.75266 0.0
H2110 H 0.70042 0.52901 0.76446 0.0
C2111 C 0.6765 0.46004 0.73061 0.0
C2112 C 0.64296 0.49942 0.75369 0.0
C2113 C 0.67467 0.43856 0.72341 0.0
C2114 C 0.6478 0.59457 0.77007 0.0
C2115 C 0.65013 0.57287 0.76349 0.0
C2116 C 0.6843 0.52085 0.76154 0.0
C2117 C 0.66352 0.46492 0.74375 0.0
C2118 C 0.66377 0.48813 0.75076 0.0
C2119 C 0.66282 0.55567 0.77085 0.0
C2120 C 0.66343 0.53221 0.76426 0.0
H2121 H 0.63634 0.41357 0.74775 0.0
H2122 H 0.6392 0.45104 0.76 0.0
H2123 H 0.70073 0.49062 0.75259 0.0
H2124 H 0.6791 0.58583 0.80251 0.0
H2125 H 0.68353 0.5477 0.79071 0.0
C2126 C 0.82461 0.4294 0.97143 0.0
C2127 C 0.83984 0.41238 0.97662 0.0
C2128 C 0.80392 0.43346 0.97915 0.0
C2129 C 0.77398 0.42126 0.01614 0.0
H2130 H 0.71896 0.43202 0.99237 0.0
C2131 C 0.67032 0.40835 0.02209 0.0
C2132 C 0.66681 0.41545 0.03727 0.0
C2133 C 0.69135 0.41192 0.01488 0.0
C2134 C 0.73413 0.42892 0.9992 0.0
H2135 H 0.84517 0.38621 0.99394 0.0
H2136 H 0.80919 0.39276 1.007 0.0
H2137 H 0.7559 0.4302 0.97955 0.0
H2138 H 0.68254 0.43255 0.05664 0.0
H2139 H 0.71928 0.43929 0.04391 0.0
H2140 H 0.75211 0.4186 0.03565 0.0
C2141 C 0.81331 0.4035 0.99728 0.0
C2142 C 0.75542 0.42821 0.99185 0.0
C2143 C 0.83395 0.39958 0.98966 0.0
C2144 C 0.68472 0.42678 0.04496 0.0
C2145 C 0.70583 0.43051 0.03767 0.0
C2146 C 0.75268 0.42175 0.02346 0.0
C2147 C 0.79798 0.42049 0.99218 0.0
C2148 C 0.7756 0.42384 1.00017 0.0
C2149 C 0.7095 0.42288 0.02257 0.0
C2150 C 0.73239 0.42508 0.01506 0.0
H2151 H 0.82869 0.43962 0.96145 0.0
H2152 H 0.79265 0.44683 0.97496 0.0
H2153 H 0.78917 0.41837 0.02299 0.0
H2154 H 0.65695 0.39949 0.01581 0.0
H2155 H 0.69356 0.40536 1.00339 0.0
C2156 C 0.87868 0.43052 0.27394 0.0
C2157 C 0.86503 0.42315 0.28622 0.0
C2158 C 0.87412 0.45125 0.26654 0.0
C2159 C 0.84438 0.50695 0.27141 0.0
H2160 H 0.85689 0.5119 0.228 0.0
C2161 C 0.85867 0.59411 0.24223 0.0
C2162 C 0.85231 0.59722 0.22687 0.0
C2163 C 0.85651 0.57268 0.24923 0.0
C2164 C 0.85291 0.51082 0.24006 0.0
H2165 H 0.83577 0.4318 0.30035 0.0
H2166 H 0.82746 0.46795 0.2872 0.0
H2167 H 0.85953 0.4747 0.24048 0.0
H2168 H 0.83798 0.58036 0.20693 0.0
H2169 H 0.83371 0.54287 0.21928 0.0
H2170 H 0.83731 0.54301 0.27092 0.0
C2171 C 0.84197 0.45782 0.28345 0.0
C2172 C 0.85479 0.48949 0.2473 0.0
C2173 C 0.84668 0.43707 0.29097 0.0
C2174 C 0.84315 0.57848 0.21876 0.0
C2175 C 0.84082 0.55698 0.22583 0.0
C2176 C 0.84228 0.52826 0.26414 0.0
C2177 C 0.85562 0.46513 0.27109 0.0
C2178 C 0.85115 0.48737 0.26314 0.0
C2179 C 0.84773 0.55375 0.24112 0.0
C2180 C 0.84711 0.5306 0.24845 0.0
H2181 H 0.89307 0.42031 0.27005 0.0
H2182 H 0.88539 0.45652 0.25735 0.0
H2183 H 0.8415 0.50606 0.28362 0.0
H2184 H 0.86587 0.60812 0.24883 0.0
H2185 H 0.86246 0.57085 0.26089 0.0
C2186 C 0.687 0.59718 0.47485 0.0
C2187 C 0.66872 0.61004 0.4809 0.0
C2188 C 0.70683 0.59324 0.48358 0.0
C2189 C 0.7283 0.59514 0.52378 0.0
H2190 H 0.78813 0.60123 0.50495 0.0
C2191 C 0.81054 0.615 0.55795 0.0
C2192 C 0.83103 0.60404 0.5537 0.0
C2193 C 0.79056 0.61202 0.54932 0.0
C2194 C 0.77155 0.59913 0.51034 0.0
H2195 H 0.65708 0.6289 0.50086 0.0
H2196 H 0.69144 0.62246 0.51578 0.0
H2197 H 0.75371 0.60299 0.48908 0.0
H2198 H 0.84639 0.58077 0.53724 0.0
H2199 H 0.81147 0.5757 0.52212 0.0
H2200 H 0.74614 0.59207 0.5451 0.0
C2201 C 0.69043 0.61493 0.50448 0.0
C2202 C 0.7518 0.6001 0.50124 0.0
C2203 C 0.67072 0.6188 0.49582 0.0
C2204 C 0.83089 0.58945 0.54086 0.0
C2205 C 0.81094 0.58667 0.53212 0.0
C2206 C 0.74801 0.59433 0.53287 0.0
C2207 C 0.70876 0.60207 0.49853 0.0
C2208 C 0.72989 0.5986 0.50789 0.0
C2209 C 0.79063 0.59817 0.53614 0.0
C2210 C 0.76984 0.59673 0.5263 0.0
H2211 H 0.68598 0.59016 0.4634 0.0
H2212 H 0.72056 0.58312 0.47866 0.0
H2213 H 0.71175 0.59336 0.52927 0.0
H2214 H 0.81004 0.62636 0.56776 0.0
H2215 H 0.77525 0.62128 0.55266 0.0
C2216 C 0.36218 0.55727 0.31318 0.0
C2217 C 0.35276 0.57842 0.30862 0.0
C2218 C 0.35864 0.53747 0.30438 0.0
C2219 C 0.32203 0.51166 0.27442 0.0
H2220 H 0.37652 0.47651 0.26451 0.0
C2221 C 0.32099 0.42354 0.24283 0.0
C2222 C 0.33796 0.42002 0.23166 0.0
C2223 C 0.32116 0.44338 0.2519 0.0
C2224 C 0.36117 0.48621 0.26711 0.0
H2225 H 0.3313 0.59511 0.29167 0.0
H2226 H 0.32493 0.56053 0.27646 0.0
H2227 H 0.37942 0.50933 0.28178 0.0
H2228 H 0.36791 0.43509 0.22086 0.0
H2229 H 0.36821 0.4696 0.23672 0.0
H2230 H 0.30381 0.48848 0.25966 0.0
C2231 C 0.33512 0.55926 0.28679 0.0
C2232 C 0.36278 0.50484 0.27715 0.0
C2233 C 0.33887 0.5791 0.29547 0.0
C2234 C 0.35459 0.43721 0.22937 0.0
C2235 C 0.35488 0.45691 0.23853 0.0
C2236 C 0.32037 0.49282 0.2645 0.0
C2237 C 0.34537 0.53833 0.29095 0.0
C2238 C 0.34327 0.51786 0.28086 0.0
C2239 C 0.33843 0.46002 0.25008 0.0
C2240 C 0.33997 0.48001 0.26064 0.0
H2241 H 0.37298 0.55615 0.32323 0.0
H2242 H 0.36655 0.52151 0.30796 0.0
H2243 H 0.30668 0.52132 0.27711 0.0
H2244 H 0.30792 0.41067 0.24488 0.0
H2245 H 0.30829 0.44527 0.26073 0.0
C2246 C 0.30765 0.60935 0.95413 0.0
C2247 C 0.32871 0.60044 0.95922 0.0
C2248 C 0.28763 0.60594 0.96262 0.0
C2249 C 0.2685 0.59677 1.00193 0.0
H2250 H 0.20964 0.58487 0.98288 0.0
C2251 C 0.18344 0.59633 0.03663 0.0
C2252 C 0.16496 0.60773 0.02962 0.0
C2253 C 0.20347 0.59153 0.02832 0.0
C2254 C 0.22592 0.58834 0.98839 0.0
H2255 H 0.34508 0.58027 0.97701 0.0
H2256 H 0.31009 0.57447 0.99189 0.0
H2257 H 0.24447 0.58347 0.96751 0.0
H2258 H 0.15302 0.6228 0.00835 0.0
H2259 H 0.18769 0.61488 0.99414 0.0
H2260 H 0.24991 0.60253 0.02269 0.0
C2261 C 0.30914 0.58416 0.98134 0.0
C2262 C 0.24588 0.58747 0.97957 0.0
C2263 C 0.32914 0.58736 0.97275 0.0
C2264 C 0.16684 0.61393 0.01414 0.0
C2265 C 0.18674 0.60919 1.0059 0.0
C2266 C 0.24849 0.59781 0.01075 0.0
C2267 C 0.28823 0.5937 0.97648 0.0
C2268 C 0.26735 0.59213 0.98617 0.0
C2269 C 0.20538 0.598 0.01285 0.0
C2270 C 0.22689 0.59413 1.00401 0.0
H2271 H 0.30671 0.6195 0.94377 0.0
H2272 H 0.27184 0.61368 0.95864 0.0
H2273 H 0.28478 0.60063 1.00733 0.0
H2274 H 0.18252 0.59129 0.04853 0.0
H2275 H 0.21744 0.58273 0.03401 0.0
C2276 C 0.16508 0.45455 0.80926 0.0
C2277 C 0.16602 0.43264 0.80251 0.0
C2278 C 0.16797 0.47435 0.80036 0.0
C2279 C 0.16131 0.49442 0.7607 0.0
H2280 H 0.19302 0.54864 0.77548 0.0
C2281 C 0.1658 0.57827 0.72504 0.0
C2282 C 0.16143 0.5986 0.73322 0.0
C2283 C 0.16967 0.55754 0.73281 0.0
C2284 C 0.18399 0.53368 0.77121 0.0
H2285 H 0.17174 0.41438 0.78119 0.0
H2286 H 0.17691 0.44884 0.76578 0.0
H2287 H 0.19379 0.51339 0.79058 0.0
H2288 H 0.15831 0.61317 0.75598 0.0
H2289 H 0.16475 0.57728 0.76938 0.0
H2290 H 0.15101 0.51481 0.74153 0.0
C2291 C 0.17359 0.45074 0.7779 0.0
C2292 C 0.18444 0.51348 0.77988 0.0
C2293 C 0.17076 0.43098 0.78678 0.0
C2294 C 0.1616 0.59785 0.74929 0.0
C2295 C 0.16549 0.57724 0.75701 0.0
C2296 C 0.16081 0.51463 0.75206 0.0
C2297 C 0.17183 0.47268 0.78452 0.0
C2298 C 0.17283 0.4937 0.77483 0.0
C2299 C 0.16934 0.55676 0.7489 0.0
C2300 C 0.17183 0.53463 0.75732 0.0
H2301 H 0.16144 0.45647 0.82133 0.0
H2302 H 0.16633 0.49099 0.80581 0.0
H2303 H 0.15193 0.47958 0.75656 0.0
H2304 H 0.16582 0.57827 0.71266 0.0
H2305 H 0.17281 0.5421 0.72621 0.0
C2306 C 0.18643 0.42477 0.47502 0.0
C2307 C 0.1871 0.4124 0.46119 0.0
C2308 C 0.20654 0.42881 0.48335 0.0
C2309 C 0.26967 0.43007 0.48073 0.0
H2310 H 0.26834 0.41065 0.52312 0.0
C2311 C 0.35192 0.4074 0.51333 0.0
C2312 C 0.35348 0.41141 0.52914 0.0
C2313 C 0.33152 0.41145 0.50545 0.0
C2314 C 0.26899 0.41663 0.51141 0.0
H2315 H 0.20959 0.39566 0.44491 0.0
H2316 H 0.2447 0.40309 0.45931 0.0
H2317 H 0.23291 0.41131 0.50829 0.0
H2318 H 0.33486 0.42343 0.54902 0.0
H2319 H 0.29915 0.431 0.53515 0.0
H2320 H 0.30567 0.43535 0.48374 0.0
C2321 C 0.2286 0.40953 0.46374 0.0
C2322 C 0.24865 0.41694 0.5029 0.0
C2323 C 0.20846 0.4052 0.45552 0.0
C2324 C 0.3342 0.42011 0.53685 0.0
C2325 C 0.3137 0.4243 0.5289 0.0
C2326 C 0.28995 0.43001 0.48927 0.0
C2327 C 0.22779 0.42091 0.47792 0.0
C2328 C 0.24887 0.42315 0.48737 0.0
C2329 C 0.31205 0.41982 0.5131 0.0
C2330 C 0.29 0.4227 0.50462 0.0
H2331 H 0.17026 0.43053 0.47974 0.0
H2332 H 0.20543 0.4378 0.49417 0.0
H2333 H 0.2703 0.43527 0.46885 0.0
H2334 H 0.36637 0.40062 0.507 0.0
H2335 H 0.33089 0.40731 0.49339 0.0
loop_
_geom_bond_atom_site_label_1
_geom_bond_atom_site_label_2
_geom_bond_distance
_geom_bond_site_symmetry_2
_ccdc_geom_bond_type
Mg0 O7 2.141 . S
Mg0 O8 2.048 . S
Mg0 O9 2.048 . S
Mg0 O12 2.141 . S
C1 O2 1.313 . S
C1 O8 1.195 . S
O2 C1 1.313 . S
C3 O4 1.245 . S
C3 O12 1.289 . S
O4 C3 1.245 . S
C5 O6 1.245 . S
C5 O7 1.289 . S
O6 C5 1.245 . S
O7 Mg0 2.141 . S
O7 C5 1.289 . S
O8 Mg0 2.048 . S
O8 C1 1.195 . S
O9 Mg0 2.048 . S
O9 C10 1.195 . S
C10 O9 1.195 . S
C10 O11 1.313 . S
O11 C10 1.313 . S
O12 Mg0 2.141 . S
O12 C3 1.289 . S
Mg13 O20 2.141 . S
Mg13 O21 2.048 . S
Mg13 O22 2.048 . S
Mg13 O25 2.141 . S
C14 O15 1.313 . S
C14 O21 1.195 . S
O15 C14 1.313 . S
C16 O17 1.245 . S
C16 O25 1.289 . S
O17 C16 1.245 . S
C18 O19 1.245 . S
C18 O20 1.289 . S
O19 C18 1.245 . S
O20 Mg13 2.141 . S
O20 C18 1.289 . S
O21 Mg13 2.048 . S
O21 C14 1.195 . S
O22 Mg13 2.048 . S
O22 C23 1.195 . S
C23 O22 1.195 . S
C23 O24 1.313 . S
O24 C23 1.313 . S
O25 Mg13 2.141 . S
O25 C16 1.289 . S
Mg26 O33 2.141 . S
Mg26 O34 2.048 . S
Mg26 O35 2.048 . S
Mg26 O38 2.141 . S
C27 O28 1.313 . S
C27 O34 1.195 . S
O28 C27 1.313 . S
C29 O30 1.245 . S
C29 O38 1.289 . S
O30 C29 1.245 . S
C31 O32 1.245 . S
C31 O33 1.289 . S
O32 C31 1.245 . S
O33 Mg26 2.141 . S
O33 C31 1.289 . S
O34 Mg26 2.048 . S
O34 C27 1.195 . S
O35 Mg26 2.048 . S
O35 C36 1.195 . S
C36 O35 1.195 . S
C36 O37 1.313 . S
O37 C36 1.313 . S
O38 Mg26 2.141 . S
O38 C29 1.289 . S
Mg39 O46 2.141 . S
Mg39 O47 2.048 . S
Mg39 O48 2.048 . S
Mg39 O51 2.141 . S
C40 O41 1.313 . S
C40 O47 1.195 . S
O41 C40 1.313 . S
C42 O43 1.245 . S
C42 O51 1.289 . S
O43 C42 1.245 . S
C44 O45 1.245 . S
C44 O46 1.289 . S
O45 C44 1.245 . S
O46 Mg39 2.141 . S
O46 C44 1.289 . S
O47 Mg39 2.048 . S
O47 C40 1.195 . S
O48 Mg39 2.048 . S
O48 C49 1.195 . S
C49 O48 1.195 . S
C49 O50 1.313 . S
O50 C49 1.313 . S
O51 Mg39 2.141 . S
O51 C42 1.289 . S
Mg52 O59 2.141 . S
Mg52 O60 2.048 . S
Mg52 O61 2.048 . S
Mg52 O64 2.141 . S
C53 O54 1.313 . S
C53 O60 1.195 . S
O54 C53 1.313 . S
C55 O56 1.245 . S
C55 O64 1.289 . S
O56 C55 1.245 . S
C57 O58 1.245 . S
C57 O59 1.289 . S
O58 C57 1.245 . S
O59 Mg52 2.141 . S
O59 C57 1.289 . S
O60 Mg52 2.048 . S
O60 C53 1.195 . S
O61 Mg52 2.048 . S
O61 C62 1.195 . S
C62 O61 1.195 . S
C62 O63 1.313 . S
O63 C62 1.313 . S
O64 Mg52 2.141 . S
O64 C55 1.289 . S
Mg65 O72 2.141 . S
Mg65 O73 2.048 . S
Mg65 O74 2.048 . S
Mg65 O77 2.141 . S
C66 O67 1.313 . S
C66 O73 1.195 . S
O67 C66 1.313 . S
C68 O69 1.245 . S
C68 O77 1.289 . S
O69 C68 1.245 . S
C70 O71 1.245 . S
C70 O72 1.289 . S
O71 C70 1.245 . S
O72 Mg65 2.141 . S
O72 C70 1.289 . S
O73 Mg65 2.048 . S
O73 C66 1.195 . S
O74 Mg65 2.048 . S
O74 C75 1.195 . S
C75 O74 1.195 . S
C75 O76 1.313 . S
O76 C75 1.313 . S
O77 Mg65 2.141 . S
O77 C68 1.289 . S
Mg78 O85 2.141 . S
Mg78 O86 2.048 . S
Mg78 O87 2.048 . S
Mg78 O90 2.141 . S
C79 O80 1.313 . S
C79 O86 1.195 . S
O80 C79 1.313 . S
C81 O82 1.245 . S
C81 O90 1.289 . S
O82 C81 1.245 . S
C83 O84 1.245 . S
C83 O85 1.289 . S
O84 C83 1.245 . S
O85 Mg78 2.141 . S
O85 C83 1.289 . S
O86 Mg78 2.048 . S
O86 C79 1.195 . S
O87 Mg78 2.048 . S
O87 C88 1.195 . S
C88 O87 1.195 . S
C88 O89 1.313 . S
O89 C88 1.313 . S
O90 Mg78 2.141 . S
O90 C81 1.289 . S
Mg91 O98 2.141 . S
Mg91 O99 2.048 . S
Mg91 O100 2.048 . S
Mg91 O103 2.141 . S
C92 O93 1.313 . S
C92 O99 1.195 . S
O93 C92 1.313 . S
C94 O95 1.245 . S
C94 O103 1.289 . S
O95 C94 1.245 . S
C96 O97 1.245 . S
C96 O98 1.289 . S
O97 C96 1.245 . S
O98 Mg91 2.141 . S
O98 C96 1.289 . S
O99 Mg91 2.048 . S
O99 C92 1.195 . S
O100 Mg91 2.048 . S
O100 C101 1.195 . S
C101 O100 1.195 . S
C101 O102 1.313 . S
O102 C101 1.313 . S
O103 Mg91 2.141 . S
O103 C94 1.289 . S
Mg104 O111 2.141 . S
Mg104 O112 2.048 . S
Mg104 O113 2.048 . S
Mg104 O116 2.141 . S
C105 O106 1.313 . S
C105 O112 1.195 . S
O106 C105 1.313 . S
C107 O108 1.245 . S
C107 O116 1.289 . S
O108 C107 1.245 . S
C109 O110 1.245 . S
C109 O111 1.289 . S
O110 C109 1.245 . S
O111 Mg104 2.141 . S
O111 C109 1.289 . S
O112 Mg104 2.048 . S
O112 C105 1.195 . S
O113 Mg104 2.048 . S
O113 C114 1.195 . S
C114 O113 1.195 . S
C114 O115 1.313 . S
O115 C114 1.313 . S
O116 Mg104 2.141 . S
O116 C107 1.289 . S
Mg117 O124 2.141 . S
Mg117 O125 2.048 . S
Mg117 O126 2.048 . S
Mg117 O129 2.141 . S
C118 O119 1.313 . S
C118 O125 1.195 . S
O119 C118 1.313 . S
C120 O121 1.245 . S
C120 O129 1.289 . S
O121 C120 1.245 . S
C122 O123 1.245 . S
C122 O124 1.289 . S
O123 C122 1.245 . S
O124 Mg117 2.141 . S
O124 C122 1.289 . S
O125 Mg117 2.048 . S
O125 C118 1.195 . S
O126 Mg117 2.048 . S
O126 C127 1.195 . S
C127 O126 1.195 . S
C127 O128 1.313 . S
O128 C127 1.313 . S
O129 Mg117 2.141 . S
O129 C120 1.289 . S
Mg130 O137 2.141 . S
Mg130 O138 2.048 . S
Mg130 O139 2.048 . S
Mg130 O142 2.141 . S
C131 O132 1.313 . S
C131 O138 1.195 . S
O132 C131 1.313 . S
C133 O134 1.245 . S
C133 O142 1.289 . S
O134 C133 1.245 . S
C135 O136 1.245 . S
C135 O137 1.289 . S
O136 C135 1.245 . S
O137 Mg130 2.141 . S
O137 C135 1.289 . S
O138 Mg130 2.048 . S
O138 C131 1.195 . S
O139 Mg130 2.048 . S
O139 C140 1.195 . S
C140 O139 1.195 . S
C140 O141 1.313 . S
O141 C140 1.313 . S
O142 Mg130 2.141 . S
O142 C133 1.289 . S
Mg143 O150 2.141 . S
Mg143 O151 2.048 . S
Mg143 O152 2.048 . S
Mg143 O155 2.141 . S
C144 O145 1.313 . S
C144 O151 1.195 . S
O145 C144 1.313 . S
C146 O147 1.245 . S
C146 O155 1.289 . S
O147 C146 1.245 . S
C148 O149 1.245 . S
C148 O150 1.289 . S
O149 C148 1.245 . S
O150 Mg143 2.141 . S
O150 C148 1.289 . S
O151 Mg143 2.048 . S
O151 C144 1.195 . S
O152 Mg143 2.048 . S
O152 C153 1.195 . S
C153 O152 1.195 . S
C153 O154 1.313 . S
O154 C153 1.313 . S
O155 Mg143 2.141 . S
O155 C146 1.289 . S
Mg156 O163 2.141 . S
Mg156 O164 2.048 . S
Mg156 O165 2.048 . S
Mg156 O168 2.141 . S
C157 O158 1.313 . S
C157 O164 1.195 . S
O158 C157 1.313 . S
C159 O160 1.245 . S
C159 O168 1.289 . S
O160 C159 1.245 . S
C161 O162 1.245 . S
C161 O163 1.289 . S
O162 C161 1.245 . S
O163 Mg156 2.141 . S
O163 C161 1.289 . S
O164 Mg156 2.048 . S
O164 C157 1.195 . S
O165 Mg156 2.048 . S
O165 C166 1.195 . S
C166 O165 1.195 . S
C166 O167 1.313 . S
O167 C166 1.313 . S
O168 Mg156 2.141 . S
O168 C159 1.289 . S
Mg169 O176 2.141 . S
Mg169 O177 2.048 . S
Mg169 O178 2.048 . S
Mg169 O181 2.141 . S
C170 O171 1.313 . S
C170 O177 1.195 . S
O171 C170 1.313 . S
C172 O173 1.245 . S
C172 O181 1.289 . S
O173 C172 1.245 . S
C174 O175 1.245 . S
C174 O176 1.289 . S
O175 C174 1.245 . S
O176 Mg169 2.141 . S
O176 C174 1.289 . S
O177 Mg169 2.048 . S
O177 C170 1.195 . S
O178 Mg169 2.048 . S
O178 C179 1.195 . S
C179 O178 1.195 . S
C179 O180 1.313 . S
O180 C179 1.313 . S
O181 Mg169 2.141 . S
O181 C172 1.289 . S
Mg182 O189 2.141 . S
Mg182 O190 2.048 . S
Mg182 O191 2.048 . S
Mg182 O194 2.141 . S
C183 O184 1.313 . S
C183 O190 1.195 . S
O184 C183 1.313 . S
C185 O186 1.245 . S
C185 O194 1.289 . S
O186 C185 1.245 . S
C187 O188 1.245 . S
C187 O189 1.289 . S
O188 C187 1.245 . S
O189 Mg182 2.141 . S
O189 C187 1.289 . S
O190 Mg182 2.048 . S
O190 C183 1.195 . S
O191 Mg182 2.048 . S
O191 C192 1.195 . S
C192 O191 1.195 . S
C192 O193 1.313 . S
O193 C192 1.313 . S
O194 Mg182 2.141 . S
O194 C185 1.289 . S
Mg195 O202 2.141 . S
Mg195 O203 2.048 . S
Mg195 O204 2.048 . S
Mg195 O207 2.141 . S
C196 O197 1.313 . S
C196 O203 1.195 . S
O197 C196 1.313 . S
C198 O199 1.245 . S
C198 O207 1.289 . S
O199 C198 1.245 . S
C200 O201 1.245 . S
C200 O202 1.289 . S
O201 C200 1.245 . S
O202 Mg195 2.141 . S
O202 C200 1.289 . S
O203 Mg195 2.048 . S
O203 C196 1.195 . S
O204 Mg195 2.048 . S
O204 C205 1.195 . S
C205 O204 1.195 . S
C205 O206 1.313 . S
O206 C205 1.313 . S
O207 Mg195 2.141 . S
O207 C198 1.289 . S
Mg208 O215 2.141 . S
Mg208 O216 2.048 . S
Mg208 O217 2.048 . S
Mg208 O220 2.141 . S
C209 O210 1.313 . S
C209 O216 1.195 . S
O210 C209 1.313 . S
C211 O212 1.245 . S
C211 O220 1.289 . S
O212 C211 1.245 . S
C213 O214 1.245 . S
C213 O215 1.289 . S
O214 C213 1.245 . S
O215 Mg208 2.141 . S
O215 C213 1.289 . S
O216 Mg208 2.048 . S
O216 C209 1.195 . S
O217 Mg208 2.048 . S
O217 C218 1.195 . S
C218 O217 1.195 . S
C218 O219 1.313 . S
O219 C218 1.313 . S
O220 Mg208 2.141 . S
O220 C211 1.289 . S
Mg221 O228 2.141 . S
Mg221 O229 2.048 . S
Mg221 O230 2.048 . S
Mg221 O233 2.141 . S
C222 O223 1.313 . S
C222 O229 1.195 . S
O223 C222 1.313 . S
C224 O225 1.245 . S
C224 O233 1.289 . S
O225 C224 1.245 . S
C226 O227 1.245 . S
C226 O228 1.289 . S
O227 C226 1.245 . S
O228 Mg221 2.141 . S
O228 C226 1.289 . S
O229 Mg221 2.048 . S
O229 C222 1.195 . S
O230 Mg221 2.048 . S
O230 C231 1.195 . S
C231 O230 1.195 . S
C231 O232 1.313 . S
O232 C231 1.313 . S
O233 Mg221 2.141 . S
O233 C224 1.289 . S
Mg234 O241 2.141 . S
Mg234 O242 2.048 . S
Mg234 O243 2.048 . S
Mg234 O246 2.141 . S
C235 O236 1.313 . S
C235 O242 1.195 . S
O236 C235 1.313 . S
C237 O238 1.245 . S
C237 O246 1.289 . S
O238 C237 1.245 . S
C239 O240 1.245 . S
C239 O241 1.289 . S
O240 C239 1.245 . S
O241 Mg234 2.141 . S
O241 C239 1.289 . S
O242 Mg234 2.048 . S
O242 C235 1.195 . S
O243 Mg234 2.048 . S
O243 C244 1.195 . S
C244 O243 1.195 . S
C244 O245 1.313 . S
O245 C244 1.313 . S
O246 Mg234 2.141 . S
O246 C237 1.289 . S
Mg247 O254 2.141 . S
Mg247 O255 2.048 . S
Mg247 O256 2.048 . S
Mg247 O259 2.141 . S
C248 O249 1.313 . S
C248 O255 1.195 . S
O249 C248 1.313 . S
C250 O251 1.245 . S
C250 O259 1.289 . S
O251 C250 1.245 . S
C252 O253 1.245 . S
C252 O254 1.289 . S
O253 C252 1.245 . S
O254 Mg247 2.141 . S
O254 C252 1.289 . S
O255 Mg247 2.048 . S
O255 C248 1.195 . S
O256 Mg247 2.048 . S
O256 C257 1.195 . S
C257 O256 1.195 . S
C257 O258 1.313 . S
O258 C257 1.313 . S
O259 Mg247 2.141 . S
O259 C250 1.289 . S
Mg260 O267 2.141 . S
Mg260 O268 2.048 . S
Mg260 O269 2.048 . S
Mg260 O272 2.141 . S
C261 O262 1.313 . S
C261 O268 1.195 . S
O262 C261 1.313 . S
C263 O264 1.245 . S
C263 O272 1.289 . S
O264 C263 1.245 . S
C265 O266 1.245 . S
C265 O267 1.289 . S
O266 C265 1.245 . S
O267 Mg260 2.141 . S
O267 C265 1.289 . S
O268 Mg260 2.048 . S
O268 C261 1.195 . S
O269 Mg260 2.048 . S
O269 C270 1.195 . S
C270 O269 1.195 . S
C270 O271 1.313 . S
O271 C270 1.313 . S
O272 Mg260 2.141 . S
O272 C263 1.289 . S
Mg273 O280 2.141 . S
Mg273 O281 2.048 . S
Mg273 O282 2.048 . S
Mg273 O285 2.141 . S
C274 O275 1.313 . S
C274 O281 1.195 . S
O275 C274 1.313 . S
C276 O277 1.245 . S
C276 O285 1.289 . S
O277 C276 1.245 . S
C278 O279 1.245 . S
C278 O280 1.289 . S
O279 C278 1.245 . S
O280 Mg273 2.141 . S
O280 C278 1.289 . S
O281 Mg273 2.048 . S
O281 C274 1.195 . S
O282 Mg273 2.048 . S
O282 C283 1.195 . S
C283 O282 1.195 . S
C283 O284 1.313 . S
O284 C283 1.313 . S
O285 Mg273 2.141 . S
O285 C276 1.289 . S
Mg286 O293 2.141 . S
Mg286 O294 2.048 . S
Mg286 O295 2.048 . S
Mg286 O298 2.141 . S
C287 O288 1.313 . S
C287 O294 1.195 . S
O288 C287 1.313 . S
C289 O290 1.245 . S
C289 O298 1.289 . S
O290 C289 1.245 . S
C291 O292 1.245 . S
C291 O293 1.289 . S
O292 C291 1.245 . S
O293 Mg286 2.141 . S
O293 C291 1.289 . S
O294 Mg286 2.048 . S
O294 C287 1.195 . S
O295 Mg286 2.048 . S
O295 C296 1.195 . S
C296 O295 1.195 . S
C296 O297 1.313 . S
O297 C296 1.313 . S
O298 Mg286 2.141 . S
O298 C289 1.289 . S
Mg299 O306 2.141 . S
Mg299 O307 2.048 . S
Mg299 O308 2.048 . S
Mg299 O311 2.141 . S
C300 O301 1.313 . S
C300 O307 1.195 . S
O301 C300 1.313 . S
C302 O303 1.245 . S
C302 O311 1.289 . S
O303 C302 1.245 . S
C304 O305 1.245 . S
C304 O306 1.289 . S
O305 C304 1.245 . S
O306 Mg299 2.141 . S
O306 C304 1.289 . S
O307 Mg299 2.048 . S
O307 C300 1.195 . S
O308 Mg299 2.048 . S
O308 C309 1.195 . S
C309 O308 1.195 . S
C309 O310 1.313 . S
O310 C309 1.313 . S
O311 Mg299 2.141 . S
O311 C302 1.289 . S
Mg312 O319 2.141 . S
Mg312 O320 2.048 . S
Mg312 O321 2.048 . S
Mg312 O324 2.141 . S
C313 O314 1.313 . S
C313 O320 1.195 . S
O314 C313 1.313 . S
C315 O316 1.245 . S
C315 O324 1.289 . S
O316 C315 1.245 . S
C317 O318 1.245 . S
C317 O319 1.289 . S
O318 C317 1.245 . S
O319 Mg312 2.141 . S
O319 C317 1.289 . S
O320 Mg312 2.048 . S
O320 C313 1.195 . S
O321 Mg312 2.048 . S
O321 C322 1.195 . S
C322 O321 1.195 . S
C322 O323 1.313 . S
O323 C322 1.313 . S
O324 Mg312 2.141 . S
O324 C315 1.289 . S
Mg325 O332 2.141 . S
Mg325 O333 2.048 . S
Mg325 O334 2.048 . S
Mg325 O337 2.141 . S
C326 O327 1.313 . S
C326 O333 1.195 . S
O327 C326 1.313 . S
C328 O329 1.245 . S
C328 O337 1.289 . S
O329 C328 1.245 . S
C330 O331 1.245 . S
C330 O332 1.289 . S
O331 C330 1.245 . S
O332 Mg325 2.141 . S
O332 C330 1.289 . S
O333 Mg325 2.048 . S
O333 C326 1.195 . S
O334 Mg325 2.048 . S
O334 C335 1.195 . S
C335 O334 1.195 . S
C335 O336 1.313 . S
O336 C335 1.313 . S
O337 Mg325 2.141 . S
O337 C328 1.289 . S
Mg338 O345 2.141 . S
Mg338 O346 2.048 . S
Mg338 O347 2.048 . S
Mg338 O350 2.141 . S
C339 O340 1.313 . S
C339 O346 1.195 . S
O340 C339 1.313 . S
C341 O342 1.245 . S
C341 O350 1.289 . S
O342 C341 1.245 . S
C343 O344 1.245 . S
C343 O345 1.289 . S
O344 C343 1.245 . S
O345 Mg338 2.141 . S
O345 C343 1.289 . S
O346 Mg338 2.048 . S
O346 C339 1.195 . S
O347 Mg338 2.048 . S
O347 C348 1.195 . S
C348 O347 1.195 . S
C348 O349 1.313 . S
O349 C348 1.313 . S
O350 Mg338 2.141 . S
O350 C341 1.289 . S
Mg351 O358 2.141 . S
Mg351 O359 2.048 . S
Mg351 O360 2.048 . S
Mg351 O363 2.141 . S
C352 O353 1.313 . S
C352 O359 1.195 . S
O353 C352 1.313 . S
C354 O355 1.245 . S
C354 O363 1.289 . S
O355 C354 1.245 . S
C356 O357 1.245 . S
C356 O358 1.289 . S
O357 C356 1.245 . S
O358 Mg351 2.141 . S
O358 C356 1.289 . S
O359 Mg351 2.048 . S
O359 C352 1.195 . S
O360 Mg351 2.048 . S
O360 C361 1.195 . S
C361 O360 1.195 . S
C361 O362 1.313 . S
O362 C361 1.313 . S
O363 Mg351 2.141 . S
O363 C354 1.289 . S
Mg364 O371 2.141 . S
Mg364 O372 2.048 . S
Mg364 O373 2.048 . S
Mg364 O376 2.141 . S
C365 O366 1.313 . S
C365 O372 1.195 . S
O366 C365 1.313 . S
C367 O368 1.245 . S
C367 O376 1.289 . S
O368 C367 1.245 . S
C369 O370 1.245 . S
C369 O371 1.289 . S
O370 C369 1.245 . S
O371 Mg364 2.141 . S
O371 C369 1.289 . S
O372 Mg364 2.048 . S
O372 C365 1.195 . S
O373 Mg364 2.048 . S
O373 C374 1.195 . S
C374 O373 1.195 . S
C374 O375 1.313 . S
O375 C374 1.313 . S
O376 Mg364 2.141 . S
O376 C367 1.289 . S
Mg377 O384 2.141 . S
Mg377 O385 2.048 . S
Mg377 O386 2.048 . S
Mg377 O389 2.141 . S
C378 O379 1.313 . S
C378 O385 1.195 . S
O379 C378 1.313 . S
C380 O381 1.245 . S
C380 O389 1.289 . S
O381 C380 1.245 . S
C382 O383 1.245 . S
C382 O384 1.289 . S
O383 C382 1.245 . S
O384 Mg377 2.141 . S
O384 C382 1.289 . S
O385 Mg377 2.048 . S
O385 C378 1.195 . S
O386 Mg377 2.048 . S
O386 C387 1.195 . S
C387 O386 1.195 . S
C387 O388 1.313 . S
O388 C387 1.313 . S
O389 Mg377 2.141 . S
O389 C380 1.289 . S
Mg390 O397 2.141 . S
Mg390 O398 2.048 . S
Mg390 O399 2.048 . S
Mg390 O402 2.141 . S
C391 O392 1.313 . S
C391 O398 1.195 . S
O392 C391 1.313 . S
C393 O394 1.245 . S
C393 O402 1.289 . S
O394 C393 1.245 . S
C395 O396 1.245 . S
C395 O397 1.289 . S
O396 C395 1.245 . S
O397 Mg390 2.141 . S
O397 C395 1.289 . S
O398 Mg390 2.048 . S
O398 C391 1.195 . S
O399 Mg390 2.048 . S
O399 C400 1.195 . S
C400 O399 1.195 . S
C400 O401 1.313 . S
O401 C400 1.313 . S
O402 Mg390 2.141 . S
O402 C393 1.289 . S
Mg403 O410 2.141 . S
Mg403 O411 2.048 . S
Mg403 O412 2.048 . S
Mg403 O415 2.141 . S
C404 O405 1.313 . S
C404 O411 1.195 . S
O405 C404 1.313 . S
C406 O407 1.245 . S
C406 O415 1.289 . S
O407 C406 1.245 . S
C408 O409 1.245 . S
C408 O410 1.289 . S
O409 C408 1.245 . S
O410 Mg403 2.141 . S
O410 C408 1.289 . S
O411 Mg403 2.048 . S
O411 C404 1.195 . S
O412 Mg403 2.048 . S
O412 C413 1.195 . S
C413 O412 1.195 . S
C413 O414 1.313 . S
O414 C413 1.313 . S
O415 Mg403 2.141 . S
O415 C406 1.289 . S
C416 C417 1.349 . S
C416 C418 1.327 . S
C416 H441 0.950 . S
C417 C416 1.349 . S
C417 C433 1.349 . S
C418 C416 1.327 . S
C418 C437 1.429 . S
C418 H442 0.950 . S
C419 C436 1.574 . S
C419 C438 1.368 . S
C419 H443 0.949 . S
H420 C424 0.949 . S
C421 C422 1.349 . S
C421 C423 1.327 . S
C421 H444 0.950 . S
C422 C421 1.349 . S
C422 C434 1.349 . S
C423 C421 1.327 . S
C423 C439 1.429 . S
C423 H445 0.950 . S
C424 H420 0.949 . S
C424 C432 1.574 . S
C424 C440 1.368 . S
H425 C433 0.950 . S
H426 C431 0.950 . S
H427 C432 0.949 . S
H428 C434 0.950 . S
H429 C435 0.950 . S
H430 C436 0.949 . S
C431 H426 0.950 . S
C431 C433 1.327 . S
C431 C437 1.429 . S
C432 C424 1.574 . S
C432 H427 0.949 . S
C432 C438 1.368 . S
C433 C417 1.349 . S
C433 H425 0.950 . S
C433 C431 1.327 . S
C434 C422 1.349 . S
C434 H428 0.950 . S
C434 C435 1.327 . S
C435 H429 0.950 . S
C435 C434 1.327 . S
C435 C439 1.429 . S
C436 C419 1.574 . S
C436 H430 0.949 . S
C436 C440 1.368 . S
C437 C418 1.429 . S
C437 C431 1.429 . S
C437 C438 1.523 . S
C438 C419 1.368 . S
C438 C432 1.368 . S
C438 C437 1.523 . S
C439 C423 1.429 . S
C439 C435 1.429 . S
C439 C440 1.523 . S
C440 C424 1.368 . S
C440 C436 1.368 . S
C440 C439 1.523 . S
H441 C416 0.950 . S
H442 C418 0.950 . S
H443 C419 0.949 . S
H444 C421 0.950 . S
H445 C423 0.950 . S
C446 C447 1.349 . S
C446 C448 1.327 . S
C446 H471 0.950 . S
C447 C446 1.349 . S
C447 C463 1.349 . S
C448 C446 1.327 . S
C448 C467 1.429 . S
C448 H472 0.950 1_455 S
C449 C466 1.574 . S
C449 C468 1.368 . S
C449 H473 0.949 . S
H450 C454 0.949 . S
C451 C452 1.349 . S
C451 C453 1.327 . S
C451 H474 0.950 . S
C452 C451 1.349 . S
C452 C464 1.349 . S
C453 C451 1.327 . S
C453 C469 1.429 . S
C453 H475 0.950 . S
C454 H450 0.949 . S
C454 C462 1.574 . S
C454 C470 1.368 . S
H455 C463 0.950 . S
H456 C461 0.950 . S
H457 C462 0.949 . S
H458 C464 0.950 . S
H459 C465 0.950 . S
H460 C466 0.949 . S
C461 H456 0.950 . S
C461 C463 1.327 . S
C461 C467 1.429 . S
C462 C454 1.574 . S
C462 H457 0.949 . S
C462 C468 1.368 . S
C463 C447 1.349 . S
C463 H455 0.950 . S
C463 C461 1.327 . S
C464 C452 1.349 . S
C464 H458 0.950 . S
C464 C465 1.327 . S
C465 H459 0.950 . S
C465 C464 1.327 . S
C465 C469 1.429 . S
C466 C449 1.574 . S
C466 H460 0.949 . S
C466 C470 1.368 . S
C467 C448 1.429 . S
C467 C461 1.429 . S
C467 C468 1.523 1_455 S
C468 C449 1.368 . S
C468 C462 1.368 . S
C468 C467 1.523 1_655 S
C469 C453 1.429 . S
C469 C465 1.429 . S
C469 C470 1.523 . S
C470 C454 1.368 . S
C470 C466 1.368 . S
C470 C469 1.523 . S
H471 C446 0.950 . S
H472 C448 0.950 1_655 S
H473 C449 0.949 . S
H474 C451 0.950 . S
H475 C453 0.950 . S
C476 C477 1.349 . S
C476 C478 1.327 . S
C476 H501 0.950 . S
C477 C476 1.349 . S
C477 C493 1.349 . S
C478 C476 1.327 . S
C478 C497 1.429 . S
C478 H502 0.950 . S
C479 C496 1.574 . S
C479 C498 1.368 . S
C479 H503 0.949 . S
H480 C484 0.949 . S
C481 C482 1.349 . S
C481 C483 1.327 . S
C481 H504 0.950 . S
C482 C481 1.349 . S
C482 C494 1.349 . S
C483 C481 1.327 . S
C483 C499 1.429 . S
C483 H505 0.950 . S
C484 H480 0.949 . S
C484 C492 1.574 . S
C484 C500 1.368 . S
H485 C493 0.950 . S
H486 C491 0.950 . S
H487 C492 0.949 . S
H488 C494 0.950 . S
H489 C495 0.950 . S
H490 C496 0.949 . S
C491 H486 0.950 . S
C491 C493 1.327 . S
C491 C497 1.429 . S
C492 C484 1.574 . S
C492 H487 0.949 . S
C492 C498 1.368 . S
C493 C477 1.349 . S
C493 H485 0.950 . S
C493 C491 1.327 . S
C494 C482 1.349 . S
C494 H488 0.950 . S
C494 C495 1.327 . S
C495 H489 0.950 . S
C495 C494 1.327 . S
C495 C499 1.429 . S
C496 C479 1.574 . S
C496 H490 0.949 . S
C496 C500 1.368 . S
C497 C478 1.429 . S
C497 C491 1.429 . S
C497 C498 1.523 . S
C498 C479 1.368 . S
C498 C492 1.368 . S
C498 C497 1.523 . S
C499 C483 1.429 . S
C499 C495 1.429 . S
C499 C500 1.523 . S
C500 C484 1.368 . S
C500 C496 1.368 . S
C500 C499 1.523 . S
H501 C476 0.950 . S
H502 C478 0.950 . S
H503 C479 0.949 . S
H504 C481 0.950 . S
H505 C483 0.950 . S
C506 C507 1.349 . S
C506 C508 1.327 . S
C506 H531 0.950 . S
C507 C506 1.349 . S
C507 C523 1.349 . S
C508 C506 1.327 . S
C508 C527 1.429 . S
C508 H532 0.950 . S
C509 C526 1.574 . S
C509 C528 1.368 . S
C509 H533 0.949 . S
H510 C514 0.949 . S
C511 C512 1.349 . S
C511 C513 1.327 . S
C511 H534 0.950 . S
C512 C511 1.349 . S
C512 C524 1.349 . S
C513 C511 1.327 . S
C513 C529 1.429 . S
C513 H535 0.950 . S
C514 H510 0.949 . S
C514 C522 1.574 . S
C514 C530 1.368 . S
H515 C523 0.950 . S
H516 C521 0.950 . S
H517 C522 0.949 . S
H518 C524 0.950 . S
H519 C525 0.950 . S
H520 C526 0.949 . S
C521 H516 0.950 . S
C521 C523 1.327 . S
C521 C527 1.429 . S
C522 C514 1.574 . S
C522 H517 0.949 . S
C522 C528 1.368 . S
C523 C507 1.349 . S
C523 H515 0.950 . S
C523 C521 1.327 . S
C524 C512 1.349 . S
C524 H518 0.950 . S
C524 C525 1.327 . S
C525 H519 0.950 . S
C525 C524 1.327 . S
C525 C529 1.429 . S
C526 C509 1.574 . S
C526 H520 0.949 . S
C526 C530 1.368 . S
C527 C508 1.429 . S
C527 C521 1.429 . S
C527 C528 1.523 . S
C528 C509 1.368 . S
C528 C522 1.368 . S
C528 C527 1.523 . S
C529 C513 1.429 . S
C529 C525 1.429 . S
C529 C530 1.523 . S
C530 C514 1.368 . S
C530 C526 1.368 . S
C530 C529 1.523 . S
H531 C506 0.950 . S
H532 C508 0.950 . S
H533 C509 0.949 . S
H534 C511 0.950 . S
H535 C513 0.950 . S
C536 C537 1.349 . S
C536 C538 1.327 . S
C536 H561 0.950 . S
C537 C536 1.349 . S
C537 C553 1.349 . S
C538 C536 1.327 . S
C538 C557 1.429 . S
C538 H562 0.950 . S
C539 C556 1.574 . S
C539 C558 1.368 . S
C539 H563 0.949 . S
H540 C544 0.949 . S
C541 C542 1.349 . S
C541 C543 1.327 . S
C541 H564 0.950 . S
C542 C541 1.349 . S
C542 C554 1.349 . S
C543 C541 1.327 . S
C543 C559 1.429 . S
C543 H565 0.950 . S
C544 H540 0.949 . S
C544 C552 1.574 . S
C544 C560 1.368 . S
H545 C553 0.950 . S
H546 C551 0.950 . S
H547 C552 0.949 . S
H548 C554 0.950 . S
H549 C555 0.950 . S
H550 C556 0.949 . S
C551 H546 0.950 . S
C551 C553 1.327 . S
C551 C557 1.429 . S
C552 C544 1.574 . S
C552 H547 0.949 . S
C552 C558 1.368 . S
C553 C537 1.349 . S
C553 H545 0.950 . S
C553 C551 1.327 . S
C554 C542 1.349 . S
C554 H548 0.950 . S
C554 C555 1.327 . S
C555 H549 0.950 . S
C555 C554 1.327 . S
C555 C559 1.429 . S
C556 C539 1.574 . S
C556 H550 0.949 . S
C556 C560 1.368 . S
C557 C538 1.429 . S
C557 C551 1.429 . S
C557 C558 1.523 . S
C558 C539 1.368 . S
C558 C552 1.368 . S
C558 C557 1.523 . S
C559 C543 1.429 . S
C559 C555 1.429 . S
C559 C560 1.523 . S
C560 C544 1.368 . S
C560 C556 1.368 . S
C560 C559 1.523 . S
H561 C536 0.950 . S
H562 C538 0.950 . S
H563 C539 0.949 . S
H564 C541 0.950 . S
H565 C543 0.950 . S
C566 C567 1.349 . S
C566 C568 1.327 . S
C566 H591 0.950 . S
C567 C566 1.349 . S
C567 C583 1.349 . S
C568 C566 1.327 . S
C568 C587 1.429 . S
C568 H592 0.950 . S
C569 C586 1.574 . S
C569 C588 1.368 . S
C569 H593 0.949 . S
H570 C574 0.949 . S
C571 C572 1.349 . S
C571 C573 1.327 . S
C571 H594 0.950 . S
C572 C571 1.349 . S
C572 C584 1.349 . S
C573 C571 1.327 . S
C573 C589 1.429 . S
C573 H595 0.950 . S
C574 H570 0.949 . S
C574 C582 1.574 . S
C574 C590 1.368 . S
H575 C583 0.950 . S
H576 C581 0.950 . S
H577 C582 0.949 . S
H578 C584 0.950 . S
H579 C585 0.950 . S
H580 C586 0.949 . S
C581 H576 0.950 . S
C581 C583 1.327 . S
C581 C587 1.429 . S
C582 C574 1.574 . S
C582 H577 0.949 . S
C582 C588 1.368 . S
C583 C567 1.349 . S
C583 H575 0.950 . S
C583 C581 1.327 . S
C584 C572 1.349 . S
C584 H578 0.950 . S
C584 C585 1.327 . S
C585 H579 0.950 . S
C585 C584 1.327 . S
C585 C589 1.429 . S
C586 C569 1.574 . S
C586 H580 0.949 . S
C586 C590 1.368 . S
C587 C568 1.429 . S
C587 C581 1.429 . S
C587 C588 1.523 . S
C588 C569 1.368 . S
C588 C582 1.368 . S
C588 C587 1.523 . S
C589 C573 1.429 . S
C589 C585 1.429 . S
C589 C590 1.523 . S
C590 C574 1.368 . S
C590 C586 1.368 . S
C590 C589 1.523 . S
H591 C566 0.950 . S
H592 C568 0.950 . S
H593 C569 0.949 . S
H594 C571 0.950 . S
H595 C573 0.950 . S
C596 C597 1.349 . S
C596 C598 1.327 . S
C596 H621 0.950 . S
C597 C596 1.349 . S
C597 C613 1.349 . S
C598 C596 1.327 . S
C598 C617 1.429 . S
C598 H622 0.950 . S
C599 C616 1.574 . S
C599 C618 1.368 . S
C599 H623 0.949 . S
H600 C604 0.949 . S
C601 C602 1.349 . S
C601 C603 1.327 . S
C601 H624 0.950 . S
C602 C601 1.349 . S
C602 C614 1.349 . S
C603 C601 1.327 . S
C603 C619 1.429 . S
C603 H625 0.950 . S
C604 H600 0.949 . S
C604 C612 1.574 . S
C604 C620 1.368 . S
H605 C613 0.950 . S
H606 C611 0.950 . S
H607 C612 0.949 . S
H608 C614 0.950 . S
H609 C615 0.950 . S
H610 C616 0.949 . S
C611 H606 0.950 . S
C611 C613 1.327 . S
C611 C617 1.429 . S
C612 C604 1.574 . S
C612 H607 0.949 . S
C612 C618 1.368 . S
C613 C597 1.349 . S
C613 H605 0.950 . S
C613 C611 1.327 . S
C614 C602 1.349 . S
C614 H608 0.950 . S
C614 C615 1.327 . S
C615 H609 0.950 . S
C615 C614 1.327 . S
C615 C619 1.429 . S
C616 C599 1.574 . S
C616 H610 0.949 . S
C616 C620 1.368 . S
C617 C598 1.429 . S
C617 C611 1.429 . S
C617 C618 1.523 . S
C618 C599 1.368 . S
C618 C612 1.368 . S
C618 C617 1.523 . S
C619 C603 1.429 . S
C619 C615 1.429 . S
C619 C620 1.523 . S
C620 C604 1.368 . S
C620 C616 1.368 . S
C620 C619 1.523 . S
H621 C596 0.950 . S
H622 C598 0.950 . S
H623 C599 0.949 . S
H624 C601 0.950 . S
H625 C603 0.950 . S
C626 C627 1.349 . S
C626 C628 1.327 . S
C626 H651 0.950 . S
C627 C626 1.349 . S
C627 C643 1.349 . S
C628 C626 1.327 . S
C628 C647 1.429 . S
C628 H652 0.950 . S
C629 C646 1.574 . S
C629 C648 1.368 . S
C629 H653 0.949 . S
H630 C634 0.949 . S
C631 C632 1.349 . S
C631 C633 1.327 . S
C631 H654 0.950 . S
C632 C631 1.349 . S
C632 C644 1.349 . S
C633 C631 1.327 . S
C633 C649 1.429 . S
C633 H655 0.950 . S
C634 H630 0.949 . S
C634 C642 1.574 . S
C634 C650 1.368 . S
H635 C643 0.950 . S
H636 C641 0.950 1_655 S
H637 C642 0.949 . S
H638 C644 0.950 . S
H639 C645 0.950 . S
H640 C646 0.949 . S
C641 H636 0.950 1_455 S
C641 C643 1.327 . S
C641 C647 1.429 . S
C642 C634 1.574 . S
C642 H637 0.949 . S
C642 C648 1.368 . S
C643 C627 1.349 . S
C643 H635 0.950 . S
C643 C641 1.327 . S
C644 C632 1.349 . S
C644 H638 0.950 . S
C644 C645 1.327 . S
C645 H639 0.950 . S
C645 C644 1.327 . S
C645 C649 1.429 . S
C646 C629 1.574 . S
C646 H640 0.949 . S
C646 C650 1.368 . S
C647 C628 1.429 . S
C647 C641 1.429 . S
C647 C648 1.523 1_455 S
C648 C629 1.368 . S
C648 C642 1.368 . S
C648 C647 1.523 1_655 S
C649 C633 1.429 . S
C649 C645 1.429 . S
C649 C650 1.523 . S
C650 C634 1.368 . S
C650 C646 1.368 . S
C650 C649 1.523 . S
H651 C626 0.950 . S
H652 C628 0.950 . S
H653 C629 0.949 . S
H654 C631 0.950 . S
H655 C633 0.950 . S
C656 C657 1.349 . S
C656 C658 1.327 . S
C656 H681 0.950 . S
C657 C656 1.349 . S
C657 C673 1.349 . S
C658 C656 1.327 . S
C658 C677 1.429 . S
C658 H682 0.950 . S
C659 C676 1.574 . S
C659 C678 1.368 . S
C659 H683 0.949 . S
H660 C664 0.949 . S
C661 C662 1.349 . S
C661 C663 1.327 . S
C661 H684 0.950 . S
C662 C661 1.349 . S
C662 C674 1.349 . S
C663 C661 1.327 . S
C663 C679 1.429 . S
C663 H685 0.950 . S
C664 H660 0.949 . S
C664 C672 1.574 . S
C664 C680 1.368 . S
H665 C673 0.950 . S
H666 C671 0.950 . S
H667 C672 0.949 . S
H668 C674 0.950 . S
H669 C675 0.950 . S
H670 C676 0.949 . S
C671 H666 0.950 . S
C671 C673 1.327 . S
C671 C677 1.429 . S
C672 C664 1.574 . S
C672 H667 0.949 . S
C672 C678 1.368 . S
C673 C657 1.349 . S
C673 H665 0.950 . S
C673 C671 1.327 . S
C674 C662 1.349 . S
C674 H668 0.950 . S
C674 C675 1.327 . S
C675 H669 0.950 . S
C675 C674 1.327 . S
C675 C679 1.429 . S
C676 C659 1.574 . S
C676 H670 0.949 . S
C676 C680 1.368 . S
C677 C658 1.429 . S
C677 C671 1.429 . S
C677 C678 1.523 . S
C678 C659 1.368 . S
C678 C672 1.368 . S
C678 C677 1.523 . S
C679 C663 1.429 . S
C679 C675 1.429 . S
C679 C680 1.523 . S
C680 C664 1.368 . S
C680 C676 1.368 . S
C680 C679 1.523 . S
H681 C656 0.950 . S
H682 C658 0.950 . S
H683 C659 0.949 . S
H684 C661 0.950 . S
H685 C663 0.950 . S
C686 C687 1.349 . S
C686 C688 1.327 . S
C686 H711 0.950 . S
C687 C686 1.349 . S
C687 C703 1.349 . S
C688 C686 1.327 . S
C688 C707 1.429 . S
C688 H712 0.950 . S
C689 C706 1.574 . S
C689 C708 1.368 . S
C689 H713 0.949 . S
H690 C694 0.949 . S
C691 C692 1.349 . S
C691 C693 1.327 . S
C691 H714 0.950 . S
C692 C691 1.349 . S
C692 C704 1.349 . S
C693 C691 1.327 . S
C693 C709 1.429 . S
C693 H715 0.950 1_655 S
C694 H690 0.949 . S
C694 C702 1.574 . S
C694 C710 1.368 . S
H695 C703 0.950 . S
H696 C701 0.950 . S
H697 C702 0.949 . S
H698 C704 0.950 . S
H699 C705 0.950 . S
H700 C706 0.949 . S
C701 H696 0.950 . S
C701 C703 1.327 . S
C701 C707 1.429 . S
C702 C694 1.574 . S
C702 H697 0.949 . S
C702 C708 1.368 . S
C703 C687 1.349 . S
C703 H695 0.950 . S
C703 C701 1.327 . S
C704 C692 1.349 . S
C704 H698 0.950 . S
C704 C705 1.327 . S
C705 H699 0.950 . S
C705 C704 1.327 . S
C705 C709 1.429 . S
C706 C689 1.574 . S
C706 H700 0.949 . S
C706 C710 1.368 . S
C707 C688 1.429 . S
C707 C701 1.429 . S
C707 C708 1.523 . S
C708 C689 1.368 . S
C708 C702 1.368 . S
C708 C707 1.523 . S
C709 C693 1.429 . S
C709 C705 1.429 . S
C709 C710 1.523 1_655 S
C710 C694 1.368 . S
C710 C706 1.368 . S
C710 C709 1.523 1_455 S
H711 C686 0.950 . S
H712 C688 0.950 . S
H713 C689 0.949 . S
H714 C691 0.950 . S
H715 C693 0.950 1_455 S
C716 C717 1.349 . S
C716 C718 1.327 . S
C716 H741 0.950 . S
C717 C716 1.349 . S
C717 C733 1.349 . S
C718 C716 1.327 . S
C718 C737 1.429 . S
C718 H742 0.950 . S
C719 C736 1.574 . S
C719 C738 1.368 . S
C719 H743 0.949 . S
H720 C724 0.949 . S
C721 C722 1.349 . S
C721 C723 1.327 . S
C721 H744 0.950 . S
C722 C721 1.349 . S
C722 C734 1.349 . S
C723 C721 1.327 . S
C723 C739 1.429 . S
C723 H745 0.950 . S
C724 H720 0.949 . S
C724 C732 1.574 . S
C724 C740 1.368 . S
H725 C733 0.950 . S
H726 C731 0.950 . S
H727 C732 0.949 . S
H728 C734 0.950 . S
H729 C735 0.950 . S
H730 C736 0.949 . S
C731 H726 0.950 . S
C731 C733 1.327 . S
C731 C737 1.429 . S
C732 C724 1.574 . S
C732 H727 0.949 . S
C732 C738 1.368 . S
C733 C717 1.349 . S
C733 H725 0.950 . S
C733 C731 1.327 . S
C734 C722 1.349 . S
C734 H728 0.950 . S
C734 C735 1.327 . S
C735 H729 0.950 . S
C735 C734 1.327 . S
C735 C739 1.429 . S
C736 C719 1.574 . S
C736 H730 0.949 . S
C736 C740 1.368 . S
C737 C718 1.429 . S
C737 C731 1.429 . S
C737 C738 1.523 . S
C738 C719 1.368 . S
C738 C732 1.368 . S
C738 C737 1.523 . S
C739 C723 1.429 . S
C739 C735 1.429 . S
C739 C740 1.523 . S
C740 C724 1.368 . S
C740 C736 1.368 . S
C740 C739 1.523 . S
H741 C716 0.950 . S
H742 C718 0.950 . S
H743 C719 0.949 . S
H744 C721 0.950 . S
H745 C723 0.950 . S
C746 C747 1.349 . S
C746 C748 1.327 . S
C746 H771 0.950 . S
C747 C746 1.349 . S
C747 C763 1.349 . S
C748 C746 1.327 . S
C748 C767 1.429 . S
C748 H772 0.950 . S
C749 C766 1.574 . S
C749 C768 1.368 . S
C749 H773 0.949 . S
H750 C754 0.949 . S
C751 C752 1.349 . S
C751 C753 1.327 . S
C751 H774 0.950 . S
C752 C751 1.349 . S
C752 C764 1.349 . S
C753 C751 1.327 . S
C753 C769 1.429 . S
C753 H775 0.950 . S
C754 H750 0.949 . S
C754 C762 1.574 . S
C754 C770 1.368 . S
H755 C763 0.950 . S
H756 C761 0.950 . S
H757 C762 0.949 . S
H758 C764 0.950 . S
H759 C765 0.950 . S
H760 C766 0.949 . S
C761 H756 0.950 . S
C761 C763 1.327 . S
C761 C767 1.429 . S
C762 C754 1.574 . S
C762 H757 0.949 . S
C762 C768 1.368 . S
C763 C747 1.349 . S
C763 H755 0.950 . S
C763 C761 1.327 . S
C764 C752 1.349 . S
C764 H758 0.950 . S
C764 C765 1.327 . S
C765 H759 0.950 . S
C765 C764 1.327 . S
C765 C769 1.429 . S
C766 C749 1.574 . S
C766 H760 0.949 . S
C766 C770 1.368 . S
C767 C748 1.429 . S
C767 C761 1.429 . S
C767 C768 1.523 . S
C768 C749 1.368 . S
C768 C762 1.368 . S
C768 C767 1.523 . S
C769 C753 1.429 . S
C769 C765 1.429 . S
C769 C770 1.523 . S
C770 C754 1.368 . S
C770 C766 1.368 . S
C770 C769 1.523 . S
H771 C746 0.950 . S
H772 C748 0.950 . S
H773 C749 0.949 . S
H774 C751 0.950 . S
H775 C753 0.950 . S
C776 C777 1.349 . S
C776 C778 1.327 . S
C776 H801 0.950 . S
C777 C776 1.349 . S
C777 C793 1.349 . S
C778 C776 1.327 . S
C778 C797 1.429 . S
C778 H802 0.950 . S
C779 C796 1.574 . S
C779 C798 1.368 . S
C779 H803 0.949 . S
H780 C784 0.949 . S
C781 C782 1.349 . S
C781 C783 1.327 . S
C781 H804 0.950 . S
C782 C781 1.349 . S
C782 C794 1.349 . S
C783 C781 1.327 . S
C783 C799 1.429 . S
C783 H805 0.950 . S
C784 H780 0.949 . S
C784 C792 1.574 . S
C784 C800 1.368 . S
H785 C793 0.950 . S
H786 C791 0.950 . S
H787 C792 0.949 . S
H788 C794 0.950 . S
H789 C795 0.950 . S
H790 C796 0.949 . S
C791 H786 0.950 . S
C791 C793 1.327 . S
C791 C797 1.429 . S
C792 C784 1.574 . S
C792 H787 0.949 . S
C792 C798 1.368 . S
C793 C777 1.349 . S
C793 H785 0.950 . S
C793 C791 1.327 . S
C794 C782 1.349 . S
C794 H788 0.950 . S
C794 C795 1.327 . S
C795 H789 0.950 . S
C795 C794 1.327 . S
C795 C799 1.429 . S
C796 C779 1.574 . S
C796 H790 0.949 . S
C796 C800 1.368 . S
C797 C778 1.429 . S
C797 C791 1.429 . S
C797 C798 1.523 . S
C798 C779 1.368 . S
C798 C792 1.368 . S
C798 C797 1.523 . S
C799 C783 1.429 . S
C799 C795 1.429 . S
C799 C800 1.523 . S
C800 C784 1.368 . S
C800 C796 1.368 . S
C800 C799 1.523 . S
H801 C776 0.950 . S
H802 C778 0.950 . S
H803 C779 0.949 . S
H804 C781 0.950 . S
H805 C783 0.950 . S
C806 C807 1.349 . S
C806 C808 1.327 . S
C806 H831 0.950 . S
C807 C806 1.349 . S
C807 C823 1.349 . S
C808 C806 1.327 . S
C808 C827 1.429 . S
C808 H832 0.950 . S
C809 C826 1.574 . S
C809 C828 1.368 . S
C809 H833 0.949 . S
H810 C814 0.949 . S
C811 C812 1.349 . S
C811 C813 1.327 . S
C811 H834 0.950 . S
C812 C811 1.349 . S
C812 C824 1.349 . S
C813 C811 1.327 . S
C813 C829 1.429 . S
C813 H835 0.950 . S
C814 H810 0.949 . S
C814 C822 1.574 . S
C814 C830 1.368 . S
H815 C823 0.950 . S
H816 C821 0.950 . S
H817 C822 0.949 . S
H818 C824 0.950 . S
H819 C825 0.950 . S
H820 C826 0.949 . S
C821 H816 0.950 . S
C821 C823 1.327 . S
C821 C827 1.429 . S
C822 C814 1.574 . S
C822 H817 0.949 . S
C822 C828 1.368 . S
C823 C807 1.349 . S
C823 H815 0.950 . S
C823 C821 1.327 . S
C824 C812 1.349 . S
C824 H818 0.950 . S
C824 C825 1.327 . S
C825 H819 0.950 . S
C825 C824 1.327 . S
C825 C829 1.429 . S
C826 C809 1.574 . S
C826 H820 0.949 . S
C826 C830 1.368 . S
C827 C808 1.429 . S
C827 C821 1.429 . S
C827 C828 1.523 . S
C828 C809 1.368 . S
C828 C822 1.368 . S
C828 C827 1.523 . S
C829 C813 1.429 . S
C829 C825 1.429 . S
C829 C830 1.523 . S
C830 C814 1.368 . S
C830 C826 1.368 . S
C830 C829 1.523 . S
H831 C806 0.950 . S
H832 C808 0.950 . S
H833 C809 0.949 . S
H834 C811 0.950 . S
H835 C813 0.950 . S
C836 C837 1.349 . S
C836 C838 1.327 . S
C836 H861 0.950 . S
C837 C836 1.349 . S
C837 C853 1.349 . S
C838 C836 1.327 . S
C838 C857 1.429 . S
C838 H862 0.950 . S
C839 C856 1.574 . S
C839 C858 1.368 . S
C839 H863 0.949 . S
H840 C844 0.949 . S
C841 C842 1.349 . S
C841 C843 1.327 . S
C841 H864 0.950 . S
C842 C841 1.349 . S
C842 C854 1.349 . S
C843 C841 1.327 . S
C843 C859 1.429 . S
C843 H865 0.950 . S
C844 H840 0.949 . S
C844 C852 1.574 . S
C844 C860 1.368 . S
H845 C853 0.950 . S
H846 C851 0.950 . S
H847 C852 0.949 . S
H848 C854 0.950 . S
H849 C855 0.950 . S
H850 C856 0.949 . S
C851 H846 0.950 . S
C851 C853 1.327 . S
C851 C857 1.429 . S
C852 C844 1.574 . S
C852 H847 0.949 . S
C852 C858 1.368 . S
C853 C837 1.349 . S
C853 H845 0.950 . S
C853 C851 1.327 . S
C854 C842 1.349 . S
C854 H848 0.950 . S
C854 C855 1.327 . S
C855 H849 0.950 . S
C855 C854 1.327 . S
C855 C859 1.429 . S
C856 C839 1.574 . S
C856 H850 0.949 . S
C856 C860 1.368 . S
C857 C838 1.429 . S
C857 C851 1.429 . S
C857 C858 1.523 . S
C858 C839 1.368 . S
C858 C852 1.368 . S
C858 C857 1.523 . S
C859 C843 1.429 . S
C859 C855 1.429 . S
C859 C860 1.523 . S
C860 C844 1.368 . S
C860 C856 1.368 . S
C860 C859 1.523 . S
H861 C836 0.950 . S
H862 C838 0.950 . S
H863 C839 0.949 . S
H864 C841 0.950 . S
H865 C843 0.950 . S
C866 C867 1.349 . S
C866 C868 1.327 . S
C866 H891 0.950 . S
C867 C866 1.349 . S
C867 C883 1.349 . S
C868 C866 1.327 . S
C868 C887 1.429 . S
C868 H892 0.950 . S
C869 C886 1.574 . S
C869 C888 1.368 . S
C869 H893 0.949 . S
H870 C874 0.949 . S
C871 C872 1.349 . S
C871 C873 1.327 . S
C871 H894 0.950 . S
C872 C871 1.349 . S
C872 C884 1.349 . S
C873 C871 1.327 . S
C873 C889 1.429 . S
C873 H895 0.950 . S
C874 H870 0.949 . S
C874 C882 1.574 . S
C874 C890 1.368 . S
H875 C883 0.950 . S
H876 C881 0.950 . S
H877 C882 0.949 . S
H878 C884 0.950 . S
H879 C885 0.950 . S
H880 C886 0.949 . S
C881 H876 0.950 . S
C881 C883 1.327 . S
C881 C887 1.429 . S
C882 C874 1.574 . S
C882 H877 0.949 . S
C882 C888 1.368 . S
C883 C867 1.349 . S
C883 H875 0.950 . S
C883 C881 1.327 . S
C884 C872 1.349 . S
C884 H878 0.950 . S
C884 C885 1.327 . S
C885 H879 0.950 . S
C885 C884 1.327 . S
C885 C889 1.429 . S
C886 C869 1.574 . S
C886 H880 0.949 . S
C886 C890 1.368 . S
C887 C868 1.429 . S
C887 C881 1.429 . S
C887 C888 1.523 . S
C888 C869 1.368 . S
C888 C882 1.368 . S
C888 C887 1.523 . S
C889 C873 1.429 . S
C889 C885 1.429 . S
C889 C890 1.523 1_655 S
C890 C874 1.368 . S
C890 C886 1.368 . S
C890 C889 1.523 1_455 S
H891 C866 0.950 . S
H892 C868 0.950 . S
H893 C869 0.949 . S
H894 C871 0.950 . S
H895 C873 0.950 . S
C896 C897 1.349 . S
C896 C898 1.327 . S
C896 H921 0.950 . S
C897 C896 1.349 . S
C897 C913 1.349 . S
C898 C896 1.327 . S
C898 C917 1.429 . S
C898 H922 0.950 . S
C899 C916 1.574 . S
C899 C918 1.368 . S
C899 H923 0.949 . S
H900 C904 0.949 . S
C901 C902 1.349 . S
C901 C903 1.327 . S
C901 H924 0.950 . S
C902 C901 1.349 . S
C902 C914 1.349 . S
C903 C901 1.327 . S
C903 C919 1.429 . S
C903 H925 0.950 . S
C904 H900 0.949 . S
C904 C912 1.574 . S
C904 C920 1.368 . S
H905 C913 0.950 . S
H906 C911 0.950 . S
H907 C912 0.949 . S
H908 C914 0.950 . S
H909 C915 0.950 . S
H910 C916 0.949 . S
C911 H906 0.950 . S
C911 C913 1.327 . S
C911 C917 1.429 . S
C912 C904 1.574 . S
C912 H907 0.949 . S
C912 C918 1.368 . S
C913 C897 1.349 . S
C913 H905 0.950 . S
C913 C911 1.327 . S
C914 C902 1.349 . S
C914 H908 0.950 . S
C914 C915 1.327 . S
C915 H909 0.950 . S
C915 C914 1.327 . S
C915 C919 1.429 . S
C916 C899 1.574 . S
C916 H910 0.949 . S
C916 C920 1.368 . S
C917 C898 1.429 . S
C917 C911 1.429 . S
C917 C918 1.523 . S
C918 C899 1.368 . S
C918 C912 1.368 . S
C918 C917 1.523 . S
C919 C903 1.429 . S
C919 C915 1.429 . S
C919 C920 1.523 . S
C920 C904 1.368 . S
C920 C916 1.368 . S
C920 C919 1.523 . S
H921 C896 0.950 . S
H922 C898 0.950 . S
H923 C899 0.949 . S
H924 C901 0.950 . S
H925 C903 0.950 . S
C926 C927 1.349 . S
C926 C928 1.327 . S
C926 H951 0.950 . S
C927 C926 1.349 . S
C927 C943 1.349 . S
C928 C926 1.327 . S
C928 C947 1.429 . S
C928 H952 0.950 . S
C929 C946 1.574 . S
C929 C948 1.368 . S
C929 H953 0.949 . S
H930 C934 0.949 . S
C931 C932 1.349 . S
C931 C933 1.327 . S
C931 H954 0.950 . S
C932 C931 1.349 . S
C932 C944 1.349 . S
C933 C931 1.327 . S
C933 C949 1.429 . S
C933 H955 0.950 . S
C934 H930 0.949 . S
C934 C942 1.574 . S
C934 C950 1.368 . S
H935 C943 0.950 . S
H936 C941 0.950 . S
H937 C942 0.949 . S
H938 C944 0.950 . S
H939 C945 0.950 . S
H940 C946 0.949 . S
C941 H936 0.950 . S
C941 C943 1.327 . S
C941 C947 1.429 . S
C942 C934 1.574 . S
C942 H937 0.949 . S
C942 C948 1.368 . S
C943 C927 1.349 . S
C943 H935 0.950 . S
C943 C941 1.327 . S
C944 C932 1.349 . S
C944 H938 0.950 . S
C944 C945 1.327 . S
C945 H939 0.950 . S
C945 C944 1.327 . S
C945 C949 1.429 . S
C946 C929 1.574 . S
C946 H940 0.949 . S
C946 C950 1.368 . S
C947 C928 1.429 . S
C947 C941 1.429 . S
C947 C948 1.523 . S
C948 C929 1.368 . S
C948 C942 1.368 . S
C948 C947 1.523 . S
C949 C933 1.429 . S
C949 C945 1.429 . S
C949 C950 1.523 . S
C950 C934 1.368 . S
C950 C946 1.368 . S
C950 C949 1.523 . S
H951 C926 0.950 . S
H952 C928 0.950 . S
H953 C929 0.949 . S
H954 C931 0.950 . S
H955 C933 0.950 . S
C956 C957 1.349 . S
C956 C958 1.327 . S
C956 H981 0.950 . S
C957 C956 1.349 . S
C957 C973 1.349 . S
C958 C956 1.327 . S
C958 C977 1.429 . S
C958 H982 0.950 . S
C959 C976 1.574 . S
C959 C978 1.368 . S
C959 H983 0.949 . S
H960 C964 0.949 . S
C961 C962 1.349 . S
C961 C963 1.327 . S
C961 H984 0.950 . S
C962 C961 1.349 . S
C962 C974 1.349 . S
C963 C961 1.327 . S
C963 C979 1.429 . S
C963 H985 0.950 . S
C964 H960 0.949 . S
C964 C972 1.574 . S
C964 C980 1.368 . S
H965 C973 0.950 . S
H966 C971 0.950 . S
H967 C972 0.949 . S
H968 C974 0.950 . S
H969 C975 0.950 . S
H970 C976 0.949 . S
C971 H966 0.950 . S
C971 C973 1.327 . S
C971 C977 1.429 . S
C972 C964 1.574 . S
C972 H967 0.949 . S
C972 C978 1.368 . S
C973 C957 1.349 . S
C973 H965 0.950 . S
C973 C971 1.327 . S
C974 C962 1.349 . S
C974 H968 0.950 . S
C974 C975 1.327 . S
C975 H969 0.950 . S
C975 C974 1.327 . S
C975 C979 1.429 . S
C976 C959 1.574 . S
C976 H970 0.949 . S
C976 C980 1.368 . S
C977 C958 1.429 . S
C977 C971 1.429 . S
C977 C978 1.523 . S
C978 C959 1.368 . S
C978 C972 1.368 . S
C978 C977 1.523 . S
C979 C963 1.429 . S
C979 C975 1.429 . S
C979 C980 1.523 . S
C980 C964 1.368 . S
C980 C976 1.368 . S
C980 C979 1.523 . S
H981 C956 0.950 . S
H982 C958 0.950 . S
H983 C959 0.949 . S
H984 C961 0.950 . S
H985 C963 0.950 . S
C986 C987 1.349 . S
C986 C988 1.327 . S
C986 H1011 0.950 . S
C987 C986 1.349 . S
C987 C1003 1.349 . S
C988 C986 1.327 . S
C988 C1007 1.429 . S
C988 H1012 0.950 . S
C989 C1006 1.574 . S
C989 C1008 1.368 . S
C989 H1013 0.949 . S
H990 C994 0.949 . S
C991 C992 1.349 . S
C991 C993 1.327 . S
C991 H1014 0.950 . S
C992 C991 1.349 . S
C992 C1004 1.349 . S
C993 C991 1.327 . S
C993 C1009 1.429 . S
C993 H1015 0.950 . S
C994 H990 0.949 . S
C994 C1002 1.574 . S
C994 C1010 1.368 . S
H995 C1003 0.950 . S
H996 C1001 0.950 . S
H997 C1002 0.949 . S
H998 C1004 0.950 . S
H999 C1005 0.950 . S
H1000 C1006 0.949 . S
C1001 H996 0.950 . S
C1001 C1003 1.327 . S
C1001 C1007 1.429 . S
C1002 C994 1.574 . S
C1002 H997 0.949 . S
C1002 C1008 1.368 . S
C1003 C987 1.349 . S
C1003 H995 0.950 . S
C1003 C1001 1.327 . S
C1004 C992 1.349 . S
C1004 H998 0.950 . S
C1004 C1005 1.327 . S
C1005 H999 0.950 . S
C1005 C1004 1.327 . S
C1005 C1009 1.429 . S
C1006 C989 1.574 . S
C1006 H1000 0.949 . S
C1006 C1010 1.368 . S
C1007 C988 1.429 . S
C1007 C1001 1.429 . S
C1007 C1008 1.523 . S
C1008 C989 1.368 . S
C1008 C1002 1.368 . S
C1008 C1007 1.523 . S
C1009 C993 1.429 . S
C1009 C1005 1.429 . S
C1009 C1010 1.523 1_655 S
C1010 C994 1.368 . S
C1010 C1006 1.368 . S
C1010 C1009 1.523 1_455 S
H1011 C986 0.950 . S
H1012 C988 0.950 . S
H1013 C989 0.949 . S
H1014 C991 0.950 . S
H1015 C993 0.950 . S
C1016 C1017 1.349 . S
C1016 C1018 1.327 . S
C1016 H1041 0.950 . S
C1017 C1016 1.349 . S
C1017 C1033 1.349 . S
C1018 C1016 1.327 . S
C1018 C1037 1.429 . S
C1018 H1042 0.950 . S
C1019 C1036 1.574 . S
C1019 C1038 1.368 . S
C1019 H1043 0.949 . S
H1020 C1024 0.949 . S
C1021 C1022 1.349 . S
C1021 C1023 1.327 . S
C1021 H1044 0.950 . S
C1022 C1021 1.349 . S
C1022 C1034 1.349 . S
C1023 C1021 1.327 . S
C1023 C1039 1.429 . S
C1023 H1045 0.950 . S
C1024 H1020 0.949 . S
C1024 C1032 1.574 . S
C1024 C1040 1.368 . S
H1025 C1033 0.950 . S
H1026 C1031 0.950 . S
H1027 C1032 0.949 . S
H1028 C1034 0.950 . S
H1029 C1035 0.950 . S
H1030 C1036 0.949 . S
C1031 H1026 0.950 . S
C1031 C1033 1.327 . S
C1031 C1037 1.429 . S
C1032 C1024 1.574 . S
C1032 H1027 0.949 . S
C1032 C1038 1.368 . S
C1033 C1017 1.349 . S
C1033 H1025 0.950 . S
C1033 C1031 1.327 . S
C1034 C1022 1.349 . S
C1034 H1028 0.950 . S
C1034 C1035 1.327 . S
C1035 H1029 0.950 . S
C1035 C1034 1.327 . S
C1035 C1039 1.429 . S
C1036 C1019 1.574 . S
C1036 H1030 0.949 . S
C1036 C1040 1.368 . S
C1037 C1018 1.429 . S
C1037 C1031 1.429 . S
C1037 C1038 1.523 . S
C1038 C1019 1.368 . S
C1038 C1032 1.368 . S
C1038 C1037 1.523 . S
C1039 C1023 1.429 . S
C1039 C1035 1.429 . S
C1039 C1040 1.523 . S
C1040 C1024 1.368 . S
C1040 C1036 1.368 . S
C1040 C1039 1.523 . S
H1041 C1016 0.950 . S
H1042 C1018 0.950 . S
H1043 C1019 0.949 . S
H1044 C1021 0.950 . S
H1045 C1023 0.950 . S
C1046 C1047 1.349 . S
C1046 C1048 1.327 . S
C1046 H1071 0.950 . S
C1047 C1046 1.349 . S
C1047 C1063 1.349 . S
C1048 C1046 1.327 . S
C1048 C1067 1.429 . S
C1048 H1072 0.950 . S
C1049 C1066 1.574 . S
C1049 C1068 1.368 . S
C1049 H1073 0.949 . S
H1050 C1054 0.949 . S
C1051 C1052 1.349 . S
C1051 C1053 1.327 . S
C1051 H1074 0.950 . S
C1052 C1051 1.349 . S
C1052 C1064 1.349 . S
C1053 C1051 1.327 . S
C1053 C1069 1.429 . S
C1053 H1075 0.950 . S
C1054 H1050 0.949 . S
C1054 C1062 1.574 . S
C1054 C1070 1.368 . S
H1055 C1063 0.950 . S
H1056 C1061 0.950 . S
H1057 C1062 0.949 . S
H1058 C1064 0.950 . S
H1059 C1065 0.950 1_455 S
H1060 C1066 0.949 . S
C1061 H1056 0.950 . S
C1061 C1063 1.327 . S
C1061 C1067 1.429 . S
C1062 C1054 1.574 . S
C1062 H1057 0.949 . S
C1062 C1068 1.368 . S
C1063 C1047 1.349 . S
C1063 H1055 0.950 . S
C1063 C1061 1.327 . S
C1064 C1052 1.349 . S
C1064 H1058 0.950 . S
C1064 C1065 1.327 . S
C1065 H1059 0.950 1_655 S
C1065 C1064 1.327 . S
C1065 C1069 1.429 . S
C1066 C1049 1.574 . S
C1066 H1060 0.949 . S
C1066 C1070 1.368 . S
C1067 C1048 1.429 . S
C1067 C1061 1.429 . S
C1067 C1068 1.523 . S
C1068 C1049 1.368 . S
C1068 C1062 1.368 . S
C1068 C1067 1.523 . S
C1069 C1053 1.429 . S
C1069 C1065 1.429 . S
C1069 C1070 1.523 1_655 S
C1070 C1054 1.368 . S
C1070 C1066 1.368 . S
C1070 C1069 1.523 1_455 S
H1071 C1046 0.950 . S
H1072 C1048 0.950 . S
H1073 C1049 0.949 . S
H1074 C1051 0.950 . S
H1075 C1053 0.950 . S
C1076 C1077 1.349 . S
C1076 C1078 1.327 . S
C1076 H1101 0.950 . S
C1077 C1076 1.349 . S
C1077 C1093 1.349 . S
C1078 C1076 1.327 . S
C1078 C1097 1.429 . S
C1078 H1102 0.950 . S
C1079 C1096 1.574 . S
C1079 C1098 1.368 . S
C1079 H1103 0.949 . S
H1080 C1084 0.949 . S
C1081 C1082 1.349 . S
C1081 C1083 1.327 . S
C1081 H1104 0.950 . S
C1082 C1081 1.349 . S
C1082 C1094 1.349 . S
C1083 C1081 1.327 . S
C1083 C1099 1.429 . S
C1083 H1105 0.950 . S
C1084 H1080 0.949 . S
C1084 C1092 1.574 . S
C1084 C1100 1.368 . S
H1085 C1093 0.950 . S
H1086 C1091 0.950 . S
H1087 C1092 0.949 . S
H1088 C1094 0.950 . S
H1089 C1095 0.950 . S
H1090 C1096 0.949 . S
C1091 H1086 0.950 . S
C1091 C1093 1.327 . S
C1091 C1097 1.429 . S
C1092 C1084 1.574 . S
C1092 H1087 0.949 . S
C1092 C1098 1.368 . S
C1093 C1077 1.349 . S
C1093 H1085 0.950 . S
C1093 C1091 1.327 . S
C1094 C1082 1.349 . S
C1094 H1088 0.950 . S
C1094 C1095 1.327 . S
C1095 H1089 0.950 . S
C1095 C1094 1.327 . S
C1095 C1099 1.429 . S
C1096 C1079 1.574 . S
C1096 H1090 0.949 . S
C1096 C1100 1.368 . S
C1097 C1078 1.429 . S
C1097 C1091 1.429 . S
C1097 C1098 1.523 . S
C1098 C1079 1.368 . S
C1098 C1092 1.368 . S
C1098 C1097 1.523 . S
C1099 C1083 1.429 . S
C1099 C1095 1.429 . S
C1099 C1100 1.523 . S
C1100 C1084 1.368 . S
C1100 C1096 1.368 . S
C1100 C1099 1.523 . S
H1101 C1076 0.950 . S
H1102 C1078 0.950 . S
H1103 C1079 0.949 . S
H1104 C1081 0.950 . S
H1105 C1083 0.950 . S
C1106 C1107 1.349 . S
C1106 C1108 1.327 . S
C1106 H1131 0.950 . S
C1107 C1106 1.349 . S
C1107 C1123 1.349 . S
C1108 C1106 1.327 . S
C1108 C1127 1.429 . S
C1108 H1132 0.950 . S
C1109 C1126 1.574 . S
C1109 C1128 1.368 . S
C1109 H1133 0.949 . S
H1110 C1114 0.949 . S
C1111 C1112 1.349 . S
C1111 C1113 1.327 . S
C1111 H1134 0.950 . S
C1112 C1111 1.349 . S
C1112 C1124 1.349 . S
C1113 C1111 1.327 . S
C1113 C1129 1.429 . S
C1113 H1135 0.950 . S
C1114 H1110 0.949 . S
C1114 C1122 1.574 . S
C1114 C1130 1.368 . S
H1115 C1123 0.950 . S
H1116 C1121 0.950 . S
H1117 C1122 0.949 . S
H1118 C1124 0.950 . S
H1119 C1125 0.950 . S
H1120 C1126 0.949 . S
C1121 H1116 0.950 . S
C1121 C1123 1.327 . S
C1121 C1127 1.429 . S
C1122 C1114 1.574 . S
C1122 H1117 0.949 . S
C1122 C1128 1.368 . S
C1123 C1107 1.349 . S
C1123 H1115 0.950 . S
C1123 C1121 1.327 . S
C1124 C1112 1.349 . S
C1124 H1118 0.950 . S
C1124 C1125 1.327 . S
C1125 H1119 0.950 . S
C1125 C1124 1.327 . S
C1125 C1129 1.429 . S
C1126 C1109 1.574 . S
C1126 H1120 0.949 . S
C1126 C1130 1.368 . S
C1127 C1108 1.429 . S
C1127 C1121 1.429 . S
C1127 C1128 1.523 . S
C1128 C1109 1.368 . S
C1128 C1122 1.368 . S
C1128 C1127 1.523 . S
C1129 C1113 1.429 . S
C1129 C1125 1.429 . S
C1129 C1130 1.523 . S
C1130 C1114 1.368 . S
C1130 C1126 1.368 . S
C1130 C1129 1.523 . S
H1131 C1106 0.950 . S
H1132 C1108 0.950 . S
H1133 C1109 0.949 . S
H1134 C1111 0.950 . S
H1135 C1113 0.950 . S
C1136 C1137 1.349 . S
C1136 C1138 1.327 . S
C1136 H1161 0.950 . S
C1137 C1136 1.349 . S
C1137 C1153 1.349 . S
C1138 C1136 1.327 . S
C1138 C1157 1.429 . S
C1138 H1162 0.950 . S
C1139 C1156 1.574 . S
C1139 C1158 1.368 . S
C1139 H1163 0.949 . S
H1140 C1144 0.949 . S
C1141 C1142 1.349 . S
C1141 C1143 1.327 . S
C1141 H1164 0.950 . S
C1142 C1141 1.349 . S
C1142 C1154 1.349 . S
C1143 C1141 1.327 . S
C1143 C1159 1.429 . S
C1143 H1165 0.950 . S
C1144 H1140 0.949 . S
C1144 C1152 1.574 . S
C1144 C1160 1.368 . S
H1145 C1153 0.950 . S
H1146 C1151 0.950 . S
H1147 C1152 0.949 . S
H1148 C1154 0.950 . S
H1149 C1155 0.950 . S
H1150 C1156 0.949 . S
C1151 H1146 0.950 . S
C1151 C1153 1.327 . S
C1151 C1157 1.429 . S
C1152 C1144 1.574 . S
C1152 H1147 0.949 . S
C1152 C1158 1.368 . S
C1153 C1137 1.349 . S
C1153 H1145 0.950 . S
C1153 C1151 1.327 . S
C1154 C1142 1.349 . S
C1154 H1148 0.950 . S
C1154 C1155 1.327 . S
C1155 H1149 0.950 . S
C1155 C1154 1.327 . S
C1155 C1159 1.429 . S
C1156 C1139 1.574 . S
C1156 H1150 0.949 . S
C1156 C1160 1.368 . S
C1157 C1138 1.429 . S
C1157 C1151 1.429 . S
C1157 C1158 1.523 . S
C1158 C1139 1.368 . S
C1158 C1152 1.368 . S
C1158 C1157 1.523 . S
C1159 C1143 1.429 . S
C1159 C1155 1.429 . S
C1159 C1160 1.523 . S
C1160 C1144 1.368 . S
C1160 C1156 1.368 . S
C1160 C1159 1.523 . S
H1161 C1136 0.950 . S
H1162 C1138 0.950 . S
H1163 C1139 0.949 . S
H1164 C1141 0.950 . S
H1165 C1143 0.950 . S
C1166 C1167 1.349 . S
C1166 C1168 1.327 . S
C1166 H1191 0.950 . S
C1167 C1166 1.349 . S
C1167 C1183 1.349 . S
C1168 C1166 1.327 . S
C1168 C1187 1.429 . S
C1168 H1192 0.950 . S
C1169 C1186 1.574 . S
C1169 C1188 1.368 . S
C1169 H1193 0.949 . S
H1170 C1174 0.949 . S
C1171 C1172 1.349 . S
C1171 C1173 1.327 . S
C1171 H1194 0.950 . S
C1172 C1171 1.349 . S
C1172 C1184 1.349 . S
C1173 C1171 1.327 . S
C1173 C1189 1.429 . S
C1173 H1195 0.950 . S
C1174 H1170 0.949 . S
C1174 C1182 1.574 . S
C1174 C1190 1.368 . S
H1175 C1183 0.950 . S
H1176 C1181 0.950 . S
H1177 C1182 0.949 . S
H1178 C1184 0.950 . S
H1179 C1185 0.950 . S
H1180 C1186 0.949 . S
C1181 H1176 0.950 . S
C1181 C1183 1.327 . S
C1181 C1187 1.429 . S
C1182 C1174 1.574 . S
C1182 H1177 0.949 . S
C1182 C1188 1.368 . S
C1183 C1167 1.349 . S
C1183 H1175 0.950 . S
C1183 C1181 1.327 . S
C1184 C1172 1.349 . S
C1184 H1178 0.950 . S
C1184 C1185 1.327 . S
C1185 H1179 0.950 . S
C1185 C1184 1.327 . S
C1185 C1189 1.429 . S
C1186 C1169 1.574 . S
C1186 H1180 0.949 . S
C1186 C1190 1.368 . S
C1187 C1168 1.429 . S
C1187 C1181 1.429 . S
C1187 C1188 1.523 . S
C1188 C1169 1.368 . S
C1188 C1182 1.368 . S
C1188 C1187 1.523 . S
C1189 C1173 1.429 . S
C1189 C1185 1.429 . S
C1189 C1190 1.523 . S
C1190 C1174 1.368 . S
C1190 C1186 1.368 . S
C1190 C1189 1.523 . S
H1191 C1166 0.950 . S
H1192 C1168 0.950 . S
H1193 C1169 0.949 . S
H1194 C1171 0.950 . S
H1195 C1173 0.950 . S
C1196 C1197 1.349 . S
C1196 C1198 1.327 . S
C1196 H1221 0.950 . S
C1197 C1196 1.349 . S
C1197 C1213 1.349 . S
C1198 C1196 1.327 . S
C1198 C1217 1.429 . S
C1198 H1222 0.950 . S
C1199 C1216 1.574 . S
C1199 C1218 1.368 . S
C1199 H1223 0.949 . S
H1200 C1204 0.949 . S
C1201 C1202 1.349 . S
C1201 C1203 1.327 . S
C1201 H1224 0.950 . S
C1202 C1201 1.349 . S
C1202 C1214 1.349 . S
C1203 C1201 1.327 . S
C1203 C1219 1.429 . S
C1203 H1225 0.950 . S
C1204 H1200 0.949 . S
C1204 C1212 1.574 . S
C1204 C1220 1.368 . S
H1205 C1213 0.950 . S
H1206 C1211 0.950 . S
H1207 C1212 0.949 . S
H1208 C1214 0.950 . S
H1209 C1215 0.950 . S
H1210 C1216 0.949 . S
C1211 H1206 0.950 . S
C1211 C1213 1.327 . S
C1211 C1217 1.429 . S
C1212 C1204 1.574 . S
C1212 H1207 0.949 . S
C1212 C1218 1.368 . S
C1213 C1197 1.349 . S
C1213 H1205 0.950 . S
C1213 C1211 1.327 . S
C1214 C1202 1.349 . S
C1214 H1208 0.950 . S
C1214 C1215 1.327 . S
C1215 H1209 0.950 . S
C1215 C1214 1.327 . S
C1215 C1219 1.429 . S
C1216 C1199 1.574 . S
C1216 H1210 0.949 . S
C1216 C1220 1.368 . S
C1217 C1198 1.429 . S
C1217 C1211 1.429 . S
C1217 C1218 1.523 . S
C1218 C1199 1.368 . S
C1218 C1212 1.368 . S
C1218 C1217 1.523 . S
C1219 C1203 1.429 . S
C1219 C1215 1.429 . S
C1219 C1220 1.523 . S
C1220 C1204 1.368 . S
C1220 C1216 1.368 . S
C1220 C1219 1.523 . S
H1221 C1196 0.950 . S
H1222 C1198 0.950 . S
H1223 C1199 0.949 . S
H1224 C1201 0.950 . S
H1225 C1203 0.950 . S
C1226 C1227 1.349 . S
C1226 C1228 1.327 . S
C1226 H1251 0.950 . S
C1227 C1226 1.349 . S
C1227 C1243 1.349 . S
C1228 C1226 1.327 . S
C1228 C1247 1.429 . S
C1228 H1252 0.950 . S
C1229 C1246 1.574 . S
C1229 C1248 1.368 . S
C1229 H1253 0.949 . S
H1230 C1234 0.949 . S
C1231 C1232 1.349 . S
C1231 C1233 1.327 . S
C1231 H1254 0.950 . S
C1232 C1231 1.349 . S
C1232 C1244 1.349 . S
C1233 C1231 1.327 . S
C1233 C1249 1.429 . S
C1233 H1255 0.950 . S
C1234 H1230 0.949 . S
C1234 C1242 1.574 . S
C1234 C1250 1.368 . S
H1235 C1243 0.950 . S
H1236 C1241 0.950 1_655 S
H1237 C1242 0.949 . S
H1238 C1244 0.950 . S
H1239 C1245 0.950 . S
H1240 C1246 0.949 . S
C1241 H1236 0.950 1_455 S
C1241 C1243 1.327 . S
C1241 C1247 1.429 . S
C1242 C1234 1.574 . S
C1242 H1237 0.949 . S
C1242 C1248 1.368 . S
C1243 C1227 1.349 . S
C1243 H1235 0.950 . S
C1243 C1241 1.327 . S
C1244 C1232 1.349 . S
C1244 H1238 0.950 . S
C1244 C1245 1.327 . S
C1245 H1239 0.950 . S
C1245 C1244 1.327 . S
C1245 C1249 1.429 . S
C1246 C1229 1.574 . S
C1246 H1240 0.949 . S
C1246 C1250 1.368 . S
C1247 C1228 1.429 . S
C1247 C1241 1.429 . S
C1247 C1248 1.523 1_455 S
C1248 C1229 1.368 . S
C1248 C1242 1.368 . S
C1248 C1247 1.523 1_655 S
C1249 C1233 1.429 . S
C1249 C1245 1.429 . S
C1249 C1250 1.523 . S
C1250 C1234 1.368 . S
C1250 C1246 1.368 . S
C1250 C1249 1.523 . S
H1251 C1226 0.950 . S
H1252 C1228 0.950 . S
H1253 C1229 0.949 . S
H1254 C1231 0.950 . S
H1255 C1233 0.950 . S
C1256 C1257 1.349 . S
C1256 C1258 1.327 . S
C1256 H1281 0.950 . S
C1257 C1256 1.349 . S
C1257 C1273 1.349 . S
C1258 C1256 1.327 . S
C1258 C1277 1.429 . S
C1258 H1282 0.950 . S
C1259 C1276 1.574 . S
C1259 C1278 1.368 . S
C1259 H1283 0.949 . S
H1260 C1264 0.949 . S
C1261 C1262 1.349 . S
C1261 C1263 1.327 . S
C1261 H1284 0.950 . S
C1262 C1261 1.349 . S
C1262 C1274 1.349 . S
C1263 C1261 1.327 . S
C1263 C1279 1.429 . S
C1263 H1285 0.950 . S
C1264 H1260 0.949 . S
C1264 C1272 1.574 . S
C1264 C1280 1.368 . S
H1265 C1273 0.950 . S
H1266 C1271 0.950 . S
H1267 C1272 0.949 . S
H1268 C1274 0.950 . S
H1269 C1275 0.950 . S
H1270 C1276 0.949 . S
C1271 H1266 0.950 . S
C1271 C1273 1.327 . S
C1271 C1277 1.429 . S
C1272 C1264 1.574 . S
C1272 H1267 0.949 . S
C1272 C1278 1.368 . S
C1273 C1257 1.349 . S
C1273 H1265 0.950 . S
C1273 C1271 1.327 . S
C1274 C1262 1.349 . S
C1274 H1268 0.950 . S
C1274 C1275 1.327 . S
C1275 H1269 0.950 . S
C1275 C1274 1.327 . S
C1275 C1279 1.429 . S
C1276 C1259 1.574 . S
C1276 H1270 0.949 . S
C1276 C1280 1.368 . S
C1277 C1258 1.429 . S
C1277 C1271 1.429 . S
C1277 C1278 1.523 . S
C1278 C1259 1.368 . S
C1278 C1272 1.368 . S
C1278 C1277 1.523 . S
C1279 C1263 1.429 . S
C1279 C1275 1.429 . S
C1279 C1280 1.523 . S
C1280 C1264 1.368 . S
C1280 C1276 1.368 . S
C1280 C1279 1.523 . S
H1281 C1256 0.950 . S
H1282 C1258 0.950 . S
H1283 C1259 0.949 . S
H1284 C1261 0.950 . S
H1285 C1263 0.950 . S
C1286 C1287 1.349 . S
C1286 C1288 1.327 . S
C1286 H1311 0.950 . S
C1287 C1286 1.349 . S
C1287 C1303 1.349 . S
C1288 C1286 1.327 . S
C1288 C1307 1.429 . S
C1288 H1312 0.950 1_455 S
C1289 C1306 1.574 . S
C1289 C1308 1.368 . S
C1289 H1313 0.949 . S
H1290 C1294 0.949 . S
C1291 C1292 1.349 . S
C1291 C1293 1.327 . S
C1291 H1314 0.950 . S
C1292 C1291 1.349 . S
C1292 C1304 1.349 . S
C1293 C1291 1.327 . S
C1293 C1309 1.429 . S
C1293 H1315 0.950 . S
C1294 H1290 0.949 . S
C1294 C1302 1.574 . S
C1294 C1310 1.368 . S
H1295 C1303 0.950 . S
H1296 C1301 0.950 . S
H1297 C1302 0.949 . S
H1298 C1304 0.950 . S
H1299 C1305 0.950 . S
H1300 C1306 0.949 . S
C1301 H1296 0.950 . S
C1301 C1303 1.327 . S
C1301 C1307 1.429 . S
C1302 C1294 1.574 . S
C1302 H1297 0.949 . S
C1302 C1308 1.368 . S
C1303 C1287 1.349 . S
C1303 H1295 0.950 . S
C1303 C1301 1.327 . S
C1304 C1292 1.349 . S
C1304 H1298 0.950 . S
C1304 C1305 1.327 . S
C1305 H1299 0.950 . S
C1305 C1304 1.327 . S
C1305 C1309 1.429 . S
C1306 C1289 1.574 . S
C1306 H1300 0.949 . S
C1306 C1310 1.368 . S
C1307 C1288 1.429 . S
C1307 C1301 1.429 . S
C1307 C1308 1.523 1_455 S
C1308 C1289 1.368 . S
C1308 C1302 1.368 . S
C1308 C1307 1.523 1_655 S
C1309 C1293 1.429 . S
C1309 C1305 1.429 . S
C1309 C1310 1.523 . S
C1310 C1294 1.368 . S
C1310 C1306 1.368 . S
C1310 C1309 1.523 . S
H1311 C1286 0.950 . S
H1312 C1288 0.950 1_655 S
H1313 C1289 0.949 . S
H1314 C1291 0.950 . S
H1315 C1293 0.950 . S
C1316 C1317 1.349 . S
C1316 C1318 1.327 . S
C1316 H1341 0.950 . S
C1317 C1316 1.349 . S
C1317 C1333 1.349 . S
C1318 C1316 1.327 . S
C1318 C1337 1.429 . S
C1318 H1342 0.950 . S
C1319 C1336 1.574 . S
C1319 C1338 1.368 . S
C1319 H1343 0.949 . S
H1320 C1324 0.949 . S
C1321 C1322 1.349 . S
C1321 C1323 1.327 . S
C1321 H1344 0.950 . S
C1322 C1321 1.349 . S
C1322 C1334 1.349 . S
C1323 C1321 1.327 . S
C1323 C1339 1.429 . S
C1323 H1345 0.950 . S
C1324 H1320 0.949 . S
C1324 C1332 1.574 . S
C1324 C1340 1.368 . S
H1325 C1333 0.950 . S
H1326 C1331 0.950 . S
H1327 C1332 0.949 . S
H1328 C1334 0.950 . S
H1329 C1335 0.950 . S
H1330 C1336 0.949 . S
C1331 H1326 0.950 . S
C1331 C1333 1.327 . S
C1331 C1337 1.429 . S
C1332 C1324 1.574 . S
C1332 H1327 0.949 . S
C1332 C1338 1.368 . S
C1333 C1317 1.349 . S
C1333 H1325 0.950 . S
C1333 C1331 1.327 . S
C1334 C1322 1.349 . S
C1334 H1328 0.950 . S
C1334 C1335 1.327 . S
C1335 H1329 0.950 . S
C1335 C1334 1.327 . S
C1335 C1339 1.429 . S
C1336 C1319 1.574 . S
C1336 H1330 0.949 . S
C1336 C1340 1.368 . S
C1337 C1318 1.429 . S
C1337 C1331 1.429 . S
C1337 C1338 1.523 . S
C1338 C1319 1.368 . S
C1338 C1332 1.368 . S
C1338 C1337 1.523 . S
C1339 C1323 1.429 . S
C1339 C1335 1.429 . S
C1339 C1340 1.523 . S
C1340 C1324 1.368 . S
C1340 C1336 1.368 . S
C1340 C1339 1.523 . S
H1341 C1316 0.950 . S
H1342 C1318 0.950 . S
H1343 C1319 0.949 . S
H1344 C1321 0.950 . S
H1345 C1323 0.950 . S
C1346 C1347 1.349 . S
C1346 C1348 1.327 . S
C1346 H1371 0.950 . S
C1347 C1346 1.349 . S
C1347 C1363 1.349 . S
C1348 C1346 1.327 . S
C1348 C1367 1.429 . S
C1348 H1372 0.950 . S
C1349 C1366 1.574 . S
C1349 C1368 1.368 . S
C1349 H1373 0.949 . S
H1350 C1354 0.949 . S
C1351 C1352 1.349 . S
C1351 C1353 1.327 . S
C1351 H1374 0.950 . S
C1352 C1351 1.349 . S
C1352 C1364 1.349 . S
C1353 C1351 1.327 . S
C1353 C1369 1.429 . S
C1353 H1375 0.950 . S
C1354 H1350 0.949 . S
C1354 C1362 1.574 . S
C1354 C1370 1.368 . S
H1355 C1363 0.950 . S
H1356 C1361 0.950 . S
H1357 C1362 0.949 . S
H1358 C1364 0.950 . S
H1359 C1365 0.950 . S
H1360 C1366 0.949 . S
C1361 H1356 0.950 . S
C1361 C1363 1.327 . S
C1361 C1367 1.429 . S
C1362 C1354 1.574 . S
C1362 H1357 0.949 . S
C1362 C1368 1.368 . S
C1363 C1347 1.349 . S
C1363 H1355 0.950 . S
C1363 C1361 1.327 . S
C1364 C1352 1.349 . S
C1364 H1358 0.950 . S
C1364 C1365 1.327 . S
C1365 H1359 0.950 . S
C1365 C1364 1.327 . S
C1365 C1369 1.429 . S
C1366 C1349 1.574 . S
C1366 H1360 0.949 . S
C1366 C1370 1.368 . S
C1367 C1348 1.429 . S
C1367 C1361 1.429 . S
C1367 C1368 1.523 . S
C1368 C1349 1.368 . S
C1368 C1362 1.368 . S
C1368 C1367 1.523 . S
C1369 C1353 1.429 . S
C1369 C1365 1.429 . S
C1369 C1370 1.523 . S
C1370 C1354 1.368 . S
C1370 C1366 1.368 . S
C1370 C1369 1.523 . S
H1371 C1346 0.950 . S
H1372 C1348 0.950 . S
H1373 C1349 0.949 . S
H1374 C1351 0.950 . S
H1375 C1353 0.950 . S
C1376 C1377 1.349 . S
C1376 C1378 1.327 . S
C1376 H1401 0.950 . S
C1377 C1376 1.349 . S
C1377 C1393 1.349 . S
C1378 C1376 1.327 . S
C1378 C1397 1.429 . S
C1378 H1402 0.950 . S
C1379 C1396 1.574 . S
C1379 C1398 1.368 . S
C1379 H1403 0.949 . S
H1380 C1384 0.949 . S
C1381 C1382 1.349 . S
C1381 C1383 1.327 . S
C1381 H1404 0.950 . S
C1382 C1381 1.349 . S
C1382 C1394 1.349 . S
C1383 C1381 1.327 . S
C1383 C1399 1.429 . S
C1383 H1405 0.950 . S
C1384 H1380 0.949 . S
C1384 C1392 1.574 . S
C1384 C1400 1.368 . S
H1385 C1393 0.950 . S
H1386 C1391 0.950 . S
H1387 C1392 0.949 . S
H1388 C1394 0.950 . S
H1389 C1395 0.950 . S
H1390 C1396 0.949 . S
C1391 H1386 0.950 . S
C1391 C1393 1.327 . S
C1391 C1397 1.429 . S
C1392 C1384 1.574 . S
C1392 H1387 0.949 . S
C1392 C1398 1.368 . S
C1393 C1377 1.349 . S
C1393 H1385 0.950 . S
C1393 C1391 1.327 . S
C1394 C1382 1.349 . S
C1394 H1388 0.950 . S
C1394 C1395 1.327 . S
C1395 H1389 0.950 . S
C1395 C1394 1.327 . S
C1395 C1399 1.429 . S
C1396 C1379 1.574 . S
C1396 H1390 0.949 . S
C1396 C1400 1.368 . S
C1397 C1378 1.429 . S
C1397 C1391 1.429 . S
C1397 C1398 1.523 . S
C1398 C1379 1.368 . S
C1398 C1392 1.368 . S
C1398 C1397 1.523 . S
C1399 C1383 1.429 . S
C1399 C1395 1.429 . S
C1399 C1400 1.523 . S
C1400 C1384 1.368 . S
C1400 C1396 1.368 . S
C1400 C1399 1.523 . S
H1401 C1376 0.950 . S
H1402 C1378 0.950 . S
H1403 C1379 0.949 . S
H1404 C1381 0.950 . S
H1405 C1383 0.950 . S
C1406 C1407 1.349 . S
C1406 C1408 1.327 . S
C1406 H1431 0.950 . S
C1407 C1406 1.349 . S
C1407 C1423 1.349 . S
C1408 C1406 1.327 . S
C1408 C1427 1.429 . S
C1408 H1432 0.950 . S
C1409 C1426 1.574 . S
C1409 C1428 1.368 1_545 S
C1409 H1433 0.949 . S
H1410 C1414 0.949 . S
C1411 C1412 1.349 . S
C1411 C1413 1.327 . S
C1411 H1434 0.950 . S
C1412 C1411 1.349 . S
C1412 C1424 1.349 . S
C1413 C1411 1.327 . S
C1413 C1429 1.429 . S
C1413 H1435 0.950 . S
C1414 H1410 0.949 . S
C1414 C1422 1.574 . S
C1414 C1430 1.368 1_565 S
H1415 C1423 0.950 1_545 S
H1416 C1421 0.924 1_545 S
H1417 C1422 0.949 . S
H1418 C1424 0.950 1_565 S
H1419 C1425 0.924 1_565 S
H1420 C1426 0.949 . S
C1421 H1416 0.924 1_565 S
C1421 C1423 1.337 . S
C1421 C1427 1.445 . S
C1422 C1414 1.574 . S
C1422 H1417 0.949 . S
C1422 C1428 1.368 1_655 S
C1423 C1407 1.349 . S
C1423 H1415 0.950 1_565 S
C1423 C1421 1.337 . S
C1424 C1412 1.349 . S
C1424 H1418 0.950 1_545 S
C1424 C1425 1.337 . S
C1425 H1419 0.924 1_545 S
C1425 C1424 1.337 . S
C1425 C1429 1.445 . S
C1426 C1409 1.574 . S
C1426 H1420 0.949 . S
C1426 C1430 1.368 1_455 S
C1427 C1408 1.429 . S
C1427 C1421 1.445 . S
C1427 C1428 1.523 . S
C1428 C1409 1.368 1_565 S
C1428 C1422 1.368 1_455 S
C1428 C1427 1.523 . S
C1429 C1413 1.429 . S
C1429 C1425 1.445 . S
C1429 C1430 1.523 . S
C1430 C1414 1.368 1_545 S
C1430 C1426 1.368 1_655 S
C1430 C1429 1.523 . S
H1431 C1406 0.950 . S
H1432 C1408 0.950 . S
H1433 C1409 0.949 . S
H1434 C1411 0.950 . S
H1435 C1413 0.950 . S
C1436 C1437 1.349 . S
C1436 C1438 1.327 . S
C1436 H1461 0.950 . S
C1437 C1436 1.349 . S
C1437 C1453 1.349 . S
C1438 C1436 1.327 . S
C1438 C1457 1.429 . S
C1438 H1462 0.950 . S
C1439 C1456 1.574 . S
C1439 C1458 1.368 . S
C1439 H1463 0.949 . S
H1440 C1444 0.949 . S
C1441 C1442 1.349 . S
C1441 C1443 1.327 . S
C1441 H1464 0.950 . S
C1442 C1441 1.349 . S
C1442 C1454 1.349 . S
C1443 C1441 1.327 . S
C1443 C1459 1.429 . S
C1443 H1465 0.950 . S
C1444 H1440 0.949 . S
C1444 C1452 1.574 . S
C1444 C1460 1.368 . S
H1445 C1453 0.950 . S
H1446 C1451 0.950 . S
H1447 C1452 0.949 . S
H1448 C1454 0.950 . S
H1449 C1455 0.950 . S
H1450 C1456 0.949 . S
C1451 H1446 0.950 . S
C1451 C1453 1.327 . S
C1451 C1457 1.429 . S
C1452 C1444 1.574 . S
C1452 H1447 0.949 . S
C1452 C1458 1.368 . S
C1453 C1437 1.349 . S
C1453 H1445 0.950 . S
C1453 C1451 1.327 . S
C1454 C1442 1.349 . S
C1454 H1448 0.950 . S
C1454 C1455 1.327 . S
C1455 H1449 0.950 . S
C1455 C1454 1.327 . S
C1455 C1459 1.429 . S
C1456 C1439 1.574 . S
C1456 H1450 0.949 . S
C1456 C1460 1.368 . S
C1457 C1438 1.429 . S
C1457 C1451 1.429 . S
C1457 C1458 1.523 . S
C1458 C1439 1.368 . S
C1458 C1452 1.368 . S
C1458 C1457 1.523 . S
C1459 C1443 1.429 . S
C1459 C1455 1.429 . S
C1459 C1460 1.523 . S
C1460 C1444 1.368 . S
C1460 C1456 1.368 . S
C1460 C1459 1.523 . S
H1461 C1436 0.950 . S
H1462 C1438 0.950 . S
H1463 C1439 0.949 . S
H1464 C1441 0.950 . S
H1465 C1443 0.950 . S
C1466 C1467 1.349 . S
C1466 C1468 1.327 . S
C1466 H1491 0.950 . S
C1467 C1466 1.349 . S
C1467 C1483 1.349 . S
C1468 C1466 1.327 . S
C1468 C1487 1.429 . S
C1468 H1492 0.950 . S
C1469 C1486 1.574 1_554 S
C1469 C1488 1.368 1_565 S
C1469 H1493 0.949 . S
H1470 C1474 0.949 . S
C1471 C1472 1.349 . S
C1471 C1473 1.327 . S
C1471 H1494 0.950 . S
C1472 C1471 1.349 . S
C1472 C1484 1.349 . S
C1473 C1471 1.327 . S
C1473 C1489 1.429 . S
C1473 H1495 0.950 . S
C1474 H1470 0.949 . S
C1474 C1482 1.574 1_556 S
C1474 C1490 1.368 1_545 S
H1475 C1483 0.950 1_565 S
H1476 C1481 0.950 . S
H1477 C1482 0.949 . S
H1478 C1484 0.950 1_545 S
H1479 C1485 0.950 . S
H1480 C1486 0.949 . S
C1481 H1476 0.950 . S
C1481 C1483 1.327 1_565 S
C1481 C1487 1.429 1_565 S
C1482 C1474 1.574 1_554 S
C1482 H1477 0.949 . S
C1482 C1488 1.368 . S
C1483 C1467 1.349 . S
C1483 H1475 0.950 1_545 S
C1483 C1481 1.327 1_545 S
C1484 C1472 1.349 . S
C1484 H1478 0.950 1_565 S
C1484 C1485 1.327 1_565 S
C1485 H1479 0.950 . S
C1485 C1484 1.327 1_545 S
C1485 C1489 1.429 1_545 S
C1486 C1469 1.574 1_556 S
C1486 H1480 0.949 . S
C1486 C1490 1.368 . S
C1487 C1468 1.429 . S
C1487 C1481 1.429 1_545 S
C1487 C1488 1.523 . S
C1488 C1469 1.368 1_545 S
C1488 C1482 1.368 . S
C1488 C1487 1.523 . S
C1489 C1473 1.429 . S
C1489 C1485 1.429 1_565 S
C1489 C1490 1.523 . S
C1490 C1474 1.368 1_565 S
C1490 C1486 1.368 . S
C1490 C1489 1.523 . S
H1491 C1466 0.950 . S
H1492 C1468 0.950 . S
H1493 C1469 0.949 . S
H1494 C1471 0.950 . S
H1495 C1473 0.950 . S
C1496 C1497 1.349 . S
C1496 C1498 1.327 . S
C1496 H1521 0.950 . S
C1497 C1496 1.349 . S
C1497 C1513 1.349 . S
C1498 C1496 1.327 . S
C1498 C1517 1.429 . S
C1498 H1522 0.950 . S
C1499 C1516 1.574 . S
C1499 C1518 1.368 . S
C1499 H1523 0.949 . S
H1500 C1504 0.949 . S
C1501 C1502 1.349 . S
C1501 C1503 1.327 . S
C1501 H1524 0.950 . S
C1502 C1501 1.349 . S
C1502 C1514 1.349 . S
C1503 C1501 1.327 . S
C1503 C1519 1.429 . S
C1503 H1525 0.950 . S
C1504 H1500 0.949 . S
C1504 C1512 1.574 . S
C1504 C1520 1.368 . S
H1505 C1513 0.950 . S
H1506 C1511 0.950 . S
H1507 C1512 0.949 . S
H1508 C1514 0.950 . S
H1509 C1515 0.950 . S
H1510 C1516 0.949 . S
C1511 H1506 0.950 . S
C1511 C1513 1.327 . S
C1511 C1517 1.429 . S
C1512 C1504 1.574 . S
C1512 H1507 0.949 . S
C1512 C1518 1.368 . S
C1513 C1497 1.349 . S
C1513 H1505 0.950 . S
C1513 C1511 1.327 . S
C1514 C1502 1.349 . S
C1514 H1508 0.950 . S
C1514 C1515 1.327 . S
C1515 H1509 0.950 . S
C1515 C1514 1.327 . S
C1515 C1519 1.429 . S
C1516 C1499 1.574 . S
C1516 H1510 0.949 . S
C1516 C1520 1.368 . S
C1517 C1498 1.429 . S
C1517 C1511 1.429 . S
C1517 C1518 1.523 . S
C1518 C1499 1.368 . S
C1518 C1512 1.368 . S
C1518 C1517 1.523 . S
C1519 C1503 1.429 . S
C1519 C1515 1.429 . S
C1519 C1520 1.523 . S
C1520 C1504 1.368 . S
C1520 C1516 1.368 . S
C1520 C1519 1.523 . S
H1521 C1496 0.950 . S
H1522 C1498 0.950 . S
H1523 C1499 0.949 . S
H1524 C1501 0.950 . S
H1525 C1503 0.950 . S
C1526 C1527 1.349 . S
C1526 C1528 1.327 1_565 S
C1526 H1551 0.950 1_565 S
C1527 C1526 1.349 . S
C1527 C1543 1.349 . S
C1528 C1526 1.327 1_545 S
C1528 C1547 1.429 1_545 S
C1528 H1552 0.950 . S
C1529 C1546 1.574 . S
C1529 C1548 1.368 . S
C1529 H1553 0.949 . S
H1530 C1534 0.949 . S
C1531 C1532 1.349 . S
C1531 C1533 1.327 1_545 S
C1531 H1554 0.950 1_545 S
C1532 C1531 1.349 . S
C1532 C1544 1.349 . S
C1533 C1531 1.327 1_565 S
C1533 C1549 1.429 1_565 S
C1533 H1555 0.950 . S
C1534 H1530 0.949 . S
C1534 C1542 1.574 . S
C1534 C1550 1.368 . S
H1535 C1543 0.950 . S
H1536 C1541 0.950 . S
H1537 C1542 0.949 . S
H1538 C1544 0.950 . S
H1539 C1545 0.950 . S
H1540 C1546 0.949 . S
C1541 H1536 0.950 . S
C1541 C1543 1.327 . S
C1541 C1547 1.429 . S
C1542 C1534 1.574 . S
C1542 H1537 0.949 . S
C1542 C1548 1.368 1_545 S
C1543 C1527 1.349 . S
C1543 H1535 0.950 . S
C1543 C1541 1.327 . S
C1544 C1532 1.349 . S
C1544 H1538 0.950 . S
C1544 C1545 1.327 . S
C1545 H1539 0.950 . S
C1545 C1544 1.327 . S
C1545 C1549 1.429 . S
C1546 C1529 1.574 . S
C1546 H1540 0.949 . S
C1546 C1550 1.368 1_565 S
C1547 C1528 1.429 1_565 S
C1547 C1541 1.429 . S
C1547 C1548 1.523 . S
C1548 C1529 1.368 . S
C1548 C1542 1.368 1_565 S
C1548 C1547 1.523 . S
C1549 C1533 1.429 1_545 S
C1549 C1545 1.429 . S
C1549 C1550 1.523 . S
C1550 C1534 1.368 . S
C1550 C1546 1.368 1_545 S
C1550 C1549 1.523 . S
H1551 C1526 0.950 1_545 S
H1552 C1528 0.950 . S
H1553 C1529 0.949 . S
H1554 C1531 0.950 1_565 S
H1555 C1533 0.950 . S
C1556 C1557 1.349 . S
C1556 C1558 1.327 . S
C1556 H1581 0.950 . S
C1557 C1556 1.349 . S
C1557 C1573 1.349 . S
C1558 C1556 1.327 . S
C1558 C1577 1.429 . S
C1558 H1582 0.950 . S
C1559 C1576 1.574 . S
C1559 C1578 1.368 . S
C1559 H1583 0.949 . S
H1560 C1564 0.949 . S
C1561 C1562 1.349 . S
C1561 C1563 1.327 . S
C1561 H1584 0.950 . S
C1562 C1561 1.349 . S
C1562 C1574 1.349 . S
C1563 C1561 1.327 . S
C1563 C1579 1.429 . S
C1563 H1585 0.950 . S
C1564 H1560 0.949 . S
C1564 C1572 1.574 . S
C1564 C1580 1.368 . S
H1565 C1573 0.950 . S
H1566 C1571 0.950 . S
H1567 C1572 0.949 . S
H1568 C1574 0.950 . S
H1569 C1575 0.950 . S
H1570 C1576 0.949 . S
C1571 H1566 0.950 . S
C1571 C1573 1.327 . S
C1571 C1577 1.429 . S
C1572 C1564 1.574 . S
C1572 H1567 0.949 . S
C1572 C1578 1.368 . S
C1573 C1557 1.349 . S
C1573 H1565 0.950 . S
C1573 C1571 1.327 . S
C1574 C1562 1.349 . S
C1574 H1568 0.950 . S
C1574 C1575 1.327 . S
C1575 H1569 0.950 . S
C1575 C1574 1.327 . S
C1575 C1579 1.429 . S
C1576 C1559 1.574 . S
C1576 H1570 0.949 . S
C1576 C1580 1.368 . S
C1577 C1558 1.429 . S
C1577 C1571 1.429 . S
C1577 C1578 1.523 . S
C1578 C1559 1.368 . S
C1578 C1572 1.368 . S
C1578 C1577 1.523 . S
C1579 C1563 1.429 . S
C1579 C1575 1.429 . S
C1579 C1580 1.523 . S
C1580 C1564 1.368 . S
C1580 C1576 1.368 . S
C1580 C1579 1.523 . S
H1581 C1556 0.950 . S
H1582 C1558 0.950 . S
H1583 C1559 0.949 . S
H1584 C1561 0.950 . S
H1585 C1563 0.950 . S
C1586 C1587 1.349 . S
C1586 C1588 1.327 1_545 S
C1586 H1611 0.950 1_545 S
C1587 C1586 1.349 . S
C1587 C1603 1.349 . S
C1588 C1586 1.327 1_565 S
C1588 C1607 1.429 1_565 S
C1588 H1612 0.950 . S
C1589 C1606 1.574 1_456 S
C1589 C1608 1.368 . S
C1589 H1613 0.949 . S
H1590 C1594 0.949 . S
C1591 C1592 1.349 . S
C1591 C1593 1.327 1_565 S
C1591 H1614 0.950 1_565 S
C1592 C1591 1.349 . S
C1592 C1604 1.349 . S
C1593 C1591 1.327 1_545 S
C1593 C1609 1.429 1_545 S
C1593 H1615 0.950 . S
C1594 H1590 0.949 . S
C1594 C1602 1.574 1_654 S
C1594 C1610 1.368 . S
H1595 C1603 0.950 . S
H1596 C1601 0.950 . S
H1597 C1602 0.949 . S
H1598 C1604 0.950 . S
H1599 C1605 0.950 . S
H1600 C1606 0.949 . S
C1601 H1596 0.950 . S
C1601 C1603 1.327 . S
C1601 C1607 1.429 . S
C1602 C1594 1.574 1_456 S
C1602 H1597 0.949 . S
C1602 C1608 1.368 1_565 S
C1603 C1587 1.349 . S
C1603 H1595 0.950 . S
C1603 C1601 1.327 . S
C1604 C1592 1.349 . S
C1604 H1598 0.950 . S
C1604 C1605 1.327 . S
C1605 H1599 0.950 . S
C1605 C1604 1.327 . S
C1605 C1609 1.429 . S
C1606 C1589 1.574 1_654 S
C1606 H1600 0.949 . S
C1606 C1610 1.368 1_545 S
C1607 C1588 1.429 1_545 S
C1607 C1601 1.429 . S
C1607 C1608 1.523 . S
C1608 C1589 1.368 . S
C1608 C1602 1.368 1_545 S
C1608 C1607 1.523 . S
C1609 C1593 1.429 1_565 S
C1609 C1605 1.429 . S
C1609 C1610 1.523 . S
C1610 C1594 1.368 . S
C1610 C1606 1.368 1_565 S
C1610 C1609 1.523 . S
H1611 C1586 0.950 1_565 S
H1612 C1588 0.950 . S
H1613 C1589 0.949 . S
H1614 C1591 0.950 1_545 S
H1615 C1593 0.950 . S
C1616 C1617 1.349 . S
C1616 C1618 1.327 . S
C1616 H1641 0.950 . S
C1617 C1616 1.349 . S
C1617 C1633 1.349 . S
C1618 C1616 1.327 . S
C1618 C1637 1.429 . S
C1618 H1642 0.950 . S
C1619 C1636 1.574 . S
C1619 C1638 1.368 . S
C1619 H1643 0.949 . S
H1620 C1624 0.949 . S
C1621 C1622 1.349 . S
C1621 C1623 1.327 . S
C1621 H1644 0.950 . S
C1622 C1621 1.349 . S
C1622 C1634 1.349 . S
C1623 C1621 1.327 . S
C1623 C1639 1.429 . S
C1623 H1645 0.950 . S
C1624 H1620 0.949 . S
C1624 C1632 1.574 . S
C1624 C1640 1.368 . S
H1625 C1633 0.950 . S
H1626 C1631 0.950 . S
H1627 C1632 0.949 . S
H1628 C1634 0.950 . S
H1629 C1635 0.950 . S
H1630 C1636 0.949 . S
C1631 H1626 0.950 . S
C1631 C1633 1.327 . S
C1631 C1637 1.429 . S
C1632 C1624 1.574 . S
C1632 H1627 0.949 . S
C1632 C1638 1.368 . S
C1633 C1617 1.349 . S
C1633 H1625 0.950 . S
C1633 C1631 1.327 . S
C1634 C1622 1.349 . S
C1634 H1628 0.950 . S
C1634 C1635 1.327 . S
C1635 H1629 0.950 . S
C1635 C1634 1.327 . S
C1635 C1639 1.429 . S
C1636 C1619 1.574 . S
C1636 H1630 0.949 . S
C1636 C1640 1.368 . S
C1637 C1618 1.429 . S
C1637 C1631 1.429 . S
C1637 C1638 1.523 . S
C1638 C1619 1.368 . S
C1638 C1632 1.368 . S
C1638 C1637 1.523 . S
C1639 C1623 1.429 . S
C1639 C1635 1.429 . S
C1639 C1640 1.523 . S
C1640 C1624 1.368 . S
C1640 C1636 1.368 . S
C1640 C1639 1.523 . S
H1641 C1616 0.950 . S
H1642 C1618 0.950 . S
H1643 C1619 0.949 . S
H1644 C1621 0.950 . S
H1645 C1623 0.950 . S
C1646 C1647 1.349 . S
C1646 C1648 1.327 . S
C1646 H1671 0.950 . S
C1647 C1646 1.349 . S
C1647 C1663 1.349 . S
C1648 C1646 1.327 . S
C1648 C1667 1.429 . S
C1648 H1672 0.950 . S
C1649 C1666 1.574 . S
C1649 C1668 1.368 . S
C1649 H1673 0.949 . S
H1650 C1654 0.949 . S
C1651 C1652 1.349 . S
C1651 C1653 1.327 . S
C1651 H1674 0.950 . S
C1652 C1651 1.349 . S
C1652 C1664 1.349 . S
C1653 C1651 1.327 . S
C1653 C1669 1.429 . S
C1653 H1675 0.950 . S
C1654 H1650 0.949 . S
C1654 C1662 1.574 . S
C1654 C1670 1.368 . S
H1655 C1663 0.950 . S
H1656 C1661 0.950 . S
H1657 C1662 0.949 . S
H1658 C1664 0.950 . S
H1659 C1665 0.950 . S
H1660 C1666 0.949 . S
C1661 H1656 0.950 . S
C1661 C1663 1.327 . S
C1661 C1667 1.429 . S
C1662 C1654 1.574 . S
C1662 H1657 0.949 . S
C1662 C1668 1.368 . S
C1663 C1647 1.349 . S
C1663 H1655 0.950 . S
C1663 C1661 1.327 . S
C1664 C1652 1.349 . S
C1664 H1658 0.950 . S
C1664 C1665 1.327 . S
C1665 H1659 0.950 . S
C1665 C1664 1.327 . S
C1665 C1669 1.429 . S
C1666 C1649 1.574 . S
C1666 H1660 0.949 . S
C1666 C1670 1.368 . S
C1667 C1648 1.429 . S
C1667 C1661 1.429 . S
C1667 C1668 1.523 . S
C1668 C1649 1.368 . S
C1668 C1662 1.368 . S
C1668 C1667 1.523 . S
C1669 C1653 1.429 . S
C1669 C1665 1.429 . S
C1669 C1670 1.523 . S
C1670 C1654 1.368 . S
C1670 C1666 1.368 . S
C1670 C1669 1.523 . S
H1671 C1646 0.950 . S
H1672 C1648 0.950 . S
H1673 C1649 0.949 . S
H1674 C1651 0.950 . S
H1675 C1653 0.950 . S
C1676 C1677 1.349 . S
C1676 C1678 1.327 . S
C1676 H1701 0.950 . S
C1677 C1676 1.349 . S
C1677 C1693 1.349 . S
C1678 C1676 1.327 . S
C1678 C1697 1.429 . S
C1678 H1702 0.950 . S
C1679 C1696 1.574 . S
C1679 C1698 1.368 . S
C1679 H1703 0.949 . S
H1680 C1684 0.949 . S
C1681 C1682 1.349 . S
C1681 C1683 1.327 . S
C1681 H1704 0.950 . S
C1682 C1681 1.349 . S
C1682 C1694 1.349 . S
C1683 C1681 1.327 . S
C1683 C1699 1.429 . S
C1683 H1705 0.950 . S
C1684 H1680 0.949 . S
C1684 C1692 1.574 . S
C1684 C1700 1.368 . S
H1685 C1693 0.950 . S
H1686 C1691 0.950 . S
H1687 C1692 0.949 . S
H1688 C1694 0.950 . S
H1689 C1695 0.950 . S
H1690 C1696 0.949 . S
C1691 H1686 0.950 . S
C1691 C1693 1.327 . S
C1691 C1697 1.429 . S
C1692 C1684 1.574 . S
C1692 H1687 0.949 . S
C1692 C1698 1.368 . S
C1693 C1677 1.349 . S
C1693 H1685 0.950 . S
C1693 C1691 1.327 . S
C1694 C1682 1.349 . S
C1694 H1688 0.950 . S
C1694 C1695 1.327 . S
C1695 H1689 0.950 . S
C1695 C1694 1.327 . S
C1695 C1699 1.429 . S
C1696 C1679 1.574 . S
C1696 H1690 0.949 . S
C1696 C1700 1.368 . S
C1697 C1678 1.429 . S
C1697 C1691 1.429 . S
C1697 C1698 1.523 . S
C1698 C1679 1.368 . S
C1698 C1692 1.368 . S
C1698 C1697 1.523 . S
C1699 C1683 1.429 . S
C1699 C1695 1.429 . S
C1699 C1700 1.523 . S
C1700 C1684 1.368 . S
C1700 C1696 1.368 . S
C1700 C1699 1.523 . S
H1701 C1676 0.950 . S
H1702 C1678 0.950 . S
H1703 C1679 0.949 . S
H1704 C1681 0.950 . S
H1705 C1683 0.950 . S
C1706 C1707 1.349 . S
C1706 C1708 1.327 . S
C1706 H1731 0.950 . S
C1707 C1706 1.349 . S
C1707 C1723 1.349 . S
C1708 C1706 1.327 . S
C1708 C1727 1.429 . S
C1708 H1732 0.950 . S
C1709 C1726 1.574 . S
C1709 C1728 1.368 . S
C1709 H1733 0.949 . S
H1710 C1714 0.949 . S
C1711 C1712 1.349 . S
C1711 C1713 1.327 . S
C1711 H1734 0.950 . S
C1712 C1711 1.349 . S
C1712 C1724 1.349 . S
C1713 C1711 1.327 . S
C1713 C1729 1.429 . S
C1713 H1735 0.950 . S
C1714 H1710 0.949 . S
C1714 C1722 1.574 . S
C1714 C1730 1.368 . S
H1715 C1723 0.950 . S
H1716 C1721 0.950 . S
H1717 C1722 0.949 . S
H1718 C1724 0.950 . S
H1719 C1725 0.950 . S
H1720 C1726 0.949 . S
C1721 H1716 0.950 . S
C1721 C1723 1.327 . S
C1721 C1727 1.429 . S
C1722 C1714 1.574 . S
C1722 H1717 0.949 . S
C1722 C1728 1.368 . S
C1723 C1707 1.349 . S
C1723 H1715 0.950 . S
C1723 C1721 1.327 . S
C1724 C1712 1.349 . S
C1724 H1718 0.950 . S
C1724 C1725 1.327 . S
C1725 H1719 0.950 . S
C1725 C1724 1.327 . S
C1725 C1729 1.429 . S
C1726 C1709 1.574 . S
C1726 H1720 0.949 . S
C1726 C1730 1.368 . S
C1727 C1708 1.429 . S
C1727 C1721 1.429 . S
C1727 C1728 1.523 . S
C1728 C1709 1.368 . S
C1728 C1722 1.368 . S
C1728 C1727 1.523 . S
C1729 C1713 1.429 . S
C1729 C1725 1.429 . S
C1729 C1730 1.523 . S
C1730 C1714 1.368 . S
C1730 C1726 1.368 . S
C1730 C1729 1.523 . S
H1731 C1706 0.950 . S
H1732 C1708 0.950 . S
H1733 C1709 0.949 . S
H1734 C1711 0.950 . S
H1735 C1713 0.950 . S
C1736 C1737 1.349 . S
C1736 C1738 1.327 . S
C1736 H1761 0.950 . S
C1737 C1736 1.349 . S
C1737 C1753 1.349 . S
C1738 C1736 1.327 . S
C1738 C1757 1.429 . S
C1738 H1762 0.950 . S
C1739 C1756 1.540 1_554 S
C1739 C1758 1.368 . S
C1739 H1763 0.949 . S
H1740 C1744 0.949 . S
C1741 C1742 1.349 . S
C1741 C1743 1.327 . S
C1741 H1764 0.950 . S
C1742 C1741 1.349 . S
C1742 C1754 1.349 . S
C1743 C1741 1.327 . S
C1743 C1759 1.429 . S
C1743 H1765 0.950 . S
C1744 H1740 0.949 . S
C1744 C1752 1.540 1_556 S
C1744 C1760 1.368 . S
H1745 C1753 0.950 . S
H1746 C1751 0.950 . S
H1747 C1752 0.954 . S
H1748 C1754 0.950 . S
H1749 C1755 0.950 . S
H1750 C1756 0.954 . S
C1751 H1746 0.950 . S
C1751 C1753 1.327 . S
C1751 C1757 1.429 . S
C1752 C1744 1.540 1_554 S
C1752 H1747 0.954 . S
C1752 C1758 1.400 . S
C1753 C1737 1.349 . S
C1753 H1745 0.950 . S
C1753 C1751 1.327 . S
C1754 C1742 1.349 . S
C1754 H1748 0.950 . S
C1754 C1755 1.327 . S
C1755 H1749 0.950 . S
C1755 C1754 1.327 . S
C1755 C1759 1.429 . S
C1756 C1739 1.540 1_556 S
C1756 H1750 0.954 . S
C1756 C1760 1.400 . S
C1757 C1738 1.429 . S
C1757 C1751 1.429 . S
C1757 C1758 1.523 . S
C1758 C1739 1.368 . S
C1758 C1752 1.400 . S
C1758 C1757 1.523 . S
C1759 C1743 1.429 . S
C1759 C1755 1.429 . S
C1759 C1760 1.523 . S
C1760 C1744 1.368 . S
C1760 C1756 1.400 . S
C1760 C1759 1.523 . S
H1761 C1736 0.950 . S
H1762 C1738 0.950 . S
H1763 C1739 0.949 . S
H1764 C1741 0.950 . S
H1765 C1743 0.950 . S
C1766 C1767 1.349 . S
C1766 C1768 1.327 . S
C1766 H1791 0.950 . S
C1767 C1766 1.349 . S
C1767 C1783 1.349 . S
C1768 C1766 1.327 . S
C1768 C1787 1.429 . S
C1768 H1792 0.950 . S
C1769 C1786 1.566 1_455 S
C1769 C1788 1.368 . S
C1769 H1793 0.949 . S
H1770 C1774 0.949 . S
C1771 C1772 1.349 . S
C1771 C1773 1.327 . S
C1771 H1794 0.950 . S
C1772 C1771 1.349 . S
C1772 C1784 1.349 . S
C1773 C1771 1.327 . S
C1773 C1789 1.429 . S
C1773 H1795 0.950 . S
C1774 H1770 0.949 . S
C1774 C1782 1.566 1_655 S
C1774 C1790 1.368 . S
H1775 C1783 0.950 . S
H1776 C1781 0.950 . S
H1777 C1782 0.949 . S
H1778 C1784 0.950 . S
H1779 C1785 0.950 . S
H1780 C1786 0.949 . S
C1781 H1776 0.950 . S
C1781 C1783 1.327 . S
C1781 C1787 1.429 . S
C1782 C1774 1.566 1_455 S
C1782 H1777 0.949 . S
C1782 C1788 1.375 . S
C1783 C1767 1.349 . S
C1783 H1775 0.950 . S
C1783 C1781 1.327 . S
C1784 C1772 1.349 . S
C1784 H1778 0.950 . S
C1784 C1785 1.327 . S
C1785 H1779 0.950 . S
C1785 C1784 1.327 . S
C1785 C1789 1.429 . S
C1786 C1769 1.566 1_655 S
C1786 H1780 0.949 . S
C1786 C1790 1.375 . S
C1787 C1768 1.429 . S
C1787 C1781 1.429 . S
C1787 C1788 1.523 . S
C1788 C1769 1.368 . S
C1788 C1782 1.375 . S
C1788 C1787 1.523 . S
C1789 C1773 1.429 . S
C1789 C1785 1.429 . S
C1789 C1790 1.523 . S
C1790 C1774 1.368 . S
C1790 C1786 1.375 . S
C1790 C1789 1.523 . S
H1791 C1766 0.950 . S
H1792 C1768 0.950 . S
H1793 C1769 0.949 . S
H1794 C1771 0.950 . S
H1795 C1773 0.950 . S
C1796 C1797 1.349 . S
C1796 C1798 1.327 . S
C1796 H1821 0.950 . S
C1797 C1796 1.349 . S
C1797 C1813 1.349 . S
C1798 C1796 1.327 . S
C1798 C1817 1.429 . S
C1798 H1822 0.950 . S
C1799 C1816 1.574 . S
C1799 C1818 1.368 1_556 S
C1799 H1823 0.949 . S
H1800 C1804 0.949 . S
C1801 C1802 1.349 . S
C1801 C1803 1.327 . S
C1801 H1824 0.950 . S
C1802 C1801 1.349 . S
C1802 C1814 1.349 . S
C1803 C1801 1.327 . S
C1803 C1819 1.429 . S
C1803 H1825 0.950 . S
C1804 H1800 0.949 . S
C1804 C1812 1.574 . S
C1804 C1820 1.368 1_554 S
H1805 C1813 0.950 . S
H1806 C1811 0.950 . S
H1807 C1812 0.949 . S
H1808 C1814 0.950 . S
H1809 C1815 0.950 . S
H1810 C1816 0.949 . S
C1811 H1806 0.950 . S
C1811 C1813 1.327 . S
C1811 C1817 1.429 . S
C1812 C1804 1.574 . S
C1812 H1807 0.949 . S
C1812 C1818 1.368 1_655 S
C1813 C1797 1.349 . S
C1813 H1805 0.950 . S
C1813 C1811 1.327 . S
C1814 C1802 1.349 . S
C1814 H1808 0.950 . S
C1814 C1815 1.327 . S
C1815 H1809 0.950 . S
C1815 C1814 1.327 . S
C1815 C1819 1.429 . S
C1816 C1799 1.574 . S
C1816 H1810 0.949 . S
C1816 C1820 1.368 1_455 S
C1817 C1798 1.429 . S
C1817 C1811 1.429 . S
C1817 C1818 1.523 . S
C1818 C1799 1.368 1_554 S
C1818 C1812 1.368 1_455 S
C1818 C1817 1.523 . S
C1819 C1803 1.429 . S
C1819 C1815 1.429 . S
C1819 C1820 1.523 . S
C1820 C1804 1.368 1_556 S
C1820 C1816 1.368 1_655 S
C1820 C1819 1.523 . S
H1821 C1796 0.950 . S
H1822 C1798 0.950 . S
H1823 C1799 0.949 . S
H1824 C1801 0.950 . S
H1825 C1803 0.950 . S
C1826 C1827 1.349 . S
C1826 C1828 1.327 . S
C1826 H1851 0.950 . S
C1827 C1826 1.349 . S
C1827 C1843 1.349 . S
C1828 C1826 1.327 . S
C1828 C1847 1.429 . S
C1828 H1852 0.950 . S
C1829 C1846 1.574 . S
C1829 C1848 1.368 . S
C1829 H1853 0.949 . S
H1830 C1834 0.949 . S
C1831 C1832 1.349 . S
C1831 C1833 1.327 . S
C1831 H1854 0.950 . S
C1832 C1831 1.349 . S
C1832 C1844 1.349 . S
C1833 C1831 1.327 . S
C1833 C1849 1.429 . S
C1833 H1855 0.950 . S
C1834 H1830 0.949 . S
C1834 C1842 1.574 . S
C1834 C1850 1.368 . S
H1835 C1843 0.950 . S
H1836 C1841 0.950 . S
H1837 C1842 0.949 . S
H1838 C1844 0.950 . S
H1839 C1845 0.950 . S
H1840 C1846 0.949 . S
C1841 H1836 0.950 . S
C1841 C1843 1.327 . S
C1841 C1847 1.429 . S
C1842 C1834 1.574 . S
C1842 H1837 0.949 . S
C1842 C1848 1.368 . S
C1843 C1827 1.349 . S
C1843 H1835 0.950 . S
C1843 C1841 1.327 . S
C1844 C1832 1.349 . S
C1844 H1838 0.950 . S
C1844 C1845 1.327 . S
C1845 H1839 0.950 . S
C1845 C1844 1.327 . S
C1845 C1849 1.429 . S
C1846 C1829 1.574 . S
C1846 H1840 0.949 . S
C1846 C1850 1.368 . S
C1847 C1828 1.429 . S
C1847 C1841 1.429 . S
C1847 C1848 1.523 . S
C1848 C1829 1.368 . S
C1848 C1842 1.368 . S
C1848 C1847 1.523 . S
C1849 C1833 1.429 . S
C1849 C1845 1.429 . S
C1849 C1850 1.523 . S
C1850 C1834 1.368 . S
C1850 C1846 1.368 . S
C1850 C1849 1.523 . S
H1851 C1826 0.950 . S
H1852 C1828 0.950 . S
H1853 C1829 0.949 . S
H1854 C1831 0.950 . S
H1855 C1833 0.950 . S
C1856 C1857 1.349 . S
C1856 C1858 1.327 . S
C1856 H1881 0.950 . S
C1857 C1856 1.349 . S
C1857 C1873 1.349 . S
C1858 C1856 1.327 . S
C1858 C1877 1.429 . S
C1858 H1882 0.950 . S
C1859 C1876 1.539 1_545 S
C1859 C1878 1.368 . S
C1859 H1883 0.949 . S
H1860 C1864 0.949 . S
C1861 C1862 1.349 . S
C1861 C1863 1.327 . S
C1861 H1884 0.950 . S
C1862 C1861 1.349 . S
C1862 C1874 1.349 . S
C1863 C1861 1.327 . S
C1863 C1879 1.429 . S
C1863 H1885 0.950 . S
C1864 H1860 0.949 . S
C1864 C1872 1.539 1_565 S
C1864 C1880 1.368 . S
H1865 C1873 0.950 . S
H1866 C1871 0.950 . S
H1867 C1872 0.953 . S
H1868 C1874 0.950 . S
H1869 C1875 0.950 . S
H1870 C1876 0.953 . S
C1871 H1866 0.950 . S
C1871 C1873 1.327 . S
C1871 C1877 1.429 . S
C1872 C1864 1.539 1_545 S
C1872 H1867 0.953 . S
C1872 C1878 1.401 . S
C1873 C1857 1.349 . S
C1873 H1865 0.950 . S
C1873 C1871 1.327 . S
C1874 C1862 1.349 . S
C1874 H1868 0.950 . S
C1874 C1875 1.327 . S
C1875 H1869 0.950 . S
C1875 C1874 1.327 . S
C1875 C1879 1.429 . S
C1876 C1859 1.539 1_565 S
C1876 H1870 0.953 . S
C1876 C1880 1.401 . S
C1877 C1858 1.429 . S
C1877 C1871 1.429 . S
C1877 C1878 1.523 . S
C1878 C1859 1.368 . S
C1878 C1872 1.401 . S
C1878 C1877 1.523 . S
C1879 C1863 1.429 . S
C1879 C1875 1.429 . S
C1879 C1880 1.523 . S
C1880 C1864 1.368 . S
C1880 C1876 1.401 . S
C1880 C1879 1.523 . S
H1881 C1856 0.950 . S
H1882 C1858 0.950 . S
H1883 C1859 0.949 . S
H1884 C1861 0.950 . S
H1885 C1863 0.950 . S
C1886 C1887 1.349 . S
C1886 C1888 1.327 . S
C1886 H1911 0.950 . S
C1887 C1886 1.349 . S
C1887 C1903 1.349 . S
C1888 C1886 1.327 . S
C1888 C1907 1.429 . S
C1888 H1912 0.950 . S
C1889 C1906 1.574 . S
C1889 C1908 1.368 . S
C1889 H1913 0.949 . S
H1890 C1894 0.949 . S
C1891 C1892 1.349 . S
C1891 C1893 1.327 . S
C1891 H1914 0.950 . S
C1892 C1891 1.349 . S
C1892 C1904 1.349 . S
C1893 C1891 1.327 . S
C1893 C1909 1.429 . S
C1893 H1915 0.950 . S
C1894 H1890 0.949 . S
C1894 C1902 1.574 . S
C1894 C1910 1.368 . S
H1895 C1903 0.950 . S
H1896 C1901 0.950 . S
H1897 C1902 0.949 . S
H1898 C1904 0.950 . S
H1899 C1905 0.950 . S
H1900 C1906 0.949 . S
C1901 H1896 0.950 . S
C1901 C1903 1.327 . S
C1901 C1907 1.429 . S
C1902 C1894 1.574 . S
C1902 H1897 0.949 . S
C1902 C1908 1.368 . S
C1903 C1887 1.349 . S
C1903 H1895 0.950 . S
C1903 C1901 1.327 . S
C1904 C1892 1.349 . S
C1904 H1898 0.950 . S
C1904 C1905 1.327 . S
C1905 H1899 0.950 . S
C1905 C1904 1.327 . S
C1905 C1909 1.429 . S
C1906 C1889 1.574 . S
C1906 H1900 0.949 . S
C1906 C1910 1.368 . S
C1907 C1888 1.429 . S
C1907 C1901 1.429 . S
C1907 C1908 1.523 . S
C1908 C1889 1.368 . S
C1908 C1902 1.368 . S
C1908 C1907 1.523 . S
C1909 C1893 1.429 . S
C1909 C1905 1.429 . S
C1909 C1910 1.523 . S
C1910 C1894 1.368 . S
C1910 C1906 1.368 . S
C1910 C1909 1.523 . S
H1911 C1886 0.950 . S
H1912 C1888 0.950 . S
H1913 C1889 0.949 . S
H1914 C1891 0.950 . S
H1915 C1893 0.950 . S
C1916 C1917 1.349 . S
C1916 C1918 1.327 . S
C1916 H1941 0.950 . S
C1917 C1916 1.349 . S
C1917 C1933 1.349 . S
C1918 C1916 1.327 . S
C1918 C1937 1.429 . S
C1918 H1942 0.950 . S
C1919 C1936 1.594 . S
C1919 C1938 1.368 . S
C1919 H1943 0.949 . S
H1920 C1924 0.949 . S
C1921 C1922 1.349 . S
C1921 C1923 1.327 . S
C1921 H1944 0.950 . S
C1922 C1921 1.349 . S
C1922 C1934 1.349 . S
C1923 C1921 1.327 . S
C1923 C1939 1.429 . S
C1923 H1945 0.950 . S
C1924 H1920 0.949 . S
C1924 C1932 1.594 . S
C1924 C1940 1.368 . S
H1925 C1933 0.950 . S
H1926 C1931 0.950 . S
H1927 C1932 0.949 . S
H1928 C1934 0.950 . S
H1929 C1935 0.950 . S
H1930 C1936 0.949 . S
C1931 H1926 0.950 . S
C1931 C1933 1.327 . S
C1931 C1937 1.429 . S
C1932 C1924 1.594 . S
C1932 H1927 0.949 . S
C1932 C1938 1.349 1_565 S
C1933 C1917 1.349 . S
C1933 H1925 0.950 . S
C1933 C1931 1.327 . S
C1934 C1922 1.349 . S
C1934 H1928 0.950 . S
C1934 C1935 1.327 . S
C1935 H1929 0.950 . S
C1935 C1934 1.327 . S
C1935 C1939 1.429 . S
C1936 C1919 1.594 . S
C1936 H1930 0.949 . S
C1936 C1940 1.349 1_545 S
C1937 C1918 1.429 . S
C1937 C1931 1.429 . S
C1937 C1938 1.523 . S
C1938 C1919 1.368 . S
C1938 C1932 1.349 1_545 S
C1938 C1937 1.523 . S
C1939 C1923 1.429 . S
C1939 C1935 1.429 . S
C1939 C1940 1.523 . S
C1940 C1924 1.368 . S
C1940 C1936 1.349 1_565 S
C1940 C1939 1.523 . S
H1941 C1916 0.950 . S
H1942 C1918 0.950 . S
H1943 C1919 0.949 . S
H1944 C1921 0.950 . S
H1945 C1923 0.950 . S
C1946 C1947 1.349 . S
C1946 C1948 1.327 . S
C1946 H1971 0.950 . S
C1947 C1946 1.349 . S
C1947 C1963 1.349 . S
C1948 C1946 1.327 . S
C1948 C1967 1.429 . S
C1948 H1972 0.950 . S
C1949 C1966 1.590 . S
C1949 C1968 1.368 . S
C1949 H1973 0.949 . S
H1950 C1954 0.949 . S
C1951 C1952 1.349 . S
C1951 C1953 1.327 . S
C1951 H1974 0.950 . S
C1952 C1951 1.349 . S
C1952 C1964 1.349 . S
C1953 C1951 1.327 . S
C1953 C1969 1.429 . S
C1953 H1975 0.950 . S
C1954 H1950 0.949 . S
C1954 C1962 1.590 . S
C1954 C1970 1.368 . S
H1955 C1963 0.950 . S
H1956 C1961 0.950 . S
H1957 C1962 0.949 . S
H1958 C1964 0.950 . S
H1959 C1965 0.950 . S
H1960 C1966 0.949 . S
C1961 H1956 0.950 . S
C1961 C1963 1.327 . S
C1961 C1967 1.429 . S
C1962 C1954 1.590 . S
C1962 H1957 0.949 . S
C1962 C1968 1.352 1_556 S
C1963 C1947 1.349 . S
C1963 H1955 0.950 . S
C1963 C1961 1.327 . S
C1964 C1952 1.349 . S
C1964 H1958 0.950 . S
C1964 C1965 1.327 . S
C1965 H1959 0.950 . S
C1965 C1964 1.327 . S
C1965 C1969 1.429 . S
C1966 C1949 1.590 . S
C1966 H1960 0.949 . S
C1966 C1970 1.352 1_554 S
C1967 C1948 1.429 . S
C1967 C1961 1.429 . S
C1967 C1968 1.523 . S
C1968 C1949 1.368 . S
C1968 C1962 1.352 1_554 S
C1968 C1967 1.523 . S
C1969 C1953 1.429 . S
C1969 C1965 1.429 . S
C1969 C1970 1.523 . S
C1970 C1954 1.368 . S
C1970 C1966 1.352 1_556 S
C1970 C1969 1.523 . S
H1971 C1946 0.950 . S
H1972 C1948 0.950 . S
H1973 C1949 0.949 . S
H1974 C1951 0.950 . S
H1975 C1953 0.950 . S
C1976 C1977 1.349 . S
C1976 C1978 1.327 . S
C1976 H2001 0.950 . S
C1977 C1976 1.349 . S
C1977 C1993 1.349 . S
C1978 C1976 1.327 . S
C1978 C1997 1.429 . S
C1978 H2002 0.950 . S
C1979 C1996 1.555 1_545 S
C1979 C1998 1.368 . S
C1979 H2003 0.949 . S
H1980 C1984 0.949 . S
C1981 C1982 1.349 . S
C1981 C1983 1.327 . S
C1981 H2004 0.950 . S
C1982 C1981 1.349 . S
C1982 C1994 1.349 . S
C1983 C1981 1.327 . S
C1983 C1999 1.429 . S
C1983 H2005 0.950 . S
C1984 H1980 0.949 . S
C1984 C1992 1.555 1_565 S
C1984 C2000 1.368 . S
H1985 C1993 0.950 . S
H1986 C1991 0.950 . S
H1987 C1992 0.951 . S
H1988 C1994 0.950 . S
H1989 C1995 0.950 . S
H1990 C1996 0.951 . S
C1991 H1986 0.950 . S
C1991 C1993 1.327 . S
C1991 C1997 1.429 . S
C1992 C1984 1.555 1_545 S
C1992 H1987 0.951 . S
C1992 C1998 1.386 . S
C1993 C1977 1.349 . S
C1993 H1985 0.950 . S
C1993 C1991 1.327 . S
C1994 C1982 1.349 . S
C1994 H1988 0.950 . S
C1994 C1995 1.327 . S
C1995 H1989 0.950 . S
C1995 C1994 1.327 . S
C1995 C1999 1.429 . S
C1996 C1979 1.555 1_565 S
C1996 H1990 0.951 . S
C1996 C2000 1.386 . S
C1997 C1978 1.429 . S
C1997 C1991 1.429 . S
C1997 C1998 1.523 . S
C1998 C1979 1.368 . S
C1998 C1992 1.386 . S
C1998 C1997 1.523 . S
C1999 C1983 1.429 . S
C1999 C1995 1.429 . S
C1999 C2000 1.523 . S
C2000 C1984 1.368 . S
C2000 C1996 1.386 . S
C2000 C1999 1.523 . S
H2001 C1976 0.950 . S
H2002 C1978 0.950 . S
H2003 C1979 0.949 . S
H2004 C1981 0.950 . S
H2005 C1983 0.950 . S
C2006 C2007 1.349 . S
C2006 C2008 1.327 . S
C2006 H2031 0.950 . S
C2007 C2006 1.349 . S
C2007 C2023 1.349 . S
C2008 C2006 1.327 . S
C2008 C2027 1.429 . S
C2008 H2032 0.950 . S
C2009 C2026 1.574 . S
C2009 C2028 1.368 . S
C2009 H2033 0.949 . S
H2010 C2014 0.949 . S
C2011 C2012 1.349 . S
C2011 C2013 1.327 . S
C2011 H2034 0.950 . S
C2012 C2011 1.349 . S
C2012 C2024 1.349 . S
C2013 C2011 1.327 . S
C2013 C2029 1.429 . S
C2013 H2035 0.950 . S
C2014 H2010 0.949 . S
C2014 C2022 1.574 . S
C2014 C2030 1.368 . S
H2015 C2023 0.950 . S
H2016 C2021 0.950 . S
H2017 C2022 0.949 . S
H2018 C2024 0.950 . S
H2019 C2025 0.950 . S
H2020 C2026 0.949 . S
C2021 H2016 0.950 . S
C2021 C2023 1.327 . S
C2021 C2027 1.429 . S
C2022 C2014 1.574 . S
C2022 H2017 0.949 . S
C2022 C2028 1.368 . S
C2023 C2007 1.349 . S
C2023 H2015 0.950 . S
C2023 C2021 1.327 . S
C2024 C2012 1.349 . S
C2024 H2018 0.950 . S
C2024 C2025 1.327 . S
C2025 H2019 0.950 . S
C2025 C2024 1.327 . S
C2025 C2029 1.429 . S
C2026 C2009 1.574 . S
C2026 H2020 0.949 . S
C2026 C2030 1.368 . S
C2027 C2008 1.429 . S
C2027 C2021 1.429 . S
C2027 C2028 1.523 . S
C2028 C2009 1.368 . S
C2028 C2022 1.368 . S
C2028 C2027 1.523 . S
C2029 C2013 1.429 . S
C2029 C2025 1.429 . S
C2029 C2030 1.523 . S
C2030 C2014 1.368 . S
C2030 C2026 1.368 . S
C2030 C2029 1.523 . S
H2031 C2006 0.950 . S
H2032 C2008 0.950 . S
H2033 C2009 0.949 . S
H2034 C2011 0.950 . S
H2035 C2013 0.950 . S
C2036 C2037 1.349 . S
C2036 C2038 1.327 . S
C2036 H2061 0.950 . S
C2037 C2036 1.349 . S
C2037 C2053 1.349 . S
C2038 C2036 1.327 . S
C2038 C2057 1.429 . S
C2038 H2062 0.950 . S
C2039 C2056 1.575 1_545 S
C2039 C2058 1.368 . S
C2039 H2063 0.949 . S
H2040 C2044 0.949 . S
C2041 C2042 1.349 . S
C2041 C2043 1.327 . S
C2041 H2064 0.950 . S
C2042 C2041 1.349 . S
C2042 C2054 1.349 . S
C2043 C2041 1.327 . S
C2043 C2059 1.429 . S
C2043 H2065 0.950 . S
C2044 H2040 0.949 . S
C2044 C2052 1.575 1_565 S
C2044 C2060 1.368 . S
H2045 C2053 0.950 . S
H2046 C2051 0.950 . S
H2047 C2052 0.949 . S
H2048 C2054 0.950 . S
H2049 C2055 0.950 . S
H2050 C2056 0.949 . S
C2051 H2046 0.950 . S
C2051 C2053 1.327 . S
C2051 C2057 1.429 . S
C2052 C2044 1.575 1_545 S
C2052 H2047 0.949 . S
C2052 C2058 1.367 . S
C2053 C2037 1.349 . S
C2053 H2045 0.950 . S
C2053 C2051 1.327 . S
C2054 C2042 1.349 . S
C2054 H2048 0.950 . S
C2054 C2055 1.327 . S
C2055 H2049 0.950 . S
C2055 C2054 1.327 . S
C2055 C2059 1.429 . S
C2056 C2039 1.575 1_565 S
C2056 H2050 0.949 . S
C2056 C2060 1.367 . S
C2057 C2038 1.429 . S
C2057 C2051 1.429 . S
C2057 C2058 1.523 . S
C2058 C2039 1.368 . S
C2058 C2052 1.367 . S
C2058 C2057 1.523 . S
C2059 C2043 1.429 . S
C2059 C2055 1.429 . S
C2059 C2060 1.523 . S
C2060 C2044 1.368 . S
C2060 C2056 1.367 . S
C2060 C2059 1.523 . S
H2061 C2036 0.950 . S
H2062 C2038 0.950 . S
H2063 C2039 0.949 . S
H2064 C2041 0.950 . S
H2065 C2043 0.950 . S
C2066 C2067 1.349 . S
C2066 C2068 1.327 . S
C2066 H2091 0.950 . S
C2067 C2066 1.349 . S
C2067 C2083 1.349 . S
C2068 C2066 1.327 . S
C2068 C2087 1.429 . S
C2068 H2092 0.950 . S
C2069 C2086 1.590 . S
C2069 C2088 1.352 1_554 S
C2069 H2093 0.949 . S
H2070 C2074 0.949 . S
C2071 C2072 1.349 . S
C2071 C2073 1.327 . S
C2071 H2094 0.950 . S
C2072 C2071 1.349 . S
C2072 C2084 1.349 . S
C2073 C2071 1.327 . S
C2073 C2089 1.429 . S
C2073 H2095 0.950 . S
C2074 H2070 0.949 . S
C2074 C2082 1.590 . S
C2074 C2090 1.352 1_556 S
H2075 C2083 0.950 . S
H2076 C2081 0.950 . S
H2077 C2082 0.949 . S
H2078 C2084 0.950 . S
H2079 C2085 0.950 . S
H2080 C2086 0.949 . S
C2081 H2076 0.950 . S
C2081 C2083 1.327 . S
C2081 C2087 1.429 . S
C2082 C2074 1.590 . S
C2082 H2077 0.949 . S
C2082 C2088 1.368 . S
C2083 C2067 1.349 . S
C2083 H2075 0.950 . S
C2083 C2081 1.327 . S
C2084 C2072 1.349 . S
C2084 H2078 0.950 . S
C2084 C2085 1.327 . S
C2085 H2079 0.950 . S
C2085 C2084 1.327 . S
C2085 C2089 1.429 . S
C2086 C2069 1.590 . S
C2086 H2080 0.949 . S
C2086 C2090 1.368 . S
C2087 C2068 1.429 . S
C2087 C2081 1.429 . S
C2087 C2088 1.523 . S
C2088 C2069 1.352 1_556 S
C2088 C2082 1.368 . S
C2088 C2087 1.523 . S
C2089 C2073 1.429 . S
C2089 C2085 1.429 . S
C2089 C2090 1.523 . S
C2090 C2074 1.352 1_554 S
C2090 C2086 1.368 . S
C2090 C2089 1.523 . S
H2091 C2066 0.950 . S
H2092 C2068 0.950 . S
H2093 C2069 0.949 . S
H2094 C2071 0.950 . S
H2095 C2073 0.950 . S
C2096 C2097 1.349 . S
C2096 C2098 1.327 . S
C2096 H2121 0.950 . S
C2097 C2096 1.349 . S
C2097 C2113 1.349 . S
C2098 C2096 1.327 . S
C2098 C2117 1.429 . S
C2098 H2122 0.950 . S
C2099 C2116 1.574 . S
C2099 C2118 1.368 . S
C2099 H2123 0.949 . S
H2100 C2104 0.949 . S
C2101 C2102 1.349 . S
C2101 C2103 1.327 . S
C2101 H2124 0.950 . S
C2102 C2101 1.349 . S
C2102 C2114 1.349 . S
C2103 C2101 1.327 . S
C2103 C2119 1.429 . S
C2103 H2125 0.950 . S
C2104 H2100 0.949 . S
C2104 C2112 1.574 . S
C2104 C2120 1.368 . S
H2105 C2113 0.950 . S
H2106 C2111 0.950 . S
H2107 C2112 0.949 . S
H2108 C2114 0.950 . S
H2109 C2115 0.950 . S
H2110 C2116 0.949 . S
C2111 H2106 0.950 . S
C2111 C2113 1.327 . S
C2111 C2117 1.429 . S
C2112 C2104 1.574 . S
C2112 H2107 0.949 . S
C2112 C2118 1.368 . S
C2113 C2097 1.349 . S
C2113 H2105 0.950 . S
C2113 C2111 1.327 . S
C2114 C2102 1.349 . S
C2114 H2108 0.950 . S
C2114 C2115 1.327 . S
C2115 H2109 0.950 . S
C2115 C2114 1.327 . S
C2115 C2119 1.429 . S
C2116 C2099 1.574 . S
C2116 H2110 0.949 . S
C2116 C2120 1.368 . S
C2117 C2098 1.429 . S
C2117 C2111 1.429 . S
C2117 C2118 1.523 . S
C2118 C2099 1.368 . S
C2118 C2112 1.368 . S
C2118 C2117 1.523 . S
C2119 C2103 1.429 . S
C2119 C2115 1.429 . S
C2119 C2120 1.523 . S
C2120 C2104 1.368 . S
C2120 C2116 1.368 . S
C2120 C2119 1.523 . S
H2121 C2096 0.950 . S
H2122 C2098 0.950 . S
H2123 C2099 0.949 . S
H2124 C2101 0.950 . S
H2125 C2103 0.950 . S
C2126 C2127 1.349 . S
C2126 C2128 1.327 . S
C2126 H2151 0.950 . S
C2127 C2126 1.349 . S
C2127 C2143 1.349 . S
C2128 C2126 1.327 . S
C2128 C2147 1.429 . S
C2128 H2152 0.950 . S
C2129 C2146 1.590 . S
C2129 C2148 1.352 1_554 S
C2129 H2153 0.949 . S
H2130 C2134 0.949 . S
C2131 C2132 1.349 . S
C2131 C2133 1.327 . S
C2131 H2154 0.950 . S
C2132 C2131 1.349 . S
C2132 C2144 1.349 . S
C2133 C2131 1.327 . S
C2133 C2149 1.429 . S
C2133 H2155 0.950 . S
C2134 H2130 0.949 . S
C2134 C2142 1.590 . S
C2134 C2150 1.352 1_556 S
H2135 C2143 0.950 . S
H2136 C2141 0.950 . S
H2137 C2142 0.949 . S
H2138 C2144 0.950 . S
H2139 C2145 0.950 . S
H2140 C2146 0.949 . S
C2141 H2136 0.950 . S
C2141 C2143 1.327 . S
C2141 C2147 1.429 . S
C2142 C2134 1.590 . S
C2142 H2137 0.949 . S
C2142 C2148 1.368 . S
C2143 C2127 1.349 . S
C2143 H2135 0.950 . S
C2143 C2141 1.327 . S
C2144 C2132 1.349 . S
C2144 H2138 0.950 . S
C2144 C2145 1.327 . S
C2145 H2139 0.950 . S
C2145 C2144 1.327 . S
C2145 C2149 1.429 . S
C2146 C2129 1.590 . S
C2146 H2140 0.949 . S
C2146 C2150 1.368 . S
C2147 C2128 1.429 . S
C2147 C2141 1.429 . S
C2147 C2148 1.523 . S
C2148 C2129 1.352 1_556 S
C2148 C2142 1.368 . S
C2148 C2147 1.523 . S
C2149 C2133 1.429 . S
C2149 C2145 1.429 . S
C2149 C2150 1.523 . S
C2150 C2134 1.352 1_554 S
C2150 C2146 1.368 . S
C2150 C2149 1.523 . S
H2151 C2126 0.950 . S
H2152 C2128 0.950 . S
H2153 C2129 0.949 . S
H2154 C2131 0.950 . S
H2155 C2133 0.950 . S
C2156 C2157 1.349 . S
C2156 C2158 1.327 . S
C2156 H2181 0.950 . S
C2157 C2156 1.349 . S
C2157 C2173 1.349 . S
C2158 C2156 1.327 . S
C2158 C2177 1.429 . S
C2158 H2182 0.950 . S
C2159 C2176 1.574 . S
C2159 C2178 1.368 . S
C2159 H2183 0.949 . S
H2160 C2164 0.949 . S
C2161 C2162 1.349 . S
C2161 C2163 1.327 . S
C2161 H2184 0.950 . S
C2162 C2161 1.349 . S
C2162 C2174 1.349 . S
C2163 C2161 1.327 . S
C2163 C2179 1.429 . S
C2163 H2185 0.950 . S
C2164 H2160 0.949 . S
C2164 C2172 1.574 . S
C2164 C2180 1.368 . S
H2165 C2173 0.950 . S
H2166 C2171 0.950 . S
H2167 C2172 0.949 . S
H2168 C2174 0.950 . S
H2169 C2175 0.950 . S
H2170 C2176 0.949 . S
C2171 H2166 0.950 . S
C2171 C2173 1.327 . S
C2171 C2177 1.429 . S
C2172 C2164 1.574 . S
C2172 H2167 0.949 . S
C2172 C2178 1.368 . S
C2173 C2157 1.349 . S
C2173 H2165 0.950 . S
C2173 C2171 1.327 . S
C2174 C2162 1.349 . S
C2174 H2168 0.950 . S
C2174 C2175 1.327 . S
C2175 H2169 0.950 . S
C2175 C2174 1.327 . S
C2175 C2179 1.429 . S
C2176 C2159 1.574 . S
C2176 H2170 0.949 . S
C2176 C2180 1.368 . S
C2177 C2158 1.429 . S
C2177 C2171 1.429 . S
C2177 C2178 1.523 . S
C2178 C2159 1.368 . S
C2178 C2172 1.368 . S
C2178 C2177 1.523 . S
C2179 C2163 1.429 . S
C2179 C2175 1.429 . S
C2179 C2180 1.523 . S
C2180 C2164 1.368 . S
C2180 C2176 1.368 . S
C2180 C2179 1.523 . S
H2181 C2156 0.950 . S
H2182 C2158 0.950 . S
H2183 C2159 0.949 . S
H2184 C2161 0.950 . S
H2185 C2163 0.950 . S
C2186 C2187 1.349 . S
C2186 C2188 1.327 . S
C2186 H2211 0.950 . S
C2187 C2186 1.349 . S
C2187 C2203 1.349 . S
C2188 C2186 1.327 . S
C2188 C2207 1.429 . S
C2188 H2212 0.950 . S
C2189 C2206 1.574 . S
C2189 C2208 1.368 . S
C2189 H2213 0.949 . S
H2190 C2194 0.949 . S
C2191 C2192 1.349 . S
C2191 C2193 1.327 . S
C2191 H2214 0.950 . S
C2192 C2191 1.349 . S
C2192 C2204 1.349 . S
C2193 C2191 1.327 . S
C2193 C2209 1.429 . S
C2193 H2215 0.950 . S
C2194 H2190 0.949 . S
C2194 C2202 1.574 . S
C2194 C2210 1.368 . S
H2195 C2203 0.950 . S
H2196 C2201 0.950 . S
H2197 C2202 0.949 . S
H2198 C2204 0.950 . S
H2199 C2205 0.950 . S
H2200 C2206 0.949 . S
C2201 H2196 0.950 . S
C2201 C2203 1.327 . S
C2201 C2207 1.429 . S
C2202 C2194 1.574 . S
C2202 H2197 0.949 . S
C2202 C2208 1.368 . S
C2203 C2187 1.349 . S
C2203 H2195 0.950 . S
C2203 C2201 1.327 . S
C2204 C2192 1.349 . S
C2204 H2198 0.950 . S
C2204 C2205 1.327 . S
C2205 H2199 0.950 . S
C2205 C2204 1.327 . S
C2205 C2209 1.429 . S
C2206 C2189 1.574 . S
C2206 H2200 0.949 . S
C2206 C2210 1.368 . S
C2207 C2188 1.429 . S
C2207 C2201 1.429 . S
C2207 C2208 1.523 . S
C2208 C2189 1.368 . S
C2208 C2202 1.368 . S
C2208 C2207 1.523 . S
C2209 C2193 1.429 . S
C2209 C2205 1.429 . S
C2209 C2210 1.523 . S
C2210 C2194 1.368 . S
C2210 C2206 1.368 . S
C2210 C2209 1.523 . S
H2211 C2186 0.950 . S
H2212 C2188 0.950 . S
H2213 C2189 0.949 . S
H2214 C2191 0.950 . S
H2215 C2193 0.950 . S
C2216 C2217 1.349 . S
C2216 C2218 1.327 . S
C2216 H2241 0.950 . S
C2217 C2216 1.349 . S
C2217 C2233 1.349 . S
C2218 C2216 1.327 . S
C2218 C2237 1.429 . S
C2218 H2242 0.950 . S
C2219 C2236 1.574 . S
C2219 C2238 1.368 . S
C2219 H2243 0.949 . S
H2220 C2224 0.949 . S
C2221 C2222 1.349 . S
C2221 C2223 1.327 . S
C2221 H2244 0.950 . S
C2222 C2221 1.349 . S
C2222 C2234 1.349 . S
C2223 C2221 1.327 . S
C2223 C2239 1.429 . S
C2223 H2245 0.950 . S
C2224 H2220 0.949 . S
C2224 C2232 1.574 . S
C2224 C2240 1.368 . S
H2225 C2233 0.950 . S
H2226 C2231 0.950 . S
H2227 C2232 0.949 . S
H2228 C2234 0.950 . S
H2229 C2235 0.950 . S
H2230 C2236 0.949 . S
C2231 H2226 0.950 . S
C2231 C2233 1.327 . S
C2231 C2237 1.429 . S
C2232 C2224 1.574 . S
C2232 H2227 0.949 . S
C2232 C2238 1.368 . S
C2233 C2217 1.349 . S
C2233 H2225 0.950 . S
C2233 C2231 1.327 . S
C2234 C2222 1.349 . S
C2234 H2228 0.950 . S
C2234 C2235 1.327 . S
C2235 H2229 0.950 . S
C2235 C2234 1.327 . S
C2235 C2239 1.429 . S
C2236 C2219 1.574 . S
C2236 H2230 0.949 . S
C2236 C2240 1.368 . S
C2237 C2218 1.429 . S
C2237 C2231 1.429 . S
C2237 C2238 1.523 . S
C2238 C2219 1.368 . S
C2238 C2232 1.368 . S
C2238 C2237 1.523 . S
C2239 C2223 1.429 . S
C2239 C2235 1.429 . S
C2239 C2240 1.523 . S
C2240 C2224 1.368 . S
C2240 C2236 1.368 . S
C2240 C2239 1.523 . S
H2241 C2216 0.950 . S
H2242 C2218 0.950 . S
H2243 C2219 0.949 . S
H2244 C2221 0.950 . S
H2245 C2223 0.950 . S
C2246 C2247 1.349 . S
C2246 C2248 1.327 . S
C2246 H2271 0.950 . S
C2247 C2246 1.349 . S
C2247 C2263 1.349 . S
C2248 C2246 1.327 . S
C2248 C2267 1.429 . S
C2248 H2272 0.950 . S
C2249 C2266 1.590 . S
C2249 C2268 1.352 1_554 S
C2249 H2273 0.949 . S
H2250 C2254 0.949 . S
C2251 C2252 1.349 . S
C2251 C2253 1.327 . S
C2251 H2274 0.950 . S
C2252 C2251 1.349 . S
C2252 C2264 1.349 . S
C2253 C2251 1.327 . S
C2253 C2269 1.429 . S
C2253 H2275 0.950 . S
C2254 H2250 0.949 . S
C2254 C2262 1.590 . S
C2254 C2270 1.352 1_556 S
H2255 C2263 0.950 . S
H2256 C2261 0.950 . S
H2257 C2262 0.949 . S
H2258 C2264 0.950 . S
H2259 C2265 0.950 . S
H2260 C2266 0.949 . S
C2261 H2256 0.950 . S
C2261 C2263 1.327 . S
C2261 C2267 1.429 . S
C2262 C2254 1.590 . S
C2262 H2257 0.949 . S
C2262 C2268 1.368 . S
C2263 C2247 1.349 . S
C2263 H2255 0.950 . S
C2263 C2261 1.327 . S
C2264 C2252 1.349 . S
C2264 H2258 0.950 . S
C2264 C2265 1.327 . S
C2265 H2259 0.950 . S
C2265 C2264 1.327 . S
C2265 C2269 1.429 . S
C2266 C2249 1.590 . S
C2266 H2260 0.949 . S
C2266 C2270 1.368 . S
C2267 C2248 1.429 . S
C2267 C2261 1.429 . S
C2267 C2268 1.523 . S
C2268 C2249 1.352 1_556 S
C2268 C2262 1.368 . S
C2268 C2267 1.523 . S
C2269 C2253 1.429 . S
C2269 C2265 1.429 . S
C2269 C2270 1.523 . S
C2270 C2254 1.352 1_554 S
C2270 C2266 1.368 . S
C2270 C2269 1.523 . S
H2271 C2246 0.950 . S
H2272 C2248 0.950 . S
H2273 C2249 0.949 . S
H2274 C2251 0.950 . S
H2275 C2253 0.950 . S
C2276 C2277 1.349 . S
C2276 C2278 1.327 . S
C2276 H2301 0.950 . S
C2277 C2276 1.349 . S
C2277 C2293 1.349 . S
C2278 C2276 1.327 . S
C2278 C2297 1.429 . S
C2278 H2302 0.950 . S
C2279 C2296 1.574 . S
C2279 C2298 1.368 . S
C2279 H2303 0.949 . S
H2280 C2284 0.949 . S
C2281 C2282 1.349 . S
C2281 C2283 1.327 . S
C2281 H2304 0.950 . S
C2282 C2281 1.349 . S
C2282 C2294 1.349 . S
C2283 C2281 1.327 . S
C2283 C2299 1.429 . S
C2283 H2305 0.950 . S
C2284 H2280 0.949 . S
C2284 C2292 1.574 . S
C2284 C2300 1.368 . S
H2285 C2293 0.950 . S
H2286 C2291 0.950 . S
H2287 C2292 0.949 . S
H2288 C2294 0.950 . S
H2289 C2295 0.950 . S
H2290 C2296 0.949 . S
C2291 H2286 0.950 . S
C2291 C2293 1.327 . S
C2291 C2297 1.429 . S
C2292 C2284 1.574 . S
C2292 H2287 0.949 . S
C2292 C2298 1.368 . S
C2293 C2277 1.349 . S
C2293 H2285 0.950 . S
C2293 C2291 1.327 . S
C2294 C2282 1.349 . S
C2294 H2288 0.950 . S
C2294 C2295 1.327 . S
C2295 H2289 0.950 . S
C2295 C2294 1.327 . S
C2295 C2299 1.429 . S
C2296 C2279 1.574 . S
C2296 H2290 0.949 . S
C2296 C2300 1.368 . S
C2297 C2278 1.429 . S
C2297 C2291 1.429 . S
C2297 C2298 1.523 . S
C2298 C2279 1.368 . S
C2298 C2292 1.368 . S
C2298 C2297 1.523 . S
C2299 C2283 1.429 . S
C2299 C2295 1.429 . S
C2299 C2300 1.523 . S
C2300 C2284 1.368 . S
C2300 C2296 1.368 . S
C2300 C2299 1.523 . S
H2301 C2276 0.950 . S
H2302 C2278 0.950 . S
H2303 C2279 0.949 . S
H2304 C2281 0.950 . S
H2305 C2283 0.950 . S
C2306 C2307 1.349 . S
C2306 C2308 1.327 . S
C2306 H2331 0.950 . S
C2307 C2306 1.349 . S
C2307 C2323 1.349 . S
C2308 C2306 1.327 . S
C2308 C2327 1.429 . S
C2308 H2332 0.950 . S
C2309 C2326 1.574 . S
C2309 C2328 1.368 . S
C2309 H2333 0.949 . S
H2310 C2314 0.949 . S
C2311 C2312 1.349 . S
C2311 C2313 1.327 . S
C2311 H2334 0.950 . S
C2312 C2311 1.349 . S
C2312 C2324 1.349 . S
C2313 C2311 1.327 . S
C2313 C2329 1.429 . S
C2313 H2335 0.950 . S
C2314 H2310 0.949 . S
C2314 C2322 1.574 . S
C2314 C2330 1.368 . S
H2315 C2323 0.950 . S
H2316 C2321 0.950 . S
H2317 C2322 0.949 . S
H2318 C2324 0.950 . S
H2319 C2325 0.950 . S
H2320 C2326 0.949 . S
C2321 H2316 0.950 . S
C2321 C2323 1.327 . S
C2321 C2327 1.429 . S
C2322 C2314 1.574 . S
C2322 H2317 0.949 . S
C2322 C2328 1.368 . S
C2323 C2307 1.349 . S
C2323 H2315 0.950 . S
C2323 C2321 1.327 . S
C2324 C2312 1.349 . S
C2324 H2318 0.950 . S
C2324 C2325 1.327 . S
C2325 H2319 0.950 . S
C2325 C2324 1.327 . S
C2325 C2329 1.429 . S
C2326 C2309 1.574 . S
C2326 H2320 0.949 . S
C2326 C2330 1.368 . S
C2327 C2308 1.429 . S
C2327 C2321 1.429 . S
C2327 C2328 1.523 . S
C2328 C2309 1.368 . S
C2328 C2322 1.368 . S
C2328 C2327 1.523 . S
C2329 C2313 1.429 . S
C2329 C2325 1.429 . S
C2329 C2330 1.523 . S
C2330 C2314 1.368 . S
C2330 C2326 1.368 . S
C2330 C2329 1.523 . S
H2331 C2306 0.950 . S
H2332 C2308 0.950 . S
H2333 C2309 0.949 . S
H2334 C2311 0.950 . S
H2335 C2313 0.950 . S
C417 C361 1.437 . S
C422 C10 1.482 . S
C447 C23 1.482 . S
C452 C105 1.488 . S
C477 C335 1.437 . S
C482 C36 1.482 . S
C507 C49 1.482 . S
C512 C131 1.488 . S
C537 C62 1.482 . S
C542 C387 1.437 . S
C567 C75 1.482 . S
C572 C183 1.488 . S
C597 C88 1.482 . S
C602 C413 1.437 . S
C627 C101 1.482 . S
C632 C157 1.488 . S
C657 C248 1.437 . S
C662 C114 1.505 . S
C687 C1 1.437 . S
C692 C118 1.482 . S
C717 C222 1.437 . S
C722 C140 1.505 . S
C747 C144 1.482 . S
C752 C27 1.437 . S
C777 C274 1.437 . S
C782 C166 1.505 . S
C807 C79 1.437 . S
C812 C170 1.482 . S
C837 C192 1.505 . S
C842 C300 1.437 . S
C867 C53 1.437 . S
C872 C196 1.482 . S
C897 C218 1.482 . S
C902 C153 1.437 . S
C927 C231 1.482 . S
C932 C313 1.488 . S
C957 C127 1.437 . S
C962 C244 1.482 . S
C987 C339 1.488 . S
C992 C257 1.482 . S
C1017 C179 1.437 . S
C1022 C270 1.482 . S
C1047 C391 1.488 . S
C1052 C283 1.482 . S
C1077 C205 1.437 . S
C1082 C296 1.482 . S
C1107 C309 1.482 . S
C1112 C365 1.488 . S
C1137 C40 1.437 . S
C1142 C322 1.505 . S
C1167 C326 1.482 . S
C1172 C209 1.437 . S
C1197 C348 1.505 . S
C1202 C14 1.437 . S
C1227 C352 1.482 . S
C1232 C235 1.437 . S
C1257 C374 1.505 . S
C1262 C66 1.437 . S
C1287 C378 1.482 . S
C1292 C287 1.437 . S
C1317 C400 1.505 . S
C1322 C92 1.437 . S
C1347 C404 1.482 . S
C1352 C261 1.437 . S
C1377 C315 1.719 . S
C1382 C3 1.631 . S
C1407 C16 1.631 . S
C1412 C122 1.631 . S
C1437 C341 1.719 . S
C1442 C29 1.631 . S
C1467 C42 1.631 . S
C1472 C148 1.631 . S
C1497 C367 1.719 . S
C1502 C55 1.631 . S
C1527 C68 1.631 . S
C1532 C174 1.631 . S
C1557 C393 1.719 . S
C1562 C81 1.631 . S
C1587 C94 1.631 . S
C1592 C200 1.631 . S
C1617 C107 1.719 . S
C1622 C211 1.631 . S
C1647 C133 1.719 . S
C1652 C237 1.631 . S
C1677 C159 1.719 . S
C1682 C263 1.631 . S
C1707 C185 1.719 . S
C1712 C289 1.631 . S
C1737 C224 1.631 . S
C1742 C330 1.631 . S
C1767 C356 1.631 . S
C1772 C250 1.631 . S
C1797 C382 1.631 . S
C1802 C276 1.631 . S
C1827 C302 1.631 . S
C1832 C408 1.631 . S
C1857 C5 2.092 . S
C1862 C57 2.092 . S
C1887 C18 2.092 . S
C1892 C70 2.092 . S
C1917 C83 2.092 . S
C1922 C31 2.092 . S
C1947 C44 2.092 . S
C1952 C96 2.092 . S
C1977 C161 2.129 . S
C1982 C109 2.129 . S
C2007 C172 2.092 . S
C2012 C120 2.092 . S
C2037 C135 2.129 . S
C2042 C187 2.129 . S
C2067 C146 2.092 . S
C2072 C198 2.092 . S
C2097 C265 2.092 . S
C2102 C213 2.092 . S
C2127 C278 2.092 . S
C2132 C226 2.092 . S
C2157 C239 2.092 . S
C2162 C291 2.092 . S
C2187 C304 2.092 . S
C2192 C252 2.092 . S
C2217 C369 2.129 . S
C2222 C317 2.129 . S
C2247 C328 2.092 . S
C2252 C380 2.092 . S
C2277 C395 2.129 . S
C2282 C343 2.129 . S
C2307 C354 2.092 . S
C2312 C406 2.092 . S
