# Generated by pormake.
# Topology ukg, (4)-cn, num edge types: 1
# Building blocks:
#     Node 0, Type 0, BuildingBlock: GALJAG_clean_sbu_0, # of connection points: 4
#     Node 1, Type 0, BuildingBlock: GALJAG_clean_sbu_0, # of connection points: 4
#     Node 2, Type 0, BuildingBlock: GALJAG_clean_sbu_0, # of connection points: 4
#     Node 3, Type 0, BuildingBlock: GALJAG_clean_sbu_0, # of connection points: 4
#     Node 4, Type 0, BuildingBlock: GALJAG_clean_sbu_0, # of connection points: 4
#     Node 5, Type 0, BuildingBlock: GALJAG_clean_sbu_0, # of connection points: 4
#     Node 6, Type 0, BuildingBlock: GALJAG_clean_sbu_0, # of connection points: 4
#     Node 7, Type 0, BuildingBlock: GALJAG_clean_sbu_0, # of connection points: 4
#     Edge 8, Type (0, 0), BuildingBlock: MIFKUJ_clean_linker_0, # of connection points: 2
#     Edge 9, Type (0, 0), BuildingBlock: MIFKUJ_clean_linker_0, # of connection points: 2
#     Edge 10, Type (0, 0), BuildingBlock: MIFKUJ_clean_linker_0, # of connection points: 2
#     Edge 11, Type (0, 0), BuildingBlock: MIFKUJ_clean_linker_0, # of connection points: 2
#     Edge 12, Type (0, 0), BuildingBlock: MIFKUJ_clean_linker_0, # of connection points: 2
#     Edge 13, Type (0, 0), BuildingBlock: MIFKUJ_clean_linker_0, # of connection points: 2
#     Edge 14, Type (0, 0), BuildingBlock: MIFKUJ_clean_linker_0, # of connection points: 2
#     Edge 15, Type (0, 0), BuildingBlock: MIFKUJ_clean_linker_0, # of connection points: 2
#     Edge 16, Type (0, 0), BuildingBlock: MIFKUJ_clean_linker_0, # of connection points: 2
#     Edge 17, Type (0, 0), BuildingBlock: MIFKUJ_clean_linker_0, # of connection points: 2
#     Edge 18, Type (0, 0), BuildingBlock: MIFKUJ_clean_linker_0, # of connection points: 2
#     Edge 19, Type (0, 0), BuildingBlock: MIFKUJ_clean_linker_0, # of connection points: 2
#     Edge 20, Type (0, 0), BuildingBlock: MIFKUJ_clean_linker_0, # of connection points: 2
#     Edge 21, Type (0, 0), BuildingBlock: MIFKUJ_clean_linker_0, # of connection points: 2
#     Edge 22, Type (0, 0), BuildingBlock: MIFKUJ_clean_linker_0, # of connection points: 2
#     Edge 23, Type (0, 0), BuildingBlock: MIFKUJ_clean_linker_0, # of connection points: 2
# Relax obj value: 0.111
# Max RMSD: 0.188
# Mean RMSD: 0.187
data_MOF--net-ukg--node1-GALJAG_clean_sbu_0--edge1-MIFKUJ_clean_linker_0
_symmetry_space_group_name_H-M    P1
_symmetry_Int_Tables_number       1
_symmetry_cell_setting            triclinic
loop_
_symmetry_equiv_pos_as_xyz
'x, y, z'
_cell_length_a     38.650257
_cell_length_b     38.672756
_cell_length_c     50.589084
_cell_angle_alpha  90.102011
_cell_angle_beta   89.995224
_cell_angle_gamma 89.940718
loop_
_atom_site_label
_atom_site_type_symbol
_atom_site_fract_x
_atom_site_fract_y
_atom_site_fract_z
_atom_type_partial_charge
In0 In 0.02111 0.67155 0.14203 0.0
O1 O 0.00081 0.65506 0.10136 0.0
O2 O 0.03301 0.62016 0.12265 0.0
C3 C 0.99329 0.73385 0.15203 0.0
C4 C 0.08797 0.69034 0.14012 0.0
C5 C 0.98495 0.6388 0.17973 0.0
O6 O 0.98978 0.71961 0.12962 0.0
O7 O 0.01141 0.71718 0.16835 0.0
O8 O 0.01768 0.63885 0.1796 0.0
O9 O 0.97094 0.65389 0.16039 0.0
C10 C 0.0157 0.62592 0.102 0.0
O11 O 0.07563 0.67312 0.1591 0.0
O12 O 0.06668 0.69758 0.12204 0.0
In13 In 0.31552 0.49924 0.63892 0.0
O14 O 0.31487 0.5523 0.65832 0.0
O15 O 0.29628 0.5479 0.61875 0.0
C16 C 0.33989 0.47036 0.68368 0.0
C17 C 0.36432 0.49791 0.60086 0.0
C18 C 0.25466 0.46473 0.63732 0.0
O19 O 0.32313 0.49837 0.68373 0.0
O20 O 0.34539 0.45778 0.66105 0.0
O21 O 0.28309 0.45036 0.6319 0.0
O22 O 0.25686 0.49663 0.64185 0.0
C23 C 0.302 0.56725 0.6384 0.0
O24 O 0.33377 0.48755 0.59681 0.0
O25 O 0.37018 0.50826 0.62408 0.0
In26 In 0.50988 0.81349 0.1303 0.0
O27 O 0.51563 0.83334 0.08793 0.0
O28 O 0.50914 0.87028 0.11869 0.0
C29 C 0.53921 0.75005 0.12623 0.0
C30 C 0.44127 0.80287 0.13224 0.0
C31 C 0.54282 0.83562 0.17408 0.0
O32 O 0.55437 0.77701 0.11841 0.0
O33 O 0.50896 0.75507 0.13456 0.0
O34 O 0.51058 0.83044 0.17363 0.0
O35 O 0.55806 0.83038 0.15239 0.0
C36 C 0.51279 0.86481 0.09428 0.0
O37 O 0.45909 0.80876 0.15269 0.0
O38 O 0.45805 0.80267 0.11081 0.0
In39 In 0.18007 0.99004 0.6444 0.0
O40 O 0.18068 0.93609 0.66239 0.0
O41 O 0.1986 0.9419 0.62284 0.0
C42 C 0.15072 0.0161 0.68869 0.0
C43 C 0.13349 0.9939 0.60495 0.0
C44 C 0.24106 0.02444 0.64338 0.0
O45 O 0.17502 0.99438 0.68947 0.0
O46 O 0.14117 0.02435 0.66576 0.0
O47 O 0.21293 0.03888 0.63716 0.0
O48 O 0.23831 0.9929 0.64896 0.0
C49 C 0.1932 0.92182 0.64204 0.0
O50 O 0.16333 0.0071 0.60302 0.0
O51 O 0.12747 0.97898 0.62663 0.0
In52 In 0.97311 0.32128 0.8594 0.0
O53 O 0.91762 0.32842 0.84516 0.0
O54 O 0.92623 0.2984 0.87985 0.0
C55 C 0.01 0.34284 0.81748 0.0
C56 C 0.9846 0.36866 0.89764 0.0
C57 C 0.99367 0.25538 0.85392 0.0
O58 O 0.97797 0.34891 0.8194 0.0
O59 O 0.02322 0.3275 0.83696 0.0
O60 O 0.00575 0.27466 0.87197 0.0
O61 O 0.97064 0.26914 0.83969 0.0
C62 C 0.9047 0.31037 0.86347 0.0
O63 O 0.99405 0.33754 0.90003 0.0
O64 O 0.96991 0.37562 0.87607 0.0
In65 In 0.67872 0.4999 0.36568 0.0
O66 O 0.67394 0.44452 0.35082 0.0
O67 O 0.69614 0.45305 0.38889 0.0
C68 C 0.6619 0.53154 0.32001 0.0
C69 C 0.6279 0.51181 0.40122 0.0
C70 C 0.74476 0.52193 0.36579 0.0
O71 O 0.65957 0.49915 0.32273 0.0
O72 O 0.67151 0.5476 0.34042 0.0
O73 O 0.72059 0.53974 0.37576 0.0
O74 O 0.73566 0.49289 0.3569 0.0
C75 C 0.6877 0.43153 0.37121 0.0
O76 O 0.65936 0.51731 0.40644 0.0
O77 O 0.62225 0.50108 0.37809 0.0
In78 In 0.48274 0.18213 0.86304 0.0
O79 O 0.47032 0.12868 0.87899 0.0
O80 O 0.48383 0.16746 0.9069 0.0
C81 C 0.43029 0.2276 0.86935 0.0
C82 C 0.54941 0.20318 0.8628 0.0
C83 C 0.47488 0.16266 0.81208 0.0
O84 O 0.42643 0.19864 0.85828 0.0
O85 O 0.45995 0.23236 0.87908 0.0
O86 O 0.47989 0.19358 0.8189 0.0
O87 O 0.47495 0.14131 0.8309 0.0
C88 C 0.47577 0.13626 0.90287 0.0
O89 O 0.54099 0.17199 0.86599 0.0
O90 O 0.52434 0.22357 0.85973 0.0
In91 In 0.83596 0.01794 0.35629 0.0
O92 O 0.84017 0.07561 0.34765 0.0
O93 O 0.8024 0.05888 0.37554 0.0
C94 C 0.86725 0.98975 0.3139 0.0
C95 C 0.88102 0.01181 0.39666 0.0
C96 C 0.77574 0.98515 0.34743 0.0
O97 O 0.85633 0.02055 0.31375 0.0
O98 O 0.86349 0.97413 0.33557 0.0
O99 O 0.79654 0.975 0.36512 0.0
O100 O 0.78511 0.01189 0.33515 0.0
C101 C 0.81596 0.08379 0.36326 0.0
O102 O 0.85066 -0.00027 0.39789 0.0
O103 O 0.8883 0.02675 0.37523 0.0
H104 H 0.02306 0.36364 0.94295 0.0
H105 H 0.03002 0.40767 0.97744 0.0
H106 H 0.9628 0.47647 0.93415 0.0
H107 H 0.95679 0.43317 0.89934 0.0
H108 H 0.01513 0.51128 0.95229 0.0
H109 H 0.93523 0.42934 0.98968 0.0
H110 H 0.91536 0.3717 0.00388 0.0
H111 H 0.00121 0.36413 0.05744 0.0
H112 H 0.02184 0.42155 0.0433 0.0
H113 H 0.97733 0.6298 0.05655 0.0
H114 H 0.97305 0.58619 0.02148 0.0
H115 H 0.04456 0.52075 0.06374 0.0
H116 H 0.04843 0.56378 0.09895 0.0
H117 H 0.99091 0.48426 0.04629 0.0
H118 H 0.0699 0.56722 0.00919 0.0
H119 H 0.08883 0.62522 0.99511 0.0
H120 H 0.00335 0.63126 0.9411 0.0
H121 H 0.98364 0.57346 0.95511 0.0
C122 C 0.00986 0.3882 0.94083 0.0
C123 C 0.98933 0.39496 0.91852 0.0
C124 C 0.0137 0.41327 0.96058 0.0
C125 C 0.99652 0.44525 0.95859 0.0
C126 C 0.97632 0.45205 0.93615 0.0
C127 C 0.97283 0.42722 0.91629 0.0
C128 C -0.00053 0.47174 0.97977 0.0
C129 C 0.00942 0.50544 0.9728 0.0
C130 C 0.99271 0.46404 0.00664 0.0
C131 C 0.98025 0.42958 0.01524 0.0
C132 C 0.95 0.41527 0.00435 0.0
C133 C 0.93858 0.38266 0.01241 0.0
C134 C 0.95706 0.36422 0.0315 0.0
C135 C 0.98694 0.37841 0.04263 0.0
C136 C 0.99849 0.411 0.03461 0.0
C137 C 0.99217 0.60614 0.05829 0.0
C138 C 0.01323 0.60021 0.08046 0.0
C139 C 0.98981 0.58131 0.03822 0.0
C140 C 0.00876 0.55034 0.03988 0.0
C141 C 0.02971 0.54442 0.06205 0.0
C142 C 0.03196 0.5691 0.08212 0.0
C143 C 0.00645 0.52374 0.01877 0.0
C144 C 0.99663 0.49005 0.02577 0.0
C145 C 0.01318 0.53148 0.99193 0.0
C146 C 0.02512 0.56615 0.98338 0.0
C147 C 0.055 0.58102 0.99445 0.0
C148 C 0.06589 0.61384 0.98645 0.0
C149 C 0.04726 0.63195 0.96727 0.0
C150 C 0.01773 0.61722 0.95598 0.0
C151 C 0.00671 0.58442 0.96392 0.0
H152 H 0.05573 0.65735 0.96111 0.0
H153 H 0.94818 0.33898 0.03771 0.0
H154 H 0.43151 0.51795 0.60589 0.0
H155 H 0.47512 0.52245 0.57114 0.0
H156 H 0.40091 0.48626 0.51372 0.0
H157 H 0.35718 0.48115 0.54859 0.0
H158 H 0.46241 0.45554 0.50689 0.0
H159 H 0.42197 0.5716 0.51762 0.0
H160 H 0.40706 0.62467 0.54222 0.0
H161 H 0.51272 0.63521 0.56713 0.0
H162 H 0.52819 0.5819 0.54299 0.0
H163 H 0.5591 0.50026 0.39389 0.0
H164 H 0.51345 0.50068 0.42728 0.0
H165 H 0.58766 0.53084 0.48665 0.0
H166 H 0.63359 0.53076 0.4532 0.0
H167 H 0.52527 0.56561 0.49172 0.0
H168 H 0.56472 0.44816 0.48161 0.0
H169 H 0.57897 0.39528 0.45655 0.0
H170 H 0.47379 0.388 0.42981 0.0
H171 H 0.45902 0.44115 0.45442 0.0
C172 C 0.42448 0.51085 0.58588 0.0
C173 C 0.39091 0.49929 0.57992 0.0
C174 C 0.44938 0.51363 0.56601 0.0
C175 C 0.44111 0.50523 0.53977 0.0
C176 C 0.40778 0.49302 0.53384 0.0
C177 C 0.38285 0.49013 0.55375 0.0
C178 C 0.4674 0.50888 0.5186 0.0
C179 C 0.47576 0.47976 0.50331 0.0
C180 C 0.48532 0.54032 0.51429 0.0
C181 C 0.47617 0.57256 0.52868 0.0
C182 C 0.44198 0.58509 0.52851 0.0
C183 C 0.43344 0.61524 0.54234 0.0
C184 C 0.45891 0.63326 0.55628 0.0
C185 C 0.49301 0.62121 0.55635 0.0
C186 C 0.50169 0.59104 0.54257 0.0
C187 C 0.56568 0.50732 0.414 0.0
C188 C 0.59997 0.51523 0.42099 0.0
C189 C 0.53958 0.50744 0.43306 0.0
C190 C 0.54729 0.51529 0.45949 0.0
C191 C 0.58122 0.52461 0.46636 0.0
C192 C 0.60741 0.52449 0.44726 0.0
C193 C 0.52022 0.51227 0.48011 0.0
C194 C 0.51178 0.54148 0.49529 0.0
C195 C 0.50209 0.48096 0.48427 0.0
C196 C 0.51085 0.44882 0.46965 0.0
C197 C 0.54469 0.43542 0.47023 0.0
C198 C 0.55285 0.40538 0.45613 0.0
C199 C 0.52732 0.38834 0.44154 0.0
C200 C 0.49355 0.40125 0.44109 0.0
C201 C 0.48526 0.43132 0.45512 0.0
H202 H 0.53369 0.36509 0.43064 0.0
H203 H 0.45223 0.65659 0.56699 0.0
H204 H 0.51959 0.93388 0.10346 0.0
H205 H 0.51384 0.98095 0.07159 0.0
H206 H 0.49582 0.90666 0.00932 0.0
H207 H 0.503 0.85943 0.041 0.0
H208 H 0.53508 0.95561 0.99151 0.0
H209 H 0.4286 0.95354 0.04047 0.0
H210 H 0.39225 0.95433 0.08055 0.0
H211 H 0.4318 0.05458 0.10105 0.0
H212 H 0.46873 0.05418 0.06126 0.0
H213 H 0.46065 0.06782 0.8979 0.0
H214 H 0.46636 0.02285 0.93146 0.0
H215 H 0.49712 0.09954 0.98881 0.0
H216 H 0.4912 0.14488 0.95527 0.0
H217 H 0.45203 0.05075 0.0095 0.0
H218 H 0.55768 0.05224 0.9591 0.0
H219 H 0.59228 0.05086 0.91815 0.0
H220 H 0.55182 0.95038 0.89946 0.0
H221 H 0.51658 0.95138 0.94013 0.0
C222 C 0.51466 0.92761 0.08293 0.0
C223 C 0.51157 0.89303 0.0747 0.0
C224 C 0.51113 0.95453 0.06476 0.0
C225 C 0.5036 0.94743 0.03813 0.0
C226 C 0.50147 0.91282 0.02977 0.0
C227 C 0.50556 0.88585 0.04787 0.0
C228 C 0.49768 0.976 0.01903 0.0
C229 C 0.51658 0.97613 0.99534 0.0
C230 C 0.47405 0.00327 0.02419 0.0
C231 C 0.45166 0.00368 0.04802 0.0
C232 C 0.4297 0.97565 0.05362 0.0
C233 C 0.40898 0.97605 0.07627 0.0
C234 C 0.40978 0.00445 0.09336 0.0
C235 C 0.43124 0.03257 0.0878 0.0
C236 C 0.45205 0.03229 0.06519 0.0
C237 C 0.46827 0.0752 0.91772 0.0
C238 C 0.47571 0.10984 0.92393 0.0
C239 C 0.47165 0.04945 0.93684 0.0
C240 C 0.48271 0.05781 0.96248 0.0
C241 C 0.4887 0.09256 0.96908 0.0
C242 C 0.48533 0.1184 0.94992 0.0
C243 C 0.48922 0.03006 0.98204 0.0
C244 C 0.4705 0.03017 0.00578 0.0
C245 C 0.51277 0.00284 0.97684 0.0
C246 C 0.53427 0.00202 0.95254 0.0
C247 C 0.55599 0.02995 0.94617 0.0
C248 C 0.57574 0.02922 0.92302 0.0
C249 C 0.57419 0.00058 0.90619 0.0
C250 C 0.55297 0.97256 0.91251 0.0
C251 C 0.53313 0.97318 0.93561 0.0
H252 H 0.58949 8e-05 0.88827 0.0
H253 H 0.39373 0.0047 0.1109 0.0
H254 H 0.87148 0.98335 0.44568 0.0
H255 H 0.91394 0.97932 0.48157 0.0
H256 H 0.98989 0.02993 0.43259 0.0
H257 H 0.94784 0.03376 0.3967 0.0
H258 H 0.01714 0.97457 0.45758 0.0
H259 H 0.94855 0.07399 0.48088 0.0
H260 H 0.89455 0.10556 0.49062 0.0
H261 H 0.87402 0.03735 0.55563 0.0
H262 H 0.92769 0.00505 0.54604 0.0
H263 H 0.14076 0.02119 0.55537 0.0
H264 H 0.09716 0.02317 0.52022 0.0
H265 H 0.02393 0.97219 0.57133 0.0
H266 H 0.06719 0.97034 0.60652 0.0
H267 H 0.9946 0.02626 0.54576 0.0
H268 H 0.06344 0.92747 0.52317 0.0
H269 H 0.11728 0.8956 0.51357 0.0
H270 H 0.13712 0.96203 0.44737 0.0
H271 H 0.08361 0.99464 0.45682 0.0
C272 C 0.89724 0.99357 0.4426 0.0
C273 C 0.90632 0.00895 0.41843 0.0
C274 C 0.92142 0.99137 0.46312 0.0
C275 C 0.95499 0.00459 0.4598 0.0
C276 C 0.96415 0.01956 0.43556 0.0
C277 C 0.94004 0.02182 0.41511 0.0
C278 C 0.98072 0.00294 0.4815 0.0
C279 C 0.01238 0.98622 0.47677 0.0
C280 C 0.97416 0.01744 0.50672 0.0
C281 C 0.94194 0.03688 0.51256 0.0
C282 C 0.93237 0.06554 0.49712 0.0
C283 C 0.90186 0.0836 0.50263 0.0
C284 C 0.88082 0.0734 0.52368 0.0
C285 C 0.89031 0.04518 0.5393 0.0
C286 C 0.92079 0.027 0.53385 0.0
C287 C 0.11536 0.01044 0.55909 0.0
C288 C 0.1074 0.99553 0.58365 0.0
C289 C 0.09053 0.01147 0.53899 0.0
C290 C 0.0574 0.99755 0.54311 0.0
C291 C 0.04932 0.98307 0.56774 0.0
C292 C 0.07412 0.98194 0.58778 0.0
C293 C 0.0311 0.99808 0.52178 0.0
C294 C -0.00067 0.01456 0.52659 0.0
C295 C 0.03753 0.98331 0.49664 0.0
C296 C 0.06969 0.96372 0.49087 0.0
C297 C 0.07943 0.93547 0.5067 0.0
C298 C 0.10986 0.91724 0.50126 0.0
C299 C 0.13066 0.92684 0.47991 0.0
C300 C 0.12101 0.95465 0.46392 0.0
C301 C 0.09062 0.97301 0.4693 0.0
H302 H 0.1542 0.91268 0.47573 0.0
H303 H 0.85721 0.08742 0.52792 0.0
H304 H 0.12155 0.72111 0.09911 0.0
H305 H 0.18135 0.74172 0.09812 0.0
H306 H 0.19591 0.70722 0.17839 0.0
H307 H 0.13605 0.68637 0.17952 0.0
H308 H 0.22044 0.775 0.16853 0.0
H309 H 0.22885 0.66041 0.13104 0.0
H310 H 0.21305 0.61389 0.09992 0.0
H311 H 0.24231 0.67803 0.03444 0.0
H312 H 0.25782 0.72513 0.06518 0.0
H313 H 0.40319 0.7862 0.17568 0.0
H314 H 0.34241 0.76903 0.17705 0.0
H315 H 0.33435 0.78541 0.09287 0.0
H316 H 0.39556 0.80123 0.09128 0.0
H317 H 0.30549 0.72756 0.10453 0.0
H318 H 0.29757 0.84189 0.13993 0.0
H319 H 0.31184 0.89055 0.16954 0.0
H320 H 0.28012 0.83076 0.23673 0.0
H321 H 0.26609 0.78155 0.20756 0.0
C322 C 0.13752 0.71782 0.11652 0.0
C323 C 0.12425 0.70203 0.13937 0.0
C324 C 0.17164 0.72956 0.11591 0.0
C325 C 0.19298 0.72581 0.13814 0.0
C326 C 0.17975 0.71032 0.16105 0.0
C327 C 0.14568 0.69829 0.16162 0.0
C328 C 0.22919 0.73801 0.1374 0.0
C329 C 0.23926 0.7644 0.1548 0.0
C330 C 0.25322 0.72483 0.11888 0.0
C331 C 0.24419 0.69641 0.1004 0.0
C332 C 0.23166 0.66469 0.11 0.0
C333 C 0.2228 0.6382 0.09243 0.0
C334 C 0.22659 0.64303 0.06521 0.0
C335 C 0.23935 0.67433 0.05552 0.0
C336 C 0.24821 0.70092 0.07301 0.0
C337 C 0.38834 0.78642 0.15752 0.0
C338 C 0.40401 0.79503 0.13337 0.0
C339 C 0.35356 0.77677 0.15833 0.0
C340 C 0.33363 0.77633 0.13511 0.0
C341 C 0.34919 0.78552 0.11104 0.0
C342 C 0.38411 0.79464 0.11016 0.0
C343 C 0.29704 0.76476 0.1357 0.0
C344 C 0.28681 0.73839 0.11826 0.0
C345 C 0.27275 0.77834 0.15395 0.0
C346 C 0.28108 0.80792 0.17157 0.0
C347 C 0.29388 0.83902 0.16104 0.0
C348 C 0.30188 0.86672 0.17774 0.0
C349 C 0.29697 0.86372 0.20501 0.0
C350 C 0.28395 0.83303 0.21562 0.0
C351 C 0.27593 0.80524 0.199 0.0
H352 H 0.30318 0.88519 0.2179 0.0
H353 H 0.21971 0.62249 0.05164 0.0
H354 H 0.285 0.60714 0.59602 0.0
H355 H 0.26717 0.66793 0.59633 0.0
H356 H 0.27965 0.67126 0.68102 0.0
H357 H 0.29795 0.61056 0.68085 0.0
H358 H 0.21471 0.69754 0.66121 0.0
H359 H 0.33784 0.70867 0.64656 0.0
H360 H 0.39236 0.69584 0.62318 0.0
H361 H 0.34974 0.73657 0.55129 0.0
H362 H 0.29475 0.74916 0.57417 0.0
H363 H 0.19798 0.87702 0.68337 0.0
H364 H 0.21661 0.81666 0.68205 0.0
H365 H 0.22711 0.8227 0.59721 0.0
H366 H 0.20979 0.88352 0.5986 0.0
H367 H 0.28015 0.79073 0.61618 0.0
H368 H 0.15834 0.7796 0.62784 0.0
H369 H 0.10124 0.78998 0.64811 0.0
H370 H 0.13735 0.74711 0.72133 0.0
H371 H 0.19485 0.7369 0.7016 0.0
C372 C 0.28415 0.62091 0.61468 0.0
C373 C 0.29285 0.60423 0.63842 0.0
C374 C 0.27403 0.65556 0.61481 0.0
C375 C 0.2722 0.67392 0.63869 0.0
C376 C 0.28094 0.65739 0.66241 0.0
C377 C 0.29151 0.62285 0.66226 0.0
C378 C 0.2604 0.71023 0.63897 0.0
C379 C 0.22918 0.7181 0.65172 0.0
C380 C 0.27878 0.73655 0.62569 0.0
C381 C 0.31205 0.72955 0.61203 0.0
C382 C 0.34 0.71465 0.62572 0.0
C383 C 0.371 0.70746 0.61256 0.0
C384 C 0.37448 0.71528 0.58574 0.0
C385 C 0.347 0.73047 0.57206 0.0
C386 C 0.31592 0.73768 0.58512 0.0
C387 C 0.20404 0.86537 0.66443 0.0
C388 C 0.20236 0.88485 0.64108 0.0
C389 C 0.21456 0.83085 0.66367 0.0
C390 C 0.22284 0.81496 0.63947 0.0
C391 C 0.22089 0.83439 0.6161 0.0
C392 C 0.21085 0.86907 0.6169 0.0
C393 C 0.23436 0.77836 0.63865 0.0
C394 C 0.26554 0.77033 0.62573 0.0
C395 C 0.21557 0.75171 0.65135 0.0
C396 C 0.18101 0.7578 0.66331 0.0
C397 C 0.15419 0.77264 0.64833 0.0
C398 C 0.12174 0.77845 0.65971 0.0
C399 C 0.1157 0.76929 0.68601 0.0
C400 C 0.14209 0.75423 0.70097 0.0
C401 C 0.17461 0.74839 0.68969 0.0
H402 H 0.09055 0.77381 0.69478 0.0
H403 H 0.39848 0.70964 0.57558 0.0
H404 H 0.60658 0.16738 0.87869 0.0
H405 H 0.66658 0.1879 0.87949 0.0
H406 H 0.63388 0.28591 0.84747 0.0
H407 H 0.57381 0.26582 0.84702 0.0
H408 H 0.6934 0.2544 0.82203 0.0
H409 H 0.65065 0.28512 0.90874 0.0
H410 H 0.62274 0.27304 0.95157 0.0
H411 H 0.70145 0.19825 0.96956 0.0
H412 H 0.72956 0.20953 0.92664 0.0
H413 H 0.85133 0.3436 0.83892 0.0
H414 H 0.79003 0.32785 0.83976 0.0
H415 H 0.81358 0.24142 0.89063 0.0
H416 H 0.87446 0.25817 0.89091 0.0
H417 H 0.75719 0.26836 0.90649 0.0
H418 H 0.79928 0.23348 0.8214 0.0
H419 H 0.82765 0.24074 0.77809 0.0
H420 H 0.75176 0.31662 0.75616 0.0
H421 H 0.72319 0.31013 0.79949 0.0
C422 C 0.61222 0.19327 0.8718 0.0
C423 C 0.58562 0.21506 0.86283 0.0
C424 C 0.6464 0.20496 0.87233 0.0
C425 C 0.65447 0.23843 0.86364 0.0
C426 C 0.62805 0.26001 0.85425 0.0
C427 C 0.59382 0.24853 0.85408 0.0
C428 C 0.69053 0.25097 0.86441 0.0
C429 C 0.70732 0.25795 0.84047 0.0
C430 C 0.70874 0.25453 0.88847 0.0
C431 C 0.69201 0.24794 0.91437 0.0
C432 C 0.66184 0.26589 0.92173 0.0
C433 C 0.64602 0.25923 0.94605 0.0
C434 C 0.66026 0.23483 0.96325 0.0
C435 C 0.69042 0.21712 0.9562 0.0
C436 C 0.70632 0.22366 0.9319 0.0
C437 C 0.84329 0.3214 0.85041 0.0
C438 C 0.86756 0.30202 0.86477 0.0
C439 C 0.80833 0.31226 0.85074 0.0
C440 C 0.79722 0.28299 0.86482 0.0
C441 C 0.82145 0.26407 0.8796 0.0
C442 C 0.85625 0.27363 0.87971 0.0
C443 C 0.7605 0.27174 0.864 0.0
C444 C 0.74346 0.26496 0.88797 0.0
C445 C 0.74226 0.26768 0.83988 0.0
C446 C 0.75932 0.27158 0.81379 0.0
C447 C 0.78879 0.25189 0.80741 0.0
C448 C 0.80488 0.25584 0.78285 0.0
C449 C 0.79157 0.2792 0.76442 0.0
C450 C 0.76208 0.29858 0.77048 0.0
C451 C 0.74591 0.29476 0.79502 0.0
H452 H 0.80406 0.28222 0.74541 0.0
H453 H 0.64797 0.22971 0.98206 0.0
H454 H 0.72675 0.40043 0.40908 0.0
H455 H 0.74766 0.34087 0.40947 0.0
H456 H 0.68915 0.31931 0.33866 0.0
H457 H 0.66905 0.37933 0.33769 0.0
H458 H 0.72129 0.27942 0.41299 0.0
H459 H 0.73423 0.26531 0.29914 0.0
H460 H 0.74382 0.30236 0.26015 0.0
H461 H 0.79488 0.3777 0.30885 0.0
H462 H 0.78605 0.34089 0.34802 0.0
H463 H 0.75346 0.10442 0.38208 0.0
H464 H 0.73099 0.16329 0.38499 0.0
H465 H 0.82771 0.20263 0.35473 0.0
H466 H 0.84957 0.14344 0.35046 0.0
H467 H 0.77912 0.23499 0.33221 0.0
H468 H 0.80287 0.20843 0.42245 0.0
H469 H 0.80079 0.1746 0.46369 0.0
H470 H 0.69034 0.18611 0.46646 0.0
H471 H 0.69171 0.21964 0.42503 0.0
C472 C 0.71806 0.38291 0.39374 0.0
C473 C 0.69656 0.39456 0.37319 0.0
C474 C 0.72997 0.34885 0.39402 0.0
C475 C 0.72046 0.3258 0.37385 0.0
C476 C 0.69741 0.33688 0.35412 0.0
C477 C 0.6858 0.37109 0.35365 0.0
C478 C 0.73595 0.29075 0.37286 0.0
C479 C 0.73388 0.26964 0.39533 0.0
C480 C 0.75327 0.27838 0.35006 0.0
C481 C 0.75912 0.30049 0.32654 0.0
C482 C 0.74761 0.28972 0.30149 0.0
C483 C 0.75291 0.31069 0.27937 0.0
C484 C 0.76984 0.34241 0.28204 0.0
C485 C 0.78165 0.35318 0.30682 0.0
C486 C 0.77648 0.33229 0.32899 0.0
C487 C 0.76997 0.12567 0.37619 0.0
C488 C 0.80328 0.1195 0.36614 0.0
C489 C 0.75718 0.15933 0.37799 0.0
C490 C 0.77784 0.18753 0.37052 0.0
C491 C 0.81126 0.18133 0.36062 0.0
C492 C 0.82379 0.14756 0.35827 0.0
C493 C 0.76421 0.22336 0.37229 0.0
C494 C 0.76655 0.24466 0.34991 0.0
C495 C 0.74829 0.23633 0.39552 0.0
C496 C 0.74738 0.2163 0.42051 0.0
C497 C 0.77812 0.20355 0.43176 0.0
C498 C 0.77707 0.18446 0.45518 0.0
C499 C 0.74545 0.17814 0.46765 0.0
C500 C 0.71481 0.19099 0.45676 0.0
C501 C 0.71571 0.21008 0.43332 0.0
H502 H 0.74469 0.16335 0.48579 0.0
H503 H 0.77387 0.35862 0.26489 0.0
H504 H 0.76202 0.58953 0.35916 0.0
H505 H 0.81231 0.61055 0.33457 0.0
H506 H 0.85469 0.50746 0.33289 0.0
H507 H 0.80407 0.48604 0.35685 0.0
H508 H 0.90288 0.58243 0.33583 0.0
H509 H 0.82059 0.50504 0.28497 0.0
H510 H 0.76013 0.48837 0.2756 0.0
H511 H 0.73482 0.59425 0.2589 0.0
H512 H 0.79503 0.61148 0.26843 0.0
H513 H 0.00483 0.59288 0.21809 0.0
H514 H 0.97011 0.57258 0.25559 0.0
H515 H 0.88492 0.63642 0.22962 0.0
H516 H 0.91867 0.65504 0.19165 0.0
H517 H 0.86021 0.5796 0.24326 0.0
H518 H 0.9412 0.65712 0.28392 0.0
H519 H 0.99873 0.68019 0.29544 0.0
H520 H 0.02456 0.58474 0.33397 0.0
H521 H 0.96731 0.56093 0.32237 0.0
C522 C 0.7828 0.57165 0.35462 0.0
C523 C 0.77911 0.53614 0.35961 0.0
C524 C 0.81149 0.5837 0.34061 0.0
C525 C 0.83699 0.56046 0.33195 0.0
C526 C 0.83532 0.52573 0.33963 0.0
C527 C 0.80636 0.51355 0.35321 0.0
C528 C 0.86019 0.57049 0.31018 0.0
C529 C 0.89395 0.58154 0.31551 0.0
C530 C 0.84797 0.57002 0.28391 0.0
C531 C 0.81211 0.55952 0.27751 0.0
C532 C 0.80204 0.52472 0.27938 0.0
C533 C 0.76785 0.51518 0.27405 0.0
C534 C 0.74363 0.54023 0.26668 0.0
C535 C 0.75356 0.57486 0.2646 0.0
C536 C 0.78771 0.58452 0.26993 0.0
C537 C 0.97859 0.60228 0.22039 0.0
C538 C 0.96432 0.62532 0.20194 0.0
C539 C 0.95888 0.59096 0.24193 0.0
C540 C 0.92499 0.60333 0.24571 0.0
C541 C 0.91089 0.62633 0.22716 0.0
C542 C 0.93022 0.63697 0.20541 0.0
C543 C 0.90359 0.59198 0.26851 0.0
C544 C 0.86976 0.5805 0.26342 0.0
C545 C 0.91573 0.59286 0.295 0.0
C546 C 0.95013 0.60712 0.30203 0.0
C547 C 0.95925 0.64096 0.29468 0.0
C548 C 0.99179 0.65419 0.30125 0.0
C549 C 0.01532 0.63391 0.31536 0.0
C550 C 0.00632 0.60039 0.323 0.0
C551 C 0.97383 0.58703 0.31645 0.0
H552 H 0.0405 0.6442 0.32043 0.0
H553 H 0.71725 0.53276 0.26241 0.0
H554 H 0.3761 0.4103 0.68769 0.0
H555 H 0.38581 0.3758 0.72733 0.0
H556 H 0.33462 0.45354 0.77454 0.0
H557 H 0.32438 0.48814 0.73472 0.0
H558 H 0.41954 0.38578 0.77243 0.0
H559 H 0.28758 0.41012 0.82262 0.0
H560 H 0.22897 0.42918 0.8097 0.0
H561 H 0.24391 0.38653 0.73211 0.0
H562 H 0.30217 0.36664 0.74472 0.0
H563 H 0.43627 0.29423 0.88656 0.0
H564 H 0.41116 0.34438 0.86444 0.0
H565 H 0.34622 0.27719 0.81798 0.0
H566 H 0.37095 0.22687 0.84008 0.0
H567 H 0.31801 0.34457 0.82365 0.0
H568 H 0.42333 0.28666 0.79583 0.0
H569 H 0.48142 0.26235 0.8038 0.0
H570 H 0.51797 0.36215 0.82839 0.0
H571 H 0.45988 0.38698 0.82085 0.0
C572 C 0.36726 0.42028 0.70654 0.0
C573 C 0.34935 0.45183 0.70811 0.0
C574 C 0.37289 0.40057 0.72919 0.0
C575 C 0.36062 0.41193 0.75383 0.0
C576 C 0.34393 0.44412 0.75566 0.0
C577 C 0.33828 0.46391 0.73294 0.0
C578 C 0.36425 0.38916 0.7772 0.0
C579 C 0.39737 0.37725 0.78384 0.0
C580 C 0.33522 0.37737 0.79175 0.0
C581 C 0.29943 0.38743 0.7845 0.0
C582 C 0.27823 0.40463 0.80287 0.0
C583 C 0.24509 0.41562 0.79558 0.0
C584 C 0.23287 0.40942 0.77001 0.0
C585 C 0.25346 0.39158 0.75184 0.0
C586 C 0.28653 0.38042 0.75905 0.0
C587 C 0.41546 0.29017 0.87256 0.0
C588 C 0.40626 0.25662 0.8645 0.0
C589 C 0.40111 0.3189 0.85994 0.0
C590 C 0.37758 0.31432 0.8391 0.0
C591 C 0.36454 0.28118 0.83389 0.0
C592 C 0.37882 0.25241 0.84653 0.0
C593 C 0.37332 0.34171 0.81895 0.0
C594 C 0.34018 0.3541 0.81274 0.0
C595 C 0.40216 0.35317 0.80409 0.0
C596 C 0.43726 0.33857 0.80806 0.0
C597 C 0.44373 0.30336 0.80307 0.0
C598 C 0.47662 0.28949 0.80752 0.0
C599 C 0.50333 0.31065 0.8167 0.0
C600 C 0.49723 0.34578 0.82134 0.0
C601 C 0.46434 0.35978 0.81697 0.0
H602 H 0.52878 0.29987 0.82012 0.0
H603 H 0.20741 0.41833 0.76431 0.0
H604 H 0.61103 0.85146 0.17828 0.0
H605 H 0.64289 0.86753 0.21794 0.0
H606 H 0.54967 0.85798 0.26434 0.0
H607 H 0.51726 0.84277 0.22429 0.0
H608 H 0.58164 0.91391 0.27792 0.0
H609 H 0.61636 0.79763 0.27238 0.0
H610 H 0.63626 0.74317 0.25201 0.0
H611 H 0.73115 0.792 0.2286 0.0
H612 H 0.71178 0.84678 0.24881 0.0
H613 H 0.75475 0.92056 0.3633 0.0
H614 H 0.70619 0.88695 0.34527 0.0
H615 H 0.67884 0.97293 0.29513 0.0
H616 H 0.72629 0.00646 0.31328 0.0
H617 H 0.69798 0.86542 0.29668 0.0
H618 H 0.59683 0.97695 0.28104 0.0
H619 H 0.57478 0.02732 0.30577 0.0
H620 H 0.60687 0.98087 0.3788 0.0
H621 H 0.62865 0.92995 0.35458 0.0
C622 C 0.59728 0.85276 0.19691 0.0
C623 C 0.56166 0.84591 0.1982 0.0
C624 C 0.61561 0.86155 0.21966 0.0
C625 C 0.59887 0.86321 0.24426 0.0
C626 C 0.56319 0.85659 0.24561 0.0
C627 C 0.54471 0.84803 0.22273 0.0
C628 C 0.61857 0.87421 0.268 0.0
C629 C 0.60687 0.90304 0.28231 0.0
C630 C 0.65082 0.85912 0.27453 0.0
C631 C 0.66264 0.82631 0.26218 0.0
C632 C 0.64142 0.79679 0.2628 0.0
C633 C 0.65259 0.76586 0.25127 0.0
C634 C 0.68488 0.76415 0.23891 0.0
C635 C 0.70615 0.79334 0.23819 0.0
C636 C 0.69517 0.82429 0.24981 0.0
C637 C 0.73779 0.93245 0.34889 0.0
C638 C 0.74427 0.96609 0.33968 0.0
C639 C 0.7102 0.91322 0.33854 0.0
C640 C 0.68859 0.92754 0.31907 0.0
C641 C 0.69455 0.96153 0.31056 0.0
C642 C 0.72193 0.98063 0.32084 0.0
C643 C 0.66195 0.90646 0.30541 0.0
C644 C 0.67234 0.87572 0.29293 0.0
C645 C 0.62801 0.91916 0.30121 0.0
C646 C 0.61449 0.9496 0.31594 0.0
C647 C 0.59895 0.97731 0.30239 0.0
C648 C 0.58656 0.00602 0.31632 0.0
C649 C 0.58946 0.00731 0.34384 0.0
C650 C 0.60471 0.97987 0.35748 0.0
C651 C 0.61712 0.9511 0.34365 0.0
H652 H 0.57987 0.02957 0.35458 0.0
H653 H 0.69342 0.74019 0.22994 0.0
H654 H 0.05107 0.22376 0.87488 0.0
H655 H 0.08034 0.17216 0.85748 0.0
H656 H -0.00073 0.15982 0.79954 0.0
H657 H 0.96971 0.21032 0.81719 0.0
H658 H 0.01984 0.099 0.81489 0.0
H659 H 0.07627 0.20492 0.78562 0.0
H660 H 0.10755 0.26001 0.79156 0.0
H661 H 0.18787 0.20731 0.83411 0.0
H662 H 0.15709 0.15186 0.82835 0.0
H663 H 0.0896 0.0504 0.6922 0.0
H664 H 0.06548 0.0798 0.73081 0.0
H665 H 0.15315 0.04768 0.77746 0.0
H666 H 0.17728 0.01746 0.73881 0.0
H667 H 0.13669 0.12146 0.77814 0.0
H668 H 0.08266 0.01227 0.79341 0.0
H669 H 0.05028 0.95983 0.78094 0.0
H670 H 0.96267 0.02196 0.75927 0.0
H671 H 0.99468 0.07484 0.77123 0.0
C672 C 0.03914 0.20946 0.85887 0.0
C673 C 0.00832 0.22123 0.8472 0.0
C674 C 0.05598 0.18016 0.84884 0.0
C675 C 0.04233 0.1625 0.82688 0.0
C676 C 0.01037 0.17299 0.81646 0.0
C677 C 0.99353 0.20201 0.82652 0.0
C678 C 0.06219 0.13511 0.81297 0.0
C679 C 0.04548 0.10382 0.80699 0.0
C680 C 0.09596 0.14106 0.80306 0.0
C681 C 0.11418 0.17439 0.8069 0.0
C682 C 0.10046 0.20516 0.79643 0.0
C683 C 0.11812 0.23642 0.79972 0.0
C684 C 0.14954 0.23721 0.81336 0.0
C685 C 0.16347 0.20669 0.82363 0.0
C686 C 0.14597 0.17533 0.82032 0.0
C687 C 0.10356 0.04924 0.71074 0.0
C688 C 0.1353 0.03171 0.71255 0.0
C689 C 0.08969 0.0659 0.73279 0.0
C690 C 0.10747 0.06566 0.75696 0.0
C691 C 0.13903 0.04793 0.75896 0.0
C692 C 0.15268 0.03069 0.73695 0.0
C693 C 0.09375 0.0861 0.77935 0.0
C694 C 0.11159 0.11609 0.78684 0.0
C695 C 0.0607 0.07935 0.7901 0.0
C696 C 0.04116 0.04756 0.78315 0.0
C697 C 0.05656 0.01479 0.78584 0.0
C698 C 0.03826 0.98497 0.77888 0.0
C699 C 0.00445 0.98756 0.76931 0.0
C700 C 0.98885 0.01999 0.76672 0.0
C701 C 0.00705 0.04989 0.77363 0.0
H702 H 0.99033 0.96445 0.76391 0.0
H703 H 0.16315 0.26144 0.81587 0.0
H704 H 0.06171 0.30431 0.7973 0.0
H705 H 0.09768 0.31679 0.75883 0.0
H706 H 0.04131 0.41189 0.74638 0.0
H707 H 0.00359 0.39795 0.78397 0.0
H708 H 0.05699 0.38601 0.70088 0.0
H709 H 0.12276 0.4062 0.78072 0.0
H710 H 0.14904 0.39109 0.82362 0.0
H711 H 0.20738 0.30988 0.7865 0.0
H712 H 0.18116 0.32428 0.74342 0.0
H713 H 0.19018 0.49055 0.64615 0.0
H714 H 0.14267 0.461 0.66838 0.0
H715 H 0.20039 0.36549 0.66631 0.0
H716 H 0.24817 0.39502 0.64407 0.0
H717 H 0.18376 0.38484 0.71586 0.0
H718 H 0.12338 0.37141 0.63454 0.0
H719 H 0.09854 0.38948 0.59186 0.0
H720 H 0.03165 0.46122 0.63183 0.0
H721 H 0.05643 0.44396 0.67475 0.0
C722 C 0.05697 0.32778 0.78621 0.0
C723 C 0.03041 0.35052 0.79371 0.0
C724 C 0.07756 0.33496 0.7643 0.0
C725 C 0.07296 0.36582 0.75013 0.0
C726 C 0.04553 0.38802 0.75708 0.0
C727 C 0.02413 0.38021 0.77859 0.0
C728 C 0.09767 0.37563 0.72893 0.0
C729 C 0.08471 0.38605 0.70423 0.0
C730 C 0.13395 0.37477 0.73299 0.0
C731 C 0.14966 0.36605 0.75892 0.0
C732 C 0.14096 0.38493 0.78176 0.0
C733 C 0.15588 0.37651 0.80609 0.0
C734 C 0.17973 0.34942 0.8078 0.0
C735 C 0.18879 0.33076 0.78516 0.0
C736 C 0.17393 0.33905 0.76078 0.0
C737 C 0.19226 0.46298 0.6496 0.0
C738 C 0.22298 0.44514 0.64361 0.0
C739 C 0.16502 0.44608 0.66224 0.0
C740 C 0.16802 0.41105 0.66907 0.0
C741 C 0.19757 0.39254 0.66119 0.0
C742 C 0.22477 0.4094 0.64838 0.0
C743 C 0.14314 0.39562 0.68796 0.0
C744 C 0.15609 0.3843 0.71235 0.0
C745 C 0.107 0.39607 0.68366 0.0
C746 C 0.09197 0.40653 0.65788 0.0
C747 C 0.10358 0.39125 0.63423 0.0
C748 C 0.08946 0.40131 0.60999 0.0
C749 C 0.06358 0.42653 0.60913 0.0
C750 C 0.05171 0.44169 0.63253 0.0
C751 C 0.06575 0.43174 0.65682 0.0
H752 H 0.05268 0.43428 0.59034 0.0
H753 H 0.19131 0.343 0.82664 0.0
H754 H 0.63169 0.50559 0.27514 0.0
H755 H 0.61874 0.53702 0.23425 0.0
H756 H 0.66512 0.62902 0.26716 0.0
H757 H 0.67709 0.59815 0.3081 0.0
H758 H 0.60603 0.64462 0.24783 0.0
H759 H 0.70414 0.5824 0.21539 0.0
H760 H 0.7403 0.53107 0.20651 0.0
H761 H 0.65956 0.48777 0.1585 0.0
H762 H 0.62281 0.53873 0.16732 0.0
H763 H 0.60891 0.73753 0.1246 0.0
H764 H 0.63849 0.6908 0.1482 0.0
H765 H 0.54027 0.64262 0.16428 0.0
H766 H 0.51058 0.68885 0.14069 0.0
H767 H 0.63126 0.60599 0.15613 0.0
H768 H 0.53643 0.66274 0.22865 0.0
H769 H 0.50404 0.71698 0.23629 0.0
H770 H 0.58868 0.7755 0.20443 0.0
H771 H 0.62148 0.72173 0.19685 0.0
C772 C 0.63917 0.53249 0.27354 0.0
C773 C 0.65495 0.54957 0.29489 0.0
C774 C 0.63209 0.55033 0.25009 0.0
C775 C 0.64115 0.58537 0.24754 0.0
C776 C 0.65771 0.60208 0.26868 0.0
C777 C 0.66444 0.58442 0.29212 0.0
C778 C 0.63091 0.60558 0.22386 0.0
C779 C 0.61198 0.63612 0.22788 0.0
C780 C 0.63863 0.59484 0.19768 0.0
C781 C 0.66062 0.5642 0.19225 0.0
C782 C 0.694 0.56178 0.20314 0.0
C783 C 0.71462 0.5328 0.19807 0.0
C784 C 0.70218 0.50611 0.18204 0.0
C785 C 0.66914 0.50844 0.17095 0.0
C786 C 0.64843 0.5374 0.17593 0.0
C787 C 0.59377 0.71607 0.13199 0.0
C788 C 0.55741 0.71715 0.13132 0.0
C789 C 0.61074 0.68931 0.14537 0.0
C790 C 0.59145 0.66355 0.15811 0.0
C791 C 0.55554 0.66227 0.15446 0.0
C792 C 0.53861 0.68886 0.14111 0.0
C793 C 0.60665 0.64443 0.18051 0.0
C794 C 0.62596 0.61426 0.17622 0.0
C795 C 0.60028 0.65583 0.20659 0.0
C796 C 0.58118 0.68829 0.21199 0.0
C797 C 0.54809 0.68724 0.22341 0.0
C798 C 0.52966 0.71789 0.22767 0.0
C799 C 0.54419 0.74968 0.22073 0.0
C800 C 0.57728 0.75091 0.20963 0.0
C801 C 0.59578 0.72036 0.20532 0.0
H802 H 0.52983 0.77332 0.224 0.0
H803 H 0.71817 0.48368 0.17815 0.0
H804 H 0.46147 0.20578 0.77066 0.0
H805 H 0.43337 0.19036 0.72891 0.0
H806 H 0.43654 0.08264 0.75075 0.0
H807 H 0.46464 0.09781 0.79245 0.0
H808 H 0.44582 0.09402 0.69567 0.0
H809 H 0.36895 0.12961 0.76839 0.0
H810 H 0.34888 0.17205 0.80152 0.0
H811 H 0.3294 0.24588 0.73998 0.0
H812 H 0.3499 0.204 0.70652 0.0
H813 H 0.30147 0.99833 0.66184 0.0
H814 H 0.35139 0.03028 0.67739 0.0
H815 H 0.30545 0.12555 0.65003 0.0
H816 H 0.25417 0.09343 0.6354 0.0
H817 H 0.32375 0.13378 0.69764 0.0
H818 H 0.38501 0.09178 0.62382 0.0
H819 H 0.40542 0.05006 0.59038 0.0
H820 H 0.45532 0.99041 0.6509 0.0
H821 H 0.43481 0.03145 0.68479 0.0
C822 C 0.45705 0.17873 0.76623 0.0
C823 C 0.46478 0.15298 0.78493 0.0
C824 C 0.44101 0.16999 0.74238 0.0
C825 C 0.43254 0.13543 0.73693 0.0
C826 C 0.44291 0.10947 0.75459 0.0
C827 C 0.45878 0.11818 0.77847 0.0
C828 C 0.40855 0.12651 0.71517 0.0
C829 C 0.41913 0.10272 0.69586 0.0
C830 C 0.37414 0.13899 0.71496 0.0
C831 C 0.36128 0.16386 0.73502 0.0
C832 C 0.36058 0.15497 0.76196 0.0
C833 C 0.34913 0.1789 0.78078 0.0
C834 C 0.33793 0.21165 0.77285 0.0
C835 C 0.33813 0.22052 0.74608 0.0
C836 C 0.34966 0.19671 0.72719 0.0
C837 C 0.30224 0.02599 0.65854 0.0
C838 C 0.27376 0.04342 0.64759 0.0
C839 C 0.33111 0.0443 0.66723 0.0
C840 C 0.33259 0.08042 0.66465 0.0
C841 C 0.305 0.09769 0.65221 0.0
C842 C 0.27576 0.07934 0.64378 0.0
C843 C 0.36046 0.09996 0.67839 0.0
C844 C 0.35063 0.12579 0.69646 0.0
C845 C 0.39562 0.08954 0.6772 0.0
C846 C 0.40826 0.06475 0.65689 0.0
C847 C 0.40017 0.06967 0.63004 0.0
C848 C 0.41179 0.04614 0.611 0.0
C849 C 0.43165 0.0176 0.61851 0.0
C850 C 0.43998 0.01256 0.6451 0.0
C851 C 0.42842 0.03601 0.66424 0.0
H852 H 0.44059 -0.0006 0.60374 0.0
H853 H 0.32895 0.23008 0.78743 0.0
H854 H 0.96619 0.78547 0.12052 0.0
H855 H 0.93677 0.83869 0.13579 0.0
H856 H 0.95019 0.80614 0.21664 0.0
H857 H 0.97991 0.75424 0.20185 0.0
H858 H 0.87938 0.82929 0.20015 0.0
H859 H 0.00463 0.85896 0.19746 0.0
H860 H 0.0588 0.86831 0.17269 0.0
H861 H 0.00765 0.94263 0.12323 0.0
H862 H 0.95303 0.93332 0.14755 0.0
H863 H 0.89379 0.92505 0.31141 0.0
H864 H 0.90738 0.89155 0.272 0.0
H865 H 0.88265 0.97919 0.22288 0.0
H866 H 0.8688 0.01332 0.26267 0.0
H867 H 0.9446 0.93941 0.20749 0.0
H868 H 0.82504 0.92295 0.22277 0.0
H869 H 0.77262 0.91402 0.24969 0.0
H870 H 0.81091 0.81508 0.27461 0.0
H871 H 0.86388 0.82365 0.2483 0.0
C872 C 0.96278 0.78988 0.14151 0.0
C873 C 0.97547 0.76592 0.16002 0.0
C874 C 0.94602 0.8201 0.15015 0.0
C875 C 0.94122 0.82603 0.1773 0.0
C876 C 0.95349 0.80185 0.19561 0.0
C877 C 0.97068 0.77232 0.1871 0.0
C878 C 0.9244 0.85754 0.18764 0.0
C879 C 0.89315 0.85367 0.20138 0.0
C880 C 0.94197 0.88954 0.1885 0.0
C881 C 0.97473 0.8951 0.17402 0.0
C882 C 0.00489 0.87703 0.18113 0.0
C883 C 0.03567 0.88238 0.16722 0.0
C884 C 0.03664 0.90595 0.14633 0.0
C885 C 0.00684 0.9243 0.13936 0.0
C886 C 0.97597 0.919 0.15319 0.0
C887 C 0.8916 0.93745 0.29229 0.0
C888 C 0.87997 0.97171 0.29009 0.0
C889 C 0.89926 0.91822 0.26979 0.0
C890 C 0.89534 0.93275 0.24459 0.0
C891 C 0.88554 0.96754 0.24221 0.0
C892 C 0.87774 0.98693 0.2649 0.0
C893 C 0.90057 0.91039 0.22121 0.0
C894 C 0.92965 0.91587 0.20518 0.0
C895 C 0.88083 0.87984 0.21812 0.0
C896 C 0.84856 0.87402 0.23353 0.0
C897 C 0.82239 0.89934 0.23407 0.0
C898 C 0.79256 0.89435 0.24924 0.0
C899 C 0.78848 0.86403 0.26388 0.0
C900 C 0.81412 0.83856 0.26325 0.0
C901 C 0.84403 0.84345 0.24817 0.0
H902 H 0.76548 0.8603 0.27574 0.0
H903 H 0.0605 0.91007 0.13559 0.0
loop_
_geom_bond_atom_site_label_1
_geom_bond_atom_site_label_2
_geom_bond_distance
_geom_bond_site_symmetry_2
_ccdc_geom_bond_type
In0 O1 2.293 1_455 S
In0 O2 2.327 . S
In0 O6 2.264 1_455 S
In0 O7 2.325 1_455 S
In0 O8 2.266 1_455 S
In0 O9 2.323 1_455 S
In0 O11 2.297 . S
In0 O12 2.329 . S
O1 In0 2.293 1_655 S
O1 C10 1.240 1_655 S
O2 In0 2.327 . S
O2 C10 1.252 . S
C3 O6 1.252 . S
C3 O7 1.260 . S
C4 O11 1.240 . S
C4 O12 1.252 . S
C5 O8 1.252 . S
C5 O9 1.260 . S
O6 In0 2.264 1_655 S
O6 C3 1.252 . S
O7 In0 2.325 1_655 S
O7 C3 1.260 . S
O8 In0 2.266 1_655 S
O8 C5 1.252 . S
O9 In0 2.323 1_655 S
O9 C5 1.260 . S
C10 O1 1.240 1_455 S
C10 O2 1.252 . S
O11 In0 2.297 . S
O11 C4 1.240 . S
O12 In0 2.329 . S
O12 C4 1.252 . S
In13 O14 2.294 . S
In13 O15 2.326 . S
In13 O19 2.266 . S
In13 O20 2.326 . S
In13 O21 2.266 . S
In13 O22 2.326 . S
In13 O24 2.294 . S
In13 O25 2.326 . S
O14 In13 2.294 . S
O14 C23 1.240 . S
O15 In13 2.326 . S
O15 C23 1.252 . S
C16 O19 1.252 . S
C16 O20 1.260 . S
C17 O24 1.240 . S
C17 O25 1.252 . S
C18 O21 1.252 . S
C18 O22 1.260 . S
O19 In13 2.266 . S
O19 C16 1.252 . S
O20 In13 2.326 . S
O20 C16 1.260 . S
O21 In13 2.266 . S
O21 C18 1.252 . S
O22 In13 2.326 . S
O22 C18 1.260 . S
C23 O14 1.240 . S
C23 O15 1.252 . S
O24 In13 2.294 . S
O24 C17 1.240 . S
O25 In13 2.326 . S
O25 C17 1.252 . S
In26 O27 2.294 . S
In26 O28 2.326 . S
In26 O32 2.266 . S
In26 O33 2.326 . S
In26 O34 2.266 . S
In26 O35 2.326 . S
In26 O37 2.294 . S
In26 O38 2.326 . S
O27 In26 2.294 . S
O27 C36 1.240 . S
O28 In26 2.326 . S
O28 C36 1.252 . S
C29 O32 1.252 . S
C29 O33 1.260 . S
C30 O37 1.240 . S
C30 O38 1.252 . S
C31 O34 1.252 . S
C31 O35 1.260 . S
O32 In26 2.266 . S
O32 C29 1.252 . S
O33 In26 2.326 . S
O33 C29 1.260 . S
O34 In26 2.266 . S
O34 C31 1.252 . S
O35 In26 2.326 . S
O35 C31 1.260 . S
C36 O27 1.240 . S
C36 O28 1.252 . S
O37 In26 2.294 . S
O37 C30 1.240 . S
O38 In26 2.326 . S
O38 C30 1.252 . S
In39 O40 2.297 . S
In39 O41 2.329 . S
In39 O45 2.266 1_565 S
In39 O46 2.323 1_565 S
In39 O47 2.264 1_565 S
In39 O48 2.325 1_565 S
In39 O50 2.293 1_565 S
In39 O51 2.327 . S
O40 In39 2.297 . S
O40 C49 1.240 . S
O41 In39 2.329 . S
O41 C49 1.252 . S
C42 O45 1.252 . S
C42 O46 1.260 . S
C43 O50 1.240 1_565 S
C43 O51 1.252 . S
C44 O47 1.252 . S
C44 O48 1.260 . S
O45 In39 2.266 1_545 S
O45 C42 1.252 . S
O46 In39 2.323 1_545 S
O46 C42 1.260 . S
O47 In39 2.264 1_545 S
O47 C44 1.252 . S
O48 In39 2.325 1_545 S
O48 C44 1.260 . S
C49 O40 1.240 . S
C49 O41 1.252 . S
O50 In39 2.293 1_545 S
O50 C43 1.240 1_545 S
O51 In39 2.327 . S
O51 C43 1.252 . S
In52 O53 2.297 . S
In52 O54 2.329 . S
In52 O58 2.266 1_655 S
In52 O59 2.323 1_655 S
In52 O60 2.264 1_655 S
In52 O61 2.325 1_655 S
In52 O63 2.293 1_655 S
In52 O64 2.327 . S
O53 In52 2.297 . S
O53 C62 1.240 . S
O54 In52 2.329 . S
O54 C62 1.252 . S
C55 O58 1.252 . S
C55 O59 1.260 . S
C56 O63 1.240 1_655 S
C56 O64 1.252 . S
C57 O60 1.252 . S
C57 O61 1.260 . S
O58 In52 2.266 1_455 S
O58 C55 1.252 . S
O59 In52 2.323 1_455 S
O59 C55 1.260 . S
O60 In52 2.264 1_455 S
O60 C57 1.252 . S
O61 In52 2.325 1_455 S
O61 C57 1.260 . S
C62 O53 1.240 . S
C62 O54 1.252 . S
O63 In52 2.293 1_455 S
O63 C56 1.240 1_455 S
O64 In52 2.327 . S
O64 C56 1.252 . S
In65 O66 2.294 . S
In65 O67 2.326 . S
In65 O71 2.266 . S
In65 O72 2.326 . S
In65 O73 2.266 . S
In65 O74 2.326 . S
In65 O76 2.294 . S
In65 O77 2.326 . S
O66 In65 2.294 . S
O66 C75 1.240 . S
O67 In65 2.326 . S
O67 C75 1.252 . S
C68 O71 1.252 . S
C68 O72 1.260 . S
C69 O76 1.240 . S
C69 O77 1.252 . S
C70 O73 1.252 . S
C70 O74 1.260 . S
O71 In65 2.266 . S
O71 C68 1.252 . S
O72 In65 2.326 . S
O72 C68 1.260 . S
O73 In65 2.266 . S
O73 C70 1.252 . S
O74 In65 2.326 . S
O74 C70 1.260 . S
C75 O66 1.240 . S
C75 O67 1.252 . S
O76 In65 2.294 . S
O76 C69 1.240 . S
O77 In65 2.326 . S
O77 C69 1.252 . S
In78 O79 2.294 . S
In78 O80 2.326 . S
In78 O84 2.266 . S
In78 O85 2.326 . S
In78 O86 2.266 . S
In78 O87 2.326 . S
In78 O89 2.294 . S
In78 O90 2.326 . S
O79 In78 2.294 . S
O79 C88 1.240 . S
O80 In78 2.326 . S
O80 C88 1.252 . S
C81 O84 1.252 . S
C81 O85 1.260 . S
C82 O89 1.240 . S
C82 O90 1.252 . S
C83 O86 1.252 . S
C83 O87 1.260 . S
O84 In78 2.266 . S
O84 C81 1.252 . S
O85 In78 2.326 . S
O85 C81 1.260 . S
O86 In78 2.266 . S
O86 C83 1.252 . S
O87 In78 2.326 . S
O87 C83 1.260 . S
C88 O79 1.240 . S
C88 O80 1.252 . S
O89 In78 2.294 . S
O89 C82 1.240 . S
O90 In78 2.326 . S
O90 C82 1.252 . S
In91 O92 2.297 . S
In91 O93 2.329 . S
In91 O97 2.266 1_545 S
In91 O98 2.323 1_545 S
In91 O99 2.264 1_545 S
In91 O100 2.325 1_545 S
In91 O102 2.293 1_545 S
In91 O103 2.327 . S
O92 In91 2.297 . S
O92 C101 1.240 . S
O93 In91 2.329 . S
O93 C101 1.252 . S
C94 O97 1.252 . S
C94 O98 1.260 . S
C95 O102 1.240 1_545 S
C95 O103 1.252 . S
C96 O99 1.252 . S
C96 O100 1.260 . S
O97 In91 2.266 1_565 S
O97 C94 1.252 . S
O98 In91 2.323 1_565 S
O98 C94 1.260 . S
O99 In91 2.264 1_565 S
O99 C96 1.252 . S
O100 In91 2.325 1_565 S
O100 C96 1.260 . S
C101 O92 1.240 . S
C101 O93 1.252 . S
O102 In91 2.293 1_565 S
O102 C95 1.240 1_565 S
O103 In91 2.327 . S
O103 C95 1.252 . S
H104 C122 0.951 . S
H105 C124 0.951 . S
H106 C126 0.950 . S
H107 C127 0.950 . S
H108 C129 0.950 . S
H109 C132 0.951 1_655 S
H110 C133 0.950 1_655 S
H111 C135 0.950 . S
H112 C136 0.950 . S
H113 C137 0.951 . S
H114 C139 0.951 . S
H115 C141 0.950 . S
H116 C142 0.950 . S
H117 C144 0.950 . S
H118 C147 0.944 1_455 S
H119 C148 0.950 1_455 S
H120 C150 0.950 . S
H121 C151 0.950 . S
C122 H104 0.951 . S
C122 C123 1.366 1_455 S
C122 C124 1.388 . S
C123 C122 1.366 1_655 S
C123 C127 1.385 . S
C124 H105 0.951 . S
C124 C122 1.388 . S
C124 C125 1.366 1_455 S
C125 C124 1.366 1_655 S
C125 C126 1.414 . S
C125 C128 1.499 . S
C126 H106 0.950 . S
C126 C125 1.414 . S
C126 C127 1.374 . S
C127 H107 0.950 . S
C127 C123 1.385 . S
C127 C126 1.374 . S
C128 C125 1.499 . S
C128 C129 1.373 . S
C128 C130 1.389 1_656 S
C129 H108 0.950 . S
C129 C128 1.373 . S
C129 C145 1.377 . S
C130 C128 1.389 1_454 S
C130 C131 1.524 . S
C130 C144 1.377 . S
C131 C130 1.524 . S
C131 C132 1.396 . S
C131 C136 1.363 . S
C132 H109 0.951 1_455 S
C132 C131 1.396 . S
C132 C133 1.334 . S
C133 H110 0.950 1_455 S
C133 C132 1.334 . S
C133 C134 1.287 . S
C134 C133 1.287 . S
C134 C135 1.524 . S
C134 H153 0.913 . S
C135 H111 0.950 . S
C135 C134 1.524 . S
C135 C136 1.415 . S
C136 H112 0.950 . S
C136 C131 1.363 . S
C136 C135 1.415 . S
C137 H113 0.951 . S
C137 C138 1.366 1_655 S
C137 C139 1.388 . S
C138 C137 1.366 1_455 S
C138 C142 1.385 . S
C139 H114 0.951 . S
C139 C137 1.388 . S
C139 C140 1.366 1_655 S
C140 C139 1.366 1_455 S
C140 C141 1.414 . S
C140 C143 1.499 . S
C141 H115 0.950 . S
C141 C140 1.414 . S
C141 C142 1.374 . S
C142 H116 0.950 . S
C142 C138 1.385 . S
C142 C141 1.374 . S
C143 C140 1.499 . S
C143 C144 1.373 . S
C143 C145 1.389 1_454 S
C144 H117 0.950 . S
C144 C130 1.377 . S
C144 C143 1.373 . S
C145 C129 1.377 . S
C145 C143 1.389 1_656 S
C145 C146 1.524 . S
C146 C145 1.524 . S
C146 C147 1.401 . S
C146 C151 1.363 . S
C147 H118 0.944 1_655 S
C147 C146 1.401 . S
C147 C148 1.335 . S
C148 H119 0.950 1_655 S
C148 C147 1.335 . S
C148 C149 1.287 . S
C149 C148 1.287 . S
C149 C150 1.524 . S
C149 H152 0.999 . S
C150 H120 0.950 . S
C150 C149 1.524 . S
C150 C151 1.415 . S
C151 H121 0.950 . S
C151 C146 1.363 . S
C151 C150 1.415 . S
H152 C149 0.999 . S
H153 C134 0.913 . S
H154 C172 0.951 . S
H155 C174 0.951 . S
H156 C176 0.950 . S
H157 C177 0.950 . S
H158 C179 0.950 . S
H159 C182 0.950 . S
H160 C183 0.950 . S
H161 C185 0.950 . S
H162 C186 0.950 . S
H163 C187 0.951 . S
H164 C189 0.951 . S
H165 C191 0.950 . S
H166 C192 0.950 . S
H167 C194 0.950 . S
H168 C197 0.950 . S
H169 C198 0.950 . S
H170 C200 0.950 . S
H171 C201 0.950 . S
C172 H154 0.951 . S
C172 C173 1.366 . S
C172 C174 1.388 . S
C173 C172 1.366 . S
C173 C177 1.385 . S
C174 H155 0.951 . S
C174 C172 1.388 . S
C174 C175 1.366 . S
C175 C174 1.366 . S
C175 C176 1.414 . S
C175 C178 1.499 . S
C176 H156 0.950 . S
C176 C175 1.414 . S
C176 C177 1.374 . S
C177 H157 0.950 . S
C177 C173 1.385 . S
C177 C176 1.374 . S
C178 C175 1.499 . S
C178 C179 1.373 . S
C178 C180 1.389 . S
C179 H158 0.950 . S
C179 C178 1.373 . S
C179 C195 1.377 . S
C180 C178 1.389 . S
C180 C181 1.524 . S
C180 C194 1.377 . S
C181 C180 1.524 . S
C181 C182 1.397 . S
C181 C186 1.363 . S
C182 H159 0.950 . S
C182 C181 1.397 . S
C182 C183 1.334 . S
C183 H160 0.950 . S
C183 C182 1.334 . S
C183 C184 1.287 . S
C184 C183 1.287 . S
C184 C185 1.524 . S
C184 H203 0.913 . S
C185 H161 0.950 . S
C185 C184 1.524 . S
C185 C186 1.415 . S
C186 H162 0.950 . S
C186 C181 1.363 . S
C186 C185 1.415 . S
C187 H163 0.951 . S
C187 C188 1.366 . S
C187 C189 1.388 . S
C188 C187 1.366 . S
C188 C192 1.385 . S
C189 H164 0.951 . S
C189 C187 1.388 . S
C189 C190 1.366 . S
C190 C189 1.366 . S
C190 C191 1.414 . S
C190 C193 1.499 . S
C191 H165 0.950 . S
C191 C190 1.414 . S
C191 C192 1.374 . S
C192 H166 0.950 . S
C192 C188 1.385 . S
C192 C191 1.374 . S
C193 C190 1.499 . S
C193 C194 1.373 . S
C193 C195 1.389 . S
C194 H167 0.950 . S
C194 C180 1.377 . S
C194 C193 1.373 . S
C195 C179 1.377 . S
C195 C193 1.389 . S
C195 C196 1.524 . S
C196 C195 1.524 . S
C196 C197 1.397 . S
C196 C201 1.363 . S
C197 H168 0.950 . S
C197 C196 1.397 . S
C197 C198 1.334 . S
C198 H169 0.950 . S
C198 C197 1.334 . S
C198 C199 1.287 . S
C199 C198 1.287 . S
C199 C200 1.524 . S
C199 H202 0.999 . S
C200 H170 0.950 . S
C200 C199 1.524 . S
C200 C201 1.415 . S
C201 H171 0.950 . S
C201 C196 1.363 . S
C201 C200 1.415 . S
H202 C199 0.999 . S
H203 C184 0.913 . S
H204 C222 0.951 . S
H205 C224 0.951 . S
H206 C226 0.950 . S
H207 C227 0.950 . S
H208 C229 0.950 . S
H209 C232 0.937 1_565 S
H210 C233 0.950 1_565 S
H211 C235 0.950 . S
H212 C236 0.950 . S
H213 C237 0.951 . S
H214 C239 0.951 . S
H215 C241 0.950 . S
H216 C242 0.950 . S
H217 C244 0.950 . S
H218 C247 0.937 1_545 S
H219 C248 0.950 1_545 S
H220 C250 0.950 . S
H221 C251 0.950 . S
C222 H204 0.951 . S
C222 C223 1.366 . S
C222 C224 1.388 . S
C223 C222 1.366 . S
C223 C227 1.385 . S
C224 H205 0.951 . S
C224 C222 1.388 . S
C224 C225 1.366 . S
C225 C224 1.366 . S
C225 C226 1.414 . S
C225 C228 1.499 . S
C226 H206 0.950 . S
C226 C225 1.414 . S
C226 C227 1.374 . S
C227 H207 0.950 . S
C227 C223 1.385 . S
C227 C226 1.374 . S
C228 C225 1.499 . S
C228 C229 1.373 1_554 S
C228 C230 1.389 1_565 S
C229 H208 0.950 . S
C229 C228 1.373 1_556 S
C229 C245 1.377 . S
C230 C228 1.389 1_545 S
C230 C231 1.524 . S
C230 C244 1.377 . S
C231 C230 1.524 . S
C231 C232 1.405 . S
C231 C236 1.363 . S
C232 H209 0.937 1_545 S
C232 C231 1.405 . S
C232 C233 1.339 . S
C233 H210 0.950 1_545 S
C233 C232 1.339 . S
C233 C234 1.287 . S
C234 C233 1.287 . S
C234 C235 1.524 . S
C234 H253 0.913 . S
C235 H211 0.950 . S
C235 C234 1.524 . S
C235 C236 1.415 . S
C236 H212 0.950 . S
C236 C231 1.363 . S
C236 C235 1.415 . S
C237 H213 0.951 . S
C237 C238 1.366 . S
C237 C239 1.388 . S
C238 C237 1.366 . S
C238 C242 1.385 . S
C239 H214 0.951 . S
C239 C237 1.388 . S
C239 C240 1.366 . S
C240 C239 1.366 . S
C240 C241 1.414 . S
C240 C243 1.499 . S
C241 H215 0.950 . S
C241 C240 1.414 . S
C241 C242 1.374 . S
C242 H216 0.950 . S
C242 C238 1.385 . S
C242 C241 1.374 . S
C243 C240 1.499 . S
C243 C244 1.373 1_556 S
C243 C245 1.389 1_545 S
C244 H217 0.950 . S
C244 C230 1.377 . S
C244 C243 1.373 1_554 S
C245 C229 1.377 . S
C245 C243 1.389 1_565 S
C245 C246 1.524 . S
C246 C245 1.524 . S
C246 C247 1.405 . S
C246 C251 1.363 . S
C247 H218 0.937 1_565 S
C247 C246 1.405 . S
C247 C248 1.339 . S
C248 H219 0.950 1_565 S
C248 C247 1.339 . S
C248 C249 1.287 . S
C249 C248 1.287 . S
C249 C250 1.524 . S
C249 H252 0.999 . S
C250 H220 0.950 . S
C250 C249 1.524 . S
C250 C251 1.415 . S
C251 H221 0.950 . S
C251 C246 1.363 . S
C251 C250 1.415 . S
H252 C249 0.999 . S
H253 C234 0.913 . S
H254 C272 0.953 . S
H255 C274 0.952 . S
H256 C276 0.950 . S
H257 C277 0.950 . S
H258 C279 0.950 . S
H259 C282 0.950 . S
H260 C283 0.950 . S
H261 C285 0.950 . S
H262 C286 0.950 . S
H263 C287 0.954 . S
H264 C289 0.953 . S
H265 C291 0.950 . S
H266 C292 0.950 . S
H267 C294 0.950 . S
H268 C297 0.950 . S
H269 C298 0.950 . S
H270 C300 0.950 . S
H271 C301 0.950 . S
C272 H254 0.953 . S
C272 C273 1.364 1_565 S
C272 C274 1.388 . S
C273 C272 1.364 1_545 S
C273 C277 1.385 . S
C274 H255 0.952 . S
C274 C272 1.388 . S
C274 C275 1.365 1_565 S
C275 C274 1.365 1_545 S
C275 C276 1.414 . S
C275 C278 1.499 . S
C276 H256 0.950 . S
C276 C275 1.414 . S
C276 C277 1.374 . S
C277 H257 0.950 . S
C277 C273 1.385 . S
C277 C276 1.374 . S
C278 C275 1.499 . S
C278 C279 1.373 1_545 S
C278 C280 1.389 . S
C279 H258 0.950 . S
C279 C278 1.373 1_565 S
C279 C295 1.377 1_655 S
C280 C278 1.389 . S
C280 C281 1.524 . S
C280 C294 1.377 1_655 S
C281 C280 1.524 . S
C281 C282 1.397 . S
C281 C286 1.363 . S
C282 H259 0.950 . S
C282 C281 1.397 . S
C282 C283 1.334 . S
C283 H260 0.950 . S
C283 C282 1.334 . S
C283 C284 1.287 . S
C284 C283 1.287 . S
C284 C285 1.524 . S
C284 H303 0.913 . S
C285 H261 0.950 . S
C285 C284 1.524 . S
C285 C286 1.415 . S
C286 H262 0.950 . S
C286 C281 1.363 . S
C286 C285 1.415 . S
C287 H263 0.954 . S
C287 C288 1.363 1_545 S
C287 C289 1.388 . S
C288 C287 1.363 1_565 S
C288 C292 1.385 . S
C289 H264 0.953 . S
C289 C287 1.388 . S
C289 C290 1.364 1_545 S
C290 C289 1.364 1_565 S
C290 C291 1.414 . S
C290 C293 1.499 . S
C291 H265 0.950 . S
C291 C290 1.414 . S
C291 C292 1.374 . S
C292 H266 0.950 . S
C292 C288 1.385 . S
C292 C291 1.374 . S
C293 C290 1.499 . S
C293 C294 1.373 1_565 S
C293 C295 1.389 . S
C294 H267 0.950 . S
C294 C280 1.377 1_455 S
C294 C293 1.373 1_545 S
C295 C279 1.377 1_455 S
C295 C293 1.389 . S
C295 C296 1.524 . S
C296 C295 1.524 . S
C296 C297 1.397 . S
C296 C301 1.363 . S
C297 H268 0.950 . S
C297 C296 1.397 . S
C297 C298 1.334 . S
C298 H269 0.950 . S
C298 C297 1.334 . S
C298 C299 1.287 . S
C299 C298 1.287 . S
C299 C300 1.524 . S
C299 H302 0.999 . S
C300 H270 0.950 . S
C300 C299 1.524 . S
C300 C301 1.415 . S
C301 H271 0.950 . S
C301 C296 1.363 . S
C301 C300 1.415 . S
H302 C299 0.999 . S
H303 C284 0.913 . S
H304 C322 0.951 . S
H305 C324 0.951 . S
H306 C326 0.950 . S
H307 C327 0.950 . S
H308 C329 0.950 . S
H309 C332 0.950 . S
H310 C333 0.950 . S
H311 C335 0.950 . S
H312 C336 0.950 . S
H313 C337 0.951 . S
H314 C339 0.951 . S
H315 C341 0.950 . S
H316 C342 0.950 . S
H317 C344 0.950 . S
H318 C347 0.950 . S
H319 C348 0.950 . S
H320 C350 0.950 . S
H321 C351 0.950 . S
C322 H304 0.951 . S
C322 C323 1.366 . S
C322 C324 1.388 . S
C323 C322 1.366 . S
C323 C327 1.385 . S
C324 H305 0.951 . S
C324 C322 1.388 . S
C324 C325 1.366 . S
C325 C324 1.366 . S
C325 C326 1.414 . S
C325 C328 1.499 . S
C326 H306 0.950 . S
C326 C325 1.414 . S
C326 C327 1.374 . S
C327 H307 0.950 . S
C327 C323 1.385 . S
C327 C326 1.374 . S
C328 C325 1.499 . S
C328 C329 1.373 . S
C328 C330 1.389 . S
C329 H308 0.950 . S
C329 C328 1.373 . S
C329 C345 1.377 . S
C330 C328 1.389 . S
C330 C331 1.524 . S
C330 C344 1.377 . S
C331 C330 1.524 . S
C331 C332 1.397 . S
C331 C336 1.363 . S
C332 H309 0.950 . S
C332 C331 1.397 . S
C332 C333 1.334 . S
C333 H310 0.950 . S
C333 C332 1.334 . S
C333 C334 1.287 . S
C334 C333 1.287 . S
C334 C335 1.524 . S
C334 H353 0.913 . S
C335 H311 0.950 . S
C335 C334 1.524 . S
C335 C336 1.415 . S
C336 H312 0.950 . S
C336 C331 1.363 . S
C336 C335 1.415 . S
C337 H313 0.951 . S
C337 C338 1.366 . S
C337 C339 1.388 . S
C338 C337 1.366 . S
C338 C342 1.385 . S
C339 H314 0.951 . S
C339 C337 1.388 . S
C339 C340 1.366 . S
C340 C339 1.366 . S
C340 C341 1.414 . S
C340 C343 1.499 . S
C341 H315 0.950 . S
C341 C340 1.414 . S
C341 C342 1.374 . S
C342 H316 0.950 . S
C342 C338 1.385 . S
C342 C341 1.374 . S
C343 C340 1.499 . S
C343 C344 1.373 . S
C343 C345 1.389 . S
C344 H317 0.950 . S
C344 C330 1.377 . S
C344 C343 1.373 . S
C345 C329 1.377 . S
C345 C343 1.389 . S
C345 C346 1.524 . S
C346 C345 1.524 . S
C346 C347 1.397 . S
C346 C351 1.363 . S
C347 H318 0.950 . S
C347 C346 1.397 . S
C347 C348 1.334 . S
C348 H319 0.950 . S
C348 C347 1.334 . S
C348 C349 1.287 . S
C349 C348 1.287 . S
C349 C350 1.524 . S
C349 H352 0.999 . S
C350 H320 0.950 . S
C350 C349 1.524 . S
C350 C351 1.415 . S
C351 H321 0.950 . S
C351 C346 1.363 . S
C351 C350 1.415 . S
H352 C349 0.999 . S
H353 C334 0.913 . S
H354 C372 0.951 . S
H355 C374 0.951 . S
H356 C376 0.950 . S
H357 C377 0.950 . S
H358 C379 0.950 . S
H359 C382 0.950 . S
H360 C383 0.950 . S
H361 C385 0.950 . S
H362 C386 0.950 . S
H363 C387 0.951 . S
H364 C389 0.951 . S
H365 C391 0.950 . S
H366 C392 0.950 . S
H367 C394 0.950 . S
H368 C397 0.950 . S
H369 C398 0.950 . S
H370 C400 0.950 . S
H371 C401 0.950 . S
C372 H354 0.951 . S
C372 C373 1.366 . S
C372 C374 1.388 . S
C373 C372 1.366 . S
C373 C377 1.385 . S
C374 H355 0.951 . S
C374 C372 1.388 . S
C374 C375 1.366 . S
C375 C374 1.366 . S
C375 C376 1.414 . S
C375 C378 1.499 . S
C376 H356 0.950 . S
C376 C375 1.414 . S
C376 C377 1.374 . S
C377 H357 0.950 . S
C377 C373 1.385 . S
C377 C376 1.374 . S
C378 C375 1.499 . S
C378 C379 1.373 . S
C378 C380 1.389 . S
C379 H358 0.950 . S
C379 C378 1.373 . S
C379 C395 1.377 . S
C380 C378 1.389 . S
C380 C381 1.524 . S
C380 C394 1.377 . S
C381 C380 1.524 . S
C381 C382 1.397 . S
C381 C386 1.363 . S
C382 H359 0.950 . S
C382 C381 1.397 . S
C382 C383 1.334 . S
C383 H360 0.950 . S
C383 C382 1.334 . S
C383 C384 1.287 . S
C384 C383 1.287 . S
C384 C385 1.524 . S
C384 H403 0.913 . S
C385 H361 0.950 . S
C385 C384 1.524 . S
C385 C386 1.415 . S
C386 H362 0.950 . S
C386 C381 1.363 . S
C386 C385 1.415 . S
C387 H363 0.951 . S
C387 C388 1.366 . S
C387 C389 1.388 . S
C388 C387 1.366 . S
C388 C392 1.385 . S
C389 H364 0.951 . S
C389 C387 1.388 . S
C389 C390 1.366 . S
C390 C389 1.366 . S
C390 C391 1.414 . S
C390 C393 1.499 . S
C391 H365 0.950 . S
C391 C390 1.414 . S
C391 C392 1.374 . S
C392 H366 0.950 . S
C392 C388 1.385 . S
C392 C391 1.374 . S
C393 C390 1.499 . S
C393 C394 1.373 . S
C393 C395 1.389 . S
C394 H367 0.950 . S
C394 C380 1.377 . S
C394 C393 1.373 . S
C395 C379 1.377 . S
C395 C393 1.389 . S
C395 C396 1.524 . S
C396 C395 1.524 . S
C396 C397 1.397 . S
C396 C401 1.363 . S
C397 H368 0.950 . S
C397 C396 1.397 . S
C397 C398 1.334 . S
C398 H369 0.950 . S
C398 C397 1.334 . S
C398 C399 1.287 . S
C399 C398 1.287 . S
C399 C400 1.524 . S
C399 H402 0.999 . S
C400 H370 0.950 . S
C400 C399 1.524 . S
C400 C401 1.415 . S
C401 H371 0.950 . S
C401 C396 1.363 . S
C401 C400 1.415 . S
H402 C399 0.999 . S
H403 C384 0.913 . S
H404 C422 0.951 . S
H405 C424 0.951 . S
H406 C426 0.950 . S
H407 C427 0.950 . S
H408 C429 0.950 . S
H409 C432 0.950 . S
H410 C433 0.950 . S
H411 C435 0.950 . S
H412 C436 0.950 . S
H413 C437 0.951 . S
H414 C439 0.951 . S
H415 C441 0.950 . S
H416 C442 0.950 . S
H417 C444 0.950 . S
H418 C447 0.950 . S
H419 C448 0.950 . S
H420 C450 0.950 . S
H421 C451 0.950 . S
C422 H404 0.951 . S
C422 C423 1.366 . S
C422 C424 1.388 . S
C423 C422 1.366 . S
C423 C427 1.385 . S
C424 H405 0.951 . S
C424 C422 1.388 . S
C424 C425 1.366 . S
C425 C424 1.366 . S
C425 C426 1.414 . S
C425 C428 1.499 . S
C426 H406 0.950 . S
C426 C425 1.414 . S
C426 C427 1.374 . S
C427 H407 0.950 . S
C427 C423 1.385 . S
C427 C426 1.374 . S
C428 C425 1.499 . S
C428 C429 1.373 . S
C428 C430 1.389 . S
C429 H408 0.950 . S
C429 C428 1.373 . S
C429 C445 1.377 . S
C430 C428 1.389 . S
C430 C431 1.524 . S
C430 C444 1.377 . S
C431 C430 1.524 . S
C431 C432 1.397 . S
C431 C436 1.363 . S
C432 H409 0.950 . S
C432 C431 1.397 . S
C432 C433 1.334 . S
C433 H410 0.950 . S
C433 C432 1.334 . S
C433 C434 1.287 . S
C434 C433 1.287 . S
C434 C435 1.524 . S
C434 H453 0.913 . S
C435 H411 0.950 . S
C435 C434 1.524 . S
C435 C436 1.415 . S
C436 H412 0.950 . S
C436 C431 1.363 . S
C436 C435 1.415 . S
C437 H413 0.951 . S
C437 C438 1.366 . S
C437 C439 1.388 . S
C438 C437 1.366 . S
C438 C442 1.385 . S
C439 H414 0.951 . S
C439 C437 1.388 . S
C439 C440 1.366 . S
C440 C439 1.366 . S
C440 C441 1.414 . S
C440 C443 1.499 . S
C441 H415 0.950 . S
C441 C440 1.414 . S
C441 C442 1.374 . S
C442 H416 0.950 . S
C442 C438 1.385 . S
C442 C441 1.374 . S
C443 C440 1.499 . S
C443 C444 1.373 . S
C443 C445 1.389 . S
C444 H417 0.950 . S
C444 C430 1.377 . S
C444 C443 1.373 . S
C445 C429 1.377 . S
C445 C443 1.389 . S
C445 C446 1.524 . S
C446 C445 1.524 . S
C446 C447 1.397 . S
C446 C451 1.363 . S
C447 H418 0.950 . S
C447 C446 1.397 . S
C447 C448 1.334 . S
C448 H419 0.950 . S
C448 C447 1.334 . S
C448 C449 1.287 . S
C449 C448 1.287 . S
C449 C450 1.524 . S
C449 H452 0.999 . S
C450 H420 0.950 . S
C450 C449 1.524 . S
C450 C451 1.415 . S
C451 H421 0.950 . S
C451 C446 1.363 . S
C451 C450 1.415 . S
H452 C449 0.999 . S
H453 C434 0.913 . S
H454 C472 0.951 . S
H455 C474 0.951 . S
H456 C476 0.950 . S
H457 C477 0.950 . S
H458 C479 0.950 . S
H459 C482 0.950 . S
H460 C483 0.950 . S
H461 C485 0.950 . S
H462 C486 0.950 . S
H463 C487 0.951 . S
H464 C489 0.951 . S
H465 C491 0.950 . S
H466 C492 0.950 . S
H467 C494 0.950 . S
H468 C497 0.950 . S
H469 C498 0.950 . S
H470 C500 0.950 . S
H471 C501 0.950 . S
C472 H454 0.951 . S
C472 C473 1.366 . S
C472 C474 1.388 . S
C473 C472 1.366 . S
C473 C477 1.385 . S
C474 H455 0.951 . S
C474 C472 1.388 . S
C474 C475 1.366 . S
C475 C474 1.366 . S
C475 C476 1.414 . S
C475 C478 1.499 . S
C476 H456 0.950 . S
C476 C475 1.414 . S
C476 C477 1.374 . S
C477 H457 0.950 . S
C477 C473 1.385 . S
C477 C476 1.374 . S
C478 C475 1.499 . S
C478 C479 1.373 . S
C478 C480 1.389 . S
C479 H458 0.950 . S
C479 C478 1.373 . S
C479 C495 1.377 . S
C480 C478 1.389 . S
C480 C481 1.524 . S
C480 C494 1.377 . S
C481 C480 1.524 . S
C481 C482 1.397 . S
C481 C486 1.363 . S
C482 H459 0.950 . S
C482 C481 1.397 . S
C482 C483 1.334 . S
C483 H460 0.950 . S
C483 C482 1.334 . S
C483 C484 1.287 . S
C484 C483 1.287 . S
C484 C485 1.524 . S
C484 H503 0.913 . S
C485 H461 0.950 . S
C485 C484 1.524 . S
C485 C486 1.415 . S
C486 H462 0.950 . S
C486 C481 1.363 . S
C486 C485 1.415 . S
C487 H463 0.951 . S
C487 C488 1.366 . S
C487 C489 1.388 . S
C488 C487 1.366 . S
C488 C492 1.385 . S
C489 H464 0.951 . S
C489 C487 1.388 . S
C489 C490 1.366 . S
C490 C489 1.366 . S
C490 C491 1.414 . S
C490 C493 1.499 . S
C491 H465 0.950 . S
C491 C490 1.414 . S
C491 C492 1.374 . S
C492 H466 0.950 . S
C492 C488 1.385 . S
C492 C491 1.374 . S
C493 C490 1.499 . S
C493 C494 1.373 . S
C493 C495 1.389 . S
C494 H467 0.950 . S
C494 C480 1.377 . S
C494 C493 1.373 . S
C495 C479 1.377 . S
C495 C493 1.389 . S
C495 C496 1.524 . S
C496 C495 1.524 . S
C496 C497 1.397 . S
C496 C501 1.363 . S
C497 H468 0.950 . S
C497 C496 1.397 . S
C497 C498 1.334 . S
C498 H469 0.950 . S
C498 C497 1.334 . S
C498 C499 1.287 . S
C499 C498 1.287 . S
C499 C500 1.524 . S
C499 H502 0.999 . S
C500 H470 0.950 . S
C500 C499 1.524 . S
C500 C501 1.415 . S
C501 H471 0.950 . S
C501 C496 1.363 . S
C501 C500 1.415 . S
H502 C499 0.999 . S
H503 C484 0.913 . S
H504 C522 0.951 . S
H505 C524 0.951 . S
H506 C526 0.950 . S
H507 C527 0.950 . S
H508 C529 0.950 . S
H509 C532 0.950 . S
H510 C533 0.950 . S
H511 C535 0.950 . S
H512 C536 0.950 . S
H513 C537 0.951 . S
H514 C539 0.951 . S
H515 C541 0.950 . S
H516 C542 0.950 . S
H517 C544 0.950 . S
H518 C547 0.950 . S
H519 C548 0.950 . S
H520 C550 0.950 . S
H521 C551 0.950 . S
C522 H504 0.951 . S
C522 C523 1.366 . S
C522 C524 1.388 . S
C523 C522 1.366 . S
C523 C527 1.385 . S
C524 H505 0.951 . S
C524 C522 1.388 . S
C524 C525 1.366 . S
C525 C524 1.366 . S
C525 C526 1.414 . S
C525 C528 1.499 . S
C526 H506 0.950 . S
C526 C525 1.414 . S
C526 C527 1.374 . S
C527 H507 0.950 . S
C527 C523 1.385 . S
C527 C526 1.374 . S
C528 C525 1.499 . S
C528 C529 1.373 . S
C528 C530 1.389 . S
C529 H508 0.950 . S
C529 C528 1.373 . S
C529 C545 1.377 . S
C530 C528 1.389 . S
C530 C531 1.524 . S
C530 C544 1.377 . S
C531 C530 1.524 . S
C531 C532 1.397 . S
C531 C536 1.363 . S
C532 H509 0.950 . S
C532 C531 1.397 . S
C532 C533 1.334 . S
C533 H510 0.950 . S
C533 C532 1.334 . S
C533 C534 1.287 . S
C534 C533 1.287 . S
C534 C535 1.524 . S
C534 H553 0.913 . S
C535 H511 0.950 . S
C535 C534 1.524 . S
C535 C536 1.415 . S
C536 H512 0.950 . S
C536 C531 1.363 . S
C536 C535 1.415 . S
C537 H513 0.951 . S
C537 C538 1.366 . S
C537 C539 1.388 . S
C538 C537 1.366 . S
C538 C542 1.385 . S
C539 H514 0.951 . S
C539 C537 1.388 . S
C539 C540 1.366 . S
C540 C539 1.366 . S
C540 C541 1.414 . S
C540 C543 1.499 . S
C541 H515 0.950 . S
C541 C540 1.414 . S
C541 C542 1.374 . S
C542 H516 0.950 . S
C542 C538 1.385 . S
C542 C541 1.374 . S
C543 C540 1.499 . S
C543 C544 1.373 . S
C543 C545 1.389 . S
C544 H517 0.950 . S
C544 C530 1.377 . S
C544 C543 1.373 . S
C545 C529 1.377 . S
C545 C543 1.389 . S
C545 C546 1.524 . S
C546 C545 1.524 . S
C546 C547 1.397 . S
C546 C551 1.363 . S
C547 H518 0.950 . S
C547 C546 1.397 . S
C547 C548 1.334 . S
C548 H519 0.950 . S
C548 C547 1.334 . S
C548 C549 1.287 . S
C549 C548 1.287 . S
C549 C550 1.524 . S
C549 H552 0.999 1_655 S
C550 H520 0.950 . S
C550 C549 1.524 . S
C550 C551 1.415 . S
C551 H521 0.950 . S
C551 C546 1.363 . S
C551 C550 1.415 . S
H552 C549 0.999 1_455 S
H553 C534 0.913 . S
H554 C572 0.951 . S
H555 C574 0.951 . S
H556 C576 0.950 . S
H557 C577 0.950 . S
H558 C579 0.950 . S
H559 C582 0.950 . S
H560 C583 0.950 . S
H561 C585 0.950 . S
H562 C586 0.950 . S
H563 C587 0.951 . S
H564 C589 0.951 . S
H565 C591 0.950 . S
H566 C592 0.950 . S
H567 C594 0.950 . S
H568 C597 0.950 . S
H569 C598 0.950 . S
H570 C600 0.950 . S
H571 C601 0.950 . S
C572 H554 0.951 . S
C572 C573 1.366 . S
C572 C574 1.388 . S
C573 C572 1.366 . S
C573 C577 1.385 . S
C574 H555 0.951 . S
C574 C572 1.388 . S
C574 C575 1.366 . S
C575 C574 1.366 . S
C575 C576 1.414 . S
C575 C578 1.499 . S
C576 H556 0.950 . S
C576 C575 1.414 . S
C576 C577 1.374 . S
C577 H557 0.950 . S
C577 C573 1.385 . S
C577 C576 1.374 . S
C578 C575 1.499 . S
C578 C579 1.373 . S
C578 C580 1.389 . S
C579 H558 0.950 . S
C579 C578 1.373 . S
C579 C595 1.377 . S
C580 C578 1.389 . S
C580 C581 1.524 . S
C580 C594 1.377 . S
C581 C580 1.524 . S
C581 C582 1.397 . S
C581 C586 1.363 . S
C582 H559 0.950 . S
C582 C581 1.397 . S
C582 C583 1.334 . S
C583 H560 0.950 . S
C583 C582 1.334 . S
C583 C584 1.287 . S
C584 C583 1.287 . S
C584 C585 1.524 . S
C584 H603 0.913 . S
C585 H561 0.950 . S
C585 C584 1.524 . S
C585 C586 1.415 . S
C586 H562 0.950 . S
C586 C581 1.363 . S
C586 C585 1.415 . S
C587 H563 0.951 . S
C587 C588 1.366 . S
C587 C589 1.388 . S
C588 C587 1.366 . S
C588 C592 1.385 . S
C589 H564 0.951 . S
C589 C587 1.388 . S
C589 C590 1.366 . S
C590 C589 1.366 . S
C590 C591 1.414 . S
C590 C593 1.499 . S
C591 H565 0.950 . S
C591 C590 1.414 . S
C591 C592 1.374 . S
C592 H566 0.950 . S
C592 C588 1.385 . S
C592 C591 1.374 . S
C593 C590 1.499 . S
C593 C594 1.373 . S
C593 C595 1.389 . S
C594 H567 0.950 . S
C594 C580 1.377 . S
C594 C593 1.373 . S
C595 C579 1.377 . S
C595 C593 1.389 . S
C595 C596 1.524 . S
C596 C595 1.524 . S
C596 C597 1.397 . S
C596 C601 1.363 . S
C597 H568 0.950 . S
C597 C596 1.397 . S
C597 C598 1.334 . S
C598 H569 0.950 . S
C598 C597 1.334 . S
C598 C599 1.287 . S
C599 C598 1.287 . S
C599 C600 1.524 . S
C599 H602 0.999 . S
C600 H570 0.950 . S
C600 C599 1.524 . S
C600 C601 1.415 . S
C601 H571 0.950 . S
C601 C596 1.363 . S
C601 C600 1.415 . S
H602 C599 0.999 . S
H603 C584 0.913 . S
H604 C622 0.951 . S
H605 C624 0.951 . S
H606 C626 0.950 . S
H607 C627 0.950 . S
H608 C629 0.950 . S
H609 C632 0.950 . S
H610 C633 0.950 . S
H611 C635 0.950 . S
H612 C636 0.950 . S
H613 C637 0.951 . S
H614 C639 0.951 . S
H615 C641 0.950 . S
H616 C642 0.950 . S
H617 C644 0.950 . S
H618 C647 0.950 . S
H619 C648 0.950 . S
H620 C650 0.950 . S
H621 C651 0.950 . S
C622 H604 0.951 . S
C622 C623 1.366 . S
C622 C624 1.388 . S
C623 C622 1.366 . S
C623 C627 1.385 . S
C624 H605 0.951 . S
C624 C622 1.388 . S
C624 C625 1.366 . S
C625 C624 1.366 . S
C625 C626 1.414 . S
C625 C628 1.499 . S
C626 H606 0.950 . S
C626 C625 1.414 . S
C626 C627 1.374 . S
C627 H607 0.950 . S
C627 C623 1.385 . S
C627 C626 1.374 . S
C628 C625 1.499 . S
C628 C629 1.373 . S
C628 C630 1.389 . S
C629 H608 0.950 . S
C629 C628 1.373 . S
C629 C645 1.377 . S
C630 C628 1.389 . S
C630 C631 1.524 . S
C630 C644 1.377 . S
C631 C630 1.524 . S
C631 C632 1.397 . S
C631 C636 1.363 . S
C632 H609 0.950 . S
C632 C631 1.397 . S
C632 C633 1.334 . S
C633 H610 0.950 . S
C633 C632 1.334 . S
C633 C634 1.287 . S
C634 C633 1.287 . S
C634 C635 1.524 . S
C634 H653 0.913 . S
C635 H611 0.950 . S
C635 C634 1.524 . S
C635 C636 1.415 . S
C636 H612 0.950 . S
C636 C631 1.363 . S
C636 C635 1.415 . S
C637 H613 0.951 . S
C637 C638 1.366 . S
C637 C639 1.388 . S
C638 C637 1.366 . S
C638 C642 1.385 . S
C639 H614 0.951 . S
C639 C637 1.388 . S
C639 C640 1.366 . S
C640 C639 1.366 . S
C640 C641 1.414 . S
C640 C643 1.499 . S
C641 H615 0.950 . S
C641 C640 1.414 . S
C641 C642 1.374 . S
C642 H616 0.950 . S
C642 C638 1.385 . S
C642 C641 1.374 . S
C643 C640 1.499 . S
C643 C644 1.373 . S
C643 C645 1.389 . S
C644 H617 0.950 . S
C644 C630 1.377 . S
C644 C643 1.373 . S
C645 C629 1.377 . S
C645 C643 1.389 . S
C645 C646 1.524 . S
C646 C645 1.524 . S
C646 C647 1.397 . S
C646 C651 1.363 . S
C647 H618 0.950 . S
C647 C646 1.397 . S
C647 C648 1.334 1_565 S
C648 H619 0.950 . S
C648 C647 1.334 1_545 S
C648 C649 1.287 . S
C649 C648 1.287 . S
C649 C650 1.524 1_545 S
C649 H652 0.999 . S
C650 H620 0.950 . S
C650 C649 1.524 1_565 S
C650 C651 1.415 . S
C651 H621 0.950 . S
C651 C646 1.363 . S
C651 C650 1.415 . S
H652 C649 0.999 . S
H653 C634 0.913 . S
H654 C672 0.951 . S
H655 C674 0.951 . S
H656 C676 0.950 . S
H657 C677 0.950 . S
H658 C679 0.950 . S
H659 C682 0.950 . S
H660 C683 0.950 . S
H661 C685 0.950 . S
H662 C686 0.950 . S
H663 C687 0.951 . S
H664 C689 0.951 . S
H665 C691 0.950 . S
H666 C692 0.950 . S
H667 C694 0.950 . S
H668 C697 0.950 . S
H669 C698 0.950 . S
H670 C700 0.950 . S
H671 C701 0.950 . S
C672 H654 0.951 . S
C672 C673 1.366 . S
C672 C674 1.388 . S
C673 C672 1.366 . S
C673 C677 1.385 . S
C674 H655 0.951 . S
C674 C672 1.388 . S
C674 C675 1.366 . S
C675 C674 1.366 . S
C675 C676 1.414 . S
C675 C678 1.499 . S
C676 H656 0.950 . S
C676 C675 1.414 . S
C676 C677 1.374 . S
C677 H657 0.950 . S
C677 C673 1.385 . S
C677 C676 1.374 . S
C678 C675 1.499 . S
C678 C679 1.373 . S
C678 C680 1.389 . S
C679 H658 0.950 . S
C679 C678 1.373 . S
C679 C695 1.377 . S
C680 C678 1.389 . S
C680 C681 1.524 . S
C680 C694 1.377 . S
C681 C680 1.524 . S
C681 C682 1.397 . S
C681 C686 1.363 . S
C682 H659 0.950 . S
C682 C681 1.397 . S
C682 C683 1.334 . S
C683 H660 0.950 . S
C683 C682 1.334 . S
C683 C684 1.287 . S
C684 C683 1.287 . S
C684 C685 1.524 . S
C684 H703 0.913 . S
C685 H661 0.950 . S
C685 C684 1.524 . S
C685 C686 1.415 . S
C686 H662 0.950 . S
C686 C681 1.363 . S
C686 C685 1.415 . S
C687 H663 0.951 . S
C687 C688 1.366 . S
C687 C689 1.388 . S
C688 C687 1.366 . S
C688 C692 1.385 . S
C689 H664 0.951 . S
C689 C687 1.388 . S
C689 C690 1.366 . S
C690 C689 1.366 . S
C690 C691 1.414 . S
C690 C693 1.499 . S
C691 H665 0.950 . S
C691 C690 1.414 . S
C691 C692 1.374 . S
C692 H666 0.950 . S
C692 C688 1.385 . S
C692 C691 1.374 . S
C693 C690 1.499 . S
C693 C694 1.373 . S
C693 C695 1.389 . S
C694 H667 0.950 . S
C694 C680 1.377 . S
C694 C693 1.373 . S
C695 C679 1.377 . S
C695 C693 1.389 . S
C695 C696 1.524 . S
C696 C695 1.524 . S
C696 C697 1.397 . S
C696 C701 1.363 . S
C697 H668 0.950 . S
C697 C696 1.397 . S
C697 C698 1.334 . S
C698 H669 0.950 . S
C698 C697 1.334 . S
C698 C699 1.287 1_455 S
C699 C698 1.287 1_655 S
C699 C700 1.524 . S
C699 H702 0.999 . S
C700 H670 0.950 . S
C700 C699 1.524 . S
C700 C701 1.415 1_655 S
C701 H671 0.950 . S
C701 C696 1.363 . S
C701 C700 1.415 1_455 S
H702 C699 0.999 . S
H703 C684 0.913 . S
H704 C722 0.951 . S
H705 C724 0.951 . S
H706 C726 0.950 . S
H707 C727 0.950 . S
H708 C729 0.950 . S
H709 C732 0.950 . S
H710 C733 0.950 . S
H711 C735 0.950 . S
H712 C736 0.950 . S
H713 C737 0.951 . S
H714 C739 0.951 . S
H715 C741 0.950 . S
H716 C742 0.950 . S
H717 C744 0.950 . S
H718 C747 0.950 . S
H719 C748 0.950 . S
H720 C750 0.950 . S
H721 C751 0.950 . S
C722 H704 0.951 . S
C722 C723 1.366 . S
C722 C724 1.388 . S
C723 C722 1.366 . S
C723 C727 1.385 . S
C724 H705 0.951 . S
C724 C722 1.388 . S
C724 C725 1.366 . S
C725 C724 1.366 . S
C725 C726 1.414 . S
C725 C728 1.499 . S
C726 H706 0.950 . S
C726 C725 1.414 . S
C726 C727 1.374 . S
C727 H707 0.950 . S
C727 C723 1.385 . S
C727 C726 1.374 . S
C728 C725 1.499 . S
C728 C729 1.373 . S
C728 C730 1.389 . S
C729 H708 0.950 . S
C729 C728 1.373 . S
C729 C745 1.377 . S
C730 C728 1.389 . S
C730 C731 1.524 . S
C730 C744 1.377 . S
C731 C730 1.524 . S
C731 C732 1.397 . S
C731 C736 1.363 . S
C732 H709 0.950 . S
C732 C731 1.397 . S
C732 C733 1.334 . S
C733 H710 0.950 . S
C733 C732 1.334 . S
C733 C734 1.287 . S
C734 C733 1.287 . S
C734 C735 1.524 . S
C734 H753 0.913 . S
C735 H711 0.950 . S
C735 C734 1.524 . S
C735 C736 1.415 . S
C736 H712 0.950 . S
C736 C731 1.363 . S
C736 C735 1.415 . S
C737 H713 0.951 . S
C737 C738 1.366 . S
C737 C739 1.388 . S
C738 C737 1.366 . S
C738 C742 1.385 . S
C739 H714 0.951 . S
C739 C737 1.388 . S
C739 C740 1.366 . S
C740 C739 1.366 . S
C740 C741 1.414 . S
C740 C743 1.499 . S
C741 H715 0.950 . S
C741 C740 1.414 . S
C741 C742 1.374 . S
C742 H716 0.950 . S
C742 C738 1.385 . S
C742 C741 1.374 . S
C743 C740 1.499 . S
C743 C744 1.373 . S
C743 C745 1.389 . S
C744 H717 0.950 . S
C744 C730 1.377 . S
C744 C743 1.373 . S
C745 C729 1.377 . S
C745 C743 1.389 . S
C745 C746 1.524 . S
C746 C745 1.524 . S
C746 C747 1.397 . S
C746 C751 1.363 . S
C747 H718 0.950 . S
C747 C746 1.397 . S
C747 C748 1.334 . S
C748 H719 0.950 . S
C748 C747 1.334 . S
C748 C749 1.287 . S
C749 C748 1.287 . S
C749 C750 1.524 . S
C749 H752 0.999 . S
C750 H720 0.950 . S
C750 C749 1.524 . S
C750 C751 1.415 . S
C751 H721 0.950 . S
C751 C746 1.363 . S
C751 C750 1.415 . S
H752 C749 0.999 . S
H753 C734 0.913 . S
H754 C772 0.951 . S
H755 C774 0.951 . S
H756 C776 0.950 . S
H757 C777 0.950 . S
H758 C779 0.950 . S
H759 C782 0.950 . S
H760 C783 0.950 . S
H761 C785 0.950 . S
H762 C786 0.950 . S
H763 C787 0.951 . S
H764 C789 0.951 . S
H765 C791 0.950 . S
H766 C792 0.950 . S
H767 C794 0.950 . S
H768 C797 0.950 . S
H769 C798 0.950 . S
H770 C800 0.950 . S
H771 C801 0.950 . S
C772 H754 0.951 . S
C772 C773 1.366 . S
C772 C774 1.388 . S
C773 C772 1.366 . S
C773 C777 1.385 . S
C774 H755 0.951 . S
C774 C772 1.388 . S
C774 C775 1.366 . S
C775 C774 1.366 . S
C775 C776 1.414 . S
C775 C778 1.499 . S
C776 H756 0.950 . S
C776 C775 1.414 . S
C776 C777 1.374 . S
C777 H757 0.950 . S
C777 C773 1.385 . S
C777 C776 1.374 . S
C778 C775 1.499 . S
C778 C779 1.373 . S
C778 C780 1.389 . S
C779 H758 0.950 . S
C779 C778 1.373 . S
C779 C795 1.377 . S
C780 C778 1.389 . S
C780 C781 1.524 . S
C780 C794 1.377 . S
C781 C780 1.524 . S
C781 C782 1.397 . S
C781 C786 1.363 . S
C782 H759 0.950 . S
C782 C781 1.397 . S
C782 C783 1.334 . S
C783 H760 0.950 . S
C783 C782 1.334 . S
C783 C784 1.287 . S
C784 C783 1.287 . S
C784 C785 1.524 . S
C784 H803 0.913 . S
C785 H761 0.950 . S
C785 C784 1.524 . S
C785 C786 1.415 . S
C786 H762 0.950 . S
C786 C781 1.363 . S
C786 C785 1.415 . S
C787 H763 0.951 . S
C787 C788 1.366 . S
C787 C789 1.388 . S
C788 C787 1.366 . S
C788 C792 1.385 . S
C789 H764 0.951 . S
C789 C787 1.388 . S
C789 C790 1.366 . S
C790 C789 1.366 . S
C790 C791 1.414 . S
C790 C793 1.499 . S
C791 H765 0.950 . S
C791 C790 1.414 . S
C791 C792 1.374 . S
C792 H766 0.950 . S
C792 C788 1.385 . S
C792 C791 1.374 . S
C793 C790 1.499 . S
C793 C794 1.373 . S
C793 C795 1.389 . S
C794 H767 0.950 . S
C794 C780 1.377 . S
C794 C793 1.373 . S
C795 C779 1.377 . S
C795 C793 1.389 . S
C795 C796 1.524 . S
C796 C795 1.524 . S
C796 C797 1.397 . S
C796 C801 1.363 . S
C797 H768 0.950 . S
C797 C796 1.397 . S
C797 C798 1.334 . S
C798 H769 0.950 . S
C798 C797 1.334 . S
C798 C799 1.287 . S
C799 C798 1.287 . S
C799 C800 1.524 . S
C799 H802 0.999 . S
C800 H770 0.950 . S
C800 C799 1.524 . S
C800 C801 1.415 . S
C801 H771 0.950 . S
C801 C796 1.363 . S
C801 C800 1.415 . S
H802 C799 0.999 . S
H803 C784 0.913 . S
H804 C822 0.951 . S
H805 C824 0.951 . S
H806 C826 0.950 . S
H807 C827 0.950 . S
H808 C829 0.950 . S
H809 C832 0.950 . S
H810 C833 0.950 . S
H811 C835 0.950 . S
H812 C836 0.950 . S
H813 C837 0.951 1_565 S
H814 C839 0.951 . S
H815 C841 0.950 . S
H816 C842 0.950 . S
H817 C844 0.950 . S
H818 C847 0.950 . S
H819 C848 0.950 . S
H820 C850 0.950 . S
H821 C851 0.950 . S
C822 H804 0.951 . S
C822 C823 1.366 . S
C822 C824 1.388 . S
C823 C822 1.366 . S
C823 C827 1.385 . S
C824 H805 0.951 . S
C824 C822 1.388 . S
C824 C825 1.366 . S
C825 C824 1.366 . S
C825 C826 1.414 . S
C825 C828 1.499 . S
C826 H806 0.950 . S
C826 C825 1.414 . S
C826 C827 1.374 . S
C827 H807 0.950 . S
C827 C823 1.385 . S
C827 C826 1.374 . S
C828 C825 1.499 . S
C828 C829 1.373 . S
C828 C830 1.389 . S
C829 H808 0.950 . S
C829 C828 1.373 . S
C829 C845 1.377 . S
C830 C828 1.389 . S
C830 C831 1.524 . S
C830 C844 1.377 . S
C831 C830 1.524 . S
C831 C832 1.397 . S
C831 C836 1.363 . S
C832 H809 0.950 . S
C832 C831 1.397 . S
C832 C833 1.334 . S
C833 H810 0.950 . S
C833 C832 1.334 . S
C833 C834 1.287 . S
C834 C833 1.287 . S
C834 C835 1.524 . S
C834 H853 0.913 . S
C835 H811 0.950 . S
C835 C834 1.524 . S
C835 C836 1.415 . S
C836 H812 0.950 . S
C836 C831 1.363 . S
C836 C835 1.415 . S
C837 H813 0.951 1_545 S
C837 C838 1.366 . S
C837 C839 1.388 . S
C838 C837 1.366 . S
C838 C842 1.385 . S
C839 H814 0.951 . S
C839 C837 1.388 . S
C839 C840 1.366 . S
C840 C839 1.366 . S
C840 C841 1.414 . S
C840 C843 1.499 . S
C841 H815 0.950 . S
C841 C840 1.414 . S
C841 C842 1.374 . S
C842 H816 0.950 . S
C842 C838 1.385 . S
C842 C841 1.374 . S
C843 C840 1.499 . S
C843 C844 1.373 . S
C843 C845 1.389 . S
C844 H817 0.950 . S
C844 C830 1.377 . S
C844 C843 1.373 . S
C845 C829 1.377 . S
C845 C843 1.389 . S
C845 C846 1.524 . S
C846 C845 1.524 . S
C846 C847 1.397 . S
C846 C851 1.363 . S
C847 H818 0.950 . S
C847 C846 1.397 . S
C847 C848 1.334 . S
C848 H819 0.950 . S
C848 C847 1.334 . S
C848 C849 1.287 1_545 S
C849 C848 1.287 1_565 S
C849 C850 1.524 . S
C849 H852 0.999 . S
C850 H820 0.950 . S
C850 C849 1.524 . S
C850 C851 1.415 1_565 S
C851 H821 0.950 . S
C851 C846 1.363 . S
C851 C850 1.415 1_545 S
H852 C849 0.999 . S
H853 C834 0.913 . S
H854 C872 0.951 . S
H855 C874 0.951 . S
H856 C876 0.950 . S
H857 C877 0.950 . S
H858 C879 0.950 . S
H859 C882 0.949 . S
H860 C883 0.950 . S
H861 C885 0.950 . S
H862 C886 0.950 . S
H863 C887 0.951 . S
H864 C889 0.951 . S
H865 C891 0.950 . S
H866 C892 0.950 . S
H867 C894 0.950 . S
H868 C897 0.950 . S
H869 C898 0.950 . S
H870 C900 0.950 . S
H871 C901 0.950 . S
C872 H854 0.951 . S
C872 C873 1.366 . S
C872 C874 1.388 . S
C873 C872 1.366 . S
C873 C877 1.385 . S
C874 H855 0.951 . S
C874 C872 1.388 . S
C874 C875 1.366 . S
C875 C874 1.366 . S
C875 C876 1.414 . S
C875 C878 1.499 . S
C876 H856 0.950 . S
C876 C875 1.414 . S
C876 C877 1.374 . S
C877 H857 0.950 . S
C877 C873 1.385 . S
C877 C876 1.374 . S
C878 C875 1.499 . S
C878 C879 1.373 . S
C878 C880 1.389 . S
C879 H858 0.950 . S
C879 C878 1.373 . S
C879 C895 1.377 . S
C880 C878 1.389 . S
C880 C881 1.524 . S
C880 C894 1.377 . S
C881 C880 1.524 . S
C881 C882 1.399 . S
C881 C886 1.363 . S
C882 H859 0.949 . S
C882 C881 1.399 . S
C882 C883 1.332 1_655 S
C883 H860 0.950 . S
C883 C882 1.332 1_455 S
C883 C884 1.287 . S
C884 C883 1.287 . S
C884 C885 1.524 1_455 S
C884 H903 0.913 . S
C885 H861 0.950 . S
C885 C884 1.524 1_655 S
C885 C886 1.415 . S
C886 H862 0.950 . S
C886 C881 1.363 . S
C886 C885 1.415 . S
C887 H863 0.951 . S
C887 C888 1.366 . S
C887 C889 1.388 . S
C888 C887 1.366 . S
C888 C892 1.385 . S
C889 H864 0.951 . S
C889 C887 1.388 . S
C889 C890 1.366 . S
C890 C889 1.366 . S
C890 C891 1.414 . S
C890 C893 1.499 . S
C891 H865 0.950 . S
C891 C890 1.414 . S
C891 C892 1.374 . S
C892 H866 0.950 . S
C892 C888 1.385 . S
C892 C891 1.374 . S
C893 C890 1.499 . S
C893 C894 1.373 . S
C893 C895 1.389 . S
C894 H867 0.950 . S
C894 C880 1.377 . S
C894 C893 1.373 . S
C895 C879 1.377 . S
C895 C893 1.389 . S
C895 C896 1.524 . S
C896 C895 1.524 . S
C896 C897 1.397 . S
C896 C901 1.363 . S
C897 H868 0.950 . S
C897 C896 1.397 . S
C897 C898 1.334 . S
C898 H869 0.950 . S
C898 C897 1.334 . S
C898 C899 1.287 . S
C899 C898 1.287 . S
C899 C900 1.524 . S
C899 H902 0.999 . S
C900 H870 0.950 . S
C900 C899 1.524 . S
C900 C901 1.415 . S
C901 H871 0.950 . S
C901 C896 1.363 . S
C901 C900 1.415 . S
H902 C899 0.999 . S
H903 C884 0.913 . S
C123 C56 1.724 . S
C138 C10 1.724 . S
C173 C17 1.728 . S
C188 C69 1.728 . S
C223 C36 1.713 . S
C238 C88 1.713 . S
C273 C95 1.710 . S
C288 C43 1.710 . S
C323 C4 1.718 . S
C338 C30 1.714 . S
C373 C23 1.717 . S
C388 C49 1.713 . S
C423 C82 1.718 . S
C438 C62 1.714 . S
C473 C75 1.717 . S
C488 C101 1.713 . S
C523 C70 0.899 . S
C538 C5 0.915 . S
C573 C16 0.921 . S
C588 C81 0.906 . S
C623 C31 0.911 . S
C638 C96 0.898 . S
C673 C57 0.889 . S
C688 C42 0.905 . S
C723 C55 0.913 . S
C738 C18 0.901 . S
C773 C68 0.921 . S
C788 C29 0.907 . S
C823 C83 0.911 . S
C838 C44 0.898 . S
C873 C3 0.889 . S
C888 C94 0.906 . S
