# Generated by pormake.
# Topology wiz, (3)-cn, num edge types: 1
# Building blocks:
#     Node 0, Type 0, BuildingBlock: OLANEW_clean_sbu_2, # of connection points: 3
#     Node 1, Type 0, BuildingBlock: OLANEW_clean_sbu_2, # of connection points: 3
#     Node 2, Type 0, BuildingBlock: OLANEW_clean_sbu_2, # of connection points: 3
#     Node 3, Type 0, BuildingBlock: OLANEW_clean_sbu_2, # of connection points: 3
#     Node 4, Type 0, BuildingBlock: OLANEW_clean_sbu_2, # of connection points: 3
#     Node 5, Type 0, BuildingBlock: OLANEW_clean_sbu_2, # of connection points: 3
#     Node 6, Type 0, BuildingBlock: OLANEW_clean_sbu_2, # of connection points: 3
#     Node 7, Type 0, BuildingBlock: OLANEW_clean_sbu_2, # of connection points: 3
#     Node 8, Type 0, BuildingBlock: OLANEW_clean_sbu_2, # of connection points: 3
#     Node 9, Type 0, BuildingBlock: OLANEW_clean_sbu_2, # of connection points: 3
#     Node 10, Type 0, BuildingBlock: OLANEW_clean_sbu_2, # of connection points: 3
#     Node 11, Type 0, BuildingBlock: OLANEW_clean_sbu_2, # of connection points: 3
#     Edge 12, Type (0, 0), BuildingBlock: KIFKEQ_clean_linker_1, # of connection points: 2
#     Edge 13, Type (0, 0), BuildingBlock: KIFKEQ_clean_linker_1, # of connection points: 2
#     Edge 14, Type (0, 0), BuildingBlock: KIFKEQ_clean_linker_1, # of connection points: 2
#     Edge 15, Type (0, 0), BuildingBlock: KIFKEQ_clean_linker_1, # of connection points: 2
#     Edge 16, Type (0, 0), BuildingBlock: KIFKEQ_clean_linker_1, # of connection points: 2
#     Edge 17, Type (0, 0), BuildingBlock: KIFKEQ_clean_linker_1, # of connection points: 2
#     Edge 18, Type (0, 0), BuildingBlock: KIFKEQ_clean_linker_1, # of connection points: 2
#     Edge 19, Type (0, 0), BuildingBlock: KIFKEQ_clean_linker_1, # of connection points: 2
#     Edge 20, Type (0, 0), BuildingBlock: KIFKEQ_clean_linker_1, # of connection points: 2
#     Edge 21, Type (0, 0), BuildingBlock: KIFKEQ_clean_linker_1, # of connection points: 2
#     Edge 22, Type (0, 0), BuildingBlock: KIFKEQ_clean_linker_1, # of connection points: 2
#     Edge 23, Type (0, 0), BuildingBlock: KIFKEQ_clean_linker_1, # of connection points: 2
#     Edge 24, Type (0, 0), BuildingBlock: KIFKEQ_clean_linker_1, # of connection points: 2
#     Edge 25, Type (0, 0), BuildingBlock: KIFKEQ_clean_linker_1, # of connection points: 2
#     Edge 26, Type (0, 0), BuildingBlock: KIFKEQ_clean_linker_1, # of connection points: 2
#     Edge 27, Type (0, 0), BuildingBlock: KIFKEQ_clean_linker_1, # of connection points: 2
#     Edge 28, Type (0, 0), BuildingBlock: KIFKEQ_clean_linker_1, # of connection points: 2
#     Edge 29, Type (0, 0), BuildingBlock: KIFKEQ_clean_linker_1, # of connection points: 2
# Relax obj value: 0.000
# Max RMSD: 0.046
# Mean RMSD: 0.046
data_MOF--net-wiz--node1-OLANEW_clean_sbu_2--edge1-KIFKEQ_clean_linker_1
_symmetry_space_group_name_H-M    P1
_symmetry_Int_Tables_number       1
_symmetry_cell_setting            triclinic
loop_
_symmetry_equiv_pos_as_xyz
'x, y, z'
_cell_length_a     36.456629
_cell_length_b     36.42448
_cell_length_c     78.054272
_cell_angle_alpha  89.832403
_cell_angle_beta   90.551553
_cell_angle_gamma 119.76648
loop_
_atom_site_label
_atom_site_type_symbol
_atom_site_fract_x
_atom_site_fract_y
_atom_site_fract_z
_atom_type_partial_charge
O0 O 0.11273 0.30145 0.06917 0.0
Cd1 Cd 0.12159 0.31053 0.10037 0.0
O2 O 0.18129 0.32877 0.06906 0.0
Cd3 Cd 0.24591 0.35743 0.05942 0.0
O4 O 0.31482 0.39171 0.05746 0.0
C5 C 0.33582 0.42235 0.06771 0.0
O6 O 0.31532 0.43244 0.07878 0.0
C7 C 0.14657 0.31375 0.06076 0.0
C8 C 0.04834 0.2821 0.11976 0.0
O9 O 0.06672 0.3192 0.11316 0.0
O10 O 0.06386 0.25799 0.11677 0.0
O11 O 0.77383 0.12103 0.40473 0.0
Cd12 Cd 0.77265 0.12668 0.43595 0.0
O13 O 0.81497 0.18958 0.40497 0.0
Cd14 Cd 0.85103 0.25498 0.39597 0.0
O15 O 0.88811 0.32394 0.3944 0.0
C16 C 0.87786 0.3458 0.40381 0.0
O17 O 0.84491 0.3262 0.41382 0.0
C18 C 0.79509 0.1553 0.39649 0.0
C19 C 0.7378 0.05014 0.45369 0.0
O20 O 0.71432 0.06418 0.44763 0.0
O21 O 0.77767 0.07187 0.45105 0.0
O22 O 0.63417 0.80967 0.73092 0.0
Cd23 Cd 0.62335 0.81698 0.76134 0.0
O24 O 0.63093 0.86594 0.72275 0.0
Cd25 Cd 0.61411 0.88123 0.74748 0.0
O26 O 0.58039 0.90865 0.7605 0.0
C27 C 0.54035 0.88929 0.75905 0.0
O28 O 0.52144 0.85262 0.75109 0.0
C29 C 0.63614 0.83481 0.71915 0.0
C30 C 0.66263 0.78354 0.78208 0.0
O31 O 0.62509 0.76003 0.77621 0.0
O32 O 0.68158 0.82291 0.7782 0.0
O33 O 0.83051 0.65686 0.0534 0.0
Cd34 Cd 0.80809 0.64734 0.08336 0.0
O35 O 0.78253 0.6734 0.04525 0.0
Cd36 Cd 0.74437 0.65213 0.06836 0.0
O37 O 0.67756 0.61253 0.07465 0.0
C38 C 0.65425 0.59451 0.06164 0.0
O39 O 0.67212 0.6009 0.04655 0.0
C40 C 0.81436 0.66932 0.04184 0.0
C41 C 0.87669 0.68085 0.1063 0.0
O42 O 0.85813 0.64172 0.10197 0.0
O43 O 0.8629 0.70407 0.09977 0.0
O44 O 0.15924 0.80665 0.3862 0.0
Cd45 Cd 0.14929 0.78431 0.41631 0.0
O46 O 0.09396 0.79345 0.38232 0.0
Cd47 Cd 0.07286 0.75539 0.40555 0.0
O48 O 0.04245 0.68821 0.41193 0.0
C49 C 0.03984 0.66511 0.39926 0.0
O50 O 0.0558 0.68347 0.38455 0.0
C51 C 0.13124 0.80782 0.37672 0.0
C52 C 0.17854 0.85143 0.43971 0.0
O53 O 0.20345 0.83951 0.43358 0.0
O54 O 0.13988 0.83194 0.43464 0.0
O55 O 0.29386 0.12579 0.72881 0.0
Cd56 Cd 0.30391 0.11625 0.75934 0.0
O57 O 0.28377 0.06257 0.72242 0.0
Cd58 Cd 0.30228 0.04877 0.74727 0.0
O59 O 0.33771 0.02299 0.7605 0.0
C60 C 0.37756 0.04237 0.75861 0.0
O61 O 0.39537 0.07818 0.75009 0.0
C62 C 0.28491 0.09667 0.71784 0.0
C63 C 0.27867 0.15908 0.78189 0.0
O64 O 0.31717 0.17568 0.77707 0.0
O65 O 0.25203 0.12263 0.77586 0.0
O66 O 0.60252 0.75755 0.58541 0.0
Cd67 Cd 0.58492 0.73061 0.55602 0.0
O68 O 0.64097 0.72774 0.59107 0.0
Cd69 Cd 0.62275 0.69121 0.56728 0.0
O70 O 0.58918 0.63124 0.55341 0.0
C71 C 0.54903 0.61193 0.5535 0.0
O72 O 0.52992 0.63032 0.56075 0.0
C73 C 0.62621 0.75129 0.59565 0.0
C74 C 0.61635 0.79654 0.53225 0.0
O75 O 0.58018 0.78327 0.53916 0.0
O76 O 0.63762 0.7785 0.53651 0.0
O77 O 0.84518 0.6466 0.90659 0.0
Cd78 Cd 0.84583 0.62861 0.87645 0.0
O79 O 0.90725 0.6537 0.91318 0.0
Cd80 Cd 0.91699 0.6301 0.88892 0.0
O81 O 0.93992 0.59032 0.87776 0.0
C82 C 0.9145 0.55248 0.87316 0.0
O83 O 0.87365 0.53848 0.87375 0.0
C84 C 0.87467 0.65562 0.91746 0.0
C85 C 0.80624 0.66175 0.85572 0.0
O86 O 0.78491 0.62561 0.86294 0.0
O87 O 0.84633 0.68216 0.85822 0.0
O88 O 0.18026 0.83347 0.24065 0.0
Cd89 Cd 0.19723 0.8439 0.21006 0.0
O90 O 0.19938 0.9004 0.2447 0.0
Cd91 Cd 0.2328 0.91994 0.22036 0.0
O92 O 0.29518 0.94858 0.20859 0.0
C93 C 0.32109 -0.01337 0.21276 0.0
O94 O 0.30786 0.00689 0.22256 0.0
C95 C 0.18328 0.86284 0.25038 0.0
C96 C 0.12564 0.80628 0.18874 0.0
O97 O 0.14558 0.7867 0.19272 0.0
O98 O 0.13932 0.84344 0.19494 0.0
O99 O 0.29919 0.1346 0.58086 0.0
Cd100 Cd 0.31649 0.15498 0.55073 0.0
O101 O 0.2868 0.18664 0.58646 0.0
Cd102 Cd 0.30674 0.21804 0.56165 0.0
O103 O 0.34304 0.2785 0.54846 0.0
C104 C 0.38291 0.29795 0.55058 0.0
O105 O 0.40008 0.27923 0.55924 0.0
C106 C 0.28824 0.15403 0.59134 0.0
C107 C 0.28437 0.08686 0.52773 0.0
O108 O 0.31985 0.09951 0.53545 0.0
O109 O 0.26376 0.10601 0.53105 0.0
O110 O 0.16209 0.33016 0.92199 0.0
Cd111 Cd 0.15637 0.34112 0.8912 0.0
O112 O 0.09448 0.30836 0.92547 0.0
Cd113 Cd 0.0827 0.32553 0.89996 0.0
O114 O 0.05841 0.35955 0.88475 0.0
C115 C 0.01982 0.3488 0.88685 0.0
O116 O -0.00332 0.3165 0.89686 0.0
C117 C 0.12986 0.31543 0.93161 0.0
C118 C 0.18576 0.30103 0.86915 0.0
O119 O 0.20976 0.33952 0.87383 0.0
O120 O 0.14823 0.28124 0.87516 0.0
O121 O 0.77291 0.18023 0.25945 0.0
Cd122 Cd 0.75071 0.18019 0.22966 0.0
O123 O 0.73725 0.11085 0.2614 0.0
Cd124 Cd 0.7047 0.10089 0.23674 0.0
O125 O 0.64475 0.07723 0.22287 0.0
C126 C 0.63257 0.10222 0.21722 0.0
O127 O 0.65812 0.14321 0.21859 0.0
C128 C 0.76213 0.14673 0.26806 0.0
C129 C 0.81461 0.20096 0.2057 0.0
O130 O 0.81007 0.22973 0.21317 0.0
O131 O 0.78921 0.16233 0.20969 0.0
H132 H 0.06593 0.27153 0.95409 0.0
H133 H 0.20193 0.34645 0.95137 0.0
H134 H 0.07063 0.26822 -0.01492 0.0
H135 H 0.20664 0.34433 0.98256 0.0
H136 H 0.20041 0.3049 0.03894 0.0
H137 H 0.19731 0.30204 0.00768 0.0
H138 H 0.0857 0.31493 0.00854 0.0
H139 H 0.08867 0.31724 0.03969 0.0
C140 C 0.09692 0.28718 0.96011 0.0
C141 C 0.13354 0.30951 0.95024 0.0
C142 C 0.0996 0.28558 0.97793 0.0
C143 C 0.13897 0.30662 -0.01359 0.0
C144 C 0.17579 0.32754 0.97649 0.0
C145 C 0.17311 0.32884 0.95859 0.0
C146 C 0.17566 0.30781 0.03243 0.0
C147 C 0.14519 0.31199 0.04179 0.0
C148 C 0.17373 0.30594 0.01449 0.0
C149 C 0.14121 0.30817 0.00552 0.0
C150 C 0.11075 0.31229 0.01497 0.0
C151 C 0.11257 0.31389 0.03285 0.0
H152 H 0.75042 0.08178 0.2891 0.0
H153 H 0.80228 0.21728 0.28846 0.0
H154 H 0.76295 0.08437 0.31985 0.0
H155 H 0.81384 0.21971 0.31937 0.0
H156 H 0.73404 0.09694 0.37567 0.0
H157 H 0.73107 0.09563 0.34454 0.0
H158 H 0.85237 0.21022 0.34302 0.0
H159 H 0.85524 0.21143 0.37431 0.0
C160 C 0.76481 0.1122 0.29549 0.0
C161 C 0.77498 0.14927 0.28631 0.0
C162 C 0.77172 0.11365 0.31317 0.0
C163 C 0.78877 0.15215 0.32216 0.0
C164 C 0.80086 0.18954 0.31286 0.0
C165 C 0.7941 0.18812 0.29512 0.0
C166 C 0.76018 0.12181 0.36871 0.0
C167 C 0.79448 0.15477 0.3775 0.0
C168 C 0.7586 0.12094 0.35083 0.0
C169 C 0.7915 0.15283 0.34123 0.0
C170 C 0.82616 0.18555 0.35001 0.0
C171 C 0.82768 0.18644 0.36796 0.0
H172 H 0.63813 0.7662 0.70593 0.0
H173 H 0.6469 0.88482 0.69131 0.0
H174 H 0.64057 0.7498 0.67587 0.0
H175 H 0.65041 0.86889 0.6613 0.0
H176 H 0.59487 0.79788 0.61044 0.0
H177 H 0.6023 0.8209 0.64011 0.0
H178 H 0.68354 0.76832 0.65048 0.0
H179 H 0.67528 0.74432 0.62083 0.0
C180 C 0.64123 0.78908 0.69634 0.0
C181 C 0.64195 0.82666 0.70105 0.0
C182 C 0.64286 0.77978 0.67908 0.0
C183 C 0.6454 0.8079 0.66613 0.0
C184 C 0.64768 0.84617 0.67091 0.0
C185 C 0.64591 0.8554 0.68814 0.0
C186 C 0.61466 0.79156 0.61898 0.0
C187 C 0.63426 0.76901 0.61325 0.0
C188 C 0.61912 0.80499 0.63601 0.0
C189 C 0.64341 0.79634 0.64773 0.0
C190 C 0.66408 0.77494 0.64187 0.0
C191 C 0.65956 0.76143 0.62483 0.0
H192 H 0.86888 0.64675 0.02773 0.0
H193 H 0.79471 0.70623 0.01552 0.0
H194 H 0.88673 0.64911 -0.00241 0.0
H195 H 0.81359 0.7098 -0.01449 0.0
H196 H 0.80515 0.65158 0.93236 0.0
H197 H 0.7951 0.66063 0.96248 0.0
H198 H 0.92384 0.69193 0.97346 0.0
H199 H 0.93351 0.68161 0.94336 0.0
C200 C 0.85708 0.66111 0.01868 0.0
C201 C 0.83003 0.6759 0.02402 0.0
C202 C 0.86746 0.66263 0.00138 0.0
C203 C 0.85125 0.67927 -0.01094 0.0
C204 C 0.82588 0.69593 -0.00543 0.0
C205 C 0.81528 0.69414 0.01182 0.0
C206 C 0.83148 0.66083 0.94115 0.0
C207 C 0.87004 0.66558 0.93544 0.0
C208 C 0.8258 0.66626 0.95845 0.0
C209 C 0.85862 0.67687 0.97046 0.0
C210 C 0.89766 0.68307 0.96463 0.0
C211 C 0.90328 0.67741 0.94734 0.0
H212 H 0.17298 0.79548 0.26946 0.0
H213 H 0.16817 0.91143 0.27276 0.0
H214 H 0.16114 0.78517 0.30028 0.0
H215 H 0.1556 0.90054 0.3036 0.0
H216 H 0.08619 0.82981 0.35483 0.0
H217 H 0.09726 0.84389 0.32406 0.0
H218 H 0.20716 0.82855 0.32681 0.0
H219 H 0.19673 0.8152 0.35754 0.0
C220 C 0.16881 0.81844 0.2767 0.0
C221 C 0.1716 0.85432 0.26867 0.0
C222 C 0.16238 0.81269 0.29436 0.0
C223 C 0.15784 0.84227 0.30429 0.0
C224 C 0.159 0.8773 0.2962 0.0
C225 C 0.16623 0.88349 0.27858 0.0
C226 C 0.11306 0.83004 0.34891 0.0
C227 C 0.14057 0.82137 0.35862 0.0
C228 C 0.11935 0.8381 0.33133 0.0
C229 C 0.15276 0.83682 0.32309 0.0
C230 C 0.18087 0.82923 0.33285 0.0
C231 C 0.17507 0.82196 0.35046 0.0
H232 H 0.25779 0.18416 0.61627 0.0
H233 H 0.30156 0.09512 0.60783 0.0
H234 H 0.25129 0.168 0.64676 0.0
H235 H 0.29627 0.07988 0.63838 0.0
H236 H 0.25485 0.03737 0.69236 0.0
H237 H 0.24967 0.04817 0.66186 0.0
H238 H 0.29651 0.18113 0.67112 0.0
H239 H 0.30044 0.17001 0.70175 0.0
C240 C 0.26583 0.16095 0.6209 0.0
C241 C 0.28034 0.14104 0.60959 0.0
C242 C 0.26239 0.15192 0.63843 0.0
C243 C 0.27356 0.12289 0.64512 0.0
C244 C 0.28687 0.10204 0.6337 0.0
C245 C 0.29008 0.11089 0.61615 0.0
C246 C 0.26366 0.06887 0.68792 0.0
C247 C 0.27829 0.10289 0.69951 0.0
C248 C 0.26095 0.07511 0.67039 0.0
C249 C 0.27306 0.11559 0.66395 0.0
C250 C 0.28645 0.14941 0.67561 0.0
C251 C 0.2889 0.14309 0.69319 0.0
H252 H 0.59717 0.55515 0.03583 0.0
H253 H 0.60615 0.57328 0.09072 0.0
H254 H 0.52078 0.51293 0.03775 0.0
H255 H 0.52935 0.5299 0.0927 0.0
H256 H 0.38929 0.49251 0.08636 0.0
H257 H 0.46616 0.53273 0.08536 0.0
H258 H 0.46525 0.44584 0.04755 0.0
H259 H 0.38829 0.40625 0.04822 0.0
C260 C 0.58287 0.54986 0.04835 0.0
C261 C 0.60781 0.5677 0.06312 0.0
C262 C 0.53899 0.52534 0.04946 0.0
C263 C 0.51884 0.51789 0.06538 0.0
C264 C 0.5438 0.53544 0.0802 0.0
C265 C 0.58783 0.5601 0.07909 0.0
C266 C 0.40547 0.48195 0.07784 0.0
C267 C 0.38261 0.44628 0.0673 0.0
C268 C 0.44961 0.50486 0.07736 0.0
C269 C 0.47195 0.49258 0.06637 0.0
C270 C 0.44905 0.45658 0.05598 0.0
C271 C 0.4049 0.43375 0.05641 0.0
H272 H 0.86065 0.40145 0.4204 0.0
H273 H 0.95175 0.39612 0.387 0.0
H274 H 0.90107 0.47844 0.41986 0.0
H275 H -0.00721 0.4731 0.38684 0.0
H276 H 0.02628 0.6085 0.37387 0.0
H277 H -0.01183 0.53182 0.37547 0.0
H278 H 0.96641 0.53883 0.42938 0.0
H279 H 0.00379 0.61599 0.42767 0.0
C280 C 0.88945 0.41669 0.41303 0.0
C281 C 0.90284 0.39261 0.40366 0.0
C282 C 0.91281 0.46087 0.41282 0.0
C283 C 0.9502 0.48203 0.4033 0.0
C284 C 0.96381 0.45788 0.3941 0.0
C285 C 0.94036 0.4137 0.39425 0.0
C286 C 0.01352 0.59379 0.38611 0.0
C287 C 0.018 0.61842 0.40064 0.0
C288 C -0.00814 0.54972 0.38704 0.0
C289 C -0.02576 0.52907 0.40255 0.0
C290 C -0.02088 0.5537 0.41717 0.0
C291 C 0.00075 0.59792 0.41622 0.0
H292 H 0.34995 0.96551 0.77413 0.0
H293 H 0.46203 0.07314 0.75418 0.0
H294 H 0.38956 0.92839 0.77854 0.0
H295 H 0.50118 0.03579 0.75817 0.0
H296 H 0.57008 0.96796 0.77326 0.0
H297 H 0.53112 0.00567 0.77745 0.0
H298 H 0.41687 0.89612 0.75941 0.0
H299 H 0.45541 0.85824 0.75564 0.0
C300 C 0.38314 -0.01853 0.77088 0.0
C301 C 0.40268 0.02211 0.76361 0.0
C302 C 0.40579 0.96009 0.77332 0.0
C303 C 0.44846 0.97888 0.76854 0.0
C304 C 0.46851 0.02044 0.76216 0.0
C305 C 0.44592 0.04181 0.75975 0.0
C306 C 0.53648 0.95169 0.77048 0.0
C307 C 0.51597 0.91023 0.76392 0.0
C308 C 0.5142 0.97339 0.77279 0.0
C309 C 0.47093 0.95412 0.76861 0.0
C310 C 0.45003 0.91187 0.76294 0.0
C311 C 0.47226 0.89019 0.76065 0.0
H312 H 0.46744 0.34998 0.55596 0.0
H313 H 0.35682 0.34837 0.53463 0.0
H314 H 0.50754 0.42625 0.55257 0.0
H315 H 0.39744 0.42489 0.5308 0.0
H316 H 0.46368 0.55957 0.55515 0.0
H317 H 0.42446 0.48367 0.55033 0.0
H318 H 0.53895 0.48678 0.53407 0.0
H319 H 0.57854 0.56284 0.53936 0.0
C320 C 0.45188 0.36578 0.55019 0.0
C321 C 0.40873 0.34311 0.54581 0.0
C322 C 0.47503 0.40962 0.54813 0.0
C323 C 0.45565 0.43187 0.54155 0.0
C324 C 0.41314 0.40884 0.53619 0.0
C325 C 0.38992 0.36494 0.5383 0.0
C326 C 0.48044 0.54425 0.55029 0.0
C327 C 0.52437 0.56721 0.54789 0.0
C328 C 0.45784 0.50064 0.5474 0.0
C329 C 0.47858 0.47895 0.54196 0.0
C330 C 0.52212 0.50237 0.53856 0.0
C331 C 0.54478 0.54602 0.5415 0.0
H332 H 0.06009 0.42077 0.86738 0.0
H333 H 0.94069 0.33726 0.89132 0.0
H334 H 0.03418 0.46892 0.85963 0.0
H335 H 0.91536 0.38569 0.88406 0.0
H336 H 0.86919 0.46925 0.86357 0.0
H337 H 0.8939 0.41816 0.86256 0.0
H338 H 0.02038 0.51734 0.8752 0.0
H339 H -0.004 0.56845 0.87569 0.0
C340 C 0.02818 0.41244 0.87082 0.0
C341 C 0.00263 0.37537 0.88013 0.0
C342 C 0.01341 0.44016 0.86647 0.0
C343 C -0.0272 0.43146 0.87135 0.0
C344 C 0.94659 0.3933 0.8799 0.0
C345 C 0.96128 0.36558 0.88419 0.0
C346 C 0.90242 0.48028 0.86582 0.0
C347 C 0.93049 0.52285 0.86993 0.0
C348 C 0.91655 0.45093 0.86534 0.0
C349 C 0.95903 0.46344 0.86903 0.0
C350 C -0.01247 0.50652 0.87214 0.0
C351 C -0.02654 0.53588 0.87253 0.0
H352 H 0.38435 0.06568 0.2212 0.0
H353 H 0.36104 0.9511 0.19546 0.0
H354 H 0.45993 0.09395 0.21847 0.0
H355 H 0.43706 0.97998 0.19232 0.0
H356 H 0.56912 0.0197 0.2166 0.0
H357 H 0.49414 -0.00673 0.21178 0.0
H358 H 0.52006 0.1199 0.20002 0.0
H359 H 0.59515 0.14658 0.2053 0.0
C360 C 0.39532 0.04681 0.21465 0.0
C361 C 0.36661 0.00591 0.20874 0.0
C362 C 0.43879 0.0632 0.21296 0.0
C363 C 0.4547 0.03916 0.20526 0.0
C364 C 0.4259 -0.00093 0.19855 0.0
C365 C 0.38231 -0.01738 0.20027 0.0
C366 C 0.55896 0.04187 0.21273 0.0
C367 C 0.58811 0.08537 0.21158 0.0
C368 C 0.51589 0.02663 0.20985 0.0
C369 C 0.50093 0.05451 0.20568 0.0
C370 C 0.53041 0.09767 0.20353 0.0
C371 C 0.57351 0.11294 0.20647 0.0
H372 H 0.87854 0.27966 0.19725 0.0
H373 H 0.82595 0.1474 0.18473 0.0
H374 H 0.93343 0.29804 0.17602 0.0
H375 H 0.88 0.16583 0.16305 0.0
H376 H 0.01032 0.21087 0.1395 0.0
H377 H 0.9535 0.19096 0.15994 0.0
H378 H 0.94553 0.30177 0.14604 0.0
H379 H 0.0034 0.32239 0.12603 0.0
C380 C 0.87853 0.2545 0.18988 0.0
C381 C 0.84792 0.21205 0.19272 0.0
C382 C 0.90985 0.26506 0.17759 0.0
C383 C 0.91119 0.23347 0.16772 0.0
C384 C 0.88039 0.19098 0.17055 0.0
C385 C 0.84924 0.1804 0.18294 0.0
C386 C -0.00374 0.23084 0.14073 0.0
C387 C 0.01153 0.26831 0.13118 0.0
C388 C 0.96348 0.21932 0.15241 0.0
C389 C 0.94493 0.24482 0.15475 0.0
C390 C 0.95956 0.28176 0.14485 0.0
C391 C -0.00745 0.29344 0.13326 0.0
H392 H 0.58512 0.84909 0.5246 0.0
H393 H 0.68583 0.82421 0.51195 0.0
H394 H 0.6142 0.90894 0.50504 0.0
H395 H 0.7141 0.88309 0.49186 0.0
H396 H 0.7801 0.01992 0.47286 0.0
H397 H 0.75026 0.95791 0.49127 0.0
H398 H 0.62441 0.92868 0.4758 0.0
H399 H 0.65437 -0.00829 0.4579 0.0
C400 C 0.61325 0.85614 0.5175 0.0
C401 C 0.63325 0.83199 0.51988 0.0
C402 C 0.62981 0.89034 0.50617 0.0
C403 C 0.66657 0.90099 0.49682 0.0
C404 C 0.68618 0.87634 0.49904 0.0
C405 C 0.66983 0.84239 0.5105 0.0
C406 C 0.74606 0.00013 0.47332 0.0
C407 C 0.71961 0.01085 0.46397 0.0
C408 C 0.7289 0.96437 0.48382 0.0
C409 C 0.68484 0.93819 0.4851 0.0
C410 C 0.65844 0.94847 0.47541 0.0
C411 C 0.67562 -0.01552 0.46504 0.0
H412 H 0.73656 0.82649 0.80024 0.0
H413 H 0.63597 0.70024 0.78847 0.0
H414 H 0.7707 0.79722 0.81823 0.0
H415 H 0.67084 0.67082 0.80591 0.0
H416 H 0.72151 0.63232 0.85197 0.0
H417 H 0.68686 0.66205 0.83456 0.0
H418 H 0.80869 0.76018 0.81708 0.0
H419 H 0.8433 0.7313 0.83501 0.0
C420 C 0.72188 0.79245 0.8014 0.0
C421 C 0.68352 0.76571 0.79294 0.0
C422 C 0.74161 0.7756 0.81164 0.0
C423 C 0.72367 0.73156 0.81354 0.0
C424 C 0.6853 0.70487 0.80501 0.0
C425 C 0.66538 0.72174 0.7949 0.0
C426 C 0.74089 0.66025 0.84441 0.0
C427 C 0.78517 0.67946 0.84489 0.0
C428 C 0.721 0.6772 0.83433 0.0
C429 C 0.74488 0.71357 0.82435 0.0
C430 C 0.78923 0.7326 0.82479 0.0
C431 C 0.80912 0.71586 0.835 0.0
H432 H 0.90465 0.63802 0.12649 0.0
H433 H 0.93062 0.76408 0.1137 0.0
H434 H 0.96343 0.66743 0.14688 0.0
H435 H -0.00957 0.79365 0.13352 0.0
H436 H 0.06931 0.83353 0.18219 0.0
H437 H 0.00855 0.8024 0.16284 0.0
H438 H 0.0379 0.70502 0.14906 0.0
H439 H 0.09762 0.73527 0.16898 0.0
C440 C 0.92314 0.67205 0.12794 0.0
C441 C 0.91289 0.6987 0.1185 0.0
C442 C 0.95706 0.68898 0.13957 0.0
C443 C -0.01814 0.73302 0.14193 0.0
C444 C -0.02833 0.7596 0.13234 0.0
C445 C 0.93749 0.74264 0.12086 0.0
C446 C 0.06268 0.80538 0.17507 0.0
C447 C 0.08832 0.78691 0.17713 0.0
C448 C 0.02796 0.78765 0.16386 0.0
C449 C 0.01825 0.75123 0.15425 0.0
C450 C 0.04389 0.73266 0.1564 0.0
C451 C 0.07835 0.75016 0.16776 0.0
H452 H 0.26016 0.90597 0.44947 0.0
H453 H 0.13152 0.87547 0.45883 0.0
H454 H 0.28533 0.96279 0.47052 0.0
H455 H 0.15645 0.93119 0.48038 0.0
H456 H 0.21744 0.06133 0.5056 0.0
H457 H 0.19229 0.00536 0.48416 0.0
H458 H 0.28861 0.976 0.50028 0.0
H459 H 0.31468 0.03308 0.52125 0.0
C460 C 0.23722 0.91125 0.4561 0.0
C461 C 0.19384 0.88621 0.45244 0.0
C462 C 0.25163 0.94368 0.46829 0.0
C463 C 0.22299 0.95166 0.47727 0.0
C464 C 0.17955 0.92652 0.47357 0.0
C465 C 0.16519 0.89435 0.46126 0.0
C466 C 0.23319 0.04287 0.50458 0.0
C467 C 0.26812 0.05174 0.51512 0.0
C468 C 0.21862 0.01055 0.49233 0.0
C469 C 0.23836 -0.01401 0.49041 0.0
C470 C 0.27304 -0.00535 0.50113 0.0
C471 C 0.28784 0.02723 0.51327 0.0
H472 H 0.19834 0.13975 0.79009 0.0
H473 H 0.32924 0.2275 0.80201 0.0
H474 H 0.17656 0.17457 0.81094 0.0
H475 H 0.30761 0.26126 0.82345 0.0
H476 H 0.25594 0.33843 0.849 0.0
H477 H 0.27818 0.30506 0.82765 0.0
H478 H 0.17182 0.18317 0.84045 0.0
H479 H 0.14869 0.21697 0.86123 0.0
C480 C 0.22249 0.16636 0.79724 0.0
C481 C 0.26552 0.18086 0.79437 0.0
C482 C 0.21001 0.18619 0.80933 0.0
C483 C 0.24024 0.22071 0.81904 0.0
C484 C 0.28335 0.23524 0.81608 0.0
C485 C 0.29581 0.21572 0.80383 0.0
C486 C 0.23739 0.30449 0.84727 0.0
C487 C 0.20048 0.28038 0.85679 0.0
C488 C 0.25026 0.28524 0.83507 0.0
C489 C 0.22682 0.24129 0.8322 0.0
C490 C 0.19027 0.21716 0.84198 0.0
C491 C 0.17713 0.2365 0.85403 0.0
loop_
_geom_bond_atom_site_label_1
_geom_bond_atom_site_label_2
_geom_bond_distance
_geom_bond_site_symmetry_2
_ccdc_geom_bond_type
O0 Cd1 2.300 . S
O0 C7 1.275 . S
Cd1 O0 2.300 . S
Cd1 O9 2.381 . S
Cd1 O10 2.378 . S
O2 Cd3 2.385 . S
O2 C7 1.255 . S
Cd3 O2 2.385 . S
Cd3 O4 2.317 . S
O4 Cd3 2.317 . S
O4 C5 1.232 . S
C5 O4 1.232 . S
C5 O6 1.218 . S
O6 C5 1.218 . S
C7 O0 1.275 . S
C7 O2 1.255 . S
C8 O9 1.258 . S
C8 O10 1.256 . S
O9 Cd1 2.381 . S
O9 C8 1.258 . S
O10 Cd1 2.378 . S
O10 C8 1.256 . S
O11 Cd12 2.300 . S
O11 C18 1.275 . S
Cd12 O11 2.300 . S
Cd12 O20 2.381 . S
Cd12 O21 2.378 . S
O13 Cd14 2.385 . S
O13 C18 1.255 . S
Cd14 O13 2.385 . S
Cd14 O15 2.317 . S
O15 Cd14 2.317 . S
O15 C16 1.232 . S
C16 O15 1.232 . S
C16 O17 1.218 . S
O17 C16 1.218 . S
C18 O11 1.275 . S
C18 O13 1.255 . S
C19 O20 1.258 . S
C19 O21 1.256 . S
O20 Cd12 2.381 . S
O20 C19 1.258 . S
O21 Cd12 2.378 . S
O21 C19 1.256 . S
O22 Cd23 2.300 . S
O22 C29 1.275 . S
Cd23 O22 2.300 . S
Cd23 O31 2.381 . S
Cd23 O32 2.378 . S
O24 Cd25 2.385 . S
O24 C29 1.255 . S
Cd25 O24 2.385 . S
Cd25 O26 2.317 . S
O26 Cd25 2.317 . S
O26 C27 1.232 . S
C27 O26 1.232 . S
C27 O28 1.218 . S
O28 C27 1.218 . S
C29 O22 1.275 . S
C29 O24 1.255 . S
C30 O31 1.258 . S
C30 O32 1.256 . S
O31 Cd23 2.381 . S
O31 C30 1.258 . S
O32 Cd23 2.378 . S
O32 C30 1.256 . S
O33 Cd34 2.300 . S
O33 C40 1.275 . S
Cd34 O33 2.300 . S
Cd34 O42 2.381 . S
Cd34 O43 2.378 . S
O35 Cd36 2.385 . S
O35 C40 1.255 . S
Cd36 O35 2.385 . S
Cd36 O37 2.317 . S
O37 Cd36 2.317 . S
O37 C38 1.232 . S
C38 O37 1.232 . S
C38 O39 1.218 . S
O39 C38 1.218 . S
C40 O33 1.275 . S
C40 O35 1.255 . S
C41 O42 1.258 . S
C41 O43 1.256 . S
O42 Cd34 2.381 . S
O42 C41 1.258 . S
O43 Cd34 2.378 . S
O43 C41 1.256 . S
O44 Cd45 2.300 . S
O44 C51 1.275 . S
Cd45 O44 2.300 . S
Cd45 O53 2.381 . S
Cd45 O54 2.378 . S
O46 Cd47 2.385 . S
O46 C51 1.255 . S
Cd47 O46 2.385 . S
Cd47 O48 2.317 . S
O48 Cd47 2.317 . S
O48 C49 1.232 . S
C49 O48 1.232 . S
C49 O50 1.218 . S
O50 C49 1.218 . S
C51 O44 1.275 . S
C51 O46 1.255 . S
C52 O53 1.258 . S
C52 O54 1.256 . S
O53 Cd45 2.381 . S
O53 C52 1.258 . S
O54 Cd45 2.378 . S
O54 C52 1.256 . S
O55 Cd56 2.300 . S
O55 C62 1.275 . S
Cd56 O55 2.300 . S
Cd56 O64 2.381 . S
Cd56 O65 2.378 . S
O57 Cd58 2.385 . S
O57 C62 1.255 . S
Cd58 O57 2.385 . S
Cd58 O59 2.317 . S
O59 Cd58 2.317 . S
O59 C60 1.232 . S
C60 O59 1.232 . S
C60 O61 1.218 . S
O61 C60 1.218 . S
C62 O55 1.275 . S
C62 O57 1.255 . S
C63 O64 1.258 . S
C63 O65 1.256 . S
O64 Cd56 2.381 . S
O64 C63 1.258 . S
O65 Cd56 2.378 . S
O65 C63 1.256 . S
O66 Cd67 2.300 . S
O66 C73 1.275 . S
Cd67 O66 2.300 . S
Cd67 O75 2.381 . S
Cd67 O76 2.378 . S
O68 Cd69 2.385 . S
O68 C73 1.255 . S
Cd69 O68 2.385 . S
Cd69 O70 2.317 . S
O70 Cd69 2.317 . S
O70 C71 1.232 . S
C71 O70 1.232 . S
C71 O72 1.218 . S
O72 C71 1.218 . S
C73 O66 1.275 . S
C73 O68 1.255 . S
C74 O75 1.258 . S
C74 O76 1.256 . S
O75 Cd67 2.381 . S
O75 C74 1.258 . S
O76 Cd67 2.378 . S
O76 C74 1.256 . S
O77 Cd78 2.300 . S
O77 C84 1.275 . S
Cd78 O77 2.300 . S
Cd78 O86 2.381 . S
Cd78 O87 2.378 . S
O79 Cd80 2.385 . S
O79 C84 1.255 . S
Cd80 O79 2.385 . S
Cd80 O81 2.317 . S
O81 Cd80 2.317 . S
O81 C82 1.232 . S
C82 O81 1.232 . S
C82 O83 1.218 . S
O83 C82 1.218 . S
C84 O77 1.275 . S
C84 O79 1.255 . S
C85 O86 1.258 . S
C85 O87 1.256 . S
O86 Cd78 2.381 . S
O86 C85 1.258 . S
O87 Cd78 2.378 . S
O87 C85 1.256 . S
O88 Cd89 2.300 . S
O88 C95 1.275 . S
Cd89 O88 2.300 . S
Cd89 O97 2.381 . S
Cd89 O98 2.378 . S
O90 Cd91 2.385 . S
O90 C95 1.255 . S
Cd91 O90 2.385 . S
Cd91 O92 2.317 . S
O92 Cd91 2.317 . S
O92 C93 1.232 . S
C93 O92 1.232 . S
C93 O94 1.218 . S
O94 C93 1.218 . S
C95 O88 1.275 . S
C95 O90 1.255 . S
C96 O97 1.258 . S
C96 O98 1.256 . S
O97 Cd89 2.381 . S
O97 C96 1.258 . S
O98 Cd89 2.378 . S
O98 C96 1.256 . S
O99 Cd100 2.300 . S
O99 C106 1.275 . S
Cd100 O99 2.300 . S
Cd100 O108 2.381 . S
Cd100 O109 2.378 . S
O101 Cd102 2.385 . S
O101 C106 1.255 . S
Cd102 O101 2.385 . S
Cd102 O103 2.317 . S
O103 Cd102 2.317 . S
O103 C104 1.232 . S
C104 O103 1.232 . S
C104 O105 1.218 . S
O105 C104 1.218 . S
C106 O99 1.275 . S
C106 O101 1.255 . S
C107 O108 1.258 . S
C107 O109 1.256 . S
O108 Cd100 2.381 . S
O108 C107 1.258 . S
O109 Cd100 2.378 . S
O109 C107 1.256 . S
O110 Cd111 2.300 . S
O110 C117 1.275 . S
Cd111 O110 2.300 . S
Cd111 O119 2.381 . S
Cd111 O120 2.378 . S
O112 Cd113 2.385 . S
O112 C117 1.255 . S
Cd113 O112 2.385 . S
Cd113 O114 2.317 . S
O114 Cd113 2.317 . S
O114 C115 1.232 . S
C115 O114 1.232 . S
C115 O116 1.218 . S
O116 C115 1.218 . S
C117 O110 1.275 . S
C117 O112 1.255 . S
C118 O119 1.258 . S
C118 O120 1.256 . S
O119 Cd111 2.381 . S
O119 C118 1.258 . S
O120 Cd111 2.378 . S
O120 C118 1.256 . S
O121 Cd122 2.300 . S
O121 C128 1.275 . S
Cd122 O121 2.300 . S
Cd122 O130 2.381 . S
Cd122 O131 2.378 . S
O123 Cd124 2.385 . S
O123 C128 1.255 . S
Cd124 O123 2.385 . S
Cd124 O125 2.317 . S
O125 Cd124 2.317 . S
O125 C126 1.232 . S
C126 O125 1.232 . S
C126 O127 1.218 . S
O127 C126 1.218 . S
C128 O121 1.275 . S
C128 O123 1.255 . S
C129 O130 1.258 . S
C129 O131 1.256 . S
O130 Cd122 2.381 . S
O130 C129 1.258 . S
O131 Cd122 2.378 . S
O131 C129 1.256 . S
H132 C140 0.950 . S
H133 C145 0.950 . S
H134 C142 0.950 . S
H135 C144 0.950 . S
H136 C146 0.950 . S
H137 C148 0.950 . S
H138 C150 0.950 . S
H139 C151 0.950 . S
C140 H132 0.950 . S
C140 C141 1.386 . S
C140 C142 1.391 . S
C141 C140 1.386 . S
C141 C145 1.393 . S
C142 H134 0.950 . S
C142 C140 1.391 . S
C142 C143 1.400 . S
C143 C142 1.400 . S
C143 C144 1.398 . S
C143 C149 1.491 1_556 S
C144 H135 0.950 . S
C144 C143 1.398 . S
C144 C145 1.391 . S
C145 H133 0.950 . S
C145 C141 1.393 . S
C145 C144 1.391 . S
C146 H136 0.950 . S
C146 C147 1.386 . S
C146 C148 1.391 . S
C147 C146 1.386 . S
C147 C151 1.393 . S
C148 H137 0.950 . S
C148 C146 1.391 . S
C148 C149 1.400 . S
C149 C143 1.491 1_554 S
C149 C148 1.400 . S
C149 C150 1.398 . S
C150 H138 0.950 . S
C150 C149 1.398 . S
C150 C151 1.391 . S
C151 H139 0.950 . S
C151 C147 1.393 . S
C151 C150 1.391 . S
H152 C160 0.950 . S
H153 C165 0.950 . S
H154 C162 0.950 . S
H155 C164 0.950 . S
H156 C166 0.950 . S
H157 C168 0.950 . S
H158 C170 0.950 . S
H159 C171 0.950 . S
C160 H152 0.950 . S
C160 C161 1.386 . S
C160 C162 1.391 . S
C161 C160 1.386 . S
C161 C165 1.393 . S
C162 H154 0.950 . S
C162 C160 1.391 . S
C162 C163 1.400 . S
C163 C162 1.400 . S
C163 C164 1.398 . S
C163 C169 1.491 . S
C164 H155 0.950 . S
C164 C163 1.398 . S
C164 C165 1.391 . S
C165 H153 0.950 . S
C165 C161 1.393 . S
C165 C164 1.391 . S
C166 H156 0.950 . S
C166 C167 1.386 . S
C166 C168 1.391 . S
C167 C166 1.386 . S
C167 C171 1.393 . S
C168 H157 0.950 . S
C168 C166 1.391 . S
C168 C169 1.400 . S
C169 C163 1.491 . S
C169 C168 1.400 . S
C169 C170 1.398 . S
C170 H158 0.950 . S
C170 C169 1.398 . S
C170 C171 1.391 . S
C171 H159 0.950 . S
C171 C167 1.393 . S
C171 C170 1.391 . S
H172 C180 0.950 . S
H173 C185 0.950 . S
H174 C182 0.950 . S
H175 C184 0.950 . S
H176 C186 0.950 . S
H177 C188 0.950 . S
H178 C190 0.950 . S
H179 C191 0.950 . S
C180 H172 0.950 . S
C180 C181 1.386 . S
C180 C182 1.391 . S
C181 C180 1.386 . S
C181 C185 1.393 . S
C182 H174 0.950 . S
C182 C180 1.391 . S
C182 C183 1.400 . S
C183 C182 1.400 . S
C183 C184 1.398 . S
C183 C189 1.491 . S
C184 H175 0.950 . S
C184 C183 1.398 . S
C184 C185 1.391 . S
C185 H173 0.950 . S
C185 C181 1.393 . S
C185 C184 1.391 . S
C186 H176 0.950 . S
C186 C187 1.386 . S
C186 C188 1.391 . S
C187 C186 1.386 . S
C187 C191 1.393 . S
C188 H177 0.950 . S
C188 C186 1.391 . S
C188 C189 1.400 . S
C189 C183 1.491 . S
C189 C188 1.400 . S
C189 C190 1.398 . S
C190 H178 0.950 . S
C190 C189 1.398 . S
C190 C191 1.391 . S
C191 H179 0.950 . S
C191 C187 1.393 . S
C191 C190 1.391 . S
H192 C200 0.950 . S
H193 C205 0.950 . S
H194 C202 0.950 . S
H195 C204 0.950 . S
H196 C206 0.950 . S
H197 C208 0.950 . S
H198 C210 0.950 . S
H199 C211 0.950 . S
C200 H192 0.950 . S
C200 C201 1.386 . S
C200 C202 1.391 . S
C201 C200 1.386 . S
C201 C205 1.393 . S
C202 H194 0.950 . S
C202 C200 1.391 . S
C202 C203 1.400 . S
C203 C202 1.400 . S
C203 C204 1.398 . S
C203 C209 1.491 1_554 S
C204 H195 0.950 . S
C204 C203 1.398 . S
C204 C205 1.391 . S
C205 H193 0.950 . S
C205 C201 1.393 . S
C205 C204 1.391 . S
C206 H196 0.950 . S
C206 C207 1.386 . S
C206 C208 1.391 . S
C207 C206 1.386 . S
C207 C211 1.393 . S
C208 H197 0.950 . S
C208 C206 1.391 . S
C208 C209 1.400 . S
C209 C203 1.491 1_556 S
C209 C208 1.400 . S
C209 C210 1.398 . S
C210 H198 0.950 . S
C210 C209 1.398 . S
C210 C211 1.391 . S
C211 H199 0.950 . S
C211 C207 1.393 . S
C211 C210 1.391 . S
H212 C220 0.950 . S
H213 C225 0.950 . S
H214 C222 0.950 . S
H215 C224 0.950 . S
H216 C226 0.950 . S
H217 C228 0.950 . S
H218 C230 0.950 . S
H219 C231 0.950 . S
C220 H212 0.950 . S
C220 C221 1.386 . S
C220 C222 1.391 . S
C221 C220 1.386 . S
C221 C225 1.393 . S
C222 H214 0.950 . S
C222 C220 1.391 . S
C222 C223 1.400 . S
C223 C222 1.400 . S
C223 C224 1.398 . S
C223 C229 1.491 . S
C224 H215 0.950 . S
C224 C223 1.398 . S
C224 C225 1.391 . S
C225 H213 0.950 . S
C225 C221 1.393 . S
C225 C224 1.391 . S
C226 H216 0.950 . S
C226 C227 1.386 . S
C226 C228 1.391 . S
C227 C226 1.386 . S
C227 C231 1.393 . S
C228 H217 0.950 . S
C228 C226 1.391 . S
C228 C229 1.400 . S
C229 C223 1.491 . S
C229 C228 1.400 . S
C229 C230 1.398 . S
C230 H218 0.950 . S
C230 C229 1.398 . S
C230 C231 1.391 . S
C231 H219 0.950 . S
C231 C227 1.393 . S
C231 C230 1.391 . S
H232 C240 0.950 . S
H233 C245 0.950 . S
H234 C242 0.950 . S
H235 C244 0.950 . S
H236 C246 0.950 . S
H237 C248 0.950 . S
H238 C250 0.950 . S
H239 C251 0.950 . S
C240 H232 0.950 . S
C240 C241 1.386 . S
C240 C242 1.391 . S
C241 C240 1.386 . S
C241 C245 1.393 . S
C242 H234 0.950 . S
C242 C240 1.391 . S
C242 C243 1.400 . S
C243 C242 1.400 . S
C243 C244 1.398 . S
C243 C249 1.491 . S
C244 H235 0.950 . S
C244 C243 1.398 . S
C244 C245 1.391 . S
C245 H233 0.950 . S
C245 C241 1.393 . S
C245 C244 1.391 . S
C246 H236 0.950 . S
C246 C247 1.386 . S
C246 C248 1.391 . S
C247 C246 1.386 . S
C247 C251 1.393 . S
C248 H237 0.950 . S
C248 C246 1.391 . S
C248 C249 1.400 . S
C249 C243 1.491 . S
C249 C248 1.400 . S
C249 C250 1.398 . S
C250 H238 0.950 . S
C250 C249 1.398 . S
C250 C251 1.391 . S
C251 H239 0.950 . S
C251 C247 1.393 . S
C251 C250 1.391 . S
H252 C260 0.950 . S
H253 C265 0.950 . S
H254 C262 0.950 . S
H255 C264 0.950 . S
H256 C266 0.950 . S
H257 C268 0.950 . S
H258 C270 0.950 . S
H259 C271 0.950 . S
C260 H252 0.950 . S
C260 C261 1.386 . S
C260 C262 1.391 . S
C261 C260 1.386 . S
C261 C265 1.393 . S
C262 H254 0.950 . S
C262 C260 1.391 . S
C262 C263 1.400 . S
C263 C262 1.400 . S
C263 C264 1.398 . S
C263 C269 1.491 . S
C264 H255 0.950 . S
C264 C263 1.398 . S
C264 C265 1.391 . S
C265 H253 0.950 . S
C265 C261 1.393 . S
C265 C264 1.391 . S
C266 H256 0.950 . S
C266 C267 1.386 . S
C266 C268 1.391 . S
C267 C266 1.386 . S
C267 C271 1.393 . S
C268 H257 0.950 . S
C268 C266 1.391 . S
C268 C269 1.400 . S
C269 C263 1.491 . S
C269 C268 1.400 . S
C269 C270 1.398 . S
C270 H258 0.950 . S
C270 C269 1.398 . S
C270 C271 1.391 . S
C271 H259 0.950 . S
C271 C267 1.393 . S
C271 C270 1.391 . S
H272 C280 0.950 . S
H273 C285 0.950 . S
H274 C282 0.950 . S
H275 C284 0.950 1_455 S
H276 C286 0.950 . S
H277 C288 0.950 . S
H278 C290 0.950 1_655 S
H279 C291 0.950 . S
C280 H272 0.950 . S
C280 C281 1.386 . S
C280 C282 1.391 . S
C281 C280 1.386 . S
C281 C285 1.393 . S
C282 H274 0.950 . S
C282 C280 1.391 . S
C282 C283 1.400 . S
C283 C282 1.400 . S
C283 C284 1.398 . S
C283 C289 1.491 1_655 S
C284 H275 0.950 1_655 S
C284 C283 1.398 . S
C284 C285 1.391 . S
C285 H273 0.950 . S
C285 C281 1.393 . S
C285 C284 1.391 . S
C286 H276 0.950 . S
C286 C287 1.386 . S
C286 C288 1.391 . S
C287 C286 1.386 . S
C287 C291 1.393 . S
C288 H277 0.950 . S
C288 C286 1.391 . S
C288 C289 1.400 . S
C289 C283 1.491 1_455 S
C289 C288 1.400 . S
C289 C290 1.398 . S
C290 H278 0.950 1_455 S
C290 C289 1.398 . S
C290 C291 1.391 . S
C291 H279 0.950 . S
C291 C287 1.393 . S
C291 C290 1.391 . S
H292 C300 0.950 . S
H293 C305 0.950 . S
H294 C302 0.950 1_565 S
H295 C304 0.950 . S
H296 C306 0.950 . S
H297 C308 0.950 1_545 S
H298 C310 0.950 . S
H299 C311 0.950 . S
C300 H292 0.950 . S
C300 C301 1.386 . S
C300 C302 1.391 . S
C301 C300 1.386 . S
C301 C305 1.393 . S
C302 H294 0.950 1_545 S
C302 C300 1.391 . S
C302 C303 1.400 . S
C303 C302 1.400 . S
C303 C304 1.398 . S
C303 C309 1.491 1_545 S
C304 H295 0.950 . S
C304 C303 1.398 . S
C304 C305 1.391 . S
C305 H293 0.950 . S
C305 C301 1.393 . S
C305 C304 1.391 . S
C306 H296 0.950 . S
C306 C307 1.386 . S
C306 C308 1.391 . S
C307 C306 1.386 . S
C307 C311 1.393 . S
C308 H297 0.950 1_565 S
C308 C306 1.391 . S
C308 C309 1.400 . S
C309 C303 1.491 1_565 S
C309 C308 1.400 . S
C309 C310 1.398 . S
C310 H298 0.950 . S
C310 C309 1.398 . S
C310 C311 1.391 . S
C311 H299 0.950 . S
C311 C307 1.393 . S
C311 C310 1.391 . S
H312 C320 0.950 . S
H313 C325 0.950 . S
H314 C322 0.950 . S
H315 C324 0.950 . S
H316 C326 0.950 . S
H317 C328 0.950 . S
H318 C330 0.950 . S
H319 C331 0.950 . S
C320 H312 0.950 . S
C320 C321 1.386 . S
C320 C322 1.391 . S
C321 C320 1.386 . S
C321 C325 1.393 . S
C322 H314 0.950 . S
C322 C320 1.391 . S
C322 C323 1.400 . S
C323 C322 1.400 . S
C323 C324 1.398 . S
C323 C329 1.491 . S
C324 H315 0.950 . S
C324 C323 1.398 . S
C324 C325 1.391 . S
C325 H313 0.950 . S
C325 C321 1.393 . S
C325 C324 1.391 . S
C326 H316 0.950 . S
C326 C327 1.386 . S
C326 C328 1.391 . S
C327 C326 1.386 . S
C327 C331 1.393 . S
C328 H317 0.950 . S
C328 C326 1.391 . S
C328 C329 1.400 . S
C329 C323 1.491 . S
C329 C328 1.400 . S
C329 C330 1.398 . S
C330 H318 0.950 . S
C330 C329 1.398 . S
C330 C331 1.391 . S
C331 H319 0.950 . S
C331 C327 1.393 . S
C331 C330 1.391 . S
H332 C340 0.950 . S
H333 C345 0.950 . S
H334 C342 0.950 . S
H335 C344 0.950 1_655 S
H336 C346 0.950 . S
H337 C348 0.950 . S
H338 C350 0.950 1_455 S
H339 C351 0.950 . S
C340 H332 0.950 . S
C340 C341 1.386 . S
C340 C342 1.391 . S
C341 C340 1.386 . S
C341 C345 1.393 . S
C342 H334 0.950 . S
C342 C340 1.391 . S
C342 C343 1.400 . S
C343 C342 1.400 . S
C343 C344 1.398 . S
C343 C349 1.491 1_455 S
C344 H335 0.950 1_455 S
C344 C343 1.398 . S
C344 C345 1.391 . S
C345 H333 0.950 . S
C345 C341 1.393 . S
C345 C344 1.391 . S
C346 H336 0.950 . S
C346 C347 1.386 . S
C346 C348 1.391 . S
C347 C346 1.386 . S
C347 C351 1.393 . S
C348 H337 0.950 . S
C348 C346 1.391 . S
C348 C349 1.400 . S
C349 C343 1.491 1_655 S
C349 C348 1.400 . S
C349 C350 1.398 . S
C350 H338 0.950 1_655 S
C350 C349 1.398 . S
C350 C351 1.391 . S
C351 H339 0.950 . S
C351 C347 1.393 . S
C351 C350 1.391 . S
H352 C360 0.950 . S
H353 C365 0.950 . S
H354 C362 0.950 1_545 S
H355 C364 0.950 . S
H356 C366 0.950 . S
H357 C368 0.950 1_565 S
H358 C370 0.950 . S
H359 C371 0.950 . S
C360 H352 0.950 . S
C360 C361 1.386 . S
C360 C362 1.391 . S
C361 C360 1.386 . S
C361 C365 1.393 . S
C362 H354 0.950 1_565 S
C362 C360 1.391 . S
C362 C363 1.400 . S
C363 C362 1.400 . S
C363 C364 1.398 . S
C363 C369 1.491 1_565 S
C364 H355 0.950 . S
C364 C363 1.398 . S
C364 C365 1.391 . S
C365 H353 0.950 . S
C365 C361 1.393 . S
C365 C364 1.391 . S
C366 H356 0.950 . S
C366 C367 1.386 . S
C366 C368 1.391 . S
C367 C366 1.386 . S
C367 C371 1.393 . S
C368 H357 0.950 1_545 S
C368 C366 1.391 . S
C368 C369 1.400 . S
C369 C363 1.491 1_545 S
C369 C368 1.400 . S
C369 C370 1.398 . S
C370 H358 0.950 . S
C370 C369 1.398 . S
C370 C371 1.391 . S
C371 H359 0.950 . S
C371 C367 1.393 . S
C371 C370 1.391 . S
H372 C380 0.950 . S
H373 C385 0.950 . S
H374 C382 0.950 . S
H375 C384 0.950 . S
H376 C386 0.950 . S
H377 C388 0.950 . S
H378 C390 0.950 . S
H379 C391 0.950 . S
C380 H372 0.950 . S
C380 C381 1.386 . S
C380 C382 1.391 . S
C381 C380 1.386 . S
C381 C385 1.393 . S
C382 H374 0.950 . S
C382 C380 1.391 . S
C382 C383 1.400 . S
C383 C382 1.400 . S
C383 C384 1.398 . S
C383 C389 1.491 1_655 S
C384 H375 0.950 . S
C384 C383 1.398 . S
C384 C385 1.391 . S
C385 H373 0.950 . S
C385 C381 1.393 . S
C385 C384 1.391 . S
C386 H376 0.950 . S
C386 C387 1.386 . S
C386 C388 1.391 . S
C387 C386 1.386 . S
C387 C391 1.393 . S
C388 H377 0.950 . S
C388 C386 1.391 . S
C388 C389 1.400 . S
C389 C383 1.491 1_455 S
C389 C388 1.400 . S
C389 C390 1.398 . S
C390 H378 0.950 . S
C390 C389 1.398 . S
C390 C391 1.391 . S
C391 H379 0.950 . S
C391 C387 1.393 . S
C391 C390 1.391 . S
H392 C400 0.950 . S
H393 C405 0.950 . S
H394 C402 0.950 . S
H395 C404 0.950 . S
H396 C406 0.950 . S
H397 C408 0.950 . S
H398 C410 0.950 . S
H399 C411 0.950 . S
C400 H392 0.950 . S
C400 C401 1.386 . S
C400 C402 1.391 . S
C401 C400 1.386 . S
C401 C405 1.393 . S
C402 H394 0.950 . S
C402 C400 1.391 . S
C402 C403 1.400 . S
C403 C402 1.400 . S
C403 C404 1.398 . S
C403 C409 1.491 1_565 S
C404 H395 0.950 . S
C404 C403 1.398 . S
C404 C405 1.391 . S
C405 H393 0.950 . S
C405 C401 1.393 . S
C405 C404 1.391 . S
C406 H396 0.950 . S
C406 C407 1.386 . S
C406 C408 1.391 . S
C407 C406 1.386 . S
C407 C411 1.393 . S
C408 H397 0.950 . S
C408 C406 1.391 . S
C408 C409 1.400 . S
C409 C403 1.491 1_545 S
C409 C408 1.400 . S
C409 C410 1.398 . S
C410 H398 0.950 . S
C410 C409 1.398 . S
C410 C411 1.391 . S
C411 H399 0.950 . S
C411 C407 1.393 . S
C411 C410 1.391 . S
H412 C420 0.950 . S
H413 C425 0.950 . S
H414 C422 0.950 . S
H415 C424 0.950 . S
H416 C426 0.950 . S
H417 C428 0.950 . S
H418 C430 0.950 . S
H419 C431 0.950 . S
C420 H412 0.950 . S
C420 C421 1.386 . S
C420 C422 1.391 . S
C421 C420 1.386 . S
C421 C425 1.393 . S
C422 H414 0.950 . S
C422 C420 1.391 . S
C422 C423 1.400 . S
C423 C422 1.400 . S
C423 C424 1.398 . S
C423 C429 1.491 . S
C424 H415 0.950 . S
C424 C423 1.398 . S
C424 C425 1.391 . S
C425 H413 0.950 . S
C425 C421 1.393 . S
C425 C424 1.391 . S
C426 H416 0.950 . S
C426 C427 1.386 . S
C426 C428 1.391 . S
C427 C426 1.386 . S
C427 C431 1.393 . S
C428 H417 0.950 . S
C428 C426 1.391 . S
C428 C429 1.400 . S
C429 C423 1.491 . S
C429 C428 1.400 . S
C429 C430 1.398 . S
C430 H418 0.950 . S
C430 C429 1.398 . S
C430 C431 1.391 . S
C431 H419 0.950 . S
C431 C427 1.393 . S
C431 C430 1.391 . S
H432 C440 0.950 . S
H433 C445 0.950 . S
H434 C442 0.950 1_455 S
H435 C444 0.950 . S
H436 C446 0.950 . S
H437 C448 0.950 1_655 S
H438 C450 0.950 . S
H439 C451 0.950 . S
C440 H432 0.950 . S
C440 C441 1.386 . S
C440 C442 1.391 . S
C441 C440 1.386 . S
C441 C445 1.393 . S
C442 H434 0.950 1_655 S
C442 C440 1.391 . S
C442 C443 1.400 . S
C443 C442 1.400 . S
C443 C444 1.398 . S
C443 C449 1.491 1_655 S
C444 H435 0.950 . S
C444 C443 1.398 . S
C444 C445 1.391 . S
C445 H433 0.950 . S
C445 C441 1.393 . S
C445 C444 1.391 . S
C446 H436 0.950 . S
C446 C447 1.386 . S
C446 C448 1.391 . S
C447 C446 1.386 . S
C447 C451 1.393 . S
C448 H437 0.950 1_455 S
C448 C446 1.391 . S
C448 C449 1.400 . S
C449 C443 1.491 1_455 S
C449 C448 1.400 . S
C449 C450 1.398 . S
C450 H438 0.950 . S
C450 C449 1.398 . S
C450 C451 1.391 . S
C451 H439 0.950 . S
C451 C447 1.393 . S
C451 C450 1.391 . S
H452 C460 0.950 . S
H453 C465 0.950 . S
H454 C462 0.950 . S
H455 C464 0.950 . S
H456 C466 0.950 . S
H457 C468 0.950 . S
H458 C470 0.950 . S
H459 C471 0.950 . S
C460 H452 0.950 . S
C460 C461 1.386 . S
C460 C462 1.391 . S
C461 C460 1.386 . S
C461 C465 1.393 . S
C462 H454 0.950 . S
C462 C460 1.391 . S
C462 C463 1.400 . S
C463 C462 1.400 . S
C463 C464 1.398 . S
C463 C469 1.491 1_565 S
C464 H455 0.950 . S
C464 C463 1.398 . S
C464 C465 1.391 . S
C465 H453 0.950 . S
C465 C461 1.393 . S
C465 C464 1.391 . S
C466 H456 0.950 . S
C466 C467 1.386 . S
C466 C468 1.391 . S
C467 C466 1.386 . S
C467 C471 1.393 . S
C468 H457 0.950 . S
C468 C466 1.391 . S
C468 C469 1.400 . S
C469 C463 1.491 1_545 S
C469 C468 1.400 . S
C469 C470 1.398 . S
C470 H458 0.950 . S
C470 C469 1.398 . S
C470 C471 1.391 . S
C471 H459 0.950 . S
C471 C467 1.393 . S
C471 C470 1.391 . S
H472 C480 0.950 . S
H473 C485 0.950 . S
H474 C482 0.950 . S
H475 C484 0.950 . S
H476 C486 0.950 . S
H477 C488 0.950 . S
H478 C490 0.950 . S
H479 C491 0.950 . S
C480 H472 0.950 . S
C480 C481 1.386 . S
C480 C482 1.391 . S
C481 C480 1.386 . S
C481 C485 1.393 . S
C482 H474 0.950 . S
C482 C480 1.391 . S
C482 C483 1.400 . S
C483 C482 1.400 . S
C483 C484 1.398 . S
C483 C489 1.491 . S
C484 H475 0.950 . S
C484 C483 1.398 . S
C484 C485 1.391 . S
C485 H473 0.950 . S
C485 C481 1.393 . S
C485 C484 1.391 . S
C486 H476 0.950 . S
C486 C487 1.386 . S
C486 C488 1.391 . S
C487 C486 1.386 . S
C487 C491 1.393 . S
C488 H477 0.950 . S
C488 C486 1.391 . S
C488 C489 1.400 . S
C489 C483 1.491 . S
C489 C488 1.400 . S
C489 C490 1.398 . S
C490 H478 0.950 . S
C490 C489 1.398 . S
C490 C491 1.391 . S
C491 H479 0.950 . S
C491 C487 1.393 . S
C491 C490 1.391 . S
C141 C117 1.451 . S
C147 C7 1.472 . S
C161 C128 1.462 . S
C167 C18 1.452 . S
C181 C29 1.471 . S
C187 C73 1.452 . S
C201 C40 1.468 . S
C207 C84 1.448 . S
C221 C95 1.462 . S
C227 C51 1.464 . S
C241 C106 1.449 . S
C247 C62 1.472 . S
C261 C38 1.274 . S
C267 C5 1.256 . S
C281 C16 1.299 . S
C287 C49 1.279 . S
C301 C60 1.258 . S
C307 C27 1.278 . S
C321 C104 1.282 . S
C327 C71 1.261 . S
C341 C115 1.262 . S
C347 C82 1.253 . S
C361 C93 1.295 . S
C367 C126 1.305 . S
C381 C129 1.492 . S
C387 C8 1.492 . S
C401 C74 1.493 . S
C407 C19 1.491 . S
C421 C30 1.500 . S
C427 C85 1.497 . S
C441 C41 1.488 . S
C447 C96 1.499 . S
C461 C52 1.492 . S
C467 C107 1.492 . S
C481 C63 1.502 . S
C487 C118 1.491 . S
