# Generated by pormake.
# Topology whw, (6)-cn, num edge types: 1
# Building blocks:
#     Node 0, Type 0, BuildingBlock: INOVEN_clean_sbu_0, # of connection points: 6
#     Node 1, Type 0, BuildingBlock: INOVEN_clean_sbu_0, # of connection points: 6
#     Node 2, Type 0, BuildingBlock: INOVEN_clean_sbu_0, # of connection points: 6
#     Node 3, Type 0, BuildingBlock: INOVEN_clean_sbu_0, # of connection points: 6
#     Node 4, Type 0, BuildingBlock: INOVEN_clean_sbu_0, # of connection points: 6
#     Node 5, Type 0, BuildingBlock: INOVEN_clean_sbu_0, # of connection points: 6
#     Node 6, Type 0, BuildingBlock: INOVEN_clean_sbu_0, # of connection points: 6
#     Node 7, Type 0, BuildingBlock: INOVEN_clean_sbu_0, # of connection points: 6
#     Node 8, Type 0, BuildingBlock: INOVEN_clean_sbu_0, # of connection points: 6
#     Node 9, Type 0, BuildingBlock: INOVEN_clean_sbu_0, # of connection points: 6
#     Node 10, Type 0, BuildingBlock: INOVEN_clean_sbu_0, # of connection points: 6
#     Node 11, Type 0, BuildingBlock: INOVEN_clean_sbu_0, # of connection points: 6
#     Node 12, Type 0, BuildingBlock: INOVEN_clean_sbu_0, # of connection points: 6
#     Node 13, Type 0, BuildingBlock: INOVEN_clean_sbu_0, # of connection points: 6
#     Node 14, Type 0, BuildingBlock: INOVEN_clean_sbu_0, # of connection points: 6
#     Node 15, Type 0, BuildingBlock: INOVEN_clean_sbu_0, # of connection points: 6
#     Edge 16, Type (0, 0), BuildingBlock: XUDNAN_clean_linker_2, # of connection points: 2
#     Edge 17, Type (0, 0), BuildingBlock: XUDNAN_clean_linker_2, # of connection points: 2
#     Edge 18, Type (0, 0), BuildingBlock: XUDNAN_clean_linker_2, # of connection points: 2
#     Edge 19, Type (0, 0), BuildingBlock: XUDNAN_clean_linker_2, # of connection points: 2
#     Edge 20, Type (0, 0), BuildingBlock: XUDNAN_clean_linker_2, # of connection points: 2
#     Edge 21, Type (0, 0), BuildingBlock: XUDNAN_clean_linker_2, # of connection points: 2
#     Edge 22, Type (0, 0), BuildingBlock: XUDNAN_clean_linker_2, # of connection points: 2
#     Edge 23, Type (0, 0), BuildingBlock: XUDNAN_clean_linker_2, # of connection points: 2
#     Edge 24, Type (0, 0), BuildingBlock: XUDNAN_clean_linker_2, # of connection points: 2
#     Edge 25, Type (0, 0), BuildingBlock: XUDNAN_clean_linker_2, # of connection points: 2
#     Edge 26, Type (0, 0), BuildingBlock: XUDNAN_clean_linker_2, # of connection points: 2
#     Edge 27, Type (0, 0), BuildingBlock: XUDNAN_clean_linker_2, # of connection points: 2
#     Edge 28, Type (0, 0), BuildingBlock: XUDNAN_clean_linker_2, # of connection points: 2
#     Edge 29, Type (0, 0), BuildingBlock: XUDNAN_clean_linker_2, # of connection points: 2
#     Edge 30, Type (0, 0), BuildingBlock: XUDNAN_clean_linker_2, # of connection points: 2
#     Edge 31, Type (0, 0), BuildingBlock: XUDNAN_clean_linker_2, # of connection points: 2
#     Edge 32, Type (0, 0), BuildingBlock: XUDNAN_clean_linker_2, # of connection points: 2
#     Edge 33, Type (0, 0), BuildingBlock: XUDNAN_clean_linker_2, # of connection points: 2
#     Edge 34, Type (0, 0), BuildingBlock: XUDNAN_clean_linker_2, # of connection points: 2
#     Edge 35, Type (0, 0), BuildingBlock: XUDNAN_clean_linker_2, # of connection points: 2
#     Edge 36, Type (0, 0), BuildingBlock: XUDNAN_clean_linker_2, # of connection points: 2
#     Edge 37, Type (0, 0), BuildingBlock: XUDNAN_clean_linker_2, # of connection points: 2
#     Edge 38, Type (0, 0), BuildingBlock: XUDNAN_clean_linker_2, # of connection points: 2
#     Edge 39, Type (0, 0), BuildingBlock: XUDNAN_clean_linker_2, # of connection points: 2
#     Edge 40, Type (0, 0), BuildingBlock: XUDNAN_clean_linker_2, # of connection points: 2
#     Edge 41, Type (0, 0), BuildingBlock: XUDNAN_clean_linker_2, # of connection points: 2
#     Edge 42, Type (0, 0), BuildingBlock: XUDNAN_clean_linker_2, # of connection points: 2
#     Edge 43, Type (0, 0), BuildingBlock: XUDNAN_clean_linker_2, # of connection points: 2
#     Edge 44, Type (0, 0), BuildingBlock: XUDNAN_clean_linker_2, # of connection points: 2
#     Edge 45, Type (0, 0), BuildingBlock: XUDNAN_clean_linker_2, # of connection points: 2
#     Edge 46, Type (0, 0), BuildingBlock: XUDNAN_clean_linker_2, # of connection points: 2
#     Edge 47, Type (0, 0), BuildingBlock: XUDNAN_clean_linker_2, # of connection points: 2
#     Edge 48, Type (0, 0), BuildingBlock: XUDNAN_clean_linker_2, # of connection points: 2
#     Edge 49, Type (0, 0), BuildingBlock: XUDNAN_clean_linker_2, # of connection points: 2
#     Edge 50, Type (0, 0), BuildingBlock: XUDNAN_clean_linker_2, # of connection points: 2
#     Edge 51, Type (0, 0), BuildingBlock: XUDNAN_clean_linker_2, # of connection points: 2
#     Edge 52, Type (0, 0), BuildingBlock: XUDNAN_clean_linker_2, # of connection points: 2
#     Edge 53, Type (0, 0), BuildingBlock: XUDNAN_clean_linker_2, # of connection points: 2
#     Edge 54, Type (0, 0), BuildingBlock: XUDNAN_clean_linker_2, # of connection points: 2
#     Edge 55, Type (0, 0), BuildingBlock: XUDNAN_clean_linker_2, # of connection points: 2
#     Edge 56, Type (0, 0), BuildingBlock: XUDNAN_clean_linker_2, # of connection points: 2
#     Edge 57, Type (0, 0), BuildingBlock: XUDNAN_clean_linker_2, # of connection points: 2
#     Edge 58, Type (0, 0), BuildingBlock: XUDNAN_clean_linker_2, # of connection points: 2
#     Edge 59, Type (0, 0), BuildingBlock: XUDNAN_clean_linker_2, # of connection points: 2
#     Edge 60, Type (0, 0), BuildingBlock: XUDNAN_clean_linker_2, # of connection points: 2
#     Edge 61, Type (0, 0), BuildingBlock: XUDNAN_clean_linker_2, # of connection points: 2
#     Edge 62, Type (0, 0), BuildingBlock: XUDNAN_clean_linker_2, # of connection points: 2
#     Edge 63, Type (0, 0), BuildingBlock: XUDNAN_clean_linker_2, # of connection points: 2
# Relax obj value: 0.409
# Max RMSD: 0.232
# Mean RMSD: 0.211
data_MOF--net-whw--node1-INOVEN_clean_sbu_0--edge1-XUDNAN_clean_linker_2
_symmetry_space_group_name_H-M    P1
_symmetry_Int_Tables_number       1
_symmetry_cell_setting            triclinic
loop_
_symmetry_equiv_pos_as_xyz
'x, y, z'
_cell_length_a     46.580491
_cell_length_b     45.817651
_cell_length_c     33.90725
_cell_angle_alpha  90.3507
_cell_angle_beta   77.749593
_cell_angle_gamma 99.622762
loop_
_atom_site_label
_atom_site_type_symbol
_atom_site_fract_x
_atom_site_fract_y
_atom_site_fract_z
_atom_type_partial_charge
Gd0 Gd 0.03557 0.12646 0.19587 0.0
Gd1 Gd 0.00837 0.14192 0.11862 0.0
C2 C 0.9627 0.11871 0.20114 0.0
C3 C 0.04902 0.13446 0.26727 0.0
C4 C 0.05625 0.14104 0.3087 0.0
C5 C 0.0686 0.12121 0.32912 0.0
C6 C 0.05092 0.16756 0.32849 0.0
C7 C 0.0692 0.15367 0.38799 0.0
C8 C 0.05746 0.17384 0.36708 0.0
C9 C 0.07474 0.12728 0.36788 0.0
C10 C 0.02777 0.0812 0.1451 0.0
C11 C 0.0789 0.13929 0.11143 0.0
C12 C -0.00528 0.15748 0.05125 0.0
C13 C -0.01226 0.16896 1.01258 0.0
C14 C -0.002 0.19879 0.99929 0.0
C15 C 0.9692 0.15155 0.99008 0.0
C16 C 0.97015 0.19398 0.94428 0.0
C17 C 0.96072 0.16376 0.95651 0.0
C18 C -0.01053 0.21093 0.96611 0.0
C19 C 0.01706 0.18289 0.17442 0.0
O20 O 0.9858 0.11858 0.21835 0.0
O21 O 0.96517 0.12494 0.16221 0.0
O22 O 0.05889 0.11425 0.24276 0.0
O23 O 0.03136 0.14897 0.25311 0.0
O24 O 0.04576 0.08315 0.17021 0.0
O25 O 0.01142 0.10107 0.15225 0.0
O26 O 0.05536 0.13353 0.09445 0.0
O27 O 0.0768 0.14454 0.15027 0.0
O28 O 0.01283 0.17419 0.07017 0.0
O29 O 0.98494 0.13082 0.06807 0.0
O30 O -0.00568 0.17949 0.15754 0.0
O31 O 0.03403 0.16526 0.16029 0.0
H32 H 0.07327 0.10066 0.3153 0.0
H33 H 0.04151 0.18361 0.31415 0.0
H34 H 0.05249 0.19425 0.38103 0.0
H35 H 0.08402 0.11108 0.38216 0.0
H36 H 0.01233 0.21324 1.01516 0.0
H37 H 0.9606 0.12857 0.999 0.0
H38 H 0.94584 0.14968 0.94105 0.0
H39 H -0.00196 0.23399 0.95777 0.0
Gd40 Gd 0.12947 0.74554 0.47218 0.0
Gd41 Gd 0.12569 0.68258 0.44503 0.0
C42 C 0.12227 0.69088 0.54035 0.0
C43 C 0.13047 0.79506 0.50904 0.0
C44 C 0.12663 0.80423 0.55113 0.0
C45 C 0.1391 0.83298 0.55942 0.0
C46 C 0.11295 0.78395 0.58317 0.0
C47 C 0.12499 0.82102 0.63148 0.0
C48 C 0.11221 0.79227 0.62307 0.0
C49 C 0.13818 0.84138 0.59928 0.0
C50 C 0.1772 0.7359 0.41442 0.0
C51 C 0.10872 0.73338 0.38776 0.0
C52 C 0.13881 0.63634 0.40666 0.0
C53 C 0.15603 0.63183 0.36608 0.0
C54 C 0.14157 0.61608 0.3383 0.0
C55 C 0.18606 0.64522 0.35358 0.0
C56 C 0.1858 0.63004 0.28491 0.0
C57 C 0.20076 0.64425 0.31338 0.0
C58 C 0.15622 0.61531 0.29806 0.0
C59 C 0.07445 0.69424 0.49121 0.0
O60 O 0.12214 0.71931 0.53286 0.0
O61 O 0.12715 0.67266 0.51004 0.0
O62 O 0.15422 0.78309 0.49596 0.0
O63 O 0.10673 0.78118 0.49759 0.0
O64 O 0.16554 0.7597 0.4175 0.0
O65 O 0.16391 0.71833 0.44418 0.0
O66 O 0.11788 0.70741 0.39025 0.0
O67 O 0.10786 0.75167 0.41859 0.0
O68 O 0.11366 0.64593 0.40785 0.0
O69 O 0.154 0.64945 0.43213 0.0
O70 O 0.08142 0.66788 0.48832 0.0
O71 O 0.09295 0.71114 0.46535 0.0
H72 H 0.15002 0.8488 0.53501 0.0
H73 H 0.10312 0.76165 0.5774 0.0
H74 H 0.10136 0.77634 0.64733 0.0
H75 H 0.14828 0.86365 0.60491 0.0
H76 H 0.11844 0.60558 0.3473 0.0
H77 H 0.19793 0.65741 0.37438 0.0
H78 H 0.22348 0.65557 0.30426 0.0
H79 H 0.14367 0.60463 0.27694 0.0
Gd80 Gd 0.4801 0.84754 0.66984 0.0
Gd81 Gd 0.54002 0.87252 0.67802 0.0
C82 C 0.53596 0.83464 0.5985 0.0
C83 C 0.42896 0.83575 0.65031 0.0
C84 C 0.41589 0.83583 0.61488 0.0
C85 C 0.38973 0.81591 0.61432 0.0
C86 C 0.42932 0.85496 0.58154 0.0
C87 C 0.39032 0.83398 0.54708 0.0
C88 C 0.41648 0.85414 0.54784 0.0
C89 C 0.37702 0.81493 0.5806 0.0
C90 C 0.50353 0.81202 0.71269 0.0
C91 C 0.48498 0.8642 0.76029 0.0
C92 C 0.58902 0.89554 0.69871 0.0
C93 C 0.5984 0.8964 0.73731 0.0
C94 C 0.61943 0.92002 0.74536 0.0
C95 C 0.58434 0.87503 0.76768 0.0
C96 C 0.61183 0.90103 0.81438 0.0
C97 C 0.5913 0.87703 0.8056 0.0
C98 C 0.62608 0.9224 0.7837 0.0
C99 C 0.51849 0.90662 0.62938 0.0
O100 O 0.50744 0.83788 0.60724 0.0
O101 O 0.5531 0.84335 0.62462 0.0
O102 O 0.44607 0.81594 0.65105 0.0
O103 O 0.43949 0.86167 0.66279 0.0
O104 O 0.47523 0.8125 0.71878 0.0
O105 O 0.51713 0.82726 0.6817 0.0
O106 O 0.51423 0.869 0.74506 0.0
O107 O 0.46627 0.85885 0.73572 0.0
O108 O 0.56751 0.91029 0.69757 0.0
O109 O 0.58518 0.86958 0.68253 0.0
O110 O 0.54431 0.89866 0.62134 0.0
O111 O 0.50397 0.89464 0.66318 0.0
H112 H 0.3792 0.80101 0.63992 0.0
H113 H 0.44974 0.87029 0.58149 0.0
H114 H 0.42728 0.86882 0.52212 0.0
H115 H 0.35672 0.79939 0.5808 0.0
H116 H 0.6301 0.937 0.72236 0.0
H117 H 0.56747 0.85712 0.76244 0.0
H118 H 0.58035 0.8598 0.82808 0.0
H119 H 0.64172 0.94135 0.78956 0.0
Gd120 Gd 0.39802 0.21601 0.8663 0.0
Gd121 Gd 0.39666 0.27963 0.84647 0.0
C122 C 0.39682 0.2648 0.94012 0.0
C123 C 0.3974 0.16351 0.89443 0.0
C124 C 0.40231 0.15105 0.93144 0.0
C125 C 0.39425 0.12054 0.93986 0.0
C126 C 0.41232 0.1698 0.96025 0.0
C127 C 0.40487 0.1279 1.0066 0.0
C128 C 0.41391 0.15831 0.99744 0.0
C129 C 0.39537 0.10899 0.97741 0.0
C130 C 0.35003 0.22433 0.83781 0.0
C131 C 0.42015 0.23382 0.77312 0.0
C132 C 0.37893 0.3252 0.82176 0.0
C133 C 0.36361 0.3299 0.78938 0.0
C134 C 0.36769 0.31313 0.75465 0.0
C135 C 0.34419 0.35055 0.79342 0.0
C136 C 0.33556 0.33986 0.726 0.0
C137 C 0.33016 0.35546 0.76199 0.0
C138 C 0.35407 0.31819 0.72321 0.0
C139 C 0.44895 0.27033 0.86126 0.0
O140 O 0.40045 0.23792 0.92706 0.0
O141 O 0.39214 0.2849 0.91508 0.0
O142 O 0.3738 0.17619 0.89928 0.0
O143 O 0.42073 0.17886 0.87057 0.0
O144 O 0.36475 0.20293 0.82873 0.0
O145 O 0.36082 0.24079 0.86327 0.0
O146 O 0.40765 0.25797 0.78335 0.0
O147 O 0.42297 0.21552 0.8016 0.0
O148 O 0.40639 0.32023 0.81034 0.0
O149 O 0.36295 0.30745 0.85134 0.0
O150 O 0.43883 0.29493 0.87006 0.0
O151 O 0.432 0.25424 0.84278 0.0
H152 H 0.38615 0.10585 0.91798 0.0
H153 H 0.41795 0.19341 0.95449 0.0
H154 H 0.42086 0.17339 1.0197 0.0
H155 H 0.38826 0.08547 0.98399 0.0
H156 H 0.38218 0.29671 0.75119 0.0
H157 H 0.34024 0.36319 0.82057 0.0
H158 H 0.31577 0.37199 0.76548 0.0
H159 H 0.35958 0.30611 0.69588 0.0
Gd160 Gd 0.00182 0.85965 0.97493 0.0
Gd161 Gd 0.97571 0.88132 0.89847 0.0
C162 C 0.93148 0.86534 0.98313 0.0
C163 C 0.01564 0.8439 1.04191 0.0
C164 C 0.0228 0.8326 0.0804 0.0
C165 C 0.01375 0.8025 0.09279 0.0
C166 C 0.03997 0.85066 0.10395 0.0
C167 C 0.04032 0.80836 0.14894 0.0
C168 C 0.04842 0.83881 0.13772 0.0
C169 C 0.02231 0.79071 0.12609 0.0
C170 C -0.01072 0.82082 0.91846 0.0
C171 C 0.04806 0.88054 0.89173 0.0
C172 C 0.96366 0.87353 0.82629 0.0
C173 C 0.95858 0.8655 0.78405 0.0
C174 C 0.93662 0.87544 0.76685 0.0
C175 C 0.97489 0.84544 0.76123 0.0
C176 C 0.94641 0.84387 0.70721 0.0
C177 C 0.969 0.83496 0.72401 0.0
C178 C 0.93074 0.86494 0.72907 0.0
C179 C -0.0089 0.92408 0.94999 0.0
O180 O 0.9547 0.86716 1.00067 0.0
O181 O 0.93357 0.86542 0.94358 0.0
O182 O -0.00091 0.82648 1.0216 0.0
O183 O 0.02412 0.87103 1.0263 0.0
O184 O 0.01117 0.82061 0.9365 0.0
O185 O 0.97464 0.84053 0.93233 0.0
O186 O 0.02539 0.88488 0.87557 0.0
O187 O 0.04529 0.87289 0.9303 0.0
O188 O 0.95056 0.89158 0.85174 0.0
O189 O 0.98359 0.86212 0.83999 0.0
O190 O 0.97326 0.92701 0.92556 0.0
O191 O 0.00254 0.90113 0.94119 0.0
H192 H 0.00044 0.7876 0.07609 0.0
H193 H 0.0475 0.87391 0.09573 0.0
H194 H 0.06232 0.85331 0.15407 0.0
H195 H 0.01502 0.76737 0.13365 0.0
H196 H 0.92337 0.89075 0.78307 0.0
H197 H -0.0078 0.83723 0.77245 0.0
H198 H 0.98224 0.81938 0.70844 0.0
H199 H 0.91312 0.87252 0.71777 0.0
Gd200 Gd 0.37563 0.80376 0.14756 0.0
Gd201 Gd 0.39405 0.74664 0.12197 0.0
C202 C 0.40285 0.76515 0.20996 0.0
C203 C 0.34342 0.84379 0.17192 0.0
C204 C 0.33574 0.8566 0.21198 0.0
C205 C 0.35787 0.87425 0.22828 0.0
C206 C 0.30799 0.84585 0.23734 0.0
C207 C 0.32825 0.86172 0.29553 0.0
C208 C 0.30434 0.84819 0.27902 0.0
C209 C 0.35408 0.87684 0.26998 0.0
C210 C 0.43413 0.80811 0.13264 0.0
C211 C 0.39425 0.79603 0.04978 0.0
C212 C 0.40319 0.69836 0.08585 0.0
C213 C 0.40853 0.68961 1.04366 0.0
C214 C 0.39311 0.66243 1.0342 0.0
C215 C 0.42374 0.71005 1.01253 0.0
C216 C 0.40553 0.6773 0.96317 0.0
C217 C 0.42241 0.70381 0.97253 0.0
C218 C 0.39158 0.6563 0.99428 0.0
C219 C 0.34005 0.7428 0.17379 0.0
O220 O 0.3843 0.78423 0.20675 0.0
O221 O 0.41403 0.75063 0.17774 0.0
O222 O 0.37128 0.8501 0.15264 0.0
O223 O 0.33233 0.81571 0.1703 0.0
O224 O 0.41931 0.82251 0.16094 0.0
O225 O 0.41748 0.79268 0.11259 0.0
O226 O 0.39957 0.76949 0.05894 0.0
O227 O 0.38311 0.81273 0.07942 0.0
O228 O 0.37677 0.70541 0.09837 0.0
O229 O 0.4244 0.71644 0.09801 0.0
O230 O 0.36014 0.72739 0.17741 0.0
O231 O 0.34956 0.75996 0.14286 0.0
H232 H 0.37929 0.88341 0.20942 0.0
H233 H 0.29035 0.83266 0.22544 0.0
H234 H 0.28416 0.83654 0.29839 0.0
H235 H 0.37276 0.88745 0.2822 0.0
H236 H 0.38081 0.64661 0.05796 0.0
H237 H 0.4356 0.73129 1.0192 0.0
H238 H 0.43428 0.71984 0.94904 0.0
H239 H 0.37846 0.63565 0.98799 0.0
Gd240 Gd 0.49758 0.11785 0.4191 0.0
Gd241 Gd 0.55765 0.14496 0.43262 0.0
C242 C 0.55361 0.13623 0.33897 0.0
C243 C 0.44857 0.09778 0.39688 0.0
C244 C 0.43692 0.10033 0.36056 0.0
C245 C 0.41705 0.07657 0.35034 0.0
C246 C 0.44716 0.12522 0.33444 0.0
C247 C 0.4187 0.10191 0.28697 0.0
C248 C 0.43789 0.12614 0.29808 0.0
C249 C 0.40805 0.07728 0.31375 0.0
C250 C 0.51983 0.08242 0.46422 0.0
C251 C 0.49935 0.1505 0.50453 0.0
C252 C 0.60886 0.15521 0.4522 0.0
C253 C 0.62308 0.1502 0.48556 0.0
C254 C 0.65123 0.14165 0.47665 0.0
C255 C 0.60917 0.15364 0.52585 0.0
C256 C 0.65204 0.14091 0.54786 0.0
C257 C 0.62366 0.14917 0.5568 0.0
C258 C 0.66558 0.1369 0.50759 0.0
C259 C 0.52899 0.18133 0.39903 0.0
O260 O 0.52416 0.12928 0.35267 0.0
O261 O 0.57138 0.13877 0.3651 0.0
O262 O 0.47089 0.08322 0.39263 0.0
O263 O 0.45223 0.12182 0.41754 0.0
O264 O 0.49218 0.08485 0.469 0.0
O265 O 0.53527 0.09779 0.4334 0.0
O266 O 0.52849 0.14943 0.49614 0.0
O267 O 0.48314 0.1424 0.477 0.0
O268 O 0.59032 0.17421 0.4575 0.0
O269 O 0.59975 0.13147 0.43356 0.0
O270 O 0.55784 0.18397 0.3901 0.0
O271 O 0.51857 0.16224 0.42641 0.0
H272 H 0.40923 0.05708 0.37011 0.0
H273 H 0.46284 0.14362 0.34166 0.0
H274 H 0.44613 0.14564 0.27844 0.0
H275 H 0.39362 0.05808 0.30586 0.0
H276 H 0.66217 0.13879 0.44566 0.0
H277 H 0.58725 0.15984 0.53338 0.0
H278 H 0.61261 0.15197 0.58775 0.0
H279 H 0.68748 0.13066 0.5 0.0
Gd280 Gd 0.1131 0.2028 0.75565 0.0
Gd281 Gd 0.11826 0.26745 0.72967 0.0
C282 C 0.09955 0.25399 0.82522 0.0
C283 C 0.12894 0.15602 0.78001 0.0
C284 C 0.14884 0.15203 0.80685 0.0
C285 C 0.15891 0.17576 0.82943 0.0
C286 C 0.15809 0.12477 0.8099 0.0
C287 C 0.18221 0.14322 0.86438 0.0
C288 C 0.17495 0.12045 0.83825 0.0
C289 C 0.17544 0.17143 0.85798 0.0
C290 C 0.06197 0.21795 0.74566 0.0
C291 C 0.1095 0.21447 0.66249 0.0
C292 C 0.11908 0.31809 0.69661 0.0
C293 C 0.1098 0.32497 0.65959 0.0
C294 C 0.1147 0.30655 0.62652 0.0
C295 C 0.0934 0.34786 0.65837 0.0
C296 C 0.08507 0.3322 0.59264 0.0
C297 C 0.08143 0.35177 0.62464 0.0
C298 C 0.10232 0.31005 0.5935 0.0
C299 C 0.16727 0.25225 0.74932 0.0
O300 O 0.10828 0.22774 0.81648 0.0
O301 O 0.09852 0.27248 0.7958 0.0
O302 O 0.10389 0.16483 0.79694 0.0
O303 O 0.14234 0.17039 0.74619 0.0
O304 O 0.06776 0.19127 0.73885 0.0
O305 O 0.0822 0.23304 0.75977 0.0
O306 O 0.10895 0.24271 0.67207 0.0
O307 O 0.11363 0.19533 0.6892 0.0
O308 O 0.14254 0.30509 0.69168 0.0
O309 O 0.09742 0.30594 0.72589 0.0
O310 O 0.15825 0.27709 0.75864 0.0
O311 O 0.15066 0.23732 0.7289 0.0
H312 H 0.15273 0.19727 0.82642 0.0
H313 H 0.15126 0.10652 0.79161 0.0
H314 H 0.18038 0.09866 0.84175 0.0
H315 H 0.18045 0.18961 0.87734 0.0
H316 H 0.1277 0.28906 0.62634 0.0
H317 H 0.08928 0.36216 0.68378 0.0
H318 H 0.06849 0.36928 0.62412 0.0
H319 H 0.1064 0.29551 0.56843 0.0
Gd320 Gd 0.88111 0.30578 0.63721 0.0
Gd321 Gd 0.88872 0.24481 0.6158 0.0
C322 C 0.90347 0.26453 0.70093 0.0
C323 C 0.85507 0.35095 0.65726 0.0
C324 C 0.84134 0.36259 0.696 0.0
C325 C 0.85445 0.38998 0.70826 0.0
C326 C 0.81723 0.34549 0.72268 0.0
C327 C 0.82319 0.38061 0.77557 0.0
C328 C 0.8081 0.35456 0.76203 0.0
C329 C 0.84558 0.39887 0.74774 0.0
C330 C 0.93813 0.3016 0.61749 0.0
C331 C 0.89026 0.29294 0.54166 0.0
C332 C 0.89287 0.19466 0.58176 0.0
C333 C 0.89574 0.1846 0.54009 0.0
C334 C 0.88358 0.15536 0.53345 0.0
C335 C 0.90655 0.20473 0.50714 0.0
C336 C 0.8916 0.16674 0.46154 0.0
C337 C 0.90439 0.1959 0.46816 0.0
C338 C 0.88167 0.14644 0.49449 0.0
C339 C 0.83809 0.24939 0.67113 0.0
O340 O 0.88793 0.28624 0.69723 0.0
O341 O 0.91085 0.24748 0.66976 0.0
O342 O 0.88395 0.35231 0.65066 0.0
O343 O 0.84139 0.32584 0.6465 0.0
O344 O 0.92713 0.31923 0.64468 0.0
O345 O 0.91867 0.28757 0.60015 0.0
O346 O 0.88686 0.26473 0.55376 0.0
O347 O 0.88993 0.31383 0.56879 0.0
O348 O 0.86754 0.2034 0.59641 0.0
O349 O 0.91581 0.21203 0.59083 0.0
O350 O 0.85513 0.23036 0.67393 0.0
O351 O 0.84848 0.26496 0.63894 0.0
H352 H 0.87289 0.40363 0.68805 0.0
H353 H 0.80639 0.32439 0.71398 0.0
H354 H 0.79038 0.34028 0.78252 0.0
H355 H 0.85789 0.41892 0.75713 0.0
H356 H 0.87471 0.13966 0.5586 0.0
H357 H 0.91605 0.22741 0.51158 0.0
H358 H 0.91275 0.21186 0.44322 0.0
H359 H 0.87167 0.12385 0.49027 0.0
Gd360 Gd 0.62033 0.70945 0.2463 0.0
Gd361 Gd 0.62179 0.7751 0.22979 0.0
C362 C 0.60386 0.75505 0.32318 0.0
C363 C 0.63588 0.66102 0.26574 0.0
C364 C 0.65018 0.65188 0.29702 0.0
C365 C 0.65014 0.66817 0.33205 0.0
C366 C 0.6634 0.62642 0.29239 0.0
C367 C 0.67241 0.63107 0.36049 0.0
C368 C 0.67462 0.61614 0.32383 0.0
C369 C 0.66094 0.6578 0.36359 0.0
C370 C 0.56838 0.72388 0.2383 0.0
C371 C 0.61791 0.72783 0.15443 0.0
C372 C 0.62143 0.82855 0.20642 0.0
C373 C 0.61698 0.84311 0.17054 0.0
C374 C 0.62968 0.8729 0.16211 0.0
C375 C 0.60313 0.82686 0.1425 0.0
C376 C 0.61705 0.86959 0.09621 0.0
C377 C 0.60299 0.84008 0.10561 0.0
C378 C 0.62976 0.88608 0.12514 0.0
C379 C 0.67074 0.76187 0.25133 0.0
O380 O 0.61397 0.72996 0.31064 0.0
O381 O 0.60095 0.77477 0.29646 0.0
O382 O 0.60893 0.66707 0.27833 0.0
O383 O 0.65293 0.68025 0.23871 0.0
O384 O 0.57618 0.69876 0.22615 0.0
O385 O 0.58744 0.73793 0.25537 0.0
O386 O 0.61637 0.75487 0.16867 0.0
O387 O 0.62209 0.70645 0.178 0.0
O388 O 0.64552 0.81657 0.20084 0.0
O389 O 0.5981 0.81179 0.22839 0.0
O390 O 0.65902 0.78505 0.26213 0.0
O391 O 0.65681 0.74703 0.22745 0.0
H392 H 0.6405 0.6882 0.33581 0.0
H393 H 0.66414 0.61396 0.26504 0.0
H394 H 0.68374 0.59581 0.3201 0.0
H395 H 0.65827 0.66982 0.39135 0.0
H396 H 0.64058 0.88563 0.18348 0.0
H397 H 0.59358 0.80369 0.14841 0.0
H398 H 0.59331 0.82676 0.08367 0.0
H399 H 0.6405 0.90891 0.11868 0.0
Gd400 Gd 0.62465 0.25233 0.97158 0.0
Gd401 Gd 0.63018 0.19149 0.94873 0.0
C402 C 0.62538 0.20423 1.04457 0.0
C403 C 0.62162 0.30168 1.00769 0.0
C404 C 0.61838 0.30959 0.05023 0.0
C405 C 0.63329 0.33695 0.05991 0.0
C406 C 0.60416 0.2886 0.0812 0.0
C407 C 0.62066 0.32202 0.13111 0.0
C408 C 0.60528 0.29477 0.12131 0.0
C409 C 0.63438 0.34317 0.1 0.0
C410 C 0.67224 0.24954 0.90965 0.0
C411 C 0.60493 0.2329 0.88887 0.0
C412 C 0.65452 0.14545 0.92782 0.0
C413 C 0.67449 0.139 0.89043 0.0
C414 C 0.66914 0.11138 0.87296 0.0
C415 C 0.69503 0.16208 0.8683 0.0
C416 C 0.69994 0.13199 0.80902 0.0
C417 C 0.70759 0.15865 0.82788 0.0
C418 C 0.68194 0.10781 0.83244 0.0
C419 C 0.57388 0.19599 0.97735 0.0
O420 O 0.62976 0.23248 1.03223 0.0
O421 O 0.62323 0.18337 1.0175 0.0
O422 O 0.64677 0.29267 0.99254 0.0
O423 O 0.59852 0.28557 0.99714 0.0
O424 O 0.65481 0.2689 0.91252 0.0
O425 O 0.6641 0.23228 0.94078 0.0
O426 O 0.62111 0.21147 0.89069 0.0
O427 O 0.59867 0.24955 0.92091 0.0
O428 O 0.62774 0.14783 0.92369 0.0
O429 O 0.66554 0.16636 0.94957 0.0
O430 O 0.58226 0.17774 0.94946 0.0
O431 O 0.59536 0.2099 0.99071 0.0
H432 H 0.64488 0.35317 1.0363 0.0
H433 H 0.59276 0.2672 0.07434 0.0
H434 H 0.59402 0.27822 0.14462 0.0
H435 H 0.64655 0.36427 0.10653 0.0
H436 H 0.65321 0.09336 0.88961 0.0
H437 H 0.69942 0.18351 0.88129 0.0
H438 H 0.72115 0.17765 0.81044 0.0
H439 H 0.67538 0.08709 0.8186 0.0
Gd440 Gd 0.90251 0.72896 0.36108 0.0
Gd441 Gd 0.90455 0.79358 0.34504 0.0
C442 C 0.90284 0.77482 0.43782 0.0
C443 C 0.89848 0.67494 0.38625 0.0
C444 C 0.89833 0.66056 0.42474 0.0
C445 C 0.90649 0.63253 0.42545 0.0
C446 C 0.89125 0.67533 0.46088 0.0
C447 C 0.90347 0.63554 0.49789 0.0
C448 C 0.89401 0.66309 0.49708 0.0
C449 C 0.90901 0.62005 0.46182 0.0
C450 C 0.85426 0.74316 0.33815 0.0
C451 C 0.92517 0.74932 0.2688 0.0
C452 C 0.88824 0.84165 0.32549 0.0
C453 C 0.86877 0.84837 0.2992 0.0
C454 C 0.87636 0.8746 0.27565 0.0
C455 C 0.84389 0.82758 0.29496 0.0
C456 C 0.8376 0.85675 0.239 0.0
C457 C 0.82829 0.83181 0.26524 0.0
C458 C 0.86082 0.87883 0.24576 0.0
C459 C 0.95551 0.78264 0.36181 0.0
O460 O 0.90501 0.748 0.42341 0.0
O461 O 0.89973 0.79636 0.41379 0.0
O462 O 0.87545 0.68765 0.38597 0.0
O463 O 0.92368 0.69121 0.36829 0.0
O464 O 0.86754 0.72168 0.32353 0.0
O465 O 0.8674 0.75662 0.36366 0.0
O466 O 0.91373 0.77377 0.2807 0.0
O467 O 0.92698 0.72952 0.29605 0.0
O468 O 0.91331 0.83353 0.30726 0.0
O469 O 0.87482 0.8254 0.35784 0.0
O470 O 0.94674 0.80814 0.36691 0.0
O471 O 0.9391 0.76628 0.34241 0.0
H472 H 0.91175 0.62074 0.39776 0.0
H473 H 0.88433 0.69671 0.46095 0.0
H474 H 0.88992 0.67586 0.52406 0.0
H475 H 0.91584 0.59858 0.46156 0.0
H476 H 0.8954 0.89095 0.27869 0.0
H477 H 0.83752 0.80729 0.31306 0.0
H478 H 0.81046 0.81454 0.26075 0.0
H479 H 0.86881 0.89808 0.2256 0.0
Gd480 Gd 0.536 0.61678 0.69676 0.0
Gd481 Gd 0.51307 0.6362 0.61548 0.0
C482 C 0.46736 0.63114 0.69976 0.0
C483 C 0.55042 0.62857 0.76713 0.0
C484 C 0.56008 0.63798 0.80669 0.0
C485 C 0.5475 0.62289 0.84437 0.0
C486 C 0.58046 0.66437 0.80774 0.0
C487 C 0.57458 0.661 0.88231 0.0
C488 C 0.58762 0.67541 0.84425 0.0
C489 C 0.55465 0.63407 0.88128 0.0
C490 C 0.51385 0.57214 0.65314 0.0
C491 C 0.57669 0.61072 0.61105 0.0
C492 C 0.50224 0.64606 0.54381 0.0
C493 C 0.48786 0.66116 0.51488 0.0
C494 C 0.48508 0.69137 0.51685 0.0
C495 C 0.47941 0.64573 0.48181 0.0
C496 C 0.46592 0.69006 0.45359 0.0
C497 C 0.4688 0.6598 0.45185 0.0
C498 C 0.47416 0.7054 0.48713 0.0
C499 C 0.53683 0.67793 0.6614 0.0
O500 O 0.48953 0.62728 0.71725 0.0
O501 O 0.46973 0.63328 0.66021 0.0
O502 O 0.53281 0.60398 0.76145 0.0
O503 O 0.56159 0.6445 0.73382 0.0
O504 O 0.53207 0.5689 0.67705 0.0
O505 O 0.50593 0.59738 0.65763 0.0
O506 O 0.55415 0.61458 0.59402 0.0
O507 O 0.57689 0.61405 0.6499 0.0
O508 O 0.52366 0.66161 0.55851 0.0
O509 O 0.48678 0.62444 0.5688 0.0
O510 O 0.51534 0.68139 0.64384 0.0
O511 O 0.54446 0.65352 0.65284 0.0
H512 H 0.5314 0.60273 0.84559 0.0
H513 H 0.59083 0.67704 0.78005 0.0
H514 H 0.60364 0.69566 0.84228 0.0
H515 H 0.54373 0.62197 0.90922 0.0
H516 H 0.4917 0.70437 0.54121 0.0
H517 H 0.48151 0.62259 0.47863 0.0
H518 H 0.46257 0.64666 0.42741 0.0
H519 H 0.47278 0.72865 0.49025 0.0
Gd520 Gd 0.95926 0.35564 0.15628 0.0
Gd521 Gd 0.01904 0.37559 0.17167 0.0
C522 C 0.01685 0.34017 0.09009 0.0
C523 C 0.90953 0.35179 0.13297 0.0
C524 C 0.89706 0.35951 0.09912 0.0
C525 C 0.86938 0.34386 0.09518 0.0
C526 C 0.91157 0.38301 0.07197 0.0
C527 C 0.87049 0.37508 1.03709 0.0
C528 C 0.8983 0.3908 1.04117 0.0
C529 C 0.85619 0.35154 0.06438 0.0
C530 C 0.97631 0.31524 0.19945 0.0
C531 C 0.96178 0.36543 0.25028 0.0
C532 C 0.06681 0.39234 0.19827 0.0
C533 C 0.07346 0.38675 0.23789 0.0
C534 C 0.06633 0.40593 0.26962 0.0
C535 C 0.08305 0.36033 0.24591 0.0
C536 C 0.07329 0.37008 0.31747 0.0
C537 C 0.08282 0.35199 0.28547 0.0
C538 C 0.06608 0.39758 0.3091 0.0
C539 C 0.0017 0.41382 0.12356 0.0
O540 O -0.01079 0.34604 0.09536 0.0
O541 O 0.03217 0.34642 0.11881 0.0
O542 O 0.92589 0.3309 0.12735 0.0
O543 O 0.9202 0.37404 0.15301 0.0
O544 O 0.94862 0.31719 0.20131 0.0
O545 O -0.00724 0.33175 0.17122 0.0
O546 O -0.00876 0.36879 0.23757 0.0
O547 O 0.94481 0.36458 0.22323 0.0
O548 O 0.04656 0.40908 0.19861 0.0
O549 O 0.06352 0.3694 0.17544 0.0
O550 O 0.02752 0.40584 0.11681 0.0
O551 O 0.98574 0.40082 0.15564 0.0
H552 H 0.85785 0.32582 0.11616 0.0
H553 H 0.933 0.39534 0.07471 0.0
H554 H 0.91 0.40875 1.02015 0.0
H555 H 0.83467 0.33919 0.06206 0.0
H556 H 0.05926 0.42665 0.26434 0.0
H557 H 0.08919 0.34531 0.222 0.0
H558 H 0.08919 0.33099 0.29115 0.0
H559 H 0.05869 0.41198 0.33325 0.0
Gd560 Gd 0.49389 0.35745 0.47655 0.0
Gd561 Gd 0.4743 0.37851 0.39347 0.0
C562 C 0.42736 0.36855 0.4797 0.0
C563 C 0.51817 0.34635 0.5375 0.0
C564 C 0.52159 0.33182 0.57658 0.0
C565 C 0.51837 0.30078 0.58175 0.0
C566 C 0.53213 0.34897 0.60713 0.0
C567 C 0.53778 0.3047 0.64494 0.0
C568 C 0.53989 0.33577 0.64056 0.0
C569 C 0.5261 0.28761 0.61503 0.0
C570 C 0.46611 0.3174 0.43169 0.0
C571 C 0.54282 0.37158 0.39042 0.0
C572 C 0.45606 0.37545 0.32459 0.0
C573 C 0.45411 0.36391 0.28261 0.0
C574 C 0.43668 0.37614 0.25966 0.0
C575 C 0.46687 0.33953 0.26612 0.0
C576 C 0.44315 0.33882 0.20676 0.0
C577 C 0.46138 0.32716 0.22928 0.0
C578 C 0.4315 0.36407 0.22252 0.0
C579 C 0.48244 0.42147 0.44788 0.0
O580 O 0.44896 0.36967 0.5 0.0
O581 O 0.43119 0.36649 0.4399 0.0
O582 O 0.51876 0.33066 0.50496 0.0
O583 O 0.5038 0.36871 0.5368 0.0
O584 O 0.46287 0.31375 0.47053 0.0
O585 O 0.48488 0.33982 0.41976 0.0
O586 O 0.52207 0.37565 0.37069 0.0
O587 O 0.53775 0.36607 0.43005 0.0
O588 O 0.47895 0.39472 0.33071 0.0
O589 O 0.4438 0.35802 0.35639 0.0
O590 O 0.46694 0.42234 0.42013 0.0
O591 O 0.4964 0.39969 0.44196 0.0
H592 H 0.51051 0.28645 0.55937 0.0
H593 H 0.53543 0.3729 0.60445 0.0
H594 H 0.54875 0.35016 0.66214 0.0
H595 H 0.52315 0.26371 0.61688 0.0
H596 H 0.42627 0.39483 0.27105 0.0
H597 H 0.48092 0.32973 0.28187 0.0
H598 H 0.47147 0.30817 0.21849 0.0
H599 H 0.41728 0.37393 0.20696 0.0
Gd600 Gd -0.01047 0.63209 0.91694 0.0
Gd601 Gd 0.05121 0.65106 0.92457 0.0
C602 C 0.04319 0.63267 0.83492 0.0
C603 C 0.93995 0.61427 0.89502 0.0
C604 C 0.93268 0.61107 0.85468 0.0
C605 C 0.93416 0.58421 0.83465 0.0
C606 C 0.9267 0.6353 0.83442 0.0
C607 C 0.92684 0.60674 0.77381 0.0
C608 C 0.92376 0.63313 0.79433 0.0
C609 C 0.93151 0.58215 0.79451 0.0
C610 C 0.00552 0.5979 0.97062 0.0
C611 C -0.00236 0.67113 0.99398 0.0
C612 C 0.10377 0.65792 0.93995 0.0
C613 C 0.12178 0.65564 0.96974 0.0
C614 C 0.15194 0.66855 0.96017 0.0
C615 C 0.10981 0.6402 1.00662 0.0
C616 C 0.15841 0.65078 1.02436 0.0
C617 C 0.12805 0.63779 1.03382 0.0
C618 C 0.17017 0.66618 0.98728 0.0
C619 C 0.03301 0.68838 0.8778 0.0
O620 O 0.01424 0.63015 0.85066 0.0
O621 O 0.06249 0.6374 0.85883 0.0
O622 O 0.95697 0.59626 0.90356 0.0
O623 O 0.94742 0.64125 0.90668 0.0
O624 O 0.98074 0.60786 0.97569 0.0
O625 O 0.02204 0.60656 0.93624 0.0
O626 O 0.02522 0.66483 0.98604 0.0
O627 O 0.98013 0.66408 0.96787 0.0
O628 O 0.08754 0.67893 0.94429 0.0
O629 O 0.09051 0.63298 0.92796 0.0
O630 O 0.06043 0.68473 0.87313 0.0
O631 O 0.0177 0.67526 0.90969 0.0
H632 H 0.93835 0.56499 0.84955 0.0
H633 H 0.92524 0.65621 0.84906 0.0
H634 H 0.92023 0.65244 0.77892 0.0
H635 H 0.93349 0.56142 0.77946 0.0
H636 H 0.16144 0.68039 0.93156 0.0
H637 H 0.0865 0.63011 1.0143 0.0
H638 H 0.11826 0.62626 0.06256 0.0
H639 H 0.19346 0.67626 0.97917 0.0
H640 H 0.09083 0.09481 0.06288 0.0
H641 H 0.13146 0.1781 0.10342 0.0
H642 H 0.1768 0.17753 0.05006 0.0
H643 H 0.16691 0.06586 1.01974 0.0
H644 H 0.15092 0.04901 0.9794 0.0
H645 H 0.1279 0.0499 1.02928 0.0
H646 H 0.0912 0.07542 0.99985 0.0
H647 H 0.11362 0.0742 0.9505 0.0
H648 H 0.10516 0.10925 0.9699 0.0
H649 H 0.2081 0.17652 0.9822 0.0
H650 H 0.21845 0.17761 0.908 0.0
H651 H 0.15905 0.09379 0.91114 0.0
C652 C 0.10994 0.11219 0.0613 0.0
C653 C 0.108 0.13655 0.08646 0.0
C654 C 0.13289 0.15919 0.0842 0.0
C655 C 0.15876 0.15882 0.05424 0.0
C656 C 0.15947 0.13523 1.02786 0.0
C657 C 0.13581 0.11187 1.03187 0.0
C658 C 0.13897 0.09235 0.99569 0.0
C659 C 0.14665 0.06252 1.0067 0.0
C660 C 0.11061 0.08764 0.97795 0.0
C661 C 0.1654 0.11091 0.96795 0.0
C662 C 0.17812 0.13455 0.98781 0.0
C663 C 0.1989 0.15771 0.96665 0.0
C664 C 0.20459 0.15824 0.92434 0.0
C665 C 0.18892 0.13611 0.90383 0.0
C666 C 0.17161 0.11085 0.92586 0.0
H667 H 0.08475 0.78318 0.36732 0.0
H668 H 0.11225 0.70193 0.31854 0.0
H669 H 0.09821 0.71257 0.25497 0.0
H670 H 0.02069 0.77844 0.3184 0.0
H671 H 0.02554 0.81779 0.30895 0.0
H672 H 0.03747 0.80376 0.3513 0.0
H673 H 0.09054 0.83347 0.32442 0.0
H674 H 0.07869 0.84705 0.28176 0.0
H675 H 0.11004 0.82775 0.27381 0.0
H676 H 0.08125 0.73129 0.19536 0.0
H677 H 0.0631 0.75693 0.14443 0.0
H678 H 0.04542 0.82711 0.22791 0.0
C679 C 0.08796 0.76767 0.34323 0.0
C680 C 0.09992 0.74151 0.3488 0.0
C681 C 0.1033 0.72201 0.31599 0.0
C682 C 0.09531 0.72789 0.27934 0.0
C683 C 0.08368 0.75356 0.27488 0.0
C684 C 0.07993 0.77322 0.30586 0.0
C685 C 0.06663 0.79908 0.29256 0.0
C686 C 0.03575 0.79985 0.31943 0.0
C687 C 0.08774 0.8286 0.29318 0.0
C688 C 0.06403 0.7911 0.24923 0.0
C689 C 0.07383 0.76451 0.24007 0.0
C690 C 0.07342 0.75205 0.20246 0.0
C691 C 0.06274 0.7668 0.17358 0.0
C692 C 0.05222 0.79407 0.18156 0.0
C693 C 0.05325 0.80643 0.22025 0.0
H694 H 0.34083 0.89689 0.35793 0.0
H695 H 0.32387 0.80607 0.32154 0.0
H696 H 0.3337 0.78858 0.38522 0.0
H697 H 0.40201 0.88919 0.39773 0.0
H698 H 0.39458 0.91332 0.4395 0.0
H699 H 0.38145 0.91878 0.39432 0.0
H700 H 0.32735 0.91458 0.4361 0.0
H701 H 0.34038 0.90951 0.48158 0.0
H702 H 0.3112 0.8825 0.46877 0.0
H703 H 0.34998 0.7812 0.44824 0.0
H704 H 0.37166 0.78424 0.50884 0.0
H705 H 0.37983 0.88 0.50425 0.0
C706 C 0.33816 0.87334 0.36432 0.0
C707 C 0.33 0.85252 0.33622 0.0
C708 C 0.32814 0.82195 0.34423 0.0
C709 C 0.33412 0.81192 0.3799 0.0
C710 C 0.34217 0.8329 0.40708 0.0
C711 C 0.34415 0.86296 0.39993 0.0
C712 C 0.35588 0.8808 0.4326 0.0
C713 C 0.38522 0.90175 0.41496 0.0
C714 C 0.33229 0.89785 0.45616 0.0
C715 C 0.36093 0.85609 0.45838 0.0
C716 C 0.35257 0.82865 0.44329 0.0
C717 C 0.35616 0.8025 0.46087 0.0
C718 C 0.36844 0.80443 0.49518 0.0
C719 C 0.37714 0.83232 0.51116 0.0
C720 C 0.37334 0.85843 0.4925 0.0
H721 H 0.46161 0.19794 0.74019 0.0
H722 H 0.40243 0.25218 0.70597 0.0
H723 H 0.41643 0.23703 0.63518 0.0
H724 H 0.5203 0.21402 0.64703 0.0
H725 H 0.52944 0.17734 0.64619 0.0
H726 H 0.51503 0.19315 0.69363 0.0
H727 H 0.47281 0.14743 0.7094 0.0
H728 H 0.48689 0.13211 0.66152 0.0
H729 H 0.44875 0.138 0.67436 0.0
H730 H 0.43378 0.2123 0.56833 0.0
H731 H 0.45711 0.18548 0.51022 0.0
H732 H 0.50927 0.15018 0.58422 0.0
C733 C 0.45169 0.20683 0.71779 0.0
C734 C 0.43061 0.22635 0.72928 0.0
C735 C 0.41856 0.23742 0.69851 0.0
C736 C 0.42636 0.22876 0.65802 0.0
C737 C 0.44679 0.20925 0.64794 0.0
C738 C 0.45975 0.19885 0.67685 0.0
C739 C 0.48158 0.17853 0.65773 0.0
C740 C 0.51349 0.19152 0.6614 0.0
C741 C 0.47192 0.14716 0.67691 0.0
C742 C 0.4786 0.17874 0.61364 0.0
C743 C 0.45807 0.19637 0.60896 0.0
C744 C 0.45015 0.19885 0.5718 0.0
C745 C 0.46351 0.18331 0.53876 0.0
C746 C 0.4853 0.16568 0.54192 0.0
C747 C 0.493 0.16362 0.58024 0.0
H748 H 0.83934 0.81186 0.18819 0.0
H749 H 0.82118 0.90137 0.1994 0.0
H750 H 0.82841 0.90613 0.12546 0.0
H751 H 0.89838 0.82678 0.12516 0.0
H752 H 0.8967 0.79492 0.09371 0.0
H753 H 0.87563 0.79189 0.14443 0.0
H754 H 0.8268 0.77418 0.12016 0.0
H755 H 0.84794 0.77628 0.06878 0.0
H756 H 0.81677 0.79564 0.08238 0.0
H757 H 0.85442 0.90817 0.05488 0.0
H758 H 0.89653 0.90759 0.99674 0.0
H759 H 0.90252 0.8185 1.03085 0.0
C760 C 0.83477 0.83164 0.17511 0.0
C761 C 0.82943 0.85613 0.19921 0.0
C762 C 0.82492 0.88226 0.18129 0.0
C763 C 0.82894 0.88505 0.13925 0.0
C764 C 0.83755 0.86156 0.11574 0.0
C765 C 0.8399 0.835 0.13321 0.0
C766 C 0.85688 0.81625 0.10284 0.0
C767 C 0.88345 0.80702 0.11742 0.0
C768 C 0.83583 0.78898 0.09294 0.0
C769 C 0.86707 0.83793 0.06723 0.0
C770 C 0.85423 0.86319 0.0743 0.0
C771 C 0.86373 0.88812 0.04835 0.0
C772 C 0.88768 0.88771 1.01551 0.0
C773 C 0.90205 0.8628 1.00965 0.0
C774 C 0.89103 0.83735 1.03468 0.0
H775 H 0.9208 0.21367 0.72854 0.0
H776 H 0.905 0.3013 0.76565 0.0
H777 H 0.91964 0.2927 0.83008 0.0
H778 H 0.89389 0.17701 0.82692 0.0
H779 H 0.92175 0.15338 0.8204 0.0
H780 H 0.91023 0.16626 0.77704 0.0
H781 H 0.96502 0.18851 0.74465 0.0
H782 H 0.97665 0.17535 0.78776 0.0
H783 H 0.98604 0.21403 0.77295 0.0
H784 H 0.93735 0.27474 0.8914 0.0
H785 H 0.9542 0.24916 0.94374 0.0
H786 H 0.95958 0.17242 0.8687 0.0
C787 C 0.92089 0.23132 0.74983 0.0
C788 C 0.91209 0.2586 0.74088 0.0
C789 C 0.91164 0.28036 0.77091 0.0
C790 C 0.92006 0.27563 0.80786 0.0
C791 C 0.92894 0.24879 0.81535 0.0
C792 C 0.92928 0.2269 0.78716 0.0
C793 C 0.93946 0.1999 0.80303 0.0
C794 C 0.91487 0.17251 0.80708 0.0
C795 C 0.96851 0.19406 0.77542 0.0
C796 C 0.94475 0.20989 0.84454 0.0
C797 C 0.93867 0.2383 0.85079 0.0
C798 C 0.94221 0.25256 0.88644 0.0
C799 C 0.95217 0.23776 0.91616 0.0
C800 C 0.95889 0.20861 0.91104 0.0
C801 C 0.95472 0.19454 0.87434 0.0
H802 H 0.69038 0.17403 0.76019 0.0
H803 H 0.71788 0.08808 0.75845 0.0
H804 H 0.71531 0.08408 0.68632 0.0
H805 H 0.6365 0.15473 0.70906 0.0
H806 H 0.64143 0.18934 0.68146 0.0
H807 H 0.65222 0.18878 0.72918 0.0
H808 H 0.70568 0.21422 0.69646 0.0
H809 H 0.69527 0.21549 0.64833 0.0
H810 H 0.72659 0.1984 0.65312 0.0
H811 H 0.70214 0.08634 0.61833 0.0
H812 H 0.67934 0.09441 0.56052 0.0
H813 H 0.65923 0.17823 0.60897 0.0
C814 C 0.69731 0.15498 0.74421 0.0
C815 C 0.70489 0.13158 0.76456 0.0
C816 C 0.71234 0.10636 0.74311 0.0
C817 C 0.71102 0.10398 0.70222 0.0
C818 C 0.70225 0.12703 0.68351 0.0
C819 C 0.69574 0.15216 0.70384 0.0
C820 C 0.6829 0.17195 0.67919 0.0
C821 C 0.65141 0.17642 0.70103 0.0
C822 C 0.70388 0.20178 0.66861 0.0
C823 C 0.682 0.15347 0.64235 0.0
C824 C 0.6938 0.12795 0.64493 0.0
C825 C 0.69339 0.1065 0.61562 0.0
C826 C 0.68038 0.11122 0.58301 0.0
C827 C 0.66759 0.1369 0.58055 0.0
C828 C 0.66884 0.15839 0.61029 0.0
H829 H 0.52199 0.83477 0.5215 0.0
H830 H 0.57931 0.79993 0.58799 0.0
H831 H 0.60064 0.77414 0.52731 0.0
H832 H 0.50903 0.7709 0.45781 0.0
H833 H 0.51088 0.79316 0.41348 0.0
H834 H 0.49853 0.80708 0.46295 0.0
H835 H 0.5395 0.85363 0.44505 0.0
H836 H 0.55193 0.83957 0.39574 0.0
H837 H 0.57788 0.84914 0.42824 0.0
H838 H 0.6153 0.75019 0.45814 0.0
H839 H 0.62582 0.73603 0.38643 0.0
H840 H 0.56311 0.78983 0.36169 0.0
C841 C 0.53891 0.82157 0.52338 0.0
C842 C 0.54867 0.81941 0.56027 0.0
C843 C 0.57129 0.80218 0.56061 0.0
C844 C 0.58353 0.78723 0.52609 0.0
C845 C 0.57358 0.78985 0.49035 0.0
C846 C 0.55206 0.807 0.48856 0.0
C847 C 0.54671 0.8076 0.44557 0.0
C848 C 0.51435 0.79389 0.44493 0.0
C849 C 0.55447 0.83937 0.42759 0.0
C850 C 0.56848 0.78821 0.42358 0.0
C851 C 0.58336 0.7777 0.45018 0.0
C852 C 0.60387 0.75861 0.43716 0.0
C853 C 0.60966 0.75049 0.39618 0.0
C854 C 0.59561 0.76177 0.36774 0.0
C855 C 0.57458 0.78087 0.38219 0.0
H856 H 0.69345 0.65743 0.42393 0.0
H857 H 0.65859 0.57201 0.38196 0.0
H858 H 0.64587 0.55184 0.45098 0.0
H859 H 0.70881 0.6275 0.52712 0.0
H860 H 0.69556 0.65916 0.55175 0.0
H861 H 0.71682 0.6628 0.50041 0.0
H862 H 0.67438 0.68424 0.47871 0.0
H863 H 0.65296 0.68028 0.52925 0.0
H864 H 0.63723 0.66288 0.48897 0.0
H865 H 0.61742 0.54692 0.51898 0.0
H866 H 0.58024 0.5573 0.5783 0.0
H867 H 0.6292 0.64573 0.5814 0.0
C868 C 0.68437 0.63413 0.4293 0.0
C869 C 0.67651 0.61658 0.3976 0.0
C870 C 0.66512 0.58607 0.40542 0.0
C871 C 0.65767 0.57433 0.44494 0.0
C872 C 0.66176 0.59329 0.47635 0.0
C873 C 0.67569 0.62252 0.46894 0.0
C874 C 0.67073 0.64023 0.50701 0.0
C875 C 0.69971 0.64786 0.52249 0.0
C876 C 0.65803 0.6685 0.50056 0.0
C877 C 0.64824 0.61773 0.53506 0.0
C878 C 0.64463 0.59029 0.51755 0.0
C879 C 0.621 0.56776 0.53385 0.0
C880 C 0.59985 0.57381 0.56744 0.0
C881 C 0.60265 0.60199 0.58447 0.0
C882 C 0.62767 0.62369 0.56943 0.0
H883 H 0.5769 0.27933 0.86741 0.0
H884 H 0.61229 0.20177 0.81862 0.0
H885 H 0.59919 0.21149 0.75372 0.0
H886 H 0.51435 0.27088 0.81479 0.0
H887 H 0.51709 0.31014 0.80652 0.0
H888 H 0.52864 0.29653 0.84944 0.0
H889 H 0.58053 0.32925 0.82576 0.0
H890 H 0.56913 0.34231 0.7824 0.0
H891 H 0.60189 0.32517 0.77566 0.0
H892 H 0.58242 0.22986 0.69206 0.0
H893 H 0.56448 0.25485 0.64043 0.0
H894 H 0.53836 0.32113 0.7265 0.0
C895 C 0.58163 0.26412 0.84332 0.0
C896 C 0.59559 0.23932 0.84932 0.0
C897 C 0.6016 0.22069 0.81593 0.0
C898 C 0.59419 0.22611 0.7785 0.0
C899 C 0.58055 0.25051 0.77373 0.0
C900 C 0.5743 0.26928 0.80528 0.0
C901 C 0.55973 0.29413 0.79165 0.0
C902 C 0.52807 0.29287 0.81716 0.0
C903 C 0.57897 0.32452 0.79402 0.0
C904 C 0.5589 0.28654 0.74762 0.0
C905 C 0.57097 0.26114 0.73815 0.0
C906 C 0.57276 0.24961 0.69958 0.0
C907 C 0.56205 0.26402 0.6702 0.0
C908 C 0.54912 0.29006 0.67844 0.0
C909 C 0.54791 0.30141 0.71825 0.0
H910 H 0.84611 0.33624 0.98747 0.0
H911 H 0.86556 0.42997 1.00997 0.0
H912 H 0.84631 0.44146 0.95022 0.0
H913 H 0.87088 0.34186 0.88537 0.0
H914 H 0.84292 0.31285 0.87375 0.0
H915 H 0.85324 0.31229 0.92176 0.0
H916 H 0.79788 0.30995 0.95751 0.0
H917 H 0.7873 0.31143 0.90949 0.0
H918 H 0.77789 0.33837 0.94679 0.0
H919 H 0.83078 0.44273 0.88379 0.0
H920 H 0.82426 0.43396 0.814 0.0
H921 H 0.81628 0.33943 0.83565 0.0
C922 C 0.84542 0.35913 0.98058 0.0
C923 C 0.85699 0.38222 1.00342 0.0
C924 C 0.85676 0.41198 0.99271 0.0
C925 C 0.84559 0.41867 0.95915 0.0
C926 C 0.83464 0.39531 0.93691 0.0
C927 C 0.83452 0.36612 0.94723 0.0
C928 C 0.82503 0.34527 0.91591 0.0
C929 C 0.84947 0.32703 0.89815 0.0
C930 C 0.79526 0.32506 0.93349 0.0
C931 C 0.82132 0.36738 0.8853 0.0
C932 C 0.82614 0.39607 0.89833 0.0
C933 C 0.82649 0.42034 0.87352 0.0
C934 C 0.82293 0.41516 0.83388 0.0
C935 C 0.81957 0.38598 0.81937 0.0
C936 C 0.81777 0.36189 0.84604 0.0
H937 H 0.95792 0.70636 0.23356 0.0
H938 H 0.91589 0.77792 0.20191 0.0
H939 H 0.93052 0.76647 0.12966 0.0
H940 H 0.02133 0.71665 0.14608 0.0
H941 H 0.02146 0.67754 0.14192 0.0
H942 H 0.00833 0.69263 0.19036 0.0
H943 H 0.95865 0.65557 0.1971 0.0
H944 H 0.97177 0.64156 0.14797 0.0
H945 H 0.93722 0.6558 0.15867 0.0
H946 H 0.9468 0.7444 0.05975 0.0
H947 H 0.96671 0.71721 0.99956 0.0
H948 H 0.00178 0.66189 0.07445 0.0
C949 C 0.95183 0.7198 0.21152 0.0
C950 C 0.93544 0.74318 0.22423 0.0
C951 C 0.92831 0.76001 0.19371 0.0
C952 C 0.93651 0.75354 0.15232 0.0
C953 C 0.95226 0.73021 0.14104 0.0
C954 C 0.9602 0.71382 0.16983 0.0
C955 C 0.97725 0.68994 0.14965 0.0
C956 C 0.00897 0.69446 0.15751 0.0
C957 C 0.9602 0.65888 0.16422 0.0
C958 C 0.9778 0.69541 0.10501 0.0
C959 C 0.96285 0.71852 0.10084 0.0
C960 C 0.95883 0.72659 0.0629 0.0
C961 C 0.97024 0.71089 1.02867 0.0
C962 C 0.98631 0.68755 1.03162 0.0
C963 C -0.00981 0.67995 0.07067 0.0
H964 H 0.3843 0.32268 0.50964 0.0
H965 H 0.40621 0.41804 0.50571 0.0
H966 H 0.36446 0.42046 0.56315 0.0
H967 H 0.29681 0.31901 0.56116 0.0
H968 H 0.2986 0.28665 0.5899 0.0
H969 H 0.31937 0.29247 0.53842 0.0
H970 H 0.36771 0.28766 0.56199 0.0
H971 H 0.34736 0.28196 0.61292 0.0
H972 H 0.37883 0.31164 0.6005 0.0
H973 H 0.33824 0.4127 0.63193 0.0
H974 H 0.3322 0.39604 0.70181 0.0
H975 H 0.31994 0.30474 0.66567 0.0
C976 C 0.3787 0.34394 0.51952 0.0
C977 C 0.39764 0.37017 0.50335 0.0
C978 C 0.39127 0.39783 0.5175 0.0
C979 C 0.36747 0.39932 0.55001 0.0
C980 C 0.35028 0.37291 0.56785 0.0
C981 C 0.35505 0.34558 0.55235 0.0
C982 C 0.33858 0.32059 0.5819 0.0
C983 C 0.31174 0.30369 0.56695 0.0
C984 C 0.35939 0.29931 0.5898 0.0
C985 C 0.32829 0.33821 0.61866 0.0
C986 C 0.33374 0.3683 0.6093 0.0
C987 C 0.33276 0.38922 0.63944 0.0
C988 C 0.32916 0.37948 0.67949 0.0
C989 C 0.32638 0.34898 0.68911 0.0
C990 C 0.32268 0.32821 0.65888 0.0
H991 H 0.47144 0.67962 0.36994 0.0
H992 H 0.43268 0.73575 0.46287 0.0
H993 H 0.41333 0.7607 0.41241 0.0
H994 H 0.49305 0.73567 0.28976 0.0
H995 H 0.48422 0.7111 0.25065 0.0
H996 H 0.49518 0.69692 0.29368 0.0
H997 H 0.44659 0.65858 0.30969 0.0
H998 H 0.43564 0.6721 0.26626 0.0
H999 H 0.41119 0.67092 0.31539 0.0
H1000 H 0.3964 0.77972 0.35003 0.0
H1001 H 0.38586 0.79097 0.28369 0.0
H1002 H 0.43545 0.72327 0.23017 0.0
C1003 C 0.45872 0.69698 0.38005 0.0
C1004 C 0.45403 0.70535 0.42142 0.0
C1005 C 0.43741 0.72874 0.43198 0.0
C1006 C 0.42598 0.74311 0.40324 0.0
C1007 C 0.43105 0.73431 0.3631 0.0
C1008 C 0.44714 0.71177 0.35149 0.0
C1009 C 0.44973 0.70677 0.30624 0.0
C1010 C 0.48251 0.71296 0.28373 0.0
C1011 C 0.4349 0.67521 0.29897 0.0
C1012 C 0.43256 0.72982 0.29419 0.0
C1013 C 0.42185 0.74546 0.32751 0.0
C1014 C 0.40498 0.76759 0.3239 0.0
C1015 C 0.39906 0.77392 0.28574 0.0
C1016 C 0.40992 0.75846 0.25073 0.0
C1017 C 0.42695 0.736 0.25565 0.0
H1018 H 0.18012 0.58956 0.2262 0.0
H1019 H 0.22016 0.67968 0.24458 0.0
H1020 H 0.2304 0.69027 0.17176 0.0
H1021 H 0.22432 0.58292 0.11621 0.0
H1022 H 0.19103 0.56284 0.10328 0.0
H1023 H 0.19782 0.55845 0.15317 0.0
H1024 H 0.14637 0.57262 0.18404 0.0
H1025 H 0.13961 0.57752 0.13466 0.0
H1026 H 0.13808 0.60752 0.1693 0.0
H1027 H 0.22237 0.69601 0.10347 0.0
H1028 H 0.19773 0.69597 1.04602 0.0
H1029 H 0.16053 0.60305 0.07072 0.0
C1030 C 0.19205 0.61118 0.21464 0.0
C1031 C 0.19924 0.63375 0.24113 0.0
C1032 C 0.21487 0.66179 0.22498 0.0
C1033 C 0.22077 0.66806 0.18344 0.0
C1034 C 0.21103 0.64604 0.15843 0.0
C1035 C 0.1974 0.61791 0.17336 0.0
C1036 C 0.18347 0.60021 0.14231 0.0
C1037 C 0.20017 0.57459 0.12788 0.0
C1038 C 0.14992 0.58885 0.15856 0.0
C1039 C 0.18872 0.62371 0.10928 0.0
C1040 C 0.20572 0.64959 0.11839 0.0
C1041 C 0.20995 0.6756 0.09525 0.0
C1042 C 0.19579 0.6754 0.06271 0.0
C1043 C 0.17729 0.64946 0.05404 0.0
C1044 C 0.17466 0.62312 0.07673 0.0
H1045 H 0.06495 0.29681 0.85443 0.0
H1046 H 0.10925 0.23032 0.89518 0.0
H1047 H 0.09241 0.24458 0.96587 0.0
H1048 H 0.08058 0.35222 0.92639 0.0
H1049 H 0.04486 0.36405 0.93378 0.0
H1050 H 0.06022 0.34872 0.88645 0.0
H1051 H 0.01257 0.30899 0.89362 0.0
H1052 H -0.00291 0.32476 0.94059 0.0
H1053 H 7e-05 0.2861 0.93902 0.0
H1054 H 0.07318 0.26857 1.03275 0.0
H1055 H 0.0502 0.29673 0.08973 0.0
H1056 H 0.01441 0.34564 1.0079 0.0
C1057 C 0.07122 0.28521 0.87816 0.0
C1058 C 0.08889 0.26242 0.8686 0.0
C1059 C 0.09598 0.24778 0.90111 0.0
C1060 C 0.08646 0.25583 0.94157 0.0
C1061 C 0.06933 0.27842 0.94978 0.0
C1062 C 0.06144 0.29268 0.91895 0.0
C1063 C 0.04242 0.31592 0.93609 0.0
C1064 C 0.05795 0.34707 0.9197 0.0
C1065 C 0.01119 0.30851 0.92675 0.0
C1066 C 0.041 0.31277 0.98138 0.0
C1067 C 0.05701 0.29117 0.98842 0.0
C1068 C 0.06037 0.28522 1.02738 0.0
C1069 C 0.04723 0.30151 0.05974 0.0
C1070 C 0.03014 0.32341 0.0539 0.0
C1071 C 0.02688 0.32884 1.01385 0.0
H1072 H 0.94364 0.27788 0.25916 0.0
H1073 H 0.03243 0.32462 0.21339 0.0
H1074 H 0.05214 0.29406 0.25598 0.0
H1075 H 0.97718 0.2326 0.35238 0.0
H1076 H 0.94971 0.20124 0.34635 0.0
H1077 H 0.93944 0.23744 0.3539 0.0
H1078 H 0.91794 0.23231 0.29089 0.0
H1079 H 0.92855 0.19661 0.28326 0.0
H1080 H 0.94055 0.22441 0.24308 0.0
H1081 H 0.06544 0.24691 0.25277 0.0
H1082 H 0.06576 0.21152 0.19839 0.0
H1083 H 0.97078 0.18493 0.2365 0.0
C1084 C 0.96705 0.28197 0.26005 0.0
C1085 C 0.98686 0.3022 0.23202 0.0
C1086 C 0.01709 0.30834 0.23373 0.0
C1087 C 0.02827 0.29127 0.25879 0.0
C1088 C 0.00945 0.26643 0.27911 0.0
C1089 C 0.97853 0.26312 0.2829 0.0
C1090 C 0.96464 0.2311 0.29291 0.0
C1091 C 0.9574 0.22528 0.33906 0.0
C1092 C 0.93629 0.22057 0.27631 0.0
C1093 C -0.00869 0.21728 0.2735 0.0
C1094 C 0.01755 0.23691 0.2745 0.0
C1095 C 0.04498 0.23222 0.25117 0.0
C1096 C 0.04502 0.21261 0.2196 0.0
C1097 C 0.01787 0.1974 0.2127 0.0
C1098 C -0.0086 0.19757 0.24158 0.0
H1099 H 0.97344 0.72889 0.36185 0.0
H1100 H 0.97259 0.81107 0.42586 0.0
H1101 H -0.00915 0.78947 0.4801 0.0
H1102 H 0.95419 0.67678 0.4486 0.0
H1103 H 0.98106 0.65368 0.4281 0.0
H1104 H 0.96468 0.67251 0.39453 0.0
H1105 H 0.01531 0.69954 0.35504 0.0
H1106 H 0.03275 0.67888 0.38523 0.0
H1107 H 0.04138 0.71873 0.38262 0.0
H1108 H 0.01419 0.76182 0.52275 0.0
H1109 H 0.05096 0.7344 0.5412 0.0
H1110 H 0.03291 0.66817 0.45441 0.0
C1111 C 0.97657 0.742 0.38774 0.0
C1112 C 0.97082 0.77119 0.39041 0.0
C1113 C 0.97666 0.78847 0.42348 0.0
C1114 C 0.98649 0.77625 0.45479 0.0
C1115 C -0.00941 0.74686 0.45233 0.0
C1116 C 0.98652 0.73016 0.41917 0.0
C1117 C -0.00227 0.70119 0.42034 0.0
C1118 C 0.97283 0.67446 0.423 0.0
C1119 C 0.02331 0.69945 0.38366 0.0
C1120 C 0.00852 0.70413 0.45931 0.0
C1121 C 0.00391 0.73049 0.47767 0.0
C1122 C 0.01704 0.74063 0.50963 0.0
C1123 C 0.03744 0.72469 0.52054 0.0
C1124 C 0.04383 0.69897 0.49978 0.0
C1125 C 0.02713 0.68708 0.47181 0.0
H1126 H 0.49794 0.68245 0.73107 0.0
H1127 H 0.59012 0.70655 0.67142 0.0
H1128 H 0.59877 0.74013 0.72589 0.0
H1129 H 0.46934 0.72154 0.754 0.0
H1130 H 0.45424 0.72662 0.80668 0.0
H1131 H 0.46293 0.69127 0.79036 0.0
H1132 H 0.49473 0.69067 0.84172 0.0
H1133 H 0.48648 0.72632 0.85862 0.0
H1134 H 0.52455 0.72072 0.84381 0.0
H1135 H 0.58777 0.78717 0.74323 0.0
H1136 H 0.5626 0.81954 0.71154 0.0
H1137 H 0.47726 0.77338 0.77436 0.0
C1138 C 0.52018 0.69366 0.73141 0.0
C1139 C 0.54302 0.69345 0.69707 0.0
C1140 C 0.57208 0.70771 0.69717 0.0
C1141 C 0.57727 0.72609 0.72873 0.0
C1142 C 0.55307 0.72997 0.7597 0.0
C1143 C 0.52563 0.71131 0.76387 0.0
C1144 C 0.5021 0.7242 0.79305 0.0
C1145 C 0.47028 0.71551 0.78536 0.0
C1146 C 0.50204 0.71499 0.83681 0.0
C1147 C 0.51572 0.75651 0.78502 0.0
C1148 C 0.54681 0.75916 0.77276 0.0
C1149 C 0.56375 0.78478 0.75218 0.0
C1150 C 0.5493 0.80315 0.73363 0.0
C1151 C 0.51811 0.79808 0.74006 0.0
C1152 C 0.50131 0.777 0.76944 0.0
H1153 H 0.5516 0.2452 1.00429 0.0
H1154 H 0.52697 0.15259 0.98073 0.0
H1155 H 0.4819 0.16277 0.96168 0.0
H1156 H 0.46447 0.25769 1.0295 0.0
H1157 H 0.47459 0.29412 1.00561 0.0
H1158 H 0.49728 0.2818 1.0371 0.0
H1159 H 0.54365 0.29134 0.98175 0.0
H1160 H 0.5239 0.30496 0.94782 0.0
H1161 H 0.54394 0.27484 0.93324 0.0
H1162 H 0.47582 0.18632 0.90178 0.0
H1163 H 0.46542 0.21727 0.84967 0.0
H1164 H 0.47567 0.29403 0.92343 0.0
C1165 C 0.53523 0.22694 0.99858 0.0
C1166 C 0.54281 0.19856 0.99192 0.0
C1167 C 0.52151 0.17466 0.98472 0.0
C1168 C 0.49585 0.18025 0.97391 0.0
C1169 C 0.49184 0.20958 0.97236 0.0
C1170 C 0.50899 0.23237 0.98836 0.0
C1171 C 0.50192 0.26221 0.97757 0.0
C1172 C 0.48344 0.27474 1.01465 0.0
C1173 C 0.53006 0.28461 0.95897 0.0
C1174 C 0.48338 0.25275 0.94664 0.0
C1175 C 0.47926 0.22234 0.94305 0.0
C1176 C 0.47453 0.2094 0.90727 0.0
C1177 C 0.46905 0.22713 0.87766 0.0
C1178 C 0.46614 0.25685 0.88517 0.0
C1179 C 0.47515 0.27055 0.9189 0.0
H1180 H 0.94439 0.78332 0.89925 0.0
H1181 H 0.03328 0.82897 0.85102 0.0
H1182 H 0.03695 0.7987 0.79186 0.0
H1183 H 0.95031 0.72937 0.9112 0.0
H1184 H 0.9269 0.7007 0.89027 0.0
H1185 H 0.91601 0.73616 0.89924 0.0
H1186 H 0.91191 0.74165 0.82621 0.0
H1187 H 0.92207 0.70559 0.81656 0.0
H1188 H 0.94231 0.7371 0.78531 0.0
H1189 H 0.04663 0.75243 0.7697 0.0
H1190 H 0.06446 0.7175 0.80862 0.0
H1191 H 0.97548 0.6896 0.87798 0.0
C1192 C 0.96378 0.78724 0.87464 0.0
C1193 C -0.01143 0.8078 0.87925 0.0
C1194 C 0.01414 0.81294 0.84803 0.0
C1195 C 0.01604 0.79587 0.81383 0.0
C1196 C -0.00627 0.77132 0.81343 0.0
C1197 C 0.967 0.7677 0.84254 0.0
C1198 C 0.95241 0.73552 0.84598 0.0
C1199 C 0.93553 0.72485 0.88928 0.0
C1200 C 0.93098 0.72964 0.81676 0.0
C1201 C 0.98002 0.72199 0.83019 0.0
C1202 C 0.00102 0.742 0.80351 0.0
C1203 C 0.03055 0.7374 0.79128 0.0
C1204 C 0.04077 0.71778 0.81404 0.0
C1205 C 0.02111 0.70198 0.84707 0.0
C1206 C -0.00964 0.70188 0.85263 0.0
H1207 H 0.54274 0.70966 0.17236 0.0
H1208 H 0.55026 0.77381 0.26577 0.0
H1209 H 0.53286 0.80968 0.22743 0.0
H1210 H 0.55387 0.76233 0.08317 0.0
H1211 H 0.52368 0.74126 0.06422 0.0
H1212 H 0.54508 0.72264 0.09138 0.0
H1213 H 0.49704 0.69964 0.14363 0.0
H1214 H 0.47652 0.71652 0.11378 0.0
H1215 H 0.47181 0.7237 0.16696 0.0
H1216 H 0.51656 0.83876 0.18189 0.0
H1217 H 0.47315 0.84945 0.15852 0.0
H1218 H 0.46502 0.76481 0.10053 0.0
C1219 C 0.5407 0.73133 0.18442 0.0
C1220 C 0.54958 0.73993 0.22054 0.0
C1221 C 0.54504 0.76759 0.23688 0.0
C1222 C 0.53575 0.7883 0.215 0.0
C1223 C 0.52977 0.78046 0.17762 0.0
C1224 C 0.52985 0.752 0.16382 0.0
C1225 C 0.51364 0.74694 0.12952 0.0
C1226 C 0.53539 0.74307 0.0897 0.0
C1227 C 0.4882 0.72015 0.13914 0.0
C1228 C 0.50239 0.7762 0.12903 0.0
C1229 C 0.51488 0.79608 0.15411 0.0
C1230 C 0.50642 0.82354 0.16225 0.0
C1231 C 0.48174 0.82939 0.14892 0.0
C1232 C 0.46566 0.80744 0.12899 0.0
C1233 C 0.47736 0.78177 0.11569 0.0
H1234 H 0.47063 0.17706 0.42275 0.0
H1235 H 0.54435 0.2135 0.32683 0.0
H1236 H 0.51142 0.24125 0.29998 0.0
H1237 H 0.40721 0.19919 0.35629 0.0
H1238 H 0.38414 0.20394 0.4049 0.0
H1239 H 0.40249 0.17204 0.39626 0.0
H1240 H 0.42473 0.18446 0.45796 0.0
H1241 H 0.40753 0.21659 0.46628 0.0
H1242 H 0.4474 0.22021 0.46082 0.0
H1243 H 0.48421 0.28031 0.30637 0.0
H1244 H 0.48341 0.32177 0.35087 0.0
H1245 H 0.42616 0.26609 0.44793 0.0
C1246 C 0.4791 0.18946 0.39457 0.0
C1247 C 0.50972 0.1937 0.37706 0.0
C1248 C 0.52087 0.21054 0.34101 0.0
C1249 C 0.50196 0.22573 0.32514 0.0
C1250 C 0.47218 0.22408 0.34604 0.0
C1251 C 0.46037 0.20487 0.37923 0.0
C1252 C 0.43201 0.21329 0.40378 0.0
C1253 C 0.40489 0.19614 0.38941 0.0
C1254 C 0.42782 0.20842 0.44993 0.0
C1255 C 0.43732 0.24541 0.3901 0.0
C1256 C 0.45645 0.24924 0.35194 0.0
C1257 C 0.46956 0.27739 0.33596 0.0
C1258 C 0.46925 0.30098 0.36186 0.0
C1259 C 0.45538 0.29635 0.40308 0.0
C1260 C 0.43684 0.26938 0.41632 0.0
H1261 H 0.03162 0.1971 0.68595 0.0
H1262 H 0.04902 0.27193 0.76143 0.0
H1263 H 0.03472 0.3045 0.71473 0.0
H1264 H 0.04627 0.23571 0.58819 0.0
H1265 H 0.01354 0.21661 0.57255 0.0
H1266 H 0.03095 0.19816 0.60564 0.0
H1267 H 0.98246 0.18784 0.66082 0.0
H1268 H 0.96414 0.20349 0.62654 0.0
H1269 H 0.96256 0.21789 0.67637 0.0
H1270 H 0.0218 0.32934 0.66141 0.0
H1271 H 0.98333 0.3422 0.62933 0.0
H1272 H 0.96113 0.25078 0.5974 0.0
C1273 C 0.03219 0.22032 0.69253 0.0
C1274 C 0.04359 0.23278 0.72531 0.0
C1275 C 0.04227 0.26263 0.7347 0.0
C1276 C 0.03462 0.28136 0.70814 0.0
C1277 C 0.02644 0.26933 0.67372 0.0
C1278 C 0.02259 0.2392 0.66762 0.0
C1279 C 0.00545 0.23136 0.6347 0.0
C1280 C 0.02522 0.21973 0.59803 0.0
C1281 C 0.97694 0.20881 0.65055 0.0
C1282 C -0.00113 0.26167 0.62533 0.0
C1283 C 0.01374 0.28336 0.64576 0.0
C1284 C 0.01015 0.31279 0.64492 0.0
C1285 C -0.0118 0.31986 0.62662 0.0
C1286 C 0.9689 0.29713 0.61246 0.0
C1287 C 0.97585 0.26833 0.60809 0.0
H1288 H -0.01279 0.06586 0.09454 0.0
H1289 H 0.06606 0.04265 0.12689 0.0
H1290 H 0.06527 0.00153 0.08023 0.0
H1291 H 0.95041 0.99115 0.08594 0.0
H1292 H 0.93584 -0.00117 1.04263 0.0
H1293 H 0.94266 0.02762 0.0776 0.0
H1294 H 0.97662 0.06123 1.01913 0.0
H1295 H 0.96981 0.03259 0.98391 0.0
H1296 H 0.00749 0.04771 0.98724 0.0
H1297 H 0.05535 0.9614 1.03352 0.0
H1298 H 0.03813 0.92557 0.98564 0.0
H1299 H 0.96587 0.97308 0.97997 0.0
C1300 C 0.00434 0.05217 0.09153 0.0
C1301 C 0.02661 0.05747 0.1148 0.0
C1302 C 0.04863 0.03903 0.10986 0.0
C1303 C 0.04843 0.01554 0.08328 0.0
C1304 C 0.02608 0.01049 0.06139 0.0
C1305 C 0.0045 0.02829 0.0648 0.0
C1306 C 0.983 0.01741 1.03749 0.0
C1307 C 0.95108 0.00821 0.06241 0.0
C1308 C 0.98431 0.04115 1.00501 0.0
C1309 C -0.00429 0.99061 1.01887 0.0
C1310 C 0.02058 0.98721 1.03332 0.0
C1311 C 0.036 0.96391 1.02179 0.0
C1312 C 0.02593 0.94352 0.99466 0.0
C1313 C 0.00065 0.94636 0.97898 0.0
C1314 C 0.98537 0.97037 0.99125 0.0
H1315 H 0.23295 0.71752 0.39622 0.0
H1316 H 0.16434 0.74283 0.34172 0.0
H1317 H 0.197 0.74432 0.27486 0.0
H1318 H 0.28732 0.766 0.34047 0.0
H1319 H 0.31832 0.74603 0.32965 0.0
H1320 H 0.2895 0.73701 0.37458 0.0
H1321 H 0.27306 0.68236 0.35718 0.0
H1322 H 0.3064 0.68961 0.3179 0.0
H1323 H 0.27156 0.6743 0.30542 0.0
H1324 H 0.23904 0.75093 0.21453 0.0
H1325 H 0.28668 0.75627 0.16377 0.0
H1326 H 0.32979 0.72738 0.25445 0.0
C1327 C 0.22434 0.72175 0.36995 0.0
C1328 C 0.19525 0.72873 0.37454 0.0
C1329 C 0.18572 0.73608 0.33936 0.0
C1330 C 0.20441 0.73736 0.30093 0.0
C1331 C 0.23316 0.73157 0.29746 0.0
C1332 C 0.24306 0.72321 0.33077 0.0
C1333 C 0.27623 0.72153 0.31874 0.0
C1334 C 0.29398 0.74397 0.3422 0.0
C1335 C 0.28207 0.69007 0.32525 0.0
C1336 C 0.28307 0.73019 0.27385 0.0
C1337 C 0.25789 0.73608 0.26236 0.0
C1338 C 0.25884 0.74591 0.22302 0.0
C1339 C 0.28601 0.74908 0.19436 0.0
C1340 C 0.31188 0.74204 0.20487 0.0
C1341 C 0.31028 0.73262 0.24531 0.0
H1342 H 0.49208 0.02502 0.47358 0.0
H1343 H 0.56443 0.08568 0.50653 0.0
H1344 H 0.56901 0.04811 0.55643 0.0
H1345 H 0.45767 0.99479 0.57023 0.0
H1346 H 0.44821 0.95736 0.55465 0.0
H1347 H 0.45171 0.98799 0.51991 0.0
H1348 H 0.49109 0.96618 0.46777 0.0
H1349 H 0.48699 0.93504 0.50187 0.0
H1350 H 0.52332 0.95677 0.48294 0.0
H1351 H 0.56199 0.00531 0.60739 0.0
H1352 H 0.5516 0.95756 0.64548 0.0
H1353 H 0.48549 0.92326 0.5768 0.0
C1354 C 0.50953 0.03002 0.49044 0.0
C1355 C 0.52834 0.05809 0.48568 0.0
C1356 C 0.55039 0.0641 0.50891 0.0
C1357 C 0.55278 0.04301 0.53773 0.0
C1358 C 0.53314 0.01591 0.54263 0.0
C1359 C 0.51251 0.00906 0.51874 0.0
C1360 C 0.49428 0.97826 0.52949 0.0
C1361 C 0.461 0.97971 0.54445 0.0
C1362 C 0.49923 0.95785 0.49337 0.0
C1363 C 0.50762 0.96878 0.56353 0.0
C1364 C 0.52965 0.99107 0.57106 0.0
C1365 C 0.54492 0.98775 0.60146 0.0
C1366 C 0.53856 0.96065 0.62336 0.0
C1367 C 0.51726 0.93687 0.61483 0.0
C1368 C 0.50125 0.94124 0.58486 0.0
H1369 H 0.30947 0.26458 0.853 0.0
H1370 H 0.32919 0.18674 0.78554 0.0
H1371 H 0.28475 0.1852 0.75778 0.0
H1372 H 0.22858 0.24187 0.87629 0.0
H1373 H 0.2207 0.27851 0.86962 0.0
H1374 H 0.25422 0.27393 0.88565 0.0
H1375 H 0.28602 0.3073 0.82525 0.0
H1376 H 0.2526 0.31211 0.80917 0.0
H1377 H 0.28191 0.29811 0.77472 0.0
H1378 H 0.23887 0.19089 0.73644 0.0
H1379 H 0.19392 0.20557 0.72065 0.0
H1380 H 0.20164 0.27965 0.80028 0.0
C1381 C 0.30434 0.2473 0.83243 0.0
C1382 C 0.3229 0.22568 0.82182 0.0
C1383 C 0.31543 0.2035 0.79454 0.0
C1384 C 0.2901 0.20233 0.77845 0.0
C1385 C 0.27216 0.22356 0.78956 0.0
C1386 C 0.27881 0.24577 0.81568 0.0
C1387 C 0.25551 0.26597 0.82158 0.0
C1388 C 0.23876 0.265 0.86593 0.0
C1389 C 0.26987 0.29777 0.8068 0.0
C1390 C 0.23516 0.2516 0.79457 0.0
C1391 C 0.24524 0.22705 0.77669 0.0
C1392 C 0.23061 0.21004 0.75033 0.0
C1393 C 0.20499 0.21843 0.74168 0.0
C1394 C 0.19413 0.24352 0.75943 0.0
C1395 C 0.20944 0.2603 0.78629 0.0
H1396 H 0.73144 0.23861 0.8946 0.0
H1397 H 0.6615 0.25512 0.83556 0.0
H1398 H 0.69584 0.25717 0.76951 0.0
H1399 H 0.78898 0.28858 0.82944 0.0
H1400 H 0.81822 0.26692 0.82681 0.0
H1401 H 0.78826 0.26374 0.87081 0.0
H1402 H 0.77368 0.20666 0.86277 0.0
H1403 H 0.80616 0.21057 0.82213 0.0
H1404 H 0.77063 0.19333 0.81341 0.0
H1405 H 0.7386 0.2627 0.70971 0.0
H1406 H 0.78567 0.26341 0.65899 0.0
H1407 H 0.82874 0.2412 0.75354 0.0
C1408 C 0.72323 0.24179 0.86764 0.0
C1409 C 0.69327 0.24587 0.87051 0.0
C1410 C 0.68392 0.25119 0.83442 0.0
C1411 C 0.70342 0.25266 0.79654 0.0
C1412 C 0.73275 0.24913 0.79461 0.0
C1413 C 0.7427 0.24336 0.82901 0.0
C1414 C 0.7759 0.24163 0.81789 0.0
C1415 C 0.7939 0.26671 0.8374 0.0
C1416 C 0.78187 0.21124 0.82979 0.0
C1417 C 0.78248 0.24632 0.77208 0.0
C1418 C 0.75741 0.25142 0.75954 0.0
C1419 C 0.75825 0.25813 0.71907 0.0
C1420 C 0.78512 0.25872 0.69044 0.0
C1421 C 0.81072 0.25203 0.70212 0.0
C1422 C 0.80935 0.246 0.74362 0.0
H1423 H 0.83004 0.72818 0.27233 0.0
H1424 H 0.81106 0.76516 0.39124 0.0
H1425 H 0.75986 0.76768 0.38378 0.0
H1426 H 0.78939 0.77398 0.22532 0.0
H1427 H 0.77725 0.74485 0.19377 0.0
H1428 H 0.81158 0.7455 0.21038 0.0
H1429 H 0.79093 0.69163 0.23945 0.0
H1430 H 0.75614 0.69233 0.2245 0.0
H1431 H 0.75631 0.68452 0.27646 0.0
H1432 H 0.71156 0.76639 0.36418 0.0
H1433 H 0.67085 0.76946 0.32963 0.0
H1434 H 0.72029 0.73532 0.22115 0.0
C1435 C 0.81497 0.73672 0.29677 0.0
C1436 C 0.8243 0.74629 0.33256 0.0
C1437 C 0.80428 0.75772 0.36369 0.0
C1438 C 0.77514 0.75901 0.35979 0.0
C1439 C 0.76648 0.74906 0.32441 0.0
C1440 C 0.78589 0.73867 0.29304 0.0
C1441 C 0.77128 0.7312 0.25726 0.0
C1442 C 0.78841 0.75 0.21948 0.0
C1443 C 0.76851 0.69794 0.24894 0.0
C1444 C 0.74082 0.73966 0.27316 0.0
C1445 C 0.7385 0.7492 0.31236 0.0
C1446 C 0.71312 0.759 0.33354 0.0
C1447 C 0.69004 0.76054 0.31363 0.0
C1448 C 0.69236 0.75251 0.2728 0.0
C1449 C 0.7177 0.74102 0.25259 0.0
H1450 H 0.53769 0.52204 0.62486 0.0
H1451 H 0.46873 0.57275 0.61448 0.0
H1452 H 0.4532 0.53874 0.5635 0.0
H1453 H 0.55764 0.50724 0.51881 0.0
H1454 H 0.56418 0.47014 0.52592 0.0
H1455 H 0.5695 0.49736 0.56344 0.0
H1456 H 0.53273 0.46278 0.61835 0.0
H1457 H 0.52729 0.43531 0.58113 0.0
H1458 H 0.49569 0.44877 0.61128 0.0
H1459 H 0.44533 0.50093 0.51336 0.0
H1460 H 0.44583 0.46144 0.46437 0.0
H1461 H 0.51996 0.43307 0.5037 0.0
C1462 C 0.51919 0.52576 0.612 0.0
C1463 C 0.50445 0.55023 0.62366 0.0
C1464 C 0.48051 0.55443 0.60591 0.0
C1465 C 0.47142 0.53511 0.57699 0.0
C1466 C 0.48649 0.5115 0.56581 0.0
C1467 C 0.5099 0.50662 0.58253 0.0
C1468 C 0.52271 0.47993 0.56355 0.0
C1469 C 0.55545 0.48922 0.54162 0.0
C1470 C 0.51941 0.45523 0.59549 0.0
C1471 C 0.50276 0.47067 0.53367 0.0
C1472 C 0.48205 0.48934 0.53591 0.0
C1473 C 0.46139 0.48613 0.51138 0.0
C1474 C 0.46191 0.46351 0.48351 0.0
C1475 C 0.48286 0.44396 0.47997 0.0
C1476 C 0.50352 0.44747 0.50577 0.0
H1477 H 0.03359 0.54743 0.957 0.0
H1478 H 0.98233 0.59509 0.04975 0.0
H1479 H 0.9747 0.55311 0.0976 0.0
H1480 H -0.00935 0.47629 0.98219 0.0
H1481 H 0.02134 0.4561 0.97466 0.0
H1482 H 0.02504 0.49055 0.94723 0.0
H1483 H 0.07176 0.51186 0.97476 0.0
H1484 H 0.06854 0.47724 1.00162 0.0
H1485 H 0.0696 0.51134 1.02848 0.0
H1486 H 0.96665 0.50405 0.13339 0.0
H1487 H 0.9677 0.45399 0.1595 0.0
H1488 H 0.02718 0.43793 0.04758 0.0
C1489 C 0.02164 0.54931 0.98773 0.0
C1490 C 0.00853 0.5747 0.9995 0.0
C1491 C -0.00747 0.57595 1.03988 0.0
C1492 C -0.01211 0.55209 0.06738 0.0
C1493 C -0.00027 0.5269 0.05459 0.0
C1494 C 0.01702 0.52551 1.0162 0.0
C1495 C 0.02714 0.49548 1.01094 0.0
C1496 C 0.01533 0.47862 0.97671 0.0
C1497 C 0.06129 0.49921 1.00352 0.0
C1498 C 0.01242 0.48038 0.05194 0.0
C1499 C -0.00366 0.49883 0.07636 0.0
C1500 C 0.97959 0.48952 0.11481 0.0
C1501 C 0.98006 0.46093 0.12931 0.0
C1502 C -0.00244 0.44209 0.10577 0.0
C1503 C 0.01368 0.45193 0.06637 0.0
H1504 H 0.09192 0.20623 0.4247 0.0
H1505 H 0.05688 0.11293 0.45099 0.0
H1506 H 0.06339 0.11918 0.52085 0.0
H1507 H 0.148 0.2105 0.48956 0.0
H1508 H 0.14371 0.24746 0.50534 0.0
H1509 H 0.13743 0.23558 0.45662 0.0
H1510 H 0.08669 0.25093 0.47485 0.0
H1511 H 0.08965 0.26026 0.52557 0.0
H1512 H 0.05896 0.23327 0.51659 0.0
H1513 H 0.07379 0.13455 0.58854 0.0
H1514 H 0.08661 0.1576 0.64937 0.0
H1515 H 0.11474 0.24254 0.58474 0.0
C1516 C 0.08561 0.18707 0.4451 0.0
C1517 C 0.07392 0.15881 0.4312 0.0
C1518 C 0.06625 0.13464 0.45966 0.0
C1519 C 0.06976 0.13803 0.4999 0.0
C1520 C 0.08135 0.16583 0.51238 0.0
C1521 C 0.08946 0.18997 0.48582 0.0
C1522 C 0.10161 0.21732 0.50764 0.0
C1523 C 0.13465 0.22837 0.48865 0.0
C1524 C 0.08311 0.24189 0.50619 0.0
C1525 C 0.0981 0.20497 0.55096 0.0
C1526 C 0.0868 0.17501 0.5523 0.0
C1527 C 0.08262 0.15799 0.58769 0.0
C1528 C 0.09022 0.17146 0.62242 0.0
C1529 C 0.10194 0.20214 0.62297 0.0
C1530 C 0.1057 0.21915 0.5862 0.0
H1531 H 0.10839 0.87131 0.66522 0.0
H1532 H 0.13774 0.79048 0.69328 0.0
H1533 H 0.13253 0.80457 0.76473 0.0
H1534 H 0.14088 0.92004 0.73905 0.0
H1535 H 0.10858 0.93794 0.75085 0.0
H1536 H 0.11997 0.92424 0.70099 0.0
H1537 H 0.06735 0.89249 0.70682 0.0
H1538 H 0.05583 0.90672 0.75598 0.0
H1539 H 0.05221 0.86729 0.74962 0.0
H1540 H 0.11754 0.82414 0.83412 0.0
H1541 H 0.08726 0.84284 0.89465 0.0
H1542 H 0.06897 0.91148 0.82101 0.0
C1543 C 0.11469 0.85708 0.68615 0.0
C1544 C 0.12387 0.83007 0.67373 0.0
C1545 C 0.13074 0.81136 0.70227 0.0
C1546 C 0.12819 0.81936 0.74276 0.0
C1547 C 0.11889 0.84618 0.75413 0.0
C1548 C 0.11203 0.86461 0.72658 0.0
C1549 C 0.09815 0.88979 0.74712 0.0
C1550 C 0.1181 0.91978 0.7337 0.0
C1551 C 0.06654 0.88899 0.73945 0.0
C1552 C 0.09734 0.88221 0.79072 0.0
C1553 C 0.11002 0.85737 0.79423 0.0
C1554 C 0.10822 0.844 0.83178 0.0
C1555 C 0.09129 0.85503 0.86619 0.0
C1556 C 0.07597 0.87871 0.86242 0.0
C1557 C 0.08093 0.89369 0.82474 0.0
H1558 H 0.40149 0.77174 0.97083 0.0
H1559 H 0.41855 0.85396 1.0326 0.0
H1560 H 0.44394 0.87942 0.96774 0.0
H1561 H 0.46985 0.78321 0.89298 0.0
H1562 H 0.45306 0.76923 0.8519 0.0
H1563 H 0.43663 0.75557 0.90252 0.0
H1564 H 0.38615 0.76971 0.89838 0.0
H1565 H 0.40185 0.78214 0.84681 0.0
H1566 H 0.38489 0.80687 0.88255 0.0
H1567 H 0.47205 0.89603 0.89501 0.0
H1568 H 0.49214 0.90342 0.82114 0.0
H1569 H 0.45113 0.81379 0.80301 0.0
C1570 C 0.41036 0.79515 0.97072 0.0
C1571 C 0.40757 0.81061 1.00784 0.0
C1572 C 0.41976 0.84133 1.00537 0.0
C1573 C 0.43459 0.85611 0.96834 0.0
C1574 C 0.43693 0.84048 0.93262 0.0
C1575 C 0.42457 0.81076 0.93328 0.0
C1576 C 0.42889 0.79986 0.88982 0.0
C1577 C 0.44828 0.77553 0.884 0.0
C1578 C 0.39864 0.789 0.87873 0.0
C1579 C 0.44541 0.82785 0.86507 0.0
C1580 C 0.45059 0.85085 0.8905 0.0
C1581 C 0.46747 0.87822 0.87496 0.0
C1582 C 0.47894 0.88229 0.83273 0.0
C1583 C 0.47298 0.85956 0.8056 0.0
C1584 C 0.45582 0.83195 0.82249 0.0
H1585 H 0.45531 0.12309 0.21509 0.0
H1586 H 0.36492 0.08008 0.26781 0.0
H1587 H 0.35311 0.078 0.20017 0.0
H1588 H 0.43529 0.16973 0.14535 0.0
H1589 H 0.46773 0.16747 0.10629 0.0
H1590 H 0.46936 0.16357 0.15851 0.0
H1591 H 0.48649 0.11244 0.14433 0.0
H1592 H 0.48501 0.1169 0.09207 0.0
H1593 H 0.46426 0.08437 0.12098 0.0
H1594 H 0.35087 0.08136 0.12743 0.0
H1595 H 0.35688 0.09438 0.05515 0.0
H1596 H 0.44785 0.13738 0.05099 0.0
C1597 C 0.43292 0.11347 0.2126 0.0
C1598 C 0.41107 0.10162 0.24675 0.0
C1599 C 0.38218 0.08884 0.24197 0.0
C1600 C 0.37524 0.0876 0.20373 0.0
C1601 C 0.39739 0.09934 0.17074 0.0
C1602 C 0.42554 0.11232 0.17483 0.0
C1603 C 0.44487 0.12467 0.1349 0.0
C1604 C 0.45488 0.15836 0.13637 0.0
C1605 C 0.47175 0.10864 0.12233 0.0
C1606 C 0.42294 0.11712 0.10782 0.0
C1607 C 0.39587 0.10202 0.12892 0.0
C1608 C 0.37198 0.09304 0.11048 0.0
C1609 C 0.37564 0.10033 0.06949 0.0
C1610 C 0.40284 0.11669 0.04781 0.0
C1611 C 0.42688 0.12478 0.06707 0.0
H1612 H 0.90535 0.8282 0.48198 0.0
H1613 H 0.91255 0.73543 0.49205 0.0
H1614 H 0.92296 0.74317 0.55956 0.0
H1615 H 0.96495 0.85586 0.5337 0.0
H1616 H 0.94695 0.88453 0.55975 0.0
H1617 H 0.93895 0.87216 0.51206 0.0
H1618 H 0.88275 0.86042 0.54472 0.0
H1619 H 0.89054 0.87282 0.59252 0.0
H1620 H 0.87021 0.83616 0.58888 0.0
H1621 H 0.93366 0.76034 0.62669 0.0
H1622 H 0.94381 0.78546 0.68772 0.0
H1623 H 0.93069 0.8684 0.63886 0.0
C1624 C 0.90867 0.80939 0.49857 0.0
C1625 C 0.90733 0.78081 0.48087 0.0
C1626 C 0.91257 0.75731 0.50416 0.0
C1627 C 0.9188 0.76156 0.54294 0.0
C1628 C 0.91991 0.78966 0.55933 0.0
C1629 C 0.91497 0.81328 0.53803 0.0
C1630 C 0.91811 0.84128 0.56311 0.0
C1631 C 0.94376 0.86486 0.54082 0.0
C1632 C 0.88865 0.85339 0.57288 0.0
C1633 C 0.92545 0.82965 0.60165 0.0
C1634 C 0.92641 0.79973 0.5984 0.0
C1635 C 0.93303 0.78379 0.62931 0.0
C1636 C 0.939 0.79849 0.66414 0.0
C1637 C 0.93856 0.82929 0.66897 0.0
C1638 C 0.93124 0.84492 0.6369 0.0
H1639 H 0.90706 0.11688 0.42538 0.0
H1640 H 0.87241 0.19603 0.40415 0.0
H1641 H 0.87291 0.18178 0.33357 0.0
H1642 H 0.95873 0.12321 0.33945 0.0
H1643 H 0.95665 0.0841 0.331 0.0
H1644 H 0.94586 0.0967 0.38116 0.0
H1645 H 0.89411 0.06307 0.38833 0.0
H1646 H 0.90476 0.05101 0.33736 0.0
H1647 H 0.87148 0.06713 0.35231 0.0
H1648 H 0.88537 0.16373 0.26328 0.0
H1649 H 0.91856 0.15111 0.20096 0.0
H1650 H 0.94393 0.08273 0.26712 0.0
C1651 C 0.89845 0.13057 0.40628 0.0
C1652 C 0.88927 0.15725 0.42029 0.0
C1653 C 0.8794 0.17535 0.39399 0.0
C1654 C 0.8792 0.1672 0.35404 0.0
C1655 C 0.88883 0.14084 0.34088 0.0
C1656 C 0.89849 0.12293 0.36632 0.0
C1657 C 0.91319 0.09905 0.34346 0.0
C1658 C 0.94549 0.10093 0.34907 0.0
C1659 C 0.89477 0.06824 0.35613 0.0
C1660 C 0.91216 0.10746 0.30077 0.0
C1661 C 0.89687 0.1308 0.2999 0.0
C1662 C 0.8969 0.14511 0.2636 0.0
C1663 C 0.91552 0.13756 0.22808 0.0
C1664 C 0.93367 0.11596 0.22953 0.0
C1665 C 0.92985 0.09906 0.26542 0.0
H1666 H 0.57961 0.16231 0.09155 0.0
H1667 H 0.65514 0.22923 0.10144 0.0
H1668 H 0.64517 0.21818 0.17493 0.0
H1669 H 0.53268 0.18099 0.18798 0.0
H1670 H 0.51421 0.14334 0.2001 0.0
H1671 H 0.52808 0.15565 0.14808 0.0
H1672 H 0.55848 0.1128 0.1369 0.0
H1673 H 0.54508 0.10094 0.18912 0.0
H1674 H 0.5846 0.10945 0.16832 0.0
H1675 H 0.62887 0.19806 0.24749 0.0
H1676 H 0.60476 0.17572 0.31427 0.0
H1677 H 0.5348 0.12456 0.26353 0.0
C1678 C 0.59432 0.17436 0.10913 0.0
C1679 C 0.61898 0.19625 0.08972 0.0
C1680 C 0.63666 0.2121 0.11468 0.0
C1681 C 0.63105 0.20592 0.15677 0.0
C1682 C 0.60693 0.18422 0.17477 0.0
C1683 C 0.58836 0.16907 0.15193 0.0
C1684 C 0.56271 0.14833 0.17985 0.0
C1685 C 0.53263 0.15762 0.17895 0.0
C1686 C 0.56273 0.11595 0.16782 0.0
C1687 C 0.57033 0.15339 0.22165 0.0
C1688 C 0.59616 0.17411 0.21751 0.0
C1689 C 0.60856 0.18202 0.25085 0.0
C1690 C 0.59455 0.16884 0.28911 0.0
C1691 C 0.56761 0.14787 0.29544 0.0
C1692 C 0.55526 0.14033 0.26061 0.0
H1693 H 0.5719 0.88672 0.88626 0.0
H1694 H 0.66527 0.92093 0.83601 0.0
H1695 H 0.67531 0.92227 0.90462 0.0
H1696 H 0.56489 0.92534 0.9817 0.0
H1697 H 0.54146 0.89375 1.00996 0.0
H1698 H 0.54069 0.89965 0.95772 0.0
H1699 H 0.5529 0.84713 0.94179 0.0
H1700 H 0.55367 0.84104 0.99388 0.0
H1701 H 0.58554 0.83692 0.95483 0.0
H1702 H 0.67607 0.91572 0.97753 0.0
H1703 H 0.66809 0.89948 0.04888 0.0
H1704 H 0.57486 0.86689 0.0505 0.0
C1705 C 0.5945 0.89458 0.8895 0.0
C1706 C 0.6178 0.90374 0.85562 0.0
C1707 C 0.64693 0.91427 0.86149 0.0
C1708 C 0.65288 0.91502 0.90034 0.0
C1709 C 0.62948 0.90515 0.93289 0.0
C1710 C 0.6009 0.89503 0.92783 0.0
C1711 C 0.58026 0.88305 0.96711 0.0
C1712 C 0.55536 0.90157 0.97987 0.0
C1713 C 0.56736 0.85009 0.96421 0.0
C1714 C 0.60191 0.88734 0.99493 0.0
C1715 C 0.63005 0.90061 0.97479 0.0
C1716 C 0.65407 0.90567 0.99378 0.0
C1717 C 0.64929 0.8965 1.03429 0.0
C1718 C 0.62082 0.88215 0.0551 0.0
C1719 C 0.59681 0.8779 1.03525 0.0
H1720 H 0.57668 0.63469 0.95832 0.0
H1721 H 0.58658 0.72049 0.89859 0.0
H1722 H 0.5994 0.74495 0.95852 0.0
H1723 H 0.54319 0.65905 0.05963 0.0
H1724 H 0.56151 0.63649 0.0863 0.0
H1725 H 0.553 0.62492 1.03855 0.0
H1726 H 0.60848 0.6216 1.0107 0.0
H1727 H 0.61711 0.63337 0.05831 0.0
H1728 H 0.63661 0.65355 1.0123 0.0
H1729 H 0.61196 0.76163 1.0256 0.0
H1730 H 0.62112 0.76865 0.09415 0.0
H1731 H 0.60323 0.67341 0.11544 0.0
C1732 C 0.58142 0.65864 0.9577 0.0
C1733 C 0.58108 0.67518 0.92189 0.0
C1734 C 0.58744 0.70662 0.92387 0.0
C1735 C 0.59459 0.72101 0.95843 0.0
C1736 C 0.59533 0.70422 0.99234 0.0
C1737 C 0.58867 0.67367 0.99257 0.0
C1738 C 0.59081 0.66123 1.03379 0.0
C1739 C 0.56031 0.64441 0.05587 0.0
C1740 C 0.61467 0.64124 1.02845 0.0
C1741 C 0.60006 0.68941 0.05623 0.0
C1742 C 0.60239 0.71392 1.03147 0.0
C1743 C 0.61023 0.74246 1.04498 0.0
C1744 C 0.61544 0.74626 0.08448 0.0
C1745 C 0.61333 0.72183 0.11124 0.0
C1746 C 0.60553 0.69283 0.09627 0.0
H1747 H 0.57227 0.40677 0.32672 0.0
H1748 H 0.57508 0.32755 0.39332 0.0
H1749 H 0.60727 0.31041 0.33324 0.0
H1750 H 0.55695 0.37435 0.24891 0.0
H1751 H 0.57807 0.40063 0.20973 0.0
H1752 H 0.56662 0.41286 0.25996 0.0
H1753 H 0.62119 0.43413 0.26289 0.0
H1754 H 0.63302 0.42291 0.21174 0.0
H1755 H 0.64938 0.41095 0.25117 0.0
H1756 H 0.624 0.29493 0.26269 0.0
H1757 H 0.62878 0.28511 0.19006 0.0
H1758 H 0.61313 0.37375 0.16884 0.0
C1759 C 0.5815 0.38685 0.32927 0.0
C1760 C 0.57167 0.36862 0.36447 0.0
C1761 C 0.58307 0.34215 0.36685 0.0
C1762 C 0.60115 0.33214 0.33264 0.0
C1763 C 0.60793 0.34922 0.29682 0.0
C1764 C 0.59914 0.37655 0.29528 0.0
C1765 C 0.60392 0.38803 0.2522 0.0
C1766 C 0.57466 0.39428 0.24217 0.0
C1767 C 0.62834 0.41564 0.24402 0.0
C1768 C 0.61435 0.36191 0.2296 0.0
C1769 C 0.6173 0.34003 0.25569 0.0
C1770 C 0.62273 0.31229 0.24194 0.0
C1771 C 0.62501 0.30677 0.20072 0.0
C1772 C 0.6215 0.32877 0.17377 0.0
C1773 C 0.61678 0.35682 0.18847 0.0
H1774 H 0.98002 0.37586 0.32557 0.0
H1775 H 0.90916 0.32766 0.27378 0.0
H1776 H 0.88516 0.30374 0.33981 0.0
H1777 H 0.98281 0.31939 0.39823 0.0
H1778 H -0.01265 0.34417 0.43882 0.0
H1779 H 0.00033 0.35747 0.38714 0.0
H1780 H 0.96871 0.39886 0.40042 0.0
H1781 H 0.95572 0.3861 0.45233 0.0
H1782 H 0.92928 0.38952 0.42147 0.0
H1783 H 0.86986 0.28119 0.41146 0.0
H1784 H 0.8605 0.26848 0.4845 0.0
H1785 H 0.93575 0.33527 0.49583 0.0
C1786 C 0.95928 0.36055 0.32819 0.0
C1787 C 0.94674 0.35405 0.29338 0.0
C1788 C 0.91947 0.33366 0.2991 0.0
C1789 C 0.90558 0.31958 0.33686 0.0
C1790 C 0.91834 0.32634 0.37021 0.0
C1791 C 0.94419 0.34694 0.36665 0.0
C1792 C 0.95193 0.35122 0.4084 0.0
C1793 C 0.98241 0.34253 0.40814 0.0
C1794 C 0.95138 0.38334 0.42142 0.0
C1795 C 0.92666 0.32973 0.43555 0.0
C1796 C 0.90794 0.31516 0.41247 0.0
C1797 C 0.88409 0.293 0.42983 0.0
C1798 C 0.87887 0.28583 0.4716 0.0
C1799 C 0.89669 0.30118 0.49676 0.0
C1800 C 0.92107 0.3235 0.47801 0.0
H1801 H 0.88642 0.62486 0.73576 0.0
H1802 H 0.9668 0.58582 0.71425 0.0
H1803 H 0.96758 0.58532 0.6411 0.0
H1804 H 0.85276 0.58465 0.65885 0.0
H1805 H 0.83773 0.61599 0.64516 0.0
H1806 H 0.8426 0.61155 0.69597 0.0
H1807 H 0.87478 0.66396 0.69055 0.0
H1808 H 0.86998 0.66854 0.6398 0.0
H1809 H 0.90695 0.6728 0.6497 0.0
H1810 H 0.96178 0.59296 0.57015 0.0
H1811 H 0.9495 0.60749 0.50659 0.0
H1812 H 0.87132 0.63901 0.5751 0.0
C1813 C 0.90403 0.61603 0.71561 0.0
C1814 C 0.92644 0.60522 0.73043 0.0
C1815 C 0.94918 0.59379 0.70336 0.0
C1816 C 0.94985 0.5935 0.66186 0.0
C1817 C 0.92745 0.60444 0.64815 0.0
C1818 C 0.90487 0.61533 0.67423 0.0
C1819 C 0.88405 0.62671 0.6517 0.0
C1820 C 0.85241 0.60864 0.66363 0.0
C1821 C 0.88396 0.65997 0.65833 0.0
C1822 C 0.89877 0.62105 0.6088 0.0
C1823 C 0.92372 0.60816 0.60735 0.0
C1824 C 0.94196 0.60255 0.57089 0.0
C1825 C 0.93466 0.61068 0.53493 0.0
C1826 C 0.90928 0.62416 0.53578 0.0
C1827 C 0.89092 0.62886 0.57333 0.0
H1828 H 0.43559 0.36312 0.1329 0.0
H1829 H 0.43148 0.279 0.19376 0.0
H1830 H 0.41769 0.25274 0.13519 0.0
H1831 H 0.3732 0.33892 0.08243 0.0
H1832 H 0.39064 0.35978 1.0362 0.0
H1833 H 0.39927 0.37261 0.0834 0.0
H1834 H 0.45475 0.37408 0.05311 0.0
H1835 H 0.44706 0.36009 1.00596 0.0
H1836 H 0.46792 0.34107 1.03345 0.0
H1837 H 0.40279 0.23441 0.07022 0.0
H1838 H 0.39348 0.22566 1.00217 0.0
H1839 H 0.40851 0.32046 0.97781 0.0
C1840 C 0.43168 0.33916 0.1341 0.0
C1841 C 0.43497 0.32348 0.16901 0.0
C1842 C 0.42975 0.29202 0.16809 0.0
C1843 C 0.42156 0.2767 0.13472 0.0
C1844 C 0.41855 0.29268 0.10123 0.0
C1845 C 0.42376 0.32327 0.10033 0.0
C1846 C 0.41995 0.33479 0.05948 0.0
C1847 C 0.39424 0.35259 0.06576 0.0
C1848 C 0.44915 0.3536 1.03662 0.0
C1849 C 0.41213 0.30597 1.03755 0.0
C1850 C 0.41093 0.28204 0.06286 0.0
C1851 C 0.40381 0.25311 0.05032 0.0
C1852 C 0.39864 0.24832 1.01103 0.0
C1853 C 0.40023 0.27207 0.98341 0.0
C1854 C 0.40684 0.30151 0.99757 0.0
H1855 H 0.4107 0.62632 0.923 0.0
H1856 H 0.39409 0.71541 0.9085 0.0
H1857 H 0.39344 0.7066 0.83665 0.0
H1858 H 0.46172 0.6271 0.83767 0.0
H1859 H 0.45153 0.58874 0.82638 0.0
H1860 H 0.44321 0.60021 0.87745 0.0
H1861 H 0.38739 0.57786 0.88227 0.0
H1862 H 0.39572 0.56705 0.83039 0.0
H1863 H 0.36777 0.58999 0.84664 0.0
H1864 H 0.40481 0.69172 0.76486 0.0
H1865 H 0.43482 0.6758 0.70182 0.0
H1866 H 0.44048 0.59511 0.76277 0.0
C1867 C 0.40578 0.64356 0.90506 0.0
C1868 C 0.40242 0.67147 0.92115 0.0
C1869 C 0.39707 0.69393 0.89648 0.0
C1870 C 0.39608 0.68891 0.85588 0.0
C1871 C 0.40002 0.66116 0.8406 0.0
C1872 C 0.4048 0.63888 0.86463 0.0
C1873 C 0.41383 0.61309 0.84003 0.0
C1874 C 0.44436 0.60699 0.84569 0.0
C1875 C 0.38973 0.58536 0.85046 0.0
C1876 C 0.41546 0.62509 0.79804 0.0
C1877 C 0.40631 0.65237 0.79884 0.0
C1878 C 0.411 0.66994 0.7637 0.0
C1879 C 0.42787 0.66068 0.72783 0.0
C1880 C 0.43948 0.63415 0.72782 0.0
C1881 C 0.43109 0.61517 0.76226 0.0
H1882 H 0.13078 0.71236 0.61706 0.0
H1883 H 0.08475 0.63867 0.56121 0.0
H1884 H 0.06015 0.61651 0.62837 0.0
H1885 H 0.14434 0.66558 0.69768 0.0
H1886 H 0.13988 0.69312 0.73567 0.0
H1887 H 0.15325 0.70439 0.68324 0.0
H1888 H 0.11067 0.73472 0.68762 0.0
H1889 H 0.09773 0.72389 0.74012 0.0
H1890 H 0.07261 0.71691 0.70603 0.0
H1891 H 0.03628 0.60389 0.70295 0.0
H1892 H 0.02159 0.59825 0.7775 0.0
H1893 H 0.08798 0.67461 0.78795 0.0
C1894 C 0.11572 0.69144 0.61895 0.0
C1895 C 0.10999 0.67743 0.58292 0.0
C1896 C 0.09002 0.64998 0.58757 0.0
C1897 C 0.07564 0.63717 0.62595 0.0
C1898 C 0.08169 0.65135 0.66058 0.0
C1899 C 0.10183 0.67754 0.65756 0.0
C1900 C 0.10541 0.68707 0.69998 0.0
C1901 C 0.13764 0.68757 0.70439 0.0
C1902 C 0.09601 0.71744 0.70897 0.0
C1903 C 0.08389 0.66248 0.72705 0.0
C1904 C 0.06999 0.64246 0.70354 0.0
C1905 C 0.04765 0.61909 0.72145 0.0
C1906 C 0.03942 0.61594 0.76407 0.0
C1907 C 0.05399 0.63529 0.78923 0.0
C1908 C 0.07676 0.65884 0.76996 0.0
H1909 H 0.08978 0.40161 0.37994 0.0
H1910 H 0.04736 0.31511 0.34989 0.0
H1911 H 0.03887 0.29824 0.42111 0.0
H1912 H 0.12839 0.37594 0.44645 0.0
H1913 H 0.12432 0.40588 0.48083 0.0
H1914 H 0.12418 0.41161 0.42849 0.0
H1915 H 0.07295 0.42892 0.44933 0.0
H1916 H 0.07273 0.42273 0.50186 0.0
H1917 H 0.04209 0.4049 0.48078 0.0
H1918 H 0.03787 0.28996 0.49379 0.0
H1919 H 0.05 0.28897 0.56111 0.0
H1920 H 0.0926 0.38089 0.5439 0.0
C1921 C 0.07828 0.37927 0.38853 0.0
C1922 C 0.06913 0.35967 0.35966 0.0
C1923 C 0.05487 0.33034 0.37162 0.0
C1924 C 0.04955 0.32072 0.41202 0.0
C1925 C 0.05852 0.34078 0.43987 0.0
C1926 C 0.07285 0.36933 0.42859 0.0
C1927 C 0.08285 0.3856 0.46351 0.0
C1928 C 0.11695 0.3953 0.45427 0.0
C1929 C 0.06668 0.41211 0.47452 0.0
C1930 C 0.07271 0.36143 0.49598 0.0
C1931 C 0.05813 0.33595 0.48194 0.0
C1932 C 0.04885 0.30987 0.50532 0.0
C1933 C 0.05579 0.30949 0.54341 0.0
C1934 C 0.07199 0.33491 0.55737 0.0
C1935 C 0.07958 0.36145 0.53407 0.0
loop_
_geom_bond_atom_site_label_1
_geom_bond_atom_site_label_2
_geom_bond_distance
_geom_bond_site_symmetry_2
_ccdc_geom_bond_type
Gd0 C3 2.818 . S
Gd0 O20 2.377 . S
Gd0 O22 2.448 . S
Gd0 O23 2.506 . S
Gd0 O24 2.435 . S
Gd0 O25 2.717 . S
Gd0 O27 2.395 . S
Gd0 O31 2.327 . S
Gd1 C12 2.818 . S
Gd1 O21 2.395 . S
Gd1 O25 2.327 1_655 S
Gd1 O26 2.377 1_655 S
Gd1 O28 2.448 . S
Gd1 O29 2.506 . S
Gd1 O30 2.435 1_655 S
Gd1 O31 2.717 1_655 S
C2 O20 1.240 1_655 S
C2 O21 1.240 . S
C3 Gd0 2.818 . S
C3 C4 1.510 . S
C3 O22 1.249 . S
C3 O23 1.252 . S
C4 C3 1.510 . S
C4 C5 1.404 . S
C4 C6 1.352 . S
C5 C4 1.404 . S
C5 C9 1.389 . S
C5 H32 0.930 . S
C6 C4 1.352 . S
C6 C8 1.374 . S
C6 H33 0.931 . S
C7 C8 1.359 . S
C7 C9 1.364 . S
C8 C6 1.374 . S
C8 C7 1.359 . S
C8 H34 0.931 . S
C9 C5 1.389 . S
C9 C7 1.364 . S
C9 H35 0.931 . S
C10 O24 1.256 . S
C10 O25 1.257 . S
C11 O26 1.240 . S
C11 O27 1.240 . S
C12 Gd1 2.818 . S
C12 C13 1.510 1_554 S
C12 O28 1.249 . S
C12 O29 1.252 . S
C13 C12 1.510 1_556 S
C13 C14 1.404 . S
C13 C15 1.352 . S
C14 C13 1.404 . S
C14 C18 1.389 . S
C14 H36 0.930 . S
C15 C13 1.352 . S
C15 C17 1.374 . S
C15 H37 0.931 . S
C16 C17 1.359 . S
C16 C18 1.364 . S
C17 C15 1.374 . S
C17 C16 1.359 . S
C17 H38 0.931 . S
C18 C14 1.389 . S
C18 C16 1.364 . S
C18 H39 0.931 . S
C19 O30 1.256 . S
C19 O31 1.257 . S
O20 Gd0 2.377 . S
O20 C2 1.240 1_455 S
O21 Gd1 2.395 . S
O21 C2 1.240 . S
O22 Gd0 2.448 . S
O22 C3 1.249 . S
O23 Gd0 2.506 . S
O23 C3 1.252 . S
O24 Gd0 2.435 . S
O24 C10 1.256 . S
O25 Gd0 2.717 . S
O25 Gd1 2.327 1_455 S
O25 C10 1.257 . S
O26 Gd1 2.377 1_455 S
O26 C11 1.240 . S
O27 Gd0 2.395 . S
O27 C11 1.240 . S
O28 Gd1 2.448 . S
O28 C12 1.249 . S
O29 Gd1 2.506 . S
O29 C12 1.252 . S
O30 Gd1 2.435 1_455 S
O30 C19 1.256 . S
O31 Gd0 2.327 . S
O31 Gd1 2.717 1_455 S
O31 C19 1.257 . S
H32 C5 0.930 . S
H33 C6 0.931 . S
H34 C8 0.931 . S
H35 C9 0.931 . S
H36 C14 0.930 . S
H37 C15 0.931 . S
H38 C17 0.931 . S
H39 C18 0.931 . S
Gd40 C43 2.818 . S
Gd40 O60 2.377 . S
Gd40 O62 2.448 . S
Gd40 O63 2.506 . S
Gd40 O64 2.435 . S
Gd40 O65 2.717 . S
Gd40 O67 2.395 . S
Gd40 O71 2.327 . S
Gd41 C52 2.818 . S
Gd41 O61 2.395 . S
Gd41 O65 2.327 . S
Gd41 O66 2.377 . S
Gd41 O68 2.448 . S
Gd41 O69 2.506 . S
Gd41 O70 2.435 . S
Gd41 O71 2.717 . S
C42 O60 1.240 . S
C42 O61 1.240 . S
C43 Gd40 2.818 . S
C43 C44 1.510 . S
C43 O62 1.249 . S
C43 O63 1.252 . S
C44 C43 1.510 . S
C44 C45 1.404 . S
C44 C46 1.352 . S
C45 C44 1.404 . S
C45 C49 1.389 . S
C45 H72 0.930 . S
C46 C44 1.352 . S
C46 C48 1.374 . S
C46 H73 0.931 . S
C47 C48 1.359 . S
C47 C49 1.364 . S
C48 C46 1.374 . S
C48 C47 1.359 . S
C48 H74 0.931 . S
C49 C45 1.389 . S
C49 C47 1.364 . S
C49 H75 0.931 . S
C50 O64 1.256 . S
C50 O65 1.257 . S
C51 O66 1.240 . S
C51 O67 1.240 . S
C52 Gd41 2.818 . S
C52 C53 1.510 . S
C52 O68 1.249 . S
C52 O69 1.252 . S
C53 C52 1.510 . S
C53 C54 1.404 . S
C53 C55 1.352 . S
C54 C53 1.404 . S
C54 C58 1.389 . S
C54 H76 0.930 . S
C55 C53 1.352 . S
C55 C57 1.374 . S
C55 H77 0.931 . S
C56 C57 1.359 . S
C56 C58 1.364 . S
C57 C55 1.374 . S
C57 C56 1.359 . S
C57 H78 0.931 . S
C58 C54 1.389 . S
C58 C56 1.364 . S
C58 H79 0.931 . S
C59 O70 1.256 . S
C59 O71 1.257 . S
O60 Gd40 2.377 . S
O60 C42 1.240 . S
O61 Gd41 2.395 . S
O61 C42 1.240 . S
O62 Gd40 2.448 . S
O62 C43 1.249 . S
O63 Gd40 2.506 . S
O63 C43 1.252 . S
O64 Gd40 2.435 . S
O64 C50 1.256 . S
O65 Gd40 2.717 . S
O65 Gd41 2.327 . S
O65 C50 1.257 . S
O66 Gd41 2.377 . S
O66 C51 1.240 . S
O67 Gd40 2.395 . S
O67 C51 1.240 . S
O68 Gd41 2.448 . S
O68 C52 1.249 . S
O69 Gd41 2.506 . S
O69 C52 1.252 . S
O70 Gd41 2.435 . S
O70 C59 1.256 . S
O71 Gd40 2.327 . S
O71 Gd41 2.717 . S
O71 C59 1.257 . S
H72 C45 0.930 . S
H73 C46 0.931 . S
H74 C48 0.931 . S
H75 C49 0.931 . S
H76 C54 0.930 . S
H77 C55 0.931 . S
H78 C57 0.931 . S
H79 C58 0.931 . S
Gd80 C83 2.818 . S
Gd80 O100 2.377 . S
Gd80 O102 2.448 . S
Gd80 O103 2.506 . S
Gd80 O104 2.435 . S
Gd80 O105 2.717 . S
Gd80 O107 2.395 . S
Gd80 O111 2.327 . S
Gd81 C92 2.818 . S
Gd81 O101 2.395 . S
Gd81 O105 2.327 . S
Gd81 O106 2.377 . S
Gd81 O108 2.448 . S
Gd81 O109 2.506 . S
Gd81 O110 2.435 . S
Gd81 O111 2.717 . S
C82 O100 1.240 . S
C82 O101 1.240 . S
C83 Gd80 2.818 . S
C83 C84 1.510 . S
C83 O102 1.249 . S
C83 O103 1.252 . S
C84 C83 1.510 . S
C84 C85 1.404 . S
C84 C86 1.352 . S
C85 C84 1.404 . S
C85 C89 1.389 . S
C85 H112 0.930 . S
C86 C84 1.352 . S
C86 C88 1.374 . S
C86 H113 0.931 . S
C87 C88 1.359 . S
C87 C89 1.364 . S
C88 C86 1.374 . S
C88 C87 1.359 . S
C88 H114 0.931 . S
C89 C85 1.389 . S
C89 C87 1.364 . S
C89 H115 0.931 . S
C90 O104 1.256 . S
C90 O105 1.257 . S
C91 O106 1.240 . S
C91 O107 1.240 . S
C92 Gd81 2.818 . S
C92 C93 1.510 . S
C92 O108 1.249 . S
C92 O109 1.252 . S
C93 C92 1.510 . S
C93 C94 1.404 . S
C93 C95 1.352 . S
C94 C93 1.404 . S
C94 C98 1.389 . S
C94 H116 0.930 . S
C95 C93 1.352 . S
C95 C97 1.374 . S
C95 H117 0.931 . S
C96 C97 1.359 . S
C96 C98 1.364 . S
C97 C95 1.374 . S
C97 C96 1.359 . S
C97 H118 0.931 . S
C98 C94 1.389 . S
C98 C96 1.364 . S
C98 H119 0.931 . S
C99 O110 1.256 . S
C99 O111 1.257 . S
O100 Gd80 2.377 . S
O100 C82 1.240 . S
O101 Gd81 2.395 . S
O101 C82 1.240 . S
O102 Gd80 2.448 . S
O102 C83 1.249 . S
O103 Gd80 2.506 . S
O103 C83 1.252 . S
O104 Gd80 2.435 . S
O104 C90 1.256 . S
O105 Gd80 2.717 . S
O105 Gd81 2.327 . S
O105 C90 1.257 . S
O106 Gd81 2.377 . S
O106 C91 1.240 . S
O107 Gd80 2.395 . S
O107 C91 1.240 . S
O108 Gd81 2.448 . S
O108 C92 1.249 . S
O109 Gd81 2.506 . S
O109 C92 1.252 . S
O110 Gd81 2.435 . S
O110 C99 1.256 . S
O111 Gd80 2.327 . S
O111 Gd81 2.717 . S
O111 C99 1.257 . S
H112 C85 0.930 . S
H113 C86 0.931 . S
H114 C88 0.931 . S
H115 C89 0.931 . S
H116 C94 0.930 . S
H117 C95 0.931 . S
H118 C97 0.931 . S
H119 C98 0.931 . S
Gd120 C123 2.818 . S
Gd120 O140 2.377 . S
Gd120 O142 2.448 . S
Gd120 O143 2.506 . S
Gd120 O144 2.435 . S
Gd120 O145 2.717 . S
Gd120 O147 2.395 . S
Gd120 O151 2.327 . S
Gd121 C132 2.818 . S
Gd121 O141 2.395 . S
Gd121 O145 2.327 . S
Gd121 O146 2.377 . S
Gd121 O148 2.448 . S
Gd121 O149 2.506 . S
Gd121 O150 2.435 . S
Gd121 O151 2.717 . S
C122 O140 1.240 . S
C122 O141 1.240 . S
C123 Gd120 2.818 . S
C123 C124 1.510 . S
C123 O142 1.249 . S
C123 O143 1.252 . S
C124 C123 1.510 . S
C124 C125 1.404 . S
C124 C126 1.352 . S
C125 C124 1.404 . S
C125 C129 1.389 1_556 S
C125 H152 0.930 . S
C126 C124 1.352 . S
C126 C128 1.374 1_556 S
C126 H153 0.931 . S
C127 C128 1.359 . S
C127 C129 1.364 . S
C128 C126 1.374 1_554 S
C128 C127 1.359 . S
C128 H154 0.931 . S
C129 C125 1.389 1_554 S
C129 C127 1.364 . S
C129 H155 0.931 . S
C130 O144 1.256 . S
C130 O145 1.257 . S
C131 O146 1.240 . S
C131 O147 1.240 . S
C132 Gd121 2.818 . S
C132 C133 1.510 . S
C132 O148 1.249 . S
C132 O149 1.252 . S
C133 C132 1.510 . S
C133 C134 1.404 . S
C133 C135 1.352 . S
C134 C133 1.404 . S
C134 C138 1.389 . S
C134 H156 0.930 . S
C135 C133 1.352 . S
C135 C137 1.374 . S
C135 H157 0.931 . S
C136 C137 1.359 . S
C136 C138 1.364 . S
C137 C135 1.374 . S
C137 C136 1.359 . S
C137 H158 0.931 . S
C138 C134 1.389 . S
C138 C136 1.364 . S
C138 H159 0.931 . S
C139 O150 1.256 . S
C139 O151 1.257 . S
O140 Gd120 2.377 . S
O140 C122 1.240 . S
O141 Gd121 2.395 . S
O141 C122 1.240 . S
O142 Gd120 2.448 . S
O142 C123 1.249 . S
O143 Gd120 2.506 . S
O143 C123 1.252 . S
O144 Gd120 2.435 . S
O144 C130 1.256 . S
O145 Gd120 2.717 . S
O145 Gd121 2.327 . S
O145 C130 1.257 . S
O146 Gd121 2.377 . S
O146 C131 1.240 . S
O147 Gd120 2.395 . S
O147 C131 1.240 . S
O148 Gd121 2.448 . S
O148 C132 1.249 . S
O149 Gd121 2.506 . S
O149 C132 1.252 . S
O150 Gd121 2.435 . S
O150 C139 1.256 . S
O151 Gd120 2.327 . S
O151 Gd121 2.717 . S
O151 C139 1.257 . S
H152 C125 0.930 . S
H153 C126 0.931 . S
H154 C128 0.931 . S
H155 C129 0.931 . S
H156 C134 0.930 . S
H157 C135 0.931 . S
H158 C137 0.931 . S
H159 C138 0.931 . S
Gd160 C163 2.818 . S
Gd160 O180 2.377 . S
Gd160 O182 2.448 . S
Gd160 O183 2.506 . S
Gd160 O184 2.435 . S
Gd160 O185 2.717 . S
Gd160 O187 2.395 . S
Gd160 O191 2.327 . S
Gd161 C172 2.818 . S
Gd161 O181 2.395 . S
Gd161 O185 2.327 1_655 S
Gd161 O186 2.377 1_655 S
Gd161 O188 2.448 . S
Gd161 O189 2.506 . S
Gd161 O190 2.435 . S
Gd161 O191 2.717 1_655 S
C162 O180 1.240 1_655 S
C162 O181 1.240 . S
C163 Gd160 2.818 . S
C163 C164 1.510 1_556 S
C163 O182 1.249 . S
C163 O183 1.252 . S
C164 C163 1.510 1_554 S
C164 C165 1.404 . S
C164 C166 1.352 . S
C165 C164 1.404 . S
C165 C169 1.389 . S
C165 H192 0.930 . S
C166 C164 1.352 . S
C166 C168 1.374 . S
C166 H193 0.931 . S
C167 C168 1.359 . S
C167 C169 1.364 . S
C168 C166 1.374 . S
C168 C167 1.359 . S
C168 H194 0.931 . S
C169 C165 1.389 . S
C169 C167 1.364 . S
C169 H195 0.931 . S
C170 O184 1.256 . S
C170 O185 1.257 . S
C171 O186 1.240 . S
C171 O187 1.240 . S
C172 Gd161 2.818 . S
C172 C173 1.510 . S
C172 O188 1.249 . S
C172 O189 1.252 . S
C173 C172 1.510 . S
C173 C174 1.404 . S
C173 C175 1.352 . S
C174 C173 1.404 . S
C174 C178 1.389 . S
C174 H196 0.930 . S
C175 C173 1.352 . S
C175 C177 1.374 . S
C175 H197 0.931 . S
C176 C177 1.359 . S
C176 C178 1.364 . S
C177 C175 1.374 . S
C177 C176 1.359 . S
C177 H198 0.931 . S
C178 C174 1.389 . S
C178 C176 1.364 . S
C178 H199 0.931 . S
C179 O190 1.256 1_455 S
C179 O191 1.257 . S
O180 Gd160 2.377 . S
O180 C162 1.240 1_455 S
O181 Gd161 2.395 . S
O181 C162 1.240 . S
O182 Gd160 2.448 . S
O182 C163 1.249 . S
O183 Gd160 2.506 . S
O183 C163 1.252 . S
O184 Gd160 2.435 . S
O184 C170 1.256 . S
O185 Gd160 2.717 . S
O185 Gd161 2.327 1_455 S
O185 C170 1.257 . S
O186 Gd161 2.377 1_455 S
O186 C171 1.240 . S
O187 Gd160 2.395 . S
O187 C171 1.240 . S
O188 Gd161 2.448 . S
O188 C172 1.249 . S
O189 Gd161 2.506 . S
O189 C172 1.252 . S
O190 Gd161 2.435 . S
O190 C179 1.256 1_655 S
O191 Gd160 2.327 . S
O191 Gd161 2.717 1_455 S
O191 C179 1.257 . S
H192 C165 0.930 . S
H193 C166 0.931 . S
H194 C168 0.931 . S
H195 C169 0.931 . S
H196 C174 0.930 . S
H197 C175 0.931 . S
H198 C177 0.931 . S
H199 C178 0.931 . S
Gd200 C203 2.818 . S
Gd200 O220 2.377 . S
Gd200 O222 2.448 . S
Gd200 O223 2.506 . S
Gd200 O224 2.435 . S
Gd200 O225 2.717 . S
Gd200 O227 2.395 . S
Gd200 O231 2.327 . S
Gd201 C212 2.818 . S
Gd201 O221 2.395 . S
Gd201 O225 2.327 . S
Gd201 O226 2.377 . S
Gd201 O228 2.448 . S
Gd201 O229 2.506 . S
Gd201 O230 2.435 . S
Gd201 O231 2.717 . S
C202 O220 1.240 . S
C202 O221 1.240 . S
C203 Gd200 2.818 . S
C203 C204 1.510 . S
C203 O222 1.249 . S
C203 O223 1.252 . S
C204 C203 1.510 . S
C204 C205 1.404 . S
C204 C206 1.352 . S
C205 C204 1.404 . S
C205 C209 1.389 . S
C205 H232 0.930 . S
C206 C204 1.352 . S
C206 C208 1.374 . S
C206 H233 0.931 . S
C207 C208 1.359 . S
C207 C209 1.364 . S
C208 C206 1.374 . S
C208 C207 1.359 . S
C208 H234 0.931 . S
C209 C205 1.389 . S
C209 C207 1.364 . S
C209 H235 0.931 . S
C210 O224 1.256 . S
C210 O225 1.257 . S
C211 O226 1.240 . S
C211 O227 1.240 . S
C212 Gd201 2.818 . S
C212 C213 1.510 1_554 S
C212 O228 1.249 . S
C212 O229 1.252 . S
C213 C212 1.510 1_556 S
C213 C214 1.404 . S
C213 C215 1.352 . S
C214 C213 1.404 . S
C214 C218 1.389 . S
C214 H236 0.930 . S
C215 C213 1.352 . S
C215 C217 1.374 . S
C215 H237 0.931 . S
C216 C217 1.359 . S
C216 C218 1.364 . S
C217 C215 1.374 . S
C217 C216 1.359 . S
C217 H238 0.931 . S
C218 C214 1.389 . S
C218 C216 1.364 . S
C218 H239 0.931 . S
C219 O230 1.256 . S
C219 O231 1.257 . S
O220 Gd200 2.377 . S
O220 C202 1.240 . S
O221 Gd201 2.395 . S
O221 C202 1.240 . S
O222 Gd200 2.448 . S
O222 C203 1.249 . S
O223 Gd200 2.506 . S
O223 C203 1.252 . S
O224 Gd200 2.435 . S
O224 C210 1.256 . S
O225 Gd200 2.717 . S
O225 Gd201 2.327 . S
O225 C210 1.257 . S
O226 Gd201 2.377 . S
O226 C211 1.240 . S
O227 Gd200 2.395 . S
O227 C211 1.240 . S
O228 Gd201 2.448 . S
O228 C212 1.249 . S
O229 Gd201 2.506 . S
O229 C212 1.252 . S
O230 Gd201 2.435 . S
O230 C219 1.256 . S
O231 Gd200 2.327 . S
O231 Gd201 2.717 . S
O231 C219 1.257 . S
H232 C205 0.930 . S
H233 C206 0.931 . S
H234 C208 0.931 . S
H235 C209 0.931 . S
H236 C214 0.930 . S
H237 C215 0.931 . S
H238 C217 0.931 . S
H239 C218 0.931 . S
Gd240 C243 2.818 . S
Gd240 O260 2.377 . S
Gd240 O262 2.448 . S
Gd240 O263 2.506 . S
Gd240 O264 2.435 . S
Gd240 O265 2.717 . S
Gd240 O267 2.395 . S
Gd240 O271 2.327 . S
Gd241 C252 2.818 . S
Gd241 O261 2.395 . S
Gd241 O265 2.327 . S
Gd241 O266 2.377 . S
Gd241 O268 2.448 . S
Gd241 O269 2.506 . S
Gd241 O270 2.435 . S
Gd241 O271 2.717 . S
C242 O260 1.240 . S
C242 O261 1.240 . S
C243 Gd240 2.818 . S
C243 C244 1.510 . S
C243 O262 1.249 . S
C243 O263 1.252 . S
C244 C243 1.510 . S
C244 C245 1.404 . S
C244 C246 1.352 . S
C245 C244 1.404 . S
C245 C249 1.389 . S
C245 H272 0.930 . S
C246 C244 1.352 . S
C246 C248 1.374 . S
C246 H273 0.931 . S
C247 C248 1.359 . S
C247 C249 1.364 . S
C248 C246 1.374 . S
C248 C247 1.359 . S
C248 H274 0.931 . S
C249 C245 1.389 . S
C249 C247 1.364 . S
C249 H275 0.931 . S
C250 O264 1.256 . S
C250 O265 1.257 . S
C251 O266 1.240 . S
C251 O267 1.240 . S
C252 Gd241 2.818 . S
C252 C253 1.510 . S
C252 O268 1.249 . S
C252 O269 1.252 . S
C253 C252 1.510 . S
C253 C254 1.404 . S
C253 C255 1.352 . S
C254 C253 1.404 . S
C254 C258 1.389 . S
C254 H276 0.930 . S
C255 C253 1.352 . S
C255 C257 1.374 . S
C255 H277 0.931 . S
C256 C257 1.359 . S
C256 C258 1.364 . S
C257 C255 1.374 . S
C257 C256 1.359 . S
C257 H278 0.931 . S
C258 C254 1.389 . S
C258 C256 1.364 . S
C258 H279 0.931 . S
C259 O270 1.256 . S
C259 O271 1.257 . S
O260 Gd240 2.377 . S
O260 C242 1.240 . S
O261 Gd241 2.395 . S
O261 C242 1.240 . S
O262 Gd240 2.448 . S
O262 C243 1.249 . S
O263 Gd240 2.506 . S
O263 C243 1.252 . S
O264 Gd240 2.435 . S
O264 C250 1.256 . S
O265 Gd240 2.717 . S
O265 Gd241 2.327 . S
O265 C250 1.257 . S
O266 Gd241 2.377 . S
O266 C251 1.240 . S
O267 Gd240 2.395 . S
O267 C251 1.240 . S
O268 Gd241 2.448 . S
O268 C252 1.249 . S
O269 Gd241 2.506 . S
O269 C252 1.252 . S
O270 Gd241 2.435 . S
O270 C259 1.256 . S
O271 Gd240 2.327 . S
O271 Gd241 2.717 . S
O271 C259 1.257 . S
H272 C245 0.930 . S
H273 C246 0.931 . S
H274 C248 0.931 . S
H275 C249 0.931 . S
H276 C254 0.930 . S
H277 C255 0.931 . S
H278 C257 0.931 . S
H279 C258 0.931 . S
Gd280 C283 2.818 . S
Gd280 O300 2.377 . S
Gd280 O302 2.448 . S
Gd280 O303 2.506 . S
Gd280 O304 2.435 . S
Gd280 O305 2.717 . S
Gd280 O307 2.395 . S
Gd280 O311 2.327 . S
Gd281 C292 2.818 . S
Gd281 O301 2.395 . S
Gd281 O305 2.327 . S
Gd281 O306 2.377 . S
Gd281 O308 2.448 . S
Gd281 O309 2.506 . S
Gd281 O310 2.435 . S
Gd281 O311 2.717 . S
C282 O300 1.240 . S
C282 O301 1.240 . S
C283 Gd280 2.818 . S
C283 C284 1.510 . S
C283 O302 1.249 . S
C283 O303 1.252 . S
C284 C283 1.510 . S
C284 C285 1.404 . S
C284 C286 1.352 . S
C285 C284 1.404 . S
C285 C289 1.389 . S
C285 H312 0.930 . S
C286 C284 1.352 . S
C286 C288 1.374 . S
C286 H313 0.931 . S
C287 C288 1.359 . S
C287 C289 1.364 . S
C288 C286 1.374 . S
C288 C287 1.359 . S
C288 H314 0.931 . S
C289 C285 1.389 . S
C289 C287 1.364 . S
C289 H315 0.931 . S
C290 O304 1.256 . S
C290 O305 1.257 . S
C291 O306 1.240 . S
C291 O307 1.240 . S
C292 Gd281 2.818 . S
C292 C293 1.510 . S
C292 O308 1.249 . S
C292 O309 1.252 . S
C293 C292 1.510 . S
C293 C294 1.404 . S
C293 C295 1.352 . S
C294 C293 1.404 . S
C294 C298 1.389 . S
C294 H316 0.930 . S
C295 C293 1.352 . S
C295 C297 1.374 . S
C295 H317 0.931 . S
C296 C297 1.359 . S
C296 C298 1.364 . S
C297 C295 1.374 . S
C297 C296 1.359 . S
C297 H318 0.931 . S
C298 C294 1.389 . S
C298 C296 1.364 . S
C298 H319 0.931 . S
C299 O310 1.256 . S
C299 O311 1.257 . S
O300 Gd280 2.377 . S
O300 C282 1.240 . S
O301 Gd281 2.395 . S
O301 C282 1.240 . S
O302 Gd280 2.448 . S
O302 C283 1.249 . S
O303 Gd280 2.506 . S
O303 C283 1.252 . S
O304 Gd280 2.435 . S
O304 C290 1.256 . S
O305 Gd280 2.717 . S
O305 Gd281 2.327 . S
O305 C290 1.257 . S
O306 Gd281 2.377 . S
O306 C291 1.240 . S
O307 Gd280 2.395 . S
O307 C291 1.240 . S
O308 Gd281 2.448 . S
O308 C292 1.249 . S
O309 Gd281 2.506 . S
O309 C292 1.252 . S
O310 Gd281 2.435 . S
O310 C299 1.256 . S
O311 Gd280 2.327 . S
O311 Gd281 2.717 . S
O311 C299 1.257 . S
H312 C285 0.930 . S
H313 C286 0.931 . S
H314 C288 0.931 . S
H315 C289 0.931 . S
H316 C294 0.930 . S
H317 C295 0.931 . S
H318 C297 0.931 . S
H319 C298 0.931 . S
Gd320 C323 2.818 . S
Gd320 O340 2.377 . S
Gd320 O342 2.448 . S
Gd320 O343 2.506 . S
Gd320 O344 2.435 . S
Gd320 O345 2.717 . S
Gd320 O347 2.395 . S
Gd320 O351 2.327 . S
Gd321 C332 2.818 . S
Gd321 O341 2.395 . S
Gd321 O345 2.327 . S
Gd321 O346 2.377 . S
Gd321 O348 2.448 . S
Gd321 O349 2.506 . S
Gd321 O350 2.435 . S
Gd321 O351 2.717 . S
C322 O340 1.240 . S
C322 O341 1.240 . S
C323 Gd320 2.818 . S
C323 C324 1.510 . S
C323 O342 1.249 . S
C323 O343 1.252 . S
C324 C323 1.510 . S
C324 C325 1.404 . S
C324 C326 1.352 . S
C325 C324 1.404 . S
C325 C329 1.389 . S
C325 H352 0.930 . S
C326 C324 1.352 . S
C326 C328 1.374 . S
C326 H353 0.931 . S
C327 C328 1.359 . S
C327 C329 1.364 . S
C328 C326 1.374 . S
C328 C327 1.359 . S
C328 H354 0.931 . S
C329 C325 1.389 . S
C329 C327 1.364 . S
C329 H355 0.931 . S
C330 O344 1.256 . S
C330 O345 1.257 . S
C331 O346 1.240 . S
C331 O347 1.240 . S
C332 Gd321 2.818 . S
C332 C333 1.510 . S
C332 O348 1.249 . S
C332 O349 1.252 . S
C333 C332 1.510 . S
C333 C334 1.404 . S
C333 C335 1.352 . S
C334 C333 1.404 . S
C334 C338 1.389 . S
C334 H356 0.930 . S
C335 C333 1.352 . S
C335 C337 1.374 . S
C335 H357 0.931 . S
C336 C337 1.359 . S
C336 C338 1.364 . S
C337 C335 1.374 . S
C337 C336 1.359 . S
C337 H358 0.931 . S
C338 C334 1.389 . S
C338 C336 1.364 . S
C338 H359 0.931 . S
C339 O350 1.256 . S
C339 O351 1.257 . S
O340 Gd320 2.377 . S
O340 C322 1.240 . S
O341 Gd321 2.395 . S
O341 C322 1.240 . S
O342 Gd320 2.448 . S
O342 C323 1.249 . S
O343 Gd320 2.506 . S
O343 C323 1.252 . S
O344 Gd320 2.435 . S
O344 C330 1.256 . S
O345 Gd320 2.717 . S
O345 Gd321 2.327 . S
O345 C330 1.257 . S
O346 Gd321 2.377 . S
O346 C331 1.240 . S
O347 Gd320 2.395 . S
O347 C331 1.240 . S
O348 Gd321 2.448 . S
O348 C332 1.249 . S
O349 Gd321 2.506 . S
O349 C332 1.252 . S
O350 Gd321 2.435 . S
O350 C339 1.256 . S
O351 Gd320 2.327 . S
O351 Gd321 2.717 . S
O351 C339 1.257 . S
H352 C325 0.930 . S
H353 C326 0.931 . S
H354 C328 0.931 . S
H355 C329 0.931 . S
H356 C334 0.930 . S
H357 C335 0.931 . S
H358 C337 0.931 . S
H359 C338 0.931 . S
Gd360 C363 2.818 . S
Gd360 O380 2.377 . S
Gd360 O382 2.448 . S
Gd360 O383 2.506 . S
Gd360 O384 2.435 . S
Gd360 O385 2.717 . S
Gd360 O387 2.395 . S
Gd360 O391 2.327 . S
Gd361 C372 2.818 . S
Gd361 O381 2.395 . S
Gd361 O385 2.327 . S
Gd361 O386 2.377 . S
Gd361 O388 2.448 . S
Gd361 O389 2.506 . S
Gd361 O390 2.435 . S
Gd361 O391 2.717 . S
C362 O380 1.240 . S
C362 O381 1.240 . S
C363 Gd360 2.818 . S
C363 C364 1.510 . S
C363 O382 1.249 . S
C363 O383 1.252 . S
C364 C363 1.510 . S
C364 C365 1.404 . S
C364 C366 1.352 . S
C365 C364 1.404 . S
C365 C369 1.389 . S
C365 H392 0.930 . S
C366 C364 1.352 . S
C366 C368 1.374 . S
C366 H393 0.931 . S
C367 C368 1.359 . S
C367 C369 1.364 . S
C368 C366 1.374 . S
C368 C367 1.359 . S
C368 H394 0.931 . S
C369 C365 1.389 . S
C369 C367 1.364 . S
C369 H395 0.931 . S
C370 O384 1.256 . S
C370 O385 1.257 . S
C371 O386 1.240 . S
C371 O387 1.240 . S
C372 Gd361 2.818 . S
C372 C373 1.510 . S
C372 O388 1.249 . S
C372 O389 1.252 . S
C373 C372 1.510 . S
C373 C374 1.404 . S
C373 C375 1.352 . S
C374 C373 1.404 . S
C374 C378 1.389 1_554 S
C374 H396 0.930 . S
C375 C373 1.352 . S
C375 C377 1.374 1_554 S
C375 H397 0.931 . S
C376 C377 1.359 . S
C376 C378 1.364 . S
C377 C375 1.374 1_556 S
C377 C376 1.359 . S
C377 H398 0.931 . S
C378 C374 1.389 1_556 S
C378 C376 1.364 . S
C378 H399 0.931 . S
C379 O390 1.256 . S
C379 O391 1.257 . S
O380 Gd360 2.377 . S
O380 C362 1.240 . S
O381 Gd361 2.395 . S
O381 C362 1.240 . S
O382 Gd360 2.448 . S
O382 C363 1.249 . S
O383 Gd360 2.506 . S
O383 C363 1.252 . S
O384 Gd360 2.435 . S
O384 C370 1.256 . S
O385 Gd360 2.717 . S
O385 Gd361 2.327 . S
O385 C370 1.257 . S
O386 Gd361 2.377 . S
O386 C371 1.240 . S
O387 Gd360 2.395 . S
O387 C371 1.240 . S
O388 Gd361 2.448 . S
O388 C372 1.249 . S
O389 Gd361 2.506 . S
O389 C372 1.252 . S
O390 Gd361 2.435 . S
O390 C379 1.256 . S
O391 Gd360 2.327 . S
O391 Gd361 2.717 . S
O391 C379 1.257 . S
H392 C365 0.930 . S
H393 C366 0.931 . S
H394 C368 0.931 . S
H395 C369 0.931 . S
H396 C374 0.930 . S
H397 C375 0.931 . S
H398 C377 0.931 . S
H399 C378 0.931 . S
Gd400 C403 2.818 . S
Gd400 O420 2.377 . S
Gd400 O422 2.448 . S
Gd400 O423 2.506 . S
Gd400 O424 2.435 . S
Gd400 O425 2.717 . S
Gd400 O427 2.395 . S
Gd400 O431 2.327 . S
Gd401 C412 2.818 . S
Gd401 O421 2.395 . S
Gd401 O425 2.327 . S
Gd401 O426 2.377 . S
Gd401 O428 2.448 . S
Gd401 O429 2.506 . S
Gd401 O430 2.435 . S
Gd401 O431 2.717 . S
C402 O420 1.240 . S
C402 O421 1.240 . S
C403 Gd400 2.818 . S
C403 C404 1.510 1_556 S
C403 O422 1.249 . S
C403 O423 1.252 . S
C404 C403 1.510 1_554 S
C404 C405 1.404 . S
C404 C406 1.352 . S
C405 C404 1.404 . S
C405 C409 1.389 . S
C405 H432 0.930 . S
C406 C404 1.352 . S
C406 C408 1.374 . S
C406 H433 0.931 . S
C407 C408 1.359 . S
C407 C409 1.364 . S
C408 C406 1.374 . S
C408 C407 1.359 . S
C408 H434 0.931 . S
C409 C405 1.389 . S
C409 C407 1.364 . S
C409 H435 0.931 . S
C410 O424 1.256 . S
C410 O425 1.257 . S
C411 O426 1.240 . S
C411 O427 1.240 . S
C412 Gd401 2.818 . S
C412 C413 1.510 . S
C412 O428 1.249 . S
C412 O429 1.252 . S
C413 C412 1.510 . S
C413 C414 1.404 . S
C413 C415 1.352 . S
C414 C413 1.404 . S
C414 C418 1.389 . S
C414 H436 0.930 . S
C415 C413 1.352 . S
C415 C417 1.374 . S
C415 H437 0.931 . S
C416 C417 1.359 . S
C416 C418 1.364 . S
C417 C415 1.374 . S
C417 C416 1.359 . S
C417 H438 0.931 . S
C418 C414 1.389 . S
C418 C416 1.364 . S
C418 H439 0.931 . S
C419 O430 1.256 . S
C419 O431 1.257 . S
O420 Gd400 2.377 . S
O420 C402 1.240 . S
O421 Gd401 2.395 . S
O421 C402 1.240 . S
O422 Gd400 2.448 . S
O422 C403 1.249 . S
O423 Gd400 2.506 . S
O423 C403 1.252 . S
O424 Gd400 2.435 . S
O424 C410 1.256 . S
O425 Gd400 2.717 . S
O425 Gd401 2.327 . S
O425 C410 1.257 . S
O426 Gd401 2.377 . S
O426 C411 1.240 . S
O427 Gd400 2.395 . S
O427 C411 1.240 . S
O428 Gd401 2.448 . S
O428 C412 1.249 . S
O429 Gd401 2.506 . S
O429 C412 1.252 . S
O430 Gd401 2.435 . S
O430 C419 1.256 . S
O431 Gd400 2.327 . S
O431 Gd401 2.717 . S
O431 C419 1.257 . S
H432 C405 0.930 . S
H433 C406 0.931 . S
H434 C408 0.931 . S
H435 C409 0.931 . S
H436 C414 0.930 . S
H437 C415 0.931 . S
H438 C417 0.931 . S
H439 C418 0.931 . S
Gd440 C443 2.818 . S
Gd440 O460 2.377 . S
Gd440 O462 2.448 . S
Gd440 O463 2.506 . S
Gd440 O464 2.435 . S
Gd440 O465 2.717 . S
Gd440 O467 2.395 . S
Gd440 O471 2.327 . S
Gd441 C452 2.818 . S
Gd441 O461 2.395 . S
Gd441 O465 2.327 . S
Gd441 O466 2.377 . S
Gd441 O468 2.448 . S
Gd441 O469 2.506 . S
Gd441 O470 2.435 . S
Gd441 O471 2.717 . S
C442 O460 1.240 . S
C442 O461 1.240 . S
C443 Gd440 2.818 . S
C443 C444 1.510 . S
C443 O462 1.249 . S
C443 O463 1.252 . S
C444 C443 1.510 . S
C444 C445 1.404 . S
C444 C446 1.352 . S
C445 C444 1.404 . S
C445 C449 1.389 . S
C445 H472 0.930 . S
C446 C444 1.352 . S
C446 C448 1.374 . S
C446 H473 0.931 . S
C447 C448 1.359 . S
C447 C449 1.364 . S
C448 C446 1.374 . S
C448 C447 1.359 . S
C448 H474 0.931 . S
C449 C445 1.389 . S
C449 C447 1.364 . S
C449 H475 0.931 . S
C450 O464 1.256 . S
C450 O465 1.257 . S
C451 O466 1.240 . S
C451 O467 1.240 . S
C452 Gd441 2.818 . S
C452 C453 1.510 . S
C452 O468 1.249 . S
C452 O469 1.252 . S
C453 C452 1.510 . S
C453 C454 1.404 . S
C453 C455 1.352 . S
C454 C453 1.404 . S
C454 C458 1.389 . S
C454 H476 0.930 . S
C455 C453 1.352 . S
C455 C457 1.374 . S
C455 H477 0.931 . S
C456 C457 1.359 . S
C456 C458 1.364 . S
C457 C455 1.374 . S
C457 C456 1.359 . S
C457 H478 0.931 . S
C458 C454 1.389 . S
C458 C456 1.364 . S
C458 H479 0.931 . S
C459 O470 1.256 . S
C459 O471 1.257 . S
O460 Gd440 2.377 . S
O460 C442 1.240 . S
O461 Gd441 2.395 . S
O461 C442 1.240 . S
O462 Gd440 2.448 . S
O462 C443 1.249 . S
O463 Gd440 2.506 . S
O463 C443 1.252 . S
O464 Gd440 2.435 . S
O464 C450 1.256 . S
O465 Gd440 2.717 . S
O465 Gd441 2.327 . S
O465 C450 1.257 . S
O466 Gd441 2.377 . S
O466 C451 1.240 . S
O467 Gd440 2.395 . S
O467 C451 1.240 . S
O468 Gd441 2.448 . S
O468 C452 1.249 . S
O469 Gd441 2.506 . S
O469 C452 1.252 . S
O470 Gd441 2.435 . S
O470 C459 1.256 . S
O471 Gd440 2.327 . S
O471 Gd441 2.717 . S
O471 C459 1.257 . S
H472 C445 0.930 . S
H473 C446 0.931 . S
H474 C448 0.931 . S
H475 C449 0.931 . S
H476 C454 0.930 . S
H477 C455 0.931 . S
H478 C457 0.931 . S
H479 C458 0.931 . S
Gd480 C483 2.818 . S
Gd480 O500 2.377 . S
Gd480 O502 2.448 . S
Gd480 O503 2.506 . S
Gd480 O504 2.435 . S
Gd480 O505 2.717 . S
Gd480 O507 2.395 . S
Gd480 O511 2.327 . S
Gd481 C492 2.818 . S
Gd481 O501 2.395 . S
Gd481 O505 2.327 . S
Gd481 O506 2.377 . S
Gd481 O508 2.448 . S
Gd481 O509 2.506 . S
Gd481 O510 2.435 . S
Gd481 O511 2.717 . S
C482 O500 1.240 . S
C482 O501 1.240 . S
C483 Gd480 2.818 . S
C483 C484 1.510 . S
C483 O502 1.249 . S
C483 O503 1.252 . S
C484 C483 1.510 . S
C484 C485 1.404 . S
C484 C486 1.352 . S
C485 C484 1.404 . S
C485 C489 1.389 . S
C485 H512 0.930 . S
C486 C484 1.352 . S
C486 C488 1.374 . S
C486 H513 0.931 . S
C487 C488 1.359 . S
C487 C489 1.364 . S
C488 C486 1.374 . S
C488 C487 1.359 . S
C488 H514 0.931 . S
C489 C485 1.389 . S
C489 C487 1.364 . S
C489 H515 0.931 . S
C490 O504 1.256 . S
C490 O505 1.257 . S
C491 O506 1.240 . S
C491 O507 1.240 . S
C492 Gd481 2.818 . S
C492 C493 1.510 . S
C492 O508 1.249 . S
C492 O509 1.252 . S
C493 C492 1.510 . S
C493 C494 1.404 . S
C493 C495 1.352 . S
C494 C493 1.404 . S
C494 C498 1.389 . S
C494 H516 0.930 . S
C495 C493 1.352 . S
C495 C497 1.374 . S
C495 H517 0.931 . S
C496 C497 1.359 . S
C496 C498 1.364 . S
C497 C495 1.374 . S
C497 C496 1.359 . S
C497 H518 0.931 . S
C498 C494 1.389 . S
C498 C496 1.364 . S
C498 H519 0.931 . S
C499 O510 1.256 . S
C499 O511 1.257 . S
O500 Gd480 2.377 . S
O500 C482 1.240 . S
O501 Gd481 2.395 . S
O501 C482 1.240 . S
O502 Gd480 2.448 . S
O502 C483 1.249 . S
O503 Gd480 2.506 . S
O503 C483 1.252 . S
O504 Gd480 2.435 . S
O504 C490 1.256 . S
O505 Gd480 2.717 . S
O505 Gd481 2.327 . S
O505 C490 1.257 . S
O506 Gd481 2.377 . S
O506 C491 1.240 . S
O507 Gd480 2.395 . S
O507 C491 1.240 . S
O508 Gd481 2.448 . S
O508 C492 1.249 . S
O509 Gd481 2.506 . S
O509 C492 1.252 . S
O510 Gd481 2.435 . S
O510 C499 1.256 . S
O511 Gd480 2.327 . S
O511 Gd481 2.717 . S
O511 C499 1.257 . S
H512 C485 0.930 . S
H513 C486 0.931 . S
H514 C488 0.931 . S
H515 C489 0.931 . S
H516 C494 0.930 . S
H517 C495 0.931 . S
H518 C497 0.931 . S
H519 C498 0.931 . S
Gd520 C523 2.803 1_455 S
Gd520 O540 2.401 . S
Gd520 O542 2.433 1_455 S
Gd520 O543 2.493 1_455 S
Gd520 O544 2.449 . S
Gd520 O545 2.747 . S
Gd520 O547 2.397 1_455 S
Gd520 O551 2.345 . S
Gd521 C532 2.818 . S
Gd521 O541 2.395 . S
Gd521 O545 2.327 . S
Gd521 O546 2.377 . S
Gd521 O548 2.448 . S
Gd521 O549 2.506 . S
Gd521 O550 2.435 . S
Gd521 O551 2.717 . S
C522 O540 1.240 . S
C522 O541 1.240 . S
C523 Gd520 2.803 1_655 S
C523 C524 1.510 1_554 S
C523 O542 1.249 . S
C523 O543 1.252 . S
C524 C523 1.510 1_556 S
C524 C525 1.404 . S
C524 C526 1.352 . S
C525 C524 1.404 . S
C525 C529 1.389 . S
C525 H552 0.930 . S
C526 C524 1.352 . S
C526 C528 1.374 . S
C526 H553 0.931 . S
C527 C528 1.359 . S
C527 C529 1.364 . S
C528 C526 1.374 . S
C528 C527 1.359 . S
C528 H554 0.931 . S
C529 C525 1.389 . S
C529 C527 1.364 . S
C529 H555 0.931 . S
C530 O544 1.256 . S
C530 O545 1.257 . S
C531 O546 1.240 . S
C531 O547 1.240 1_455 S
C532 Gd521 2.818 . S
C532 C533 1.510 . S
C532 O548 1.249 . S
C532 O549 1.252 . S
C533 C532 1.510 . S
C533 C534 1.404 . S
C533 C535 1.352 . S
C534 C533 1.404 . S
C534 C538 1.389 . S
C534 H556 0.930 . S
C535 C533 1.352 . S
C535 C537 1.374 . S
C535 H557 0.931 . S
C536 C537 1.359 . S
C536 C538 1.364 . S
C537 C535 1.374 . S
C537 C536 1.359 . S
C537 H558 0.931 . S
C538 C534 1.389 . S
C538 C536 1.364 . S
C538 H559 0.931 . S
C539 O550 1.256 . S
C539 O551 1.257 . S
O540 Gd520 2.401 . S
O540 C522 1.240 . S
O541 Gd521 2.395 . S
O541 C522 1.240 . S
O542 Gd520 2.433 1_655 S
O542 C523 1.249 . S
O543 Gd520 2.493 1_655 S
O543 C523 1.252 . S
O544 Gd520 2.449 . S
O544 C530 1.256 . S
O545 Gd520 2.747 . S
O545 Gd521 2.327 . S
O545 C530 1.257 . S
O546 Gd521 2.377 . S
O546 C531 1.240 . S
O547 Gd520 2.397 1_655 S
O547 C531 1.240 1_655 S
O548 Gd521 2.448 . S
O548 C532 1.249 . S
O549 Gd521 2.506 . S
O549 C532 1.252 . S
O550 Gd521 2.435 . S
O550 C539 1.256 . S
O551 Gd520 2.345 . S
O551 Gd521 2.717 . S
O551 C539 1.257 . S
H552 C525 0.930 . S
H553 C526 0.931 . S
H554 C528 0.931 . S
H555 C529 0.931 . S
H556 C534 0.930 . S
H557 C535 0.931 . S
H558 C537 0.931 . S
H559 C538 0.931 . S
Gd560 C563 2.818 . S
Gd560 O580 2.377 . S
Gd560 O582 2.448 . S
Gd560 O583 2.506 . S
Gd560 O584 2.435 . S
Gd560 O585 2.717 . S
Gd560 O587 2.395 . S
Gd560 O591 2.327 . S
Gd561 C572 2.818 . S
Gd561 O581 2.395 . S
Gd561 O585 2.327 . S
Gd561 O586 2.377 . S
Gd561 O588 2.448 . S
Gd561 O589 2.506 . S
Gd561 O590 2.435 . S
Gd561 O591 2.717 . S
C562 O580 1.240 . S
C562 O581 1.240 . S
C563 Gd560 2.818 . S
C563 C564 1.510 . S
C563 O582 1.249 . S
C563 O583 1.252 . S
C564 C563 1.510 . S
C564 C565 1.404 . S
C564 C566 1.352 . S
C565 C564 1.404 . S
C565 C569 1.389 . S
C565 H592 0.930 . S
C566 C564 1.352 . S
C566 C568 1.374 . S
C566 H593 0.931 . S
C567 C568 1.359 . S
C567 C569 1.364 . S
C568 C566 1.374 . S
C568 C567 1.359 . S
C568 H594 0.931 . S
C569 C565 1.389 . S
C569 C567 1.364 . S
C569 H595 0.931 . S
C570 O584 1.256 . S
C570 O585 1.257 . S
C571 O586 1.240 . S
C571 O587 1.240 . S
C572 Gd561 2.818 . S
C572 C573 1.510 . S
C572 O588 1.249 . S
C572 O589 1.252 . S
C573 C572 1.510 . S
C573 C574 1.404 . S
C573 C575 1.352 . S
C574 C573 1.404 . S
C574 C578 1.389 . S
C574 H596 0.930 . S
C575 C573 1.352 . S
C575 C577 1.374 . S
C575 H597 0.931 . S
C576 C577 1.359 . S
C576 C578 1.364 . S
C577 C575 1.374 . S
C577 C576 1.359 . S
C577 H598 0.931 . S
C578 C574 1.389 . S
C578 C576 1.364 . S
C578 H599 0.931 . S
C579 O590 1.256 . S
C579 O591 1.257 . S
O580 Gd560 2.377 . S
O580 C562 1.240 . S
O581 Gd561 2.395 . S
O581 C562 1.240 . S
O582 Gd560 2.448 . S
O582 C563 1.249 . S
O583 Gd560 2.506 . S
O583 C563 1.252 . S
O584 Gd560 2.435 . S
O584 C570 1.256 . S
O585 Gd560 2.717 . S
O585 Gd561 2.327 . S
O585 C570 1.257 . S
O586 Gd561 2.377 . S
O586 C571 1.240 . S
O587 Gd560 2.395 . S
O587 C571 1.240 . S
O588 Gd561 2.448 . S
O588 C572 1.249 . S
O589 Gd561 2.506 . S
O589 C572 1.252 . S
O590 Gd561 2.435 . S
O590 C579 1.256 . S
O591 Gd560 2.327 . S
O591 Gd561 2.717 . S
O591 C579 1.257 . S
H592 C565 0.930 . S
H593 C566 0.931 . S
H594 C568 0.931 . S
H595 C569 0.931 . S
H596 C574 0.930 . S
H597 C575 0.931 . S
H598 C577 0.931 . S
H599 C578 0.931 . S
Gd600 C603 2.818 . S
Gd600 O620 2.377 1_655 S
Gd600 O622 2.448 . S
Gd600 O623 2.506 . S
Gd600 O624 2.435 . S
Gd600 O625 2.717 1_655 S
Gd600 O627 2.395 . S
Gd600 O631 2.327 . S
Gd601 C612 2.818 . S
Gd601 O621 2.395 . S
Gd601 O625 2.327 . S
Gd601 O626 2.377 1_455 S
Gd601 O628 2.448 . S
Gd601 O629 2.506 . S
Gd601 O630 2.435 . S
Gd601 O631 2.717 1_455 S
C602 O620 1.240 . S
C602 O621 1.240 . S
C603 Gd600 2.818 . S
C603 C604 1.510 . S
C603 O622 1.249 . S
C603 O623 1.252 . S
C604 C603 1.510 . S
C604 C605 1.404 . S
C604 C606 1.352 . S
C605 C604 1.404 . S
C605 C609 1.389 . S
C605 H632 0.930 . S
C606 C604 1.352 . S
C606 C608 1.374 . S
C606 H633 0.931 . S
C607 C608 1.359 . S
C607 C609 1.364 . S
C608 C606 1.374 . S
C608 C607 1.359 . S
C608 H634 0.931 . S
C609 C605 1.389 . S
C609 C607 1.364 . S
C609 H635 0.931 . S
C610 O624 1.256 . S
C610 O625 1.257 1_655 S
C611 O626 1.240 . S
C611 O627 1.240 . S
C612 Gd601 2.818 . S
C612 C613 1.510 1_556 S
C612 O628 1.249 . S
C612 O629 1.252 . S
C613 C612 1.510 1_554 S
C613 C614 1.404 . S
C613 C615 1.352 . S
C614 C613 1.404 . S
C614 C618 1.389 . S
C614 H636 0.930 . S
C615 C613 1.352 . S
C615 C617 1.374 . S
C615 H637 0.931 . S
C616 C617 1.359 . S
C616 C618 1.364 . S
C617 C615 1.374 . S
C617 C616 1.359 . S
C617 H638 0.931 . S
C618 C614 1.389 . S
C618 C616 1.364 . S
C618 H639 0.931 . S
C619 O630 1.256 . S
C619 O631 1.257 1_455 S
O620 Gd600 2.377 1_455 S
O620 C602 1.240 . S
O621 Gd601 2.395 . S
O621 C602 1.240 . S
O622 Gd600 2.448 . S
O622 C603 1.249 . S
O623 Gd600 2.506 . S
O623 C603 1.252 . S
O624 Gd600 2.435 . S
O624 C610 1.256 . S
O625 Gd600 2.717 1_455 S
O625 Gd601 2.327 . S
O625 C610 1.257 1_455 S
O626 Gd601 2.377 1_655 S
O626 C611 1.240 . S
O627 Gd600 2.395 . S
O627 C611 1.240 . S
O628 Gd601 2.448 . S
O628 C612 1.249 . S
O629 Gd601 2.506 . S
O629 C612 1.252 . S
O630 Gd601 2.435 . S
O630 C619 1.256 . S
O631 Gd600 2.327 . S
O631 Gd601 2.717 1_655 S
O631 C619 1.257 1_655 S
H632 C605 0.930 . S
H633 C606 0.931 . S
H634 C608 0.931 . S
H635 C609 0.931 . S
H636 C614 0.930 . S
H637 C615 0.931 . S
H638 C617 0.931 . S
H639 C618 0.931 . S
H640 C652 0.930 . S
H641 C654 0.930 . S
H642 C655 0.930 1_556 S
H643 C659 0.959 . S
H644 C659 0.959 . S
H645 C659 0.961 . S
H646 C660 0.960 . S
H647 C660 0.961 . S
H648 C660 0.959 . S
H649 C663 0.929 . S
H650 C664 0.931 . S
H651 C666 0.930 . S
C652 H640 0.930 . S
C652 C653 1.399 . S
C652 C657 1.399 1_554 S
C653 C652 1.399 . S
C653 C654 1.376 . S
C654 H641 0.930 . S
C654 C653 1.376 . S
C654 C655 1.388 . S
C655 H642 0.930 1_554 S
C655 C654 1.388 . S
C655 C656 1.390 1_554 S
C656 C655 1.390 1_556 S
C656 C657 1.394 . S
C656 C662 1.465 . S
C657 C652 1.399 1_556 S
C657 C656 1.394 . S
C657 C658 1.516 . S
C658 C657 1.516 . S
C658 C659 1.502 . S
C658 C660 1.561 . S
C658 C661 1.526 . S
C659 H643 0.959 . S
C659 H644 0.959 . S
C659 H645 0.961 . S
C659 C658 1.502 . S
C660 H646 0.960 . S
C660 H647 0.961 . S
C660 H648 0.959 . S
C660 C658 1.561 . S
C661 C658 1.526 . S
C661 C662 1.396 . S
C661 C666 1.390 . S
C662 C656 1.465 . S
C662 C661 1.396 . S
C662 C663 1.399 . S
C663 H649 0.929 . S
C663 C662 1.399 . S
C663 C664 1.385 . S
C664 H650 0.931 . S
C664 C663 1.385 . S
C664 C665 1.389 . S
C665 C664 1.389 . S
C665 C666 1.387 . S
C666 H651 0.930 . S
C666 C661 1.390 . S
C666 C665 1.387 . S
H667 C679 0.930 . S
H668 C681 0.930 . S
H669 C682 0.930 . S
H670 C686 0.959 . S
H671 C686 0.959 . S
H672 C686 0.961 . S
H673 C687 0.960 . S
H674 C687 0.961 . S
H675 C687 0.959 . S
H676 C690 0.929 . S
H677 C691 0.931 . S
H678 C693 0.930 . S
C679 H667 0.930 . S
C679 C680 1.399 . S
C679 C684 1.399 . S
C680 C679 1.399 . S
C680 C681 1.376 . S
C681 H668 0.930 . S
C681 C680 1.376 . S
C681 C682 1.388 . S
C682 H669 0.930 . S
C682 C681 1.388 . S
C682 C683 1.390 . S
C683 C682 1.390 . S
C683 C684 1.394 . S
C683 C689 1.465 . S
C684 C679 1.399 . S
C684 C683 1.394 . S
C684 C685 1.516 . S
C685 C684 1.516 . S
C685 C686 1.502 . S
C685 C687 1.561 . S
C685 C688 1.526 . S
C686 H670 0.959 . S
C686 H671 0.959 . S
C686 H672 0.961 . S
C686 C685 1.502 . S
C687 H673 0.960 . S
C687 H674 0.961 . S
C687 H675 0.959 . S
C687 C685 1.561 . S
C688 C685 1.526 . S
C688 C689 1.396 . S
C688 C693 1.390 . S
C689 C683 1.465 . S
C689 C688 1.396 . S
C689 C690 1.399 . S
C690 H676 0.929 . S
C690 C689 1.399 . S
C690 C691 1.385 . S
C691 H677 0.931 . S
C691 C690 1.385 . S
C691 C692 1.389 . S
C692 C691 1.389 . S
C692 C693 1.387 . S
C693 H678 0.930 . S
C693 C688 1.390 . S
C693 C692 1.387 . S
H694 C706 0.930 . S
H695 C708 0.930 . S
H696 C709 0.930 . S
H697 C713 0.959 . S
H698 C713 0.959 . S
H699 C713 0.961 . S
H700 C714 0.960 . S
H701 C714 0.961 . S
H702 C714 0.959 . S
H703 C717 0.929 . S
H704 C718 0.931 . S
H705 C720 0.930 . S
C706 H694 0.930 . S
C706 C707 1.399 . S
C706 C711 1.399 . S
C707 C706 1.399 . S
C707 C708 1.376 . S
C708 H695 0.930 . S
C708 C707 1.376 . S
C708 C709 1.388 . S
C709 H696 0.930 . S
C709 C708 1.388 . S
C709 C710 1.390 . S
C710 C709 1.390 . S
C710 C711 1.394 . S
C710 C716 1.465 . S
C711 C706 1.399 . S
C711 C710 1.394 . S
C711 C712 1.516 . S
C712 C711 1.516 . S
C712 C713 1.502 . S
C712 C714 1.561 . S
C712 C715 1.526 . S
C713 H697 0.959 . S
C713 H698 0.959 . S
C713 H699 0.961 . S
C713 C712 1.502 . S
C714 H700 0.960 . S
C714 H701 0.961 . S
C714 H702 0.959 . S
C714 C712 1.561 . S
C715 C712 1.526 . S
C715 C716 1.396 . S
C715 C720 1.390 . S
C716 C710 1.465 . S
C716 C715 1.396 . S
C716 C717 1.399 . S
C717 H703 0.929 . S
C717 C716 1.399 . S
C717 C718 1.385 . S
C718 H704 0.931 . S
C718 C717 1.385 . S
C718 C719 1.389 . S
C719 C718 1.389 . S
C719 C720 1.387 . S
C720 H705 0.930 . S
C720 C715 1.390 . S
C720 C719 1.387 . S
H721 C733 0.930 . S
H722 C735 0.930 . S
H723 C736 0.930 . S
H724 C740 0.959 . S
H725 C740 0.959 . S
H726 C740 0.961 . S
H727 C741 0.960 . S
H728 C741 0.961 . S
H729 C741 0.959 . S
H730 C744 0.929 . S
H731 C745 0.931 . S
H732 C747 0.930 . S
C733 H721 0.930 . S
C733 C734 1.399 . S
C733 C738 1.399 . S
C734 C733 1.399 . S
C734 C735 1.376 . S
C735 H722 0.930 . S
C735 C734 1.376 . S
C735 C736 1.388 . S
C736 H723 0.930 . S
C736 C735 1.388 . S
C736 C737 1.390 . S
C737 C736 1.390 . S
C737 C738 1.394 . S
C737 C743 1.465 . S
C738 C733 1.399 . S
C738 C737 1.394 . S
C738 C739 1.516 . S
C739 C738 1.516 . S
C739 C740 1.502 . S
C739 C741 1.561 . S
C739 C742 1.526 . S
C740 H724 0.959 . S
C740 H725 0.959 . S
C740 H726 0.961 . S
C740 C739 1.502 . S
C741 H727 0.960 . S
C741 H728 0.961 . S
C741 H729 0.959 . S
C741 C739 1.561 . S
C742 C739 1.526 . S
C742 C743 1.396 . S
C742 C747 1.390 . S
C743 C737 1.465 . S
C743 C742 1.396 . S
C743 C744 1.399 . S
C744 H730 0.929 . S
C744 C743 1.399 . S
C744 C745 1.385 . S
C745 H731 0.931 . S
C745 C744 1.385 . S
C745 C746 1.389 . S
C746 C745 1.389 . S
C746 C747 1.387 . S
C747 H732 0.930 . S
C747 C742 1.390 . S
C747 C746 1.387 . S
H748 C760 0.930 . S
H749 C762 0.930 . S
H750 C763 0.930 . S
H751 C767 0.959 . S
H752 C767 0.959 1_455 S
H753 C767 0.961 . S
H754 C768 0.960 . S
H755 C768 0.961 1_455 S
H756 C768 0.959 . S
H757 C771 0.929 . S
H758 C772 0.931 . S
H759 C774 0.930 1_455 S
C760 H748 0.930 . S
C760 C761 1.399 . S
C760 C765 1.399 . S
C761 C760 1.399 . S
C761 C762 1.376 . S
C762 H749 0.930 . S
C762 C761 1.376 . S
C762 C763 1.388 . S
C763 H750 0.930 . S
C763 C762 1.388 . S
C763 C764 1.390 . S
C764 C763 1.390 . S
C764 C765 1.394 . S
C764 C770 1.465 . S
C765 C760 1.399 . S
C765 C764 1.394 . S
C765 C766 1.516 . S
C766 C765 1.516 . S
C766 C767 1.502 . S
C766 C768 1.561 . S
C766 C769 1.526 . S
C767 H751 0.959 . S
C767 H752 0.959 1_655 S
C767 H753 0.961 . S
C767 C766 1.502 . S
C768 H754 0.960 . S
C768 H755 0.961 1_655 S
C768 H756 0.959 . S
C768 C766 1.561 . S
C769 C766 1.526 . S
C769 C770 1.396 . S
C769 C774 1.390 1_554 S
C770 C764 1.465 . S
C770 C769 1.396 . S
C770 C771 1.399 1_554 S
C771 H757 0.929 . S
C771 C770 1.399 1_556 S
C771 C772 1.385 . S
C772 H758 0.931 . S
C772 C771 1.385 . S
C772 C773 1.389 . S
C773 C772 1.389 . S
C773 C774 1.387 . S
C774 H759 0.930 1_655 S
C774 C769 1.390 1_556 S
C774 C773 1.387 . S
H775 C787 0.930 . S
H776 C789 0.930 . S
H777 C790 0.930 . S
H778 C794 0.959 . S
H779 C794 0.959 . S
H780 C794 0.961 . S
H781 C795 0.960 . S
H782 C795 0.961 . S
H783 C795 0.959 . S
H784 C798 0.929 . S
H785 C799 0.931 . S
H786 C801 0.930 . S
C787 H775 0.930 . S
C787 C788 1.399 . S
C787 C792 1.399 . S
C788 C787 1.399 . S
C788 C789 1.376 . S
C789 H776 0.930 . S
C789 C788 1.376 . S
C789 C790 1.388 . S
C790 H777 0.930 . S
C790 C789 1.388 . S
C790 C791 1.390 . S
C791 C790 1.390 . S
C791 C792 1.394 . S
C791 C797 1.465 . S
C792 C787 1.399 . S
C792 C791 1.394 . S
C792 C793 1.516 . S
C793 C792 1.516 . S
C793 C794 1.502 . S
C793 C795 1.561 . S
C793 C796 1.526 . S
C794 H778 0.959 . S
C794 H779 0.959 . S
C794 H780 0.961 . S
C794 C793 1.502 . S
C795 H781 0.960 . S
C795 H782 0.961 . S
C795 H783 0.959 . S
C795 C793 1.561 . S
C796 C793 1.526 . S
C796 C797 1.396 . S
C796 C801 1.390 . S
C797 C791 1.465 . S
C797 C796 1.396 . S
C797 C798 1.399 . S
C798 H784 0.929 . S
C798 C797 1.399 . S
C798 C799 1.385 . S
C799 H785 0.931 . S
C799 C798 1.385 . S
C799 C800 1.389 . S
C800 C799 1.389 . S
C800 C801 1.387 . S
C801 H786 0.930 . S
C801 C796 1.390 . S
C801 C800 1.387 . S
H802 C814 0.930 . S
H803 C816 0.930 . S
H804 C817 0.930 . S
H805 C821 0.959 . S
H806 C821 0.959 . S
H807 C821 0.961 . S
H808 C822 0.960 . S
H809 C822 0.961 . S
H810 C822 0.959 . S
H811 C825 0.929 . S
H812 C826 0.931 . S
H813 C828 0.930 . S
C814 H802 0.930 . S
C814 C815 1.399 . S
C814 C819 1.399 . S
C815 C814 1.399 . S
C815 C816 1.376 . S
C816 H803 0.930 . S
C816 C815 1.376 . S
C816 C817 1.388 . S
C817 H804 0.930 . S
C817 C816 1.388 . S
C817 C818 1.390 . S
C818 C817 1.390 . S
C818 C819 1.394 . S
C818 C824 1.465 . S
C819 C814 1.399 . S
C819 C818 1.394 . S
C819 C820 1.516 . S
C820 C819 1.516 . S
C820 C821 1.502 . S
C820 C822 1.561 . S
C820 C823 1.526 . S
C821 H805 0.959 . S
C821 H806 0.959 . S
C821 H807 0.961 . S
C821 C820 1.502 . S
C822 H808 0.960 . S
C822 H809 0.961 . S
C822 H810 0.959 . S
C822 C820 1.561 . S
C823 C820 1.526 . S
C823 C824 1.396 . S
C823 C828 1.390 . S
C824 C818 1.465 . S
C824 C823 1.396 . S
C824 C825 1.399 . S
C825 H811 0.929 . S
C825 C824 1.399 . S
C825 C826 1.385 . S
C826 H812 0.931 . S
C826 C825 1.385 . S
C826 C827 1.389 . S
C827 C826 1.389 . S
C827 C828 1.387 . S
C828 H813 0.930 . S
C828 C823 1.390 . S
C828 C827 1.387 . S
H829 C841 0.930 . S
H830 C843 0.930 . S
H831 C844 0.930 . S
H832 C848 0.959 . S
H833 C848 0.959 . S
H834 C848 0.961 . S
H835 C849 0.960 . S
H836 C849 0.961 . S
H837 C849 0.959 . S
H838 C852 0.929 . S
H839 C853 0.931 . S
H840 C855 0.930 . S
C841 H829 0.930 . S
C841 C842 1.399 . S
C841 C846 1.399 . S
C842 C841 1.399 . S
C842 C843 1.376 . S
C843 H830 0.930 . S
C843 C842 1.376 . S
C843 C844 1.388 . S
C844 H831 0.930 . S
C844 C843 1.388 . S
C844 C845 1.390 . S
C845 C844 1.390 . S
C845 C846 1.394 . S
C845 C851 1.465 . S
C846 C841 1.399 . S
C846 C845 1.394 . S
C846 C847 1.516 . S
C847 C846 1.516 . S
C847 C848 1.502 . S
C847 C849 1.561 . S
C847 C850 1.526 . S
C848 H832 0.959 . S
C848 H833 0.959 . S
C848 H834 0.961 . S
C848 C847 1.502 . S
C849 H835 0.960 . S
C849 H836 0.961 . S
C849 H837 0.959 . S
C849 C847 1.561 . S
C850 C847 1.526 . S
C850 C851 1.396 . S
C850 C855 1.390 . S
C851 C845 1.465 . S
C851 C850 1.396 . S
C851 C852 1.399 . S
C852 H838 0.929 . S
C852 C851 1.399 . S
C852 C853 1.385 . S
C853 H839 0.931 . S
C853 C852 1.385 . S
C853 C854 1.389 . S
C854 C853 1.389 . S
C854 C855 1.387 . S
C855 H840 0.930 . S
C855 C850 1.390 . S
C855 C854 1.387 . S
H856 C868 0.930 . S
H857 C870 0.930 . S
H858 C871 0.930 . S
H859 C875 0.959 . S
H860 C875 0.959 . S
H861 C875 0.961 . S
H862 C876 0.960 . S
H863 C876 0.961 . S
H864 C876 0.959 . S
H865 C879 0.929 . S
H866 C880 0.931 . S
H867 C882 0.930 . S
C868 H856 0.930 . S
C868 C869 1.399 . S
C868 C873 1.399 . S
C869 C868 1.399 . S
C869 C870 1.376 . S
C870 H857 0.930 . S
C870 C869 1.376 . S
C870 C871 1.388 . S
C871 H858 0.930 . S
C871 C870 1.388 . S
C871 C872 1.390 . S
C872 C871 1.390 . S
C872 C873 1.394 . S
C872 C878 1.465 . S
C873 C868 1.399 . S
C873 C872 1.394 . S
C873 C874 1.516 . S
C874 C873 1.516 . S
C874 C875 1.502 . S
C874 C876 1.561 . S
C874 C877 1.526 . S
C875 H859 0.959 . S
C875 H860 0.959 . S
C875 H861 0.961 . S
C875 C874 1.502 . S
C876 H862 0.960 . S
C876 H863 0.961 . S
C876 H864 0.959 . S
C876 C874 1.561 . S
C877 C874 1.526 . S
C877 C878 1.396 . S
C877 C882 1.390 . S
C878 C872 1.465 . S
C878 C877 1.396 . S
C878 C879 1.399 . S
C879 H865 0.929 . S
C879 C878 1.399 . S
C879 C880 1.385 . S
C880 H866 0.931 . S
C880 C879 1.385 . S
C880 C881 1.389 . S
C881 C880 1.389 . S
C881 C882 1.387 . S
C882 H867 0.930 . S
C882 C877 1.390 . S
C882 C881 1.387 . S
H883 C895 0.930 . S
H884 C897 0.930 . S
H885 C898 0.930 . S
H886 C902 0.959 . S
H887 C902 0.959 . S
H888 C902 0.961 . S
H889 C903 0.960 . S
H890 C903 0.961 . S
H891 C903 0.959 . S
H892 C906 0.929 . S
H893 C907 0.931 . S
H894 C909 0.930 . S
C895 H883 0.930 . S
C895 C896 1.399 . S
C895 C900 1.399 . S
C896 C895 1.399 . S
C896 C897 1.376 . S
C897 H884 0.930 . S
C897 C896 1.376 . S
C897 C898 1.388 . S
C898 H885 0.930 . S
C898 C897 1.388 . S
C898 C899 1.390 . S
C899 C898 1.390 . S
C899 C900 1.394 . S
C899 C905 1.465 . S
C900 C895 1.399 . S
C900 C899 1.394 . S
C900 C901 1.516 . S
C901 C900 1.516 . S
C901 C902 1.502 . S
C901 C903 1.561 . S
C901 C904 1.526 . S
C902 H886 0.959 . S
C902 H887 0.959 . S
C902 H888 0.961 . S
C902 C901 1.502 . S
C903 H889 0.960 . S
C903 H890 0.961 . S
C903 H891 0.959 . S
C903 C901 1.561 . S
C904 C901 1.526 . S
C904 C905 1.396 . S
C904 C909 1.390 . S
C905 C899 1.465 . S
C905 C904 1.396 . S
C905 C906 1.399 . S
C906 H892 0.929 . S
C906 C905 1.399 . S
C906 C907 1.385 . S
C907 H893 0.931 . S
C907 C906 1.385 . S
C907 C908 1.389 . S
C908 C907 1.389 . S
C908 C909 1.387 . S
C909 H894 0.930 . S
C909 C904 1.390 . S
C909 C908 1.387 . S
H910 C922 0.930 . S
H911 C924 0.930 . S
H912 C925 0.930 . S
H913 C929 0.959 . S
H914 C929 0.959 . S
H915 C929 0.961 . S
H916 C930 0.960 . S
H917 C930 0.961 . S
H918 C930 0.959 . S
H919 C933 0.929 . S
H920 C934 0.931 . S
H921 C936 0.930 . S
C922 H910 0.930 . S
C922 C923 1.399 . S
C922 C927 1.399 . S
C923 C922 1.399 . S
C923 C924 1.376 . S
C924 H911 0.930 . S
C924 C923 1.376 . S
C924 C925 1.388 . S
C925 H912 0.930 . S
C925 C924 1.388 . S
C925 C926 1.390 . S
C926 C925 1.390 . S
C926 C927 1.394 . S
C926 C932 1.465 . S
C927 C922 1.399 . S
C927 C926 1.394 . S
C927 C928 1.516 . S
C928 C927 1.516 . S
C928 C929 1.502 . S
C928 C930 1.561 . S
C928 C931 1.526 . S
C929 H913 0.959 . S
C929 H914 0.959 . S
C929 H915 0.961 . S
C929 C928 1.502 . S
C930 H916 0.960 . S
C930 H917 0.961 . S
C930 H918 0.959 . S
C930 C928 1.561 . S
C931 C928 1.526 . S
C931 C932 1.396 . S
C931 C936 1.390 . S
C932 C926 1.465 . S
C932 C931 1.396 . S
C932 C933 1.399 . S
C933 H919 0.929 . S
C933 C932 1.399 . S
C933 C934 1.385 . S
C934 H920 0.931 . S
C934 C933 1.385 . S
C934 C935 1.389 . S
C935 C934 1.389 . S
C935 C936 1.387 . S
C936 H921 0.930 . S
C936 C931 1.390 . S
C936 C935 1.387 . S
H937 C949 0.930 . S
H938 C951 0.930 . S
H939 C952 0.930 . S
H940 C956 0.959 . S
H941 C956 0.959 1_455 S
H942 C956 0.961 . S
H943 C957 0.960 . S
H944 C957 0.961 . S
H945 C957 0.959 . S
H946 C960 0.929 . S
H947 C961 0.931 . S
H948 C963 0.930 . S
C949 H937 0.930 . S
C949 C950 1.399 . S
C949 C954 1.399 . S
C950 C949 1.399 . S
C950 C951 1.376 . S
C951 H938 0.930 . S
C951 C950 1.376 . S
C951 C952 1.388 . S
C952 H939 0.930 . S
C952 C951 1.388 . S
C952 C953 1.390 . S
C953 C952 1.390 . S
C953 C954 1.394 . S
C953 C959 1.465 . S
C954 C949 1.399 . S
C954 C953 1.394 . S
C954 C955 1.516 . S
C955 C954 1.516 . S
C955 C956 1.502 . S
C955 C957 1.561 . S
C955 C958 1.526 . S
C956 H940 0.959 . S
C956 H941 0.959 1_655 S
C956 H942 0.961 . S
C956 C955 1.502 . S
C957 H943 0.960 . S
C957 H944 0.961 . S
C957 H945 0.959 . S
C957 C955 1.561 . S
C958 C955 1.526 . S
C958 C959 1.396 . S
C958 C963 1.390 . S
C959 C953 1.465 . S
C959 C958 1.396 . S
C959 C960 1.399 . S
C960 H946 0.929 . S
C960 C959 1.399 . S
C960 C961 1.385 . S
C961 H947 0.931 . S
C961 C960 1.385 . S
C961 C962 1.389 . S
C962 C961 1.389 . S
C962 C963 1.387 . S
C963 H948 0.930 . S
C963 C958 1.390 . S
C963 C962 1.387 . S
H964 C976 0.930 . S
H965 C978 0.930 . S
H966 C979 0.930 . S
H967 C983 0.959 . S
H968 C983 0.959 . S
H969 C983 0.961 . S
H970 C984 0.960 . S
H971 C984 0.961 . S
H972 C984 0.959 . S
H973 C987 0.929 . S
H974 C988 0.931 . S
H975 C990 0.930 . S
C976 H964 0.930 . S
C976 C977 1.399 . S
C976 C981 1.399 . S
C977 C976 1.399 . S
C977 C978 1.376 . S
C978 H965 0.930 . S
C978 C977 1.376 . S
C978 C979 1.388 . S
C979 H966 0.930 . S
C979 C978 1.388 . S
C979 C980 1.390 . S
C980 C979 1.390 . S
C980 C981 1.394 . S
C980 C986 1.465 . S
C981 C976 1.399 . S
C981 C980 1.394 . S
C981 C982 1.516 . S
C982 C981 1.516 . S
C982 C983 1.502 . S
C982 C984 1.561 . S
C982 C985 1.526 . S
C983 H967 0.959 . S
C983 H968 0.959 . S
C983 H969 0.961 . S
C983 C982 1.502 . S
C984 H970 0.960 . S
C984 H971 0.961 . S
C984 H972 0.959 . S
C984 C982 1.561 . S
C985 C982 1.526 . S
C985 C986 1.396 . S
C985 C990 1.390 . S
C986 C980 1.465 . S
C986 C985 1.396 . S
C986 C987 1.399 . S
C987 H973 0.929 . S
C987 C986 1.399 . S
C987 C988 1.385 . S
C988 H974 0.931 . S
C988 C987 1.385 . S
C988 C989 1.389 . S
C989 C988 1.389 . S
C989 C990 1.387 . S
C990 H975 0.930 . S
C990 C985 1.390 . S
C990 C989 1.387 . S
H991 C1003 0.930 . S
H992 C1005 0.930 . S
H993 C1006 0.930 . S
H994 C1010 0.959 . S
H995 C1010 0.959 . S
H996 C1010 0.961 . S
H997 C1011 0.960 . S
H998 C1011 0.961 . S
H999 C1011 0.959 . S
H1000 C1014 0.929 . S
H1001 C1015 0.931 . S
H1002 C1017 0.930 . S
C1003 H991 0.930 . S
C1003 C1004 1.399 . S
C1003 C1008 1.399 . S
C1004 C1003 1.399 . S
C1004 C1005 1.376 . S
C1005 H992 0.930 . S
C1005 C1004 1.376 . S
C1005 C1006 1.388 . S
C1006 H993 0.930 . S
C1006 C1005 1.388 . S
C1006 C1007 1.390 . S
C1007 C1006 1.390 . S
C1007 C1008 1.394 . S
C1007 C1013 1.465 . S
C1008 C1003 1.399 . S
C1008 C1007 1.394 . S
C1008 C1009 1.516 . S
C1009 C1008 1.516 . S
C1009 C1010 1.502 . S
C1009 C1011 1.561 . S
C1009 C1012 1.526 . S
C1010 H994 0.959 . S
C1010 H995 0.959 . S
C1010 H996 0.961 . S
C1010 C1009 1.502 . S
C1011 H997 0.960 . S
C1011 H998 0.961 . S
C1011 H999 0.959 . S
C1011 C1009 1.561 . S
C1012 C1009 1.526 . S
C1012 C1013 1.396 . S
C1012 C1017 1.390 . S
C1013 C1007 1.465 . S
C1013 C1012 1.396 . S
C1013 C1014 1.399 . S
C1014 H1000 0.929 . S
C1014 C1013 1.399 . S
C1014 C1015 1.385 . S
C1015 H1001 0.931 . S
C1015 C1014 1.385 . S
C1015 C1016 1.389 . S
C1016 C1015 1.389 . S
C1016 C1017 1.387 . S
C1017 H1002 0.930 . S
C1017 C1012 1.390 . S
C1017 C1016 1.387 . S
H1018 C1030 0.930 . S
H1019 C1032 0.930 . S
H1020 C1033 0.930 . S
H1021 C1037 0.959 . S
H1022 C1037 0.959 . S
H1023 C1037 0.961 . S
H1024 C1038 0.960 . S
H1025 C1038 0.961 . S
H1026 C1038 0.959 . S
H1027 C1041 0.929 . S
H1028 C1042 0.931 . S
H1029 C1044 0.930 . S
C1030 H1018 0.930 . S
C1030 C1031 1.399 . S
C1030 C1035 1.399 . S
C1031 C1030 1.399 . S
C1031 C1032 1.376 . S
C1032 H1019 0.930 . S
C1032 C1031 1.376 . S
C1032 C1033 1.388 . S
C1033 H1020 0.930 . S
C1033 C1032 1.388 . S
C1033 C1034 1.390 . S
C1034 C1033 1.390 . S
C1034 C1035 1.394 . S
C1034 C1040 1.465 . S
C1035 C1030 1.399 . S
C1035 C1034 1.394 . S
C1035 C1036 1.516 . S
C1036 C1035 1.516 . S
C1036 C1037 1.502 . S
C1036 C1038 1.561 . S
C1036 C1039 1.526 . S
C1037 H1021 0.959 . S
C1037 H1022 0.959 . S
C1037 H1023 0.961 . S
C1037 C1036 1.502 . S
C1038 H1024 0.960 . S
C1038 H1025 0.961 . S
C1038 H1026 0.959 . S
C1038 C1036 1.561 . S
C1039 C1036 1.526 . S
C1039 C1040 1.396 . S
C1039 C1044 1.390 . S
C1040 C1034 1.465 . S
C1040 C1039 1.396 . S
C1040 C1041 1.399 . S
C1041 H1027 0.929 . S
C1041 C1040 1.399 . S
C1041 C1042 1.385 . S
C1042 H1028 0.931 . S
C1042 C1041 1.385 . S
C1042 C1043 1.389 . S
C1043 C1042 1.389 . S
C1043 C1044 1.387 . S
C1044 H1029 0.930 . S
C1044 C1039 1.390 . S
C1044 C1043 1.387 . S
H1045 C1057 0.930 . S
H1046 C1059 0.930 . S
H1047 C1060 0.930 . S
H1048 C1064 0.959 . S
H1049 C1064 0.959 . S
H1050 C1064 0.961 . S
H1051 C1065 0.960 . S
H1052 C1065 0.961 . S
H1053 C1065 0.959 . S
H1054 C1068 0.929 . S
H1055 C1069 0.931 . S
H1056 C1071 0.930 . S
C1057 H1045 0.930 . S
C1057 C1058 1.399 . S
C1057 C1062 1.399 . S
C1058 C1057 1.399 . S
C1058 C1059 1.376 . S
C1059 H1046 0.930 . S
C1059 C1058 1.376 . S
C1059 C1060 1.388 . S
C1060 H1047 0.930 . S
C1060 C1059 1.388 . S
C1060 C1061 1.390 . S
C1061 C1060 1.390 . S
C1061 C1062 1.394 . S
C1061 C1067 1.465 . S
C1062 C1057 1.399 . S
C1062 C1061 1.394 . S
C1062 C1063 1.516 . S
C1063 C1062 1.516 . S
C1063 C1064 1.502 . S
C1063 C1065 1.561 . S
C1063 C1066 1.526 . S
C1064 H1048 0.959 . S
C1064 H1049 0.959 . S
C1064 H1050 0.961 . S
C1064 C1063 1.502 . S
C1065 H1051 0.960 . S
C1065 H1052 0.961 . S
C1065 H1053 0.959 . S
C1065 C1063 1.561 . S
C1066 C1063 1.526 . S
C1066 C1067 1.396 . S
C1066 C1071 1.390 . S
C1067 C1061 1.465 . S
C1067 C1066 1.396 . S
C1067 C1068 1.399 . S
C1068 H1054 0.929 . S
C1068 C1067 1.399 . S
C1068 C1069 1.385 . S
C1069 H1055 0.931 . S
C1069 C1068 1.385 . S
C1069 C1070 1.389 . S
C1070 C1069 1.389 . S
C1070 C1071 1.387 . S
C1071 H1056 0.930 . S
C1071 C1066 1.390 . S
C1071 C1070 1.387 . S
H1072 C1084 0.930 . S
H1073 C1086 0.930 . S
H1074 C1087 0.930 . S
H1075 C1091 0.959 . S
H1076 C1091 0.959 . S
H1077 C1091 0.961 . S
H1078 C1092 0.960 . S
H1079 C1092 0.961 . S
H1080 C1092 0.959 1_655 S
H1081 C1095 0.929 . S
H1082 C1096 0.931 . S
H1083 C1098 0.930 . S
C1084 H1072 0.930 . S
C1084 C1085 1.399 . S
C1084 C1089 1.399 . S
C1085 C1084 1.399 . S
C1085 C1086 1.376 . S
C1086 H1073 0.930 . S
C1086 C1085 1.376 . S
C1086 C1087 1.388 . S
C1087 H1074 0.930 . S
C1087 C1086 1.388 . S
C1087 C1088 1.390 . S
C1088 C1087 1.390 . S
C1088 C1089 1.394 . S
C1088 C1094 1.465 . S
C1089 C1084 1.399 . S
C1089 C1088 1.394 . S
C1089 C1090 1.516 . S
C1090 C1089 1.516 . S
C1090 C1091 1.502 . S
C1090 C1092 1.561 . S
C1090 C1093 1.526 . S
C1091 H1075 0.959 . S
C1091 H1076 0.959 . S
C1091 H1077 0.961 . S
C1091 C1090 1.502 . S
C1092 H1078 0.960 . S
C1092 H1079 0.961 . S
C1092 H1080 0.959 1_455 S
C1092 C1090 1.561 . S
C1093 C1090 1.526 . S
C1093 C1094 1.396 . S
C1093 C1098 1.390 . S
C1094 C1088 1.465 . S
C1094 C1093 1.396 . S
C1094 C1095 1.399 . S
C1095 H1081 0.929 . S
C1095 C1094 1.399 . S
C1095 C1096 1.385 . S
C1096 H1082 0.931 . S
C1096 C1095 1.385 . S
C1096 C1097 1.389 . S
C1097 C1096 1.389 . S
C1097 C1098 1.387 . S
C1098 H1083 0.930 . S
C1098 C1093 1.390 . S
C1098 C1097 1.387 . S
H1099 C1111 0.930 . S
H1100 C1113 0.930 . S
H1101 C1114 0.930 . S
H1102 C1118 0.959 . S
H1103 C1118 0.959 . S
H1104 C1118 0.961 . S
H1105 C1119 0.960 . S
H1106 C1119 0.961 1_455 S
H1107 C1119 0.959 1_455 S
H1108 C1122 0.929 . S
H1109 C1123 0.931 . S
H1110 C1125 0.930 . S
C1111 H1099 0.930 . S
C1111 C1112 1.399 . S
C1111 C1116 1.399 . S
C1112 C1111 1.399 . S
C1112 C1113 1.376 . S
C1113 H1100 0.930 . S
C1113 C1112 1.376 . S
C1113 C1114 1.388 1_655 S
C1114 H1101 0.930 . S
C1114 C1113 1.388 1_455 S
C1114 C1115 1.390 . S
C1115 C1114 1.390 . S
C1115 C1116 1.394 1_455 S
C1115 C1121 1.465 . S
C1116 C1111 1.399 . S
C1116 C1115 1.394 1_655 S
C1116 C1117 1.516 . S
C1117 C1116 1.516 . S
C1117 C1118 1.502 . S
C1117 C1119 1.561 . S
C1117 C1120 1.526 1_655 S
C1118 H1102 0.959 . S
C1118 H1103 0.959 . S
C1118 H1104 0.961 . S
C1118 C1117 1.502 . S
C1119 H1105 0.960 . S
C1119 H1106 0.961 1_655 S
C1119 H1107 0.959 1_655 S
C1119 C1117 1.561 . S
C1120 C1117 1.526 1_455 S
C1120 C1121 1.396 . S
C1120 C1125 1.390 . S
C1121 C1115 1.465 . S
C1121 C1120 1.396 . S
C1121 C1122 1.399 . S
C1122 H1108 0.929 . S
C1122 C1121 1.399 . S
C1122 C1123 1.385 . S
C1123 H1109 0.931 . S
C1123 C1122 1.385 . S
C1123 C1124 1.389 . S
C1124 C1123 1.389 . S
C1124 C1125 1.387 . S
C1125 H1110 0.930 . S
C1125 C1120 1.390 . S
C1125 C1124 1.387 . S
H1126 C1138 0.930 . S
H1127 C1140 0.930 . S
H1128 C1141 0.930 . S
H1129 C1145 0.959 . S
H1130 C1145 0.959 . S
H1131 C1145 0.961 . S
H1132 C1146 0.960 . S
H1133 C1146 0.961 . S
H1134 C1146 0.959 . S
H1135 C1149 0.929 . S
H1136 C1150 0.931 . S
H1137 C1152 0.930 . S
C1138 H1126 0.930 . S
C1138 C1139 1.399 . S
C1138 C1143 1.399 . S
C1139 C1138 1.399 . S
C1139 C1140 1.376 . S
C1140 H1127 0.930 . S
C1140 C1139 1.376 . S
C1140 C1141 1.388 . S
C1141 H1128 0.930 . S
C1141 C1140 1.388 . S
C1141 C1142 1.390 . S
C1142 C1141 1.390 . S
C1142 C1143 1.394 . S
C1142 C1148 1.465 . S
C1143 C1138 1.399 . S
C1143 C1142 1.394 . S
C1143 C1144 1.516 . S
C1144 C1143 1.516 . S
C1144 C1145 1.502 . S
C1144 C1146 1.561 . S
C1144 C1147 1.526 . S
C1145 H1129 0.959 . S
C1145 H1130 0.959 . S
C1145 H1131 0.961 . S
C1145 C1144 1.502 . S
C1146 H1132 0.960 . S
C1146 H1133 0.961 . S
C1146 H1134 0.959 . S
C1146 C1144 1.561 . S
C1147 C1144 1.526 . S
C1147 C1148 1.396 . S
C1147 C1152 1.390 . S
C1148 C1142 1.465 . S
C1148 C1147 1.396 . S
C1148 C1149 1.399 . S
C1149 H1135 0.929 . S
C1149 C1148 1.399 . S
C1149 C1150 1.385 . S
C1150 H1136 0.931 . S
C1150 C1149 1.385 . S
C1150 C1151 1.389 . S
C1151 C1150 1.389 . S
C1151 C1152 1.387 . S
C1152 H1137 0.930 . S
C1152 C1147 1.390 . S
C1152 C1151 1.387 . S
H1153 C1165 0.930 . S
H1154 C1167 0.930 . S
H1155 C1168 0.930 . S
H1156 C1172 0.959 . S
H1157 C1172 0.959 . S
H1158 C1172 0.961 . S
H1159 C1173 0.960 . S
H1160 C1173 0.961 . S
H1161 C1173 0.959 . S
H1162 C1176 0.929 . S
H1163 C1177 0.931 . S
H1164 C1179 0.930 . S
C1165 H1153 0.930 . S
C1165 C1166 1.399 . S
C1165 C1170 1.399 . S
C1166 C1165 1.399 . S
C1166 C1167 1.376 . S
C1167 H1154 0.930 . S
C1167 C1166 1.376 . S
C1167 C1168 1.388 . S
C1168 H1155 0.930 . S
C1168 C1167 1.388 . S
C1168 C1169 1.390 . S
C1169 C1168 1.390 . S
C1169 C1170 1.394 . S
C1169 C1175 1.465 . S
C1170 C1165 1.399 . S
C1170 C1169 1.394 . S
C1170 C1171 1.516 . S
C1171 C1170 1.516 . S
C1171 C1172 1.502 . S
C1171 C1173 1.561 . S
C1171 C1174 1.526 . S
C1172 H1156 0.959 . S
C1172 H1157 0.959 . S
C1172 H1158 0.961 . S
C1172 C1171 1.502 . S
C1173 H1159 0.960 . S
C1173 H1160 0.961 . S
C1173 H1161 0.959 . S
C1173 C1171 1.561 . S
C1174 C1171 1.526 . S
C1174 C1175 1.396 . S
C1174 C1179 1.390 . S
C1175 C1169 1.465 . S
C1175 C1174 1.396 . S
C1175 C1176 1.399 . S
C1176 H1162 0.929 . S
C1176 C1175 1.399 . S
C1176 C1177 1.385 . S
C1177 H1163 0.931 . S
C1177 C1176 1.385 . S
C1177 C1178 1.389 . S
C1178 C1177 1.389 . S
C1178 C1179 1.387 . S
C1179 H1164 0.930 . S
C1179 C1174 1.390 . S
C1179 C1178 1.387 . S
H1180 C1192 0.930 . S
H1181 C1194 0.930 . S
H1182 C1195 0.930 . S
H1183 C1199 0.959 . S
H1184 C1199 0.959 . S
H1185 C1199 0.961 . S
H1186 C1200 0.960 . S
H1187 C1200 0.961 . S
H1188 C1200 0.959 . S
H1189 C1203 0.929 . S
H1190 C1204 0.931 . S
H1191 C1206 0.930 . S
C1192 H1180 0.930 . S
C1192 C1193 1.399 . S
C1192 C1197 1.399 . S
C1193 C1192 1.399 . S
C1193 C1194 1.376 1_455 S
C1194 H1181 0.930 . S
C1194 C1193 1.376 1_655 S
C1194 C1195 1.388 . S
C1195 H1182 0.930 . S
C1195 C1194 1.388 . S
C1195 C1196 1.390 . S
C1196 C1195 1.390 . S
C1196 C1197 1.394 1_655 S
C1196 C1202 1.465 . S
C1197 C1192 1.399 . S
C1197 C1196 1.394 1_455 S
C1197 C1198 1.516 . S
C1198 C1197 1.516 . S
C1198 C1199 1.502 . S
C1198 C1200 1.561 1_455 S
C1198 C1201 1.526 . S
C1199 H1183 0.959 . S
C1199 H1184 0.959 . S
C1199 H1185 0.961 . S
C1199 C1198 1.502 . S
C1200 H1186 0.960 . S
C1200 H1187 0.961 . S
C1200 H1188 0.959 . S
C1200 C1198 1.561 1_655 S
C1201 C1198 1.526 . S
C1201 C1202 1.396 1_455 S
C1201 C1206 1.390 . S
C1202 C1196 1.465 . S
C1202 C1201 1.396 1_655 S
C1202 C1203 1.399 . S
C1203 H1189 0.929 . S
C1203 C1202 1.399 . S
C1203 C1204 1.385 . S
C1204 H1190 0.931 . S
C1204 C1203 1.385 . S
C1204 C1205 1.389 . S
C1205 C1204 1.389 . S
C1205 C1206 1.387 1_655 S
C1206 H1191 0.930 . S
C1206 C1201 1.390 . S
C1206 C1205 1.387 1_455 S
H1207 C1219 0.930 . S
H1208 C1221 0.930 . S
H1209 C1222 0.930 . S
H1210 C1226 0.959 . S
H1211 C1226 0.959 . S
H1212 C1226 0.961 . S
H1213 C1227 0.960 . S
H1214 C1227 0.961 . S
H1215 C1227 0.959 . S
H1216 C1230 0.929 . S
H1217 C1231 0.931 . S
H1218 C1233 0.930 . S
C1219 H1207 0.930 . S
C1219 C1220 1.399 . S
C1219 C1224 1.399 . S
C1220 C1219 1.399 . S
C1220 C1221 1.376 . S
C1221 H1208 0.930 . S
C1221 C1220 1.376 . S
C1221 C1222 1.388 . S
C1222 H1209 0.930 . S
C1222 C1221 1.388 . S
C1222 C1223 1.390 . S
C1223 C1222 1.390 . S
C1223 C1224 1.394 . S
C1223 C1229 1.465 . S
C1224 C1219 1.399 . S
C1224 C1223 1.394 . S
C1224 C1225 1.516 . S
C1225 C1224 1.516 . S
C1225 C1226 1.502 . S
C1225 C1227 1.561 . S
C1225 C1228 1.526 . S
C1226 H1210 0.959 . S
C1226 H1211 0.959 . S
C1226 H1212 0.961 . S
C1226 C1225 1.502 . S
C1227 H1213 0.960 . S
C1227 H1214 0.961 . S
C1227 H1215 0.959 . S
C1227 C1225 1.561 . S
C1228 C1225 1.526 . S
C1228 C1229 1.396 . S
C1228 C1233 1.390 . S
C1229 C1223 1.465 . S
C1229 C1228 1.396 . S
C1229 C1230 1.399 . S
C1230 H1216 0.929 . S
C1230 C1229 1.399 . S
C1230 C1231 1.385 . S
C1231 H1217 0.931 . S
C1231 C1230 1.385 . S
C1231 C1232 1.389 . S
C1232 C1231 1.389 . S
C1232 C1233 1.387 . S
C1233 H1218 0.930 . S
C1233 C1228 1.390 . S
C1233 C1232 1.387 . S
H1234 C1246 0.930 . S
H1235 C1248 0.930 . S
H1236 C1249 0.930 . S
H1237 C1253 0.959 . S
H1238 C1253 0.959 . S
H1239 C1253 0.961 . S
H1240 C1254 0.960 . S
H1241 C1254 0.961 . S
H1242 C1254 0.959 . S
H1243 C1257 0.929 . S
H1244 C1258 0.931 . S
H1245 C1260 0.930 . S
C1246 H1234 0.930 . S
C1246 C1247 1.399 . S
C1246 C1251 1.399 . S
C1247 C1246 1.399 . S
C1247 C1248 1.376 . S
C1248 H1235 0.930 . S
C1248 C1247 1.376 . S
C1248 C1249 1.388 . S
C1249 H1236 0.930 . S
C1249 C1248 1.388 . S
C1249 C1250 1.390 . S
C1250 C1249 1.390 . S
C1250 C1251 1.394 . S
C1250 C1256 1.465 . S
C1251 C1246 1.399 . S
C1251 C1250 1.394 . S
C1251 C1252 1.516 . S
C1252 C1251 1.516 . S
C1252 C1253 1.502 . S
C1252 C1254 1.561 . S
C1252 C1255 1.526 . S
C1253 H1237 0.959 . S
C1253 H1238 0.959 . S
C1253 H1239 0.961 . S
C1253 C1252 1.502 . S
C1254 H1240 0.960 . S
C1254 H1241 0.961 . S
C1254 H1242 0.959 . S
C1254 C1252 1.561 . S
C1255 C1252 1.526 . S
C1255 C1256 1.396 . S
C1255 C1260 1.390 . S
C1256 C1250 1.465 . S
C1256 C1255 1.396 . S
C1256 C1257 1.399 . S
C1257 H1243 0.929 . S
C1257 C1256 1.399 . S
C1257 C1258 1.385 . S
C1258 H1244 0.931 . S
C1258 C1257 1.385 . S
C1258 C1259 1.389 . S
C1259 C1258 1.389 . S
C1259 C1260 1.387 . S
C1260 H1245 0.930 . S
C1260 C1255 1.390 . S
C1260 C1259 1.387 . S
H1261 C1273 0.930 . S
H1262 C1275 0.930 . S
H1263 C1276 0.930 . S
H1264 C1280 0.959 . S
H1265 C1280 0.959 . S
H1266 C1280 0.961 . S
H1267 C1281 0.960 . S
H1268 C1281 0.961 . S
H1269 C1281 0.959 . S
H1270 C1284 0.929 . S
H1271 C1285 0.931 . S
H1272 C1287 0.930 . S
C1273 H1261 0.930 . S
C1273 C1274 1.399 . S
C1273 C1278 1.399 . S
C1274 C1273 1.399 . S
C1274 C1275 1.376 . S
C1275 H1262 0.930 . S
C1275 C1274 1.376 . S
C1275 C1276 1.388 . S
C1276 H1263 0.930 . S
C1276 C1275 1.388 . S
C1276 C1277 1.390 . S
C1277 C1276 1.390 . S
C1277 C1278 1.394 . S
C1277 C1283 1.465 . S
C1278 C1273 1.399 . S
C1278 C1277 1.394 . S
C1278 C1279 1.516 . S
C1279 C1278 1.516 . S
C1279 C1280 1.502 . S
C1279 C1281 1.561 . S
C1279 C1282 1.526 . S
C1280 H1264 0.959 . S
C1280 H1265 0.959 . S
C1280 H1266 0.961 . S
C1280 C1279 1.502 . S
C1281 H1267 0.960 . S
C1281 H1268 0.961 . S
C1281 H1269 0.959 . S
C1281 C1279 1.561 . S
C1282 C1279 1.526 . S
C1282 C1283 1.396 . S
C1282 C1287 1.390 1_455 S
C1283 C1277 1.465 . S
C1283 C1282 1.396 . S
C1283 C1284 1.399 1_455 S
C1284 H1270 0.929 . S
C1284 C1283 1.399 1_655 S
C1284 C1285 1.385 . S
C1285 H1271 0.931 . S
C1285 C1284 1.385 . S
C1285 C1286 1.389 . S
C1286 C1285 1.389 . S
C1286 C1287 1.387 . S
C1287 H1272 0.930 . S
C1287 C1282 1.390 1_655 S
C1287 C1286 1.387 . S
H1288 C1300 0.930 . S
H1289 C1302 0.930 . S
H1290 C1303 0.930 . S
H1291 C1307 0.959 . S
H1292 C1307 0.959 . S
H1293 C1307 0.961 . S
H1294 C1308 0.960 . S
H1295 C1308 0.961 . S
H1296 C1308 0.959 . S
H1297 C1311 0.929 1_554 S
H1298 C1312 0.931 . S
H1299 C1314 0.930 . S
C1300 H1288 0.930 . S
C1300 C1301 1.399 . S
C1300 C1305 1.399 . S
C1301 C1300 1.399 . S
C1301 C1302 1.376 . S
C1302 H1289 0.930 . S
C1302 C1301 1.376 . S
C1302 C1303 1.388 1_545 S
C1303 H1290 0.930 . S
C1303 C1302 1.388 1_565 S
C1303 C1304 1.390 . S
C1304 C1303 1.390 . S
C1304 C1305 1.394 1_565 S
C1304 C1310 1.465 1_554 S
C1305 C1300 1.399 . S
C1305 C1304 1.394 1_545 S
C1305 C1306 1.516 1_554 S
C1306 C1305 1.516 1_556 S
C1306 C1307 1.502 1_455 S
C1306 C1308 1.561 . S
C1306 C1309 1.526 1_545 S
C1307 H1291 0.959 . S
C1307 H1292 0.959 . S
C1307 H1293 0.961 . S
C1307 C1306 1.502 1_655 S
C1308 H1294 0.960 . S
C1308 H1295 0.961 . S
C1308 H1296 0.959 . S
C1308 C1306 1.561 . S
C1309 C1306 1.526 1_565 S
C1309 C1310 1.396 . S
C1309 C1314 1.390 . S
C1310 C1304 1.465 1_556 S
C1310 C1309 1.396 . S
C1310 C1311 1.399 . S
C1311 H1297 0.929 1_556 S
C1311 C1310 1.399 . S
C1311 C1312 1.385 . S
C1312 H1298 0.931 . S
C1312 C1311 1.385 . S
C1312 C1313 1.389 . S
C1313 C1312 1.389 . S
C1313 C1314 1.387 . S
C1314 H1299 0.930 . S
C1314 C1309 1.390 . S
C1314 C1313 1.387 . S
H1315 C1327 0.930 . S
H1316 C1329 0.930 . S
H1317 C1330 0.930 . S
H1318 C1334 0.959 . S
H1319 C1334 0.959 . S
H1320 C1334 0.961 . S
H1321 C1335 0.960 . S
H1322 C1335 0.961 . S
H1323 C1335 0.959 . S
H1324 C1338 0.929 . S
H1325 C1339 0.931 . S
H1326 C1341 0.930 . S
C1327 H1315 0.930 . S
C1327 C1328 1.399 . S
C1327 C1332 1.399 . S
C1328 C1327 1.399 . S
C1328 C1329 1.376 . S
C1329 H1316 0.930 . S
C1329 C1328 1.376 . S
C1329 C1330 1.388 . S
C1330 H1317 0.930 . S
C1330 C1329 1.388 . S
C1330 C1331 1.390 . S
C1331 C1330 1.390 . S
C1331 C1332 1.394 . S
C1331 C1337 1.465 . S
C1332 C1327 1.399 . S
C1332 C1331 1.394 . S
C1332 C1333 1.516 . S
C1333 C1332 1.516 . S
C1333 C1334 1.502 . S
C1333 C1335 1.561 . S
C1333 C1336 1.526 . S
C1334 H1318 0.959 . S
C1334 H1319 0.959 . S
C1334 H1320 0.961 . S
C1334 C1333 1.502 . S
C1335 H1321 0.960 . S
C1335 H1322 0.961 . S
C1335 H1323 0.959 . S
C1335 C1333 1.561 . S
C1336 C1333 1.526 . S
C1336 C1337 1.396 . S
C1336 C1341 1.390 . S
C1337 C1331 1.465 . S
C1337 C1336 1.396 . S
C1337 C1338 1.399 . S
C1338 H1324 0.929 . S
C1338 C1337 1.399 . S
C1338 C1339 1.385 . S
C1339 H1325 0.931 . S
C1339 C1338 1.385 . S
C1339 C1340 1.389 . S
C1340 C1339 1.389 . S
C1340 C1341 1.387 . S
C1341 H1326 0.930 . S
C1341 C1336 1.390 . S
C1341 C1340 1.387 . S
H1342 C1354 0.930 1_565 S
H1343 C1356 0.930 . S
H1344 C1357 0.930 . S
H1345 C1361 0.959 . S
H1346 C1361 0.959 . S
H1347 C1361 0.961 . S
H1348 C1362 0.960 . S
H1349 C1362 0.961 . S
H1350 C1362 0.959 . S
H1351 C1365 0.929 . S
H1352 C1366 0.929 1_545 S
H1353 C1368 0.930 . S
C1354 H1342 0.930 1_545 S
C1354 C1355 1.399 . S
C1354 C1359 1.399 1_545 S
C1355 C1354 1.399 . S
C1355 C1356 1.376 . S
C1356 H1343 0.930 . S
C1356 C1355 1.376 . S
C1356 C1357 1.388 . S
C1357 H1344 0.930 . S
C1357 C1356 1.388 . S
C1357 C1358 1.390 . S
C1358 C1357 1.390 . S
C1358 C1359 1.394 1_545 S
C1358 C1364 1.465 . S
C1359 C1354 1.399 1_565 S
C1359 C1358 1.394 1_565 S
C1359 C1360 1.516 . S
C1360 C1359 1.516 . S
C1360 C1361 1.502 . S
C1360 C1362 1.561 . S
C1360 C1363 1.526 . S
C1361 H1345 0.959 . S
C1361 H1346 0.959 . S
C1361 H1347 0.961 . S
C1361 C1360 1.502 . S
C1362 H1348 0.960 . S
C1362 H1349 0.961 . S
C1362 H1350 0.959 . S
C1362 C1360 1.561 . S
C1363 C1360 1.526 . S
C1363 C1364 1.396 1_565 S
C1363 C1368 1.390 . S
C1364 C1358 1.465 . S
C1364 C1363 1.396 1_545 S
C1364 C1365 1.399 . S
C1365 H1351 0.929 . S
C1365 C1364 1.399 . S
C1365 C1366 1.381 1_545 S
C1366 H1352 0.929 1_565 S
C1366 C1365 1.381 1_565 S
C1366 C1367 1.395 . S
C1367 C1366 1.395 . S
C1367 C1368 1.387 . S
C1368 H1353 0.930 . S
C1368 C1363 1.390 . S
C1368 C1367 1.387 . S
H1369 C1381 0.930 . S
H1370 C1383 0.930 . S
H1371 C1384 0.930 . S
H1372 C1388 0.959 . S
H1373 C1388 0.959 . S
H1374 C1388 0.961 . S
H1375 C1389 0.960 . S
H1376 C1389 0.961 . S
H1377 C1389 0.959 . S
H1378 C1392 0.929 . S
H1379 C1393 0.931 . S
H1380 C1395 0.930 . S
C1381 H1369 0.930 . S
C1381 C1382 1.399 . S
C1381 C1386 1.399 . S
C1382 C1381 1.399 . S
C1382 C1383 1.376 . S
C1383 H1370 0.930 . S
C1383 C1382 1.376 . S
C1383 C1384 1.388 . S
C1384 H1371 0.930 . S
C1384 C1383 1.388 . S
C1384 C1385 1.390 . S
C1385 C1384 1.390 . S
C1385 C1386 1.394 . S
C1385 C1391 1.465 . S
C1386 C1381 1.399 . S
C1386 C1385 1.394 . S
C1386 C1387 1.516 . S
C1387 C1386 1.516 . S
C1387 C1388 1.502 . S
C1387 C1389 1.561 . S
C1387 C1390 1.526 . S
C1388 H1372 0.959 . S
C1388 H1373 0.959 . S
C1388 H1374 0.961 . S
C1388 C1387 1.502 . S
C1389 H1375 0.960 . S
C1389 H1376 0.961 . S
C1389 H1377 0.959 . S
C1389 C1387 1.561 . S
C1390 C1387 1.526 . S
C1390 C1391 1.396 . S
C1390 C1395 1.390 . S
C1391 C1385 1.465 . S
C1391 C1390 1.396 . S
C1391 C1392 1.399 . S
C1392 H1378 0.929 . S
C1392 C1391 1.399 . S
C1392 C1393 1.385 . S
C1393 H1379 0.931 . S
C1393 C1392 1.385 . S
C1393 C1394 1.389 . S
C1394 C1393 1.389 . S
C1394 C1395 1.387 . S
C1395 H1380 0.930 . S
C1395 C1390 1.390 . S
C1395 C1394 1.387 . S
H1396 C1408 0.930 . S
H1397 C1410 0.930 . S
H1398 C1411 0.930 . S
H1399 C1415 0.959 . S
H1400 C1415 0.959 . S
H1401 C1415 0.961 . S
H1402 C1416 0.960 . S
H1403 C1416 0.961 . S
H1404 C1416 0.959 . S
H1405 C1419 0.929 . S
H1406 C1420 0.931 . S
H1407 C1422 0.930 . S
C1408 H1396 0.930 . S
C1408 C1409 1.399 . S
C1408 C1413 1.399 . S
C1409 C1408 1.399 . S
C1409 C1410 1.376 . S
C1410 H1397 0.930 . S
C1410 C1409 1.376 . S
C1410 C1411 1.388 . S
C1411 H1398 0.930 . S
C1411 C1410 1.388 . S
C1411 C1412 1.390 . S
C1412 C1411 1.390 . S
C1412 C1413 1.394 . S
C1412 C1418 1.465 . S
C1413 C1408 1.399 . S
C1413 C1412 1.394 . S
C1413 C1414 1.516 . S
C1414 C1413 1.516 . S
C1414 C1415 1.502 . S
C1414 C1416 1.561 . S
C1414 C1417 1.526 . S
C1415 H1399 0.959 . S
C1415 H1400 0.959 . S
C1415 H1401 0.961 . S
C1415 C1414 1.502 . S
C1416 H1402 0.960 . S
C1416 H1403 0.961 . S
C1416 H1404 0.959 . S
C1416 C1414 1.561 . S
C1417 C1414 1.526 . S
C1417 C1418 1.396 . S
C1417 C1422 1.390 . S
C1418 C1412 1.465 . S
C1418 C1417 1.396 . S
C1418 C1419 1.399 . S
C1419 H1405 0.929 . S
C1419 C1418 1.399 . S
C1419 C1420 1.385 . S
C1420 H1406 0.931 . S
C1420 C1419 1.385 . S
C1420 C1421 1.389 . S
C1421 C1420 1.389 . S
C1421 C1422 1.387 . S
C1422 H1407 0.930 . S
C1422 C1417 1.390 . S
C1422 C1421 1.387 . S
H1423 C1435 0.930 . S
H1424 C1437 0.930 . S
H1425 C1438 0.930 . S
H1426 C1442 0.959 . S
H1427 C1442 0.959 . S
H1428 C1442 0.961 . S
H1429 C1443 0.960 . S
H1430 C1443 0.961 . S
H1431 C1443 0.959 . S
H1432 C1446 0.929 . S
H1433 C1447 0.931 . S
H1434 C1449 0.930 . S
C1435 H1423 0.930 . S
C1435 C1436 1.399 . S
C1435 C1440 1.399 . S
C1436 C1435 1.399 . S
C1436 C1437 1.376 . S
C1437 H1424 0.930 . S
C1437 C1436 1.376 . S
C1437 C1438 1.388 . S
C1438 H1425 0.930 . S
C1438 C1437 1.388 . S
C1438 C1439 1.390 . S
C1439 C1438 1.390 . S
C1439 C1440 1.394 . S
C1439 C1445 1.465 . S
C1440 C1435 1.399 . S
C1440 C1439 1.394 . S
C1440 C1441 1.516 . S
C1441 C1440 1.516 . S
C1441 C1442 1.502 . S
C1441 C1443 1.561 . S
C1441 C1444 1.526 . S
C1442 H1426 0.959 . S
C1442 H1427 0.959 . S
C1442 H1428 0.961 . S
C1442 C1441 1.502 . S
C1443 H1429 0.960 . S
C1443 H1430 0.961 . S
C1443 H1431 0.959 . S
C1443 C1441 1.561 . S
C1444 C1441 1.526 . S
C1444 C1445 1.396 . S
C1444 C1449 1.390 . S
C1445 C1439 1.465 . S
C1445 C1444 1.396 . S
C1445 C1446 1.399 . S
C1446 H1432 0.929 . S
C1446 C1445 1.399 . S
C1446 C1447 1.385 . S
C1447 H1433 0.931 . S
C1447 C1446 1.385 . S
C1447 C1448 1.389 . S
C1448 C1447 1.389 . S
C1448 C1449 1.387 . S
C1449 H1434 0.930 . S
C1449 C1444 1.390 . S
C1449 C1448 1.387 . S
H1450 C1462 0.930 . S
H1451 C1464 0.930 . S
H1452 C1465 0.930 . S
H1453 C1469 0.959 . S
H1454 C1469 0.959 . S
H1455 C1469 0.961 . S
H1456 C1470 0.960 . S
H1457 C1470 0.961 . S
H1458 C1470 0.959 . S
H1459 C1473 0.929 . S
H1460 C1474 0.931 . S
H1461 C1476 0.930 . S
C1462 H1450 0.930 . S
C1462 C1463 1.399 . S
C1462 C1467 1.399 . S
C1463 C1462 1.399 . S
C1463 C1464 1.376 . S
C1464 H1451 0.930 . S
C1464 C1463 1.376 . S
C1464 C1465 1.388 . S
C1465 H1452 0.930 . S
C1465 C1464 1.388 . S
C1465 C1466 1.390 . S
C1466 C1465 1.390 . S
C1466 C1467 1.394 . S
C1466 C1472 1.465 . S
C1467 C1462 1.399 . S
C1467 C1466 1.394 . S
C1467 C1468 1.516 . S
C1468 C1467 1.516 . S
C1468 C1469 1.502 . S
C1468 C1470 1.561 . S
C1468 C1471 1.526 . S
C1469 H1453 0.959 . S
C1469 H1454 0.959 . S
C1469 H1455 0.961 . S
C1469 C1468 1.502 . S
C1470 H1456 0.960 . S
C1470 H1457 0.961 . S
C1470 H1458 0.959 . S
C1470 C1468 1.561 . S
C1471 C1468 1.526 . S
C1471 C1472 1.396 . S
C1471 C1476 1.390 . S
C1472 C1466 1.465 . S
C1472 C1471 1.396 . S
C1472 C1473 1.399 . S
C1473 H1459 0.929 . S
C1473 C1472 1.399 . S
C1473 C1474 1.385 . S
C1474 H1460 0.931 . S
C1474 C1473 1.385 . S
C1474 C1475 1.389 . S
C1475 C1474 1.389 . S
C1475 C1476 1.387 . S
C1476 H1461 0.930 . S
C1476 C1471 1.390 . S
C1476 C1475 1.387 . S
H1477 C1489 0.930 . S
H1478 C1491 0.930 . S
H1479 C1492 0.930 1_554 S
H1480 C1496 0.959 1_655 S
H1481 C1496 0.959 . S
H1482 C1496 0.971 . S
H1483 C1497 0.960 . S
H1484 C1497 0.961 . S
H1485 C1497 0.959 . S
H1486 C1500 0.929 . S
H1487 C1501 0.931 . S
H1488 C1503 0.930 . S
C1489 H1477 0.930 . S
C1489 C1490 1.399 . S
C1489 C1494 1.399 . S
C1490 C1489 1.399 . S
C1490 C1491 1.376 . S
C1491 H1478 0.930 . S
C1491 C1490 1.376 . S
C1491 C1492 1.388 . S
C1492 H1479 0.930 1_556 S
C1492 C1491 1.388 . S
C1492 C1493 1.390 . S
C1493 C1492 1.390 . S
C1493 C1494 1.394 . S
C1493 C1499 1.465 1_556 S
C1494 C1489 1.399 . S
C1494 C1493 1.394 . S
C1494 C1495 1.516 . S
C1495 C1494 1.516 . S
C1495 C1496 1.502 . S
C1495 C1497 1.561 . S
C1495 C1498 1.526 1_556 S
C1496 H1480 0.959 1_455 S
C1496 H1481 0.959 . S
C1496 H1482 0.971 . S
C1496 C1495 1.502 . S
C1497 H1483 0.960 . S
C1497 H1484 0.961 . S
C1497 H1485 0.959 . S
C1497 C1495 1.561 . S
C1498 C1495 1.526 1_554 S
C1498 C1499 1.396 . S
C1498 C1503 1.390 . S
C1499 C1493 1.465 1_554 S
C1499 C1498 1.396 . S
C1499 C1500 1.399 . S
C1500 H1486 0.929 . S
C1500 C1499 1.399 . S
C1500 C1501 1.385 . S
C1501 H1487 0.931 . S
C1501 C1500 1.385 . S
C1501 C1502 1.389 . S
C1502 C1501 1.389 . S
C1502 C1503 1.387 . S
C1503 H1488 0.930 . S
C1503 C1498 1.390 . S
C1503 C1502 1.387 . S
H1504 C1516 0.930 . S
H1505 C1518 0.930 . S
H1506 C1519 0.930 . S
H1507 C1523 0.959 . S
H1508 C1523 0.959 . S
H1509 C1523 0.961 . S
H1510 C1524 0.960 . S
H1511 C1524 0.961 . S
H1512 C1524 0.959 . S
H1513 C1527 0.929 . S
H1514 C1528 0.931 . S
H1515 C1530 0.930 . S
C1516 H1504 0.930 . S
C1516 C1517 1.399 . S
C1516 C1521 1.399 . S
C1517 C1516 1.399 . S
C1517 C1518 1.376 . S
C1518 H1505 0.930 . S
C1518 C1517 1.376 . S
C1518 C1519 1.388 . S
C1519 H1506 0.930 . S
C1519 C1518 1.388 . S
C1519 C1520 1.390 . S
C1520 C1519 1.390 . S
C1520 C1521 1.394 . S
C1520 C1526 1.465 . S
C1521 C1516 1.399 . S
C1521 C1520 1.394 . S
C1521 C1522 1.516 . S
C1522 C1521 1.516 . S
C1522 C1523 1.502 . S
C1522 C1524 1.561 . S
C1522 C1525 1.526 . S
C1523 H1507 0.959 . S
C1523 H1508 0.959 . S
C1523 H1509 0.961 . S
C1523 C1522 1.502 . S
C1524 H1510 0.960 . S
C1524 H1511 0.961 . S
C1524 H1512 0.959 . S
C1524 C1522 1.561 . S
C1525 C1522 1.526 . S
C1525 C1526 1.396 . S
C1525 C1530 1.390 . S
C1526 C1520 1.465 . S
C1526 C1525 1.396 . S
C1526 C1527 1.399 . S
C1527 H1513 0.929 . S
C1527 C1526 1.399 . S
C1527 C1528 1.385 . S
C1528 H1514 0.931 . S
C1528 C1527 1.385 . S
C1528 C1529 1.389 . S
C1529 C1528 1.389 . S
C1529 C1530 1.387 . S
C1530 H1515 0.930 . S
C1530 C1525 1.390 . S
C1530 C1529 1.387 . S
H1531 C1543 0.930 . S
H1532 C1545 0.930 . S
H1533 C1546 0.930 . S
H1534 C1550 0.959 . S
H1535 C1550 0.959 . S
H1536 C1550 0.961 . S
H1537 C1551 0.960 . S
H1538 C1551 0.961 . S
H1539 C1551 0.959 . S
H1540 C1554 0.929 . S
H1541 C1555 0.931 . S
H1542 C1557 0.930 . S
C1543 H1531 0.930 . S
C1543 C1544 1.399 . S
C1543 C1548 1.399 . S
C1544 C1543 1.399 . S
C1544 C1545 1.376 . S
C1545 H1532 0.930 . S
C1545 C1544 1.376 . S
C1545 C1546 1.388 . S
C1546 H1533 0.930 . S
C1546 C1545 1.388 . S
C1546 C1547 1.390 . S
C1547 C1546 1.390 . S
C1547 C1548 1.394 . S
C1547 C1553 1.465 . S
C1548 C1543 1.399 . S
C1548 C1547 1.394 . S
C1548 C1549 1.516 . S
C1549 C1548 1.516 . S
C1549 C1550 1.502 . S
C1549 C1551 1.561 . S
C1549 C1552 1.526 . S
C1550 H1534 0.959 . S
C1550 H1535 0.959 . S
C1550 H1536 0.961 . S
C1550 C1549 1.502 . S
C1551 H1537 0.960 . S
C1551 H1538 0.961 . S
C1551 H1539 0.959 . S
C1551 C1549 1.561 . S
C1552 C1549 1.526 . S
C1552 C1553 1.396 . S
C1552 C1557 1.390 . S
C1553 C1547 1.465 . S
C1553 C1552 1.396 . S
C1553 C1554 1.399 . S
C1554 H1540 0.929 . S
C1554 C1553 1.399 . S
C1554 C1555 1.385 . S
C1555 H1541 0.931 . S
C1555 C1554 1.385 . S
C1555 C1556 1.389 . S
C1556 C1555 1.389 . S
C1556 C1557 1.387 . S
C1557 H1542 0.930 . S
C1557 C1552 1.390 . S
C1557 C1556 1.387 . S
H1558 C1570 0.930 . S
H1559 C1572 0.930 . S
H1560 C1573 0.930 . S
H1561 C1577 0.959 . S
H1562 C1577 0.959 . S
H1563 C1577 0.961 . S
H1564 C1578 0.960 . S
H1565 C1578 0.961 . S
H1566 C1578 0.959 . S
H1567 C1581 0.929 . S
H1568 C1582 0.931 . S
H1569 C1584 0.930 . S
C1570 H1558 0.930 . S
C1570 C1571 1.399 . S
C1570 C1575 1.399 . S
C1571 C1570 1.399 . S
C1571 C1572 1.376 . S
C1572 H1559 0.930 . S
C1572 C1571 1.376 . S
C1572 C1573 1.388 . S
C1573 H1560 0.930 . S
C1573 C1572 1.388 . S
C1573 C1574 1.390 . S
C1574 C1573 1.390 . S
C1574 C1575 1.394 . S
C1574 C1580 1.465 . S
C1575 C1570 1.399 . S
C1575 C1574 1.394 . S
C1575 C1576 1.516 . S
C1576 C1575 1.516 . S
C1576 C1577 1.502 . S
C1576 C1578 1.561 . S
C1576 C1579 1.526 . S
C1577 H1561 0.959 . S
C1577 H1562 0.959 . S
C1577 H1563 0.961 . S
C1577 C1576 1.502 . S
C1578 H1564 0.960 . S
C1578 H1565 0.961 . S
C1578 H1566 0.959 . S
C1578 C1576 1.561 . S
C1579 C1576 1.526 . S
C1579 C1580 1.396 . S
C1579 C1584 1.390 . S
C1580 C1574 1.465 . S
C1580 C1579 1.396 . S
C1580 C1581 1.399 . S
C1581 H1567 0.929 . S
C1581 C1580 1.399 . S
C1581 C1582 1.385 . S
C1582 H1568 0.931 . S
C1582 C1581 1.385 . S
C1582 C1583 1.389 . S
C1583 C1582 1.389 . S
C1583 C1584 1.387 . S
C1584 H1569 0.930 . S
C1584 C1579 1.390 . S
C1584 C1583 1.387 . S
H1585 C1597 0.930 . S
H1586 C1599 0.930 . S
H1587 C1600 0.930 . S
H1588 C1604 0.959 . S
H1589 C1604 0.959 . S
H1590 C1604 0.961 . S
H1591 C1605 0.960 . S
H1592 C1605 0.961 . S
H1593 C1605 0.959 . S
H1594 C1608 0.929 . S
H1595 C1609 0.931 . S
H1596 C1611 0.930 . S
C1597 H1585 0.930 . S
C1597 C1598 1.399 . S
C1597 C1602 1.399 . S
C1598 C1597 1.399 . S
C1598 C1599 1.376 . S
C1599 H1586 0.930 . S
C1599 C1598 1.376 . S
C1599 C1600 1.388 . S
C1600 H1587 0.930 . S
C1600 C1599 1.388 . S
C1600 C1601 1.390 . S
C1601 C1600 1.390 . S
C1601 C1602 1.394 . S
C1601 C1607 1.465 . S
C1602 C1597 1.399 . S
C1602 C1601 1.394 . S
C1602 C1603 1.516 . S
C1603 C1602 1.516 . S
C1603 C1604 1.502 . S
C1603 C1605 1.561 . S
C1603 C1606 1.526 . S
C1604 H1588 0.959 . S
C1604 H1589 0.959 . S
C1604 H1590 0.961 . S
C1604 C1603 1.502 . S
C1605 H1591 0.960 . S
C1605 H1592 0.961 . S
C1605 H1593 0.959 . S
C1605 C1603 1.561 . S
C1606 C1603 1.526 . S
C1606 C1607 1.396 . S
C1606 C1611 1.390 . S
C1607 C1601 1.465 . S
C1607 C1606 1.396 . S
C1607 C1608 1.399 . S
C1608 H1594 0.929 . S
C1608 C1607 1.399 . S
C1608 C1609 1.385 . S
C1609 H1595 0.931 . S
C1609 C1608 1.385 . S
C1609 C1610 1.389 . S
C1610 C1609 1.389 . S
C1610 C1611 1.387 . S
C1611 H1596 0.930 . S
C1611 C1606 1.390 . S
C1611 C1610 1.387 . S
H1612 C1624 0.930 . S
H1613 C1626 0.930 . S
H1614 C1627 0.930 . S
H1615 C1631 0.959 . S
H1616 C1631 0.959 . S
H1617 C1631 0.961 . S
H1618 C1632 0.960 . S
H1619 C1632 0.961 . S
H1620 C1632 0.959 . S
H1621 C1635 0.929 . S
H1622 C1636 0.931 . S
H1623 C1638 0.930 . S
C1624 H1612 0.930 . S
C1624 C1625 1.399 . S
C1624 C1629 1.399 . S
C1625 C1624 1.399 . S
C1625 C1626 1.376 . S
C1626 H1613 0.930 . S
C1626 C1625 1.376 . S
C1626 C1627 1.388 . S
C1627 H1614 0.930 . S
C1627 C1626 1.388 . S
C1627 C1628 1.390 . S
C1628 C1627 1.390 . S
C1628 C1629 1.394 . S
C1628 C1634 1.465 . S
C1629 C1624 1.399 . S
C1629 C1628 1.394 . S
C1629 C1630 1.516 . S
C1630 C1629 1.516 . S
C1630 C1631 1.502 . S
C1630 C1632 1.561 . S
C1630 C1633 1.526 . S
C1631 H1615 0.959 . S
C1631 H1616 0.959 . S
C1631 H1617 0.961 . S
C1631 C1630 1.502 . S
C1632 H1618 0.960 . S
C1632 H1619 0.961 . S
C1632 H1620 0.959 . S
C1632 C1630 1.561 . S
C1633 C1630 1.526 . S
C1633 C1634 1.396 . S
C1633 C1638 1.390 . S
C1634 C1628 1.465 . S
C1634 C1633 1.396 . S
C1634 C1635 1.399 . S
C1635 H1621 0.929 . S
C1635 C1634 1.399 . S
C1635 C1636 1.385 . S
C1636 H1622 0.931 . S
C1636 C1635 1.385 . S
C1636 C1637 1.389 . S
C1637 C1636 1.389 . S
C1637 C1638 1.387 . S
C1638 H1623 0.930 . S
C1638 C1633 1.390 . S
C1638 C1637 1.387 . S
H1639 C1651 0.930 . S
H1640 C1653 0.930 . S
H1641 C1654 0.930 . S
H1642 C1658 0.959 . S
H1643 C1658 0.959 . S
H1644 C1658 0.961 . S
H1645 C1659 0.960 . S
H1646 C1659 0.961 . S
H1647 C1659 0.959 . S
H1648 C1662 0.923 1_455 S
H1649 C1663 0.931 . S
H1650 C1665 0.930 . S
C1651 H1639 0.930 . S
C1651 C1652 1.399 . S
C1651 C1656 1.399 . S
C1652 C1651 1.399 . S
C1652 C1653 1.376 . S
C1653 H1640 0.930 . S
C1653 C1652 1.376 . S
C1653 C1654 1.388 . S
C1654 H1641 0.930 . S
C1654 C1653 1.388 . S
C1654 C1655 1.390 . S
C1655 C1654 1.390 . S
C1655 C1656 1.394 . S
C1655 C1661 1.465 . S
C1656 C1651 1.399 . S
C1656 C1655 1.394 . S
C1656 C1657 1.516 . S
C1657 C1656 1.516 . S
C1657 C1658 1.502 . S
C1657 C1659 1.561 . S
C1657 C1660 1.526 . S
C1658 H1642 0.959 . S
C1658 H1643 0.959 . S
C1658 H1644 0.961 . S
C1658 C1657 1.502 . S
C1659 H1645 0.960 . S
C1659 H1646 0.961 . S
C1659 H1647 0.959 . S
C1659 C1657 1.561 . S
C1660 C1657 1.526 . S
C1660 C1661 1.396 . S
C1660 C1665 1.390 . S
C1661 C1655 1.465 . S
C1661 C1660 1.396 . S
C1661 C1662 1.399 . S
C1662 H1648 0.923 1_655 S
C1662 C1661 1.399 . S
C1662 C1663 1.385 1_655 S
C1663 H1649 0.931 . S
C1663 C1662 1.385 1_455 S
C1663 C1664 1.389 1_455 S
C1664 C1663 1.389 1_655 S
C1664 C1665 1.387 . S
C1665 H1650 0.930 . S
C1665 C1660 1.390 . S
C1665 C1664 1.387 . S
H1666 C1678 0.930 . S
H1667 C1680 0.930 . S
H1668 C1681 0.930 . S
H1669 C1685 0.959 . S
H1670 C1685 0.959 . S
H1671 C1685 0.961 . S
H1672 C1686 0.960 . S
H1673 C1686 0.961 . S
H1674 C1686 0.959 . S
H1675 C1689 0.929 . S
H1676 C1690 0.931 . S
H1677 C1692 0.930 . S
C1678 H1666 0.930 . S
C1678 C1679 1.399 . S
C1678 C1683 1.399 . S
C1679 C1678 1.399 . S
C1679 C1680 1.376 . S
C1680 H1667 0.930 . S
C1680 C1679 1.376 . S
C1680 C1681 1.388 . S
C1681 H1668 0.930 . S
C1681 C1680 1.388 . S
C1681 C1682 1.390 . S
C1682 C1681 1.390 . S
C1682 C1683 1.394 . S
C1682 C1688 1.465 . S
C1683 C1678 1.399 . S
C1683 C1682 1.394 . S
C1683 C1684 1.516 . S
C1684 C1683 1.516 . S
C1684 C1685 1.502 . S
C1684 C1686 1.561 . S
C1684 C1687 1.526 . S
C1685 H1669 0.959 . S
C1685 H1670 0.959 . S
C1685 H1671 0.961 . S
C1685 C1684 1.502 . S
C1686 H1672 0.960 . S
C1686 H1673 0.961 . S
C1686 H1674 0.959 . S
C1686 C1684 1.561 . S
C1687 C1684 1.526 . S
C1687 C1688 1.396 . S
C1687 C1692 1.390 . S
C1688 C1682 1.465 . S
C1688 C1687 1.396 . S
C1688 C1689 1.399 . S
C1689 H1675 0.929 . S
C1689 C1688 1.399 . S
C1689 C1690 1.385 . S
C1690 H1676 0.931 . S
C1690 C1689 1.385 . S
C1690 C1691 1.389 . S
C1691 C1690 1.389 . S
C1691 C1692 1.387 . S
C1692 H1677 0.930 . S
C1692 C1687 1.390 . S
C1692 C1691 1.387 . S
H1693 C1705 0.930 . S
H1694 C1707 0.930 . S
H1695 C1708 0.930 . S
H1696 C1712 0.959 . S
H1697 C1712 0.959 . S
H1698 C1712 0.961 . S
H1699 C1713 0.960 . S
H1700 C1713 0.961 . S
H1701 C1713 0.959 . S
H1702 C1716 0.929 . S
H1703 C1717 0.931 . S
H1704 C1719 0.930 . S
C1705 H1693 0.930 . S
C1705 C1706 1.399 . S
C1705 C1710 1.399 . S
C1706 C1705 1.399 . S
C1706 C1707 1.376 . S
C1707 H1694 0.930 . S
C1707 C1706 1.376 . S
C1707 C1708 1.388 . S
C1708 H1695 0.930 . S
C1708 C1707 1.388 . S
C1708 C1709 1.390 . S
C1709 C1708 1.390 . S
C1709 C1710 1.394 . S
C1709 C1715 1.465 . S
C1710 C1705 1.399 . S
C1710 C1709 1.394 . S
C1710 C1711 1.516 . S
C1711 C1710 1.516 . S
C1711 C1712 1.502 . S
C1711 C1713 1.561 . S
C1711 C1714 1.526 . S
C1712 H1696 0.959 . S
C1712 H1697 0.959 . S
C1712 H1698 0.961 . S
C1712 C1711 1.502 . S
C1713 H1699 0.960 . S
C1713 H1700 0.961 . S
C1713 H1701 0.959 . S
C1713 C1711 1.561 . S
C1714 C1711 1.526 . S
C1714 C1715 1.396 . S
C1714 C1719 1.390 . S
C1715 C1709 1.465 . S
C1715 C1714 1.396 . S
C1715 C1716 1.399 . S
C1716 H1702 0.929 . S
C1716 C1715 1.399 . S
C1716 C1717 1.385 . S
C1717 H1703 0.931 . S
C1717 C1716 1.385 . S
C1717 C1718 1.389 . S
C1718 C1717 1.389 . S
C1718 C1719 1.387 . S
C1719 H1704 0.930 . S
C1719 C1714 1.390 . S
C1719 C1718 1.387 . S
H1720 C1732 0.930 . S
H1721 C1734 0.930 . S
H1722 C1735 0.930 . S
H1723 C1739 0.959 . S
H1724 C1739 0.959 . S
H1725 C1739 0.961 . S
H1726 C1740 0.960 . S
H1727 C1740 0.961 . S
H1728 C1740 0.959 . S
H1729 C1743 0.929 . S
H1730 C1744 0.931 . S
H1731 C1746 0.930 . S
C1732 H1720 0.930 . S
C1732 C1733 1.399 . S
C1732 C1737 1.399 . S
C1733 C1732 1.399 . S
C1733 C1734 1.376 . S
C1734 H1721 0.930 . S
C1734 C1733 1.376 . S
C1734 C1735 1.388 . S
C1735 H1722 0.930 . S
C1735 C1734 1.388 . S
C1735 C1736 1.390 . S
C1736 C1735 1.390 . S
C1736 C1737 1.394 . S
C1736 C1742 1.465 . S
C1737 C1732 1.399 . S
C1737 C1736 1.394 . S
C1737 C1738 1.516 . S
C1738 C1737 1.516 . S
C1738 C1739 1.502 . S
C1738 C1740 1.561 . S
C1738 C1741 1.526 . S
C1739 H1723 0.959 . S
C1739 H1724 0.959 . S
C1739 H1725 0.961 . S
C1739 C1738 1.502 . S
C1740 H1726 0.960 . S
C1740 H1727 0.961 . S
C1740 H1728 0.959 . S
C1740 C1738 1.561 . S
C1741 C1738 1.526 . S
C1741 C1742 1.396 . S
C1741 C1746 1.390 1_556 S
C1742 C1736 1.465 . S
C1742 C1741 1.396 . S
C1742 C1743 1.399 . S
C1743 H1729 0.929 . S
C1743 C1742 1.399 . S
C1743 C1744 1.385 1_556 S
C1744 H1730 0.931 . S
C1744 C1743 1.385 1_554 S
C1744 C1745 1.389 . S
C1745 C1744 1.389 . S
C1745 C1746 1.387 . S
C1746 H1731 0.930 . S
C1746 C1741 1.390 1_554 S
C1746 C1745 1.387 . S
H1747 C1759 0.930 . S
H1748 C1761 0.930 . S
H1749 C1762 0.930 . S
H1750 C1766 0.959 . S
H1751 C1766 0.959 . S
H1752 C1766 0.961 . S
H1753 C1767 0.960 . S
H1754 C1767 0.961 . S
H1755 C1767 0.959 . S
H1756 C1770 0.929 . S
H1757 C1771 0.931 . S
H1758 C1773 0.930 . S
C1759 H1747 0.930 . S
C1759 C1760 1.399 . S
C1759 C1764 1.399 . S
C1760 C1759 1.399 . S
C1760 C1761 1.376 . S
C1761 H1748 0.930 . S
C1761 C1760 1.376 . S
C1761 C1762 1.388 . S
C1762 H1749 0.930 . S
C1762 C1761 1.388 . S
C1762 C1763 1.390 . S
C1763 C1762 1.390 . S
C1763 C1764 1.394 . S
C1763 C1769 1.465 . S
C1764 C1759 1.399 . S
C1764 C1763 1.394 . S
C1764 C1765 1.516 . S
C1765 C1764 1.516 . S
C1765 C1766 1.502 . S
C1765 C1767 1.561 . S
C1765 C1768 1.526 . S
C1766 H1750 0.959 . S
C1766 H1751 0.959 . S
C1766 H1752 0.961 . S
C1766 C1765 1.502 . S
C1767 H1753 0.960 . S
C1767 H1754 0.961 . S
C1767 H1755 0.959 . S
C1767 C1765 1.561 . S
C1768 C1765 1.526 . S
C1768 C1769 1.396 . S
C1768 C1773 1.390 . S
C1769 C1763 1.465 . S
C1769 C1768 1.396 . S
C1769 C1770 1.399 . S
C1770 H1756 0.929 . S
C1770 C1769 1.399 . S
C1770 C1771 1.385 . S
C1771 H1757 0.931 . S
C1771 C1770 1.385 . S
C1771 C1772 1.389 . S
C1772 C1771 1.389 . S
C1772 C1773 1.387 . S
C1773 H1758 0.930 . S
C1773 C1768 1.390 . S
C1773 C1772 1.387 . S
H1774 C1786 0.930 . S
H1775 C1788 0.930 . S
H1776 C1789 0.930 . S
H1777 C1793 0.959 . S
H1778 C1793 0.960 1_655 S
H1779 C1793 0.960 . S
H1780 C1794 0.960 . S
H1781 C1794 0.961 . S
H1782 C1794 0.959 . S
H1783 C1797 0.929 . S
H1784 C1798 0.931 . S
H1785 C1800 0.930 . S
C1786 H1774 0.930 . S
C1786 C1787 1.399 . S
C1786 C1791 1.399 . S
C1787 C1786 1.399 . S
C1787 C1788 1.376 . S
C1788 H1775 0.930 . S
C1788 C1787 1.376 . S
C1788 C1789 1.388 . S
C1789 H1776 0.930 . S
C1789 C1788 1.388 . S
C1789 C1790 1.390 . S
C1790 C1789 1.390 . S
C1790 C1791 1.394 . S
C1790 C1796 1.465 . S
C1791 C1786 1.399 . S
C1791 C1790 1.394 . S
C1791 C1792 1.516 . S
C1792 C1791 1.516 . S
C1792 C1793 1.503 1_655 S
C1792 C1794 1.561 . S
C1792 C1795 1.526 . S
C1793 H1777 0.959 . S
C1793 H1778 0.960 1_455 S
C1793 H1779 0.960 . S
C1793 C1792 1.503 1_455 S
C1794 H1780 0.960 . S
C1794 H1781 0.961 . S
C1794 H1782 0.959 . S
C1794 C1792 1.561 . S
C1795 C1792 1.526 . S
C1795 C1796 1.396 . S
C1795 C1800 1.390 . S
C1796 C1790 1.465 . S
C1796 C1795 1.396 . S
C1796 C1797 1.399 . S
C1797 H1783 0.929 . S
C1797 C1796 1.399 . S
C1797 C1798 1.385 . S
C1798 H1784 0.931 . S
C1798 C1797 1.385 . S
C1798 C1799 1.389 . S
C1799 C1798 1.389 . S
C1799 C1800 1.387 . S
C1800 H1785 0.930 . S
C1800 C1795 1.390 . S
C1800 C1799 1.387 . S
H1801 C1813 0.930 . S
H1802 C1815 0.930 . S
H1803 C1816 0.930 . S
H1804 C1820 0.959 . S
H1805 C1820 0.959 . S
H1806 C1820 0.961 . S
H1807 C1821 0.960 . S
H1808 C1821 0.961 . S
H1809 C1821 0.959 . S
H1810 C1824 0.929 . S
H1811 C1825 0.931 . S
H1812 C1827 0.930 . S
C1813 H1801 0.930 . S
C1813 C1814 1.399 . S
C1813 C1818 1.399 . S
C1814 C1813 1.399 . S
C1814 C1815 1.376 . S
C1815 H1802 0.930 . S
C1815 C1814 1.376 . S
C1815 C1816 1.388 . S
C1816 H1803 0.930 . S
C1816 C1815 1.388 . S
C1816 C1817 1.390 . S
C1817 C1816 1.390 . S
C1817 C1818 1.394 . S
C1817 C1823 1.465 . S
C1818 C1813 1.399 . S
C1818 C1817 1.394 . S
C1818 C1819 1.516 . S
C1819 C1818 1.516 . S
C1819 C1820 1.502 . S
C1819 C1821 1.561 . S
C1819 C1822 1.526 . S
C1820 H1804 0.959 . S
C1820 H1805 0.959 . S
C1820 H1806 0.961 . S
C1820 C1819 1.502 . S
C1821 H1807 0.960 . S
C1821 H1808 0.961 . S
C1821 H1809 0.959 . S
C1821 C1819 1.561 . S
C1822 C1819 1.526 . S
C1822 C1823 1.396 . S
C1822 C1827 1.390 . S
C1823 C1817 1.465 . S
C1823 C1822 1.396 . S
C1823 C1824 1.399 . S
C1824 H1810 0.929 . S
C1824 C1823 1.399 . S
C1824 C1825 1.385 . S
C1825 H1811 0.931 . S
C1825 C1824 1.385 . S
C1825 C1826 1.389 . S
C1826 C1825 1.389 . S
C1826 C1827 1.387 . S
C1827 H1812 0.930 . S
C1827 C1822 1.390 . S
C1827 C1826 1.387 . S
H1828 C1840 0.930 . S
H1829 C1842 0.930 . S
H1830 C1843 0.930 . S
H1831 C1847 0.959 . S
H1832 C1847 0.959 . S
H1833 C1847 0.961 . S
H1834 C1848 0.960 . S
H1835 C1848 0.961 1_556 S
H1836 C1848 0.959 . S
H1837 C1851 0.929 . S
H1838 C1852 0.931 . S
H1839 C1854 0.930 . S
C1840 H1828 0.930 . S
C1840 C1841 1.399 . S
C1840 C1845 1.399 . S
C1841 C1840 1.399 . S
C1841 C1842 1.376 . S
C1842 H1829 0.930 . S
C1842 C1841 1.376 . S
C1842 C1843 1.388 . S
C1843 H1830 0.930 . S
C1843 C1842 1.388 . S
C1843 C1844 1.390 . S
C1844 C1843 1.390 . S
C1844 C1845 1.394 . S
C1844 C1850 1.465 . S
C1845 C1840 1.399 . S
C1845 C1844 1.394 . S
C1845 C1846 1.516 . S
C1846 C1845 1.516 . S
C1846 C1847 1.502 . S
C1846 C1848 1.561 . S
C1846 C1849 1.526 . S
C1847 H1831 0.959 . S
C1847 H1832 0.959 . S
C1847 H1833 0.961 . S
C1847 C1846 1.502 . S
C1848 H1834 0.960 . S
C1848 H1835 0.961 1_554 S
C1848 H1836 0.959 . S
C1848 C1846 1.561 . S
C1849 C1846 1.526 . S
C1849 C1850 1.396 . S
C1849 C1854 1.390 1_554 S
C1850 C1844 1.465 . S
C1850 C1849 1.396 . S
C1850 C1851 1.399 . S
C1851 H1837 0.929 . S
C1851 C1850 1.399 . S
C1851 C1852 1.385 1_554 S
C1852 H1838 0.931 . S
C1852 C1851 1.385 1_556 S
C1852 C1853 1.389 . S
C1853 C1852 1.389 . S
C1853 C1854 1.387 . S
C1854 H1839 0.930 . S
C1854 C1849 1.390 1_556 S
C1854 C1853 1.387 . S
H1855 C1867 0.930 . S
H1856 C1869 0.930 . S
H1857 C1870 0.930 . S
H1858 C1874 0.959 . S
H1859 C1874 0.959 . S
H1860 C1874 0.961 . S
H1861 C1875 0.960 . S
H1862 C1875 0.961 . S
H1863 C1875 0.959 . S
H1864 C1878 0.929 . S
H1865 C1879 0.931 . S
H1866 C1881 0.930 . S
C1867 H1855 0.930 . S
C1867 C1868 1.399 . S
C1867 C1872 1.399 . S
C1868 C1867 1.399 . S
C1868 C1869 1.376 . S
C1869 H1856 0.930 . S
C1869 C1868 1.376 . S
C1869 C1870 1.388 . S
C1870 H1857 0.930 . S
C1870 C1869 1.388 . S
C1870 C1871 1.390 . S
C1871 C1870 1.390 . S
C1871 C1872 1.394 . S
C1871 C1877 1.465 . S
C1872 C1867 1.399 . S
C1872 C1871 1.394 . S
C1872 C1873 1.516 . S
C1873 C1872 1.516 . S
C1873 C1874 1.502 . S
C1873 C1875 1.561 . S
C1873 C1876 1.526 . S
C1874 H1858 0.959 . S
C1874 H1859 0.959 . S
C1874 H1860 0.961 . S
C1874 C1873 1.502 . S
C1875 H1861 0.960 . S
C1875 H1862 0.961 . S
C1875 H1863 0.959 . S
C1875 C1873 1.561 . S
C1876 C1873 1.526 . S
C1876 C1877 1.396 . S
C1876 C1881 1.390 . S
C1877 C1871 1.465 . S
C1877 C1876 1.396 . S
C1877 C1878 1.399 . S
C1878 H1864 0.929 . S
C1878 C1877 1.399 . S
C1878 C1879 1.385 . S
C1879 H1865 0.931 . S
C1879 C1878 1.385 . S
C1879 C1880 1.389 . S
C1880 C1879 1.389 . S
C1880 C1881 1.387 . S
C1881 H1866 0.930 . S
C1881 C1876 1.390 . S
C1881 C1880 1.387 . S
H1882 C1894 0.930 . S
H1883 C1896 0.930 . S
H1884 C1897 0.930 . S
H1885 C1901 0.959 . S
H1886 C1901 0.959 . S
H1887 C1901 0.961 . S
H1888 C1902 0.960 . S
H1889 C1902 0.961 . S
H1890 C1902 0.959 . S
H1891 C1905 0.929 . S
H1892 C1906 0.931 . S
H1893 C1908 0.930 . S
C1894 H1882 0.930 . S
C1894 C1895 1.399 . S
C1894 C1899 1.399 . S
C1895 C1894 1.399 . S
C1895 C1896 1.376 . S
C1896 H1883 0.930 . S
C1896 C1895 1.376 . S
C1896 C1897 1.388 . S
C1897 H1884 0.930 . S
C1897 C1896 1.388 . S
C1897 C1898 1.390 . S
C1898 C1897 1.390 . S
C1898 C1899 1.394 . S
C1898 C1904 1.465 . S
C1899 C1894 1.399 . S
C1899 C1898 1.394 . S
C1899 C1900 1.516 . S
C1900 C1899 1.516 . S
C1900 C1901 1.502 . S
C1900 C1902 1.561 . S
C1900 C1903 1.526 . S
C1901 H1885 0.959 . S
C1901 H1886 0.959 . S
C1901 H1887 0.961 . S
C1901 C1900 1.502 . S
C1902 H1888 0.960 . S
C1902 H1889 0.961 . S
C1902 H1890 0.959 . S
C1902 C1900 1.561 . S
C1903 C1900 1.526 . S
C1903 C1904 1.396 . S
C1903 C1908 1.390 . S
C1904 C1898 1.465 . S
C1904 C1903 1.396 . S
C1904 C1905 1.399 . S
C1905 H1891 0.929 . S
C1905 C1904 1.399 . S
C1905 C1906 1.385 . S
C1906 H1892 0.931 . S
C1906 C1905 1.385 . S
C1906 C1907 1.389 . S
C1907 C1906 1.389 . S
C1907 C1908 1.387 . S
C1908 H1893 0.930 . S
C1908 C1903 1.390 . S
C1908 C1907 1.387 . S
H1909 C1921 0.930 . S
H1910 C1923 0.930 . S
H1911 C1924 0.930 . S
H1912 C1928 0.959 . S
H1913 C1928 0.959 . S
H1914 C1928 0.961 . S
H1915 C1929 0.960 . S
H1916 C1929 0.961 . S
H1917 C1929 0.959 . S
H1918 C1932 0.929 . S
H1919 C1933 0.931 . S
H1920 C1935 0.930 . S
C1921 H1909 0.930 . S
C1921 C1922 1.399 . S
C1921 C1926 1.399 . S
C1922 C1921 1.399 . S
C1922 C1923 1.376 . S
C1923 H1910 0.930 . S
C1923 C1922 1.376 . S
C1923 C1924 1.388 . S
C1924 H1911 0.930 . S
C1924 C1923 1.388 . S
C1924 C1925 1.390 . S
C1925 C1924 1.390 . S
C1925 C1926 1.394 . S
C1925 C1931 1.465 . S
C1926 C1921 1.399 . S
C1926 C1925 1.394 . S
C1926 C1927 1.516 . S
C1927 C1926 1.516 . S
C1927 C1928 1.502 . S
C1927 C1929 1.561 . S
C1927 C1930 1.526 . S
C1928 H1912 0.959 . S
C1928 H1913 0.959 . S
C1928 H1914 0.961 . S
C1928 C1927 1.502 . S
C1929 H1915 0.960 . S
C1929 H1916 0.961 . S
C1929 H1917 0.959 . S
C1929 C1927 1.561 . S
C1930 C1927 1.526 . S
C1930 C1931 1.396 . S
C1930 C1935 1.390 . S
C1931 C1925 1.465 . S
C1931 C1930 1.396 . S
C1931 C1932 1.399 . S
C1932 H1918 0.929 . S
C1932 C1931 1.399 . S
C1932 C1933 1.385 . S
C1933 H1919 0.931 . S
C1933 C1932 1.385 . S
C1933 C1934 1.389 . S
C1934 C1933 1.389 . S
C1934 C1935 1.387 . S
C1935 H1920 0.930 . S
C1935 C1930 1.390 . S
C1935 C1934 1.387 . S
C653 C11 0.329 . S
C665 C287 0.322 . S
C680 C51 2.038 . S
C692 C167 2.035 . S
C707 C207 0.878 . S
C719 C87 0.733 . S
C734 C131 2.827 . S
C746 C251 2.753 . S
C761 C456 0.470 . S
C773 C162 0.318 . S
C788 C322 2.016 . S
C800 C16 2.038 . S
C815 C416 0.905 . S
C827 C256 0.784 . S
C842 C82 2.785 . S
C854 C362 2.831 . S
C869 C367 0.345 . S
C881 C491 0.441 . S
C896 C411 2.056 . S
C908 C567 2.044 . S
C923 C527 0.756 . S
C935 C327 0.906 . S
C950 C451 2.832 . S
C962 C611 2.771 1_554 S
C977 C562 0.449 . S
C989 C136 0.427 . S
C1004 C496 2.044 . S
C1016 C202 2.047 . S
C1031 C56 0.823 . S
C1043 C616 0.741 . S
C1058 C282 2.813 . S
C1070 C522 2.752 1_556 S
C1085 C530 0.327 . S
C1097 C19 0.304 . S
C1112 C459 0.702 . S
C1124 C59 0.658 . S
C1139 C499 0.482 . S
C1151 C90 0.494 . S
C1166 C419 0.587 . S
C1178 C139 0.764 . S
C1193 C170 0.571 . S
C1205 C619 0.607 1_655 S
C1220 C370 0.756 . S
C1232 C210 0.608 . S
C1247 C259 0.406 . S
C1259 C570 0.425 . S
C1274 C290 0.761 . S
C1286 C330 0.619 . S
C1301 C10 1.586 . S
C1313 C179 1.553 . S
C1328 C50 1.928 . S
C1340 C219 1.988 . S
C1355 C250 1.500 . S
C1367 C99 1.530 . S
C1382 C130 1.220 . S
C1394 C299 1.278 . S
C1409 C410 1.947 . S
C1421 C339 1.965 . S
C1436 C450 1.284 . S
C1448 C379 1.202 . S
C1463 C490 1.566 . S
C1475 C579 1.596 . S
C1490 C610 1.481 1_455 S
C1502 C539 1.543 . S
C1517 C7 2.796 . S
C1529 C291 2.845 . S
C1544 C47 0.883 . S
C1556 C171 0.996 . S
C1571 C211 3.612 1_556 S
C1583 C91 3.597 . S
C1598 C247 0.616 . S
C1610 C127 0.741 . S
C1625 C442 2.850 . S
C1637 C176 2.768 . S
C1652 C336 0.900 . S
C1664 C2 1.003 . S
C1679 C402 3.615 1_554 S
C1691 C242 3.584 . S
C1706 C96 0.553 . S
C1718 C376 0.740 . S
C1733 C487 2.764 . S
C1745 C371 2.843 . S
C1760 C571 0.961 . S
C1772 C407 0.982 . S
C1787 C531 3.585 1_655 S
C1799 C331 3.614 . S
C1814 C607 0.673 . S
C1826 C447 0.534 . S
C1841 C576 2.766 . S
C1853 C122 2.843 . S
C1868 C216 0.977 . S
C1880 C482 0.969 . S
C1895 C42 3.605 . S
C1907 C602 3.595 . S
C1922 C536 0.599 . S
C1934 C296 0.589 . S
