# Generated by pormake.
# Topology wjd, (6)-cn, num edge types: 1
# Building blocks:
#     Node 0, Type 0, BuildingBlock: JUFBIX_clean_sbu_0, # of connection points: 6
#     Node 1, Type 0, BuildingBlock: JUFBIX_clean_sbu_0, # of connection points: 6
#     Node 2, Type 0, BuildingBlock: JUFBIX_clean_sbu_0, # of connection points: 6
#     Node 3, Type 0, BuildingBlock: JUFBIX_clean_sbu_0, # of connection points: 6
#     Node 4, Type 0, BuildingBlock: JUFBIX_clean_sbu_0, # of connection points: 6
#     Node 5, Type 0, BuildingBlock: JUFBIX_clean_sbu_0, # of connection points: 6
#     Node 6, Type 0, BuildingBlock: JUFBIX_clean_sbu_0, # of connection points: 6
#     Node 7, Type 0, BuildingBlock: JUFBIX_clean_sbu_0, # of connection points: 6
#     Node 8, Type 0, BuildingBlock: JUFBIX_clean_sbu_0, # of connection points: 6
#     Node 9, Type 0, BuildingBlock: JUFBIX_clean_sbu_0, # of connection points: 6
#     Node 10, Type 0, BuildingBlock: JUFBIX_clean_sbu_0, # of connection points: 6
#     Node 11, Type 0, BuildingBlock: JUFBIX_clean_sbu_0, # of connection points: 6
#     Edge 12, Type (0, 0), BuildingBlock: XUDNAN_clean_linker_2, # of connection points: 2
#     Edge 13, Type (0, 0), BuildingBlock: XUDNAN_clean_linker_2, # of connection points: 2
#     Edge 14, Type (0, 0), BuildingBlock: XUDNAN_clean_linker_2, # of connection points: 2
#     Edge 15, Type (0, 0), BuildingBlock: XUDNAN_clean_linker_2, # of connection points: 2
#     Edge 16, Type (0, 0), BuildingBlock: XUDNAN_clean_linker_2, # of connection points: 2
#     Edge 17, Type (0, 0), BuildingBlock: XUDNAN_clean_linker_2, # of connection points: 2
#     Edge 18, Type (0, 0), BuildingBlock: XUDNAN_clean_linker_2, # of connection points: 2
#     Edge 19, Type (0, 0), BuildingBlock: XUDNAN_clean_linker_2, # of connection points: 2
#     Edge 20, Type (0, 0), BuildingBlock: XUDNAN_clean_linker_2, # of connection points: 2
#     Edge 21, Type (0, 0), BuildingBlock: XUDNAN_clean_linker_2, # of connection points: 2
#     Edge 22, Type (0, 0), BuildingBlock: XUDNAN_clean_linker_2, # of connection points: 2
#     Edge 23, Type (0, 0), BuildingBlock: XUDNAN_clean_linker_2, # of connection points: 2
#     Edge 24, Type (0, 0), BuildingBlock: XUDNAN_clean_linker_2, # of connection points: 2
#     Edge 25, Type (0, 0), BuildingBlock: XUDNAN_clean_linker_2, # of connection points: 2
#     Edge 26, Type (0, 0), BuildingBlock: XUDNAN_clean_linker_2, # of connection points: 2
#     Edge 27, Type (0, 0), BuildingBlock: XUDNAN_clean_linker_2, # of connection points: 2
#     Edge 28, Type (0, 0), BuildingBlock: XUDNAN_clean_linker_2, # of connection points: 2
#     Edge 29, Type (0, 0), BuildingBlock: XUDNAN_clean_linker_2, # of connection points: 2
#     Edge 30, Type (0, 0), BuildingBlock: XUDNAN_clean_linker_2, # of connection points: 2
#     Edge 31, Type (0, 0), BuildingBlock: XUDNAN_clean_linker_2, # of connection points: 2
#     Edge 32, Type (0, 0), BuildingBlock: XUDNAN_clean_linker_2, # of connection points: 2
#     Edge 33, Type (0, 0), BuildingBlock: XUDNAN_clean_linker_2, # of connection points: 2
#     Edge 34, Type (0, 0), BuildingBlock: XUDNAN_clean_linker_2, # of connection points: 2
#     Edge 35, Type (0, 0), BuildingBlock: XUDNAN_clean_linker_2, # of connection points: 2
#     Edge 36, Type (0, 0), BuildingBlock: XUDNAN_clean_linker_2, # of connection points: 2
#     Edge 37, Type (0, 0), BuildingBlock: XUDNAN_clean_linker_2, # of connection points: 2
#     Edge 38, Type (0, 0), BuildingBlock: XUDNAN_clean_linker_2, # of connection points: 2
#     Edge 39, Type (0, 0), BuildingBlock: XUDNAN_clean_linker_2, # of connection points: 2
#     Edge 40, Type (0, 0), BuildingBlock: XUDNAN_clean_linker_2, # of connection points: 2
#     Edge 41, Type (0, 0), BuildingBlock: XUDNAN_clean_linker_2, # of connection points: 2
#     Edge 42, Type (0, 0), BuildingBlock: XUDNAN_clean_linker_2, # of connection points: 2
#     Edge 43, Type (0, 0), BuildingBlock: XUDNAN_clean_linker_2, # of connection points: 2
#     Edge 44, Type (0, 0), BuildingBlock: XUDNAN_clean_linker_2, # of connection points: 2
#     Edge 45, Type (0, 0), BuildingBlock: XUDNAN_clean_linker_2, # of connection points: 2
#     Edge 46, Type (0, 0), BuildingBlock: XUDNAN_clean_linker_2, # of connection points: 2
#     Edge 47, Type (0, 0), BuildingBlock: XUDNAN_clean_linker_2, # of connection points: 2
# Relax obj value: 0.304
# Max RMSD: 0.239
# Mean RMSD: 0.238
data_MOF--net-wjd--node1-JUFBIX_clean_sbu_0--edge1-XUDNAN_clean_linker_2
_symmetry_space_group_name_H-M    P1
_symmetry_Int_Tables_number       1
_symmetry_cell_setting            triclinic
loop_
_symmetry_equiv_pos_as_xyz
'x, y, z'
_cell_length_a     32.973553
_cell_length_b     32.995423
_cell_length_c     55.534394
_cell_angle_alpha  90.501352
_cell_angle_beta   89.631832
_cell_angle_gamma 119.39734
loop_
_atom_site_label
_atom_site_type_symbol
_atom_site_fract_x
_atom_site_fract_y
_atom_site_fract_z
_atom_type_partial_charge
Co0 Co 0.33533 0.14148 0.14296 0.0
C1 C 0.37916 0.14035 0.18654 0.0
Co2 Co 0.38121 0.11026 0.14082 0.0
C3 C 0.26204 0.16882 0.13834 0.0
C4 C 0.31922 0.21154 0.16148 0.0
N5 N 0.30164 0.17266 0.14766 0.0
N6 N 0.25528 0.20431 0.14572 0.0
C7 C 0.29104 0.23086 0.16032 0.0
H8 H 0.23985 0.14194 0.12571 0.0
H9 H 0.35176 0.22622 0.1712 0.0
C10 C 0.33503 0.10785 0.09772 0.0
N11 N 0.41862 0.08332 0.13643 0.0
C12 C 0.46533 0.10648 0.13845 0.0
C13 C 0.40883 0.04409 0.12414 0.0
N14 N 0.48539 0.08489 0.12683 0.0
C15 C 0.45001 0.04501 0.11818 0.0
C16 C 0.2885 0.04782 0.15099 0.0
O17 O 0.31818 0.12932 0.10973 0.0
O18 O 0.36425 0.09887 0.10774 0.0
O19 O 0.32854 0.05134 0.14825 0.0
O20 O 0.28429 0.08412 0.15037 0.0
O21 O 0.39791 0.12132 0.17419 0.0
H22 H 0.3746 0.01912 0.11763 0.0
H23 H 0.48477 0.14098 0.14621 0.0
O24 O 0.35167 0.15125 0.17625 0.0
O25 O 0.38664 0.19921 0.13511 0.0
O26 O 0.43274 0.16957 0.13307 0.0
C27 C 0.42685 0.2046 0.13167 0.0
H28 H 0.29667 0.26247 0.1693 0.0
H29 H 0.45377 0.02099 0.1062 0.0
Co30 Co 0.76913 0.68724 0.40086 0.0
C31 C 0.78179 0.63485 0.36639 0.0
Co32 Co 0.79005 0.63979 0.41717 0.0
C33 C 0.78271 0.77673 0.39027 0.0
C34 C 0.72096 0.72475 0.37301 0.0
N35 N 0.75541 0.73039 0.38803 0.0
N36 N 0.76753 0.80035 0.37696 0.0
C37 C 0.72825 0.76802 0.36624 0.0
H38 H 0.81386 0.79311 0.40119 0.0
H39 H 0.69345 0.69148 0.3667 0.0
C40 C 0.77657 0.69468 0.45104 0.0
N41 N 0.80489 0.59686 0.42965 0.0
C42 C 0.83217 0.58147 0.41946 0.0
C43 C 0.78678 0.57046 0.44941 0.0
N44 N 0.83121 0.54597 0.43181 0.0
C45 C 0.80279 0.53907 0.45075 0.0
C46 C 0.86592 0.72275 0.40624 0.0
O47 O 0.76936 0.71101 0.43196 0.0
O48 O 0.7855 0.66123 0.4494 0.0
O49 O 0.85323 0.68404 0.41625 0.0
O50 O 0.83518 0.73105 0.39752 0.0
O51 O 0.79411 0.61959 0.38435 0.0
H52 H 0.76196 0.57254 0.46147 0.0
H53 H 0.8503 0.59429 0.40253 0.0
O54 O 0.76863 0.66452 0.36998 0.0
O55 O 0.70375 0.64216 0.40415 0.0
O56 O 0.72699 0.5952 0.4185 0.0
C57 C 0.69416 0.60254 0.41247 0.0
H58 H 0.70762 0.77515 0.35366 0.0
H59 H 0.79312 0.51234 0.46421 0.0
Co60 Co 0.88154 0.17474 0.11778 0.0
C61 C 0.86633 0.20558 0.1616 0.0
Co62 Co 0.90634 0.25051 0.11831 0.0
C63 C 0.85378 0.08084 0.13381 0.0
C64 C 0.84288 0.08463 0.09616 0.0
N65 N 0.86006 0.1112 0.11609 0.0
N66 N 0.83311 0.03634 0.1257 0.0
C67 C 0.82662 0.03889 0.10194 0.0
H68 H 0.8629 0.09112 0.1524 0.0
H69 H 0.84117 0.09749 0.07856 0.0
C70 C 0.92499 0.22086 0.07504 0.0
N71 N 0.92542 0.31395 0.11926 0.0
C72 C 0.8974 0.33248 0.12323 0.0
C73 C 0.9671 0.35059 0.11358 0.0
N74 N 0.91936 0.37892 0.11977 0.0
C75 C 0.9635 0.39061 0.11395 0.0
C76 C 0.97291 0.22682 0.13178 0.0
O77 O 0.90379 0.18151 0.08533 0.0
O78 O 0.92837 0.25639 0.08598 0.0
O79 O 0.96585 0.26128 0.1292 0.0
O80 O 0.93979 0.18575 0.12822 0.0
O81 O 0.88489 0.24455 0.1509 0.0
H82 H 0.99751 0.34812 0.10843 0.0
H83 H 0.86098 0.31195 0.12796 0.0
O84 O 0.86124 0.16959 0.15043 0.0
O85 O 0.82275 0.16337 0.10734 0.0
O86 O 0.8467 0.23798 0.1072 0.0
C87 C 0.81433 0.19644 0.10406 0.0
H88 H 0.81121 0.00987 0.08947 0.0
H89 H 0.99055 0.42511 0.10902 0.0
Co90 Co 0.30359 0.08644 0.39446 0.0
C91 C 0.35467 0.15161 0.36102 0.0
Co92 Co 0.35613 0.1513 0.41213 0.0
C93 C 0.21637 0.002 0.39257 0.0
C94 C 0.25376 0.01125 0.35964 0.0
N95 N 0.25709 0.03065 0.38159 0.0
N96 N 0.18799 0.96571 0.37856 0.0
C97 C 0.21104 0.97122 0.3577 0.0
H98 H 0.20701 0.00798 0.41041 0.0
H99 H 0.28042 0.02538 0.34588 0.0
C100 C 0.30439 0.08312 0.44537 0.0
N101 N 0.40145 0.20732 0.425 0.0
C102 C 0.41449 0.25072 0.41721 0.0
C103 C 0.43022 0.21337 0.44342 0.0
N104 N 0.45066 0.28396 0.42992 0.0
C105 C 0.46037 0.26014 0.44648 0.0
C106 C 0.27211 0.14913 0.4047 0.0
O107 O 0.28717 0.06114 0.42588 0.0
O108 O 0.33617 0.1256 0.44429 0.0
O109 O 0.3132 0.17379 0.41265 0.0
O110 O 0.25967 0.1086 0.39648 0.0
O111 O 0.37613 0.17538 0.37959 0.0
H112 H 0.42997 0.18546 0.45362 0.0
H113 H 0.39791 0.25734 0.4022 0.0
O114 O 0.31994 0.11145 0.36368 0.0
O115 O 0.34944 0.06583 0.39185 0.0
O116 O 0.39849 0.12916 0.41149 0.0
C117 C 0.38967 0.09145 0.40099 0.0
H118 H 0.1983 0.94762 0.34246 0.0
H119 H 0.48803 0.27488 0.45962 0.0
Co120 Co 0.83872 0.69908 0.15059 0.0
C121 C 0.79678 0.64556 0.19165 0.0
Co122 Co 0.76349 0.65268 0.14722 0.0
C123 C 0.93913 0.75722 0.1435 0.0
C124 C 0.91395 0.76541 0.17789 0.0
N125 N 0.89994 0.74191 0.1568 0.0
N126 N 0.97658 0.78926 0.15568 0.0
C127 C 0.96095 0.7947 0.17717 0.0
H128 H 0.94004 0.74602 0.12522 0.0
H129 H 0.89122 0.76186 0.19281 0.0
C130 C 0.80409 0.70769 0.10647 0.0
N131 N 0.70209 0.60889 0.14231 0.0
C132 C 0.68471 0.56314 0.14622 0.0
C133 C 0.66842 0.61219 0.1303 0.0
N134 N 0.64231 0.53731 0.13641 0.0
C135 C 0.63141 0.56801 0.12666 0.0
C136 C 0.7803 0.73563 0.16465 0.0
O137 O 0.84141 0.72493 0.11892 0.0
O138 O 0.76733 0.67396 0.11512 0.0
O139 O 0.74646 0.69729 0.15757 0.0
O140 O 0.82129 0.74161 0.16366 0.0
O141 O 0.75938 0.632 0.17985 0.0
H142 H 0.67191 0.64415 0.12316 0.0
H143 H 0.70412 0.54887 0.15496 0.0
O144 O 0.8352 0.67351 0.1818 0.0
O145 O 0.85635 0.65647 0.13769 0.0
O146 O 0.78141 0.60821 0.13646 0.0
C147 C 0.82286 0.61599 0.13337 0.0
H148 H 0.9821 0.81888 0.19112 0.0
H149 H 0.60057 0.55907 0.11615 0.0
Co150 Co 0.91943 0.22886 0.37677 0.0
C151 C 0.85913 0.20662 0.33804 0.0
Co152 Co 0.84503 0.19628 0.3877 0.0
C153 C 0.01241 0.24481 0.38017 0.0
C154 C 1.00387 0.27222 0.34702 0.0
N155 N 0.98168 0.25257 0.36783 0.0
N156 N 0.05236 0.25848 0.36803 0.0
C157 C 0.04738 0.27553 0.34704 0.0
H158 H 0.00472 0.2266 0.39715 0.0
H159 H 0.98864 0.28134 0.33229 0.0
C160 C 0.90758 0.2192 0.42599 0.0
N161 N 0.78263 0.16885 0.39756 0.0
C162 C 0.74483 0.16722 0.38705 0.0
C163 C 0.76573 0.14325 0.41774 0.0
N164 N 0.70561 0.14227 0.40017 0.0
C165 C 0.71883 0.12737 0.41947 0.0
C166 C 0.87324 0.13207 0.37904 0.0
O167 O 0.9371 0.23454 0.40916 0.0
O168 O 0.86448 0.20001 0.42102 0.0
O169 O 0.83859 0.13693 0.38469 0.0
O170 O 0.91245 0.16793 0.3753 0.0
O171 O 0.82762 0.19353 0.35424 0.0
H172 H 0.78593 0.13556 0.43028 0.0
H173 H 0.74598 0.18398 0.37019 0.0
O174 O 0.90134 0.22294 0.34425 0.0
O175 O 0.92509 0.2898 0.37857 0.0
O176 O 0.85192 0.25579 0.39067 0.0
C177 C 0.8898 0.29272 0.38598 0.0
H178 H 0.07278 0.28829 0.33261 0.0
H179 H 0.69586 0.10541 0.43354 0.0
Co180 Co 0.09402 0.36092 0.61918 0.0
C181 C 0.08577 0.31881 0.57578 0.0
Co182 Co 0.12535 0.31514 0.62041 0.0
C183 C 0.09645 0.44627 0.62889 0.0
C184 C 0.03537 0.40232 0.6086 0.0
N185 N 0.07124 0.40254 0.62025 0.0
N186 N 0.07937 0.4742 0.6223 0.0
C187 C 0.04029 0.44644 0.60985 0.0
H188 H 0.12898 0.45829 0.63837 0.0
H189 H 0.00976 0.37333 0.59812 0.0
C190 C 0.13 0.35555 0.66427 0.0
N191 N 0.15204 0.27709 0.6183 0.0
C192 C 0.1537 0.24628 0.63361 0.0
C193 C 0.17883 0.27885 0.59947 0.0
N194 N 0.18071 0.22893 0.62494 0.0
C195 C 0.19649 0.24974 0.60348 0.0
C196 C 0.1894 0.40592 0.6092 0.0
O197 O 0.1093 0.37249 0.65221 0.0
O198 O 0.14161 0.32817 0.65387 0.0
O199 O 0.18352 0.36545 0.61202 0.0
O200 O 0.15436 0.41201 0.61091 0.0
O201 O 0.10718 0.30165 0.58713 0.0
H202 H 0.18622 0.30106 0.58398 0.0
H203 H 0.13576 0.23723 0.65075 0.0
O204 O 0.07814 0.34871 0.58629 0.0
O205 O 0.03406 0.30866 0.6274 0.0
O206 O 0.06778 0.26524 0.62908 0.0
C207 C 0.03139 0.26917 0.63093 0.0
H208 H 0.01916 0.45805 0.6005 0.0
H209 H 0.22033 0.24557 0.59163 0.0
Co210 Co 0.17658 0.8624 0.91297 0.0
C211 C 0.20051 0.84924 0.8667 0.0
Co212 Co 0.2515 0.88605 0.90906 0.0
C213 C 0.07969 0.83252 0.9017 0.0
C214 C 0.09103 0.82402 0.93876 0.0
N215 N 0.11353 0.84037 0.91767 0.0
N216 N 0.03698 0.81174 0.91204 0.0
C217 C 0.0443 0.8068 0.93542 0.0
H218 H 0.08622 0.84068 0.88277 0.0
H219 H 0.10737 0.82354 0.9555 0.0
C220 C 0.22834 0.90436 0.95446 0.0
N221 N 0.31482 0.9061 0.90549 0.0
C222 C 0.33906 0.88749 0.91573 0.0
C223 C 0.34687 0.94278 0.89286 0.0
N224 N 0.38465 0.91115 0.91009 0.0
C225 C 0.38992 0.94621 0.89586 0.0
C226 C 0.2261 0.95357 0.89947 0.0
O227 O 0.18834 0.88585 0.94487 0.0
O228 O 0.2618 0.90498 0.94257 0.0
O229 O 0.26066 0.94652 0.90138 0.0
O230 O 0.18516 0.9201 0.90281 0.0
O231 O 0.24141 0.86901 0.87553 0.0
H232 H 0.33961 0.96584 0.8823 0.0
H233 H 0.32401 0.85794 0.92771 0.0
O234 O 0.16621 0.84066 0.88046 0.0
O235 O 0.1674 0.80471 0.92339 0.0
O236 O 0.24019 0.82448 0.91674 0.0
C237 C 0.19944 0.79419 0.92313 0.0
H238 H 0.01793 0.792 0.9493 0.0
H239 H 0.42254 0.9723 0.88816 0.0
Co240 Co 0.63959 0.73781 0.64819 0.0
C241 C 0.69232 0.77944 0.60665 0.0
Co242 Co 0.69213 0.81209 0.65269 0.0
C243 C 0.54597 0.66248 0.6431 0.0
C244 C 0.59559 0.64258 0.63128 0.0
N245 N 0.59214 0.67764 0.64195 0.0
N246 N 0.52044 0.61997 0.63303 0.0
C247 C 0.55158 0.60705 0.62584 0.0
H248 H 0.5314 0.68314 0.65031 0.0
H249 H 0.62805 0.64397 0.62636 0.0
C250 C 0.64123 0.76848 0.69462 0.0
N251 N 0.73944 0.87221 0.65926 0.0
C252 C 0.75476 0.91306 0.6476 0.0
C253 C 0.76698 0.88294 0.67881 0.0
N254 N 0.79106 0.94852 0.65915 0.0
C255 C 0.79853 0.92948 0.67879 0.0
C256 C 0.6087 0.80336 0.64016 0.0
O257 O 0.62018 0.73309 0.68094 0.0
O258 O 0.67341 0.80608 0.68581 0.0
O259 O 0.64994 0.83433 0.64546 0.0
O260 O 0.59878 0.76097 0.63971 0.0
O261 O 0.71084 0.81666 0.61933 0.0
H262 H 0.7643 0.85832 0.69233 0.0
H263 H 0.74018 0.91654 0.63084 0.0
O264 O 0.65979 0.74243 0.61574 0.0
O265 O 0.68126 0.71573 0.65657 0.0
O266 O 0.73373 0.78958 0.65987 0.0
C267 C 0.72288 0.74702 0.66078 0.0
H268 H 0.54345 0.57557 0.61593 0.0
H269 H 0.82481 0.94799 0.69236 0.0
Co270 Co 0.14714 0.31798 0.88299 0.0
C271 C 0.13877 0.36106 0.84092 0.0
Co272 Co 0.11606 0.36362 0.88806 0.0
C273 C 0.17549 0.24592 0.88604 0.0
C274 C 0.21499 0.30127 0.86143 0.0
N275 N 0.17824 0.28489 0.87663 0.0
N276 N 0.20958 0.23817 0.87737 0.0
C277 C 0.23413 0.27279 0.86183 0.0
H278 H 0.15044 0.2249 0.89964 0.0
H279 H 0.2283 0.33309 0.85125 0.0
C280 C 0.12018 0.31866 0.92985 0.0
N281 N 0.08811 0.39988 0.89447 0.0
C282 C 0.10902 0.44685 0.89514 0.0
C283 C 0.04542 0.38552 0.90389 0.0
N284 N 0.08171 0.46233 0.90515 0.0
C285 C 0.04136 0.42369 0.91041 0.0
C286 C 0.05321 0.27001 0.8792 0.0
O287 O 0.13866 0.30062 0.91636 0.0
O288 O 0.11106 0.34871 0.92109 0.0
O289 O 0.05732 0.30994 0.88317 0.0
O290 O 0.08939 0.26597 0.87667 0.0
O291 O 0.1204 0.37813 0.85496 0.0
H292 H 0.0199 0.34971 0.90734 0.0
H293 H 0.14488 0.46943 0.89002 0.0
O294 O 0.15311 0.33482 0.84955 0.0
O295 O 0.20544 0.37015 0.88994 0.0
O296 O 0.17509 0.41577 0.89314 0.0
C297 C 0.21036 0.41019 0.89354 0.0
H298 H 0.26428 0.27751 0.85168 0.0
H299 H 0.01169 0.42283 0.91934 0.0
Co300 Co 0.2537 0.90488 0.6471 0.0
C301 C 0.22889 0.91908 0.60154 0.0
Co302 Co 0.17794 0.8798 0.64402 0.0
C303 C 0.33328 0.89076 0.65157 0.0
C304 C 0.35441 0.96215 0.64516 0.0
N305 N 0.31643 0.92054 0.64937 0.0
N306 N 0.37987 0.91165 0.64829 0.0
C307 C 0.3934 0.95682 0.64457 0.0
H308 H 0.31153 0.85386 0.65455 0.0
H309 H 0.35357 0.99379 0.64125 0.0
C310 C 0.20255 0.86763 0.6898 0.0
N311 N 0.11598 0.86445 0.64065 0.0
C312 C 0.07647 0.82892 0.64979 0.0
C313 C 0.1015 0.88852 0.62699 0.0
N314 N 0.03812 0.82973 0.64196 0.0
C315 C 0.05388 0.86722 0.62767 0.0
C316 C 0.19657 0.81024 0.63337 0.0
O317 O 0.24317 0.88546 0.68045 0.0
O318 O 0.16846 0.86191 0.67678 0.0
O319 O 0.16318 0.81886 0.63508 0.0
O320 O 0.23788 0.84286 0.63724 0.0
O321 O 0.18868 0.89838 0.6111 0.0
H322 H 0.12421 0.91983 0.61718 0.0
H323 H 0.0758 0.80278 0.66169 0.0
O324 O 0.26375 0.9252 0.61398 0.0
O325 O 0.26758 0.9659 0.65669 0.0
O326 O 0.19252 0.94065 0.65319 0.0
C327 C 0.23316 0.97314 0.65808 0.0
H328 H 0.42841 0.98345 0.64005 0.0
H329 H 0.03246 0.87902 0.61877 0.0
Co330 Co 0.70117 0.8302 0.91134 0.0
C331 C 0.64602 0.78631 0.87104 0.0
Co332 Co 0.6515 0.75634 0.91692 0.0
C333 C 0.78201 0.92434 0.91417 0.0
C334 C 0.72322 0.91835 0.89481 0.0
N335 N 0.73907 0.89297 0.90637 0.0
N336 N 0.79258 0.96787 0.90797 0.0
C337 C 0.75595 0.9642 0.89578 0.0
H338 H 0.804 0.9158 0.92493 0.0
H339 H 0.68896 0.90462 0.88701 0.0
C340 C 0.70841 0.79715 0.95666 0.0
N341 N 0.60933 0.69422 0.9206 0.0
C342 C 0.56466 0.67746 0.91434 0.0
C343 C 0.61275 0.65651 0.9266 0.0
N344 N 0.5396 0.63092 0.91565 0.0
C345 C 0.56958 0.61726 0.92364 0.0
C346 C 0.73709 0.77483 0.89764 0.0
O347 O 0.72621 0.83344 0.94342 0.0
O348 O 0.67354 0.76021 0.94879 0.0
O349 O 0.69848 0.74214 0.90551 0.0
O350 O 0.74532 0.81662 0.89855 0.0
O351 O 0.62983 0.75153 0.88484 0.0
H352 H 0.64461 0.65735 0.93201 0.0
H353 H 0.55109 0.69952 0.90842 0.0
O354 O 0.67692 0.82526 0.87922 0.0
O355 O 0.65704 0.84477 0.92408 0.0
O356 O 0.6049 0.772 0.92822 0.0
C357 C 0.6162 0.81461 0.92984 0.0
H358 H 0.75285 0.99299 0.88861 0.0
H359 H 0.56145 0.58165 0.92646 0.0
H360 H 0.99692 0.16003 0.14058 0.0
H361 H 0.05566 0.30888 0.13065 0.0
H362 H 0.13471 0.31806 0.13087 0.0
H363 H 0.08699 0.1664 0.18029 0.0
H364 H 0.08498 0.11503 0.16751 0.0
H365 H 0.03356 0.12103 0.16759 0.0
H366 H 0.02703 0.10813 0.12137 0.0
H367 H 0.07903 0.10313 0.12107 0.0
H368 H 0.07541 0.14565 0.10239 0.0
H369 H 0.20643 0.31056 0.13044 0.0
H370 H 0.26756 0.28843 0.13413 0.0
H371 H 0.16231 0.14435 0.14395 0.0
C372 C 0.02639 0.19472 0.13879 0.0
C373 C 0.02017 0.23383 0.13563 0.0
C374 C 0.05963 0.27853 0.13328 0.0
C375 C 0.10459 0.28399 0.13317 0.0
C376 C 0.10928 0.24444 0.13548 0.0
C377 C 0.07134 0.20077 0.1386 0.0
C378 C 0.08589 0.16394 0.14079 0.0
C379 C 0.07205 0.14022 0.16552 0.0
C380 C 0.06563 0.12811 0.12017 0.0
C381 C 0.13814 0.19376 0.1384 0.0
C382 C 0.15075 0.24004 0.13519 0.0
C383 C 0.197 0.27451 0.13301 0.0
C384 C 0.23137 0.26163 0.13506 0.0
C385 C 0.21939 0.21477 0.13928 0.0
C386 C 0.17216 0.18022 0.14033 0.0
H387 H 0.10565 0.93094 0.35475 0.0
H388 H 0.17112 0.91583 0.41881 0.0
H389 H 0.09535 0.8518 0.43263 0.0
H390 H 1.00015 0.91201 0.38501 0.0
H391 H 0.96223 0.88083 0.36025 0.0
H392 H 0.02189 0.92398 0.35455 0.0
H393 H 0.03483 0.86292 0.33119 0.0
H394 H 0.97514 0.81967 0.3367 0.0
H395 H 0.02155 0.80904 0.34562 0.0
H396 H 0.01444 0.78886 0.43891 0.0
H397 H 0.9305 0.7326 0.439 0.0
H398 H 0.91404 0.79139 0.37258 0.0
C399 C 0.10374 0.91358 0.37151 0.0
C400 C 0.14394 0.92753 0.38569 0.0
C401 C 0.1405 0.90515 0.40779 0.0
C402 C 0.09776 0.8689 0.41572 0.0
C403 C 0.05862 0.85606 0.4015 0.0
C404 C 0.0609 0.8779 0.38 0.0
C405 C 0.01288 0.85836 0.36885 0.0
C406 C 0.99845 0.89604 0.36707 0.0
C407 C 0.01101 0.83617 0.34412 0.0
C408 C 0.98353 0.82182 0.38732 0.0
C409 C 0.01091 0.821 0.40585 0.0
C410 C 0.99252 0.78935 0.42462 0.0
C411 C 0.94484 0.75747 0.42447 0.0
C412 C 0.91584 0.75784 0.40587 0.0
C413 C 0.93539 0.79075 0.38715 0.0
H414 H 0.76928 0.94745 0.11323 0.0
H415 H 0.86798 0.02977 0.16897 0.0
H416 H 0.85037 0.95787 0.19035 0.0
H417 H 0.68553 0.85032 0.15214 0.0
H418 H 0.67607 0.80751 0.12925 0.0
H419 H 0.68929 0.86536 0.12077 0.0
H420 H 0.7593 0.87421 0.09517 0.0
H421 H 0.74579 0.81638 0.10331 0.0
H422 H 0.80305 0.86455 0.10911 0.0
H423 H 0.83354 0.87844 0.20159 0.0
H424 H 0.82128 0.79836 0.20072 0.0
H425 H 0.73254 0.76678 0.13832 0.0
C426 C 0.78689 0.95066 0.13007 0.0
C427 C 0.8201 0.99463 0.13934 0.0
C428 C 0.84194 0.99679 0.16158 0.0
C429 C 0.83209 0.95602 0.1739 0.0
C430 C 0.79999 0.91329 0.16392 0.0
C431 C 0.77764 0.91037 0.14249 0.0
C432 C 0.74907 0.8604 0.134 0.0
C433 C 0.69689 0.845 0.13405 0.0
C434 C 0.7653 0.85351 0.10894 0.0
C435 C 0.76064 0.83577 0.1534 0.0
C436 C 0.78937 0.86684 0.17076 0.0
C437 C 0.80992 0.85353 0.1886 0.0
C438 C 0.80264 0.80798 0.18806 0.0
C439 C 0.77484 0.77634 0.16991 0.0
C440 C 0.75207 0.7898 0.15302 0.0
H441 H 0.20344 0.13065 0.37167 0.0
H442 H 0.27106 0.21386 0.43504 0.0
H443 H 0.22268 0.25182 0.43206 0.0
H444 H 0.19917 0.22207 0.33951 0.0
H445 H 0.14346 0.18481 0.32581 0.0
H446 H 0.18099 0.16169 0.33373 0.0
H447 H 0.11521 0.09815 0.3596 0.0
H448 H 0.0773 0.12074 0.35156 0.0
H449 H 0.08789 0.11505 0.38282 0.0
H450 H 0.16601 0.27954 0.42275 0.0
H451 H 0.10639 0.29718 0.40666 0.0
H452 H 0.08009 0.20137 0.3475 0.0
C453 C 0.20745 0.15633 0.38512 0.0
C454 C 0.24051 0.16895 0.4038 0.0
C455 C 0.2457 0.20354 0.4207 0.0
C456 C 0.21843 0.22529 0.41913 0.0
C457 C 0.18667 0.21264 0.4003 0.0
C458 C 0.18117 0.17916 0.38351 0.0
C459 C 0.14596 0.17353 0.36445 0.0
C460 C 0.16877 0.18629 0.33939 0.0
C461 C 0.10411 0.12392 0.36463 0.0
C462 C 0.13231 0.20885 0.37325 0.0
C463 C 0.15597 0.23072 0.39409 0.0
C464 C 0.14775 0.26313 0.40627 0.0
C465 C 0.11415 0.2731 0.39704 0.0
C466 C 0.08993 0.25148 0.37566 0.0
C467 C 0.09933 0.21923 0.36351 0.0
H468 H 0.19938 0.03099 0.1493 0.0
H469 H 0.28159 0.96105 0.15233 0.0
H470 H 0.20932 0.88492 0.14854 0.0
H471 H 0.10399 0.95087 0.18353 0.0
H472 H 0.06188 0.95684 0.16558 0.0
H473 H 0.12037 0.00444 0.16792 0.0
H474 H 0.12721 0.00628 0.12133 0.0
H475 H 0.069 0.95778 0.11888 0.0
H476 H 0.11703 0.9545 0.10518 0.0
H477 H 0.12647 0.8163 0.14627 0.0
H478 H 0.04114 0.76253 0.14935 0.0
H479 H 0.01659 0.87941 0.14608 0.0
C480 C 0.20246 0.99978 0.14935 0.0
C481 C 0.24607 0.00189 0.15132 0.0
C482 C 0.24839 0.96014 0.15105 0.0
C483 C 0.20765 0.91686 0.14866 0.0
C484 C 0.16526 0.91626 0.14623 0.0
C485 C 0.1626 0.95677 0.14667 0.0
C486 C 0.11317 0.94736 0.14451 0.0
C487 C 0.09903 0.96594 0.16671 0.0
C488 C 0.10622 0.96769 0.12108 0.0
C489 C 0.08792 0.89494 0.14365 0.0
C490 C 0.11837 0.8774 0.14425 0.0
C491 C 0.1024 0.82965 0.14536 0.0
C492 C 0.05415 0.79939 0.14687 0.0
C493 C 0.02311 0.81734 0.14734 0.0
C494 C 0.0401 0.86532 0.14499 0.0
H495 H 0.7286 0.85567 0.37468 0.0
H496 H 0.86027 0.85628 0.37257 0.0
H497 H 0.90235 0.9421 0.37053 0.0
H498 H 0.76219 0.95596 0.33476 0.0
H499 H 0.73026 0.97731 0.35223 0.0
H500 H 0.71059 0.91583 0.351 0.0
H501 H 0.71261 0.91386 0.39764 0.0
H502 H 0.73259 0.97532 0.39898 0.0
H503 H 0.76583 0.95222 0.41323 0.0
H504 H 0.93007 0.02782 0.37093 0.0
H505 H 0.94132 0.10751 0.37449 0.0
H506 H 0.7914 0.05032 0.37766 0.0
C507 C 0.76619 0.87402 0.37325 0.0
C508 C 0.79132 0.84975 0.37371 0.0
C509 C 0.84057 0.87459 0.37238 0.0
C510 C 0.86469 0.92319 0.37109 0.0
C511 C 0.83897 0.94629 0.37122 0.0
C512 C 0.79082 0.92258 0.37225 0.0
C513 C 0.77168 0.9558 0.37382 0.0
C514 C 0.74193 0.95093 0.35163 0.0
C515 C 0.74406 0.94888 0.39732 0.0
C516 C 0.81655 0.00175 0.37387 0.0
C517 C 0.85499 0.99563 0.37207 0.0
C518 C 0.90024 0.03313 0.37221 0.0
C519 C 0.9063 0.07817 0.37427 0.0
C520 C 0.86727 0.085 0.37643 0.0
C521 C 0.82195 0.04621 0.37612 0.0
H522 H 0.25877 0.0375 0.62376 0.0
H523 H 0.21524 0.00968 0.69821 0.0
H524 H 0.20443 0.07899 0.6993 0.0
H525 H 0.31474 0.168 0.62553 0.0
H526 H 0.29146 0.16864 0.59634 0.0
H527 H 0.30607 0.12415 0.6034 0.0
H528 H 0.22249 0.06109 0.59216 0.0
H529 H 0.20704 0.10497 0.58555 0.0
H530 H 0.17362 0.06049 0.60726 0.0
H531 H 0.18806 0.14484 0.69016 0.0
H532 H 0.16916 0.20173 0.67215 0.0
H533 H 0.21712 0.17994 0.6027 0.0
C534 C 0.24948 0.04772 0.64061 0.0
C535 C 0.23971 0.01997 0.66122 0.0
C536 C 0.22455 0.03198 0.6826 0.0
C537 C 0.21805 0.07098 0.68327 0.0
C538 C 0.22625 0.09686 0.66228 0.0
C539 C 0.24193 0.0858 0.64137 0.0
C540 C 0.2418 0.11451 0.62036 0.0
C541 C 0.29148 0.14569 0.61086 0.0
C542 C 0.2093 0.0834 0.60017 0.0
C543 C 0.22276 0.14284 0.63254 0.0
C544 C 0.21456 0.1328 0.65674 0.0
C545 C 0.1949 0.15338 0.67127 0.0
C546 C 0.18382 0.18537 0.66079 0.0
C547 C 0.19185 0.19602 0.63593 0.0
C548 C 0.21145 0.174 0.62182 0.0
H549 H 0.95129 0.74875 0.92885 0.0
H550 H 0.0215 0.84466 0.87027 0.0
H551 H 0.9456 0.82866 0.85431 0.0
H552 H 0.84108 0.66693 0.89553 0.0
H553 H 0.80614 0.66056 0.92182 0.0
H554 H 0.86446 0.6698 0.92514 0.0
H555 H 0.88548 0.74146 0.95254 0.0
H556 H 0.82742 0.7322 0.94942 0.0
H557 H 0.87638 0.78764 0.94155 0.0
H558 H 0.86612 0.81646 0.84981 0.0
H559 H 0.79014 0.81128 0.85801 0.0
H560 H 0.77013 0.72363 0.9195 0.0
C561 C 0.9509 0.76587 0.91243 0.0
C562 C 0.99268 0.79815 0.90091 0.0
C563 C 0.9902 0.81936 0.87932 0.0
C564 C 0.9471 0.81038 0.87007 0.0
C565 C 0.90674 0.77975 0.88245 0.0
C566 C 0.90827 0.75761 0.90313 0.0
C567 C 0.86094 0.732 0.91513 0.0
C568 C 0.84204 0.67918 0.91434 0.0
C569 C 0.86269 0.7494 0.94117 0.0
C570 C 0.83316 0.74577 0.89886 0.0
C571 C 0.85996 0.77226 0.87972 0.0
C572 C 0.84432 0.79459 0.86422 0.0
C573 C 0.8012 0.79151 0.869 0.0
C574 C 0.77429 0.76624 0.88904 0.0
C575 C 0.78945 0.74151 0.90353 0.0
H576 H 0.88268 0.00483 0.66702 0.0
H577 H 0.76096 0.00121 0.6357 0.0
H578 H 0.8078 0.08566 0.62671 0.0
H579 H 0.9292 0.11642 0.69544 0.0
H580 H 0.98877 0.13176 0.68929 0.0
H581 H 0.94532 0.07164 0.69299 0.0
H582 H 0.96646 0.05163 0.65112 0.0
H583 H 0.01034 0.11153 0.64746 0.0
H584 H 0.96556 0.08334 0.62505 0.0
H585 H 0.87029 0.17267 0.62205 0.0
H586 H 0.94235 0.24942 0.61868 0.0
H587 H 0.02016 0.1922 0.65361 0.0
C588 C 0.86566 0.02176 0.65843 0.0
C589 C 0.8181 0.99664 0.65228 0.0
C590 C 0.79746 0.01988 0.64048 0.0
C591 C 0.82371 0.06783 0.63551 0.0
C592 C 0.87049 0.09175 0.64236 0.0
C593 C 0.89118 0.06909 0.65335 0.0
C594 C 0.94204 0.10153 0.65844 0.0
C595 C 0.95188 0.10557 0.68566 0.0
C596 C 0.9729 0.08609 0.64469 0.0
C597 C 0.94715 0.14623 0.64855 0.0
C598 C 0.90566 0.14043 0.6395 0.0
C599 C 0.90286 0.17745 0.62913 0.0
C600 C 0.94378 0.22097 0.62745 0.0
C601 C 0.98672 0.22667 0.6359 0.0
C602 C 0.98786 0.18894 0.64696 0.0
H603 H 0.1486 0.14683 0.88547 0.0
H604 H 0.29537 0.24901 0.88305 0.0
H605 H 0.31567 0.18707 0.88861 0.0
H606 H 0.15863 0.07089 0.93075 0.0
H607 H 0.11502 0.01837 0.91641 0.0
H608 H 0.1121 0.07131 0.91406 0.0
H609 H 0.11077 0.06393 0.86757 0.0
H610 H 0.11441 0.01139 0.86974 0.0
H611 H 0.15701 0.05961 0.85238 0.0
H612 H 0.32038 0.11426 0.89173 0.0
H613 H 0.30894 0.03472 0.8951 0.0
H614 H 0.15912 0.97934 0.89539 0.0
C615 C 0.18488 0.15604 0.88668 0.0
C616 C 0.22047 0.20251 0.88375 0.0
C617 C 0.26767 0.21344 0.885 0.0
C618 C 0.27953 0.17858 0.88821 0.0
C619 C 0.24375 0.1329 0.89021 0.0
C620 C 0.19738 0.12148 0.88976 0.0
C621 C 0.16587 0.06936 0.8915 0.0
C622 C 0.13616 0.05675 0.91456 0.0
C623 C 0.13522 0.04995 0.86895 0.0
C624 C 0.20184 0.05348 0.89271 0.0
C625 C 0.24653 0.09069 0.89197 0.0
C626 C 0.28555 0.08475 0.89249 0.0
C627 C 0.27872 0.03946 0.89427 0.0
C628 C 0.23321 0.00082 0.89548 0.0
C629 C 0.19439 0.00812 0.89447 0.0
H630 H 0.96454 0.80055 0.6124 0.0
H631 H 1.00342 0.79263 0.68576 0.0
H632 H 0.92027 0.75383 0.69783 0.0
H633 H 0.88533 0.8336 0.62523 0.0
H634 H 0.84472 0.801 0.60164 0.0
H635 H 0.90513 0.8181 0.59815 0.0
H636 H 0.88301 0.73203 0.59078 0.0
H637 H 0.82226 0.71456 0.59458 0.0
H638 H 0.84844 0.6887 0.6128 0.0
H639 H 0.83591 0.73268 0.70318 0.0
H640 H 0.75885 0.72869 0.70081 0.0
H641 H 0.77494 0.74739 0.62372 0.0
C642 C 0.95528 0.78927 0.63085 0.0
C643 C 0.99012 0.79941 0.64818 0.0
C644 C 0.97705 0.78454 0.67219 0.0
C645 C 0.92995 0.76257 0.67915 0.0
C646 C 0.89645 0.75486 0.66175 0.0
C647 C 0.90861 0.76707 0.63794 0.0
C648 C 0.86726 0.7601 0.62317 0.0
C649 C 0.87616 0.80592 0.61139 0.0
C650 C 0.8545 0.72154 0.60421 0.0
C651 C 0.83047 0.74484 0.64261 0.0
C652 C 0.84754 0.74116 0.66471 0.0
C653 C 0.82162 0.73372 0.68585 0.0
C654 C 0.7779 0.73129 0.68439 0.0
C655 C 0.76076 0.73602 0.66197 0.0
C656 C 0.78675 0.74161 0.64086 0.0
H657 H 0.02863 0.17976 0.86813 0.0
H658 H 0.9777 0.2655 0.90194 0.0
H659 H 0.91131 0.19554 0.91868 0.0
H660 H 0.91489 0.0859 0.85146 0.0
H661 H 0.93074 0.04162 0.85664 0.0
H662 H 0.9745 0.09906 0.84782 0.0
H663 H 0.02248 0.10342 0.88557 0.0
H664 H 0.97787 0.04663 0.89496 0.0
H665 H 0.99651 0.0958 0.91502 0.0
H666 H 0.85247 0.11817 0.93271 0.0
H667 H 0.79295 0.03514 0.93491 0.0
H668 H 0.87952 0.99845 0.89148 0.0
C669 C 1.00302 0.1837 0.87869 0.0
C670 C 0.00839 0.22807 0.88379 0.0
C671 C 0.97418 0.23188 0.89764 0.0
C672 C 0.93675 0.19241 0.90758 0.0
C673 C 0.93384 0.14949 0.90326 0.0
C674 C 0.96508 0.14459 0.88854 0.0
C675 C 0.95189 0.09398 0.88542 0.0
C676 C 0.94241 0.07927 0.85876 0.0
C677 C 0.98943 0.08442 0.89587 0.0
C678 C 0.90777 0.07118 0.90037 0.0
C679 C 0.89891 0.10411 0.91104 0.0
C680 C 0.85906 0.09199 0.92463 0.0
C681 C 0.8258 0.04497 0.92603 0.0
C682 C 0.83254 0.0111 0.91373 0.0
C683 C 0.87474 0.02395 0.90164 0.0
H684 H 0.30305 0.14566 0.32203 0.0
H685 H 0.44378 0.18713 0.34428 0.0
H686 H 0.46759 0.19219 0.30142 0.0
H687 H 0.29568 0.07397 0.27532 0.0
H688 H 0.26291 0.08967 0.25528 0.0
H689 H 0.2585 0.09507 0.28731 0.0
H690 H 0.28302 0.18223 0.28291 0.0
H691 H 0.28652 0.17694 0.25073 0.0
H692 H 0.33604 0.22043 0.26712 0.0
H693 H 0.47165 0.17935 0.25593 0.0
H694 H 0.45896 0.16293 0.21203 0.0
H695 H 0.31705 0.13588 0.22018 0.0
C696 C 0.33928 0.15753 0.31781 0.0
C697 C 0.37183 0.16675 0.33632 0.0
C698 C 0.41868 0.18109 0.33027 0.0
C699 C 0.43231 0.18352 0.30599 0.0
C700 C 0.39881 0.17245 0.28809 0.0
C701 C 0.35355 0.16108 0.29377 0.0
C702 C 0.32365 0.14921 0.27145 0.0
C703 C 0.2828 0.09901 0.27241 0.0
C704 C 0.3063 0.18431 0.26784 0.0
C705 C 0.35866 0.15432 0.2523 0.0
C706 C 0.40177 0.1673 0.26216 0.0
C707 C 0.43834 0.17027 0.248 0.0
C708 C 0.43079 0.16055 0.22316 0.0
C709 C 0.38727 0.14875 0.21274 0.0
C710 C 0.35098 0.14572 0.2276 0.0
H711 H 0.72609 0.62932 0.3293 0.0
H712 H 0.84485 0.61227 0.34645 0.0
H713 H 0.85733 0.60496 0.30284 0.0
H714 H 0.68543 0.54824 0.27631 0.0
H715 H 0.66778 0.58445 0.26045 0.0
H716 H 0.6652 0.58215 0.29288 0.0
H717 H 0.71659 0.67182 0.29487 0.0
H718 H 0.71976 0.67441 0.26254 0.0
H719 H 0.7725 0.69919 0.28004 0.0
H720 H 0.86432 0.61359 0.25723 0.0
H721 H 0.86043 0.62866 0.21393 0.0
H722 H 0.73352 0.63422 0.22675 0.0
C723 C 0.75396 0.62272 0.3239 0.0
C724 C 0.78448 0.62119 0.3412 0.0
C725 C 0.82076 0.61293 0.33349 0.0
C726 C 0.82817 0.60898 0.30877 0.0
C727 C 0.79831 0.6123 0.29211 0.0
C728 C 0.76125 0.61793 0.29945 0.0
C729 C 0.73556 0.6229 0.27812 0.0
C730 C 0.68553 0.58199 0.27687 0.0
C731 C 0.73618 0.66986 0.27895 0.0
C732 C 0.76489 0.62097 0.25753 0.0
C733 C 0.801 0.61491 0.26593 0.0
C734 C 0.83546 0.61702 0.25045 0.0
C735 C 0.83307 0.62574 0.22591 0.0
C736 C 0.79614 0.63157 0.21697 0.0
C737 C 0.76129 0.62839 0.23298 0.0
H738 H 0.90885 0.18901 0.19881 0.0
H739 H 0.79776 0.21819 0.18204 0.0
H740 H 0.77933 0.21624 0.22565 0.0
H741 H 0.85526 0.11361 0.25031 0.0
H742 H 0.90898 0.1376 0.26694 0.0
H743 H 0.91002 0.13694 0.2345 0.0
H744 H 0.96573 0.22607 0.23435 0.0
H745 H 0.96489 0.22698 0.26676 0.0
H746 H 0.949 0.26367 0.25006 0.0
H747 H 0.77373 0.21085 0.2718 0.0
H748 H 0.78707 0.21138 0.31582 0.0
H749 H 0.90636 0.19278 0.30156 0.0
C750 C 0.88022 0.19428 0.2044 0.0
C751 C 0.85405 0.20292 0.1873 0.0
C752 C 0.81772 0.21103 0.19506 0.0
C753 C 0.80703 0.20987 0.21971 0.0
C754 C 0.83366 0.20141 0.23629 0.0
C755 C 0.86993 0.19439 0.2289 0.0
C756 C 0.89578 0.18985 0.25021 0.0
C757 C 0.89228 0.14163 0.2505 0.0
C758 C 0.94686 0.22897 0.25035 0.0
C759 C 0.86853 0.19542 0.27078 0.0
C760 C 0.83229 0.20123 0.26251 0.0
C761 C 0.80216 0.20653 0.27842 0.0
C762 C 0.80983 0.20663 0.30337 0.0
C763 C 0.84789 0.20249 0.31204 0.0
C764 C 0.87719 0.19644 0.29544 0.0
H765 H 0.14826 0.30909 0.70034 0.0
H766 H 0.12989 0.42859 0.687 0.0
H767 H 0.13539 0.44551 0.73039 0.0
H768 H 0.07928 0.27198 0.75268 0.0
H769 H 0.11528 0.25416 0.76866 0.0
H770 H 0.11476 0.2535 0.73624 0.0
H771 H 0.20427 0.30668 0.73552 0.0
H772 H 0.20511 0.3073 0.76798 0.0
H773 H 0.2301 0.36128 0.75168 0.0
H774 H 0.13506 0.44581 0.77497 0.0
H775 H 0.13237 0.43102 0.81857 0.0
H776 H 0.15254 0.31255 0.80414 0.0
C777 C 0.14644 0.33936 0.70656 0.0
C778 C 0.13868 0.36751 0.69022 0.0
C779 C 0.13568 0.40638 0.69911 0.0
C780 C 0.13888 0.41643 0.72377 0.0
C781 C 0.14531 0.38747 0.73945 0.0
C782 C 0.14947 0.34994 0.7313 0.0
C783 C 0.15378 0.32314 0.75231 0.0
C784 C 0.11336 0.27272 0.75247 0.0
C785 C 0.20114 0.32471 0.75184 0.0
C786 C 0.15039 0.35097 0.77341 0.0
C787 C 0.14569 0.38801 0.7655 0.0
C788 C 0.13936 0.41731 0.78144 0.0
C789 C 0.13769 0.40852 0.80617 0.0
C790 C 0.14252 0.37086 0.81478 0.0
C791 C 0.14939 0.34202 0.79812 0.0
H792 H 0.26592 0.8818 0.83011 0.0
H793 H 0.1176 0.79741 0.84353 0.0
H794 H 0.10318 0.78879 0.79979 0.0
H795 H 0.25629 0.94394 0.78139 0.0
H796 H 0.30389 0.94619 0.7642 0.0
H797 H 0.30354 0.94202 0.7965 0.0
H798 H 0.31147 0.86791 0.79293 0.0
H799 H 0.31208 0.87197 0.76057 0.0
H800 H 0.26996 0.81931 0.77519 0.0
H801 H 0.10372 0.79452 0.75495 0.0
H802 H 0.11918 0.81295 0.71184 0.0
H803 H 0.26728 0.89355 0.72656 0.0
C804 C 0.23051 0.86062 0.82384 0.0
C805 C 0.19291 0.83995 0.84036 0.0
C806 C 0.14702 0.81338 0.83134 0.0
C807 C 0.13846 0.80826 0.80647 0.0
C808 C 0.1761 0.82983 0.79071 0.0
C809 C 0.22128 0.85529 0.79898 0.0
C810 C 0.25511 0.87706 0.77812 0.0
C811 C 0.28124 0.93046 0.78018 0.0
C812 C 0.28917 0.85791 0.77662 0.0
C813 C 0.22179 0.86053 0.75691 0.0
C814 C 0.17642 0.83313 0.76465 0.0
C815 C 0.13915 0.8155 0.74866 0.0
C816 C 0.14833 0.82631 0.72416 0.0
C817 C 0.19447 0.85452 0.71568 0.0
C818 C 0.23169 0.8714 0.73236 0.0
H819 H 0.68961 0.83281 0.73002 0.0
H820 H 0.56826 0.69724 0.71845 0.0
H821 H 0.55231 0.69057 0.76219 0.0
H822 H 0.727 0.80362 0.78309 0.0
H823 H 0.7471 0.85931 0.79758 0.0
H824 H 0.74645 0.85531 0.76524 0.0
H825 H 0.69565 0.89514 0.76322 0.0
H826 H 0.69605 0.89918 0.79562 0.0
H827 H 0.6415 0.87074 0.77966 0.0
H828 H 0.55272 0.69612 0.80739 0.0
H829 H 0.57047 0.71241 0.85066 0.0
H830 H 0.69156 0.84453 0.83307 0.0
C831 C 0.6592 0.80203 0.73662 0.0
C832 C 0.62998 0.76563 0.72072 0.0
C833 C 0.59106 0.72563 0.7302 0.0
C834 C 0.58164 0.72159 0.75504 0.0
C835 C 0.61141 0.75787 0.77021 0.0
C836 C 0.64942 0.79734 0.76137 0.0
C837 C 0.67758 0.83001 0.78166 0.0
C838 C 0.72747 0.83747 0.7819 0.0
C839 C 0.67768 0.87652 0.77993 0.0
C840 C 0.64994 0.80241 0.80335 0.0
C841 C 0.61169 0.76106 0.79632 0.0
C842 C 0.58227 0.7286 0.81309 0.0
C843 C 0.59267 0.73819 0.83765 0.0
C844 C 0.63219 0.77992 0.8453 0.0
C845 C 0.66063 0.81274 0.82785 0.0
H846 H 0.30848 0.94873 0.98249 0.0
H847 H 0.16642 0.92337 0.97752 0.0
H848 H 0.18079 0.97738 1.01121 0.0
H849 H 0.31257 0.95461 0.04848 0.0
H850 H 0.37284 0.99929 0.04929 0.0
H851 H 0.35151 0.9585 0.02455 0.0
H852 H 0.38182 0.02723 0.99468 0.0
H853 H 0.40242 0.06818 0.01938 0.0
H854 H 0.36258 0.06959 0.99777 0.0
H855 H 0.21102 0.03747 0.04402 0.0
H856 H 0.25132 0.08916 0.07854 0.0
H857 H 0.37234 0.07311 0.06442 0.0
C858 C 0.28024 0.95406 0.98871 0.0
C859 C 0.23632 0.93164 0.97717 0.0
C860 C 0.20037 0.93977 0.98596 0.0
C861 C 0.20824 0.97081 1.00503 0.0
C862 C 0.2521 0.99325 1.01555 0.0
C863 C 0.28723 0.98451 1.00815 0.0
C864 C 0.33053 0.012 0.02339 0.0
C865 C 0.34256 0.97914 0.03725 0.0
C866 C 0.37177 0.04628 1.00787 0.0
C867 C 0.31417 0.03756 0.04032 0.0
C868 C 0.26906 0.02678 0.0352 0.0
C869 C 0.24634 0.04608 0.04828 0.0
C870 C 0.2697 0.07583 0.06773 0.0
C871 C 0.31509 0.08551 0.07416 0.0
C872 C 0.33779 0.06673 0.05988 0.0
H873 H 0.73522 0.65111 0.49384 0.0
H874 H 0.81171 0.78641 0.46034 0.0
H875 H 0.80154 0.82358 0.49693 0.0
H876 H 0.65004 0.67203 0.52099 0.0
H877 H 0.64462 0.64039 0.54822 0.0
H878 H 0.66256 0.62462 0.52065 0.0
H879 H 0.73684 0.63485 0.54156 0.0
H880 H 0.71966 0.65102 0.5693 0.0
H881 H 0.77558 0.68935 0.55606 0.0
H882 H 0.78037 0.84619 0.53679 0.0
H883 H 0.74778 0.85155 0.5763 0.0
H884 H 0.68065 0.7014 0.58283 0.0
C885 C 0.75083 0.68863 0.49454 0.0
C886 C 0.77498 0.71601 0.47442 0.0
C887 C 0.79353 0.76488 0.47566 0.0
C888 C 0.78791 0.78633 0.49637 0.0
C889 C 0.76303 0.75845 0.51573 0.0
C890 C 0.74469 0.71063 0.51501 0.0
C891 C 0.7166 0.68852 0.53762 0.0
C892 C 0.66542 0.65438 0.53149 0.0
C893 C 0.73847 0.66451 0.55199 0.0
C894 C 0.72149 0.73117 0.55089 0.0
C895 C 0.74897 0.77126 0.53814 0.0
C896 C 0.75871 0.81495 0.54692 0.0
C897 C 0.73996 0.81773 0.56934 0.0
C898 C 0.71109 0.77699 0.58255 0.0
C899 C 0.70193 0.73325 0.57305 0.0
H900 H 0.09237 0.35831 0.96497 0.0
H901 H 0.0998 0.23351 0.94799 0.0
H902 H 0.04991 0.19446 0.98327 0.0
H903 H 0.09158 0.34765 0.0313 0.0
H904 H 0.05168 0.36983 0.03507 0.0
H905 H 0.09174 0.38873 1.01006 0.0
H906 H 0.0224 0.36275 0.98074 0.0
H907 H 0.982 0.3427 1.00557 0.0
H908 H 0.97565 0.30339 0.9813 0.0
H909 H 0.99194 0.16655 1.01787 0.0
H910 H 0.93974 0.1552 0.05228 0.0
H911 H 0.97132 0.29897 0.04686 0.0
C912 C 0.0847 0.3232 0.96906 0.0
C913 C 0.10043 0.29912 0.95381 0.0
C914 C 0.08893 0.25297 0.95962 0.0
C915 C 0.06016 0.23035 0.97948 0.0
C916 C 0.04361 0.25452 0.9935 0.0
C917 C 0.05632 0.30029 0.98883 0.0
C918 C 0.03284 0.31816 1.00614 0.0
C919 C 0.06912 0.35847 0.02156 0.0
C920 C 1.00136 0.33259 0.99262 0.0
C921 C 0.00436 0.27512 0.02115 0.0
C922 C 0.0108 0.23869 1.01348 0.0
C923 C 0.98709 0.19502 0.02416 0.0
C924 C 0.95715 0.18882 0.0436 0.0
C925 C 0.95127 0.22616 0.05234 0.0
C926 C 0.9749 0.26968 0.04066 0.0
H927 H 0.3495 0.09384 0.48951 0.0
H928 H 0.21661 0.0144 0.45336 0.0
H929 H 0.18452 0.96499 0.48891 0.0
H930 H 0.34857 0.99739 0.51854 0.0
H931 H 0.37366 0.02705 0.54651 0.0
H932 H 0.38663 0.05951 0.51894 0.0
H933 H 0.35753 0.11278 0.53778 0.0
H934 H 0.34507 0.08078 0.56551 0.0
H935 H 0.29996 0.08698 0.55073 0.0
H936 H 0.16632 0.92215 0.52707 0.0
H937 H 0.16228 0.8889 0.56707 0.0
H938 H 0.30648 0.99246 0.58006 0.0
C939 C 0.31344 0.0666 0.48934 0.0
C940 C 0.28559 0.0581 0.46851 0.0
C941 C 0.23879 0.02154 0.4689 0.0
C942 C 0.2201 0.99321 0.48909 0.0
C943 C 0.24849 0.00149 0.50902 0.0
C944 C 0.29404 0.03736 0.50954 0.0
C945 C 0.31682 0.03713 0.53332 0.0
C946 C 0.35892 0.02984 0.52906 0.0
C947 C 0.33066 0.08209 0.54768 0.0
C948 C 0.27716 0.99519 0.5457 0.0
C949 C 0.23807 0.97562 0.53128 0.0
C950 C 0.19669 0.93713 0.53856 0.0
C951 C 0.19478 0.91838 0.56134 0.0
C952 C 0.23409 0.93763 0.57668 0.0
C953 C 0.27605 0.97644 0.5686 0.0
H954 H 0.73099 0.6733 0.07485 0.0
H955 H 0.86921 0.79068 0.08593 0.0
H956 H 0.85949 0.82841 0.04964 0.0
H957 H 0.73561 0.67132 1.00981 0.0
H958 H 0.67518 0.65518 1.00656 0.0
H959 H 0.69424 0.63795 0.03294 0.0
H960 H 0.6591 0.67747 0.05993 0.0
H961 H 0.64048 0.6954 0.03363 0.0
H962 H 0.67716 0.73808 0.05559 0.0
H963 H 0.83236 0.85407 1.01183 0.0
H964 H 0.79337 0.8621 0.97558 0.0
H965 H 0.67353 0.72729 0.9901 0.0
C966 C 0.75958 0.70675 0.06958 0.0
C967 C 0.80109 0.72881 0.08329 0.0
C968 C 0.83729 0.77275 0.07568 0.0
C969 C 0.83191 0.7946 0.05514 0.0
C970 C 0.79016 0.77208 0.04229 0.0
C971 C 0.75484 0.72886 0.04919 0.0
C972 C 0.71334 0.71163 0.0325 0.0
C973 C 0.70407 0.66635 0.0197 0.0
C974 C 0.66996 0.70529 0.04624 0.0
C975 C 0.73061 0.75175 1.015 0.0
C976 C 0.77487 0.78654 0.02092 0.0
C977 C 0.79772 0.82692 1.00712 0.0
C978 C 0.77516 0.83134 0.98659 0.0
C979 C 0.7302 0.79551 0.97991 0.0
C980 C 0.70777 0.75554 0.99462 0.0
H981 H 0.04267 0.35085 0.54502 0.0
H982 H 0.07641 0.24012 0.5539 0.0
H983 H 0.02881 0.19972 0.51833 0.0
H984 H 0.9253 0.28049 0.52643 0.0
H985 H 0.92665 0.32072 0.50427 0.0
H986 H 0.96423 0.34203 0.53015 0.0
H987 H 0.03656 0.38349 0.50244 0.0
H988 H 0.99909 0.36321 0.47651 0.0
H989 H 0.0462 0.35058 0.47923 0.0
H990 H 0.97524 0.16965 0.48277 0.0
H991 H 0.92825 0.1576 0.44608 0.0
H992 H 0.93039 0.28811 0.45946 0.0
C993 C 0.04061 0.31843 0.53929 0.0
C994 C 0.06338 0.29871 0.5523 0.0
C995 C 0.05964 0.25616 0.54419 0.0
C996 C 0.0323 0.23269 0.52411 0.0
C997 C 0.0092 0.25236 0.51215 0.0
C998 C 0.01382 0.29473 0.51911 0.0
C999 C 0.98636 0.30885 0.50266 0.0
C1000 C 0.94838 0.31327 0.51673 0.0
C1001 C 0.019 0.35421 0.48942 0.0
C1002 C 0.9653 0.26762 0.48549 0.0
C1003 C 0.97856 0.23521 0.49148 0.0
C1004 C 0.96441 0.19464 0.478 0.0
C1005 C 0.93734 0.18778 0.45739 0.0
C1006 C 0.92466 0.22119 0.45055 0.0
C1007 C 0.93835 0.26134 0.46489 0.0
H1008 H 0.73538 0.11215 0.10761 0.0
H1009 H 0.78422 0.25799 0.09292 0.0
H1010 H 0.70296 0.2425 0.09305 0.0
H1011 H 0.6237 0.06324 0.07338 0.0
H1012 H 0.59313 0.01934 0.09582 0.0
H1013 H 0.65414 0.04018 0.09036 0.0
H1014 H 0.67108 0.0611 0.13559 0.0
H1015 H 0.6104 0.04105 0.14118 0.0
H1016 H 0.65331 0.09955 0.14943 0.0
H1017 H 0.61875 0.21375 0.0997 0.0
H1018 H 0.53618 0.17334 0.11167 0.0
H1019 H 0.54159 0.04646 0.12343 0.0
C1020 C 0.72895 0.14057 0.10361 0.0
C1021 C 0.76606 0.18623 0.1 0.0
C1022 C 0.75627 0.2227 0.0955 0.0
C1023 C 0.71026 0.21421 0.09553 0.0
C1024 C 0.67461 0.1691 0.10002 0.0
C1025 C 0.68332 0.13278 0.1038 0.0
C1026 C 0.63932 0.08864 0.11065 0.0
C1027 C 0.62684 0.0506 0.0914 0.0
C1028 C 0.64383 0.07162 0.1357 0.0
C1029 C 0.60469 0.1062 0.11088 0.0
C1030 C 0.62578 0.15256 0.10441 0.0
C1031 C 0.6018 0.17739 0.1046 0.0
C1032 C 0.55514 0.15434 0.11174 0.0
C1033 C 0.53296 0.1071 0.11884 0.0
C1034 C 0.55785 0.08251 0.11798 0.0
H1035 H 0.66163 0.53779 0.44727 0.0
H1036 H 0.62017 0.57769 0.38175 0.0
H1037 H 0.54694 0.50163 0.38125 0.0
H1038 H 0.62813 0.4268 0.43111 0.0
H1039 H 0.60788 0.40131 0.46035 0.0
H1040 H 0.6518 0.46138 0.458 0.0
H1041 H 0.60086 0.48621 0.48298 0.0
H1042 H 0.55694 0.42598 0.48583 0.0
H1043 H 0.54193 0.46738 0.47369 0.0
H1044 H 0.48501 0.41576 0.38479 0.0
H1045 H 0.43842 0.33213 0.39303 0.0
H1046 H 0.5214 0.35094 0.457 0.0
C1047 C 0.63635 0.53115 0.43326 0.0
C1048 C 0.64615 0.56353 0.41464 0.0
C1049 C 0.61276 0.55356 0.3964 0.0
C1050 C 0.5713 0.51037 0.39594 0.0
C1051 C 0.56371 0.47822 0.41408 0.0
C1052 C 0.59504 0.4887 0.43268 0.0
C1053 C 0.58132 0.44741 0.44893 0.0
C1054 C 0.61954 0.43342 0.44961 0.0
C1055 C 0.56955 0.45734 0.47437 0.0
C1056 C 0.53831 0.41118 0.43608 0.0
C1057 C 0.5283 0.42949 0.41617 0.0
C1058 C 0.49209 0.4014 0.40063 0.0
C1059 C 0.46573 0.35353 0.40552 0.0
C1060 C 0.4757 0.33382 0.42577 0.0
C1061 C 0.51222 0.36381 0.44134 0.0
H1062 H 0.96043 0.47194 0.12997 0.0
H1063 H 0.83005 0.35257 0.10803 0.0
H1064 H 0.79308 0.40165 0.10705 0.0
H1065 H 0.91006 0.52267 0.16879 0.0
H1066 H 0.95106 0.5819 0.16097 0.0
H1067 H 0.96811 0.5378 0.15917 0.0
H1068 H 0.99153 0.55869 0.11449 0.0
H1069 H 0.9743 0.60271 0.11614 0.0
H1070 H 0.94945 0.55757 0.09353 0.0
H1071 H 0.76933 0.46249 0.10908 0.0
H1072 H 0.75936 0.53098 0.11582 0.0
H1073 H 0.90456 0.61216 0.13654 0.0
C1074 C 0.92424 0.4563 0.12478 0.0
C1075 C 0.89815 0.40822 0.11923 0.0
C1076 C 0.85066 0.389 0.11277 0.0
C1077 C 0.82939 0.41673 0.11193 0.0
C1078 C 0.85596 0.46381 0.11756 0.0
C1079 C 0.90228 0.48355 0.12395 0.0
C1080 C 0.92227 0.53484 0.12999 0.0
C1081 C 0.93884 0.54487 0.15629 0.0
C1082 C 0.96173 0.56524 0.11249 0.0
C1083 C 0.87982 0.54061 0.12616 0.0
C1084 C 0.8421 0.49918 0.11883 0.0
C1085 C 0.79865 0.49518 0.11474 0.0
C1086 C 0.79332 0.5343 0.11866 0.0
C1087 C 0.83111 0.57697 0.1267 0.0
C1088 C 0.87513 0.58022 0.13013 0.0
H1089 H 0.45575 0.10444 0.43349 0.0
H1090 H 0.41399 0.06273 0.35959 0.0
H1091 H 0.49116 0.06976 0.35089 0.0
H1092 H 0.56772 0.18945 0.42206 0.0
H1093 H 0.59392 0.17816 0.44767 0.0
H1094 H 0.53379 0.16377 0.44883 0.0
H1095 H 0.5088 0.07817 0.45904 0.0
H1096 H 0.56903 0.0925 0.45857 0.0
H1097 H 0.52732 0.04592 0.43986 0.0
H1098 H 0.57817 0.09338 0.3494 0.0
H1099 H 0.66156 0.11858 0.35688 0.0
H1100 H 0.64342 0.14171 0.43207 0.0
C1101 C 0.46225 0.09504 0.41571 0.0
C1102 C 0.42882 0.0823 0.39729 0.0
C1103 C 0.43879 0.07135 0.37408 0.0
C1104 C 0.48273 0.07585 0.36894 0.0
C1105 C 0.5158 0.09059 0.38734 0.0
C1106 C 0.50544 0.09875 0.41044 0.0
C1107 C 0.54711 0.11586 0.4269 0.0
C1108 C 0.56145 0.16469 0.43694 0.0
C1109 C 0.53749 0.08102 0.44729 0.0
C1110 C 0.58305 0.11714 0.40942 0.0
C1111 C 0.56469 0.10283 0.38662 0.0
C1112 C 0.59254 0.10382 0.36729 0.0
C1113 C 0.63989 0.11862 0.3716 0.0
C1114 C 0.65862 0.13171 0.39506 0.0
C1115 C 0.62974 0.13123 0.41404 0.0
H1116 H 0.42326 0.28508 0.12783 0.0
H1117 H 0.51953 0.23089 0.1285 0.0
H1118 H 0.58563 0.31109 0.12691 0.0
H1119 H 0.49208 0.3852 0.08832 0.0
H1120 H 0.47589 0.42218 0.10504 0.0
H1121 H 0.43641 0.36044 0.10332 0.0
H1122 H 0.43283 0.35648 0.14991 0.0
H1123 H 0.47256 0.41802 0.15183 0.0
H1124 H 0.48606 0.37784 0.16678 0.0
H1125 H 0.64051 0.39649 0.12896 0.0
H1126 H 0.68122 0.48154 0.13336 0.0
H1127 H 0.54899 0.48025 0.13237 0.0
C1128 C 0.45821 0.28994 0.12714 0.0
C1129 C 0.46635 0.25174 0.12805 0.0
C1130 C 0.51257 0.25962 0.12747 0.0
C1131 C 0.55027 0.30503 0.12664 0.0
C1132 C 0.54095 0.34191 0.12632 0.0
C1133 C 0.49608 0.33487 0.12639 0.0
C1134 C 0.49546 0.38042 0.12756 0.0
C1135 C 0.47368 0.38747 0.10469 0.0
C1136 C 0.47025 0.38334 0.15038 0.0
C1137 C 0.5471 0.41427 0.12869 0.0
C1138 C 0.57267 0.39131 0.12779 0.0
C1139 C 0.6209 0.41488 0.12953 0.0
C1140 C 0.64367 0.46323 0.13228 0.0
C1141 C 0.61822 0.48758 0.13339 0.0
C1142 C 0.56931 0.46264 0.13135 0.0
H1143 H 0.7942 0.45353 0.43929 0.0
H1144 H 0.91116 0.57257 0.40649 0.0
H1145 H 0.94153 0.5215 0.39156 0.0
H1146 H 0.85624 0.39365 0.45784 0.0
H1147 H 0.80773 0.33706 0.45108 0.0
H1148 H 0.79754 0.38387 0.4601 0.0
H1149 H 0.74979 0.3719 0.42116 0.0
H1150 H 0.76011 0.32531 0.41197 0.0
H1151 H 0.7761 0.37405 0.3923 0.0
H1152 H 0.95797 0.45521 0.37978 0.0
H1153 H 0.95701 0.38059 0.37145 0.0
H1154 H 0.82757 0.30725 0.41144 0.0
C1155 C 0.8267 0.46912 0.4294 0.0
C1156 C 0.85057 0.5171 0.42425 0.0
C1157 C 0.8923 0.53583 0.4106 0.0
C1158 C 0.90986 0.50713 0.40214 0.0
C1159 C 0.8851 0.45977 0.40738 0.0
C1160 C 0.84434 0.44104 0.42068 0.0
C1161 C 0.82291 0.38898 0.42307 0.0
C1162 C 0.82102 0.37509 0.4496 0.0
C1163 C 0.77437 0.36359 0.41142 0.0
C1164 C 0.85775 0.38112 0.40893 0.0
C1165 C 0.89369 0.42218 0.40013 0.0
C1166 C 0.92991 0.42287 0.38658 0.0
C1167 C 0.92913 0.38043 0.38193 0.0
C1168 C 0.89208 0.33806 0.39059 0.0
C1169 C 0.85623 0.33887 0.40429 0.0
H1170 H 0.11167 0.73032 0.62901 0.0
H1171 H 0.26071 0.78115 0.62803 0.0
H1172 H 0.2461 0.70065 0.62438 0.0
H1173 H 0.08079 0.63056 0.66439 0.0
H1174 H 0.02786 0.59318 0.64835 0.0
H1175 H 0.04944 0.655 0.64942 0.0
H1176 H 0.04968 0.65771 0.60283 0.0
H1177 H 0.02771 0.5958 0.60159 0.0
H1178 H 0.08064 0.63456 0.5859 0.0
H1179 H 0.21623 0.61563 0.62341 0.0
H1180 H 0.17301 0.53047 0.62268 0.0
H1181 H 0.04237 0.53247 0.62374 0.0
C1182 C 0.14125 0.72457 0.62766 0.0
C1183 C 0.18743 0.76218 0.6288 0.0
C1184 C 0.2251 0.75306 0.6272 0.0
C1185 C 0.21715 0.7074 0.62513 0.0
C1186 C 0.17132 0.67118 0.62455 0.0
C1187 C 0.13394 0.6791 0.62552 0.0
C1188 C 0.08816 0.63359 0.62507 0.0
C1189 C 0.05991 0.62776 0.64819 0.0
C1190 C 0.05989 0.63023 0.6025 0.0
C1191 C 0.10577 0.59889 0.62398 0.0
C1192 C 0.15388 0.62156 0.62375 0.0
C1193 C 0.17855 0.59746 0.62348 0.0
C1194 C 0.15352 0.54886 0.62328 0.0
C1195 C 0.10412 0.52444 0.6233 0.0
C1196 C 0.08003 0.55004 0.62357 0.0
H1197 H 0.38514 0.8292 0.90813 0.0
H1198 H 0.46567 0.97343 0.9302 0.0
H1199 H 0.52937 0.95973 0.9436 0.0
H1200 H 0.4256 0.778 0.95521 0.0
H1201 H 0.42868 0.73706 0.93461 0.0
H1202 H 0.38661 0.7561 0.92985 0.0
H1203 H 0.41887 0.78286 0.8868 0.0
H1204 H 0.46063 0.76354 0.89139 0.0
H1205 H 0.48009 0.82281 0.88271 0.0
H1206 H 0.58569 0.93271 0.95177 0.0
H1207 H 0.63587 0.89696 0.95016 0.0
H1208 H 0.52148 0.7699 0.92121 0.0
C1209 C 0.41592 0.85743 0.91626 0.0
C1210 C 0.42064 0.90226 0.91851 0.0
C1211 C 0.46169 0.93895 0.9285 0.0
C1212 C 0.49772 0.93132 0.93629 0.0
C1213 C 0.4923 0.88685 0.93371 0.0
C1214 C 0.45273 0.85056 0.92368 0.0
C1215 C 0.45819 0.80767 0.92048 0.0
C1216 C 0.42265 0.76732 0.93597 0.0
C1217 C 0.45423 0.79341 0.89376 0.0
C1218 C 0.50738 0.8259 0.9298 0.0
C1219 C 0.52584 0.87138 0.93779 0.0
C1220 C 0.57152 0.89699 0.94583 0.0
C1221 C 0.59973 0.87632 0.94487 0.0
C1222 C 0.58245 0.83052 0.9358 0.0
C1223 C 0.53522 0.80449 0.92882 0.0
H1224 H 0.463 0.52694 0.62736 0.0
H1225 H 0.46596 0.65986 0.62668 0.0
H1226 H 0.38225 0.62003 0.61722 0.0
H1227 H 0.38084 0.47373 0.5781 0.0
H1228 H 0.35205 0.41717 0.59192 0.0
H1229 H 0.41277 0.45638 0.5978 0.0
H1230 H 0.39611 0.45036 0.64371 0.0
H1231 H 0.33552 0.41085 0.63795 0.0
H1232 H 0.35237 0.4631 0.65532 0.0
H1233 H 0.297 0.56503 0.6088 0.0
H1234 H 0.2169 0.49885 0.60481 0.0
H1235 H 0.27053 0.4027 0.61054 0.0
C1236 C 0.44618 0.54772 0.62498 0.0
C1237 C 0.47122 0.59656 0.62785 0.0
C1238 C 0.4476 0.62238 0.62495 0.0
C1239 C 0.40004 0.60009 0.61931 0.0
C1240 C 0.37648 0.55192 0.61654 0.0
C1241 C 0.39874 0.52603 0.61938 0.0
C1242 C 0.36511 0.47456 0.61648 0.0
C1243 C 0.3785 0.45428 0.59478 0.0
C1244 C 0.3621 0.44818 0.63975 0.0
C1245 C 0.32039 0.4755 0.61187 0.0
C1246 C 0.32763 0.52042 0.61174 0.0
C1247 C 0.29098 0.52969 0.60875 0.0
C1248 C 0.24561 0.49196 0.60649 0.0
C1249 C 0.23734 0.44565 0.60742 0.0
C1250 C 0.27556 0.43764 0.60956 0.0
H1251 H 0.2262 0.73886 0.89854 0.0
H1252 H 0.14135 0.74019 0.95813 0.0
H1253 H 0.10596 0.65504 0.96181 0.0
H1254 H 0.13935 0.64137 0.87096 0.0
H1255 H 0.17488 0.61706 0.86065 0.0
H1256 H 0.2006 0.67882 0.86534 0.0
H1257 H 0.26088 0.67782 0.89466 0.0
H1258 H 0.23591 0.61607 0.88973 0.0
H1259 H 0.24101 0.63868 0.91989 0.0
H1260 H 0.07278 0.57013 0.9559 0.0
H1261 H 0.04665 0.48995 0.94232 0.0
H1262 H 0.14987 0.54224 0.88506 0.0
C1263 C 0.20168 0.72127 0.91299 0.0
C1264 C 0.18706 0.74588 0.92841 0.0
C1265 C 0.15338 0.72178 0.94644 0.0
C1266 C 0.13305 0.67349 0.94861 0.0
C1267 C 0.14661 0.64981 0.9325 0.0
C1268 C 0.18045 0.67277 0.91516 0.0
C1269 C 0.18506 0.63842 0.89861 0.0
C1270 C 0.17432 0.64429 0.87234 0.0
C1271 C 0.2336 0.64302 0.90086 0.0
C1272 C 0.14772 0.5928 0.90898 0.0
C1273 C 0.12636 0.60026 0.92864 0.0
C1274 C 0.08955 0.56375 0.94066 0.0
C1275 C 0.07452 0.51825 0.93258 0.0
C1276 C 0.09602 0.50951 0.91254 0.0
C1277 C 0.13307 0.54755 0.90061 0.0
H1278 H 0.47265 0.94751 0.65754 0.0
H1279 H 0.35019 0.82449 0.63099 0.0
H1280 H 0.39691 0.78595 0.62411 0.0
H1281 H 0.55535 0.942 0.61588 0.0
H1282 H 0.60119 0.9606 0.63784 0.0
H1283 H 0.55856 0.97957 0.64044 0.0
H1284 H 0.53826 0.94649 0.68367 0.0
H1285 H 0.58107 0.92778 0.68126 0.0
H1286 H 0.52163 0.88639 0.6887 0.0
H1287 H 0.45582 0.76019 0.62007 0.0
H1288 H 0.52268 0.74655 0.62168 0.0
H1289 H 0.60853 0.88544 0.65102 0.0
C1290 C 0.4558 0.91255 0.6502 0.0
C1291 C 0.40754 0.88899 0.64498 0.0
C1292 C 0.38674 0.84306 0.63557 0.0
C1293 C 0.41315 0.82098 0.63135 0.0
C1294 C 0.46048 0.84514 0.63661 0.0
C1295 C 0.48171 0.88976 0.64598 0.0
C1296 C 0.533 0.90708 0.65075 0.0
C1297 C 0.56384 0.94985 0.6353 0.0
C1298 C 0.54413 0.91754 0.67769 0.0
C1299 C 0.53708 0.86509 0.6427 0.0
C1300 C 0.49479 0.82999 0.63443 0.0
C1301 C 0.48914 0.78742 0.62648 0.0
C1302 C 0.52742 0.78002 0.62747 0.0
C1303 C 0.57095 0.81487 0.63646 0.0
C1304 C 0.57592 0.8583 0.6438 0.0
H1305 H 0.47928 0.54054 0.92786 0.0
H1306 H 0.48936 0.65769 0.88753 0.0
H1307 H 0.40583 0.61552 0.88057 0.0
H1308 H 0.39524 0.45404 0.88655 0.0
H1309 H 0.36437 0.41267 0.91003 0.0
H1310 H 0.4256 0.45309 0.91325 0.0
H1311 H 0.40907 0.48166 0.95386 0.0
H1312 H 0.34771 0.44176 0.95058 0.0
H1313 H 0.36814 0.50299 0.95481 0.0
H1314 H 0.32098 0.56402 0.87987 0.0
H1315 H 0.2403 0.4986 0.87881 0.0
H1316 H 0.28499 0.41089 0.91471 0.0
C1317 C 0.4641 0.55723 0.91743 0.0
C1318 C 0.4912 0.6034 0.90924 0.0
C1319 C 0.46968 0.62345 0.89523 0.0
C1320 C 0.42197 0.5996 0.8909 0.0
C1321 C 0.39617 0.55507 0.89998 0.0
C1322 C 0.41641 0.53339 0.91232 0.0
C1323 C 0.38062 0.48397 0.91867 0.0
C1324 C 0.39214 0.44888 0.90638 0.0
C1325 C 0.37614 0.47723 0.94611 0.0
C1326 C 0.33739 0.48177 0.90804 0.0
C1327 C 0.34712 0.52356 0.8978 0.0
C1328 C 0.3128 0.53082 0.88755 0.0
C1329 C 0.2672 0.49373 0.88717 0.0
C1330 C 0.25697 0.45003 0.89652 0.0
C1331 C 0.29231 0.44406 0.90727 0.0
loop_
_geom_bond_atom_site_label_1
_geom_bond_atom_site_label_2
_geom_bond_distance
_geom_bond_site_symmetry_2
_ccdc_geom_bond_type
Co0 N5 2.057 . S
Co0 O17 2.021 . S
Co0 O20 2.062 . S
Co0 O24 2.117 . S
Co0 O25 2.020 . S
C1 O21 1.259 . S
C1 O24 1.258 . S
Co2 N11 2.057 . S
Co2 O18 2.117 . S
Co2 O19 2.020 . S
Co2 O21 2.021 . S
Co2 O26 2.062 . S
C3 N5 1.316 . S
C3 N6 1.347 . S
C3 H8 0.931 . S
C4 N5 1.375 . S
C4 C7 1.350 . S
C4 H9 0.930 . S
N5 Co0 2.057 . S
N5 C3 1.316 . S
N5 C4 1.375 . S
N6 C3 1.347 . S
N6 C7 1.373 . S
C7 C4 1.350 . S
C7 N6 1.373 . S
C7 H28 0.931 . S
H8 C3 0.931 . S
H9 C4 0.930 . S
C10 O17 1.259 . S
C10 O18 1.258 . S
N11 Co2 2.057 . S
N11 C12 1.316 . S
N11 C13 1.375 . S
C12 N11 1.316 . S
C12 N14 1.347 . S
C12 H23 0.931 . S
C13 N11 1.375 . S
C13 C15 1.350 . S
C13 H22 0.930 . S
N14 C12 1.347 . S
N14 C15 1.373 . S
C15 C13 1.350 . S
C15 N14 1.373 . S
C15 H29 0.931 . S
C16 O19 1.256 . S
C16 O20 1.255 . S
O17 Co0 2.021 . S
O17 C10 1.259 . S
O18 Co2 2.117 . S
O18 C10 1.258 . S
O19 Co2 2.020 . S
O19 C16 1.256 . S
O20 Co0 2.062 . S
O20 C16 1.255 . S
O21 C1 1.259 . S
O21 Co2 2.021 . S
H22 C13 0.930 . S
H23 C12 0.931 . S
O24 Co0 2.117 . S
O24 C1 1.258 . S
O25 Co0 2.020 . S
O25 C27 1.256 . S
O26 Co2 2.062 . S
O26 C27 1.255 . S
C27 O25 1.256 . S
C27 O26 1.255 . S
H28 C7 0.931 . S
H29 C15 0.931 . S
Co30 N35 2.057 . S
Co30 O47 2.021 . S
Co30 O50 2.062 . S
Co30 O54 2.117 . S
Co30 O55 2.020 . S
C31 O51 1.259 . S
C31 O54 1.258 . S
Co32 N41 2.057 . S
Co32 O48 2.117 . S
Co32 O49 2.020 . S
Co32 O51 2.021 . S
Co32 O56 2.062 . S
C33 N35 1.316 . S
C33 N36 1.347 . S
C33 H38 0.931 . S
C34 N35 1.375 . S
C34 C37 1.350 . S
C34 H39 0.930 . S
N35 Co30 2.057 . S
N35 C33 1.316 . S
N35 C34 1.375 . S
N36 C33 1.347 . S
N36 C37 1.373 . S
C37 C34 1.350 . S
C37 N36 1.373 . S
C37 H58 0.931 . S
H38 C33 0.931 . S
H39 C34 0.930 . S
C40 O47 1.259 . S
C40 O48 1.258 . S
N41 Co32 2.057 . S
N41 C42 1.316 . S
N41 C43 1.375 . S
C42 N41 1.316 . S
C42 N44 1.347 . S
C42 H53 0.931 . S
C43 N41 1.375 . S
C43 C45 1.350 . S
C43 H52 0.930 . S
N44 C42 1.347 . S
N44 C45 1.373 . S
C45 C43 1.350 . S
C45 N44 1.373 . S
C45 H59 0.931 . S
C46 O49 1.256 . S
C46 O50 1.255 . S
O47 Co30 2.021 . S
O47 C40 1.259 . S
O48 Co32 2.117 . S
O48 C40 1.258 . S
O49 Co32 2.020 . S
O49 C46 1.256 . S
O50 Co30 2.062 . S
O50 C46 1.255 . S
O51 C31 1.259 . S
O51 Co32 2.021 . S
H52 C43 0.930 . S
H53 C42 0.931 . S
O54 Co30 2.117 . S
O54 C31 1.258 . S
O55 Co30 2.020 . S
O55 C57 1.256 . S
O56 Co32 2.062 . S
O56 C57 1.255 . S
C57 O55 1.256 . S
C57 O56 1.255 . S
H58 C37 0.931 . S
H59 C45 0.931 . S
Co60 N65 2.057 . S
Co60 O77 2.021 . S
Co60 O80 2.062 . S
Co60 O84 2.117 . S
Co60 O85 2.020 . S
C61 O81 1.259 . S
C61 O84 1.258 . S
Co62 N71 2.057 . S
Co62 O78 2.117 . S
Co62 O79 2.020 . S
Co62 O81 2.021 . S
Co62 O86 2.062 . S
C63 N65 1.316 . S
C63 N66 1.347 . S
C63 H68 0.931 . S
C64 N65 1.375 . S
C64 C67 1.350 . S
C64 H69 0.930 . S
N65 Co60 2.057 . S
N65 C63 1.316 . S
N65 C64 1.375 . S
N66 C63 1.347 . S
N66 C67 1.373 . S
C67 C64 1.350 . S
C67 N66 1.373 . S
C67 H88 0.931 1_545 S
H68 C63 0.931 . S
H69 C64 0.930 . S
C70 O77 1.259 . S
C70 O78 1.258 . S
N71 Co62 2.057 . S
N71 C72 1.316 . S
N71 C73 1.375 . S
C72 N71 1.316 . S
C72 N74 1.347 . S
C72 H83 0.931 . S
C73 N71 1.375 . S
C73 C75 1.350 . S
C73 H82 0.930 . S
N74 C72 1.347 . S
N74 C75 1.373 . S
C75 C73 1.350 . S
C75 N74 1.373 . S
C75 H89 0.931 . S
C76 O79 1.256 . S
C76 O80 1.255 . S
O77 Co60 2.021 . S
O77 C70 1.259 . S
O78 Co62 2.117 . S
O78 C70 1.258 . S
O79 Co62 2.020 . S
O79 C76 1.256 . S
O80 Co60 2.062 . S
O80 C76 1.255 . S
O81 C61 1.259 . S
O81 Co62 2.021 . S
H82 C73 0.930 . S
H83 C72 0.931 . S
O84 Co60 2.117 . S
O84 C61 1.258 . S
O85 Co60 2.020 . S
O85 C87 1.256 . S
O86 Co62 2.062 . S
O86 C87 1.255 . S
C87 O85 1.256 . S
C87 O86 1.255 . S
H88 C67 0.931 1_565 S
H89 C75 0.931 . S
Co90 N95 2.057 . S
Co90 O107 2.021 . S
Co90 O110 2.062 . S
Co90 O114 2.117 . S
Co90 O115 2.020 . S
C91 O111 1.259 . S
C91 O114 1.258 . S
Co92 N101 2.057 . S
Co92 O108 2.117 . S
Co92 O109 2.020 . S
Co92 O111 2.021 . S
Co92 O116 2.062 . S
C93 N95 1.316 1_565 S
C93 N96 1.347 . S
C93 H98 0.931 . S
C94 N95 1.375 . S
C94 C97 1.350 1_545 S
C94 H99 0.930 . S
N95 Co90 2.057 . S
N95 C93 1.316 1_545 S
N95 C94 1.375 . S
N96 C93 1.347 . S
N96 C97 1.373 . S
C97 C94 1.350 1_565 S
C97 N96 1.373 . S
C97 H118 0.931 . S
H98 C93 0.931 . S
H99 C94 0.930 . S
C100 O107 1.259 . S
C100 O108 1.258 . S
N101 Co92 2.057 . S
N101 C102 1.316 . S
N101 C103 1.375 . S
C102 N101 1.316 . S
C102 N104 1.347 . S
C102 H113 0.931 . S
C103 N101 1.375 . S
C103 C105 1.350 . S
C103 H112 0.930 . S
N104 C102 1.347 . S
N104 C105 1.373 . S
C105 C103 1.350 . S
C105 N104 1.373 . S
C105 H119 0.931 . S
C106 O109 1.256 . S
C106 O110 1.255 . S
O107 Co90 2.021 . S
O107 C100 1.259 . S
O108 Co92 2.117 . S
O108 C100 1.258 . S
O109 Co92 2.020 . S
O109 C106 1.256 . S
O110 Co90 2.062 . S
O110 C106 1.255 . S
O111 C91 1.259 . S
O111 Co92 2.021 . S
H112 C103 0.930 . S
H113 C102 0.931 . S
O114 Co90 2.117 . S
O114 C91 1.258 . S
O115 Co90 2.020 . S
O115 C117 1.256 . S
O116 Co92 2.062 . S
O116 C117 1.255 . S
C117 O115 1.256 . S
C117 O116 1.255 . S
H118 C97 0.931 . S
H119 C105 0.931 . S
Co120 N125 2.057 . S
Co120 O137 2.021 . S
Co120 O140 2.062 . S
Co120 O144 2.117 . S
Co120 O145 2.020 . S
C121 O141 1.259 . S
C121 O144 1.258 . S
Co122 N131 2.057 . S
Co122 O138 2.117 . S
Co122 O139 2.020 . S
Co122 O141 2.021 . S
Co122 O146 2.062 . S
C123 N125 1.316 . S
C123 N126 1.347 . S
C123 H128 0.931 . S
C124 N125 1.375 . S
C124 C127 1.350 . S
C124 H129 0.930 . S
N125 Co120 2.057 . S
N125 C123 1.316 . S
N125 C124 1.375 . S
N126 C123 1.347 . S
N126 C127 1.373 . S
C127 C124 1.350 . S
C127 N126 1.373 . S
C127 H148 0.931 1_655 S
H128 C123 0.931 . S
H129 C124 0.930 . S
C130 O137 1.259 . S
C130 O138 1.258 . S
N131 Co122 2.057 . S
N131 C132 1.316 . S
N131 C133 1.375 . S
C132 N131 1.316 . S
C132 N134 1.347 . S
C132 H143 0.931 . S
C133 N131 1.375 . S
C133 C135 1.350 . S
C133 H142 0.930 . S
N134 C132 1.347 . S
N134 C135 1.373 . S
C135 C133 1.350 . S
C135 N134 1.373 . S
C135 H149 0.931 . S
C136 O139 1.256 . S
C136 O140 1.255 . S
O137 Co120 2.021 . S
O137 C130 1.259 . S
O138 Co122 2.117 . S
O138 C130 1.258 . S
O139 Co122 2.020 . S
O139 C136 1.256 . S
O140 Co120 2.062 . S
O140 C136 1.255 . S
O141 C121 1.259 . S
O141 Co122 2.021 . S
H142 C133 0.930 . S
H143 C132 0.931 . S
O144 Co120 2.117 . S
O144 C121 1.258 . S
O145 Co120 2.020 . S
O145 C147 1.256 . S
O146 Co122 2.062 . S
O146 C147 1.255 . S
C147 O145 1.256 . S
C147 O146 1.255 . S
H148 C127 0.931 1_455 S
H149 C135 0.931 . S
Co150 N155 2.057 . S
Co150 O167 2.021 . S
Co150 O170 2.062 . S
Co150 O174 2.117 . S
Co150 O175 2.020 . S
C151 O171 1.259 . S
C151 O174 1.258 . S
Co152 N161 2.057 . S
Co152 O168 2.117 . S
Co152 O169 2.020 . S
Co152 O171 2.021 . S
Co152 O176 2.062 . S
C153 N155 1.316 1_455 S
C153 N156 1.347 . S
C153 H158 0.931 . S
C154 N155 1.375 . S
C154 C157 1.350 1_655 S
C154 H159 0.930 . S
N155 Co150 2.057 . S
N155 C153 1.316 1_655 S
N155 C154 1.375 . S
N156 C153 1.347 . S
N156 C157 1.373 . S
C157 C154 1.350 1_455 S
C157 N156 1.373 . S
C157 H178 0.931 . S
H158 C153 0.931 . S
H159 C154 0.930 . S
C160 O167 1.259 . S
C160 O168 1.258 . S
N161 Co152 2.057 . S
N161 C162 1.316 . S
N161 C163 1.375 . S
C162 N161 1.316 . S
C162 N164 1.347 . S
C162 H173 0.931 . S
C163 N161 1.375 . S
C163 C165 1.350 . S
C163 H172 0.930 . S
N164 C162 1.347 . S
N164 C165 1.373 . S
C165 C163 1.350 . S
C165 N164 1.373 . S
C165 H179 0.931 . S
C166 O169 1.256 . S
C166 O170 1.255 . S
O167 Co150 2.021 . S
O167 C160 1.259 . S
O168 Co152 2.117 . S
O168 C160 1.258 . S
O169 Co152 2.020 . S
O169 C166 1.256 . S
O170 Co150 2.062 . S
O170 C166 1.255 . S
O171 C151 1.259 . S
O171 Co152 2.021 . S
H172 C163 0.930 . S
H173 C162 0.931 . S
O174 Co150 2.117 . S
O174 C151 1.258 . S
O175 Co150 2.020 . S
O175 C177 1.256 . S
O176 Co152 2.062 . S
O176 C177 1.255 . S
C177 O175 1.256 . S
C177 O176 1.255 . S
H178 C157 0.931 . S
H179 C165 0.931 . S
Co180 N185 2.057 . S
Co180 O197 2.021 . S
Co180 O200 2.062 . S
Co180 O204 2.117 . S
Co180 O205 2.020 . S
C181 O201 1.259 . S
C181 O204 1.258 . S
Co182 N191 2.057 . S
Co182 O198 2.117 . S
Co182 O199 2.020 . S
Co182 O201 2.021 . S
Co182 O206 2.062 . S
C183 N185 1.316 . S
C183 N186 1.347 . S
C183 H188 0.931 . S
C184 N185 1.375 . S
C184 C187 1.350 . S
C184 H189 0.930 . S
N185 Co180 2.057 . S
N185 C183 1.316 . S
N185 C184 1.375 . S
N186 C183 1.347 . S
N186 C187 1.373 . S
C187 C184 1.350 . S
C187 N186 1.373 . S
C187 H208 0.931 . S
H188 C183 0.931 . S
H189 C184 0.930 . S
C190 O197 1.259 . S
C190 O198 1.258 . S
N191 Co182 2.057 . S
N191 C192 1.316 . S
N191 C193 1.375 . S
C192 N191 1.316 . S
C192 N194 1.347 . S
C192 H203 0.931 . S
C193 N191 1.375 . S
C193 C195 1.350 . S
C193 H202 0.930 . S
N194 C192 1.347 . S
N194 C195 1.373 . S
C195 C193 1.350 . S
C195 N194 1.373 . S
C195 H209 0.931 . S
C196 O199 1.256 . S
C196 O200 1.255 . S
O197 Co180 2.021 . S
O197 C190 1.259 . S
O198 Co182 2.117 . S
O198 C190 1.258 . S
O199 Co182 2.020 . S
O199 C196 1.256 . S
O200 Co180 2.062 . S
O200 C196 1.255 . S
O201 C181 1.259 . S
O201 Co182 2.021 . S
H202 C193 0.930 . S
H203 C192 0.931 . S
O204 Co180 2.117 . S
O204 C181 1.258 . S
O205 Co180 2.020 . S
O205 C207 1.256 . S
O206 Co182 2.062 . S
O206 C207 1.255 . S
C207 O205 1.256 . S
C207 O206 1.255 . S
H208 C187 0.931 . S
H209 C195 0.931 . S
Co210 N215 2.057 . S
Co210 O227 2.021 . S
Co210 O230 2.062 . S
Co210 O234 2.117 . S
Co210 O235 2.020 . S
C211 O231 1.259 . S
C211 O234 1.258 . S
Co212 N221 2.057 . S
Co212 O228 2.117 . S
Co212 O229 2.020 . S
Co212 O231 2.021 . S
Co212 O236 2.062 . S
C213 N215 1.316 . S
C213 N216 1.347 . S
C213 H218 0.931 . S
C214 N215 1.375 . S
C214 C217 1.350 . S
C214 H219 0.930 . S
N215 Co210 2.057 . S
N215 C213 1.316 . S
N215 C214 1.375 . S
N216 C213 1.347 . S
N216 C217 1.373 . S
C217 C214 1.350 . S
C217 N216 1.373 . S
C217 H238 0.931 1_455 S
H218 C213 0.931 . S
H219 C214 0.930 . S
C220 O227 1.259 . S
C220 O228 1.258 . S
N221 Co212 2.057 . S
N221 C222 1.316 . S
N221 C223 1.375 . S
C222 N221 1.316 . S
C222 N224 1.347 . S
C222 H233 0.931 . S
C223 N221 1.375 . S
C223 C225 1.350 . S
C223 H232 0.930 . S
N224 C222 1.347 . S
N224 C225 1.373 . S
C225 C223 1.350 . S
C225 N224 1.373 . S
C225 H239 0.931 . S
C226 O229 1.256 . S
C226 O230 1.255 . S
O227 Co210 2.021 . S
O227 C220 1.259 . S
O228 Co212 2.117 . S
O228 C220 1.258 . S
O229 Co212 2.020 . S
O229 C226 1.256 . S
O230 Co210 2.062 . S
O230 C226 1.255 . S
O231 C211 1.259 . S
O231 Co212 2.021 . S
H232 C223 0.930 . S
H233 C222 0.931 . S
O234 Co210 2.117 . S
O234 C211 1.258 . S
O235 Co210 2.020 . S
O235 C237 1.256 . S
O236 Co212 2.062 . S
O236 C237 1.255 . S
C237 O235 1.256 . S
C237 O236 1.255 . S
H238 C217 0.931 1_655 S
H239 C225 0.931 . S
Co240 N245 2.057 . S
Co240 O257 2.021 . S
Co240 O260 2.062 . S
Co240 O264 2.117 . S
Co240 O265 2.020 . S
C241 O261 1.259 . S
C241 O264 1.258 . S
Co242 N251 2.057 . S
Co242 O258 2.117 . S
Co242 O259 2.020 . S
Co242 O261 2.021 . S
Co242 O266 2.062 . S
C243 N245 1.316 . S
C243 N246 1.347 . S
C243 H248 0.931 . S
C244 N245 1.375 . S
C244 C247 1.350 . S
C244 H249 0.930 . S
N245 Co240 2.057 . S
N245 C243 1.316 . S
N245 C244 1.375 . S
N246 C243 1.347 . S
N246 C247 1.373 . S
C247 C244 1.350 . S
C247 N246 1.373 . S
C247 H268 0.931 . S
H248 C243 0.931 . S
H249 C244 0.930 . S
C250 O257 1.259 . S
C250 O258 1.258 . S
N251 Co242 2.057 . S
N251 C252 1.316 . S
N251 C253 1.375 . S
C252 N251 1.316 . S
C252 N254 1.347 . S
C252 H263 0.931 . S
C253 N251 1.375 . S
C253 C255 1.350 . S
C253 H262 0.930 . S
N254 C252 1.347 . S
N254 C255 1.373 . S
C255 C253 1.350 . S
C255 N254 1.373 . S
C255 H269 0.931 1_565 S
C256 O259 1.256 . S
C256 O260 1.255 . S
O257 Co240 2.021 . S
O257 C250 1.259 . S
O258 Co242 2.117 . S
O258 C250 1.258 . S
O259 Co242 2.020 . S
O259 C256 1.256 . S
O260 Co240 2.062 . S
O260 C256 1.255 . S
O261 C241 1.259 . S
O261 Co242 2.021 . S
H262 C253 0.930 . S
H263 C252 0.931 . S
O264 Co240 2.117 . S
O264 C241 1.258 . S
O265 Co240 2.020 . S
O265 C267 1.256 . S
O266 Co242 2.062 . S
O266 C267 1.255 . S
C267 O265 1.256 . S
C267 O266 1.255 . S
H268 C247 0.931 . S
H269 C255 0.931 1_545 S
Co270 N275 2.057 . S
Co270 O287 2.021 . S
Co270 O290 2.062 . S
Co270 O294 2.117 . S
Co270 O295 2.020 . S
C271 O291 1.259 . S
C271 O294 1.258 . S
Co272 N281 2.057 . S
Co272 O288 2.117 . S
Co272 O289 2.020 . S
Co272 O291 2.021 . S
Co272 O296 2.062 . S
C273 N275 1.316 . S
C273 N276 1.347 . S
C273 H278 0.931 . S
C274 N275 1.375 . S
C274 C277 1.350 . S
C274 H279 0.930 . S
N275 Co270 2.057 . S
N275 C273 1.316 . S
N275 C274 1.375 . S
N276 C273 1.347 . S
N276 C277 1.373 . S
C277 C274 1.350 . S
C277 N276 1.373 . S
C277 H298 0.931 . S
H278 C273 0.931 . S
H279 C274 0.930 . S
C280 O287 1.259 . S
C280 O288 1.258 . S
N281 Co272 2.057 . S
N281 C282 1.316 . S
N281 C283 1.375 . S
C282 N281 1.316 . S
C282 N284 1.347 . S
C282 H293 0.931 . S
C283 N281 1.375 . S
C283 C285 1.350 . S
C283 H292 0.930 . S
N284 C282 1.347 . S
N284 C285 1.373 . S
C285 C283 1.350 . S
C285 N284 1.373 . S
C285 H299 0.931 . S
C286 O289 1.256 . S
C286 O290 1.255 . S
O287 Co270 2.021 . S
O287 C280 1.259 . S
O288 Co272 2.117 . S
O288 C280 1.258 . S
O289 Co272 2.020 . S
O289 C286 1.256 . S
O290 Co270 2.062 . S
O290 C286 1.255 . S
O291 C271 1.259 . S
O291 Co272 2.021 . S
H292 C283 0.930 . S
H293 C282 0.931 . S
O294 Co270 2.117 . S
O294 C271 1.258 . S
O295 Co270 2.020 . S
O295 C297 1.256 . S
O296 Co272 2.062 . S
O296 C297 1.255 . S
C297 O295 1.256 . S
C297 O296 1.255 . S
H298 C277 0.931 . S
H299 C285 0.931 . S
Co300 N305 2.057 . S
Co300 O317 2.021 . S
Co300 O320 2.062 . S
Co300 O324 2.117 . S
Co300 O325 2.020 . S
C301 O321 1.259 . S
C301 O324 1.258 . S
Co302 N311 2.057 . S
Co302 O318 2.117 . S
Co302 O319 2.020 . S
Co302 O321 2.021 . S
Co302 O326 2.062 . S
C303 N305 1.316 . S
C303 N306 1.347 . S
C303 H308 0.931 . S
C304 N305 1.375 . S
C304 C307 1.350 . S
C304 H309 0.930 . S
N305 Co300 2.057 . S
N305 C303 1.316 . S
N305 C304 1.375 . S
N306 C303 1.347 . S
N306 C307 1.373 . S
C307 C304 1.350 . S
C307 N306 1.373 . S
C307 H328 0.931 . S
H308 C303 0.931 . S
H309 C304 0.930 . S
C310 O317 1.259 . S
C310 O318 1.258 . S
N311 Co302 2.057 . S
N311 C312 1.316 . S
N311 C313 1.375 . S
C312 N311 1.316 . S
C312 N314 1.347 . S
C312 H323 0.931 . S
C313 N311 1.375 . S
C313 C315 1.350 . S
C313 H322 0.930 . S
N314 C312 1.347 . S
N314 C315 1.373 . S
C315 C313 1.350 . S
C315 N314 1.373 . S
C315 H329 0.931 1_455 S
C316 O319 1.256 . S
C316 O320 1.255 . S
O317 Co300 2.021 . S
O317 C310 1.259 . S
O318 Co302 2.117 . S
O318 C310 1.258 . S
O319 Co302 2.020 . S
O319 C316 1.256 . S
O320 Co300 2.062 . S
O320 C316 1.255 . S
O321 C301 1.259 . S
O321 Co302 2.021 . S
H322 C313 0.930 . S
H323 C312 0.931 . S
O324 Co300 2.117 . S
O324 C301 1.258 . S
O325 Co300 2.020 . S
O325 C327 1.256 . S
O326 Co302 2.062 . S
O326 C327 1.255 . S
C327 O325 1.256 . S
C327 O326 1.255 . S
H328 C307 0.931 . S
H329 C315 0.931 1_655 S
Co330 N335 2.057 . S
Co330 O347 2.021 . S
Co330 O350 2.062 . S
Co330 O354 2.117 . S
Co330 O355 2.020 . S
C331 O351 1.259 . S
C331 O354 1.258 . S
Co332 N341 2.057 . S
Co332 O348 2.117 . S
Co332 O349 2.020 . S
Co332 O351 2.021 . S
Co332 O356 2.062 . S
C333 N335 1.316 . S
C333 N336 1.347 . S
C333 H338 0.931 . S
C334 N335 1.375 . S
C334 C337 1.350 . S
C334 H339 0.930 . S
N335 Co330 2.057 . S
N335 C333 1.316 . S
N335 C334 1.375 . S
N336 C333 1.347 . S
N336 C337 1.373 . S
C337 C334 1.350 . S
C337 N336 1.373 . S
C337 H358 0.931 1_565 S
H338 C333 0.931 . S
H339 C334 0.930 . S
C340 O347 1.259 . S
C340 O348 1.258 . S
N341 Co332 2.057 . S
N341 C342 1.316 . S
N341 C343 1.375 . S
C342 N341 1.316 . S
C342 N344 1.347 . S
C342 H353 0.931 . S
C343 N341 1.375 . S
C343 C345 1.350 . S
C343 H352 0.930 . S
N344 C342 1.347 . S
N344 C345 1.373 . S
C345 C343 1.350 . S
C345 N344 1.373 . S
C345 H359 0.931 . S
C346 O349 1.256 . S
C346 O350 1.255 . S
O347 Co330 2.021 . S
O347 C340 1.259 . S
O348 Co332 2.117 . S
O348 C340 1.258 . S
O349 Co332 2.020 . S
O349 C346 1.256 . S
O350 Co330 2.062 . S
O350 C346 1.255 . S
O351 C331 1.259 . S
O351 Co332 2.021 . S
H352 C343 0.930 . S
H353 C342 0.931 . S
O354 Co330 2.117 . S
O354 C331 1.258 . S
O355 Co330 2.020 . S
O355 C357 1.256 . S
O356 Co332 2.062 . S
O356 C357 1.255 . S
C357 O355 1.256 . S
C357 O356 1.255 . S
H358 C337 0.931 1_545 S
H359 C345 0.931 . S
H360 C372 0.930 . S
H361 C374 0.930 . S
H362 C375 0.930 . S
H363 C379 0.959 . S
H364 C379 0.959 . S
H365 C379 0.961 . S
H366 C380 0.960 1_655 S
H367 C380 0.961 . S
H368 C380 0.959 . S
H369 C383 0.929 . S
H370 C384 0.931 . S
H371 C386 0.930 . S
C372 H360 0.930 . S
C372 C373 1.399 . S
C372 C377 1.399 1_655 S
C373 C372 1.399 . S
C373 C374 1.376 . S
C374 H361 0.930 . S
C374 C373 1.376 . S
C374 C375 1.388 1_655 S
C375 H362 0.930 . S
C375 C374 1.388 1_455 S
C375 C376 1.390 . S
C376 C375 1.390 . S
C376 C377 1.394 . S
C376 C382 1.465 . S
C377 C372 1.399 1_455 S
C377 C376 1.394 . S
C377 C378 1.516 . S
C378 C377 1.516 . S
C378 C379 1.502 . S
C378 C380 1.561 . S
C378 C381 1.526 . S
C379 H363 0.959 . S
C379 H364 0.959 . S
C379 H365 0.961 . S
C379 C378 1.502 . S
C380 H366 0.960 1_455 S
C380 H367 0.961 . S
C380 H368 0.959 . S
C380 C378 1.561 . S
C381 C378 1.526 . S
C381 C382 1.396 . S
C381 C386 1.390 . S
C382 C376 1.465 . S
C382 C381 1.396 . S
C382 C383 1.399 . S
C383 H369 0.929 . S
C383 C382 1.399 . S
C383 C384 1.385 . S
C384 H370 0.931 . S
C384 C383 1.385 . S
C384 C385 1.389 . S
C385 C384 1.389 . S
C385 C386 1.387 . S
C386 H371 0.930 . S
C386 C381 1.390 . S
C386 C385 1.387 . S
H387 C399 0.930 . S
H388 C401 0.930 . S
H389 C402 0.930 . S
H390 C406 0.959 . S
H391 C406 0.959 1_655 S
H392 C406 0.961 . S
H393 C407 0.960 . S
H394 C407 0.961 . S
H395 C407 0.959 . S
H396 C410 0.929 1_455 S
H397 C411 0.931 . S
H398 C413 0.930 . S
C399 H387 0.930 . S
C399 C400 1.399 . S
C399 C404 1.399 . S
C400 C399 1.399 . S
C400 C401 1.376 . S
C401 H388 0.930 . S
C401 C400 1.376 . S
C401 C402 1.388 . S
C402 H389 0.930 . S
C402 C401 1.388 . S
C402 C403 1.390 . S
C403 C402 1.390 . S
C403 C404 1.394 . S
C403 C409 1.465 . S
C404 C399 1.399 . S
C404 C403 1.394 . S
C404 C405 1.516 . S
C405 C404 1.516 . S
C405 C406 1.502 . S
C405 C407 1.561 . S
C405 C408 1.526 1_455 S
C406 H390 0.959 . S
C406 H391 0.959 1_455 S
C406 H392 0.961 . S
C406 C405 1.502 . S
C407 H393 0.960 . S
C407 H394 0.961 . S
C407 H395 0.959 . S
C407 C405 1.561 . S
C408 C405 1.526 1_655 S
C408 C409 1.396 1_655 S
C408 C413 1.390 . S
C409 C403 1.465 . S
C409 C408 1.396 1_455 S
C409 C410 1.399 1_455 S
C410 H396 0.929 1_655 S
C410 C409 1.399 1_655 S
C410 C411 1.385 . S
C411 H397 0.931 . S
C411 C410 1.385 . S
C411 C412 1.389 . S
C412 C411 1.389 . S
C412 C413 1.387 . S
C413 H398 0.930 . S
C413 C408 1.390 . S
C413 C412 1.387 . S
H414 C426 0.930 . S
H415 C428 0.930 1_545 S
H416 C429 0.930 . S
H417 C433 0.959 . S
H418 C433 0.959 . S
H419 C433 0.961 . S
H420 C434 0.960 . S
H421 C434 0.961 . S
H422 C434 0.959 . S
H423 C437 0.929 . S
H424 C438 0.931 . S
H425 C440 0.930 . S
C426 H414 0.930 . S
C426 C427 1.399 . S
C426 C431 1.399 . S
C427 C426 1.399 . S
C427 C428 1.376 . S
C428 H415 0.930 1_565 S
C428 C427 1.376 . S
C428 C429 1.388 . S
C429 H416 0.930 . S
C429 C428 1.388 . S
C429 C430 1.390 . S
C430 C429 1.390 . S
C430 C431 1.394 . S
C430 C436 1.465 . S
C431 C426 1.399 . S
C431 C430 1.394 . S
C431 C432 1.516 . S
C432 C431 1.516 . S
C432 C433 1.502 . S
C432 C434 1.561 . S
C432 C435 1.526 . S
C433 H417 0.959 . S
C433 H418 0.959 . S
C433 H419 0.961 . S
C433 C432 1.502 . S
C434 H420 0.960 . S
C434 H421 0.961 . S
C434 H422 0.959 . S
C434 C432 1.561 . S
C435 C432 1.526 . S
C435 C436 1.396 . S
C435 C440 1.390 . S
C436 C430 1.465 . S
C436 C435 1.396 . S
C436 C437 1.399 . S
C437 H423 0.929 . S
C437 C436 1.399 . S
C437 C438 1.385 . S
C438 H424 0.931 . S
C438 C437 1.385 . S
C438 C439 1.389 . S
C439 C438 1.389 . S
C439 C440 1.387 . S
C440 H425 0.930 . S
C440 C435 1.390 . S
C440 C439 1.387 . S
H441 C453 0.930 . S
H442 C455 0.930 . S
H443 C456 0.930 . S
H444 C460 0.959 . S
H445 C460 0.959 . S
H446 C460 0.961 . S
H447 C461 0.960 . S
H448 C461 0.961 . S
H449 C461 0.959 . S
H450 C464 0.929 . S
H451 C465 0.931 . S
H452 C467 0.930 . S
C453 H441 0.930 . S
C453 C454 1.399 . S
C453 C458 1.399 . S
C454 C453 1.399 . S
C454 C455 1.376 . S
C455 H442 0.930 . S
C455 C454 1.376 . S
C455 C456 1.388 . S
C456 H443 0.930 . S
C456 C455 1.388 . S
C456 C457 1.390 . S
C457 C456 1.390 . S
C457 C458 1.394 . S
C457 C463 1.465 . S
C458 C453 1.399 . S
C458 C457 1.394 . S
C458 C459 1.516 . S
C459 C458 1.516 . S
C459 C460 1.502 . S
C459 C461 1.561 . S
C459 C462 1.526 . S
C460 H444 0.959 . S
C460 H445 0.959 . S
C460 H446 0.961 . S
C460 C459 1.502 . S
C461 H447 0.960 . S
C461 H448 0.961 . S
C461 H449 0.959 . S
C461 C459 1.561 . S
C462 C459 1.526 . S
C462 C463 1.396 . S
C462 C467 1.390 . S
C463 C457 1.465 . S
C463 C462 1.396 . S
C463 C464 1.399 . S
C464 H450 0.929 . S
C464 C463 1.399 . S
C464 C465 1.385 . S
C465 H451 0.931 . S
C465 C464 1.385 . S
C465 C466 1.389 . S
C466 C465 1.389 . S
C466 C467 1.387 . S
C467 H452 0.930 . S
C467 C462 1.390 . S
C467 C466 1.387 . S
H468 C480 0.930 . S
H469 C482 0.930 . S
H470 C483 0.930 . S
H471 C487 0.959 . S
H472 C487 0.959 . S
H473 C487 0.961 1_545 S
H474 C488 0.960 . S
H475 C488 0.961 . S
H476 C488 0.959 . S
H477 C491 0.929 . S
H478 C492 0.931 . S
H479 C494 0.930 . S
C480 H468 0.930 . S
C480 C481 1.399 . S
C480 C485 1.399 1_545 S
C481 C480 1.399 . S
C481 C482 1.376 1_545 S
C482 H469 0.930 . S
C482 C481 1.376 1_565 S
C482 C483 1.388 . S
C483 H470 0.930 . S
C483 C482 1.388 . S
C483 C484 1.390 . S
C484 C483 1.390 . S
C484 C485 1.394 . S
C484 C490 1.465 . S
C485 C480 1.399 1_565 S
C485 C484 1.394 . S
C485 C486 1.516 . S
C486 C485 1.516 . S
C486 C487 1.502 . S
C486 C488 1.561 . S
C486 C489 1.526 . S
C487 H471 0.959 . S
C487 H472 0.959 . S
C487 H473 0.961 1_565 S
C487 C486 1.502 . S
C488 H474 0.960 . S
C488 H475 0.961 . S
C488 H476 0.959 . S
C488 C486 1.561 . S
C489 C486 1.526 . S
C489 C490 1.396 . S
C489 C494 1.390 . S
C490 C484 1.465 . S
C490 C489 1.396 . S
C490 C491 1.399 . S
C491 H477 0.929 . S
C491 C490 1.399 . S
C491 C492 1.385 . S
C492 H478 0.931 . S
C492 C491 1.385 . S
C492 C493 1.389 . S
C493 C492 1.389 . S
C493 C494 1.387 . S
C494 H479 0.930 . S
C494 C489 1.390 . S
C494 C493 1.387 . S
H495 C507 0.930 . S
H496 C509 0.930 . S
H497 C510 0.930 . S
H498 C514 0.959 . S
H499 C514 0.959 . S
H500 C514 0.961 . S
H501 C515 0.960 . S
H502 C515 0.961 . S
H503 C515 0.959 . S
H504 C518 0.929 . S
H505 C519 0.931 . S
H506 C521 0.930 . S
C507 H495 0.930 . S
C507 C508 1.399 . S
C507 C512 1.399 . S
C508 C507 1.399 . S
C508 C509 1.376 . S
C509 H496 0.930 . S
C509 C508 1.376 . S
C509 C510 1.388 . S
C510 H497 0.930 . S
C510 C509 1.388 . S
C510 C511 1.390 . S
C511 C510 1.390 . S
C511 C512 1.394 . S
C511 C517 1.465 . S
C512 C507 1.399 . S
C512 C511 1.394 . S
C512 C513 1.516 . S
C513 C512 1.516 . S
C513 C514 1.502 . S
C513 C515 1.561 . S
C513 C516 1.545 . S
C514 H498 0.959 . S
C514 H499 0.959 . S
C514 H500 0.961 . S
C514 C513 1.502 . S
C515 H501 0.960 . S
C515 H502 0.961 . S
C515 H503 0.959 . S
C515 C513 1.561 . S
C516 C513 1.545 . S
C516 C517 1.404 . S
C516 C521 1.366 1_565 S
C517 C511 1.465 . S
C517 C516 1.404 . S
C517 C518 1.399 1_565 S
C518 H504 0.929 . S
C518 C517 1.399 1_545 S
C518 C519 1.385 . S
C519 H505 0.931 . S
C519 C518 1.385 . S
C519 C520 1.389 . S
C520 C519 1.389 . S
C520 C521 1.387 . S
C521 H506 0.930 . S
C521 C516 1.366 1_545 S
C521 C520 1.387 . S
H522 C534 0.930 1_565 S
H523 C536 0.930 . S
H524 C537 0.930 . S
H525 C541 0.959 . S
H526 C541 0.959 . S
H527 C541 0.961 . S
H528 C542 0.960 . S
H529 C542 0.961 . S
H530 C542 0.959 . S
H531 C545 0.929 . S
H532 C546 0.931 . S
H533 C548 0.930 . S
C534 H522 0.930 1_545 S
C534 C535 1.399 1_545 S
C534 C539 1.399 . S
C535 C534 1.399 1_565 S
C535 C536 1.376 . S
C536 H523 0.930 . S
C536 C535 1.376 . S
C536 C537 1.388 1_565 S
C537 H524 0.930 . S
C537 C536 1.388 1_545 S
C537 C538 1.390 . S
C538 C537 1.390 . S
C538 C539 1.394 . S
C538 C544 1.465 . S
C539 C534 1.399 . S
C539 C538 1.394 . S
C539 C540 1.516 . S
C540 C539 1.516 . S
C540 C541 1.502 . S
C540 C542 1.561 . S
C540 C543 1.526 . S
C541 H525 0.959 . S
C541 H526 0.959 . S
C541 H527 0.961 . S
C541 C540 1.502 . S
C542 H528 0.960 . S
C542 H529 0.961 . S
C542 H530 0.959 . S
C542 C540 1.561 . S
C543 C540 1.526 . S
C543 C544 1.396 . S
C543 C548 1.390 . S
C544 C538 1.465 . S
C544 C543 1.396 . S
C544 C545 1.399 . S
C545 H531 0.929 . S
C545 C544 1.399 . S
C545 C546 1.385 . S
C546 H532 0.931 . S
C546 C545 1.385 . S
C546 C547 1.389 . S
C547 C546 1.389 . S
C547 C548 1.387 . S
C548 H533 0.930 . S
C548 C543 1.390 . S
C548 C547 1.387 . S
H549 C561 0.930 . S
H550 C563 0.930 1_455 S
H551 C564 0.930 . S
H552 C568 0.959 . S
H553 C568 0.959 . S
H554 C568 0.961 . S
H555 C569 0.960 . S
H556 C569 0.961 . S
H557 C569 0.959 . S
H558 C572 0.929 . S
H559 C573 0.931 . S
H560 C575 0.930 . S
C561 H549 0.930 . S
C561 C562 1.399 . S
C561 C566 1.399 . S
C562 C561 1.399 . S
C562 C563 1.376 . S
C563 H550 0.930 1_655 S
C563 C562 1.376 . S
C563 C564 1.388 . S
C564 H551 0.930 . S
C564 C563 1.388 . S
C564 C565 1.390 . S
C565 C564 1.390 . S
C565 C566 1.394 . S
C565 C571 1.465 . S
C566 C561 1.399 . S
C566 C565 1.394 . S
C566 C567 1.516 . S
C567 C566 1.516 . S
C567 C568 1.502 . S
C567 C569 1.561 . S
C567 C570 1.526 . S
C568 H552 0.959 . S
C568 H553 0.959 . S
C568 H554 0.961 . S
C568 C567 1.502 . S
C569 H555 0.960 . S
C569 H556 0.961 . S
C569 H557 0.959 . S
C569 C567 1.561 . S
C570 C567 1.526 . S
C570 C571 1.396 . S
C570 C575 1.390 . S
C571 C565 1.465 . S
C571 C570 1.396 . S
C571 C572 1.399 . S
C572 H558 0.929 . S
C572 C571 1.399 . S
C572 C573 1.385 . S
C573 H559 0.931 . S
C573 C572 1.385 . S
C573 C574 1.389 . S
C574 C573 1.389 . S
C574 C575 1.387 . S
C575 H560 0.930 . S
C575 C570 1.390 . S
C575 C574 1.387 . S
H576 C588 0.930 . S
H577 C590 0.930 . S
H578 C591 0.930 . S
H579 C595 0.959 . S
H580 C595 0.959 . S
H581 C595 0.961 . S
H582 C596 0.960 . S
H583 C596 0.961 . S
H584 C596 0.959 . S
H585 C599 0.929 . S
H586 C600 0.931 . S
H587 C602 0.930 . S
C588 H576 0.930 . S
C588 C589 1.399 . S
C588 C593 1.399 . S
C589 C588 1.399 . S
C589 C590 1.376 . S
C590 H577 0.930 . S
C590 C589 1.376 . S
C590 C591 1.388 . S
C591 H578 0.930 . S
C591 C590 1.388 . S
C591 C592 1.390 . S
C592 C591 1.390 . S
C592 C593 1.394 . S
C592 C598 1.465 . S
C593 C588 1.399 . S
C593 C592 1.394 . S
C593 C594 1.516 . S
C594 C593 1.516 . S
C594 C595 1.502 . S
C594 C596 1.561 . S
C594 C597 1.526 . S
C595 H579 0.959 . S
C595 H580 0.959 . S
C595 H581 0.961 . S
C595 C594 1.502 . S
C596 H582 0.960 . S
C596 H583 0.961 . S
C596 H584 0.959 . S
C596 C594 1.561 . S
C597 C594 1.526 . S
C597 C598 1.396 . S
C597 C602 1.390 . S
C598 C592 1.465 . S
C598 C597 1.396 . S
C598 C599 1.399 . S
C599 H585 0.929 . S
C599 C598 1.399 . S
C599 C600 1.385 1_655 S
C600 H586 0.931 . S
C600 C599 1.385 1_455 S
C600 C601 1.389 . S
C601 C600 1.389 . S
C601 C602 1.387 1_455 S
C602 H587 0.930 . S
C602 C597 1.390 . S
C602 C601 1.387 1_655 S
H603 C615 0.930 . S
H604 C617 0.930 . S
H605 C618 0.930 . S
H606 C622 0.959 . S
H607 C622 0.959 . S
H608 C622 0.961 . S
H609 C623 0.960 . S
H610 C623 0.961 . S
H611 C623 0.959 . S
H612 C626 0.929 . S
H613 C627 0.931 . S
H614 C629 0.930 1_565 S
C615 H603 0.930 . S
C615 C616 1.399 . S
C615 C620 1.399 . S
C616 C615 1.399 . S
C616 C617 1.376 . S
C617 H604 0.930 . S
C617 C616 1.376 . S
C617 C618 1.388 . S
C618 H605 0.930 . S
C618 C617 1.388 . S
C618 C619 1.390 . S
C619 C618 1.390 . S
C619 C620 1.394 . S
C619 C625 1.465 . S
C620 C615 1.399 . S
C620 C619 1.394 . S
C620 C621 1.516 . S
C621 C620 1.516 . S
C621 C622 1.502 . S
C621 C623 1.561 . S
C621 C624 1.526 . S
C622 H606 0.959 . S
C622 H607 0.959 . S
C622 H608 0.961 . S
C622 C621 1.502 . S
C623 H609 0.960 . S
C623 H610 0.961 . S
C623 H611 0.959 . S
C623 C621 1.561 . S
C624 C621 1.526 . S
C624 C625 1.396 . S
C624 C629 1.390 . S
C625 C619 1.465 . S
C625 C624 1.396 . S
C625 C626 1.399 . S
C626 H612 0.929 . S
C626 C625 1.399 . S
C626 C627 1.385 1_545 S
C627 H613 0.931 . S
C627 C626 1.385 1_565 S
C627 C628 1.389 . S
C628 C627 1.389 . S
C628 C629 1.387 1_565 S
C629 H614 0.930 1_545 S
C629 C624 1.390 . S
C629 C628 1.387 1_545 S
H630 C642 0.930 . S
H631 C644 0.930 1_455 S
H632 C645 0.930 . S
H633 C649 0.959 . S
H634 C649 0.959 . S
H635 C649 0.961 . S
H636 C650 0.960 . S
H637 C650 0.961 . S
H638 C650 0.959 . S
H639 C653 0.929 . S
H640 C654 0.931 . S
H641 C656 0.930 . S
C642 H630 0.930 . S
C642 C643 1.399 . S
C642 C647 1.399 . S
C643 C642 1.399 . S
C643 C644 1.376 . S
C644 H631 0.930 1_655 S
C644 C643 1.376 . S
C644 C645 1.388 . S
C645 H632 0.930 . S
C645 C644 1.388 . S
C645 C646 1.390 . S
C646 C645 1.390 . S
C646 C647 1.394 . S
C646 C652 1.465 . S
C647 C642 1.399 . S
C647 C646 1.394 . S
C647 C648 1.516 . S
C648 C647 1.516 . S
C648 C649 1.502 . S
C648 C650 1.561 . S
C648 C651 1.526 . S
C649 H633 0.959 . S
C649 H634 0.959 . S
C649 H635 0.961 . S
C649 C648 1.502 . S
C650 H636 0.960 . S
C650 H637 0.961 . S
C650 H638 0.959 . S
C650 C648 1.561 . S
C651 C648 1.526 . S
C651 C652 1.396 . S
C651 C656 1.390 . S
C652 C646 1.465 . S
C652 C651 1.396 . S
C652 C653 1.399 . S
C653 H639 0.929 . S
C653 C652 1.399 . S
C653 C654 1.385 . S
C654 H640 0.931 . S
C654 C653 1.385 . S
C654 C655 1.389 . S
C655 C654 1.389 . S
C655 C656 1.387 . S
C656 H641 0.930 . S
C656 C651 1.390 . S
C656 C655 1.387 . S
H657 C669 0.930 . S
H658 C671 0.930 . S
H659 C672 0.930 1_455 S
H660 C676 0.959 . S
H661 C676 0.959 . S
H662 C676 0.961 . S
H663 C677 0.960 . S
H664 C677 0.961 . S
H665 C677 0.959 . S
H666 C680 0.929 . S
H667 C681 0.931 . S
H668 C683 0.930 . S
C669 H657 0.930 . S
C669 C670 1.399 1_655 S
C669 C674 1.399 . S
C670 C669 1.399 1_455 S
C670 C671 1.376 . S
C671 H658 0.930 . S
C671 C670 1.376 . S
C671 C672 1.388 1_455 S
C672 H659 0.930 1_655 S
C672 C671 1.388 1_655 S
C672 C673 1.390 . S
C673 C672 1.390 . S
C673 C674 1.394 . S
C673 C679 1.465 . S
C674 C669 1.399 . S
C674 C673 1.394 . S
C674 C675 1.516 . S
C675 C674 1.516 . S
C675 C676 1.502 . S
C675 C677 1.561 . S
C675 C678 1.526 . S
C676 H660 0.959 . S
C676 H661 0.959 . S
C676 H662 0.961 . S
C676 C675 1.502 . S
C677 H663 0.960 . S
C677 H664 0.961 . S
C677 H665 0.959 . S
C677 C675 1.561 . S
C678 C675 1.526 . S
C678 C679 1.396 . S
C678 C683 1.390 . S
C679 C673 1.465 . S
C679 C678 1.396 . S
C679 C680 1.399 . S
C680 H666 0.929 . S
C680 C679 1.399 . S
C680 C681 1.385 . S
C681 H667 0.931 . S
C681 C680 1.385 . S
C681 C682 1.389 . S
C682 C681 1.389 . S
C682 C683 1.387 . S
C683 H668 0.930 . S
C683 C678 1.390 . S
C683 C682 1.387 . S
H684 C696 0.930 . S
H685 C698 0.930 . S
H686 C699 0.930 . S
H687 C703 0.959 . S
H688 C703 0.959 . S
H689 C703 0.961 . S
H690 C704 0.960 . S
H691 C704 0.961 . S
H692 C704 0.959 . S
H693 C707 0.929 . S
H694 C708 0.931 . S
H695 C710 0.930 . S
C696 H684 0.930 . S
C696 C697 1.399 . S
C696 C701 1.399 . S
C697 C696 1.399 . S
C697 C698 1.376 . S
C698 H685 0.930 . S
C698 C697 1.376 . S
C698 C699 1.388 . S
C699 H686 0.930 . S
C699 C698 1.388 . S
C699 C700 1.390 . S
C700 C699 1.390 . S
C700 C701 1.394 . S
C700 C706 1.465 . S
C701 C696 1.399 . S
C701 C700 1.394 . S
C701 C702 1.516 . S
C702 C701 1.516 . S
C702 C703 1.502 . S
C702 C704 1.561 . S
C702 C705 1.526 . S
C703 H687 0.959 . S
C703 H688 0.959 . S
C703 H689 0.961 . S
C703 C702 1.502 . S
C704 H690 0.960 . S
C704 H691 0.961 . S
C704 H692 0.959 . S
C704 C702 1.561 . S
C705 C702 1.526 . S
C705 C706 1.396 . S
C705 C710 1.390 . S
C706 C700 1.465 . S
C706 C705 1.396 . S
C706 C707 1.399 . S
C707 H693 0.929 . S
C707 C706 1.399 . S
C707 C708 1.385 . S
C708 H694 0.931 . S
C708 C707 1.385 . S
C708 C709 1.389 . S
C709 C708 1.389 . S
C709 C710 1.387 . S
C710 H695 0.930 . S
C710 C705 1.390 . S
C710 C709 1.387 . S
H711 C723 0.930 . S
H712 C725 0.930 . S
H713 C726 0.930 . S
H714 C730 0.959 . S
H715 C730 0.959 . S
H716 C730 0.961 . S
H717 C731 0.960 . S
H718 C731 0.961 . S
H719 C731 0.959 . S
H720 C734 0.929 . S
H721 C735 0.931 . S
H722 C737 0.930 . S
C723 H711 0.930 . S
C723 C724 1.399 . S
C723 C728 1.399 . S
C724 C723 1.399 . S
C724 C725 1.376 . S
C725 H712 0.930 . S
C725 C724 1.376 . S
C725 C726 1.388 . S
C726 H713 0.930 . S
C726 C725 1.388 . S
C726 C727 1.390 . S
C727 C726 1.390 . S
C727 C728 1.394 . S
C727 C733 1.465 . S
C728 C723 1.399 . S
C728 C727 1.394 . S
C728 C729 1.516 . S
C729 C728 1.516 . S
C729 C730 1.502 . S
C729 C731 1.561 . S
C729 C732 1.526 . S
C730 H714 0.959 . S
C730 H715 0.959 . S
C730 H716 0.961 . S
C730 C729 1.502 . S
C731 H717 0.960 . S
C731 H718 0.961 . S
C731 H719 0.959 . S
C731 C729 1.561 . S
C732 C729 1.526 . S
C732 C733 1.396 . S
C732 C737 1.390 . S
C733 C727 1.465 . S
C733 C732 1.396 . S
C733 C734 1.399 . S
C734 H720 0.929 . S
C734 C733 1.399 . S
C734 C735 1.385 . S
C735 H721 0.931 . S
C735 C734 1.385 . S
C735 C736 1.389 . S
C736 C735 1.389 . S
C736 C737 1.387 . S
C737 H722 0.930 . S
C737 C732 1.390 . S
C737 C736 1.387 . S
H738 C750 0.930 . S
H739 C752 0.930 . S
H740 C753 0.930 . S
H741 C757 0.959 . S
H742 C757 0.959 . S
H743 C757 0.961 . S
H744 C758 0.960 . S
H745 C758 0.961 . S
H746 C758 0.959 . S
H747 C761 0.929 . S
H748 C762 0.931 . S
H749 C764 0.930 . S
C750 H738 0.930 . S
C750 C751 1.399 . S
C750 C755 1.399 . S
C751 C750 1.399 . S
C751 C752 1.376 . S
C752 H739 0.930 . S
C752 C751 1.376 . S
C752 C753 1.388 . S
C753 H740 0.930 . S
C753 C752 1.388 . S
C753 C754 1.390 . S
C754 C753 1.390 . S
C754 C755 1.394 . S
C754 C760 1.465 . S
C755 C750 1.399 . S
C755 C754 1.394 . S
C755 C756 1.516 . S
C756 C755 1.516 . S
C756 C757 1.502 . S
C756 C758 1.561 . S
C756 C759 1.526 . S
C757 H741 0.959 . S
C757 H742 0.959 . S
C757 H743 0.961 . S
C757 C756 1.502 . S
C758 H744 0.960 . S
C758 H745 0.961 . S
C758 H746 0.959 . S
C758 C756 1.561 . S
C759 C756 1.526 . S
C759 C760 1.396 . S
C759 C764 1.390 . S
C760 C754 1.465 . S
C760 C759 1.396 . S
C760 C761 1.399 . S
C761 H747 0.929 . S
C761 C760 1.399 . S
C761 C762 1.385 . S
C762 H748 0.931 . S
C762 C761 1.385 . S
C762 C763 1.389 . S
C763 C762 1.389 . S
C763 C764 1.387 . S
C764 H749 0.930 . S
C764 C759 1.390 . S
C764 C763 1.387 . S
H765 C777 0.930 . S
H766 C779 0.930 . S
H767 C780 0.930 . S
H768 C784 0.959 . S
H769 C784 0.959 . S
H770 C784 0.961 . S
H771 C785 0.960 . S
H772 C785 0.961 . S
H773 C785 0.959 . S
H774 C788 0.929 . S
H775 C789 0.931 . S
H776 C791 0.930 . S
C777 H765 0.930 . S
C777 C778 1.399 . S
C777 C782 1.399 . S
C778 C777 1.399 . S
C778 C779 1.376 . S
C779 H766 0.930 . S
C779 C778 1.376 . S
C779 C780 1.388 . S
C780 H767 0.930 . S
C780 C779 1.388 . S
C780 C781 1.390 . S
C781 C780 1.390 . S
C781 C782 1.394 . S
C781 C787 1.465 . S
C782 C777 1.399 . S
C782 C781 1.394 . S
C782 C783 1.516 . S
C783 C782 1.516 . S
C783 C784 1.502 . S
C783 C785 1.561 . S
C783 C786 1.526 . S
C784 H768 0.959 . S
C784 H769 0.959 . S
C784 H770 0.961 . S
C784 C783 1.502 . S
C785 H771 0.960 . S
C785 H772 0.961 . S
C785 H773 0.959 . S
C785 C783 1.561 . S
C786 C783 1.526 . S
C786 C787 1.396 . S
C786 C791 1.390 . S
C787 C781 1.465 . S
C787 C786 1.396 . S
C787 C788 1.399 . S
C788 H774 0.929 . S
C788 C787 1.399 . S
C788 C789 1.385 . S
C789 H775 0.931 . S
C789 C788 1.385 . S
C789 C790 1.389 . S
C790 C789 1.389 . S
C790 C791 1.387 . S
C791 H776 0.930 . S
C791 C786 1.390 . S
C791 C790 1.387 . S
H792 C804 0.930 . S
H793 C806 0.930 . S
H794 C807 0.930 . S
H795 C811 0.959 . S
H796 C811 0.959 . S
H797 C811 0.961 . S
H798 C812 0.960 . S
H799 C812 0.961 . S
H800 C812 0.959 . S
H801 C815 0.929 . S
H802 C816 0.931 . S
H803 C818 0.930 . S
C804 H792 0.930 . S
C804 C805 1.399 . S
C804 C809 1.399 . S
C805 C804 1.399 . S
C805 C806 1.376 . S
C806 H793 0.930 . S
C806 C805 1.376 . S
C806 C807 1.388 . S
C807 H794 0.930 . S
C807 C806 1.388 . S
C807 C808 1.390 . S
C808 C807 1.390 . S
C808 C809 1.394 . S
C808 C814 1.465 . S
C809 C804 1.399 . S
C809 C808 1.394 . S
C809 C810 1.516 . S
C810 C809 1.516 . S
C810 C811 1.502 . S
C810 C812 1.561 . S
C810 C813 1.526 . S
C811 H795 0.959 . S
C811 H796 0.959 . S
C811 H797 0.961 . S
C811 C810 1.502 . S
C812 H798 0.960 . S
C812 H799 0.961 . S
C812 H800 0.959 . S
C812 C810 1.561 . S
C813 C810 1.526 . S
C813 C814 1.396 . S
C813 C818 1.390 . S
C814 C808 1.465 . S
C814 C813 1.396 . S
C814 C815 1.399 . S
C815 H801 0.929 . S
C815 C814 1.399 . S
C815 C816 1.385 . S
C816 H802 0.931 . S
C816 C815 1.385 . S
C816 C817 1.389 . S
C817 C816 1.389 . S
C817 C818 1.387 . S
C818 H803 0.930 . S
C818 C813 1.390 . S
C818 C817 1.387 . S
H819 C831 0.930 . S
H820 C833 0.930 . S
H821 C834 0.930 . S
H822 C838 0.959 . S
H823 C838 0.959 . S
H824 C838 0.961 . S
H825 C839 0.960 . S
H826 C839 0.961 . S
H827 C839 0.959 . S
H828 C842 0.929 . S
H829 C843 0.931 . S
H830 C845 0.930 . S
C831 H819 0.930 . S
C831 C832 1.399 . S
C831 C836 1.399 . S
C832 C831 1.399 . S
C832 C833 1.376 . S
C833 H820 0.930 . S
C833 C832 1.376 . S
C833 C834 1.388 . S
C834 H821 0.930 . S
C834 C833 1.388 . S
C834 C835 1.390 . S
C835 C834 1.390 . S
C835 C836 1.394 . S
C835 C841 1.465 . S
C836 C831 1.399 . S
C836 C835 1.394 . S
C836 C837 1.516 . S
C837 C836 1.516 . S
C837 C838 1.502 . S
C837 C839 1.561 . S
C837 C840 1.526 . S
C838 H822 0.959 . S
C838 H823 0.959 . S
C838 H824 0.961 . S
C838 C837 1.502 . S
C839 H825 0.960 . S
C839 H826 0.961 . S
C839 H827 0.959 . S
C839 C837 1.561 . S
C840 C837 1.526 . S
C840 C841 1.396 . S
C840 C845 1.390 . S
C841 C835 1.465 . S
C841 C840 1.396 . S
C841 C842 1.399 . S
C842 H828 0.929 . S
C842 C841 1.399 . S
C842 C843 1.385 . S
C843 H829 0.931 . S
C843 C842 1.385 . S
C843 C844 1.389 . S
C844 C843 1.389 . S
C844 C845 1.387 . S
C845 H830 0.930 . S
C845 C840 1.390 . S
C845 C844 1.387 . S
H846 C858 0.930 . S
H847 C860 0.930 . S
H848 C861 0.926 . S
H849 C865 0.959 . S
H850 C865 0.959 . S
H851 C865 0.961 . S
H852 C866 0.960 . S
H853 C866 0.961 . S
H854 C866 0.959 . S
H855 C869 0.929 . S
H856 C870 0.931 . S
H857 C872 0.930 . S
C858 H846 0.930 . S
C858 C859 1.399 . S
C858 C863 1.399 . S
C859 C858 1.399 . S
C859 C860 1.376 . S
C860 H847 0.930 . S
C860 C859 1.376 . S
C860 C861 1.392 1_556 S
C861 H848 0.926 . S
C861 C860 1.392 1_554 S
C861 C862 1.390 1_554 S
C862 C861 1.390 1_556 S
C862 C863 1.394 . S
C862 C868 1.464 1_566 S
C863 C858 1.399 . S
C863 C862 1.394 . S
C863 C864 1.516 1_565 S
C864 C863 1.516 1_545 S
C864 C865 1.502 . S
C864 C866 1.561 . S
C864 C867 1.526 1_556 S
C865 H849 0.959 . S
C865 H850 0.959 . S
C865 H851 0.961 . S
C865 C864 1.502 . S
C866 H852 0.960 . S
C866 H853 0.961 . S
C866 H854 0.959 . S
C866 C864 1.561 . S
C867 C864 1.526 1_554 S
C867 C868 1.397 . S
C867 C872 1.390 . S
C868 C862 1.464 1_544 S
C868 C867 1.397 . S
C868 C869 1.399 1_545 S
C869 H855 0.929 . S
C869 C868 1.399 1_565 S
C869 C870 1.385 1_565 S
C870 H856 0.931 . S
C870 C869 1.385 1_545 S
C870 C871 1.389 . S
C871 C870 1.389 . S
C871 C872 1.387 . S
C872 H857 0.930 . S
C872 C867 1.390 . S
C872 C871 1.387 . S
H873 C885 0.930 . S
H874 C887 0.930 . S
H875 C888 0.930 . S
H876 C892 0.959 . S
H877 C892 0.959 . S
H878 C892 0.961 . S
H879 C893 0.960 . S
H880 C893 0.961 . S
H881 C893 0.959 . S
H882 C896 0.929 . S
H883 C897 0.931 . S
H884 C899 0.930 . S
C885 H873 0.930 . S
C885 C886 1.399 . S
C885 C890 1.399 . S
C886 C885 1.399 . S
C886 C887 1.376 . S
C887 H874 0.930 . S
C887 C886 1.376 . S
C887 C888 1.388 . S
C888 H875 0.930 . S
C888 C887 1.388 . S
C888 C889 1.390 . S
C889 C888 1.390 . S
C889 C890 1.394 . S
C889 C895 1.465 . S
C890 C885 1.399 . S
C890 C889 1.394 . S
C890 C891 1.516 . S
C891 C890 1.516 . S
C891 C892 1.502 . S
C891 C893 1.561 . S
C891 C894 1.526 . S
C892 H876 0.959 . S
C892 H877 0.959 . S
C892 H878 0.961 . S
C892 C891 1.502 . S
C893 H879 0.960 . S
C893 H880 0.961 . S
C893 H881 0.959 . S
C893 C891 1.561 . S
C894 C891 1.526 . S
C894 C895 1.396 . S
C894 C899 1.390 . S
C895 C889 1.465 . S
C895 C894 1.396 . S
C895 C896 1.399 . S
C896 H882 0.929 . S
C896 C895 1.399 . S
C896 C897 1.385 . S
C897 H883 0.931 . S
C897 C896 1.385 . S
C897 C898 1.389 . S
C898 C897 1.389 . S
C898 C899 1.387 . S
C899 H884 0.930 . S
C899 C894 1.390 . S
C899 C898 1.387 . S
H900 C912 0.930 . S
H901 C914 0.930 . S
H902 C915 0.930 . S
H903 C919 0.959 . S
H904 C919 0.959 . S
H905 C919 0.961 . S
H906 C920 0.960 . S
H907 C920 0.961 . S
H908 C920 0.959 . S
H909 C923 0.929 1_556 S
H910 C924 0.931 . S
H911 C926 0.930 . S
C912 H900 0.930 . S
C912 C913 1.399 . S
C912 C917 1.399 . S
C913 C912 1.399 . S
C913 C914 1.376 . S
C914 H901 0.930 . S
C914 C913 1.376 . S
C914 C915 1.388 1_455 S
C915 H902 0.930 . S
C915 C914 1.388 1_655 S
C915 C916 1.392 1_655 S
C916 C915 1.392 1_455 S
C916 C917 1.403 . S
C916 C922 1.455 1_456 S
C917 C912 1.399 . S
C917 C916 1.403 . S
C917 C918 1.516 1_556 S
C918 C917 1.516 1_554 S
C918 C919 1.502 . S
C918 C920 1.561 . S
C918 C921 1.526 1_455 S
C919 H903 0.959 . S
C919 H904 0.959 . S
C919 H905 0.961 . S
C919 C918 1.502 . S
C920 H906 0.960 . S
C920 H907 0.961 . S
C920 H908 0.959 . S
C920 C918 1.561 . S
C921 C918 1.526 1_655 S
C921 C922 1.396 . S
C921 C926 1.390 . S
C922 C916 1.455 1_654 S
C922 C921 1.396 . S
C922 C923 1.399 . S
C923 H909 0.929 1_554 S
C923 C922 1.399 . S
C923 C924 1.385 . S
C924 H910 0.931 . S
C924 C923 1.385 . S
C924 C925 1.389 . S
C925 C924 1.389 . S
C925 C926 1.387 . S
C926 H911 0.930 . S
C926 C921 1.390 . S
C926 C925 1.387 . S
H927 C939 0.930 . S
H928 C941 0.930 . S
H929 C942 0.930 . S
H930 C946 0.959 . S
H931 C946 0.959 . S
H932 C946 0.961 . S
H933 C947 0.960 . S
H934 C947 0.961 . S
H935 C947 0.959 . S
H936 C950 0.929 . S
H937 C951 0.931 . S
H938 C953 0.930 . S
C939 H927 0.930 . S
C939 C940 1.399 . S
C939 C944 1.399 . S
C940 C939 1.399 . S
C940 C941 1.376 . S
C941 H928 0.930 . S
C941 C940 1.376 . S
C941 C942 1.388 1_545 S
C942 H929 0.930 . S
C942 C941 1.388 1_565 S
C942 C943 1.389 1_565 S
C943 C942 1.389 1_545 S
C943 C944 1.407 . S
C943 C949 1.455 1_545 S
C944 C939 1.399 . S
C944 C943 1.407 . S
C944 C945 1.516 . S
C945 C944 1.516 . S
C945 C946 1.502 . S
C945 C947 1.561 . S
C945 C948 1.526 1_545 S
C946 H930 0.959 . S
C946 H931 0.959 . S
C946 H932 0.961 . S
C946 C945 1.502 . S
C947 H933 0.960 . S
C947 H934 0.961 . S
C947 H935 0.959 . S
C947 C945 1.561 . S
C948 C945 1.526 1_565 S
C948 C949 1.396 . S
C948 C953 1.390 . S
C949 C943 1.455 1_565 S
C949 C948 1.396 . S
C949 C950 1.399 . S
C950 H936 0.929 . S
C950 C949 1.399 . S
C950 C951 1.385 . S
C951 H937 0.931 . S
C951 C950 1.385 . S
C951 C952 1.389 . S
C952 C951 1.389 . S
C952 C953 1.387 . S
C953 H938 0.930 . S
C953 C948 1.390 . S
C953 C952 1.387 . S
H954 C966 0.930 . S
H955 C968 0.930 . S
H956 C969 0.930 . S
H957 C973 0.959 . S
H958 C973 0.959 . S
H959 C973 0.961 . S
H960 C974 0.960 . S
H961 C974 0.961 . S
H962 C974 0.959 . S
H963 C977 0.929 1_554 S
H964 C978 0.931 . S
H965 C980 0.930 . S
C966 H954 0.930 . S
C966 C967 1.399 . S
C966 C971 1.399 . S
C967 C966 1.399 . S
C967 C968 1.376 . S
C968 H955 0.930 . S
C968 C967 1.376 . S
C968 C969 1.388 . S
C969 H956 0.930 . S
C969 C968 1.388 . S
C969 C970 1.390 . S
C970 C969 1.390 . S
C970 C971 1.394 . S
C970 C976 1.465 1_554 S
C971 C966 1.399 . S
C971 C970 1.394 . S
C971 C972 1.516 1_554 S
C972 C971 1.516 1_556 S
C972 C973 1.502 . S
C972 C974 1.561 . S
C972 C975 1.526 . S
C973 H957 0.959 . S
C973 H958 0.959 . S
C973 H959 0.961 . S
C973 C972 1.502 . S
C974 H960 0.960 . S
C974 H961 0.961 . S
C974 H962 0.959 . S
C974 C972 1.561 . S
C975 C972 1.526 . S
C975 C976 1.396 . S
C975 C980 1.390 . S
C976 C970 1.465 1_556 S
C976 C975 1.396 . S
C976 C977 1.399 . S
C977 H963 0.929 1_556 S
C977 C976 1.399 . S
C977 C978 1.385 . S
C978 H964 0.931 . S
C978 C977 1.385 . S
C978 C979 1.389 . S
C979 C978 1.389 . S
C979 C980 1.387 . S
C980 H965 0.930 . S
C980 C975 1.390 . S
C980 C979 1.387 . S
H981 C993 0.930 . S
H982 C995 0.930 . S
H983 C996 0.930 . S
H984 C1000 0.959 1_655 S
H985 C1000 0.959 1_655 S
H986 C1000 0.961 . S
H987 C1001 0.960 . S
H988 C1001 0.961 . S
H989 C1001 0.959 . S
H990 C1004 0.929 . S
H991 C1005 0.931 . S
H992 C1007 0.930 . S
C993 H981 0.930 . S
C993 C994 1.399 . S
C993 C998 1.399 . S
C994 C993 1.399 . S
C994 C995 1.376 . S
C995 H982 0.930 . S
C995 C994 1.376 . S
C995 C996 1.388 . S
C996 H983 0.930 . S
C996 C995 1.388 . S
C996 C997 1.390 . S
C997 C996 1.390 . S
C997 C998 1.394 . S
C997 C1003 1.465 1_455 S
C998 C993 1.399 . S
C998 C997 1.394 . S
C998 C999 1.516 . S
C999 C998 1.516 . S
C999 C1000 1.502 . S
C999 C1001 1.561 . S
C999 C1002 1.526 1_455 S
C1000 H984 0.959 1_455 S
C1000 H985 0.959 1_455 S
C1000 H986 0.961 . S
C1000 C999 1.502 . S
C1001 H987 0.960 . S
C1001 H988 0.961 . S
C1001 H989 0.959 . S
C1001 C999 1.561 . S
C1002 C999 1.526 1_655 S
C1002 C1003 1.396 . S
C1002 C1007 1.390 . S
C1003 C997 1.465 1_655 S
C1003 C1002 1.396 . S
C1003 C1004 1.399 . S
C1004 H990 0.929 . S
C1004 C1003 1.399 . S
C1004 C1005 1.385 . S
C1005 H991 0.931 . S
C1005 C1004 1.385 . S
C1005 C1006 1.389 . S
C1006 C1005 1.389 . S
C1006 C1007 1.387 . S
C1007 H992 0.930 . S
C1007 C1002 1.390 . S
C1007 C1006 1.387 . S
H1008 C1020 0.930 . S
H1009 C1022 0.930 . S
H1010 C1023 0.930 . S
H1011 C1027 0.959 . S
H1012 C1027 0.959 . S
H1013 C1027 0.961 . S
H1014 C1028 0.960 . S
H1015 C1028 0.961 . S
H1016 C1028 0.959 . S
H1017 C1031 0.929 . S
H1018 C1032 0.931 . S
H1019 C1034 0.930 . S
C1020 H1008 0.930 . S
C1020 C1021 1.399 . S
C1020 C1025 1.399 . S
C1021 C1020 1.399 . S
C1021 C1022 1.376 . S
C1022 H1009 0.930 . S
C1022 C1021 1.376 . S
C1022 C1023 1.388 . S
C1023 H1010 0.930 . S
C1023 C1022 1.388 . S
C1023 C1024 1.390 . S
C1024 C1023 1.390 . S
C1024 C1025 1.394 . S
C1024 C1030 1.465 . S
C1025 C1020 1.399 . S
C1025 C1024 1.394 . S
C1025 C1026 1.516 . S
C1026 C1025 1.516 . S
C1026 C1027 1.502 . S
C1026 C1028 1.561 . S
C1026 C1029 1.526 . S
C1027 H1011 0.959 . S
C1027 H1012 0.959 . S
C1027 H1013 0.961 . S
C1027 C1026 1.502 . S
C1028 H1014 0.960 . S
C1028 H1015 0.961 . S
C1028 H1016 0.959 . S
C1028 C1026 1.561 . S
C1029 C1026 1.526 . S
C1029 C1030 1.396 . S
C1029 C1034 1.390 . S
C1030 C1024 1.465 . S
C1030 C1029 1.396 . S
C1030 C1031 1.399 . S
C1031 H1017 0.929 . S
C1031 C1030 1.399 . S
C1031 C1032 1.385 . S
C1032 H1018 0.931 . S
C1032 C1031 1.385 . S
C1032 C1033 1.389 . S
C1033 C1032 1.389 . S
C1033 C1034 1.387 . S
C1034 H1019 0.930 . S
C1034 C1029 1.390 . S
C1034 C1033 1.387 . S
H1035 C1047 0.930 . S
H1036 C1049 0.930 . S
H1037 C1050 0.930 . S
H1038 C1054 0.959 . S
H1039 C1054 0.959 . S
H1040 C1054 0.961 . S
H1041 C1055 0.960 . S
H1042 C1055 0.961 . S
H1043 C1055 0.959 . S
H1044 C1058 0.929 . S
H1045 C1059 0.931 . S
H1046 C1061 0.930 . S
C1047 H1035 0.930 . S
C1047 C1048 1.399 . S
C1047 C1052 1.399 . S
C1048 C1047 1.399 . S
C1048 C1049 1.376 . S
C1049 H1036 0.930 . S
C1049 C1048 1.376 . S
C1049 C1050 1.388 . S
C1050 H1037 0.930 . S
C1050 C1049 1.388 . S
C1050 C1051 1.390 . S
C1051 C1050 1.390 . S
C1051 C1052 1.394 . S
C1051 C1057 1.465 . S
C1052 C1047 1.399 . S
C1052 C1051 1.394 . S
C1052 C1053 1.516 . S
C1053 C1052 1.516 . S
C1053 C1054 1.502 . S
C1053 C1055 1.561 . S
C1053 C1056 1.526 . S
C1054 H1038 0.959 . S
C1054 H1039 0.959 . S
C1054 H1040 0.961 . S
C1054 C1053 1.502 . S
C1055 H1041 0.960 . S
C1055 H1042 0.961 . S
C1055 H1043 0.959 . S
C1055 C1053 1.561 . S
C1056 C1053 1.526 . S
C1056 C1057 1.396 . S
C1056 C1061 1.390 . S
C1057 C1051 1.465 . S
C1057 C1056 1.396 . S
C1057 C1058 1.399 . S
C1058 H1044 0.929 . S
C1058 C1057 1.399 . S
C1058 C1059 1.385 . S
C1059 H1045 0.931 . S
C1059 C1058 1.385 . S
C1059 C1060 1.389 . S
C1060 C1059 1.389 . S
C1060 C1061 1.387 . S
C1061 H1046 0.930 . S
C1061 C1056 1.390 . S
C1061 C1060 1.387 . S
H1062 C1074 0.930 . S
H1063 C1076 0.930 . S
H1064 C1077 0.930 . S
H1065 C1081 0.959 . S
H1066 C1081 0.959 . S
H1067 C1081 0.961 . S
H1068 C1082 0.960 . S
H1069 C1082 0.961 . S
H1070 C1082 0.959 . S
H1071 C1085 0.929 . S
H1072 C1086 0.931 . S
H1073 C1088 0.930 . S
C1074 H1062 0.930 . S
C1074 C1075 1.399 . S
C1074 C1079 1.399 . S
C1075 C1074 1.399 . S
C1075 C1076 1.376 . S
C1076 H1063 0.930 . S
C1076 C1075 1.376 . S
C1076 C1077 1.388 . S
C1077 H1064 0.930 . S
C1077 C1076 1.388 . S
C1077 C1078 1.390 . S
C1078 C1077 1.390 . S
C1078 C1079 1.394 . S
C1078 C1084 1.465 . S
C1079 C1074 1.399 . S
C1079 C1078 1.394 . S
C1079 C1080 1.516 . S
C1080 C1079 1.516 . S
C1080 C1081 1.502 . S
C1080 C1082 1.561 . S
C1080 C1083 1.526 . S
C1081 H1065 0.959 . S
C1081 H1066 0.959 . S
C1081 H1067 0.961 . S
C1081 C1080 1.502 . S
C1082 H1068 0.960 . S
C1082 H1069 0.961 . S
C1082 H1070 0.959 . S
C1082 C1080 1.561 . S
C1083 C1080 1.526 . S
C1083 C1084 1.396 . S
C1083 C1088 1.390 . S
C1084 C1078 1.465 . S
C1084 C1083 1.396 . S
C1084 C1085 1.399 . S
C1085 H1071 0.929 . S
C1085 C1084 1.399 . S
C1085 C1086 1.385 . S
C1086 H1072 0.931 . S
C1086 C1085 1.385 . S
C1086 C1087 1.389 . S
C1087 C1086 1.389 . S
C1087 C1088 1.387 . S
C1088 H1073 0.930 . S
C1088 C1083 1.390 . S
C1088 C1087 1.387 . S
H1089 C1101 0.930 . S
H1090 C1103 0.930 . S
H1091 C1104 0.930 . S
H1092 C1108 0.959 . S
H1093 C1108 0.959 . S
H1094 C1108 0.961 . S
H1095 C1109 0.960 . S
H1096 C1109 0.961 . S
H1097 C1109 0.959 . S
H1098 C1112 0.929 . S
H1099 C1113 0.931 . S
H1100 C1115 0.930 . S
C1101 H1089 0.930 . S
C1101 C1102 1.399 . S
C1101 C1106 1.399 . S
C1102 C1101 1.399 . S
C1102 C1103 1.376 . S
C1103 H1090 0.930 . S
C1103 C1102 1.376 . S
C1103 C1104 1.388 . S
C1104 H1091 0.930 . S
C1104 C1103 1.388 . S
C1104 C1105 1.390 . S
C1105 C1104 1.390 . S
C1105 C1106 1.394 . S
C1105 C1111 1.465 . S
C1106 C1101 1.399 . S
C1106 C1105 1.394 . S
C1106 C1107 1.516 . S
C1107 C1106 1.516 . S
C1107 C1108 1.502 . S
C1107 C1109 1.561 . S
C1107 C1110 1.526 . S
C1108 H1092 0.959 . S
C1108 H1093 0.959 . S
C1108 H1094 0.961 . S
C1108 C1107 1.502 . S
C1109 H1095 0.960 . S
C1109 H1096 0.961 . S
C1109 H1097 0.959 . S
C1109 C1107 1.561 . S
C1110 C1107 1.526 . S
C1110 C1111 1.396 . S
C1110 C1115 1.390 . S
C1111 C1105 1.465 . S
C1111 C1110 1.396 . S
C1111 C1112 1.399 . S
C1112 H1098 0.929 . S
C1112 C1111 1.399 . S
C1112 C1113 1.385 . S
C1113 H1099 0.931 . S
C1113 C1112 1.385 . S
C1113 C1114 1.389 . S
C1114 C1113 1.389 . S
C1114 C1115 1.387 . S
C1115 H1100 0.930 . S
C1115 C1110 1.390 . S
C1115 C1114 1.387 . S
H1116 C1128 0.930 . S
H1117 C1130 0.930 . S
H1118 C1131 0.930 . S
H1119 C1135 0.959 . S
H1120 C1135 0.959 . S
H1121 C1135 0.961 . S
H1122 C1136 0.960 . S
H1123 C1136 0.961 . S
H1124 C1136 0.959 . S
H1125 C1139 0.929 . S
H1126 C1140 0.931 . S
H1127 C1142 0.930 . S
C1128 H1116 0.930 . S
C1128 C1129 1.399 . S
C1128 C1133 1.399 . S
C1129 C1128 1.399 . S
C1129 C1130 1.376 . S
C1130 H1117 0.930 . S
C1130 C1129 1.376 . S
C1130 C1131 1.388 . S
C1131 H1118 0.930 . S
C1131 C1130 1.388 . S
C1131 C1132 1.390 . S
C1132 C1131 1.390 . S
C1132 C1133 1.394 . S
C1132 C1138 1.465 . S
C1133 C1128 1.399 . S
C1133 C1132 1.394 . S
C1133 C1134 1.516 . S
C1134 C1133 1.516 . S
C1134 C1135 1.502 . S
C1134 C1136 1.561 . S
C1134 C1137 1.526 . S
C1135 H1119 0.959 . S
C1135 H1120 0.959 . S
C1135 H1121 0.961 . S
C1135 C1134 1.502 . S
C1136 H1122 0.960 . S
C1136 H1123 0.961 . S
C1136 H1124 0.959 . S
C1136 C1134 1.561 . S
C1137 C1134 1.526 . S
C1137 C1138 1.396 . S
C1137 C1142 1.390 . S
C1138 C1132 1.465 . S
C1138 C1137 1.396 . S
C1138 C1139 1.399 . S
C1139 H1125 0.929 . S
C1139 C1138 1.399 . S
C1139 C1140 1.385 . S
C1140 H1126 0.931 . S
C1140 C1139 1.385 . S
C1140 C1141 1.389 . S
C1141 C1140 1.389 . S
C1141 C1142 1.387 . S
C1142 H1127 0.930 . S
C1142 C1137 1.390 . S
C1142 C1141 1.387 . S
H1143 C1155 0.930 . S
H1144 C1157 0.930 . S
H1145 C1158 0.930 . S
H1146 C1162 0.959 . S
H1147 C1162 0.959 . S
H1148 C1162 0.961 . S
H1149 C1163 0.960 . S
H1150 C1163 0.961 . S
H1151 C1163 0.959 . S
H1152 C1166 0.929 . S
H1153 C1167 0.931 . S
H1154 C1169 0.930 . S
C1155 H1143 0.930 . S
C1155 C1156 1.399 . S
C1155 C1160 1.399 . S
C1156 C1155 1.399 . S
C1156 C1157 1.376 . S
C1157 H1144 0.930 . S
C1157 C1156 1.376 . S
C1157 C1158 1.388 . S
C1158 H1145 0.930 . S
C1158 C1157 1.388 . S
C1158 C1159 1.390 . S
C1159 C1158 1.390 . S
C1159 C1160 1.394 . S
C1159 C1165 1.465 . S
C1160 C1155 1.399 . S
C1160 C1159 1.394 . S
C1160 C1161 1.516 . S
C1161 C1160 1.516 . S
C1161 C1162 1.502 . S
C1161 C1163 1.561 . S
C1161 C1164 1.526 . S
C1162 H1146 0.959 . S
C1162 H1147 0.959 . S
C1162 H1148 0.961 . S
C1162 C1161 1.502 . S
C1163 H1149 0.960 . S
C1163 H1150 0.961 . S
C1163 H1151 0.959 . S
C1163 C1161 1.561 . S
C1164 C1161 1.526 . S
C1164 C1165 1.396 . S
C1164 C1169 1.390 . S
C1165 C1159 1.465 . S
C1165 C1164 1.396 . S
C1165 C1166 1.399 . S
C1166 H1152 0.929 . S
C1166 C1165 1.399 . S
C1166 C1167 1.385 . S
C1167 H1153 0.931 . S
C1167 C1166 1.385 . S
C1167 C1168 1.389 . S
C1168 C1167 1.389 . S
C1168 C1169 1.387 . S
C1169 H1154 0.930 . S
C1169 C1164 1.390 . S
C1169 C1168 1.387 . S
H1170 C1182 0.930 . S
H1171 C1184 0.930 . S
H1172 C1185 0.930 . S
H1173 C1189 0.959 . S
H1174 C1189 0.959 . S
H1175 C1189 0.961 . S
H1176 C1190 0.960 . S
H1177 C1190 0.961 . S
H1178 C1190 0.959 . S
H1179 C1193 0.929 . S
H1180 C1194 0.931 . S
H1181 C1196 0.930 . S
C1182 H1170 0.930 . S
C1182 C1183 1.399 . S
C1182 C1187 1.399 . S
C1183 C1182 1.399 . S
C1183 C1184 1.376 . S
C1184 H1171 0.930 . S
C1184 C1183 1.376 . S
C1184 C1185 1.388 . S
C1185 H1172 0.930 . S
C1185 C1184 1.388 . S
C1185 C1186 1.390 . S
C1186 C1185 1.390 . S
C1186 C1187 1.394 . S
C1186 C1192 1.465 . S
C1187 C1182 1.399 . S
C1187 C1186 1.394 . S
C1187 C1188 1.516 . S
C1188 C1187 1.516 . S
C1188 C1189 1.502 . S
C1188 C1190 1.561 . S
C1188 C1191 1.526 . S
C1189 H1173 0.959 . S
C1189 H1174 0.959 . S
C1189 H1175 0.961 . S
C1189 C1188 1.502 . S
C1190 H1176 0.960 . S
C1190 H1177 0.961 . S
C1190 H1178 0.959 . S
C1190 C1188 1.561 . S
C1191 C1188 1.526 . S
C1191 C1192 1.396 . S
C1191 C1196 1.390 . S
C1192 C1186 1.465 . S
C1192 C1191 1.396 . S
C1192 C1193 1.399 . S
C1193 H1179 0.929 . S
C1193 C1192 1.399 . S
C1193 C1194 1.385 . S
C1194 H1180 0.931 . S
C1194 C1193 1.385 . S
C1194 C1195 1.389 . S
C1195 C1194 1.389 . S
C1195 C1196 1.387 . S
C1196 H1181 0.930 . S
C1196 C1191 1.390 . S
C1196 C1195 1.387 . S
H1197 C1209 0.930 . S
H1198 C1211 0.930 . S
H1199 C1212 0.930 . S
H1200 C1216 0.959 . S
H1201 C1216 0.959 . S
H1202 C1216 0.961 . S
H1203 C1217 0.960 . S
H1204 C1217 0.961 . S
H1205 C1217 0.959 . S
H1206 C1220 0.929 . S
H1207 C1221 0.931 . S
H1208 C1223 0.930 . S
C1209 H1197 0.930 . S
C1209 C1210 1.399 . S
C1209 C1214 1.399 . S
C1210 C1209 1.399 . S
C1210 C1211 1.376 . S
C1211 H1198 0.930 . S
C1211 C1210 1.376 . S
C1211 C1212 1.388 . S
C1212 H1199 0.930 . S
C1212 C1211 1.388 . S
C1212 C1213 1.390 . S
C1213 C1212 1.390 . S
C1213 C1214 1.394 . S
C1213 C1219 1.465 . S
C1214 C1209 1.399 . S
C1214 C1213 1.394 . S
C1214 C1215 1.516 . S
C1215 C1214 1.516 . S
C1215 C1216 1.502 . S
C1215 C1217 1.561 . S
C1215 C1218 1.526 . S
C1216 H1200 0.959 . S
C1216 H1201 0.959 . S
C1216 H1202 0.961 . S
C1216 C1215 1.502 . S
C1217 H1203 0.960 . S
C1217 H1204 0.961 . S
C1217 H1205 0.959 . S
C1217 C1215 1.561 . S
C1218 C1215 1.526 . S
C1218 C1219 1.396 . S
C1218 C1223 1.390 . S
C1219 C1213 1.465 . S
C1219 C1218 1.396 . S
C1219 C1220 1.399 . S
C1220 H1206 0.929 . S
C1220 C1219 1.399 . S
C1220 C1221 1.385 . S
C1221 H1207 0.931 . S
C1221 C1220 1.385 . S
C1221 C1222 1.389 . S
C1222 C1221 1.389 . S
C1222 C1223 1.387 . S
C1223 H1208 0.930 . S
C1223 C1218 1.390 . S
C1223 C1222 1.387 . S
H1224 C1236 0.930 . S
H1225 C1238 0.930 . S
H1226 C1239 0.930 . S
H1227 C1243 0.959 . S
H1228 C1243 0.959 . S
H1229 C1243 0.961 . S
H1230 C1244 0.960 . S
H1231 C1244 0.961 . S
H1232 C1244 0.959 . S
H1233 C1247 0.929 . S
H1234 C1248 0.931 . S
H1235 C1250 0.930 . S
C1236 H1224 0.930 . S
C1236 C1237 1.399 . S
C1236 C1241 1.399 . S
C1237 C1236 1.399 . S
C1237 C1238 1.376 . S
C1238 H1225 0.930 . S
C1238 C1237 1.376 . S
C1238 C1239 1.388 . S
C1239 H1226 0.930 . S
C1239 C1238 1.388 . S
C1239 C1240 1.390 . S
C1240 C1239 1.390 . S
C1240 C1241 1.394 . S
C1240 C1246 1.465 . S
C1241 C1236 1.399 . S
C1241 C1240 1.394 . S
C1241 C1242 1.516 . S
C1242 C1241 1.516 . S
C1242 C1243 1.502 . S
C1242 C1244 1.561 . S
C1242 C1245 1.526 . S
C1243 H1227 0.959 . S
C1243 H1228 0.959 . S
C1243 H1229 0.961 . S
C1243 C1242 1.502 . S
C1244 H1230 0.960 . S
C1244 H1231 0.961 . S
C1244 H1232 0.959 . S
C1244 C1242 1.561 . S
C1245 C1242 1.526 . S
C1245 C1246 1.396 . S
C1245 C1250 1.390 . S
C1246 C1240 1.465 . S
C1246 C1245 1.396 . S
C1246 C1247 1.399 . S
C1247 H1233 0.929 . S
C1247 C1246 1.399 . S
C1247 C1248 1.385 . S
C1248 H1234 0.931 . S
C1248 C1247 1.385 . S
C1248 C1249 1.389 . S
C1249 C1248 1.389 . S
C1249 C1250 1.387 . S
C1250 H1235 0.930 . S
C1250 C1245 1.390 . S
C1250 C1249 1.387 . S
H1251 C1263 0.930 . S
H1252 C1265 0.930 . S
H1253 C1266 0.930 . S
H1254 C1270 0.959 . S
H1255 C1270 0.959 . S
H1256 C1270 0.961 . S
H1257 C1271 0.960 . S
H1258 C1271 0.961 . S
H1259 C1271 0.959 . S
H1260 C1274 0.929 . S
H1261 C1275 0.931 . S
H1262 C1277 0.930 . S
C1263 H1251 0.930 . S
C1263 C1264 1.399 . S
C1263 C1268 1.399 . S
C1264 C1263 1.399 . S
C1264 C1265 1.376 . S
C1265 H1252 0.930 . S
C1265 C1264 1.376 . S
C1265 C1266 1.388 . S
C1266 H1253 0.930 . S
C1266 C1265 1.388 . S
C1266 C1267 1.390 . S
C1267 C1266 1.390 . S
C1267 C1268 1.394 . S
C1267 C1273 1.465 . S
C1268 C1263 1.399 . S
C1268 C1267 1.394 . S
C1268 C1269 1.516 . S
C1269 C1268 1.516 . S
C1269 C1270 1.502 . S
C1269 C1271 1.561 . S
C1269 C1272 1.526 . S
C1270 H1254 0.959 . S
C1270 H1255 0.959 . S
C1270 H1256 0.961 . S
C1270 C1269 1.502 . S
C1271 H1257 0.960 . S
C1271 H1258 0.961 . S
C1271 H1259 0.959 . S
C1271 C1269 1.561 . S
C1272 C1269 1.526 . S
C1272 C1273 1.396 . S
C1272 C1277 1.390 . S
C1273 C1267 1.465 . S
C1273 C1272 1.396 . S
C1273 C1274 1.399 . S
C1274 H1260 0.929 . S
C1274 C1273 1.399 . S
C1274 C1275 1.385 . S
C1275 H1261 0.931 . S
C1275 C1274 1.385 . S
C1275 C1276 1.389 . S
C1276 C1275 1.389 . S
C1276 C1277 1.387 . S
C1277 H1262 0.930 . S
C1277 C1272 1.390 . S
C1277 C1276 1.387 . S
H1278 C1290 0.930 . S
H1279 C1292 0.930 . S
H1280 C1293 0.930 . S
H1281 C1297 0.959 . S
H1282 C1297 0.959 . S
H1283 C1297 0.961 . S
H1284 C1298 0.960 . S
H1285 C1298 0.961 . S
H1286 C1298 0.959 . S
H1287 C1301 0.929 . S
H1288 C1302 0.931 . S
H1289 C1304 0.930 . S
C1290 H1278 0.930 . S
C1290 C1291 1.399 . S
C1290 C1295 1.399 . S
C1291 C1290 1.399 . S
C1291 C1292 1.376 . S
C1292 H1279 0.930 . S
C1292 C1291 1.376 . S
C1292 C1293 1.388 . S
C1293 H1280 0.930 . S
C1293 C1292 1.388 . S
C1293 C1294 1.390 . S
C1294 C1293 1.390 . S
C1294 C1295 1.394 . S
C1294 C1300 1.465 . S
C1295 C1290 1.399 . S
C1295 C1294 1.394 . S
C1295 C1296 1.516 . S
C1296 C1295 1.516 . S
C1296 C1297 1.502 . S
C1296 C1298 1.561 . S
C1296 C1299 1.526 . S
C1297 H1281 0.959 . S
C1297 H1282 0.959 . S
C1297 H1283 0.961 . S
C1297 C1296 1.502 . S
C1298 H1284 0.960 . S
C1298 H1285 0.961 . S
C1298 H1286 0.959 . S
C1298 C1296 1.561 . S
C1299 C1296 1.526 . S
C1299 C1300 1.396 . S
C1299 C1304 1.390 . S
C1300 C1294 1.465 . S
C1300 C1299 1.396 . S
C1300 C1301 1.399 . S
C1301 H1287 0.929 . S
C1301 C1300 1.399 . S
C1301 C1302 1.385 . S
C1302 H1288 0.931 . S
C1302 C1301 1.385 . S
C1302 C1303 1.389 . S
C1303 C1302 1.389 . S
C1303 C1304 1.387 . S
C1304 H1289 0.930 . S
C1304 C1299 1.390 . S
C1304 C1303 1.387 . S
H1305 C1317 0.930 . S
H1306 C1319 0.930 . S
H1307 C1320 0.930 . S
H1308 C1324 0.959 . S
H1309 C1324 0.959 . S
H1310 C1324 0.961 . S
H1311 C1325 0.960 . S
H1312 C1325 0.961 . S
H1313 C1325 0.959 . S
H1314 C1328 0.929 . S
H1315 C1329 0.931 . S
H1316 C1331 0.930 . S
C1317 H1305 0.930 . S
C1317 C1318 1.399 . S
C1317 C1322 1.399 . S
C1318 C1317 1.399 . S
C1318 C1319 1.376 . S
C1319 H1306 0.930 . S
C1319 C1318 1.376 . S
C1319 C1320 1.388 . S
C1320 H1307 0.930 . S
C1320 C1319 1.388 . S
C1320 C1321 1.390 . S
C1321 C1320 1.390 . S
C1321 C1322 1.394 . S
C1321 C1327 1.465 . S
C1322 C1317 1.399 . S
C1322 C1321 1.394 . S
C1322 C1323 1.516 . S
C1323 C1322 1.516 . S
C1323 C1324 1.502 . S
C1323 C1325 1.561 . S
C1323 C1326 1.526 . S
C1324 H1308 0.959 . S
C1324 H1309 0.959 . S
C1324 H1310 0.961 . S
C1324 C1323 1.502 . S
C1325 H1311 0.960 . S
C1325 H1312 0.961 . S
C1325 H1313 0.959 . S
C1325 C1323 1.561 . S
C1326 C1323 1.526 . S
C1326 C1327 1.396 . S
C1326 C1331 1.390 . S
C1327 C1321 1.465 . S
C1327 C1326 1.396 . S
C1327 C1328 1.399 . S
C1328 H1314 0.929 . S
C1328 C1327 1.399 . S
C1328 C1329 1.385 . S
C1329 H1315 0.931 . S
C1329 C1328 1.385 . S
C1329 C1330 1.389 . S
C1330 C1329 1.389 . S
C1330 C1331 1.387 . S
C1331 H1316 0.930 . S
C1331 C1326 1.390 . S
C1331 C1330 1.387 . S
C373 C76 0.782 . S
C385 N6 0.856 . S
C400 N96 0.983 . S
C412 C46 0.962 . S
C427 N66 0.790 1_565 S
C439 C136 0.817 . S
C454 C106 0.970 . S
C466 N156 0.976 . S
C481 C16 0.858 . S
C493 N126 0.752 1_455 S
C508 N36 0.911 . S
C520 C166 0.942 . S
C535 C327 0.808 . S
C547 N194 0.758 . S
C562 N216 0.787 1_655 S
C574 C346 0.819 . S
C589 N254 0.878 1_545 S
C601 C207 0.765 . S
C616 N276 0.845 . S
C628 C226 0.792 . S
C643 N314 0.745 1_655 S
C655 C267 0.820 . S
C670 C286 0.755 . S
C682 N336 0.878 1_545 S
C697 C91 1.683 . S
C709 C1 1.649 . S
C724 C31 1.681 . S
C736 C121 1.651 . S
C751 C61 1.650 . S
C763 C151 1.684 . S
C778 C190 1.680 . S
C790 C271 1.676 . S
C805 C211 1.667 . S
C817 C310 1.662 . S
C832 C250 1.671 . S
C844 C331 1.666 . S
C859 C220 1.994 . S
C871 C10 1.945 . S
C886 C40 1.884 . S
C898 C241 1.990 . S
C913 C280 1.945 . S
C925 C70 1.996 . S
C940 C100 1.869 . S
C952 C301 1.999 . S
C967 C130 1.944 . S
C979 C340 1.994 . S
C994 C181 1.969 . S
C1006 C160 1.916 . S
C1021 C87 1.281 . S
C1033 N14 1.182 . S
C1048 C57 1.166 . S
C1060 N104 1.158 . S
C1075 N74 1.181 . S
C1087 C147 1.281 . S
C1102 C117 1.163 . S
C1114 N164 1.160 . S
C1129 C27 1.236 . S
C1141 N134 1.271 . S
C1156 N44 1.123 . S
C1168 C177 1.139 . S
C1183 C316 1.255 . S
C1195 N186 1.256 . S
C1210 N224 1.223 . S
C1222 C357 1.263 . S
C1237 N246 1.189 . S
C1249 C196 1.282 . S
C1264 C237 1.271 . S
C1276 N284 1.207 . S
C1291 N306 1.184 . S
C1303 C256 1.281 . S
C1318 N344 1.251 . S
C1330 C297 1.243 . S
