# Generated by pormake.
# Topology wfx, (7)-cn, num edge types: 1
# Building blocks:
#     Node 0, Type 0, BuildingBlock: NUHQUE_clean_sbu_2, # of connection points: 7
#     Node 1, Type 0, BuildingBlock: NUHQUE_clean_sbu_2, # of connection points: 7
#     Node 2, Type 0, BuildingBlock: NUHQUE_clean_sbu_2, # of connection points: 7
#     Node 3, Type 0, BuildingBlock: NUHQUE_clean_sbu_2, # of connection points: 7
#     Node 4, Type 0, BuildingBlock: NUHQUE_clean_sbu_2, # of connection points: 7
#     Node 5, Type 0, BuildingBlock: NUHQUE_clean_sbu_2, # of connection points: 7
#     Node 6, Type 0, BuildingBlock: NUHQUE_clean_sbu_2, # of connection points: 7
#     Node 7, Type 0, BuildingBlock: NUHQUE_clean_sbu_2, # of connection points: 7
#     Node 8, Type 0, BuildingBlock: NUHQUE_clean_sbu_2, # of connection points: 7
#     Node 9, Type 0, BuildingBlock: NUHQUE_clean_sbu_2, # of connection points: 7
#     Node 10, Type 0, BuildingBlock: NUHQUE_clean_sbu_2, # of connection points: 7
#     Node 11, Type 0, BuildingBlock: NUHQUE_clean_sbu_2, # of connection points: 7
#     Node 12, Type 0, BuildingBlock: NUHQUE_clean_sbu_2, # of connection points: 7
#     Node 13, Type 0, BuildingBlock: NUHQUE_clean_sbu_2, # of connection points: 7
#     Node 14, Type 0, BuildingBlock: NUHQUE_clean_sbu_2, # of connection points: 7
#     Node 15, Type 0, BuildingBlock: NUHQUE_clean_sbu_2, # of connection points: 7
#     Edge 16, Type (0, 0), BuildingBlock: KIFKEQ_clean_linker_1, # of connection points: 2
#     Edge 17, Type (0, 0), BuildingBlock: KIFKEQ_clean_linker_1, # of connection points: 2
#     Edge 18, Type (0, 0), BuildingBlock: KIFKEQ_clean_linker_1, # of connection points: 2
#     Edge 19, Type (0, 0), BuildingBlock: KIFKEQ_clean_linker_1, # of connection points: 2
#     Edge 20, Type (0, 0), BuildingBlock: KIFKEQ_clean_linker_1, # of connection points: 2
#     Edge 21, Type (0, 0), BuildingBlock: KIFKEQ_clean_linker_1, # of connection points: 2
#     Edge 22, Type (0, 0), BuildingBlock: KIFKEQ_clean_linker_1, # of connection points: 2
#     Edge 23, Type (0, 0), BuildingBlock: KIFKEQ_clean_linker_1, # of connection points: 2
#     Edge 24, Type (0, 0), BuildingBlock: KIFKEQ_clean_linker_1, # of connection points: 2
#     Edge 25, Type (0, 0), BuildingBlock: KIFKEQ_clean_linker_1, # of connection points: 2
#     Edge 26, Type (0, 0), BuildingBlock: KIFKEQ_clean_linker_1, # of connection points: 2
#     Edge 27, Type (0, 0), BuildingBlock: KIFKEQ_clean_linker_1, # of connection points: 2
#     Edge 28, Type (0, 0), BuildingBlock: KIFKEQ_clean_linker_1, # of connection points: 2
#     Edge 29, Type (0, 0), BuildingBlock: KIFKEQ_clean_linker_1, # of connection points: 2
#     Edge 30, Type (0, 0), BuildingBlock: KIFKEQ_clean_linker_1, # of connection points: 2
#     Edge 31, Type (0, 0), BuildingBlock: KIFKEQ_clean_linker_1, # of connection points: 2
#     Edge 32, Type (0, 0), BuildingBlock: KIFKEQ_clean_linker_1, # of connection points: 2
#     Edge 33, Type (0, 0), BuildingBlock: KIFKEQ_clean_linker_1, # of connection points: 2
#     Edge 34, Type (0, 0), BuildingBlock: KIFKEQ_clean_linker_1, # of connection points: 2
#     Edge 35, Type (0, 0), BuildingBlock: KIFKEQ_clean_linker_1, # of connection points: 2
#     Edge 36, Type (0, 0), BuildingBlock: KIFKEQ_clean_linker_1, # of connection points: 2
#     Edge 37, Type (0, 0), BuildingBlock: KIFKEQ_clean_linker_1, # of connection points: 2
#     Edge 38, Type (0, 0), BuildingBlock: KIFKEQ_clean_linker_1, # of connection points: 2
#     Edge 39, Type (0, 0), BuildingBlock: KIFKEQ_clean_linker_1, # of connection points: 2
#     Edge 40, Type (0, 0), BuildingBlock: KIFKEQ_clean_linker_1, # of connection points: 2
#     Edge 41, Type (0, 0), BuildingBlock: KIFKEQ_clean_linker_1, # of connection points: 2
#     Edge 42, Type (0, 0), BuildingBlock: KIFKEQ_clean_linker_1, # of connection points: 2
#     Edge 43, Type (0, 0), BuildingBlock: KIFKEQ_clean_linker_1, # of connection points: 2
#     Edge 44, Type (0, 0), BuildingBlock: KIFKEQ_clean_linker_1, # of connection points: 2
#     Edge 45, Type (0, 0), BuildingBlock: KIFKEQ_clean_linker_1, # of connection points: 2
#     Edge 46, Type (0, 0), BuildingBlock: KIFKEQ_clean_linker_1, # of connection points: 2
#     Edge 47, Type (0, 0), BuildingBlock: KIFKEQ_clean_linker_1, # of connection points: 2
#     Edge 48, Type (0, 0), BuildingBlock: KIFKEQ_clean_linker_1, # of connection points: 2
#     Edge 49, Type (0, 0), BuildingBlock: KIFKEQ_clean_linker_1, # of connection points: 2
#     Edge 50, Type (0, 0), BuildingBlock: KIFKEQ_clean_linker_1, # of connection points: 2
#     Edge 51, Type (0, 0), BuildingBlock: KIFKEQ_clean_linker_1, # of connection points: 2
#     Edge 52, Type (0, 0), BuildingBlock: KIFKEQ_clean_linker_1, # of connection points: 2
#     Edge 53, Type (0, 0), BuildingBlock: KIFKEQ_clean_linker_1, # of connection points: 2
#     Edge 54, Type (0, 0), BuildingBlock: KIFKEQ_clean_linker_1, # of connection points: 2
#     Edge 55, Type (0, 0), BuildingBlock: KIFKEQ_clean_linker_1, # of connection points: 2
#     Edge 56, Type (0, 0), BuildingBlock: KIFKEQ_clean_linker_1, # of connection points: 2
#     Edge 57, Type (0, 0), BuildingBlock: KIFKEQ_clean_linker_1, # of connection points: 2
#     Edge 58, Type (0, 0), BuildingBlock: KIFKEQ_clean_linker_1, # of connection points: 2
#     Edge 59, Type (0, 0), BuildingBlock: KIFKEQ_clean_linker_1, # of connection points: 2
#     Edge 60, Type (0, 0), BuildingBlock: KIFKEQ_clean_linker_1, # of connection points: 2
#     Edge 61, Type (0, 0), BuildingBlock: KIFKEQ_clean_linker_1, # of connection points: 2
#     Edge 62, Type (0, 0), BuildingBlock: KIFKEQ_clean_linker_1, # of connection points: 2
#     Edge 63, Type (0, 0), BuildingBlock: KIFKEQ_clean_linker_1, # of connection points: 2
#     Edge 64, Type (0, 0), BuildingBlock: KIFKEQ_clean_linker_1, # of connection points: 2
#     Edge 65, Type (0, 0), BuildingBlock: KIFKEQ_clean_linker_1, # of connection points: 2
#     Edge 66, Type (0, 0), BuildingBlock: KIFKEQ_clean_linker_1, # of connection points: 2
#     Edge 67, Type (0, 0), BuildingBlock: KIFKEQ_clean_linker_1, # of connection points: 2
#     Edge 68, Type (0, 0), BuildingBlock: KIFKEQ_clean_linker_1, # of connection points: 2
#     Edge 69, Type (0, 0), BuildingBlock: KIFKEQ_clean_linker_1, # of connection points: 2
#     Edge 70, Type (0, 0), BuildingBlock: KIFKEQ_clean_linker_1, # of connection points: 2
#     Edge 71, Type (0, 0), BuildingBlock: KIFKEQ_clean_linker_1, # of connection points: 2
# Relax obj value: 0.247
# Max RMSD: 0.275
# Mean RMSD: 0.275
data_MOF--net-wfx--node1-NUHQUE_clean_sbu_2--edge1-KIFKEQ_clean_linker_1
_symmetry_space_group_name_H-M    P1
_symmetry_Int_Tables_number       1
_symmetry_cell_setting            triclinic
loop_
_symmetry_equiv_pos_as_xyz
'x, y, z'
_cell_length_a     45.150116
_cell_length_b     45.12715
_cell_length_c     48.780107
_cell_angle_alpha  89.967545
_cell_angle_beta   89.906073
_cell_angle_gamma 89.706208
loop_
_atom_site_label
_atom_site_type_symbol
_atom_site_fract_x
_atom_site_fract_y
_atom_site_fract_z
_atom_type_partial_charge
O0 O 0.67608 0.14352 0.07976 0.0
Tb1 Tb 0.69324 0.12578 0.11816 0.0
Eu2 Eu 0.70126 0.04114 0.11721 0.0
C3 C 0.64761 0.1491 0.07682 0.0
O4 O 0.6292 0.14066 0.09617 0.0
C5 C 0.73989 0.08968 0.0838 0.0
O6 O 0.74085 0.01255 0.12809 0.0
C7 C 0.65925 1.00885 0.09663 0.0
C8 C 0.76652 0.02453 0.13416 0.0
O9 O 0.76851 0.05355 0.13505 0.0
C10 C 0.6679 0.08251 0.15952 0.0
C11 C 0.63051 0.99316 0.09897 0.0
C12 C 0.6074 1.00133 0.08104 0.0
C13 C 0.58147 0.98423 0.07905 0.0
C14 C 0.57868 0.9592 0.09589 0.0
C15 C 0.6012 0.95081 0.11401 0.0
C16 C 0.62723 0.96766 0.1155 0.0
O17 O 0.73559 0.1092 0.10337 0.0
O18 O 0.72504 0.06466 0.08256 0.0
O19 O 0.71979 0.1454 0.15094 0.0
O20 O 0.68738 0.17183 0.13115 0.0
C21 C 0.70817 0.17179 0.14956 0.0
O22 O 0.68831 0.06169 0.1579 0.0
O23 O 0.66057 0.0975 0.13749 0.0
O24 O 0.68251 0.99776 0.10925 0.0
O25 O 0.65935 0.03799 0.09502 0.0
H26 H 0.61013 0.02052 0.06793 0.0
H27 H 0.5595 0.945 0.094 0.0
H28 H 0.64508 0.96034 0.12874 0.0
O29 O 0.38492 0.65446 0.0791 0.0
Tb30 Tb 0.41087 0.6782 0.10945 0.0
Eu31 Eu 0.47955 0.70253 0.12676 0.0
C32 C 0.36755 0.67077 0.06345 0.0
O33 O 0.36718 0.69959 0.06741 0.0
C34 C 0.44157 0.72894 0.07863 0.0
O35 O 0.51055 0.73786 0.14227 0.0
C36 C 0.50832 0.66394 0.09718 0.0
C37 C 0.49996 0.76344 0.15088 0.0
O38 O 0.47111 0.76677 0.15294 0.0
C39 C 0.44257 0.65656 0.16173 0.0
C40 C 0.51996 0.63311 0.09697 0.0
C41 C 0.50887 0.6127 0.07772 0.0
C42 C 0.52092 0.584 0.07583 0.0
C43 C 0.54404 0.57567 0.09329 0.0
C44 C 0.55635 0.59605 0.11161 0.0
C45 C 0.54422 0.6247 0.11353 0.0
O46 O 0.43183 0.70178 0.07559 0.0
O47 O 0.45513 0.73646 0.10131 0.0
O48 O 0.39957 0.71952 0.13091 0.0
O49 O 0.36739 0.68541 0.12751 0.0
C50 C 0.3725 0.71184 0.13689 0.0
O51 O 0.45806 0.68117 0.1635 0.0
O52 O 0.43218 0.64755 0.13789 0.0
O53 O 0.52121 0.68304 0.11358 0.0
O54 O 0.47945 0.66771 0.09558 0.0
H55 H 0.49142 0.61934 0.06372 0.0
H56 H 0.55411 0.55392 0.09103 0.0
H57 H 0.55427 0.64052 0.12734 0.0
O58 O 0.84638 0.39124 0.07838 0.0
Tb59 Tb 0.83112 0.40596 0.11849 0.0
Eu60 Eu 0.81923 0.49205 0.12009 0.0
C61 C 0.87431 0.38358 0.07491 0.0
O62 O 0.89298 0.38776 0.09516 0.0
C63 C 0.7856 0.44221 0.08547 0.0
O64 O 0.77729 0.51676 0.13075 0.0
C65 C 0.85895 0.52744 0.10013 0.0
C66 C 0.75312 0.50203 0.13686 0.0
O67 O 0.75426 0.47296 0.13772 0.0
C68 C 0.85628 0.44933 0.15963 0.0
C69 C 0.88953 0.53911 0.10123 0.0
C70 C 0.90968 0.5297 0.081 0.0
C71 C 0.93784 0.54226 0.07902 0.0
C72 C 0.94625 0.5641 0.0977 0.0
C73 C 0.92624 0.57471 0.11751 0.0
C74 C 0.89775 0.56214 0.11922 0.0
O75 O 0.78902 0.42541 0.10712 0.0
O76 O 0.79692 0.46894 0.08461 0.0
O77 O 0.8374 0.35939 0.1298 0.0
O78 O 0.80519 0.38486 0.15097 0.0
C79 C 0.81694 0.35863 0.14858 0.0
O80 O 0.83464 0.46897 0.15883 0.0
O81 O 0.86366 0.43442 0.13756 0.0
O82 O 0.83947 0.53591 0.11867 0.0
O83 O 0.85575 0.49974 0.09226 0.0
H84 H 0.90311 0.51326 0.06601 0.0
H85 H 0.96769 0.57454 0.09532 0.0
H86 H 0.88195 0.57083 0.13393 0.0
O87 O 0.14857 0.84723 0.08314 0.0
Tb88 Tb 0.13869 0.83347 0.12483 0.0
Eu89 Eu 0.05412 0.82246 0.12548 0.0
C90 C 0.15404 0.87524 0.07777 0.0
O91 O 0.14971 0.89502 0.09715 0.0
C92 C 0.10477 0.78527 0.09433 0.0
O93 O 0.03397 0.77763 0.1337 0.0
C94 C 0.01633 0.8596 0.1043 0.0
C95 C 1.01125 0.7732 0.15013 0.0
O96 O 0.99948 0.79567 0.16344 0.0
C97 C 0.09576 0.85816 0.16671 0.0
C98 C 1.00085 0.88874 0.10422 0.0
C99 C 1.00995 0.91015 0.08499 0.0
C100 C 0.99342 0.93607 0.08098 0.0
C101 C 0.96809 0.94126 0.09666 0.0
C102 C 0.95831 0.92031 0.11574 0.0
C103 C 0.97454 0.89382 0.11943 0.0
O104 O 0.12159 0.78976 0.11579 0.0
O105 O 0.08026 0.80077 0.09095 0.0
O106 O 0.1855 0.84397 0.12998 0.0
O107 O 0.16567 0.8133 0.1572 0.0
C108 C 0.19029 0.82642 0.15063 0.0
O109 O 0.07444 0.83841 0.16539 0.0
O110 O 0.11002 0.86565 0.14436 0.0
O111 O 1.00871 0.83922 0.12224 0.0
O112 O 0.04471 0.85904 0.09793 0.0
H113 H 0.02896 0.90594 0.07191 0.0
H114 H 0.95496 0.96107 0.0929 0.0
H115 H 0.96623 0.87704 0.13331 0.0
O116 O 0.18066 0.87017 0.43104 0.0
Tb117 Tb 0.19694 0.88697 0.39199 0.0
Eu118 Eu 0.20377 0.98454 0.38675 0.0
C119 C 0.19172 0.8453 0.44092 0.0
O120 O 0.21409 0.83274 0.4281 0.0
C121 C 0.23389 0.93416 0.42058 0.0
O122 O 0.24472 1.01023 0.37458 0.0
C123 C 0.16358 0.02022 0.40615 0.0
C124 C 0.27041 0.99678 0.3712 0.0
O125 O 0.27167 0.9678 0.37347 0.0
C126 C 0.17372 0.93192 0.34948 0.0
C127 C 0.13405 0.03484 0.40638 0.0
C128 C 0.11258 0.02523 0.42542 0.0
C129 C 0.08719 0.04237 0.43057 0.0
C130 C 0.08283 0.06879 0.41621 0.0
C131 C 0.10375 0.07882 0.39716 0.0
C132 C 0.12923 0.06165 0.39199 0.0
O133 O 0.22969 0.92102 0.39701 0.0
O134 O 0.22714 0.96234 0.42214 0.0
O135 O 0.23354 0.8611 0.37526 0.0
O136 O 0.18956 0.84912 0.36468 0.0
C137 C 0.21747 0.84231 0.36171 0.0
O138 O 0.18845 0.9573 0.35001 0.0
O139 O 0.16651 0.91798 0.37229 0.0
O140 O 0.18351 0.02842 0.388 0.0
O141 O 0.16582 0.99221 0.41349 0.0
H142 H 0.11651 1.00554 0.43764 0.0
H143 H 0.06341 0.08225 0.42066 0.0
H144 H 0.14602 0.07016 0.37822 0.0
O145 O 0.63782 0.14909 0.42575 0.0
Tb146 Tb 0.61764 0.17804 0.3952 0.0
Eu147 Eu 0.54556 0.20463 0.37375 0.0
C148 C 0.64857 0.1613 0.44814 0.0
O149 O 0.64538 0.18998 0.4517 0.0
C150 C 0.58269 0.22856 0.4236 0.0
O151 O 0.51589 0.24198 0.35915 0.0
C152 C 0.51375 0.16601 0.40028 0.0
C153 C 0.52694 0.26811 0.35306 0.0
O154 O 0.55585 0.27132 0.35285 0.0
C155 C 0.58832 0.16257 0.33918 0.0
C156 C 0.50124 0.13559 0.40189 0.0
C157 C 0.51119 0.1162 0.42269 0.0
C158 C 0.49734 0.08868 0.42709 0.0
C159 C 0.47431 0.08022 0.40953 0.0
C160 C 0.46309 0.09959 0.38969 0.0
C161 C 0.47649 0.12734 0.3859 0.0
O162 O 0.59223 0.20121 0.42688 0.0
O163 O 0.56958 0.23665 0.40085 0.0
O164 O 0.63724 0.21959 0.38013 0.0
O165 O 0.66398 0.18085 0.38286 0.0
C166 C 0.66383 0.20877 0.37643 0.0
O167 O 0.5713 0.18634 0.33805 0.0
O168 O 0.59717 0.15147 0.36287 0.0
O169 O 0.50298 0.18424 0.38172 0.0
O170 O 0.54225 0.16977 0.40484 0.0
H171 H 0.52861 0.1233 0.43641 0.0
H172 H 0.46373 0.0589 0.41227 0.0
H173 H 0.46713 0.14262 0.37108 0.0
O174 O 0.37732 0.64499 0.4145 0.0
Tb175 Tb 0.35027 0.61441 0.39099 0.0
Eu176 Eu 0.31868 0.54284 0.38007 0.0
C177 C 0.39126 0.63752 0.43716 0.0
O178 O 0.39226 0.60955 0.4446 0.0
C179 C 0.30224 0.58833 0.4287 0.0
O180 O 0.27357 0.52266 0.37236 0.0
C181 C 0.354 0.50699 0.40623 0.0
C182 C 0.26803 0.49733 0.36 0.0
O183 O 0.28978 0.48222 0.34869 0.0
C184 C 0.3649 0.57555 0.34162 0.0
C185 C 0.38353 0.49215 0.40653 0.0
C186 C 0.40414 0.49991 0.42701 0.0
C187 C 0.43109 0.48434 0.42981 0.0
C188 C 0.43761 0.46148 0.41127 0.0
C189 C 0.41719 0.45279 0.39136 0.0
C190 C 0.39008 0.46802 0.38899 0.0
O191 O 0.32957 0.59818 0.42829 0.0
O192 O 0.29183 0.57226 0.40841 0.0
O193 O 0.34387 0.65307 0.36496 0.0
O194 O 0.3066 0.62635 0.3744 0.0
C195 C 0.31555 0.64996 0.36144 0.0
O196 O 0.33924 0.56172 0.34151 0.0
O197 O 0.37613 0.58513 0.36487 0.0
O198 O 0.33442 0.49808 0.38807 0.0
O199 O 0.35283 0.53574 0.41105 0.0
H200 H 0.39856 0.51724 0.44153 0.0
H201 H 0.45845 0.44955 0.41278 0.0
H202 H 0.37407 0.46066 0.37398 0.0
O203 O 0.87608 0.38234 0.41992 0.0
Tb204 Tb 0.89999 0.35216 0.39284 0.0
Eu205 Eu 0.97134 0.32132 0.37306 0.0
C206 C 0.88339 0.38734 0.4456 0.0
O207 O 0.90895 0.37768 0.45492 0.0
C208 C 0.93124 0.30085 0.42308 0.0
O209 O 0.99329 0.27788 0.36198 0.0
C210 C 1.00737 0.35598 0.39932 0.0
C211 C 0.01854 0.27459 0.34878 0.0
O212 O 0.0321 0.29786 0.33868 0.0
C213 C 0.93252 0.3667 0.33844 0.0
C214 C 0.02075 0.38581 0.40292 0.0
C215 C 1.00789 0.40587 0.42168 0.0
C216 C 0.02223 0.43232 0.4284 0.0
C217 C 0.04952 0.43892 0.41645 0.0
C218 C 0.06362 0.41884 0.39872 0.0
C219 C 0.04885 0.39249 0.39151 0.0
O220 O 0.92194 0.32831 0.42607 0.0
O221 O 0.94389 0.29213 0.40023 0.0
O222 O 0.88176 0.31029 0.37714 0.0
O223 O 0.85475 0.34883 0.3775 0.0
C224 C 0.85542 0.32077 0.37174 0.0
O225 O 0.94759 0.34171 0.3373 0.0
O226 O 0.92385 0.37797 0.36208 0.0
O227 O 0.01549 0.33989 0.37808 0.0
O228 O 0.97944 0.35218 0.40643 0.0
H229 H 0.98734 0.40045 0.43202 0.0
H230 H 0.06067 0.45919 0.42233 0.0
H231 H 0.05999 0.37651 0.37846 0.0
O232 O 0.36783 0.87338 0.91472 0.0
Tb233 Tb 0.34141 0.90285 0.88909 0.0
Eu234 Eu 0.31401 0.97364 0.87565 0.0
C235 C 0.38273 0.88202 0.93642 0.0
O236 O 0.38477 0.91042 0.94198 0.0
C237 C 0.2917 0.93156 0.92355 0.0
O238 O 0.27626 1.00465 0.86495 0.0
C239 C 0.35256 1.00353 0.90381 0.0
C240 C 0.25367 0.99693 0.84956 0.0
O241 O 0.25379 0.97075 0.8378 0.0
C242 C 0.35848 0.93765 0.8378 0.0
C243 C 0.38279 0.01618 0.90602 0.0
C244 C 0.40336 1.00295 0.92403 0.0
C245 C 0.4306 0.01656 0.92934 0.0
C246 C 0.43731 0.0435 0.91674 0.0
C247 C 0.41657 0.05813 0.9001 0.0
C248 C 0.38958 0.044 0.89418 0.0
O249 O 0.3189 0.92106 0.92479 0.0
O250 O 0.28293 0.94748 0.90246 0.0
O251 O 0.29915 0.89259 0.86897 0.0
O252 O 0.33388 0.86063 0.86895 0.0
C253 C 0.30686 0.86598 0.86125 0.0
O254 O 0.33317 0.95237 0.83756 0.0
O255 O 0.36943 0.92787 0.86116 0.0
O256 O 0.33409 0.01566 0.88622 0.0
O257 O 0.34909 0.97469 0.90648 0.0
H258 H 0.39776 0.9827 0.9348 0.0
H259 H 0.45817 0.05416 0.92151 0.0
H260 H 0.37323 0.05555 0.88187 0.0
O261 O 0.62869 0.37223 0.92776 0.0
Tb262 Tb 0.60453 0.34417 0.89951 0.0
Eu263 Eu 0.5341 0.31442 0.88353 0.0
C264 C 0.64587 0.35825 0.94531 0.0
O265 O 0.64752 0.32921 0.94402 0.0
C266 C 0.57549 0.29472 0.93353 0.0
O267 O 0.51349 0.27011 0.8737 0.0
C268 C 0.49877 0.35137 0.90846 0.0
C269 C 0.48735 0.26506 0.86275 0.0
O270 O 0.47084 0.28728 0.85429 0.0
C271 C 0.57032 0.35959 0.84691 0.0
C272 C 0.4861 0.38197 0.90795 0.0
C273 C 0.49747 0.40375 0.92581 0.0
C274 C 0.4841 0.43196 0.92777 0.0
C275 C 0.4594 0.43824 0.91134 0.0
C276 C 0.44756 0.41709 0.89353 0.0
C277 C 0.46075 0.38881 0.89208 0.0
O278 O 0.58464 0.32226 0.93477 0.0
O279 O 0.56087 0.28532 0.91201 0.0
O280 O 0.62009 0.3019 0.88225 0.0
O281 O 0.64836 0.33944 0.88133 0.0
C282 C 0.64621 0.31153 0.87513 0.0
O283 O 0.55594 0.33428 0.84628 0.0
O284 O 0.57952 0.37076 0.87033 0.0
O285 O 0.4898 0.33248 0.88968 0.0
O286 O 0.527 0.34819 0.91485 0.0
H287 H 0.51638 0.39854 0.93861 0.0
H288 H 0.44802 0.45933 0.91352 0.0
H289 H 0.451 0.37217 0.87893 0.0
O290 O 0.16952 0.64252 0.92369 0.0
Tb291 Tb 0.18552 0.63223 0.88259 0.0
Eu292 Eu 0.19674 0.54715 0.88006 0.0
C293 C 0.18536 0.66045 0.93904 0.0
O294 O 0.21133 0.669 0.92987 0.0
C295 C 0.23369 0.59653 0.91296 0.0
O296 O 0.23769 0.51835 0.87644 0.0
C297 C 0.1544 0.51467 0.89955 0.0
C298 C 0.2555 0.51757 0.85507 0.0
O299 O 0.24981 0.53449 0.83378 0.0
C300 C 0.16424 0.59058 0.83857 0.0
C301 C 0.12411 0.50214 0.89867 0.0
C302 C 0.10219 0.51449 0.91578 0.0
C303 C 0.0751 0.50001 0.92013 0.0
C304 C 0.06946 0.47369 0.90581 0.0
C305 C 0.0908 0.46115 0.88843 0.0
C306 C 0.11831 0.47514 0.88513 0.0
O307 O 0.22914 0.6149 0.89251 0.0
O308 O 0.21871 0.57169 0.91507 0.0
O309 O 0.17457 0.67899 0.87631 0.0
O310 O 0.20685 0.65893 0.85073 0.0
C311 C 0.19304 0.68357 0.85633 0.0
O312 O 0.18446 0.56944 0.83981 0.0
O313 O 0.15526 0.60331 0.8613 0.0
O314 O 0.17473 0.50441 0.88264 0.0
O315 O 0.15761 0.54291 0.90571 0.0
H316 H 0.10683 0.53474 0.92686 0.0
H317 H 0.04918 0.46158 0.90957 0.0
H318 H 0.13533 0.46449 0.87287 0.0
O319 O 0.88987 0.17366 0.93171 0.0
Tb320 Tb 0.89443 0.19696 0.89292 0.0
Eu321 Eu 0.97725 0.20152 0.88905 0.0
C322 C 0.87815 0.147 0.93127 0.0
O323 O 0.87372 0.1344 0.90735 0.0
C324 C 0.93244 0.24327 0.92234 0.0
O325 O 1.00497 0.2415 0.87873 0.0
C326 C 1.01074 0.15914 0.90782 0.0
C327 C 0.99245 0.26616 0.8701 0.0
O328 O 0.96363 0.26676 0.86641 0.0
C329 C 0.93281 0.17001 0.84691 0.0
C330 C 0.02324 0.12872 0.90561 0.0
C331 C 0.01353 0.10741 0.92459 0.0
C332 C 0.02711 0.07948 0.92619 0.0
C333 C 0.05018 0.07256 0.90809 0.0
C334 C 0.06066 0.09338 0.88905 0.0
C335 C 0.04725 0.12171 0.88803 0.0
O336 O 0.91384 0.2397 0.90204 0.0
O337 O 0.95592 0.22609 0.92461 0.0
O338 O 0.84648 0.19594 0.89862 0.0
O339 O 0.86346 0.21351 0.86158 0.0
C340 C 0.83939 0.20787 0.87534 0.0
O341 O 0.95466 0.18911 0.84916 0.0
O342 O 0.91601 0.16345 0.86802 0.0
O343 O 0.02061 0.1801 0.89149 0.0
O344 O 0.98248 0.16203 0.91412 0.0
H345 H 0.99596 0.11292 0.93892 0.0
H346 H 0.06146 0.05139 0.91011 0.0
H347 H 0.05584 0.13825 0.87406 0.0
O348 O 0.87362 0.14006 0.581 0.0
Tb349 Tb 0.84703 0.11818 0.61203 0.0
Eu350 Eu 0.82332 0.04498 0.63146 0.0
C351 C 0.85932 0.15294 0.56072 0.0
O352 O 0.83034 0.15083 0.55975 0.0
C353 C 0.79694 0.08373 0.58316 0.0
O354 O 0.78704 0.01562 0.64768 0.0
C355 C 0.86133 0.013 0.6041 0.0
C356 C 0.76183 0.02719 0.65608 0.0
O357 O 0.7593 0.05618 0.65743 0.0
C358 C 0.86629 0.08637 0.66576 0.0
C359 C 0.89194 1.00061 0.60303 0.0
C360 C 0.91224 0.01222 0.58393 0.0
C361 C 0.94034 0.99928 0.58056 0.0
C362 C 0.94817 0.97455 0.59632 0.0
C363 C 0.92815 0.96187 0.61488 0.0
C364 C 0.89997 0.97505 0.61821 0.0
O365 O 0.82387 0.094 0.5798 0.0
O366 O 0.78987 0.06906 0.60542 0.0
O367 O 0.80612 0.1376 0.62912 0.0
O368 O 0.84497 0.16383 0.62633 0.0
C369 C 0.81729 0.16382 0.63357 0.0
O370 O 0.84301 0.06902 0.66731 0.0
O371 O 0.8758 0.09669 0.64204 0.0
O372 O 0.84297 1.00207 0.6224 0.0
O373 O 0.85753 0.04163 0.59984 0.0
H374 H 0.90599 0.03094 0.57122 0.0
H375 H 0.96943 0.96394 0.59269 0.0
H376 H 0.88422 0.96501 0.63213 0.0
O377 O 0.37601 0.85526 0.58414 0.0
Tb378 Tb 0.39857 0.83609 0.61934 0.0
Eu379 Eu 0.48423 0.82581 0.61703 0.0
C380 C 0.35365 0.84086 0.57321 0.0
O381 O 0.34621 0.81508 0.58362 0.0
C382 C 0.43396 0.79269 0.58013 0.0
O383 O 0.50665 0.78097 0.61819 0.0
C384 C 0.51988 0.86628 0.59877 0.0
C385 C 0.5215 0.77027 0.6392 0.0
O386 O 0.52344 0.7859 0.66184 0.0
C387 C 0.44371 0.85885 0.65907 0.0
C388 C 0.53429 0.89567 0.60113 0.0
C389 C 0.52578 0.91832 0.58279 0.0
C390 C 0.54204 0.94465 0.58097 0.0
C391 C 0.56634 0.94883 0.5982 0.0
C392 C 0.575 0.92681 0.61678 0.0
C393 C 0.55919 0.90007 0.61812 0.0
O394 O 0.4125 0.79597 0.59818 0.0
O395 O 0.45856 0.8083 0.58057 0.0
O396 O 0.3829 0.80496 0.65041 0.0
O397 O 0.35736 0.84348 0.64201 0.0
C398 C 0.35874 0.81932 0.65653 0.0
O399 O 0.46423 0.83816 0.65811 0.0
O400 O 0.43068 0.86646 0.63615 0.0
O401 O 0.52868 0.84432 0.61466 0.0
O402 O 0.49145 0.86553 0.59278 0.0
H403 H 0.50756 0.91481 0.56872 0.0
H404 H 0.57919 0.96901 0.5965 0.0
H405 H 0.56685 0.8826 0.63165 0.0
O406 O 0.64887 0.37132 0.58893 0.0
Tb407 Tb 0.67497 0.39873 0.61612 0.0
Eu408 Eu 0.69637 0.47299 0.63138 0.0
C409 C 0.63491 0.38074 0.56697 0.0
O410 O 0.63351 0.40923 0.56157 0.0
C411 C 0.72308 0.43274 0.58374 0.0
O412 O 0.73276 0.5024 0.64739 0.0
C413 C 0.65951 0.50456 0.60243 0.0
C414 C 0.7583 0.49081 0.65486 0.0
O415 O 0.76094 0.46181 0.65582 0.0
C416 C 0.65337 0.4337 0.66748 0.0
C417 C 0.63069 0.52061 0.60041 0.0
C418 C 0.60894 0.51031 0.582 0.0
C419 C 0.58412 0.52796 0.57564 0.0
C420 C 0.5806 0.55554 0.58834 0.0
C421 C 0.60172 0.56614 0.60675 0.0
C422 C 0.62673 0.5487 0.61285 0.0
O423 O 0.69734 0.41943 0.58141 0.0
O424 O 0.72958 0.44812 0.60572 0.0
O425 O 0.67924 0.35485 0.63425 0.0
O426 O 0.71705 0.38259 0.63359 0.0
C427 C 0.70713 0.35643 0.64038 0.0
O428 O 0.6761 0.4518 0.66863 0.0
O429 O 0.64497 0.42181 0.64409 0.0
O430 O 0.67997 0.51588 0.61838 0.0
O431 O 0.66005 0.47535 0.6016 0.0
H432 H 0.61222 0.48949 0.57132 0.0
H433 H 0.56172 0.5694 0.58312 0.0
H434 H 0.64363 0.55772 0.62615 0.0
O435 O 0.15569 0.68435 0.58244 0.0
Tb436 Tb 0.13282 0.69854 0.61956 0.0
Eu437 Eu 0.033 0.69784 0.61885 0.0
C438 C 0.16243 0.65619 0.57899 0.0
O439 O 0.15351 0.63695 0.59742 0.0
C440 C 0.08356 0.72959 0.58755 0.0
O441 O 1.0063 0.73934 0.62746 0.0
C442 C 0.99815 0.65703 0.59988 0.0
C443 C 0.01516 0.7604 0.64415 0.0
O444 O 0.04 0.75683 0.65778 0.0
C445 C 0.08639 0.67059 0.65742 0.0
C446 C 0.98534 0.62681 0.60168 0.0
C447 C 0.99528 0.60475 0.58334 0.0
C448 C 0.98058 0.5774 0.58124 0.0
C449 C 0.95623 0.57203 0.59841 0.0
C450 C 0.94598 0.59358 0.61676 0.0
C451 C 0.96033 0.62107 0.61826 0.0
O452 O 0.09453 0.72571 0.61208 0.0
O453 O 0.05604 0.72158 0.58399 0.0
O454 O 0.15213 0.73844 0.63661 0.0
O455 O 0.16542 0.69662 0.65284 0.0
C456 C 0.16925 0.72525 0.65427 0.0
O457 O 0.05957 0.68287 0.65649 0.0
O458 O 0.10165 0.66577 0.6348 0.0
O459 O 0.9896 0.67716 0.61777 0.0
O460 O 0.02594 0.6599 0.59206 0.0
H461 H 0.01391 0.6093 0.56998 0.0
H462 H 0.94388 0.5516 0.59645 0.0
H463 H 0.95144 0.6381 0.63163 0.0
H464 H 0.48648 0.99436 0.92396 0.0
H465 H 0.41995 0.01712 0.98383 0.0
H466 H 0.52235 0.98567 0.96057 0.0
H467 H 0.45591 1.01056 0.0205 0.0
H468 H 0.52122 0.97708 0.08336 0.0
H469 H 0.48457 0.98022 0.0473 0.0
H470 H 0.55181 1.01123 0.99107 0.0
H471 H 0.58902 1.00517 0.02648 0.0
C472 C 0.47953 0.997 0.94509 0.0
C473 C 0.45047 1.00584 0.95125 0.0
C474 C 0.50015 0.99261 0.9661 0.0
C475 C 0.49236 0.99781 0.99369 0.0
C476 C 0.46284 1.00584 0.9997 0.0
C477 C 0.4421 1.00958 0.97871 0.0
C478 C 0.52834 0.98423 0.06322 0.0
C479 C 0.55833 0.99049 0.05792 0.0
C480 C 0.50711 0.98645 0.04251 0.0
C481 C 0.51503 0.99572 0.01596 0.0
C482 C 0.54482 1.00323 0.01097 0.0
C483 C 0.56619 1.00041 0.03156 0.0
H484 H 0.49598 0.52945 0.08056 0.0
H485 H 0.52907 0.59192 0.0213 0.0
H486 H 0.48861 0.49298 0.04429 0.0
H487 H 0.52382 0.55514 0.98512 0.0
H488 H 0.48647 0.4923 0.92165 0.0
H489 H 0.49299 0.52926 0.95699 0.0
H490 H 0.51279 0.46002 0.01563 0.0
H491 H 0.50338 0.42284 0.98066 0.0
C492 C 0.50139 0.53535 0.05961 0.0
C493 C 0.51254 0.56354 0.05352 0.0
C494 C 0.49772 0.51432 0.03884 0.0
C495 C 0.5059 0.52075 0.01157 0.0
C496 C 0.51672 0.54931 0.00562 0.0
C497 C 0.51974 0.57051 0.02632 0.0
C498 C 0.49202 0.48487 0.94214 0.0
C499 C 0.49381 0.45444 0.94831 0.0
C500 C 0.49619 0.50622 0.96246 0.0
C501 C 0.50306 0.49788 0.98951 0.0
C502 C 0.50667 0.46745 0.9953 0.0
C503 C 0.50189 0.44602 0.97503 0.0
H504 H 0.01426 0.49789 0.92016 0.0
H505 H 0.08862 0.5242 0.97016 0.0
H506 H 0.9811 0.50682 0.95847 0.0
H507 H 0.05519 0.53592 0.0075 0.0
H508 H 0.99461 0.52161 0.08008 0.0
H509 H 0.02726 0.51257 0.041 0.0
H510 H 0.95755 0.54126 0.98606 0.0
H511 H 0.92468 0.54838 0.02517 0.0
C512 C 0.02354 0.506 0.93917 0.0
C513 C 0.05425 0.51002 0.94199 0.0
C514 C 1.0044 0.51152 0.96112 0.0
C515 C 0.01538 0.52185 0.98634 0.0
C516 C 0.04592 0.52728 0.98869 0.0
C517 C 0.06512 0.52117 0.96694 0.0
C518 C 0.98637 0.52559 0.05955 0.0
C519 C 0.9572 0.53534 0.05547 0.0
C520 C 1.0051 0.5208 0.03714 0.0
C521 C 0.99522 0.52637 0.01021 0.0
C522 C 0.96587 0.53617 0.00633 0.0
C523 C 0.94701 0.54035 0.02871 0.0
H524 H 0.03272 0.98163 0.079 0.0
H525 H 0.96744 0.93512 0.03139 0.0
H526 H 0.04003 0.01662 0.04102 0.0
H527 H 0.97429 0.97 0.99354 0.0
H528 H 0.01872 0.01972 0.92216 0.0
H529 H 0.0117 0.98439 0.95949 0.0
H530 H 0.01145 0.05639 0.01783 0.0
H531 H 0.01929 0.09163 0.98055 0.0
C532 C 0.02021 0.97887 0.06025 0.0
C533 C 0.99976 0.95581 0.05775 0.0
C534 C 0.02411 0.99893 0.03868 0.0
C535 C 1.00764 0.99608 0.01434 0.0
C536 C 0.98751 0.97259 0.01189 0.0
C537 C 0.98354 0.9527 0.03346 0.0
C538 C 0.01704 0.02797 0.94295 0.0
C539 C 0.0195 0.05842 0.94843 0.0
C540 C 0.01289 1.00778 0.96431 0.0
C541 C 1.01123 0.01761 0.99161 0.0
C542 C 0.01307 0.04813 0.99703 0.0
C543 C 0.0171 0.06833 0.97566 0.0
H544 H 0.0792 0.07363 0.47716 0.0
H545 H 0.04908 0.99567 0.43464 0.0
H546 H 0.04307 0.06483 0.51367 0.0
H547 H 0.01242 0.98693 0.47112 0.0
H548 H 0.92943 1.00503 0.52586 0.0
H549 H 0.9656 0.01489 0.48942 0.0
H550 H 0.03413 0.025 0.55028 0.0
H551 H 0.99806 0.01488 0.58657 0.0
C552 C 0.0649 0.05447 0.47584 0.0
C553 C 0.06686 0.0352 0.45333 0.0
C554 C 0.04428 0.04945 0.49665 0.0
C555 C 0.02488 0.02531 0.49512 0.0
C556 C 0.02697 1.00586 0.47263 0.0
C557 C 0.04801 1.01065 0.45197 0.0
C558 C 0.95212 1.0099 0.53138 0.0
C559 C 0.961 1.00943 0.55895 0.0
C560 C 0.97284 0.01514 0.51058 0.0
C561 C 1.00267 0.02046 0.51706 0.0
C562 C 1.01127 0.02103 0.54472 0.0
C563 C 0.99069 0.01532 0.56545 0.0
H564 H 0.55201 0.07746 0.45045 0.0
H565 H 0.45902 0.05717 0.45919 0.0
H566 H 0.56309 0.04511 0.48925 0.0
H567 H 0.47022 0.02309 0.4958 0.0
H568 H 0.49288 0.97943 0.57569 0.0
H569 H 0.48324 0.01704 0.54076 0.0
H570 H 0.567 0.99568 0.50201 0.0
H571 H 0.5771 0.95964 0.53812 0.0
C572 C 0.53395 0.06607 0.46051 0.0
C573 C 0.50469 0.06962 0.45121 0.0
C574 C 0.54032 0.04713 0.48258 0.0
C575 C 0.51763 0.03106 0.49573 0.0
C576 C 0.48837 0.03518 0.48666 0.0
C577 C 0.48198 0.0544 0.46506 0.0
C578 C 0.50911 0.98298 0.55965 0.0
C579 C 0.5356 0.96674 0.55939 0.0
C580 C 0.50362 1.00439 0.53949 0.0
C581 C 0.52425 1.0095 0.51823 0.0
C582 C 0.55079 0.99298 0.51817 0.0
C583 C 0.5565 0.97206 0.53867 0.0
H584 H 0.54895 0.4788 0.57311 0.0
H585 H 0.5714 0.55871 0.52948 0.0
H586 H 0.51022 0.46843 0.53943 0.0
H587 H 0.53392 0.54797 0.49512 0.0
H588 H 0.44659 0.53826 0.45186 0.0
H589 H 0.48265 0.54784 0.48789 0.0
H590 H 0.50037 0.45386 0.49444 0.0
H591 H 0.46291 0.44425 0.46014 0.0
C592 C 0.54589 0.4938 0.55598 0.0
C593 C 0.56299 0.51953 0.55384 0.0
C594 C 0.52375 0.48794 0.53664 0.0
C595 C 0.51859 0.50753 0.51456 0.0
C596 C 0.53655 0.53278 0.51214 0.0
C597 C 0.5583 0.53879 0.53163 0.0
C598 C 0.45783 0.51964 0.46132 0.0
C599 C 0.45208 0.49054 0.4527 0.0
C600 C 0.47888 0.52512 0.48175 0.0
C601 C 0.49489 0.50166 0.49394 0.0
C602 C 0.4885 0.47254 0.48578 0.0
C603 C 0.46726 0.46706 0.46566 0.0
H604 H 0.97996 0.51666 0.58473 0.0
H605 H 0.99858 0.58809 0.5283 0.0
H606 H 0.98624 0.48106 0.54795 0.0
H607 H 1.00746 0.55228 0.49203 0.0
H608 H 0.99389 0.48556 0.42465 0.0
H609 H 0.98333 0.52014 0.46207 0.0
H610 H 0.02007 0.45715 0.51987 0.0
H611 H 0.0288 0.42234 0.48251 0.0
C612 C 0.9857 0.52481 0.56453 0.0
C613 C 0.9885 0.55539 0.55957 0.0
C614 C 0.98968 0.50427 0.54341 0.0
C615 C 0.99716 0.51363 0.51678 0.0
C616 C 1.00103 0.54416 0.51205 0.0
C617 C 0.99656 0.56476 0.53309 0.0
C618 C 0.99887 0.47903 0.44552 0.0
C619 C 0.01158 0.45128 0.45096 0.0
C620 C 0.99334 0.49894 0.46694 0.0
C621 C 1.00109 0.4917 0.49414 0.0
C622 C 0.0133 0.46347 0.4994 0.0
C623 C 0.01833 0.44345 0.47805 0.0
H624 H 0.57242 0.94183 0.16221 0.0
H625 H 0.61894 0.89641 0.09743 0.0
H626 H 0.55263 0.89462 0.17854 0.0
H627 H 0.59848 0.84933 0.11276 0.0
H628 H 0.56049 0.76554 0.14544 0.0
H629 H 0.59164 0.80962 0.14416 0.0
H630 H 0.5148 0.86432 0.16068 0.0
H631 H 0.48412 0.82045 0.16284 0.0
C632 C 0.57926 0.92151 0.15215 0.0
C633 C 0.59749 0.92255 0.12888 0.0
C634 C 0.56757 0.89451 0.16115 0.0
C635 C 0.57345 0.86808 0.1467 0.0
C636 C 0.59362 0.86902 0.12465 0.0
C637 C 0.60548 0.89599 0.11584 0.0
C638 C 0.55039 0.78695 0.14934 0.0
C639 C 0.51972 0.78944 0.15399 0.0
C640 C 0.56824 0.81228 0.14845 0.0
C641 C 0.55582 0.84071 0.15209 0.0
C642 C 0.52539 0.84291 0.15816 0.0
C643 C 0.50763 0.81765 0.15918 0.0
H644 H 0.74349 0.56146 0.14452 0.0
H645 H 0.69791 0.47805 0.13638 0.0
H646 H 0.69597 0.58742 0.1464 0.0
H647 H 0.6507 0.50381 0.13686 0.0
H648 H 0.56641 0.55069 0.14729 0.0
H649 H 0.61452 0.53029 0.16046 0.0
H650 H 0.65786 0.60131 0.11659 0.0
H651 H 0.60971 0.62232 0.10499 0.0
C652 C 0.72331 0.54867 0.14322 0.0
C653 C 0.72446 0.51772 0.14018 0.0
C654 C 0.69603 0.56355 0.14416 0.0
C655 C 0.66928 0.54786 0.14169 0.0
C656 C 0.67061 0.51676 0.13942 0.0
C657 C 0.69781 0.5019 0.13888 0.0
C658 C 0.58633 0.56238 0.14138 0.0
C659 C 0.58449 0.58805 0.12524 0.0
C660 C 0.61392 0.55052 0.14854 0.0
C661 C 0.64027 0.56368 0.13908 0.0
C662 C 0.63824 0.59059 0.12451 0.0
C663 C 0.61061 0.60273 0.11782 0.0
H664 H 0.95796 0.75716 0.17292 0.0
H665 H 0.03492 0.7213 0.13165 0.0
H666 H 0.93528 0.70795 0.17279 0.0
H667 H 0.01235 0.67258 0.1314 0.0
H668 H 0.97683 0.58388 0.1466 0.0
H669 H 0.99662 0.63161 0.16102 0.0
H670 H 0.91493 0.67436 0.13685 0.0
H671 H 0.89509 0.62645 0.12267 0.0
C672 C 0.97017 0.73877 0.16411 0.0
C673 C 0.99821 0.74319 0.15218 0.0
C674 C 0.95713 0.71062 0.16396 0.0
C675 C 0.97204 0.6863 0.1522 0.0
C676 C 1.00042 0.69068 0.14104 0.0
C677 C 0.01329 0.71873 0.14097 0.0
C678 C 0.96281 0.60337 0.14516 0.0
C679 C 0.93454 0.60152 0.13329 0.0
C680 C 0.9742 0.63073 0.15321 0.0
C681 C 0.9576 0.65686 0.14952 0.0
C682 C 0.92827 0.65464 0.14002 0.0
C683 C 0.91684 0.62718 0.13198 0.0
H684 H 0.82344 0.04286 0.1419 0.0
H685 H 0.77063 0.96373 0.13472 0.0
H686 H 0.86809 0.01282 0.14398 0.0
H687 H 0.81549 0.93337 0.13768 0.0
H688 H 0.90517 0.89858 0.10012 0.0
H689 H 0.85702 0.92116 0.10963 0.0
H690 H 0.89791 0.9792 0.16887 0.0
H691 H 0.94616 0.95718 0.15828 0.0
C692 C 0.82128 0.01898 0.14124 0.0
C693 C 0.79339 1.00578 0.13795 0.0
C694 C 0.84699 1.00162 0.14269 0.0
C695 C 0.84559 0.9705 0.14109 0.0
C696 C 0.81754 0.95724 0.13868 0.0
C697 C 0.79177 0.97466 0.13709 0.0
C698 C 0.90353 0.91527 0.11602 0.0
C699 C 0.92921 0.9259 0.12875 0.0
C700 C 0.87594 0.92841 0.12141 0.0
C701 C 0.8735 0.95249 0.13968 0.0
C702 C 0.89897 0.96122 0.1542 0.0
C703 C 0.92656 0.94827 0.14857 0.0
H704 H 0.07405 0.25916 0.3296 0.0
H705 H 0.99611 0.22298 0.36864 0.0
H706 H 0.09995 0.21166 0.33662 0.0
H707 H 0.0221 0.17625 0.37569 0.0
H708 H 0.09792 0.12995 0.42528 0.0
H709 H 0.08005 0.17754 0.40796 0.0
H710 H 0.08127 0.14324 0.32548 0.0
H711 H 0.09913 0.09499 0.34296 0.0
C712 C 0.06226 0.24103 0.33914 0.0
C713 C 0.03309 0.24502 0.34882 0.0
C714 C 0.07708 0.21392 0.34305 0.0
C715 C 0.0629 0.19056 0.3567 0.0
C716 C 0.03338 0.19404 0.36507 0.0
C717 C 0.01858 0.22087 0.36106 0.0
C718 C 0.09509 0.13277 0.40337 0.0
C719 C 0.09963 0.10883 0.38543 0.0
C720 C 0.08492 0.15994 0.39351 0.0
C721 C 0.07926 0.16382 0.36551 0.0
C722 C 0.08573 0.14066 0.34717 0.0
C723 C 0.09594 0.11322 0.35711 0.0
H724 H 0.32726 0.97597 0.37059 0.0
H725 H 0.27632 0.05681 0.36314 0.0
H726 H 0.37276 1.00412 0.36849 0.0
H727 H 0.32216 0.08519 0.35995 0.0
H728 H 0.45366 0.0547 0.35357 0.0
H729 H 0.40606 0.03214 0.34268 0.0
H730 H 0.36127 0.10126 0.38831 0.0
H731 H 0.40891 0.12434 0.39784 0.0
C732 C 0.32575 0.99977 0.36799 0.0
C733 C 0.29805 0.01409 0.36721 0.0
C734 C 0.35199 0.01602 0.36652 0.0
C735 C 0.35141 0.04711 0.36395 0.0
C736 C 0.32362 0.06136 0.36228 0.0
C737 C 0.29728 0.04506 0.36397 0.0
C738 C 0.43347 0.06564 0.36023 0.0
C739 C 0.43486 0.09138 0.37628 0.0
C740 C 0.40618 0.05247 0.35444 0.0
C741 C 0.37965 0.06437 0.36515 0.0
C742 C 0.38103 0.09144 0.37951 0.0
C743 C 0.40835 0.10483 0.38493 0.0
H744 H 0.3984 0.39712 0.40187 0.0
H745 H 0.45382 0.44751 0.34732 0.0
H746 H 0.42206 0.35137 0.38649 0.0
H747 H 0.47681 0.40173 0.33073 0.0
H748 H 0.46607 0.27017 0.35293 0.0
H749 H 0.43436 0.31416 0.35431 0.0
H750 H 0.51198 0.36969 0.35019 0.0
H751 H 0.54329 0.32599 0.34779 0.0
C752 C 0.41468 0.39816 0.38555 0.0
C753 C 0.4241 0.42569 0.37552 0.0
C754 C 0.42839 0.37193 0.37673 0.0
C755 C 0.45182 0.3727 0.35761 0.0
C756 C 0.45938 0.40023 0.34593 0.0
C757 C 0.4459 0.42646 0.35502 0.0
C758 C 0.47628 0.2918 0.35181 0.0
C759 C 0.50728 0.2945 0.35043 0.0
C760 C 0.45809 0.31708 0.35278 0.0
C761 C 0.47046 0.34569 0.35255 0.0
C762 C 0.50142 0.34822 0.34997 0.0
C763 C 0.51952 0.32301 0.3488 0.0
H764 H 0.0895 0.41705 0.34722 0.0
H765 H 0.10864 0.43404 0.43243 0.0
H766 H 0.13949 0.43449 0.33479 0.0
H767 H 0.15769 0.4516 0.42012 0.0
H768 H 0.22029 0.52056 0.38681 0.0
H769 H 0.17186 0.49855 0.3936 0.0
H770 H 0.19746 0.42373 0.34376 0.0
H771 H 0.24662 0.44578 0.33692 0.0
C772 C 0.10449 0.42402 0.36326 0.0
C773 C 0.09493 0.42477 0.39073 0.0
C774 C 0.133 0.43404 0.35617 0.0
C775 C 0.15222 0.44502 0.37646 0.0
C776 C 0.14316 0.44396 0.40397 0.0
C777 C 0.11504 0.43387 0.411 0.0
C778 C 0.21572 0.49954 0.37702 0.0
C779 C 0.23759 0.48486 0.3615 0.0
C780 C 0.18791 0.48687 0.38103 0.0
C781 C 0.18097 0.45924 0.36949 0.0
C782 C 0.20221 0.44505 0.35289 0.0
C783 C 0.23035 0.45766 0.34907 0.0
H784 H 0.43295 0.24459 0.84523 0.0
H785 H 0.51571 0.21551 0.88099 0.0
H786 H 0.4129 0.19441 0.85127 0.0
H787 H 0.49565 0.16616 0.88705 0.0
H788 H 0.43651 0.10211 0.93295 0.0
H789 H 0.45207 0.15164 0.92013 0.0
H790 H 0.42435 0.13594 0.83683 0.0
H791 H 0.4091 0.08532 0.84963 0.0
C792 C 0.44698 0.22752 0.85399 0.0
C793 C 0.47584 0.23425 0.86293 0.0
C794 C 0.43551 0.19883 0.85734 0.0
C795 C 0.45264 0.17658 0.86992 0.0
C796 C 0.48185 0.18301 0.8776 0.0
C797 C 0.49333 0.21137 0.87407 0.0
C798 C 0.43378 0.10903 0.91182 0.0
C799 C 0.42232 0.08946 0.89212 0.0
C800 C 0.4426 0.13747 0.90454 0.0
C801 C 0.43992 0.1474 0.87741 0.0
C802 C 0.42675 0.12869 0.85788 0.0
C803 C 0.41804 0.09984 0.86519 0.0
H804 H 0.43791 0.46455 0.86036 0.0
H805 H 0.3944 0.38826 0.89482 0.0
H806 H 0.39017 0.48509 0.84668 0.0
H807 H 0.34632 0.40849 0.88066 0.0
H808 H 0.27204 0.47874 0.89528 0.0
H809 H 0.31741 0.44977 0.89845 0.0
H810 H 0.34531 0.48312 0.81956 0.0
H811 H 0.29986 0.51267 0.81657 0.0
C812 C 0.4181 0.45171 0.86416 0.0
C813 C 0.41983 0.42487 0.87873 0.0
C814 C 0.39069 0.46345 0.85629 0.0
C815 C 0.36427 0.44869 0.8629 0.0
C816 C 0.3662 0.42069 0.87565 0.0
C817 C 0.39373 0.40886 0.88343 0.0
C818 C 0.28767 0.47978 0.87845 0.0
C819 C 0.28235 0.49832 0.85578 0.0
C820 C 0.31365 0.46285 0.88016 0.0
C821 C 0.33511 0.46399 0.85925 0.0
C822 C 0.3294 0.48188 0.83616 0.0
C823 C 0.30331 0.49879 0.83442 0.0
H824 H 0.97198 0.32232 0.86118 0.0
H825 H 0.05288 0.27216 0.87168 0.0
H826 H 1.00011 0.36793 0.85995 0.0
H827 H 0.0814 0.31793 0.86938 0.0
H828 H 0.11232 0.40837 0.90612 0.0
H829 H 0.09114 0.35971 0.89706 0.0
H830 H 0.03306 0.39886 0.83645 0.0
H831 H 0.05349 0.44763 0.84677 0.0
C832 C 0.99588 0.32097 0.86271 0.0
C833 C 1.01012 0.29357 0.86673 0.0
C834 C 0.01214 0.34722 0.86177 0.0
C835 C 0.04319 0.34682 0.86452 0.0
C836 C 0.05754 0.31923 0.86758 0.0
C837 C 0.04118 0.29294 0.86877 0.0
C838 C 0.09575 0.40625 0.89021 0.0
C839 C 0.08465 0.43153 0.87695 0.0
C840 C 0.08349 0.37837 0.885 0.0
C841 C 0.05994 0.37526 0.86631 0.0
C842 C 0.05061 0.40042 0.85147 0.0
C843 C 0.0626 0.42831 0.85699 0.0
H844 H 0.20569 0.99212 0.81541 0.0
H845 H 0.24087 0.04539 0.8811 0.0
H846 H 0.15965 0.02059 0.81695 0.0
H847 H 0.1946 0.07286 0.88363 0.0
H848 H 0.11178 0.12538 0.88251 0.0
H849 H 0.15957 0.10653 0.86627 0.0
H850 H 0.11833 0.0233 0.84531 0.0
H851 H 0.0708 0.04277 0.8601 0.0
C852 C 0.20367 1.01002 0.83008 0.0
C853 C 0.22691 0.01625 0.84829 0.0
C854 C 0.17715 0.0263 0.83111 0.0
C855 C 0.173 0.04896 0.85065 0.0
C856 C 0.19686 0.05597 0.86801 0.0
C857 C 0.22347 0.03997 0.86673 0.0
C858 C 0.11283 0.1035 0.87343 0.0
C859 C 0.08758 0.08546 0.87286 0.0
C860 C 0.14034 0.09244 0.86453 0.0
C861 C 0.1432 0.06304 0.85498 0.0
C862 C 0.11731 0.04603 0.85234 0.0
C863 C 0.08992 0.05715 0.861 0.0
H864 H 0.96815 0.77803 0.61273 0.0
H865 H 0.02432 0.80734 0.67884 0.0
H866 H 0.94405 0.82626 0.6117 0.0
H867 H 0.9994 0.85544 0.67857 0.0
H868 H 0.98057 0.94729 0.63942 0.0
H869 H 0.9986 0.89801 0.65077 0.0
H870 H 0.91242 0.86188 0.63229 0.0
H871 H 0.89488 0.91133 0.61957 0.0
C872 C 0.97502 0.79461 0.62742 0.0
C873 C 0.99844 0.78884 0.64567 0.0
C874 C 0.96097 0.82232 0.627 0.0
C875 C 0.96974 0.84504 0.64497 0.0
C876 C 0.99233 0.83878 0.66406 0.0
C877 C 1.00657 0.81109 0.66432 0.0
C878 C 0.96533 0.92888 0.63816 0.0
C879 C 0.93641 0.93322 0.62819 0.0
C880 C 0.97561 0.90052 0.6449 0.0
C881 C 0.95718 0.87566 0.64209 0.0
C882 C 0.9275 0.88035 0.63413 0.0
C883 C 0.91725 0.9088 0.62724 0.0
H884 H 0.70475 0.04494 0.66501 0.0
H885 H 0.75879 0.96652 0.6543 0.0
H886 H 0.66042 0.015 0.66266 0.0
H887 H 0.71422 0.93617 0.65293 0.0
H888 H 0.62997 0.90756 0.60362 0.0
H889 H 0.67646 0.92817 0.62009 0.0
H890 H 0.62829 0.979 0.68084 0.0
H891 H 0.58175 0.9591 0.66325 0.0
C892 C 0.70722 0.02117 0.66284 0.0
C893 C 0.73534 1.00821 0.65947 0.0
C894 C 0.68168 1.00386 0.6617 0.0
C895 C 0.68357 0.97305 0.6574 0.0
C896 C 0.71185 0.95986 0.65577 0.0
C897 C 0.73744 0.97725 0.65671 0.0
C898 C 0.62958 0.92227 0.62117 0.0
C899 C 0.60251 0.93162 0.63238 0.0
C900 C 0.6562 0.93417 0.63066 0.0
C901 C 0.65622 0.95568 0.65159 0.0
C902 C 0.62912 0.96301 0.66431 0.0
C903 C 0.60249 0.95132 0.65459 0.0
H904 H 0.52524 0.73533 0.59377 0.0
H905 H 0.55132 0.73854 0.67891 0.0
H906 H 0.54934 0.68739 0.58895 0.0
H907 H 0.57572 0.69013 0.67394 0.0
H908 H 0.57802 0.58582 0.65504 0.0
H909 H 0.56148 0.63664 0.66509 0.0
H910 H 0.59989 0.66626 0.58875 0.0
H911 H 0.61604 0.6156 0.57885 0.0
C912 C 0.53621 0.72588 0.61149 0.0
C913 C 0.53634 0.7409 0.63673 0.0
C914 C 0.55026 0.69842 0.60865 0.0
C915 C 0.56475 0.68504 0.63098 0.0
C916 C 0.56472 0.69985 0.65636 0.0
C917 C 0.5508 0.72759 0.65917 0.0
C918 C 0.58372 0.60349 0.64098 0.0
C919 C 0.59854 0.59705 0.61636 0.0
C920 C 0.5742 0.63252 0.64663 0.0
C921 C 0.57902 0.65541 0.62753 0.0
C922 C 0.59543 0.64907 0.60369 0.0
C923 C 0.605 0.6202 0.59815 0.0
H924 H 0.76158 0.55157 0.65316 0.0
H925 H 0.81552 0.47288 0.66231 0.0
H926 H 0.80625 0.58181 0.65146 0.0
H927 H 0.8599 0.50266 0.65956 0.0
H928 H 0.93877 0.55859 0.66154 0.0
H929 H 0.8922 0.53773 0.67815 0.0
H930 H 0.84428 0.59121 0.61928 0.0
H931 H 0.89084 0.61284 0.60389 0.0
C932 C 0.78294 0.54074 0.65512 0.0
C933 C 0.78493 0.50975 0.65767 0.0
C934 C 0.8086 0.55807 0.65396 0.0
C935 C 0.83688 0.5448 0.65515 0.0
C936 C 0.83868 0.51391 0.659 0.0
C937 C 0.81309 0.49668 0.66037 0.0
C938 C 0.91808 0.56666 0.65306 0.0
C939 C 0.91819 0.5875 0.63174 0.0
C940 C 0.89141 0.55442 0.66221 0.0
C941 C 0.86434 0.56228 0.64974 0.0
C942 C 0.86448 0.58473 0.62964 0.0
C943 C 0.89115 0.59723 0.62078 0.0
H944 H 0.61058 0.30435 0.97861 0.0
H945 H 0.55979 0.23632 0.93814 0.0
H946 H 0.62832 0.2679 0.01182 0.0
H947 H 0.57691 0.20014 0.97196 0.0
H948 H 0.59065 0.15617 0.05877 0.0
H949 H 0.57234 0.19103 0.0242 0.0
H950 H 0.66162 0.22087 0.00956 0.0
H951 H 0.68006 0.18574 0.0438 0.0
C952 C 0.60316 0.28169 0.97673 0.0
C953 C 0.58409 0.27327 0.95535 0.0
C954 C 0.61337 0.26079 0.99579 0.0
C955 C 0.60424 0.2311 0.99432 0.0
C956 C 0.58434 0.22286 0.9736 0.0
C957 C 0.57455 0.24363 0.95422 0.0
C958 C 0.60642 0.16992 0.04796 0.0
C959 C 0.63683 0.16813 0.05403 0.0
C960 C 0.59592 0.18985 0.02815 0.0
C961 C 0.61552 0.20884 0.01434 0.0
C962 C 0.64596 0.20673 0.02009 0.0
C963 C 0.65654 0.18642 0.03953 0.0
H964 H 0.272 0.64308 0.91237 0.0
H965 H 0.24519 0.56837 0.96186 0.0
H966 H 0.30552 0.65877 0.94835 0.0
H967 H 0.27865 0.58453 0.99827 0.0
H968 H 0.36234 0.61219 0.04811 0.0
H969 H 0.33148 0.59211 0.0112 0.0
H970 H 0.29914 0.68029 0.99341 0.0
H971 H 0.32996 0.7002 0.02951 0.0
C972 C 0.27329 0.62991 0.9309 0.0
C973 C 0.25565 0.60458 0.93427 0.0
C974 C 0.29245 0.63902 0.95163 0.0
C975 C 0.29451 0.62313 0.97636 0.0
C976 C 0.27769 0.59718 0.97942 0.0
C977 C 0.25843 0.58801 0.95859 0.0
C978 C 0.34863 0.6272 0.03625 0.0
C979 C 0.34876 0.65781 0.04167 0.0
C980 C 0.33088 0.61571 0.01521 0.0
C981 C 0.31308 0.63464 0.99916 0.0
C982 C 0.31303 0.66513 0.00494 0.0
C983 C 0.33063 0.67654 0.02584 0.0
H984 H 0.95873 0.25113 0.97247 0.0
H985 H 0.8918 0.28823 0.91921 0.0
H986 H 0.94547 0.28707 0.00778 0.0
H987 H 0.87925 0.32478 0.95402 0.0
H988 H 0.93076 0.3687 0.05964 0.0
H989 H 0.94629 0.33745 0.02147 0.0
H990 H 0.8549 0.32818 0.99679 0.0
H991 H 0.83956 0.36028 0.03439 0.0
C992 C 0.94149 0.26723 0.96813 0.0
C993 C 0.92623 0.26663 0.94306 0.0
C994 C 0.93395 0.288 0.98835 0.0
C995 C 0.91111 0.30888 0.98393 0.0
C996 C 0.8965 0.30875 0.95847 0.0
C997 C 0.90387 0.28785 0.93838 0.0
C998 C 0.91401 0.36027 0.04586 0.0
C999 C 0.8839 0.36697 0.05013 0.0
C1000 C 0.9229 0.3421 0.02407 0.0
C1001 C 0.9019 0.32995 0.00605 0.0
C1002 C 0.87182 0.33736 0.00994 0.0
C1003 C 0.86296 0.35573 0.03162 0.0
H1004 H 0.29788 0.88994 0.9639 0.0
H1005 H 0.23689 0.95597 0.93285 0.0
H1006 H 0.26203 0.87629 0.99911 0.0
H1007 H 0.20104 0.94226 0.96825 0.0
H1008 H 0.16493 0.93102 0.05834 0.0
H1009 H 0.19688 0.94486 0.01999 0.0
H1010 H 0.21165 0.85239 1.00162 0.0
H1011 H 0.17967 0.83847 0.03988 0.0
C1012 C 0.27689 0.90164 0.96464 0.0
C1013 C 0.2703 0.9241 0.94557 0.0
C1014 C 0.25624 0.89362 0.98467 0.0
C1015 C 0.22864 0.90807 0.98633 0.0
C1016 C 0.22216 0.9308 0.96752 0.0
C1017 C 0.24269 0.93859 0.94723 0.0
C1018 C 0.17462 0.91363 0.04588 0.0
C1019 C 0.16985 0.88364 0.05227 0.0
C1020 C 0.19288 0.92158 0.02388 0.0
C1021 C 0.20702 0.89971 0.00799 0.0
C1022 C 0.20137 0.86973 0.01375 0.0
C1023 C 0.18285 0.86178 0.03554 0.0
H1024 H 0.14265 0.74362 0.58658 0.0
H1025 H 0.06293 0.74952 0.53821 0.0
H1026 H 0.16924 0.7721 0.55214 0.0
H1027 H 0.08959 0.77802 0.50357 0.0
H1028 H 0.13774 0.85714 0.46446 0.0
H1029 H 0.11217 0.8282 0.49957 0.0
H1030 H 0.18709 0.76856 0.50428 0.0
H1031 H 0.21269 0.7975 0.46937 0.0
C1032 C 0.13083 0.75073 0.56855 0.0
C1033 C 0.10063 0.74423 0.5653 0.0
C1034 C 0.14612 0.76705 0.5487 0.0
C1035 C 0.13148 0.7776 0.5252 0.0
C1036 C 0.10141 0.77062 0.52165 0.0
C1037 C 0.08621 0.75401 0.54139 0.0
C1038 C 0.14888 0.83804 0.47319 0.0
C1039 C 0.17723 0.82962 0.46406 0.0
C1040 C 0.13411 0.82128 0.49312 0.0
C1041 C 0.14748 0.79591 0.50456 0.0
C1042 C 0.1762 0.78803 0.49599 0.0
C1043 C 0.19084 0.80461 0.47592 0.0
H1044 H 0.73694 0.08138 0.58955 0.0
H1045 H 0.8048 0.10034 0.52959 0.0
H1046 H 0.69886 0.09574 0.55648 0.0
H1047 H 0.76652 0.11421 0.49639 0.0
H1048 H 0.68453 0.11336 0.43825 0.0
H1049 H 0.71982 0.09044 0.47034 0.0
H1050 H 0.68851 0.14836 0.53464 0.0
H1051 H 0.65399 0.17165 0.5026 0.0
C1052 C 0.74373 0.08817 0.5692 0.0
C1053 C 0.77392 0.08989 0.56225 0.0
C1054 C 0.72191 0.09643 0.55032 0.0
C1055 C 0.72977 0.10602 0.52391 0.0
C1056 C 0.75987 0.10664 0.51654 0.0
C1057 C 0.78175 0.0989 0.53561 0.0
C1058 C 0.68488 0.12076 0.45937 0.0
C1059 C 0.66657 0.14425 0.46799 0.0
C1060 C 0.70517 0.10783 0.47762 0.0
C1061 C 0.70687 0.11769 0.50492 0.0
C1062 C 0.68753 0.14021 0.51377 0.0
C1063 C 0.66784 0.15356 0.49543 0.0
H1064 H 0.42842 0.63195 0.48145 0.0
H1065 H 0.37736 0.69638 0.43577 0.0
H1066 H 0.44119 0.67033 0.515 0.0
H1067 H 0.38965 0.73424 0.46949 0.0
H1068 H 0.38192 0.77416 0.55796 0.0
H1069 H 0.37456 0.73741 0.52195 0.0
H1070 H 0.469 0.72349 0.5167 0.0
H1071 H 0.47656 0.76099 0.55249 0.0
C1072 C 0.4202 0.6543 0.4784 0.0
C1073 C 0.40183 0.66106 0.45596 0.0
C1074 C 0.42758 0.67624 0.49754 0.0
C1075 C 0.41623 0.70516 0.49487 0.0
C1076 C 0.39853 0.71207 0.4721 0.0
C1077 C 0.39163 0.69037 0.45273 0.0
C1078 C 0.40115 0.76338 0.54911 0.0
C1079 C 0.42982 0.77055 0.55802 0.0
C1080 C 0.39693 0.74243 0.52842 0.0
C1081 C 0.42122 0.72769 0.51653 0.0
C1082 C 0.44992 0.73454 0.52558 0.0
C1083 C 0.45421 0.75607 0.54591 0.0
H1084 H 0.7199 0.40044 0.53611 0.0
H1085 H 0.77826 0.45729 0.58226 0.0
H1086 H 0.75888 0.39287 0.50203 0.0
H1087 H 0.81688 0.45007 0.54805 0.0
H1088 H 0.88885 0.39714 0.50079 0.0
H1089 H 0.84976 0.41037 0.53311 0.0
H1090 H 0.78751 0.41789 0.4663 0.0
H1091 H 0.82647 0.40425 0.43398 0.0
C1092 C 0.74089 0.41154 0.53887 0.0
C1093 C 0.74593 0.42934 0.56202 0.0
C1094 C 0.76321 0.40734 0.51925 0.0
C1095 C 0.79108 0.4208 0.52234 0.0
C1096 C 0.79586 0.43904 0.54522 0.0
C1097 C 0.77359 0.44328 0.56478 0.0
C1098 C 0.86695 0.40202 0.49292 0.0
C1099 C 0.86083 0.39948 0.46478 0.0
C1100 C 0.8445 0.40968 0.51147 0.0
C1101 C 0.81539 0.41494 0.50233 0.0
C1102 C 0.80955 0.41349 0.47407 0.0
C1103 C 0.832 0.40592 0.45552 0.0
H1104 H 0.36642 0.82421 0.94059 0.0
H1105 H 0.42475 0.88884 0.97659 0.0
H1106 H 0.38194 0.78789 0.97428 0.0
H1107 H 0.4419 0.85185 0.00956 0.0
H1108 H 0.44195 0.7893 0.0835 0.0
H1109 H 0.42941 0.826 0.04878 0.0
H1110 H 0.41777 0.75582 0.98942 0.0
H1111 H 0.42848 0.71925 0.02472 0.0
C1112 C 0.38308 0.8305 0.95542 0.0
C1113 C 0.39435 0.85946 0.95587 0.0
C1114 C 0.39221 0.8095 0.97476 0.0
C1115 C 0.41338 0.8166 0.99487 0.0
C1116 C 0.42517 0.8455 0.99486 0.0
C1117 C 0.41555 0.86674 0.97577 0.0
C1118 C 0.43681 0.78177 0.06298 0.0
C1119 C 0.43607 0.75134 0.05691 0.0
C1120 C 0.42978 0.80288 0.04291 0.0
C1121 C 0.42234 0.79416 0.01605 0.0
C1122 C 0.42257 0.76362 0.0099 0.0
C1123 C 0.429 0.74252 0.03012 0.0
H1124 H 0.65925 0.33833 0.99588 0.0
H1125 H 0.6715 0.4132 0.94208 0.0
H1126 H 0.69143 0.36082 0.02963 0.0
H1127 H 0.70552 0.43531 0.97536 0.0
H1128 H 0.7495 0.4759 0.05233 0.0
H1129 H 0.71354 0.45784 0.01876 0.0
H1130 H 0.74174 0.36785 0.03543 0.0
H1131 H 0.77607 0.38583 0.06969 0.0
C1132 C 0.66899 0.35967 0.99129 0.0
C1133 C 0.66316 0.37394 0.96633 0.0
C1134 C 0.68772 0.37249 0.01053 0.0
C1135 C 0.70183 0.39959 0.00503 0.0
C1136 C 0.69504 0.41448 0.98038 0.0
C1137 C 0.67564 0.40184 0.96127 0.0
C1138 C 0.74788 0.45229 0.04867 0.0
C1139 C 0.76522 0.4322 0.0638 0.0
C1140 C 0.72738 0.44191 0.02939 0.0
C1141 C 0.72424 0.41129 0.02463 0.0
C1142 C 0.74264 0.39148 0.03913 0.0
C1143 C 0.76256 0.40178 0.05866 0.0
H1144 H 0.12797 0.65903 0.95807 0.0
H1145 H 0.21456 0.69384 0.97671 0.0
H1146 H 0.10713 0.68656 0.99689 0.0
H1147 H 0.1938 0.72155 0.01494 0.0
H1148 H 0.15407 0.74987 0.09534 0.0
H1149 H 0.1722 0.71652 0.0599 0.0
H1150 H 0.09667 0.73838 0.00944 0.0
H1151 H 0.07811 0.77152 0.04527 0.0
C1152 C 0.14261 0.67226 0.97061 0.0
C1153 C 0.17293 0.67425 0.96423 0.0
C1154 C 0.13062 0.68826 0.9927 0.0
C1155 C 0.14873 0.70641 0.00904 0.0
C1156 C 0.1792 0.70758 1.00308 0.0
C1157 C 0.19111 0.69176 0.981 0.0
C1158 C 0.14113 0.74748 0.0768 0.0
C1159 C 0.11466 0.76361 0.07316 0.0
C1160 C 0.15165 0.7284 0.05637 0.0
C1161 C 0.13606 0.72487 0.03166 0.0
C1162 C 0.10913 0.74033 0.0283 0.0
C1163 C 0.09857 0.75949 0.04879 0.0
H1164 H 0.76839 0.05023 0.04972 0.0
H1165 H 0.76499 0.14285 0.0718 0.0
H1166 H 0.80665 0.06099 0.01577 0.0
H1167 H 0.80204 0.15386 0.03728 0.0
H1168 H 0.88107 0.16722 0.9843 0.0
H1169 H 0.85157 0.15067 0.02332 0.0
H1170 H 0.81211 0.08295 0.97266 0.0
H1171 H 0.84251 0.09852 0.93436 0.0
C1172 C 0.77572 0.07289 0.04725 0.0
C1173 C 0.76356 0.09567 0.06342 0.0
C1174 C 0.79762 0.07913 0.02771 0.0
C1175 C 0.80759 0.10837 0.02361 0.0
C1176 C 0.79555 0.131 0.04011 0.0
C1177 C 0.77401 0.12471 0.05983 0.0
C1178 C 0.86653 0.14842 0.98171 0.0
C1179 C 0.86401 0.13439 0.95613 0.0
C1180 C 0.84934 0.13907 1.00402 0.0
C1181 C 0.82895 0.11571 1.00117 0.0
C1182 C 0.82766 0.10078 0.9759 0.0
C1183 C 0.84507 0.10988 0.95376 0.0
H1184 H 0.84372 0.1617 0.50784 0.0
H1185 H 0.90844 0.18725 0.56834 0.0
H1186 H 0.86496 0.19692 0.47533 0.0
H1187 H 0.92923 0.22334 0.53582 0.0
H1188 H 0.91532 0.31022 0.47678 0.0
H1189 H 0.90218 0.27256 0.51098 0.0
H1190 H 0.91915 0.20366 0.45167 0.0
H1191 H 0.93284 0.24084 0.41775 0.0
C1192 C 0.86269 0.17467 0.51405 0.0
C1193 C 0.87457 0.17173 0.54049 0.0
C1194 C 0.8748 0.19477 0.49548 0.0
C1195 C 0.89858 0.2128 0.50321 0.0
C1196 C 0.91082 0.20966 0.52952 0.0
C1197 C 0.89912 0.18892 0.54795 0.0
C1198 C 0.91658 0.28703 0.47117 0.0
C1199 C 0.925 0.27853 0.44454 0.0
C1200 C 0.90925 0.26554 0.49076 0.0
C1201 C 0.90972 0.23533 0.48383 0.0
C1202 C 0.91865 0.22684 0.45743 0.0
C1203 C 0.92648 0.24818 0.43807 0.0
H1204 H 0.25616 0.87751 0.42235 0.0
H1205 H 0.2464 0.9568 0.47109 0.0
H1206 H 0.2846 0.85436 0.45917 0.0
H1207 H 0.27498 0.93377 0.50779 0.0
H1208 H 0.35735 0.89678 0.5516 0.0
H1209 H 0.32716 0.9184 0.51512 0.0
H1210 H 0.27988 0.83594 0.50696 0.0
H1211 H 0.31015 0.81424 0.54326 0.0
C1212 C 0.25968 0.88985 0.44103 0.0
C1213 C 0.24888 0.91896 0.44374 0.0
C1214 C 0.27604 0.8766 0.46215 0.0
C1215 C 0.28229 0.89233 0.48633 0.0
C1216 C 0.27097 0.92122 0.48925 0.0
C1217 C 0.25439 0.93434 0.46826 0.0
C1218 C 0.3406 0.88323 0.54196 0.0
C1219 C 0.33615 0.85381 0.5504 0.0
C1220 C 0.32315 0.89568 0.52119 0.0
C1221 C 0.301 0.87893 0.50823 0.0
C1222 C 0.29687 0.84937 0.51639 0.0
C1223 C 0.31416 0.83699 0.53729 0.0
H1224 H 0.59475 0.38848 0.52518 0.0
H1225 H 0.65063 0.32273 0.56379 0.0
H1226 H 0.57858 0.3515 0.49188 0.0
H1227 H 0.63611 0.28655 0.52997 0.0
H1228 H 0.59156 0.21866 0.47828 0.0
H1229 H 0.60002 0.25534 0.51396 0.0
H1230 H 0.59398 0.32526 0.45345 0.0
H1231 H 0.58372 0.28861 0.41829 0.0
C1232 C 0.6036 0.36618 0.5265 0.0
C1233 C 0.62385 0.35854 0.54717 0.0
C1234 C 0.59454 0.34497 0.5073 0.0
C1235 C 0.60598 0.31582 0.50806 0.0
C1236 C 0.62614 0.30838 0.52894 0.0
C1237 C 0.6347 0.32932 0.54833 0.0
C1238 C 0.59185 0.2419 0.47272 0.0
C1239 C 0.58707 0.25074 0.4455 0.0
C1240 C 0.5969 0.26302 0.49314 0.0
C1241 C 0.59802 0.29347 0.48673 0.0
C1242 C 0.59282 0.3022 0.45944 0.0
C1243 C 0.58716 0.28112 0.43915 0.0
H1244 H 0.19357 0.69068 0.54276 0.0
H1245 H 0.175 0.59945 0.56311 0.0
H1246 H 0.22737 0.67412 0.50655 0.0
H1247 H 0.20869 0.58302 0.527 0.0
H1248 H 0.24721 0.56659 0.44056 0.0
H1249 H 0.21283 0.58331 0.47606 0.0
H1250 H 0.27657 0.64796 0.50309 0.0
H1251 H 0.31105 0.6313 0.46756 0.0
C1252 C 0.19654 0.66712 0.53942 0.0
C1253 C 0.18158 0.6464 0.55588 0.0
C1254 C 0.21607 0.65764 0.5188 0.0
C1255 C 0.22081 0.62724 0.51395 0.0
C1256 C 0.20538 0.60658 0.53005 0.0
C1257 C 0.18613 0.61603 0.55083 0.0
C1258 C 0.25399 0.58429 0.45413 0.0
C1259 C 0.28196 0.59754 0.45121 0.0
C1260 C 0.23429 0.59381 0.47453 0.0
C1261 C 0.24191 0.61704 0.49235 0.0
C1262 C 0.2699 0.63024 0.48949 0.0
C1263 C 0.28976 0.6205 0.46927 0.0
H1264 H 0.61436 0.10786 0.33167 0.0
H1265 H 0.58456 0.18545 0.28758 0.0
H1266 H 0.63166 0.08595 0.28872 0.0
H1267 H 0.60295 0.16443 0.24513 0.0
H1268 H 0.61644 0.11283 0.16816 0.0
H1269 H 0.59535 0.12918 0.21146 0.0
H1270 H 0.66863 0.08871 0.25477 0.0
H1271 H 0.68886 0.07103 0.21126 0.0
C1272 C 0.6115 0.12026 0.31283 0.0
C1273 C 0.59787 0.14835 0.31311 0.0
C1274 C 0.62165 0.10779 0.28817 0.0
C1275 C 0.61875 0.12327 0.2632 0.0
C1276 C 0.60504 0.15138 0.26365 0.0
C1277 C 0.59459 0.1636 0.28816 0.0
C1278 C 0.62794 0.10721 0.18695 0.0
C1279 C 0.65441 0.09074 0.18624 0.0
C1280 C 0.61595 0.11681 0.21187 0.0
C1281 C 0.6304 0.11074 0.23684 0.0
C1282 C 0.6566 0.09361 0.23612 0.0
C1283 C 0.66834 0.08356 0.21113 0.0
H1284 H 0.40339 0.6209 0.33251 0.0
H1285 H 0.35861 0.54961 0.29107 0.0
H1286 H 0.4234 0.63796 0.28918 0.0
H1287 H 0.38018 0.56543 0.2476 0.0
H1288 H 0.39436 0.62141 0.17035 0.0
H1289 H 0.37739 0.60007 0.21332 0.0
H1290 H 0.45595 0.63285 0.25367 0.0
H1291 H 0.4717 0.65581 0.21091 0.0
C1292 C 0.39836 0.60841 0.31415 0.0
C1293 C 0.37936 0.58387 0.3153 0.0
C1294 C 0.41005 0.61812 0.28911 0.0
C1295 C 0.40362 0.60323 0.26444 0.0
C1296 C 0.38528 0.57803 0.26584 0.0
C1297 C 0.37306 0.5687 0.29087 0.0
C1298 C 0.40814 0.62378 0.18837 0.0
C1299 C 0.43434 0.64042 0.1872 0.0
C1300 C 0.39847 0.61136 0.21316 0.0
C1301 C 0.41503 0.61471 0.23745 0.0
C1302 C 0.44198 0.63033 0.23583 0.0
C1303 C 0.45128 0.64331 0.21116 0.0
H1304 H 0.93737 0.3447 0.28663 0.0
H1305 H 0.90874 0.42239 0.3313 0.0
H1306 H 0.92054 0.36691 0.2442 0.0
H1307 H 0.89295 0.4454 0.28838 0.0
H1308 H 0.83528 0.46026 0.21137 0.0
H1309 H 0.85559 0.44246 0.25465 0.0
H1310 H 0.92936 0.40305 0.21105 0.0
H1311 H 0.90824 0.41964 0.16782 0.0
C1312 C 0.92796 0.36681 0.28736 0.0
C1313 C 0.92441 0.38173 0.31244 0.0
C1314 C 0.91843 0.3797 0.26288 0.0
C1315 C 0.9054 0.40809 0.26266 0.0
C1316 C 0.90246 0.42334 0.28772 0.0
C1317 C 0.91172 0.41024 0.31235 0.0
C1318 C 0.85595 0.44798 0.21109 0.0
C1319 C 0.86999 0.4411 0.18615 0.0
C1320 C 0.86773 0.43789 0.23596 0.0
C1321 C 0.89406 0.42101 0.23648 0.0
C1322 C 0.90868 0.4153 0.21151 0.0
C1323 C 0.89668 0.42499 0.18667 0.0
H1324 H 0.14354 0.8804 0.33915 0.0
H1325 H 0.17675 0.95904 0.29928 0.0
H1326 H 0.12452 0.86272 0.29541 0.0
H1327 H 0.15677 0.942 0.25587 0.0
H1328 H 0.14604 0.88952 0.17719 0.0
H1329 H 0.16454 0.90661 0.22109 0.0
H1330 H 0.08745 0.87039 0.26136 0.0
H1331 H 0.06938 0.85232 0.21726 0.0
C1332 C 0.14671 0.89401 0.32111 0.0
C1333 C 0.16188 0.92111 0.32283 0.0
C1334 C 0.13553 0.88397 0.29599 0.0
C1335 C 0.13905 0.90085 0.27192 0.0
C1336 C 0.15404 0.92806 0.27376 0.0
C1337 C 0.1654 0.93797 0.2988 0.0
C1338 C 0.13289 0.8853 0.19535 0.0
C1339 C 0.10612 0.86961 0.19362 0.0
C1340 C 0.14348 0.89526 0.22063 0.0
C1341 C 0.12752 0.89008 0.24496 0.0
C1342 C 0.10061 0.87449 0.24319 0.0
C1343 C 0.0901 0.8643 0.21785 0.0
H1344 H 0.40911 0.90785 0.66654 0.0
H1345 H 0.45413 0.83863 0.71142 0.0
H1346 H 0.39066 0.92864 0.70921 0.0
H1347 H 0.43447 0.85856 0.75432 0.0
H1348 H 0.41403 0.9141 0.82984 0.0
H1349 H 0.43598 0.89648 0.78709 0.0
H1350 H 0.35622 0.92156 0.74378 0.0
H1351 H 0.33504 0.94034 0.78618 0.0
C1352 C 0.41493 0.89691 0.68557 0.0
C1353 C 0.43308 0.87151 0.6855 0.0
C1354 C 0.40412 0.90875 0.71017 0.0
C1355 C 0.41074 0.8953 0.73551 0.0
C1356 C 0.42915 0.86993 0.7354 0.0
C1357 C 0.44032 0.85831 0.71073 0.0
C1358 C 0.40134 0.91615 0.8111 0.0
C1359 C 0.3728 0.9288 0.8115 0.0
C1360 C 0.41383 0.90574 0.78654 0.0
C1361 C 0.39798 0.90736 0.76171 0.0
C1362 C 0.3695 0.92033 0.76219 0.0
C1363 C 0.35721 0.93106 0.78666 0.0
H1364 H 0.54441 0.35363 0.79652 0.0
H1365 H 0.61555 0.39833 0.83827 0.0
H1366 H 0.56078 0.37472 0.75308 0.0
H1367 H 0.63305 0.41803 0.79488 0.0
H1368 H 0.65126 0.4648 0.71568 0.0
H1369 H 0.62758 0.45029 0.75852 0.0
H1370 H 0.59724 0.36953 0.7202 0.0
H1371 H 0.61942 0.38502 0.67717 0.0
C1372 C 0.56355 0.368 0.79639 0.0
C1373 C 0.57865 0.37431 0.82084 0.0
C1374 C 0.57316 0.37993 0.77141 0.0
C1375 C 0.59853 0.39799 0.77014 0.0
C1376 C 0.61317 0.40474 0.79483 0.0
C1377 C 0.6032 0.39328 0.81984 0.0
C1378 C 0.63918 0.44413 0.71639 0.0
C1379 C 0.63721 0.42609 0.69302 0.0
C1380 C 0.62577 0.43562 0.74107 0.0
C1381 C 0.61055 0.4085 0.74319 0.0
C1382 C 0.60818 0.3908 0.71951 0.0
C1383 C 0.62109 0.39961 0.69473 0.0
H1384 H 0.13164 0.64068 0.82931 0.0
H1385 H 0.17196 0.56662 0.78716 0.0
H1386 H 0.11376 0.66018 0.78595 0.0
H1387 H 0.15317 0.58568 0.74357 0.0
H1388 H 0.13958 0.64283 0.6671 0.0
H1389 H 0.15872 0.62392 0.71037 0.0
H1390 H 0.07842 0.65231 0.75114 0.0
H1391 H 0.05983 0.67228 0.70807 0.0
C1392 C 0.13647 0.62834 0.81078 0.0
C1393 C 0.15317 0.60195 0.8118 0.0
C1394 C 0.12603 0.6395 0.78581 0.0
C1395 C 0.13176 0.62451 0.76106 0.0
C1396 C 0.14857 0.5981 0.76208 0.0
C1397 C 0.15922 0.58702 0.78712 0.0
C1398 C 0.12607 0.64529 0.68532 0.0
C1399 C 0.09818 0.65933 0.68401 0.0
C1400 C 0.13696 0.63412 0.71018 0.0
C1401 C 0.12019 0.63645 0.73445 0.0
C1402 C 0.09226 0.65046 0.73308 0.0
C1403 C 0.08146 0.66181 0.70825 0.0
H1404 H 0.96607 0.17073 0.7995 0.0
H1405 H 0.88449 0.1372 0.83366 0.0
H1406 H 0.95395 0.14788 0.75547 0.0
H1407 H 0.87197 0.11549 0.78988 0.0
H1408 H 0.8637 0.05935 0.71577 0.0
H1409 H 0.88343 0.07718 0.75908 0.0
H1410 H 0.92105 0.15279 0.71747 0.0
H1411 H 0.90229 0.13418 0.67393 0.0
C1412 C 0.94559 0.15851 0.79764 0.0
C1413 C 0.92635 0.15572 0.82018 0.0
C1414 C 0.93855 0.14553 0.77236 0.0
C1415 C 0.91201 0.12962 0.76903 0.0
C1416 C 0.89292 0.12688 0.79169 0.0
C1417 C 0.90004 0.13959 0.81688 0.0
C1418 C 0.87652 0.07958 0.71581 0.0
C1419 C 0.88125 0.09544 0.69143 0.0
C1420 C 0.88768 0.08996 0.74071 0.0
C1421 C 0.90345 0.11676 0.74198 0.0
C1422 C 0.90924 0.13197 0.71735 0.0
C1423 C 0.89839 0.12134 0.69235 0.0
H1424 H 0.76623 0.35316 0.17853 0.0
H1425 H 0.83759 0.3022 0.14276 0.0
H1426 H 0.73912 0.30746 0.18787 0.0
H1427 H 0.81058 0.25658 0.15195 0.0
H1428 H 0.76059 0.17639 0.17693 0.0
H1429 H 0.78831 0.22187 0.18559 0.0
H1430 H 0.7147 0.27362 0.155 0.0
H1431 H 0.68711 0.22826 0.14647 0.0
C1432 C 0.77646 0.33214 0.17334 0.0
C1433 C 0.80388 0.33119 0.15971 0.0
C1434 C 0.76087 0.30599 0.17853 0.0
C1435 C 0.77254 0.27841 0.17041 0.0
C1436 C 0.80103 0.27741 0.15869 0.0
C1437 C 0.8165 0.30356 0.15331 0.0
C1438 C 0.75005 0.19754 0.17283 0.0
C1439 C 0.72181 0.19884 0.16082 0.0
C1440 C 0.76599 0.22356 0.17761 0.0
C1441 C 0.75385 0.25134 0.17071 0.0
C1442 C 0.72464 0.25263 0.16075 0.0
C1443 C 0.70883 0.22663 0.15576 0.0
H1444 H 0.3754 0.77128 0.14814 0.0
H1445 H 0.31743 0.69566 0.15228 0.0
H1446 H 0.334 0.8038 0.16109 0.0
H1447 H 0.27626 0.72772 0.16449 0.0
H1448 H 0.20416 0.7853 0.18965 0.0
H1449 H 0.25207 0.76076 0.19567 0.0
H1450 H 0.29082 0.82023 0.13624 0.0
H1451 H 0.24332 0.84521 0.13106 0.0
C1452 C 0.35396 0.7616 0.15235 0.0
C1453 C 0.34946 0.73107 0.14896 0.0
C1454 C 0.33024 0.78017 0.15963 0.0
C1455 C 0.3017 0.76845 0.16369 0.0
C1456 C 0.2979 0.73759 0.16195 0.0
C1457 C 0.32149 0.71916 0.15467 0.0
C1458 C 0.22319 0.79368 0.17859 0.0
C1459 C 0.22 0.81679 0.15956 0.0
C1460 C 0.25059 0.77951 0.18187 0.0
C1461 C 0.27518 0.78806 0.16597 0.0
C1462 C 0.27249 0.81306 0.14891 0.0
C1463 C 0.24516 0.82733 0.1458 0.0
H1464 H 0.25727 0.66076 0.37276 0.0
H1465 H 0.33128 0.69272 0.3254 0.0
H1466 H 0.23057 0.70699 0.364 0.0
H1467 H 0.30424 0.73837 0.31548 0.0
H1468 H 0.18641 0.79347 0.34514 0.0
H1469 H 0.20685 0.74407 0.33568 0.0
H1470 H 0.29532 0.77875 0.34536 0.0
H1471 H 0.27496 0.82762 0.35408 0.0
C1472 C 0.26731 0.67722 0.35956 0.0
C1473 C 0.29645 0.67349 0.35009 0.0
C1474 C 0.252 0.70373 0.35445 0.0
C1475 C 0.26551 0.72675 0.33951 0.0
C1476 C 0.29349 0.72149 0.32769 0.0
C1477 C 0.30891 0.69526 0.33317 0.0
C1478 C 0.21023 0.79054 0.34442 0.0
C1479 C 0.22915 0.81425 0.35049 0.0
C1480 C 0.22193 0.76224 0.33924 0.0
C1481 C 0.25275 0.75728 0.33992 0.0
C1482 C 0.27153 0.78163 0.34423 0.0
C1483 C 0.25986 0.80973 0.34943 0.0
H1484 H 0.84714 0.26134 0.37894 0.0
H1485 H 0.80301 0.34097 0.35162 0.0
H1486 H 0.80049 0.23454 0.37654 0.0
H1487 H 0.75658 0.31404 0.3476 0.0
H1488 H 0.67249 0.26861 0.37988 0.0
H1489 H 0.71918 0.29506 0.37489 0.0
H1490 H 0.76271 0.2132 0.3516 0.0
H1491 H 0.71634 0.18681 0.35821 0.0
C1492 C 0.82758 0.27287 0.37162 0.0
C1493 C 0.82867 0.30321 0.36553 0.0
C1494 C 0.80071 0.25751 0.37015 0.0
C1495 C 0.77435 0.27205 0.3621 0.0
C1496 C 0.77603 0.30213 0.35457 0.0
C1497 C 0.80277 0.31756 0.35653 0.0
C1498 C 0.69201 0.25645 0.37336 0.0
C1499 C 0.69084 0.22569 0.36955 0.0
C1500 C 0.71888 0.2716 0.37035 0.0
C1501 C 0.74513 0.25637 0.36301 0.0
C1502 C 0.74336 0.22571 0.35794 0.0
C1503 C 0.71665 0.21056 0.36144 0.0
H1504 H 0.24663 0.86869 0.85413 0.0
H1505 H 0.32261 0.81138 0.84373 0.0
H1506 H 0.21383 0.82708 0.84372 0.0
H1507 H 0.29036 0.76994 0.83424 0.0
H1508 H 0.23202 0.69674 0.81536 0.0
H1509 H 0.25555 0.74454 0.80708 0.0
H1510 H 0.19979 0.78434 0.86927 0.0
H1511 H 0.17559 0.73698 0.87651 0.0
C1512 C 0.25629 0.84737 0.84905 0.0
C1513 C 0.28708 0.84311 0.85001 0.0
C1514 C 0.23756 0.82348 0.84328 0.0
C1515 C 0.24935 0.79498 0.8384 0.0
C1516 C 0.28032 0.79149 0.83752 0.0
C1517 C 0.29892 0.81526 0.84322 0.0
C1518 C 0.22425 0.71597 0.82661 0.0
C1519 C 0.20234 0.71314 0.84684 0.0
C1520 C 0.23785 0.74332 0.82204 0.0
C1521 C 0.23009 0.76824 0.83794 0.0
C1522 C 0.20632 0.7658 0.8565 0.0
C1523 C 0.1925 0.73854 0.8608 0.0
H1524 H 0.78865 0.19463 0.90231 0.0
H1525 H 0.82181 0.24293 0.83242 0.0
H1526 H 0.73975 0.21629 0.89545 0.0
H1527 H 0.77251 0.26451 0.8252 0.0
H1528 H 0.69963 0.33073 0.85736 0.0
H1529 H 0.7446 0.30156 0.8511 0.0
H1530 H 0.69548 0.22145 0.86714 0.0
H1531 H 0.65033 0.25098 0.87377 0.0
C1532 C 0.78527 0.20942 0.88508 0.0
C1533 C 0.80905 0.21735 0.86805 0.0
C1534 C 0.75715 0.22169 0.88101 0.0
C1535 C 0.75219 0.2423 0.85986 0.0
C1536 C 0.77568 0.24896 0.84187 0.0
C1537 C 0.80385 0.23652 0.8459 0.0
C1538 C 0.6983 0.30683 0.85895 0.0
C1539 C 0.67159 0.29311 0.86627 0.0
C1540 C 0.72407 0.29005 0.85519 0.0
C1541 C 0.72374 0.25915 0.85881 0.0
C1542 C 0.69654 0.24525 0.86452 0.0
C1543 C 0.67066 0.2621 0.86814 0.0
H1544 H 0.68785 0.30539 0.66347 0.0
H1545 H 0.7665 0.3476 0.63238 0.0
H1546 H 0.71465 0.25861 0.66758 0.0
H1547 H 0.79317 0.30054 0.63506 0.0
H1548 H 0.75743 0.17371 0.63245 0.0
H1549 H 0.7318 0.22095 0.6389 0.0
H1550 H 0.81494 0.26225 0.66005 0.0
H1551 H 0.84046 0.21533 0.65218 0.0
C1552 C 0.71108 0.30469 0.65787 0.0
C1553 C 0.72513 0.33011 0.64764 0.0
C1554 C 0.72639 0.27775 0.65988 0.0
C1555 C 0.75606 0.27538 0.65122 0.0
C1556 C 0.77049 0.30134 0.64225 0.0
C1557 C 0.75523 0.32844 0.64066 0.0
C1558 C 0.77005 0.19283 0.63889 0.0
C1559 C 0.8009 0.1909 0.6417 0.0
C1560 C 0.75539 0.22 0.64271 0.0
C1561 C 0.77123 0.24578 0.64982 0.0
C1562 C 0.80198 0.24324 0.65396 0.0
C1563 C 0.81662 0.21623 0.64973 0.0
H1564 H 0.21289 0.70087 0.68648 0.0
H1565 H 0.18141 0.78371 0.65295 0.0
H1566 H 0.25908 0.72483 0.7001 0.0
H1567 H 0.22749 0.80713 0.66475 0.0
H1568 H 0.31128 0.84818 0.6787 0.0
H1569 H 0.26405 0.82613 0.69158 0.0
H1570 H 0.30089 0.73891 0.67635 0.0
H1571 H 0.34834 0.76104 0.66577 0.0
C1572 C 0.21564 0.72433 0.68253 0.0
C1573 C 0.19386 0.74034 0.66827 0.0
C1574 C 0.24221 0.73805 0.69006 0.0
C1575 C 0.2476 0.76789 0.68304 0.0
C1576 C 0.22448 0.7843 0.67088 0.0
C1577 C 0.19792 0.77074 0.66379 0.0
C1578 C 0.3094 0.82425 0.67913 0.0
C1579 C 0.33318 0.80629 0.67085 0.0
C1580 C 0.28225 0.81154 0.68619 0.0
C1581 C 0.27807 0.78067 0.68411 0.0
C1582 C 0.30292 0.76269 0.67835 0.0
C1583 C 0.33027 0.7754 0.67207 0.0
loop_
_geom_bond_atom_site_label_1
_geom_bond_atom_site_label_2
_geom_bond_distance
_geom_bond_site_symmetry_2
_ccdc_geom_bond_type
O0 Tb1 2.292 . S
O0 C3 1.255 . S
Tb1 O0 2.292 . S
Tb1 O17 2.326 . S
Tb1 O19 2.500 . S
Tb1 O20 2.473 . S
Tb1 O23 2.324 . S
Eu2 O6 2.292 . S
Eu2 C7 2.852 . S
Eu2 O18 2.324 . S
Eu2 O22 2.326 . S
Eu2 O24 2.500 . S
Eu2 O25 2.473 . S
C3 O0 1.255 . S
C3 O4 1.247 . S
O4 C3 1.247 . S
C5 O17 1.242 . S
C5 O18 1.258 . S
O6 Eu2 2.292 . S
O6 C8 1.255 . S
C7 Eu2 2.852 . S
C7 C11 1.503 . S
C7 O24 1.273 . S
C7 O25 1.257 . S
C8 O6 1.255 . S
C8 O9 1.247 . S
O9 C8 1.247 . S
C10 O22 1.242 . S
C10 O23 1.258 . S
C11 C7 1.503 . S
C11 C12 1.379 . S
C11 C16 1.392 1_545 S
C12 C11 1.379 . S
C12 C13 1.404 . S
C12 H26 0.929 . S
C13 C12 1.404 . S
C13 C14 1.389 1_545 S
C14 C13 1.389 1_565 S
C14 C15 1.399 . S
C14 H27 0.931 . S
C15 C14 1.399 . S
C15 C16 1.390 . S
C16 C11 1.392 1_565 S
C16 C15 1.390 . S
C16 H28 0.929 . S
O17 Tb1 2.326 . S
O17 C5 1.242 . S
O18 Eu2 2.324 . S
O18 C5 1.258 . S
O19 Tb1 2.500 . S
O19 C21 1.273 . S
O20 Tb1 2.473 . S
O20 C21 1.257 . S
C21 O19 1.273 . S
C21 O20 1.257 . S
O22 Eu2 2.326 . S
O22 C10 1.242 . S
O23 Tb1 2.324 . S
O23 C10 1.258 . S
O24 Eu2 2.500 . S
O24 C7 1.273 . S
O25 Eu2 2.473 . S
O25 C7 1.257 . S
H26 C12 0.929 . S
H27 C14 0.931 . S
H28 C16 0.929 . S
O29 Tb30 2.292 . S
O29 C32 1.255 . S
Tb30 O29 2.292 . S
Tb30 O46 2.326 . S
Tb30 O48 2.500 . S
Tb30 O49 2.473 . S
Tb30 O52 2.324 . S
Eu31 O35 2.292 . S
Eu31 C36 2.852 . S
Eu31 O47 2.324 . S
Eu31 O51 2.326 . S
Eu31 O53 2.500 . S
Eu31 O54 2.473 . S
C32 O29 1.255 . S
C32 O33 1.247 . S
O33 C32 1.247 . S
C34 O46 1.242 . S
C34 O47 1.258 . S
O35 Eu31 2.292 . S
O35 C37 1.255 . S
C36 Eu31 2.852 . S
C36 C40 1.503 . S
C36 O53 1.273 . S
C36 O54 1.257 . S
C37 O35 1.255 . S
C37 O38 1.247 . S
O38 C37 1.247 . S
C39 O51 1.242 . S
C39 O52 1.258 . S
C40 C36 1.503 . S
C40 C41 1.379 . S
C40 C45 1.392 . S
C41 C40 1.379 . S
C41 C42 1.404 . S
C41 H55 0.929 . S
C42 C41 1.404 . S
C42 C43 1.389 . S
C43 C42 1.389 . S
C43 C44 1.399 . S
C43 H56 0.931 . S
C44 C43 1.399 . S
C44 C45 1.390 . S
C45 C40 1.392 . S
C45 C44 1.390 . S
C45 H57 0.929 . S
O46 Tb30 2.326 . S
O46 C34 1.242 . S
O47 Eu31 2.324 . S
O47 C34 1.258 . S
O48 Tb30 2.500 . S
O48 C50 1.273 . S
O49 Tb30 2.473 . S
O49 C50 1.257 . S
C50 O48 1.273 . S
C50 O49 1.257 . S
O51 Eu31 2.326 . S
O51 C39 1.242 . S
O52 Tb30 2.324 . S
O52 C39 1.258 . S
O53 Eu31 2.500 . S
O53 C36 1.273 . S
O54 Eu31 2.473 . S
O54 C36 1.257 . S
H55 C41 0.929 . S
H56 C43 0.931 . S
H57 C45 0.929 . S
O58 Tb59 2.292 . S
O58 C61 1.255 . S
Tb59 O58 2.292 . S
Tb59 O75 2.326 . S
Tb59 O77 2.500 . S
Tb59 O78 2.473 . S
Tb59 O81 2.324 . S
Eu60 O64 2.292 . S
Eu60 C65 2.852 . S
Eu60 O76 2.324 . S
Eu60 O80 2.326 . S
Eu60 O82 2.500 . S
Eu60 O83 2.473 . S
C61 O58 1.255 . S
C61 O62 1.247 . S
O62 C61 1.247 . S
C63 O75 1.242 . S
C63 O76 1.258 . S
O64 Eu60 2.292 . S
O64 C66 1.255 . S
C65 Eu60 2.852 . S
C65 C69 1.503 . S
C65 O82 1.273 . S
C65 O83 1.257 . S
C66 O64 1.255 . S
C66 O67 1.247 . S
O67 C66 1.247 . S
C68 O80 1.242 . S
C68 O81 1.258 . S
C69 C65 1.503 . S
C69 C70 1.379 . S
C69 C74 1.392 . S
C70 C69 1.379 . S
C70 C71 1.404 . S
C70 H84 0.929 . S
C71 C70 1.404 . S
C71 C72 1.389 . S
C72 C71 1.389 . S
C72 C73 1.399 . S
C72 H85 0.931 . S
C73 C72 1.399 . S
C73 C74 1.390 . S
C74 C69 1.392 . S
C74 C73 1.390 . S
C74 H86 0.929 . S
O75 Tb59 2.326 . S
O75 C63 1.242 . S
O76 Eu60 2.324 . S
O76 C63 1.258 . S
O77 Tb59 2.500 . S
O77 C79 1.273 . S
O78 Tb59 2.473 . S
O78 C79 1.257 . S
C79 O77 1.273 . S
C79 O78 1.257 . S
O80 Eu60 2.326 . S
O80 C68 1.242 . S
O81 Tb59 2.324 . S
O81 C68 1.258 . S
O82 Eu60 2.500 . S
O82 C65 1.273 . S
O83 Eu60 2.473 . S
O83 C65 1.257 . S
H84 C70 0.929 . S
H85 C72 0.931 . S
H86 C74 0.929 . S
O87 Tb88 2.292 . S
O87 C90 1.255 . S
Tb88 O87 2.292 . S
Tb88 O104 2.326 . S
Tb88 O106 2.500 . S
Tb88 O107 2.473 . S
Tb88 O110 2.324 . S
Eu89 O93 2.292 . S
Eu89 C94 2.852 . S
Eu89 O105 2.324 . S
Eu89 O109 2.326 . S
Eu89 O111 2.500 . S
Eu89 O112 2.473 . S
C90 O87 1.255 . S
C90 O91 1.247 . S
O91 C90 1.247 . S
C92 O104 1.242 . S
C92 O105 1.258 . S
O93 Eu89 2.292 . S
O93 C95 1.255 . S
C94 Eu89 2.852 . S
C94 C98 1.503 . S
C94 O111 1.273 . S
C94 O112 1.257 . S
C95 O93 1.255 . S
C95 O96 1.247 . S
O96 C95 1.247 . S
C97 O109 1.242 . S
C97 O110 1.258 . S
C98 C94 1.503 . S
C98 C99 1.379 . S
C98 C103 1.392 1_455 S
C99 C98 1.379 . S
C99 C100 1.404 . S
C99 H113 0.929 . S
C100 C99 1.404 . S
C100 C101 1.389 1_455 S
C101 C100 1.389 1_655 S
C101 C102 1.399 . S
C101 H114 0.931 . S
C102 C101 1.399 . S
C102 C103 1.390 . S
C103 C98 1.392 1_655 S
C103 C102 1.390 . S
C103 H115 0.929 . S
O104 Tb88 2.326 . S
O104 C92 1.242 . S
O105 Eu89 2.324 . S
O105 C92 1.258 . S
O106 Tb88 2.500 . S
O106 C108 1.273 . S
O107 Tb88 2.473 . S
O107 C108 1.257 . S
C108 O106 1.273 . S
C108 O107 1.257 . S
O109 Eu89 2.326 . S
O109 C97 1.242 . S
O110 Tb88 2.324 . S
O110 C97 1.258 . S
O111 Eu89 2.500 . S
O111 C94 1.273 . S
O112 Eu89 2.473 . S
O112 C94 1.257 . S
H113 C99 0.929 . S
H114 C101 0.931 . S
H115 C103 0.929 . S
O116 Tb117 2.292 . S
O116 C119 1.255 . S
Tb117 O116 2.292 . S
Tb117 O133 2.326 . S
Tb117 O135 2.500 . S
Tb117 O136 2.473 . S
Tb117 O139 2.324 . S
Eu118 O122 2.292 . S
Eu118 C123 2.852 . S
Eu118 O134 2.324 . S
Eu118 O138 2.326 . S
Eu118 O140 2.500 . S
Eu118 O141 2.473 . S
C119 O116 1.255 . S
C119 O120 1.247 . S
O120 C119 1.247 . S
C121 O133 1.242 . S
C121 O134 1.258 . S
O122 Eu118 2.292 . S
O122 C124 1.255 . S
C123 Eu118 2.852 . S
C123 C127 1.503 . S
C123 O140 1.273 . S
C123 O141 1.257 . S
C124 O122 1.255 . S
C124 O125 1.247 . S
O125 C124 1.247 . S
C126 O138 1.242 . S
C126 O139 1.258 . S
C127 C123 1.503 . S
C127 C128 1.379 . S
C127 C132 1.392 1_565 S
C128 C127 1.379 . S
C128 C129 1.404 . S
C128 H142 0.929 . S
C129 C128 1.404 . S
C129 C130 1.389 1_565 S
C130 C129 1.389 1_545 S
C130 C131 1.399 . S
C130 H143 0.931 . S
C131 C130 1.399 . S
C131 C132 1.390 . S
C132 C127 1.392 1_545 S
C132 C131 1.390 . S
C132 H144 0.929 . S
O133 Tb117 2.326 . S
O133 C121 1.242 . S
O134 Eu118 2.324 . S
O134 C121 1.258 . S
O135 Tb117 2.500 . S
O135 C137 1.273 . S
O136 Tb117 2.473 . S
O136 C137 1.257 . S
C137 O135 1.273 . S
C137 O136 1.257 . S
O138 Eu118 2.326 . S
O138 C126 1.242 . S
O139 Tb117 2.324 . S
O139 C126 1.258 . S
O140 Eu118 2.500 . S
O140 C123 1.273 . S
O141 Eu118 2.473 . S
O141 C123 1.257 . S
H142 C128 0.929 . S
H143 C130 0.931 . S
H144 C132 0.929 . S
O145 Tb146 2.292 . S
O145 C148 1.255 . S
Tb146 O145 2.292 . S
Tb146 O162 2.326 . S
Tb146 O164 2.500 . S
Tb146 O165 2.473 . S
Tb146 O168 2.324 . S
Eu147 O151 2.292 . S
Eu147 C152 2.852 . S
Eu147 O163 2.324 . S
Eu147 O167 2.326 . S
Eu147 O169 2.500 . S
Eu147 O170 2.473 . S
C148 O145 1.255 . S
C148 O149 1.247 . S
O149 C148 1.247 . S
C150 O162 1.242 . S
C150 O163 1.258 . S
O151 Eu147 2.292 . S
O151 C153 1.255 . S
C152 Eu147 2.852 . S
C152 C156 1.503 . S
C152 O169 1.273 . S
C152 O170 1.257 . S
C153 O151 1.255 . S
C153 O154 1.247 . S
O154 C153 1.247 . S
C155 O167 1.242 . S
C155 O168 1.258 . S
C156 C152 1.503 . S
C156 C157 1.379 . S
C156 C161 1.392 . S
C157 C156 1.379 . S
C157 C158 1.404 . S
C157 H171 0.929 . S
C158 C157 1.404 . S
C158 C159 1.389 . S
C159 C158 1.389 . S
C159 C160 1.399 . S
C159 H172 0.931 . S
C160 C159 1.399 . S
C160 C161 1.390 . S
C161 C156 1.392 . S
C161 C160 1.390 . S
C161 H173 0.929 . S
O162 Tb146 2.326 . S
O162 C150 1.242 . S
O163 Eu147 2.324 . S
O163 C150 1.258 . S
O164 Tb146 2.500 . S
O164 C166 1.273 . S
O165 Tb146 2.473 . S
O165 C166 1.257 . S
C166 O164 1.273 . S
C166 O165 1.257 . S
O167 Eu147 2.326 . S
O167 C155 1.242 . S
O168 Tb146 2.324 . S
O168 C155 1.258 . S
O169 Eu147 2.500 . S
O169 C152 1.273 . S
O170 Eu147 2.473 . S
O170 C152 1.257 . S
H171 C157 0.929 . S
H172 C159 0.931 . S
H173 C161 0.929 . S
O174 Tb175 2.292 . S
O174 C177 1.255 . S
Tb175 O174 2.292 . S
Tb175 O191 2.326 . S
Tb175 O193 2.500 . S
Tb175 O194 2.473 . S
Tb175 O197 2.324 . S
Eu176 O180 2.292 . S
Eu176 C181 2.852 . S
Eu176 O192 2.324 . S
Eu176 O196 2.326 . S
Eu176 O198 2.500 . S
Eu176 O199 2.473 . S
C177 O174 1.255 . S
C177 O178 1.247 . S
O178 C177 1.247 . S
C179 O191 1.242 . S
C179 O192 1.258 . S
O180 Eu176 2.292 . S
O180 C182 1.255 . S
C181 Eu176 2.852 . S
C181 C185 1.503 . S
C181 O198 1.273 . S
C181 O199 1.257 . S
C182 O180 1.255 . S
C182 O183 1.247 . S
O183 C182 1.247 . S
C184 O196 1.242 . S
C184 O197 1.258 . S
C185 C181 1.503 . S
C185 C186 1.379 . S
C185 C190 1.392 . S
C186 C185 1.379 . S
C186 C187 1.404 . S
C186 H200 0.929 . S
C187 C186 1.404 . S
C187 C188 1.389 . S
C188 C187 1.389 . S
C188 C189 1.399 . S
C188 H201 0.931 . S
C189 C188 1.399 . S
C189 C190 1.390 . S
C190 C185 1.392 . S
C190 C189 1.390 . S
C190 H202 0.929 . S
O191 Tb175 2.326 . S
O191 C179 1.242 . S
O192 Eu176 2.324 . S
O192 C179 1.258 . S
O193 Tb175 2.500 . S
O193 C195 1.273 . S
O194 Tb175 2.473 . S
O194 C195 1.257 . S
C195 O193 1.273 . S
C195 O194 1.257 . S
O196 Eu176 2.326 . S
O196 C184 1.242 . S
O197 Tb175 2.324 . S
O197 C184 1.258 . S
O198 Eu176 2.500 . S
O198 C181 1.273 . S
O199 Eu176 2.473 . S
O199 C181 1.257 . S
H200 C186 0.929 . S
H201 C188 0.931 . S
H202 C190 0.929 . S
O203 Tb204 2.292 . S
O203 C206 1.255 . S
Tb204 O203 2.292 . S
Tb204 O220 2.326 . S
Tb204 O222 2.500 . S
Tb204 O223 2.473 . S
Tb204 O226 2.324 . S
Eu205 O209 2.292 . S
Eu205 C210 2.852 . S
Eu205 O221 2.324 . S
Eu205 O225 2.326 . S
Eu205 O227 2.500 . S
Eu205 O228 2.473 . S
C206 O203 1.255 . S
C206 O207 1.247 . S
O207 C206 1.247 . S
C208 O220 1.242 . S
C208 O221 1.258 . S
O209 Eu205 2.292 . S
O209 C211 1.255 . S
C210 Eu205 2.852 . S
C210 C214 1.503 . S
C210 O227 1.273 . S
C210 O228 1.257 . S
C211 O209 1.255 . S
C211 O212 1.247 . S
O212 C211 1.247 . S
C213 O225 1.242 . S
C213 O226 1.258 . S
C214 C210 1.503 . S
C214 C215 1.379 . S
C214 C219 1.392 1_655 S
C215 C214 1.379 . S
C215 C216 1.404 . S
C215 H229 0.929 . S
C216 C215 1.404 . S
C216 C217 1.389 1_655 S
C217 C216 1.389 1_455 S
C217 C218 1.399 . S
C217 H230 0.931 . S
C218 C217 1.399 . S
C218 C219 1.390 . S
C219 C214 1.392 1_455 S
C219 C218 1.390 . S
C219 H231 0.929 . S
O220 Tb204 2.326 . S
O220 C208 1.242 . S
O221 Eu205 2.324 . S
O221 C208 1.258 . S
O222 Tb204 2.500 . S
O222 C224 1.273 . S
O223 Tb204 2.473 . S
O223 C224 1.257 . S
C224 O222 1.273 . S
C224 O223 1.257 . S
O225 Eu205 2.326 . S
O225 C213 1.242 . S
O226 Tb204 2.324 . S
O226 C213 1.258 . S
O227 Eu205 2.500 . S
O227 C210 1.273 . S
O228 Eu205 2.473 . S
O228 C210 1.257 . S
H229 C215 0.929 . S
H230 C217 0.931 . S
H231 C219 0.929 . S
O232 Tb233 2.292 . S
O232 C235 1.255 . S
Tb233 O232 2.292 . S
Tb233 O249 2.326 . S
Tb233 O251 2.500 . S
Tb233 O252 2.473 . S
Tb233 O255 2.324 . S
Eu234 O238 2.292 . S
Eu234 C239 2.852 . S
Eu234 O250 2.324 . S
Eu234 O254 2.326 . S
Eu234 O256 2.500 . S
Eu234 O257 2.473 . S
C235 O232 1.255 . S
C235 O236 1.247 . S
O236 C235 1.247 . S
C237 O249 1.242 . S
C237 O250 1.258 . S
O238 Eu234 2.292 . S
O238 C240 1.255 . S
C239 Eu234 2.852 . S
C239 C243 1.503 . S
C239 O256 1.273 . S
C239 O257 1.257 . S
C240 O238 1.255 . S
C240 O241 1.247 . S
O241 C240 1.247 . S
C242 O254 1.242 . S
C242 O255 1.258 . S
C243 C239 1.503 . S
C243 C244 1.379 . S
C243 C248 1.392 1_565 S
C244 C243 1.379 . S
C244 C245 1.404 . S
C244 H258 0.929 . S
C245 C244 1.404 . S
C245 C246 1.389 1_565 S
C246 C245 1.389 1_545 S
C246 C247 1.399 . S
C246 H259 0.931 . S
C247 C246 1.399 . S
C247 C248 1.390 . S
C248 C243 1.392 1_545 S
C248 C247 1.390 . S
C248 H260 0.929 . S
O249 Tb233 2.326 . S
O249 C237 1.242 . S
O250 Eu234 2.324 . S
O250 C237 1.258 . S
O251 Tb233 2.500 . S
O251 C253 1.273 . S
O252 Tb233 2.473 . S
O252 C253 1.257 . S
C253 O251 1.273 . S
C253 O252 1.257 . S
O254 Eu234 2.326 . S
O254 C242 1.242 . S
O255 Tb233 2.324 . S
O255 C242 1.258 . S
O256 Eu234 2.500 . S
O256 C239 1.273 . S
O257 Eu234 2.473 . S
O257 C239 1.257 . S
H258 C244 0.929 . S
H259 C246 0.931 . S
H260 C248 0.929 . S
O261 Tb262 2.292 . S
O261 C264 1.255 . S
Tb262 O261 2.292 . S
Tb262 O278 2.326 . S
Tb262 O280 2.500 . S
Tb262 O281 2.473 . S
Tb262 O284 2.324 . S
Eu263 O267 2.292 . S
Eu263 C268 2.852 . S
Eu263 O279 2.324 . S
Eu263 O283 2.326 . S
Eu263 O285 2.500 . S
Eu263 O286 2.473 . S
C264 O261 1.255 . S
C264 O265 1.247 . S
O265 C264 1.247 . S
C266 O278 1.242 . S
C266 O279 1.258 . S
O267 Eu263 2.292 . S
O267 C269 1.255 . S
C268 Eu263 2.852 . S
C268 C272 1.503 . S
C268 O285 1.273 . S
C268 O286 1.257 . S
C269 O267 1.255 . S
C269 O270 1.247 . S
O270 C269 1.247 . S
C271 O283 1.242 . S
C271 O284 1.258 . S
C272 C268 1.503 . S
C272 C273 1.379 . S
C272 C277 1.392 . S
C273 C272 1.379 . S
C273 C274 1.404 . S
C273 H287 0.929 . S
C274 C273 1.404 . S
C274 C275 1.389 . S
C275 C274 1.389 . S
C275 C276 1.399 . S
C275 H288 0.931 . S
C276 C275 1.399 . S
C276 C277 1.390 . S
C277 C272 1.392 . S
C277 C276 1.390 . S
C277 H289 0.929 . S
O278 Tb262 2.326 . S
O278 C266 1.242 . S
O279 Eu263 2.324 . S
O279 C266 1.258 . S
O280 Tb262 2.500 . S
O280 C282 1.273 . S
O281 Tb262 2.473 . S
O281 C282 1.257 . S
C282 O280 1.273 . S
C282 O281 1.257 . S
O283 Eu263 2.326 . S
O283 C271 1.242 . S
O284 Tb262 2.324 . S
O284 C271 1.258 . S
O285 Eu263 2.500 . S
O285 C268 1.273 . S
O286 Eu263 2.473 . S
O286 C268 1.257 . S
H287 C273 0.929 . S
H288 C275 0.931 . S
H289 C277 0.929 . S
O290 Tb291 2.292 . S
O290 C293 1.255 . S
Tb291 O290 2.292 . S
Tb291 O307 2.326 . S
Tb291 O309 2.500 . S
Tb291 O310 2.473 . S
Tb291 O313 2.324 . S
Eu292 O296 2.292 . S
Eu292 C297 2.852 . S
Eu292 O308 2.324 . S
Eu292 O312 2.326 . S
Eu292 O314 2.500 . S
Eu292 O315 2.473 . S
C293 O290 1.255 . S
C293 O294 1.247 . S
O294 C293 1.247 . S
C295 O307 1.242 . S
C295 O308 1.258 . S
O296 Eu292 2.292 . S
O296 C298 1.255 . S
C297 Eu292 2.852 . S
C297 C301 1.503 . S
C297 O314 1.273 . S
C297 O315 1.257 . S
C298 O296 1.255 . S
C298 O299 1.247 . S
O299 C298 1.247 . S
C300 O312 1.242 . S
C300 O313 1.258 . S
C301 C297 1.503 . S
C301 C302 1.379 . S
C301 C306 1.392 . S
C302 C301 1.379 . S
C302 C303 1.404 . S
C302 H316 0.929 . S
C303 C302 1.404 . S
C303 C304 1.389 . S
C304 C303 1.389 . S
C304 C305 1.399 . S
C304 H317 0.931 . S
C305 C304 1.399 . S
C305 C306 1.390 . S
C306 C301 1.392 . S
C306 C305 1.390 . S
C306 H318 0.929 . S
O307 Tb291 2.326 . S
O307 C295 1.242 . S
O308 Eu292 2.324 . S
O308 C295 1.258 . S
O309 Tb291 2.500 . S
O309 C311 1.273 . S
O310 Tb291 2.473 . S
O310 C311 1.257 . S
C311 O309 1.273 . S
C311 O310 1.257 . S
O312 Eu292 2.326 . S
O312 C300 1.242 . S
O313 Tb291 2.324 . S
O313 C300 1.258 . S
O314 Eu292 2.500 . S
O314 C297 1.273 . S
O315 Eu292 2.473 . S
O315 C297 1.257 . S
H316 C302 0.929 . S
H317 C304 0.931 . S
H318 C306 0.929 . S
O319 Tb320 2.292 . S
O319 C322 1.255 . S
Tb320 O319 2.292 . S
Tb320 O336 2.326 . S
Tb320 O338 2.500 . S
Tb320 O339 2.473 . S
Tb320 O342 2.324 . S
Eu321 O325 2.292 . S
Eu321 C326 2.852 . S
Eu321 O337 2.324 . S
Eu321 O341 2.326 . S
Eu321 O343 2.500 . S
Eu321 O344 2.473 . S
C322 O319 1.255 . S
C322 O323 1.247 . S
O323 C322 1.247 . S
C324 O336 1.242 . S
C324 O337 1.258 . S
O325 Eu321 2.292 . S
O325 C327 1.255 . S
C326 Eu321 2.852 . S
C326 C330 1.503 . S
C326 O343 1.273 . S
C326 O344 1.257 . S
C327 O325 1.255 . S
C327 O328 1.247 . S
O328 C327 1.247 . S
C329 O341 1.242 . S
C329 O342 1.258 . S
C330 C326 1.503 . S
C330 C331 1.379 . S
C330 C335 1.392 1_655 S
C331 C330 1.379 . S
C331 C332 1.404 . S
C331 H345 0.929 . S
C332 C331 1.404 . S
C332 C333 1.389 1_655 S
C333 C332 1.389 1_455 S
C333 C334 1.399 . S
C333 H346 0.931 . S
C334 C333 1.399 . S
C334 C335 1.390 . S
C335 C330 1.392 1_455 S
C335 C334 1.390 . S
C335 H347 0.929 . S
O336 Tb320 2.326 . S
O336 C324 1.242 . S
O337 Eu321 2.324 . S
O337 C324 1.258 . S
O338 Tb320 2.500 . S
O338 C340 1.273 . S
O339 Tb320 2.473 . S
O339 C340 1.257 . S
C340 O338 1.273 . S
C340 O339 1.257 . S
O341 Eu321 2.326 . S
O341 C329 1.242 . S
O342 Tb320 2.324 . S
O342 C329 1.258 . S
O343 Eu321 2.500 . S
O343 C326 1.273 . S
O344 Eu321 2.473 . S
O344 C326 1.257 . S
H345 C331 0.929 . S
H346 C333 0.931 . S
H347 C335 0.929 . S
O348 Tb349 2.292 . S
O348 C351 1.255 . S
Tb349 O348 2.292 . S
Tb349 O365 2.326 . S
Tb349 O367 2.500 . S
Tb349 O368 2.473 . S
Tb349 O371 2.324 . S
Eu350 O354 2.292 . S
Eu350 C355 2.852 . S
Eu350 O366 2.324 . S
Eu350 O370 2.326 . S
Eu350 O372 2.500 . S
Eu350 O373 2.473 . S
C351 O348 1.255 . S
C351 O352 1.247 . S
O352 C351 1.247 . S
C353 O365 1.242 . S
C353 O366 1.258 . S
O354 Eu350 2.292 . S
O354 C356 1.255 . S
C355 Eu350 2.852 . S
C355 C359 1.503 . S
C355 O372 1.273 . S
C355 O373 1.257 . S
C356 O354 1.255 . S
C356 O357 1.247 . S
O357 C356 1.247 . S
C358 O370 1.242 . S
C358 O371 1.258 . S
C359 C355 1.503 . S
C359 C360 1.379 . S
C359 C364 1.392 1_545 S
C360 C359 1.379 . S
C360 C361 1.404 . S
C360 H374 0.929 . S
C361 C360 1.404 . S
C361 C362 1.389 1_545 S
C362 C361 1.389 1_565 S
C362 C363 1.399 . S
C362 H375 0.931 . S
C363 C362 1.399 . S
C363 C364 1.390 . S
C364 C359 1.392 1_565 S
C364 C363 1.390 . S
C364 H376 0.929 . S
O365 Tb349 2.326 . S
O365 C353 1.242 . S
O366 Eu350 2.324 . S
O366 C353 1.258 . S
O367 Tb349 2.500 . S
O367 C369 1.273 . S
O368 Tb349 2.473 . S
O368 C369 1.257 . S
C369 O367 1.273 . S
C369 O368 1.257 . S
O370 Eu350 2.326 . S
O370 C358 1.242 . S
O371 Tb349 2.324 . S
O371 C358 1.258 . S
O372 Eu350 2.500 . S
O372 C355 1.273 . S
O373 Eu350 2.473 . S
O373 C355 1.257 . S
H374 C360 0.929 . S
H375 C362 0.931 . S
H376 C364 0.929 . S
O377 Tb378 2.292 . S
O377 C380 1.255 . S
Tb378 O377 2.292 . S
Tb378 O394 2.326 . S
Tb378 O396 2.500 . S
Tb378 O397 2.473 . S
Tb378 O400 2.324 . S
Eu379 O383 2.292 . S
Eu379 C384 2.852 . S
Eu379 O395 2.324 . S
Eu379 O399 2.326 . S
Eu379 O401 2.500 . S
Eu379 O402 2.473 . S
C380 O377 1.255 . S
C380 O381 1.247 . S
O381 C380 1.247 . S
C382 O394 1.242 . S
C382 O395 1.258 . S
O383 Eu379 2.292 . S
O383 C385 1.255 . S
C384 Eu379 2.852 . S
C384 C388 1.503 . S
C384 O401 1.273 . S
C384 O402 1.257 . S
C385 O383 1.255 . S
C385 O386 1.247 . S
O386 C385 1.247 . S
C387 O399 1.242 . S
C387 O400 1.258 . S
C388 C384 1.503 . S
C388 C389 1.379 . S
C388 C393 1.392 . S
C389 C388 1.379 . S
C389 C390 1.404 . S
C389 H403 0.929 . S
C390 C389 1.404 . S
C390 C391 1.389 . S
C391 C390 1.389 . S
C391 C392 1.399 . S
C391 H404 0.931 . S
C392 C391 1.399 . S
C392 C393 1.390 . S
C393 C388 1.392 . S
C393 C392 1.390 . S
C393 H405 0.929 . S
O394 Tb378 2.326 . S
O394 C382 1.242 . S
O395 Eu379 2.324 . S
O395 C382 1.258 . S
O396 Tb378 2.500 . S
O396 C398 1.273 . S
O397 Tb378 2.473 . S
O397 C398 1.257 . S
C398 O396 1.273 . S
C398 O397 1.257 . S
O399 Eu379 2.326 . S
O399 C387 1.242 . S
O400 Tb378 2.324 . S
O400 C387 1.258 . S
O401 Eu379 2.500 . S
O401 C384 1.273 . S
O402 Eu379 2.473 . S
O402 C384 1.257 . S
H403 C389 0.929 . S
H404 C391 0.931 . S
H405 C393 0.929 . S
O406 Tb407 2.292 . S
O406 C409 1.255 . S
Tb407 O406 2.292 . S
Tb407 O423 2.326 . S
Tb407 O425 2.500 . S
Tb407 O426 2.473 . S
Tb407 O429 2.324 . S
Eu408 O412 2.292 . S
Eu408 C413 2.852 . S
Eu408 O424 2.324 . S
Eu408 O428 2.326 . S
Eu408 O430 2.500 . S
Eu408 O431 2.473 . S
C409 O406 1.255 . S
C409 O410 1.247 . S
O410 C409 1.247 . S
C411 O423 1.242 . S
C411 O424 1.258 . S
O412 Eu408 2.292 . S
O412 C414 1.255 . S
C413 Eu408 2.852 . S
C413 C417 1.503 . S
C413 O430 1.273 . S
C413 O431 1.257 . S
C414 O412 1.255 . S
C414 O415 1.247 . S
O415 C414 1.247 . S
C416 O428 1.242 . S
C416 O429 1.258 . S
C417 C413 1.503 . S
C417 C418 1.379 . S
C417 C422 1.392 . S
C418 C417 1.379 . S
C418 C419 1.404 . S
C418 H432 0.929 . S
C419 C418 1.404 . S
C419 C420 1.389 . S
C420 C419 1.389 . S
C420 C421 1.399 . S
C420 H433 0.931 . S
C421 C420 1.399 . S
C421 C422 1.390 . S
C422 C417 1.392 . S
C422 C421 1.390 . S
C422 H434 0.929 . S
O423 Tb407 2.326 . S
O423 C411 1.242 . S
O424 Eu408 2.324 . S
O424 C411 1.258 . S
O425 Tb407 2.500 . S
O425 C427 1.273 . S
O426 Tb407 2.473 . S
O426 C427 1.257 . S
C427 O425 1.273 . S
C427 O426 1.257 . S
O428 Eu408 2.326 . S
O428 C416 1.242 . S
O429 Tb407 2.324 . S
O429 C416 1.258 . S
O430 Eu408 2.500 . S
O430 C413 1.273 . S
O431 Eu408 2.473 . S
O431 C413 1.257 . S
H432 C418 0.929 . S
H433 C420 0.931 . S
H434 C422 0.929 . S
O435 Tb436 2.292 . S
O435 C438 1.255 . S
Tb436 O435 2.292 . S
Tb436 O452 2.326 . S
Tb436 O454 2.500 . S
Tb436 O455 2.473 . S
Tb436 O458 2.324 . S
Eu437 O441 2.292 . S
Eu437 C442 2.852 . S
Eu437 O453 2.324 . S
Eu437 O457 2.326 . S
Eu437 O459 2.500 . S
Eu437 O460 2.473 . S
C438 O435 1.255 . S
C438 O439 1.247 . S
O439 C438 1.247 . S
C440 O452 1.242 . S
C440 O453 1.258 . S
O441 Eu437 2.292 . S
O441 C443 1.255 . S
C442 Eu437 2.852 . S
C442 C446 1.503 . S
C442 O459 1.273 . S
C442 O460 1.257 . S
C443 O441 1.255 . S
C443 O444 1.247 . S
O444 C443 1.247 . S
C445 O457 1.242 . S
C445 O458 1.258 . S
C446 C442 1.503 . S
C446 C447 1.379 . S
C446 C451 1.392 1_455 S
C447 C446 1.379 . S
C447 C448 1.404 . S
C447 H461 0.929 . S
C448 C447 1.404 . S
C448 C449 1.389 1_455 S
C449 C448 1.389 1_655 S
C449 C450 1.399 . S
C449 H462 0.931 . S
C450 C449 1.399 . S
C450 C451 1.390 . S
C451 C446 1.392 1_655 S
C451 C450 1.390 . S
C451 H463 0.929 . S
O452 Tb436 2.326 . S
O452 C440 1.242 . S
O453 Eu437 2.324 . S
O453 C440 1.258 . S
O454 Tb436 2.500 . S
O454 C456 1.273 . S
O455 Tb436 2.473 . S
O455 C456 1.257 . S
C456 O454 1.273 . S
C456 O455 1.257 . S
O457 Eu437 2.326 . S
O457 C445 1.242 . S
O458 Tb436 2.324 . S
O458 C445 1.258 . S
O459 Eu437 2.500 . S
O459 C442 1.273 . S
O460 Eu437 2.473 . S
O460 C442 1.257 . S
H461 C447 0.929 . S
H462 C449 0.931 . S
H463 C451 0.929 . S
H464 C472 0.950 . S
H465 C477 0.950 . S
H466 C474 0.950 . S
H467 C476 0.950 1_554 S
H468 C478 0.950 . S
H469 C480 0.950 . S
H470 C482 0.950 1_556 S
H471 C483 0.950 . S
C472 H464 0.950 . S
C472 C473 1.386 1_545 S
C472 C474 1.391 . S
C473 C472 1.386 1_565 S
C473 C477 1.393 . S
C474 H466 0.950 . S
C474 C472 1.391 . S
C474 C475 1.400 1_545 S
C475 C474 1.400 1_565 S
C475 C476 1.398 . S
C475 C481 1.491 1_566 S
C476 H467 0.950 1_556 S
C476 C475 1.398 . S
C476 C477 1.391 . S
C477 H465 0.950 . S
C477 C473 1.393 . S
C477 C476 1.391 . S
C478 H468 0.950 . S
C478 C479 1.386 1_565 S
C478 C480 1.391 . S
C479 C478 1.386 1_545 S
C479 C483 1.393 . S
C480 H469 0.950 . S
C480 C478 1.391 . S
C480 C481 1.400 1_565 S
C481 C475 1.491 1_544 S
C481 C480 1.400 1_545 S
C481 C482 1.398 . S
C482 H470 0.950 1_554 S
C482 C481 1.398 . S
C482 C483 1.391 . S
C483 H471 0.950 . S
C483 C479 1.393 . S
C483 C482 1.391 . S
H484 C492 0.950 . S
H485 C497 0.950 . S
H486 C494 0.950 . S
H487 C496 0.950 1_556 S
H488 C498 0.950 . S
H489 C500 0.950 . S
H490 C502 0.950 1_554 S
H491 C503 0.950 . S
C492 H484 0.950 . S
C492 C493 1.386 . S
C492 C494 1.391 . S
C493 C492 1.386 . S
C493 C497 1.393 . S
C494 H486 0.950 . S
C494 C492 1.391 . S
C494 C495 1.400 . S
C495 C494 1.400 . S
C495 C496 1.398 . S
C495 C501 1.491 1_554 S
C496 H487 0.950 1_554 S
C496 C495 1.398 . S
C496 C497 1.391 . S
C497 H485 0.950 . S
C497 C493 1.393 . S
C497 C496 1.391 . S
C498 H488 0.950 . S
C498 C499 1.386 . S
C498 C500 1.391 . S
C499 C498 1.386 . S
C499 C503 1.393 . S
C500 H489 0.950 . S
C500 C498 1.391 . S
C500 C501 1.400 . S
C501 C495 1.491 1_556 S
C501 C500 1.400 . S
C501 C502 1.398 . S
C502 H490 0.950 1_556 S
C502 C501 1.398 . S
C502 C503 1.391 . S
C503 H491 0.950 . S
C503 C499 1.393 . S
C503 C502 1.391 . S
H504 C512 0.950 . S
H505 C517 0.950 . S
H506 C514 0.950 1_655 S
H507 C516 0.950 1_554 S
H508 C518 0.950 . S
H509 C520 0.950 1_455 S
H510 C522 0.950 1_556 S
H511 C523 0.950 . S
C512 H504 0.950 . S
C512 C513 1.386 . S
C512 C514 1.391 . S
C513 C512 1.386 . S
C513 C517 1.393 . S
C514 H506 0.950 1_455 S
C514 C512 1.391 . S
C514 C515 1.400 . S
C515 C514 1.400 . S
C515 C516 1.398 . S
C515 C521 1.491 1_456 S
C516 H507 0.950 1_556 S
C516 C515 1.398 . S
C516 C517 1.391 . S
C517 H505 0.950 . S
C517 C513 1.393 . S
C517 C516 1.391 . S
C518 H508 0.950 . S
C518 C519 1.386 . S
C518 C520 1.391 . S
C519 C518 1.386 . S
C519 C523 1.393 . S
C520 H509 0.950 1_655 S
C520 C518 1.391 . S
C520 C521 1.400 . S
C521 C515 1.491 1_654 S
C521 C520 1.400 . S
C521 C522 1.398 . S
C522 H510 0.950 1_554 S
C522 C521 1.398 . S
C522 C523 1.391 . S
C523 H511 0.950 . S
C523 C519 1.393 . S
C523 C522 1.391 . S
H524 C532 0.950 . S
H525 C537 0.950 . S
H526 C534 0.950 1_545 S
H527 C536 0.950 1_556 S
H528 C538 0.950 . S
H529 C540 0.950 1_565 S
H530 C542 0.950 1_554 S
H531 C543 0.950 . S
C532 H524 0.950 . S
C532 C533 1.386 . S
C532 C534 1.391 . S
C533 C532 1.386 . S
C533 C537 1.393 1_455 S
C534 H526 0.950 1_565 S
C534 C532 1.391 . S
C534 C535 1.400 . S
C535 C534 1.400 . S
C535 C536 1.398 1_455 S
C535 C541 1.491 1_464 S
C536 H527 0.950 1_554 S
C536 C535 1.398 1_655 S
C536 C537 1.391 . S
C537 H525 0.950 . S
C537 C533 1.393 1_655 S
C537 C536 1.391 . S
C538 H528 0.950 . S
C538 C539 1.386 . S
C538 C540 1.391 . S
C539 C538 1.386 . S
C539 C543 1.393 1_655 S
C540 H529 0.950 1_545 S
C540 C538 1.391 . S
C540 C541 1.400 . S
C541 C535 1.491 1_646 S
C541 C540 1.400 . S
C541 C542 1.398 1_655 S
C542 H530 0.950 1_556 S
C542 C541 1.398 1_455 S
C542 C543 1.391 . S
C543 H531 0.950 . S
C543 C539 1.393 1_455 S
C543 C542 1.391 . S
H544 C552 0.950 . S
H545 C557 0.950 . S
H546 C554 0.950 . S
H547 C556 0.950 1_655 S
H548 C558 0.950 . S
H549 C560 0.950 . S
H550 C562 0.950 1_455 S
H551 C563 0.950 . S
C552 H544 0.950 . S
C552 C553 1.386 1_545 S
C552 C554 1.391 . S
C553 C552 1.386 1_565 S
C553 C557 1.393 . S
C554 H546 0.950 . S
C554 C552 1.391 . S
C554 C555 1.400 1_545 S
C555 C554 1.400 1_565 S
C555 C556 1.398 . S
C555 C561 1.491 1_465 S
C556 H547 0.950 1_455 S
C556 C555 1.398 . S
C556 C557 1.391 . S
C557 H545 0.950 . S
C557 C553 1.393 . S
C557 C556 1.391 . S
C558 H548 0.950 . S
C558 C559 1.386 1_565 S
C558 C560 1.391 . S
C559 C558 1.386 1_545 S
C559 C563 1.393 . S
C560 H549 0.950 . S
C560 C558 1.391 . S
C560 C561 1.400 1_565 S
C561 C555 1.491 1_645 S
C561 C560 1.400 1_545 S
C561 C562 1.398 . S
C562 H550 0.950 1_655 S
C562 C561 1.398 . S
C562 C563 1.391 . S
C563 H551 0.950 . S
C563 C559 1.393 . S
C563 C562 1.391 . S
H564 C572 0.950 . S
H565 C577 0.950 . S
H566 C574 0.950 . S
H567 C576 0.950 . S
H568 C578 0.950 . S
H569 C580 0.950 . S
H570 C582 0.950 . S
H571 C583 0.950 . S
C572 H564 0.950 . S
C572 C573 1.386 . S
C572 C574 1.391 . S
C573 C572 1.386 . S
C573 C577 1.393 . S
C574 H566 0.950 . S
C574 C572 1.391 . S
C574 C575 1.400 . S
C575 C574 1.400 . S
C575 C576 1.398 . S
C575 C581 1.491 1_545 S
C576 H567 0.950 . S
C576 C575 1.398 . S
C576 C577 1.391 . S
C577 H565 0.950 . S
C577 C573 1.393 . S
C577 C576 1.391 . S
C578 H568 0.950 . S
C578 C579 1.386 . S
C578 C580 1.391 . S
C579 C578 1.386 . S
C579 C583 1.393 . S
C580 H569 0.950 . S
C580 C578 1.391 . S
C580 C581 1.400 . S
C581 C575 1.491 1_565 S
C581 C580 1.400 . S
C581 C582 1.398 . S
C582 H570 0.950 . S
C582 C581 1.398 . S
C582 C583 1.391 . S
C583 H571 0.950 . S
C583 C579 1.393 . S
C583 C582 1.391 . S
H584 C592 0.950 . S
H585 C597 0.950 . S
H586 C594 0.950 . S
H587 C596 0.950 . S
H588 C598 0.950 . S
H589 C600 0.950 . S
H590 C602 0.950 . S
H591 C603 0.950 . S
C592 H584 0.950 . S
C592 C593 1.386 . S
C592 C594 1.391 . S
C593 C592 1.386 . S
C593 C597 1.393 . S
C594 H586 0.950 . S
C594 C592 1.391 . S
C594 C595 1.400 . S
C595 C594 1.400 . S
C595 C596 1.398 . S
C595 C601 1.491 . S
C596 H587 0.950 . S
C596 C595 1.398 . S
C596 C597 1.391 . S
C597 H585 0.950 . S
C597 C593 1.393 . S
C597 C596 1.391 . S
C598 H588 0.950 . S
C598 C599 1.386 . S
C598 C600 1.391 . S
C599 C598 1.386 . S
C599 C603 1.393 . S
C600 H589 0.950 . S
C600 C598 1.391 . S
C600 C601 1.400 . S
C601 C595 1.491 . S
C601 C600 1.400 . S
C601 C602 1.398 . S
C602 H590 0.950 . S
C602 C601 1.398 . S
C602 C603 1.391 . S
C603 H591 0.950 . S
C603 C599 1.393 . S
C603 C602 1.391 . S
H604 C612 0.950 . S
H605 C617 0.950 . S
H606 C614 0.950 . S
H607 C616 0.950 . S
H608 C618 0.950 . S
H609 C620 0.950 . S
H610 C622 0.950 . S
H611 C623 0.950 . S
C612 H604 0.950 . S
C612 C613 1.386 . S
C612 C614 1.391 . S
C613 C612 1.386 . S
C613 C617 1.393 1_455 S
C614 H606 0.950 . S
C614 C612 1.391 . S
C614 C615 1.400 . S
C615 C614 1.400 . S
C615 C616 1.398 1_455 S
C615 C621 1.491 1_455 S
C616 H607 0.950 . S
C616 C615 1.398 1_655 S
C616 C617 1.391 . S
C617 H605 0.950 . S
C617 C613 1.393 1_655 S
C617 C616 1.391 . S
C618 H608 0.950 . S
C618 C619 1.386 . S
C618 C620 1.391 . S
C619 C618 1.386 . S
C619 C623 1.393 1_655 S
C620 H609 0.950 . S
C620 C618 1.391 . S
C620 C621 1.400 . S
C621 C615 1.491 1_655 S
C621 C620 1.400 . S
C621 C622 1.398 1_655 S
C622 H610 0.950 . S
C622 C621 1.398 1_455 S
C622 C623 1.391 . S
C623 H611 0.950 . S
C623 C619 1.393 1_455 S
C623 C622 1.391 . S
H624 C632 0.950 . S
H625 C637 0.950 . S
H626 C634 0.950 . S
H627 C636 0.950 . S
H628 C638 0.950 . S
H629 C640 0.950 . S
H630 C642 0.950 . S
H631 C643 0.950 . S
C632 H624 0.950 . S
C632 C633 1.386 . S
C632 C634 1.391 . S
C633 C632 1.386 . S
C633 C637 1.393 . S
C634 H626 0.950 . S
C634 C632 1.391 . S
C634 C635 1.400 . S
C635 C634 1.400 . S
C635 C636 1.398 . S
C635 C641 1.491 . S
C636 H627 0.950 . S
C636 C635 1.398 . S
C636 C637 1.391 . S
C637 H625 0.950 . S
C637 C633 1.393 . S
C637 C636 1.391 . S
C638 H628 0.950 . S
C638 C639 1.386 . S
C638 C640 1.391 . S
C639 C638 1.386 . S
C639 C643 1.393 . S
C640 H629 0.950 . S
C640 C638 1.391 . S
C640 C641 1.400 . S
C641 C635 1.491 . S
C641 C640 1.400 . S
C641 C642 1.398 . S
C642 H630 0.950 . S
C642 C641 1.398 . S
C642 C643 1.391 . S
C643 H631 0.950 . S
C643 C639 1.393 . S
C643 C642 1.391 . S
H644 C652 0.950 . S
H645 C657 0.950 . S
H646 C654 0.950 . S
H647 C656 0.950 . S
H648 C658 0.950 . S
H649 C660 0.950 . S
H650 C662 0.950 . S
H651 C663 0.950 . S
C652 H644 0.950 . S
C652 C653 1.386 . S
C652 C654 1.391 . S
C653 C652 1.386 . S
C653 C657 1.393 . S
C654 H646 0.950 . S
C654 C652 1.391 . S
C654 C655 1.400 . S
C655 C654 1.400 . S
C655 C656 1.398 . S
C655 C661 1.491 . S
C656 H647 0.950 . S
C656 C655 1.398 . S
C656 C657 1.391 . S
C657 H645 0.950 . S
C657 C653 1.393 . S
C657 C656 1.391 . S
C658 H648 0.950 . S
C658 C659 1.386 . S
C658 C660 1.391 . S
C659 C658 1.386 . S
C659 C663 1.393 . S
C660 H649 0.950 . S
C660 C658 1.391 . S
C660 C661 1.400 . S
C661 C655 1.491 . S
C661 C660 1.400 . S
C661 C662 1.398 . S
C662 H650 0.950 . S
C662 C661 1.398 . S
C662 C663 1.391 . S
C663 H651 0.950 . S
C663 C659 1.393 . S
C663 C662 1.391 . S
H664 C672 0.950 . S
H665 C677 0.950 . S
H666 C674 0.950 . S
H667 C676 0.949 . S
H668 C678 0.950 . S
H669 C680 0.950 . S
H670 C682 0.950 . S
H671 C683 0.950 . S
C672 H664 0.950 . S
C672 C673 1.386 . S
C672 C674 1.391 . S
C673 C672 1.386 . S
C673 C677 1.393 1_655 S
C674 H666 0.950 . S
C674 C672 1.391 . S
C674 C675 1.400 . S
C675 C674 1.400 . S
C675 C676 1.399 1_655 S
C675 C681 1.491 . S
C676 H667 0.949 . S
C676 C675 1.399 1_455 S
C676 C677 1.390 . S
C677 H665 0.950 . S
C677 C673 1.393 1_455 S
C677 C676 1.390 . S
C678 H668 0.950 . S
C678 C679 1.386 . S
C678 C680 1.391 . S
C679 C678 1.386 . S
C679 C683 1.393 . S
C680 H669 0.950 . S
C680 C678 1.391 . S
C680 C681 1.400 . S
C681 C675 1.491 . S
C681 C680 1.400 . S
C681 C682 1.398 . S
C682 H670 0.950 . S
C682 C681 1.398 . S
C682 C683 1.391 . S
C683 H671 0.950 . S
C683 C679 1.393 . S
C683 C682 1.391 . S
H684 C692 0.950 . S
H685 C697 0.950 . S
H686 C694 0.950 . S
H687 C696 0.950 . S
H688 C698 0.950 . S
H689 C700 0.950 . S
H690 C702 0.950 . S
H691 C703 0.950 . S
C692 H684 0.950 . S
C692 C693 1.386 . S
C692 C694 1.391 . S
C693 C692 1.386 . S
C693 C697 1.393 . S
C694 H686 0.950 . S
C694 C692 1.391 . S
C694 C695 1.400 . S
C695 C694 1.400 . S
C695 C696 1.398 . S
C695 C701 1.491 . S
C696 H687 0.950 . S
C696 C695 1.398 . S
C696 C697 1.391 . S
C697 H685 0.950 . S
C697 C693 1.393 . S
C697 C696 1.391 . S
C698 H688 0.950 . S
C698 C699 1.386 . S
C698 C700 1.391 . S
C699 C698 1.386 . S
C699 C703 1.393 . S
C700 H689 0.950 . S
C700 C698 1.391 . S
C700 C701 1.400 . S
C701 C695 1.491 . S
C701 C700 1.400 . S
C701 C702 1.398 . S
C702 H690 0.950 . S
C702 C701 1.398 . S
C702 C703 1.391 . S
C703 H691 0.950 . S
C703 C699 1.393 . S
C703 C702 1.391 . S
H704 C712 0.950 . S
H705 C717 0.950 . S
H706 C714 0.950 . S
H707 C716 0.950 . S
H708 C718 0.950 . S
H709 C720 0.950 . S
H710 C722 0.950 . S
H711 C723 0.950 . S
C712 H704 0.950 . S
C712 C713 1.386 . S
C712 C714 1.391 . S
C713 C712 1.386 . S
C713 C717 1.393 1_455 S
C714 H706 0.950 . S
C714 C712 1.391 . S
C714 C715 1.400 . S
C715 C714 1.400 . S
C715 C716 1.398 . S
C715 C721 1.491 . S
C716 H707 0.950 . S
C716 C715 1.398 . S
C716 C717 1.391 1_455 S
C717 H705 0.950 . S
C717 C713 1.393 1_655 S
C717 C716 1.391 1_655 S
C718 H708 0.950 . S
C718 C719 1.386 . S
C718 C720 1.391 . S
C719 C718 1.386 . S
C719 C723 1.393 . S
C720 H709 0.950 . S
C720 C718 1.391 . S
C720 C721 1.400 . S
C721 C715 1.491 . S
C721 C720 1.400 . S
C721 C722 1.398 . S
C722 H710 0.950 . S
C722 C721 1.398 . S
C722 C723 1.391 . S
C723 H711 0.950 . S
C723 C719 1.393 . S
C723 C722 1.391 . S
H724 C732 0.950 . S
H725 C737 0.950 . S
H726 C734 0.950 1_565 S
H727 C736 0.950 . S
H728 C738 0.950 . S
H729 C740 0.950 . S
H730 C742 0.950 . S
H731 C743 0.950 . S
C732 H724 0.950 . S
C732 C733 1.386 1_565 S
C732 C734 1.391 1_565 S
C733 C732 1.386 1_545 S
C733 C737 1.393 . S
C734 H726 0.950 1_545 S
C734 C732 1.391 1_545 S
C734 C735 1.400 . S
C735 C734 1.400 . S
C735 C736 1.398 . S
C735 C741 1.491 . S
C736 H727 0.950 . S
C736 C735 1.398 . S
C736 C737 1.391 . S
C737 H725 0.950 . S
C737 C733 1.393 . S
C737 C736 1.391 . S
C738 H728 0.950 . S
C738 C739 1.386 . S
C738 C740 1.391 . S
C739 C738 1.386 . S
C739 C743 1.393 . S
C740 H729 0.950 . S
C740 C738 1.391 . S
C740 C741 1.400 . S
C741 C735 1.491 . S
C741 C740 1.400 . S
C741 C742 1.398 . S
C742 H730 0.950 . S
C742 C741 1.398 . S
C742 C743 1.391 . S
C743 H731 0.950 . S
C743 C739 1.393 . S
C743 C742 1.391 . S
H744 C752 0.950 . S
H745 C757 0.950 . S
H746 C754 0.950 . S
H747 C756 0.950 . S
H748 C758 0.950 . S
H749 C760 0.950 . S
H750 C762 0.950 . S
H751 C763 0.950 . S
C752 H744 0.950 . S
C752 C753 1.386 . S
C752 C754 1.391 . S
C753 C752 1.386 . S
C753 C757 1.393 . S
C754 H746 0.950 . S
C754 C752 1.391 . S
C754 C755 1.400 . S
C755 C754 1.400 . S
C755 C756 1.398 . S
C755 C761 1.491 . S
C756 H747 0.950 . S
C756 C755 1.398 . S
C756 C757 1.391 . S
C757 H745 0.950 . S
C757 C753 1.393 . S
C757 C756 1.391 . S
C758 H748 0.950 . S
C758 C759 1.386 . S
C758 C760 1.391 . S
C759 C758 1.386 . S
C759 C763 1.393 . S
C760 H749 0.950 . S
C760 C758 1.391 . S
C760 C761 1.400 . S
C761 C755 1.491 . S
C761 C760 1.400 . S
C761 C762 1.398 . S
C762 H750 0.950 . S
C762 C761 1.398 . S
C762 C763 1.391 . S
C763 H751 0.950 . S
C763 C759 1.393 . S
C763 C762 1.391 . S
H764 C772 0.950 . S
H765 C777 0.950 . S
H766 C774 0.950 . S
H767 C776 0.950 . S
H768 C778 0.950 . S
H769 C780 0.950 . S
H770 C782 0.950 . S
H771 C783 0.950 . S
C772 H764 0.950 . S
C772 C773 1.386 . S
C772 C774 1.391 . S
C773 C772 1.386 . S
C773 C777 1.393 . S
C774 H766 0.950 . S
C774 C772 1.391 . S
C774 C775 1.400 . S
C775 C774 1.400 . S
C775 C776 1.398 . S
C775 C781 1.491 . S
C776 H767 0.950 . S
C776 C775 1.398 . S
C776 C777 1.391 . S
C777 H765 0.950 . S
C777 C773 1.393 . S
C777 C776 1.391 . S
C778 H768 0.950 . S
C778 C779 1.386 . S
C778 C780 1.391 . S
C779 C778 1.386 . S
C779 C783 1.393 . S
C780 H769 0.950 . S
C780 C778 1.391 . S
C780 C781 1.400 . S
C781 C775 1.491 . S
C781 C780 1.400 . S
C781 C782 1.398 . S
C782 H770 0.950 . S
C782 C781 1.398 . S
C782 C783 1.391 . S
C783 H771 0.950 . S
C783 C779 1.393 . S
C783 C782 1.391 . S
H784 C792 0.950 . S
H785 C797 0.950 . S
H786 C794 0.950 . S
H787 C796 0.950 . S
H788 C798 0.950 . S
H789 C800 0.950 . S
H790 C802 0.950 . S
H791 C803 0.950 . S
C792 H784 0.950 . S
C792 C793 1.386 . S
C792 C794 1.391 . S
C793 C792 1.386 . S
C793 C797 1.393 . S
C794 H786 0.950 . S
C794 C792 1.391 . S
C794 C795 1.400 . S
C795 C794 1.400 . S
C795 C796 1.398 . S
C795 C801 1.491 . S
C796 H787 0.950 . S
C796 C795 1.398 . S
C796 C797 1.391 . S
C797 H785 0.950 . S
C797 C793 1.393 . S
C797 C796 1.391 . S
C798 H788 0.950 . S
C798 C799 1.386 . S
C798 C800 1.391 . S
C799 C798 1.386 . S
C799 C803 1.393 . S
C800 H789 0.950 . S
C800 C798 1.391 . S
C800 C801 1.400 . S
C801 C795 1.491 . S
C801 C800 1.400 . S
C801 C802 1.398 . S
C802 H790 0.950 . S
C802 C801 1.398 . S
C802 C803 1.391 . S
C803 H791 0.950 . S
C803 C799 1.393 . S
C803 C802 1.391 . S
H804 C812 0.950 . S
H805 C817 0.950 . S
H806 C814 0.950 . S
H807 C816 0.950 . S
H808 C818 0.950 . S
H809 C820 0.950 . S
H810 C822 0.950 . S
H811 C823 0.950 . S
C812 H804 0.950 . S
C812 C813 1.386 . S
C812 C814 1.391 . S
C813 C812 1.386 . S
C813 C817 1.393 . S
C814 H806 0.950 . S
C814 C812 1.391 . S
C814 C815 1.400 . S
C815 C814 1.400 . S
C815 C816 1.398 . S
C815 C821 1.491 . S
C816 H807 0.950 . S
C816 C815 1.398 . S
C816 C817 1.391 . S
C817 H805 0.950 . S
C817 C813 1.393 . S
C817 C816 1.391 . S
C818 H808 0.950 . S
C818 C819 1.386 . S
C818 C820 1.391 . S
C819 C818 1.386 . S
C819 C823 1.393 . S
C820 H809 0.950 . S
C820 C818 1.391 . S
C820 C821 1.400 . S
C821 C815 1.491 . S
C821 C820 1.400 . S
C821 C822 1.398 . S
C822 H810 0.950 . S
C822 C821 1.398 . S
C822 C823 1.391 . S
C823 H811 0.950 . S
C823 C819 1.393 . S
C823 C822 1.391 . S
H824 C832 0.950 . S
H825 C837 0.950 . S
H826 C834 0.950 . S
H827 C836 0.950 . S
H828 C838 0.950 . S
H829 C840 0.950 . S
H830 C842 0.950 . S
H831 C843 0.950 . S
C832 H824 0.950 . S
C832 C833 1.386 1_655 S
C832 C834 1.391 . S
C833 C832 1.386 1_455 S
C833 C837 1.393 . S
C834 H826 0.950 . S
C834 C832 1.391 . S
C834 C835 1.400 1_655 S
C835 C834 1.400 1_455 S
C835 C836 1.398 . S
C835 C841 1.491 . S
C836 H827 0.950 . S
C836 C835 1.398 . S
C836 C837 1.391 . S
C837 H825 0.950 . S
C837 C833 1.393 . S
C837 C836 1.391 . S
C838 H828 0.950 . S
C838 C839 1.386 . S
C838 C840 1.391 . S
C839 C838 1.386 . S
C839 C843 1.393 . S
C840 H829 0.950 . S
C840 C838 1.391 . S
C840 C841 1.400 . S
C841 C835 1.491 . S
C841 C840 1.400 . S
C841 C842 1.398 . S
C842 H830 0.950 . S
C842 C841 1.398 . S
C842 C843 1.391 . S
C843 H831 0.950 . S
C843 C839 1.393 . S
C843 C842 1.391 . S
H844 C852 0.950 . S
H845 C857 0.950 . S
H846 C854 0.950 . S
H847 C856 0.950 . S
H848 C858 0.950 . S
H849 C860 0.950 . S
H850 C862 0.950 . S
H851 C863 0.950 . S
C852 H844 0.950 . S
C852 C853 1.386 1_565 S
C852 C854 1.391 . S
C853 C852 1.386 1_545 S
C853 C857 1.393 . S
C854 H846 0.950 . S
C854 C852 1.391 . S
C854 C855 1.400 1_565 S
C855 C854 1.400 1_545 S
C855 C856 1.398 . S
C855 C861 1.491 . S
C856 H847 0.950 . S
C856 C855 1.398 . S
C856 C857 1.391 . S
C857 H845 0.950 . S
C857 C853 1.393 . S
C857 C856 1.391 . S
C858 H848 0.950 . S
C858 C859 1.386 . S
C858 C860 1.391 . S
C859 C858 1.386 . S
C859 C863 1.393 . S
C860 H849 0.950 . S
C860 C858 1.391 . S
C860 C861 1.400 . S
C861 C855 1.491 . S
C861 C860 1.400 . S
C861 C862 1.398 . S
C862 H850 0.950 . S
C862 C861 1.398 . S
C862 C863 1.391 . S
C863 H851 0.950 . S
C863 C859 1.393 . S
C863 C862 1.391 . S
H864 C872 0.950 . S
H865 C877 0.950 . S
H866 C874 0.950 . S
H867 C876 0.950 1_455 S
H868 C878 0.950 . S
H869 C880 0.950 . S
H870 C882 0.950 . S
H871 C883 0.950 . S
C872 H864 0.950 . S
C872 C873 1.386 . S
C872 C874 1.391 . S
C873 C872 1.386 . S
C873 C877 1.393 1_655 S
C874 H866 0.950 . S
C874 C872 1.391 . S
C874 C875 1.400 . S
C875 C874 1.400 . S
C875 C876 1.398 . S
C875 C881 1.491 . S
C876 H867 0.950 1_655 S
C876 C875 1.398 . S
C876 C877 1.391 1_655 S
C877 H865 0.950 . S
C877 C873 1.393 1_455 S
C877 C876 1.391 1_455 S
C878 H868 0.950 . S
C878 C879 1.386 . S
C878 C880 1.391 . S
C879 C878 1.386 . S
C879 C883 1.393 . S
C880 H869 0.950 . S
C880 C878 1.391 . S
C880 C881 1.400 . S
C881 C875 1.491 . S
C881 C880 1.400 . S
C881 C882 1.398 . S
C882 H870 0.950 . S
C882 C881 1.398 . S
C882 C883 1.391 . S
C883 H871 0.950 . S
C883 C879 1.393 . S
C883 C882 1.391 . S
H884 C892 0.950 . S
H885 C897 0.950 . S
H886 C894 0.950 . S
H887 C896 0.950 . S
H888 C898 0.950 . S
H889 C900 0.950 . S
H890 C902 0.950 . S
H891 C903 0.950 . S
C892 H884 0.950 . S
C892 C893 1.386 1_545 S
C892 C894 1.391 1_545 S
C893 C892 1.386 1_565 S
C893 C897 1.393 . S
C894 H886 0.950 . S
C894 C892 1.391 1_565 S
C894 C895 1.400 . S
C895 C894 1.400 . S
C895 C896 1.398 . S
C895 C901 1.491 . S
C896 H887 0.950 . S
C896 C895 1.398 . S
C896 C897 1.391 . S
C897 H885 0.950 . S
C897 C893 1.393 . S
C897 C896 1.391 . S
C898 H888 0.950 . S
C898 C899 1.386 . S
C898 C900 1.391 . S
C899 C898 1.386 . S
C899 C903 1.393 . S
C900 H889 0.950 . S
C900 C898 1.391 . S
C900 C901 1.400 . S
C901 C895 1.491 . S
C901 C900 1.400 . S
C901 C902 1.398 . S
C902 H890 0.950 . S
C902 C901 1.398 . S
C902 C903 1.391 . S
C903 H891 0.950 . S
C903 C899 1.393 . S
C903 C902 1.391 . S
H904 C912 0.950 . S
H905 C917 0.950 . S
H906 C914 0.950 . S
H907 C916 0.950 . S
H908 C918 0.950 . S
H909 C920 0.950 . S
H910 C922 0.950 . S
H911 C923 0.950 . S
C912 H904 0.950 . S
C912 C913 1.386 . S
C912 C914 1.391 . S
C913 C912 1.386 . S
C913 C917 1.393 . S
C914 H906 0.950 . S
C914 C912 1.391 . S
C914 C915 1.400 . S
C915 C914 1.400 . S
C915 C916 1.398 . S
C915 C921 1.491 . S
C916 H907 0.950 . S
C916 C915 1.398 . S
C916 C917 1.391 . S
C917 H905 0.950 . S
C917 C913 1.393 . S
C917 C916 1.391 . S
C918 H908 0.950 . S
C918 C919 1.386 . S
C918 C920 1.391 . S
C919 C918 1.386 . S
C919 C923 1.393 . S
C920 H909 0.950 . S
C920 C918 1.391 . S
C920 C921 1.400 . S
C921 C915 1.491 . S
C921 C920 1.400 . S
C921 C922 1.398 . S
C922 H910 0.950 . S
C922 C921 1.398 . S
C922 C923 1.391 . S
C923 H911 0.950 . S
C923 C919 1.393 . S
C923 C922 1.391 . S
H924 C932 0.950 . S
H925 C937 0.950 . S
H926 C934 0.950 . S
H927 C936 0.950 . S
H928 C938 0.950 . S
H929 C940 0.950 . S
H930 C942 0.950 . S
H931 C943 0.950 . S
C932 H924 0.950 . S
C932 C933 1.386 . S
C932 C934 1.391 . S
C933 C932 1.386 . S
C933 C937 1.393 . S
C934 H926 0.950 . S
C934 C932 1.391 . S
C934 C935 1.400 . S
C935 C934 1.400 . S
C935 C936 1.398 . S
C935 C941 1.491 . S
C936 H927 0.950 . S
C936 C935 1.398 . S
C936 C937 1.391 . S
C937 H925 0.950 . S
C937 C933 1.393 . S
C937 C936 1.391 . S
C938 H928 0.950 . S
C938 C939 1.386 . S
C938 C940 1.391 . S
C939 C938 1.386 . S
C939 C943 1.393 . S
C940 H929 0.950 . S
C940 C938 1.391 . S
C940 C941 1.400 . S
C941 C935 1.491 . S
C941 C940 1.400 . S
C941 C942 1.398 . S
C942 H930 0.950 . S
C942 C941 1.398 . S
C942 C943 1.391 . S
C943 H931 0.950 . S
C943 C939 1.393 . S
C943 C942 1.391 . S
H944 C952 0.950 . S
H945 C957 0.950 . S
H946 C954 0.950 1_554 S
H947 C956 0.950 . S
H948 C958 0.950 . S
H949 C960 0.950 . S
H950 C962 0.950 . S
H951 C963 0.950 . S
C952 H944 0.950 . S
C952 C953 1.386 . S
C952 C954 1.391 . S
C953 C952 1.386 . S
C953 C957 1.393 . S
C954 H946 0.950 1_556 S
C954 C952 1.391 . S
C954 C955 1.400 . S
C955 C954 1.400 . S
C955 C956 1.398 . S
C955 C961 1.491 1_556 S
C956 H947 0.950 . S
C956 C955 1.398 . S
C956 C957 1.391 . S
C957 H945 0.950 . S
C957 C953 1.393 . S
C957 C956 1.391 . S
C958 H948 0.950 . S
C958 C959 1.386 . S
C958 C960 1.391 1_554 S
C959 C958 1.386 . S
C959 C963 1.393 . S
C960 H949 0.950 . S
C960 C958 1.391 1_556 S
C960 C961 1.400 1_556 S
C961 C955 1.491 1_554 S
C961 C960 1.400 1_554 S
C961 C962 1.398 . S
C962 H950 0.950 . S
C962 C961 1.398 . S
C962 C963 1.391 . S
C963 H951 0.950 . S
C963 C959 1.393 . S
C963 C962 1.391 . S
H964 C972 0.950 . S
H965 C977 0.950 . S
H966 C974 0.950 . S
H967 C976 0.950 . S
H968 C978 0.950 . S
H969 C980 0.950 . S
H970 C982 0.950 1_556 S
H971 C983 0.950 . S
C972 H964 0.950 . S
C972 C973 1.386 . S
C972 C974 1.391 . S
C973 C972 1.386 . S
C973 C977 1.393 . S
C974 H966 0.950 . S
C974 C972 1.391 . S
C974 C975 1.400 . S
C975 C974 1.400 . S
C975 C976 1.398 . S
C975 C981 1.491 1_556 S
C976 H967 0.950 . S
C976 C975 1.398 . S
C976 C977 1.391 . S
C977 H965 0.950 . S
C977 C973 1.393 . S
C977 C976 1.391 . S
C978 H968 0.950 . S
C978 C979 1.386 . S
C978 C980 1.391 . S
C979 C978 1.386 . S
C979 C983 1.393 . S
C980 H969 0.950 . S
C980 C978 1.391 . S
C980 C981 1.400 . S
C981 C975 1.491 1_554 S
C981 C980 1.400 . S
C981 C982 1.398 . S
C982 H970 0.950 1_554 S
C982 C981 1.398 . S
C982 C983 1.391 . S
C983 H971 0.950 . S
C983 C979 1.393 . S
C983 C982 1.391 . S
H984 C992 0.950 . S
H985 C997 0.950 . S
H986 C994 0.950 1_554 S
H987 C996 0.950 . S
H988 C998 0.950 . S
H989 C1000 0.950 . S
H990 C1002 0.950 . S
H991 C1003 0.950 . S
C992 H984 0.950 . S
C992 C993 1.386 . S
C992 C994 1.391 . S
C993 C992 1.386 . S
C993 C997 1.393 . S
C994 H986 0.950 1_556 S
C994 C992 1.391 . S
C994 C995 1.400 . S
C995 C994 1.400 . S
C995 C996 1.398 . S
C995 C1001 1.491 1_556 S
C996 H987 0.950 . S
C996 C995 1.398 . S
C996 C997 1.391 . S
C997 H985 0.950 . S
C997 C993 1.393 . S
C997 C996 1.391 . S
C998 H988 0.950 . S
C998 C999 1.386 . S
C998 C1000 1.391 1_554 S
C999 C998 1.386 . S
C999 C1003 1.393 . S
C1000 H989 0.950 . S
C1000 C998 1.391 1_556 S
C1000 C1001 1.400 1_556 S
C1001 C995 1.491 1_554 S
C1001 C1000 1.400 1_554 S
C1001 C1002 1.398 . S
C1002 H990 0.950 . S
C1002 C1001 1.398 . S
C1002 C1003 1.391 . S
C1003 H991 0.950 . S
C1003 C999 1.393 . S
C1003 C1002 1.391 . S
H1004 C1012 0.950 . S
H1005 C1017 0.950 . S
H1006 C1014 0.950 1_554 S
H1007 C1016 0.950 . S
H1008 C1018 0.950 . S
H1009 C1020 0.925 1_556 S
H1010 C1022 0.950 . S
H1011 C1023 0.950 . S
C1012 H1004 0.950 . S
C1012 C1013 1.386 . S
C1012 C1014 1.391 . S
C1013 C1012 1.386 . S
C1013 C1017 1.393 . S
C1014 H1006 0.950 1_556 S
C1014 C1012 1.391 . S
C1014 C1015 1.400 . S
C1015 C1014 1.400 . S
C1015 C1016 1.398 . S
C1015 C1021 1.491 1_556 S
C1016 H1007 0.950 . S
C1016 C1015 1.398 . S
C1016 C1017 1.391 . S
C1017 H1005 0.950 . S
C1017 C1013 1.393 . S
C1017 C1016 1.391 . S
C1018 H1008 0.950 . S
C1018 C1019 1.386 . S
C1018 C1020 1.412 . S
C1019 C1018 1.386 . S
C1019 C1023 1.393 . S
C1020 H1009 0.925 1_554 S
C1020 C1018 1.412 . S
C1020 C1021 1.404 . S
C1021 C1015 1.491 1_554 S
C1021 C1020 1.404 . S
C1021 C1022 1.398 . S
C1022 H1010 0.950 . S
C1022 C1021 1.398 . S
C1022 C1023 1.391 . S
C1023 H1011 0.950 . S
C1023 C1019 1.393 . S
C1023 C1022 1.391 . S
H1024 C1032 0.950 . S
H1025 C1037 0.950 . S
H1026 C1034 0.950 . S
H1027 C1036 0.950 . S
H1028 C1038 0.950 . S
H1029 C1040 0.950 . S
H1030 C1042 0.950 . S
H1031 C1043 0.950 . S
C1032 H1024 0.950 . S
C1032 C1033 1.386 . S
C1032 C1034 1.391 . S
C1033 C1032 1.386 . S
C1033 C1037 1.393 . S
C1034 H1026 0.950 . S
C1034 C1032 1.391 . S
C1034 C1035 1.400 . S
C1035 C1034 1.400 . S
C1035 C1036 1.398 . S
C1035 C1041 1.491 . S
C1036 H1027 0.950 . S
C1036 C1035 1.398 . S
C1036 C1037 1.391 . S
C1037 H1025 0.950 . S
C1037 C1033 1.393 . S
C1037 C1036 1.391 . S
C1038 H1028 0.950 . S
C1038 C1039 1.386 . S
C1038 C1040 1.391 . S
C1039 C1038 1.386 . S
C1039 C1043 1.393 . S
C1040 H1029 0.950 . S
C1040 C1038 1.391 . S
C1040 C1041 1.400 . S
C1041 C1035 1.491 . S
C1041 C1040 1.400 . S
C1041 C1042 1.398 . S
C1042 H1030 0.950 . S
C1042 C1041 1.398 . S
C1042 C1043 1.391 . S
C1043 H1031 0.950 . S
C1043 C1039 1.393 . S
C1043 C1042 1.391 . S
H1044 C1052 0.950 . S
H1045 C1057 0.950 . S
H1046 C1054 0.950 . S
H1047 C1056 0.950 . S
H1048 C1058 0.950 . S
H1049 C1060 0.950 . S
H1050 C1062 0.950 . S
H1051 C1063 0.950 . S
C1052 H1044 0.950 . S
C1052 C1053 1.386 . S
C1052 C1054 1.391 . S
C1053 C1052 1.386 . S
C1053 C1057 1.393 . S
C1054 H1046 0.950 . S
C1054 C1052 1.391 . S
C1054 C1055 1.400 . S
C1055 C1054 1.400 . S
C1055 C1056 1.398 . S
C1055 C1061 1.491 . S
C1056 H1047 0.950 . S
C1056 C1055 1.398 . S
C1056 C1057 1.391 . S
C1057 H1045 0.950 . S
C1057 C1053 1.393 . S
C1057 C1056 1.391 . S
C1058 H1048 0.950 . S
C1058 C1059 1.386 . S
C1058 C1060 1.391 . S
C1059 C1058 1.386 . S
C1059 C1063 1.393 . S
C1060 H1049 0.950 . S
C1060 C1058 1.391 . S
C1060 C1061 1.400 . S
C1061 C1055 1.491 . S
C1061 C1060 1.400 . S
C1061 C1062 1.398 . S
C1062 H1050 0.950 . S
C1062 C1061 1.398 . S
C1062 C1063 1.391 . S
C1063 H1051 0.950 . S
C1063 C1059 1.393 . S
C1063 C1062 1.391 . S
H1064 C1072 0.950 . S
H1065 C1077 0.950 . S
H1066 C1074 0.950 . S
H1067 C1076 0.950 . S
H1068 C1078 0.950 . S
H1069 C1080 0.950 . S
H1070 C1082 0.950 . S
H1071 C1083 0.950 . S
C1072 H1064 0.950 . S
C1072 C1073 1.386 . S
C1072 C1074 1.391 . S
C1073 C1072 1.386 . S
C1073 C1077 1.393 . S
C1074 H1066 0.950 . S
C1074 C1072 1.391 . S
C1074 C1075 1.400 . S
C1075 C1074 1.400 . S
C1075 C1076 1.398 . S
C1075 C1081 1.491 . S
C1076 H1067 0.950 . S
C1076 C1075 1.398 . S
C1076 C1077 1.391 . S
C1077 H1065 0.950 . S
C1077 C1073 1.393 . S
C1077 C1076 1.391 . S
C1078 H1068 0.950 . S
C1078 C1079 1.386 . S
C1078 C1080 1.391 . S
C1079 C1078 1.386 . S
C1079 C1083 1.393 . S
C1080 H1069 0.950 . S
C1080 C1078 1.391 . S
C1080 C1081 1.400 . S
C1081 C1075 1.491 . S
C1081 C1080 1.400 . S
C1081 C1082 1.398 . S
C1082 H1070 0.950 . S
C1082 C1081 1.398 . S
C1082 C1083 1.391 . S
C1083 H1071 0.950 . S
C1083 C1079 1.393 . S
C1083 C1082 1.391 . S
H1084 C1092 0.950 . S
H1085 C1097 0.950 . S
H1086 C1094 0.950 . S
H1087 C1096 0.950 . S
H1088 C1098 0.950 . S
H1089 C1100 0.950 . S
H1090 C1102 0.950 . S
H1091 C1103 0.950 . S
C1092 H1084 0.950 . S
C1092 C1093 1.386 . S
C1092 C1094 1.391 . S
C1093 C1092 1.386 . S
C1093 C1097 1.393 . S
C1094 H1086 0.950 . S
C1094 C1092 1.391 . S
C1094 C1095 1.400 . S
C1095 C1094 1.400 . S
C1095 C1096 1.398 . S
C1095 C1101 1.491 . S
C1096 H1087 0.950 . S
C1096 C1095 1.398 . S
C1096 C1097 1.391 . S
C1097 H1085 0.950 . S
C1097 C1093 1.393 . S
C1097 C1096 1.391 . S
C1098 H1088 0.950 . S
C1098 C1099 1.386 . S
C1098 C1100 1.391 . S
C1099 C1098 1.386 . S
C1099 C1103 1.393 . S
C1100 H1089 0.950 . S
C1100 C1098 1.391 . S
C1100 C1101 1.400 . S
C1101 C1095 1.491 . S
C1101 C1100 1.400 . S
C1101 C1102 1.398 . S
C1102 H1090 0.950 . S
C1102 C1101 1.398 . S
C1102 C1103 1.391 . S
C1103 H1091 0.950 . S
C1103 C1099 1.393 . S
C1103 C1102 1.391 . S
H1104 C1112 0.950 . S
H1105 C1117 0.950 . S
H1106 C1114 0.950 . S
H1107 C1116 0.950 . S
H1108 C1118 0.950 . S
H1109 C1120 0.950 . S
H1110 C1122 0.950 1_556 S
H1111 C1123 0.950 . S
C1112 H1104 0.950 . S
C1112 C1113 1.386 . S
C1112 C1114 1.391 . S
C1113 C1112 1.386 . S
C1113 C1117 1.393 . S
C1114 H1106 0.950 . S
C1114 C1112 1.391 . S
C1114 C1115 1.400 . S
C1115 C1114 1.400 . S
C1115 C1116 1.398 1_556 S
C1115 C1121 1.491 1_556 S
C1116 H1107 0.950 . S
C1116 C1115 1.398 1_554 S
C1116 C1117 1.391 1_554 S
C1117 H1105 0.950 . S
C1117 C1113 1.393 . S
C1117 C1116 1.391 1_556 S
C1118 H1108 0.950 . S
C1118 C1119 1.386 . S
C1118 C1120 1.391 . S
C1119 C1118 1.386 . S
C1119 C1123 1.393 . S
C1120 H1109 0.950 . S
C1120 C1118 1.391 . S
C1120 C1121 1.400 . S
C1121 C1115 1.491 1_554 S
C1121 C1120 1.400 . S
C1121 C1122 1.398 . S
C1122 H1110 0.950 1_554 S
C1122 C1121 1.398 . S
C1122 C1123 1.391 . S
C1123 H1111 0.950 . S
C1123 C1119 1.393 . S
C1123 C1122 1.391 . S
H1124 C1132 0.950 . S
H1125 C1137 0.950 . S
H1126 C1134 0.950 . S
H1127 C1136 0.950 . S
H1128 C1138 0.950 . S
H1129 C1140 0.950 1_556 S
H1130 C1142 0.950 . S
H1131 C1143 0.950 . S
C1132 H1124 0.950 . S
C1132 C1133 1.386 . S
C1132 C1134 1.391 1_556 S
C1133 C1132 1.386 . S
C1133 C1137 1.393 . S
C1134 H1126 0.950 . S
C1134 C1132 1.391 1_554 S
C1134 C1135 1.400 1_554 S
C1135 C1134 1.400 1_556 S
C1135 C1136 1.398 . S
C1135 C1141 1.491 1_556 S
C1136 H1127 0.950 . S
C1136 C1135 1.398 . S
C1136 C1137 1.391 . S
C1137 H1125 0.950 . S
C1137 C1133 1.393 . S
C1137 C1136 1.391 . S
C1138 H1128 0.950 . S
C1138 C1139 1.386 . S
C1138 C1140 1.391 . S
C1139 C1138 1.386 . S
C1139 C1143 1.393 . S
C1140 H1129 0.950 1_554 S
C1140 C1138 1.391 . S
C1140 C1141 1.400 . S
C1141 C1135 1.491 1_554 S
C1141 C1140 1.400 . S
C1141 C1142 1.398 . S
C1142 H1130 0.950 . S
C1142 C1141 1.398 . S
C1142 C1143 1.391 . S
C1143 H1131 0.950 . S
C1143 C1139 1.393 . S
C1143 C1142 1.391 . S
H1144 C1152 0.950 . S
H1145 C1157 0.950 . S
H1146 C1154 0.950 . S
H1147 C1156 0.950 1_554 S
H1148 C1158 0.950 . S
H1149 C1160 0.950 . S
H1150 C1162 0.950 . S
H1151 C1163 0.950 . S
C1152 H1144 0.950 . S
C1152 C1153 1.386 . S
C1152 C1154 1.391 . S
C1153 C1152 1.386 . S
C1153 C1157 1.393 . S
C1154 H1146 0.950 . S
C1154 C1152 1.391 . S
C1154 C1155 1.400 . S
C1155 C1154 1.400 . S
C1155 C1156 1.398 . S
C1155 C1161 1.491 1_556 S
C1156 H1147 0.950 1_556 S
C1156 C1155 1.398 . S
C1156 C1157 1.391 . S
C1157 H1145 0.950 . S
C1157 C1153 1.393 . S
C1157 C1156 1.391 . S
C1158 H1148 0.950 . S
C1158 C1159 1.386 . S
C1158 C1160 1.391 . S
C1159 C1158 1.386 . S
C1159 C1163 1.393 . S
C1160 H1149 0.950 . S
C1160 C1158 1.391 . S
C1160 C1161 1.400 . S
C1161 C1155 1.491 1_554 S
C1161 C1160 1.400 . S
C1161 C1162 1.398 . S
C1162 H1150 0.950 . S
C1162 C1161 1.398 . S
C1162 C1163 1.391 . S
C1163 H1151 0.950 . S
C1163 C1159 1.393 . S
C1163 C1162 1.391 . S
H1164 C1172 0.950 . S
H1165 C1177 0.950 . S
H1166 C1174 0.950 . S
H1167 C1176 0.950 1_556 S
H1168 C1178 0.950 . S
H1169 C1180 0.950 . S
H1170 C1182 0.920 1_554 S
H1171 C1183 0.950 . S
C1172 H1164 0.950 . S
C1172 C1173 1.386 . S
C1172 C1174 1.391 . S
C1173 C1172 1.386 . S
C1173 C1177 1.393 . S
C1174 H1166 0.950 . S
C1174 C1172 1.391 . S
C1174 C1175 1.400 . S
C1175 C1174 1.400 . S
C1175 C1176 1.398 . S
C1175 C1181 1.491 1_554 S
C1176 H1167 0.950 1_554 S
C1176 C1175 1.398 . S
C1176 C1177 1.391 . S
C1177 H1165 0.950 . S
C1177 C1173 1.393 . S
C1177 C1176 1.391 . S
C1178 H1168 0.950 . S
C1178 C1179 1.386 . S
C1178 C1180 1.391 . S
C1179 C1178 1.386 . S
C1179 C1183 1.393 . S
C1180 H1169 0.950 . S
C1180 C1178 1.391 . S
C1180 C1181 1.400 . S
C1181 C1175 1.491 1_556 S
C1181 C1180 1.400 . S
C1181 C1182 1.403 . S
C1182 H1170 0.920 1_556 S
C1182 C1181 1.403 . S
C1182 C1183 1.416 . S
C1183 H1171 0.950 . S
C1183 C1179 1.393 . S
C1183 C1182 1.416 . S
H1184 C1192 0.950 . S
H1185 C1197 0.950 . S
H1186 C1194 0.950 . S
H1187 C1196 0.950 . S
H1188 C1198 0.950 . S
H1189 C1200 0.950 . S
H1190 C1202 0.950 . S
H1191 C1203 0.950 . S
C1192 H1184 0.950 . S
C1192 C1193 1.386 . S
C1192 C1194 1.391 . S
C1193 C1192 1.386 . S
C1193 C1197 1.393 . S
C1194 H1186 0.950 . S
C1194 C1192 1.391 . S
C1194 C1195 1.400 . S
C1195 C1194 1.400 . S
C1195 C1196 1.398 . S
C1195 C1201 1.491 . S
C1196 H1187 0.950 . S
C1196 C1195 1.398 . S
C1196 C1197 1.391 . S
C1197 H1185 0.950 . S
C1197 C1193 1.393 . S
C1197 C1196 1.391 . S
C1198 H1188 0.950 . S
C1198 C1199 1.386 . S
C1198 C1200 1.391 . S
C1199 C1198 1.386 . S
C1199 C1203 1.393 . S
C1200 H1189 0.950 . S
C1200 C1198 1.391 . S
C1200 C1201 1.400 . S
C1201 C1195 1.491 . S
C1201 C1200 1.400 . S
C1201 C1202 1.398 . S
C1202 H1190 0.950 . S
C1202 C1201 1.398 . S
C1202 C1203 1.391 . S
C1203 H1191 0.950 . S
C1203 C1199 1.393 . S
C1203 C1202 1.391 . S
H1204 C1212 0.950 . S
H1205 C1217 0.950 . S
H1206 C1214 0.950 . S
H1207 C1216 0.950 . S
H1208 C1218 0.950 . S
H1209 C1220 0.950 . S
H1210 C1222 0.950 . S
H1211 C1223 0.950 . S
C1212 H1204 0.950 . S
C1212 C1213 1.386 . S
C1212 C1214 1.391 . S
C1213 C1212 1.386 . S
C1213 C1217 1.393 . S
C1214 H1206 0.950 . S
C1214 C1212 1.391 . S
C1214 C1215 1.400 . S
C1215 C1214 1.400 . S
C1215 C1216 1.398 . S
C1215 C1221 1.491 . S
C1216 H1207 0.950 . S
C1216 C1215 1.398 . S
C1216 C1217 1.391 . S
C1217 H1205 0.950 . S
C1217 C1213 1.393 . S
C1217 C1216 1.391 . S
C1218 H1208 0.950 . S
C1218 C1219 1.386 . S
C1218 C1220 1.391 . S
C1219 C1218 1.386 . S
C1219 C1223 1.393 . S
C1220 H1209 0.950 . S
C1220 C1218 1.391 . S
C1220 C1221 1.400 . S
C1221 C1215 1.491 . S
C1221 C1220 1.400 . S
C1221 C1222 1.398 . S
C1222 H1210 0.950 . S
C1222 C1221 1.398 . S
C1222 C1223 1.391 . S
C1223 H1211 0.950 . S
C1223 C1219 1.393 . S
C1223 C1222 1.391 . S
H1224 C1232 0.950 . S
H1225 C1237 0.950 . S
H1226 C1234 0.950 . S
H1227 C1236 0.950 . S
H1228 C1238 0.950 . S
H1229 C1240 0.950 . S
H1230 C1242 0.950 . S
H1231 C1243 0.950 . S
C1232 H1224 0.950 . S
C1232 C1233 1.386 . S
C1232 C1234 1.391 . S
C1233 C1232 1.386 . S
C1233 C1237 1.393 . S
C1234 H1226 0.950 . S
C1234 C1232 1.391 . S
C1234 C1235 1.400 . S
C1235 C1234 1.400 . S
C1235 C1236 1.398 . S
C1235 C1241 1.491 . S
C1236 H1227 0.950 . S
C1236 C1235 1.398 . S
C1236 C1237 1.391 . S
C1237 H1225 0.950 . S
C1237 C1233 1.393 . S
C1237 C1236 1.391 . S
C1238 H1228 0.950 . S
C1238 C1239 1.386 . S
C1238 C1240 1.391 . S
C1239 C1238 1.386 . S
C1239 C1243 1.393 . S
C1240 H1229 0.950 . S
C1240 C1238 1.391 . S
C1240 C1241 1.400 . S
C1241 C1235 1.491 . S
C1241 C1240 1.400 . S
C1241 C1242 1.398 . S
C1242 H1230 0.950 . S
C1242 C1241 1.398 . S
C1242 C1243 1.391 . S
C1243 H1231 0.950 . S
C1243 C1239 1.393 . S
C1243 C1242 1.391 . S
H1244 C1252 0.950 . S
H1245 C1257 0.950 . S
H1246 C1254 0.950 . S
H1247 C1256 0.950 . S
H1248 C1258 0.950 . S
H1249 C1260 0.950 . S
H1250 C1262 0.950 . S
H1251 C1263 0.950 . S
C1252 H1244 0.950 . S
C1252 C1253 1.386 . S
C1252 C1254 1.391 . S
C1253 C1252 1.386 . S
C1253 C1257 1.393 . S
C1254 H1246 0.950 . S
C1254 C1252 1.391 . S
C1254 C1255 1.400 . S
C1255 C1254 1.400 . S
C1255 C1256 1.398 . S
C1255 C1261 1.491 . S
C1256 H1247 0.950 . S
C1256 C1255 1.398 . S
C1256 C1257 1.391 . S
C1257 H1245 0.950 . S
C1257 C1253 1.393 . S
C1257 C1256 1.391 . S
C1258 H1248 0.950 . S
C1258 C1259 1.386 . S
C1258 C1260 1.391 . S
C1259 C1258 1.386 . S
C1259 C1263 1.393 . S
C1260 H1249 0.950 . S
C1260 C1258 1.391 . S
C1260 C1261 1.400 . S
C1261 C1255 1.491 . S
C1261 C1260 1.400 . S
C1261 C1262 1.398 . S
C1262 H1250 0.950 . S
C1262 C1261 1.398 . S
C1262 C1263 1.391 . S
C1263 H1251 0.950 . S
C1263 C1259 1.393 . S
C1263 C1262 1.391 . S
H1264 C1272 0.950 . S
H1265 C1277 0.950 . S
H1266 C1274 0.950 . S
H1267 C1276 0.950 . S
H1268 C1278 0.950 . S
H1269 C1280 0.950 . S
H1270 C1282 0.950 . S
H1271 C1283 0.950 . S
C1272 H1264 0.950 . S
C1272 C1273 1.386 . S
C1272 C1274 1.391 . S
C1273 C1272 1.386 . S
C1273 C1277 1.393 . S
C1274 H1266 0.950 . S
C1274 C1272 1.391 . S
C1274 C1275 1.400 . S
C1275 C1274 1.400 . S
C1275 C1276 1.398 . S
C1275 C1281 1.491 . S
C1276 H1267 0.950 . S
C1276 C1275 1.398 . S
C1276 C1277 1.391 . S
C1277 H1265 0.950 . S
C1277 C1273 1.393 . S
C1277 C1276 1.391 . S
C1278 H1268 0.950 . S
C1278 C1279 1.386 . S
C1278 C1280 1.391 . S
C1279 C1278 1.386 . S
C1279 C1283 1.393 . S
C1280 H1269 0.950 . S
C1280 C1278 1.391 . S
C1280 C1281 1.400 . S
C1281 C1275 1.491 . S
C1281 C1280 1.400 . S
C1281 C1282 1.398 . S
C1282 H1270 0.950 . S
C1282 C1281 1.398 . S
C1282 C1283 1.391 . S
C1283 H1271 0.950 . S
C1283 C1279 1.393 . S
C1283 C1282 1.391 . S
H1284 C1292 0.950 . S
H1285 C1297 0.950 . S
H1286 C1294 0.950 . S
H1287 C1296 0.950 . S
H1288 C1298 0.950 . S
H1289 C1300 0.950 . S
H1290 C1302 0.950 . S
H1291 C1303 0.950 . S
C1292 H1284 0.950 . S
C1292 C1293 1.386 . S
C1292 C1294 1.391 . S
C1293 C1292 1.386 . S
C1293 C1297 1.393 . S
C1294 H1286 0.950 . S
C1294 C1292 1.391 . S
C1294 C1295 1.400 . S
C1295 C1294 1.400 . S
C1295 C1296 1.398 . S
C1295 C1301 1.491 . S
C1296 H1287 0.950 . S
C1296 C1295 1.398 . S
C1296 C1297 1.391 . S
C1297 H1285 0.950 . S
C1297 C1293 1.393 . S
C1297 C1296 1.391 . S
C1298 H1288 0.950 . S
C1298 C1299 1.386 . S
C1298 C1300 1.391 . S
C1299 C1298 1.386 . S
C1299 C1303 1.393 . S
C1300 H1289 0.950 . S
C1300 C1298 1.391 . S
C1300 C1301 1.400 . S
C1301 C1295 1.491 . S
C1301 C1300 1.400 . S
C1301 C1302 1.398 . S
C1302 H1290 0.950 . S
C1302 C1301 1.398 . S
C1302 C1303 1.391 . S
C1303 H1291 0.950 . S
C1303 C1299 1.393 . S
C1303 C1302 1.391 . S
H1304 C1312 0.950 . S
H1305 C1317 0.950 . S
H1306 C1314 0.950 . S
H1307 C1316 0.950 . S
H1308 C1318 0.950 . S
H1309 C1320 0.950 . S
H1310 C1322 0.950 . S
H1311 C1323 0.950 . S
C1312 H1304 0.950 . S
C1312 C1313 1.386 . S
C1312 C1314 1.391 . S
C1313 C1312 1.386 . S
C1313 C1317 1.393 . S
C1314 H1306 0.950 . S
C1314 C1312 1.391 . S
C1314 C1315 1.400 . S
C1315 C1314 1.400 . S
C1315 C1316 1.398 . S
C1315 C1321 1.491 . S
C1316 H1307 0.950 . S
C1316 C1315 1.398 . S
C1316 C1317 1.391 . S
C1317 H1305 0.950 . S
C1317 C1313 1.393 . S
C1317 C1316 1.391 . S
C1318 H1308 0.950 . S
C1318 C1319 1.386 . S
C1318 C1320 1.391 . S
C1319 C1318 1.386 . S
C1319 C1323 1.393 . S
C1320 H1309 0.950 . S
C1320 C1318 1.391 . S
C1320 C1321 1.400 . S
C1321 C1315 1.491 . S
C1321 C1320 1.400 . S
C1321 C1322 1.398 . S
C1322 H1310 0.950 . S
C1322 C1321 1.398 . S
C1322 C1323 1.391 . S
C1323 H1311 0.950 . S
C1323 C1319 1.393 . S
C1323 C1322 1.391 . S
H1324 C1332 0.950 . S
H1325 C1337 0.950 . S
H1326 C1334 0.950 . S
H1327 C1336 0.950 . S
H1328 C1338 0.950 . S
H1329 C1340 0.950 . S
H1330 C1342 0.950 . S
H1331 C1343 0.950 . S
C1332 H1324 0.950 . S
C1332 C1333 1.386 . S
C1332 C1334 1.391 . S
C1333 C1332 1.386 . S
C1333 C1337 1.393 . S
C1334 H1326 0.950 . S
C1334 C1332 1.391 . S
C1334 C1335 1.400 . S
C1335 C1334 1.400 . S
C1335 C1336 1.398 . S
C1335 C1341 1.491 . S
C1336 H1327 0.950 . S
C1336 C1335 1.398 . S
C1336 C1337 1.391 . S
C1337 H1325 0.950 . S
C1337 C1333 1.393 . S
C1337 C1336 1.391 . S
C1338 H1328 0.950 . S
C1338 C1339 1.386 . S
C1338 C1340 1.391 . S
C1339 C1338 1.386 . S
C1339 C1343 1.393 . S
C1340 H1329 0.950 . S
C1340 C1338 1.391 . S
C1340 C1341 1.400 . S
C1341 C1335 1.491 . S
C1341 C1340 1.400 . S
C1341 C1342 1.398 . S
C1342 H1330 0.950 . S
C1342 C1341 1.398 . S
C1342 C1343 1.391 . S
C1343 H1331 0.950 . S
C1343 C1339 1.393 . S
C1343 C1342 1.391 . S
H1344 C1352 0.950 . S
H1345 C1357 0.950 . S
H1346 C1354 0.950 . S
H1347 C1356 0.950 . S
H1348 C1358 0.950 . S
H1349 C1360 0.950 . S
H1350 C1362 0.950 . S
H1351 C1363 0.950 . S
C1352 H1344 0.950 . S
C1352 C1353 1.386 . S
C1352 C1354 1.391 . S
C1353 C1352 1.386 . S
C1353 C1357 1.393 . S
C1354 H1346 0.950 . S
C1354 C1352 1.391 . S
C1354 C1355 1.400 . S
C1355 C1354 1.400 . S
C1355 C1356 1.398 . S
C1355 C1361 1.491 . S
C1356 H1347 0.950 . S
C1356 C1355 1.398 . S
C1356 C1357 1.391 . S
C1357 H1345 0.950 . S
C1357 C1353 1.393 . S
C1357 C1356 1.391 . S
C1358 H1348 0.950 . S
C1358 C1359 1.386 . S
C1358 C1360 1.391 . S
C1359 C1358 1.386 . S
C1359 C1363 1.393 . S
C1360 H1349 0.950 . S
C1360 C1358 1.391 . S
C1360 C1361 1.400 . S
C1361 C1355 1.491 . S
C1361 C1360 1.400 . S
C1361 C1362 1.398 . S
C1362 H1350 0.950 . S
C1362 C1361 1.398 . S
C1362 C1363 1.391 . S
C1363 H1351 0.950 . S
C1363 C1359 1.393 . S
C1363 C1362 1.391 . S
H1364 C1372 0.950 . S
H1365 C1377 0.950 . S
H1366 C1374 0.950 . S
H1367 C1376 0.950 . S
H1368 C1378 0.950 . S
H1369 C1380 0.950 . S
H1370 C1382 0.950 . S
H1371 C1383 0.950 . S
C1372 H1364 0.950 . S
C1372 C1373 1.386 . S
C1372 C1374 1.391 . S
C1373 C1372 1.386 . S
C1373 C1377 1.393 . S
C1374 H1366 0.950 . S
C1374 C1372 1.391 . S
C1374 C1375 1.400 . S
C1375 C1374 1.400 . S
C1375 C1376 1.398 . S
C1375 C1381 1.491 . S
C1376 H1367 0.950 . S
C1376 C1375 1.398 . S
C1376 C1377 1.391 . S
C1377 H1365 0.950 . S
C1377 C1373 1.393 . S
C1377 C1376 1.391 . S
C1378 H1368 0.950 . S
C1378 C1379 1.386 . S
C1378 C1380 1.391 . S
C1379 C1378 1.386 . S
C1379 C1383 1.393 . S
C1380 H1369 0.950 . S
C1380 C1378 1.391 . S
C1380 C1381 1.400 . S
C1381 C1375 1.491 . S
C1381 C1380 1.400 . S
C1381 C1382 1.398 . S
C1382 H1370 0.950 . S
C1382 C1381 1.398 . S
C1382 C1383 1.391 . S
C1383 H1371 0.950 . S
C1383 C1379 1.393 . S
C1383 C1382 1.391 . S
H1384 C1392 0.950 . S
H1385 C1397 0.950 . S
H1386 C1394 0.950 . S
H1387 C1396 0.950 . S
H1388 C1398 0.950 . S
H1389 C1400 0.950 . S
H1390 C1402 0.950 . S
H1391 C1403 0.950 . S
C1392 H1384 0.950 . S
C1392 C1393 1.386 . S
C1392 C1394 1.391 . S
C1393 C1392 1.386 . S
C1393 C1397 1.393 . S
C1394 H1386 0.950 . S
C1394 C1392 1.391 . S
C1394 C1395 1.400 . S
C1395 C1394 1.400 . S
C1395 C1396 1.398 . S
C1395 C1401 1.491 . S
C1396 H1387 0.950 . S
C1396 C1395 1.398 . S
C1396 C1397 1.391 . S
C1397 H1385 0.950 . S
C1397 C1393 1.393 . S
C1397 C1396 1.391 . S
C1398 H1388 0.950 . S
C1398 C1399 1.386 . S
C1398 C1400 1.391 . S
C1399 C1398 1.386 . S
C1399 C1403 1.393 . S
C1400 H1389 0.950 . S
C1400 C1398 1.391 . S
C1400 C1401 1.400 . S
C1401 C1395 1.491 . S
C1401 C1400 1.400 . S
C1401 C1402 1.398 . S
C1402 H1390 0.950 . S
C1402 C1401 1.398 . S
C1402 C1403 1.391 . S
C1403 H1391 0.950 . S
C1403 C1399 1.393 . S
C1403 C1402 1.391 . S
H1404 C1412 0.950 . S
H1405 C1417 0.950 . S
H1406 C1414 0.950 . S
H1407 C1416 0.950 . S
H1408 C1418 0.950 . S
H1409 C1420 0.950 . S
H1410 C1422 0.950 . S
H1411 C1423 0.950 . S
C1412 H1404 0.950 . S
C1412 C1413 1.386 . S
C1412 C1414 1.391 . S
C1413 C1412 1.386 . S
C1413 C1417 1.393 . S
C1414 H1406 0.950 . S
C1414 C1412 1.391 . S
C1414 C1415 1.400 . S
C1415 C1414 1.400 . S
C1415 C1416 1.398 . S
C1415 C1421 1.491 . S
C1416 H1407 0.950 . S
C1416 C1415 1.398 . S
C1416 C1417 1.391 . S
C1417 H1405 0.950 . S
C1417 C1413 1.393 . S
C1417 C1416 1.391 . S
C1418 H1408 0.950 . S
C1418 C1419 1.386 . S
C1418 C1420 1.391 . S
C1419 C1418 1.386 . S
C1419 C1423 1.393 . S
C1420 H1409 0.950 . S
C1420 C1418 1.391 . S
C1420 C1421 1.400 . S
C1421 C1415 1.491 . S
C1421 C1420 1.400 . S
C1421 C1422 1.398 . S
C1422 H1410 0.950 . S
C1422 C1421 1.398 . S
C1422 C1423 1.391 . S
C1423 H1411 0.950 . S
C1423 C1419 1.393 . S
C1423 C1422 1.391 . S
H1424 C1432 0.950 . S
H1425 C1437 0.950 . S
H1426 C1434 0.950 . S
H1427 C1436 0.950 . S
H1428 C1438 0.950 . S
H1429 C1440 0.950 . S
H1430 C1442 0.950 . S
H1431 C1443 0.950 . S
C1432 H1424 0.950 . S
C1432 C1433 1.386 . S
C1432 C1434 1.391 . S
C1433 C1432 1.386 . S
C1433 C1437 1.393 . S
C1434 H1426 0.950 . S
C1434 C1432 1.391 . S
C1434 C1435 1.400 . S
C1435 C1434 1.400 . S
C1435 C1436 1.398 . S
C1435 C1441 1.491 . S
C1436 H1427 0.950 . S
C1436 C1435 1.398 . S
C1436 C1437 1.391 . S
C1437 H1425 0.950 . S
C1437 C1433 1.393 . S
C1437 C1436 1.391 . S
C1438 H1428 0.950 . S
C1438 C1439 1.386 . S
C1438 C1440 1.391 . S
C1439 C1438 1.386 . S
C1439 C1443 1.393 . S
C1440 H1429 0.950 . S
C1440 C1438 1.391 . S
C1440 C1441 1.400 . S
C1441 C1435 1.491 . S
C1441 C1440 1.400 . S
C1441 C1442 1.398 . S
C1442 H1430 0.950 . S
C1442 C1441 1.398 . S
C1442 C1443 1.391 . S
C1443 H1431 0.950 . S
C1443 C1439 1.393 . S
C1443 C1442 1.391 . S
H1444 C1452 0.950 . S
H1445 C1457 0.950 . S
H1446 C1454 0.950 . S
H1447 C1456 0.950 . S
H1448 C1458 0.950 . S
H1449 C1460 0.950 . S
H1450 C1462 0.950 . S
H1451 C1463 0.950 . S
C1452 H1444 0.950 . S
C1452 C1453 1.386 . S
C1452 C1454 1.391 . S
C1453 C1452 1.386 . S
C1453 C1457 1.393 . S
C1454 H1446 0.950 . S
C1454 C1452 1.391 . S
C1454 C1455 1.400 . S
C1455 C1454 1.400 . S
C1455 C1456 1.398 . S
C1455 C1461 1.491 . S
C1456 H1447 0.950 . S
C1456 C1455 1.398 . S
C1456 C1457 1.391 . S
C1457 H1445 0.950 . S
C1457 C1453 1.393 . S
C1457 C1456 1.391 . S
C1458 H1448 0.950 . S
C1458 C1459 1.386 . S
C1458 C1460 1.391 . S
C1459 C1458 1.386 . S
C1459 C1463 1.393 . S
C1460 H1449 0.950 . S
C1460 C1458 1.391 . S
C1460 C1461 1.400 . S
C1461 C1455 1.491 . S
C1461 C1460 1.400 . S
C1461 C1462 1.398 . S
C1462 H1450 0.950 . S
C1462 C1461 1.398 . S
C1462 C1463 1.391 . S
C1463 H1451 0.950 . S
C1463 C1459 1.393 . S
C1463 C1462 1.391 . S
H1464 C1472 0.950 . S
H1465 C1477 0.950 . S
H1466 C1474 0.950 . S
H1467 C1476 0.950 . S
H1468 C1478 0.950 . S
H1469 C1480 0.950 . S
H1470 C1482 0.950 . S
H1471 C1483 0.950 . S
C1472 H1464 0.950 . S
C1472 C1473 1.386 . S
C1472 C1474 1.391 . S
C1473 C1472 1.386 . S
C1473 C1477 1.393 . S
C1474 H1466 0.950 . S
C1474 C1472 1.391 . S
C1474 C1475 1.400 . S
C1475 C1474 1.400 . S
C1475 C1476 1.398 . S
C1475 C1481 1.491 . S
C1476 H1467 0.950 . S
C1476 C1475 1.398 . S
C1476 C1477 1.391 . S
C1477 H1465 0.950 . S
C1477 C1473 1.393 . S
C1477 C1476 1.391 . S
C1478 H1468 0.950 . S
C1478 C1479 1.386 . S
C1478 C1480 1.391 . S
C1479 C1478 1.386 . S
C1479 C1483 1.393 . S
C1480 H1469 0.950 . S
C1480 C1478 1.391 . S
C1480 C1481 1.400 . S
C1481 C1475 1.491 . S
C1481 C1480 1.400 . S
C1481 C1482 1.398 . S
C1482 H1470 0.950 . S
C1482 C1481 1.398 . S
C1482 C1483 1.391 . S
C1483 H1471 0.950 . S
C1483 C1479 1.393 . S
C1483 C1482 1.391 . S
H1484 C1492 0.950 . S
H1485 C1497 0.950 . S
H1486 C1494 0.950 . S
H1487 C1496 0.950 . S
H1488 C1498 0.950 . S
H1489 C1500 0.950 . S
H1490 C1502 0.950 . S
H1491 C1503 0.950 . S
C1492 H1484 0.950 . S
C1492 C1493 1.386 . S
C1492 C1494 1.391 . S
C1493 C1492 1.386 . S
C1493 C1497 1.393 . S
C1494 H1486 0.950 . S
C1494 C1492 1.391 . S
C1494 C1495 1.400 . S
C1495 C1494 1.400 . S
C1495 C1496 1.398 . S
C1495 C1501 1.491 . S
C1496 H1487 0.950 . S
C1496 C1495 1.398 . S
C1496 C1497 1.391 . S
C1497 H1485 0.950 . S
C1497 C1493 1.393 . S
C1497 C1496 1.391 . S
C1498 H1488 0.950 . S
C1498 C1499 1.386 . S
C1498 C1500 1.391 . S
C1499 C1498 1.386 . S
C1499 C1503 1.393 . S
C1500 H1489 0.950 . S
C1500 C1498 1.391 . S
C1500 C1501 1.400 . S
C1501 C1495 1.491 . S
C1501 C1500 1.400 . S
C1501 C1502 1.398 . S
C1502 H1490 0.950 . S
C1502 C1501 1.398 . S
C1502 C1503 1.391 . S
C1503 H1491 0.950 . S
C1503 C1499 1.393 . S
C1503 C1502 1.391 . S
H1504 C1512 0.950 . S
H1505 C1517 0.950 . S
H1506 C1514 0.950 . S
H1507 C1516 0.950 . S
H1508 C1518 0.950 . S
H1509 C1520 0.950 . S
H1510 C1522 0.950 . S
H1511 C1523 0.950 . S
C1512 H1504 0.950 . S
C1512 C1513 1.386 . S
C1512 C1514 1.391 . S
C1513 C1512 1.386 . S
C1513 C1517 1.393 . S
C1514 H1506 0.950 . S
C1514 C1512 1.391 . S
C1514 C1515 1.400 . S
C1515 C1514 1.400 . S
C1515 C1516 1.398 . S
C1515 C1521 1.491 . S
C1516 H1507 0.950 . S
C1516 C1515 1.398 . S
C1516 C1517 1.391 . S
C1517 H1505 0.950 . S
C1517 C1513 1.393 . S
C1517 C1516 1.391 . S
C1518 H1508 0.950 . S
C1518 C1519 1.386 . S
C1518 C1520 1.391 . S
C1519 C1518 1.386 . S
C1519 C1523 1.393 . S
C1520 H1509 0.950 . S
C1520 C1518 1.391 . S
C1520 C1521 1.400 . S
C1521 C1515 1.491 . S
C1521 C1520 1.400 . S
C1521 C1522 1.398 . S
C1522 H1510 0.950 . S
C1522 C1521 1.398 . S
C1522 C1523 1.391 . S
C1523 H1511 0.950 . S
C1523 C1519 1.393 . S
C1523 C1522 1.391 . S
H1524 C1532 0.950 . S
H1525 C1537 0.950 . S
H1526 C1534 0.950 . S
H1527 C1536 0.950 . S
H1528 C1538 0.950 . S
H1529 C1540 0.950 . S
H1530 C1542 0.950 . S
H1531 C1543 0.950 . S
C1532 H1524 0.950 . S
C1532 C1533 1.386 . S
C1532 C1534 1.391 . S
C1533 C1532 1.386 . S
C1533 C1537 1.393 . S
C1534 H1526 0.950 . S
C1534 C1532 1.391 . S
C1534 C1535 1.400 . S
C1535 C1534 1.400 . S
C1535 C1536 1.398 . S
C1535 C1541 1.491 . S
C1536 H1527 0.950 . S
C1536 C1535 1.398 . S
C1536 C1537 1.391 . S
C1537 H1525 0.950 . S
C1537 C1533 1.393 . S
C1537 C1536 1.391 . S
C1538 H1528 0.950 . S
C1538 C1539 1.386 . S
C1538 C1540 1.391 . S
C1539 C1538 1.386 . S
C1539 C1543 1.393 . S
C1540 H1529 0.950 . S
C1540 C1538 1.391 . S
C1540 C1541 1.400 . S
C1541 C1535 1.491 . S
C1541 C1540 1.400 . S
C1541 C1542 1.398 . S
C1542 H1530 0.950 . S
C1542 C1541 1.398 . S
C1542 C1543 1.391 . S
C1543 H1531 0.950 . S
C1543 C1539 1.393 . S
C1543 C1542 1.391 . S
H1544 C1552 0.950 . S
H1545 C1557 0.950 . S
H1546 C1554 0.950 . S
H1547 C1556 0.950 . S
H1548 C1558 0.950 . S
H1549 C1560 0.950 . S
H1550 C1562 0.950 . S
H1551 C1563 0.950 . S
C1552 H1544 0.950 . S
C1552 C1553 1.386 . S
C1552 C1554 1.391 . S
C1553 C1552 1.386 . S
C1553 C1557 1.393 . S
C1554 H1546 0.950 . S
C1554 C1552 1.391 . S
C1554 C1555 1.400 . S
C1555 C1554 1.400 . S
C1555 C1556 1.398 . S
C1555 C1561 1.491 . S
C1556 H1547 0.950 . S
C1556 C1555 1.398 . S
C1556 C1557 1.391 . S
C1557 H1545 0.950 . S
C1557 C1553 1.393 . S
C1557 C1556 1.391 . S
C1558 H1548 0.950 . S
C1558 C1559 1.386 . S
C1558 C1560 1.391 . S
C1559 C1558 1.386 . S
C1559 C1563 1.393 . S
C1560 H1549 0.950 . S
C1560 C1558 1.391 . S
C1560 C1561 1.400 . S
C1561 C1555 1.491 . S
C1561 C1560 1.400 . S
C1561 C1562 1.398 . S
C1562 H1550 0.950 . S
C1562 C1561 1.398 . S
C1562 C1563 1.391 . S
C1563 H1551 0.950 . S
C1563 C1559 1.393 . S
C1563 C1562 1.391 . S
H1564 C1572 0.950 . S
H1565 C1577 0.950 . S
H1566 C1574 0.950 . S
H1567 C1576 0.950 . S
H1568 C1578 0.950 . S
H1569 C1580 0.950 . S
H1570 C1582 0.950 . S
H1571 C1583 0.950 . S
C1572 H1564 0.950 . S
C1572 C1573 1.386 . S
C1572 C1574 1.391 . S
C1573 C1572 1.386 . S
C1573 C1577 1.393 . S
C1574 H1566 0.950 . S
C1574 C1572 1.391 . S
C1574 C1575 1.400 . S
C1575 C1574 1.400 . S
C1575 C1576 1.398 . S
C1575 C1581 1.491 . S
C1576 H1567 0.950 . S
C1576 C1575 1.398 . S
C1576 C1577 1.391 . S
C1577 H1565 0.950 . S
C1577 C1573 1.393 . S
C1577 C1576 1.391 . S
C1578 H1568 0.950 . S
C1578 C1579 1.386 . S
C1578 C1580 1.391 . S
C1579 C1578 1.386 . S
C1579 C1583 1.393 . S
C1580 H1569 0.950 . S
C1580 C1578 1.391 . S
C1580 C1581 1.400 . S
C1581 C1575 1.491 . S
C1581 C1580 1.400 . S
C1581 C1582 1.398 . S
C1582 H1570 0.950 . S
C1582 C1581 1.398 . S
C1582 C1583 1.391 . S
C1583 H1571 0.950 . S
C1583 C1579 1.393 . S
C1583 C1582 1.391 . S
C473 C245 1.706 . S
C479 C13 1.706 . S
C493 C42 1.734 . S
C499 C274 1.734 . S
C513 C303 1.708 . S
C519 C71 1.708 . S
C533 C100 1.727 . S
C539 C332 1.727 . S
C553 C129 1.717 . S
C559 C361 1.717 . S
C573 C158 1.711 . S
C579 C390 1.711 . S
C593 C419 1.730 . S
C599 C187 1.730 . S
C613 C448 1.711 . S
C619 C216 1.711 . S
C633 C15 2.889 . S
C639 C37 2.482 . S
C653 C66 2.462 . S
C659 C44 2.892 . S
C673 C95 2.465 1_655 S
C679 C73 2.893 . S
C693 C8 2.481 1_565 S
C699 C102 2.889 . S
C713 C211 2.475 1_455 S
C719 C131 2.891 . S
C733 C124 2.475 1_545 S
C739 C160 2.888 . S
C753 C189 2.888 . S
C759 C153 2.475 . S
C773 C218 2.891 . S
C779 C182 2.476 . S
C793 C269 2.471 . S
C799 C247 2.889 . S
C813 C276 2.894 . S
C819 C298 2.458 . S
C833 C327 2.465 1_455 S
C839 C305 2.893 . S
C853 C240 2.465 1_545 S
C859 C334 2.893 . S
C873 C443 2.486 1_655 S
C879 C363 2.887 . S
C893 C356 2.458 1_565 S
C899 C392 2.894 . S
C913 C385 2.476 . S
C919 C421 2.890 . S
C933 C414 2.486 . S
C939 C450 2.887 . S
C953 C266 1.000 . S
C959 C3 1.051 . S
C973 C295 1.029 . S
C979 C32 1.051 . S
C993 C324 0.999 . S
C999 C61 1.051 . S
C1013 C237 1.006 . S
C1019 C90 1.050 . S
C1033 C440 1.023 . S
C1039 C119 1.050 . S
C1053 C353 1.031 . S
C1059 C148 1.052 . S
C1073 C177 1.056 . S
C1079 C382 0.994 . S
C1093 C411 1.011 . S
C1099 C206 1.050 . S
C1113 C235 1.054 . S
C1119 C34 1.025 . S
C1133 C264 1.053 . S
C1139 C63 0.988 . S
C1153 C293 1.050 . S
C1159 C92 1.029 . S
C1173 C5 1.012 . S
C1179 C322 1.050 . S
C1193 C351 1.053 . S
C1199 C208 0.988 . S
C1213 C121 0.987 . S
C1219 C380 1.053 . S
C1233 C409 1.050 . S
C1239 C150 1.004 . S
C1253 C438 1.056 . S
C1259 C179 1.003 . S
C1273 C155 1.785 . S
C1279 C10 1.766 . S
C1293 C184 1.788 . S
C1299 C39 1.785 . S
C1313 C213 1.762 . S
C1319 C68 1.782 . S
C1333 C126 1.772 . S
C1339 C97 1.758 . S
C1353 C387 1.780 . S
C1359 C242 1.790 . S
C1373 C271 1.761 . S
C1379 C416 1.761 . S
C1393 C300 1.777 . S
C1399 C445 1.790 . S
C1413 C329 1.789 . S
C1419 C358 1.773 . S
C1433 C79 0.874 . S
C1439 C21 0.880 . S
C1453 C50 0.823 . S
C1459 C108 0.828 . S
C1473 C195 0.835 . S
C1479 C137 0.829 . S
C1493 C224 0.856 . S
C1499 C166 0.864 . S
C1513 C253 0.880 . S
C1519 C311 0.874 . S
C1533 C340 0.880 . S
C1539 C282 0.885 . S
C1553 C427 0.828 . S
C1559 C369 0.823 . S
C1573 C456 0.870 . S
C1579 C398 0.876 . S
