# Generated by pormake.
# Topology vcc, (6)-cn, num edge types: 1
# Building blocks:
#     Node 0, Type 0, BuildingBlock: PAMTOO_clean_sbu_0, # of connection points: 6
#     Node 1, Type 0, BuildingBlock: PAMTOO_clean_sbu_0, # of connection points: 6
#     Node 2, Type 0, BuildingBlock: PAMTOO_clean_sbu_0, # of connection points: 6
#     Node 3, Type 0, BuildingBlock: PAMTOO_clean_sbu_0, # of connection points: 6
#     Node 4, Type 0, BuildingBlock: PAMTOO_clean_sbu_0, # of connection points: 6
#     Node 5, Type 0, BuildingBlock: PAMTOO_clean_sbu_0, # of connection points: 6
#     Node 6, Type 0, BuildingBlock: PAMTOO_clean_sbu_0, # of connection points: 6
#     Node 7, Type 0, BuildingBlock: PAMTOO_clean_sbu_0, # of connection points: 6
#     Node 8, Type 0, BuildingBlock: PAMTOO_clean_sbu_0, # of connection points: 6
#     Node 9, Type 0, BuildingBlock: PAMTOO_clean_sbu_0, # of connection points: 6
#     Node 10, Type 0, BuildingBlock: PAMTOO_clean_sbu_0, # of connection points: 6
#     Node 11, Type 0, BuildingBlock: PAMTOO_clean_sbu_0, # of connection points: 6
#     Node 12, Type 0, BuildingBlock: PAMTOO_clean_sbu_0, # of connection points: 6
#     Node 13, Type 0, BuildingBlock: PAMTOO_clean_sbu_0, # of connection points: 6
#     Node 14, Type 0, BuildingBlock: PAMTOO_clean_sbu_0, # of connection points: 6
#     Node 15, Type 0, BuildingBlock: PAMTOO_clean_sbu_0, # of connection points: 6
#     Node 16, Type 0, BuildingBlock: PAMTOO_clean_sbu_0, # of connection points: 6
#     Node 17, Type 0, BuildingBlock: PAMTOO_clean_sbu_0, # of connection points: 6
#     Node 18, Type 0, BuildingBlock: PAMTOO_clean_sbu_0, # of connection points: 6
#     Node 19, Type 0, BuildingBlock: PAMTOO_clean_sbu_0, # of connection points: 6
#     Node 20, Type 0, BuildingBlock: PAMTOO_clean_sbu_0, # of connection points: 6
#     Node 21, Type 0, BuildingBlock: PAMTOO_clean_sbu_0, # of connection points: 6
#     Node 22, Type 0, BuildingBlock: PAMTOO_clean_sbu_0, # of connection points: 6
#     Node 23, Type 0, BuildingBlock: PAMTOO_clean_sbu_0, # of connection points: 6
#     Node 24, Type 0, BuildingBlock: PAMTOO_clean_sbu_0, # of connection points: 6
#     Node 25, Type 0, BuildingBlock: PAMTOO_clean_sbu_0, # of connection points: 6
#     Node 26, Type 0, BuildingBlock: PAMTOO_clean_sbu_0, # of connection points: 6
#     Node 27, Type 0, BuildingBlock: PAMTOO_clean_sbu_0, # of connection points: 6
#     Node 28, Type 0, BuildingBlock: PAMTOO_clean_sbu_0, # of connection points: 6
#     Node 29, Type 0, BuildingBlock: PAMTOO_clean_sbu_0, # of connection points: 6
#     Node 30, Type 0, BuildingBlock: PAMTOO_clean_sbu_0, # of connection points: 6
#     Node 31, Type 0, BuildingBlock: PAMTOO_clean_sbu_0, # of connection points: 6
#     Edge 32, Type (0, 0), BuildingBlock: OJICUG_clean_linker_0, # of connection points: 2
#     Edge 33, Type (0, 0), BuildingBlock: OJICUG_clean_linker_0, # of connection points: 2
#     Edge 34, Type (0, 0), BuildingBlock: OJICUG_clean_linker_0, # of connection points: 2
#     Edge 35, Type (0, 0), BuildingBlock: OJICUG_clean_linker_0, # of connection points: 2
#     Edge 36, Type (0, 0), BuildingBlock: OJICUG_clean_linker_0, # of connection points: 2
#     Edge 37, Type (0, 0), BuildingBlock: OJICUG_clean_linker_0, # of connection points: 2
#     Edge 38, Type (0, 0), BuildingBlock: OJICUG_clean_linker_0, # of connection points: 2
#     Edge 39, Type (0, 0), BuildingBlock: OJICUG_clean_linker_0, # of connection points: 2
#     Edge 40, Type (0, 0), BuildingBlock: OJICUG_clean_linker_0, # of connection points: 2
#     Edge 41, Type (0, 0), BuildingBlock: OJICUG_clean_linker_0, # of connection points: 2
#     Edge 42, Type (0, 0), BuildingBlock: OJICUG_clean_linker_0, # of connection points: 2
#     Edge 43, Type (0, 0), BuildingBlock: OJICUG_clean_linker_0, # of connection points: 2
#     Edge 44, Type (0, 0), BuildingBlock: OJICUG_clean_linker_0, # of connection points: 2
#     Edge 45, Type (0, 0), BuildingBlock: OJICUG_clean_linker_0, # of connection points: 2
#     Edge 46, Type (0, 0), BuildingBlock: OJICUG_clean_linker_0, # of connection points: 2
#     Edge 47, Type (0, 0), BuildingBlock: OJICUG_clean_linker_0, # of connection points: 2
#     Edge 48, Type (0, 0), BuildingBlock: OJICUG_clean_linker_0, # of connection points: 2
#     Edge 49, Type (0, 0), BuildingBlock: OJICUG_clean_linker_0, # of connection points: 2
#     Edge 50, Type (0, 0), BuildingBlock: OJICUG_clean_linker_0, # of connection points: 2
#     Edge 51, Type (0, 0), BuildingBlock: OJICUG_clean_linker_0, # of connection points: 2
#     Edge 52, Type (0, 0), BuildingBlock: OJICUG_clean_linker_0, # of connection points: 2
#     Edge 53, Type (0, 0), BuildingBlock: OJICUG_clean_linker_0, # of connection points: 2
#     Edge 54, Type (0, 0), BuildingBlock: OJICUG_clean_linker_0, # of connection points: 2
#     Edge 55, Type (0, 0), BuildingBlock: OJICUG_clean_linker_0, # of connection points: 2
#     Edge 56, Type (0, 0), BuildingBlock: OJICUG_clean_linker_0, # of connection points: 2
#     Edge 57, Type (0, 0), BuildingBlock: OJICUG_clean_linker_0, # of connection points: 2
#     Edge 58, Type (0, 0), BuildingBlock: OJICUG_clean_linker_0, # of connection points: 2
#     Edge 59, Type (0, 0), BuildingBlock: OJICUG_clean_linker_0, # of connection points: 2
#     Edge 60, Type (0, 0), BuildingBlock: OJICUG_clean_linker_0, # of connection points: 2
#     Edge 61, Type (0, 0), BuildingBlock: OJICUG_clean_linker_0, # of connection points: 2
#     Edge 62, Type (0, 0), BuildingBlock: OJICUG_clean_linker_0, # of connection points: 2
#     Edge 63, Type (0, 0), BuildingBlock: OJICUG_clean_linker_0, # of connection points: 2
#     Edge 64, Type (0, 0), BuildingBlock: OJICUG_clean_linker_0, # of connection points: 2
#     Edge 65, Type (0, 0), BuildingBlock: OJICUG_clean_linker_0, # of connection points: 2
#     Edge 66, Type (0, 0), BuildingBlock: OJICUG_clean_linker_0, # of connection points: 2
#     Edge 67, Type (0, 0), BuildingBlock: OJICUG_clean_linker_0, # of connection points: 2
#     Edge 68, Type (0, 0), BuildingBlock: OJICUG_clean_linker_0, # of connection points: 2
#     Edge 69, Type (0, 0), BuildingBlock: OJICUG_clean_linker_0, # of connection points: 2
#     Edge 70, Type (0, 0), BuildingBlock: OJICUG_clean_linker_0, # of connection points: 2
#     Edge 71, Type (0, 0), BuildingBlock: OJICUG_clean_linker_0, # of connection points: 2
#     Edge 72, Type (0, 0), BuildingBlock: OJICUG_clean_linker_0, # of connection points: 2
#     Edge 73, Type (0, 0), BuildingBlock: OJICUG_clean_linker_0, # of connection points: 2
#     Edge 74, Type (0, 0), BuildingBlock: OJICUG_clean_linker_0, # of connection points: 2
#     Edge 75, Type (0, 0), BuildingBlock: OJICUG_clean_linker_0, # of connection points: 2
#     Edge 76, Type (0, 0), BuildingBlock: OJICUG_clean_linker_0, # of connection points: 2
#     Edge 77, Type (0, 0), BuildingBlock: OJICUG_clean_linker_0, # of connection points: 2
#     Edge 78, Type (0, 0), BuildingBlock: OJICUG_clean_linker_0, # of connection points: 2
#     Edge 79, Type (0, 0), BuildingBlock: OJICUG_clean_linker_0, # of connection points: 2
#     Edge 80, Type (0, 0), BuildingBlock: OJICUG_clean_linker_0, # of connection points: 2
#     Edge 81, Type (0, 0), BuildingBlock: OJICUG_clean_linker_0, # of connection points: 2
#     Edge 82, Type (0, 0), BuildingBlock: OJICUG_clean_linker_0, # of connection points: 2
#     Edge 83, Type (0, 0), BuildingBlock: OJICUG_clean_linker_0, # of connection points: 2
#     Edge 84, Type (0, 0), BuildingBlock: OJICUG_clean_linker_0, # of connection points: 2
#     Edge 85, Type (0, 0), BuildingBlock: OJICUG_clean_linker_0, # of connection points: 2
#     Edge 86, Type (0, 0), BuildingBlock: OJICUG_clean_linker_0, # of connection points: 2
#     Edge 87, Type (0, 0), BuildingBlock: OJICUG_clean_linker_0, # of connection points: 2
#     Edge 88, Type (0, 0), BuildingBlock: OJICUG_clean_linker_0, # of connection points: 2
#     Edge 89, Type (0, 0), BuildingBlock: OJICUG_clean_linker_0, # of connection points: 2
#     Edge 90, Type (0, 0), BuildingBlock: OJICUG_clean_linker_0, # of connection points: 2
#     Edge 91, Type (0, 0), BuildingBlock: OJICUG_clean_linker_0, # of connection points: 2
#     Edge 92, Type (0, 0), BuildingBlock: OJICUG_clean_linker_0, # of connection points: 2
#     Edge 93, Type (0, 0), BuildingBlock: OJICUG_clean_linker_0, # of connection points: 2
#     Edge 94, Type (0, 0), BuildingBlock: OJICUG_clean_linker_0, # of connection points: 2
#     Edge 95, Type (0, 0), BuildingBlock: OJICUG_clean_linker_0, # of connection points: 2
#     Edge 96, Type (0, 0), BuildingBlock: OJICUG_clean_linker_0, # of connection points: 2
#     Edge 97, Type (0, 0), BuildingBlock: OJICUG_clean_linker_0, # of connection points: 2
#     Edge 98, Type (0, 0), BuildingBlock: OJICUG_clean_linker_0, # of connection points: 2
#     Edge 99, Type (0, 0), BuildingBlock: OJICUG_clean_linker_0, # of connection points: 2
#     Edge 100, Type (0, 0), BuildingBlock: OJICUG_clean_linker_0, # of connection points: 2
#     Edge 101, Type (0, 0), BuildingBlock: OJICUG_clean_linker_0, # of connection points: 2
#     Edge 102, Type (0, 0), BuildingBlock: OJICUG_clean_linker_0, # of connection points: 2
#     Edge 103, Type (0, 0), BuildingBlock: OJICUG_clean_linker_0, # of connection points: 2
#     Edge 104, Type (0, 0), BuildingBlock: OJICUG_clean_linker_0, # of connection points: 2
#     Edge 105, Type (0, 0), BuildingBlock: OJICUG_clean_linker_0, # of connection points: 2
#     Edge 106, Type (0, 0), BuildingBlock: OJICUG_clean_linker_0, # of connection points: 2
#     Edge 107, Type (0, 0), BuildingBlock: OJICUG_clean_linker_0, # of connection points: 2
#     Edge 108, Type (0, 0), BuildingBlock: OJICUG_clean_linker_0, # of connection points: 2
#     Edge 109, Type (0, 0), BuildingBlock: OJICUG_clean_linker_0, # of connection points: 2
#     Edge 110, Type (0, 0), BuildingBlock: OJICUG_clean_linker_0, # of connection points: 2
#     Edge 111, Type (0, 0), BuildingBlock: OJICUG_clean_linker_0, # of connection points: 2
#     Edge 112, Type (0, 0), BuildingBlock: OJICUG_clean_linker_0, # of connection points: 2
#     Edge 113, Type (0, 0), BuildingBlock: OJICUG_clean_linker_0, # of connection points: 2
#     Edge 114, Type (0, 0), BuildingBlock: OJICUG_clean_linker_0, # of connection points: 2
#     Edge 115, Type (0, 0), BuildingBlock: OJICUG_clean_linker_0, # of connection points: 2
#     Edge 116, Type (0, 0), BuildingBlock: OJICUG_clean_linker_0, # of connection points: 2
#     Edge 117, Type (0, 0), BuildingBlock: OJICUG_clean_linker_0, # of connection points: 2
#     Edge 118, Type (0, 0), BuildingBlock: OJICUG_clean_linker_0, # of connection points: 2
#     Edge 119, Type (0, 0), BuildingBlock: OJICUG_clean_linker_0, # of connection points: 2
#     Edge 120, Type (0, 0), BuildingBlock: OJICUG_clean_linker_0, # of connection points: 2
#     Edge 121, Type (0, 0), BuildingBlock: OJICUG_clean_linker_0, # of connection points: 2
#     Edge 122, Type (0, 0), BuildingBlock: OJICUG_clean_linker_0, # of connection points: 2
#     Edge 123, Type (0, 0), BuildingBlock: OJICUG_clean_linker_0, # of connection points: 2
#     Edge 124, Type (0, 0), BuildingBlock: OJICUG_clean_linker_0, # of connection points: 2
#     Edge 125, Type (0, 0), BuildingBlock: OJICUG_clean_linker_0, # of connection points: 2
#     Edge 126, Type (0, 0), BuildingBlock: OJICUG_clean_linker_0, # of connection points: 2
#     Edge 127, Type (0, 0), BuildingBlock: OJICUG_clean_linker_0, # of connection points: 2
# Relax obj value: 0.530
# Max RMSD: 0.211
# Mean RMSD: 0.211
data_MOF--net-vcc--node1-PAMTOO_clean_sbu_0--edge1-OJICUG_clean_linker_0
_symmetry_space_group_name_H-M    P1
_symmetry_Int_Tables_number       1
_symmetry_cell_setting            triclinic
loop_
_symmetry_equiv_pos_as_xyz
'x, y, z'
_cell_length_a     25.36554
_cell_length_b     43.244359
_cell_length_c     40.971894
_cell_angle_alpha  89.92838
_cell_angle_beta   90.016967
_cell_angle_gamma 89.987992
loop_
_atom_site_label
_atom_site_type_symbol
_atom_site_fract_x
_atom_site_fract_y
_atom_site_fract_z
_atom_type_partial_charge
Dy0 Dy 0.33464 0.97488 0.24299 0.0
Dy1 Dy 0.44161 -0.01673 0.20518 0.0
C2 C 0.38863 0.04024 0.23848 0.0
O3 O 0.30596 0.96945 0.18989 0.0
O4 O 0.37794 -0.01021 0.16461 0.0
O5 O 0.25166 -0.01448 0.24509 0.0
O6 O 0.28865 0.96127 0.28508 0.0
O7 O 0.42448 0.93314 0.19826 0.0
O8 O 0.35405 0.92546 0.23253 0.0
O9 O 0.47508 0.97363 0.25651 0.0
O10 O 0.39781 -0.02081 0.2848 0.0
O11 O 0.51683 0.96939 0.1853 0.0
O12 O 0.48701 0.01583 0.17706 0.0
C13 C 0.32825 -0.01998 0.16282 0.0
O14 O 0.34414 0.02562 0.23465 0.0
O15 O 0.43289 0.02541 0.23531 0.0
C16 C 0.23168 0.00258 0.2982 0.0
C17 C 0.23223 0.05365 0.34052 0.0
C18 C 0.22024 0.05786 0.30742 0.0
C19 C 0.21927 0.03241 0.28641 0.0
C20 C 0.23872 -0.00171 0.33175 0.0
C21 C 0.2384 0.02348 0.35276 0.0
C22 C 0.24822 -0.02223 0.2757 0.0
C23 C 0.38997 0.91485 0.21237 0.0
C24 C 0.45038 0.97604 0.28501 0.0
C25 C 0.51688 -0.01051 0.13194 0.0
C26 C 0.48314 -0.01057 1.0666 0.0
C27 C 0.46894 0.96524 1.08779 0.0
C28 C 0.48585 0.96519 1.11997 0.0
C29 C 0.53388 0.01278 1.11064 0.0
C30 C 0.51762 0.01257 1.07805 0.0
C31 C 0.51924 -0.0057 0.16719 0.0
H32 H 0.2155 0.08092 0.29746 0.0
H33 H 0.21337 0.03656 0.26059 0.0
H34 H 0.24922 0.97579 0.34142 0.0
H35 H 0.24864 0.01951 0.3781 0.0
H36 H 0.44165 0.94732 1.08046 0.0
H37 H 0.47106 0.94731 0.13609 0.0
H38 H 0.55738 0.03189 1.11959 0.0
H39 H 0.53082 0.03106 1.06223 0.0
Dy40 Dy 1.04919 0.2327 0.23876 0.0
Dy41 Dy 0.94563 0.21765 0.20171 0.0
C42 C 1.00805 0.16485 0.23544 0.0
O43 O 0.07683 0.24143 0.1858 0.0
O44 O 1.01088 0.21454 0.1614 0.0
O45 O 0.13403 0.22961 0.24132 0.0
O46 O 0.09003 0.24524 0.28322 0.0
O47 O 0.9511 0.26891 0.19581 0.0
O48 O 1.02195 0.28062 0.22851 0.0
O49 O 0.90869 0.22708 0.252 0.0
O50 O 0.98603 0.2279 0.28063 0.0
O51 O 0.86902 0.22606 0.18057 0.0
O52 O 0.90697 0.18148 0.17459 0.0
C53 C 1.05755 0.2285 0.15898 0.0
O54 O 1.04899 0.18179 0.22871 0.0
O55 O 0.96165 0.17759 0.23426 0.0
C56 C 0.15276 0.20654 0.29199 0.0
C57 C 0.15408 0.15401 0.33245 0.0
C58 C 0.15266 0.15058 0.2985 0.0
C59 C 0.15079 0.17663 0.27853 0.0
C60 C 0.16035 0.20985 0.32555 0.0
C61 C 0.16136 0.18384 0.34567 0.0
C62 C 0.134 0.23315 0.27285 0.0
C63 C 0.98269 0.28909 0.20965 0.0
C64 C 0.9332 0.22812 0.28061 0.0
C65 C 0.87553 0.20498 0.12814 0.0
C66 C 0.91263 0.2043 1.0636 0.0
C67 C 0.92738 0.22809 1.08508 0.0
C68 C 0.90862 0.22857 1.11677 0.0
C69 C 0.85782 0.18217 1.10657 0.0
C70 C 0.87573 0.18206 1.0743 0.0
C71 C 0.87168 0.20067 0.16337 0.0
H72 H 0.14782 0.12795 0.2876 0.0
H73 H 0.14367 0.17325 0.25277 0.0
H74 H 0.1595 0.23257 0.33653 0.0
H75 H 0.1617 0.18758 0.37179 0.0
H76 H 0.95637 0.24533 1.07848 0.0
H77 H 0.92356 0.24618 0.13314 0.0
H78 H 0.83262 0.16362 1.1151 0.0
H79 H 0.86213 0.16392 1.05822 0.0
Dy80 Dy 0.3487 0.23648 0.26214 0.0
Dy81 Dy 0.44998 0.22583 0.30297 0.0
C82 C 0.39542 0.1703 0.26987 0.0
O83 O 0.31704 0.24599 0.3143 0.0
O84 O 0.38156 0.21984 0.34085 0.0
O85 O 0.26364 0.23601 0.25862 0.0
O86 O 0.31056 0.24189 0.21523 0.0
O87 O 0.4366 0.27674 0.3084 0.0
O88 O 0.37925 0.28462 0.26593 0.0
O89 O 0.48926 0.23535 0.25318 0.0
O90 O 0.41454 0.23036 0.22244 0.0
O91 O 0.52293 0.23796 0.32684 0.0
O92 O 0.4916 0.19147 0.33104 0.0
C93 C 0.3341 0.23304 0.34177 0.0
O94 O 0.35264 0.18626 0.27459 0.0
O95 O 0.4406 0.1843 0.27178 0.0
C96 C 0.24159 0.20631 0.21246 0.0
C97 C 0.2236 0.15023 0.1794 0.0
C98 C 0.23447 0.15017 0.21295 0.0
C99 C 0.24431 0.17795 0.22917 0.0
C100 C 0.22586 0.20661 0.17983 0.0
C101 C 0.21637 0.1789 0.16345 0.0
C102 C 0.26468 0.23431 0.22694 0.0
C103 C 0.41161 0.29524 0.28823 0.0
C104 C 0.46701 0.23326 0.22389 0.0
C105 C 0.51402 0.21576 0.37879 0.0
C106 C 0.46413 0.21058 0.43972 0.0
C107 C 0.45245 0.23537 0.41869 0.0
C108 C 0.47774 0.2382 0.38893 0.0
C109 C 0.52887 0.19217 0.40031 0.0
C110 C 0.50474 0.1899 0.43088 0.0
C111 C 0.52242 0.21231 0.34378 0.0
H112 H 0.23968 0.12857 0.22597 0.0
H113 H 0.25649 0.17709 0.25444 0.0
H114 H 0.22577 0.22807 0.16628 0.0
H115 H 0.20913 0.18004 0.13743 0.0
H116 H 0.42112 0.25161 0.42377 0.0
H117 H 0.46481 0.25636 0.37252 0.0
H118 H 0.55654 0.17449 0.39272 0.0
H119 H 0.51661 0.17124 0.44689 0.0
Dy120 Dy 1.05959 0.96587 0.26163 0.0
Dy121 Dy 0.95497 -0.02085 0.29994 0.0
C122 C 1.01842 0.03414 0.26601 0.0
O123 O 0.08777 0.966 0.31556 0.0
O124 O 1.01676 -0.01284 0.34075 0.0
O125 O 0.11267 0.963 0.22011 0.0
O126 O 0.1355 0.9441 0.26678 0.0
O127 O 0.97365 0.92955 0.31115 0.0
O128 O 1.01352 0.92181 0.26264 0.0
O129 O 0.92154 0.96879 0.24836 0.0
O130 O 0.99844 0.9733 0.21926 0.0
O131 O 0.87876 0.96694 0.31953 0.0
O132 O 0.9096 0.01331 0.32595 0.0
C133 C 1.06624 -0.02256 0.34247 0.0
O134 O 1.06171 0.01753 0.26624 0.0
O135 O 0.97257 0.02106 0.27066 0.0
C136 C 0.15598 0.91462 0.22052 0.0
C137 C 0.13526 0.86435 0.17998 0.0
C138 C 0.16949 0.88805 0.16941 0.0
C139 C 0.17893 0.91344 0.18957 0.0
C140 C 0.13389 0.88745 0.23368 0.0
C141 C 0.12543 0.86182 0.21365 0.0
C142 C 0.14542 0.9449 0.23569 0.0
C143 C 0.98996 0.91064 0.28846 0.0
C144 C 0.94569 0.97107 0.21954 0.0
C145 C 0.87869 -0.01121 0.37202 0.0
C146 C 0.90935 -0.00966 0.43795 0.0
C147 C 0.92713 0.96665 0.41726 0.0
C148 C 0.91153 0.96571 0.38486 0.0
C149 C 0.85909 0.01192 0.39261 0.0
C150 C 0.87379 0.01248 0.42551 0.0
C151 C 0.87669 -0.00752 0.33657 0.0
H152 H 0.18061 0.89014 0.14399 0.0
H153 H 0.19841 0.93351 0.17961 0.0
H154 H 0.11751 0.88716 0.2581 0.0
H155 H 0.10157 0.84298 0.22297 0.0
H156 H 0.95562 0.94967 0.42537 0.0
H157 H 0.92844 0.94807 0.36931 0.0
H158 H 0.83444 0.03023 0.38294 0.0
H159 H 0.85837 0.0307 0.44089 0.0
Dy160 Dy 0.70251 0.96926 1.04991 0.0
Dy161 Dy 0.80732 -0.02153 1.01264 0.0
C162 C 0.7501 0.03824 1.04167 0.0
O163 O 0.66734 -0.01965 0.9993 0.0
O164 O 0.74442 0.9764 0.97077 0.0
O165 O 0.62746 -0.01861 1.0711 0.0
O166 O 0.65935 0.93515 1.0774 0.0
O167 O 0.79805 0.92834 1.0248 0.0
O168 O 0.71118 0.92923 1.01704 0.0
O169 O 0.83629 -0.01287 1.0653 0.0
O170 O 0.76801 0.96235 1.08972 0.0
O171 O 0.89082 0.96998 1.01027 0.0
O172 O 0.84978 -0.0142 0.96731 0.0
C173 C 0.692 -0.0205 0.97069 0.0
O174 O 0.71726 0.01949 1.05654 0.0
O175 O 0.78667 0.02803 1.02162 0.0
C176 C 0.63157 0.96023 1.12372 0.0
C177 C 0.6667 0.95971 0.1887 0.0
C178 C 0.68395 -0.01732 0.16692 0.0
C179 C 0.66605 -0.01683 0.13501 0.0
C180 C 0.61279 0.93771 0.14534 0.0
C181 C 0.62962 0.93772 0.17783 0.0
C182 C 0.62691 0.95601 1.08853 0.0
C183 C 0.75497 0.91384 1.01713 0.0
C184 C 0.81603 0.9747 1.09215 0.0
C185 C 0.90656 0.94315 0.96115 0.0
C186 C 0.90735 0.88789 0.92467 0.0
C187 C 0.90481 0.88679 0.95882 0.0
C188 C 0.9038 0.91418 0.97685 0.0
C189 C 0.91402 0.94405 0.92739 0.0
C190 C 0.91506 0.91675 0.90931 0.0
C191 C 0.89142 0.9717 0.97858 0.0
H192 H 0.71362 -0.00056 0.17376 0.0
H193 H 0.68243 0.00027 1.11854 0.0
H194 H 0.58689 0.91951 0.13681 0.0
H195 H 0.61455 0.92009 0.19411 0.0
H196 H 0.89897 0.86496 0.97129 0.0
H197 H 0.89723 0.91261 1.00288 0.0
H198 H 0.91371 0.96592 0.91467 0.0
H199 H 0.91591 0.91867 0.88295 0.0
Dy200 Dy 0.19594 0.7354 1.05124 0.0
Dy201 Dy 0.0924 0.71975 1.01268 0.0
C202 C 0.1678 0.6671 1.03734 0.0
O203 O 0.23076 0.72488 1.00018 0.0
O204 O 0.15384 0.72855 0.971 0.0
O205 O 0.27332 0.72618 1.07072 0.0
O206 O 0.23693 0.77105 1.07788 0.0
O207 O 0.08486 0.77066 1.02114 0.0
O208 O 0.17368 0.77614 1.02162 0.0
O209 O 1.06536 0.71473 1.06655 0.0
O210 O 0.13331 0.73879 1.09224 0.0
O211 O 1.03881 0.72065 0.97144 0.0
O212 O 1.02203 0.69176 1.01325 0.0
C213 C 0.20654 0.72669 0.97138 0.0
O214 O 0.18113 0.68549 1.06112 0.0
O215 O 0.14444 0.67839 1.0116 0.0
C216 C 0.26851 0.7465 1.12371 0.0
C217 C 0.22719 0.74706 0.18733 0.0
C218 C 0.21554 0.7227 0.16587 0.0
C219 C 0.23656 0.7222 0.13473 0.0
C220 C 0.28334 0.76991 0.14544 0.0
C221 C 0.26328 0.77 0.17726 0.0
C222 C 0.27186 0.75131 1.08846 0.0
C223 C 0.12671 0.78834 1.01984 0.0
C224 C 0.08588 0.72598 1.09389 0.0
C225 C 1.01394 0.66906 0.96145 0.0
C226 C 1.05686 0.62762 0.91615 0.0
C227 C 1.02221 0.65115 0.90578 0.0
C228 C 1.00137 0.67198 0.92834 0.0
C229 C 1.04035 0.64219 0.9722 0.0
C230 C 1.06171 0.62158 0.94962 0.0
C231 C 1.01268 0.69675 0.98244 0.0
H232 H 0.18722 0.70492 0.17197 0.0
H233 H 0.22375 0.70407 1.11833 0.0
H234 H 0.30744 0.78908 0.13722 0.0
H235 H 0.27438 0.78868 0.19338 0.0
H236 H 1.01766 0.65641 0.88006 0.0
H237 H 0.98125 0.69241 0.91951 0.0
H238 H 1.05015 0.63893 0.99771 0.0
H239 H 0.08784 0.60347 0.9582 0.0
Dy240 Dy 0.68173 0.73452 0.95033 0.0
Dy241 Dy 0.78593 0.71558 0.98756 0.0
C242 C 0.71009 0.66236 0.95849 0.0
O243 O 0.64523 0.72499 1.00068 0.0
O244 O 0.7223 0.71904 1.02937 0.0
O245 O 0.60417 0.73 0.92904 0.0
O246 O 0.64591 0.77367 0.92642 0.0
O247 O 0.78862 0.76696 0.98214 0.0
O248 O 0.70051 0.77161 0.98532 0.0
O249 O 0.8163 0.7142 0.93459 0.0
O250 O 0.74677 0.73762 0.90969 0.0
O251 O 0.86975 0.70633 0.98687 0.0
O252 O 0.82742 0.70596 1.03247 0.0
C253 C 0.66949 0.72126 1.02915 0.0
O254 O 0.67897 0.68324 0.94544 0.0
O255 O 0.75201 0.66952 0.97568 0.0
C256 C 0.61232 0.75468 0.8785 0.0
C257 C 0.64915 0.75797 0.81395 0.0
C258 C 0.66198 0.73268 0.83404 0.0
C259 C 0.6432 0.73086 0.86557 0.0
C260 C 0.59738 0.77955 0.85862 0.0
C261 C 0.61509 0.78099 0.82627 0.0
C262 C 0.60885 0.75651 0.91392 0.0
C263 C 0.74704 0.78395 0.98733 0.0
C264 C 0.79583 0.72664 0.9079 0.0
C265 C 0.90954 0.73022 1.03225 0.0
C266 C 0.94581 0.78231 1.06643 0.0
C267 C 0.93949 0.78372 1.03239 0.0
C268 C 0.92101 0.75784 1.01539 0.0
C269 C 0.92242 0.72773 1.0652 0.0
C270 C 0.93994 0.75354 1.08217 0.0
C271 C 0.87346 0.70713 1.01847 0.0
H272 H 0.68936 0.71491 0.82652 0.0
H273 H 0.65645 0.71178 0.88067 0.0
H274 H 0.57425 0.79842 0.86848 0.0
H275 H 0.60318 0.80046 0.81138 0.0
H276 H 0.94353 0.80551 1.01957 0.0
H277 H 0.9112 0.76036 0.98979 0.0
H278 H 0.91301 0.70686 1.07866 0.0
H279 H 0.942 0.75173 1.10844 0.0
Dy280 Dy 0.18995 0.97224 0.95544 0.0
Dy281 Dy 0.08751 -0.01456 0.99403 0.0
C282 C 0.15305 0.04231 0.96589 0.0
O283 O 0.22637 -0.0172 1.00591 0.0
O284 O 0.15024 -0.02247 1.03496 0.0
O285 O 0.26728 -0.01846 0.93601 0.0
O286 O 0.22894 0.93765 0.9263 0.0
O287 O 0.08825 0.93486 0.98334 0.0
O288 O 0.17602 0.93143 0.98719 0.0
O289 O 1.05776 -0.00525 0.94159 0.0
O290 O 0.1234 0.96843 0.91604 0.0
O291 O 1.00338 -0.01943 0.99902 0.0
O292 O 1.04888 -0.00065 1.03879 0.0
C293 C 0.20256 -0.01929 1.03471 0.0
O294 O 0.17906 0.02289 0.94737 0.0
O295 O 0.11912 0.03293 0.98786 0.0
C296 C 0.2647 0.96331 0.88233 0.0
C297 C 0.2378 0.96782 0.8161 0.0
C298 C 0.21975 -0.01007 0.83854 0.0
C299 C 0.23341 -0.01217 0.87115 0.0
C300 C 0.28483 0.9418 0.86009 0.0
C301 C 0.27199 0.94426 0.827 0.0
C302 C 0.26543 0.95711 0.91729 0.0
C303 C 0.12996 0.91837 0.98925 0.0
C304 C 0.07621 -0.01803 0.91443 0.0
C305 C 0.99274 0.95806 1.05099 0.0
C306 C 1.00164 0.90528 1.09077 0.0
C307 C 0.99545 0.90199 1.05704 0.0
C308 C 0.99159 0.92817 1.03731 0.0
C309 C 0.9948 0.9611 1.08491 0.0
C310 C 0.9986 0.93498 1.10469 0.0
C311 C 1.00586 -0.01506 1.03041 0.0
H312 H 0.19223 0.00789 0.83153 0.0
H313 H 0.21629 0.00429 0.88801 0.0
H314 H 0.30845 0.92248 0.86848 0.0
H315 H 0.28749 0.92719 0.81024 0.0
H316 H 0.99792 0.87938 1.04577 0.0
H317 H 0.99266 0.92494 1.01119 0.0
H318 H 0.99885 -0.01628 1.09591 0.0
H319 H 1.00474 0.93836 0.13061 0.0
Dy320 Dy 0.33729 0.47421 0.73812 0.0
Dy321 Dy 0.44112 0.48826 0.70064 0.0
C322 C 0.38075 0.54159 0.73542 0.0
O323 O 0.30753 0.46764 0.68529 0.0
O324 O 0.37604 0.49186 0.6602 0.0
O325 O 0.25288 0.47889 0.74219 0.0
O326 O 0.29754 0.46017 0.78248 0.0
O327 O 0.43349 0.43737 0.69376 0.0
O328 O 0.3635 0.42609 0.72728 0.0
O329 O 0.47754 0.477 0.75072 0.0
O330 O 0.40069 0.47919 0.77961 0.0
O331 O 0.51896 0.47954 0.68153 0.0
O332 O 0.4802 0.52338 0.67215 0.0
C333 C 0.3278 0.47972 0.65827 0.0
O334 O 0.33884 0.52528 0.72931 0.0
O335 O 0.42672 0.52841 0.73321 0.0
C336 C 0.23792 0.4999 0.79432 0.0
C337 C 0.23781 0.55127 0.8364 0.0
C338 C 0.23645 0.55568 0.80254 0.0
C339 C 0.23756 0.53022 0.78173 0.0
C340 C 0.23446 0.49556 0.82802 0.0
C341 C 0.23409 0.52096 0.84891 0.0
C342 C 0.25409 0.47385 0.7735 0.0
C343 C 0.40201 0.41738 0.70795 0.0
C344 C 0.45331 0.47714 0.77941 0.0
C345 C 0.51475 0.49775 0.62788 0.0
C346 C 0.4815 0.49404 0.56276 0.0
C347 C 0.46698 0.47113 0.58532 0.0
C348 C 0.48379 0.47284 0.61737 0.0
C349 C 0.53229 0.51974 0.60528 0.0
C350 C 0.51624 0.51769 0.57271 0.0
C351 C 0.51654 0.50398 0.66281 0.0
H352 H 0.23908 0.5787 0.7922 0.0
H353 H 0.24218 0.53444 0.75588 0.0
H354 H 0.23742 0.47255 0.83829 0.0
H355 H 0.23653 0.51658 0.87489 0.0
H356 H 0.43945 0.45296 0.57911 0.0
H357 H 0.46892 0.45586 0.63449 0.0
H358 H 0.55579 0.53929 0.61312 0.0
H359 H 0.52929 0.53529 0.55573 0.0
Dy360 Dy 1.04225 0.73672 0.73965 0.0
Dy361 Dy 0.93692 0.72514 0.70153 0.0
C362 C 0.99596 0.66983 0.73498 0.0
O363 O 1.06845 0.74375 0.68593 0.0
O364 O 1.00078 0.71885 0.66104 0.0
O365 O 0.12731 0.7391 0.73732 0.0
O366 O 0.08745 0.74731 0.78293 0.0
O367 O 0.95254 0.7753 0.69338 0.0
O368 O 1.005 0.78319 0.73786 0.0
O369 O 0.90395 0.73537 0.75301 0.0
O370 O 0.98051 0.72798 0.78156 0.0
O371 O 0.86042 0.73753 0.68237 0.0
O372 O 0.89184 0.6914 0.67487 0.0
C373 C 1.04889 0.73101 0.65907 0.0
O374 O 1.03939 0.68576 0.73245 0.0
O375 O 0.95045 0.6833 0.7314 0.0
C376 C 0.16369 0.71698 0.7848 0.0
C377 C 0.18497 0.66488 0.82341 0.0
C378 C 0.18188 0.66192 0.78931 0.0
C379 C 0.17073 0.68784 0.77008 0.0
C380 C 0.17556 0.72059 0.8178 0.0
C381 C 0.18619 0.6948 0.83697 0.0
C382 C 0.13225 0.74118 0.7688 0.0
C383 C 0.97421 0.79377 0.7148 0.0
C384 C 0.92799 0.73171 0.78163 0.0
C385 C 0.86056 0.71663 0.62957 0.0
C386 C 0.89856 0.71451 0.56533 0.0
C387 C 0.91154 0.73935 0.58589 0.0
C388 C 0.89244 0.74051 0.61748 0.0
C389 C 0.84414 0.69292 0.60867 0.0
C390 C 0.86263 0.69201 0.57657 0.0
C391 C 0.85855 0.71231 0.66482 0.0
H392 H 0.18174 0.63926 0.77804 0.0
H393 H 0.16226 0.68444 0.74442 0.0
H394 H 0.16984 0.74276 0.82953 0.0
H395 H 0.18754 0.69815 0.8631 0.0
H396 H 0.93976 0.75684 0.57877 0.0
H397 H 0.90662 0.75877 0.63328 0.0
H398 H 0.82001 0.67411 0.61776 0.0
H399 H 0.85039 0.67308 0.56108 0.0
Dy400 Dy 0.3419 0.74059 0.76358 0.0
Dy401 Dy 0.44559 0.72389 0.8012 0.0
C402 C 0.37762 0.67188 0.76733 0.0
O403 O 0.31393 0.74244 0.81741 0.0
O404 O 0.38244 0.71783 0.84184 0.0
O405 O 0.28767 0.74063 0.72265 0.0
O406 O 0.2707 0.76774 0.76568 0.0
O407 O 0.43444 0.77436 0.8114 0.0
O408 O 0.39214 0.78301 0.76368 0.0
O409 O 0.48034 0.7351 0.75039 0.0
O410 O 0.40305 0.73295 0.7214 0.0
O411 O 0.52264 0.73193 0.82211 0.0
O412 O 0.48688 0.68648 0.82484 0.0
C413 C 0.33436 0.72977 0.84405 0.0
O414 O 0.33546 0.68919 0.76991 0.0
O415 O 0.42423 0.6845 0.76932 0.0
C416 C 0.25835 0.79179 0.71485 0.0
C417 C 0.29465 0.83529 0.6695 0.0
C418 C 0.2601 0.81155 0.65964 0.0
C419 C 0.24267 0.78966 0.68223 0.0
C420 C 0.28386 0.8189 0.72559 0.0
C421 C 0.3016 0.84069 0.70298 0.0
C422 C 0.26033 0.76347 0.7349 0.0
C423 C 0.4187 0.7935 0.78867 0.0
C424 C 0.45585 0.7342 0.72167 0.0
C425 C 0.51571 0.70737 0.87305 0.0
C426 C 0.46919 0.70105 0.93507 0.0
C427 C 0.45855 0.72699 0.91536 0.0
C428 C 0.48244 0.73043 0.88528 0.0
C429 C 0.52927 0.68225 0.89295 0.0
C430 C 0.50696 0.67941 0.92408 0.0
C431 C 0.52096 0.70548 0.83762 0.0
H432 H 0.25356 0.80681 0.634 0.0
H433 H 0.22293 0.76912 0.67352 0.0
H434 H 0.29582 0.82157 0.75081 0.0
H435 H 0.32745 0.85904 0.71123 0.0
H436 H 0.429 0.74394 0.92164 0.0
H437 H 0.47043 0.74981 0.87022 0.0
H438 H 0.55445 0.664 0.88374 0.0
H439 H 0.51801 0.65968 0.93879 0.0
Dy440 Dy 1.04547 0.47539 0.76398 0.0
Dy441 Dy 0.94191 0.4862 0.80311 0.0
C442 C 0.99551 0.54082 0.76905 0.0
O443 O 0.07613 0.46646 0.81617 0.0
O444 O 1.00953 0.49165 0.84189 0.0
O445 O 0.12992 0.48059 0.76083 0.0
O446 O 0.08554 0.4683 0.71788 0.0
O447 O 0.95276 0.43541 0.80746 0.0
O448 O 1.02161 0.42638 0.77218 0.0
O449 O 0.90445 0.47694 0.7528 0.0
O450 O 0.98085 0.4788 0.72321 0.0
O451 O 0.86719 0.47451 0.82503 0.0
O452 O 0.90053 0.52025 0.83171 0.0
C453 C 1.05744 0.47895 0.84336 0.0
O454 O 1.03838 0.52562 0.77585 0.0
O455 O 0.9508 0.52642 0.77043 0.0
C456 C 0.14676 0.50861 0.7126 0.0
C457 C 0.15296 0.56457 0.67756 0.0
C458 C 0.14842 0.56496 0.71162 0.0
C459 C 0.14455 0.53722 0.72891 0.0
C460 C 0.15589 0.50827 0.67899 0.0
C461 C 0.15961 0.53595 0.66161 0.0
C462 C 0.12918 0.48009 0.72909 0.0
C463 C 0.98413 0.41648 0.79171 0.0
C464 C 0.92821 0.47716 0.7239 0.0
C465 C 0.87426 0.49443 0.87792 0.0
C466 C 0.91941 0.49631 0.94042 0.0
C467 C 0.93326 0.47289 0.91829 0.0
C468 C 0.91027 0.47166 0.88771 0.0
C469 C 0.85735 0.51669 0.90035 0.0
C470 C 0.87915 0.51731 0.93169 0.0
C471 C 0.86795 0.49949 0.84295 0.0
H472 H 0.14334 0.58663 0.72446 0.0
H473 H 0.13662 0.53828 0.75482 0.0
H474 H 0.15492 0.48667 0.66578 0.0
H475 H 0.16181 0.53469 0.63524 0.0
H476 H 0.96459 0.45662 0.92337 0.0
H477 H 0.92474 0.45454 0.87062 0.0
H478 H 0.8299 0.5346 0.89304 0.0
H479 H 0.86596 0.535 0.94846 0.0
Dy480 Dy 0.69317 0.46658 0.55156 0.0
Dy481 Dy 0.79532 0.49188 0.51761 0.0
C482 C 0.7178 0.53853 0.55262 0.0
O483 O 0.66789 0.46482 0.49735 0.0
O484 O 0.73159 0.49643 0.47598 0.0
O485 O 0.61175 0.47006 0.56677 0.0
O486 O 0.65509 0.42798 0.57545 0.0
O487 O 0.78656 0.44394 0.49785 0.0
O488 O 0.74762 0.4269 0.54406 0.0
O489 O 0.82466 0.47689 0.56859 0.0
O490 O 0.74707 0.47779 0.59612 0.0
O491 O 0.87962 0.48861 0.51469 0.0
O492 O 0.83884 0.52566 0.48953 0.0
C493 C 0.68559 0.48142 0.47228 0.0
O494 O 0.68075 0.51767 0.54992 0.0
O495 O 0.76697 0.53133 0.5474 0.0
C496 C 0.61127 0.44921 0.61929 0.0
C497 C 0.63529 0.45177 0.68605 0.0
C498 C 0.64849 0.47641 0.66525 0.0
C499 C 0.63628 0.47523 0.63246 0.0
C500 C 0.59489 0.42524 0.63994 0.0
C501 C 0.6064 0.42665 0.67333 0.0
C502 C 0.61504 0.44485 0.58409 0.0
C503 C 0.77206 0.42113 0.51675 0.0
C504 C 0.79954 0.47711 0.59693 0.0
C505 C 0.91537 0.50585 0.46523 0.0
C506 C 0.9215 0.49217 0.40028 0.0
C507 C 0.93292 0.4687 0.42301 0.0
C508 C 0.92729 0.47539 0.45595 0.0
C509 C 0.92434 0.52995 0.44298 0.0
C510 C 0.93132 0.52278 0.41011 0.0
C511 C 0.88392 0.51173 0.49443 0.0
H512 H 0.67167 0.49589 0.67351 0.0
H513 H 0.64992 0.49393 0.61699 0.0
H514 H 0.57609 0.40481 0.63004 0.0
H515 H 0.5946 0.40756 0.68881 0.0
H516 H 0.93303 0.44457 0.41604 0.0
H517 H 0.92489 0.45637 0.47312 0.0
H518 H 0.91901 0.55386 0.45013 0.0
H519 H 0.92948 0.54142 0.39246 0.0
Dy520 Dy 0.18791 0.24135 0.54766 0.0
Dy521 Dy 0.08462 0.22321 0.5088 0.0
C522 C 0.1629 0.17222 0.53506 0.0
O523 O 0.22192 0.23245 0.49591 0.0
O524 O 0.14511 0.23222 0.46633 0.0
O525 O 0.26718 0.23186 0.56394 0.0
O526 O 0.22994 0.27545 0.57593 0.0
O527 O 0.07289 0.27415 0.51249 0.0
O528 O 0.15873 0.28511 0.52539 0.0
O529 O 1.05528 0.22478 0.56273 0.0
O530 O 0.128 0.24144 0.59019 0.0
O531 O 1.03015 0.21858 0.46817 0.0
O532 O 1.01511 0.19519 0.51392 0.0
C533 C 0.19801 0.23233 0.46695 0.0
O534 O 0.1742 0.19142 0.55851 0.0
O535 O 0.13829 0.18235 0.50922 0.0
C536 C 0.26898 0.24878 0.61831 0.0
C537 C 0.24207 0.24377 0.68462 0.0
C538 C 0.22672 0.22084 0.66231 0.0
C539 C 0.24029 0.22323 0.62967 0.0
C540 C 0.2877 0.2707 0.64061 0.0
C541 C 0.27474 0.26806 0.67369 0.0
C542 C 0.26693 0.25577 0.58342 0.0
C543 C 0.11089 0.29403 0.51768 0.0
C544 C 0.07773 0.23305 0.59075 0.0
C545 C 0.99784 0.16731 0.46607 0.0
C546 C 1.02477 0.11817 0.42504 0.0
C547 C 0.99152 0.14203 0.41367 0.0
C548 C 0.9788 0.16674 0.43406 0.0
C549 C 1.02087 0.14034 0.47917 0.0
C550 C 1.03326 0.11555 0.4588 0.0
C551 C 1.0029 0.19714 0.48314 0.0
H552 H 0.20084 0.20209 0.66933 0.0
H553 H 0.22474 0.20618 0.61293 0.0
H554 H 0.30946 0.29073 0.6322 0.0
H555 H 0.28839 0.28573 0.69036 0.0
H556 H 0.98281 0.1445 0.38791 0.0
H557 H 0.95962 0.18687 0.42376 0.0
H558 H 1.03471 0.13963 0.50417 0.0
H559 H 1.05743 0.09698 0.46843 0.0
Dy560 Dy 0.69501 0.24271 0.45065 0.0
Dy561 Dy 0.79647 0.2224 0.48945 0.0
C562 C 0.72029 0.16992 0.46206 0.0
O563 O 0.66512 0.24529 0.50392 0.0
O564 O 0.73221 0.21972 0.52995 0.0
O565 O 0.61636 0.23552 0.43184 0.0
O566 O 0.65329 0.28014 0.42686 0.0
O567 O 0.77862 0.27088 0.50387 0.0
O568 O 0.74707 0.2842 0.45475 0.0
O569 O 0.82765 0.22938 0.43656 0.0
O570 O 0.75106 0.23076 0.40759 0.0
O571 O 0.88002 0.23057 0.4915 0.0
O572 O 0.8435 0.20062 0.52726 0.0
C573 C 0.68395 0.23206 0.53085 0.0
O574 O 0.6854 0.19149 0.45557 0.0
O575 O 0.76838 0.17661 0.47159 0.0
C576 C 0.61783 0.25843 0.38023 0.0
C577 C 0.64878 0.25774 0.31437 0.0
C578 C 0.65857 0.23222 0.33479 0.0
C579 C 0.64298 0.23248 0.36703 0.0
C580 C 0.60491 0.28337 0.35991 0.0
C581 C 0.61974 0.28289 0.32698 0.0
C582 C 0.61737 0.26149 0.41571 0.0
C583 C 0.76835 0.29219 0.48237 0.0
C584 C 0.80351 0.22973 0.40776 0.0
C585 C 0.90491 0.2386 0.54546 0.0
C586 C 0.92403 0.28974 0.58597 0.0
C587 C 0.95383 0.28586 0.55757 0.0
C588 C 0.94463 0.26019 0.53755 0.0
C589 C 0.87746 0.24185 0.57498 0.0
C590 C 0.88707 0.26714 0.59503 0.0
C591 C 0.88462 0.21758 0.52003 0.0
H592 H 0.68161 0.21256 0.327 0.0
H593 H 0.6542 0.213 0.38219 0.0
H594 H 0.58592 0.30374 0.36982 0.0
H595 H 0.60993 0.30262 0.3119 0.0
H596 H 0.98208 0.30328 0.55013 0.0
H597 H 0.96577 0.25846 0.51466 0.0
H598 H 0.84637 0.22594 0.58178 0.0
H599 H 0.86344 0.27 0.61687 0.0
Dy600 Dy 0.18456 0.46785 0.452 0.0
Dy601 Dy 0.08572 0.49412 0.48823 0.0
C602 C 0.1698 0.53964 0.45906 0.0
O603 O 0.22179 0.47881 0.50235 0.0
O604 O 0.14538 0.4858 0.53127 0.0
O605 O 0.26465 0.46972 0.43453 0.0
O606 O 0.21733 0.42875 0.42632 0.0
O607 O 1.06948 0.4432 0.48472 0.0
O608 O 0.15675 0.43225 0.48695 0.0
O609 O 1.05854 0.49534 0.43386 0.0
O610 O 0.11932 0.46278 0.41219 0.0
O611 O 1.03039 0.49865 0.52843 0.0
O612 O 1.0229 0.52718 0.48529 0.0
C613 C 0.19793 0.48246 0.53104 0.0
O614 O 0.18241 0.518 0.43825 0.0
O615 O 0.14256 0.53303 0.48507 0.0
C616 C 0.26099 0.44927 0.38193 0.0
C617 C 0.24289 0.45345 0.31453 0.0
C618 C 0.22348 0.4762 0.33576 0.0
C619 C 0.23264 0.47419 0.36892 0.0
C620 C 0.28238 0.42694 0.36104 0.0
C621 C 0.27375 0.42916 0.32734 0.0
C622 C 0.25843 0.44466 0.41716 0.0
C623 C 0.10776 0.42358 0.4903 0.0
C624 C 0.07483 0.47867 0.40857 0.0
C625 C 1.00854 0.55142 0.53575 0.0
C626 C 1.03669 0.59733 0.58095 0.0
C627 C 1.00266 0.57294 0.59005 0.0
C628 C 0.98896 0.55008 0.56761 0.0
C629 C 1.03504 0.57833 0.52531 0.0
C630 C 1.04854 0.60128 0.54773 0.0
C631 C 1.00872 0.52323 0.51553 0.0
H632 H 0.19833 0.49475 0.3272 0.0
H633 H 0.2148 0.49135 0.38463 0.0
H634 H 0.30375 0.40733 0.37083 0.0
H635 H 0.28974 0.41146 0.31152 0.0
H636 H 0.99217 0.56909 0.61535 0.0
H637 H 0.9675 0.5299 0.57599 0.0
H638 H 1.04962 0.58047 0.50056 0.0
H639 H 0.07364 0.62012 0.53981 0.0
Dy640 Dy 0.83024 0.97104 0.74729 0.0
Dy641 Dy 0.93256 -0.01001 0.70792 0.0
C642 C 0.8564 0.04124 0.73875 0.0
O643 O 0.79896 0.97302 0.69386 0.0
O644 O 0.871 -0.00934 0.66624 0.0
O645 O 0.77785 0.96572 0.78888 0.0
O646 O 0.76244 0.94145 0.74369 0.0
O647 O 0.91887 0.94051 0.69581 0.0
O648 O 0.88552 0.93102 0.74567 0.0
O649 O 0.96738 -0.02014 0.75925 0.0
O650 O 0.89088 -0.0185 0.78903 0.0
O651 O 1.01184 -0.01749 0.6904 0.0
O652 O 0.97159 0.02581 0.68046 0.0
C653 C 0.82084 -0.01807 0.66588 0.0
O654 O 0.81718 0.02178 0.74176 0.0
O655 O 0.90474 0.0316 0.73428 0.0
C656 C 0.75132 0.91325 0.79218 0.0
C657 C 0.78046 0.86304 0.83194 0.0
C658 C 0.74866 0.88713 0.84437 0.0
C659 C 0.73453 0.9121 0.82463 0.0
C660 C 0.77522 0.88686 0.77841 0.0
C661 C 0.78917 0.86179 0.79811 0.0
C662 C 0.75211 0.94316 0.77476 0.0
C663 C 0.90809 0.92107 0.71912 0.0
C664 C 0.9437 -0.01916 0.78828 0.0
C665 C 1.01168 0.00184 0.63682 0.0
C666 C 0.9909 -0.00273 0.5696 0.0
C667 C 0.97417 0.97401 0.59121 0.0
C668 C 0.98464 0.97621 0.6243 0.0
C669 C 1.03015 0.02474 0.61549 0.0
C670 C 1.02022 0.02235 0.58198 0.0
C671 C 1.00966 0.00723 0.67199 0.0
H672 H 0.74045 0.88898 0.87022 0.0
H673 H 0.71513 0.93181 0.83557 0.0
H674 H 0.78762 0.88664 0.75311 0.0
H675 H 0.81235 0.84326 0.7876 0.0
H676 H 0.95016 0.95483 0.58306 0.0
H677 H 0.96872 0.95862 0.64034 0.0
H678 H 1.05029 0.04495 0.62486 0.0
H679 H 1.03445 0.04044 0.56597 0.0
Dy680 Dy 0.54532 0.2459 0.73365 0.0
Dy681 Dy 0.44627 0.2161 0.70152 0.0
C682 C 0.53139 0.17384 0.73775 0.0
O683 O 0.57663 0.22804 0.68458 0.0
O684 O 0.49943 0.23022 0.65716 0.0
O685 O 0.62985 0.2502 0.73406 0.0
O686 O 0.58203 0.28309 0.7604 0.0
O687 O 0.42481 0.26569 0.70929 0.0
O688 O 0.50818 0.28215 0.70258 0.0
O689 O 0.42136 0.21395 0.75569 0.0
O690 O 0.48392 0.2465 0.77684 0.0
O691 O 0.36516 0.2175 0.68553 0.0
O692 O 0.41132 0.17636 0.67788 0.0
C693 C 0.55193 0.22909 0.65623 0.0
O694 O 0.5466 0.19797 0.75461 0.0
O695 O 0.50146 0.17712 0.71201 0.0
C696 C 0.66054 0.26682 0.785 0.0
C697 C 0.6438 0.24285 0.84604 0.0
C698 C 0.66685 0.22405 0.82217 0.0
C699 C 0.67644 0.23629 0.7915 0.0
C700 C 0.65399 0.28729 0.81117 0.0
C701 C 0.64534 0.27512 0.84216 0.0
C702 C 0.62966 0.27252 0.75538 0.0
C703 C 0.45786 0.28808 0.70336 0.0
C704 C 0.43888 0.23058 0.78076 0.0
C705 C 0.36335 0.19489 0.63407 0.0
C706 C 0.37137 0.19798 0.56597 0.0
C707 C 0.39187 0.2217 0.58558 0.0
C708 C 0.38753 0.22027 0.61908 0.0
C709 C 0.34163 0.17125 0.61491 0.0
C710 C 0.34539 0.17285 0.58081 0.0
C711 C 0.36958 0.19179 0.66928 0.0
H712 H 0.66783 0.19914 0.8251 0.0
H713 H 0.6856 0.22036 0.77191 0.0
H714 H 0.64456 0.31138 0.80677 0.0
H715 H 0.62971 0.29035 0.86078 0.0
H716 H 0.41347 0.24096 0.57522 0.0
H717 H 0.40499 0.23867 0.63337 0.0
H718 H 0.32354 0.15126 0.62626 0.0
H719 H 0.32925 0.15428 0.56619 0.0
Dy720 Dy 0.84168 0.24105 0.76594 0.0
Dy721 Dy 0.94489 0.21516 0.79782 0.0
C722 C 0.86194 0.17075 0.76247 0.0
O723 O 0.80839 0.22572 0.81579 0.0
O724 O 0.88759 0.22555 0.8416 0.0
O725 O 0.78884 0.24794 0.72496 0.0
O726 O 0.77755 0.27355 0.76966 0.0
O727 O 0.96664 0.26465 0.79451 0.0
O728 O 0.88198 0.28135 0.78901 0.0
O729 O 0.97877 0.22183 0.74652 0.0
O730 O 0.90226 0.23815 0.72211 0.0
O731 O 1.02529 0.21299 0.81492 0.0
O732 O 0.97208 0.17482 0.82398 0.0
C733 C 0.83509 0.2248 0.84358 0.0
O734 O 0.82421 0.19068 0.76744 0.0
O735 O 0.91141 0.1788 0.76545 0.0
C736 C 0.77301 0.30131 0.72036 0.0
C737 C 0.82328 0.34194 0.67712 0.0
C738 C 0.78145 0.32306 0.66624 0.0
C739 C 0.75681 0.3026 0.68775 0.0
C740 C 0.80683 0.32454 0.73236 0.0
C741 C 0.83173 0.34485 0.71082 0.0
C742 C 0.76708 0.27209 0.73859 0.0
C743 C 0.93209 0.28692 0.79357 0.0
C744 C 0.95359 0.23079 0.71978 0.0
C745 C 1.02067 0.19284 0.86759 0.0
C746 C 1.00458 0.19719 0.93511 0.0
C747 C 0.98798 0.22103 0.91419 0.0
C748 C 0.99642 0.21899 0.88097 0.0
C749 C 1.03964 0.16947 0.88815 0.0
C750 C 1.03208 0.17177 0.92192 0.0
C751 C 1.01589 0.18841 0.83246 0.0
H752 H 0.77338 0.32042 0.64042 0.0
H753 H 0.73025 0.28526 0.67806 0.0
H754 H 0.81917 0.3247 0.75766 0.0
H755 H 0.86302 0.35955 0.71996 0.0
H756 H 0.96564 0.24063 0.92303 0.0
H757 H 0.9813 0.23728 0.86548 0.0
H758 H 1.058 0.14899 0.87806 0.0
H759 H 1.04607 0.15324 0.93748 0.0
Dy760 Dy 0.55778 0.97296 0.7607 0.0
Dy761 Dy 0.4559 -0.00778 0.80013 0.0
C762 C 0.53527 0.04482 0.76937 0.0
O763 O 0.5892 -0.02122 0.81391 0.0
O764 O 0.51437 -0.01159 0.84303 0.0
O765 O 0.61298 0.96622 0.72085 0.0
O766 O 0.62382 0.94222 0.76671 0.0
O767 O 0.46912 0.94214 0.81172 0.0
O768 O 0.5014 0.93328 0.76158 0.0
O769 O 0.42219 -0.01532 0.74796 0.0
O770 O 0.49847 -0.01854 0.7181 0.0
O771 O 0.37604 -0.01677 0.81593 0.0
O772 O 0.41373 0.02674 0.82765 0.0
C773 C 0.56594 -0.01652 0.84262 0.0
O774 O 0.56843 0.02406 0.75818 0.0
O775 O 0.49131 0.03726 0.78431 0.0
C776 C 0.63689 0.91342 0.7188 0.0
C777 C 0.59572 0.86819 0.67744 0.0
C778 C 0.63357 0.88931 0.66566 0.0
C779 C 0.65349 0.91217 0.68628 0.0
C780 C 0.60962 0.88789 0.73199 0.0
C781 C 0.58991 0.86497 0.71136 0.0
C782 C 0.63662 0.94343 0.73595 0.0
C783 C 0.47935 0.92286 0.78812 0.0
C784 C 0.44586 -0.01687 0.71898 0.0
C785 C 0.37257 0.00119 0.86991 0.0
C786 C 0.39334 -0.00411 0.93705 0.0
C787 C 0.40968 0.97272 0.91527 0.0
C788 C 0.3992 0.97528 0.88222 0.0
C789 C 0.3539 0.0238 0.89146 0.0
C790 C 0.36395 0.02109 0.92492 0.0
C791 C 0.37611 0.00746 0.83495 0.0
H792 H 0.6405 0.8919 0.63972 0.0
H793 H 0.67604 0.93096 0.67586 0.0
H794 H 0.59769 0.88751 0.75737 0.0
H795 H 0.56234 0.84826 0.72124 0.0
H796 H 0.43367 0.95343 0.9232 0.0
H797 H 0.4151 0.95784 0.86605 0.0
H798 H 0.33399 0.04419 0.88227 0.0
H799 H 0.34988 0.03909 0.94106 0.0
Dy800 Dy 0.20392 0.97705 0.54986 0.0
Dy801 Dy 0.30782 -0.00842 0.51126 0.0
C802 C 0.23369 0.04513 0.53659 0.0
O803 O 0.17078 -0.01316 0.49808 0.0
O804 O 0.24768 -0.01749 0.46906 0.0
O805 O 0.12548 -0.0122 0.5668 0.0
O806 O 0.16033 0.9429 0.57695 0.0
O807 O 0.31255 0.93992 0.51703 0.0
O808 O 0.22351 0.93579 0.52059 0.0
O809 O 0.33594 -0.00646 0.56514 0.0
O810 O 0.26596 0.97197 0.59127 0.0
O811 O 0.36066 -0.0054 0.46961 0.0
O812 O 0.38118 0.01628 0.5153 0.0
C813 C 0.19501 -0.01566 0.46934 0.0
O814 O 0.22062 0.02662 0.56034 0.0
O815 O 0.25707 0.0339 0.5108 0.0
C816 C 0.12218 0.96829 0.62018 0.0
C817 C 0.14769 0.9703 0.68674 0.0
C818 C 0.16348 -0.00576 0.66572 0.0
C819 C 0.15058 -0.00667 0.63291 0.0
C820 C 0.10369 0.94514 0.64116 0.0
C821 C 0.11591 0.94629 0.67439 0.0
C822 C 0.12431 0.96298 0.58509 0.0
C823 C 0.26965 0.92292 0.51688 0.0
C824 C 0.31494 -0.01722 0.59256 0.0
C825 C 0.39657 0.04505 0.46764 0.0
C826 C 0.36642 0.09434 0.42764 0.0
C827 C 0.39951 0.07088 0.41534 0.0
C828 C 0.41363 0.04601 0.43523 0.0
C829 C 0.37485 0.072 0.48155 0.0
C830 C 0.36101 0.09696 0.46165 0.0
C831 C 0.39074 0.01489 0.48417 0.0
H832 H 0.18898 0.01273 0.67391 0.0
H833 H 0.16642 0.01114 0.61709 0.0
H834 H 0.08237 0.92542 0.63159 0.0
H835 H 0.10212 0.92783 0.69008 0.0
H836 H 0.40625 0.06857 0.38934 0.0
H837 H 0.4319 0.02601 0.4243 0.0
H838 H 0.36265 0.07248 0.50688 0.0
H839 H 0.33727 0.11534 0.47199 0.0
Dy840 Dy 0.69375 0.74 0.54879 0.0
Dy841 Dy 0.58984 0.71621 0.51563 0.0
C842 C 0.66634 0.66775 0.55223 0.0
O843 O 0.7287 0.73006 0.49813 0.0
O844 O 0.65161 0.7174 0.47197 0.0
O845 O 0.77318 0.74002 0.56768 0.0
O846 O 0.72467 0.78114 0.57157 0.0
O847 O 0.58359 0.76809 0.51714 0.0
O848 O 0.67086 0.7739 0.5111 0.0
O849 O 0.56211 0.71533 0.56881 0.0
O850 O 0.63042 0.74239 0.59059 0.0
O851 O 0.50702 0.72258 0.50626 0.0
O852 O 0.54751 0.68294 0.48661 0.0
C853 C 0.70402 0.72244 0.47068 0.0
O854 O 0.70244 0.68914 0.55616 0.0
O855 O 0.61992 0.67391 0.53993 0.0
C856 C 0.76501 0.76396 0.61838 0.0
C857 C 0.74009 0.7636 0.68503 0.0
C858 C 0.72333 0.73953 0.66454 0.0
C859 C 0.73627 0.73949 0.6319 0.0
C860 C 0.78269 0.78809 0.63838 0.0
C861 C 0.77066 0.78778 0.67179 0.0
C862 C 0.76539 0.76618 0.58292 0.0
C863 C 0.62372 0.78545 0.50933 0.0
C864 C 0.58306 0.72942 0.59428 0.0
C865 C 0.48705 0.70746 0.45265 0.0
C866 C 0.5272 0.72271 0.39217 0.0
C867 C 0.50877 0.74628 0.41268 0.0
C868 C 0.48824 0.73865 0.44301 0.0
C869 C 0.49133 0.68439 0.42879 0.0
C870 C 0.51258 0.69196 0.39853 0.0
C871 C 0.50474 0.6997 0.48568 0.0
H872 H 0.69795 0.72114 0.67319 0.0
H873 H 0.72112 0.72096 0.61679 0.0
H874 H 0.80396 0.80748 0.62806 0.0
H875 H 0.78437 0.80659 0.687 0.0
H876 H 0.51675 0.77036 0.40724 0.0
H877 H 0.48223 0.75711 0.46046 0.0
H878 H 0.48844 0.66019 0.43549 0.0
H879 H 0.52472 0.6733 0.3826 0.0
Dy880 Dy 0.18716 0.74095 0.45232 0.0
Dy881 Dy 0.29289 0.72433 0.48805 0.0
C882 C 0.22192 0.66909 0.45896 0.0
O883 O 0.15232 0.73067 0.50296 0.0
O884 O 0.23068 0.73062 0.53063 0.0
O885 O 0.1078 0.7357 0.43425 0.0
O886 O 0.15076 0.7782 0.42545 0.0
O887 O 0.29649 0.77525 0.4803 0.0
O888 O 0.2087 0.78081 0.48422 0.0
O889 O 0.32148 0.7217 0.4346 0.0
O890 O 0.24803 0.74066 0.40958 0.0
O891 O 0.37787 0.72184 0.4886 0.0
O892 O 0.33402 0.71133 0.53225 0.0
C893 C 0.17773 0.7301 0.53126 0.0
O894 O 0.18893 0.68949 0.44667 0.0
O895 O 0.26326 0.67725 0.47619 0.0
C896 C 0.1091 0.75606 0.38131 0.0
C897 C 0.12874 0.75242 0.31402 0.0
C898 C 0.14709 0.72931 0.3353 0.0
C899 C 0.13741 0.73112 0.36842 0.0
C900 C 0.08839 0.77863 0.36032 0.0
C901 C 0.09793 0.77674 0.32669 0.0
C902 C 0.11139 0.76078 0.41654 0.0
C903 C 0.25589 0.79269 0.48603 0.0
C904 C 0.29783 0.73115 0.40749 0.0
C905 C 0.40675 0.74405 0.53779 0.0
C906 C 0.42141 0.79658 0.5768 0.0
C907 C 0.42098 0.79949 0.5427 0.0
C908 C 0.41346 0.77336 0.52327 0.0
C909 C 0.41463 0.74073 0.5713 0.0
C910 C 0.42218 0.76674 0.59067 0.0
C911 C 0.37962 0.71912 0.52015 0.0
H912 H 0.17164 0.7105 0.32682 0.0
H913 H 0.15463 0.71371 0.38421 0.0
H914 H 1.06706 0.79827 0.37002 0.0
H915 H 0.0826 0.79468 0.31085 0.0
H916 H 0.42081 0.82214 0.53136 0.0
H917 H 0.40774 0.77663 0.4973 0.0
H918 H 0.40874 0.7185 0.58293 0.0
H919 H 0.42151 0.76353 0.61686 0.0
Dy920 Dy 0.68928 0.96922 0.45756 0.0
Dy921 Dy 0.58332 -0.01386 0.49286 0.0
C922 C 0.6577 0.04102 0.46477 0.0
O923 O 0.72221 -0.02133 0.50899 0.0
O924 O 0.64337 -0.02003 0.53612 0.0
O925 O 0.76854 0.97537 0.4395 0.0
O926 O 0.7273 0.93212 0.43157 0.0
O927 O 0.58209 0.93474 0.48566 0.0
O928 O 0.66994 0.92985 0.48977 0.0
O929 O 0.55559 -0.00941 0.43963 0.0
O930 O 0.62647 0.96774 0.4155 0.0
O931 O 0.49872 -0.01826 0.49481 0.0
O932 O 0.53997 0.00466 0.53389 0.0
C933 C 0.69616 -0.02004 0.53708 0.0
O934 O 0.69045 0.02035 0.4531 0.0
O935 O 0.61424 0.03332 0.48035 0.0
C936 C 0.76859 0.95388 0.38714 0.0
C937 C 0.74947 0.95603 0.31977 0.0
C938 C 0.73209 -0.01998 0.34017 0.0
C939 C 0.74164 -0.02101 0.37338 0.0
C940 C 0.78757 0.9302 0.36704 0.0
C941 C 0.77822 0.9313 0.33342 0.0
C942 C 0.76602 0.94992 0.42242 0.0
C943 C 0.62338 0.91736 0.49017 0.0
C944 C 0.57749 -0.02118 0.41307 0.0
C945 C 0.47599 0.96749 0.54836 0.0
C946 C 0.46824 0.91658 0.59067 0.0
C947 C 0.45178 0.9137 0.55819 0.0
C948 C 0.45486 0.93918 0.53722 0.0
C949 C 0.48787 0.97077 0.58152 0.0
C950 C 0.48372 0.94566 0.60249 0.0
C951 C 0.49675 -0.00944 0.5251 0.0
H952 H 0.70833 -0.00109 0.33094 0.0
H953 H 0.72514 -0.00293 0.38855 0.0
H954 H 0.80753 0.91037 0.37747 0.0
H955 H 0.79264 0.91262 0.31829 0.0
H956 H 0.44013 0.89138 0.54859 0.0
H957 H 0.44507 0.93588 0.51173 0.0
H958 H 0.50436 -0.00787 0.59083 0.0
H959 H 0.4976 0.94836 0.62735 0.0
Dy960 Dy 0.84125 0.46115 0.23317 0.0
Dy961 Dy 0.94026 0.49066 0.20135 0.0
C962 C 0.85484 0.53361 0.23533 0.0
O963 O 0.81007 0.47746 0.18339 0.0
O964 O 0.8878 0.47698 0.15639 0.0
O965 O 0.75717 0.45538 0.23109 0.0
O966 O 0.80348 0.42634 0.26305 0.0
O967 O 0.96074 0.44091 0.21001 0.0
O968 O 0.87761 0.42459 0.20252 0.0
O969 O 0.96121 0.49585 0.25606 0.0
O970 O 0.9045 0.4591 0.27541 0.0
O971 O 1.02228 0.48805 0.18724 0.0
O972 O 0.97748 0.52928 0.17698 0.0
C973 C 0.83519 0.47701 0.15516 0.0
O974 O 0.83975 0.50971 0.25275 0.0
O975 O 0.88462 0.5298 0.20964 0.0
C976 C 0.72075 0.44226 0.28141 0.0
C977 C 0.72056 0.46211 0.34426 0.0
C978 C 0.70598 0.48322 0.31982 0.0
C979 C 0.70872 0.4734 0.2877 0.0
C980 C 0.71318 0.42034 0.30622 0.0
C981 C 0.70946 0.43073 0.33839 0.0
C982 C 0.7561 0.435 0.25445 0.0
C983 C 0.9278 0.41855 0.20367 0.0
C984 C 0.94647 0.47742 0.28042 0.0
C985 C 1.02672 0.50879 0.13484 0.0
C986 C 1.01507 0.50512 1.06696 0.0
C987 C 0.99726 0.48104 1.08715 0.0
C988 C 1.00329 0.48279 1.12057 0.0
C989 C 1.04684 0.53242 1.115 0.0
C990 C 1.04128 0.53053 1.08105 0.0
C991 C 1.01916 0.51317 0.16979 0.0
H992 H 0.7072 0.50791 0.32398 0.0
H993 H 0.71022 0.49076 0.26863 0.0
H994 H 0.71915 0.39593 0.3016 0.0
H995 H 0.71401 0.41393 0.35783 0.0
H996 H 0.9757 0.46149 1.07746 0.0
H997 H 0.98674 0.46445 0.13541 0.0
H998 H 1.06428 0.55287 1.12577 0.0
H999 H 1.05576 0.5493 1.06601 0.0
Dy1000 Dy 0.5227 0.74662 0.22786 0.0
Dy1001 Dy 0.42629 0.71286 0.19919 0.0
C1002 C 0.51465 0.67449 0.23981 0.0
O1003 O 0.56156 0.72402 0.18374 0.0
O1004 O 0.48513 0.72293 0.15568 0.0
O1005 O 0.58565 0.77781 0.2146 0.0
O1006 O 0.56444 0.77154 0.26525 0.0
O1007 O 0.397 0.76127 0.20658 0.0
O1008 O 0.47786 0.7783 0.19521 0.0
O1009 O 0.39549 0.71582 0.25169 0.0
O1010 O 0.46372 0.74459 0.27239 0.0
O1011 O 0.34716 0.71013 0.17987 0.0
O1012 O 0.39952 0.67096 0.17572 0.0
C1013 C 0.53782 0.72218 0.15521 0.0
O1014 O 0.54718 0.69812 0.23965 0.0
O1015 O 0.46615 0.67661 0.22897 0.0
C1016 C 0.65289 0.77807 0.25336 0.0
C1017 C 0.69871 0.7507 0.30572 0.0
C1018 C 0.70004 0.73469 0.2759 0.0
C1019 C 0.67236 0.74782 0.24988 0.0
C1020 C 0.67449 0.79714 0.27746 0.0
C1021 C 0.70083 0.78321 0.30348 0.0
C1022 C 0.59817 0.78346 0.2447 0.0
C1023 C 0.42804 0.78411 0.19905 0.0
C1024 C 0.41689 0.73066 0.27674 0.0
C1025 C 0.35556 0.6864 0.12912 0.0
C1026 C 0.3737 0.68824 1.06161 0.0
C1027 C 0.39057 0.71249 1.08183 0.0
C1028 C 0.38092 0.71177 1.11491 0.0
C1029 C 0.33788 0.66203 1.10939 0.0
C1030 C 0.34661 0.66303 1.07556 0.0
C1031 C 0.35708 0.68429 0.16465 0.0
H1032 H 0.70697 0.70997 0.2756 0.0
H1033 H 0.6587 0.73298 0.23033 0.0
H1034 H 0.66263 0.82113 0.27952 0.0
H1035 H 0.70888 0.79731 0.32469 0.0
H1036 H 0.41269 0.73193 1.07235 0.0
H1037 H 0.39494 0.73086 0.12963 0.0
H1038 H 0.31899 0.64201 1.12016 0.0
H1039 H 0.33309 0.64403 1.06052 0.0
Dy1040 Dy 0.85049 0.73452 0.26237 0.0
Dy1041 Dy 0.94619 0.71066 0.30238 0.0
C1042 C 0.86197 0.6621 0.2687 0.0
O1043 O 0.81316 0.72576 0.31409 0.0
O1044 O 0.8866 0.71674 0.34461 0.0
O1045 O 0.79484 0.74339 0.22334 0.0
O1046 O 0.80025 0.77444 0.26487 0.0
O1047 O 0.94036 0.76123 0.31445 0.0
O1048 O 0.91531 0.76941 0.26312 0.0
O1049 O 0.98301 0.71827 0.25072 0.0
O1050 O 0.90789 0.72303 0.22022 0.0
O1051 O 1.02649 0.71483 0.31927 0.0
O1052 O 0.98157 0.6736 0.33011 0.0
C1053 C 0.83484 0.72086 0.34335 0.0
O1054 O 0.83223 0.68443 0.25718 0.0
O1055 O 0.90574 0.66758 0.28488 0.0
C1056 C 0.79458 0.7971 0.21264 0.0
C1057 C 0.84426 0.83204 0.16394 0.0
C1058 C 0.8003 0.8135 0.15629 0.0
C1059 C 0.77578 0.79596 0.18054 0.0
C1060 C 0.83206 0.81976 0.22109 0.0
C1061 C 0.85671 0.8372 0.19683 0.0
C1062 C 0.78409 0.77095 0.23482 0.0
C1063 C 0.93511 0.78025 0.29002 0.0
C1064 C 0.96013 0.72052 0.22148 0.0
C1065 C 1.0235 0.69709 0.3732 0.0
C1066 C 0.99876 0.70348 0.43959 0.0
C1067 C 0.98352 0.72618 0.41697 0.0
C1068 C 0.99609 0.72312 0.38437 0.0
C1069 C 1.04079 0.67477 0.39557 0.0
C1070 C 1.02875 0.67805 0.42874 0.0
C1071 C 1.02163 0.69073 0.33827 0.0
H1072 H 0.78955 0.80912 0.13112 0.0
H1073 H 0.74631 0.77906 0.17358 0.0
H1074 H 0.84647 0.82181 0.24588 0.0
H1075 H 0.88991 0.85169 0.20336 0.0
H1076 H 0.95916 0.74565 0.42388 0.0
H1077 H 0.98149 0.74042 0.36757 0.0
H1078 H 1.061 0.65417 0.38722 0.0
H1079 H 1.04126 0.66025 0.44563 0.0
Dy1080 Dy 0.54621 0.47537 0.26274 0.0
Dy1081 Dy 0.44512 0.49257 0.3017 0.0
C1082 C 0.52369 0.54656 0.27245 0.0
O1083 O 0.57934 0.48262 0.31562 0.0
O1084 O 0.50354 0.48773 0.34506 0.0
O1085 O 0.6024 0.46971 0.22323 0.0
O1086 O 0.60622 0.44061 0.26634 0.0
O1087 O 0.45994 0.44302 0.31358 0.0
O1088 O 0.48797 0.4365 0.26249 0.0
O1089 O 0.4122 0.48418 0.24929 0.0
O1090 O 0.48878 0.48548 0.21996 0.0
O1091 O 0.36454 0.4829 0.31553 0.0
O1092 O 0.40141 0.5261 0.32954 0.0
C1093 C 0.55577 0.48526 0.3446 0.0
O1094 O 0.55856 0.52643 0.26199 0.0
O1095 O 0.47888 0.53789 0.28571 0.0
C1096 C 0.61446 0.41588 0.21553 0.0
C1097 C 0.57304 0.37248 0.17136 0.0
C1098 C 0.60948 0.39505 0.16082 0.0
C1099 C 0.62986 0.41665 0.18276 0.0
C1100 C 0.58463 0.39051 0.22688 0.0
C1101 C 0.56417 0.36896 0.20495 0.0
C1102 C 0.62014 0.44388 0.23586 0.0
C1103 C 0.46851 0.42466 0.28909 0.0
C1104 C 0.43628 0.48477 0.22039 0.0
C1105 C 0.35767 0.4994 0.36979 0.0
C1106 C 0.38091 0.49475 0.43648 0.0
C1107 C 0.39663 0.47138 0.41479 0.0
C1108 C 0.38485 0.47361 0.38191 0.0
C1109 C 0.3383 0.52169 0.39144 0.0
C1110 C 0.3496 0.51928 0.42472 0.0
C1111 C 0.36331 0.50662 0.33523 0.0
H1112 H 0.61733 0.39855 0.13509 0.0
H1113 H 0.65332 0.43569 0.17351 0.0
H1114 H 0.57278 0.3888 0.25221 0.0
H1115 H 0.5369 0.35161 0.21385 0.0
H1116 H 0.42163 0.45245 0.42248 0.0
H1117 H 0.40092 0.45631 0.36563 0.0
H1118 H 0.31783 0.54194 0.38238 0.0
H1119 H 0.33594 0.53733 0.4409 0.0
Dy1120 Dy 0.20346 0.46918 1.04816 0.0
Dy1121 Dy 0.30652 0.48846 1.01083 0.0
C1122 C 0.22794 0.53879 1.03614 0.0
O1123 O 0.16836 0.48037 0.99746 0.0
O1124 O 0.24547 0.48031 0.9682 0.0
O1125 O 0.12433 0.47679 1.06557 0.0
O1126 O 0.16355 0.43307 1.07481 0.0
O1127 O 0.31697 0.43762 1.01736 0.0
O1128 O 0.22854 0.42962 1.01711 0.0
O1129 O 0.33081 0.49319 1.06525 0.0
O1130 O 0.26535 0.46588 1.08967 0.0
O1131 O 0.35985 0.49291 0.96963 0.0
O1132 O 0.37931 0.5136 1.01602 0.0
C1133 C 0.19246 0.48054 0.96862 0.0
O1134 O 0.21519 0.51931 1.05917 0.0
O1135 O 0.25348 0.5292 1.0105 0.0
C1136 C 0.125 0.45721 1.11883 0.0
C1137 C 0.15464 0.45839 0.18482 0.0
C1138 C 0.17094 0.48192 0.16343 0.0
C1139 C 0.15575 0.48152 0.131 0.0
C1140 C 0.10553 0.4347 0.14024 0.0
C1141 C 0.11967 0.43553 0.17324 0.0
C1142 C 0.12599 0.45189 1.08367 0.0
C1143 C 0.27663 0.41915 1.01391 0.0
C1144 C 0.31149 0.48014 1.09203 0.0
C1145 C 0.39529 0.54334 0.96925 0.0
C1146 C 0.36516 0.59226 0.92892 0.0
C1147 C 0.40115 0.56986 0.9175 0.0
C1148 C 0.41533 0.54511 0.93754 0.0
C1149 C 0.37034 0.5695 0.98272 0.0
C1150 C 0.35642 0.5943 0.96269 0.0
C1151 C 0.38956 0.51287 0.98496 0.0
H1152 H 0.19863 0.49959 0.17085 0.0
H1153 H 0.17196 0.49894 1.11487 0.0
H1154 H 0.08212 0.41562 0.13114 0.0
H1155 H 0.10508 0.41753 0.18925 0.0
H1156 H 0.4105 0.56809 0.89178 0.0
H1157 H 0.43609 0.52566 0.92702 0.0
H1158 H 0.35574 0.56929 1.00757 0.0
H1159 H 0.33044 0.61194 0.9724 0.0
Dy1160 Dy 0.71139 0.23932 1.05383 0.0
Dy1161 Dy 0.61163 0.20799 1.02428 0.0
C1162 C 0.70383 0.16843 1.05234 0.0
O1163 O 0.73833 0.23848 1.00026 0.0
O1164 O 0.66965 0.21015 0.9792 0.0
O1165 O 0.79173 0.23839 1.07145 0.0
O1166 O 0.74431 0.27943 1.07775 0.0
O1167 O 0.59858 0.25582 1.00471 0.0
O1168 O 0.67225 0.27784 1.028 0.0
O1169 O 0.57696 0.22899 1.07061 0.0
O1170 O 0.65392 0.23025 1.09818 0.0
O1171 O 0.53056 0.19458 1.0304 0.0
O1172 O 0.57917 0.17092 0.99518 0.0
C1173 C 0.71657 0.22411 0.97494 0.0
O1174 O 0.73571 0.19065 1.04431 0.0
O1175 O 0.65433 0.17506 1.0569 0.0
C1176 C 0.78583 0.26008 1.12337 0.0
C1177 C 0.75449 0.25844 0.18908 0.0
C1178 C 0.74393 0.23346 0.16816 0.0
C1179 C 0.75988 0.23416 0.13601 0.0
C1180 C 0.79958 0.28445 0.14415 0.0
C1181 C 0.78462 0.28345 0.17706 0.0
C1182 C 0.78499 0.26382 1.08801 0.0
C1183 C 0.62967 0.2796 1.01006 0.0
C1184 C 0.60128 0.23079 1.09892 0.0
C1185 C 0.49043 0.17834 0.98209 0.0
C1186 C 0.46851 0.19865 0.92049 0.0
C1187 C 0.45131 0.21664 0.94687 0.0
C1188 C 0.46637 0.20736 0.97795 0.0
C1189 C 0.48719 0.15654 0.9569 0.0
C1190 C 0.47415 0.16669 0.92563 0.0
C1191 C 0.53158 0.17469 1.00667 0.0
H1192 H 0.72008 0.21396 0.1755 0.0
H1193 H 0.74835 0.2151 1.1204 0.0
H1194 H 0.81904 0.30484 0.13462 0.0
H1195 H 0.79486 0.30277 0.19256 0.0
H1196 H 0.44199 0.24085 0.94339 0.0
H1197 H 0.4658 0.22432 0.99738 0.0
H1198 H 0.5033 0.13351 0.96002 0.0
H1199 H 0.48227 0.15131 0.90539 0.0
Dy1200 Dy 0.19609 0.2376 0.94944 0.0
Dy1201 Dy 0.29602 0.21908 0.98951 0.0
C1202 C 0.21713 0.16985 0.9627 0.0
O1203 O 0.16136 0.22973 1.00172 0.0
O1204 O 0.23756 0.22976 1.03175 0.0
O1205 O 0.11692 0.22837 0.93258 0.0
O1206 O 0.1548 0.27195 0.92107 0.0
O1207 O 0.30941 0.26984 0.99092 0.0
O1208 O 0.22871 0.28176 0.96871 0.0
O1209 O 0.33097 0.22724 0.93725 0.0
O1210 O 0.25648 0.23445 0.90712 0.0
O1211 O 0.35146 0.21177 1.02912 0.0
O1212 O 0.35476 0.18358 0.98527 0.0
C1213 C 0.18495 0.22997 1.0309 0.0
O1214 O 0.21059 0.18809 0.9379 0.0
O1215 O 0.23577 0.18156 0.98949 0.0
C1216 C 0.11584 0.24598 0.87832 0.0
C1217 C 0.14391 0.24233 0.8121 0.0
C1218 C 0.159 0.21897 0.83407 0.0
C1219 C 0.14476 0.22067 0.86666 0.0
C1220 C 0.09734 0.26828 0.85632 0.0
C1221 C 0.11085 0.26631 0.82329 0.0
C1222 C 0.11766 0.25249 0.91331 0.0
C1223 C 0.2738 0.29009 0.98181 0.0
C1224 C 0.30851 0.2313 0.90813 0.0
C1225 C 0.36422 0.15783 1.03546 0.0
C1226 C 0.32852 0.1132 1.08022 0.0
C1227 C 0.36761 0.13485 1.08923 0.0
C1228 C 0.38508 0.15708 1.06702 0.0
C1229 C 0.33167 0.13334 1.025 0.0
C1230 C 0.31431 0.11105 1.04718 0.0
C1231 C 0.369 0.18624 1.01576 0.0
H1232 H 0.18506 0.20039 0.82686 0.0
H1233 H 0.16007 0.20331 0.8832 0.0
H1234 H 0.07536 0.28813 0.86497 0.0
H1235 H 0.09732 0.28427 0.8069 0.0
H1236 H 0.37994 0.13731 1.1144 0.0
H1237 H 0.4109 0.17539 1.07542 0.0
H1238 H 0.31572 0.13285 1.00048 0.0
H1239 H 0.28516 0.09433 1.03929 0.0
Dy1240 Dy 0.69441 0.46152 0.94924 0.0
Dy1241 Dy 0.58835 0.47648 0.98702 0.0
C1242 C 0.65841 0.53265 0.95906 0.0
O1243 O 0.72965 0.47001 1.00004 0.0
O1244 O 0.65213 0.47244 1.02866 0.0
O1245 O 0.77307 0.46969 0.93087 0.0
O1246 O 0.73357 0.42625 0.92114 0.0
O1247 O 0.58664 0.4256 0.97712 0.0
O1248 O 0.67488 0.41983 0.97827 0.0
O1249 O 0.56042 0.48327 0.93404 0.0
O1250 O 0.63071 0.46168 0.90787 0.0
O1251 O 0.50321 0.47787 0.98758 0.0
O1252 O 0.54661 0.48697 1.03173 0.0
C1253 C 0.70504 0.47203 1.02851 0.0
O1254 O 0.69113 0.5128 0.94582 0.0
O1255 O 0.61712 0.52413 0.97621 0.0
C1256 C 0.77105 0.45101 0.87731 0.0
C1257 C 0.73759 0.45355 0.81206 0.0
C1258 C 0.72482 0.47741 0.83396 0.0
C1259 C 0.74178 0.4763 0.86599 0.0
C1260 C 0.78724 0.4281 0.8554 0.0
C1261 C 0.77123 0.42958 0.82276 0.0
C1262 C 0.77094 0.44516 0.91233 0.0
C1263 C 0.62789 0.40775 0.97906 0.0
C1264 C 0.58179 0.47298 0.90661 0.0
C1265 C 0.47248 0.45489 1.03614 0.0
C1266 C 0.4525 0.40231 1.07451 0.0
C1267 C 0.45537 0.39967 1.04043 0.0
C1268 C 0.4652 0.42583 1.02129 0.0
C1269 C 0.46277 0.45801 1.0695 0.0
C1270 C 0.45199 0.43206 1.08852 0.0
C1271 C 0.50101 0.47982 1.01918 0.0
H1272 H 0.69819 0.49596 0.82749 0.0
H1273 H 0.7278 0.49398 0.8826 0.0
H1274 H 0.80943 0.40824 0.86388 0.0
H1275 H 0.78351 0.41131 0.80642 0.0
H1276 H 0.45552 0.37708 1.02902 0.0
H1277 H 0.47228 0.42271 0.99544 0.0
H1278 H 0.46963 0.47994 1.08138 0.0
H1279 H 0.45058 0.43504 1.11475 0.0
C1280 C 0.44089 0.8383 0.18058 0.0
C1281 C 0.41042 0.81674 0.19794 0.0
H1282 H 0.45815 0.88572 0.17123 0.0
C1283 C 0.36914 0.82754 0.21777 0.0
H1284 H 0.47284 0.8307 0.16497 0.0
C1285 C 0.36087 0.85948 0.22173 0.0
C1286 C 0.39368 0.88107 0.20581 0.0
H1287 H 0.34538 0.81144 0.23171 0.0
H1288 H 0.3302 0.8672 0.2382 0.0
C1289 C 0.43256 0.86996 0.18434 0.0
C1290 C 0.99439 0.37668 0.21417 0.0
C1291 C 0.94549 0.38601 0.20137 0.0
H1292 H 1.04452 0.33866 0.2271 0.0
C1293 C 0.9111 0.36342 0.18896 0.0
H1294 H 1.02169 0.39356 0.22395 0.0
C1295 C 0.92424 0.3321 0.19052 0.0
C1296 C 0.97183 0.32253 0.20493 0.0
H1297 H 0.87326 0.36986 0.17873 0.0
H1298 H 0.89614 0.31536 0.18143 0.0
C1299 C 1.0073 0.34521 0.21613 0.0
C1300 C 0.44993 0.37503 0.31892 0.0
C1301 C 0.4514 0.39198 0.28966 0.0
H1302 H 0.43711 0.33071 0.34137 0.0
C1303 C 0.43769 0.37718 0.26034 0.0
H1304 H 0.46048 0.38588 0.34183 0.0
C1305 C 0.42295 0.34606 0.2602 0.0
C1306 C 0.42298 0.32879 0.28925 0.0
H1307 H 0.43834 0.3897 0.23742 0.0
H1308 H 0.41317 0.33526 0.23713 0.0
C1309 C 0.43667 0.34353 0.31864 0.0
C1310 C 0.96331 0.82842 0.26149 0.0
C1311 C 0.9531 0.81297 0.29103 0.0
H1312 H 0.98176 0.87106 0.2378 0.0
C1313 C 0.95677 0.82973 0.32036 0.0
H1314 H 0.96097 0.8163 0.2384 0.0
C1315 C 0.96866 0.86158 0.31988 0.0
C1316 C 0.97812 0.87696 0.29011 0.0
H1317 H 0.94894 0.81849 0.3435 0.0
H1318 H 0.9704 0.87413 0.34271 0.0
C1319 C 0.97569 0.85986 0.26108 0.0
C1320 C 0.70092 0.08237 1.06655 0.0
C1321 C 0.74309 0.07194 1.04713 0.0
H1322 H 0.65598 0.1209 1.08358 0.0
C1323 C 0.77582 0.09399 1.03203 0.0
H1324 H 0.675 0.06622 1.07884 0.0
C1325 C 0.76501 0.12569 1.03514 0.0
C1326 C 0.72108 0.13579 1.05318 0.0
H1327 H 0.80877 0.08679 1.01705 0.0
H1328 H 0.78944 0.14215 1.02216 0.0
C1329 C 0.68993 0.11383 1.06937 0.0
C1330 C 0.19417 0.61878 1.06732 0.0
C1331 C 0.18245 0.63413 1.03792 0.0
H1332 H 0.21676 0.57587 1.08995 0.0
C1333 C 0.18473 0.61767 1.00845 0.0
H1334 H 0.19258 0.63098 1.09037 0.0
C1335 C 0.19915 0.58665 1.00821 0.0
C1336 C 0.21089 0.57125 1.03744 0.0
H1337 H 0.1761 0.62888 0.98543 0.0
H1338 H 0.20068 0.5746 0.98506 0.0
C1339 C 0.20768 0.58735 1.06711 0.0
C1340 C 0.64332 0.61985 0.95605 0.0
C1341 C 0.69628 0.62938 0.95528 0.0
H1342 H 0.58966 0.58152 0.95854 0.0
C1343 C 0.73621 0.60695 0.95385 0.0
H1344 H 0.61183 0.63673 0.95736 0.0
C1345 C 0.72355 0.57553 0.95376 0.0
C1346 C 0.67075 0.56591 0.95606 0.0
H1347 H 0.77733 0.61372 0.95316 0.0
H1348 H 0.7553 0.55877 0.95313 0.0
C1349 C 0.63067 0.58833 0.95693 0.0
C1350 C 0.18106 0.12414 0.99179 0.0
C1351 C 0.19767 0.1378 0.96244 0.0
H1352 H 0.1527 0.0834 1.01557 0.0
C1353 C 0.19707 0.12028 0.93362 0.0
H1354 H 0.18099 0.13717 1.01437 0.0
C1355 C 0.18198 0.08913 0.93446 0.0
C1356 C 0.16566 0.0755 0.96394 0.0
H1357 H 0.20985 0.13036 0.91073 0.0
H1358 H 0.18325 0.07569 0.91218 0.0
C1359 C 0.16454 0.09343 0.99245 0.0
C1360 C 0.47385 0.3431 0.68777 0.0
C1361 C 0.43984 0.32053 0.70063 0.0
H1362 H 0.48832 0.3911 0.67954 0.0
C1363 C 0.39096 0.32982 0.71347 0.0
H1364 H 0.51167 0.33667 0.67752 0.0
C1365 C 0.3777 0.36126 0.71503 0.0
C1366 C 0.41279 0.38393 0.70337 0.0
H1367 H 0.36401 0.31295 0.72366 0.0
H1368 H 0.34059 0.36781 0.72611 0.0
C1369 C 0.46037 0.37437 0.68892 0.0
C1370 C 0.93775 0.87269 0.74625 0.0
C1371 C 0.92611 0.88875 0.71733 0.0
H1372 H 0.96335 0.83027 0.76786 0.0
C1373 C 0.9316 0.87361 0.68721 0.0
H1374 H 0.93397 0.88383 0.76981 0.0
C1375 C 0.94734 0.84257 0.68615 0.0
C1376 C 0.95948 0.8267 0.71513 0.0
H1377 H 0.92265 0.88553 0.6646 0.0
H1378 H 0.95031 0.83106 0.66275 0.0
C1379 C 0.95496 0.84212 0.74512 0.0
C1380 C 0.46472 0.87273 0.81844 0.0
C1381 C 0.46194 0.89018 0.7895 0.0
H1382 H 0.45437 0.82809 0.84086 0.0
C1383 C 0.44397 0.87582 0.7609 0.0
H1384 H 0.47859 0.88326 0.84082 0.0
C1385 C 0.42957 0.84466 0.76097 0.0
C1386 C 0.43338 0.8268 0.78958 0.0
H1387 H 0.44052 0.88885 0.73842 0.0
H1388 H 0.41606 0.83446 0.73835 0.0
C1389 C 0.45114 0.84117 0.81839 0.0
C1390 C 0.99835 0.32922 0.78527 0.0
C1391 C 0.94887 0.31941 0.79671 0.0
H1392 H 1.04842 0.36789 0.77429 0.0
C1393 C 0.91296 0.34146 0.80833 0.0
H1394 H 1.02644 0.31265 0.77578 0.0
C1395 C 0.92552 0.3728 0.80774 0.0
C1396 C 0.97402 0.38292 0.79499 0.0
H1397 H 0.87454 0.33455 0.81729 0.0
H1398 H 0.89621 0.38914 0.81625 0.0
C1399 C 1.0107 0.3608 0.78416 0.0
C1400 C 0.65133 0.58099 0.55801 0.0
C1401 C 0.70414 0.57132 0.55846 0.0
H1402 H 0.59792 0.61914 0.55612 0.0
C1403 C 0.74411 0.59373 0.56156 0.0
H1404 H 0.6196 0.56435 0.556 0.0
C1405 C 0.73171 0.62523 0.5618 0.0
C1406 C 0.67913 0.63492 0.55872 0.0
H1407 H 0.78525 0.58704 0.5624 0.0
H1408 H 0.76352 0.64191 0.56256 0.0
C1409 C 0.63897 0.61246 0.55805 0.0
C1410 C 0.21266 0.09457 0.56607 0.0
C1411 C 0.21628 0.07772 0.53684 0.0
H1412 H 0.19381 0.13812 0.58847 0.0
C1413 C 0.20214 0.09209 0.50741 0.0
H1414 H 0.2233 0.08394 0.5891 0.0
C1415 C 0.18472 0.12269 0.50707 0.0
C1416 C 0.18134 0.13975 0.53614 0.0
H1417 H 0.20338 0.07941 0.48466 0.0
H1418 H 0.17433 0.13309 0.48392 0.0
C1419 C 0.19592 0.12551 0.56568 0.0
C1420 C 0.74133 0.11341 0.45727 0.0
C1421 C 0.70371 0.13704 0.46039 0.0
H1422 H 0.75616 0.06475 0.45556 0.0
C1423 C 0.65017 0.12888 0.46347 0.0
H1424 H 0.7828 0.1189 0.45474 0.0
C1425 C 0.63487 0.09773 0.46457 0.0
C1426 C 0.67264 0.07411 0.46183 0.0
H1427 H 0.62018 0.14654 0.46603 0.0
H1428 H 0.59354 0.09217 0.46773 0.0
C1429 C 0.72593 0.08235 0.45761 0.0
C1430 C 0.249 0.61323 0.46301 0.0
C1431 C 0.21074 0.63558 0.45486 0.0
H1432 H 0.26591 0.56499 0.47021 0.0
C1433 C 0.16054 0.62551 0.4449 0.0
H1434 H 0.28812 0.62012 0.4707 0.0
C1435 C 0.14799 0.59399 0.44483 0.0
C1436 C 0.1858 0.57193 0.45387 0.0
H1437 H 0.13027 0.64202 0.43846 0.0
H1438 H 0.10824 0.5869 0.43867 0.0
C1439 C 0.23661 0.58166 0.46244 0.0
C1440 C 0.29417 0.09707 0.35034 0.0
C1441 C 0.25074 0.07952 0.36095 0.0
H1442 H 0.36727 0.11778 0.36471 0.0
C1443 C 0.23738 0.07982 0.39409 0.0
H1444 H 0.30526 0.09728 0.32485 0.0
C1445 C 0.2715 0.09292 0.4167 0.0
C1446 C 0.32141 0.10351 0.40663 0.0
H1447 H 0.20371 0.06679 0.40285 0.0
H1448 H 0.26293 0.08905 0.44221 0.0
C1449 C 0.32966 0.10905 0.37321 0.0
C1450 C 0.11837 0.11564 0.4103 0.0
C1451 C 1.06632 0.10723 0.40238 0.0
H1452 H 0.18756 0.13882 0.39367 0.0
C1453 C 1.05384 0.10213 0.36943 0.0
H1454 H 0.13041 0.11869 0.4354 0.0
C1455 C 0.08771 0.1131 0.34513 0.0
C1456 C 0.13414 0.12902 0.35388 0.0
H1457 H 1.01455 0.09476 0.36256 0.0
H1458 H 0.07336 0.11334 0.32024 0.0
C1459 C 0.15133 0.12753 0.38629 0.0
C1460 C 0.31174 0.09628 0.13749 0.0
C1461 C 0.29218 0.10152 1.10588 0.0
H1462 H 0.30351 0.10825 0.18756 0.0
C1463 C 0.23811 0.10828 1.10236 0.0
H1464 H 0.35244 0.08942 0.14105 0.0
C1465 C 0.20944 0.11876 0.12922 0.0
C1466 C 0.23495 0.12243 0.15937 0.0
H1467 H 0.22055 0.11117 1.07846 0.0
H1468 H 0.171 0.12898 1.1251 0.0
C1469 C 0.2833 0.10707 0.16432 0.0
C1470 C 0.10413 0.85216 1.12347 0.0
C1471 C 0.09274 0.85528 0.1569 0.0
H1472 H 0.08263 0.86621 1.07522 0.0
C1473 C 1.04098 0.86346 0.16589 0.0
H1474 H 0.14304 0.84499 1.11563 0.0
C1475 C 1.00735 0.8768 0.14312 0.0
C1476 C 1.02334 0.8798 1.11064 0.0
H1477 H 1.02955 0.86504 0.19119 0.0
H1478 H 0.97124 0.88758 0.15154 0.0
C1479 C 1.0695 0.86457 1.10032 0.0
C1480 C 0.8368 0.85002 0.91239 0.0
C1481 C 0.88708 0.86181 0.90482 0.0
H1482 H 0.76102 0.83843 0.89317 0.0
C1483 C 0.90663 0.85744 0.87313 0.0
H1484 H 0.82093 0.85198 0.93683 0.0
C1485 C 0.87184 0.84996 0.84797 0.0
C1486 C 0.81751 0.84724 0.85467 0.0
H1487 H 0.94606 0.86505 0.86688 0.0
H1488 H 0.88607 0.85237 0.82318 0.0
C1489 C 0.80211 0.84229 0.8872 0.0
C1490 C 0.08928 0.61208 0.86116 0.0
C1491 C 0.10024 0.61904 0.89387 0.0
H1492 H 0.11082 0.62037 0.81182 0.0
C1493 C 0.15105 0.62941 0.90216 0.0
H1494 H 1.05067 0.60364 0.85418 0.0
C1495 C 0.18549 0.63931 0.87782 0.0
C1496 C 0.16932 0.63892 0.84508 0.0
H1497 H 0.16121 0.63456 0.92723 0.0
H1498 H 0.22122 0.65129 0.88494 0.0
C1499 C 0.12409 0.62173 0.8368 0.0
C1500 C 0.90024 0.83108 1.08063 0.0
C1501 C 0.94214 0.81054 1.08684 0.0
H1502 H 0.83467 0.85513 1.1016 0.0
C1503 C 0.96353 0.80966 1.11842 0.0
H1504 H 0.88383 0.83321 1.0564 0.0
C1505 C 0.9343 0.82124 0.14445 0.0
C1506 C 0.88549 0.83574 0.13877 0.0
H1507 H 0.99734 0.79515 1.12372 0.0
H1508 H 0.94674 0.81527 0.16897 0.0
C1509 C 0.87164 0.84351 1.10663 0.0
C1510 C 0.27119 0.58969 0.9147 0.0
C1511 C 0.32169 0.60079 0.90645 0.0
H1512 H 0.20415 0.56424 0.89822 0.0
C1513 C 0.33286 0.60658 0.87343 0.0
H1514 H 0.26012 0.58587 0.93987 0.0
C1515 C 0.30018 0.59419 0.8493 0.0
C1516 C 0.25598 0.57633 0.85823 0.0
H1517 H 0.37085 0.61588 0.86636 0.0
H1518 H 0.31394 0.59481 0.82429 0.0
C1519 C 0.23919 0.57674 0.89079 0.0
C1520 C 0.35916 0.83926 0.58928 0.0
C1521 C 0.40497 0.82267 0.59781 0.0
H1522 H 0.28623 0.85783 0.60682 0.0
C1523 C 0.42203 0.82328 0.63033 0.0
H1524 H 0.34511 0.83965 0.56434 0.0
C1525 C 0.38834 0.83396 0.65462 0.0
C1526 C 0.33715 0.8439 0.64655 0.0
H1527 H 0.45799 0.81153 0.63748 0.0
H1528 H 0.39944 0.82964 0.67972 0.0
C1529 C 0.32514 0.84978 0.61368 0.0
C1530 C 0.12702 0.60643 0.60141 0.0
C1531 C 0.07239 0.61034 0.6062 0.0
H1532 H 0.1981 0.58853 0.62218 0.0
C1533 C 1.05386 0.61371 0.63831 0.0
H1534 H 0.14349 0.60494 0.57708 0.0
C1535 C 0.08545 0.60397 0.66427 0.0
C1536 C 0.13576 0.59157 0.65801 0.0
H1537 H 1.01247 0.61815 0.64286 0.0
H1538 H 1.067 0.60108 0.6879 0.0
C1539 C 0.15866 0.59682 0.62736 0.0
C1540 C 0.78155 0.49936 0.37148 0.0
C1541 C 0.7715 0.46937 0.36027 0.0
H1542 H 0.83644 0.53087 0.39117 0.0
C1543 C 0.81421 0.44856 0.3575 0.0
H1544 H 0.75073 0.51658 0.37229 0.0
C1545 C 0.86473 0.45718 0.36686 0.0
C1546 C 0.87406 0.48661 0.37995 0.0
H1547 H 0.80937 0.42566 0.34732 0.0
H1548 H 0.89591 0.44019 0.36529 0.0
C1549 C 0.83188 0.5079 0.38113 0.0
C1550 C 0.94345 0.31752 0.63666 0.0
C1551 C 0.92426 0.31867 0.60466 0.0
H1552 H 0.92603 0.32664 0.68644 0.0
C1553 C 0.88531 0.34048 0.59668 0.0
H1554 H 0.97389 0.30105 0.64323 0.0
C1555 C 0.8567 0.35482 0.62157 0.0
C1556 C 0.86762 0.34731 0.65424 0.0
H1557 H 0.87066 0.34199 0.57191 0.0
H1558 H 0.82084 0.36708 0.61531 0.0
C1559 C 0.91555 0.33227 0.66149 0.0
C1560 C 0.51849 0.20161 0.86822 0.0
C1561 C 0.50985 0.21257 0.89986 0.0
H1562 H 0.5682 0.20251 0.82643 0.0
C1563 C 0.54775 0.23224 0.91439 0.0
H1564 H 0.49057 0.18611 0.85671 0.0
C1565 C 0.59299 0.24073 0.89767 0.0
C1566 C 0.60141 0.22982 0.86609 0.0
H1567 H 0.54382 0.24031 0.93927 0.0
H1568 H 0.62123 0.25596 0.9093 0.0
C1569 C 0.56364 0.21036 0.85137 0.0
C1570 C 0.55679 0.85658 0.62278 0.0
C1571 C 0.54942 0.86245 0.6562 0.0
H1572 H 0.53374 0.86939 0.5744 0.0
C1573 C 0.50133 0.87558 0.66638 0.0
H1574 H 0.59299 0.84602 0.61426 0.0
C1575 C 0.46823 0.88962 0.64371 0.0
C1576 C 0.4817 0.88938 0.61059 0.0
H1577 H 0.49365 0.88001 0.69189 0.0
H1578 H 0.4362 0.90403 0.6524 0.0
C1579 C 0.52281 0.87006 0.59994 0.0
C1580 C 0.65626 0.75355 0.36081 0.0
C1581 C 0.66056 0.73884 0.33041 0.0
H1582 H 0.61102 0.76002 0.40394 0.0
C1583 C 0.62062 0.71764 0.32117 0.0
H1584 H 0.68645 0.76928 0.36936 0.0
C1585 C 0.57645 0.71315 0.34058 0.0
C1586 C 0.57145 0.72908 0.37003 0.0
H1587 H 0.62118 0.70566 0.29802 0.0
H1588 H 0.5458 0.69761 0.33222 0.0
C1589 C 0.61239 0.74867 0.3804 0.0
C1590 C 0.48031 0.36654 0.15338 0.0
C1591 C 0.53406 0.36048 0.1475 0.0
H1592 H 0.40883 0.38407 0.1328 0.0
C1593 C 0.55003 0.35418 1.11538 0.0
H1594 H 0.46604 0.37068 0.17789 0.0
C1595 C 0.51682 0.36187 1.08943 0.0
C1596 C 0.46786 0.37601 1.09571 0.0
H1597 H 0.5907 0.34831 1.11018 0.0
H1598 H 0.53347 0.36199 1.0651 0.0
C1599 C 0.44715 0.37423 0.12742 0.0
C1600 C 0.44449 0.96427 1.01693 0.0
C1601 C 0.45912 -0.00868 1.0336 0.0
H1602 H 0.4082 0.94451 0.97511 0.0
C1603 C 0.44819 0.02015 1.01911 0.0
H1604 H 0.45264 0.94157 1.02686 0.0
C1605 C 0.42525 0.02177 0.98821 0.0
C1606 C 0.41129 -0.00537 0.97147 0.0
H1607 H 0.45728 0.04158 1.0315 0.0
H1608 H 0.41997 0.04432 0.97718 0.0
C1609 C 0.41968 0.96593 0.98675 0.0
C1610 C 0.95674 0.22876 1.01528 0.0
C1611 C 0.93833 0.202 1.03113 0.0
H1612 H 0.99674 0.24791 0.97442 0.0
C1613 C 0.94704 0.17308 1.01633 0.0
H1614 H 0.95039 0.25158 1.02531 0.0
C1615 C 0.97104 0.1712 0.98574 0.0
C1616 C 0.98816 0.19813 0.96975 0.0
H1617 H 0.9351 0.1518 1.02812 0.0
H1618 H 0.97427 0.14877 0.97422 0.0
C1619 C 0.98272 0.22673 0.98557 0.0
C1620 C 0.42611 0.1765 0.48389 0.0
C1621 C 0.43294 0.20611 0.47008 0.0
H1622 H 0.40098 0.15048 0.52558 0.0
C1623 C 0.40947 0.23162 0.48562 0.0
H1624 H 0.44116 0.156 0.47199 0.0
C1625 C 0.38288 0.22796 0.51489 0.0
C1626 C 0.38211 0.19915 0.53062 0.0
H1627 H 0.41353 0.25491 0.47636 0.0
H1628 H 0.36664 0.24832 0.52656 0.0
C1629 C 0.40156 0.1731 0.51419 0.0
C1630 C 0.93934 0.02137 0.48646 0.0
C1631 C 0.93039 -0.00751 0.47168 0.0
H1632 H 0.96458 0.04564 0.52905 0.0
C1633 C 0.9443 0.96551 0.48878 0.0
H1634 H 0.93039 0.04271 0.47378 0.0
C1635 C 0.96698 0.96728 0.51958 0.0
C1636 C 0.97402 -0.004 0.53496 0.0
H1637 H 0.93741 0.94279 0.4786 0.0
H1638 H 0.97818 0.94591 0.5315 0.0
C1639 C 0.96034 0.02309 0.51792 0.0
C1640 C 0.70514 -0.01441 0.23779 0.0
C1641 C 0.68937 0.95828 0.22201 0.0
H1642 H 0.74056 0.00604 0.27952 0.0
C1643 C 0.69739 0.92977 0.23782 0.0
H1644 H 0.69905 0.00808 0.22681 0.0
C1645 C 0.71874 0.92878 0.2692 0.0
C1646 C 0.73369 0.95623 0.28502 0.0
H1647 H 0.6871 0.90817 0.22612 0.0
H1648 H 0.72194 0.9066 0.28133 0.0
C1649 C 0.72825 -0.01552 0.26845 0.0
C1650 C 0.18257 0.72187 0.23496 0.0
C1651 C 0.19936 0.74901 0.21916 0.0
H1652 H 0.14243 0.70185 0.27527 0.0
C1653 C 0.18714 0.77777 0.23336 0.0
H1654 H 0.19153 0.69919 0.22535 0.0
C1655 C 0.16147 0.77917 0.2635 0.0
C1656 C 0.14632 0.75185 0.27957 0.0
H1657 H 0.19772 0.79926 0.22148 0.0
H1658 H 0.1555 0.80157 0.27468 0.0
C1659 C 0.155 0.72335 0.26413 0.0
C1660 C 0.68896 0.7333 0.76468 0.0
C1661 C 0.67344 0.76034 0.78106 0.0
H1662 H 0.72785 0.71339 0.72414 0.0
C1663 C 0.68396 0.78919 0.76637 0.0
H1664 H 0.68053 0.7105 0.77421 0.0
C1665 C 0.70754 0.79066 0.73555 0.0
C1666 C 0.72262 0.76337 0.71945 0.0
H1667 H 0.67398 0.81064 0.77845 0.0
H1668 H 0.71249 0.81304 0.72406 0.0
C1669 C 0.71518 0.73489 0.73518 0.0
C1670 C 0.2062 0.94053 0.76576 0.0
C1671 C 0.21707 0.96826 0.78232 0.0
H1672 H 0.17669 0.91936 0.72245 0.0
C1673 C 0.20382 -0.00352 0.7674 0.0
H1674 H 0.21489 0.9183 0.77669 0.0
C1675 C 0.17875 -0.00301 0.73729 0.0
C1676 C 0.1686 0.96936 0.72044 0.0
H1677 H 0.21243 0.01837 0.77902 0.0
H1678 H 0.16768 0.0192 0.72717 0.0
C1679 C 0.18281 0.94109 0.73497 0.0
C1680 C 0.44331 0.52255 0.51495 0.0
C1681 C 0.4564 0.49441 0.53014 0.0
H1682 H 0.41002 0.54483 0.47334 0.0
C1683 C 0.44152 0.46657 0.51508 0.0
H1684 H 0.45282 0.5445 0.52617 0.0
C1685 C 0.4136 0.46682 0.48594 0.0
C1686 C 0.40233 0.49486 0.47007 0.0
H1687 H 0.45144 0.44438 0.52567 0.0
H1688 H 0.40183 0.44486 0.47559 0.0
C1689 C 0.4172 0.52276 0.48503 0.0
C1690 C 0.93725 0.68191 0.52054 0.0
C1691 C 0.92554 0.71128 0.53343 0.0
H1692 H 0.96878 0.65626 0.48057 0.0
C1693 C 0.94258 0.73768 0.51644 0.0
H1694 H 0.92644 0.66097 0.53338 0.0
C1695 C 0.97046 0.73488 0.4875 0.0
C1696 C 0.97912 0.70569 0.47351 0.0
H1697 H 0.93396 0.76076 0.52508 0.0
H1698 H 0.98372 0.75584 0.47559 0.0
C1699 C 0.96307 0.67915 0.49063 0.0
C1700 C 0.41705 0.72212 0.98216 0.0
C1701 C 0.43956 0.69654 0.96616 0.0
H1702 H 0.37315 0.73883 1.02252 0.0
C1703 C 0.43239 0.66692 0.97998 0.0
H1704 H 0.42173 0.7455 0.97338 0.0
C1705 C 0.40756 0.66353 1.01027 0.0
C1706 C 0.38783 0.68956 1.02665 0.0
H1707 H 0.44685 0.64633 0.96799 0.0
H1708 H 0.40623 0.64084 1.02147 0.0
C1709 C 0.38974 0.71843 1.01113 0.0
C1710 C 0.95616 0.52854 0.98626 0.0
C1711 C 0.94881 0.49942 0.97157 0.0
H1712 H 0.98284 0.55331 1.02826 0.0
C1713 C 0.9711 0.47322 0.98656 0.0
H1714 H 0.94161 0.54947 0.97489 0.0
C1715 C 0.99812 0.47585 1.01584 0.0
C1716 C 1.00079 0.50437 1.03204 0.0
H1717 H 0.96631 0.45029 0.97651 0.0
H1718 H 1.01417 0.45507 1.02679 0.0
C1719 C 0.98129 0.53094 1.01645 0.0
C1720 C 0.70028 0.42439 0.76413 0.0
C1721 C 0.71189 0.45269 0.77949 0.0
H1722 H 0.66806 0.40178 0.72237 0.0
C1723 C 0.69491 0.48026 0.76461 0.0
H1724 H 0.71125 0.40253 0.77505 0.0
C1725 C 0.66602 0.47958 0.73591 0.0
C1726 C 0.65667 0.45153 0.7197 0.0
H1727 H 0.70386 0.50268 0.77487 0.0
H1728 H 0.65223 0.50137 0.72607 0.0
C1729 C 0.6738 0.42385 0.73427 0.0
C1730 C 0.18011 0.27105 0.7637 0.0
C1731 C 0.16691 0.24286 0.77878 0.0
H1732 H 0.21331 0.29354 0.72214 0.0
C1733 C 0.18013 0.21509 0.76297 0.0
H1734 H 0.17168 0.29295 0.77534 0.0
C1735 C 0.20713 0.21545 0.73344 0.0
C1736 C 0.21947 0.24358 0.71802 0.0
H1737 H 0.16993 0.19288 0.77339 0.0
H1738 H 0.21792 0.19351 0.72266 0.0
C1739 C 0.20551 0.2714 0.7335 0.0
C1740 C 0.71525 0.28689 0.23702 0.0
C1741 C 0.72998 0.25893 0.22202 0.0
H1742 H 0.67983 0.30871 0.27818 0.0
C1743 C 0.71635 0.23099 0.23739 0.0
H1744 H 0.7239 0.30898 0.22584 0.0
C1745 C 0.68622 0.23085 0.26552 0.0
C1746 C 0.67309 0.25861 0.28135 0.0
H1747 H 0.72822 0.20882 0.22767 0.0
H1748 H 0.67397 0.20859 0.27485 0.0
C1749 C 0.68815 0.28673 0.26671 0.0
C1750 C 0.18839 0.42808 0.23292 0.0
C1751 C 0.17771 0.45676 0.21805 0.0
H1752 H 0.21708 0.40443 0.27519 0.0
C1753 C 0.19265 0.484 0.23428 0.0
H1754 H 0.17887 0.40655 0.22083 0.0
C1755 C 0.21778 0.48265 0.26434 0.0
C1756 C 0.22606 0.45414 0.27996 0.0
H1757 H 0.18457 0.50659 0.22406 0.0
H1758 H 0.22931 0.50418 0.27577 0.0
C1759 C 0.21179 0.42679 0.26374 0.0
C1760 C 0.34502 0.12082 0.26283 0.0
C1761 C 0.39306 0.13699 0.2621 0.0
H1762 H 0.30564 0.07751 0.25564 0.0
C1763 C 0.4393 0.12107 0.25366 0.0
H1764 H 0.30891 0.13231 0.26989 0.0
C1765 C 0.43759 0.08971 0.24599 0.0
C1766 C 0.38956 0.07353 0.24643 0.0
H1767 H 0.47698 0.13284 0.25285 0.0
H1768 H 0.47406 0.0782 0.23954 0.0
C1769 C 0.3432 0.08939 0.25488 0.0
C1770 C 0.9719 0.08473 0.26405 0.0
C1771 C 1.01878 0.0679 0.25934 0.0
H1772 H 0.9321 0.12796 0.26043 0.0
C1773 C 1.06361 0.08361 0.24778 0.0
H1774 H 0.93665 0.07367 0.27335 0.0
C1775 C 1.06077 0.11532 0.24017 0.0
C1776 C 1.01322 0.13174 0.24426 0.0
H1777 H 0.10037 0.07137 0.24406 0.0
H1778 H 0.09543 0.12678 0.2306 0.0
C1779 C 0.96917 0.11606 0.25661 0.0
C1780 C 0.70578 0.83564 0.99143 0.0
C1781 C 0.75099 0.81715 0.99462 0.0
H1782 H 0.67192 0.88045 0.99567 0.0
C1783 C 0.79845 0.83073 1.00486 0.0
H1784 H 0.66867 0.82595 0.98325 0.0
C1785 C 0.80014 0.86229 1.01243 0.0
C1786 C 0.75466 0.88064 1.00925 0.0
H1787 H 0.83385 0.81693 1.00737 0.0
H1788 H 0.83673 0.87222 1.02101 0.0
C1789 C 0.70763 0.86697 0.99854 0.0
C1790 C 0.07819 0.83667 1.00214 0.0
C1791 C 0.12354 0.82208 1.01447 0.0
H1792 H 1.0446 0.87902 0.98402 0.0
C1793 C 0.16889 0.8399 1.02037 0.0
H1794 H 1.04259 0.82354 0.99759 0.0
C1795 C 0.17012 0.87113 1.01264 0.0
C1796 C 0.12593 0.88559 0.99895 0.0
H1797 H 0.20424 0.82961 1.03052 0.0
H1798 H 0.20618 0.88386 1.01712 0.0
C1799 C 0.07943 0.86832 0.99436 0.0
C1800 C 0.32869 0.6231 0.75094 0.0
C1801 C 0.37517 0.63821 0.76074 0.0
H1802 H 0.29385 0.58043 0.73472 0.0
C1803 C 0.42187 0.62087 0.76355 0.0
H1804 H 0.29203 0.63579 0.74876 0.0
C1805 C 0.42289 0.58963 0.75576 0.0
C1806 C 0.37723 0.57456 0.74493 0.0
H1807 H 0.45834 0.63146 0.77155 0.0
H1808 H 0.45995 0.57735 0.75801 0.0
C1809 C 0.32977 0.59146 0.74298 0.0
C1810 C 0.9509 0.61917 0.74027 0.0
C1811 C 0.99727 0.63669 0.74295 0.0
H1812 H 0.91424 0.57521 0.7462 0.0
C1813 C 1.0437 0.62238 0.75391 0.0
H1814 H 0.91452 0.62947 0.73167 0.0
C1815 C 1.04336 0.59111 0.76263 0.0
C1816 C 0.99683 0.57372 0.76003 0.0
H1817 H 0.08 0.63538 0.75612 0.0
H1818 H 0.07925 0.5807 0.77173 0.0
C1819 C 0.95071 0.58803 0.74865 0.0
C1820 C 0.77551 0.34809 0.46599 0.0
C1821 C 0.7759 0.32523 0.49047 0.0
H1822 H 0.7756 0.39673 0.45507 0.0
C1823 C 0.78062 0.33432 0.52322 0.0
H1824 H 0.77225 0.34173 0.4405 0.0
C1825 C 0.78167 0.3656 0.53148 0.0
C1826 C 0.77937 0.3885 0.50718 0.0
H1827 H 0.7812 0.31731 0.54266 0.0
H1828 H 0.78285 0.37189 0.55705 0.0
C1829 C 0.77783 0.37952 0.47427 0.0
C1830 C 1.06262 0.34012 0.49377 0.0
C1831 C 0.10173 0.3277 0.51439 0.0
H1832 H 1.03323 0.38114 0.46988 0.0
C1833 C 0.13589 0.34796 0.53078 0.0
H1834 H 1.03547 0.32501 0.48107 0.0
C1835 C 0.13428 0.37954 0.52467 0.0
C1836 C 0.09843 0.39182 0.50207 0.0
H1837 H 0.16554 0.33928 0.54749 0.0
H1838 H 0.1631 0.39427 0.5365 0.0
C1839 C 1.06105 0.37215 0.48756 0.0
C1840 C 0.81044 0.0887 0.7608 0.0
C1841 C 0.84874 0.07496 0.74071 0.0
H1842 H 0.78418 0.13092 0.78353 0.0
C1843 C 0.88473 0.09388 0.724 0.0
H1844 H 0.7821 0.07455 0.77378 0.0
C1845 C 0.88589 0.12549 0.72947 0.0
C1846 C 0.85086 0.13905 0.75161 0.0
H1847 H 0.91386 0.08404 0.70768 0.0
H1848 H 0.91606 0.13917 0.71751 0.0
C1849 C 0.81151 0.1208 0.76626 0.0
C1850 C 0.5316 0.1319 0.77979 0.0
C1851 C 0.54417 0.14196 0.74817 0.0
H1852 H 0.51814 0.09285 0.81113 0.0
C1853 C 0.56015 0.12004 0.72484 0.0
H1854 H 0.51842 0.14829 0.79804 0.0
C1855 C 0.56141 0.08846 0.73254 0.0
C1856 C 0.54485 0.07816 0.76336 0.0
H1857 H 0.56954 0.12726 0.70018 0.0
H1858 H 0.57173 0.072 0.71368 0.0
C1859 C 0.53112 0.10021 0.78716 0.0
C1860 C 0.31084 0.84126 0.49212 0.0
C1861 C 0.26248 0.82547 0.49559 0.0
H1862 H 0.35173 0.88484 0.49617 0.0
C1863 C 0.21892 0.84149 0.50795 0.0
H1864 H 0.3453 0.82936 0.48289 0.0
C1865 C 0.22267 0.87266 0.5156 0.0
C1866 C 0.27002 0.88908 0.51091 0.0
H1867 H 0.18138 0.83003 0.51151 0.0
H1868 H 0.1876 0.88397 0.52482 0.0
C1869 C 0.3146 0.87295 0.49972 0.0
C1870 C 0.57328 0.83601 0.50818 0.0
C1871 C 0.61866 0.81857 0.50091 0.0
H1872 H 0.53884 0.88155 0.51044 0.0
C1873 C 0.66302 0.83374 0.48809 0.0
H1874 H 0.53855 0.82492 0.51817 0.0
C1875 C 0.6635 0.8656 0.48435 0.0
C1876 C 0.61941 0.88338 0.49289 0.0
H1877 H 0.6984 0.82107 0.48172 0.0
H1878 H 0.69902 0.87635 0.475 0.0
C1879 C 0.57356 0.86833 0.50397 0.0
C1880 C 0.855 0.57497 0.27794 0.0
C1881 C 0.84411 0.56575 0.24581 0.0
H1882 H 0.86996 0.61304 0.31023 0.0
C1883 C 0.83233 0.58854 0.22235 0.0
H1884 H 0.86502 0.55793 0.29635 0.0
C1885 C 0.83378 0.62003 0.23046 0.0
C1886 C 0.84886 0.62931 0.26191 0.0
H1887 H 0.82431 0.58201 0.19731 0.0
H1888 H 0.82688 0.63708 0.21154 0.0
C1889 C 0.85817 0.60649 0.28578 0.0
C1890 C 0.50165 0.60106 0.28699 0.0
C1891 C 0.53203 0.5804 0.26826 0.0
H1892 H 0.47372 0.64743 0.29293 0.0
C1893 C 0.56511 0.59254 0.24381 0.0
H1894 H 0.47635 0.59268 0.30638 0.0
C1895 C 0.56396 0.62435 0.2364 0.0
C1896 C 0.53009 0.6443 0.25354 0.0
H1897 H 0.58899 0.57728 0.22898 0.0
H1898 H 0.58634 0.63286 0.21575 0.0
C1899 C 0.50051 0.63254 0.2796 0.0
C1900 C 0.2476 0.37568 0.97963 0.0
C1901 C 0.28337 0.38712 1.00263 0.0
H1902 H 0.21773 0.33655 0.95445 0.0
C1903 C 0.32071 0.36701 1.01654 0.0
H1904 H 0.21888 0.39083 0.96825 0.0
C1905 C 0.31979 0.33531 1.0089 0.0
C1906 C 0.28163 0.32365 0.98719 0.0
H1907 H 0.34835 0.37543 1.03459 0.0
H1908 H 0.34714 0.31987 1.02102 0.0
C1909 C 0.24695 0.34446 0.97183 0.0
C1910 C 0.57641 0.32785 1.0014 0.0
C1911 C 0.62096 0.30976 0.9944 0.0
H1912 H 0.54354 0.37373 1.00178 0.0
C1913 C 0.66426 0.32343 0.97874 0.0
H1914 H 0.54296 0.31785 1.01401 0.0
C1915 C 0.66518 0.35506 0.97265 0.0
C1916 C 0.62258 0.3738 0.98185 0.0
H1917 H 0.69911 0.30989 0.9732 0.0
H1918 H 0.7003 0.365 0.96185 0.0
C1919 C 0.57709 0.35978 0.99487 0.0
C1920 C 0.24053 -0.02186 0.12862 0.0
C1921 C 0.2964 -0.01909 0.12977 0.0
H1922 H 0.16859 0.97575 1.10009 0.0
C1923 C 0.32054 -0.01552 1.09862 0.0
H1924 H 0.21892 0.9766 0.15127 0.0
C1925 C 0.29104 -0.0156 1.06854 0.0
C1926 C 0.23514 -0.01896 1.06746 0.0
H1927 H 0.36287 -0.01282 1.09732 0.0
H1928 H 0.31253 -0.01299 1.04588 0.0
C1929 C 0.21103 -0.02193 1.09865 0.0
C1930 C 0.17036 0.24308 1.09316 0.0
C1931 C 0.15163 0.2299 1.06352 0.0
H1932 H 0.15635 0.2549 0.14393 0.0
C1933 C 0.10036 0.21657 1.06605 0.0
H1934 H 0.20878 0.25398 1.09336 0.0
C1935 C 0.0708 0.21578 1.09616 0.0
C1936 C 0.08947 0.22919 1.12578 0.0
H1937 H 0.08307 0.20598 1.04463 0.0
H1938 H 1.03279 0.20445 1.09611 0.0
C1939 C 0.13994 0.24333 1.12287 0.0
C1940 C 0.31511 0.21833 0.40359 0.0
C1941 C 0.29917 0.23288 0.37394 0.0
H1942 H 0.29898 0.20711 0.45437 0.0
C1943 C 0.24865 0.24723 0.37589 0.0
H1944 H 0.35274 0.20658 0.40435 0.0
C1945 C 0.21602 0.2464 0.40481 0.0
C1946 C 0.2323 0.23222 0.43457 0.0
H1947 H 0.23394 0.25943 0.3547 0.0
H1948 H 0.17796 0.2577 0.40395 0.0
C1949 C 0.28338 0.21847 0.43287 0.0
C1950 C 0.15009 0.96637 0.37845 0.0
C1951 C 0.0987 -0.02079 0.37527 0.0
H1952 H 0.21991 0.9584 0.40799 0.0
C1953 C 0.07944 -0.0066 0.40428 0.0
H1954 H 0.16682 0.9542 0.35786 0.0
C1955 C 0.10973 -0.0051 0.43404 0.0
C1956 C 0.1619 -0.01712 0.43679 0.0
H1957 H 1.04035 0.00347 0.40416 0.0
H1958 H 0.09206 0.00597 0.45505 0.0
C1959 C 0.18092 0.96859 0.40786 0.0
C1960 C 0.86127 0.95814 0.18396 0.0
C1961 C 0.91227 0.97182 0.18689 0.0
H1962 H 0.79284 0.94743 0.15395 0.0
C1963 C 0.92958 -0.01289 0.15804 0.0
H1964 H 0.84472 0.94627 0.20487 0.0
C1965 C 0.89841 -0.01138 0.12862 0.0
C1966 C 0.84843 0.97401 1.12521 0.0
H1967 H 0.96745 -0.00135 0.15826 0.0
H1968 H 0.91379 0.0016 1.10816 0.0
C1969 C 0.83079 0.95888 0.15416 0.0
C1970 C 0.072 0.73864 0.15641 0.0
C1971 C 1.05485 0.724 0.12713 0.0
H1972 H 1.05845 0.74872 0.20773 0.0
C1973 C 1.00705 0.7071 0.13043 0.0
H1974 H 0.10831 0.75178 0.15613 0.0
C1975 C 0.97683 0.70642 0.16009 0.0
C1976 C 0.99371 0.72115 0.18925 0.0
H1977 H 0.99218 0.69447 1.10962 0.0
H1978 H 0.94007 0.6937 0.16023 0.0
C1979 C 1.04283 0.7369 0.18654 0.0
C1980 C 0.9145 0.7199 0.84454 0.0
C1981 C 0.89447 0.73094 0.81422 0.0
H1982 H 0.90132 0.70947 0.89576 0.0
C1983 C 0.8408 0.74082 0.81569 0.0
H1984 H 0.95487 0.71184 0.84568 0.0
C1985 C 0.80974 0.73987 0.8452 0.0
C1986 C 0.82951 0.72834 0.87539 0.0
H1987 H 0.82233 0.74968 0.79376 0.0
H1988 H 0.76967 0.74833 0.84419 0.0
C1989 C 0.88311 0.71847 0.87387 0.0
C1990 C 1.03035 0.96969 0.8222 0.0
C1991 C 0.97772 -0.01875 0.82065 0.0
H1992 H 0.10076 0.96008 0.85079 0.0
C1993 C 0.95916 -0.00633 0.85069 0.0
H1994 H 1.04778 0.95997 0.80038 0.0
C1995 C 0.99089 -0.00533 0.8799 0.0
C1996 C 1.04278 -0.01783 0.8818 0.0
H1997 H 0.9198 0.00331 0.85163 0.0
H1998 H 0.97414 0.00527 0.90145 0.0
C1999 C 1.06143 0.96978 0.85172 0.0
C2000 C 0.31556 0.4911 0.59503 0.0
C2001 C 0.29507 0.48022 0.62534 0.0
H2002 H 0.30396 0.49982 0.54321 0.0
C2003 C 0.24193 0.46975 0.62343 0.0
H2004 H 0.35588 0.49926 0.5941 0.0
C2005 C 0.2108 0.47126 0.594 0.0
C2006 C 0.23125 0.48203 0.5637 0.0
H2007 H 0.22405 0.46001 0.64505 0.0
H2008 H 0.17049 0.46309 0.59492 0.0
C2009 C 0.28508 0.49151 0.56525 0.0
C2010 C 0.09018 0.72285 0.56545 0.0
C2011 C 0.14522 0.72976 0.56429 0.0
H2012 H 1.01852 0.71692 0.59388 0.0
C2013 C 0.16744 0.73677 0.59534 0.0
H2014 H 1.06996 0.71715 0.54297 0.0
C2015 C 0.13685 0.73725 0.62506 0.0
C2016 C 0.08192 0.73037 0.62624 0.0
H2017 H 0.20899 0.74232 0.59681 0.0
H2018 H 0.15677 0.74281 0.64759 0.0
C2019 C 1.0599 0.7228 0.59528 0.0
C2020 C 0.25465 0.74596 0.88146 0.0
C2021 C 0.30228 0.72906 0.87706 0.0
H2022 H 0.18766 0.75785 0.912 0.0
C2023 C 0.31808 0.71172 0.905 0.0
H2024 H 0.24068 0.76049 0.86179 0.0
C2025 C 0.28818 0.71121 0.93494 0.0
C2026 C 0.23953 0.7273 0.93881 0.0
H2027 H 0.35393 0.6982 0.90381 0.0
H2028 H 0.30306 0.69754 0.95509 0.0
C2029 C 0.22382 0.7446 0.91092 0.0
C2030 C 0.10674 0.49369 0.93462 0.0
C2031 C 0.15829 0.48051 0.93629 0.0
H2032 H 1.03677 0.50462 0.90613 0.0
C2033 C 0.1749 0.46634 0.9067 0.0
H2034 H 0.09073 0.50475 0.95615 0.0
C2035 C 0.14237 0.46526 0.8778 0.0
C2036 C 0.09162 0.47927 0.87574 0.0
H2037 H 0.21316 0.45527 0.90594 0.0
H2038 H 0.15726 0.45308 0.85671 0.0
C2039 C 0.07497 0.49349 0.90536 0.0
C2040 C 0.80829 0.4753 0.66128 0.0
C2041 C 0.83186 0.47675 0.62979 0.0
H2042 H 0.81763 0.47415 0.71398 0.0
C2043 C 0.88798 0.47805 0.63028 0.0
H2044 H 0.7658 0.47415 0.66312 0.0
C2045 C 0.91832 0.47805 0.65994 0.0
C2046 C 0.89487 0.47668 0.69143 0.0
H2047 H 0.90912 0.47926 0.60736 0.0
H2048 H 0.96084 0.47925 0.65802 0.0
C2049 C 0.83869 0.47526 0.69102 0.0
C2050 C 1.06925 0.2383 0.65479 0.0
C2051 C 1.04561 0.23276 0.62381 0.0
H2052 H 1.06133 0.24159 0.70744 0.0
C2053 C 0.99053 0.22659 0.62538 0.0
H2054 H 0.11113 0.24297 0.65595 0.0
C2055 C 0.96085 0.2269 0.65543 0.0
C2056 C 0.98462 0.23214 0.6864 0.0
H2057 H 0.97 0.22121 0.60303 0.0
H2058 H 0.91899 0.22215 0.65435 0.0
C2059 C 1.04003 0.23755 0.68494 0.0
C2060 C 0.81344 0.22951 0.34344 0.0
C2061 C 0.83669 0.22928 0.37507 0.0
H2062 H 0.82284 0.22937 0.29077 0.0
C2063 C 0.89292 0.22898 0.37465 0.0
H2064 H 0.77099 0.23001 0.34145 0.0
C2065 C 0.9235 0.22861 0.34497 0.0
C2066 C 0.90018 0.2287 0.31334 0.0
H2067 H 0.9139 0.2292 0.39764 0.0
H2068 H 0.96605 0.22828 0.34698 0.0
C2069 C 0.84394 0.22919 0.31375 0.0
C2070 C 0.99125 0.45016 0.33157 0.0
C2071 C 0.97866 0.47746 0.31363 0.0
H2072 H 1.03044 0.42858 0.37311 0.0
C2073 C 0.99984 0.50499 0.32759 0.0
H2074 H 0.97723 0.42813 0.32253 0.0
C2075 C 1.02981 0.50534 0.35757 0.0
C2076 C 1.0426 0.47806 0.37543 0.0
H2077 H 0.99249 0.52682 0.31545 0.0
H2078 H 1.04344 0.5274 0.36675 0.0
C2079 C 1.02269 0.4504 0.36105 0.0
C2080 C 0.81277 -0.01578 0.60177 0.0
C2081 C 0.78842 -0.01823 0.63297 0.0
H2082 H 0.80537 -0.01465 0.54904 0.0
C2083 C 0.73246 -0.02096 0.63174 0.0
H2084 H 0.85522 -0.01358 0.60044 0.0
C2085 C 0.70308 -0.0214 0.60158 0.0
C2086 C 0.72756 -0.01926 0.57037 0.0
H2087 H 0.71079 -0.02241 0.65441 0.0
H2088 H 0.66061 0.97647 0.60287 0.0
C2089 C 0.78352 -0.01646 0.57166 0.0
C2090 C 0.563 0.23622 0.59245 0.0
C2091 C 0.58478 0.22939 0.62363 0.0
H2092 H 0.57492 0.24285 0.5404 0.0
C2093 C 0.64004 0.22344 0.62331 0.0
H2094 H 0.52125 0.24111 0.59056 0.0
C2095 C 0.67123 0.22401 0.59402 0.0
C2096 C 0.64971 0.23116 0.56289 0.0
H2097 H 0.65978 0.21812 0.64606 0.0
H2098 H 0.71297 0.21909 0.59599 0.0
C2099 C 0.59445 0.23732 0.56317 0.0
C2100 C 0.7556 0.20923 0.8819 0.0
C2101 C 0.80539 0.22389 0.87752 0.0
H2102 H 0.68958 0.19748 0.91348 0.0
C2103 C 0.82558 0.2378 0.90638 0.0
H2104 H 0.73886 0.19675 0.86162 0.0
C2105 C 0.79728 0.23788 0.93692 0.0
C2106 C 0.7468 0.22378 0.94113 0.0
H2107 H 0.8635 0.24925 0.90536 0.0
H2108 H 0.81551 0.24925 0.95756 0.0
C2109 C 0.72722 0.20924 0.91244 0.0
C2110 C 0.57438 -0.01535 0.90675 0.0
C2111 C 0.59852 -0.01707 0.87542 0.0
H2112 H 0.58232 -0.015 0.9595 0.0
C2113 C 0.65448 -0.0196 0.87638 0.0
H2114 H 0.5319 -0.01337 0.90828 0.0
C2115 C 0.68405 -0.02061 0.9064 0.0
C2116 C 0.65988 -0.01902 0.93774 0.0
H2117 H 0.67597 -0.02066 0.85361 0.0
H2118 H 0.72652 0.97732 0.9049 0.0
C2119 C 0.60392 -0.01632 0.93676 0.0
C2120 C 0.33008 0.96916 0.65499 0.0
C2121 C 0.34764 -0.0169 0.6254 0.0
H2122 H 0.34458 0.9584 0.70609 0.0
C2123 C 0.39767 -0.00219 0.62796 0.0
H2124 H 0.29203 0.95783 0.6554 0.0
C2125 C 0.42917 -0.00274 0.65722 0.0
C2126 C 0.41195 -0.01688 0.68668 0.0
H2127 H 0.41294 0.01004 0.60696 0.0
H2128 H 0.46718 0.00863 0.65681 0.0
C2129 C 0.36086 0.96948 0.68463 0.0
C2130 C 0.53955 0.74728 0.68584 0.0
C2131 C 0.48874 0.73346 0.68908 0.0
H2132 H 0.60739 0.75792 0.65531 0.0
C2133 C 0.47087 0.71798 0.66061 0.0
H2134 H 0.55622 0.75939 0.70653 0.0
C2135 C 0.50158 0.7162 0.63119 0.0
C2136 C 0.55153 0.73077 0.62743 0.0
H2137 H 0.43299 0.70646 0.66116 0.0
H2138 H 0.48573 0.70308 0.61101 0.0
C2139 C 0.56957 0.74635 0.65594 0.0
C2140 C 0.33074 0.7287 0.31256 0.0
C2141 C 0.38664 0.73155 0.31038 0.0
H2142 H 0.26016 0.72724 0.34254 0.0
C2143 C 0.41226 0.73448 0.3411 0.0
H2144 H 0.30807 0.72644 0.29029 0.0
C2145 C 0.38415 0.73382 0.37171 0.0
C2146 C 0.32829 0.73134 0.37388 0.0
H2147 H 0.45469 0.73679 0.34156 0.0
H2148 H 0.40638 0.73572 0.39406 0.0
C2149 C 0.3026 0.72916 0.34311 0.0
C2150 C 0.56904 0.97332 0.34883 0.0
C2151 C 0.54541 -0.02231 0.38001 0.0
H2152 H 0.56023 0.9696 0.29623 0.0
C2153 C 0.48951 -0.01924 0.37897 0.0
H2154 H 0.61139 0.97058 0.34736 0.0
C2155 C 0.45946 -0.01986 0.34913 0.0
C2156 C 0.48303 0.97621 0.31789 0.0
H2157 H 0.4683 -0.01691 0.40169 0.0
H2158 H 0.41709 -0.01725 0.3507 0.0
C2159 C 0.53901 0.97276 0.3189 0.0
C2160 C 0.71544 0.47428 1.09265 0.0
C2161 C 0.73844 0.47349 1.06103 0.0
H2162 H 0.72543 0.47591 0.14517 0.0
C2163 C 0.79476 0.47405 1.06119 0.0
H2164 H 0.67291 0.47387 1.09483 0.0
C2165 C 0.82568 0.47529 1.09073 0.0
C2166 C 0.80257 0.47605 1.12235 0.0
H2167 H 0.81557 0.47353 1.03813 0.0
H2168 H 0.86823 0.47561 1.08862 0.0
C2169 C 0.7463 0.47549 1.12213 0.0
C2170 C 0.65864 0.72021 1.09336 0.0
C2171 C 0.63592 0.7207 1.06161 0.0
H2172 H 0.64806 0.72035 0.14593 0.0
C2173 C 0.57966 0.72127 1.06156 0.0
H2174 H 0.70115 0.71988 1.09567 0.0
C2175 C 0.54852 0.72139 1.09098 0.0
C2176 C 0.57124 0.72111 1.12272 0.0
H2177 H 0.55905 0.72169 1.03842 0.0
H2178 H 0.50607 0.72193 1.08871 0.0
C2179 C 0.62748 0.72049 1.12277 0.0
C2180 C 0.71846 0.70785 0.40799 0.0
C2181 C 0.73702 0.721 0.43774 0.0
H2182 H 0.73248 0.69675 0.35681 0.0
C2183 C 0.78942 0.73288 0.43554 0.0
H2184 H 0.67953 0.6976 0.40753 0.0
C2185 C 0.82012 0.7325 0.40591 0.0
C2186 C 0.80092 0.72043 0.37587 0.0
H2187 H 0.80721 0.74298 0.45705 0.0
H2188 H 0.85936 0.74232 0.40655 0.0
C2189 C 0.7493 0.70755 0.37822 0.0
C2190 C 0.57675 0.46472 0.40402 0.0
C2191 C 0.58868 0.48487 0.37752 0.0
H2192 H 0.59586 0.44722 0.45234 0.0
C2193 C 0.63255 0.50466 0.38359 0.0
H2194 H 0.54355 0.44914 0.40171 0.0
C2195 C 0.6629 0.50382 0.41349 0.0
C2196 C 0.65226 0.48286 0.43948 0.0
H2197 H 0.64315 0.52154 0.36524 0.0
H2198 H 0.69473 0.5202 0.41647 0.0
C2199 C 0.60751 0.4636 0.43369 0.0
C2200 C 0.35325 0.46952 0.18507 0.0
C2201 C 0.40359 0.48395 0.18771 0.0
H2202 H 0.28662 0.45615 0.15481 0.0
C2203 C 0.42188 0.49761 0.15823 0.0
H2204 H 0.33636 0.45865 0.20647 0.0
C2205 C 0.39188 0.49716 0.12843 0.0
C2206 C 0.34262 0.48169 1.12533 0.0
H2207 H 0.45949 0.50943 0.15825 0.0
H2208 H 0.40767 0.50925 1.1075 0.0
C2209 C 0.32415 0.46806 0.15487 0.0
C2210 C 0.55798 0.23598 0.19239 0.0
C2211 C 0.50191 0.23317 0.19199 0.0
H2212 H 0.63194 0.23782 0.16563 0.0
C2213 C 0.48008 0.22997 0.1602 0.0
H2214 H 0.5779 0.23859 0.21561 0.0
C2215 C 0.51175 0.22946 0.13109 0.0
C2216 C 0.5678 0.23208 0.13139 0.0
H2217 H 0.43778 0.22767 0.15763 0.0
H2218 H 0.49171 0.22677 1.10793 0.0
C2219 C 0.58974 0.23547 0.16317 0.0
C2220 C 0.42299 0.24627 0.84282 0.0
C2221 C 0.40597 0.23129 0.8137 0.0
H2222 H 0.40834 0.25835 0.89351 0.0
C2223 C 0.35535 0.21711 0.81657 0.0
H2224 H 0.46061 0.25809 0.84278 0.0
C2225 C 0.32452 0.2176 0.84615 0.0
C2226 C 0.34223 0.2317 0.87556 0.0
H2227 H 0.33883 0.20549 0.79553 0.0
H2228 H 0.28648 0.20626 0.84602 0.0
C2229 C 0.39253 0.24621 0.87266 0.0
C2230 C 0.57167 0.46823 0.84252 0.0
C2231 C 0.54922 0.4739 0.87379 0.0
H2232 H 0.56176 0.46505 0.78997 0.0
C2233 C 0.49413 0.48033 0.87303 0.0
H2234 H 0.61324 0.4629 0.84088 0.0
C2235 C 0.46375 0.48113 0.84335 0.0
C2236 C 0.48628 0.47584 0.81205 0.0
H2237 H 0.47378 0.48449 0.8958 0.0
H2238 H 0.42203 0.48616 0.84507 0.0
C2239 C 0.54144 0.46943 0.81274 0.0
loop_
_geom_bond_atom_site_label_1
_geom_bond_atom_site_label_2
_geom_bond_distance
_geom_bond_site_symmetry_2
_ccdc_geom_bond_type
Dy0 O3 2.307 . S
Dy0 O5 2.395 1_565 S
Dy0 O6 2.379 . S
Dy0 O8 2.339 . S
Dy0 O10 2.298 . S
Dy0 O14 2.275 1_565 S
Dy0 C22 2.738 . S
Dy1 O4 2.298 . S
Dy1 O7 2.275 1_545 S
Dy1 O9 2.307 . S
Dy1 O11 2.395 1_545 S
Dy1 O12 2.379 . S
Dy1 O15 2.339 . S
Dy1 C31 2.738 1_554 S
C2 O14 1.254 . S
C2 O15 1.257 . S
O3 Dy0 2.307 . S
O3 C13 1.266 1_565 S
O4 Dy1 2.298 . S
O4 C13 1.236 . S
O5 Dy0 2.395 1_545 S
O5 C22 1.255 1_545 S
O6 Dy0 2.379 . S
O6 C22 1.249 . S
O7 Dy1 2.275 1_565 S
O7 C23 1.254 . S
O8 Dy0 2.339 . S
O8 C23 1.257 . S
O9 Dy1 2.307 . S
O9 C24 1.266 . S
O10 Dy0 2.298 . S
O10 C24 1.236 1_565 S
O11 Dy1 2.395 1_565 S
O11 C31 1.255 1_564 S
O12 Dy1 2.379 . S
O12 C31 1.249 1_554 S
C13 O3 1.266 1_545 S
C13 O4 1.236 . S
O14 Dy0 2.275 1_545 S
O14 C2 1.254 . S
O15 Dy1 2.339 . S
O15 C2 1.257 . S
C16 C19 1.344 1_565 S
C16 C20 1.328 . S
C16 C22 1.516 . S
C17 C18 1.304 1_565 S
C17 C21 1.323 . S
C18 C17 1.304 1_545 S
C18 C19 1.371 . S
C18 H32 0.930 . S
C19 C16 1.344 1_545 S
C19 C18 1.371 . S
C19 H33 0.931 . S
C20 C16 1.328 . S
C20 C21 1.433 . S
C20 H34 0.931 . S
C21 C17 1.323 . S
C21 C20 1.433 . S
C21 H35 0.933 . S
C22 Dy0 2.738 . S
C22 O5 1.255 1_565 S
C22 O6 1.249 . S
C22 C16 1.516 . S
C23 O7 1.254 . S
C23 O8 1.257 . S
C24 O9 1.266 . S
C24 O10 1.236 1_545 S
C25 C28 1.344 1_545 S
C25 C29 1.328 . S
C25 C31 1.516 . S
C26 C27 1.304 1_545 S
C26 C30 1.323 . S
C27 C26 1.304 1_565 S
C27 C28 1.371 . S
C27 H36 0.930 . S
C28 C25 1.344 1_565 S
C28 C27 1.371 . S
C28 H37 0.931 . S
C29 C25 1.328 . S
C29 C30 1.433 . S
C29 H38 0.931 . S
C30 C26 1.323 . S
C30 C29 1.433 . S
C30 H39 0.933 . S
C31 Dy1 2.738 1_556 S
C31 O11 1.255 1_546 S
C31 O12 1.249 1_556 S
C31 C25 1.516 . S
H32 C18 0.930 . S
H33 C19 0.931 . S
H34 C20 0.931 . S
H35 C21 0.933 . S
H36 C27 0.930 . S
H37 C28 0.931 . S
H38 C29 0.931 . S
H39 C30 0.933 . S
Dy40 O43 2.307 . S
Dy40 O45 2.395 . S
Dy40 O46 2.379 . S
Dy40 O48 2.339 . S
Dy40 O50 2.298 . S
Dy40 O54 2.275 . S
Dy40 C62 2.738 . S
Dy41 O44 2.298 . S
Dy41 O47 2.275 . S
Dy41 O49 2.307 . S
Dy41 O51 2.395 . S
Dy41 O52 2.379 . S
Dy41 O55 2.339 . S
Dy41 C71 2.738 1_554 S
C42 O54 1.254 . S
C42 O55 1.257 . S
O43 Dy40 2.307 . S
O43 C53 1.266 . S
O44 Dy41 2.298 . S
O44 C53 1.236 . S
O45 Dy40 2.395 . S
O45 C62 1.255 . S
O46 Dy40 2.379 . S
O46 C62 1.249 . S
O47 Dy41 2.275 . S
O47 C63 1.254 . S
O48 Dy40 2.339 . S
O48 C63 1.257 . S
O49 Dy41 2.307 . S
O49 C64 1.266 . S
O50 Dy40 2.298 . S
O50 C64 1.236 . S
O51 Dy41 2.395 . S
O51 C71 1.255 1_554 S
O52 Dy41 2.379 . S
O52 C71 1.249 1_554 S
C53 O43 1.266 . S
C53 O44 1.236 . S
O54 Dy40 2.275 . S
O54 C42 1.254 . S
O55 Dy41 2.339 . S
O55 C42 1.257 . S
C56 C59 1.344 . S
C56 C60 1.328 . S
C56 C62 1.516 . S
C57 C58 1.304 . S
C57 C61 1.323 1_655 S
C58 C57 1.304 . S
C58 C59 1.371 . S
C58 H72 0.930 . S
C59 C56 1.344 . S
C59 C58 1.371 . S
C59 H73 0.931 . S
C60 C56 1.328 . S
C60 C61 1.433 1_655 S
C60 H74 0.931 . S
C61 C57 1.323 1_455 S
C61 C60 1.433 1_455 S
C61 H75 0.933 . S
C62 Dy40 2.738 . S
C62 O45 1.255 . S
C62 O46 1.249 . S
C62 C56 1.516 . S
C63 O47 1.254 . S
C63 O48 1.257 . S
C64 O49 1.266 . S
C64 O50 1.236 . S
C65 C68 1.344 . S
C65 C69 1.328 . S
C65 C71 1.516 . S
C66 C67 1.304 . S
C66 C70 1.323 . S
C67 C66 1.304 . S
C67 C68 1.371 . S
C67 H76 0.930 . S
C68 C65 1.344 . S
C68 C67 1.371 . S
C68 H77 0.931 . S
C69 C65 1.328 . S
C69 C70 1.433 . S
C69 H78 0.931 . S
C70 C66 1.323 . S
C70 C69 1.433 . S
C70 H79 0.933 . S
C71 Dy41 2.738 1_556 S
C71 O51 1.255 1_556 S
C71 O52 1.249 1_556 S
C71 C65 1.516 . S
H72 C58 0.930 . S
H73 C59 0.931 . S
H74 C60 0.931 . S
H75 C61 0.933 . S
H76 C67 0.930 . S
H77 C68 0.931 . S
H78 C69 0.931 . S
H79 C70 0.933 . S
Dy80 O83 2.307 . S
Dy80 O85 2.395 . S
Dy80 O86 2.379 . S
Dy80 O88 2.339 . S
Dy80 O90 2.298 . S
Dy80 O94 2.275 . S
Dy80 C102 2.738 . S
Dy81 O84 2.298 . S
Dy81 O87 2.275 . S
Dy81 O89 2.307 . S
Dy81 O91 2.395 . S
Dy81 O92 2.379 . S
Dy81 O95 2.339 . S
Dy81 C111 2.738 . S
C82 O94 1.254 . S
C82 O95 1.257 . S
O83 Dy80 2.307 . S
O83 C93 1.266 . S
O84 Dy81 2.298 . S
O84 C93 1.236 . S
O85 Dy80 2.395 . S
O85 C102 1.255 . S
O86 Dy80 2.379 . S
O86 C102 1.249 . S
O87 Dy81 2.275 . S
O87 C103 1.254 . S
O88 Dy80 2.339 . S
O88 C103 1.257 . S
O89 Dy81 2.307 . S
O89 C104 1.266 . S
O90 Dy80 2.298 . S
O90 C104 1.236 . S
O91 Dy81 2.395 . S
O91 C111 1.255 . S
O92 Dy81 2.379 . S
O92 C111 1.249 . S
C93 O83 1.266 . S
C93 O84 1.236 . S
O94 Dy80 2.275 . S
O94 C82 1.254 . S
O95 Dy81 2.339 . S
O95 C82 1.257 . S
C96 C99 1.344 . S
C96 C100 1.328 . S
C96 C102 1.516 . S
C97 C98 1.304 . S
C97 C101 1.323 . S
C98 C97 1.304 . S
C98 C99 1.371 . S
C98 H112 0.930 . S
C99 C96 1.344 . S
C99 C98 1.371 . S
C99 H113 0.931 . S
C100 C96 1.328 . S
C100 C101 1.433 . S
C100 H114 0.931 . S
C101 C97 1.323 . S
C101 C100 1.433 . S
C101 H115 0.933 . S
C102 Dy80 2.738 . S
C102 O85 1.255 . S
C102 O86 1.249 . S
C102 C96 1.516 . S
C103 O87 1.254 . S
C103 O88 1.257 . S
C104 O89 1.266 . S
C104 O90 1.236 . S
C105 C108 1.344 . S
C105 C109 1.328 . S
C105 C111 1.516 . S
C106 C107 1.304 . S
C106 C110 1.323 . S
C107 C106 1.304 . S
C107 C108 1.371 . S
C107 H116 0.930 . S
C108 C105 1.344 . S
C108 C107 1.371 . S
C108 H117 0.931 . S
C109 C105 1.328 . S
C109 C110 1.433 . S
C109 H118 0.931 . S
C110 C106 1.323 . S
C110 C109 1.433 . S
C110 H119 0.933 . S
C111 Dy81 2.738 . S
C111 O91 1.255 . S
C111 O92 1.249 . S
C111 C105 1.516 . S
H112 C98 0.930 . S
H113 C99 0.931 . S
H114 C100 0.931 . S
H115 C101 0.933 . S
H116 C107 0.930 . S
H117 C108 0.931 . S
H118 C109 0.931 . S
H119 C110 0.933 . S
Dy120 O123 2.307 . S
Dy120 O125 2.395 1_565 S
Dy120 O126 2.379 . S
Dy120 O128 2.339 . S
Dy120 O130 2.298 . S
Dy120 O134 2.275 1_565 S
Dy120 C142 2.738 . S
Dy121 O124 2.298 . S
Dy121 O127 2.275 1_545 S
Dy121 O129 2.307 . S
Dy121 O131 2.395 1_545 S
Dy121 O132 2.379 . S
Dy121 O135 2.339 . S
Dy121 C151 2.738 . S
C122 O134 1.254 . S
C122 O135 1.257 . S
O123 Dy120 2.307 . S
O123 C133 1.266 1_565 S
O124 Dy121 2.298 . S
O124 C133 1.236 . S
O125 Dy120 2.395 1_545 S
O125 C142 1.255 1_545 S
O126 Dy120 2.379 . S
O126 C142 1.249 . S
O127 Dy121 2.275 1_565 S
O127 C143 1.254 . S
O128 Dy120 2.339 . S
O128 C143 1.257 . S
O129 Dy121 2.307 . S
O129 C144 1.266 . S
O130 Dy120 2.298 . S
O130 C144 1.236 1_565 S
O131 Dy121 2.395 1_565 S
O131 C151 1.255 1_565 S
O132 Dy121 2.379 . S
O132 C151 1.249 . S
C133 O123 1.266 1_545 S
C133 O124 1.236 . S
O134 Dy120 2.275 1_545 S
O134 C122 1.254 . S
O135 Dy121 2.339 . S
O135 C122 1.257 . S
C136 C139 1.344 1_565 S
C136 C140 1.328 . S
C136 C142 1.516 . S
C137 C138 1.304 1_565 S
C137 C141 1.323 1_655 S
C138 C137 1.304 1_545 S
C138 C139 1.371 . S
C138 H152 0.930 . S
C139 C136 1.344 1_545 S
C139 C138 1.371 . S
C139 H153 0.931 . S
C140 C136 1.328 . S
C140 C141 1.433 1_655 S
C140 H154 0.931 . S
C141 C137 1.323 1_455 S
C141 C140 1.433 1_455 S
C141 H155 0.933 . S
C142 Dy120 2.738 . S
C142 O125 1.255 1_565 S
C142 O126 1.249 . S
C142 C136 1.516 . S
C143 O127 1.254 . S
C143 O128 1.257 . S
C144 O129 1.266 . S
C144 O130 1.236 1_545 S
C145 C148 1.344 1_545 S
C145 C149 1.328 . S
C145 C151 1.516 . S
C146 C147 1.304 1_545 S
C146 C150 1.323 . S
C147 C146 1.304 1_565 S
C147 C148 1.371 . S
C147 H156 0.930 . S
C148 C145 1.344 1_565 S
C148 C147 1.371 . S
C148 H157 0.931 . S
C149 C145 1.328 . S
C149 C150 1.433 . S
C149 H158 0.931 . S
C150 C146 1.323 . S
C150 C149 1.433 . S
C150 H159 0.933 . S
C151 Dy121 2.738 . S
C151 O131 1.255 1_545 S
C151 O132 1.249 . S
C151 C145 1.516 . S
H152 C138 0.930 . S
H153 C139 0.931 . S
H154 C140 0.931 . S
H155 C141 0.933 . S
H156 C147 0.930 . S
H157 C148 0.931 . S
H158 C149 0.931 . S
H159 C150 0.933 . S
Dy160 O163 2.307 . S
Dy160 O165 2.395 1_565 S
Dy160 O166 2.379 . S
Dy160 O168 2.339 . S
Dy160 O170 2.298 . S
Dy160 O174 2.275 1_565 S
Dy160 C182 2.738 1_556 S
Dy161 O164 2.298 . S
Dy161 O167 2.275 1_545 S
Dy161 O169 2.307 . S
Dy161 O171 2.395 1_545 S
Dy161 O172 2.379 . S
Dy161 O175 2.339 . S
Dy161 C191 2.738 . S
C162 O174 1.254 . S
C162 O175 1.257 . S
O163 Dy160 2.307 . S
O163 C173 1.266 . S
O164 Dy161 2.298 . S
O164 C173 1.236 1_545 S
O165 Dy160 2.395 1_545 S
O165 C182 1.255 1_546 S
O166 Dy160 2.379 . S
O166 C182 1.249 1_556 S
O167 Dy161 2.275 1_565 S
O167 C183 1.254 . S
O168 Dy160 2.339 . S
O168 C183 1.257 . S
O169 Dy161 2.307 . S
O169 C184 1.266 1_545 S
O170 Dy160 2.298 . S
O170 C184 1.236 . S
O171 Dy161 2.395 1_565 S
O171 C191 1.255 1_565 S
O172 Dy161 2.379 . S
O172 C191 1.249 . S
C173 O163 1.266 . S
C173 O164 1.236 1_565 S
O174 Dy160 2.275 1_545 S
O174 C162 1.254 . S
O175 Dy161 2.339 . S
O175 C162 1.257 . S
C176 C179 1.344 1_565 S
C176 C180 1.328 . S
C176 C182 1.516 . S
C177 C178 1.304 1_565 S
C177 C181 1.323 . S
C178 C177 1.304 1_545 S
C178 C179 1.371 . S
C178 H192 0.930 . S
C179 C176 1.344 1_545 S
C179 C178 1.371 . S
C179 H193 0.931 . S
C180 C176 1.328 . S
C180 C181 1.433 . S
C180 H194 0.931 . S
C181 C177 1.323 . S
C181 C180 1.433 . S
C181 H195 0.933 . S
C182 Dy160 2.738 1_554 S
C182 O165 1.255 1_564 S
C182 O166 1.249 1_554 S
C182 C176 1.516 . S
C183 O167 1.254 . S
C183 O168 1.257 . S
C184 O169 1.266 1_565 S
C184 O170 1.236 . S
C185 C188 1.344 1_545 S
C185 C189 1.328 . S
C185 C191 1.516 . S
C186 C187 1.304 1_545 S
C186 C190 1.323 . S
C187 C186 1.304 1_565 S
C187 C188 1.371 . S
C187 H196 0.930 . S
C188 C185 1.344 1_565 S
C188 C187 1.371 . S
C188 H197 0.931 . S
C189 C185 1.328 . S
C189 C190 1.433 . S
C189 H198 0.931 . S
C190 C186 1.323 . S
C190 C189 1.433 . S
C190 H199 0.933 . S
C191 Dy161 2.738 . S
C191 O171 1.255 1_545 S
C191 O172 1.249 . S
C191 C185 1.516 . S
H192 C178 0.930 . S
H193 C179 0.931 . S
H194 C180 0.931 . S
H195 C181 0.933 . S
H196 C187 0.930 . S
H197 C188 0.931 . S
H198 C189 0.931 . S
H199 C190 0.933 . S
Dy200 O203 2.307 . S
Dy200 O205 2.395 . S
Dy200 O206 2.379 . S
Dy200 O208 2.339 . S
Dy200 O210 2.298 . S
Dy200 O214 2.275 . S
Dy200 C222 2.738 1_556 S
Dy201 O204 2.298 . S
Dy201 O207 2.275 . S
Dy201 O209 2.307 . S
Dy201 O211 2.395 . S
Dy201 O212 2.379 . S
Dy201 O215 2.339 . S
Dy201 C231 2.738 . S
C202 O214 1.254 . S
C202 O215 1.257 . S
O203 Dy200 2.307 . S
O203 C213 1.266 . S
O204 Dy201 2.298 . S
O204 C213 1.236 . S
O205 Dy200 2.395 . S
O205 C222 1.255 1_556 S
O206 Dy200 2.379 . S
O206 C222 1.249 1_556 S
O207 Dy201 2.275 . S
O207 C223 1.254 . S
O208 Dy200 2.339 . S
O208 C223 1.257 . S
O209 Dy201 2.307 . S
O209 C224 1.266 . S
O210 Dy200 2.298 . S
O210 C224 1.236 . S
O211 Dy201 2.395 . S
O211 C231 1.255 . S
O212 Dy201 2.379 . S
O212 C231 1.249 . S
C213 O203 1.266 . S
C213 O204 1.236 . S
O214 Dy200 2.275 . S
O214 C202 1.254 . S
O215 Dy201 2.339 . S
O215 C202 1.257 . S
C216 C219 1.344 . S
C216 C220 1.328 . S
C216 C222 1.516 . S
C217 C218 1.304 . S
C217 C221 1.323 . S
C218 C217 1.304 . S
C218 C219 1.371 . S
C218 H232 0.930 . S
C219 C216 1.344 . S
C219 C218 1.371 . S
C219 H233 0.931 . S
C220 C216 1.328 . S
C220 C221 1.433 . S
C220 H234 0.931 . S
C221 C217 1.323 . S
C221 C220 1.433 . S
C221 H235 0.933 . S
C222 Dy200 2.738 1_554 S
C222 O205 1.255 1_554 S
C222 O206 1.249 1_554 S
C222 C216 1.516 . S
C223 O207 1.254 . S
C223 O208 1.257 . S
C224 O209 1.266 . S
C224 O210 1.236 . S
C225 C228 1.344 . S
C225 C229 1.328 . S
C225 C231 1.516 . S
C226 C227 1.304 . S
C226 C230 1.323 1_455 S
C227 C226 1.304 . S
C227 C228 1.371 . S
C227 H236 0.930 . S
C228 C225 1.344 . S
C228 C227 1.371 . S
C228 H237 0.931 . S
C229 C225 1.328 . S
C229 C230 1.433 1_455 S
C229 H238 0.931 . S
C230 C226 1.323 1_655 S
C230 C229 1.433 1_655 S
C230 H239 0.933 . S
C231 Dy201 2.738 . S
C231 O211 1.255 . S
C231 O212 1.249 . S
C231 C225 1.516 . S
H232 C218 0.930 . S
H233 C219 0.931 . S
H234 C220 0.931 . S
H235 C221 0.933 . S
H236 C227 0.930 . S
H237 C228 0.931 . S
H238 C229 0.931 . S
H239 C230 0.933 . S
Dy240 O243 2.307 . S
Dy240 O245 2.395 . S
Dy240 O246 2.379 . S
Dy240 O248 2.339 . S
Dy240 O250 2.298 . S
Dy240 O254 2.275 . S
Dy240 C262 2.738 . S
Dy241 O244 2.298 . S
Dy241 O247 2.275 . S
Dy241 O249 2.307 . S
Dy241 O251 2.395 . S
Dy241 O252 2.379 . S
Dy241 O255 2.339 . S
Dy241 C271 2.738 . S
C242 O254 1.254 . S
C242 O255 1.257 . S
O243 Dy240 2.307 . S
O243 C253 1.266 . S
O244 Dy241 2.298 . S
O244 C253 1.236 . S
O245 Dy240 2.395 . S
O245 C262 1.255 . S
O246 Dy240 2.379 . S
O246 C262 1.249 . S
O247 Dy241 2.275 . S
O247 C263 1.254 . S
O248 Dy240 2.339 . S
O248 C263 1.257 . S
O249 Dy241 2.307 . S
O249 C264 1.266 . S
O250 Dy240 2.298 . S
O250 C264 1.236 . S
O251 Dy241 2.395 . S
O251 C271 1.255 . S
O252 Dy241 2.379 . S
O252 C271 1.249 . S
C253 O243 1.266 . S
C253 O244 1.236 . S
O254 Dy240 2.275 . S
O254 C242 1.254 . S
O255 Dy241 2.339 . S
O255 C242 1.257 . S
C256 C259 1.344 . S
C256 C260 1.328 . S
C256 C262 1.516 . S
C257 C258 1.304 . S
C257 C261 1.323 . S
C258 C257 1.304 . S
C258 C259 1.371 . S
C258 H272 0.930 . S
C259 C256 1.344 . S
C259 C258 1.371 . S
C259 H273 0.931 . S
C260 C256 1.328 . S
C260 C261 1.433 . S
C260 H274 0.931 . S
C261 C257 1.323 . S
C261 C260 1.433 . S
C261 H275 0.933 . S
C262 Dy240 2.738 . S
C262 O245 1.255 . S
C262 O246 1.249 . S
C262 C256 1.516 . S
C263 O247 1.254 . S
C263 O248 1.257 . S
C264 O249 1.266 . S
C264 O250 1.236 . S
C265 C268 1.344 . S
C265 C269 1.328 . S
C265 C271 1.516 . S
C266 C267 1.304 . S
C266 C270 1.323 . S
C267 C266 1.304 . S
C267 C268 1.371 . S
C267 H276 0.930 . S
C268 C265 1.344 . S
C268 C267 1.371 . S
C268 H277 0.931 . S
C269 C265 1.328 . S
C269 C270 1.433 . S
C269 H278 0.931 . S
C270 C266 1.323 . S
C270 C269 1.433 . S
C270 H279 0.933 . S
C271 Dy241 2.738 . S
C271 O251 1.255 . S
C271 O252 1.249 . S
C271 C265 1.516 . S
H272 C258 0.930 . S
H273 C259 0.931 . S
H274 C260 0.931 . S
H275 C261 0.933 . S
H276 C267 0.930 . S
H277 C268 0.931 . S
H278 C269 0.931 . S
H279 C270 0.933 . S
Dy280 O283 2.307 . S
Dy280 O285 2.395 1_565 S
Dy280 O286 2.379 . S
Dy280 O288 2.339 . S
Dy280 O290 2.298 . S
Dy280 O294 2.275 1_565 S
Dy280 C302 2.738 . S
Dy281 O284 2.298 . S
Dy281 O287 2.275 1_545 S
Dy281 O289 2.307 . S
Dy281 O291 2.395 1_545 S
Dy281 O292 2.379 . S
Dy281 O295 2.339 . S
Dy281 C311 2.738 . S
C282 O294 1.254 . S
C282 O295 1.257 . S
O283 Dy280 2.307 . S
O283 C293 1.266 . S
O284 Dy281 2.298 . S
O284 C293 1.236 1_545 S
O285 Dy280 2.395 1_545 S
O285 C302 1.255 1_545 S
O286 Dy280 2.379 . S
O286 C302 1.249 . S
O287 Dy281 2.275 1_565 S
O287 C303 1.254 . S
O288 Dy280 2.339 . S
O288 C303 1.257 . S
O289 Dy281 2.307 . S
O289 C304 1.266 1_545 S
O290 Dy280 2.298 . S
O290 C304 1.236 . S
O291 Dy281 2.395 1_565 S
O291 C311 1.255 1_565 S
O292 Dy281 2.379 . S
O292 C311 1.249 . S
C293 O283 1.266 . S
C293 O284 1.236 1_565 S
O294 Dy280 2.275 1_545 S
O294 C282 1.254 . S
O295 Dy281 2.339 . S
O295 C282 1.257 . S
C296 C299 1.344 1_565 S
C296 C300 1.328 . S
C296 C302 1.516 . S
C297 C298 1.304 1_565 S
C297 C301 1.323 . S
C298 C297 1.304 1_545 S
C298 C299 1.371 . S
C298 H312 0.930 . S
C299 C296 1.344 1_545 S
C299 C298 1.371 . S
C299 H313 0.931 . S
C300 C296 1.328 . S
C300 C301 1.433 . S
C300 H314 0.931 . S
C301 C297 1.323 . S
C301 C300 1.433 . S
C301 H315 0.933 . S
C302 Dy280 2.738 . S
C302 O285 1.255 1_565 S
C302 O286 1.249 . S
C302 C296 1.516 . S
C303 O287 1.254 . S
C303 O288 1.257 . S
C304 O289 1.266 1_565 S
C304 O290 1.236 . S
C305 C308 1.344 1_545 S
C305 C309 1.328 . S
C305 C311 1.516 . S
C306 C307 1.304 1_545 S
C306 C310 1.323 1_455 S
C307 C306 1.304 1_565 S
C307 C308 1.371 . S
C307 H316 0.930 . S
C308 C305 1.344 1_565 S
C308 C307 1.371 . S
C308 H317 0.931 . S
C309 C305 1.328 . S
C309 C310 1.433 1_455 S
C309 H318 0.931 . S
C310 C306 1.323 1_655 S
C310 C309 1.433 1_655 S
C310 H319 0.933 . S
C311 Dy281 2.738 . S
C311 O291 1.255 1_545 S
C311 O292 1.249 . S
C311 C305 1.516 . S
H312 C298 0.930 . S
H313 C299 0.931 . S
H314 C300 0.931 . S
H315 C301 0.933 . S
H316 C307 0.930 . S
H317 C308 0.931 . S
H318 C309 0.931 . S
H319 C310 0.933 . S
Dy320 O323 2.307 . S
Dy320 O325 2.395 . S
Dy320 O326 2.379 . S
Dy320 O328 2.339 . S
Dy320 O330 2.298 . S
Dy320 O334 2.275 . S
Dy320 C342 2.738 . S
Dy321 O324 2.298 . S
Dy321 O327 2.275 . S
Dy321 O329 2.307 . S
Dy321 O331 2.395 . S
Dy321 O332 2.379 . S
Dy321 O335 2.339 . S
Dy321 C351 2.738 . S
C322 O334 1.254 . S
C322 O335 1.257 . S
O323 Dy320 2.307 . S
O323 C333 1.266 . S
O324 Dy321 2.298 . S
O324 C333 1.236 . S
O325 Dy320 2.395 . S
O325 C342 1.255 . S
O326 Dy320 2.379 . S
O326 C342 1.249 . S
O327 Dy321 2.275 . S
O327 C343 1.254 . S
O328 Dy320 2.339 . S
O328 C343 1.257 . S
O329 Dy321 2.307 . S
O329 C344 1.266 . S
O330 Dy320 2.298 . S
O330 C344 1.236 . S
O331 Dy321 2.395 . S
O331 C351 1.255 . S
O332 Dy321 2.379 . S
O332 C351 1.249 . S
C333 O323 1.266 . S
C333 O324 1.236 . S
O334 Dy320 2.275 . S
O334 C322 1.254 . S
O335 Dy321 2.339 . S
O335 C322 1.257 . S
C336 C339 1.344 . S
C336 C340 1.328 . S
C336 C342 1.516 . S
C337 C338 1.304 . S
C337 C341 1.323 . S
C338 C337 1.304 . S
C338 C339 1.371 . S
C338 H352 0.930 . S
C339 C336 1.344 . S
C339 C338 1.371 . S
C339 H353 0.931 . S
C340 C336 1.328 . S
C340 C341 1.433 . S
C340 H354 0.931 . S
C341 C337 1.323 . S
C341 C340 1.433 . S
C341 H355 0.933 . S
C342 Dy320 2.738 . S
C342 O325 1.255 . S
C342 O326 1.249 . S
C342 C336 1.516 . S
C343 O327 1.254 . S
C343 O328 1.257 . S
C344 O329 1.266 . S
C344 O330 1.236 . S
C345 C348 1.344 . S
C345 C349 1.328 . S
C345 C351 1.516 . S
C346 C347 1.304 . S
C346 C350 1.323 . S
C347 C346 1.304 . S
C347 C348 1.371 . S
C347 H356 0.930 . S
C348 C345 1.344 . S
C348 C347 1.371 . S
C348 H357 0.931 . S
C349 C345 1.328 . S
C349 C350 1.433 . S
C349 H358 0.931 . S
C350 C346 1.323 . S
C350 C349 1.433 . S
C350 H359 0.933 . S
C351 Dy321 2.738 . S
C351 O331 1.255 . S
C351 O332 1.249 . S
C351 C345 1.516 . S
H352 C338 0.930 . S
H353 C339 0.931 . S
H354 C340 0.931 . S
H355 C341 0.933 . S
H356 C347 0.930 . S
H357 C348 0.931 . S
H358 C349 0.931 . S
H359 C350 0.933 . S
Dy360 O363 2.307 . S
Dy360 O365 2.395 . S
Dy360 O366 2.379 . S
Dy360 O368 2.339 . S
Dy360 O370 2.298 . S
Dy360 O374 2.275 . S
Dy360 C382 2.738 . S
Dy361 O364 2.298 . S
Dy361 O367 2.275 . S
Dy361 O369 2.307 . S
Dy361 O371 2.395 . S
Dy361 O372 2.379 . S
Dy361 O375 2.339 . S
Dy361 C391 2.738 . S
C362 O374 1.254 . S
C362 O375 1.257 . S
O363 Dy360 2.307 . S
O363 C373 1.266 . S
O364 Dy361 2.298 . S
O364 C373 1.236 . S
O365 Dy360 2.395 . S
O365 C382 1.255 . S
O366 Dy360 2.379 . S
O366 C382 1.249 . S
O367 Dy361 2.275 . S
O367 C383 1.254 . S
O368 Dy360 2.339 . S
O368 C383 1.257 . S
O369 Dy361 2.307 . S
O369 C384 1.266 . S
O370 Dy360 2.298 . S
O370 C384 1.236 . S
O371 Dy361 2.395 . S
O371 C391 1.255 . S
O372 Dy361 2.379 . S
O372 C391 1.249 . S
C373 O363 1.266 . S
C373 O364 1.236 . S
O374 Dy360 2.275 . S
O374 C362 1.254 . S
O375 Dy361 2.339 . S
O375 C362 1.257 . S
C376 C379 1.344 . S
C376 C380 1.328 . S
C376 C382 1.516 . S
C377 C378 1.304 . S
C377 C381 1.323 1_655 S
C378 C377 1.304 . S
C378 C379 1.371 . S
C378 H392 0.930 . S
C379 C376 1.344 . S
C379 C378 1.371 . S
C379 H393 0.931 . S
C380 C376 1.328 . S
C380 C381 1.433 1_655 S
C380 H394 0.931 . S
C381 C377 1.323 1_455 S
C381 C380 1.433 1_455 S
C381 H395 0.933 . S
C382 Dy360 2.738 . S
C382 O365 1.255 . S
C382 O366 1.249 . S
C382 C376 1.516 . S
C383 O367 1.254 . S
C383 O368 1.257 . S
C384 O369 1.266 . S
C384 O370 1.236 . S
C385 C388 1.344 . S
C385 C389 1.328 . S
C385 C391 1.516 . S
C386 C387 1.304 . S
C386 C390 1.323 . S
C387 C386 1.304 . S
C387 C388 1.371 . S
C387 H396 0.930 . S
C388 C385 1.344 . S
C388 C387 1.371 . S
C388 H397 0.931 . S
C389 C385 1.328 . S
C389 C390 1.433 . S
C389 H398 0.931 . S
C390 C386 1.323 . S
C390 C389 1.433 . S
C390 H399 0.933 . S
C391 Dy361 2.738 . S
C391 O371 1.255 . S
C391 O372 1.249 . S
C391 C385 1.516 . S
H392 C378 0.930 . S
H393 C379 0.931 . S
H394 C380 0.931 . S
H395 C381 0.933 . S
H396 C387 0.930 . S
H397 C388 0.931 . S
H398 C389 0.931 . S
H399 C390 0.933 . S
Dy400 O403 2.307 . S
Dy400 O405 2.395 . S
Dy400 O406 2.379 . S
Dy400 O408 2.339 . S
Dy400 O410 2.298 . S
Dy400 O414 2.275 . S
Dy400 C422 2.738 . S
Dy401 O404 2.298 . S
Dy401 O407 2.275 . S
Dy401 O409 2.307 . S
Dy401 O411 2.395 . S
Dy401 O412 2.379 . S
Dy401 O415 2.339 . S
Dy401 C431 2.738 . S
C402 O414 1.254 . S
C402 O415 1.257 . S
O403 Dy400 2.307 . S
O403 C413 1.266 . S
O404 Dy401 2.298 . S
O404 C413 1.236 . S
O405 Dy400 2.395 . S
O405 C422 1.255 . S
O406 Dy400 2.379 . S
O406 C422 1.249 . S
O407 Dy401 2.275 . S
O407 C423 1.254 . S
O408 Dy400 2.339 . S
O408 C423 1.257 . S
O409 Dy401 2.307 . S
O409 C424 1.266 . S
O410 Dy400 2.298 . S
O410 C424 1.236 . S
O411 Dy401 2.395 . S
O411 C431 1.255 . S
O412 Dy401 2.379 . S
O412 C431 1.249 . S
C413 O403 1.266 . S
C413 O404 1.236 . S
O414 Dy400 2.275 . S
O414 C402 1.254 . S
O415 Dy401 2.339 . S
O415 C402 1.257 . S
C416 C419 1.344 . S
C416 C420 1.328 . S
C416 C422 1.516 . S
C417 C418 1.304 . S
C417 C421 1.323 . S
C418 C417 1.304 . S
C418 C419 1.371 . S
C418 H432 0.930 . S
C419 C416 1.344 . S
C419 C418 1.371 . S
C419 H433 0.931 . S
C420 C416 1.328 . S
C420 C421 1.433 . S
C420 H434 0.931 . S
C421 C417 1.323 . S
C421 C420 1.433 . S
C421 H435 0.933 . S
C422 Dy400 2.738 . S
C422 O405 1.255 . S
C422 O406 1.249 . S
C422 C416 1.516 . S
C423 O407 1.254 . S
C423 O408 1.257 . S
C424 O409 1.266 . S
C424 O410 1.236 . S
C425 C428 1.344 . S
C425 C429 1.328 . S
C425 C431 1.516 . S
C426 C427 1.304 . S
C426 C430 1.323 . S
C427 C426 1.304 . S
C427 C428 1.371 . S
C427 H436 0.930 . S
C428 C425 1.344 . S
C428 C427 1.371 . S
C428 H437 0.931 . S
C429 C425 1.328 . S
C429 C430 1.433 . S
C429 H438 0.931 . S
C430 C426 1.323 . S
C430 C429 1.433 . S
C430 H439 0.933 . S
C431 Dy401 2.738 . S
C431 O411 1.255 . S
C431 O412 1.249 . S
C431 C425 1.516 . S
H432 C418 0.930 . S
H433 C419 0.931 . S
H434 C420 0.931 . S
H435 C421 0.933 . S
H436 C427 0.930 . S
H437 C428 0.931 . S
H438 C429 0.931 . S
H439 C430 0.933 . S
Dy440 O443 2.307 . S
Dy440 O445 2.395 . S
Dy440 O446 2.379 . S
Dy440 O448 2.339 . S
Dy440 O450 2.298 . S
Dy440 O454 2.275 . S
Dy440 C462 2.738 . S
Dy441 O444 2.298 . S
Dy441 O447 2.275 . S
Dy441 O449 2.307 . S
Dy441 O451 2.395 . S
Dy441 O452 2.379 . S
Dy441 O455 2.339 . S
Dy441 C471 2.738 . S
C442 O454 1.254 . S
C442 O455 1.257 . S
O443 Dy440 2.307 . S
O443 C453 1.266 . S
O444 Dy441 2.298 . S
O444 C453 1.236 . S
O445 Dy440 2.395 . S
O445 C462 1.255 . S
O446 Dy440 2.379 . S
O446 C462 1.249 . S
O447 Dy441 2.275 . S
O447 C463 1.254 . S
O448 Dy440 2.339 . S
O448 C463 1.257 . S
O449 Dy441 2.307 . S
O449 C464 1.266 . S
O450 Dy440 2.298 . S
O450 C464 1.236 . S
O451 Dy441 2.395 . S
O451 C471 1.255 . S
O452 Dy441 2.379 . S
O452 C471 1.249 . S
C453 O443 1.266 . S
C453 O444 1.236 . S
O454 Dy440 2.275 . S
O454 C442 1.254 . S
O455 Dy441 2.339 . S
O455 C442 1.257 . S
C456 C459 1.344 . S
C456 C460 1.328 . S
C456 C462 1.516 . S
C457 C458 1.304 . S
C457 C461 1.323 1_655 S
C458 C457 1.304 . S
C458 C459 1.371 . S
C458 H472 0.930 . S
C459 C456 1.344 . S
C459 C458 1.371 . S
C459 H473 0.931 . S
C460 C456 1.328 . S
C460 C461 1.433 1_655 S
C460 H474 0.931 . S
C461 C457 1.323 1_455 S
C461 C460 1.433 1_455 S
C461 H475 0.933 . S
C462 Dy440 2.738 . S
C462 O445 1.255 . S
C462 O446 1.249 . S
C462 C456 1.516 . S
C463 O447 1.254 . S
C463 O448 1.257 . S
C464 O449 1.266 . S
C464 O450 1.236 . S
C465 C468 1.344 . S
C465 C469 1.328 . S
C465 C471 1.516 . S
C466 C467 1.304 . S
C466 C470 1.323 . S
C467 C466 1.304 . S
C467 C468 1.371 . S
C467 H476 0.930 . S
C468 C465 1.344 . S
C468 C467 1.371 . S
C468 H477 0.931 . S
C469 C465 1.328 . S
C469 C470 1.433 . S
C469 H478 0.931 . S
C470 C466 1.323 . S
C470 C469 1.433 . S
C470 H479 0.933 . S
C471 Dy441 2.738 . S
C471 O451 1.255 . S
C471 O452 1.249 . S
C471 C465 1.516 . S
H472 C458 0.930 . S
H473 C459 0.931 . S
H474 C460 0.931 . S
H475 C461 0.933 . S
H476 C467 0.930 . S
H477 C468 0.931 . S
H478 C469 0.931 . S
H479 C470 0.933 . S
Dy480 O483 2.307 . S
Dy480 O485 2.395 . S
Dy480 O486 2.379 . S
Dy480 O488 2.339 . S
Dy480 O490 2.298 . S
Dy480 O494 2.275 . S
Dy480 C502 2.738 . S
Dy481 O484 2.298 . S
Dy481 O487 2.275 . S
Dy481 O489 2.307 . S
Dy481 O491 2.395 . S
Dy481 O492 2.379 . S
Dy481 O495 2.339 . S
Dy481 C511 2.738 . S
C482 O494 1.254 . S
C482 O495 1.257 . S
O483 Dy480 2.307 . S
O483 C493 1.266 . S
O484 Dy481 2.298 . S
O484 C493 1.236 . S
O485 Dy480 2.395 . S
O485 C502 1.255 . S
O486 Dy480 2.379 . S
O486 C502 1.249 . S
O487 Dy481 2.275 . S
O487 C503 1.254 . S
O488 Dy480 2.339 . S
O488 C503 1.257 . S
O489 Dy481 2.307 . S
O489 C504 1.266 . S
O490 Dy480 2.298 . S
O490 C504 1.236 . S
O491 Dy481 2.395 . S
O491 C511 1.255 . S
O492 Dy481 2.379 . S
O492 C511 1.249 . S
C493 O483 1.266 . S
C493 O484 1.236 . S
O494 Dy480 2.275 . S
O494 C482 1.254 . S
O495 Dy481 2.339 . S
O495 C482 1.257 . S
C496 C499 1.344 . S
C496 C500 1.328 . S
C496 C502 1.516 . S
C497 C498 1.304 . S
C497 C501 1.323 . S
C498 C497 1.304 . S
C498 C499 1.371 . S
C498 H512 0.930 . S
C499 C496 1.344 . S
C499 C498 1.371 . S
C499 H513 0.931 . S
C500 C496 1.328 . S
C500 C501 1.433 . S
C500 H514 0.931 . S
C501 C497 1.323 . S
C501 C500 1.433 . S
C501 H515 0.933 . S
C502 Dy480 2.738 . S
C502 O485 1.255 . S
C502 O486 1.249 . S
C502 C496 1.516 . S
C503 O487 1.254 . S
C503 O488 1.257 . S
C504 O489 1.266 . S
C504 O490 1.236 . S
C505 C508 1.344 . S
C505 C509 1.328 . S
C505 C511 1.516 . S
C506 C507 1.304 . S
C506 C510 1.323 . S
C507 C506 1.304 . S
C507 C508 1.371 . S
C507 H516 0.930 . S
C508 C505 1.344 . S
C508 C507 1.371 . S
C508 H517 0.931 . S
C509 C505 1.328 . S
C509 C510 1.433 . S
C509 H518 0.931 . S
C510 C506 1.323 . S
C510 C509 1.433 . S
C510 H519 0.933 . S
C511 Dy481 2.738 . S
C511 O491 1.255 . S
C511 O492 1.249 . S
C511 C505 1.516 . S
H512 C498 0.930 . S
H513 C499 0.931 . S
H514 C500 0.931 . S
H515 C501 0.933 . S
H516 C507 0.930 . S
H517 C508 0.931 . S
H518 C509 0.931 . S
H519 C510 0.933 . S
Dy520 O523 2.307 . S
Dy520 O525 2.395 . S
Dy520 O526 2.379 . S
Dy520 O528 2.339 . S
Dy520 O530 2.298 . S
Dy520 O534 2.275 . S
Dy520 C542 2.738 . S
Dy521 O524 2.298 . S
Dy521 O527 2.275 . S
Dy521 O529 2.307 . S
Dy521 O531 2.395 . S
Dy521 O532 2.379 . S
Dy521 O535 2.339 . S
Dy521 C551 2.738 . S
C522 O534 1.254 . S
C522 O535 1.257 . S
O523 Dy520 2.307 . S
O523 C533 1.266 . S
O524 Dy521 2.298 . S
O524 C533 1.236 . S
O525 Dy520 2.395 . S
O525 C542 1.255 . S
O526 Dy520 2.379 . S
O526 C542 1.249 . S
O527 Dy521 2.275 . S
O527 C543 1.254 . S
O528 Dy520 2.339 . S
O528 C543 1.257 . S
O529 Dy521 2.307 . S
O529 C544 1.266 . S
O530 Dy520 2.298 . S
O530 C544 1.236 . S
O531 Dy521 2.395 . S
O531 C551 1.255 . S
O532 Dy521 2.379 . S
O532 C551 1.249 . S
C533 O523 1.266 . S
C533 O524 1.236 . S
O534 Dy520 2.275 . S
O534 C522 1.254 . S
O535 Dy521 2.339 . S
O535 C522 1.257 . S
C536 C539 1.344 . S
C536 C540 1.328 . S
C536 C542 1.516 . S
C537 C538 1.304 . S
C537 C541 1.323 . S
C538 C537 1.304 . S
C538 C539 1.371 . S
C538 H552 0.930 . S
C539 C536 1.344 . S
C539 C538 1.371 . S
C539 H553 0.931 . S
C540 C536 1.328 . S
C540 C541 1.433 . S
C540 H554 0.931 . S
C541 C537 1.323 . S
C541 C540 1.433 . S
C541 H555 0.933 . S
C542 Dy520 2.738 . S
C542 O525 1.255 . S
C542 O526 1.249 . S
C542 C536 1.516 . S
C543 O527 1.254 . S
C543 O528 1.257 . S
C544 O529 1.266 . S
C544 O530 1.236 . S
C545 C548 1.344 . S
C545 C549 1.328 . S
C545 C551 1.516 . S
C546 C547 1.304 . S
C546 C550 1.323 1_455 S
C547 C546 1.304 . S
C547 C548 1.371 . S
C547 H556 0.930 . S
C548 C545 1.344 . S
C548 C547 1.371 . S
C548 H557 0.931 . S
C549 C545 1.328 . S
C549 C550 1.433 1_455 S
C549 H558 0.931 . S
C550 C546 1.323 1_655 S
C550 C549 1.433 1_655 S
C550 H559 0.933 . S
C551 Dy521 2.738 . S
C551 O531 1.255 . S
C551 O532 1.249 . S
C551 C545 1.516 . S
H552 C538 0.930 . S
H553 C539 0.931 . S
H554 C540 0.931 . S
H555 C541 0.933 . S
H556 C547 0.930 . S
H557 C548 0.931 . S
H558 C549 0.931 . S
H559 C550 0.933 . S
Dy560 O563 2.307 . S
Dy560 O565 2.395 . S
Dy560 O566 2.379 . S
Dy560 O568 2.339 . S
Dy560 O570 2.298 . S
Dy560 O574 2.275 . S
Dy560 C582 2.738 . S
Dy561 O564 2.298 . S
Dy561 O567 2.275 . S
Dy561 O569 2.307 . S
Dy561 O571 2.395 . S
Dy561 O572 2.379 . S
Dy561 O575 2.339 . S
Dy561 C591 2.738 . S
C562 O574 1.254 . S
C562 O575 1.257 . S
O563 Dy560 2.307 . S
O563 C573 1.266 . S
O564 Dy561 2.298 . S
O564 C573 1.236 . S
O565 Dy560 2.395 . S
O565 C582 1.255 . S
O566 Dy560 2.379 . S
O566 C582 1.249 . S
O567 Dy561 2.275 . S
O567 C583 1.254 . S
O568 Dy560 2.339 . S
O568 C583 1.257 . S
O569 Dy561 2.307 . S
O569 C584 1.266 . S
O570 Dy560 2.298 . S
O570 C584 1.236 . S
O571 Dy561 2.395 . S
O571 C591 1.255 . S
O572 Dy561 2.379 . S
O572 C591 1.249 . S
C573 O563 1.266 . S
C573 O564 1.236 . S
O574 Dy560 2.275 . S
O574 C562 1.254 . S
O575 Dy561 2.339 . S
O575 C562 1.257 . S
C576 C579 1.344 . S
C576 C580 1.328 . S
C576 C582 1.516 . S
C577 C578 1.304 . S
C577 C581 1.323 . S
C578 C577 1.304 . S
C578 C579 1.371 . S
C578 H592 0.930 . S
C579 C576 1.344 . S
C579 C578 1.371 . S
C579 H593 0.931 . S
C580 C576 1.328 . S
C580 C581 1.433 . S
C580 H594 0.931 . S
C581 C577 1.323 . S
C581 C580 1.433 . S
C581 H595 0.933 . S
C582 Dy560 2.738 . S
C582 O565 1.255 . S
C582 O566 1.249 . S
C582 C576 1.516 . S
C583 O567 1.254 . S
C583 O568 1.257 . S
C584 O569 1.266 . S
C584 O570 1.236 . S
C585 C588 1.344 . S
C585 C589 1.328 . S
C585 C591 1.516 . S
C586 C587 1.304 . S
C586 C590 1.323 . S
C587 C586 1.304 . S
C587 C588 1.371 . S
C587 H596 0.930 . S
C588 C585 1.344 . S
C588 C587 1.371 . S
C588 H597 0.931 . S
C589 C585 1.328 . S
C589 C590 1.433 . S
C589 H598 0.931 . S
C590 C586 1.323 . S
C590 C589 1.433 . S
C590 H599 0.933 . S
C591 Dy561 2.738 . S
C591 O571 1.255 . S
C591 O572 1.249 . S
C591 C585 1.516 . S
H592 C578 0.930 . S
H593 C579 0.931 . S
H594 C580 0.931 . S
H595 C581 0.933 . S
H596 C587 0.930 . S
H597 C588 0.931 . S
H598 C589 0.931 . S
H599 C590 0.933 . S
Dy600 O603 2.307 . S
Dy600 O605 2.395 . S
Dy600 O606 2.379 . S
Dy600 O608 2.339 . S
Dy600 O610 2.298 . S
Dy600 O614 2.275 . S
Dy600 C622 2.738 . S
Dy601 O604 2.298 . S
Dy601 O607 2.275 . S
Dy601 O609 2.307 . S
Dy601 O611 2.395 . S
Dy601 O612 2.379 . S
Dy601 O615 2.339 . S
Dy601 C631 2.738 . S
C602 O614 1.254 . S
C602 O615 1.257 . S
O603 Dy600 2.307 . S
O603 C613 1.266 . S
O604 Dy601 2.298 . S
O604 C613 1.236 . S
O605 Dy600 2.395 . S
O605 C622 1.255 . S
O606 Dy600 2.379 . S
O606 C622 1.249 . S
O607 Dy601 2.275 . S
O607 C623 1.254 . S
O608 Dy600 2.339 . S
O608 C623 1.257 . S
O609 Dy601 2.307 . S
O609 C624 1.266 . S
O610 Dy600 2.298 . S
O610 C624 1.236 . S
O611 Dy601 2.395 . S
O611 C631 1.255 . S
O612 Dy601 2.379 . S
O612 C631 1.249 . S
C613 O603 1.266 . S
C613 O604 1.236 . S
O614 Dy600 2.275 . S
O614 C602 1.254 . S
O615 Dy601 2.339 . S
O615 C602 1.257 . S
C616 C619 1.344 . S
C616 C620 1.328 . S
C616 C622 1.516 . S
C617 C618 1.304 . S
C617 C621 1.323 . S
C618 C617 1.304 . S
C618 C619 1.371 . S
C618 H632 0.930 . S
C619 C616 1.344 . S
C619 C618 1.371 . S
C619 H633 0.931 . S
C620 C616 1.328 . S
C620 C621 1.433 . S
C620 H634 0.931 . S
C621 C617 1.323 . S
C621 C620 1.433 . S
C621 H635 0.933 . S
C622 Dy600 2.738 . S
C622 O605 1.255 . S
C622 O606 1.249 . S
C622 C616 1.516 . S
C623 O607 1.254 . S
C623 O608 1.257 . S
C624 O609 1.266 . S
C624 O610 1.236 . S
C625 C628 1.344 . S
C625 C629 1.328 . S
C625 C631 1.516 . S
C626 C627 1.304 . S
C626 C630 1.323 1_455 S
C627 C626 1.304 . S
C627 C628 1.371 . S
C627 H636 0.930 . S
C628 C625 1.344 . S
C628 C627 1.371 . S
C628 H637 0.931 . S
C629 C625 1.328 . S
C629 C630 1.433 1_455 S
C629 H638 0.931 . S
C630 C626 1.323 1_655 S
C630 C629 1.433 1_655 S
C630 H639 0.933 . S
C631 Dy601 2.738 . S
C631 O611 1.255 . S
C631 O612 1.249 . S
C631 C625 1.516 . S
H632 C618 0.930 . S
H633 C619 0.931 . S
H634 C620 0.931 . S
H635 C621 0.933 . S
H636 C627 0.930 . S
H637 C628 0.931 . S
H638 C629 0.931 . S
H639 C630 0.933 . S
Dy640 O643 2.307 . S
Dy640 O645 2.395 1_565 S
Dy640 O646 2.379 . S
Dy640 O648 2.339 . S
Dy640 O650 2.298 . S
Dy640 O654 2.275 1_565 S
Dy640 C662 2.738 . S
Dy641 O644 2.298 . S
Dy641 O647 2.275 1_545 S
Dy641 O649 2.307 . S
Dy641 O651 2.395 1_545 S
Dy641 O652 2.379 . S
Dy641 O655 2.339 . S
Dy641 C671 2.738 . S
C642 O654 1.254 . S
C642 O655 1.257 . S
O643 Dy640 2.307 . S
O643 C653 1.266 1_565 S
O644 Dy641 2.298 . S
O644 C653 1.236 . S
O645 Dy640 2.395 1_545 S
O645 C662 1.255 1_545 S
O646 Dy640 2.379 . S
O646 C662 1.249 . S
O647 Dy641 2.275 1_565 S
O647 C663 1.254 . S
O648 Dy640 2.339 . S
O648 C663 1.257 . S
O649 Dy641 2.307 . S
O649 C664 1.266 . S
O650 Dy640 2.298 . S
O650 C664 1.236 1_565 S
O651 Dy641 2.395 1_565 S
O651 C671 1.255 1_565 S
O652 Dy641 2.379 . S
O652 C671 1.249 . S
C653 O643 1.266 1_545 S
C653 O644 1.236 . S
O654 Dy640 2.275 1_545 S
O654 C642 1.254 . S
O655 Dy641 2.339 . S
O655 C642 1.257 . S
C656 C659 1.344 1_565 S
C656 C660 1.328 . S
C656 C662 1.516 . S
C657 C658 1.304 1_565 S
C657 C661 1.323 . S
C658 C657 1.304 1_545 S
C658 C659 1.371 . S
C658 H672 0.930 . S
C659 C656 1.344 1_545 S
C659 C658 1.371 . S
C659 H673 0.931 . S
C660 C656 1.328 . S
C660 C661 1.433 . S
C660 H674 0.931 . S
C661 C657 1.323 . S
C661 C660 1.433 . S
C661 H675 0.933 . S
C662 Dy640 2.738 . S
C662 O645 1.255 1_565 S
C662 O646 1.249 . S
C662 C656 1.516 . S
C663 O647 1.254 . S
C663 O648 1.257 . S
C664 O649 1.266 . S
C664 O650 1.236 1_545 S
C665 C668 1.344 1_545 S
C665 C669 1.328 . S
C665 C671 1.516 . S
C666 C667 1.304 1_545 S
C666 C670 1.323 . S
C667 C666 1.304 1_565 S
C667 C668 1.371 . S
C667 H676 0.930 . S
C668 C665 1.344 1_565 S
C668 C667 1.371 . S
C668 H677 0.931 . S
C669 C665 1.328 . S
C669 C670 1.433 . S
C669 H678 0.931 . S
C670 C666 1.323 . S
C670 C669 1.433 . S
C670 H679 0.933 . S
C671 Dy641 2.738 . S
C671 O651 1.255 1_545 S
C671 O652 1.249 . S
C671 C665 1.516 . S
H672 C658 0.930 . S
H673 C659 0.931 . S
H674 C660 0.931 . S
H675 C661 0.933 . S
H676 C667 0.930 . S
H677 C668 0.931 . S
H678 C669 0.931 . S
H679 C670 0.933 . S
Dy680 O683 2.307 . S
Dy680 O685 2.395 . S
Dy680 O686 2.379 . S
Dy680 O688 2.339 . S
Dy680 O690 2.298 . S
Dy680 O694 2.275 . S
Dy680 C702 2.738 . S
Dy681 O684 2.298 . S
Dy681 O687 2.275 . S
Dy681 O689 2.307 . S
Dy681 O691 2.395 . S
Dy681 O692 2.379 . S
Dy681 O695 2.339 . S
Dy681 C711 2.738 . S
C682 O694 1.254 . S
C682 O695 1.257 . S
O683 Dy680 2.307 . S
O683 C693 1.266 . S
O684 Dy681 2.298 . S
O684 C693 1.236 . S
O685 Dy680 2.395 . S
O685 C702 1.255 . S
O686 Dy680 2.379 . S
O686 C702 1.249 . S
O687 Dy681 2.275 . S
O687 C703 1.254 . S
O688 Dy680 2.339 . S
O688 C703 1.257 . S
O689 Dy681 2.307 . S
O689 C704 1.266 . S
O690 Dy680 2.298 . S
O690 C704 1.236 . S
O691 Dy681 2.395 . S
O691 C711 1.255 . S
O692 Dy681 2.379 . S
O692 C711 1.249 . S
C693 O683 1.266 . S
C693 O684 1.236 . S
O694 Dy680 2.275 . S
O694 C682 1.254 . S
O695 Dy681 2.339 . S
O695 C682 1.257 . S
C696 C699 1.344 . S
C696 C700 1.328 . S
C696 C702 1.516 . S
C697 C698 1.304 . S
C697 C701 1.323 . S
C698 C697 1.304 . S
C698 C699 1.371 . S
C698 H712 0.930 . S
C699 C696 1.344 . S
C699 C698 1.371 . S
C699 H713 0.931 . S
C700 C696 1.328 . S
C700 C701 1.433 . S
C700 H714 0.931 . S
C701 C697 1.323 . S
C701 C700 1.433 . S
C701 H715 0.933 . S
C702 Dy680 2.738 . S
C702 O685 1.255 . S
C702 O686 1.249 . S
C702 C696 1.516 . S
C703 O687 1.254 . S
C703 O688 1.257 . S
C704 O689 1.266 . S
C704 O690 1.236 . S
C705 C708 1.344 . S
C705 C709 1.328 . S
C705 C711 1.516 . S
C706 C707 1.304 . S
C706 C710 1.323 . S
C707 C706 1.304 . S
C707 C708 1.371 . S
C707 H716 0.930 . S
C708 C705 1.344 . S
C708 C707 1.371 . S
C708 H717 0.931 . S
C709 C705 1.328 . S
C709 C710 1.433 . S
C709 H718 0.931 . S
C710 C706 1.323 . S
C710 C709 1.433 . S
C710 H719 0.933 . S
C711 Dy681 2.738 . S
C711 O691 1.255 . S
C711 O692 1.249 . S
C711 C705 1.516 . S
H712 C698 0.930 . S
H713 C699 0.931 . S
H714 C700 0.931 . S
H715 C701 0.933 . S
H716 C707 0.930 . S
H717 C708 0.931 . S
H718 C709 0.931 . S
H719 C710 0.933 . S
Dy720 O723 2.307 . S
Dy720 O725 2.395 . S
Dy720 O726 2.379 . S
Dy720 O728 2.339 . S
Dy720 O730 2.298 . S
Dy720 O734 2.275 . S
Dy720 C742 2.738 . S
Dy721 O724 2.298 . S
Dy721 O727 2.275 . S
Dy721 O729 2.307 . S
Dy721 O731 2.395 . S
Dy721 O732 2.379 . S
Dy721 O735 2.339 . S
Dy721 C751 2.738 . S
C722 O734 1.254 . S
C722 O735 1.257 . S
O723 Dy720 2.307 . S
O723 C733 1.266 . S
O724 Dy721 2.298 . S
O724 C733 1.236 . S
O725 Dy720 2.395 . S
O725 C742 1.255 . S
O726 Dy720 2.379 . S
O726 C742 1.249 . S
O727 Dy721 2.275 . S
O727 C743 1.254 . S
O728 Dy720 2.339 . S
O728 C743 1.257 . S
O729 Dy721 2.307 . S
O729 C744 1.266 . S
O730 Dy720 2.298 . S
O730 C744 1.236 . S
O731 Dy721 2.395 . S
O731 C751 1.255 . S
O732 Dy721 2.379 . S
O732 C751 1.249 . S
C733 O723 1.266 . S
C733 O724 1.236 . S
O734 Dy720 2.275 . S
O734 C722 1.254 . S
O735 Dy721 2.339 . S
O735 C722 1.257 . S
C736 C739 1.344 . S
C736 C740 1.328 . S
C736 C742 1.516 . S
C737 C738 1.304 . S
C737 C741 1.323 . S
C738 C737 1.304 . S
C738 C739 1.371 . S
C738 H752 0.930 . S
C739 C736 1.344 . S
C739 C738 1.371 . S
C739 H753 0.931 . S
C740 C736 1.328 . S
C740 C741 1.433 . S
C740 H754 0.931 . S
C741 C737 1.323 . S
C741 C740 1.433 . S
C741 H755 0.933 . S
C742 Dy720 2.738 . S
C742 O725 1.255 . S
C742 O726 1.249 . S
C742 C736 1.516 . S
C743 O727 1.254 . S
C743 O728 1.257 . S
C744 O729 1.266 . S
C744 O730 1.236 . S
C745 C748 1.344 . S
C745 C749 1.328 . S
C745 C751 1.516 . S
C746 C747 1.304 . S
C746 C750 1.323 . S
C747 C746 1.304 . S
C747 C748 1.371 . S
C747 H756 0.930 . S
C748 C745 1.344 . S
C748 C747 1.371 . S
C748 H757 0.931 . S
C749 C745 1.328 . S
C749 C750 1.433 . S
C749 H758 0.931 . S
C750 C746 1.323 . S
C750 C749 1.433 . S
C750 H759 0.933 . S
C751 Dy721 2.738 . S
C751 O731 1.255 . S
C751 O732 1.249 . S
C751 C745 1.516 . S
H752 C738 0.930 . S
H753 C739 0.931 . S
H754 C740 0.931 . S
H755 C741 0.933 . S
H756 C747 0.930 . S
H757 C748 0.931 . S
H758 C749 0.931 . S
H759 C750 0.933 . S
Dy760 O763 2.307 . S
Dy760 O765 2.395 1_565 S
Dy760 O766 2.379 . S
Dy760 O768 2.339 . S
Dy760 O770 2.298 . S
Dy760 O774 2.275 1_565 S
Dy760 C782 2.738 . S
Dy761 O764 2.298 . S
Dy761 O767 2.275 1_545 S
Dy761 O769 2.307 . S
Dy761 O771 2.395 1_545 S
Dy761 O772 2.379 . S
Dy761 O775 2.339 . S
Dy761 C791 2.738 . S
C762 O774 1.254 . S
C762 O775 1.257 . S
O763 Dy760 2.307 . S
O763 C773 1.266 1_565 S
O764 Dy761 2.298 . S
O764 C773 1.236 . S
O765 Dy760 2.395 1_545 S
O765 C782 1.255 1_545 S
O766 Dy760 2.379 . S
O766 C782 1.249 . S
O767 Dy761 2.275 1_565 S
O767 C783 1.254 . S
O768 Dy760 2.339 . S
O768 C783 1.257 . S
O769 Dy761 2.307 . S
O769 C784 1.266 . S
O770 Dy760 2.298 . S
O770 C784 1.236 1_565 S
O771 Dy761 2.395 1_565 S
O771 C791 1.255 1_565 S
O772 Dy761 2.379 . S
O772 C791 1.249 . S
C773 O763 1.266 1_545 S
C773 O764 1.236 . S
O774 Dy760 2.275 1_545 S
O774 C762 1.254 . S
O775 Dy761 2.339 . S
O775 C762 1.257 . S
C776 C779 1.344 1_565 S
C776 C780 1.328 . S
C776 C782 1.516 . S
C777 C778 1.304 1_565 S
C777 C781 1.323 . S
C778 C777 1.304 1_545 S
C778 C779 1.371 . S
C778 H792 0.930 . S
C779 C776 1.344 1_545 S
C779 C778 1.371 . S
C779 H793 0.931 . S
C780 C776 1.328 . S
C780 C781 1.433 . S
C780 H794 0.931 . S
C781 C777 1.323 . S
C781 C780 1.433 . S
C781 H795 0.933 . S
C782 Dy760 2.738 . S
C782 O765 1.255 1_565 S
C782 O766 1.249 . S
C782 C776 1.516 . S
C783 O767 1.254 . S
C783 O768 1.257 . S
C784 O769 1.266 . S
C784 O770 1.236 1_545 S
C785 C788 1.344 1_545 S
C785 C789 1.328 . S
C785 C791 1.516 . S
C786 C787 1.304 1_545 S
C786 C790 1.323 . S
C787 C786 1.304 1_565 S
C787 C788 1.371 . S
C787 H796 0.930 . S
C788 C785 1.344 1_565 S
C788 C787 1.371 . S
C788 H797 0.931 . S
C789 C785 1.328 . S
C789 C790 1.433 . S
C789 H798 0.931 . S
C790 C786 1.323 . S
C790 C789 1.433 . S
C790 H799 0.933 . S
C791 Dy761 2.738 . S
C791 O771 1.255 1_545 S
C791 O772 1.249 . S
C791 C785 1.516 . S
H792 C778 0.930 . S
H793 C779 0.931 . S
H794 C780 0.931 . S
H795 C781 0.933 . S
H796 C787 0.930 . S
H797 C788 0.931 . S
H798 C789 0.931 . S
H799 C790 0.933 . S
Dy800 O803 2.307 . S
Dy800 O805 2.395 1_565 S
Dy800 O806 2.379 . S
Dy800 O808 2.339 . S
Dy800 O810 2.298 . S
Dy800 O814 2.275 1_565 S
Dy800 C822 2.738 . S
Dy801 O804 2.298 . S
Dy801 O807 2.275 1_545 S
Dy801 O809 2.307 . S
Dy801 O811 2.395 1_545 S
Dy801 O812 2.379 . S
Dy801 O815 2.339 . S
Dy801 C831 2.738 . S
C802 O814 1.254 . S
C802 O815 1.257 . S
O803 Dy800 2.307 . S
O803 C813 1.266 . S
O804 Dy801 2.298 . S
O804 C813 1.236 1_545 S
O805 Dy800 2.395 1_545 S
O805 C822 1.255 1_545 S
O806 Dy800 2.379 . S
O806 C822 1.249 . S
O807 Dy801 2.275 1_565 S
O807 C823 1.254 . S
O808 Dy800 2.339 . S
O808 C823 1.257 . S
O809 Dy801 2.307 . S
O809 C824 1.266 1_545 S
O810 Dy800 2.298 . S
O810 C824 1.236 . S
O811 Dy801 2.395 1_565 S
O811 C831 1.255 1_565 S
O812 Dy801 2.379 . S
O812 C831 1.249 . S
C813 O803 1.266 . S
C813 O804 1.236 1_565 S
O814 Dy800 2.275 1_545 S
O814 C802 1.254 . S
O815 Dy801 2.339 . S
O815 C802 1.257 . S
C816 C819 1.344 1_565 S
C816 C820 1.328 . S
C816 C822 1.516 . S
C817 C818 1.304 1_565 S
C817 C821 1.323 . S
C818 C817 1.304 1_545 S
C818 C819 1.371 . S
C818 H832 0.930 . S
C819 C816 1.344 1_545 S
C819 C818 1.371 . S
C819 H833 0.931 . S
C820 C816 1.328 . S
C820 C821 1.433 . S
C820 H834 0.931 . S
C821 C817 1.323 . S
C821 C820 1.433 . S
C821 H835 0.933 . S
C822 Dy800 2.738 . S
C822 O805 1.255 1_565 S
C822 O806 1.249 . S
C822 C816 1.516 . S
C823 O807 1.254 . S
C823 O808 1.257 . S
C824 O809 1.266 1_565 S
C824 O810 1.236 . S
C825 C828 1.344 1_545 S
C825 C829 1.328 . S
C825 C831 1.516 . S
C826 C827 1.304 1_545 S
C826 C830 1.323 . S
C827 C826 1.304 1_565 S
C827 C828 1.371 . S
C827 H836 0.930 . S
C828 C825 1.344 1_565 S
C828 C827 1.371 . S
C828 H837 0.931 . S
C829 C825 1.328 . S
C829 C830 1.433 . S
C829 H838 0.931 . S
C830 C826 1.323 . S
C830 C829 1.433 . S
C830 H839 0.933 . S
C831 Dy801 2.738 . S
C831 O811 1.255 1_545 S
C831 O812 1.249 . S
C831 C825 1.516 . S
H832 C818 0.930 . S
H833 C819 0.931 . S
H834 C820 0.931 . S
H835 C821 0.933 . S
H836 C827 0.930 . S
H837 C828 0.931 . S
H838 C829 0.931 . S
H839 C830 0.933 . S
Dy840 O843 2.307 . S
Dy840 O845 2.395 . S
Dy840 O846 2.379 . S
Dy840 O848 2.339 . S
Dy840 O850 2.298 . S
Dy840 O854 2.275 . S
Dy840 C862 2.738 . S
Dy841 O844 2.298 . S
Dy841 O847 2.275 . S
Dy841 O849 2.307 . S
Dy841 O851 2.395 . S
Dy841 O852 2.379 . S
Dy841 O855 2.339 . S
Dy841 C871 2.738 . S
C842 O854 1.254 . S
C842 O855 1.257 . S
O843 Dy840 2.307 . S
O843 C853 1.266 . S
O844 Dy841 2.298 . S
O844 C853 1.236 . S
O845 Dy840 2.395 . S
O845 C862 1.255 . S
O846 Dy840 2.379 . S
O846 C862 1.249 . S
O847 Dy841 2.275 . S
O847 C863 1.254 . S
O848 Dy840 2.339 . S
O848 C863 1.257 . S
O849 Dy841 2.307 . S
O849 C864 1.266 . S
O850 Dy840 2.298 . S
O850 C864 1.236 . S
O851 Dy841 2.395 . S
O851 C871 1.255 . S
O852 Dy841 2.379 . S
O852 C871 1.249 . S
C853 O843 1.266 . S
C853 O844 1.236 . S
O854 Dy840 2.275 . S
O854 C842 1.254 . S
O855 Dy841 2.339 . S
O855 C842 1.257 . S
C856 C859 1.344 . S
C856 C860 1.328 . S
C856 C862 1.516 . S
C857 C858 1.304 . S
C857 C861 1.323 . S
C858 C857 1.304 . S
C858 C859 1.371 . S
C858 H872 0.930 . S
C859 C856 1.344 . S
C859 C858 1.371 . S
C859 H873 0.931 . S
C860 C856 1.328 . S
C860 C861 1.433 . S
C860 H874 0.931 . S
C861 C857 1.323 . S
C861 C860 1.433 . S
C861 H875 0.933 . S
C862 Dy840 2.738 . S
C862 O845 1.255 . S
C862 O846 1.249 . S
C862 C856 1.516 . S
C863 O847 1.254 . S
C863 O848 1.257 . S
C864 O849 1.266 . S
C864 O850 1.236 . S
C865 C868 1.344 . S
C865 C869 1.328 . S
C865 C871 1.516 . S
C866 C867 1.304 . S
C866 C870 1.323 . S
C867 C866 1.304 . S
C867 C868 1.371 . S
C867 H876 0.930 . S
C868 C865 1.344 . S
C868 C867 1.371 . S
C868 H877 0.931 . S
C869 C865 1.328 . S
C869 C870 1.433 . S
C869 H878 0.931 . S
C870 C866 1.323 . S
C870 C869 1.433 . S
C870 H879 0.933 . S
C871 Dy841 2.738 . S
C871 O851 1.255 . S
C871 O852 1.249 . S
C871 C865 1.516 . S
H872 C858 0.930 . S
H873 C859 0.931 . S
H874 C860 0.931 . S
H875 C861 0.933 . S
H876 C867 0.930 . S
H877 C868 0.931 . S
H878 C869 0.931 . S
H879 C870 0.933 . S
Dy880 O883 2.307 . S
Dy880 O885 2.395 . S
Dy880 O886 2.379 . S
Dy880 O888 2.339 . S
Dy880 O890 2.298 . S
Dy880 O894 2.275 . S
Dy880 C902 2.738 . S
Dy881 O884 2.298 . S
Dy881 O887 2.275 . S
Dy881 O889 2.307 . S
Dy881 O891 2.395 . S
Dy881 O892 2.379 . S
Dy881 O895 2.339 . S
Dy881 C911 2.738 . S
C882 O894 1.254 . S
C882 O895 1.257 . S
O883 Dy880 2.307 . S
O883 C893 1.266 . S
O884 Dy881 2.298 . S
O884 C893 1.236 . S
O885 Dy880 2.395 . S
O885 C902 1.255 . S
O886 Dy880 2.379 . S
O886 C902 1.249 . S
O887 Dy881 2.275 . S
O887 C903 1.254 . S
O888 Dy880 2.339 . S
O888 C903 1.257 . S
O889 Dy881 2.307 . S
O889 C904 1.266 . S
O890 Dy880 2.298 . S
O890 C904 1.236 . S
O891 Dy881 2.395 . S
O891 C911 1.255 . S
O892 Dy881 2.379 . S
O892 C911 1.249 . S
C893 O883 1.266 . S
C893 O884 1.236 . S
O894 Dy880 2.275 . S
O894 C882 1.254 . S
O895 Dy881 2.339 . S
O895 C882 1.257 . S
C896 C899 1.344 . S
C896 C900 1.328 . S
C896 C902 1.516 . S
C897 C898 1.304 . S
C897 C901 1.323 . S
C898 C897 1.304 . S
C898 C899 1.371 . S
C898 H912 0.930 . S
C899 C896 1.344 . S
C899 C898 1.371 . S
C899 H913 0.931 . S
C900 C896 1.328 . S
C900 C901 1.433 . S
C900 H914 0.931 . S
C901 C897 1.323 . S
C901 C900 1.433 . S
C901 H915 0.933 . S
C902 Dy880 2.738 . S
C902 O885 1.255 . S
C902 O886 1.249 . S
C902 C896 1.516 . S
C903 O887 1.254 . S
C903 O888 1.257 . S
C904 O889 1.266 . S
C904 O890 1.236 . S
C905 C908 1.344 . S
C905 C909 1.328 . S
C905 C911 1.516 . S
C906 C907 1.304 . S
C906 C910 1.323 . S
C907 C906 1.304 . S
C907 C908 1.371 . S
C907 H916 0.930 . S
C908 C905 1.344 . S
C908 C907 1.371 . S
C908 H917 0.931 . S
C909 C905 1.328 . S
C909 C910 1.433 . S
C909 H918 0.931 . S
C910 C906 1.323 . S
C910 C909 1.433 . S
C910 H919 0.933 . S
C911 Dy881 2.738 . S
C911 O891 1.255 . S
C911 O892 1.249 . S
C911 C905 1.516 . S
H912 C898 0.930 . S
H913 C899 0.931 . S
H914 C900 0.931 . S
H915 C901 0.933 . S
H916 C907 0.930 . S
H917 C908 0.931 . S
H918 C909 0.931 . S
H919 C910 0.933 . S
Dy920 O923 2.307 . S
Dy920 O925 2.395 1_565 S
Dy920 O926 2.379 . S
Dy920 O928 2.339 . S
Dy920 O930 2.298 . S
Dy920 O934 2.275 1_565 S
Dy920 C942 2.738 . S
Dy921 O924 2.298 . S
Dy921 O927 2.275 1_545 S
Dy921 O929 2.307 . S
Dy921 O931 2.395 1_545 S
Dy921 O932 2.379 . S
Dy921 O935 2.339 . S
Dy921 C951 2.738 . S
C922 O934 1.254 . S
C922 O935 1.257 . S
O923 Dy920 2.307 . S
O923 C933 1.266 . S
O924 Dy921 2.298 . S
O924 C933 1.236 1_545 S
O925 Dy920 2.395 1_545 S
O925 C942 1.255 1_545 S
O926 Dy920 2.379 . S
O926 C942 1.249 . S
O927 Dy921 2.275 1_565 S
O927 C943 1.254 . S
O928 Dy920 2.339 . S
O928 C943 1.257 . S
O929 Dy921 2.307 . S
O929 C944 1.266 1_545 S
O930 Dy920 2.298 . S
O930 C944 1.236 . S
O931 Dy921 2.395 1_565 S
O931 C951 1.255 1_565 S
O932 Dy921 2.379 . S
O932 C951 1.249 . S
C933 O923 1.266 . S
C933 O924 1.236 1_565 S
O934 Dy920 2.275 1_545 S
O934 C922 1.254 . S
O935 Dy921 2.339 . S
O935 C922 1.257 . S
C936 C939 1.344 1_565 S
C936 C940 1.328 . S
C936 C942 1.516 . S
C937 C938 1.304 1_565 S
C937 C941 1.323 . S
C938 C937 1.304 1_545 S
C938 C939 1.371 . S
C938 H952 0.930 . S
C939 C936 1.344 1_545 S
C939 C938 1.371 . S
C939 H953 0.931 . S
C940 C936 1.328 . S
C940 C941 1.433 . S
C940 H954 0.931 . S
C941 C937 1.323 . S
C941 C940 1.433 . S
C941 H955 0.933 . S
C942 Dy920 2.738 . S
C942 O925 1.255 1_565 S
C942 O926 1.249 . S
C942 C936 1.516 . S
C943 O927 1.254 . S
C943 O928 1.257 . S
C944 O929 1.266 1_565 S
C944 O930 1.236 . S
C945 C948 1.344 1_545 S
C945 C949 1.328 . S
C945 C951 1.516 . S
C946 C947 1.304 1_545 S
C946 C950 1.323 . S
C947 C946 1.304 1_565 S
C947 C948 1.371 . S
C947 H956 0.930 . S
C948 C945 1.344 1_565 S
C948 C947 1.371 . S
C948 H957 0.931 . S
C949 C945 1.328 . S
C949 C950 1.433 . S
C949 H958 0.931 . S
C950 C946 1.323 . S
C950 C949 1.433 . S
C950 H959 0.933 . S
C951 Dy921 2.738 . S
C951 O931 1.255 1_545 S
C951 O932 1.249 . S
C951 C945 1.516 . S
H952 C938 0.930 . S
H953 C939 0.931 . S
H954 C940 0.931 . S
H955 C941 0.933 . S
H956 C947 0.930 . S
H957 C948 0.931 . S
H958 C949 0.931 . S
H959 C950 0.933 . S
Dy960 O963 2.307 . S
Dy960 O965 2.395 . S
Dy960 O966 2.379 . S
Dy960 O968 2.339 . S
Dy960 O970 2.298 . S
Dy960 O974 2.275 . S
Dy960 C982 2.738 . S
Dy961 O964 2.298 . S
Dy961 O967 2.275 . S
Dy961 O969 2.307 . S
Dy961 O971 2.395 . S
Dy961 O972 2.379 . S
Dy961 O975 2.339 . S
Dy961 C991 2.738 1_554 S
C962 O974 1.254 . S
C962 O975 1.257 . S
O963 Dy960 2.307 . S
O963 C973 1.266 . S
O964 Dy961 2.298 . S
O964 C973 1.236 . S
O965 Dy960 2.395 . S
O965 C982 1.255 . S
O966 Dy960 2.379 . S
O966 C982 1.249 . S
O967 Dy961 2.275 . S
O967 C983 1.254 . S
O968 Dy960 2.339 . S
O968 C983 1.257 . S
O969 Dy961 2.307 . S
O969 C984 1.266 . S
O970 Dy960 2.298 . S
O970 C984 1.236 . S
O971 Dy961 2.395 . S
O971 C991 1.255 1_554 S
O972 Dy961 2.379 . S
O972 C991 1.249 1_554 S
C973 O963 1.266 . S
C973 O964 1.236 . S
O974 Dy960 2.275 . S
O974 C962 1.254 . S
O975 Dy961 2.339 . S
O975 C962 1.257 . S
C976 C979 1.344 . S
C976 C980 1.328 . S
C976 C982 1.516 . S
C977 C978 1.304 . S
C977 C981 1.323 . S
C978 C977 1.304 . S
C978 C979 1.371 . S
C978 H992 0.930 . S
C979 C976 1.344 . S
C979 C978 1.371 . S
C979 H993 0.931 . S
C980 C976 1.328 . S
C980 C981 1.433 . S
C980 H994 0.931 . S
C981 C977 1.323 . S
C981 C980 1.433 . S
C981 H995 0.933 . S
C982 Dy960 2.738 . S
C982 O965 1.255 . S
C982 O966 1.249 . S
C982 C976 1.516 . S
C983 O967 1.254 . S
C983 O968 1.257 . S
C984 O969 1.266 . S
C984 O970 1.236 . S
C985 C988 1.344 . S
C985 C989 1.328 . S
C985 C991 1.516 . S
C986 C987 1.304 . S
C986 C990 1.323 . S
C987 C986 1.304 . S
C987 C988 1.371 . S
C987 H996 0.930 . S
C988 C985 1.344 . S
C988 C987 1.371 . S
C988 H997 0.931 . S
C989 C985 1.328 . S
C989 C990 1.433 . S
C989 H998 0.931 . S
C990 C986 1.323 . S
C990 C989 1.433 . S
C990 H999 0.933 . S
C991 Dy961 2.738 1_556 S
C991 O971 1.255 1_556 S
C991 O972 1.249 1_556 S
C991 C985 1.516 . S
H992 C978 0.930 . S
H993 C979 0.931 . S
H994 C980 0.931 . S
H995 C981 0.933 . S
H996 C987 0.930 . S
H997 C988 0.931 . S
H998 C989 0.931 . S
H999 C990 0.933 . S
Dy1000 O1003 2.307 . S
Dy1000 O1005 2.395 . S
Dy1000 O1006 2.379 . S
Dy1000 O1008 2.339 . S
Dy1000 O1010 2.298 . S
Dy1000 O1014 2.275 . S
Dy1000 C1022 2.738 . S
Dy1001 O1004 2.298 . S
Dy1001 O1007 2.275 . S
Dy1001 O1009 2.307 . S
Dy1001 O1011 2.395 . S
Dy1001 O1012 2.379 . S
Dy1001 O1015 2.339 . S
Dy1001 C1031 2.738 1_554 S
C1002 O1014 1.254 . S
C1002 O1015 1.257 . S
O1003 Dy1000 2.307 . S
O1003 C1013 1.266 . S
O1004 Dy1001 2.298 . S
O1004 C1013 1.236 . S
O1005 Dy1000 2.395 . S
O1005 C1022 1.255 . S
O1006 Dy1000 2.379 . S
O1006 C1022 1.249 . S
O1007 Dy1001 2.275 . S
O1007 C1023 1.254 . S
O1008 Dy1000 2.339 . S
O1008 C1023 1.257 . S
O1009 Dy1001 2.307 . S
O1009 C1024 1.266 . S
O1010 Dy1000 2.298 . S
O1010 C1024 1.236 . S
O1011 Dy1001 2.395 . S
O1011 C1031 1.255 1_554 S
O1012 Dy1001 2.379 . S
O1012 C1031 1.249 1_554 S
C1013 O1003 1.266 . S
C1013 O1004 1.236 . S
O1014 Dy1000 2.275 . S
O1014 C1002 1.254 . S
O1015 Dy1001 2.339 . S
O1015 C1002 1.257 . S
C1016 C1019 1.344 . S
C1016 C1020 1.328 . S
C1016 C1022 1.516 . S
C1017 C1018 1.304 . S
C1017 C1021 1.323 . S
C1018 C1017 1.304 . S
C1018 C1019 1.371 . S
C1018 H1032 0.930 . S
C1019 C1016 1.344 . S
C1019 C1018 1.371 . S
C1019 H1033 0.931 . S
C1020 C1016 1.328 . S
C1020 C1021 1.433 . S
C1020 H1034 0.931 . S
C1021 C1017 1.323 . S
C1021 C1020 1.433 . S
C1021 H1035 0.933 . S
C1022 Dy1000 2.738 . S
C1022 O1005 1.255 . S
C1022 O1006 1.249 . S
C1022 C1016 1.516 . S
C1023 O1007 1.254 . S
C1023 O1008 1.257 . S
C1024 O1009 1.266 . S
C1024 O1010 1.236 . S
C1025 C1028 1.344 . S
C1025 C1029 1.328 . S
C1025 C1031 1.516 . S
C1026 C1027 1.304 . S
C1026 C1030 1.323 . S
C1027 C1026 1.304 . S
C1027 C1028 1.371 . S
C1027 H1036 0.930 . S
C1028 C1025 1.344 . S
C1028 C1027 1.371 . S
C1028 H1037 0.931 . S
C1029 C1025 1.328 . S
C1029 C1030 1.433 . S
C1029 H1038 0.931 . S
C1030 C1026 1.323 . S
C1030 C1029 1.433 . S
C1030 H1039 0.933 . S
C1031 Dy1001 2.738 1_556 S
C1031 O1011 1.255 1_556 S
C1031 O1012 1.249 1_556 S
C1031 C1025 1.516 . S
H1032 C1018 0.930 . S
H1033 C1019 0.931 . S
H1034 C1020 0.931 . S
H1035 C1021 0.933 . S
H1036 C1027 0.930 . S
H1037 C1028 0.931 . S
H1038 C1029 0.931 . S
H1039 C1030 0.933 . S
Dy1040 O1043 2.307 . S
Dy1040 O1045 2.395 . S
Dy1040 O1046 2.379 . S
Dy1040 O1048 2.339 . S
Dy1040 O1050 2.298 . S
Dy1040 O1054 2.275 . S
Dy1040 C1062 2.738 . S
Dy1041 O1044 2.298 . S
Dy1041 O1047 2.275 . S
Dy1041 O1049 2.307 . S
Dy1041 O1051 2.395 . S
Dy1041 O1052 2.379 . S
Dy1041 O1055 2.339 . S
Dy1041 C1071 2.738 . S
C1042 O1054 1.254 . S
C1042 O1055 1.257 . S
O1043 Dy1040 2.307 . S
O1043 C1053 1.266 . S
O1044 Dy1041 2.298 . S
O1044 C1053 1.236 . S
O1045 Dy1040 2.395 . S
O1045 C1062 1.255 . S
O1046 Dy1040 2.379 . S
O1046 C1062 1.249 . S
O1047 Dy1041 2.275 . S
O1047 C1063 1.254 . S
O1048 Dy1040 2.339 . S
O1048 C1063 1.257 . S
O1049 Dy1041 2.307 . S
O1049 C1064 1.266 . S
O1050 Dy1040 2.298 . S
O1050 C1064 1.236 . S
O1051 Dy1041 2.395 . S
O1051 C1071 1.255 . S
O1052 Dy1041 2.379 . S
O1052 C1071 1.249 . S
C1053 O1043 1.266 . S
C1053 O1044 1.236 . S
O1054 Dy1040 2.275 . S
O1054 C1042 1.254 . S
O1055 Dy1041 2.339 . S
O1055 C1042 1.257 . S
C1056 C1059 1.344 . S
C1056 C1060 1.328 . S
C1056 C1062 1.516 . S
C1057 C1058 1.304 . S
C1057 C1061 1.323 . S
C1058 C1057 1.304 . S
C1058 C1059 1.371 . S
C1058 H1072 0.930 . S
C1059 C1056 1.344 . S
C1059 C1058 1.371 . S
C1059 H1073 0.931 . S
C1060 C1056 1.328 . S
C1060 C1061 1.433 . S
C1060 H1074 0.931 . S
C1061 C1057 1.323 . S
C1061 C1060 1.433 . S
C1061 H1075 0.933 . S
C1062 Dy1040 2.738 . S
C1062 O1045 1.255 . S
C1062 O1046 1.249 . S
C1062 C1056 1.516 . S
C1063 O1047 1.254 . S
C1063 O1048 1.257 . S
C1064 O1049 1.266 . S
C1064 O1050 1.236 . S
C1065 C1068 1.344 . S
C1065 C1069 1.328 . S
C1065 C1071 1.516 . S
C1066 C1067 1.304 . S
C1066 C1070 1.323 . S
C1067 C1066 1.304 . S
C1067 C1068 1.371 . S
C1067 H1076 0.930 . S
C1068 C1065 1.344 . S
C1068 C1067 1.371 . S
C1068 H1077 0.931 . S
C1069 C1065 1.328 . S
C1069 C1070 1.433 . S
C1069 H1078 0.931 . S
C1070 C1066 1.323 . S
C1070 C1069 1.433 . S
C1070 H1079 0.933 . S
C1071 Dy1041 2.738 . S
C1071 O1051 1.255 . S
C1071 O1052 1.249 . S
C1071 C1065 1.516 . S
H1072 C1058 0.930 . S
H1073 C1059 0.931 . S
H1074 C1060 0.931 . S
H1075 C1061 0.933 . S
H1076 C1067 0.930 . S
H1077 C1068 0.931 . S
H1078 C1069 0.931 . S
H1079 C1070 0.933 . S
Dy1080 O1083 2.307 . S
Dy1080 O1085 2.395 . S
Dy1080 O1086 2.379 . S
Dy1080 O1088 2.339 . S
Dy1080 O1090 2.298 . S
Dy1080 O1094 2.275 . S
Dy1080 C1102 2.738 . S
Dy1081 O1084 2.298 . S
Dy1081 O1087 2.275 . S
Dy1081 O1089 2.307 . S
Dy1081 O1091 2.395 . S
Dy1081 O1092 2.379 . S
Dy1081 O1095 2.339 . S
Dy1081 C1111 2.738 . S
C1082 O1094 1.254 . S
C1082 O1095 1.257 . S
O1083 Dy1080 2.307 . S
O1083 C1093 1.266 . S
O1084 Dy1081 2.298 . S
O1084 C1093 1.236 . S
O1085 Dy1080 2.395 . S
O1085 C1102 1.255 . S
O1086 Dy1080 2.379 . S
O1086 C1102 1.249 . S
O1087 Dy1081 2.275 . S
O1087 C1103 1.254 . S
O1088 Dy1080 2.339 . S
O1088 C1103 1.257 . S
O1089 Dy1081 2.307 . S
O1089 C1104 1.266 . S
O1090 Dy1080 2.298 . S
O1090 C1104 1.236 . S
O1091 Dy1081 2.395 . S
O1091 C1111 1.255 . S
O1092 Dy1081 2.379 . S
O1092 C1111 1.249 . S
C1093 O1083 1.266 . S
C1093 O1084 1.236 . S
O1094 Dy1080 2.275 . S
O1094 C1082 1.254 . S
O1095 Dy1081 2.339 . S
O1095 C1082 1.257 . S
C1096 C1099 1.344 . S
C1096 C1100 1.328 . S
C1096 C1102 1.516 . S
C1097 C1098 1.304 . S
C1097 C1101 1.323 . S
C1098 C1097 1.304 . S
C1098 C1099 1.371 . S
C1098 H1112 0.930 . S
C1099 C1096 1.344 . S
C1099 C1098 1.371 . S
C1099 H1113 0.931 . S
C1100 C1096 1.328 . S
C1100 C1101 1.433 . S
C1100 H1114 0.931 . S
C1101 C1097 1.323 . S
C1101 C1100 1.433 . S
C1101 H1115 0.933 . S
C1102 Dy1080 2.738 . S
C1102 O1085 1.255 . S
C1102 O1086 1.249 . S
C1102 C1096 1.516 . S
C1103 O1087 1.254 . S
C1103 O1088 1.257 . S
C1104 O1089 1.266 . S
C1104 O1090 1.236 . S
C1105 C1108 1.344 . S
C1105 C1109 1.328 . S
C1105 C1111 1.516 . S
C1106 C1107 1.304 . S
C1106 C1110 1.323 . S
C1107 C1106 1.304 . S
C1107 C1108 1.371 . S
C1107 H1116 0.930 . S
C1108 C1105 1.344 . S
C1108 C1107 1.371 . S
C1108 H1117 0.931 . S
C1109 C1105 1.328 . S
C1109 C1110 1.433 . S
C1109 H1118 0.931 . S
C1110 C1106 1.323 . S
C1110 C1109 1.433 . S
C1110 H1119 0.933 . S
C1111 Dy1081 2.738 . S
C1111 O1091 1.255 . S
C1111 O1092 1.249 . S
C1111 C1105 1.516 . S
H1112 C1098 0.930 . S
H1113 C1099 0.931 . S
H1114 C1100 0.931 . S
H1115 C1101 0.933 . S
H1116 C1107 0.930 . S
H1117 C1108 0.931 . S
H1118 C1109 0.931 . S
H1119 C1110 0.933 . S
Dy1120 O1123 2.307 . S
Dy1120 O1125 2.395 . S
Dy1120 O1126 2.379 . S
Dy1120 O1128 2.339 . S
Dy1120 O1130 2.298 . S
Dy1120 O1134 2.275 . S
Dy1120 C1142 2.738 1_556 S
Dy1121 O1124 2.298 . S
Dy1121 O1127 2.275 . S
Dy1121 O1129 2.307 . S
Dy1121 O1131 2.395 . S
Dy1121 O1132 2.379 . S
Dy1121 O1135 2.339 . S
Dy1121 C1151 2.738 . S
C1122 O1134 1.254 . S
C1122 O1135 1.257 . S
O1123 Dy1120 2.307 . S
O1123 C1133 1.266 . S
O1124 Dy1121 2.298 . S
O1124 C1133 1.236 . S
O1125 Dy1120 2.395 . S
O1125 C1142 1.255 1_556 S
O1126 Dy1120 2.379 . S
O1126 C1142 1.249 1_556 S
O1127 Dy1121 2.275 . S
O1127 C1143 1.254 . S
O1128 Dy1120 2.339 . S
O1128 C1143 1.257 . S
O1129 Dy1121 2.307 . S
O1129 C1144 1.266 . S
O1130 Dy1120 2.298 . S
O1130 C1144 1.236 . S
O1131 Dy1121 2.395 . S
O1131 C1151 1.255 . S
O1132 Dy1121 2.379 . S
O1132 C1151 1.249 . S
C1133 O1123 1.266 . S
C1133 O1124 1.236 . S
O1134 Dy1120 2.275 . S
O1134 C1122 1.254 . S
O1135 Dy1121 2.339 . S
O1135 C1122 1.257 . S
C1136 C1139 1.344 . S
C1136 C1140 1.328 . S
C1136 C1142 1.516 . S
C1137 C1138 1.304 . S
C1137 C1141 1.323 . S
C1138 C1137 1.304 . S
C1138 C1139 1.371 . S
C1138 H1152 0.930 . S
C1139 C1136 1.344 . S
C1139 C1138 1.371 . S
C1139 H1153 0.931 . S
C1140 C1136 1.328 . S
C1140 C1141 1.433 . S
C1140 H1154 0.931 . S
C1141 C1137 1.323 . S
C1141 C1140 1.433 . S
C1141 H1155 0.933 . S
C1142 Dy1120 2.738 1_554 S
C1142 O1125 1.255 1_554 S
C1142 O1126 1.249 1_554 S
C1142 C1136 1.516 . S
C1143 O1127 1.254 . S
C1143 O1128 1.257 . S
C1144 O1129 1.266 . S
C1144 O1130 1.236 . S
C1145 C1148 1.344 . S
C1145 C1149 1.328 . S
C1145 C1151 1.516 . S
C1146 C1147 1.304 . S
C1146 C1150 1.323 . S
C1147 C1146 1.304 . S
C1147 C1148 1.371 . S
C1147 H1156 0.930 . S
C1148 C1145 1.344 . S
C1148 C1147 1.371 . S
C1148 H1157 0.931 . S
C1149 C1145 1.328 . S
C1149 C1150 1.433 . S
C1149 H1158 0.931 . S
C1150 C1146 1.323 . S
C1150 C1149 1.433 . S
C1150 H1159 0.933 . S
C1151 Dy1121 2.738 . S
C1151 O1131 1.255 . S
C1151 O1132 1.249 . S
C1151 C1145 1.516 . S
H1152 C1138 0.930 . S
H1153 C1139 0.931 . S
H1154 C1140 0.931 . S
H1155 C1141 0.933 . S
H1156 C1147 0.930 . S
H1157 C1148 0.931 . S
H1158 C1149 0.931 . S
H1159 C1150 0.933 . S
Dy1160 O1163 2.307 . S
Dy1160 O1165 2.395 . S
Dy1160 O1166 2.379 . S
Dy1160 O1168 2.339 . S
Dy1160 O1170 2.298 . S
Dy1160 O1174 2.275 . S
Dy1160 C1182 2.738 1_556 S
Dy1161 O1164 2.298 . S
Dy1161 O1167 2.275 . S
Dy1161 O1169 2.307 . S
Dy1161 O1171 2.395 . S
Dy1161 O1172 2.379 . S
Dy1161 O1175 2.339 . S
Dy1161 C1191 2.738 . S
C1162 O1174 1.254 . S
C1162 O1175 1.257 . S
O1163 Dy1160 2.307 . S
O1163 C1173 1.266 . S
O1164 Dy1161 2.298 . S
O1164 C1173 1.236 . S
O1165 Dy1160 2.395 . S
O1165 C1182 1.255 1_556 S
O1166 Dy1160 2.379 . S
O1166 C1182 1.249 1_556 S
O1167 Dy1161 2.275 . S
O1167 C1183 1.254 . S
O1168 Dy1160 2.339 . S
O1168 C1183 1.257 . S
O1169 Dy1161 2.307 . S
O1169 C1184 1.266 . S
O1170 Dy1160 2.298 . S
O1170 C1184 1.236 . S
O1171 Dy1161 2.395 . S
O1171 C1191 1.255 . S
O1172 Dy1161 2.379 . S
O1172 C1191 1.249 . S
C1173 O1163 1.266 . S
C1173 O1164 1.236 . S
O1174 Dy1160 2.275 . S
O1174 C1162 1.254 . S
O1175 Dy1161 2.339 . S
O1175 C1162 1.257 . S
C1176 C1179 1.344 . S
C1176 C1180 1.328 . S
C1176 C1182 1.516 . S
C1177 C1178 1.304 . S
C1177 C1181 1.323 . S
C1178 C1177 1.304 . S
C1178 C1179 1.371 . S
C1178 H1192 0.930 . S
C1179 C1176 1.344 . S
C1179 C1178 1.371 . S
C1179 H1193 0.931 . S
C1180 C1176 1.328 . S
C1180 C1181 1.433 . S
C1180 H1194 0.931 . S
C1181 C1177 1.323 . S
C1181 C1180 1.433 . S
C1181 H1195 0.933 . S
C1182 Dy1160 2.738 1_554 S
C1182 O1165 1.255 1_554 S
C1182 O1166 1.249 1_554 S
C1182 C1176 1.516 . S
C1183 O1167 1.254 . S
C1183 O1168 1.257 . S
C1184 O1169 1.266 . S
C1184 O1170 1.236 . S
C1185 C1188 1.344 . S
C1185 C1189 1.328 . S
C1185 C1191 1.516 . S
C1186 C1187 1.304 . S
C1186 C1190 1.323 . S
C1187 C1186 1.304 . S
C1187 C1188 1.371 . S
C1187 H1196 0.930 . S
C1188 C1185 1.344 . S
C1188 C1187 1.371 . S
C1188 H1197 0.931 . S
C1189 C1185 1.328 . S
C1189 C1190 1.433 . S
C1189 H1198 0.931 . S
C1190 C1186 1.323 . S
C1190 C1189 1.433 . S
C1190 H1199 0.933 . S
C1191 Dy1161 2.738 . S
C1191 O1171 1.255 . S
C1191 O1172 1.249 . S
C1191 C1185 1.516 . S
H1192 C1178 0.930 . S
H1193 C1179 0.931 . S
H1194 C1180 0.931 . S
H1195 C1181 0.933 . S
H1196 C1187 0.930 . S
H1197 C1188 0.931 . S
H1198 C1189 0.931 . S
H1199 C1190 0.933 . S
Dy1200 O1203 2.307 . S
Dy1200 O1205 2.395 . S
Dy1200 O1206 2.379 . S
Dy1200 O1208 2.339 . S
Dy1200 O1210 2.298 . S
Dy1200 O1214 2.275 . S
Dy1200 C1222 2.738 . S
Dy1201 O1204 2.298 . S
Dy1201 O1207 2.275 . S
Dy1201 O1209 2.307 . S
Dy1201 O1211 2.395 . S
Dy1201 O1212 2.379 . S
Dy1201 O1215 2.339 . S
Dy1201 C1231 2.738 . S
C1202 O1214 1.254 . S
C1202 O1215 1.257 . S
O1203 Dy1200 2.307 . S
O1203 C1213 1.266 . S
O1204 Dy1201 2.298 . S
O1204 C1213 1.236 . S
O1205 Dy1200 2.395 . S
O1205 C1222 1.255 . S
O1206 Dy1200 2.379 . S
O1206 C1222 1.249 . S
O1207 Dy1201 2.275 . S
O1207 C1223 1.254 . S
O1208 Dy1200 2.339 . S
O1208 C1223 1.257 . S
O1209 Dy1201 2.307 . S
O1209 C1224 1.266 . S
O1210 Dy1200 2.298 . S
O1210 C1224 1.236 . S
O1211 Dy1201 2.395 . S
O1211 C1231 1.255 . S
O1212 Dy1201 2.379 . S
O1212 C1231 1.249 . S
C1213 O1203 1.266 . S
C1213 O1204 1.236 . S
O1214 Dy1200 2.275 . S
O1214 C1202 1.254 . S
O1215 Dy1201 2.339 . S
O1215 C1202 1.257 . S
C1216 C1219 1.344 . S
C1216 C1220 1.328 . S
C1216 C1222 1.516 . S
C1217 C1218 1.304 . S
C1217 C1221 1.323 . S
C1218 C1217 1.304 . S
C1218 C1219 1.371 . S
C1218 H1232 0.930 . S
C1219 C1216 1.344 . S
C1219 C1218 1.371 . S
C1219 H1233 0.931 . S
C1220 C1216 1.328 . S
C1220 C1221 1.433 . S
C1220 H1234 0.931 . S
C1221 C1217 1.323 . S
C1221 C1220 1.433 . S
C1221 H1235 0.933 . S
C1222 Dy1200 2.738 . S
C1222 O1205 1.255 . S
C1222 O1206 1.249 . S
C1222 C1216 1.516 . S
C1223 O1207 1.254 . S
C1223 O1208 1.257 . S
C1224 O1209 1.266 . S
C1224 O1210 1.236 . S
C1225 C1228 1.344 . S
C1225 C1229 1.328 . S
C1225 C1231 1.516 . S
C1226 C1227 1.304 . S
C1226 C1230 1.323 . S
C1227 C1226 1.304 . S
C1227 C1228 1.371 . S
C1227 H1236 0.930 . S
C1228 C1225 1.344 . S
C1228 C1227 1.371 . S
C1228 H1237 0.931 . S
C1229 C1225 1.328 . S
C1229 C1230 1.433 . S
C1229 H1238 0.931 . S
C1230 C1226 1.323 . S
C1230 C1229 1.433 . S
C1230 H1239 0.933 . S
C1231 Dy1201 2.738 . S
C1231 O1211 1.255 . S
C1231 O1212 1.249 . S
C1231 C1225 1.516 . S
H1232 C1218 0.930 . S
H1233 C1219 0.931 . S
H1234 C1220 0.931 . S
H1235 C1221 0.933 . S
H1236 C1227 0.930 . S
H1237 C1228 0.931 . S
H1238 C1229 0.931 . S
H1239 C1230 0.933 . S
Dy1240 O1243 2.307 . S
Dy1240 O1245 2.395 . S
Dy1240 O1246 2.379 . S
Dy1240 O1248 2.339 . S
Dy1240 O1250 2.298 . S
Dy1240 O1254 2.275 . S
Dy1240 C1262 2.738 . S
Dy1241 O1244 2.298 . S
Dy1241 O1247 2.275 . S
Dy1241 O1249 2.307 . S
Dy1241 O1251 2.395 . S
Dy1241 O1252 2.379 . S
Dy1241 O1255 2.339 . S
Dy1241 C1271 2.738 . S
C1242 O1254 1.254 . S
C1242 O1255 1.257 . S
O1243 Dy1240 2.307 . S
O1243 C1253 1.266 . S
O1244 Dy1241 2.298 . S
O1244 C1253 1.236 . S
O1245 Dy1240 2.395 . S
O1245 C1262 1.255 . S
O1246 Dy1240 2.379 . S
O1246 C1262 1.249 . S
O1247 Dy1241 2.275 . S
O1247 C1263 1.254 . S
O1248 Dy1240 2.339 . S
O1248 C1263 1.257 . S
O1249 Dy1241 2.307 . S
O1249 C1264 1.266 . S
O1250 Dy1240 2.298 . S
O1250 C1264 1.236 . S
O1251 Dy1241 2.395 . S
O1251 C1271 1.255 . S
O1252 Dy1241 2.379 . S
O1252 C1271 1.249 . S
C1253 O1243 1.266 . S
C1253 O1244 1.236 . S
O1254 Dy1240 2.275 . S
O1254 C1242 1.254 . S
O1255 Dy1241 2.339 . S
O1255 C1242 1.257 . S
C1256 C1259 1.344 . S
C1256 C1260 1.328 . S
C1256 C1262 1.516 . S
C1257 C1258 1.304 . S
C1257 C1261 1.323 . S
C1258 C1257 1.304 . S
C1258 C1259 1.371 . S
C1258 H1272 0.930 . S
C1259 C1256 1.344 . S
C1259 C1258 1.371 . S
C1259 H1273 0.931 . S
C1260 C1256 1.328 . S
C1260 C1261 1.433 . S
C1260 H1274 0.931 . S
C1261 C1257 1.323 . S
C1261 C1260 1.433 . S
C1261 H1275 0.933 . S
C1262 Dy1240 2.738 . S
C1262 O1245 1.255 . S
C1262 O1246 1.249 . S
C1262 C1256 1.516 . S
C1263 O1247 1.254 . S
C1263 O1248 1.257 . S
C1264 O1249 1.266 . S
C1264 O1250 1.236 . S
C1265 C1268 1.344 . S
C1265 C1269 1.328 . S
C1265 C1271 1.516 . S
C1266 C1267 1.304 . S
C1266 C1270 1.323 . S
C1267 C1266 1.304 . S
C1267 C1268 1.371 . S
C1267 H1276 0.930 . S
C1268 C1265 1.344 . S
C1268 C1267 1.371 . S
C1268 H1277 0.931 . S
C1269 C1265 1.328 . S
C1269 C1270 1.433 . S
C1269 H1278 0.931 . S
C1270 C1266 1.323 . S
C1270 C1269 1.433 . S
C1270 H1279 0.933 . S
C1271 Dy1241 2.738 . S
C1271 O1251 1.255 . S
C1271 O1252 1.249 . S
C1271 C1265 1.516 . S
H1272 C1258 0.930 . S
H1273 C1259 0.931 . S
H1274 C1260 0.931 . S
H1275 C1261 0.933 . S
H1276 C1267 0.930 . S
H1277 C1268 0.931 . S
H1278 C1269 0.931 . S
H1279 C1270 0.933 . S
C1280 C1281 1.387 . S
C1280 H1284 0.950 . S
C1280 C1289 1.390 . S
C1281 C1280 1.387 . S
C1281 C1283 1.387 . S
H1282 C1289 0.950 . S
C1283 C1281 1.387 . S
C1283 C1285 1.390 . S
C1283 H1287 0.950 . S
H1284 C1280 0.950 . S
C1285 C1283 1.390 . S
C1285 C1286 1.387 . S
C1285 H1288 0.950 . S
C1286 C1285 1.387 . S
C1286 C1289 1.387 . S
H1287 C1283 0.950 . S
H1288 C1285 0.950 . S
C1289 C1280 1.390 . S
C1289 H1282 0.950 . S
C1289 C1286 1.387 . S
C1290 C1291 1.387 . S
C1290 H1294 0.950 . S
C1290 C1299 1.390 . S
C1291 C1290 1.387 . S
C1291 C1293 1.387 . S
H1292 C1299 0.950 . S
C1293 C1291 1.387 . S
C1293 C1295 1.390 . S
C1293 H1297 0.950 . S
H1294 C1290 0.950 . S
C1295 C1293 1.390 . S
C1295 C1296 1.387 . S
C1295 H1298 0.950 . S
C1296 C1295 1.387 . S
C1296 C1299 1.387 . S
H1297 C1293 0.950 . S
H1298 C1295 0.950 . S
C1299 C1290 1.390 . S
C1299 H1292 0.950 . S
C1299 C1296 1.387 . S
C1300 C1301 1.387 . S
C1300 H1304 0.950 . S
C1300 C1309 1.390 . S
C1301 C1300 1.387 . S
C1301 C1303 1.387 . S
H1302 C1309 0.950 . S
C1303 C1301 1.387 . S
C1303 C1305 1.390 . S
C1303 H1307 0.950 . S
H1304 C1300 0.950 . S
C1305 C1303 1.390 . S
C1305 C1306 1.387 . S
C1305 H1308 0.950 . S
C1306 C1305 1.387 . S
C1306 C1309 1.387 . S
H1307 C1303 0.950 . S
H1308 C1305 0.950 . S
C1309 C1300 1.390 . S
C1309 H1302 0.950 . S
C1309 C1306 1.387 . S
C1310 C1311 1.387 . S
C1310 H1314 0.950 . S
C1310 C1319 1.390 . S
C1311 C1310 1.387 . S
C1311 C1313 1.387 . S
H1312 C1319 0.950 . S
C1313 C1311 1.387 . S
C1313 C1315 1.390 . S
C1313 H1317 0.950 . S
H1314 C1310 0.950 . S
C1315 C1313 1.390 . S
C1315 C1316 1.387 . S
C1315 H1318 0.950 . S
C1316 C1315 1.387 . S
C1316 C1319 1.387 . S
H1317 C1313 0.950 . S
H1318 C1315 0.950 . S
C1319 C1310 1.390 . S
C1319 H1312 0.950 . S
C1319 C1316 1.387 . S
C1320 C1321 1.387 . S
C1320 H1324 0.950 . S
C1320 C1329 1.390 . S
C1321 C1320 1.387 . S
C1321 C1323 1.387 . S
H1322 C1329 0.950 . S
C1323 C1321 1.387 . S
C1323 C1325 1.390 . S
C1323 H1327 0.950 . S
H1324 C1320 0.950 . S
C1325 C1323 1.390 . S
C1325 C1326 1.387 . S
C1325 H1328 0.950 . S
C1326 C1325 1.387 . S
C1326 C1329 1.387 . S
H1327 C1323 0.950 . S
H1328 C1325 0.950 . S
C1329 C1320 1.390 . S
C1329 H1322 0.950 . S
C1329 C1326 1.387 . S
C1330 C1331 1.387 . S
C1330 H1334 0.950 . S
C1330 C1339 1.390 . S
C1331 C1330 1.387 . S
C1331 C1333 1.387 . S
H1332 C1339 0.950 . S
C1333 C1331 1.387 . S
C1333 C1335 1.390 . S
C1333 H1337 0.950 . S
H1334 C1330 0.950 . S
C1335 C1333 1.390 . S
C1335 C1336 1.387 . S
C1335 H1338 0.950 . S
C1336 C1335 1.387 . S
C1336 C1339 1.387 . S
H1337 C1333 0.950 . S
H1338 C1335 0.950 . S
C1339 C1330 1.390 . S
C1339 H1332 0.950 . S
C1339 C1336 1.387 . S
C1340 C1341 1.387 . S
C1340 H1344 0.950 . S
C1340 C1349 1.390 . S
C1341 C1340 1.387 . S
C1341 C1343 1.387 . S
H1342 C1349 0.950 . S
C1343 C1341 1.387 . S
C1343 C1345 1.390 . S
C1343 H1347 0.950 . S
H1344 C1340 0.950 . S
C1345 C1343 1.390 . S
C1345 C1346 1.387 . S
C1345 H1348 0.950 . S
C1346 C1345 1.387 . S
C1346 C1349 1.387 . S
H1347 C1343 0.950 . S
H1348 C1345 0.950 . S
C1349 C1340 1.390 . S
C1349 H1342 0.950 . S
C1349 C1346 1.387 . S
C1350 C1351 1.387 . S
C1350 H1354 0.950 . S
C1350 C1359 1.390 . S
C1351 C1350 1.387 . S
C1351 C1353 1.387 . S
H1352 C1359 0.950 . S
C1353 C1351 1.387 . S
C1353 C1355 1.390 . S
C1353 H1357 0.950 . S
H1354 C1350 0.950 . S
C1355 C1353 1.390 . S
C1355 C1356 1.387 . S
C1355 H1358 0.950 . S
C1356 C1355 1.387 . S
C1356 C1359 1.387 . S
H1357 C1353 0.950 . S
H1358 C1355 0.950 . S
C1359 C1350 1.390 . S
C1359 H1352 0.950 . S
C1359 C1356 1.387 . S
C1360 C1361 1.387 . S
C1360 H1364 0.950 . S
C1360 C1369 1.390 . S
C1361 C1360 1.387 . S
C1361 C1363 1.387 . S
H1362 C1369 0.950 . S
C1363 C1361 1.387 . S
C1363 C1365 1.390 . S
C1363 H1367 0.950 . S
H1364 C1360 0.950 . S
C1365 C1363 1.390 . S
C1365 C1366 1.387 . S
C1365 H1368 0.950 . S
C1366 C1365 1.387 . S
C1366 C1369 1.387 . S
H1367 C1363 0.950 . S
H1368 C1365 0.950 . S
C1369 C1360 1.390 . S
C1369 H1362 0.950 . S
C1369 C1366 1.387 . S
C1370 C1371 1.387 . S
C1370 H1374 0.950 . S
C1370 C1379 1.390 . S
C1371 C1370 1.387 . S
C1371 C1373 1.387 . S
H1372 C1379 0.950 . S
C1373 C1371 1.387 . S
C1373 C1375 1.390 . S
C1373 H1377 0.950 . S
H1374 C1370 0.950 . S
C1375 C1373 1.390 . S
C1375 C1376 1.387 . S
C1375 H1378 0.950 . S
C1376 C1375 1.387 . S
C1376 C1379 1.387 . S
H1377 C1373 0.950 . S
H1378 C1375 0.950 . S
C1379 C1370 1.390 . S
C1379 H1372 0.950 . S
C1379 C1376 1.387 . S
C1380 C1381 1.387 . S
C1380 H1384 0.950 . S
C1380 C1389 1.390 . S
C1381 C1380 1.387 . S
C1381 C1383 1.387 . S
H1382 C1389 0.950 . S
C1383 C1381 1.387 . S
C1383 C1385 1.390 . S
C1383 H1387 0.950 . S
H1384 C1380 0.950 . S
C1385 C1383 1.390 . S
C1385 C1386 1.387 . S
C1385 H1388 0.950 . S
C1386 C1385 1.387 . S
C1386 C1389 1.387 . S
H1387 C1383 0.950 . S
H1388 C1385 0.950 . S
C1389 C1380 1.390 . S
C1389 H1382 0.950 . S
C1389 C1386 1.387 . S
C1390 C1391 1.387 . S
C1390 H1394 0.950 . S
C1390 C1399 1.390 . S
C1391 C1390 1.387 . S
C1391 C1393 1.387 . S
H1392 C1399 0.950 . S
C1393 C1391 1.387 . S
C1393 C1395 1.390 . S
C1393 H1397 0.950 . S
H1394 C1390 0.950 . S
C1395 C1393 1.390 . S
C1395 C1396 1.387 . S
C1395 H1398 0.950 . S
C1396 C1395 1.387 . S
C1396 C1399 1.387 . S
H1397 C1393 0.950 . S
H1398 C1395 0.950 . S
C1399 C1390 1.390 . S
C1399 H1392 0.950 . S
C1399 C1396 1.387 . S
C1400 C1401 1.387 . S
C1400 H1404 0.950 . S
C1400 C1409 1.390 . S
C1401 C1400 1.387 . S
C1401 C1403 1.387 . S
H1402 C1409 0.950 . S
C1403 C1401 1.387 . S
C1403 C1405 1.390 . S
C1403 H1407 0.950 . S
H1404 C1400 0.950 . S
C1405 C1403 1.390 . S
C1405 C1406 1.387 . S
C1405 H1408 0.950 . S
C1406 C1405 1.387 . S
C1406 C1409 1.387 . S
H1407 C1403 0.950 . S
H1408 C1405 0.950 . S
C1409 C1400 1.390 . S
C1409 H1402 0.950 . S
C1409 C1406 1.387 . S
C1410 C1411 1.387 . S
C1410 H1414 0.950 . S
C1410 C1419 1.390 . S
C1411 C1410 1.387 . S
C1411 C1413 1.387 . S
H1412 C1419 0.950 . S
C1413 C1411 1.387 . S
C1413 C1415 1.390 . S
C1413 H1417 0.950 . S
H1414 C1410 0.950 . S
C1415 C1413 1.390 . S
C1415 C1416 1.387 . S
C1415 H1418 0.950 . S
C1416 C1415 1.387 . S
C1416 C1419 1.387 . S
H1417 C1413 0.950 . S
H1418 C1415 0.950 . S
C1419 C1410 1.390 . S
C1419 H1412 0.950 . S
C1419 C1416 1.387 . S
C1420 C1421 1.387 . S
C1420 H1424 0.950 . S
C1420 C1429 1.390 . S
C1421 C1420 1.387 . S
C1421 C1423 1.387 . S
H1422 C1429 0.950 . S
C1423 C1421 1.387 . S
C1423 C1425 1.390 . S
C1423 H1427 0.950 . S
H1424 C1420 0.950 . S
C1425 C1423 1.390 . S
C1425 C1426 1.387 . S
C1425 H1428 0.950 . S
C1426 C1425 1.387 . S
C1426 C1429 1.387 . S
H1427 C1423 0.950 . S
H1428 C1425 0.950 . S
C1429 C1420 1.390 . S
C1429 H1422 0.950 . S
C1429 C1426 1.387 . S
C1430 C1431 1.387 . S
C1430 H1434 0.950 . S
C1430 C1439 1.390 . S
C1431 C1430 1.387 . S
C1431 C1433 1.387 . S
H1432 C1439 0.950 . S
C1433 C1431 1.387 . S
C1433 C1435 1.390 . S
C1433 H1437 0.950 . S
H1434 C1430 0.950 . S
C1435 C1433 1.390 . S
C1435 C1436 1.387 . S
C1435 H1438 0.950 . S
C1436 C1435 1.387 . S
C1436 C1439 1.387 . S
H1437 C1433 0.950 . S
H1438 C1435 0.950 . S
C1439 C1430 1.390 . S
C1439 H1432 0.950 . S
C1439 C1436 1.387 . S
C1440 C1441 1.387 . S
C1440 H1444 0.950 . S
C1440 C1449 1.390 . S
C1441 C1440 1.387 . S
C1441 C1443 1.387 1_565 S
H1442 C1449 0.950 . S
C1443 C1441 1.387 1_545 S
C1443 C1445 1.390 . S
C1443 H1447 0.950 . S
H1444 C1440 0.950 . S
C1445 C1443 1.390 . S
C1445 C1446 1.387 . S
C1445 H1448 0.950 . S
C1446 C1445 1.387 . S
C1446 C1449 1.387 1_545 S
H1447 C1443 0.950 . S
H1448 C1445 0.950 . S
C1449 C1440 1.390 . S
C1449 H1442 0.950 . S
C1449 C1446 1.387 1_565 S
C1450 C1451 1.387 1_455 S
C1450 H1454 0.950 . S
C1450 C1459 1.390 . S
C1451 C1450 1.387 1_655 S
C1451 C1453 1.387 . S
H1452 C1459 0.950 . S
C1453 C1451 1.387 . S
C1453 C1455 1.390 . S
C1453 H1457 0.950 . S
H1454 C1450 0.950 . S
C1455 C1453 1.390 . S
C1455 C1456 1.387 1_655 S
C1455 H1458 0.950 . S
C1456 C1455 1.387 1_455 S
C1456 C1459 1.387 . S
H1457 C1453 0.950 . S
H1458 C1455 0.950 . S
C1459 C1450 1.390 . S
C1459 H1452 0.950 . S
C1459 C1456 1.387 . S
C1460 C1461 1.387 . S
C1460 H1464 0.950 . S
C1460 C1469 1.390 . S
C1461 C1460 1.387 . S
C1461 C1463 1.387 1_556 S
H1462 C1469 0.950 . S
C1463 C1461 1.387 1_554 S
C1463 C1465 1.390 . S
C1463 H1467 0.950 . S
H1464 C1460 0.950 . S
C1465 C1463 1.390 . S
C1465 C1466 1.387 . S
C1465 H1468 0.950 . S
C1466 C1465 1.387 . S
C1466 C1469 1.387 1_554 S
H1467 C1463 0.950 . S
H1468 C1465 0.950 . S
C1469 C1460 1.390 . S
C1469 H1462 0.950 . S
C1469 C1466 1.387 1_556 S
C1470 C1471 1.387 1_645 S
C1470 H1474 0.950 . S
C1470 C1479 1.390 . S
C1471 C1470 1.387 1_465 S
C1471 C1473 1.387 1_554 S
H1472 C1479 0.950 . S
C1473 C1471 1.387 1_556 S
C1473 C1475 1.390 . S
C1473 H1477 0.950 . S
H1474 C1470 0.950 . S
C1475 C1473 1.390 . S
C1475 C1476 1.387 1_465 S
C1475 H1478 0.950 . S
C1476 C1475 1.387 1_645 S
C1476 C1479 1.387 1_556 S
H1477 C1473 0.950 . S
H1478 C1475 0.950 . S
C1479 C1470 1.390 . S
C1479 H1472 0.950 . S
C1479 C1476 1.387 1_554 S
C1480 C1481 1.382 1_565 S
C1480 H1484 0.950 . S
C1480 C1489 1.396 . S
C1481 C1480 1.382 1_545 S
C1481 C1483 1.387 . S
H1482 C1489 0.950 . S
C1483 C1481 1.387 . S
C1483 C1485 1.396 . S
C1483 H1487 0.950 . S
H1484 C1480 0.950 . S
C1485 C1483 1.396 . S
C1485 C1486 1.382 1_545 S
C1485 H1488 0.950 . S
C1486 C1485 1.382 1_565 S
C1486 C1489 1.387 . S
H1487 C1483 0.950 . S
H1488 C1485 0.950 . S
C1489 C1480 1.396 . S
C1489 H1482 0.950 . S
C1489 C1486 1.387 . S
C1490 C1491 1.384 1_455 S
C1490 H1494 0.950 . S
C1490 C1499 1.394 . S
C1491 C1490 1.384 1_655 S
C1491 C1493 1.387 . S
H1492 C1499 0.950 . S
C1493 C1491 1.387 . S
C1493 C1495 1.394 . S
C1493 H1497 0.950 . S
H1494 C1490 0.950 . S
C1495 C1493 1.394 . S
C1495 C1496 1.384 1_655 S
C1495 H1498 0.950 . S
C1496 C1495 1.384 1_455 S
C1496 C1499 1.387 . S
H1497 C1493 0.950 . S
H1498 C1495 0.950 . S
C1499 C1490 1.394 . S
C1499 H1492 0.950 . S
C1499 C1496 1.387 . S
C1500 C1501 1.387 . S
C1500 H1504 0.950 . S
C1500 C1509 1.386 1_556 S
C1501 C1500 1.387 . S
C1501 C1503 1.392 . S
H1502 C1509 0.950 . S
C1503 C1501 1.392 . S
C1503 C1505 1.386 1_556 S
C1503 H1507 0.950 . S
H1504 C1500 0.950 . S
C1505 C1503 1.386 1_554 S
C1505 C1506 1.387 . S
C1505 H1508 0.950 . S
C1506 C1505 1.387 . S
C1506 C1509 1.392 . S
H1507 C1503 0.950 . S
H1508 C1505 0.950 . S
C1509 C1500 1.386 1_554 S
C1509 H1502 0.950 . S
C1509 C1506 1.392 . S
C1510 C1511 1.387 . S
C1510 H1514 0.950 . S
C1510 C1519 1.390 . S
C1511 C1510 1.387 . S
C1511 C1513 1.387 . S
H1512 C1519 0.950 . S
C1513 C1511 1.387 . S
C1513 C1515 1.390 . S
C1513 H1517 0.950 . S
H1514 C1510 0.950 . S
C1515 C1513 1.390 . S
C1515 C1516 1.387 . S
C1515 H1518 0.950 . S
C1516 C1515 1.387 . S
C1516 C1519 1.387 . S
H1517 C1513 0.950 . S
H1518 C1515 0.950 . S
C1519 C1510 1.390 . S
C1519 H1512 0.950 . S
C1519 C1516 1.387 . S
C1520 C1521 1.387 . S
C1520 H1524 0.950 . S
C1520 C1529 1.390 . S
C1521 C1520 1.387 . S
C1521 C1523 1.387 . S
H1522 C1529 0.950 . S
C1523 C1521 1.387 . S
C1523 C1525 1.390 . S
C1523 H1527 0.950 . S
H1524 C1520 0.950 . S
C1525 C1523 1.390 . S
C1525 C1526 1.387 . S
C1525 H1528 0.950 . S
C1526 C1525 1.387 . S
C1526 C1529 1.387 . S
H1527 C1523 0.950 . S
H1528 C1525 0.950 . S
C1529 C1520 1.390 . S
C1529 H1522 0.950 . S
C1529 C1526 1.387 . S
C1530 C1531 1.387 1_455 S
C1530 H1534 0.950 . S
C1530 C1539 1.390 . S
C1531 C1530 1.387 1_655 S
C1531 C1533 1.387 . S
H1532 C1539 0.950 . S
C1533 C1531 1.387 . S
C1533 C1535 1.390 . S
C1533 H1537 0.950 . S
H1534 C1530 0.950 . S
C1535 C1533 1.390 . S
C1535 C1536 1.387 1_655 S
C1535 H1538 0.950 . S
C1536 C1535 1.387 1_455 S
C1536 C1539 1.387 . S
H1537 C1533 0.950 . S
H1538 C1535 0.950 . S
C1539 C1530 1.390 . S
C1539 H1532 0.950 . S
C1539 C1536 1.387 . S
C1540 C1541 1.387 . S
C1540 H1544 0.950 . S
C1540 C1549 1.390 . S
C1541 C1540 1.387 . S
C1541 C1543 1.387 . S
H1542 C1549 0.950 . S
C1543 C1541 1.387 . S
C1543 C1545 1.390 . S
C1543 H1547 0.950 . S
H1544 C1540 0.950 . S
C1545 C1543 1.390 . S
C1545 C1546 1.387 . S
C1545 H1548 0.950 . S
C1546 C1545 1.387 . S
C1546 C1549 1.387 . S
H1547 C1543 0.950 . S
H1548 C1545 0.950 . S
C1549 C1540 1.390 . S
C1549 H1542 0.950 . S
C1549 C1546 1.387 . S
C1550 C1551 1.387 . S
C1550 H1554 0.950 . S
C1550 C1559 1.390 . S
C1551 C1550 1.387 . S
C1551 C1553 1.387 . S
H1552 C1559 0.950 . S
C1553 C1551 1.387 . S
C1553 C1555 1.390 . S
C1553 H1557 0.950 . S
H1554 C1550 0.950 . S
C1555 C1553 1.390 . S
C1555 C1556 1.387 . S
C1555 H1558 0.950 . S
C1556 C1555 1.387 . S
C1556 C1559 1.387 . S
H1557 C1553 0.950 . S
H1558 C1555 0.950 . S
C1559 C1550 1.390 . S
C1559 H1552 0.950 . S
C1559 C1556 1.387 . S
C1560 C1561 1.387 . S
C1560 H1564 0.950 . S
C1560 C1569 1.390 . S
C1561 C1560 1.387 . S
C1561 C1563 1.387 . S
H1562 C1569 0.950 . S
C1563 C1561 1.387 . S
C1563 C1565 1.390 . S
C1563 H1567 0.950 . S
H1564 C1560 0.950 . S
C1565 C1563 1.390 . S
C1565 C1566 1.387 . S
C1565 H1568 0.950 . S
C1566 C1565 1.387 . S
C1566 C1569 1.387 . S
H1567 C1563 0.950 . S
H1568 C1565 0.950 . S
C1569 C1560 1.390 . S
C1569 H1562 0.950 . S
C1569 C1566 1.387 . S
C1570 C1571 1.387 1_545 S
C1570 H1574 0.950 . S
C1570 C1579 1.390 . S
C1571 C1570 1.387 1_565 S
C1571 C1573 1.387 . S
H1572 C1579 0.950 . S
C1573 C1571 1.387 . S
C1573 C1575 1.390 . S
C1573 H1577 0.950 . S
H1574 C1570 0.950 . S
C1575 C1573 1.390 . S
C1575 C1576 1.387 1_565 S
C1575 H1578 0.950 . S
C1576 C1575 1.387 1_545 S
C1576 C1579 1.387 . S
H1577 C1573 0.950 . S
H1578 C1575 0.950 . S
C1579 C1570 1.390 . S
C1579 H1572 0.950 . S
C1579 C1576 1.387 . S
C1580 C1581 1.387 . S
C1580 H1584 0.950 . S
C1580 C1589 1.390 . S
C1581 C1580 1.387 . S
C1581 C1583 1.387 . S
H1582 C1589 0.950 . S
C1583 C1581 1.387 . S
C1583 C1585 1.390 . S
C1583 H1587 0.950 . S
H1584 C1580 0.950 . S
C1585 C1583 1.390 . S
C1585 C1586 1.387 . S
C1585 H1588 0.950 . S
C1586 C1585 1.387 . S
C1586 C1589 1.387 . S
H1587 C1583 0.950 . S
H1588 C1585 0.950 . S
C1589 C1580 1.390 . S
C1589 H1582 0.950 . S
C1589 C1586 1.387 . S
C1590 C1591 1.387 . S
C1590 H1594 0.950 . S
C1590 C1599 1.390 1_554 S
C1591 C1590 1.387 . S
C1591 C1593 1.387 . S
H1592 C1599 0.950 . S
C1593 C1591 1.387 . S
C1593 C1595 1.390 1_554 S
C1593 H1597 0.950 . S
H1594 C1590 0.950 . S
C1595 C1593 1.390 1_556 S
C1595 C1596 1.387 . S
C1595 H1598 0.950 . S
C1596 C1595 1.387 . S
C1596 C1599 1.387 . S
H1597 C1593 0.950 . S
H1598 C1595 0.950 . S
C1599 C1590 1.390 1_556 S
C1599 H1592 0.950 . S
C1599 C1596 1.387 . S
C1600 C1601 1.387 1_565 S
C1600 H1604 0.950 . S
C1600 C1609 1.390 . S
C1601 C1600 1.387 1_545 S
C1601 C1603 1.387 . S
H1602 C1609 0.950 . S
C1603 C1601 1.387 . S
C1603 C1605 1.390 . S
C1603 H1607 0.950 . S
H1604 C1600 0.950 . S
C1605 C1603 1.390 . S
C1605 C1606 1.387 . S
C1605 H1608 0.950 . S
C1606 C1605 1.387 . S
C1606 C1609 1.387 1_545 S
H1607 C1603 0.950 . S
H1608 C1605 0.950 . S
C1609 C1600 1.390 . S
C1609 H1602 0.950 . S
C1609 C1606 1.387 1_565 S
C1610 C1611 1.387 . S
C1610 H1614 0.950 . S
C1610 C1619 1.390 . S
C1611 C1610 1.387 . S
C1611 C1613 1.387 . S
H1612 C1619 0.950 . S
C1613 C1611 1.387 . S
C1613 C1615 1.390 . S
C1613 H1617 0.950 . S
H1614 C1610 0.950 . S
C1615 C1613 1.390 . S
C1615 C1616 1.387 . S
C1615 H1618 0.950 . S
C1616 C1615 1.387 . S
C1616 C1619 1.387 . S
H1617 C1613 0.950 . S
H1618 C1615 0.950 . S
C1619 C1610 1.390 . S
C1619 H1612 0.950 . S
C1619 C1616 1.387 . S
C1620 C1621 1.387 . S
C1620 H1624 0.950 . S
C1620 C1629 1.390 . S
C1621 C1620 1.387 . S
C1621 C1623 1.387 . S
H1622 C1629 0.950 . S
C1623 C1621 1.387 . S
C1623 C1625 1.390 . S
C1623 H1627 0.950 . S
H1624 C1620 0.950 . S
C1625 C1623 1.390 . S
C1625 C1626 1.387 . S
C1625 H1628 0.950 . S
C1626 C1625 1.387 . S
C1626 C1629 1.387 . S
H1627 C1623 0.950 . S
H1628 C1625 0.950 . S
C1629 C1620 1.390 . S
C1629 H1622 0.950 . S
C1629 C1626 1.387 . S
C1630 C1631 1.387 . S
C1630 H1634 0.950 . S
C1630 C1639 1.390 . S
C1631 C1630 1.387 . S
C1631 C1633 1.387 1_545 S
H1632 C1639 0.950 . S
C1633 C1631 1.387 1_565 S
C1633 C1635 1.390 . S
C1633 H1637 0.950 . S
H1634 C1630 0.950 . S
C1635 C1633 1.390 . S
C1635 C1636 1.387 1_565 S
C1635 H1638 0.950 . S
C1636 C1635 1.387 1_545 S
C1636 C1639 1.387 . S
H1637 C1633 0.950 . S
H1638 C1635 0.950 . S
C1639 C1630 1.390 . S
C1639 H1632 0.950 . S
C1639 C1636 1.387 . S
C1640 C1641 1.387 1_545 S
C1640 H1644 0.950 . S
C1640 C1649 1.390 . S
C1641 C1640 1.387 1_565 S
C1641 C1643 1.387 . S
H1642 C1649 0.950 . S
C1643 C1641 1.387 . S
C1643 C1645 1.390 . S
C1643 H1647 0.950 . S
H1644 C1640 0.950 . S
C1645 C1643 1.390 . S
C1645 C1646 1.387 . S
C1645 H1648 0.950 . S
C1646 C1645 1.387 . S
C1646 C1649 1.387 1_565 S
H1647 C1643 0.950 . S
H1648 C1645 0.950 . S
C1649 C1640 1.390 . S
C1649 H1642 0.950 . S
C1649 C1646 1.387 1_545 S
C1650 C1651 1.387 . S
C1650 H1654 0.950 . S
C1650 C1659 1.390 . S
C1651 C1650 1.387 . S
C1651 C1653 1.387 . S
H1652 C1659 0.950 . S
C1653 C1651 1.387 . S
C1653 C1655 1.390 . S
C1653 H1657 0.950 . S
H1654 C1650 0.950 . S
C1655 C1653 1.390 . S
C1655 C1656 1.387 . S
C1655 H1658 0.950 . S
C1656 C1655 1.387 . S
C1656 C1659 1.387 . S
H1657 C1653 0.950 . S
H1658 C1655 0.950 . S
C1659 C1650 1.390 . S
C1659 H1652 0.950 . S
C1659 C1656 1.387 . S
C1660 C1661 1.387 . S
C1660 H1664 0.950 . S
C1660 C1669 1.390 . S
C1661 C1660 1.387 . S
C1661 C1663 1.387 . S
H1662 C1669 0.950 . S
C1663 C1661 1.387 . S
C1663 C1665 1.390 . S
C1663 H1667 0.950 . S
H1664 C1660 0.950 . S
C1665 C1663 1.390 . S
C1665 C1666 1.387 . S
C1665 H1668 0.950 . S
C1666 C1665 1.387 . S
C1666 C1669 1.387 . S
H1667 C1663 0.950 . S
H1668 C1665 0.950 . S
C1669 C1660 1.390 . S
C1669 H1662 0.950 . S
C1669 C1666 1.387 . S
C1670 C1671 1.387 . S
C1670 H1674 0.950 . S
C1670 C1679 1.390 . S
C1671 C1670 1.387 . S
C1671 C1673 1.387 1_565 S
H1672 C1679 0.950 . S
C1673 C1671 1.387 1_545 S
C1673 C1675 1.390 . S
C1673 H1677 0.950 . S
H1674 C1670 0.950 . S
C1675 C1673 1.390 . S
C1675 C1676 1.387 1_545 S
C1675 H1678 0.950 . S
C1676 C1675 1.387 1_565 S
C1676 C1679 1.387 . S
H1677 C1673 0.950 . S
H1678 C1675 0.950 . S
C1679 C1670 1.390 . S
C1679 H1672 0.950 . S
C1679 C1676 1.387 . S
C1680 C1681 1.387 . S
C1680 H1684 0.950 . S
C1680 C1689 1.390 . S
C1681 C1680 1.387 . S
C1681 C1683 1.387 . S
H1682 C1689 0.950 . S
C1683 C1681 1.387 . S
C1683 C1685 1.390 . S
C1683 H1687 0.950 . S
H1684 C1680 0.950 . S
C1685 C1683 1.390 . S
C1685 C1686 1.387 . S
C1685 H1688 0.950 . S
C1686 C1685 1.387 . S
C1686 C1689 1.387 . S
H1687 C1683 0.950 . S
H1688 C1685 0.950 . S
C1689 C1680 1.390 . S
C1689 H1682 0.950 . S
C1689 C1686 1.387 . S
C1690 C1691 1.387 . S
C1690 H1694 0.950 . S
C1690 C1699 1.390 . S
C1691 C1690 1.387 . S
C1691 C1693 1.387 . S
H1692 C1699 0.950 . S
C1693 C1691 1.387 . S
C1693 C1695 1.390 . S
C1693 H1697 0.950 . S
H1694 C1690 0.950 . S
C1695 C1693 1.390 . S
C1695 C1696 1.387 . S
C1695 H1698 0.950 . S
C1696 C1695 1.387 . S
C1696 C1699 1.387 . S
H1697 C1693 0.950 . S
H1698 C1695 0.950 . S
C1699 C1690 1.390 . S
C1699 H1692 0.950 . S
C1699 C1696 1.387 . S
C1700 C1701 1.387 . S
C1700 H1704 0.950 . S
C1700 C1709 1.390 . S
C1701 C1700 1.387 . S
C1701 C1703 1.387 . S
H1702 C1709 0.950 . S
C1703 C1701 1.387 . S
C1703 C1705 1.390 . S
C1703 H1707 0.950 . S
H1704 C1700 0.950 . S
C1705 C1703 1.390 . S
C1705 C1706 1.387 . S
C1705 H1708 0.950 . S
C1706 C1705 1.387 . S
C1706 C1709 1.387 . S
H1707 C1703 0.950 . S
H1708 C1705 0.950 . S
C1709 C1700 1.390 . S
C1709 H1702 0.950 . S
C1709 C1706 1.387 . S
C1710 C1711 1.387 . S
C1710 H1714 0.950 . S
C1710 C1719 1.390 . S
C1711 C1710 1.387 . S
C1711 C1713 1.387 . S
H1712 C1719 0.950 . S
C1713 C1711 1.387 . S
C1713 C1715 1.390 . S
C1713 H1717 0.950 . S
H1714 C1710 0.950 . S
C1715 C1713 1.390 . S
C1715 C1716 1.387 . S
C1715 H1718 0.950 . S
C1716 C1715 1.387 . S
C1716 C1719 1.387 . S
H1717 C1713 0.950 . S
H1718 C1715 0.950 . S
C1719 C1710 1.390 . S
C1719 H1712 0.950 . S
C1719 C1716 1.387 . S
C1720 C1721 1.387 . S
C1720 H1724 0.950 . S
C1720 C1729 1.390 . S
C1721 C1720 1.387 . S
C1721 C1723 1.387 . S
H1722 C1729 0.950 . S
C1723 C1721 1.387 . S
C1723 C1725 1.390 . S
C1723 H1727 0.950 . S
H1724 C1720 0.950 . S
C1725 C1723 1.390 . S
C1725 C1726 1.387 . S
C1725 H1728 0.950 . S
C1726 C1725 1.387 . S
C1726 C1729 1.387 . S
H1727 C1723 0.950 . S
H1728 C1725 0.950 . S
C1729 C1720 1.390 . S
C1729 H1722 0.950 . S
C1729 C1726 1.387 . S
C1730 C1731 1.387 . S
C1730 H1734 0.950 . S
C1730 C1739 1.390 . S
C1731 C1730 1.387 . S
C1731 C1733 1.387 . S
H1732 C1739 0.950 . S
C1733 C1731 1.387 . S
C1733 C1735 1.390 . S
C1733 H1737 0.950 . S
H1734 C1730 0.950 . S
C1735 C1733 1.390 . S
C1735 C1736 1.387 . S
C1735 H1738 0.950 . S
C1736 C1735 1.387 . S
C1736 C1739 1.387 . S
H1737 C1733 0.950 . S
H1738 C1735 0.950 . S
C1739 C1730 1.390 . S
C1739 H1732 0.950 . S
C1739 C1736 1.387 . S
C1740 C1741 1.387 . S
C1740 H1744 0.950 . S
C1740 C1749 1.390 . S
C1741 C1740 1.387 . S
C1741 C1743 1.387 . S
H1742 C1749 0.950 . S
C1743 C1741 1.387 . S
C1743 C1745 1.390 . S
C1743 H1747 0.950 . S
H1744 C1740 0.950 . S
C1745 C1743 1.390 . S
C1745 C1746 1.387 . S
C1745 H1748 0.950 . S
C1746 C1745 1.387 . S
C1746 C1749 1.387 . S
H1747 C1743 0.950 . S
H1748 C1745 0.950 . S
C1749 C1740 1.390 . S
C1749 H1742 0.950 . S
C1749 C1746 1.387 . S
C1750 C1751 1.387 . S
C1750 H1754 0.950 . S
C1750 C1759 1.390 . S
C1751 C1750 1.387 . S
C1751 C1753 1.387 . S
H1752 C1759 0.950 . S
C1753 C1751 1.387 . S
C1753 C1755 1.390 . S
C1753 H1757 0.950 . S
H1754 C1750 0.950 . S
C1755 C1753 1.390 . S
C1755 C1756 1.387 . S
C1755 H1758 0.950 . S
C1756 C1755 1.387 . S
C1756 C1759 1.387 . S
H1757 C1753 0.950 . S
H1758 C1755 0.950 . S
C1759 C1750 1.390 . S
C1759 H1752 0.950 . S
C1759 C1756 1.387 . S
C1760 C1761 1.387 . S
C1760 H1764 0.950 . S
C1760 C1769 1.390 . S
C1761 C1760 1.387 . S
C1761 C1763 1.387 . S
H1762 C1769 0.950 . S
C1763 C1761 1.387 . S
C1763 C1765 1.390 . S
C1763 H1767 0.950 . S
H1764 C1760 0.950 . S
C1765 C1763 1.390 . S
C1765 C1766 1.387 . S
C1765 H1768 0.950 . S
C1766 C1765 1.387 . S
C1766 C1769 1.387 . S
H1767 C1763 0.950 . S
H1768 C1765 0.950 . S
C1769 C1760 1.390 . S
C1769 H1762 0.950 . S
C1769 C1766 1.387 . S
C1770 C1771 1.387 . S
C1770 H1774 0.950 . S
C1770 C1779 1.390 . S
C1771 C1770 1.387 . S
C1771 C1773 1.387 . S
H1772 C1779 0.950 . S
C1773 C1771 1.387 . S
C1773 C1775 1.390 . S
C1773 H1777 0.950 . S
H1774 C1770 0.950 . S
C1775 C1773 1.390 . S
C1775 C1776 1.387 . S
C1775 H1778 0.950 . S
C1776 C1775 1.387 . S
C1776 C1779 1.387 . S
H1777 C1773 0.950 . S
H1778 C1775 0.950 . S
C1779 C1770 1.390 . S
C1779 H1772 0.950 . S
C1779 C1776 1.387 . S
C1780 C1781 1.387 . S
C1780 H1784 0.950 . S
C1780 C1789 1.390 . S
C1781 C1780 1.387 . S
C1781 C1783 1.387 . S
H1782 C1789 0.950 . S
C1783 C1781 1.387 . S
C1783 C1785 1.390 . S
C1783 H1787 0.950 . S
H1784 C1780 0.950 . S
C1785 C1783 1.390 . S
C1785 C1786 1.387 . S
C1785 H1788 0.950 . S
C1786 C1785 1.387 . S
C1786 C1789 1.387 . S
H1787 C1783 0.950 . S
H1788 C1785 0.950 . S
C1789 C1780 1.390 . S
C1789 H1782 0.950 . S
C1789 C1786 1.387 . S
C1790 C1791 1.387 . S
C1790 H1794 0.950 . S
C1790 C1799 1.390 . S
C1791 C1790 1.387 . S
C1791 C1793 1.387 . S
H1792 C1799 0.950 . S
C1793 C1791 1.387 . S
C1793 C1795 1.390 . S
C1793 H1797 0.950 . S
H1794 C1790 0.950 . S
C1795 C1793 1.390 . S
C1795 C1796 1.387 . S
C1795 H1798 0.950 . S
C1796 C1795 1.387 . S
C1796 C1799 1.387 . S
H1797 C1793 0.950 . S
H1798 C1795 0.950 . S
C1799 C1790 1.390 . S
C1799 H1792 0.950 . S
C1799 C1796 1.387 . S
C1800 C1801 1.387 . S
C1800 H1804 0.950 . S
C1800 C1809 1.390 . S
C1801 C1800 1.387 . S
C1801 C1803 1.387 . S
H1802 C1809 0.950 . S
C1803 C1801 1.387 . S
C1803 C1805 1.390 . S
C1803 H1807 0.950 . S
H1804 C1800 0.950 . S
C1805 C1803 1.390 . S
C1805 C1806 1.387 . S
C1805 H1808 0.950 . S
C1806 C1805 1.387 . S
C1806 C1809 1.387 . S
H1807 C1803 0.950 . S
H1808 C1805 0.950 . S
C1809 C1800 1.390 . S
C1809 H1802 0.950 . S
C1809 C1806 1.387 . S
C1810 C1811 1.387 . S
C1810 H1814 0.950 . S
C1810 C1819 1.390 . S
C1811 C1810 1.387 . S
C1811 C1813 1.387 . S
H1812 C1819 0.950 . S
C1813 C1811 1.387 . S
C1813 C1815 1.390 . S
C1813 H1817 0.950 . S
H1814 C1810 0.950 . S
C1815 C1813 1.390 . S
C1815 C1816 1.387 . S
C1815 H1818 0.950 . S
C1816 C1815 1.387 . S
C1816 C1819 1.387 . S
H1817 C1813 0.950 . S
H1818 C1815 0.950 . S
C1819 C1810 1.390 . S
C1819 H1812 0.950 . S
C1819 C1816 1.387 . S
C1820 C1821 1.387 . S
C1820 H1824 0.950 . S
C1820 C1829 1.390 . S
C1821 C1820 1.387 . S
C1821 C1823 1.387 . S
H1822 C1829 0.950 . S
C1823 C1821 1.387 . S
C1823 C1825 1.390 . S
C1823 H1827 0.950 . S
H1824 C1820 0.950 . S
C1825 C1823 1.390 . S
C1825 C1826 1.387 . S
C1825 H1828 0.950 . S
C1826 C1825 1.387 . S
C1826 C1829 1.387 . S
H1827 C1823 0.950 . S
H1828 C1825 0.950 . S
C1829 C1820 1.390 . S
C1829 H1822 0.950 . S
C1829 C1826 1.387 . S
C1830 C1831 1.387 . S
C1830 H1834 0.950 . S
C1830 C1839 1.390 . S
C1831 C1830 1.387 . S
C1831 C1833 1.387 . S
H1832 C1839 0.950 . S
C1833 C1831 1.387 . S
C1833 C1835 1.390 . S
C1833 H1837 0.950 . S
H1834 C1830 0.950 . S
C1835 C1833 1.390 . S
C1835 C1836 1.387 . S
C1835 H1838 0.950 . S
C1836 C1835 1.387 . S
C1836 C1839 1.387 . S
H1837 C1833 0.950 . S
H1838 C1835 0.950 . S
C1839 C1830 1.390 . S
C1839 H1832 0.950 . S
C1839 C1836 1.387 . S
C1840 C1841 1.387 . S
C1840 H1844 0.950 . S
C1840 C1849 1.390 . S
C1841 C1840 1.387 . S
C1841 C1843 1.387 . S
H1842 C1849 0.950 . S
C1843 C1841 1.387 . S
C1843 C1845 1.390 . S
C1843 H1847 0.950 . S
H1844 C1840 0.950 . S
C1845 C1843 1.390 . S
C1845 C1846 1.387 . S
C1845 H1848 0.950 . S
C1846 C1845 1.387 . S
C1846 C1849 1.387 . S
H1847 C1843 0.950 . S
H1848 C1845 0.950 . S
C1849 C1840 1.390 . S
C1849 H1842 0.950 . S
C1849 C1846 1.387 . S
C1850 C1851 1.387 . S
C1850 H1854 0.950 . S
C1850 C1859 1.390 . S
C1851 C1850 1.387 . S
C1851 C1853 1.387 . S
H1852 C1859 0.950 . S
C1853 C1851 1.387 . S
C1853 C1855 1.390 . S
C1853 H1857 0.950 . S
H1854 C1850 0.950 . S
C1855 C1853 1.390 . S
C1855 C1856 1.387 . S
C1855 H1858 0.950 . S
C1856 C1855 1.387 . S
C1856 C1859 1.387 . S
H1857 C1853 0.950 . S
H1858 C1855 0.950 . S
C1859 C1850 1.390 . S
C1859 H1852 0.950 . S
C1859 C1856 1.387 . S
C1860 C1861 1.387 . S
C1860 H1864 0.950 . S
C1860 C1869 1.390 . S
C1861 C1860 1.387 . S
C1861 C1863 1.387 . S
H1862 C1869 0.950 . S
C1863 C1861 1.387 . S
C1863 C1865 1.390 . S
C1863 H1867 0.950 . S
H1864 C1860 0.950 . S
C1865 C1863 1.390 . S
C1865 C1866 1.387 . S
C1865 H1868 0.950 . S
C1866 C1865 1.387 . S
C1866 C1869 1.387 . S
H1867 C1863 0.950 . S
H1868 C1865 0.950 . S
C1869 C1860 1.390 . S
C1869 H1862 0.950 . S
C1869 C1866 1.387 . S
C1870 C1871 1.387 . S
C1870 H1874 0.950 . S
C1870 C1879 1.390 . S
C1871 C1870 1.387 . S
C1871 C1873 1.387 . S
H1872 C1879 0.950 . S
C1873 C1871 1.387 . S
C1873 C1875 1.390 . S
C1873 H1877 0.950 . S
H1874 C1870 0.950 . S
C1875 C1873 1.390 . S
C1875 C1876 1.387 . S
C1875 H1878 0.950 . S
C1876 C1875 1.387 . S
C1876 C1879 1.387 . S
H1877 C1873 0.950 . S
H1878 C1875 0.950 . S
C1879 C1870 1.390 . S
C1879 H1872 0.950 . S
C1879 C1876 1.387 . S
C1880 C1881 1.387 . S
C1880 H1884 0.950 . S
C1880 C1889 1.390 . S
C1881 C1880 1.387 . S
C1881 C1883 1.387 . S
H1882 C1889 0.950 . S
C1883 C1881 1.387 . S
C1883 C1885 1.390 . S
C1883 H1887 0.950 . S
H1884 C1880 0.950 . S
C1885 C1883 1.390 . S
C1885 C1886 1.387 . S
C1885 H1888 0.950 . S
C1886 C1885 1.387 . S
C1886 C1889 1.387 . S
H1887 C1883 0.950 . S
H1888 C1885 0.950 . S
C1889 C1880 1.390 . S
C1889 H1882 0.950 . S
C1889 C1886 1.387 . S
C1890 C1891 1.387 . S
C1890 H1894 0.950 . S
C1890 C1899 1.390 . S
C1891 C1890 1.387 . S
C1891 C1893 1.387 . S
H1892 C1899 0.950 . S
C1893 C1891 1.387 . S
C1893 C1895 1.390 . S
C1893 H1897 0.950 . S
H1894 C1890 0.950 . S
C1895 C1893 1.390 . S
C1895 C1896 1.387 . S
C1895 H1898 0.950 . S
C1896 C1895 1.387 . S
C1896 C1899 1.387 . S
H1897 C1893 0.950 . S
H1898 C1895 0.950 . S
C1899 C1890 1.390 . S
C1899 H1892 0.950 . S
C1899 C1896 1.387 . S
C1900 C1901 1.387 . S
C1900 H1904 0.950 . S
C1900 C1909 1.390 . S
C1901 C1900 1.387 . S
C1901 C1903 1.387 . S
H1902 C1909 0.950 . S
C1903 C1901 1.387 . S
C1903 C1905 1.390 . S
C1903 H1907 0.950 . S
H1904 C1900 0.950 . S
C1905 C1903 1.390 . S
C1905 C1906 1.387 . S
C1905 H1908 0.950 . S
C1906 C1905 1.387 . S
C1906 C1909 1.387 . S
H1907 C1903 0.950 . S
H1908 C1905 0.950 . S
C1909 C1900 1.390 . S
C1909 H1902 0.950 . S
C1909 C1906 1.387 . S
C1910 C1911 1.387 . S
C1910 H1914 0.950 . S
C1910 C1919 1.390 . S
C1911 C1910 1.387 . S
C1911 C1913 1.387 . S
H1912 C1919 0.950 . S
C1913 C1911 1.387 . S
C1913 C1915 1.390 . S
C1913 H1917 0.950 . S
H1914 C1910 0.950 . S
C1915 C1913 1.390 . S
C1915 C1916 1.387 . S
C1915 H1918 0.950 . S
C1916 C1915 1.387 . S
C1916 C1919 1.387 . S
H1917 C1913 0.950 . S
H1918 C1915 0.950 . S
C1919 C1910 1.390 . S
C1919 H1912 0.950 . S
C1919 C1916 1.387 . S
C1920 C1921 1.387 1_565 S
C1920 H1924 0.950 . S
C1920 C1929 1.390 . S
C1921 C1920 1.387 1_545 S
C1921 C1923 1.387 . S
H1922 C1929 0.950 . S
C1923 C1921 1.387 . S
C1923 C1925 1.390 . S
C1923 H1927 0.950 . S
H1924 C1920 0.950 . S
C1925 C1923 1.390 . S
C1925 C1926 1.387 1_545 S
C1925 H1928 0.950 . S
C1926 C1925 1.387 1_565 S
C1926 C1929 1.387 . S
H1927 C1923 0.950 . S
H1928 C1925 0.950 . S
C1929 C1920 1.390 . S
C1929 H1922 0.950 . S
C1929 C1926 1.387 . S
C1930 C1931 1.387 . S
C1930 H1934 0.950 . S
C1930 C1939 1.390 1_455 S
C1931 C1930 1.387 . S
C1931 C1933 1.387 . S
H1932 C1939 0.950 . S
C1933 C1931 1.387 . S
C1933 C1935 1.390 . S
C1933 H1937 0.950 . S
H1934 C1930 0.950 . S
C1935 C1933 1.390 . S
C1935 C1936 1.387 1_455 S
C1935 H1938 0.950 . S
C1936 C1935 1.387 1_655 S
C1936 C1939 1.387 . S
H1937 C1933 0.950 . S
H1938 C1935 0.950 . S
C1939 C1930 1.390 1_655 S
C1939 H1932 0.950 . S
C1939 C1936 1.387 . S
C1940 C1941 1.387 . S
C1940 H1944 0.950 . S
C1940 C1949 1.390 . S
C1941 C1940 1.387 . S
C1941 C1943 1.387 . S
H1942 C1949 0.950 . S
C1943 C1941 1.387 . S
C1943 C1945 1.390 . S
C1943 H1947 0.950 . S
H1944 C1940 0.950 . S
C1945 C1943 1.390 . S
C1945 C1946 1.387 . S
C1945 H1948 0.950 . S
C1946 C1945 1.387 . S
C1946 C1949 1.387 . S
H1947 C1943 0.950 . S
H1948 C1945 0.950 . S
C1949 C1940 1.390 . S
C1949 H1942 0.950 . S
C1949 C1946 1.387 . S
C1950 C1951 1.387 1_465 S
C1950 H1954 0.950 1_455 S
C1950 C1959 1.390 . S
C1951 C1950 1.387 1_645 S
C1951 C1953 1.387 1_655 S
H1952 C1959 0.950 . S
C1953 C1951 1.387 1_455 S
C1953 C1955 1.390 . S
C1953 H1957 0.950 1_455 S
H1954 C1950 0.950 1_655 S
C1955 C1953 1.390 . S
C1955 C1956 1.387 1_545 S
C1955 H1958 0.950 . S
C1956 C1955 1.387 1_565 S
C1956 C1959 1.387 . S
H1957 C1953 0.950 1_655 S
H1958 C1955 0.950 . S
C1959 C1950 1.390 . S
C1959 H1952 0.950 . S
C1959 C1956 1.387 . S
C1960 C1961 1.387 1_565 S
C1960 H1964 0.950 . S
C1960 C1969 1.390 . S
C1961 C1960 1.387 1_545 S
C1961 C1963 1.387 . S
H1962 C1969 0.950 . S
C1963 C1961 1.387 . S
C1963 C1965 1.390 . S
C1963 H1967 0.950 . S
H1964 C1960 0.950 . S
C1965 C1963 1.390 . S
C1965 C1966 1.387 1_545 S
C1965 H1968 0.950 . S
C1966 C1965 1.387 1_565 S
C1966 C1969 1.387 . S
H1967 C1963 0.950 . S
H1968 C1965 0.950 . S
C1969 C1960 1.390 . S
C1969 H1962 0.950 . S
C1969 C1966 1.387 . S
C1970 C1971 1.387 1_655 S
C1970 H1974 0.950 1_655 S
C1970 C1979 1.390 . S
C1971 C1970 1.387 1_455 S
C1971 C1973 1.387 1_455 S
H1972 C1979 0.950 . S
C1973 C1971 1.387 1_655 S
C1973 C1975 1.390 . S
C1973 H1977 0.950 1_655 S
H1974 C1970 0.950 1_455 S
C1975 C1973 1.390 . S
C1975 C1976 1.387 . S
C1975 H1978 0.950 . S
C1976 C1975 1.387 . S
C1976 C1979 1.387 . S
H1977 C1973 0.950 1_455 S
H1978 C1975 0.950 . S
C1979 C1970 1.390 . S
C1979 H1972 0.950 . S
C1979 C1976 1.387 . S
C1980 C1981 1.387 . S
C1980 H1984 0.950 . S
C1980 C1989 1.390 . S
C1981 C1980 1.387 . S
C1981 C1983 1.387 . S
H1982 C1989 0.950 . S
C1983 C1981 1.387 . S
C1983 C1985 1.390 . S
C1983 H1987 0.950 . S
H1984 C1980 0.950 . S
C1985 C1983 1.390 . S
C1985 C1986 1.387 . S
C1985 H1988 0.950 . S
C1986 C1985 1.387 . S
C1986 C1989 1.387 . S
H1987 C1983 0.950 . S
H1988 C1985 0.950 . S
C1989 C1980 1.390 . S
C1989 H1982 0.950 . S
C1989 C1986 1.387 . S
C1990 C1991 1.387 1_565 S
C1990 H1994 0.950 . S
C1990 C1999 1.390 . S
C1991 C1990 1.387 1_545 S
C1991 C1993 1.387 . S
H1992 C1999 0.950 1_455 S
C1993 C1991 1.387 . S
C1993 C1995 1.390 . S
C1993 H1997 0.950 . S
H1994 C1990 0.950 . S
C1995 C1993 1.390 . S
C1995 C1996 1.387 1_645 S
C1995 H1998 0.950 1_655 S
C1996 C1995 1.387 1_465 S
C1996 C1999 1.387 1_455 S
H1997 C1993 0.950 . S
H1998 C1995 0.950 1_455 S
C1999 C1990 1.390 . S
C1999 H1992 0.950 1_655 S
C1999 C1996 1.387 1_655 S
C2000 C2001 1.387 . S
C2000 H2004 0.950 . S
C2000 C2009 1.390 . S
C2001 C2000 1.387 . S
C2001 C2003 1.387 . S
H2002 C2009 0.950 . S
C2003 C2001 1.387 . S
C2003 C2005 1.390 . S
C2003 H2007 0.950 . S
H2004 C2000 0.950 . S
C2005 C2003 1.390 . S
C2005 C2006 1.387 . S
C2005 H2008 0.950 . S
C2006 C2005 1.387 . S
C2006 C2009 1.387 . S
H2007 C2003 0.950 . S
H2008 C2005 0.950 . S
C2009 C2000 1.390 . S
C2009 H2002 0.950 . S
C2009 C2006 1.387 . S
C2010 C2011 1.387 . S
C2010 H2014 0.950 . S
C2010 C2019 1.394 . S
C2011 C2010 1.387 . S
C2011 C2013 1.387 . S
H2012 C2019 0.948 1_655 S
C2013 C2011 1.387 . S
C2013 C2015 1.390 . S
C2013 H2017 0.950 . S
H2014 C2010 0.950 . S
C2015 C2013 1.390 . S
C2015 C2016 1.387 1_455 S
C2015 H2018 0.950 1_455 S
C2016 C2015 1.387 1_655 S
C2016 C2019 1.386 1_655 S
H2017 C2013 0.950 . S
H2018 C2015 0.950 1_655 S
C2019 C2010 1.394 . S
C2019 H2012 0.948 1_455 S
C2019 C2016 1.386 1_455 S
C2020 C2021 1.387 . S
C2020 H2024 0.950 . S
C2020 C2029 1.390 . S
C2021 C2020 1.387 . S
C2021 C2023 1.387 . S
H2022 C2029 0.950 . S
C2023 C2021 1.387 . S
C2023 C2025 1.390 . S
C2023 H2027 0.950 . S
H2024 C2020 0.950 . S
C2025 C2023 1.390 . S
C2025 C2026 1.387 . S
C2025 H2028 0.950 . S
C2026 C2025 1.387 . S
C2026 C2029 1.387 . S
H2027 C2023 0.950 . S
H2028 C2025 0.950 . S
C2029 C2020 1.390 . S
C2029 H2022 0.950 . S
C2029 C2026 1.387 . S
C2030 C2031 1.387 . S
C2030 H2034 0.950 . S
C2030 C2039 1.390 1_455 S
C2031 C2030 1.387 . S
C2031 C2033 1.387 . S
H2032 C2039 0.950 . S
C2033 C2031 1.387 . S
C2033 C2035 1.390 . S
C2033 H2037 0.950 . S
H2034 C2030 0.950 . S
C2035 C2033 1.390 . S
C2035 C2036 1.387 1_455 S
C2035 H2038 0.950 . S
C2036 C2035 1.387 1_655 S
C2036 C2039 1.387 . S
H2037 C2033 0.950 . S
H2038 C2035 0.950 . S
C2039 C2030 1.390 1_655 S
C2039 H2032 0.950 . S
C2039 C2036 1.387 . S
C2040 C2041 1.387 . S
C2040 H2044 0.950 . S
C2040 C2049 1.390 . S
C2041 C2040 1.387 . S
C2041 C2043 1.387 . S
H2042 C2049 0.950 . S
C2043 C2041 1.387 . S
C2043 C2045 1.390 . S
C2043 H2047 0.950 . S
H2044 C2040 0.950 . S
C2045 C2043 1.390 . S
C2045 C2046 1.387 . S
C2045 H2048 0.950 . S
C2046 C2045 1.387 . S
C2046 C2049 1.387 . S
H2047 C2043 0.950 . S
H2048 C2045 0.950 . S
C2049 C2040 1.390 . S
C2049 H2042 0.950 . S
C2049 C2046 1.387 . S
C2050 C2051 1.387 1_655 S
C2050 H2054 0.948 1_655 S
C2050 C2059 1.390 . S
C2051 C2050 1.387 1_455 S
C2051 C2053 1.388 . S
H2052 C2059 0.950 . S
C2053 C2051 1.388 . S
C2053 C2055 1.390 1_455 S
C2053 H2057 0.950 . S
H2054 C2050 0.948 1_455 S
C2055 C2053 1.390 1_655 S
C2055 C2056 1.387 . S
C2055 H2058 0.950 . S
C2056 C2055 1.387 . S
C2056 C2059 1.387 . S
H2057 C2053 0.950 . S
H2058 C2055 0.950 . S
C2059 C2050 1.390 . S
C2059 H2052 0.950 . S
C2059 C2056 1.387 . S
C2060 C2061 1.387 . S
C2060 H2064 0.950 . S
C2060 C2069 1.390 . S
C2061 C2060 1.387 . S
C2061 C2063 1.387 . S
H2062 C2069 0.950 . S
C2063 C2061 1.387 . S
C2063 C2065 1.390 . S
C2063 H2067 0.950 . S
H2064 C2060 0.950 . S
C2065 C2063 1.390 . S
C2065 C2066 1.387 . S
C2065 H2068 0.950 . S
C2066 C2065 1.387 . S
C2066 C2069 1.387 . S
H2067 C2063 0.950 . S
H2068 C2065 0.950 . S
C2069 C2060 1.390 . S
C2069 H2062 0.950 . S
C2069 C2066 1.387 . S
C2070 C2071 1.387 . S
C2070 H2074 0.950 . S
C2070 C2079 1.390 . S
C2071 C2070 1.387 . S
C2071 C2073 1.387 . S
H2072 C2079 0.948 1_455 S
C2073 C2071 1.387 . S
C2073 C2075 1.397 . S
C2073 H2077 0.950 . S
H2074 C2070 0.950 . S
C2075 C2073 1.397 . S
C2075 C2076 1.385 1_655 S
C2075 H2078 0.946 1_655 S
C2076 C2075 1.385 1_455 S
C2076 C2079 1.387 1_455 S
H2077 C2073 0.950 . S
H2078 C2075 0.946 1_455 S
C2079 C2070 1.390 . S
C2079 H2072 0.948 1_655 S
C2079 C2076 1.387 1_655 S
C2080 C2081 1.387 . S
C2080 H2084 0.950 . S
C2080 C2089 1.390 . S
C2081 C2080 1.387 . S
C2081 C2083 1.387 1_545 S
H2082 C2089 0.950 . S
C2083 C2081 1.387 1_565 S
C2083 C2085 1.390 . S
C2083 H2087 0.950 . S
H2084 C2080 0.950 . S
C2085 C2083 1.390 . S
C2085 C2086 1.387 . S
C2085 H2088 0.950 . S
C2086 C2085 1.387 . S
C2086 C2089 1.387 1_565 S
H2087 C2083 0.950 . S
H2088 C2085 0.950 . S
C2089 C2080 1.390 . S
C2089 H2082 0.950 . S
C2089 C2086 1.387 1_545 S
C2090 C2091 1.387 . S
C2090 H2094 0.950 . S
C2090 C2099 1.390 . S
C2091 C2090 1.387 . S
C2091 C2093 1.387 . S
H2092 C2099 0.950 . S
C2093 C2091 1.387 . S
C2093 C2095 1.390 . S
C2093 H2097 0.950 . S
H2094 C2090 0.950 . S
C2095 C2093 1.390 . S
C2095 C2096 1.387 . S
C2095 H2098 0.950 . S
C2096 C2095 1.387 . S
C2096 C2099 1.387 . S
H2097 C2093 0.950 . S
H2098 C2095 0.950 . S
C2099 C2090 1.390 . S
C2099 H2092 0.950 . S
C2099 C2096 1.387 . S
C2100 C2101 1.387 . S
C2100 H2104 0.950 . S
C2100 C2109 1.390 . S
C2101 C2100 1.387 . S
C2101 C2103 1.387 . S
H2102 C2109 0.950 . S
C2103 C2101 1.387 . S
C2103 C2105 1.390 . S
C2103 H2107 0.950 . S
H2104 C2100 0.950 . S
C2105 C2103 1.390 . S
C2105 C2106 1.387 . S
C2105 H2108 0.950 . S
C2106 C2105 1.387 . S
C2106 C2109 1.387 . S
H2107 C2103 0.950 . S
H2108 C2105 0.950 . S
C2109 C2100 1.390 . S
C2109 H2102 0.950 . S
C2109 C2106 1.387 . S
C2110 C2111 1.387 . S
C2110 H2114 0.950 . S
C2110 C2119 1.390 . S
C2111 C2110 1.387 . S
C2111 C2113 1.387 1_545 S
H2112 C2119 0.950 . S
C2113 C2111 1.387 1_565 S
C2113 C2115 1.390 . S
C2113 H2117 0.950 . S
H2114 C2110 0.950 . S
C2115 C2113 1.390 . S
C2115 C2116 1.387 . S
C2115 H2118 0.950 . S
C2116 C2115 1.387 . S
C2116 C2119 1.387 1_565 S
H2117 C2113 0.950 . S
H2118 C2115 0.950 . S
C2119 C2110 1.390 . S
C2119 H2112 0.950 . S
C2119 C2116 1.387 1_545 S
C2120 C2121 1.387 . S
C2120 H2124 0.950 . S
C2120 C2129 1.390 . S
C2121 C2120 1.387 . S
C2121 C2123 1.387 1_565 S
H2122 C2129 0.950 . S
C2123 C2121 1.387 1_545 S
C2123 C2125 1.390 . S
C2123 H2127 0.950 . S
H2124 C2120 0.950 . S
C2125 C2123 1.390 . S
C2125 C2126 1.387 . S
C2125 H2128 0.950 . S
C2126 C2125 1.387 . S
C2126 C2129 1.387 1_545 S
H2127 C2123 0.950 . S
H2128 C2125 0.950 . S
C2129 C2120 1.390 . S
C2129 H2122 0.950 . S
C2129 C2126 1.387 1_565 S
C2130 C2131 1.387 . S
C2130 H2134 0.950 . S
C2130 C2139 1.390 . S
C2131 C2130 1.387 . S
C2131 C2133 1.387 . S
H2132 C2139 0.950 . S
C2133 C2131 1.387 . S
C2133 C2135 1.390 . S
C2133 H2137 0.950 . S
H2134 C2130 0.950 . S
C2135 C2133 1.390 . S
C2135 C2136 1.387 . S
C2135 H2138 0.950 . S
C2136 C2135 1.387 . S
C2136 C2139 1.387 . S
H2137 C2133 0.950 . S
H2138 C2135 0.950 . S
C2139 C2130 1.390 . S
C2139 H2132 0.950 . S
C2139 C2136 1.387 . S
C2140 C2141 1.387 . S
C2140 H2144 0.950 . S
C2140 C2149 1.390 . S
C2141 C2140 1.387 . S
C2141 C2143 1.387 . S
H2142 C2149 0.950 . S
C2143 C2141 1.387 . S
C2143 C2145 1.390 . S
C2143 H2147 0.950 . S
H2144 C2140 0.950 . S
C2145 C2143 1.390 . S
C2145 C2146 1.387 . S
C2145 H2148 0.950 . S
C2146 C2145 1.387 . S
C2146 C2149 1.387 . S
H2147 C2143 0.950 . S
H2148 C2145 0.950 . S
C2149 C2140 1.390 . S
C2149 H2142 0.950 . S
C2149 C2146 1.387 . S
C2150 C2151 1.387 . S
C2150 H2154 0.950 . S
C2150 C2159 1.390 . S
C2151 C2150 1.387 . S
C2151 C2153 1.387 1_565 S
H2152 C2159 0.950 . S
C2153 C2151 1.387 1_545 S
C2153 C2155 1.390 . S
C2153 H2157 0.950 . S
H2154 C2150 0.950 . S
C2155 C2153 1.390 . S
C2155 C2156 1.387 . S
C2155 H2158 0.950 . S
C2156 C2155 1.387 . S
C2156 C2159 1.387 1_545 S
H2157 C2153 0.950 . S
H2158 C2155 0.950 . S
C2159 C2150 1.390 . S
C2159 H2152 0.950 . S
C2159 C2156 1.387 1_565 S
C2160 C2161 1.387 . S
C2160 H2164 0.950 . S
C2160 C2169 1.390 . S
C2161 C2160 1.387 . S
C2161 C2163 1.387 . S
H2162 C2169 0.950 . S
C2163 C2161 1.387 . S
C2163 C2165 1.390 . S
C2163 H2167 0.950 . S
H2164 C2160 0.950 . S
C2165 C2163 1.390 . S
C2165 C2166 1.387 . S
C2165 H2168 0.950 . S
C2166 C2165 1.387 . S
C2166 C2169 1.387 . S
H2167 C2163 0.950 . S
H2168 C2165 0.950 . S
C2169 C2160 1.390 . S
C2169 H2162 0.950 . S
C2169 C2166 1.387 . S
C2170 C2171 1.387 . S
C2170 H2174 0.950 . S
C2170 C2179 1.390 . S
C2171 C2170 1.387 . S
C2171 C2173 1.387 . S
H2172 C2179 0.950 . S
C2173 C2171 1.387 . S
C2173 C2175 1.390 . S
C2173 H2177 0.950 . S
H2174 C2170 0.950 . S
C2175 C2173 1.390 . S
C2175 C2176 1.387 . S
C2175 H2178 0.950 . S
C2176 C2175 1.387 . S
C2176 C2179 1.387 . S
H2177 C2173 0.950 . S
H2178 C2175 0.950 . S
C2179 C2170 1.390 . S
C2179 H2172 0.950 . S
C2179 C2176 1.387 . S
C2180 C2181 1.387 . S
C2180 H2184 0.950 . S
C2180 C2189 1.390 . S
C2181 C2180 1.387 . S
C2181 C2183 1.387 . S
H2182 C2189 0.950 . S
C2183 C2181 1.387 . S
C2183 C2185 1.390 . S
C2183 H2187 0.950 . S
H2184 C2180 0.950 . S
C2185 C2183 1.390 . S
C2185 C2186 1.387 . S
C2185 H2188 0.950 . S
C2186 C2185 1.387 . S
C2186 C2189 1.387 . S
H2187 C2183 0.950 . S
H2188 C2185 0.950 . S
C2189 C2180 1.390 . S
C2189 H2182 0.950 . S
C2189 C2186 1.387 . S
C2190 C2191 1.387 . S
C2190 H2194 0.950 . S
C2190 C2199 1.390 . S
C2191 C2190 1.387 . S
C2191 C2193 1.387 . S
H2192 C2199 0.950 . S
C2193 C2191 1.387 . S
C2193 C2195 1.390 . S
C2193 H2197 0.950 . S
H2194 C2190 0.950 . S
C2195 C2193 1.390 . S
C2195 C2196 1.387 . S
C2195 H2198 0.950 . S
C2196 C2195 1.387 . S
C2196 C2199 1.387 . S
H2197 C2193 0.950 . S
H2198 C2195 0.950 . S
C2199 C2190 1.390 . S
C2199 H2192 0.950 . S
C2199 C2196 1.387 . S
C2200 C2201 1.387 . S
C2200 H2204 0.950 . S
C2200 C2209 1.390 . S
C2201 C2200 1.387 . S
C2201 C2203 1.387 . S
H2202 C2209 0.950 . S
C2203 C2201 1.387 . S
C2203 C2205 1.390 . S
C2203 H2207 0.950 . S
H2204 C2200 0.950 . S
C2205 C2203 1.390 . S
C2205 C2206 1.387 . S
C2205 H2208 0.950 . S
C2206 C2205 1.387 . S
C2206 C2209 1.387 . S
H2207 C2203 0.950 . S
H2208 C2205 0.950 . S
C2209 C2200 1.390 . S
C2209 H2202 0.950 . S
C2209 C2206 1.387 . S
C2210 C2211 1.387 . S
C2210 H2214 0.950 . S
C2210 C2219 1.390 . S
C2211 C2210 1.387 . S
C2211 C2213 1.387 . S
H2212 C2219 0.950 . S
C2213 C2211 1.387 . S
C2213 C2215 1.390 . S
C2213 H2217 0.950 . S
H2214 C2210 0.950 . S
C2215 C2213 1.390 . S
C2215 C2216 1.387 . S
C2215 H2218 0.950 . S
C2216 C2215 1.387 . S
C2216 C2219 1.387 . S
H2217 C2213 0.950 . S
H2218 C2215 0.950 . S
C2219 C2210 1.390 . S
C2219 H2212 0.950 . S
C2219 C2216 1.387 . S
C2220 C2221 1.387 . S
C2220 H2224 0.950 . S
C2220 C2229 1.390 . S
C2221 C2220 1.387 . S
C2221 C2223 1.387 . S
H2222 C2229 0.950 . S
C2223 C2221 1.387 . S
C2223 C2225 1.390 . S
C2223 H2227 0.950 . S
H2224 C2220 0.950 . S
C2225 C2223 1.390 . S
C2225 C2226 1.387 . S
C2225 H2228 0.950 . S
C2226 C2225 1.387 . S
C2226 C2229 1.387 . S
H2227 C2223 0.950 . S
H2228 C2225 0.950 . S
C2229 C2220 1.390 . S
C2229 H2222 0.950 . S
C2229 C2226 1.387 . S
C2230 C2231 1.387 . S
C2230 H2234 0.950 . S
C2230 C2239 1.390 . S
C2231 C2230 1.387 . S
C2231 C2233 1.387 . S
H2232 C2239 0.950 . S
C2233 C2231 1.387 . S
C2233 C2235 1.390 . S
C2233 H2237 0.950 . S
H2234 C2230 0.950 . S
C2235 C2233 1.390 . S
C2235 C2236 1.387 . S
C2235 H2238 0.950 . S
C2236 C2235 1.387 . S
C2236 C2239 1.387 . S
H2237 C2233 0.950 . S
H2238 C2235 0.950 . S
C2239 C2230 1.390 . S
C2239 H2232 0.950 . S
C2239 C2236 1.387 . S
C1281 C1023 1.529 . S
C1286 C23 1.529 . S
C1291 C983 1.529 . S
C1296 C63 1.529 . S
C1301 C1103 1.528 . S
C1306 C103 1.528 . S
C1311 C1063 1.530 . S
C1316 C143 1.530 . S
C1321 C162 1.529 . S
C1326 C1162 1.529 . S
C1331 C202 1.529 . S
C1336 C1122 1.529 . S
C1341 C242 1.528 . S
C1346 C1242 1.528 . S
C1351 C1202 1.529 . S
C1356 C282 1.529 . S
C1361 C703 1.528 . S
C1366 C343 1.528 . S
C1371 C663 1.530 . S
C1376 C383 1.530 . S
C1381 C783 1.529 . S
C1386 C423 1.529 . S
C1391 C743 1.529 . S
C1396 C463 1.529 . S
C1401 C482 1.528 . S
C1406 C842 1.528 . S
C1411 C802 1.530 . S
C1416 C522 1.530 . S
C1421 C562 1.530 . S
C1426 C922 1.530 . S
C1431 C882 1.529 . S
C1436 C602 1.529 . S
C1441 C17 0.955 . S
C1446 C826 0.955 . S
C1451 C546 0.948 1_655 S
C1456 C57 0.948 1_455 S
C1461 C1226 0.955 . S
C1466 C97 0.955 . S
C1471 C137 0.951 1_455 S
C1476 C306 0.951 1_655 S
C1481 C186 0.952 . S
C1486 C657 0.952 . S
C1491 C226 0.954 1_655 S
C1496 C377 0.954 1_455 S
C1501 C266 0.950 . S
C1506 C1057 0.950 . S
C1511 C1146 0.951 . S
C1516 C337 0.951 . S
C1521 C906 0.948 . S
C1526 C417 0.948 . S
C1531 C626 0.950 1_655 S
C1536 C457 0.950 1_455 S
C1541 C977 0.950 . S
C1546 C506 0.950 . S
C1551 C586 0.952 . S
C1556 C737 0.952 . S
C1561 C1186 0.955 . S
C1566 C697 0.955 . S
C1571 C777 0.950 . S
C1576 C946 0.950 . S
C1581 C1017 0.949 . S
C1586 C866 0.949 . S
C1591 C1097 0.957 . S
C1596 C1266 0.957 . S
C1601 C26 2.186 . S
C1606 C786 2.186 . S
C1611 C66 2.187 . S
C1616 C746 2.187 . S
C1621 C106 2.182 . S
C1626 C706 2.182 . S
C1631 C146 2.182 . S
C1636 C666 2.182 . S
C1641 C177 2.182 . S
C1646 C937 2.182 . S
C1651 C217 2.183 . S
C1656 C897 2.183 . S
C1661 C257 2.182 . S
C1666 C857 2.182 . S
C1671 C297 2.186 . S
C1676 C817 2.186 . S
C1681 C346 2.182 . S
C1686 C1106 2.182 . S
C1691 C386 2.183 . S
C1696 C1066 2.183 . S
C1701 C426 2.187 . S
C1706 C1026 2.187 . S
C1711 C466 2.182 . S
C1716 C986 2.182 . S
C1721 C1257 2.186 . S
C1726 C497 2.186 . S
C1731 C1217 2.187 . S
C1736 C537 2.187 . S
C1741 C1177 2.187 . S
C1746 C577 2.187 . S
C1751 C1137 2.186 . S
C1756 C617 2.186 . S
C1761 C82 1.946 . S
C1766 C2 1.946 . S
C1771 C122 1.945 . S
C1776 C42 1.945 . S
C1781 C263 1.946 . S
C1786 C183 1.946 . S
C1791 C223 1.945 . S
C1796 C303 1.945 . S
C1801 C402 1.946 . S
C1806 C322 1.946 . S
C1811 C362 1.945 . S
C1816 C442 1.945 . S
C1821 C583 1.945 . S
C1826 C503 1.945 . S
C1831 C543 1.945 . S
C1836 C623 1.945 . S
C1841 C642 1.946 . S
C1846 C722 1.946 . S
C1851 C682 1.945 . S
C1856 C762 1.945 . S
C1861 C903 1.945 . S
C1866 C823 1.945 . S
C1871 C863 1.945 . S
C1876 C943 1.945 . S
C1881 C962 1.945 . S
C1886 C1042 1.945 . S
C1891 C1082 1.945 . S
C1896 C1002 1.945 . S
C1901 C1143 1.946 . S
C1906 C1223 1.946 . S
C1911 C1183 1.945 . S
C1916 C1263 1.945 . S
C1921 C13 3.394 1_556 S
C1926 C293 3.387 . S
C1931 C1213 3.387 . S
C1936 C53 3.394 1_556 S
C1941 C93 3.395 . S
C1946 C533 3.388 . S
C1951 C133 3.394 . S
C1956 C813 3.387 . S
C1961 C144 3.387 . S
C1966 C184 3.394 1_554 S
C1971 C224 3.394 1_554 S
C1976 C1064 3.387 . S
C1981 C384 3.387 . S
C1986 C264 3.394 . S
C1991 C664 3.387 . S
C1996 C304 3.394 . S
C2001 C333 3.394 . S
C2006 C613 3.387 . S
C2011 C893 3.388 . S
C2016 C373 3.395 . S
C2021 C413 3.394 . S
C2026 C213 3.387 . S
C2031 C1133 3.387 . S
C2036 C453 3.394 . S
C2041 C504 3.395 . S
C2046 C464 3.388 . S
C2051 C544 3.394 . S
C2056 C744 3.387 . S
C2061 C584 3.394 . S
C2066 C64 3.387 . S
C2071 C984 3.388 . S
C2076 C624 3.395 . S
C2081 C653 3.395 . S
C2086 C933 3.388 . S
C2091 C693 3.395 . S
C2096 C573 3.388 . S
C2101 C733 3.394 . S
C2106 C1173 3.387 . S
C2111 C773 3.395 . S
C2116 C173 3.388 . S
C2121 C824 3.394 . S
C2126 C784 3.387 . S
C2131 C424 3.387 . S
C2136 C864 3.394 . S
C2141 C1024 3.387 . S
C2146 C904 3.395 . S
C2151 C944 3.395 . S
C2156 C24 3.387 . S
C2161 C1253 3.387 . S
C2166 C973 3.394 1_556 S
C2171 C253 3.387 . S
C2176 C1013 3.395 1_556 S
C2181 C853 3.387 . S
C2186 C1053 3.394 . S
C2191 C1093 3.394 . S
C2196 C493 3.387 . S
C2201 C1104 3.387 . S
C2206 C1144 3.394 1_554 S
C2211 C104 3.387 . S
C2216 C1184 3.395 1_554 S
C2221 C704 3.387 . S
C2226 C1224 3.394 . S
C2231 C1264 3.394 . S
C2236 C344 3.387 . S
