# Generated by pormake.
# Topology srs, (3)-cn, num edge types: 1
# Building blocks:
#     Node 0, Type 0, BuildingBlock: WUSLED_clean_sbu_0, # of connection points: 3
#     Node 1, Type 0, BuildingBlock: WUSLED_clean_sbu_0, # of connection points: 3
#     Node 2, Type 0, BuildingBlock: WUSLED_clean_sbu_0, # of connection points: 3
#     Node 3, Type 0, BuildingBlock: WUSLED_clean_sbu_0, # of connection points: 3
#     Node 4, Type 0, BuildingBlock: WUSLED_clean_sbu_0, # of connection points: 3
#     Node 5, Type 0, BuildingBlock: WUSLED_clean_sbu_0, # of connection points: 3
#     Node 6, Type 0, BuildingBlock: WUSLED_clean_sbu_0, # of connection points: 3
#     Node 7, Type 0, BuildingBlock: WUSLED_clean_sbu_0, # of connection points: 3
#     Edge 8, Type (0, 0), BuildingBlock: TEMPAE_clean_linker_10, # of connection points: 2
#     Edge 9, Type (0, 0), BuildingBlock: TEMPAE_clean_linker_10, # of connection points: 2
#     Edge 10, Type (0, 0), BuildingBlock: TEMPAE_clean_linker_10, # of connection points: 2
#     Edge 11, Type (0, 0), BuildingBlock: TEMPAE_clean_linker_10, # of connection points: 2
#     Edge 12, Type (0, 0), BuildingBlock: TEMPAE_clean_linker_10, # of connection points: 2
#     Edge 13, Type (0, 0), BuildingBlock: TEMPAE_clean_linker_10, # of connection points: 2
#     Edge 14, Type (0, 0), BuildingBlock: TEMPAE_clean_linker_10, # of connection points: 2
#     Edge 15, Type (0, 0), BuildingBlock: TEMPAE_clean_linker_10, # of connection points: 2
#     Edge 16, Type (0, 0), BuildingBlock: TEMPAE_clean_linker_10, # of connection points: 2
#     Edge 17, Type (0, 0), BuildingBlock: TEMPAE_clean_linker_10, # of connection points: 2
#     Edge 18, Type (0, 0), BuildingBlock: TEMPAE_clean_linker_10, # of connection points: 2
#     Edge 19, Type (0, 0), BuildingBlock: TEMPAE_clean_linker_10, # of connection points: 2
# Relax obj value: 0.000
# Max RMSD: 0.008
# Mean RMSD: 0.008
data_MOF--net-srs--node1-WUSLED_clean_sbu_0--edge1-TEMPAE_clean_linker_10
_symmetry_space_group_name_H-M    P1
_symmetry_Int_Tables_number       1
_symmetry_cell_setting            triclinic
loop_
_symmetry_equiv_pos_as_xyz
'x, y, z'
_cell_length_a     64.986441
_cell_length_b     65.356483
_cell_length_c     65.235411
_cell_angle_alpha  89.976673
_cell_angle_beta   90.00121
_cell_angle_gamma 89.998268
loop_
_atom_site_label
_atom_site_type_symbol
_atom_site_fract_x
_atom_site_fract_y
_atom_site_fract_z
_atom_type_partial_charge
C0 C 0.13161 0.11354 0.19418 0.0
C1 C 0.13753 0.09404 0.18726 0.0
C2 C 0.13569 0.08068 0.22219 0.0
C3 C 0.13947 0.07775 0.20113 0.0
C4 C 0.13015 0.10034 0.22904 0.0
C5 C 0.1281 0.11655 0.21517 0.0
U6 U 0.14507 0.1458 0.14641 0.0
O7 O 0.12438 0.16024 0.12393 0.0
O8 O 0.14482 0.17927 0.14267 0.0
C9 C 0.12982 0.17888 0.12916 0.0
C10 C 0.12833 0.1308 0.17989 0.0
C11 C 0.11287 0.19344 0.13265 0.0
C12 C 0.08439 0.20647 0.15306 0.0
C13 C 0.10024 0.1922 0.15006 0.0
C14 C 0.09361 0.22321 0.12122 0.0
C15 C 0.08095 0.22224 0.1387 0.0
C16 C 0.10939 0.20897 0.11826 0.0
C17 C 0.1912 0.13106 0.11238 0.0
C18 C 0.2097 0.15335 0.08882 0.0
C19 C 0.21463 0.11667 0.08714 0.0
C20 C 0.20065 0.11408 0.10325 0.0
C21 C 0.21955 0.13635 0.07985 0.0
C22 C 0.19563 0.15072 0.1049 0.0
C23 C 0.17735 0.12787 0.13006 0.0
O24 O 0.14243 0.14522 0.18012 0.0
O25 O 0.12202 0.12615 0.16131 0.0
O26 O 0.15833 0.1226 0.1257 0.0
O27 O 0.17858 0.14147 0.14486 0.0
H28 H 0.14046 0.09134 0.17114 0.0
H29 H 0.14398 0.06287 0.19539 0.0
H30 H 0.12688 0.1031 0.24508 0.0
H31 H 0.12348 0.13144 0.22083 0.0
H32 H 0.07507 0.20537 0.16677 0.0
H33 H 0.10272 0.1803 0.16136 0.0
H34 H 0.09121 0.2349 0.10969 0.0
H35 H 0.11892 0.2101 0.10467 0.0
H36 H 0.21322 0.16873 0.08377 0.0
H37 H 0.22158 0.1032 0.08039 0.0
H38 H 0.19737 0.09877 0.10872 0.0
H39 H 0.18847 0.16407 0.11168 0.0
C40 C 0.12776 0.93133 0.35275 0.0
C41 C 0.14674 0.94134 0.35041 0.0
C42 C 0.1316 0.96463 0.32529 0.0
C43 C 0.14865 0.95781 0.33674 0.0
C44 C 0.11261 0.95459 0.32787 0.0
C45 C 0.11074 0.93813 0.34145 0.0
U46 U 0.14357 0.89796 0.39895 0.0
O47 O 0.12382 0.88275 0.42175 0.0
O48 O 0.14376 0.8644 0.40182 0.0
C49 C 0.1292 0.8643 0.4158 0.0
C50 C 0.1253 0.91362 0.36657 0.0
C51 C 0.11221 0.84977 0.41238 0.0
C52 C 0.08313 0.83732 0.39246 0.0
C53 C 0.09902 0.85154 0.39543 0.0
C54 C 0.09341 0.81956 0.4234 0.0
C55 C 0.0802 0.82107 0.40637 0.0
C56 C 0.10924 0.83376 0.42635 0.0
C57 C 0.19049 0.91259 0.43193 0.0
C58 C 0.20926 0.89014 0.45513 0.0
C59 C 0.21462 0.92676 0.45664 0.0
C60 C 0.20034 0.92947 0.44082 0.0
C61 C 0.21945 0.90705 0.4639 0.0
C62 C 0.19489 0.89289 0.43933 0.0
C63 C 0.17612 0.91594 0.41472 0.0
O64 O 0.13963 0.89946 0.36549 0.0
O65 O 0.11973 0.91783 0.38547 0.0
O66 O 0.15717 0.92085 0.41977 0.0
O67 O 0.17707 0.90267 0.39961 0.0
H68 H 0.16005 0.93638 0.35908 0.0
H69 H 0.16343 0.96533 0.33529 0.0
H70 H 0.09924 0.95923 0.31913 0.0
H71 H 0.09598 0.93057 0.343 0.0
H72 H 0.07337 0.83884 0.37909 0.0
H73 H 0.1011 0.86383 0.38447 0.0
H74 H 0.09142 0.80748 0.4346 0.0
H75 H 0.11921 0.83221 0.43958 0.0
H76 H 0.2127 0.87472 0.46017 0.0
H77 H 0.22184 0.94017 0.46324 0.0
H78 H 0.19708 0.94482 0.43541 0.0
H79 H 0.18742 0.87962 0.43273 0.0
C80 C 0.38231 0.94419 0.67915 0.0
C81 C 0.39083 0.93786 0.69791 0.0
C82 C 0.38689 0.97235 0.71177 0.0
C83 C 0.39303 0.95181 0.71409 0.0
C84 C 0.37873 0.97863 0.69281 0.0
C85 C 0.37645 0.96469 0.6767 0.0
U86 U 0.39553 0.89614 0.64746 0.0
O87 O 0.37464 0.87322 0.63397 0.0
O88 O 0.39456 0.89166 0.61407 0.0
C89 C 0.37951 0.87826 0.61507 0.0
C90 C 0.37878 0.92969 0.66215 0.0
C91 C 0.36209 0.88157 0.60093 0.0
C92 C 0.33798 0.90393 0.58319 0.0
C93 C 0.35399 0.90117 0.59734 0.0
C94 C 0.3377 0.86751 0.57643 0.0
C95 C 0.32972 0.88714 0.57241 0.0
C96 C 0.35372 0.86479 0.59049 0.0
C97 C 0.44238 0.86317 0.66232 0.0
C98 C 0.45279 0.83219 0.64442 0.0
C99 C 0.4733 0.84496 0.67265 0.0
C100 C 0.45957 0.86125 0.67513 0.0
C101 C 0.47013 0.8302 0.65727 0.0
C102 C 0.43903 0.84854 0.64693 0.0
C103 C 0.42839 0.88067 0.6652 0.0
O104 O 0.3926 0.92976 0.64745 0.0
O105 O 0.37276 0.91118 0.66731 0.0
O106 O 0.4095 0.8762 0.67085 0.0
O107 O 0.42919 0.8949 0.65099 0.0
H108 H 0.39558 0.92213 0.70011 0.0
H109 H 0.39957 0.94652 0.72842 0.0
H110 H 0.37361 0.99424 0.69055 0.0
H111 H 0.36981 0.96987 0.66238 0.0
H112 H 0.33238 0.91928 0.58038 0.0
H113 H 0.3602 0.91435 0.60528 0.0
H114 H 0.33151 0.85417 0.56874 0.0
H115 H 0.35968 0.84953 0.59313 0.0
H116 H 0.44976 0.82101 0.63255 0.0
H117 H 0.48663 0.84416 0.68259 0.0
H118 H 0.46246 0.87245 0.68703 0.0
H119 H 0.42582 0.84979 0.63689 0.0
C120 C 0.37883 0.10178 0.86198 0.0
C121 C 0.39708 0.10129 0.85047 0.0
C122 C 0.38286 0.07443 0.82862 0.0
C123 C 0.3991 0.08769 0.83396 0.0
C124 C 0.36464 0.07506 0.84027 0.0
C125 C 0.36267 0.08859 0.85675 0.0
U126 U 0.39464 0.14788 0.89539 0.0
O127 O 0.37476 0.17109 0.90988 0.0
O128 O 0.39394 0.15104 0.92893 0.0
C129 C 0.37942 0.16505 0.92853 0.0
C130 C 0.3762 0.11576 0.8795 0.0
C131 C 0.36189 0.16181 0.94256 0.0
C132 C 0.33744 0.13956 0.95996 0.0
C133 C 0.3535 0.14229 0.94587 0.0
C134 C 0.33764 0.17589 0.96719 0.0
C135 C 0.3294 0.15632 0.97095 0.0
C136 C 0.35372 0.17858 0.95319 0.0
C137 C 0.44271 0.17965 0.88192 0.0
C138 C 0.45132 0.21304 0.89607 0.0
C139 C 0.47682 0.19407 0.87679 0.0
C140 C 0.46263 0.17825 0.87382 0.0
C141 C 0.47136 0.21169 0.88793 0.0
C142 C 0.43714 0.19712 0.89316 0.0
C143 C 0.42807 0.16278 0.87827 0.0
O144 O 0.39018 0.11453 0.89402 0.0
O145 O 0.37117 0.13469 0.87493 0.0
O146 O 0.40936 0.1681 0.87275 0.0
O147 O 0.42836 0.14788 0.89181 0.0
H148 H 0.40972 0.11143 0.85425 0.0
H149 H 0.41326 0.08774 0.82521 0.0
H150 H 0.35195 0.06489 0.83682 0.0
H151 H 0.34849 0.0887 0.86549 0.0
H152 H 0.33164 0.12425 0.96257 0.0
H153 H 0.35954 0.12912 0.93778 0.0
H154 H 0.33162 0.18921 0.97504 0.0
H155 H 0.3599 0.19379 0.95077 0.0
H156 H 0.44669 0.22629 0.9049 0.0
H157 H 0.492 0.19262 0.87009 0.0
H158 H 0.46721 0.16492 0.86507 0.0
H159 H 0.42185 0.19846 0.89964 0.0
C160 C 0.63191 0.42902 0.84934 0.0
C161 C 0.63867 0.44832 0.85605 0.0
C162 C 0.63604 0.46176 0.82121 0.0
C163 C 0.64064 0.46455 0.84212 0.0
C164 C 0.62966 0.44229 0.81456 0.0
C165 C 0.62759 0.42614 0.82848 0.0
U166 U 0.64589 0.39631 0.89666 0.0
O167 O 0.62548 0.3825 0.91981 0.0
O168 O 0.64468 0.36287 0.90039 0.0
C169 C 0.63012 0.36371 0.91434 0.0
C170 C 0.62855 0.41186 0.86374 0.0
C171 C 0.61258 0.34976 0.91124 0.0
C172 C 0.58337 0.33761 0.89132 0.0
C173 C 0.59973 0.35135 0.89402 0.0
C174 C 0.59249 0.3207 0.92309 0.0
C175 C 0.57956 0.32207 0.90584 0.0
C176 C 0.60881 0.3344 0.92574 0.0
C177 C 0.69373 0.40956 0.92894 0.0
C178 C 0.70173 0.39589 0.96274 0.0
C179 C 0.72785 0.4141 0.94354 0.0
C180 C 0.71386 0.41712 0.92753 0.0
C181 C 0.72198 0.40347 0.96137 0.0
C182 C 0.68774 0.39885 0.94663 0.0
C183 C 0.67937 0.41314 0.91178 0.0
O184 O 0.64215 0.39699 0.86306 0.0
O185 O 0.62302 0.41671 0.88252 0.0
O186 O 0.66067 0.41903 0.91674 0.0
O187 O 0.67965 0.39937 0.89712 0.0
H188 H 0.64224 0.45091 0.87206 0.0
H189 H 0.64581 0.47928 0.84771 0.0
H190 H 0.62575 0.43965 0.79864 0.0
H191 H 0.6223 0.4114 0.82298 0.0
H192 H 0.57361 0.33924 0.87797 0.0
H193 H 0.6024 0.36316 0.88267 0.0
H194 H 0.59025 0.30877 0.93441 0.0
H195 H 0.61861 0.33289 0.9391 0.0
H196 H 0.69678 0.38746 0.97615 0.0
H197 H 0.74321 0.42036 0.94207 0.0
H198 H 0.71877 0.42545 0.91402 0.0
H199 H 0.67229 0.39278 0.94797 0.0
C200 C 0.87846 0.44128 0.18084 0.0
C201 C 0.8973 0.44323 0.19118 0.0
C202 C 0.88264 0.46953 0.21344 0.0
C203 C 0.89938 0.45724 0.20734 0.0
C204 C 0.86375 0.46726 0.20311 0.0
C205 C 0.86172 0.45331 0.18699 0.0
U206 U 0.89443 0.39485 0.14798 0.0
O207 O 0.87477 0.3714 0.13368 0.0
O208 O 0.89383 0.39136 0.11445 0.0
C209 C 0.87951 0.37717 0.11496 0.0
C210 C 0.87585 0.42708 0.16347 0.0
C211 C 0.86205 0.38016 0.10086 0.0
C212 C 0.83322 0.40023 0.08811 0.0
C213 C 0.84947 0.39758 0.10201 0.0
C214 C 0.84187 0.368 0.07196 0.0
C215 C 0.82923 0.38547 0.07287 0.0
C216 C 0.85809 0.36539 0.08581 0.0
C217 C 0.9426 0.36346 0.16208 0.0
C218 C 0.95135 0.32979 0.1487 0.0
C219 C 0.97665 0.34914 0.16785 0.0
C220 C 0.96246 0.36503 0.17031 0.0
C221 C 0.97127 0.33122 0.15713 0.0
C222 C 0.93715 0.34577 0.15113 0.0
C223 C 0.92788 0.38033 0.16539 0.0
O224 O 0.8898 0.42818 0.14891 0.0
O225 O 0.87085 0.40819 0.16825 0.0
O226 O 0.90918 0.37501 0.17092 0.0
O227 O 0.92816 0.39502 0.15164 0.0
H228 H 0.91042 0.43404 0.18666 0.0
H229 H 0.91418 0.45868 0.21483 0.0
H230 H 0.85043 0.47614 0.2076 0.0
H231 H 0.84702 0.45194 0.17926 0.0
H232 H 0.82368 0.41375 0.08939 0.0
H233 H 0.85227 0.40913 0.11359 0.0
H234 H 0.83948 0.35647 0.06027 0.0
H235 H 0.86768 0.35188 0.08465 0.0
H236 H 0.9466 0.31618 0.14051 0.0
H237 H 0.99193 0.35099 0.17421 0.0
H238 H 0.96699 0.37861 0.17871 0.0
H239 H 0.9219 0.34426 0.14461 0.0
C240 C 0.8819 0.59861 0.36434 0.0
C241 C 0.88849 0.60507 0.34486 0.0
C242 C 0.88543 0.57018 0.33176 0.0
C243 C 0.89021 0.591 0.32873 0.0
C244 C 0.87937 0.56377 0.35146 0.0
C245 C 0.87759 0.57784 0.36752 0.0
U246 U 0.8956 0.64647 0.39633 0.0
O247 O 0.87486 0.66954 0.40982 0.0
O248 O 0.89445 0.65075 0.42974 0.0
C249 C 0.87954 0.66432 0.42871 0.0
C250 C 0.87857 0.6132 0.38134 0.0
C251 C 0.862 0.6611 0.44273 0.0
C252 C 0.83769 0.63886 0.46034 0.0
C253 C 0.85377 0.64155 0.44626 0.0
C254 C 0.83757 0.67528 0.46712 0.0
C255 C 0.82948 0.65569 0.4711 0.0
C256 C 0.85366 0.67793 0.45313 0.0
C257 C 0.94305 0.67897 0.38213 0.0
C258 C 0.9513 0.71252 0.3961 0.0
C259 C 0.97651 0.69433 0.37574 0.0
C260 C 0.96267 0.67813 0.37327 0.0
C261 C 0.97101 0.7118 0.3871 0.0
C262 C 0.93745 0.69623 0.39365 0.0
C263 C 0.92881 0.66167 0.37903 0.0
O264 O 0.89228 0.61288 0.39614 0.0
O265 O 0.87281 0.6318 0.37623 0.0
O266 O 0.91003 0.66635 0.37319 0.0
O267 O 0.92934 0.64731 0.39312 0.0
H268 H 0.89197 0.62103 0.34202 0.0
H269 H 0.89475 0.59654 0.31375 0.0
H270 H 0.87594 0.54784 0.3545 0.0
H271 H 0.87257 0.5725 0.38244 0.0
H272 H 0.832 0.62354 0.46311 0.0
H273 H 0.85995 0.62834 0.43834 0.0
H274 H 0.83142 0.68864 0.4748 0.0
H275 H 0.85972 0.69316 0.45053 0.0
H276 H 0.94646 0.72577 0.40481 0.0
H277 H 0.99165 0.69303 0.36892 0.0
H278 H 0.96732 0.66489 0.36442 0.0
H279 H 0.92236 0.69715 0.40066 0.0
C280 C 0.62797 0.6115 0.69111 0.0
C281 C 0.64673 0.60097 0.69281 0.0
C282 C 0.63178 0.57804 0.71838 0.0
C283 C 0.64864 0.58442 0.70638 0.0
C284 C 0.61301 0.5886 0.71643 0.0
C285 C 0.61115 0.60514 0.70295 0.0
U286 U 0.64376 0.64506 0.64505 0.0
O287 O 0.62405 0.66068 0.62253 0.0
O288 O 0.64426 0.67868 0.64252 0.0
C289 C 0.62959 0.67903 0.62866 0.0
C290 C 0.62556 0.62932 0.67743 0.0
C291 C 0.61273 0.69365 0.63239 0.0
C292 C 0.58069 0.70332 0.64912 0.0
C293 C 0.59664 0.68918 0.64604 0.0
C294 C 0.59686 0.72651 0.62504 0.0
C295 C 0.58063 0.7222 0.63866 0.0
C296 C 0.61271 0.71238 0.62195 0.0
C297 C 0.69036 0.6303 0.61167 0.0
C298 C 0.70912 0.65278 0.58849 0.0
C299 C 0.71437 0.61614 0.58684 0.0
C300 C 0.70013 0.61342 0.60269 0.0
C301 C 0.71924 0.63587 0.57964 0.0
C302 C 0.6948 0.65002 0.60433 0.0
C303 C 0.67605 0.62693 0.62893 0.0
O304 O 0.64004 0.64333 0.67852 0.0
O305 O 0.61984 0.62528 0.65853 0.0
O306 O 0.65703 0.62225 0.62394 0.0
O307 O 0.67721 0.64007 0.64415 0.0
H308 H 0.65989 0.6056 0.68373 0.0
H309 H 0.66324 0.57649 0.70734 0.0
H310 H 0.59981 0.58432 0.72561 0.0
H311 H 0.59657 0.61311 0.7019 0.0
H312 H 0.56856 0.6996 0.65987 0.0
H313 H 0.59643 0.6748 0.6543 0.0
H314 H 0.59717 0.74074 0.61652 0.0
H315 H 0.62496 0.71606 0.6113 0.0
H316 H 0.7126 0.6682 0.5835 0.0
H317 H 0.72152 0.60273 0.58018 0.0
H318 H 0.69684 0.59807 0.60806 0.0
H319 H 0.68739 0.66329 0.611 0.0
C320 C 0.15053 0.98355 0.29741 0.0
C321 C 0.13348 0.98201 0.31055 0.0
C322 C 0.15202 0.99943 0.28291 0.0
C323 C 0.13612 1.01419 0.2815 0.0
C324 C 0.11903 1.01289 0.29491 0.0
C325 C 0.11792 0.99686 0.30923 0.0
C326 C 0.17048 1.00024 0.26888 0.0
C327 C 0.10179 0.02836 0.29403 0.0
C328 C 0.14597 0.06589 0.25631 0.0
C329 C 0.1369 0.06327 0.23695 0.0
C330 C 0.14623 0.04993 0.27078 0.0
C331 C 0.13713 0.03087 0.26585 0.0
C332 C 0.12829 0.028 0.2462 0.0
C333 C 0.12832 0.04419 0.232 0.0
C334 C 0.15596 0.05359 0.29147 0.0
C335 C 0.11834 1.00796 0.24035 0.0
H336 H 0.16252 0.97204 0.29815 0.0
H337 H 0.10485 0.99599 0.31951 0.0
H338 H 0.16544 0.99867 0.25271 0.0
H339 H 0.17827 1.01527 0.2703 0.0
H340 H 0.18181 0.98797 0.27229 0.0
H341 H 0.08969 0.02535 0.30567 0.0
H342 H 0.10798 0.04398 0.29652 0.0
H343 H 0.09458 0.02817 0.27861 0.0
H344 H 0.15289 0.08048 0.26017 0.0
H345 H 0.12106 0.04209 0.21719 0.0
H346 H 0.16792 0.04186 0.29451 0.0
H347 H 0.14416 0.05212 0.30367 0.0
H348 H 0.16311 0.06899 0.29263 0.0
H349 H 0.12938 0.99518 0.24249 0.0
H350 H 0.11292 1.00788 0.2242 0.0
H351 H 0.10499 1.00494 0.25052 0.0
C352 C 0.23256 0.88957 0.49582 0.0
C353 C 0.2353 0.90418 0.48026 0.0
C354 C 0.24749 0.88667 0.51117 0.0
C355 C 0.26562 0.8987 0.51106 0.0
C356 C 0.26845 0.91354 0.49549 0.0
C357 C 0.25333 0.91604 0.48029 0.0
C358 C 0.24389 0.87066 0.52747 0.0
C359 C 0.28755 0.92668 0.49479 0.0
C360 C 0.29699 0.90393 0.5602 0.0
C361 C 0.31313 0.89004 0.55681 0.0
C362 C 0.28139 0.90683 0.54552 0.0
C363 C 0.28184 0.89554 0.52699 0.0
C364 C 0.29801 0.88144 0.52351 0.0
C365 C 0.31345 0.87892 0.53839 0.0
C366 C 0.26444 0.92204 0.54982 0.0
C367 C 0.2991 0.86911 0.50397 0.0
H368 H 0.2186 0.88051 0.49613 0.0
H369 H 0.25582 0.92713 0.46818 0.0
H370 H 0.25643 0.85915 0.52707 0.0
H371 H 0.24419 0.87786 0.54287 0.0
H372 H 0.22895 0.86265 0.5255 0.0
H373 H 0.2872 0.93787 0.48197 0.0
H374 H 0.28928 0.93518 0.50941 0.0
H375 H 0.30136 0.91687 0.49302 0.0
H376 H 0.29642 0.91241 0.57446 0.0
H377 H 0.32599 0.8684 0.53542 0.0
H378 H 0.24928 0.91426 0.54934 0.0
H379 H 0.2643 0.93404 0.53779 0.0
H380 H 0.26623 0.92953 0.565 0.0
H381 H 0.28477 0.8601 0.50199 0.0
H382 H 0.31241 0.85844 0.50379 0.0
H383 H 0.30038 0.87953 0.4906 0.0
C384 C 0.38229 0.98128 0.74899 0.0
C385 C 0.38835 0.9871 0.72918 0.0
C386 C 0.38238 0.99537 0.76528 0.0
C387 C 0.38875 1.01581 0.76173 0.0
C388 C 0.39537 0.02164 0.74188 0.0
C389 C 0.39506 1.00725 0.72587 0.0
C390 C 0.37512 0.98853 0.78617 0.0
C391 C 0.40243 0.04321 0.73747 0.0
C392 C 0.36814 0.05687 0.79765 0.0
C393 C 0.38476 0.05992 0.81105 0.0
C394 C 0.36932 0.04271 0.78149 0.0
C395 C 0.38759 0.03127 0.77855 0.0
C396 C 0.40455 0.03446 0.79182 0.0
C397 C 0.40294 0.04875 0.80789 0.0
C398 C 0.35092 0.03989 0.76764 0.0
C399 C 0.42429 0.02257 0.78923 0.0
H400 H 0.37686 0.96583 0.75165 0.0
H401 H 0.40004 1.01181 0.71068 0.0
H402 H 0.38701 0.99194 0.79788 0.0
H403 H 0.36105 0.99713 0.79049 0.0
H404 H 0.3716 0.97191 0.78666 0.0
H405 H 0.40798 0.04507 0.72148 0.0
H406 H 0.38955 0.05405 0.74006 0.0
H407 H 0.415 0.04756 0.74812 0.0
H408 H 0.35415 0.06565 0.79975 0.0
H409 H 0.41579 0.05083 0.81827 0.0
H410 H 0.34552 0.0238 0.7684 0.0
H411 H 0.3553 0.04301 0.7515 0.0
H412 H 0.33793 0.05011 0.77184 0.0
H413 H 0.42124 1.00598 0.79117 0.0
H414 H 0.43627 0.02725 0.80044 0.0
H415 H 0.43043 0.02477 0.77351 0.0
C416 C 0.23247 0.15386 0.04787 0.0
C417 C 0.23522 0.13911 0.06329 0.0
C418 C 0.24731 0.15677 0.03244 0.0
C419 C 0.26535 0.14459 0.03231 0.0
C420 C 0.26815 0.12957 0.04771 0.0
C421 C 0.25313 0.12706 0.06301 0.0
C422 C 0.24375 0.17297 1.01632 0.0
C423 C 0.28714 0.11626 0.04816 0.0
C424 C 0.29651 0.13972 0.98301 0.0
C425 C 0.31278 0.15342 0.98653 0.0
C426 C 0.28093 0.13677 0.99769 0.0
C427 C 0.28153 0.14782 1.01636 0.0
C428 C 0.29782 0.16175 1.01997 0.0
C429 C 0.31324 0.16432 1.00508 0.0
C430 C 0.26385 0.12175 0.99327 0.0
C431 C 0.29907 0.17384 0.03965 0.0
H432 H 0.2186 0.16306 0.04775 0.0
H433 H 0.25562 0.11586 0.075 0.0
H434 H 0.25635 0.18442 1.01683 0.0
H435 H 0.24399 0.16595 1.00084 0.0
H436 H 0.22885 0.18103 1.01842 0.0
H437 H 0.28673 0.10488 0.06081 0.0
H438 H 0.28876 0.10797 0.03341 0.0
H439 H 0.30104 0.12593 0.05004 0.0
H440 H 0.29583 0.13142 0.96865 0.0
H441 H 0.32589 0.17468 1.00815 0.0
H442 H 0.24874 0.12962 0.99391 0.0
H443 H 0.26367 0.10959 1.00514 0.0
H444 H 0.26552 0.11443 0.97798 0.0
H445 H 0.2848 0.18291 0.04179 0.0
H446 H 0.31244 0.18443 0.0399 0.0
H447 H 0.30033 0.16326 0.05289 0.0
C448 C 0.98827 0.30355 0.1362 0.0
C449 C 0.98647 0.31421 0.1548 0.0
C450 C 1.00302 0.288 0.13364 0.0
C451 C 1.01639 0.28298 0.15005 0.0
C452 C 1.01445 0.29344 0.16895 0.0
C453 C 0.99951 0.30884 0.17111 0.0
C454 C 1.00457 0.27721 0.11324 0.0
C455 C 0.02835 0.28855 0.18685 0.0
C456 C 0.04491 0.23195 0.14918 0.0
C457 C 0.06439 0.23776 0.14191 0.0
C458 C 0.02913 0.24646 0.15187 0.0
C459 C 0.0329 0.26731 0.14723 0.0
C460 C 0.05255 0.27327 0.14 0.0
C461 C 0.06802 0.25847 0.13745 0.0
C462 C 1.00839 0.23946 0.15956 0.0
C463 C 0.05728 0.29534 0.135 0.0
H464 H 0.97845 0.30768 0.12342 0.0
H465 H 0.99803 0.31669 0.18567 0.0
H466 H 1.01984 0.28024 0.10627 0.0
H467 H 1.00328 0.26042 0.11543 0.0
H468 H 0.99245 0.28222 0.10234 0.0
H469 H 0.02454 0.29772 0.20067 0.0
H470 H 0.02717 0.27208 0.19079 0.0
H471 H 0.0446 0.29158 0.1826 0.0
H472 H 0.04188 0.21597 0.15245 0.0
H473 H 0.0831 0.26318 0.13214 0.0
H474 H 0.99633 0.24325 0.14813 0.0
H475 H 1.00442 0.24765 0.17392 0.0
H476 H 1.00795 0.22273 0.16258 0.0
H477 H 0.04652 0.301 0.12307 0.0
H478 H 0.07329 0.29746 0.12942 0.0
H479 H 0.05502 0.30498 0.14881 0.0
C480 C 0.50713 0.22405 0.89575 0.0
C481 C 0.48656 0.22854 0.89093 0.0
C482 C 0.52179 0.23967 0.89815 0.0
C483 C 0.51582 0.26037 0.89563 0.0
C484 C 0.49506 0.26504 0.89089 0.0
C485 C 0.48069 0.24909 0.88864 0.0
C486 C 0.5437 0.23401 0.90337 0.0
C487 C 0.48809 0.28688 0.888 0.0
C488 C 0.55043 0.3008 0.9197 0.0
C489 C 0.56244 0.3071 0.90295 0.0
C490 C 0.53499 0.2859 0.91747 0.0
C491 C 0.53135 0.27706 0.89799 0.0
C492 C 0.54309 0.28366 0.88092 0.0
C493 C 0.55847 0.29857 0.8836 0.0
C494 C 0.52278 0.27938 0.93606 0.0
C495 C 0.53972 0.27463 0.85989 0.0
H496 H 0.51175 0.20825 0.89783 0.0
H497 H 0.4649 0.2527 0.88469 0.0
H498 H 0.55426 0.23976 0.89132 0.0
H499 H 0.54828 0.24138 0.918 0.0
H500 H 0.54585 0.21722 0.90487 0.0
H501 H 0.47138 0.28798 0.88456 0.0
H502 H 0.49137 0.2959 0.90202 0.0
H503 H 0.49679 0.29404 0.87524 0.0
H504 H 0.55312 0.30752 0.93465 0.0
H505 H 0.56778 0.30315 0.8706 0.0
H506 H 0.5254 0.26288 0.93911 0.0
H507 H 0.50609 0.28141 0.93317 0.0
H508 H 0.52703 0.28818 0.94999 0.0
H509 H 0.54334 0.25805 0.86015 0.0
H510 H 0.54942 0.28209 0.84802 0.0
H511 H 0.52333 0.27618 0.85539 0.0
C512 C 0.06743 0.78476 0.40677 0.0
C513 C 0.0636 0.8056 0.40315 0.0
C514 C 0.05195 0.76998 0.40413 0.0
C515 C 0.03208 0.7761 0.39766 0.0
C516 C 0.0281 0.79708 0.39389 0.0
C517 C 0.04389 0.81156 0.39665 0.0
C518 C 0.05691 0.74778 0.4082 0.0
C519 C 1.00711 0.80424 0.38702 0.0
C520 C 0.99843 0.73516 0.37314 0.0
C521 C 0.98591 0.72904 0.38959 0.0
C522 C 1.01324 0.75066 0.37546 0.0
C523 C 1.01559 0.76045 0.39468 0.0
C524 C 1.0027 0.7547 0.41123 0.0
C525 C 0.98806 0.73907 0.4085 0.0
C526 C 0.02662 0.75633 0.3574 0.0
C527 C 1.00468 0.76476 0.43196 0.0
H528 H 0.08267 0.77994 0.41148 0.0
H529 H 0.0407 0.82763 0.39403 0.0
H530 H 0.04648 0.74162 0.42017 0.0
H531 H 0.05436 0.73864 0.3941 0.0
H532 H 0.07307 0.74554 0.41331 0.0
H533 H 1.0065 0.82107 0.38468 0.0
H534 H 1.00282 0.79659 0.37246 0.0
H535 H 0.99539 0.79994 0.3986 0.0
H536 H 0.99667 0.7278 0.35836 0.0
H537 H 0.97865 0.73436 0.42138 0.0
H538 H 0.04299 0.75321 0.36108 0.0
H539 H 0.02528 0.77294 0.35416 0.0
H540 H 0.02246 0.74771 0.34333 0.0
H541 H 1.02012 0.76153 0.43847 0.0
H542 H 0.99283 0.75931 0.44296 0.0
H543 H 1.0033 0.78161 0.43042 0.0
C544 C 0.54315 0.73112 0.64287 0.0
C545 C 0.56379 0.7374 0.64187 0.0
C546 C 0.52715 0.74542 0.64536 0.0
C547 C 0.53187 0.76653 0.64697 0.0
C548 C 0.55268 0.77293 0.64614 0.0
C549 C 0.56834 0.75833 0.6436 0.0
C550 C 0.50518 0.73797 0.6461 0.0
C551 C 0.55841 0.79525 0.64794 0.0
C552 C 0.49126 0.80686 0.63488 0.0
C553 C 0.48508 0.81305 0.65455 0.0
C554 C 0.50614 0.79145 0.63218 0.0
C555 C 0.51512 0.78198 0.64955 0.0
C556 C 0.50865 0.78785 0.66942 0.0
C557 C 0.49372 0.80324 0.67167 0.0
C558 C 0.51259 0.78564 0.61072 0.0
C559 C 0.51777 0.77811 0.68835 0.0
H560 H 0.53946 0.71503 0.64131 0.0
H561 H 0.58424 0.76331 0.64316 0.0
H562 H 0.49783 0.74282 0.66066 0.0
H563 H 0.49623 0.74494 0.63341 0.0
H564 H 0.50408 0.72105 0.64485 0.0
H565 H 0.5753 0.79773 0.64701 0.0
H566 H 0.55089 0.80415 0.63554 0.0
H567 H 0.55279 0.80147 0.66274 0.0
H568 H 0.48487 0.81445 0.62155 0.0
H569 H 0.48881 0.80764 0.68692 0.0
H570 H 0.5109 0.76891 0.60846 0.0
H571 H 0.52907 0.78942 0.60843 0.0
H572 H 0.50341 0.79369 0.59882 0.0
H573 H 0.5158 0.76126 0.68774 0.0
H574 H 0.51061 0.78389 0.70268 0.0
H575 H 0.53455 0.78121 0.68897 0.0
C576 C 0.65112 0.55853 0.74557 0.0
C577 C 0.63367 0.56058 0.73303 0.0
C578 C 0.65265 0.54259 0.76 0.0
C579 C 0.63637 0.5283 0.76195 0.0
C580 C 0.61887 0.53012 0.74914 0.0
C581 C 0.61774 0.54619 0.73487 0.0
C582 C 0.67155 0.54122 0.77338 0.0
C583 C 0.60122 0.51516 0.75062 0.0
C584 C 0.64556 0.4763 0.78676 0.0
C585 C 0.63725 0.47915 0.80643 0.0
C586 C 0.64579 0.49226 0.7723 0.0
C587 C 0.63744 0.51158 0.77755 0.0
C588 C 0.62938 0.51468 0.79749 0.0
C589 C 0.62942 0.49847 0.81168 0.0
C590 C 0.65467 0.48834 0.75128 0.0
C591 C 0.62024 0.53499 0.80369 0.0
H592 H 0.6634 0.56969 0.74443 0.0
H593 H 0.60435 0.54745 0.72505 0.0
H594 H 0.66713 0.54291 0.78972 0.0
H595 H 0.67884 0.52596 0.77169 0.0
H596 H 0.68311 0.55315 0.76958 0.0
H597 H 0.58881 0.51854 0.7394 0.0
H598 H 0.60685 0.49936 0.7479 0.0
H599 H 0.59457 0.51554 0.76628 0.0
H600 H 0.65189 0.46151 0.78266 0.0
H601 H 0.62276 0.50076 0.82673 0.0
H602 H 0.66686 0.49972 0.74783 0.0
H603 H 0.64249 0.49018 0.7395 0.0
H604 H 0.66132 0.47275 0.74987 0.0
H605 H 0.63157 0.54744 0.80118 0.0
H606 H 0.6154 0.53521 0.82002 0.0
H607 H 0.60664 0.53841 0.79399 0.0
C608 C 0.80875 0.40753 0.04867 0.0
C609 C 0.81226 0.38834 0.0577 0.0
C610 C 0.7935 0.41019 0.0336 0.0
C611 C 0.78141 0.39326 0.02735 0.0
C612 C 0.78458 0.37395 0.03669 0.0
C613 C 0.79993 0.37173 0.05173 0.0
C614 C 0.79063 0.43103 0.02403 0.0
C615 C 0.77199 0.35553 0.03056 0.0
C616 C 0.7311 0.40321 0.9989 0.0
C617 C 0.73701 0.40037 0.97839 0.0
C618 C 0.74534 0.40092 1.01499 0.0
C619 C 0.76599 0.39557 1.01052 0.0
C620 C 0.77198 0.39247 0.98987 0.0
C621 C 0.75746 0.39493 0.9741 0.0
C622 C 0.73835 0.40444 0.03677 0.0
C623 C 0.79378 0.38659 0.98442 0.0
H624 H 0.81833 0.42041 0.05298 0.0
H625 H 0.80228 0.35692 0.05883 0.0
H626 H 0.79428 0.43028 1.00743 0.0
H627 H 0.77435 0.43593 0.02542 0.0
H628 H 0.80059 0.44283 0.03122 0.0
H629 H 0.77589 0.34174 0.03974 0.0
H630 H 0.75535 0.35883 0.03246 0.0
H631 H 0.77459 0.35202 1.01412 0.0
H632 H 0.71541 0.40763 1.00234 0.0
H633 H 0.76209 0.39241 0.95834 0.0
H634 H 0.74729 0.41715 0.04368 0.0
H635 H 0.74131 0.39059 0.04615 0.0
H636 H 0.72171 0.40823 0.03773 0.0
H637 H 0.80461 0.39851 0.98991 0.0
H638 H 0.79594 0.38462 0.96765 0.0
H639 H 0.79798 0.37207 0.99219 0.0
C640 C 0.8956 0.47977 0.24839 0.0
C641 C 0.88469 0.48467 0.23047 0.0
C642 C 0.89683 0.49363 0.26485 0.0
C643 C 0.8869 0.51288 0.26342 0.0
C644 C 0.87622 0.51808 0.24523 0.0
C645 C 0.87528 0.50397 0.229 0.0
C646 C 0.90837 0.48748 0.28397 0.0
C647 C 0.86548 0.53845 0.24301 0.0
C648 C 0.87081 0.54029 0.31234 0.0
C649 C 0.88615 0.55529 0.31439 0.0
C650 C 0.87105 0.52629 0.29601 0.0
C651 C 0.88695 0.52728 0.2812 0.0
C652 C 0.90253 0.54231 0.28318 0.0
C653 C 0.90196 0.55611 0.29973 0.0
C654 C 0.85409 0.51056 0.29446 0.0
C655 C 0.91976 0.54388 0.26774 0.0
H656 H 0.90276 0.46485 0.24978 0.0
H657 H 0.86714 0.50808 0.2151 0.0
H658 H 0.92013 0.49919 0.28778 0.0
H659 H 0.89757 0.48664 0.29711 0.0
H660 H 0.91612 0.47243 0.2823 0.0
H661 H 0.85837 0.54042 0.22765 0.0
H662 H 0.85326 0.53987 0.2548 0.0
H663 H 0.87655 0.55111 0.24558 0.0
H664 H 0.85833 0.53971 0.32334 0.0
H665 H 0.91403 0.56745 0.30128 0.0
H666 H 0.86076 0.49494 0.29398 0.0
H667 H 0.84538 0.51281 0.28001 0.0
H668 H 0.84315 0.51143 0.30752 0.0
H669 H 0.92821 0.52915 0.2669 0.0
H670 H 0.93086 0.55623 0.27158 0.0
H671 H 0.91335 0.54691 0.25227 0.0
C672 C 0.81319 0.66394 0.50511 0.0
C673 C 0.81285 0.65285 0.48667 0.0
C674 C 0.79775 0.66144 0.51997 0.0
C675 C 0.78153 0.6474 0.51647 0.0
C676 C 0.78104 0.63615 0.49791 0.0
C677 C 0.79666 0.63903 0.48324 0.0
C678 C 0.79888 0.67373 0.53954 0.0
C679 C 0.76405 0.62101 0.49358 0.0
C680 C 0.75306 0.62683 0.56316 0.0
C681 C 0.73506 0.63874 0.56325 0.0
C682 C 0.76815 0.62934 0.54793 0.0
C683 C 0.76533 0.64423 0.53241 0.0
C684 C 0.74722 0.6563 0.53237 0.0
C685 C 0.73231 0.6534 0.54774 0.0
C686 C 0.78722 0.61615 0.54857 0.0
C687 C 0.74363 0.67236 0.51611 0.0
H688 H 0.82577 0.67441 0.5081 0.0
H689 H 0.79606 0.63057 0.46897 0.0
H690 H 0.78456 0.68275 0.54156 0.0
H691 H 0.80016 0.66328 0.55289 0.0
H692 H 0.8122 0.68438 0.53973 0.0
H693 H 0.76579 0.61356 0.47837 0.0
H694 H 0.7639 0.60896 0.50557 0.0
H695 H 0.7489 0.62882 0.49412 0.0
H696 H 0.75554 0.6157 0.57522 0.0
H697 H 0.71838 0.6625 0.54748 0.0
H698 H 0.80106 0.62593 0.55034 0.0
H699 H 0.78891 0.6077 0.53392 0.0
H700 H 0.78687 0.60492 0.56135 0.0
H701 H 0.75619 0.68385 0.51653 0.0
H702 H 0.7287 0.68039 0.51813 0.0
H703 H 0.7439 0.66521 0.5007 0.0
loop_
_geom_bond_atom_site_label_1
_geom_bond_atom_site_label_2
_geom_bond_distance
_geom_bond_site_symmetry_2
_ccdc_geom_bond_type
C0 C1 1.264 . S
C0 C5 1.479 . S
C0 C10 1.465 . S
C1 C0 1.264 . S
C1 C3 1.339 . S
C1 H28 0.931 . S
C2 C3 1.395 . S
C2 C4 1.320 . S
C3 C1 1.339 . S
C3 C2 1.395 . S
C3 H29 0.929 . S
C4 C2 1.320 . S
C4 C5 1.405 . S
C4 H30 0.930 . S
C5 C0 1.479 . S
C5 C4 1.405 . S
C5 H31 0.931 . S
U6 O7 2.454 . S
U6 O8 2.458 . S
U6 C9 2.984 . S
U6 C10 2.847 . S
U6 C23 2.882 . S
U6 O24 2.441 . S
U6 O25 2.420 . S
U6 O26 2.455 . S
U6 O27 2.449 . S
O7 U6 2.454 . S
O7 C9 1.353 . S
O8 U6 2.458 . S
O8 C9 1.286 . S
C9 U6 2.984 . S
C9 O7 1.353 . S
C9 O8 1.286 . S
C9 C11 1.363 . S
C10 C0 1.465 . S
C10 U6 2.847 . S
C10 O24 1.249 . S
C10 O25 1.202 . S
C11 C9 1.363 . S
C11 C13 1.408 . S
C11 C16 1.342 . S
C12 C13 1.310 . S
C12 C15 1.461 . S
C12 H32 0.932 . S
C13 C11 1.408 . S
C13 C12 1.310 . S
C13 H33 0.930 . S
C14 C15 1.474 . S
C14 C16 1.285 . S
C14 H34 0.929 . S
C15 C12 1.461 . S
C15 C14 1.474 . S
C16 C11 1.342 . S
C16 C14 1.285 . S
C16 H35 0.930 . S
C17 C20 1.424 . S
C17 C22 1.245 . S
C17 C23 1.428 . S
C18 C21 1.260 . S
C18 C22 1.477 . S
C18 H36 0.932 . S
C19 C20 1.384 . S
C19 C21 1.479 . S
C19 H37 0.929 . S
C20 C17 1.424 . S
C20 C19 1.384 . S
C20 H38 0.928 . S
C21 C18 1.260 . S
C21 C19 1.479 . S
C22 C17 1.245 . S
C22 C18 1.477 . S
C22 H39 0.932 . S
C23 U6 2.882 . S
C23 C17 1.428 . S
C23 O26 1.301 . S
C23 O27 1.282 . S
O24 U6 2.441 . S
O24 C10 1.249 . S
O25 U6 2.420 . S
O25 C10 1.202 . S
O26 U6 2.455 . S
O26 C23 1.301 . S
O27 U6 2.449 . S
O27 C23 1.282 . S
H28 C1 0.931 . S
H29 C3 0.929 . S
H30 C4 0.930 . S
H31 C5 0.931 . S
H32 C12 0.932 . S
H33 C13 0.930 . S
H34 C14 0.929 . S
H35 C16 0.930 . S
H36 C18 0.932 . S
H37 C19 0.929 . S
H38 C20 0.928 . S
H39 C22 0.932 . S
C40 C41 1.264 . S
C40 C45 1.479 . S
C40 C50 1.465 . S
C41 C40 1.264 . S
C41 C43 1.339 . S
C41 H68 0.931 . S
C42 C43 1.395 . S
C42 C44 1.320 . S
C43 C41 1.339 . S
C43 C42 1.395 . S
C43 H69 0.929 . S
C44 C42 1.320 . S
C44 C45 1.405 . S
C44 H70 0.930 . S
C45 C40 1.479 . S
C45 C44 1.405 . S
C45 H71 0.931 . S
U46 O47 2.454 . S
U46 O48 2.458 . S
U46 C49 2.984 . S
U46 C50 2.847 . S
U46 C63 2.882 . S
U46 O64 2.441 . S
U46 O65 2.420 . S
U46 O66 2.455 . S
U46 O67 2.449 . S
O47 U46 2.454 . S
O47 C49 1.353 . S
O48 U46 2.458 . S
O48 C49 1.286 . S
C49 U46 2.984 . S
C49 O47 1.353 . S
C49 O48 1.286 . S
C49 C51 1.363 . S
C50 C40 1.465 . S
C50 U46 2.847 . S
C50 O64 1.249 . S
C50 O65 1.202 . S
C51 C49 1.363 . S
C51 C53 1.408 . S
C51 C56 1.342 . S
C52 C53 1.310 . S
C52 C55 1.461 . S
C52 H72 0.932 . S
C53 C51 1.408 . S
C53 C52 1.310 . S
C53 H73 0.930 . S
C54 C55 1.474 . S
C54 C56 1.285 . S
C54 H74 0.929 . S
C55 C52 1.461 . S
C55 C54 1.474 . S
C56 C51 1.342 . S
C56 C54 1.285 . S
C56 H75 0.930 . S
C57 C60 1.424 . S
C57 C62 1.245 . S
C57 C63 1.428 . S
C58 C61 1.260 . S
C58 C62 1.477 . S
C58 H76 0.932 . S
C59 C60 1.384 . S
C59 C61 1.479 . S
C59 H77 0.929 . S
C60 C57 1.424 . S
C60 C59 1.384 . S
C60 H78 0.928 . S
C61 C58 1.260 . S
C61 C59 1.479 . S
C62 C57 1.245 . S
C62 C58 1.477 . S
C62 H79 0.932 . S
C63 U46 2.882 . S
C63 C57 1.428 . S
C63 O66 1.301 . S
C63 O67 1.282 . S
O64 U46 2.441 . S
O64 C50 1.249 . S
O65 U46 2.420 . S
O65 C50 1.202 . S
O66 U46 2.455 . S
O66 C63 1.301 . S
O67 U46 2.449 . S
O67 C63 1.282 . S
H68 C41 0.931 . S
H69 C43 0.929 . S
H70 C44 0.930 . S
H71 C45 0.931 . S
H72 C52 0.932 . S
H73 C53 0.930 . S
H74 C54 0.929 . S
H75 C56 0.930 . S
H76 C58 0.932 . S
H77 C59 0.929 . S
H78 C60 0.928 . S
H79 C62 0.932 . S
C80 C81 1.264 . S
C80 C85 1.479 . S
C80 C90 1.465 . S
C81 C80 1.264 . S
C81 C83 1.339 . S
C81 H108 0.931 . S
C82 C83 1.395 . S
C82 C84 1.320 . S
C83 C81 1.339 . S
C83 C82 1.395 . S
C83 H109 0.929 . S
C84 C82 1.320 . S
C84 C85 1.405 . S
C84 H110 0.930 . S
C85 C80 1.479 . S
C85 C84 1.405 . S
C85 H111 0.931 . S
U86 O87 2.454 . S
U86 O88 2.458 . S
U86 C89 2.984 . S
U86 C90 2.847 . S
U86 C103 2.882 . S
U86 O104 2.441 . S
U86 O105 2.420 . S
U86 O106 2.455 . S
U86 O107 2.449 . S
O87 U86 2.454 . S
O87 C89 1.353 . S
O88 U86 2.458 . S
O88 C89 1.286 . S
C89 U86 2.984 . S
C89 O87 1.353 . S
C89 O88 1.286 . S
C89 C91 1.363 . S
C90 C80 1.465 . S
C90 U86 2.847 . S
C90 O104 1.249 . S
C90 O105 1.202 . S
C91 C89 1.363 . S
C91 C93 1.408 . S
C91 C96 1.342 . S
C92 C93 1.310 . S
C92 C95 1.461 . S
C92 H112 0.932 . S
C93 C91 1.408 . S
C93 C92 1.310 . S
C93 H113 0.930 . S
C94 C95 1.474 . S
C94 C96 1.285 . S
C94 H114 0.929 . S
C95 C92 1.461 . S
C95 C94 1.474 . S
C96 C91 1.342 . S
C96 C94 1.285 . S
C96 H115 0.930 . S
C97 C100 1.424 . S
C97 C102 1.245 . S
C97 C103 1.428 . S
C98 C101 1.260 . S
C98 C102 1.477 . S
C98 H116 0.932 . S
C99 C100 1.384 . S
C99 C101 1.479 . S
C99 H117 0.929 . S
C100 C97 1.424 . S
C100 C99 1.384 . S
C100 H118 0.928 . S
C101 C98 1.260 . S
C101 C99 1.479 . S
C102 C97 1.245 . S
C102 C98 1.477 . S
C102 H119 0.932 . S
C103 U86 2.882 . S
C103 C97 1.428 . S
C103 O106 1.301 . S
C103 O107 1.282 . S
O104 U86 2.441 . S
O104 C90 1.249 . S
O105 U86 2.420 . S
O105 C90 1.202 . S
O106 U86 2.455 . S
O106 C103 1.301 . S
O107 U86 2.449 . S
O107 C103 1.282 . S
H108 C81 0.931 . S
H109 C83 0.929 . S
H110 C84 0.930 . S
H111 C85 0.931 . S
H112 C92 0.932 . S
H113 C93 0.930 . S
H114 C94 0.929 . S
H115 C96 0.930 . S
H116 C98 0.932 . S
H117 C99 0.929 . S
H118 C100 0.928 . S
H119 C102 0.932 . S
C120 C121 1.264 . S
C120 C125 1.479 . S
C120 C130 1.465 . S
C121 C120 1.264 . S
C121 C123 1.339 . S
C121 H148 0.931 . S
C122 C123 1.395 . S
C122 C124 1.320 . S
C123 C121 1.339 . S
C123 C122 1.395 . S
C123 H149 0.929 . S
C124 C122 1.320 . S
C124 C125 1.405 . S
C124 H150 0.930 . S
C125 C120 1.479 . S
C125 C124 1.405 . S
C125 H151 0.931 . S
U126 O127 2.454 . S
U126 O128 2.458 . S
U126 C129 2.984 . S
U126 C130 2.847 . S
U126 C143 2.882 . S
U126 O144 2.441 . S
U126 O145 2.420 . S
U126 O146 2.455 . S
U126 O147 2.449 . S
O127 U126 2.454 . S
O127 C129 1.353 . S
O128 U126 2.458 . S
O128 C129 1.286 . S
C129 U126 2.984 . S
C129 O127 1.353 . S
C129 O128 1.286 . S
C129 C131 1.363 . S
C130 C120 1.465 . S
C130 U126 2.847 . S
C130 O144 1.249 . S
C130 O145 1.202 . S
C131 C129 1.363 . S
C131 C133 1.408 . S
C131 C136 1.342 . S
C132 C133 1.310 . S
C132 C135 1.461 . S
C132 H152 0.932 . S
C133 C131 1.408 . S
C133 C132 1.310 . S
C133 H153 0.930 . S
C134 C135 1.474 . S
C134 C136 1.285 . S
C134 H154 0.929 . S
C135 C132 1.461 . S
C135 C134 1.474 . S
C136 C131 1.342 . S
C136 C134 1.285 . S
C136 H155 0.930 . S
C137 C140 1.424 . S
C137 C142 1.245 . S
C137 C143 1.428 . S
C138 C141 1.260 . S
C138 C142 1.477 . S
C138 H156 0.932 . S
C139 C140 1.384 . S
C139 C141 1.479 . S
C139 H157 0.929 . S
C140 C137 1.424 . S
C140 C139 1.384 . S
C140 H158 0.928 . S
C141 C138 1.260 . S
C141 C139 1.479 . S
C142 C137 1.245 . S
C142 C138 1.477 . S
C142 H159 0.932 . S
C143 U126 2.882 . S
C143 C137 1.428 . S
C143 O146 1.301 . S
C143 O147 1.282 . S
O144 U126 2.441 . S
O144 C130 1.249 . S
O145 U126 2.420 . S
O145 C130 1.202 . S
O146 U126 2.455 . S
O146 C143 1.301 . S
O147 U126 2.449 . S
O147 C143 1.282 . S
H148 C121 0.931 . S
H149 C123 0.929 . S
H150 C124 0.930 . S
H151 C125 0.931 . S
H152 C132 0.932 . S
H153 C133 0.930 . S
H154 C134 0.929 . S
H155 C136 0.930 . S
H156 C138 0.932 . S
H157 C139 0.929 . S
H158 C140 0.928 . S
H159 C142 0.932 . S
C160 C161 1.264 . S
C160 C165 1.479 . S
C160 C170 1.465 . S
C161 C160 1.264 . S
C161 C163 1.339 . S
C161 H188 0.931 . S
C162 C163 1.395 . S
C162 C164 1.320 . S
C163 C161 1.339 . S
C163 C162 1.395 . S
C163 H189 0.929 . S
C164 C162 1.320 . S
C164 C165 1.405 . S
C164 H190 0.930 . S
C165 C160 1.479 . S
C165 C164 1.405 . S
C165 H191 0.931 . S
U166 O167 2.454 . S
U166 O168 2.458 . S
U166 C169 2.984 . S
U166 C170 2.847 . S
U166 C183 2.882 . S
U166 O184 2.441 . S
U166 O185 2.420 . S
U166 O186 2.455 . S
U166 O187 2.449 . S
O167 U166 2.454 . S
O167 C169 1.353 . S
O168 U166 2.458 . S
O168 C169 1.286 . S
C169 U166 2.984 . S
C169 O167 1.353 . S
C169 O168 1.286 . S
C169 C171 1.363 . S
C170 C160 1.465 . S
C170 U166 2.847 . S
C170 O184 1.249 . S
C170 O185 1.202 . S
C171 C169 1.363 . S
C171 C173 1.408 . S
C171 C176 1.342 . S
C172 C173 1.310 . S
C172 C175 1.461 . S
C172 H192 0.932 . S
C173 C171 1.408 . S
C173 C172 1.310 . S
C173 H193 0.930 . S
C174 C175 1.474 . S
C174 C176 1.285 . S
C174 H194 0.929 . S
C175 C172 1.461 . S
C175 C174 1.474 . S
C176 C171 1.342 . S
C176 C174 1.285 . S
C176 H195 0.930 . S
C177 C180 1.424 . S
C177 C182 1.245 . S
C177 C183 1.428 . S
C178 C181 1.260 . S
C178 C182 1.477 . S
C178 H196 0.932 . S
C179 C180 1.384 . S
C179 C181 1.479 . S
C179 H197 0.929 . S
C180 C177 1.424 . S
C180 C179 1.384 . S
C180 H198 0.928 . S
C181 C178 1.260 . S
C181 C179 1.479 . S
C182 C177 1.245 . S
C182 C178 1.477 . S
C182 H199 0.932 . S
C183 U166 2.882 . S
C183 C177 1.428 . S
C183 O186 1.301 . S
C183 O187 1.282 . S
O184 U166 2.441 . S
O184 C170 1.249 . S
O185 U166 2.420 . S
O185 C170 1.202 . S
O186 U166 2.455 . S
O186 C183 1.301 . S
O187 U166 2.449 . S
O187 C183 1.282 . S
H188 C161 0.931 . S
H189 C163 0.929 . S
H190 C164 0.930 . S
H191 C165 0.931 . S
H192 C172 0.932 . S
H193 C173 0.930 . S
H194 C174 0.929 . S
H195 C176 0.930 . S
H196 C178 0.932 . S
H197 C179 0.929 . S
H198 C180 0.928 . S
H199 C182 0.932 . S
C200 C201 1.264 . S
C200 C205 1.479 . S
C200 C210 1.465 . S
C201 C200 1.264 . S
C201 C203 1.339 . S
C201 H228 0.931 . S
C202 C203 1.395 . S
C202 C204 1.320 . S
C203 C201 1.339 . S
C203 C202 1.395 . S
C203 H229 0.929 . S
C204 C202 1.320 . S
C204 C205 1.405 . S
C204 H230 0.930 . S
C205 C200 1.479 . S
C205 C204 1.405 . S
C205 H231 0.931 . S
U206 O207 2.454 . S
U206 O208 2.458 . S
U206 C209 2.984 . S
U206 C210 2.847 . S
U206 C223 2.882 . S
U206 O224 2.441 . S
U206 O225 2.420 . S
U206 O226 2.455 . S
U206 O227 2.449 . S
O207 U206 2.454 . S
O207 C209 1.353 . S
O208 U206 2.458 . S
O208 C209 1.286 . S
C209 U206 2.984 . S
C209 O207 1.353 . S
C209 O208 1.286 . S
C209 C211 1.363 . S
C210 C200 1.465 . S
C210 U206 2.847 . S
C210 O224 1.249 . S
C210 O225 1.202 . S
C211 C209 1.363 . S
C211 C213 1.408 . S
C211 C216 1.342 . S
C212 C213 1.310 . S
C212 C215 1.461 . S
C212 H232 0.932 . S
C213 C211 1.408 . S
C213 C212 1.310 . S
C213 H233 0.930 . S
C214 C215 1.474 . S
C214 C216 1.285 . S
C214 H234 0.929 . S
C215 C212 1.461 . S
C215 C214 1.474 . S
C216 C211 1.342 . S
C216 C214 1.285 . S
C216 H235 0.930 . S
C217 C220 1.424 . S
C217 C222 1.245 . S
C217 C223 1.428 . S
C218 C221 1.260 . S
C218 C222 1.477 . S
C218 H236 0.932 . S
C219 C220 1.384 . S
C219 C221 1.479 . S
C219 H237 0.929 . S
C220 C217 1.424 . S
C220 C219 1.384 . S
C220 H238 0.928 . S
C221 C218 1.260 . S
C221 C219 1.479 . S
C222 C217 1.245 . S
C222 C218 1.477 . S
C222 H239 0.932 . S
C223 U206 2.882 . S
C223 C217 1.428 . S
C223 O226 1.301 . S
C223 O227 1.282 . S
O224 U206 2.441 . S
O224 C210 1.249 . S
O225 U206 2.420 . S
O225 C210 1.202 . S
O226 U206 2.455 . S
O226 C223 1.301 . S
O227 U206 2.449 . S
O227 C223 1.282 . S
H228 C201 0.931 . S
H229 C203 0.929 . S
H230 C204 0.930 . S
H231 C205 0.931 . S
H232 C212 0.932 . S
H233 C213 0.930 . S
H234 C214 0.929 . S
H235 C216 0.930 . S
H236 C218 0.932 . S
H237 C219 0.929 . S
H238 C220 0.928 . S
H239 C222 0.932 . S
C240 C241 1.264 . S
C240 C245 1.479 . S
C240 C250 1.465 . S
C241 C240 1.264 . S
C241 C243 1.339 . S
C241 H268 0.931 . S
C242 C243 1.395 . S
C242 C244 1.320 . S
C243 C241 1.339 . S
C243 C242 1.395 . S
C243 H269 0.929 . S
C244 C242 1.320 . S
C244 C245 1.405 . S
C244 H270 0.930 . S
C245 C240 1.479 . S
C245 C244 1.405 . S
C245 H271 0.931 . S
U246 O247 2.454 . S
U246 O248 2.458 . S
U246 C249 2.984 . S
U246 C250 2.847 . S
U246 C263 2.882 . S
U246 O264 2.441 . S
U246 O265 2.420 . S
U246 O266 2.455 . S
U246 O267 2.449 . S
O247 U246 2.454 . S
O247 C249 1.353 . S
O248 U246 2.458 . S
O248 C249 1.286 . S
C249 U246 2.984 . S
C249 O247 1.353 . S
C249 O248 1.286 . S
C249 C251 1.363 . S
C250 C240 1.465 . S
C250 U246 2.847 . S
C250 O264 1.249 . S
C250 O265 1.202 . S
C251 C249 1.363 . S
C251 C253 1.408 . S
C251 C256 1.342 . S
C252 C253 1.310 . S
C252 C255 1.461 . S
C252 H272 0.932 . S
C253 C251 1.408 . S
C253 C252 1.310 . S
C253 H273 0.930 . S
C254 C255 1.474 . S
C254 C256 1.285 . S
C254 H274 0.929 . S
C255 C252 1.461 . S
C255 C254 1.474 . S
C256 C251 1.342 . S
C256 C254 1.285 . S
C256 H275 0.930 . S
C257 C260 1.424 . S
C257 C262 1.245 . S
C257 C263 1.428 . S
C258 C261 1.260 . S
C258 C262 1.477 . S
C258 H276 0.932 . S
C259 C260 1.384 . S
C259 C261 1.479 . S
C259 H277 0.929 . S
C260 C257 1.424 . S
C260 C259 1.384 . S
C260 H278 0.928 . S
C261 C258 1.260 . S
C261 C259 1.479 . S
C262 C257 1.245 . S
C262 C258 1.477 . S
C262 H279 0.932 . S
C263 U246 2.882 . S
C263 C257 1.428 . S
C263 O266 1.301 . S
C263 O267 1.282 . S
O264 U246 2.441 . S
O264 C250 1.249 . S
O265 U246 2.420 . S
O265 C250 1.202 . S
O266 U246 2.455 . S
O266 C263 1.301 . S
O267 U246 2.449 . S
O267 C263 1.282 . S
H268 C241 0.931 . S
H269 C243 0.929 . S
H270 C244 0.930 . S
H271 C245 0.931 . S
H272 C252 0.932 . S
H273 C253 0.930 . S
H274 C254 0.929 . S
H275 C256 0.930 . S
H276 C258 0.932 . S
H277 C259 0.929 . S
H278 C260 0.928 . S
H279 C262 0.932 . S
C280 C281 1.264 . S
C280 C285 1.479 . S
C280 C290 1.465 . S
C281 C280 1.264 . S
C281 C283 1.339 . S
C281 H308 0.931 . S
C282 C283 1.395 . S
C282 C284 1.320 . S
C283 C281 1.339 . S
C283 C282 1.395 . S
C283 H309 0.929 . S
C284 C282 1.320 . S
C284 C285 1.405 . S
C284 H310 0.930 . S
C285 C280 1.479 . S
C285 C284 1.405 . S
C285 H311 0.931 . S
U286 O287 2.454 . S
U286 O288 2.458 . S
U286 C289 2.984 . S
U286 C290 2.847 . S
U286 C303 2.882 . S
U286 O304 2.441 . S
U286 O305 2.420 . S
U286 O306 2.455 . S
U286 O307 2.449 . S
O287 U286 2.454 . S
O287 C289 1.353 . S
O288 U286 2.458 . S
O288 C289 1.286 . S
C289 U286 2.984 . S
C289 O287 1.353 . S
C289 O288 1.286 . S
C289 C291 1.363 . S
C290 C280 1.465 . S
C290 U286 2.847 . S
C290 O304 1.249 . S
C290 O305 1.202 . S
C291 C289 1.363 . S
C291 C293 1.408 . S
C291 C296 1.342 . S
C292 C293 1.310 . S
C292 C295 1.461 . S
C292 H312 0.932 . S
C293 C291 1.408 . S
C293 C292 1.310 . S
C293 H313 0.930 . S
C294 C295 1.474 . S
C294 C296 1.285 . S
C294 H314 0.929 . S
C295 C292 1.461 . S
C295 C294 1.474 . S
C296 C291 1.342 . S
C296 C294 1.285 . S
C296 H315 0.930 . S
C297 C300 1.424 . S
C297 C302 1.245 . S
C297 C303 1.428 . S
C298 C301 1.260 . S
C298 C302 1.477 . S
C298 H316 0.932 . S
C299 C300 1.384 . S
C299 C301 1.479 . S
C299 H317 0.929 . S
C300 C297 1.424 . S
C300 C299 1.384 . S
C300 H318 0.928 . S
C301 C298 1.260 . S
C301 C299 1.479 . S
C302 C297 1.245 . S
C302 C298 1.477 . S
C302 H319 0.932 . S
C303 U286 2.882 . S
C303 C297 1.428 . S
C303 O306 1.301 . S
C303 O307 1.282 . S
O304 U286 2.441 . S
O304 C290 1.249 . S
O305 U286 2.420 . S
O305 C290 1.202 . S
O306 U286 2.455 . S
O306 C303 1.301 . S
O307 U286 2.449 . S
O307 C303 1.282 . S
H308 C281 0.931 . S
H309 C283 0.929 . S
H310 C284 0.930 . S
H311 C285 0.931 . S
H312 C292 0.932 . S
H313 C293 0.930 . S
H314 C294 0.929 . S
H315 C296 0.930 . S
H316 C298 0.932 . S
H317 C299 0.929 . S
H318 C300 0.928 . S
H319 C302 0.932 . S
C320 C321 1.391 . S
C320 C322 1.394 . S
C320 H336 0.931 . S
C321 C320 1.391 . S
C321 C325 1.376 . S
C322 C320 1.394 . S
C322 C323 1.369 . S
C322 C326 1.531 . S
C323 C322 1.369 . S
C323 C324 1.410 . S
C323 C331 1.503 1_565 S
C324 C323 1.410 . S
C324 C325 1.392 . S
C324 C327 1.511 1_565 S
C325 C321 1.376 . S
C325 C324 1.392 . S
C325 H337 0.929 . S
C326 C322 1.531 . S
C326 H338 0.960 . S
C326 H339 0.962 . S
C326 H340 0.960 . S
C327 C324 1.511 1_545 S
C327 H341 0.961 . S
C327 H342 0.961 . S
C327 H343 0.961 . S
C328 C329 1.370 . S
C328 C330 1.363 . S
C328 H344 0.931 . S
C329 C328 1.370 . S
C329 C333 1.408 . S
C330 C328 1.363 . S
C330 C331 1.370 . S
C330 C334 1.524 . S
C331 C323 1.503 1_545 S
C331 C330 1.370 . S
C331 C332 1.403 . S
C332 C331 1.403 . S
C332 C333 1.404 . S
C332 C335 1.539 1_545 S
C333 C329 1.408 . S
C333 C332 1.404 . S
C333 H345 0.930 . S
C334 C330 1.524 . S
C334 H346 0.956 . S
C334 H347 0.961 . S
C334 H348 0.961 . S
C335 C332 1.539 1_565 S
C335 H349 0.958 . S
C335 H350 0.961 . S
C335 H351 0.960 . S
H336 C320 0.931 . S
H337 C325 0.929 . S
H338 C326 0.960 . S
H339 C326 0.962 . S
H340 C326 0.960 . S
H341 C327 0.961 . S
H342 C327 0.961 . S
H343 C327 0.961 . S
H344 C328 0.931 . S
H345 C333 0.930 . S
H346 C334 0.956 . S
H347 C334 0.961 . S
H348 C334 0.961 . S
H349 C335 0.958 . S
H350 C335 0.961 . S
H351 C335 0.960 . S
C352 C353 1.391 . S
C352 C354 1.394 . S
C352 H368 0.931 . S
C353 C352 1.391 . S
C353 C357 1.376 . S
C354 C352 1.394 . S
C354 C355 1.369 . S
C354 C358 1.531 . S
C355 C354 1.369 . S
C355 C356 1.410 . S
C355 C363 1.503 . S
C356 C355 1.410 . S
C356 C357 1.392 . S
C356 C359 1.511 . S
C357 C353 1.376 . S
C357 C356 1.392 . S
C357 H369 0.929 . S
C358 C354 1.531 . S
C358 H370 0.960 . S
C358 H371 0.962 . S
C358 H372 0.960 . S
C359 C356 1.511 . S
C359 H373 0.961 . S
C359 H374 0.961 . S
C359 H375 0.961 . S
C360 C361 1.370 . S
C360 C362 1.363 . S
C360 H376 0.931 . S
C361 C360 1.370 . S
C361 C365 1.408 . S
C362 C360 1.363 . S
C362 C363 1.370 . S
C362 C366 1.524 . S
C363 C355 1.503 . S
C363 C362 1.370 . S
C363 C364 1.403 . S
C364 C363 1.403 . S
C364 C365 1.404 . S
C364 C367 1.539 . S
C365 C361 1.408 . S
C365 C364 1.404 . S
C365 H377 0.930 . S
C366 C362 1.524 . S
C366 H378 0.956 . S
C366 H379 0.961 . S
C366 H380 0.961 . S
C367 C364 1.539 . S
C367 H381 0.958 . S
C367 H382 0.961 . S
C367 H383 0.960 . S
H368 C352 0.931 . S
H369 C357 0.929 . S
H370 C358 0.960 . S
H371 C358 0.962 . S
H372 C358 0.960 . S
H373 C359 0.961 . S
H374 C359 0.961 . S
H375 C359 0.961 . S
H376 C360 0.931 . S
H377 C365 0.930 . S
H378 C366 0.956 . S
H379 C366 0.961 . S
H380 C366 0.961 . S
H381 C367 0.958 . S
H382 C367 0.961 . S
H383 C367 0.960 . S
C384 C385 1.391 . S
C384 C386 1.394 . S
C384 H400 0.931 . S
C385 C384 1.391 . S
C385 C389 1.376 . S
C386 C384 1.394 . S
C386 C387 1.369 . S
C386 C390 1.531 . S
C387 C386 1.369 . S
C387 C388 1.410 . S
C387 C395 1.503 1_565 S
C388 C387 1.410 . S
C388 C389 1.392 . S
C388 C391 1.511 1_565 S
C389 C385 1.376 . S
C389 C388 1.392 . S
C389 H401 0.929 . S
C390 C386 1.531 . S
C390 H402 0.960 . S
C390 H403 0.962 . S
C390 H404 0.960 . S
C391 C388 1.511 1_545 S
C391 H405 0.961 . S
C391 H406 0.961 . S
C391 H407 0.961 . S
C392 C393 1.370 . S
C392 C394 1.363 . S
C392 H408 0.931 . S
C393 C392 1.370 . S
C393 C397 1.408 . S
C394 C392 1.363 . S
C394 C395 1.370 . S
C394 C398 1.524 . S
C395 C387 1.503 1_545 S
C395 C394 1.370 . S
C395 C396 1.403 . S
C396 C395 1.403 . S
C396 C397 1.404 . S
C396 C399 1.539 1_545 S
C397 C393 1.408 . S
C397 C396 1.404 . S
C397 H409 0.930 . S
C398 C394 1.524 . S
C398 H410 1.005 . S
C398 H411 0.961 . S
C398 H412 0.961 . S
C399 C396 1.539 1_565 S
C399 H413 0.958 . S
C399 H414 0.961 1_565 S
C399 H415 0.960 . S
H400 C384 0.931 . S
H401 C389 0.929 . S
H402 C390 0.960 . S
H403 C390 0.962 . S
H404 C390 0.960 . S
H405 C391 0.961 . S
H406 C391 0.961 . S
H407 C391 0.961 . S
H408 C392 0.931 . S
H409 C397 0.930 . S
H410 C398 1.005 . S
H411 C398 0.961 . S
H412 C398 0.961 . S
H413 C399 0.958 . S
H414 C399 0.961 1_545 S
H415 C399 0.960 . S
C416 C417 1.391 . S
C416 C418 1.394 . S
C416 H432 0.931 . S
C417 C416 1.391 . S
C417 C421 1.376 . S
C418 C416 1.394 . S
C418 C419 1.369 . S
C418 C422 1.531 1_554 S
C419 C418 1.369 . S
C419 C420 1.410 . S
C419 C427 1.506 1_554 S
C420 C419 1.410 . S
C420 C421 1.392 . S
C420 C423 1.511 . S
C421 C417 1.376 . S
C421 C420 1.392 . S
C421 H433 0.929 . S
C422 C418 1.531 1_556 S
C422 H434 0.960 . S
C422 H435 0.962 . S
C422 H436 0.952 1_556 S
C423 C420 1.511 . S
C423 H437 0.961 . S
C423 H438 0.961 . S
C423 H439 0.961 . S
C424 C425 1.370 . S
C424 C426 1.363 . S
C424 H440 0.931 . S
C425 C424 1.370 . S
C425 C429 1.408 . S
C426 C424 1.363 . S
C426 C427 1.368 . S
C426 C430 1.524 . S
C427 C419 1.506 1_556 S
C427 C426 1.368 . S
C427 C428 1.402 1_556 S
C428 C427 1.402 1_554 S
C428 C429 1.396 1_554 S
C428 C431 1.547 . S
C429 C425 1.408 . S
C429 C428 1.396 1_556 S
C429 H441 0.930 . S
C430 C426 1.524 . S
C430 H442 0.956 . S
C430 H443 0.961 . S
C430 H444 0.961 . S
C431 C428 1.547 . S
C431 H445 0.958 . S
C431 H446 0.961 . S
C431 H447 0.960 . S
H432 C416 0.931 . S
H433 C421 0.929 . S
H434 C422 0.960 . S
H435 C422 0.962 . S
H436 C422 0.952 1_554 S
H437 C423 0.961 . S
H438 C423 0.961 . S
H439 C423 0.961 . S
H440 C424 0.931 . S
H441 C429 0.930 . S
H442 C430 0.956 . S
H443 C430 0.961 . S
H444 C430 0.961 . S
H445 C431 0.958 . S
H446 C431 0.961 . S
H447 C431 0.960 . S
C448 C449 1.391 . S
C448 C450 1.394 . S
C448 H464 0.931 . S
C449 C448 1.391 . S
C449 C453 1.376 . S
C450 C448 1.394 . S
C450 C451 1.369 . S
C450 C454 1.531 . S
C451 C450 1.369 . S
C451 C452 1.410 . S
C451 C459 1.503 1_655 S
C452 C451 1.410 . S
C452 C453 1.392 . S
C452 C455 1.511 1_655 S
C453 C449 1.376 . S
C453 C452 1.392 . S
C453 H465 0.929 . S
C454 C450 1.531 . S
C454 H466 0.947 1_655 S
C454 H467 0.962 . S
C454 H468 0.960 . S
C455 C452 1.511 1_455 S
C455 H469 0.961 1_455 S
C455 H470 0.961 . S
C455 H471 0.961 . S
C456 C457 1.370 . S
C456 C458 1.363 . S
C456 H472 0.931 . S
C457 C456 1.370 . S
C457 C461 1.408 . S
C458 C456 1.363 . S
C458 C459 1.370 . S
C458 C462 1.524 1_455 S
C459 C451 1.503 1_455 S
C459 C458 1.370 . S
C459 C460 1.403 . S
C460 C459 1.403 . S
C460 C461 1.404 . S
C460 C463 1.539 . S
C461 C457 1.408 . S
C461 C460 1.404 . S
C461 H473 0.930 . S
C462 C458 1.524 1_655 S
C462 H474 0.956 . S
C462 H475 0.961 . S
C462 H476 0.961 . S
C463 C460 1.539 . S
C463 H477 0.958 . S
C463 H478 0.961 . S
C463 H479 0.960 . S
H464 C448 0.931 . S
H465 C453 0.929 . S
H466 C454 0.947 1_455 S
H467 C454 0.962 . S
H468 C454 0.960 . S
H469 C455 0.961 1_655 S
H470 C455 0.961 . S
H471 C455 0.961 . S
H472 C456 0.931 . S
H473 C461 0.930 . S
H474 C462 0.956 . S
H475 C462 0.961 . S
H476 C462 0.961 . S
H477 C463 0.958 . S
H478 C463 0.961 . S
H479 C463 0.960 . S
C480 C481 1.391 . S
C480 C482 1.394 . S
C480 H496 0.931 . S
C481 C480 1.391 . S
C481 C485 1.376 . S
C482 C480 1.394 . S
C482 C483 1.369 . S
C482 C486 1.531 . S
C483 C482 1.369 . S
C483 C484 1.410 . S
C483 C491 1.503 . S
C484 C483 1.410 . S
C484 C485 1.392 . S
C484 C487 1.511 . S
C485 C481 1.376 . S
C485 C484 1.392 . S
C485 H497 0.929 . S
C486 C482 1.531 . S
C486 H498 0.960 . S
C486 H499 0.962 . S
C486 H500 0.960 . S
C487 C484 1.511 . S
C487 H501 0.961 . S
C487 H502 0.961 . S
C487 H503 0.961 . S
C488 C489 1.370 . S
C488 C490 1.363 . S
C488 H504 0.931 . S
C489 C488 1.370 . S
C489 C493 1.408 . S
C490 C488 1.363 . S
C490 C491 1.370 . S
C490 C494 1.524 . S
C491 C483 1.503 . S
C491 C490 1.370 . S
C491 C492 1.403 . S
C492 C491 1.403 . S
C492 C493 1.404 . S
C492 C495 1.539 . S
C493 C489 1.408 . S
C493 C492 1.404 . S
C493 H505 0.930 . S
C494 C490 1.524 . S
C494 H506 0.956 . S
C494 H507 0.961 . S
C494 H508 0.961 . S
C495 C492 1.539 . S
C495 H509 0.958 . S
C495 H510 0.961 . S
C495 H511 0.960 . S
H496 C480 0.931 . S
H497 C485 0.929 . S
H498 C486 0.960 . S
H499 C486 0.962 . S
H500 C486 0.960 . S
H501 C487 0.961 . S
H502 C487 0.961 . S
H503 C487 0.961 . S
H504 C488 0.931 . S
H505 C493 0.930 . S
H506 C494 0.956 . S
H507 C494 0.961 . S
H508 C494 0.961 . S
H509 C495 0.958 . S
H510 C495 0.961 . S
H511 C495 0.960 . S
C512 C513 1.391 . S
C512 C514 1.394 . S
C512 H528 0.931 . S
C513 C512 1.391 . S
C513 C517 1.376 . S
C514 C512 1.394 . S
C514 C515 1.369 . S
C514 C518 1.531 . S
C515 C514 1.369 . S
C515 C516 1.410 . S
C515 C523 1.503 1_455 S
C516 C515 1.410 . S
C516 C517 1.392 . S
C516 C519 1.511 1_455 S
C517 C513 1.376 . S
C517 C516 1.392 . S
C517 H529 0.929 . S
C518 C514 1.531 . S
C518 H530 0.960 . S
C518 H531 0.962 . S
C518 H532 0.960 . S
C519 C516 1.511 1_655 S
C519 H533 0.961 . S
C519 H534 0.961 . S
C519 H535 0.961 . S
C520 C521 1.370 . S
C520 C522 1.363 . S
C520 H536 0.931 . S
C521 C520 1.370 . S
C521 C525 1.408 . S
C522 C520 1.363 . S
C522 C523 1.370 . S
C522 C526 1.494 1_655 S
C523 C515 1.503 1_655 S
C523 C522 1.370 . S
C523 C524 1.403 . S
C524 C523 1.403 . S
C524 C525 1.404 . S
C524 C527 1.539 . S
C525 C521 1.408 . S
C525 C524 1.404 . S
C525 H537 0.930 . S
C526 C522 1.494 1_455 S
C526 H538 1.009 . S
C526 H539 0.958 1_455 S
C526 H540 0.943 1_455 S
C527 C524 1.539 . S
C527 H541 0.958 . S
C527 H542 0.961 . S
C527 H543 0.960 . S
H528 C512 0.931 . S
H529 C517 0.929 . S
H530 C518 0.960 . S
H531 C518 0.962 . S
H532 C518 0.960 . S
H533 C519 0.961 . S
H534 C519 0.961 . S
H535 C519 0.961 . S
H536 C520 0.931 . S
H537 C525 0.930 . S
H538 C526 1.009 . S
H539 C526 0.958 1_655 S
H540 C526 0.943 1_655 S
H541 C527 0.958 . S
H542 C527 0.961 . S
H543 C527 0.960 . S
C544 C545 1.391 . S
C544 C546 1.394 . S
C544 H560 0.931 . S
C545 C544 1.391 . S
C545 C549 1.376 . S
C546 C544 1.394 . S
C546 C547 1.369 . S
C546 C550 1.531 . S
C547 C546 1.369 . S
C547 C548 1.410 . S
C547 C555 1.503 . S
C548 C547 1.410 . S
C548 C549 1.392 . S
C548 C551 1.511 . S
C549 C545 1.376 . S
C549 C548 1.392 . S
C549 H561 0.929 . S
C550 C546 1.531 . S
C550 H562 0.960 . S
C550 H563 0.962 . S
C550 H564 0.960 . S
C551 C548 1.511 . S
C551 H565 0.961 . S
C551 H566 0.961 . S
C551 H567 0.961 . S
C552 C553 1.370 . S
C552 C554 1.363 . S
C552 H568 0.931 . S
C553 C552 1.370 . S
C553 C557 1.408 . S
C554 C552 1.363 . S
C554 C555 1.370 . S
C554 C558 1.524 . S
C555 C547 1.503 . S
C555 C554 1.370 . S
C555 C556 1.403 . S
C556 C555 1.403 . S
C556 C557 1.404 . S
C556 C559 1.539 . S
C557 C553 1.408 . S
C557 C556 1.404 . S
C557 H569 0.930 . S
C558 C554 1.524 . S
C558 H570 0.956 . S
C558 H571 0.961 . S
C558 H572 0.961 . S
C559 C556 1.539 . S
C559 H573 0.958 . S
C559 H574 0.961 . S
C559 H575 0.960 . S
H560 C544 0.931 . S
H561 C549 0.929 . S
H562 C550 0.960 . S
H563 C550 0.962 . S
H564 C550 0.960 . S
H565 C551 0.961 . S
H566 C551 0.961 . S
H567 C551 0.961 . S
H568 C552 0.931 . S
H569 C557 0.930 . S
H570 C558 0.956 . S
H571 C558 0.961 . S
H572 C558 0.961 . S
H573 C559 0.958 . S
H574 C559 0.961 . S
H575 C559 0.960 . S
C576 C577 1.391 . S
C576 C578 1.394 . S
C576 H592 0.931 . S
C577 C576 1.391 . S
C577 C581 1.376 . S
C578 C576 1.394 . S
C578 C579 1.369 . S
C578 C582 1.531 . S
C579 C578 1.369 . S
C579 C580 1.410 . S
C579 C587 1.503 . S
C580 C579 1.410 . S
C580 C581 1.392 . S
C580 C583 1.511 . S
C581 C577 1.376 . S
C581 C580 1.392 . S
C581 H593 0.929 . S
C582 C578 1.531 . S
C582 H594 0.960 . S
C582 H595 0.962 . S
C582 H596 0.960 . S
C583 C580 1.511 . S
C583 H597 0.961 . S
C583 H598 0.961 . S
C583 H599 0.961 . S
C584 C585 1.370 . S
C584 C586 1.363 . S
C584 H600 0.931 . S
C585 C584 1.370 . S
C585 C589 1.408 . S
C586 C584 1.363 . S
C586 C587 1.370 . S
C586 C590 1.524 . S
C587 C579 1.503 . S
C587 C586 1.370 . S
C587 C588 1.403 . S
C588 C587 1.403 . S
C588 C589 1.404 . S
C588 C591 1.539 . S
C589 C585 1.408 . S
C589 C588 1.404 . S
C589 H601 0.930 . S
C590 C586 1.524 . S
C590 H602 0.956 . S
C590 H603 0.961 . S
C590 H604 0.961 . S
C591 C588 1.539 . S
C591 H605 0.958 . S
C591 H606 0.961 . S
C591 H607 0.960 . S
H592 C576 0.931 . S
H593 C581 0.929 . S
H594 C582 0.960 . S
H595 C582 0.962 . S
H596 C582 0.960 . S
H597 C583 0.961 . S
H598 C583 0.961 . S
H599 C583 0.961 . S
H600 C584 0.931 . S
H601 C589 0.930 . S
H602 C590 0.956 . S
H603 C590 0.961 . S
H604 C590 0.961 . S
H605 C591 0.958 . S
H606 C591 0.961 . S
H607 C591 0.960 . S
C608 C609 1.391 . S
C608 C610 1.394 . S
C608 H624 0.931 . S
C609 C608 1.391 . S
C609 C613 1.376 . S
C610 C608 1.394 . S
C610 C611 1.369 1_554 S
C610 C614 1.531 1_554 S
C611 C610 1.369 1_556 S
C611 C612 1.410 1_556 S
C611 C619 1.503 . S
C612 C611 1.410 1_554 S
C612 C613 1.392 . S
C612 C615 1.511 . S
C613 C609 1.376 . S
C613 C612 1.392 . S
C613 H625 0.929 . S
C614 C610 1.531 1_556 S
C614 H626 0.960 . S
C614 H627 0.958 1_556 S
C614 H628 0.960 . S
C615 C612 1.511 . S
C615 H629 0.961 . S
C615 H630 0.961 1_554 S
C615 H631 0.961 1_554 S
C616 C617 1.370 . S
C616 C618 1.363 . S
C616 H632 0.931 . S
C617 C616 1.370 . S
C617 C621 1.408 . S
C618 C616 1.363 . S
C618 C619 1.370 . S
C618 C622 1.524 1_556 S
C619 C611 1.503 . S
C619 C618 1.370 . S
C619 C620 1.403 . S
C620 C619 1.403 . S
C620 C621 1.404 . S
C620 C623 1.539 . S
C621 C617 1.408 . S
C621 C620 1.404 . S
C621 H633 0.930 . S
C622 C618 1.524 1_554 S
C622 H634 0.956 . S
C622 H635 0.961 . S
C622 H636 0.961 . S
C623 C620 1.539 . S
C623 H637 0.958 . S
C623 H638 0.961 . S
C623 H639 0.960 . S
H624 C608 0.931 . S
H625 C613 0.929 . S
H626 C614 0.960 . S
H627 C614 0.958 1_554 S
H628 C614 0.960 . S
H629 C615 0.961 . S
H630 C615 0.961 1_556 S
H631 C615 0.961 1_556 S
H632 C616 0.931 . S
H633 C621 0.930 . S
H634 C622 0.956 . S
H635 C622 0.961 . S
H636 C622 0.961 . S
H637 C623 0.958 . S
H638 C623 0.961 . S
H639 C623 0.960 . S
C640 C641 1.391 . S
C640 C642 1.394 . S
C640 H656 0.931 . S
C641 C640 1.391 . S
C641 C645 1.376 . S
C642 C640 1.394 . S
C642 C643 1.369 . S
C642 C646 1.531 . S
C643 C642 1.369 . S
C643 C644 1.410 . S
C643 C651 1.503 . S
C644 C643 1.410 . S
C644 C645 1.392 . S
C644 C647 1.511 . S
C645 C641 1.376 . S
C645 C644 1.392 . S
C645 H657 0.929 . S
C646 C642 1.531 . S
C646 H658 0.960 . S
C646 H659 0.962 . S
C646 H660 0.960 . S
C647 C644 1.511 . S
C647 H661 0.961 . S
C647 H662 0.961 . S
C647 H663 0.961 . S
C648 C649 1.370 . S
C648 C650 1.363 . S
C648 H664 0.931 . S
C649 C648 1.370 . S
C649 C653 1.408 . S
C650 C648 1.363 . S
C650 C651 1.370 . S
C650 C654 1.524 . S
C651 C643 1.503 . S
C651 C650 1.370 . S
C651 C652 1.403 . S
C652 C651 1.403 . S
C652 C653 1.404 . S
C652 C655 1.539 . S
C653 C649 1.408 . S
C653 C652 1.404 . S
C653 H665 0.930 . S
C654 C650 1.524 . S
C654 H666 0.956 . S
C654 H667 0.961 . S
C654 H668 0.961 . S
C655 C652 1.539 . S
C655 H669 0.958 . S
C655 H670 0.961 . S
C655 H671 0.960 . S
H656 C640 0.931 . S
H657 C645 0.929 . S
H658 C646 0.960 . S
H659 C646 0.962 . S
H660 C646 0.960 . S
H661 C647 0.961 . S
H662 C647 0.961 . S
H663 C647 0.961 . S
H664 C648 0.931 . S
H665 C653 0.930 . S
H666 C654 0.956 . S
H667 C654 0.961 . S
H668 C654 0.961 . S
H669 C655 0.958 . S
H670 C655 0.961 . S
H671 C655 0.960 . S
C672 C673 1.391 . S
C672 C674 1.394 . S
C672 H688 0.931 . S
C673 C672 1.391 . S
C673 C677 1.376 . S
C674 C672 1.394 . S
C674 C675 1.369 . S
C674 C678 1.531 . S
C675 C674 1.369 . S
C675 C676 1.410 . S
C675 C683 1.503 . S
C676 C675 1.410 . S
C676 C677 1.392 . S
C676 C679 1.511 . S
C677 C673 1.376 . S
C677 C676 1.392 . S
C677 H689 0.929 . S
C678 C674 1.531 . S
C678 H690 0.960 . S
C678 H691 0.962 . S
C678 H692 0.960 . S
C679 C676 1.511 . S
C679 H693 0.961 . S
C679 H694 0.961 . S
C679 H695 0.961 . S
C680 C681 1.370 . S
C680 C682 1.363 . S
C680 H696 0.931 . S
C681 C680 1.370 . S
C681 C685 1.408 . S
C682 C680 1.363 . S
C682 C683 1.370 . S
C682 C686 1.524 . S
C683 C675 1.503 . S
C683 C682 1.370 . S
C683 C684 1.403 . S
C684 C683 1.403 . S
C684 C685 1.404 . S
C684 C687 1.539 . S
C685 C681 1.408 . S
C685 C684 1.404 . S
C685 H697 0.930 . S
C686 C682 1.524 . S
C686 H698 0.956 . S
C686 H699 0.961 . S
C686 H700 0.961 . S
C687 C684 1.539 . S
C687 H701 0.958 . S
C687 H702 0.961 . S
C687 H703 0.960 . S
H688 C672 0.931 . S
H689 C677 0.929 . S
H690 C678 0.960 . S
H691 C678 0.962 . S
H692 C678 0.960 . S
H693 C679 0.961 . S
H694 C679 0.961 . S
H695 C679 0.961 . S
H696 C680 0.931 . S
H697 C685 0.930 . S
H698 C686 0.956 . S
H699 C686 0.961 . S
H700 C686 0.961 . S
H701 C687 0.958 . S
H702 C687 0.961 . S
H703 C687 0.960 . S
C321 C42 1.479 . S
C329 C2 1.480 . S
C353 C61 1.500 . S
C361 C95 1.501 . S
C385 C82 1.494 . S
C393 C122 1.493 . S
C417 C21 1.500 . S
C425 C135 1.501 . S
C449 C221 1.499 . S
C457 C15 1.502 . S
C481 C141 1.473 . S
C489 C175 1.502 . S
C513 C55 1.495 . S
C521 C261 1.489 . S
C545 C295 1.500 . S
C553 C101 1.484 . S
C577 C282 1.482 . S
C585 C162 1.480 . S
C609 C215 1.499 . S
C617 C181 1.493 . S
C641 C202 1.500 . S
C649 C242 1.488 . S
C673 C255 1.494 . S
C681 C301 1.487 . S
