# Generated by pormake.
# Topology tsi, (8)-cn, num edge types: 1
# Building blocks:
#     Node 0, Type 0, BuildingBlock: TAGTUT_clean_sbu_1, # of connection points: 8
#     Node 1, Type 0, BuildingBlock: TAGTUT_clean_sbu_1, # of connection points: 8
#     Node 2, Type 0, BuildingBlock: TAGTUT_clean_sbu_1, # of connection points: 8
#     Node 3, Type 0, BuildingBlock: TAGTUT_clean_sbu_1, # of connection points: 8
#     Edge 4, Type (0, 0), BuildingBlock: EZIPEK_clean_linker_0, # of connection points: 2
#     Edge 5, Type (0, 0), BuildingBlock: EZIPEK_clean_linker_0, # of connection points: 2
#     Edge 6, Type (0, 0), BuildingBlock: EZIPEK_clean_linker_0, # of connection points: 2
#     Edge 7, Type (0, 0), BuildingBlock: EZIPEK_clean_linker_0, # of connection points: 2
#     Edge 8, Type (0, 0), BuildingBlock: EZIPEK_clean_linker_0, # of connection points: 2
#     Edge 9, Type (0, 0), BuildingBlock: EZIPEK_clean_linker_0, # of connection points: 2
#     Edge 10, Type (0, 0), BuildingBlock: EZIPEK_clean_linker_0, # of connection points: 2
#     Edge 11, Type (0, 0), BuildingBlock: EZIPEK_clean_linker_0, # of connection points: 2
#     Edge 12, Type (0, 0), BuildingBlock: EZIPEK_clean_linker_0, # of connection points: 2
#     Edge 13, Type (0, 0), BuildingBlock: EZIPEK_clean_linker_0, # of connection points: 2
#     Edge 14, Type (0, 0), BuildingBlock: EZIPEK_clean_linker_0, # of connection points: 2
#     Edge 15, Type (0, 0), BuildingBlock: EZIPEK_clean_linker_0, # of connection points: 2
#     Edge 16, Type (0, 0), BuildingBlock: EZIPEK_clean_linker_0, # of connection points: 2
#     Edge 17, Type (0, 0), BuildingBlock: EZIPEK_clean_linker_0, # of connection points: 2
#     Edge 18, Type (0, 0), BuildingBlock: EZIPEK_clean_linker_0, # of connection points: 2
#     Edge 19, Type (0, 0), BuildingBlock: EZIPEK_clean_linker_0, # of connection points: 2
# Relax obj value: 0.141
# Max RMSD: 0.250
# Mean RMSD: 0.250
data_MOF--net-tsi--node1-TAGTUT_clean_sbu_1--edge1-EZIPEK_clean_linker_0
_symmetry_space_group_name_H-M    P1
_symmetry_Int_Tables_number       1
_symmetry_cell_setting            triclinic
loop_
_symmetry_equiv_pos_as_xyz
'x, y, z'
_cell_length_a     11.155141
_cell_length_b     11.887138
_cell_length_c     53.828649
_cell_angle_alpha  94.041217
_cell_angle_beta   91.886704
_cell_angle_gamma 111.26424
loop_
_atom_site_label
_atom_site_type_symbol
_atom_site_fract_x
_atom_site_fract_y
_atom_site_fract_z
_atom_type_partial_charge
C0 C 0.08271 -0.00102 0.43643 0.0
C1 C 0.04096 0.32069 0.42965 0.0
C2 C 0.77437 0.03857 0.33592 0.0
Mg3 Mg 0.23309 0.21106 0.40676 0.0
O4 O 0.09843 0.15317 0.38322 0.0
Mg5 Mg 0.91861 0.06404 0.39111 0.0
Mg6 Mg 0.0804 0.17238 0.34767 0.0
O7 O 0.05298 0.17961 0.31224 0.0
Mg8 Mg 0.96701 0.02591 0.2943 0.0
Mg9 Mg 0.22473 0.2748 0.30282 0.0
C10 C 0.38369 0.22599 0.3571 0.0
C11 C 0.12894 0.4523 0.33823 0.0
O12 O 0.97948 0.00745 0.42743 0.0
O13 O 0.19273 0.05762 0.42844 0.0
O14 O 0.9436 0.24257 0.41632 0.0
O15 O 0.15771 0.32947 0.42655 0.0
O16 O 0.38475 0.23141 0.38104 0.0
O17 O 0.2986 0.24877 0.34374 0.0
C18 C 0.00403 0.88381 0.35363 0.0
O19 O 0.07048 0.97526 0.34233 0.0
O20 O 0.92948 0.89278 0.37057 0.0
O21 O 0.09266 0.27224 0.26555 0.0
O22 O 0.90849 0.11138 0.26768 0.0
O23 O 0.2485 0.10325 0.28915 0.0
C24 C 0.9754 0.20512 0.25745 0.0
O25 O 0.08994 0.98952 0.26489 0.0
O26 O 0.79301 0.98077 0.31605 0.0
C27 C 0.20705 0.06348 0.26696 0.0
O28 O 0.8668 0.10871 0.3511 0.0
O29 O 0.08596 0.36734 0.35268 0.0
O30 O 0.188 0.44047 0.31885 0.0
C31 C 0.03495 0.48116 0.69829 0.0
C32 C 0.84372 0.67446 0.68246 0.0
C33 C 0.68763 0.47939 0.59231 0.0
Mg34 Mg 0.10854 0.64286 0.66575 0.0
O35 O 0.9952 0.53768 0.64186 0.0
Mg36 Mg 0.82159 0.44069 0.65052 0.0
Mg37 Mg 0.98446 0.54647 0.60691 0.0
O38 O 0.97546 0.57369 0.57099 0.0
Mg39 Mg 0.86172 0.46573 0.54641 0.0
Mg40 Mg 0.16419 0.65826 0.56769 0.0
C41 C 0.29672 0.66232 0.62265 0.0
C42 C 0.06 0.83363 0.60203 0.0
O43 O 0.91352 0.45488 0.69337 0.0
O44 O 0.09789 0.47836 0.67964 0.0
O45 O 0.78295 0.60727 0.6632 0.0
O46 O 0.96693 0.70508 0.6863 0.0
O47 O 0.28383 0.70353 0.64477 0.0
O48 O 0.20012 0.60899 0.60707 0.0
C49 C 0.93884 0.26732 0.61762 0.0
O50 O 0.98087 0.35099 0.60275 0.0
O51 O 0.87709 0.27946 0.6367 0.0
O52 O 0.1092 0.71022 0.53106 0.0
O53 O 0.91871 0.57705 0.51525 0.0
O54 O 0.16489 0.48189 0.54558 0.0
C55 C 0.01962 0.67184 0.51372 0.0
O56 O 0.96657 0.3481 0.54552 0.0
O57 O 0.69912 0.47068 0.56856 0.0
C58 C 0.07453 0.38609 0.53542 0.0
O59 O 0.76825 0.46285 0.60782 0.0
O60 O 0.989 0.74051 0.61224 0.0
O61 O 0.14231 0.82769 0.58653 0.0
C62 C 0.59066 0.77155 0.93691 0.0
C63 C 0.5143 0.0724 0.93194 0.0
C64 C 0.20033 0.79612 0.84574 0.0
Mg65 Mg 0.70082 0.97984 0.90403 0.0
O66 O 0.56021 0.8988 0.88265 0.0
Mg67 Mg 0.38823 0.80795 0.89467 0.0
Mg68 Mg 0.51501 0.9163 0.84778 0.0
O69 O 0.45769 0.91435 0.81398 0.0
Mg70 Mg 0.3296 0.78215 0.79647 0.0
Mg71 Mg 0.61372 -0.00593 0.79791 0.0
C72 C 0.83382 0.01291 0.85085 0.0
C73 C 0.54839 0.188 0.83529 0.0
O74 O 0.47961 0.75509 0.92711 0.0
O75 O 0.69533 0.84493 0.92928 0.0
O76 O 0.41811 0.98245 0.92126 0.0
O77 O 0.62915 0.09662 0.92505 0.0
O78 O 0.83449 0.0155 0.87481 0.0
O79 O 0.72855 -0.006 0.83727 0.0
C80 C 0.44972 0.63024 0.85302 0.0
O81 O 0.50453 0.72147 0.84084 0.0
O82 O 0.3893 0.63845 0.87234 0.0
O83 O 0.46135 0.9562 0.76081 0.0
O84 O 0.28054 0.91247 0.77921 0.0
O85 O 0.63317 0.81837 0.78566 0.0
C86 C 0.3366 0.92057 0.7591 0.0
O87 O 0.43851 0.71067 0.76858 0.0
O88 O 0.20139 0.72349 0.82693 0.0
C89 C 0.56203 0.74609 0.76823 0.0
O90 O 0.30667 0.8573 0.85833 0.0
O91 O 0.52549 0.11319 0.85221 0.0
O92 O 0.58185 0.16416 0.81356 0.0
C93 C 0.58931 0.29232 0.20009 0.0
C94 C 0.35252 0.4339 0.19536 0.0
C95 C 0.17858 0.29188 0.10269 0.0
Mg96 Mg 0.59015 0.48349 0.16648 0.0
O97 O 0.50762 0.33118 0.14757 0.0
Mg98 Mg 0.33754 0.23356 0.15672 0.0
Mg99 Mg 0.47983 0.34808 0.11261 0.0
O100 O 0.46008 0.38535 0.07787 0.0
Mg101 Mg 0.3338 0.29718 0.05374 0.0
Mg102 Mg 0.64412 0.46456 0.0716 0.0
C103 C 0.78533 0.4766 0.12537 0.0
C104 C 0.56616 0.63954 0.11183 0.0
O105 O 0.47063 0.22576 0.19287 0.0
O106 O 0.65033 0.39207 0.19129 0.0
O107 O 0.30872 0.39837 0.17313 0.0
O108 O 0.4697 0.50774 0.19746 0.0
O109 O 0.76759 0.53132 0.14574 0.0
O110 O 0.69252 0.41016 0.10994 0.0
C111 C 0.43721 0.0677 0.11876 0.0
O112 O 0.46857 0.15133 0.10378 0.0
O113 O 0.38368 0.07907 0.13889 0.0
O114 O 0.58684 0.52368 0.03601 0.0
O115 O 0.37545 0.42595 0.02561 0.0
O116 O 0.62247 0.28739 0.04658 0.0
C117 C 0.48659 0.50308 0.02171 0.0
O118 O 0.41364 0.16659 0.042 0.0
O119 O 0.18143 0.28798 0.07878 0.0
C120 C 0.53088 0.1917 0.03648 0.0
O121 O 0.26311 0.27075 0.11652 0.0
O122 O 0.49751 0.54362 0.12149 0.0
O123 O 0.63413 0.63289 0.09345 0.0
C124 C 0.13241 0.45823 0.46792 0.0
C125 C 0.02188 0.3705 0.45501 0.0
C126 C 0.95497 0.28042 0.49424 0.0
C127 C 0.06914 0.36483 0.50723 0.0
N128 N 0.28861 0.49881 0.50273 0.0
N129 N 0.80271 0.23862 0.45849 0.0
C130 C 0.16409 0.44556 0.49314 0.0
C131 C 0.92487 0.29444 0.46903 0.0
N132 N 0.20945 0.55067 0.45537 0.0
N133 N 0.88133 0.18014 0.50519 0.0
H134 H 0.77625 0.25723 0.44092 0.0
H135 H 0.72541 0.18865 0.46843 0.0
H136 H 0.91034 0.15794 0.5222 0.0
H137 H 0.80287 0.11084 0.49587 0.0
H138 H 0.28928 0.6219 0.46368 0.0
H139 H 0.18471 0.56025 0.43695 0.0
H140 H 0.36337 0.55221 0.49269 0.0
H141 H 0.32096 0.4741 0.51912 0.0
C142 C 0.71171 0.82867 0.73368 0.0
C143 C 0.62809 0.72649 0.74536 0.0
C144 C 0.67304 0.59086 0.71363 0.0
C145 C 0.76477 0.69299 0.70325 0.0
N146 N 0.87696 0.90826 0.70445 0.0
N147 N 0.55002 0.51224 0.74914 0.0
C148 C 0.78502 0.81142 0.71355 0.0
C149 C 0.61425 0.60827 0.73599 0.0
N150 N 0.7186 0.94318 0.74115 0.0
N151 N 0.64081 0.47618 0.70235 0.0
H152 H 0.50498 0.52113 0.76545 0.0
H153 H 0.55092 0.42551 0.74523 0.0
H154 H 0.56118 0.40317 0.70684 0.0
H155 H 0.68654 0.45305 0.68747 0.0
H156 H 0.67563 0.96435 0.75658 0.0
H157 H 0.76015 0.01767 0.73102 0.0
H158 H 0.91243 -0.00481 0.71355 0.0
H159 H 0.92409 0.90078 0.68837 0.0
C160 C 0.599 0.76803 -0.01731 0.0
C161 C 0.59137 0.70633 0.95886 0.0
C162 C 0.50089 0.50947 0.97576 0.0
C163 C 0.50586 0.57101 -0.00043 0.0
N164 N 0.54308 0.75448 0.02591 0.0
N165 N 0.55579 0.52448 0.93242 0.0
C166 C 0.55148 0.69943 0.00315 0.0
C167 C 0.54808 0.57845 0.95533 0.0
N168 N 0.65114 0.89201 -0.01448 0.0
N169 N 0.44934 0.38557 0.97271 0.0
H170 H 0.5941 0.57445 0.91745 0.0
H171 H 0.53318 0.43201 0.92842 0.0
H172 H 0.41949 0.33146 -0.01258 0.0
H173 H 0.42934 0.33513 0.95548 0.0
H174 H 0.66919 0.94368 0.00259 0.0
H175 H 0.68502 0.94467 0.97074 0.0
H176 H 0.56657 0.84716 0.02973 0.0
H177 H 0.50346 0.70592 0.04096 0.0
C178 C 0.88496 0.34659 0.24005 0.0
C179 C 0.90184 0.23507 0.23717 0.0
C180 C 0.70099 0.1504 0.21002 0.0
C181 C 0.67307 0.25524 0.21699 0.0
N182 N 0.73228 0.44715 0.24179 0.0
N183 N 0.82691 0.02819 0.21868 0.0
C184 C 0.76279 0.3504 0.23338 0.0
C185 C 0.81052 0.13669 0.22165 0.0
N186 N 0.98636 0.44955 0.24831 0.0
N187 N 0.62835 0.06712 0.19135 0.0
H188 H 0.90997 0.01704 0.22546 0.0
H189 H 0.75599 0.9484 0.21072 0.0
H190 H 0.54405 0.0691 0.18292 0.0
H191 H 0.65626 -0.00051 0.18299 0.0
H192 H 0.98191 0.53572 0.24877 0.0
H193 H 0.07926 0.45039 0.25157 0.0
H194 H 0.7902 0.51633 0.25472 0.0
H195 H 0.64373 0.45315 0.23711 0.0
C196 C 0.36976 0.36453 0.23886 0.0
C197 C 0.3034 0.34452 0.2151 0.0
C198 C 0.19219 0.12946 0.22297 0.0
C199 C 0.25784 0.15004 0.24679 0.0
N200 N 0.4542 0.27487 0.2706 0.0
N201 N 0.10831 0.21802 0.19094 0.0
C202 C 0.3598 0.26426 0.25284 0.0
C203 C 0.20246 0.22951 0.20884 0.0
N204 N 0.4345 0.48018 0.24906 0.0
N205 N 0.12735 0.01354 0.21295 0.0
H206 H 0.09888 0.29286 0.18332 0.0
H207 H 0.02869 0.13819 0.18676 0.0
H208 H 0.12744 0.93872 0.22199 0.0
H209 H 0.08775 -0.00721 0.19463 0.0
H210 H 0.4748 0.50006 0.26735 0.0
H211 H 0.43341 0.55549 0.24034 0.0
H212 H 0.53482 0.35402 0.27459 0.0
H213 H 0.46168 0.19967 0.27842 0.0
C214 C 0.24792 0.63643 0.71609 0.0
C215 C 0.11143 0.58279 0.71793 0.0
C216 C 0.12103 0.77149 0.74104 0.0
C217 C 0.25691 0.82493 0.73881 0.0
N218 N 0.43041 0.82348 0.71386 0.0
N219 N 0.93195 0.5865 0.74077 0.0
C220 C 0.3149 0.76203 0.72317 0.0
C221 C 0.05168 0.64666 0.73296 0.0
N222 N 0.31434 0.56532 0.70838 0.0
N223 N 0.05727 0.84299 0.74979 0.0
H224 H 0.88494 0.49315 0.73684 0.0
H225 H 0.88718 0.62553 0.75355 0.0
H226 H 0.1037 0.93632 0.75403 0.0
H227 H 0.95758 0.81221 0.74976 0.0
H228 H 0.41314 0.59872 0.70646 0.0
H229 H 0.27133 0.47088 0.70622 0.0
H230 H 0.47216 0.78403 0.70051 0.0
H231 H 0.47429 0.91756 0.71687 0.0
C232 C 0.40945 0.04584 0.97311 0.0
C233 C 0.50521 0.11929 0.95828 0.0
C234 C 0.64431 0.21079 -0.00354 0.0
C235 C 0.54733 0.13898 0.01117 0.0
N236 N 0.3652 0.95393 0.01222 0.0
N237 N 0.69227 0.30155 0.95735 0.0
C238 C 0.43887 0.04508 -0.00104 0.0
C239 C 0.61657 0.21077 0.97048 0.0
N240 N 0.28681 0.98521 0.96312 0.0
N241 N 0.76574 0.27221 0.00695 0.0
H242 H 0.66815 0.30827 0.93875 0.0
H243 H 0.76805 0.37691 0.96565 0.0
H244 H 0.79235 0.26084 0.0251 0.0
H245 H 0.84312 0.31919 -0.00329 0.0
H246 H 0.21136 0.93663 0.97362 0.0
H247 H 0.25653 -0.00034 0.9455 0.0
H248 H 0.29106 0.87707 0.00397 0.0
H249 H 0.38945 0.9498 0.03096 0.0
C250 C 0.95391 0.80579 0.45481 0.0
C251 C 0.07022 0.90862 0.45476 0.0
C252 C 0.16118 0.825 0.48695 0.0
C253 C 0.03567 0.74389 0.49174 0.0
N254 N 0.80432 0.68875 0.48256 0.0
N255 N 0.27544 0.02853 0.47698 0.0
C256 C 0.92884 0.74229 0.47636 0.0
C257 C 0.17194 0.9224 0.47258 0.0
N258 N 0.86923 0.76516 0.43435 0.0
N259 N 0.27006 0.80851 0.49528 0.0
H260 H 0.28148 0.108 0.46919 0.0
H261 H 0.34661 0.04117 0.49111 0.0
H262 H 0.26798 0.73054 0.50326 0.0
H263 H 0.36176 0.86389 0.49076 0.0
H264 H 0.78744 0.6861 0.43387 0.0
H265 H 0.8897 0.79891 0.41701 0.0
H266 H 0.72715 0.69385 0.47181 0.0
H267 H 0.77825 0.65609 0.49978 0.0
C268 C 0.99548 0.69851 0.32678 0.0
C269 C 0.03006 0.76972 0.34993 0.0
C270 C 0.13721 0.63662 0.36493 0.0
C271 C 0.09611 0.5619 0.34235 0.0
N272 N 0.96024 0.50508 0.30426 0.0
N273 N 0.11714 0.79627 0.39259 0.0
C274 C 0.01863 0.58848 0.32389 0.0
C275 C 0.09463 0.73471 0.36954 0.0
N276 N 0.94064 0.73573 0.30749 0.0
N277 N 0.22278 0.61805 0.38142 0.0
H278 H 0.10244 0.87701 0.39591 0.0
H279 H 0.14587 0.76507 0.40849 0.0
H280 H 0.2573 0.54782 0.37854 0.0
H281 H 0.2686 0.67823 0.39683 0.0
H282 H 0.92845 0.69569 0.28927 0.0
H283 H 0.91419 0.81131 0.3094 0.0
H284 H 0.88696 0.51121 0.29265 0.0
H285 H 0.97459 0.42352 0.30112 0.0
C286 C 0.49556 0.68602 0.59982 0.0
C287 C 0.41193 0.63093 0.61825 0.0
C288 C 0.5055 0.47246 0.61917 0.0
C289 C 0.59349 0.53128 0.6017 0.0
N290 N 0.69587 0.71272 0.58074 0.0
N291 N 0.35448 0.48483 0.64921 0.0
C292 C 0.59536 0.64348 0.59351 0.0
C293 C 0.42316 0.52892 0.62923 0.0
N294 N 0.47863 0.77798 0.58809 0.0
N295 N 0.49505 0.35935 0.62508 0.0
H296 H 0.28894 0.51916 0.65657 0.0
H297 H 0.37092 0.42142 0.65986 0.0
H298 H 0.55227 0.31414 0.61775 0.0
H299 H 0.42189 0.30544 0.63538 0.0
H300 H 0.52575 0.81141 0.57227 0.0
H301 H 0.41127 0.81592 0.59333 0.0
H302 H 0.70741 0.79975 0.57634 0.0
H303 H 0.775 0.68914 0.57683 0.0
C304 C 0.60133 0.51836 0.85288 0.0
C305 C 0.47523 0.51768 0.84736 0.0
C306 C 0.39876 0.30115 0.83329 0.0
C307 C 0.52297 0.30088 0.83999 0.0
N308 N 0.73816 0.4017 0.85856 0.0
N309 N 0.25147 0.40997 0.83435 0.0
C310 C 0.62329 0.40758 0.85036 0.0
C311 C 0.37307 0.40929 0.83816 0.0
N312 N 0.70016 0.62501 0.86055 0.0
N313 N 0.30647 0.19834 0.8218 0.0
H314 H 0.23091 0.48889 0.83643 0.0
H315 H 0.16954 0.33238 0.83022 0.0
H316 H 0.32002 0.11618 0.81886 0.0
H317 H 0.21852 0.1948 0.81399 0.0
H318 H 0.79678 0.63482 0.86166 0.0
H319 H 0.68738 0.70674 0.8647 0.0
H320 H 0.81097 0.47244 0.86883 0.0
H321 H 0.75803 0.32237 0.85654 0.0
C322 C 0.99472 0.28839 0.12877 0.0
C323 C 0.09368 0.35056 0.11359 0.0
C324 C 0.00123 0.50783 0.10924 0.0
C325 C 0.90242 0.44624 0.1245 0.0
N326 N 0.81261 0.28774 0.15188 0.0
N327 N 0.21109 0.53362 0.09439 0.0
C328 C 0.90291 0.34059 0.13553 0.0
C329 C 0.10334 0.46523 0.10551 0.0
N330 N 0.98257 0.17547 0.13508 0.0
N331 N 0.99432 0.6038 0.09748 0.0
H332 H 0.28995 0.50755 0.09204 0.0
H333 H 0.22794 0.62089 0.08948 0.0
H334 H 0.9238 0.64054 0.10083 0.0
H335 H 0.05402 0.64321 0.08352 0.0
H336 H 0.90301 0.118 0.14337 0.0
H337 H 0.04926 0.1355 0.13069 0.0
H338 H 0.81759 0.22116 0.16296 0.0
H339 H 0.73594 0.31516 0.15533 0.0
C340 C 0.06634 0.01628 0.62929 0.0
C341 C 0.03449 0.9474 0.60583 0.0
C342 C 0.92969 0.08179 0.59089 0.0
C343 C 0.97069 0.15647 0.6136 0.0
N344 N 0.1025 0.20925 0.65226 0.0
N345 N 0.95434 0.92496 0.56271 0.0
C346 C 0.04535 0.12744 0.63229 0.0
C347 C 0.97268 0.98387 0.58609 0.0
N348 N 0.11728 0.97597 0.64867 0.0
N349 N 0.84375 0.10013 0.57448 0.0
H350 H 0.97554 0.84754 0.55854 0.0
H351 H 0.92491 0.9572 0.54703 0.0
H352 H 0.80805 0.16945 0.57754 0.0
H353 H 0.79834 0.03992 0.55904 0.0
H354 H 0.12899 0.015 0.66696 0.0
H355 H 0.14056 0.89846 0.64682 0.0
H356 H 0.16894 0.19929 0.66512 0.0
H357 H 0.0938 0.29345 0.65455 0.0
C358 C 0.06216 0.0425 0.85801 0.0
C359 C 0.95542 0.00786 0.84062 0.0
C360 C 0.00559 0.83213 0.82523 0.0
C361 C 0.10136 0.85647 0.84536 0.0
N362 N 0.17668 0.96372 0.88624 0.0
N363 N 0.88325 0.91877 0.79962 0.0
C364 C 0.11935 0.95732 0.86311 0.0
C365 C 0.94482 0.9174 0.82165 0.0
N366 N 0.10031 0.15327 0.87112 0.0
N367 N 0.96194 0.72329 0.81121 0.0
H368 H 0.84977 0.98852 0.79661 0.0
H369 H 0.87769 0.85961 0.78411 0.0
H370 H 0.98545 0.6499 0.81582 0.0
H371 H 0.88606 0.69955 0.79766 0.0
H372 H 0.18344 0.18762 0.88305 0.0
H373 H 0.05425 0.21376 0.86781 0.0
H374 H 0.18499 0.03174 0.90025 0.0
H375 H 0.1965 0.89102 0.89258 0.0
C376 C 0.43525 0.75813 0.129 0.0
C377 C 0.55075 0.75779 0.11895 0.0
C378 C 0.60193 0.96942 0.10928 0.0
C379 C 0.47407 0.95908 0.11506 0.0
N380 N 0.26074 0.83047 0.12487 0.0
N381 N 0.76454 0.87643 0.10857 0.0
C382 C 0.3884 0.84918 0.12317 0.0
C383 C 0.63995 0.86739 0.11133 0.0
N384 N 0.37496 0.67771 0.14566 0.0
N385 N 0.68761 0.07606 0.10233 0.0
H386 H 0.79796 0.80959 0.11381 0.0
H387 H 0.83813 0.9523 0.1034 0.0
H388 H 0.67305 0.15757 0.10359 0.0
H389 H 0.77484 0.08538 0.09478 0.0
H390 H 0.29395 0.6796 0.15453 0.0
H391 H 0.41822 0.62411 0.15389 0.0
H392 H 0.19346 0.74917 0.12964 0.0
H393 H 0.21991 0.89082 0.11879 0.0
C394 C 0.66023 0.17625 0.32498 0.0
C395 C 0.6571 0.06876 0.33551 0.0
C396 C 0.45332 0.0483 0.35331 0.0
C397 C 0.46578 0.16495 0.34574 0.0
N398 N 0.58395 0.34306 0.32566 0.0
N399 N 0.53793 0.88585 0.35355 0.0
C400 C 0.56804 0.22841 0.33132 0.0
C401 C 0.54927 -0.00061 0.34778 0.0
N402 N 0.75034 0.22735 0.3085 0.0
N403 N 0.35359 0.98788 0.36721 0.0
H404 H 0.60807 0.84935 0.3496 0.0
H405 H 0.45597 0.82399 0.36033 0.0
H406 H 0.27554 0.01453 0.37003 0.0
H407 H 0.35124 0.91505 0.37705 0.0
H408 H 0.74409 0.29252 0.29711 0.0
H409 H 0.82381 0.19598 0.30444 0.0
H410 H 0.66677 0.40082 0.31828 0.0
H411 H 0.51684 0.38319 0.32957 0.0
loop_
_geom_bond_atom_site_label_1
_geom_bond_atom_site_label_2
_geom_bond_distance
_geom_bond_site_symmetry_2
_ccdc_geom_bond_type
C0 O12 1.241 1_455 S
C0 O13 1.280 . S
C1 O14 1.277 . S
C1 O15 1.245 1_655 S
C2 O26 1.247 . S
C2 O28 1.289 . S
Mg3 O4 1.926 . S
Mg3 O13 1.984 . S
Mg3 O15 1.988 . S
Mg3 O16 2.061 . S
O4 Mg3 1.926 . S
O4 Mg5 1.986 1_455 S
O4 Mg6 1.917 . S
Mg5 O4 1.986 1_655 S
Mg5 O12 2.042 . S
Mg5 O14 2.041 . S
Mg5 O20 2.038 1_545 S
Mg5 O28 2.238 . S
Mg6 O4 1.917 . S
Mg6 O7 1.917 1_455 S
Mg6 O17 2.106 . S
Mg6 O19 2.079 . S
Mg6 O28 2.106 1_455 S
Mg6 O29 2.079 . S
O7 Mg6 1.917 1_655 S
O7 Mg8 1.926 . S
O7 Mg9 1.986 1_655 S
Mg8 O7 1.926 . S
Mg8 O22 1.984 . S
Mg8 O25 1.988 . S
Mg8 O26 2.061 . S
Mg9 O7 1.986 1_455 S
Mg9 O17 2.238 . S
Mg9 O21 2.042 . S
Mg9 O23 2.041 . S
Mg9 O30 2.038 . S
C10 O16 1.247 . S
C10 O17 1.289 . S
C11 O29 1.245 . S
C11 O30 1.274 . S
O12 C0 1.241 1_655 S
O12 Mg5 2.042 . S
O13 C0 1.280 . S
O13 Mg3 1.984 . S
O14 C1 1.277 . S
O14 Mg5 2.041 . S
O15 C1 1.245 1_455 S
O15 Mg3 1.988 . S
O16 Mg3 2.061 . S
O16 C10 1.247 . S
O17 Mg6 2.106 . S
O17 Mg9 2.238 . S
O17 C10 1.289 . S
C18 O19 1.245 1_665 S
C18 O20 1.274 . S
O19 Mg6 2.079 . S
O19 C18 1.245 1_445 S
O20 Mg5 2.038 1_565 S
O20 C18 1.274 . S
O21 Mg9 2.042 . S
O21 C24 1.241 1_455 S
O22 Mg8 1.984 . S
O22 C24 1.280 . S
O23 Mg9 2.041 . S
O23 C27 1.277 . S
C24 O21 1.241 1_655 S
C24 O22 1.280 . S
O25 Mg8 1.988 . S
O25 C27 1.245 1_655 S
O26 C2 1.247 . S
O26 Mg8 2.061 . S
C27 O23 1.277 . S
C27 O25 1.245 1_455 S
O28 C2 1.289 . S
O28 Mg5 2.238 . S
O28 Mg6 2.106 1_655 S
O29 Mg6 2.079 . S
O29 C11 1.245 . S
O30 Mg9 2.038 . S
O30 C11 1.274 . S
C31 O43 1.241 1_455 S
C31 O44 1.280 . S
C32 O45 1.277 . S
C32 O46 1.245 1_655 S
C33 O57 1.247 . S
C33 O59 1.289 . S
Mg34 O35 1.926 . S
Mg34 O44 1.984 . S
Mg34 O46 1.988 . S
Mg34 O47 2.061 . S
O35 Mg34 1.926 . S
O35 Mg36 1.986 1_455 S
O35 Mg37 1.917 . S
Mg36 O35 1.986 1_655 S
Mg36 O43 2.042 . S
Mg36 O45 2.041 . S
Mg36 O51 2.038 . S
Mg36 O59 2.238 . S
Mg37 O35 1.917 . S
Mg37 O38 1.917 1_455 S
Mg37 O48 2.106 . S
Mg37 O50 2.079 1_455 S
Mg37 O59 2.106 1_455 S
Mg37 O60 2.079 . S
O38 Mg37 1.917 1_655 S
O38 Mg39 1.926 . S
O38 Mg40 1.986 1_655 S
Mg39 O38 1.926 . S
Mg39 O53 1.984 . S
Mg39 O56 1.988 . S
Mg39 O57 2.061 . S
Mg40 O38 1.986 1_455 S
Mg40 O48 2.238 . S
Mg40 O52 2.042 . S
Mg40 O54 2.041 . S
Mg40 O61 2.038 1_565 S
C41 O47 1.247 . S
C41 O48 1.289 . S
C42 O60 1.245 1_545 S
C42 O61 1.274 . S
O43 C31 1.241 1_655 S
O43 Mg36 2.042 . S
O44 C31 1.280 . S
O44 Mg34 1.984 . S
O45 C32 1.277 . S
O45 Mg36 2.041 . S
O46 C32 1.245 1_455 S
O46 Mg34 1.988 . S
O47 Mg34 2.061 . S
O47 C41 1.247 . S
O48 Mg37 2.106 . S
O48 Mg40 2.238 . S
O48 C41 1.289 . S
C49 O50 1.245 . S
C49 O51 1.274 . S
O50 Mg37 2.079 1_655 S
O50 C49 1.245 . S
O51 Mg36 2.038 . S
O51 C49 1.274 . S
O52 Mg40 2.042 . S
O52 C55 1.241 1_455 S
O53 Mg39 1.984 . S
O53 C55 1.280 . S
O54 Mg40 2.041 . S
O54 C58 1.277 . S
C55 O52 1.241 1_655 S
C55 O53 1.280 . S
O56 Mg39 1.988 . S
O56 C58 1.245 1_655 S
O57 C33 1.247 . S
O57 Mg39 2.061 . S
C58 O54 1.277 . S
C58 O56 1.245 1_455 S
O59 C33 1.289 . S
O59 Mg36 2.238 . S
O59 Mg37 2.106 1_655 S
O60 Mg37 2.079 . S
O60 C42 1.245 1_565 S
O61 Mg40 2.038 1_545 S
O61 C42 1.274 . S
C62 O74 1.241 . S
C62 O75 1.280 . S
C63 O76 1.277 . S
C63 O77 1.245 . S
C64 O88 1.247 . S
C64 O90 1.289 . S
Mg65 O66 1.926 . S
Mg65 O75 1.984 . S
Mg65 O77 1.988 . S
Mg65 O78 2.061 . S
O66 Mg65 1.926 . S
O66 Mg67 1.986 . S
O66 Mg68 1.917 . S
Mg67 O66 1.986 . S
Mg67 O74 2.042 . S
Mg67 O76 2.041 . S
Mg67 O82 2.038 . S
Mg67 O90 2.238 . S
Mg68 O66 1.917 . S
Mg68 O69 1.917 . S
Mg68 O79 2.106 . S
Mg68 O81 2.079 . S
Mg68 O90 2.106 . S
Mg68 O91 2.079 . S
O69 Mg68 1.917 . S
O69 Mg70 1.926 . S
O69 Mg71 1.986 . S
Mg70 O69 1.926 . S
Mg70 O84 1.984 . S
Mg70 O87 1.988 . S
Mg70 O88 2.061 . S
Mg71 O69 1.986 . S
Mg71 O79 2.238 . S
Mg71 O83 2.042 . S
Mg71 O85 2.041 . S
Mg71 O92 2.038 1_565 S
C72 O78 1.247 . S
C72 O79 1.289 . S
C73 O91 1.245 1_545 S
C73 O92 1.274 . S
O74 C62 1.241 . S
O74 Mg67 2.042 . S
O75 C62 1.280 . S
O75 Mg65 1.984 . S
O76 C63 1.277 . S
O76 Mg67 2.041 . S
O77 C63 1.245 . S
O77 Mg65 1.988 . S
O78 Mg65 2.061 . S
O78 C72 1.247 . S
O79 Mg68 2.106 . S
O79 Mg71 2.238 . S
O79 C72 1.289 . S
C80 O81 1.245 . S
C80 O82 1.274 . S
O81 Mg68 2.079 . S
O81 C80 1.245 . S
O82 Mg67 2.038 . S
O82 C80 1.274 . S
O83 Mg71 2.042 . S
O83 C86 1.241 . S
O84 Mg70 1.984 . S
O84 C86 1.280 . S
O85 Mg71 2.041 . S
O85 C89 1.277 . S
C86 O83 1.241 . S
C86 O84 1.280 . S
O87 Mg70 1.988 . S
O87 C89 1.245 . S
O88 C64 1.247 . S
O88 Mg70 2.061 . S
C89 O85 1.277 . S
C89 O87 1.245 . S
O90 C64 1.289 . S
O90 Mg67 2.238 . S
O90 Mg68 2.106 . S
O91 Mg68 2.079 . S
O91 C73 1.245 1_565 S
O92 Mg71 2.038 1_545 S
O92 C73 1.274 . S
C93 O105 1.241 . S
C93 O106 1.280 . S
C94 O107 1.277 . S
C94 O108 1.245 . S
C95 O119 1.247 . S
C95 O121 1.289 . S
Mg96 O97 1.926 . S
Mg96 O106 1.984 . S
Mg96 O108 1.988 . S
Mg96 O109 2.061 . S
O97 Mg96 1.926 . S
O97 Mg98 1.986 . S
O97 Mg99 1.917 . S
Mg98 O97 1.986 . S
Mg98 O105 2.042 . S
Mg98 O107 2.041 . S
Mg98 O113 2.038 1_545 S
Mg98 O121 2.238 . S
Mg99 O97 1.917 . S
Mg99 O100 1.917 . S
Mg99 O110 2.106 . S
Mg99 O112 2.079 . S
Mg99 O121 2.106 . S
Mg99 O122 2.079 . S
O100 Mg99 1.917 . S
O100 Mg101 1.926 . S
O100 Mg102 1.986 . S
Mg101 O100 1.926 . S
Mg101 O115 1.984 . S
Mg101 O118 1.988 . S
Mg101 O119 2.061 . S
Mg102 O100 1.986 . S
Mg102 O110 2.238 . S
Mg102 O114 2.042 . S
Mg102 O116 2.041 . S
Mg102 O123 2.038 . S
C103 O109 1.247 . S
C103 O110 1.289 . S
C104 O122 1.245 . S
C104 O123 1.274 . S
O105 C93 1.241 . S
O105 Mg98 2.042 . S
O106 C93 1.280 . S
O106 Mg96 1.984 . S
O107 C94 1.277 . S
O107 Mg98 2.041 . S
O108 C94 1.245 . S
O108 Mg96 1.988 . S
O109 Mg96 2.061 . S
O109 C103 1.247 . S
O110 Mg99 2.106 . S
O110 Mg102 2.238 . S
O110 C103 1.289 . S
C111 O112 1.245 1_565 S
C111 O113 1.274 . S
O112 Mg99 2.079 . S
O112 C111 1.245 1_545 S
O113 Mg98 2.038 1_565 S
O113 C111 1.274 . S
O114 Mg102 2.042 . S
O114 C117 1.241 . S
O115 Mg101 1.984 . S
O115 C117 1.280 . S
O116 Mg102 2.041 . S
O116 C120 1.277 . S
C117 O114 1.241 . S
C117 O115 1.280 . S
O118 Mg101 1.988 . S
O118 C120 1.245 . S
O119 C95 1.247 . S
O119 Mg101 2.061 . S
C120 O116 1.277 . S
C120 O118 1.245 . S
O121 C95 1.289 . S
O121 Mg98 2.238 . S
O121 Mg99 2.106 . S
O122 Mg99 2.079 . S
O122 C104 1.245 . S
O123 Mg102 2.038 . S
O123 C104 1.274 . S
C124 C125 1.363 1_455 S
C124 C130 1.379 . S
C124 N132 1.356 . S
C125 C124 1.363 1_655 S
C125 C131 1.363 . S
C126 C127 1.363 . S
C126 C131 1.379 1_455 S
C126 N133 1.356 . S
C127 C126 1.363 . S
C127 C130 1.363 . S
N128 C130 1.356 . S
N128 H140 0.984 . S
N128 H141 0.985 . S
N129 C131 1.356 . S
N129 H134 0.984 . S
N129 H135 0.985 . S
C130 C124 1.379 . S
C130 C127 1.363 . S
C130 N128 1.356 . S
C131 C125 1.363 . S
C131 C126 1.379 1_655 S
C131 N129 1.356 . S
N132 C124 1.356 . S
N132 H138 0.984 . S
N132 H139 0.984 1_455 S
N133 C126 1.356 . S
N133 H136 0.984 . S
N133 H137 0.985 1_455 S
H134 N129 0.984 . S
H135 N129 0.985 . S
H136 N133 0.984 . S
H137 N133 0.985 1_655 S
H138 N132 0.984 . S
H139 N132 0.984 1_655 S
H140 N128 0.984 . S
H141 N128 0.985 . S
C142 C143 1.363 . S
C142 C148 1.379 . S
C142 N150 1.356 . S
C143 C142 1.363 . S
C143 C149 1.363 . S
C144 C145 1.363 . S
C144 C149 1.379 . S
C144 N151 1.356 . S
C145 C144 1.363 . S
C145 C148 1.363 . S
N146 C148 1.356 . S
N146 H158 0.984 1_565 S
N146 H159 0.985 1_565 S
N147 C149 1.356 . S
N147 H152 0.984 . S
N147 H153 0.985 . S
C148 C142 1.379 . S
C148 C145 1.363 . S
C148 N146 1.356 . S
C149 C143 1.363 . S
C149 C144 1.379 . S
C149 N147 1.356 . S
N150 C142 1.356 . S
N150 H156 0.984 . S
N150 H157 0.984 . S
N151 C144 1.356 . S
N151 H154 0.984 . S
N151 H155 0.985 . S
H152 N147 0.984 . S
H153 N147 0.985 . S
H154 N151 0.984 . S
H155 N151 0.985 . S
H156 N150 0.984 . S
H157 N150 0.984 . S
H158 N146 0.984 1_545 S
H159 N146 0.985 1_545 S
C160 C161 1.363 1_554 S
C160 C166 1.379 . S
C160 N168 1.356 1_554 S
C161 C160 1.363 1_556 S
C161 C167 1.363 . S
C162 C163 1.363 1_556 S
C162 C167 1.379 . S
C162 N169 1.356 1_556 S
C163 C162 1.363 1_554 S
C163 C166 1.363 . S
N164 C166 1.356 . S
N164 H176 0.984 . S
N164 H177 0.985 . S
N165 C167 1.356 . S
N165 H170 0.984 . S
N165 H171 0.985 . S
C166 C160 1.379 . S
C166 C163 1.363 . S
C166 N164 1.356 . S
C167 C161 1.363 . S
C167 C162 1.379 . S
C167 N165 1.356 . S
N168 C160 1.356 1_556 S
N168 H174 0.984 1_556 S
N168 H175 0.984 . S
N169 C162 1.356 1_554 S
N169 H172 0.984 . S
N169 H173 0.985 1_554 S
H170 N165 0.984 . S
H171 N165 0.985 . S
H172 N169 0.984 . S
H173 N169 0.985 1_556 S
H174 N168 0.984 1_554 S
H175 N168 0.984 . S
H176 N164 0.984 . S
H177 N164 0.985 . S
C178 C179 1.363 . S
C178 C184 1.379 . S
C178 N186 1.356 . S
C179 C178 1.363 . S
C179 C185 1.363 . S
C180 C181 1.363 . S
C180 C185 1.379 . S
C180 N187 1.356 . S
C181 C180 1.363 . S
C181 C184 1.363 . S
N182 C184 1.356 . S
N182 H194 0.984 . S
N182 H195 0.985 . S
N183 C185 1.356 . S
N183 H188 0.984 . S
N183 H189 0.985 . S
C184 C178 1.379 . S
C184 C181 1.363 . S
C184 N182 1.356 . S
C185 C179 1.363 . S
C185 C180 1.379 . S
C185 N183 1.356 . S
N186 C178 1.356 . S
N186 H192 0.984 . S
N186 H193 0.984 . S
N187 C180 1.356 . S
N187 H190 0.984 1_545 S
N187 H191 0.985 1_545 S
H188 N183 0.984 . S
H189 N183 0.985 . S
H190 N187 0.984 1_565 S
H191 N187 0.985 1_565 S
H192 N186 0.984 . S
H193 N186 0.984 . S
H194 N182 0.984 . S
H195 N182 0.985 . S
C196 C197 1.363 . S
C196 C202 1.379 . S
C196 N204 1.356 . S
C197 C196 1.363 . S
C197 C203 1.363 . S
C198 C199 1.363 . S
C198 C203 1.379 . S
C198 N205 1.356 . S
C199 C198 1.363 . S
C199 C202 1.363 . S
N200 C202 1.356 . S
N200 H212 0.984 . S
N200 H213 0.985 . S
N201 C203 1.356 . S
N201 H206 0.984 . S
N201 H207 0.985 . S
C202 C196 1.379 . S
C202 C199 1.363 . S
C202 N200 1.356 . S
C203 C197 1.363 . S
C203 C198 1.379 . S
C203 N201 1.356 . S
N204 C196 1.356 . S
N204 H210 0.984 . S
N204 H211 0.984 . S
N205 C198 1.356 . S
N205 H208 0.984 1_455 S
N205 H209 0.985 1_455 S
H206 N201 0.984 . S
H207 N201 0.985 . S
H208 N205 0.984 1_655 S
H209 N205 0.985 1_655 S
H210 N204 0.984 . S
H211 N204 0.984 . S
H212 N200 0.984 . S
H213 N200 0.985 . S
C214 C215 1.363 . S
C214 C220 1.379 . S
C214 N222 1.356 . S
C215 C214 1.363 . S
C215 C221 1.363 . S
C216 C217 1.363 . S
C216 C221 1.379 . S
C216 N223 1.356 . S
C217 C216 1.363 . S
C217 C220 1.363 . S
N218 C220 1.356 . S
N218 H230 0.984 . S
N218 H231 0.985 . S
N219 C221 1.356 . S
N219 H224 0.984 . S
N219 H225 0.985 . S
C220 C214 1.379 . S
C220 C217 1.363 . S
C220 N218 1.356 . S
C221 C215 1.363 . S
C221 C216 1.379 . S
C221 N219 1.356 . S
N222 C214 1.356 . S
N222 H228 0.984 . S
N222 H229 0.984 . S
N223 C216 1.356 . S
N223 H226 0.984 1_565 S
N223 H227 0.985 . S
H224 N219 0.984 . S
H225 N219 0.985 . S
H226 N223 0.984 1_545 S
H227 N223 0.985 . S
H228 N222 0.984 . S
H229 N222 0.984 . S
H230 N218 0.984 . S
H231 N218 0.985 . S
C232 C233 1.363 . S
C232 C238 1.378 1_566 S
C232 N240 1.356 . S
C233 C232 1.363 . S
C233 C239 1.363 . S
C234 C235 1.363 . S
C234 C239 1.378 1_544 S
C234 N241 1.356 . S
C235 C234 1.363 . S
C235 C238 1.363 . S
N236 C238 1.357 . S
N236 H248 0.984 1_545 S
N236 H249 0.985 . S
N237 C239 1.357 . S
N237 H242 0.984 . S
N237 H243 0.985 1_565 S
C238 C232 1.378 1_544 S
C238 C235 1.363 . S
C238 N236 1.357 . S
C239 C233 1.363 . S
C239 C234 1.378 1_566 S
C239 N237 1.357 . S
N240 C232 1.356 . S
N240 H246 0.984 . S
N240 H247 0.984 . S
N241 C234 1.356 . S
N241 H244 0.984 . S
N241 H245 0.985 . S
H242 N237 0.984 . S
H243 N237 0.985 1_545 S
H244 N241 0.984 . S
H245 N241 0.985 . S
H246 N240 0.984 . S
H247 N240 0.984 . S
H248 N236 0.984 1_565 S
H249 N236 0.985 . S
C250 C251 1.363 1_665 S
C250 C256 1.379 . S
C250 N258 1.356 . S
C251 C250 1.363 1_445 S
C251 C257 1.363 . S
C252 C253 1.363 1_445 S
C252 C257 1.379 . S
C252 N259 1.356 . S
C253 C252 1.363 1_665 S
C253 C256 1.363 . S
N254 C256 1.356 . S
N254 H266 0.984 . S
N254 H267 0.985 . S
N255 C257 1.356 . S
N255 H260 0.984 . S
N255 H261 0.985 . S
C256 C250 1.379 . S
C256 C253 1.363 . S
C256 N254 1.356 . S
C257 C251 1.363 . S
C257 C252 1.379 . S
C257 N255 1.356 . S
N258 C250 1.356 . S
N258 H264 0.984 . S
N258 H265 0.984 1_565 S
N259 C252 1.356 . S
N259 H262 0.984 1_545 S
N259 H263 0.985 . S
H260 N255 0.984 . S
H261 N255 0.985 . S
H262 N259 0.984 1_565 S
H263 N259 0.985 . S
H264 N258 0.984 . S
H265 N258 0.984 1_545 S
H266 N254 0.984 . S
H267 N254 0.985 . S
C268 C269 1.363 . S
C268 C274 1.379 . S
C268 N276 1.356 . S
C269 C268 1.363 . S
C269 C275 1.363 1_655 S
C270 C271 1.363 . S
C270 C275 1.379 . S
C270 N277 1.356 . S
C271 C270 1.363 . S
C271 C274 1.363 1_455 S
N272 C274 1.356 . S
N272 H284 0.984 . S
N272 H285 0.985 . S
N273 C275 1.356 . S
N273 H278 0.984 1_565 S
N273 H279 0.985 . S
C274 C268 1.379 . S
C274 C271 1.363 1_655 S
C274 N272 1.356 . S
C275 C269 1.363 1_455 S
C275 C270 1.379 . S
C275 N273 1.356 . S
N276 C268 1.356 . S
N276 H282 0.984 . S
N276 H283 0.984 . S
N277 C270 1.356 . S
N277 H280 0.984 . S
N277 H281 0.985 . S
H278 N273 0.984 1_545 S
H279 N273 0.985 . S
H280 N277 0.984 . S
H281 N277 0.985 . S
H282 N276 0.984 . S
H283 N276 0.984 . S
H284 N272 0.984 . S
H285 N272 0.985 . S
C286 C287 1.363 . S
C286 C292 1.379 . S
C286 N294 1.356 . S
C287 C286 1.363 . S
C287 C293 1.363 . S
C288 C289 1.363 . S
C288 C293 1.379 . S
C288 N295 1.356 . S
C289 C288 1.363 . S
C289 C292 1.363 . S
N290 C292 1.356 . S
N290 H302 0.984 . S
N290 H303 0.985 . S
N291 C293 1.356 . S
N291 H296 0.984 . S
N291 H297 0.985 . S
C292 C286 1.379 . S
C292 C289 1.363 . S
C292 N290 1.356 . S
C293 C287 1.363 . S
C293 C288 1.379 . S
C293 N291 1.356 . S
N294 C286 1.356 . S
N294 H300 0.984 . S
N294 H301 0.984 . S
N295 C288 1.356 . S
N295 H298 0.984 . S
N295 H299 0.985 . S
H296 N291 0.984 . S
H297 N291 0.985 . S
H298 N295 0.984 . S
H299 N295 0.985 . S
H300 N294 0.984 . S
H301 N294 0.984 . S
H302 N290 0.984 . S
H303 N290 0.985 . S
C304 C305 1.363 . S
C304 C310 1.379 . S
C304 N312 1.356 . S
C305 C304 1.363 . S
C305 C311 1.363 . S
C306 C307 1.363 . S
C306 C311 1.379 . S
C306 N313 1.356 . S
C307 C306 1.363 . S
C307 C310 1.363 . S
N308 C310 1.356 . S
N308 H320 0.984 . S
N308 H321 0.985 . S
N309 C311 1.356 . S
N309 H314 0.984 . S
N309 H315 0.985 . S
C310 C304 1.379 . S
C310 C307 1.363 . S
C310 N308 1.356 . S
C311 C305 1.363 . S
C311 C306 1.379 . S
C311 N309 1.356 . S
N312 C304 1.356 . S
N312 H318 0.984 . S
N312 H319 0.984 . S
N313 C306 1.356 . S
N313 H316 0.984 1_545 S
N313 H317 0.985 . S
H314 N309 0.984 . S
H315 N309 0.985 . S
H316 N313 0.984 1_565 S
H317 N313 0.985 . S
H318 N312 0.984 . S
H319 N312 0.984 . S
H320 N308 0.984 . S
H321 N308 0.985 . S
C322 C323 1.363 . S
C322 C328 1.379 1_455 S
C322 N330 1.356 . S
C323 C322 1.363 . S
C323 C329 1.363 . S
C324 C325 1.363 1_455 S
C324 C329 1.379 . S
C324 N331 1.356 1_455 S
C325 C324 1.363 1_655 S
C325 C328 1.363 . S
N326 C328 1.356 . S
N326 H338 0.984 . S
N326 H339 0.985 . S
N327 C329 1.356 . S
N327 H332 0.984 . S
N327 H333 0.985 . S
C328 C322 1.379 1_655 S
C328 C325 1.363 . S
C328 N326 1.356 . S
C329 C323 1.363 . S
C329 C324 1.379 . S
C329 N327 1.356 . S
N330 C322 1.356 . S
N330 H336 0.984 1_455 S
N330 H337 0.984 . S
N331 C324 1.356 1_655 S
N331 H334 0.984 . S
N331 H335 0.985 1_655 S
H332 N327 0.984 . S
H333 N327 0.985 . S
H334 N331 0.984 . S
H335 N331 0.985 1_455 S
H336 N330 0.984 1_655 S
H337 N330 0.984 . S
H338 N326 0.984 . S
H339 N326 0.985 . S
C340 C341 1.363 1_655 S
C340 C346 1.379 . S
C340 N348 1.356 . S
C341 C340 1.363 1_455 S
C341 C347 1.363 . S
C342 C343 1.363 1_455 S
C342 C347 1.379 . S
C342 N349 1.356 . S
C343 C342 1.363 1_655 S
C343 C346 1.363 . S
N344 C346 1.356 . S
N344 H356 0.984 . S
N344 H357 0.985 . S
N345 C347 1.356 . S
N345 H350 0.984 . S
N345 H351 0.985 . S
C346 C340 1.379 . S
C346 C343 1.363 . S
C346 N344 1.356 . S
C347 C341 1.363 . S
C347 C342 1.379 . S
C347 N345 1.356 . S
N348 C340 1.356 . S
N348 H354 0.984 . S
N348 H355 0.984 . S
N349 C342 1.356 . S
N349 H352 0.984 . S
N349 H353 0.985 . S
H350 N345 0.984 . S
H351 N345 0.985 . S
H352 N349 0.984 . S
H353 N349 0.985 . S
H354 N348 0.984 . S
H355 N348 0.984 . S
H356 N344 0.984 . S
H357 N344 0.985 . S
C358 C359 1.363 1_455 S
C358 C364 1.379 . S
C358 N366 1.356 1_455 S
C359 C358 1.363 1_655 S
C359 C365 1.363 . S
C360 C361 1.363 . S
C360 C365 1.379 1_455 S
C360 N367 1.356 . S
C361 C360 1.363 . S
C361 C364 1.363 . S
N362 C364 1.356 . S
N362 H374 0.984 . S
N362 H375 0.985 . S
N363 C365 1.356 . S
N363 H368 0.984 . S
N363 H369 0.985 . S
C364 C358 1.379 . S
C364 C361 1.363 . S
C364 N362 1.356 . S
C365 C359 1.363 . S
C365 C360 1.379 1_655 S
C365 N363 1.356 . S
N366 C358 1.356 1_655 S
N366 H372 0.984 1_655 S
N366 H373 0.984 . S
N367 C360 1.356 . S
N367 H370 0.984 . S
N367 H371 0.985 . S
H368 N363 0.984 . S
H369 N363 0.985 . S
H370 N367 0.984 . S
H371 N367 0.985 . S
H372 N366 0.984 1_455 S
H373 N366 0.984 . S
H374 N362 0.984 . S
H375 N362 0.985 . S
C376 C377 1.363 . S
C376 C382 1.379 . S
C376 N384 1.356 . S
C377 C376 1.363 . S
C377 C383 1.363 . S
C378 C379 1.363 . S
C378 C383 1.379 . S
C378 N385 1.356 . S
C379 C378 1.363 . S
C379 C382 1.363 . S
N380 C382 1.356 . S
N380 H392 0.984 . S
N380 H393 0.985 . S
N381 C383 1.356 . S
N381 H386 0.984 . S
N381 H387 0.985 . S
C382 C376 1.379 . S
C382 C379 1.363 . S
C382 N380 1.356 . S
C383 C377 1.363 . S
C383 C378 1.379 . S
C383 N381 1.356 . S
N384 C376 1.356 . S
N384 H390 0.984 . S
N384 H391 0.984 . S
N385 C378 1.356 . S
N385 H388 0.984 . S
N385 H389 0.985 . S
H386 N381 0.984 . S
H387 N381 0.985 . S
H388 N385 0.984 . S
H389 N385 0.985 . S
H390 N384 0.984 . S
H391 N384 0.984 . S
H392 N380 0.984 . S
H393 N380 0.985 . S
C394 C395 1.363 . S
C394 C400 1.379 . S
C394 N402 1.356 . S
C395 C394 1.363 . S
C395 C401 1.363 . S
C396 C397 1.363 . S
C396 C401 1.379 . S
C396 N403 1.356 . S
C397 C396 1.363 . S
C397 C400 1.363 . S
N398 C400 1.356 . S
N398 H410 0.984 . S
N398 H411 0.985 . S
N399 C401 1.356 . S
N399 H404 0.984 . S
N399 H405 0.985 . S
C400 C394 1.379 . S
C400 C397 1.363 . S
C400 N398 1.356 . S
C401 C395 1.363 . S
C401 C396 1.379 . S
C401 N399 1.356 . S
N402 C394 1.356 . S
N402 H408 0.984 . S
N402 H409 0.984 . S
N403 C396 1.356 . S
N403 H406 0.984 . S
N403 H407 0.985 . S
H404 N399 0.984 . S
H405 N399 0.985 . S
H406 N403 0.984 . S
H407 N403 0.985 . S
H408 N402 0.984 . S
H409 N402 0.984 . S
H410 N398 0.984 . S
H411 N398 0.985 . S
C125 C1 1.349 . S
C127 C58 1.349 . S
C143 C89 1.951 . S
C145 C32 1.951 . S
C161 C62 1.332 . S
C163 C117 1.332 . S
C179 C24 1.595 . S
C181 C93 1.595 . S
C197 C94 1.951 . S
C199 C27 1.951 . S
C215 C31 1.595 . S
C217 C86 1.595 . S
C233 C63 1.349 . S
C235 C120 1.349 . S
C251 C0 1.332 . S
C253 C55 1.332 . S
C269 C18 1.733 . S
C271 C11 1.733 . S
C287 C41 1.538 . S
C289 C33 1.538 . S
C305 C80 1.733 . S
C307 C73 1.733 . S
C323 C95 1.538 . S
C325 C103 1.538 . S
C341 C42 1.733 . S
C343 C49 1.733 . S
C359 C72 1.538 . S
C361 C64 1.538 . S
C377 C104 1.733 . S
C379 C111 1.733 . S
C395 C2 1.538 . S
C397 C10 1.538 . S
