# Generated by pormake.
# Topology tzs, (4)-cn, num edge types: 1
# Building blocks:
#     Node 0, Type 0, BuildingBlock: NAHDIM_clean_sbu_0, # of connection points: 4
#     Node 1, Type 0, BuildingBlock: NAHDIM_clean_sbu_0, # of connection points: 4
#     Node 2, Type 0, BuildingBlock: NAHDIM_clean_sbu_0, # of connection points: 4
#     Node 3, Type 0, BuildingBlock: NAHDIM_clean_sbu_0, # of connection points: 4
#     Node 4, Type 0, BuildingBlock: NAHDIM_clean_sbu_0, # of connection points: 4
#     Node 5, Type 0, BuildingBlock: NAHDIM_clean_sbu_0, # of connection points: 4
#     Node 6, Type 0, BuildingBlock: NAHDIM_clean_sbu_0, # of connection points: 4
#     Node 7, Type 0, BuildingBlock: NAHDIM_clean_sbu_0, # of connection points: 4
#     Node 8, Type 0, BuildingBlock: NAHDIM_clean_sbu_0, # of connection points: 4
#     Node 9, Type 0, BuildingBlock: NAHDIM_clean_sbu_0, # of connection points: 4
#     Node 10, Type 0, BuildingBlock: NAHDIM_clean_sbu_0, # of connection points: 4
#     Node 11, Type 0, BuildingBlock: NAHDIM_clean_sbu_0, # of connection points: 4
#     Node 12, Type 0, BuildingBlock: NAHDIM_clean_sbu_0, # of connection points: 4
#     Node 13, Type 0, BuildingBlock: NAHDIM_clean_sbu_0, # of connection points: 4
#     Node 14, Type 0, BuildingBlock: NAHDIM_clean_sbu_0, # of connection points: 4
#     Node 15, Type 0, BuildingBlock: NAHDIM_clean_sbu_0, # of connection points: 4
#     Edge 16, Type (0, 0), BuildingBlock: KIFKEQ_clean_linker_1, # of connection points: 2
#     Edge 17, Type (0, 0), BuildingBlock: KIFKEQ_clean_linker_1, # of connection points: 2
#     Edge 18, Type (0, 0), BuildingBlock: KIFKEQ_clean_linker_1, # of connection points: 2
#     Edge 19, Type (0, 0), BuildingBlock: KIFKEQ_clean_linker_1, # of connection points: 2
#     Edge 20, Type (0, 0), BuildingBlock: KIFKEQ_clean_linker_1, # of connection points: 2
#     Edge 21, Type (0, 0), BuildingBlock: KIFKEQ_clean_linker_1, # of connection points: 2
#     Edge 22, Type (0, 0), BuildingBlock: KIFKEQ_clean_linker_1, # of connection points: 2
#     Edge 23, Type (0, 0), BuildingBlock: KIFKEQ_clean_linker_1, # of connection points: 2
#     Edge 24, Type (0, 0), BuildingBlock: KIFKEQ_clean_linker_1, # of connection points: 2
#     Edge 25, Type (0, 0), BuildingBlock: KIFKEQ_clean_linker_1, # of connection points: 2
#     Edge 26, Type (0, 0), BuildingBlock: KIFKEQ_clean_linker_1, # of connection points: 2
#     Edge 27, Type (0, 0), BuildingBlock: KIFKEQ_clean_linker_1, # of connection points: 2
#     Edge 28, Type (0, 0), BuildingBlock: KIFKEQ_clean_linker_1, # of connection points: 2
#     Edge 29, Type (0, 0), BuildingBlock: KIFKEQ_clean_linker_1, # of connection points: 2
#     Edge 30, Type (0, 0), BuildingBlock: KIFKEQ_clean_linker_1, # of connection points: 2
#     Edge 31, Type (0, 0), BuildingBlock: KIFKEQ_clean_linker_1, # of connection points: 2
#     Edge 32, Type (0, 0), BuildingBlock: KIFKEQ_clean_linker_1, # of connection points: 2
#     Edge 33, Type (0, 0), BuildingBlock: KIFKEQ_clean_linker_1, # of connection points: 2
#     Edge 34, Type (0, 0), BuildingBlock: KIFKEQ_clean_linker_1, # of connection points: 2
#     Edge 35, Type (0, 0), BuildingBlock: KIFKEQ_clean_linker_1, # of connection points: 2
#     Edge 36, Type (0, 0), BuildingBlock: KIFKEQ_clean_linker_1, # of connection points: 2
#     Edge 37, Type (0, 0), BuildingBlock: KIFKEQ_clean_linker_1, # of connection points: 2
#     Edge 38, Type (0, 0), BuildingBlock: KIFKEQ_clean_linker_1, # of connection points: 2
#     Edge 39, Type (0, 0), BuildingBlock: KIFKEQ_clean_linker_1, # of connection points: 2
#     Edge 40, Type (0, 0), BuildingBlock: KIFKEQ_clean_linker_1, # of connection points: 2
#     Edge 41, Type (0, 0), BuildingBlock: KIFKEQ_clean_linker_1, # of connection points: 2
#     Edge 42, Type (0, 0), BuildingBlock: KIFKEQ_clean_linker_1, # of connection points: 2
#     Edge 43, Type (0, 0), BuildingBlock: KIFKEQ_clean_linker_1, # of connection points: 2
#     Edge 44, Type (0, 0), BuildingBlock: KIFKEQ_clean_linker_1, # of connection points: 2
#     Edge 45, Type (0, 0), BuildingBlock: KIFKEQ_clean_linker_1, # of connection points: 2
#     Edge 46, Type (0, 0), BuildingBlock: KIFKEQ_clean_linker_1, # of connection points: 2
#     Edge 47, Type (0, 0), BuildingBlock: KIFKEQ_clean_linker_1, # of connection points: 2
# Relax obj value: 0.068
# Max RMSD: 0.082
# Mean RMSD: 0.082
data_MOF--net-tzs--node1-NAHDIM_clean_sbu_0--edge1-KIFKEQ_clean_linker_1
_symmetry_space_group_name_H-M    P1
_symmetry_Int_Tables_number       1
_symmetry_cell_setting            triclinic
loop_
_symmetry_equiv_pos_as_xyz
'x, y, z'
_cell_length_a     50.169858
_cell_length_b     50.138099
_cell_length_c     40.126871
_cell_angle_alpha  90.110884
_cell_angle_beta   89.966932
_cell_angle_gamma 89.925458
loop_
_atom_site_label
_atom_site_type_symbol
_atom_site_fract_x
_atom_site_fract_y
_atom_site_fract_z
_atom_type_partial_charge
C0 C 0.18993 0.33104 0.18886 0.0
O1 O 0.19789 0.35115 0.17043 0.0
O2 O 0.14899 0.39295 0.19386 0.0
Zn3 Zn 0.13974 0.3561 0.17745 0.0
O4 O 0.14173 0.35507 0.1273 0.0
C5 C 0.08294 0.34579 0.17248 0.0
O6 O 0.08761 0.34724 0.14033 0.0
O7 O 0.1653 0.32888 0.19578 0.0
C8 C 0.15461 0.37227 0.11057 0.0
O9 O 0.16728 0.39142 0.12631 0.0
C10 C 0.16129 0.39739 0.22099 0.0
O11 O 0.16902 0.37716 0.23937 0.0
O12 O 0.10224 0.34826 0.19279 0.0
C13 C 0.6733 0.18765 0.19406 0.0
O14 O 0.66185 0.19402 0.16573 0.0
O15 O 0.60291 0.15285 0.20818 0.0
Zn16 Zn 0.63857 0.14204 0.18956 0.0
O17 O 0.63858 0.14337 0.13938 0.0
C18 C 0.64397 0.09887 0.23495 0.0
O19 O 0.63887 0.11813 0.25628 0.0
O20 O 0.66667 0.16614 0.20853 0.0
C21 C 0.61823 0.13602 0.1229 0.0
O22 O 0.59703 0.12762 0.13897 0.0
C23 C 0.58815 0.1712 0.19651 0.0
O24 O 0.59613 0.18477 0.17037 0.0
O25 O 0.64548 0.10439 0.20412 0.0
C26 C 0.80104 0.66781 0.20787 0.0
O27 O 0.79296 0.64692 0.19084 0.0
O28 O 0.83911 0.60625 0.21772 0.0
Zn29 Zn 0.8503 0.64142 0.19787 0.0
O30 O 0.84904 0.63966 0.14764 0.0
C31 C 0.90441 0.62901 0.20694 0.0
O32 O 0.89596 0.60796 0.19052 0.0
O33 O 0.82573 0.67025 0.21426 0.0
C34 C 0.86655 0.65099 0.1297 0.0
O35 O 0.88565 0.66468 0.14415 0.0
C36 C 0.83411 0.58562 0.20037 0.0
O37 O 0.83474 0.58728 0.16772 0.0
O38 O 0.88802 0.64772 0.21318 0.0
C39 C 0.32634 0.80206 0.208 0.0
O40 O 0.34806 0.79382 0.19281 0.0
O41 O 0.3857 0.84156 0.20774 0.0
Zn42 Zn 0.34935 0.8514 0.19039 0.0
O43 O 0.34884 0.84649 0.14058 0.0
C44 C 0.34957 0.89822 0.23095 0.0
O45 O 0.36063 0.88139 0.25188 0.0
O46 O 0.32211 0.82697 0.21058 0.0
C47 C 0.35131 0.86584 0.12041 0.0
O48 O 0.35418 0.89012 0.13223 0.0
C49 C 0.40604 0.85389 0.19695 0.0
O50 O 0.40287 0.87239 0.17414 0.0
O51 O 0.34198 0.88974 0.20265 0.0
C52 C 0.19513 0.66699 0.29596 0.0
O53 O 0.20343 0.64718 0.31469 0.0
O54 O 0.15836 0.60423 0.29134 0.0
Zn55 Zn 0.14629 0.64048 0.30752 0.0
O56 O 0.14822 0.64197 0.35769 0.0
C57 C 0.09214 0.62708 0.29664 0.0
O58 O 0.10034 0.60567 0.31247 0.0
O59 O 0.1705 0.66857 0.28885 0.0
C60 C 0.12922 0.64973 0.3763 0.0
O61 O 0.10685 0.6579 0.36271 0.0
C62 C 0.16083 0.58452 0.31101 0.0
O63 O 0.15644 0.58803 0.34299 0.0
O64 O 0.10854 0.64595 0.29162 0.0
C65 C 0.32413 0.19844 0.27619 0.0
O66 O 0.34495 0.20708 0.29286 0.0
O67 O 0.38547 0.16086 0.27333 0.0
Zn68 Zn 0.34953 0.14964 0.29124 0.0
O69 O 0.34828 0.15335 0.34132 0.0
C70 C 0.36296 0.09557 0.27528 0.0
O71 O 0.38707 0.10535 0.27885 0.0
O72 O 0.32136 0.17349 0.27173 0.0
C73 C 0.36327 0.13954 0.36012 0.0
O74 O 0.38012 0.12262 0.34662 0.0
C75 C 0.40281 0.1736 0.29006 0.0
O76 O 0.3973 0.18099 0.32072 0.0
O77 O 0.343 0.111 0.27882 0.0
C78 C 0.80527 0.31292 0.30106 0.0
O79 O 0.80076 0.32231 0.33114 0.0
O80 O 0.83915 0.38411 0.29255 0.0
Zn81 Zn 0.85122 0.34714 0.30523 0.0
O82 O 0.85214 0.34342 0.35531 0.0
C83 C 0.89393 0.3502 0.25785 0.0
O84 O 0.87576 0.36324 0.24081 0.0
O85 O 0.82584 0.32058 0.2853 0.0
C86 C 0.87339 0.34784 0.37166 0.0
O87 O 0.89514 0.35465 0.35556 0.0
C88 C 0.85148 0.40447 0.3034 0.0
O89 O 0.87161 0.4011 0.32387 0.0
O90 O 0.8879 0.34094 0.28632 0.0
C91 C 0.66672 0.80118 0.29431 0.0
O92 O 0.64465 0.79273 0.30841 0.0
O93 O 0.60702 0.8421 0.28897 0.0
Zn94 Zn 0.64261 0.85106 0.30945 0.0
O95 O 0.64084 0.84816 0.3596 0.0
C96 C 0.63425 0.90667 0.30602 0.0
O97 O 0.61356 0.89938 0.32389 0.0
O98 O 0.67062 0.82612 0.29173 0.0
C99 C 0.65347 0.86432 0.37822 0.0
O100 O 0.66859 0.88266 0.36455 0.0
C101 C 0.58586 0.83957 0.30611 0.0
O102 O 0.58719 0.84152 0.33871 0.0
O103 O 0.65075 0.88896 0.29648 0.0
C104 C 0.81829 0.68895 0.80269 0.0
O105 O 0.8383 0.69727 0.82106 0.0
O106 O 0.88072 0.65214 0.79309 0.0
Zn107 Zn 0.84553 0.63993 0.81218 0.0
O108 O 0.84588 0.64088 0.86245 0.0
C109 C 0.8594 0.58762 0.79067 0.0
O110 O 0.8832 0.59719 0.79713 0.0
O111 O 0.81672 0.66432 0.79544 0.0
C112 C 0.86466 0.63075 0.87953 0.0
O113 O 0.88461 0.61903 0.86414 0.0
C114 C 0.89832 0.66618 0.80761 0.0
O115 O 0.89384 0.67517 0.83787 0.0
O116 O 0.83912 0.60231 0.79578 0.0
C117 C 0.29324 0.82157 0.79384 0.0
O118 O 0.28519 0.84248 0.8109 0.0
O119 O 0.33072 0.88337 0.78275 0.0
Zn120 Zn 0.34217 0.84835 0.80286 0.0
O121 O 0.34039 0.85097 0.85281 0.0
C122 C 0.39735 0.85774 0.80069 0.0
O123 O 0.38942 0.8765 0.82137 0.0
O124 O 0.31786 0.81924 0.78697 0.0
C125 C 0.35208 0.83449 0.87185 0.0
O126 O 0.36552 0.81458 0.85867 0.0
C127 C 0.32011 0.90191 0.7999 0.0
O128 O 0.31557 0.89803 0.83176 0.0
O129 O 0.38013 0.84174 0.78886 0.0
C130 C 0.17925 0.29838 0.78879 0.0
O131 O 0.17107 0.295 0.8196 0.0
O132 O 0.10791 0.33423 0.78269 0.0
Zn133 Zn 0.14568 0.34482 0.79335 0.0
O134 O 0.1502 0.34566 0.84332 0.0
C135 C 0.14543 0.38827 0.74585 0.0
O136 O 0.13528 0.37013 0.72589 0.0
O137 O 0.17107 0.31851 0.77251 0.0
C138 C 0.14753 0.36736 0.85945 0.0
O139 O 0.14202 0.38938 0.84317 0.0
C140 C 0.0896 0.35153 0.78628 0.0
O141 O 0.0959 0.37542 0.79722 0.0
O142 O 0.15222 0.38164 0.77518 0.0
C143 C 0.69326 0.16242 0.78771 0.0
O144 O 0.70196 0.13926 0.79848 0.0
O145 O 0.65616 0.10296 0.79009 0.0
Zn146 Zn 0.64297 0.13932 0.805 0.0
O147 O 0.64092 0.1419 0.85522 0.0
C148 C 0.59141 0.12669 0.77747 0.0
O149 O 0.59982 0.10222 0.78252 0.0
O150 O 0.66838 0.16719 0.78822 0.0
C151 C 0.62084 0.13324 0.87123 0.0
O152 O 0.60107 0.12223 0.8548 0.0
C153 C 0.65492 0.08223 0.80821 0.0
O154 O 0.64546 0.08418 0.83863 0.0
O155 O 0.60651 0.14611 0.78516 0.0
C156 C 0.8223 0.29787 0.69591 0.0
O157 O 0.83857 0.29122 0.67161 0.0
O158 O 0.8859 0.34119 0.71151 0.0
Zn159 Zn 0.85014 0.34744 0.68997 0.0
O160 O 0.85201 0.34457 0.63964 0.0
C161 C 0.85438 0.40338 0.69107 0.0
O162 O 0.87391 0.39698 0.67074 0.0
O163 O 0.8234 0.32132 0.70791 0.0
C164 C 0.87371 0.34503 0.62323 0.0
O165 O 0.89641 0.34747 0.6392 0.0
C166 C 0.9017 0.32165 0.70713 0.0
O167 O 0.89508 0.30234 0.68658 0.0
O168 O 0.83972 0.38493 0.70263 0.0
C169 C 0.68734 0.82244 0.71009 0.0
O170 O 0.69637 0.8437 0.69469 0.0
O171 O 0.65235 0.88393 0.71413 0.0
Zn172 Zn 0.63897 0.84882 0.69566 0.0
O173 O 0.64071 0.84783 0.64541 0.0
C174 C 0.5867 0.86433 0.71654 0.0
O175 O 0.59714 0.88801 0.7117 0.0
O176 O 0.66233 0.81968 0.71371 0.0
C177 C 0.62716 0.8635 0.62719 0.0
O178 O 0.61136 0.88112 0.64131 0.0
C179 C 0.66193 0.90311 0.69728 0.0
O180 O 0.66477 0.90056 0.6649 0.0
O181 O 0.60089 0.84373 0.71106 0.0
C182 C 0.15851 0.68863 0.70897 0.0
O183 O 0.13736 0.69727 0.69296 0.0
O184 O 0.09777 0.64857 0.71647 0.0
Zn185 Zn 0.13303 0.63961 0.69498 0.0
O186 O 0.13084 0.64482 0.64535 0.0
C187 C 0.12551 0.58366 0.69347 0.0
O188 O 0.1043 0.59149 0.67694 0.0
O189 O 0.1614 0.66371 0.71334 0.0
C190 C 0.14631 0.6321 0.6259 0.0
O191 O 0.16393 0.61559 0.63858 0.0
C192 C 0.07953 0.66129 0.70129 0.0
O193 O 0.08369 0.66925 0.67056 0.0
O194 O 0.1416 0.60115 0.70445 0.0
C195 C 0.30332 0.16382 0.68364 0.0
O196 O 0.29602 0.15037 0.65704 0.0
O197 O 0.33887 0.0944 0.69048 0.0
Zn198 Zn 0.35074 0.13132 0.67786 0.0
O199 O 0.35253 0.13295 0.62781 0.0
C200 C 0.40575 0.15049 0.6861 0.0
O201 O 0.40104 0.1654 0.65989 0.0
O202 O 0.32591 0.1591 0.69667 0.0
C203 C 0.35098 0.15414 0.61059 0.0
O204 O 0.34802 0.17721 0.62574 0.0
C205 C 0.3201 0.08855 0.71044 0.0
O206 O 0.3059 0.10773 0.72401 0.0
O207 O 0.38739 0.13561 0.69744 0.0
H208 H 0.32658 0.25276 0.27766 0.0
H209 H 0.27678 0.18742 0.24512 0.0
H210 H 0.29392 0.28446 0.25653 0.0
H211 H 0.24418 0.21928 0.22365 0.0
H212 H 0.17992 0.28551 0.22425 0.0
H213 H 0.21226 0.25318 0.24511 0.0
H214 H 0.27624 0.29946 0.20235 0.0
H215 H 0.24403 0.3319 0.18179 0.0
C216 C 0.30869 0.24515 0.26593 0.0
C217 C 0.30429 0.21756 0.26306 0.0
C218 C 0.29005 0.26333 0.25366 0.0
C219 C 0.26651 0.25437 0.23838 0.0
C220 C 0.26203 0.22678 0.2356 0.0
C221 C 0.28077 0.20855 0.24772 0.0
C222 C 0.20088 0.28879 0.2193 0.0
C223 C 0.20941 0.31131 0.20142 0.0
C224 C 0.21938 0.27019 0.23109 0.0
C225 C 0.24678 0.2738 0.22539 0.0
C226 C 0.25528 0.29629 0.20747 0.0
C227 C 0.23679 0.31481 0.19555 0.0
H228 H 0.80606 0.29374 0.23724 0.0
H229 H 0.76168 0.28949 0.32945 0.0
H230 H 0.77456 0.26307 0.21128 0.0
H231 H 0.73009 0.25898 0.30332 0.0
H232 H 0.69679 0.18283 0.25518 0.0
H233 H 0.7291 0.21275 0.28091 0.0
H234 H 0.72702 0.26306 0.1937 0.0
H235 H 0.69484 0.23305 0.16776 0.0
C236 C 0.7896 0.28627 0.25199 0.0
C237 C 0.78637 0.29406 0.28543 0.0
C238 C 0.77149 0.26882 0.23703 0.0
C239 C 0.74986 0.25866 0.25526 0.0
C240 C 0.74673 0.26629 0.28875 0.0
C241 C 0.76475 0.28387 0.30366 0.0
C242 C 0.70326 0.20023 0.24143 0.0
C243 C 0.69323 0.20557 0.20942 0.0
C244 C 0.72165 0.21744 0.25627 0.0
C245 C 0.73054 0.24026 0.23934 0.0
C246 C 0.72071 0.24548 0.20721 0.0
C247 C 0.70218 0.22836 0.19244 0.0
H248 H 0.74702 0.66747 0.19975 0.0
H249 H 0.81101 0.71348 0.24324 0.0
H250 H 0.71481 0.70003 0.22013 0.0
H251 H 0.77867 0.74585 0.26409 0.0
H252 H 0.71493 0.8119 0.26531 0.0
H253 H 0.74746 0.77998 0.24384 0.0
H254 H 0.69624 0.71498 0.27337 0.0
H255 H 0.66355 0.74682 0.29436 0.0
C256 C 0.75423 0.6845 0.2137 0.0
C257 C 0.78159 0.68785 0.21991 0.0
C258 C 0.73574 0.70309 0.22554 0.0
C259 C 0.74417 0.72547 0.24383 0.0
C260 C 0.77156 0.72896 0.24979 0.0
C261 C 0.79007 0.71033 0.238 0.0
C262 C 0.7106 0.7908 0.26721 0.0
C263 C 0.68662 0.7819 0.28151 0.0
C264 C 0.72931 0.77251 0.25506 0.0
C265 C 0.72441 0.74496 0.25687 0.0
C266 C 0.70045 0.73609 0.27121 0.0
C267 C 0.68178 0.75435 0.28342 0.0
H268 H 0.33093 0.74784 0.2089 0.0
H269 H 0.27808 0.81211 0.2374 0.0
H270 H 0.29903 0.71553 0.23026 0.0
H271 H 0.24628 0.77968 0.25917 0.0
H272 H 0.18434 0.71166 0.2592 0.0
H273 H 0.21602 0.74453 0.2383 0.0
H274 H 0.28063 0.70087 0.28394 0.0
H275 H 0.24909 0.66785 0.30449 0.0
C276 C 0.31255 0.75509 0.21983 0.0
C277 C 0.30705 0.78256 0.22145 0.0
C278 C 0.29433 0.73656 0.23223 0.0
C279 C 0.27016 0.74506 0.24644 0.0
C280 C 0.26462 0.77252 0.24805 0.0
C281 C 0.28291 0.79109 0.23575 0.0
C282 C 0.2053 0.70907 0.26477 0.0
C283 C 0.2142 0.6871 0.28344 0.0
C284 C 0.22342 0.72799 0.25297 0.0
C285 C 0.25082 0.72527 0.25945 0.0
C286 C 0.25968 0.70334 0.27819 0.0
C287 C 0.24158 0.68449 0.2901 0.0
H288 H 0.74166 0.8246 0.71029 0.0
H289 H 0.67552 0.77494 0.74028 0.0
H290 H 0.77274 0.79198 0.7329 0.0
H291 H 0.70675 0.74239 0.76324 0.0
H292 H 0.77333 0.6783 0.76636 0.0
H293 H 0.74131 0.71031 0.74399 0.0
H294 H 0.78607 0.77491 0.78803 0.0
H295 H 0.8182 0.74305 0.81008 0.0
C296 C 0.73373 0.80673 0.72172 0.0
C297 C 0.70611 0.80238 0.72352 0.0
C298 C 0.75156 0.78812 0.73486 0.0
C299 C 0.74218 0.76468 0.74997 0.0
C300 C 0.71456 0.76018 0.7515 0.0
C301 C 0.69669 0.77888 0.73849 0.0
C302 C 0.77631 0.69933 0.77132 0.0
C303 C 0.79836 0.70814 0.78991 0.0
C304 C 0.75789 0.71763 0.75865 0.0
C305 C 0.76124 0.74512 0.76416 0.0
C306 C 0.78315 0.75388 0.78299 0.0
C307 C 0.80148 0.7356 0.79578 0.0
H308 H 0.20583 0.67751 0.74 0.0
H309 H 0.1565 0.74297 0.70667 0.0
H310 H 0.23861 0.70926 0.7612 0.0
H311 H 0.18936 0.77457 0.72748 0.0
H312 H 0.2392 0.82258 0.80131 0.0
H313 H 0.20693 0.78998 0.78142 0.0
H314 H 0.27082 0.74259 0.73988 0.0
H315 H 0.30324 0.77507 0.76015 0.0
C316 C 0.202 0.69865 0.73714 0.0
C317 C 0.17853 0.70772 0.72171 0.0
C318 C 0.22084 0.71681 0.74912 0.0
C319 C 0.21652 0.7444 0.74607 0.0
C320 C 0.19308 0.75344 0.7306 0.0
C321 C 0.17432 0.73531 0.71851 0.0
C322 C 0.24641 0.80519 0.78802 0.0
C323 C 0.27379 0.80145 0.78224 0.0
C324 C 0.22789 0.78659 0.77646 0.0
C325 C 0.23633 0.76379 0.75897 0.0
C326 C 0.26374 0.75985 0.75354 0.0
C327 C 0.28228 0.77853 0.76499 0.0
H328 H 0.20425 0.25623 0.81844 0.0
H329 H 0.19567 0.29636 0.72379 0.0
H330 H 0.23424 0.22388 0.79268 0.0
H331 H 0.22582 0.26404 0.69815 0.0
H332 H 0.25629 0.18278 0.65863 0.0
H333 H 0.22634 0.21548 0.68394 0.0
H334 H 0.27972 0.22302 0.76781 0.0
H335 H 0.3096 0.19026 0.7427 0.0
C336 C 0.20878 0.25819 0.79216 0.0
C337 C 0.19758 0.27888 0.77317 0.0
C338 C 0.22607 0.23973 0.77747 0.0
C339 C 0.23238 0.24145 0.74342 0.0
C340 C 0.22112 0.26207 0.72438 0.0
C341 C 0.20397 0.28066 0.73913 0.0
C342 C 0.26165 0.19142 0.68245 0.0
C343 C 0.28531 0.1839 0.69867 0.0
C344 C 0.24456 0.21025 0.69684 0.0
C345 C 0.25068 0.22177 0.72786 0.0
C346 C 0.27435 0.21426 0.74405 0.0
C347 C 0.29152 0.19561 0.72956 0.0
H348 H 0.68241 0.21352 0.76814 0.0
H349 H 0.74685 0.15674 0.77782 0.0
H350 H 0.71353 0.24635 0.74592 0.0
H351 H 0.77793 0.18968 0.75587 0.0
H352 H 0.81812 0.24509 0.67985 0.0
H353 H 0.78681 0.21255 0.70222 0.0
H354 H 0.7521 0.27346 0.76498 0.0
H355 H 0.78325 0.30614 0.74243 0.0
C356 C 0.70321 0.20806 0.76561 0.0
C357 C 0.71215 0.1825 0.77471 0.0
C358 C 0.72104 0.22692 0.75305 0.0
C359 C 0.74815 0.22057 0.74913 0.0
C360 C 0.7571 0.19504 0.75827 0.0
C361 C 0.7393 0.17624 0.77102 0.0
C362 C 0.80379 0.25158 0.69838 0.0
C363 C 0.80317 0.2782 0.70936 0.0
C364 C 0.78597 0.23289 0.71133 0.0
C365 C 0.76704 0.24046 0.73539 0.0
C366 C 0.7663 0.26711 0.74623 0.0
C367 C 0.78424 0.28578 0.73343 0.0
H368 H 0.14375 0.41048 0.9008 0.0
H369 H 0.15681 0.32524 0.90121 0.0
H370 H 0.14645 0.41118 0.96138 0.0
H371 H 0.15991 0.32606 0.9619 0.0
H372 H 0.13089 0.33507 0.07051 0.0
H373 H 0.1303 0.33366 0.0098 0.0
H374 H 0.17867 0.40483 0.00656 0.0
H375 H 0.17896 0.40651 0.06729 0.0
C376 C 0.14735 0.3919 0.91379 0.0
C377 C 0.14999 0.36779 0.89618 0.0
C378 C 0.14906 0.39235 0.94851 0.0
C379 C 0.1534 0.36868 0.96643 0.0
C380 C 0.15625 0.34458 0.94881 0.0
C381 C 0.15461 0.34414 0.91404 0.0
C382 C 0.14147 0.35039 0.05687 0.0
C383 C 0.1549 0.37096 0.07374 0.0
C384 C 0.14126 0.34947 0.02208 0.0
C385 C 0.15442 0.36914 0.00339 0.0
C386 C 0.16807 0.38957 0.02027 0.0
C387 C 0.16834 0.39045 0.05507 0.0
H388 H 0.58781 0.10625 0.91324 0.0
H389 H 0.65246 0.16305 0.91236 0.0
H390 H 0.58739 0.10726 0.97381 0.0
H391 H 0.6513 0.16506 0.97302 0.0
H392 H 0.66136 0.14085 0.08177 0.0
H393 H 0.66189 0.1404 0.02111 0.0
H394 H 0.57597 0.13351 0.02021 0.0
H395 H 0.57566 0.13274 0.08085 0.0
C396 C 0.60175 0.1192 0.92601 0.0
C397 C 0.6202 0.13453 0.90803 0.0
C398 C 0.6014 0.11992 0.9608 0.0
C399 C 0.61927 0.1363 0.97848 0.0
C400 C 0.63755 0.15186 0.96036 0.0
C401 C 0.63812 0.15085 0.92555 0.0
C402 C 0.64259 0.13926 0.06858 0.0
C403 C 0.61848 0.13669 0.08608 0.0
C404 C 0.64286 0.13918 0.03375 0.0
C405 C 0.61897 0.13688 0.0156 0.0
C406 C 0.59481 0.13477 0.03325 0.0
C407 C 0.5946 0.13449 0.06806 0.0
H408 H 0.8241 0.64827 0.91956 0.0
H409 H 0.90501 0.61866 0.92264 0.0
H410 H 0.82436 0.6531 0.98011 0.0
H411 H 0.90517 0.62346 0.98317 0.0
H412 H 0.9046 0.66629 0.08498 0.0
H413 H 0.90386 0.66103 0.02454 0.0
H414 H 0.82641 0.62391 0.03092 0.0
H415 H 0.82705 0.62919 0.09143 0.0
C416 C 0.84191 0.64273 0.93314 0.0
C417 C 0.86455 0.6331 0.91629 0.0
C418 C 0.842 0.64538 0.96782 0.0
C419 C 0.8648 0.6387 0.98632 0.0
C420 C 0.88741 0.62901 0.9695 0.0
C421 C 0.88724 0.62613 0.93486 0.0
C422 C 0.88738 0.65706 0.07352 0.0
C423 C 0.86588 0.64818 0.09301 0.0
C424 C 0.88704 0.65391 0.03892 0.0
C425 C 0.8651 0.64202 0.02305 0.0
C426 C 0.84349 0.63334 0.04247 0.0
C427 C 0.84392 0.63627 0.07712 0.0
H428 H 0.35642 0.90254 0.07055 0.0
H429 H 0.34593 0.81814 0.08792 0.0
H430 H 0.35653 0.89451 0.01064 0.0
H431 H 0.34556 0.81021 0.02797 0.0
H432 H 0.37586 0.80399 0.91993 0.0
H433 H 0.37565 0.81147 0.98003 0.0
H434 H 0.32601 0.88108 0.96648 0.0
H435 H 0.32658 0.87393 0.90646 0.0
C436 C 0.35403 0.88229 0.06161 0.0
C437 C 0.35116 0.86099 0.08402 0.0
C438 C 0.35395 0.87771 0.02726 0.0
C439 C 0.351 0.85172 0.01455 0.0
C440 C 0.34817 0.83042 0.03697 0.0
C441 C 0.34824 0.835 0.07133 0.0
C442 C 0.36486 0.82085 0.92978 0.0
C443 C 0.3513 0.83839 0.90839 0.0
C444 C 0.36463 0.82506 0.96423 0.0
C445 C 0.35087 0.84691 0.97802 0.0
C446 C 0.33712 0.86429 0.95662 0.0
C447 C 0.33732 0.86008 0.92221 0.0
H448 H 0.17104 0.60296 0.57736 0.0
H449 H 0.11671 0.66892 0.59194 0.0
H450 H 0.16684 0.60788 0.51727 0.0
H451 H 0.11319 0.67444 0.53178 0.0
H452 H 0.09047 0.65719 0.42333 0.0
H453 H 0.09477 0.65328 0.48359 0.0
H454 H 0.17885 0.63654 0.47239 0.0
H455 H 0.17434 0.63957 0.41213 0.0
C456 C 0.15837 0.61867 0.56773 0.0
C457 C 0.14419 0.63553 0.58941 0.0
C458 C 0.15609 0.62161 0.53325 0.0
C459 C 0.13972 0.6416 0.51963 0.0
C460 C 0.12567 0.65858 0.54138 0.0
C461 C 0.12781 0.65552 0.57588 0.0
C462 C 0.10989 0.65276 0.43375 0.0
C463 C 0.13204 0.64859 0.41294 0.0
C464 C 0.11239 0.65065 0.46833 0.0
C465 C 0.13715 0.64453 0.48289 0.0
C466 C 0.15939 0.64081 0.46202 0.0
C467 C 0.15684 0.64272 0.42746 0.0
H468 H 0.35662 0.1095 0.57222 0.0
H469 H 0.34926 0.19525 0.56573 0.0
H470 H 0.35955 0.10667 0.51184 0.0
H471 H 0.35273 0.1924 0.50511 0.0
H472 H 0.3305 0.17239 0.39624 0.0
H473 H 0.32757 0.1764 0.45674 0.0
H474 H 0.39029 0.11789 0.46728 0.0
H475 H 0.39288 0.11349 0.40694 0.0
C476 C 0.35573 0.12779 0.55793 0.0
C477 C 0.35273 0.15262 0.57382 0.0
C478 C 0.35758 0.12616 0.52329 0.0
C479 C 0.3565 0.14932 0.50367 0.0
C480 C 0.35337 0.17417 0.51952 0.0
C481 C 0.35152 0.17581 0.55425 0.0
C482 C 0.34368 0.1604 0.41147 0.0
C483 C 0.36184 0.14252 0.39677 0.0
C484 C 0.34211 0.16282 0.44614 0.0
C485 C 0.35864 0.1474 0.46682 0.0
C486 C 0.37699 0.12976 0.45206 0.0
C487 C 0.37857 0.12734 0.41744 0.0
H488 H 0.91181 0.3655 0.41432 0.0
H489 H 0.83515 0.3264 0.41214 0.0
H490 H 0.91155 0.36406 0.47487 0.0
H491 H 0.83532 0.32394 0.4728 0.0
H492 H 0.83093 0.35096 0.58171 0.0
H493 H 0.83088 0.35096 0.52101 0.0
H494 H 0.91563 0.33515 0.52094 0.0
H495 H 0.91579 0.33625 0.58156 0.0
C496 C 0.89502 0.35632 0.42678 0.0
C497 C 0.87348 0.34611 0.40844 0.0
C498 C 0.89493 0.35533 0.46156 0.0
C499 C 0.87344 0.34382 0.47885 0.0
C500 C 0.85201 0.33334 0.4604 0.0
C501 C 0.85197 0.33459 0.4256 0.0
C502 C 0.84953 0.34742 0.5687 0.0
C503 C 0.87339 0.34376 0.58642 0.0
C504 C 0.84949 0.34725 0.53386 0.0
C505 C 0.87328 0.34314 0.51595 0.0
C506 C 0.89703 0.33892 0.53382 0.0
C507 C 0.89711 0.33939 0.56862 0.0
H508 H 0.64933 0.82401 0.58915 0.0
H509 H 0.61229 0.90169 0.58253 0.0
H510 H 0.65562 0.82366 0.5287 0.0
H511 H 0.61886 0.90136 0.5222 0.0
H512 H 0.66689 0.9027 0.42341 0.0
H513 H 0.66001 0.902 0.48364 0.0
H514 H 0.62563 0.82334 0.47608 0.0
H515 H 0.63223 0.82405 0.41566 0.0
C516 C 0.64251 0.84097 0.5748 0.0
C517 C 0.63033 0.86289 0.59058 0.0
C518 C 0.64601 0.8407 0.54024 0.0
C519 C 0.63779 0.86252 0.52089 0.0
C520 C 0.62557 0.88439 0.53662 0.0
C521 C 0.62169 0.88449 0.5711 0.0
C522 C 0.65795 0.88521 0.43457 0.0
C523 C 0.6501 0.86343 0.4148 0.0
C524 C 0.65387 0.8849 0.469 0.0
C525 C 0.64223 0.86266 0.48441 0.0
C526 C 0.63477 0.84068 0.46478 0.0
C527 C 0.63847 0.84114 0.43024 0.0
H528 H 0.17173 0.57021 0.24656 0.0
H529 H 0.16087 0.53748 0.34519 0.0
H530 H 0.17589 0.52524 0.22392 0.0
H531 H 0.16424 0.49261 0.32247 0.0
H532 H 0.18855 0.41431 0.27618 0.0
H533 H 0.19271 0.45983 0.29709 0.0
H534 H 0.14648 0.48848 0.21362 0.0
H535 H 0.14301 0.44323 0.19227 0.0
C536 C 0.17037 0.55343 0.26344 0.0
C537 C 0.16577 0.55743 0.29764 0.0
C538 C 0.1726 0.52764 0.25043 0.0
C539 C 0.17017 0.50527 0.27131 0.0
C540 C 0.16651 0.50935 0.3057 0.0
C541 C 0.16441 0.53512 0.31872 0.0
C542 C 0.17948 0.43037 0.26215 0.0
C543 C 0.16531 0.42511 0.23267 0.0
C544 C 0.18176 0.45645 0.27422 0.0
C545 C 0.16982 0.47783 0.25715 0.0
C546 C 0.15625 0.47259 0.22719 0.0
C547 C 0.15409 0.44657 0.21505 0.0
H548 H 0.54629 0.19879 0.16952 0.0
H549 H 0.56973 0.15388 0.25656 0.0
H550 H 0.50123 0.20334 0.1923 0.0
H551 H 0.52489 0.15851 0.27919 0.0
H552 H 0.44761 0.19016 0.32279 0.0
H553 H 0.49279 0.19347 0.30049 0.0
H554 H 0.46398 0.17022 0.20333 0.0
H555 H 0.41882 0.16686 0.2255 0.0
C556 C 0.54192 0.19016 0.19364 0.0
C557 C 0.5615 0.17586 0.21117 0.0
C558 C 0.51613 0.19267 0.20658 0.0
C559 C 0.5096 0.18127 0.23748 0.0
C560 C 0.52943 0.16774 0.25547 0.0
C561 C 0.55506 0.16494 0.24238 0.0
C562 C 0.45084 0.18606 0.29659 0.0
C563 C 0.42967 0.17806 0.27596 0.0
C564 C 0.47672 0.18786 0.28388 0.0
C565 C 0.48188 0.18201 0.25023 0.0
C566 C 0.46055 0.17506 0.2293 0.0
C567 C 0.43472 0.17298 0.24207 0.0
H568 H 0.82828 0.53678 0.17084 0.0
H569 H 0.8332 0.57512 0.26721 0.0
H570 H 0.82889 0.49329 0.19777 0.0
H571 H 0.83328 0.5316 0.29414 0.0
H572 H 0.87404 0.45178 0.32162 0.0
H573 H 0.86572 0.49568 0.29812 0.0
H574 H 0.80505 0.46235 0.23406 0.0
H575 H 0.81372 0.41818 0.25719 0.0
C576 C 0.82903 0.53595 0.19779 0.0
C577 C 0.83099 0.55942 0.21684 0.0
C578 C 0.82923 0.511 0.21325 0.0
C579 C 0.83137 0.50898 0.2481 0.0
C580 C 0.83208 0.53248 0.26721 0.0
C581 C 0.83189 0.55743 0.25177 0.0
C582 C 0.85875 0.4538 0.30273 0.0
C583 C 0.84468 0.43144 0.29112 0.0
C584 C 0.85385 0.47904 0.28941 0.0
C585 C 0.83475 0.48251 0.26416 0.0
C586 C 0.82012 0.46027 0.25321 0.0
C587 C 0.825 0.435 0.26659 0.0
H588 H 0.57589 0.83753 0.23913 0.0
H589 H 0.5366 0.83662 0.33502 0.0
H590 H 0.53264 0.83785 0.21149 0.0
H591 H 0.4934 0.83741 0.30734 0.0
H592 H 0.4192 0.81896 0.24668 0.0
H593 H 0.46292 0.81201 0.27188 0.0
H594 H 0.49677 0.87031 0.20501 0.0
H595 H 0.45328 0.87693 0.17948 0.0
C596 C 0.55805 0.83721 0.25433 0.0
C597 C 0.5597 0.83724 0.28931 0.0
C598 C 0.53326 0.83754 0.23847 0.0
C599 C 0.50959 0.83787 0.25721 0.0
C600 C 0.51125 0.83693 0.29217 0.0
C601 C 0.53604 0.83662 0.30804 0.0
C602 C 0.43602 0.83014 0.23719 0.0
C603 C 0.43274 0.84858 0.21115 0.0
C604 C 0.46104 0.82624 0.25174 0.0
C605 C 0.48331 0.84064 0.2405 0.0
C606 C 0.4801 0.85864 0.21398 0.0
C607 C 0.45511 0.86257 0.19948 0.0
H608 H 0.89935 0.55352 0.77362 0.0
H609 H 0.81346 0.56056 0.7749 0.0
H610 H 0.89568 0.50971 0.74821 0.0
H611 H 0.80985 0.51642 0.74898 0.0
H612 H 0.81992 0.42311 0.7383 0.0
H613 H 0.8193 0.46817 0.76183 0.0
H614 H 0.88181 0.49148 0.69385 0.0
H615 H 0.88269 0.44665 0.67067 0.0
C616 C 0.87964 0.54573 0.76848 0.0
C617 C 0.85669 0.5606 0.77619 0.0
C618 C 0.87756 0.52066 0.75368 0.0
C619 C 0.85248 0.50975 0.74625 0.0
C620 C 0.82944 0.52433 0.75449 0.0
C621 C 0.83152 0.54959 0.76923 0.0
C622 C 0.8333 0.43796 0.72815 0.0
C623 C 0.85157 0.43122 0.70288 0.0
C624 C 0.83288 0.46376 0.74155 0.0
C625 C 0.85076 0.48322 0.72998 0.0
C626 C 0.86815 0.47675 0.70373 0.0
C627 C 0.86855 0.45107 0.69034 0.0
H628 H 0.55224 0.90474 0.73086 0.0
H629 H 0.55835 0.81873 0.72992 0.0
H630 H 0.50692 0.90153 0.75176 0.0
H631 H 0.51284 0.81557 0.75149 0.0
H632 H 0.42013 0.82402 0.75482 0.0
H633 H 0.46615 0.82442 0.73477 0.0
H634 H 0.48433 0.88865 0.80293 0.0
H635 H 0.43846 0.8886 0.8225 0.0
C636 C 0.54395 0.88511 0.73519 0.0
C637 C 0.55897 0.86199 0.72881 0.0
C638 C 0.51799 0.88329 0.7474 0.0
C639 C 0.50635 0.85831 0.75357 0.0
C640 C 0.52121 0.83511 0.7468 0.0
C641 C 0.5473 0.83693 0.7346 0.0
C642 C 0.43401 0.83811 0.76564 0.0
C643 C 0.42557 0.85644 0.79005 0.0
C644 C 0.4604 0.83825 0.75427 0.0
C645 C 0.47881 0.85674 0.76704 0.0
C646 C 0.4705 0.8745 0.79213 0.0
C647 C 0.44422 0.87436 0.80348 0.0
H648 H 0.16099 0.43103 0.78337 0.0
H649 H 0.13105 0.40982 0.68589 0.0
H650 H 0.15783 0.47805 0.76905 0.0
H651 H 0.12849 0.45695 0.67128 0.0
H652 H 0.09375 0.54184 0.67574 0.0
H653 H 0.10095 0.49466 0.6866 0.0
H654 H 0.17588 0.51306 0.73439 0.0
H655 H 0.16837 0.56044 0.7242 0.0
C656 C 0.15411 0.43638 0.75868 0.0
C657 C 0.14611 0.41666 0.73583 0.0
C658 C 0.15242 0.46338 0.75041 0.0
C659 C 0.14276 0.4713 0.71908 0.0
C660 C 0.1356 0.45153 0.69583 0.0
C661 C 0.13724 0.42451 0.70412 0.0
C662 C 0.11181 0.53585 0.68848 0.0
C663 C 0.13042 0.55492 0.69926 0.0
C664 C 0.11604 0.50874 0.69448 0.0
C665 C 0.13902 0.50005 0.71132 0.0
C666 C 0.15782 0.51912 0.72171 0.0
C667 C 0.15356 0.54626 0.71576 0.0
H668 H 0.4506 0.17765 0.66688 0.0
H669 H 0.42192 0.12065 0.73917 0.0
H670 H 0.49566 0.17303 0.68934 0.0
H671 H 0.46671 0.11635 0.7617 0.0
H672 H 0.55354 0.08952 0.76313 0.0
H673 H 0.5088 0.09688 0.74177 0.0
H674 H 0.52293 0.18182 0.74021 0.0
H675 H 0.56806 0.17447 0.76136 0.0
C676 C 0.45384 0.16435 0.68772 0.0
C677 C 0.4327 0.14938 0.70106 0.0
C678 C 0.47961 0.16179 0.70066 0.0
C679 C 0.48475 0.14414 0.72708 0.0
C680 C 0.46346 0.12976 0.74095 0.0
C681 C 0.43775 0.13236 0.72813 0.0
C682 C 0.54719 0.10979 0.75823 0.0
C683 C 0.56436 0.13142 0.76403 0.0
C684 C 0.52146 0.11401 0.74617 0.0
C685 C 0.51228 0.13994 0.73953 0.0
C686 C 0.52952 0.1616 0.74492 0.0
C687 C 0.5553 0.15739 0.75717 0.0
H688 H 0.64022 0.03367 0.83224 0.0
H689 H 0.68316 0.07099 0.75156 0.0
H690 H 0.64588 0.99047 0.80583 0.0
H691 H 0.69011 0.02746 0.72574 0.0
H692 H 0.66388 0.95225 0.66833 0.0
H693 H 0.66591 0.99532 0.6962 0.0
H694 H 0.67419 0.95552 0.79121 0.0
H695 H 0.67069 0.9125 0.76331 0.0
C696 C 0.65139 0.03255 0.80917 0.0
C697 C 0.66106 0.05575 0.79385 0.0
C698 C 0.65482 0.00769 0.79405 0.0
C699 C 0.66842 0.00532 0.76348 0.0
C700 C 0.67906 0.0285 0.7489 0.0
C701 C 0.67525 0.05346 0.76379 0.0
C702 C 0.66645 0.95274 0.69513 0.0
C703 C 0.66683 0.92904 0.71368 0.0
C704 C 0.66778 0.97747 0.71117 0.0
C705 C 0.66996 0.97905 0.74611 0.0
C706 C 0.67182 0.95518 0.76439 0.0
C707 C 0.67001 0.93048 0.7484 0.0
H708 H 0.91209 0.65444 0.74348 0.0
H709 H 0.94398 0.6863 0.83533 0.0
H710 H 0.95614 0.65665 0.71825 0.0
H711 H 0.98817 0.68869 0.80981 0.0
H712 H 0.0653 0.64998 0.76552 0.0
H713 H 0.02149 0.65493 0.79112 0.0
H714 H 0.99093 0.68826 0.69961 0.0
H715 H 0.03469 0.68312 0.67382 0.0
C716 C 0.92844 0.66222 0.75818 0.0
C717 C 0.92455 0.67006 0.79149 0.0
C718 C 0.95367 0.66363 0.74362 0.0
C719 C 0.97563 0.67277 0.76208 0.0
C720 C 0.97165 0.68131 0.7951 0.0
C721 C 0.94632 0.68009 0.80963 0.0
C722 C 0.0493 0.65855 0.75091 0.0
C723 C 0.05344 0.66596 0.71754 0.0
C724 C 0.02425 0.66156 0.76568 0.0
C725 C 0.00276 0.67192 0.74734 0.0
C726 C 0.00706 0.67996 0.71424 0.0
C727 C 0.03215 0.67709 0.69952 0.0
H728 H 0.28208 0.06824 0.75243 0.0
H729 H 0.34904 0.04518 0.69092 0.0
H730 H 0.2778 0.02225 0.77165 0.0
H731 H 0.34529 -0.00032 0.71076 0.0
H732 H 0.32348 0.91559 0.73412 0.0
H733 H 0.31917 0.95992 0.70995 0.0
H734 H 0.30204 0.99242 0.80749 0.0
H735 H 0.30551 0.948 0.83145 0.0
C736 C 0.29579 0.05337 0.74289 0.0
C737 C 0.31599 0.06042 0.7203 0.0
C738 C 0.29343 0.02704 0.75403 0.0
C739 C 0.31125 0.00726 0.74286 0.0
C740 C 0.33094 0.01425 0.71953 0.0
C741 C 0.33323 0.04046 0.70832 0.0
C742 C 0.31849 0.93216 0.75034 0.0
C743 C 0.3151 0.92832 0.78476 0.0
C744 C 0.31615 0.9576 0.73651 0.0
C745 C 0.31054 0.97981 0.75681 0.0
C746 C 0.3061 0.97576 0.79104 0.0
C747 C 0.30827 0.95028 0.80483 0.0
H748 H 0.06814 0.30288 0.77043 0.0
H749 H 0.04809 0.38629 0.78121 0.0
H750 H 0.02217 0.2932 0.75454 0.0
H751 H 0.00264 0.37688 0.76425 0.0
H752 H 0.91769 0.35172 0.75995 0.0
H753 H 0.96257 0.35669 0.78191 0.0
H754 H 0.99152 0.29949 0.70963 0.0
H755 H 0.94626 0.29376 0.68857 0.0
C756 C 0.05394 0.31915 0.76933 0.0
C757 C 0.06173 0.34534 0.77714 0.0
C758 C 0.02763 0.31363 0.76006 0.0
C759 C 0.00861 0.33423 0.75819 0.0
C760 C 0.01653 0.3604 0.76609 0.0
C761 C 0.0427 0.36585 0.7756 0.0
C762 C 0.93359 0.33999 0.74899 0.0
C763 C 0.92849 0.32251 0.72237 0.0
C764 C 0.95938 0.34297 0.76142 0.0
C765 C 0.9808 0.32883 0.74722 0.0
C766 C 0.9755 0.31056 0.72138 0.0
C767 C 0.94957 0.30733 0.70919 0.0
H768 H 0.317 0.0691 0.25837 0.0
H769 H 0.40089 0.05678 0.2775 0.0
H770 H 0.3116 0.02114 0.24861 0.0
H771 H 0.39543 0.00919 0.26783 0.0
H772 H 0.37075 0.92339 0.28509 0.0
H773 H 0.3722 0.97113 0.29631 0.0
H774 H 0.32742 0.98618 0.20644 0.0
H775 H 0.3259 0.93825 0.19505 0.0
C776 C 0.33425 0.0562 0.26048 0.0
C777 C 0.35936 0.06674 0.26873 0.0
C778 C 0.33117 0.02881 0.25478 0.0
C779 C 0.35306 0.01145 0.25769 0.0
C780 C 0.37812 0.02204 0.26587 0.0
C781 C 0.38126 0.04935 0.27118 0.0
C782 C 0.36098 0.9368 0.26784 0.0
C783 C 0.34835 0.92701 0.23906 0.0
C784 C 0.36194 0.96416 0.2742 0.0
C785 C 0.35011 0.98236 0.2521 0.0
C786 C 0.3366 0.97258 0.22397 0.0
C787 C 0.33584 0.94516 0.21741 0.0
H788 H 0.91437 0.37151 0.20075 0.0
H789 H 0.93551 0.32244 0.28515 0.0
H790 H 0.9599 0.36846 0.18016 0.0
H791 H 0.98097 0.31879 0.26404 0.0
H792 H 0.06575 0.34702 0.2372 0.0
H793 H 0.01994 0.34643 0.25729 0.0
H794 H 0.9917 0.33795 0.15611 0.0
H795 H 0.03748 0.33922 0.13593 0.0
C796 C 0.92867 0.35984 0.21474 0.0
C797 C 0.92132 0.34728 0.24463 0.0
C798 C 0.95476 0.35794 0.20282 0.0
C799 C 0.97412 0.34336 0.22043 0.0
C800 C 0.96665 0.33048 0.2501 0.0
C801 C 0.94056 0.33245 0.2621 0.0
C802 C 0.04978 0.34485 0.21924 0.0
C803 C 0.05527 0.34332 0.18494 0.0
C804 C 0.0235 0.34437 0.23079 0.0
C805 C 0.00211 0.34227 0.2083 0.0
C806 C 0.00767 0.34004 0.17406 0.0
C807 C 0.03394 0.34059 0.16251 0.0
H808 H 0.67271 0.92834 0.26583 0.0
H809 H 0.60406 0.94911 0.32567 0.0
H810 H 0.6777 0.97507 0.24985 0.0
H811 H 0.60887 0.99557 0.30939 0.0
H812 H 0.63865 0.08013 0.29847 0.0
H813 H 0.63873 0.03382 0.31681 0.0
H814 H 0.65331 0.00796 0.21568 0.0
H815 H 0.65361 0.0543 0.19733 0.0
C816 C 0.65874 0.94286 0.27563 0.0
C817 C 0.63795 0.935 0.29696 0.0
C818 C 0.66154 0.96959 0.26636 0.0
C819 C 0.6437 0.989 0.27838 0.0
C820 C 0.62316 0.98116 0.30006 0.0
C821 C 0.6203 0.95447 0.30921 0.0
C822 C 0.6421 0.0646 0.28017 0.0
C823 C 0.64595 0.0709 0.2464 0.0
C824 C 0.64201 0.03806 0.29067 0.0
C825 C 0.64584 0.01723 0.26766 0.0
C826 C 0.65052 0.02356 0.23406 0.0
C827 C 0.65054 0.05012 0.22353 0.0
H828 H 0.0539 0.58865 0.29996 0.0
H829 H 0.06764 0.66903 0.26524 0.0
H830 H 0.00871 0.59033 0.27814 0.0
H831 H 0.02226 0.67055 0.24304 0.0
H832 H 0.92922 0.66988 0.24025 0.0
H833 H 0.9747 0.67041 0.26223 0.0
H834 H 0.98787 0.59135 0.22252 0.0
H835 H 0.9426 0.59065 0.20092 0.0
C836 C 0.04729 0.60671 0.2877 0.0
C837 C 0.06442 0.62868 0.28422 0.0
C838 C 0.02142 0.6076 0.27502 0.0
C839 C 0.01201 0.63049 0.25865 0.0
C840 C 0.02893 0.65269 0.2557 0.0
C841 C 0.05493 0.65176 0.26827 0.0
C842 C 0.94188 0.65267 0.23613 0.0
C843 C 0.93224 0.63017 0.219 0.0
C844 C 0.96793 0.65303 0.24858 0.0
C845 C 0.98476 0.63084 0.24431 0.0
C846 C 0.97523 0.60858 0.22668 0.0
C847 C 0.94931 0.60826 0.21413 0.0
loop_
_geom_bond_atom_site_label_1
_geom_bond_atom_site_label_2
_geom_bond_distance
_geom_bond_site_symmetry_2
_ccdc_geom_bond_type
C0 O1 1.160 . S
C0 O7 1.185 . S
O1 C0 1.160 . S
O2 Zn3 1.899 . S
O2 C10 1.284 . S
Zn3 O2 1.899 . S
Zn3 O4 2.032 . S
Zn3 O7 2.086 . S
Zn3 O12 1.977 . S
O4 Zn3 2.032 . S
O4 C8 1.278 . S
C5 O6 1.203 . S
C5 O12 1.267 . S
O6 C5 1.203 . S
O7 C0 1.185 . S
O7 Zn3 2.086 . S
C8 O4 1.278 . S
C8 O9 1.211 . S
O9 C8 1.211 . S
C10 O2 1.284 . S
C10 O11 1.273 . S
O11 C10 1.273 . S
O12 Zn3 1.977 . S
O12 C5 1.267 . S
C13 O14 1.160 . S
C13 O20 1.185 . S
O14 C13 1.160 . S
O15 Zn16 1.899 . S
O15 C23 1.284 . S
Zn16 O15 1.899 . S
Zn16 O17 2.032 . S
Zn16 O20 2.086 . S
Zn16 O25 1.977 . S
O17 Zn16 2.032 . S
O17 C21 1.278 . S
C18 O19 1.203 . S
C18 O25 1.267 . S
O19 C18 1.203 . S
O20 C13 1.185 . S
O20 Zn16 2.086 . S
C21 O17 1.278 . S
C21 O22 1.211 . S
O22 C21 1.211 . S
C23 O15 1.284 . S
C23 O24 1.273 . S
O24 C23 1.273 . S
O25 Zn16 1.977 . S
O25 C18 1.267 . S
C26 O27 1.160 . S
C26 O33 1.185 . S
O27 C26 1.160 . S
O28 Zn29 1.899 . S
O28 C36 1.284 . S
Zn29 O28 1.899 . S
Zn29 O30 2.032 . S
Zn29 O33 2.086 . S
Zn29 O38 1.977 . S
O30 Zn29 2.032 . S
O30 C34 1.278 . S
C31 O32 1.203 . S
C31 O38 1.267 . S
O32 C31 1.203 . S
O33 C26 1.185 . S
O33 Zn29 2.086 . S
C34 O30 1.278 . S
C34 O35 1.211 . S
O35 C34 1.211 . S
C36 O28 1.284 . S
C36 O37 1.273 . S
O37 C36 1.273 . S
O38 Zn29 1.977 . S
O38 C31 1.267 . S
C39 O40 1.160 . S
C39 O46 1.185 . S
O40 C39 1.160 . S
O41 Zn42 1.899 . S
O41 C49 1.284 . S
Zn42 O41 1.899 . S
Zn42 O43 2.032 . S
Zn42 O46 2.086 . S
Zn42 O51 1.977 . S
O43 Zn42 2.032 . S
O43 C47 1.278 . S
C44 O45 1.203 . S
C44 O51 1.267 . S
O45 C44 1.203 . S
O46 C39 1.185 . S
O46 Zn42 2.086 . S
C47 O43 1.278 . S
C47 O48 1.211 . S
O48 C47 1.211 . S
C49 O41 1.284 . S
C49 O50 1.273 . S
O50 C49 1.273 . S
O51 Zn42 1.977 . S
O51 C44 1.267 . S
C52 O53 1.160 . S
C52 O59 1.185 . S
O53 C52 1.160 . S
O54 Zn55 1.899 . S
O54 C62 1.284 . S
Zn55 O54 1.899 . S
Zn55 O56 2.032 . S
Zn55 O59 2.086 . S
Zn55 O64 1.977 . S
O56 Zn55 2.032 . S
O56 C60 1.278 . S
C57 O58 1.203 . S
C57 O64 1.267 . S
O58 C57 1.203 . S
O59 C52 1.185 . S
O59 Zn55 2.086 . S
C60 O56 1.278 . S
C60 O61 1.211 . S
O61 C60 1.211 . S
C62 O54 1.284 . S
C62 O63 1.273 . S
O63 C62 1.273 . S
O64 Zn55 1.977 . S
O64 C57 1.267 . S
C65 O66 1.160 . S
C65 O72 1.185 . S
O66 C65 1.160 . S
O67 Zn68 1.899 . S
O67 C75 1.284 . S
Zn68 O67 1.899 . S
Zn68 O69 2.032 . S
Zn68 O72 2.086 . S
Zn68 O77 1.977 . S
O69 Zn68 2.032 . S
O69 C73 1.278 . S
C70 O71 1.203 . S
C70 O77 1.267 . S
O71 C70 1.203 . S
O72 C65 1.185 . S
O72 Zn68 2.086 . S
C73 O69 1.278 . S
C73 O74 1.211 . S
O74 C73 1.211 . S
C75 O67 1.284 . S
C75 O76 1.273 . S
O76 C75 1.273 . S
O77 Zn68 1.977 . S
O77 C70 1.267 . S
C78 O79 1.160 . S
C78 O85 1.185 . S
O79 C78 1.160 . S
O80 Zn81 1.899 . S
O80 C88 1.284 . S
Zn81 O80 1.899 . S
Zn81 O82 2.032 . S
Zn81 O85 2.086 . S
Zn81 O90 1.977 . S
O82 Zn81 2.032 . S
O82 C86 1.278 . S
C83 O84 1.203 . S
C83 O90 1.267 . S
O84 C83 1.203 . S
O85 C78 1.185 . S
O85 Zn81 2.086 . S
C86 O82 1.278 . S
C86 O87 1.211 . S
O87 C86 1.211 . S
C88 O80 1.284 . S
C88 O89 1.273 . S
O89 C88 1.273 . S
O90 Zn81 1.977 . S
O90 C83 1.267 . S
C91 O92 1.160 . S
C91 O98 1.185 . S
O92 C91 1.160 . S
O93 Zn94 1.899 . S
O93 C101 1.284 . S
Zn94 O93 1.899 . S
Zn94 O95 2.032 . S
Zn94 O98 2.086 . S
Zn94 O103 1.977 . S
O95 Zn94 2.032 . S
O95 C99 1.278 . S
C96 O97 1.203 . S
C96 O103 1.267 . S
O97 C96 1.203 . S
O98 C91 1.185 . S
O98 Zn94 2.086 . S
C99 O95 1.278 . S
C99 O100 1.211 . S
O100 C99 1.211 . S
C101 O93 1.284 . S
C101 O102 1.273 . S
O102 C101 1.273 . S
O103 Zn94 1.977 . S
O103 C96 1.267 . S
C104 O105 1.160 . S
C104 O111 1.185 . S
O105 C104 1.160 . S
O106 Zn107 1.899 . S
O106 C114 1.284 . S
Zn107 O106 1.899 . S
Zn107 O108 2.032 . S
Zn107 O111 2.086 . S
Zn107 O116 1.977 . S
O108 Zn107 2.032 . S
O108 C112 1.278 . S
C109 O110 1.203 . S
C109 O116 1.267 . S
O110 C109 1.203 . S
O111 C104 1.185 . S
O111 Zn107 2.086 . S
C112 O108 1.278 . S
C112 O113 1.211 . S
O113 C112 1.211 . S
C114 O106 1.284 . S
C114 O115 1.273 . S
O115 C114 1.273 . S
O116 Zn107 1.977 . S
O116 C109 1.267 . S
C117 O118 1.160 . S
C117 O124 1.185 . S
O118 C117 1.160 . S
O119 Zn120 1.899 . S
O119 C127 1.284 . S
Zn120 O119 1.899 . S
Zn120 O121 2.032 . S
Zn120 O124 2.086 . S
Zn120 O129 1.977 . S
O121 Zn120 2.032 . S
O121 C125 1.278 . S
C122 O123 1.203 . S
C122 O129 1.267 . S
O123 C122 1.203 . S
O124 C117 1.185 . S
O124 Zn120 2.086 . S
C125 O121 1.278 . S
C125 O126 1.211 . S
O126 C125 1.211 . S
C127 O119 1.284 . S
C127 O128 1.273 . S
O128 C127 1.273 . S
O129 Zn120 1.977 . S
O129 C122 1.267 . S
C130 O131 1.160 . S
C130 O137 1.185 . S
O131 C130 1.160 . S
O132 Zn133 1.899 . S
O132 C140 1.284 . S
Zn133 O132 1.899 . S
Zn133 O134 2.032 . S
Zn133 O137 2.086 . S
Zn133 O142 1.977 . S
O134 Zn133 2.032 . S
O134 C138 1.278 . S
C135 O136 1.203 . S
C135 O142 1.267 . S
O136 C135 1.203 . S
O137 C130 1.185 . S
O137 Zn133 2.086 . S
C138 O134 1.278 . S
C138 O139 1.211 . S
O139 C138 1.211 . S
C140 O132 1.284 . S
C140 O141 1.273 . S
O141 C140 1.273 . S
O142 Zn133 1.977 . S
O142 C135 1.267 . S
C143 O144 1.160 . S
C143 O150 1.185 . S
O144 C143 1.160 . S
O145 Zn146 1.899 . S
O145 C153 1.284 . S
Zn146 O145 1.899 . S
Zn146 O147 2.032 . S
Zn146 O150 2.086 . S
Zn146 O155 1.977 . S
O147 Zn146 2.032 . S
O147 C151 1.278 . S
C148 O149 1.203 . S
C148 O155 1.267 . S
O149 C148 1.203 . S
O150 C143 1.185 . S
O150 Zn146 2.086 . S
C151 O147 1.278 . S
C151 O152 1.211 . S
O152 C151 1.211 . S
C153 O145 1.284 . S
C153 O154 1.273 . S
O154 C153 1.273 . S
O155 Zn146 1.977 . S
O155 C148 1.267 . S
C156 O157 1.160 . S
C156 O163 1.185 . S
O157 C156 1.160 . S
O158 Zn159 1.899 . S
O158 C166 1.284 . S
Zn159 O158 1.899 . S
Zn159 O160 2.032 . S
Zn159 O163 2.086 . S
Zn159 O168 1.977 . S
O160 Zn159 2.032 . S
O160 C164 1.278 . S
C161 O162 1.203 . S
C161 O168 1.267 . S
O162 C161 1.203 . S
O163 C156 1.185 . S
O163 Zn159 2.086 . S
C164 O160 1.278 . S
C164 O165 1.211 . S
O165 C164 1.211 . S
C166 O158 1.284 . S
C166 O167 1.273 . S
O167 C166 1.273 . S
O168 Zn159 1.977 . S
O168 C161 1.267 . S
C169 O170 1.160 . S
C169 O176 1.185 . S
O170 C169 1.160 . S
O171 Zn172 1.899 . S
O171 C179 1.284 . S
Zn172 O171 1.899 . S
Zn172 O173 2.032 . S
Zn172 O176 2.086 . S
Zn172 O181 1.977 . S
O173 Zn172 2.032 . S
O173 C177 1.278 . S
C174 O175 1.203 . S
C174 O181 1.267 . S
O175 C174 1.203 . S
O176 C169 1.185 . S
O176 Zn172 2.086 . S
C177 O173 1.278 . S
C177 O178 1.211 . S
O178 C177 1.211 . S
C179 O171 1.284 . S
C179 O180 1.273 . S
O180 C179 1.273 . S
O181 Zn172 1.977 . S
O181 C174 1.267 . S
C182 O183 1.160 . S
C182 O189 1.185 . S
O183 C182 1.160 . S
O184 Zn185 1.899 . S
O184 C192 1.284 . S
Zn185 O184 1.899 . S
Zn185 O186 2.032 . S
Zn185 O189 2.086 . S
Zn185 O194 1.977 . S
O186 Zn185 2.032 . S
O186 C190 1.278 . S
C187 O188 1.203 . S
C187 O194 1.267 . S
O188 C187 1.203 . S
O189 C182 1.185 . S
O189 Zn185 2.086 . S
C190 O186 1.278 . S
C190 O191 1.211 . S
O191 C190 1.211 . S
C192 O184 1.284 . S
C192 O193 1.273 . S
O193 C192 1.273 . S
O194 Zn185 1.977 . S
O194 C187 1.267 . S
C195 O196 1.160 . S
C195 O202 1.185 . S
O196 C195 1.160 . S
O197 Zn198 1.899 . S
O197 C205 1.284 . S
Zn198 O197 1.899 . S
Zn198 O199 2.032 . S
Zn198 O202 2.086 . S
Zn198 O207 1.977 . S
O199 Zn198 2.032 . S
O199 C203 1.278 . S
C200 O201 1.203 . S
C200 O207 1.267 . S
O201 C200 1.203 . S
O202 C195 1.185 . S
O202 Zn198 2.086 . S
C203 O199 1.278 . S
C203 O204 1.211 . S
O204 C203 1.211 . S
C205 O197 1.284 . S
C205 O206 1.273 . S
O206 C205 1.273 . S
O207 Zn198 1.977 . S
O207 C200 1.267 . S
H208 C216 0.950 . S
H209 C221 0.950 . S
H210 C218 0.950 . S
H211 C220 0.950 . S
H212 C222 0.950 . S
H213 C224 0.950 . S
H214 C226 0.950 . S
H215 C227 0.950 . S
C216 H208 0.950 . S
C216 C217 1.386 . S
C216 C218 1.391 . S
C217 C216 1.386 . S
C217 C221 1.393 . S
C218 H210 0.950 . S
C218 C216 1.391 . S
C218 C219 1.400 . S
C219 C218 1.400 . S
C219 C220 1.398 . S
C219 C225 1.491 . S
C220 H211 0.950 . S
C220 C219 1.398 . S
C220 C221 1.391 . S
C221 H209 0.950 . S
C221 C217 1.393 . S
C221 C220 1.391 . S
C222 H212 0.950 . S
C222 C223 1.386 . S
C222 C224 1.391 . S
C223 C222 1.386 . S
C223 C227 1.393 . S
C224 H213 0.950 . S
C224 C222 1.391 . S
C224 C225 1.400 . S
C225 C219 1.491 . S
C225 C224 1.400 . S
C225 C226 1.398 . S
C226 H214 0.950 . S
C226 C225 1.398 . S
C226 C227 1.391 . S
C227 H215 0.950 . S
C227 C223 1.393 . S
C227 C226 1.391 . S
H228 C236 0.950 . S
H229 C241 0.950 . S
H230 C238 0.950 . S
H231 C240 0.950 . S
H232 C242 0.950 . S
H233 C244 0.950 . S
H234 C246 0.950 . S
H235 C247 0.950 . S
C236 H228 0.950 . S
C236 C237 1.386 . S
C236 C238 1.391 . S
C237 C236 1.386 . S
C237 C241 1.393 . S
C238 H230 0.950 . S
C238 C236 1.391 . S
C238 C239 1.400 . S
C239 C238 1.400 . S
C239 C240 1.398 . S
C239 C245 1.491 . S
C240 H231 0.950 . S
C240 C239 1.398 . S
C240 C241 1.391 . S
C241 H229 0.950 . S
C241 C237 1.393 . S
C241 C240 1.391 . S
C242 H232 0.950 . S
C242 C243 1.386 . S
C242 C244 1.391 . S
C243 C242 1.386 . S
C243 C247 1.393 . S
C244 H233 0.950 . S
C244 C242 1.391 . S
C244 C245 1.400 . S
C245 C239 1.491 . S
C245 C244 1.400 . S
C245 C246 1.398 . S
C246 H234 0.950 . S
C246 C245 1.398 . S
C246 C247 1.391 . S
C247 H235 0.950 . S
C247 C243 1.393 . S
C247 C246 1.391 . S
H248 C256 0.950 . S
H249 C261 0.950 . S
H250 C258 0.950 . S
H251 C260 0.950 . S
H252 C262 0.950 . S
H253 C264 0.950 . S
H254 C266 0.950 . S
H255 C267 0.950 . S
C256 H248 0.950 . S
C256 C257 1.386 . S
C256 C258 1.391 . S
C257 C256 1.386 . S
C257 C261 1.393 . S
C258 H250 0.950 . S
C258 C256 1.391 . S
C258 C259 1.400 . S
C259 C258 1.400 . S
C259 C260 1.398 . S
C259 C265 1.491 . S
C260 H251 0.950 . S
C260 C259 1.398 . S
C260 C261 1.391 . S
C261 H249 0.950 . S
C261 C257 1.393 . S
C261 C260 1.391 . S
C262 H252 0.950 . S
C262 C263 1.386 . S
C262 C264 1.391 . S
C263 C262 1.386 . S
C263 C267 1.393 . S
C264 H253 0.950 . S
C264 C262 1.391 . S
C264 C265 1.400 . S
C265 C259 1.491 . S
C265 C264 1.400 . S
C265 C266 1.398 . S
C266 H254 0.950 . S
C266 C265 1.398 . S
C266 C267 1.391 . S
C267 H255 0.950 . S
C267 C263 1.393 . S
C267 C266 1.391 . S
H268 C276 0.950 . S
H269 C281 0.950 . S
H270 C278 0.950 . S
H271 C280 0.950 . S
H272 C282 0.950 . S
H273 C284 0.950 . S
H274 C286 0.950 . S
H275 C287 0.950 . S
C276 H268 0.950 . S
C276 C277 1.386 . S
C276 C278 1.391 . S
C277 C276 1.386 . S
C277 C281 1.393 . S
C278 H270 0.950 . S
C278 C276 1.391 . S
C278 C279 1.400 . S
C279 C278 1.400 . S
C279 C280 1.398 . S
C279 C285 1.491 . S
C280 H271 0.950 . S
C280 C279 1.398 . S
C280 C281 1.391 . S
C281 H269 0.950 . S
C281 C277 1.393 . S
C281 C280 1.391 . S
C282 H272 0.950 . S
C282 C283 1.386 . S
C282 C284 1.391 . S
C283 C282 1.386 . S
C283 C287 1.393 . S
C284 H273 0.950 . S
C284 C282 1.391 . S
C284 C285 1.400 . S
C285 C279 1.491 . S
C285 C284 1.400 . S
C285 C286 1.398 . S
C286 H274 0.950 . S
C286 C285 1.398 . S
C286 C287 1.391 . S
C287 H275 0.950 . S
C287 C283 1.393 . S
C287 C286 1.391 . S
H288 C296 0.950 . S
H289 C301 0.950 . S
H290 C298 0.950 . S
H291 C300 0.950 . S
H292 C302 0.950 . S
H293 C304 0.950 . S
H294 C306 0.950 . S
H295 C307 0.950 . S
C296 H288 0.950 . S
C296 C297 1.386 . S
C296 C298 1.391 . S
C297 C296 1.386 . S
C297 C301 1.393 . S
C298 H290 0.950 . S
C298 C296 1.391 . S
C298 C299 1.400 . S
C299 C298 1.400 . S
C299 C300 1.398 . S
C299 C305 1.491 . S
C300 H291 0.950 . S
C300 C299 1.398 . S
C300 C301 1.391 . S
C301 H289 0.950 . S
C301 C297 1.393 . S
C301 C300 1.391 . S
C302 H292 0.950 . S
C302 C303 1.386 . S
C302 C304 1.391 . S
C303 C302 1.386 . S
C303 C307 1.393 . S
C304 H293 0.950 . S
C304 C302 1.391 . S
C304 C305 1.400 . S
C305 C299 1.491 . S
C305 C304 1.400 . S
C305 C306 1.398 . S
C306 H294 0.950 . S
C306 C305 1.398 . S
C306 C307 1.391 . S
C307 H295 0.950 . S
C307 C303 1.393 . S
C307 C306 1.391 . S
H308 C316 0.950 . S
H309 C321 0.950 . S
H310 C318 0.950 . S
H311 C320 0.950 . S
H312 C322 0.950 . S
H313 C324 0.950 . S
H314 C326 0.950 . S
H315 C327 0.950 . S
C316 H308 0.950 . S
C316 C317 1.386 . S
C316 C318 1.391 . S
C317 C316 1.386 . S
C317 C321 1.393 . S
C318 H310 0.950 . S
C318 C316 1.391 . S
C318 C319 1.400 . S
C319 C318 1.400 . S
C319 C320 1.398 . S
C319 C325 1.491 . S
C320 H311 0.950 . S
C320 C319 1.398 . S
C320 C321 1.391 . S
C321 H309 0.950 . S
C321 C317 1.393 . S
C321 C320 1.391 . S
C322 H312 0.950 . S
C322 C323 1.386 . S
C322 C324 1.391 . S
C323 C322 1.386 . S
C323 C327 1.393 . S
C324 H313 0.950 . S
C324 C322 1.391 . S
C324 C325 1.400 . S
C325 C319 1.491 . S
C325 C324 1.400 . S
C325 C326 1.398 . S
C326 H314 0.950 . S
C326 C325 1.398 . S
C326 C327 1.391 . S
C327 H315 0.950 . S
C327 C323 1.393 . S
C327 C326 1.391 . S
H328 C336 0.950 . S
H329 C341 0.950 . S
H330 C338 0.950 . S
H331 C340 0.950 . S
H332 C342 0.950 . S
H333 C344 0.950 . S
H334 C346 0.950 . S
H335 C347 0.950 . S
C336 H328 0.950 . S
C336 C337 1.386 . S
C336 C338 1.391 . S
C337 C336 1.386 . S
C337 C341 1.393 . S
C338 H330 0.950 . S
C338 C336 1.391 . S
C338 C339 1.400 . S
C339 C338 1.400 . S
C339 C340 1.398 . S
C339 C345 1.491 . S
C340 H331 0.950 . S
C340 C339 1.398 . S
C340 C341 1.391 . S
C341 H329 0.950 . S
C341 C337 1.393 . S
C341 C340 1.391 . S
C342 H332 0.950 . S
C342 C343 1.386 . S
C342 C344 1.391 . S
C343 C342 1.386 . S
C343 C347 1.393 . S
C344 H333 0.950 . S
C344 C342 1.391 . S
C344 C345 1.400 . S
C345 C339 1.491 . S
C345 C344 1.400 . S
C345 C346 1.398 . S
C346 H334 0.950 . S
C346 C345 1.398 . S
C346 C347 1.391 . S
C347 H335 0.950 . S
C347 C343 1.393 . S
C347 C346 1.391 . S
H348 C356 0.950 . S
H349 C361 0.950 . S
H350 C358 0.950 . S
H351 C360 0.950 . S
H352 C362 0.950 . S
H353 C364 0.950 . S
H354 C366 0.950 . S
H355 C367 0.950 . S
C356 H348 0.950 . S
C356 C357 1.386 . S
C356 C358 1.391 . S
C357 C356 1.386 . S
C357 C361 1.393 . S
C358 H350 0.950 . S
C358 C356 1.391 . S
C358 C359 1.400 . S
C359 C358 1.400 . S
C359 C360 1.398 . S
C359 C365 1.491 . S
C360 H351 0.950 . S
C360 C359 1.398 . S
C360 C361 1.391 . S
C361 H349 0.950 . S
C361 C357 1.393 . S
C361 C360 1.391 . S
C362 H352 0.950 . S
C362 C363 1.386 . S
C362 C364 1.391 . S
C363 C362 1.386 . S
C363 C367 1.393 . S
C364 H353 0.950 . S
C364 C362 1.391 . S
C364 C365 1.400 . S
C365 C359 1.491 . S
C365 C364 1.400 . S
C365 C366 1.398 . S
C366 H354 0.950 . S
C366 C365 1.398 . S
C366 C367 1.391 . S
C367 H355 0.950 . S
C367 C363 1.393 . S
C367 C366 1.391 . S
H368 C376 0.950 . S
H369 C381 0.950 . S
H370 C378 0.950 . S
H371 C380 0.950 . S
H372 C382 0.950 . S
H373 C384 0.950 . S
H374 C386 0.950 . S
H375 C387 0.950 . S
C376 H368 0.950 . S
C376 C377 1.386 . S
C376 C378 1.391 . S
C377 C376 1.386 . S
C377 C381 1.393 . S
C378 H370 0.950 . S
C378 C376 1.391 . S
C378 C379 1.400 . S
C379 C378 1.400 . S
C379 C380 1.398 . S
C379 C385 1.491 1_556 S
C380 H371 0.950 . S
C380 C379 1.398 . S
C380 C381 1.391 . S
C381 H369 0.950 . S
C381 C377 1.393 . S
C381 C380 1.391 . S
C382 H372 0.950 . S
C382 C383 1.386 . S
C382 C384 1.391 . S
C383 C382 1.386 . S
C383 C387 1.393 . S
C384 H373 0.950 . S
C384 C382 1.391 . S
C384 C385 1.400 . S
C385 C379 1.491 1_554 S
C385 C384 1.400 . S
C385 C386 1.398 . S
C386 H374 0.950 . S
C386 C385 1.398 . S
C386 C387 1.391 . S
C387 H375 0.950 . S
C387 C383 1.393 . S
C387 C386 1.391 . S
H388 C396 0.950 . S
H389 C401 0.950 . S
H390 C398 0.950 . S
H391 C400 0.950 . S
H392 C402 0.950 . S
H393 C404 0.950 . S
H394 C406 0.950 . S
H395 C407 0.950 . S
C396 H388 0.950 . S
C396 C397 1.386 . S
C396 C398 1.391 . S
C397 C396 1.386 . S
C397 C401 1.393 . S
C398 H390 0.950 . S
C398 C396 1.391 . S
C398 C399 1.400 . S
C399 C398 1.400 . S
C399 C400 1.398 . S
C399 C405 1.491 1_556 S
C400 H391 0.950 . S
C400 C399 1.398 . S
C400 C401 1.391 . S
C401 H389 0.950 . S
C401 C397 1.393 . S
C401 C400 1.391 . S
C402 H392 0.950 . S
C402 C403 1.386 . S
C402 C404 1.391 . S
C403 C402 1.386 . S
C403 C407 1.393 . S
C404 H393 0.950 . S
C404 C402 1.391 . S
C404 C405 1.400 . S
C405 C399 1.491 1_554 S
C405 C404 1.400 . S
C405 C406 1.398 . S
C406 H394 0.950 . S
C406 C405 1.398 . S
C406 C407 1.391 . S
C407 H395 0.950 . S
C407 C403 1.393 . S
C407 C406 1.391 . S
H408 C416 0.950 . S
H409 C421 0.950 . S
H410 C418 0.950 . S
H411 C420 0.950 . S
H412 C422 0.950 . S
H413 C424 0.950 . S
H414 C426 0.950 . S
H415 C427 0.950 . S
C416 H408 0.950 . S
C416 C417 1.386 . S
C416 C418 1.391 . S
C417 C416 1.386 . S
C417 C421 1.393 . S
C418 H410 0.950 . S
C418 C416 1.391 . S
C418 C419 1.400 . S
C419 C418 1.400 . S
C419 C420 1.398 . S
C419 C425 1.491 1_556 S
C420 H411 0.950 . S
C420 C419 1.398 . S
C420 C421 1.391 . S
C421 H409 0.950 . S
C421 C417 1.393 . S
C421 C420 1.391 . S
C422 H412 0.950 . S
C422 C423 1.386 . S
C422 C424 1.391 . S
C423 C422 1.386 . S
C423 C427 1.393 . S
C424 H413 0.950 . S
C424 C422 1.391 . S
C424 C425 1.400 . S
C425 C419 1.491 1_554 S
C425 C424 1.400 . S
C425 C426 1.398 . S
C426 H414 0.950 . S
C426 C425 1.398 . S
C426 C427 1.391 . S
C427 H415 0.950 . S
C427 C423 1.393 . S
C427 C426 1.391 . S
H428 C436 0.950 . S
H429 C441 0.950 . S
H430 C438 0.950 . S
H431 C440 0.950 . S
H432 C442 0.950 . S
H433 C444 0.950 . S
H434 C446 0.950 . S
H435 C447 0.950 . S
C436 H428 0.950 . S
C436 C437 1.386 . S
C436 C438 1.391 . S
C437 C436 1.386 . S
C437 C441 1.393 . S
C438 H430 0.950 . S
C438 C436 1.391 . S
C438 C439 1.400 . S
C439 C438 1.400 . S
C439 C440 1.398 . S
C439 C445 1.491 1_554 S
C440 H431 0.950 . S
C440 C439 1.398 . S
C440 C441 1.391 . S
C441 H429 0.950 . S
C441 C437 1.393 . S
C441 C440 1.391 . S
C442 H432 0.950 . S
C442 C443 1.386 . S
C442 C444 1.391 . S
C443 C442 1.386 . S
C443 C447 1.393 . S
C444 H433 0.950 . S
C444 C442 1.391 . S
C444 C445 1.400 . S
C445 C439 1.491 1_556 S
C445 C444 1.400 . S
C445 C446 1.398 . S
C446 H434 0.950 . S
C446 C445 1.398 . S
C446 C447 1.391 . S
C447 H435 0.950 . S
C447 C443 1.393 . S
C447 C446 1.391 . S
H448 C456 0.950 . S
H449 C461 0.950 . S
H450 C458 0.950 . S
H451 C460 0.950 . S
H452 C462 0.950 . S
H453 C464 0.950 . S
H454 C466 0.950 . S
H455 C467 0.950 . S
C456 H448 0.950 . S
C456 C457 1.386 . S
C456 C458 1.391 . S
C457 C456 1.386 . S
C457 C461 1.393 . S
C458 H450 0.950 . S
C458 C456 1.391 . S
C458 C459 1.400 . S
C459 C458 1.400 . S
C459 C460 1.398 . S
C459 C465 1.491 . S
C460 H451 0.950 . S
C460 C459 1.398 . S
C460 C461 1.391 . S
C461 H449 0.950 . S
C461 C457 1.393 . S
C461 C460 1.391 . S
C462 H452 0.950 . S
C462 C463 1.386 . S
C462 C464 1.391 . S
C463 C462 1.386 . S
C463 C467 1.393 . S
C464 H453 0.950 . S
C464 C462 1.391 . S
C464 C465 1.400 . S
C465 C459 1.491 . S
C465 C464 1.400 . S
C465 C466 1.398 . S
C466 H454 0.950 . S
C466 C465 1.398 . S
C466 C467 1.391 . S
C467 H455 0.950 . S
C467 C463 1.393 . S
C467 C466 1.391 . S
H468 C476 0.950 . S
H469 C481 0.950 . S
H470 C478 0.950 . S
H471 C480 0.950 . S
H472 C482 0.950 . S
H473 C484 0.950 . S
H474 C486 0.950 . S
H475 C487 0.950 . S
C476 H468 0.950 . S
C476 C477 1.386 . S
C476 C478 1.391 . S
C477 C476 1.386 . S
C477 C481 1.393 . S
C478 H470 0.950 . S
C478 C476 1.391 . S
C478 C479 1.400 . S
C479 C478 1.400 . S
C479 C480 1.398 . S
C479 C485 1.491 . S
C480 H471 0.950 . S
C480 C479 1.398 . S
C480 C481 1.391 . S
C481 H469 0.950 . S
C481 C477 1.393 . S
C481 C480 1.391 . S
C482 H472 0.950 . S
C482 C483 1.386 . S
C482 C484 1.391 . S
C483 C482 1.386 . S
C483 C487 1.393 . S
C484 H473 0.950 . S
C484 C482 1.391 . S
C484 C485 1.400 . S
C485 C479 1.491 . S
C485 C484 1.400 . S
C485 C486 1.398 . S
C486 H474 0.950 . S
C486 C485 1.398 . S
C486 C487 1.391 . S
C487 H475 0.950 . S
C487 C483 1.393 . S
C487 C486 1.391 . S
H488 C496 0.950 . S
H489 C501 0.950 . S
H490 C498 0.950 . S
H491 C500 0.950 . S
H492 C502 0.950 . S
H493 C504 0.950 . S
H494 C506 0.950 . S
H495 C507 0.950 . S
C496 H488 0.950 . S
C496 C497 1.386 . S
C496 C498 1.391 . S
C497 C496 1.386 . S
C497 C501 1.393 . S
C498 H490 0.950 . S
C498 C496 1.391 . S
C498 C499 1.400 . S
C499 C498 1.400 . S
C499 C500 1.398 . S
C499 C505 1.491 . S
C500 H491 0.950 . S
C500 C499 1.398 . S
C500 C501 1.391 . S
C501 H489 0.950 . S
C501 C497 1.393 . S
C501 C500 1.391 . S
C502 H492 0.950 . S
C502 C503 1.386 . S
C502 C504 1.391 . S
C503 C502 1.386 . S
C503 C507 1.393 . S
C504 H493 0.950 . S
C504 C502 1.391 . S
C504 C505 1.400 . S
C505 C499 1.491 . S
C505 C504 1.400 . S
C505 C506 1.398 . S
C506 H494 0.950 . S
C506 C505 1.398 . S
C506 C507 1.391 . S
C507 H495 0.950 . S
C507 C503 1.393 . S
C507 C506 1.391 . S
H508 C516 0.950 . S
H509 C521 0.950 . S
H510 C518 0.950 . S
H511 C520 0.950 . S
H512 C522 0.950 . S
H513 C524 0.950 . S
H514 C526 0.950 . S
H515 C527 0.950 . S
C516 H508 0.950 . S
C516 C517 1.386 . S
C516 C518 1.391 . S
C517 C516 1.386 . S
C517 C521 1.393 . S
C518 H510 0.950 . S
C518 C516 1.391 . S
C518 C519 1.400 . S
C519 C518 1.400 . S
C519 C520 1.398 . S
C519 C525 1.491 . S
C520 H511 0.950 . S
C520 C519 1.398 . S
C520 C521 1.391 . S
C521 H509 0.950 . S
C521 C517 1.393 . S
C521 C520 1.391 . S
C522 H512 0.950 . S
C522 C523 1.386 . S
C522 C524 1.391 . S
C523 C522 1.386 . S
C523 C527 1.393 . S
C524 H513 0.950 . S
C524 C522 1.391 . S
C524 C525 1.400 . S
C525 C519 1.491 . S
C525 C524 1.400 . S
C525 C526 1.398 . S
C526 H514 0.950 . S
C526 C525 1.398 . S
C526 C527 1.391 . S
C527 H515 0.950 . S
C527 C523 1.393 . S
C527 C526 1.391 . S
H528 C536 0.950 . S
H529 C541 0.950 . S
H530 C538 0.950 . S
H531 C540 0.950 . S
H532 C542 0.950 . S
H533 C544 0.950 . S
H534 C546 0.950 . S
H535 C547 0.950 . S
C536 H528 0.950 . S
C536 C537 1.386 . S
C536 C538 1.391 . S
C537 C536 1.386 . S
C537 C541 1.393 . S
C538 H530 0.950 . S
C538 C536 1.391 . S
C538 C539 1.400 . S
C539 C538 1.400 . S
C539 C540 1.398 . S
C539 C545 1.491 . S
C540 H531 0.950 . S
C540 C539 1.398 . S
C540 C541 1.391 . S
C541 H529 0.950 . S
C541 C537 1.393 . S
C541 C540 1.391 . S
C542 H532 0.950 . S
C542 C543 1.386 . S
C542 C544 1.391 . S
C543 C542 1.386 . S
C543 C547 1.393 . S
C544 H533 0.950 . S
C544 C542 1.391 . S
C544 C545 1.400 . S
C545 C539 1.491 . S
C545 C544 1.400 . S
C545 C546 1.398 . S
C546 H534 0.950 . S
C546 C545 1.398 . S
C546 C547 1.391 . S
C547 H535 0.950 . S
C547 C543 1.393 . S
C547 C546 1.391 . S
H548 C556 0.950 . S
H549 C561 0.950 . S
H550 C558 0.950 . S
H551 C560 0.950 . S
H552 C562 0.950 . S
H553 C564 0.950 . S
H554 C566 0.950 . S
H555 C567 0.950 . S
C556 H548 0.950 . S
C556 C557 1.386 . S
C556 C558 1.391 . S
C557 C556 1.386 . S
C557 C561 1.393 . S
C558 H550 0.950 . S
C558 C556 1.391 . S
C558 C559 1.400 . S
C559 C558 1.400 . S
C559 C560 1.398 . S
C559 C565 1.491 . S
C560 H551 0.950 . S
C560 C559 1.398 . S
C560 C561 1.391 . S
C561 H549 0.950 . S
C561 C557 1.393 . S
C561 C560 1.391 . S
C562 H552 0.950 . S
C562 C563 1.386 . S
C562 C564 1.391 . S
C563 C562 1.386 . S
C563 C567 1.393 . S
C564 H553 0.950 . S
C564 C562 1.391 . S
C564 C565 1.400 . S
C565 C559 1.491 . S
C565 C564 1.400 . S
C565 C566 1.398 . S
C566 H554 0.950 . S
C566 C565 1.398 . S
C566 C567 1.391 . S
C567 H555 0.950 . S
C567 C563 1.393 . S
C567 C566 1.391 . S
H568 C576 0.950 . S
H569 C581 0.950 . S
H570 C578 0.950 . S
H571 C580 0.950 . S
H572 C582 0.950 . S
H573 C584 0.950 . S
H574 C586 0.950 . S
H575 C587 0.950 . S
C576 H568 0.950 . S
C576 C577 1.386 . S
C576 C578 1.391 . S
C577 C576 1.386 . S
C577 C581 1.393 . S
C578 H570 0.950 . S
C578 C576 1.391 . S
C578 C579 1.400 . S
C579 C578 1.400 . S
C579 C580 1.398 . S
C579 C585 1.491 . S
C580 H571 0.950 . S
C580 C579 1.398 . S
C580 C581 1.391 . S
C581 H569 0.950 . S
C581 C577 1.393 . S
C581 C580 1.391 . S
C582 H572 0.950 . S
C582 C583 1.386 . S
C582 C584 1.391 . S
C583 C582 1.386 . S
C583 C587 1.393 . S
C584 H573 0.950 . S
C584 C582 1.391 . S
C584 C585 1.400 . S
C585 C579 1.491 . S
C585 C584 1.400 . S
C585 C586 1.398 . S
C586 H574 0.950 . S
C586 C585 1.398 . S
C586 C587 1.391 . S
C587 H575 0.950 . S
C587 C583 1.393 . S
C587 C586 1.391 . S
H588 C596 0.950 . S
H589 C601 0.950 . S
H590 C598 0.950 . S
H591 C600 0.950 . S
H592 C602 0.950 . S
H593 C604 0.950 . S
H594 C606 0.950 . S
H595 C607 0.950 . S
C596 H588 0.950 . S
C596 C597 1.386 . S
C596 C598 1.391 . S
C597 C596 1.386 . S
C597 C601 1.393 . S
C598 H590 0.950 . S
C598 C596 1.391 . S
C598 C599 1.400 . S
C599 C598 1.400 . S
C599 C600 1.398 . S
C599 C605 1.491 . S
C600 H591 0.950 . S
C600 C599 1.398 . S
C600 C601 1.391 . S
C601 H589 0.950 . S
C601 C597 1.393 . S
C601 C600 1.391 . S
C602 H592 0.950 . S
C602 C603 1.386 . S
C602 C604 1.391 . S
C603 C602 1.386 . S
C603 C607 1.393 . S
C604 H593 0.950 . S
C604 C602 1.391 . S
C604 C605 1.400 . S
C605 C599 1.491 . S
C605 C604 1.400 . S
C605 C606 1.398 . S
C606 H594 0.950 . S
C606 C605 1.398 . S
C606 C607 1.391 . S
C607 H595 0.950 . S
C607 C603 1.393 . S
C607 C606 1.391 . S
H608 C616 0.950 . S
H609 C621 0.950 . S
H610 C618 0.950 . S
H611 C620 0.950 . S
H612 C622 0.950 . S
H613 C624 0.950 . S
H614 C626 0.950 . S
H615 C627 0.950 . S
C616 H608 0.950 . S
C616 C617 1.386 . S
C616 C618 1.391 . S
C617 C616 1.386 . S
C617 C621 1.393 . S
C618 H610 0.950 . S
C618 C616 1.391 . S
C618 C619 1.400 . S
C619 C618 1.400 . S
C619 C620 1.398 . S
C619 C625 1.491 . S
C620 H611 0.950 . S
C620 C619 1.398 . S
C620 C621 1.391 . S
C621 H609 0.950 . S
C621 C617 1.393 . S
C621 C620 1.391 . S
C622 H612 0.950 . S
C622 C623 1.386 . S
C622 C624 1.391 . S
C623 C622 1.386 . S
C623 C627 1.393 . S
C624 H613 0.950 . S
C624 C622 1.391 . S
C624 C625 1.400 . S
C625 C619 1.491 . S
C625 C624 1.400 . S
C625 C626 1.398 . S
C626 H614 0.950 . S
C626 C625 1.398 . S
C626 C627 1.391 . S
C627 H615 0.950 . S
C627 C623 1.393 . S
C627 C626 1.391 . S
H628 C636 0.950 . S
H629 C641 0.950 . S
H630 C638 0.950 . S
H631 C640 0.950 . S
H632 C642 0.950 . S
H633 C644 0.950 . S
H634 C646 0.950 . S
H635 C647 0.950 . S
C636 H628 0.950 . S
C636 C637 1.386 . S
C636 C638 1.391 . S
C637 C636 1.386 . S
C637 C641 1.393 . S
C638 H630 0.950 . S
C638 C636 1.391 . S
C638 C639 1.400 . S
C639 C638 1.400 . S
C639 C640 1.398 . S
C639 C645 1.491 . S
C640 H631 0.950 . S
C640 C639 1.398 . S
C640 C641 1.391 . S
C641 H629 0.950 . S
C641 C637 1.393 . S
C641 C640 1.391 . S
C642 H632 0.950 . S
C642 C643 1.386 . S
C642 C644 1.391 . S
C643 C642 1.386 . S
C643 C647 1.393 . S
C644 H633 0.950 . S
C644 C642 1.391 . S
C644 C645 1.400 . S
C645 C639 1.491 . S
C645 C644 1.400 . S
C645 C646 1.398 . S
C646 H634 0.950 . S
C646 C645 1.398 . S
C646 C647 1.391 . S
C647 H635 0.950 . S
C647 C643 1.393 . S
C647 C646 1.391 . S
H648 C656 0.950 . S
H649 C661 0.950 . S
H650 C658 0.950 . S
H651 C660 0.950 . S
H652 C662 0.950 . S
H653 C664 0.950 . S
H654 C666 0.950 . S
H655 C667 0.950 . S
C656 H648 0.950 . S
C656 C657 1.386 . S
C656 C658 1.391 . S
C657 C656 1.386 . S
C657 C661 1.393 . S
C658 H650 0.950 . S
C658 C656 1.391 . S
C658 C659 1.400 . S
C659 C658 1.400 . S
C659 C660 1.398 . S
C659 C665 1.491 . S
C660 H651 0.950 . S
C660 C659 1.398 . S
C660 C661 1.391 . S
C661 H649 0.950 . S
C661 C657 1.393 . S
C661 C660 1.391 . S
C662 H652 0.950 . S
C662 C663 1.386 . S
C662 C664 1.391 . S
C663 C662 1.386 . S
C663 C667 1.393 . S
C664 H653 0.950 . S
C664 C662 1.391 . S
C664 C665 1.400 . S
C665 C659 1.491 . S
C665 C664 1.400 . S
C665 C666 1.398 . S
C666 H654 0.950 . S
C666 C665 1.398 . S
C666 C667 1.391 . S
C667 H655 0.950 . S
C667 C663 1.393 . S
C667 C666 1.391 . S
H668 C676 0.950 . S
H669 C681 0.950 . S
H670 C678 0.950 . S
H671 C680 0.950 . S
H672 C682 0.950 . S
H673 C684 0.950 . S
H674 C686 0.950 . S
H675 C687 0.950 . S
C676 H668 0.950 . S
C676 C677 1.386 . S
C676 C678 1.391 . S
C677 C676 1.386 . S
C677 C681 1.393 . S
C678 H670 0.950 . S
C678 C676 1.391 . S
C678 C679 1.400 . S
C679 C678 1.400 . S
C679 C680 1.398 . S
C679 C685 1.491 . S
C680 H671 0.950 . S
C680 C679 1.398 . S
C680 C681 1.391 . S
C681 H669 0.950 . S
C681 C677 1.393 . S
C681 C680 1.391 . S
C682 H672 0.950 . S
C682 C683 1.386 . S
C682 C684 1.391 . S
C683 C682 1.386 . S
C683 C687 1.393 . S
C684 H673 0.950 . S
C684 C682 1.391 . S
C684 C685 1.400 . S
C685 C679 1.491 . S
C685 C684 1.400 . S
C685 C686 1.398 . S
C686 H674 0.950 . S
C686 C685 1.398 . S
C686 C687 1.391 . S
C687 H675 0.950 . S
C687 C683 1.393 . S
C687 C686 1.391 . S
H688 C696 0.950 . S
H689 C701 0.950 . S
H690 C698 0.950 . S
H691 C700 0.950 . S
H692 C702 0.950 . S
H693 C704 0.950 . S
H694 C706 0.950 . S
H695 C707 0.950 . S
C696 H688 0.950 . S
C696 C697 1.386 . S
C696 C698 1.391 . S
C697 C696 1.386 . S
C697 C701 1.393 . S
C698 H690 0.950 . S
C698 C696 1.391 . S
C698 C699 1.400 . S
C699 C698 1.400 . S
C699 C700 1.398 . S
C699 C705 1.491 1_545 S
C700 H691 0.950 . S
C700 C699 1.398 . S
C700 C701 1.391 . S
C701 H689 0.950 . S
C701 C697 1.393 . S
C701 C700 1.391 . S
C702 H692 0.950 . S
C702 C703 1.386 . S
C702 C704 1.391 . S
C703 C702 1.386 . S
C703 C707 1.393 . S
C704 H693 0.950 . S
C704 C702 1.391 . S
C704 C705 1.400 . S
C705 C699 1.491 1_565 S
C705 C704 1.400 . S
C705 C706 1.398 . S
C706 H694 0.950 . S
C706 C705 1.398 . S
C706 C707 1.391 . S
C707 H695 0.950 . S
C707 C703 1.393 . S
C707 C706 1.391 . S
H708 C716 0.950 . S
H709 C721 0.950 . S
H710 C718 0.950 . S
H711 C720 0.950 . S
H712 C722 0.950 . S
H713 C724 0.950 . S
H714 C726 0.950 . S
H715 C727 0.950 . S
C716 H708 0.950 . S
C716 C717 1.386 . S
C716 C718 1.391 . S
C717 C716 1.386 . S
C717 C721 1.393 . S
C718 H710 0.950 . S
C718 C716 1.391 . S
C718 C719 1.400 . S
C719 C718 1.400 . S
C719 C720 1.398 . S
C719 C725 1.491 1_655 S
C720 H711 0.950 . S
C720 C719 1.398 . S
C720 C721 1.391 . S
C721 H709 0.950 . S
C721 C717 1.393 . S
C721 C720 1.391 . S
C722 H712 0.950 . S
C722 C723 1.386 . S
C722 C724 1.391 . S
C723 C722 1.386 . S
C723 C727 1.393 . S
C724 H713 0.950 . S
C724 C722 1.391 . S
C724 C725 1.400 . S
C725 C719 1.491 1_455 S
C725 C724 1.400 . S
C725 C726 1.398 . S
C726 H714 0.950 . S
C726 C725 1.398 . S
C726 C727 1.391 . S
C727 H715 0.950 . S
C727 C723 1.393 . S
C727 C726 1.391 . S
H728 C736 0.950 . S
H729 C741 0.950 . S
H730 C738 0.950 . S
H731 C740 0.950 . S
H732 C742 0.950 . S
H733 C744 0.950 . S
H734 C746 0.950 . S
H735 C747 0.950 . S
C736 H728 0.950 . S
C736 C737 1.386 . S
C736 C738 1.391 . S
C737 C736 1.386 . S
C737 C741 1.393 . S
C738 H730 0.950 . S
C738 C736 1.391 . S
C738 C739 1.400 . S
C739 C738 1.400 . S
C739 C740 1.398 . S
C739 C745 1.491 1_545 S
C740 H731 0.950 . S
C740 C739 1.398 . S
C740 C741 1.391 . S
C741 H729 0.950 . S
C741 C737 1.393 . S
C741 C740 1.391 . S
C742 H732 0.950 . S
C742 C743 1.386 . S
C742 C744 1.391 . S
C743 C742 1.386 . S
C743 C747 1.393 . S
C744 H733 0.950 . S
C744 C742 1.391 . S
C744 C745 1.400 . S
C745 C739 1.491 1_565 S
C745 C744 1.400 . S
C745 C746 1.398 . S
C746 H734 0.950 . S
C746 C745 1.398 . S
C746 C747 1.391 . S
C747 H735 0.950 . S
C747 C743 1.393 . S
C747 C746 1.391 . S
H748 C756 0.950 . S
H749 C761 0.950 . S
H750 C758 0.950 . S
H751 C760 0.950 . S
H752 C762 0.950 . S
H753 C764 0.950 . S
H754 C766 0.950 . S
H755 C767 0.950 . S
C756 H748 0.950 . S
C756 C757 1.386 . S
C756 C758 1.391 . S
C757 C756 1.386 . S
C757 C761 1.393 . S
C758 H750 0.950 . S
C758 C756 1.391 . S
C758 C759 1.400 . S
C759 C758 1.400 . S
C759 C760 1.398 . S
C759 C765 1.491 1_455 S
C760 H751 0.950 . S
C760 C759 1.398 . S
C760 C761 1.391 . S
C761 H749 0.950 . S
C761 C757 1.393 . S
C761 C760 1.391 . S
C762 H752 0.950 . S
C762 C763 1.386 . S
C762 C764 1.391 . S
C763 C762 1.386 . S
C763 C767 1.393 . S
C764 H753 0.950 . S
C764 C762 1.391 . S
C764 C765 1.400 . S
C765 C759 1.491 1_655 S
C765 C764 1.400 . S
C765 C766 1.398 . S
C766 H754 0.950 . S
C766 C765 1.398 . S
C766 C767 1.391 . S
C767 H755 0.950 . S
C767 C763 1.393 . S
C767 C766 1.391 . S
H768 C776 0.950 . S
H769 C781 0.950 . S
H770 C778 0.950 . S
H771 C780 0.950 . S
H772 C782 0.950 . S
H773 C784 0.950 . S
H774 C786 0.950 . S
H775 C787 0.950 . S
C776 H768 0.950 . S
C776 C777 1.386 . S
C776 C778 1.391 . S
C777 C776 1.386 . S
C777 C781 1.393 . S
C778 H770 0.950 . S
C778 C776 1.391 . S
C778 C779 1.400 . S
C779 C778 1.400 . S
C779 C780 1.398 . S
C779 C785 1.491 1_545 S
C780 H771 0.950 . S
C780 C779 1.398 . S
C780 C781 1.391 . S
C781 H769 0.950 . S
C781 C777 1.393 . S
C781 C780 1.391 . S
C782 H772 0.950 . S
C782 C783 1.386 . S
C782 C784 1.391 . S
C783 C782 1.386 . S
C783 C787 1.393 . S
C784 H773 0.950 . S
C784 C782 1.391 . S
C784 C785 1.400 . S
C785 C779 1.491 1_565 S
C785 C784 1.400 . S
C785 C786 1.398 . S
C786 H774 0.950 . S
C786 C785 1.398 . S
C786 C787 1.391 . S
C787 H775 0.950 . S
C787 C783 1.393 . S
C787 C786 1.391 . S
H788 C796 0.950 . S
H789 C801 0.950 . S
H790 C798 0.950 . S
H791 C800 0.950 . S
H792 C802 0.950 . S
H793 C804 0.950 . S
H794 C806 0.950 . S
H795 C807 0.950 . S
C796 H788 0.950 . S
C796 C797 1.386 . S
C796 C798 1.391 . S
C797 C796 1.386 . S
C797 C801 1.393 . S
C798 H790 0.950 . S
C798 C796 1.391 . S
C798 C799 1.400 . S
C799 C798 1.400 . S
C799 C800 1.398 . S
C799 C805 1.491 1_655 S
C800 H791 0.950 . S
C800 C799 1.398 . S
C800 C801 1.391 . S
C801 H789 0.950 . S
C801 C797 1.393 . S
C801 C800 1.391 . S
C802 H792 0.950 . S
C802 C803 1.386 . S
C802 C804 1.391 . S
C803 C802 1.386 . S
C803 C807 1.393 . S
C804 H793 0.950 . S
C804 C802 1.391 . S
C804 C805 1.400 . S
C805 C799 1.491 1_455 S
C805 C804 1.400 . S
C805 C806 1.398 . S
C806 H794 0.950 . S
C806 C805 1.398 . S
C806 C807 1.391 . S
C807 H795 0.950 . S
C807 C803 1.393 . S
C807 C806 1.391 . S
H808 C816 0.950 . S
H809 C821 0.950 . S
H810 C818 0.950 . S
H811 C820 0.950 . S
H812 C822 0.950 . S
H813 C824 0.950 . S
H814 C826 0.950 . S
H815 C827 0.950 . S
C816 H808 0.950 . S
C816 C817 1.386 . S
C816 C818 1.391 . S
C817 C816 1.386 . S
C817 C821 1.393 . S
C818 H810 0.950 . S
C818 C816 1.391 . S
C818 C819 1.400 . S
C819 C818 1.400 . S
C819 C820 1.398 . S
C819 C825 1.491 1_565 S
C820 H811 0.950 . S
C820 C819 1.398 . S
C820 C821 1.391 . S
C821 H809 0.950 . S
C821 C817 1.393 . S
C821 C820 1.391 . S
C822 H812 0.950 . S
C822 C823 1.386 . S
C822 C824 1.391 . S
C823 C822 1.386 . S
C823 C827 1.393 . S
C824 H813 0.950 . S
C824 C822 1.391 . S
C824 C825 1.400 . S
C825 C819 1.491 1_545 S
C825 C824 1.400 . S
C825 C826 1.398 . S
C826 H814 0.950 . S
C826 C825 1.398 . S
C826 C827 1.391 . S
C827 H815 0.950 . S
C827 C823 1.393 . S
C827 C826 1.391 . S
H828 C836 0.950 . S
H829 C841 0.950 . S
H830 C838 0.950 . S
H831 C840 0.950 . S
H832 C842 0.950 . S
H833 C844 0.950 . S
H834 C846 0.950 . S
H835 C847 0.950 . S
C836 H828 0.950 . S
C836 C837 1.386 . S
C836 C838 1.391 . S
C837 C836 1.386 . S
C837 C841 1.393 . S
C838 H830 0.950 . S
C838 C836 1.391 . S
C838 C839 1.400 . S
C839 C838 1.400 . S
C839 C840 1.398 . S
C839 C845 1.491 1_455 S
C840 H831 0.950 . S
C840 C839 1.398 . S
C840 C841 1.391 . S
C841 H829 0.950 . S
C841 C837 1.393 . S
C841 C840 1.391 . S
C842 H832 0.950 . S
C842 C843 1.386 . S
C842 C844 1.391 . S
C843 C842 1.386 . S
C843 C847 1.393 . S
C844 H833 0.950 . S
C844 C842 1.391 . S
C844 C845 1.400 . S
C845 C839 1.491 1_655 S
C845 C844 1.400 . S
C845 C846 1.398 . S
C846 H834 0.950 . S
C846 C845 1.398 . S
C846 C847 1.391 . S
C847 H835 0.950 . S
C847 C843 1.393 . S
C847 C846 1.391 . S
C217 C65 1.238 . S
C223 C0 1.236 . S
C237 C78 1.253 . S
C243 C13 1.237 . S
C257 C26 1.241 . S
C263 C91 1.235 . S
C277 C39 1.241 . S
C283 C52 1.234 . S
C297 C169 1.245 . S
C303 C104 1.233 . S
C317 C182 1.250 . S
C323 C117 1.246 . S
C337 C130 1.234 . S
C343 C195 1.250 . S
C357 C143 1.238 . S
C363 C156 1.253 . S
C377 C138 1.478 . S
C383 C8 1.469 . S
C397 C151 1.476 . S
C403 C21 1.473 . S
C417 C112 1.457 . S
C423 C34 1.470 . S
C437 C47 1.462 . S
C443 C125 1.477 . S
C457 C190 1.465 . S
C463 C60 1.478 . S
C477 C203 1.473 . S
C483 C73 1.458 . S
C497 C86 1.468 . S
C503 C164 1.478 . S
C517 C177 1.457 . S
C523 C99 1.468 . S
C537 C62 1.342 . S
C543 C10 1.341 . S
C557 C23 1.332 . S
C563 C75 1.342 . S
C577 C36 1.327 . S
C583 C88 1.331 . S
C597 C101 1.342 . S
C603 C49 1.333 . S
C617 C109 1.423 . S
C623 C161 1.421 . S
C637 C174 1.423 . S
C643 C122 1.421 . S
C657 C135 1.424 . S
C663 C187 1.423 . S
C677 C200 1.434 . S
C683 C148 1.411 . S
C697 C153 1.335 . S
C703 C179 1.343 . S
C717 C114 1.339 . S
C723 C192 1.329 . S
C737 C205 1.327 . S
C743 C127 1.329 . S
C757 C140 1.331 . S
C763 C166 1.327 . S
C777 C70 1.422 . S
C783 C44 1.424 . S
C797 C83 1.415 . S
C803 C5 1.429 . S
C817 C96 1.415 . S
C823 C18 1.431 . S
C837 C57 1.425 . S
C843 C31 1.419 . S
