# Generated by pormake.
# Topology uos, (4)-cn, num edge types: 1
# Building blocks:
#     Node 0, Type 0, BuildingBlock: KUFVIS_clean_sbu_0, # of connection points: 4
#     Node 1, Type 0, BuildingBlock: KUFVIS_clean_sbu_0, # of connection points: 4
#     Node 2, Type 0, BuildingBlock: KUFVIS_clean_sbu_0, # of connection points: 4
#     Node 3, Type 0, BuildingBlock: KUFVIS_clean_sbu_0, # of connection points: 4
#     Node 4, Type 0, BuildingBlock: KUFVIS_clean_sbu_0, # of connection points: 4
#     Node 5, Type 0, BuildingBlock: KUFVIS_clean_sbu_0, # of connection points: 4
#     Node 6, Type 0, BuildingBlock: KUFVIS_clean_sbu_0, # of connection points: 4
#     Node 7, Type 0, BuildingBlock: KUFVIS_clean_sbu_0, # of connection points: 4
#     Node 8, Type 0, BuildingBlock: KUFVIS_clean_sbu_0, # of connection points: 4
#     Node 9, Type 0, BuildingBlock: KUFVIS_clean_sbu_0, # of connection points: 4
#     Node 10, Type 0, BuildingBlock: KUFVIS_clean_sbu_0, # of connection points: 4
#     Node 11, Type 0, BuildingBlock: KUFVIS_clean_sbu_0, # of connection points: 4
#     Node 12, Type 0, BuildingBlock: KUFVIS_clean_sbu_0, # of connection points: 4
#     Node 13, Type 0, BuildingBlock: KUFVIS_clean_sbu_0, # of connection points: 4
#     Node 14, Type 0, BuildingBlock: KUFVIS_clean_sbu_0, # of connection points: 4
#     Node 15, Type 0, BuildingBlock: KUFVIS_clean_sbu_0, # of connection points: 4
#     Node 16, Type 0, BuildingBlock: KUFVIS_clean_sbu_0, # of connection points: 4
#     Node 17, Type 0, BuildingBlock: KUFVIS_clean_sbu_0, # of connection points: 4
#     Node 18, Type 0, BuildingBlock: KUFVIS_clean_sbu_0, # of connection points: 4
#     Node 19, Type 0, BuildingBlock: KUFVIS_clean_sbu_0, # of connection points: 4
#     Node 20, Type 0, BuildingBlock: KUFVIS_clean_sbu_0, # of connection points: 4
#     Node 21, Type 0, BuildingBlock: KUFVIS_clean_sbu_0, # of connection points: 4
#     Node 22, Type 0, BuildingBlock: KUFVIS_clean_sbu_0, # of connection points: 4
#     Node 23, Type 0, BuildingBlock: KUFVIS_clean_sbu_0, # of connection points: 4
#     Node 24, Type 0, BuildingBlock: KUFVIS_clean_sbu_0, # of connection points: 4
#     Node 25, Type 0, BuildingBlock: KUFVIS_clean_sbu_0, # of connection points: 4
#     Node 26, Type 0, BuildingBlock: KUFVIS_clean_sbu_0, # of connection points: 4
#     Node 27, Type 0, BuildingBlock: KUFVIS_clean_sbu_0, # of connection points: 4
#     Node 28, Type 0, BuildingBlock: KUFVIS_clean_sbu_0, # of connection points: 4
#     Node 29, Type 0, BuildingBlock: KUFVIS_clean_sbu_0, # of connection points: 4
#     Node 30, Type 0, BuildingBlock: KUFVIS_clean_sbu_0, # of connection points: 4
#     Node 31, Type 0, BuildingBlock: KUFVIS_clean_sbu_0, # of connection points: 4
#     Edge 32, Type (0, 0), BuildingBlock: KIFKEQ_clean_linker_1, # of connection points: 2
#     Edge 33, Type (0, 0), BuildingBlock: KIFKEQ_clean_linker_1, # of connection points: 2
#     Edge 34, Type (0, 0), BuildingBlock: KIFKEQ_clean_linker_1, # of connection points: 2
#     Edge 35, Type (0, 0), BuildingBlock: KIFKEQ_clean_linker_1, # of connection points: 2
#     Edge 36, Type (0, 0), BuildingBlock: KIFKEQ_clean_linker_1, # of connection points: 2
#     Edge 37, Type (0, 0), BuildingBlock: KIFKEQ_clean_linker_1, # of connection points: 2
#     Edge 38, Type (0, 0), BuildingBlock: KIFKEQ_clean_linker_1, # of connection points: 2
#     Edge 39, Type (0, 0), BuildingBlock: KIFKEQ_clean_linker_1, # of connection points: 2
#     Edge 40, Type (0, 0), BuildingBlock: KIFKEQ_clean_linker_1, # of connection points: 2
#     Edge 41, Type (0, 0), BuildingBlock: KIFKEQ_clean_linker_1, # of connection points: 2
#     Edge 42, Type (0, 0), BuildingBlock: KIFKEQ_clean_linker_1, # of connection points: 2
#     Edge 43, Type (0, 0), BuildingBlock: KIFKEQ_clean_linker_1, # of connection points: 2
#     Edge 44, Type (0, 0), BuildingBlock: KIFKEQ_clean_linker_1, # of connection points: 2
#     Edge 45, Type (0, 0), BuildingBlock: KIFKEQ_clean_linker_1, # of connection points: 2
#     Edge 46, Type (0, 0), BuildingBlock: KIFKEQ_clean_linker_1, # of connection points: 2
#     Edge 47, Type (0, 0), BuildingBlock: KIFKEQ_clean_linker_1, # of connection points: 2
#     Edge 48, Type (0, 0), BuildingBlock: KIFKEQ_clean_linker_1, # of connection points: 2
#     Edge 49, Type (0, 0), BuildingBlock: KIFKEQ_clean_linker_1, # of connection points: 2
#     Edge 50, Type (0, 0), BuildingBlock: KIFKEQ_clean_linker_1, # of connection points: 2
#     Edge 51, Type (0, 0), BuildingBlock: KIFKEQ_clean_linker_1, # of connection points: 2
#     Edge 52, Type (0, 0), BuildingBlock: KIFKEQ_clean_linker_1, # of connection points: 2
#     Edge 53, Type (0, 0), BuildingBlock: KIFKEQ_clean_linker_1, # of connection points: 2
#     Edge 54, Type (0, 0), BuildingBlock: KIFKEQ_clean_linker_1, # of connection points: 2
#     Edge 55, Type (0, 0), BuildingBlock: KIFKEQ_clean_linker_1, # of connection points: 2
#     Edge 56, Type (0, 0), BuildingBlock: KIFKEQ_clean_linker_1, # of connection points: 2
#     Edge 57, Type (0, 0), BuildingBlock: KIFKEQ_clean_linker_1, # of connection points: 2
#     Edge 58, Type (0, 0), BuildingBlock: KIFKEQ_clean_linker_1, # of connection points: 2
#     Edge 59, Type (0, 0), BuildingBlock: KIFKEQ_clean_linker_1, # of connection points: 2
#     Edge 60, Type (0, 0), BuildingBlock: KIFKEQ_clean_linker_1, # of connection points: 2
#     Edge 61, Type (0, 0), BuildingBlock: KIFKEQ_clean_linker_1, # of connection points: 2
#     Edge 62, Type (0, 0), BuildingBlock: KIFKEQ_clean_linker_1, # of connection points: 2
#     Edge 63, Type (0, 0), BuildingBlock: KIFKEQ_clean_linker_1, # of connection points: 2
#     Edge 64, Type (0, 0), BuildingBlock: KIFKEQ_clean_linker_1, # of connection points: 2
#     Edge 65, Type (0, 0), BuildingBlock: KIFKEQ_clean_linker_1, # of connection points: 2
#     Edge 66, Type (0, 0), BuildingBlock: KIFKEQ_clean_linker_1, # of connection points: 2
#     Edge 67, Type (0, 0), BuildingBlock: KIFKEQ_clean_linker_1, # of connection points: 2
#     Edge 68, Type (0, 0), BuildingBlock: KIFKEQ_clean_linker_1, # of connection points: 2
#     Edge 69, Type (0, 0), BuildingBlock: KIFKEQ_clean_linker_1, # of connection points: 2
#     Edge 70, Type (0, 0), BuildingBlock: KIFKEQ_clean_linker_1, # of connection points: 2
#     Edge 71, Type (0, 0), BuildingBlock: KIFKEQ_clean_linker_1, # of connection points: 2
#     Edge 72, Type (0, 0), BuildingBlock: KIFKEQ_clean_linker_1, # of connection points: 2
#     Edge 73, Type (0, 0), BuildingBlock: KIFKEQ_clean_linker_1, # of connection points: 2
#     Edge 74, Type (0, 0), BuildingBlock: KIFKEQ_clean_linker_1, # of connection points: 2
#     Edge 75, Type (0, 0), BuildingBlock: KIFKEQ_clean_linker_1, # of connection points: 2
#     Edge 76, Type (0, 0), BuildingBlock: KIFKEQ_clean_linker_1, # of connection points: 2
#     Edge 77, Type (0, 0), BuildingBlock: KIFKEQ_clean_linker_1, # of connection points: 2
#     Edge 78, Type (0, 0), BuildingBlock: KIFKEQ_clean_linker_1, # of connection points: 2
#     Edge 79, Type (0, 0), BuildingBlock: KIFKEQ_clean_linker_1, # of connection points: 2
#     Edge 80, Type (0, 0), BuildingBlock: KIFKEQ_clean_linker_1, # of connection points: 2
#     Edge 81, Type (0, 0), BuildingBlock: KIFKEQ_clean_linker_1, # of connection points: 2
#     Edge 82, Type (0, 0), BuildingBlock: KIFKEQ_clean_linker_1, # of connection points: 2
#     Edge 83, Type (0, 0), BuildingBlock: KIFKEQ_clean_linker_1, # of connection points: 2
#     Edge 84, Type (0, 0), BuildingBlock: KIFKEQ_clean_linker_1, # of connection points: 2
#     Edge 85, Type (0, 0), BuildingBlock: KIFKEQ_clean_linker_1, # of connection points: 2
#     Edge 86, Type (0, 0), BuildingBlock: KIFKEQ_clean_linker_1, # of connection points: 2
#     Edge 87, Type (0, 0), BuildingBlock: KIFKEQ_clean_linker_1, # of connection points: 2
#     Edge 88, Type (0, 0), BuildingBlock: KIFKEQ_clean_linker_1, # of connection points: 2
#     Edge 89, Type (0, 0), BuildingBlock: KIFKEQ_clean_linker_1, # of connection points: 2
#     Edge 90, Type (0, 0), BuildingBlock: KIFKEQ_clean_linker_1, # of connection points: 2
#     Edge 91, Type (0, 0), BuildingBlock: KIFKEQ_clean_linker_1, # of connection points: 2
#     Edge 92, Type (0, 0), BuildingBlock: KIFKEQ_clean_linker_1, # of connection points: 2
#     Edge 93, Type (0, 0), BuildingBlock: KIFKEQ_clean_linker_1, # of connection points: 2
#     Edge 94, Type (0, 0), BuildingBlock: KIFKEQ_clean_linker_1, # of connection points: 2
#     Edge 95, Type (0, 0), BuildingBlock: KIFKEQ_clean_linker_1, # of connection points: 2
# Relax obj value: 0.043
# Max RMSD: 0.060
# Mean RMSD: 0.060
data_MOF--net-uos--node1-KUFVIS_clean_sbu_0--edge1-KIFKEQ_clean_linker_1
_symmetry_space_group_name_H-M    P1
_symmetry_Int_Tables_number       1
_symmetry_cell_setting            triclinic
loop_
_symmetry_equiv_pos_as_xyz
'x, y, z'
_cell_length_a     86.368779
_cell_length_b     86.396305
_cell_length_c     23.249996
_cell_angle_alpha  89.972311
_cell_angle_beta   90.052358
_cell_angle_gamma 89.987063
loop_
_atom_site_label
_atom_site_type_symbol
_atom_site_fract_x
_atom_site_fract_y
_atom_site_fract_z
_atom_type_partial_charge
Mn0 Mn 0.17284 0.16686 0.13633 0.0
Mn1 Mn 0.17082 0.18671 0.26158 0.0
C2 C 0.16532 0.15451 0.22024 0.0
C3 C 0.16099 0.15763 0.05163 0.0
C4 C 0.20103 0.17471 0.21332 0.0
O5 O 0.17287 0.18937 0.10864 0.0
O6 O 0.17239 0.20113 0.19519 0.0
C7 C 0.1399 0.20051 0.24121 0.0
N8 N 0.14963 0.19199 0.27479 0.0
C9 C 0.1299 0.18857 0.34669 0.0
C10 C 0.1197 0.19739 0.31304 0.0
C11 C 0.12471 0.20334 0.25997 0.0
C12 C 0.14487 0.18608 0.32563 0.0
H13 H 0.14371 0.20511 0.20041 0.0
C14 C 0.17299 0.20146 0.14023 0.0
O15 O 0.17595 0.15881 0.05583 0.0
O16 O 0.15303 0.16247 0.09522 0.0
N17 N 0.16922 0.17462 0.33031 0.0
C18 C 0.18036 0.16602 0.35692 0.0
C19 C 0.17714 0.15909 0.41022 0.0
C20 C 0.16261 0.16128 0.43609 0.0
C21 C 0.15145 0.17045 0.40849 0.0
C22 C 0.15533 0.17707 0.35543 0.0
H23 H 0.19158 0.16437 0.33741 0.0
O24 O 0.17076 0.14663 0.17737 0.0
O25 O 0.16427 0.1694 0.21279 0.0
O26 O 0.19541 0.16918 0.16647 0.0
O27 O 0.19276 0.1813 0.25169 0.0
C28 C 0.13658 0.17314 0.43122 0.0
C29 C 0.12576 0.18207 0.40011 0.0
H30 H 0.10797 0.1996 0.32738 0.0
H31 H 0.11689 0.2101 0.23365 0.0
H32 H 0.18583 0.15206 0.43133 0.0
H33 H 0.16013 0.15583 0.47702 0.0
H34 H 0.13328 0.16824 0.47232 0.0
H35 H 0.11428 0.18384 0.41763 0.0
Mn36 Mn 0.09718 0.92338 0.38463 0.0
Mn37 Mn 0.07743 0.91966 0.50945 0.0
C38 C 0.10978 0.91508 0.46739 0.0
C39 C 0.10588 0.91212 0.29823 0.0
C40 C 0.08792 0.95077 0.46136 0.0
O41 O 0.07448 0.92398 0.35837 0.0
O42 O 0.06286 0.91885 0.44329 0.0
C43 C 0.06703 0.88725 0.49463 0.0
N44 N 0.07437 0.89824 0.5265 0.0
C45 C 0.07965 0.87995 0.60211 0.0
C46 C 0.07195 0.86848 0.57044 0.0
C47 C 0.06569 0.87213 0.51631 0.0
C48 C 0.08067 0.89479 0.57818 0.0
H49 H 0.0623 0.89 0.4529 0.0
C50 C 0.06249 0.92114 0.38887 0.0
O51 O 0.10516 0.92706 0.30442 0.0
O52 O 0.10095 0.90388 0.34096 0.0
N53 N 0.08995 0.92007 0.57746 0.0
C54 C 0.09781 0.93219 0.601 0.0
C55 C 0.10517 0.93033 0.65445 0.0
C56 C 0.10421 0.91611 0.6835 0.0
C57 C 0.09589 0.90387 0.65879 0.0
C58 C 0.08878 0.9064 0.60546 0.0
H59 H 0.09855 0.94317 0.57907 0.0
O60 O 0.1176 0.92067 0.42463 0.0
O61 O 0.0949 0.91425 0.46012 0.0
O62 O 0.0951 0.94555 0.41723 0.0
O63 O 0.08053 0.94208 0.49646 0.0
C64 C 0.09453 0.88918 0.68466 0.0
C65 C 0.08655 0.87719 0.65611 0.0
H66 H 0.07091 0.85681 0.587 0.0
H67 H 0.05985 0.86331 0.49136 0.0
H68 H 0.11157 0.93984 0.67321 0.0
H69 H 0.10998 0.91469 0.72455 0.0
H70 H 0.09984 0.88691 0.72604 0.0
H71 H 0.08589 0.86585 0.67585 0.0
Mn72 Mn 0.34196 0.84898 0.62906 0.0
Mn73 Mn 0.34392 0.82909 0.75427 0.0
C74 C 0.34969 0.86123 0.71272 0.0
C75 C 0.35387 0.85797 0.54433 0.0
C76 C 0.31382 0.8416 0.70674 0.0
O77 O 0.34161 0.8265 0.60135 0.0
O78 O 0.34188 0.81475 0.68791 0.0
C79 C 0.37452 0.81477 0.73265 0.0
N80 N 0.36505 0.82343 0.76666 0.0
C81 C 0.38507 0.82643 0.83787 0.0
C82 C 0.395 0.81747 0.80376 0.0
C83 C 0.38972 0.81167 0.75082 0.0
C84 C 0.37007 0.82921 0.81736 0.0
H85 H 0.37051 0.81028 0.69195 0.0
C86 C 0.34124 0.81443 0.63295 0.0
O87 O 0.33888 0.85704 0.54853 0.0
O88 O 0.36178 0.85305 0.58794 0.0
N89 N 0.34593 0.84107 0.82308 0.0
C90 C 0.335 0.84977 0.85031 0.0
C91 C 0.3385 0.85656 0.90364 0.0
C92 C 0.35308 0.85411 0.92891 0.0
C93 C 0.364 0.84482 0.90071 0.0
C94 C 0.35986 0.83836 0.84765 0.0
H95 H 0.32375 0.85162 0.83127 0.0
O96 O 0.34432 0.86917 0.66983 0.0
O97 O 0.35059 0.84633 0.70538 0.0
O98 O 0.3194 0.84695 0.65956 0.0
O99 O 0.32207 0.83492 0.74506 0.0
C100 C 0.3789 0.84185 0.92287 0.0
C101 C 0.38947 0.83278 0.89123 0.0
H102 H 0.40673 0.81504 0.81766 0.0
H103 H 0.39734 0.80479 0.72415 0.0
H104 H 0.32998 0.86367 0.92522 0.0
H105 H 0.35577 0.85944 0.96987 0.0
H106 H 0.3824 0.84662 0.96394 0.0
H107 H 0.40097 0.83079 0.90832 0.0
Mn108 Mn 0.41779 0.09256 0.88502 0.0
Mn109 Mn 0.43731 0.09476 0.01101 0.0
C110 C 0.40524 0.10024 0.96834 0.0
C111 C 0.40873 0.10433 0.79989 0.0
C112 C 0.42558 0.06447 0.96259 0.0
O113 O 0.44036 0.09251 0.85817 0.0
O114 O 0.45187 0.09302 0.94526 0.0
C115 C 0.45117 0.12561 0.99043 0.0
N116 N 0.44253 0.11597 0.02386 0.0
C117 C 0.43882 0.13587 0.09489 0.0
C118 C 0.44775 0.14599 0.06139 0.0
C119 C 0.4539 0.14085 0.00883 0.0
C120 C 0.43642 0.12085 0.07418 0.0
H121 H 0.45593 0.1217 0.95004 0.0
C122 C 0.45236 0.09234 0.89031 0.0
O123 O 0.40992 0.08937 0.80425 0.0
O124 O 0.41347 0.11232 0.84357 0.0
N125 N 0.42502 0.09649 0.07917 0.0
C126 C 0.41643 0.08537 0.10588 0.0
C127 C 0.40936 0.0887 0.15883 0.0
C128 C 0.4114 0.10331 0.18423 0.0
C129 C 0.42057 0.11444 0.15655 0.0
C130 C 0.42733 0.11046 0.10388 0.0
H131 H 0.41489 0.0741 0.08672 0.0
O132 O 0.39745 0.09469 0.92538 0.0
O133 O 0.42015 0.10123 0.96137 0.0
O134 O 0.42015 0.07003 0.91545 0.0
O135 O 0.43194 0.0728 1.00136 0.0
C136 C 0.42316 0.12936 0.17894 0.0
C137 C 0.43216 0.14012 0.14788 0.0
H138 H 0.44991 0.15774 0.07548 0.0
H139 H 0.46076 0.1486 0.98263 0.0
H140 H 0.40235 0.08003 0.18 0.0
H141 H 0.40586 0.10586 0.2249 0.0
H142 H 0.41815 0.13274 0.21974 0.0
H143 H 0.43386 0.15164 0.16513 0.0
Mn144 Mn 0.17163 0.84953 0.88098 0.0
Mn145 Mn 0.16913 0.82927 0.75664 0.0
C146 C 0.16301 0.86145 0.79769 0.0
C147 C 0.1602 0.85839 0.96688 0.0
C148 C 0.19937 0.84229 0.80138 0.0
O149 O 0.17282 0.82711 0.90928 0.0
O150 O 0.17143 0.81508 0.82337 0.0
C151 C 0.13865 0.81492 0.78014 0.0
N152 N 0.14797 0.82353 0.7454 0.0
C153 C 0.1277 0.82639 0.67516 0.0
C154 C 0.11791 0.81747 0.71001 0.0
C155 C 0.1234 0.81176 0.76282 0.0
C156 C 0.14276 0.82922 0.69481 0.0
H157 H 0.14283 0.81051 0.82076 0.0
C158 C 0.17272 0.81493 0.87818 0.0
O159 O 0.17515 0.85805 0.96051 0.0
O160 O 0.15206 0.85301 0.92461 0.0
N161 N 0.16685 0.84112 0.68757 0.0
C162 C 0.17767 0.84976 0.65951 0.0
C163 C 0.17397 0.85644 0.60615 0.0
C164 C 0.1593 0.85394 0.58172 0.0
C165 C 0.14849 0.8447 0.61075 0.0
C166 C 0.15284 0.83833 0.66376 0.0
H167 H 0.18899 0.85165 0.67789 0.0
O168 O 0.16842 0.86958 0.83998 0.0
O169 O 0.16251 0.84654 0.80549 0.0
O170 O 0.19396 0.84802 0.84816 0.0
O171 O 0.19102 0.83516 0.76453 0.0
C172 C 0.13351 0.8417 0.58949 0.0
C173 C 0.12307 0.83267 0.62189 0.0
H174 H 0.10613 0.81499 0.69677 0.0
H175 H 0.11589 0.80491 0.79006 0.0
H176 H 0.1824 0.86351 0.58391 0.0
H177 H 0.15645 0.8592 0.54075 0.0
H178 H 0.12984 0.84642 0.54851 0.0
H179 H 0.11151 0.83064 0.60546 0.0
Mn180 Mn 0.41705 0.92157 0.1242 0.0
Mn181 Mn 0.43583 0.91842 0.99719 0.0
C182 C 0.4037 0.91446 0.04158 0.0
C183 C 0.40831 0.9099 0.20972 0.0
C184 C 0.42655 0.94934 0.04973 0.0
O185 O 0.43994 0.92107 0.14852 0.0
O186 O 0.4508 0.91669 0.06175 0.0
C187 C 0.44532 0.8856 0.00778 0.0
N188 N 0.43818 0.89708 0.97759 0.0
C189 C 0.43205 0.87962 0.90026 0.0
C190 C 0.43957 0.86767 0.93005 0.0
C191 C 0.44614 0.87066 0.98424 0.0
C192 C 0.43153 0.89425 0.92601 0.0
H193 H 0.45023 0.88783 0.04963 0.0
C194 C 0.45165 0.91831 0.11643 0.0
O195 O 0.40988 0.92483 0.20566 0.0
O196 O 0.41258 0.90186 0.16554 0.0
N197 N 0.42288 0.91973 0.93047 0.0
C198 C 0.41519 0.93225 0.90903 0.0
C199 C 0.40748 0.93105 0.85602 0.0
C200 C 0.40793 0.91707 0.82522 0.0
C201 C 0.41609 0.90442 0.84776 0.0
C202 C 0.42355 0.9063 0.90079 0.0
H203 H 0.41489 0.94306 0.93223 0.0
O204 O 0.39631 0.91999 0.0855 0.0
O205 O 0.41857 0.91309 0.04757 0.0
O206 O 0.41969 0.94392 0.0942 0.0
O207 O 0.43342 0.94079 0.01279 0.0
C208 C 0.41698 0.88997 0.81998 0.0
C209 C 0.42484 0.87753 0.84643 0.0
H210 H 0.44021 0.85612 0.91207 0.0
H211 H 0.45181 0.86145 0.00782 0.0
H212 H 0.40121 0.94087 0.83891 0.0
H213 H 0.40191 0.91617 0.78448 0.0
H214 H 0.41139 0.88819 0.77878 0.0
H215 H 0.42511 0.86636 0.82529 0.0
Mn216 Mn 0.34412 0.16708 0.3796 0.0
Mn217 Mn 0.34635 0.18687 0.25418 0.0
C218 C 0.35173 0.15467 0.29598 0.0
C219 C 0.35583 0.1579 0.46464 0.0
C220 C 0.31604 0.17501 0.30221 0.0
O221 O 0.34408 0.18962 0.407 0.0
O222 O 0.34487 0.20135 0.32036 0.0
C223 C 0.37736 0.20043 0.27455 0.0
N224 N 0.3676 0.19194 0.24107 0.0
C225 C 0.3874 0.18812 0.16972 0.0
C226 C 0.39764 0.1969 0.20327 0.0
C227 C 0.39261 0.20303 0.25601 0.0
C228 C 0.37237 0.18585 0.19056 0.0
H229 H 0.37355 0.20516 0.31511 0.0
C230 C 0.34414 0.2017 0.3753 0.0
O231 O 0.34087 0.1591 0.46012 0.0
O232 O 0.36386 0.16269 0.42117 0.0
N233 N 0.34788 0.17469 0.18567 0.0
C234 C 0.33665 0.16627 0.1589 0.0
C235 C 0.33985 0.15924 0.10576 0.0
C236 C 0.35446 0.16116 0.08025 0.0
C237 C 0.36571 0.17017 0.10798 0.0
C238 C 0.36185 0.1769 0.16082 0.0
H239 H 0.32536 0.16484 0.17812 0.0
O240 O 0.34624 0.14682 0.33886 0.0
O241 O 0.35278 0.16956 0.30328 0.0
O242 O 0.32161 0.16941 0.34902 0.0
O243 O 0.32435 0.18164 0.26401 0.0
C244 C 0.38065 0.17261 0.0855 0.0
C245 C 0.39154 0.18146 0.11659 0.0
H246 H 0.40941 0.19895 0.18908 0.0
H247 H 0.40047 0.20977 0.28225 0.0
H248 H 0.33108 0.15236 0.08454 0.0
H249 H 0.35692 0.15563 0.03945 0.0
H250 H 0.38395 0.1676 0.04461 0.0
H251 H 0.40306 0.18306 0.09926 0.0
Mn252 Mn 0.09837 0.09312 0.63108 0.0
Mn253 Mn 0.07919 0.0967 0.50489 0.0
C254 C 0.11149 0.10052 0.54822 0.0
C255 C 0.10732 0.1047 0.71671 0.0
C256 C 0.08856 0.06558 0.55589 0.0
O257 O 0.07558 0.09349 0.65618 0.0
O258 O 0.06439 0.09816 0.57005 0.0
C259 C 0.06958 0.12944 0.51713 0.0
N260 N 0.07673 0.11811 0.48633 0.0
C261 C 0.08265 0.13588 0.40969 0.0
C262 C 0.07514 0.14769 0.44021 0.0
C263 C 0.06867 0.14447 0.49434 0.0
C264 C 0.08325 0.12115 0.43472 0.0
H265 H 0.06471 0.12703 0.55889 0.0
C266 C 0.06375 0.0963 0.62467 0.0
O267 O 0.10581 0.08977 0.71239 0.0
O268 O 0.10291 0.11278 0.67275 0.0
N269 N 0.09195 0.09567 0.43769 0.0
C270 C 0.09966 0.08326 0.41555 0.0
C271 C 0.10726 0.08469 0.36244 0.0
C272 C 0.10669 0.09877 0.3323 0.0
C273 C 0.09854 0.11131 0.35561 0.0
C274 C 0.09119 0.10921 0.40869 0.0
H275 H 0.1001 0.07239 0.43833 0.0
O276 O 0.119 0.09485 0.59167 0.0
O277 O 0.09663 0.10185 0.55479 0.0
O278 O 0.09559 0.07081 0.6004 0.0
O279 O 0.08168 0.0743 0.51945 0.0
C280 C 0.09757 0.12587 0.32859 0.0
C281 C 0.08975 0.13819 0.35584 0.0
H282 H 0.07443 0.1593 0.4228 0.0
H283 H 0.06299 0.15356 0.51843 0.0
H284 H 0.11354 0.07495 0.34477 0.0
H285 H 0.11264 0.09985 0.29149 0.0
H286 H 0.10308 0.12782 0.28738 0.0
H287 H 0.08941 0.14944 0.33526 0.0
Mn288 Mn 0.84195 0.84712 0.88303 0.0
Mn289 Mn 0.84445 0.82726 0.75785 0.0
C290 C 0.85024 0.85937 0.79986 0.0
C291 C 0.85343 0.85597 0.96897 0.0
C292 C 0.81407 0.83947 0.80441 0.0
O293 O 0.84126 0.8246 0.91049 0.0
O294 O 0.84268 0.81283 0.82405 0.0
C295 C 0.8753 0.81346 0.77949 0.0
N296 N 0.86569 0.82202 0.74557 0.0
C297 C 0.88572 0.82566 0.67497 0.0
C298 C 0.8958 0.8168 0.70898 0.0
C299 C 0.89058 0.81073 0.76156 0.0
C300 C 0.87065 0.82806 0.69522 0.0
H301 H 0.87133 0.80877 0.81994 0.0
C302 C 0.84153 0.81251 0.87889 0.0
O303 O 0.83847 0.85537 0.96294 0.0
O304 O 0.86158 0.85086 0.92629 0.0
N305 N 0.84627 0.83942 0.68933 0.0
C306 C 0.83517 0.8479 0.66203 0.0
C307 C 0.83856 0.85486 0.60891 0.0
C308 C 0.85322 0.85283 0.58397 0.0
C309 C 0.86434 0.84376 0.61225 0.0
C310 C 0.86029 0.83708 0.66502 0.0
H311 H 0.82385 0.84945 0.68083 0.0
O312 O 0.84475 0.86733 0.84243 0.0
O313 O 0.85093 0.84447 0.80724 0.0
O314 O 0.81955 0.84524 0.85104 0.0
O315 O 0.82244 0.83265 0.76685 0.0
C316 C 0.87933 0.84119 0.59037 0.0
C317 C 0.89006 0.83226 0.62195 0.0
H318 H 0.90759 0.81465 0.69527 0.0
H319 H 0.89831 0.80393 0.78816 0.0
H320 H 0.82989 0.8618 0.58727 0.0
H321 H 0.85584 0.8583 0.5432 0.0
H322 H 0.88277 0.84616 0.54956 0.0
H323 H 0.90162 0.83057 0.60507 0.0
Mn324 Mn 0.91674 0.09284 0.63075 0.0
Mn325 Mn 0.93654 0.09467 0.5053 0.0
C326 C 0.90458 0.10123 0.54757 0.0
C327 C 0.90814 0.10449 0.71648 0.0
C328 C 0.92362 0.0647 0.55275 0.0
O329 O 0.93928 0.09178 0.65799 0.0
O330 O 0.95101 0.09271 0.5714 0.0
C331 C 0.95112 0.12521 0.52569 0.0
N332 N 0.9423 0.11574 0.4922 0.0
C333 C 0.93916 0.13565 0.42074 0.0
C334 C 0.94829 0.14559 0.45429 0.0
C335 C 0.95424 0.14035 0.50709 0.0
C336 C 0.93638 0.12071 0.44163 0.0
H337 H 0.95572 0.12123 0.5663 0.0
C338 C 0.95135 0.09172 0.6263 0.0
O339 O 0.9085 0.08953 0.71064 0.0
O340 O 0.91338 0.11255 0.67374 0.0
N341 N 0.92436 0.09664 0.43688 0.0
C342 C 0.91549 0.08573 0.41025 0.0
C343 C 0.90854 0.08919 0.35715 0.0
C344 C 0.91098 0.10371 0.33151 0.0
C345 C 0.92042 0.11462 0.3591 0.0
C346 C 0.92706 0.11052 0.41193 0.0
H347 H 0.91366 0.07452 0.42956 0.0
O348 O 0.89656 0.09596 0.59038 0.0
O349 O 0.91952 0.10165 0.5547 0.0
O350 O 0.91807 0.0704 0.59931 0.0
O351 O 0.93064 0.07283 0.51496 0.0
C352 C 0.92339 0.12946 0.33655 0.0
C353 C 0.93264 0.14002 0.36758 0.0
H354 H 0.95074 0.15727 0.44006 0.0
H355 H 0.96125 0.14797 0.53334 0.0
H356 H 0.9013 0.08069 0.33604 0.0
H357 H 0.90551 0.10638 0.29075 0.0
H358 H 0.91849 0.13293 0.29564 0.0
H359 H 0.93463 0.15148 0.35019 0.0
Mn360 Mn 0.674 0.16764 0.38421 0.0
Mn361 Mn 0.67077 0.18805 0.26083 0.0
C362 C 0.66603 0.15542 0.3004 0.0
C363 C 0.66237 0.15883 0.46972 0.0
C364 C 0.70166 0.17775 0.31149 0.0
O365 O 0.67463 0.1903 0.41126 0.0
O366 O 0.66877 0.20224 0.3275 0.0
C367 C 0.63796 0.19767 0.27024 0.0
N368 N 0.6495 0.19062 0.2402 0.0
C369 C 0.6323 0.1851 0.16137 0.0
C370 C 0.62027 0.19245 0.1912 0.0
C371 C 0.6231 0.1987 0.246 0.0
C372 C 0.64686 0.1844 0.18777 0.0
H373 H 0.64009 0.20241 0.31244 0.0
C374 C 0.67125 0.20236 0.38182 0.0
O375 O 0.67734 0.15943 0.46428 0.0
O376 O 0.6543 0.16391 0.4267 0.0
N377 N 0.67235 0.17576 0.19259 0.0
C378 C 0.68491 0.16814 0.17122 0.0
C379 C 0.68385 0.16074 0.1176 0.0
C380 C 0.66997 0.1614 0.08619 0.0
C381 C 0.65726 0.16946 0.10873 0.0
C382 C 0.659 0.17663 0.16235 0.0
H383 H 0.69565 0.16768 0.19492 0.0
O384 O 0.67131 0.14739 0.34322 0.0
O385 O 0.66525 0.17027 0.30844 0.0
O386 O 0.69626 0.16958 0.35283 0.0
O387 O 0.69312 0.18568 0.27747 0.0
C388 C 0.64286 0.17047 0.08048 0.0
C389 C 0.63036 0.17819 0.10694 0.0
H390 H 0.60878 0.19322 0.17271 0.0
H391 H 0.61384 0.20428 0.26949 0.0
H392 H 0.69372 0.15455 0.1005 0.0
H393 H 0.66916 0.1556 0.04501 0.0
H394 H 0.64119 0.16509 0.03887 0.0
H395 H 0.61924 0.17858 0.08536 0.0
Mn396 Mn 0.59863 0.92412 0.13535 0.0
Mn397 Mn 0.57872 0.92186 0.01013 0.0
C398 C 0.61105 0.91684 0.0512 0.0
C399 C 0.60787 0.91209 0.21974 0.0
C400 C 0.58992 0.95229 0.06008 0.0
O401 O 0.5761 0.92383 0.16283 0.0
O402 O 0.56425 0.92229 0.07647 0.0
C403 C 0.56618 0.89028 0.0269 0.0
N404 N 0.57431 0.9006 0.99451 0.0
C405 C 0.57842 0.88166 0.92022 0.0
C406 C 0.57002 0.87085 0.95262 0.0
C407 C 0.56393 0.87517 1.00629 0.0
C408 C 0.58035 0.89652 0.9431 0.0
H409 H 0.56148 0.89356 0.06814 0.0
C410 C 0.56399 0.9231 0.1314 0.0
O411 O 0.60661 0.92706 0.21614 0.0
O412 O 0.60317 0.90424 0.17567 0.0
N413 N 0.59097 0.92127 0.94161 0.0
C414 C 0.59934 0.93286 0.91683 0.0
C415 C 0.60645 0.93033 0.86335 0.0
C416 C 0.6047 0.91601 0.83552 0.0
C417 C 0.59582 0.90435 0.86142 0.0
C418 C 0.58901 0.90753 0.91474 0.0
H419 H 0.60068 0.94391 0.93789 0.0
O420 O 0.6189 0.92229 0.09419 0.0
O421 O 0.59619 0.91568 0.05874 0.0
O422 O 0.59602 0.94671 0.10599 0.0
O423 O 0.5832 0.94394 0.02218 0.0
C424 C 0.59362 0.88963 0.83674 0.0
C425 C 0.58506 0.87824 0.86636 0.0
H426 H 0.56825 0.85919 0.93686 0.0
H427 H 0.55749 0.86687 0.03166 0.0
H428 H 0.61327 0.9394 0.84364 0.0
H429 H 0.61028 0.91407 0.79444 0.0
H430 H 0.59867 0.88686 0.79536 0.0
H431 H 0.58371 0.86686 0.84744 0.0
Mn432 Mn 0.84294 0.16711 0.13416 0.0
Mn433 Mn 0.84663 0.18738 0.25753 0.0
C434 C 0.8511 0.15475 0.2175 0.0
C435 C 0.8543 0.15842 0.04803 0.0
C436 C 0.81554 0.1773 0.20798 0.0
O437 O 0.84226 0.18979 0.10743 0.0
O438 O 0.84855 0.20162 0.19091 0.0
C439 C 0.87948 0.19671 0.24688 0.0
N440 N 0.86798 0.18972 0.2773 0.0
C441 C 0.8854 0.18383 0.35511 0.0
C442 C 0.8974 0.19112 0.32489 0.0
C443 C 0.89444 0.19752 0.27041 0.0
C444 C 0.87074 0.18335 0.32941 0.0
H445 H 0.87725 0.20157 0.20491 0.0
C446 C 0.84584 0.20181 0.13674 0.0
O447 O 0.83934 0.15904 0.0541 0.0
O448 O 0.8625 0.16339 0.09083 0.0
N449 N 0.84513 0.17504 0.32573 0.0
C450 C 0.83252 0.16765 0.34778 0.0
C451 C 0.83367 0.16019 0.4013 0.0
C452 C 0.84769 0.16058 0.43193 0.0
C453 C 0.86044 0.16844 0.40875 0.0
C454 C 0.8586 0.17568 0.35528 0.0
H455 H 0.82168 0.1674 0.3247 0.0
O456 O 0.84569 0.14679 0.17475 0.0
O457 O 0.8519 0.1696 0.20961 0.0
O458 O 0.82078 0.1691 0.16649 0.0
O459 O 0.82421 0.18519 0.24164 0.0
C460 C 0.87496 0.1692 0.43624 0.0
C461 C 0.88746 0.1768 0.40928 0.0
H462 H 0.90896 0.19173 0.34284 0.0
H463 H 0.90367 0.20306 0.24662 0.0
H464 H 0.82377 0.15417 0.41893 0.0
H465 H 0.84856 0.15474 0.47304 0.0
H466 H 0.87671 0.16373 0.47768 0.0
H467 H 0.89866 0.17701 0.43031 0.0
Mn468 Mn 0.59932 0.09428 0.88798 0.0
Mn469 Mn 0.57969 0.09812 0.01298 0.0
C470 C 0.61202 0.10264 0.97035 0.0
C471 C 0.60788 0.10542 0.80122 0.0
C472 C 0.59025 0.067 0.96547 0.0
O473 O 0.5766 0.09359 0.86207 0.0
O474 O 0.56506 0.09885 0.94699 0.0
C475 C 0.56925 0.13051 0.9977 0.0
N476 N 0.57658 0.11954 0.02977 0.0
C477 C 0.58168 0.13784 0.10544 0.0
C478 C 0.57397 0.14928 0.07361 0.0
C479 C 0.56781 0.14562 0.01933 0.0
C480 C 0.58279 0.12301 0.08156 0.0
H481 H 0.56463 0.12776 0.95584 0.0
C482 C 0.56463 0.09648 0.89263 0.0
O483 O 0.6072 0.09049 0.80777 0.0
O484 O 0.60299 0.11373 0.84382 0.0
N485 N 0.59224 0.09779 0.08091 0.0
C486 C 0.60022 0.08572 0.1044 0.0
C487 C 0.60758 0.08763 0.15782 0.0
C488 C 0.60647 0.10183 0.18692 0.0
C489 C 0.59803 0.11401 0.16227 0.0
C490 C 0.59095 0.11143 0.10892 0.0
H491 H 0.60105 0.07475 0.08246 0.0
O492 O 0.61978 0.09704 0.92747 0.0
O493 O 0.59713 0.1035 0.96337 0.0
O494 O 0.59737 0.07217 0.92112 0.0
O495 O 0.58283 0.0757 1.00038 0.0
C496 C 0.59654 0.12866 0.18817 0.0
C497 C 0.5885 0.14062 0.15953 0.0
H498 H 0.57286 0.16095 0.09012 0.0
H499 H 0.56198 0.15442 0.99423 0.0
H500 H 0.61407 0.07817 0.17655 0.0
H501 H 0.61223 0.10329 0.22797 0.0
H502 H 0.60179 0.13095 0.22962 0.0
H503 H 0.58777 0.15196 0.17926 0.0
Mn504 Mn 0.67118 0.84861 0.64091 0.0
Mn505 Mn 0.66804 0.82998 0.76837 0.0
C506 C 0.66407 0.86207 0.72334 0.0
C507 C 0.65953 0.85731 0.5551 0.0
C508 C 0.69897 0.83917 0.71562 0.0
O509 O 0.67067 0.82568 0.61709 0.0
O510 O 0.66632 0.81492 0.70413 0.0
C511 C 0.63523 0.82044 0.75804 0.0
N512 N 0.6467 0.82762 0.78806 0.0
C513 C 0.62926 0.83377 0.86539 0.0
C514 C 0.61731 0.82621 0.83576 0.0
C515 C 0.62029 0.81961 0.78166 0.0
C516 C 0.64389 0.83429 0.83958 0.0
H517 H 0.63745 0.8155 0.71626 0.0
C518 C 0.66796 0.814 0.64947 0.0
O519 O 0.67446 0.85571 0.5593 0.0
O520 O 0.65147 0.85309 0.59931 0.0
N521 N 0.66934 0.843 0.83481 0.0
C522 C 0.68184 0.85078 0.85595 0.0
C523 C 0.68063 0.85856 0.90878 0.0
C524 C 0.66668 0.85808 0.93971 0.0
C525 C 0.65405 0.84983 0.91747 0.0
C526 C 0.65593 0.84231 0.8646 0.0
H527 H 0.69263 0.85112 0.83262 0.0
O528 O 0.66961 0.86939 0.67926 0.0
O529 O 0.66268 0.8472 0.71763 0.0
O530 O 0.69355 0.84597 0.67097 0.0
O531 O 0.69041 0.83238 0.75274 0.0
C532 C 0.6396 0.84894 0.94533 0.0
C533 C 0.62717 0.84103 0.91909 0.0
H534 H 0.60577 0.82556 0.85381 0.0
H535 H 0.61109 0.8139 0.75821 0.0
H536 H 0.69044 0.8649 0.92565 0.0
H537 H 0.66577 0.86416 0.98031 0.0
H538 H 0.63783 0.85457 0.98642 0.0
H539 H 0.61601 0.84076 0.94028 0.0
Mn540 Mn 0.91563 0.92179 0.3871 0.0
Mn541 Mn 0.93547 0.91983 0.51261 0.0
C542 C 0.90355 0.91317 0.47009 0.0
C543 C 0.90709 0.91022 0.30098 0.0
C544 C 0.92233 0.9498 0.46621 0.0
O545 O 0.93815 0.92311 0.35989 0.0
O546 O 0.94985 0.92229 0.44661 0.0
C547 C 0.9504 0.88956 0.49035 0.0
N548 N 0.94148 0.89877 0.52441 0.0
C549 C 0.93854 0.87847 0.59446 0.0
C550 C 0.94777 0.8688 0.5603 0.0
C551 C 0.95368 0.87435 0.50792 0.0
C552 C 0.9356 0.89349 0.57457 0.0
H553 H 0.95496 0.89378 0.45007 0.0
C554 C 0.95021 0.9234 0.39174 0.0
O555 O 0.90733 0.92517 0.30721 0.0
O556 O 0.9124 0.90214 0.34357 0.0
N557 N 0.92341 0.91744 0.58106 0.0
C558 C 0.91461 0.92821 0.60875 0.0
C559 C 0.9078 0.92447 0.66179 0.0
C560 C 0.91031 0.90981 0.68628 0.0
C561 C 0.91972 0.89907 0.65767 0.0
C562 C 0.92623 0.90346 0.605 0.0
H563 H 0.91272 0.93952 0.59033 0.0
O564 O 0.89549 0.91846 0.42737 0.0
O565 O 0.91849 0.91285 0.46297 0.0
O566 O 0.91689 0.94419 0.41926 0.0
O567 O 0.92929 0.94162 0.50403 0.0
C568 C 0.92279 0.88413 0.67913 0.0
C569 C 0.93208 0.87379 0.64732 0.0
H570 H 0.95034 0.85707 0.57374 0.0
H571 H 0.96076 0.86694 0.48121 0.0
H572 H 0.90061 0.93285 0.68372 0.0
H573 H 0.90494 0.90693 0.72699 0.0
H574 H 0.91795 0.88042 0.71983 0.0
H575 H 0.93419 0.86226 0.66391 0.0
Mn576 Mn 0.67368 0.66673 0.63467 0.0
Mn577 Mn 0.6714 0.68645 0.76021 0.0
C578 C 0.66631 0.65421 0.71863 0.0
C579 C 0.66183 0.65747 0.54993 0.0
C580 C 0.70185 0.67527 0.71049 0.0
O581 O 0.67336 0.68931 0.60747 0.0
O582 O 0.67206 0.70102 0.69409 0.0
C583 C 0.63992 0.69921 0.74265 0.0
N584 N 0.65011 0.69094 0.77518 0.0
C585 C 0.6309 0.6866 0.8483 0.0
C586 C 0.62022 0.69515 0.81575 0.0
C587 C 0.62474 0.70143 0.7626 0.0
C588 C 0.64584 0.68472 0.82608 0.0
H589 H 0.64335 0.70405 0.70179 0.0
C590 C 0.67281 0.70138 0.63914 0.0
O591 O 0.67678 0.65883 0.55394 0.0
O592 O 0.65387 0.66214 0.59377 0.0
N593 N 0.67059 0.6741 0.82852 0.0
C594 C 0.68214 0.66576 0.85383 0.0
C595 C 0.67944 0.65854 0.90703 0.0
C596 C 0.66499 0.66016 0.93404 0.0
C597 C 0.65338 0.66903 0.90768 0.0
C598 C 0.65675 0.67597 0.8547 0.0
H599 H 0.69329 0.66452 0.8334 0.0
O600 O 0.67184 0.64642 0.67567 0.0
O601 O 0.66516 0.66908 0.71125 0.0
O602 O 0.69625 0.66935 0.66432 0.0
O603 O 0.69351 0.68185 0.74871 0.0
C604 C 0.63855 0.67113 0.9316 0.0
C605 C 0.62727 0.67979 0.90169 0.0
H606 H 0.6085 0.6969 0.831 0.0
H607 H 0.61655 0.70799 0.73712 0.0
H608 H 0.68846 0.65174 0.92714 0.0
H609 H 0.66291 0.6545 0.97488 0.0
H610 H 0.63564 0.66596 0.97264 0.0
H611 H 0.61582 0.68109 0.92008 0.0
Mn612 Mn 0.59811 0.42218 0.88495 0.0
Mn613 Mn 0.57845 0.41884 0.01008 0.0
C614 C 0.6107 0.41382 0.96757 0.0
C615 C 0.6066 0.41086 0.79846 0.0
C616 C 0.58933 0.44973 0.96147 0.0
O617 O 0.57539 0.42305 0.85904 0.0
O618 O 0.5638 0.41808 0.94414 0.0
C619 C 0.56772 0.38651 0.99599 0.0
N620 N 0.5752 0.39747 0.02757 0.0
C621 C 0.58046 0.3792 0.10328 0.0
C622 C 0.57261 0.36777 0.07193 0.0
C623 C 0.5663 0.37142 0.01789 0.0
C624 C 0.58156 0.39401 0.07914 0.0
H625 H 0.56297 0.38925 0.95431 0.0
C626 C 0.5634 0.42033 0.8897 0.0
O627 O 0.60602 0.4258 0.80473 0.0
O628 O 0.60161 0.40264 0.84118 0.0
N629 N 0.59103 0.41922 0.07794 0.0
C630 C 0.59894 0.43133 0.10133 0.0
C631 C 0.60634 0.42947 0.1547 0.0
C632 C 0.60535 0.41527 0.18386 0.0
C633 C 0.59694 0.40305 0.15937 0.0
C634 C 0.5898 0.40559 0.10612 0.0
H635 H 0.59968 0.44231 0.07937 0.0
O636 O 0.61854 0.41925 0.92456 0.0
O637 O 0.59581 0.41315 0.96059 0.0
O638 O 0.59642 0.44435 0.91744 0.0
O639 O 0.58177 0.44122 0.99664 0.0
C640 C 0.59553 0.3884 0.18542 0.0
C641 C 0.58742 0.37644 0.15716 0.0
H642 H 0.57151 0.35612 0.08866 0.0
H643 H 0.56035 0.36263 0.99317 0.0
H644 H 0.61279 0.43897 0.17333 0.0
H645 H 0.61114 0.41385 0.22485 0.0
H646 H 0.60088 0.38612 0.22672 0.0
H647 H 0.58671 0.36512 0.17704 0.0
Mn648 Mn 0.84325 0.34822 0.13143 0.0
Mn649 Mn 0.8452 0.32814 0.25635 0.0
C650 C 0.85183 0.36015 0.21465 0.0
C651 C 0.85493 0.35679 0.04569 0.0
C652 C 0.81524 0.34146 0.21027 0.0
O653 O 0.84193 0.32578 0.10365 0.0
O654 O 0.84286 0.31388 0.18993 0.0
C655 C 0.87553 0.31334 0.23409 0.0
N656 N 0.86626 0.32214 0.26832 0.0
C657 C 0.88644 0.32487 0.33899 0.0
C658 C 0.89618 0.31575 0.30467 0.0
C659 C 0.89072 0.31001 0.25189 0.0
C660 C 0.87146 0.32786 0.31887 0.0
H661 H 0.87138 0.3089 0.1935 0.0
C662 C 0.84175 0.31366 0.13506 0.0
O663 O 0.83996 0.35663 0.05165 0.0
O664 O 0.86295 0.35142 0.08833 0.0
N665 N 0.8475 0.34008 0.32515 0.0
C666 C 0.83674 0.34891 0.35271 0.0
C667 C 0.84042 0.35563 0.40599 0.0
C668 C 0.85501 0.35299 0.43086 0.0
C669 C 0.86577 0.34357 0.40234 0.0
C670 C 0.86144 0.33717 0.34938 0.0
H671 H 0.82547 0.3509 0.33399 0.0
O672 O 0.84659 0.36829 0.17206 0.0
O673 O 0.85217 0.34523 0.20722 0.0
O674 O 0.82084 0.34701 0.16348 0.0
O675 O 0.82341 0.33432 0.24767 0.0
C676 C 0.88066 0.34041 0.42409 0.0
C677 C 0.89105 0.33118 0.39221 0.0
H678 H 0.9079 0.31315 0.31828 0.0
H679 H 0.89818 0.30302 0.22505 0.0
H680 H 0.83203 0.36283 0.42783 0.0
H681 H 0.85785 0.35828 0.47176 0.0
H682 H 0.88431 0.34514 0.46504 0.0
H683 H 0.90255 0.32902 0.409 0.0
Mn684 Mn 0.91859 0.59136 0.38106 0.0
Mn685 Mn 0.93842 0.59361 0.50649 0.0
C686 C 0.90636 0.59964 0.46422 0.0
C687 C 0.90977 0.60295 0.29525 0.0
C688 C 0.92591 0.5634 0.45978 0.0
O689 O 0.94111 0.59057 0.35369 0.0
O690 O 0.95282 0.5915 0.44037 0.0
C691 C 0.95275 0.62417 0.48451 0.0
N692 N 0.94406 0.61475 0.51857 0.0
C693 C 0.94096 0.63483 0.58931 0.0
C694 C 0.94996 0.64472 0.55516 0.0
C695 C 0.95583 0.63938 0.50244 0.0
C696 C 0.93821 0.61982 0.56906 0.0
H697 H 0.9573 0.62011 0.44398 0.0
C698 C 0.95318 0.59049 0.38549 0.0
O699 O 0.9103 0.58799 0.30107 0.0
O700 O 0.91494 0.61103 0.33804 0.0
N701 N 0.92634 0.59569 0.57501 0.0
C702 C 0.91759 0.58481 0.60226 0.0
C703 C 0.91073 0.58836 0.65541 0.0
C704 C 0.91316 0.60295 0.68045 0.0
C705 C 0.92248 0.61385 0.65221 0.0
C706 C 0.92902 0.60965 0.59938 0.0
H707 H 0.91574 0.57355 0.58336 0.0
O708 O 0.89839 0.59421 0.42153 0.0
O709 O 0.92128 0.60028 0.457 0.0
O710 O 0.92036 0.56892 0.41281 0.0
O711 O 0.93266 0.57171 0.49771 0.0
C712 C 0.92542 0.62876 0.67412 0.0
C713 C 0.93453 0.63929 0.64245 0.0
H714 H 0.95238 0.65646 0.56887 0.0
H715 H 0.96274 0.64697 0.47574 0.0
H716 H 0.90359 0.57987 0.67699 0.0
H717 H 0.90777 0.60569 0.72125 0.0
H718 H 0.92058 0.63231 0.71501 0.0
H719 H 0.9365 0.65081 0.65934 0.0
Mn720 Mn 0.67278 0.34878 0.38163 0.0
Mn721 Mn 0.67068 0.32865 0.25694 0.0
C722 C 0.66418 0.3607 0.29836 0.0
C723 C 0.66119 0.35745 0.46739 0.0
C724 C 0.70071 0.34191 0.30249 0.0
O725 O 0.67407 0.32635 0.40966 0.0
O726 O 0.67312 0.31442 0.32349 0.0
C727 C 0.64038 0.31388 0.27993 0.0
N728 N 0.64961 0.32266 0.24543 0.0
C729 C 0.62932 0.32539 0.17516 0.0
C730 C 0.61962 0.3163 0.20977 0.0
C731 C 0.62516 0.31057 0.26247 0.0
C732 C 0.64434 0.32837 0.19494 0.0
H733 H 0.64459 0.30945 0.32046 0.0
C734 C 0.67426 0.31422 0.37836 0.0
O735 O 0.67615 0.35723 0.46127 0.0
O736 O 0.65312 0.35208 0.42491 0.0
N737 N 0.6683 0.34054 0.18802 0.0
C738 C 0.67904 0.34932 0.16011 0.0
C739 C 0.67529 0.35601 0.10683 0.0
C740 C 0.66065 0.3534 0.08232 0.0
C741 C 0.64992 0.34403 0.11119 0.0
C742 C 0.65432 0.33764 0.16411 0.0
H743 H 0.69034 0.35129 0.17855 0.0
O744 O 0.66947 0.36884 0.34083 0.0
O745 O 0.66379 0.34578 0.30595 0.0
O746 O 0.69516 0.34746 0.34934 0.0
O747 O 0.69249 0.33481 0.26517 0.0
C748 C 0.63498 0.34089 0.08981 0.0
C749 C 0.62464 0.3317 0.12199 0.0
H750 H 0.60788 0.31371 0.19642 0.0
H751 H 0.61773 0.3036 0.28952 0.0
H752 H 0.68366 0.36318 0.08472 0.0
H753 H 0.65776 0.35867 0.04142 0.0
H754 H 0.63127 0.34562 0.0489 0.0
H755 H 0.6131 0.32956 0.10548 0.0
Mn756 Mn 0.91836 0.42105 0.62792 0.0
Mn757 Mn 0.93785 0.4177 0.50244 0.0
C758 C 0.90563 0.41281 0.54547 0.0
C759 C 0.90992 0.40976 0.71451 0.0
C760 C 0.92717 0.44861 0.55149 0.0
O761 O 0.94113 0.42183 0.65338 0.0
O762 O 0.95258 0.41677 0.5681 0.0
C763 C 0.94838 0.38528 0.51589 0.0
N764 N 0.94095 0.39634 0.48458 0.0
C765 C 0.93553 0.37823 0.40858 0.0
C766 C 0.94333 0.3667 0.43965 0.0
C767 C 0.94971 0.37022 0.4937 0.0
C768 C 0.93453 0.393 0.43302 0.0
H769 H 0.95318 0.38793 0.55759 0.0
C770 C 0.95307 0.41903 0.62252 0.0
O771 O 0.91057 0.4247 0.70823 0.0
O772 O 0.91483 0.40152 0.67173 0.0
N773 N 0.92519 0.41826 0.43481 0.0
C774 C 0.91731 0.43045 0.41176 0.0
C775 C 0.90985 0.42872 0.35845 0.0
C776 C 0.91075 0.41456 0.329 0.0
C777 C 0.91912 0.40226 0.35314 0.0
C778 C 0.92633 0.40467 0.40636 0.0
H779 H 0.91664 0.4414 0.43394 0.0
O780 O 0.89787 0.41823 0.58865 0.0
O781 O 0.92053 0.41206 0.5522 0.0
O782 O 0.92009 0.44322 0.59551 0.0
O783 O 0.93469 0.44008 0.51622 0.0
C784 C 0.92044 0.38764 0.3268 0.0
C785 C 0.92851 0.37559 0.35473 0.0
H786 H 0.94436 0.35507 0.42269 0.0
H787 H 0.95562 0.36135 0.51819 0.0
H788 H 0.90343 0.43828 0.34009 0.0
H789 H 0.90491 0.41323 0.28805 0.0
H790 H 0.91504 0.38546 0.28552 0.0
H791 H 0.92915 0.3643 0.33462 0.0
Mn792 Mn 0.8445 0.66566 0.87671 0.0
Mn793 Mn 0.84797 0.68532 0.75158 0.0
C794 C 0.85274 0.65302 0.79399 0.0
C795 C 0.85588 0.6571 0.96326 0.0
C796 C 0.81697 0.67479 0.80039 0.0
O797 O 0.8438 0.68839 0.90254 0.0
O798 O 0.84897 0.69993 0.81749 0.0
C799 C 0.88046 0.69562 0.76541 0.0
N800 N 0.86936 0.68833 0.73385 0.0
C801 C 0.88745 0.68298 0.65776 0.0
C802 C 0.89903 0.69065 0.68904 0.0
C803 C 0.89553 0.69691 0.74327 0.0
C804 C 0.87267 0.68202 0.68213 0.0
H805 H 0.87785 0.7003 0.80727 0.0
C806 C 0.84667 0.70036 0.8719 0.0
O807 O 0.84093 0.65775 0.95709 0.0
O808 O 0.86407 0.66202 0.92038 0.0
N809 N 0.84737 0.67277 0.68376 0.0
C810 C 0.83516 0.66493 0.66067 0.0
C811 C 0.83687 0.65754 0.60726 0.0
C812 C 0.85103 0.65845 0.57779 0.0
C813 C 0.86336 0.66676 0.60202 0.0
C814 C 0.86097 0.67391 0.65531 0.0
H815 H 0.82422 0.66424 0.6829 0.0
O816 O 0.84727 0.64521 0.83701 0.0
O817 O 0.85351 0.6679 0.80103 0.0
O818 O 0.82229 0.66757 0.84431 0.0
O819 O 0.82557 0.68227 0.76525 0.0
C820 C 0.87798 0.66806 0.57571 0.0
C821 C 0.89007 0.67605 0.60378 0.0
H822 H 0.91067 0.69164 0.67215 0.0
H823 H 0.90444 0.7027 0.76796 0.0
H824 H 0.8273 0.65115 0.58886 0.0
H825 H 0.85234 0.65266 0.53678 0.0
H826 H 0.88015 0.66271 0.53437 0.0
H827 H 0.90137 0.67665 0.58372 0.0
Mn828 Mn 0.59928 0.5927 0.12936 0.0
Mn829 Mn 0.57977 0.59507 1.00332 0.0
C830 C 0.6119 0.60028 0.04596 0.0
C831 C 0.60842 0.6044 0.21455 0.0
C832 C 0.59123 0.56466 0.05201 0.0
O833 O 0.57668 0.59283 0.15615 0.0
O834 O 0.56516 0.59358 0.06906 0.0
C835 C 0.56625 0.6261 0.02334 0.0
N836 N 0.57478 0.61632 0.99008 0.0
C837 C 0.57869 0.6361 0.91866 0.0
C838 C 0.56987 0.64636 0.95198 0.0
C839 C 0.56367 0.64134 1.00464 0.0
C840 C 0.58093 0.62108 0.93965 0.0
H841 H 0.56146 0.62229 0.06382 0.0
C842 C 0.56467 0.59287 0.124 0.0
O843 O 0.60712 0.58946 0.2102 0.0
O844 O 0.60375 0.61243 0.17082 0.0
N845 N 0.5921 0.59659 0.93518 0.0
C846 C 0.60062 0.58538 0.90881 0.0
C847 C 0.60775 0.58858 0.85585 0.0
C848 C 0.60584 0.60316 0.83012 0.0
C849 C 0.59675 0.61441 0.85748 0.0
C850 C 0.58992 0.61055 0.91018 0.0
H851 H 0.60207 0.57412 0.92825 0.0
O852 O 0.61964 0.59468 0.08899 0.0
O853 O 0.597 0.60139 0.05291 0.0
O854 O 0.59675 0.57017 0.09903 0.0
O855 O 0.58489 0.57305 0.01331 0.0
C856 C 0.59432 0.62934 0.83482 0.0
C857 C 0.58542 0.64023 0.86562 0.0
H858 H 0.56785 0.65812 0.93767 0.0
H859 H 0.5569 0.6492 0.0307 0.0
H860 H 0.61471 0.57982 0.83494 0.0
H861 H 0.61144 0.60562 0.78946 0.0
H862 H 0.59939 0.63262 0.794 0.0
H863 H 0.58384 0.65175 0.84817 0.0
Mn864 Mn 0.34313 0.34873 0.37893 0.0
Mn865 Mn 0.34635 0.32906 0.25391 0.0
C866 C 0.35009 0.36162 0.29509 0.0
C867 C 0.35492 0.35785 0.46393 0.0
C868 C 0.31539 0.33798 0.30719 0.0
O869 O 0.3437 0.32593 0.40472 0.0
O870 O 0.34901 0.31457 0.31945 0.0
C871 C 0.37948 0.32048 0.26153 0.0
N872 N 0.36762 0.32729 0.23235 0.0
C873 C 0.38439 0.33379 0.15336 0.0
C874 C 0.39674 0.32668 0.18225 0.0
C875 C 0.39429 0.32007 0.23671 0.0
C876 C 0.3699 0.33388 0.18031 0.0
H877 H 0.37764 0.31548 0.3035 0.0
C878 C 0.34706 0.31409 0.37403 0.0
O879 O 0.33998 0.35629 0.46007 0.0
O880 O 0.3629 0.35343 0.4198 0.0
N881 N 0.34415 0.34165 0.18659 0.0
C882 C 0.33127 0.34893 0.16614 0.0
C883 C 0.33192 0.35663 0.11299 0.0
C884 C 0.34572 0.35661 0.08111 0.0
C885 C 0.35877 0.34888 0.1027 0.0
C886 C 0.35743 0.34139 0.15588 0.0
H887 H 0.32059 0.34889 0.19022 0.0
O888 O 0.34465 0.36926 0.33861 0.0
O889 O 0.35149 0.3468 0.30235 0.0
O890 O 0.32075 0.34591 0.34926 0.0
O891 O 0.32399 0.33067 0.27159 0.0
C892 C 0.3731 0.34849 0.07389 0.0
C893 C 0.38593 0.34103 0.09935 0.0
H894 H 0.40819 0.32637 0.1633 0.0
H895 H 0.4038 0.31467 0.25951 0.0
H896 H 0.32179 0.36256 0.09662 0.0
H897 H 0.3462 0.36263 0.04028 0.0
H898 H 0.37447 0.35416 0.03263 0.0
H899 H 0.39698 0.34111 0.07735 0.0
Mn900 Mn 0.41739 0.59459 0.12525 0.0
Mn901 Mn 0.4366 0.59769 0.9991 0.0
C902 C 0.40448 0.60271 0.0429 0.0
C903 C 0.40906 0.606 0.2118 0.0
C904 C 0.42606 0.56688 0.04943 0.0
O905 O 0.44023 0.59389 0.15007 0.0
O906 O 0.45147 0.59882 0.06428 0.0
C907 C 0.44709 0.63017 0.01088 0.0
N908 N 0.43967 0.619 0.98018 0.0
C909 C 0.43426 0.63681 0.90315 0.0
C910 C 0.44209 0.64845 0.93352 0.0
C911 C 0.44844 0.64513 0.98781 0.0
C912 C 0.43325 0.62214 0.92843 0.0
H913 H 0.45184 0.62768 0.05279 0.0
C914 C 0.4521 0.59668 0.11876 0.0
O915 O 0.40974 0.59105 0.20585 0.0
O916 O 0.41389 0.61419 0.16873 0.0
N917 N 0.42377 0.59695 0.93194 0.0
C918 C 0.41568 0.58475 0.91003 0.0
C919 C 0.40809 0.58634 0.85691 0.0
C920 C 0.40908 0.60034 0.82646 0.0
C921 C 0.41764 0.61266 0.84949 0.0
C922 C 0.42495 0.61041 0.90262 0.0
H923 H 0.41495 0.57392 0.93297 0.0
O924 O 0.39681 0.59733 0.08642 0.0
O925 O 0.41939 0.60346 0.04922 0.0
O926 O 0.41905 0.57236 0.09345 0.0
O927 O 0.43351 0.57534 0.01377 0.0
C928 C 0.41904 0.62714 0.82218 0.0
C929 C 0.42722 0.63926 0.84922 0.0
H930 H 0.44313 0.66001 0.9159 0.0
H931 H 0.45435 0.65409 0.01182 0.0
H932 H 0.40151 0.57677 0.83943 0.0
H933 H 0.40315 0.60155 0.78564 0.0
H934 H 0.41359 0.62919 0.78088 0.0
H935 H 0.42787 0.65047 0.82844 0.0
Mn936 Mn 0.17369 0.66821 0.87928 0.0
Mn937 Mn 0.17024 0.68828 0.75525 0.0
C938 C 0.16583 0.6557 0.79588 0.0
C939 C 0.16218 0.65946 0.96512 0.0
C940 C 0.20123 0.67841 0.80617 0.0
O941 O 0.17409 0.69095 0.90557 0.0
O942 O 0.16803 0.7026 0.82145 0.0
C943 C 0.1373 0.69747 0.76425 0.0
N944 N 0.14895 0.69053 0.73443 0.0
C945 C 0.13186 0.68466 0.6556 0.0
C946 C 0.11972 0.69191 0.68517 0.0
C947 C 0.12244 0.69827 0.73986 0.0
C948 C 0.14642 0.68419 0.68214 0.0
H949 H 0.13934 0.70228 0.80639 0.0
C950 C 0.17053 0.7029 0.87576 0.0
O951 O 0.17714 0.66022 0.95958 0.0
O952 O 0.15404 0.66436 0.92201 0.0
N953 N 0.172 0.67585 0.68742 0.0
C954 C 0.18466 0.66834 0.66636 0.0
C955 C 0.18372 0.66082 0.61294 0.0
C956 C 0.16985 0.66126 0.58138 0.0
C957 C 0.15704 0.66922 0.60359 0.0
C958 C 0.15866 0.6765 0.65704 0.0
H959 H 0.19539 0.66804 0.69016 0.0
O960 O 0.1712 0.64782 0.83895 0.0
O961 O 0.1649 0.67055 0.80344 0.0
O962 O 0.19592 0.67027 0.84775 0.0
O963 O 0.19262 0.68621 0.77203 0.0
C964 C 0.14265 0.67001 0.57517 0.0
C965 C 0.13004 0.67764 0.60132 0.0
H966 H 0.10823 0.6925 0.66656 0.0
H967 H 0.1131 0.70376 0.76317 0.0
H968 H 0.19367 0.65471 0.59609 0.0
H969 H 0.16915 0.65537 0.54034 0.0
H970 H 0.14107 0.66453 0.53369 0.0
H971 H 0.11894 0.67786 0.57964 0.0
Mn972 Mn 0.10004 0.42312 0.62835 0.0
Mn973 Mn 0.08061 0.42104 0.50213 0.0
C974 C 0.11264 0.41547 0.54512 0.0
C975 C 0.10902 0.41129 0.71352 0.0
C976 C 0.09247 0.45126 0.55067 0.0
O977 O 0.07744 0.42318 0.65499 0.0
O978 O 0.06601 0.42288 0.56776 0.0
C979 C 0.0665 0.3903 0.52265 0.0
N980 N 0.07522 0.39988 0.48924 0.0
C981 C 0.07866 0.38 0.41793 0.0
C982 C 0.06965 0.36994 0.45141 0.0
C983 C 0.06359 0.37511 0.5041 0.0
C984 C 0.08123 0.39498 0.43879 0.0
H985 H 0.06181 0.39422 0.56313 0.0
C986 C 0.06547 0.42348 0.62271 0.0
O987 O 0.10786 0.42625 0.70924 0.0
O988 O 0.1043 0.40333 0.66973 0.0
N989 N 0.09291 0.41921 0.43404 0.0
C990 C 0.10169 0.43021 0.40759 0.0
C991 C 0.10875 0.42683 0.35466 0.0
C992 C 0.10649 0.41229 0.32901 0.0
C993 C 0.09715 0.40127 0.35646 0.0
C994 C 0.09042 0.40529 0.40916 0.0
H995 H 0.1034 0.44144 0.42694 0.0
O996 O 0.1204 0.42099 0.58823 0.0
O997 O 0.09773 0.41447 0.55189 0.0
O998 O 0.09775 0.44569 0.59801 0.0
O999 O 0.08614 0.44295 0.51176 0.0
C1000 C 0.09436 0.3864 0.33389 0.0
C1001 C 0.08525 0.37572 0.36485 0.0
H1002 H 0.06736 0.35823 0.43721 0.0
H1003 H 0.05667 0.3674 0.53028 0.0
H1004 H 0.11591 0.43542 0.33368 0.0
H1005 H 0.11203 0.40969 0.28835 0.0
H1006 H 0.09932 0.383 0.29303 0.0
H1007 H 0.08341 0.36423 0.34748 0.0
Mn1008 Mn 0.34263 0.66787 0.62865 0.0
Mn1009 Mn 0.34597 0.68824 0.75199 0.0
C1010 C 0.3506 0.65559 0.71241 0.0
C1011 C 0.35427 0.65916 0.54302 0.0
C1012 C 0.31503 0.67806 0.70144 0.0
O1013 O 0.342 0.69054 0.60169 0.0
O1014 O 0.34803 0.70243 0.68532 0.0
C1015 C 0.37881 0.6977 0.74255 0.0
N1016 N 0.36724 0.6907 0.7726 0.0
C1017 C 0.38442 0.68509 0.85145 0.0
C1018 C 0.39648 0.69239 0.82162 0.0
C1019 C 0.39368 0.69866 0.76681 0.0
C1020 C 0.36986 0.68446 0.82505 0.0
H1021 H 0.3767 0.70246 0.70035 0.0
C1022 C 0.34548 0.70258 0.63105 0.0
O1023 O 0.3393 0.65973 0.54849 0.0
O1024 O 0.36233 0.66417 0.58612 0.0
N1025 N 0.34433 0.67594 0.82023 0.0
C1026 C 0.33173 0.66839 0.84163 0.0
C1027 C 0.33276 0.66098 0.89527 0.0
C1028 C 0.34665 0.66157 0.92668 0.0
C1029 C 0.35939 0.66956 0.90412 0.0
C1030 C 0.35769 0.67674 0.85047 0.0
H1031 H 0.32099 0.66798 0.81793 0.0
O1032 O 0.34531 0.64758 0.66955 0.0
O1033 O 0.3514 0.67044 0.7044 0.0
O1034 O 0.32037 0.66984 0.66017 0.0
O1035 O 0.32361 0.68597 0.73533 0.0
C1036 C 0.37379 0.67051 0.93237 0.0
C1037 C 0.38633 0.67817 0.9059 0.0
H1038 H 0.40798 0.69311 0.84012 0.0
H1039 H 0.40296 0.70421 0.74331 0.0
H1040 H 0.32287 0.65483 0.91239 0.0
H1041 H 0.34742 0.65576 0.96788 0.0
H1042 H 0.37544 0.66511 0.97399 0.0
H1043 H 0.39745 0.67851 0.92749 0.0
Mn1044 Mn 0.1001 0.59375 0.38295 0.0
Mn1045 Mn 0.08041 0.59694 0.50807 0.0
C1046 C 0.11266 0.60213 0.4656 0.0
C1047 C 0.10847 0.60519 0.29647 0.0
C1048 C 0.09145 0.56613 0.45935 0.0
O1049 O 0.07738 0.59274 0.3571 0.0
O1050 O 0.06576 0.5977 0.44214 0.0
C1051 C 0.0695 0.62923 0.49443 0.0
N1052 N 0.07701 0.61826 0.52589 0.0
C1053 C 0.08196 0.63639 0.60229 0.0
C1054 C 0.07406 0.64782 0.57107 0.0
C1055 C 0.06789 0.64425 0.51675 0.0
C1056 C 0.08323 0.62165 0.57774 0.0
H1057 H 0.06485 0.62655 0.45254 0.0
C1058 C 0.06537 0.59542 0.38772 0.0
O1059 O 0.10802 0.59024 0.30266 0.0
O1060 O 0.10344 0.61334 0.33928 0.0
N1061 N 0.093 0.59655 0.5759 0.0
C1062 C 0.10113 0.58451 0.59881 0.0
C1063 C 0.10852 0.58634 0.65221 0.0
C1064 C 0.10728 0.60044 0.6819 0.0
C1065 C 0.09867 0.61259 0.65786 0.0
C1066 C 0.09157 0.61009 0.60451 0.0
H1067 H 0.10206 0.57361 0.57643 0.0
O1068 O 0.12051 0.59677 0.42254 0.0
O1069 O 0.09775 0.60275 0.45863 0.0
O1070 O 0.09855 0.57155 0.41538 0.0
O1071 O 0.08384 0.57461 0.49443 0.0
C1072 C 0.09704 0.62715 0.68438 0.0
C1073 C 0.08881 0.63909 0.65638 0.0
H1074 H 0.07282 0.65943 0.58811 0.0
H1075 H 0.06191 0.65305 0.49213 0.0
H1076 H 0.11513 0.5769 0.67048 0.0
H1077 H 0.11306 0.60184 0.72293 0.0
H1078 H 0.10232 0.62939 0.72582 0.0
H1079 H 0.08796 0.65035 0.67659 0.0
Mn1080 Mn 0.17356 0.34843 0.13394 0.0
Mn1081 Mn 0.17032 0.3287 0.25887 0.0
C1082 C 0.16649 0.36126 0.21771 0.0
C1083 C 0.16179 0.35755 0.04887 0.0
C1084 C 0.20128 0.33777 0.20601 0.0
O1085 O 0.1731 0.32565 0.10806 0.0
O1086 O 0.1678 0.31423 0.19324 0.0
C1087 C 0.13724 0.31996 0.25072 0.0
N1088 N 0.14903 0.32681 0.28009 0.0
C1089 C 0.13214 0.33322 0.3588 0.0
C1090 C 0.11985 0.32606 0.3297 0.0
C1091 C 0.1224 0.31947 0.27528 0.0
C1092 C 0.14666 0.33338 0.33209 0.0
H1093 H 0.13915 0.31497 0.20878 0.0
C1094 C 0.16979 0.31378 0.13868 0.0
O1095 O 0.17674 0.35604 0.05286 0.0
O1096 O 0.15379 0.35308 0.0929 0.0
N1097 N 0.17237 0.34125 0.32626 0.0
C1098 C 0.1852 0.34857 0.34696 0.0
C1099 C 0.18446 0.35624 0.40012 0.0
C1100 C 0.17061 0.35615 0.43177 0.0
C1101 C 0.15762 0.34839 0.40993 0.0
C1102 C 0.15906 0.34093 0.35675 0.0
H1103 H 0.19591 0.34859 0.32307 0.0
O1104 O 0.17192 0.36894 0.17426 0.0
O1105 O 0.16514 0.34644 0.21041 0.0
O1106 O 0.19593 0.34568 0.16385 0.0
O1107 O 0.19269 0.33042 0.24152 0.0
C1108 C 0.14326 0.34793 0.43849 0.0
C1109 C 0.13049 0.34043 0.41279 0.0
H1110 H 0.10838 0.3257 0.34845 0.0
H1111 H 0.11295 0.31405 0.25233 0.0
H1112 H 0.19454 0.3622 0.4167 0.0
H1113 H 0.17006 0.36216 0.4726 0.0
H1114 H 0.14181 0.35357 0.47974 0.0
H1115 H 0.11942 0.34046 0.4346 0.0
Mn1116 Mn 0.41643 0.42364 0.88428 0.0
Mn1117 Mn 0.43572 0.42167 0.0108 0.0
C1118 C 0.40375 0.41603 0.96748 0.0
C1119 C 0.40752 0.41174 0.79916 0.0
C1120 C 0.42394 0.45185 0.9616 0.0
O1121 O 0.43905 0.42369 0.85793 0.0
O1122 O 0.45038 0.42349 0.94535 0.0
C1123 C 0.4499 0.39092 0.9909 0.0
N1124 N 0.44114 0.40051 0.02405 0.0
C1125 C 0.43767 0.38069 0.09562 0.0
C1126 C 0.44673 0.37062 0.0624 0.0
C1127 C 0.45282 0.37575 0.00971 0.0
C1128 C 0.43508 0.39565 0.0745 0.0
H1129 H 0.45462 0.39482 0.95042 0.0
C1130 C 0.45099 0.42405 0.8904 0.0
O1131 O 0.40867 0.4267 0.80325 0.0
O1132 O 0.41221 0.40381 0.84312 0.0
N1133 N 0.42335 0.41987 0.07874 0.0
C1134 C 0.41453 0.43088 0.10492 0.0
C1135 C 0.40744 0.42754 0.15781 0.0
C1136 C 0.4097 0.41302 0.18372 0.0
C1137 C 0.41909 0.40199 0.15655 0.0
C1138 C 0.42585 0.40597 0.10386 0.0
H1139 H 0.41283 0.44209 0.08537 0.0
O1140 O 0.39603 0.42152 0.92422 0.0
O1141 O 0.41867 0.41505 0.96089 0.0
O1142 O 0.4187 0.44623 0.91429 0.0
O1143 O 0.43019 0.44356 1.0008 0.0
C1144 C 0.42189 0.38715 0.1794 0.0
C1145 C 0.43105 0.37645 0.1487 0.0
H1146 H 0.44903 0.35892 0.07681 0.0
H1147 H 0.45978 0.36803 0.98373 0.0
H1148 H 0.40024 0.43613 0.17857 0.0
H1149 H 0.40414 0.41045 0.22435 0.0
H1150 H 0.41691 0.38377 0.22026 0.0
H1151 H 0.4329 0.36498 0.16628 0.0
H1152 H 0.29264 0.16427 0.37277 0.0
H1153 H 0.30101 0.18258 0.20251 0.0
H1154 H 0.26497 0.16257 0.35059 0.0
H1155 H 0.2736 0.18103 0.18103 0.0
H1156 H 0.22451 0.16456 0.14183 0.0
H1157 H 0.25222 0.16305 0.16373 0.0
H1158 H 0.24343 0.18039 0.33475 0.0
H1159 H 0.216 0.18175 0.31354 0.0
C1160 C 0.28864 0.16791 0.33072 0.0
C1161 C 0.29914 0.17365 0.28975 0.0
C1162 C 0.27277 0.16698 0.31801 0.0
C1163 C 0.26703 0.17165 0.2639 0.0
C1164 C 0.27758 0.17712 0.22277 0.0
C1165 C 0.29336 0.17815 0.2355 0.0
C1166 C 0.22849 0.16798 0.18414 0.0
C1167 C 0.21794 0.17336 0.22561 0.0
C1168 C 0.24438 0.16716 0.19669 0.0
C1169 C 0.25008 0.17159 0.25112 0.0
C1170 C 0.23948 0.17669 0.29273 0.0
C1171 C 0.22369 0.17759 0.28017 0.0
H1172 H 0.09838 0.97474 0.39318 0.0
H1173 H 0.07879 0.9652 0.56051 0.0
H1174 H 0.09924 1.00234 0.41691 0.0
H1175 H 0.07973 0.99261 0.58386 0.0
H1176 H 0.09827 0.04156 0.62571 0.0
H1177 H 0.09884 0.01389 0.60267 0.0
H1178 H 0.08014 0.02362 0.4343 0.0
H1179 H 0.07948 0.05105 0.45692 0.0
C1180 C 0.09428 0.97847 0.43493 0.0
C1181 C 0.08847 0.96766 0.47469 0.0
C1182 C 0.09473 0.9943 0.4485 0.0
C1183 C 0.08959 0.99968 0.50241 0.0
C1184 C 0.08395 0.98886 0.54228 0.0
C1185 C 0.08331 0.97311 0.52853 0.0
C1186 C 0.09426 0.0378 0.58383 0.0
C1187 C 0.08879 0.04863 0.5434 0.0
C1188 C 0.09456 0.02193 0.57065 0.0
C1189 C 0.0896 0.01654 0.51648 0.0
C1190 C 0.08424 0.02737 0.47608 0.0
C1191 C 0.08375 0.04314 0.48942 0.0
H1192 H 0.21386 0.83489 0.7006 0.0
H1193 H 0.22302 0.85344 0.86993 0.0
H1194 H 0.24117 0.83642 0.6775 0.0
H1195 H 0.25057 0.85514 0.84611 0.0
H1196 H 0.29908 0.83503 0.80771 0.0
H1197 H 0.27177 0.83694 0.82997 0.0
H1198 H 0.26271 0.85413 0.65882 0.0
H1199 H 0.29031 0.85207 0.63584 0.0
C1200 C 0.22166 0.8394 0.73299 0.0
C1201 C 0.21614 0.84393 0.78753 0.0
C1202 C 0.23737 0.84041 0.71933 0.0
C1203 C 0.24811 0.84591 0.7598 0.0
C1204 C 0.24262 0.8507 0.81406 0.0
C1205 C 0.22682 0.84978 0.8277 0.0
C1206 C 0.29136 0.83927 0.77453 0.0
C1207 C 0.297 0.84329 0.71961 0.0
C1208 C 0.27564 0.84051 0.7877 0.0
C1209 C 0.265 0.84573 0.74637 0.0
C1210 C 0.27059 0.84994 0.69158 0.0
C1211 C 0.28641 0.8488 0.67841 0.0
H1212 H 0.41764 0.04072 0.88849 0.0
H1213 H 0.43122 0.0497 0.06435 0.0
H1214 H 0.41697 0.01293 0.90964 0.0
H1215 H 0.43065 0.02221 0.08489 0.0
H1216 H 0.41448 0.97261 0.11737 0.0
H1217 H 0.41295 1.00022 0.09515 0.0
H1218 H 0.43563 0.9921 0.93255 0.0
H1219 H 0.43708 0.96462 0.9542 0.0
C1220 C 0.42041 0.03683 0.93157 0.0
C1221 C 0.42454 0.04753 0.97448 0.0
C1222 C 0.4201 0.02089 0.94366 0.0
C1223 C 0.42375 0.01532 0.99905 0.0
C1224 C 0.42759 0.02606 0.04202 0.0
C1225 C 0.42802 0.04189 0.02992 0.0
C1226 C 0.41918 0.9767 0.07694 0.0
C1227 C 0.42598 0.9663 0.03787 0.0
C1228 C 0.41831 0.99255 0.0642 0.0
C1229 C 0.42412 0.99839 0.0119 0.0
C1230 C 0.43084 0.988 0.9728 0.0
C1231 C 0.4318 0.97221 0.98564 0.0
H1232 H 0.7903 0.84834 0.87674 0.0
H1233 H 0.79941 0.83318 0.70286 0.0
H1234 H 0.76256 0.84919 0.85485 0.0
H1235 H 0.77193 0.83396 0.68153 0.0
H1236 H 0.72238 0.85055 0.64686 0.0
H1237 H 0.75004 0.8519 0.669 0.0
H1238 H 0.74164 0.83046 0.83377 0.0
H1239 H 0.71415 0.82915 0.81216 0.0
C1240 C 0.78645 0.84526 0.83391 0.0
C1241 C 0.79717 0.84063 0.7918 0.0
C1242 C 0.77054 0.84568 0.82141 0.0
C1243 C 0.765 0.84164 0.76636 0.0
C1244 C 0.77576 0.83732 0.72411 0.0
C1245 C 0.79158 0.83677 0.73666 0.0
C1246 C 0.72642 0.8461 0.68775 0.0
C1247 C 0.71594 0.83968 0.72745 0.0
C1248 C 0.74229 0.84685 0.70044 0.0
C1249 C 0.74807 0.84134 0.75333 0.0
C1250 C 0.73759 0.83501 0.79303 0.0
C1251 C 0.72179 0.83414 0.78023 0.0
H1252 H 0.9288 0.96476 0.56697 0.0
H1253 H 0.91211 0.97316 0.3944 0.0
H1254 H 0.9275 0.99222 0.58757 0.0
H1255 H 0.91062 1.00087 0.41567 0.0
H1256 H 0.93087 0.04944 0.45335 0.0
H1257 H 0.92883 0.02201 0.43263 0.0
H1258 H 0.90999 0.01404 0.60202 0.0
H1259 H 0.9122 0.04168 0.62343 0.0
C1260 C 0.92473 0.97243 0.53335 0.0
C1261 C 0.92067 0.96665 0.47868 0.0
C1262 C 0.92386 0.98824 0.54552 0.0
C1263 C 0.91896 0.99881 0.50339 0.0
C1264 C 0.9146 0.99306 0.44898 0.0
C1265 C 0.91539 0.97716 0.43683 0.0
C1266 C 0.92624 0.04192 0.48641 0.0
C1267 C 0.92181 0.04786 0.54042 0.0
C1268 C 0.92494 0.02614 0.47415 0.0
C1269 C 0.91923 0.01577 0.51552 0.0
C1270 C 0.91458 0.02169 0.5693 0.0
C1271 C 0.9158 0.03755 0.58155 0.0
H1272 H 0.72304 0.15502 0.33556 0.0
H1273 H 0.71849 0.20039 0.25934 0.0
H1274 H 0.75052 0.15458 0.3084 0.0
H1275 H 0.74581 0.2 0.23315 0.0
H1276 H 0.79898 0.19997 0.26123 0.0
H1277 H 0.77168 0.19979 0.28775 0.0
H1278 H 0.76646 0.1546 0.21133 0.0
H1279 H 0.79392 0.15482 0.18385 0.0
C1280 C 0.72793 0.16495 0.3137 0.0
C1281 C 0.71858 0.17776 0.29984 0.0
C1282 C 0.7436 0.16463 0.29765 0.0
C1283 C 0.7503 0.17724 0.26849 0.0
C1284 C 0.74101 0.19014 0.25576 0.0
C1285 C 0.72534 0.19035 0.27076 0.0
C1286 C 0.79203 0.19002 0.24966 0.0
C1287 C 0.79864 0.17743 0.22013 0.0
C1288 C 0.77637 0.18994 0.26485 0.0
C1289 C 0.76694 0.17716 0.25185 0.0
C1290 C 0.77349 0.16455 0.2223 0.0
C1291 C 0.78915 0.16475 0.20607 0.0
H1292 H 0.58061 0.05256 0.06403 0.0
H1293 H 0.60167 0.04313 0.89911 0.0
H1294 H 0.58173 0.02519 0.08794 0.0
H1295 H 0.60279 0.01561 0.92348 0.0
H1296 H 0.58278 0.96702 0.95957 0.0
H1297 H 0.58392 0.99441 0.93765 0.0
H1298 H 0.60034 1.0038 0.10951 0.0
H1299 H 0.59921 0.97607 0.13203 0.0
C1300 C 0.5855 0.04468 0.03272 0.0
C1301 C 0.59097 0.05015 0.97929 0.0
C1302 C 0.58627 0.02896 0.04684 0.0
C1303 C 0.59237 0.01819 0.00777 0.0
C1304 C 0.5979 0.0236 0.95443 0.0
C1305 C 0.59729 0.03939 0.94046 0.0
C1306 C 0.58669 0.97482 0.993 0.0
C1307 C 0.59086 0.96922 0.04786 0.0
C1308 C 0.58745 0.99059 0.98006 0.0
C1309 C 0.59228 1.00132 0.02162 0.0
C1310 C 0.59648 0.99582 0.07657 0.0
C1311 C 0.59588 0.97993 0.08945 0.0
H1312 H 0.72552 0.6664 0.63747 0.0
H1313 H 0.71678 0.68198 0.81111 0.0
H1314 H 0.7533 0.66532 0.65899 0.0
H1315 H 0.74426 0.68091 0.83208 0.0
H1316 H 0.79332 0.66324 0.86756 0.0
H1317 H 0.76569 0.66224 0.84458 0.0
H1318 H 0.77467 0.68381 0.68049 0.0
H1319 H 0.80214 0.68481 0.70302 0.0
C1320 C 0.72946 0.66955 0.68012 0.0
C1321 C 0.71882 0.67432 0.72232 0.0
C1322 C 0.74539 0.66899 0.69243 0.0
C1323 C 0.75102 0.67298 0.7474 0.0
C1324 C 0.74035 0.67755 0.7896 0.0
C1325 C 0.72453 0.67827 0.77723 0.0
C1326 C 0.78942 0.66776 0.82659 0.0
C1327 C 0.80004 0.67417 0.78744 0.0
C1328 C 0.77356 0.66722 0.81343 0.0
C1329 C 0.76795 0.67292 0.76057 0.0
C1330 C 0.77859 0.67914 0.72123 0.0
C1331 C 0.79438 0.67983 0.73454 0.0
H1332 H 0.60207 0.47304 0.89572 0.0
H1333 H 0.57901 0.4648 0.05783 0.0
H1334 H 0.60387 0.50056 0.91909 0.0
H1335 H 0.58076 0.4922 0.08069 0.0
H1336 H 0.59896 0.54078 0.12603 0.0
H1337 H 0.59953 0.51299 0.10456 0.0
H1338 H 0.58607 0.52254 0.92924 0.0
H1339 H 0.58556 0.55 0.95012 0.0
C1340 C 0.59736 0.47705 0.93622 0.0
C1341 C 0.59031 0.46661 0.97457 0.0
C1342 C 0.59837 0.49285 0.94961 0.0
C1343 C 0.59248 0.49861 1.00189 0.0
C1344 C 0.5856 0.48816 0.04044 0.0
C1345 C 0.58447 0.47242 0.02692 0.0
C1346 C 0.59621 0.53694 0.08288 0.0
C1347 C 0.59217 0.54772 0.04003 0.0
C1348 C 0.59646 0.52101 0.0706 0.0
C1349 C 0.59287 0.51552 0.01507 0.0
C1350 C 0.5891 0.52633 0.97221 0.0
C1351 C 0.5887 0.54215 0.9845 0.0
H1352 H 0.71543 0.33512 0.20161 0.0
H1353 H 0.72416 0.35279 0.37256 0.0
H1354 H 0.74279 0.33682 0.17953 0.0
H1355 H 0.75177 0.35466 0.34977 0.0
H1356 H 0.80042 0.33466 0.31095 0.0
H1357 H 0.77308 0.33659 0.33296 0.0
H1358 H 0.76429 0.35467 0.16286 0.0
H1359 H 0.79189 0.35257 0.14014 0.0
C1360 C 0.72315 0.33948 0.23457 0.0
C1361 C 0.7175 0.34371 0.28924 0.0
C1362 C 0.73889 0.34059 0.22152 0.0
C1363 C 0.74952 0.34589 0.26274 0.0
C1364 C 0.7439 0.35039 0.31714 0.0
C1365 C 0.72806 0.34937 0.33018 0.0
C1366 C 0.79275 0.33912 0.278 0.0
C1367 C 0.79845 0.34335 0.2234 0.0
C1368 C 0.77701 0.34036 0.29101 0.0
C1369 C 0.76644 0.3458 0.24982 0.0
C1370 C 0.77211 0.35029 0.19547 0.0
C1371 C 0.78794 0.34914 0.18246 0.0
H1372 H 0.91445 0.4719 0.61727 0.0
H1373 H 0.93757 0.46368 0.45527 0.0
H1374 H 0.91266 0.49943 0.59387 0.0
H1375 H 0.93583 0.49108 0.43239 0.0
H1376 H 0.9178 0.53955 0.38644 0.0
H1377 H 0.91699 0.51181 0.40841 0.0
H1378 H 0.93048 0.52142 0.58361 0.0
H1379 H 0.93122 0.54887 0.56222 0.0
C1380 C 0.91917 0.47591 0.5768 0.0
C1381 C 0.92623 0.46549 0.53846 0.0
C1382 C 0.91816 0.49171 0.56338 0.0
C1383 C 0.92406 0.49747 0.51112 0.0
C1384 C 0.93097 0.48704 0.47262 0.0
C1385 C 0.9321 0.4713 0.48616 0.0
C1386 C 0.92048 0.53575 0.4297 0.0
C1387 C 0.92463 0.54652 0.47234 0.0
C1388 C 0.9201 0.51984 0.44225 0.0
C1389 C 0.92367 0.51438 0.49785 0.0
C1390 C 0.92748 0.52519 0.54059 0.0
C1391 C 0.92801 0.54099 0.52802 0.0
H1392 H 0.2937 0.36025 0.33258 0.0
H1393 H 0.29878 0.31511 0.25524 0.0
H1394 H 0.26619 0.3604 0.30563 0.0
H1395 H 0.27138 0.31518 0.22942 0.0
H1396 H 0.21795 0.315 0.25848 0.0
H1397 H 0.24534 0.31517 0.28445 0.0
H1398 H 0.25041 0.36034 0.20756 0.0
H1399 H 0.2229 0.36009 0.18048 0.0
C1400 C 0.28892 0.35029 0.31062 0.0
C1401 C 0.29842 0.33764 0.29629 0.0
C1402 C 0.27322 0.35044 0.29466 0.0
C1403 C 0.26665 0.33782 0.26519 0.0
C1404 C 0.27608 0.32505 0.25221 0.0
C1405 C 0.29179 0.32502 0.26704 0.0
C1406 C 0.22491 0.32493 0.24658 0.0
C1407 C 0.21824 0.3375 0.21708 0.0
C1408 C 0.24061 0.32501 0.26149 0.0
C1409 C 0.25 0.33779 0.24835 0.0
C1410 C 0.2434 0.35038 0.21866 0.0
C1411 C 0.22772 0.35016 0.20263 0.0
H1412 H 0.43667 0.55156 0.95409 0.0
H1413 H 0.41296 0.5438 0.11523 0.0
H1414 H 0.4348 0.52413 0.93185 0.0
H1415 H 0.411 0.51626 0.09242 0.0
H1416 H 0.42887 0.46661 0.06374 0.0
H1417 H 0.42843 0.4941 0.08394 0.0
H1418 H 0.41611 0.50345 0.9073 0.0
H1419 H 0.41666 0.47563 0.88649 0.0
C1420 C 0.43104 0.54403 0.98493 0.0
C1421 C 0.42506 0.54998 0.03683 0.0
C1422 C 0.42984 0.52828 0.97174 0.0
C1423 C 0.42271 0.51796 0.01018 0.0
C1424 C 0.41668 0.52387 0.06201 0.0
C1425 C 0.41779 0.53968 0.07509 0.0
C1426 C 0.42599 0.47443 0.02892 0.0
C1427 C 0.42286 0.46879 0.97321 0.0
C1428 C 0.42563 0.49027 0.04082 0.0
C1429 C 0.42222 0.50103 0.99739 0.0
C1430 C 0.41891 0.49547 0.9417 0.0
C1431 C 0.41914 0.47952 0.9298 0.0
H1432 H 0.29351 0.6554 0.67831 0.0
H1433 H 0.29836 0.70091 0.75293 0.0
H1434 H 0.26605 0.65516 0.70592 0.0
H1435 H 0.27107 0.70071 0.77959 0.0
H1436 H 0.21788 0.70096 0.75262 0.0
H1437 H 0.24516 0.70057 0.72573 0.0
H1438 H 0.25019 0.65544 0.80305 0.0
H1439 H 0.22276 0.65587 0.83087 0.0
C1440 C 0.28869 0.6654 0.6999 0.0
C1441 C 0.29811 0.67819 0.7132 0.0
C1442 C 0.27303 0.6652 0.71622 0.0
C1443 C 0.26643 0.6779 0.74509 0.0
C1444 C 0.27579 0.69078 0.75722 0.0
C1445 C 0.29144 0.69087 0.74195 0.0
C1446 C 0.2248 0.69098 0.76436 0.0
C1447 C 0.21814 0.67847 0.79421 0.0
C1448 C 0.24044 0.69078 0.74894 0.0
C1449 C 0.2498 0.67796 0.76203 0.0
C1450 C 0.24321 0.66543 0.79198 0.0
C1451 C 0.22757 0.66575 0.80843 0.0
H1452 H 0.08736 0.46592 0.44835 0.0
H1453 H 0.10026 0.47508 0.62479 0.0
H1454 H 0.08819 0.49336 0.42726 0.0
H1455 H 0.10118 0.50285 0.60309 0.0
H1456 H 0.08101 0.5511 0.55555 0.0
H1457 H 0.08264 0.52371 0.57854 0.0
H1458 H 0.10604 0.51527 0.41758 0.0
H1459 H 0.10433 0.5428 0.39401 0.0
C1460 C 0.09047 0.47376 0.4828 0.0
C1461 C 0.09368 0.46818 0.53856 0.0
C1462 C 0.09106 0.48956 0.47039 0.0
C1463 C 0.09478 0.50035 0.51333 0.0
C1464 C 0.09815 0.49484 0.56906 0.0
C1465 C 0.09769 0.47892 0.58148 0.0
C1466 C 0.08651 0.54346 0.52479 0.0
C1467 C 0.09244 0.54925 0.47255 0.0
C1468 C 0.08758 0.52773 0.53841 0.0
C1469 C 0.0945 0.51726 0.50008 0.0
C1470 C 0.10051 0.523 0.44793 0.0
C1471 C 0.09955 0.53881 0.43442 0.0
H1472 H 0.13209 0.14503 0.04852 0.0
H1473 H 0.17232 0.15288 0.94241 0.0
H1474 H 0.11933 0.13175 0.96866 0.0
H1475 H 0.15929 0.1399 0.86175 0.0
H1476 H 0.12045 0.13332 0.72027 0.0
H1477 H 0.13382 0.1458 0.80043 0.0
H1478 H 0.1246 0.10607 0.90741 0.0
H1479 H 0.11151 0.09329 0.82635 0.0
C1480 C 0.13818 0.14403 0.00798 0.0
C1481 C 0.15322 0.15009 1.00178 0.0
C1482 C 0.13089 0.13631 0.96241 0.0
C1483 C 0.13831 0.13474 0.90901 0.0
C1484 C 0.15327 0.14097 0.90242 0.0
C1485 C 0.16073 0.14839 0.94855 0.0
C1486 C 0.12122 0.12722 0.76088 0.0
C1487 C 0.11484 0.11231 0.76694 0.0
C1488 C 0.12899 0.13435 0.80665 0.0
C1489 C 0.13031 0.12691 0.86013 0.0
C1490 C 0.12374 0.11209 0.86666 0.0
C1491 C 0.11626 0.10478 0.82032 0.0
H1492 H 0.13006 0.85546 1.00005 0.0
H1493 H 0.17285 0.87788 0.04772 0.0
H1494 H 0.11676 0.86865 0.07855 0.0
H1495 H 0.15943 0.89124 0.12629 0.0
H1496 H 0.12483 0.92512 0.21641 0.0
H1497 H 0.13831 0.9119 0.1376 0.0
H1498 H 0.11679 0.86881 0.18672 0.0
H1499 H 0.10349 0.88191 0.26544 0.0
C1500 C 0.13667 0.86313 0.02756 0.0
C1501 C 0.15255 0.86555 0.01769 0.0
C1502 C 0.12903 0.87069 0.07263 0.0
C1503 C 0.137 0.88107 0.10858 0.0
C1504 C 0.15292 0.88344 0.09901 0.0
C1505 C 0.16064 0.87567 0.05436 0.0
C1506 C 0.12287 0.91286 0.21 0.0
C1507 C 0.11303 0.90459 0.24713 0.0
C1508 C 0.13071 0.90526 0.16522 0.0
C1509 C 0.12868 0.88927 0.15598 0.0
C1510 C 0.11856 0.88113 0.19237 0.0
C1511 C 0.11094 0.88865 0.23757 0.0
H1512 H 0.395 0.88136 0.21327 0.0
H1513 H 0.40427 0.92134 0.31917 0.0
H1514 H 0.38142 0.86906 0.29332 0.0
H1515 H 0.39098 0.90875 0.40006 0.0
H1516 H 0.38296 0.87005 0.54132 0.0
H1517 H 0.39597 0.883 0.46139 0.0
H1518 H 0.3559 0.87546 0.35417 0.0
H1519 H 0.34261 0.8628 0.43495 0.0
C1520 C 0.39427 0.88748 0.25383 0.0
C1521 C 0.40079 0.90233 0.2599 0.0
C1522 C 0.38638 0.88046 0.2995 0.0
C1523 C 0.38509 0.88796 0.35284 0.0
C1524 C 0.39182 0.90269 0.3594 0.0
C1525 C 0.39942 0.9099 0.31317 0.0
C1526 C 0.37689 0.87111 0.5007 0.0
C1527 C 0.36175 0.86533 0.49444 0.0
C1528 C 0.38433 0.87864 0.45509 0.0
C1529 C 0.37695 0.88028 0.40162 0.0
C1530 C 0.36188 0.87432 0.39493 0.0
C1531 C 0.35427 0.8671 0.44111 0.0
H1532 H 0.40428 0.09299 0.69043 0.0
H1533 H 0.39604 0.13316 0.79644 0.0
H1534 H 0.39138 0.10599 0.60939 0.0
H1535 H 0.38283 0.14587 0.71626 0.0
H1536 H 0.34434 0.15329 0.57373 0.0
H1537 H 0.35719 0.1402 0.65465 0.0
H1538 H 0.3972 0.13172 0.54839 0.0
H1539 H 0.38464 0.14512 0.46829 0.0
C1540 C 0.39972 0.10455 0.69646 0.0
C1541 C 0.40128 0.11206 0.74979 0.0
C1542 C 0.39235 0.11199 0.65013 0.0
C1543 C 0.38604 0.12692 0.65663 0.0
C1544 C 0.38748 0.13434 0.71008 0.0
C1545 C 0.39515 0.12708 0.75585 0.0
C1546 C 0.35591 0.1487 0.56781 0.0
C1547 C 0.36349 0.15034 0.51468 0.0
C1548 C 0.36326 0.14123 0.61407 0.0
C1549 C 0.37817 0.13487 0.60771 0.0
C1550 C 0.38567 0.13639 0.55445 0.0
C1551 C 0.3785 0.14417 0.50874 0.0
H1552 H 0.88369 0.8535 1.00163 0.0
H1553 H 0.84055 0.87498 0.0507 0.0
H1554 H 0.89686 0.86673 0.08052 0.0
H1555 H 0.85383 0.88839 0.12956 0.0
H1556 H 0.88779 0.92284 0.2195 0.0
H1557 H 0.87453 0.90943 0.14064 0.0
H1558 H 0.897 0.86674 0.18905 0.0
H1559 H 0.91008 0.88005 0.26797 0.0
C1560 C 0.87698 0.86097 0.02952 0.0
C1561 C 0.86104 0.86312 0.01992 0.0
C1562 C 0.88454 0.86854 0.07481 0.0
C1563 C 0.87643 0.87868 0.11122 0.0
C1564 C 0.86045 0.88077 0.10193 0.0
C1565 C 0.85281 0.87298 0.0571 0.0
C1566 C 0.89 0.91063 0.21297 0.0
C1567 C 0.90004 0.90254 0.24998 0.0
C1568 C 0.88229 0.90291 0.16813 0.0
C1569 C 0.88465 0.88699 0.15867 0.0
C1570 C 0.89497 0.87901 0.19491 0.0
C1571 C 0.90247 0.88665 0.24021 0.0
H1572 H 0.84142 0.13944 0.96614 0.0
H1573 H 0.88447 0.16115 0.0151 0.0
H1574 H 0.85471 0.12615 0.8871 0.0
H1575 H 0.89765 0.14804 0.93605 0.0
H1576 H 0.91084 0.13474 0.74875 0.0
H1577 H 0.89764 0.14804 0.82737 0.0
H1578 H 0.87561 0.10521 0.87657 0.0
H1579 H 0.88898 0.09181 0.79805 0.0
C1580 C 0.85366 0.14152 0.95966 0.0
C1581 C 0.86187 0.15139 0.99686 0.0
C1582 C 0.8613 0.1338 0.91473 0.0
C1583 C 0.87726 0.13598 0.90542 0.0
C1584 C 0.88535 0.14616 0.94181 0.0
C1585 C 0.87778 0.15366 0.98719 0.0
C1586 C 0.90329 0.12811 0.77663 0.0
C1587 C 0.90103 0.11219 0.76722 0.0
C1588 C 0.89573 0.13574 0.82172 0.0
C1589 C 0.8855 0.12771 0.85807 0.0
C1590 C 0.8833 0.11176 0.84895 0.0
C1591 C 0.89107 0.10405 0.80433 0.0
H1592 H 0.6052 0.13551 0.76719 0.0
H1593 H 0.62699 0.09236 0.72017 0.0
H1594 H 0.6185 0.14853 0.68821 0.0
H1595 H 0.64047 0.1055 0.64116 0.0
H1596 H 0.67499 0.13974 0.55193 0.0
H1597 H 0.66147 0.12642 0.63041 0.0
H1598 H 0.61867 0.14831 0.57967 0.0
H1599 H 0.63207 0.16145 0.50121 0.0
C1600 C 0.61275 0.12876 0.73969 0.0
C1601 C 0.61498 0.11287 0.74989 0.0
C1602 C 0.62036 0.13624 0.69437 0.0
C1603 C 0.63062 0.12809 0.65854 0.0
C1604 C 0.63277 0.11215 0.66836 0.0
C1605 C 0.62493 0.10459 0.71324 0.0
C1606 C 0.66273 0.14181 0.55789 0.0
C1607 C 0.65463 0.15171 0.52041 0.0
C1608 C 0.65496 0.13406 0.60247 0.0
C1609 C 0.63897 0.13625 0.61117 0.0
C1610 C 0.63098 0.14642 0.57439 0.0
C1611 C 0.63868 0.15395 0.52937 0.0
H1612 H 0.63092 0.87053 0.55087 0.0
H1613 H 0.67112 0.8615 0.44589 0.0
H1614 H 0.61871 0.88418 0.47066 0.0
H1615 H 0.65863 0.87486 0.36486 0.0
H1616 H 0.62041 0.88317 0.22219 0.0
H1617 H 0.63328 0.87008 0.30224 0.0
H1618 H 0.62486 0.9097 0.41058 0.0
H1619 H 0.61228 0.92307 0.32973 0.0
C1620 C 0.63711 0.87133 0.51048 0.0
C1621 C 0.65199 0.86485 0.50475 0.0
C1622 C 0.63014 0.87926 0.4647 0.0
C1623 C 0.63772 0.88065 0.41155 0.0
C1624 C 0.6525 0.87395 0.40533 0.0
C1625 C 0.65964 0.86631 0.45167 0.0
C1626 C 0.62127 0.88912 0.26307 0.0
C1627 C 0.61525 0.90417 0.26961 0.0
C1628 C 0.62874 0.88164 0.30878 0.0
C1629 C 0.63011 0.88885 0.36264 0.0
C1630 C 0.62394 0.90383 0.36956 0.0
C1631 C 0.61676 0.91149 0.32332 0.0
H1632 H 0.63307 0.64455 0.54679 0.0
H1633 H 0.67309 0.6531 0.44036 0.0
H1634 H 0.62038 0.6313 0.46671 0.0
H1635 H 0.66013 0.64016 0.35947 0.0
H1636 H 0.62122 0.6332 0.21823 0.0
H1637 H 0.63453 0.64577 0.29841 0.0
H1638 H 0.62592 0.60581 0.40493 0.0
H1639 H 0.61291 0.59296 0.3239 0.0
C1640 C 0.63913 0.64371 0.50614 0.0
C1641 C 0.65409 0.64995 0.49994 0.0
C1642 C 0.63188 0.63601 0.46041 0.0
C1643 C 0.63926 0.63465 0.40686 0.0
C1644 C 0.65414 0.64106 0.40025 0.0
C1645 C 0.66157 0.64846 0.44652 0.0
C1646 C 0.62212 0.62707 0.25875 0.0
C1647 C 0.61593 0.61207 0.26469 0.0
C1648 C 0.62985 0.63425 0.30453 0.0
C1649 C 0.63131 0.62678 0.3579 0.0
C1650 C 0.62494 0.61187 0.36429 0.0
C1651 C 0.61751 0.60451 0.31795 0.0
H1652 H 0.6255 0.42388 0.7167 0.0
H1653 H 0.60416 0.38065 0.76558 0.0
H1654 H 0.63899 0.41069 0.63794 0.0
H1655 H 0.61749 0.36757 0.68683 0.0
H1656 H 0.63102 0.35437 0.49999 0.0
H1657 H 0.61758 0.36745 0.57849 0.0
H1658 H 0.66015 0.39009 0.62726 0.0
H1659 H 0.67369 0.37685 0.54873 0.0
C1660 C 0.62354 0.41162 0.71025 0.0
C1661 C 0.6137 0.40334 0.74734 0.0
C1662 C 0.63139 0.40403 0.6655 0.0
C1663 C 0.62938 0.38805 0.65625 0.0
C1664 C 0.61924 0.37989 0.69253 0.0
C1665 C 0.61161 0.3874 0.73772 0.0
C1666 C 0.63757 0.36203 0.52773 0.0
C1667 C 0.65346 0.36451 0.51817 0.0
C1668 C 0.62986 0.36952 0.57279 0.0
C1669 C 0.63776 0.37988 0.609 0.0
C1670 C 0.65369 0.3823 0.59976 0.0
C1671 C 0.66148 0.3746 0.55514 0.0
H1672 H 0.91217 0.37952 0.74743 0.0
H1673 H 0.89114 0.4229 0.79628 0.0
H1674 H 0.89874 0.36653 0.82621 0.0
H1675 H 0.87754 0.4098 0.87503 0.0
H1676 H 0.84257 0.37622 0.96409 0.0
H1677 H 0.85623 0.38934 0.88551 0.0
H1678 H 0.89864 0.36644 0.93469 0.0
H1679 H 0.88509 0.35348 0.01327 0.0
C1680 C 0.90477 0.38632 0.77529 0.0
C1681 C 0.90278 0.40228 0.76566 0.0
C1682 C 0.89708 0.37886 0.82049 0.0
C1683 C 0.887 0.3871 0.85674 0.0
C1684 C 0.8851 0.40309 0.84749 0.0
C1685 C 0.89301 0.41062 0.80274 0.0
C1686 C 0.85478 0.37389 0.95776 0.0
C1687 C 0.86272 0.36376 0.99487 0.0
C1688 C 0.86263 0.38151 0.91311 0.0
C1689 C 0.87855 0.37899 0.90398 0.0
C1690 C 0.88638 0.36858 0.94032 0.0
C1691 C 0.8786 0.36117 0.98541 0.0
H1692 H 0.89052 0.59029 0.21366 0.0
H1693 H 0.91246 0.63319 0.2628 0.0
H1694 H 0.87713 0.60372 0.13504 0.0
H1695 H 0.89925 0.64651 0.18414 0.0
H1696 H 0.88607 0.65975 0.99644 0.0
H1697 H 0.89923 0.64656 0.0755 0.0
H1698 H 0.85626 0.62473 0.12411 0.0
H1699 H 0.84298 0.6381 0.04508 0.0
C1700 C 0.89262 0.60253 0.20733 0.0
C1701 C 0.90261 0.61064 0.24444 0.0
C1702 C 0.88484 0.61026 0.16264 0.0
C1703 C 0.88707 0.62621 0.15343 0.0
C1704 C 0.89733 0.63422 0.1898 0.0
C1705 C 0.90489 0.62657 0.23495 0.0
C1706 C 0.87937 0.65226 0.02429 0.0
C1707 C 0.86344 0.65004 0.01451 0.0
C1708 C 0.88693 0.64471 0.06967 0.0
C1709 C 0.87883 0.63452 0.10599 0.0
C1710 C 0.86286 0.63238 0.09656 0.0
C1711 C 0.85523 0.64015 0.05164 0.0
H1712 H 0.38353 0.37108 0.46714 0.0
H1713 H 0.34362 0.362 0.57357 0.0
H1714 H 0.39604 0.3845 0.5472 0.0
H1715 H 0.35641 0.37513 0.65444 0.0
H1716 H 0.39511 0.38278 0.79578 0.0
H1717 H 0.38202 0.36995 0.71567 0.0
H1718 H 0.39018 0.40991 0.60865 0.0
H1719 H 0.40297 0.42301 0.6896 0.0
C1720 C 0.37747 0.37183 0.50779 0.0
C1721 C 0.36258 0.3654 0.51399 0.0
C1722 C 0.38461 0.37963 0.55351 0.0
C1723 C 0.37721 0.38091 0.60704 0.0
C1724 C 0.36241 0.37429 0.61367 0.0
C1725 C 0.35509 0.36679 0.56742 0.0
C1726 C 0.39416 0.38885 0.75517 0.0
C1727 C 0.40015 0.40392 0.74906 0.0
C1728 C 0.38655 0.38152 0.70943 0.0
C1729 C 0.38503 0.38892 0.65593 0.0
C1730 C 0.39121 0.40391 0.64939 0.0
C1731 C 0.39852 0.41141 0.69568 0.0
H1732 H 0.34177 0.63998 0.46093 0.0
H1733 H 0.38448 0.66217 0.51095 0.0
H1734 H 0.35536 0.62682 0.38227 0.0
H1735 H 0.39796 0.6492 0.43225 0.0
H1736 H 0.4114 0.63624 0.24459 0.0
H1737 H 0.39801 0.64929 0.32335 0.0
H1738 H 0.37663 0.60611 0.3722 0.0
H1739 H 0.39021 0.59296 0.29356 0.0
C1740 C 0.354 0.64219 0.45476 0.0
C1741 C 0.36202 0.65216 0.49214 0.0
C1742 C 0.36182 0.63454 0.41006 0.0
C1743 C 0.37776 0.63691 0.40113 0.0
C1744 C 0.38567 0.64718 0.43773 0.0
C1745 C 0.37793 0.6546 0.48289 0.0
C1746 C 0.40398 0.62948 0.27245 0.0
C1747 C 0.40194 0.61353 0.26289 0.0
C1748 C 0.3963 0.63697 0.31762 0.0
C1749 C 0.38618 0.62877 0.35388 0.0
C1750 C 0.38423 0.61279 0.34466 0.0
C1751 C 0.39212 0.60522 0.29998 0.0
H1752 H 0.17506 0.64055 0.04732 0.0
H1753 H 0.13188 0.66181 0.99699 0.0
H1754 H 0.16174 0.62708 0.12589 0.0
H1755 H 0.11867 0.64852 0.07558 0.0
H1756 H 0.10544 0.63532 0.26316 0.0
H1757 H 0.11854 0.64862 0.18432 0.0
H1758 H 0.14098 0.60591 0.13623 0.0
H1759 H 0.12769 0.5925 0.21504 0.0
C1760 C 0.16278 0.64249 0.0534 0.0
C1761 C 0.15455 0.6523 0.01597 0.0
C1762 C 0.15512 0.63466 0.09804 0.0
C1763 C 0.13912 0.63667 0.10686 0.0
C1764 C 0.131 0.64676 0.0702 0.0
C1765 C 0.13859 0.65438 0.0251 0.0
C1766 C 0.11304 0.62871 0.23546 0.0
C1767 C 0.11546 0.61282 0.24531 0.0
C1768 C 0.12055 0.63634 0.19022 0.0
C1769 C 0.13088 0.62835 0.15414 0.0
C1770 C 0.13321 0.61243 0.16363 0.0
C1771 C 0.12549 0.60471 0.2084 0.0
H1772 H 0.11361 0.42263 0.82293 0.0
H1773 H 0.12151 0.38236 0.71705 0.0
H1774 H 0.12646 0.40957 0.90392 0.0
H1775 H 0.13466 0.36959 0.7972 0.0
H1776 H 0.17311 0.36176 0.93929 0.0
H1777 H 0.1603 0.37487 0.85836 0.0
H1778 H 0.12062 0.38412 0.96547 0.0
H1779 H 0.13315 0.37071 0.04558 0.0
C1780 C 0.11808 0.41103 0.81692 0.0
C1781 C 0.11644 0.40351 0.76363 0.0
C1782 C 0.12542 0.40355 0.86323 0.0
C1783 C 0.13163 0.38858 0.85678 0.0
C1784 C 0.13011 0.38116 0.80336 0.0
C1785 C 0.12246 0.38845 0.75761 0.0
C1786 C 0.16163 0.36652 0.9454 0.0
C1787 C 0.15413 0.3651 0.99879 0.0
C1788 C 0.15429 0.37401 0.89912 0.0
C1789 C 0.13948 0.38059 0.9057 0.0
C1790 C 0.13207 0.37928 0.95921 0.0
C1791 C 0.13922 0.37149 1.00494 0.0
H1792 H 0.14642 0.29306 0.14802 0.0
H1793 H 0.19168 0.29922 0.07348 0.0
H1794 H 0.14757 0.26543 0.12751 0.0
H1795 H 0.19302 0.27131 0.05363 0.0
H1796 H 0.19617 0.22218 0.15099 0.0
H1797 H 0.19511 0.24983 0.12924 0.0
H1798 H 0.14986 0.24376 0.05345 0.0
H1799 H 0.15113 0.2159 0.07458 0.0
C1800 C 0.1564 0.28855 0.12545 0.0
C1801 C 0.16892 0.29827 0.11207 0.0
C1802 C 0.15706 0.27271 0.11354 0.0
C1803 C 0.17042 0.26615 0.08915 0.0
C1804 C 0.18259 0.27604 0.07251 0.0
C1805 C 0.18178 0.29201 0.0834 0.0
C1806 C 0.18628 0.22669 0.12763 0.0
C1807 C 0.17382 0.21696 0.11378 0.0
C1808 C 0.18567 0.24251 0.11508 0.0
C1809 C 0.17239 0.24901 0.08965 0.0
C1810 C 0.16024 0.23908 0.073 0.0
C1811 C 0.161 0.22315 0.08464 0.0
H1812 H 0.97086 0.94612 0.41224 0.0
H1813 H 0.9647 0.90379 0.31693 0.0
H1814 H 0.99846 0.94591 0.39001 0.0
H1815 H 0.99256 0.90334 0.29523 0.0
H1816 H 0.04207 0.89737 0.3876 0.0
H1817 H 0.0144 0.89887 0.36746 0.0
H1818 H 0.01979 0.94644 0.3142 0.0
H1819 H 0.04771 0.94478 0.33383 0.0
C1820 C 0.97538 0.93705 0.3848 0.0
C1821 C 0.9657 0.92505 0.36582 0.0
C1822 C 0.99119 0.93693 0.37193 0.0
C1823 C 0.99772 0.9246 0.3409 0.0
C1824 C 0.98785 0.913 0.31919 0.0
C1825 C 0.97192 0.9133 0.33118 0.0
C1826 C 0.03743 0.90796 0.36962 0.0
C1827 C 0.047 0.92094 0.36201 0.0
C1828 C 0.02158 0.90882 0.35786 0.0
C1829 C 0.01488 0.92279 0.33945 0.0
C1830 C 0.02463 0.93552 0.32841 0.0
C1831 C 0.0406 0.93456 0.33919 0.0
H1832 H 0.36193 0.80048 0.56098 0.0
H1833 H 0.3187 0.79331 0.64945 0.0
H1834 H 0.36318 0.77269 0.53869 0.0
H1835 H 0.3197 0.76576 0.62645 0.0
H1836 H 0.32254 0.7167 0.56964 0.0
H1837 H 0.32064 0.74454 0.54909 0.0
H1838 H 0.36716 0.75097 0.61281 0.0
H1839 H 0.36887 0.72339 0.6341 0.0
C1840 C 0.35241 0.79305 0.57353 0.0
C1841 C 0.34017 0.79896 0.6065 0.0
C1842 C 0.35316 0.77717 0.56116 0.0
C1843 C 0.34153 0.76704 0.58077 0.0
C1844 C 0.32872 0.77326 0.61 0.0
C1845 C 0.32815 0.78902 0.62332 0.0
C1846 C 0.33253 0.72401 0.57705 0.0
C1847 C 0.34586 0.71794 0.60328 0.0
C1848 C 0.33142 0.73993 0.56574 0.0
C1849 C 0.34374 0.74995 0.57951 0.0
C1850 C 0.35754 0.74357 0.6011 0.0
C1851 C 0.35852 0.72777 0.61346 0.0
H1852 H 0.46678 0.11318 0.82012 0.0
H1853 H 0.47321 0.06957 0.90698 0.0
H1854 H 0.49469 0.1143 0.79978 0.0
H1855 H 0.50089 0.07046 0.88607 0.0
H1856 H 0.55042 0.07336 0.83242 0.0
H1857 H 0.52259 0.07147 0.81128 0.0
H1858 H 0.51606 0.11798 0.87451 0.0
H1859 H 0.5436 0.1197 0.89627 0.0
C1860 C 0.47408 0.10356 0.83272 0.0
C1861 C 0.46792 0.09124 0.86466 0.0
C1862 C 0.49004 0.10423 0.8215 0.0
C1863 C 0.5 0.09246 0.84134 0.0
C1864 C 0.49354 0.0796 0.86949 0.0
C1865 C 0.4777 0.07909 0.88159 0.0
C1866 C 0.54308 0.08333 0.83978 0.0
C1867 C 0.54912 0.09668 0.86586 0.0
C1868 C 0.52716 0.08223 0.8281 0.0
C1869 C 0.51712 0.09457 0.84134 0.0
C1870 C 0.52347 0.10834 0.86316 0.0
C1871 C 0.53925 0.10931 0.87587 0.0
H1872 H 0.15139 0.80025 0.94498 0.0
H1873 H 0.1963 0.79467 0.86709 0.0
H1874 H 0.15057 0.77237 0.96576 0.0
H1875 H 0.19568 0.76699 0.88836 0.0
H1876 H 0.19273 0.71729 0.94032 0.0
H1877 H 0.19401 0.74511 0.96199 0.0
H1878 H 0.14816 0.75108 0.89122 0.0
H1879 H 0.14706 0.72356 0.86904 0.0
C1880 C 0.16135 0.79315 0.9346 0.0
C1881 C 0.17398 0.79954 0.90509 0.0
C1882 C 0.16085 0.77721 0.94603 0.0
C1883 C 0.17306 0.76746 0.92865 0.0
C1884 C 0.18619 0.77416 0.90305 0.0
C1885 C 0.18656 0.79001 0.8908 0.0
C1886 C 0.18275 0.7245 0.93145 0.0
C1887 C 0.16979 0.71831 0.90314 0.0
C1888 C 0.18352 0.74042 0.94339 0.0
C1889 C 0.1712 0.75031 0.92817 0.0
C1890 C 0.15777 0.7438 0.90414 0.0
C1891 C 0.15714 0.72802 0.89122 0.0
H1892 H 0.46517 0.93735 0.19668 0.0
H1893 H 0.47382 0.89732 0.09063 0.0
H1894 H 0.49288 0.93847 0.22123 0.0
H1895 H 0.50111 0.89822 0.11561 0.0
H1896 H 0.5491 0.89843 0.17756 0.0
H1897 H 0.52113 0.89629 0.19373 0.0
H1898 H 0.51589 0.94493 0.15571 0.0
H1899 H 0.5438 0.94694 0.13936 0.0
C1900 C 0.47288 0.92851 0.18024 0.0
C1901 C 0.46735 0.91725 0.14176 0.0
C1902 C 0.48872 0.9292 0.19394 0.0
C1903 C 0.49919 0.91842 0.17043 0.0
C1904 C 0.49338 0.90657 0.13514 0.0
C1905 C 0.47771 0.90609 0.12057 0.0
C1906 C 0.54201 0.90876 0.17517 0.0
C1907 C 0.54854 0.92289 0.15808 0.0
C1908 C 0.52601 0.90753 0.1839 0.0
C1909 C 0.51627 0.92043 0.17572 0.0
C1910 C 0.52305 0.93484 0.16308 0.0
C1911 C 0.53903 0.93601 0.15376 0.0
H1912 H 0.32071 0.22223 0.36698 0.0
H1913 H 0.36643 0.21636 0.43798 0.0
H1914 H 0.32178 0.24994 0.38779 0.0
H1915 H 0.3677 0.24424 0.45825 0.0
H1916 H 0.32557 0.29955 0.4413 0.0
H1917 H 0.32439 0.27166 0.46183 0.0
H1918 H 0.36934 0.26572 0.38382 0.0
H1919 H 0.37032 0.29332 0.3627 0.0
C1920 C 0.33076 0.22684 0.38904 0.0
C1921 C 0.3434 0.21721 0.40161 0.0
C1922 C 0.33139 0.24269 0.40103 0.0
C1923 C 0.34484 0.24931 0.42462 0.0
C1924 C 0.35718 0.23948 0.4401 0.0
C1925 C 0.35642 0.22353 0.42897 0.0
C1926 C 0.3354 0.29233 0.43056 0.0
C1927 C 0.34806 0.29857 0.4006 0.0
C1928 C 0.33468 0.27637 0.44183 0.0
C1929 C 0.34675 0.26646 0.42429 0.0
C1930 C 0.35993 0.273 0.3985 0.0
C1931 C 0.36049 0.28883 0.38624 0.0
H1932 H 0.97216 0.06859 0.61518 0.0
H1933 H 0.96574 0.11354 0.69173 0.0
H1934 H 0.9999 0.06989 0.6357 0.0
H1935 H 0.99366 0.11507 0.71146 0.0
H1936 H 0.04237 0.11902 0.61292 0.0
H1937 H 0.0148 0.11742 0.63429 0.0
H1938 H 0.02175 0.07248 0.71134 0.0
H1939 H 0.04962 0.0743 0.69082 0.0
C1940 C 0.97666 0.07849 0.6384 0.0
C1941 C 0.96686 0.09087 0.65262 0.0
C1942 C 0.99252 0.07925 0.65019 0.0
C1943 C 0.99898 0.0926 0.67514 0.0
C1944 C 0.989 0.10464 0.69229 0.0
C1945 C 0.97304 0.10373 0.68146 0.0
C1946 C 0.03811 0.10905 0.63624 0.0
C1947 C 0.04812 0.09682 0.65048 0.0
C1948 C 0.02231 0.10814 0.64867 0.0
C1949 C 0.01608 0.09481 0.6744 0.0
C1950 C 0.02624 0.0829 0.69151 0.0
C1951 C 0.04217 0.08398 0.68018 0.0
H1952 H 0.82429 0.71408 0.93765 0.0
H1953 H 0.86928 0.7219 0.86287 0.0
H1954 H 0.82229 0.74183 0.96017 0.0
H1955 H 0.86748 0.74932 0.88602 0.0
H1956 H 0.86344 0.79805 0.94387 0.0
H1957 H 0.86498 0.77011 0.96284 0.0
H1958 H 0.81967 0.76405 0.88758 0.0
H1959 H 0.81832 0.79181 0.86809 0.0
C1960 C 0.83397 0.72162 0.92806 0.0
C1961 C 0.84695 0.71588 0.89862 0.0
C1962 C 0.8328 0.73749 0.94054 0.0
C1963 C 0.84473 0.74777 0.92483 0.0
C1964 C 0.85818 0.74172 0.89936 0.0
C1965 C 0.85919 0.726 0.88586 0.0
C1966 C 0.85359 0.79078 0.93363 0.0
C1967 C 0.84069 0.79701 0.90519 0.0
C1968 C 0.85451 0.7748 0.944 0.0
C1969 C 0.84245 0.76486 0.92662 0.0
C1970 C 0.82905 0.77138 0.90222 0.0
C1971 C 0.82827 0.78727 0.891 0.0
H1972 H 0.64761 0.2229 0.3804 0.0
H1973 H 0.69435 0.21673 0.4414 0.0
H1974 H 0.64913 0.25052 0.40118 0.0
H1975 H 0.69605 0.2446 0.46152 0.0
H1976 H 0.69702 0.29338 0.36105 0.0
H1977 H 0.69643 0.26583 0.38437 0.0
H1978 H 0.6532 0.27231 0.47438 0.0
H1979 H 0.65404 0.30011 0.45171 0.0
C1980 C 0.65802 0.22741 0.40021 0.0
C1981 C 0.67083 0.21771 0.40958 0.0
C1982 C 0.6589 0.24323 0.41228 0.0
C1983 C 0.67274 0.24977 0.43276 0.0
C1984 C 0.68524 0.23988 0.44572 0.0
C1985 C 0.68424 0.22394 0.43468 0.0
C1986 C 0.68772 0.28899 0.38775 0.0
C1987 C 0.67566 0.29881 0.40511 0.0
C1988 C 0.68738 0.27323 0.40124 0.0
C1989 C 0.67476 0.26688 0.4312 0.0
C1990 C 0.66309 0.27689 0.45134 0.0
C1991 C 0.6636 0.29278 0.43877 0.0
H1992 H 0.86249 0.2995 0.06411 0.0
H1993 H 0.81888 0.29281 0.15058 0.0
H1994 H 0.86367 0.27165 0.04291 0.0
H1995 H 0.81983 0.26518 0.12868 0.0
H1996 H 0.823 0.21578 0.07421 0.0
H1997 H 0.82108 0.24357 0.05265 0.0
H1998 H 0.86734 0.25031 0.11846 0.0
H1999 H 0.86907 0.2228 0.14078 0.0
C2000 C 0.85286 0.29217 0.07633 0.0
C2001 C 0.84053 0.29823 0.10845 0.0
C2002 C 0.85358 0.27625 0.06463 0.0
C2003 C 0.84184 0.26622 0.08412 0.0
C2004 C 0.82894 0.27259 0.11235 0.0
C2005 C 0.82839 0.2884 0.12499 0.0
C2006 C 0.83293 0.22315 0.08196 0.0
C2007 C 0.84619 0.21719 0.109 0.0
C2008 C 0.8318 0.23904 0.07005 0.0
C2009 C 0.84405 0.24913 0.08399 0.0
C2010 C 0.85778 0.24286 0.10658 0.0
C2011 C 0.85876 0.22709 0.11955 0.0
H2012 H 0.64853 0.71628 0.58966 0.0
H2013 H 0.69659 0.72171 0.63513 0.0
H2014 H 0.6465 0.74425 0.57284 0.0
H2015 H 0.6947 0.7496 0.618 0.0
H2016 H 0.6877 0.80012 0.57269 0.0
H2017 H 0.689 0.77232 0.55007 0.0
H2018 H 0.6476 0.76465 0.65004 0.0
H2019 H 0.64654 0.79206 0.67318 0.0
C2020 C 0.65881 0.72339 0.59358 0.0
C2021 C 0.67277 0.71689 0.6128 0.0
C2022 C 0.65764 0.7394 0.58448 0.0
C2023 C 0.67043 0.74916 0.59428 0.0
C2024 C 0.68469 0.74241 0.60931 0.0
C2025 C 0.6858 0.72645 0.6191 0.0
C2026 C 0.67866 0.79252 0.58823 0.0
C2027 C 0.66701 0.79825 0.62461 0.0
C2028 C 0.67945 0.77662 0.57567 0.0
C2029 C 0.66839 0.76627 0.59824 0.0
C2030 C 0.65618 0.77228 0.63131 0.0
C2031 C 0.6556 0.78801 0.64479 0.0
H2032 H 0.54888 0.4439 0.83315 0.0
H2033 H 0.54268 0.39682 0.89007 0.0
H2034 H 0.52099 0.44577 0.81319 0.0
H2035 H 0.51504 0.39852 0.8696 0.0
H2036 H 0.46541 0.4038 0.81762 0.0
H2037 H 0.49331 0.40289 0.79671 0.0
H2038 H 0.4996 0.44583 0.88878 0.0
H2039 H 0.47195 0.44651 0.91025 0.0
C2040 C 0.54165 0.43378 0.83917 0.0
C2041 C 0.54788 0.42021 0.86298 0.0
C2042 C 0.5257 0.43487 0.8282 0.0
C2043 C 0.5158 0.4223 0.83998 0.0
C2044 C 0.52233 0.40835 0.85942 0.0
C2045 C 0.53817 0.40738 0.87138 0.0
C2046 C 0.47273 0.41328 0.83149 0.0
C2047 C 0.4666 0.42528 0.86516 0.0
C2048 C 0.48868 0.41272 0.81993 0.0
C2049 C 0.49866 0.4243 0.84108 0.0
C2050 C 0.49223 0.43685 0.87116 0.0
C2051 C 0.47641 0.43723 0.88361 0.0
H2052 H 0.96743 0.61126 0.31474 0.0
H2053 H 0.97411 0.56777 0.4021 0.0
H2054 H 0.99533 0.61254 0.29447 0.0
H2055 H 1.0018 0.56882 0.38125 0.0
H2056 H 0.05138 0.57213 0.32772 0.0
H2057 H 0.02356 0.56996 0.30658 0.0
H2058 H 0.01659 0.61645 0.36946 0.0
H2059 H 0.04412 0.61843 0.39122 0.0
C2060 C 0.97478 0.60169 0.3274 0.0
C2061 C 0.96869 0.58935 0.35945 0.0
C2062 C 0.99073 0.60246 0.31625 0.0
C2063 C 1.00077 0.59078 0.33629 0.0
C2064 C 0.99439 0.57788 0.36451 0.0
C2065 C 0.97855 0.57728 0.37655 0.0
C2066 C 0.04394 0.58203 0.335 0.0
C2067 C 0.04986 0.59546 0.36095 0.0
C2068 C 0.02803 0.58077 0.32333 0.0
C2069 C 0.01787 0.59303 0.33645 0.0
C2070 C 0.02409 0.60687 0.35819 0.0
C2071 C 0.03987 0.608 0.37089 0.0
H2072 H 0.96737 0.44219 0.68217 0.0
H2073 H 0.97411 0.39583 0.61851 0.0
H2074 H 0.99525 0.44415 0.70235 0.0
H2075 H 1.00171 0.3976 0.63933 0.0
H2076 H 0.05114 0.40264 0.6932 0.0
H2077 H 0.02323 0.40142 0.71373 0.0
H2078 H 0.01679 0.44511 0.62667 0.0
H2079 H 0.04446 0.44609 0.60549 0.0
C2080 C 0.97471 0.43223 0.67467 0.0
C2081 C 0.96862 0.41885 0.64894 0.0
C2082 C 0.99065 0.43337 0.68579 0.0
C2083 C 1.00069 0.42104 0.67231 0.0
C2084 C 0.99431 0.40724 0.65084 0.0
C2085 C 0.97849 0.40623 0.63869 0.0
C2086 C 0.04378 0.4122 0.68043 0.0
C2087 C 0.04988 0.42451 0.64823 0.0
C2088 C 0.02783 0.41147 0.69175 0.0
C2089 C 0.0178 0.42318 0.67182 0.0
C2090 C 0.02419 0.43602 0.64332 0.0
C2091 C 0.04002 0.43658 0.63107 0.0
H2092 H 0.47328 0.61961 0.10919 0.0
H2093 H 0.46641 0.57441 0.18355 0.0
H2094 H 0.5008 0.61822 0.13118 0.0
H2095 H 0.49426 0.57283 0.20501 0.0
H2096 H 0.54414 0.56954 0.11308 0.0
H2097 H 0.51636 0.57058 0.13245 0.0
H2098 H 0.52189 0.61604 0.20676 0.0
H2099 H 0.54986 0.61481 0.18787 0.0
C2100 C 0.47761 0.60955 0.13182 0.0
C2101 C 0.46772 0.59714 0.14482 0.0
C2102 C 0.4934 0.60877 0.14467 0.0
C2103 C 0.49975 0.5954 0.16973 0.0
C2104 C 0.4897 0.58329 0.18565 0.0
C2105 C 0.47377 0.58422 0.17379 0.0
C2106 C 0.53947 0.57947 0.13566 0.0
C2107 C 0.54909 0.59201 0.14965 0.0
C2108 C 0.52357 0.58008 0.14683 0.0
C2109 C 0.5169 0.59341 0.17103 0.0
C2110 C 0.5267 0.60561 0.18805 0.0
C2111 C 0.5427 0.60488 0.17773 0.0
H2112 H 0.13609 0.1584 0.25864 0.0
H2113 H 0.17754 0.13175 0.28729 0.0
H2114 H 0.12349 0.14526 0.33823 0.0
H2115 H 0.16513 0.11855 0.36814 0.0
H2116 H 0.13336 0.08797 0.47784 0.0
H2117 H 0.14658 0.10062 0.39752 0.0
H2118 H 0.12246 0.14323 0.4368 0.0
H2119 H 0.10905 0.13032 0.51515 0.0
C2120 C 0.14251 0.14976 0.28264 0.0
C2121 C 0.1579 0.14641 0.2685 0.0
C2122 C 0.1353 0.14214 0.32821 0.0
C2123 C 0.14324 0.13079 0.36025 0.0
C2124 C 0.15854 0.12707 0.34436 0.0
C2125 C 0.16572 0.13469 0.29841 0.0
C2126 C 0.13098 0.10004 0.46887 0.0
C2127 C 0.11987 0.10809 0.50097 0.0
C2128 C 0.13862 0.10736 0.42323 0.0
C2129 C 0.13558 0.123 0.41002 0.0
C2130 C 0.12495 0.13115 0.44452 0.0
C2131 C 0.11722 0.12377 0.48951 0.0
H2132 H 0.13141 0.92751 0.53871 0.0
H2133 H 0.10691 0.88529 0.5009 0.0
H2134 H 0.14435 0.91486 0.61962 0.0
H2135 H 0.12012 0.87234 0.57994 0.0
H2136 H 0.13374 0.85736 0.75916 0.0
H2137 H 0.12112 0.87039 0.67906 0.0
H2138 H 0.16284 0.89688 0.64845 0.0
H2139 H 0.17522 0.88387 0.72972 0.0
C2140 C 0.12892 0.91546 0.54775 0.0
C2141 C 0.11784 0.90746 0.51531 0.0
C2142 C 0.1364 0.90814 0.59371 0.0
C2143 C 0.13327 0.89252 0.6069 0.0
C2144 C 0.12265 0.88441 0.57219 0.0
C2145 C 0.11505 0.8918 0.52684 0.0
C2146 C 0.14017 0.86592 0.73486 0.0
C2147 C 0.15556 0.86928 0.74891 0.0
C2148 C 0.13294 0.87347 0.68904 0.0
C2149 C 0.1409 0.88474 0.65674 0.0
C2150 C 0.15622 0.88843 0.67247 0.0
C2151 C 0.1634 0.88091 0.71864 0.0
H2152 H 0.40598 0.88473 0.00809 0.0
H2153 H 0.38179 0.92724 0.97174 0.0
H2154 H 0.39246 0.87201 0.92957 0.0
H2155 H 0.36851 0.91479 0.89106 0.0
H2156 H 0.33754 0.884 0.77963 0.0
H2157 H 0.34996 0.89704 0.86082 0.0
H2158 H 0.39148 0.87015 0.83121 0.0
H2159 H 0.37887 0.85716 0.75134 0.0
C2160 C 0.3978 0.89135 0.98262 0.0
C2161 C 0.39521 0.90702 0.9944 0.0
C2162 C 0.39003 0.88409 0.93751 0.0
C2163 C 0.37944 0.89234 0.90313 0.0
C2164 C 0.37645 0.90797 0.91668 0.0
C2165 C 0.38411 0.91517 0.96251 0.0
C2166 C 0.34933 0.88099 0.7909 0.0
C2167 C 0.35712 0.86925 0.76104 0.0
C2168 C 0.35652 0.88851 0.83703 0.0
C2169 C 0.37179 0.88469 0.85311 0.0
C2170 C 0.3797 0.87334 0.82104 0.0
C2171 C 0.37248 0.8658 0.77531 0.0
H2172 H 0.38273 0.08823 0.03686 0.0
H2173 H 0.40876 0.1298 1.00367 0.0
H2174 H 0.36964 0.10096 0.11713 0.0
H2175 H 0.39544 0.14285 0.08196 0.0
H2176 H 0.38121 0.15798 0.25935 0.0
H2177 H 0.39389 0.14459 0.18042 0.0
H2178 H 0.35165 0.11921 0.14672 0.0
H2179 H 0.33926 0.13241 0.22748 0.0
C2180 C 0.38552 0.10016 0.04676 0.0
C2181 C 0.39708 0.10792 0.01586 0.0
C2182 C 0.37795 0.10754 0.09236 0.0
C2183 C 0.38149 0.12299 0.10671 0.0
C2184 C 0.39257 0.1309 0.07338 0.0
C2185 C 0.40025 0.12344 0.02844 0.0
C2186 C 0.37469 0.14956 0.23472 0.0
C2187 C 0.35917 0.14654 0.24787 0.0
C2188 C 0.38194 0.14183 0.18944 0.0
C2189 C 0.37383 0.13081 0.15641 0.0
C2190 C 0.35837 0.12746 0.17125 0.0
C2191 C 0.35119 0.13509 0.21713 0.0
H2192 H 0.88112 0.92517 0.53852 0.0
H2193 H 0.90761 0.88378 0.50733 0.0
H2194 H 0.86824 0.91262 0.61956 0.0
H2195 H 0.89447 0.87087 0.58653 0.0
H2196 H 0.87984 0.85598 0.76411 0.0
H2197 H 0.89269 0.86931 0.68518 0.0
H2198 H 0.85039 0.89444 0.64941 0.0
H2199 H 0.83792 0.88144 0.73033 0.0
C2200 C 0.88407 0.91331 0.54908 0.0
C2201 C 0.89568 0.90557 0.51846 0.0
C2202 C 0.87662 0.90603 0.59512 0.0
C2203 C 0.88029 0.89066 0.61023 0.0
C2204 C 0.89147 0.88276 0.57731 0.0
C2205 C 0.89905 0.89013 0.53188 0.0
C2206 C 0.87336 0.86434 0.73903 0.0
C2207 C 0.8578 0.86737 0.75167 0.0
C2208 C 0.88069 0.87202 0.69373 0.0
C2209 C 0.87261 0.88293 0.66008 0.0
C2210 C 0.85711 0.88628 0.67441 0.0
C2211 C 0.84987 0.87874 0.72038 0.0
H2212 H 0.83832 0.13369 0.29024 0.0
H2213 H 0.88089 0.15742 0.25118 0.0
H2214 H 0.85084 0.12079 0.37158 0.0
H2215 H 0.89367 0.14431 0.3308 0.0
H2216 H 0.90892 0.13046 0.50921 0.0
H2217 H 0.89573 0.14335 0.43001 0.0
H2218 H 0.86863 0.10201 0.39991 0.0
H2219 H 0.88172 0.08939 0.48051 0.0
C2220 C 0.8504 0.13604 0.29917 0.0
C2221 C 0.85856 0.14686 0.26612 0.0
C2222 C 0.85765 0.12858 0.34536 0.0
C2223 C 0.87333 0.13149 0.35826 0.0
C2224 C 0.88157 0.14192 0.32318 0.0
C2225 C 0.87426 0.14947 0.27753 0.0
C2226 C 0.90018 0.12417 0.48523 0.0
C2227 C 0.89665 0.10882 0.49926 0.0
C2228 C 0.89256 0.13155 0.43989 0.0
C2229 C 0.88109 0.12376 0.40794 0.0
C2230 C 0.87724 0.10849 0.42367 0.0
C2231 C 0.88481 0.10117 0.46945 0.0
H2232 H 0.6365 0.15888 0.26487 0.0
H2233 H 0.67851 0.13379 0.22918 0.0
H2234 H 0.62375 0.14616 0.18456 0.0
H2235 H 0.66591 0.121 0.14775 0.0
H2236 H 0.63416 0.09015 0.0394 0.0
H2237 H 0.64745 0.10264 0.11991 0.0
H2238 H 0.62218 0.14489 0.08529 0.0
H2239 H 0.60888 0.1322 1.00606 0.0
C2240 C 0.643 0.15068 0.23919 0.0
C2241 C 0.65856 0.14763 0.25163 0.0
C2242 C 0.6357 0.1433 0.19324 0.0
C2243 C 0.64373 0.13248 0.15922 0.0
C2244 C 0.65925 0.1291 0.17318 0.0
C2245 C 0.66654 0.13648 0.21945 0.0
C2246 C 0.63154 0.10212 0.04941 0.0
C2247 C 0.62018 0.11012 0.0183 0.0
C2248 C 0.63922 0.10934 0.09513 0.0
C2249 C 0.63592 0.12483 0.10955 0.0
C2250 C 0.62493 0.13293 0.07636 0.0
C2251 C 0.61723 0.12567 0.03102 0.0
H2252 H 0.63444 0.85965 0.75824 0.0
H2253 H 0.67683 0.88432 0.79168 0.0
H2254 H 0.62185 0.87323 0.83673 0.0
H2255 H 0.66447 0.89781 0.872 0.0
H2256 H 0.63365 0.92895 0.98294 0.0
H2257 H 0.64663 0.91632 0.90203 0.0
H2258 H 0.62016 0.87471 0.93487 0.0
H2259 H 0.60726 0.88751 0.01438 0.0
C2260 C 0.64106 0.86796 0.78302 0.0
C2261 C 0.65668 0.87064 0.77047 0.0
C2262 C 0.63386 0.8758 0.82808 0.0
C2263 C 0.64209 0.88662 0.86149 0.0
C2264 C 0.65765 0.8897 0.84714 0.0
C2265 C 0.66481 0.88192 0.80149 0.0
C2266 C 0.63072 0.91709 0.97245 0.0
C2267 C 0.61913 0.90931 1.00315 0.0
C2268 C 0.63821 0.90978 0.92646 0.0
C2269 C 0.63449 0.89442 0.91134 0.0
C2270 C 0.62329 0.88655 0.94423 0.0
C2271 C 0.61579 0.89388 0.98979 0.0
H2272 H 0.60854 0.62979 0.00964 0.0
H2273 H 0.63447 0.58806 0.9781 0.0
H2274 H 0.62199 0.64264 0.93118 0.0
H2275 H 0.64777 0.60063 0.89787 0.0
H2276 H 0.67854 0.63188 0.78781 0.0
H2277 H 0.6659 0.61877 0.86834 0.0
H2278 H 0.62382 0.64426 0.83279 0.0
H2279 H 0.63674 0.65755 0.75413 0.0
C2280 C 0.61706 0.62336 0.98521 0.0
C2281 C 0.62015 0.60784 0.9983 0.0
C2282 C 0.62483 0.6307 0.9402 0.0
C2283 C 0.63597 0.62272 0.90737 0.0
C2284 C 0.63941 0.60727 0.92223 0.0
C2285 C 0.63173 0.59999 0.96782 0.0
C2286 C 0.66659 0.63461 0.79768 0.0
C2287 C 0.65873 0.64605 0.76648 0.0
C2288 C 0.65927 0.62703 0.84344 0.0
C2289 C 0.64378 0.63045 0.85774 0.0
C2290 C 0.63579 0.64146 0.82424 0.0
C2291 C 0.64318 0.64913 0.77909 0.0
H2292 H 0.67622 0.38321 0.23042 0.0
H2293 H 0.63493 0.35642 0.26003 0.0
H2294 H 0.66374 0.3961 0.14912 0.0
H2295 H 0.62217 0.36941 0.1801 0.0
H2296 H 0.60777 0.38412 1.00199 0.0
H2297 H 0.62103 0.37131 0.08124 0.0
H2298 H 0.64528 0.4139 0.11968 0.0
H2299 H 0.63233 0.42638 0.03846 0.0
C2300 C 0.66441 0.38018 0.2194 0.0
C2301 C 0.65666 0.3685 0.24969 0.0
C2302 C 0.65718 0.38764 0.17322 0.0
C2303 C 0.64188 0.38385 0.15755 0.0
C2304 C 0.63399 0.37255 0.18996 0.0
C2305 C 0.64128 0.36503 0.23571 0.0
C2306 C 0.61594 0.39067 0.0277 0.0
C2307 C 0.61874 0.4063 0.01571 0.0
C2308 C 0.62356 0.38336 0.07318 0.0
C2309 C 0.6342 0.39153 0.10761 0.0
C2310 C 0.63733 0.40713 0.09399 0.0
C2311 C 0.62984 0.41436 0.04787 0.0
H2312 H 0.88398 0.42553 0.47497 0.0
H2313 H 0.90841 0.38313 0.51076 0.0
H2314 H 0.87095 0.41319 0.3937 0.0
H2315 H 0.89508 0.37046 0.43148 0.0
H2316 H 0.88106 0.35573 0.25291 0.0
H2317 H 0.89388 0.36861 0.33282 0.0
H2318 H 0.85244 0.39554 0.36384 0.0
H2319 H 0.83991 0.38275 0.2825 0.0
C2320 C 0.88643 0.4135 0.46541 0.0
C2321 C 0.89751 0.40537 0.49739 0.0
C2322 C 0.87889 0.40635 0.41926 0.0
C2323 C 0.88196 0.39076 0.40542 0.0
C2324 C 0.89259 0.38251 0.4397 0.0
C2325 C 0.90025 0.38974 0.48521 0.0
C2326 C 0.87475 0.36437 0.27722 0.0
C2327 C 0.85939 0.36793 0.26325 0.0
C2328 C 0.88208 0.37183 0.32297 0.0
C2329 C 0.87425 0.38316 0.35542 0.0
C2330 C 0.85897 0.38705 0.33972 0.0
C2331 C 0.8517 0.37965 0.29352 0.0
H2332 H 0.84021 0.63138 0.72295 0.0
H2333 H 0.88246 0.65593 0.75981 0.0
H2334 H 0.85273 0.61846 0.64184 0.0
H2335 H 0.89529 0.64277 0.68057 0.0
H2336 H 0.91038 0.62893 0.50233 0.0
H2337 H 0.89725 0.64165 0.58181 0.0
H2338 H 0.8706 0.60003 0.61236 0.0
H2339 H 0.88367 0.58758 0.5315 0.0
C2340 C 0.85224 0.63389 0.71366 0.0
C2341 C 0.86028 0.64497 0.74593 0.0
C2342 C 0.85949 0.62642 0.66757 0.0
C2343 C 0.87509 0.62957 0.65405 0.0
C2344 C 0.88324 0.64021 0.68856 0.0
C2345 C 0.87591 0.64778 0.73404 0.0
C2346 C 0.90175 0.62255 0.52643 0.0
C2347 C 0.89836 0.60716 0.51247 0.0
C2348 C 0.89414 0.62983 0.57195 0.0
C2349 C 0.88282 0.62192 0.60417 0.0
C2350 C 0.87909 0.60661 0.58844 0.0
C2351 C 0.88664 0.59939 0.54249 0.0
H2352 H 0.37982 0.35936 0.26124 0.0
H2353 H 0.33711 0.38305 0.22363 0.0
H2354 H 0.39243 0.37269 0.18208 0.0
H2355 H 0.34952 0.39627 0.14269 0.0
H2356 H 0.38058 0.42783 0.03364 0.0
H2357 H 0.36728 0.41509 0.11359 0.0
H2358 H 0.39439 0.37376 0.08337 0.0
H2359 H 0.40771 0.38671 1.00495 0.0
C2360 C 0.37313 0.36737 0.23535 0.0
C2361 C 0.35743 0.36987 0.24702 0.0
C2362 C 0.38034 0.37506 0.18992 0.0
C2363 C 0.37204 0.38556 0.15526 0.0
C2364 C 0.35637 0.38842 0.16853 0.0
C2365 C 0.3492 0.38078 0.21451 0.0
C2366 C 0.3836 0.41601 0.0445 0.0
C2367 C 0.3955 0.40838 0.01494 0.0
C2368 C 0.37592 0.40864 0.08993 0.0
C2369 C 0.37975 0.39334 0.10557 0.0
C2370 C 0.39123 0.38557 0.07367 0.0
C2371 C 0.39894 0.39299 0.02872 0.0
H2372 H 0.38207 0.59034 0.97471 0.0
H2373 H 0.4078 0.63217 1.00646 0.0
H2374 H 0.3688 0.60282 0.89409 0.0
H2375 H 0.3945 0.64489 0.92727 0.0
H2376 H 0.38014 0.65889 0.7479 0.0
H2377 H 0.39283 0.64613 0.8283 0.0
H2378 H 0.35053 0.62123 0.8654 0.0
H2379 H 0.33801 0.63404 0.78381 0.0
C2380 C 0.38478 0.60226 0.96437 0.0
C2381 C 0.39626 0.61019 0.99505 0.0
C2382 C 0.37712 0.60949 0.91857 0.0
C2383 C 0.38054 0.62493 0.90367 0.0
C2384 C 0.39164 0.63297 0.9365 0.0
C2385 C 0.39934 0.6257 0.98187 0.0
C2386 C 0.3736 0.65073 0.77365 0.0
C2387 C 0.35802 0.64776 0.76124 0.0
C2388 C 0.38086 0.64334 0.81968 0.0
C2389 C 0.37277 0.63258 0.85384 0.0
C2390 C 0.35724 0.62927 0.83988 0.0
C2391 C 0.34999 0.63667 0.79352 0.0
H2392 H 0.13625 0.65871 0.76038 0.0
H2393 H 0.17857 0.63411 0.72509 0.0
H2394 H 0.12365 0.64572 0.68034 0.0
H2395 H 0.16615 0.62109 0.6438 0.0
H2396 H 0.13496 0.58992 0.53465 0.0
H2397 H 0.14801 0.60253 0.61544 0.0
H2398 H 0.12206 0.64441 0.58126 0.0
H2399 H 0.10901 0.63158 0.50178 0.0
C2400 C 0.14285 0.65056 0.73484 0.0
C2401 C 0.15845 0.64772 0.74732 0.0
C2402 C 0.13564 0.64304 0.68902 0.0
C2403 C 0.14382 0.6323 0.65509 0.0
C2404 C 0.15938 0.62912 0.66914 0.0
C2405 C 0.16657 0.63664 0.71532 0.0
C2406 C 0.13215 0.60183 0.54482 0.0
C2407 C 0.12067 0.60968 0.51374 0.0
C2408 C 0.13968 0.60913 0.59072 0.0
C2409 C 0.13613 0.62455 0.60534 0.0
C2410 C 0.12502 0.6325 0.5722 0.0
C2411 C 0.11747 0.62517 0.52669 0.0
H2412 H 0.13674 0.35892 0.25133 0.0
H2413 H 0.17937 0.38268 0.28927 0.0
H2414 H 0.12404 0.37222 0.33037 0.0
H2415 H 0.16689 0.39586 0.3701 0.0
H2416 H 0.13572 0.42735 0.47876 0.0
H2417 H 0.14904 0.41466 0.39881 0.0
H2418 H 0.12208 0.37325 0.4292 0.0
H2419 H 0.10874 0.38615 0.50769 0.0
C2420 C 0.14339 0.36694 0.27727 0.0
C2421 C 0.15909 0.36947 0.26574 0.0
C2422 C 0.13614 0.37461 0.32263 0.0
C2423 C 0.1444 0.38511 0.35734 0.0
C2424 C 0.16007 0.388 0.34421 0.0
C2425 C 0.16729 0.38039 0.29829 0.0
C2426 C 0.13274 0.41553 0.46794 0.0
C2427 C 0.12088 0.40786 0.49758 0.0
C2428 C 0.14043 0.40818 0.42252 0.0
C2429 C 0.13665 0.39287 0.40695 0.0
C2430 C 0.1252 0.38507 0.43889 0.0
C2431 C 0.11748 0.39246 0.48385 0.0
loop_
_geom_bond_atom_site_label_1
_geom_bond_atom_site_label_2
_geom_bond_distance
_geom_bond_site_symmetry_2
_ccdc_geom_bond_type
Mn0 O5 2.095 . S
Mn0 O15 2.162 . S
Mn0 O16 2.297 . S
Mn0 O24 2.385 . S
Mn0 O25 2.209 . S
Mn0 O26 2.094 . S
Mn1 O6 2.121 . S
Mn1 N8 2.257 . S
Mn1 N17 2.282 . S
Mn1 O25 2.215 . S
Mn1 O27 2.117 . S
C2 O24 1.234 . S
C2 O25 1.283 . S
C3 O15 1.281 . S
C3 O16 1.236 . S
C4 O26 1.240 . S
C4 O27 1.264 . S
O5 Mn0 2.095 . S
O5 C14 1.250 . S
O6 Mn1 2.121 . S
O6 C14 1.258 . S
C7 N8 1.326 . S
C7 C11 1.460 . S
C7 H13 0.929 . S
N8 Mn1 2.257 . S
N8 C7 1.326 . S
N8 C12 1.362 . S
C9 C10 1.258 . S
C9 C12 1.431 . S
C9 C29 1.449 . S
C10 C9 1.258 . S
C10 C11 1.477 . S
C10 H30 0.931 . S
C11 C7 1.460 . S
C11 C10 1.477 . S
C11 H31 0.930 . S
C12 N8 1.362 . S
C12 C9 1.431 . S
C12 C22 1.476 . S
H13 C7 0.929 . S
C14 O5 1.250 . S
C14 O6 1.258 . S
O15 Mn0 2.162 . S
O15 C3 1.281 . S
O16 Mn0 2.297 . S
O16 C3 1.236 . S
N17 Mn1 2.282 . S
N17 C18 1.328 . S
N17 C22 1.318 . S
C18 N17 1.328 . S
C18 C19 1.457 . S
C18 H23 0.929 . S
C19 C18 1.457 . S
C19 C20 1.291 . S
C19 H32 0.931 . S
C20 C19 1.291 . S
C20 C21 1.373 . S
C20 H33 0.929 . S
C21 C20 1.373 . S
C21 C22 1.396 . S
C21 C28 1.403 . S
C22 C12 1.476 . S
C22 N17 1.318 . S
C22 C21 1.396 . S
H23 C18 0.929 . S
O24 Mn0 2.385 . S
O24 C2 1.234 . S
O25 Mn0 2.209 . S
O25 Mn1 2.215 . S
O25 C2 1.283 . S
O26 Mn0 2.094 . S
O26 C4 1.240 . S
O27 Mn1 2.117 . S
O27 C4 1.264 . S
C28 C21 1.403 . S
C28 C29 1.399 . S
C28 H34 0.929 . S
C29 C9 1.449 . S
C29 C28 1.399 . S
C29 H35 0.930 . S
H30 C10 0.931 . S
H31 C11 0.930 . S
H32 C19 0.931 . S
H33 C20 0.929 . S
H34 C28 0.929 . S
H35 C29 0.930 . S
Mn36 O41 2.095 . S
Mn36 O51 2.162 . S
Mn36 O52 2.297 . S
Mn36 O60 2.385 . S
Mn36 O61 2.209 . S
Mn36 O62 2.094 . S
Mn37 O42 2.121 . S
Mn37 N44 2.257 . S
Mn37 N53 2.282 . S
Mn37 O61 2.215 . S
Mn37 O63 2.117 . S
C38 O60 1.234 . S
C38 O61 1.283 . S
C39 O51 1.281 . S
C39 O52 1.236 . S
C40 O62 1.240 . S
C40 O63 1.264 . S
O41 Mn36 2.095 . S
O41 C50 1.250 . S
O42 Mn37 2.121 . S
O42 C50 1.258 . S
C43 N44 1.326 . S
C43 C47 1.460 . S
C43 H49 0.929 . S
N44 Mn37 2.257 . S
N44 C43 1.326 . S
N44 C48 1.362 . S
C45 C46 1.258 . S
C45 C48 1.431 . S
C45 C65 1.449 . S
C46 C45 1.258 . S
C46 C47 1.477 . S
C46 H66 0.931 . S
C47 C43 1.460 . S
C47 C46 1.477 . S
C47 H67 0.930 . S
C48 N44 1.362 . S
C48 C45 1.431 . S
C48 C58 1.476 . S
H49 C43 0.929 . S
C50 O41 1.250 . S
C50 O42 1.258 . S
O51 Mn36 2.162 . S
O51 C39 1.281 . S
O52 Mn36 2.297 . S
O52 C39 1.236 . S
N53 Mn37 2.282 . S
N53 C54 1.328 . S
N53 C58 1.318 . S
C54 N53 1.328 . S
C54 C55 1.457 . S
C54 H59 0.929 . S
C55 C54 1.457 . S
C55 C56 1.291 . S
C55 H68 0.931 . S
C56 C55 1.291 . S
C56 C57 1.373 . S
C56 H69 0.929 . S
C57 C56 1.373 . S
C57 C58 1.396 . S
C57 C64 1.403 . S
C58 C48 1.476 . S
C58 N53 1.318 . S
C58 C57 1.396 . S
H59 C54 0.929 . S
O60 Mn36 2.385 . S
O60 C38 1.234 . S
O61 Mn36 2.209 . S
O61 Mn37 2.215 . S
O61 C38 1.283 . S
O62 Mn36 2.094 . S
O62 C40 1.240 . S
O63 Mn37 2.117 . S
O63 C40 1.264 . S
C64 C57 1.403 . S
C64 C65 1.399 . S
C64 H70 0.929 . S
C65 C45 1.449 . S
C65 C64 1.399 . S
C65 H71 0.930 . S
H66 C46 0.931 . S
H67 C47 0.930 . S
H68 C55 0.931 . S
H69 C56 0.929 . S
H70 C64 0.929 . S
H71 C65 0.930 . S
Mn72 O77 2.095 . S
Mn72 O87 2.162 . S
Mn72 O88 2.297 . S
Mn72 O96 2.385 . S
Mn72 O97 2.209 . S
Mn72 O98 2.094 . S
Mn73 O78 2.121 . S
Mn73 N80 2.257 . S
Mn73 N89 2.282 . S
Mn73 O97 2.215 . S
Mn73 O99 2.117 . S
C74 O96 1.234 . S
C74 O97 1.283 . S
C75 O87 1.281 . S
C75 O88 1.236 . S
C76 O98 1.240 . S
C76 O99 1.264 . S
O77 Mn72 2.095 . S
O77 C86 1.250 . S
O78 Mn73 2.121 . S
O78 C86 1.258 . S
C79 N80 1.326 . S
C79 C83 1.460 . S
C79 H85 0.929 . S
N80 Mn73 2.257 . S
N80 C79 1.326 . S
N80 C84 1.362 . S
C81 C82 1.258 . S
C81 C84 1.431 . S
C81 C101 1.449 . S
C82 C81 1.258 . S
C82 C83 1.477 . S
C82 H102 0.931 . S
C83 C79 1.460 . S
C83 C82 1.477 . S
C83 H103 0.930 . S
C84 N80 1.362 . S
C84 C81 1.431 . S
C84 C94 1.476 . S
H85 C79 0.929 . S
C86 O77 1.250 . S
C86 O78 1.258 . S
O87 Mn72 2.162 . S
O87 C75 1.281 . S
O88 Mn72 2.297 . S
O88 C75 1.236 . S
N89 Mn73 2.282 . S
N89 C90 1.328 . S
N89 C94 1.318 . S
C90 N89 1.328 . S
C90 C91 1.457 . S
C90 H95 0.929 . S
C91 C90 1.457 . S
C91 C92 1.291 . S
C91 H104 0.931 . S
C92 C91 1.291 . S
C92 C93 1.373 . S
C92 H105 0.929 . S
C93 C92 1.373 . S
C93 C94 1.396 . S
C93 C100 1.403 . S
C94 C84 1.476 . S
C94 N89 1.318 . S
C94 C93 1.396 . S
H95 C90 0.929 . S
O96 Mn72 2.385 . S
O96 C74 1.234 . S
O97 Mn72 2.209 . S
O97 Mn73 2.215 . S
O97 C74 1.283 . S
O98 Mn72 2.094 . S
O98 C76 1.240 . S
O99 Mn73 2.117 . S
O99 C76 1.264 . S
C100 C93 1.403 . S
C100 C101 1.399 . S
C100 H106 0.929 . S
C101 C81 1.449 . S
C101 C100 1.399 . S
C101 H107 0.930 . S
H102 C82 0.931 . S
H103 C83 0.930 . S
H104 C91 0.931 . S
H105 C92 0.929 . S
H106 C100 0.929 . S
H107 C101 0.930 . S
Mn108 O113 2.095 . S
Mn108 O123 2.162 . S
Mn108 O124 2.297 . S
Mn108 O132 2.385 . S
Mn108 O133 2.209 . S
Mn108 O134 2.094 . S
Mn109 O114 2.121 1_554 S
Mn109 N116 2.257 . S
Mn109 N125 2.282 . S
Mn109 O133 2.215 1_554 S
Mn109 O135 2.117 1_554 S
C110 O132 1.234 . S
C110 O133 1.283 . S
C111 O123 1.281 . S
C111 O124 1.236 . S
C112 O134 1.240 . S
C112 O135 1.264 . S
O113 Mn108 2.095 . S
O113 C122 1.250 . S
O114 Mn109 2.121 1_556 S
O114 C122 1.258 . S
C115 N116 1.326 . S
C115 C119 1.460 . S
C115 H121 0.929 . S
N116 Mn109 2.257 . S
N116 C115 1.326 . S
N116 C120 1.362 . S
C117 C118 1.258 . S
C117 C120 1.431 . S
C117 C137 1.449 . S
C118 C117 1.258 . S
C118 C119 1.477 . S
C118 H138 0.931 . S
C119 C115 1.460 . S
C119 C118 1.477 . S
C119 H139 0.930 . S
C120 N116 1.362 . S
C120 C117 1.431 . S
C120 C130 1.476 . S
H121 C115 0.929 . S
C122 O113 1.250 . S
C122 O114 1.258 . S
O123 Mn108 2.162 . S
O123 C111 1.281 . S
O124 Mn108 2.297 . S
O124 C111 1.236 . S
N125 Mn109 2.282 . S
N125 C126 1.328 . S
N125 C130 1.318 . S
C126 N125 1.328 . S
C126 C127 1.457 . S
C126 H131 0.929 . S
C127 C126 1.457 . S
C127 C128 1.291 . S
C127 H140 0.931 . S
C128 C127 1.291 . S
C128 C129 1.373 . S
C128 H141 0.929 . S
C129 C128 1.373 . S
C129 C130 1.396 . S
C129 C136 1.403 . S
C130 C120 1.476 . S
C130 N125 1.318 . S
C130 C129 1.396 . S
H131 C126 0.929 . S
O132 Mn108 2.385 . S
O132 C110 1.234 . S
O133 Mn108 2.209 . S
O133 Mn109 2.215 1_556 S
O133 C110 1.283 . S
O134 Mn108 2.094 . S
O134 C112 1.240 . S
O135 Mn109 2.117 1_556 S
O135 C112 1.264 . S
C136 C129 1.403 . S
C136 C137 1.399 . S
C136 H142 0.929 . S
C137 C117 1.449 . S
C137 C136 1.399 . S
C137 H143 0.930 . S
H138 C118 0.931 . S
H139 C119 0.930 . S
H140 C127 0.931 . S
H141 C128 0.929 . S
H142 C136 0.929 . S
H143 C137 0.930 . S
Mn144 O149 2.095 . S
Mn144 O159 2.162 . S
Mn144 O160 2.297 . S
Mn144 O168 2.385 . S
Mn144 O169 2.209 . S
Mn144 O170 2.094 . S
Mn145 O150 2.121 . S
Mn145 N152 2.257 . S
Mn145 N161 2.282 . S
Mn145 O169 2.215 . S
Mn145 O171 2.117 . S
C146 O168 1.234 . S
C146 O169 1.283 . S
C147 O159 1.281 . S
C147 O160 1.236 . S
C148 O170 1.240 . S
C148 O171 1.264 . S
O149 Mn144 2.095 . S
O149 C158 1.250 . S
O150 Mn145 2.121 . S
O150 C158 1.258 . S
C151 N152 1.326 . S
C151 C155 1.460 . S
C151 H157 0.929 . S
N152 Mn145 2.257 . S
N152 C151 1.326 . S
N152 C156 1.362 . S
C153 C154 1.258 . S
C153 C156 1.431 . S
C153 C173 1.449 . S
C154 C153 1.258 . S
C154 C155 1.477 . S
C154 H174 0.931 . S
C155 C151 1.460 . S
C155 C154 1.477 . S
C155 H175 0.930 . S
C156 N152 1.362 . S
C156 C153 1.431 . S
C156 C166 1.476 . S
H157 C151 0.929 . S
C158 O149 1.250 . S
C158 O150 1.258 . S
O159 Mn144 2.162 . S
O159 C147 1.281 . S
O160 Mn144 2.297 . S
O160 C147 1.236 . S
N161 Mn145 2.282 . S
N161 C162 1.328 . S
N161 C166 1.318 . S
C162 N161 1.328 . S
C162 C163 1.457 . S
C162 H167 0.929 . S
C163 C162 1.457 . S
C163 C164 1.291 . S
C163 H176 0.931 . S
C164 C163 1.291 . S
C164 C165 1.373 . S
C164 H177 0.929 . S
C165 C164 1.373 . S
C165 C166 1.396 . S
C165 C172 1.403 . S
C166 C156 1.476 . S
C166 N161 1.318 . S
C166 C165 1.396 . S
H167 C162 0.929 . S
O168 Mn144 2.385 . S
O168 C146 1.234 . S
O169 Mn144 2.209 . S
O169 Mn145 2.215 . S
O169 C146 1.283 . S
O170 Mn144 2.094 . S
O170 C148 1.240 . S
O171 Mn145 2.117 . S
O171 C148 1.264 . S
C172 C165 1.403 . S
C172 C173 1.399 . S
C172 H178 0.929 . S
C173 C153 1.449 . S
C173 C172 1.399 . S
C173 H179 0.930 . S
H174 C154 0.931 . S
H175 C155 0.930 . S
H176 C163 0.931 . S
H177 C164 0.929 . S
H178 C172 0.929 . S
H179 C173 0.930 . S
Mn180 O185 2.095 . S
Mn180 O195 2.162 . S
Mn180 O196 2.297 . S
Mn180 O204 2.385 . S
Mn180 O205 2.209 . S
Mn180 O206 2.094 . S
Mn181 O186 2.121 1_556 S
Mn181 N188 2.257 . S
Mn181 N197 2.282 . S
Mn181 O205 2.215 1_556 S
Mn181 O207 2.117 1_556 S
C182 O204 1.234 . S
C182 O205 1.283 . S
C183 O195 1.281 . S
C183 O196 1.236 . S
C184 O206 1.240 . S
C184 O207 1.264 . S
O185 Mn180 2.095 . S
O185 C194 1.250 . S
O186 Mn181 2.121 1_554 S
O186 C194 1.258 . S
C187 N188 1.326 . S
C187 C191 1.460 . S
C187 H193 0.929 . S
N188 Mn181 2.257 . S
N188 C187 1.326 . S
N188 C192 1.362 . S
C189 C190 1.258 . S
C189 C192 1.431 . S
C189 C209 1.449 . S
C190 C189 1.258 . S
C190 C191 1.477 . S
C190 H210 0.931 . S
C191 C187 1.460 . S
C191 C190 1.477 . S
C191 H211 0.930 . S
C192 N188 1.362 . S
C192 C189 1.431 . S
C192 C202 1.476 . S
H193 C187 0.929 . S
C194 O185 1.250 . S
C194 O186 1.258 . S
O195 Mn180 2.162 . S
O195 C183 1.281 . S
O196 Mn180 2.297 . S
O196 C183 1.236 . S
N197 Mn181 2.282 . S
N197 C198 1.328 . S
N197 C202 1.318 . S
C198 N197 1.328 . S
C198 C199 1.457 . S
C198 H203 0.929 . S
C199 C198 1.457 . S
C199 C200 1.291 . S
C199 H212 0.931 . S
C200 C199 1.291 . S
C200 C201 1.373 . S
C200 H213 0.929 . S
C201 C200 1.373 . S
C201 C202 1.396 . S
C201 C208 1.403 . S
C202 C192 1.476 . S
C202 N197 1.318 . S
C202 C201 1.396 . S
H203 C198 0.929 . S
O204 Mn180 2.385 . S
O204 C182 1.234 . S
O205 Mn180 2.209 . S
O205 Mn181 2.215 1_554 S
O205 C182 1.283 . S
O206 Mn180 2.094 . S
O206 C184 1.240 . S
O207 Mn181 2.117 1_554 S
O207 C184 1.264 . S
C208 C201 1.403 . S
C208 C209 1.399 . S
C208 H214 0.929 . S
C209 C189 1.449 . S
C209 C208 1.399 . S
C209 H215 0.930 . S
H210 C190 0.931 . S
H211 C191 0.930 . S
H212 C199 0.931 . S
H213 C200 0.929 . S
H214 C208 0.929 . S
H215 C209 0.930 . S
Mn216 O221 2.095 . S
Mn216 O231 2.162 . S
Mn216 O232 2.297 . S
Mn216 O240 2.385 . S
Mn216 O241 2.209 . S
Mn216 O242 2.094 . S
Mn217 O222 2.121 . S
Mn217 N224 2.257 . S
Mn217 N233 2.282 . S
Mn217 O241 2.215 . S
Mn217 O243 2.117 . S
C218 O240 1.234 . S
C218 O241 1.283 . S
C219 O231 1.281 . S
C219 O232 1.236 . S
C220 O242 1.240 . S
C220 O243 1.264 . S
O221 Mn216 2.095 . S
O221 C230 1.250 . S
O222 Mn217 2.121 . S
O222 C230 1.258 . S
C223 N224 1.326 . S
C223 C227 1.460 . S
C223 H229 0.929 . S
N224 Mn217 2.257 . S
N224 C223 1.326 . S
N224 C228 1.362 . S
C225 C226 1.258 . S
C225 C228 1.431 . S
C225 C245 1.449 . S
C226 C225 1.258 . S
C226 C227 1.477 . S
C226 H246 0.931 . S
C227 C223 1.460 . S
C227 C226 1.477 . S
C227 H247 0.930 . S
C228 N224 1.362 . S
C228 C225 1.431 . S
C228 C238 1.476 . S
H229 C223 0.929 . S
C230 O221 1.250 . S
C230 O222 1.258 . S
O231 Mn216 2.162 . S
O231 C219 1.281 . S
O232 Mn216 2.297 . S
O232 C219 1.236 . S
N233 Mn217 2.282 . S
N233 C234 1.328 . S
N233 C238 1.318 . S
C234 N233 1.328 . S
C234 C235 1.457 . S
C234 H239 0.929 . S
C235 C234 1.457 . S
C235 C236 1.291 . S
C235 H248 0.931 . S
C236 C235 1.291 . S
C236 C237 1.373 . S
C236 H249 0.929 . S
C237 C236 1.373 . S
C237 C238 1.396 . S
C237 C244 1.403 . S
C238 C228 1.476 . S
C238 N233 1.318 . S
C238 C237 1.396 . S
H239 C234 0.929 . S
O240 Mn216 2.385 . S
O240 C218 1.234 . S
O241 Mn216 2.209 . S
O241 Mn217 2.215 . S
O241 C218 1.283 . S
O242 Mn216 2.094 . S
O242 C220 1.240 . S
O243 Mn217 2.117 . S
O243 C220 1.264 . S
C244 C237 1.403 . S
C244 C245 1.399 . S
C244 H250 0.929 . S
C245 C225 1.449 . S
C245 C244 1.399 . S
C245 H251 0.930 . S
H246 C226 0.931 . S
H247 C227 0.930 . S
H248 C235 0.931 . S
H249 C236 0.929 . S
H250 C244 0.929 . S
H251 C245 0.930 . S
Mn252 O257 2.095 . S
Mn252 O267 2.162 . S
Mn252 O268 2.297 . S
Mn252 O276 2.385 . S
Mn252 O277 2.209 . S
Mn252 O278 2.094 . S
Mn253 O258 2.121 . S
Mn253 N260 2.257 . S
Mn253 N269 2.282 . S
Mn253 O277 2.215 . S
Mn253 O279 2.117 . S
C254 O276 1.234 . S
C254 O277 1.283 . S
C255 O267 1.281 . S
C255 O268 1.236 . S
C256 O278 1.240 . S
C256 O279 1.264 . S
O257 Mn252 2.095 . S
O257 C266 1.250 . S
O258 Mn253 2.121 . S
O258 C266 1.258 . S
C259 N260 1.326 . S
C259 C263 1.460 . S
C259 H265 0.929 . S
N260 Mn253 2.257 . S
N260 C259 1.326 . S
N260 C264 1.362 . S
C261 C262 1.258 . S
C261 C264 1.431 . S
C261 C281 1.449 . S
C262 C261 1.258 . S
C262 C263 1.477 . S
C262 H282 0.931 . S
C263 C259 1.460 . S
C263 C262 1.477 . S
C263 H283 0.930 . S
C264 N260 1.362 . S
C264 C261 1.431 . S
C264 C274 1.476 . S
H265 C259 0.929 . S
C266 O257 1.250 . S
C266 O258 1.258 . S
O267 Mn252 2.162 . S
O267 C255 1.281 . S
O268 Mn252 2.297 . S
O268 C255 1.236 . S
N269 Mn253 2.282 . S
N269 C270 1.328 . S
N269 C274 1.318 . S
C270 N269 1.328 . S
C270 C271 1.457 . S
C270 H275 0.929 . S
C271 C270 1.457 . S
C271 C272 1.291 . S
C271 H284 0.931 . S
C272 C271 1.291 . S
C272 C273 1.373 . S
C272 H285 0.929 . S
C273 C272 1.373 . S
C273 C274 1.396 . S
C273 C280 1.403 . S
C274 C264 1.476 . S
C274 N269 1.318 . S
C274 C273 1.396 . S
H275 C270 0.929 . S
O276 Mn252 2.385 . S
O276 C254 1.234 . S
O277 Mn252 2.209 . S
O277 Mn253 2.215 . S
O277 C254 1.283 . S
O278 Mn252 2.094 . S
O278 C256 1.240 . S
O279 Mn253 2.117 . S
O279 C256 1.264 . S
C280 C273 1.403 . S
C280 C281 1.399 . S
C280 H286 0.929 . S
C281 C261 1.449 . S
C281 C280 1.399 . S
C281 H287 0.930 . S
H282 C262 0.931 . S
H283 C263 0.930 . S
H284 C271 0.931 . S
H285 C272 0.929 . S
H286 C280 0.929 . S
H287 C281 0.930 . S
Mn288 O293 2.095 . S
Mn288 O303 2.162 . S
Mn288 O304 2.297 . S
Mn288 O312 2.385 . S
Mn288 O313 2.209 . S
Mn288 O314 2.094 . S
Mn289 O294 2.121 . S
Mn289 N296 2.257 . S
Mn289 N305 2.282 . S
Mn289 O313 2.215 . S
Mn289 O315 2.117 . S
C290 O312 1.234 . S
C290 O313 1.283 . S
C291 O303 1.281 . S
C291 O304 1.236 . S
C292 O314 1.240 . S
C292 O315 1.264 . S
O293 Mn288 2.095 . S
O293 C302 1.250 . S
O294 Mn289 2.121 . S
O294 C302 1.258 . S
C295 N296 1.326 . S
C295 C299 1.460 . S
C295 H301 0.929 . S
N296 Mn289 2.257 . S
N296 C295 1.326 . S
N296 C300 1.362 . S
C297 C298 1.258 . S
C297 C300 1.431 . S
C297 C317 1.449 . S
C298 C297 1.258 . S
C298 C299 1.477 . S
C298 H318 0.931 . S
C299 C295 1.460 . S
C299 C298 1.477 . S
C299 H319 0.930 . S
C300 N296 1.362 . S
C300 C297 1.431 . S
C300 C310 1.476 . S
H301 C295 0.929 . S
C302 O293 1.250 . S
C302 O294 1.258 . S
O303 Mn288 2.162 . S
O303 C291 1.281 . S
O304 Mn288 2.297 . S
O304 C291 1.236 . S
N305 Mn289 2.282 . S
N305 C306 1.328 . S
N305 C310 1.318 . S
C306 N305 1.328 . S
C306 C307 1.457 . S
C306 H311 0.929 . S
C307 C306 1.457 . S
C307 C308 1.291 . S
C307 H320 0.931 . S
C308 C307 1.291 . S
C308 C309 1.373 . S
C308 H321 0.929 . S
C309 C308 1.373 . S
C309 C310 1.396 . S
C309 C316 1.403 . S
C310 C300 1.476 . S
C310 N305 1.318 . S
C310 C309 1.396 . S
H311 C306 0.929 . S
O312 Mn288 2.385 . S
O312 C290 1.234 . S
O313 Mn288 2.209 . S
O313 Mn289 2.215 . S
O313 C290 1.283 . S
O314 Mn288 2.094 . S
O314 C292 1.240 . S
O315 Mn289 2.117 . S
O315 C292 1.264 . S
C316 C309 1.403 . S
C316 C317 1.399 . S
C316 H322 0.929 . S
C317 C297 1.449 . S
C317 C316 1.399 . S
C317 H323 0.930 . S
H318 C298 0.931 . S
H319 C299 0.930 . S
H320 C307 0.931 . S
H321 C308 0.929 . S
H322 C316 0.929 . S
H323 C317 0.930 . S
Mn324 O329 2.095 . S
Mn324 O339 2.162 . S
Mn324 O340 2.297 . S
Mn324 O348 2.385 . S
Mn324 O349 2.209 . S
Mn324 O350 2.094 . S
Mn325 O330 2.121 . S
Mn325 N332 2.257 . S
Mn325 N341 2.282 . S
Mn325 O349 2.215 . S
Mn325 O351 2.117 . S
C326 O348 1.234 . S
C326 O349 1.283 . S
C327 O339 1.281 . S
C327 O340 1.236 . S
C328 O350 1.240 . S
C328 O351 1.264 . S
O329 Mn324 2.095 . S
O329 C338 1.250 . S
O330 Mn325 2.121 . S
O330 C338 1.258 . S
C331 N332 1.326 . S
C331 C335 1.460 . S
C331 H337 0.929 . S
N332 Mn325 2.257 . S
N332 C331 1.326 . S
N332 C336 1.362 . S
C333 C334 1.258 . S
C333 C336 1.431 . S
C333 C353 1.449 . S
C334 C333 1.258 . S
C334 C335 1.477 . S
C334 H354 0.931 . S
C335 C331 1.460 . S
C335 C334 1.477 . S
C335 H355 0.930 . S
C336 N332 1.362 . S
C336 C333 1.431 . S
C336 C346 1.476 . S
H337 C331 0.929 . S
C338 O329 1.250 . S
C338 O330 1.258 . S
O339 Mn324 2.162 . S
O339 C327 1.281 . S
O340 Mn324 2.297 . S
O340 C327 1.236 . S
N341 Mn325 2.282 . S
N341 C342 1.328 . S
N341 C346 1.318 . S
C342 N341 1.328 . S
C342 C343 1.457 . S
C342 H347 0.929 . S
C343 C342 1.457 . S
C343 C344 1.291 . S
C343 H356 0.931 . S
C344 C343 1.291 . S
C344 C345 1.373 . S
C344 H357 0.929 . S
C345 C344 1.373 . S
C345 C346 1.396 . S
C345 C352 1.403 . S
C346 C336 1.476 . S
C346 N341 1.318 . S
C346 C345 1.396 . S
H347 C342 0.929 . S
O348 Mn324 2.385 . S
O348 C326 1.234 . S
O349 Mn324 2.209 . S
O349 Mn325 2.215 . S
O349 C326 1.283 . S
O350 Mn324 2.094 . S
O350 C328 1.240 . S
O351 Mn325 2.117 . S
O351 C328 1.264 . S
C352 C345 1.403 . S
C352 C353 1.399 . S
C352 H358 0.929 . S
C353 C333 1.449 . S
C353 C352 1.399 . S
C353 H359 0.930 . S
H354 C334 0.931 . S
H355 C335 0.930 . S
H356 C343 0.931 . S
H357 C344 0.929 . S
H358 C352 0.929 . S
H359 C353 0.930 . S
Mn360 O365 2.095 . S
Mn360 O375 2.162 . S
Mn360 O376 2.297 . S
Mn360 O384 2.385 . S
Mn360 O385 2.209 . S
Mn360 O386 2.094 . S
Mn361 O366 2.121 . S
Mn361 N368 2.257 . S
Mn361 N377 2.282 . S
Mn361 O385 2.215 . S
Mn361 O387 2.117 . S
C362 O384 1.234 . S
C362 O385 1.283 . S
C363 O375 1.281 . S
C363 O376 1.236 . S
C364 O386 1.240 . S
C364 O387 1.264 . S
O365 Mn360 2.095 . S
O365 C374 1.250 . S
O366 Mn361 2.121 . S
O366 C374 1.258 . S
C367 N368 1.326 . S
C367 C371 1.460 . S
C367 H373 0.929 . S
N368 Mn361 2.257 . S
N368 C367 1.326 . S
N368 C372 1.362 . S
C369 C370 1.258 . S
C369 C372 1.431 . S
C369 C389 1.449 . S
C370 C369 1.258 . S
C370 C371 1.477 . S
C370 H390 0.931 . S
C371 C367 1.460 . S
C371 C370 1.477 . S
C371 H391 0.930 . S
C372 N368 1.362 . S
C372 C369 1.431 . S
C372 C382 1.476 . S
H373 C367 0.929 . S
C374 O365 1.250 . S
C374 O366 1.258 . S
O375 Mn360 2.162 . S
O375 C363 1.281 . S
O376 Mn360 2.297 . S
O376 C363 1.236 . S
N377 Mn361 2.282 . S
N377 C378 1.328 . S
N377 C382 1.318 . S
C378 N377 1.328 . S
C378 C379 1.457 . S
C378 H383 0.929 . S
C379 C378 1.457 . S
C379 C380 1.291 . S
C379 H392 0.931 . S
C380 C379 1.291 . S
C380 C381 1.373 . S
C380 H393 0.929 . S
C381 C380 1.373 . S
C381 C382 1.396 . S
C381 C388 1.403 . S
C382 C372 1.476 . S
C382 N377 1.318 . S
C382 C381 1.396 . S
H383 C378 0.929 . S
O384 Mn360 2.385 . S
O384 C362 1.234 . S
O385 Mn360 2.209 . S
O385 Mn361 2.215 . S
O385 C362 1.283 . S
O386 Mn360 2.094 . S
O386 C364 1.240 . S
O387 Mn361 2.117 . S
O387 C364 1.264 . S
C388 C381 1.403 . S
C388 C389 1.399 . S
C388 H394 0.929 . S
C389 C369 1.449 . S
C389 C388 1.399 . S
C389 H395 0.930 . S
H390 C370 0.931 . S
H391 C371 0.930 . S
H392 C379 0.931 . S
H393 C380 0.929 . S
H394 C388 0.929 . S
H395 C389 0.930 . S
Mn396 O401 2.095 . S
Mn396 O411 2.162 . S
Mn396 O412 2.297 . S
Mn396 O420 2.385 . S
Mn396 O421 2.209 . S
Mn396 O422 2.094 . S
Mn397 O402 2.121 1_556 S
Mn397 N404 2.257 . S
Mn397 N413 2.282 . S
Mn397 O421 2.215 1_556 S
Mn397 O423 2.117 1_556 S
C398 O420 1.234 . S
C398 O421 1.283 . S
C399 O411 1.281 . S
C399 O412 1.236 . S
C400 O422 1.240 . S
C400 O423 1.264 . S
O401 Mn396 2.095 . S
O401 C410 1.250 . S
O402 Mn397 2.121 1_554 S
O402 C410 1.258 . S
C403 N404 1.326 . S
C403 C407 1.460 . S
C403 H409 0.929 . S
N404 Mn397 2.257 . S
N404 C403 1.326 . S
N404 C408 1.362 . S
C405 C406 1.258 . S
C405 C408 1.431 . S
C405 C425 1.449 . S
C406 C405 1.258 . S
C406 C407 1.477 . S
C406 H426 0.931 . S
C407 C403 1.460 . S
C407 C406 1.477 . S
C407 H427 0.930 . S
C408 N404 1.362 . S
C408 C405 1.431 . S
C408 C418 1.476 . S
H409 C403 0.929 . S
C410 O401 1.250 . S
C410 O402 1.258 . S
O411 Mn396 2.162 . S
O411 C399 1.281 . S
O412 Mn396 2.297 . S
O412 C399 1.236 . S
N413 Mn397 2.282 . S
N413 C414 1.328 . S
N413 C418 1.318 . S
C414 N413 1.328 . S
C414 C415 1.457 . S
C414 H419 0.929 . S
C415 C414 1.457 . S
C415 C416 1.291 . S
C415 H428 0.931 . S
C416 C415 1.291 . S
C416 C417 1.373 . S
C416 H429 0.929 . S
C417 C416 1.373 . S
C417 C418 1.396 . S
C417 C424 1.403 . S
C418 C408 1.476 . S
C418 N413 1.318 . S
C418 C417 1.396 . S
H419 C414 0.929 . S
O420 Mn396 2.385 . S
O420 C398 1.234 . S
O421 Mn396 2.209 . S
O421 Mn397 2.215 1_554 S
O421 C398 1.283 . S
O422 Mn396 2.094 . S
O422 C400 1.240 . S
O423 Mn397 2.117 1_554 S
O423 C400 1.264 . S
C424 C417 1.403 . S
C424 C425 1.399 . S
C424 H430 0.929 . S
C425 C405 1.449 . S
C425 C424 1.399 . S
C425 H431 0.930 . S
H426 C406 0.931 . S
H427 C407 0.930 . S
H428 C415 0.931 . S
H429 C416 0.929 . S
H430 C424 0.929 . S
H431 C425 0.930 . S
Mn432 O437 2.095 . S
Mn432 O447 2.162 . S
Mn432 O448 2.297 . S
Mn432 O456 2.385 . S
Mn432 O457 2.209 . S
Mn432 O458 2.094 . S
Mn433 O438 2.121 . S
Mn433 N440 2.257 . S
Mn433 N449 2.282 . S
Mn433 O457 2.215 . S
Mn433 O459 2.117 . S
C434 O456 1.234 . S
C434 O457 1.283 . S
C435 O447 1.281 . S
C435 O448 1.236 . S
C436 O458 1.240 . S
C436 O459 1.264 . S
O437 Mn432 2.095 . S
O437 C446 1.250 . S
O438 Mn433 2.121 . S
O438 C446 1.258 . S
C439 N440 1.326 . S
C439 C443 1.460 . S
C439 H445 0.929 . S
N440 Mn433 2.257 . S
N440 C439 1.326 . S
N440 C444 1.362 . S
C441 C442 1.258 . S
C441 C444 1.431 . S
C441 C461 1.449 . S
C442 C441 1.258 . S
C442 C443 1.477 . S
C442 H462 0.931 . S
C443 C439 1.460 . S
C443 C442 1.477 . S
C443 H463 0.930 . S
C444 N440 1.362 . S
C444 C441 1.431 . S
C444 C454 1.476 . S
H445 C439 0.929 . S
C446 O437 1.250 . S
C446 O438 1.258 . S
O447 Mn432 2.162 . S
O447 C435 1.281 . S
O448 Mn432 2.297 . S
O448 C435 1.236 . S
N449 Mn433 2.282 . S
N449 C450 1.328 . S
N449 C454 1.318 . S
C450 N449 1.328 . S
C450 C451 1.457 . S
C450 H455 0.929 . S
C451 C450 1.457 . S
C451 C452 1.291 . S
C451 H464 0.931 . S
C452 C451 1.291 . S
C452 C453 1.373 . S
C452 H465 0.929 . S
C453 C452 1.373 . S
C453 C454 1.396 . S
C453 C460 1.403 . S
C454 C444 1.476 . S
C454 N449 1.318 . S
C454 C453 1.396 . S
H455 C450 0.929 . S
O456 Mn432 2.385 . S
O456 C434 1.234 . S
O457 Mn432 2.209 . S
O457 Mn433 2.215 . S
O457 C434 1.283 . S
O458 Mn432 2.094 . S
O458 C436 1.240 . S
O459 Mn433 2.117 . S
O459 C436 1.264 . S
C460 C453 1.403 . S
C460 C461 1.399 . S
C460 H466 0.929 . S
C461 C441 1.449 . S
C461 C460 1.399 . S
C461 H467 0.930 . S
H462 C442 0.931 . S
H463 C443 0.930 . S
H464 C451 0.931 . S
H465 C452 0.929 . S
H466 C460 0.929 . S
H467 C461 0.930 . S
Mn468 O473 2.095 . S
Mn468 O483 2.162 . S
Mn468 O484 2.297 . S
Mn468 O492 2.385 . S
Mn468 O493 2.209 . S
Mn468 O494 2.094 . S
Mn469 O474 2.121 1_554 S
Mn469 N476 2.257 . S
Mn469 N485 2.282 . S
Mn469 O493 2.215 1_554 S
Mn469 O495 2.117 1_554 S
C470 O492 1.234 . S
C470 O493 1.283 . S
C471 O483 1.281 . S
C471 O484 1.236 . S
C472 O494 1.240 . S
C472 O495 1.264 . S
O473 Mn468 2.095 . S
O473 C482 1.250 . S
O474 Mn469 2.121 1_556 S
O474 C482 1.258 . S
C475 N476 1.326 . S
C475 C479 1.460 . S
C475 H481 0.929 . S
N476 Mn469 2.257 . S
N476 C475 1.326 . S
N476 C480 1.362 . S
C477 C478 1.258 . S
C477 C480 1.431 . S
C477 C497 1.449 . S
C478 C477 1.258 . S
C478 C479 1.477 . S
C478 H498 0.931 . S
C479 C475 1.460 . S
C479 C478 1.477 . S
C479 H499 0.930 . S
C480 N476 1.362 . S
C480 C477 1.431 . S
C480 C490 1.476 . S
H481 C475 0.929 . S
C482 O473 1.250 . S
C482 O474 1.258 . S
O483 Mn468 2.162 . S
O483 C471 1.281 . S
O484 Mn468 2.297 . S
O484 C471 1.236 . S
N485 Mn469 2.282 . S
N485 C486 1.328 . S
N485 C490 1.318 . S
C486 N485 1.328 . S
C486 C487 1.457 . S
C486 H491 0.929 . S
C487 C486 1.457 . S
C487 C488 1.291 . S
C487 H500 0.931 . S
C488 C487 1.291 . S
C488 C489 1.373 . S
C488 H501 0.929 . S
C489 C488 1.373 . S
C489 C490 1.396 . S
C489 C496 1.403 . S
C490 C480 1.476 . S
C490 N485 1.318 . S
C490 C489 1.396 . S
H491 C486 0.929 . S
O492 Mn468 2.385 . S
O492 C470 1.234 . S
O493 Mn468 2.209 . S
O493 Mn469 2.215 1_556 S
O493 C470 1.283 . S
O494 Mn468 2.094 . S
O494 C472 1.240 . S
O495 Mn469 2.117 1_556 S
O495 C472 1.264 . S
C496 C489 1.403 . S
C496 C497 1.399 . S
C496 H502 0.929 . S
C497 C477 1.449 . S
C497 C496 1.399 . S
C497 H503 0.930 . S
H498 C478 0.931 . S
H499 C479 0.930 . S
H500 C487 0.931 . S
H501 C488 0.929 . S
H502 C496 0.929 . S
H503 C497 0.930 . S
Mn504 O509 2.095 . S
Mn504 O519 2.162 . S
Mn504 O520 2.297 . S
Mn504 O528 2.385 . S
Mn504 O529 2.209 . S
Mn504 O530 2.094 . S
Mn505 O510 2.121 . S
Mn505 N512 2.257 . S
Mn505 N521 2.282 . S
Mn505 O529 2.215 . S
Mn505 O531 2.117 . S
C506 O528 1.234 . S
C506 O529 1.283 . S
C507 O519 1.281 . S
C507 O520 1.236 . S
C508 O530 1.240 . S
C508 O531 1.264 . S
O509 Mn504 2.095 . S
O509 C518 1.250 . S
O510 Mn505 2.121 . S
O510 C518 1.258 . S
C511 N512 1.326 . S
C511 C515 1.460 . S
C511 H517 0.929 . S
N512 Mn505 2.257 . S
N512 C511 1.326 . S
N512 C516 1.362 . S
C513 C514 1.258 . S
C513 C516 1.431 . S
C513 C533 1.449 . S
C514 C513 1.258 . S
C514 C515 1.477 . S
C514 H534 0.931 . S
C515 C511 1.460 . S
C515 C514 1.477 . S
C515 H535 0.930 . S
C516 N512 1.362 . S
C516 C513 1.431 . S
C516 C526 1.476 . S
H517 C511 0.929 . S
C518 O509 1.250 . S
C518 O510 1.258 . S
O519 Mn504 2.162 . S
O519 C507 1.281 . S
O520 Mn504 2.297 . S
O520 C507 1.236 . S
N521 Mn505 2.282 . S
N521 C522 1.328 . S
N521 C526 1.318 . S
C522 N521 1.328 . S
C522 C523 1.457 . S
C522 H527 0.929 . S
C523 C522 1.457 . S
C523 C524 1.291 . S
C523 H536 0.931 . S
C524 C523 1.291 . S
C524 C525 1.373 . S
C524 H537 0.929 . S
C525 C524 1.373 . S
C525 C526 1.396 . S
C525 C532 1.403 . S
C526 C516 1.476 . S
C526 N521 1.318 . S
C526 C525 1.396 . S
H527 C522 0.929 . S
O528 Mn504 2.385 . S
O528 C506 1.234 . S
O529 Mn504 2.209 . S
O529 Mn505 2.215 . S
O529 C506 1.283 . S
O530 Mn504 2.094 . S
O530 C508 1.240 . S
O531 Mn505 2.117 . S
O531 C508 1.264 . S
C532 C525 1.403 . S
C532 C533 1.399 . S
C532 H538 0.929 . S
C533 C513 1.449 . S
C533 C532 1.399 . S
C533 H539 0.930 . S
H534 C514 0.931 . S
H535 C515 0.930 . S
H536 C523 0.931 . S
H537 C524 0.929 . S
H538 C532 0.929 . S
H539 C533 0.930 . S
Mn540 O545 2.095 . S
Mn540 O555 2.162 . S
Mn540 O556 2.297 . S
Mn540 O564 2.385 . S
Mn540 O565 2.209 . S
Mn540 O566 2.094 . S
Mn541 O546 2.121 . S
Mn541 N548 2.257 . S
Mn541 N557 2.282 . S
Mn541 O565 2.215 . S
Mn541 O567 2.117 . S
C542 O564 1.234 . S
C542 O565 1.283 . S
C543 O555 1.281 . S
C543 O556 1.236 . S
C544 O566 1.240 . S
C544 O567 1.264 . S
O545 Mn540 2.095 . S
O545 C554 1.250 . S
O546 Mn541 2.121 . S
O546 C554 1.258 . S
C547 N548 1.326 . S
C547 C551 1.460 . S
C547 H553 0.929 . S
N548 Mn541 2.257 . S
N548 C547 1.326 . S
N548 C552 1.362 . S
C549 C550 1.258 . S
C549 C552 1.431 . S
C549 C569 1.449 . S
C550 C549 1.258 . S
C550 C551 1.477 . S
C550 H570 0.931 . S
C551 C547 1.460 . S
C551 C550 1.477 . S
C551 H571 0.930 . S
C552 N548 1.362 . S
C552 C549 1.431 . S
C552 C562 1.476 . S
H553 C547 0.929 . S
C554 O545 1.250 . S
C554 O546 1.258 . S
O555 Mn540 2.162 . S
O555 C543 1.281 . S
O556 Mn540 2.297 . S
O556 C543 1.236 . S
N557 Mn541 2.282 . S
N557 C558 1.328 . S
N557 C562 1.318 . S
C558 N557 1.328 . S
C558 C559 1.457 . S
C558 H563 0.929 . S
C559 C558 1.457 . S
C559 C560 1.291 . S
C559 H572 0.931 . S
C560 C559 1.291 . S
C560 C561 1.373 . S
C560 H573 0.929 . S
C561 C560 1.373 . S
C561 C562 1.396 . S
C561 C568 1.403 . S
C562 C552 1.476 . S
C562 N557 1.318 . S
C562 C561 1.396 . S
H563 C558 0.929 . S
O564 Mn540 2.385 . S
O564 C542 1.234 . S
O565 Mn540 2.209 . S
O565 Mn541 2.215 . S
O565 C542 1.283 . S
O566 Mn540 2.094 . S
O566 C544 1.240 . S
O567 Mn541 2.117 . S
O567 C544 1.264 . S
C568 C561 1.403 . S
C568 C569 1.399 . S
C568 H574 0.929 . S
C569 C549 1.449 . S
C569 C568 1.399 . S
C569 H575 0.930 . S
H570 C550 0.931 . S
H571 C551 0.930 . S
H572 C559 0.931 . S
H573 C560 0.929 . S
H574 C568 0.929 . S
H575 C569 0.930 . S
Mn576 O581 2.095 . S
Mn576 O591 2.162 . S
Mn576 O592 2.297 . S
Mn576 O600 2.385 . S
Mn576 O601 2.209 . S
Mn576 O602 2.094 . S
Mn577 O582 2.121 . S
Mn577 N584 2.257 . S
Mn577 N593 2.282 . S
Mn577 O601 2.215 . S
Mn577 O603 2.117 . S
C578 O600 1.234 . S
C578 O601 1.283 . S
C579 O591 1.281 . S
C579 O592 1.236 . S
C580 O602 1.240 . S
C580 O603 1.264 . S
O581 Mn576 2.095 . S
O581 C590 1.250 . S
O582 Mn577 2.121 . S
O582 C590 1.258 . S
C583 N584 1.326 . S
C583 C587 1.460 . S
C583 H589 0.929 . S
N584 Mn577 2.257 . S
N584 C583 1.326 . S
N584 C588 1.362 . S
C585 C586 1.258 . S
C585 C588 1.431 . S
C585 C605 1.449 . S
C586 C585 1.258 . S
C586 C587 1.477 . S
C586 H606 0.931 . S
C587 C583 1.460 . S
C587 C586 1.477 . S
C587 H607 0.930 . S
C588 N584 1.362 . S
C588 C585 1.431 . S
C588 C598 1.476 . S
H589 C583 0.929 . S
C590 O581 1.250 . S
C590 O582 1.258 . S
O591 Mn576 2.162 . S
O591 C579 1.281 . S
O592 Mn576 2.297 . S
O592 C579 1.236 . S
N593 Mn577 2.282 . S
N593 C594 1.328 . S
N593 C598 1.318 . S
C594 N593 1.328 . S
C594 C595 1.457 . S
C594 H599 0.929 . S
C595 C594 1.457 . S
C595 C596 1.291 . S
C595 H608 0.931 . S
C596 C595 1.291 . S
C596 C597 1.373 . S
C596 H609 0.929 . S
C597 C596 1.373 . S
C597 C598 1.396 . S
C597 C604 1.403 . S
C598 C588 1.476 . S
C598 N593 1.318 . S
C598 C597 1.396 . S
H599 C594 0.929 . S
O600 Mn576 2.385 . S
O600 C578 1.234 . S
O601 Mn576 2.209 . S
O601 Mn577 2.215 . S
O601 C578 1.283 . S
O602 Mn576 2.094 . S
O602 C580 1.240 . S
O603 Mn577 2.117 . S
O603 C580 1.264 . S
C604 C597 1.403 . S
C604 C605 1.399 . S
C604 H610 0.929 . S
C605 C585 1.449 . S
C605 C604 1.399 . S
C605 H611 0.930 . S
H606 C586 0.931 . S
H607 C587 0.930 . S
H608 C595 0.931 . S
H609 C596 0.929 . S
H610 C604 0.929 . S
H611 C605 0.930 . S
Mn612 O617 2.095 . S
Mn612 O627 2.162 . S
Mn612 O628 2.297 . S
Mn612 O636 2.385 . S
Mn612 O637 2.209 . S
Mn612 O638 2.094 . S
Mn613 O618 2.121 1_554 S
Mn613 N620 2.257 . S
Mn613 N629 2.282 . S
Mn613 O637 2.215 1_554 S
Mn613 O639 2.117 1_554 S
C614 O636 1.234 . S
C614 O637 1.283 . S
C615 O627 1.281 . S
C615 O628 1.236 . S
C616 O638 1.240 . S
C616 O639 1.264 . S
O617 Mn612 2.095 . S
O617 C626 1.250 . S
O618 Mn613 2.121 1_556 S
O618 C626 1.258 . S
C619 N620 1.326 . S
C619 C623 1.460 . S
C619 H625 0.929 . S
N620 Mn613 2.257 . S
N620 C619 1.326 . S
N620 C624 1.362 . S
C621 C622 1.258 . S
C621 C624 1.431 . S
C621 C641 1.449 . S
C622 C621 1.258 . S
C622 C623 1.477 . S
C622 H642 0.931 . S
C623 C619 1.460 . S
C623 C622 1.477 . S
C623 H643 0.930 . S
C624 N620 1.362 . S
C624 C621 1.431 . S
C624 C634 1.476 . S
H625 C619 0.929 . S
C626 O617 1.250 . S
C626 O618 1.258 . S
O627 Mn612 2.162 . S
O627 C615 1.281 . S
O628 Mn612 2.297 . S
O628 C615 1.236 . S
N629 Mn613 2.282 . S
N629 C630 1.328 . S
N629 C634 1.318 . S
C630 N629 1.328 . S
C630 C631 1.457 . S
C630 H635 0.929 . S
C631 C630 1.457 . S
C631 C632 1.291 . S
C631 H644 0.931 . S
C632 C631 1.291 . S
C632 C633 1.373 . S
C632 H645 0.929 . S
C633 C632 1.373 . S
C633 C634 1.396 . S
C633 C640 1.403 . S
C634 C624 1.476 . S
C634 N629 1.318 . S
C634 C633 1.396 . S
H635 C630 0.929 . S
O636 Mn612 2.385 . S
O636 C614 1.234 . S
O637 Mn612 2.209 . S
O637 Mn613 2.215 1_556 S
O637 C614 1.283 . S
O638 Mn612 2.094 . S
O638 C616 1.240 . S
O639 Mn613 2.117 1_556 S
O639 C616 1.264 . S
C640 C633 1.403 . S
C640 C641 1.399 . S
C640 H646 0.929 . S
C641 C621 1.449 . S
C641 C640 1.399 . S
C641 H647 0.930 . S
H642 C622 0.931 . S
H643 C623 0.930 . S
H644 C631 0.931 . S
H645 C632 0.929 . S
H646 C640 0.929 . S
H647 C641 0.930 . S
Mn648 O653 2.095 . S
Mn648 O663 2.162 . S
Mn648 O664 2.297 . S
Mn648 O672 2.385 . S
Mn648 O673 2.209 . S
Mn648 O674 2.094 . S
Mn649 O654 2.121 . S
Mn649 N656 2.257 . S
Mn649 N665 2.282 . S
Mn649 O673 2.215 . S
Mn649 O675 2.117 . S
C650 O672 1.234 . S
C650 O673 1.283 . S
C651 O663 1.281 . S
C651 O664 1.236 . S
C652 O674 1.240 . S
C652 O675 1.264 . S
O653 Mn648 2.095 . S
O653 C662 1.250 . S
O654 Mn649 2.121 . S
O654 C662 1.258 . S
C655 N656 1.326 . S
C655 C659 1.460 . S
C655 H661 0.929 . S
N656 Mn649 2.257 . S
N656 C655 1.326 . S
N656 C660 1.362 . S
C657 C658 1.258 . S
C657 C660 1.431 . S
C657 C677 1.449 . S
C658 C657 1.258 . S
C658 C659 1.477 . S
C658 H678 0.931 . S
C659 C655 1.460 . S
C659 C658 1.477 . S
C659 H679 0.930 . S
C660 N656 1.362 . S
C660 C657 1.431 . S
C660 C670 1.476 . S
H661 C655 0.929 . S
C662 O653 1.250 . S
C662 O654 1.258 . S
O663 Mn648 2.162 . S
O663 C651 1.281 . S
O664 Mn648 2.297 . S
O664 C651 1.236 . S
N665 Mn649 2.282 . S
N665 C666 1.328 . S
N665 C670 1.318 . S
C666 N665 1.328 . S
C666 C667 1.457 . S
C666 H671 0.929 . S
C667 C666 1.457 . S
C667 C668 1.291 . S
C667 H680 0.931 . S
C668 C667 1.291 . S
C668 C669 1.373 . S
C668 H681 0.929 . S
C669 C668 1.373 . S
C669 C670 1.396 . S
C669 C676 1.403 . S
C670 C660 1.476 . S
C670 N665 1.318 . S
C670 C669 1.396 . S
H671 C666 0.929 . S
O672 Mn648 2.385 . S
O672 C650 1.234 . S
O673 Mn648 2.209 . S
O673 Mn649 2.215 . S
O673 C650 1.283 . S
O674 Mn648 2.094 . S
O674 C652 1.240 . S
O675 Mn649 2.117 . S
O675 C652 1.264 . S
C676 C669 1.403 . S
C676 C677 1.399 . S
C676 H682 0.929 . S
C677 C657 1.449 . S
C677 C676 1.399 . S
C677 H683 0.930 . S
H678 C658 0.931 . S
H679 C659 0.930 . S
H680 C667 0.931 . S
H681 C668 0.929 . S
H682 C676 0.929 . S
H683 C677 0.930 . S
Mn684 O689 2.095 . S
Mn684 O699 2.162 . S
Mn684 O700 2.297 . S
Mn684 O708 2.385 . S
Mn684 O709 2.209 . S
Mn684 O710 2.094 . S
Mn685 O690 2.121 . S
Mn685 N692 2.257 . S
Mn685 N701 2.282 . S
Mn685 O709 2.215 . S
Mn685 O711 2.117 . S
C686 O708 1.234 . S
C686 O709 1.283 . S
C687 O699 1.281 . S
C687 O700 1.236 . S
C688 O710 1.240 . S
C688 O711 1.264 . S
O689 Mn684 2.095 . S
O689 C698 1.250 . S
O690 Mn685 2.121 . S
O690 C698 1.258 . S
C691 N692 1.326 . S
C691 C695 1.460 . S
C691 H697 0.929 . S
N692 Mn685 2.257 . S
N692 C691 1.326 . S
N692 C696 1.362 . S
C693 C694 1.258 . S
C693 C696 1.431 . S
C693 C713 1.449 . S
C694 C693 1.258 . S
C694 C695 1.477 . S
C694 H714 0.931 . S
C695 C691 1.460 . S
C695 C694 1.477 . S
C695 H715 0.930 . S
C696 N692 1.362 . S
C696 C693 1.431 . S
C696 C706 1.476 . S
H697 C691 0.929 . S
C698 O689 1.250 . S
C698 O690 1.258 . S
O699 Mn684 2.162 . S
O699 C687 1.281 . S
O700 Mn684 2.297 . S
O700 C687 1.236 . S
N701 Mn685 2.282 . S
N701 C702 1.328 . S
N701 C706 1.318 . S
C702 N701 1.328 . S
C702 C703 1.457 . S
C702 H707 0.929 . S
C703 C702 1.457 . S
C703 C704 1.291 . S
C703 H716 0.931 . S
C704 C703 1.291 . S
C704 C705 1.373 . S
C704 H717 0.929 . S
C705 C704 1.373 . S
C705 C706 1.396 . S
C705 C712 1.403 . S
C706 C696 1.476 . S
C706 N701 1.318 . S
C706 C705 1.396 . S
H707 C702 0.929 . S
O708 Mn684 2.385 . S
O708 C686 1.234 . S
O709 Mn684 2.209 . S
O709 Mn685 2.215 . S
O709 C686 1.283 . S
O710 Mn684 2.094 . S
O710 C688 1.240 . S
O711 Mn685 2.117 . S
O711 C688 1.264 . S
C712 C705 1.403 . S
C712 C713 1.399 . S
C712 H718 0.929 . S
C713 C693 1.449 . S
C713 C712 1.399 . S
C713 H719 0.930 . S
H714 C694 0.931 . S
H715 C695 0.930 . S
H716 C703 0.931 . S
H717 C704 0.929 . S
H718 C712 0.929 . S
H719 C713 0.930 . S
Mn720 O725 2.095 . S
Mn720 O735 2.162 . S
Mn720 O736 2.297 . S
Mn720 O744 2.385 . S
Mn720 O745 2.209 . S
Mn720 O746 2.094 . S
Mn721 O726 2.121 . S
Mn721 N728 2.257 . S
Mn721 N737 2.282 . S
Mn721 O745 2.215 . S
Mn721 O747 2.117 . S
C722 O744 1.234 . S
C722 O745 1.283 . S
C723 O735 1.281 . S
C723 O736 1.236 . S
C724 O746 1.240 . S
C724 O747 1.264 . S
O725 Mn720 2.095 . S
O725 C734 1.250 . S
O726 Mn721 2.121 . S
O726 C734 1.258 . S
C727 N728 1.326 . S
C727 C731 1.460 . S
C727 H733 0.929 . S
N728 Mn721 2.257 . S
N728 C727 1.326 . S
N728 C732 1.362 . S
C729 C730 1.258 . S
C729 C732 1.431 . S
C729 C749 1.449 . S
C730 C729 1.258 . S
C730 C731 1.477 . S
C730 H750 0.931 . S
C731 C727 1.460 . S
C731 C730 1.477 . S
C731 H751 0.930 . S
C732 N728 1.362 . S
C732 C729 1.431 . S
C732 C742 1.476 . S
H733 C727 0.929 . S
C734 O725 1.250 . S
C734 O726 1.258 . S
O735 Mn720 2.162 . S
O735 C723 1.281 . S
O736 Mn720 2.297 . S
O736 C723 1.236 . S
N737 Mn721 2.282 . S
N737 C738 1.328 . S
N737 C742 1.318 . S
C738 N737 1.328 . S
C738 C739 1.457 . S
C738 H743 0.929 . S
C739 C738 1.457 . S
C739 C740 1.291 . S
C739 H752 0.931 . S
C740 C739 1.291 . S
C740 C741 1.373 . S
C740 H753 0.929 . S
C741 C740 1.373 . S
C741 C742 1.396 . S
C741 C748 1.403 . S
C742 C732 1.476 . S
C742 N737 1.318 . S
C742 C741 1.396 . S
H743 C738 0.929 . S
O744 Mn720 2.385 . S
O744 C722 1.234 . S
O745 Mn720 2.209 . S
O745 Mn721 2.215 . S
O745 C722 1.283 . S
O746 Mn720 2.094 . S
O746 C724 1.240 . S
O747 Mn721 2.117 . S
O747 C724 1.264 . S
C748 C741 1.403 . S
C748 C749 1.399 . S
C748 H754 0.929 . S
C749 C729 1.449 . S
C749 C748 1.399 . S
C749 H755 0.930 . S
H750 C730 0.931 . S
H751 C731 0.930 . S
H752 C739 0.931 . S
H753 C740 0.929 . S
H754 C748 0.929 . S
H755 C749 0.930 . S
Mn756 O761 2.095 . S
Mn756 O771 2.162 . S
Mn756 O772 2.297 . S
Mn756 O780 2.385 . S
Mn756 O781 2.209 . S
Mn756 O782 2.094 . S
Mn757 O762 2.121 . S
Mn757 N764 2.257 . S
Mn757 N773 2.282 . S
Mn757 O781 2.215 . S
Mn757 O783 2.117 . S
C758 O780 1.234 . S
C758 O781 1.283 . S
C759 O771 1.281 . S
C759 O772 1.236 . S
C760 O782 1.240 . S
C760 O783 1.264 . S
O761 Mn756 2.095 . S
O761 C770 1.250 . S
O762 Mn757 2.121 . S
O762 C770 1.258 . S
C763 N764 1.326 . S
C763 C767 1.460 . S
C763 H769 0.929 . S
N764 Mn757 2.257 . S
N764 C763 1.326 . S
N764 C768 1.362 . S
C765 C766 1.258 . S
C765 C768 1.431 . S
C765 C785 1.449 . S
C766 C765 1.258 . S
C766 C767 1.477 . S
C766 H786 0.931 . S
C767 C763 1.460 . S
C767 C766 1.477 . S
C767 H787 0.930 . S
C768 N764 1.362 . S
C768 C765 1.431 . S
C768 C778 1.476 . S
H769 C763 0.929 . S
C770 O761 1.250 . S
C770 O762 1.258 . S
O771 Mn756 2.162 . S
O771 C759 1.281 . S
O772 Mn756 2.297 . S
O772 C759 1.236 . S
N773 Mn757 2.282 . S
N773 C774 1.328 . S
N773 C778 1.318 . S
C774 N773 1.328 . S
C774 C775 1.457 . S
C774 H779 0.929 . S
C775 C774 1.457 . S
C775 C776 1.291 . S
C775 H788 0.931 . S
C776 C775 1.291 . S
C776 C777 1.373 . S
C776 H789 0.929 . S
C777 C776 1.373 . S
C777 C778 1.396 . S
C777 C784 1.403 . S
C778 C768 1.476 . S
C778 N773 1.318 . S
C778 C777 1.396 . S
H779 C774 0.929 . S
O780 Mn756 2.385 . S
O780 C758 1.234 . S
O781 Mn756 2.209 . S
O781 Mn757 2.215 . S
O781 C758 1.283 . S
O782 Mn756 2.094 . S
O782 C760 1.240 . S
O783 Mn757 2.117 . S
O783 C760 1.264 . S
C784 C777 1.403 . S
C784 C785 1.399 . S
C784 H790 0.929 . S
C785 C765 1.449 . S
C785 C784 1.399 . S
C785 H791 0.930 . S
H786 C766 0.931 . S
H787 C767 0.930 . S
H788 C775 0.931 . S
H789 C776 0.929 . S
H790 C784 0.929 . S
H791 C785 0.930 . S
Mn792 O797 2.095 . S
Mn792 O807 2.162 . S
Mn792 O808 2.297 . S
Mn792 O816 2.385 . S
Mn792 O817 2.209 . S
Mn792 O818 2.094 . S
Mn793 O798 2.121 . S
Mn793 N800 2.257 . S
Mn793 N809 2.282 . S
Mn793 O817 2.215 . S
Mn793 O819 2.117 . S
C794 O816 1.234 . S
C794 O817 1.283 . S
C795 O807 1.281 . S
C795 O808 1.236 . S
C796 O818 1.240 . S
C796 O819 1.264 . S
O797 Mn792 2.095 . S
O797 C806 1.250 . S
O798 Mn793 2.121 . S
O798 C806 1.258 . S
C799 N800 1.326 . S
C799 C803 1.460 . S
C799 H805 0.929 . S
N800 Mn793 2.257 . S
N800 C799 1.326 . S
N800 C804 1.362 . S
C801 C802 1.258 . S
C801 C804 1.431 . S
C801 C821 1.449 . S
C802 C801 1.258 . S
C802 C803 1.477 . S
C802 H822 0.931 . S
C803 C799 1.460 . S
C803 C802 1.477 . S
C803 H823 0.930 . S
C804 N800 1.362 . S
C804 C801 1.431 . S
C804 C814 1.476 . S
H805 C799 0.929 . S
C806 O797 1.250 . S
C806 O798 1.258 . S
O807 Mn792 2.162 . S
O807 C795 1.281 . S
O808 Mn792 2.297 . S
O808 C795 1.236 . S
N809 Mn793 2.282 . S
N809 C810 1.328 . S
N809 C814 1.318 . S
C810 N809 1.328 . S
C810 C811 1.457 . S
C810 H815 0.929 . S
C811 C810 1.457 . S
C811 C812 1.291 . S
C811 H824 0.931 . S
C812 C811 1.291 . S
C812 C813 1.373 . S
C812 H825 0.929 . S
C813 C812 1.373 . S
C813 C814 1.396 . S
C813 C820 1.403 . S
C814 C804 1.476 . S
C814 N809 1.318 . S
C814 C813 1.396 . S
H815 C810 0.929 . S
O816 Mn792 2.385 . S
O816 C794 1.234 . S
O817 Mn792 2.209 . S
O817 Mn793 2.215 . S
O817 C794 1.283 . S
O818 Mn792 2.094 . S
O818 C796 1.240 . S
O819 Mn793 2.117 . S
O819 C796 1.264 . S
C820 C813 1.403 . S
C820 C821 1.399 . S
C820 H826 0.929 . S
C821 C801 1.449 . S
C821 C820 1.399 . S
C821 H827 0.930 . S
H822 C802 0.931 . S
H823 C803 0.930 . S
H824 C811 0.931 . S
H825 C812 0.929 . S
H826 C820 0.929 . S
H827 C821 0.930 . S
Mn828 O833 2.095 . S
Mn828 O843 2.162 . S
Mn828 O844 2.297 . S
Mn828 O852 2.385 . S
Mn828 O853 2.209 . S
Mn828 O854 2.094 . S
Mn829 O834 2.121 1_556 S
Mn829 N836 2.257 . S
Mn829 N845 2.282 . S
Mn829 O853 2.215 1_556 S
Mn829 O855 2.117 1_556 S
C830 O852 1.234 . S
C830 O853 1.283 . S
C831 O843 1.281 . S
C831 O844 1.236 . S
C832 O854 1.240 . S
C832 O855 1.264 . S
O833 Mn828 2.095 . S
O833 C842 1.250 . S
O834 Mn829 2.121 1_554 S
O834 C842 1.258 . S
C835 N836 1.326 . S
C835 C839 1.460 . S
C835 H841 0.929 . S
N836 Mn829 2.257 . S
N836 C835 1.326 . S
N836 C840 1.362 . S
C837 C838 1.258 . S
C837 C840 1.431 . S
C837 C857 1.449 . S
C838 C837 1.258 . S
C838 C839 1.477 . S
C838 H858 0.931 . S
C839 C835 1.460 . S
C839 C838 1.477 . S
C839 H859 0.930 . S
C840 N836 1.362 . S
C840 C837 1.431 . S
C840 C850 1.476 . S
H841 C835 0.929 . S
C842 O833 1.250 . S
C842 O834 1.258 . S
O843 Mn828 2.162 . S
O843 C831 1.281 . S
O844 Mn828 2.297 . S
O844 C831 1.236 . S
N845 Mn829 2.282 . S
N845 C846 1.328 . S
N845 C850 1.318 . S
C846 N845 1.328 . S
C846 C847 1.457 . S
C846 H851 0.929 . S
C847 C846 1.457 . S
C847 C848 1.291 . S
C847 H860 0.931 . S
C848 C847 1.291 . S
C848 C849 1.373 . S
C848 H861 0.929 . S
C849 C848 1.373 . S
C849 C850 1.396 . S
C849 C856 1.403 . S
C850 C840 1.476 . S
C850 N845 1.318 . S
C850 C849 1.396 . S
H851 C846 0.929 . S
O852 Mn828 2.385 . S
O852 C830 1.234 . S
O853 Mn828 2.209 . S
O853 Mn829 2.215 1_554 S
O853 C830 1.283 . S
O854 Mn828 2.094 . S
O854 C832 1.240 . S
O855 Mn829 2.117 1_554 S
O855 C832 1.264 . S
C856 C849 1.403 . S
C856 C857 1.399 . S
C856 H862 0.929 . S
C857 C837 1.449 . S
C857 C856 1.399 . S
C857 H863 0.930 . S
H858 C838 0.931 . S
H859 C839 0.930 . S
H860 C847 0.931 . S
H861 C848 0.929 . S
H862 C856 0.929 . S
H863 C857 0.930 . S
Mn864 O869 2.095 . S
Mn864 O879 2.162 . S
Mn864 O880 2.297 . S
Mn864 O888 2.385 . S
Mn864 O889 2.209 . S
Mn864 O890 2.094 . S
Mn865 O870 2.121 . S
Mn865 N872 2.257 . S
Mn865 N881 2.282 . S
Mn865 O889 2.215 . S
Mn865 O891 2.117 . S
C866 O888 1.234 . S
C866 O889 1.283 . S
C867 O879 1.281 . S
C867 O880 1.236 . S
C868 O890 1.240 . S
C868 O891 1.264 . S
O869 Mn864 2.095 . S
O869 C878 1.250 . S
O870 Mn865 2.121 . S
O870 C878 1.258 . S
C871 N872 1.326 . S
C871 C875 1.460 . S
C871 H877 0.929 . S
N872 Mn865 2.257 . S
N872 C871 1.326 . S
N872 C876 1.362 . S
C873 C874 1.258 . S
C873 C876 1.431 . S
C873 C893 1.449 . S
C874 C873 1.258 . S
C874 C875 1.477 . S
C874 H894 0.931 . S
C875 C871 1.460 . S
C875 C874 1.477 . S
C875 H895 0.930 . S
C876 N872 1.362 . S
C876 C873 1.431 . S
C876 C886 1.476 . S
H877 C871 0.929 . S
C878 O869 1.250 . S
C878 O870 1.258 . S
O879 Mn864 2.162 . S
O879 C867 1.281 . S
O880 Mn864 2.297 . S
O880 C867 1.236 . S
N881 Mn865 2.282 . S
N881 C882 1.328 . S
N881 C886 1.318 . S
C882 N881 1.328 . S
C882 C883 1.457 . S
C882 H887 0.929 . S
C883 C882 1.457 . S
C883 C884 1.291 . S
C883 H896 0.931 . S
C884 C883 1.291 . S
C884 C885 1.373 . S
C884 H897 0.929 . S
C885 C884 1.373 . S
C885 C886 1.396 . S
C885 C892 1.403 . S
C886 C876 1.476 . S
C886 N881 1.318 . S
C886 C885 1.396 . S
H887 C882 0.929 . S
O888 Mn864 2.385 . S
O888 C866 1.234 . S
O889 Mn864 2.209 . S
O889 Mn865 2.215 . S
O889 C866 1.283 . S
O890 Mn864 2.094 . S
O890 C868 1.240 . S
O891 Mn865 2.117 . S
O891 C868 1.264 . S
C892 C885 1.403 . S
C892 C893 1.399 . S
C892 H898 0.929 . S
C893 C873 1.449 . S
C893 C892 1.399 . S
C893 H899 0.930 . S
H894 C874 0.931 . S
H895 C875 0.930 . S
H896 C883 0.931 . S
H897 C884 0.929 . S
H898 C892 0.929 . S
H899 C893 0.930 . S
Mn900 O905 2.095 . S
Mn900 O915 2.162 . S
Mn900 O916 2.297 . S
Mn900 O924 2.385 . S
Mn900 O925 2.209 . S
Mn900 O926 2.094 . S
Mn901 O906 2.121 1_556 S
Mn901 N908 2.257 . S
Mn901 N917 2.282 . S
Mn901 O925 2.215 1_556 S
Mn901 O927 2.117 1_556 S
C902 O924 1.234 . S
C902 O925 1.283 . S
C903 O915 1.281 . S
C903 O916 1.236 . S
C904 O926 1.240 . S
C904 O927 1.264 . S
O905 Mn900 2.095 . S
O905 C914 1.250 . S
O906 Mn901 2.121 1_554 S
O906 C914 1.258 . S
C907 N908 1.326 . S
C907 C911 1.460 . S
C907 H913 0.929 . S
N908 Mn901 2.257 . S
N908 C907 1.326 . S
N908 C912 1.362 . S
C909 C910 1.258 . S
C909 C912 1.431 . S
C909 C929 1.449 . S
C910 C909 1.258 . S
C910 C911 1.477 . S
C910 H930 0.931 . S
C911 C907 1.460 . S
C911 C910 1.477 . S
C911 H931 0.930 . S
C912 N908 1.362 . S
C912 C909 1.431 . S
C912 C922 1.476 . S
H913 C907 0.929 . S
C914 O905 1.250 . S
C914 O906 1.258 . S
O915 Mn900 2.162 . S
O915 C903 1.281 . S
O916 Mn900 2.297 . S
O916 C903 1.236 . S
N917 Mn901 2.282 . S
N917 C918 1.328 . S
N917 C922 1.318 . S
C918 N917 1.328 . S
C918 C919 1.457 . S
C918 H923 0.929 . S
C919 C918 1.457 . S
C919 C920 1.291 . S
C919 H932 0.931 . S
C920 C919 1.291 . S
C920 C921 1.373 . S
C920 H933 0.929 . S
C921 C920 1.373 . S
C921 C922 1.396 . S
C921 C928 1.403 . S
C922 C912 1.476 . S
C922 N917 1.318 . S
C922 C921 1.396 . S
H923 C918 0.929 . S
O924 Mn900 2.385 . S
O924 C902 1.234 . S
O925 Mn900 2.209 . S
O925 Mn901 2.215 1_554 S
O925 C902 1.283 . S
O926 Mn900 2.094 . S
O926 C904 1.240 . S
O927 Mn901 2.117 1_554 S
O927 C904 1.264 . S
C928 C921 1.403 . S
C928 C929 1.399 . S
C928 H934 0.929 . S
C929 C909 1.449 . S
C929 C928 1.399 . S
C929 H935 0.930 . S
H930 C910 0.931 . S
H931 C911 0.930 . S
H932 C919 0.931 . S
H933 C920 0.929 . S
H934 C928 0.929 . S
H935 C929 0.930 . S
Mn936 O941 2.095 . S
Mn936 O951 2.162 . S
Mn936 O952 2.297 . S
Mn936 O960 2.385 . S
Mn936 O961 2.209 . S
Mn936 O962 2.094 . S
Mn937 O942 2.121 . S
Mn937 N944 2.257 . S
Mn937 N953 2.282 . S
Mn937 O961 2.215 . S
Mn937 O963 2.117 . S
C938 O960 1.234 . S
C938 O961 1.283 . S
C939 O951 1.281 . S
C939 O952 1.236 . S
C940 O962 1.240 . S
C940 O963 1.264 . S
O941 Mn936 2.095 . S
O941 C950 1.250 . S
O942 Mn937 2.121 . S
O942 C950 1.258 . S
C943 N944 1.326 . S
C943 C947 1.460 . S
C943 H949 0.929 . S
N944 Mn937 2.257 . S
N944 C943 1.326 . S
N944 C948 1.362 . S
C945 C946 1.258 . S
C945 C948 1.431 . S
C945 C965 1.449 . S
C946 C945 1.258 . S
C946 C947 1.477 . S
C946 H966 0.931 . S
C947 C943 1.460 . S
C947 C946 1.477 . S
C947 H967 0.930 . S
C948 N944 1.362 . S
C948 C945 1.431 . S
C948 C958 1.476 . S
H949 C943 0.929 . S
C950 O941 1.250 . S
C950 O942 1.258 . S
O951 Mn936 2.162 . S
O951 C939 1.281 . S
O952 Mn936 2.297 . S
O952 C939 1.236 . S
N953 Mn937 2.282 . S
N953 C954 1.328 . S
N953 C958 1.318 . S
C954 N953 1.328 . S
C954 C955 1.457 . S
C954 H959 0.929 . S
C955 C954 1.457 . S
C955 C956 1.291 . S
C955 H968 0.931 . S
C956 C955 1.291 . S
C956 C957 1.373 . S
C956 H969 0.929 . S
C957 C956 1.373 . S
C957 C958 1.396 . S
C957 C964 1.403 . S
C958 C948 1.476 . S
C958 N953 1.318 . S
C958 C957 1.396 . S
H959 C954 0.929 . S
O960 Mn936 2.385 . S
O960 C938 1.234 . S
O961 Mn936 2.209 . S
O961 Mn937 2.215 . S
O961 C938 1.283 . S
O962 Mn936 2.094 . S
O962 C940 1.240 . S
O963 Mn937 2.117 . S
O963 C940 1.264 . S
C964 C957 1.403 . S
C964 C965 1.399 . S
C964 H970 0.929 . S
C965 C945 1.449 . S
C965 C964 1.399 . S
C965 H971 0.930 . S
H966 C946 0.931 . S
H967 C947 0.930 . S
H968 C955 0.931 . S
H969 C956 0.929 . S
H970 C964 0.929 . S
H971 C965 0.930 . S
Mn972 O977 2.095 . S
Mn972 O987 2.162 . S
Mn972 O988 2.297 . S
Mn972 O996 2.385 . S
Mn972 O997 2.209 . S
Mn972 O998 2.094 . S
Mn973 O978 2.121 . S
Mn973 N980 2.257 . S
Mn973 N989 2.282 . S
Mn973 O997 2.215 . S
Mn973 O999 2.117 . S
C974 O996 1.234 . S
C974 O997 1.283 . S
C975 O987 1.281 . S
C975 O988 1.236 . S
C976 O998 1.240 . S
C976 O999 1.264 . S
O977 Mn972 2.095 . S
O977 C986 1.250 . S
O978 Mn973 2.121 . S
O978 C986 1.258 . S
C979 N980 1.326 . S
C979 C983 1.460 . S
C979 H985 0.929 . S
N980 Mn973 2.257 . S
N980 C979 1.326 . S
N980 C984 1.362 . S
C981 C982 1.258 . S
C981 C984 1.431 . S
C981 C1001 1.449 . S
C982 C981 1.258 . S
C982 C983 1.477 . S
C982 H1002 0.931 . S
C983 C979 1.460 . S
C983 C982 1.477 . S
C983 H1003 0.930 . S
C984 N980 1.362 . S
C984 C981 1.431 . S
C984 C994 1.476 . S
H985 C979 0.929 . S
C986 O977 1.250 . S
C986 O978 1.258 . S
O987 Mn972 2.162 . S
O987 C975 1.281 . S
O988 Mn972 2.297 . S
O988 C975 1.236 . S
N989 Mn973 2.282 . S
N989 C990 1.328 . S
N989 C994 1.318 . S
C990 N989 1.328 . S
C990 C991 1.457 . S
C990 H995 0.929 . S
C991 C990 1.457 . S
C991 C992 1.291 . S
C991 H1004 0.931 . S
C992 C991 1.291 . S
C992 C993 1.373 . S
C992 H1005 0.929 . S
C993 C992 1.373 . S
C993 C994 1.396 . S
C993 C1000 1.403 . S
C994 C984 1.476 . S
C994 N989 1.318 . S
C994 C993 1.396 . S
H995 C990 0.929 . S
O996 Mn972 2.385 . S
O996 C974 1.234 . S
O997 Mn972 2.209 . S
O997 Mn973 2.215 . S
O997 C974 1.283 . S
O998 Mn972 2.094 . S
O998 C976 1.240 . S
O999 Mn973 2.117 . S
O999 C976 1.264 . S
C1000 C993 1.403 . S
C1000 C1001 1.399 . S
C1000 H1006 0.929 . S
C1001 C981 1.449 . S
C1001 C1000 1.399 . S
C1001 H1007 0.930 . S
H1002 C982 0.931 . S
H1003 C983 0.930 . S
H1004 C991 0.931 . S
H1005 C992 0.929 . S
H1006 C1000 0.929 . S
H1007 C1001 0.930 . S
Mn1008 O1013 2.095 . S
Mn1008 O1023 2.162 . S
Mn1008 O1024 2.297 . S
Mn1008 O1032 2.385 . S
Mn1008 O1033 2.209 . S
Mn1008 O1034 2.094 . S
Mn1009 O1014 2.121 . S
Mn1009 N1016 2.257 . S
Mn1009 N1025 2.282 . S
Mn1009 O1033 2.215 . S
Mn1009 O1035 2.117 . S
C1010 O1032 1.234 . S
C1010 O1033 1.283 . S
C1011 O1023 1.281 . S
C1011 O1024 1.236 . S
C1012 O1034 1.240 . S
C1012 O1035 1.264 . S
O1013 Mn1008 2.095 . S
O1013 C1022 1.250 . S
O1014 Mn1009 2.121 . S
O1014 C1022 1.258 . S
C1015 N1016 1.326 . S
C1015 C1019 1.460 . S
C1015 H1021 0.929 . S
N1016 Mn1009 2.257 . S
N1016 C1015 1.326 . S
N1016 C1020 1.362 . S
C1017 C1018 1.258 . S
C1017 C1020 1.431 . S
C1017 C1037 1.449 . S
C1018 C1017 1.258 . S
C1018 C1019 1.477 . S
C1018 H1038 0.931 . S
C1019 C1015 1.460 . S
C1019 C1018 1.477 . S
C1019 H1039 0.930 . S
C1020 N1016 1.362 . S
C1020 C1017 1.431 . S
C1020 C1030 1.476 . S
H1021 C1015 0.929 . S
C1022 O1013 1.250 . S
C1022 O1014 1.258 . S
O1023 Mn1008 2.162 . S
O1023 C1011 1.281 . S
O1024 Mn1008 2.297 . S
O1024 C1011 1.236 . S
N1025 Mn1009 2.282 . S
N1025 C1026 1.328 . S
N1025 C1030 1.318 . S
C1026 N1025 1.328 . S
C1026 C1027 1.457 . S
C1026 H1031 0.929 . S
C1027 C1026 1.457 . S
C1027 C1028 1.291 . S
C1027 H1040 0.931 . S
C1028 C1027 1.291 . S
C1028 C1029 1.373 . S
C1028 H1041 0.929 . S
C1029 C1028 1.373 . S
C1029 C1030 1.396 . S
C1029 C1036 1.403 . S
C1030 C1020 1.476 . S
C1030 N1025 1.318 . S
C1030 C1029 1.396 . S
H1031 C1026 0.929 . S
O1032 Mn1008 2.385 . S
O1032 C1010 1.234 . S
O1033 Mn1008 2.209 . S
O1033 Mn1009 2.215 . S
O1033 C1010 1.283 . S
O1034 Mn1008 2.094 . S
O1034 C1012 1.240 . S
O1035 Mn1009 2.117 . S
O1035 C1012 1.264 . S
C1036 C1029 1.403 . S
C1036 C1037 1.399 . S
C1036 H1042 0.929 . S
C1037 C1017 1.449 . S
C1037 C1036 1.399 . S
C1037 H1043 0.930 . S
H1038 C1018 0.931 . S
H1039 C1019 0.930 . S
H1040 C1027 0.931 . S
H1041 C1028 0.929 . S
H1042 C1036 0.929 . S
H1043 C1037 0.930 . S
Mn1044 O1049 2.095 . S
Mn1044 O1059 2.162 . S
Mn1044 O1060 2.297 . S
Mn1044 O1068 2.385 . S
Mn1044 O1069 2.209 . S
Mn1044 O1070 2.094 . S
Mn1045 O1050 2.121 . S
Mn1045 N1052 2.257 . S
Mn1045 N1061 2.282 . S
Mn1045 O1069 2.215 . S
Mn1045 O1071 2.117 . S
C1046 O1068 1.234 . S
C1046 O1069 1.283 . S
C1047 O1059 1.281 . S
C1047 O1060 1.236 . S
C1048 O1070 1.240 . S
C1048 O1071 1.264 . S
O1049 Mn1044 2.095 . S
O1049 C1058 1.250 . S
O1050 Mn1045 2.121 . S
O1050 C1058 1.258 . S
C1051 N1052 1.326 . S
C1051 C1055 1.460 . S
C1051 H1057 0.929 . S
N1052 Mn1045 2.257 . S
N1052 C1051 1.326 . S
N1052 C1056 1.362 . S
C1053 C1054 1.258 . S
C1053 C1056 1.431 . S
C1053 C1073 1.449 . S
C1054 C1053 1.258 . S
C1054 C1055 1.477 . S
C1054 H1074 0.931 . S
C1055 C1051 1.460 . S
C1055 C1054 1.477 . S
C1055 H1075 0.930 . S
C1056 N1052 1.362 . S
C1056 C1053 1.431 . S
C1056 C1066 1.476 . S
H1057 C1051 0.929 . S
C1058 O1049 1.250 . S
C1058 O1050 1.258 . S
O1059 Mn1044 2.162 . S
O1059 C1047 1.281 . S
O1060 Mn1044 2.297 . S
O1060 C1047 1.236 . S
N1061 Mn1045 2.282 . S
N1061 C1062 1.328 . S
N1061 C1066 1.318 . S
C1062 N1061 1.328 . S
C1062 C1063 1.457 . S
C1062 H1067 0.929 . S
C1063 C1062 1.457 . S
C1063 C1064 1.291 . S
C1063 H1076 0.931 . S
C1064 C1063 1.291 . S
C1064 C1065 1.373 . S
C1064 H1077 0.929 . S
C1065 C1064 1.373 . S
C1065 C1066 1.396 . S
C1065 C1072 1.403 . S
C1066 C1056 1.476 . S
C1066 N1061 1.318 . S
C1066 C1065 1.396 . S
H1067 C1062 0.929 . S
O1068 Mn1044 2.385 . S
O1068 C1046 1.234 . S
O1069 Mn1044 2.209 . S
O1069 Mn1045 2.215 . S
O1069 C1046 1.283 . S
O1070 Mn1044 2.094 . S
O1070 C1048 1.240 . S
O1071 Mn1045 2.117 . S
O1071 C1048 1.264 . S
C1072 C1065 1.403 . S
C1072 C1073 1.399 . S
C1072 H1078 0.929 . S
C1073 C1053 1.449 . S
C1073 C1072 1.399 . S
C1073 H1079 0.930 . S
H1074 C1054 0.931 . S
H1075 C1055 0.930 . S
H1076 C1063 0.931 . S
H1077 C1064 0.929 . S
H1078 C1072 0.929 . S
H1079 C1073 0.930 . S
Mn1080 O1085 2.095 . S
Mn1080 O1095 2.162 . S
Mn1080 O1096 2.297 . S
Mn1080 O1104 2.385 . S
Mn1080 O1105 2.209 . S
Mn1080 O1106 2.094 . S
Mn1081 O1086 2.121 . S
Mn1081 N1088 2.257 . S
Mn1081 N1097 2.282 . S
Mn1081 O1105 2.215 . S
Mn1081 O1107 2.117 . S
C1082 O1104 1.234 . S
C1082 O1105 1.283 . S
C1083 O1095 1.281 . S
C1083 O1096 1.236 . S
C1084 O1106 1.240 . S
C1084 O1107 1.264 . S
O1085 Mn1080 2.095 . S
O1085 C1094 1.250 . S
O1086 Mn1081 2.121 . S
O1086 C1094 1.258 . S
C1087 N1088 1.326 . S
C1087 C1091 1.460 . S
C1087 H1093 0.929 . S
N1088 Mn1081 2.257 . S
N1088 C1087 1.326 . S
N1088 C1092 1.362 . S
C1089 C1090 1.258 . S
C1089 C1092 1.431 . S
C1089 C1109 1.449 . S
C1090 C1089 1.258 . S
C1090 C1091 1.477 . S
C1090 H1110 0.931 . S
C1091 C1087 1.460 . S
C1091 C1090 1.477 . S
C1091 H1111 0.930 . S
C1092 N1088 1.362 . S
C1092 C1089 1.431 . S
C1092 C1102 1.476 . S
H1093 C1087 0.929 . S
C1094 O1085 1.250 . S
C1094 O1086 1.258 . S
O1095 Mn1080 2.162 . S
O1095 C1083 1.281 . S
O1096 Mn1080 2.297 . S
O1096 C1083 1.236 . S
N1097 Mn1081 2.282 . S
N1097 C1098 1.328 . S
N1097 C1102 1.318 . S
C1098 N1097 1.328 . S
C1098 C1099 1.457 . S
C1098 H1103 0.929 . S
C1099 C1098 1.457 . S
C1099 C1100 1.291 . S
C1099 H1112 0.931 . S
C1100 C1099 1.291 . S
C1100 C1101 1.373 . S
C1100 H1113 0.929 . S
C1101 C1100 1.373 . S
C1101 C1102 1.396 . S
C1101 C1108 1.403 . S
C1102 C1092 1.476 . S
C1102 N1097 1.318 . S
C1102 C1101 1.396 . S
H1103 C1098 0.929 . S
O1104 Mn1080 2.385 . S
O1104 C1082 1.234 . S
O1105 Mn1080 2.209 . S
O1105 Mn1081 2.215 . S
O1105 C1082 1.283 . S
O1106 Mn1080 2.094 . S
O1106 C1084 1.240 . S
O1107 Mn1081 2.117 . S
O1107 C1084 1.264 . S
C1108 C1101 1.403 . S
C1108 C1109 1.399 . S
C1108 H1114 0.929 . S
C1109 C1089 1.449 . S
C1109 C1108 1.399 . S
C1109 H1115 0.930 . S
H1110 C1090 0.931 . S
H1111 C1091 0.930 . S
H1112 C1099 0.931 . S
H1113 C1100 0.929 . S
H1114 C1108 0.929 . S
H1115 C1109 0.930 . S
Mn1116 O1121 2.095 . S
Mn1116 O1131 2.162 . S
Mn1116 O1132 2.297 . S
Mn1116 O1140 2.385 . S
Mn1116 O1141 2.209 . S
Mn1116 O1142 2.094 . S
Mn1117 O1122 2.121 1_554 S
Mn1117 N1124 2.257 . S
Mn1117 N1133 2.282 . S
Mn1117 O1141 2.215 1_554 S
Mn1117 O1143 2.117 1_554 S
C1118 O1140 1.234 . S
C1118 O1141 1.283 . S
C1119 O1131 1.281 . S
C1119 O1132 1.236 . S
C1120 O1142 1.240 . S
C1120 O1143 1.264 . S
O1121 Mn1116 2.095 . S
O1121 C1130 1.250 . S
O1122 Mn1117 2.121 1_556 S
O1122 C1130 1.258 . S
C1123 N1124 1.326 . S
C1123 C1127 1.460 . S
C1123 H1129 0.929 . S
N1124 Mn1117 2.257 . S
N1124 C1123 1.326 . S
N1124 C1128 1.362 . S
C1125 C1126 1.258 . S
C1125 C1128 1.431 . S
C1125 C1145 1.449 . S
C1126 C1125 1.258 . S
C1126 C1127 1.477 . S
C1126 H1146 0.931 . S
C1127 C1123 1.460 . S
C1127 C1126 1.477 . S
C1127 H1147 0.930 . S
C1128 N1124 1.362 . S
C1128 C1125 1.431 . S
C1128 C1138 1.476 . S
H1129 C1123 0.929 . S
C1130 O1121 1.250 . S
C1130 O1122 1.258 . S
O1131 Mn1116 2.162 . S
O1131 C1119 1.281 . S
O1132 Mn1116 2.297 . S
O1132 C1119 1.236 . S
N1133 Mn1117 2.282 . S
N1133 C1134 1.328 . S
N1133 C1138 1.318 . S
C1134 N1133 1.328 . S
C1134 C1135 1.457 . S
C1134 H1139 0.929 . S
C1135 C1134 1.457 . S
C1135 C1136 1.291 . S
C1135 H1148 0.931 . S
C1136 C1135 1.291 . S
C1136 C1137 1.373 . S
C1136 H1149 0.929 . S
C1137 C1136 1.373 . S
C1137 C1138 1.396 . S
C1137 C1144 1.403 . S
C1138 C1128 1.476 . S
C1138 N1133 1.318 . S
C1138 C1137 1.396 . S
H1139 C1134 0.929 . S
O1140 Mn1116 2.385 . S
O1140 C1118 1.234 . S
O1141 Mn1116 2.209 . S
O1141 Mn1117 2.215 1_556 S
O1141 C1118 1.283 . S
O1142 Mn1116 2.094 . S
O1142 C1120 1.240 . S
O1143 Mn1117 2.117 1_556 S
O1143 C1120 1.264 . S
C1144 C1137 1.403 . S
C1144 C1145 1.399 . S
C1144 H1150 0.929 . S
C1145 C1125 1.449 . S
C1145 C1144 1.399 . S
C1145 H1151 0.930 . S
H1146 C1126 0.931 . S
H1147 C1127 0.930 . S
H1148 C1135 0.931 . S
H1149 C1136 0.929 . S
H1150 C1144 0.929 . S
H1151 C1145 0.930 . S
H1152 C1160 0.950 . S
H1153 C1165 0.950 . S
H1154 C1162 0.950 . S
H1155 C1164 0.950 . S
H1156 C1166 0.950 . S
H1157 C1168 0.950 . S
H1158 C1170 0.950 . S
H1159 C1171 0.950 . S
C1160 H1152 0.950 . S
C1160 C1161 1.386 . S
C1160 C1162 1.391 . S
C1161 C1160 1.386 . S
C1161 C1165 1.393 . S
C1162 H1154 0.950 . S
C1162 C1160 1.391 . S
C1162 C1163 1.400 . S
C1163 C1162 1.400 . S
C1163 C1164 1.398 . S
C1163 C1169 1.491 . S
C1164 H1155 0.950 . S
C1164 C1163 1.398 . S
C1164 C1165 1.391 . S
C1165 H1153 0.950 . S
C1165 C1161 1.393 . S
C1165 C1164 1.391 . S
C1166 H1156 0.950 . S
C1166 C1167 1.386 . S
C1166 C1168 1.391 . S
C1167 C1166 1.386 . S
C1167 C1171 1.393 . S
C1168 H1157 0.950 . S
C1168 C1166 1.391 . S
C1168 C1169 1.400 . S
C1169 C1163 1.491 . S
C1169 C1168 1.400 . S
C1169 C1170 1.398 . S
C1170 H1158 0.950 . S
C1170 C1169 1.398 . S
C1170 C1171 1.391 . S
C1171 H1159 0.950 . S
C1171 C1167 1.393 . S
C1171 C1170 1.391 . S
H1172 C1180 0.950 . S
H1173 C1185 0.950 . S
H1174 C1182 0.950 . S
H1175 C1184 0.950 . S
H1176 C1186 0.950 . S
H1177 C1188 0.950 . S
H1178 C1190 0.950 . S
H1179 C1191 0.950 . S
C1180 H1172 0.950 . S
C1180 C1181 1.386 . S
C1180 C1182 1.391 . S
C1181 C1180 1.386 . S
C1181 C1185 1.393 . S
C1182 H1174 0.950 . S
C1182 C1180 1.391 . S
C1182 C1183 1.400 . S
C1183 C1182 1.400 . S
C1183 C1184 1.398 . S
C1183 C1189 1.491 1_565 S
C1184 H1175 0.950 . S
C1184 C1183 1.398 . S
C1184 C1185 1.391 . S
C1185 H1173 0.950 . S
C1185 C1181 1.393 . S
C1185 C1184 1.391 . S
C1186 H1176 0.950 . S
C1186 C1187 1.386 . S
C1186 C1188 1.391 . S
C1187 C1186 1.386 . S
C1187 C1191 1.393 . S
C1188 H1177 0.950 . S
C1188 C1186 1.391 . S
C1188 C1189 1.400 . S
C1189 C1183 1.491 1_545 S
C1189 C1188 1.400 . S
C1189 C1190 1.398 . S
C1190 H1178 0.950 . S
C1190 C1189 1.398 . S
C1190 C1191 1.391 . S
C1191 H1179 0.950 . S
C1191 C1187 1.393 . S
C1191 C1190 1.391 . S
H1192 C1200 0.950 . S
H1193 C1205 0.950 . S
H1194 C1202 0.950 . S
H1195 C1204 0.950 . S
H1196 C1206 0.950 . S
H1197 C1208 0.950 . S
H1198 C1210 0.950 . S
H1199 C1211 0.950 . S
C1200 H1192 0.950 . S
C1200 C1201 1.386 . S
C1200 C1202 1.391 . S
C1201 C1200 1.386 . S
C1201 C1205 1.393 . S
C1202 H1194 0.950 . S
C1202 C1200 1.391 . S
C1202 C1203 1.400 . S
C1203 C1202 1.400 . S
C1203 C1204 1.398 . S
C1203 C1209 1.491 . S
C1204 H1195 0.950 . S
C1204 C1203 1.398 . S
C1204 C1205 1.391 . S
C1205 H1193 0.950 . S
C1205 C1201 1.393 . S
C1205 C1204 1.391 . S
C1206 H1196 0.950 . S
C1206 C1207 1.386 . S
C1206 C1208 1.391 . S
C1207 C1206 1.386 . S
C1207 C1211 1.393 . S
C1208 H1197 0.950 . S
C1208 C1206 1.391 . S
C1208 C1209 1.400 . S
C1209 C1203 1.491 . S
C1209 C1208 1.400 . S
C1209 C1210 1.398 . S
C1210 H1198 0.950 . S
C1210 C1209 1.398 . S
C1210 C1211 1.391 . S
C1211 H1199 0.950 . S
C1211 C1207 1.393 . S
C1211 C1210 1.391 . S
H1212 C1220 0.950 . S
H1213 C1225 0.950 . S
H1214 C1222 0.950 . S
H1215 C1224 0.950 . S
H1216 C1226 0.950 . S
H1217 C1228 0.950 . S
H1218 C1230 0.950 . S
H1219 C1231 0.950 . S
C1220 H1212 0.950 . S
C1220 C1221 1.386 . S
C1220 C1222 1.391 . S
C1221 C1220 1.386 . S
C1221 C1225 1.393 1_556 S
C1222 H1214 0.950 . S
C1222 C1220 1.391 . S
C1222 C1223 1.400 . S
C1223 C1222 1.400 . S
C1223 C1224 1.398 1_556 S
C1223 C1229 1.491 1_546 S
C1224 H1215 0.950 . S
C1224 C1223 1.398 1_554 S
C1224 C1225 1.391 . S
C1225 H1213 0.950 . S
C1225 C1221 1.393 1_554 S
C1225 C1224 1.391 . S
C1226 H1216 0.950 . S
C1226 C1227 1.386 . S
C1226 C1228 1.391 . S
C1227 C1226 1.386 . S
C1227 C1231 1.393 1_554 S
C1228 H1217 0.950 . S
C1228 C1226 1.391 . S
C1228 C1229 1.400 . S
C1229 C1223 1.491 1_564 S
C1229 C1228 1.400 . S
C1229 C1230 1.398 1_554 S
C1230 H1218 0.950 . S
C1230 C1229 1.398 1_556 S
C1230 C1231 1.391 . S
C1231 H1219 0.950 . S
C1231 C1227 1.393 1_556 S
C1231 C1230 1.391 . S
H1232 C1240 0.950 . S
H1233 C1245 0.950 . S
H1234 C1242 0.950 . S
H1235 C1244 0.950 . S
H1236 C1246 0.950 . S
H1237 C1248 0.950 . S
H1238 C1250 0.950 . S
H1239 C1251 0.950 . S
C1240 H1232 0.950 . S
C1240 C1241 1.386 . S
C1240 C1242 1.391 . S
C1241 C1240 1.386 . S
C1241 C1245 1.393 . S
C1242 H1234 0.950 . S
C1242 C1240 1.391 . S
C1242 C1243 1.400 . S
C1243 C1242 1.400 . S
C1243 C1244 1.398 . S
C1243 C1249 1.491 . S
C1244 H1235 0.950 . S
C1244 C1243 1.398 . S
C1244 C1245 1.391 . S
C1245 H1233 0.950 . S
C1245 C1241 1.393 . S
C1245 C1244 1.391 . S
C1246 H1236 0.950 . S
C1246 C1247 1.386 . S
C1246 C1248 1.391 . S
C1247 C1246 1.386 . S
C1247 C1251 1.393 . S
C1248 H1237 0.950 . S
C1248 C1246 1.391 . S
C1248 C1249 1.400 . S
C1249 C1243 1.491 . S
C1249 C1248 1.400 . S
C1249 C1250 1.398 . S
C1250 H1238 0.950 . S
C1250 C1249 1.398 . S
C1250 C1251 1.391 . S
C1251 H1239 0.950 . S
C1251 C1247 1.393 . S
C1251 C1250 1.391 . S
H1252 C1260 0.950 . S
H1253 C1265 0.950 . S
H1254 C1262 0.950 . S
H1255 C1264 0.950 . S
H1256 C1266 0.950 . S
H1257 C1268 0.950 . S
H1258 C1270 0.950 . S
H1259 C1271 0.950 . S
C1260 H1252 0.950 . S
C1260 C1261 1.386 . S
C1260 C1262 1.391 . S
C1261 C1260 1.386 . S
C1261 C1265 1.393 . S
C1262 H1254 0.950 . S
C1262 C1260 1.391 . S
C1262 C1263 1.400 . S
C1263 C1262 1.400 . S
C1263 C1264 1.398 . S
C1263 C1269 1.491 1_565 S
C1264 H1255 0.950 . S
C1264 C1263 1.398 . S
C1264 C1265 1.391 . S
C1265 H1253 0.950 . S
C1265 C1261 1.393 . S
C1265 C1264 1.391 . S
C1266 H1256 0.950 . S
C1266 C1267 1.386 . S
C1266 C1268 1.391 . S
C1267 C1266 1.386 . S
C1267 C1271 1.393 . S
C1268 H1257 0.950 . S
C1268 C1266 1.391 . S
C1268 C1269 1.400 . S
C1269 C1263 1.491 1_545 S
C1269 C1268 1.400 . S
C1269 C1270 1.398 . S
C1270 H1258 0.950 . S
C1270 C1269 1.398 . S
C1270 C1271 1.391 . S
C1271 H1259 0.950 . S
C1271 C1267 1.393 . S
C1271 C1270 1.391 . S
H1272 C1280 0.950 . S
H1273 C1285 0.950 . S
H1274 C1282 0.950 . S
H1275 C1284 0.950 . S
H1276 C1286 0.950 . S
H1277 C1288 0.950 . S
H1278 C1290 0.950 . S
H1279 C1291 0.950 . S
C1280 H1272 0.950 . S
C1280 C1281 1.386 . S
C1280 C1282 1.391 . S
C1281 C1280 1.386 . S
C1281 C1285 1.393 . S
C1282 H1274 0.950 . S
C1282 C1280 1.391 . S
C1282 C1283 1.400 . S
C1283 C1282 1.400 . S
C1283 C1284 1.398 . S
C1283 C1289 1.491 . S
C1284 H1275 0.950 . S
C1284 C1283 1.398 . S
C1284 C1285 1.391 . S
C1285 H1273 0.950 . S
C1285 C1281 1.393 . S
C1285 C1284 1.391 . S
C1286 H1276 0.950 . S
C1286 C1287 1.386 . S
C1286 C1288 1.391 . S
C1287 C1286 1.386 . S
C1287 C1291 1.393 . S
C1288 H1277 0.950 . S
C1288 C1286 1.391 . S
C1288 C1289 1.400 . S
C1289 C1283 1.491 . S
C1289 C1288 1.400 . S
C1289 C1290 1.398 . S
C1290 H1278 0.950 . S
C1290 C1289 1.398 . S
C1290 C1291 1.391 . S
C1291 H1279 0.950 . S
C1291 C1287 1.393 . S
C1291 C1290 1.391 . S
H1292 C1300 0.950 . S
H1293 C1305 0.950 . S
H1294 C1302 0.950 1_554 S
H1295 C1304 0.950 . S
H1296 C1306 0.950 . S
H1297 C1308 0.950 1_556 S
H1298 C1310 0.950 . S
H1299 C1311 0.950 . S
C1300 H1292 0.950 . S
C1300 C1301 1.386 . S
C1300 C1302 1.391 . S
C1301 C1300 1.386 . S
C1301 C1305 1.393 . S
C1302 H1294 0.950 1_556 S
C1302 C1300 1.391 . S
C1302 C1303 1.400 . S
C1303 C1302 1.400 . S
C1303 C1304 1.398 . S
C1303 C1309 1.491 1_546 S
C1304 H1295 0.950 . S
C1304 C1303 1.398 . S
C1304 C1305 1.391 . S
C1305 H1293 0.950 . S
C1305 C1301 1.393 . S
C1305 C1304 1.391 . S
C1306 H1296 0.950 . S
C1306 C1307 1.386 . S
C1306 C1308 1.391 . S
C1307 C1306 1.386 . S
C1307 C1311 1.393 . S
C1308 H1297 0.950 1_554 S
C1308 C1306 1.391 . S
C1308 C1309 1.400 . S
C1309 C1303 1.491 1_564 S
C1309 C1308 1.400 . S
C1309 C1310 1.398 . S
C1310 H1298 0.950 . S
C1310 C1309 1.398 . S
C1310 C1311 1.391 . S
C1311 H1299 0.950 . S
C1311 C1307 1.393 . S
C1311 C1310 1.391 . S
H1312 C1320 0.950 . S
H1313 C1325 0.950 . S
H1314 C1322 0.950 . S
H1315 C1324 0.950 . S
H1316 C1326 0.950 . S
H1317 C1328 0.950 . S
H1318 C1330 0.950 . S
H1319 C1331 0.950 . S
C1320 H1312 0.950 . S
C1320 C1321 1.386 . S
C1320 C1322 1.391 . S
C1321 C1320 1.386 . S
C1321 C1325 1.393 . S
C1322 H1314 0.950 . S
C1322 C1320 1.391 . S
C1322 C1323 1.400 . S
C1323 C1322 1.400 . S
C1323 C1324 1.398 . S
C1323 C1329 1.491 . S
C1324 H1315 0.950 . S
C1324 C1323 1.398 . S
C1324 C1325 1.391 . S
C1325 H1313 0.950 . S
C1325 C1321 1.393 . S
C1325 C1324 1.391 . S
C1326 H1316 0.950 . S
C1326 C1327 1.386 . S
C1326 C1328 1.391 . S
C1327 C1326 1.386 . S
C1327 C1331 1.393 . S
C1328 H1317 0.950 . S
C1328 C1326 1.391 . S
C1328 C1329 1.400 . S
C1329 C1323 1.491 . S
C1329 C1328 1.400 . S
C1329 C1330 1.398 . S
C1330 H1318 0.950 . S
C1330 C1329 1.398 . S
C1330 C1331 1.391 . S
C1331 H1319 0.950 . S
C1331 C1327 1.393 . S
C1331 C1330 1.391 . S
H1332 C1340 0.950 . S
H1333 C1345 0.950 . S
H1334 C1342 0.950 . S
H1335 C1344 0.950 . S
H1336 C1346 0.950 . S
H1337 C1348 0.950 . S
H1338 C1350 0.950 . S
H1339 C1351 0.950 . S
C1340 H1332 0.950 . S
C1340 C1341 1.386 . S
C1340 C1342 1.391 . S
C1341 C1340 1.386 . S
C1341 C1345 1.393 1_556 S
C1342 H1334 0.950 . S
C1342 C1340 1.391 . S
C1342 C1343 1.400 . S
C1343 C1342 1.400 . S
C1343 C1344 1.398 1_556 S
C1343 C1349 1.491 1_556 S
C1344 H1335 0.950 . S
C1344 C1343 1.398 1_554 S
C1344 C1345 1.391 . S
C1345 H1333 0.950 . S
C1345 C1341 1.393 1_554 S
C1345 C1344 1.391 . S
C1346 H1336 0.950 . S
C1346 C1347 1.386 . S
C1346 C1348 1.391 . S
C1347 C1346 1.386 . S
C1347 C1351 1.393 1_554 S
C1348 H1337 0.950 . S
C1348 C1346 1.391 . S
C1348 C1349 1.400 . S
C1349 C1343 1.491 1_554 S
C1349 C1348 1.400 . S
C1349 C1350 1.398 1_554 S
C1350 H1338 0.950 . S
C1350 C1349 1.398 1_556 S
C1350 C1351 1.391 . S
C1351 H1339 0.950 . S
C1351 C1347 1.393 1_556 S
C1351 C1350 1.391 . S
H1352 C1360 0.950 . S
H1353 C1365 0.950 . S
H1354 C1362 0.950 . S
H1355 C1364 0.950 . S
H1356 C1366 0.950 . S
H1357 C1368 0.950 . S
H1358 C1370 0.950 . S
H1359 C1371 0.950 . S
C1360 H1352 0.950 . S
C1360 C1361 1.386 . S
C1360 C1362 1.391 . S
C1361 C1360 1.386 . S
C1361 C1365 1.393 . S
C1362 H1354 0.950 . S
C1362 C1360 1.391 . S
C1362 C1363 1.400 . S
C1363 C1362 1.400 . S
C1363 C1364 1.398 . S
C1363 C1369 1.491 . S
C1364 H1355 0.950 . S
C1364 C1363 1.398 . S
C1364 C1365 1.391 . S
C1365 H1353 0.950 . S
C1365 C1361 1.393 . S
C1365 C1364 1.391 . S
C1366 H1356 0.950 . S
C1366 C1367 1.386 . S
C1366 C1368 1.391 . S
C1367 C1366 1.386 . S
C1367 C1371 1.393 . S
C1368 H1357 0.950 . S
C1368 C1366 1.391 . S
C1368 C1369 1.400 . S
C1369 C1363 1.491 . S
C1369 C1368 1.400 . S
C1369 C1370 1.398 . S
C1370 H1358 0.950 . S
C1370 C1369 1.398 . S
C1370 C1371 1.391 . S
C1371 H1359 0.950 . S
C1371 C1367 1.393 . S
C1371 C1370 1.391 . S
H1372 C1380 0.950 . S
H1373 C1385 0.950 . S
H1374 C1382 0.950 . S
H1375 C1384 0.950 . S
H1376 C1386 0.950 . S
H1377 C1388 0.950 . S
H1378 C1390 0.950 . S
H1379 C1391 0.950 . S
C1380 H1372 0.950 . S
C1380 C1381 1.386 . S
C1380 C1382 1.391 . S
C1381 C1380 1.386 . S
C1381 C1385 1.393 . S
C1382 H1374 0.950 . S
C1382 C1380 1.391 . S
C1382 C1383 1.400 . S
C1383 C1382 1.400 . S
C1383 C1384 1.398 . S
C1383 C1389 1.491 . S
C1384 H1375 0.950 . S
C1384 C1383 1.398 . S
C1384 C1385 1.391 . S
C1385 H1373 0.950 . S
C1385 C1381 1.393 . S
C1385 C1384 1.391 . S
C1386 H1376 0.950 . S
C1386 C1387 1.386 . S
C1386 C1388 1.391 . S
C1387 C1386 1.386 . S
C1387 C1391 1.393 . S
C1388 H1377 0.950 . S
C1388 C1386 1.391 . S
C1388 C1389 1.400 . S
C1389 C1383 1.491 . S
C1389 C1388 1.400 . S
C1389 C1390 1.398 . S
C1390 H1378 0.950 . S
C1390 C1389 1.398 . S
C1390 C1391 1.391 . S
C1391 H1379 0.950 . S
C1391 C1387 1.393 . S
C1391 C1390 1.391 . S
H1392 C1400 0.950 . S
H1393 C1405 0.950 . S
H1394 C1402 0.950 . S
H1395 C1404 0.950 . S
H1396 C1406 0.950 . S
H1397 C1408 0.950 . S
H1398 C1410 0.950 . S
H1399 C1411 0.950 . S
C1400 H1392 0.950 . S
C1400 C1401 1.386 . S
C1400 C1402 1.391 . S
C1401 C1400 1.386 . S
C1401 C1405 1.393 . S
C1402 H1394 0.950 . S
C1402 C1400 1.391 . S
C1402 C1403 1.400 . S
C1403 C1402 1.400 . S
C1403 C1404 1.398 . S
C1403 C1409 1.491 . S
C1404 H1395 0.950 . S
C1404 C1403 1.398 . S
C1404 C1405 1.391 . S
C1405 H1393 0.950 . S
C1405 C1401 1.393 . S
C1405 C1404 1.391 . S
C1406 H1396 0.950 . S
C1406 C1407 1.386 . S
C1406 C1408 1.391 . S
C1407 C1406 1.386 . S
C1407 C1411 1.393 . S
C1408 H1397 0.950 . S
C1408 C1406 1.391 . S
C1408 C1409 1.400 . S
C1409 C1403 1.491 . S
C1409 C1408 1.400 . S
C1409 C1410 1.398 . S
C1410 H1398 0.950 . S
C1410 C1409 1.398 . S
C1410 C1411 1.391 . S
C1411 H1399 0.950 . S
C1411 C1407 1.393 . S
C1411 C1410 1.391 . S
H1412 C1420 0.950 . S
H1413 C1425 0.950 . S
H1414 C1422 0.959 . S
H1415 C1424 0.950 . S
H1416 C1426 0.950 . S
H1417 C1428 0.959 . S
H1418 C1430 0.950 . S
H1419 C1431 0.950 . S
C1420 H1412 0.950 . S
C1420 C1421 1.386 . S
C1420 C1422 1.386 1_554 S
C1421 C1420 1.386 . S
C1421 C1425 1.393 . S
C1422 H1414 0.959 . S
C1422 C1420 1.386 1_556 S
C1422 C1423 1.397 1_556 S
C1423 C1422 1.397 1_554 S
C1423 C1424 1.398 . S
C1423 C1429 1.491 1_554 S
C1424 H1415 0.950 . S
C1424 C1423 1.398 . S
C1424 C1425 1.391 . S
C1425 H1413 0.950 . S
C1425 C1421 1.393 . S
C1425 C1424 1.391 . S
C1426 H1416 0.950 . S
C1426 C1427 1.386 . S
C1426 C1428 1.386 1_556 S
C1427 C1426 1.386 . S
C1427 C1431 1.393 . S
C1428 H1417 0.959 . S
C1428 C1426 1.386 1_554 S
C1428 C1429 1.397 1_554 S
C1429 C1423 1.491 1_556 S
C1429 C1428 1.397 1_556 S
C1429 C1430 1.398 . S
C1430 H1418 0.950 . S
C1430 C1429 1.398 . S
C1430 C1431 1.391 . S
C1431 H1419 0.950 . S
C1431 C1427 1.393 . S
C1431 C1430 1.391 . S
H1432 C1440 0.950 . S
H1433 C1445 0.950 . S
H1434 C1442 0.950 . S
H1435 C1444 0.950 . S
H1436 C1446 0.950 . S
H1437 C1448 0.950 . S
H1438 C1450 0.950 . S
H1439 C1451 0.950 . S
C1440 H1432 0.950 . S
C1440 C1441 1.386 . S
C1440 C1442 1.391 . S
C1441 C1440 1.386 . S
C1441 C1445 1.393 . S
C1442 H1434 0.950 . S
C1442 C1440 1.391 . S
C1442 C1443 1.400 . S
C1443 C1442 1.400 . S
C1443 C1444 1.398 . S
C1443 C1449 1.491 . S
C1444 H1435 0.950 . S
C1444 C1443 1.398 . S
C1444 C1445 1.391 . S
C1445 H1433 0.950 . S
C1445 C1441 1.393 . S
C1445 C1444 1.391 . S
C1446 H1436 0.950 . S
C1446 C1447 1.386 . S
C1446 C1448 1.391 . S
C1447 C1446 1.386 . S
C1447 C1451 1.393 . S
C1448 H1437 0.950 . S
C1448 C1446 1.391 . S
C1448 C1449 1.400 . S
C1449 C1443 1.491 . S
C1449 C1448 1.400 . S
C1449 C1450 1.398 . S
C1450 H1438 0.950 . S
C1450 C1449 1.398 . S
C1450 C1451 1.391 . S
C1451 H1439 0.950 . S
C1451 C1447 1.393 . S
C1451 C1450 1.391 . S
H1452 C1460 0.950 . S
H1453 C1465 0.950 . S
H1454 C1462 0.950 . S
H1455 C1464 0.950 . S
H1456 C1466 0.950 . S
H1457 C1468 0.950 . S
H1458 C1470 0.950 . S
H1459 C1471 0.950 . S
C1460 H1452 0.950 . S
C1460 C1461 1.386 . S
C1460 C1462 1.391 . S
C1461 C1460 1.386 . S
C1461 C1465 1.393 . S
C1462 H1454 0.950 . S
C1462 C1460 1.391 . S
C1462 C1463 1.400 . S
C1463 C1462 1.400 . S
C1463 C1464 1.398 . S
C1463 C1469 1.491 . S
C1464 H1455 0.950 . S
C1464 C1463 1.398 . S
C1464 C1465 1.391 . S
C1465 H1453 0.950 . S
C1465 C1461 1.393 . S
C1465 C1464 1.391 . S
C1466 H1456 0.950 . S
C1466 C1467 1.386 . S
C1466 C1468 1.391 . S
C1467 C1466 1.386 . S
C1467 C1471 1.393 . S
C1468 H1457 0.950 . S
C1468 C1466 1.391 . S
C1468 C1469 1.400 . S
C1469 C1463 1.491 . S
C1469 C1468 1.400 . S
C1469 C1470 1.398 . S
C1470 H1458 0.950 . S
C1470 C1469 1.398 . S
C1470 C1471 1.391 . S
C1471 H1459 0.950 . S
C1471 C1467 1.393 . S
C1471 C1470 1.391 . S
H1472 C1480 0.968 . S
H1473 C1485 0.950 . S
H1474 C1482 0.950 . S
H1475 C1484 0.950 . S
H1476 C1486 0.950 . S
H1477 C1488 0.950 . S
H1478 C1490 0.950 . S
H1479 C1491 0.950 . S
C1480 H1472 0.968 . S
C1480 C1481 1.383 1_554 S
C1480 C1482 1.376 1_554 S
C1481 C1480 1.383 1_556 S
C1481 C1485 1.393 . S
C1482 H1474 0.950 . S
C1482 C1480 1.376 1_556 S
C1482 C1483 1.400 . S
C1483 C1482 1.400 . S
C1483 C1484 1.398 . S
C1483 C1489 1.491 . S
C1484 H1475 0.950 . S
C1484 C1483 1.398 . S
C1484 C1485 1.391 . S
C1485 H1473 0.950 . S
C1485 C1481 1.393 . S
C1485 C1484 1.391 . S
C1486 H1476 0.950 . S
C1486 C1487 1.386 . S
C1486 C1488 1.391 . S
C1487 C1486 1.386 . S
C1487 C1491 1.393 . S
C1488 H1477 0.950 . S
C1488 C1486 1.391 . S
C1488 C1489 1.400 . S
C1489 C1483 1.491 . S
C1489 C1488 1.400 . S
C1489 C1490 1.398 . S
C1490 H1478 0.950 . S
C1490 C1489 1.398 . S
C1490 C1491 1.391 . S
C1491 H1479 0.950 . S
C1491 C1487 1.393 . S
C1491 C1490 1.391 . S
H1492 C1500 0.950 . S
H1493 C1505 0.950 . S
H1494 C1502 0.950 . S
H1495 C1504 0.950 . S
H1496 C1506 0.950 . S
H1497 C1508 0.950 . S
H1498 C1510 0.950 . S
H1499 C1511 0.950 . S
C1500 H1492 0.950 . S
C1500 C1501 1.386 . S
C1500 C1502 1.391 . S
C1501 C1500 1.386 . S
C1501 C1505 1.393 . S
C1502 H1494 0.950 . S
C1502 C1500 1.391 . S
C1502 C1503 1.400 . S
C1503 C1502 1.400 . S
C1503 C1504 1.398 . S
C1503 C1509 1.491 . S
C1504 H1495 0.950 . S
C1504 C1503 1.398 . S
C1504 C1505 1.391 . S
C1505 H1493 0.950 . S
C1505 C1501 1.393 . S
C1505 C1504 1.391 . S
C1506 H1496 0.950 . S
C1506 C1507 1.386 . S
C1506 C1508 1.391 . S
C1507 C1506 1.386 . S
C1507 C1511 1.393 . S
C1508 H1497 0.950 . S
C1508 C1506 1.391 . S
C1508 C1509 1.400 . S
C1509 C1503 1.491 . S
C1509 C1508 1.400 . S
C1509 C1510 1.398 . S
C1510 H1498 0.950 . S
C1510 C1509 1.398 . S
C1510 C1511 1.391 . S
C1511 H1499 0.950 . S
C1511 C1507 1.393 . S
C1511 C1510 1.391 . S
H1512 C1520 0.950 . S
H1513 C1525 0.950 . S
H1514 C1522 0.950 . S
H1515 C1524 0.950 . S
H1516 C1526 0.950 . S
H1517 C1528 0.950 . S
H1518 C1530 0.950 . S
H1519 C1531 0.950 . S
C1520 H1512 0.950 . S
C1520 C1521 1.386 . S
C1520 C1522 1.391 . S
C1521 C1520 1.386 . S
C1521 C1525 1.393 . S
C1522 H1514 0.950 . S
C1522 C1520 1.391 . S
C1522 C1523 1.400 . S
C1523 C1522 1.400 . S
C1523 C1524 1.398 . S
C1523 C1529 1.491 . S
C1524 H1515 0.950 . S
C1524 C1523 1.398 . S
C1524 C1525 1.391 . S
C1525 H1513 0.950 . S
C1525 C1521 1.393 . S
C1525 C1524 1.391 . S
C1526 H1516 0.950 . S
C1526 C1527 1.386 . S
C1526 C1528 1.391 . S
C1527 C1526 1.386 . S
C1527 C1531 1.393 . S
C1528 H1517 0.950 . S
C1528 C1526 1.391 . S
C1528 C1529 1.400 . S
C1529 C1523 1.491 . S
C1529 C1528 1.400 . S
C1529 C1530 1.398 . S
C1530 H1518 0.950 . S
C1530 C1529 1.398 . S
C1530 C1531 1.391 . S
C1531 H1519 0.950 . S
C1531 C1527 1.393 . S
C1531 C1530 1.391 . S
H1532 C1540 0.950 . S
H1533 C1545 0.950 . S
H1534 C1542 0.950 . S
H1535 C1544 0.950 . S
H1536 C1546 0.950 . S
H1537 C1548 0.950 . S
H1538 C1550 0.950 . S
H1539 C1551 0.950 . S
C1540 H1532 0.950 . S
C1540 C1541 1.386 . S
C1540 C1542 1.391 . S
C1541 C1540 1.386 . S
C1541 C1545 1.393 . S
C1542 H1534 0.950 . S
C1542 C1540 1.391 . S
C1542 C1543 1.400 . S
C1543 C1542 1.400 . S
C1543 C1544 1.398 . S
C1543 C1549 1.491 . S
C1544 H1535 0.950 . S
C1544 C1543 1.398 . S
C1544 C1545 1.391 . S
C1545 H1533 0.950 . S
C1545 C1541 1.393 . S
C1545 C1544 1.391 . S
C1546 H1536 0.950 . S
C1546 C1547 1.386 . S
C1546 C1548 1.391 . S
C1547 C1546 1.386 . S
C1547 C1551 1.393 . S
C1548 H1537 0.950 . S
C1548 C1546 1.391 . S
C1548 C1549 1.400 . S
C1549 C1543 1.491 . S
C1549 C1548 1.400 . S
C1549 C1550 1.398 . S
C1550 H1538 0.950 . S
C1550 C1549 1.398 . S
C1550 C1551 1.391 . S
C1551 H1539 0.950 . S
C1551 C1547 1.393 . S
C1551 C1550 1.391 . S
H1552 C1560 0.950 1_556 S
H1553 C1565 0.950 . S
H1554 C1562 0.950 . S
H1555 C1564 0.950 . S
H1556 C1566 0.950 . S
H1557 C1568 0.950 . S
H1558 C1570 0.950 . S
H1559 C1571 0.950 . S
C1560 H1552 0.950 1_554 S
C1560 C1561 1.386 . S
C1560 C1562 1.391 . S
C1561 C1560 1.386 . S
C1561 C1565 1.393 . S
C1562 H1554 0.950 . S
C1562 C1560 1.391 . S
C1562 C1563 1.400 . S
C1563 C1562 1.400 . S
C1563 C1564 1.398 . S
C1563 C1569 1.491 . S
C1564 H1555 0.950 . S
C1564 C1563 1.398 . S
C1564 C1565 1.391 . S
C1565 H1553 0.950 . S
C1565 C1561 1.393 . S
C1565 C1564 1.391 . S
C1566 H1556 0.950 . S
C1566 C1567 1.386 . S
C1566 C1568 1.391 . S
C1567 C1566 1.386 . S
C1567 C1571 1.393 . S
C1568 H1557 0.950 . S
C1568 C1566 1.391 . S
C1568 C1569 1.400 . S
C1569 C1563 1.491 . S
C1569 C1568 1.400 . S
C1569 C1570 1.398 . S
C1570 H1558 0.950 . S
C1570 C1569 1.398 . S
C1570 C1571 1.391 . S
C1571 H1559 0.950 . S
C1571 C1567 1.393 . S
C1571 C1570 1.391 . S
H1572 C1580 0.950 1_554 S
H1573 C1585 0.950 . S
H1574 C1582 0.950 . S
H1575 C1584 0.950 . S
H1576 C1586 0.950 . S
H1577 C1588 0.950 . S
H1578 C1590 0.950 . S
H1579 C1591 0.950 . S
C1580 H1572 0.950 1_556 S
C1580 C1581 1.386 . S
C1580 C1582 1.391 . S
C1581 C1580 1.386 . S
C1581 C1585 1.393 . S
C1582 H1574 0.950 . S
C1582 C1580 1.391 . S
C1582 C1583 1.400 . S
C1583 C1582 1.400 . S
C1583 C1584 1.398 . S
C1583 C1589 1.491 . S
C1584 H1575 0.950 . S
C1584 C1583 1.398 . S
C1584 C1585 1.391 . S
C1585 H1573 0.950 . S
C1585 C1581 1.393 . S
C1585 C1584 1.391 . S
C1586 H1576 0.950 . S
C1586 C1587 1.386 . S
C1586 C1588 1.391 . S
C1587 C1586 1.386 . S
C1587 C1591 1.393 . S
C1588 H1577 0.950 . S
C1588 C1586 1.391 . S
C1588 C1589 1.400 . S
C1589 C1583 1.491 . S
C1589 C1588 1.400 . S
C1589 C1590 1.398 . S
C1590 H1578 0.950 . S
C1590 C1589 1.398 . S
C1590 C1591 1.391 . S
C1591 H1579 0.950 . S
C1591 C1587 1.393 . S
C1591 C1590 1.391 . S
H1592 C1600 0.950 . S
H1593 C1605 0.950 . S
H1594 C1602 0.950 . S
H1595 C1604 0.950 . S
H1596 C1606 0.950 . S
H1597 C1608 0.950 . S
H1598 C1610 0.950 . S
H1599 C1611 0.950 . S
C1600 H1592 0.950 . S
C1600 C1601 1.386 . S
C1600 C1602 1.391 . S
C1601 C1600 1.386 . S
C1601 C1605 1.393 . S
C1602 H1594 0.950 . S
C1602 C1600 1.391 . S
C1602 C1603 1.400 . S
C1603 C1602 1.400 . S
C1603 C1604 1.398 . S
C1603 C1609 1.491 . S
C1604 H1595 0.950 . S
C1604 C1603 1.398 . S
C1604 C1605 1.391 . S
C1605 H1593 0.950 . S
C1605 C1601 1.393 . S
C1605 C1604 1.391 . S
C1606 H1596 0.950 . S
C1606 C1607 1.386 . S
C1606 C1608 1.391 . S
C1607 C1606 1.386 . S
C1607 C1611 1.393 . S
C1608 H1597 0.950 . S
C1608 C1606 1.391 . S
C1608 C1609 1.400 . S
C1609 C1603 1.491 . S
C1609 C1608 1.400 . S
C1609 C1610 1.398 . S
C1610 H1598 0.950 . S
C1610 C1609 1.398 . S
C1610 C1611 1.391 . S
C1611 H1599 0.950 . S
C1611 C1607 1.393 . S
C1611 C1610 1.391 . S
H1612 C1620 0.950 . S
H1613 C1625 0.950 . S
H1614 C1622 0.950 . S
H1615 C1624 0.950 . S
H1616 C1626 0.950 . S
H1617 C1628 0.950 . S
H1618 C1630 0.950 . S
H1619 C1631 0.950 . S
C1620 H1612 0.950 . S
C1620 C1621 1.386 . S
C1620 C1622 1.391 . S
C1621 C1620 1.386 . S
C1621 C1625 1.393 . S
C1622 H1614 0.950 . S
C1622 C1620 1.391 . S
C1622 C1623 1.400 . S
C1623 C1622 1.400 . S
C1623 C1624 1.398 . S
C1623 C1629 1.491 . S
C1624 H1615 0.950 . S
C1624 C1623 1.398 . S
C1624 C1625 1.391 . S
C1625 H1613 0.950 . S
C1625 C1621 1.393 . S
C1625 C1624 1.391 . S
C1626 H1616 0.950 . S
C1626 C1627 1.386 . S
C1626 C1628 1.391 . S
C1627 C1626 1.386 . S
C1627 C1631 1.393 . S
C1628 H1617 0.950 . S
C1628 C1626 1.391 . S
C1628 C1629 1.400 . S
C1629 C1623 1.491 . S
C1629 C1628 1.400 . S
C1629 C1630 1.398 . S
C1630 H1618 0.950 . S
C1630 C1629 1.398 . S
C1630 C1631 1.391 . S
C1631 H1619 0.950 . S
C1631 C1627 1.393 . S
C1631 C1630 1.391 . S
H1632 C1640 0.950 . S
H1633 C1645 0.950 . S
H1634 C1642 0.950 . S
H1635 C1644 0.950 . S
H1636 C1646 0.950 . S
H1637 C1648 0.950 . S
H1638 C1650 0.950 . S
H1639 C1651 0.950 . S
C1640 H1632 0.950 . S
C1640 C1641 1.386 . S
C1640 C1642 1.391 . S
C1641 C1640 1.386 . S
C1641 C1645 1.393 . S
C1642 H1634 0.950 . S
C1642 C1640 1.391 . S
C1642 C1643 1.400 . S
C1643 C1642 1.400 . S
C1643 C1644 1.398 . S
C1643 C1649 1.491 . S
C1644 H1635 0.950 . S
C1644 C1643 1.398 . S
C1644 C1645 1.391 . S
C1645 H1633 0.950 . S
C1645 C1641 1.393 . S
C1645 C1644 1.391 . S
C1646 H1636 0.950 . S
C1646 C1647 1.386 . S
C1646 C1648 1.391 . S
C1647 C1646 1.386 . S
C1647 C1651 1.393 . S
C1648 H1637 0.950 . S
C1648 C1646 1.391 . S
C1648 C1649 1.400 . S
C1649 C1643 1.491 . S
C1649 C1648 1.400 . S
C1649 C1650 1.398 . S
C1650 H1638 0.950 . S
C1650 C1649 1.398 . S
C1650 C1651 1.391 . S
C1651 H1639 0.950 . S
C1651 C1647 1.393 . S
C1651 C1650 1.391 . S
H1652 C1660 0.950 . S
H1653 C1665 0.950 . S
H1654 C1662 0.950 . S
H1655 C1664 0.950 . S
H1656 C1666 0.950 . S
H1657 C1668 0.950 . S
H1658 C1670 0.950 . S
H1659 C1671 0.950 . S
C1660 H1652 0.950 . S
C1660 C1661 1.386 . S
C1660 C1662 1.391 . S
C1661 C1660 1.386 . S
C1661 C1665 1.393 . S
C1662 H1654 0.950 . S
C1662 C1660 1.391 . S
C1662 C1663 1.400 . S
C1663 C1662 1.400 . S
C1663 C1664 1.398 . S
C1663 C1669 1.491 . S
C1664 H1655 0.950 . S
C1664 C1663 1.398 . S
C1664 C1665 1.391 . S
C1665 H1653 0.950 . S
C1665 C1661 1.393 . S
C1665 C1664 1.391 . S
C1666 H1656 0.950 . S
C1666 C1667 1.386 . S
C1666 C1668 1.391 . S
C1667 C1666 1.386 . S
C1667 C1671 1.393 . S
C1668 H1657 0.950 . S
C1668 C1666 1.391 . S
C1668 C1669 1.400 . S
C1669 C1663 1.491 . S
C1669 C1668 1.400 . S
C1669 C1670 1.398 . S
C1670 H1658 0.950 . S
C1670 C1669 1.398 . S
C1670 C1671 1.391 . S
C1671 H1659 0.950 . S
C1671 C1667 1.393 . S
C1671 C1670 1.391 . S
H1672 C1680 0.950 . S
H1673 C1685 0.950 . S
H1674 C1682 0.950 . S
H1675 C1684 0.950 . S
H1676 C1686 0.950 . S
H1677 C1688 0.950 . S
H1678 C1690 0.950 . S
H1679 C1691 0.950 . S
C1680 H1672 0.950 . S
C1680 C1681 1.386 . S
C1680 C1682 1.391 . S
C1681 C1680 1.386 . S
C1681 C1685 1.393 . S
C1682 H1674 0.950 . S
C1682 C1680 1.391 . S
C1682 C1683 1.400 . S
C1683 C1682 1.400 . S
C1683 C1684 1.398 . S
C1683 C1689 1.491 . S
C1684 H1675 0.950 . S
C1684 C1683 1.398 . S
C1684 C1685 1.391 . S
C1685 H1673 0.950 . S
C1685 C1681 1.393 . S
C1685 C1684 1.391 . S
C1686 H1676 0.950 . S
C1686 C1687 1.386 . S
C1686 C1688 1.391 . S
C1687 C1686 1.386 . S
C1687 C1691 1.393 . S
C1688 H1677 0.950 . S
C1688 C1686 1.391 . S
C1688 C1689 1.400 . S
C1689 C1683 1.491 . S
C1689 C1688 1.400 . S
C1689 C1690 1.398 . S
C1690 H1678 0.950 . S
C1690 C1689 1.398 . S
C1690 C1691 1.391 . S
C1691 H1679 0.950 . S
C1691 C1687 1.393 . S
C1691 C1690 1.391 . S
H1692 C1700 0.950 . S
H1693 C1705 0.950 . S
H1694 C1702 0.950 . S
H1695 C1704 0.950 . S
H1696 C1706 0.950 . S
H1697 C1708 0.950 . S
H1698 C1710 0.950 . S
H1699 C1711 0.950 . S
C1700 H1692 0.950 . S
C1700 C1701 1.386 . S
C1700 C1702 1.391 . S
C1701 C1700 1.386 . S
C1701 C1705 1.393 . S
C1702 H1694 0.950 . S
C1702 C1700 1.391 . S
C1702 C1703 1.400 . S
C1703 C1702 1.400 . S
C1703 C1704 1.398 . S
C1703 C1709 1.491 . S
C1704 H1695 0.950 . S
C1704 C1703 1.398 . S
C1704 C1705 1.391 . S
C1705 H1693 0.950 . S
C1705 C1701 1.393 . S
C1705 C1704 1.391 . S
C1706 H1696 0.950 . S
C1706 C1707 1.386 . S
C1706 C1708 1.391 . S
C1707 C1706 1.386 . S
C1707 C1711 1.393 . S
C1708 H1697 0.950 . S
C1708 C1706 1.391 . S
C1708 C1709 1.400 . S
C1709 C1703 1.491 . S
C1709 C1708 1.400 . S
C1709 C1710 1.398 . S
C1710 H1698 0.950 . S
C1710 C1709 1.398 . S
C1710 C1711 1.391 . S
C1711 H1699 0.950 . S
C1711 C1707 1.393 . S
C1711 C1710 1.391 . S
H1712 C1720 0.950 . S
H1713 C1725 0.950 . S
H1714 C1722 0.950 . S
H1715 C1724 0.950 . S
H1716 C1726 0.950 . S
H1717 C1728 0.950 . S
H1718 C1730 0.950 . S
H1719 C1731 0.950 . S
C1720 H1712 0.950 . S
C1720 C1721 1.386 . S
C1720 C1722 1.391 . S
C1721 C1720 1.386 . S
C1721 C1725 1.393 . S
C1722 H1714 0.950 . S
C1722 C1720 1.391 . S
C1722 C1723 1.400 . S
C1723 C1722 1.400 . S
C1723 C1724 1.398 . S
C1723 C1729 1.491 . S
C1724 H1715 0.950 . S
C1724 C1723 1.398 . S
C1724 C1725 1.391 . S
C1725 H1713 0.950 . S
C1725 C1721 1.393 . S
C1725 C1724 1.391 . S
C1726 H1716 0.950 . S
C1726 C1727 1.386 . S
C1726 C1728 1.391 . S
C1727 C1726 1.386 . S
C1727 C1731 1.393 . S
C1728 H1717 0.950 . S
C1728 C1726 1.391 . S
C1728 C1729 1.400 . S
C1729 C1723 1.491 . S
C1729 C1728 1.400 . S
C1729 C1730 1.398 . S
C1730 H1718 0.950 . S
C1730 C1729 1.398 . S
C1730 C1731 1.391 . S
C1731 H1719 0.950 . S
C1731 C1727 1.393 . S
C1731 C1730 1.391 . S
H1732 C1740 0.950 . S
H1733 C1745 0.950 . S
H1734 C1742 0.950 . S
H1735 C1744 0.950 . S
H1736 C1746 0.950 . S
H1737 C1748 0.950 . S
H1738 C1750 0.950 . S
H1739 C1751 0.950 . S
C1740 H1732 0.950 . S
C1740 C1741 1.386 . S
C1740 C1742 1.391 . S
C1741 C1740 1.386 . S
C1741 C1745 1.393 . S
C1742 H1734 0.950 . S
C1742 C1740 1.391 . S
C1742 C1743 1.400 . S
C1743 C1742 1.400 . S
C1743 C1744 1.398 . S
C1743 C1749 1.491 . S
C1744 H1735 0.950 . S
C1744 C1743 1.398 . S
C1744 C1745 1.391 . S
C1745 H1733 0.950 . S
C1745 C1741 1.393 . S
C1745 C1744 1.391 . S
C1746 H1736 0.950 . S
C1746 C1747 1.386 . S
C1746 C1748 1.391 . S
C1747 C1746 1.386 . S
C1747 C1751 1.393 . S
C1748 H1737 0.950 . S
C1748 C1746 1.391 . S
C1748 C1749 1.400 . S
C1749 C1743 1.491 . S
C1749 C1748 1.400 . S
C1749 C1750 1.398 . S
C1750 H1738 0.950 . S
C1750 C1749 1.398 . S
C1750 C1751 1.391 . S
C1751 H1739 0.950 . S
C1751 C1747 1.393 . S
C1751 C1750 1.391 . S
H1752 C1760 0.950 1_556 S
H1753 C1765 0.950 . S
H1754 C1762 0.950 . S
H1755 C1764 0.950 . S
H1756 C1766 0.950 . S
H1757 C1768 0.950 . S
H1758 C1770 0.950 . S
H1759 C1771 0.950 . S
C1760 H1752 0.950 1_554 S
C1760 C1761 1.386 . S
C1760 C1762 1.391 . S
C1761 C1760 1.386 . S
C1761 C1765 1.393 . S
C1762 H1754 0.950 . S
C1762 C1760 1.391 . S
C1762 C1763 1.400 . S
C1763 C1762 1.400 . S
C1763 C1764 1.398 . S
C1763 C1769 1.491 . S
C1764 H1755 0.950 . S
C1764 C1763 1.398 . S
C1764 C1765 1.391 . S
C1765 H1753 0.950 . S
C1765 C1761 1.393 . S
C1765 C1764 1.391 . S
C1766 H1756 0.950 . S
C1766 C1767 1.386 . S
C1766 C1768 1.391 . S
C1767 C1766 1.386 . S
C1767 C1771 1.393 . S
C1768 H1757 0.950 . S
C1768 C1766 1.391 . S
C1768 C1769 1.400 . S
C1769 C1763 1.491 . S
C1769 C1768 1.400 . S
C1769 C1770 1.398 . S
C1770 H1758 0.950 . S
C1770 C1769 1.398 . S
C1770 C1771 1.391 . S
C1771 H1759 0.950 . S
C1771 C1767 1.393 . S
C1771 C1770 1.391 . S
H1772 C1780 0.950 . S
H1773 C1785 0.950 . S
H1774 C1782 0.950 . S
H1775 C1784 0.950 . S
H1776 C1786 0.950 . S
H1777 C1788 0.950 . S
H1778 C1790 0.950 . S
H1779 C1791 0.950 1_554 S
C1780 H1772 0.950 . S
C1780 C1781 1.386 . S
C1780 C1782 1.391 . S
C1781 C1780 1.386 . S
C1781 C1785 1.393 . S
C1782 H1774 0.950 . S
C1782 C1780 1.391 . S
C1782 C1783 1.400 . S
C1783 C1782 1.400 . S
C1783 C1784 1.398 . S
C1783 C1789 1.491 . S
C1784 H1775 0.950 . S
C1784 C1783 1.398 . S
C1784 C1785 1.391 . S
C1785 H1773 0.950 . S
C1785 C1781 1.393 . S
C1785 C1784 1.391 . S
C1786 H1776 0.950 . S
C1786 C1787 1.386 . S
C1786 C1788 1.391 . S
C1787 C1786 1.386 . S
C1787 C1791 1.393 . S
C1788 H1777 0.950 . S
C1788 C1786 1.391 . S
C1788 C1789 1.400 . S
C1789 C1783 1.491 . S
C1789 C1788 1.400 . S
C1789 C1790 1.398 . S
C1790 H1778 0.950 . S
C1790 C1789 1.398 . S
C1790 C1791 1.391 . S
C1791 H1779 0.950 1_556 S
C1791 C1787 1.393 . S
C1791 C1790 1.391 . S
H1792 C1800 0.950 . S
H1793 C1805 0.950 . S
H1794 C1802 0.950 . S
H1795 C1804 0.950 . S
H1796 C1806 0.950 . S
H1797 C1808 0.950 . S
H1798 C1810 0.950 . S
H1799 C1811 0.950 . S
C1800 H1792 0.950 . S
C1800 C1801 1.386 . S
C1800 C1802 1.391 . S
C1801 C1800 1.386 . S
C1801 C1805 1.393 . S
C1802 H1794 0.950 . S
C1802 C1800 1.391 . S
C1802 C1803 1.400 . S
C1803 C1802 1.400 . S
C1803 C1804 1.398 . S
C1803 C1809 1.491 . S
C1804 H1795 0.950 . S
C1804 C1803 1.398 . S
C1804 C1805 1.391 . S
C1805 H1793 0.950 . S
C1805 C1801 1.393 . S
C1805 C1804 1.391 . S
C1806 H1796 0.950 . S
C1806 C1807 1.386 . S
C1806 C1808 1.391 . S
C1807 C1806 1.386 . S
C1807 C1811 1.393 . S
C1808 H1797 0.950 . S
C1808 C1806 1.391 . S
C1808 C1809 1.400 . S
C1809 C1803 1.491 . S
C1809 C1808 1.400 . S
C1809 C1810 1.398 . S
C1810 H1798 0.950 . S
C1810 C1809 1.398 . S
C1810 C1811 1.391 . S
C1811 H1799 0.950 . S
C1811 C1807 1.393 . S
C1811 C1810 1.391 . S
H1812 C1820 0.950 . S
H1813 C1825 0.950 . S
H1814 C1822 0.950 . S
H1815 C1824 0.950 . S
H1816 C1826 0.950 . S
H1817 C1828 0.950 . S
H1818 C1830 0.950 . S
H1819 C1831 0.950 . S
C1820 H1812 0.950 . S
C1820 C1821 1.386 . S
C1820 C1822 1.391 . S
C1821 C1820 1.386 . S
C1821 C1825 1.393 . S
C1822 H1814 0.950 . S
C1822 C1820 1.391 . S
C1822 C1823 1.400 . S
C1823 C1822 1.400 . S
C1823 C1824 1.398 . S
C1823 C1829 1.491 1_655 S
C1824 H1815 0.950 . S
C1824 C1823 1.398 . S
C1824 C1825 1.391 . S
C1825 H1813 0.950 . S
C1825 C1821 1.393 . S
C1825 C1824 1.391 . S
C1826 H1816 0.950 . S
C1826 C1827 1.386 . S
C1826 C1828 1.391 . S
C1827 C1826 1.386 . S
C1827 C1831 1.393 . S
C1828 H1817 0.950 . S
C1828 C1826 1.391 . S
C1828 C1829 1.400 . S
C1829 C1823 1.491 1_455 S
C1829 C1828 1.400 . S
C1829 C1830 1.398 . S
C1830 H1818 0.950 . S
C1830 C1829 1.398 . S
C1830 C1831 1.391 . S
C1831 H1819 0.950 . S
C1831 C1827 1.393 . S
C1831 C1830 1.391 . S
H1832 C1840 0.950 . S
H1833 C1845 0.950 . S
H1834 C1842 0.950 . S
H1835 C1844 0.950 . S
H1836 C1846 0.950 . S
H1837 C1848 0.950 . S
H1838 C1850 0.950 . S
H1839 C1851 0.950 . S
C1840 H1832 0.950 . S
C1840 C1841 1.386 . S
C1840 C1842 1.391 . S
C1841 C1840 1.386 . S
C1841 C1845 1.393 . S
C1842 H1834 0.950 . S
C1842 C1840 1.391 . S
C1842 C1843 1.400 . S
C1843 C1842 1.400 . S
C1843 C1844 1.398 . S
C1843 C1849 1.491 . S
C1844 H1835 0.950 . S
C1844 C1843 1.398 . S
C1844 C1845 1.391 . S
C1845 H1833 0.950 . S
C1845 C1841 1.393 . S
C1845 C1844 1.391 . S
C1846 H1836 0.950 . S
C1846 C1847 1.386 . S
C1846 C1848 1.391 . S
C1847 C1846 1.386 . S
C1847 C1851 1.393 . S
C1848 H1837 0.950 . S
C1848 C1846 1.391 . S
C1848 C1849 1.400 . S
C1849 C1843 1.491 . S
C1849 C1848 1.400 . S
C1849 C1850 1.398 . S
C1850 H1838 0.950 . S
C1850 C1849 1.398 . S
C1850 C1851 1.391 . S
C1851 H1839 0.950 . S
C1851 C1847 1.393 . S
C1851 C1850 1.391 . S
H1852 C1860 0.950 . S
H1853 C1865 0.950 . S
H1854 C1862 0.950 . S
H1855 C1864 0.950 . S
H1856 C1866 0.950 . S
H1857 C1868 0.950 . S
H1858 C1870 0.950 . S
H1859 C1871 0.950 . S
C1860 H1852 0.950 . S
C1860 C1861 1.386 . S
C1860 C1862 1.391 . S
C1861 C1860 1.386 . S
C1861 C1865 1.393 . S
C1862 H1854 0.950 . S
C1862 C1860 1.391 . S
C1862 C1863 1.400 . S
C1863 C1862 1.400 . S
C1863 C1864 1.398 . S
C1863 C1869 1.491 . S
C1864 H1855 0.950 . S
C1864 C1863 1.398 . S
C1864 C1865 1.391 . S
C1865 H1853 0.950 . S
C1865 C1861 1.393 . S
C1865 C1864 1.391 . S
C1866 H1856 0.950 . S
C1866 C1867 1.386 . S
C1866 C1868 1.391 . S
C1867 C1866 1.386 . S
C1867 C1871 1.393 . S
C1868 H1857 0.950 . S
C1868 C1866 1.391 . S
C1868 C1869 1.400 . S
C1869 C1863 1.491 . S
C1869 C1868 1.400 . S
C1869 C1870 1.398 . S
C1870 H1858 0.950 . S
C1870 C1869 1.398 . S
C1870 C1871 1.391 . S
C1871 H1859 0.950 . S
C1871 C1867 1.393 . S
C1871 C1870 1.391 . S
H1872 C1880 0.950 . S
H1873 C1885 0.950 . S
H1874 C1882 0.950 . S
H1875 C1884 0.950 . S
H1876 C1886 0.950 . S
H1877 C1888 0.950 . S
H1878 C1890 0.950 . S
H1879 C1891 0.950 . S
C1880 H1872 0.950 . S
C1880 C1881 1.386 . S
C1880 C1882 1.391 . S
C1881 C1880 1.386 . S
C1881 C1885 1.393 . S
C1882 H1874 0.950 . S
C1882 C1880 1.391 . S
C1882 C1883 1.400 . S
C1883 C1882 1.400 . S
C1883 C1884 1.398 . S
C1883 C1889 1.491 . S
C1884 H1875 0.950 . S
C1884 C1883 1.398 . S
C1884 C1885 1.391 . S
C1885 H1873 0.950 . S
C1885 C1881 1.393 . S
C1885 C1884 1.391 . S
C1886 H1876 0.950 . S
C1886 C1887 1.386 . S
C1886 C1888 1.391 . S
C1887 C1886 1.386 . S
C1887 C1891 1.393 . S
C1888 H1877 0.950 . S
C1888 C1886 1.391 . S
C1888 C1889 1.400 . S
C1889 C1883 1.491 . S
C1889 C1888 1.400 . S
C1889 C1890 1.398 . S
C1890 H1878 0.950 . S
C1890 C1889 1.398 . S
C1890 C1891 1.391 . S
C1891 H1879 0.950 . S
C1891 C1887 1.393 . S
C1891 C1890 1.391 . S
H1892 C1900 0.950 . S
H1893 C1905 0.950 . S
H1894 C1902 0.950 . S
H1895 C1904 0.950 . S
H1896 C1906 0.950 . S
H1897 C1908 0.950 . S
H1898 C1910 0.950 . S
H1899 C1911 0.950 . S
C1900 H1892 0.950 . S
C1900 C1901 1.386 . S
C1900 C1902 1.391 . S
C1901 C1900 1.386 . S
C1901 C1905 1.393 . S
C1902 H1894 0.950 . S
C1902 C1900 1.391 . S
C1902 C1903 1.400 . S
C1903 C1902 1.400 . S
C1903 C1904 1.398 . S
C1903 C1909 1.491 . S
C1904 H1895 0.950 . S
C1904 C1903 1.398 . S
C1904 C1905 1.391 . S
C1905 H1893 0.950 . S
C1905 C1901 1.393 . S
C1905 C1904 1.391 . S
C1906 H1896 0.950 . S
C1906 C1907 1.386 . S
C1906 C1908 1.391 . S
C1907 C1906 1.386 . S
C1907 C1911 1.393 . S
C1908 H1897 0.950 . S
C1908 C1906 1.391 . S
C1908 C1909 1.400 . S
C1909 C1903 1.491 . S
C1909 C1908 1.400 . S
C1909 C1910 1.398 . S
C1910 H1898 0.950 . S
C1910 C1909 1.398 . S
C1910 C1911 1.391 . S
C1911 H1899 0.950 . S
C1911 C1907 1.393 . S
C1911 C1910 1.391 . S
H1912 C1920 0.950 . S
H1913 C1925 0.950 . S
H1914 C1922 0.950 . S
H1915 C1924 0.950 . S
H1916 C1926 0.950 . S
H1917 C1928 0.950 . S
H1918 C1930 0.950 . S
H1919 C1931 0.950 . S
C1920 H1912 0.950 . S
C1920 C1921 1.386 . S
C1920 C1922 1.391 . S
C1921 C1920 1.386 . S
C1921 C1925 1.393 . S
C1922 H1914 0.950 . S
C1922 C1920 1.391 . S
C1922 C1923 1.400 . S
C1923 C1922 1.400 . S
C1923 C1924 1.398 . S
C1923 C1929 1.491 . S
C1924 H1915 0.950 . S
C1924 C1923 1.398 . S
C1924 C1925 1.391 . S
C1925 H1913 0.950 . S
C1925 C1921 1.393 . S
C1925 C1924 1.391 . S
C1926 H1916 0.950 . S
C1926 C1927 1.386 . S
C1926 C1928 1.391 . S
C1927 C1926 1.386 . S
C1927 C1931 1.393 . S
C1928 H1917 0.950 . S
C1928 C1926 1.391 . S
C1928 C1929 1.400 . S
C1929 C1923 1.491 . S
C1929 C1928 1.400 . S
C1929 C1930 1.398 . S
C1930 H1918 0.950 . S
C1930 C1929 1.398 . S
C1930 C1931 1.391 . S
C1931 H1919 0.950 . S
C1931 C1927 1.393 . S
C1931 C1930 1.391 . S
H1932 C1940 0.950 . S
H1933 C1945 0.950 . S
H1934 C1942 0.950 . S
H1935 C1944 0.950 . S
H1936 C1946 0.950 . S
H1937 C1948 0.950 . S
H1938 C1950 0.950 . S
H1939 C1951 0.950 . S
C1940 H1932 0.950 . S
C1940 C1941 1.386 . S
C1940 C1942 1.391 . S
C1941 C1940 1.386 . S
C1941 C1945 1.393 . S
C1942 H1934 0.950 . S
C1942 C1940 1.391 . S
C1942 C1943 1.400 . S
C1943 C1942 1.400 . S
C1943 C1944 1.398 . S
C1943 C1949 1.491 1_655 S
C1944 H1935 0.950 . S
C1944 C1943 1.398 . S
C1944 C1945 1.391 . S
C1945 H1933 0.950 . S
C1945 C1941 1.393 . S
C1945 C1944 1.391 . S
C1946 H1936 0.950 . S
C1946 C1947 1.386 . S
C1946 C1948 1.391 . S
C1947 C1946 1.386 . S
C1947 C1951 1.393 . S
C1948 H1937 0.950 . S
C1948 C1946 1.391 . S
C1948 C1949 1.400 . S
C1949 C1943 1.491 1_455 S
C1949 C1948 1.400 . S
C1949 C1950 1.398 . S
C1950 H1938 0.950 . S
C1950 C1949 1.398 . S
C1950 C1951 1.391 . S
C1951 H1939 0.950 . S
C1951 C1947 1.393 . S
C1951 C1950 1.391 . S
H1952 C1960 0.950 . S
H1953 C1965 0.950 . S
H1954 C1962 0.950 . S
H1955 C1964 0.950 . S
H1956 C1966 0.950 . S
H1957 C1968 0.950 . S
H1958 C1970 0.950 . S
H1959 C1971 0.950 . S
C1960 H1952 0.950 . S
C1960 C1961 1.386 . S
C1960 C1962 1.391 . S
C1961 C1960 1.386 . S
C1961 C1965 1.393 . S
C1962 H1954 0.950 . S
C1962 C1960 1.391 . S
C1962 C1963 1.400 . S
C1963 C1962 1.400 . S
C1963 C1964 1.398 . S
C1963 C1969 1.491 . S
C1964 H1955 0.950 . S
C1964 C1963 1.398 . S
C1964 C1965 1.391 . S
C1965 H1953 0.950 . S
C1965 C1961 1.393 . S
C1965 C1964 1.391 . S
C1966 H1956 0.950 . S
C1966 C1967 1.386 . S
C1966 C1968 1.391 . S
C1967 C1966 1.386 . S
C1967 C1971 1.393 . S
C1968 H1957 0.950 . S
C1968 C1966 1.391 . S
C1968 C1969 1.400 . S
C1969 C1963 1.491 . S
C1969 C1968 1.400 . S
C1969 C1970 1.398 . S
C1970 H1958 0.950 . S
C1970 C1969 1.398 . S
C1970 C1971 1.391 . S
C1971 H1959 0.950 . S
C1971 C1967 1.393 . S
C1971 C1970 1.391 . S
H1972 C1980 0.950 . S
H1973 C1985 0.950 . S
H1974 C1982 0.950 . S
H1975 C1984 0.950 . S
H1976 C1986 0.950 . S
H1977 C1988 0.950 . S
H1978 C1990 0.950 . S
H1979 C1991 0.950 . S
C1980 H1972 0.950 . S
C1980 C1981 1.386 . S
C1980 C1982 1.391 . S
C1981 C1980 1.386 . S
C1981 C1985 1.393 . S
C1982 H1974 0.950 . S
C1982 C1980 1.391 . S
C1982 C1983 1.400 . S
C1983 C1982 1.400 . S
C1983 C1984 1.398 . S
C1983 C1989 1.491 . S
C1984 H1975 0.950 . S
C1984 C1983 1.398 . S
C1984 C1985 1.391 . S
C1985 H1973 0.950 . S
C1985 C1981 1.393 . S
C1985 C1984 1.391 . S
C1986 H1976 0.950 . S
C1986 C1987 1.386 . S
C1986 C1988 1.391 . S
C1987 C1986 1.386 . S
C1987 C1991 1.393 . S
C1988 H1977 0.950 . S
C1988 C1986 1.391 . S
C1988 C1989 1.400 . S
C1989 C1983 1.491 . S
C1989 C1988 1.400 . S
C1989 C1990 1.398 . S
C1990 H1978 0.950 . S
C1990 C1989 1.398 . S
C1990 C1991 1.391 . S
C1991 H1979 0.950 . S
C1991 C1987 1.393 . S
C1991 C1990 1.391 . S
H1992 C2000 0.950 . S
H1993 C2005 0.950 . S
H1994 C2002 0.950 . S
H1995 C2004 0.950 . S
H1996 C2006 0.950 . S
H1997 C2008 0.950 . S
H1998 C2010 0.950 . S
H1999 C2011 0.950 . S
C2000 H1992 0.950 . S
C2000 C2001 1.386 . S
C2000 C2002 1.391 . S
C2001 C2000 1.386 . S
C2001 C2005 1.393 . S
C2002 H1994 0.950 . S
C2002 C2000 1.391 . S
C2002 C2003 1.400 . S
C2003 C2002 1.400 . S
C2003 C2004 1.398 . S
C2003 C2009 1.491 . S
C2004 H1995 0.950 . S
C2004 C2003 1.398 . S
C2004 C2005 1.391 . S
C2005 H1993 0.950 . S
C2005 C2001 1.393 . S
C2005 C2004 1.391 . S
C2006 H1996 0.950 . S
C2006 C2007 1.386 . S
C2006 C2008 1.391 . S
C2007 C2006 1.386 . S
C2007 C2011 1.393 . S
C2008 H1997 0.950 . S
C2008 C2006 1.391 . S
C2008 C2009 1.400 . S
C2009 C2003 1.491 . S
C2009 C2008 1.400 . S
C2009 C2010 1.398 . S
C2010 H1998 0.950 . S
C2010 C2009 1.398 . S
C2010 C2011 1.391 . S
C2011 H1999 0.950 . S
C2011 C2007 1.393 . S
C2011 C2010 1.391 . S
H2012 C2020 0.950 . S
H2013 C2025 0.950 . S
H2014 C2022 0.950 . S
H2015 C2024 0.950 . S
H2016 C2026 0.950 . S
H2017 C2028 0.950 . S
H2018 C2030 0.950 . S
H2019 C2031 0.950 . S
C2020 H2012 0.950 . S
C2020 C2021 1.386 . S
C2020 C2022 1.391 . S
C2021 C2020 1.386 . S
C2021 C2025 1.393 . S
C2022 H2014 0.950 . S
C2022 C2020 1.391 . S
C2022 C2023 1.400 . S
C2023 C2022 1.400 . S
C2023 C2024 1.398 . S
C2023 C2029 1.491 . S
C2024 H2015 0.950 . S
C2024 C2023 1.398 . S
C2024 C2025 1.391 . S
C2025 H2013 0.950 . S
C2025 C2021 1.393 . S
C2025 C2024 1.391 . S
C2026 H2016 0.950 . S
C2026 C2027 1.386 . S
C2026 C2028 1.391 . S
C2027 C2026 1.386 . S
C2027 C2031 1.393 . S
C2028 H2017 0.950 . S
C2028 C2026 1.391 . S
C2028 C2029 1.400 . S
C2029 C2023 1.491 . S
C2029 C2028 1.400 . S
C2029 C2030 1.398 . S
C2030 H2018 0.950 . S
C2030 C2029 1.398 . S
C2030 C2031 1.391 . S
C2031 H2019 0.950 . S
C2031 C2027 1.393 . S
C2031 C2030 1.391 . S
H2032 C2040 0.950 . S
H2033 C2045 0.950 . S
H2034 C2042 0.950 . S
H2035 C2044 0.950 . S
H2036 C2046 0.950 . S
H2037 C2048 0.950 . S
H2038 C2050 0.950 . S
H2039 C2051 0.950 . S
C2040 H2032 0.950 . S
C2040 C2041 1.386 . S
C2040 C2042 1.391 . S
C2041 C2040 1.386 . S
C2041 C2045 1.393 . S
C2042 H2034 0.950 . S
C2042 C2040 1.391 . S
C2042 C2043 1.400 . S
C2043 C2042 1.400 . S
C2043 C2044 1.398 . S
C2043 C2049 1.491 . S
C2044 H2035 0.950 . S
C2044 C2043 1.398 . S
C2044 C2045 1.391 . S
C2045 H2033 0.950 . S
C2045 C2041 1.393 . S
C2045 C2044 1.391 . S
C2046 H2036 0.950 . S
C2046 C2047 1.386 . S
C2046 C2048 1.391 . S
C2047 C2046 1.386 . S
C2047 C2051 1.393 . S
C2048 H2037 0.950 . S
C2048 C2046 1.391 . S
C2048 C2049 1.400 . S
C2049 C2043 1.491 . S
C2049 C2048 1.400 . S
C2049 C2050 1.398 . S
C2050 H2038 0.950 . S
C2050 C2049 1.398 . S
C2050 C2051 1.391 . S
C2051 H2039 0.950 . S
C2051 C2047 1.393 . S
C2051 C2050 1.391 . S
H2052 C2060 0.950 . S
H2053 C2065 0.950 . S
H2054 C2062 0.950 . S
H2055 C2064 0.950 . S
H2056 C2066 0.950 . S
H2057 C2068 0.950 . S
H2058 C2070 0.950 . S
H2059 C2071 0.950 . S
C2060 H2052 0.950 . S
C2060 C2061 1.386 . S
C2060 C2062 1.391 . S
C2061 C2060 1.386 . S
C2061 C2065 1.393 . S
C2062 H2054 0.950 . S
C2062 C2060 1.391 . S
C2062 C2063 1.400 . S
C2063 C2062 1.400 . S
C2063 C2064 1.398 . S
C2063 C2069 1.491 1_655 S
C2064 H2055 0.950 . S
C2064 C2063 1.398 . S
C2064 C2065 1.391 . S
C2065 H2053 0.950 . S
C2065 C2061 1.393 . S
C2065 C2064 1.391 . S
C2066 H2056 0.950 . S
C2066 C2067 1.386 . S
C2066 C2068 1.391 . S
C2067 C2066 1.386 . S
C2067 C2071 1.393 . S
C2068 H2057 0.950 . S
C2068 C2066 1.391 . S
C2068 C2069 1.400 . S
C2069 C2063 1.491 1_455 S
C2069 C2068 1.400 . S
C2069 C2070 1.398 . S
C2070 H2058 0.950 . S
C2070 C2069 1.398 . S
C2070 C2071 1.391 . S
C2071 H2059 0.950 . S
C2071 C2067 1.393 . S
C2071 C2070 1.391 . S
H2072 C2080 0.950 . S
H2073 C2085 0.950 . S
H2074 C2082 0.950 . S
H2075 C2084 0.950 . S
H2076 C2086 0.950 . S
H2077 C2088 0.950 . S
H2078 C2090 0.950 . S
H2079 C2091 0.950 . S
C2080 H2072 0.950 . S
C2080 C2081 1.386 . S
C2080 C2082 1.391 . S
C2081 C2080 1.386 . S
C2081 C2085 1.393 . S
C2082 H2074 0.950 . S
C2082 C2080 1.391 . S
C2082 C2083 1.400 . S
C2083 C2082 1.400 . S
C2083 C2084 1.398 . S
C2083 C2089 1.491 1_655 S
C2084 H2075 0.950 . S
C2084 C2083 1.398 . S
C2084 C2085 1.391 . S
C2085 H2073 0.950 . S
C2085 C2081 1.393 . S
C2085 C2084 1.391 . S
C2086 H2076 0.950 . S
C2086 C2087 1.386 . S
C2086 C2088 1.391 . S
C2087 C2086 1.386 . S
C2087 C2091 1.393 . S
C2088 H2077 0.950 . S
C2088 C2086 1.391 . S
C2088 C2089 1.400 . S
C2089 C2083 1.491 1_455 S
C2089 C2088 1.400 . S
C2089 C2090 1.398 . S
C2090 H2078 0.950 . S
C2090 C2089 1.398 . S
C2090 C2091 1.391 . S
C2091 H2079 0.950 . S
C2091 C2087 1.393 . S
C2091 C2090 1.391 . S
H2092 C2100 0.950 . S
H2093 C2105 0.950 . S
H2094 C2102 0.950 . S
H2095 C2104 0.950 . S
H2096 C2106 0.950 . S
H2097 C2108 0.950 . S
H2098 C2110 0.950 . S
H2099 C2111 0.950 . S
C2100 H2092 0.950 . S
C2100 C2101 1.386 . S
C2100 C2102 1.391 . S
C2101 C2100 1.386 . S
C2101 C2105 1.393 . S
C2102 H2094 0.950 . S
C2102 C2100 1.391 . S
C2102 C2103 1.400 . S
C2103 C2102 1.400 . S
C2103 C2104 1.398 . S
C2103 C2109 1.491 . S
C2104 H2095 0.950 . S
C2104 C2103 1.398 . S
C2104 C2105 1.391 . S
C2105 H2093 0.950 . S
C2105 C2101 1.393 . S
C2105 C2104 1.391 . S
C2106 H2096 0.950 . S
C2106 C2107 1.386 . S
C2106 C2108 1.391 . S
C2107 C2106 1.386 . S
C2107 C2111 1.393 . S
C2108 H2097 0.950 . S
C2108 C2106 1.391 . S
C2108 C2109 1.400 . S
C2109 C2103 1.491 . S
C2109 C2108 1.400 . S
C2109 C2110 1.398 . S
C2110 H2098 0.950 . S
C2110 C2109 1.398 . S
C2110 C2111 1.391 . S
C2111 H2099 0.950 . S
C2111 C2107 1.393 . S
C2111 C2110 1.391 . S
H2112 C2120 0.950 . S
H2113 C2125 0.950 . S
H2114 C2122 0.950 . S
H2115 C2124 0.950 . S
H2116 C2126 0.950 . S
H2117 C2128 0.950 . S
H2118 C2130 0.950 . S
H2119 C2131 0.950 . S
C2120 H2112 0.950 . S
C2120 C2121 1.386 . S
C2120 C2122 1.391 . S
C2121 C2120 1.386 . S
C2121 C2125 1.393 . S
C2122 H2114 0.950 . S
C2122 C2120 1.391 . S
C2122 C2123 1.400 . S
C2123 C2122 1.400 . S
C2123 C2124 1.398 . S
C2123 C2129 1.491 . S
C2124 H2115 0.950 . S
C2124 C2123 1.398 . S
C2124 C2125 1.391 . S
C2125 H2113 0.950 . S
C2125 C2121 1.393 . S
C2125 C2124 1.391 . S
C2126 H2116 0.950 . S
C2126 C2127 1.386 . S
C2126 C2128 1.391 . S
C2127 C2126 1.386 . S
C2127 C2131 1.393 . S
C2128 H2117 0.950 . S
C2128 C2126 1.391 . S
C2128 C2129 1.400 . S
C2129 C2123 1.491 . S
C2129 C2128 1.400 . S
C2129 C2130 1.398 . S
C2130 H2118 0.950 . S
C2130 C2129 1.398 . S
C2130 C2131 1.391 . S
C2131 H2119 0.950 . S
C2131 C2127 1.393 . S
C2131 C2130 1.391 . S
H2132 C2140 0.950 . S
H2133 C2145 0.950 . S
H2134 C2142 0.950 . S
H2135 C2144 0.950 . S
H2136 C2146 0.950 . S
H2137 C2148 0.950 . S
H2138 C2150 0.950 . S
H2139 C2151 0.950 . S
C2140 H2132 0.950 . S
C2140 C2141 1.386 . S
C2140 C2142 1.391 . S
C2141 C2140 1.386 . S
C2141 C2145 1.393 . S
C2142 H2134 0.950 . S
C2142 C2140 1.391 . S
C2142 C2143 1.400 . S
C2143 C2142 1.400 . S
C2143 C2144 1.398 . S
C2143 C2149 1.491 . S
C2144 H2135 0.950 . S
C2144 C2143 1.398 . S
C2144 C2145 1.391 . S
C2145 H2133 0.950 . S
C2145 C2141 1.393 . S
C2145 C2144 1.391 . S
C2146 H2136 0.950 . S
C2146 C2147 1.386 . S
C2146 C2148 1.391 . S
C2147 C2146 1.386 . S
C2147 C2151 1.393 . S
C2148 H2137 0.950 . S
C2148 C2146 1.391 . S
C2148 C2149 1.400 . S
C2149 C2143 1.491 . S
C2149 C2148 1.400 . S
C2149 C2150 1.398 . S
C2150 H2138 0.950 . S
C2150 C2149 1.398 . S
C2150 C2151 1.391 . S
C2151 H2139 0.950 . S
C2151 C2147 1.393 . S
C2151 C2150 1.391 . S
H2152 C2160 0.950 . S
H2153 C2165 0.950 1_554 S
H2154 C2162 0.950 . S
H2155 C2164 0.950 . S
H2156 C2166 0.950 . S
H2157 C2168 0.950 . S
H2158 C2170 0.950 . S
H2159 C2171 0.950 . S
C2160 H2152 0.950 . S
C2160 C2161 1.386 . S
C2160 C2162 1.391 . S
C2161 C2160 1.386 . S
C2161 C2165 1.393 . S
C2162 H2154 0.950 . S
C2162 C2160 1.391 . S
C2162 C2163 1.400 . S
C2163 C2162 1.400 . S
C2163 C2164 1.398 . S
C2163 C2169 1.491 . S
C2164 H2155 0.950 . S
C2164 C2163 1.398 . S
C2164 C2165 1.391 . S
C2165 H2153 0.950 1_556 S
C2165 C2161 1.393 . S
C2165 C2164 1.391 . S
C2166 H2156 0.950 . S
C2166 C2167 1.386 . S
C2166 C2168 1.391 . S
C2167 C2166 1.386 . S
C2167 C2171 1.393 . S
C2168 H2157 0.950 . S
C2168 C2166 1.391 . S
C2168 C2169 1.400 . S
C2169 C2163 1.491 . S
C2169 C2168 1.400 . S
C2169 C2170 1.398 . S
C2170 H2158 0.950 . S
C2170 C2169 1.398 . S
C2170 C2171 1.391 . S
C2171 H2159 0.950 . S
C2171 C2167 1.393 . S
C2171 C2170 1.391 . S
H2172 C2180 0.950 . S
H2173 C2185 0.950 1_556 S
H2174 C2182 0.950 . S
H2175 C2184 0.950 . S
H2176 C2186 0.950 . S
H2177 C2188 0.950 . S
H2178 C2190 0.950 . S
H2179 C2191 0.950 . S
C2180 H2172 0.950 . S
C2180 C2181 1.386 . S
C2180 C2182 1.391 . S
C2181 C2180 1.386 . S
C2181 C2185 1.393 . S
C2182 H2174 0.950 . S
C2182 C2180 1.391 . S
C2182 C2183 1.400 . S
C2183 C2182 1.400 . S
C2183 C2184 1.398 . S
C2183 C2189 1.491 . S
C2184 H2175 0.950 . S
C2184 C2183 1.398 . S
C2184 C2185 1.391 . S
C2185 H2173 0.950 1_554 S
C2185 C2181 1.393 . S
C2185 C2184 1.391 . S
C2186 H2176 0.950 . S
C2186 C2187 1.386 . S
C2186 C2188 1.391 . S
C2187 C2186 1.386 . S
C2187 C2191 1.393 . S
C2188 H2177 0.950 . S
C2188 C2186 1.391 . S
C2188 C2189 1.400 . S
C2189 C2183 1.491 . S
C2189 C2188 1.400 . S
C2189 C2190 1.398 . S
C2190 H2178 0.950 . S
C2190 C2189 1.398 . S
C2190 C2191 1.391 . S
C2191 H2179 0.950 . S
C2191 C2187 1.393 . S
C2191 C2190 1.391 . S
H2192 C2200 0.950 . S
H2193 C2205 0.950 . S
H2194 C2202 0.950 . S
H2195 C2204 0.950 . S
H2196 C2206 0.950 . S
H2197 C2208 0.950 . S
H2198 C2210 0.950 . S
H2199 C2211 0.950 . S
C2200 H2192 0.950 . S
C2200 C2201 1.386 . S
C2200 C2202 1.391 . S
C2201 C2200 1.386 . S
C2201 C2205 1.393 . S
C2202 H2194 0.950 . S
C2202 C2200 1.391 . S
C2202 C2203 1.400 . S
C2203 C2202 1.400 . S
C2203 C2204 1.398 . S
C2203 C2209 1.491 . S
C2204 H2195 0.950 . S
C2204 C2203 1.398 . S
C2204 C2205 1.391 . S
C2205 H2193 0.950 . S
C2205 C2201 1.393 . S
C2205 C2204 1.391 . S
C2206 H2196 0.950 . S
C2206 C2207 1.386 . S
C2206 C2208 1.391 . S
C2207 C2206 1.386 . S
C2207 C2211 1.393 . S
C2208 H2197 0.950 . S
C2208 C2206 1.391 . S
C2208 C2209 1.400 . S
C2209 C2203 1.491 . S
C2209 C2208 1.400 . S
C2209 C2210 1.398 . S
C2210 H2198 0.950 . S
C2210 C2209 1.398 . S
C2210 C2211 1.391 . S
C2211 H2199 0.950 . S
C2211 C2207 1.393 . S
C2211 C2210 1.391 . S
H2212 C2220 0.950 . S
H2213 C2225 0.950 . S
H2214 C2222 0.950 . S
H2215 C2224 0.950 . S
H2216 C2226 0.950 . S
H2217 C2228 0.950 . S
H2218 C2230 0.950 . S
H2219 C2231 0.950 . S
C2220 H2212 0.950 . S
C2220 C2221 1.386 . S
C2220 C2222 1.391 . S
C2221 C2220 1.386 . S
C2221 C2225 1.393 . S
C2222 H2214 0.950 . S
C2222 C2220 1.391 . S
C2222 C2223 1.400 . S
C2223 C2222 1.400 . S
C2223 C2224 1.398 . S
C2223 C2229 1.491 . S
C2224 H2215 0.950 . S
C2224 C2223 1.398 . S
C2224 C2225 1.391 . S
C2225 H2213 0.950 . S
C2225 C2221 1.393 . S
C2225 C2224 1.391 . S
C2226 H2216 0.950 . S
C2226 C2227 1.386 . S
C2226 C2228 1.391 . S
C2227 C2226 1.386 . S
C2227 C2231 1.393 . S
C2228 H2217 0.950 . S
C2228 C2226 1.391 . S
C2228 C2229 1.400 . S
C2229 C2223 1.491 . S
C2229 C2228 1.400 . S
C2229 C2230 1.398 . S
C2230 H2218 0.950 . S
C2230 C2229 1.398 . S
C2230 C2231 1.391 . S
C2231 H2219 0.950 . S
C2231 C2227 1.393 . S
C2231 C2230 1.391 . S
H2232 C2240 0.950 . S
H2233 C2245 0.950 . S
H2234 C2242 0.950 . S
H2235 C2244 0.950 . S
H2236 C2246 0.950 1_556 S
H2237 C2248 0.950 . S
H2238 C2250 0.950 . S
H2239 C2251 0.950 . S
C2240 H2232 0.950 . S
C2240 C2241 1.386 . S
C2240 C2242 1.391 . S
C2241 C2240 1.386 . S
C2241 C2245 1.393 . S
C2242 H2234 0.950 . S
C2242 C2240 1.391 . S
C2242 C2243 1.400 . S
C2243 C2242 1.400 . S
C2243 C2244 1.398 . S
C2243 C2249 1.491 . S
C2244 H2235 0.950 . S
C2244 C2243 1.398 . S
C2244 C2245 1.391 . S
C2245 H2233 0.950 . S
C2245 C2241 1.393 . S
C2245 C2244 1.391 . S
C2246 H2236 0.950 1_554 S
C2246 C2247 1.386 . S
C2246 C2248 1.391 . S
C2247 C2246 1.386 . S
C2247 C2251 1.393 . S
C2248 H2237 0.950 . S
C2248 C2246 1.391 . S
C2248 C2249 1.400 . S
C2249 C2243 1.491 . S
C2249 C2248 1.400 . S
C2249 C2250 1.398 . S
C2250 H2238 0.950 . S
C2250 C2249 1.398 . S
C2250 C2251 1.391 . S
C2251 H2239 0.950 . S
C2251 C2247 1.393 . S
C2251 C2250 1.391 . S
H2252 C2260 0.950 . S
H2253 C2265 0.950 . S
H2254 C2262 0.950 . S
H2255 C2264 0.950 . S
H2256 C2266 0.950 . S
H2257 C2268 0.950 . S
H2258 C2270 0.950 . S
H2259 C2271 0.950 1_554 S
C2260 H2252 0.950 . S
C2260 C2261 1.386 . S
C2260 C2262 1.391 . S
C2261 C2260 1.386 . S
C2261 C2265 1.393 . S
C2262 H2254 0.950 . S
C2262 C2260 1.391 . S
C2262 C2263 1.400 . S
C2263 C2262 1.400 . S
C2263 C2264 1.398 . S
C2263 C2269 1.491 . S
C2264 H2255 0.950 . S
C2264 C2263 1.398 . S
C2264 C2265 1.391 . S
C2265 H2253 0.950 . S
C2265 C2261 1.393 . S
C2265 C2264 1.391 . S
C2266 H2256 0.950 . S
C2266 C2267 1.386 . S
C2266 C2268 1.391 . S
C2267 C2266 1.386 . S
C2267 C2271 1.393 . S
C2268 H2257 0.950 . S
C2268 C2266 1.391 . S
C2268 C2269 1.400 . S
C2269 C2263 1.491 . S
C2269 C2268 1.400 . S
C2269 C2270 1.398 . S
C2270 H2258 0.950 . S
C2270 C2269 1.398 . S
C2270 C2271 1.391 . S
C2271 H2259 0.950 1_556 S
C2271 C2267 1.393 . S
C2271 C2270 1.391 . S
H2272 C2280 0.947 1_554 S
H2273 C2285 0.950 . S
H2274 C2282 0.950 . S
H2275 C2284 0.950 . S
H2276 C2286 0.950 . S
H2277 C2288 0.950 . S
H2278 C2290 0.950 . S
H2279 C2291 0.950 . S
C2280 H2272 0.947 1_556 S
C2280 C2281 1.386 . S
C2280 C2282 1.391 . S
C2281 C2280 1.386 . S
C2281 C2285 1.393 . S
C2282 H2274 0.950 . S
C2282 C2280 1.391 . S
C2282 C2283 1.400 . S
C2283 C2282 1.400 . S
C2283 C2284 1.398 . S
C2283 C2289 1.491 . S
C2284 H2275 0.950 . S
C2284 C2283 1.398 . S
C2284 C2285 1.391 . S
C2285 H2273 0.950 . S
C2285 C2281 1.393 . S
C2285 C2284 1.391 . S
C2286 H2276 0.950 . S
C2286 C2287 1.386 . S
C2286 C2288 1.391 . S
C2287 C2286 1.386 . S
C2287 C2291 1.393 . S
C2288 H2277 0.950 . S
C2288 C2286 1.391 . S
C2288 C2289 1.400 . S
C2289 C2283 1.491 . S
C2289 C2288 1.400 . S
C2289 C2290 1.398 . S
C2290 H2278 0.950 . S
C2290 C2289 1.398 . S
C2290 C2291 1.391 . S
C2291 H2279 0.950 . S
C2291 C2287 1.393 . S
C2291 C2290 1.391 . S
H2292 C2300 0.950 . S
H2293 C2305 0.950 . S
H2294 C2302 0.950 . S
H2295 C2304 0.950 . S
H2296 C2306 0.950 . S
H2297 C2308 0.950 . S
H2298 C2310 0.950 . S
H2299 C2311 0.950 . S
C2300 H2292 0.950 . S
C2300 C2301 1.386 . S
C2300 C2302 1.391 . S
C2301 C2300 1.386 . S
C2301 C2305 1.393 . S
C2302 H2294 0.950 . S
C2302 C2300 1.391 . S
C2302 C2303 1.400 . S
C2303 C2302 1.400 . S
C2303 C2304 1.398 . S
C2303 C2309 1.491 . S
C2304 H2295 0.950 . S
C2304 C2303 1.398 . S
C2304 C2305 1.391 . S
C2305 H2293 0.950 . S
C2305 C2301 1.393 . S
C2305 C2304 1.391 . S
C2306 H2296 0.950 . S
C2306 C2307 1.386 . S
C2306 C2308 1.391 . S
C2307 C2306 1.386 . S
C2307 C2311 1.393 . S
C2308 H2297 0.950 . S
C2308 C2306 1.391 . S
C2308 C2309 1.400 . S
C2309 C2303 1.491 . S
C2309 C2308 1.400 . S
C2309 C2310 1.398 . S
C2310 H2298 0.950 . S
C2310 C2309 1.398 . S
C2310 C2311 1.391 . S
C2311 H2299 0.950 . S
C2311 C2307 1.393 . S
C2311 C2310 1.391 . S
H2312 C2320 0.950 . S
H2313 C2325 0.950 . S
H2314 C2322 0.950 . S
H2315 C2324 0.950 . S
H2316 C2326 0.950 . S
H2317 C2328 0.950 . S
H2318 C2330 0.950 . S
H2319 C2331 0.950 . S
C2320 H2312 0.950 . S
C2320 C2321 1.386 . S
C2320 C2322 1.391 . S
C2321 C2320 1.386 . S
C2321 C2325 1.393 . S
C2322 H2314 0.950 . S
C2322 C2320 1.391 . S
C2322 C2323 1.400 . S
C2323 C2322 1.400 . S
C2323 C2324 1.398 . S
C2323 C2329 1.491 . S
C2324 H2315 0.950 . S
C2324 C2323 1.398 . S
C2324 C2325 1.391 . S
C2325 H2313 0.950 . S
C2325 C2321 1.393 . S
C2325 C2324 1.391 . S
C2326 H2316 0.950 . S
C2326 C2327 1.386 . S
C2326 C2328 1.391 . S
C2327 C2326 1.386 . S
C2327 C2331 1.393 . S
C2328 H2317 0.950 . S
C2328 C2326 1.391 . S
C2328 C2329 1.400 . S
C2329 C2323 1.491 . S
C2329 C2328 1.400 . S
C2329 C2330 1.398 . S
C2330 H2318 0.950 . S
C2330 C2329 1.398 . S
C2330 C2331 1.391 . S
C2331 H2319 0.950 . S
C2331 C2327 1.393 . S
C2331 C2330 1.391 . S
H2332 C2340 0.950 . S
H2333 C2345 0.950 . S
H2334 C2342 0.950 . S
H2335 C2344 0.950 . S
H2336 C2346 0.950 . S
H2337 C2348 0.950 . S
H2338 C2350 0.950 . S
H2339 C2351 0.950 . S
C2340 H2332 0.950 . S
C2340 C2341 1.386 . S
C2340 C2342 1.391 . S
C2341 C2340 1.386 . S
C2341 C2345 1.393 . S
C2342 H2334 0.950 . S
C2342 C2340 1.391 . S
C2342 C2343 1.400 . S
C2343 C2342 1.400 . S
C2343 C2344 1.398 . S
C2343 C2349 1.491 . S
C2344 H2335 0.950 . S
C2344 C2343 1.398 . S
C2344 C2345 1.391 . S
C2345 H2333 0.950 . S
C2345 C2341 1.393 . S
C2345 C2344 1.391 . S
C2346 H2336 0.950 . S
C2346 C2347 1.386 . S
C2346 C2348 1.391 . S
C2347 C2346 1.386 . S
C2347 C2351 1.393 . S
C2348 H2337 0.950 . S
C2348 C2346 1.391 . S
C2348 C2349 1.400 . S
C2349 C2343 1.491 . S
C2349 C2348 1.400 . S
C2349 C2350 1.398 . S
C2350 H2338 0.950 . S
C2350 C2349 1.398 . S
C2350 C2351 1.391 . S
C2351 H2339 0.950 . S
C2351 C2347 1.393 . S
C2351 C2350 1.391 . S
H2352 C2360 0.950 . S
H2353 C2365 0.950 . S
H2354 C2362 0.950 . S
H2355 C2364 0.950 . S
H2356 C2366 0.934 1_556 S
H2357 C2368 0.950 . S
H2358 C2370 0.950 . S
H2359 C2371 0.950 . S
C2360 H2352 0.950 . S
C2360 C2361 1.386 . S
C2360 C2362 1.391 . S
C2361 C2360 1.386 . S
C2361 C2365 1.393 . S
C2362 H2354 0.950 . S
C2362 C2360 1.391 . S
C2362 C2363 1.400 . S
C2363 C2362 1.400 . S
C2363 C2364 1.398 . S
C2363 C2369 1.491 . S
C2364 H2355 0.950 . S
C2364 C2363 1.398 . S
C2364 C2365 1.391 . S
C2365 H2353 0.950 . S
C2365 C2361 1.393 . S
C2365 C2364 1.391 . S
C2366 H2356 0.934 1_554 S
C2366 C2367 1.388 . S
C2366 C2368 1.405 . S
C2367 C2366 1.388 . S
C2367 C2371 1.393 . S
C2368 H2357 0.950 . S
C2368 C2366 1.405 . S
C2368 C2369 1.400 . S
C2369 C2363 1.491 . S
C2369 C2368 1.400 . S
C2369 C2370 1.398 . S
C2370 H2358 0.950 . S
C2370 C2369 1.398 . S
C2370 C2371 1.391 . S
C2371 H2359 0.950 . S
C2371 C2367 1.393 . S
C2371 C2370 1.391 . S
H2372 C2380 0.950 . S
H2373 C2385 0.950 . S
H2374 C2382 0.950 . S
H2375 C2384 0.950 . S
H2376 C2386 0.950 . S
H2377 C2388 0.950 . S
H2378 C2390 0.950 . S
H2379 C2391 0.950 . S
C2380 H2372 0.950 . S
C2380 C2381 1.386 . S
C2380 C2382 1.391 . S
C2381 C2380 1.386 . S
C2381 C2385 1.393 . S
C2382 H2374 0.950 . S
C2382 C2380 1.391 . S
C2382 C2383 1.400 . S
C2383 C2382 1.400 . S
C2383 C2384 1.398 . S
C2383 C2389 1.491 . S
C2384 H2375 0.950 . S
C2384 C2383 1.398 . S
C2384 C2385 1.391 . S
C2385 H2373 0.950 . S
C2385 C2381 1.393 . S
C2385 C2384 1.391 . S
C2386 H2376 0.950 . S
C2386 C2387 1.386 . S
C2386 C2388 1.391 . S
C2387 C2386 1.386 . S
C2387 C2391 1.393 . S
C2388 H2377 0.950 . S
C2388 C2386 1.391 . S
C2388 C2389 1.400 . S
C2389 C2383 1.491 . S
C2389 C2388 1.400 . S
C2389 C2390 1.398 . S
C2390 H2378 0.950 . S
C2390 C2389 1.398 . S
C2390 C2391 1.391 . S
C2391 H2379 0.950 . S
C2391 C2387 1.393 . S
C2391 C2390 1.391 . S
H2392 C2400 0.950 . S
H2393 C2405 0.950 . S
H2394 C2402 0.950 . S
H2395 C2404 0.950 . S
H2396 C2406 0.950 . S
H2397 C2408 0.950 . S
H2398 C2410 0.950 . S
H2399 C2411 0.950 . S
C2400 H2392 0.950 . S
C2400 C2401 1.386 . S
C2400 C2402 1.391 . S
C2401 C2400 1.386 . S
C2401 C2405 1.393 . S
C2402 H2394 0.950 . S
C2402 C2400 1.391 . S
C2402 C2403 1.400 . S
C2403 C2402 1.400 . S
C2403 C2404 1.398 . S
C2403 C2409 1.491 . S
C2404 H2395 0.950 . S
C2404 C2403 1.398 . S
C2404 C2405 1.391 . S
C2405 H2393 0.950 . S
C2405 C2401 1.393 . S
C2405 C2404 1.391 . S
C2406 H2396 0.950 . S
C2406 C2407 1.386 . S
C2406 C2408 1.391 . S
C2407 C2406 1.386 . S
C2407 C2411 1.393 . S
C2408 H2397 0.950 . S
C2408 C2406 1.391 . S
C2408 C2409 1.400 . S
C2409 C2403 1.491 . S
C2409 C2408 1.400 . S
C2409 C2410 1.398 . S
C2410 H2398 0.950 . S
C2410 C2409 1.398 . S
C2410 C2411 1.391 . S
C2411 H2399 0.950 . S
C2411 C2407 1.393 . S
C2411 C2410 1.391 . S
H2412 C2420 0.950 . S
H2413 C2425 0.950 . S
H2414 C2422 0.950 . S
H2415 C2424 0.950 . S
H2416 C2426 0.950 . S
H2417 C2428 0.950 . S
H2418 C2430 0.950 . S
H2419 C2431 0.950 . S
C2420 H2412 0.950 . S
C2420 C2421 1.386 . S
C2420 C2422 1.391 . S
C2421 C2420 1.386 . S
C2421 C2425 1.393 . S
C2422 H2414 0.950 . S
C2422 C2420 1.391 . S
C2422 C2423 1.400 . S
C2423 C2422 1.400 . S
C2423 C2424 1.398 . S
C2423 C2429 1.491 . S
C2424 H2415 0.950 . S
C2424 C2423 1.398 . S
C2424 C2425 1.391 . S
C2425 H2413 0.950 . S
C2425 C2421 1.393 . S
C2425 C2424 1.391 . S
C2426 H2416 0.950 . S
C2426 C2427 1.386 . S
C2426 C2428 1.391 . S
C2427 C2426 1.386 . S
C2427 C2431 1.393 . S
C2428 H2417 0.950 . S
C2428 C2426 1.391 . S
C2428 C2429 1.400 . S
C2429 C2423 1.491 . S
C2429 C2428 1.400 . S
C2429 C2430 1.398 . S
C2430 H2418 0.950 . S
C2430 C2429 1.398 . S
C2430 C2431 1.391 . S
C2431 H2419 0.950 . S
C2431 C2427 1.393 . S
C2431 C2430 1.391 . S
C1161 C220 1.483 . S
C1167 C4 1.488 . S
C1181 C40 1.483 . S
C1187 C256 1.486 . S
C1201 C148 1.484 . S
C1207 C76 1.484 . S
C1221 C112 1.485 . S
C1227 C184 1.491 . S
C1241 C292 1.493 . S
C1247 C508 1.487 . S
C1261 C544 1.490 . S
C1267 C328 1.495 . S
C1281 C364 1.487 . S
C1287 C436 1.483 . S
C1301 C472 1.483 . S
C1307 C400 1.485 . S
C1321 C580 1.484 . S
C1327 C796 1.490 . S
C1341 C616 1.486 . S
C1347 C832 1.491 . S
C1361 C724 1.485 . S
C1367 C652 1.483 . S
C1381 C760 1.487 . S
C1387 C688 1.493 . S
C1401 C868 1.484 . S
C1407 C1084 1.490 . S
C1421 C904 1.494 . S
C1427 C1120 1.496 . S
C1441 C1012 1.484 . S
C1447 C940 1.490 . S
C1461 C976 1.490 . S
C1467 C1048 1.495 . S
C1481 C3 1.471 1_556 S
C1487 C255 1.468 . S
C1501 C147 1.469 1_554 S
C1507 C39 1.469 . S
C1521 C183 1.471 . S
C1527 C75 1.468 . S
C1541 C111 1.468 . S
C1547 C219 1.471 . S
C1561 C291 1.469 1_554 S
C1567 C543 1.470 . S
C1581 C435 1.468 1_556 S
C1587 C327 1.470 . S
C1601 C471 1.469 . S
C1607 C363 1.470 . S
C1621 C507 1.468 . S
C1627 C399 1.471 . S
C1641 C579 1.471 . S
C1647 C831 1.468 . S
C1661 C615 1.470 . S
C1667 C723 1.469 . S
C1681 C759 1.469 . S
C1687 C651 1.469 1_556 S
C1701 C687 1.470 . S
C1707 C795 1.469 1_554 S
C1721 C867 1.468 . S
C1727 C1119 1.471 . S
C1741 C1011 1.469 . S
C1747 C903 1.469 . S
C1761 C939 1.469 1_554 S
C1767 C1047 1.470 . S
C1781 C975 1.471 . S
C1787 C1083 1.468 1_556 S
C1801 C1094 1.367 . S
C1807 C14 1.371 . S
C1821 C554 1.362 . S
C1827 C50 1.375 . S
C1841 C86 1.356 . S
C1847 C1022 1.381 . S
C1861 C122 1.353 . S
C1867 C482 1.384 . S
C1881 C158 1.353 . S
C1887 C950 1.384 . S
C1901 C194 1.385 . S
C1907 C410 1.352 . S
C1921 C230 1.360 . S
C1927 C878 1.377 . S
C1941 C338 1.353 . S
C1947 C266 1.385 . S
C1961 C806 1.385 . S
C1967 C302 1.353 . S
C1981 C374 1.377 . S
C1987 C734 1.361 . S
C2001 C662 1.353 . S
C2007 C446 1.385 . S
C2021 C590 1.353 . S
C2027 C518 1.384 . S
C2041 C626 1.378 . S
C2047 C1130 1.359 . S
C2061 C698 1.354 . S
C2067 C1058 1.383 . S
C2081 C770 1.384 . S
C2087 C986 1.353 . S
C2101 C914 1.384 . S
C2107 C842 1.353 . S
C2121 C2 1.386 . S
C2127 C254 1.378 . S
C2141 C38 1.382 . S
C2147 C146 1.381 . S
C2161 C182 1.385 1_556 S
C2167 C74 1.379 . S
C2181 C110 1.386 1_554 S
C2187 C218 1.377 . S
C2201 C542 1.381 . S
C2207 C290 1.383 . S
C2221 C434 1.384 . S
C2227 C326 1.380 . S
C2241 C362 1.382 . S
C2247 C470 1.380 1_554 S
C2261 C506 1.377 . S
C2267 C398 1.386 1_556 S
C2281 C830 1.380 1_556 S
C2287 C578 1.384 . S
C2301 C722 1.381 . S
C2307 C614 1.381 1_554 S
C2321 C758 1.378 . S
C2327 C650 1.385 . S
C2341 C794 1.383 . S
C2347 C686 1.380 . S
C2361 C866 1.386 . S
C2367 C1118 1.377 1_554 S
C2381 C902 1.383 1_556 S
C2387 C1010 1.381 . S
C2401 C938 1.381 . S
C2407 C1046 1.381 . S
C2421 C1082 1.383 . S
C2427 C974 1.379 . S
