# Generated by pormake.
# Topology bcs, (6)-cn, num edge types: 1
# Building blocks:
#     Node 0, Type 0, BuildingBlock: UKALOJ_clean_sbu_0, # of connection points: 6
#     Node 1, Type 0, BuildingBlock: UKALOJ_clean_sbu_0, # of connection points: 6
#     Node 2, Type 0, BuildingBlock: UKALOJ_clean_sbu_0, # of connection points: 6
#     Node 3, Type 0, BuildingBlock: UKALOJ_clean_sbu_0, # of connection points: 6
#     Node 4, Type 0, BuildingBlock: UKALOJ_clean_sbu_0, # of connection points: 6
#     Node 5, Type 0, BuildingBlock: UKALOJ_clean_sbu_0, # of connection points: 6
#     Node 6, Type 0, BuildingBlock: UKALOJ_clean_sbu_0, # of connection points: 6
#     Node 7, Type 0, BuildingBlock: UKALOJ_clean_sbu_0, # of connection points: 6
#     Node 8, Type 0, BuildingBlock: UKALOJ_clean_sbu_0, # of connection points: 6
#     Node 9, Type 0, BuildingBlock: UKALOJ_clean_sbu_0, # of connection points: 6
#     Node 10, Type 0, BuildingBlock: UKALOJ_clean_sbu_0, # of connection points: 6
#     Node 11, Type 0, BuildingBlock: UKALOJ_clean_sbu_0, # of connection points: 6
#     Node 12, Type 0, BuildingBlock: UKALOJ_clean_sbu_0, # of connection points: 6
#     Node 13, Type 0, BuildingBlock: UKALOJ_clean_sbu_0, # of connection points: 6
#     Node 14, Type 0, BuildingBlock: UKALOJ_clean_sbu_0, # of connection points: 6
#     Node 15, Type 0, BuildingBlock: UKALOJ_clean_sbu_0, # of connection points: 6
#     Edge 16, Type (0, 0), BuildingBlock: XIVTED_clean_linker_0, # of connection points: 2
#     Edge 17, Type (0, 0), BuildingBlock: XIVTED_clean_linker_0, # of connection points: 2
#     Edge 18, Type (0, 0), BuildingBlock: XIVTED_clean_linker_0, # of connection points: 2
#     Edge 19, Type (0, 0), BuildingBlock: XIVTED_clean_linker_0, # of connection points: 2
#     Edge 20, Type (0, 0), BuildingBlock: XIVTED_clean_linker_0, # of connection points: 2
#     Edge 21, Type (0, 0), BuildingBlock: XIVTED_clean_linker_0, # of connection points: 2
#     Edge 22, Type (0, 0), BuildingBlock: XIVTED_clean_linker_0, # of connection points: 2
#     Edge 23, Type (0, 0), BuildingBlock: XIVTED_clean_linker_0, # of connection points: 2
#     Edge 24, Type (0, 0), BuildingBlock: XIVTED_clean_linker_0, # of connection points: 2
#     Edge 25, Type (0, 0), BuildingBlock: XIVTED_clean_linker_0, # of connection points: 2
#     Edge 26, Type (0, 0), BuildingBlock: XIVTED_clean_linker_0, # of connection points: 2
#     Edge 27, Type (0, 0), BuildingBlock: XIVTED_clean_linker_0, # of connection points: 2
#     Edge 28, Type (0, 0), BuildingBlock: XIVTED_clean_linker_0, # of connection points: 2
#     Edge 29, Type (0, 0), BuildingBlock: XIVTED_clean_linker_0, # of connection points: 2
#     Edge 30, Type (0, 0), BuildingBlock: XIVTED_clean_linker_0, # of connection points: 2
#     Edge 31, Type (0, 0), BuildingBlock: XIVTED_clean_linker_0, # of connection points: 2
#     Edge 32, Type (0, 0), BuildingBlock: XIVTED_clean_linker_0, # of connection points: 2
#     Edge 33, Type (0, 0), BuildingBlock: XIVTED_clean_linker_0, # of connection points: 2
#     Edge 34, Type (0, 0), BuildingBlock: XIVTED_clean_linker_0, # of connection points: 2
#     Edge 35, Type (0, 0), BuildingBlock: XIVTED_clean_linker_0, # of connection points: 2
#     Edge 36, Type (0, 0), BuildingBlock: XIVTED_clean_linker_0, # of connection points: 2
#     Edge 37, Type (0, 0), BuildingBlock: XIVTED_clean_linker_0, # of connection points: 2
#     Edge 38, Type (0, 0), BuildingBlock: XIVTED_clean_linker_0, # of connection points: 2
#     Edge 39, Type (0, 0), BuildingBlock: XIVTED_clean_linker_0, # of connection points: 2
#     Edge 40, Type (0, 0), BuildingBlock: XIVTED_clean_linker_0, # of connection points: 2
#     Edge 41, Type (0, 0), BuildingBlock: XIVTED_clean_linker_0, # of connection points: 2
#     Edge 42, Type (0, 0), BuildingBlock: XIVTED_clean_linker_0, # of connection points: 2
#     Edge 43, Type (0, 0), BuildingBlock: XIVTED_clean_linker_0, # of connection points: 2
#     Edge 44, Type (0, 0), BuildingBlock: XIVTED_clean_linker_0, # of connection points: 2
#     Edge 45, Type (0, 0), BuildingBlock: XIVTED_clean_linker_0, # of connection points: 2
#     Edge 46, Type (0, 0), BuildingBlock: XIVTED_clean_linker_0, # of connection points: 2
#     Edge 47, Type (0, 0), BuildingBlock: XIVTED_clean_linker_0, # of connection points: 2
#     Edge 48, Type (0, 0), BuildingBlock: XIVTED_clean_linker_0, # of connection points: 2
#     Edge 49, Type (0, 0), BuildingBlock: XIVTED_clean_linker_0, # of connection points: 2
#     Edge 50, Type (0, 0), BuildingBlock: XIVTED_clean_linker_0, # of connection points: 2
#     Edge 51, Type (0, 0), BuildingBlock: XIVTED_clean_linker_0, # of connection points: 2
#     Edge 52, Type (0, 0), BuildingBlock: XIVTED_clean_linker_0, # of connection points: 2
#     Edge 53, Type (0, 0), BuildingBlock: XIVTED_clean_linker_0, # of connection points: 2
#     Edge 54, Type (0, 0), BuildingBlock: XIVTED_clean_linker_0, # of connection points: 2
#     Edge 55, Type (0, 0), BuildingBlock: XIVTED_clean_linker_0, # of connection points: 2
#     Edge 56, Type (0, 0), BuildingBlock: XIVTED_clean_linker_0, # of connection points: 2
#     Edge 57, Type (0, 0), BuildingBlock: XIVTED_clean_linker_0, # of connection points: 2
#     Edge 58, Type (0, 0), BuildingBlock: XIVTED_clean_linker_0, # of connection points: 2
#     Edge 59, Type (0, 0), BuildingBlock: XIVTED_clean_linker_0, # of connection points: 2
#     Edge 60, Type (0, 0), BuildingBlock: XIVTED_clean_linker_0, # of connection points: 2
#     Edge 61, Type (0, 0), BuildingBlock: XIVTED_clean_linker_0, # of connection points: 2
#     Edge 62, Type (0, 0), BuildingBlock: XIVTED_clean_linker_0, # of connection points: 2
#     Edge 63, Type (0, 0), BuildingBlock: XIVTED_clean_linker_0, # of connection points: 2
# Relax obj value: 0.487
# Max RMSD: 0.297
# Mean RMSD: 0.266
data_MOF--net-bcs--node1-UKALOJ_clean_sbu_0--edge1-XIVTED_clean_linker_0
_symmetry_space_group_name_H-M    P1
_symmetry_Int_Tables_number       1
_symmetry_cell_setting            triclinic
loop_
_symmetry_equiv_pos_as_xyz
'x, y, z'
_cell_length_a     37.026444
_cell_length_b     36.585393
_cell_length_c     39.4195
_cell_angle_alpha  88.573709
_cell_angle_beta   91.032647
_cell_angle_gamma 77.32386
loop_
_atom_site_label
_atom_site_type_symbol
_atom_site_fract_x
_atom_site_fract_y
_atom_site_fract_z
_atom_type_partial_charge
Zn0 Zn 0.0178 0.02552 -0.00041 0.0
O1 O 0.05415 0.00453 0.0409 0.0
C2 C 0.044 0.95566 0.96172 0.0
Zn3 Zn 0.98401 0.98287 0.009 0.0
C4 C 0.04753 0.97727 0.05849 0.0
O5 O 0.0205 0.96286 0.05016 0.0
C6 C 0.95375 0.03157 0.95043 0.0
O7 O 0.9521 0.02069 0.04189 0.0
O8 O 0.985 0.06284 0.03223 0.0
N9 N 0.95491 0.94279 0.0206 0.0
C10 C 0.92027 0.94519 0.03173 0.0
C11 C 0.94718 0.8874 0.03356 0.0
N12 N 0.97145 0.90678 0.02146 0.0
N13 N 0.91484 0.91089 0.04024 0.0
C14 C 0.08229 0.06201 0.97788 0.0
C15 C 0.05571 0.1198 0.97327 0.0
N16 N 0.04719 0.06519 0.988 0.0
N17 N 0.03083 0.10121 0.98546 0.0
N18 N 0.08824 0.09579 0.9683 0.0
H19 H 0.1057 0.00642 -0.00159 0.0
H20 H 0.1391 0.03206 0.98318 0.0
H21 H 0.11143 0.01298 0.9536 0.0
C22 C 0.11127 0.02624 0.97853 0.0
C23 C 0.89117 0.98074 0.03276 0.0
H24 H 0.89578 0.00116 0.01294 0.0
H25 H 0.89221 0.99325 0.05793 0.0
H26 H 0.86322 0.97489 0.02899 0.0
O27 O 0.94747 0.00398 0.96781 0.0
O28 O 0.98098 0.0458 0.95854 0.0
C29 C 0.95878 0.05264 0.04745 0.0
O30 O 0.04979 0.98796 0.96701 0.0
O31 O 0.01759 0.94521 0.97644 0.0
Zn32 Zn 0.21771 0.75271 0.27236 0.0
O33 O 0.24474 0.69803 0.28895 0.0
C34 C 0.2724 0.78305 0.30955 0.0
Zn35 Zn 0.2654 0.75482 0.23915 0.0
C36 C 0.27667 0.68304 0.2785 0.0
O37 O 0.29177 0.70062 0.25672 0.0
C38 C 0.20644 0.82458 0.23309 0.0
O39 O 0.24246 0.73227 0.19763 0.0
O40 O 0.19527 0.73024 0.23009 0.0
N41 N 0.31181 0.75784 0.21277 0.0
C42 C 0.31749 0.77687 0.18432 0.0
C43 C 0.37033 0.75388 0.20733 0.0
N44 N 0.34475 0.74309 0.22667 0.0
N45 N 0.35405 0.77508 0.18048 0.0
C46 C 0.16532 0.73403 0.32907 0.0
C47 C 0.1128 0.75453 0.30457 0.0
N48 N 0.17136 0.74981 0.29895 0.0
N49 N 0.13862 0.76292 0.28407 0.0
N50 N 0.1286 0.73629 0.33309 0.0
H51 H 0.19276 0.68688 0.36055 0.0
H52 H 0.19307 0.73214 0.37734 0.0
H53 H 0.22327 0.71534 0.3441 0.0
C54 C 0.19546 0.71579 0.35389 0.0
C55 C 0.28716 0.79962 0.162 0.0
H56 H 0.26054 0.79135 0.16619 0.0
H57 H 0.29381 0.79563 0.13492 0.0
H58 H 0.28439 0.82974 0.16721 0.0
O59 O 0.23834 0.80957 0.22257 0.0
O60 O 0.19131 0.80692 0.25478 0.0
C61 C 0.21096 0.72458 0.20167 0.0
O62 O 0.24086 0.77558 0.314 0.0
O63 O 0.28776 0.77706 0.28105 0.0
Zn64 Zn 0.51621 0.02546 0.50038 0.0
O65 O 0.49402 0.06917 0.46633 0.0
C66 C 0.45425 0.04663 0.54809 0.0
Zn67 Zn 0.47222 0.99414 0.49109 0.0
C68 C 0.46346 0.06739 0.45221 0.0
O69 O 0.44934 0.03926 0.45811 0.0
C70 C 0.52375 0.95412 0.5414 0.0
O71 O 0.50282 0.96615 0.45046 0.0
O72 O 0.54669 -0.00382 0.46102 0.0
N73 N 0.42868 0.97056 0.48033 0.0
C74 C 0.42717 0.93703 0.46782 0.0
C75 C 0.37159 0.96804 0.47195 0.0
N76 N 0.39413 0.98969 0.48315 0.0
N77 N 0.39165 0.93487 0.46207 0.0
C78 C 0.56233 0.08085 0.52555 0.0
C79 C 0.61744 0.0489 0.5209 0.0
N80 N 0.56006 0.0484 0.51128 0.0
N81 N 0.59434 0.02873 0.50806 0.0
N82 N 0.59801 0.0817 0.53214 0.0
H83 H 0.50747 0.11286 0.51243 0.0
H84 H 0.53821 0.1396 0.5309 0.0
H85 H 0.5187 0.10824 0.55703 0.0
C86 C 0.5298 0.11229 0.53165 0.0
C87 C 0.46034 0.90594 0.46266 0.0
H88 H 0.47093 0.90885 0.43685 0.0
H89 H 0.4529 0.87823 0.46519 0.0
H90 H 0.48286 0.90705 0.48114 0.0
O91 O 0.49507 0.95007 0.52522 0.0
O92 O 0.53772 0.98211 0.5348 0.0
C93 C 0.53426 0.97268 0.44365 0.0
O94 O 0.48507 0.05414 0.54038 0.0
O95 O 0.44217 0.02246 0.5313 0.0
Zn96 Zn 0.27312 0.25554 0.77023 0.0
O97 O 0.23771 0.29902 0.7959 0.0
C98 C 0.23261 0.20299 0.80174 0.0
Zn99 Zn 0.22576 0.24908 0.73745 0.0
C100 C 0.20374 0.3096 0.78718 0.0
O101 O 0.19123 0.29423 0.76233 0.0
C102 C 0.29502 0.19451 0.72116 0.0
O103 O 0.23902 0.28633 0.7002 0.0
O104 O 0.28483 0.29408 0.73347 0.0
N105 N 0.18112 0.24262 0.70922 0.0
C106 C 0.17811 0.22807 0.6785 0.0
C107 C 0.1257 0.23468 0.70162 0.0
N108 N 0.14829 0.24741 0.72326 0.0
N109 N 0.14366 0.22244 0.67322 0.0
C110 C 0.32689 0.29104 0.81275 0.0
C111 C 0.36872 0.24318 0.82801 0.0
N112 N 0.31733 0.26088 0.79943 0.0
N113 N 0.34336 0.23118 0.80889 0.0
N114 N 0.35882 0.2806 0.83096 0.0
H115 H 0.28937 0.33394 0.78265 0.0
H116 H 0.32576 0.34982 0.80505 0.0
H117 H 0.28747 0.33938 0.82776 0.0
C118 C 0.30622 0.33079 0.80641 0.0
C119 C 0.20954 0.21656 0.65483 0.0
H120 H 0.23165 0.23195 0.6597 0.0
H121 H 0.19979 0.2223 0.62811 0.0
H122 H 0.22087 0.18599 0.65808 0.0
O123 O 0.26062 0.2036 0.71391 0.0
O124 O 0.30819 0.21176 0.74425 0.0
C125 C 0.2663 0.3014 0.70573 0.0
O126 O 0.26071 0.21695 0.80671 0.0
O127 O 0.21319 0.21158 0.77463 0.0
Zn128 Zn 0.0423 0.98717 0.47953 0.0
O129 O 0.01059 0.95309 0.45597 0.0
C130 C 0.98349 0.05547 0.46678 0.0
Zn131 Zn -0.0002 0.99481 0.51877 0.0
C132 C 0.97929 0.94895 0.466 0.0
O133 O 0.96582 0.96527 0.49246 0.0
C134 C 0.06285 0.03232 0.53299 0.0
O135 O 0.02784 0.94524 0.54335 0.0
O136 O 0.07245 0.93939 0.5066 0.0
N137 N 0.96427 0.00607 0.55734 0.0
C138 C 0.94218 0.9863 0.5725 0.0
C139 C 0.93794 0.03689 0.59953 0.0
N140 N 0.96154 0.03752 0.57406 0.0
N141 N 0.9253 0.00517 0.59883 0.0
C142 C 0.0744 0.9849 0.40774 0.0
C143 C 0.13237 0.96838 0.41826 0.0
N144 N 0.0791 0.97801 0.44147 0.0
N145 N 0.11512 0.96725 0.44791 0.0
N146 N 0.10749 0.97952 0.3926 0.0
H147 H 0.01715 0.98128 0.40126 0.0
H148 H 0.04009 0.98757 0.36244 0.0
H149 H 0.02642 0.02598 0.39055 0.0
C150 C 0.03746 0.99535 0.38946 0.0
C151 C 0.93877 0.94779 0.56282 0.0
H152 H 0.96421 0.93251 0.55078 0.0
H153 H 0.91527 0.95034 0.5444 0.0
H154 H 0.93315 0.93132 0.58536 0.0
O155 O 0.0339 0.02395 0.54455 0.0
O156 O 0.07399 0.02123 0.50396 0.0
C157 C 0.05884 0.9275 0.53296 0.0
O158 O 0.01198 0.03575 0.45354 0.0
O159 O 0.97218 0.04453 0.49457 0.0
Zn160 Zn 0.27949 0.77132 0.76075 0.0
O161 O 0.24186 0.79353 0.72173 0.0
C162 C 0.2222 0.79156 0.8128 0.0
Zn163 Zn 0.24791 0.72725 0.76921 0.0
C164 C 0.21332 0.78089 0.71531 0.0
O165 O 0.20705 0.75367 0.73306 0.0
C166 C 0.31636 0.71586 0.8124 0.0
O167 O 0.27714 0.69686 0.72998 0.0
O168 O 0.3121 0.73795 0.72553 0.0
N169 N 0.21779 0.68771 0.77734 0.0
C170 C 0.22393 0.65095 0.77079 0.0
C171 C 0.16726 0.66858 0.78343 0.0
N172 N 0.18269 0.69846 0.7857 0.0
N173 N 0.19241 0.6383 0.77387 0.0
C174 C 0.31334 0.84051 0.76966 0.0
C175 C 0.3309 0.8505 0.71966 0.0
N176 N 0.30648 0.81293 0.75035 0.0
N177 N 0.31748 0.81907 0.7193 0.0
N178 N 0.32805 0.8646 0.75091 0.0
H179 H 0.2803 0.86228 0.81152 0.0
H180 H 0.3292 0.8548 0.81961 0.0
H181 H 0.30736 0.81525 0.81884 0.0
C182 C 0.30731 0.84308 0.80712 0.0
C183 C 0.26126 0.62715 0.7637 0.0
H184 H 0.28323 0.63754 0.77741 0.0
H185 H 0.26654 0.62857 0.73624 0.0
H186 H 0.26262 0.59748 0.7714 0.0
O187 O 0.28966 0.70083 0.80423 0.0
O188 O 0.31816 0.74756 0.79945 0.0
C189 C 0.30381 0.70783 0.71621 0.0
O190 O 0.24546 0.80476 0.79578 0.0
O191 O 0.2187 0.75841 0.80784 0.0
Zn192 Zn 0.51651 0.00843 0.03714 0.0
O193 O 0.48354 0.05291 0.06584 0.0
C194 C 0.46207 0.95991 0.04887 0.0
Zn195 Zn 0.47084 0.01789 -0.00137 0.0
C196 C 0.45078 0.06886 0.05595 0.0
O197 O 0.4377 0.05858 0.02865 0.0
C198 C 0.53578 0.95792 0.97895 0.0
O199 O 0.49441 0.05988 0.97707 0.0
O200 O 0.54244 0.04807 0.01227 0.0
N201 N 0.43032 0.02649 0.96163 0.0
C202 C 0.43278 0.02424 0.92765 0.0
C203 C 0.37632 0.02781 0.93965 0.0
N204 N 0.3951 0.02924 0.96901 0.0
N205 N 0.39937 0.02439 0.91326 0.0
C206 C 0.56818 0.01769 0.09774 0.0
C207 C 0.59817 0.96139 0.10695 0.0
N208 N 0.55671 -0.00345 0.07415 0.0
N209 N 0.57543 0.96161 0.07984 0.0
N210 N 0.59383 -0.0038 0.11881 0.0
H211 H 0.54661 0.07182 0.07351 0.0
H212 H 0.57841 0.07198 0.10882 0.0
H213 H 0.53216 0.06641 0.11638 0.0
C214 C 0.55573 0.05945 0.099 0.0
C215 C 0.46765 0.02267 0.90838 0.0
H216 H 0.48608 0.0383 0.92104 0.0
H217 H 0.46112 0.03436 0.88217 0.0
H218 H 0.48284 0.99318 0.90688 0.0
O219 O 0.5045 0.9771 0.96867 0.0
O220 O 0.54836 0.96409 0.00794 0.0
C221 C 0.52511 0.06655 0.98691 0.0
O222 O 0.49047 0.96934 0.06125 0.0
O223 O 0.44747 0.97551 0.02128 0.0
Zn224 Zn 0.25968 0.30344 0.25713 0.0
O225 O 0.30547 0.28701 0.28967 0.0
C226 C 0.29269 0.2529 0.20468 0.0
Zn227 Zn 0.23667 0.2525 0.26058 0.0
C228 C 0.30561 0.25548 0.30366 0.0
O229 O 0.28117 0.23752 0.29555 0.0
C230 C 0.18881 0.30182 0.21623 0.0
O231 O 0.20106 0.27067 0.30158 0.0
O232 O 0.22584 0.31994 0.29975 0.0
N233 N 0.23063 0.19878 0.26318 0.0
C234 C 0.20238 0.1812 0.26566 0.0
C235 C 0.25175 0.13933 0.25975 0.0
N236 N 0.26114 0.17268 0.25939 0.0
N237 N 0.21497 0.14359 0.26338 0.0
C238 C 0.29529 0.37169 0.24358 0.0
C239 C 0.25047 0.41691 0.25504 0.0
N240 N 0.26721 0.35667 0.25401 0.0
N241 N 0.23955 0.38476 0.26146 0.0
N242 N 0.28548 0.40949 0.24414 0.0
H243 H 0.33802 0.32126 0.24232 0.0
H244 H 0.35376 0.36343 0.23276 0.0
H245 H 0.32617 0.3457 0.20204 0.0
C246 C 0.33044 0.34932 0.22958 0.0
C247 C 0.16315 0.20115 0.27123 0.0
H248 H 0.15054 0.18606 0.29092 0.0
H249 H 0.14693 0.20237 0.24713 0.0
H250 H 0.16155 0.23028 0.27897 0.0
O251 O 0.19216 0.26819 0.22668 0.0
O252 O 0.21273 0.32021 0.22494 0.0
C253 C 0.20348 0.30224 0.3131 0.0
O254 O 0.29409 0.28545 0.21438 0.0
O255 O 0.27157 0.23515 0.21968 0.0
Zn256 Zn 0.50841 0.49297 0.0128 0.0
O257 O 0.52744 0.44613 0.04576 0.0
C258 C 0.57204 0.52641 0.0318 0.0
Zn259 Zn 0.55588 0.47707 0.97859 0.0
C260 C 0.55784 0.42446 0.03857 0.0
O261 O 0.57493 0.43185 0.01261 0.0
C262 C 0.5062 0.54579 0.953 0.0
O263 O 0.52469 0.44455 0.95231 0.0
O264 O 0.47677 0.46255 0.98479 0.0
N265 N 0.60075 0.45593 0.95003 0.0
C266 C 0.60732 0.4587 0.91671 0.0
C267 C 0.65691 0.42745 0.94069 0.0
N268 N 0.63139 0.43592 0.96477 0.0
N269 N 0.64256 0.44107 0.91009 0.0
C270 C 0.44691 0.49693 0.06546 0.0
C271 C 0.42774 0.55594 0.07026 0.0
N272 N 0.46548 0.51374 0.04316 0.0
N273 N 0.4534 0.55041 0.046 0.0
N274 N 0.42345 0.52274 0.0829 0.0
H275 H 0.45911 0.44137 0.04533 0.0
H276 H 0.42418 0.44888 0.07745 0.0
H277 H 0.47202 0.44424 0.08938 0.0
C278 C 0.4507 0.4554 0.06943 0.0
C279 C 0.57978 0.48125 0.8916 0.0
H280 H 0.55136 0.47919 0.89834 0.0
H281 H 0.58425 0.4716 0.86543 0.0
H282 H 0.58182 0.51104 0.89212 0.0
O283 O 0.53563 0.52307 0.94478 0.0
O284 O 0.49012 0.53972 0.98002 0.0
C285 C 0.49171 0.44365 0.9601 0.0
O286 O 0.54016 0.52267 0.04026 0.0
O287 O 0.58674 0.5105 0.00556 0.0
Zn288 Zn 0.77872 0.27667 0.25998 0.0
O289 O 0.74053 0.29144 0.21961 0.0
C290 C 0.71609 0.2918 0.30917 0.0
Zn291 Zn 0.75281 0.22841 0.27145 0.0
C292 C 0.71611 0.27297 0.21289 0.0
O293 O 0.71419 0.24438 0.23105 0.0
C294 C 0.81499 0.23231 0.3188 0.0
O295 O 0.7922 0.19839 0.23877 0.0
O296 O 0.81648 0.24653 0.22629 0.0
N297 N 0.73318 0.1816 0.28183 0.0
C298 C 0.72746 0.15413 0.2617 0.0
C299 C 0.70951 0.1424 0.3111 0.0
N300 N 0.72221 0.17417 0.31257 0.0
N301 N 0.71309 0.12902 0.27955 0.0
C302 C 0.78278 0.36033 0.25184 0.0
C303 C 0.84076 0.35619 0.24832 0.0
N304 N 0.79904 0.32355 0.25104 0.0
N305 N 0.83505 0.3211 0.24834 0.0
N306 N 0.80843 0.38148 0.25066 0.0
H307 H 0.72697 0.35766 0.23729 0.0
H308 H 0.73476 0.40454 0.24058 0.0
H309 H 0.73181 0.37657 0.27808 0.0
C310 C 0.74173 0.37564 0.25178 0.0
C311 C 0.73323 0.15317 0.22408 0.0
H312 H 0.73668 0.18031 0.2134 0.0
H313 H 0.70943 0.14529 0.2109 0.0
H314 H 0.75843 0.13157 0.21884 0.0
O315 O 0.79036 0.21412 0.31211 0.0
O316 O 0.81762 0.26045 0.30031 0.0
C317 C 0.81549 0.2124 0.22254 0.0
O318 O 0.74019 0.30609 0.2944 0.0
O319 O 0.7146 0.2582 0.30375 0.0
Zn320 Zn 0.00429 0.51111 0.52746 0.0
O321 O 0.96509 0.55066 0.55527 0.0
C322 C 0.95423 0.45713 0.53418 0.0
Zn323 Zn 0.9612 0.51792 0.4863 0.0
C324 C 0.93296 0.56617 0.54341 0.0
O325 O 0.92307 0.55776 0.514 0.0
C326 C 0.03226 0.46256 0.47064 0.0
O327 O 0.98382 0.56182 0.46611 0.0
O328 O 0.02645 0.55544 0.50665 0.0
N329 N 0.92473 0.52102 0.44549 0.0
C330 C 0.93434 0.52153 0.41363 0.0
C331 C 0.91815 0.51491 0.42931 0.0
N332 N 0.89147 0.51419 0.45234 0.0
N333 N 0.91591 0.50176 0.39573 0.0
C334 C 0.05003 0.52293 0.59195 0.0
C335 C 0.08496 0.46847 0.59928 0.0
N336 N 0.04182 0.50166 0.56681 0.0
N337 N 0.06352 0.46785 0.57146 0.0
N338 N 0.07675 0.50262 0.61278 0.0
H339 H 0.02322 0.5768 0.56983 0.0
H340 H 0.05401 0.57861 0.60563 0.0
H341 H 0.00975 0.5673 0.61228 0.0
C342 C 0.0334 0.56387 0.5949 0.0
C343 C 0.96903 0.53527 0.39809 0.0
H344 H 0.99485 0.52367 0.41287 0.0
H345 H 0.96368 0.56625 0.39872 0.0
H346 H 0.97297 0.52667 0.37137 0.0
O347 O -0.00028 0.47684 0.45952 0.0
O348 O 0.04251 0.47241 0.49921 0.0
C349 C 0.01133 0.57208 0.47957 0.0
O350 O 0.98219 0.46646 0.5476 0.0
O351 O 0.93898 0.47467 0.5077 0.0
Zn352 Zn 0.72439 0.75116 0.23545 0.0
O353 O 0.74098 0.78731 0.19886 0.0
C354 C 0.7939 0.69477 0.22286 0.0
Zn355 Zn 0.77046 0.75677 0.27037 0.0
C356 C 0.76857 0.80155 0.20564 0.0
O357 O 0.78553 0.79403 0.23415 0.0
C358 C 0.72613 0.70628 0.30008 0.0
O359 O 0.73431 0.80157 0.29356 0.0
O360 O 0.68912 0.7974 0.25815 0.0
N361 N 0.81305 0.76177 0.30204 0.0
C362 C 0.82238 0.79191 0.31566 0.0
C363 C 0.86198 0.7437 0.33404 0.0
N364 N 0.83771 0.73185 0.31344 0.0
N365 N 0.8527 0.78125 0.33601 0.0
C366 C 0.68003 0.72915 0.17453 0.0
C367 C 0.6262 0.73707 0.19495 0.0
N368 N 0.68126 0.74497 0.20492 0.0
N369 N 0.64754 0.75061 0.21722 0.0
N370 N 0.64587 0.7234 0.16783 0.0
H371 H 0.73491 0.73184 0.15842 0.0
H372 H 0.70467 0.72215 0.12542 0.0
H373 H 0.7235 0.68613 0.1564 0.0
C374 C 0.71282 0.71673 0.15256 0.0
C375 C 0.80328 0.83183 0.30767 0.0
H376 H 0.78728 0.83467 0.28344 0.0
H377 H 0.82381 0.8498 0.30635 0.0
H378 H 0.78407 0.84202 0.32831 0.0
O379 O 0.75451 0.71943 0.30637 0.0
O380 O 0.70851 0.71484 0.27203 0.0
C381 C 0.70095 0.81298 0.28321 0.0
O382 O 0.75995 0.70467 0.21405 0.0
O383 O 0.80636 0.71179 0.24656 0.0
Zn384 Zn 0.71981 0.25193 0.77145 0.0
O385 O 0.75077 0.19959 0.79128 0.0
C386 C 0.77181 0.29005 0.80391 0.0
Zn387 Zn 0.76608 0.25466 0.73677 0.0
C388 C 0.78336 0.18637 0.78127 0.0
O389 O 0.79669 0.20388 0.75813 0.0
C390 C 0.70325 0.32038 0.72653 0.0
O391 O 0.74484 0.22543 0.6989 0.0
O392 O 0.69825 0.22416 0.73232 0.0
N393 N 0.81044 0.25963 0.70843 0.0
C394 C 0.81283 0.27572 0.67766 0.0
C395 C 0.86707 0.26263 0.70008 0.0
N396 N 0.84423 0.2512 0.72217 0.0
N397 N 0.8481 0.27845 0.67198 0.0
C398 C 0.67092 0.23135 0.83002 0.0
C399 C 0.61685 0.25444 0.80961 0.0
N400 N 0.67493 0.24889 0.80025 0.0
N401 N 0.64126 0.26364 0.78792 0.0
N402 N 0.63464 0.23427 0.8364 0.0
H403 H 0.7278 0.21978 0.84767 0.0
H404 H 0.70773 0.17923 0.84289 0.0
H405 H 0.69628 0.2089 0.87828 0.0
C406 C 0.70252 0.20868 0.85098 0.0
C407 C 0.78101 0.28686 0.6527 0.0
H408 H 0.76099 0.26869 0.6558 0.0
H409 H 0.79099 0.28511 0.62628 0.0
H410 H 0.76625 0.31605 0.65705 0.0
O411 O 0.73521 0.30591 0.71589 0.0
O412 O 0.68992 0.30388 0.75042 0.0
C413 C 0.71415 0.21645 0.70425 0.0
O414 O 0.74186 0.27992 0.81015 0.0
O415 O 0.78664 0.28337 0.77528 0.0
Zn416 Zn 0.73996 0.77983 0.75838 0.0
O417 O 0.78456 0.75466 0.78968 0.0
C418 C 0.76608 0.72997 0.70278 0.0
Zn419 Zn 0.7118 0.73246 0.76053 0.0
C420 C 0.78517 0.72103 0.79866 0.0
O421 O 0.75851 0.70611 0.7902 0.0
C422 C 0.66739 0.79159 0.71973 0.0
O423 O 0.68061 0.75185 0.80551 0.0
O424 O 0.70865 0.79853 0.80058 0.0
N425 N 0.69345 0.68429 0.75859 0.0
C426 C 0.69925 0.65385 0.77944 0.0
C427 C 0.67517 0.63968 0.73337 0.0
N428 N 0.67839 0.67551 0.73003 0.0
N429 N 0.68863 0.62524 0.76395 0.0
C430 C 0.78536 0.84102 0.74614 0.0
C431 C 0.74685 0.88926 0.76243 0.0
N432 N 0.75594 0.82932 0.75813 0.0
N433 N 0.73228 0.85928 0.76863 0.0
N434 N 0.78036 0.87847 0.74871 0.0
H435 H 0.82346 0.78792 0.74144 0.0
H436 H 0.84233 0.8282 0.73068 0.0
H437 H 0.8099 0.81403 0.70212 0.0
C438 C 0.81727 0.81634 0.72927 0.0
C439 C 0.71316 0.65314 0.81546 0.0
H440 H 0.70713 0.68176 0.82563 0.0
H441 H 0.74356 0.6422 0.81652 0.0
H442 H 0.70015 0.63463 0.83166 0.0
O443 O 0.66634 0.75893 0.73034 0.0
O444 O 0.69499 0.80539 0.7272 0.0
C445 C 0.68552 0.7833 0.81559 0.0
O446 O 0.77158 0.76009 0.71518 0.0
O447 O 0.74228 0.7142 0.7162 0.0
Zn448 Zn 0.5089 0.52349 0.49447 0.0
O449 O 0.54632 0.50277 0.53565 0.0
C450 C 0.53622 0.45418 0.45655 0.0
Zn451 Zn 0.47649 0.47964 0.50399 0.0
C452 C 0.53995 0.47544 0.55338 0.0
O453 O 0.51295 0.46093 0.54525 0.0
C454 C 0.44474 0.52733 0.44558 0.0
O455 O 0.44323 0.51717 0.53622 0.0
O456 O 0.47575 0.55984 0.52737 0.0
N457 N 0.44864 0.43876 0.51582 0.0
C458 C 0.41352 0.44058 0.52531 0.0
C459 C 0.44233 0.3836 0.53142 0.0
N460 N 0.46639 0.40321 0.51927 0.0
N461 N 0.40893 0.40645 0.53542 0.0
C462 C 0.57178 0.56234 0.4718 0.0
C463 C 0.54361 0.61969 0.46764 0.0
N464 N 0.53699 0.56437 0.48242 0.0
N465 N 0.51966 0.60013 0.48012 0.0
N466 N 0.57653 0.59658 0.46217 0.0
H467 H 0.59654 0.50675 0.4916 0.0
H468 H 0.62903 0.53401 0.47732 0.0
H469 H 0.60259 0.51456 0.44696 0.0
C470 C 0.60166 0.5273 0.47217 0.0
C471 C 0.38322 0.47528 0.52358 0.0
H472 H 0.3803 0.48797 0.54881 0.0
H473 H 0.35646 0.46806 0.51675 0.0
H474 H 0.38918 0.49606 0.50481 0.0
O475 O 0.44023 0.49897 0.46282 0.0
O476 O 0.4709 0.54319 0.45363 0.0
C477 C 0.4493 0.54934 0.54193 0.0
O478 O 0.541 0.48691 0.46157 0.0
O479 O 0.51081 0.44263 0.47189 0.0
Zn480 Zn 0.01569 0.52358 0.00499 0.0
O481 O -0.00402 0.56469 0.96703 0.0
C482 C 0.95143 0.5479 0.04836 0.0
Zn483 Zn 0.97348 0.49029 -0.00499 0.0
C484 C 0.96805 0.55939 0.9504 0.0
O485 O 0.954 0.53166 0.95792 0.0
C486 C 0.02048 0.45435 0.04957 0.0
O487 O 0.00656 0.45886 0.95783 0.0
O488 O 0.04894 0.49072 0.96874 0.0
N489 N 0.92976 0.46733 0.98404 0.0
C490 C 0.92732 0.43405 0.97161 0.0
C491 C 0.87231 0.46672 0.97507 0.0
N492 N 0.89557 0.48747 0.98648 0.0
N493 N 0.89155 0.43307 0.96551 0.0
C494 C 0.06001 0.58139 0.02831 0.0
C495 C 0.11542 0.54905 0.02893 0.0
N496 N 0.05886 0.54739 0.01664 0.0
N497 N 0.09334 0.52744 0.01673 0.0
N498 N 0.09516 0.58303 0.03651 0.0
H499 H 0.00629 0.61185 0.00995 0.0
H500 H 0.03547 0.64061 0.02767 0.0
H501 H 0.01376 0.61212 0.05499 0.0
C502 C 0.02701 0.6134 0.03015 0.0
C503 C 0.95979 0.40208 0.96701 0.0
H504 H 0.97155 0.40493 0.94168 0.0
H505 H 0.95122 0.37488 0.96871 0.0
H506 H 0.9817 0.40232 0.98647 0.0
O507 O 0.99338 0.44874 0.03195 0.0
O508 O 0.03439 0.48246 0.04301 0.0
C509 C 0.03821 0.46554 0.95215 0.0
O510 O 0.9824 0.5555 0.04155 0.0
O511 O 0.94087 0.52231 0.03228 0.0
H512 H 0.24546 0.20323 0.87026 0.0
H513 H 0.11528 0.06119 0.91167 0.0
H514 H 0.19111 0.15072 0.79367 0.0
H515 H 0.12562 0.15043 0.97782 0.0
H516 H 0.15872 0.08095 0.87293 0.0
H517 H 0.21671 0.17122 0.91433 0.0
C518 C 0.22812 0.18437 0.86275 0.0
C519 C 0.22035 0.17976 0.82834 0.0
C520 C 0.15205 0.09576 0.89625 0.0
C521 C 0.18784 0.14316 0.87833 0.0
C522 C 0.12768 0.08423 0.9185 0.0
C523 C 0.11751 0.10394 0.94813 0.0
C524 C 0.16635 0.12719 0.90372 0.0
C525 C 0.13315 0.13453 0.95525 0.0
C526 C 0.21161 0.16638 0.88785 0.0
C527 C 0.19752 0.15526 0.81993 0.0
N528 N 0.15684 0.14536 0.93311 0.0
N529 N 0.18198 0.13792 0.84478 0.0
H530 H 0.02779 0.93845 0.11199 0.0
H531 H 0.22998 0.87148 0.18723 0.0
H532 H 0.11831 0.98361 0.07456 0.0
H533 H 0.13292 0.85569 0.23959 0.0
H534 H 0.19036 0.91743 0.14891 0.0
H535 H 0.06598 0.91149 0.16112 0.0
C536 C 0.05577 0.94274 0.1142 0.0
C537 C 0.07017 0.96277 0.08898 0.0
C538 C 0.17784 0.90446 0.16923 0.0
C539 C 0.11416 0.9319 0.14521 0.0
C540 C 0.20044 0.87817 0.19108 0.0
C541 C 0.18465 0.85892 0.216 0.0
C542 C 0.13924 0.91114 0.17221 0.0
C543 C 0.14628 0.86934 0.22035 0.0
C544 C 0.07747 0.92763 0.14243 0.0
C545 C 0.10633 0.96807 0.09339 0.0
N546 N 0.12481 0.89417 0.1982 0.0
N547 N 0.12739 0.95216 0.12076 0.0
H548 H 0.41932 0.89981 0.40556 0.0
H549 H 0.24467 0.81128 0.37022 0.0
H550 H 0.32971 0.90995 0.47541 0.0
H551 H 0.34304 0.79261 0.31005 0.0
H552 H 0.27576 0.844 0.41143 0.0
H553 H 0.39266 0.85685 0.37266 0.0
C554 C 0.39461 0.892 0.4146 0.0
C555 C 0.37737 0.90739 0.4439 0.0
C556 C 0.29054 0.83238 0.38934 0.0
C557 C 0.34526 0.85963 0.40516 0.0
C558 C 0.27286 0.81374 0.36586 0.0
C559 C 0.29113 0.79972 0.33646 0.0
C560 C 0.32661 0.83687 0.38319 0.0
C561 C 0.32766 0.80345 0.33209 0.0
C562 C 0.37898 0.86783 0.39548 0.0
C563 C 0.34399 0.89816 0.45314 0.0
N564 N 0.34403 0.82186 0.35505 0.0
N565 N 0.32882 0.87492 0.43372 0.0
H566 H 0.27616 0.14308 0.67901 0.0
H567 H 0.47562 0.09149 0.59589 0.0
H568 H 0.37025 0.18352 0.71579 0.0
H569 H 0.38337 0.04462 0.56485 0.0
H570 H 0.43838 0.12357 0.64135 0.0
H571 H 0.31599 0.10424 0.63902 0.0
C572 C 0.30526 0.14363 0.6788 0.0
C573 C 0.31978 0.16697 0.70044 0.0
C574 C 0.42633 0.10617 0.62466 0.0
C575 C 0.36564 0.1226 0.65462 0.0
C576 C 0.44752 0.08804 0.59853 0.0
C577 C 0.43249 0.06567 0.57624 0.0
C578 C 0.38977 0.10203 0.62847 0.0
C579 C 0.39609 0.0617 0.58131 0.0
C580 C 0.32804 0.12137 0.65599 0.0
C581 C 0.35786 0.16601 0.6995 0.0
N582 N 0.37595 0.07985 0.60675 0.0
N583 N 0.37941 0.14451 0.67669 0.0
H584 H 0.13179 0.8935 0.52728 0.0
H585 H 0.14152 0.77605 0.70198 0.0
H586 H 0.03504 0.88999 0.58585 0.0
H587 H 0.23161 0.81965 0.66125 0.0
H588 H 0.10292 0.80327 0.65229 0.0
H589 H 0.1695 0.84977 0.56853 0.0
C590 C 0.11837 0.88299 0.54845 0.0
C591 C 0.08043 0.89595 0.55362 0.0
C592 C 0.13125 0.80652 0.6543 0.0
C593 C 0.12329 0.84629 0.60076 0.0
C594 C 0.15315 0.79118 0.68255 0.0
C595 C 0.18948 0.79624 0.68587 0.0
C596 C 0.14622 0.82629 0.62916 0.0
C597 C 0.20348 0.81571 0.65995 0.0
C598 C 0.13991 0.85821 0.57203 0.0
C599 C 0.06439 0.88119 0.58132 0.0
N600 N 0.18179 0.83006 0.63269 0.0
N601 N 0.08603 0.8574 0.60418 0.0
H602 H 0.39533 0.88078 0.74861 0.0
H603 H 0.33627 0.04854 0.87594 0.0
H604 H 0.28298 0.92398 0.77785 0.0
H605 H 0.44182 0.97002 0.87649 0.0
H606 H 0.31825 0.01952 0.82443 0.0
H607 H 0.41435 0.93181 0.77869 0.0
C608 C 0.37465 0.90176 0.76062 0.0
C609 C 0.33789 0.89819 0.76168 0.0
C610 C 0.34585 0.00977 0.83532 0.0
C611 C 0.35896 0.95591 0.79583 0.0
C612 C 0.35607 0.0262 0.86459 0.0
C613 C 0.391 0.01249 0.88008 0.0
C614 C 0.37085 0.97951 0.82162 0.0
C615 C 0.41547 0.983 0.86478 0.0
C616 C 0.38537 0.93065 0.77779 0.0
C617 C 0.31175 0.92578 0.77733 0.0
N618 N 0.40486 0.96745 0.83656 0.0
N619 N 0.32286 0.95332 0.79435 0.0
H620 H 0.37645 0.09778 0.04897 0.0
H621 H 0.36564 0.25249 0.19133 0.0
H622 H 0.47271 0.11006 0.10712 0.0
H623 H 0.27285 0.20835 0.15739 0.0
H624 H 0.40563 0.21012 0.15274 0.0
H625 H 0.33855 0.14757 0.08111 0.0
C626 C 0.38971 0.11096 0.06849 0.0
C627 C 0.42786 0.09932 0.07557 0.0
C628 C 0.37639 0.2102 0.15348 0.0
C629 C 0.38441 0.15692 0.11238 0.0
C630 C 0.35356 0.23462 0.17515 0.0
C631 C 0.31595 0.23388 0.17743 0.0
C632 C 0.36119 0.18551 0.13371 0.0
C633 C 0.30173 0.20974 0.1564 0.0
C634 C 0.36799 0.13944 0.08685 0.0
C635 C 0.44337 0.11772 0.10111 0.0
N636 N 0.3243 0.18659 0.13552 0.0
N637 N 0.42161 0.14562 0.11861 0.0
H638 H 0.16605 0.94967 0.35485 0.0
H639 H 0.14289 0.14056 0.24746 0.0
H640 H 0.07118 0.04217 0.35723 0.0
H641 H 0.24631 0.07463 0.28856 0.0
H642 H 0.11208 0.09124 0.26629 0.0
H643 H 0.19034 0.98226 0.30826 0.0
C644 C 0.14964 0.976 0.34469 0.0
C645 C 0.11643 0.99297 0.3599 0.0
C646 C 0.14165 0.08754 0.27062 0.0
C647 C 0.14381 0.03017 0.30702 0.0
C648 C 0.15912 0.11609 0.26067 0.0
C649 C 0.19679 0.11298 0.26863 0.0
C650 C 0.16229 0.05543 0.28776 0.0
C651 C 0.21695 0.07885 0.28297 0.0
C652 C 0.16344 0.9945 0.3182 0.0
C653 C 0.09624 0.02727 0.34595 0.0
N654 N 0.19935 0.05167 0.29262 0.0
N655 N 0.11051 0.04495 0.3206 0.0
H656 H 0.86139 0.23483 0.17632 0.0
H657 H 0.91439 0.03249 0.09546 0.0
H658 H 0.82447 0.13749 0.21356 0.0
H659 H 0.95629 0.12684 0.05838 0.0
H660 H 0.88114 0.07139 0.13881 0.0
H661 H 0.89742 0.19621 0.1335 0.0
C662 C 0.86106 0.20532 0.17564 0.0
C663 C 0.83968 0.18937 0.19831 0.0
C664 C 0.89746 0.08374 0.12116 0.0
C665 C 0.88045 0.14531 0.14948 0.0
C666 C 0.91617 0.06158 0.09612 0.0
C667 C 0.93766 0.0766 0.07296 0.0
C668 C 0.90027 0.12126 0.12315 0.0
C669 C 0.93985 0.11423 0.0757 0.0
C670 C 0.88151 0.18336 0.15116 0.0
C671 C 0.84022 0.15105 0.19635 0.0
N672 N 0.92127 0.13537 0.10038 0.0
N673 N 0.86014 0.1304 0.17227 0.0
H674 H 0.07586 0.59478 0.4946 0.0
H675 H 0.07016 0.7062 0.31921 0.0
H676 H 0.98109 0.61743 0.42575 0.0
H677 H 0.14191 0.72342 0.40195 0.0
H678 H 0.03918 0.67096 0.35778 0.0
H679 H 0.10289 0.63938 0.46138 0.0
C680 C 0.06061 0.60929 0.47271 0.0
C681 C 0.0265 0.60173 0.4625 0.0
C682 C 0.06177 0.68239 0.36755 0.0
C683 C 0.05731 0.65231 0.42446 0.0
C684 C 0.07951 0.70258 0.34551 0.0
C685 C 0.10963 0.71691 0.35691 0.0
C686 C 0.07427 0.67606 0.40142 0.0
C687 C 0.12026 0.7114 0.39142 0.0
C688 C 0.07603 0.63472 0.45382 0.0
C689 C 0.00785 0.62155 0.43409 0.0
N690 N 0.10288 0.69098 0.41241 0.0
N691 N 0.02368 0.64553 0.41588 0.0
H692 H 0.55903 0.97329 0.59594 0.0
H693 H 0.62066 0.76747 0.67497 0.0
H694 H 0.52058 0.88048 0.55372 0.0
H695 H 0.64562 0.86669 0.71794 0.0
H696 H 0.57711 0.80754 0.63446 0.0
H697 H 0.58467 0.93421 0.6445 0.0
C698 C 0.55626 0.9444 0.59686 0.0
C699 C 0.53852 0.92968 0.57056 0.0
C700 C 0.59169 0.82041 0.65318 0.0
C701 C 0.56797 0.88444 0.62629 0.0
C702 C 0.61639 0.79766 0.6762 0.0
C703 C 0.63717 0.81405 0.69899 0.0
C704 C 0.58803 0.85944 0.6535 0.0
C705 C 0.63073 0.85307 0.70006 0.0
C706 C 0.57061 0.92211 0.62482 0.0
C707 C 0.53464 0.89249 0.57346 0.0
N708 N 0.60696 0.87441 0.67738 0.0
N709 N 0.5499 0.87073 0.60077 0.0
H710 H 0.41995 0.43743 0.96766 0.0
H711 H 0.43188 0.27847 0.82988 0.0
H712 H 0.51736 0.39583 0.90941 0.0
H713 H 0.3304 0.33319 0.87589 0.0
H714 H 0.465 0.31828 0.86175 0.0
H715 H 0.38746 0.39693 0.93658 0.0
C716 C 0.43448 0.41985 0.94829 0.0
C717 C 0.47139 0.42003 0.94108 0.0
C718 C 0.43544 0.32175 0.86474 0.0
C719 C 0.43448 0.37352 0.9056 0.0
C720 C 0.41671 0.29901 0.8467 0.0
C721 C 0.37843 0.30336 0.84985 0.0
C722 C 0.41568 0.34858 0.88638 0.0
C723 C 0.35977 0.32994 0.87209 0.0
C724 C 0.41592 0.39674 0.93056 0.0
C725 C 0.48887 0.39663 0.91576 0.0
N726 N 0.37858 0.35164 0.88953 0.0
N727 N 0.47027 0.37424 0.89899 0.0
H728 H 0.92579 0.77906 0.33791 0.0
H729 H 0.90925 0.93805 0.47607 0.0
H730 H 0.82209 0.83421 0.37979 0.0
H731 H 0.00488 0.90352 0.41384 0.0
H732 H 0.87823 0.89584 0.44532 0.0
H733 H 0.95726 0.81968 0.37062 0.0
C734 C 0.9098 0.79981 0.35406 0.0
C735 C 0.87141 0.80408 0.35579 0.0
C736 C 0.90598 0.89761 0.43841 0.0
C737 C 0.90674 0.8502 0.39325 0.0
C738 C 0.92368 0.92165 0.45594 0.0
C739 C 0.95964 0.92436 0.44744 0.0
C740 C 0.92455 0.87591 0.41249 0.0
C741 C 0.9771 0.90242 0.42118 0.0
C742 C 0.92758 0.82302 0.37255 0.0
C743 C 0.85164 0.83097 0.37718 0.0
N744 N 0.95942 0.87904 0.40471 0.0
N745 N 0.86954 0.85311 0.39512 0.0
H746 H 0.39546 0.53269 0.58192 0.0
H747 H 0.36578 0.72003 0.68522 0.0
H748 H 0.452 0.62114 0.55791 0.0
H749 H 0.2889 0.64668 0.68526 0.0
H750 H 0.40048 0.68269 0.64108 0.0
H751 H 0.35877 0.57258 0.62274 0.0
C752 C 0.39982 0.56068 0.58486 0.0
C753 C 0.42648 0.57374 0.56613 0.0
C754 C 0.37598 0.67487 0.6508 0.0
C755 C 0.38513 0.61934 0.61349 0.0
C756 C 0.35623 0.69605 0.67602 0.0
C757 C 0.32474 0.68602 0.68933 0.0
C758 C 0.36422 0.64342 0.63907 0.0
C759 C 0.31346 0.6549 0.67634 0.0
C760 C 0.37896 0.58342 0.60833 0.0
C761 C 0.43162 0.61 0.57175 0.0
N762 N 0.33332 0.63456 0.65203 0.0
N763 N 0.41118 0.63157 0.59511 0.0
H764 H 0.58706 0.09405 0.00213 0.0
H765 H 0.58724 0.1914 0.82018 0.0
H766 H 0.4985 0.1027 0.92749 0.0
H767 H 0.64257 0.22859 0.90549 0.0
H768 H 0.55943 0.15277 0.85875 0.0
H769 H 0.61324 0.13791 0.96688 0.0
C770 C 0.57308 0.10521 0.9785 0.0
C771 C 0.54072 0.09442 0.96762 0.0
C772 C 0.57775 0.16927 0.86911 0.0
C773 C 0.57057 0.14393 0.92736 0.0
C774 C 0.59356 0.19127 0.84712 0.0
C775 C 0.61795 0.21233 0.85962 0.0
C776 C 0.58651 0.16808 0.90396 0.0
C777 C 0.62516 0.21145 0.89475 0.0
C778 C 0.58795 0.13025 0.95853 0.0
C779 C 0.52362 0.1099 0.93687 0.0
N780 N 0.60977 0.1893 0.9158 0.0
N781 N 0.53894 0.13351 0.91774 0.0
H782 H 0.04063 0.4766 0.10992 0.0
H783 H 0.1444 0.27169 0.17326 0.0
H784 H 0.03206 0.37785 0.05563 0.0
H785 H 0.159 0.37576 0.2147 0.0
H786 H 0.09297 0.30729 0.13713 0.0
H787 H 0.07207 0.43714 0.15665 0.0
C788 C 0.04535 0.44641 0.10807 0.0
C789 C 0.0348 0.43017 0.07888 0.0
C790 C 0.10727 0.32208 0.15448 0.0
C791 C 0.07153 0.38476 0.13167 0.0
C792 C 0.1365 0.3019 0.17492 0.0
C793 C 0.15633 0.32108 0.19616 0.0
C794 C 0.09791 0.36136 0.15599 0.0
C795 C 0.14501 0.36003 0.19795 0.0
C796 C 0.0632 0.42386 0.13471 0.0
C797 C 0.04045 0.3911 0.0778 0.0
N798 N 0.11671 0.37884 0.17797 0.0
N799 N 0.05934 0.36945 0.10369 0.0
H800 H 0.70455 0.46766 0.91361 0.0
H801 H 0.63898 0.58249 0.75383 0.0
H802 H 0.63126 0.43071 0.84267 0.0
H803 H 0.74649 0.58039 0.79845 0.0
H804 H 0.64078 0.52073 0.78002 0.0
H805 H 0.7287 0.49974 0.86739 0.0
C806 C 0.69417 0.4656 0.88803 0.0
C807 C 0.6642 0.44878 0.88206 0.0
C808 C 0.66431 0.53346 0.78363 0.0
C809 C 0.69071 0.48629 0.82934 0.0
C810 C 0.66308 0.56877 0.76896 0.0
C811 C 0.69163 0.58728 0.77576 0.0
C812 C 0.69416 0.51694 0.80545 0.0
C813 C 0.72282 0.56806 0.79455 0.0
C814 C 0.70787 0.48401 0.8616 0.0
C815 C 0.65249 0.4459 0.84846 0.0
N816 N 0.72289 0.53426 0.8095 0.0
N817 N 0.6647 0.46588 0.82333 0.0
H818 H 0.6441 0.26628 0.20662 0.0
H819 H 0.53253 0.40192 0.09905 0.0
H820 H 0.72926 0.30783 0.1547 0.0
H821 H 0.62254 0.37416 0.02938 0.0
H822 H 0.56727 0.35496 0.13965 0.0
H823 H 0.59957 0.29447 0.16105 0.0
C824 C 0.65342 0.28092 0.18541 0.0
C825 C 0.69003 0.28545 0.18444 0.0
C826 C 0.57881 0.3584 0.11504 0.0
C827 C 0.63996 0.31724 0.13292 0.0
C828 C 0.55916 0.38542 0.09198 0.0
C829 C 0.57499 0.39244 0.0611 0.0
C830 C 0.6145 0.33877 0.10704 0.0
C831 C 0.60953 0.37016 0.05315 0.0
C832 C 0.62807 0.29714 0.15971 0.0
C833 C 0.70104 0.30437 0.15656 0.0
N834 N 0.62847 0.34489 0.07631 0.0
N835 N 0.67605 0.31961 0.13186 0.0
H836 H 0.91825 0.5275 0.33206 0.0
H837 H 0.76493 0.41753 0.29997 0.0
H838 H 0.84456 0.49925 0.40645 0.0
H839 H 0.84811 0.43057 0.22833 0.0
H840 H 0.77521 0.47168 0.32946 0.0
H841 H 0.87522 0.51814 0.28699 0.0
C842 C 0.89195 0.52142 0.33891 0.0
C843 C 0.88493 0.51412 0.37291 0.0
C844 C 0.79038 0.46362 0.3066 0.0
C845 C 0.83647 0.50155 0.32178 0.0
C846 C 0.78409 0.43278 0.28928 0.0
C847 C 0.8058 0.41926 0.26152 0.0
C848 C 0.81944 0.4803 0.29684 0.0
C849 C 0.83116 0.43984 0.24989 0.0
C850 C 0.86759 0.51561 0.3132 0.0
C851 C 0.85094 0.50544 0.38057 0.0
N852 N 0.838 0.46875 0.2681 0.0
N853 N 0.82836 0.49848 0.35517 0.0
H854 H 0.60441 0.56375 0.40499 0.0
H855 H 0.73548 0.70653 0.36913 0.0
H856 H 0.6123 0.65229 0.47278 0.0
H857 H 0.68326 0.65553 0.28995 0.0
H858 H 0.70428 0.67495 0.41166 0.0
H859 H 0.64769 0.58523 0.36707 0.0
C860 C 0.61618 0.58706 0.41231 0.0
C861 C 0.60542 0.60601 0.4422 0.0
C862 C 0.7001 0.6704 0.38496 0.0
C863 C 0.65418 0.63113 0.3988 0.0
C864 C 0.71802 0.68815 0.36074 0.0
C865 C 0.71172 0.68375 0.32601 0.0
C866 C 0.67641 0.64757 0.3743 0.0
C867 C 0.68863 0.65987 0.31647 0.0
C868 C 0.64046 0.59956 0.39052 0.0
C869 C 0.6203 0.63694 0.45 0.0
N870 N 0.6718 0.64268 0.34049 0.0
N871 N 0.64401 0.64862 0.42839 0.0
H872 H 0.83927 0.30742 0.79995 0.0
H873 H 0.8282 0.4103 0.97697 0.0
H874 H 0.74659 0.31466 0.86639 0.0
H875 H 0.91892 0.39953 0.90832 0.0
H876 H 0.79878 0.37222 0.93928 0.0
H877 H 0.86996 0.33818 0.84181 0.0
C878 C 0.82529 0.31556 0.82339 0.0
C879 C 0.79019 0.30868 0.82961 0.0
C880 C 0.82548 0.37763 0.93287 0.0
C881 C 0.82538 0.34406 0.8779 0.0
C882 C 0.84221 0.39917 0.95435 0.0
C883 C 0.87645 0.40706 0.94617 0.0
C884 C 0.84306 0.36444 0.90288 0.0
C885 C 0.89333 0.39282 0.91633 0.0
C886 C 0.84294 0.33306 0.8474 0.0
C887 C 0.77362 0.31959 0.86058 0.0
N888 N 0.87641 0.37232 0.89575 0.0
N889 N 0.79133 0.33698 0.88361 0.0
H890 H 0.80959 0.85381 0.21622 0.0
H891 H 0.87923 0.85535 0.02877 0.0
H892 H 0.76069 0.8004 0.13653 0.0
H893 H 0.88702 0.94268 0.09793 0.0
H894 H 0.83653 0.83337 0.06748 0.0
H895 H 0.83919 0.88588 0.17327 0.0
C896 C 0.80479 0.84917 0.18964 0.0
C897 C 0.7828 0.82437 0.17987 0.0
C898 C 0.84696 0.85786 0.07379 0.0
C899 C 0.81708 0.86038 0.13067 0.0
C900 C 0.87122 0.87028 0.05178 0.0
C901 C 0.88596 0.90116 0.06001 0.0
C902 C 0.83837 0.87587 0.10463 0.0
C903 C 0.87544 0.91938 0.09032 0.0
C904 C 0.82158 0.86754 0.16514 0.0
C905 C 0.77737 0.81942 0.14508 0.0
N906 N 0.85265 0.90617 0.11176 0.0
N907 N 0.79492 0.83681 0.12169 0.0
H908 H 0.76399 0.13835 0.82884 0.0
H909 H 0.9702 0.07449 0.89813 0.0
H910 H 0.85791 0.16094 0.77555 0.0
H911 H 0.8828 0.0247 0.93591 0.0
H912 H 0.92921 0.1043 0.85162 0.0
H913 H 0.8063 0.09371 0.86634 0.0
C914 C 0.79342 0.13359 0.82473 0.0
C915 C 0.80744 0.15405 0.79951 0.0
C916 C 0.91902 0.08655 0.86983 0.0
C917 C 0.85594 0.10324 0.84233 0.0
C918 C 0.94236 0.06971 0.89653 0.0
C919 C 0.9297 0.04744 0.92107 0.0
C920 C 0.88248 0.08167 0.86793 0.0
C921 C 0.89355 0.04182 0.91753 0.0
C922 C 0.81757 0.10801 0.84608 0.0
C923 C 0.84583 0.14617 0.7949 0.0
N924 N 0.87095 0.0593 0.89167 0.0
N925 N 0.86876 0.12186 0.81647 0.0
H926 H 0.64793 0.19575 0.70734 0.0
H927 H 0.66004 0.10766 0.52311 0.0
H928 H 0.73939 0.19611 0.64091 0.0
H929 H 0.57095 0.1082 0.59199 0.0
H930 H 0.68849 0.14321 0.56402 0.0
H931 H 0.61807 0.16646 0.66349 0.0
C932 C 0.6618 0.18959 0.68352 0.0
C933 C 0.69631 0.19819 0.67784 0.0
C934 C 0.66237 0.13608 0.56987 0.0
C935 C 0.66213 0.16467 0.62733 0.0
C936 C 0.64619 0.116 0.54655 0.0
C937 C 0.61265 0.10607 0.55384 0.0
C938 C 0.64498 0.1457 0.6008 0.0
C939 C 0.59596 0.11667 0.58475 0.0
C940 C 0.64466 0.17293 0.6584 0.0
C941 C 0.71285 0.18975 0.64638 0.0
N942 N 0.61235 0.13581 0.6071 0.0
N943 N 0.69561 0.17333 0.62227 0.0
H944 H 0.5141 0.92663 0.39615 0.0
H945 H 0.71909 0.86152 0.32862 0.0
H946 H 0.60589 0.9733 0.42898 0.0
H947 H 0.62498 0.8298 0.28134 0.0
H948 H 0.67739 0.90379 0.36458 0.0
H949 H 0.55344 0.89161 0.35329 0.0
C950 C 0.54246 0.92956 0.39435 0.0
C951 C 0.55681 0.95263 0.41645 0.0
C952 C 0.66574 0.88789 0.34615 0.0
C953 C 0.60189 0.9128 0.36744 0.0
C954 C 0.68961 0.86368 0.32559 0.0
C955 C 0.67557 0.8419 0.30209 0.0
C956 C 0.62746 0.89004 0.34357 0.0
C957 C 0.63701 0.8461 0.29914 0.0
C958 C 0.56485 0.90972 0.36975 0.0
C959 C 0.59365 0.95573 0.41263 0.0
N960 N 0.61428 0.86938 0.31994 0.0
N961 N 0.61494 0.93584 0.38881 0.0
H962 H 0.79956 0.20526 0.37982 0.0
H963 H 0.00204 0.0909 0.40962 0.0
H964 H 0.88944 0.22842 0.32099 0.0
H965 H 0.91846 0.09982 0.48588 0.0
H966 H 0.96359 0.14501 0.37903 0.0
H967 H 0.84415 0.17135 0.422 0.0
C968 C 0.82881 0.20371 0.37624 0.0
C969 C 0.84113 0.21905 0.34696 0.0
C970 C 0.95403 0.13545 0.40276 0.0
C971 C 0.89227 0.17958 0.39437 0.0
C972 C 0.97576 0.10438 0.42004 0.0
C973 C 0.96291 0.09026 0.4498 0.0
C974 C 0.91917 0.15208 0.41526 0.0
C975 C 0.92911 0.10931 0.46265 0.0
C976 C 0.85426 0.18445 0.40028 0.0
C977 C 0.87911 0.21672 0.34336 0.0
N978 N 0.90815 0.1389 0.44501 0.0
N979 N 0.90359 0.1964 0.36649 0.0
H980 H 0.64393 0.11891 0.2872 0.0
H981 H 0.66665 0.97672 0.13485 0.0
H982 H 0.74821 0.07175 0.24208 0.0
H983 H 0.56198 0.03818 0.17013 0.0
H984 H 0.69801 -0.00069 0.18286 0.0
H985 H 0.61479 0.07673 0.2543 0.0
C986 C 0.66075 0.09894 0.2709 0.0
C987 C 0.69811 0.09916 0.26649 0.0
C988 C 0.66815 0.00765 0.18023 0.0
C989 C 0.66529 0.05156 0.22855 0.0
C990 C 0.65039 0.99481 0.15293 0.0
C991 C 0.61203 0.00681 0.14815 0.0
C992 C 0.64717 0.03233 0.20292 0.0
C993 C 0.59182 0.02963 0.17237 0.0
C994 C 0.64419 0.07514 0.25196 0.0
C995 C 0.71903 0.07288 0.24528 0.0
N996 N 0.60968 0.04203 0.19857 0.0
N997 N 0.7022 0.05046 0.22659 0.0
H998 H 0.65134 0.7593 0.87203 0.0
H999 H 0.54593 0.9675 0.9119 0.0
H1000 H 0.66653 0.85847 0.81765 0.0
H1001 H 0.57576 0.88616 -0.00574 0.0
H1002 H 0.58014 0.9224 0.87317 0.0
H1003 H 0.61439 0.80022 0.91403 0.0
C1004 C 0.64684 0.78946 0.86887 0.0
C1005 C 0.66224 0.80547 0.84143 0.0
C1006 C 0.57916 0.91423 0.89968 0.0
C1007 C 0.61996 0.85192 0.88855 0.0
C1008 C 0.55934 0.93989 0.92173 0.0
C1009 C 0.55773 0.93042 0.9562 0.0
C1010 C 0.59738 0.87845 0.91196 0.0
C1011 C 0.57656 0.8945 0.96779 0.0
C1012 C 0.62603 0.81269 0.89284 0.0
C1013 C 0.65562 0.84475 0.83853 0.0
N1014 N 0.59551 0.86957 0.94563 0.0
N1015 N 0.63491 0.86643 0.86152 0.0
H1016 H 0.93585 -0.00125 0.66648 0.0
H1017 H 0.75316 0.92077 0.69408 0.0
H1018 H 0.86128 0.98488 0.5852 0.0
H1019 H 0.84853 0.89059 0.7613 0.0
H1020 H 0.78609 0.95858 0.65906 0.0
H1021 H 0.89749 0.97274 0.70691 0.0
C1022 C 0.91106 0.99059 0.65743 0.0
C1023 C 0.90155 0.99331 0.62281 0.0
C1024 C 0.79973 0.94396 0.68162 0.0
C1025 C 0.85793 0.96425 0.66815 0.0
C1026 C 0.78098 0.92267 0.7015 0.0
C1027 C 0.7986 0.90272 0.7301 0.0
C1028 C 0.83616 0.94538 0.69074 0.0
C1029 C 0.83452 0.9056 0.7391 0.0
C1030 C 0.88943 0.9757 0.68026 0.0
C1031 C 0.86943 0.98258 0.6118 0.0
N1032 N 0.85238 0.92655 0.71931 0.0
N1033 N 0.84867 0.96838 0.63447 0.0
H1034 H 0.2152 0.86636 0.82287 0.0
H1035 H 0.054 0.8794 0.95744 0.0
H1036 H 0.17294 0.77075 0.85614 0.0
H1037 H 0.08971 0.97491 0.91455 0.0
H1038 H 0.0985 0.83835 0.92213 0.0
H1039 H 0.17158 0.90586 0.85933 0.0
C1040 C 0.19702 0.85359 0.83811 0.0
C1041 C 0.19777 0.81521 0.83652 0.0
C1042 C 0.09657 0.86831 0.92053 0.0
C1043 C 0.14731 0.86036 0.87796 0.0
C1044 C 0.07111 0.89171 0.94054 0.0
C1045 C 0.06864 0.93051 0.93926 0.0
C1046 C 0.11952 0.88398 0.89918 0.0
C1047 C 0.09137 0.94507 0.91696 0.0
C1048 C 0.1719 0.87621 0.85876 0.0
C1049 C 0.17324 0.80026 0.85658 0.0
N1050 N 0.11593 0.92179 0.89789 0.0
N1051 N 0.14891 0.82292 0.87646 0.0
H1052 H 0.88452 0.44501 0.52591 0.0
H1053 H 0.91734 0.26293 0.64779 0.0
H1054 H 0.98917 0.40067 0.57791 0.0
H1055 H 0.81332 0.34384 0.63953 0.0
H1056 H 0.94457 0.30332 0.60981 0.0
H1057 H 0.85838 0.39717 0.55503 0.0
C1058 C 0.90208 0.42497 0.54317 0.0
C1059 C 0.93893 0.42696 0.54982 0.0
C1060 C 0.91555 0.31161 0.61583 0.0
C1061 C 0.90941 0.37211 0.58264 0.0
C1062 C 0.90001 0.28863 0.63732 0.0
C1063 C 0.86266 0.29934 0.64611 0.0
C1064 C 0.89346 0.34537 0.60287 0.0
C1065 C 0.84156 0.33328 0.63231 0.0
C1066 C 0.88714 0.39782 0.55977 0.0
C1067 C 0.96049 0.40031 0.5724 0.0
N1068 N 0.85723 0.35502 0.61134 0.0
N1069 N 0.9454 0.37389 0.58805 0.0
H1070 H 0.39053 0.08113 0.43599 0.0
H1071 H 0.38126 0.24513 0.30471 0.0
H1072 H 0.48817 0.12608 0.42291 0.0
H1073 H 0.28856 0.23007 0.36394 0.0
H1074 H 0.42333 0.20358 0.34566 0.0
H1075 H 0.35415 0.1351 0.40511 0.0
C1076 C 0.40438 0.10233 0.4264 0.0
C1077 C 0.44238 0.09916 0.4318 0.0
C1078 C 0.39386 0.21039 0.35007 0.0
C1079 C 0.40076 0.16132 0.39668 0.0
C1080 C 0.37005 0.23401 0.32692 0.0
C1081 C 0.33175 0.23998 0.331 0.0
C1082 C 0.37864 0.19303 0.37677 0.0
C1083 C 0.31807 0.22525 0.35983 0.0
C1084 C 0.3835 0.1334 0.40915 0.0
C1085 C 0.45883 0.12767 0.41911 0.0
N1086 N 0.34151 0.20192 0.38142 0.0
N1087 N 0.43787 0.15766 0.40167 0.0
H1088 H 0.56742 0.53535 0.09934 0.0
H1089 H 0.64786 0.72001 0.09895 0.0
H1090 H 0.61641 0.5732 0.01036 0.0
H1091 H 0.62441 0.66183 0.18944 0.0
H1092 H 0.63579 0.66815 0.06491 0.0
H1093 H 0.58833 0.58236 0.13226 0.0
C1094 C 0.5831 0.55336 0.08687 0.0
C1095 C 0.5902 0.55058 0.05217 0.0
C1096 C 0.63352 0.66673 0.09224 0.0
C1097 C 0.61359 0.60515 0.08951 0.0
C1098 C 0.64037 0.6962 0.11154 0.0
C1099 C 0.63713 0.69489 0.14689 0.0
C1100 C 0.6231 0.63618 0.10862 0.0
C1101 C 0.62674 0.66394 0.16216 0.0
C1102 C 0.59499 0.58027 0.10564 0.0
C1103 C 0.61065 0.57446 0.03718 0.0
N1104 N 0.62004 0.63588 0.14296 0.0
N1105 N 0.62126 0.60127 0.0559 0.0
H1106 H 0.14052 0.22377 0.60418 0.0
H1107 H 0.06485 0.03598 0.60123 0.0
H1108 H 0.12408 0.15937 0.69326 0.0
H1109 H 0.10191 0.08373 0.51062 0.0
H1110 H 0.08707 0.08159 0.63486 0.0
H1111 H 0.12613 0.1742 0.56849 0.0
C1112 C 0.13404 0.19909 0.61608 0.0
C1113 C 0.1335 0.19532 0.65152 0.0
C1114 C 0.09078 0.08204 0.60768 0.0
C1115 C 0.1169 0.13917 0.61142 0.0
C1116 C 0.07813 0.05592 0.58848 0.0
C1117 C 0.08148 0.05628 0.55316 0.0
C1118 C 0.10645 0.10922 0.59146 0.0
C1119 C 0.09902 0.08255 0.53788 0.0
C1120 C 0.12587 0.17092 0.59586 0.0
C1121 C 0.12437 0.16332 0.66597 0.0
N1122 N 0.1105 0.10845 0.55714 0.0
N1123 N 0.11642 0.13652 0.64589 0.0
H1124 H 0.65604 0.27276 0.33822 0.0
H1125 H 0.58133 0.47534 0.40997 0.0
H1126 H 0.716 0.36148 0.33242 0.0
H1127 H 0.54583 0.37825 0.4497 0.0
H1128 H 0.6254 0.43496 0.37474 0.0
H1129 H 0.6106 0.31185 0.37388 0.0
C1130 C 0.65965 0.30044 0.3444 0.0
C1131 C 0.68947 0.31424 0.33183 0.0
C1132 C 0.60811 0.42245 0.39129 0.0
C1133 C 0.63765 0.35883 0.37215 0.0
C1134 C 0.58308 0.44545 0.41154 0.0
C1135 C 0.56064 0.42997 0.43342 0.0
C1136 C 0.61039 0.38371 0.39258 0.0
C1137 C 0.56293 0.3912 0.43334 0.0
C1138 C 0.63374 0.32263 0.36471 0.0
C1139 C 0.69295 0.35013 0.34077 0.0
N1140 N 0.58757 0.36923 0.41321 0.0
N1141 N 0.66717 0.37132 0.36024 0.0
H1142 H 0.40785 0.92502 0.02635 0.0
H1143 H 0.39796 0.81864 0.20377 0.0
H1144 H 0.48072 0.92932 0.11223 0.0
H1145 H 0.35049 0.78632 0.11169 0.0
H1146 H 0.42535 0.86254 0.1708 0.0
H1147 H 0.38251 0.87769 0.0574 0.0
C1148 C 0.41851 0.91604 0.05169 0.0
C1149 C 0.44638 0.9312 0.06676 0.0
C1150 C 0.40891 0.84593 0.15771 0.0
C1151 C 0.41751 0.87739 0.10228 0.0
C1152 C 0.39339 0.82085 0.17651 0.0
C1153 C 0.3713 0.79954 0.16047 0.0
C1154 C 0.40222 0.84989 0.1225 0.0
C1155 C 0.36616 0.80333 0.12512 0.0
C1156 C 0.40415 0.88896 0.06929 0.0
C1157 C 0.45927 0.91845 0.09958 0.0
N1158 N 0.38131 0.82832 0.10725 0.0
N1159 N 0.4446 0.89247 0.11626 0.0
H1160 H 0.96206 0.63535 0.94328 0.0
H1161 H 0.80773 0.64566 0.79895 0.0
H1162 H 0.93592 0.54006 0.894 0.0
H1163 H 0.83674 0.74482 0.83819 0.0
H1164 H 0.86036 0.60725 0.82961 0.0
H1165 H 0.92307 0.67693 0.90055 0.0
C1166 C 0.94875 0.62328 0.92303 0.0
C1167 C 0.95127 0.58455 0.92233 0.0
C1168 C 0.85549 0.6374 0.83156 0.0
C1169 C 0.90713 0.63121 0.87407 0.0
C1170 C 0.82516 0.65931 0.8143 0.0
C1171 C 0.81754 0.6983 0.81678 0.0
C1172 C 0.87812 0.65453 0.85195 0.0
C1173 C 0.84161 0.71469 0.8361 0.0
C1174 C 0.92649 0.64688 0.89882 0.0
C1175 C 0.93384 0.56995 0.89575 0.0
N1176 N 0.87071 0.6926 0.85347 0.0
N1177 N 0.9122 0.59334 0.87289 0.0
H1178 H 0.35025 0.5483 0.0907 0.0
H1179 H 0.35352 0.42115 0.25901 0.0
H1180 H 0.44935 0.48434 0.14037 0.0
H1181 H 0.25717 0.45899 0.19405 0.0
H1182 H 0.38683 0.4596 0.22492 0.0
H1183 H 0.31365 0.53094 0.13757 0.0
C1184 C 0.36414 0.53103 0.11182 0.0
C1185 C 0.40237 0.51675 0.11167 0.0
C1186 C 0.35824 0.45985 0.21838 0.0
C1187 C 0.36153 0.49718 0.1649 0.0
C1188 C 0.33948 0.43784 0.23763 0.0
C1189 C 0.3033 0.43614 0.22828 0.0
C1190 C 0.34038 0.48031 0.18986 0.0
C1191 C 0.2854 0.45927 0.20144 0.0
C1192 C 0.34347 0.52113 0.13841 0.0
C1193 C 0.41965 0.49488 0.13947 0.0
N1194 N 0.30434 0.48004 0.18271 0.0
N1195 N 0.39903 0.48539 0.1649 0.0
H1196 H 0.5024 0.54608 0.88399 0.0
H1197 H 0.36055 0.74229 0.85794 0.0
H1198 H 0.46713 0.6145 0.96998 0.0
H1199 H 0.34346 0.64095 0.81289 0.0
H1200 H 0.41412 0.70477 0.8905 0.0
H1201 H 0.45946 0.59178 0.8474 0.0
C1202 C 0.48651 0.57131 0.89491 0.0
C1203 C 0.48787 0.5766 0.92992 0.0
C1204 C 0.39857 0.69106 0.8733 0.0
C1205 C 0.43943 0.62851 0.88859 0.0
C1206 C 0.36812 0.71223 0.85497 0.0
C1207 C 0.34741 0.69442 0.8333 0.0
C1208 C 0.40885 0.65229 0.86873 0.0
C1209 C 0.35836 0.65554 0.82989 0.0
C1210 C 0.46192 0.59707 0.87417 0.0
C1211 C 0.46647 0.60947 0.94305 0.0
N1212 N 0.38856 0.63575 0.84727 0.0
N1213 N 0.44286 0.63425 0.92234 0.0
H1214 H 0.04358 0.53977 0.66628 0.0
H1215 H 0.14029 0.60271 0.79582 0.0
H1216 H 0.14992 0.49038 0.62601 0.0
H1217 H 0.2195 0.60246 0.71689 0.0
H1218 H 0.11216 0.55988 0.76263 0.0
H1219 H 0.07467 0.56314 0.7138 0.0
C1220 C 0.07353 0.53374 0.66772 0.0
C1221 C 0.09441 0.51402 0.64208 0.0
C1222 C 0.13615 0.56876 0.75298 0.0
C1223 C 0.13019 0.53934 0.69654 0.0
C1224 C 0.15245 0.59275 0.77205 0.0
C1225 C 0.18251 0.60604 0.75936 0.0
C1226 C 0.15002 0.55823 0.72092 0.0
C1227 C 0.19717 0.59242 0.72835 0.0
C1228 C 0.0913 0.54639 0.6951 0.0
C1229 C 0.13308 0.50588 0.64529 0.0
N1230 N 0.18056 0.56955 0.71009 0.0
N1231 N 0.1498 0.51926 0.6717 0.0
H1232 H 0.30582 0.35532 0.71392 0.0
H1233 H 0.37357 0.35028 0.52603 0.0
H1234 H 0.25628 0.29871 0.63703 0.0
H1235 H 0.38098 0.44056 0.59192 0.0
H1236 H 0.33082 0.32985 0.56575 0.0
H1237 H 0.33396 0.38665 0.66938 0.0
C1238 C 0.30049 0.3499 0.6876 0.0
C1239 C 0.27885 0.32436 0.67907 0.0
C1240 C 0.34113 0.35467 0.57106 0.0
C1241 C 0.31152 0.35942 0.6281 0.0
C1242 C 0.36542 0.36619 0.5485 0.0
C1243 C 0.38003 0.39745 0.55555 0.0
C1244 C 0.33245 0.37401 0.60125 0.0
C1245 C 0.36941 0.41696 0.5852 0.0
C1246 C 0.31647 0.36783 0.6622 0.0
C1247 C 0.27273 0.31835 0.64461 0.0
N1248 N 0.34663 0.40464 0.6072 0.0
N1249 N 0.28956 0.33526 0.62032 0.0
H1250 H 0.23845 0.70219 0.13945 0.0
H1251 H 0.06287 0.61921 0.09089 0.0
H1252 H 0.14151 0.71103 0.20069 0.0
H1253 H 0.159 0.60606 0.02853 0.0
H1254 H 0.0888 0.65963 0.12762 0.0
H1255 H 0.20797 0.67283 0.09536 0.0
C1256 C 0.21072 0.69815 0.14354 0.0
C1257 C 0.19263 0.70868 0.17393 0.0
C1258 C 0.10409 0.64852 0.10561 0.0
C1259 C 0.15771 0.67535 0.12372 0.0
C1260 C 0.08892 0.62589 0.08426 0.0
C1261 C 0.10836 0.61021 0.05605 0.0
C1262 C 0.13937 0.65495 0.09919 0.0
C1263 C 0.14309 0.61806 0.04989 0.0
C1264 C 0.19336 0.68144 0.11838 0.0
C1265 C 0.15668 0.70301 0.17784 0.0
N1266 N 0.15766 0.63979 0.07141 0.0
N1267 N 0.14051 0.68659 0.15311 0.0
H1268 H 0.72489 0.36852 0.68068 0.0
H1269 H 0.52069 0.43618 0.60676 0.0
H1270 H 0.62856 0.34677 0.73046 0.0
H1271 H 0.61143 0.48056 0.56873 0.0
H1272 H 0.55976 0.40695 0.65457 0.0
H1273 H 0.68436 0.41387 0.64242 0.0
C1274 C 0.69525 0.37361 0.68382 0.0
C1275 C 0.68003 0.35315 0.70822 0.0
C1276 C 0.57116 0.42336 0.63604 0.0
C1277 C 0.63358 0.40489 0.6646 0.0
C1278 C 0.5489 0.43989 0.60858 0.0
C1279 C 0.56305 0.46038 0.58354 0.0
C1280 C 0.60815 0.42672 0.63827 0.0
C1281 C 0.59958 0.46478 0.58745 0.0
C1282 C 0.67214 0.39962 0.66206 0.0
C1283 C 0.6415 0.36156 0.71175 0.0
N1284 N 0.62114 0.44755 0.61409 0.0
N1285 N 0.61959 0.38631 0.68979 0.0
H1286 H 0.86922 0.68407 0.21888 0.0
H1287 H 0.88079 0.544 0.0645 0.0
H1288 H 0.77621 0.64292 0.18052 0.0
H1289 H 0.97019 0.59537 0.09502 0.0
H1290 H 0.84391 0.57517 0.11051 0.0
H1291 H 0.90886 0.64561 0.17828 0.0
C1292 C 0.85723 0.66651 0.20227 0.0
C1293 C 0.81922 0.66711 0.20271 0.0
C1294 C 0.8716 0.57965 0.10714 0.0
C1295 C 0.86429 0.62345 0.15594 0.0
C1296 C 0.89266 0.56191 0.08081 0.0
C1297 C 0.92853 0.56738 0.07564 0.0
C1298 C 0.88652 0.60292 0.12862 0.0
C1299 C 0.94251 0.59074 0.09773 0.0
C1300 C 0.87982 0.64481 0.1789 0.0
C1301 C 0.80519 0.64388 0.18056 0.0
N1302 N 0.92147 0.60767 0.12323 0.0
N1303 N 0.82765 0.62321 0.15791 0.0
H1304 H 0.85711 0.58575 0.53874 0.0
H1305 H 0.83495 0.73808 0.68375 0.0
H1306 H 0.95028 0.60911 0.59463 0.0
H1307 H 0.74998 0.67839 0.65926 0.0
H1308 H 0.87529 0.70078 0.64254 0.0
H1309 H 0.81527 0.62918 0.57455 0.0
C1310 C 0.86878 0.60017 0.55838 0.0
C1311 C 0.90728 0.59348 0.56391 0.0
C1312 C 0.84767 0.69615 0.64602 0.0
C1313 C 0.85958 0.64358 0.60461 0.0
C1314 C 0.82455 0.71761 0.66931 0.0
C1315 C 0.78907 0.71128 0.67503 0.0
C1316 C 0.835 0.66864 0.62786 0.0
C1317 C 0.77718 0.68409 0.65579 0.0
C1318 C 0.8449 0.62484 0.57886 0.0
C1319 C 0.92082 0.61298 0.58978 0.0
N1320 N 0.80004 0.66383 0.63308 0.0
N1321 N 0.89705 0.63721 0.60908 0.0
H1322 H 0.37833 0.51016 0.42901 0.0
H1323 H 0.25384 0.63847 0.32681 0.0
H1324 H 0.45399 0.57769 0.39609 0.0
H1325 H 0.34956 0.65037 0.27016 0.0
H1326 H 0.29381 0.59196 0.36414 0.0
H1327 H 0.33542 0.53803 0.38268 0.0
C1328 C 0.38593 0.53079 0.412 0.0
C1329 C 0.41946 0.54216 0.41672 0.0
C1330 C 0.30594 0.60375 0.34288 0.0
C1331 C 0.37051 0.57428 0.36405 0.0
C1332 C 0.2831 0.6305 0.32161 0.0
C1333 C 0.29846 0.64872 0.29563 0.0
C1334 C 0.34437 0.59548 0.33819 0.0
C1335 C 0.33656 0.6373 0.29006 0.0
C1336 C 0.36133 0.54683 0.38572 0.0
C1337 C 0.42815 0.56861 0.39373 0.0
N1338 N 0.35833 0.61202 0.31168 0.0
N1339 N 0.40376 0.58383 0.36843 0.0
H1340 H 0.12782 0.3283 0.78398 0.0
H1341 H 0.11108 0.46472 0.94133 0.0
H1342 H 0.22192 0.35261 0.83787 0.0
H1343 H 0.02036 0.41921 0.90384 0.0
H1344 H 0.15076 0.43011 0.89872 0.0
H1345 H 0.0867 0.36839 0.82254 0.0
C1346 C 0.13986 0.34242 0.80362 0.0
C1347 C 0.17845 0.33697 0.80774 0.0
C1348 C 0.12217 0.42769 0.89981 0.0
C1349 C 0.13153 0.38269 0.852 0.0
C1350 C 0.09946 0.44746 0.92412 0.0
C1351 C 0.06237 0.44465 0.92634 0.0
C1352 C 0.10768 0.40511 0.8773 0.0
C1353 C 0.04887 0.4219 0.90329 0.0
C1354 C 0.11636 0.3651 0.82574 0.0
C1355 C 0.19243 0.35587 0.83375 0.0
N1356 N 0.07151 0.40302 0.8797 0.0
N1357 N 0.16901 0.37779 0.85492 0.0
H1358 H 0.1339 0.29333 0.32895 0.0
H1359 H 0.10761 0.44047 0.47812 0.0
H1360 H 0.21776 0.35236 0.35857 0.0
H1361 H 0.01566 0.42262 0.41674 0.0
H1362 H 0.14999 0.39734 0.44271 0.0
H1363 H 0.09183 0.32961 0.36973 0.0
C1364 C 0.14365 0.31341 0.34444 0.0
C1365 C 0.17929 0.31997 0.34034 0.0
C1366 C 0.12051 0.40276 0.43715 0.0
C1367 C 0.13161 0.36121 0.3869 0.0
C1368 C 0.0963 0.42728 0.45736 0.0
C1369 C 0.05804 0.43534 0.45026 0.0
C1370 C 0.10638 0.38562 0.40997 0.0
C1371 C 0.04498 0.41741 0.42298 0.0
C1372 C 0.11959 0.33426 0.36744 0.0
C1373 C 0.19043 0.34659 0.3608 0.0
N1374 N 0.06909 0.39331 0.40387 0.0
N1375 N 0.16673 0.36616 0.3832 0.0
loop_
_geom_bond_atom_site_label_1
_geom_bond_atom_site_label_2
_geom_bond_distance
_geom_bond_site_symmetry_2
_ccdc_geom_bond_type
Zn0 O1 2.055 . S
Zn0 O8 2.046 . S
Zn0 N16 2.036 1_554 S
Zn0 O28 2.053 1_454 S
Zn0 O30 2.066 1_544 S
O1 Zn0 2.055 . S
O1 C4 1.259 1_545 S
C2 O30 1.256 . S
C2 O31 1.244 . S
Zn3 O5 2.046 1_655 S
Zn3 O7 2.055 1_565 S
Zn3 N9 2.036 . S
Zn3 O27 2.066 1_564 S
Zn3 O31 2.053 1_654 S
C4 O1 1.259 1_565 S
C4 O5 1.254 . S
O5 Zn3 2.046 1_455 S
O5 C4 1.254 . S
C6 O27 1.256 . S
C6 O28 1.244 . S
O7 Zn3 2.055 1_545 S
O7 C29 1.259 . S
O8 Zn0 2.046 . S
O8 C29 1.254 1_455 S
N9 Zn3 2.036 . S
N9 C10 1.298 . S
N9 N12 1.398 . S
C10 N9 1.298 . S
C10 N13 1.367 . S
C10 C23 1.481 . S
C11 N12 1.299 . S
C11 N13 1.379 . S
N12 N9 1.398 . S
N12 C11 1.299 . S
N13 C10 1.367 . S
N13 C11 1.379 . S
C14 N16 1.298 . S
C14 N18 1.367 . S
C14 C22 1.481 . S
C15 N17 1.299 . S
C15 N18 1.379 . S
N16 Zn0 2.036 1_556 S
N16 C14 1.298 . S
N16 N17 1.398 . S
N17 C15 1.299 . S
N17 N16 1.398 . S
N18 C14 1.367 . S
N18 C15 1.379 . S
H19 C22 0.980 1_554 S
H20 C22 0.981 1_554 S
H21 C22 0.981 . S
C22 C14 1.481 . S
C22 H19 0.980 1_556 S
C22 H20 0.981 1_556 S
C22 H21 0.981 . S
C23 C10 1.481 . S
C23 H24 0.980 1_565 S
C23 H25 0.981 . S
C23 H26 0.981 . S
H24 C23 0.980 1_545 S
H25 C23 0.981 . S
H26 C23 0.981 . S
O27 Zn3 2.066 1_546 S
O27 C6 1.256 . S
O28 Zn0 2.053 1_656 S
O28 C6 1.244 . S
C29 O7 1.259 . S
C29 O8 1.254 1_655 S
O30 Zn0 2.066 1_566 S
O30 C2 1.256 . S
O31 C2 1.244 . S
O31 Zn3 2.053 1_456 S
Zn32 O33 2.055 . S
Zn32 O40 2.046 . S
Zn32 N48 2.036 . S
Zn32 O60 2.053 . S
Zn32 O62 2.066 . S
O33 Zn32 2.055 . S
O33 C36 1.259 . S
C34 O62 1.256 . S
C34 O63 1.244 . S
Zn35 O37 2.046 . S
Zn35 O39 2.055 . S
Zn35 N41 2.036 . S
Zn35 O59 2.066 . S
Zn35 O63 2.053 . S
C36 O33 1.259 . S
C36 O37 1.254 . S
O37 Zn35 2.046 . S
O37 C36 1.254 . S
C38 O59 1.256 . S
C38 O60 1.244 . S
O39 Zn35 2.055 . S
O39 C61 1.259 . S
O40 Zn32 2.046 . S
O40 C61 1.254 . S
N41 Zn35 2.036 . S
N41 C42 1.298 . S
N41 N44 1.398 . S
C42 N41 1.298 . S
C42 N45 1.367 . S
C42 C55 1.481 . S
C43 N44 1.299 . S
C43 N45 1.379 . S
N44 N41 1.398 . S
N44 C43 1.299 . S
N45 C42 1.367 . S
N45 C43 1.379 . S
C46 N48 1.298 . S
C46 N50 1.367 . S
C46 C54 1.481 . S
C47 N49 1.299 . S
C47 N50 1.379 . S
N48 Zn32 2.036 . S
N48 C46 1.298 . S
N48 N49 1.398 . S
N49 C47 1.299 . S
N49 N48 1.398 . S
N50 C46 1.367 . S
N50 C47 1.379 . S
H51 C54 0.980 . S
H52 C54 0.981 . S
H53 C54 0.981 . S
C54 C46 1.481 . S
C54 H51 0.980 . S
C54 H52 0.981 . S
C54 H53 0.981 . S
C55 C42 1.481 . S
C55 H56 0.980 . S
C55 H57 0.981 . S
C55 H58 0.981 . S
H56 C55 0.980 . S
H57 C55 0.981 . S
H58 C55 0.981 . S
O59 Zn35 2.066 . S
O59 C38 1.256 . S
O60 Zn32 2.053 . S
O60 C38 1.244 . S
C61 O39 1.259 . S
C61 O40 1.254 . S
O62 Zn32 2.066 . S
O62 C34 1.256 . S
O63 C34 1.244 . S
O63 Zn35 2.053 . S
Zn64 O65 2.055 . S
Zn64 O72 2.046 . S
Zn64 N80 2.036 . S
Zn64 O92 2.053 1_545 S
Zn64 O94 2.066 . S
O65 Zn64 2.055 . S
O65 C68 1.259 . S
C66 O94 1.256 . S
C66 O95 1.244 . S
Zn67 O69 2.046 1_565 S
Zn67 O71 2.055 . S
Zn67 N73 2.036 . S
Zn67 O91 2.066 . S
Zn67 O95 2.053 1_565 S
C68 O65 1.259 . S
C68 O69 1.254 . S
O69 Zn67 2.046 1_545 S
O69 C68 1.254 . S
C70 O91 1.256 . S
C70 O92 1.244 . S
O71 Zn67 2.055 . S
O71 C93 1.259 . S
O72 Zn64 2.046 . S
O72 C93 1.254 1_545 S
N73 Zn67 2.036 . S
N73 C74 1.298 . S
N73 N76 1.398 . S
C74 N73 1.298 . S
C74 N77 1.367 . S
C74 C87 1.481 . S
C75 N76 1.299 . S
C75 N77 1.379 . S
N76 N73 1.398 . S
N76 C75 1.299 . S
N77 C74 1.367 . S
N77 C75 1.379 . S
C78 N80 1.298 . S
C78 N82 1.367 . S
C78 C86 1.481 . S
C79 N81 1.299 . S
C79 N82 1.379 . S
N80 Zn64 2.036 . S
N80 C78 1.298 . S
N80 N81 1.398 . S
N81 C79 1.299 . S
N81 N80 1.398 . S
N82 C78 1.367 . S
N82 C79 1.379 . S
H83 C86 0.980 . S
H84 C86 0.981 . S
H85 C86 0.981 . S
C86 C78 1.481 . S
C86 H83 0.980 . S
C86 H84 0.981 . S
C86 H85 0.981 . S
C87 C74 1.481 . S
C87 H88 0.980 . S
C87 H89 0.981 . S
C87 H90 0.981 . S
H88 C87 0.980 . S
H89 C87 0.981 . S
H90 C87 0.981 . S
O91 Zn67 2.066 . S
O91 C70 1.256 . S
O92 Zn64 2.053 1_565 S
O92 C70 1.244 . S
C93 O71 1.259 . S
C93 O72 1.254 1_565 S
O94 Zn64 2.066 . S
O94 C66 1.256 . S
O95 C66 1.244 . S
O95 Zn67 2.053 1_545 S
Zn96 O97 2.055 . S
Zn96 O104 2.046 . S
Zn96 N112 2.036 . S
Zn96 O124 2.053 . S
Zn96 O126 2.066 . S
O97 Zn96 2.055 . S
O97 C100 1.259 . S
C98 O126 1.256 . S
C98 O127 1.244 . S
Zn99 O101 2.046 . S
Zn99 O103 2.055 . S
Zn99 N105 2.036 . S
Zn99 O123 2.066 . S
Zn99 O127 2.053 . S
C100 O97 1.259 . S
C100 O101 1.254 . S
O101 Zn99 2.046 . S
O101 C100 1.254 . S
C102 O123 1.256 . S
C102 O124 1.244 . S
O103 Zn99 2.055 . S
O103 C125 1.259 . S
O104 Zn96 2.046 . S
O104 C125 1.254 . S
N105 Zn99 2.036 . S
N105 C106 1.298 . S
N105 N108 1.398 . S
C106 N105 1.298 . S
C106 N109 1.367 . S
C106 C119 1.481 . S
C107 N108 1.299 . S
C107 N109 1.379 . S
N108 N105 1.398 . S
N108 C107 1.299 . S
N109 C106 1.367 . S
N109 C107 1.379 . S
C110 N112 1.298 . S
C110 N114 1.367 . S
C110 C118 1.481 . S
C111 N113 1.299 . S
C111 N114 1.379 . S
N112 Zn96 2.036 . S
N112 C110 1.298 . S
N112 N113 1.398 . S
N113 C111 1.299 . S
N113 N112 1.398 . S
N114 C110 1.367 . S
N114 C111 1.379 . S
H115 C118 0.980 . S
H116 C118 0.981 . S
H117 C118 0.981 . S
C118 C110 1.481 . S
C118 H115 0.980 . S
C118 H116 0.981 . S
C118 H117 0.981 . S
C119 C106 1.481 . S
C119 H120 0.980 . S
C119 H121 0.981 . S
C119 H122 0.981 . S
H120 C119 0.980 . S
H121 C119 0.981 . S
H122 C119 0.981 . S
O123 Zn99 2.066 . S
O123 C102 1.256 . S
O124 Zn96 2.053 . S
O124 C102 1.244 . S
C125 O103 1.259 . S
C125 O104 1.254 . S
O126 Zn96 2.066 . S
O126 C98 1.256 . S
O127 C98 1.244 . S
O127 Zn99 2.053 . S
Zn128 O129 2.055 1_545 S
Zn128 O136 2.046 1_545 S
Zn128 N144 2.036 . S
Zn128 O156 2.053 . S
Zn128 O158 2.066 1_455 S
O129 Zn128 2.055 1_565 S
O129 C132 1.259 1_455 S
C130 O158 1.256 . S
C130 O159 1.244 . S
Zn131 O133 2.046 . S
Zn131 O135 2.055 1_655 S
Zn131 N137 2.036 . S
Zn131 O155 2.066 1_565 S
Zn131 O159 2.053 1_565 S
C132 O129 1.259 1_655 S
C132 O133 1.254 . S
O133 Zn131 2.046 . S
O133 C132 1.254 . S
C134 O155 1.256 1_455 S
C134 O156 1.244 . S
O135 Zn131 2.055 1_455 S
O135 C157 1.259 . S
O136 Zn128 2.046 1_565 S
O136 C157 1.254 . S
N137 Zn131 2.036 . S
N137 C138 1.298 . S
N137 N140 1.398 . S
C138 N137 1.298 . S
C138 N141 1.367 . S
C138 C151 1.481 . S
C139 N140 1.299 . S
C139 N141 1.379 . S
N140 N137 1.398 . S
N140 C139 1.299 . S
N141 C138 1.367 . S
N141 C139 1.379 . S
C142 N144 1.298 . S
C142 N146 1.367 . S
C142 C150 1.481 . S
C143 N145 1.299 . S
C143 N146 1.379 . S
N144 Zn128 2.036 . S
N144 C142 1.298 . S
N144 N145 1.398 . S
N145 C143 1.299 . S
N145 N144 1.398 . S
N146 C142 1.367 . S
N146 C143 1.379 . S
H147 C150 0.980 1_565 S
H148 C150 0.981 . S
H149 C150 0.981 . S
C150 C142 1.481 . S
C150 H147 0.980 1_545 S
C150 H148 0.981 . S
C150 H149 0.981 . S
C151 C138 1.481 . S
C151 H152 0.980 . S
C151 H153 0.981 . S
C151 H154 0.981 . S
H152 C151 0.980 . S
H153 C151 0.981 . S
H154 C151 0.981 . S
O155 Zn131 2.066 1_545 S
O155 C134 1.256 1_655 S
O156 Zn128 2.053 . S
O156 C134 1.244 . S
C157 O135 1.259 . S
C157 O136 1.254 . S
O158 Zn128 2.066 1_655 S
O158 C130 1.256 . S
O159 C130 1.244 . S
O159 Zn131 2.053 1_545 S
Zn160 O161 2.055 . S
Zn160 O168 2.046 . S
Zn160 N176 2.036 . S
Zn160 O188 2.053 . S
Zn160 O190 2.066 . S
O161 Zn160 2.055 . S
O161 C164 1.259 . S
C162 O190 1.256 . S
C162 O191 1.244 . S
Zn163 O165 2.046 . S
Zn163 O167 2.055 . S
Zn163 N169 2.036 . S
Zn163 O187 2.066 . S
Zn163 O191 2.053 . S
C164 O161 1.259 . S
C164 O165 1.254 . S
O165 Zn163 2.046 . S
O165 C164 1.254 . S
C166 O187 1.256 . S
C166 O188 1.244 . S
O167 Zn163 2.055 . S
O167 C189 1.259 . S
O168 Zn160 2.046 . S
O168 C189 1.254 . S
N169 Zn163 2.036 . S
N169 C170 1.298 . S
N169 N172 1.398 . S
C170 N169 1.298 . S
C170 N173 1.367 . S
C170 C183 1.481 . S
C171 N172 1.299 . S
C171 N173 1.379 . S
N172 N169 1.398 . S
N172 C171 1.299 . S
N173 C170 1.367 . S
N173 C171 1.379 . S
C174 N176 1.298 . S
C174 N178 1.367 . S
C174 C182 1.481 . S
C175 N177 1.299 . S
C175 N178 1.379 . S
N176 Zn160 2.036 . S
N176 C174 1.298 . S
N176 N177 1.398 . S
N177 C175 1.299 . S
N177 N176 1.398 . S
N178 C174 1.367 . S
N178 C175 1.379 . S
H179 C182 0.980 . S
H180 C182 0.981 . S
H181 C182 0.981 . S
C182 C174 1.481 . S
C182 H179 0.980 . S
C182 H180 0.981 . S
C182 H181 0.981 . S
C183 C170 1.481 . S
C183 H184 0.980 . S
C183 H185 0.981 . S
C183 H186 0.981 . S
H184 C183 0.980 . S
H185 C183 0.981 . S
H186 C183 0.981 . S
O187 Zn163 2.066 . S
O187 C166 1.256 . S
O188 Zn160 2.053 . S
O188 C166 1.244 . S
C189 O167 1.259 . S
C189 O168 1.254 . S
O190 Zn160 2.066 . S
O190 C162 1.256 . S
O191 C162 1.244 . S
O191 Zn163 2.053 . S
Zn192 O193 2.055 . S
Zn192 O200 2.046 1_554 S
Zn192 N208 2.036 . S
Zn192 O220 2.053 1_545 S
Zn192 O222 2.066 1_545 S
O193 Zn192 2.055 . S
O193 C196 1.259 . S
C194 O222 1.256 . S
C194 O223 1.244 . S
Zn195 O197 2.046 1_556 S
Zn195 O199 2.055 . S
Zn195 N201 2.036 1_545 S
Zn195 O219 2.066 1_545 S
Zn195 O223 2.053 1_546 S
C196 O193 1.259 . S
C196 O197 1.254 . S
O197 Zn195 2.046 1_554 S
O197 C196 1.254 . S
C198 O219 1.256 . S
C198 O220 1.244 1_556 S
O199 Zn195 2.055 . S
O199 C221 1.259 . S
O200 Zn192 2.046 1_556 S
O200 C221 1.254 . S
N201 Zn195 2.036 1_565 S
N201 C202 1.298 . S
N201 N204 1.398 . S
C202 N201 1.298 . S
C202 N205 1.367 . S
C202 C215 1.481 1_565 S
C203 N204 1.299 . S
C203 N205 1.379 . S
N204 N201 1.398 . S
N204 C203 1.299 . S
N205 C202 1.367 . S
N205 C203 1.379 . S
C206 N208 1.298 . S
C206 N210 1.367 . S
C206 C214 1.481 . S
C207 N209 1.299 . S
C207 N210 1.379 . S
N208 Zn192 2.036 . S
N208 C206 1.298 . S
N208 N209 1.398 . S
N209 C207 1.299 . S
N209 N208 1.398 . S
N210 C206 1.367 . S
N210 C207 1.379 . S
H211 C214 0.980 . S
H212 C214 0.981 . S
H213 C214 0.981 . S
C214 C206 1.481 . S
C214 H211 0.980 . S
C214 H212 0.981 . S
C214 H213 0.981 . S
C215 C202 1.481 1_545 S
C215 H216 0.980 . S
C215 H217 0.981 . S
C215 H218 0.981 1_545 S
H216 C215 0.980 . S
H217 C215 0.981 . S
H218 C215 0.981 1_565 S
O219 Zn195 2.066 1_565 S
O219 C198 1.256 . S
O220 Zn192 2.053 1_565 S
O220 C198 1.244 1_554 S
C221 O199 1.259 . S
C221 O200 1.254 . S
O222 Zn192 2.066 1_565 S
O222 C194 1.256 . S
O223 C194 1.244 . S
O223 Zn195 2.053 1_564 S
Zn224 O225 2.055 . S
Zn224 O232 2.046 . S
Zn224 N240 2.036 . S
Zn224 O252 2.053 . S
Zn224 O254 2.066 . S
O225 Zn224 2.055 . S
O225 C228 1.259 . S
C226 O254 1.256 . S
C226 O255 1.244 . S
Zn227 O229 2.046 . S
Zn227 O231 2.055 . S
Zn227 N233 2.036 . S
Zn227 O251 2.066 . S
Zn227 O255 2.053 . S
C228 O225 1.259 . S
C228 O229 1.254 . S
O229 Zn227 2.046 . S
O229 C228 1.254 . S
C230 O251 1.256 . S
C230 O252 1.244 . S
O231 Zn227 2.055 . S
O231 C253 1.259 . S
O232 Zn224 2.046 . S
O232 C253 1.254 . S
N233 Zn227 2.036 . S
N233 C234 1.298 . S
N233 N236 1.398 . S
C234 N233 1.298 . S
C234 N237 1.367 . S
C234 C247 1.481 . S
C235 N236 1.299 . S
C235 N237 1.379 . S
N236 N233 1.398 . S
N236 C235 1.299 . S
N237 C234 1.367 . S
N237 C235 1.379 . S
C238 N240 1.298 . S
C238 N242 1.367 . S
C238 C246 1.481 . S
C239 N241 1.299 . S
C239 N242 1.379 . S
N240 Zn224 2.036 . S
N240 C238 1.298 . S
N240 N241 1.398 . S
N241 C239 1.299 . S
N241 N240 1.398 . S
N242 C238 1.367 . S
N242 C239 1.379 . S
H243 C246 0.980 . S
H244 C246 0.981 . S
H245 C246 0.981 . S
C246 C238 1.481 . S
C246 H243 0.980 . S
C246 H244 0.981 . S
C246 H245 0.981 . S
C247 C234 1.481 . S
C247 H248 0.980 . S
C247 H249 0.981 . S
C247 H250 0.981 . S
H248 C247 0.980 . S
H249 C247 0.981 . S
H250 C247 0.981 . S
O251 Zn227 2.066 . S
O251 C230 1.256 . S
O252 Zn224 2.053 . S
O252 C230 1.244 . S
C253 O231 1.259 . S
C253 O232 1.254 . S
O254 Zn224 2.066 . S
O254 C226 1.256 . S
O255 C226 1.244 . S
O255 Zn227 2.053 . S
Zn256 O257 2.055 . S
Zn256 O264 2.046 1_554 S
Zn256 N272 2.036 . S
Zn256 O284 2.053 1_554 S
Zn256 O286 2.066 . S
O257 Zn256 2.055 . S
O257 C260 1.259 . S
C258 O286 1.256 . S
C258 O287 1.244 . S
Zn259 O261 2.046 1_556 S
Zn259 O263 2.055 . S
Zn259 N265 2.036 . S
Zn259 O283 2.066 . S
Zn259 O287 2.053 1_556 S
C260 O257 1.259 . S
C260 O261 1.254 . S
O261 Zn259 2.046 1_554 S
O261 C260 1.254 . S
C262 O283 1.256 . S
C262 O284 1.244 . S
O263 Zn259 2.055 . S
O263 C285 1.259 . S
O264 Zn256 2.046 1_556 S
O264 C285 1.254 . S
N265 Zn259 2.036 . S
N265 C266 1.298 . S
N265 N268 1.398 . S
C266 N265 1.298 . S
C266 N269 1.367 . S
C266 C279 1.481 . S
C267 N268 1.299 . S
C267 N269 1.379 . S
N268 N265 1.398 . S
N268 C267 1.299 . S
N269 C266 1.367 . S
N269 C267 1.379 . S
C270 N272 1.298 . S
C270 N274 1.367 . S
C270 C278 1.481 . S
C271 N273 1.299 . S
C271 N274 1.379 . S
N272 Zn256 2.036 . S
N272 C270 1.298 . S
N272 N273 1.398 . S
N273 C271 1.299 . S
N273 N272 1.398 . S
N274 C270 1.367 . S
N274 C271 1.379 . S
H275 C278 0.980 . S
H276 C278 0.981 . S
H277 C278 0.981 . S
C278 C270 1.481 . S
C278 H275 0.980 . S
C278 H276 0.981 . S
C278 H277 0.981 . S
C279 C266 1.481 . S
C279 H280 0.980 . S
C279 H281 0.981 . S
C279 H282 0.981 . S
H280 C279 0.980 . S
H281 C279 0.981 . S
H282 C279 0.981 . S
O283 Zn259 2.066 . S
O283 C262 1.256 . S
O284 Zn256 2.053 1_556 S
O284 C262 1.244 . S
C285 O263 1.259 . S
C285 O264 1.254 . S
O286 Zn256 2.066 . S
O286 C258 1.256 . S
O287 C258 1.244 . S
O287 Zn259 2.053 1_554 S
Zn288 O289 2.055 . S
Zn288 O296 2.046 . S
Zn288 N304 2.036 . S
Zn288 O316 2.053 . S
Zn288 O318 2.066 . S
O289 Zn288 2.055 . S
O289 C292 1.259 . S
C290 O318 1.256 . S
C290 O319 1.244 . S
Zn291 O293 2.046 . S
Zn291 O295 2.055 . S
Zn291 N297 2.036 . S
Zn291 O315 2.066 . S
Zn291 O319 2.053 . S
C292 O289 1.259 . S
C292 O293 1.254 . S
O293 Zn291 2.046 . S
O293 C292 1.254 . S
C294 O315 1.256 . S
C294 O316 1.244 . S
O295 Zn291 2.055 . S
O295 C317 1.259 . S
O296 Zn288 2.046 . S
O296 C317 1.254 . S
N297 Zn291 2.036 . S
N297 C298 1.298 . S
N297 N300 1.398 . S
C298 N297 1.298 . S
C298 N301 1.367 . S
C298 C311 1.481 . S
C299 N300 1.299 . S
C299 N301 1.379 . S
N300 N297 1.398 . S
N300 C299 1.299 . S
N301 C298 1.367 . S
N301 C299 1.379 . S
C302 N304 1.298 . S
C302 N306 1.367 . S
C302 C310 1.481 . S
C303 N305 1.299 . S
C303 N306 1.379 . S
N304 Zn288 2.036 . S
N304 C302 1.298 . S
N304 N305 1.398 . S
N305 C303 1.299 . S
N305 N304 1.398 . S
N306 C302 1.367 . S
N306 C303 1.379 . S
H307 C310 0.980 . S
H308 C310 0.981 . S
H309 C310 0.981 . S
C310 C302 1.481 . S
C310 H307 0.980 . S
C310 H308 0.981 . S
C310 H309 0.981 . S
C311 C298 1.481 . S
C311 H312 0.980 . S
C311 H313 0.981 . S
C311 H314 0.981 . S
H312 C311 0.980 . S
H313 C311 0.981 . S
H314 C311 0.981 . S
O315 Zn291 2.066 . S
O315 C294 1.256 . S
O316 Zn288 2.053 . S
O316 C294 1.244 . S
C317 O295 1.259 . S
C317 O296 1.254 . S
O318 Zn288 2.066 . S
O318 C290 1.256 . S
O319 C290 1.244 . S
O319 Zn291 2.053 . S
Zn320 O321 2.055 1_455 S
Zn320 O328 2.046 . S
Zn320 N336 2.036 . S
Zn320 O348 2.053 . S
Zn320 O350 2.066 . S
O321 Zn320 2.055 1_655 S
O321 C324 1.259 . S
C322 O350 1.256 1_655 S
C322 O351 1.244 . S
Zn323 O325 2.046 . S
Zn323 O327 2.055 . S
Zn323 N329 2.036 . S
Zn323 O347 2.066 1_655 S
Zn323 O351 2.053 . S
C324 O321 1.259 . S
C324 O325 1.254 . S
O325 Zn323 2.046 . S
O325 C324 1.254 . S
C326 O347 1.256 . S
C326 O348 1.244 . S
O327 Zn323 2.055 . S
O327 C349 1.259 1_655 S
O328 Zn320 2.046 . S
O328 C349 1.254 . S
N329 Zn323 2.036 . S
N329 C330 1.298 . S
N329 N332 1.398 . S
C330 N329 1.298 . S
C330 N333 1.367 . S
C330 C343 1.481 . S
C331 N332 1.299 . S
C331 N333 1.379 . S
N332 N329 1.398 . S
N332 C331 1.299 . S
N333 C330 1.367 . S
N333 C331 1.379 . S
C334 N336 1.298 . S
C334 N338 1.367 . S
C334 C342 1.481 . S
C335 N337 1.299 . S
C335 N338 1.379 . S
N336 Zn320 2.036 . S
N336 C334 1.298 . S
N336 N337 1.398 . S
N337 C335 1.299 . S
N337 N336 1.398 . S
N338 C334 1.367 . S
N338 C335 1.379 . S
H339 C342 0.980 . S
H340 C342 0.981 . S
H341 C342 0.981 . S
C342 C334 1.481 . S
C342 H339 0.980 . S
C342 H340 0.981 . S
C342 H341 0.981 . S
C343 C330 1.481 . S
C343 H344 0.980 . S
C343 H345 0.981 . S
C343 H346 0.981 . S
H344 C343 0.980 . S
H345 C343 0.981 . S
H346 C343 0.981 . S
O347 Zn323 2.066 1_455 S
O347 C326 1.256 . S
O348 Zn320 2.053 . S
O348 C326 1.244 . S
C349 O327 1.259 1_455 S
C349 O328 1.254 . S
O350 Zn320 2.066 . S
O350 C322 1.256 1_455 S
O351 C322 1.244 . S
O351 Zn323 2.053 . S
Zn352 O353 2.055 . S
Zn352 O360 2.046 . S
Zn352 N368 2.036 . S
Zn352 O380 2.053 . S
Zn352 O382 2.066 . S
O353 Zn352 2.055 . S
O353 C356 1.259 . S
C354 O382 1.256 . S
C354 O383 1.244 . S
Zn355 O357 2.046 . S
Zn355 O359 2.055 . S
Zn355 N361 2.036 . S
Zn355 O379 2.066 . S
Zn355 O383 2.053 . S
C356 O353 1.259 . S
C356 O357 1.254 . S
O357 Zn355 2.046 . S
O357 C356 1.254 . S
C358 O379 1.256 . S
C358 O380 1.244 . S
O359 Zn355 2.055 . S
O359 C381 1.259 . S
O360 Zn352 2.046 . S
O360 C381 1.254 . S
N361 Zn355 2.036 . S
N361 C362 1.298 . S
N361 N364 1.398 . S
C362 N361 1.298 . S
C362 N365 1.367 . S
C362 C375 1.481 . S
C363 N364 1.299 . S
C363 N365 1.379 . S
N364 N361 1.398 . S
N364 C363 1.299 . S
N365 C362 1.367 . S
N365 C363 1.379 . S
C366 N368 1.298 . S
C366 N370 1.367 . S
C366 C374 1.481 . S
C367 N369 1.299 . S
C367 N370 1.379 . S
N368 Zn352 2.036 . S
N368 C366 1.298 . S
N368 N369 1.398 . S
N369 C367 1.299 . S
N369 N368 1.398 . S
N370 C366 1.367 . S
N370 C367 1.379 . S
H371 C374 0.980 . S
H372 C374 0.981 . S
H373 C374 0.981 . S
C374 C366 1.481 . S
C374 H371 0.980 . S
C374 H372 0.981 . S
C374 H373 0.981 . S
C375 C362 1.481 . S
C375 H376 0.980 . S
C375 H377 0.981 . S
C375 H378 0.981 . S
H376 C375 0.980 . S
H377 C375 0.981 . S
H378 C375 0.981 . S
O379 Zn355 2.066 . S
O379 C358 1.256 . S
O380 Zn352 2.053 . S
O380 C358 1.244 . S
C381 O359 1.259 . S
C381 O360 1.254 . S
O382 Zn352 2.066 . S
O382 C354 1.256 . S
O383 C354 1.244 . S
O383 Zn355 2.053 . S
Zn384 O385 2.055 . S
Zn384 O392 2.046 . S
Zn384 N400 2.036 . S
Zn384 O412 2.053 . S
Zn384 O414 2.066 . S
O385 Zn384 2.055 . S
O385 C388 1.259 . S
C386 O414 1.256 . S
C386 O415 1.244 . S
Zn387 O389 2.046 . S
Zn387 O391 2.055 . S
Zn387 N393 2.036 . S
Zn387 O411 2.066 . S
Zn387 O415 2.053 . S
C388 O385 1.259 . S
C388 O389 1.254 . S
O389 Zn387 2.046 . S
O389 C388 1.254 . S
C390 O411 1.256 . S
C390 O412 1.244 . S
O391 Zn387 2.055 . S
O391 C413 1.259 . S
O392 Zn384 2.046 . S
O392 C413 1.254 . S
N393 Zn387 2.036 . S
N393 C394 1.298 . S
N393 N396 1.398 . S
C394 N393 1.298 . S
C394 N397 1.367 . S
C394 C407 1.481 . S
C395 N396 1.299 . S
C395 N397 1.379 . S
N396 N393 1.398 . S
N396 C395 1.299 . S
N397 C394 1.367 . S
N397 C395 1.379 . S
C398 N400 1.298 . S
C398 N402 1.367 . S
C398 C406 1.481 . S
C399 N401 1.299 . S
C399 N402 1.379 . S
N400 Zn384 2.036 . S
N400 C398 1.298 . S
N400 N401 1.398 . S
N401 C399 1.299 . S
N401 N400 1.398 . S
N402 C398 1.367 . S
N402 C399 1.379 . S
H403 C406 0.980 . S
H404 C406 0.981 . S
H405 C406 0.981 . S
C406 C398 1.481 . S
C406 H403 0.980 . S
C406 H404 0.981 . S
C406 H405 0.981 . S
C407 C394 1.481 . S
C407 H408 0.980 . S
C407 H409 0.981 . S
C407 H410 0.981 . S
H408 C407 0.980 . S
H409 C407 0.981 . S
H410 C407 0.981 . S
O411 Zn387 2.066 . S
O411 C390 1.256 . S
O412 Zn384 2.053 . S
O412 C390 1.244 . S
C413 O391 1.259 . S
C413 O392 1.254 . S
O414 Zn384 2.066 . S
O414 C386 1.256 . S
O415 C386 1.244 . S
O415 Zn387 2.053 . S
Zn416 O417 2.055 . S
Zn416 O424 2.046 . S
Zn416 N432 2.036 . S
Zn416 O444 2.053 . S
Zn416 O446 2.066 . S
O417 Zn416 2.055 . S
O417 C420 1.259 . S
C418 O446 1.256 . S
C418 O447 1.244 . S
Zn419 O421 2.046 . S
Zn419 O423 2.055 . S
Zn419 N425 2.036 . S
Zn419 O443 2.066 . S
Zn419 O447 2.053 . S
C420 O417 1.259 . S
C420 O421 1.254 . S
O421 Zn419 2.046 . S
O421 C420 1.254 . S
C422 O443 1.256 . S
C422 O444 1.244 . S
O423 Zn419 2.055 . S
O423 C445 1.259 . S
O424 Zn416 2.046 . S
O424 C445 1.254 . S
N425 Zn419 2.036 . S
N425 C426 1.298 . S
N425 N428 1.398 . S
C426 N425 1.298 . S
C426 N429 1.367 . S
C426 C439 1.481 . S
C427 N428 1.299 . S
C427 N429 1.379 . S
N428 N425 1.398 . S
N428 C427 1.299 . S
N429 C426 1.367 . S
N429 C427 1.379 . S
C430 N432 1.298 . S
C430 N434 1.367 . S
C430 C438 1.481 . S
C431 N433 1.299 . S
C431 N434 1.379 . S
N432 Zn416 2.036 . S
N432 C430 1.298 . S
N432 N433 1.398 . S
N433 C431 1.299 . S
N433 N432 1.398 . S
N434 C430 1.367 . S
N434 C431 1.379 . S
H435 C438 0.980 . S
H436 C438 0.981 . S
H437 C438 0.981 . S
C438 C430 1.481 . S
C438 H435 0.980 . S
C438 H436 0.981 . S
C438 H437 0.981 . S
C439 C426 1.481 . S
C439 H440 0.980 . S
C439 H441 0.981 . S
C439 H442 0.981 . S
H440 C439 0.980 . S
H441 C439 0.981 . S
H442 C439 0.981 . S
O443 Zn419 2.066 . S
O443 C422 1.256 . S
O444 Zn416 2.053 . S
O444 C422 1.244 . S
C445 O423 1.259 . S
C445 O424 1.254 . S
O446 Zn416 2.066 . S
O446 C418 1.256 . S
O447 C418 1.244 . S
O447 Zn419 2.053 . S
Zn448 O449 2.055 . S
Zn448 O456 2.046 . S
Zn448 N464 2.036 . S
Zn448 O476 2.053 . S
Zn448 O478 2.066 . S
O449 Zn448 2.055 . S
O449 C452 1.259 . S
C450 O478 1.256 . S
C450 O479 1.244 . S
Zn451 O453 2.046 . S
Zn451 O455 2.055 . S
Zn451 N457 2.036 . S
Zn451 O475 2.066 . S
Zn451 O479 2.053 . S
C452 O449 1.259 . S
C452 O453 1.254 . S
O453 Zn451 2.046 . S
O453 C452 1.254 . S
C454 O475 1.256 . S
C454 O476 1.244 . S
O455 Zn451 2.055 . S
O455 C477 1.259 . S
O456 Zn448 2.046 . S
O456 C477 1.254 . S
N457 Zn451 2.036 . S
N457 C458 1.298 . S
N457 N460 1.398 . S
C458 N457 1.298 . S
C458 N461 1.367 . S
C458 C471 1.481 . S
C459 N460 1.299 . S
C459 N461 1.379 . S
N460 N457 1.398 . S
N460 C459 1.299 . S
N461 C458 1.367 . S
N461 C459 1.379 . S
C462 N464 1.298 . S
C462 N466 1.367 . S
C462 C470 1.481 . S
C463 N465 1.299 . S
C463 N466 1.379 . S
N464 Zn448 2.036 . S
N464 C462 1.298 . S
N464 N465 1.398 . S
N465 C463 1.299 . S
N465 N464 1.398 . S
N466 C462 1.367 . S
N466 C463 1.379 . S
H467 C470 0.980 . S
H468 C470 0.981 . S
H469 C470 0.981 . S
C470 C462 1.481 . S
C470 H467 0.980 . S
C470 H468 0.981 . S
C470 H469 0.981 . S
C471 C458 1.481 . S
C471 H472 0.980 . S
C471 H473 0.981 . S
C471 H474 0.981 . S
H472 C471 0.980 . S
H473 C471 0.981 . S
H474 C471 0.981 . S
O475 Zn451 2.066 . S
O475 C454 1.256 . S
O476 Zn448 2.053 . S
O476 C454 1.244 . S
C477 O455 1.259 . S
C477 O456 1.254 . S
O478 Zn448 2.066 . S
O478 C450 1.256 . S
O479 C450 1.244 . S
O479 Zn451 2.053 . S
Zn480 O481 2.055 1_454 S
Zn480 O488 2.046 1_554 S
Zn480 N496 2.036 . S
Zn480 O508 2.053 . S
Zn480 O510 2.066 1_455 S
O481 Zn480 2.055 1_656 S
O481 C484 1.259 . S
C482 O510 1.256 . S
C482 O511 1.244 . S
Zn483 O485 2.046 . S
Zn483 O487 2.055 1_655 S
Zn483 N489 2.036 . S
Zn483 O507 2.066 1_656 S
Zn483 O511 2.053 1_556 S
C484 O481 1.259 . S
C484 O485 1.254 . S
O485 Zn483 2.046 . S
O485 C484 1.254 . S
C486 O507 1.256 . S
C486 O508 1.244 . S
O487 Zn483 2.055 1_455 S
O487 C509 1.259 . S
O488 Zn480 2.046 1_556 S
O488 C509 1.254 . S
N489 Zn483 2.036 . S
N489 C490 1.298 . S
N489 N492 1.398 . S
C490 N489 1.298 . S
C490 N493 1.367 . S
C490 C503 1.481 . S
C491 N492 1.299 . S
C491 N493 1.379 . S
N492 N489 1.398 . S
N492 C491 1.299 . S
N493 C490 1.367 . S
N493 C491 1.379 . S
C494 N496 1.298 . S
C494 N498 1.367 . S
C494 C502 1.481 . S
C495 N497 1.299 . S
C495 N498 1.379 . S
N496 Zn480 2.036 . S
N496 C494 1.298 . S
N496 N497 1.398 . S
N497 C495 1.299 . S
N497 N496 1.398 . S
N498 C494 1.367 . S
N498 C495 1.379 . S
H499 C502 0.980 . S
H500 C502 0.981 . S
H501 C502 0.981 . S
C502 C494 1.481 . S
C502 H499 0.980 . S
C502 H500 0.981 . S
C502 H501 0.981 . S
C503 C490 1.481 . S
C503 H504 0.980 . S
C503 H505 0.981 . S
C503 H506 0.981 . S
H504 C503 0.980 . S
H505 C503 0.981 . S
H506 C503 0.981 . S
O507 Zn483 2.066 1_454 S
O507 C486 1.256 . S
O508 Zn480 2.053 . S
O508 C486 1.244 . S
C509 O487 1.259 . S
C509 O488 1.254 . S
O510 Zn480 2.066 1_655 S
O510 C482 1.256 . S
O511 C482 1.244 . S
O511 Zn483 2.053 1_554 S
H512 C518 0.930 . S
H513 C522 0.930 . S
H514 C527 0.929 . S
H515 C525 0.929 . S
H516 C520 0.929 . S
H517 C526 0.929 . S
C518 H512 0.930 . S
C518 C519 1.367 . S
C518 C526 1.378 . S
C519 C518 1.367 . S
C519 C527 1.433 . S
C520 H516 0.929 . S
C520 C522 1.378 . S
C520 C524 1.350 . S
C521 C524 1.463 . S
C521 C526 1.350 . S
C521 N529 1.427 . S
C522 H513 0.930 . S
C522 C520 1.378 . S
C522 C523 1.367 . S
C523 C522 1.367 . S
C523 C525 1.433 . S
C524 C520 1.350 . S
C524 C521 1.463 . S
C524 N528 1.427 . S
C525 H515 0.929 . S
C525 C523 1.433 . S
C525 N528 1.384 . S
C526 H517 0.929 . S
C526 C518 1.378 . S
C526 C521 1.350 . S
C527 H514 0.929 . S
C527 C519 1.433 . S
C527 N529 1.384 . S
N528 C524 1.427 . S
N528 C525 1.384 . S
N529 C521 1.427 . S
N529 C527 1.384 . S
H530 C536 0.930 . S
H531 C540 0.930 . S
H532 C545 0.929 . S
H533 C543 0.929 . S
H534 C538 0.929 . S
H535 C544 0.929 . S
C536 H530 0.930 . S
C536 C537 1.367 . S
C536 C544 1.378 . S
C537 C536 1.367 . S
C537 C545 1.433 . S
C538 H534 0.929 . S
C538 C540 1.378 . S
C538 C542 1.350 . S
C539 C542 1.463 . S
C539 C544 1.350 . S
C539 N547 1.427 . S
C540 H531 0.930 . S
C540 C538 1.378 . S
C540 C541 1.367 . S
C541 C540 1.367 . S
C541 C543 1.433 . S
C542 C538 1.350 . S
C542 C539 1.463 . S
C542 N546 1.427 . S
C543 H533 0.929 . S
C543 C541 1.433 . S
C543 N546 1.384 . S
C544 H535 0.929 . S
C544 C536 1.378 . S
C544 C539 1.350 . S
C545 H532 0.929 . S
C545 C537 1.433 . S
C545 N547 1.384 . S
N546 C542 1.427 . S
N546 C543 1.384 . S
N547 C539 1.427 . S
N547 C545 1.384 . S
H548 C554 0.930 . S
H549 C558 0.930 . S
H550 C563 0.929 . S
H551 C561 0.929 . S
H552 C556 0.929 . S
H553 C562 0.929 . S
C554 H548 0.930 . S
C554 C555 1.367 . S
C554 C562 1.378 . S
C555 C554 1.367 . S
C555 C563 1.433 . S
C556 H552 0.929 . S
C556 C558 1.378 . S
C556 C560 1.350 . S
C557 C560 1.463 . S
C557 C562 1.350 . S
C557 N565 1.427 . S
C558 H549 0.930 . S
C558 C556 1.378 . S
C558 C559 1.367 . S
C559 C558 1.367 . S
C559 C561 1.433 . S
C560 C556 1.350 . S
C560 C557 1.463 . S
C560 N564 1.427 . S
C561 H551 0.929 . S
C561 C559 1.433 . S
C561 N564 1.384 . S
C562 H553 0.929 . S
C562 C554 1.378 . S
C562 C557 1.350 . S
C563 H550 0.929 . S
C563 C555 1.433 . S
C563 N565 1.384 . S
N564 C560 1.427 . S
N564 C561 1.384 . S
N565 C557 1.427 . S
N565 C563 1.384 . S
H566 C572 0.930 . S
H567 C576 0.930 . S
H568 C581 0.929 . S
H569 C579 0.929 . S
H570 C574 0.929 . S
H571 C580 0.929 . S
C572 H566 0.930 . S
C572 C573 1.367 . S
C572 C580 1.378 . S
C573 C572 1.367 . S
C573 C581 1.433 . S
C574 H570 0.929 . S
C574 C576 1.378 . S
C574 C578 1.350 . S
C575 C578 1.463 . S
C575 C580 1.350 . S
C575 N583 1.427 . S
C576 H567 0.930 . S
C576 C574 1.378 . S
C576 C577 1.367 . S
C577 C576 1.367 . S
C577 C579 1.433 . S
C578 C574 1.350 . S
C578 C575 1.463 . S
C578 N582 1.427 . S
C579 H569 0.929 . S
C579 C577 1.433 . S
C579 N582 1.384 . S
C580 H571 0.929 . S
C580 C572 1.378 . S
C580 C575 1.350 . S
C581 H568 0.929 . S
C581 C573 1.433 . S
C581 N583 1.384 . S
N582 C578 1.427 . S
N582 C579 1.384 . S
N583 C575 1.427 . S
N583 C581 1.384 . S
H584 C590 0.930 . S
H585 C594 0.930 . S
H586 C599 0.929 . S
H587 C597 0.929 . S
H588 C592 0.929 . S
H589 C598 0.929 . S
C590 H584 0.930 . S
C590 C591 1.367 . S
C590 C598 1.378 . S
C591 C590 1.367 . S
C591 C599 1.433 . S
C592 H588 0.929 . S
C592 C594 1.378 . S
C592 C596 1.350 . S
C593 C596 1.463 . S
C593 C598 1.350 . S
C593 N601 1.427 . S
C594 H585 0.930 . S
C594 C592 1.378 . S
C594 C595 1.367 . S
C595 C594 1.367 . S
C595 C597 1.433 . S
C596 C592 1.350 . S
C596 C593 1.463 . S
C596 N600 1.427 . S
C597 H587 0.929 . S
C597 C595 1.433 . S
C597 N600 1.384 . S
C598 H589 0.929 . S
C598 C590 1.378 . S
C598 C593 1.350 . S
C599 H586 0.929 . S
C599 C591 1.433 . S
C599 N601 1.384 . S
N600 C596 1.427 . S
N600 C597 1.384 . S
N601 C593 1.427 . S
N601 C599 1.384 . S
H602 C608 0.930 . S
H603 C612 0.930 1_545 S
H604 C617 0.929 . S
H605 C615 0.929 . S
H606 C610 0.929 . S
H607 C616 0.929 . S
C608 H602 0.930 . S
C608 C609 1.367 . S
C608 C616 1.378 . S
C609 C608 1.367 . S
C609 C617 1.433 . S
C610 H606 0.929 . S
C610 C612 1.378 . S
C610 C614 1.350 . S
C611 C614 1.463 . S
C611 C616 1.350 . S
C611 N619 1.427 . S
C612 H603 0.930 1_565 S
C612 C610 1.378 . S
C612 C613 1.367 . S
C613 C612 1.367 . S
C613 C615 1.433 . S
C614 C610 1.350 . S
C614 C611 1.463 . S
C614 N618 1.427 . S
C615 H605 0.929 . S
C615 C613 1.433 . S
C615 N618 1.384 . S
C616 H607 0.929 . S
C616 C608 1.378 . S
C616 C611 1.350 . S
C617 H604 0.929 . S
C617 C609 1.433 . S
C617 N619 1.384 . S
N618 C614 1.427 . S
N618 C615 1.384 . S
N619 C611 1.427 . S
N619 C617 1.384 . S
H620 C626 0.930 . S
H621 C630 0.930 . S
H622 C635 0.929 . S
H623 C633 0.929 . S
H624 C628 0.929 . S
H625 C634 0.929 . S
C626 H620 0.930 . S
C626 C627 1.367 . S
C626 C634 1.378 . S
C627 C626 1.367 . S
C627 C635 1.433 . S
C628 H624 0.929 . S
C628 C630 1.378 . S
C628 C632 1.350 . S
C629 C632 1.463 . S
C629 C634 1.350 . S
C629 N637 1.427 . S
C630 H621 0.930 . S
C630 C628 1.378 . S
C630 C631 1.367 . S
C631 C630 1.367 . S
C631 C633 1.433 . S
C632 C628 1.350 . S
C632 C629 1.463 . S
C632 N636 1.427 . S
C633 H623 0.929 . S
C633 C631 1.433 . S
C633 N636 1.384 . S
C634 H625 0.929 . S
C634 C626 1.378 . S
C634 C629 1.350 . S
C635 H622 0.929 . S
C635 C627 1.433 . S
C635 N637 1.384 . S
N636 C632 1.427 . S
N636 C633 1.384 . S
N637 C629 1.427 . S
N637 C635 1.384 . S
H638 C644 0.930 . S
H639 C648 0.930 . S
H640 C653 0.929 . S
H641 C651 0.929 . S
H642 C646 0.929 . S
H643 C652 0.929 . S
C644 H638 0.930 . S
C644 C645 1.367 . S
C644 C652 1.378 . S
C645 C644 1.367 . S
C645 C653 1.433 . S
C646 H642 0.929 . S
C646 C648 1.378 . S
C646 C650 1.350 . S
C647 C650 1.463 . S
C647 C652 1.350 . S
C647 N655 1.427 . S
C648 H639 0.930 . S
C648 C646 1.378 . S
C648 C649 1.367 . S
C649 C648 1.367 . S
C649 C651 1.433 . S
C650 C646 1.350 . S
C650 C647 1.463 . S
C650 N654 1.427 . S
C651 H641 0.929 . S
C651 C649 1.433 . S
C651 N654 1.384 . S
C652 H643 0.929 . S
C652 C644 1.378 . S
C652 C647 1.350 . S
C653 H640 0.929 . S
C653 C645 1.433 . S
C653 N655 1.384 . S
N654 C650 1.427 . S
N654 C651 1.384 . S
N655 C647 1.427 . S
N655 C653 1.384 . S
H656 C662 0.930 . S
H657 C666 0.930 . S
H658 C671 0.929 . S
H659 C669 0.929 . S
H660 C664 0.929 . S
H661 C670 0.929 . S
C662 H656 0.930 . S
C662 C663 1.367 . S
C662 C670 1.378 . S
C663 C662 1.367 . S
C663 C671 1.433 . S
C664 H660 0.929 . S
C664 C666 1.378 . S
C664 C668 1.350 . S
C665 C668 1.463 . S
C665 C670 1.350 . S
C665 N673 1.427 . S
C666 H657 0.930 . S
C666 C664 1.378 . S
C666 C667 1.367 . S
C667 C666 1.367 . S
C667 C669 1.433 . S
C668 C664 1.350 . S
C668 C665 1.463 . S
C668 N672 1.427 . S
C669 H659 0.929 . S
C669 C667 1.433 . S
C669 N672 1.384 . S
C670 H661 0.929 . S
C670 C662 1.378 . S
C670 C665 1.350 . S
C671 H658 0.929 . S
C671 C663 1.433 . S
C671 N673 1.384 . S
N672 C668 1.427 . S
N672 C669 1.384 . S
N673 C665 1.427 . S
N673 C671 1.384 . S
H674 C680 0.930 . S
H675 C684 0.930 . S
H676 C689 0.929 . S
H677 C687 0.929 . S
H678 C682 0.929 . S
H679 C688 0.929 . S
C680 H674 0.930 . S
C680 C681 1.367 . S
C680 C688 1.378 . S
C681 C680 1.367 . S
C681 C689 1.433 . S
C682 H678 0.929 . S
C682 C684 1.378 . S
C682 C686 1.350 . S
C683 C686 1.463 . S
C683 C688 1.350 . S
C683 N691 1.427 . S
C684 H675 0.930 . S
C684 C682 1.378 . S
C684 C685 1.367 . S
C685 C684 1.367 . S
C685 C687 1.433 . S
C686 C682 1.350 . S
C686 C683 1.463 . S
C686 N690 1.427 . S
C687 H677 0.929 . S
C687 C685 1.433 . S
C687 N690 1.384 . S
C688 H679 0.929 . S
C688 C680 1.378 . S
C688 C683 1.350 . S
C689 H676 0.929 . S
C689 C681 1.433 . S
C689 N691 1.384 . S
N690 C686 1.427 . S
N690 C687 1.384 . S
N691 C683 1.427 . S
N691 C689 1.384 . S
H692 C698 0.930 . S
H693 C702 0.930 . S
H694 C707 0.929 . S
H695 C705 0.929 . S
H696 C700 0.929 . S
H697 C706 0.929 . S
C698 H692 0.930 . S
C698 C699 1.367 . S
C698 C706 1.378 . S
C699 C698 1.367 . S
C699 C707 1.433 . S
C700 H696 0.929 . S
C700 C702 1.378 . S
C700 C704 1.350 . S
C701 C704 1.463 . S
C701 C706 1.350 . S
C701 N709 1.427 . S
C702 H693 0.930 . S
C702 C700 1.378 . S
C702 C703 1.367 . S
C703 C702 1.367 . S
C703 C705 1.433 . S
C704 C700 1.350 . S
C704 C701 1.463 . S
C704 N708 1.427 . S
C705 H695 0.929 . S
C705 C703 1.433 . S
C705 N708 1.384 . S
C706 H697 0.929 . S
C706 C698 1.378 . S
C706 C701 1.350 . S
C707 H694 0.929 . S
C707 C699 1.433 . S
C707 N709 1.384 . S
N708 C704 1.427 . S
N708 C705 1.384 . S
N709 C701 1.427 . S
N709 C707 1.384 . S
H710 C716 0.930 . S
H711 C720 0.930 . S
H712 C725 0.929 . S
H713 C723 0.929 . S
H714 C718 0.929 . S
H715 C724 0.929 . S
C716 H710 0.930 . S
C716 C717 1.367 . S
C716 C724 1.378 . S
C717 C716 1.367 . S
C717 C725 1.433 . S
C718 H714 0.929 . S
C718 C720 1.378 . S
C718 C722 1.350 . S
C719 C722 1.463 . S
C719 C724 1.350 . S
C719 N727 1.427 . S
C720 H711 0.930 . S
C720 C718 1.378 . S
C720 C721 1.367 . S
C721 C720 1.367 . S
C721 C723 1.433 . S
C722 C718 1.350 . S
C722 C719 1.463 . S
C722 N726 1.427 . S
C723 H713 0.929 . S
C723 C721 1.433 . S
C723 N726 1.384 . S
C724 H715 0.929 . S
C724 C716 1.378 . S
C724 C719 1.350 . S
C725 H712 0.929 . S
C725 C717 1.433 . S
C725 N727 1.384 . S
N726 C722 1.427 . S
N726 C723 1.384 . S
N727 C719 1.427 . S
N727 C725 1.384 . S
H728 C734 0.930 . S
H729 C738 0.930 . S
H730 C743 0.929 . S
H731 C741 0.929 . S
H732 C736 0.929 . S
H733 C742 0.929 . S
C734 H728 0.930 . S
C734 C735 1.367 . S
C734 C742 1.378 . S
C735 C734 1.367 . S
C735 C743 1.433 . S
C736 H732 0.929 . S
C736 C738 1.378 . S
C736 C740 1.350 . S
C737 C740 1.463 . S
C737 C742 1.350 . S
C737 N745 1.427 . S
C738 H729 0.930 . S
C738 C736 1.378 . S
C738 C739 1.367 . S
C739 C738 1.367 . S
C739 C741 1.433 . S
C740 C736 1.350 . S
C740 C737 1.463 . S
C740 N744 1.427 . S
C741 H731 0.929 . S
C741 C739 1.433 . S
C741 N744 1.384 . S
C742 H733 0.929 . S
C742 C734 1.378 . S
C742 C737 1.350 . S
C743 H730 0.929 . S
C743 C735 1.433 . S
C743 N745 1.384 . S
N744 C740 1.427 . S
N744 C741 1.384 . S
N745 C737 1.427 . S
N745 C743 1.384 . S
H746 C752 0.930 . S
H747 C756 0.930 . S
H748 C761 0.929 . S
H749 C759 0.929 . S
H750 C754 0.929 . S
H751 C760 0.929 . S
C752 H746 0.930 . S
C752 C753 1.367 . S
C752 C760 1.378 . S
C753 C752 1.367 . S
C753 C761 1.433 . S
C754 H750 0.929 . S
C754 C756 1.378 . S
C754 C758 1.350 . S
C755 C758 1.463 . S
C755 C760 1.350 . S
C755 N763 1.427 . S
C756 H747 0.930 . S
C756 C754 1.378 . S
C756 C757 1.367 . S
C757 C756 1.367 . S
C757 C759 1.433 . S
C758 C754 1.350 . S
C758 C755 1.463 . S
C758 N762 1.427 . S
C759 H749 0.929 . S
C759 C757 1.433 . S
C759 N762 1.384 . S
C760 H751 0.929 . S
C760 C752 1.378 . S
C760 C755 1.350 . S
C761 H748 0.929 . S
C761 C753 1.433 . S
C761 N763 1.384 . S
N762 C758 1.427 . S
N762 C759 1.384 . S
N763 C755 1.427 . S
N763 C761 1.384 . S
H764 C770 0.930 . S
H765 C774 0.930 . S
H766 C779 0.929 . S
H767 C777 0.929 . S
H768 C772 0.929 . S
H769 C778 0.929 . S
C770 H764 0.930 . S
C770 C771 1.367 . S
C770 C778 1.378 . S
C771 C770 1.367 . S
C771 C779 1.433 . S
C772 H768 0.929 . S
C772 C774 1.378 . S
C772 C776 1.350 . S
C773 C776 1.463 . S
C773 C778 1.350 . S
C773 N781 1.427 . S
C774 H765 0.930 . S
C774 C772 1.378 . S
C774 C775 1.367 . S
C775 C774 1.367 . S
C775 C777 1.433 . S
C776 C772 1.350 . S
C776 C773 1.463 . S
C776 N780 1.427 . S
C777 H767 0.929 . S
C777 C775 1.433 . S
C777 N780 1.384 . S
C778 H769 0.929 . S
C778 C770 1.378 . S
C778 C773 1.350 . S
C779 H766 0.929 . S
C779 C771 1.433 . S
C779 N781 1.384 . S
N780 C776 1.427 . S
N780 C777 1.384 . S
N781 C773 1.427 . S
N781 C779 1.384 . S
H782 C788 0.930 . S
H783 C792 0.930 . S
H784 C797 0.929 . S
H785 C795 0.929 . S
H786 C790 0.929 . S
H787 C796 0.929 . S
C788 H782 0.930 . S
C788 C789 1.367 . S
C788 C796 1.378 . S
C789 C788 1.367 . S
C789 C797 1.433 . S
C790 H786 0.929 . S
C790 C792 1.378 . S
C790 C794 1.350 . S
C791 C794 1.463 . S
C791 C796 1.350 . S
C791 N799 1.427 . S
C792 H783 0.930 . S
C792 C790 1.378 . S
C792 C793 1.367 . S
C793 C792 1.367 . S
C793 C795 1.433 . S
C794 C790 1.350 . S
C794 C791 1.463 . S
C794 N798 1.427 . S
C795 H785 0.929 . S
C795 C793 1.433 . S
C795 N798 1.384 . S
C796 H787 0.929 . S
C796 C788 1.378 . S
C796 C791 1.350 . S
C797 H784 0.929 . S
C797 C789 1.433 . S
C797 N799 1.384 . S
N798 C794 1.427 . S
N798 C795 1.384 . S
N799 C791 1.427 . S
N799 C797 1.384 . S
H800 C806 0.930 . S
H801 C810 0.930 . S
H802 C815 0.929 . S
H803 C813 0.929 . S
H804 C808 0.929 . S
H805 C814 0.929 . S
C806 H800 0.930 . S
C806 C807 1.367 . S
C806 C814 1.378 . S
C807 C806 1.367 . S
C807 C815 1.433 . S
C808 H804 0.929 . S
C808 C810 1.378 . S
C808 C812 1.350 . S
C809 C812 1.463 . S
C809 C814 1.350 . S
C809 N817 1.427 . S
C810 H801 0.930 . S
C810 C808 1.378 . S
C810 C811 1.367 . S
C811 C810 1.367 . S
C811 C813 1.433 . S
C812 C808 1.350 . S
C812 C809 1.463 . S
C812 N816 1.427 . S
C813 H803 0.929 . S
C813 C811 1.433 . S
C813 N816 1.384 . S
C814 H805 0.929 . S
C814 C806 1.378 . S
C814 C809 1.350 . S
C815 H802 0.929 . S
C815 C807 1.433 . S
C815 N817 1.384 . S
N816 C812 1.427 . S
N816 C813 1.384 . S
N817 C809 1.427 . S
N817 C815 1.384 . S
H818 C824 0.930 . S
H819 C828 0.930 . S
H820 C833 0.929 . S
H821 C831 0.929 . S
H822 C826 0.929 . S
H823 C832 0.929 . S
C824 H818 0.930 . S
C824 C825 1.367 . S
C824 C832 1.378 . S
C825 C824 1.367 . S
C825 C833 1.433 . S
C826 H822 0.929 . S
C826 C828 1.378 . S
C826 C830 1.350 . S
C827 C830 1.463 . S
C827 C832 1.350 . S
C827 N835 1.427 . S
C828 H819 0.930 . S
C828 C826 1.378 . S
C828 C829 1.367 . S
C829 C828 1.367 . S
C829 C831 1.433 . S
C830 C826 1.350 . S
C830 C827 1.463 . S
C830 N834 1.427 . S
C831 H821 0.929 . S
C831 C829 1.433 . S
C831 N834 1.384 . S
C832 H823 0.929 . S
C832 C824 1.378 . S
C832 C827 1.350 . S
C833 H820 0.929 . S
C833 C825 1.433 . S
C833 N835 1.384 . S
N834 C830 1.427 . S
N834 C831 1.384 . S
N835 C827 1.427 . S
N835 C833 1.384 . S
H836 C842 0.930 . S
H837 C846 0.930 . S
H838 C851 0.929 . S
H839 C849 0.929 . S
H840 C844 0.929 . S
H841 C850 0.929 . S
C842 H836 0.930 . S
C842 C843 1.367 . S
C842 C850 1.378 . S
C843 C842 1.367 . S
C843 C851 1.433 . S
C844 H840 0.929 . S
C844 C846 1.378 . S
C844 C848 1.350 . S
C845 C848 1.463 . S
C845 C850 1.350 . S
C845 N853 1.427 . S
C846 H837 0.930 . S
C846 C844 1.378 . S
C846 C847 1.367 . S
C847 C846 1.367 . S
C847 C849 1.433 . S
C848 C844 1.350 . S
C848 C845 1.463 . S
C848 N852 1.427 . S
C849 H839 0.929 . S
C849 C847 1.433 . S
C849 N852 1.384 . S
C850 H841 0.929 . S
C850 C842 1.378 . S
C850 C845 1.350 . S
C851 H838 0.929 . S
C851 C843 1.433 . S
C851 N853 1.384 . S
N852 C848 1.427 . S
N852 C849 1.384 . S
N853 C845 1.427 . S
N853 C851 1.384 . S
H854 C860 0.930 . S
H855 C864 0.930 . S
H856 C869 0.929 . S
H857 C867 0.929 . S
H858 C862 0.929 . S
H859 C868 0.929 . S
C860 H854 0.930 . S
C860 C861 1.367 . S
C860 C868 1.378 . S
C861 C860 1.367 . S
C861 C869 1.433 . S
C862 H858 0.929 . S
C862 C864 1.378 . S
C862 C866 1.350 . S
C863 C866 1.463 . S
C863 C868 1.350 . S
C863 N871 1.427 . S
C864 H855 0.930 . S
C864 C862 1.378 . S
C864 C865 1.367 . S
C865 C864 1.367 . S
C865 C867 1.433 . S
C866 C862 1.350 . S
C866 C863 1.463 . S
C866 N870 1.427 . S
C867 H857 0.929 . S
C867 C865 1.433 . S
C867 N870 1.384 . S
C868 H859 0.929 . S
C868 C860 1.378 . S
C868 C863 1.350 . S
C869 H856 0.929 . S
C869 C861 1.433 . S
C869 N871 1.384 . S
N870 C866 1.427 . S
N870 C867 1.384 . S
N871 C863 1.427 . S
N871 C869 1.384 . S
H872 C878 0.930 . S
H873 C882 0.930 . S
H874 C887 0.929 . S
H875 C885 0.929 . S
H876 C880 0.929 . S
H877 C886 0.929 . S
C878 H872 0.930 . S
C878 C879 1.367 . S
C878 C886 1.378 . S
C879 C878 1.367 . S
C879 C887 1.433 . S
C880 H876 0.929 . S
C880 C882 1.378 . S
C880 C884 1.350 . S
C881 C884 1.463 . S
C881 C886 1.350 . S
C881 N889 1.427 . S
C882 H873 0.930 . S
C882 C880 1.378 . S
C882 C883 1.367 . S
C883 C882 1.367 . S
C883 C885 1.433 . S
C884 C880 1.350 . S
C884 C881 1.463 . S
C884 N888 1.427 . S
C885 H875 0.929 . S
C885 C883 1.433 . S
C885 N888 1.384 . S
C886 H877 0.929 . S
C886 C878 1.378 . S
C886 C881 1.350 . S
C887 H874 0.929 . S
C887 C879 1.433 . S
C887 N889 1.384 . S
N888 C884 1.427 . S
N888 C885 1.384 . S
N889 C881 1.427 . S
N889 C887 1.384 . S
H890 C896 0.930 . S
H891 C900 0.930 . S
H892 C905 0.929 . S
H893 C903 0.929 . S
H894 C898 0.929 . S
H895 C904 0.929 . S
C896 H890 0.930 . S
C896 C897 1.367 . S
C896 C904 1.378 . S
C897 C896 1.367 . S
C897 C905 1.433 . S
C898 H894 0.929 . S
C898 C900 1.378 . S
C898 C902 1.350 . S
C899 C902 1.463 . S
C899 C904 1.350 . S
C899 N907 1.427 . S
C900 H891 0.930 . S
C900 C898 1.378 . S
C900 C901 1.367 . S
C901 C900 1.367 . S
C901 C903 1.433 . S
C902 C898 1.350 . S
C902 C899 1.463 . S
C902 N906 1.427 . S
C903 H893 0.929 . S
C903 C901 1.433 . S
C903 N906 1.384 . S
C904 H895 0.929 . S
C904 C896 1.378 . S
C904 C899 1.350 . S
C905 H892 0.929 . S
C905 C897 1.433 . S
C905 N907 1.384 . S
N906 C902 1.427 . S
N906 C903 1.384 . S
N907 C899 1.427 . S
N907 C905 1.384 . S
H908 C914 0.930 . S
H909 C918 0.930 . S
H910 C923 0.929 . S
H911 C921 0.929 . S
H912 C916 0.929 . S
H913 C922 0.929 . S
C914 H908 0.930 . S
C914 C915 1.367 . S
C914 C922 1.378 . S
C915 C914 1.367 . S
C915 C923 1.433 . S
C916 H912 0.929 . S
C916 C918 1.378 . S
C916 C920 1.350 . S
C917 C920 1.463 . S
C917 C922 1.350 . S
C917 N925 1.427 . S
C918 H909 0.930 . S
C918 C916 1.378 . S
C918 C919 1.367 . S
C919 C918 1.367 . S
C919 C921 1.433 . S
C920 C916 1.350 . S
C920 C917 1.463 . S
C920 N924 1.427 . S
C921 H911 0.929 . S
C921 C919 1.433 . S
C921 N924 1.384 . S
C922 H913 0.929 . S
C922 C914 1.378 . S
C922 C917 1.350 . S
C923 H910 0.929 . S
C923 C915 1.433 . S
C923 N925 1.384 . S
N924 C920 1.427 . S
N924 C921 1.384 . S
N925 C917 1.427 . S
N925 C923 1.384 . S
H926 C932 0.930 . S
H927 C936 0.930 . S
H928 C941 0.929 . S
H929 C939 0.929 . S
H930 C934 0.929 . S
H931 C940 0.929 . S
C932 H926 0.930 . S
C932 C933 1.367 . S
C932 C940 1.378 . S
C933 C932 1.367 . S
C933 C941 1.433 . S
C934 H930 0.929 . S
C934 C936 1.378 . S
C934 C938 1.350 . S
C935 C938 1.463 . S
C935 C940 1.350 . S
C935 N943 1.427 . S
C936 H927 0.930 . S
C936 C934 1.378 . S
C936 C937 1.367 . S
C937 C936 1.367 . S
C937 C939 1.433 . S
C938 C934 1.350 . S
C938 C935 1.463 . S
C938 N942 1.427 . S
C939 H929 0.929 . S
C939 C937 1.433 . S
C939 N942 1.384 . S
C940 H931 0.929 . S
C940 C932 1.378 . S
C940 C935 1.350 . S
C941 H928 0.929 . S
C941 C933 1.433 . S
C941 N943 1.384 . S
N942 C938 1.427 . S
N942 C939 1.384 . S
N943 C935 1.427 . S
N943 C941 1.384 . S
H944 C950 0.930 . S
H945 C954 0.930 . S
H946 C959 0.929 . S
H947 C957 0.929 . S
H948 C952 0.929 . S
H949 C958 0.929 . S
C950 H944 0.930 . S
C950 C951 1.367 . S
C950 C958 1.378 . S
C951 C950 1.367 . S
C951 C959 1.433 . S
C952 H948 0.929 . S
C952 C954 1.378 . S
C952 C956 1.350 . S
C953 C956 1.463 . S
C953 C958 1.350 . S
C953 N961 1.427 . S
C954 H945 0.930 . S
C954 C952 1.378 . S
C954 C955 1.367 . S
C955 C954 1.367 . S
C955 C957 1.433 . S
C956 C952 1.350 . S
C956 C953 1.463 . S
C956 N960 1.427 . S
C957 H947 0.929 . S
C957 C955 1.433 . S
C957 N960 1.384 . S
C958 H949 0.929 . S
C958 C950 1.378 . S
C958 C953 1.350 . S
C959 H946 0.929 . S
C959 C951 1.433 . S
C959 N961 1.384 . S
N960 C956 1.427 . S
N960 C957 1.384 . S
N961 C953 1.427 . S
N961 C959 1.384 . S
H962 C968 0.930 . S
H963 C972 0.930 . S
H964 C977 0.929 . S
H965 C975 0.929 . S
H966 C970 0.929 . S
H967 C976 0.929 . S
C968 H962 0.930 . S
C968 C969 1.367 . S
C968 C976 1.378 . S
C969 C968 1.367 . S
C969 C977 1.433 . S
C970 H966 0.929 . S
C970 C972 1.378 . S
C970 C974 1.350 . S
C971 C974 1.463 . S
C971 C976 1.350 . S
C971 N979 1.427 . S
C972 H963 0.930 . S
C972 C970 1.378 . S
C972 C973 1.367 . S
C973 C972 1.367 . S
C973 C975 1.433 . S
C974 C970 1.350 . S
C974 C971 1.463 . S
C974 N978 1.427 . S
C975 H965 0.929 . S
C975 C973 1.433 . S
C975 N978 1.384 . S
C976 H967 0.929 . S
C976 C968 1.378 . S
C976 C971 1.350 . S
C977 H964 0.929 . S
C977 C969 1.433 . S
C977 N979 1.384 . S
N978 C974 1.427 . S
N978 C975 1.384 . S
N979 C971 1.427 . S
N979 C977 1.384 . S
H980 C986 0.930 . S
H981 C990 0.930 . S
H982 C995 0.929 . S
H983 C993 0.929 . S
H984 C988 0.929 . S
H985 C994 0.929 . S
C986 H980 0.930 . S
C986 C987 1.367 . S
C986 C994 1.378 . S
C987 C986 1.367 . S
C987 C995 1.433 . S
C988 H984 0.929 . S
C988 C990 1.378 . S
C988 C992 1.350 . S
C989 C992 1.463 . S
C989 C994 1.350 . S
C989 N997 1.427 . S
C990 H981 0.930 . S
C990 C988 1.378 . S
C990 C991 1.367 . S
C991 C990 1.367 . S
C991 C993 1.433 . S
C992 C988 1.350 . S
C992 C989 1.463 . S
C992 N996 1.427 . S
C993 H983 0.929 . S
C993 C991 1.433 . S
C993 N996 1.384 . S
C994 H985 0.929 . S
C994 C986 1.378 . S
C994 C989 1.350 . S
C995 H982 0.929 . S
C995 C987 1.433 . S
C995 N997 1.384 . S
N996 C992 1.427 . S
N996 C993 1.384 . S
N997 C989 1.427 . S
N997 C995 1.384 . S
H998 C1004 0.930 . S
H999 C1008 0.930 . S
H1000 C1013 0.929 . S
H1001 C1011 0.929 . S
H1002 C1006 0.929 . S
H1003 C1012 0.929 . S
C1004 H998 0.930 . S
C1004 C1005 1.367 . S
C1004 C1012 1.378 . S
C1005 C1004 1.367 . S
C1005 C1013 1.433 . S
C1006 H1002 0.929 . S
C1006 C1008 1.378 . S
C1006 C1010 1.350 . S
C1007 C1010 1.463 . S
C1007 C1012 1.350 . S
C1007 N1015 1.427 . S
C1008 H999 0.930 . S
C1008 C1006 1.378 . S
C1008 C1009 1.367 . S
C1009 C1008 1.367 . S
C1009 C1011 1.433 . S
C1010 C1006 1.350 . S
C1010 C1007 1.463 . S
C1010 N1014 1.427 . S
C1011 H1001 0.929 . S
C1011 C1009 1.433 . S
C1011 N1014 1.384 . S
C1012 H1003 0.929 . S
C1012 C1004 1.378 . S
C1012 C1007 1.350 . S
C1013 H1000 0.929 . S
C1013 C1005 1.433 . S
C1013 N1015 1.384 . S
N1014 C1010 1.427 . S
N1014 C1011 1.384 . S
N1015 C1007 1.427 . S
N1015 C1013 1.384 . S
H1016 C1022 0.930 . S
H1017 C1026 0.930 . S
H1018 C1031 0.929 1_545 S
H1019 C1029 0.929 . S
H1020 C1024 0.929 . S
H1021 C1030 0.929 . S
C1022 H1016 0.930 . S
C1022 C1023 1.367 . S
C1022 C1030 1.378 . S
C1023 C1022 1.367 . S
C1023 C1031 1.433 . S
C1024 H1020 0.929 . S
C1024 C1026 1.378 . S
C1024 C1028 1.350 . S
C1025 C1028 1.463 . S
C1025 C1030 1.350 . S
C1025 N1033 1.427 . S
C1026 H1017 0.930 . S
C1026 C1024 1.378 . S
C1026 C1027 1.367 . S
C1027 C1026 1.367 . S
C1027 C1029 1.433 . S
C1028 C1024 1.350 . S
C1028 C1025 1.463 . S
C1028 N1032 1.427 . S
C1029 H1019 0.929 . S
C1029 C1027 1.433 . S
C1029 N1032 1.384 . S
C1030 H1021 0.929 . S
C1030 C1022 1.378 . S
C1030 C1025 1.350 . S
C1031 H1018 0.929 1_565 S
C1031 C1023 1.433 . S
C1031 N1033 1.384 . S
N1032 C1028 1.427 . S
N1032 C1029 1.384 . S
N1033 C1025 1.427 . S
N1033 C1031 1.384 . S
H1034 C1040 0.930 . S
H1035 C1044 0.930 . S
H1036 C1049 0.929 . S
H1037 C1047 0.929 . S
H1038 C1042 0.929 . S
H1039 C1048 0.929 . S
C1040 H1034 0.930 . S
C1040 C1041 1.367 . S
C1040 C1048 1.378 . S
C1041 C1040 1.367 . S
C1041 C1049 1.433 . S
C1042 H1038 0.929 . S
C1042 C1044 1.378 . S
C1042 C1046 1.350 . S
C1043 C1046 1.463 . S
C1043 C1048 1.350 . S
C1043 N1051 1.427 . S
C1044 H1035 0.930 . S
C1044 C1042 1.378 . S
C1044 C1045 1.367 . S
C1045 C1044 1.367 . S
C1045 C1047 1.433 . S
C1046 C1042 1.350 . S
C1046 C1043 1.463 . S
C1046 N1050 1.427 . S
C1047 H1037 0.929 . S
C1047 C1045 1.433 . S
C1047 N1050 1.384 . S
C1048 H1039 0.929 . S
C1048 C1040 1.378 . S
C1048 C1043 1.350 . S
C1049 H1036 0.929 . S
C1049 C1041 1.433 . S
C1049 N1051 1.384 . S
N1050 C1046 1.427 . S
N1050 C1047 1.384 . S
N1051 C1043 1.427 . S
N1051 C1049 1.384 . S
H1052 C1058 0.930 . S
H1053 C1062 0.930 . S
H1054 C1067 0.929 1_455 S
H1055 C1065 0.929 . S
H1056 C1060 0.929 . S
H1057 C1066 0.929 . S
C1058 H1052 0.930 . S
C1058 C1059 1.367 . S
C1058 C1066 1.378 . S
C1059 C1058 1.367 . S
C1059 C1067 1.433 . S
C1060 H1056 0.929 . S
C1060 C1062 1.378 . S
C1060 C1064 1.350 . S
C1061 C1064 1.463 . S
C1061 C1066 1.350 . S
C1061 N1069 1.427 . S
C1062 H1053 0.930 . S
C1062 C1060 1.378 . S
C1062 C1063 1.367 . S
C1063 C1062 1.367 . S
C1063 C1065 1.433 . S
C1064 C1060 1.350 . S
C1064 C1061 1.463 . S
C1064 N1068 1.427 . S
C1065 H1055 0.929 . S
C1065 C1063 1.433 . S
C1065 N1068 1.384 . S
C1066 H1057 0.929 . S
C1066 C1058 1.378 . S
C1066 C1061 1.350 . S
C1067 H1054 0.929 1_655 S
C1067 C1059 1.433 . S
C1067 N1069 1.384 . S
N1068 C1064 1.427 . S
N1068 C1065 1.384 . S
N1069 C1061 1.427 . S
N1069 C1067 1.384 . S
H1070 C1076 0.930 . S
H1071 C1080 0.930 . S
H1072 C1085 0.929 . S
H1073 C1083 0.929 . S
H1074 C1078 0.929 . S
H1075 C1084 0.929 . S
C1076 H1070 0.930 . S
C1076 C1077 1.367 . S
C1076 C1084 1.378 . S
C1077 C1076 1.367 . S
C1077 C1085 1.433 . S
C1078 H1074 0.929 . S
C1078 C1080 1.378 . S
C1078 C1082 1.350 . S
C1079 C1082 1.463 . S
C1079 C1084 1.350 . S
C1079 N1087 1.427 . S
C1080 H1071 0.930 . S
C1080 C1078 1.378 . S
C1080 C1081 1.367 . S
C1081 C1080 1.367 . S
C1081 C1083 1.433 . S
C1082 C1078 1.350 . S
C1082 C1079 1.463 . S
C1082 N1086 1.427 . S
C1083 H1073 0.929 . S
C1083 C1081 1.433 . S
C1083 N1086 1.384 . S
C1084 H1075 0.929 . S
C1084 C1076 1.378 . S
C1084 C1079 1.350 . S
C1085 H1072 0.929 . S
C1085 C1077 1.433 . S
C1085 N1087 1.384 . S
N1086 C1082 1.427 . S
N1086 C1083 1.384 . S
N1087 C1079 1.427 . S
N1087 C1085 1.384 . S
H1088 C1094 0.930 . S
H1089 C1098 0.930 . S
H1090 C1103 0.929 . S
H1091 C1101 0.929 . S
H1092 C1096 0.929 . S
H1093 C1102 0.929 . S
C1094 H1088 0.930 . S
C1094 C1095 1.367 . S
C1094 C1102 1.378 . S
C1095 C1094 1.367 . S
C1095 C1103 1.433 . S
C1096 H1092 0.929 . S
C1096 C1098 1.378 . S
C1096 C1100 1.350 . S
C1097 C1100 1.463 . S
C1097 C1102 1.350 . S
C1097 N1105 1.427 . S
C1098 H1089 0.930 . S
C1098 C1096 1.378 . S
C1098 C1099 1.367 . S
C1099 C1098 1.367 . S
C1099 C1101 1.433 . S
C1100 C1096 1.350 . S
C1100 C1097 1.463 . S
C1100 N1104 1.427 . S
C1101 H1091 0.929 . S
C1101 C1099 1.433 . S
C1101 N1104 1.384 . S
C1102 H1093 0.929 . S
C1102 C1094 1.378 . S
C1102 C1097 1.350 . S
C1103 H1090 0.929 . S
C1103 C1095 1.433 . S
C1103 N1105 1.384 . S
N1104 C1100 1.427 . S
N1104 C1101 1.384 . S
N1105 C1097 1.427 . S
N1105 C1103 1.384 . S
H1106 C1112 0.930 . S
H1107 C1116 0.930 . S
H1108 C1121 0.929 . S
H1109 C1119 0.929 . S
H1110 C1114 0.929 . S
H1111 C1120 0.929 . S
C1112 H1106 0.930 . S
C1112 C1113 1.367 . S
C1112 C1120 1.378 . S
C1113 C1112 1.367 . S
C1113 C1121 1.433 . S
C1114 H1110 0.929 . S
C1114 C1116 1.378 . S
C1114 C1118 1.350 . S
C1115 C1118 1.463 . S
C1115 C1120 1.350 . S
C1115 N1123 1.427 . S
C1116 H1107 0.930 . S
C1116 C1114 1.378 . S
C1116 C1117 1.367 . S
C1117 C1116 1.367 . S
C1117 C1119 1.433 . S
C1118 C1114 1.350 . S
C1118 C1115 1.463 . S
C1118 N1122 1.427 . S
C1119 H1109 0.929 . S
C1119 C1117 1.433 . S
C1119 N1122 1.384 . S
C1120 H1111 0.929 . S
C1120 C1112 1.378 . S
C1120 C1115 1.350 . S
C1121 H1108 0.929 . S
C1121 C1113 1.433 . S
C1121 N1123 1.384 . S
N1122 C1118 1.427 . S
N1122 C1119 1.384 . S
N1123 C1115 1.427 . S
N1123 C1121 1.384 . S
H1124 C1130 0.930 . S
H1125 C1134 0.930 . S
H1126 C1139 0.929 . S
H1127 C1137 0.929 . S
H1128 C1132 0.929 . S
H1129 C1138 0.929 . S
C1130 H1124 0.930 . S
C1130 C1131 1.367 . S
C1130 C1138 1.378 . S
C1131 C1130 1.367 . S
C1131 C1139 1.433 . S
C1132 H1128 0.929 . S
C1132 C1134 1.378 . S
C1132 C1136 1.350 . S
C1133 C1136 1.463 . S
C1133 C1138 1.350 . S
C1133 N1141 1.427 . S
C1134 H1125 0.930 . S
C1134 C1132 1.378 . S
C1134 C1135 1.367 . S
C1135 C1134 1.367 . S
C1135 C1137 1.433 . S
C1136 C1132 1.350 . S
C1136 C1133 1.463 . S
C1136 N1140 1.427 . S
C1137 H1127 0.929 . S
C1137 C1135 1.433 . S
C1137 N1140 1.384 . S
C1138 H1129 0.929 . S
C1138 C1130 1.378 . S
C1138 C1133 1.350 . S
C1139 H1126 0.929 . S
C1139 C1131 1.433 . S
C1139 N1141 1.384 . S
N1140 C1136 1.427 . S
N1140 C1137 1.384 . S
N1141 C1133 1.427 . S
N1141 C1139 1.384 . S
H1142 C1148 0.930 . S
H1143 C1152 0.930 . S
H1144 C1157 0.929 . S
H1145 C1155 0.929 . S
H1146 C1150 0.929 . S
H1147 C1156 0.929 . S
C1148 H1142 0.930 . S
C1148 C1149 1.367 . S
C1148 C1156 1.378 . S
C1149 C1148 1.367 . S
C1149 C1157 1.433 . S
C1150 H1146 0.929 . S
C1150 C1152 1.378 . S
C1150 C1154 1.350 . S
C1151 C1154 1.463 . S
C1151 C1156 1.350 . S
C1151 N1159 1.427 . S
C1152 H1143 0.930 . S
C1152 C1150 1.378 . S
C1152 C1153 1.367 . S
C1153 C1152 1.367 . S
C1153 C1155 1.433 . S
C1154 C1150 1.350 . S
C1154 C1151 1.463 . S
C1154 N1158 1.427 . S
C1155 H1145 0.929 . S
C1155 C1153 1.433 . S
C1155 N1158 1.384 . S
C1156 H1147 0.929 . S
C1156 C1148 1.378 . S
C1156 C1151 1.350 . S
C1157 H1144 0.929 . S
C1157 C1149 1.433 . S
C1157 N1159 1.384 . S
N1158 C1154 1.427 . S
N1158 C1155 1.384 . S
N1159 C1151 1.427 . S
N1159 C1157 1.384 . S
H1160 C1166 0.930 . S
H1161 C1170 0.930 . S
H1162 C1175 0.929 . S
H1163 C1173 0.929 . S
H1164 C1168 0.929 . S
H1165 C1174 0.929 . S
C1166 H1160 0.930 . S
C1166 C1167 1.367 . S
C1166 C1174 1.378 . S
C1167 C1166 1.367 . S
C1167 C1175 1.433 . S
C1168 H1164 0.929 . S
C1168 C1170 1.378 . S
C1168 C1172 1.350 . S
C1169 C1172 1.463 . S
C1169 C1174 1.350 . S
C1169 N1177 1.427 . S
C1170 H1161 0.930 . S
C1170 C1168 1.378 . S
C1170 C1171 1.367 . S
C1171 C1170 1.367 . S
C1171 C1173 1.433 . S
C1172 C1168 1.350 . S
C1172 C1169 1.463 . S
C1172 N1176 1.427 . S
C1173 H1163 0.929 . S
C1173 C1171 1.433 . S
C1173 N1176 1.384 . S
C1174 H1165 0.929 . S
C1174 C1166 1.378 . S
C1174 C1169 1.350 . S
C1175 H1162 0.929 . S
C1175 C1167 1.433 . S
C1175 N1177 1.384 . S
N1176 C1172 1.427 . S
N1176 C1173 1.384 . S
N1177 C1169 1.427 . S
N1177 C1175 1.384 . S
H1178 C1184 0.930 . S
H1179 C1188 0.930 . S
H1180 C1193 0.929 . S
H1181 C1191 0.929 . S
H1182 C1186 0.929 . S
H1183 C1192 0.929 . S
C1184 H1178 0.930 . S
C1184 C1185 1.367 . S
C1184 C1192 1.378 . S
C1185 C1184 1.367 . S
C1185 C1193 1.433 . S
C1186 H1182 0.929 . S
C1186 C1188 1.378 . S
C1186 C1190 1.350 . S
C1187 C1190 1.463 . S
C1187 C1192 1.350 . S
C1187 N1195 1.427 . S
C1188 H1179 0.930 . S
C1188 C1186 1.378 . S
C1188 C1189 1.367 . S
C1189 C1188 1.367 . S
C1189 C1191 1.433 . S
C1190 C1186 1.350 . S
C1190 C1187 1.463 . S
C1190 N1194 1.427 . S
C1191 H1181 0.929 . S
C1191 C1189 1.433 . S
C1191 N1194 1.384 . S
C1192 H1183 0.929 . S
C1192 C1184 1.378 . S
C1192 C1187 1.350 . S
C1193 H1180 0.929 . S
C1193 C1185 1.433 . S
C1193 N1195 1.384 . S
N1194 C1190 1.427 . S
N1194 C1191 1.384 . S
N1195 C1187 1.427 . S
N1195 C1193 1.384 . S
H1196 C1202 0.930 . S
H1197 C1206 0.930 . S
H1198 C1211 0.929 . S
H1199 C1209 0.929 . S
H1200 C1204 0.929 . S
H1201 C1210 0.929 . S
C1202 H1196 0.930 . S
C1202 C1203 1.367 . S
C1202 C1210 1.378 . S
C1203 C1202 1.367 . S
C1203 C1211 1.433 . S
C1204 H1200 0.929 . S
C1204 C1206 1.378 . S
C1204 C1208 1.350 . S
C1205 C1208 1.463 . S
C1205 C1210 1.350 . S
C1205 N1213 1.427 . S
C1206 H1197 0.930 . S
C1206 C1204 1.378 . S
C1206 C1207 1.367 . S
C1207 C1206 1.367 . S
C1207 C1209 1.433 . S
C1208 C1204 1.350 . S
C1208 C1205 1.463 . S
C1208 N1212 1.427 . S
C1209 H1199 0.929 . S
C1209 C1207 1.433 . S
C1209 N1212 1.384 . S
C1210 H1201 0.929 . S
C1210 C1202 1.378 . S
C1210 C1205 1.350 . S
C1211 H1198 0.929 . S
C1211 C1203 1.433 . S
C1211 N1213 1.384 . S
N1212 C1208 1.427 . S
N1212 C1209 1.384 . S
N1213 C1205 1.427 . S
N1213 C1211 1.384 . S
H1214 C1220 0.930 . S
H1215 C1224 0.930 . S
H1216 C1229 0.929 . S
H1217 C1227 0.929 . S
H1218 C1222 0.929 . S
H1219 C1228 0.929 . S
C1220 H1214 0.930 . S
C1220 C1221 1.367 . S
C1220 C1228 1.378 . S
C1221 C1220 1.367 . S
C1221 C1229 1.433 . S
C1222 H1218 0.929 . S
C1222 C1224 1.378 . S
C1222 C1226 1.350 . S
C1223 C1226 1.463 . S
C1223 C1228 1.350 . S
C1223 N1231 1.427 . S
C1224 H1215 0.930 . S
C1224 C1222 1.378 . S
C1224 C1225 1.367 . S
C1225 C1224 1.367 . S
C1225 C1227 1.433 . S
C1226 C1222 1.350 . S
C1226 C1223 1.463 . S
C1226 N1230 1.427 . S
C1227 H1217 0.929 . S
C1227 C1225 1.433 . S
C1227 N1230 1.384 . S
C1228 H1219 0.929 . S
C1228 C1220 1.378 . S
C1228 C1223 1.350 . S
C1229 H1216 0.929 . S
C1229 C1221 1.433 . S
C1229 N1231 1.384 . S
N1230 C1226 1.427 . S
N1230 C1227 1.384 . S
N1231 C1223 1.427 . S
N1231 C1229 1.384 . S
H1232 C1238 0.930 . S
H1233 C1242 0.930 . S
H1234 C1247 0.929 . S
H1235 C1245 0.929 . S
H1236 C1240 0.929 . S
H1237 C1246 0.929 . S
C1238 H1232 0.930 . S
C1238 C1239 1.367 . S
C1238 C1246 1.378 . S
C1239 C1238 1.367 . S
C1239 C1247 1.433 . S
C1240 H1236 0.929 . S
C1240 C1242 1.378 . S
C1240 C1244 1.350 . S
C1241 C1244 1.463 . S
C1241 C1246 1.350 . S
C1241 N1249 1.427 . S
C1242 H1233 0.930 . S
C1242 C1240 1.378 . S
C1242 C1243 1.367 . S
C1243 C1242 1.367 . S
C1243 C1245 1.433 . S
C1244 C1240 1.350 . S
C1244 C1241 1.463 . S
C1244 N1248 1.427 . S
C1245 H1235 0.929 . S
C1245 C1243 1.433 . S
C1245 N1248 1.384 . S
C1246 H1237 0.929 . S
C1246 C1238 1.378 . S
C1246 C1241 1.350 . S
C1247 H1234 0.929 . S
C1247 C1239 1.433 . S
C1247 N1249 1.384 . S
N1248 C1244 1.427 . S
N1248 C1245 1.384 . S
N1249 C1241 1.427 . S
N1249 C1247 1.384 . S
H1250 C1256 0.930 . S
H1251 C1260 0.930 . S
H1252 C1265 0.929 . S
H1253 C1263 0.929 . S
H1254 C1258 0.929 . S
H1255 C1264 0.929 . S
C1256 H1250 0.930 . S
C1256 C1257 1.367 . S
C1256 C1264 1.378 . S
C1257 C1256 1.367 . S
C1257 C1265 1.433 . S
C1258 H1254 0.929 . S
C1258 C1260 1.378 . S
C1258 C1262 1.350 . S
C1259 C1262 1.463 . S
C1259 C1264 1.350 . S
C1259 N1267 1.427 . S
C1260 H1251 0.930 . S
C1260 C1258 1.378 . S
C1260 C1261 1.367 . S
C1261 C1260 1.367 . S
C1261 C1263 1.433 . S
C1262 C1258 1.350 . S
C1262 C1259 1.463 . S
C1262 N1266 1.427 . S
C1263 H1253 0.929 . S
C1263 C1261 1.433 . S
C1263 N1266 1.384 . S
C1264 H1255 0.929 . S
C1264 C1256 1.378 . S
C1264 C1259 1.350 . S
C1265 H1252 0.929 . S
C1265 C1257 1.433 . S
C1265 N1267 1.384 . S
N1266 C1262 1.427 . S
N1266 C1263 1.384 . S
N1267 C1259 1.427 . S
N1267 C1265 1.384 . S
H1268 C1274 0.930 . S
H1269 C1278 0.930 . S
H1270 C1283 0.929 . S
H1271 C1281 0.929 . S
H1272 C1276 0.929 . S
H1273 C1282 0.929 . S
C1274 H1268 0.930 . S
C1274 C1275 1.367 . S
C1274 C1282 1.378 . S
C1275 C1274 1.367 . S
C1275 C1283 1.433 . S
C1276 H1272 0.929 . S
C1276 C1278 1.378 . S
C1276 C1280 1.350 . S
C1277 C1280 1.463 . S
C1277 C1282 1.350 . S
C1277 N1285 1.427 . S
C1278 H1269 0.930 . S
C1278 C1276 1.378 . S
C1278 C1279 1.367 . S
C1279 C1278 1.367 . S
C1279 C1281 1.433 . S
C1280 C1276 1.350 . S
C1280 C1277 1.463 . S
C1280 N1284 1.427 . S
C1281 H1271 0.929 . S
C1281 C1279 1.433 . S
C1281 N1284 1.384 . S
C1282 H1273 0.929 . S
C1282 C1274 1.378 . S
C1282 C1277 1.350 . S
C1283 H1270 0.929 . S
C1283 C1275 1.433 . S
C1283 N1285 1.384 . S
N1284 C1280 1.427 . S
N1284 C1281 1.384 . S
N1285 C1277 1.427 . S
N1285 C1283 1.384 . S
H1286 C1292 0.930 . S
H1287 C1296 0.930 . S
H1288 C1301 0.929 . S
H1289 C1299 0.929 . S
H1290 C1294 0.929 . S
H1291 C1300 0.929 . S
C1292 H1286 0.930 . S
C1292 C1293 1.367 . S
C1292 C1300 1.378 . S
C1293 C1292 1.367 . S
C1293 C1301 1.433 . S
C1294 H1290 0.929 . S
C1294 C1296 1.378 . S
C1294 C1298 1.350 . S
C1295 C1298 1.463 . S
C1295 C1300 1.350 . S
C1295 N1303 1.427 . S
C1296 H1287 0.930 . S
C1296 C1294 1.378 . S
C1296 C1297 1.367 . S
C1297 C1296 1.367 . S
C1297 C1299 1.433 . S
C1298 C1294 1.350 . S
C1298 C1295 1.463 . S
C1298 N1302 1.427 . S
C1299 H1289 0.929 . S
C1299 C1297 1.433 . S
C1299 N1302 1.384 . S
C1300 H1291 0.929 . S
C1300 C1292 1.378 . S
C1300 C1295 1.350 . S
C1301 H1288 0.929 . S
C1301 C1293 1.433 . S
C1301 N1303 1.384 . S
N1302 C1298 1.427 . S
N1302 C1299 1.384 . S
N1303 C1295 1.427 . S
N1303 C1301 1.384 . S
H1304 C1310 0.930 . S
H1305 C1314 0.930 . S
H1306 C1319 0.929 . S
H1307 C1317 0.929 . S
H1308 C1312 0.929 . S
H1309 C1318 0.929 . S
C1310 H1304 0.930 . S
C1310 C1311 1.367 . S
C1310 C1318 1.378 . S
C1311 C1310 1.367 . S
C1311 C1319 1.433 . S
C1312 H1308 0.929 . S
C1312 C1314 1.378 . S
C1312 C1316 1.350 . S
C1313 C1316 1.463 . S
C1313 C1318 1.350 . S
C1313 N1321 1.427 . S
C1314 H1305 0.930 . S
C1314 C1312 1.378 . S
C1314 C1315 1.367 . S
C1315 C1314 1.367 . S
C1315 C1317 1.433 . S
C1316 C1312 1.350 . S
C1316 C1313 1.463 . S
C1316 N1320 1.427 . S
C1317 H1307 0.929 . S
C1317 C1315 1.433 . S
C1317 N1320 1.384 . S
C1318 H1309 0.929 . S
C1318 C1310 1.378 . S
C1318 C1313 1.350 . S
C1319 H1306 0.929 . S
C1319 C1311 1.433 . S
C1319 N1321 1.384 . S
N1320 C1316 1.427 . S
N1320 C1317 1.384 . S
N1321 C1313 1.427 . S
N1321 C1319 1.384 . S
H1322 C1328 0.930 . S
H1323 C1332 0.930 . S
H1324 C1337 0.929 . S
H1325 C1335 0.929 . S
H1326 C1330 0.929 . S
H1327 C1336 0.929 . S
C1328 H1322 0.930 . S
C1328 C1329 1.367 . S
C1328 C1336 1.378 . S
C1329 C1328 1.367 . S
C1329 C1337 1.433 . S
C1330 H1326 0.929 . S
C1330 C1332 1.378 . S
C1330 C1334 1.350 . S
C1331 C1334 1.463 . S
C1331 C1336 1.350 . S
C1331 N1339 1.427 . S
C1332 H1323 0.930 . S
C1332 C1330 1.378 . S
C1332 C1333 1.367 . S
C1333 C1332 1.367 . S
C1333 C1335 1.433 . S
C1334 C1330 1.350 . S
C1334 C1331 1.463 . S
C1334 N1338 1.427 . S
C1335 H1325 0.929 . S
C1335 C1333 1.433 . S
C1335 N1338 1.384 . S
C1336 H1327 0.929 . S
C1336 C1328 1.378 . S
C1336 C1331 1.350 . S
C1337 H1324 0.929 . S
C1337 C1329 1.433 . S
C1337 N1339 1.384 . S
N1338 C1334 1.427 . S
N1338 C1335 1.384 . S
N1339 C1331 1.427 . S
N1339 C1337 1.384 . S
H1340 C1346 0.930 . S
H1341 C1350 0.930 . S
H1342 C1355 0.929 . S
H1343 C1353 0.929 . S
H1344 C1348 0.929 . S
H1345 C1354 0.929 . S
C1346 H1340 0.930 . S
C1346 C1347 1.367 . S
C1346 C1354 1.378 . S
C1347 C1346 1.367 . S
C1347 C1355 1.433 . S
C1348 H1344 0.929 . S
C1348 C1350 1.378 . S
C1348 C1352 1.350 . S
C1349 C1352 1.463 . S
C1349 C1354 1.350 . S
C1349 N1357 1.427 . S
C1350 H1341 0.930 . S
C1350 C1348 1.378 . S
C1350 C1351 1.367 . S
C1351 C1350 1.367 . S
C1351 C1353 1.433 . S
C1352 C1348 1.350 . S
C1352 C1349 1.463 . S
C1352 N1356 1.427 . S
C1353 H1343 0.929 . S
C1353 C1351 1.433 . S
C1353 N1356 1.384 . S
C1354 H1345 0.929 . S
C1354 C1346 1.378 . S
C1354 C1349 1.350 . S
C1355 H1342 0.929 . S
C1355 C1347 1.433 . S
C1355 N1357 1.384 . S
N1356 C1352 1.427 . S
N1356 C1353 1.384 . S
N1357 C1349 1.427 . S
N1357 C1355 1.384 . S
H1358 C1364 0.930 . S
H1359 C1368 0.930 . S
H1360 C1373 0.929 . S
H1361 C1371 0.929 . S
H1362 C1366 0.929 . S
H1363 C1372 0.929 . S
C1364 H1358 0.930 . S
C1364 C1365 1.367 . S
C1364 C1372 1.378 . S
C1365 C1364 1.367 . S
C1365 C1373 1.433 . S
C1366 H1362 0.929 . S
C1366 C1368 1.378 . S
C1366 C1370 1.350 . S
C1367 C1370 1.463 . S
C1367 C1372 1.350 . S
C1367 N1375 1.427 . S
C1368 H1359 0.930 . S
C1368 C1366 1.378 . S
C1368 C1369 1.367 . S
C1369 C1368 1.367 . S
C1369 C1371 1.433 . S
C1370 C1366 1.350 . S
C1370 C1367 1.463 . S
C1370 N1374 1.427 . S
C1371 H1361 0.929 . S
C1371 C1369 1.433 . S
C1371 N1374 1.384 . S
C1372 H1363 0.929 . S
C1372 C1364 1.378 . S
C1372 C1367 1.350 . S
C1373 H1360 0.929 . S
C1373 C1365 1.433 . S
C1373 N1375 1.384 . S
N1374 C1370 1.427 . S
N1374 C1371 1.384 . S
N1375 C1367 1.427 . S
N1375 C1373 1.384 . S
C519 C98 1.250 . S
C523 N18 1.209 . S
C537 C4 1.386 . S
C541 C38 1.396 . S
C555 N77 1.220 . S
C559 C34 1.335 . S
C573 C102 1.686 . S
C577 C66 1.690 . S
C591 C157 1.439 . S
C595 C164 1.404 . S
C609 N178 0.331 . S
C613 N205 0.425 . S
C627 C196 1.724 . S
C631 C226 1.715 . S
C645 N146 0.391 . S
C649 N237 0.699 . S
C663 C317 1.571 . S
C667 C29 1.565 . S
C681 C349 1.393 . S
C685 N50 1.279 . S
C699 C70 1.416 . S
C703 C422 1.422 . S
C717 C285 1.389 . S
C721 N114 1.277 . S
C735 N365 1.274 . S
C739 C132 1.389 . S
C753 C477 1.567 . S
C757 C189 1.572 . S
C771 C221 1.395 . S
C775 N402 1.283 . S
C789 C486 1.415 . S
C793 C230 1.424 . S
C807 N269 0.347 . S
C811 N429 0.682 . S
C825 C292 1.401 . S
C829 C260 1.436 . S
C843 N333 0.426 . S
C847 N306 0.344 . S
C861 N466 1.199 . S
C865 C358 1.253 . S
C879 C386 1.336 . S
C883 N493 1.237 . S
C897 C356 1.417 . S
C901 N13 1.340 . S
C915 C388 1.463 . S
C919 C6 1.455 . S
C933 C413 1.407 . S
C937 N82 1.330 . S
C951 C93 1.843 . S
C955 C381 1.845 . S
C969 C294 1.451 . S
C973 C130 1.453 . S
C987 N301 0.429 . S
C991 N210 0.490 . S
C1005 C445 1.809 . S
C1009 C198 1.805 . S
C1023 N141 0.522 . S
C1027 N434 0.583 . S
C1041 C162 1.872 . S
C1045 C2 1.878 . S
C1059 C322 1.454 . S
C1063 N397 1.381 . S
C1077 C68 1.406 . S
C1081 C228 1.404 . S
C1095 C258 1.481 . S
C1099 N370 1.408 . S
C1113 N109 1.413 . S
C1117 C134 1.484 . S
C1131 C290 1.875 . S
C1135 C450 1.874 . S
C1149 C194 1.451 . S
C1153 N45 1.373 . S
C1167 C484 1.407 . S
C1171 C420 1.399 . S
C1185 N274 0.511 . S
C1189 N242 0.627 . S
C1203 C262 1.451 . S
C1207 C166 1.448 . S
C1221 N338 0.513 . S
C1225 N173 0.416 . S
C1239 C125 1.415 . S
C1243 N461 1.349 . S
C1257 C61 1.414 . S
C1261 N498 1.335 . S
C1275 C390 1.399 . S
C1279 C452 1.386 . S
C1293 C354 1.684 . S
C1297 C482 1.693 . S
C1311 C324 1.727 . S
C1315 C418 1.718 . S
C1329 C454 1.456 . S
C1333 C36 1.462 . S
C1347 C100 1.849 . S
C1351 C509 1.848 . S
C1365 C253 1.814 . S
C1369 C326 1.812 . S
