# Generated by pormake.
# Topology whh, (6)-cn, num edge types: 1
# Building blocks:
#     Node 0, Type 0, BuildingBlock: OJICUG_clean_sbu_0, # of connection points: 6
#     Node 1, Type 0, BuildingBlock: OJICUG_clean_sbu_0, # of connection points: 6
#     Node 2, Type 0, BuildingBlock: OJICUG_clean_sbu_0, # of connection points: 6
#     Node 3, Type 0, BuildingBlock: OJICUG_clean_sbu_0, # of connection points: 6
#     Node 4, Type 0, BuildingBlock: OJICUG_clean_sbu_0, # of connection points: 6
#     Node 5, Type 0, BuildingBlock: OJICUG_clean_sbu_0, # of connection points: 6
#     Node 6, Type 0, BuildingBlock: OJICUG_clean_sbu_0, # of connection points: 6
#     Node 7, Type 0, BuildingBlock: OJICUG_clean_sbu_0, # of connection points: 6
#     Node 8, Type 0, BuildingBlock: OJICUG_clean_sbu_0, # of connection points: 6
#     Node 9, Type 0, BuildingBlock: OJICUG_clean_sbu_0, # of connection points: 6
#     Node 10, Type 0, BuildingBlock: OJICUG_clean_sbu_0, # of connection points: 6
#     Node 11, Type 0, BuildingBlock: OJICUG_clean_sbu_0, # of connection points: 6
#     Node 12, Type 0, BuildingBlock: OJICUG_clean_sbu_0, # of connection points: 6
#     Node 13, Type 0, BuildingBlock: OJICUG_clean_sbu_0, # of connection points: 6
#     Node 14, Type 0, BuildingBlock: OJICUG_clean_sbu_0, # of connection points: 6
#     Node 15, Type 0, BuildingBlock: OJICUG_clean_sbu_0, # of connection points: 6
#     Edge 16, Type (0, 0), BuildingBlock: TEMPAE_clean_linker_10, # of connection points: 2
#     Edge 17, Type (0, 0), BuildingBlock: TEMPAE_clean_linker_10, # of connection points: 2
#     Edge 18, Type (0, 0), BuildingBlock: TEMPAE_clean_linker_10, # of connection points: 2
#     Edge 19, Type (0, 0), BuildingBlock: TEMPAE_clean_linker_10, # of connection points: 2
#     Edge 20, Type (0, 0), BuildingBlock: TEMPAE_clean_linker_10, # of connection points: 2
#     Edge 21, Type (0, 0), BuildingBlock: TEMPAE_clean_linker_10, # of connection points: 2
#     Edge 22, Type (0, 0), BuildingBlock: TEMPAE_clean_linker_10, # of connection points: 2
#     Edge 23, Type (0, 0), BuildingBlock: TEMPAE_clean_linker_10, # of connection points: 2
#     Edge 24, Type (0, 0), BuildingBlock: TEMPAE_clean_linker_10, # of connection points: 2
#     Edge 25, Type (0, 0), BuildingBlock: TEMPAE_clean_linker_10, # of connection points: 2
#     Edge 26, Type (0, 0), BuildingBlock: TEMPAE_clean_linker_10, # of connection points: 2
#     Edge 27, Type (0, 0), BuildingBlock: TEMPAE_clean_linker_10, # of connection points: 2
#     Edge 28, Type (0, 0), BuildingBlock: TEMPAE_clean_linker_10, # of connection points: 2
#     Edge 29, Type (0, 0), BuildingBlock: TEMPAE_clean_linker_10, # of connection points: 2
#     Edge 30, Type (0, 0), BuildingBlock: TEMPAE_clean_linker_10, # of connection points: 2
#     Edge 31, Type (0, 0), BuildingBlock: TEMPAE_clean_linker_10, # of connection points: 2
#     Edge 32, Type (0, 0), BuildingBlock: TEMPAE_clean_linker_10, # of connection points: 2
#     Edge 33, Type (0, 0), BuildingBlock: TEMPAE_clean_linker_10, # of connection points: 2
#     Edge 34, Type (0, 0), BuildingBlock: TEMPAE_clean_linker_10, # of connection points: 2
#     Edge 35, Type (0, 0), BuildingBlock: TEMPAE_clean_linker_10, # of connection points: 2
#     Edge 36, Type (0, 0), BuildingBlock: TEMPAE_clean_linker_10, # of connection points: 2
#     Edge 37, Type (0, 0), BuildingBlock: TEMPAE_clean_linker_10, # of connection points: 2
#     Edge 38, Type (0, 0), BuildingBlock: TEMPAE_clean_linker_10, # of connection points: 2
#     Edge 39, Type (0, 0), BuildingBlock: TEMPAE_clean_linker_10, # of connection points: 2
#     Edge 40, Type (0, 0), BuildingBlock: TEMPAE_clean_linker_10, # of connection points: 2
#     Edge 41, Type (0, 0), BuildingBlock: TEMPAE_clean_linker_10, # of connection points: 2
#     Edge 42, Type (0, 0), BuildingBlock: TEMPAE_clean_linker_10, # of connection points: 2
#     Edge 43, Type (0, 0), BuildingBlock: TEMPAE_clean_linker_10, # of connection points: 2
#     Edge 44, Type (0, 0), BuildingBlock: TEMPAE_clean_linker_10, # of connection points: 2
#     Edge 45, Type (0, 0), BuildingBlock: TEMPAE_clean_linker_10, # of connection points: 2
#     Edge 46, Type (0, 0), BuildingBlock: TEMPAE_clean_linker_10, # of connection points: 2
#     Edge 47, Type (0, 0), BuildingBlock: TEMPAE_clean_linker_10, # of connection points: 2
#     Edge 48, Type (0, 0), BuildingBlock: TEMPAE_clean_linker_10, # of connection points: 2
#     Edge 49, Type (0, 0), BuildingBlock: TEMPAE_clean_linker_10, # of connection points: 2
#     Edge 50, Type (0, 0), BuildingBlock: TEMPAE_clean_linker_10, # of connection points: 2
#     Edge 51, Type (0, 0), BuildingBlock: TEMPAE_clean_linker_10, # of connection points: 2
#     Edge 52, Type (0, 0), BuildingBlock: TEMPAE_clean_linker_10, # of connection points: 2
#     Edge 53, Type (0, 0), BuildingBlock: TEMPAE_clean_linker_10, # of connection points: 2
#     Edge 54, Type (0, 0), BuildingBlock: TEMPAE_clean_linker_10, # of connection points: 2
#     Edge 55, Type (0, 0), BuildingBlock: TEMPAE_clean_linker_10, # of connection points: 2
#     Edge 56, Type (0, 0), BuildingBlock: TEMPAE_clean_linker_10, # of connection points: 2
#     Edge 57, Type (0, 0), BuildingBlock: TEMPAE_clean_linker_10, # of connection points: 2
#     Edge 58, Type (0, 0), BuildingBlock: TEMPAE_clean_linker_10, # of connection points: 2
#     Edge 59, Type (0, 0), BuildingBlock: TEMPAE_clean_linker_10, # of connection points: 2
#     Edge 60, Type (0, 0), BuildingBlock: TEMPAE_clean_linker_10, # of connection points: 2
#     Edge 61, Type (0, 0), BuildingBlock: TEMPAE_clean_linker_10, # of connection points: 2
#     Edge 62, Type (0, 0), BuildingBlock: TEMPAE_clean_linker_10, # of connection points: 2
#     Edge 63, Type (0, 0), BuildingBlock: TEMPAE_clean_linker_10, # of connection points: 2
# Relax obj value: 0.385
# Max RMSD: 0.252
# Mean RMSD: 0.252
data_MOF--net-whh--node1-OJICUG_clean_sbu_0--edge1-TEMPAE_clean_linker_10
_symmetry_space_group_name_H-M    P1
_symmetry_Int_Tables_number       1
_symmetry_cell_setting            triclinic
loop_
_symmetry_equiv_pos_as_xyz
'x, y, z'
_cell_length_a     36.142575
_cell_length_b     36.171133
_cell_length_c     44.906045
_cell_angle_alpha  89.938741
_cell_angle_beta   90.03383
_cell_angle_gamma 90.104093
loop_
_atom_site_label
_atom_site_type_symbol
_atom_site_fract_x
_atom_site_fract_y
_atom_site_fract_z
_atom_type_partial_charge
Sc0 Sc 0.05196 0.66501 0.074 0.0
Sc1 Sc 0.1017 0.61378 0.12485 0.0
Sc2 Sc 0.02173 0.66068 0.14692 0.0
O3 O 0.05891 0.64759 0.11598 0.0
C4 C 0.01574 0.73263 0.1091 0.0
C5 C 0.13475 0.67819 0.08331 0.0
C6 C 0.10149 0.66755 0.17897 0.0
C7 C 0.0776 0.58608 0.06397 0.0
C8 C 0.9743 0.63242 0.09173 0.0
C9 C 0.03924 0.57834 0.16619 0.0
O10 O 0.02238 0.71493 0.08531 0.0
O11 O 0.13712 0.64575 0.09462 0.0
O12 O 0.06637 0.67227 0.17796 0.0
O13 O 0.08186 0.61914 0.05568 0.0
O14 O 0.976 0.64784 0.11728 0.0
O15 O 0.07235 0.57874 0.15657 0.0
O16 O 1.00075 0.63339 0.0728 0.0
O17 O 0.08204 0.5771 0.09096 0.0
O18 O 0.01713 0.60502 0.16228 0.0
O19 O 0.10394 0.69383 0.07742 0.0
O20 O 0.02022 0.71835 0.1347 0.0
O21 O 0.11981 0.64916 0.15991 0.0
Sc22 Sc 0.84253 0.04367 0.06249 0.0
Sc23 Sc 0.8829 0.09863 0.11627 0.0
Sc24 Sc 0.83082 0.02158 0.13678 0.0
O25 O 0.85144 0.05455 0.10576 0.0
C26 C 0.76973 0.00721 0.08915 0.0
C27 C 0.82583 0.12629 0.06754 0.0
C28 C 0.81407 0.10469 0.15839 0.0
C29 C 0.9221 0.06889 0.06213 0.0
C30 C 0.87221 0.96932 0.08948 0.0
C31 C 0.90693 0.04353 0.1681 0.0
O32 O 0.79223 0.01201 0.06787 0.0
O33 O 0.8578 0.12937 0.07961 0.0
O34 O 0.80901 0.06962 0.15938 0.0
O35 O 0.89112 0.07402 0.04989 0.0
O36 O 0.85389 0.97405 0.11363 0.0
O37 O 0.91055 0.07411 0.15445 0.0
O38 O 0.87369 0.99299 0.06823 0.0
O39 O 0.92623 0.07538 0.08959 0.0
O40 O 0.88051 0.02143 0.16284 0.0
O41 O 0.81219 0.09492 0.06024 0.0
O42 O 0.77766 0.01618 0.11563 0.0
O43 O 0.84001 0.12022 0.14383 0.0
Sc44 Sc 0.46291 0.8219 0.06229 0.0
Sc45 Sc 0.40958 0.87552 0.1091 0.0
Sc46 Sc 0.4854 0.82554 0.13655 0.0
O47 O 0.45274 0.841 0.10321 0.0
C48 C 0.49644 0.75473 0.09922 0.0
C49 C 0.37935 0.80949 0.06886 0.0
C50 C 0.40243 0.81857 0.16174 0.0
C51 C 0.43717 0.90106 0.04841 0.0
C52 C 0.5395 0.85205 0.08384 0.0
C53 C 0.46815 0.90858 0.15558 0.0
O54 O 0.49269 0.77284 0.07528 0.0
O55 O 0.37658 0.84314 0.07747 0.0
O56 O 0.43725 0.8124 0.1629 0.0
O57 O 0.43518 0.86737 0.04115 0.0
O58 O 0.53406 0.83869 0.10996 0.0
O59 O 0.4372 0.91052 0.14205 0.0
O60 O 0.51493 0.85165 0.06323 0.0
O61 O 0.43124 0.91137 0.07494 0.0
O62 O 0.48896 0.88047 0.15407 0.0
O63 O 0.41049 0.79358 0.06475 0.0
O64 O 0.48692 0.76804 0.1241 0.0
O65 O 0.38741 0.84089 0.14348 0.0
Sc66 Sc 0.67411 0.44585 0.07394 0.0
Sc67 Sc 0.61763 0.39537 0.12155 0.0
Sc68 Sc 0.67882 0.46168 0.15016 0.0
O69 O 0.65726 0.43415 0.11559 0.0
C70 C 0.74755 0.47229 0.10748 0.0
C71 C 0.6773 0.36038 0.07578 0.0
C72 C 0.67873 0.37715 0.17013 0.0
C73 C 0.59113 0.42856 0.06214 0.0
C74 C 0.65004 0.5221 0.10313 0.0
C75 C 0.59569 0.44987 0.17397 0.0
O76 O 0.7285 0.46653 0.08432 0.0
O77 O 0.64632 0.35962 0.08974 0.0
O78 O 0.69378 0.40925 0.16994 0.0
O79 O 0.62414 0.42767 0.05308 0.0
O80 O 0.66208 0.51331 0.1291 0.0
O81 O 0.58587 0.42646 0.15436 0.0
O82 O 0.65133 0.50058 0.08044 0.0
O83 O 0.58257 0.42048 0.08865 0.0
O84 O 0.62823 0.46284 0.17507 0.0
O85 O 0.69468 0.39037 0.06997 0.0
O86 O 0.73436 0.4674 0.13329 0.0
O87 O 0.64953 0.36884 0.15575 0.0
Sc88 Sc 0.02034 0.84408 0.35491 0.0
Sc89 Sc 0.0986 0.89189 0.38044 0.0
Sc90 Sc 0.04581 0.83989 0.42833 0.0
O91 O 0.05528 0.85801 0.3871 0.0
C92 C 0.97022 0.87231 0.40853 0.0
C93 C 0.03798 0.92687 0.33671 0.0
C94 C 0.07311 0.91714 0.44138 0.0
C95 C 0.10148 0.83933 0.3254 0.0
C96 C 0.0103 0.77342 0.39215 0.0
C97 C 0.12805 0.82469 0.42061 0.0
O98 O 0.97296 0.85556 0.38352 0.0
O99 O 0.0703 0.9272 0.34813 0.0
O100 O 0.07744 0.88358 0.44795 0.0
O101 O 0.06646 0.83392 0.32521 0.0
O102 O 0.0134 0.79236 0.41575 0.0
O103 O 0.13179 0.85799 0.41113 0.0
O104 O 0.0203 0.7861 0.36703 0.0
O105 O 0.11857 0.8576 0.3453 0.0
O106 O 0.09658 0.80949 0.4251 0.0
O107 O 0.01584 0.89985 0.33953 0.0
O108 O 0.99606 0.87291 0.42798 0.0
O109 O 0.07816 0.92801 0.41489 0.0
Sc110 Sc 0.6664 0.05702 0.41927 0.0
Sc111 Sc 0.61862 0.10723 0.36601 0.0
Sc112 Sc 0.67536 0.03347 0.34501 0.0
O113 O 0.65397 0.06598 0.37628 0.0
C114 C 0.74113 0.02696 0.38989 0.0
C115 C 0.67456 0.14117 0.41398 0.0
C116 C 0.68352 0.1169 0.32044 0.0
C117 C 0.58354 0.07694 0.42286 0.0
C118 C 0.64261 0.97894 0.39503 0.0
C119 C 0.59557 0.04763 0.3169 0.0
O120 O 0.7201 0.03204 0.41211 0.0
O121 O 0.6434 0.14232 0.40046 0.0
O122 O 0.69173 0.08244 0.32041 0.0
O123 O 0.61508 0.08033 0.43486 0.0
O124 O 0.65867 0.98453 0.36995 0.0
O125 O 0.59028 0.07839 0.32991 0.0
O126 O 0.64065 0.00332 0.41561 0.0
O127 O 0.57875 0.08307 0.39538 0.0
O128 O 0.62411 0.02816 0.32143 0.0
O129 O 0.69104 0.11106 0.42042 0.0
O130 O 0.73012 0.03256 0.36351 0.0
O131 O 0.65736 0.13087 0.3356 0.0
Sc132 Sc 0.47256 0.68322 0.34739 0.0
Sc133 Sc 0.39932 0.62762 0.37246 0.0
Sc134 Sc 0.45283 0.67702 0.42217 0.0
O135 O 0.44175 0.66272 0.38006 0.0
C136 C 0.52826 0.64872 0.39637 0.0
C137 C 0.45474 0.60293 0.32067 0.0
C138 C 0.42923 0.59695 0.43056 0.0
C139 C 0.38844 0.69259 0.32615 0.0
C140 C 0.48654 0.74832 0.39122 0.0
C141 C 0.36945 0.68907 0.41773 0.0
O142 O 0.52195 0.66399 0.37096 0.0
O143 O 0.4271 0.59613 0.33742 0.0
O144 O 0.4249 0.62957 0.43969 0.0
O145 O 0.42272 0.70149 0.32561 0.0
O146 O 0.48246 0.7275 0.41359 0.0
O147 O 0.36651 0.65667 0.40636 0.0
O148 O 0.4771 0.73814 0.3654 0.0
O149 O 0.37544 0.66522 0.34068 0.0
O150 O 0.40051 0.70489 0.4226 0.0
O151 O 0.47309 0.63273 0.32254 0.0
O152 O 0.50472 0.64812 0.41777 0.0
O153 O 0.42281 0.58879 0.40365 0.0
Sc154 Sc 0.823 0.4811 0.35351 0.0
Sc155 Sc 0.86973 0.40192 0.37618 0.0
Sc156 Sc 0.83376 0.46257 0.42802 0.0
O157 O 0.84202 0.44866 0.38548 0.0
C158 C 0.86319 0.5358 0.39978 0.0
C159 C 0.89844 0.45551 0.32474 0.0
C160 C 0.91332 0.43107 0.42884 0.0
C161 C 0.80222 0.39839 0.33313 0.0
C162 C 0.76116 0.49694 0.39904 0.0
C163 C 0.81349 0.38018 0.42697 0.0
O164 O 0.84376 0.52996 0.37637 0.0
O165 O 0.89785 0.42368 0.33688 0.0
O166 O 0.88269 0.43316 0.44254 0.0
O167 O 0.80177 0.43354 0.33001 0.0
O168 O 0.78379 0.49455 0.42059 0.0
O169 O 0.84472 0.37431 0.41452 0.0
O170 O 0.76924 0.48579 0.37316 0.0
O171 O 0.82469 0.38154 0.35015 0.0
O172 O 0.80141 0.41268 0.43208 0.0
O173 O 0.87459 0.48014 0.33045 0.0
O174 O 0.86614 0.51223 0.42095 0.0
O175 O 0.91498 0.42279 0.40152 0.0
Sc176 Sc 0.98657 0.32546 0.85174 0.0
Sc177 Sc 0.91098 0.37989 0.87337 0.0
Sc178 Sc 0.96254 0.33334 0.92599 0.0
O179 O 0.95338 0.34582 0.88316 0.0
C180 C 0.99523 0.2603 0.89646 0.0
C181 C 0.90385 0.31558 0.82681 0.0
C182 C 0.87831 0.32199 0.92051 0.0
C183 C 0.96972 0.40491 0.82395 0.0
C184 C 0.0403 0.35881 0.90159 0.0
C185 C 0.93915 0.41485 0.93071 0.0
O186 O 0.98792 0.27035 0.87008 0.0
O187 O 0.88893 0.34041 0.84282 0.0
O188 O 0.90899 0.30655 0.92739 0.0
O189 O 0.99055 0.37725 0.82844 0.0
O190 O 0.01549 0.36113 0.92186 0.0
O191 O 0.93319 0.42069 0.90332 0.0
O192 O 0.03533 0.34211 0.87678 0.0
O193 O 0.93897 0.40899 0.83734 0.0
O194 O 0.93631 0.38281 0.94171 0.0
O195 O 0.93859 0.30892 0.82655 0.0
O196 O 0.99037 0.28155 0.9185 0.0
O197 O 0.87691 0.35352 0.90754 0.0
Sc198 Sc 0.17546 0.95055 0.92031 0.0
Sc199 Sc 0.11785 0.90463 0.87097 0.0
Sc200 Sc 0.17399 0.97791 0.84609 0.0
O201 O 0.15622 0.9442 0.87857 0.0
C202 C 0.14961 0.03027 0.90029 0.0
C203 C 0.09429 0.92869 0.93366 0.0
C204 C 0.08978 0.96652 0.82566 0.0
C205 C 0.18141 0.86637 0.91084 0.0
C206 C 0.24594 0.98138 0.88545 0.0
C207 C 0.17312 0.89745 0.81677 0.0
O208 O 0.15051 0.00513 0.92045 0.0
O209 O 0.08405 0.92458 0.90692 0.0
O210 O 0.1206 0.98325 0.8261 0.0
O211 O 0.19845 0.89597 0.91815 0.0
O212 O 0.2313 0.97922 0.85985 0.0
O213 O 0.14906 0.88362 0.83417 0.0
O214 O 0.22808 0.97419 0.90894 0.0
O215 O 0.14918 0.86632 0.89891 0.0
O216 O 0.18509 0.9307 0.81821 0.0
O217 O 0.12787 0.92688 0.94113 0.0
O218 O 0.16125 0.02544 0.87363 0.0
O219 O 0.0835 0.93777 0.84124 0.0
Sc220 Sc 0.522 0.17234 0.86017 0.0
Sc221 Sc 0.60443 0.1248 0.8725 0.0
Sc222 Sc 0.55606 0.16083 0.93225 0.0
O223 O 0.56077 0.15366 0.8879 0.0
C224 C 0.51434 0.23341 0.90999 0.0
C225 C 0.60034 0.1955 0.83191 0.0
C226 C 0.63867 0.17776 0.92222 0.0
C227 C 0.54427 0.09949 0.82478 0.0
C228 C 0.47842 0.12851 0.91108 0.0
C229 C 0.58146 0.08076 0.92709 0.0
O230 O 0.5145 0.22372 0.88291 0.0
O231 O 0.6194 0.17051 0.8448 0.0
O232 O 0.60811 0.19068 0.932 0.0
O233 O 0.52128 0.1238 0.83289 0.0
O234 O 0.50423 0.12965 0.93069 0.0
O235 O 0.5866 0.07906 0.89924 0.0
O236 O 0.47962 0.14566 0.88622 0.0
O237 O 0.57669 0.09778 0.83552 0.0
O238 O 0.58636 0.1108 0.94094 0.0
O239 O 0.56508 0.19816 0.83401 0.0
O240 O 0.52643 0.21285 0.93071 0.0
O241 O 0.64003 0.14797 0.90697 0.0
Sc242 Sc 0.34701 0.5135 0.85428 0.0
Sc243 Sc 0.39187 0.59588 0.87165 0.0
Sc244 Sc 0.34377 0.54814 0.92618 0.0
O245 O 0.35999 0.55258 0.88341 0.0
C246 C 0.27655 0.50691 0.89431 0.0
C247 C 0.33482 0.59082 0.81985 0.0
C248 C 0.32795 0.62952 0.91253 0.0
C249 C 0.42672 0.53344 0.83012 0.0
C250 C 0.37807 0.47079 0.91183 0.0
C251 C 0.42276 0.5742 0.93189 0.0
O252 O 0.29002 0.51075 0.86839 0.0
O253 O 0.3538 0.61076 0.83752 0.0
O254 O 0.31357 0.59885 0.92066 0.0
O255 O 0.40174 0.51011 0.83638 0.0
O256 O 0.3753 0.49766 0.93015 0.0
O257 O 0.43085 0.5785 0.9047 0.0
O258 O 0.36436 0.47111 0.88553 0.0
O259 O 0.4256 0.56671 0.83916 0.0
O260 O 0.39025 0.58045 0.94083 0.0
O261 O 0.33158 0.55563 0.82213 0.0
O262 O 0.29449 0.51585 0.91754 0.0
O263 O 0.36066 0.63167 0.90168 0.0
Sc264 Sc 0.95388 0.17182 0.57231 0.0
Sc265 Sc 0.89408 0.12777 0.62081 0.0
Sc266 Sc 0.96442 0.18501 0.64824 0.0
O267 O 0.93757 0.16185 0.61426 0.0
C268 C 0.02572 0.14554 0.60687 0.0
C269 C 0.93006 0.08945 0.5683 0.0
C270 C 0.9416 0.10808 0.6784 0.0
C271 C 0.86969 0.18309 0.56909 0.0
C272 C 0.98311 0.24693 0.60129 0.0
C273 C 0.87813 0.19694 0.66133 0.0
O274 O 0.00583 0.14511 0.58316 0.0
O275 O 0.92065 0.08614 0.59521 0.0
O276 O 0.96008 0.13774 0.67665 0.0
O277 O 0.90131 0.19799 0.56507 0.0
O278 O 0.97443 0.23749 0.62747 0.0
O279 O 0.86711 0.16808 0.64781 0.0
O280 O 0.97918 0.22519 0.57946 0.0
O281 O 0.86538 0.15216 0.58254 0.0
O282 O 0.91215 0.20649 0.66394 0.0
O283 O 0.93159 0.12059 0.55549 0.0
O284 O 0.01598 0.16191 0.63104 0.0
O285 O 0.91682 0.09958 0.65952 0.0
Sc286 Sc 0.32629 0.96298 0.56951 0.0
Sc287 Sc 0.38348 0.91064 0.61423 0.0
Sc288 Sc 0.33433 0.98566 0.64354 0.0
O289 O 0.34771 0.95284 0.60972 0.0
C290 C 0.35514 0.04008 0.58975 0.0
C291 C 0.40543 0.94003 0.55302 0.0
C292 C 0.41862 0.97101 0.65828 0.0
C293 C 0.31616 0.87912 0.57531 0.0
C294 C 0.26071 0.99387 0.6099 0.0
C295 C 0.33459 0.90326 0.67111 0.0
O296 O 0.355 0.01525 0.56949 0.0
O297 O 0.41683 0.93342 0.57916 0.0
O298 O 0.39074 0.99213 0.65674 0.0
O299 O 0.29938 0.90992 0.57207 0.0
O300 O 0.27558 0.98394 0.63421 0.0
O301 O 0.35198 0.8878 0.64995 0.0
O302 O 0.27757 0.99122 0.58526 0.0
O303 O 0.34998 0.87681 0.58375 0.0
O304 O 0.32795 0.93798 0.67242 0.0
O305 O 0.37151 0.93734 0.54639 0.0
O306 O 0.34202 0.0347 0.61592 0.0
O307 O 0.41945 0.93915 0.64613 0.0
Sc308 Sc 0.54794 0.34038 0.55882 0.0
Sc309 Sc 0.60491 0.3828 0.61024 0.0
Sc310 Sc 0.52924 0.32977 0.63322 0.0
O311 O 0.56086 0.35058 0.60137 0.0
C312 C 0.47369 0.36784 0.58635 0.0
C313 C 0.57477 0.42007 0.55474 0.0
C314 C 0.54884 0.40827 0.66107 0.0
C315 C 0.63106 0.32402 0.56168 0.0
C316 C 0.5147 0.26758 0.58807 0.0
C317 C 0.61273 0.31836 0.65633 0.0
O318 O 0.49732 0.37142 0.56523 0.0
O319 O 0.58173 0.42449 0.58208 0.0
O320 O 0.52732 0.38104 0.65689 0.0
O321 O 0.59915 0.31026 0.55625 0.0
O322 O 0.52687 0.27553 0.61371 0.0
O323 O 0.62776 0.34295 0.6401 0.0
O324 O 0.51665 0.29035 0.56667 0.0
O325 O 0.63559 0.35554 0.57424 0.0
O326 O 0.57794 0.31187 0.65707 0.0
O327 O 0.57692 0.38849 0.54293 0.0
O328 O 0.47982 0.34835 0.60973 0.0
O329 O 0.57946 0.41197 0.64737 0.0
Sc330 Sc 0.16965 0.55198 0.56178 0.0
Sc331 Sc 0.11732 0.60239 0.61091 0.0
Sc332 Sc 0.16838 0.52568 0.63515 0.0
O333 O 0.15238 0.56036 0.6034 0.0
C334 C 0.14 0.4752 0.58176 0.0
C335 C 0.0909 0.57626 0.55027 0.0
C336 C 0.0857 0.54036 0.6553 0.0
C337 C 0.18265 0.63476 0.57022 0.0
C338 C 0.23805 0.51769 0.59661 0.0
C339 C 0.17137 0.60669 0.6649 0.0
O340 O 0.13828 0.50113 0.56245 0.0
O341 O 0.08086 0.58093 0.577 0.0
O342 O 0.11328 0.51919 0.6518 0.0
O343 O 0.19857 0.60387 0.56501 0.0
O344 O 0.22603 0.52736 0.62198 0.0
O345 O 0.15186 0.62334 0.64557 0.0
O346 O 0.21847 0.52095 0.57334 0.0
O347 O 0.14929 0.63715 0.57985 0.0
O348 O 0.17808 0.57195 0.66477 0.0
O349 O 0.12412 0.58173 0.54291 0.0
O350 O 0.15729 0.47822 0.60655 0.0
O351 O 0.08391 0.57261 0.64383 0.0
C352 C 0.79898 0.51164 0.12755 0.0
C353 C 0.78448 0.49023 0.10422 0.0
C354 C 0.83073 0.53358 0.12351 0.0
C355 C 0.84896 0.53378 0.09557 0.0
C356 C 0.83547 0.511 0.07232 0.0
C357 C 0.80322 0.48979 0.07682 0.0
C358 C 0.84387 0.5577 0.14885 0.0
C359 C 0.8547 0.50964 0.04251 0.0
C360 C 0.90817 0.61891 0.07934 0.0
C361 C 0.94342 0.60636 0.08722 0.0
C362 C 0.87735 0.59506 0.08065 0.0
C363 C 0.88191 0.55815 0.0908 0.0
C364 C 0.9177 0.54538 0.0984 0.0
C365 C 0.94805 0.56956 0.09623 0.0
C366 C 0.83965 0.60986 0.07258 0.0
C367 C 0.92367 0.5067 0.11013 0.0
H368 H 0.78455 0.51262 0.14869 0.0
H369 H 0.79231 0.47333 0.05866 0.0
H370 H 0.87401 0.55423 0.15251 0.0
H371 H 0.83912 0.58716 0.14312 0.0
H372 H 0.82921 0.55148 0.17002 0.0
H373 H 0.84104 0.4902 0.02681 0.0
H374 H 0.85512 0.53759 0.03231 0.0
H375 H 0.88389 0.50098 0.04553 0.0
H376 H 0.90457 0.64764 0.07308 0.0
H377 H 0.97524 0.56027 0.10315 0.0
H378 H 0.82187 0.61044 0.09271 0.0
H379 H 0.82604 0.59143 0.05614 0.0
H380 H 0.84109 0.63823 0.06314 0.0
H381 H 0.90482 0.50099 0.12906 0.0
H382 H 0.95255 0.50217 0.11775 0.0
H383 H 0.91699 0.48635 0.09245 0.0
C384 C 0.97201 0.7813 0.1269 0.0
C385 C 0.999 0.76987 0.10651 0.0
C386 C 0.95259 0.81453 0.12272 0.0
C387 C 0.96109 0.83746 0.09801 0.0
C388 C 0.98921 0.82661 0.07788 0.0
C389 C 0.00754 0.79276 0.08221 0.0
C390 C 0.92214 0.82453 0.14427 0.0
C391 C 1.0005 0.85082 0.052 0.0
C392 C 0.88645 0.90502 0.0729 0.0
C393 C 0.89664 0.93691 0.08843 0.0
C394 C 0.90775 0.8726 0.07523 0.0
C395 C 0.94005 0.87244 0.09324 0.0
C396 C 0.95103 0.90525 0.108 0.0
C397 C 0.92896 0.937 0.10563 0.0
C398 C 0.89507 0.83817 0.05923 0.0
C399 C 0.9857 0.90662 0.12675 0.0
H400 H 0.96495 0.76346 0.14547 0.0
H401 H 0.02861 0.78414 0.06653 0.0
H402 H 0.92818 0.85156 0.15486 0.0
H403 H 0.89557 0.82742 0.13209 0.0
H404 H 0.91858 0.80347 0.16207 0.0
H405 H 0.01625 0.83514 0.03496 0.0
H406 H 0.97618 0.86377 0.04113 0.0
H407 H 0.01853 0.87337 0.0604 0.0
H408 H 0.86122 0.90509 0.05984 0.0
H409 H 0.93661 0.96185 0.11767 0.0
H410 H 0.88949 0.81589 0.07565 0.0
H411 H 0.91725 0.82817 0.04419 0.0
H412 H 0.86963 0.84292 0.04587 0.0
H413 H 0.98328 0.88712 0.14573 0.0
H414 H 0.99119 0.93472 0.13571 0.0
H415 H 0.00983 0.8978 0.11326 0.0
C416 C 0.60615 0.8627 0.09588 0.0
C417 C 0.57501 0.87153 0.07862 0.0
C418 C 0.63839 0.88429 0.0946 0.0
C419 C 0.63941 0.9158 0.0759 0.0
C420 C 0.60876 0.92386 0.05738 0.0
C421 C 0.5769 0.90159 0.05891 0.0
C422 C 0.67084 0.87418 0.11416 0.0
C423 C 0.60886 0.95724 0.03723 0.0
C424 C 0.70424 0.99175 0.10237 0.0
C425 C 0.7348 0.98691 0.08358 0.0
C426 C 0.67241 0.96976 0.09926 0.0
C427 C 0.67153 0.9416 0.07735 0.0
C428 C 0.70199 0.93712 0.05789 0.0
C429 C 0.73309 0.96014 0.06102 0.0
C430 C 0.6401 0.97602 0.11996 0.0
C431 C 0.70243 0.90696 0.03468 0.0
H432 H 0.60498 0.83935 0.11101 0.0
H433 H 0.55279 0.90893 0.04587 0.0
H434 H 0.69671 0.87356 0.10088 0.0
H435 H 0.67445 0.89545 0.13171 0.0
H436 H 0.66709 0.84687 0.12511 0.0
H437 H 0.58512 0.95707 0.02162 0.0
H438 H 0.60754 0.98264 0.05101 0.0
H439 H 0.63478 0.95864 0.02408 0.0
H440 H 0.70539 0.01251 0.11975 0.0
H441 H 0.75681 0.95596 0.04666 0.0
H442 H 0.63621 0.95146 0.13445 0.0
H443 H 0.61426 0.97965 0.10693 0.0
H444 H 0.6441 1.00066 0.13436 0.0
H445 H 0.70229 0.87957 0.04584 0.0
H446 H 0.72716 0.90865 0.02005 0.0
H447 H 0.67725 0.90839 0.0206 0.0
C448 C 0.51139 0.69208 0.1202 0.0
C449 C 0.51688 0.71929 0.09838 0.0
C450 C 0.53272 0.65958 0.12039 0.0
C451 C 0.56097 0.65482 0.09882 0.0
C452 C 0.5666 0.68227 0.0768 0.0
C453 C 0.54417 0.71386 0.0766 0.0
C454 C 0.52513 0.63039 0.14368 0.0
C455 C 0.59702 0.67876 0.05392 0.0
C456 C 0.63883 0.588 0.11769 0.0
C457 C 0.62953 0.55728 0.1002 0.0
C458 C 0.61715 0.62023 0.11704 0.0
C459 C 0.58477 0.62124 0.09924 0.0
C460 C 0.57532 0.59026 0.08157 0.0
C461 C 0.5981 0.55889 0.08194 0.0
C462 C 0.62879 0.65311 0.13551 0.0
C463 C 0.54064 0.58982 0.06284 0.0
H464 H 0.49033 0.69618 0.13705 0.0
H465 H 0.54897 0.73506 0.05995 0.0
H466 H 0.5497 0.62693 0.15822 0.0
H467 H 0.50098 0.63741 0.15788 0.0
H468 H 0.51986 0.60335 0.13281 0.0
H469 H 0.59819 0.70289 0.03863 0.0
H470 H 0.62417 0.6761 0.06528 0.0
H471 H 0.5929 0.6534 0.04046 0.0
H472 H 0.66306 0.58679 0.13191 0.0
H473 H 0.59035 0.53494 0.06889 0.0
H474 H 0.60748 0.65901 0.15261 0.0
H475 H 0.63113 0.67802 0.12118 0.0
H476 H 0.6557 0.64857 0.1469 0.0
H477 H 0.53638 0.56279 0.05172 0.0
H478 H 0.54212 0.61164 0.04552 0.0
H479 H 0.51615 0.5958 0.07693 0.0
C480 C 0.90218 0.88182 0.41273 0.0
C481 C 0.93798 0.89654 0.41247 0.0
C482 C 0.87114 0.90511 0.4113 0.0
C483 C 0.8762 0.94384 0.40838 0.0
C484 C 0.91248 0.95872 0.40822 0.0
C485 C 0.94295 0.93489 0.41085 0.0
C486 C 0.83296 0.88814 0.4115 0.0
C487 C 0.91922 0.9994 0.40295 0.0
C488 C 0.79793 0.99564 0.37022 0.0
C489 C 0.77818 0.00994 0.39455 0.0
C490 C 0.83035 0.97492 0.37436 0.0
C491 C 0.84361 0.9684 0.40357 0.0
C492 C 0.82493 0.98423 0.42814 0.0
C493 C 0.79234 0.00463 0.42338 0.0
C494 C 0.84914 0.95842 0.34744 0.0
C495 C 0.83874 0.9786 0.45955 0.0
H496 H 0.89855 0.85207 0.41339 0.0
H497 H 0.9708 0.94606 0.40973 0.0
H498 H 0.81546 0.90175 0.42855 0.0
H499 H 0.81953 0.89258 0.38957 0.0
H500 H 0.83367 0.85797 0.41614 0.0
H501 H 0.9129 0.00613 0.37938 0.0
H502 H 0.90064 0.01639 0.417 0.0
H503 H 0.9484 0.00735 0.40741 0.0
H504 H 0.78731 0.99933 0.34783 0.0
H505 H 0.77749 0.01565 0.44234 0.0
H506 H 0.84153 0.92877 0.34573 0.0
H507 H 0.87967 0.96 0.34939 0.0
H508 H 0.84062 0.9724 0.32649 0.0
H509 H 0.86832 0.98663 0.46116 0.0
H510 H 0.83679 0.94888 0.46552 0.0
H511 H 0.82269 0.99486 0.47605 0.0
C512 C 0.63203 0.91243 0.38238 0.0
C513 C 0.6221 0.94379 0.39887 0.0
C514 C 0.61012 0.88036 0.38288 0.0
C515 C 0.57705 0.87992 0.39976 0.0
C516 C 0.56733 0.91111 0.41702 0.0
C517 C 0.59015 0.94259 0.41662 0.0
C518 C 0.62192 0.84726 0.36479 0.0
C519 C 0.5321 0.91166 0.43501 0.0
C520 C 0.50315 0.81218 0.37398 0.0
C521 C 0.50692 0.78358 0.39485 0.0
C522 C 0.52509 0.84421 0.37584 0.0
C523 C 0.55206 0.84721 0.39864 0.0
C524 C 0.55564 0.81863 0.41997 0.0
C525 C 0.53272 0.78738 0.41803 0.0
C526 C 0.51982 0.87459 0.35313 0.0
C527 C 0.5846 0.82041 0.4442 0.0
H528 H 0.65674 0.91316 0.3687 0.0
H529 H 0.58203 0.96686 0.42915 0.0
H530 H 0.62227 0.82211 0.37896 0.0
H531 H 0.60172 0.84232 0.34661 0.0
H532 H 0.64978 0.85101 0.35477 0.0
H533 H 0.50792 0.90782 0.42008 0.0
H534 H 0.53186 0.88856 0.45125 0.0
H535 H 0.52868 0.93793 0.44731 0.0
H536 H 0.48321 0.8094 0.35608 0.0
H537 H 0.53614 0.76516 0.43401 0.0
H538 H 0.54532 0.87781 0.33964 0.0
H539 H 0.51486 0.90133 0.36454 0.0
H540 H 0.49629 0.86895 0.33786 0.0
H541 H 0.61257 0.82132 0.43404 0.0
H542 H 0.58317 0.79631 0.45951 0.0
H543 H 0.58132 0.84604 0.45746 0.0
C544 C 0.59361 0.63549 0.38106 0.0
C545 C 0.56384 0.6289 0.40042 0.0
C546 C 0.6263 0.61471 0.38305 0.0
C547 C 0.62913 0.58631 0.40465 0.0
C548 C 0.59965 0.58017 0.42475 0.0
C549 C 0.56744 0.60164 0.42251 0.0
C550 C 0.65746 0.62256 0.36156 0.0
C551 C 0.60181 0.5502 0.44808 0.0
C552 C 0.69523 0.50849 0.3854 0.0
C553 C 0.72602 0.51713 0.40308 0.0
C554 C 0.66306 0.5301 0.38649 0.0
C555 C 0.66208 0.5617 0.40509 0.0
C556 C 0.69284 0.57014 0.42342 0.0
C557 C 0.72431 0.54744 0.42247 0.0
C558 C 0.63038 0.51953 0.3673 0.0
C559 C 0.69318 0.60403 0.44302 0.0
H560 H 0.59124 0.65666 0.36407 0.0
H561 H 0.54457 0.59612 0.4374 0.0
H562 H 0.68379 0.62654 0.37388 0.0
H563 H 0.66127 0.59858 0.3465 0.0
H564 H 0.65215 0.64751 0.34776 0.0
H565 H 0.57585 0.5477 0.46102 0.0
H566 H 0.60782 0.52322 0.43742 0.0
H567 H 0.62476 0.5561 0.46377 0.0
H568 H 0.69647 0.48498 0.37047 0.0
H569 H 0.74828 0.55449 0.43585 0.0
H570 H 0.62512 0.54148 0.35056 0.0
H571 H 0.60512 0.51698 0.3812 0.0
H572 H 0.63482 0.49299 0.35539 0.0
H573 H 0.69184 0.62921 0.42892 0.0
H574 H 0.71843 0.60561 0.45709 0.0
H575 H 0.66855 0.60432 0.45771 0.0
C576 C 0.99745 0.70896 0.37363 0.0
C577 C 0.99083 0.7374 0.39412 0.0
C578 C 0.97812 0.67518 0.37558 0.0
C579 C 0.95083 0.6703 0.39795 0.0
C580 C 0.94406 0.69901 0.41858 0.0
C581 C 0.96443 0.73193 0.41664 0.0
C582 C 0.9867 0.64481 0.35363 0.0
C583 C 0.91462 0.69536 0.44229 0.0
C584 C 0.87403 0.60089 0.38316 0.0
C585 C 0.88444 0.57093 0.4012 0.0
C586 C 0.89527 0.63335 0.38206 0.0
C587 C 0.9281 0.63589 0.39911 0.0
C588 C 0.93854 0.60606 0.41777 0.0
C589 C 0.91653 0.57392 0.41868 0.0
C590 C 0.8825 0.66497 0.36262 0.0
C591 C 0.97339 0.60784 0.43625 0.0
H592 H 0.01794 0.71299 0.3563 0.0
H593 H 0.95884 0.75395 0.43236 0.0
H594 H 0.99368 0.61896 0.36572 0.0
H595 H 0.96198 0.63892 0.33976 0.0
H596 H 0.01008 0.65213 0.33868 0.0
H597 H 0.91307 0.72015 0.45682 0.0
H598 H 0.88721 0.69111 0.43167 0.0
H599 H 0.92013 0.67084 0.45644 0.0
H600 H 0.84917 0.59895 0.36972 0.0
H601 H 0.92505 0.55078 0.43241 0.0
H602 H 0.90358 0.67093 0.34532 0.0
H603 H 0.87932 0.69037 0.37621 0.0
H604 H 0.85574 0.659 0.35142 0.0
H605 H 0.99782 0.60815 0.4213 0.0
H606 H 0.97581 0.584 0.45166 0.0
H607 H 0.97426 0.63363 0.44955 0.0
C608 C 0.07431 0.41616 0.91549 0.0
C609 C 0.0752 0.37962 0.90525 0.0
C610 C 0.10623 0.43836 0.91516 0.0
C611 C 0.14003 0.42339 0.90481 0.0
C612 C 0.14131 0.38603 0.89536 0.0
C613 C 0.10873 0.36475 0.89529 0.0
C614 C 0.10342 0.47817 0.92486 0.0
C615 C 0.17691 0.36879 0.88468 0.0
C616 C 0.21544 0.48594 0.8736 0.0
C617 C 0.24002 0.48844 0.89771 0.0
C618 C 0.18225 0.46582 0.87592 0.0
C619 C 0.17375 0.44709 0.90281 0.0
C620 C 0.19806 0.45011 0.9274 0.0
C621 C 0.2307 0.47099 0.92465 0.0
C622 C 0.15656 0.46408 0.84941 0.0
C623 C 0.19026 0.43019 0.95631 0.0
H624 H 0.04818 0.42804 0.92226 0.0
H625 H 0.10936 0.33655 0.88714 0.0
H626 H 0.12142 0.48305 0.94447 0.0
H627 H 0.11312 0.49675 0.90679 0.0
H628 H 0.07464 0.48582 0.93078 0.0
H629 H 0.17381 0.33877 0.88009 0.0
H630 H 0.18625 0.38273 0.86399 0.0
H631 H 0.19899 0.37262 0.90159 0.0
H632 H 0.22229 0.4995 0.85277 0.0
H633 H 0.24962 0.4725 0.94336 0.0
H634 H 0.12823 0.47253 0.85603 0.0
H635 H 0.15477 0.43525 0.84114 0.0
H636 H 0.16593 0.48213 0.83085 0.0
H637 H 0.16267 0.43813 0.96498 0.0
H638 H 0.21136 0.43624 0.97363 0.0
H639 H 0.18965 0.39991 0.95236 0.0
C640 C 0.01093 0.19547 0.88112 0.0
C641 C 0.01458 0.22472 0.90137 0.0
C642 C 0.03235 0.16326 0.88409 0.0
C643 C 0.05884 0.16079 0.90732 0.0
C644 C 0.06203 0.1899 0.92818 0.0
C645 C 0.03954 0.22126 0.92518 0.0
C646 C 0.0273 0.13228 0.86194 0.0
C647 C 0.09032 0.18861 0.95293 0.0
C648 C 0.09895 0.06598 0.92488 0.0
C649 C 0.13023 0.06545 0.90642 0.0
C650 C 0.07591 0.09723 0.92608 0.0
C651 C 0.08464 0.12875 0.9087 0.0
C652 C 0.1175 0.12915 0.89155 0.0
C653 C 0.13967 0.09739 0.89038 0.0
C654 C 0.04102 0.09547 0.94442 0.0
C655 C 0.12856 0.16268 0.87354 0.0
H656 H 0.99158 0.19794 0.86276 0.0
H657 H 0.04283 0.24392 0.94075 0.0
H658 H 0.05263 0.1294 0.8482 0.0
H659 H 0.02305 0.10567 0.8738 0.0
H660 H 0.00342 0.13708 0.84684 0.0
H661 H 0.08832 0.21285 0.96802 0.0
H662 H 0.08681 0.16306 0.96631 0.0
H663 H 0.11856 0.1879 0.94326 0.0
H664 H 0.09117 0.04121 0.93699 0.0
H665 H 0.16392 0.09717 0.87618 0.0
H666 H 0.01716 0.09039 0.9294 0.0
H667 H 0.03587 0.12188 0.9562 0.0
H668 H 0.04219 0.07291 0.96112 0.0
H669 H 0.10841 0.167 0.85523 0.0
H670 H 0.15659 0.1598 0.86369 0.0
H671 H 0.1281 0.1878 0.8877 0.0
C672 C 0.30634 0.98621 0.91251 0.0
C673 C 0.2836 0.99711 0.88874 0.0
C674 C 0.33995 0.00447 0.91841 0.0
C675 C 0.35055 0.03504 0.90061 0.0
C676 C 0.32788 0.04583 0.87632 0.0
C677 C 0.29499 0.02637 0.87042 0.0
C678 C 0.36396 0.99118 0.94375 0.0
C679 C 0.33769 0.07877 0.85716 0.0
C680 C 0.41643 0.10887 0.93019 0.0
C681 C 0.44844 0.10117 0.9139 0.0
C682 C 0.38468 0.08654 0.92708 0.0
C683 C 0.38522 0.056 0.90722 0.0
C684 C 0.41821 0.04735 0.8918 0.0
C685 C 0.44937 0.07009 0.89532 0.0
C686 C 0.34988 0.09702 0.94355 0.0
C687 C 0.42008 0.01512 0.87048 0.0
H688 H 0.29761 0.96356 0.92671 0.0
H689 H 0.2772 0.0353 0.85235 0.0
H690 H 0.39057 0.98086 0.93477 0.0
H691 H 0.3705 0.0143 0.95909 0.0
H692 H 0.35067 0.96859 0.9567 0.0
H693 H 0.31691 0.08383 0.83939 0.0
H694 H 0.33979 0.10391 0.87122 0.0
H695 H 0.36507 0.0746 0.84656 0.0
H696 H 0.41561 0.13339 0.94403 0.0
H697 H 0.47413 0.06458 0.88242 0.0
H698 H 0.33886 0.07289 0.95598 0.0
H699 H 0.32834 0.10558 0.92733 0.0
H700 H 0.35459 0.12006 0.95946 0.0
H701 H 0.41292 0.98915 0.88235 0.0
H702 H 0.44789 0.01209 0.86026 0.0
H703 H 0.39958 0.01868 0.85233 0.0
C704 C 0.46172 0.27638 0.90391 0.0
C705 C 0.49569 0.26847 0.91744 0.0
C706 C 0.44378 0.31007 0.90883 0.0
C707 C 0.46078 0.33716 0.92705 0.0
C708 C 0.49459 0.32888 0.94167 0.0
C709 C 0.5115 0.29427 0.93695 0.0
C710 C 0.40729 0.31721 0.89343 0.0
C711 C 0.5141 0.35714 0.96077 0.0
C712 C 0.43114 0.43097 0.89952 0.0
C713 C 0.40247 0.43959 0.91923 0.0
C714 C 0.45281 0.39936 0.9036 0.0
C715 C 0.44482 0.3751 0.92751 0.0
C716 C 0.41734 0.38494 0.94861 0.0
C717 C 0.39665 0.41751 0.9444 0.0
C718 C 0.48282 0.3909 0.88125 0.0
C719 C 0.40808 0.35988 0.97441 0.0
H720 H 0.44919 0.25611 0.88923 0.0
H721 H 0.5378 0.28808 0.94742 0.0
H722 H 0.38674 0.32815 0.9095 0.0
H723 H 0.41114 0.33835 0.87578 0.0
H724 H 0.39575 0.29184 0.883 0.0
H725 H 0.53419 0.34395 0.97619 0.0
H726 H 0.52957 0.37649 0.94615 0.0
H727 H 0.49418 0.37366 0.97397 0.0
H728 H 0.43615 0.44872 0.88045 0.0
H729 H 0.37466 0.42456 0.95978 0.0
H730 H 0.47376 0.36783 0.86669 0.0
H731 H 0.50848 0.38206 0.89279 0.0
H732 H 0.48933 0.41514 0.86695 0.0
H733 H 0.39327 0.33509 0.966 0.0
H734 H 0.39025 0.37384 0.9911 0.0
H735 H 0.43366 0.35019 0.9856 0.0
C736 C 0.06692 0.09607 0.58597 0.0
C737 C 0.06076 0.12398 0.60713 0.0
C738 C 0.09881 0.07389 0.58711 0.0
C739 C 0.12537 0.07979 0.60983 0.0
C740 C 0.11956 0.10815 0.63102 0.0
C741 C 0.08726 0.12968 0.62956 0.0
C742 C 0.10403 0.04397 0.56409 0.0
C743 C 0.14773 0.1161 0.65504 0.0
C744 C 0.19567 0.00431 0.62819 0.0
C745 C 0.22566 0.01494 0.61037 0.0
C746 C 0.16254 0.02485 0.628 0.0
C747 C 0.16006 0.05745 0.61047 0.0
C748 C 0.19077 0.0687 0.59313 0.0
C749 C 0.22285 0.047 0.59291 0.0
C750 C 0.13004 0.01144 0.64615 0.0
C751 C 0.1899 0.10388 0.57497 0.0
H752 H 0.04646 0.09101 0.56878 0.0
H753 H 0.08285 0.15115 0.646 0.0
H754 H 0.1302 0.04843 0.55172 0.0
H755 H 0.10615 0.01667 0.57526 0.0
H756 H 0.08099 0.04306 0.54778 0.0
H757 H 0.13935 0.13946 0.66957 0.0
H758 H 0.1518 0.09123 0.66912 0.0
H759 H 0.17484 0.12283 0.64477 0.0
H760 H 0.19786 0.97955 0.6417 0.0
H761 H 0.24628 0.05565 0.57951 0.0
H762 H 0.10581 0.00691 0.63138 0.0
H763 H 0.12201 0.03271 0.66269 0.0
H764 H 0.13616 0.98527 0.65814 0.0
H765 H 0.16798 0.10211 0.55774 0.0
H766 H 0.21671 0.10955 0.56375 0.0
H767 H 0.18309 0.12771 0.58951 0.0
C768 C 0.49888 0.20263 0.60285 0.0
C769 C 0.49322 0.23305 0.58404 0.0
C770 C 0.47599 0.17128 0.60109 0.0
C771 C 0.44617 0.17078 0.58057 0.0
C772 C 0.44075 0.20114 0.56118 0.0
C773 C 0.46461 0.23171 0.56291 0.0
C774 C 0.4832 0.139 0.62164 0.0
C775 C 0.40881 0.20202 0.53948 0.0
C776 C 0.40349 0.07716 0.56324 0.0
C777 C 0.37466 0.07546 0.58411 0.0
C778 C 0.42631 0.10853 0.56117 0.0
C779 C 0.41996 0.13898 0.58023 0.0
C780 C 0.38962 0.13825 0.60015 0.0
C781 C 0.36752 0.10639 0.60202 0.0
C782 C 0.45843 0.10832 0.53975 0.0
C783 C 0.3813 0.17059 0.62029 0.0
H784 H 0.52101 0.2035 0.61915 0.0
H785 H 0.45977 0.25534 0.54856 0.0
H786 H 0.45945 0.13531 0.637 0.0
H787 H 0.48588 0.11314 0.60855 0.0
H788 H 0.50869 0.14284 0.63513 0.0
H789 H 0.40956 0.22683 0.52489 0.0
H790 H 0.40897 0.17698 0.52526 0.0
H791 H 0.38231 0.20198 0.55194 0.0
H792 H 0.40951 0.05325 0.5496 0.0
H793 H 0.34515 0.10537 0.61807 0.0
H794 H 0.45842 0.13367 0.52585 0.0
H795 H 0.45781 0.08394 0.52482 0.0
H796 H 0.48473 0.10813 0.5525 0.0
H797 H 0.40379 0.17371 0.63693 0.0
H798 H 0.3547 0.16709 0.63235 0.0
H799 H 0.38016 0.19659 0.60719 0.0
C800 C 0.30377 0.50553 0.61255 0.0
C801 C 0.27353 0.49745 0.59411 0.0
C802 C 0.33703 0.48548 0.61005 0.0
C803 C 0.33952 0.45592 0.58938 0.0
C804 C 0.30886 0.44753 0.57098 0.0
C805 C 0.27654 0.46872 0.57326 0.0
C806 C 0.36946 0.49581 0.62955 0.0
C807 C 0.30978 0.4155 0.54942 0.0
C808 C 0.43377 0.41888 0.56568 0.0
C809 C 0.43829 0.38877 0.58513 0.0
C810 C 0.40173 0.44095 0.56677 0.0
C811 C 0.37357 0.43275 0.58772 0.0
C812 C 0.37753 0.40183 0.60676 0.0
C813 C 0.40979 0.38038 0.60532 0.0
C814 C 0.39823 0.4735 0.54592 0.0
C815 C 0.34771 0.39142 0.62881 0.0
H816 H 0.30155 0.52776 0.62862 0.0
H817 H 0.25303 0.46197 0.55926 0.0
H818 H 0.37634 0.47251 0.64463 0.0
H819 H 0.39422 0.50119 0.61557 0.0
H820 H 0.3638 0.5207 0.64327 0.0
H821 H 0.28371 0.41291 0.53646 0.0
H822 H 0.33311 0.41876 0.53361 0.0
H823 H 0.31437 0.38933 0.56179 0.0
H824 H 0.45565 0.42582 0.55014 0.0
H825 H 0.41279 0.35711 0.62035 0.0
H826 H 0.39693 0.49947 0.55902 0.0
H827 H 0.37224 0.47158 0.5329 0.0
H828 H 0.42173 0.47529 0.53014 0.0
H829 H 0.3438 0.41411 0.64509 0.0
H830 H 0.3544 0.3657 0.64122 0.0
H831 H 0.32097 0.38743 0.61709 0.0
C832 C 0.13085 0.40715 0.57718 0.0
C833 C 0.11591 0.44274 0.57828 0.0
C834 C 0.10781 0.37587 0.57892 0.0
C835 C 0.06918 0.3805 0.58298 0.0
C836 C 0.05411 0.41659 0.58414 0.0
C837 C 0.07762 0.4473 0.58117 0.0
C838 C 0.12498 0.33789 0.57781 0.0
C839 C 0.01367 0.42285 0.59083 0.0
C840 C 0.00705 0.29746 0.56789 0.0
C841 C 0.00189 0.2831 0.59666 0.0
C842 C 0.02809 0.3297 0.56319 0.0
C843 C 0.04488 0.34767 0.58774 0.0
C844 C 0.03896 0.33391 0.61688 0.0
C845 C 0.01745 0.30196 0.62098 0.0
C846 C 0.03301 0.34414 0.53189 0.0
C847 C 0.05669 0.35179 0.64374 0.0
H848 H 0.1606 0.40386 0.5756 0.0
H849 H 0.06634 0.47498 0.58301 0.0
H850 H 0.12133 0.32394 0.59963 0.0
H851 H 0.11087 0.32067 0.5608 0.0
H852 H 0.155 0.33898 0.57257 0.0
H853 H 0.00526 0.45191 0.58665 0.0
H854 H 0.99601 0.40407 0.57744 0.0
H855 H 0.00833 0.41652 0.61462 0.0
H856 H 0.99505 0.28323 0.54897 0.0
H857 H 0.014 0.291 0.64328 0.0
H858 H 0.06261 0.34247 0.52547 0.0
H859 H 0.02492 0.37368 0.53078 0.0
H860 H 0.01636 0.32838 0.5154 0.0
H861 H 0.04354 0.34267 0.66487 0.0
H862 H 0.05523 0.38235 0.64243 0.0
H863 H 0.08639 0.34411 0.64452 0.0
C864 C 0.1542 0.70601 0.19656 0.0
C865 C 0.12187 0.68599 0.20282 0.0
C866 C 0.16825 0.73122 0.21741 0.0
C867 C 0.14928 0.73598 0.24466 0.0
C868 C 0.12037 0.71131 0.25265 0.0
C869 C 0.1066 0.68694 0.23131 0.0
C870 C 0.2005 0.7554 0.20872 0.0
C871 C 0.10043 0.71403 0.28216 0.0
C872 C 0.15403 0.80016 0.30902 0.0
C873 C 0.12315 0.82184 0.30192 0.0
C874 C 0.16807 0.77502 0.28814 0.0
C875 C 0.15036 0.77193 0.26017 0.0
C876 C 0.12365 0.79851 0.25147 0.0
C877 C 0.10987 0.82284 0.27278 0.0
C878 C 0.19847 0.74893 0.29742 0.0
C879 C 0.10548 0.79768 0.22116 0.0
H880 H 0.16652 0.70447 0.17457 0.0
H881 H 0.08234 0.67032 0.23625 0.0
H882 H 0.19055 0.77835 0.19442 0.0
H883 H 0.21447 0.76742 0.22847 0.0
H884 H 0.22097 0.7394 0.19556 0.0
H885 H 0.0821 0.68985 0.28621 0.0
H886 H 0.12052 0.71593 0.30075 0.0
H887 H 0.08314 0.73936 0.28249 0.0
H888 H 0.16487 0.80023 0.33155 0.0
H889 H 0.08679 0.84074 0.26727 0.0
H890 H 0.21412 0.73848 0.27792 0.0
H891 H 0.18623 0.72492 0.30927 0.0
H892 H 0.21796 0.76276 0.313 0.0
H893 H 0.12653 0.79459 0.20341 0.0
H894 H 0.08932 0.8232 0.2167 0.0
H895 H 0.08636 0.77368 0.21981 0.0
C896 C 0.74243 0.13399 0.29655 0.0
C897 C 0.705 0.14145 0.3011 0.0
C898 C 0.76091 0.14912 0.27218 0.0
C899 C 0.74063 0.17093 0.25162 0.0
C900 C 0.7056 0.18481 0.25978 0.0
C901 C 0.6877 0.16951 0.28464 0.0
C902 C 0.79976 0.13603 0.26573 0.0
C903 C 0.68537 0.21166 0.23997 0.0
C904 C 0.7993 0.16412 0.18436 0.0
C905 C 0.789 0.12823 0.17573 0.0
C906 C 0.77904 0.18284 0.20629 0.0
C907 C 0.74884 0.16463 0.21983 0.0
C908 C 0.7346 0.13168 0.20702 0.0
C909 C 0.75516 0.11374 0.18519 0.0
C910 C 0.79149 0.22047 0.21672 0.0
C911 C 0.70062 0.11233 0.21909 0.0
H912 H 0.75632 0.11382 0.31051 0.0
H913 H 0.65915 0.17666 0.28923 0.0
H914 H 0.79893 0.11422 0.24836 0.0
H915 H 0.81711 0.15908 0.25734 0.0
H916 H 0.81322 0.12427 0.28586 0.0
H917 H 0.65929 0.22148 0.25031 0.0
H918 H 0.70349 0.23572 0.23513 0.0
H919 H 0.67859 0.19848 0.21834 0.0
H920 H 0.82444 0.17644 0.17567 0.0
H921 H 0.74594 0.08704 0.17707 0.0
H922 H 0.81434 0.23171 0.20286 0.0
H923 H 0.8009 0.21912 0.24021 0.0
H924 H 0.7678 0.23992 0.21583 0.0
H925 H 0.70694 0.10012 0.24119 0.0
H926 H 0.69108 0.0897 0.20422 0.0
H927 H 0.67751 0.13211 0.22185 0.0
C928 C 0.39104 0.76366 0.19291 0.0
C929 C 0.37858 0.79768 0.18223 0.0
C930 C 0.37278 0.74577 0.2161 0.0
C931 C 0.34127 0.76274 0.22913 0.0
C932 C 0.32533 0.79409 0.21533 0.0
C933 C 0.34441 0.8115 0.19193 0.0
C934 C 0.3902 0.71107 0.22865 0.0
C935 C 0.28987 0.81111 0.22638 0.0
C936 C 0.33384 0.69999 0.29236 0.0
C937 C 0.36302 0.71557 0.30871 0.0
C938 C 0.31834 0.71977 0.26849 0.0
C939 C 0.33381 0.7544 0.26083 0.0
C940 C 0.35627 0.77317 0.28178 0.0
C941 C 0.37114 0.75316 0.30545 0.0
C942 C 0.28983 0.70148 0.24897 0.0
C943 C 0.37012 0.81199 0.27634 0.0
H944 H 0.41638 0.75188 0.18415 0.0
H945 H 0.33372 0.83702 0.18266 0.0
H946 H 0.40222 0.71693 0.25089 0.0
H947 H 0.36922 0.68894 0.23114 0.0
H948 H 0.41269 0.70029 0.21423 0.0
H949 H 0.27028 0.81419 0.20748 0.0
H950 H 0.27636 0.79446 0.24408 0.0
H951 H 0.29551 0.83932 0.23499 0.0
H952 H 0.32589 0.67144 0.29604 0.0
H953 H 0.39191 0.7659 0.31959 0.0
H954 H 0.30357 0.68169 0.23372 0.0
H955 H 0.27457 0.72213 0.2354 0.0
H956 H 0.26984 0.68561 0.26277 0.0
H957 H 0.39082 0.81183 0.25807 0.0
H958 H 0.38341 0.82394 0.29647 0.0
H959 H 0.34695 0.83018 0.26957 0.0
C960 C 0.73227 0.34706 0.19398 0.0
C961 C 0.69397 0.3495 0.19051 0.0
C962 C 0.7471 0.33317 0.22043 0.0
C963 C 0.72262 0.324 0.24393 0.0
C964 C 0.68491 0.3177 0.23753 0.0
C965 C 0.67059 0.33105 0.21055 0.0
C966 C 0.78833 0.33583 0.22526 0.0
C967 C 0.65883 0.30366 0.26112 0.0
C968 C 0.77828 0.33786 0.31336 0.0
C969 C 0.77565 0.37652 0.31555 0.0
C970 C 0.75671 0.31844 0.29254 0.0
C971 C 0.73273 0.33848 0.27361 0.0
C972 C 0.72621 0.37662 0.27906 0.0
C973 C 0.74779 0.395 0.29999 0.0
C974 C 0.76032 0.27698 0.29021 0.0
C975 C 0.69949 0.39947 0.26075 0.0
H976 H 0.75037 0.35959 0.17755 0.0
H977 H 0.64088 0.33144 0.20715 0.0
H978 H 0.79483 0.36151 0.23777 0.0
H979 H 0.79841 0.31197 0.23848 0.0
H980 H 0.80358 0.33665 0.20379 0.0
H981 H 0.63517 0.28871 0.25088 0.0
H982 H 0.67337 0.28505 0.27694 0.0
H983 H 0.64753 0.3273 0.27391 0.0
H984 H 0.79831 0.32303 0.32678 0.0
H985 H 0.74415 0.42453 0.30288 0.0
H986 H 0.76101 0.26777 0.2667 0.0
H987 H 0.73571 0.26394 0.30065 0.0
H988 H 0.78542 0.26662 0.3018 0.0
H989 H 0.71019 0.40258 0.23775 0.0
H990 H 0.69551 0.42764 0.27004 0.0
H991 H 0.67199 0.38601 0.25968 0.0
C992 C 0.85526 0.25604 0.6811 0.0
C993 C 0.8509 0.21786 0.6783 0.0
C994 C 0.84267 0.27385 0.7067 0.0
C995 C 0.82753 0.25206 0.72993 0.0
C996 C 0.81494 0.21589 0.72367 0.0
C997 C 0.82685 0.1989 0.69741 0.0
C998 C 0.85273 0.31394 0.71131 0.0
C999 C 0.7958 0.1926 0.74681 0.0
C1000 C 0.89491 0.26346 0.79206 0.0
C1001 C 0.88008 0.29408 0.80666 0.0
C1002 C 0.87585 0.24651 0.76887 0.0
C1003 C 0.8407 0.26052 0.76028 0.0
C1004 C 0.82344 0.28813 0.77763 0.0
C1005 C 0.84352 0.30486 0.80068 0.0
C1006 C 0.89542 0.21609 0.75195 0.0
C1007 C 0.78491 0.30185 0.77115 0.0
H1008 H 0.87231 0.27095 0.66523 0.0
H1009 H 0.82213 0.16951 0.69442 0.0
H1010 H 0.82967 0.3288 0.72228 0.0
H1011 H 0.87743 0.31588 0.72595 0.0
H1012 H 0.85919 0.32797 0.68991 0.0
H1013 H 0.7707 0.17982 0.73693 0.0
H1014 H 0.81419 0.16963 0.75383 0.0
H1015 H 0.78798 0.20886 0.76674 0.0
H1016 H 0.92249 0.25391 0.79762 0.0
H1017 H 0.83119 0.32761 0.81283 0.0
H1018 H 0.90172 0.22548 0.729 0.0
H1019 H 0.8777 0.19114 0.75058 0.0
H1020 H 0.92191 0.20784 0.76259 0.0
H1021 H 0.7858 0.33188 0.76601 0.0
H1022 H 0.76754 0.29848 0.79137 0.0
H1023 H 0.7714 0.2871 0.75244 0.0
C1024 C 0.31927 0.89338 0.72386 0.0
C1025 C 0.31965 0.87987 0.69481 0.0
C1026 C 0.29682 0.87697 0.74537 0.0
C1027 C 0.27354 0.84707 0.73701 0.0
C1028 C 0.27891 0.82944 0.70926 0.0
C1029 C 0.30199 0.84634 0.68813 0.0
C1030 C 0.29397 0.89544 0.77547 0.0
C1031 C 0.2572 0.79553 0.70046 0.0
C1032 C 0.21028 0.84329 0.80145 0.0
C1033 C 0.1886 0.87386 0.79374 0.0
C1034 C 0.23478 0.82818 0.78057 0.0
C1035 C 0.2373 0.84469 0.75207 0.0
C1036 C 0.21011 0.87059 0.7429 0.0
C1037 C 0.18647 0.88551 0.76423 0.0
C1038 C 0.26104 0.79826 0.79038 0.0
C1039 C 0.20995 0.88726 0.71203 0.0
H1040 H 0.33437 0.91848 0.72915 0.0
H1041 H 0.30338 0.83519 0.66574 0.0
H1042 H 0.26754 0.91091 0.77697 0.0
H1043 H 0.29433 0.87456 0.79352 0.0
H1044 H 0.31701 0.91523 0.7794 0.0
H1045 H 0.27482 0.77659 0.68717 0.0
H1046 H 0.24636 0.78043 0.72015 0.0
H1047 H 0.23356 0.80373 0.68615 0.0
H1048 H 0.21086 0.83369 0.82435 0.0
H1049 H 0.16854 0.90844 0.75841 0.0
H1050 H 0.28393 0.81063 0.80349 0.0
H1051 H 0.27304 0.78329 0.77112 0.0
H1052 H 0.24655 0.77827 0.80514 0.0
H1053 H 0.23386 0.90632 0.70953 0.0
H1054 H 0.18425 0.90317 0.70759 0.0
H1055 H 0.21245 0.86538 0.69491 0.0
C1056 C 0.6005 0.25108 0.79947 0.0
C1057 C 0.61964 0.22115 0.81177 0.0
C1058 C 0.61519 0.27058 0.77541 0.0
C1059 C 0.64975 0.25955 0.76345 0.0
C1060 C 0.6715 0.23327 0.77866 0.0
C1061 C 0.65612 0.21414 0.80274 0.0
C1062 C 0.59172 0.30003 0.76079 0.0
C1063 C 0.7095 0.22259 0.7682 0.0
C1064 C 0.62864 0.26155 0.68347 0.0
C1065 C 0.6358 0.29881 0.67782 0.0
C1066 C 0.63975 0.24564 0.71031 0.0
C1067 C 0.65715 0.26826 0.73193 0.0
C1068 C 0.67037 0.30368 0.72395 0.0
C1069 C 0.65941 0.31879 0.69663 0.0
C1070 C 0.6276 0.2066 0.71723 0.0
C1071 C 0.69147 0.32759 0.74557 0.0
H1072 H 0.57294 0.25777 0.80731 0.0
H1073 H 0.67182 0.192 0.81299 0.0
H1074 H 0.6083 0.32539 0.75688 0.0
H1075 H 0.58169 0.29 0.73887 0.0
H1076 H 0.56729 0.30752 0.77451 0.0
H1077 H 0.72861 0.22175 0.78756 0.0
H1078 H 0.70846 0.19433 0.75864 0.0
H1079 H 0.7208 0.24187 0.75127 0.0
H1080 H 0.61141 0.24591 0.66819 0.0
H1081 H 0.66574 0.34748 0.69172 0.0
H1082 H 0.60377 0.20722 0.73281 0.0
H1083 H 0.65033 0.19111 0.72814 0.0
H1084 H 0.61904 0.19142 0.69686 0.0
H1085 H 0.67266 0.34883 0.75491 0.0
H1086 H 0.71414 0.34238 0.73382 0.0
H1087 H 0.70337 0.3113 0.76419 0.0
C1088 C 0.21639 0.65313 0.68268 0.0
C1089 C 0.18762 0.62837 0.68879 0.0
C1090 C 0.24057 0.66386 0.7055 0.0
C1091 C 0.23545 0.6488 0.73428 0.0
C1092 C 0.20219 0.62998 0.74129 0.0
C1093 C 0.17885 0.61922 0.71812 0.0
C1094 C 0.27441 0.68632 0.69785 0.0
C1095 C 0.19451 0.6155 0.77222 0.0
C1096 C 0.30903 0.59074 0.769 0.0
C1097 C 0.31489 0.60941 0.79575 0.0
C1098 C 0.28615 0.60568 0.74713 0.0
C1099 C 0.26814 0.63988 0.75258 0.0
C1100 C 0.27668 0.66046 0.77843 0.0
C1101 C 0.30021 0.64491 0.79984 0.0
C1102 C 0.27889 0.58313 0.71935 0.0
C1103 C 0.2592 0.69743 0.78478 0.0
H1104 H 0.22235 0.66081 0.65981 0.0
H1105 H 0.15573 0.60086 0.72259 0.0
H1106 H 0.28305 0.70383 0.71692 0.0
H1107 H 0.29759 0.6674 0.69245 0.0
H1108 H 0.26933 0.7042 0.67813 0.0
H1109 H 0.16498 0.60767 0.77504 0.0
H1110 H 0.2117 0.59061 0.77637 0.0
H1111 H 0.20177 0.6365 0.78922 0.0
H1112 H 0.32141 0.56377 0.7656 0.0
H1113 H 0.3053 0.65964 0.82048 0.0
H1114 H 0.2825 0.60042 0.69916 0.0
H1115 H 0.24999 0.57274 0.71955 0.0
H1116 H 0.29768 0.55896 0.71756 0.0
H1117 H 0.24959 0.71147 0.76421 0.0
H1118 H 0.27913 0.71573 0.79653 0.0
H1119 H 0.2351 0.69346 0.79974 0.0
C1120 C 0.17941 0.72745 0.09695 0.0
C1121 C 0.16943 0.69845 0.07798 0.0
C1122 C 0.21413 0.74468 0.09441 0.0
C1123 C 0.23895 0.73318 0.0718 0.0
C1124 C 0.22861 0.70416 0.0523 0.0
C1125 C 0.19406 0.68677 0.05589 0.0
C1126 C 0.22467 0.77436 0.1165 0.0
C1127 C 0.25424 0.69124 0.02792 0.0
C1128 C 0.31403 0.80263 0.05152 0.0
C1129 C 0.34489 0.78784 0.06615 0.0
C1130 C 0.27968 0.78435 0.05221 0.0
C1131 C 0.27589 0.75125 0.06885 0.0
C1132 C 0.30715 0.73614 0.08351 0.0
C1133 C 0.34145 0.75432 0.08154 0.0
C1134 C 0.24722 0.80087 0.03576 0.0
C1135 C 0.304 0.70183 0.10256 0.0
H1136 H 0.16051 0.73576 0.11445 0.0
H1137 H 0.1863 0.66397 0.04151 0.0
H1138 H 0.25004 0.76604 0.12871 0.0
H1139 H 0.23104 0.80053 0.10468 0.0
H1140 H 0.20238 0.7797 0.13297 0.0
H1141 H 0.24197 0.66856 0.0145 0.0
H1142 H 0.26118 0.71472 0.01302 0.0
H1143 H 0.2806 0.68124 0.03762 0.0
H1144 H 0.31673 0.82871 0.03978 0.0
H1145 H 0.36516 0.74339 0.09343 0.0
H1146 H 0.22509 0.80835 0.05174 0.0
H1147 H 0.23537 0.7802 0.02018 0.0
H1148 H 0.25501 0.82603 0.02301 0.0
H1149 H 0.28496 0.7072 0.12144 0.0
H1150 H 0.33116 0.69297 0.11167 0.0
H1151 H 0.29204 0.6787 0.08952 0.0
C1152 C 0.81056 0.19064 0.08258 0.0
C1153 C 0.80371 0.16047 0.06372 0.0
C1154 C 0.78841 0.22234 0.0817 0.0
C1155 C 0.75905 0.22452 0.06091 0.0
C1156 C 0.75242 0.19452 0.04127 0.0
C1157 C 0.77458 0.1626 0.04315 0.0
C1158 C 0.79575 0.25303 0.10377 0.0
C1159 C 0.72155 0.19582 0.01871 0.0
C1160 C 0.68342 0.29194 0.08264 0.0
C1161 C 0.69503 0.32451 0.06833 0.0
C1162 C 0.70304 0.25873 0.07934 0.0
C1163 C 0.73474 0.2578 0.06087 0.0
C1164 C 0.74546 0.29005 0.04514 0.0
C1165 C 0.72559 0.32304 0.04911 0.0
C1166 C 0.69126 0.22537 0.09726 0.0
C1167 C 0.77872 0.28999 0.02489 0.0
H1168 H 0.83257 0.18899 0.09894 0.0
H1169 H 0.76906 0.13934 0.0286 0.0
H1170 H 0.80155 0.27926 0.09183 0.0
H1171 H 0.77087 0.25759 0.11776 0.0
H1172 H 0.81951 0.24685 0.11867 0.0
H1173 H 0.72341 0.17297 0.00226 0.0
H1174 H 0.69448 0.19388 0.03021 0.0
H1175 H 0.72216 0.22249 0.00665 0.0
H1176 H 0.66002 0.29273 0.0977 0.0
H1177 H 0.7346 0.34792 0.03774 0.0
H1178 H 0.71256 0.21923 0.11437 0.0
H1179 H 0.68893 0.2007 0.08275 0.0
H1180 H 0.66435 0.22969 0.10867 0.0
H1181 H 0.8042 0.28459 0.03795 0.0
H1182 H 0.78213 0.31655 0.01274 0.0
H1183 H 0.77583 0.26739 0.00848 0.0
C1184 C 0.30808 0.697 0.44225 0.0
C1185 C 0.33527 0.71005 0.42271 0.0
C1186 C 0.27405 0.71544 0.44496 0.0
C1187 C 0.26669 0.7466 0.4267 0.0
C1188 C 0.29425 0.75968 0.40686 0.0
C1189 C 0.3285 0.74158 0.40552 0.0
C1190 C 0.24573 0.70092 0.46673 0.0
C1191 C 0.28708 0.7918 0.38614 0.0
C1192 C 0.16678 0.77024 0.40862 0.0
C1193 C 0.1618 0.80271 0.42501 0.0
C1194 C 0.20072 0.75146 0.40917 0.0
C1195 C 0.2298 0.76485 0.42744 0.0
C1196 C 0.22419 0.79684 0.44506 0.0
C1197 C 0.19043 0.81587 0.44313 0.0
C1198 C 0.20605 0.71848 0.38904 0.0
C1199 C 0.25417 0.81177 0.46517 0.0
H1200 H 0.31341 0.67235 0.45531 0.0
H1201 H 0.34947 0.75106 0.38999 0.0
H1202 H 0.23169 0.72397 0.47836 0.0
H1203 H 0.22429 0.68503 0.45454 0.0
H1204 H 0.25839 0.68238 0.48363 0.0
H1205 H 0.3111 0.79783 0.37148 0.0
H1206 H 0.26268 0.78575 0.37192 0.0
H1207 H 0.28061 0.81698 0.39918 0.0
H1208 H 0.14472 0.76062 0.39417 0.0
H1209 H 0.18648 0.84119 0.45563 0.0
H1210 H 0.21416 0.69395 0.40232 0.0
H1211 H 0.2288 0.72415 0.37307 0.0
H1212 H 0.18066 0.71165 0.3762 0.0
H1213 H 0.26864 0.78897 0.47684 0.0
H1214 H 0.24294 0.8312 0.48204 0.0
H1215 H 0.27497 0.82681 0.45163 0.0
C1216 C 0.80286 0.31627 0.44588 0.0
C1217 C 0.7892 0.34803 0.43191 0.0
C1218 C 0.78233 0.28327 0.44594 0.0
C1219 C 0.74805 0.28166 0.43061 0.0
C1220 C 0.73381 0.31405 0.41705 0.0
C1221 C 0.75434 0.34704 0.4183 0.0
C1222 C 0.79784 0.24981 0.46159 0.0
C1223 C 0.69835 0.31328 0.39928 0.0
C1224 C 0.72185 0.18736 0.39981 0.0
C1225 C 0.69381 0.17634 0.41936 0.0
C1226 C 0.73922 0.22186 0.40293 0.0
C1227 C 0.72882 0.24546 0.42667 0.0
C1228 C 0.7004 0.23424 0.44651 0.0
C1229 C 0.6829 0.19986 0.44241 0.0
C1230 C 0.76825 0.23328 0.38051 0.0
C1231 C 0.68836 0.25862 0.47189 0.0
H1232 H 0.82996 0.31709 0.45623 0.0
H1233 H 0.74428 0.37145 0.40683 0.0
H1234 H 0.77663 0.23808 0.47668 0.0
H1235 H 0.80494 0.22819 0.44507 0.0
H1236 H 0.82297 0.25645 0.47482 0.0
H1237 H 0.68919 0.34144 0.39271 0.0
H1238 H 0.7026 0.29676 0.37875 0.0
H1239 H 0.67587 0.2998 0.41211 0.0
H1240 H 0.7296 0.16923 0.38162 0.0
H1241 H 0.66079 0.1913 0.45722 0.0
H1242 H 0.79526 0.23717 0.39181 0.0
H1243 H 0.76065 0.26015 0.37024 0.0
H1244 H 0.77172 0.21253 0.36251 0.0
H1245 H 0.71294 0.26828 0.48433 0.0
H1246 H 0.66941 0.24413 0.48752 0.0
H1247 H 0.67406 0.28343 0.46311 0.0
C1248 C 0.70621 0.18673 0.91225 0.0
C1249 C 0.67411 0.19801 0.92735 0.0
C1250 C 0.73916 0.20718 0.91377 0.0
C1251 C 0.74086 0.23933 0.9317 0.0
C1252 C 0.70875 0.25058 0.94758 0.0
C1253 C 0.67582 0.22984 0.94513 0.0
C1254 C 0.77162 0.19515 0.89493 0.0
C1255 C 0.70787 0.28517 0.96637 0.0
C1256 C 0.84049 0.27148 0.94483 0.0
C1257 C 0.84263 0.30246 0.92609 0.0
C1258 C 0.80724 0.25144 0.94799 0.0
C1259 C 0.77538 0.26227 0.93157 0.0
C1260 C 0.77749 0.29361 0.9127 0.0
C1261 C 0.81072 0.31356 0.91062 0.0
C1262 C 0.80743 0.21794 0.96808 0.0
C1263 C 0.74516 0.30524 0.89351 0.0
H1264 H 0.70536 0.16245 0.89815 0.0
H1265 H 0.65125 0.23909 0.95676 0.0
H1266 H 0.78314 0.21897 0.88235 0.0
H1267 H 0.79382 0.18422 0.90949 0.0
H1268 H 0.76394 0.17318 0.87878 0.0
H1269 H 0.69507 0.27915 0.98833 0.0
H1270 H 0.73552 0.29759 0.97 0.0
H1271 H 0.68995 0.30599 0.95535 0.0
H1272 H 0.86494 0.26249 0.9568 0.0
H1273 H 0.81202 0.33714 0.89574 0.0
H1274 H 0.82249 0.19515 0.9569 0.0
H1275 H 0.77928 0.20813 0.97384 0.0
H1276 H 0.82268 0.22407 0.98899 0.0
H1277 H 0.73389 0.28115 0.88114 0.0
H1278 H 0.75287 0.327 0.87716 0.0
H1279 H 0.72275 0.31621 0.90782 0.0
C1280 C 0.31671 0.6953 0.8984 0.0
C1281 C 0.30619 0.66412 0.91505 0.0
C1282 C 0.29563 0.72777 0.89882 0.0
C1283 C 0.26344 0.72941 0.91666 0.0
C1284 C 0.25269 0.69822 0.9337 0.0
C1285 C 0.27413 0.66584 0.93262 0.0
C1286 C 0.30739 0.76004 0.87959 0.0
C1287 C 0.21817 0.69894 0.9526 0.0
C1288 C 0.22922 0.82603 0.93506 0.0
C1289 C 0.20053 0.83045 0.91432 0.0
C1290 C 0.24923 0.79281 0.93669 0.0
C1291 C 0.24067 0.76362 0.91682 0.0
C1292 C 0.21157 0.76784 0.89601 0.0
C1293 C 0.19164 0.80105 0.89522 0.0
C1294 C 0.2801 0.7892 0.95917 0.0
C1295 C 0.20245 0.73792 0.8737 0.0
H1296 H 0.34105 0.6941 0.88435 0.0
H1297 H 0.26571 0.64186 0.94545 0.0
H1298 H 0.28533 0.76651 0.8632 0.0
H1299 H 0.31149 0.78504 0.8935 0.0
H1300 H 0.33341 0.75443 0.86725 0.0
H1301 H 0.21381 0.67261 0.96485 0.0
H1302 H 0.21974 0.72202 0.96881 0.0
H1303 H 0.19361 0.70403 0.93837 0.0
H1304 H 0.23621 0.84865 0.94987 0.0
H1305 H 0.16995 0.80449 0.87876 0.0
H1306 H 0.30671 0.78408 0.9476 0.0
H1307 H 0.27484 0.76508 0.97386 0.0
H1308 H 0.2832 0.81434 0.97312 0.0
H1309 H 0.22618 0.73398 0.85837 0.0
H1310 H 0.17759 0.74467 0.8602 0.0
H1311 H 0.19765 0.71119 0.88521 0.0
C1312 C 0.83066 0.23826 0.57679 0.0
C1313 C 0.83623 0.20461 0.5622 0.0
C1314 C 0.79667 0.25676 0.57492 0.0
C1315 C 0.76816 0.24239 0.55643 0.0
C1316 C 0.77429 0.20871 0.54086 0.0
C1317 C 0.808 0.18986 0.54452 0.0
C1318 C 0.79127 0.29084 0.59387 0.0
C1319 C 0.74532 0.19114 0.52118 0.0
C1320 C 0.667 0.26667 0.57005 0.0
C1321 C 0.66428 0.30136 0.55646 0.0
C1322 C 0.70058 0.2472 0.57028 0.0
C1323 C 0.73169 0.26177 0.55486 0.0
C1324 C 0.72832 0.29624 0.53984 0.0
C1325 C 0.69492 0.31598 0.5415 0.0
C1326 C 0.70256 0.21185 0.58817 0.0
C1327 C 0.75967 0.31321 0.52226 0.0
H1328 H 0.85228 0.24906 0.59115 0.0
H1329 H 0.81217 0.16341 0.53368 0.0
H1330 H 0.79885 0.31567 0.58071 0.0
H1331 H 0.7622 0.29382 0.60142 0.0
H1332 H 0.8094 0.29029 0.61386 0.0
H1333 H 0.73299 0.16717 0.53301 0.0
H1334 H 0.7229 0.2104 0.51485 0.0
H1335 H 0.75823 0.18012 0.50058 0.0
H1336 H 0.64342 0.25577 0.58218 0.0
H1337 H 0.69283 0.34301 0.53115 0.0
H1338 H 0.73062 0.20681 0.59731 0.0
H1339 H 0.69487 0.18828 0.57366 0.0
H1340 H 0.68265 0.21228 0.60702 0.0
H1341 H 0.77165 0.33655 0.53507 0.0
H1342 H 0.74904 0.32499 0.50106 0.0
H1343 H 0.78195 0.29325 0.51698 0.0
C1344 C 0.30899 0.81685 0.55191 0.0
C1345 C 0.29541 0.84441 0.57083 0.0
C1346 C 0.29071 0.78264 0.54929 0.0
C1347 C 0.25907 0.77533 0.56704 0.0
C1348 C 0.24552 0.80315 0.58638 0.0
C1349 C 0.26346 0.83762 0.58758 0.0
C1350 C 0.30589 0.75412 0.52807 0.0
C1351 C 0.213 0.79604 0.6067 0.0
C1352 C 0.19085 0.69806 0.54887 0.0
C1353 C 0.20397 0.66931 0.56688 0.0
C1354 C 0.20936 0.73227 0.54777 0.0
C1355 C 0.24075 0.73829 0.56614 0.0
C1356 C 0.25391 0.70919 0.58447 0.0
C1357 C 0.23574 0.67481 0.58416 0.0
C1358 C 0.19465 0.76219 0.52755 0.0
C1359 C 0.28617 0.71482 0.60537 0.0
H1360 H 0.33391 0.82211 0.53913 0.0
H1361 H 0.25348 0.85877 0.60266 0.0
H1362 H 0.32163 0.73305 0.54075 0.0
H1363 H 0.28318 0.73967 0.51621 0.0
H1364 H 0.32477 0.76666 0.51134 0.0
H1365 H 0.20656 0.82023 0.62101 0.0
H1366 H 0.18811 0.78912 0.59338 0.0
H1367 H 0.21891 0.77196 0.62128 0.0
H1368 H 0.16605 0.69378 0.53571 0.0
H1369 H 0.24532 0.6527 0.59855 0.0
H1370 H 0.21763 0.7771 0.51641 0.0
H1371 H 0.179 0.78263 0.5409 0.0
H1372 H 0.17582 0.75087 0.51023 0.0
H1373 H 0.31127 0.72247 0.59259 0.0
H1374 H 0.29231 0.6897 0.61874 0.0
H1375 H 0.28017 0.73796 0.62085 0.0
C1376 C 0.944 0.47877 0.95152 0.0
C1377 C 0.95769 0.44283 0.94878 0.0
C1378 C 0.96222 0.50437 0.96994 0.0
C1379 C 0.99582 0.49403 0.98392 0.0
C1380 C 0.0105 0.4583 0.97976 0.0
C1381 C 0.99022 0.43267 0.9635 0.0
C1382 C 0.94554 0.54206 0.97478 0.0
C1383 C 0.04731 0.44683 0.99287 0.0
C1384 C 0.06227 0.56616 0.01268 0.0
C1385 C 0.05919 0.56065 0.04344 0.0
C1386 C 0.04082 0.54562 0.99278 0.0
C1387 C 0.01533 0.51942 0.00414 0.0
C1388 C 0.01163 0.51431 0.03525 0.0
C1389 C 0.03406 0.53465 0.05455 0.0
C1390 C 0.0458 0.5529 0.9599 0.0
C1391 C 0.98317 0.48822 0.0482 0.0
H1392 H 0.91859 0.48631 0.94022 0.0
H1393 H 1.0004 0.40468 0.96184 0.0
H1394 H 0.94217 0.54726 -0.001 0.0
H1395 H 0.96445 0.56361 0.96591 0.0
H1396 H 0.91818 0.54496 0.96374 0.0
H1397 H 0.05739 0.42035 0.98337 0.0
H1398 H 0.06854 0.46847 0.98881 0.0
H1399 H 0.04461 0.44332 0.01731 0.0
H1400 H 0.08126 0.58685 0.00412 0.0
H1401 H 0.0308 0.53131 0.07841 0.0
H1402 H 0.03644 0.58145 0.95484 0.0
H1403 H 0.03035 0.53355 0.94536 0.0
H1404 H 0.07565 0.55159 0.95412 0.0
H1405 H 0.9551 0.49899 0.04325 0.0
H1406 H 0.98628 0.48513 0.07266 0.0
H1407 H 0.98516 0.46038 0.03807 0.0
C1408 C 0.03254 0.92896 0.95875 0.0
C1409 C 0.06856 0.94267 0.95602 0.0
C1410 C 0.00817 0.94455 0.97954 0.0
C1411 C 0.01984 0.97559 -0.00366 0.0
C1412 C 0.05654 0.98879 0.99402 0.0
C1413 C 0.08065 0.97156 0.97433 0.0
C1414 C 0.96981 0.92858 0.9829 0.0
C1415 C 0.07016 0.02187 0.01152 0.0
C1416 C 0.95049 0.04934 0.01485 0.0
C1417 C 0.94938 0.04702 0.04591 0.0
C1418 C 0.97228 0.02514 -0.00171 0.0
C1419 C 0.99301 0.99767 0.01331 0.0
C1420 C 0.99139 0.99467 0.04469 0.0
C1421 C 0.96976 0.01975 0.06074 0.0
C1422 C 0.97208 0.02877 0.96474 0.0
C1423 C 0.01094 0.96401 0.06117 0.0
H1424 H 0.02358 0.90619 0.9448 0.0
H1425 H 0.10868 0.98202 0.97219 0.0
H1426 H 0.96104 0.92874 0.0066 0.0
H1427 H 0.9499 0.94564 0.97011 0.0
H1428 H 0.9683 0.8998 0.97436 0.0
H1429 H 0.09755 0.03184 0.00362 0.0
H1430 H 0.05023 0.04509 0.01007 0.0
H1431 H 0.07277 0.01426 0.03536 0.0
H1432 H 0.93386 0.06988 0.00343 0.0
H1433 H 0.9675 0.01698 0.08472 0.0
H1434 H 0.95103 0.00964 0.95545 0.0
H1435 H 0.99915 0.02161 0.95469 0.0
H1436 H 0.9645 0.05721 0.95767 0.0
H1437 H 0.99622 0.93766 0.05673 0.0
H1438 H 0.01133 0.96879 0.08559 0.0
H1439 H 0.03981 0.96063 0.05332 0.0
C1440 C 0.5623 0.04921 0.97356 0.0
C1441 C 0.56167 0.05087 0.94243 0.0
C1442 C 0.53896 0.0251 0.98901 0.0
C1443 C 0.51406 0.0025 0.9728 0.0
C1444 C 0.51337 0.00395 0.94134 0.0
C1445 C 0.53753 0.02792 0.92645 0.0
C1446 C 0.5404 0.02521 0.02266 0.0
C1447 C 0.48606 0.98142 0.92354 0.0
C1448 C 0.48366 0.91437 0.00999 0.0
C1449 C 0.45343 0.9266 0.02676 0.0
C1450 C 0.50327 0.93859 0.99172 0.0
C1451 C 0.49083 0.97547 0.98882 0.0
C1452 C 0.45826 0.98712 0.00366 0.0
C1453 C 0.44053 0.96276 0.0234 0.0
C1454 C 0.53748 0.92421 0.97615 0.0
C1455 C 0.44257 0.02536 -0.00094 0.0
H1456 H 0.58055 0.06742 0.98594 0.0
H1457 H 0.53622 0.02998 0.90238 0.0
H1458 H 0.52029 0.04573 0.0312 0.0
H1459 H 0.53331 0.99792 0.0324 0.0
H1460 H 0.56819 0.03362 0.03081 0.0
H1461 H 0.48927 0.9857 0.8992 0.0
H1462 H 0.48941 0.95158 0.92833 0.0
H1463 H 0.45754 0.98911 0.93016 0.0
H1464 H 0.49329 0.88614 0.01231 0.0
H1465 H 0.4166 0.9718 0.03597 0.0
H1466 H 0.55801 0.94619 0.97126 0.0
H1467 H 0.52921 0.9112 0.9548 0.0
H1468 H 0.5513 0.90249 0.98965 0.0
H1469 H 0.45919 0.04574 0.01175 0.0
H1470 H 0.41344 0.02721 0.00679 0.0
H1471 H 0.44375 0.03328 0.97517 0.0
C1472 C 0.57488 0.47666 0.02602 0.0
C1473 C 0.56389 0.44556 0.04236 0.0
C1474 C 0.54977 0.49584 0.00836 0.0
C1475 C 0.51319 0.48239 0.00579 0.0
C1476 C 0.50207 0.45023 0.02146 0.0
C1477 C 0.52753 0.43252 0.0403 0.0
C1478 C 0.56242 0.53079 0.99283 0.0
C1479 C 0.46331 0.43511 0.01872 0.0
C1480 C 0.44449 0.55476 0.98179 0.0
C1481 C 0.44677 0.55166 0.95081 0.0
C1482 C 0.46457 0.53107 0.0003 0.0
C1483 C 0.48681 0.50323 0.98729 0.0
C1484 C 0.48767 0.49878 0.95602 0.0
C1485 C 0.46804 0.52348 0.93806 0.0
C1486 C 0.46117 0.53626 0.03356 0.0
C1487 C 0.50899 0.46769 0.94163 0.0
H1488 H 0.60301 0.48689 0.02791 0.0
H1489 H 0.51925 0.40839 0.05301 0.0
H1490 H 0.56445 0.52576 0.96853 0.0
H1491 H 0.54215 0.55341 -0.00379 0.0
H1492 H 0.58987 0.54036 0.00092 0.0
H1493 H 0.46076 0.40699 0.02848 0.0
H1494 H 0.44384 0.45379 0.03044 0.0
H1495 H 0.45478 0.43404 0.99499 0.0
H1496 H 0.42701 0.57583 0.9916 0.0
H1497 H 0.46836 0.51996 0.91408 0.0
H1498 H 0.48276 0.52171 0.04656 0.0
H1499 H 0.43376 0.52572 0.04083 0.0
H1500 H 0.46214 0.56615 0.03921 0.0
H1501 H 0.53892 0.47036 0.94664 0.0
H1502 H 0.50541 0.4671 0.91706 0.0
H1503 H 0.49957 0.44089 0.95097 0.0
C1504 C 0.93737 0.05314 0.52231 0.0
C1505 C 0.94507 0.05776 0.55253 0.0
C1506 C 0.95711 0.02746 0.50549 0.0
C1507 C 0.98618 0.00746 0.51908 0.0
C1508 C 0.99289 0.0109 0.55003 0.0
C1509 C 0.97161 0.0357 0.56656 0.0
C1510 C 0.94749 0.02246 0.47308 0.0
C1511 C 0.02279 0.98939 0.56592 0.0
C1512 C 0.02635 0.92426 0.48086 0.0
C1513 C 0.05344 0.94049 0.4627 0.0
C1514 C 0.00379 0.94586 0.49896 0.0
C1515 C 0.01029 0.98427 0.50047 0.0
C1516 C 0.03899 1.00066 0.48335 0.0
C1517 C 0.05958 0.97856 0.46389 0.0
C1518 C 0.97234 0.92766 0.51564 0.0
C1519 C 0.04754 0.04153 0.4846 0.0
H1520 H 0.91654 0.07026 0.51174 0.0
H1521 H 0.97749 0.03965 0.59004 0.0
H1522 H 0.9698 0.03421 0.459 0.0
H1523 H 0.9451 0.99259 0.46772 0.0
H1524 H 0.92112 0.03637 0.46716 0.0
H1525 H 0.01054 0.96387 0.57546 0.0
H1526 H 0.04578 0.98135 0.55094 0.0
H1527 H 0.03435 0.00556 0.5848 0.0
H1528 H 0.02159 0.89469 0.47996 0.0
H1529 H 0.08061 0.99098 0.44983 0.0
H1530 H 0.94637 0.94361 0.5127 0.0
H1531 H 0.9788 0.92699 0.53975 0.0
H1532 H 0.9674 0.89882 0.50809 0.0
H1533 H 0.03324 0.05564 0.46592 0.0
H1534 H 0.07769 0.04647 0.48182 0.0
H1535 H 0.0385 0.05449 0.50575 0.0
C1536 C 0.41684 0.98554 0.51315 0.0
C1537 C 0.43036 0.95706 0.53123 0.0
C1538 C 0.44055 0.00619 0.49509 0.0
C1539 C 0.47849 0.99655 0.49372 0.0
C1540 C 0.49196 0.96641 0.51093 0.0
C1541 C 0.46776 0.94761 0.53007 0.0
C1542 C 0.42438 0.03859 0.47823 0.0
C1543 C 0.53185 0.954 0.51033 0.0
C1544 C 0.52719 0.03808 0.42682 0.0
C1545 C 0.55358 0.06065 0.4406 0.0
C1546 C 0.50274 0.01666 0.44376 0.0
C1547 C 0.50404 0.01894 0.4753 0.0
C1548 C 0.52957 0.04325 0.48923 0.0
C1549 C 0.55436 0.06338 0.47166 0.0
C1550 C 0.47634 0.99145 0.42732 0.0
C1551 C 0.53245 0.04724 0.52265 0.0
H1552 H 0.38785 0.99312 0.51428 0.0
H1553 H 0.47813 0.92551 0.54411 0.0
H1554 H 0.44531 0.05979 0.47228 0.0
H1555 H 0.41124 0.02831 0.4575 0.0
H1556 H 0.40232 0.0522 0.49149 0.0
H1557 H 0.53309 0.92355 0.50735 0.0
H1558 H 0.54853 0.96721 0.49255 0.0
H1559 H 0.54484 0.96018 0.53217 0.0
H1560 H 0.52686 0.03556 0.40275 0.0
H1561 H 0.57493 0.08077 0.48234 0.0
H1562 H 0.45296 0.00809 0.41859 0.0
H1563 H 0.4651 0.96892 0.44144 0.0
H1564 H 0.49024 0.97884 0.40775 0.0
H1565 H 0.53965 0.07613 0.52876 0.0
H1566 H 0.55521 0.02938 0.53085 0.0
H1567 H 0.50668 0.03931 0.53443 0.0
C1568 C 0.53218 0.47335 0.55236 0.0
C1569 C 0.55657 0.44945 0.53785 0.0
C1570 C 0.50905 0.49679 0.5361 0.0
C1571 C 0.51149 0.49711 0.50455 0.0
C1572 C 0.53734 0.47394 0.48991 0.0
C1573 C 0.55916 0.44997 0.50681 0.0
C1574 C 0.48219 0.52055 0.55331 0.0
C1575 C 0.54152 0.47294 0.45642 0.0
C1576 C 0.43991 0.53319 0.45004 0.0
C1577 C 0.44799 0.57092 0.4504 0.0
C1578 C 0.45904 0.50883 0.46882 0.0
C1579 C 0.48829 0.52258 0.4869 0.0
C1580 C 0.49646 0.56087 0.48708 0.0
C1581 C 0.47543 0.58457 0.46948 0.0
C1582 C 0.44769 0.46862 0.46858 0.0
C1583 C 0.52728 0.57759 0.50554 0.0
H1584 H 0.5297 0.47241 0.57642 0.0
H1585 H 0.57785 0.43108 0.49565 0.0
H1586 H 0.49764 0.54343 0.56412 0.0
H1587 H 0.45996 0.53249 0.5393 0.0
H1588 H 0.46923 0.5042 0.5715 0.0
H1589 H 0.57057 0.46679 0.45008 0.0
H1590 H 0.52413 0.45025 0.44743 0.0
H1591 H 0.53309 0.49913 0.44553 0.0
H1592 H 0.41833 0.52281 0.43547 0.0
H1593 H 0.48163 0.61392 0.46981 0.0
H1594 H 0.45965 0.4524 0.4872 0.0
H1595 H 0.45632 0.45597 0.44719 0.0
H1596 H 0.41706 0.46635 0.4697 0.0
H1597 H 0.51541 0.58872 0.52646 0.0
H1598 H 0.5403 0.60122 0.49367 0.0
H1599 H 0.54928 0.5575 0.5113 0.0
C1600 C 0.02887 0.56144 0.52907 0.0
C1601 C 0.06709 0.55597 0.52949 0.0
C1602 C 0.00628 0.54014 0.51037 0.0
C1603 C 0.02234 0.51133 0.49327 0.0
C1604 C 0.06093 0.5055 0.49402 0.0
C1605 C 0.08297 0.52883 0.51128 0.0
C1606 C 0.96528 0.54822 0.50985 0.0
C1607 C 0.07892 0.47408 0.47731 0.0
C1608 C 0.95158 0.43864 0.474 0.0
C1609 C 0.94616 0.44548 0.44373 0.0
C1610 C 0.97837 0.45827 0.48991 0.0
C1611 C 0.99865 0.48654 0.47542 0.0
C1612 C 0.99464 0.49205 0.44434 0.0
C1613 C 0.96872 0.47085 0.42875 0.0
C1614 C 0.98428 0.44937 0.52234 0.0
C1615 C 0.01655 0.52057 0.42716 0.0
H1616 H 0.01669 0.58252 0.54314 0.0
H1617 H 0.11264 0.52464 0.51152 0.0
H1618 H 0.95165 0.53857 0.48912 0.0
H1619 H 0.95189 0.5343 0.52906 0.0
H1620 H 0.96022 0.57836 0.51224 0.0
H1621 H 0.10795 0.46945 0.48455 0.0
H1622 H 0.06314 0.44802 0.48058 0.0
H1623 H 0.07907 0.4804 0.45316 0.0
H1624 H 0.93422 0.41861 0.48535 0.0
H1625 H 0.96434 0.47606 0.40521 0.0
H1626 H 0.97222 0.47152 0.53631 0.0
H1627 H 0.01433 0.44789 0.52735 0.0
H1628 H 0.97109 0.42274 0.52867 0.0
H1629 H 0.99859 0.53463 0.41057 0.0
H1630 H 0.03865 0.50634 0.41445 0.0
H1631 H 0.0296 0.54181 0.44153 0.0
C1632 C 0.93884 0.50229 0.30062 0.0
C1633 C 0.9276 0.46528 0.30294 0.0
C1634 C 0.9625 0.51401 0.27783 0.0
C1635 C 0.9751 0.48815 0.25648 0.0
C1636 C 0.96574 0.45026 0.25971 0.0
C1637 C 0.94214 0.43918 0.28309 0.0
C1638 C 0.97212 0.55462 0.27563 0.0
C1639 C 0.97879 0.42184 0.23755 0.0
C1640 C 0.98805 0.53787 0.18344 0.0
C1641 C 0.02566 0.54732 0.18468 0.0
C1642 C 0.97194 0.51535 0.20528 0.0
C1643 C 0.9939 0.50221 0.22916 0.0
C1644 C 0.0326 0.50874 0.22896 0.0
C1645 C 0.04813 0.53122 0.20656 0.0
C1646 C 0.93069 0.50869 0.20428 0.0
C1647 C 0.05705 0.49489 0.25379 0.0
H1648 H 0.92822 0.52247 0.31628 0.0
H1649 H 0.93358 0.41052 0.28486 0.0
H1650 H 0.00241 0.55831 0.27302 0.0
H1651 H 0.95862 0.56672 0.25568 0.0
H1652 H 0.96299 0.57041 0.29552 0.0
H1653 H 0.97513 0.39321 0.24606 0.0
H1654 H 0.96266 0.42468 0.21665 0.0
H1655 H 0.00836 0.42623 0.23193 0.0
H1656 H 0.9707 0.54987 0.16625 0.0
H1657 H 0.07723 0.53847 0.20757 0.0
H1658 H 0.91701 0.52549 0.22175 0.0
H1659 H 0.92427 0.47924 0.20885 0.0
H1660 H 0.91861 0.51633 0.1824 0.0
H1661 H 0.05348 0.51283 0.2736 0.0
H1662 H 0.08673 0.49533 0.24737 0.0
H1663 H 0.04928 0.46634 0.26035 0.0
C1664 C 0.04864 0.96859 0.29313 0.0
C1665 C 0.0259 0.95689 0.31659 0.0
C1666 C 0.03386 0.98874 0.26904 0.0
C1667 C 0.99567 0.99772 0.26878 0.0
C1668 C 0.97365 0.98913 0.29396 0.0
C1669 C 0.98892 0.96845 0.31736 0.0
C1670 C 0.05836 0.99738 0.24274 0.0
C1671 C 0.93304 0.99872 0.29515 0.0
C1672 C 0.95058 0.0593 0.20997 0.0
C1673 C 0.93371 0.0328 0.19161 0.0
C1674 C 0.97215 0.04849 0.23465 0.0
C1675 C 0.97731 0.01037 0.24076 0.0
C1676 C 0.96204 0.98369 0.2212 0.0
C1677 C 0.94029 0.99521 0.19707 0.0
C1678 C 0.98773 0.07775 0.25505 0.0
C1679 C 0.96729 0.94275 0.22643 0.0
H1680 H 0.07715 0.95936 0.29235 0.0
H1681 H 0.97131 0.95951 0.33558 0.0
H1682 H 0.05203 0.97783 0.2244 0.0
H1683 H 0.05309 0.02572 0.23431 0.0
H1684 H 0.08816 0.99478 0.24843 0.0
H1685 H 0.92241 0.99832 0.31834 0.0
H1686 H 0.92775 0.02642 0.28545 0.0
H1687 H 0.91716 0.97815 0.28197 0.0
H1688 H 0.9455 0.08839 0.20588 0.0
H1689 H 0.9278 0.9746 0.18268 0.0
H1690 H 0.01732 0.07224 0.25988 0.0
H1691 H 0.97272 0.07704 0.27659 0.0
H1692 H 0.98514 0.10593 0.24542 0.0
H1693 H 0.99704 0.93633 0.22954 0.0
H1694 H 0.95651 0.9258 0.2077 0.0
H1695 H 0.95264 0.93442 0.24709 0.0
C1696 C 0.56098 0.99517 0.29426 0.0
C1697 C 0.56826 0.03325 0.29511 0.0
C1698 C 0.53971 0.97949 0.27136 0.0
C1699 C 0.52599 0.00227 0.24816 0.0
C1700 C 0.53182 0.04104 0.24961 0.0
C1701 C 0.55263 0.05616 0.27328 0.0
C1702 C 0.53358 0.93817 0.27125 0.0
C1703 C 0.51807 0.06627 0.22525 0.0
C1704 C 0.5183 0.94836 0.176 0.0
C1705 C 0.48067 0.9389 0.17539 0.0
C1706 C 0.53279 0.97136 0.19832 0.0
C1707 C 0.50926 0.98462 0.22115 0.0
C1708 C 0.47079 0.97691 0.21969 0.0
C1709 C 0.45686 0.95435 0.19662 0.0
C1710 C 0.57381 0.9794 0.19849 0.0
C1711 C 0.44477 0.99015 0.24365 0.0
H1712 H 0.57278 0.97741 0.31126 0.0
H1713 H 0.55845 0.08556 0.27375 0.0
H1714 H 0.50391 0.93172 0.26757 0.0
H1715 H 0.5494 0.92557 0.25269 0.0
H1716 H 0.54255 0.925 0.29241 0.0
H1717 H 0.52047 0.09589 0.23148 0.0
H1718 H 0.53454 0.06156 0.20476 0.0
H1719 H 0.48878 0.06006 0.2198 0.0
H1720 H 0.53677 0.93656 0.15953 0.0
H1721 H 0.42782 0.94676 0.1964 0.0
H1722 H 0.58713 0.96411 0.21705 0.0
H1723 H 0.57892 0.00929 0.20219 0.0
H1724 H 0.58735 0.97107 0.17734 0.0
H1725 H 0.44966 0.97404 0.26432 0.0
H1726 H 0.41531 0.98674 0.2371 0.0
H1727 H 0.44996 0.01965 0.24892 0.0
C1728 C 0.46273 0.53764 0.30144 0.0
C1729 C 0.46684 0.57593 0.2976 0.0
C1730 C 0.47874 0.51252 0.28111 0.0
C1731 C 0.4989 0.52606 0.25623 0.0
C1732 C 0.50107 0.56469 0.25139 0.0
C1733 C 0.48528 0.58899 0.27213 0.0
C1734 C 0.47573 0.4716 0.2871 0.0
C1735 C 0.52177 0.58057 0.22507 0.0
C1736 C 0.58222 0.47649 0.22404 0.0
C1737 C 0.56889 0.46389 0.19646 0.0
C1738 C 0.55908 0.49457 0.24442 0.0
C1739 C 0.52147 0.50072 0.23711 0.0
C1740 C 0.50726 0.48633 0.21 0.0
C1741 C 0.53111 0.46788 0.19003 0.0
C1742 C 0.57556 0.50899 0.2731 0.0
C1743 C 0.4674 0.49227 0.20129 0.0
H1744 H 0.44854 0.5273 0.32102 0.0
H1745 H 0.48811 0.61853 0.26866 0.0
H1746 H 0.46784 0.45658 0.26651 0.0
H1747 H 0.50306 0.46087 0.29428 0.0
H1748 H 0.45516 0.4653 0.30477 0.0
H1749 H 0.51786 0.61091 0.22289 0.0
H1750 H 0.55179 0.57496 0.22758 0.0
H1751 H 0.51253 0.5672 0.20412 0.0
H1752 H 0.61127 0.47307 0.22943 0.0
H1753 H 0.52058 0.4583 0.16878 0.0
H1754 H 0.55812 0.50087 0.29236 0.0
H1755 H 0.57646 0.53965 0.27246 0.0
H1756 H 0.60409 0.49862 0.2769 0.0
H1757 H 0.44876 0.48613 0.22028 0.0
H1758 H 0.45921 0.47483 0.18203 0.0
H1759 H 0.46325 0.5217 0.19516 0.0
C1760 C 0.04521 0.4904 0.67506 0.0
C1761 C 0.05692 0.52733 0.67628 0.0
C1762 C 0.02544 0.47432 0.69868 0.0
C1763 C 0.01811 0.49536 0.72462 0.0
C1764 C 0.02774 0.53341 0.72511 0.0
C1765 C 0.04679 0.54905 0.70077 0.0
C1766 C 0.01506 0.43395 0.69668 0.0
C1767 C 0.02077 0.55682 0.75231 0.0
C1768 C 0.95557 0.45063 0.78316 0.0
C1769 C 0.98155 0.43211 0.80098 0.0
C1770 C 0.96694 0.47238 0.75872 0.0
C1771 C 0.00517 0.47621 0.7523 0.0
C1772 C 0.03146 0.45917 0.77128 0.0
C1773 C 0.01934 0.43713 0.79512 0.0
C1774 C 0.93802 0.48962 0.73886 0.0
C1775 C 0.07251 0.46299 0.76574 0.0
H1776 H 0.05311 0.47351 0.65614 0.0
H1777 H 0.05631 0.57746 0.70196 0.0
H1778 H 0.03544 0.4173 0.70939 0.0
H1779 H 0.98735 0.42882 0.70646 0.0
H1780 H 0.01496 0.42407 0.67327 0.0
H1781 H 0.02454 0.58675 0.74762 0.0
H1782 H 0.99239 0.55223 0.76095 0.0
H1783 H 0.04041 0.54874 0.77017 0.0
H1784 H 0.92631 0.44668 0.78742 0.0
H1785 H 0.0396 0.42321 0.80896 0.0
H1786 H 0.93827 0.47567 0.71686 0.0
H1787 H 0.94436 0.51924 0.73495 0.0
H1788 H 0.90978 0.48726 0.74843 0.0
H1789 H 0.07991 0.44867 0.74473 0.0
H1790 H 0.08931 0.45102 0.7841 0.0
H1791 H 0.08013 0.49254 0.76311 0.0
C1792 C 0.95238 0.04408 0.69852 0.0
C1793 C 0.95129 0.08242 0.70296 0.0
C1794 C 0.96896 0.02064 0.71977 0.0
C1795 C 0.98434 0.03595 0.74611 0.0
C1796 C 0.98025 0.07423 0.75175 0.0
C1797 C 0.96407 0.09696 0.73005 0.0
C1798 C 0.9727 0.98001 0.71287 0.0
C1799 C 0.99568 0.09181 0.77963 0.0
C1800 C 0.02348 0.97825 0.81025 0.0
C1801 C 0.06154 0.98071 0.80451 0.0
C1802 C 0.99756 0.99493 0.79091 0.0
C1803 C 0.01012 0.01389 0.76512 0.0
C1804 C 0.04842 0.01469 0.75858 0.0
C1805 C 0.07351 0.99838 0.77837 0.0
C1806 C 0.957 0.9936 0.7987 0.0
C1807 C 0.06319 0.03404 0.73117 0.0
H1808 H 0.9426 0.03271 0.67761 0.0
H1809 H 0.96282 0.12656 0.73377 0.0
H1810 H 0.00155 0.97417 0.70588 0.0
H1811 H 0.9669 0.96301 0.7329 0.0
H1812 H 0.9538 0.97131 0.69464 0.0
H1813 H 0.98553 0.12053 0.78273 0.0
H1814 H 0.9882 0.07531 0.79958 0.0
H1815 H 0.02633 0.0926 0.77828 0.0
H1816 H 0.01407 0.96459 0.83037 0.0
H1817 H 0.10285 0.99981 0.77345 0.0
H1818 H 0.94032 0.9855 0.77901 0.0
H1819 H 0.9477 0.02154 0.80557 0.0
H1820 H 0.95123 0.97397 0.81717 0.0
H1821 H 0.09338 0.02968 0.72813 0.0
H1822 H 0.05804 0.0642 0.73292 0.0
H1823 H 0.04866 0.02402 0.71096 0.0
C1824 C 0.4644 0.96024 0.69933 0.0
C1825 C 0.44923 0.98372 0.6777 0.0
C1826 C 0.48565 0.97465 0.72299 0.0
C1827 C 0.49208 0.01329 0.72474 0.0
C1828 C 0.47958 0.03648 0.70138 0.0
C1829 C 0.45811 0.02147 0.67833 0.0
C1830 C 0.49849 0.94893 0.74734 0.0
C1831 C 0.48624 0.07771 0.70194 0.0
C1832 C 0.49484 0.06392 0.79865 0.0
C1833 C 0.53241 0.07312 0.80132 0.0
C1834 C 0.48184 0.04257 0.77477 0.0
C1835 C 0.50692 0.03044 0.75259 0.0
C1836 C 0.54519 0.0381 0.75589 0.0
C1837 C 0.55755 0.05917 0.78037 0.0
C1838 C 0.44089 0.03454 0.77258 0.0
C1839 C 0.57281 0.02575 0.73279 0.0
H1840 H 0.45727 0.93111 0.6991 0.0
H1841 H 0.44651 0.03968 0.66155 0.0
H1842 H 0.52723 0.95558 0.75418 0.0
H1843 H 0.48054 0.95245 0.76717 0.0
H1844 H 0.4972 0.91951 0.74032 0.0
H1845 H 0.47899 0.09103 0.68042 0.0
H1846 H 0.46917 0.09039 0.71973 0.0
H1847 H 0.51565 0.08382 0.70706 0.0
H1848 H 0.47533 0.07409 0.81505 0.0
H1849 H 0.58662 0.06621 0.78231 0.0
H1850 H 0.43613 0.00465 0.76862 0.0
H1851 H 0.429 0.04982 0.7534 0.0
H1852 H 0.42572 0.04277 0.79304 0.0
H1853 H 0.56831 0.99629 0.72695 0.0
H1854 H 0.6018 0.02937 0.7405 0.0
H1855 H 0.56893 0.04218 0.71215 0.0
C1856 C 0.46615 0.48417 0.80807 0.0
C1857 C 0.45579 0.52149 0.80899 0.0
C1858 C 0.48735 0.47021 0.7845 0.0
C1859 C 0.49807 0.49403 0.76096 0.0
C1860 C 0.4901 0.53231 0.76291 0.0
C1861 C 0.46919 0.54568 0.78705 0.0
C1862 C 0.49577 0.42933 0.78371 0.0
C1863 C 0.50103 0.55865 0.73835 0.0
C1864 C 0.56293 0.45092 0.70376 0.0
C1865 C 0.53739 0.43568 0.6837 0.0
C1866 C 0.55083 0.47171 0.72844 0.0
C1867 C 0.51243 0.47769 0.73274 0.0
C1868 C 0.4869 0.46447 0.71128 0.0
C1869 C 0.49966 0.44341 0.68724 0.0
C1870 C 0.5789 0.48523 0.7508 0.0
C1871 C 0.44577 0.47072 0.71456 0.0
H1872 H 0.4562 0.46544 0.82517 0.0
H1873 H 0.46114 0.57453 0.78759 0.0
H1874 H 0.47869 0.41591 0.76624 0.0
H1875 H 0.52523 0.42463 0.77796 0.0
H1876 H 0.48982 0.41561 0.80534 0.0
H1877 H 0.49864 0.58797 0.74543 0.0
H1878 H 0.52982 0.5534 0.73096 0.0
H1879 H 0.48265 0.55428 0.71886 0.0
H1880 H 0.5921 0.4448 0.70117 0.0
H1881 H 0.47988 0.43199 0.67155 0.0
H1882 H 0.57704 0.46814 0.77128 0.0
H1883 H 0.57314 0.51425 0.75724 0.0
H1884 H 0.6076 0.48345 0.74208 0.0
H1885 H 0.43529 0.45481 0.73396 0.0
H1886 H 0.4301 0.46196 0.69447 0.0
H1887 H 0.43998 0.50035 0.7188 0.0
loop_
_geom_bond_atom_site_label_1
_geom_bond_atom_site_label_2
_geom_bond_distance
_geom_bond_site_symmetry_2
_ccdc_geom_bond_type
Sc0 O3 2.025 . S
Sc0 O10 2.105 . S
Sc0 O13 2.105 . S
Sc0 O16 2.105 1_455 S
Sc0 O19 2.105 . S
Sc1 O3 2.025 . S
Sc1 O11 2.105 . S
Sc1 O15 2.105 . S
Sc1 O17 2.105 . S
Sc1 O21 2.105 . S
Sc2 O3 2.025 1_655 S
Sc2 O12 2.105 1_655 S
Sc2 O14 2.105 . S
Sc2 O18 2.105 . S
Sc2 O20 2.105 . S
O3 Sc0 2.025 . S
O3 Sc1 2.025 . S
O3 Sc2 2.025 1_455 S
C4 O10 1.268 . S
C4 O20 1.268 1_455 S
C5 O11 1.268 . S
C5 O19 1.268 . S
C6 O12 1.268 . S
C6 O21 1.268 . S
C7 O13 1.268 . S
C7 O17 1.268 . S
C8 O14 1.268 . S
C8 O16 1.268 . S
C9 O15 1.268 . S
C9 O18 1.268 1_455 S
O10 Sc0 2.105 . S
O10 C4 1.268 . S
O11 Sc1 2.105 . S
O11 C5 1.268 . S
O12 Sc2 2.105 1_455 S
O12 C6 1.268 . S
O13 Sc0 2.105 . S
O13 C7 1.268 . S
O14 Sc2 2.105 . S
O14 C8 1.268 . S
O15 Sc1 2.105 . S
O15 C9 1.268 . S
O16 Sc0 2.105 1_655 S
O16 C8 1.268 . S
O17 Sc1 2.105 . S
O17 C7 1.268 . S
O18 Sc2 2.105 . S
O18 C9 1.268 1_655 S
O19 Sc0 2.105 . S
O19 C5 1.268 . S
O20 Sc2 2.105 . S
O20 C4 1.268 1_655 S
O21 Sc1 2.105 . S
O21 C6 1.268 . S
Sc22 O25 2.025 . S
Sc22 O32 2.105 . S
Sc22 O35 2.105 . S
Sc22 O38 2.105 1_545 S
Sc22 O41 2.105 . S
Sc23 O25 2.025 . S
Sc23 O33 2.105 . S
Sc23 O37 2.105 . S
Sc23 O39 2.105 . S
Sc23 O43 2.105 . S
Sc24 O25 2.025 1_565 S
Sc24 O34 2.105 1_565 S
Sc24 O36 2.105 . S
Sc24 O40 2.105 . S
Sc24 O42 2.105 . S
O25 Sc22 2.025 . S
O25 Sc23 2.025 . S
O25 Sc24 2.025 1_545 S
C26 O32 1.268 . S
C26 O42 1.268 1_545 S
C27 O33 1.268 . S
C27 O41 1.268 . S
C28 O34 1.268 . S
C28 O43 1.268 . S
C29 O35 1.268 . S
C29 O39 1.268 . S
C30 O36 1.268 . S
C30 O38 1.268 . S
C31 O37 1.268 . S
C31 O40 1.268 1_545 S
O32 Sc22 2.105 . S
O32 C26 1.268 . S
O33 Sc23 2.105 . S
O33 C27 1.268 . S
O34 Sc24 2.105 1_545 S
O34 C28 1.268 . S
O35 Sc22 2.105 . S
O35 C29 1.268 . S
O36 Sc24 2.105 . S
O36 C30 1.268 . S
O37 Sc23 2.105 . S
O37 C31 1.268 . S
O38 Sc22 2.105 1_565 S
O38 C30 1.268 . S
O39 Sc23 2.105 . S
O39 C29 1.268 . S
O40 Sc24 2.105 . S
O40 C31 1.268 1_565 S
O41 Sc22 2.105 . S
O41 C27 1.268 . S
O42 Sc24 2.105 . S
O42 C26 1.268 1_565 S
O43 Sc23 2.105 . S
O43 C28 1.268 . S
Sc44 O47 2.025 . S
Sc44 O54 2.105 . S
Sc44 O57 2.105 . S
Sc44 O60 2.105 . S
Sc44 O63 2.105 . S
Sc45 O47 2.025 . S
Sc45 O55 2.105 . S
Sc45 O59 2.105 . S
Sc45 O61 2.105 . S
Sc45 O65 2.105 . S
Sc46 O47 2.025 . S
Sc46 O56 2.105 . S
Sc46 O58 2.105 . S
Sc46 O62 2.105 . S
Sc46 O64 2.105 . S
O47 Sc44 2.025 . S
O47 Sc45 2.025 . S
O47 Sc46 2.025 . S
C48 O54 1.268 . S
C48 O64 1.268 . S
C49 O55 1.268 . S
C49 O63 1.268 . S
C50 O56 1.268 . S
C50 O65 1.268 . S
C51 O57 1.268 . S
C51 O61 1.268 . S
C52 O58 1.268 . S
C52 O60 1.268 . S
C53 O59 1.268 . S
C53 O62 1.268 . S
O54 Sc44 2.105 . S
O54 C48 1.268 . S
O55 Sc45 2.105 . S
O55 C49 1.268 . S
O56 Sc46 2.105 . S
O56 C50 1.268 . S
O57 Sc44 2.105 . S
O57 C51 1.268 . S
O58 Sc46 2.105 . S
O58 C52 1.268 . S
O59 Sc45 2.105 . S
O59 C53 1.268 . S
O60 Sc44 2.105 . S
O60 C52 1.268 . S
O61 Sc45 2.105 . S
O61 C51 1.268 . S
O62 Sc46 2.105 . S
O62 C53 1.268 . S
O63 Sc44 2.105 . S
O63 C49 1.268 . S
O64 Sc46 2.105 . S
O64 C48 1.268 . S
O65 Sc45 2.105 . S
O65 C50 1.268 . S
Sc66 O69 2.025 . S
Sc66 O76 2.105 . S
Sc66 O79 2.105 . S
Sc66 O82 2.105 . S
Sc66 O85 2.105 . S
Sc67 O69 2.025 . S
Sc67 O77 2.105 . S
Sc67 O81 2.105 . S
Sc67 O83 2.105 . S
Sc67 O87 2.105 . S
Sc68 O69 2.025 . S
Sc68 O78 2.105 . S
Sc68 O80 2.105 . S
Sc68 O84 2.105 . S
Sc68 O86 2.105 . S
O69 Sc66 2.025 . S
O69 Sc67 2.025 . S
O69 Sc68 2.025 . S
C70 O76 1.268 . S
C70 O86 1.268 . S
C71 O77 1.268 . S
C71 O85 1.268 . S
C72 O78 1.268 . S
C72 O87 1.268 . S
C73 O79 1.268 . S
C73 O83 1.268 . S
C74 O80 1.268 . S
C74 O82 1.268 . S
C75 O81 1.268 . S
C75 O84 1.268 . S
O76 Sc66 2.105 . S
O76 C70 1.268 . S
O77 Sc67 2.105 . S
O77 C71 1.268 . S
O78 Sc68 2.105 . S
O78 C72 1.268 . S
O79 Sc66 2.105 . S
O79 C73 1.268 . S
O80 Sc68 2.105 . S
O80 C74 1.268 . S
O81 Sc67 2.105 . S
O81 C75 1.268 . S
O82 Sc66 2.105 . S
O82 C74 1.268 . S
O83 Sc67 2.105 . S
O83 C73 1.268 . S
O84 Sc68 2.105 . S
O84 C75 1.268 . S
O85 Sc66 2.105 . S
O85 C71 1.268 . S
O86 Sc68 2.105 . S
O86 C70 1.268 . S
O87 Sc67 2.105 . S
O87 C72 1.268 . S
Sc88 O91 2.025 1_655 S
Sc88 O98 2.105 . S
Sc88 O101 2.105 1_655 S
Sc88 O104 2.105 . S
Sc88 O107 2.105 . S
Sc89 O91 2.025 . S
Sc89 O99 2.105 . S
Sc89 O103 2.105 . S
Sc89 O105 2.105 . S
Sc89 O109 2.105 . S
Sc90 O91 2.025 . S
Sc90 O100 2.105 . S
Sc90 O102 2.105 . S
Sc90 O106 2.105 . S
Sc90 O108 2.105 1_455 S
O91 Sc88 2.025 1_455 S
O91 Sc89 2.025 . S
O91 Sc90 2.025 . S
C92 O98 1.268 . S
C92 O108 1.268 . S
C93 O99 1.268 . S
C93 O107 1.268 1_455 S
C94 O100 1.268 . S
C94 O109 1.268 . S
C95 O101 1.268 . S
C95 O105 1.268 . S
C96 O102 1.268 . S
C96 O104 1.268 1_455 S
C97 O103 1.268 . S
C97 O106 1.268 . S
O98 Sc88 2.105 . S
O98 C92 1.268 . S
O99 Sc89 2.105 . S
O99 C93 1.268 . S
O100 Sc90 2.105 . S
O100 C94 1.268 . S
O101 Sc88 2.105 1_455 S
O101 C95 1.268 . S
O102 Sc90 2.105 . S
O102 C96 1.268 . S
O103 Sc89 2.105 . S
O103 C97 1.268 . S
O104 Sc88 2.105 . S
O104 C96 1.268 1_655 S
O105 Sc89 2.105 . S
O105 C95 1.268 . S
O106 Sc90 2.105 . S
O106 C97 1.268 . S
O107 Sc88 2.105 . S
O107 C93 1.268 1_655 S
O108 Sc90 2.105 1_655 S
O108 C92 1.268 . S
O109 Sc89 2.105 . S
O109 C94 1.268 . S
Sc110 O113 2.025 . S
Sc110 O120 2.105 . S
Sc110 O123 2.105 . S
Sc110 O126 2.105 1_545 S
Sc110 O129 2.105 . S
Sc111 O113 2.025 . S
Sc111 O121 2.105 . S
Sc111 O125 2.105 . S
Sc111 O127 2.105 . S
Sc111 O131 2.105 . S
Sc112 O113 2.025 1_565 S
Sc112 O122 2.105 1_565 S
Sc112 O124 2.105 . S
Sc112 O128 2.105 . S
Sc112 O130 2.105 . S
O113 Sc110 2.025 . S
O113 Sc111 2.025 . S
O113 Sc112 2.025 1_545 S
C114 O120 1.268 . S
C114 O130 1.268 1_545 S
C115 O121 1.268 . S
C115 O129 1.268 . S
C116 O122 1.268 . S
C116 O131 1.268 . S
C117 O123 1.268 . S
C117 O127 1.268 . S
C118 O124 1.268 . S
C118 O126 1.268 . S
C119 O125 1.268 . S
C119 O128 1.268 1_545 S
O120 Sc110 2.105 . S
O120 C114 1.268 . S
O121 Sc111 2.105 . S
O121 C115 1.268 . S
O122 Sc112 2.105 1_545 S
O122 C116 1.268 . S
O123 Sc110 2.105 . S
O123 C117 1.268 . S
O124 Sc112 2.105 . S
O124 C118 1.268 . S
O125 Sc111 2.105 . S
O125 C119 1.268 . S
O126 Sc110 2.105 1_565 S
O126 C118 1.268 . S
O127 Sc111 2.105 . S
O127 C117 1.268 . S
O128 Sc112 2.105 . S
O128 C119 1.268 1_565 S
O129 Sc110 2.105 . S
O129 C115 1.268 . S
O130 Sc112 2.105 . S
O130 C114 1.268 1_565 S
O131 Sc111 2.105 . S
O131 C116 1.268 . S
Sc132 O135 2.025 . S
Sc132 O142 2.105 . S
Sc132 O145 2.105 . S
Sc132 O148 2.105 . S
Sc132 O151 2.105 . S
Sc133 O135 2.025 . S
Sc133 O143 2.105 . S
Sc133 O147 2.105 . S
Sc133 O149 2.105 . S
Sc133 O153 2.105 . S
Sc134 O135 2.025 . S
Sc134 O144 2.105 . S
Sc134 O146 2.105 . S
Sc134 O150 2.105 . S
Sc134 O152 2.105 . S
O135 Sc132 2.025 . S
O135 Sc133 2.025 . S
O135 Sc134 2.025 . S
C136 O142 1.268 . S
C136 O152 1.268 . S
C137 O143 1.268 . S
C137 O151 1.268 . S
C138 O144 1.268 . S
C138 O153 1.268 . S
C139 O145 1.268 . S
C139 O149 1.268 . S
C140 O146 1.268 . S
C140 O148 1.268 . S
C141 O147 1.268 . S
C141 O150 1.268 . S
O142 Sc132 2.105 . S
O142 C136 1.268 . S
O143 Sc133 2.105 . S
O143 C137 1.268 . S
O144 Sc134 2.105 . S
O144 C138 1.268 . S
O145 Sc132 2.105 . S
O145 C139 1.268 . S
O146 Sc134 2.105 . S
O146 C140 1.268 . S
O147 Sc133 2.105 . S
O147 C141 1.268 . S
O148 Sc132 2.105 . S
O148 C140 1.268 . S
O149 Sc133 2.105 . S
O149 C139 1.268 . S
O150 Sc134 2.105 . S
O150 C141 1.268 . S
O151 Sc132 2.105 . S
O151 C137 1.268 . S
O152 Sc134 2.105 . S
O152 C136 1.268 . S
O153 Sc133 2.105 . S
O153 C138 1.268 . S
Sc154 O157 2.025 . S
Sc154 O164 2.105 . S
Sc154 O167 2.105 . S
Sc154 O170 2.105 . S
Sc154 O173 2.105 . S
Sc155 O157 2.025 . S
Sc155 O165 2.105 . S
Sc155 O169 2.105 . S
Sc155 O171 2.105 . S
Sc155 O175 2.105 . S
Sc156 O157 2.025 . S
Sc156 O166 2.105 . S
Sc156 O168 2.105 . S
Sc156 O172 2.105 . S
Sc156 O174 2.105 . S
O157 Sc154 2.025 . S
O157 Sc155 2.025 . S
O157 Sc156 2.025 . S
C158 O164 1.268 . S
C158 O174 1.268 . S
C159 O165 1.268 . S
C159 O173 1.268 . S
C160 O166 1.268 . S
C160 O175 1.268 . S
C161 O167 1.268 . S
C161 O171 1.268 . S
C162 O168 1.268 . S
C162 O170 1.268 . S
C163 O169 1.268 . S
C163 O172 1.268 . S
O164 Sc154 2.105 . S
O164 C158 1.268 . S
O165 Sc155 2.105 . S
O165 C159 1.268 . S
O166 Sc156 2.105 . S
O166 C160 1.268 . S
O167 Sc154 2.105 . S
O167 C161 1.268 . S
O168 Sc156 2.105 . S
O168 C162 1.268 . S
O169 Sc155 2.105 . S
O169 C163 1.268 . S
O170 Sc154 2.105 . S
O170 C162 1.268 . S
O171 Sc155 2.105 . S
O171 C161 1.268 . S
O172 Sc156 2.105 . S
O172 C163 1.268 . S
O173 Sc154 2.105 . S
O173 C159 1.268 . S
O174 Sc156 2.105 . S
O174 C158 1.268 . S
O175 Sc155 2.105 . S
O175 C160 1.268 . S
Sc176 O179 2.025 1_455 S
Sc176 O186 2.105 . S
Sc176 O189 2.105 . S
Sc176 O192 2.105 . S
Sc176 O195 2.105 1_455 S
Sc177 O179 2.025 . S
Sc177 O187 2.105 . S
Sc177 O191 2.105 . S
Sc177 O193 2.105 . S
Sc177 O197 2.105 . S
Sc178 O179 2.025 . S
Sc178 O188 2.105 . S
Sc178 O190 2.105 1_655 S
Sc178 O194 2.105 . S
Sc178 O196 2.105 . S
O179 Sc176 2.025 1_655 S
O179 Sc177 2.025 . S
O179 Sc178 2.025 . S
C180 O186 1.268 1_655 S
C180 O196 1.268 . S
C181 O187 1.268 . S
C181 O195 1.268 . S
C182 O188 1.268 . S
C182 O197 1.268 . S
C183 O189 1.268 1_655 S
C183 O193 1.268 . S
C184 O190 1.268 . S
C184 O192 1.268 . S
C185 O191 1.268 . S
C185 O194 1.268 . S
O186 Sc176 2.105 . S
O186 C180 1.268 1_455 S
O187 Sc177 2.105 . S
O187 C181 1.268 . S
O188 Sc178 2.105 . S
O188 C182 1.268 . S
O189 Sc176 2.105 . S
O189 C183 1.268 1_455 S
O190 Sc178 2.105 1_455 S
O190 C184 1.268 . S
O191 Sc177 2.105 . S
O191 C185 1.268 . S
O192 Sc176 2.105 . S
O192 C184 1.268 . S
O193 Sc177 2.105 . S
O193 C183 1.268 . S
O194 Sc178 2.105 . S
O194 C185 1.268 . S
O195 Sc176 2.105 1_655 S
O195 C181 1.268 . S
O196 Sc178 2.105 . S
O196 C180 1.268 . S
O197 Sc177 2.105 . S
O197 C182 1.268 . S
Sc198 O201 2.025 . S
Sc198 O208 2.105 1_565 S
Sc198 O211 2.105 . S
Sc198 O214 2.105 . S
Sc198 O217 2.105 . S
Sc199 O201 2.025 . S
Sc199 O209 2.105 . S
Sc199 O213 2.105 . S
Sc199 O215 2.105 . S
Sc199 O219 2.105 . S
Sc200 O201 2.025 1_545 S
Sc200 O210 2.105 . S
Sc200 O212 2.105 . S
Sc200 O216 2.105 1_545 S
Sc200 O218 2.105 . S
O201 Sc198 2.025 . S
O201 Sc199 2.025 . S
O201 Sc200 2.025 1_565 S
C202 O208 1.268 . S
C202 O218 1.268 . S
C203 O209 1.268 . S
C203 O217 1.268 . S
C204 O210 1.268 1_565 S
C204 O219 1.268 . S
C205 O211 1.268 . S
C205 O215 1.268 . S
C206 O212 1.268 1_565 S
C206 O214 1.268 . S
C207 O213 1.268 . S
C207 O216 1.268 . S
O208 Sc198 2.105 1_545 S
O208 C202 1.268 . S
O209 Sc199 2.105 . S
O209 C203 1.268 . S
O210 Sc200 2.105 . S
O210 C204 1.268 1_545 S
O211 Sc198 2.105 . S
O211 C205 1.268 . S
O212 Sc200 2.105 . S
O212 C206 1.268 1_545 S
O213 Sc199 2.105 . S
O213 C207 1.268 . S
O214 Sc198 2.105 . S
O214 C206 1.268 . S
O215 Sc199 2.105 . S
O215 C205 1.268 . S
O216 Sc200 2.105 1_565 S
O216 C207 1.268 . S
O217 Sc198 2.105 . S
O217 C203 1.268 . S
O218 Sc200 2.105 . S
O218 C202 1.268 . S
O219 Sc199 2.105 . S
O219 C204 1.268 . S
Sc220 O223 2.025 . S
Sc220 O230 2.105 . S
Sc220 O233 2.105 . S
Sc220 O236 2.105 . S
Sc220 O239 2.105 . S
Sc221 O223 2.025 . S
Sc221 O231 2.105 . S
Sc221 O235 2.105 . S
Sc221 O237 2.105 . S
Sc221 O241 2.105 . S
Sc222 O223 2.025 . S
Sc222 O232 2.105 . S
Sc222 O234 2.105 . S
Sc222 O238 2.105 . S
Sc222 O240 2.105 . S
O223 Sc220 2.025 . S
O223 Sc221 2.025 . S
O223 Sc222 2.025 . S
C224 O230 1.268 . S
C224 O240 1.268 . S
C225 O231 1.268 . S
C225 O239 1.268 . S
C226 O232 1.268 . S
C226 O241 1.268 . S
C227 O233 1.268 . S
C227 O237 1.268 . S
C228 O234 1.268 . S
C228 O236 1.268 . S
C229 O235 1.268 . S
C229 O238 1.268 . S
O230 Sc220 2.105 . S
O230 C224 1.268 . S
O231 Sc221 2.105 . S
O231 C225 1.268 . S
O232 Sc222 2.105 . S
O232 C226 1.268 . S
O233 Sc220 2.105 . S
O233 C227 1.268 . S
O234 Sc222 2.105 . S
O234 C228 1.268 . S
O235 Sc221 2.105 . S
O235 C229 1.268 . S
O236 Sc220 2.105 . S
O236 C228 1.268 . S
O237 Sc221 2.105 . S
O237 C227 1.268 . S
O238 Sc222 2.105 . S
O238 C229 1.268 . S
O239 Sc220 2.105 . S
O239 C225 1.268 . S
O240 Sc222 2.105 . S
O240 C224 1.268 . S
O241 Sc221 2.105 . S
O241 C226 1.268 . S
Sc242 O245 2.025 . S
Sc242 O252 2.105 . S
Sc242 O255 2.105 . S
Sc242 O258 2.105 . S
Sc242 O261 2.105 . S
Sc243 O245 2.025 . S
Sc243 O253 2.105 . S
Sc243 O257 2.105 . S
Sc243 O259 2.105 . S
Sc243 O263 2.105 . S
Sc244 O245 2.025 . S
Sc244 O254 2.105 . S
Sc244 O256 2.105 . S
Sc244 O260 2.105 . S
Sc244 O262 2.105 . S
O245 Sc242 2.025 . S
O245 Sc243 2.025 . S
O245 Sc244 2.025 . S
C246 O252 1.268 . S
C246 O262 1.268 . S
C247 O253 1.268 . S
C247 O261 1.268 . S
C248 O254 1.268 . S
C248 O263 1.268 . S
C249 O255 1.268 . S
C249 O259 1.268 . S
C250 O256 1.268 . S
C250 O258 1.268 . S
C251 O257 1.268 . S
C251 O260 1.268 . S
O252 Sc242 2.105 . S
O252 C246 1.268 . S
O253 Sc243 2.105 . S
O253 C247 1.268 . S
O254 Sc244 2.105 . S
O254 C248 1.268 . S
O255 Sc242 2.105 . S
O255 C249 1.268 . S
O256 Sc244 2.105 . S
O256 C250 1.268 . S
O257 Sc243 2.105 . S
O257 C251 1.268 . S
O258 Sc242 2.105 . S
O258 C250 1.268 . S
O259 Sc243 2.105 . S
O259 C249 1.268 . S
O260 Sc244 2.105 . S
O260 C251 1.268 . S
O261 Sc242 2.105 . S
O261 C247 1.268 . S
O262 Sc244 2.105 . S
O262 C246 1.268 . S
O263 Sc243 2.105 . S
O263 C248 1.268 . S
Sc264 O267 2.025 . S
Sc264 O274 2.105 1_655 S
Sc264 O277 2.105 . S
Sc264 O280 2.105 . S
Sc264 O283 2.105 . S
Sc265 O267 2.025 . S
Sc265 O275 2.105 . S
Sc265 O279 2.105 . S
Sc265 O281 2.105 . S
Sc265 O285 2.105 . S
Sc266 O267 2.025 1_455 S
Sc266 O276 2.105 . S
Sc266 O278 2.105 . S
Sc266 O282 2.105 1_455 S
Sc266 O284 2.105 . S
O267 Sc264 2.025 . S
O267 Sc265 2.025 . S
O267 Sc266 2.025 1_655 S
C268 O274 1.268 . S
C268 O284 1.268 . S
C269 O275 1.268 . S
C269 O283 1.268 . S
C270 O276 1.268 1_655 S
C270 O285 1.268 . S
C271 O277 1.268 . S
C271 O281 1.268 . S
C272 O278 1.268 1_655 S
C272 O280 1.268 . S
C273 O279 1.268 . S
C273 O282 1.268 . S
O274 Sc264 2.105 1_455 S
O274 C268 1.268 . S
O275 Sc265 2.105 . S
O275 C269 1.268 . S
O276 Sc266 2.105 . S
O276 C270 1.268 1_455 S
O277 Sc264 2.105 . S
O277 C271 1.268 . S
O278 Sc266 2.105 . S
O278 C272 1.268 1_455 S
O279 Sc265 2.105 . S
O279 C273 1.268 . S
O280 Sc264 2.105 . S
O280 C272 1.268 . S
O281 Sc265 2.105 . S
O281 C271 1.268 . S
O282 Sc266 2.105 1_655 S
O282 C273 1.268 . S
O283 Sc264 2.105 . S
O283 C269 1.268 . S
O284 Sc266 2.105 . S
O284 C268 1.268 . S
O285 Sc265 2.105 . S
O285 C270 1.268 . S
Sc286 O289 2.025 . S
Sc286 O296 2.105 1_565 S
Sc286 O299 2.105 . S
Sc286 O302 2.105 . S
Sc286 O305 2.105 . S
Sc287 O289 2.025 . S
Sc287 O297 2.105 . S
Sc287 O301 2.105 . S
Sc287 O303 2.105 . S
Sc287 O307 2.105 . S
Sc288 O289 2.025 1_545 S
Sc288 O298 2.105 . S
Sc288 O300 2.105 . S
Sc288 O304 2.105 1_545 S
Sc288 O306 2.105 . S
O289 Sc286 2.025 . S
O289 Sc287 2.025 . S
O289 Sc288 2.025 1_565 S
C290 O296 1.268 . S
C290 O306 1.268 . S
C291 O297 1.268 . S
C291 O305 1.268 . S
C292 O298 1.268 1_565 S
C292 O307 1.268 . S
C293 O299 1.268 . S
C293 O303 1.268 . S
C294 O300 1.268 1_565 S
C294 O302 1.268 . S
C295 O301 1.268 . S
C295 O304 1.268 . S
O296 Sc286 2.105 1_545 S
O296 C290 1.268 . S
O297 Sc287 2.105 . S
O297 C291 1.268 . S
O298 Sc288 2.105 . S
O298 C292 1.268 1_545 S
O299 Sc286 2.105 . S
O299 C293 1.268 . S
O300 Sc288 2.105 . S
O300 C294 1.268 1_545 S
O301 Sc287 2.105 . S
O301 C295 1.268 . S
O302 Sc286 2.105 . S
O302 C294 1.268 . S
O303 Sc287 2.105 . S
O303 C293 1.268 . S
O304 Sc288 2.105 1_565 S
O304 C295 1.268 . S
O305 Sc286 2.105 . S
O305 C291 1.268 . S
O306 Sc288 2.105 . S
O306 C290 1.268 . S
O307 Sc287 2.105 . S
O307 C292 1.268 . S
Sc308 O311 2.025 . S
Sc308 O318 2.105 . S
Sc308 O321 2.105 . S
Sc308 O324 2.105 . S
Sc308 O327 2.105 . S
Sc309 O311 2.025 . S
Sc309 O319 2.105 . S
Sc309 O323 2.105 . S
Sc309 O325 2.105 . S
Sc309 O329 2.105 . S
Sc310 O311 2.025 . S
Sc310 O320 2.105 . S
Sc310 O322 2.105 . S
Sc310 O326 2.105 . S
Sc310 O328 2.105 . S
O311 Sc308 2.025 . S
O311 Sc309 2.025 . S
O311 Sc310 2.025 . S
C312 O318 1.268 . S
C312 O328 1.268 . S
C313 O319 1.268 . S
C313 O327 1.268 . S
C314 O320 1.268 . S
C314 O329 1.268 . S
C315 O321 1.268 . S
C315 O325 1.268 . S
C316 O322 1.268 . S
C316 O324 1.268 . S
C317 O323 1.268 . S
C317 O326 1.268 . S
O318 Sc308 2.105 . S
O318 C312 1.268 . S
O319 Sc309 2.105 . S
O319 C313 1.268 . S
O320 Sc310 2.105 . S
O320 C314 1.268 . S
O321 Sc308 2.105 . S
O321 C315 1.268 . S
O322 Sc310 2.105 . S
O322 C316 1.268 . S
O323 Sc309 2.105 . S
O323 C317 1.268 . S
O324 Sc308 2.105 . S
O324 C316 1.268 . S
O325 Sc309 2.105 . S
O325 C315 1.268 . S
O326 Sc310 2.105 . S
O326 C317 1.268 . S
O327 Sc308 2.105 . S
O327 C313 1.268 . S
O328 Sc310 2.105 . S
O328 C312 1.268 . S
O329 Sc309 2.105 . S
O329 C314 1.268 . S
Sc330 O333 2.025 . S
Sc330 O340 2.105 . S
Sc330 O343 2.105 . S
Sc330 O346 2.105 . S
Sc330 O349 2.105 . S
Sc331 O333 2.025 . S
Sc331 O341 2.105 . S
Sc331 O345 2.105 . S
Sc331 O347 2.105 . S
Sc331 O351 2.105 . S
Sc332 O333 2.025 . S
Sc332 O342 2.105 . S
Sc332 O344 2.105 . S
Sc332 O348 2.105 . S
Sc332 O350 2.105 . S
O333 Sc330 2.025 . S
O333 Sc331 2.025 . S
O333 Sc332 2.025 . S
C334 O340 1.268 . S
C334 O350 1.268 . S
C335 O341 1.268 . S
C335 O349 1.268 . S
C336 O342 1.268 . S
C336 O351 1.268 . S
C337 O343 1.268 . S
C337 O347 1.268 . S
C338 O344 1.268 . S
C338 O346 1.268 . S
C339 O345 1.268 . S
C339 O348 1.268 . S
O340 Sc330 2.105 . S
O340 C334 1.268 . S
O341 Sc331 2.105 . S
O341 C335 1.268 . S
O342 Sc332 2.105 . S
O342 C336 1.268 . S
O343 Sc330 2.105 . S
O343 C337 1.268 . S
O344 Sc332 2.105 . S
O344 C338 1.268 . S
O345 Sc331 2.105 . S
O345 C339 1.268 . S
O346 Sc330 2.105 . S
O346 C338 1.268 . S
O347 Sc331 2.105 . S
O347 C337 1.268 . S
O348 Sc332 2.105 . S
O348 C339 1.268 . S
O349 Sc330 2.105 . S
O349 C335 1.268 . S
O350 Sc332 2.105 . S
O350 C334 1.268 . S
O351 Sc331 2.105 . S
O351 C336 1.268 . S
C352 C353 1.391 . S
C352 C354 1.394 . S
C352 H368 0.931 . S
C353 C352 1.391 . S
C353 C357 1.376 . S
C354 C352 1.394 . S
C354 C355 1.369 . S
C354 C358 1.531 . S
C355 C354 1.369 . S
C355 C356 1.410 . S
C355 C363 1.503 . S
C356 C355 1.410 . S
C356 C357 1.392 . S
C356 C359 1.511 . S
C357 C353 1.376 . S
C357 C356 1.392 . S
C357 H369 0.929 . S
C358 C354 1.531 . S
C358 H370 0.960 . S
C358 H371 0.962 . S
C358 H372 0.960 . S
C359 C356 1.511 . S
C359 H373 0.961 . S
C359 H374 0.961 . S
C359 H375 0.961 . S
C360 C361 1.370 . S
C360 C362 1.363 . S
C360 H376 0.931 . S
C361 C360 1.370 . S
C361 C365 1.408 . S
C362 C360 1.363 . S
C362 C363 1.370 . S
C362 C366 1.524 . S
C363 C355 1.503 . S
C363 C362 1.370 . S
C363 C364 1.403 . S
C364 C363 1.403 . S
C364 C365 1.404 . S
C364 C367 1.539 . S
C365 C361 1.408 . S
C365 C364 1.404 . S
C365 H377 0.930 . S
C366 C362 1.524 . S
C366 H378 0.956 . S
C366 H379 0.961 . S
C366 H380 0.961 . S
C367 C364 1.539 . S
C367 H381 0.958 . S
C367 H382 0.961 . S
C367 H383 0.960 . S
H368 C352 0.931 . S
H369 C357 0.929 . S
H370 C358 0.960 . S
H371 C358 0.962 . S
H372 C358 0.960 . S
H373 C359 0.961 . S
H374 C359 0.961 . S
H375 C359 0.961 . S
H376 C360 0.931 . S
H377 C365 0.930 . S
H378 C366 0.956 . S
H379 C366 0.961 . S
H380 C366 0.961 . S
H381 C367 0.958 . S
H382 C367 0.961 . S
H383 C367 0.960 . S
C384 C385 1.391 . S
C384 C386 1.394 . S
C384 H400 0.931 . S
C385 C384 1.391 . S
C385 C389 1.376 . S
C386 C384 1.394 . S
C386 C387 1.369 . S
C386 C390 1.531 . S
C387 C386 1.369 . S
C387 C388 1.410 . S
C387 C395 1.503 . S
C388 C387 1.410 . S
C388 C389 1.392 . S
C388 C391 1.511 . S
C389 C385 1.376 . S
C389 C388 1.392 . S
C389 H401 0.929 1_655 S
C390 C386 1.531 . S
C390 H402 0.960 . S
C390 H403 0.962 . S
C390 H404 0.960 . S
C391 C388 1.511 . S
C391 H405 0.961 . S
C391 H406 0.961 . S
C391 H407 0.961 1_655 S
C392 C393 1.370 . S
C392 C394 1.363 . S
C392 H408 0.931 . S
C393 C392 1.370 . S
C393 C397 1.408 . S
C394 C392 1.363 . S
C394 C395 1.370 . S
C394 C398 1.524 . S
C395 C387 1.503 . S
C395 C394 1.370 . S
C395 C396 1.403 . S
C396 C395 1.403 . S
C396 C397 1.404 . S
C396 C399 1.539 . S
C397 C393 1.408 . S
C397 C396 1.404 . S
C397 H409 0.930 . S
C398 C394 1.524 . S
C398 H410 0.956 . S
C398 H411 0.961 . S
C398 H412 0.961 . S
C399 C396 1.539 . S
C399 H413 0.958 . S
C399 H414 0.961 . S
C399 H415 0.974 . S
H400 C384 0.931 . S
H401 C389 0.929 1_455 S
H402 C390 0.960 . S
H403 C390 0.962 . S
H404 C390 0.960 . S
H405 C391 0.961 . S
H406 C391 0.961 . S
H407 C391 0.961 1_455 S
H408 C392 0.931 . S
H409 C397 0.930 . S
H410 C398 0.956 . S
H411 C398 0.961 . S
H412 C398 0.961 . S
H413 C399 0.958 . S
H414 C399 0.961 . S
H415 C399 0.974 . S
C416 C417 1.391 . S
C416 C418 1.394 . S
C416 H432 0.931 . S
C417 C416 1.391 . S
C417 C421 1.376 . S
C418 C416 1.394 . S
C418 C419 1.369 . S
C418 C422 1.531 . S
C419 C418 1.369 . S
C419 C420 1.410 . S
C419 C427 1.503 . S
C420 C419 1.410 . S
C420 C421 1.392 . S
C420 C423 1.511 . S
C421 C417 1.376 . S
C421 C420 1.392 . S
C421 H433 0.929 . S
C422 C418 1.531 . S
C422 H434 0.960 . S
C422 H435 0.962 . S
C422 H436 0.960 . S
C423 C420 1.511 . S
C423 H437 0.961 . S
C423 H438 0.961 . S
C423 H439 0.961 . S
C424 C425 1.370 1_545 S
C424 C426 1.363 1_545 S
C424 H440 0.931 . S
C425 C424 1.370 1_565 S
C425 C429 1.408 . S
C426 C424 1.363 1_565 S
C426 C427 1.370 . S
C426 C430 1.524 . S
C427 C419 1.503 . S
C427 C426 1.370 . S
C427 C428 1.403 . S
C428 C427 1.403 . S
C428 C429 1.404 . S
C428 C431 1.539 . S
C429 C425 1.408 . S
C429 C428 1.404 . S
C429 H441 0.930 . S
C430 C426 1.524 . S
C430 H442 0.956 . S
C430 H443 0.961 . S
C430 H444 0.961 1_565 S
C431 C428 1.539 . S
C431 H445 0.958 . S
C431 H446 0.961 . S
C431 H447 0.960 . S
H432 C416 0.931 . S
H433 C421 0.929 . S
H434 C422 0.960 . S
H435 C422 0.962 . S
H436 C422 0.960 . S
H437 C423 0.961 . S
H438 C423 0.961 . S
H439 C423 0.961 . S
H440 C424 0.931 . S
H441 C429 0.930 . S
H442 C430 0.956 . S
H443 C430 0.961 . S
H444 C430 0.961 1_545 S
H445 C431 0.958 . S
H446 C431 0.961 . S
H447 C431 0.960 . S
C448 C449 1.391 . S
C448 C450 1.394 . S
C448 H464 0.931 . S
C449 C448 1.391 . S
C449 C453 1.376 . S
C450 C448 1.394 . S
C450 C451 1.369 . S
C450 C454 1.531 . S
C451 C450 1.369 . S
C451 C452 1.410 . S
C451 C459 1.503 . S
C452 C451 1.410 . S
C452 C453 1.392 . S
C452 C455 1.511 . S
C453 C449 1.376 . S
C453 C452 1.392 . S
C453 H465 0.929 . S
C454 C450 1.531 . S
C454 H466 0.960 . S
C454 H467 0.962 . S
C454 H468 0.960 . S
C455 C452 1.511 . S
C455 H469 0.961 . S
C455 H470 0.961 . S
C455 H471 0.961 . S
C456 C457 1.370 . S
C456 C458 1.363 . S
C456 H472 0.931 . S
C457 C456 1.370 . S
C457 C461 1.408 . S
C458 C456 1.363 . S
C458 C459 1.370 . S
C458 C462 1.524 . S
C459 C451 1.503 . S
C459 C458 1.370 . S
C459 C460 1.403 . S
C460 C459 1.403 . S
C460 C461 1.404 . S
C460 C463 1.539 . S
C461 C457 1.408 . S
C461 C460 1.404 . S
C461 H473 0.930 . S
C462 C458 1.524 . S
C462 H474 0.956 . S
C462 H475 0.961 . S
C462 H476 0.961 . S
C463 C460 1.539 . S
C463 H477 0.958 . S
C463 H478 0.961 . S
C463 H479 0.960 . S
H464 C448 0.931 . S
H465 C453 0.929 . S
H466 C454 0.960 . S
H467 C454 0.962 . S
H468 C454 0.960 . S
H469 C455 0.961 . S
H470 C455 0.961 . S
H471 C455 0.961 . S
H472 C456 0.931 . S
H473 C461 0.930 . S
H474 C462 0.956 . S
H475 C462 0.961 . S
H476 C462 0.961 . S
H477 C463 0.958 . S
H478 C463 0.961 . S
H479 C463 0.960 . S
C480 C481 1.391 . S
C480 C482 1.394 . S
C480 H496 0.931 . S
C481 C480 1.391 . S
C481 C485 1.376 . S
C482 C480 1.394 . S
C482 C483 1.369 . S
C482 C486 1.531 . S
C483 C482 1.369 . S
C483 C484 1.410 . S
C483 C491 1.503 . S
C484 C483 1.410 . S
C484 C485 1.392 . S
C484 C487 1.511 . S
C485 C481 1.376 . S
C485 C484 1.392 . S
C485 H497 0.929 . S
C486 C482 1.531 . S
C486 H498 0.960 . S
C486 H499 0.962 . S
C486 H500 0.960 . S
C487 C484 1.511 . S
C487 H501 0.961 . S
C487 H502 0.961 . S
C487 H503 0.961 . S
C488 C489 1.370 . S
C488 C490 1.363 . S
C488 H504 0.931 . S
C489 C488 1.370 . S
C489 C493 1.408 1_565 S
C490 C488 1.363 . S
C490 C491 1.370 . S
C490 C494 1.524 . S
C491 C483 1.503 . S
C491 C490 1.370 . S
C491 C492 1.403 . S
C492 C491 1.403 . S
C492 C493 1.404 1_565 S
C492 C495 1.539 1_565 S
C493 C489 1.408 1_545 S
C493 C492 1.404 1_545 S
C493 H505 0.930 . S
C494 C490 1.524 . S
C494 H506 0.956 . S
C494 H507 0.961 . S
C494 H508 0.961 . S
C495 C492 1.539 1_545 S
C495 H509 0.958 . S
C495 H510 0.961 . S
C495 H511 0.951 1_545 S
H496 C480 0.931 . S
H497 C485 0.929 . S
H498 C486 0.960 . S
H499 C486 0.962 . S
H500 C486 0.960 . S
H501 C487 0.961 . S
H502 C487 0.961 . S
H503 C487 0.961 . S
H504 C488 0.931 . S
H505 C493 0.930 . S
H506 C494 0.956 . S
H507 C494 0.961 . S
H508 C494 0.961 . S
H509 C495 0.958 . S
H510 C495 0.961 . S
H511 C495 0.951 1_565 S
C512 C513 1.391 . S
C512 C514 1.394 . S
C512 H528 0.931 . S
C513 C512 1.391 . S
C513 C517 1.376 . S
C514 C512 1.394 . S
C514 C515 1.369 . S
C514 C518 1.531 . S
C515 C514 1.369 . S
C515 C516 1.410 . S
C515 C523 1.503 . S
C516 C515 1.410 . S
C516 C517 1.392 . S
C516 C519 1.511 . S
C517 C513 1.376 . S
C517 C516 1.392 . S
C517 H529 0.929 . S
C518 C514 1.531 . S
C518 H530 0.960 . S
C518 H531 0.962 . S
C518 H532 0.960 . S
C519 C516 1.511 . S
C519 H533 0.961 . S
C519 H534 0.961 . S
C519 H535 0.961 . S
C520 C521 1.370 . S
C520 C522 1.363 . S
C520 H536 0.931 . S
C521 C520 1.370 . S
C521 C525 1.408 . S
C522 C520 1.363 . S
C522 C523 1.370 . S
C522 C526 1.524 . S
C523 C515 1.503 . S
C523 C522 1.370 . S
C523 C524 1.403 . S
C524 C523 1.403 . S
C524 C525 1.404 . S
C524 C527 1.539 . S
C525 C521 1.408 . S
C525 C524 1.404 . S
C525 H537 0.930 . S
C526 C522 1.524 . S
C526 H538 0.956 . S
C526 H539 0.961 . S
C526 H540 0.961 . S
C527 C524 1.539 . S
C527 H541 0.958 . S
C527 H542 0.961 . S
C527 H543 0.960 . S
H528 C512 0.931 . S
H529 C517 0.929 . S
H530 C518 0.960 . S
H531 C518 0.962 . S
H532 C518 0.960 . S
H533 C519 0.961 . S
H534 C519 0.961 . S
H535 C519 0.961 . S
H536 C520 0.931 . S
H537 C525 0.930 . S
H538 C526 0.956 . S
H539 C526 0.961 . S
H540 C526 0.961 . S
H541 C527 0.958 . S
H542 C527 0.961 . S
H543 C527 0.960 . S
C544 C545 1.391 . S
C544 C546 1.394 . S
C544 H560 0.931 . S
C545 C544 1.391 . S
C545 C549 1.376 . S
C546 C544 1.394 . S
C546 C547 1.369 . S
C546 C550 1.531 . S
C547 C546 1.369 . S
C547 C548 1.410 . S
C547 C555 1.503 . S
C548 C547 1.410 . S
C548 C549 1.392 . S
C548 C551 1.511 . S
C549 C545 1.376 . S
C549 C548 1.392 . S
C549 H561 0.929 . S
C550 C546 1.531 . S
C550 H562 0.960 . S
C550 H563 0.962 . S
C550 H564 0.960 . S
C551 C548 1.511 . S
C551 H565 0.961 . S
C551 H566 0.961 . S
C551 H567 0.961 . S
C552 C553 1.370 . S
C552 C554 1.363 . S
C552 H568 0.931 . S
C553 C552 1.370 . S
C553 C557 1.408 . S
C554 C552 1.363 . S
C554 C555 1.370 . S
C554 C558 1.524 . S
C555 C547 1.503 . S
C555 C554 1.370 . S
C555 C556 1.403 . S
C556 C555 1.403 . S
C556 C557 1.404 . S
C556 C559 1.539 . S
C557 C553 1.408 . S
C557 C556 1.404 . S
C557 H569 0.930 . S
C558 C554 1.524 . S
C558 H570 0.956 . S
C558 H571 0.961 . S
C558 H572 0.961 . S
C559 C556 1.539 . S
C559 H573 0.958 . S
C559 H574 0.961 . S
C559 H575 0.960 . S
H560 C544 0.931 . S
H561 C549 0.929 . S
H562 C550 0.960 . S
H563 C550 0.962 . S
H564 C550 0.960 . S
H565 C551 0.961 . S
H566 C551 0.961 . S
H567 C551 0.961 . S
H568 C552 0.931 . S
H569 C557 0.930 . S
H570 C558 0.956 . S
H571 C558 0.961 . S
H572 C558 0.961 . S
H573 C559 0.958 . S
H574 C559 0.961 . S
H575 C559 0.960 . S
C576 C577 1.391 . S
C576 C578 1.394 . S
C576 H592 0.931 1_655 S
C577 C576 1.391 . S
C577 C581 1.376 . S
C578 C576 1.394 . S
C578 C579 1.369 . S
C578 C582 1.531 . S
C579 C578 1.369 . S
C579 C580 1.410 . S
C579 C587 1.503 . S
C580 C579 1.410 . S
C580 C581 1.392 . S
C580 C583 1.511 . S
C581 C577 1.376 . S
C581 C580 1.392 . S
C581 H593 0.929 . S
C582 C578 1.531 . S
C582 H594 0.960 . S
C582 H595 0.962 . S
C582 H596 0.960 1_655 S
C583 C580 1.511 . S
C583 H597 0.961 . S
C583 H598 0.961 . S
C583 H599 0.961 . S
C584 C585 1.370 . S
C584 C586 1.363 . S
C584 H600 0.931 . S
C585 C584 1.370 . S
C585 C589 1.408 . S
C586 C584 1.363 . S
C586 C587 1.370 . S
C586 C590 1.524 . S
C587 C579 1.503 . S
C587 C586 1.370 . S
C587 C588 1.403 . S
C588 C587 1.403 . S
C588 C589 1.404 . S
C588 C591 1.539 . S
C589 C585 1.408 . S
C589 C588 1.404 . S
C589 H601 0.930 . S
C590 C586 1.524 . S
C590 H602 0.956 . S
C590 H603 0.961 . S
C590 H604 0.961 . S
C591 C588 1.539 . S
C591 H605 0.956 . S
C591 H606 0.961 . S
C591 H607 0.960 . S
H592 C576 0.931 1_455 S
H593 C581 0.929 . S
H594 C582 0.960 . S
H595 C582 0.962 . S
H596 C582 0.960 1_455 S
H597 C583 0.961 . S
H598 C583 0.961 . S
H599 C583 0.961 . S
H600 C584 0.931 . S
H601 C589 0.930 . S
H602 C590 0.956 . S
H603 C590 0.961 . S
H604 C590 0.961 . S
H605 C591 0.956 . S
H606 C591 0.961 . S
H607 C591 0.960 . S
C608 C609 1.391 . S
C608 C610 1.394 . S
C608 H624 0.931 . S
C609 C608 1.391 . S
C609 C613 1.376 . S
C610 C608 1.394 . S
C610 C611 1.369 . S
C610 C614 1.531 . S
C611 C610 1.369 . S
C611 C612 1.410 . S
C611 C619 1.503 . S
C612 C611 1.410 . S
C612 C613 1.392 . S
C612 C615 1.511 . S
C613 C609 1.376 . S
C613 C612 1.392 . S
C613 H625 0.929 . S
C614 C610 1.531 . S
C614 H626 0.960 . S
C614 H627 0.962 . S
C614 H628 0.960 . S
C615 C612 1.511 . S
C615 H629 0.961 . S
C615 H630 0.961 . S
C615 H631 0.961 . S
C616 C617 1.370 . S
C616 C618 1.363 . S
C616 H632 0.931 . S
C617 C616 1.370 . S
C617 C621 1.408 . S
C618 C616 1.363 . S
C618 C619 1.370 . S
C618 C622 1.524 . S
C619 C611 1.503 . S
C619 C618 1.370 . S
C619 C620 1.403 . S
C620 C619 1.403 . S
C620 C621 1.404 . S
C620 C623 1.539 . S
C621 C617 1.408 . S
C621 C620 1.404 . S
C621 H633 0.930 . S
C622 C618 1.524 . S
C622 H634 0.956 . S
C622 H635 0.961 . S
C622 H636 0.961 . S
C623 C620 1.539 . S
C623 H637 0.958 . S
C623 H638 0.961 . S
C623 H639 0.960 . S
H624 C608 0.931 . S
H625 C613 0.929 . S
H626 C614 0.960 . S
H627 C614 0.962 . S
H628 C614 0.960 . S
H629 C615 0.961 . S
H630 C615 0.961 . S
H631 C615 0.961 . S
H632 C616 0.931 . S
H633 C621 0.930 . S
H634 C622 0.956 . S
H635 C622 0.961 . S
H636 C622 0.961 . S
H637 C623 0.958 . S
H638 C623 0.961 . S
H639 C623 0.960 . S
C640 C641 1.391 1_655 S
C640 C642 1.394 1_655 S
C640 H656 0.931 . S
C641 C640 1.391 1_455 S
C641 C645 1.376 . S
C642 C640 1.394 1_455 S
C642 C643 1.369 . S
C642 C646 1.531 . S
C643 C642 1.369 . S
C643 C644 1.410 . S
C643 C651 1.503 . S
C644 C643 1.410 . S
C644 C645 1.392 . S
C644 C647 1.511 . S
C645 C641 1.376 . S
C645 C644 1.392 . S
C645 H657 0.929 . S
C646 C642 1.531 . S
C646 H658 0.960 . S
C646 H659 0.962 1_455 S
C646 H660 0.960 1_455 S
C647 C644 1.511 . S
C647 H661 0.961 . S
C647 H662 0.961 . S
C647 H663 0.961 . S
C648 C649 1.370 . S
C648 C650 1.363 . S
C648 H664 0.931 . S
C649 C648 1.370 . S
C649 C653 1.408 . S
C650 C648 1.363 . S
C650 C651 1.370 . S
C650 C654 1.524 . S
C651 C643 1.503 . S
C651 C650 1.370 . S
C651 C652 1.403 . S
C652 C651 1.403 . S
C652 C653 1.404 . S
C652 C655 1.539 . S
C653 C649 1.408 . S
C653 C652 1.404 . S
C653 H665 0.930 . S
C654 C650 1.524 . S
C654 H666 0.956 . S
C654 H667 0.961 . S
C654 H668 0.961 . S
C655 C652 1.539 . S
C655 H669 0.958 . S
C655 H670 0.961 . S
C655 H671 0.960 . S
H656 C640 0.931 . S
H657 C645 0.929 . S
H658 C646 0.960 . S
H659 C646 0.962 1_655 S
H660 C646 0.960 1_655 S
H661 C647 0.961 . S
H662 C647 0.961 . S
H663 C647 0.961 . S
H664 C648 0.931 . S
H665 C653 0.930 . S
H666 C654 0.956 . S
H667 C654 0.961 . S
H668 C654 0.961 . S
H669 C655 0.958 . S
H670 C655 0.961 . S
H671 C655 0.960 . S
C672 C673 1.391 . S
C672 C674 1.394 . S
C672 H688 0.931 . S
C673 C672 1.391 . S
C673 C677 1.376 . S
C674 C672 1.394 . S
C674 C675 1.369 . S
C674 C678 1.531 . S
C675 C674 1.369 . S
C675 C676 1.410 . S
C675 C683 1.503 . S
C676 C675 1.410 . S
C676 C677 1.392 . S
C676 C679 1.511 . S
C677 C673 1.376 . S
C677 C676 1.392 . S
C677 H689 0.929 1_545 S
C678 C674 1.531 . S
C678 H690 0.960 . S
C678 H691 0.962 . S
C678 H692 0.960 . S
C679 C676 1.511 . S
C679 H693 0.961 . S
C679 H694 0.961 . S
C679 H695 0.961 . S
C680 C681 1.370 . S
C680 C682 1.363 . S
C680 H696 0.931 . S
C681 C680 1.370 . S
C681 C685 1.408 . S
C682 C680 1.363 . S
C682 C683 1.370 . S
C682 C686 1.524 . S
C683 C675 1.503 . S
C683 C682 1.370 . S
C683 C684 1.403 . S
C684 C683 1.403 . S
C684 C685 1.404 . S
C684 C687 1.539 . S
C685 C681 1.408 . S
C685 C684 1.404 . S
C685 H697 0.930 . S
C686 C682 1.524 . S
C686 H698 0.956 . S
C686 H699 0.961 . S
C686 H700 0.961 . S
C687 C684 1.539 . S
C687 H701 0.958 . S
C687 H702 0.961 . S
C687 H703 0.960 1_545 S
H688 C672 0.931 . S
H689 C677 0.929 1_565 S
H690 C678 0.960 . S
H691 C678 0.962 . S
H692 C678 0.960 . S
H693 C679 0.961 . S
H694 C679 0.961 . S
H695 C679 0.961 . S
H696 C680 0.931 . S
H697 C685 0.930 . S
H698 C686 0.956 . S
H699 C686 0.961 . S
H700 C686 0.961 . S
H701 C687 0.958 . S
H702 C687 0.961 . S
H703 C687 0.960 1_565 S
C704 C705 1.391 . S
C704 C706 1.394 . S
C704 H720 0.931 . S
C705 C704 1.391 . S
C705 C709 1.376 . S
C706 C704 1.394 . S
C706 C707 1.369 . S
C706 C710 1.531 . S
C707 C706 1.369 . S
C707 C708 1.410 . S
C707 C715 1.503 . S
C708 C707 1.410 . S
C708 C709 1.392 . S
C708 C711 1.511 . S
C709 C705 1.376 . S
C709 C708 1.392 . S
C709 H721 0.929 . S
C710 C706 1.531 . S
C710 H722 0.960 . S
C710 H723 0.962 . S
C710 H724 0.960 . S
C711 C708 1.511 . S
C711 H725 0.961 . S
C711 H726 0.961 . S
C711 H727 0.961 . S
C712 C713 1.370 . S
C712 C714 1.363 . S
C712 H728 0.931 . S
C713 C712 1.370 . S
C713 C717 1.408 . S
C714 C712 1.363 . S
C714 C715 1.370 . S
C714 C718 1.524 . S
C715 C707 1.503 . S
C715 C714 1.370 . S
C715 C716 1.403 . S
C716 C715 1.403 . S
C716 C717 1.404 . S
C716 C719 1.539 . S
C717 C713 1.408 . S
C717 C716 1.404 . S
C717 H729 0.930 . S
C718 C714 1.524 . S
C718 H730 0.956 . S
C718 H731 0.961 . S
C718 H732 0.961 . S
C719 C716 1.539 . S
C719 H733 0.958 . S
C719 H734 0.961 . S
C719 H735 0.960 . S
H720 C704 0.931 . S
H721 C709 0.929 . S
H722 C710 0.960 . S
H723 C710 0.962 . S
H724 C710 0.960 . S
H725 C711 0.961 . S
H726 C711 0.961 . S
H727 C711 0.961 . S
H728 C712 0.931 . S
H729 C717 0.930 . S
H730 C718 0.956 . S
H731 C718 0.961 . S
H732 C718 0.961 . S
H733 C719 0.958 . S
H734 C719 0.961 . S
H735 C719 0.960 . S
C736 C737 1.391 . S
C736 C738 1.394 . S
C736 H752 0.931 . S
C737 C736 1.391 . S
C737 C741 1.376 . S
C738 C736 1.394 . S
C738 C739 1.369 . S
C738 C742 1.531 . S
C739 C738 1.369 . S
C739 C740 1.410 . S
C739 C747 1.503 . S
C740 C739 1.410 . S
C740 C741 1.392 . S
C740 C743 1.511 . S
C741 C737 1.376 . S
C741 C740 1.392 . S
C741 H753 0.929 . S
C742 C738 1.531 . S
C742 H754 0.960 . S
C742 H755 0.962 . S
C742 H756 0.960 . S
C743 C740 1.511 . S
C743 H757 0.961 . S
C743 H758 0.961 . S
C743 H759 0.961 . S
C744 C745 1.371 . S
C744 C746 1.366 . S
C744 H760 0.927 1_545 S
C745 C744 1.371 . S
C745 C749 1.408 . S
C746 C744 1.366 . S
C746 C747 1.370 . S
C746 C750 1.524 . S
C747 C739 1.503 . S
C747 C746 1.370 . S
C747 C748 1.403 . S
C748 C747 1.403 . S
C748 C749 1.404 . S
C748 C751 1.539 . S
C749 C745 1.408 . S
C749 C748 1.404 . S
C749 H761 0.930 . S
C750 C746 1.524 . S
C750 H762 0.956 . S
C750 H763 0.961 . S
C750 H764 0.961 1_545 S
C751 C748 1.539 . S
C751 H765 0.958 . S
C751 H766 0.961 . S
C751 H767 0.960 . S
H752 C736 0.931 . S
H753 C741 0.929 . S
H754 C742 0.960 . S
H755 C742 0.962 . S
H756 C742 0.960 . S
H757 C743 0.961 . S
H758 C743 0.961 . S
H759 C743 0.961 . S
H760 C744 0.927 1_565 S
H761 C749 0.930 . S
H762 C750 0.956 . S
H763 C750 0.961 . S
H764 C750 0.961 1_565 S
H765 C751 0.958 . S
H766 C751 0.961 . S
H767 C751 0.960 . S
C768 C769 1.391 . S
C768 C770 1.394 . S
C768 H784 0.931 . S
C769 C768 1.391 . S
C769 C773 1.376 . S
C770 C768 1.394 . S
C770 C771 1.369 . S
C770 C774 1.531 . S
C771 C770 1.369 . S
C771 C772 1.410 . S
C771 C779 1.503 . S
C772 C771 1.410 . S
C772 C773 1.392 . S
C772 C775 1.511 . S
C773 C769 1.376 . S
C773 C772 1.392 . S
C773 H785 0.929 . S
C774 C770 1.531 . S
C774 H786 0.960 . S
C774 H787 0.962 . S
C774 H788 0.960 . S
C775 C772 1.511 . S
C775 H789 0.961 . S
C775 H790 0.961 . S
C775 H791 0.961 . S
C776 C777 1.370 . S
C776 C778 1.363 . S
C776 H792 0.931 . S
C777 C776 1.370 . S
C777 C781 1.408 . S
C778 C776 1.363 . S
C778 C779 1.370 . S
C778 C782 1.524 . S
C779 C771 1.503 . S
C779 C778 1.370 . S
C779 C780 1.403 . S
C780 C779 1.403 . S
C780 C781 1.404 . S
C780 C783 1.539 . S
C781 C777 1.408 . S
C781 C780 1.404 . S
C781 H793 0.930 . S
C782 C778 1.524 . S
C782 H794 0.956 . S
C782 H795 0.961 . S
C782 H796 0.961 . S
C783 C780 1.539 . S
C783 H797 0.958 . S
C783 H798 0.961 . S
C783 H799 0.960 . S
H784 C768 0.931 . S
H785 C773 0.929 . S
H786 C774 0.960 . S
H787 C774 0.962 . S
H788 C774 0.960 . S
H789 C775 0.961 . S
H790 C775 0.961 . S
H791 C775 0.961 . S
H792 C776 0.931 . S
H793 C781 0.930 . S
H794 C782 0.956 . S
H795 C782 0.961 . S
H796 C782 0.961 . S
H797 C783 0.958 . S
H798 C783 0.961 . S
H799 C783 0.960 . S
C800 C801 1.391 . S
C800 C802 1.394 . S
C800 H816 0.931 . S
C801 C800 1.391 . S
C801 C805 1.376 . S
C802 C800 1.394 . S
C802 C803 1.369 . S
C802 C806 1.531 . S
C803 C802 1.369 . S
C803 C804 1.410 . S
C803 C811 1.503 . S
C804 C803 1.410 . S
C804 C805 1.392 . S
C804 C807 1.511 . S
C805 C801 1.376 . S
C805 C804 1.392 . S
C805 H817 0.929 . S
C806 C802 1.531 . S
C806 H818 0.960 . S
C806 H819 0.962 . S
C806 H820 0.960 . S
C807 C804 1.511 . S
C807 H821 0.961 . S
C807 H822 0.961 . S
C807 H823 0.961 . S
C808 C809 1.370 . S
C808 C810 1.363 . S
C808 H824 0.931 . S
C809 C808 1.370 . S
C809 C813 1.408 . S
C810 C808 1.363 . S
C810 C811 1.370 . S
C810 C814 1.524 . S
C811 C803 1.503 . S
C811 C810 1.370 . S
C811 C812 1.403 . S
C812 C811 1.403 . S
C812 C813 1.404 . S
C812 C815 1.539 . S
C813 C809 1.408 . S
C813 C812 1.404 . S
C813 H825 0.930 . S
C814 C810 1.524 . S
C814 H826 0.956 . S
C814 H827 0.961 . S
C814 H828 0.961 . S
C815 C812 1.539 . S
C815 H829 0.958 . S
C815 H830 0.961 . S
C815 H831 0.960 . S
H816 C800 0.931 . S
H817 C805 0.929 . S
H818 C806 0.960 . S
H819 C806 0.962 . S
H820 C806 0.960 . S
H821 C807 0.961 . S
H822 C807 0.961 . S
H823 C807 0.961 . S
H824 C808 0.931 . S
H825 C813 0.930 . S
H826 C814 0.956 . S
H827 C814 0.961 . S
H828 C814 0.961 . S
H829 C815 0.958 . S
H830 C815 0.961 . S
H831 C815 0.960 . S
C832 C833 1.391 . S
C832 C834 1.394 . S
C832 H848 0.931 . S
C833 C832 1.391 . S
C833 C837 1.376 . S
C834 C832 1.394 . S
C834 C835 1.369 . S
C834 C838 1.531 . S
C835 C834 1.369 . S
C835 C836 1.410 . S
C835 C843 1.503 . S
C836 C835 1.410 . S
C836 C837 1.392 . S
C836 C839 1.511 . S
C837 C833 1.376 . S
C837 C836 1.392 . S
C837 H849 0.929 . S
C838 C834 1.531 . S
C838 H850 0.960 . S
C838 H851 0.962 . S
C838 H852 0.960 . S
C839 C836 1.511 . S
C839 H853 0.961 . S
C839 H854 0.961 . S
C839 H855 0.961 . S
C840 C841 1.370 . S
C840 C842 1.363 . S
C840 H856 0.931 . S
C841 C840 1.370 . S
C841 C845 1.408 . S
C842 C840 1.363 . S
C842 C843 1.370 . S
C842 C846 1.524 . S
C843 C835 1.503 . S
C843 C842 1.370 . S
C843 C844 1.403 . S
C844 C843 1.403 . S
C844 C845 1.404 . S
C844 C847 1.539 . S
C845 C841 1.408 . S
C845 C844 1.404 . S
C845 H857 0.930 . S
C846 C842 1.524 . S
C846 H858 0.956 . S
C846 H859 0.961 . S
C846 H860 0.961 . S
C847 C844 1.539 . S
C847 H861 0.958 . S
C847 H862 0.961 . S
C847 H863 0.960 . S
H848 C832 0.931 . S
H849 C837 0.929 . S
H850 C838 0.960 . S
H851 C838 0.962 . S
H852 C838 0.960 . S
H853 C839 0.961 . S
H854 C839 0.961 . S
H855 C839 0.961 . S
H856 C840 0.931 . S
H857 C845 0.930 . S
H858 C846 0.956 . S
H859 C846 0.961 . S
H860 C846 0.961 . S
H861 C847 0.958 . S
H862 C847 0.961 . S
H863 C847 0.960 . S
C864 C865 1.391 . S
C864 C866 1.394 . S
C864 H880 0.931 . S
C865 C864 1.391 . S
C865 C869 1.376 . S
C866 C864 1.394 . S
C866 C867 1.369 . S
C866 C870 1.531 . S
C867 C866 1.369 . S
C867 C868 1.410 . S
C867 C875 1.503 . S
C868 C867 1.410 . S
C868 C869 1.392 . S
C868 C871 1.511 . S
C869 C865 1.376 . S
C869 C868 1.392 . S
C869 H881 0.929 . S
C870 C866 1.531 . S
C870 H882 0.960 . S
C870 H883 0.962 . S
C870 H884 0.960 . S
C871 C868 1.511 . S
C871 H885 0.961 1_455 S
C871 H886 0.961 . S
C871 H887 0.961 1_455 S
C872 C873 1.370 . S
C872 C874 1.363 . S
C872 H888 0.931 . S
C873 C872 1.370 . S
C873 C877 1.408 . S
C874 C872 1.363 . S
C874 C875 1.370 . S
C874 C878 1.524 . S
C875 C867 1.503 . S
C875 C874 1.370 . S
C875 C876 1.403 . S
C876 C875 1.403 . S
C876 C877 1.404 . S
C876 C879 1.539 . S
C877 C873 1.408 . S
C877 C876 1.404 . S
C877 H889 0.930 . S
C878 C874 1.524 . S
C878 H890 0.956 . S
C878 H891 0.961 . S
C878 H892 0.961 . S
C879 C876 1.539 . S
C879 H893 0.958 . S
C879 H894 0.961 . S
C879 H895 0.960 . S
H880 C864 0.931 . S
H881 C869 0.929 . S
H882 C870 0.960 . S
H883 C870 0.962 . S
H884 C870 0.960 . S
H885 C871 0.961 1_655 S
H886 C871 0.961 . S
H887 C871 0.961 1_655 S
H888 C872 0.931 . S
H889 C877 0.930 . S
H890 C878 0.956 . S
H891 C878 0.961 . S
H892 C878 0.961 . S
H893 C879 0.958 . S
H894 C879 0.961 . S
H895 C879 0.960 . S
C896 C897 1.391 . S
C896 C898 1.394 . S
C896 H912 0.931 . S
C897 C896 1.391 . S
C897 C901 1.376 . S
C898 C896 1.394 . S
C898 C899 1.369 . S
C898 C902 1.531 . S
C899 C898 1.369 . S
C899 C900 1.410 . S
C899 C907 1.503 . S
C900 C899 1.410 . S
C900 C901 1.392 . S
C900 C903 1.511 . S
C901 C897 1.376 . S
C901 C900 1.392 . S
C901 H913 0.929 . S
C902 C898 1.531 . S
C902 H914 0.960 . S
C902 H915 0.962 . S
C902 H916 0.960 . S
C903 C900 1.511 . S
C903 H917 0.961 . S
C903 H918 0.961 . S
C903 H919 0.961 . S
C904 C905 1.370 . S
C904 C906 1.363 . S
C904 H920 0.931 . S
C905 C904 1.370 . S
C905 C909 1.408 . S
C906 C904 1.363 . S
C906 C907 1.370 . S
C906 C910 1.524 . S
C907 C899 1.503 . S
C907 C906 1.370 . S
C907 C908 1.403 . S
C908 C907 1.403 . S
C908 C909 1.404 . S
C908 C911 1.539 . S
C909 C905 1.408 . S
C909 C908 1.404 . S
C909 H921 0.930 . S
C910 C906 1.524 . S
C910 H922 0.956 . S
C910 H923 0.961 . S
C910 H924 0.961 . S
C911 C908 1.539 . S
C911 H925 0.958 1_545 S
C911 H926 0.961 . S
C911 H927 0.960 . S
H912 C896 0.931 . S
H913 C901 0.929 . S
H914 C902 0.960 . S
H915 C902 0.962 . S
H916 C902 0.960 . S
H917 C903 0.961 . S
H918 C903 0.961 . S
H919 C903 0.961 . S
H920 C904 0.931 . S
H921 C909 0.930 . S
H922 C910 0.956 . S
H923 C910 0.961 . S
H924 C910 0.961 . S
H925 C911 0.958 1_565 S
H926 C911 0.961 . S
H927 C911 0.960 . S
C928 C929 1.391 . S
C928 C930 1.394 . S
C928 H944 0.931 . S
C929 C928 1.391 . S
C929 C933 1.376 . S
C930 C928 1.394 . S
C930 C931 1.369 . S
C930 C934 1.531 . S
C931 C930 1.369 . S
C931 C932 1.410 . S
C931 C939 1.503 . S
C932 C931 1.410 . S
C932 C933 1.392 . S
C932 C935 1.511 . S
C933 C929 1.376 . S
C933 C932 1.392 . S
C933 H945 0.929 . S
C934 C930 1.531 . S
C934 H946 0.960 . S
C934 H947 0.962 . S
C934 H948 0.960 . S
C935 C932 1.511 . S
C935 H949 0.961 . S
C935 H950 0.961 . S
C935 H951 0.961 . S
C936 C937 1.370 . S
C936 C938 1.363 . S
C936 H952 0.931 . S
C937 C936 1.370 . S
C937 C941 1.408 . S
C938 C936 1.363 . S
C938 C939 1.370 . S
C938 C942 1.524 . S
C939 C931 1.503 . S
C939 C938 1.370 . S
C939 C940 1.403 . S
C940 C939 1.403 . S
C940 C941 1.404 . S
C940 C943 1.539 . S
C941 C937 1.408 . S
C941 C940 1.404 . S
C941 H953 0.930 . S
C942 C938 1.524 . S
C942 H954 0.956 . S
C942 H955 0.961 . S
C942 H956 0.961 . S
C943 C940 1.539 . S
C943 H957 0.958 . S
C943 H958 0.961 . S
C943 H959 0.960 . S
H944 C928 0.931 . S
H945 C933 0.929 . S
H946 C934 0.960 . S
H947 C934 0.962 . S
H948 C934 0.960 . S
H949 C935 0.961 . S
H950 C935 0.961 . S
H951 C935 0.961 . S
H952 C936 0.931 . S
H953 C941 0.930 . S
H954 C942 0.956 . S
H955 C942 0.961 . S
H956 C942 0.961 . S
H957 C943 0.958 . S
H958 C943 0.961 . S
H959 C943 0.960 . S
C960 C961 1.391 . S
C960 C962 1.394 . S
C960 H976 0.931 . S
C961 C960 1.391 . S
C961 C965 1.376 . S
C962 C960 1.394 . S
C962 C963 1.369 . S
C962 C966 1.531 . S
C963 C962 1.369 . S
C963 C964 1.410 . S
C963 C971 1.503 . S
C964 C963 1.410 . S
C964 C965 1.392 . S
C964 C967 1.511 . S
C965 C961 1.376 . S
C965 C964 1.392 . S
C965 H977 0.929 . S
C966 C962 1.531 . S
C966 H978 0.960 . S
C966 H979 0.962 . S
C966 H980 0.960 . S
C967 C964 1.511 . S
C967 H981 0.961 . S
C967 H982 0.961 . S
C967 H983 0.961 . S
C968 C969 1.370 . S
C968 C970 1.363 . S
C968 H984 0.931 . S
C969 C968 1.370 . S
C969 C973 1.408 . S
C970 C968 1.363 . S
C970 C971 1.370 . S
C970 C974 1.524 . S
C971 C963 1.503 . S
C971 C970 1.370 . S
C971 C972 1.403 . S
C972 C971 1.403 . S
C972 C973 1.404 . S
C972 C975 1.539 . S
C973 C969 1.408 . S
C973 C972 1.404 . S
C973 H985 0.930 . S
C974 C970 1.524 . S
C974 H986 0.956 . S
C974 H987 0.961 . S
C974 H988 0.961 . S
C975 C972 1.539 . S
C975 H989 0.958 . S
C975 H990 0.961 . S
C975 H991 0.960 . S
H976 C960 0.931 . S
H977 C965 0.929 . S
H978 C966 0.960 . S
H979 C966 0.962 . S
H980 C966 0.960 . S
H981 C967 0.961 . S
H982 C967 0.961 . S
H983 C967 0.961 . S
H984 C968 0.931 . S
H985 C973 0.930 . S
H986 C974 0.956 . S
H987 C974 0.961 . S
H988 C974 0.961 . S
H989 C975 0.958 . S
H990 C975 0.961 . S
H991 C975 0.960 . S
C992 C993 1.391 . S
C992 C994 1.394 . S
C992 H1008 0.931 . S
C993 C992 1.391 . S
C993 C997 1.376 . S
C994 C992 1.394 . S
C994 C995 1.369 . S
C994 C998 1.531 . S
C995 C994 1.369 . S
C995 C996 1.410 . S
C995 C1003 1.503 . S
C996 C995 1.410 . S
C996 C997 1.392 . S
C996 C999 1.511 . S
C997 C993 1.376 . S
C997 C996 1.392 . S
C997 H1009 0.929 . S
C998 C994 1.531 . S
C998 H1010 0.960 . S
C998 H1011 0.962 . S
C998 H1012 0.960 . S
C999 C996 1.511 . S
C999 H1013 0.961 . S
C999 H1014 0.961 . S
C999 H1015 0.961 . S
C1000 C1001 1.370 . S
C1000 C1002 1.363 . S
C1000 H1016 0.931 . S
C1001 C1000 1.370 . S
C1001 C1005 1.408 . S
C1002 C1000 1.363 . S
C1002 C1003 1.370 . S
C1002 C1006 1.524 . S
C1003 C995 1.503 . S
C1003 C1002 1.370 . S
C1003 C1004 1.403 . S
C1004 C1003 1.403 . S
C1004 C1005 1.404 . S
C1004 C1007 1.539 . S
C1005 C1001 1.408 . S
C1005 C1004 1.404 . S
C1005 H1017 0.930 . S
C1006 C1002 1.524 . S
C1006 H1018 0.956 . S
C1006 H1019 0.961 . S
C1006 H1020 0.961 . S
C1007 C1004 1.539 . S
C1007 H1021 0.958 . S
C1007 H1022 0.961 . S
C1007 H1023 0.960 . S
H1008 C992 0.931 . S
H1009 C997 0.929 . S
H1010 C998 0.960 . S
H1011 C998 0.962 . S
H1012 C998 0.960 . S
H1013 C999 0.961 . S
H1014 C999 0.961 . S
H1015 C999 0.961 . S
H1016 C1000 0.931 . S
H1017 C1005 0.930 . S
H1018 C1006 0.956 . S
H1019 C1006 0.961 . S
H1020 C1006 0.961 . S
H1021 C1007 0.958 . S
H1022 C1007 0.961 . S
H1023 C1007 0.960 . S
C1024 C1025 1.391 . S
C1024 C1026 1.394 . S
C1024 H1040 0.931 . S
C1025 C1024 1.391 . S
C1025 C1029 1.376 . S
C1026 C1024 1.394 . S
C1026 C1027 1.369 . S
C1026 C1030 1.531 . S
C1027 C1026 1.369 . S
C1027 C1028 1.410 . S
C1027 C1035 1.503 . S
C1028 C1027 1.410 . S
C1028 C1029 1.392 . S
C1028 C1031 1.511 . S
C1029 C1025 1.376 . S
C1029 C1028 1.392 . S
C1029 H1041 0.929 . S
C1030 C1026 1.531 . S
C1030 H1042 0.960 . S
C1030 H1043 0.962 . S
C1030 H1044 0.960 1_565 S
C1031 C1028 1.511 . S
C1031 H1045 0.961 . S
C1031 H1046 0.961 . S
C1031 H1047 0.961 . S
C1032 C1033 1.370 . S
C1032 C1034 1.363 . S
C1032 H1048 0.931 . S
C1033 C1032 1.370 . S
C1033 C1037 1.408 . S
C1034 C1032 1.363 . S
C1034 C1035 1.370 . S
C1034 C1038 1.524 . S
C1035 C1027 1.503 . S
C1035 C1034 1.370 . S
C1035 C1036 1.403 . S
C1036 C1035 1.403 . S
C1036 C1037 1.404 . S
C1036 C1039 1.539 . S
C1037 C1033 1.408 . S
C1037 C1036 1.404 . S
C1037 H1049 0.930 . S
C1038 C1034 1.524 . S
C1038 H1050 0.956 . S
C1038 H1051 0.961 . S
C1038 H1052 0.961 . S
C1039 C1036 1.539 . S
C1039 H1053 0.958 1_565 S
C1039 H1054 0.961 . S
C1039 H1055 0.960 . S
H1040 C1024 0.931 . S
H1041 C1029 0.929 . S
H1042 C1030 0.960 . S
H1043 C1030 0.962 . S
H1044 C1030 0.960 1_545 S
H1045 C1031 0.961 . S
H1046 C1031 0.961 . S
H1047 C1031 0.961 . S
H1048 C1032 0.931 . S
H1049 C1037 0.930 . S
H1050 C1038 0.956 . S
H1051 C1038 0.961 . S
H1052 C1038 0.961 . S
H1053 C1039 0.958 1_545 S
H1054 C1039 0.961 . S
H1055 C1039 0.960 . S
C1056 C1057 1.391 . S
C1056 C1058 1.394 . S
C1056 H1072 0.931 . S
C1057 C1056 1.391 . S
C1057 C1061 1.376 . S
C1058 C1056 1.394 . S
C1058 C1059 1.369 . S
C1058 C1062 1.531 . S
C1059 C1058 1.369 . S
C1059 C1060 1.410 . S
C1059 C1067 1.503 . S
C1060 C1059 1.410 . S
C1060 C1061 1.392 . S
C1060 C1063 1.511 . S
C1061 C1057 1.376 . S
C1061 C1060 1.392 . S
C1061 H1073 0.929 . S
C1062 C1058 1.531 . S
C1062 H1074 0.960 . S
C1062 H1075 0.962 . S
C1062 H1076 0.960 . S
C1063 C1060 1.511 . S
C1063 H1077 0.961 . S
C1063 H1078 0.961 . S
C1063 H1079 0.961 . S
C1064 C1065 1.370 . S
C1064 C1066 1.363 . S
C1064 H1080 0.931 . S
C1065 C1064 1.370 . S
C1065 C1069 1.408 . S
C1066 C1064 1.363 . S
C1066 C1067 1.370 . S
C1066 C1070 1.524 . S
C1067 C1059 1.503 . S
C1067 C1066 1.370 . S
C1067 C1068 1.403 . S
C1068 C1067 1.403 . S
C1068 C1069 1.404 . S
C1068 C1071 1.539 . S
C1069 C1065 1.408 . S
C1069 C1068 1.404 . S
C1069 H1081 0.930 . S
C1070 C1066 1.524 . S
C1070 H1082 0.956 . S
C1070 H1083 0.961 . S
C1070 H1084 0.961 . S
C1071 C1068 1.539 . S
C1071 H1085 0.958 . S
C1071 H1086 0.961 . S
C1071 H1087 0.960 . S
H1072 C1056 0.931 . S
H1073 C1061 0.929 . S
H1074 C1062 0.960 . S
H1075 C1062 0.962 . S
H1076 C1062 0.960 . S
H1077 C1063 0.961 . S
H1078 C1063 0.961 . S
H1079 C1063 0.961 . S
H1080 C1064 0.931 . S
H1081 C1069 0.930 . S
H1082 C1070 0.956 . S
H1083 C1070 0.961 . S
H1084 C1070 0.961 . S
H1085 C1071 0.958 . S
H1086 C1071 0.961 . S
H1087 C1071 0.960 . S
C1088 C1089 1.391 . S
C1088 C1090 1.394 . S
C1088 H1104 0.931 . S
C1089 C1088 1.391 . S
C1089 C1093 1.376 . S
C1090 C1088 1.394 . S
C1090 C1091 1.369 . S
C1090 C1094 1.531 . S
C1091 C1090 1.369 . S
C1091 C1092 1.410 . S
C1091 C1099 1.503 . S
C1092 C1091 1.410 . S
C1092 C1093 1.392 . S
C1092 C1095 1.511 . S
C1093 C1089 1.376 . S
C1093 C1092 1.392 . S
C1093 H1105 0.929 . S
C1094 C1090 1.531 . S
C1094 H1106 0.960 . S
C1094 H1107 0.962 . S
C1094 H1108 0.960 . S
C1095 C1092 1.511 . S
C1095 H1109 0.961 . S
C1095 H1110 0.961 . S
C1095 H1111 0.961 . S
C1096 C1097 1.370 . S
C1096 C1098 1.363 . S
C1096 H1112 0.931 . S
C1097 C1096 1.370 . S
C1097 C1101 1.408 . S
C1098 C1096 1.363 . S
C1098 C1099 1.370 . S
C1098 C1102 1.524 . S
C1099 C1091 1.503 . S
C1099 C1098 1.370 . S
C1099 C1100 1.403 . S
C1100 C1099 1.403 . S
C1100 C1101 1.404 . S
C1100 C1103 1.539 . S
C1101 C1097 1.408 . S
C1101 C1100 1.404 . S
C1101 H1113 0.930 . S
C1102 C1098 1.524 . S
C1102 H1114 0.956 . S
C1102 H1115 0.961 . S
C1102 H1116 0.961 . S
C1103 C1100 1.539 . S
C1103 H1117 0.958 . S
C1103 H1118 0.961 . S
C1103 H1119 0.960 . S
H1104 C1088 0.931 . S
H1105 C1093 0.929 . S
H1106 C1094 0.960 . S
H1107 C1094 0.962 . S
H1108 C1094 0.960 . S
H1109 C1095 0.961 . S
H1110 C1095 0.961 . S
H1111 C1095 0.961 . S
H1112 C1096 0.931 . S
H1113 C1101 0.930 . S
H1114 C1102 0.956 . S
H1115 C1102 0.961 . S
H1116 C1102 0.961 . S
H1117 C1103 0.958 . S
H1118 C1103 0.961 . S
H1119 C1103 0.960 . S
C1120 C1121 1.391 . S
C1120 C1122 1.394 . S
C1120 H1136 0.931 . S
C1121 C1120 1.391 . S
C1121 C1125 1.376 . S
C1122 C1120 1.394 . S
C1122 C1123 1.369 . S
C1122 C1126 1.531 . S
C1123 C1122 1.369 . S
C1123 C1124 1.410 . S
C1123 C1131 1.503 . S
C1124 C1123 1.410 . S
C1124 C1125 1.392 . S
C1124 C1127 1.511 . S
C1125 C1121 1.376 . S
C1125 C1124 1.392 . S
C1125 H1137 0.929 . S
C1126 C1122 1.531 . S
C1126 H1138 0.960 . S
C1126 H1139 0.962 . S
C1126 H1140 0.960 . S
C1127 C1124 1.511 . S
C1127 H1141 0.961 . S
C1127 H1142 0.961 . S
C1127 H1143 0.961 . S
C1128 C1129 1.370 . S
C1128 C1130 1.363 . S
C1128 H1144 0.931 . S
C1129 C1128 1.370 . S
C1129 C1133 1.408 . S
C1130 C1128 1.363 . S
C1130 C1131 1.370 . S
C1130 C1134 1.524 . S
C1131 C1123 1.503 . S
C1131 C1130 1.370 . S
C1131 C1132 1.403 . S
C1132 C1131 1.403 . S
C1132 C1133 1.404 . S
C1132 C1135 1.539 . S
C1133 C1129 1.408 . S
C1133 C1132 1.404 . S
C1133 H1145 0.930 . S
C1134 C1130 1.524 . S
C1134 H1146 0.956 . S
C1134 H1147 0.961 . S
C1134 H1148 0.961 . S
C1135 C1132 1.539 . S
C1135 H1149 0.958 . S
C1135 H1150 0.961 . S
C1135 H1151 0.960 . S
H1136 C1120 0.931 . S
H1137 C1125 0.929 . S
H1138 C1126 0.960 . S
H1139 C1126 0.962 . S
H1140 C1126 0.960 . S
H1141 C1127 0.961 . S
H1142 C1127 0.961 . S
H1143 C1127 0.961 . S
H1144 C1128 0.931 . S
H1145 C1133 0.930 . S
H1146 C1134 0.956 . S
H1147 C1134 0.961 . S
H1148 C1134 0.961 . S
H1149 C1135 0.958 . S
H1150 C1135 0.961 . S
H1151 C1135 0.960 . S
C1152 C1153 1.391 . S
C1152 C1154 1.394 . S
C1152 H1168 0.931 . S
C1153 C1152 1.391 . S
C1153 C1157 1.376 . S
C1154 C1152 1.394 . S
C1154 C1155 1.369 . S
C1154 C1158 1.531 . S
C1155 C1154 1.369 . S
C1155 C1156 1.410 . S
C1155 C1163 1.503 . S
C1156 C1155 1.410 . S
C1156 C1157 1.392 . S
C1156 C1159 1.511 . S
C1157 C1153 1.376 . S
C1157 C1156 1.392 . S
C1157 H1169 0.929 . S
C1158 C1154 1.531 . S
C1158 H1170 0.960 . S
C1158 H1171 0.962 . S
C1158 H1172 0.960 . S
C1159 C1156 1.511 . S
C1159 H1173 0.961 . S
C1159 H1174 0.961 . S
C1159 H1175 0.961 . S
C1160 C1161 1.370 . S
C1160 C1162 1.363 . S
C1160 H1176 0.931 . S
C1161 C1160 1.370 . S
C1161 C1165 1.408 . S
C1162 C1160 1.363 . S
C1162 C1163 1.370 . S
C1162 C1166 1.524 . S
C1163 C1155 1.503 . S
C1163 C1162 1.370 . S
C1163 C1164 1.403 . S
C1164 C1163 1.403 . S
C1164 C1165 1.404 . S
C1164 C1167 1.539 . S
C1165 C1161 1.408 . S
C1165 C1164 1.404 . S
C1165 H1177 0.930 . S
C1166 C1162 1.524 . S
C1166 H1178 0.956 . S
C1166 H1179 0.961 . S
C1166 H1180 0.961 . S
C1167 C1164 1.539 . S
C1167 H1181 0.958 . S
C1167 H1182 0.961 . S
C1167 H1183 0.960 . S
H1168 C1152 0.931 . S
H1169 C1157 0.929 . S
H1170 C1158 0.960 . S
H1171 C1158 0.962 . S
H1172 C1158 0.960 . S
H1173 C1159 0.961 . S
H1174 C1159 0.961 . S
H1175 C1159 0.961 . S
H1176 C1160 0.931 . S
H1177 C1165 0.930 . S
H1178 C1166 0.956 . S
H1179 C1166 0.961 . S
H1180 C1166 0.961 . S
H1181 C1167 0.958 . S
H1182 C1167 0.961 . S
H1183 C1167 0.960 . S
C1184 C1185 1.391 . S
C1184 C1186 1.394 . S
C1184 H1200 0.931 . S
C1185 C1184 1.391 . S
C1185 C1189 1.376 . S
C1186 C1184 1.394 . S
C1186 C1187 1.369 . S
C1186 C1190 1.531 . S
C1187 C1186 1.369 . S
C1187 C1188 1.410 . S
C1187 C1195 1.503 . S
C1188 C1187 1.410 . S
C1188 C1189 1.392 . S
C1188 C1191 1.511 . S
C1189 C1185 1.376 . S
C1189 C1188 1.392 . S
C1189 H1201 0.929 . S
C1190 C1186 1.531 . S
C1190 H1202 0.960 . S
C1190 H1203 0.962 . S
C1190 H1204 0.960 . S
C1191 C1188 1.511 . S
C1191 H1205 0.961 . S
C1191 H1206 0.961 . S
C1191 H1207 0.961 . S
C1192 C1193 1.370 . S
C1192 C1194 1.363 . S
C1192 H1208 0.931 . S
C1193 C1192 1.370 . S
C1193 C1197 1.408 . S
C1194 C1192 1.363 . S
C1194 C1195 1.370 . S
C1194 C1198 1.524 . S
C1195 C1187 1.503 . S
C1195 C1194 1.370 . S
C1195 C1196 1.403 . S
C1196 C1195 1.403 . S
C1196 C1197 1.404 . S
C1196 C1199 1.539 . S
C1197 C1193 1.408 . S
C1197 C1196 1.404 . S
C1197 H1209 0.930 . S
C1198 C1194 1.524 . S
C1198 H1210 0.956 . S
C1198 H1211 0.961 . S
C1198 H1212 0.961 . S
C1199 C1196 1.539 . S
C1199 H1213 0.958 . S
C1199 H1214 0.961 . S
C1199 H1215 0.960 . S
H1200 C1184 0.931 . S
H1201 C1189 0.929 . S
H1202 C1190 0.960 . S
H1203 C1190 0.962 . S
H1204 C1190 0.960 . S
H1205 C1191 0.961 . S
H1206 C1191 0.961 . S
H1207 C1191 0.961 . S
H1208 C1192 0.931 . S
H1209 C1197 0.930 . S
H1210 C1198 0.956 . S
H1211 C1198 0.961 . S
H1212 C1198 0.961 . S
H1213 C1199 0.958 . S
H1214 C1199 0.961 . S
H1215 C1199 0.960 . S
C1216 C1217 1.391 . S
C1216 C1218 1.394 . S
C1216 H1232 0.931 . S
C1217 C1216 1.391 . S
C1217 C1221 1.376 . S
C1218 C1216 1.394 . S
C1218 C1219 1.369 . S
C1218 C1222 1.531 . S
C1219 C1218 1.369 . S
C1219 C1220 1.410 . S
C1219 C1227 1.503 . S
C1220 C1219 1.410 . S
C1220 C1221 1.392 . S
C1220 C1223 1.511 . S
C1221 C1217 1.376 . S
C1221 C1220 1.392 . S
C1221 H1233 0.929 . S
C1222 C1218 1.531 . S
C1222 H1234 0.960 . S
C1222 H1235 0.962 . S
C1222 H1236 0.960 . S
C1223 C1220 1.511 . S
C1223 H1237 0.961 . S
C1223 H1238 0.961 . S
C1223 H1239 0.961 . S
C1224 C1225 1.370 . S
C1224 C1226 1.363 . S
C1224 H1240 0.931 . S
C1225 C1224 1.370 . S
C1225 C1229 1.408 . S
C1226 C1224 1.363 . S
C1226 C1227 1.370 . S
C1226 C1230 1.524 . S
C1227 C1219 1.503 . S
C1227 C1226 1.370 . S
C1227 C1228 1.403 . S
C1228 C1227 1.403 . S
C1228 C1229 1.404 . S
C1228 C1231 1.539 . S
C1229 C1225 1.408 . S
C1229 C1228 1.404 . S
C1229 H1241 0.930 . S
C1230 C1226 1.524 . S
C1230 H1242 0.956 . S
C1230 H1243 0.961 . S
C1230 H1244 0.961 . S
C1231 C1228 1.539 . S
C1231 H1245 0.958 . S
C1231 H1246 0.961 . S
C1231 H1247 0.960 . S
H1232 C1216 0.931 . S
H1233 C1221 0.929 . S
H1234 C1222 0.960 . S
H1235 C1222 0.962 . S
H1236 C1222 0.960 . S
H1237 C1223 0.961 . S
H1238 C1223 0.961 . S
H1239 C1223 0.961 . S
H1240 C1224 0.931 . S
H1241 C1229 0.930 . S
H1242 C1230 0.956 . S
H1243 C1230 0.961 . S
H1244 C1230 0.961 . S
H1245 C1231 0.958 . S
H1246 C1231 0.961 . S
H1247 C1231 0.960 . S
C1248 C1249 1.391 . S
C1248 C1250 1.394 . S
C1248 H1264 0.931 . S
C1249 C1248 1.391 . S
C1249 C1253 1.376 . S
C1250 C1248 1.394 . S
C1250 C1251 1.369 . S
C1250 C1254 1.531 . S
C1251 C1250 1.369 . S
C1251 C1252 1.410 . S
C1251 C1259 1.503 . S
C1252 C1251 1.410 . S
C1252 C1253 1.392 . S
C1252 C1255 1.511 . S
C1253 C1249 1.376 . S
C1253 C1252 1.392 . S
C1253 H1265 0.929 . S
C1254 C1250 1.531 . S
C1254 H1266 0.960 . S
C1254 H1267 0.962 . S
C1254 H1268 0.960 . S
C1255 C1252 1.511 . S
C1255 H1269 0.961 . S
C1255 H1270 0.961 . S
C1255 H1271 0.961 . S
C1256 C1257 1.370 . S
C1256 C1258 1.363 . S
C1256 H1272 0.931 . S
C1257 C1256 1.370 . S
C1257 C1261 1.408 . S
C1258 C1256 1.363 . S
C1258 C1259 1.370 . S
C1258 C1262 1.524 . S
C1259 C1251 1.503 . S
C1259 C1258 1.370 . S
C1259 C1260 1.403 . S
C1260 C1259 1.403 . S
C1260 C1261 1.404 . S
C1260 C1263 1.539 . S
C1261 C1257 1.408 . S
C1261 C1260 1.404 . S
C1261 H1273 0.930 . S
C1262 C1258 1.524 . S
C1262 H1274 0.956 . S
C1262 H1275 0.961 . S
C1262 H1276 0.961 . S
C1263 C1260 1.539 . S
C1263 H1277 0.958 . S
C1263 H1278 0.961 . S
C1263 H1279 0.960 . S
H1264 C1248 0.931 . S
H1265 C1253 0.929 . S
H1266 C1254 0.960 . S
H1267 C1254 0.962 . S
H1268 C1254 0.960 . S
H1269 C1255 0.961 . S
H1270 C1255 0.961 . S
H1271 C1255 0.961 . S
H1272 C1256 0.931 . S
H1273 C1261 0.930 . S
H1274 C1262 0.956 . S
H1275 C1262 0.961 . S
H1276 C1262 0.961 . S
H1277 C1263 0.958 . S
H1278 C1263 0.961 . S
H1279 C1263 0.960 . S
C1280 C1281 1.391 . S
C1280 C1282 1.394 . S
C1280 H1296 0.931 . S
C1281 C1280 1.391 . S
C1281 C1285 1.376 . S
C1282 C1280 1.394 . S
C1282 C1283 1.369 . S
C1282 C1286 1.531 . S
C1283 C1282 1.369 . S
C1283 C1284 1.410 . S
C1283 C1291 1.503 . S
C1284 C1283 1.410 . S
C1284 C1285 1.392 . S
C1284 C1287 1.511 . S
C1285 C1281 1.376 . S
C1285 C1284 1.392 . S
C1285 H1297 0.929 . S
C1286 C1282 1.531 . S
C1286 H1298 0.960 . S
C1286 H1299 0.962 . S
C1286 H1300 0.960 . S
C1287 C1284 1.511 . S
C1287 H1301 0.961 . S
C1287 H1302 0.961 . S
C1287 H1303 0.961 . S
C1288 C1289 1.370 . S
C1288 C1290 1.363 . S
C1288 H1304 0.931 . S
C1289 C1288 1.370 . S
C1289 C1293 1.408 . S
C1290 C1288 1.363 . S
C1290 C1291 1.370 . S
C1290 C1294 1.524 . S
C1291 C1283 1.503 . S
C1291 C1290 1.370 . S
C1291 C1292 1.403 . S
C1292 C1291 1.403 . S
C1292 C1293 1.404 . S
C1292 C1295 1.539 . S
C1293 C1289 1.408 . S
C1293 C1292 1.404 . S
C1293 H1305 0.930 . S
C1294 C1290 1.524 . S
C1294 H1306 0.956 . S
C1294 H1307 0.961 . S
C1294 H1308 0.961 . S
C1295 C1292 1.539 . S
C1295 H1309 0.958 . S
C1295 H1310 0.961 . S
C1295 H1311 0.960 . S
H1296 C1280 0.931 . S
H1297 C1285 0.929 . S
H1298 C1286 0.960 . S
H1299 C1286 0.962 . S
H1300 C1286 0.960 . S
H1301 C1287 0.961 . S
H1302 C1287 0.961 . S
H1303 C1287 0.961 . S
H1304 C1288 0.931 . S
H1305 C1293 0.930 . S
H1306 C1294 0.956 . S
H1307 C1294 0.961 . S
H1308 C1294 0.961 . S
H1309 C1295 0.958 . S
H1310 C1295 0.961 . S
H1311 C1295 0.960 . S
C1312 C1313 1.391 . S
C1312 C1314 1.394 . S
C1312 H1328 0.931 . S
C1313 C1312 1.391 . S
C1313 C1317 1.376 . S
C1314 C1312 1.394 . S
C1314 C1315 1.369 . S
C1314 C1318 1.531 . S
C1315 C1314 1.369 . S
C1315 C1316 1.410 . S
C1315 C1323 1.503 . S
C1316 C1315 1.410 . S
C1316 C1317 1.392 . S
C1316 C1319 1.511 . S
C1317 C1313 1.376 . S
C1317 C1316 1.392 . S
C1317 H1329 0.929 . S
C1318 C1314 1.531 . S
C1318 H1330 0.960 . S
C1318 H1331 0.962 . S
C1318 H1332 0.960 . S
C1319 C1316 1.511 . S
C1319 H1333 0.961 . S
C1319 H1334 0.961 . S
C1319 H1335 0.961 . S
C1320 C1321 1.370 . S
C1320 C1322 1.363 . S
C1320 H1336 0.931 . S
C1321 C1320 1.370 . S
C1321 C1325 1.408 . S
C1322 C1320 1.363 . S
C1322 C1323 1.370 . S
C1322 C1326 1.524 . S
C1323 C1315 1.503 . S
C1323 C1322 1.370 . S
C1323 C1324 1.403 . S
C1324 C1323 1.403 . S
C1324 C1325 1.404 . S
C1324 C1327 1.539 . S
C1325 C1321 1.408 . S
C1325 C1324 1.404 . S
C1325 H1337 0.930 . S
C1326 C1322 1.524 . S
C1326 H1338 0.956 . S
C1326 H1339 0.961 . S
C1326 H1340 0.961 . S
C1327 C1324 1.539 . S
C1327 H1341 0.958 . S
C1327 H1342 0.961 . S
C1327 H1343 0.960 . S
H1328 C1312 0.931 . S
H1329 C1317 0.929 . S
H1330 C1318 0.960 . S
H1331 C1318 0.962 . S
H1332 C1318 0.960 . S
H1333 C1319 0.961 . S
H1334 C1319 0.961 . S
H1335 C1319 0.961 . S
H1336 C1320 0.931 . S
H1337 C1325 0.930 . S
H1338 C1326 0.956 . S
H1339 C1326 0.961 . S
H1340 C1326 0.961 . S
H1341 C1327 0.958 . S
H1342 C1327 0.961 . S
H1343 C1327 0.960 . S
C1344 C1345 1.391 . S
C1344 C1346 1.394 . S
C1344 H1360 0.931 . S
C1345 C1344 1.391 . S
C1345 C1349 1.376 . S
C1346 C1344 1.394 . S
C1346 C1347 1.369 . S
C1346 C1350 1.531 . S
C1347 C1346 1.369 . S
C1347 C1348 1.410 . S
C1347 C1355 1.503 . S
C1348 C1347 1.410 . S
C1348 C1349 1.392 . S
C1348 C1351 1.511 . S
C1349 C1345 1.376 . S
C1349 C1348 1.392 . S
C1349 H1361 0.929 . S
C1350 C1346 1.531 . S
C1350 H1362 0.960 . S
C1350 H1363 0.962 . S
C1350 H1364 0.960 . S
C1351 C1348 1.511 . S
C1351 H1365 0.961 . S
C1351 H1366 0.961 . S
C1351 H1367 0.961 . S
C1352 C1353 1.370 . S
C1352 C1354 1.363 . S
C1352 H1368 0.931 . S
C1353 C1352 1.370 . S
C1353 C1357 1.408 . S
C1354 C1352 1.363 . S
C1354 C1355 1.370 . S
C1354 C1358 1.524 . S
C1355 C1347 1.503 . S
C1355 C1354 1.370 . S
C1355 C1356 1.403 . S
C1356 C1355 1.403 . S
C1356 C1357 1.404 . S
C1356 C1359 1.539 . S
C1357 C1353 1.408 . S
C1357 C1356 1.404 . S
C1357 H1369 0.930 . S
C1358 C1354 1.524 . S
C1358 H1370 0.956 . S
C1358 H1371 0.961 . S
C1358 H1372 0.961 . S
C1359 C1356 1.539 . S
C1359 H1373 0.958 . S
C1359 H1374 0.961 . S
C1359 H1375 0.960 . S
H1360 C1344 0.931 . S
H1361 C1349 0.929 . S
H1362 C1350 0.960 . S
H1363 C1350 0.962 . S
H1364 C1350 0.960 . S
H1365 C1351 0.961 . S
H1366 C1351 0.961 . S
H1367 C1351 0.961 . S
H1368 C1352 0.931 . S
H1369 C1357 0.930 . S
H1370 C1358 0.956 . S
H1371 C1358 0.961 . S
H1372 C1358 0.961 . S
H1373 C1359 0.958 . S
H1374 C1359 0.961 . S
H1375 C1359 0.960 . S
C1376 C1377 1.391 . S
C1376 C1378 1.394 . S
C1376 H1392 0.931 . S
C1377 C1376 1.391 . S
C1377 C1381 1.376 . S
C1378 C1376 1.394 . S
C1378 C1379 1.369 . S
C1378 C1382 1.530 1_556 S
C1379 C1378 1.369 . S
C1379 C1380 1.415 . S
C1379 C1387 1.503 1_656 S
C1380 C1379 1.415 . S
C1380 C1381 1.400 . S
C1380 C1383 1.499 1_655 S
C1381 C1377 1.376 . S
C1381 C1380 1.400 . S
C1381 H1393 0.929 . S
C1382 C1378 1.530 1_554 S
C1382 H1394 0.961 . S
C1382 H1395 0.961 1_554 S
C1382 H1396 0.960 . S
C1383 C1380 1.499 1_455 S
C1383 H1397 0.961 . S
C1383 H1398 0.961 . S
C1383 H1399 0.961 1_556 S
C1384 C1385 1.370 . S
C1384 C1386 1.363 . S
C1384 H1400 0.931 . S
C1385 C1384 1.370 . S
C1385 C1389 1.408 . S
C1386 C1384 1.363 . S
C1386 C1387 1.370 . S
C1386 C1390 1.524 1_554 S
C1387 C1379 1.503 1_454 S
C1387 C1386 1.370 . S
C1387 C1388 1.403 . S
C1388 C1387 1.403 . S
C1388 C1389 1.404 . S
C1388 C1391 1.539 1_455 S
C1389 C1385 1.408 . S
C1389 C1388 1.404 . S
C1389 H1401 0.930 . S
C1390 C1386 1.524 1_556 S
C1390 H1402 0.956 . S
C1390 H1403 0.961 . S
C1390 H1404 0.961 . S
C1391 C1388 1.539 1_655 S
C1391 H1405 0.958 . S
C1391 H1406 0.961 . S
C1391 H1407 0.960 . S
H1392 C1376 0.931 . S
H1393 C1381 0.929 . S
H1394 C1382 0.961 . S
H1395 C1382 0.961 1_556 S
H1396 C1382 0.960 . S
H1397 C1383 0.961 . S
H1398 C1383 0.961 . S
H1399 C1383 0.961 1_554 S
H1400 C1384 0.931 . S
H1401 C1389 0.930 . S
H1402 C1390 0.956 . S
H1403 C1390 0.961 . S
H1404 C1390 0.961 . S
H1405 C1391 0.958 . S
H1406 C1391 0.961 . S
H1407 C1391 0.960 . S
C1408 C1409 1.391 . S
C1408 C1410 1.394 1_455 S
C1408 H1424 0.932 . S
C1409 C1408 1.391 . S
C1409 C1413 1.376 . S
C1410 C1408 1.394 1_655 S
C1410 C1411 1.369 1_655 S
C1410 C1414 1.531 . S
C1411 C1410 1.369 1_455 S
C1411 C1412 1.410 . S
C1411 C1419 1.503 1_466 S
C1412 C1411 1.410 . S
C1412 C1413 1.392 . S
C1412 C1415 1.511 1_556 S
C1413 C1409 1.376 . S
C1413 C1412 1.392 . S
C1413 H1425 0.929 . S
C1414 C1410 1.531 . S
C1414 H1426 0.960 . S
C1414 H1427 0.962 . S
C1414 H1428 0.960 . S
C1415 C1412 1.511 1_554 S
C1415 H1429 0.961 . S
C1415 H1430 0.961 1_565 S
C1415 H1431 0.961 . S
C1416 C1417 1.370 . S
C1416 C1418 1.363 . S
C1416 H1432 0.931 . S
C1417 C1416 1.370 . S
C1417 C1421 1.408 . S
C1418 C1416 1.363 . S
C1418 C1419 1.370 . S
C1418 C1422 1.524 1_654 S
C1419 C1411 1.503 1_644 S
C1419 C1418 1.370 . S
C1419 C1420 1.403 1_545 S
C1420 C1419 1.403 1_565 S
C1420 C1421 1.404 1_565 S
C1420 C1423 1.539 . S
C1421 C1417 1.408 . S
C1421 C1420 1.404 1_545 S
C1421 H1433 0.930 . S
C1422 C1418 1.524 1_456 S
C1422 H1434 0.956 1_455 S
C1422 H1435 0.961 . S
C1422 H1436 0.961 . S
C1423 C1420 1.539 . S
C1423 H1437 0.958 . S
C1423 H1438 0.961 . S
C1423 H1439 0.960 . S
H1424 C1408 0.932 . S
H1425 C1413 0.929 . S
H1426 C1414 0.960 . S
H1427 C1414 0.962 . S
H1428 C1414 0.960 . S
H1429 C1415 0.961 . S
H1430 C1415 0.961 1_545 S
H1431 C1415 0.961 . S
H1432 C1416 0.931 . S
H1433 C1421 0.930 . S
H1434 C1422 0.956 1_655 S
H1435 C1422 0.961 . S
H1436 C1422 0.961 . S
H1437 C1423 0.958 . S
H1438 C1423 0.961 . S
H1439 C1423 0.960 . S
C1440 C1441 1.391 . S
C1440 C1442 1.394 . S
C1440 H1456 0.931 . S
C1441 C1440 1.391 . S
C1441 C1445 1.376 . S
C1442 C1440 1.394 . S
C1442 C1443 1.369 . S
C1442 C1446 1.531 1_546 S
C1443 C1442 1.369 . S
C1443 C1444 1.410 . S
C1443 C1451 1.503 1_546 S
C1444 C1443 1.410 . S
C1444 C1445 1.392 . S
C1444 C1447 1.511 . S
C1445 C1441 1.376 . S
C1445 C1444 1.392 . S
C1445 H1457 0.929 . S
C1446 C1442 1.531 1_564 S
C1446 H1458 0.961 . S
C1446 H1459 0.962 . S
C1446 H1460 0.960 1_565 S
C1447 C1444 1.511 . S
C1447 H1461 0.961 . S
C1447 H1462 0.961 . S
C1447 H1463 0.961 . S
C1448 C1449 1.370 . S
C1448 C1450 1.363 . S
C1448 H1464 0.931 . S
C1449 C1448 1.370 . S
C1449 C1453 1.408 . S
C1450 C1448 1.363 . S
C1450 C1451 1.370 . S
C1450 C1454 1.524 1_554 S
C1451 C1443 1.503 1_564 S
C1451 C1450 1.370 . S
C1451 C1452 1.403 1_565 S
C1452 C1451 1.403 1_545 S
C1452 C1453 1.404 1_545 S
C1452 C1455 1.539 . S
C1453 C1449 1.408 . S
C1453 C1452 1.404 1_565 S
C1453 H1465 0.930 . S
C1454 C1450 1.524 1_556 S
C1454 H1466 0.956 . S
C1454 H1467 0.961 . S
C1454 H1468 0.961 . S
C1455 C1452 1.539 . S
C1455 H1469 0.958 . S
C1455 H1470 0.961 . S
C1455 H1471 0.960 . S
H1456 C1440 0.931 . S
H1457 C1445 0.929 . S
H1458 C1446 0.961 . S
H1459 C1446 0.962 . S
H1460 C1446 0.960 1_545 S
H1461 C1447 0.961 . S
H1462 C1447 0.961 . S
H1463 C1447 0.961 . S
H1464 C1448 0.931 . S
H1465 C1453 0.930 . S
H1466 C1454 0.956 . S
H1467 C1454 0.961 . S
H1468 C1454 0.961 . S
H1469 C1455 0.958 . S
H1470 C1455 0.961 . S
H1471 C1455 0.960 . S
C1472 C1473 1.391 . S
C1472 C1474 1.394 . S
C1472 H1488 0.931 . S
C1473 C1472 1.391 . S
C1473 C1477 1.376 . S
C1474 C1472 1.394 . S
C1474 C1475 1.369 . S
C1474 C1478 1.531 1_554 S
C1475 C1474 1.369 . S
C1475 C1476 1.410 . S
C1475 C1483 1.503 1_554 S
C1476 C1475 1.410 . S
C1476 C1477 1.392 . S
C1476 C1479 1.511 . S
C1477 C1473 1.376 . S
C1477 C1476 1.392 . S
C1477 H1489 0.929 . S
C1478 C1474 1.531 1_556 S
C1478 H1490 0.960 . S
C1478 H1491 0.962 . S
C1478 H1492 0.960 . S
C1479 C1476 1.511 . S
C1479 H1493 0.961 . S
C1479 H1494 0.961 . S
C1479 H1495 0.961 . S
C1480 C1481 1.370 . S
C1480 C1482 1.363 . S
C1480 H1496 0.931 . S
C1481 C1480 1.370 . S
C1481 C1485 1.408 . S
C1482 C1480 1.363 . S
C1482 C1483 1.370 . S
C1482 C1486 1.524 1_556 S
C1483 C1475 1.503 1_556 S
C1483 C1482 1.370 . S
C1483 C1484 1.403 . S
C1484 C1483 1.403 . S
C1484 C1485 1.404 . S
C1484 C1487 1.539 . S
C1485 C1481 1.408 . S
C1485 C1484 1.404 . S
C1485 H1497 0.930 . S
C1486 C1482 1.524 1_554 S
C1486 H1498 0.956 . S
C1486 H1499 0.961 . S
C1486 H1500 0.961 . S
C1487 C1484 1.539 . S
C1487 H1501 0.958 . S
C1487 H1502 0.961 . S
C1487 H1503 0.960 . S
H1488 C1472 0.931 . S
H1489 C1477 0.929 . S
H1490 C1478 0.960 . S
H1491 C1478 0.962 . S
H1492 C1478 0.960 . S
H1493 C1479 0.961 . S
H1494 C1479 0.961 . S
H1495 C1479 0.961 . S
H1496 C1480 0.931 . S
H1497 C1485 0.930 . S
H1498 C1486 0.956 . S
H1499 C1486 0.961 . S
H1500 C1486 0.961 . S
H1501 C1487 0.958 . S
H1502 C1487 0.961 . S
H1503 C1487 0.960 . S
C1504 C1505 1.391 . S
C1504 C1506 1.394 . S
C1504 H1520 0.931 . S
C1505 C1504 1.391 . S
C1505 C1509 1.376 . S
C1506 C1504 1.394 . S
C1506 C1507 1.369 . S
C1506 C1510 1.531 . S
C1507 C1506 1.369 . S
C1507 C1508 1.410 1_655 S
C1507 C1515 1.503 1_645 S
C1508 C1507 1.410 1_455 S
C1508 C1509 1.392 1_455 S
C1508 C1511 1.511 . S
C1509 C1505 1.376 . S
C1509 C1508 1.392 1_655 S
C1509 H1521 0.929 . S
C1510 C1506 1.531 . S
C1510 H1522 0.960 . S
C1510 H1523 0.962 . S
C1510 H1524 0.960 . S
C1511 C1508 1.511 . S
C1511 H1525 0.961 1_545 S
C1511 H1526 0.961 1_545 S
C1511 H1527 0.961 . S
C1512 C1513 1.370 . S
C1512 C1514 1.363 . S
C1512 H1528 0.931 . S
C1513 C1512 1.370 . S
C1513 C1517 1.408 . S
C1514 C1512 1.363 . S
C1514 C1515 1.370 . S
C1514 C1518 1.524 1_455 S
C1515 C1507 1.503 1_465 S
C1515 C1514 1.370 . S
C1515 C1516 1.403 1_565 S
C1516 C1515 1.403 1_545 S
C1516 C1517 1.404 1_545 S
C1516 C1519 1.539 . S
C1517 C1513 1.408 . S
C1517 C1516 1.404 1_565 S
C1517 H1529 0.930 . S
C1518 C1514 1.524 1_655 S
C1518 H1530 0.956 . S
C1518 H1531 0.961 . S
C1518 H1532 0.961 . S
C1519 C1516 1.539 . S
C1519 H1533 0.958 . S
C1519 H1534 0.961 . S
C1519 H1535 0.960 . S
H1520 C1504 0.931 . S
H1521 C1509 0.929 . S
H1522 C1510 0.960 . S
H1523 C1510 0.962 . S
H1524 C1510 0.960 . S
H1525 C1511 0.961 1_565 S
H1526 C1511 0.961 1_565 S
H1527 C1511 0.961 . S
H1528 C1512 0.931 . S
H1529 C1517 0.930 . S
H1530 C1518 0.956 . S
H1531 C1518 0.961 . S
H1532 C1518 0.961 . S
H1533 C1519 0.958 . S
H1534 C1519 0.961 . S
H1535 C1519 0.960 . S
C1536 C1537 1.391 . S
C1536 C1538 1.391 1_565 S
C1536 H1552 0.931 . S
C1537 C1536 1.391 . S
C1537 C1541 1.376 . S
C1538 C1536 1.391 1_545 S
C1538 C1539 1.368 1_545 S
C1538 C1542 1.534 . S
C1539 C1538 1.368 1_565 S
C1539 C1540 1.410 . S
C1539 C1547 1.503 1_565 S
C1540 C1539 1.410 . S
C1540 C1541 1.392 . S
C1540 C1543 1.511 . S
C1541 C1537 1.376 . S
C1541 C1540 1.392 . S
C1541 H1553 0.929 . S
C1542 C1538 1.534 . S
C1542 H1554 0.960 . S
C1542 H1555 0.962 . S
C1542 H1556 0.960 . S
C1543 C1540 1.511 . S
C1543 H1557 0.961 . S
C1543 H1558 0.961 . S
C1543 H1559 0.961 . S
C1544 C1545 1.370 . S
C1544 C1546 1.363 . S
C1544 H1560 0.931 . S
C1545 C1544 1.370 . S
C1545 C1549 1.408 . S
C1546 C1544 1.363 . S
C1546 C1547 1.370 . S
C1546 C1550 1.524 1_545 S
C1547 C1539 1.503 1_545 S
C1547 C1546 1.370 . S
C1547 C1548 1.403 . S
C1548 C1547 1.403 . S
C1548 C1549 1.404 . S
C1548 C1551 1.539 . S
C1549 C1545 1.408 . S
C1549 C1548 1.404 . S
C1549 H1561 0.930 . S
C1550 C1546 1.524 1_565 S
C1550 H1562 0.956 . S
C1550 H1563 0.961 . S
C1550 H1564 0.961 . S
C1551 C1548 1.539 . S
C1551 H1565 0.958 . S
C1551 H1566 0.961 . S
C1551 H1567 0.960 . S
H1552 C1536 0.931 . S
H1553 C1541 0.929 . S
H1554 C1542 0.960 . S
H1555 C1542 0.962 . S
H1556 C1542 0.960 . S
H1557 C1543 0.961 . S
H1558 C1543 0.961 . S
H1559 C1543 0.961 . S
H1560 C1544 0.931 . S
H1561 C1549 0.930 . S
H1562 C1550 0.956 . S
H1563 C1550 0.961 . S
H1564 C1550 0.961 . S
H1565 C1551 0.958 . S
H1566 C1551 0.961 . S
H1567 C1551 0.960 . S
C1568 C1569 1.391 . S
C1568 C1570 1.394 . S
C1568 H1584 0.931 . S
C1569 C1568 1.391 . S
C1569 C1573 1.376 . S
C1570 C1568 1.394 . S
C1570 C1571 1.369 . S
C1570 C1574 1.531 . S
C1571 C1570 1.369 . S
C1571 C1572 1.410 . S
C1571 C1579 1.503 . S
C1572 C1571 1.410 . S
C1572 C1573 1.392 . S
C1572 C1575 1.511 . S
C1573 C1569 1.376 . S
C1573 C1572 1.392 . S
C1573 H1585 0.929 . S
C1574 C1570 1.531 . S
C1574 H1586 0.960 . S
C1574 H1587 0.962 . S
C1574 H1588 0.960 . S
C1575 C1572 1.511 . S
C1575 H1589 0.961 . S
C1575 H1590 0.961 . S
C1575 H1591 0.961 . S
C1576 C1577 1.370 . S
C1576 C1578 1.363 . S
C1576 H1592 0.931 . S
C1577 C1576 1.370 . S
C1577 C1581 1.408 . S
C1578 C1576 1.363 . S
C1578 C1579 1.370 . S
C1578 C1582 1.524 . S
C1579 C1571 1.503 . S
C1579 C1578 1.370 . S
C1579 C1580 1.403 . S
C1580 C1579 1.403 . S
C1580 C1581 1.404 . S
C1580 C1583 1.539 . S
C1581 C1577 1.408 . S
C1581 C1580 1.404 . S
C1581 H1593 0.930 . S
C1582 C1578 1.524 . S
C1582 H1594 0.956 . S
C1582 H1595 0.961 . S
C1582 H1596 0.961 . S
C1583 C1580 1.539 . S
C1583 H1597 0.958 . S
C1583 H1598 0.961 . S
C1583 H1599 0.960 . S
H1584 C1568 0.931 . S
H1585 C1573 0.929 . S
H1586 C1574 0.960 . S
H1587 C1574 0.962 . S
H1588 C1574 0.960 . S
H1589 C1575 0.961 . S
H1590 C1575 0.961 . S
H1591 C1575 0.961 . S
H1592 C1576 0.931 . S
H1593 C1581 0.930 . S
H1594 C1582 0.956 . S
H1595 C1582 0.961 . S
H1596 C1582 0.961 . S
H1597 C1583 0.958 . S
H1598 C1583 0.961 . S
H1599 C1583 0.960 . S
C1600 C1601 1.391 . S
C1600 C1602 1.394 1_455 S
C1600 H1616 0.931 . S
C1601 C1600 1.391 . S
C1601 C1605 1.376 . S
C1602 C1600 1.394 1_655 S
C1602 C1603 1.369 1_655 S
C1602 C1606 1.531 . S
C1603 C1602 1.369 1_455 S
C1603 C1604 1.410 . S
C1603 C1611 1.503 1_455 S
C1604 C1603 1.410 . S
C1604 C1605 1.392 . S
C1604 C1607 1.511 . S
C1605 C1601 1.376 . S
C1605 C1604 1.392 . S
C1605 H1617 0.929 . S
C1606 C1602 1.531 . S
C1606 H1618 0.960 . S
C1606 H1619 0.962 . S
C1606 H1620 0.960 . S
C1607 C1604 1.511 . S
C1607 H1621 0.961 . S
C1607 H1622 0.961 . S
C1607 H1623 0.961 . S
C1608 C1609 1.370 . S
C1608 C1610 1.363 . S
C1608 H1624 0.931 . S
C1609 C1608 1.370 . S
C1609 C1613 1.408 . S
C1610 C1608 1.363 . S
C1610 C1611 1.370 . S
C1610 C1614 1.524 . S
C1611 C1603 1.503 1_655 S
C1611 C1610 1.370 . S
C1611 C1612 1.403 . S
C1612 C1611 1.403 . S
C1612 C1613 1.404 . S
C1612 C1615 1.539 1_655 S
C1613 C1609 1.408 . S
C1613 C1612 1.404 . S
C1613 H1625 0.930 . S
C1614 C1610 1.524 . S
C1614 H1626 0.956 . S
C1614 H1627 0.961 . S
C1614 H1628 0.961 . S
C1615 C1612 1.539 1_455 S
C1615 H1629 0.958 . S
C1615 H1630 0.961 . S
C1615 H1631 0.960 . S
H1616 C1600 0.931 . S
H1617 C1605 0.929 . S
H1618 C1606 0.960 . S
H1619 C1606 0.962 . S
H1620 C1606 0.960 . S
H1621 C1607 0.961 . S
H1622 C1607 0.961 . S
H1623 C1607 0.961 . S
H1624 C1608 0.931 . S
H1625 C1613 0.930 . S
H1626 C1614 0.956 . S
H1627 C1614 0.961 . S
H1628 C1614 0.961 . S
H1629 C1615 0.958 . S
H1630 C1615 0.961 . S
H1631 C1615 0.960 . S
C1632 C1633 1.391 . S
C1632 C1634 1.394 . S
C1632 H1648 0.931 . S
C1633 C1632 1.391 . S
C1633 C1637 1.376 . S
C1634 C1632 1.394 . S
C1634 C1635 1.369 . S
C1634 C1638 1.531 . S
C1635 C1634 1.369 . S
C1635 C1636 1.410 . S
C1635 C1643 1.503 . S
C1636 C1635 1.410 . S
C1636 C1637 1.392 . S
C1636 C1639 1.511 1_655 S
C1637 C1633 1.376 . S
C1637 C1636 1.392 . S
C1637 H1649 0.929 . S
C1638 C1634 1.531 . S
C1638 H1650 0.960 . S
C1638 H1651 0.962 . S
C1638 H1652 0.960 . S
C1639 C1636 1.511 1_455 S
C1639 H1653 0.961 . S
C1639 H1654 0.961 . S
C1639 H1655 0.961 . S
C1640 C1641 1.370 1_655 S
C1640 C1642 1.363 . S
C1640 H1656 0.931 . S
C1641 C1640 1.370 1_455 S
C1641 C1645 1.408 . S
C1642 C1640 1.363 . S
C1642 C1643 1.370 . S
C1642 C1646 1.524 . S
C1643 C1635 1.503 . S
C1643 C1642 1.370 . S
C1643 C1644 1.403 . S
C1644 C1643 1.403 . S
C1644 C1645 1.404 1_655 S
C1644 C1647 1.539 1_655 S
C1645 C1641 1.408 . S
C1645 C1644 1.404 1_455 S
C1645 H1657 0.930 . S
C1646 C1642 1.524 . S
C1646 H1658 0.956 . S
C1646 H1659 0.961 . S
C1646 H1660 0.961 . S
C1647 C1644 1.539 1_455 S
C1647 H1661 0.958 1_455 S
C1647 H1662 0.961 . S
C1647 H1663 0.960 . S
H1648 C1632 0.931 . S
H1649 C1637 0.929 . S
H1650 C1638 0.960 . S
H1651 C1638 0.962 . S
H1652 C1638 0.960 . S
H1653 C1639 0.961 . S
H1654 C1639 0.961 . S
H1655 C1639 0.961 . S
H1656 C1640 0.931 . S
H1657 C1645 0.930 . S
H1658 C1646 0.956 . S
H1659 C1646 0.961 . S
H1660 C1646 0.961 . S
H1661 C1647 0.958 1_655 S
H1662 C1647 0.961 . S
H1663 C1647 0.960 . S
C1664 C1665 1.389 1_455 S
C1664 C1666 1.394 1_455 S
C1664 H1680 0.931 . S
C1665 C1664 1.389 1_655 S
C1665 C1669 1.379 . S
C1666 C1664 1.394 1_655 S
C1666 C1667 1.369 . S
C1666 C1670 1.531 1_655 S
C1667 C1666 1.369 . S
C1667 C1668 1.410 . S
C1667 C1675 1.503 . S
C1668 C1667 1.410 . S
C1668 C1669 1.392 . S
C1668 C1671 1.511 . S
C1669 C1665 1.379 . S
C1669 C1668 1.392 . S
C1669 H1681 0.929 . S
C1670 C1666 1.531 1_455 S
C1670 H1682 0.960 1_455 S
C1670 H1683 0.962 . S
C1670 H1684 0.960 . S
C1671 C1668 1.511 . S
C1671 H1685 0.961 1_565 S
C1671 H1686 0.961 1_565 S
C1671 H1687 0.961 . S
C1672 C1673 1.370 . S
C1672 C1674 1.363 . S
C1672 H1688 0.931 . S
C1673 C1672 1.370 . S
C1673 C1677 1.408 1_545 S
C1674 C1672 1.363 . S
C1674 C1675 1.371 1_545 S
C1674 C1678 1.524 1_655 S
C1675 C1667 1.503 . S
C1675 C1674 1.371 1_565 S
C1675 C1676 1.403 . S
C1676 C1675 1.403 . S
C1676 C1677 1.404 . S
C1676 C1679 1.539 . S
C1677 C1673 1.408 1_565 S
C1677 C1676 1.404 . S
C1677 H1689 0.930 . S
C1678 C1674 1.524 1_455 S
C1678 H1690 0.967 . S
C1678 H1691 0.961 1_455 S
C1678 H1692 0.961 . S
C1679 C1676 1.539 . S
C1679 H1693 0.958 . S
C1679 H1694 0.961 . S
C1679 H1695 0.960 . S
H1680 C1664 0.931 . S
H1681 C1669 0.929 . S
H1682 C1670 0.960 1_655 S
H1683 C1670 0.962 . S
H1684 C1670 0.960 . S
H1685 C1671 0.961 1_545 S
H1686 C1671 0.961 1_545 S
H1687 C1671 0.961 . S
H1688 C1672 0.931 . S
H1689 C1677 0.930 . S
H1690 C1678 0.967 . S
H1691 C1678 0.961 1_655 S
H1692 C1678 0.961 . S
H1693 C1679 0.958 . S
H1694 C1679 0.961 . S
H1695 C1679 0.960 . S
C1696 C1697 1.391 1_565 S
C1696 C1698 1.394 . S
C1696 H1712 0.931 . S
C1697 C1696 1.391 1_545 S
C1697 C1701 1.376 . S
C1698 C1696 1.394 . S
C1698 C1699 1.369 . S
C1698 C1702 1.531 . S
C1699 C1698 1.369 . S
C1699 C1700 1.410 1_565 S
C1699 C1707 1.503 . S
C1700 C1699 1.410 1_545 S
C1700 C1701 1.392 . S
C1700 C1703 1.511 . S
C1701 C1697 1.376 . S
C1701 C1700 1.392 . S
C1701 H1713 0.929 . S
C1702 C1698 1.531 . S
C1702 H1714 0.960 . S
C1702 H1715 0.962 . S
C1702 H1716 0.960 . S
C1703 C1700 1.511 . S
C1703 H1717 0.961 . S
C1703 H1718 0.961 . S
C1703 H1719 0.961 . S
C1704 C1705 1.370 . S
C1704 C1706 1.363 . S
C1704 H1720 0.931 . S
C1705 C1704 1.370 . S
C1705 C1709 1.408 . S
C1706 C1704 1.363 . S
C1706 C1707 1.370 . S
C1706 C1710 1.524 . S
C1707 C1699 1.503 . S
C1707 C1706 1.370 . S
C1707 C1708 1.403 . S
C1708 C1707 1.403 . S
C1708 C1709 1.404 . S
C1708 C1711 1.539 1_565 S
C1709 C1705 1.408 . S
C1709 C1708 1.404 . S
C1709 H1721 0.930 . S
C1710 C1706 1.524 . S
C1710 H1722 0.956 . S
C1710 H1723 0.961 . S
C1710 H1724 0.961 . S
C1711 C1708 1.539 1_545 S
C1711 H1725 0.958 1_545 S
C1711 H1726 0.961 . S
C1711 H1727 0.960 . S
H1712 C1696 0.931 . S
H1713 C1701 0.929 . S
H1714 C1702 0.960 . S
H1715 C1702 0.962 . S
H1716 C1702 0.960 . S
H1717 C1703 0.961 . S
H1718 C1703 0.961 . S
H1719 C1703 0.961 . S
H1720 C1704 0.931 . S
H1721 C1709 0.930 . S
H1722 C1710 0.956 . S
H1723 C1710 0.961 . S
H1724 C1710 0.961 . S
H1725 C1711 0.958 1_565 S
H1726 C1711 0.961 . S
H1727 C1711 0.960 . S
C1728 C1729 1.391 . S
C1728 C1730 1.394 . S
C1728 H1744 0.931 . S
C1729 C1728 1.391 . S
C1729 C1733 1.376 . S
C1730 C1728 1.394 . S
C1730 C1731 1.369 . S
C1730 C1734 1.531 . S
C1731 C1730 1.369 . S
C1731 C1732 1.410 . S
C1731 C1739 1.503 . S
C1732 C1731 1.410 . S
C1732 C1733 1.392 . S
C1732 C1735 1.511 . S
C1733 C1729 1.376 . S
C1733 C1732 1.392 . S
C1733 H1745 0.929 . S
C1734 C1730 1.531 . S
C1734 H1746 0.960 . S
C1734 H1747 0.962 . S
C1734 H1748 0.960 . S
C1735 C1732 1.511 . S
C1735 H1749 0.961 . S
C1735 H1750 0.961 . S
C1735 H1751 0.961 . S
C1736 C1737 1.370 . S
C1736 C1738 1.363 . S
C1736 H1752 0.931 . S
C1737 C1736 1.370 . S
C1737 C1741 1.408 . S
C1738 C1736 1.363 . S
C1738 C1739 1.370 . S
C1738 C1742 1.524 . S
C1739 C1731 1.503 . S
C1739 C1738 1.370 . S
C1739 C1740 1.403 . S
C1740 C1739 1.403 . S
C1740 C1741 1.404 . S
C1740 C1743 1.539 . S
C1741 C1737 1.408 . S
C1741 C1740 1.404 . S
C1741 H1753 0.930 . S
C1742 C1738 1.524 . S
C1742 H1754 0.956 . S
C1742 H1755 0.961 . S
C1742 H1756 0.961 . S
C1743 C1740 1.539 . S
C1743 H1757 0.958 . S
C1743 H1758 0.961 . S
C1743 H1759 0.960 . S
H1744 C1728 0.931 . S
H1745 C1733 0.929 . S
H1746 C1734 0.960 . S
H1747 C1734 0.962 . S
H1748 C1734 0.960 . S
H1749 C1735 0.961 . S
H1750 C1735 0.961 . S
H1751 C1735 0.961 . S
H1752 C1736 0.931 . S
H1753 C1741 0.930 . S
H1754 C1742 0.956 . S
H1755 C1742 0.961 . S
H1756 C1742 0.961 . S
H1757 C1743 0.958 . S
H1758 C1743 0.961 . S
H1759 C1743 0.960 . S
C1760 C1761 1.391 . S
C1760 C1762 1.394 . S
C1760 H1776 0.931 . S
C1761 C1760 1.391 . S
C1761 C1765 1.376 . S
C1762 C1760 1.394 . S
C1762 C1763 1.369 . S
C1762 C1766 1.531 . S
C1763 C1762 1.369 . S
C1763 C1764 1.410 . S
C1763 C1771 1.503 . S
C1764 C1763 1.410 . S
C1764 C1765 1.392 . S
C1764 C1767 1.511 . S
C1765 C1761 1.376 . S
C1765 C1764 1.392 . S
C1765 H1777 0.929 . S
C1766 C1762 1.531 . S
C1766 H1778 0.960 . S
C1766 H1779 0.962 . S
C1766 H1780 0.960 . S
C1767 C1764 1.511 . S
C1767 H1781 0.961 . S
C1767 H1782 0.961 . S
C1767 H1783 0.961 . S
C1768 C1769 1.383 . S
C1768 C1770 1.363 . S
C1768 H1784 0.931 . S
C1769 C1768 1.383 . S
C1769 C1773 1.386 1_655 S
C1770 C1768 1.363 . S
C1770 C1771 1.370 1_655 S
C1770 C1774 1.524 . S
C1771 C1763 1.503 . S
C1771 C1770 1.370 1_455 S
C1771 C1772 1.403 . S
C1772 C1771 1.403 . S
C1772 C1773 1.404 . S
C1772 C1775 1.539 . S
C1773 C1769 1.386 1_455 S
C1773 C1772 1.404 . S
C1773 H1785 0.930 . S
C1774 C1770 1.524 . S
C1774 H1786 0.956 . S
C1774 H1787 0.961 . S
C1774 H1788 0.961 . S
C1775 C1772 1.539 . S
C1775 H1789 0.958 . S
C1775 H1790 0.961 . S
C1775 H1791 0.960 . S
H1776 C1760 0.931 . S
H1777 C1765 0.929 . S
H1778 C1766 0.960 . S
H1779 C1766 0.962 . S
H1780 C1766 0.960 . S
H1781 C1767 0.961 . S
H1782 C1767 0.961 . S
H1783 C1767 0.961 . S
H1784 C1768 0.931 . S
H1785 C1773 0.930 . S
H1786 C1774 0.956 . S
H1787 C1774 0.961 . S
H1788 C1774 0.961 . S
H1789 C1775 0.958 . S
H1790 C1775 0.961 . S
H1791 C1775 0.960 . S
C1792 C1793 1.388 1_655 S
C1792 C1794 1.394 1_655 S
C1792 H1808 0.931 . S
C1793 C1792 1.388 1_455 S
C1793 C1797 1.388 . S
C1794 C1792 1.394 1_455 S
C1794 C1795 1.369 . S
C1794 C1798 1.531 1_545 S
C1795 C1794 1.369 . S
C1795 C1796 1.410 . S
C1795 C1803 1.503 . S
C1796 C1795 1.410 . S
C1796 C1797 1.392 . S
C1796 C1799 1.511 . S
C1797 C1793 1.388 . S
C1797 C1796 1.392 . S
C1797 H1809 0.929 . S
C1798 C1794 1.531 1_565 S
C1798 H1810 0.960 . S
C1798 H1811 0.962 1_455 S
C1798 H1812 0.960 . S
C1799 C1796 1.511 . S
C1799 H1813 0.961 . S
C1799 H1814 0.961 . S
C1799 H1815 0.961 . S
C1800 C1801 1.370 1_545 S
C1800 C1802 1.363 . S
C1800 H1816 0.931 . S
C1801 C1800 1.370 1_565 S
C1801 C1805 1.408 . S
C1802 C1800 1.363 . S
C1802 C1803 1.370 . S
C1802 C1806 1.524 1_455 S
C1803 C1795 1.503 . S
C1803 C1802 1.370 . S
C1803 C1804 1.403 . S
C1804 C1803 1.403 . S
C1804 C1805 1.404 1_545 S
C1804 C1807 1.539 . S
C1805 C1801 1.408 . S
C1805 C1804 1.404 1_565 S
C1805 H1817 0.930 . S
C1806 C1802 1.524 1_655 S
C1806 H1818 0.956 . S
C1806 H1819 0.961 . S
C1806 H1820 0.961 . S
C1807 C1804 1.539 . S
C1807 H1821 0.958 1_545 S
C1807 H1822 0.961 . S
C1807 H1823 0.960 . S
H1808 C1792 0.931 . S
H1809 C1797 0.929 . S
H1810 C1798 0.960 . S
H1811 C1798 0.962 1_655 S
H1812 C1798 0.960 . S
H1813 C1799 0.961 . S
H1814 C1799 0.961 . S
H1815 C1799 0.961 . S
H1816 C1800 0.931 . S
H1817 C1805 0.930 . S
H1818 C1806 0.956 . S
H1819 C1806 0.961 . S
H1820 C1806 0.961 . S
H1821 C1807 0.958 1_565 S
H1822 C1807 0.961 . S
H1823 C1807 0.960 . S
C1824 C1825 1.391 . S
C1824 C1826 1.394 . S
C1824 H1840 0.931 . S
C1825 C1824 1.391 . S
C1825 C1829 1.376 1_565 S
C1826 C1824 1.394 . S
C1826 C1827 1.369 1_565 S
C1826 C1830 1.531 . S
C1827 C1826 1.369 1_545 S
C1827 C1828 1.410 . S
C1827 C1835 1.503 . S
C1828 C1827 1.410 . S
C1828 C1829 1.392 . S
C1828 C1831 1.511 . S
C1829 C1825 1.376 1_545 S
C1829 C1828 1.392 . S
C1829 H1841 0.929 . S
C1830 C1826 1.531 . S
C1830 H1842 0.960 . S
C1830 H1843 0.962 . S
C1830 H1844 0.960 . S
C1831 C1828 1.511 . S
C1831 H1845 0.961 . S
C1831 H1846 0.961 . S
C1831 H1847 0.961 . S
C1832 C1833 1.370 . S
C1832 C1834 1.363 . S
C1832 H1848 0.931 . S
C1833 C1832 1.370 . S
C1833 C1837 1.408 . S
C1834 C1832 1.363 . S
C1834 C1835 1.370 . S
C1834 C1838 1.524 . S
C1835 C1827 1.503 . S
C1835 C1834 1.370 . S
C1835 C1836 1.403 . S
C1836 C1835 1.403 . S
C1836 C1837 1.404 . S
C1836 C1839 1.539 . S
C1837 C1833 1.408 . S
C1837 C1836 1.404 . S
C1837 H1849 0.930 . S
C1838 C1834 1.524 . S
C1838 H1850 0.956 . S
C1838 H1851 0.961 . S
C1838 H1852 0.961 . S
C1839 C1836 1.539 . S
C1839 H1853 0.958 1_545 S
C1839 H1854 0.961 . S
C1839 H1855 0.960 . S
H1840 C1824 0.931 . S
H1841 C1829 0.929 . S
H1842 C1830 0.960 . S
H1843 C1830 0.962 . S
H1844 C1830 0.960 . S
H1845 C1831 0.961 . S
H1846 C1831 0.961 . S
H1847 C1831 0.961 . S
H1848 C1832 0.931 . S
H1849 C1837 0.930 . S
H1850 C1838 0.956 . S
H1851 C1838 0.961 . S
H1852 C1838 0.961 . S
H1853 C1839 0.958 1_565 S
H1854 C1839 0.961 . S
H1855 C1839 0.960 . S
C1856 C1857 1.391 . S
C1856 C1858 1.394 . S
C1856 H1872 0.931 . S
C1857 C1856 1.391 . S
C1857 C1861 1.376 . S
C1858 C1856 1.394 . S
C1858 C1859 1.369 . S
C1858 C1862 1.531 . S
C1859 C1858 1.369 . S
C1859 C1860 1.410 . S
C1859 C1867 1.503 . S
C1860 C1859 1.410 . S
C1860 C1861 1.392 . S
C1860 C1863 1.511 . S
C1861 C1857 1.376 . S
C1861 C1860 1.392 . S
C1861 H1873 0.929 . S
C1862 C1858 1.531 . S
C1862 H1874 0.960 . S
C1862 H1875 0.962 . S
C1862 H1876 0.960 . S
C1863 C1860 1.511 . S
C1863 H1877 0.961 . S
C1863 H1878 0.961 . S
C1863 H1879 0.961 . S
C1864 C1865 1.370 . S
C1864 C1866 1.363 . S
C1864 H1880 0.931 . S
C1865 C1864 1.370 . S
C1865 C1869 1.408 . S
C1866 C1864 1.363 . S
C1866 C1867 1.370 . S
C1866 C1870 1.524 . S
C1867 C1859 1.503 . S
C1867 C1866 1.370 . S
C1867 C1868 1.403 . S
C1868 C1867 1.403 . S
C1868 C1869 1.404 . S
C1868 C1871 1.539 . S
C1869 C1865 1.408 . S
C1869 C1868 1.404 . S
C1869 H1881 0.930 . S
C1870 C1866 1.524 . S
C1870 H1882 0.956 . S
C1870 H1883 0.961 . S
C1870 H1884 0.961 . S
C1871 C1868 1.539 . S
C1871 H1885 0.958 . S
C1871 H1886 0.961 . S
C1871 H1887 0.960 . S
H1872 C1856 0.931 . S
H1873 C1861 0.929 . S
H1874 C1862 0.960 . S
H1875 C1862 0.962 . S
H1876 C1862 0.960 . S
H1877 C1863 0.961 . S
H1878 C1863 0.961 . S
H1879 C1863 0.961 . S
H1880 C1864 0.931 . S
H1881 C1869 0.930 . S
H1882 C1870 0.956 . S
H1883 C1870 0.961 . S
H1884 C1870 0.961 . S
H1885 C1871 0.958 . S
H1886 C1871 0.961 . S
H1887 C1871 0.960 . S
C353 C70 1.242 . S
C361 C8 1.235 . S
C385 C4 1.240 1_655 S
C393 C30 1.234 . S
C417 C52 1.238 . S
C425 C26 1.191 1_565 S
C449 C48 1.196 . S
C457 C74 1.246 . S
C481 C92 1.248 . S
C489 C114 1.223 1_565 S
C513 C118 1.258 . S
C521 C140 1.204 . S
C545 C136 1.241 . S
C553 C162 1.192 . S
C577 C96 1.241 1_655 S
C585 C158 1.244 . S
C609 C184 1.258 . S
C617 C246 1.200 . S
C641 C180 1.181 1_455 S
C649 C202 1.228 . S
C673 C206 1.243 1_545 S
C681 C228 1.239 . S
C705 C224 1.185 . S
C713 C250 1.247 . S
C737 C268 1.250 . S
C745 C294 1.193 1_545 S
C769 C316 1.165 . S
C777 C290 1.234 . S
C801 C338 1.203 . S
C809 C312 1.225 . S
C833 C334 1.207 . S
C841 C272 1.209 1_455 S
C865 C6 0.621 . S
C873 C95 0.566 . S
C897 C116 0.519 . S
C905 C28 0.592 . S
C929 C50 0.535 . S
C937 C139 0.576 . S
C961 C72 0.541 . S
C969 C161 0.573 . S
C993 C273 0.671 . S
C1001 C181 0.603 . S
C1025 C295 0.593 . S
C1033 C207 0.566 . S
C1057 C225 0.666 . S
C1065 C317 0.596 . S
C1089 C339 0.647 . S
C1097 C247 0.627 . S
C1121 C5 1.994 . S
C1129 C49 2.014 . S
C1153 C27 2.001 . S
C1161 C71 2.018 . S
C1185 C141 2.021 . S
C1193 C97 2.010 . S
C1217 C163 2.019 . S
C1225 C115 2.013 . S
C1249 C226 2.008 . S
C1257 C182 2.007 . S
C1281 C248 2.006 . S
C1289 C205 2.007 . S
C1313 C271 2.020 . S
C1321 C315 2.015 . S
C1345 C293 1.995 . S
C1353 C337 2.011 . S
C1377 C185 1.482 . S
C1385 C7 1.505 . S
C1409 C203 1.519 . S
C1417 C29 1.490 . S
C1441 C229 1.462 . S
C1449 C51 1.512 . S
C1473 C73 1.513 . S
C1481 C251 1.487 . S
C1505 C269 1.453 . S
C1513 C94 1.514 . S
C1537 C291 1.490 . S
C1545 C117 1.496 . S
C1569 C313 1.530 . S
C1577 C138 1.481 . S
C1601 C335 1.489 . S
C1609 C160 1.502 . S
C1633 C159 1.271 . S
C1641 C9 1.226 . S
C1665 C93 1.213 1_655 S
C1673 C31 1.230 . S
C1697 C119 1.272 . S
C1705 C53 1.253 . S
C1729 C137 1.226 . S
C1737 C75 1.262 . S
C1761 C336 1.198 . S
C1769 C183 1.255 . S
C1793 C270 1.256 1_455 S
C1801 C204 1.224 . S
C1825 C292 1.277 . S
C1833 C227 1.244 . S
C1857 C249 1.194 . S
C1865 C314 1.254 . S
