# Generated by pormake.
# Topology sxg, (6)-cn, num edge types: 1
# Building blocks:
#     Node 0, Type 0, BuildingBlock: KUMBOL_clean_sbu_0, # of connection points: 6
#     Node 1, Type 0, BuildingBlock: KUMBOL_clean_sbu_0, # of connection points: 6
#     Node 2, Type 0, BuildingBlock: KUMBOL_clean_sbu_0, # of connection points: 6
#     Node 3, Type 0, BuildingBlock: KUMBOL_clean_sbu_0, # of connection points: 6
#     Node 4, Type 0, BuildingBlock: KUMBOL_clean_sbu_0, # of connection points: 6
#     Node 5, Type 0, BuildingBlock: KUMBOL_clean_sbu_0, # of connection points: 6
#     Node 6, Type 0, BuildingBlock: KUMBOL_clean_sbu_0, # of connection points: 6
#     Node 7, Type 0, BuildingBlock: KUMBOL_clean_sbu_0, # of connection points: 6
#     Node 8, Type 0, BuildingBlock: KUMBOL_clean_sbu_0, # of connection points: 6
#     Node 9, Type 0, BuildingBlock: KUMBOL_clean_sbu_0, # of connection points: 6
#     Node 10, Type 0, BuildingBlock: KUMBOL_clean_sbu_0, # of connection points: 6
#     Node 11, Type 0, BuildingBlock: KUMBOL_clean_sbu_0, # of connection points: 6
#     Node 12, Type 0, BuildingBlock: KUMBOL_clean_sbu_0, # of connection points: 6
#     Node 13, Type 0, BuildingBlock: KUMBOL_clean_sbu_0, # of connection points: 6
#     Node 14, Type 0, BuildingBlock: KUMBOL_clean_sbu_0, # of connection points: 6
#     Node 15, Type 0, BuildingBlock: KUMBOL_clean_sbu_0, # of connection points: 6
#     Node 16, Type 0, BuildingBlock: KUMBOL_clean_sbu_0, # of connection points: 6
#     Node 17, Type 0, BuildingBlock: KUMBOL_clean_sbu_0, # of connection points: 6
#     Node 18, Type 0, BuildingBlock: KUMBOL_clean_sbu_0, # of connection points: 6
#     Node 19, Type 0, BuildingBlock: KUMBOL_clean_sbu_0, # of connection points: 6
#     Node 20, Type 0, BuildingBlock: KUMBOL_clean_sbu_0, # of connection points: 6
#     Node 21, Type 0, BuildingBlock: KUMBOL_clean_sbu_0, # of connection points: 6
#     Node 22, Type 0, BuildingBlock: KUMBOL_clean_sbu_0, # of connection points: 6
#     Node 23, Type 0, BuildingBlock: KUMBOL_clean_sbu_0, # of connection points: 6
#     Edge 24, Type (0, 0), BuildingBlock: TEMPAE_clean_linker_10, # of connection points: 2
#     Edge 25, Type (0, 0), BuildingBlock: TEMPAE_clean_linker_10, # of connection points: 2
#     Edge 26, Type (0, 0), BuildingBlock: TEMPAE_clean_linker_10, # of connection points: 2
#     Edge 27, Type (0, 0), BuildingBlock: TEMPAE_clean_linker_10, # of connection points: 2
#     Edge 28, Type (0, 0), BuildingBlock: TEMPAE_clean_linker_10, # of connection points: 2
#     Edge 29, Type (0, 0), BuildingBlock: TEMPAE_clean_linker_10, # of connection points: 2
#     Edge 30, Type (0, 0), BuildingBlock: TEMPAE_clean_linker_10, # of connection points: 2
#     Edge 31, Type (0, 0), BuildingBlock: TEMPAE_clean_linker_10, # of connection points: 2
#     Edge 32, Type (0, 0), BuildingBlock: TEMPAE_clean_linker_10, # of connection points: 2
#     Edge 33, Type (0, 0), BuildingBlock: TEMPAE_clean_linker_10, # of connection points: 2
#     Edge 34, Type (0, 0), BuildingBlock: TEMPAE_clean_linker_10, # of connection points: 2
#     Edge 35, Type (0, 0), BuildingBlock: TEMPAE_clean_linker_10, # of connection points: 2
#     Edge 36, Type (0, 0), BuildingBlock: TEMPAE_clean_linker_10, # of connection points: 2
#     Edge 37, Type (0, 0), BuildingBlock: TEMPAE_clean_linker_10, # of connection points: 2
#     Edge 38, Type (0, 0), BuildingBlock: TEMPAE_clean_linker_10, # of connection points: 2
#     Edge 39, Type (0, 0), BuildingBlock: TEMPAE_clean_linker_10, # of connection points: 2
#     Edge 40, Type (0, 0), BuildingBlock: TEMPAE_clean_linker_10, # of connection points: 2
#     Edge 41, Type (0, 0), BuildingBlock: TEMPAE_clean_linker_10, # of connection points: 2
#     Edge 42, Type (0, 0), BuildingBlock: TEMPAE_clean_linker_10, # of connection points: 2
#     Edge 43, Type (0, 0), BuildingBlock: TEMPAE_clean_linker_10, # of connection points: 2
#     Edge 44, Type (0, 0), BuildingBlock: TEMPAE_clean_linker_10, # of connection points: 2
#     Edge 45, Type (0, 0), BuildingBlock: TEMPAE_clean_linker_10, # of connection points: 2
#     Edge 46, Type (0, 0), BuildingBlock: TEMPAE_clean_linker_10, # of connection points: 2
#     Edge 47, Type (0, 0), BuildingBlock: TEMPAE_clean_linker_10, # of connection points: 2
#     Edge 48, Type (0, 0), BuildingBlock: TEMPAE_clean_linker_10, # of connection points: 2
#     Edge 49, Type (0, 0), BuildingBlock: TEMPAE_clean_linker_10, # of connection points: 2
#     Edge 50, Type (0, 0), BuildingBlock: TEMPAE_clean_linker_10, # of connection points: 2
#     Edge 51, Type (0, 0), BuildingBlock: TEMPAE_clean_linker_10, # of connection points: 2
#     Edge 52, Type (0, 0), BuildingBlock: TEMPAE_clean_linker_10, # of connection points: 2
#     Edge 53, Type (0, 0), BuildingBlock: TEMPAE_clean_linker_10, # of connection points: 2
#     Edge 54, Type (0, 0), BuildingBlock: TEMPAE_clean_linker_10, # of connection points: 2
#     Edge 55, Type (0, 0), BuildingBlock: TEMPAE_clean_linker_10, # of connection points: 2
#     Edge 56, Type (0, 0), BuildingBlock: TEMPAE_clean_linker_10, # of connection points: 2
#     Edge 57, Type (0, 0), BuildingBlock: TEMPAE_clean_linker_10, # of connection points: 2
#     Edge 58, Type (0, 0), BuildingBlock: TEMPAE_clean_linker_10, # of connection points: 2
#     Edge 59, Type (0, 0), BuildingBlock: TEMPAE_clean_linker_10, # of connection points: 2
#     Edge 60, Type (0, 0), BuildingBlock: TEMPAE_clean_linker_10, # of connection points: 2
#     Edge 61, Type (0, 0), BuildingBlock: TEMPAE_clean_linker_10, # of connection points: 2
#     Edge 62, Type (0, 0), BuildingBlock: TEMPAE_clean_linker_10, # of connection points: 2
#     Edge 63, Type (0, 0), BuildingBlock: TEMPAE_clean_linker_10, # of connection points: 2
#     Edge 64, Type (0, 0), BuildingBlock: TEMPAE_clean_linker_10, # of connection points: 2
#     Edge 65, Type (0, 0), BuildingBlock: TEMPAE_clean_linker_10, # of connection points: 2
#     Edge 66, Type (0, 0), BuildingBlock: TEMPAE_clean_linker_10, # of connection points: 2
#     Edge 67, Type (0, 0), BuildingBlock: TEMPAE_clean_linker_10, # of connection points: 2
#     Edge 68, Type (0, 0), BuildingBlock: TEMPAE_clean_linker_10, # of connection points: 2
#     Edge 69, Type (0, 0), BuildingBlock: TEMPAE_clean_linker_10, # of connection points: 2
#     Edge 70, Type (0, 0), BuildingBlock: TEMPAE_clean_linker_10, # of connection points: 2
#     Edge 71, Type (0, 0), BuildingBlock: TEMPAE_clean_linker_10, # of connection points: 2
#     Edge 72, Type (0, 0), BuildingBlock: TEMPAE_clean_linker_10, # of connection points: 2
#     Edge 73, Type (0, 0), BuildingBlock: TEMPAE_clean_linker_10, # of connection points: 2
#     Edge 74, Type (0, 0), BuildingBlock: TEMPAE_clean_linker_10, # of connection points: 2
#     Edge 75, Type (0, 0), BuildingBlock: TEMPAE_clean_linker_10, # of connection points: 2
#     Edge 76, Type (0, 0), BuildingBlock: TEMPAE_clean_linker_10, # of connection points: 2
#     Edge 77, Type (0, 0), BuildingBlock: TEMPAE_clean_linker_10, # of connection points: 2
#     Edge 78, Type (0, 0), BuildingBlock: TEMPAE_clean_linker_10, # of connection points: 2
#     Edge 79, Type (0, 0), BuildingBlock: TEMPAE_clean_linker_10, # of connection points: 2
#     Edge 80, Type (0, 0), BuildingBlock: TEMPAE_clean_linker_10, # of connection points: 2
#     Edge 81, Type (0, 0), BuildingBlock: TEMPAE_clean_linker_10, # of connection points: 2
#     Edge 82, Type (0, 0), BuildingBlock: TEMPAE_clean_linker_10, # of connection points: 2
#     Edge 83, Type (0, 0), BuildingBlock: TEMPAE_clean_linker_10, # of connection points: 2
#     Edge 84, Type (0, 0), BuildingBlock: TEMPAE_clean_linker_10, # of connection points: 2
#     Edge 85, Type (0, 0), BuildingBlock: TEMPAE_clean_linker_10, # of connection points: 2
#     Edge 86, Type (0, 0), BuildingBlock: TEMPAE_clean_linker_10, # of connection points: 2
#     Edge 87, Type (0, 0), BuildingBlock: TEMPAE_clean_linker_10, # of connection points: 2
#     Edge 88, Type (0, 0), BuildingBlock: TEMPAE_clean_linker_10, # of connection points: 2
#     Edge 89, Type (0, 0), BuildingBlock: TEMPAE_clean_linker_10, # of connection points: 2
#     Edge 90, Type (0, 0), BuildingBlock: TEMPAE_clean_linker_10, # of connection points: 2
#     Edge 91, Type (0, 0), BuildingBlock: TEMPAE_clean_linker_10, # of connection points: 2
#     Edge 92, Type (0, 0), BuildingBlock: TEMPAE_clean_linker_10, # of connection points: 2
#     Edge 93, Type (0, 0), BuildingBlock: TEMPAE_clean_linker_10, # of connection points: 2
#     Edge 94, Type (0, 0), BuildingBlock: TEMPAE_clean_linker_10, # of connection points: 2
#     Edge 95, Type (0, 0), BuildingBlock: TEMPAE_clean_linker_10, # of connection points: 2
# Relax obj value: 0.123
# Max RMSD: 0.248
# Mean RMSD: 0.248
data_MOF--net-sxg--node1-KUMBOL_clean_sbu_0--edge1-TEMPAE_clean_linker_10
_symmetry_space_group_name_H-M    P1
_symmetry_Int_Tables_number       1
_symmetry_cell_setting            triclinic
loop_
_symmetry_equiv_pos_as_xyz
'x, y, z'
_cell_length_a     52.18641
_cell_length_b     52.116656
_cell_length_c     52.133324
_cell_angle_alpha  90.016065
_cell_angle_beta   90.028374
_cell_angle_gamma 89.967782
loop_
_atom_site_label
_atom_site_type_symbol
_atom_site_fract_x
_atom_site_fract_y
_atom_site_fract_z
_atom_type_partial_charge
Gd0 Gd 0.06737 0.32345 0.30677 0.0
Gd1 Gd 0.04423 0.38017 0.27127 0.0
C2 C 0.09252 0.41499 0.20721 0.0
C3 C 0.10443 0.45627 0.2254 0.0
C4 C 0.07712 0.42709 0.24933 0.0
C5 C 0.07848 0.40934 0.22961 0.0
C6 C 0.08956 0.45099 0.2472 0.0
C7 C 0.10597 0.43828 0.20547 0.0
C8 C 0.09209 0.39737 0.18696 0.0
C9 C 0.07709 0.37529 0.18897 0.0
N10 N 0.0651 0.3871 0.23183 0.0
C11 C 0.06332 0.37062 0.21151 0.0
H12 H 0.05196 0.3534 0.21276 0.0
C13 C 0.05838 0.43931 0.28885 0.0
N14 N 0.06284 0.42128 0.2703 0.0
C15 C 0.07041 0.46326 0.28762 0.0
C16 C 0.08629 0.46902 0.26685 0.0
H17 H 0.04619 0.43484 0.30498 0.0
H18 H 0.1171 0.44281 0.18853 0.0
H19 H 0.07221 0.37042 0.35222 0.0
H20 H 0.10273 0.40092 0.16948 0.0
H21 H 0.0762 0.36179 0.17322 0.0
H22 H 0.11444 0.47439 0.22357 0.0
H23 H 0.0442 0.26508 0.2922 0.0
H24 H 0.03529 0.34449 0.42015 0.0
H25 H 0.06042 0.37718 0.39695 0.0
H26 H 1.00062 0.26296 0.39647 0.0
H27 H 0.06742 0.47724 0.30268 0.0
H28 H 0.09546 0.48763 0.26591 0.0
H29 H 1.01317 0.30196 0.41977 0.0
H30 H 1.01829 0.23118 0.3122 0.0
N31 N 0.05407 0.3338 0.34908 0.0
C32 C 0.04031 0.34135 0.40023 0.0
C33 C 0.05458 0.35978 0.38724 0.0
C34 C 0.03261 0.31912 0.38737 0.0
C35 C 0.03967 0.31594 0.36141 0.0
C36 C 0.06147 0.35564 0.36169 0.0
N37 N 0.04066 0.291 0.32371 0.0
C38 C 0.03279 0.29388 0.34835 0.0
C39 C 0.02196 0.24883 0.32251 0.0
C40 C 1.01299 0.25192 0.34748 0.0
C41 C 0.03628 0.26837 0.31109 0.0
C42 C 1.01874 0.27441 0.3609 0.0
H43 H 1.00218 0.2366 0.35644 0.0
O44 O 0.08874 0.28748 0.30415 0.0
O45 O 0.07515 0.35023 0.27433 0.0
O46 O 0.02933 0.34462 0.25204 0.0
O47 O 0.03735 0.30887 0.27825 0.0
O48 O 0.08197 0.31169 0.26798 0.0
O49 O 0.10255 0.31768 0.32862 0.0
O50 O 1.01006 0.40295 0.27879 0.0
O51 O 0.03464 0.35073 0.30114 0.0
O52 O 0.09422 0.35774 0.31535 0.0
O53 O 0.08042 0.39277 0.29076 0.0
O54 O 0.02807 0.38875 0.31038 0.0
O55 O 1.01546 0.38593 0.24144 0.0
C56 C 0.0836 0.33426 0.25792 0.0
C57 C 1.01142 0.27769 0.38657 0.0
C58 C 1.01848 0.29991 0.39981 0.0
C59 C 0.1055 0.29384 0.32152 0.0
C60 C 0.11005 0.27468 0.34222 0.0
C61 C 0.09472 0.27531 0.36419 0.0
C62 C 0.129 0.25528 0.34003 0.0
C63 C 0.13158 0.23586 0.35918 0.0
C64 C 0.09612 0.25592 0.38237 0.0
C65 C 0.11377 0.23611 0.37962 0.0
C66 C 0.02659 0.32017 0.25806 0.0
C67 C 0.02455 0.3654 0.31769 0.0
C68 C 1.00116 0.40086 0.25559 0.0
C69 C 0.99163 0.42491 0.24385 0.0
C70 C 1.00859 0.44119 0.23089 0.0
C71 C 0.96559 0.43216 0.24633 0.0
C72 C 0.9566 0.45556 0.2358 0.0
C73 C 1.00001 0.46443 0.22082 0.0
C74 C 0.97437 0.47163 0.22331 0.0
C75 C 0.09632 0.38195 0.30725 0.0
H76 H 0.0815 0.29074 0.3673 0.0
H77 H 0.14161 0.25573 0.3236 0.0
H78 H 0.0833 0.25619 0.3987 0.0
H79 H 0.1131 0.22103 0.3938 0.0
H80 H 0.02852 0.43603 0.22865 0.0
H81 H 0.95241 0.41945 0.25613 0.0
H82 H 1.01335 0.47699 0.21108 0.0
H83 H 0.96853 0.49001 0.21558 0.0
Gd84 Gd 0.46851 0.71547 0.80775 0.0
Gd85 Gd 0.49517 0.65645 0.77921 0.0
C86 C 0.4502 0.60953 0.72066 0.0
C87 C 0.44199 0.57005 0.74409 0.0
C88 C 0.46581 0.60472 0.76416 0.0
C89 C 0.46309 0.6195 0.74225 0.0
C90 C 0.45577 0.57965 0.76514 0.0
C91 C 0.43909 0.58501 0.72194 0.0
C92 C 0.44978 0.62403 0.69809 0.0
C93 C 0.46302 0.64727 0.6971 0.0
N94 N 0.47464 0.64284 0.74141 0.0
C95 C 0.47583 0.6562 0.71892 0.0
H96 H 0.48612 0.67411 0.71782 0.0
C97 C 0.48461 0.59983 0.80523 0.0
N98 N 0.47917 0.61459 0.78424 0.0
C99 C 0.47494 0.5749 0.80712 0.0
C100 C 0.46034 0.56482 0.78706 0.0
H101 H 0.49598 0.60754 0.82074 0.0
H102 H 0.42891 0.57713 0.70563 0.0
H103 H 0.45765 0.67108 0.85565 0.0
H104 H 0.44007 0.61705 0.68109 0.0
H105 H 0.4634 0.65832 0.67952 0.0
H106 H 0.43394 0.5509 0.74456 0.0
H107 H 0.49845 0.77055 0.79164 0.0
H108 H 0.49257 0.69812 0.92398 0.0
H109 H 0.46635 0.6661 0.90103 0.0
H110 H 0.53267 0.77632 0.89881 0.0
H111 H 0.47886 0.56342 0.82397 0.0
H112 H 0.45316 0.54541 0.78846 0.0
H113 H 0.51715 0.73904 0.92296 0.0
H114 H 0.52608 0.80282 0.81149 0.0
N115 N 0.47874 0.70599 0.85131 0.0
C116 C 0.48899 0.70042 0.90364 0.0
C117 C 0.47412 0.6824 0.89078 0.0
C118 C 0.49909 0.72118 0.8901 0.0
C119 C 0.49409 0.72321 0.8635 0.0
C120 C 0.46909 0.68551 0.86464 0.0
N121 N 0.49788 0.74579 0.82436 0.0
C122 C 0.50394 0.74364 0.84963 0.0
C123 C 0.52028 0.78612 0.82237 0.0
C124 C 0.52693 0.78395 0.84813 0.0
C125 C 0.50511 0.76722 0.81097 0.0
C126 C 0.51825 0.76291 0.86224 0.0
H127 H 0.5381 0.799 0.85712 0.0
O128 O 0.45068 0.75317 0.80325 0.0
O129 O 0.46311 0.68525 0.77821 0.0
O130 O 0.50845 0.69014 0.75577 0.0
O131 O 0.49619 0.72844 0.77616 0.0
O132 O 0.45257 0.72208 0.76812 0.0
O133 O 0.43276 0.725 0.82733 0.0
O134 O 0.53019 0.63549 0.78828 0.0
O135 O 0.50281 0.68983 0.80513 0.0
O136 O 0.44038 0.68189 0.81611 0.0
O137 O 0.45877 0.6445 0.79904 0.0
O138 O 0.51203 0.654 0.81908 0.0
O139 O 0.52423 0.6499 0.74992 0.0
C140 C 0.45352 0.69863 0.76021 0.0
C141 C 0.52255 0.76123 0.88874 0.0
C142 C 0.51346 0.74018 0.90254 0.0
C143 C 0.43224 0.74877 0.81947 0.0
C144 C 0.42781 0.76888 0.83939 0.0
C145 C 0.44339 0.76916 0.86118 0.0
C146 C 0.40866 0.78811 0.83683 0.0
C147 C 0.40621 0.80808 0.85547 0.0
C148 C 0.44219 0.78913 0.87872 0.0
C149 C 0.42435 0.80868 0.87559 0.0
C150 C 0.50864 0.7154 0.75806 0.0
C151 C 0.51366 0.67825 0.82346 0.0
C152 C 0.53892 0.63619 0.76489 0.0
C153 C 0.54865 0.61158 0.75445 0.0
C154 C 0.53168 0.59445 0.7426 0.0
C155 C 0.57488 0.60487 0.75647 0.0
C156 C 0.58392 0.58117 0.74661 0.0
C157 C 0.54027 0.57088 0.73345 0.0
C158 C 0.56606 0.56421 0.7355 0.0
C159 C 0.44033 0.65659 0.81159 0.0
H160 H 0.45662 0.75393 0.86468 0.0
H161 H 0.39574 0.78712 0.82063 0.0
H162 H 0.45524 0.78948 0.89487 0.0
H163 H 0.42503 0.82425 0.88927 0.0
H164 H 0.51173 0.59928 0.74036 0.0
H165 H 0.58818 0.61822 0.76523 0.0
H166 H 0.52687 0.55772 0.72462 0.0
H167 H 0.57199 0.54562 0.72838 0.0
Gd168 Gd 0.56771 0.21396 0.73348 0.0
Gd169 Gd 0.54274 0.15692 0.7665 0.0
C170 C 0.59152 0.12527 0.83209 0.0
C171 C 0.60477 0.08388 0.8152 0.0
C172 C 0.57714 0.11182 0.79006 0.0
C173 C 0.57809 0.13023 0.80912 0.0
C174 C 0.58947 0.08796 0.79341 0.0
C175 C 0.60576 0.10252 0.83455 0.0
C176 C 0.58888 0.14249 0.8525 0.0
C177 C 0.57247 0.16346 0.85004 0.0
N178 N 0.56348 0.15163 0.80641 0.0
C179 C 0.55967 0.16765 0.82685 0.0
H180 H 0.5472 0.18404 0.82541 0.0
C181 C 0.55497 0.09634 0.75368 0.0
N182 N 0.56158 0.11606 0.76967 0.0
C183 C 0.56669 0.07234 0.75621 0.0
C184 C 0.58462 0.06836 0.77571 0.0
H185 H 0.54135 0.09952 0.73837 0.0
H186 H 0.61655 0.09859 0.85188 0.0
H187 H 0.57198 0.16771 0.68636 0.0
H188 H 0.59847 0.13913 0.87061 0.0
H189 H 0.56975 0.17652 0.86597 0.0
H190 H 0.61478 0.06586 0.8179 0.0
H191 H 0.53939 0.27044 0.75072 0.0
H192 H 0.53918 0.19767 0.61818 0.0
H193 H 0.56209 0.16321 0.64114 0.0
H194 H 0.50337 0.27781 0.64406 0.0
H195 H 0.56198 0.05699 0.74305 0.0
H196 H 0.59358 0.0497 0.77768 0.0
H197 H 0.51811 0.24061 0.61932 0.0
H198 H 0.51294 0.30378 0.73139 0.0
N199 N 0.5553 0.20496 0.69044 0.0
C200 C 0.54358 0.19992 0.63837 0.0
C201 C 0.5565 0.18047 0.65125 0.0
C202 C 0.53602 0.22183 0.6518 0.0
C203 C 0.54206 0.2238 0.67817 0.0
C204 C 0.56233 0.18333 0.67724 0.0
N205 N 0.53966 0.24616 0.7175 0.0
C206 C 0.53392 0.2449 0.6921 0.0
C207 C 0.51834 0.28714 0.72019 0.0
C208 C 0.51168 0.28565 0.6944 0.0
C209 C 0.53281 0.26753 0.73131 0.0
C210 C 0.51971 0.26458 0.67993 0.0
H211 H 0.50071 0.30104 0.68575 0.0
O212 O 0.60458 0.22 0.71464 0.0
O213 O 0.57524 0.18508 0.76399 0.0
O214 O 0.52648 0.19183 0.7855 0.0
O215 O 0.54245 0.22898 0.76606 0.0
O216 O 0.58415 0.22283 0.77241 0.0
O217 O 0.58491 0.25196 0.7318 0.0
O218 O 0.50908 0.13345 0.75874 0.0
O219 O 0.53366 0.18802 0.73791 0.0
O220 O 0.59388 0.17914 0.72392 0.0
O221 O 0.57559 0.14251 0.74266 0.0
O222 O 0.52628 0.15034 0.72726 0.0
O223 O 0.51363 0.15118 0.79584 0.0
C224 C 0.58488 0.19961 0.781 0.0
C225 C 0.51411 0.26283 0.65368 0.0
C226 C 0.52244 0.24162 0.63961 0.0
C227 C 0.60537 0.2445 0.71975 0.0
C228 C 0.62988 0.25524 0.72915 0.0
C229 C 0.64207 0.24413 0.75034 0.0
C230 C 0.64071 0.27734 0.71757 0.0
C231 C 0.6636 0.28838 0.72729 0.0
C232 C 0.66435 0.255 0.76022 0.0
C233 C 0.6749 0.27691 0.74905 0.0
C234 C 0.52819 0.21694 0.78336 0.0
C235 C 0.52345 0.17406 0.72076 0.0
C236 C 0.50001 0.13553 0.78187 0.0
C237 C 0.4916 0.11139 0.79408 0.0
C238 C 0.50937 0.09574 0.80679 0.0
C239 C 0.46575 0.10357 0.79259 0.0
C240 C 0.45775 0.08003 0.80351 0.0
C241 C 0.50182 0.07231 0.81714 0.0
C242 C 0.47635 0.06439 0.81537 0.0
C243 C 0.59316 0.15382 0.72829 0.0
H244 H 0.63422 0.22721 0.75944 0.0
H245 H 0.63136 0.28571 0.70101 0.0
H246 H 0.67341 0.24655 0.77681 0.0
H247 H 0.69181 0.28506 0.75789 0.0
H248 H 0.52912 0.10157 0.80868 0.0
H249 H 0.45195 0.116 0.78327 0.0
H250 H 0.51579 0.06018 0.82656 0.0
H251 H 0.4713 0.04586 0.82326 0.0
Gd252 Gd 0.97022 0.82416 0.2329 0.0
Gd253 Gd 0.99279 0.88097 0.26792 0.0
C254 C 0.94408 0.91664 0.33118 0.0
C255 C 0.93238 0.95775 0.31245 0.0
C256 C 0.95968 0.92815 0.28896 0.0
C257 C 0.95818 0.91064 0.3089 0.0
C258 C 0.94732 0.95214 0.29077 0.0
C259 C 0.93071 0.94002 0.33259 0.0
C260 C 0.94435 0.89926 0.35163 0.0
C261 C 0.95926 0.87707 0.34994 0.0
N262 N 0.97149 0.88831 0.30701 0.0
C263 C 0.97311 0.87207 0.32752 0.0
H264 H 0.98445 0.85479 0.32649 0.0
C265 C 0.97833 0.93968 0.2492 0.0
N266 N 0.97393 0.92198 0.26806 0.0
C267 C 0.96644 0.96372 0.25014 0.0
C268 C 0.95068 0.96989 0.2709 0.0
H269 H 0.99045 0.93491 0.23309 0.0
H270 H 0.91953 0.94482 0.34943 0.0
H271 H 0.96569 0.87457 0.19013 0.0
H272 H 0.93366 0.90309 0.36903 0.0
H273 H 0.96003 0.86376 0.36585 0.0
H274 H 0.92242 0.97593 0.31403 0.0
H275 H 1.00124 0.76825 0.24565 0.0
H276 H 0.99471 0.84936 0.11829 0.0
H277 H 0.97355 0.88236 0.14486 0.0
H278 H 0.03083 0.76724 0.13669 0.0
H279 H 0.96942 0.97746 0.23487 0.0
H280 H 0.94154 0.98855 0.27159 0.0
H281 H 1.01522 0.80619 0.11528 0.0
H282 H 0.02662 0.73612 0.2228 0.0
N283 N 0.981 0.83649 0.19023 0.0
C284 C 0.99097 0.84555 0.13838 0.0
C285 C 0.979 0.86417 0.15328 0.0
C286 C 0.99865 0.82253 0.14972 0.0
C287 C 0.99357 0.81857 0.17605 0.0
C288 C 0.97414 0.85935 0.17918 0.0
N289 N 0.99796 0.79371 0.21359 0.0
C290 C 1.00234 0.79659 0.18808 0.0
C291 C 0.02018 0.75317 0.21284 0.0
C292 C 0.02508 0.7561 0.18677 0.0
C293 C 1.00628 0.77197 0.22592 0.0
C294 C 1.01609 0.7779 0.17403 0.0
H295 H 0.03572 0.74139 0.17663 0.0
O296 O 0.93192 0.81752 0.21729 0.0
O297 O 0.96213 0.85078 0.26534 0.0
O298 O 1.00859 0.84613 0.28763 0.0
O299 O 0.99907 0.80974 0.2629 0.0
O300 O 0.95694 0.81207 0.272 0.0
O301 O 0.95486 0.78552 0.22951 0.0
O302 O 0.02646 0.90457 0.261 0.0
O303 O 1.00293 0.85117 0.23854 0.0
O304 O 0.94221 0.85773 0.22433 0.0
O305 O 0.95626 0.89296 0.24854 0.0
O306 O 1.00964 0.88903 0.22891 0.0
O307 O 0.02097 0.88698 0.29816 0.0
C308 C 0.95434 0.83466 0.28186 0.0
C309 C 0.02046 0.78146 0.14774 0.0
C310 C 1.01161 0.80363 0.13558 0.0
C311 C 0.93292 0.79269 0.22027 0.0
C312 C 0.91015 0.77969 0.23106 0.0
C313 C 0.90038 0.78722 0.25493 0.0
C314 C 0.89888 0.75864 0.21808 0.0
C315 C 0.87788 0.74531 0.22895 0.0
C316 C 0.88022 0.77372 0.26608 0.0
C317 C 0.86902 0.75307 0.25327 0.0
C318 C 1.01064 0.82143 0.28244 0.0
C319 C 1.01314 0.86557 0.22192 0.0
C320 C 0.03497 0.90252 0.28438 0.0
C321 C 0.04345 0.92668 0.29656 0.0
C322 C 0.02592 0.94201 0.30997 0.0
C323 C 0.06911 0.93491 0.29416 0.0
C324 C 0.0772 0.95842 0.30508 0.0
C325 C 0.0336 0.96539 0.32041 0.0
C326 C 0.05891 0.97362 0.31792 0.0
C327 C 0.93999 0.88196 0.23252 0.0
H328 H 0.90852 0.80331 0.26513 0.0
H329 H 0.90637 0.75281 0.19959 0.0
H330 H 0.87339 0.77908 0.28491 0.0
H331 H 0.8536 0.74287 0.26271 0.0
H332 H 1.00629 0.93598 0.31233 0.0
H333 H 0.08274 0.92285 0.28413 0.0
H334 H 0.01983 0.97723 0.33048 0.0
H335 H 0.0641 0.99206 0.32596 0.0
Gd336 Gd 0.30134 0.07074 0.32431 0.0
Gd337 Gd 0.27442 0.04279 0.38237 0.0
C338 C 0.20791 0.0888 0.41631 0.0
C339 C 0.22592 0.10357 0.45666 0.0
C340 C 0.25089 0.07621 0.42831 0.0
C341 C 0.23113 0.07607 0.41071 0.0
C342 C 0.24801 0.0889 0.45204 0.0
C343 C 0.20587 0.10355 0.43877 0.0
C344 C 0.18693 0.08498 0.40006 0.0
C345 C 0.18904 0.06777 0.37968 0.0
N346 N 0.23355 0.06107 0.38956 0.0
C347 C 0.21255 0.05583 0.37474 0.0
H348 H 0.2137 0.04284 0.35874 0.0
C349 C 0.28874 0.05588 0.44263 0.0
N350 N 0.2717 0.06142 0.42346 0.0
C351 C 0.28663 0.06787 0.46654 0.0
C352 C 0.26659 0.08506 0.47101 0.0
H353 H 0.30458 0.04299 0.43904 0.0
H354 H 0.18837 0.11385 0.44315 0.0
H355 H 0.35273 0.08475 0.3637 0.0
H356 H 0.16873 0.09429 0.40375 0.0
H357 H 0.17268 0.06398 0.36749 0.0
H358 H 0.22358 0.11389 0.47456 0.0
H359 H 0.28144 0.03773 0.271 0.0
H360 H 0.41877 0.04898 0.33295 0.0
H361 H 0.39818 0.07622 0.36566 0.0
H362 H 0.38793 1.00506 0.25891 0.0
H363 H 0.30051 0.06391 0.48145 0.0
H364 H 0.26491 0.09421 0.48959 0.0
H365 H 0.41488 0.02349 0.293 0.0
H366 H 0.29905 1.00829 0.23958 0.0
N367 N 0.34549 0.06129 0.33076 0.0
C368 C 0.39828 0.05225 0.33217 0.0
C369 C 0.38673 0.06757 0.35065 0.0
C370 C 0.38329 0.04148 0.31279 0.0
C371 C 0.35657 0.04609 0.31268 0.0
C372 C 0.36039 0.07216 0.3495 0.0
N373 N 0.31576 0.04027 0.29368 0.0
C374 C 0.3413 0.03514 0.29384 0.0
C375 C 0.31108 1.01532 0.25497 0.0
C376 C 0.33701 1.00934 0.25539 0.0
C377 C 0.30094 0.0315 0.27372 0.0
C378 C 0.35256 0.01982 0.27448 0.0
H379 H 0.34499 0.99734 0.2404 0.0
O380 O 0.3196 0.10742 0.31618 0.0
O381 O 0.2731 0.07669 0.35564 0.0
O382 O 0.2546 0.02539 0.34827 0.0
O383 O 0.26716 0.04692 0.31103 0.0
O384 O 0.26163 0.08636 0.3188 0.0
O385 O 0.30054 0.08684 0.2858 0.0
O386 O 0.28535 1.01044 0.40644 0.0
O387 O 0.30036 0.03572 0.34889 0.0
O388 O 0.3105 0.09744 0.35885 0.0
O389 O 0.29909 0.07524 0.39617 0.0
O390 O 0.31495 0.02775 0.38481 0.0
O391 O 0.24813 1.01109 0.38828 0.0
C392 C 0.25474 0.0861 0.3426 0.0
C393 C 0.37911 1.01612 0.27411 0.0
C394 C 0.39441 0.02664 0.29338 0.0
C395 C 0.31315 0.10743 0.29202 0.0
C396 C 0.30382 0.13182 0.28109 0.0
C397 C 0.28194 0.14372 0.29112 0.0
C398 C 0.3167 0.14308 0.26008 0.0
C399 C 0.30761 0.16608 0.24883 0.0
C400 C 0.27272 0.16629 0.28012 0.0
C401 C 0.28522 0.17726 0.25912 0.0
C402 C 0.253 0.02985 0.32342 0.0
C403 C 0.31927 0.02592 0.36053 0.0
C404 C 0.26322 0.99921 0.40429 0.0
C405 C 0.25153 0.98997 0.42826 0.0
C406 C 0.23453 1.00558 0.44202 0.0
C407 C 0.25715 0.96512 0.43727 0.0
C408 C 0.2454 0.95556 0.45973 0.0
C409 C 0.22299 0.99645 0.4643 0.0
C410 C 0.22815 0.97164 0.47299 0.0
C411 C 0.30986 0.09493 0.38441 0.0
H412 H 0.27191 0.13551 0.30733 0.0
H413 H 0.33384 0.13396 0.25272 0.0
H414 H 0.25565 0.17526 0.28777 0.0
H415 H 0.27696 0.19436 0.25074 0.0
H416 H 0.22993 0.0247 0.43539 0.0
H417 H 0.27062 0.95335 0.42671 0.0
H418 H 0.20966 1.00851 0.47468 0.0
H419 H 0.21804 0.96494 0.48983 0.0
Gd420 Gd 0.23229 0.96921 0.81984 0.0
Gd421 Gd 0.25615 0.99451 0.88113 0.0
C422 C 0.31845 0.9527 0.92638 0.0
C423 C 0.29567 0.94021 0.96502 0.0
C424 C 0.27365 0.96379 0.93133 0.0
C425 C 0.29579 0.96395 0.91674 0.0
C426 C 0.27351 0.95246 0.95587 0.0
C427 C 0.31806 0.94018 0.95022 0.0
C428 C 0.34113 0.9555 0.9124 0.0
C429 C 0.34111 0.97031 0.89013 0.0
N430 N 0.29572 0.97693 0.89415 0.0
C431 C 0.3182 0.98119 0.88141 0.0
H432 H 0.31872 0.99252 0.86416 0.0
C433 C 0.23128 0.97901 0.93706 0.0
N434 N 0.25262 0.97603 0.92211 0.0
C435 C 0.23018 0.96792 0.96144 0.0
C436 C 0.25136 0.95449 0.97082 0.0
H437 H 0.21491 0.98948 0.92983 0.0
H438 H 0.33521 0.93123 0.9578 0.0
H439 H 0.1819 0.94846 0.85785 0.0
H440 H 0.35892 0.94715 0.91914 0.0
H441 H 0.35871 0.97326 0.87957 0.0
H442 H 0.29588 0.93121 0.98375 0.0
H443 H 0.2502 1.01153 0.77258 0.0
H444 H 0.11343 0.98136 0.8294 0.0
H445 H 0.13591 0.95271 0.85957 0.0
H446 H 0.14127 0.03697 0.76264 0.0
H447 H 0.21311 0.9699 0.97306 0.0
H448 H 0.25072 0.94645 0.9899 0.0
H449 H 0.11564 1.01248 0.79345 0.0
H450 H 0.23051 0.04275 0.74454 0.0
N451 N 0.18745 0.97464 0.82678 0.0
C452 C 0.13412 0.97969 0.82853 0.0
C453 C 0.14672 0.96355 0.84556 0.0
C454 C 0.14836 0.9938 0.81084 0.0
C455 C 0.17538 0.99116 0.81058 0.0
C456 C 0.17334 0.96119 0.84439 0.0
N457 N 0.21593 1.00296 0.79383 0.0
C458 C 0.18998 1.00596 0.79401 0.0
C459 C 0.21893 0.03291 0.75867 0.0
C460 C 0.19257 0.03644 0.75902 0.0
C461 C 0.23023 1.01559 0.77567 0.0
C462 C 0.1777 0.02273 0.77653 0.0
H463 H 0.1838 0.04936 0.74528 0.0
O464 O 0.24132 0.95601 0.78138 0.0
O465 O 0.25986 0.96342 0.85169 0.0
O466 O 0.28001 1.01114 0.84936 0.0
O467 O 0.26546 0.99573 0.80973 0.0
O468 O 0.27204 0.95267 0.81578 0.0
O469 O 0.21324 0.93542 0.80349 0.0
O470 O 0.2435 0.02659 0.90486 0.0
O471 O 0.2315 1.00244 0.84683 0.0
O472 O 0.22406 0.93886 0.85179 0.0
O473 O 0.23732 0.95691 0.89089 0.0
O474 O 0.2149 1.00755 0.8823 0.0
O475 O 0.28138 0.02688 0.88811 0.0
C476 C 0.27877 0.95398 0.83955 0.0
C477 C 0.15091 0.0247 0.77632 0.0
C478 C 0.1363 1.01052 0.79362 0.0
C479 C 0.22446 0.9376 0.78123 0.0
C480 C 0.20817 0.93578 0.75779 0.0
C481 C 0.19775 0.95816 0.74714 0.0
C482 C 0.20438 0.9122 0.74477 0.0
C483 C 0.19021 0.91132 0.72146 0.0
C484 C 0.18356 0.95746 0.72462 0.0
C485 C 0.17993 0.93439 0.7118 0.0
C486 C 0.28089 1.00998 0.8241 0.0
C487 C 0.21171 1.01081 0.85803 0.0
C488 C 0.26536 0.03854 0.90341 0.0
C489 C 0.27602 0.04853 0.92771 0.0
C490 C 0.29234 0.03313 0.94249 0.0
C491 C 0.27048 0.07379 0.93591 0.0
C492 C 0.28155 0.08377 0.95865 0.0
C493 C 0.30328 0.04269 0.96488 0.0
C494 C 0.29819 0.06775 0.97278 0.0
C495 C 0.22646 0.93834 0.87744 0.0
H496 H 0.20122 0.97646 0.75565 0.0
H497 H 0.21268 0.89481 0.75256 0.0
H498 H 0.17591 0.97506 0.71668 0.0
H499 H 0.16976 0.93492 0.69371 0.0
H500 H 0.29698 1.01383 0.93653 0.0
H501 H 0.25764 0.08552 0.92454 0.0
H502 H 0.31613 0.03074 0.97598 0.0
H503 H 0.30793 0.07467 0.98976 0.0
Gd504 Gd 0.80687 0.46931 0.7155 0.0
Gd505 Gd 0.77092 0.49445 0.66049 0.0
C506 C 0.70285 0.44633 0.63342 0.0
C507 C 0.71649 0.43341 0.59076 0.0
C508 C 0.74347 0.46121 0.61671 0.0
C509 C 0.72583 0.46028 0.63643 0.0
C510 C 0.73855 0.44862 0.59328 0.0
C511 C 0.69868 0.43222 0.61084 0.0
C512 C 0.68439 0.44768 0.65281 0.0
C513 C 0.68859 0.46358 0.67393 0.0
N514 N 0.73038 0.47436 0.65787 0.0
C515 C 0.71161 0.47716 0.67598 0.0
H516 H 0.71444 0.48911 0.69258 0.0
C517 C 0.77978 0.48179 0.59921 0.0
N518 N 0.76452 0.4761 0.61975 0.0
C519 C 0.77567 0.46985 0.57554 0.0
C520 C 0.75535 0.45264 0.57274 0.0
H521 H 0.79577 0.49478 0.60148 0.0
H522 H 0.68134 0.42107 0.60836 0.0
H523 H 0.85177 0.46669 0.66683 0.0
H524 H 0.66654 0.43717 0.65129 0.0
H525 H 0.67417 0.46528 0.68875 0.0
H526 H 0.71258 0.42323 0.57306 0.0
H527 H 0.79246 0.49548 0.77356 0.0
H528 H 0.92079 0.49988 0.69408 0.0
H529 H 0.89646 0.47738 0.66033 0.0
H530 H 0.89871 0.53307 0.77643 0.0
H531 H 0.78822 0.47385 0.55952 0.0
H532 H 0.75222 0.44337 0.55439 0.0
H533 H 0.92154 0.52011 0.73738 0.0
H534 H 0.81323 0.52114 0.80679 0.0
N535 N 0.84941 0.48216 0.70479 0.0
C536 C 0.90087 0.495 0.6973 0.0
C537 C 0.88722 0.4823 0.67825 0.0
C538 C 0.88854 0.50175 0.72008 0.0
C539 C 0.86246 0.49509 0.72332 0.0
C540 C 0.86155 0.47593 0.68231 0.0
N541 N 0.82446 0.49617 0.74784 0.0
C542 C 0.84962 0.50237 0.74538 0.0
C543 C 0.82361 0.51633 0.78947 0.0
C544 C 0.84918 0.52339 0.78684 0.0
C545 C 0.81166 0.50233 0.77002 0.0
C546 C 0.86259 0.51624 0.76478 0.0
H547 H 0.85847 0.53407 0.80206 0.0
O548 O 0.8214 0.43004 0.71859 0.0
O549 O 0.77455 0.46172 0.68852 0.0
O550 O 0.75404 0.51135 0.69617 0.0
O551 O 0.77561 0.49548 0.73221 0.0
O552 O 0.76803 0.45541 0.72725 0.0
O553 O 0.81384 0.45176 0.75272 0.0
O554 O 0.77842 0.52754 0.63611 0.0
O555 O 0.80098 0.50325 0.69 0.0
O556 O 0.81565 0.4441 0.67997 0.0
O557 O 0.79361 0.46141 0.64472 0.0
O558 O 0.80995 0.51077 0.65206 0.0
O559 O 0.74258 0.52479 0.65674 0.0
C560 C 0.75831 0.45314 0.70455 0.0
C561 C 0.88853 0.5225 0.76171 0.0
C562 C 0.9015 0.51516 0.73948 0.0
C563 C 0.82121 0.42984 0.74359 0.0
C564 C 0.81084 0.4069 0.75671 0.0
C565 C 0.78604 0.39833 0.75116 0.0
C566 C 0.82514 0.39453 0.77624 0.0
C567 C 0.81445 0.37402 0.79059 0.0
C568 C 0.77513 0.37857 0.7654 0.0
C569 C 0.78897 0.36674 0.78502 0.0
C570 C 0.75779 0.50997 0.72111 0.0
C571 C 0.81738 0.51369 0.67548 0.0
C572 C 0.75605 0.53776 0.6401 0.0
C573 C 0.74254 0.54761 0.61726 0.0
C574 C 0.72345 0.53295 0.60534 0.0
C575 C 0.74871 0.57206 0.6074 0.0
C576 C 0.73545 0.58222 0.586 0.0
C577 C 0.71027 0.54271 0.58425 0.0
C578 C 0.71596 0.56713 0.57481 0.0
C579 C 0.80934 0.44442 0.65509 0.0
H580 H 0.77489 0.4072 0.73612 0.0
H581 H 0.84446 0.40101 0.78014 0.0
H582 H 0.75564 0.37263 0.76152 0.0
H583 H 0.77928 0.35214 0.79611 0.0
H584 H 0.71855 0.51407 0.61249 0.0
H585 H 0.76387 0.583 0.61643 0.0
H586 H 0.6953 0.53142 0.57534 0.0
H587 H 0.70459 0.57429 0.55899 0.0
Gd588 Gd 0.73227 0.56888 0.21544 0.0
Gd589 Gd 0.76552 0.54482 0.15852 0.0
C590 C 0.83002 0.59017 0.12074 0.0
C591 C 0.8116 0.60041 0.07913 0.0
C592 C 0.78731 0.57541 0.11008 0.0
C593 C 0.80733 0.57708 0.12744 0.0
C594 C 0.78944 0.58654 0.08552 0.0
C595 C 0.83181 0.60229 0.09674 0.0
C596 C 0.85049 0.59011 0.13809 0.0
C597 C 0.84841 0.57634 0.16094 0.0
N598 N 0.80512 0.56488 0.15036 0.0
C599 C 0.82564 0.5634 0.16661 0.0
H600 H 0.82442 0.55292 0.18438 0.0
C601 C 0.74674 0.55796 0.09964 0.0
N602 N 0.76593 0.5623 0.11698 0.0
C603 C 0.74801 0.56862 0.07506 0.0
C604 C 0.76937 0.58312 0.06803 0.0
H605 H 0.7302 0.54675 0.10504 0.0
H606 H 0.84898 0.61265 0.09138 0.0
H607 H 0.68859 0.57536 0.16604 0.0
H608 H 0.86819 0.60006 0.13373 0.0
H609 H 0.86433 0.5757 0.17425 0.0
H610 H 0.81344 0.60941 0.06049 0.0
H611 H 0.74545 0.53704 0.27086 0.0
H612 H 0.61722 0.54564 0.1914 0.0
H613 H 0.64329 0.56772 0.15867 0.0
H614 H 0.63667 0.50737 0.27225 0.0
H615 H 0.73254 0.56562 0.06156 0.0
H616 H 0.77033 0.59127 0.04895 0.0
H617 H 0.61475 0.52419 0.23411 0.0
H618 H 0.72301 0.51083 0.3025 0.0
N619 N 0.68933 0.55881 0.20357 0.0
C620 C 0.63736 0.54921 0.19502 0.0
C621 C 0.65198 0.5617 0.17655 0.0
C622 C 0.64901 0.5409 0.21765 0.0
C623 C 0.67541 0.54578 0.22135 0.0
C624 C 0.67794 0.56639 0.18112 0.0
N625 N 0.71325 0.54069 0.24563 0.0
C626 C 0.68772 0.53641 0.24293 0.0
C627 C 0.7129 0.51761 0.28568 0.0
C628 C 0.68685 0.51269 0.28286 0.0
C629 C 0.72575 0.53199 0.26711 0.0
C630 C 0.67388 0.52222 0.26144 0.0
H631 H 0.67688 0.50171 0.29741 0.0
O632 O 0.71622 0.60695 0.2227 0.0
O633 O 0.76398 0.57619 0.18799 0.0
O634 O 0.78587 0.5292 0.19296 0.0
O635 O 0.76307 0.54072 0.22995 0.0
O636 O 0.77157 0.58254 0.22634 0.0
O637 O 0.72968 0.58405 0.25424 0.0
O638 O 0.75706 0.51098 0.13562 0.0
O639 O 0.73666 0.53536 0.18907 0.0
O640 O 0.72433 0.59714 0.18167 0.0
O641 O 0.74678 0.58151 0.14596 0.0
O642 O 0.72589 0.52927 0.15139 0.0
O643 O 0.7946 0.51549 0.15276 0.0
C644 C 0.7809 0.58436 0.20347 0.0
C645 C 0.64755 0.51804 0.25814 0.0
C646 C 0.6351 0.52757 0.23642 0.0
C647 C 0.71973 0.60584 0.24745 0.0
C648 C 0.73006 0.62887 0.2605 0.0
C649 C 0.75389 0.6389 0.25328 0.0
C650 C 0.71663 0.64017 0.28127 0.0
C651 C 0.72704 0.66137 0.29476 0.0
C652 C 0.76452 0.65937 0.26678 0.0
C653 C 0.75135 0.67048 0.28726 0.0
C654 C 0.78185 0.52829 0.21789 0.0
C655 C 0.71949 0.52559 0.17496 0.0
C656 C 0.7802 0.50184 0.13745 0.0
C657 C 0.79175 0.49284 0.11326 0.0
C658 C 0.80845 0.50866 0.09936 0.0
C659 C 0.78553 0.46833 0.10362 0.0
C660 C 0.79595 0.45964 0.08018 0.0
C661 C 0.81872 0.50028 0.07616 0.0
C662 C 0.81262 0.47601 0.06664 0.0
C663 C 0.73176 0.59866 0.1571 0.0
H664 H 0.76446 0.63071 0.23743 0.0
H665 H 0.69814 0.63249 0.28676 0.0
H666 H 0.78326 0.66653 0.26157 0.0
H667 H 0.76055 0.686 0.29754 0.0
H668 H 0.81364 0.52742 0.10646 0.0
H669 H 0.77249 0.45619 0.1143 0.0
H670 H 0.83168 0.51258 0.0656 0.0
H671 H 0.8215 0.46986 0.0489 0.0
Gd672 Gd 0.32493 0.30545 0.06712 0.0
Gd673 Gd 0.3831 0.27211 0.04551 0.0
C674 C 0.41838 0.21136 0.09795 0.0
C675 C 0.45989 0.23004 0.10778 0.0
C676 C 0.43016 0.25236 0.07963 0.0
C677 C 0.41247 0.23287 0.08261 0.0
C678 C 0.45448 0.25063 0.09126 0.0
C679 C 0.44178 0.21051 0.11124 0.0
C680 C 0.4011 0.19086 0.09855 0.0
C681 C 0.37936 0.19153 0.08299 0.0
N682 N 0.39041 0.23398 0.06885 0.0
C683 C 0.37456 0.21312 0.06776 0.0
H684 H 0.35763 0.21323 0.05591 0.0
C685 C 0.44289 0.28879 0.05585 0.0
N686 N 0.42439 0.27189 0.06344 0.0
C687 C 0.46741 0.28771 0.06663 0.0
C688 C 0.47307 0.26888 0.08485 0.0
H689 H 0.43848 0.30347 0.04189 0.0
H690 H 0.44651 0.19429 0.12336 0.0
H691 H 0.37263 0.35134 0.07147 0.0
H692 H 0.40485 0.17406 0.11021 0.0
H693 H 0.36623 0.17546 0.08273 0.0
H694 H 0.47835 0.22854 0.11717 0.0
H695 H 0.26954 0.28951 0.03678 0.0
H696 H 0.34392 0.42094 0.04056 0.0
H697 H 0.37799 0.39669 0.06269 0.0
H698 H 0.26351 0.39738 1.00395 0.0
H699 H 0.4819 0.30141 0.06093 0.0
H700 H 0.49212 0.26793 0.09302 0.0
H701 H 0.30108 0.42112 1.01941 0.0
H702 H 0.23659 0.31001 1.01052 0.0
N703 N 0.33497 0.34859 0.05553 0.0
C704 C 0.3412 0.40073 0.04464 0.0
C705 C 0.36042 0.38713 0.05715 0.0
C706 C 0.31901 0.38796 0.0369 0.0
C707 C 0.31646 0.36153 0.04248 0.0
C708 C 0.357 0.3611 0.06248 0.0
N709 N 0.29361 0.32268 0.03889 0.0
C710 C 0.29524 0.34819 0.03385 0.0
C711 C 0.25313 0.32093 1.01665 0.0
C712 C 0.25487 0.34695 1.01094 0.0
C713 C 0.27245 0.30917 0.031 0.0
C714 C 0.27595 0.36096 0.01967 0.0
H715 H 0.23975 0.35608 0.99999 0.0
O716 O 0.31727 0.32165 0.10516 0.0
O717 O 0.35305 0.27468 0.07654 0.0
O718 O 0.34912 0.25083 0.03082 0.0
O719 O 0.31188 0.27453 0.03813 0.0
O720 O 0.31448 0.2662 0.08076 0.0
O721 O 0.28619 0.30724 0.08246 0.0
O722 O 0.40441 0.27914 1.01026 0.0
O723 O 0.3523 0.30024 0.03467 0.0
O724 O 0.35874 0.31538 0.09476 0.0
O725 O 0.39613 0.29592 0.07876 0.0
O726 O 0.38989 0.31107 0.02813 0.0
O727 O 0.39074 0.24104 1.0186 0.0
C728 C 0.33745 0.25771 0.08445 0.0
C729 C 0.27818 0.3873 1.01467 0.0
C730 C 0.29957 0.40079 0.02343 0.0
C731 C 0.29264 0.31748 0.10418 0.0
C732 C 0.2799 0.30662 0.12721 0.0
C733 C 0.28826 0.28312 0.13716 0.0
C734 C 0.2582 0.31879 0.13832 0.0
C735 C 0.24494 0.30732 0.15919 0.0
C736 C 0.27491 0.27133 0.15704 0.0
C737 C 0.25352 0.28315 0.16787 0.0
C738 C 0.3244 0.25483 0.02764 0.0
C739 C 0.36625 0.31729 0.02446 0.0
C740 C 0.40428 0.25526 1.00311 0.0
C741 C 0.42913 0.24487 0.99427 0.0
C742 C 0.44588 0.23316 1.01173 0.0
C743 C 0.43653 0.24723 0.96829 0.0
C744 C 0.46055 0.23786 0.95983 0.0
C745 C 0.46975 0.22429 1.00366 0.0
C746 C 0.4771 0.22667 0.97804 0.0
C747 C 0.38403 0.31059 0.09552 0.0
H748 H 0.30487 0.27364 0.12928 0.0
H749 H 0.25181 0.33707 0.13078 0.0
H750 H 0.28099 0.25273 0.16394 0.0
H751 H 0.24347 0.273 0.18292 0.0
H752 H 0.44056 0.23089 0.03163 0.0
H753 H 0.42345 0.25597 0.95472 0.0
H754 H 0.48266 0.21553 1.01736 0.0
H755 H 0.4959 0.21983 0.97252 0.0
Gd756 Gd 0.82608 0.23643 0.96809 0.0
Gd757 Gd 0.8864 0.2597 0.99395 0.0
C758 C 0.93815 0.31019 0.94439 0.0
C759 C 0.97701 0.28466 0.94185 0.0
C760 C 0.94004 0.26879 0.96533 0.0
C761 C 0.92651 0.29071 0.95913 0.0
C762 C 0.96578 0.26597 0.95763 0.0
C763 C 0.9631 0.30659 0.93495 0.0
C764 C 0.92505 0.33336 0.941 0.0
C765 C 0.90185 0.3373 0.95369 0.0
N766 N 0.90308 0.29418 0.96987 0.0
C767 C 0.89147 0.31765 0.96871 0.0
H768 H 0.87367 0.32113 0.9786 0.0
C769 C 0.9428 0.23179 0.99143 0.0
N770 N 0.92884 0.25148 0.98119 0.0
C771 C 0.96841 0.22822 0.9844 0.0
C772 C 0.97989 0.24526 0.96725 0.0
H773 H 0.93408 0.21865 1.00485 0.0
H774 H 0.9723 0.32126 0.92348 0.0
H775 H 0.85782 0.18444 0.94068 0.0
H776 H 0.93325 0.34875 0.9297 0.0
H777 H 0.89199 0.3555 0.95202 0.0
H778 H 0.99677 0.28286 0.93578 0.0
H779 H 0.78072 0.2547 1.01254 0.0
H780 H 0.83258 0.11685 0.97723 0.0
H781 H 0.86038 0.13876 0.94603 0.0
H782 H 0.76629 0.14547 0.03271 0.0
H783 H 0.97929 0.21238 0.99227 0.0
H784 H 0.99981 0.24259 0.96204 0.0
H785 H 0.79678 0.11945 1.00824 0.0
H786 H 0.75241 0.23494 0.04312 0.0
N787 N 0.83203 0.19119 0.97209 0.0
C788 C 0.83232 0.13761 0.97603 0.0
C789 C 0.84811 0.1499 0.95854 0.0
C790 C 0.81564 0.15214 0.99102 0.0
C791 C 0.81619 0.17926 0.98905 0.0
C792 C 0.84716 0.17656 0.95625 0.0
N793 N 0.80048 0.22002 1.00201 0.0
C794 C 0.79995 0.19398 1.00422 0.0
C795 C 0.76596 0.2232 0.03265 0.0
C796 C 0.76522 0.19671 0.03495 0.0
C797 C 0.78317 0.23452 1.01562 0.0
C798 C 0.78211 0.18175 0.02058 0.0
H799 H 0.75115 0.18796 0.04748 0.0
O800 O 0.78818 0.2467 0.95419 0.0
O801 O 0.85897 0.26258 0.96029 0.0
O802 O 0.85567 0.28723 1.00513 0.0
O803 O 0.81581 0.27061 0.99393 0.0
O804 O 0.82239 0.2756 0.95148 0.0
O805 O 0.80902 0.21694 0.93482 0.0
O806 O 0.90358 0.25148 0.03126 0.0
O807 O 0.85085 0.23691 1.00281 0.0
O808 O 0.85982 0.22779 0.93957 0.0
O809 O 0.89808 0.23327 0.96231 0.0
O810 O 0.88551 0.21974 1.0107 0.0
O811 O 0.89517 0.2905 0.0207 0.0
C812 C 0.84641 0.28136 0.95078 0.0
C813 C 0.78079 0.15495 0.02139 0.0
C814 C 0.7979 0.14018 1.00719 0.0
C815 C 0.78728 0.22916 0.93643 0.0
C816 C 0.76316 0.2138 0.93525 0.0
C817 C 0.75185 0.20545 0.95814 0.0
C818 C 0.75019 0.20891 0.91177 0.0
C819 C 0.72625 0.19576 0.91157 0.0
C820 C 0.72868 0.19242 0.95814 0.0
C821 C 0.7159 0.18779 0.93525 0.0
C822 C 0.83046 0.28809 1.00535 0.0
C823 C 0.86106 0.2172 1.0127 0.0
C824 C 0.90592 0.2755 0.03755 0.0
C825 C 0.93131 0.28349 0.04735 0.0
C826 C 0.95003 0.29243 0.03027 0.0
C827 C 0.93701 0.2823 0.07382 0.0
C828 C 0.96133 0.29003 0.08306 0.0
C829 C 0.97422 0.29937 0.03912 0.0
C830 C 0.97991 0.2981 0.06521 0.0
C831 C 0.88537 0.22511 0.94201 0.0
H832 H 0.7604 0.20972 0.97628 0.0
H833 H 0.75854 0.21554 0.89396 0.0
H834 H 0.72022 0.18644 0.97614 0.0
H835 H 0.69732 0.17865 0.93636 0.0
H836 H 0.94594 0.29421 1.01008 0.0
H837 H 0.92241 0.27594 0.08715 0.0
H838 H 0.98861 0.30594 0.02568 0.0
H839 H 0.99896 0.30352 0.07141 0.0
Gd840 Gd 0.7123 0.80404 0.47125 0.0
Gd841 Gd 0.65174 0.77782 0.49423 0.0
C842 C 0.60431 0.72112 0.44753 0.0
C843 C 0.56571 0.74572 0.43875 0.0
C844 C 0.60056 0.7648 0.46308 0.0
C845 C 0.6146 0.74232 0.46083 0.0
C846 C 0.57585 0.76664 0.45232 0.0
C847 C 0.58 0.7231 0.43613 0.0
C848 C 0.6184 0.69828 0.44681 0.0
C849 C 0.64157 0.69664 0.4601 0.0
N850 N 0.6377 0.74075 0.47275 0.0
C851 C 0.65073 0.71803 0.47346 0.0
H852 H 0.66853 0.71638 0.48386 0.0
C853 C 0.59686 0.80637 0.48109 0.0
N854 N 0.61083 0.78463 0.47653 0.0
C855 C 0.5724 0.80919 0.4705 0.0
C856 C 0.5619 0.7893 0.45595 0.0
H857 H 0.60484 0.82173 0.49247 0.0
H858 H 0.57179 0.70702 0.42584 0.0
H859 H 0.66569 0.85026 0.45956 0.0
H860 H 0.61123 0.68161 0.43667 0.0
H861 H 0.65233 0.67889 0.46016 0.0
H862 H 0.54668 0.74668 0.43057 0.0
H863 H 0.76302 0.78951 0.50964 0.0
H864 H 0.69585 0.92227 0.48246 0.0
H865 H 0.662 0.89657 0.46164 0.0
H866 H 0.77324 0.90061 0.5262 0.0
H867 H 0.56161 0.82664 0.47367 0.0
H868 H 0.54289 0.79151 0.44791 0.0
H869 H 0.73732 0.92358 0.50626 0.0
H870 H 0.79462 0.81199 0.53572 0.0
N871 N 0.70245 0.8483 0.47753 0.0
C872 C 0.69785 0.9016 0.48128 0.0
C873 C 0.67879 0.88719 0.46945 0.0
C874 C 0.71888 0.88911 0.49216 0.0
C875 C 0.72052 0.86207 0.49029 0.0
C876 C 0.6813 0.86054 0.46789 0.0
N877 N 0.74087 0.82305 0.50102 0.0
C878 C 0.74017 0.84907 0.50249 0.0
C879 C 0.77924 0.82266 0.52675 0.0
C880 C 0.77866 0.84929 0.52842 0.0
C881 C 0.76054 0.80985 0.51247 0.0
C882 C 0.75918 0.86286 0.51601 0.0
H883 H 0.79348 0.85921 0.53909 0.0
O884 O 0.72472 0.82018 0.43468 0.0
O885 O 0.6823 0.77466 0.46353 0.0
O886 O 0.68333 0.75304 0.50913 0.0
O887 O 0.72246 0.77356 0.50176 0.0
O888 O 0.72016 0.76362 0.45928 0.0
O889 O 0.75196 0.80059 0.45877 0.0
O890 O 0.62997 0.78704 0.52867 0.0
O891 O 0.68515 0.80293 0.5038 0.0
O892 O 0.68092 0.81218 0.44023 0.0
O893 O 0.6421 0.79699 0.45697 0.0
O894 O 0.64957 0.81807 0.51099 0.0
O895 O 0.64266 0.74815 0.5222 0.0
C896 C 0.69672 0.75614 0.45658 0.0
C897 C 0.75841 0.88976 0.51653 0.0
C898 C 0.73808 0.90284 0.50501 0.0
C899 C 0.74842 0.81269 0.43724 0.0
C900 C 0.76134 0.80195 0.41436 0.0
C901 C 0.75373 0.77815 0.40442 0.0
C902 C 0.78198 0.81523 0.40275 0.0
C903 C 0.7948 0.8048 0.38119 0.0
C904 C 0.76662 0.76751 0.38356 0.0
C905 C 0.78685 0.78065 0.37201 0.0
C906 C 0.70825 0.75529 0.51268 0.0
C907 C 0.6738 0.82188 0.51357 0.0
C908 C 0.62943 0.76347 0.53693 0.0
C909 C 0.6043 0.75402 0.54609 0.0
C910 C 0.58621 0.7448 0.52852 0.0
C911 C 0.5981 0.75446 0.57249 0.0
C912 C 0.57388 0.74577 0.58115 0.0
C913 C 0.56214 0.73679 0.53677 0.0
C914 C 0.55593 0.73739 0.56277 0.0
C915 C 0.65554 0.80826 0.43875 0.0
H916 H 0.73799 0.76768 0.4129 0.0
H917 H 0.78784 0.83367 0.41035 0.0
H918 H 0.76104 0.74885 0.37637 0.0
H919 H 0.79658 0.77161 0.35603 0.0
H920 H 0.59063 0.74375 0.5084 0.0
H921 H 0.61224 0.7611 0.58619 0.0
H922 H 0.54822 0.73003 0.52293 0.0
H923 H 0.53693 0.73129 0.56844 0.0
Gd924 Gd 0.2163 0.73112 0.5664 0.0
Gd925 Gd 0.15426 0.75747 0.54505 0.0
C926 C 0.10716 0.81449 0.59204 0.0
C927 C 0.06879 0.78993 0.6014 0.0
C928 C 0.10364 0.77056 0.57725 0.0
C929 C 0.11755 0.7931 0.57909 0.0
C930 C 0.07885 0.76891 0.58785 0.0
C931 C 0.08305 0.81254 0.60377 0.0
C932 C 0.12067 0.83764 0.59165 0.0
C933 C 0.14327 0.83941 0.57753 0.0
N934 N 0.14024 0.79477 0.56646 0.0
C935 C 0.15252 0.81784 0.56454 0.0
H936 H 0.1698 0.81977 0.55342 0.0
C937 C 0.09944 0.72935 0.55859 0.0
N938 N 0.11366 0.75084 0.56348 0.0
C939 C 0.07488 0.72676 0.56889 0.0
C940 C 0.06455 0.7466 0.58359 0.0
H941 H 0.10717 0.71409 0.54691 0.0
H942 H 0.07479 0.82877 0.6138 0.0
H943 H 0.17332 0.68196 0.57844 0.0
H944 H 0.1133 0.8545 0.60133 0.0
H945 H 0.15351 0.85743 0.57649 0.0
H946 H 0.04971 0.78927 0.60946 0.0
H947 H 0.26611 0.75003 0.52835 0.0
H948 H 0.20617 0.61308 0.55003 0.0
H949 H 0.17196 0.63567 0.5737 0.0
H950 H 0.27874 0.64139 0.50223 0.0
H951 H 0.06378 0.7096 0.56522 0.0
H952 H 0.04525 0.74475 0.59085 0.0
H953 H 0.24676 0.61534 0.52485 0.0
H954 H 0.29611 0.73108 0.49809 0.0
N955 N 0.20844 0.68697 0.55797 0.0
C956 C 0.20686 0.63377 0.55192 0.0
C957 C 0.1876 0.64643 0.56534 0.0
C958 C 0.22643 0.64802 0.54054 0.0
C959 C 0.22628 0.67501 0.54323 0.0
C960 C 0.1887 0.67305 0.56825 0.0
N961 N 0.24437 0.7156 0.53414 0.0
C962 C 0.24434 0.68973 0.53052 0.0
C963 C 0.28139 0.71927 0.50671 0.0
C964 C 0.28127 0.69292 0.50256 0.0
C965 C 0.26341 0.73019 0.52328 0.0
C966 C 0.26314 0.67772 0.51507 0.0
H967 H 0.29582 0.6844 0.49042 0.0
O968 O 0.2539 0.74062 0.58182 0.0
O969 O 0.18532 0.75894 0.57467 0.0
O970 O 0.18563 0.78307 0.53122 0.0
O971 O 0.22515 0.76291 0.53727 0.0
O972 O 0.22215 0.77048 0.58335 0.0
O973 O 0.23249 0.71 0.59912 0.0
O974 O 0.13273 0.74741 0.51065 0.0
O975 O 0.18794 0.73276 0.53417 0.0
O976 O 0.18491 0.721 0.59694 0.0
O977 O 0.14559 0.73699 0.58175 0.0
O978 O 0.15176 0.71732 0.52961 0.0
O979 O 0.14471 0.78654 0.51658 0.0
C980 C 0.19841 0.7773 0.58388 0.0
C981 C 0.26409 0.65089 0.5135 0.0
C982 C 0.24599 0.63606 0.52651 0.0
C983 C 0.25414 0.72254 0.59907 0.0
C984 C 0.2785 0.70746 0.60137 0.0
C985 C 0.29002 0.6978 0.57913 0.0
C986 C 0.29146 0.70403 0.62517 0.0
C987 C 0.31546 0.69091 0.62621 0.0
C988 C 0.31328 0.68496 0.57993 0.0
C989 C 0.32598 0.68171 0.60307 0.0
C990 C 0.2106 0.78156 0.52766 0.0
C991 C 0.17575 0.71389 0.52496 0.0
C992 C 0.13176 0.77083 0.50206 0.0
C993 C 0.10644 0.7797 0.49287 0.0
C994 C 0.08793 0.78794 0.51048 0.0
C995 C 0.10046 0.77959 0.46642 0.0
C996 C 0.07605 0.78769 0.45772 0.0
C997 C 0.06369 0.79543 0.50216 0.0
C998 C 0.05772 0.7952 0.47609 0.0
C999 C 0.15944 0.72447 0.59887 0.0
H1000 H 0.28157 0.70078 0.56083 0.0
H1001 H 0.28305 0.71165 0.64256 0.0
H1002 H 0.32184 0.678 0.56234 0.0
H1003 H 0.3446 0.67255 0.60256 0.0
H1004 H 0.09215 0.78861 0.53069 0.0
H1005 H 0.1149 0.77364 0.45273 0.0
H1006 H 0.04945 0.80147 0.516 0.0
H1007 H 0.03859 0.80086 0.47034 0.0
Gd1008 Gd 0.99637 0.65617 0.76084 0.0
Gd1009 Gd 0.96801 0.7132 0.73214 0.0
C1010 C 0.98845 0.71151 0.6466 0.0
C1011 C 0.0216 0.74374 0.6442 0.0
C1012 C 1.00352 0.73205 0.68562 0.0
C1013 C 0.98712 0.71487 0.67354 0.0
C1014 C 0.02038 0.7472 0.67079 0.0
C1015 C 1.00611 0.72562 0.63218 0.0
C1016 C 0.97121 0.69493 0.63464 0.0
C1017 C 0.95191 0.68367 0.64905 0.0
N1018 N 0.96898 0.70261 0.6877 0.0
C1019 C 0.95048 0.68853 0.67533 0.0
H1020 H 0.9335 0.6819 0.68482 0.0
C1021 C 1.01525 0.75483 0.72305 0.0
N1022 N 1.00151 0.73564 0.71142 0.0
C1023 C 0.03219 0.77008 0.70909 0.0
C1024 C 0.03456 0.76644 0.68284 0.0
H1025 H 1.01242 0.76003 0.74279 0.0
H1026 H 1.00719 0.72337 0.61154 0.0
H1027 H 0.9939 0.68123 0.82079 0.0
H1028 H 0.97182 0.69175 0.6141 0.0
H1029 H 0.93742 0.67208 0.63975 0.0
H1030 H 0.03402 0.75551 0.63267 0.0
H1031 H 0.99769 0.59878 0.73217 0.0
H1032 H 0.94032 0.63759 0.86466 0.0
H1033 H 0.97057 0.67394 0.861 0.0
H1034 H 0.92358 0.56499 0.81095 0.0
H1035 H 0.04267 0.78534 0.71848 0.0
H1036 H 0.04685 0.77913 0.67193 0.0
H1037 H 0.92204 0.59733 0.84535 0.0
H1038 H 0.97683 0.55637 0.73638 0.0
N1039 N 0.97668 0.64972 0.80115 0.0
C1040 C 0.95057 0.64067 0.84686 0.0
C1041 C 0.96771 0.66113 0.8449 0.0
C1042 C 0.94792 0.62366 0.82626 0.0
C1043 C 0.96163 0.62864 0.80348 0.0
C1044 C 0.98096 0.66518 0.82193 0.0
N1045 N 0.97767 0.61513 0.76372 0.0
C1046 C 0.96211 0.6107 0.78403 0.0
C1047 C 0.97219 0.57161 0.74969 0.0
C1048 C 0.95415 0.56757 0.76905 0.0
C1049 C 0.98409 0.59554 0.74747 0.0
C1050 C 0.94943 0.58699 0.78698 0.0
H1051 H 0.94505 0.54898 0.77079 0.0
O1052 O 0.02964 0.63263 0.75155 0.0
O1053 O 1.00363 0.68921 0.73401 0.0
O1054 O 0.94071 0.67816 0.72747 0.0
O1055 O 0.96582 0.64171 0.73411 0.0
O1056 O 1.01129 0.65276 0.72047 0.0
O1057 O 0.02694 0.65042 0.78869 0.0
O1058 O 0.95551 0.75243 0.73876 0.0
O1059 O 0.96213 0.68265 0.76154 0.0
O1060 O 1.01312 0.69093 0.78005 0.0
O1061 O 0.99315 0.72801 0.76463 0.0
O1062 O 0.95262 0.71996 0.77144 0.0
O1063 O 0.93338 0.72861 0.71365 0.0
C1064 C 1.01324 0.67688 0.71533 0.0
C1065 C 0.93393 0.58286 0.8086 0.0
C1066 C 0.93311 0.60124 0.82821 0.0
C1067 C 0.03982 0.63465 0.77421 0.0
C1068 C 0.04846 0.61047 0.78623 0.0
C1069 C 0.0308 0.59471 0.79891 0.0
C1070 C 0.0744 0.60288 0.78492 0.0
C1071 C 0.08258 0.57952 0.7961 0.0
C1072 C 0.03853 0.5714 0.80941 0.0
C1073 C 0.06409 0.56375 0.80791 0.0
C1074 C 0.94474 0.65283 0.72557 0.0
C1075 C 0.95303 0.69658 0.77942 0.0
C1076 C 0.93623 0.75162 0.72298 0.0
C1077 C 0.93405 0.77385 0.70505 0.0
C1078 C 0.95549 0.78104 0.69065 0.0
C1079 C 0.91169 0.7894 0.70376 0.0
C1080 C 0.91125 0.81211 0.68847 0.0
C1081 C 0.95537 0.80311 0.67579 0.0
C1082 C 0.93377 0.81867 0.67498 0.0
C1083 C 1.00942 0.71596 0.78 0.0
H1084 H 1.01101 0.60039 0.80074 0.0
H1085 H 0.08817 0.61537 0.77565 0.0
H1086 H 0.02464 0.5592 0.81883 0.0
H1087 H 0.06934 0.54535 0.81602 0.0
H1088 H 0.9728 0.77013 0.69153 0.0
H1089 H 0.89501 0.7839 0.71478 0.0
H1090 H 0.97243 0.80855 0.6653 0.0
H1091 H 0.93522 0.83631 0.66416 0.0
Gd1092 Gd 0.5441 0.38194 0.2656 0.0
Gd1093 Gd 0.56938 0.32503 0.23212 0.0
C1094 C 0.53219 0.31723 0.1528 0.0
C1095 C 0.51169 0.27556 0.15569 0.0
C1096 C 0.53413 0.29336 0.19262 0.0
C1097 C 0.54023 0.31505 0.17859 0.0
C1098 C 0.51999 0.27326 0.18118 0.0
C1099 C 0.51789 0.29743 0.14152 0.0
C1100 C 0.53911 0.33905 0.13889 0.0
C1101 C 0.55369 0.35804 0.15066 0.0
N1102 N 0.55482 0.33354 0.18977 0.0
C1103 C 0.56158 0.35489 0.17606 0.0
H1104 H 0.57275 0.36997 0.18438 0.0
C1105 C 0.53947 0.26906 0.23045 0.0
N1106 N 0.54285 0.29143 0.21708 0.0
C1107 C 0.52513 0.24891 0.22013 0.0
C1108 C 0.51515 0.2511 0.19545 0.0
H1109 H 0.54822 0.26637 0.24905 0.0
H1110 H 0.51182 0.29875 0.12172 0.0
H1111 H 0.55092 0.35724 0.32526 0.0
H1112 H 0.53332 0.34141 0.11907 0.0
H1113 H 0.55905 0.37509 0.1401 0.0
H1114 H 0.5008 0.26036 0.14665 0.0
H1115 H 0.53958 0.43832 0.23586 0.0
H1116 H 0.60242 0.40496 0.36731 0.0
H1117 H 0.57442 0.36682 0.36487 0.0
H1118 H 0.61384 0.47733 0.31212 0.0
H1119 H 0.52224 0.23149 0.23105 0.0
H1120 H 0.50432 0.23531 0.18735 0.0
H1121 H 0.61816 0.44566 0.34686 0.0
H1122 H 0.55847 0.48178 0.2387 0.0
N1123 N 0.56578 0.38933 0.30469 0.0
C1124 C 0.59219 0.40084 0.3497 0.0
C1125 C 0.57629 0.37938 0.34845 0.0
C1126 C 0.59355 0.41748 0.3287 0.0
C1127 C 0.57963 0.41132 0.30633 0.0
C1128 C 0.56297 0.37401 0.32579 0.0
N1129 N 0.56128 0.42362 0.26709 0.0
C1130 C 0.57725 0.42913 0.28686 0.0
C1131 C 0.56415 0.46707 0.2522 0.0
C1132 C 0.58239 0.47241 0.27108 0.0
C1133 C 0.55343 0.44253 0.2507 0.0
C1134 C 0.58865 0.45355 0.28915 0.0
H1135 H 0.59055 0.49147 0.27226 0.0
O1136 O 0.50918 0.40371 0.25836 0.0
O1137 O 0.53492 0.35063 0.23722 0.0
O1138 O 0.59482 0.36036 0.22247 0.0
O1139 O 0.57637 0.39684 0.24136 0.0
O1140 O 0.52669 0.38817 0.22679 0.0
O1141 O 0.51563 0.38713 0.29568 0.0
O1142 O 0.59168 0.28963 0.23568 0.0
O1143 O 0.57672 0.354 0.26257 0.0
O1144 O 0.53033 0.34663 0.28593 0.0
O1145 O 0.54177 0.30983 0.26272 0.0
O1146 O 0.58601 0.31638 0.27102 0.0
O1147 O 0.60378 0.31865 0.20914 0.0
C1148 C 0.52388 0.36444 0.22041 0.0
C1149 C 0.6045 0.45886 0.31026 0.0
C1150 C 0.60695 0.44082 0.33004 0.0
C1151 C 0.50108 0.40206 0.28187 0.0
C1152 C 0.49262 0.42638 0.29371 0.0
C1153 C 0.51006 0.44154 0.30745 0.0
C1154 C 0.46712 0.43494 0.29075 0.0
C1155 C 0.45911 0.45856 0.30147 0.0
C1156 C 0.50247 0.46504 0.31766 0.0
C1157 C 0.47731 0.47357 0.31464 0.0
C1158 C 0.59384 0.3857 0.22674 0.0
C1159 C 0.58641 0.33957 0.27964 0.0
C1160 C 0.60755 0.29526 0.21729 0.0
C1161 C 0.6116 0.27502 0.19736 0.0
C1162 C 0.59575 0.27483 0.17572 0.0
C1163 C 0.6306 0.25555 0.1998 0.0
C1164 C 0.63279 0.23555 0.18113 0.0
C1165 C 0.59676 0.25485 0.15816 0.0
C1166 C 0.61454 0.23519 0.16109 0.0
C1167 C 0.52988 0.32166 0.28193 0.0
H1168 H 0.52958 0.43525 0.31027 0.0
H1169 H 0.45353 0.42304 0.28047 0.0
H1170 H 0.51618 0.47673 0.32798 0.0
H1171 H 0.47215 0.49207 0.32257 0.0
H1172 H 0.58242 0.29014 0.17237 0.0
H1173 H 0.64363 0.25635 0.21592 0.0
H1174 H 0.58357 0.25457 0.14211 0.0
H1175 H 0.61372 0.21967 0.14736 0.0
Gd1176 Gd 0.49118 0.88649 0.2804 0.0
Gd1177 Gd 0.46802 0.82353 0.30151 0.0
C1178 C 0.49111 0.81004 0.38494 0.0
C1179 C 0.51944 0.77348 0.381 0.0
C1180 C 0.50351 0.795 0.34268 0.0
C1181 C 0.48914 0.81143 0.35791 0.0
C1182 C 0.51922 0.77616 0.35428 0.0
C1183 C 0.50584 0.79067 0.39634 0.0
C1184 C 0.47834 0.82824 0.39984 0.0
C1185 C 0.4643 0.84746 0.38781 0.0
N1186 N 0.47412 0.82938 0.34641 0.0
C1187 C 0.46235 0.84774 0.36109 0.0
H1188 H 0.45152 0.86303 0.3529 0.0
C1189 C 0.51583 0.78059 0.30153 0.0
N1190 N 0.50187 0.79703 0.31669 0.0
C1191 C 0.5325 0.76259 0.31226 0.0
C1192 C 0.53397 0.76013 0.33874 0.0
H1193 H 0.51331 0.77948 0.28114 0.0
H1194 H 0.50692 0.78889 0.41701 0.0
H1195 H 0.48057 0.87727 0.21757 0.0
H1196 H 0.4796 0.82793 0.42059 0.0
H1197 H 0.45477 0.86203 0.39913 0.0
H1198 H 0.53056 0.75843 0.38997 0.0
H1199 H 0.49056 0.92846 0.32918 0.0
H1200 H 0.43511 0.9393 0.18931 0.0
H1201 H 0.45757 0.89816 0.18208 0.0
H1202 H 0.43248 0.99711 0.26042 0.0
H1203 H 0.54331 0.74977 0.30002 0.0
H1204 H 0.54631 0.74557 0.34699 0.0
H1205 H 0.42614 0.97635 0.21865 0.0
H1206 H 0.47386 0.97175 0.33852 0.0
N1207 N 0.46943 0.90495 0.24542 0.0
C1208 C 0.44469 0.92988 0.20517 0.0
C1209 C 0.45741 0.90672 0.20099 0.0
C1210 C 0.44558 0.94123 0.22947 0.0
C1211 C 0.4581 0.92805 0.24954 0.0
C1212 C 0.47027 0.8948 0.22129 0.0
N1213 N 0.47412 0.92677 0.29183 0.0
C1214 C 0.46081 0.9395 0.27338 0.0
C1215 C 0.47001 0.96286 0.32015 0.0
C1216 C 0.45604 0.97604 0.3015 0.0
C1217 C 0.47937 0.9383 0.31482 0.0
C1218 C 0.45155 0.96454 0.27767 0.0
H1219 H 0.44926 0.99524 0.30557 0.0
O1220 O 0.52618 0.90679 0.29078 0.0
O1221 O 0.50107 0.85058 0.30226 0.0
O1222 O 0.43686 0.85444 0.31175 0.0
O1223 O 0.45421 0.89454 0.30077 0.0
O1224 O 0.50755 0.88504 0.32052 0.0
O1225 O 0.51906 0.89714 0.2512 0.0
O1226 O 0.45504 0.7855 0.29048 0.0
O1227 O 0.46076 0.85642 0.27579 0.0
O1228 O 0.50408 0.85698 0.25195 0.0
O1229 O 0.49505 0.816 0.26766 0.0
O1230 O 0.45004 0.82091 0.26229 0.0
O1231 O 0.43563 0.80515 0.32115 0.0
C1232 C 0.51054 0.86061 0.32221 0.0
C1233 C 0.43902 0.97763 0.25776 0.0
C1234 C 0.43562 0.96585 0.23388 0.0
C1235 C 0.53414 0.90904 0.26722 0.0
C1236 C 0.54322 0.9348 0.25949 0.0
C1237 C 0.52548 0.9543 0.25438 0.0
C1238 C 0.56967 0.9402 0.25741 0.0
C1239 C 0.57814 0.96506 0.25042 0.0
C1240 C 0.53362 0.97893 0.24816 0.0
C1241 C 0.55967 0.98437 0.24638 0.0
C1242 C 0.4358 0.88023 0.31059 0.0
C1243 C 0.4507 0.845 0.25668 0.0
C1244 C 0.43759 0.78375 0.30828 0.0
C1245 C 0.43688 0.7591 0.32295 0.0
C1246 C 0.45994 0.74655 0.32873 0.0
C1247 C 0.41347 0.74692 0.32975 0.0
C1248 C 0.41353 0.72267 0.3424 0.0
C1249 C 0.4602 0.72315 0.34143 0.0
C1250 C 0.43735 0.71125 0.34807 0.0
C1251 C 0.50579 0.83174 0.25067 0.0
H1252 H 0.50532 0.95056 0.25515 0.0
H1253 H 0.58346 0.92502 0.26076 0.0
H1254 H 0.51964 0.99388 0.24464 0.0
H1255 H 0.56531 1.00384 0.24183 0.0
H1256 H 0.47792 0.75433 0.32272 0.0
H1257 H 0.39547 0.75609 0.32495 0.0
H1258 H 0.47829 0.71381 0.34551 0.0
H1259 H 0.43851 0.69247 0.35686 0.0
Gd1260 Gd 0.04486 0.15821 0.77083 0.0
Gd1261 Gd 0.06846 0.21622 0.80415 0.0
C1262 C 0.0301 0.22348 0.88285 0.0
C1263 C 1.00829 0.26447 0.8793 0.0
C1264 C 0.03203 0.24726 0.84296 0.0
C1265 C 0.03847 0.22577 0.8572 0.0
C1266 C 1.01717 0.26702 0.85406 0.0
C1267 C 1.01479 0.24279 0.89368 0.0
C1268 C 0.03766 0.20202 0.89704 0.0
C1269 C 0.05299 0.18339 0.88559 0.0
N1270 N 0.05379 0.20767 0.84636 0.0
C1271 C 0.06102 0.18657 0.86024 0.0
H1272 H 0.07255 0.17165 0.85198 0.0
C1273 C 0.03756 0.27165 0.80521 0.0
N1274 N 0.0412 0.24939 0.8187 0.0
C1275 C 0.02255 0.29148 0.81519 0.0
C1276 C 1.01211 0.28907 0.83966 0.0
H1277 H 0.0465 0.27437 0.7867 0.0
H1278 H 1.00815 0.24125 0.91328 0.0
H1279 H 0.05104 0.18029 0.71038 0.0
H1280 H 0.03173 0.19964 0.91681 0.0
H1281 H 0.05874 0.16658 0.89633 0.0
H1282 H 0.99665 0.27935 0.88794 0.0
H1283 H 0.04719 0.10593 0.80818 0.0
H1284 H 0.09934 0.12873 0.66893 0.0
H1285 H 0.07306 0.16816 0.67052 0.0
H1286 H 0.11342 0.06016 0.72834 0.0
H1287 H 0.01944 0.3088 0.80418 0.0
H1288 H 1.00072 0.30459 0.84749 0.0
H1289 H 0.11513 0.08894 0.69097 0.0
H1290 H 0.0681 0.06331 0.80839 0.0
N1291 N 0.06534 0.14853 0.73178 0.0
C1292 C 0.08995 0.13409 0.68666 0.0
C1293 C 0.07499 0.15627 0.68743 0.0
C1294 C 0.09161 0.11847 0.70841 0.0
C1295 C 0.07865 0.12613 0.73089 0.0
C1296 C 0.06255 0.16311 0.71019 0.0
N1297 N 0.06355 0.1171 0.77252 0.0
C1298 C 0.07758 0.10982 0.75182 0.0
C1299 C 0.07101 0.07627 0.79243 0.0
C1300 C 0.08651 0.06898 0.77185 0.0
C1301 C 0.05918 0.10034 0.79224 0.0
C1302 C 0.08964 0.08562 0.75102 0.0
H1303 H 0.09541 0.05022 0.77193 0.0
O1304 O 1.01086 0.13545 0.77895 0.0
O1305 O 0.03502 0.18928 0.79915 0.0
O1306 O 0.09476 0.18195 0.81467 0.0
O1307 O 0.08133 0.14663 0.79032 0.0
O1308 O 0.02849 0.15165 0.81004 0.0
O1309 O 1.0159 0.152 0.74133 0.0
O1310 O 0.09018 0.25189 0.80059 0.0
O1311 O 0.07562 0.18792 0.77321 0.0
O1312 O 0.03102 0.19321 0.74978 0.0
O1313 O 0.03985 0.23016 0.77406 0.0
O1314 O 0.08557 0.22522 0.76529 0.0
O1315 O 0.10271 0.22301 0.82722 0.0
C1316 C 0.0245 0.17529 0.81606 0.0
C1317 C 0.10378 0.07856 0.72922 0.0
C1318 C 0.10479 0.09497 0.70796 0.0
C1319 C 1.00188 0.13707 0.75572 0.0
C1320 C 0.99289 0.11271 0.7443 0.0
C1321 C 1.01037 0.09614 0.73241 0.0
C1322 C 0.96685 0.10546 0.74602 0.0
C1323 C 0.95837 0.0817 0.73592 0.0
C1324 C 1.00231 0.07253 0.72282 0.0
C1325 C 0.97665 0.06528 0.72465 0.0
C1326 C 0.09689 0.1576 0.807 0.0
C1327 C 0.08538 0.20222 0.75615 0.0
C1328 C 0.10615 0.24642 0.81899 0.0
C1329 C 0.10986 0.26669 0.83885 0.0
C1330 C 0.09288 0.26782 0.85952 0.0
C1331 C 0.12958 0.28541 0.83713 0.0
C1332 C 0.13123 0.30587 0.85533 0.0
C1333 C 0.09332 0.28827 0.87653 0.0
C1334 C 0.1117 0.3074 0.87408 0.0
C1335 C 0.02906 0.21806 0.75439 0.0
H1336 H 0.03028 0.10135 0.73062 0.0
H1337 H 0.95326 0.11844 0.7549 0.0
H1338 H 1.01606 0.05974 0.71395 0.0
H1339 H 0.97119 0.04661 0.71735 0.0
H1340 H 0.07905 0.25294 0.86248 0.0
H1341 H 0.14345 0.28364 0.82184 0.0
H1342 H 0.07919 0.28937 0.89169 0.0
H1343 H 0.11021 0.32338 0.88718 0.0
Gd1344 Gd 0.76379 0.99569 0.65476 0.0
Gd1345 Gd 0.7332 0.97147 0.71363 0.0
C1346 C 0.65047 1.00023 0.71988 0.0
C1347 C 0.65111 0.02292 0.76051 0.0
C1348 C 0.69037 1.00424 0.74334 0.0
C1349 C 0.67697 0.99511 0.72231 0.0
C1350 C 0.67752 1.01842 0.76258 0.0
C1351 C 0.63758 1.01365 0.73932 0.0
C1352 C 0.63769 0.99202 0.69782 0.0
C1353 C 0.6513 0.97935 0.67868 0.0
N1354 N 0.68991 0.98197 0.70387 0.0
C1355 C 0.6774 0.97441 0.68202 0.0
H1356 H 0.68728 0.96521 0.66652 0.0
C1357 C 0.72947 1.00789 0.76588 0.0
N1358 N 0.71596 0.99969 0.74484 0.0
C1359 C 0.71762 0.02227 0.78514 0.0
C1360 C 0.69154 0.02759 0.78349 0.0
H1361 H 0.74925 1.00253 0.76869 0.0
H1362 H 0.61718 1.01723 0.738 0.0
H1363 H 0.82463 0.98849 0.67515 0.0
H1364 H 0.61743 0.99578 0.69518 0.0
H1365 H 0.6417 0.97337 0.66127 0.0
H1366 H 0.64097 0.03361 0.77517 0.0
H1367 H 0.72433 0.99347 0.60407 0.0
H1368 H 0.86429 0.94087 0.62152 0.0
H1369 H 0.86389 0.96613 0.66168 0.0
H1370 H 0.80303 0.92883 0.55421 0.0
H1371 H 0.72854 0.02872 0.80157 0.0
H1372 H 0.68236 0.03856 0.79857 0.0
H1373 H 0.8412 0.92642 0.58184 0.0
H1374 H 0.72279 0.97342 0.5611 0.0
N1375 N 0.80241 0.97522 0.64354 0.0
C1376 C 0.84685 0.95042 0.62749 0.0
C1377 C 0.84674 0.96478 0.65008 0.0
C1378 C 0.82476 0.94945 0.61231 0.0
C1379 C 0.80263 0.96245 0.62082 0.0
C1380 C 0.82434 0.97742 0.65768 0.0
N1381 N 0.7607 0.97759 0.61348 0.0
C1382 C 0.78124 0.96391 0.60516 0.0
C1383 C 0.73929 0.97052 0.57334 0.0
C1384 C 0.7598 0.95549 0.56494 0.0
C1385 C 0.74023 0.98186 0.59764 0.0
C1386 C 0.78124 0.95225 0.58076 0.0
H1387 H 0.75907 0.94685 0.54605 0.0
O1388 O 0.755 0.02973 0.63214 0.0
O1389 O 0.73634 1.00501 0.6868 0.0
O1390 O 0.72376 0.94314 0.68048 0.0
O1391 O 0.74465 0.95863 0.64376 0.0
O1392 O 0.7241 1.01155 0.64959 0.0
O1393 O 0.79285 0.02497 0.64817 0.0
O1394 O 0.71463 0.93498 0.72241 0.0
O1395 O 0.76348 0.9648 0.68462 0.0
O1396 O 0.78604 1.0103 0.68862 0.0
O1397 O 0.76426 0.99974 0.72656 0.0
O1398 O 0.77271 0.95572 0.7219 0.0
O1399 O 0.73452 0.95552 0.75221 0.0
C1400 C 0.71864 1.01496 0.67343 0.0
C1401 C 0.80277 0.93819 0.57277 0.0
C1402 C 0.82448 0.93677 0.58853 0.0
C1403 C 0.77812 0.03898 0.63354 0.0
C1404 C 0.78925 0.0484 0.60917 0.0
C1405 C 0.80097 0.03112 0.59226 0.0
C1406 C 0.78783 0.07467 0.60245 0.0
C1407 C 0.79817 0.08353 0.57893 0.0
C1408 C 0.81074 0.03957 0.56889 0.0
C1409 C 0.80929 0.06544 0.5622 0.0
C1410 C 0.7301 0.94159 0.65564 0.0
C1411 C 0.78112 0.95563 0.69863 0.0
C1412 C 0.72152 0.93504 0.74648 0.0
C1413 C 0.731 0.91063 0.75753 0.0
C1414 C 0.75238 0.89849 0.74676 0.0
C1415 C 0.7192 0.89979 0.77952 0.0
C1416 C 0.72892 0.87697 0.79083 0.0
C1417 C 0.76227 0.8763 0.75788 0.0
C1418 C 0.7509 0.86578 0.7797 0.0
C1419 C 0.78285 1.01155 0.7137 0.0
H1420 H 0.80257 1.01107 0.59707 0.0
H1421 H 0.7791 0.08814 0.61566 0.0
H1422 H 0.81951 0.02598 0.55586 0.0
H1423 H 0.8168 0.07124 0.54373 0.0
H1424 H 0.76161 0.90631 0.72989 0.0
H1425 H 0.70248 0.90906 0.78759 0.0
H1426 H 0.77903 0.86728 0.74968 0.0
H1427 H 0.75976 0.84895 0.78805 0.0
Gd1428 Gd 0.78027 0.04519 0.15464 0.0
Gd1429 Gd 0.80315 0.07039 0.21617 0.0
C1430 C 0.88709 0.04762 0.22795 0.0
C1431 C 0.88426 1.01906 0.26441 0.0
C1432 C 0.8453 0.03524 0.24417 0.0
C1433 C 0.86002 0.04958 0.22732 0.0
C1434 C 0.85746 1.01958 0.26273 0.0
C1435 C 0.89905 0.03261 0.24676 0.0
C1436 C 0.90146 0.06066 0.20956 0.0
C1437 C 0.88892 0.07495 0.19089 0.0
N1438 N 0.84802 0.06467 0.20974 0.0
C1439 C 0.86223 0.07676 0.19125 0.0
H1440 H 0.85367 0.08778 0.17634 0.0
C1441 C 0.80465 0.02375 0.26045 0.0
N1442 N 0.81927 0.03712 0.24305 0.0
C1443 C 0.81591 1.00723 0.27827 0.0
C1444 C 0.8424 1.0053 0.27959 0.0
H1445 H 0.78435 0.02661 0.2624 0.0
H1446 H 0.91975 0.03133 0.2478 0.0
H1447 H 0.71761 0.05063 0.16907 0.0
H1448 H 0.92219 0.05945 0.20933 0.0
H1449 H 0.89983 0.08474 0.17619 0.0
H1450 H 0.89377 1.008 0.27922 0.0
H1451 H 0.82397 0.04794 0.10781 0.0
H1452 H 0.68184 0.09733 0.11202 0.0
H1453 H 0.67918 0.07187 0.15193 0.0
H1454 H 0.74798 0.1087 0.04966 0.0
H1455 H 0.80408 0.99685 0.29181 0.0
H1456 H 0.85107 0.99305 0.29399 0.0
H1457 H 0.70776 0.11115 0.07398 0.0
H1458 H 0.82874 0.06732 0.06473 0.0
N1459 N 0.74238 0.06475 0.13986 0.0
C1460 C 0.69891 0.0882 0.11958 0.0
C1461 C 0.69731 0.07376 0.14203 0.0
C1462 C 0.72225 0.08965 0.10648 0.0
C1463 C 0.74392 0.07749 0.11719 0.0
C1464 C 0.71926 0.06178 0.15175 0.0
N1465 N 0.78674 0.06341 0.11386 0.0
C1466 C 0.76672 0.07658 0.10363 0.0
C1467 C 0.81125 0.07014 0.07552 0.0
C1468 C 0.7912 0.08453 0.06512 0.0
C1469 C 0.80851 0.05922 0.09986 0.0
C1470 C 0.76844 0.08757 0.07899 0.0
H1471 H 0.79327 0.0927 0.04616 0.0
O1472 O 0.79212 1.01158 0.13275 0.0
O1473 O 0.80392 0.03681 0.18965 0.0
O1474 O 0.8122 0.10076 0.18446 0.0
O1475 O 0.80018 0.0823 0.14517 0.0
O1476 O 0.82107 0.03053 0.1546 0.0
O1477 O 0.75285 1.01512 0.1452 0.0
O1478 O 0.79304 0.08424 0.25408 0.0
O1479 O 0.77612 0.07659 0.18388 0.0
O1480 O 0.75503 0.02944 0.18581 0.0
O1481 O 0.77007 0.04363 0.22567 0.0
O1482 O 0.76333 0.08684 0.21969 0.0
O1483 O 0.82241 0.10392 0.23284 0.0
C1484 C 0.82376 0.02783 0.17901 0.0
C1485 C 0.74716 0.1004 0.06865 0.0
C1486 C 0.72419 0.10168 0.08247 0.0
C1487 C 0.76925 1.00162 0.13196 0.0
C1488 C 0.76056 0.99207 0.10666 0.0
C1489 C 0.75229 1.00947 0.08793 0.0
C1490 C 0.76058 0.96553 0.10096 0.0
C1491 C 0.75234 0.95659 0.07664 0.0
C1492 C 0.74475 1.00092 0.06379 0.0
C1493 C 0.74487 0.97479 0.0581 0.0
C1494 C 0.81046 0.10108 0.15875 0.0
C1495 C 0.757 0.08605 0.19579 0.0
C1496 C 0.81036 0.10222 0.25469 0.0
C1497 C 0.82581 0.10393 0.27871 0.0
C1498 C 0.8333 0.08133 0.29121 0.0
C1499 C 0.83159 0.12782 0.29041 0.0
C1500 C 0.84489 0.12875 0.31423 0.0
C1501 C 0.84664 0.08204 0.31424 0.0
C1502 C 0.85224 0.1054 0.32574 0.0
C1503 C 0.75426 0.03001 0.21112 0.0
H1504 H 0.7516 0.0297 0.09193 0.0
H1505 H 0.7665 0.95195 0.11555 0.0
H1506 H 0.73869 1.01463 0.04941 0.0
H1507 H 0.73912 0.96885 0.03904 0.0
H1508 H 0.82815 0.06293 0.28375 0.0
H1509 H 0.82549 0.14543 0.28122 0.0
H1510 H 0.85203 0.0643 0.32361 0.0
H1511 H 0.86159 0.10499 0.34428 0.0
Gd1512 Gd 0.26261 0.54046 0.37848 0.0
Gd1513 Gd 0.23414 0.56952 0.32099 0.0
C1514 C 0.1501 0.54396 0.31608 0.0
C1515 C 0.15126 0.51351 0.28111 0.0
C1516 C 0.19095 0.53271 0.29681 0.0
C1517 C 0.17704 0.54705 0.31444 0.0
C1518 C 0.17795 0.51614 0.27967 0.0
C1519 C 0.13743 0.52703 0.29952 0.0
C1520 C 0.13644 0.55822 0.33412 0.0
C1521 C 0.14936 0.57576 0.34941 0.0
N1522 N 0.18958 0.56413 0.32973 0.0
C1523 C 0.17576 0.5789 0.3466 0.0
H1524 H 0.18415 0.59399 0.35761 0.0
C1525 C 0.23011 0.52453 0.27557 0.0
N1526 N 0.21676 0.53629 0.29503 0.0
C1527 C 0.2181 0.50751 0.25879 0.0
C1528 C 0.19193 0.50335 0.26076 0.0
H1529 H 0.24973 0.52907 0.27129 0.0
H1530 H 0.11682 0.52461 0.30047 0.0
H1531 H 0.32335 0.54911 0.35831 0.0
H1532 H 0.11587 0.55618 0.33606 0.0
H1533 H 0.13886 0.58747 0.36298 0.0
H1534 H 0.14107 0.5013 0.26777 0.0
H1535 H 0.22776 0.53277 0.43139 0.0
H1536 H 0.36243 0.59585 0.41314 0.0
H1537 H 0.36224 0.57183 0.37222 0.0
H1538 H 0.30363 0.5991 0.48343 0.0
H1539 H 0.22894 0.49839 0.24361 0.0
H1540 H 0.18258 0.49071 0.24716 0.0
H1541 H 0.33999 0.60674 0.45436 0.0
H1542 H 0.22827 0.54662 0.4768 0.0
N1543 N 0.30105 0.56107 0.39038 0.0
C1544 C 0.34516 0.5861 0.40701 0.0
C1545 C 0.34518 0.57241 0.384 0.0
C1546 C 0.32337 0.58562 0.42262 0.0
C1547 C 0.30142 0.57254 0.41376 0.0
C1548 C 0.32299 0.55953 0.37617 0.0
N1549 N 0.26129 0.55374 0.42153 0.0
C1550 C 0.28097 0.56843 0.43005 0.0
C1551 C 0.24312 0.55302 0.46382 0.0
C1552 C 0.26249 0.56934 0.47254 0.0
C1553 C 0.2429 0.5452 0.43813 0.0
C1554 C 0.28191 0.57702 0.45569 0.0
H1555 H 0.26261 0.5754 0.49243 0.0
O1556 O 0.25381 0.50453 0.39814 0.0
O1557 O 0.23586 0.53407 0.34521 0.0
O1558 O 0.22732 0.59654 0.35603 0.0
O1559 O 0.23933 0.57372 0.3929 0.0
O1560 O 0.22219 0.52581 0.38149 0.0
O1561 O 0.2914 0.51048 0.38214 0.0
O1562 O 0.2409 0.58485 0.28284 0.0
O1563 O 0.26307 0.57443 0.35192 0.0
O1564 O 0.28483 0.52735 0.34418 0.0
O1565 O 0.26768 0.54534 0.30679 0.0
O1566 O 0.27272 0.58797 0.31598 0.0
O1567 O 0.21351 0.60361 0.30722 0.0
C1568 C 0.21707 0.52459 0.35735 0.0
C1569 C 0.30278 0.59188 0.46395 0.0
C1570 C 0.32347 0.59626 0.44739 0.0
C1571 C 0.27705 0.49571 0.39632 0.0
C1572 C 0.28872 0.48598 0.42032 0.0
C1573 C 0.30267 0.50273 0.43607 0.0
C1574 C 0.28609 0.46001 0.42769 0.0
C1575 C 0.29744 0.45099 0.45068 0.0
C1576 C 0.3132 0.49419 0.45906 0.0
C1577 C 0.31055 0.46864 0.46639 0.0
C1578 C 0.22859 0.59383 0.38162 0.0
C1579 C 0.28069 0.58556 0.33926 0.0
C1580 C 0.22365 0.60284 0.28437 0.0
C1581 C 0.20618 0.60522 0.2618 0.0
C1582 C 0.19495 0.58306 0.2516 0.0
C1583 C 0.20212 0.62895 0.24902 0.0
C1584 C 0.18702 0.63012 0.22624 0.0
C1585 C 0.18005 0.58399 0.22958 0.0
C1586 C 0.17632 0.6071 0.21688 0.0
C1587 C 0.28423 0.53047 0.31912 0.0
H1588 H 0.3056 0.52242 0.43057 0.0
H1589 H 0.2758 0.44684 0.41533 0.0
H1590 H 0.32364 0.50743 0.47119 0.0
H1591 H 0.31887 0.46267 0.48447 0.0
H1592 H 0.19838 0.56472 0.26002 0.0
H1593 H 0.21091 0.64618 0.25659 0.0
H1594 H 0.1719 0.5665 0.22189 0.0
H1595 H 0.16564 0.60655 0.19909 0.0
Gd1596 Gd 0.27583 0.49563 0.88382 0.0
Gd1597 Gd 0.30527 0.46766 0.82586 0.0
C1598 C 0.38584 0.50085 0.81449 0.0
C1599 C 0.38189 0.52174 0.77317 0.0
C1600 C 0.34444 0.50261 0.79343 0.0
C1601 C 0.3594 0.49495 0.814 0.0
C1602 C 0.35566 0.51607 0.77274 0.0
C1603 C 0.39688 0.5144 0.79411 0.0
C1604 C 0.40076 0.49194 0.83486 0.0
C1605 C 0.3895 0.47688 0.85376 0.0
N1606 N 0.34866 0.47996 0.83244 0.0
C1607 C 0.36347 0.47084 0.85213 0.0
H1608 H 0.35578 0.45881 0.86683 0.0
C1609 C 0.30546 0.49922 0.7707 0.0
N1610 N 0.31961 0.49491 0.79246 0.0
C1611 C 0.31537 0.51359 0.75041 0.0
C1612 C 0.34056 0.52222 0.75149 0.0
H1613 H 0.2866 0.49098 0.7684 0.0
H1614 H 0.41715 0.5187 0.79407 0.0
H1615 H 0.21518 0.49309 0.86084 0.0
H1616 H 0.42105 0.49622 0.83595 0.0
H1617 H 0.40093 0.46964 0.86951 0.0
H1618 H 0.39084 0.53161 0.75723 0.0
H1619 H 0.30616 0.49798 0.94016 0.0
H1620 H 0.17227 0.44115 0.90728 0.0
H1621 H 0.17484 0.47095 0.8705 0.0
H1622 H 0.22843 0.42461 0.97778 0.0
H1623 H 0.30383 0.51722 0.73354 0.0
H1624 H 0.34848 0.53268 0.73538 0.0
H1625 H 0.19303 0.42269 0.94664 0.0
H1626 H 0.3032 0.47794 0.98311 0.0
N1627 N 0.2359 0.4758 0.89161 0.0
C1628 C 0.19018 0.45077 0.90311 0.0
C1629 C 0.19149 0.46775 0.88247 0.0
C1630 C 0.21149 0.44775 0.91909 0.0
C1631 C 0.23424 0.46104 0.91299 0.0
C1632 C 0.21456 0.48029 0.87705 0.0
N1633 N 0.27428 0.4775 0.92514 0.0
C1634 C 0.25415 0.46196 0.93042 0.0
C1635 C 0.28948 0.47299 0.96835 0.0
C1636 C 0.27026 0.45503 0.97331 0.0
C1637 C 0.29101 0.4844 0.94412 0.0
C1638 C 0.25184 0.44984 0.95449 0.0
H1639 H 0.26901 0.44634 0.99214 0.0
O1640 O 0.28513 0.52952 0.90655 0.0
O1641 O 0.30276 0.50244 0.85104 0.0
O1642 O 0.31463 0.44206 0.86103 0.0
O1643 O 0.30053 0.46331 0.89809 0.0
O1644 O 0.31562 0.51217 0.88729 0.0
O1645 O 0.2477 0.52601 0.88952 0.0
O1646 O 0.30048 0.44613 0.79017 0.0
O1647 O 0.27589 0.46215 0.85636 0.0
O1648 O 0.25552 0.5111 0.84909 0.0
O1649 O 0.27404 0.49478 0.81155 0.0
O1650 O 0.2655 0.45279 0.81916 0.0
O1651 O 0.32588 0.43179 0.81918 0.0
C1652 C 0.32089 0.51312 0.86316 0.0
C1653 C 0.23032 0.4345 0.95961 0.0
C1654 C 0.21016 0.43343 0.94188 0.0
C1655 C 0.26232 0.53941 0.90475 0.0
C1656 C 0.25067 0.54846 0.92901 0.0
C1657 C 0.23831 0.53094 0.94519 0.0
C1658 C 0.25201 0.57458 0.93629 0.0
C1659 C 0.24103 0.58304 0.95968 0.0
C1660 C 0.22802 0.53896 0.96849 0.0
C1661 C 0.22945 0.56467 0.97577 0.0
C1662 C 0.31271 0.44429 0.88653 0.0
C1663 C 0.25783 0.45308 0.84268 0.0
C1664 C 0.31773 0.42897 0.79568 0.0
C1665 C 0.33754 0.42419 0.77559 0.0
C1666 C 0.35956 0.43944 0.77535 0.0
C1667 C 0.33456 0.40523 0.75621 0.0
C1668 C 0.35301 0.40265 0.73611 0.0
C1669 C 0.37688 0.43817 0.75523 0.0
C1670 C 0.37334 0.42056 0.73553 0.0
C1671 C 0.25723 0.50932 0.82391 0.0
H1672 H 0.23657 0.51102 0.93984 0.0
H1673 H 0.26112 0.58826 0.92358 0.0
H1674 H 0.21881 0.52517 0.98097 0.0
H1675 H 0.22148 0.57013 0.99415 0.0
H1676 H 0.36337 0.45254 0.79069 0.0
H1677 H 0.31816 0.3926 0.75716 0.0
H1678 H 0.39318 0.45101 0.75487 0.0
H1679 H 0.38687 0.42125 0.71988 0.0
Gd1680 Gd 0.65982 0.76362 0.99394 0.0
Gd1681 Gd 0.71697 0.73219 0.96902 0.0
C1682 C 0.71839 0.64741 0.9922 0.0
C1683 C 0.75858 0.64458 1.01531 0.0
C1684 C 0.74283 0.68606 1.00055 0.0
C1685 C 0.72187 0.67419 0.98944 0.0
C1686 C 0.76125 0.67131 1.0139 0.0
C1687 C 0.73699 0.63269 1.00488 0.0
C1688 C 0.69622 0.63615 0.98232 0.0
C1689 C 0.67789 0.65153 0.97054 0.0
N1690 N 0.70441 0.68886 0.9768 0.0
C1691 C 0.6822 0.67787 0.96807 0.0
H1692 H 0.6671 0.68898 0.95982 0.0
C1693 C 0.76638 0.72391 1.00852 0.0
N1694 N 0.7454 0.71189 0.99815 0.0
C1695 C 0.78455 0.71019 0.02263 0.0
C1696 C 0.78207 0.68375 0.02524 0.0
H1697 H 0.7703 0.74389 1.00494 0.0
H1698 H 0.7348 0.61211 1.00684 0.0
H1699 H 0.68368 0.82317 0.98564 0.0
H1700 H 0.69282 0.61572 0.98419 0.0
H1701 H 0.66028 0.64314 0.96346 0.0
H1702 H 0.77293 0.63299 0.02488 0.0
H1703 H 0.60773 0.72628 0.99207 0.0
H1704 H 0.63141 0.86537 0.93864 0.0
H1705 H 0.67214 0.86283 0.9628 0.0
H1706 H 0.56001 0.80826 0.9298 0.0
H1707 H 0.80098 0.71994 0.03075 0.0
H1708 H 0.79647 0.67308 0.03577 0.0
H1709 H 0.58965 0.8448 0.92633 0.0
H1710 H 0.56412 0.72718 0.97333 0.0
N1711 N 0.65031 0.80284 0.97376 0.0
C1712 C 0.63641 0.84781 0.94857 0.0
C1713 C 0.65939 0.84647 0.96223 0.0
C1714 C 0.61976 0.82677 0.94862 0.0
C1715 C 0.62727 0.80429 0.96168 0.0
C1716 C 0.66587 0.82387 0.97516 0.0
N1717 N 0.61825 0.76254 0.97664 0.0
C1718 C 0.61056 0.78372 0.96356 0.0
C1719 C 0.57704 0.74315 0.97036 0.0
C1720 C 0.56919 0.76434 0.95596 0.0
C1721 C 0.60166 0.7427 0.98095 0.0
C1722 C 0.58593 0.78505 0.95253 0.0
H1723 H 0.5501 0.76467 0.94783 0.0
O1724 O 0.63612 0.75576 0.02737 0.0
O1725 O 0.69116 0.73566 1.00261 0.0
O1726 O 0.68397 0.72546 0.93981 0.0
O1727 O 0.64747 0.74538 0.95681 0.0
O1728 O 0.65453 0.72361 1.01046 0.0
O1729 O 0.65472 0.79271 0.02334 0.0
O1730 O 0.72532 0.71654 0.93113 0.0
O1731 O 0.68911 0.76379 0.96219 0.0
O1732 O 0.69391 0.78453 1.00981 0.0
O1733 O 0.73122 0.76287 0.99723 0.0
O1734 O 0.72738 0.77199 0.95652 0.0
O1735 O 0.75614 0.73032 0.95492 0.0
C1736 C 0.67842 0.71781 1.01274 0.0
C1737 C 0.57873 0.80701 0.93869 0.0
C1738 C 0.59564 0.82779 0.93667 0.0
C1739 C 0.63867 0.77883 0.03666 0.0
C1740 C 0.6149 0.79151 0.04535 0.0
C1741 C 0.60201 0.80879 0.02927 0.0
C1742 C 0.60494 0.78629 0.06995 0.0
C1743 C 0.58221 0.79834 0.07848 0.0
C1744 C 0.57952 0.82064 0.03745 0.0
C1745 C 0.56972 0.81559 0.06182 0.0
C1746 C 0.65917 0.73197 0.93876 0.0
C1747 C 0.70445 0.78116 0.95452 0.0
C1748 C 0.74991 0.72052 0.93285 0.0
C1749 C 0.76298 0.73139 0.9102 0.0
C1750 C 0.7569 0.7561 0.90158 0.0
C1751 C 0.78253 0.71734 0.89776 0.0
C1752 C 0.79637 0.72815 0.87706 0.0
C1753 C 0.77068 0.76712 0.88156 0.0
C1754 C 0.79032 0.75348 0.86957 0.0
C1755 C 0.71895 0.78104 1.01033 0.0
H1756 H 0.60941 0.81336 1.01049 0.0
H1757 H 0.61485 0.77285 0.08233 0.0
H1758 H 0.56979 0.83407 0.02495 0.0
H1759 H 0.55263 0.82573 0.0678 0.0
H1760 H 0.74173 0.76703 0.91047 0.0
H1761 H 0.78679 0.69805 0.90423 0.0
H1762 H 0.76636 0.7865 0.87546 0.0
H1763 H 0.80102 0.76312 0.85464 0.0
Gd1764 Gd 0.15425 0.77862 0.04194 0.0
Gd1765 Gd 0.2114 0.8079 0.07027 0.0
C1766 C 0.21215 0.8907 0.04001 0.0
C1767 C 0.24814 0.88991 1.01079 0.0
C1768 C 0.2348 0.85071 0.0325 0.0
C1769 C 0.21547 0.86419 0.04489 0.0
C1770 C 0.25173 0.86372 1.01581 0.0
C1771 C 0.22819 0.90326 0.02257 0.0
C1772 C 0.19335 0.90418 0.05342 0.0
C1773 C 0.17949 0.89172 0.0724 0.0
N1774 N 0.2011 0.85191 0.06288 0.0
C1775 C 0.18417 0.86583 0.07743 0.0
H1776 H 0.17477 0.85803 0.09388 0.0
C1777 C 0.25995 0.81312 0.02971 0.0
N1778 N 0.23864 0.82565 0.03864 0.0
C1779 C 0.27673 0.82501 1.01262 0.0
C1780 C 0.27259 0.8504 1.00557 0.0
H1781 H 0.26503 0.79424 0.03644 0.0
H1782 H 0.22576 0.92352 1.01877 0.0
H1783 H 0.17712 0.71796 0.04571 0.0
H1784 H 0.19011 0.92444 0.05 0.0
H1785 H 0.16575 0.90227 0.08385 0.0
H1786 H 0.26114 0.90018 0.99835 0.0
H1787 H 0.09789 0.80887 0.03853 0.0
H1788 H 0.1304 0.67597 0.09814 0.0
H1789 H 0.16736 0.67799 0.06858 0.0
H1790 H 0.05994 0.73256 0.11327 0.0
H1791 H 0.29338 0.81482 1.00556 0.0
H1792 H 0.28608 0.85979 0.99287 0.0
H1793 H 0.09099 0.69713 0.116 0.0
H1794 H 0.05489 0.80632 0.05838 0.0
N1795 N 0.14627 0.73902 0.06241 0.0
C1796 C 0.13464 0.69372 0.08822 0.0
C1797 C 0.15537 0.69472 0.07137 0.0
C1798 C 0.11866 0.71513 0.09076 0.0
C1799 C 0.12485 0.73765 0.07709 0.0
C1800 C 0.16085 0.71757 0.05841 0.0
N1801 N 0.11283 0.77743 0.05979 0.0
C1802 C 0.10747 0.75759 0.07573 0.0
C1803 C 0.06961 0.79268 0.0637 0.0
C1804 C 0.06456 0.77383 0.08204 0.0
C1805 C 0.09387 0.79399 0.0524 0.0
C1806 C 0.08335 0.75552 0.08774 0.0
H1807 H 0.04571 0.77278 0.09063 0.0
O1808 O 0.13184 0.78746 1.00776 0.0
O1809 O 0.18755 0.80488 0.03459 0.0
O1810 O 0.17627 0.81443 0.0969 0.0
O1811 O 0.13963 0.80488 0.07291 0.0
O1812 O 0.15151 0.81837 0.02513 0.0
O1813 O 0.14843 0.74988 1.01219 0.0
O1814 O 0.24975 0.80412 0.08655 0.0
O1815 O 0.18085 0.77871 0.07598 0.0
O1816 O 0.18903 0.75812 0.02684 0.0
O1817 O 0.2263 0.77496 0.04538 0.0
O1818 O 0.21772 0.76855 0.08659 0.0
O1819 O 0.22188 0.82726 0.106 0.0
C1820 C 0.17571 0.82312 0.02369 0.0
C1821 C 0.07815 0.73426 0.10345 0.0
C1822 C 0.09583 0.71407 0.10498 0.0
C1823 C 0.13337 0.76436 0.99847 0.0
C1824 C 0.10901 0.75278 0.98981 0.0
C1825 C 0.09294 0.74054 1.00751 0.0
C1826 C 0.10153 0.75415 0.96381 0.0
C1827 C 0.07799 0.74344 0.95562 0.0
C1828 C 0.06947 0.73049 0.99975 0.0
C1829 C 0.06194 0.73203 0.97413 0.0
C1830 C 0.15084 0.81475 0.09338 0.0
C1831 C 0.19425 0.76084 0.08583 0.0
C1832 C 0.24575 0.8199 0.10547 0.0
C1833 C 0.26562 0.84008 0.10938 0.0
C1834 C 0.26716 0.86032 0.09188 0.0
C1835 C 0.28364 0.83902 0.12976 0.0
C1836 C 0.30344 0.85778 0.13188 0.0
C1837 C 0.28676 0.87824 0.09322 0.0
C1838 C 0.30496 0.87676 0.11263 0.0
C1839 C 0.21411 0.75868 0.03002 0.0
H1840 H 0.0985 0.73871 0.02735 0.0
H1841 H 0.11423 0.7631 0.95003 0.0
H1842 H 0.05705 0.7214 1.01367 0.0
H1843 H 0.04343 0.72427 0.96885 0.0
H1844 H 0.25332 0.86219 0.07692 0.0
H1845 H 0.28203 0.82382 0.14381 0.0
H1846 H 0.28798 0.89329 0.07896 0.0
H1847 H 0.32039 0.8906 0.11221 0.0
Gd1848 Gd 0.38148 0.2658 0.54317 0.0
Gd1849 Gd 0.325 0.23157 0.56859 0.0
C1850 C 0.31698 0.15183 0.5323 0.0
C1851 C 0.27483 0.15422 0.51275 0.0
C1852 C 0.29286 0.1915 0.53442 0.0
C1853 C 0.31479 0.17769 0.54013 0.0
C1854 C 0.2725 0.17976 0.52093 0.0
C1855 C 0.29697 0.14027 0.51852 0.0
C1856 C 0.33903 0.13814 0.53894 0.0
C1857 C 0.35823 0.1502 0.55299 0.0
N1858 N 0.33349 0.18916 0.55421 0.0
C1859 C 0.35507 0.17569 0.56067 0.0
H1860 H 0.37032 0.1843 0.57141 0.0
C1861 C 0.26835 0.22914 0.54021 0.0
N1862 N 0.29092 0.216 0.54304 0.0
C1863 C 0.24793 0.21853 0.52651 0.0
C1864 C 0.25008 0.19379 0.51663 0.0
H1865 H 0.26587 0.24787 0.54881 0.0
H1866 H 0.2983 0.12042 0.51255 0.0
H1867 H 0.35592 0.32524 0.5492 0.0
H1868 H 0.3414 0.11826 0.53333 0.0
H1869 H 0.37546 0.13982 0.55811 0.0
H1870 H 0.25944 0.14494 0.50232 0.0
H1871 H 0.43841 0.23697 0.53942 0.0
H1872 H 0.402 0.36798 0.60166 0.0
H1873 H 0.36444 0.365 0.57293 0.0
H1874 H 0.47491 0.31379 0.61449 0.0
H1875 H 0.23035 0.22928 0.52403 0.0
H1876 H 0.23409 0.18546 0.5063 0.0
H1877 H 0.44271 0.34813 0.61814 0.0
H1878 H 0.4814 0.2403 0.55929 0.0
N1879 N 0.38811 0.3052 0.56458 0.0
C1880 C 0.39837 0.35034 0.59129 0.0
C1881 C 0.37724 0.34878 0.57498 0.0
C1882 C 0.41534 0.32962 0.5929 0.0
C1883 C 0.40981 0.30718 0.5788 0.0
C1884 C 0.37247 0.32604 0.56153 0.0
N1885 N 0.42294 0.26808 0.56077 0.0
C1886 C 0.4279 0.28795 0.57679 0.0
C1887 C 0.46643 0.25366 0.56462 0.0
C1888 C 0.47115 0.2726 0.58299 0.0
C1889 C 0.44218 0.25189 0.55333 0.0
C1890 C 0.452 0.29052 0.58875 0.0
H1891 H 0.48996 0.27396 0.59168 0.0
O1892 O 0.40325 0.25834 0.50827 0.0
O1893 O 0.35074 0.23691 0.53448 0.0
O1894 O 0.36039 0.22228 0.59389 0.0
O1895 O 0.39659 0.24177 0.57563 0.0
O1896 O 0.3882 0.22693 0.52587 0.0
O1897 O 0.38633 0.29556 0.51421 0.0
O1898 O 0.29047 0.23619 0.5919 0.0
O1899 O 0.35344 0.26257 0.57572 0.0
O1900 O 0.34562 0.28542 0.52944 0.0
O1901 O 0.30969 0.26023 0.53919 0.0
O1902 O 0.31563 0.27069 0.58426 0.0
O1903 O 0.31882 0.20836 0.60287 0.0
C1904 C 0.36456 0.22021 0.52343 0.0
C1905 C 0.45669 0.31171 0.60473 0.0
C1906 C 0.43836 0.33126 0.6068 0.0
C1907 C 0.40115 0.28163 0.49966 0.0
C1908 C 0.42515 0.29358 0.49043 0.0
C1909 C 0.44094 0.30693 0.5076 0.0
C1910 C 0.43275 0.29114 0.4645 0.0
C1911 C 0.456 0.30212 0.4558 0.0
C1912 C 0.46406 0.3174 0.49931 0.0
C1913 C 0.4716 0.31498 0.47375 0.0
C1914 C 0.38559 0.22696 0.59304 0.0
C1915 C 0.33867 0.27959 0.58495 0.0
C1916 C 0.29582 0.21724 0.60724 0.0
C1917 C 0.27504 0.19796 0.61113 0.0
C1918 C 0.27441 0.17622 0.59544 0.0
C1919 C 0.25531 0.20132 0.62964 0.0
C1920 C 0.23441 0.18366 0.6313 0.0
C1921 C 0.25357 0.15972 0.59577 0.0
C1922 C 0.23353 0.16375 0.61287 0.0
C1923 C 0.32094 0.28011 0.52794 0.0
H1924 H 0.43546 0.30923 0.52745 0.0
H1925 H 0.42042 0.28107 0.45114 0.0
H1926 H 0.47623 0.32745 0.5128 0.0
H1927 H 0.48984 0.32309 0.46809 0.0
H1928 H 0.28997 0.17202 0.58265 0.0
H1929 H 0.25665 0.21745 0.6426 0.0
H1930 H 0.25289 0.1437 0.58255 0.0
H1931 H 0.21738 0.15092 0.61128 0.0
Gd1932 Gd 0.88266 0.27633 0.49412 0.0
Gd1933 Gd 0.82491 0.30854 0.46886 0.0
C1934 C 0.81345 0.38752 0.50585 0.0
C1935 C 0.77189 0.3829 0.52621 0.0
C1936 C 0.79143 0.34666 0.50404 0.0
C1937 C 0.81252 0.36157 0.49808 0.0
C1938 C 0.77077 0.35728 0.51801 0.0
C1939 C 0.79308 0.39803 0.51996 0.0
C1940 C 0.83456 0.40238 0.49872 0.0
C1941 C 0.85409 0.39135 0.48426 0.0
N1942 N 0.8315 0.35112 0.4836 0.0
C1943 C 0.85215 0.36573 0.47664 0.0
H1944 H 0.86753 0.35793 0.46545 0.0
C1945 C 0.76858 0.30805 0.49809 0.0
N1946 N 0.79051 0.3222 0.49513 0.0
C1947 C 0.74798 0.31748 0.51237 0.0
C1948 C 0.74917 0.34214 0.5226 0.0
H1949 H 0.76664 0.28946 0.48908 0.0
H1950 H 0.79332 0.41797 0.5258 0.0
H1951 H 0.85775 0.21651 0.4892 0.0
H1952 H 0.83593 0.42238 0.50422 0.0
H1953 H 0.87057 0.40265 0.47873 0.0
H1954 H 0.75622 0.39135 0.53692 0.0
H1955 H 0.93887 0.30657 0.49619 0.0
H1956 H 0.90505 0.17276 0.43887 0.0
H1957 H 0.86706 0.17621 0.46688 0.0
H1958 H 0.97668 0.22778 0.42394 0.0
H1959 H 0.73096 0.30593 0.51498 0.0
H1960 H 0.733 0.34959 0.5333 0.0
H1961 H 0.94515 0.1928 0.42149 0.0
H1962 H 0.98189 0.30318 0.47649 0.0
N1963 N 0.88967 0.23664 0.47338 0.0
C1964 C 0.90086 0.19079 0.4483 0.0
C1965 C 0.87956 0.19257 0.46432 0.0
C1966 C 0.91737 0.21178 0.44591 0.0
C1967 C 0.91137 0.23462 0.45916 0.0
C1968 C 0.87436 0.21564 0.47699 0.0
N1969 N 0.92385 0.27455 0.47589 0.0
C1970 C 0.92909 0.25427 0.46046 0.0
C1971 C 0.96709 0.28952 0.4715 0.0
C1972 C 0.97214 0.26998 0.45388 0.0
C1973 C 0.94283 0.2913 0.48271 0.0
C1974 C 0.95326 0.25165 0.44865 0.0
H1975 H 0.99105 0.26842 0.4455 0.0
O1976 O 0.90537 0.28433 0.52826 0.0
O1977 O 0.85108 0.30436 0.50295 0.0
O1978 O 0.85994 0.31915 0.44354 0.0
O1979 O 0.89679 0.3006 0.46151 0.0
O1980 O 0.88843 0.31546 0.51106 0.0
O1981 O 0.88808 0.24706 0.5234 0.0
O1982 O 0.7902 0.30412 0.44581 0.0
O1983 O 0.85453 0.27873 0.46173 0.0
O1984 O 0.84777 0.25613 0.50909 0.0
O1985 O 0.81039 0.27756 0.49635 0.0
O1986 O 0.81712 0.26939 0.45248 0.0
O1987 O 0.81881 0.33142 0.43434 0.0
C1988 C 0.86463 0.32157 0.51364 0.0
C1989 C 0.95839 0.22995 0.43352 0.0
C1990 C 0.94044 0.21002 0.43215 0.0
C1991 C 0.9034 0.26115 0.53724 0.0
C1992 C 0.92752 0.24914 0.54585 0.0
C1993 C 0.94317 0.23611 0.52832 0.0
C1994 C 0.9353 0.25116 0.57168 0.0
C1995 C 0.95873 0.24031 0.57993 0.0
C1996 C 0.96651 0.22576 0.53617 0.0
C1997 C 0.97433 0.22793 0.56167 0.0
C1998 C 0.88527 0.31522 0.44427 0.0
C1999 C 0.84048 0.26134 0.45216 0.0
C2000 C 0.79574 0.3227 0.43011 0.0
C2001 C 0.77518 0.34211 0.42584 0.0
C2002 C 0.77399 0.36357 0.44189 0.0
C2003 C 0.75623 0.33916 0.4065 0.0
C2004 C 0.73558 0.35703 0.40423 0.0
C2005 C 0.75337 0.38034 0.44083 0.0
C2006 C 0.73409 0.37679 0.42276 0.0
C2007 C 0.82269 0.25918 0.50902 0.0
H2008 H 0.93741 0.23394 0.50856 0.0
H2009 H 0.92293 0.26082 0.5853 0.0
H2010 H 0.97862 0.21601 0.52241 0.0
H2011 H 0.99274 0.21996 0.56703 0.0
H2012 H 0.78896 0.36736 0.45545 0.0
H2013 H 0.75793 0.32323 0.39332 0.0
H2014 H 0.75227 0.3962 0.45421 0.0
H2015 H 0.71802 0.38983 0.4236 0.0
C2016 C 0.12969 0.41388 0.29598 0.0
C2017 C 0.11881 0.39789 0.3146 0.0
C2018 C 0.14841 0.43209 0.30215 0.0
C2019 C 0.1564 0.43511 0.32798 0.0
C2020 C 0.14714 0.41739 0.34659 0.0
C2021 C 0.12832 0.39905 0.33972 0.0
C2022 C 0.15907 0.44773 0.2804 0.0
C2023 C 0.15685 0.41788 0.37383 0.0
C2024 C 0.21323 0.48129 0.33644 0.0
C2025 C 0.20151 0.50248 0.34818 0.0
C2026 C 0.1992 0.45875 0.33095 0.0
C2027 C 0.1724 0.45793 0.33576 0.0
C2028 C 0.16048 0.47974 0.34693 0.0
C2029 C 0.17541 0.50105 0.35425 0.0
C2030 C 0.21314 0.43601 0.31975 0.0
C2031 C 0.1318 0.481 0.35049 0.0
H2032 H 0.12323 0.41255 0.27628 0.0
H2033 H 0.1204 0.38641 0.35419 0.0
H2034 H 0.1432 0.45595 0.26889 0.0
H2035 H 0.17184 0.46324 0.28683 0.0
H2036 H 0.17007 0.43493 0.26741 0.0
H2037 H 0.15423 0.39898 0.38333 0.0
H2038 H 0.17747 0.4231 0.37453 0.0
H2039 H 0.14601 0.43235 0.38501 0.0
H2040 H 0.23361 0.48194 0.33247 0.0
H2041 H 0.16647 0.51708 0.36401 0.0
H2042 H 0.21056 0.43588 0.29864 0.0
H2043 H 0.20543 0.41771 0.32746 0.0
H2044 H 0.23403 0.43688 0.3238 0.0
H2045 H 0.12191 0.47539 0.33247 0.0
H2046 H 0.12524 0.50052 0.35603 0.0
H2047 H 0.12579 0.46739 0.36565 0.0
C2048 C 0.36178 0.53822 0.86152 0.0
C2049 C 0.33646 0.53495 0.8532 0.0
C2050 C 0.37656 0.55941 0.85357 0.0
C2051 C 0.36502 0.5794 0.83913 0.0
C2052 C 0.33893 0.57678 0.83174 0.0
C2053 C 0.32525 0.55425 0.83814 0.0
C2054 C 0.40475 0.55998 0.86004 0.0
C2055 C 0.32543 0.59781 0.81716 0.0
C2056 C 0.40487 0.64146 0.84155 0.0
C2057 C 0.41757 0.64046 0.81787 0.0
C2058 C 0.38633 0.62267 0.84813 0.0
C2059 C 0.38077 0.60223 0.83085 0.0
C2060 C 0.39217 0.60267 0.80621 0.0
C2061 C 0.41011 0.6217 0.80012 0.0
C2062 C 0.37322 0.62432 0.87383 0.0
C2063 C 0.38753 0.58209 0.78655 0.0
H2064 H 0.37026 0.52381 0.87385 0.0
H2065 H 0.3054 0.55226 0.83233 0.0
H2066 H 0.41614 0.56229 0.8422 0.0
H2067 H 0.40905 0.57661 0.87257 0.0
H2068 H 0.41114 0.54221 0.86992 0.0
H2069 H 0.30443 0.59454 0.81601 0.0
H2070 H 0.32896 0.61665 0.82647 0.0
H2071 H 0.33311 0.59893 0.79736 0.0
H2072 H 0.41013 0.65616 0.85528 0.0
H2073 H 0.41898 0.62138 0.78136 0.0
H2074 H 0.38129 0.60965 0.88695 0.0
H2075 H 0.35241 0.62037 0.87179 0.0
H2076 H 0.37577 0.64348 0.88283 0.0
H2077 H 0.40344 0.5681 0.78796 0.0
H2078 H 0.38787 0.59018 0.76683 0.0
H2079 H 0.3692 0.57183 0.78931 0.0
C2080 C 0.60652 0.11057 0.71266 0.0
C2081 C 0.61292 0.13634 0.71694 0.0
C2082 C 0.62483 0.09223 0.70549 0.0
C2083 C 0.65056 0.09979 0.70108 0.0
C2084 C 0.65688 0.12632 0.70345 0.0
C2085 C 0.63811 0.14416 0.71179 0.0
C2086 C 0.61575 0.06483 0.70288 0.0
C2087 C 0.68322 0.13645 0.69723 0.0
C2088 C 0.70417 0.04934 0.70488 0.0
C2089 C 0.70167 0.0368 0.6812 0.0
C2090 C 0.68795 0.07002 0.71164 0.0
C2091 C 0.67013 0.07985 0.6935 0.0
C2092 C 0.6693 0.06867 0.6687 0.0
C2093 C 0.68435 0.04693 0.66322 0.0
C2094 C 0.68946 0.08088 0.7384 0.0
C2095 C 0.65202 0.07914 0.64798 0.0
H2096 H 0.58688 0.10446 0.71498 0.0
H2097 H 0.64333 0.1641 0.7146 0.0
H2098 H 0.63126 0.05076 0.69961 0.0
H2099 H 0.60529 0.05914 0.72046 0.0
H2100 H 0.6019 0.06354 0.68677 0.0
H2101 H 0.6928 0.14253 0.71524 0.0
H2102 H 0.69554 0.12226 0.68727 0.0
H2103 H 0.68155 0.15379 0.68496 0.0
H2104 H 0.71866 0.04288 0.71825 0.0
H2105 H 0.68276 0.03803 0.64448 0.0
H2106 H 0.67044 0.07944 0.74783 0.0
H2107 H 0.69468 0.10146 0.73764 0.0
H2108 H 0.70389 0.07081 0.75038 0.0
H2109 H 0.63267 0.07058 0.64998 0.0
H2110 H 0.6593 0.0742 0.62857 0.0
H2111 H 0.65015 0.10032 0.64939 0.0
C2112 C 0.90824 0.89955 0.19987 0.0
C2113 C 0.91769 0.89828 0.22504 0.0
C2114 C 0.89051 0.9189 0.19263 0.0
C2115 C 0.88235 0.93755 0.21085 0.0
C2116 C 0.89052 0.93489 0.23661 0.0
C2117 C 0.90784 0.91543 0.24327 0.0
C2118 C 0.88119 0.9199 0.16528 0.0
C2119 C 0.88318 0.95386 0.25705 0.0
C2120 C 0.8653 1.00425 0.18481 0.0
C2121 C 0.83882 1.00565 0.18903 0.0
C2122 C 0.87968 0.98269 0.19262 0.0
C2123 C 0.86705 0.96083 0.20281 0.0
C2124 C 0.84007 0.96184 0.20628 0.0
C2125 C 0.82642 0.98443 0.19999 0.0
C2126 C 0.9085 0.98355 0.19043 0.0
C2127 C 0.82558 0.93898 0.21646 0.0
H2128 H 0.91555 0.88628 0.18563 0.0
H2129 H 0.91451 0.91432 0.2629 0.0
H2130 H 0.8601 0.92274 0.16478 0.0
H2131 H 0.89007 0.93644 0.1553 0.0
H2132 H 0.88604 0.90213 0.15455 0.0
H2133 H 0.89742 0.96952 0.25658 0.0
H2134 H 0.86394 0.96217 0.25387 0.0
H2135 H 0.88374 0.94509 0.27647 0.0
H2136 H 0.87488 0.02035 0.17584 0.0
H2137 H 0.80583 0.98511 0.20269 0.0
H2138 H 0.91524 0.96846 0.17703 0.0
H2139 H 0.91728 0.97961 0.20943 0.0
H2140 H 0.91549 1.00246 0.18351 0.0
H2141 H 0.83066 0.92155 0.20532 0.0
H2142 H 0.80449 0.94182 0.21557 0.0
H2143 H 0.83104 0.9354 0.23671 0.0
C2144 C 0.37519 0.18807 0.48936 0.0
C2145 C 0.35678 0.20385 0.50109 0.0
C2146 C 0.3695 0.17353 0.46733 0.0
C2147 C 0.34412 0.17306 0.45755 0.0
C2148 C 0.32557 0.18958 0.46884 0.0
C2149 C 0.33246 0.20554 0.4897 0.0
C2150 C 0.39082 0.15822 0.45513 0.0
C2151 C 0.2983 0.1901 0.45926 0.0
C2152 C 0.32316 0.14097 0.39407 0.0
C2153 C 0.32082 0.11521 0.40154 0.0
C2154 C 0.33138 0.16001 0.41167 0.0
C2155 C 0.33656 0.15333 0.43771 0.0
C2156 C 0.33498 0.12708 0.44483 0.0
C2157 C 0.32776 0.10861 0.42667 0.0
C2158 C 0.33466 0.18697 0.40172 0.0
C2159 C 0.34103 0.11761 0.47152 0.0
H2160 H 0.39442 0.18729 0.49722 0.0
H2161 H 0.31865 0.219 0.49738 0.0
H2162 H 0.39276 0.13959 0.46521 0.0
H2163 H 0.38721 0.15448 0.43448 0.0
H2164 H 0.40942 0.16841 0.45703 0.0
H2165 H 0.2857 0.20204 0.47158 0.0
H2166 H 0.29773 0.19819 0.43963 0.0
H2167 H 0.29045 0.17033 0.45835 0.0
H2168 H 0.31829 0.14638 0.37459 0.0
H2169 H 0.32751 0.08867 0.43242 0.0
H2170 H 0.34398 0.20006 0.41565 0.0
H2171 H 0.31562 0.19487 0.39643 0.0
H2172 H 0.34632 0.18663 0.3839 0.0
H2173 H 0.34227 0.13309 0.48591 0.0
H2174 H 0.35951 0.10708 0.47117 0.0
H2175 H 0.32625 0.10377 0.47791 0.0
C2176 C 0.19611 0.90347 0.893 0.0
C2177 C 0.22047 0.9148 0.89257 0.0
C2178 C 0.18966 0.88506 0.91193 0.0
C2179 C 0.20786 0.87805 0.93106 0.0
C2180 C 0.23326 0.88746 0.92863 0.0
C2181 C 0.23902 0.90582 0.90982 0.0
C2182 C 0.16317 0.87351 0.91164 0.0
C2183 C 0.25489 0.8788 0.94561 0.0
C2184 C 0.17812 0.86276 0.99657 0.0
C2185 C 0.18534 0.83719 1.00067 0.0
C2186 C 0.1863 0.87638 0.97468 0.0
C2187 C 0.19968 0.86345 0.95477 0.0
C2188 C 0.20576 0.83706 0.95822 0.0
C2189 C 0.1993 0.82454 0.98142 0.0
C2190 C 0.18123 0.90489 0.97336 0.0
C2191 C 0.21928 0.82193 0.9376 0.0
H2192 H 0.18169 0.90974 0.87946 0.0
H2193 H 0.2582 0.91381 0.90913 0.0
H2194 H 0.16356 0.85324 0.91818 0.0
H2195 H 0.1505 0.88445 0.92474 0.0
H2196 H 0.15461 0.87429 0.89214 0.0
H2197 H 0.26876 0.86763 0.93394 0.0
H2198 H 0.26539 0.89565 0.95319 0.0
H2199 H 0.24854 0.8667 0.9617 0.0
H2200 H 0.16682 0.87245 1.01109 0.0
H2201 H 0.20433 0.80453 0.98409 0.0
H2202 H 0.16634 0.90893 0.95877 0.0
H2203 H 0.1989 0.91527 0.96761 0.0
H2204 H 0.17458 0.91272 0.99203 0.0
H2205 H 0.21322 0.82819 0.91817 0.0
H2206 H 0.21556 0.80103 0.93956 0.0
H2207 H 0.24024 0.82496 0.93931 0.0
C2208 C 0.83303 0.33562 0.54811 0.0
C2209 C 0.85672 0.33831 0.53566 0.0
C2210 C 0.82617 0.35168 0.56891 0.0
C2211 C 0.8442 0.36951 0.57899 0.0
C2212 C 0.86898 0.37051 0.56785 0.0
C2213 C 0.87457 0.35563 0.546 0.0
C2214 C 0.79947 0.34982 0.57979 0.0
C2215 C 0.88969 0.38768 0.57851 0.0
C2216 C 0.82455 0.43236 0.61142 0.0
C2217 C 0.82051 0.42519 0.63699 0.0
C2218 C 0.83211 0.41463 0.59265 0.0
C2219 C 0.83662 0.38862 0.59943 0.0
C2220 C 0.83426 0.38154 0.62576 0.0
C2221 C 0.82594 0.39981 0.64412 0.0
C2222 C 0.83533 0.42466 0.56571 0.0
C2223 C 0.84056 0.3549 0.63514 0.0
H2224 H 0.81968 0.32123 0.54133 0.0
H2225 H 0.8933 0.35735 0.53718 0.0
H2226 H 0.80034 0.34215 0.59958 0.0
H2227 H 0.79056 0.36915 0.58072 0.0
H2228 H 0.78699 0.33699 0.56826 0.0
H2229 H 0.90904 0.37979 0.5744 0.0
H2230 H 0.88843 0.40679 0.56925 0.0
H2231 H 0.88775 0.39025 0.59956 0.0
H2232 H 0.82184 0.45217 0.60587 0.0
H2233 H 0.82329 0.39405 0.66393 0.0
H2234 H 0.81855 0.43655 0.56032 0.0
H2235 H 0.83773 0.40941 0.55125 0.0
H2236 H 0.85233 0.43743 0.56503 0.0
H2237 H 0.82256 0.34496 0.64057 0.0
H2238 H 0.85251 0.35607 0.65275 0.0
H2239 H 0.85087 0.34312 0.62074 0.0
C2240 C 0.70066 0.63319 0.14157 0.0
C2241 C 0.72461 0.62098 0.14047 0.0
C2242 C 0.69329 0.65122 0.1225 0.0
C2243 C 0.70998 0.65673 0.1016 0.0
C2244 C 0.73471 0.64557 0.10159 0.0
C2245 C 0.74169 0.62833 0.12102 0.0
C2246 C 0.66739 0.6639 0.12439 0.0
C2247 C 0.7533 0.64962 0.07991 0.0
C2248 C 0.6795 0.67641 0.03749 0.0
C2249 C 0.68756 0.70191 0.03475 0.0
C2250 C 0.68719 0.66141 0.05869 0.0
C2251 C 0.70135 0.67275 0.07901 0.0
C2252 C 0.70859 0.69894 0.07678 0.0
C2253 C 0.70228 0.71292 0.05442 0.0
C2254 C 0.68077 0.63319 0.05894 0.0
C2255 C 0.72311 0.71219 0.09802 0.0
H2256 H 0.68735 0.62797 0.15664 0.0
H2257 H 0.76057 0.6198 0.12037 0.0
H2258 H 0.66912 0.68483 0.12081 0.0
H2259 H 0.65444 0.65592 0.10953 0.0
H2260 H 0.65844 0.66088 0.14348 0.0
H2261 H 0.74889 0.63517 0.06501 0.0
H2262 H 0.75167 0.66891 0.0712 0.0
H2263 H 0.77344 0.64665 0.08618 0.0
H2264 H 0.66764 0.66798 0.02269 0.0
H2265 H 0.70807 0.73283 0.05274 0.0
H2266 H 0.6684 0.62867 0.07561 0.0
H2267 H 0.69863 0.62176 0.06099 0.0
H2268 H 0.67079 0.62702 0.04115 0.0
H2269 H 0.71368 0.70855 0.11676 0.0
H2270 H 0.72439 0.73324 0.09494 0.0
H2271 H 0.74284 0.70435 0.0992 0.0
C2272 C 0.39342 0.32564 0.14118 0.0
C2273 C 0.4009 0.32241 0.11554 0.0
C2274 C 0.41126 0.33372 0.16012 0.0
C2275 C 0.43746 0.33793 0.15344 0.0
C2276 C 0.44451 0.33568 0.12723 0.0
C2277 C 0.42621 0.32848 0.10889 0.0
C2278 C 0.40143 0.33778 0.18701 0.0
C2279 C 0.4713 0.3409 0.11765 0.0
C2280 C 0.49022 0.37546 0.18794 0.0
C2281 C 0.50141 0.35691 0.20401 0.0
C2282 C 0.46811 0.37023 0.17335 0.0
C2283 C 0.45757 0.34513 0.17313 0.0
C2284 C 0.46835 0.32643 0.18987 0.0
C2285 C 0.48936 0.33291 0.20586 0.0
C2286 C 0.45661 0.39174 0.15774 0.0
C2287 C 0.45803 0.29942 0.19063 0.0
H2288 H 0.37384 0.32135 0.14662 0.0
H2289 H 0.43197 0.32739 0.08899 0.0
H2290 H 0.3959 0.31898 0.19534 0.0
H2291 H 0.41553 0.34719 0.19984 0.0
H2292 H 0.3838 0.34972 0.18645 0.0
H2293 H 0.47138 0.35927 0.1069 0.0
H2294 H 0.48573 0.342 0.13308 0.0
H2295 H 0.47729 0.32577 0.10398 0.0
H2296 H 0.4986 0.39447 0.18695 0.0
H2297 H 0.49663 0.31901 0.21947 0.0
H2298 H 0.4359 0.38872 0.15396 0.0
H2299 H 0.46681 0.39313 0.13914 0.0
H2300 H 0.45903 0.41043 0.16771 0.0
H2301 H 0.46995 0.28658 0.20274 0.0
H2302 H 0.457 0.29138 0.17093 0.0
H2303 H 0.43837 0.29952 0.1986 0.0
C2304 C 0.92695 0.20736 0.92633 0.0
C2305 C 0.90166 0.21462 0.92073 0.0
C2306 C 0.94453 0.20067 0.90718 0.0
C2307 C 0.93671 0.19993 0.88112 0.0
C2308 C 0.91053 0.20543 0.87533 0.0
C2309 C 0.8935 0.21318 0.89511 0.0
C2310 C 0.97141 0.19413 0.91573 0.0
C2311 C 0.89982 0.20286 0.84859 0.0
C2312 C 0.98877 0.20595 0.82933 0.0
C2313 C 1.00102 0.18204 0.83127 0.0
C2314 C 0.96722 0.212 0.84471 0.0
C2315 C 0.95614 0.19293 0.86077 0.0
C2316 C 0.96651 0.16776 0.85997 0.0
C2317 C 0.9892 0.16297 0.8462 0.0
C2318 C 0.95673 0.23897 0.8441 0.0
C2319 C 0.95437 0.14573 0.87427 0.0
H2320 H 0.93341 0.2071 0.94602 0.0
H2321 H 0.87392 0.21829 0.89038 0.0
H2322 H 0.98554 0.1946 0.90001 0.0
H2323 H 0.97789 0.20759 0.93081 0.0
H2324 H 0.97145 0.17471 0.92442 0.0
H2325 H 0.8822 0.19092 0.8491 0.0
H2326 H 0.89403 0.22209 0.84148 0.0
H2327 H 0.91346 0.19413 0.83483 0.0
H2328 H 0.99635 0.22014 0.81623 0.0
H2329 H 0.99757 0.14394 0.84698 0.0
H2330 H 0.95508 0.24672 0.86387 0.0
H2331 H 0.93732 0.2389 0.83553 0.0
H2332 H 0.96883 0.25206 0.8325 0.0
H2333 H 0.96526 0.14209 0.89219 0.0
H2334 H 0.9554 0.1279 0.86262 0.0
H2335 H 0.93401 0.14944 0.87916 0.0
C2336 C 0.5349 0.85549 0.36327 0.0
C2337 C 0.53269 0.85019 0.337 0.0
C2338 C 0.55682 0.84819 0.37732 0.0
C2339 C 0.57802 0.83686 0.36455 0.0
C2340 C 0.57603 0.83189 0.33782 0.0
C2341 C 0.55325 0.83816 0.3245 0.0
C2342 C 0.5571 0.8523 0.40598 0.0
C2343 C 0.59806 0.82011 0.32326 0.0
C2344 C 0.64043 0.83918 0.40407 0.0
C2345 C 0.64038 0.81474 0.41533 0.0
C2346 C 0.62115 0.84628 0.38617 0.0
C2347 C 0.60134 0.82864 0.37965 0.0
C2348 C 0.60264 0.80348 0.38968 0.0
C2349 C 0.62194 0.79696 0.40716 0.0
C2350 C 0.62129 0.87301 0.37517 0.0
C2351 C 0.58217 0.78393 0.38432 0.0
H2352 H 0.51923 0.86514 0.37292 0.0
H2353 H 0.55192 0.83456 0.30406 0.0
H2354 H 0.56048 0.83374 0.41585 0.0
H2355 H 0.57302 0.86533 0.41132 0.0
H2356 H 0.53883 0.86056 0.41314 0.0
H2357 H 0.59442 0.81948 0.30227 0.0
H2358 H 0.61586 0.8312 0.32684 0.0
H2359 H 0.60148 0.80026 0.33011 0.0
H2360 H 0.65449 0.85316 0.41029 0.0
H2361 H 0.62159 0.77804 0.41564 0.0
H2362 H 0.60555 0.88437 0.38387 0.0
H2363 H 0.61785 0.87237 0.35416 0.0
H2364 H 0.63969 0.88305 0.37889 0.0
H2365 H 0.566 0.78791 0.39745 0.0
H2366 H 0.58896 0.76404 0.38792 0.0
H2367 H 0.57514 0.78517 0.36435 0.0
C2368 C 0.14355 0.69257 0.63227 0.0
C2369 C 0.14491 0.71761 0.62252 0.0
C2370 C 0.1245 0.68581 0.65051 0.0
C2371 C 0.10631 0.70441 0.65891 0.0
C2372 C 0.10945 0.73011 0.65067 0.0
C2373 C 0.12825 0.73618 0.63253 0.0
C2374 C 0.12329 0.65856 0.66011 0.0
C2375 C 0.09174 0.75128 0.65891 0.0
C2376 C 0.03868 0.68016 0.67458 0.0
C2377 C 0.03645 0.68536 0.70086 0.0
C2378 C 0.06092 0.68689 0.66074 0.0
C2379 C 0.08266 0.69679 0.67383 0.0
C2380 C 0.081 0.70059 0.70078 0.0
C2381 C 0.05772 0.69562 0.71378 0.0
C2382 C 0.06085 0.68401 0.63193 0.0
C2383 C 0.10377 0.7099 0.716 0.0
H2384 H 0.15628 0.67801 0.62466 0.0
H2385 H 0.12899 0.75559 0.62511 0.0
H2386 H 0.11969 0.65823 0.6811 0.0
H2387 H 0.10722 0.64837 0.65064 0.0
H2388 H 0.14128 0.64791 0.65601 0.0
H2389 H 0.10155 0.7702 0.65868 0.0
H2390 H 0.07581 0.7522 0.64499 0.0
H2391 H 0.08382 0.74806 0.67829 0.0
H2392 H 0.02265 0.67141 0.66468 0.0
H2393 H 0.05649 0.69884 0.73429 0.0
H2394 H 0.07562 0.66994 0.62595 0.0
H2395 H 0.06572 0.70264 0.62286 0.0
H2396 H 0.04197 0.67757 0.62448 0.0
H2397 H 0.12165 0.70053 0.70928 0.0
H2398 H 0.10144 0.7061 0.73684 0.0
H2399 H 0.10604 0.73089 0.71336 0.0
C2400 C 0.93076 0.60989 0.70912 0.0
C2401 C 0.92428 0.6352 0.71566 0.0
C2402 C 0.91219 0.59156 0.7026 0.0
C2403 C 0.88599 0.59874 0.70109 0.0
C2404 C 0.8794 0.62488 0.7058 0.0
C2405 C 0.8985 0.6426 0.71353 0.0
C2406 C 0.92145 0.56463 0.6972 0.0
C2407 C 0.85246 0.63484 0.70249 0.0
C2408 C 0.84998 0.54694 0.66367 0.0
C2409 C 0.83441 0.53573 0.68255 0.0
C2410 C 0.86507 0.56873 0.66887 0.0
C2411 C 0.86615 0.57883 0.69414 0.0
C2412 C 0.84997 0.56795 0.71318 0.0
C2413 C 0.8336 0.54728 0.70684 0.0
C2414 C 0.88024 0.58039 0.64717 0.0
C2415 C 0.85029 0.57775 0.7404 0.0
H2416 H 0.95066 0.60411 0.70912 0.0
H2417 H 0.89313 0.6622 0.71798 0.0
H2418 H 0.93537 0.55857 0.71206 0.0
H2419 H 0.90593 0.55024 0.69649 0.0
H2420 H 0.9318 0.56442 0.67862 0.0
H2421 H 0.85274 0.65237 0.69039 0.0
H2422 H 0.83927 0.62073 0.6936 0.0
H2423 H 0.84474 0.64061 0.72148 0.0
H2424 H 0.85015 0.53887 0.6445 0.0
H2425 H 0.82036 0.53998 0.72104 0.0
H2426 H 0.89895 0.57043 0.64558 0.0
H2427 H 0.8838 0.60117 0.65022 0.0
H2428 H 0.8701 0.57789 0.62859 0.0
H2429 H 0.87014 0.57727 0.74808 0.0
H2430 H 0.83765 0.56639 0.75319 0.0
H2431 H 0.84368 0.59793 0.74093 0.0
C2432 C 0.60678 0.42905 0.211 0.0
C2433 C 0.61344 0.40335 0.21538 0.0
C2434 C 0.62496 0.4476 0.20406 0.0
C2435 C 0.65086 0.44035 0.20007 0.0
C2436 C 0.65745 0.41388 0.20248 0.0
C2437 C 0.63879 0.39582 0.21051 0.0
C2438 C 0.61559 0.47489 0.20135 0.0
C2439 C 0.68403 0.40408 0.19669 0.0
C2440 C 0.68556 0.49358 0.16343 0.0
C2441 C 0.7023 0.50366 0.18198 0.0
C2442 C 0.67032 0.47184 0.16841 0.0
C2443 C 0.67043 0.46054 0.19317 0.0
C2444 C 0.68764 0.47037 0.21189 0.0
C2445 C 0.70402 0.49108 0.20571 0.0
C2446 C 0.65363 0.46144 0.14718 0.0
C2447 C 0.68833 0.45946 0.23867 0.0
H2448 H 0.58705 0.43493 0.21316 0.0
H2449 H 0.64423 0.37595 0.21342 0.0
H2450 H 0.63092 0.48911 0.19791 0.0
H2451 H 0.60163 0.47595 0.18531 0.0
H2452 H 0.60516 0.48057 0.21896 0.0
H2453 H 0.6828 0.38658 0.18458 0.0
H2454 H 0.69624 0.41835 0.18675 0.0
H2455 H 0.69348 0.39833 0.21489 0.0
H2456 H 0.68457 0.50254 0.14469 0.0
H2457 H 0.71803 0.49754 0.21957 0.0
H2458 H 0.63407 0.46957 0.14901 0.0
H2459 H 0.65217 0.44021 0.14821 0.0
H2460 H 0.66113 0.46685 0.12799 0.0
H2461 H 0.66904 0.461 0.24753 0.0
H2462 H 0.70244 0.46944 0.25109 0.0
H2463 H 0.69347 0.43885 0.23803 0.0
C2464 C 0.40391 0.91314 0.29853 0.0
C2465 C 0.412 0.89492 0.31661 0.0
C2466 C 0.38666 0.93278 0.30485 0.0
C2467 C 0.37645 0.93429 0.32994 0.0
C2468 C 0.38263 0.91446 0.34772 0.0
C2469 C 0.40062 0.89515 0.34097 0.0
C2470 C 0.382 0.95353 0.28534 0.0
C2471 C 0.37118 0.9143 0.37424 0.0
C2472 C 0.36004 1.0006 0.35742 0.0
C2473 C 0.33416 1.00347 0.35084 0.0
C2474 C 0.37406 0.97861 0.35018 0.0
C2475 C 0.36145 0.95778 0.33795 0.0
C2476 C 0.33497 0.96025 0.33209 0.0
C2477 C 0.32185 0.98326 0.33798 0.0
C2478 C 0.40249 0.97787 0.35538 0.0
C2479 C 0.3204 0.93841 0.31993 0.0
H2480 H 0.41246 0.91303 0.27959 0.0
H2481 H 0.40674 0.88123 0.35515 0.0
H2482 H 0.36197 0.96053 0.28569 0.0
H2483 H 0.39471 0.96977 0.29028 0.0
H2484 H 0.38666 0.94712 0.26555 0.0
H2485 H 0.37364 0.89541 0.38379 0.0
H2486 H 0.38068 0.92911 0.3862 0.0
H2487 H 0.35044 0.91902 0.37344 0.0
H2488 H 0.36947 1.01586 0.36792 0.0
H2489 H 0.30163 0.98502 0.33352 0.0
H2490 H 0.41298 0.97244 0.3377 0.0
H2491 H 0.40675 0.96314 0.37012 0.0
H2492 H 0.40991 0.99665 0.36221 0.0
H2493 H 0.32763 0.93488 0.30025 0.0
H2494 H 0.2995 0.94235 0.31882 0.0
H2495 H 0.32346 0.92053 0.33109 0.0
C2496 C 0.21001 0.05522 0.83942 0.0
C2497 C 0.19713 0.03371 0.8492 0.0
C2498 C 0.19674 0.07816 0.83382 0.0
C2499 C 0.16968 0.07919 0.83654 0.0
C2500 C 0.15662 0.0571 0.84562 0.0
C2501 C 0.17064 0.03523 0.85311 0.0
C2502 C 0.21168 0.1012 0.82475 0.0
C2503 C 0.12772 0.05618 0.8466 0.0
C2504 C 0.12717 0.13919 0.8403 0.0
C2505 C 0.11915 0.14157 0.81476 0.0
C2506 C 0.14502 0.12 0.84746 0.0
C2507 C 0.15473 0.10266 0.82872 0.0
C2508 C 0.14826 0.10678 0.80263 0.0
C2509 C 0.13059 0.12594 0.79612 0.0
C2510 C 0.15313 0.11799 0.87515 0.0
C2511 C 0.15898 0.09092 0.78103 0.0
H2512 H 0.23064 0.0544 0.83704 0.0
H2513 H 0.16074 1.0189 0.86128 0.0
H2514 H 0.20853 0.10394 0.80389 0.0
H2515 H 0.205 0.11882 0.83468 0.0
H2516 H 0.23259 0.09891 0.8281 0.0
H2517 H 0.12046 0.03687 0.85193 0.0
H2518 H 0.12043 0.0703 0.86073 0.0
H2519 H 0.11969 0.06143 0.82758 0.0
H2520 H 0.11869 0.15145 0.85479 0.0
H2521 H 0.12513 0.12816 0.77616 0.0
H2522 H 0.17416 0.11501 0.87651 0.0
H2523 H 0.14371 0.10123 0.8842 0.0
H2524 H 0.14789 0.13543 0.88624 0.0
H2525 H 0.16886 0.1037 0.76715 0.0
H2526 H 0.14305 0.08165 0.7705 0.0
H2527 H 0.17263 0.07609 0.78741 0.0
C2528 C 0.74022 0.91016 0.62125 0.0
C2529 C 0.72274 0.91894 0.63971 0.0
C2530 C 0.73318 0.89252 0.60219 0.0
C2531 C 0.7079 0.88272 0.6015 0.0
C2532 C 0.69071 0.8897 0.62154 0.0
C2533 C 0.69824 0.90793 0.64031 0.0
C2534 C 0.75249 0.88658 0.58161 0.0
C2535 C 0.66411 0.8785 0.62271 0.0
C2536 C 0.67774 0.86371 0.53716 0.0
C2537 C 0.68396 0.83762 0.5352 0.0
C2538 C 0.68618 0.87867 0.55807 0.0
C2539 C 0.69911 0.86684 0.57892 0.0
C2540 C 0.70456 0.84017 0.57746 0.0
C2541 C 0.69762 0.8261 0.55533 0.0
C2542 C 0.6818 0.90729 0.55752 0.0
C2543 C 0.71764 0.82645 0.59933 0.0
H2544 H 0.75949 0.91785 0.62111 0.0
H2545 H 0.68464 0.91433 0.65466 0.0
H2546 H 0.74983 0.8673 0.57315 0.0
H2547 H 0.75006 0.901 0.56625 0.0
H2548 H 0.77243 0.88812 0.58894 0.0
H2549 H 0.65462 0.88252 0.64136 0.0
H2550 H 0.65219 0.88678 0.60717 0.0
H2551 H 0.66484 0.85742 0.61971 0.0
H2552 H 0.6667 0.87259 0.52196 0.0
H2553 H 0.70196 0.80578 0.55424 0.0
H2554 H 0.70034 0.91745 0.55998 0.0
H2555 H 0.66921 0.91306 0.57363 0.0
H2556 H 0.67291 0.91374 0.53925 0.0
H2557 H 0.73771 0.8332 0.6011 0.0
H2558 H 0.71786 0.80532 0.59657 0.0
H2559 H 0.70781 0.83092 0.61768 0.0
C2560 C 0.83918 0.21538 0.05583 0.0
C2561 C 0.85062 0.20263 0.03505 0.0
C2562 C 0.83274 0.20213 0.07864 0.0
C2563 C 0.83679 0.17522 0.08042 0.0
C2564 C 0.8475 0.16224 0.059 0.0
C2565 C 0.85518 0.17621 0.03713 0.0
C2566 C 0.82198 0.21701 0.101 0.0
C2567 C 0.85062 0.13347 0.05901 0.0
C2568 C 0.84116 0.13528 0.14242 0.0
C2569 C 0.81655 0.12454 0.14356 0.0
C2570 C 0.84763 0.1532 0.12298 0.0
C2571 C 0.82918 0.16031 0.10414 0.0
C2572 C 0.80384 0.15096 0.10683 0.0
C2573 C 0.79797 0.13331 0.12626 0.0
C2574 C 0.87454 0.16365 0.12193 0.0
C2575 C 0.78319 0.15723 0.0878 0.0
H2576 H 0.83622 0.23594 0.05464 0.0
H2577 H 0.86442 0.16634 0.02133 0.0
H2578 H 0.80212 0.21064 0.10504 0.0
H2579 H 0.83353 0.21318 0.11848 0.0
H2580 H 0.82175 0.23801 0.09736 0.0
H2581 H 0.85726 0.12604 0.04017 0.0
H2582 H 0.86461 0.12769 0.07395 0.0
H2583 H 0.83207 0.12424 0.06375 0.0
H2584 H 0.85572 0.12873 0.1557 0.0
H2585 H 0.77883 0.12526 0.12708 0.0
H2586 H 0.87419 0.18467 0.11844 0.0
H2587 H 0.88502 0.15464 0.10576 0.0
H2588 H 0.88528 0.15979 0.13992 0.0
H2589 H 0.78544 0.1767 0.07975 0.0
H2590 H 0.76378 0.15555 0.09641 0.0
H2591 H 0.78462 0.14308 0.0721 0.0
C2592 C 0.20454 0.70524 0.48668 0.0
C2593 C 0.18333 0.69869 0.50185 0.0
C2594 C 0.21078 0.69105 0.46443 0.0
C2595 C 0.19444 0.67092 0.45605 0.0
C2596 C 0.17205 0.66547 0.47044 0.0
C2597 C 0.16708 0.67901 0.49326 0.0
C2598 C 0.23561 0.69663 0.45075 0.0
C2599 C 0.1541 0.64418 0.46261 0.0
C2600 C 0.20673 0.63702 0.39125 0.0
C2601 C 0.21954 0.6147 0.39938 0.0
C2602 C 0.19841 0.65575 0.40929 0.0
C2603 C 0.20326 0.6522 0.43594 0.0
C2604 C 0.21601 0.62968 0.44386 0.0
C2605 C 0.22395 0.61174 0.42572 0.0
C2606 C 0.1837 0.67883 0.4 0.0
C2607 C 0.22144 0.62346 0.47156 0.0
H2608 H 0.21642 0.72129 0.49228 0.0
H2609 H 0.15028 0.67413 0.50447 0.0
H2610 H 0.2489 0.6802 0.45345 0.0
H2611 H 0.23232 0.69874 0.42984 0.0
H2612 H 0.24502 0.71428 0.45807 0.0
H2613 H 0.1353 0.64563 0.4725 0.0
H2614 H 0.15085 0.64442 0.44157 0.0
H2615 H 0.16284 0.62542 0.46763 0.0
H2616 H 0.20295 0.63973 0.37099 0.0
H2617 H 0.23371 0.59509 0.43273 0.0
H2618 H 0.19327 0.69672 0.40639 0.0
H2619 H 0.16423 0.67875 0.40857 0.0
H2620 H 0.18186 0.6792 0.37877 0.0
H2621 H 0.2424 0.62091 0.47394 0.0
H2622 H 0.21232 0.60488 0.4766 0.0
H2623 H 0.21468 0.63813 0.48526 0.0
C2624 C 0.37738 0.35099 0.99211 0.0
C2625 C 0.35897 0.33433 1.00251 0.0
C2626 C 0.37211 0.3662 0.97043 0.0
C2627 C 0.34716 0.36623 0.95959 0.0
C2628 C 0.32864 0.34894 0.96961 0.0
C2629 C 0.33512 0.33254 0.99022 0.0
C2630 C 0.39334 0.38263 0.95967 0.0
C2631 C 0.30177 0.34813 0.95899 0.0
C2632 C 0.3294 0.43059 0.92936 0.0
C2633 C 0.32389 0.42423 0.90381 0.0
C2634 C 0.33664 0.41205 0.94747 0.0
C2635 C 0.33984 0.38611 0.93985 0.0
C2636 C 0.3363 0.3798 0.91346 0.0
C2637 C 0.32792 0.39881 0.89591 0.0
C2638 C 0.34089 0.42111 0.97467 0.0
C2639 C 0.34145 0.35327 0.9031 0.0
H2640 H 0.39626 0.35195 1.00077 0.0
H2641 H 0.32141 0.31847 0.99686 0.0
H2642 H 0.39084 0.38619 0.93882 0.0
H2643 H 0.39353 0.40136 0.96977 0.0
H2644 H 0.41233 0.37349 0.96278 0.0
H2645 H 0.28941 0.33434 0.96947 0.0
H2646 H 0.29299 0.36752 0.96001 0.0
H2647 H 0.30217 0.34233 0.93856 0.0
H2648 H 0.32804 0.45034 0.93546 0.0
H2649 H 0.32426 0.3936 0.87611 0.0
H2650 H 0.34233 0.40538 0.98879 0.0
H2651 H 0.32505 0.43395 0.98063 0.0
H2652 H 0.35873 0.43266 0.97546 0.0
H2653 H 0.35076 0.34034 0.9172 0.0
H2654 H 0.35392 0.35461 0.8859 0.0
H2655 H 0.32313 0.34454 0.89672 0.0
C2656 C 0.55512 0.70285 0.82577 0.0
C2657 C 0.53607 0.68835 0.83802 0.0
C2658 C 0.57798 0.70962 0.83866 0.0
C2659 C 0.5812 0.70324 0.86496 0.0
C2660 C 0.56145 0.68939 0.87754 0.0
C2661 C 0.53992 0.68097 0.86356 0.0
C2662 C 0.59863 0.7237 0.82413 0.0
C2663 C 0.56261 0.68412 0.90599 0.0
C2664 C 0.64354 0.70137 0.90415 0.0
C2665 C 0.64304 0.7255 0.91603 0.0
C2666 C 0.62455 0.69445 0.88596 0.0
C2667 C 0.60444 0.7119 0.87985 0.0
C2668 C 0.60553 0.73703 0.89016 0.0
C2669 C 0.62463 0.74336 0.90798 0.0
C2670 C 0.62567 0.66824 0.87377 0.0
C2671 C 0.58602 0.75741 0.88408 0.0
H2672 H 0.55262 0.70798 0.80577 0.0
H2673 H 0.5256 0.66918 0.87289 0.0
H2674 H 0.5993 0.74399 0.83052 0.0
H2675 H 0.61767 0.71505 0.82813 0.0
H2676 H 0.59519 0.72342 0.8031 0.0
H2677 H 0.54472 0.67515 0.91325 0.0
H2678 H 0.57889 0.67118 0.91038 0.0
H2679 H 0.56585 0.70233 0.91658 0.0
H2680 H 0.65795 0.68753 0.90987 0.0
H2681 H 0.62452 0.76238 0.91632 0.0
H2682 H 0.62123 0.66952 0.85297 0.0
H2683 H 0.61114 0.65556 0.88269 0.0
H2684 H 0.6448 0.65919 0.87622 0.0
H2685 H 0.57286 0.75229 0.86829 0.0
H2686 H 0.59584 0.77565 0.87908 0.0
H2687 H 0.57468 0.76116 0.90159 0.0
C2688 C 0.04688 0.83449 0.20558 0.0
C2689 C 0.0349 0.85857 0.20455 0.0
C2690 C 0.0673 0.8282 0.18891 0.0
C2691 C 0.07748 0.84711 0.17213 0.0
C2692 C 0.06695 0.87222 0.1729 0.0
C2693 C 0.04542 0.87734 0.18837 0.0
C2694 C 0.07753 0.80113 0.18886 0.0
C2695 C 0.07788 0.89379 0.157 0.0
C2696 C 0.14107 0.82815 0.13935 0.0
C2697 C 0.13335 0.82509 0.11374 0.0
C2698 C 0.1235 0.83611 0.15849 0.0
C2699 C 0.09722 0.84014 0.15214 0.0
C2700 C 0.08974 0.83781 0.12606 0.0
C2701 C 0.1079 0.83103 0.10741 0.0
C2702 C 0.13375 0.84033 0.18522 0.0
C2703 C 0.06264 0.84253 0.117 0.0
H2704 H 0.04016 0.82045 0.21928 0.0
H2705 H 0.037 0.89636 0.18799 0.0
H2706 H 0.07616 0.79291 0.16925 0.0
H2707 H 0.098 0.80106 0.19444 0.0
H2708 H 0.06702 0.78853 0.20241 0.0
H2709 H 0.07485 0.91261 0.16655 0.0
H2710 H 0.0987 0.89123 0.15348 0.0
H2711 H 0.06787 0.89446 0.13825 0.0
H2712 H 0.16079 0.82418 0.14457 0.0
H2713 H 0.1019 0.8304 0.0876 0.0
H2714 H 0.14001 0.82167 0.19336 0.0
H2715 H 0.11967 0.84929 0.19838 0.0
H2716 H 0.15101 0.85277 0.18436 0.0
H2717 H 0.05656 0.82691 0.10393 0.0
H2718 H 0.0621 0.86055 0.10568 0.0
H2719 H 0.04847 0.84393 0.13268 0.0
C2720 C 0.48945 0.2053 0.70496 0.0
C2721 C 0.502 0.18155 0.70316 0.0
C2722 C 0.46909 0.21175 0.68821 0.0
C2723 C 0.4596 0.19329 0.67051 0.0
C2724 C 0.47085 0.1685 0.67031 0.0
C2725 C 0.49224 0.16327 0.68593 0.0
C2726 C 0.45809 0.23849 0.68917 0.0
C2727 C 0.46076 0.1474 0.65324 0.0
C2728 C 0.39538 0.21096 0.63812 0.0
C2729 C 0.40315 0.21583 0.61283 0.0
C2730 C 0.41321 0.20292 0.65701 0.0
C2731 C 0.4397 0.20043 0.6507 0.0
C2732 C 0.44719 0.20441 0.62484 0.0
C2733 C 0.42888 0.21149 0.60644 0.0
C2734 C 0.40309 0.19707 0.68347 0.0
C2735 C 0.47446 0.20125 0.6157 0.0
H2736 H 0.49568 0.21895 0.71931 0.0
H2737 H 0.50116 0.14451 0.68487 0.0
H2738 H 0.4589 0.24738 0.66983 0.0
H2739 H 0.43771 0.23772 0.69502 0.0
H2740 H 0.46843 0.25098 0.70298 0.0
H2741 H 0.46495 0.12818 0.66144 0.0
H2742 H 0.43976 0.1491 0.65026 0.0
H2743 H 0.47033 0.14851 0.63428 0.0
H2744 H 0.37548 0.21383 0.64334 0.0
H2745 H 0.43493 0.21367 0.58674 0.0
H2746 H 0.39683 0.2152 0.69273 0.0
H2747 H 0.4173 0.18743 0.69602 0.0
H2748 H 0.38587 0.18463 0.68197 0.0
H2749 H 0.4801 0.21804 0.60396 0.0
H2750 H 0.47564 0.1842 0.603 0.0
H2751 H 0.48854 0.19903 0.63136 0.0
C2752 C 0.9278 0.3326 0.43115 0.0
C2753 C 0.90245 0.32678 0.42445 0.0
C2754 C 0.9461 0.33973 0.41278 0.0
C2755 C 0.93898 0.34204 0.38658 0.0
C2756 C 0.91274 0.33817 0.37994 0.0
C2757 C 0.89492 0.33023 0.39885 0.0
C2758 C 0.97294 0.3448 0.4223 0.0
C2759 C 0.90285 0.34244 0.35308 0.0
C2760 C 0.99191 0.37798 0.35066 0.0
C2761 C 1.00229 0.35892 0.3347 0.0
C2762 C 0.9701 0.37341 0.3659 0.0
C2763 C 0.95908 0.34852 0.36673 0.0
C2764 C 0.96909 0.32932 0.35011 0.0
C2765 C 0.98981 0.3351 0.33359 0.0
C2766 C 0.95942 0.39536 0.38147 0.0
C2767 C 0.95829 0.30248 0.35005 0.0
H2768 H 0.93356 0.33142 0.45104 0.0
H2769 H 0.87528 0.3262 0.39342 0.0
H2770 H 0.98733 0.34566 0.40683 0.0
H2771 H 0.97318 0.36329 0.43286 0.0
H2772 H 0.97883 0.32976 0.43612 0.0
H2773 H 0.88546 0.35472 0.35374 0.0
H2774 H 0.91705 0.35159 0.34019 0.0
H2775 H 0.8969 0.32376 0.34475 0.0
H2776 H 1.0007 0.39683 0.35107 0.0
H2777 H 0.99654 0.32079 0.32013 0.0
H2778 H 0.97004 0.39673 0.39985 0.0
H2779 H 0.93873 0.39285 0.38571 0.0
H2780 H 0.96203 0.41387 0.37123 0.0
H2781 H 0.95749 0.29483 0.36992 0.0
H2782 H 0.96974 0.28919 0.33798 0.0
H2783 H 0.93849 0.30275 0.34242 0.0
C2784 C 0.21209 0.10661 0.33995 0.0
C2785 C 0.23649 0.10608 0.35107 0.0
C2786 C 0.19558 0.12759 0.34339 0.0
C2787 C 0.20463 0.15002 0.35589 0.0
C2788 C 0.22966 0.14975 0.36682 0.0
C2789 C 0.24493 0.12747 0.36494 0.0
C2790 C 0.1686 0.12561 0.3331 0.0
C2791 C 0.24126 0.17293 0.3797 0.0
C2792 C 0.16459 0.20826 0.33541 0.0
C2793 C 0.15207 0.21515 0.35833 0.0
C2794 C 0.18292 0.18832 0.3347 0.0
C2795 C 0.18788 0.17348 0.35704 0.0
C2796 C 0.1756 0.18037 0.38022 0.0
C2797 C 0.159 0.20162 0.38079 0.0
C2798 C 0.19652 0.18334 0.30963 0.0
C2799 C 0.17953 0.16521 0.40462 0.0
H2800 H 0.20581 0.09037 0.32854 0.0
H2801 H 0.2642 0.12758 0.3727 0.0
H2802 H 0.1548 0.13634 0.34525 0.0
H2803 H 0.16794 0.13366 0.31344 0.0
H2804 H 0.16227 0.10529 0.33196 0.0
H2805 H 0.26136 0.1756 0.37319 0.0
H2806 H 0.23054 0.19092 0.37595 0.0
H2807 H 0.24201 0.16956 0.40071 0.0
H2808 H 0.16008 0.21809 0.31771 0.0
H2809 H 0.15137 0.20725 0.39921 0.0
H2810 H 0.18326 0.17346 0.29625 0.0
H2811 H 0.21406 0.17155 0.31191 0.0
H2812 H 0.20195 0.2018 0.30047 0.0
H2813 H 0.18144 0.14438 0.40066 0.0
H2814 H 0.16342 0.16799 0.41826 0.0
H2815 H 0.1973 0.17182 0.41422 0.0
C2816 C 0.28869 0.91108 0.8582 0.0
C2817 C 0.29742 0.93475 0.84895 0.0
C2818 C 0.30518 0.88972 0.85996 0.0
C2819 C 0.33133 0.89223 0.85288 0.0
C2820 C 0.34043 0.91648 0.84459 0.0
C2821 C 0.32314 0.93697 0.84158 0.0
C2822 C 0.29406 0.86407 0.86747 0.0
C2823 C 0.36834 0.92073 0.83832 0.0
C2824 C 0.37813 0.84157 0.87722 0.0
C2825 C 0.38542 0.82844 0.85462 0.0
C2826 C 0.36111 0.86249 0.87681 0.0
C2827 C 0.34908 0.86955 0.85359 0.0
C2828 C 0.35466 0.85537 0.83101 0.0
C2829 C 0.37315 0.83554 0.83163 0.0
C2830 C 0.35661 0.87755 0.9012 0.0
C2831 C 0.34125 0.8613 0.80605 0.0
H2832 H 0.26848 0.9086 0.86195 0.0
H2833 H 0.3297 0.95481 0.83311 0.0
H2834 H 0.29356 0.85142 0.85034 0.0
H2835 H 0.30613 0.85442 0.88206 0.0
H2836 H 0.27427 0.86587 0.87515 0.0
H2837 H 0.37289 0.9414 0.83582 0.0
H2838 H 0.38065 0.91285 0.85381 0.0
H2839 H 0.37331 0.91053 0.82034 0.0
H2840 H 0.38582 0.83582 0.8956 0.0
H2841 H 0.37813 0.82596 0.81391 0.0
H2842 H 0.33617 0.87651 0.90686 0.0
H2843 H 0.36116 0.89811 0.89794 0.0
H2844 H 0.36847 0.87048 0.91742 0.0
H2845 H 0.32028 0.86308 0.80918 0.0
H2846 H 0.34473 0.84628 0.79132 0.0
H2847 H 0.34814 0.8799 0.79842 0.0
C2848 C 0.72309 0.42555 0.72046 0.0
C2849 C 0.73955 0.43203 0.70021 0.0
C2850 C 0.70926 0.40246 0.72054 0.0
C2851 C 0.71074 0.38571 0.69916 0.0
C2852 C 0.72583 0.3931 0.6777 0.0
C2853 C 0.74062 0.41581 0.67875 0.0
C2854 C 0.69484 0.39505 0.74455 0.0
C2855 C 0.72757 0.37635 0.65421 0.0
C2856 C 0.70255 0.31515 0.71657 0.0
C2857 C 0.67576 0.31201 0.71578 0.0
C2858 C 0.71434 0.3385 0.71 0.0
C2859 C 0.69921 0.35932 0.7012 0.0
C2860 C 0.67251 0.35547 0.69766 0.0
C2861 C 0.66104 0.33214 0.70542 0.0
C2862 C 0.74309 0.34046 0.71306 0.0
C2863 C 0.65592 0.37631 0.68632 0.0
H2864 H 0.72234 0.43789 0.73721 0.0
H2865 H 0.75368 0.42032 0.66324 0.0
H2866 H 0.67444 0.39129 0.74004 0.0
H2867 H 0.70303 0.37709 0.75255 0.0
H2868 H 0.69573 0.41016 0.75957 0.0
H2869 H 0.73457 0.38728 0.63731 0.0
H2870 H 0.74118 0.36043 0.65796 0.0
H2871 H 0.70864 0.36783 0.64956 0.0
H2872 H 0.71452 0.29945 0.72308 0.0
H2873 H 0.64042 0.33012 0.70419 0.0
H2874 H 0.74996 0.36044 0.71534 0.0
H2875 H 0.75236 0.3322 0.69577 0.0
H2876 H 0.74971 0.32912 0.72985 0.0
H2877 H 0.65231 0.39138 0.70088 0.0
H2878 H 0.63713 0.36873 0.67976 0.0
H2879 H 0.66574 0.38554 0.66984 0.0
C2880 C 0.81747 0.61059 0.21837 0.0
C2881 C 0.8003 0.60466 0.19855 0.0
C2882 C 0.83181 0.63334 0.21819 0.0
C2883 C 0.8299 0.65035 0.19706 0.0
C2884 C 0.81424 0.64337 0.17587 0.0
C2885 C 0.79917 0.62088 0.17711 0.0
C2886 C 0.84714 0.64021 0.24181 0.0
C2887 C 0.81202 0.66036 0.15261 0.0
C2888 C 0.83858 0.71981 0.21752 0.0
C2889 C 0.86528 0.7229 0.21593 0.0
C2890 C 0.8265 0.697 0.2097 0.0
C2891 C 0.84136 0.67669 0.19937 0.0
C2892 C 0.86792 0.68071 0.19515 0.0
C2893 C 0.87964 0.7036 0.20374 0.0
C2894 C 0.79782 0.6949 0.21309 0.0
C2895 C 0.88417 0.66038 0.1825 0.0
H2896 H 0.81833 0.5982 0.23505 0.0
H2897 H 0.78575 0.61667 0.16186 0.0
H2898 H 0.86724 0.64461 0.2366 0.0
H2899 H 0.83889 0.65768 0.25081 0.0
H2900 H 0.84722 0.62457 0.25629 0.0
H2901 H 0.80534 0.64939 0.13558 0.0
H2902 H 0.79786 0.67575 0.15652 0.0
H2903 H 0.83065 0.66955 0.14806 0.0
H2904 H 0.82705 0.73503 0.22577 0.0
H2905 H 0.90021 0.70581 0.20197 0.0
H2906 H 0.7913 0.6749 0.21612 0.0
H2907 H 0.78832 0.70227 0.19553 0.0
H2908 H 0.7911 0.70677 0.22948 0.0
H2909 H 0.8885 0.64494 0.19649 0.0
H2910 H 0.90261 0.66833 0.17544 0.0
H2911 H 0.87375 0.65152 0.16617 0.0
C2912 C 0.32016 0.20514 0.22304 0.0
C2913 C 0.32059 0.17832 0.22611 0.0
C2914 C 0.3284 0.21692 0.20023 0.0
C2915 C 0.33832 0.20167 0.18 0.0
C2916 C 0.34166 0.17497 0.18412 0.0
C2917 C 0.33228 0.16354 0.20679 0.0
C2918 C 0.32581 0.24574 0.19825 0.0
C2919 C 0.35442 0.15824 0.16423 0.0
C2920 C 0.32156 0.2228 0.1123 0.0
C2921 C 0.34145 0.23986 0.10633 0.0
C2922 C 0.32068 0.20995 0.13589 0.0
C2923 C 0.34111 0.21279 0.15358 0.0
C2924 C 0.36241 0.22835 0.14675 0.0
C2925 C 0.36196 0.24236 0.12355 0.0
C2926 C 0.29684 0.1949 0.14256 0.0
C2927 C 0.38499 0.2314 0.1645 0.0
H2928 H 0.31265 0.21712 0.23828 0.0
H2929 H 0.33331 0.14288 0.20881 0.0
H2930 H 0.34172 0.25478 0.20911 0.0
H2931 H 0.32644 0.25302 0.17831 0.0
H2932 H 0.30762 0.25224 0.20723 0.0
H2933 H 0.36271 0.14069 0.17304 0.0
H2934 H 0.34011 0.15211 0.14976 0.0
H2935 H 0.36987 0.16882 0.1541 0.0
H2936 H 0.30559 0.2209 0.09912 0.0
H2937 H 0.37718 0.25587 0.11937 0.0
H2938 H 0.28881 0.20175 0.16106 0.0
H2939 H 0.3016 0.17432 0.14485 0.0
H2940 H 0.28174 0.1966 0.12763 0.0
H2941 H 0.38021 0.24566 0.17955 0.0
H2942 H 0.40222 0.23831 0.15406 0.0
H2943 H 0.38964 0.21296 0.1741 0.0
C2944 C 0.16489 0.88347 0.69107 0.0
C2945 C 0.18724 0.88735 0.70574 0.0
C2946 C 0.16363 0.86447 0.67196 0.0
C2947 C 0.18486 0.84809 0.66793 0.0
C2948 C 0.20654 0.85025 0.68425 0.0
C2949 C 0.20761 0.87001 0.70272 0.0
C2950 C 0.14033 0.86336 0.65482 0.0
C2951 C 0.22923 0.83253 0.68129 0.0
C2952 C 0.17781 0.78857 0.62561 0.0
C2953 C 0.19019 0.79639 0.60313 0.0
C2954 C 0.17536 0.80526 0.64674 0.0
C2955 C 0.18544 0.83048 0.64522 0.0
C2956 C 0.19716 0.8387 0.6221 0.0
C2957 C 0.20007 0.82132 0.6017 0.0
C2958 C 0.16335 0.79539 0.67114 0.0
C2959 C 0.20731 0.86565 0.61912 0.0
H2960 H 0.14862 0.89612 0.69369 0.0
H2961 H 0.22498 0.87263 0.71381 0.0
H2962 H 0.14537 0.87133 0.63574 0.0
H2963 H 0.13396 0.84328 0.65183 0.0
H2964 H 0.12405 0.87462 0.66269 0.0
H2965 H 0.24282 0.83418 0.69761 0.0
H2966 H 0.22274 0.81231 0.67978 0.0
H2967 H 0.23963 0.83725 0.66335 0.0
H2968 H 0.17184 0.76884 0.62742 0.0
H2969 H 0.21039 0.82712 0.5846 0.0
H2970 H 0.14782 0.80842 0.67755 0.0
H2971 H 0.17798 0.79495 0.68659 0.0
H2972 H 0.15531 0.77579 0.66882 0.0
H2973 H 0.19236 0.87979 0.62456 0.0
H2974 H 0.21357 0.86972 0.59916 0.0
H2975 H 0.22387 0.86855 0.63214 0.0
C2976 C 0.84706 0.37342 0.82721 0.0
C2977 C 0.82882 0.36061 0.81193 0.0
C2978 C 0.85794 0.36161 0.84908 0.0
C2979 C 0.84961 0.33685 0.85671 0.0
C2980 C 0.83258 0.32325 0.84049 0.0
C2981 C 0.82307 0.33495 0.81812 0.0
C2982 C 0.87751 0.37621 0.86459 0.0
C2983 C 0.823 0.29682 0.84757 0.0
C2984 C 0.87217 0.29317 0.91131 0.0
C2985 C 0.85428 0.29954 0.93034 0.0
C2986 C 0.87296 0.307 0.88796 0.0
C2987 C 0.85477 0.32684 0.88327 0.0
C2988 C 0.83826 0.3345 0.90345 0.0
C2989 C 0.83863 0.3211 0.92674 0.0
C2990 C 0.89217 0.29905 0.8679 0.0
C2991 C 0.81821 0.35509 0.89966 0.0
H2992 H 0.8522 0.39305 0.82284 0.0
H2993 H 0.81027 0.32406 0.80593 0.0
H2994 H 0.86768 0.38747 0.87971 0.0
H2995 H 0.89131 0.36302 0.87405 0.0
H2996 H 0.8883 0.38988 0.85234 0.0
H2997 H 0.80951 0.28891 0.8331 0.0
H2998 H 0.83937 0.28341 0.84951 0.0
H2999 H 0.81306 0.29755 0.86639 0.0
H3000 H 0.88439 0.27655 0.91393 0.0
H3001 H 0.82486 0.32611 0.94152 0.0
H3002 H 0.89623 0.31477 0.85413 0.0
H3003 H 0.88464 0.28232 0.85712 0.0
H3004 H 0.91042 0.29298 0.87708 0.0
H3005 H 0.82729 0.37323 0.89339 0.0
H3006 H 0.8071 0.35899 0.91742 0.0
H3007 H 0.80462 0.34912 0.88438 0.0
C3008 C 0.69999 0.65948 0.33539 0.0
C3009 C 0.71358 0.67388 0.31708 0.0
C3010 C 0.69053 0.67096 0.35808 0.0
C3011 C 0.69542 0.69728 0.36309 0.0
C3012 C 0.70733 0.71226 0.34378 0.0
C3013 C 0.71584 0.70049 0.32103 0.0
C3014 C 0.676 0.6547 0.37707 0.0
C3015 C 0.71158 0.74077 0.34693 0.0
C3016 C 0.67152 0.73941 0.41844 0.0
C3017 C 0.69165 0.73689 0.43604 0.0
C3018 C 0.67103 0.72485 0.39554 0.0
C3019 C 0.69183 0.70826 0.38956 0.0
C3020 C 0.71154 0.70485 0.40797 0.0
C3021 C 0.71077 0.71861 0.43111 0.0
C3022 C 0.64905 0.72869 0.3772 0.0
C3023 C 0.73486 0.68861 0.40229 0.0
H3024 H 0.69761 0.63902 0.33258 0.0
H3025 H 0.72504 0.7122 0.30654 0.0
H3026 H 0.68887 0.64905 0.39302 0.0
H3027 H 0.65977 0.66566 0.38543 0.0
H3028 H 0.66845 0.63693 0.36803 0.0
H3029 H 0.72814 0.74748 0.33536 0.0
H3030 H 0.6943 0.75108 0.34001 0.0
H3031 H 0.71479 0.74636 0.36719 0.0
H3032 H 0.65683 0.75353 0.42197 0.0
H3033 H 0.72648 0.71657 0.4446 0.0
H3034 H 0.64547 0.71125 0.3655 0.0
H3035 H 0.65364 0.74479 0.36407 0.0
H3036 H 0.63122 0.73378 0.38768 0.0
H3037 H 0.7291 0.66876 0.39734 0.0
H3038 H 0.74837 0.68776 0.41875 0.0
H3039 H 0.74518 0.69665 0.3855 0.0
C3040 C 0.20313 0.33292 0.15802 0.0
C3041 C 0.22193 0.31946 0.17198 0.0
C3042 C 0.18004 0.34113 0.16976 0.0
C3043 C 0.17521 0.33526 0.19591 0.0
C3044 C 0.19474 0.3231 0.21037 0.0
C3045 C 0.21781 0.31583 0.19842 0.0
C3046 C 0.16036 0.3552 0.1539 0.0
C3047 C 0.19076 0.3164 0.23827 0.0
C3048 C 0.12076 0.35934 0.23911 0.0
C3049 C 0.10367 0.33863 0.23803 0.0
C3050 C 0.14307 0.35985 0.2237 0.0
C3051 C 0.14897 0.33863 0.20758 0.0
C3052 C 0.13089 0.31845 0.20543 0.0
C3053 C 0.10848 0.31887 0.2204 0.0
C3054 C 0.16091 0.38247 0.22598 0.0
C3055 C 0.13613 0.2952 0.18893 0.0
H3056 H 0.20592 0.33616 0.13769 0.0
H3057 H 0.23243 0.30647 0.20983 0.0
H3058 H 0.14435 0.34205 0.14911 0.0
H3059 H 0.15219 0.37152 0.16489 0.0
H3060 H 0.16863 0.36257 0.1357 0.0
H3061 H 0.20801 0.30751 0.24706 0.0
H3062 H 0.18577 0.33387 0.24935 0.0
H3063 H 0.17451 0.3028 0.24012 0.0
H3064 H 0.11737 0.37454 0.2528 0.0
H3065 H 0.09536 0.30276 0.21946 0.0
H3066 H 0.1711 0.3862 0.20768 0.0
H3067 H 0.17543 0.37846 0.241 0.0
H3068 H 0.15032 0.40008 0.2317 0.0
H3069 H 0.14125 0.3011 0.16917 0.0
H3070 H 0.11942 0.28204 0.18794 0.0
H3071 H 0.15269 0.28445 0.1969 0.0
C3072 C 0.69463 0.16967 0.88578 0.0
C3073 C 0.71063 0.19136 0.88764 0.0
C3074 C 0.67542 0.16776 0.86696 0.0
C3075 C 0.67262 0.18748 0.8485 0.0
C3076 C 0.69063 0.20793 0.8484 0.0
C3077 C 0.70911 0.20987 0.86813 0.0
C3078 C 0.65692 0.1456 0.8687 0.0
C3079 C 0.68986 0.22818 0.8278 0.0
C3080 C 0.62575 0.17666 0.79258 0.0
C3081 C 0.60538 0.19279 0.79953 0.0
C3082 C 0.64791 0.1748 0.80809 0.0
C3083 C 0.64924 0.18855 0.8316 0.0
C3084 C 0.62802 0.2038 0.83912 0.0
C3085 C 0.60694 0.20651 0.82257 0.0
C3086 C 0.67018 0.15879 0.79893 0.0
C3087 C 0.62762 0.21754 0.86462 0.0
H3088 H 0.69617 0.15454 0.89994 0.0
H3089 H 0.72146 0.22655 0.8689 0.0
H3090 H 0.64191 0.1505 0.88295 0.0
H3091 H 0.64744 0.14127 0.85021 0.0
H3092 H 0.66677 0.12798 0.87556 0.0
H3093 H 0.70605 0.24192 0.82935 0.0
H3094 H 0.69062 0.21878 0.80872 0.0
H3095 H 0.67161 0.23907 0.82886 0.0
H3096 H 0.625 0.16667 0.77437 0.0
H3097 H 0.59141 0.21935 0.82774 0.0
H3098 H 0.67398 0.14304 0.81271 0.0
H3099 H 0.68773 0.17078 0.79802 0.0
H3100 H 0.66666 0.15029 0.77969 0.0
H3101 H 0.63244 0.20396 0.8803 0.0
H3102 H 0.60864 0.22627 0.86876 0.0
H3103 H 0.64226 0.23296 0.86474 0.0
C3104 C 0.8365 0.82997 0.38228 0.0
C3105 C 0.81677 0.81818 0.36821 0.0
C3106 C 0.85895 0.83895 0.37004 0.0
C3107 C 0.86209 0.83555 0.3432 0.0
C3108 C 0.84125 0.82575 0.32872 0.0
C3109 C 0.81895 0.81742 0.34135 0.0
C3110 C 0.87972 0.85125 0.38599 0.0
C3111 C 0.84205 0.82347 0.29984 0.0
C3112 C 0.91693 0.85952 0.30053 0.0
C3113 C 0.93372 0.8385 0.30123 0.0
C3114 C 0.89453 0.85996 0.31576 0.0
C3115 C 0.88806 0.83829 0.33099 0.0
C3116 C 0.90542 0.81738 0.33215 0.0
C3117 C 0.92818 0.81808 0.31783 0.0
C3118 C 0.87707 0.88294 0.31426 0.0
C3119 C 0.89903 0.79321 0.34681 0.0
H3120 H 0.83497 0.83115 0.40297 0.0
H3121 H 0.80338 0.80951 0.33008 0.0
H3122 H 0.89535 0.83724 0.3894 0.0
H3123 H 0.88811 0.86793 0.37575 0.0
H3124 H 0.87236 0.85774 0.4049 0.0
H3125 H 0.83253 0.8055 0.29347 0.0
H3126 H 0.83114 0.8397 0.29143 0.0
H3127 H 0.86169 0.82393 0.29181 0.0
H3128 H 0.92074 0.87512 0.28741 0.0
H3129 H 0.94095 0.80166 0.31829 0.0
H3130 H 0.86886 0.88746 0.33338 0.0
H3131 H 0.86097 0.87862 0.30104 0.0
H3132 H 0.8873 0.90012 0.30689 0.0
H3133 H 0.89557 0.79768 0.36729 0.0
H3134 H 0.91453 0.77863 0.34564 0.0
H3135 H 0.88117 0.78466 0.33901 0.0
C3136 C 0.41295 0.67597 0.74795 0.0
C3137 C 0.43451 0.6903 0.74081 0.0
C3138 C 0.39155 0.6738 0.73152 0.0
C3139 C 0.39195 0.68583 0.70708 0.0
C3140 C 0.41435 0.69916 0.69935 0.0
C3141 C 0.43491 0.7019 0.71657 0.0
C3142 C 0.36794 0.66012 0.74108 0.0
C3143 C 0.41642 0.71114 0.67307 0.0
C3144 C 0.34658 0.66566 0.65343 0.0
C3145 C 0.33101 0.68759 0.65036 0.0
C3146 C 0.36587 0.66444 0.67224 0.0
C3147 C 0.36905 0.68507 0.68957 0.0
C3148 C 0.35173 0.70609 0.68838 0.0
C3149 C 0.33319 0.7073 0.66861 0.0
C3150 C 0.38411 0.64192 0.67218 0.0
C3151 C 0.35359 0.72796 0.70724 0.0
H3152 H 0.41201 0.66803 0.76707 0.0
H3153 H 0.45132 0.71349 0.71123 0.0
H3154 H 0.35279 0.67448 0.74521 0.0
H3155 H 0.36028 0.64689 0.7263 0.0
H3156 H 0.37178 0.64901 0.75887 0.0
H3157 H 0.43602 0.71842 0.66909 0.0
H3158 H 0.41127 0.69691 0.65809 0.0
H3159 H 0.40276 0.72736 0.67146 0.0
H3160 H 0.34458 0.64978 0.64017 0.0
H3161 H 0.32135 0.72428 0.66674 0.0
H3162 H 0.38673 0.63417 0.69181 0.0
H3163 H 0.40318 0.64845 0.66539 0.0
H3164 H 0.37747 0.62618 0.65945 0.0
H3165 H 0.35566 0.72048 0.72707 0.0
H3166 H 0.33652 0.74069 0.70642 0.0
H3167 H 0.37083 0.73962 0.70296 0.0
C3168 C 0.79251 0.91391 0.67761 0.0
C3169 C 0.80011 0.93582 0.69121 0.0
C3170 C 0.80862 0.89223 0.67584 0.0
C3171 C 0.83332 0.89276 0.68729 0.0
C3172 C 0.84144 0.91541 0.7 0.0
C3173 C 0.82442 0.93619 0.70261 0.0
C3174 C 0.7986 0.86831 0.66297 0.0
C3175 C 0.86799 0.9176 0.71127 0.0
C3176 C 0.87168 0.83346 0.70782 0.0
C3177 C 0.8885 0.83006 0.68702 0.0
C3178 C 0.85257 0.85271 0.70746 0.0
C3179 C 0.85072 0.86976 0.68629 0.0
C3180 C 0.86683 0.86578 0.66487 0.0
C3181 C 0.88477 0.84564 0.66517 0.0
C3182 C 0.83457 0.85509 0.72995 0.0
C3183 C 0.86649 0.88389 0.64225 0.0
H3184 H 0.77331 0.91302 0.66986 0.0
H3185 H 0.83011 0.95287 0.71367 0.0
H3186 H 0.81248 0.86108 0.64859 0.0
H3187 H 0.79611 0.85302 0.67756 0.0
H3188 H 0.7799 0.87162 0.6533 0.0
H3189 H 0.87221 0.93734 0.71813 0.0
H3190 H 0.87002 0.90419 0.72766 0.0
H3191 H 0.88255 0.91217 0.69673 0.0
H3192 H 0.87387 0.82171 0.7248 0.0
H3193 H 0.8965 0.84272 0.6483 0.0
H3194 H 0.81449 0.85443 0.72297 0.0
H3195 H 0.83733 0.87383 0.73963 0.0
H3196 H 0.83738 0.83954 0.74425 0.0
H3197 H 0.84664 0.888 0.63588 0.0
H3198 H 0.87751 0.87628 0.62568 0.0
H3199 H 0.8752 0.90238 0.64817 0.0
C3200 C 0.71311 0.10446 0.19341 0.0
C3201 C 0.73903 0.10612 0.18653 0.0
C3202 C 0.6964 0.12553 0.19072 0.0
C3203 C 0.70622 0.14975 0.18315 0.0
C3204 C 0.73255 0.15167 0.1765 0.0
C3205 C 0.74849 0.12981 0.17802 0.0
C3206 C 0.66832 0.12191 0.19656 0.0
C3207 C 0.74443 0.17715 0.16964 0.0
C3208 C 0.66059 0.20188 0.15914 0.0
C3209 C 0.65334 0.21486 0.18186 0.0
C3210 C 0.67729 0.18065 0.15938 0.0
C3211 C 0.68897 0.17295 0.1826 0.0
C3212 C 0.68341 0.18694 0.20532 0.0
C3213 C 0.66533 0.20721 0.20483 0.0
C3214 C 0.68181 0.16595 0.13479 0.0
C3215 C 0.69639 0.18031 0.23033 0.0
H3216 H 0.70592 0.0866 0.20128 0.0
H3217 H 0.76881 0.13184 0.1746 0.0
H3218 H 0.66339 0.13193 0.21466 0.0
H3219 H 0.65641 0.13038 0.18107 0.0
H3220 H 0.66319 0.10133 0.19864 0.0
H3221 H 0.76422 0.17496 0.16208 0.0
H3222 H 0.73273 0.18744 0.15518 0.0
H3223 H 0.74513 0.18941 0.18705 0.0
H3224 H 0.65307 0.20801 0.14081 0.0
H3225 H 0.66039 0.21667 0.22262 0.0
H3226 H 0.67675 0.14545 0.13759 0.0
H3227 H 0.70236 0.16663 0.12946 0.0
H3228 H 0.67036 0.1736 0.11853 0.0
H3229 H 0.68913 0.16164 0.23747 0.0
H3230 H 0.69292 0.19506 0.24532 0.0
H3231 H 0.71737 0.17829 0.22744 0.0
C3232 C 0.36909 0.70653 0.33089 0.0
C3233 C 0.38957 0.7077 0.34835 0.0
C3234 C 0.34931 0.68825 0.33376 0.0
C3235 C 0.35027 0.67021 0.35417 0.0
C3236 C 0.36976 0.67259 0.37288 0.0
C3237 C 0.38873 0.69156 0.37004 0.0
C3238 C 0.32826 0.68718 0.31395 0.0
C3239 C 0.37208 0.65364 0.39467 0.0
C3240 C 0.29367 0.62429 0.36495 0.0
C3241 C 0.30017 0.60404 0.34848 0.0
C3242 C 0.30989 0.64588 0.36751 0.0
C3243 C 0.33339 0.64685 0.35375 0.0
C3244 C 0.3406 0.62554 0.33848 0.0
C3245 C 0.3236 0.60492 0.33542 0.0
C3246 C 0.30097 0.66831 0.38346 0.0
C3247 C 0.36592 0.62485 0.32449 0.0
H3248 H 0.36924 0.71883 0.31414 0.0
H3249 H 0.40384 0.69276 0.38424 0.0
H3250 H 0.33151 0.67058 0.30102 0.0
H3251 H 0.30937 0.68442 0.32333 0.0
H3252 H 0.32756 0.70489 0.30212 0.0
H3253 H 0.38534 0.66052 0.40985 0.0
H3254 H 0.35315 0.64965 0.40345 0.0
H3255 H 0.37959 0.63522 0.38706 0.0
H3256 H 0.27517 0.62415 0.37435 0.0
H3257 H 0.32843 0.5895 0.32231 0.0
H3258 H 0.29518 0.68419 0.37051 0.0
H3259 H 0.31666 0.67562 0.3958 0.0
H3260 H 0.28435 0.66323 0.39577 0.0
H3261 H 0.36593 0.63938 0.30895 0.0
H3262 H 0.36984 0.60575 0.31585 0.0
H3263 H 0.38181 0.62967 0.33781 0.0
C3264 C 0.15768 0.34052 0.87751 0.0
C3265 C 0.15249 0.32584 0.85528 0.0
C3266 C 0.17502 0.36117 0.87743 0.0
C3267 C 0.18947 0.36647 0.85514 0.0
C3268 C 0.18626 0.35047 0.83331 0.0
C3269 C 0.16741 0.33098 0.83335 0.0
C3270 C 0.17625 0.37827 0.90083 0.0
C3271 C 0.20247 0.35415 0.80962 0.0
C3272 C 0.21485 0.4332 0.8392 0.0
C3273 C 0.23926 0.43305 0.85039 0.0
C3274 C 0.19798 0.41241 0.84213 0.0
C3275 C 0.20664 0.38961 0.85413 0.0
C3276 C 0.23168 0.38905 0.86488 0.0
C3277 C 0.24741 0.41105 0.86353 0.0
C3278 C 0.17093 0.41492 0.83217 0.0
C3279 C 0.24231 0.36486 0.87672 0.0
H3280 H 0.14799 0.33639 0.89533 0.0
H3281 H 0.16429 0.32019 0.81592 0.0
H3282 H 0.19574 0.38591 0.90433 0.0
H3283 H 0.16334 0.39491 0.89771 0.0
H3284 H 0.16974 0.36812 0.91838 0.0
H3285 H 0.20203 0.33697 0.79701 0.0
H3286 H 0.19518 0.37071 0.79846 0.0
H3287 H 0.22267 0.35825 0.81489 0.0
H3288 H 0.20883 0.44988 0.82829 0.0
H3289 H 0.26673 0.41041 0.87115 0.0
H3290 H 0.15705 0.40771 0.84659 0.0
H3291 H 0.16861 0.40325 0.81455 0.0
H3292 H 0.166 0.43513 0.82748 0.0
H3293 H 0.23074 0.35928 0.89365 0.0
H3294 H 0.26258 0.36711 0.88287 0.0
H3295 H 0.24113 0.34888 0.86269 0.0
C3296 C 0.71986 0.81751 0.92808 0.0
C3297 C 0.69983 0.80057 0.93398 0.0
C3298 C 0.72016 0.8316 0.90512 0.0
C3299 C 0.69918 0.82992 0.88791 0.0
C3300 C 0.67775 0.81457 0.89489 0.0
C3301 C 0.67861 0.79959 0.91751 0.0
C3302 C 0.74408 0.84642 0.8983 0.0
C3303 C 0.65445 0.81264 0.87792 0.0
C3304 C 0.70611 0.8795 0.83413 0.0
C3305 C 0.71714 0.86477 0.81435 0.0
C3306 C 0.69796 0.86807 0.85736 0.0
C3307 C 0.70175 0.84141 0.86151 0.0
C3308 C 0.71133 0.82626 0.84106 0.0
C3309 C 0.71829 0.83798 0.81776 0.0
C3310 C 0.68593 0.88468 0.87777 0.0
C3311 C 0.71475 0.79757 0.84363 0.0
H3312 H 0.73641 0.81832 0.94066 0.0
H3313 H 0.66317 0.78643 0.92168 0.0
H3314 H 0.75275 0.83818 0.88068 0.0
H3315 H 0.73933 0.86672 0.89418 0.0
H3316 H 0.75864 0.84594 0.91385 0.0
H3317 H 0.63703 0.80838 0.8894 0.0
H3318 H 0.65126 0.83059 0.86691 0.0
H3319 H 0.65715 0.79666 0.86412 0.0
H3320 H 0.70462 0.90011 0.83194 0.0
H3321 H 0.72532 0.82598 0.80232 0.0
H3322 H 0.70025 0.88902 0.89287 0.0
H3323 H 0.66967 0.87454 0.88705 0.0
H3324 H 0.67891 0.90315 0.86977 0.0
H3325 H 0.72075 0.79194 0.86323 0.0
H3326 H 0.72912 0.79009 0.82979 0.0
H3327 H 0.69621 0.78803 0.83951 0.0
C3328 C 0.83133 0.17274 0.33001 0.0
C3329 C 0.84983 0.15322 0.32866 0.0
C3330 C 0.83358 0.19289 0.34798 0.0
C3331 C 0.85432 0.19313 0.36564 0.0
C3332 C 0.8741 0.17475 0.36282 0.0
C3333 C 0.87186 0.15549 0.3441 0.0
C3334 C 0.81288 0.21308 0.34907 0.0
C3335 C 0.89658 0.17341 0.38099 0.0
C3336 C 0.86418 0.24957 0.4119 0.0
C3337 C 0.84797 0.24261 0.43218 0.0
C3338 C 0.86656 0.23377 0.39002 0.0
C3339 C 0.85327 0.21001 0.38895 0.0
C3340 C 0.83814 0.2024 0.4102 0.0
C3341 C 0.83485 0.21923 0.43096 0.0
C3342 C 0.8824 0.24297 0.36765 0.0
C3343 C 0.82508 0.17656 0.41095 0.0
H3344 H 0.81434 0.17156 0.31812 0.0
H3345 H 0.88688 0.14119 0.34266 0.0
H3346 H 0.79992 0.20909 0.36545 0.0
H3347 H 0.82136 0.23238 0.35211 0.0
H3348 H 0.80122 0.21341 0.33124 0.0
H3349 H 0.91406 0.16667 0.37087 0.0
H3350 H 0.90084 0.19203 0.39026 0.0
H3351 H 0.89214 0.1592 0.39619 0.0
H3352 H 0.87375 0.26801 0.41246 0.0
H3353 H 0.82203 0.21403 0.44649 0.0
H3354 H 0.87023 0.24409 0.35021 0.0
H3355 H 0.89801 0.22911 0.36356 0.0
H3356 H 0.89104 0.26213 0.37122 0.0
H3357 H 0.80944 0.17598 0.39655 0.0
H3358 H 0.81678 0.17233 0.43011 0.0
H3359 H 0.83894 0.16117 0.40602 0.0
C3360 C 0.17086 0.7501 0.12653 0.0
C3361 C 0.18601 0.74234 0.10572 0.0
C3362 C 0.16865 0.73456 0.14862 0.0
C3363 C 0.18094 0.71023 0.14936 0.0
C3364 C 0.19492 0.70184 0.12762 0.0
C3365 C 0.19822 0.71843 0.10669 0.0
C3366 C 0.15422 0.74469 0.17156 0.0
C3367 C 0.2068 0.67544 0.12653 0.0
C3368 C 0.20298 0.67253 0.20813 0.0
C3369 C 0.18336 0.65427 0.21072 0.0
C3370 C 0.20128 0.6924 0.18977 0.0
C3371 C 0.17998 0.69353 0.17282 0.0
C3372 C 0.15935 0.67636 0.17661 0.0
C3373 C 0.161 0.65756 0.19587 0.0
C3374 C 0.223 0.71137 0.18764 0.0
C3375 C 0.13642 0.67583 0.15893 0.0
H3376 H 0.16216 0.76898 0.12625 0.0
H3377 H 0.21041 0.71266 0.09085 0.0
H3378 H 0.13838 0.73148 0.17665 0.0
H3379 H 0.16728 0.74564 0.18835 0.0
H3380 H 0.14608 0.76409 0.16808 0.0
H3381 H 0.21397 0.67067 0.10704 0.0
H3382 H 0.22308 0.67429 0.14015 0.0
H3383 H 0.19255 0.66072 0.1323 0.0
H3384 H 0.22027 0.67065 0.21947 0.0
H3385 H 0.14505 0.64449 0.1983 0.0
H3386 H 0.21548 0.73106 0.18451 0.0
H3387 H 0.23518 0.70638 0.17094 0.0
H3388 H 0.23524 0.71136 0.20508 0.0
H3389 H 0.13225 0.69478 0.15027 0.0
H3390 H 0.11903 0.66906 0.16918 0.0
H3391 H 0.14035 0.66211 0.14313 0.0
C3392 C 0.37403 0.3748 0.70199 0.0
C3393 C 0.35173 0.38203 0.71555 0.0
C3394 C 0.37327 0.35827 0.68071 0.0
C3395 C 0.34993 0.34628 0.67371 0.0
C3396 C 0.32773 0.35142 0.68875 0.0
C3397 C 0.32871 0.36972 0.70877 0.0
C3398 C 0.39787 0.35426 0.66595 0.0
C3399 C 0.30258 0.33793 0.68401 0.0
C3400 C 0.33273 0.32159 0.60676 0.0
C3401 C 0.34515 0.29779 0.60583 0.0
C3402 C 0.33544 0.33805 0.62796 0.0
C3403 C 0.34856 0.32941 0.65024 0.0
C3404 C 0.36049 0.30481 0.64964 0.0
C3405 C 0.35935 0.28975 0.62716 0.0
C3406 C 0.32399 0.36459 0.62614 0.0
C3407 C 0.37415 0.29372 0.67264 0.0
H3408 H 0.39255 0.38223 0.70761 0.0
H3409 H 0.31117 0.37439 0.7188 0.0
H3410 H 0.41031 0.34077 0.67672 0.0
H3411 H 0.39479 0.34658 0.64641 0.0
H3412 H 0.40855 0.37262 0.66426 0.0
H3413 H 0.29343 0.33281 0.70255 0.0
H3414 H 0.2893 0.3512 0.674 0.0
H3415 H 0.3047 0.32018 0.67245 0.0
H3416 H 0.32121 0.32761 0.59051 0.0
H3417 H 0.36822 0.27094 0.62692 0.0
H3418 H 0.3345 0.37872 0.6381 0.0
H3419 H 0.30375 0.36394 0.63257 0.0
H3420 H 0.32399 0.37152 0.60598 0.0
H3421 H 0.39507 0.29673 0.67037 0.0
H3422 H 0.37099 0.27267 0.67382 0.0
H3423 H 0.36788 0.30254 0.69096 0.0
C3424 C 0.9152 0.67051 0.79465 0.0
C3425 C 0.93366 0.68955 0.79892 0.0
C3426 C 0.89271 0.66958 0.8097 0.0
C3427 C 0.88821 0.68886 0.82848 0.0
C3428 C 0.90785 0.70678 0.834 0.0
C3429 C 0.93034 0.70665 0.81939 0.0
C3430 C 0.8732 0.64902 0.80414 0.0
C3431 C 0.90414 0.72793 0.85349 0.0
C3432 C 0.8226 0.7188 0.8375 0.0
C3433 C 0.81758 0.71393 0.86356 0.0
C3434 C 0.84474 0.7094 0.82541 0.0
C3435 C 0.86198 0.69358 0.83922 0.0
C3436 C 0.85565 0.68616 0.86459 0.0
C3437 C 0.83385 0.69679 0.87664 0.0
C3438 C 0.85051 0.71792 0.79832 0.0
C3439 C 0.87254 0.66801 0.87951 0.0
H3440 H 0.91755 0.65733 0.77873 0.0
H3441 H 0.94466 0.72138 0.82267 0.0
H3442 H 0.86135 0.64462 0.82126 0.0
H3443 H 0.86033 0.65557 0.78851 0.0
H3444 H 0.88273 0.63112 0.79754 0.0
H3445 H 0.92176 0.73956 0.8563 0.0
H3446 H 0.8885 0.74088 0.84708 0.0
H3447 H 0.89845 0.71981 0.87227 0.0
H3448 H 0.80965 0.73086 0.82661 0.0
H3449 H 0.83032 0.69245 0.89664 0.0
H3450 H 0.85327 0.70099 0.78576 0.0
H3451 H 0.86859 0.72914 0.79803 0.0
H3452 H 0.83499 0.72997 0.79009 0.0
H3453 H 0.88111 0.65325 0.86675 0.0
H3454 H 0.86165 0.65825 0.895 0.0
H3455 H 0.88841 0.67888 0.88856 0.0
C3456 C 0.33491 0.8811 0.16075 0.0
C3457 C 0.32304 0.85792 0.15326 0.0
C3458 C 0.35573 0.88157 0.17787 0.0
C3459 C 0.36413 0.85853 0.18942 0.0
C3460 C 0.35109 0.83533 0.18367 0.0
C3461 C 0.33114 0.83519 0.16534 0.0
C3462 C 0.36941 0.90666 0.18282 0.0
C3463 C 0.35857 0.81048 0.19651 0.0
C3464 C 0.4327 0.84909 0.21289 0.0
C3465 C 0.43079 0.85488 0.23906 0.0
C3466 C 0.41162 0.85186 0.19632 0.0
C3467 C 0.38732 0.85854 0.20647 0.0
C3468 C 0.38522 0.86436 0.23298 0.0
C3469 C 0.40702 0.86263 0.24886 0.0
C3470 C 0.41525 0.84681 0.16804 0.0
C3471 C 0.35964 0.87035 0.2451 0.0
H3472 H 0.3283 0.89914 0.15289 0.0
H3473 H 0.32244 0.81709 0.16007 0.0
H3474 H 0.36891 0.9114 0.20354 0.0
H3475 H 0.38988 0.90486 0.17729 0.0
H3476 H 0.36084 0.92287 0.17195 0.0
H3477 H 0.3445 0.79494 0.19272 0.0
H3478 H 0.37758 0.80417 0.18942 0.0
H3479 H 0.36021 0.81326 0.21756 0.0
H3480 H 0.45071 0.84183 0.20544 0.0
H3481 H 0.40488 0.86516 0.26931 0.0
H3482 H 0.4064 0.86242 0.15656 0.0
H3483 H 0.40561 0.82863 0.16268 0.0
H3484 H 0.43582 0.8453 0.16278 0.0
H3485 H 0.34869 0.88436 0.23345 0.0
H3486 H 0.36178 0.87811 0.26485 0.0
H3487 H 0.34811 0.8525 0.24607 0.0
C3488 C 0.20815 0.20817 0.66509 0.0
C3489 C 0.21343 0.18536 0.65154 0.0
C3490 C 0.18807 0.20957 0.68328 0.0
C3491 C 0.17166 0.18819 0.68719 0.0
C3492 C 0.17694 0.16511 0.67397 0.0
C3493 C 0.19806 0.16375 0.65727 0.0
C3494 C 0.18439 0.23409 0.69824 0.0
C3495 C 0.15948 0.14205 0.67598 0.0
C3496 C 0.12781 0.18242 0.74595 0.0
C3497 C 0.10552 0.19482 0.73751 0.0
C3498 C 0.14957 0.18044 0.73002 0.0
C3499 C 0.14868 0.19011 0.70455 0.0
C3500 C 0.1257 0.20165 0.69568 0.0
C3501 C 0.10497 0.20498 0.71264 0.0
C3502 C 0.1738 0.16883 0.74078 0.0
C3503 C 0.12289 0.21041 0.66824 0.0
H3504 H 0.21941 0.22519 0.66148 0.0
H3505 H 0.20212 0.14536 0.64865 0.0
H3506 H 0.16741 0.24453 0.69087 0.0
H3507 H 0.18092 0.22982 0.71882 0.0
H3508 H 0.20128 0.24698 0.69671 0.0
H3509 H 0.16949 0.12403 0.67058 0.0
H3510 H 0.15134 0.13965 0.69545 0.0
H3511 H 0.14325 0.14478 0.6625 0.0
H3512 H 0.12884 0.17578 0.76559 0.0
H3513 H 0.08805 0.21531 0.70632 0.0
H3514 H 0.18994 0.18251 0.73853 0.0
H3515 H 0.17885 0.15119 0.73001 0.0
H3516 H 0.17189 0.16377 0.7614 0.0
H3517 H 0.13512 0.22743 0.66478 0.0
H3518 H 0.10277 0.21556 0.6635 0.0
H3519 H 0.1293 0.19505 0.65494 0.0
C3520 C 0.60801 0.33436 0.32178 0.0
C3521 C 0.60701 0.34663 0.29791 0.0
C3522 C 0.62894 0.33772 0.33843 0.0
C3523 C 0.65088 0.3514 0.32995 0.0
C3524 C 0.65026 0.36317 0.3053 0.0
C3525 C 0.62801 0.36134 0.28999 0.0
C3526 C 0.62723 0.32641 0.36503 0.0
C3527 C 0.67309 0.37738 0.29467 0.0
C3528 C 0.70114 0.37766 0.37651 0.0
C3529 C 0.71538 0.35563 0.38331 0.0
C3530 C 0.68021 0.37662 0.35958 0.0
C3531 C 0.67417 0.35331 0.34695 0.0
C3532 C 0.68991 0.3315 0.35169 0.0
C3533 C 0.70961 0.33269 0.37028 0.0
C3534 C 0.66467 0.40086 0.35616 0.0
C3535 C 0.68619 0.30654 0.33748 0.0
H3536 H 0.59202 0.32247 0.32771 0.0
H3537 H 0.6277 0.37013 0.27115 0.0
H3538 H 0.63513 0.30667 0.3648 0.0
H3539 H 0.63809 0.33793 0.37926 0.0
H3540 H 0.60698 0.32509 0.3715 0.0
H3541 H 0.67292 0.3775 0.27335 0.0
H3542 H 0.67237 0.39763 0.30118 0.0
H3543 H 0.69142 0.36883 0.3013 0.0
H3544 H 0.70591 0.39616 0.38461 0.0
H3545 H 0.72018 0.31536 0.37463 0.0
H3546 H 0.65968 0.40897 0.37522 0.0
H3547 H 0.64673 0.39808 0.34523 0.0
H3548 H 0.67652 0.41543 0.34616 0.0
H3549 H 0.67579 0.29283 0.34996 0.0
H3550 H 0.70505 0.29772 0.33297 0.0
H3551 H 0.67539 0.30893 0.3193 0.0
C3552 C 0.98741 0.31246 0.23262 0.0
C3553 C 1.01242 0.30499 0.2389 0.0
C3554 C 0.97637 0.30563 0.20901 0.0
C3555 C 0.99097 0.29151 0.19096 0.0
C3556 C 1.01547 0.2821 0.19817 0.0
C3557 C 0.0259 0.28891 0.22216 0.0
C3558 C 0.95012 0.31587 0.20241 0.0
C3559 C 0.03183 0.26716 0.17956 0.0
C3560 C 0.96034 0.27041 0.12754 0.0
C3561 C 0.96763 0.29047 0.11108 0.0
C3562 C 0.96769 0.27036 0.15362 0.0
C3563 C 0.98271 0.29079 0.16345 0.0
C3564 C 0.98974 0.31123 0.14699 0.0
C3565 C 0.982 0.31088 0.12121 0.0
C3566 C 0.95962 0.24836 0.17058 0.0
C3567 C 1.00561 0.33354 0.15657 0.0
H3568 H 0.97719 0.32532 0.2454 0.0
H3569 H 0.0455 0.2837 0.22673 0.0
H3570 H 0.95212 0.33257 0.18937 0.0
H3571 H 0.93858 0.30113 0.19229 0.0
H3572 H 0.93952 0.32221 0.21978 0.0
H3573 H 0.04818 0.25759 0.18931 0.0
H3574 H 0.02029 0.25245 0.16942 0.0
H3575 H 0.03962 0.28045 0.16488 0.0
H3576 H 0.94939 0.25448 0.11993 0.0
H3577 H 0.98725 0.32678 0.1089 0.0
H3578 H 0.94901 0.25572 0.18748 0.0
H3579 H 0.97683 0.23822 0.1779 0.0
H3580 H 0.94731 0.23434 0.16029 0.0
H3581 H 0.99534 0.34359 0.17226 0.0
H3582 H 1.00988 0.34765 0.1412 0.0
H3583 H 0.02402 0.32647 0.16457 0.0
C3584 C 0.57389 0.76462 0.62605 0.0
C3585 C 0.56697 0.74485 0.60906 0.0
C3586 C 0.56613 0.76417 0.65201 0.0
C3587 C 0.55097 0.74355 0.66121 0.0
C3588 C 0.54417 0.72348 0.6442 0.0
C3589 C 0.55241 0.72426 0.61858 0.0
C3590 C 0.57401 0.78579 0.66956 0.0
C3591 C 0.52812 0.70103 0.65307 0.0
C3592 C 0.5467 0.72114 0.73029 0.0
C3593 C 0.52196 0.72905 0.73713 0.0
C3594 C 0.55735 0.72776 0.70645 0.0
C3595 C 0.54265 0.74214 0.68869 0.0
C3596 C 0.5183 0.75168 0.69627 0.0
C3597 C 0.50828 0.74512 0.72052 0.0
C3598 C 0.58346 0.7174 0.69949 0.0
C3599 C 0.50181 0.76681 0.67794 0.0
H3600 H 0.58496 0.78071 0.61897 0.0
H3601 H 0.54742 0.70854 0.60592 0.0
H3602 H 0.55674 0.79551 0.67727 0.0
H3603 H 0.58482 0.77805 0.68618 0.0
H3604 H 0.58611 0.80024 0.65963 0.0
H3605 H 0.52377 0.6874 0.63727 0.0
H3606 H 0.5383 0.69044 0.66847 0.0
H3607 H 0.50976 0.70799 0.66124 0.0
H3608 H 0.55716 0.70846 0.74304 0.0
H3609 H 0.48892 0.75076 0.72556 0.0
H3610 H 0.59515 0.73236 0.6899 0.0
H3611 H 0.58125 0.70123 0.68582 0.0
H3612 H 0.59403 0.71032 0.71658 0.0
H3613 H 0.51329 0.78164 0.66792 0.0
H3614 H 0.48551 0.77627 0.68788 0.0
H3615 H 0.49394 0.75369 0.66313 0.0
C3616 C 0.48202 0.21863 0.92111 0.0
C3617 C 0.46858 0.2392 0.93222 0.0
C3618 C 0.49085 0.21966 0.89567 0.0
C3619 C 0.48596 0.24171 0.88055 0.0
C3620 C 0.47216 0.26248 0.89144 0.0
C3621 C 0.46365 0.26099 0.91711 0.0
C3622 C 0.50537 0.19696 0.88493 0.0
C3623 C 0.46647 0.28627 0.87597 0.0
C3624 C 0.52984 0.2447 0.82219 0.0
C3625 C 0.51524 0.23129 0.80408 0.0
C3626 C 0.51986 0.25016 0.84674 0.0
C3627 C 0.49463 0.24218 0.85313 0.0
C3628 C 0.47911 0.23084 0.83392 0.0
C3629 C 0.48969 0.2253 0.80977 0.0
C3630 C 0.53721 0.26213 0.86654 0.0
C3631 C 0.4521 0.2222 0.8396 0.0
H3632 H 0.48553 0.20147 0.9323 0.0
H3633 H 0.45353 0.2771 0.92548 0.0
H3634 H 0.49479 0.18873 0.86841 0.0
H3635 H 0.5244 0.2032 0.87777 0.0
H3636 H 0.5083 0.18159 0.8994 0.0
H3637 H 0.45559 0.30078 0.88716 0.0
H3638 H 0.48464 0.29505 0.86928 0.0
H3639 H 0.45523 0.28113 0.85865 0.0
H3640 H 0.5498 0.24876 0.81808 0.0
H3641 H 0.47851 0.21455 0.7959 0.0
H3642 H 0.544 0.24704 0.87994 0.0
H3643 H 0.52674 0.27668 0.878 0.0
H3644 H 0.55423 0.27131 0.85763 0.0
H3645 H 0.45269 0.20468 0.85168 0.0
H3646 H 0.44129 0.2177 0.8218 0.0
H3647 H 0.44153 0.23715 0.85046 0.0
C3648 C 0.07689 0.76953 0.41256 0.0
C3649 C 0.06934 0.78887 0.42977 0.0
C3650 C 0.06936 0.7702 0.38654 0.0
C3651 C 0.05383 0.79062 0.37749 0.0
C3652 C 0.04641 0.81029 0.39472 0.0
C3653 C 0.05439 0.80927 0.42042 0.0
C3654 C 0.07788 0.74901 0.36876 0.0
C3655 C 0.02996 0.83254 0.38602 0.0
C3656 C 0.04933 0.81449 0.30896 0.0
C3657 C 0.02466 0.80651 0.30198 0.0
C3658 C 0.06016 0.80731 0.33257 0.0
C3659 C 0.0457 0.79227 0.34996 0.0
C3660 C 0.02154 0.7825 0.34208 0.0
C3661 C 1.01133 0.78968 0.31808 0.0
C3662 C 0.08606 0.81796 0.33986 0.0
C3663 C 1.00533 0.7666 0.35997 0.0
H3664 H 0.08827 0.75358 0.41952 0.0
H3665 H 0.0489 0.82466 0.43328 0.0
H3666 H 0.06089 0.73902 0.36075 0.0
H3667 H 0.08863 0.75721 0.35234 0.0
H3668 H 0.09022 0.73469 0.37859 0.0
H3669 H 0.02519 0.84585 0.40196 0.0
H3670 H 0.04004 0.84354 0.37086 0.0
H3671 H 1.01181 0.82533 0.37757 0.0
H3672 H 0.05946 0.82787 0.29667 0.0
H3673 H 0.99199 0.78403 0.31299 0.0
H3674 H 0.09793 0.80308 0.34937 0.0
H3675 H 0.08349 0.83396 0.35367 0.0
H3676 H 0.09661 0.82539 0.32291 0.0
H3677 H 1.01709 0.75178 0.36969 0.0
H3678 H 0.98927 0.75705 0.34974 0.0
H3679 H 0.99713 0.7792 0.37506 0.0
C3680 C 0.21257 0.03158 0.29801 0.0
C3681 C 0.23142 1.01697 0.31036 0.0
C3682 C 0.18814 0.02119 0.29302 0.0
C3683 C 0.18267 0.9955 0.30021 0.0
C3684 C 0.20254 0.98006 0.31048 0.0
C3685 C 0.22655 0.99108 0.31571 0.0
C3686 C 0.16755 0.03849 0.28234 0.0
C3687 C 0.19785 0.95253 0.3181 0.0
C3688 C 0.11576 0.97987 0.32459 0.0
C3689 C 0.1045 0.96727 0.30357 0.0
C3690 C 0.14089 0.98943 0.32346 0.0
C3691 C 0.15559 0.98601 0.30088 0.0
C3692 C 0.14461 0.973 0.27968 0.0
C3693 C 0.11921 0.96385 0.28124 0.0
C3694 C 0.15174 1.00316 0.34659 0.0
C3695 C 0.1597 0.9688 0.25536 0.0
H3696 H 0.21613 0.05175 0.29437 0.0
H3697 H 0.24107 0.97982 0.32547 0.0
H3698 H 0.1561 0.02835 0.26756 0.0
H3699 H 0.15431 0.0441 0.29803 0.0
H3700 H 0.17569 0.05623 0.27381 0.0
H3701 H 0.21604 0.94205 0.32177 0.0
H3702 H 0.18616 0.95203 0.33587 0.0
H3703 H 0.18698 0.94227 0.30296 0.0
H3704 H 0.10493 0.98217 0.34217 0.0
H3705 H 0.11073 0.95439 0.26478 0.0
H3706 H 0.15841 0.0226 0.34106 0.0
H3707 H 0.1686 0.99254 0.35405 0.0
H3708 H 0.13751 1.00512 0.36231 0.0
H3709 H 0.16566 0.98754 0.24724 0.0
H3710 H 0.14854 0.9582 0.24063 0.0
H3711 H 0.17744 0.95786 0.25965 0.0
C3712 C 0.4199 0.05811 0.82389 0.0
C3713 C 0.43026 0.07161 0.80298 0.0
C3714 C 0.39462 0.0489 0.82356 0.0
C3715 C 0.37879 0.05378 0.80203 0.0
C3716 C 0.38881 0.06783 0.78104 0.0
C3717 C 0.41444 0.07642 0.78167 0.0
C3718 C 0.38485 0.03391 0.84637 0.0
C3719 C 0.37245 0.07375 0.75792 0.0
C3720 C 0.32101 1.0093 0.79827 0.0
C3721 C 0.30286 0.02326 0.81227 0.0
C3722 C 0.34547 0.01959 0.79331 0.0
C3723 C 0.35163 0.0446 0.80218 0.0
C3724 C 0.33248 0.05947 0.81445 0.0
C3725 C 0.30848 0.04847 0.81969 0.0
C3726 C 0.36536 1.00283 0.78065 0.0
C3727 C 0.33793 0.08632 0.82383 0.0
H3728 H 0.43153 0.05479 0.84078 0.0
H3729 H 0.42216 0.08657 0.76528 0.0
H3730 H 0.36866 0.04431 0.85545 0.0
H3731 H 0.37749 1.01496 0.84006 0.0
H3732 H 0.39992 0.03075 0.86109 0.0
H3733 H 0.38289 0.08522 0.74333 0.0
H3734 H 0.36584 0.05564 0.7489 0.0
H3735 H 0.3551 0.08452 0.7639 0.0
H3736 H 0.31686 0.98958 0.79306 0.0
H3737 H 0.29448 0.05916 0.83076 0.0
H3738 H 0.37942 0.99638 0.79527 0.0
H3739 H 0.37605 1.01372 0.76585 0.0
H3740 H 0.35671 0.98559 0.7716 0.0
H3741 H 0.35055 0.08542 0.84095 0.0
H3742 H 0.3201 0.09667 0.82921 0.0
H3743 H 0.34812 0.09755 0.80892 0.0
C3744 C 0.7336 0.54953 0.73129 0.0
C3745 C 0.73827 0.52356 0.73651 0.0
C3746 C 0.71004 0.56105 0.73754 0.0
C3747 C 0.69037 0.54608 0.74879 0.0
C3748 C 0.69582 0.52038 0.75604 0.0
C3749 C 0.71978 0.50944 0.74989 0.0
C3750 C 0.70539 0.58853 0.72965 0.0
C3751 C 0.6755 0.50357 0.76788 0.0
C3752 C 0.62715 0.57805 0.76888 0.0
C3753 C 0.61172 0.57373 0.74719 0.0
C3754 C 0.65277 0.56926 0.76982 0.0
C3755 C 0.66326 0.55577 0.74863 0.0
C3756 C 0.6479 0.55179 0.72657 0.0
C3757 C 0.62257 0.56093 0.72607 0.0
C3758 C 0.66854 0.5741 0.79359 0.0
C3759 C 0.65815 0.53766 0.70341 0.0
H3760 H 0.7477 0.56035 0.7205 0.0
H3761 H 0.72305 0.48917 0.7533 0.0
H3762 H 0.69341 0.58888 0.71207 0.0
H3763 H 0.69488 0.59909 0.74483 0.0
H3764 H 0.7236 0.59877 0.72553 0.0
H3765 H 0.6838 0.48587 0.77638 0.0
H3766 H 0.66483 0.51413 0.78295 0.0
H3767 H 0.66153 0.49786 0.75287 0.0
H3768 H 0.61901 0.58774 0.78537 0.0
H3769 H 0.61115 0.55796 0.70896 0.0
H3770 H 0.6864 0.58444 0.78848 0.0
H3771 H 0.67426 0.55555 0.80232 0.0
H3772 H 0.65794 0.58553 0.80812 0.0
H3773 H 0.67499 0.54796 0.69551 0.0
H3774 H 0.64361 0.5357 0.68797 0.0
H3775 H 0.66468 0.51819 0.70903 0.0
C3776 C 0.91736 0.47626 0.21661 0.0
C3777 C 0.92896 0.46361 0.23742 0.0
C3778 C 0.89213 0.48563 0.21801 0.0
C3779 C 0.87761 0.48203 0.24069 0.0
C3780 C 0.88887 0.46876 0.26161 0.0
C3781 C 0.91437 0.45976 0.25977 0.0
C3782 C 0.88104 0.49955 0.19511 0.0
C3783 C 0.87405 0.46431 0.28604 0.0
C3784 C 0.82139 0.52871 0.24444 0.0
C3785 C 0.80205 0.51459 0.2323 0.0
C3786 C 0.84564 0.51773 0.24928 0.0
C3787 C 0.85059 0.49197 0.24188 0.0
C3788 C 0.83025 0.47704 0.23175 0.0
C3789 C 0.80638 0.48861 0.22682 0.0
C3790 C 0.86665 0.53452 0.25991 0.0
C3791 C 0.83435 0.44951 0.22378 0.0
H3792 H 0.92807 0.47889 0.199 0.0
H3793 H 0.92306 0.45023 0.27606 0.0
H3794 H 0.86384 0.48926 0.18799 0.0
H3795 H 0.87484 0.51913 0.20076 0.0
H3796 H 0.89497 0.50124 0.17909 0.0
H3797 H 0.88517 0.45307 0.30032 0.0
H3798 H 0.86869 0.48299 0.29472 0.0
H3799 H 0.85598 0.45394 0.28176 0.0
H3800 H 0.81839 0.549 0.24796 0.0
H3801 H 0.79166 0.47783 0.21684 0.0
H3802 H 0.88002 0.53978 0.24423 0.0
H3803 H 0.87786 0.5241 0.27469 0.0
H3804 H 0.85895 0.55247 0.26846 0.0
H3805 H 0.84555 0.44899 0.2057 0.0
H3806 H 0.81592 0.43936 0.22049 0.0
H3807 H 0.84546 0.43894 0.23853 0.0
C3808 C 0.28442 0.22986 1.01454 0.0
C3809 C 0.31093 0.23414 1.01304 0.0
C3810 C 0.2733 0.2076 1.00359 0.0
C3811 C 0.28921 0.18887 0.9917 0.0
C3812 C 0.31572 0.19385 0.98918 0.0
C3813 C 0.32598 0.2165 0.99921 0.0
C3814 C 0.24476 0.20384 1.0058 0.0
C3815 C 0.33378 0.17448 0.97728 0.0
C3816 C 0.27813 0.11714 0.99362 0.0
C3817 C 0.27727 0.11099 0.96734 0.0
C3818 C 0.2798 0.14269 1.00209 0.0
C3819 C 0.27946 0.16292 0.98398 0.0
C3820 C 0.27517 0.15706 0.95777 0.0
C3821 C 0.27463 0.13122 0.94967 0.0
C3822 C 0.28423 0.14784 0.03025 0.0
C3823 C 0.27291 0.17807 0.93801 0.0
H3824 H 0.27248 0.2433 0.02496 0.0
H3825 H 0.34638 0.21971 0.99715 0.0
H3826 H 0.23713 0.19166 0.99009 0.0
H3827 H 0.24035 0.19443 0.02435 0.0
H3828 H 0.23463 0.2226 1.00554 0.0
H3829 H 0.35403 0.18107 0.97741 0.0
H3830 H 0.3327 0.15606 0.9879 0.0
H3831 H 0.32819 0.1706 0.95715 0.0
H3832 H 0.27881 0.10187 1.0077 0.0
H3833 H 0.27356 0.12707 0.92934 0.0
H3834 H 0.27026 0.16218 0.03739 0.0
H3835 H 0.3037 0.15597 0.03303 0.0
H3836 H 0.28253 0.1302 0.04207 0.0
H3837 H 0.26182 0.19453 0.94575 0.0
H3838 H 0.26349 0.1711 0.92021 0.0
H3839 H 0.29228 0.18516 0.9329 0.0
C3840 C 0.83594 0.33079 0.02624 0.0
C3841 C 0.8192 0.3115 1.01746 0.0
C3842 C 0.82691 0.35366 0.03687 0.0
C3843 C 0.80025 0.35763 0.03946 0.0
C3844 C 0.78303 0.33819 0.03127 0.0
C3845 C 0.7927 0.31543 0.02005 0.0
C3846 C 0.84614 0.37384 0.04496 0.0
C3847 C 0.75447 0.34154 0.03406 0.0
C3848 C 0.79088 0.41195 0.0867 0.0
C3849 C 0.79077 0.43323 0.07019 0.0
C3850 C 0.79092 0.38675 0.07694 0.0
C3851 C 0.79121 0.38272 0.05005 0.0
C3852 C 0.78861 0.40405 0.03343 0.0
C3853 C 0.78828 0.42898 0.04369 0.0
C3854 C 0.7931 0.36457 0.0954 0.0
C3855 C 0.7888 0.40079 1.00466 0.0
H3856 H 0.85647 0.32836 0.0245 0.0
H3857 H 0.77953 0.30087 1.0133 0.0
H3858 H 0.8426 0.39194 0.03433 0.0
H3859 H 0.84401 0.37808 0.0657 0.0
H3860 H 0.86625 0.36781 0.04141 0.0
H3861 H 0.74393 0.32338 0.03043 0.0
H3862 H 0.74966 0.34854 0.05358 0.0
H3863 H 0.74763 0.35617 0.02021 0.0
H3864 H 0.79268 0.41489 0.1072 0.0
H3865 H 0.78735 0.44525 0.03078 0.0
H3866 H 0.8133 0.35794 0.09612 0.0
H3867 H 0.78118 0.34816 0.08896 0.0
H3868 H 0.7872 0.37012 0.11511 0.0
H3869 H 0.80857 0.39623 0.99825 0.0
H3870 H 0.78238 0.41845 0.99459 0.0
H3871 H 0.77631 0.38462 0.99878 0.0
C3872 C 0.70381 0.71977 0.54405 0.0
C3873 C 0.71994 0.73412 0.52792 0.0
C3874 C 0.71149 0.69624 0.55441 0.0
C3875 C 0.73651 0.68698 0.5496 0.0
C3876 C 0.75386 0.70249 0.53539 0.0
C3877 C 0.74526 0.72578 0.52437 0.0
C3878 C 0.69201 0.68048 0.56901 0.0
C3879 C 0.78107 0.69403 0.5307 0.0
C3880 C 0.74802 0.62892 0.59216 0.0
C3881 C 0.74083 0.60869 0.57578 0.0
C3882 C 0.74958 0.6544 0.58316 0.0
C3883 C 0.74289 0.66005 0.55743 0.0
C3884 C 0.73748 0.63958 0.54041 0.0
C3885 C 0.73703 0.61425 0.54964 0.0
C3886 C 0.75687 0.67545 0.60164 0.0
C3887 C 0.73015 0.64456 0.51282 0.0
H3888 H 0.68441 0.72629 0.54757 0.0
H3889 H 0.75795 0.73673 0.5121 0.0
H3890 H 0.68862 0.66205 0.55887 0.0
H3891 H 0.69931 0.67583 0.58842 0.0
H3892 H 0.67334 0.69052 0.5711 0.0
H3893 H 0.79382 0.71077 0.52741 0.0
H3894 H 0.78865 0.68267 0.54704 0.0
H3895 H 0.78175 0.68182 0.51329 0.0
H3896 H 0.75124 0.62522 0.61234 0.0
H3897 H 0.73268 0.59885 0.53639 0.0
H3898 H 0.73934 0.68544 0.60835 0.0
H3899 H 0.76925 0.68988 0.59208 0.0
H3900 H 0.76708 0.66775 0.61869 0.0
H3901 H 0.7117 0.65515 0.51216 0.0
H3902 H 0.72801 0.62654 0.50163 0.0
H3903 H 0.74478 0.65671 0.50338 0.0
C3904 C 0.24839 0.80943 0.5148 0.0
C3905 C 0.22211 0.80376 0.51386 0.0
C3906 C 0.25794 0.83255 0.50437 0.0
C3907 C 0.2407 0.85061 0.49348 0.0
C3908 C 0.2144 0.84441 0.49161 0.0
C3909 C 0.20562 0.82104 0.50132 0.0
C3910 C 0.28627 0.83798 0.50594 0.0
C3911 C 0.1951 0.86305 0.48052 0.0
C3912 C 0.24867 0.92269 0.49507 0.0
C3913 C 0.24978 0.92859 0.46877 0.0
C3914 C 0.24785 0.89717 0.50367 0.0
C3915 C 0.24907 0.87687 0.48565 0.0
C3916 C 0.25313 0.88262 0.45942 0.0
C3917 C 0.25302 0.90835 0.45122 0.0
C3918 C 0.24337 0.89202 0.53182 0.0
C3919 C 0.25565 0.86156 0.43972 0.0
H3920 H 0.26135 0.79633 0.52438 0.0
H3921 H 0.18535 0.81683 0.49988 0.0
H3922 H 0.29308 0.84826 0.48859 0.0
H3923 H 0.29015 0.85036 0.5228 0.0
H3924 H 0.29753 0.82002 0.5082 0.0
H3925 H 0.17529 0.85526 0.48059 0.0
H3926 H 0.19523 0.88113 0.49177 0.0
H3927 H 0.20027 0.86795 0.46049 0.0
H3928 H 0.24727 0.93805 0.509 0.0
H3929 H 0.25403 0.91238 0.43087 0.0
H3930 H 0.25702 0.8774 0.539 0.0
H3931 H 0.22374 0.88428 0.53455 0.0
H3932 H 0.24537 0.90964 0.54366 0.0
H3933 H 0.26757 0.84559 0.44723 0.0
H3934 H 0.26429 0.86872 0.42161 0.0
H3935 H 0.23642 0.85369 0.43523 0.0
C3936 C 0.04805 0.72424 0.80645 0.0
C3937 C 0.02243 0.73002 0.80085 0.0
C3938 C 0.05893 0.73082 0.8302 0.0
C3939 C 0.04359 0.74289 0.8491 0.0
C3940 C 1.01823 0.75049 0.84276 0.0
C3941 C 1.00801 0.74413 0.81856 0.0
C3942 C 0.08612 0.7227 0.83582 0.0
C3943 C 1.00105 0.76308 0.86233 0.0
C3944 C 0.05713 0.72217 0.9177 0.0
C3945 C 0.06999 0.7435 0.92801 0.0
C3946 C 0.04819 0.72203 0.89231 0.0
C3947 C 0.05258 0.74357 0.87635 0.0
C3948 C 0.06597 0.76502 0.88634 0.0
C3949 C 0.07443 0.76479 0.91206 0.0
C3950 C 0.03402 0.69867 0.88254 0.0
C3951 C 0.07127 0.78822 0.86988 0.0
H3952 H 0.05915 0.71315 0.79278 0.0
H3953 H 0.98803 0.74816 0.81444 0.0
H3954 H 0.09664 0.73816 0.84599 0.0
H3955 H 0.08594 0.70563 0.84853 0.0
H3956 H 0.09674 0.71769 0.81804 0.0
H3957 H 0.9836 0.77142 0.85339 0.0
H3958 H 0.99498 0.74856 0.87667 0.0
H3959 H 1.01144 0.77843 0.87277 0.0
H3960 H 0.0541 0.70534 0.92951 0.0
H3961 H 0.08414 0.78146 0.91978 0.0
H3962 H 0.04473 0.6899 0.86639 0.0
H3963 H 1.0149 0.70432 0.87512 0.0
H3964 H 0.03134 0.6839 0.89765 0.0
H3965 H 0.08223 0.78246 0.85257 0.0
H3966 H 0.08228 0.80318 0.88031 0.0
H3967 H 0.05295 0.79668 0.86316 0.0
C3968 C 0.53083 0.29558 0.32172 0.0
C3969 C 0.51651 0.30698 0.30207 0.0
C3970 C 0.51971 0.29044 0.34582 0.0
C3971 C 0.49363 0.29681 0.35029 0.0
C3972 C 0.47861 0.30617 0.32964 0.0
C3973 C 0.49031 0.31141 0.30591 0.0
C3974 C 0.53659 0.28066 0.36719 0.0
C3975 C 0.45076 0.31306 0.33327 0.0
C3976 C 0.46145 0.2781 0.41377 0.0
C3977 C 0.46432 0.30067 0.42827 0.0
C3978 C 0.47076 0.27645 0.38836 0.0
C3979 C 0.48331 0.29781 0.37715 0.0
C3980 C 0.48588 0.32072 0.39157 0.0
C3981 C 0.47627 0.32189 0.41672 0.0
C3982 C 0.46746 0.25176 0.37363 0.0
C3983 C 0.49899 0.34408 0.38049 0.0
H3984 H 0.55126 0.29286 0.31904 0.0
H3985 H 0.47937 0.32083 0.29092 0.0
H3986 H 0.52659 0.26564 0.37845 0.0
H3987 H 0.5549 0.27266 0.3598 0.0
H3988 H 0.54113 0.29669 0.38045 0.0
H3989 H 0.44077 0.31578 0.31464 0.0
H3990 H 0.44065 0.29797 0.34434 0.0
H3991 H 0.44935 0.3312 0.34433 0.0
H3992 H 0.45245 0.26151 0.42246 0.0
H3993 H 0.47814 0.33963 0.42741 0.0
H3994 H 0.48651 0.24376 0.36862 0.0
H3995 H 0.45721 0.2555 0.35535 0.0
H3996 H 0.45663 0.23713 0.3847 0.0
H3997 H 0.51886 0.33918 0.37468 0.0
H3998 H 0.49979 0.36029 0.39431 0.0
H3999 H 0.48872 0.35059 0.36303 0.0
C4000 C 0.58831 0.79319 0.12627 0.0
C4001 C 0.57188 0.79423 0.10494 0.0
C4002 C 0.57855 0.79378 0.15145 0.0
C4003 C 0.55176 0.79587 0.15544 0.0
C4004 C 0.53505 0.79485 0.13406 0.0
C4005 C 0.54529 0.79381 0.10916 0.0
C4006 C 0.59704 0.7942 0.1737 0.0
C4007 C 0.50639 0.79714 0.13729 0.0
C4008 C 0.52054 0.79508 0.22201 0.0
C4009 C 0.51893 0.82144 0.22739 0.0
C4010 C 0.53204 0.78619 0.19912 0.0
C4011 C 0.54157 0.8041 0.18096 0.0
C4012 C 0.54027 0.83062 0.18651 0.0
C4013 C 0.52931 0.83885 0.20957 0.0
C4014 C 0.53352 0.75773 0.19414 0.0
C4015 C 0.54982 0.85055 0.16772 0.0
H4016 H 0.60887 0.79345 0.12337 0.0
H4017 H 0.53236 0.7938 0.09289 0.0
H4018 H 0.59882 0.81411 0.18104 0.0
H4019 H 0.58993 0.78207 0.18966 0.0
H4020 H 0.61641 0.78741 0.168 0.0
H4021 H 0.49591 0.79272 0.11926 0.0
H4022 H 0.4995 0.78407 0.15257 0.0
H4023 H 0.50151 0.81702 0.1432 0.0
H4024 H 0.51254 0.7814 0.2354 0.0
H4025 H 0.52848 0.85929 0.21326 0.0
H4026 H 0.55294 0.75234 0.18734 0.0
H4027 H 0.51975 0.75246 0.17881 0.0
H4028 H 0.52893 0.74634 0.21155 0.0
H4029 H 0.5704 0.84732 0.1635 0.0
H4030 H 0.54748 0.87045 0.17501 0.0
H4031 H 0.5392 0.84884 0.14935 0.0
C4032 C 0.96301 0.26345 0.62244 0.0
C4033 C 0.96703 0.24142 0.60741 0.0
C4034 C 0.97157 0.26465 0.64807 0.0
C4035 C 0.98464 0.24341 0.65889 0.0
C4036 C 0.98862 0.22112 0.64387 0.0
C4037 C 0.9796 0.22033 0.61852 0.0
C4038 C 0.96678 0.28865 0.66354 0.0
C4039 C 1.00247 0.19797 0.65456 0.0
C4040 C 0.0301 0.24556 0.71575 0.0
C4041 C 1.01569 0.23263 0.73431 0.0
C4042 C 0.01955 0.25122 0.69156 0.0
C4043 C 0.99396 0.24388 0.68601 0.0
C4044 C 0.9787 0.233 0.70567 0.0
C4045 C 0.98988 0.22719 0.72948 0.0
C4046 C 0.03664 0.26257 0.67118 0.0
C4047 C 0.9513 0.22511 0.7008 0.0
H4048 H 0.95355 0.27996 0.61406 0.0
H4049 H 0.98232 0.20297 0.6074 0.0
H4050 H 0.9559 0.28385 0.68118 0.0
H4051 H 0.98529 0.2971 0.6697 0.0
H4052 H 0.95589 0.30331 0.65255 0.0
H4053 H 1.00461 0.18241 0.64016 0.0
H4054 H 0.02182 0.20356 0.6614 0.0
H4055 H 0.99185 0.19025 0.6713 0.0
H4056 H 0.05028 0.24909 0.71928 0.0
H4057 H 0.97894 0.21667 0.7437 0.0
H4058 H 0.02631 0.27744 0.66002 0.0
H4059 H 0.04249 0.24723 0.65761 0.0
H4060 H 0.05424 0.2712 0.67952 0.0
H4061 H 0.94085 0.22123 0.71896 0.0
H4062 H 0.95105 0.20737 0.68902 0.0
H4063 H 0.94091 0.24019 0.68997 0.0
C4064 C 0.8217 1.01111 0.74133 0.0
C4065 C 0.80347 0.02514 0.72747 0.0
C4066 C 0.84597 0.02164 0.74681 0.0
C4067 C 0.85197 0.04685 0.73842 0.0
C4068 C 0.83267 0.06178 0.72645 0.0
C4069 C 0.80881 0.05062 0.72082 0.0
C4070 C 0.86594 1.00485 0.75932 0.0
C4071 C 0.83793 0.08879 0.71743 0.0
C4072 C 0.9152 0.0787 0.75814 0.0
C4073 C 0.93075 0.07373 0.73669 0.0
C4074 C 0.88955 0.0701 0.75913 0.0
C4075 C 0.87919 0.05605 0.73827 0.0
C4076 C 0.89472 0.05117 0.71654 0.0
C4077 C 0.92006 0.06023 0.71593 0.0
C4078 C 0.87357 0.07593 0.78252 0.0
C4079 C 0.88459 0.0363 0.69379 0.0
H4080 H 0.81783 0.99118 0.74586 0.0
H4081 H 0.79486 0.0613 0.70966 0.0
H4082 H 0.87681 1.01572 0.77402 0.0
H4083 H 0.8573 0.98764 0.76844 0.0
H4084 H 0.87982 0.99831 0.74457 0.0
H4085 H 0.82 0.09918 0.7125 0.0
H4086 H 0.84836 0.09982 0.73234 0.0
H4087 H 0.85025 0.08814 0.7001 0.0
H4088 H 0.92319 0.08888 0.7744 0.0
H4089 H 0.93154 0.05675 0.69896 0.0
H4090 H 0.86716 0.05778 0.79158 0.0
H4091 H 0.85609 0.08667 0.77686 0.0
H4092 H 0.88424 0.08739 0.79698 0.0
H4093 H 0.87753 1.01723 0.70008 0.0
H4094 H 0.89936 0.03338 0.67874 0.0
H4095 H 0.86813 0.04664 0.68514 0.0
C4096 C 0.72413 0.99307 0.21231 0.0
C4097 C 0.73258 1.01622 0.22308 0.0
C4098 C 0.70076 0.982 0.2197 0.0
C4099 C 0.68509 0.99471 0.23787 0.0
C4100 C 0.69427 1.01734 0.24993 0.0
C4101 C 0.71808 0.02771 0.24255 0.0
C4102 C 0.69206 0.95763 0.20668 0.0
C4103 C 0.67808 0.03174 0.2691 0.0
C4104 C 0.61338 0.98814 0.22716 0.0
C4105 C 0.60591 0.97133 0.24687 0.0
C4106 C 0.63891 0.99604 0.22437 0.0
C4107 C 0.65786 0.98648 0.24129 0.0
C4108 C 0.65074 0.96889 0.26077 0.0
C4109 C 0.62483 0.96162 0.26342 0.0
C4110 C 0.64555 1.01483 0.2033 0.0
C4111 C 0.67046 0.95792 0.27888 0.0
H4112 H 0.7354 0.98408 0.19731 0.0
H4113 H 0.72444 0.04577 0.2507 0.0
H4114 H 0.68406 0.94398 0.2209 0.0
H4115 H 0.67664 0.96216 0.19274 0.0
H4116 H 0.70794 0.94805 0.19619 0.0
H4117 H 0.68916 0.04687 0.27921 0.0
H4118 H 0.66178 0.04098 0.25898 0.0
H4119 H 0.66992 1.01841 0.28352 0.0
H4120 H 0.59916 0.99525 0.21378 0.0
H4121 H 0.61934 0.94876 0.27879 0.0
H4122 H 0.65929 1.00592 0.18973 0.0
H4123 H 0.655 0.03202 0.21157 0.0
H4124 H 0.62842 0.02117 0.19234 0.0
H4125 H 0.6859 0.94831 0.26784 0.0
H4126 H 0.66202 0.94386 0.29248 0.0
H4127 H 0.67951 0.97361 0.29005 0.0
C4128 C 0.4204 0.48007 0.32046 0.0
C4129 C 0.43195 0.46768 0.2995 0.0
C4130 C 0.39535 0.4898 0.31897 0.0
C4131 C 0.38109 0.48685 0.29603 0.0
C4132 C 0.39241 0.47411 0.27485 0.0
C4133 C 0.41771 0.46471 0.27681 0.0
C4134 C 0.38409 0.50316 0.34212 0.0
C4135 C 0.3778 0.47043 0.25015 0.0
C4136 C 0.31005 0.49182 0.30989 0.0
C4137 C 0.30539 0.51788 0.30527 0.0
C4138 C 0.33403 0.4808 0.30461 0.0
C4139 C 0.35406 0.49641 0.29501 0.0
C4140 C 0.34877 0.52231 0.28839 0.0
C4141 C 0.32437 0.53272 0.29348 0.0
C4142 C 0.33855 0.45308 0.31169 0.0
C4143 C 0.36953 0.53974 0.27834 0.0
H4144 H 0.43091 0.48202 0.33828 0.0
H4145 H 0.42645 0.45541 0.26041 0.0
H4146 H 0.37765 0.52276 0.33687 0.0
H4147 H 0.36702 0.4925 0.349 0.0
H4148 H 0.39799 0.50469 0.35819 0.0
H4149 H 0.38925 0.46014 0.23542 0.0
H4150 H 0.36 0.45939 0.25385 0.0
H4151 H 0.37196 0.48934 0.24231 0.0
H4152 H 0.29543 0.48044 0.31933 0.0
H4153 H 0.32092 0.553 0.29038 0.0
H4154 H 0.34986 0.45216 0.32969 0.0
H4155 H 0.34971 0.44314 0.29656 0.0
H4156 H 0.32028 0.44258 0.31473 0.0
H4157 H 0.3826 0.54498 0.2943 0.0
H4158 H 0.36153 0.55769 0.27009 0.0
H4159 H 0.38112 0.52987 0.26349 0.0
C4160 C 0.2315 0.54834 0.81526 0.0
C4161 C 0.23672 0.52257 0.80966 0.0
C4162 C 0.20792 0.55952 0.80863 0.0
C4163 C 0.18877 0.54431 0.79678 0.0
C4164 C 0.1947 0.51876 0.78943 0.0
C4165 C 0.21875 0.50824 0.79581 0.0
C4166 C 0.20272 0.58691 0.81645 0.0
C4167 C 0.17484 0.50169 0.77715 0.0
C4168 C 0.12046 0.55882 0.81759 0.0
C4169 C 0.11015 0.57142 0.79609 0.0
C4170 C 0.14576 0.54969 0.81778 0.0
C4171 C 0.16165 0.55366 0.79613 0.0
C4172 C 0.15169 0.56686 0.77454 0.0
C4173 C 0.12605 0.57548 0.77472 0.0
C4174 C 0.15548 0.53572 0.84128 0.0
C4175 C 0.1681 0.57174 0.75123 0.0
H4176 H 0.24533 0.55932 0.82626 0.0
H4177 H 0.22255 0.48813 0.79202 0.0
H4178 H 0.19258 0.59739 0.80096 0.0
H4179 H 0.19018 0.5871 0.83363 0.0
H4180 H 0.22067 0.59735 0.8212 0.0
H4181 H 0.18351 0.48407 0.76885 0.0
H4182 H 0.16062 0.49584 0.79185 0.0
H4183 H 0.16436 0.51209 0.76183 0.0
H4184 H 0.1087 0.5561 0.8345 0.0
H4185 H 0.11834 0.58499 0.75792 0.0
H4186 H 0.17179 0.54638 0.84982 0.0
H4187 H 0.16264 0.51641 0.83587 0.0
H4188 H 0.14044 0.53342 0.85617 0.0
H4189 H 0.18558 0.58251 0.75681 0.0
H4190 H 0.15776 0.58278 0.73622 0.0
H4191 H 0.1745 0.55322 0.7429 0.0
C4192 C 0.72554 0.8077 0.04912 0.0
C4193 C 0.73334 0.80108 0.02426 0.0
C4194 C 0.7326 0.83124 0.0602 0.0
C4195 C 0.74734 0.84895 0.04581 0.0
C4196 C 0.75687 0.84148 0.0214 0.0
C4197 C 0.74985 0.81752 1.01096 0.0
C4198 C 0.72225 0.83806 0.08636 0.0
C4199 C 0.77241 0.85974 1.00524 0.0
C4200 C 0.73027 0.91929 0.05553 0.0
C4201 C 0.75091 0.92859 0.07017 0.0
C4202 C 0.72915 0.89363 0.0474 0.0
C4203 C 0.74895 0.87638 0.05435 0.0
C4204 C 0.76955 0.88534 0.06968 0.0
C4205 C 0.77033 0.91133 0.07737 0.0
C4206 C 0.70669 0.88504 0.03121 0.0
C4207 C 0.79087 0.86752 0.07773 0.0
H4208 H 0.71249 0.7951 0.0593 0.0
H4209 H 0.75542 0.81269 0.9915 0.0
H4210 H 0.73719 0.8475 0.09819 0.0
H4211 H 0.70614 0.8518 0.08421 0.0
H4212 H 0.71509 0.82089 0.09676 0.0
H4213 H 0.78168 0.84986 0.98879 0.0
H4214 H 0.75966 0.87498 0.9976 0.0
H4215 H 0.78741 0.86923 1.01695 0.0
H4216 H 0.71483 0.9322 0.05033 0.0
H4217 H 0.78643 0.91826 0.08853 0.0
H4218 H 0.69597 0.86967 0.04128 0.0
H4219 H 0.71363 0.87689 1.01281 0.0
H4220 H 0.69322 0.90098 0.02689 0.0
H4221 H 0.78287 0.85081 0.08818 0.0
H4222 H 0.80516 0.87719 0.09023 0.0
H4223 H 0.80083 0.85997 0.06051 0.0
C4224 C 0.26247 0.62659 0.96388 0.0
C4225 C 0.24101 0.61074 0.96761 0.0
C4226 C 0.26273 0.65221 0.97275 0.0
C4227 C 0.24107 0.66226 0.98578 0.0
C4228 C 0.21929 0.64645 0.98929 0.0
C4229 C 0.21945 0.62114 0.98002 0.0
C4230 C 0.28622 0.66848 0.96838 0.0
C4231 C 0.19568 0.65625 1.00296 0.0
C4232 C 0.24131 0.71933 0.03161 0.0
C4233 C 0.22814 0.7377 1.01709 0.0
C4234 C 0.24744 0.69515 0.02109 0.0
C4235 C 0.24049 0.68941 0.99537 0.0
C4236 C 0.22924 0.70886 0.98007 0.0
C4237 C 0.22293 0.73261 0.9912 0.0
C4238 C 0.25916 0.67502 0.03824 0.0
C4239 C 0.22175 0.7039 0.95255 0.0
H4240 H 0.2793 0.61882 0.9545 0.0
H4241 H 0.20249 0.60942 0.98252 0.0
H4242 H 0.28096 0.68616 0.95775 0.0
H4243 H 0.29434 0.67459 0.98709 0.0
H4244 H 0.30127 0.65811 0.95744 0.0
H4245 H 0.18061 0.64132 1.00479 0.0
H4246 H 0.20082 0.66308 0.02246 0.0
H4247 H 0.18753 0.67283 0.9924 0.0
H4248 H 0.24481 0.723 0.05178 0.0
H4249 H 0.21246 0.74671 0.98004 0.0
H4250 H 0.27462 0.66452 0.02808 0.0
H4251 H 0.24426 0.66081 0.0436 0.0
H4252 H 0.26712 0.68346 0.05612 0.0
H4253 H 0.2373 0.69371 0.94222 0.0
H4254 H 0.21728 0.72197 0.94215 0.0
H4255 H 0.20452 0.69145 0.95205 0.0
C4256 C 0.30885 0.30182 0.48753 0.0
C4257 C 0.30563 0.29934 0.51407 0.0
C4258 C 0.30267 0.32484 0.47487 0.0
C4259 C 0.29369 0.3461 0.48928 0.0
C4260 C 0.28848 0.34289 0.51581 0.0
C4261 C 0.2945 0.31949 0.52788 0.0
C4262 C 0.30825 0.32716 0.44658 0.0
C4263 C 0.27918 0.36497 0.53205 0.0
C4264 C 0.31819 0.41184 0.46945 0.0
C4265 C 0.29642 0.42338 0.45855 0.0
C4266 C 0.31744 0.3868 0.47929 0.0
C4267 C 0.29443 0.37247 0.4779 0.0
C4268 C 0.27259 0.38354 0.46607 0.0
C4269 C 0.27381 0.4089 0.45657 0.0
C4270 C 0.3413 0.37586 0.49163 0.0
C4271 C 0.24781 0.36881 0.46395 0.0
H4272 H 0.31803 0.28641 0.47697 0.0
H4273 H 0.2927 0.3178 0.54853 0.0
H4274 H 0.29286 0.338 0.43667 0.0
H4275 H 0.32642 0.33786 0.44386 0.0
H4276 H 0.31029 0.30805 0.43733 0.0
H4277 H 0.27208 0.35842 0.55104 0.0
H4278 H 0.29522 0.37858 0.53526 0.0
H4279 H 0.26364 0.3756 0.52216 0.0
H4280 H 0.33594 0.42257 0.47054 0.0
H4281 H 0.25687 0.41761 0.44828 0.0
H4282 H 0.34717 0.35802 0.48161 0.0
H4283 H 0.33732 0.37074 0.5119 0.0
H4284 H 0.35762 0.38952 0.49123 0.0
H4285 H 0.25124 0.34994 0.45471 0.0
H4286 H 0.2331 0.37939 0.45273 0.0
H4287 H 0.2401 0.36499 0.4834 0.0
C4288 C 0.79518 0.22022 0.50819 0.0
C4289 C 0.80844 0.23872 0.52245 0.0
C4290 C 0.78948 0.196 0.51881 0.0
C4291 C 0.79705 0.19028 0.54436 0.0
C4292 C 0.80841 0.20985 0.55944 0.0
C4293 C 0.81426 0.23366 0.5482 0.0
C4294 C 0.77763 0.17576 0.50186 0.0
C4295 C 0.81658 0.20491 0.58677 0.0
C4296 C 0.77639 0.12703 0.57587 0.0
C4297 C 0.79789 0.11137 0.57146 0.0
C4298 C 0.77573 0.15275 0.56727 0.0
C4299 C 0.797 0.16309 0.55386 0.0
C4300 C 0.81884 0.14748 0.54974 0.0
C4301 C 0.81908 0.12206 0.55871 0.0
C4302 C 0.75218 0.16878 0.57228 0.0
C4303 C 0.84206 0.15758 0.53565 0.0
H4304 H 0.79132 0.22382 0.48807 0.0
H4305 H 0.82499 0.24778 0.55908 0.0
H4306 H 0.79258 0.16173 0.49613 0.0
H4307 H 0.76252 0.16508 0.51232 0.0
H4308 H 0.76919 0.18415 0.48417 0.0
H4309 H 0.821 0.22301 0.59713 0.0
H4310 H 0.80143 0.19445 0.5974 0.0
H4311 H 0.83402 0.19272 0.58683 0.0
H4312 H 0.75983 0.11904 0.58551 0.0
H4313 H 0.83605 0.11046 0.55567 0.0
H4314 H 0.74352 0.1748 0.5538 0.0
H4315 H 0.75751 0.1865 0.5828 0.0
H4316 H 0.73754 0.15824 0.58359 0.0
H4317 H 0.83645 0.16437 0.51626 0.0
H4318 H 0.85729 0.14284 0.53351 0.0
H4319 H 0.85019 0.17425 0.54608 0.0
loop_
_geom_bond_atom_site_label_1
_geom_bond_atom_site_label_2
_geom_bond_distance
_geom_bond_site_symmetry_2
_ccdc_geom_bond_type
Gd0 N31 2.661 . S
Gd0 N37 2.601 . S
Gd0 O44 2.545 . S
Gd0 O45 2.606 . S
Gd0 O47 2.429 . S
Gd0 O48 2.545 . S
Gd0 O49 2.412 . S
Gd0 O51 2.362 . S
Gd0 O52 2.324 . S
Gd0 C59 2.828 . S
Gd1 N10 2.661 . S
Gd1 N14 2.601 . S
Gd1 O45 2.362 . S
Gd1 O46 2.324 1_455 S
Gd1 O50 2.545 1_455 S
Gd1 O51 2.606 . S
Gd1 O53 2.429 . S
Gd1 O54 2.545 1_455 S
Gd1 O55 2.412 1_455 S
Gd1 C68 2.828 1_455 S
C2 C5 1.417 . S
C2 C7 1.431 . S
C2 C8 1.412 . S
C3 C6 1.437 . S
C3 C7 1.317 . S
C3 H22 0.929 . S
C4 C5 1.426 . S
C4 C6 1.413 . S
C4 N14 1.359 . S
C5 C2 1.417 . S
C5 C4 1.426 . S
C5 N10 1.350 . S
C6 C3 1.437 . S
C6 C4 1.413 . S
C6 C16 1.391 . S
C7 C2 1.431 . S
C7 C3 1.317 . S
C7 H18 0.930 . S
C8 C2 1.412 . S
C8 C9 1.355 . S
C8 H20 0.930 . S
C9 C8 1.355 . S
C9 C11 1.402 . S
C9 H21 0.930 . S
N10 Gd1 2.661 . S
N10 C5 1.350 . S
N10 C11 1.307 . S
C11 C9 1.402 . S
C11 N10 1.307 . S
C11 H12 0.930 . S
H12 C11 0.930 . S
C13 N14 1.334 . S
C13 C15 1.394 . S
C13 H17 0.930 . S
N14 Gd1 2.601 . S
N14 C4 1.359 . S
N14 C13 1.334 . S
C15 C13 1.394 . S
C15 C16 1.359 . S
C15 H27 0.930 . S
C16 C6 1.391 . S
C16 C15 1.359 . S
C16 H28 0.929 . S
H17 C13 0.930 . S
H18 C7 0.930 . S
H19 C36 0.930 . S
H20 C8 0.930 . S
H21 C9 0.930 . S
H22 C3 0.929 . S
H23 C41 0.930 . S
H24 C32 0.930 . S
H25 C33 0.930 . S
H26 C57 0.929 . S
H27 C15 0.930 . S
H28 C16 0.929 . S
H29 C58 0.930 . S
H30 C39 0.930 . S
N31 Gd0 2.661 . S
N31 C35 1.350 . S
N31 C36 1.307 . S
C32 H24 0.930 . S
C32 C33 1.355 . S
C32 C34 1.412 . S
C33 H25 0.930 . S
C33 C32 1.355 . S
C33 C36 1.402 . S
C34 C32 1.412 . S
C34 C35 1.417 . S
C34 C58 1.431 1_455 S
C35 N31 1.350 . S
C35 C34 1.417 . S
C35 C38 1.426 . S
C36 H19 0.930 . S
C36 N31 1.307 . S
C36 C33 1.402 . S
N37 Gd0 2.601 . S
N37 C38 1.359 . S
N37 C41 1.334 . S
C38 C35 1.426 . S
C38 N37 1.359 . S
C38 C42 1.413 1_455 S
C39 H30 0.930 . S
C39 C40 1.359 . S
C39 C41 1.394 1_655 S
C40 C39 1.359 . S
C40 C42 1.391 . S
C40 H43 0.929 . S
C41 H23 0.930 . S
C41 N37 1.334 . S
C41 C39 1.394 1_455 S
C42 C38 1.413 1_655 S
C42 C40 1.391 . S
C42 C57 1.437 . S
H43 C40 0.929 . S
O44 Gd0 2.545 . S
O44 C59 1.258 . S
O45 Gd0 2.606 . S
O45 Gd1 2.362 . S
O45 C56 1.284 . S
O46 Gd1 2.324 1_655 S
O46 C66 1.254 . S
O47 Gd0 2.429 . S
O47 C66 1.268 1_455 S
O48 Gd0 2.545 . S
O48 C56 1.250 . S
O49 Gd0 2.412 . S
O49 C59 1.252 . S
O50 Gd1 2.545 1_655 S
O50 C68 1.258 . S
O51 Gd0 2.362 . S
O51 Gd1 2.606 . S
O51 C67 1.284 1_455 S
O52 Gd0 2.324 . S
O52 C75 1.254 . S
O53 Gd1 2.429 . S
O53 C75 1.268 . S
O54 Gd1 2.545 1_655 S
O54 C67 1.250 . S
O55 Gd1 2.412 1_655 S
O55 C68 1.252 . S
C56 O45 1.284 . S
C56 O48 1.250 . S
C57 H26 0.929 . S
C57 C42 1.437 . S
C57 C58 1.317 . S
C58 H29 0.930 . S
C58 C34 1.431 1_655 S
C58 C57 1.317 . S
C59 Gd0 2.828 . S
C59 O44 1.258 . S
C59 O49 1.252 . S
C59 C60 1.497 . S
C60 C59 1.497 . S
C60 C61 1.395 . S
C60 C62 1.380 . S
C61 C60 1.395 . S
C61 C64 1.398 . S
C61 H76 0.930 . S
C62 C60 1.380 . S
C62 C63 1.391 . S
C62 H77 0.930 . S
C63 C62 1.391 . S
C63 C65 1.387 . S
C64 C61 1.398 . S
C64 C65 1.380 . S
C64 H78 0.930 . S
C65 C63 1.387 . S
C65 C64 1.380 . S
C65 H79 0.930 . S
C66 O46 1.254 . S
C66 O47 1.268 1_655 S
C67 O51 1.284 1_655 S
C67 O54 1.250 . S
C68 Gd1 2.828 1_655 S
C68 O50 1.258 . S
C68 O55 1.252 . S
C68 C69 1.497 . S
C69 C68 1.497 . S
C69 C70 1.395 . S
C69 C71 1.380 . S
C70 C69 1.395 . S
C70 C73 1.398 . S
C70 H80 0.930 . S
C71 C69 1.380 . S
C71 C72 1.391 . S
C71 H81 0.930 . S
C72 C71 1.391 . S
C72 C74 1.387 . S
C73 C70 1.398 . S
C73 C74 1.380 . S
C73 H82 0.930 . S
C74 C72 1.387 . S
C74 C73 1.380 . S
C74 H83 0.930 . S
C75 O52 1.254 . S
C75 O53 1.268 . S
H76 C61 0.930 . S
H77 C62 0.930 . S
H78 C64 0.930 . S
H79 C65 0.930 . S
H80 C70 0.930 . S
H81 C71 0.930 . S
H82 C73 0.930 . S
H83 C74 0.930 . S
Gd84 N115 2.661 . S
Gd84 N121 2.601 . S
Gd84 O128 2.545 . S
Gd84 O129 2.606 . S
Gd84 O131 2.429 . S
Gd84 O132 2.545 . S
Gd84 O133 2.412 . S
Gd84 O135 2.362 . S
Gd84 O136 2.324 . S
Gd84 C143 2.828 . S
Gd85 N94 2.661 . S
Gd85 N98 2.601 . S
Gd85 O129 2.362 . S
Gd85 O130 2.324 . S
Gd85 O134 2.545 . S
Gd85 O135 2.606 . S
Gd85 O137 2.429 . S
Gd85 O138 2.545 . S
Gd85 O139 2.412 . S
Gd85 C152 2.828 . S
C86 C89 1.417 . S
C86 C91 1.431 . S
C86 C92 1.412 . S
C87 C90 1.437 . S
C87 C91 1.317 . S
C87 H106 0.929 . S
C88 C89 1.426 . S
C88 C90 1.413 . S
C88 N98 1.359 . S
C89 C86 1.417 . S
C89 C88 1.426 . S
C89 N94 1.350 . S
C90 C87 1.437 . S
C90 C88 1.413 . S
C90 C100 1.391 . S
C91 C86 1.431 . S
C91 C87 1.317 . S
C91 H102 0.930 . S
C92 C86 1.412 . S
C92 C93 1.355 . S
C92 H104 0.930 . S
C93 C92 1.355 . S
C93 C95 1.402 . S
C93 H105 0.930 . S
N94 Gd85 2.661 . S
N94 C89 1.350 . S
N94 C95 1.307 . S
C95 C93 1.402 . S
C95 N94 1.307 . S
C95 H96 0.930 . S
H96 C95 0.930 . S
C97 N98 1.334 . S
C97 C99 1.394 . S
C97 H101 0.930 . S
N98 Gd85 2.601 . S
N98 C88 1.359 . S
N98 C97 1.334 . S
C99 C97 1.394 . S
C99 C100 1.359 . S
C99 H111 0.930 . S
C100 C90 1.391 . S
C100 C99 1.359 . S
C100 H112 0.929 . S
H101 C97 0.930 . S
H102 C91 0.930 . S
H103 C120 0.930 . S
H104 C92 0.930 . S
H105 C93 0.930 . S
H106 C87 0.929 . S
H107 C125 0.930 . S
H108 C116 0.930 . S
H109 C117 0.930 . S
H110 C141 0.929 . S
H111 C99 0.930 . S
H112 C100 0.929 . S
H113 C142 0.930 . S
H114 C123 0.930 . S
N115 Gd84 2.661 . S
N115 C119 1.350 . S
N115 C120 1.307 . S
C116 H108 0.930 . S
C116 C117 1.355 . S
C116 C118 1.412 . S
C117 H109 0.930 . S
C117 C116 1.355 . S
C117 C120 1.402 . S
C118 C116 1.412 . S
C118 C119 1.417 . S
C118 C142 1.431 . S
C119 N115 1.350 . S
C119 C118 1.417 . S
C119 C122 1.426 . S
C120 H103 0.930 . S
C120 N115 1.307 . S
C120 C117 1.402 . S
N121 Gd84 2.601 . S
N121 C122 1.359 . S
N121 C125 1.334 . S
C122 C119 1.426 . S
C122 N121 1.359 . S
C122 C126 1.413 . S
C123 H114 0.930 . S
C123 C124 1.359 . S
C123 C125 1.394 . S
C124 C123 1.359 . S
C124 C126 1.391 . S
C124 H127 0.929 . S
C125 H107 0.930 . S
C125 N121 1.334 . S
C125 C123 1.394 . S
C126 C122 1.413 . S
C126 C124 1.391 . S
C126 C141 1.437 . S
H127 C124 0.929 . S
O128 Gd84 2.545 . S
O128 C143 1.258 . S
O129 Gd84 2.606 . S
O129 Gd85 2.362 . S
O129 C140 1.284 . S
O130 Gd85 2.324 . S
O130 C150 1.254 . S
O131 Gd84 2.429 . S
O131 C150 1.268 . S
O132 Gd84 2.545 . S
O132 C140 1.250 . S
O133 Gd84 2.412 . S
O133 C143 1.252 . S
O134 Gd85 2.545 . S
O134 C152 1.258 . S
O135 Gd84 2.362 . S
O135 Gd85 2.606 . S
O135 C151 1.284 . S
O136 Gd84 2.324 . S
O136 C159 1.254 . S
O137 Gd85 2.429 . S
O137 C159 1.268 . S
O138 Gd85 2.545 . S
O138 C151 1.250 . S
O139 Gd85 2.412 . S
O139 C152 1.252 . S
C140 O129 1.284 . S
C140 O132 1.250 . S
C141 H110 0.929 . S
C141 C126 1.437 . S
C141 C142 1.317 . S
C142 H113 0.930 . S
C142 C118 1.431 . S
C142 C141 1.317 . S
C143 Gd84 2.828 . S
C143 O128 1.258 . S
C143 O133 1.252 . S
C143 C144 1.497 . S
C144 C143 1.497 . S
C144 C145 1.395 . S
C144 C146 1.380 . S
C145 C144 1.395 . S
C145 C148 1.398 . S
C145 H160 0.930 . S
C146 C144 1.380 . S
C146 C147 1.391 . S
C146 H161 0.930 . S
C147 C146 1.391 . S
C147 C149 1.387 . S
C148 C145 1.398 . S
C148 C149 1.380 . S
C148 H162 0.930 . S
C149 C147 1.387 . S
C149 C148 1.380 . S
C149 H163 0.930 . S
C150 O130 1.254 . S
C150 O131 1.268 . S
C151 O135 1.284 . S
C151 O138 1.250 . S
C152 Gd85 2.828 . S
C152 O134 1.258 . S
C152 O139 1.252 . S
C152 C153 1.497 . S
C153 C152 1.497 . S
C153 C154 1.395 . S
C153 C155 1.380 . S
C154 C153 1.395 . S
C154 C157 1.398 . S
C154 H164 0.930 . S
C155 C153 1.380 . S
C155 C156 1.391 . S
C155 H165 0.930 . S
C156 C155 1.391 . S
C156 C158 1.387 . S
C157 C154 1.398 . S
C157 C158 1.380 . S
C157 H166 0.930 . S
C158 C156 1.387 . S
C158 C157 1.380 . S
C158 H167 0.930 . S
C159 O136 1.254 . S
C159 O137 1.268 . S
H160 C145 0.930 . S
H161 C146 0.930 . S
H162 C148 0.930 . S
H163 C149 0.930 . S
H164 C154 0.930 . S
H165 C155 0.930 . S
H166 C157 0.930 . S
H167 C158 0.930 . S
Gd168 N199 2.661 . S
Gd168 N205 2.601 . S
Gd168 O212 2.545 . S
Gd168 O213 2.606 . S
Gd168 O215 2.429 . S
Gd168 O216 2.545 . S
Gd168 O217 2.412 . S
Gd168 O219 2.362 . S
Gd168 O220 2.324 . S
Gd168 C227 2.828 . S
Gd169 N178 2.661 . S
Gd169 N182 2.601 . S
Gd169 O213 2.362 . S
Gd169 O214 2.324 . S
Gd169 O218 2.545 . S
Gd169 O219 2.606 . S
Gd169 O221 2.429 . S
Gd169 O222 2.545 . S
Gd169 O223 2.412 . S
Gd169 C236 2.828 . S
C170 C173 1.417 . S
C170 C175 1.431 . S
C170 C176 1.412 . S
C171 C174 1.437 . S
C171 C175 1.317 . S
C171 H190 0.929 . S
C172 C173 1.426 . S
C172 C174 1.413 . S
C172 N182 1.359 . S
C173 C170 1.417 . S
C173 C172 1.426 . S
C173 N178 1.350 . S
C174 C171 1.437 . S
C174 C172 1.413 . S
C174 C184 1.391 . S
C175 C170 1.431 . S
C175 C171 1.317 . S
C175 H186 0.930 . S
C176 C170 1.412 . S
C176 C177 1.355 . S
C176 H188 0.930 . S
C177 C176 1.355 . S
C177 C179 1.402 . S
C177 H189 0.930 . S
N178 Gd169 2.661 . S
N178 C173 1.350 . S
N178 C179 1.307 . S
C179 C177 1.402 . S
C179 N178 1.307 . S
C179 H180 0.930 . S
H180 C179 0.930 . S
C181 N182 1.334 . S
C181 C183 1.394 . S
C181 H185 0.930 . S
N182 Gd169 2.601 . S
N182 C172 1.359 . S
N182 C181 1.334 . S
C183 C181 1.394 . S
C183 C184 1.359 . S
C183 H195 0.930 . S
C184 C174 1.391 . S
C184 C183 1.359 . S
C184 H196 0.929 . S
H185 C181 0.930 . S
H186 C175 0.930 . S
H187 C204 0.930 . S
H188 C176 0.930 . S
H189 C177 0.930 . S
H190 C171 0.929 . S
H191 C209 0.930 . S
H192 C200 0.930 . S
H193 C201 0.930 . S
H194 C225 0.929 . S
H195 C183 0.930 . S
H196 C184 0.929 . S
H197 C226 0.930 . S
H198 C207 0.930 . S
N199 Gd168 2.661 . S
N199 C203 1.350 . S
N199 C204 1.307 . S
C200 H192 0.930 . S
C200 C201 1.355 . S
C200 C202 1.412 . S
C201 H193 0.930 . S
C201 C200 1.355 . S
C201 C204 1.402 . S
C202 C200 1.412 . S
C202 C203 1.417 . S
C202 C226 1.431 . S
C203 N199 1.350 . S
C203 C202 1.417 . S
C203 C206 1.426 . S
C204 H187 0.930 . S
C204 N199 1.307 . S
C204 C201 1.402 . S
N205 Gd168 2.601 . S
N205 C206 1.359 . S
N205 C209 1.334 . S
C206 C203 1.426 . S
C206 N205 1.359 . S
C206 C210 1.413 . S
C207 H198 0.930 . S
C207 C208 1.359 . S
C207 C209 1.394 . S
C208 C207 1.359 . S
C208 C210 1.391 . S
C208 H211 0.929 . S
C209 H191 0.930 . S
C209 N205 1.334 . S
C209 C207 1.394 . S
C210 C206 1.413 . S
C210 C208 1.391 . S
C210 C225 1.437 . S
H211 C208 0.929 . S
O212 Gd168 2.545 . S
O212 C227 1.258 . S
O213 Gd168 2.606 . S
O213 Gd169 2.362 . S
O213 C224 1.284 . S
O214 Gd169 2.324 . S
O214 C234 1.254 . S
O215 Gd168 2.429 . S
O215 C234 1.268 . S
O216 Gd168 2.545 . S
O216 C224 1.250 . S
O217 Gd168 2.412 . S
O217 C227 1.252 . S
O218 Gd169 2.545 . S
O218 C236 1.258 . S
O219 Gd168 2.362 . S
O219 Gd169 2.606 . S
O219 C235 1.284 . S
O220 Gd168 2.324 . S
O220 C243 1.254 . S
O221 Gd169 2.429 . S
O221 C243 1.268 . S
O222 Gd169 2.545 . S
O222 C235 1.250 . S
O223 Gd169 2.412 . S
O223 C236 1.252 . S
C224 O213 1.284 . S
C224 O216 1.250 . S
C225 H194 0.929 . S
C225 C210 1.437 . S
C225 C226 1.317 . S
C226 H197 0.930 . S
C226 C202 1.431 . S
C226 C225 1.317 . S
C227 Gd168 2.828 . S
C227 O212 1.258 . S
C227 O217 1.252 . S
C227 C228 1.497 . S
C228 C227 1.497 . S
C228 C229 1.395 . S
C228 C230 1.380 . S
C229 C228 1.395 . S
C229 C232 1.398 . S
C229 H244 0.930 . S
C230 C228 1.380 . S
C230 C231 1.391 . S
C230 H245 0.930 . S
C231 C230 1.391 . S
C231 C233 1.387 . S
C232 C229 1.398 . S
C232 C233 1.380 . S
C232 H246 0.930 . S
C233 C231 1.387 . S
C233 C232 1.380 . S
C233 H247 0.930 . S
C234 O214 1.254 . S
C234 O215 1.268 . S
C235 O219 1.284 . S
C235 O222 1.250 . S
C236 Gd169 2.828 . S
C236 O218 1.258 . S
C236 O223 1.252 . S
C236 C237 1.497 . S
C237 C236 1.497 . S
C237 C238 1.395 . S
C237 C239 1.380 . S
C238 C237 1.395 . S
C238 C241 1.398 . S
C238 H248 0.930 . S
C239 C237 1.380 . S
C239 C240 1.391 . S
C239 H249 0.930 . S
C240 C239 1.391 . S
C240 C242 1.387 . S
C241 C238 1.398 . S
C241 C242 1.380 . S
C241 H250 0.930 . S
C242 C240 1.387 . S
C242 C241 1.380 . S
C242 H251 0.930 . S
C243 O220 1.254 . S
C243 O221 1.268 . S
H244 C229 0.930 . S
H245 C230 0.930 . S
H246 C232 0.930 . S
H247 C233 0.930 . S
H248 C238 0.930 . S
H249 C239 0.930 . S
H250 C241 0.930 . S
H251 C242 0.930 . S
Gd252 N283 2.661 . S
Gd252 N289 2.601 . S
Gd252 O296 2.545 . S
Gd252 O297 2.606 . S
Gd252 O299 2.429 . S
Gd252 O300 2.545 . S
Gd252 O301 2.412 . S
Gd252 O303 2.362 . S
Gd252 O304 2.324 . S
Gd252 C311 2.828 . S
Gd253 N262 2.661 . S
Gd253 N266 2.601 . S
Gd253 O297 2.362 . S
Gd253 O298 2.324 1_655 S
Gd253 O302 2.545 1_655 S
Gd253 O303 2.606 . S
Gd253 O305 2.429 . S
Gd253 O306 2.545 1_655 S
Gd253 O307 2.412 1_655 S
Gd253 C320 2.828 1_655 S
C254 C257 1.417 . S
C254 C259 1.431 . S
C254 C260 1.412 . S
C255 C258 1.437 . S
C255 C259 1.317 . S
C255 H274 0.929 . S
C256 C257 1.426 . S
C256 C258 1.413 . S
C256 N266 1.359 . S
C257 C254 1.417 . S
C257 C256 1.426 . S
C257 N262 1.350 . S
C258 C255 1.437 . S
C258 C256 1.413 . S
C258 C268 1.391 . S
C259 C254 1.431 . S
C259 C255 1.317 . S
C259 H270 0.930 . S
C260 C254 1.412 . S
C260 C261 1.355 . S
C260 H272 0.930 . S
C261 C260 1.355 . S
C261 C263 1.402 . S
C261 H273 0.930 . S
N262 Gd253 2.661 . S
N262 C257 1.350 . S
N262 C263 1.307 . S
C263 C261 1.402 . S
C263 N262 1.307 . S
C263 H264 0.930 . S
H264 C263 0.930 . S
C265 N266 1.334 . S
C265 C267 1.394 . S
C265 H269 0.930 . S
N266 Gd253 2.601 . S
N266 C256 1.359 . S
N266 C265 1.334 . S
C267 C265 1.394 . S
C267 C268 1.359 . S
C267 H279 0.930 . S
C268 C258 1.391 . S
C268 C267 1.359 . S
C268 H280 0.929 . S
H269 C265 0.930 . S
H270 C259 0.930 . S
H271 C288 0.930 . S
H272 C260 0.930 . S
H273 C261 0.930 . S
H274 C255 0.929 . S
H275 C293 0.930 . S
H276 C284 0.930 . S
H277 C285 0.930 . S
H278 C309 0.929 . S
H279 C267 0.930 . S
H280 C268 0.929 . S
H281 C310 0.930 . S
H282 C291 0.930 . S
N283 Gd252 2.661 . S
N283 C287 1.350 . S
N283 C288 1.307 . S
C284 H276 0.930 . S
C284 C285 1.355 . S
C284 C286 1.412 . S
C285 H277 0.930 . S
C285 C284 1.355 . S
C285 C288 1.402 . S
C286 C284 1.412 . S
C286 C287 1.417 . S
C286 C310 1.431 1_655 S
C287 N283 1.350 . S
C287 C286 1.417 . S
C287 C290 1.426 . S
C288 H271 0.930 . S
C288 N283 1.307 . S
C288 C285 1.402 . S
N289 Gd252 2.601 . S
N289 C290 1.359 . S
N289 C293 1.334 . S
C290 C287 1.426 . S
C290 N289 1.359 . S
C290 C294 1.413 1_655 S
C291 H282 0.930 . S
C291 C292 1.359 . S
C291 C293 1.394 1_455 S
C292 C291 1.359 . S
C292 C294 1.391 . S
C292 H295 0.929 . S
C293 H275 0.930 . S
C293 N289 1.334 . S
C293 C291 1.394 1_655 S
C294 C290 1.413 1_455 S
C294 C292 1.391 . S
C294 C309 1.437 . S
H295 C292 0.929 . S
O296 Gd252 2.545 . S
O296 C311 1.258 . S
O297 Gd252 2.606 . S
O297 Gd253 2.362 . S
O297 C308 1.284 . S
O298 Gd253 2.324 1_455 S
O298 C318 1.254 . S
O299 Gd252 2.429 . S
O299 C318 1.268 1_655 S
O300 Gd252 2.545 . S
O300 C308 1.250 . S
O301 Gd252 2.412 . S
O301 C311 1.252 . S
O302 Gd253 2.545 1_455 S
O302 C320 1.258 . S
O303 Gd252 2.362 . S
O303 Gd253 2.606 . S
O303 C319 1.284 1_655 S
O304 Gd252 2.324 . S
O304 C327 1.254 . S
O305 Gd253 2.429 . S
O305 C327 1.268 . S
O306 Gd253 2.545 1_455 S
O306 C319 1.250 . S
O307 Gd253 2.412 1_455 S
O307 C320 1.252 . S
C308 O297 1.284 . S
C308 O300 1.250 . S
C309 H278 0.929 . S
C309 C294 1.437 . S
C309 C310 1.317 . S
C310 H281 0.930 . S
C310 C286 1.431 1_455 S
C310 C309 1.317 . S
C311 Gd252 2.828 . S
C311 O296 1.258 . S
C311 O301 1.252 . S
C311 C312 1.497 . S
C312 C311 1.497 . S
C312 C313 1.395 . S
C312 C314 1.380 . S
C313 C312 1.395 . S
C313 C316 1.398 . S
C313 H328 0.930 . S
C314 C312 1.380 . S
C314 C315 1.391 . S
C314 H329 0.930 . S
C315 C314 1.391 . S
C315 C317 1.387 . S
C316 C313 1.398 . S
C316 C317 1.380 . S
C316 H330 0.930 . S
C317 C315 1.387 . S
C317 C316 1.380 . S
C317 H331 0.930 . S
C318 O298 1.254 . S
C318 O299 1.268 1_455 S
C319 O303 1.284 1_455 S
C319 O306 1.250 . S
C320 Gd253 2.828 1_455 S
C320 O302 1.258 . S
C320 O307 1.252 . S
C320 C321 1.497 . S
C321 C320 1.497 . S
C321 C322 1.395 . S
C321 C323 1.380 . S
C322 C321 1.395 . S
C322 C325 1.398 . S
C322 H332 0.930 . S
C323 C321 1.380 . S
C323 C324 1.391 . S
C323 H333 0.930 . S
C324 C323 1.391 . S
C324 C326 1.387 . S
C325 C322 1.398 . S
C325 C326 1.380 . S
C325 H334 0.930 . S
C326 C324 1.387 . S
C326 C325 1.380 . S
C326 H335 0.930 . S
C327 O304 1.254 . S
C327 O305 1.268 . S
H328 C313 0.930 . S
H329 C314 0.930 . S
H330 C316 0.930 . S
H331 C317 0.930 . S
H332 C322 0.930 . S
H333 C323 0.930 . S
H334 C325 0.930 . S
H335 C326 0.930 . S
Gd336 N367 2.661 . S
Gd336 N373 2.601 . S
Gd336 O380 2.545 . S
Gd336 O381 2.606 . S
Gd336 O383 2.429 . S
Gd336 O384 2.545 . S
Gd336 O385 2.412 . S
Gd336 O387 2.362 . S
Gd336 O388 2.324 . S
Gd336 C395 2.828 . S
Gd337 N346 2.661 . S
Gd337 N350 2.601 . S
Gd337 O381 2.362 . S
Gd337 O382 2.324 1_545 S
Gd337 O386 2.545 1_545 S
Gd337 O387 2.606 . S
Gd337 O389 2.429 . S
Gd337 O390 2.545 1_545 S
Gd337 O391 2.412 1_545 S
Gd337 C404 2.828 1_545 S
C338 C341 1.417 . S
C338 C343 1.431 . S
C338 C344 1.412 . S
C339 C342 1.437 . S
C339 C343 1.317 . S
C339 H358 0.929 . S
C340 C341 1.426 . S
C340 C342 1.413 . S
C340 N350 1.359 . S
C341 C338 1.417 . S
C341 C340 1.426 . S
C341 N346 1.350 . S
C342 C339 1.437 . S
C342 C340 1.413 . S
C342 C352 1.391 . S
C343 C338 1.431 . S
C343 C339 1.317 . S
C343 H354 0.930 . S
C344 C338 1.412 . S
C344 C345 1.355 . S
C344 H356 0.930 . S
C345 C344 1.355 . S
C345 C347 1.402 . S
C345 H357 0.930 . S
N346 Gd337 2.661 . S
N346 C341 1.350 . S
N346 C347 1.307 . S
C347 C345 1.402 . S
C347 N346 1.307 . S
C347 H348 0.930 . S
H348 C347 0.930 . S
C349 N350 1.334 . S
C349 C351 1.394 . S
C349 H353 0.930 . S
N350 Gd337 2.601 . S
N350 C340 1.359 . S
N350 C349 1.334 . S
C351 C349 1.394 . S
C351 C352 1.359 . S
C351 H363 0.930 . S
C352 C342 1.391 . S
C352 C351 1.359 . S
C352 H364 0.929 . S
H353 C349 0.930 . S
H354 C343 0.930 . S
H355 C372 0.930 . S
H356 C344 0.930 . S
H357 C345 0.930 . S
H358 C339 0.929 . S
H359 C377 0.930 . S
H360 C368 0.930 . S
H361 C369 0.930 . S
H362 C393 0.929 . S
H363 C351 0.930 . S
H364 C352 0.929 . S
H365 C394 0.930 . S
H366 C375 0.930 . S
N367 Gd336 2.661 . S
N367 C371 1.350 . S
N367 C372 1.307 . S
C368 H360 0.930 . S
C368 C369 1.355 . S
C368 C370 1.412 . S
C369 H361 0.930 . S
C369 C368 1.355 . S
C369 C372 1.402 . S
C370 C368 1.412 . S
C370 C371 1.417 . S
C370 C394 1.431 1_545 S
C371 N367 1.350 . S
C371 C370 1.417 . S
C371 C374 1.426 . S
C372 H355 0.930 . S
C372 N367 1.307 . S
C372 C369 1.402 . S
N373 Gd336 2.601 . S
N373 C374 1.359 . S
N373 C377 1.334 . S
C374 C371 1.426 . S
C374 N373 1.359 . S
C374 C378 1.413 1_545 S
C375 H366 0.930 . S
C375 C376 1.359 . S
C375 C377 1.394 1_565 S
C376 C375 1.359 . S
C376 C378 1.391 . S
C376 H379 0.929 . S
C377 H359 0.930 . S
C377 N373 1.334 . S
C377 C375 1.394 1_545 S
C378 C374 1.413 1_565 S
C378 C376 1.391 . S
C378 C393 1.437 . S
H379 C376 0.929 . S
O380 Gd336 2.545 . S
O380 C395 1.258 . S
O381 Gd336 2.606 . S
O381 Gd337 2.362 . S
O381 C392 1.284 . S
O382 Gd337 2.324 1_565 S
O382 C402 1.254 . S
O383 Gd336 2.429 . S
O383 C402 1.268 1_545 S
O384 Gd336 2.545 . S
O384 C392 1.250 . S
O385 Gd336 2.412 . S
O385 C395 1.252 . S
O386 Gd337 2.545 1_565 S
O386 C404 1.258 . S
O387 Gd336 2.362 . S
O387 Gd337 2.606 . S
O387 C403 1.284 1_545 S
O388 Gd336 2.324 . S
O388 C411 1.254 . S
O389 Gd337 2.429 . S
O389 C411 1.268 . S
O390 Gd337 2.545 1_565 S
O390 C403 1.250 . S
O391 Gd337 2.412 1_565 S
O391 C404 1.252 . S
C392 O381 1.284 . S
C392 O384 1.250 . S
C393 H362 0.929 . S
C393 C378 1.437 . S
C393 C394 1.317 . S
C394 H365 0.930 . S
C394 C370 1.431 1_565 S
C394 C393 1.317 . S
C395 Gd336 2.828 . S
C395 O380 1.258 . S
C395 O385 1.252 . S
C395 C396 1.497 . S
C396 C395 1.497 . S
C396 C397 1.395 . S
C396 C398 1.380 . S
C397 C396 1.395 . S
C397 C400 1.398 . S
C397 H412 0.930 . S
C398 C396 1.380 . S
C398 C399 1.391 . S
C398 H413 0.930 . S
C399 C398 1.391 . S
C399 C401 1.387 . S
C400 C397 1.398 . S
C400 C401 1.380 . S
C400 H414 0.930 . S
C401 C399 1.387 . S
C401 C400 1.380 . S
C401 H415 0.930 . S
C402 O382 1.254 . S
C402 O383 1.268 1_565 S
C403 O387 1.284 1_565 S
C403 O390 1.250 . S
C404 Gd337 2.828 1_565 S
C404 O386 1.258 . S
C404 O391 1.252 . S
C404 C405 1.497 . S
C405 C404 1.497 . S
C405 C406 1.395 . S
C405 C407 1.380 . S
C406 C405 1.395 . S
C406 C409 1.398 . S
C406 H416 0.930 . S
C407 C405 1.380 . S
C407 C408 1.391 . S
C407 H417 0.930 . S
C408 C407 1.391 . S
C408 C410 1.387 . S
C409 C406 1.398 . S
C409 C410 1.380 . S
C409 H418 0.930 . S
C410 C408 1.387 . S
C410 C409 1.380 . S
C410 H419 0.930 . S
C411 O388 1.254 . S
C411 O389 1.268 . S
H412 C397 0.930 . S
H413 C398 0.930 . S
H414 C400 0.930 . S
H415 C401 0.930 . S
H416 C406 0.930 . S
H417 C407 0.930 . S
H418 C409 0.930 . S
H419 C410 0.930 . S
Gd420 N451 2.661 . S
Gd420 N457 2.601 . S
Gd420 O464 2.545 . S
Gd420 O465 2.606 . S
Gd420 O467 2.429 . S
Gd420 O468 2.545 . S
Gd420 O469 2.412 . S
Gd420 O471 2.362 . S
Gd420 O472 2.324 . S
Gd420 C479 2.828 . S
Gd421 N430 2.661 . S
Gd421 N434 2.601 . S
Gd421 O465 2.362 . S
Gd421 O466 2.324 1_565 S
Gd421 O470 2.545 1_565 S
Gd421 O471 2.606 . S
Gd421 O473 2.429 . S
Gd421 O474 2.545 1_565 S
Gd421 O475 2.412 1_565 S
Gd421 C488 2.828 1_565 S
C422 C425 1.417 . S
C422 C427 1.431 . S
C422 C428 1.412 . S
C423 C426 1.437 . S
C423 C427 1.317 . S
C423 H442 0.929 . S
C424 C425 1.426 . S
C424 C426 1.413 . S
C424 N434 1.359 . S
C425 C422 1.417 . S
C425 C424 1.426 . S
C425 N430 1.350 . S
C426 C423 1.437 . S
C426 C424 1.413 . S
C426 C436 1.391 . S
C427 C422 1.431 . S
C427 C423 1.317 . S
C427 H438 0.930 . S
C428 C422 1.412 . S
C428 C429 1.355 . S
C428 H440 0.930 . S
C429 C428 1.355 . S
C429 C431 1.402 . S
C429 H441 0.930 . S
N430 Gd421 2.661 . S
N430 C425 1.350 . S
N430 C431 1.307 . S
C431 C429 1.402 . S
C431 N430 1.307 . S
C431 H432 0.930 . S
H432 C431 0.930 . S
C433 N434 1.334 . S
C433 C435 1.394 . S
C433 H437 0.930 . S
N434 Gd421 2.601 . S
N434 C424 1.359 . S
N434 C433 1.334 . S
C435 C433 1.394 . S
C435 C436 1.359 . S
C435 H447 0.930 . S
C436 C426 1.391 . S
C436 C435 1.359 . S
C436 H448 0.929 . S
H437 C433 0.930 . S
H438 C427 0.930 . S
H439 C456 0.930 . S
H440 C428 0.930 . S
H441 C429 0.930 . S
H442 C423 0.929 . S
H443 C461 0.930 . S
H444 C452 0.930 . S
H445 C453 0.930 . S
H446 C477 0.929 . S
H447 C435 0.930 . S
H448 C436 0.929 . S
H449 C478 0.930 . S
H450 C459 0.930 . S
N451 Gd420 2.661 . S
N451 C455 1.350 . S
N451 C456 1.307 . S
C452 H444 0.930 . S
C452 C453 1.355 . S
C452 C454 1.412 . S
C453 H445 0.930 . S
C453 C452 1.355 . S
C453 C456 1.402 . S
C454 C452 1.412 . S
C454 C455 1.417 . S
C454 C478 1.431 1_565 S
C455 N451 1.350 . S
C455 C454 1.417 . S
C455 C458 1.426 . S
C456 H439 0.930 . S
C456 N451 1.307 . S
C456 C453 1.402 . S
N457 Gd420 2.601 . S
N457 C458 1.359 . S
N457 C461 1.334 . S
C458 C455 1.426 . S
C458 N457 1.359 . S
C458 C462 1.413 1_565 S
C459 H450 0.930 . S
C459 C460 1.359 . S
C459 C461 1.394 1_545 S
C460 C459 1.359 . S
C460 C462 1.391 . S
C460 H463 0.929 . S
C461 H443 0.930 . S
C461 N457 1.334 . S
C461 C459 1.394 1_565 S
C462 C458 1.413 1_545 S
C462 C460 1.391 . S
C462 C477 1.437 . S
H463 C460 0.929 . S
O464 Gd420 2.545 . S
O464 C479 1.258 . S
O465 Gd420 2.606 . S
O465 Gd421 2.362 . S
O465 C476 1.284 . S
O466 Gd421 2.324 1_545 S
O466 C486 1.254 . S
O467 Gd420 2.429 . S
O467 C486 1.268 1_565 S
O468 Gd420 2.545 . S
O468 C476 1.250 . S
O469 Gd420 2.412 . S
O469 C479 1.252 . S
O470 Gd421 2.545 1_545 S
O470 C488 1.258 . S
O471 Gd420 2.362 . S
O471 Gd421 2.606 . S
O471 C487 1.284 1_565 S
O472 Gd420 2.324 . S
O472 C495 1.254 . S
O473 Gd421 2.429 . S
O473 C495 1.268 . S
O474 Gd421 2.545 1_545 S
O474 C487 1.250 . S
O475 Gd421 2.412 1_545 S
O475 C488 1.252 . S
C476 O465 1.284 . S
C476 O468 1.250 . S
C477 H446 0.929 . S
C477 C462 1.437 . S
C477 C478 1.317 . S
C478 H449 0.930 . S
C478 C454 1.431 1_545 S
C478 C477 1.317 . S
C479 Gd420 2.828 . S
C479 O464 1.258 . S
C479 O469 1.252 . S
C479 C480 1.497 . S
C480 C479 1.497 . S
C480 C481 1.395 . S
C480 C482 1.380 . S
C481 C480 1.395 . S
C481 C484 1.398 . S
C481 H496 0.930 . S
C482 C480 1.380 . S
C482 C483 1.391 . S
C482 H497 0.930 . S
C483 C482 1.391 . S
C483 C485 1.387 . S
C484 C481 1.398 . S
C484 C485 1.380 . S
C484 H498 0.930 . S
C485 C483 1.387 . S
C485 C484 1.380 . S
C485 H499 0.930 . S
C486 O466 1.254 . S
C486 O467 1.268 1_545 S
C487 O471 1.284 1_545 S
C487 O474 1.250 . S
C488 Gd421 2.828 1_545 S
C488 O470 1.258 . S
C488 O475 1.252 . S
C488 C489 1.497 . S
C489 C488 1.497 . S
C489 C490 1.395 . S
C489 C491 1.380 . S
C490 C489 1.395 . S
C490 C493 1.398 . S
C490 H500 0.930 . S
C491 C489 1.380 . S
C491 C492 1.391 . S
C491 H501 0.930 . S
C492 C491 1.391 . S
C492 C494 1.387 . S
C493 C490 1.398 . S
C493 C494 1.380 . S
C493 H502 0.930 . S
C494 C492 1.387 . S
C494 C493 1.380 . S
C494 H503 0.930 . S
C495 O472 1.254 . S
C495 O473 1.268 . S
H496 C481 0.930 . S
H497 C482 0.930 . S
H498 C484 0.930 . S
H499 C485 0.930 . S
H500 C490 0.930 . S
H501 C491 0.930 . S
H502 C493 0.930 . S
H503 C494 0.930 . S
Gd504 N535 2.661 . S
Gd504 N541 2.601 . S
Gd504 O548 2.545 . S
Gd504 O549 2.606 . S
Gd504 O551 2.429 . S
Gd504 O552 2.545 . S
Gd504 O553 2.412 . S
Gd504 O555 2.362 . S
Gd504 O556 2.324 . S
Gd504 C563 2.828 . S
Gd505 N514 2.661 . S
Gd505 N518 2.601 . S
Gd505 O549 2.362 . S
Gd505 O550 2.324 . S
Gd505 O554 2.545 . S
Gd505 O555 2.606 . S
Gd505 O557 2.429 . S
Gd505 O558 2.545 . S
Gd505 O559 2.412 . S
Gd505 C572 2.828 . S
C506 C509 1.417 . S
C506 C511 1.431 . S
C506 C512 1.412 . S
C507 C510 1.437 . S
C507 C511 1.317 . S
C507 H526 0.929 . S
C508 C509 1.426 . S
C508 C510 1.413 . S
C508 N518 1.359 . S
C509 C506 1.417 . S
C509 C508 1.426 . S
C509 N514 1.350 . S
C510 C507 1.437 . S
C510 C508 1.413 . S
C510 C520 1.391 . S
C511 C506 1.431 . S
C511 C507 1.317 . S
C511 H522 0.930 . S
C512 C506 1.412 . S
C512 C513 1.355 . S
C512 H524 0.930 . S
C513 C512 1.355 . S
C513 C515 1.402 . S
C513 H525 0.930 . S
N514 Gd505 2.661 . S
N514 C509 1.350 . S
N514 C515 1.307 . S
C515 C513 1.402 . S
C515 N514 1.307 . S
C515 H516 0.930 . S
H516 C515 0.930 . S
C517 N518 1.334 . S
C517 C519 1.394 . S
C517 H521 0.930 . S
N518 Gd505 2.601 . S
N518 C508 1.359 . S
N518 C517 1.334 . S
C519 C517 1.394 . S
C519 C520 1.359 . S
C519 H531 0.930 . S
C520 C510 1.391 . S
C520 C519 1.359 . S
C520 H532 0.929 . S
H521 C517 0.930 . S
H522 C511 0.930 . S
H523 C540 0.930 . S
H524 C512 0.930 . S
H525 C513 0.930 . S
H526 C507 0.929 . S
H527 C545 0.930 . S
H528 C536 0.930 . S
H529 C537 0.930 . S
H530 C561 0.929 . S
H531 C519 0.930 . S
H532 C520 0.929 . S
H533 C562 0.930 . S
H534 C543 0.930 . S
N535 Gd504 2.661 . S
N535 C539 1.350 . S
N535 C540 1.307 . S
C536 H528 0.930 . S
C536 C537 1.355 . S
C536 C538 1.412 . S
C537 H529 0.930 . S
C537 C536 1.355 . S
C537 C540 1.402 . S
C538 C536 1.412 . S
C538 C539 1.417 . S
C538 C562 1.431 . S
C539 N535 1.350 . S
C539 C538 1.417 . S
C539 C542 1.426 . S
C540 H523 0.930 . S
C540 N535 1.307 . S
C540 C537 1.402 . S
N541 Gd504 2.601 . S
N541 C542 1.359 . S
N541 C545 1.334 . S
C542 C539 1.426 . S
C542 N541 1.359 . S
C542 C546 1.413 . S
C543 H534 0.930 . S
C543 C544 1.359 . S
C543 C545 1.394 . S
C544 C543 1.359 . S
C544 C546 1.391 . S
C544 H547 0.929 . S
C545 H527 0.930 . S
C545 N541 1.334 . S
C545 C543 1.394 . S
C546 C542 1.413 . S
C546 C544 1.391 . S
C546 C561 1.437 . S
H547 C544 0.929 . S
O548 Gd504 2.545 . S
O548 C563 1.258 . S
O549 Gd504 2.606 . S
O549 Gd505 2.362 . S
O549 C560 1.284 . S
O550 Gd505 2.324 . S
O550 C570 1.254 . S
O551 Gd504 2.429 . S
O551 C570 1.268 . S
O552 Gd504 2.545 . S
O552 C560 1.250 . S
O553 Gd504 2.412 . S
O553 C563 1.252 . S
O554 Gd505 2.545 . S
O554 C572 1.258 . S
O555 Gd504 2.362 . S
O555 Gd505 2.606 . S
O555 C571 1.284 . S
O556 Gd504 2.324 . S
O556 C579 1.254 . S
O557 Gd505 2.429 . S
O557 C579 1.268 . S
O558 Gd505 2.545 . S
O558 C571 1.250 . S
O559 Gd505 2.412 . S
O559 C572 1.252 . S
C560 O549 1.284 . S
C560 O552 1.250 . S
C561 H530 0.929 . S
C561 C546 1.437 . S
C561 C562 1.317 . S
C562 H533 0.930 . S
C562 C538 1.431 . S
C562 C561 1.317 . S
C563 Gd504 2.828 . S
C563 O548 1.258 . S
C563 O553 1.252 . S
C563 C564 1.497 . S
C564 C563 1.497 . S
C564 C565 1.395 . S
C564 C566 1.380 . S
C565 C564 1.395 . S
C565 C568 1.398 . S
C565 H580 0.930 . S
C566 C564 1.380 . S
C566 C567 1.391 . S
C566 H581 0.930 . S
C567 C566 1.391 . S
C567 C569 1.387 . S
C568 C565 1.398 . S
C568 C569 1.380 . S
C568 H582 0.930 . S
C569 C567 1.387 . S
C569 C568 1.380 . S
C569 H583 0.930 . S
C570 O550 1.254 . S
C570 O551 1.268 . S
C571 O555 1.284 . S
C571 O558 1.250 . S
C572 Gd505 2.828 . S
C572 O554 1.258 . S
C572 O559 1.252 . S
C572 C573 1.497 . S
C573 C572 1.497 . S
C573 C574 1.395 . S
C573 C575 1.380 . S
C574 C573 1.395 . S
C574 C577 1.398 . S
C574 H584 0.930 . S
C575 C573 1.380 . S
C575 C576 1.391 . S
C575 H585 0.930 . S
C576 C575 1.391 . S
C576 C578 1.387 . S
C577 C574 1.398 . S
C577 C578 1.380 . S
C577 H586 0.930 . S
C578 C576 1.387 . S
C578 C577 1.380 . S
C578 H587 0.930 . S
C579 O556 1.254 . S
C579 O557 1.268 . S
H580 C565 0.930 . S
H581 C566 0.930 . S
H582 C568 0.930 . S
H583 C569 0.930 . S
H584 C574 0.930 . S
H585 C575 0.930 . S
H586 C577 0.930 . S
H587 C578 0.930 . S
Gd588 N619 2.661 . S
Gd588 N625 2.601 . S
Gd588 O632 2.545 . S
Gd588 O633 2.606 . S
Gd588 O635 2.429 . S
Gd588 O636 2.545 . S
Gd588 O637 2.412 . S
Gd588 O639 2.362 . S
Gd588 O640 2.324 . S
Gd588 C647 2.828 . S
Gd589 N598 2.661 . S
Gd589 N602 2.601 . S
Gd589 O633 2.362 . S
Gd589 O634 2.324 . S
Gd589 O638 2.545 . S
Gd589 O639 2.606 . S
Gd589 O641 2.429 . S
Gd589 O642 2.545 . S
Gd589 O643 2.412 . S
Gd589 C656 2.828 . S
C590 C593 1.417 . S
C590 C595 1.431 . S
C590 C596 1.412 . S
C591 C594 1.437 . S
C591 C595 1.317 . S
C591 H610 0.929 . S
C592 C593 1.426 . S
C592 C594 1.413 . S
C592 N602 1.359 . S
C593 C590 1.417 . S
C593 C592 1.426 . S
C593 N598 1.350 . S
C594 C591 1.437 . S
C594 C592 1.413 . S
C594 C604 1.391 . S
C595 C590 1.431 . S
C595 C591 1.317 . S
C595 H606 0.930 . S
C596 C590 1.412 . S
C596 C597 1.355 . S
C596 H608 0.930 . S
C597 C596 1.355 . S
C597 C599 1.402 . S
C597 H609 0.930 . S
N598 Gd589 2.661 . S
N598 C593 1.350 . S
N598 C599 1.307 . S
C599 C597 1.402 . S
C599 N598 1.307 . S
C599 H600 0.930 . S
H600 C599 0.930 . S
C601 N602 1.334 . S
C601 C603 1.394 . S
C601 H605 0.930 . S
N602 Gd589 2.601 . S
N602 C592 1.359 . S
N602 C601 1.334 . S
C603 C601 1.394 . S
C603 C604 1.359 . S
C603 H615 0.930 . S
C604 C594 1.391 . S
C604 C603 1.359 . S
C604 H616 0.929 . S
H605 C601 0.930 . S
H606 C595 0.930 . S
H607 C624 0.930 . S
H608 C596 0.930 . S
H609 C597 0.930 . S
H610 C591 0.929 . S
H611 C629 0.930 . S
H612 C620 0.930 . S
H613 C621 0.930 . S
H614 C645 0.929 . S
H615 C603 0.930 . S
H616 C604 0.929 . S
H617 C646 0.930 . S
H618 C627 0.930 . S
N619 Gd588 2.661 . S
N619 C623 1.350 . S
N619 C624 1.307 . S
C620 H612 0.930 . S
C620 C621 1.355 . S
C620 C622 1.412 . S
C621 H613 0.930 . S
C621 C620 1.355 . S
C621 C624 1.402 . S
C622 C620 1.412 . S
C622 C623 1.417 . S
C622 C646 1.431 . S
C623 N619 1.350 . S
C623 C622 1.417 . S
C623 C626 1.426 . S
C624 H607 0.930 . S
C624 N619 1.307 . S
C624 C621 1.402 . S
N625 Gd588 2.601 . S
N625 C626 1.359 . S
N625 C629 1.334 . S
C626 C623 1.426 . S
C626 N625 1.359 . S
C626 C630 1.413 . S
C627 H618 0.930 . S
C627 C628 1.359 . S
C627 C629 1.394 . S
C628 C627 1.359 . S
C628 C630 1.391 . S
C628 H631 0.929 . S
C629 H611 0.930 . S
C629 N625 1.334 . S
C629 C627 1.394 . S
C630 C626 1.413 . S
C630 C628 1.391 . S
C630 C645 1.437 . S
H631 C628 0.929 . S
O632 Gd588 2.545 . S
O632 C647 1.258 . S
O633 Gd588 2.606 . S
O633 Gd589 2.362 . S
O633 C644 1.284 . S
O634 Gd589 2.324 . S
O634 C654 1.254 . S
O635 Gd588 2.429 . S
O635 C654 1.268 . S
O636 Gd588 2.545 . S
O636 C644 1.250 . S
O637 Gd588 2.412 . S
O637 C647 1.252 . S
O638 Gd589 2.545 . S
O638 C656 1.258 . S
O639 Gd588 2.362 . S
O639 Gd589 2.606 . S
O639 C655 1.284 . S
O640 Gd588 2.324 . S
O640 C663 1.254 . S
O641 Gd589 2.429 . S
O641 C663 1.268 . S
O642 Gd589 2.545 . S
O642 C655 1.250 . S
O643 Gd589 2.412 . S
O643 C656 1.252 . S
C644 O633 1.284 . S
C644 O636 1.250 . S
C645 H614 0.929 . S
C645 C630 1.437 . S
C645 C646 1.317 . S
C646 H617 0.930 . S
C646 C622 1.431 . S
C646 C645 1.317 . S
C647 Gd588 2.828 . S
C647 O632 1.258 . S
C647 O637 1.252 . S
C647 C648 1.497 . S
C648 C647 1.497 . S
C648 C649 1.395 . S
C648 C650 1.380 . S
C649 C648 1.395 . S
C649 C652 1.398 . S
C649 H664 0.930 . S
C650 C648 1.380 . S
C650 C651 1.391 . S
C650 H665 0.930 . S
C651 C650 1.391 . S
C651 C653 1.387 . S
C652 C649 1.398 . S
C652 C653 1.380 . S
C652 H666 0.930 . S
C653 C651 1.387 . S
C653 C652 1.380 . S
C653 H667 0.930 . S
C654 O634 1.254 . S
C654 O635 1.268 . S
C655 O639 1.284 . S
C655 O642 1.250 . S
C656 Gd589 2.828 . S
C656 O638 1.258 . S
C656 O643 1.252 . S
C656 C657 1.497 . S
C657 C656 1.497 . S
C657 C658 1.395 . S
C657 C659 1.380 . S
C658 C657 1.395 . S
C658 C661 1.398 . S
C658 H668 0.930 . S
C659 C657 1.380 . S
C659 C660 1.391 . S
C659 H669 0.930 . S
C660 C659 1.391 . S
C660 C662 1.387 . S
C661 C658 1.398 . S
C661 C662 1.380 . S
C661 H670 0.930 . S
C662 C660 1.387 . S
C662 C661 1.380 . S
C662 H671 0.930 . S
C663 O640 1.254 . S
C663 O641 1.268 . S
H664 C649 0.930 . S
H665 C650 0.930 . S
H666 C652 0.930 . S
H667 C653 0.930 . S
H668 C658 0.930 . S
H669 C659 0.930 . S
H670 C661 0.930 . S
H671 C662 0.930 . S
Gd672 N703 2.661 . S
Gd672 N709 2.601 . S
Gd672 O716 2.545 . S
Gd672 O717 2.606 . S
Gd672 O719 2.429 . S
Gd672 O720 2.545 . S
Gd672 O721 2.412 . S
Gd672 O723 2.362 . S
Gd672 O724 2.324 . S
Gd672 C731 2.828 . S
Gd673 N682 2.661 . S
Gd673 N686 2.601 . S
Gd673 O717 2.362 . S
Gd673 O718 2.324 1_554 S
Gd673 O722 2.545 1_554 S
Gd673 O723 2.606 . S
Gd673 O725 2.429 . S
Gd673 O726 2.545 1_554 S
Gd673 O727 2.412 1_554 S
Gd673 C740 2.828 1_554 S
C674 C677 1.417 . S
C674 C679 1.431 . S
C674 C680 1.412 . S
C675 C678 1.437 . S
C675 C679 1.317 . S
C675 H694 0.929 . S
C676 C677 1.426 . S
C676 C678 1.413 . S
C676 N686 1.359 . S
C677 C674 1.417 . S
C677 C676 1.426 . S
C677 N682 1.350 . S
C678 C675 1.437 . S
C678 C676 1.413 . S
C678 C688 1.391 . S
C679 C674 1.431 . S
C679 C675 1.317 . S
C679 H690 0.930 . S
C680 C674 1.412 . S
C680 C681 1.355 . S
C680 H692 0.930 . S
C681 C680 1.355 . S
C681 C683 1.402 . S
C681 H693 0.930 . S
N682 Gd673 2.661 . S
N682 C677 1.350 . S
N682 C683 1.307 . S
C683 C681 1.402 . S
C683 N682 1.307 . S
C683 H684 0.930 . S
H684 C683 0.930 . S
C685 N686 1.334 . S
C685 C687 1.394 . S
C685 H689 0.930 . S
N686 Gd673 2.601 . S
N686 C676 1.359 . S
N686 C685 1.334 . S
C687 C685 1.394 . S
C687 C688 1.359 . S
C687 H699 0.930 . S
C688 C678 1.391 . S
C688 C687 1.359 . S
C688 H700 0.929 . S
H689 C685 0.930 . S
H690 C679 0.930 . S
H691 C708 0.930 . S
H692 C680 0.930 . S
H693 C681 0.930 . S
H694 C675 0.929 . S
H695 C713 0.930 . S
H696 C704 0.930 . S
H697 C705 0.930 . S
H698 C729 0.929 . S
H699 C687 0.930 . S
H700 C688 0.929 . S
H701 C730 0.930 . S
H702 C711 0.930 . S
N703 Gd672 2.661 . S
N703 C707 1.350 . S
N703 C708 1.307 . S
C704 H696 0.930 . S
C704 C705 1.355 . S
C704 C706 1.412 . S
C705 H697 0.930 . S
C705 C704 1.355 . S
C705 C708 1.402 . S
C706 C704 1.412 . S
C706 C707 1.417 . S
C706 C730 1.431 1_554 S
C707 N703 1.350 . S
C707 C706 1.417 . S
C707 C710 1.426 . S
C708 H691 0.930 . S
C708 N703 1.307 . S
C708 C705 1.402 . S
N709 Gd672 2.601 . S
N709 C710 1.359 . S
N709 C713 1.334 . S
C710 C707 1.426 . S
C710 N709 1.359 . S
C710 C714 1.413 1_554 S
C711 H702 0.930 . S
C711 C712 1.359 . S
C711 C713 1.394 1_556 S
C712 C711 1.359 . S
C712 C714 1.391 . S
C712 H715 0.929 . S
C713 H695 0.930 . S
C713 N709 1.334 . S
C713 C711 1.394 1_554 S
C714 C710 1.413 1_556 S
C714 C712 1.391 . S
C714 C729 1.437 . S
H715 C712 0.929 . S
O716 Gd672 2.545 . S
O716 C731 1.258 . S
O717 Gd672 2.606 . S
O717 Gd673 2.362 . S
O717 C728 1.284 . S
O718 Gd673 2.324 1_556 S
O718 C738 1.254 . S
O719 Gd672 2.429 . S
O719 C738 1.268 1_554 S
O720 Gd672 2.545 . S
O720 C728 1.250 . S
O721 Gd672 2.412 . S
O721 C731 1.252 . S
O722 Gd673 2.545 1_556 S
O722 C740 1.258 . S
O723 Gd672 2.362 . S
O723 Gd673 2.606 . S
O723 C739 1.284 1_554 S
O724 Gd672 2.324 . S
O724 C747 1.254 . S
O725 Gd673 2.429 . S
O725 C747 1.268 . S
O726 Gd673 2.545 1_556 S
O726 C739 1.250 . S
O727 Gd673 2.412 1_556 S
O727 C740 1.252 . S
C728 O717 1.284 . S
C728 O720 1.250 . S
C729 H698 0.929 . S
C729 C714 1.437 . S
C729 C730 1.317 . S
C730 H701 0.930 . S
C730 C706 1.431 1_556 S
C730 C729 1.317 . S
C731 Gd672 2.828 . S
C731 O716 1.258 . S
C731 O721 1.252 . S
C731 C732 1.497 . S
C732 C731 1.497 . S
C732 C733 1.395 . S
C732 C734 1.380 . S
C733 C732 1.395 . S
C733 C736 1.398 . S
C733 H748 0.930 . S
C734 C732 1.380 . S
C734 C735 1.391 . S
C734 H749 0.930 . S
C735 C734 1.391 . S
C735 C737 1.387 . S
C736 C733 1.398 . S
C736 C737 1.380 . S
C736 H750 0.930 . S
C737 C735 1.387 . S
C737 C736 1.380 . S
C737 H751 0.930 . S
C738 O718 1.254 . S
C738 O719 1.268 1_556 S
C739 O723 1.284 1_556 S
C739 O726 1.250 . S
C740 Gd673 2.828 1_556 S
C740 O722 1.258 . S
C740 O727 1.252 . S
C740 C741 1.497 . S
C741 C740 1.497 . S
C741 C742 1.395 . S
C741 C743 1.380 . S
C742 C741 1.395 . S
C742 C745 1.398 . S
C742 H752 0.930 . S
C743 C741 1.380 . S
C743 C744 1.391 . S
C743 H753 0.930 . S
C744 C743 1.391 . S
C744 C746 1.387 . S
C745 C742 1.398 . S
C745 C746 1.380 . S
C745 H754 0.930 . S
C746 C744 1.387 . S
C746 C745 1.380 . S
C746 H755 0.930 . S
C747 O724 1.254 . S
C747 O725 1.268 . S
H748 C733 0.930 . S
H749 C734 0.930 . S
H750 C736 0.930 . S
H751 C737 0.930 . S
H752 C742 0.930 . S
H753 C743 0.930 . S
H754 C745 0.930 . S
H755 C746 0.930 . S
Gd756 N787 2.661 . S
Gd756 N793 2.601 . S
Gd756 O800 2.545 . S
Gd756 O801 2.606 . S
Gd756 O803 2.429 . S
Gd756 O804 2.545 . S
Gd756 O805 2.412 . S
Gd756 O807 2.362 . S
Gd756 O808 2.324 . S
Gd756 C815 2.828 . S
Gd757 N766 2.661 . S
Gd757 N770 2.601 . S
Gd757 O801 2.362 . S
Gd757 O802 2.324 1_556 S
Gd757 O806 2.545 1_556 S
Gd757 O807 2.606 . S
Gd757 O809 2.429 . S
Gd757 O810 2.545 1_556 S
Gd757 O811 2.412 1_556 S
Gd757 C824 2.828 1_556 S
C758 C761 1.417 . S
C758 C763 1.431 . S
C758 C764 1.412 . S
C759 C762 1.437 . S
C759 C763 1.317 . S
C759 H778 0.929 . S
C760 C761 1.426 . S
C760 C762 1.413 . S
C760 N770 1.359 . S
C761 C758 1.417 . S
C761 C760 1.426 . S
C761 N766 1.350 . S
C762 C759 1.437 . S
C762 C760 1.413 . S
C762 C772 1.391 . S
C763 C758 1.431 . S
C763 C759 1.317 . S
C763 H774 0.930 . S
C764 C758 1.412 . S
C764 C765 1.355 . S
C764 H776 0.930 . S
C765 C764 1.355 . S
C765 C767 1.402 . S
C765 H777 0.930 . S
N766 Gd757 2.661 . S
N766 C761 1.350 . S
N766 C767 1.307 . S
C767 C765 1.402 . S
C767 N766 1.307 . S
C767 H768 0.930 . S
H768 C767 0.930 . S
C769 N770 1.334 . S
C769 C771 1.394 . S
C769 H773 0.930 . S
N770 Gd757 2.601 . S
N770 C760 1.359 . S
N770 C769 1.334 . S
C771 C769 1.394 . S
C771 C772 1.359 . S
C771 H783 0.930 . S
C772 C762 1.391 . S
C772 C771 1.359 . S
C772 H784 0.929 . S
H773 C769 0.930 . S
H774 C763 0.930 . S
H775 C792 0.930 . S
H776 C764 0.930 . S
H777 C765 0.930 . S
H778 C759 0.929 . S
H779 C797 0.930 . S
H780 C788 0.930 . S
H781 C789 0.930 . S
H782 C813 0.929 . S
H783 C771 0.930 . S
H784 C772 0.929 . S
H785 C814 0.930 . S
H786 C795 0.930 . S
N787 Gd756 2.661 . S
N787 C791 1.350 . S
N787 C792 1.307 . S
C788 H780 0.930 . S
C788 C789 1.355 . S
C788 C790 1.412 . S
C789 H781 0.930 . S
C789 C788 1.355 . S
C789 C792 1.402 . S
C790 C788 1.412 . S
C790 C791 1.417 . S
C790 C814 1.431 1_556 S
C791 N787 1.350 . S
C791 C790 1.417 . S
C791 C794 1.426 . S
C792 H775 0.930 . S
C792 N787 1.307 . S
C792 C789 1.402 . S
N793 Gd756 2.601 . S
N793 C794 1.359 . S
N793 C797 1.334 . S
C794 C791 1.426 . S
C794 N793 1.359 . S
C794 C798 1.413 1_556 S
C795 H786 0.930 . S
C795 C796 1.359 . S
C795 C797 1.394 1_554 S
C796 C795 1.359 . S
C796 C798 1.391 . S
C796 H799 0.929 . S
C797 H779 0.930 . S
C797 N793 1.334 . S
C797 C795 1.394 1_556 S
C798 C794 1.413 1_554 S
C798 C796 1.391 . S
C798 C813 1.437 . S
H799 C796 0.929 . S
O800 Gd756 2.545 . S
O800 C815 1.258 . S
O801 Gd756 2.606 . S
O801 Gd757 2.362 . S
O801 C812 1.284 . S
O802 Gd757 2.324 1_554 S
O802 C822 1.254 . S
O803 Gd756 2.429 . S
O803 C822 1.268 1_556 S
O804 Gd756 2.545 . S
O804 C812 1.250 . S
O805 Gd756 2.412 . S
O805 C815 1.252 . S
O806 Gd757 2.545 1_554 S
O806 C824 1.258 . S
O807 Gd756 2.362 . S
O807 Gd757 2.606 . S
O807 C823 1.284 1_556 S
O808 Gd756 2.324 . S
O808 C831 1.254 . S
O809 Gd757 2.429 . S
O809 C831 1.268 . S
O810 Gd757 2.545 1_554 S
O810 C823 1.250 . S
O811 Gd757 2.412 1_554 S
O811 C824 1.252 . S
C812 O801 1.284 . S
C812 O804 1.250 . S
C813 H782 0.929 . S
C813 C798 1.437 . S
C813 C814 1.317 . S
C814 H785 0.930 . S
C814 C790 1.431 1_554 S
C814 C813 1.317 . S
C815 Gd756 2.828 . S
C815 O800 1.258 . S
C815 O805 1.252 . S
C815 C816 1.497 . S
C816 C815 1.497 . S
C816 C817 1.395 . S
C816 C818 1.380 . S
C817 C816 1.395 . S
C817 C820 1.398 . S
C817 H832 0.930 . S
C818 C816 1.380 . S
C818 C819 1.391 . S
C818 H833 0.930 . S
C819 C818 1.391 . S
C819 C821 1.387 . S
C820 C817 1.398 . S
C820 C821 1.380 . S
C820 H834 0.930 . S
C821 C819 1.387 . S
C821 C820 1.380 . S
C821 H835 0.930 . S
C822 O802 1.254 . S
C822 O803 1.268 1_554 S
C823 O807 1.284 1_554 S
C823 O810 1.250 . S
C824 Gd757 2.828 1_554 S
C824 O806 1.258 . S
C824 O811 1.252 . S
C824 C825 1.497 . S
C825 C824 1.497 . S
C825 C826 1.395 . S
C825 C827 1.380 . S
C826 C825 1.395 . S
C826 C829 1.398 . S
C826 H836 0.930 . S
C827 C825 1.380 . S
C827 C828 1.391 . S
C827 H837 0.930 . S
C828 C827 1.391 . S
C828 C830 1.387 . S
C829 C826 1.398 . S
C829 C830 1.380 . S
C829 H838 0.930 . S
C830 C828 1.387 . S
C830 C829 1.380 . S
C830 H839 0.930 . S
C831 O808 1.254 . S
C831 O809 1.268 . S
H832 C817 0.930 . S
H833 C818 0.930 . S
H834 C820 0.930 . S
H835 C821 0.930 . S
H836 C826 0.930 . S
H837 C827 0.930 . S
H838 C829 0.930 . S
H839 C830 0.930 . S
Gd840 N871 2.661 . S
Gd840 N877 2.601 . S
Gd840 O884 2.545 . S
Gd840 O885 2.606 . S
Gd840 O887 2.429 . S
Gd840 O888 2.545 . S
Gd840 O889 2.412 . S
Gd840 O891 2.362 . S
Gd840 O892 2.324 . S
Gd840 C899 2.828 . S
Gd841 N850 2.661 . S
Gd841 N854 2.601 . S
Gd841 O885 2.362 . S
Gd841 O886 2.324 . S
Gd841 O890 2.545 . S
Gd841 O891 2.606 . S
Gd841 O893 2.429 . S
Gd841 O894 2.545 . S
Gd841 O895 2.412 . S
Gd841 C908 2.828 . S
C842 C845 1.417 . S
C842 C847 1.431 . S
C842 C848 1.412 . S
C843 C846 1.437 . S
C843 C847 1.317 . S
C843 H862 0.929 . S
C844 C845 1.426 . S
C844 C846 1.413 . S
C844 N854 1.359 . S
C845 C842 1.417 . S
C845 C844 1.426 . S
C845 N850 1.350 . S
C846 C843 1.437 . S
C846 C844 1.413 . S
C846 C856 1.391 . S
C847 C842 1.431 . S
C847 C843 1.317 . S
C847 H858 0.930 . S
C848 C842 1.412 . S
C848 C849 1.355 . S
C848 H860 0.930 . S
C849 C848 1.355 . S
C849 C851 1.402 . S
C849 H861 0.930 . S
N850 Gd841 2.661 . S
N850 C845 1.350 . S
N850 C851 1.307 . S
C851 C849 1.402 . S
C851 N850 1.307 . S
C851 H852 0.930 . S
H852 C851 0.930 . S
C853 N854 1.334 . S
C853 C855 1.394 . S
C853 H857 0.930 . S
N854 Gd841 2.601 . S
N854 C844 1.359 . S
N854 C853 1.334 . S
C855 C853 1.394 . S
C855 C856 1.359 . S
C855 H867 0.930 . S
C856 C846 1.391 . S
C856 C855 1.359 . S
C856 H868 0.929 . S
H857 C853 0.930 . S
H858 C847 0.930 . S
H859 C876 0.930 . S
H860 C848 0.930 . S
H861 C849 0.930 . S
H862 C843 0.929 . S
H863 C881 0.930 . S
H864 C872 0.930 . S
H865 C873 0.930 . S
H866 C897 0.929 . S
H867 C855 0.930 . S
H868 C856 0.929 . S
H869 C898 0.930 . S
H870 C879 0.930 . S
N871 Gd840 2.661 . S
N871 C875 1.350 . S
N871 C876 1.307 . S
C872 H864 0.930 . S
C872 C873 1.355 . S
C872 C874 1.412 . S
C873 H865 0.930 . S
C873 C872 1.355 . S
C873 C876 1.402 . S
C874 C872 1.412 . S
C874 C875 1.417 . S
C874 C898 1.431 . S
C875 N871 1.350 . S
C875 C874 1.417 . S
C875 C878 1.426 . S
C876 H859 0.930 . S
C876 N871 1.307 . S
C876 C873 1.402 . S
N877 Gd840 2.601 . S
N877 C878 1.359 . S
N877 C881 1.334 . S
C878 C875 1.426 . S
C878 N877 1.359 . S
C878 C882 1.413 . S
C879 H870 0.930 . S
C879 C880 1.359 . S
C879 C881 1.394 . S
C880 C879 1.359 . S
C880 C882 1.391 . S
C880 H883 0.929 . S
C881 H863 0.930 . S
C881 N877 1.334 . S
C881 C879 1.394 . S
C882 C878 1.413 . S
C882 C880 1.391 . S
C882 C897 1.437 . S
H883 C880 0.929 . S
O884 Gd840 2.545 . S
O884 C899 1.258 . S
O885 Gd840 2.606 . S
O885 Gd841 2.362 . S
O885 C896 1.284 . S
O886 Gd841 2.324 . S
O886 C906 1.254 . S
O887 Gd840 2.429 . S
O887 C906 1.268 . S
O888 Gd840 2.545 . S
O888 C896 1.250 . S
O889 Gd840 2.412 . S
O889 C899 1.252 . S
O890 Gd841 2.545 . S
O890 C908 1.258 . S
O891 Gd840 2.362 . S
O891 Gd841 2.606 . S
O891 C907 1.284 . S
O892 Gd840 2.324 . S
O892 C915 1.254 . S
O893 Gd841 2.429 . S
O893 C915 1.268 . S
O894 Gd841 2.545 . S
O894 C907 1.250 . S
O895 Gd841 2.412 . S
O895 C908 1.252 . S
C896 O885 1.284 . S
C896 O888 1.250 . S
C897 H866 0.929 . S
C897 C882 1.437 . S
C897 C898 1.317 . S
C898 H869 0.930 . S
C898 C874 1.431 . S
C898 C897 1.317 . S
C899 Gd840 2.828 . S
C899 O884 1.258 . S
C899 O889 1.252 . S
C899 C900 1.497 . S
C900 C899 1.497 . S
C900 C901 1.395 . S
C900 C902 1.380 . S
C901 C900 1.395 . S
C901 C904 1.398 . S
C901 H916 0.930 . S
C902 C900 1.380 . S
C902 C903 1.391 . S
C902 H917 0.930 . S
C903 C902 1.391 . S
C903 C905 1.387 . S
C904 C901 1.398 . S
C904 C905 1.380 . S
C904 H918 0.930 . S
C905 C903 1.387 . S
C905 C904 1.380 . S
C905 H919 0.930 . S
C906 O886 1.254 . S
C906 O887 1.268 . S
C907 O891 1.284 . S
C907 O894 1.250 . S
C908 Gd841 2.828 . S
C908 O890 1.258 . S
C908 O895 1.252 . S
C908 C909 1.497 . S
C909 C908 1.497 . S
C909 C910 1.395 . S
C909 C911 1.380 . S
C910 C909 1.395 . S
C910 C913 1.398 . S
C910 H920 0.930 . S
C911 C909 1.380 . S
C911 C912 1.391 . S
C911 H921 0.930 . S
C912 C911 1.391 . S
C912 C914 1.387 . S
C913 C910 1.398 . S
C913 C914 1.380 . S
C913 H922 0.930 . S
C914 C912 1.387 . S
C914 C913 1.380 . S
C914 H923 0.930 . S
C915 O892 1.254 . S
C915 O893 1.268 . S
H916 C901 0.930 . S
H917 C902 0.930 . S
H918 C904 0.930 . S
H919 C905 0.930 . S
H920 C910 0.930 . S
H921 C911 0.930 . S
H922 C913 0.930 . S
H923 C914 0.930 . S
Gd924 N955 2.661 . S
Gd924 N961 2.601 . S
Gd924 O968 2.545 . S
Gd924 O969 2.606 . S
Gd924 O971 2.429 . S
Gd924 O972 2.545 . S
Gd924 O973 2.412 . S
Gd924 O975 2.362 . S
Gd924 O976 2.324 . S
Gd924 C983 2.828 . S
Gd925 N934 2.661 . S
Gd925 N938 2.601 . S
Gd925 O969 2.362 . S
Gd925 O970 2.324 . S
Gd925 O974 2.545 . S
Gd925 O975 2.606 . S
Gd925 O977 2.429 . S
Gd925 O978 2.545 . S
Gd925 O979 2.412 . S
Gd925 C992 2.828 . S
C926 C929 1.417 . S
C926 C931 1.431 . S
C926 C932 1.412 . S
C927 C930 1.437 . S
C927 C931 1.317 . S
C927 H946 0.929 . S
C928 C929 1.426 . S
C928 C930 1.413 . S
C928 N938 1.359 . S
C929 C926 1.417 . S
C929 C928 1.426 . S
C929 N934 1.350 . S
C930 C927 1.437 . S
C930 C928 1.413 . S
C930 C940 1.391 . S
C931 C926 1.431 . S
C931 C927 1.317 . S
C931 H942 0.930 . S
C932 C926 1.412 . S
C932 C933 1.355 . S
C932 H944 0.930 . S
C933 C932 1.355 . S
C933 C935 1.402 . S
C933 H945 0.930 . S
N934 Gd925 2.661 . S
N934 C929 1.350 . S
N934 C935 1.307 . S
C935 C933 1.402 . S
C935 N934 1.307 . S
C935 H936 0.930 . S
H936 C935 0.930 . S
C937 N938 1.334 . S
C937 C939 1.394 . S
C937 H941 0.930 . S
N938 Gd925 2.601 . S
N938 C928 1.359 . S
N938 C937 1.334 . S
C939 C937 1.394 . S
C939 C940 1.359 . S
C939 H951 0.930 . S
C940 C930 1.391 . S
C940 C939 1.359 . S
C940 H952 0.929 . S
H941 C937 0.930 . S
H942 C931 0.930 . S
H943 C960 0.930 . S
H944 C932 0.930 . S
H945 C933 0.930 . S
H946 C927 0.929 . S
H947 C965 0.930 . S
H948 C956 0.930 . S
H949 C957 0.930 . S
H950 C981 0.929 . S
H951 C939 0.930 . S
H952 C940 0.929 . S
H953 C982 0.930 . S
H954 C963 0.930 . S
N955 Gd924 2.661 . S
N955 C959 1.350 . S
N955 C960 1.307 . S
C956 H948 0.930 . S
C956 C957 1.355 . S
C956 C958 1.412 . S
C957 H949 0.930 . S
C957 C956 1.355 . S
C957 C960 1.402 . S
C958 C956 1.412 . S
C958 C959 1.417 . S
C958 C982 1.431 . S
C959 N955 1.350 . S
C959 C958 1.417 . S
C959 C962 1.426 . S
C960 H943 0.930 . S
C960 N955 1.307 . S
C960 C957 1.402 . S
N961 Gd924 2.601 . S
N961 C962 1.359 . S
N961 C965 1.334 . S
C962 C959 1.426 . S
C962 N961 1.359 . S
C962 C966 1.413 . S
C963 H954 0.930 . S
C963 C964 1.359 . S
C963 C965 1.394 . S
C964 C963 1.359 . S
C964 C966 1.391 . S
C964 H967 0.929 . S
C965 H947 0.930 . S
C965 N961 1.334 . S
C965 C963 1.394 . S
C966 C962 1.413 . S
C966 C964 1.391 . S
C966 C981 1.437 . S
H967 C964 0.929 . S
O968 Gd924 2.545 . S
O968 C983 1.258 . S
O969 Gd924 2.606 . S
O969 Gd925 2.362 . S
O969 C980 1.284 . S
O970 Gd925 2.324 . S
O970 C990 1.254 . S
O971 Gd924 2.429 . S
O971 C990 1.268 . S
O972 Gd924 2.545 . S
O972 C980 1.250 . S
O973 Gd924 2.412 . S
O973 C983 1.252 . S
O974 Gd925 2.545 . S
O974 C992 1.258 . S
O975 Gd924 2.362 . S
O975 Gd925 2.606 . S
O975 C991 1.284 . S
O976 Gd924 2.324 . S
O976 C999 1.254 . S
O977 Gd925 2.429 . S
O977 C999 1.268 . S
O978 Gd925 2.545 . S
O978 C991 1.250 . S
O979 Gd925 2.412 . S
O979 C992 1.252 . S
C980 O969 1.284 . S
C980 O972 1.250 . S
C981 H950 0.929 . S
C981 C966 1.437 . S
C981 C982 1.317 . S
C982 H953 0.930 . S
C982 C958 1.431 . S
C982 C981 1.317 . S
C983 Gd924 2.828 . S
C983 O968 1.258 . S
C983 O973 1.252 . S
C983 C984 1.497 . S
C984 C983 1.497 . S
C984 C985 1.395 . S
C984 C986 1.380 . S
C985 C984 1.395 . S
C985 C988 1.398 . S
C985 H1000 0.930 . S
C986 C984 1.380 . S
C986 C987 1.391 . S
C986 H1001 0.930 . S
C987 C986 1.391 . S
C987 C989 1.387 . S
C988 C985 1.398 . S
C988 C989 1.380 . S
C988 H1002 0.930 . S
C989 C987 1.387 . S
C989 C988 1.380 . S
C989 H1003 0.930 . S
C990 O970 1.254 . S
C990 O971 1.268 . S
C991 O975 1.284 . S
C991 O978 1.250 . S
C992 Gd925 2.828 . S
C992 O974 1.258 . S
C992 O979 1.252 . S
C992 C993 1.497 . S
C993 C992 1.497 . S
C993 C994 1.395 . S
C993 C995 1.380 . S
C994 C993 1.395 . S
C994 C997 1.398 . S
C994 H1004 0.930 . S
C995 C993 1.380 . S
C995 C996 1.391 . S
C995 H1005 0.930 . S
C996 C995 1.391 . S
C996 C998 1.387 . S
C997 C994 1.398 . S
C997 C998 1.380 . S
C997 H1006 0.930 . S
C998 C996 1.387 . S
C998 C997 1.380 . S
C998 H1007 0.930 . S
C999 O976 1.254 . S
C999 O977 1.268 . S
H1000 C985 0.930 . S
H1001 C986 0.930 . S
H1002 C988 0.930 . S
H1003 C989 0.930 . S
H1004 C994 0.930 . S
H1005 C995 0.930 . S
H1006 C997 0.930 . S
H1007 C998 0.930 . S
Gd1008 N1039 2.661 . S
Gd1008 N1045 2.601 . S
Gd1008 O1052 2.545 1_655 S
Gd1008 O1053 2.606 . S
Gd1008 O1055 2.429 . S
Gd1008 O1056 2.545 1_655 S
Gd1008 O1057 2.412 1_655 S
Gd1008 O1059 2.362 . S
Gd1008 O1060 2.324 1_655 S
Gd1008 C1067 2.828 1_655 S
Gd1009 N1018 2.661 . S
Gd1009 N1022 2.601 . S
Gd1009 O1053 2.362 . S
Gd1009 O1054 2.324 . S
Gd1009 O1058 2.545 . S
Gd1009 O1059 2.606 . S
Gd1009 O1061 2.429 . S
Gd1009 O1062 2.545 . S
Gd1009 O1063 2.412 . S
Gd1009 C1076 2.828 . S
C1010 C1013 1.417 . S
C1010 C1015 1.431 1_655 S
C1010 C1016 1.412 . S
C1011 C1014 1.437 . S
C1011 C1015 1.317 . S
C1011 H1030 0.929 . S
C1012 C1013 1.426 . S
C1012 C1014 1.413 1_655 S
C1012 N1022 1.359 . S
C1013 C1010 1.417 . S
C1013 C1012 1.426 . S
C1013 N1018 1.350 . S
C1014 C1011 1.437 . S
C1014 C1012 1.413 1_455 S
C1014 C1024 1.391 . S
C1015 C1010 1.431 1_455 S
C1015 C1011 1.317 . S
C1015 H1026 0.930 . S
C1016 C1010 1.412 . S
C1016 C1017 1.355 . S
C1016 H1028 0.930 . S
C1017 C1016 1.355 . S
C1017 C1019 1.402 . S
C1017 H1029 0.930 . S
N1018 Gd1009 2.661 . S
N1018 C1013 1.350 . S
N1018 C1019 1.307 . S
C1019 C1017 1.402 . S
C1019 N1018 1.307 . S
C1019 H1020 0.930 . S
H1020 C1019 0.930 . S
C1021 N1022 1.334 . S
C1021 C1023 1.394 1_655 S
C1021 H1025 0.930 . S
N1022 Gd1009 2.601 . S
N1022 C1012 1.359 . S
N1022 C1021 1.334 . S
C1023 C1021 1.394 1_455 S
C1023 C1024 1.359 . S
C1023 H1035 0.930 . S
C1024 C1014 1.391 . S
C1024 C1023 1.359 . S
C1024 H1036 0.929 . S
H1025 C1021 0.930 . S
H1026 C1015 0.930 . S
H1027 C1044 0.930 . S
H1028 C1016 0.930 . S
H1029 C1017 0.930 . S
H1030 C1011 0.929 . S
H1031 C1049 0.930 . S
H1032 C1040 0.930 . S
H1033 C1041 0.930 . S
H1034 C1065 0.929 . S
H1035 C1023 0.930 . S
H1036 C1024 0.929 . S
H1037 C1066 0.930 . S
H1038 C1047 0.930 . S
N1039 Gd1008 2.661 . S
N1039 C1043 1.350 . S
N1039 C1044 1.307 . S
C1040 H1032 0.930 . S
C1040 C1041 1.355 . S
C1040 C1042 1.412 . S
C1041 H1033 0.930 . S
C1041 C1040 1.355 . S
C1041 C1044 1.402 . S
C1042 C1040 1.412 . S
C1042 C1043 1.417 . S
C1042 C1066 1.431 . S
C1043 N1039 1.350 . S
C1043 C1042 1.417 . S
C1043 C1046 1.426 . S
C1044 H1027 0.930 . S
C1044 N1039 1.307 . S
C1044 C1041 1.402 . S
N1045 Gd1008 2.601 . S
N1045 C1046 1.359 . S
N1045 C1049 1.334 . S
C1046 C1043 1.426 . S
C1046 N1045 1.359 . S
C1046 C1050 1.413 . S
C1047 H1038 0.930 . S
C1047 C1048 1.359 . S
C1047 C1049 1.394 . S
C1048 C1047 1.359 . S
C1048 C1050 1.391 . S
C1048 H1051 0.929 . S
C1049 H1031 0.930 . S
C1049 N1045 1.334 . S
C1049 C1047 1.394 . S
C1050 C1046 1.413 . S
C1050 C1048 1.391 . S
C1050 C1065 1.437 . S
H1051 C1048 0.929 . S
O1052 Gd1008 2.545 1_455 S
O1052 C1067 1.258 . S
O1053 Gd1008 2.606 . S
O1053 Gd1009 2.362 . S
O1053 C1064 1.284 1_655 S
O1054 Gd1009 2.324 . S
O1054 C1074 1.254 . S
O1055 Gd1008 2.429 . S
O1055 C1074 1.268 . S
O1056 Gd1008 2.545 1_455 S
O1056 C1064 1.250 . S
O1057 Gd1008 2.412 1_455 S
O1057 C1067 1.252 . S
O1058 Gd1009 2.545 . S
O1058 C1076 1.258 . S
O1059 Gd1008 2.362 . S
O1059 Gd1009 2.606 . S
O1059 C1075 1.284 . S
O1060 Gd1008 2.324 1_455 S
O1060 C1083 1.254 . S
O1061 Gd1009 2.429 . S
O1061 C1083 1.268 1_655 S
O1062 Gd1009 2.545 . S
O1062 C1075 1.250 . S
O1063 Gd1009 2.412 . S
O1063 C1076 1.252 . S
C1064 O1053 1.284 1_455 S
C1064 O1056 1.250 . S
C1065 H1034 0.929 . S
C1065 C1050 1.437 . S
C1065 C1066 1.317 . S
C1066 H1037 0.930 . S
C1066 C1042 1.431 . S
C1066 C1065 1.317 . S
C1067 Gd1008 2.828 1_455 S
C1067 O1052 1.258 . S
C1067 O1057 1.252 . S
C1067 C1068 1.497 . S
C1068 C1067 1.497 . S
C1068 C1069 1.395 . S
C1068 C1070 1.380 . S
C1069 C1068 1.395 . S
C1069 C1072 1.398 . S
C1069 H1084 0.930 . S
C1070 C1068 1.380 . S
C1070 C1071 1.391 . S
C1070 H1085 0.930 . S
C1071 C1070 1.391 . S
C1071 C1073 1.387 . S
C1072 C1069 1.398 . S
C1072 C1073 1.380 . S
C1072 H1086 0.930 . S
C1073 C1071 1.387 . S
C1073 C1072 1.380 . S
C1073 H1087 0.930 . S
C1074 O1054 1.254 . S
C1074 O1055 1.268 . S
C1075 O1059 1.284 . S
C1075 O1062 1.250 . S
C1076 Gd1009 2.828 . S
C1076 O1058 1.258 . S
C1076 O1063 1.252 . S
C1076 C1077 1.497 . S
C1077 C1076 1.497 . S
C1077 C1078 1.395 . S
C1077 C1079 1.380 . S
C1078 C1077 1.395 . S
C1078 C1081 1.398 . S
C1078 H1088 0.930 . S
C1079 C1077 1.380 . S
C1079 C1080 1.391 . S
C1079 H1089 0.930 . S
C1080 C1079 1.391 . S
C1080 C1082 1.387 . S
C1081 C1078 1.398 . S
C1081 C1082 1.380 . S
C1081 H1090 0.930 . S
C1082 C1080 1.387 . S
C1082 C1081 1.380 . S
C1082 H1091 0.930 . S
C1083 O1060 1.254 . S
C1083 O1061 1.268 1_455 S
H1084 C1069 0.930 . S
H1085 C1070 0.930 . S
H1086 C1072 0.930 . S
H1087 C1073 0.930 . S
H1088 C1078 0.930 . S
H1089 C1079 0.930 . S
H1090 C1081 0.930 . S
H1091 C1082 0.930 . S
Gd1092 N1123 2.661 . S
Gd1092 N1129 2.601 . S
Gd1092 O1136 2.545 . S
Gd1092 O1137 2.606 . S
Gd1092 O1139 2.429 . S
Gd1092 O1140 2.545 . S
Gd1092 O1141 2.412 . S
Gd1092 O1143 2.362 . S
Gd1092 O1144 2.324 . S
Gd1092 C1151 2.828 . S
Gd1093 N1102 2.661 . S
Gd1093 N1106 2.601 . S
Gd1093 O1137 2.362 . S
Gd1093 O1138 2.324 . S
Gd1093 O1142 2.545 . S
Gd1093 O1143 2.606 . S
Gd1093 O1145 2.429 . S
Gd1093 O1146 2.545 . S
Gd1093 O1147 2.412 . S
Gd1093 C1160 2.828 . S
C1094 C1097 1.417 . S
C1094 C1099 1.431 . S
C1094 C1100 1.412 . S
C1095 C1098 1.437 . S
C1095 C1099 1.317 . S
C1095 H1114 0.929 . S
C1096 C1097 1.426 . S
C1096 C1098 1.413 . S
C1096 N1106 1.359 . S
C1097 C1094 1.417 . S
C1097 C1096 1.426 . S
C1097 N1102 1.350 . S
C1098 C1095 1.437 . S
C1098 C1096 1.413 . S
C1098 C1108 1.391 . S
C1099 C1094 1.431 . S
C1099 C1095 1.317 . S
C1099 H1110 0.930 . S
C1100 C1094 1.412 . S
C1100 C1101 1.355 . S
C1100 H1112 0.930 . S
C1101 C1100 1.355 . S
C1101 C1103 1.402 . S
C1101 H1113 0.930 . S
N1102 Gd1093 2.661 . S
N1102 C1097 1.350 . S
N1102 C1103 1.307 . S
C1103 C1101 1.402 . S
C1103 N1102 1.307 . S
C1103 H1104 0.930 . S
H1104 C1103 0.930 . S
C1105 N1106 1.334 . S
C1105 C1107 1.394 . S
C1105 H1109 0.930 . S
N1106 Gd1093 2.601 . S
N1106 C1096 1.359 . S
N1106 C1105 1.334 . S
C1107 C1105 1.394 . S
C1107 C1108 1.359 . S
C1107 H1119 0.930 . S
C1108 C1098 1.391 . S
C1108 C1107 1.359 . S
C1108 H1120 0.929 . S
H1109 C1105 0.930 . S
H1110 C1099 0.930 . S
H1111 C1128 0.930 . S
H1112 C1100 0.930 . S
H1113 C1101 0.930 . S
H1114 C1095 0.929 . S
H1115 C1133 0.930 . S
H1116 C1124 0.930 . S
H1117 C1125 0.930 . S
H1118 C1149 0.929 . S
H1119 C1107 0.930 . S
H1120 C1108 0.929 . S
H1121 C1150 0.930 . S
H1122 C1131 0.930 . S
N1123 Gd1092 2.661 . S
N1123 C1127 1.350 . S
N1123 C1128 1.307 . S
C1124 H1116 0.930 . S
C1124 C1125 1.355 . S
C1124 C1126 1.412 . S
C1125 H1117 0.930 . S
C1125 C1124 1.355 . S
C1125 C1128 1.402 . S
C1126 C1124 1.412 . S
C1126 C1127 1.417 . S
C1126 C1150 1.431 . S
C1127 N1123 1.350 . S
C1127 C1126 1.417 . S
C1127 C1130 1.426 . S
C1128 H1111 0.930 . S
C1128 N1123 1.307 . S
C1128 C1125 1.402 . S
N1129 Gd1092 2.601 . S
N1129 C1130 1.359 . S
N1129 C1133 1.334 . S
C1130 C1127 1.426 . S
C1130 N1129 1.359 . S
C1130 C1134 1.413 . S
C1131 H1122 0.930 . S
C1131 C1132 1.359 . S
C1131 C1133 1.394 . S
C1132 C1131 1.359 . S
C1132 C1134 1.391 . S
C1132 H1135 0.929 . S
C1133 H1115 0.930 . S
C1133 N1129 1.334 . S
C1133 C1131 1.394 . S
C1134 C1130 1.413 . S
C1134 C1132 1.391 . S
C1134 C1149 1.437 . S
H1135 C1132 0.929 . S
O1136 Gd1092 2.545 . S
O1136 C1151 1.258 . S
O1137 Gd1092 2.606 . S
O1137 Gd1093 2.362 . S
O1137 C1148 1.284 . S
O1138 Gd1093 2.324 . S
O1138 C1158 1.254 . S
O1139 Gd1092 2.429 . S
O1139 C1158 1.268 . S
O1140 Gd1092 2.545 . S
O1140 C1148 1.250 . S
O1141 Gd1092 2.412 . S
O1141 C1151 1.252 . S
O1142 Gd1093 2.545 . S
O1142 C1160 1.258 . S
O1143 Gd1092 2.362 . S
O1143 Gd1093 2.606 . S
O1143 C1159 1.284 . S
O1144 Gd1092 2.324 . S
O1144 C1167 1.254 . S
O1145 Gd1093 2.429 . S
O1145 C1167 1.268 . S
O1146 Gd1093 2.545 . S
O1146 C1159 1.250 . S
O1147 Gd1093 2.412 . S
O1147 C1160 1.252 . S
C1148 O1137 1.284 . S
C1148 O1140 1.250 . S
C1149 H1118 0.929 . S
C1149 C1134 1.437 . S
C1149 C1150 1.317 . S
C1150 H1121 0.930 . S
C1150 C1126 1.431 . S
C1150 C1149 1.317 . S
C1151 Gd1092 2.828 . S
C1151 O1136 1.258 . S
C1151 O1141 1.252 . S
C1151 C1152 1.497 . S
C1152 C1151 1.497 . S
C1152 C1153 1.395 . S
C1152 C1154 1.380 . S
C1153 C1152 1.395 . S
C1153 C1156 1.398 . S
C1153 H1168 0.930 . S
C1154 C1152 1.380 . S
C1154 C1155 1.391 . S
C1154 H1169 0.930 . S
C1155 C1154 1.391 . S
C1155 C1157 1.387 . S
C1156 C1153 1.398 . S
C1156 C1157 1.380 . S
C1156 H1170 0.930 . S
C1157 C1155 1.387 . S
C1157 C1156 1.380 . S
C1157 H1171 0.930 . S
C1158 O1138 1.254 . S
C1158 O1139 1.268 . S
C1159 O1143 1.284 . S
C1159 O1146 1.250 . S
C1160 Gd1093 2.828 . S
C1160 O1142 1.258 . S
C1160 O1147 1.252 . S
C1160 C1161 1.497 . S
C1161 C1160 1.497 . S
C1161 C1162 1.395 . S
C1161 C1163 1.380 . S
C1162 C1161 1.395 . S
C1162 C1165 1.398 . S
C1162 H1172 0.930 . S
C1163 C1161 1.380 . S
C1163 C1164 1.391 . S
C1163 H1173 0.930 . S
C1164 C1163 1.391 . S
C1164 C1166 1.387 . S
C1165 C1162 1.398 . S
C1165 C1166 1.380 . S
C1165 H1174 0.930 . S
C1166 C1164 1.387 . S
C1166 C1165 1.380 . S
C1166 H1175 0.930 . S
C1167 O1144 1.254 . S
C1167 O1145 1.268 . S
H1168 C1153 0.930 . S
H1169 C1154 0.930 . S
H1170 C1156 0.930 . S
H1171 C1157 0.930 . S
H1172 C1162 0.930 . S
H1173 C1163 0.930 . S
H1174 C1165 0.930 . S
H1175 C1166 0.930 . S
Gd1176 N1207 2.661 . S
Gd1176 N1213 2.601 . S
Gd1176 O1220 2.545 . S
Gd1176 O1221 2.606 . S
Gd1176 O1223 2.429 . S
Gd1176 O1224 2.545 . S
Gd1176 O1225 2.412 . S
Gd1176 O1227 2.362 . S
Gd1176 O1228 2.324 . S
Gd1176 C1235 2.828 . S
Gd1177 N1186 2.661 . S
Gd1177 N1190 2.601 . S
Gd1177 O1221 2.362 . S
Gd1177 O1222 2.324 . S
Gd1177 O1226 2.545 . S
Gd1177 O1227 2.606 . S
Gd1177 O1229 2.429 . S
Gd1177 O1230 2.545 . S
Gd1177 O1231 2.412 . S
Gd1177 C1244 2.828 . S
C1178 C1181 1.417 . S
C1178 C1183 1.431 . S
C1178 C1184 1.412 . S
C1179 C1182 1.437 . S
C1179 C1183 1.317 . S
C1179 H1198 0.929 . S
C1180 C1181 1.426 . S
C1180 C1182 1.413 . S
C1180 N1190 1.359 . S
C1181 C1178 1.417 . S
C1181 C1180 1.426 . S
C1181 N1186 1.350 . S
C1182 C1179 1.437 . S
C1182 C1180 1.413 . S
C1182 C1192 1.391 . S
C1183 C1178 1.431 . S
C1183 C1179 1.317 . S
C1183 H1194 0.930 . S
C1184 C1178 1.412 . S
C1184 C1185 1.355 . S
C1184 H1196 0.930 . S
C1185 C1184 1.355 . S
C1185 C1187 1.402 . S
C1185 H1197 0.930 . S
N1186 Gd1177 2.661 . S
N1186 C1181 1.350 . S
N1186 C1187 1.307 . S
C1187 C1185 1.402 . S
C1187 N1186 1.307 . S
C1187 H1188 0.930 . S
H1188 C1187 0.930 . S
C1189 N1190 1.334 . S
C1189 C1191 1.394 . S
C1189 H1193 0.930 . S
N1190 Gd1177 2.601 . S
N1190 C1180 1.359 . S
N1190 C1189 1.334 . S
C1191 C1189 1.394 . S
C1191 C1192 1.359 . S
C1191 H1203 0.930 . S
C1192 C1182 1.391 . S
C1192 C1191 1.359 . S
C1192 H1204 0.929 . S
H1193 C1189 0.930 . S
H1194 C1183 0.930 . S
H1195 C1212 0.930 . S
H1196 C1184 0.930 . S
H1197 C1185 0.930 . S
H1198 C1179 0.929 . S
H1199 C1217 0.930 . S
H1200 C1208 0.930 . S
H1201 C1209 0.930 . S
H1202 C1233 0.929 . S
H1203 C1191 0.930 . S
H1204 C1192 0.929 . S
H1205 C1234 0.930 . S
H1206 C1215 0.930 . S
N1207 Gd1176 2.661 . S
N1207 C1211 1.350 . S
N1207 C1212 1.307 . S
C1208 H1200 0.930 . S
C1208 C1209 1.355 . S
C1208 C1210 1.412 . S
C1209 H1201 0.930 . S
C1209 C1208 1.355 . S
C1209 C1212 1.402 . S
C1210 C1208 1.412 . S
C1210 C1211 1.417 . S
C1210 C1234 1.431 . S
C1211 N1207 1.350 . S
C1211 C1210 1.417 . S
C1211 C1214 1.426 . S
C1212 H1195 0.930 . S
C1212 N1207 1.307 . S
C1212 C1209 1.402 . S
N1213 Gd1176 2.601 . S
N1213 C1214 1.359 . S
N1213 C1217 1.334 . S
C1214 C1211 1.426 . S
C1214 N1213 1.359 . S
C1214 C1218 1.413 . S
C1215 H1206 0.930 . S
C1215 C1216 1.359 . S
C1215 C1217 1.394 . S
C1216 C1215 1.359 . S
C1216 C1218 1.391 . S
C1216 H1219 0.929 . S
C1217 H1199 0.930 . S
C1217 N1213 1.334 . S
C1217 C1215 1.394 . S
C1218 C1214 1.413 . S
C1218 C1216 1.391 . S
C1218 C1233 1.437 . S
H1219 C1216 0.929 . S
O1220 Gd1176 2.545 . S
O1220 C1235 1.258 . S
O1221 Gd1176 2.606 . S
O1221 Gd1177 2.362 . S
O1221 C1232 1.284 . S
O1222 Gd1177 2.324 . S
O1222 C1242 1.254 . S
O1223 Gd1176 2.429 . S
O1223 C1242 1.268 . S
O1224 Gd1176 2.545 . S
O1224 C1232 1.250 . S
O1225 Gd1176 2.412 . S
O1225 C1235 1.252 . S
O1226 Gd1177 2.545 . S
O1226 C1244 1.258 . S
O1227 Gd1176 2.362 . S
O1227 Gd1177 2.606 . S
O1227 C1243 1.284 . S
O1228 Gd1176 2.324 . S
O1228 C1251 1.254 . S
O1229 Gd1177 2.429 . S
O1229 C1251 1.268 . S
O1230 Gd1177 2.545 . S
O1230 C1243 1.250 . S
O1231 Gd1177 2.412 . S
O1231 C1244 1.252 . S
C1232 O1221 1.284 . S
C1232 O1224 1.250 . S
C1233 H1202 0.929 . S
C1233 C1218 1.437 . S
C1233 C1234 1.317 . S
C1234 H1205 0.930 . S
C1234 C1210 1.431 . S
C1234 C1233 1.317 . S
C1235 Gd1176 2.828 . S
C1235 O1220 1.258 . S
C1235 O1225 1.252 . S
C1235 C1236 1.497 . S
C1236 C1235 1.497 . S
C1236 C1237 1.395 . S
C1236 C1238 1.380 . S
C1237 C1236 1.395 . S
C1237 C1240 1.398 . S
C1237 H1252 0.930 . S
C1238 C1236 1.380 . S
C1238 C1239 1.391 . S
C1238 H1253 0.930 . S
C1239 C1238 1.391 . S
C1239 C1241 1.387 . S
C1240 C1237 1.398 . S
C1240 C1241 1.380 . S
C1240 H1254 0.930 . S
C1241 C1239 1.387 . S
C1241 C1240 1.380 . S
C1241 H1255 0.930 . S
C1242 O1222 1.254 . S
C1242 O1223 1.268 . S
C1243 O1227 1.284 . S
C1243 O1230 1.250 . S
C1244 Gd1177 2.828 . S
C1244 O1226 1.258 . S
C1244 O1231 1.252 . S
C1244 C1245 1.497 . S
C1245 C1244 1.497 . S
C1245 C1246 1.395 . S
C1245 C1247 1.380 . S
C1246 C1245 1.395 . S
C1246 C1249 1.398 . S
C1246 H1256 0.930 . S
C1247 C1245 1.380 . S
C1247 C1248 1.391 . S
C1247 H1257 0.930 . S
C1248 C1247 1.391 . S
C1248 C1250 1.387 . S
C1249 C1246 1.398 . S
C1249 C1250 1.380 . S
C1249 H1258 0.930 . S
C1250 C1248 1.387 . S
C1250 C1249 1.380 . S
C1250 H1259 0.930 . S
C1251 O1228 1.254 . S
C1251 O1229 1.268 . S
H1252 C1237 0.930 . S
H1253 C1238 0.930 . S
H1254 C1240 0.930 . S
H1255 C1241 0.930 . S
H1256 C1246 0.930 . S
H1257 C1247 0.930 . S
H1258 C1249 0.930 . S
H1259 C1250 0.930 . S
Gd1260 N1291 2.661 . S
Gd1260 N1297 2.601 . S
Gd1260 O1304 2.545 1_455 S
Gd1260 O1305 2.606 . S
Gd1260 O1307 2.429 . S
Gd1260 O1308 2.545 1_455 S
Gd1260 O1309 2.412 1_455 S
Gd1260 O1311 2.362 . S
Gd1260 O1312 2.324 1_455 S
Gd1260 C1319 2.828 1_455 S
Gd1261 N1270 2.661 . S
Gd1261 N1274 2.601 . S
Gd1261 O1305 2.362 . S
Gd1261 O1306 2.324 . S
Gd1261 O1310 2.545 . S
Gd1261 O1311 2.606 . S
Gd1261 O1313 2.429 . S
Gd1261 O1314 2.545 . S
Gd1261 O1315 2.412 . S
Gd1261 C1328 2.828 . S
C1262 C1265 1.417 . S
C1262 C1267 1.431 1_455 S
C1262 C1268 1.412 . S
C1263 C1266 1.437 . S
C1263 C1267 1.317 . S
C1263 H1282 0.929 . S
C1264 C1265 1.426 . S
C1264 C1266 1.413 1_455 S
C1264 N1274 1.359 . S
C1265 C1262 1.417 . S
C1265 C1264 1.426 . S
C1265 N1270 1.350 . S
C1266 C1263 1.437 . S
C1266 C1264 1.413 1_655 S
C1266 C1276 1.391 . S
C1267 C1262 1.431 1_655 S
C1267 C1263 1.317 . S
C1267 H1278 0.930 . S
C1268 C1262 1.412 . S
C1268 C1269 1.355 . S
C1268 H1280 0.930 . S
C1269 C1268 1.355 . S
C1269 C1271 1.402 . S
C1269 H1281 0.930 . S
N1270 Gd1261 2.661 . S
N1270 C1265 1.350 . S
N1270 C1271 1.307 . S
C1271 C1269 1.402 . S
C1271 N1270 1.307 . S
C1271 H1272 0.930 . S
H1272 C1271 0.930 . S
C1273 N1274 1.334 . S
C1273 C1275 1.394 1_455 S
C1273 H1277 0.930 . S
N1274 Gd1261 2.601 . S
N1274 C1264 1.359 . S
N1274 C1273 1.334 . S
C1275 C1273 1.394 1_655 S
C1275 C1276 1.359 . S
C1275 H1287 0.930 . S
C1276 C1266 1.391 . S
C1276 C1275 1.359 . S
C1276 H1288 0.929 . S
H1277 C1273 0.930 . S
H1278 C1267 0.930 . S
H1279 C1296 0.930 . S
H1280 C1268 0.930 . S
H1281 C1269 0.930 . S
H1282 C1263 0.929 . S
H1283 C1301 0.930 . S
H1284 C1292 0.930 . S
H1285 C1293 0.930 . S
H1286 C1317 0.929 . S
H1287 C1275 0.930 . S
H1288 C1276 0.929 . S
H1289 C1318 0.930 . S
H1290 C1299 0.930 . S
N1291 Gd1260 2.661 . S
N1291 C1295 1.350 . S
N1291 C1296 1.307 . S
C1292 H1284 0.930 . S
C1292 C1293 1.355 . S
C1292 C1294 1.412 . S
C1293 H1285 0.930 . S
C1293 C1292 1.355 . S
C1293 C1296 1.402 . S
C1294 C1292 1.412 . S
C1294 C1295 1.417 . S
C1294 C1318 1.431 . S
C1295 N1291 1.350 . S
C1295 C1294 1.417 . S
C1295 C1298 1.426 . S
C1296 H1279 0.930 . S
C1296 N1291 1.307 . S
C1296 C1293 1.402 . S
N1297 Gd1260 2.601 . S
N1297 C1298 1.359 . S
N1297 C1301 1.334 . S
C1298 C1295 1.426 . S
C1298 N1297 1.359 . S
C1298 C1302 1.413 . S
C1299 H1290 0.930 . S
C1299 C1300 1.359 . S
C1299 C1301 1.394 . S
C1300 C1299 1.359 . S
C1300 C1302 1.391 . S
C1300 H1303 0.929 . S
C1301 H1283 0.930 . S
C1301 N1297 1.334 . S
C1301 C1299 1.394 . S
C1302 C1298 1.413 . S
C1302 C1300 1.391 . S
C1302 C1317 1.437 . S
H1303 C1300 0.929 . S
O1304 Gd1260 2.545 1_655 S
O1304 C1319 1.258 . S
O1305 Gd1260 2.606 . S
O1305 Gd1261 2.362 . S
O1305 C1316 1.284 1_455 S
O1306 Gd1261 2.324 . S
O1306 C1326 1.254 . S
O1307 Gd1260 2.429 . S
O1307 C1326 1.268 . S
O1308 Gd1260 2.545 1_655 S
O1308 C1316 1.250 . S
O1309 Gd1260 2.412 1_655 S
O1309 C1319 1.252 . S
O1310 Gd1261 2.545 . S
O1310 C1328 1.258 . S
O1311 Gd1260 2.362 . S
O1311 Gd1261 2.606 . S
O1311 C1327 1.284 . S
O1312 Gd1260 2.324 1_655 S
O1312 C1335 1.254 . S
O1313 Gd1261 2.429 . S
O1313 C1335 1.268 1_455 S
O1314 Gd1261 2.545 . S
O1314 C1327 1.250 . S
O1315 Gd1261 2.412 . S
O1315 C1328 1.252 . S
C1316 O1305 1.284 1_655 S
C1316 O1308 1.250 . S
C1317 H1286 0.929 . S
C1317 C1302 1.437 . S
C1317 C1318 1.317 . S
C1318 H1289 0.930 . S
C1318 C1294 1.431 . S
C1318 C1317 1.317 . S
C1319 Gd1260 2.828 1_655 S
C1319 O1304 1.258 . S
C1319 O1309 1.252 . S
C1319 C1320 1.497 . S
C1320 C1319 1.497 . S
C1320 C1321 1.395 . S
C1320 C1322 1.380 . S
C1321 C1320 1.395 . S
C1321 C1324 1.398 . S
C1321 H1336 0.930 . S
C1322 C1320 1.380 . S
C1322 C1323 1.391 . S
C1322 H1337 0.930 . S
C1323 C1322 1.391 . S
C1323 C1325 1.387 . S
C1324 C1321 1.398 . S
C1324 C1325 1.380 . S
C1324 H1338 0.930 . S
C1325 C1323 1.387 . S
C1325 C1324 1.380 . S
C1325 H1339 0.930 . S
C1326 O1306 1.254 . S
C1326 O1307 1.268 . S
C1327 O1311 1.284 . S
C1327 O1314 1.250 . S
C1328 Gd1261 2.828 . S
C1328 O1310 1.258 . S
C1328 O1315 1.252 . S
C1328 C1329 1.497 . S
C1329 C1328 1.497 . S
C1329 C1330 1.395 . S
C1329 C1331 1.380 . S
C1330 C1329 1.395 . S
C1330 C1333 1.398 . S
C1330 H1340 0.930 . S
C1331 C1329 1.380 . S
C1331 C1332 1.391 . S
C1331 H1341 0.930 . S
C1332 C1331 1.391 . S
C1332 C1334 1.387 . S
C1333 C1330 1.398 . S
C1333 C1334 1.380 . S
C1333 H1342 0.930 . S
C1334 C1332 1.387 . S
C1334 C1333 1.380 . S
C1334 H1343 0.930 . S
C1335 O1312 1.254 . S
C1335 O1313 1.268 1_655 S
H1336 C1321 0.930 . S
H1337 C1322 0.930 . S
H1338 C1324 0.930 . S
H1339 C1325 0.930 . S
H1340 C1330 0.930 . S
H1341 C1331 0.930 . S
H1342 C1333 0.930 . S
H1343 C1334 0.930 . S
Gd1344 N1375 2.661 . S
Gd1344 N1381 2.601 . S
Gd1344 O1388 2.545 1_565 S
Gd1344 O1389 2.606 . S
Gd1344 O1391 2.429 . S
Gd1344 O1392 2.545 1_565 S
Gd1344 O1393 2.412 1_565 S
Gd1344 O1395 2.362 . S
Gd1344 O1396 2.324 1_565 S
Gd1344 C1403 2.828 1_565 S
Gd1345 N1354 2.661 . S
Gd1345 N1358 2.601 . S
Gd1345 O1389 2.362 . S
Gd1345 O1390 2.324 . S
Gd1345 O1394 2.545 . S
Gd1345 O1395 2.606 . S
Gd1345 O1397 2.429 . S
Gd1345 O1398 2.545 . S
Gd1345 O1399 2.412 . S
Gd1345 C1412 2.828 . S
C1346 C1349 1.417 . S
C1346 C1351 1.431 1_565 S
C1346 C1352 1.412 . S
C1347 C1350 1.437 . S
C1347 C1351 1.317 . S
C1347 H1366 0.929 . S
C1348 C1349 1.426 . S
C1348 C1350 1.413 1_565 S
C1348 N1358 1.359 . S
C1349 C1346 1.417 . S
C1349 C1348 1.426 . S
C1349 N1354 1.350 . S
C1350 C1347 1.437 . S
C1350 C1348 1.413 1_545 S
C1350 C1360 1.391 . S
C1351 C1346 1.431 1_545 S
C1351 C1347 1.317 . S
C1351 H1362 0.930 . S
C1352 C1346 1.412 . S
C1352 C1353 1.355 . S
C1352 H1364 0.930 . S
C1353 C1352 1.355 . S
C1353 C1355 1.402 . S
C1353 H1365 0.930 . S
N1354 Gd1345 2.661 . S
N1354 C1349 1.350 . S
N1354 C1355 1.307 . S
C1355 C1353 1.402 . S
C1355 N1354 1.307 . S
C1355 H1356 0.930 . S
H1356 C1355 0.930 . S
C1357 N1358 1.334 . S
C1357 C1359 1.394 1_565 S
C1357 H1361 0.930 . S
N1358 Gd1345 2.601 . S
N1358 C1348 1.359 . S
N1358 C1357 1.334 . S
C1359 C1357 1.394 1_545 S
C1359 C1360 1.359 . S
C1359 H1371 0.930 . S
C1360 C1350 1.391 . S
C1360 C1359 1.359 . S
C1360 H1372 0.929 . S
H1361 C1357 0.930 . S
H1362 C1351 0.930 . S
H1363 C1380 0.930 . S
H1364 C1352 0.930 . S
H1365 C1353 0.930 . S
H1366 C1347 0.929 . S
H1367 C1385 0.930 . S
H1368 C1376 0.930 . S
H1369 C1377 0.930 . S
H1370 C1401 0.929 . S
H1371 C1359 0.930 . S
H1372 C1360 0.929 . S
H1373 C1402 0.930 . S
H1374 C1383 0.930 . S
N1375 Gd1344 2.661 . S
N1375 C1379 1.350 . S
N1375 C1380 1.307 . S
C1376 H1368 0.930 . S
C1376 C1377 1.355 . S
C1376 C1378 1.412 . S
C1377 H1369 0.930 . S
C1377 C1376 1.355 . S
C1377 C1380 1.402 . S
C1378 C1376 1.412 . S
C1378 C1379 1.417 . S
C1378 C1402 1.431 . S
C1379 N1375 1.350 . S
C1379 C1378 1.417 . S
C1379 C1382 1.426 . S
C1380 H1363 0.930 . S
C1380 N1375 1.307 . S
C1380 C1377 1.402 . S
N1381 Gd1344 2.601 . S
N1381 C1382 1.359 . S
N1381 C1385 1.334 . S
C1382 C1379 1.426 . S
C1382 N1381 1.359 . S
C1382 C1386 1.413 . S
C1383 H1374 0.930 . S
C1383 C1384 1.359 . S
C1383 C1385 1.394 . S
C1384 C1383 1.359 . S
C1384 C1386 1.391 . S
C1384 H1387 0.929 . S
C1385 H1367 0.930 . S
C1385 N1381 1.334 . S
C1385 C1383 1.394 . S
C1386 C1382 1.413 . S
C1386 C1384 1.391 . S
C1386 C1401 1.437 . S
H1387 C1384 0.929 . S
O1388 Gd1344 2.545 1_545 S
O1388 C1403 1.258 . S
O1389 Gd1344 2.606 . S
O1389 Gd1345 2.362 . S
O1389 C1400 1.284 1_565 S
O1390 Gd1345 2.324 . S
O1390 C1410 1.254 . S
O1391 Gd1344 2.429 . S
O1391 C1410 1.268 . S
O1392 Gd1344 2.545 1_545 S
O1392 C1400 1.250 . S
O1393 Gd1344 2.412 1_545 S
O1393 C1403 1.252 . S
O1394 Gd1345 2.545 . S
O1394 C1412 1.258 . S
O1395 Gd1344 2.362 . S
O1395 Gd1345 2.606 . S
O1395 C1411 1.284 . S
O1396 Gd1344 2.324 1_545 S
O1396 C1419 1.254 . S
O1397 Gd1345 2.429 . S
O1397 C1419 1.268 1_565 S
O1398 Gd1345 2.545 . S
O1398 C1411 1.250 . S
O1399 Gd1345 2.412 . S
O1399 C1412 1.252 . S
C1400 O1389 1.284 1_545 S
C1400 O1392 1.250 . S
C1401 H1370 0.929 . S
C1401 C1386 1.437 . S
C1401 C1402 1.317 . S
C1402 H1373 0.930 . S
C1402 C1378 1.431 . S
C1402 C1401 1.317 . S
C1403 Gd1344 2.828 1_545 S
C1403 O1388 1.258 . S
C1403 O1393 1.252 . S
C1403 C1404 1.497 . S
C1404 C1403 1.497 . S
C1404 C1405 1.395 . S
C1404 C1406 1.380 . S
C1405 C1404 1.395 . S
C1405 C1408 1.398 . S
C1405 H1420 0.930 . S
C1406 C1404 1.380 . S
C1406 C1407 1.391 . S
C1406 H1421 0.930 . S
C1407 C1406 1.391 . S
C1407 C1409 1.387 . S
C1408 C1405 1.398 . S
C1408 C1409 1.380 . S
C1408 H1422 0.930 . S
C1409 C1407 1.387 . S
C1409 C1408 1.380 . S
C1409 H1423 0.930 . S
C1410 O1390 1.254 . S
C1410 O1391 1.268 . S
C1411 O1395 1.284 . S
C1411 O1398 1.250 . S
C1412 Gd1345 2.828 . S
C1412 O1394 1.258 . S
C1412 O1399 1.252 . S
C1412 C1413 1.497 . S
C1413 C1412 1.497 . S
C1413 C1414 1.395 . S
C1413 C1415 1.380 . S
C1414 C1413 1.395 . S
C1414 C1417 1.398 . S
C1414 H1424 0.930 . S
C1415 C1413 1.380 . S
C1415 C1416 1.391 . S
C1415 H1425 0.930 . S
C1416 C1415 1.391 . S
C1416 C1418 1.387 . S
C1417 C1414 1.398 . S
C1417 C1418 1.380 . S
C1417 H1426 0.930 . S
C1418 C1416 1.387 . S
C1418 C1417 1.380 . S
C1418 H1427 0.930 . S
C1419 O1396 1.254 . S
C1419 O1397 1.268 1_545 S
H1420 C1405 0.930 . S
H1421 C1406 0.930 . S
H1422 C1408 0.930 . S
H1423 C1409 0.930 . S
H1424 C1414 0.930 . S
H1425 C1415 0.930 . S
H1426 C1417 0.930 . S
H1427 C1418 0.930 . S
Gd1428 N1459 2.661 . S
Gd1428 N1465 2.601 . S
Gd1428 O1472 2.545 1_545 S
Gd1428 O1473 2.606 . S
Gd1428 O1475 2.429 . S
Gd1428 O1476 2.545 1_545 S
Gd1428 O1477 2.412 1_545 S
Gd1428 O1479 2.362 . S
Gd1428 O1480 2.324 1_545 S
Gd1428 C1487 2.828 1_545 S
Gd1429 N1438 2.661 . S
Gd1429 N1442 2.601 . S
Gd1429 O1473 2.362 . S
Gd1429 O1474 2.324 . S
Gd1429 O1478 2.545 . S
Gd1429 O1479 2.606 . S
Gd1429 O1481 2.429 . S
Gd1429 O1482 2.545 . S
Gd1429 O1483 2.412 . S
Gd1429 C1496 2.828 . S
C1430 C1433 1.417 . S
C1430 C1435 1.431 1_545 S
C1430 C1436 1.412 . S
C1431 C1434 1.437 . S
C1431 C1435 1.317 . S
C1431 H1450 0.929 . S
C1432 C1433 1.426 . S
C1432 C1434 1.413 1_545 S
C1432 N1442 1.359 . S
C1433 C1430 1.417 . S
C1433 C1432 1.426 . S
C1433 N1438 1.350 . S
C1434 C1431 1.437 . S
C1434 C1432 1.413 1_565 S
C1434 C1444 1.391 . S
C1435 C1430 1.431 1_565 S
C1435 C1431 1.317 . S
C1435 H1446 0.930 . S
C1436 C1430 1.412 . S
C1436 C1437 1.355 . S
C1436 H1448 0.930 . S
C1437 C1436 1.355 . S
C1437 C1439 1.402 . S
C1437 H1449 0.930 . S
N1438 Gd1429 2.661 . S
N1438 C1433 1.350 . S
N1438 C1439 1.307 . S
C1439 C1437 1.402 . S
C1439 N1438 1.307 . S
C1439 H1440 0.930 . S
H1440 C1439 0.930 . S
C1441 N1442 1.334 . S
C1441 C1443 1.394 1_545 S
C1441 H1445 0.930 . S
N1442 Gd1429 2.601 . S
N1442 C1432 1.359 . S
N1442 C1441 1.334 . S
C1443 C1441 1.394 1_565 S
C1443 C1444 1.359 . S
C1443 H1455 0.930 . S
C1444 C1434 1.391 . S
C1444 C1443 1.359 . S
C1444 H1456 0.929 . S
H1445 C1441 0.930 . S
H1446 C1435 0.930 . S
H1447 C1464 0.930 . S
H1448 C1436 0.930 . S
H1449 C1437 0.930 . S
H1450 C1431 0.929 . S
H1451 C1469 0.930 . S
H1452 C1460 0.930 . S
H1453 C1461 0.930 . S
H1454 C1485 0.929 . S
H1455 C1443 0.930 . S
H1456 C1444 0.929 . S
H1457 C1486 0.930 . S
H1458 C1467 0.930 . S
N1459 Gd1428 2.661 . S
N1459 C1463 1.350 . S
N1459 C1464 1.307 . S
C1460 H1452 0.930 . S
C1460 C1461 1.355 . S
C1460 C1462 1.412 . S
C1461 H1453 0.930 . S
C1461 C1460 1.355 . S
C1461 C1464 1.402 . S
C1462 C1460 1.412 . S
C1462 C1463 1.417 . S
C1462 C1486 1.431 . S
C1463 N1459 1.350 . S
C1463 C1462 1.417 . S
C1463 C1466 1.426 . S
C1464 H1447 0.930 . S
C1464 N1459 1.307 . S
C1464 C1461 1.402 . S
N1465 Gd1428 2.601 . S
N1465 C1466 1.359 . S
N1465 C1469 1.334 . S
C1466 C1463 1.426 . S
C1466 N1465 1.359 . S
C1466 C1470 1.413 . S
C1467 H1458 0.930 . S
C1467 C1468 1.359 . S
C1467 C1469 1.394 . S
C1468 C1467 1.359 . S
C1468 C1470 1.391 . S
C1468 H1471 0.929 . S
C1469 H1451 0.930 . S
C1469 N1465 1.334 . S
C1469 C1467 1.394 . S
C1470 C1466 1.413 . S
C1470 C1468 1.391 . S
C1470 C1485 1.437 . S
H1471 C1468 0.929 . S
O1472 Gd1428 2.545 1_565 S
O1472 C1487 1.258 . S
O1473 Gd1428 2.606 . S
O1473 Gd1429 2.362 . S
O1473 C1484 1.284 1_545 S
O1474 Gd1429 2.324 . S
O1474 C1494 1.254 . S
O1475 Gd1428 2.429 . S
O1475 C1494 1.268 . S
O1476 Gd1428 2.545 1_565 S
O1476 C1484 1.250 . S
O1477 Gd1428 2.412 1_565 S
O1477 C1487 1.252 . S
O1478 Gd1429 2.545 . S
O1478 C1496 1.258 . S
O1479 Gd1428 2.362 . S
O1479 Gd1429 2.606 . S
O1479 C1495 1.284 . S
O1480 Gd1428 2.324 1_565 S
O1480 C1503 1.254 . S
O1481 Gd1429 2.429 . S
O1481 C1503 1.268 1_545 S
O1482 Gd1429 2.545 . S
O1482 C1495 1.250 . S
O1483 Gd1429 2.412 . S
O1483 C1496 1.252 . S
C1484 O1473 1.284 1_565 S
C1484 O1476 1.250 . S
C1485 H1454 0.929 . S
C1485 C1470 1.437 . S
C1485 C1486 1.317 . S
C1486 H1457 0.930 . S
C1486 C1462 1.431 . S
C1486 C1485 1.317 . S
C1487 Gd1428 2.828 1_565 S
C1487 O1472 1.258 . S
C1487 O1477 1.252 . S
C1487 C1488 1.497 . S
C1488 C1487 1.497 . S
C1488 C1489 1.395 . S
C1488 C1490 1.380 . S
C1489 C1488 1.395 . S
C1489 C1492 1.398 . S
C1489 H1504 0.930 . S
C1490 C1488 1.380 . S
C1490 C1491 1.391 . S
C1490 H1505 0.930 . S
C1491 C1490 1.391 . S
C1491 C1493 1.387 . S
C1492 C1489 1.398 . S
C1492 C1493 1.380 . S
C1492 H1506 0.930 . S
C1493 C1491 1.387 . S
C1493 C1492 1.380 . S
C1493 H1507 0.930 . S
C1494 O1474 1.254 . S
C1494 O1475 1.268 . S
C1495 O1479 1.284 . S
C1495 O1482 1.250 . S
C1496 Gd1429 2.828 . S
C1496 O1478 1.258 . S
C1496 O1483 1.252 . S
C1496 C1497 1.497 . S
C1497 C1496 1.497 . S
C1497 C1498 1.395 . S
C1497 C1499 1.380 . S
C1498 C1497 1.395 . S
C1498 C1501 1.398 . S
C1498 H1508 0.930 . S
C1499 C1497 1.380 . S
C1499 C1500 1.391 . S
C1499 H1509 0.930 . S
C1500 C1499 1.391 . S
C1500 C1502 1.387 . S
C1501 C1498 1.398 . S
C1501 C1502 1.380 . S
C1501 H1510 0.930 . S
C1502 C1500 1.387 . S
C1502 C1501 1.380 . S
C1502 H1511 0.930 . S
C1503 O1480 1.254 . S
C1503 O1481 1.268 1_565 S
H1504 C1489 0.930 . S
H1505 C1490 0.930 . S
H1506 C1492 0.930 . S
H1507 C1493 0.930 . S
H1508 C1498 0.930 . S
H1509 C1499 0.930 . S
H1510 C1501 0.930 . S
H1511 C1502 0.930 . S
Gd1512 N1543 2.661 . S
Gd1512 N1549 2.601 . S
Gd1512 O1556 2.545 . S
Gd1512 O1557 2.606 . S
Gd1512 O1559 2.429 . S
Gd1512 O1560 2.545 . S
Gd1512 O1561 2.412 . S
Gd1512 O1563 2.362 . S
Gd1512 O1564 2.324 . S
Gd1512 C1571 2.828 . S
Gd1513 N1522 2.661 . S
Gd1513 N1526 2.601 . S
Gd1513 O1557 2.362 . S
Gd1513 O1558 2.324 . S
Gd1513 O1562 2.545 . S
Gd1513 O1563 2.606 . S
Gd1513 O1565 2.429 . S
Gd1513 O1566 2.545 . S
Gd1513 O1567 2.412 . S
Gd1513 C1580 2.828 . S
C1514 C1517 1.417 . S
C1514 C1519 1.431 . S
C1514 C1520 1.412 . S
C1515 C1518 1.437 . S
C1515 C1519 1.317 . S
C1515 H1534 0.929 . S
C1516 C1517 1.426 . S
C1516 C1518 1.413 . S
C1516 N1526 1.359 . S
C1517 C1514 1.417 . S
C1517 C1516 1.426 . S
C1517 N1522 1.350 . S
C1518 C1515 1.437 . S
C1518 C1516 1.413 . S
C1518 C1528 1.391 . S
C1519 C1514 1.431 . S
C1519 C1515 1.317 . S
C1519 H1530 0.930 . S
C1520 C1514 1.412 . S
C1520 C1521 1.355 . S
C1520 H1532 0.930 . S
C1521 C1520 1.355 . S
C1521 C1523 1.402 . S
C1521 H1533 0.930 . S
N1522 Gd1513 2.661 . S
N1522 C1517 1.350 . S
N1522 C1523 1.307 . S
C1523 C1521 1.402 . S
C1523 N1522 1.307 . S
C1523 H1524 0.930 . S
H1524 C1523 0.930 . S
C1525 N1526 1.334 . S
C1525 C1527 1.394 . S
C1525 H1529 0.930 . S
N1526 Gd1513 2.601 . S
N1526 C1516 1.359 . S
N1526 C1525 1.334 . S
C1527 C1525 1.394 . S
C1527 C1528 1.359 . S
C1527 H1539 0.930 . S
C1528 C1518 1.391 . S
C1528 C1527 1.359 . S
C1528 H1540 0.929 . S
H1529 C1525 0.930 . S
H1530 C1519 0.930 . S
H1531 C1548 0.930 . S
H1532 C1520 0.930 . S
H1533 C1521 0.930 . S
H1534 C1515 0.929 . S
H1535 C1553 0.930 . S
H1536 C1544 0.930 . S
H1537 C1545 0.930 . S
H1538 C1569 0.929 . S
H1539 C1527 0.930 . S
H1540 C1528 0.929 . S
H1541 C1570 0.930 . S
H1542 C1551 0.930 . S
N1543 Gd1512 2.661 . S
N1543 C1547 1.350 . S
N1543 C1548 1.307 . S
C1544 H1536 0.930 . S
C1544 C1545 1.355 . S
C1544 C1546 1.412 . S
C1545 H1537 0.930 . S
C1545 C1544 1.355 . S
C1545 C1548 1.402 . S
C1546 C1544 1.412 . S
C1546 C1547 1.417 . S
C1546 C1570 1.431 . S
C1547 N1543 1.350 . S
C1547 C1546 1.417 . S
C1547 C1550 1.426 . S
C1548 H1531 0.930 . S
C1548 N1543 1.307 . S
C1548 C1545 1.402 . S
N1549 Gd1512 2.601 . S
N1549 C1550 1.359 . S
N1549 C1553 1.334 . S
C1550 C1547 1.426 . S
C1550 N1549 1.359 . S
C1550 C1554 1.413 . S
C1551 H1542 0.930 . S
C1551 C1552 1.359 . S
C1551 C1553 1.394 . S
C1552 C1551 1.359 . S
C1552 C1554 1.391 . S
C1552 H1555 0.929 . S
C1553 H1535 0.930 . S
C1553 N1549 1.334 . S
C1553 C1551 1.394 . S
C1554 C1550 1.413 . S
C1554 C1552 1.391 . S
C1554 C1569 1.437 . S
H1555 C1552 0.929 . S
O1556 Gd1512 2.545 . S
O1556 C1571 1.258 . S
O1557 Gd1512 2.606 . S
O1557 Gd1513 2.362 . S
O1557 C1568 1.284 . S
O1558 Gd1513 2.324 . S
O1558 C1578 1.254 . S
O1559 Gd1512 2.429 . S
O1559 C1578 1.268 . S
O1560 Gd1512 2.545 . S
O1560 C1568 1.250 . S
O1561 Gd1512 2.412 . S
O1561 C1571 1.252 . S
O1562 Gd1513 2.545 . S
O1562 C1580 1.258 . S
O1563 Gd1512 2.362 . S
O1563 Gd1513 2.606 . S
O1563 C1579 1.284 . S
O1564 Gd1512 2.324 . S
O1564 C1587 1.254 . S
O1565 Gd1513 2.429 . S
O1565 C1587 1.268 . S
O1566 Gd1513 2.545 . S
O1566 C1579 1.250 . S
O1567 Gd1513 2.412 . S
O1567 C1580 1.252 . S
C1568 O1557 1.284 . S
C1568 O1560 1.250 . S
C1569 H1538 0.929 . S
C1569 C1554 1.437 . S
C1569 C1570 1.317 . S
C1570 H1541 0.930 . S
C1570 C1546 1.431 . S
C1570 C1569 1.317 . S
C1571 Gd1512 2.828 . S
C1571 O1556 1.258 . S
C1571 O1561 1.252 . S
C1571 C1572 1.497 . S
C1572 C1571 1.497 . S
C1572 C1573 1.395 . S
C1572 C1574 1.380 . S
C1573 C1572 1.395 . S
C1573 C1576 1.398 . S
C1573 H1588 0.930 . S
C1574 C1572 1.380 . S
C1574 C1575 1.391 . S
C1574 H1589 0.930 . S
C1575 C1574 1.391 . S
C1575 C1577 1.387 . S
C1576 C1573 1.398 . S
C1576 C1577 1.380 . S
C1576 H1590 0.930 . S
C1577 C1575 1.387 . S
C1577 C1576 1.380 . S
C1577 H1591 0.930 . S
C1578 O1558 1.254 . S
C1578 O1559 1.268 . S
C1579 O1563 1.284 . S
C1579 O1566 1.250 . S
C1580 Gd1513 2.828 . S
C1580 O1562 1.258 . S
C1580 O1567 1.252 . S
C1580 C1581 1.497 . S
C1581 C1580 1.497 . S
C1581 C1582 1.395 . S
C1581 C1583 1.380 . S
C1582 C1581 1.395 . S
C1582 C1585 1.398 . S
C1582 H1592 0.930 . S
C1583 C1581 1.380 . S
C1583 C1584 1.391 . S
C1583 H1593 0.930 . S
C1584 C1583 1.391 . S
C1584 C1586 1.387 . S
C1585 C1582 1.398 . S
C1585 C1586 1.380 . S
C1585 H1594 0.930 . S
C1586 C1584 1.387 . S
C1586 C1585 1.380 . S
C1586 H1595 0.930 . S
C1587 O1564 1.254 . S
C1587 O1565 1.268 . S
H1588 C1573 0.930 . S
H1589 C1574 0.930 . S
H1590 C1576 0.930 . S
H1591 C1577 0.930 . S
H1592 C1582 0.930 . S
H1593 C1583 0.930 . S
H1594 C1585 0.930 . S
H1595 C1586 0.930 . S
Gd1596 N1627 2.661 . S
Gd1596 N1633 2.601 . S
Gd1596 O1640 2.545 . S
Gd1596 O1641 2.606 . S
Gd1596 O1643 2.429 . S
Gd1596 O1644 2.545 . S
Gd1596 O1645 2.412 . S
Gd1596 O1647 2.362 . S
Gd1596 O1648 2.324 . S
Gd1596 C1655 2.828 . S
Gd1597 N1606 2.661 . S
Gd1597 N1610 2.601 . S
Gd1597 O1641 2.362 . S
Gd1597 O1642 2.324 . S
Gd1597 O1646 2.545 . S
Gd1597 O1647 2.606 . S
Gd1597 O1649 2.429 . S
Gd1597 O1650 2.545 . S
Gd1597 O1651 2.412 . S
Gd1597 C1664 2.828 . S
C1598 C1601 1.417 . S
C1598 C1603 1.431 . S
C1598 C1604 1.412 . S
C1599 C1602 1.437 . S
C1599 C1603 1.317 . S
C1599 H1618 0.929 . S
C1600 C1601 1.426 . S
C1600 C1602 1.413 . S
C1600 N1610 1.359 . S
C1601 C1598 1.417 . S
C1601 C1600 1.426 . S
C1601 N1606 1.350 . S
C1602 C1599 1.437 . S
C1602 C1600 1.413 . S
C1602 C1612 1.391 . S
C1603 C1598 1.431 . S
C1603 C1599 1.317 . S
C1603 H1614 0.930 . S
C1604 C1598 1.412 . S
C1604 C1605 1.355 . S
C1604 H1616 0.930 . S
C1605 C1604 1.355 . S
C1605 C1607 1.402 . S
C1605 H1617 0.930 . S
N1606 Gd1597 2.661 . S
N1606 C1601 1.350 . S
N1606 C1607 1.307 . S
C1607 C1605 1.402 . S
C1607 N1606 1.307 . S
C1607 H1608 0.930 . S
H1608 C1607 0.930 . S
C1609 N1610 1.334 . S
C1609 C1611 1.394 . S
C1609 H1613 0.930 . S
N1610 Gd1597 2.601 . S
N1610 C1600 1.359 . S
N1610 C1609 1.334 . S
C1611 C1609 1.394 . S
C1611 C1612 1.359 . S
C1611 H1623 0.930 . S
C1612 C1602 1.391 . S
C1612 C1611 1.359 . S
C1612 H1624 0.929 . S
H1613 C1609 0.930 . S
H1614 C1603 0.930 . S
H1615 C1632 0.930 . S
H1616 C1604 0.930 . S
H1617 C1605 0.930 . S
H1618 C1599 0.929 . S
H1619 C1637 0.930 . S
H1620 C1628 0.930 . S
H1621 C1629 0.930 . S
H1622 C1653 0.929 . S
H1623 C1611 0.930 . S
H1624 C1612 0.929 . S
H1625 C1654 0.930 . S
H1626 C1635 0.930 . S
N1627 Gd1596 2.661 . S
N1627 C1631 1.350 . S
N1627 C1632 1.307 . S
C1628 H1620 0.930 . S
C1628 C1629 1.355 . S
C1628 C1630 1.412 . S
C1629 H1621 0.930 . S
C1629 C1628 1.355 . S
C1629 C1632 1.402 . S
C1630 C1628 1.412 . S
C1630 C1631 1.417 . S
C1630 C1654 1.431 . S
C1631 N1627 1.350 . S
C1631 C1630 1.417 . S
C1631 C1634 1.426 . S
C1632 H1615 0.930 . S
C1632 N1627 1.307 . S
C1632 C1629 1.402 . S
N1633 Gd1596 2.601 . S
N1633 C1634 1.359 . S
N1633 C1637 1.334 . S
C1634 C1631 1.426 . S
C1634 N1633 1.359 . S
C1634 C1638 1.413 . S
C1635 H1626 0.930 . S
C1635 C1636 1.359 . S
C1635 C1637 1.394 . S
C1636 C1635 1.359 . S
C1636 C1638 1.391 . S
C1636 H1639 0.929 . S
C1637 H1619 0.930 . S
C1637 N1633 1.334 . S
C1637 C1635 1.394 . S
C1638 C1634 1.413 . S
C1638 C1636 1.391 . S
C1638 C1653 1.437 . S
H1639 C1636 0.929 . S
O1640 Gd1596 2.545 . S
O1640 C1655 1.258 . S
O1641 Gd1596 2.606 . S
O1641 Gd1597 2.362 . S
O1641 C1652 1.284 . S
O1642 Gd1597 2.324 . S
O1642 C1662 1.254 . S
O1643 Gd1596 2.429 . S
O1643 C1662 1.268 . S
O1644 Gd1596 2.545 . S
O1644 C1652 1.250 . S
O1645 Gd1596 2.412 . S
O1645 C1655 1.252 . S
O1646 Gd1597 2.545 . S
O1646 C1664 1.258 . S
O1647 Gd1596 2.362 . S
O1647 Gd1597 2.606 . S
O1647 C1663 1.284 . S
O1648 Gd1596 2.324 . S
O1648 C1671 1.254 . S
O1649 Gd1597 2.429 . S
O1649 C1671 1.268 . S
O1650 Gd1597 2.545 . S
O1650 C1663 1.250 . S
O1651 Gd1597 2.412 . S
O1651 C1664 1.252 . S
C1652 O1641 1.284 . S
C1652 O1644 1.250 . S
C1653 H1622 0.929 . S
C1653 C1638 1.437 . S
C1653 C1654 1.317 . S
C1654 H1625 0.930 . S
C1654 C1630 1.431 . S
C1654 C1653 1.317 . S
C1655 Gd1596 2.828 . S
C1655 O1640 1.258 . S
C1655 O1645 1.252 . S
C1655 C1656 1.497 . S
C1656 C1655 1.497 . S
C1656 C1657 1.395 . S
C1656 C1658 1.380 . S
C1657 C1656 1.395 . S
C1657 C1660 1.398 . S
C1657 H1672 0.930 . S
C1658 C1656 1.380 . S
C1658 C1659 1.391 . S
C1658 H1673 0.930 . S
C1659 C1658 1.391 . S
C1659 C1661 1.387 . S
C1660 C1657 1.398 . S
C1660 C1661 1.380 . S
C1660 H1674 0.930 . S
C1661 C1659 1.387 . S
C1661 C1660 1.380 . S
C1661 H1675 0.930 . S
C1662 O1642 1.254 . S
C1662 O1643 1.268 . S
C1663 O1647 1.284 . S
C1663 O1650 1.250 . S
C1664 Gd1597 2.828 . S
C1664 O1646 1.258 . S
C1664 O1651 1.252 . S
C1664 C1665 1.497 . S
C1665 C1664 1.497 . S
C1665 C1666 1.395 . S
C1665 C1667 1.380 . S
C1666 C1665 1.395 . S
C1666 C1669 1.398 . S
C1666 H1676 0.930 . S
C1667 C1665 1.380 . S
C1667 C1668 1.391 . S
C1667 H1677 0.930 . S
C1668 C1667 1.391 . S
C1668 C1670 1.387 . S
C1669 C1666 1.398 . S
C1669 C1670 1.380 . S
C1669 H1678 0.930 . S
C1670 C1668 1.387 . S
C1670 C1669 1.380 . S
C1670 H1679 0.930 . S
C1671 O1648 1.254 . S
C1671 O1649 1.268 . S
H1672 C1657 0.930 . S
H1673 C1658 0.930 . S
H1674 C1660 0.930 . S
H1675 C1661 0.930 . S
H1676 C1666 0.930 . S
H1677 C1667 0.930 . S
H1678 C1669 0.930 . S
H1679 C1670 0.930 . S
Gd1680 N1711 2.661 . S
Gd1680 N1717 2.601 . S
Gd1680 O1724 2.545 1_556 S
Gd1680 O1725 2.606 . S
Gd1680 O1727 2.429 . S
Gd1680 O1728 2.545 1_556 S
Gd1680 O1729 2.412 1_556 S
Gd1680 O1731 2.362 . S
Gd1680 O1732 2.324 1_556 S
Gd1680 C1739 2.828 1_556 S
Gd1681 N1690 2.661 . S
Gd1681 N1694 2.601 . S
Gd1681 O1725 2.362 . S
Gd1681 O1726 2.324 . S
Gd1681 O1730 2.545 . S
Gd1681 O1731 2.606 . S
Gd1681 O1733 2.429 . S
Gd1681 O1734 2.545 . S
Gd1681 O1735 2.412 . S
Gd1681 C1748 2.828 . S
C1682 C1685 1.417 . S
C1682 C1687 1.431 1_556 S
C1682 C1688 1.412 . S
C1683 C1686 1.437 . S
C1683 C1687 1.317 . S
C1683 H1702 0.929 . S
C1684 C1685 1.426 . S
C1684 C1686 1.413 1_556 S
C1684 N1694 1.359 . S
C1685 C1682 1.417 . S
C1685 C1684 1.426 . S
C1685 N1690 1.350 . S
C1686 C1683 1.437 . S
C1686 C1684 1.413 1_554 S
C1686 C1696 1.391 . S
C1687 C1682 1.431 1_554 S
C1687 C1683 1.317 . S
C1687 H1698 0.930 . S
C1688 C1682 1.412 . S
C1688 C1689 1.355 . S
C1688 H1700 0.930 . S
C1689 C1688 1.355 . S
C1689 C1691 1.402 . S
C1689 H1701 0.930 . S
N1690 Gd1681 2.661 . S
N1690 C1685 1.350 . S
N1690 C1691 1.307 . S
C1691 C1689 1.402 . S
C1691 N1690 1.307 . S
C1691 H1692 0.930 . S
H1692 C1691 0.930 . S
C1693 N1694 1.334 . S
C1693 C1695 1.394 1_556 S
C1693 H1697 0.930 . S
N1694 Gd1681 2.601 . S
N1694 C1684 1.359 . S
N1694 C1693 1.334 . S
C1695 C1693 1.394 1_554 S
C1695 C1696 1.359 . S
C1695 H1707 0.930 . S
C1696 C1686 1.391 . S
C1696 C1695 1.359 . S
C1696 H1708 0.929 . S
H1697 C1693 0.930 . S
H1698 C1687 0.930 . S
H1699 C1716 0.930 . S
H1700 C1688 0.930 . S
H1701 C1689 0.930 . S
H1702 C1683 0.929 . S
H1703 C1721 0.930 . S
H1704 C1712 0.930 . S
H1705 C1713 0.930 . S
H1706 C1737 0.929 . S
H1707 C1695 0.930 . S
H1708 C1696 0.929 . S
H1709 C1738 0.930 . S
H1710 C1719 0.930 . S
N1711 Gd1680 2.661 . S
N1711 C1715 1.350 . S
N1711 C1716 1.307 . S
C1712 H1704 0.930 . S
C1712 C1713 1.355 . S
C1712 C1714 1.412 . S
C1713 H1705 0.930 . S
C1713 C1712 1.355 . S
C1713 C1716 1.402 . S
C1714 C1712 1.412 . S
C1714 C1715 1.417 . S
C1714 C1738 1.431 . S
C1715 N1711 1.350 . S
C1715 C1714 1.417 . S
C1715 C1718 1.426 . S
C1716 H1699 0.930 . S
C1716 N1711 1.307 . S
C1716 C1713 1.402 . S
N1717 Gd1680 2.601 . S
N1717 C1718 1.359 . S
N1717 C1721 1.334 . S
C1718 C1715 1.426 . S
C1718 N1717 1.359 . S
C1718 C1722 1.413 . S
C1719 H1710 0.930 . S
C1719 C1720 1.359 . S
C1719 C1721 1.394 . S
C1720 C1719 1.359 . S
C1720 C1722 1.391 . S
C1720 H1723 0.929 . S
C1721 H1703 0.930 . S
C1721 N1717 1.334 . S
C1721 C1719 1.394 . S
C1722 C1718 1.413 . S
C1722 C1720 1.391 . S
C1722 C1737 1.437 . S
H1723 C1720 0.929 . S
O1724 Gd1680 2.545 1_554 S
O1724 C1739 1.258 . S
O1725 Gd1680 2.606 . S
O1725 Gd1681 2.362 . S
O1725 C1736 1.284 1_556 S
O1726 Gd1681 2.324 . S
O1726 C1746 1.254 . S
O1727 Gd1680 2.429 . S
O1727 C1746 1.268 . S
O1728 Gd1680 2.545 1_554 S
O1728 C1736 1.250 . S
O1729 Gd1680 2.412 1_554 S
O1729 C1739 1.252 . S
O1730 Gd1681 2.545 . S
O1730 C1748 1.258 . S
O1731 Gd1680 2.362 . S
O1731 Gd1681 2.606 . S
O1731 C1747 1.284 . S
O1732 Gd1680 2.324 1_554 S
O1732 C1755 1.254 . S
O1733 Gd1681 2.429 . S
O1733 C1755 1.268 1_556 S
O1734 Gd1681 2.545 . S
O1734 C1747 1.250 . S
O1735 Gd1681 2.412 . S
O1735 C1748 1.252 . S
C1736 O1725 1.284 1_554 S
C1736 O1728 1.250 . S
C1737 H1706 0.929 . S
C1737 C1722 1.437 . S
C1737 C1738 1.317 . S
C1738 H1709 0.930 . S
C1738 C1714 1.431 . S
C1738 C1737 1.317 . S
C1739 Gd1680 2.828 1_554 S
C1739 O1724 1.258 . S
C1739 O1729 1.252 . S
C1739 C1740 1.497 . S
C1740 C1739 1.497 . S
C1740 C1741 1.395 . S
C1740 C1742 1.380 . S
C1741 C1740 1.395 . S
C1741 C1744 1.398 . S
C1741 H1756 0.930 . S
C1742 C1740 1.380 . S
C1742 C1743 1.391 . S
C1742 H1757 0.930 . S
C1743 C1742 1.391 . S
C1743 C1745 1.387 . S
C1744 C1741 1.398 . S
C1744 C1745 1.380 . S
C1744 H1758 0.930 . S
C1745 C1743 1.387 . S
C1745 C1744 1.380 . S
C1745 H1759 0.930 . S
C1746 O1726 1.254 . S
C1746 O1727 1.268 . S
C1747 O1731 1.284 . S
C1747 O1734 1.250 . S
C1748 Gd1681 2.828 . S
C1748 O1730 1.258 . S
C1748 O1735 1.252 . S
C1748 C1749 1.497 . S
C1749 C1748 1.497 . S
C1749 C1750 1.395 . S
C1749 C1751 1.380 . S
C1750 C1749 1.395 . S
C1750 C1753 1.398 . S
C1750 H1760 0.930 . S
C1751 C1749 1.380 . S
C1751 C1752 1.391 . S
C1751 H1761 0.930 . S
C1752 C1751 1.391 . S
C1752 C1754 1.387 . S
C1753 C1750 1.398 . S
C1753 C1754 1.380 . S
C1753 H1762 0.930 . S
C1754 C1752 1.387 . S
C1754 C1753 1.380 . S
C1754 H1763 0.930 . S
C1755 O1732 1.254 . S
C1755 O1733 1.268 1_554 S
H1756 C1741 0.930 . S
H1757 C1742 0.930 . S
H1758 C1744 0.930 . S
H1759 C1745 0.930 . S
H1760 C1750 0.930 . S
H1761 C1751 0.930 . S
H1762 C1753 0.930 . S
H1763 C1754 0.930 . S
Gd1764 N1795 2.661 . S
Gd1764 N1801 2.601 . S
Gd1764 O1808 2.545 1_554 S
Gd1764 O1809 2.606 . S
Gd1764 O1811 2.429 . S
Gd1764 O1812 2.545 1_554 S
Gd1764 O1813 2.412 1_554 S
Gd1764 O1815 2.362 . S
Gd1764 O1816 2.324 1_554 S
Gd1764 C1823 2.828 1_554 S
Gd1765 N1774 2.661 . S
Gd1765 N1778 2.601 . S
Gd1765 O1809 2.362 . S
Gd1765 O1810 2.324 . S
Gd1765 O1814 2.545 . S
Gd1765 O1815 2.606 . S
Gd1765 O1817 2.429 . S
Gd1765 O1818 2.545 . S
Gd1765 O1819 2.412 . S
Gd1765 C1832 2.828 . S
C1766 C1769 1.417 . S
C1766 C1771 1.431 1_554 S
C1766 C1772 1.412 . S
C1767 C1770 1.437 . S
C1767 C1771 1.317 . S
C1767 H1786 0.929 . S
C1768 C1769 1.426 . S
C1768 C1770 1.413 1_554 S
C1768 N1778 1.359 . S
C1769 C1766 1.417 . S
C1769 C1768 1.426 . S
C1769 N1774 1.350 . S
C1770 C1767 1.437 . S
C1770 C1768 1.413 1_556 S
C1770 C1780 1.391 . S
C1771 C1766 1.431 1_556 S
C1771 C1767 1.317 . S
C1771 H1782 0.930 . S
C1772 C1766 1.412 . S
C1772 C1773 1.355 . S
C1772 H1784 0.930 . S
C1773 C1772 1.355 . S
C1773 C1775 1.402 . S
C1773 H1785 0.930 . S
N1774 Gd1765 2.661 . S
N1774 C1769 1.350 . S
N1774 C1775 1.307 . S
C1775 C1773 1.402 . S
C1775 N1774 1.307 . S
C1775 H1776 0.930 . S
H1776 C1775 0.930 . S
C1777 N1778 1.334 . S
C1777 C1779 1.394 1_554 S
C1777 H1781 0.930 . S
N1778 Gd1765 2.601 . S
N1778 C1768 1.359 . S
N1778 C1777 1.334 . S
C1779 C1777 1.394 1_556 S
C1779 C1780 1.359 . S
C1779 H1791 0.930 . S
C1780 C1770 1.391 . S
C1780 C1779 1.359 . S
C1780 H1792 0.929 . S
H1781 C1777 0.930 . S
H1782 C1771 0.930 . S
H1783 C1800 0.930 . S
H1784 C1772 0.930 . S
H1785 C1773 0.930 . S
H1786 C1767 0.929 . S
H1787 C1805 0.930 . S
H1788 C1796 0.930 . S
H1789 C1797 0.930 . S
H1790 C1821 0.929 . S
H1791 C1779 0.930 . S
H1792 C1780 0.929 . S
H1793 C1822 0.930 . S
H1794 C1803 0.930 . S
N1795 Gd1764 2.661 . S
N1795 C1799 1.350 . S
N1795 C1800 1.307 . S
C1796 H1788 0.930 . S
C1796 C1797 1.355 . S
C1796 C1798 1.412 . S
C1797 H1789 0.930 . S
C1797 C1796 1.355 . S
C1797 C1800 1.402 . S
C1798 C1796 1.412 . S
C1798 C1799 1.417 . S
C1798 C1822 1.431 . S
C1799 N1795 1.350 . S
C1799 C1798 1.417 . S
C1799 C1802 1.426 . S
C1800 H1783 0.930 . S
C1800 N1795 1.307 . S
C1800 C1797 1.402 . S
N1801 Gd1764 2.601 . S
N1801 C1802 1.359 . S
N1801 C1805 1.334 . S
C1802 C1799 1.426 . S
C1802 N1801 1.359 . S
C1802 C1806 1.413 . S
C1803 H1794 0.930 . S
C1803 C1804 1.359 . S
C1803 C1805 1.394 . S
C1804 C1803 1.359 . S
C1804 C1806 1.391 . S
C1804 H1807 0.929 . S
C1805 H1787 0.930 . S
C1805 N1801 1.334 . S
C1805 C1803 1.394 . S
C1806 C1802 1.413 . S
C1806 C1804 1.391 . S
C1806 C1821 1.437 . S
H1807 C1804 0.929 . S
O1808 Gd1764 2.545 1_556 S
O1808 C1823 1.258 . S
O1809 Gd1764 2.606 . S
O1809 Gd1765 2.362 . S
O1809 C1820 1.284 1_554 S
O1810 Gd1765 2.324 . S
O1810 C1830 1.254 . S
O1811 Gd1764 2.429 . S
O1811 C1830 1.268 . S
O1812 Gd1764 2.545 1_556 S
O1812 C1820 1.250 . S
O1813 Gd1764 2.412 1_556 S
O1813 C1823 1.252 . S
O1814 Gd1765 2.545 . S
O1814 C1832 1.258 . S
O1815 Gd1764 2.362 . S
O1815 Gd1765 2.606 . S
O1815 C1831 1.284 . S
O1816 Gd1764 2.324 1_556 S
O1816 C1839 1.254 . S
O1817 Gd1765 2.429 . S
O1817 C1839 1.268 1_554 S
O1818 Gd1765 2.545 . S
O1818 C1831 1.250 . S
O1819 Gd1765 2.412 . S
O1819 C1832 1.252 . S
C1820 O1809 1.284 1_556 S
C1820 O1812 1.250 . S
C1821 H1790 0.929 . S
C1821 C1806 1.437 . S
C1821 C1822 1.317 . S
C1822 H1793 0.930 . S
C1822 C1798 1.431 . S
C1822 C1821 1.317 . S
C1823 Gd1764 2.828 1_556 S
C1823 O1808 1.258 . S
C1823 O1813 1.252 . S
C1823 C1824 1.497 . S
C1824 C1823 1.497 . S
C1824 C1825 1.395 . S
C1824 C1826 1.380 . S
C1825 C1824 1.395 . S
C1825 C1828 1.398 . S
C1825 H1840 0.930 . S
C1826 C1824 1.380 . S
C1826 C1827 1.391 . S
C1826 H1841 0.930 . S
C1827 C1826 1.391 . S
C1827 C1829 1.387 . S
C1828 C1825 1.398 . S
C1828 C1829 1.380 . S
C1828 H1842 0.930 . S
C1829 C1827 1.387 . S
C1829 C1828 1.380 . S
C1829 H1843 0.930 . S
C1830 O1810 1.254 . S
C1830 O1811 1.268 . S
C1831 O1815 1.284 . S
C1831 O1818 1.250 . S
C1832 Gd1765 2.828 . S
C1832 O1814 1.258 . S
C1832 O1819 1.252 . S
C1832 C1833 1.497 . S
C1833 C1832 1.497 . S
C1833 C1834 1.395 . S
C1833 C1835 1.380 . S
C1834 C1833 1.395 . S
C1834 C1837 1.398 . S
C1834 H1844 0.930 . S
C1835 C1833 1.380 . S
C1835 C1836 1.391 . S
C1835 H1845 0.930 . S
C1836 C1835 1.391 . S
C1836 C1838 1.387 . S
C1837 C1834 1.398 . S
C1837 C1838 1.380 . S
C1837 H1846 0.930 . S
C1838 C1836 1.387 . S
C1838 C1837 1.380 . S
C1838 H1847 0.930 . S
C1839 O1816 1.254 . S
C1839 O1817 1.268 1_556 S
H1840 C1825 0.930 . S
H1841 C1826 0.930 . S
H1842 C1828 0.930 . S
H1843 C1829 0.930 . S
H1844 C1834 0.930 . S
H1845 C1835 0.930 . S
H1846 C1837 0.930 . S
H1847 C1838 0.930 . S
Gd1848 N1879 2.661 . S
Gd1848 N1885 2.601 . S
Gd1848 O1892 2.545 . S
Gd1848 O1893 2.606 . S
Gd1848 O1895 2.429 . S
Gd1848 O1896 2.545 . S
Gd1848 O1897 2.412 . S
Gd1848 O1899 2.362 . S
Gd1848 O1900 2.324 . S
Gd1848 C1907 2.828 . S
Gd1849 N1858 2.661 . S
Gd1849 N1862 2.601 . S
Gd1849 O1893 2.362 . S
Gd1849 O1894 2.324 . S
Gd1849 O1898 2.545 . S
Gd1849 O1899 2.606 . S
Gd1849 O1901 2.429 . S
Gd1849 O1902 2.545 . S
Gd1849 O1903 2.412 . S
Gd1849 C1916 2.828 . S
C1850 C1853 1.417 . S
C1850 C1855 1.431 . S
C1850 C1856 1.412 . S
C1851 C1854 1.437 . S
C1851 C1855 1.317 . S
C1851 H1870 0.929 . S
C1852 C1853 1.426 . S
C1852 C1854 1.413 . S
C1852 N1862 1.359 . S
C1853 C1850 1.417 . S
C1853 C1852 1.426 . S
C1853 N1858 1.350 . S
C1854 C1851 1.437 . S
C1854 C1852 1.413 . S
C1854 C1864 1.391 . S
C1855 C1850 1.431 . S
C1855 C1851 1.317 . S
C1855 H1866 0.930 . S
C1856 C1850 1.412 . S
C1856 C1857 1.355 . S
C1856 H1868 0.930 . S
C1857 C1856 1.355 . S
C1857 C1859 1.402 . S
C1857 H1869 0.930 . S
N1858 Gd1849 2.661 . S
N1858 C1853 1.350 . S
N1858 C1859 1.307 . S
C1859 C1857 1.402 . S
C1859 N1858 1.307 . S
C1859 H1860 0.930 . S
H1860 C1859 0.930 . S
C1861 N1862 1.334 . S
C1861 C1863 1.394 . S
C1861 H1865 0.930 . S
N1862 Gd1849 2.601 . S
N1862 C1852 1.359 . S
N1862 C1861 1.334 . S
C1863 C1861 1.394 . S
C1863 C1864 1.359 . S
C1863 H1875 0.930 . S
C1864 C1854 1.391 . S
C1864 C1863 1.359 . S
C1864 H1876 0.929 . S
H1865 C1861 0.930 . S
H1866 C1855 0.930 . S
H1867 C1884 0.930 . S
H1868 C1856 0.930 . S
H1869 C1857 0.930 . S
H1870 C1851 0.929 . S
H1871 C1889 0.930 . S
H1872 C1880 0.930 . S
H1873 C1881 0.930 . S
H1874 C1905 0.929 . S
H1875 C1863 0.930 . S
H1876 C1864 0.929 . S
H1877 C1906 0.930 . S
H1878 C1887 0.930 . S
N1879 Gd1848 2.661 . S
N1879 C1883 1.350 . S
N1879 C1884 1.307 . S
C1880 H1872 0.930 . S
C1880 C1881 1.355 . S
C1880 C1882 1.412 . S
C1881 H1873 0.930 . S
C1881 C1880 1.355 . S
C1881 C1884 1.402 . S
C1882 C1880 1.412 . S
C1882 C1883 1.417 . S
C1882 C1906 1.431 . S
C1883 N1879 1.350 . S
C1883 C1882 1.417 . S
C1883 C1886 1.426 . S
C1884 H1867 0.930 . S
C1884 N1879 1.307 . S
C1884 C1881 1.402 . S
N1885 Gd1848 2.601 . S
N1885 C1886 1.359 . S
N1885 C1889 1.334 . S
C1886 C1883 1.426 . S
C1886 N1885 1.359 . S
C1886 C1890 1.413 . S
C1887 H1878 0.930 . S
C1887 C1888 1.359 . S
C1887 C1889 1.394 . S
C1888 C1887 1.359 . S
C1888 C1890 1.391 . S
C1888 H1891 0.929 . S
C1889 H1871 0.930 . S
C1889 N1885 1.334 . S
C1889 C1887 1.394 . S
C1890 C1886 1.413 . S
C1890 C1888 1.391 . S
C1890 C1905 1.437 . S
H1891 C1888 0.929 . S
O1892 Gd1848 2.545 . S
O1892 C1907 1.258 . S
O1893 Gd1848 2.606 . S
O1893 Gd1849 2.362 . S
O1893 C1904 1.284 . S
O1894 Gd1849 2.324 . S
O1894 C1914 1.254 . S
O1895 Gd1848 2.429 . S
O1895 C1914 1.268 . S
O1896 Gd1848 2.545 . S
O1896 C1904 1.250 . S
O1897 Gd1848 2.412 . S
O1897 C1907 1.252 . S
O1898 Gd1849 2.545 . S
O1898 C1916 1.258 . S
O1899 Gd1848 2.362 . S
O1899 Gd1849 2.606 . S
O1899 C1915 1.284 . S
O1900 Gd1848 2.324 . S
O1900 C1923 1.254 . S
O1901 Gd1849 2.429 . S
O1901 C1923 1.268 . S
O1902 Gd1849 2.545 . S
O1902 C1915 1.250 . S
O1903 Gd1849 2.412 . S
O1903 C1916 1.252 . S
C1904 O1893 1.284 . S
C1904 O1896 1.250 . S
C1905 H1874 0.929 . S
C1905 C1890 1.437 . S
C1905 C1906 1.317 . S
C1906 H1877 0.930 . S
C1906 C1882 1.431 . S
C1906 C1905 1.317 . S
C1907 Gd1848 2.828 . S
C1907 O1892 1.258 . S
C1907 O1897 1.252 . S
C1907 C1908 1.497 . S
C1908 C1907 1.497 . S
C1908 C1909 1.395 . S
C1908 C1910 1.380 . S
C1909 C1908 1.395 . S
C1909 C1912 1.398 . S
C1909 H1924 0.930 . S
C1910 C1908 1.380 . S
C1910 C1911 1.391 . S
C1910 H1925 0.930 . S
C1911 C1910 1.391 . S
C1911 C1913 1.387 . S
C1912 C1909 1.398 . S
C1912 C1913 1.380 . S
C1912 H1926 0.930 . S
C1913 C1911 1.387 . S
C1913 C1912 1.380 . S
C1913 H1927 0.930 . S
C1914 O1894 1.254 . S
C1914 O1895 1.268 . S
C1915 O1899 1.284 . S
C1915 O1902 1.250 . S
C1916 Gd1849 2.828 . S
C1916 O1898 1.258 . S
C1916 O1903 1.252 . S
C1916 C1917 1.497 . S
C1917 C1916 1.497 . S
C1917 C1918 1.395 . S
C1917 C1919 1.380 . S
C1918 C1917 1.395 . S
C1918 C1921 1.398 . S
C1918 H1928 0.930 . S
C1919 C1917 1.380 . S
C1919 C1920 1.391 . S
C1919 H1929 0.930 . S
C1920 C1919 1.391 . S
C1920 C1922 1.387 . S
C1921 C1918 1.398 . S
C1921 C1922 1.380 . S
C1921 H1930 0.930 . S
C1922 C1920 1.387 . S
C1922 C1921 1.380 . S
C1922 H1931 0.930 . S
C1923 O1900 1.254 . S
C1923 O1901 1.268 . S
H1924 C1909 0.930 . S
H1925 C1910 0.930 . S
H1926 C1912 0.930 . S
H1927 C1913 0.930 . S
H1928 C1918 0.930 . S
H1929 C1919 0.930 . S
H1930 C1921 0.930 . S
H1931 C1922 0.930 . S
Gd1932 N1963 2.661 . S
Gd1932 N1969 2.601 . S
Gd1932 O1976 2.545 . S
Gd1932 O1977 2.606 . S
Gd1932 O1979 2.429 . S
Gd1932 O1980 2.545 . S
Gd1932 O1981 2.412 . S
Gd1932 O1983 2.362 . S
Gd1932 O1984 2.324 . S
Gd1932 C1991 2.828 . S
Gd1933 N1942 2.661 . S
Gd1933 N1946 2.601 . S
Gd1933 O1977 2.362 . S
Gd1933 O1978 2.324 . S
Gd1933 O1982 2.545 . S
Gd1933 O1983 2.606 . S
Gd1933 O1985 2.429 . S
Gd1933 O1986 2.545 . S
Gd1933 O1987 2.412 . S
Gd1933 C2000 2.828 . S
C1934 C1937 1.417 . S
C1934 C1939 1.431 . S
C1934 C1940 1.412 . S
C1935 C1938 1.437 . S
C1935 C1939 1.317 . S
C1935 H1954 0.929 . S
C1936 C1937 1.426 . S
C1936 C1938 1.413 . S
C1936 N1946 1.359 . S
C1937 C1934 1.417 . S
C1937 C1936 1.426 . S
C1937 N1942 1.350 . S
C1938 C1935 1.437 . S
C1938 C1936 1.413 . S
C1938 C1948 1.391 . S
C1939 C1934 1.431 . S
C1939 C1935 1.317 . S
C1939 H1950 0.930 . S
C1940 C1934 1.412 . S
C1940 C1941 1.355 . S
C1940 H1952 0.930 . S
C1941 C1940 1.355 . S
C1941 C1943 1.402 . S
C1941 H1953 0.930 . S
N1942 Gd1933 2.661 . S
N1942 C1937 1.350 . S
N1942 C1943 1.307 . S
C1943 C1941 1.402 . S
C1943 N1942 1.307 . S
C1943 H1944 0.930 . S
H1944 C1943 0.930 . S
C1945 N1946 1.334 . S
C1945 C1947 1.394 . S
C1945 H1949 0.930 . S
N1946 Gd1933 2.601 . S
N1946 C1936 1.359 . S
N1946 C1945 1.334 . S
C1947 C1945 1.394 . S
C1947 C1948 1.359 . S
C1947 H1959 0.930 . S
C1948 C1938 1.391 . S
C1948 C1947 1.359 . S
C1948 H1960 0.929 . S
H1949 C1945 0.930 . S
H1950 C1939 0.930 . S
H1951 C1968 0.930 . S
H1952 C1940 0.930 . S
H1953 C1941 0.930 . S
H1954 C1935 0.929 . S
H1955 C1973 0.930 . S
H1956 C1964 0.930 . S
H1957 C1965 0.930 . S
H1958 C1989 0.929 . S
H1959 C1947 0.930 . S
H1960 C1948 0.929 . S
H1961 C1990 0.930 . S
H1962 C1971 0.930 . S
N1963 Gd1932 2.661 . S
N1963 C1967 1.350 . S
N1963 C1968 1.307 . S
C1964 H1956 0.930 . S
C1964 C1965 1.355 . S
C1964 C1966 1.412 . S
C1965 H1957 0.930 . S
C1965 C1964 1.355 . S
C1965 C1968 1.402 . S
C1966 C1964 1.412 . S
C1966 C1967 1.417 . S
C1966 C1990 1.431 . S
C1967 N1963 1.350 . S
C1967 C1966 1.417 . S
C1967 C1970 1.426 . S
C1968 H1951 0.930 . S
C1968 N1963 1.307 . S
C1968 C1965 1.402 . S
N1969 Gd1932 2.601 . S
N1969 C1970 1.359 . S
N1969 C1973 1.334 . S
C1970 C1967 1.426 . S
C1970 N1969 1.359 . S
C1970 C1974 1.413 . S
C1971 H1962 0.930 . S
C1971 C1972 1.359 . S
C1971 C1973 1.394 . S
C1972 C1971 1.359 . S
C1972 C1974 1.391 . S
C1972 H1975 0.929 . S
C1973 H1955 0.930 . S
C1973 N1969 1.334 . S
C1973 C1971 1.394 . S
C1974 C1970 1.413 . S
C1974 C1972 1.391 . S
C1974 C1989 1.437 . S
H1975 C1972 0.929 . S
O1976 Gd1932 2.545 . S
O1976 C1991 1.258 . S
O1977 Gd1932 2.606 . S
O1977 Gd1933 2.362 . S
O1977 C1988 1.284 . S
O1978 Gd1933 2.324 . S
O1978 C1998 1.254 . S
O1979 Gd1932 2.429 . S
O1979 C1998 1.268 . S
O1980 Gd1932 2.545 . S
O1980 C1988 1.250 . S
O1981 Gd1932 2.412 . S
O1981 C1991 1.252 . S
O1982 Gd1933 2.545 . S
O1982 C2000 1.258 . S
O1983 Gd1932 2.362 . S
O1983 Gd1933 2.606 . S
O1983 C1999 1.284 . S
O1984 Gd1932 2.324 . S
O1984 C2007 1.254 . S
O1985 Gd1933 2.429 . S
O1985 C2007 1.268 . S
O1986 Gd1933 2.545 . S
O1986 C1999 1.250 . S
O1987 Gd1933 2.412 . S
O1987 C2000 1.252 . S
C1988 O1977 1.284 . S
C1988 O1980 1.250 . S
C1989 H1958 0.929 . S
C1989 C1974 1.437 . S
C1989 C1990 1.317 . S
C1990 H1961 0.930 . S
C1990 C1966 1.431 . S
C1990 C1989 1.317 . S
C1991 Gd1932 2.828 . S
C1991 O1976 1.258 . S
C1991 O1981 1.252 . S
C1991 C1992 1.497 . S
C1992 C1991 1.497 . S
C1992 C1993 1.395 . S
C1992 C1994 1.380 . S
C1993 C1992 1.395 . S
C1993 C1996 1.398 . S
C1993 H2008 0.930 . S
C1994 C1992 1.380 . S
C1994 C1995 1.391 . S
C1994 H2009 0.930 . S
C1995 C1994 1.391 . S
C1995 C1997 1.387 . S
C1996 C1993 1.398 . S
C1996 C1997 1.380 . S
C1996 H2010 0.930 . S
C1997 C1995 1.387 . S
C1997 C1996 1.380 . S
C1997 H2011 0.930 . S
C1998 O1978 1.254 . S
C1998 O1979 1.268 . S
C1999 O1983 1.284 . S
C1999 O1986 1.250 . S
C2000 Gd1933 2.828 . S
C2000 O1982 1.258 . S
C2000 O1987 1.252 . S
C2000 C2001 1.497 . S
C2001 C2000 1.497 . S
C2001 C2002 1.395 . S
C2001 C2003 1.380 . S
C2002 C2001 1.395 . S
C2002 C2005 1.398 . S
C2002 H2012 0.930 . S
C2003 C2001 1.380 . S
C2003 C2004 1.391 . S
C2003 H2013 0.930 . S
C2004 C2003 1.391 . S
C2004 C2006 1.387 . S
C2005 C2002 1.398 . S
C2005 C2006 1.380 . S
C2005 H2014 0.930 . S
C2006 C2004 1.387 . S
C2006 C2005 1.380 . S
C2006 H2015 0.930 . S
C2007 O1984 1.254 . S
C2007 O1985 1.268 . S
H2008 C1993 0.930 . S
H2009 C1994 0.930 . S
H2010 C1996 0.930 . S
H2011 C1997 0.930 . S
H2012 C2002 0.930 . S
H2013 C2003 0.930 . S
H2014 C2005 0.930 . S
H2015 C2006 0.930 . S
C2016 C2017 1.391 . S
C2016 C2018 1.394 . S
C2016 H2032 0.931 . S
C2017 C2016 1.391 . S
C2017 C2021 1.376 . S
C2018 C2016 1.394 . S
C2018 C2019 1.369 . S
C2018 C2022 1.531 . S
C2019 C2018 1.369 . S
C2019 C2020 1.410 . S
C2019 C2027 1.503 . S
C2020 C2019 1.410 . S
C2020 C2021 1.392 . S
C2020 C2023 1.511 . S
C2021 C2017 1.376 . S
C2021 C2020 1.392 . S
C2021 H2033 0.929 . S
C2022 C2018 1.531 . S
C2022 H2034 0.960 . S
C2022 H2035 0.962 . S
C2022 H2036 0.960 . S
C2023 C2020 1.511 . S
C2023 H2037 0.961 . S
C2023 H2038 0.961 . S
C2023 H2039 0.961 . S
C2024 C2025 1.370 . S
C2024 C2026 1.363 . S
C2024 H2040 0.931 . S
C2025 C2024 1.370 . S
C2025 C2029 1.408 . S
C2026 C2024 1.363 . S
C2026 C2027 1.370 . S
C2026 C2030 1.524 . S
C2027 C2019 1.503 . S
C2027 C2026 1.370 . S
C2027 C2028 1.403 . S
C2028 C2027 1.403 . S
C2028 C2029 1.404 . S
C2028 C2031 1.539 . S
C2029 C2025 1.408 . S
C2029 C2028 1.404 . S
C2029 H2041 0.930 . S
C2030 C2026 1.524 . S
C2030 H2042 0.956 . S
C2030 H2043 0.961 . S
C2030 H2044 0.961 . S
C2031 C2028 1.539 . S
C2031 H2045 0.958 . S
C2031 H2046 0.961 . S
C2031 H2047 0.960 . S
H2032 C2016 0.931 . S
H2033 C2021 0.929 . S
H2034 C2022 0.960 . S
H2035 C2022 0.962 . S
H2036 C2022 0.960 . S
H2037 C2023 0.961 . S
H2038 C2023 0.961 . S
H2039 C2023 0.961 . S
H2040 C2024 0.931 . S
H2041 C2029 0.930 . S
H2042 C2030 0.956 . S
H2043 C2030 0.961 . S
H2044 C2030 0.961 . S
H2045 C2031 0.958 . S
H2046 C2031 0.961 . S
H2047 C2031 0.960 . S
C2048 C2049 1.391 . S
C2048 C2050 1.394 . S
C2048 H2064 0.931 . S
C2049 C2048 1.391 . S
C2049 C2053 1.376 . S
C2050 C2048 1.394 . S
C2050 C2051 1.369 . S
C2050 C2054 1.531 . S
C2051 C2050 1.369 . S
C2051 C2052 1.410 . S
C2051 C2059 1.503 . S
C2052 C2051 1.410 . S
C2052 C2053 1.392 . S
C2052 C2055 1.511 . S
C2053 C2049 1.376 . S
C2053 C2052 1.392 . S
C2053 H2065 0.929 . S
C2054 C2050 1.531 . S
C2054 H2066 0.960 . S
C2054 H2067 0.962 . S
C2054 H2068 0.960 . S
C2055 C2052 1.511 . S
C2055 H2069 0.961 . S
C2055 H2070 0.961 . S
C2055 H2071 0.961 . S
C2056 C2057 1.370 . S
C2056 C2058 1.363 . S
C2056 H2072 0.931 . S
C2057 C2056 1.370 . S
C2057 C2061 1.408 . S
C2058 C2056 1.363 . S
C2058 C2059 1.370 . S
C2058 C2062 1.524 . S
C2059 C2051 1.503 . S
C2059 C2058 1.370 . S
C2059 C2060 1.403 . S
C2060 C2059 1.403 . S
C2060 C2061 1.404 . S
C2060 C2063 1.539 . S
C2061 C2057 1.408 . S
C2061 C2060 1.404 . S
C2061 H2073 0.930 . S
C2062 C2058 1.524 . S
C2062 H2074 0.956 . S
C2062 H2075 0.961 . S
C2062 H2076 0.961 . S
C2063 C2060 1.539 . S
C2063 H2077 0.958 . S
C2063 H2078 0.961 . S
C2063 H2079 0.960 . S
H2064 C2048 0.931 . S
H2065 C2053 0.929 . S
H2066 C2054 0.960 . S
H2067 C2054 0.962 . S
H2068 C2054 0.960 . S
H2069 C2055 0.961 . S
H2070 C2055 0.961 . S
H2071 C2055 0.961 . S
H2072 C2056 0.931 . S
H2073 C2061 0.930 . S
H2074 C2062 0.956 . S
H2075 C2062 0.961 . S
H2076 C2062 0.961 . S
H2077 C2063 0.958 . S
H2078 C2063 0.961 . S
H2079 C2063 0.960 . S
C2080 C2081 1.391 . S
C2080 C2082 1.394 . S
C2080 H2096 0.931 . S
C2081 C2080 1.391 . S
C2081 C2085 1.376 . S
C2082 C2080 1.394 . S
C2082 C2083 1.369 . S
C2082 C2086 1.531 . S
C2083 C2082 1.369 . S
C2083 C2084 1.410 . S
C2083 C2091 1.503 . S
C2084 C2083 1.410 . S
C2084 C2085 1.392 . S
C2084 C2087 1.511 . S
C2085 C2081 1.376 . S
C2085 C2084 1.392 . S
C2085 H2097 0.929 . S
C2086 C2082 1.531 . S
C2086 H2098 0.960 . S
C2086 H2099 0.962 . S
C2086 H2100 0.960 . S
C2087 C2084 1.511 . S
C2087 H2101 0.961 . S
C2087 H2102 0.961 . S
C2087 H2103 0.961 . S
C2088 C2089 1.370 . S
C2088 C2090 1.363 . S
C2088 H2104 0.931 . S
C2089 C2088 1.370 . S
C2089 C2093 1.408 . S
C2090 C2088 1.363 . S
C2090 C2091 1.370 . S
C2090 C2094 1.524 . S
C2091 C2083 1.503 . S
C2091 C2090 1.370 . S
C2091 C2092 1.403 . S
C2092 C2091 1.403 . S
C2092 C2093 1.404 . S
C2092 C2095 1.539 . S
C2093 C2089 1.408 . S
C2093 C2092 1.404 . S
C2093 H2105 0.930 . S
C2094 C2090 1.524 . S
C2094 H2106 0.956 . S
C2094 H2107 0.961 . S
C2094 H2108 0.961 . S
C2095 C2092 1.539 . S
C2095 H2109 0.958 . S
C2095 H2110 0.961 . S
C2095 H2111 0.960 . S
H2096 C2080 0.931 . S
H2097 C2085 0.929 . S
H2098 C2086 0.960 . S
H2099 C2086 0.962 . S
H2100 C2086 0.960 . S
H2101 C2087 0.961 . S
H2102 C2087 0.961 . S
H2103 C2087 0.961 . S
H2104 C2088 0.931 . S
H2105 C2093 0.930 . S
H2106 C2094 0.956 . S
H2107 C2094 0.961 . S
H2108 C2094 0.961 . S
H2109 C2095 0.958 . S
H2110 C2095 0.961 . S
H2111 C2095 0.960 . S
C2112 C2113 1.391 . S
C2112 C2114 1.394 . S
C2112 H2128 0.931 . S
C2113 C2112 1.391 . S
C2113 C2117 1.376 . S
C2114 C2112 1.394 . S
C2114 C2115 1.369 . S
C2114 C2118 1.531 . S
C2115 C2114 1.369 . S
C2115 C2116 1.410 . S
C2115 C2123 1.503 . S
C2116 C2115 1.410 . S
C2116 C2117 1.392 . S
C2116 C2119 1.511 . S
C2117 C2113 1.376 . S
C2117 C2116 1.392 . S
C2117 H2129 0.929 . S
C2118 C2114 1.531 . S
C2118 H2130 0.960 . S
C2118 H2131 0.962 . S
C2118 H2132 0.960 . S
C2119 C2116 1.511 . S
C2119 H2133 0.961 . S
C2119 H2134 0.961 . S
C2119 H2135 0.961 . S
C2120 C2121 1.370 . S
C2120 C2122 1.363 . S
C2120 H2136 0.931 . S
C2121 C2120 1.370 . S
C2121 C2125 1.408 . S
C2122 C2120 1.363 . S
C2122 C2123 1.370 . S
C2122 C2126 1.524 . S
C2123 C2115 1.503 . S
C2123 C2122 1.370 . S
C2123 C2124 1.403 . S
C2124 C2123 1.403 . S
C2124 C2125 1.404 . S
C2124 C2127 1.539 . S
C2125 C2121 1.408 . S
C2125 C2124 1.404 . S
C2125 H2137 0.930 . S
C2126 C2122 1.524 . S
C2126 H2138 0.956 . S
C2126 H2139 0.961 . S
C2126 H2140 0.961 . S
C2127 C2124 1.539 . S
C2127 H2141 0.958 . S
C2127 H2142 0.961 . S
C2127 H2143 0.960 . S
H2128 C2112 0.931 . S
H2129 C2117 0.929 . S
H2130 C2118 0.960 . S
H2131 C2118 0.962 . S
H2132 C2118 0.960 . S
H2133 C2119 0.961 . S
H2134 C2119 0.961 . S
H2135 C2119 0.961 . S
H2136 C2120 0.931 . S
H2137 C2125 0.930 . S
H2138 C2126 0.956 . S
H2139 C2126 0.961 . S
H2140 C2126 0.961 . S
H2141 C2127 0.958 . S
H2142 C2127 0.961 . S
H2143 C2127 0.960 . S
C2144 C2145 1.391 . S
C2144 C2146 1.394 . S
C2144 H2160 0.931 . S
C2145 C2144 1.391 . S
C2145 C2149 1.376 . S
C2146 C2144 1.394 . S
C2146 C2147 1.369 . S
C2146 C2150 1.531 . S
C2147 C2146 1.369 . S
C2147 C2148 1.410 . S
C2147 C2155 1.503 . S
C2148 C2147 1.410 . S
C2148 C2149 1.392 . S
C2148 C2151 1.511 . S
C2149 C2145 1.376 . S
C2149 C2148 1.392 . S
C2149 H2161 0.929 . S
C2150 C2146 1.531 . S
C2150 H2162 0.960 . S
C2150 H2163 0.962 . S
C2150 H2164 0.960 . S
C2151 C2148 1.511 . S
C2151 H2165 0.961 . S
C2151 H2166 0.961 . S
C2151 H2167 0.961 . S
C2152 C2153 1.370 . S
C2152 C2154 1.363 . S
C2152 H2168 0.931 . S
C2153 C2152 1.370 . S
C2153 C2157 1.408 . S
C2154 C2152 1.363 . S
C2154 C2155 1.370 . S
C2154 C2158 1.524 . S
C2155 C2147 1.503 . S
C2155 C2154 1.370 . S
C2155 C2156 1.403 . S
C2156 C2155 1.403 . S
C2156 C2157 1.404 . S
C2156 C2159 1.539 . S
C2157 C2153 1.408 . S
C2157 C2156 1.404 . S
C2157 H2169 0.930 . S
C2158 C2154 1.524 . S
C2158 H2170 0.956 . S
C2158 H2171 0.961 . S
C2158 H2172 0.961 . S
C2159 C2156 1.539 . S
C2159 H2173 0.958 . S
C2159 H2174 0.961 . S
C2159 H2175 0.960 . S
H2160 C2144 0.931 . S
H2161 C2149 0.929 . S
H2162 C2150 0.960 . S
H2163 C2150 0.962 . S
H2164 C2150 0.960 . S
H2165 C2151 0.961 . S
H2166 C2151 0.961 . S
H2167 C2151 0.961 . S
H2168 C2152 0.931 . S
H2169 C2157 0.930 . S
H2170 C2158 0.956 . S
H2171 C2158 0.961 . S
H2172 C2158 0.961 . S
H2173 C2159 0.958 . S
H2174 C2159 0.961 . S
H2175 C2159 0.960 . S
C2176 C2177 1.391 . S
C2176 C2178 1.394 . S
C2176 H2192 0.931 . S
C2177 C2176 1.391 . S
C2177 C2181 1.376 . S
C2178 C2176 1.394 . S
C2178 C2179 1.369 . S
C2178 C2182 1.531 . S
C2179 C2178 1.369 . S
C2179 C2180 1.410 . S
C2179 C2187 1.503 . S
C2180 C2179 1.410 . S
C2180 C2181 1.392 . S
C2180 C2183 1.511 . S
C2181 C2177 1.376 . S
C2181 C2180 1.392 . S
C2181 H2193 0.929 . S
C2182 C2178 1.531 . S
C2182 H2194 0.960 . S
C2182 H2195 0.962 . S
C2182 H2196 0.960 . S
C2183 C2180 1.511 . S
C2183 H2197 0.961 . S
C2183 H2198 0.961 . S
C2183 H2199 0.961 . S
C2184 C2185 1.370 . S
C2184 C2186 1.363 . S
C2184 H2200 0.931 . S
C2185 C2184 1.370 . S
C2185 C2189 1.408 . S
C2186 C2184 1.363 . S
C2186 C2187 1.370 . S
C2186 C2190 1.524 . S
C2187 C2179 1.503 . S
C2187 C2186 1.370 . S
C2187 C2188 1.403 . S
C2188 C2187 1.403 . S
C2188 C2189 1.404 . S
C2188 C2191 1.539 . S
C2189 C2185 1.408 . S
C2189 C2188 1.404 . S
C2189 H2201 0.930 . S
C2190 C2186 1.524 . S
C2190 H2202 0.956 . S
C2190 H2203 0.961 . S
C2190 H2204 0.961 . S
C2191 C2188 1.539 . S
C2191 H2205 0.958 . S
C2191 H2206 0.961 . S
C2191 H2207 0.960 . S
H2192 C2176 0.931 . S
H2193 C2181 0.929 . S
H2194 C2182 0.960 . S
H2195 C2182 0.962 . S
H2196 C2182 0.960 . S
H2197 C2183 0.961 . S
H2198 C2183 0.961 . S
H2199 C2183 0.961 . S
H2200 C2184 0.931 . S
H2201 C2189 0.930 . S
H2202 C2190 0.956 . S
H2203 C2190 0.961 . S
H2204 C2190 0.961 . S
H2205 C2191 0.958 . S
H2206 C2191 0.961 . S
H2207 C2191 0.960 . S
C2208 C2209 1.391 . S
C2208 C2210 1.394 . S
C2208 H2224 0.931 . S
C2209 C2208 1.391 . S
C2209 C2213 1.376 . S
C2210 C2208 1.394 . S
C2210 C2211 1.369 . S
C2210 C2214 1.531 . S
C2211 C2210 1.369 . S
C2211 C2212 1.410 . S
C2211 C2219 1.503 . S
C2212 C2211 1.410 . S
C2212 C2213 1.392 . S
C2212 C2215 1.511 . S
C2213 C2209 1.376 . S
C2213 C2212 1.392 . S
C2213 H2225 0.929 . S
C2214 C2210 1.531 . S
C2214 H2226 0.960 . S
C2214 H2227 0.962 . S
C2214 H2228 0.960 . S
C2215 C2212 1.511 . S
C2215 H2229 0.961 . S
C2215 H2230 0.961 . S
C2215 H2231 0.961 . S
C2216 C2217 1.370 . S
C2216 C2218 1.363 . S
C2216 H2232 0.931 . S
C2217 C2216 1.370 . S
C2217 C2221 1.408 . S
C2218 C2216 1.363 . S
C2218 C2219 1.370 . S
C2218 C2222 1.524 . S
C2219 C2211 1.503 . S
C2219 C2218 1.370 . S
C2219 C2220 1.403 . S
C2220 C2219 1.403 . S
C2220 C2221 1.404 . S
C2220 C2223 1.539 . S
C2221 C2217 1.408 . S
C2221 C2220 1.404 . S
C2221 H2233 0.930 . S
C2222 C2218 1.524 . S
C2222 H2234 0.956 . S
C2222 H2235 0.961 . S
C2222 H2236 0.961 . S
C2223 C2220 1.539 . S
C2223 H2237 0.958 . S
C2223 H2238 0.961 . S
C2223 H2239 0.960 . S
H2224 C2208 0.931 . S
H2225 C2213 0.929 . S
H2226 C2214 0.960 . S
H2227 C2214 0.962 . S
H2228 C2214 0.960 . S
H2229 C2215 0.961 . S
H2230 C2215 0.961 . S
H2231 C2215 0.961 . S
H2232 C2216 0.931 . S
H2233 C2221 0.930 . S
H2234 C2222 0.956 . S
H2235 C2222 0.961 . S
H2236 C2222 0.961 . S
H2237 C2223 0.958 . S
H2238 C2223 0.961 . S
H2239 C2223 0.960 . S
C2240 C2241 1.391 . S
C2240 C2242 1.394 . S
C2240 H2256 0.931 . S
C2241 C2240 1.391 . S
C2241 C2245 1.376 . S
C2242 C2240 1.394 . S
C2242 C2243 1.369 . S
C2242 C2246 1.531 . S
C2243 C2242 1.369 . S
C2243 C2244 1.410 . S
C2243 C2251 1.503 . S
C2244 C2243 1.410 . S
C2244 C2245 1.392 . S
C2244 C2247 1.511 . S
C2245 C2241 1.376 . S
C2245 C2244 1.392 . S
C2245 H2257 0.929 . S
C2246 C2242 1.531 . S
C2246 H2258 0.960 . S
C2246 H2259 0.962 . S
C2246 H2260 0.960 . S
C2247 C2244 1.511 . S
C2247 H2261 0.961 . S
C2247 H2262 0.961 . S
C2247 H2263 0.961 . S
C2248 C2249 1.370 . S
C2248 C2250 1.363 . S
C2248 H2264 0.931 . S
C2249 C2248 1.370 . S
C2249 C2253 1.408 . S
C2250 C2248 1.363 . S
C2250 C2251 1.370 . S
C2250 C2254 1.524 . S
C2251 C2243 1.503 . S
C2251 C2250 1.370 . S
C2251 C2252 1.403 . S
C2252 C2251 1.403 . S
C2252 C2253 1.404 . S
C2252 C2255 1.539 . S
C2253 C2249 1.408 . S
C2253 C2252 1.404 . S
C2253 H2265 0.930 . S
C2254 C2250 1.524 . S
C2254 H2266 0.956 . S
C2254 H2267 0.961 . S
C2254 H2268 0.961 . S
C2255 C2252 1.539 . S
C2255 H2269 0.958 . S
C2255 H2270 0.961 . S
C2255 H2271 0.960 . S
H2256 C2240 0.931 . S
H2257 C2245 0.929 . S
H2258 C2246 0.960 . S
H2259 C2246 0.962 . S
H2260 C2246 0.960 . S
H2261 C2247 0.961 . S
H2262 C2247 0.961 . S
H2263 C2247 0.961 . S
H2264 C2248 0.931 . S
H2265 C2253 0.930 . S
H2266 C2254 0.956 . S
H2267 C2254 0.961 . S
H2268 C2254 0.961 . S
H2269 C2255 0.958 . S
H2270 C2255 0.961 . S
H2271 C2255 0.960 . S
C2272 C2273 1.391 . S
C2272 C2274 1.394 . S
C2272 H2288 0.931 . S
C2273 C2272 1.391 . S
C2273 C2277 1.376 . S
C2274 C2272 1.394 . S
C2274 C2275 1.369 . S
C2274 C2278 1.531 . S
C2275 C2274 1.369 . S
C2275 C2276 1.410 . S
C2275 C2283 1.503 . S
C2276 C2275 1.410 . S
C2276 C2277 1.392 . S
C2276 C2279 1.511 . S
C2277 C2273 1.376 . S
C2277 C2276 1.392 . S
C2277 H2289 0.929 . S
C2278 C2274 1.531 . S
C2278 H2290 0.960 . S
C2278 H2291 0.962 . S
C2278 H2292 0.960 . S
C2279 C2276 1.511 . S
C2279 H2293 0.961 . S
C2279 H2294 0.961 . S
C2279 H2295 0.961 . S
C2280 C2281 1.370 . S
C2280 C2282 1.363 . S
C2280 H2296 0.931 . S
C2281 C2280 1.370 . S
C2281 C2285 1.408 . S
C2282 C2280 1.363 . S
C2282 C2283 1.370 . S
C2282 C2286 1.524 . S
C2283 C2275 1.503 . S
C2283 C2282 1.370 . S
C2283 C2284 1.403 . S
C2284 C2283 1.403 . S
C2284 C2285 1.404 . S
C2284 C2287 1.539 . S
C2285 C2281 1.408 . S
C2285 C2284 1.404 . S
C2285 H2297 0.930 . S
C2286 C2282 1.524 . S
C2286 H2298 0.956 . S
C2286 H2299 0.961 . S
C2286 H2300 0.961 . S
C2287 C2284 1.539 . S
C2287 H2301 0.958 . S
C2287 H2302 0.961 . S
C2287 H2303 0.960 . S
H2288 C2272 0.931 . S
H2289 C2277 0.929 . S
H2290 C2278 0.960 . S
H2291 C2278 0.962 . S
H2292 C2278 0.960 . S
H2293 C2279 0.961 . S
H2294 C2279 0.961 . S
H2295 C2279 0.961 . S
H2296 C2280 0.931 . S
H2297 C2285 0.930 . S
H2298 C2286 0.956 . S
H2299 C2286 0.961 . S
H2300 C2286 0.961 . S
H2301 C2287 0.958 . S
H2302 C2287 0.961 . S
H2303 C2287 0.960 . S
C2304 C2305 1.391 . S
C2304 C2306 1.394 . S
C2304 H2320 0.931 . S
C2305 C2304 1.391 . S
C2305 C2309 1.376 . S
C2306 C2304 1.394 . S
C2306 C2307 1.369 . S
C2306 C2310 1.531 . S
C2307 C2306 1.369 . S
C2307 C2308 1.410 . S
C2307 C2315 1.503 . S
C2308 C2307 1.410 . S
C2308 C2309 1.392 . S
C2308 C2311 1.511 . S
C2309 C2305 1.376 . S
C2309 C2308 1.392 . S
C2309 H2321 0.929 . S
C2310 C2306 1.531 . S
C2310 H2322 0.960 . S
C2310 H2323 0.962 . S
C2310 H2324 0.960 . S
C2311 C2308 1.511 . S
C2311 H2325 0.961 . S
C2311 H2326 0.961 . S
C2311 H2327 0.961 . S
C2312 C2313 1.370 . S
C2312 C2314 1.363 . S
C2312 H2328 0.931 . S
C2313 C2312 1.370 . S
C2313 C2317 1.408 . S
C2314 C2312 1.363 . S
C2314 C2315 1.370 . S
C2314 C2318 1.524 . S
C2315 C2307 1.503 . S
C2315 C2314 1.370 . S
C2315 C2316 1.403 . S
C2316 C2315 1.403 . S
C2316 C2317 1.404 . S
C2316 C2319 1.539 . S
C2317 C2313 1.408 . S
C2317 C2316 1.404 . S
C2317 H2329 0.930 . S
C2318 C2314 1.524 . S
C2318 H2330 0.956 . S
C2318 H2331 0.961 . S
C2318 H2332 0.961 . S
C2319 C2316 1.539 . S
C2319 H2333 0.958 . S
C2319 H2334 0.961 . S
C2319 H2335 0.960 . S
H2320 C2304 0.931 . S
H2321 C2309 0.929 . S
H2322 C2310 0.960 . S
H2323 C2310 0.962 . S
H2324 C2310 0.960 . S
H2325 C2311 0.961 . S
H2326 C2311 0.961 . S
H2327 C2311 0.961 . S
H2328 C2312 0.931 . S
H2329 C2317 0.930 . S
H2330 C2318 0.956 . S
H2331 C2318 0.961 . S
H2332 C2318 0.961 . S
H2333 C2319 0.958 . S
H2334 C2319 0.961 . S
H2335 C2319 0.960 . S
C2336 C2337 1.391 . S
C2336 C2338 1.394 . S
C2336 H2352 0.931 . S
C2337 C2336 1.391 . S
C2337 C2341 1.376 . S
C2338 C2336 1.394 . S
C2338 C2339 1.369 . S
C2338 C2342 1.531 . S
C2339 C2338 1.369 . S
C2339 C2340 1.410 . S
C2339 C2347 1.503 . S
C2340 C2339 1.410 . S
C2340 C2341 1.392 . S
C2340 C2343 1.511 . S
C2341 C2337 1.376 . S
C2341 C2340 1.392 . S
C2341 H2353 0.929 . S
C2342 C2338 1.531 . S
C2342 H2354 0.960 . S
C2342 H2355 0.962 . S
C2342 H2356 0.960 . S
C2343 C2340 1.511 . S
C2343 H2357 0.961 . S
C2343 H2358 0.961 . S
C2343 H2359 0.961 . S
C2344 C2345 1.370 . S
C2344 C2346 1.363 . S
C2344 H2360 0.931 . S
C2345 C2344 1.370 . S
C2345 C2349 1.408 . S
C2346 C2344 1.363 . S
C2346 C2347 1.370 . S
C2346 C2350 1.524 . S
C2347 C2339 1.503 . S
C2347 C2346 1.370 . S
C2347 C2348 1.403 . S
C2348 C2347 1.403 . S
C2348 C2349 1.404 . S
C2348 C2351 1.539 . S
C2349 C2345 1.408 . S
C2349 C2348 1.404 . S
C2349 H2361 0.930 . S
C2350 C2346 1.524 . S
C2350 H2362 0.956 . S
C2350 H2363 0.961 . S
C2350 H2364 0.961 . S
C2351 C2348 1.539 . S
C2351 H2365 0.958 . S
C2351 H2366 0.961 . S
C2351 H2367 0.960 . S
H2352 C2336 0.931 . S
H2353 C2341 0.929 . S
H2354 C2342 0.960 . S
H2355 C2342 0.962 . S
H2356 C2342 0.960 . S
H2357 C2343 0.961 . S
H2358 C2343 0.961 . S
H2359 C2343 0.961 . S
H2360 C2344 0.931 . S
H2361 C2349 0.930 . S
H2362 C2350 0.956 . S
H2363 C2350 0.961 . S
H2364 C2350 0.961 . S
H2365 C2351 0.958 . S
H2366 C2351 0.961 . S
H2367 C2351 0.960 . S
C2368 C2369 1.391 . S
C2368 C2370 1.394 . S
C2368 H2384 0.931 . S
C2369 C2368 1.391 . S
C2369 C2373 1.376 . S
C2370 C2368 1.394 . S
C2370 C2371 1.369 . S
C2370 C2374 1.531 . S
C2371 C2370 1.369 . S
C2371 C2372 1.410 . S
C2371 C2379 1.503 . S
C2372 C2371 1.410 . S
C2372 C2373 1.392 . S
C2372 C2375 1.511 . S
C2373 C2369 1.376 . S
C2373 C2372 1.392 . S
C2373 H2385 0.929 . S
C2374 C2370 1.531 . S
C2374 H2386 0.960 . S
C2374 H2387 0.962 . S
C2374 H2388 0.960 . S
C2375 C2372 1.511 . S
C2375 H2389 0.961 . S
C2375 H2390 0.961 . S
C2375 H2391 0.961 . S
C2376 C2377 1.370 . S
C2376 C2378 1.363 . S
C2376 H2392 0.931 . S
C2377 C2376 1.370 . S
C2377 C2381 1.408 . S
C2378 C2376 1.363 . S
C2378 C2379 1.370 . S
C2378 C2382 1.524 . S
C2379 C2371 1.503 . S
C2379 C2378 1.370 . S
C2379 C2380 1.403 . S
C2380 C2379 1.403 . S
C2380 C2381 1.404 . S
C2380 C2383 1.539 . S
C2381 C2377 1.408 . S
C2381 C2380 1.404 . S
C2381 H2393 0.930 . S
C2382 C2378 1.524 . S
C2382 H2394 0.956 . S
C2382 H2395 0.961 . S
C2382 H2396 0.961 . S
C2383 C2380 1.539 . S
C2383 H2397 0.958 . S
C2383 H2398 0.961 . S
C2383 H2399 0.960 . S
H2384 C2368 0.931 . S
H2385 C2373 0.929 . S
H2386 C2374 0.960 . S
H2387 C2374 0.962 . S
H2388 C2374 0.960 . S
H2389 C2375 0.961 . S
H2390 C2375 0.961 . S
H2391 C2375 0.961 . S
H2392 C2376 0.931 . S
H2393 C2381 0.930 . S
H2394 C2382 0.956 . S
H2395 C2382 0.961 . S
H2396 C2382 0.961 . S
H2397 C2383 0.958 . S
H2398 C2383 0.961 . S
H2399 C2383 0.960 . S
C2400 C2401 1.391 . S
C2400 C2402 1.394 . S
C2400 H2416 0.931 . S
C2401 C2400 1.391 . S
C2401 C2405 1.376 . S
C2402 C2400 1.394 . S
C2402 C2403 1.369 . S
C2402 C2406 1.531 . S
C2403 C2402 1.369 . S
C2403 C2404 1.410 . S
C2403 C2411 1.503 . S
C2404 C2403 1.410 . S
C2404 C2405 1.392 . S
C2404 C2407 1.511 . S
C2405 C2401 1.376 . S
C2405 C2404 1.392 . S
C2405 H2417 0.929 . S
C2406 C2402 1.531 . S
C2406 H2418 0.960 . S
C2406 H2419 0.962 . S
C2406 H2420 0.960 . S
C2407 C2404 1.511 . S
C2407 H2421 0.961 . S
C2407 H2422 0.961 . S
C2407 H2423 0.961 . S
C2408 C2409 1.370 . S
C2408 C2410 1.363 . S
C2408 H2424 0.931 . S
C2409 C2408 1.370 . S
C2409 C2413 1.408 . S
C2410 C2408 1.363 . S
C2410 C2411 1.370 . S
C2410 C2414 1.524 . S
C2411 C2403 1.503 . S
C2411 C2410 1.370 . S
C2411 C2412 1.403 . S
C2412 C2411 1.403 . S
C2412 C2413 1.404 . S
C2412 C2415 1.539 . S
C2413 C2409 1.408 . S
C2413 C2412 1.404 . S
C2413 H2425 0.930 . S
C2414 C2410 1.524 . S
C2414 H2426 0.956 . S
C2414 H2427 0.961 . S
C2414 H2428 0.961 . S
C2415 C2412 1.539 . S
C2415 H2429 0.958 . S
C2415 H2430 0.961 . S
C2415 H2431 0.960 . S
H2416 C2400 0.931 . S
H2417 C2405 0.929 . S
H2418 C2406 0.960 . S
H2419 C2406 0.962 . S
H2420 C2406 0.960 . S
H2421 C2407 0.961 . S
H2422 C2407 0.961 . S
H2423 C2407 0.961 . S
H2424 C2408 0.931 . S
H2425 C2413 0.930 . S
H2426 C2414 0.956 . S
H2427 C2414 0.961 . S
H2428 C2414 0.961 . S
H2429 C2415 0.958 . S
H2430 C2415 0.961 . S
H2431 C2415 0.960 . S
C2432 C2433 1.391 . S
C2432 C2434 1.394 . S
C2432 H2448 0.931 . S
C2433 C2432 1.391 . S
C2433 C2437 1.376 . S
C2434 C2432 1.394 . S
C2434 C2435 1.369 . S
C2434 C2438 1.531 . S
C2435 C2434 1.369 . S
C2435 C2436 1.410 . S
C2435 C2443 1.503 . S
C2436 C2435 1.410 . S
C2436 C2437 1.392 . S
C2436 C2439 1.511 . S
C2437 C2433 1.376 . S
C2437 C2436 1.392 . S
C2437 H2449 0.929 . S
C2438 C2434 1.531 . S
C2438 H2450 0.960 . S
C2438 H2451 0.962 . S
C2438 H2452 0.960 . S
C2439 C2436 1.511 . S
C2439 H2453 0.961 . S
C2439 H2454 0.961 . S
C2439 H2455 0.961 . S
C2440 C2441 1.370 . S
C2440 C2442 1.363 . S
C2440 H2456 0.931 . S
C2441 C2440 1.370 . S
C2441 C2445 1.408 . S
C2442 C2440 1.363 . S
C2442 C2443 1.370 . S
C2442 C2446 1.524 . S
C2443 C2435 1.503 . S
C2443 C2442 1.370 . S
C2443 C2444 1.403 . S
C2444 C2443 1.403 . S
C2444 C2445 1.404 . S
C2444 C2447 1.539 . S
C2445 C2441 1.408 . S
C2445 C2444 1.404 . S
C2445 H2457 0.930 . S
C2446 C2442 1.524 . S
C2446 H2458 0.956 . S
C2446 H2459 0.961 . S
C2446 H2460 0.961 . S
C2447 C2444 1.539 . S
C2447 H2461 0.958 . S
C2447 H2462 0.961 . S
C2447 H2463 0.960 . S
H2448 C2432 0.931 . S
H2449 C2437 0.929 . S
H2450 C2438 0.960 . S
H2451 C2438 0.962 . S
H2452 C2438 0.960 . S
H2453 C2439 0.961 . S
H2454 C2439 0.961 . S
H2455 C2439 0.961 . S
H2456 C2440 0.931 . S
H2457 C2445 0.930 . S
H2458 C2446 0.956 . S
H2459 C2446 0.961 . S
H2460 C2446 0.961 . S
H2461 C2447 0.958 . S
H2462 C2447 0.961 . S
H2463 C2447 0.960 . S
C2464 C2465 1.391 . S
C2464 C2466 1.394 . S
C2464 H2480 0.931 . S
C2465 C2464 1.391 . S
C2465 C2469 1.376 . S
C2466 C2464 1.394 . S
C2466 C2467 1.369 . S
C2466 C2470 1.531 . S
C2467 C2466 1.369 . S
C2467 C2468 1.410 . S
C2467 C2475 1.503 . S
C2468 C2467 1.410 . S
C2468 C2469 1.392 . S
C2468 C2471 1.511 . S
C2469 C2465 1.376 . S
C2469 C2468 1.392 . S
C2469 H2481 0.929 . S
C2470 C2466 1.531 . S
C2470 H2482 0.960 . S
C2470 H2483 0.962 . S
C2470 H2484 0.960 . S
C2471 C2468 1.511 . S
C2471 H2485 0.961 . S
C2471 H2486 0.961 . S
C2471 H2487 0.961 . S
C2472 C2473 1.370 . S
C2472 C2474 1.363 . S
C2472 H2488 0.931 . S
C2473 C2472 1.370 . S
C2473 C2477 1.408 . S
C2474 C2472 1.363 . S
C2474 C2475 1.370 . S
C2474 C2478 1.524 . S
C2475 C2467 1.503 . S
C2475 C2474 1.370 . S
C2475 C2476 1.403 . S
C2476 C2475 1.403 . S
C2476 C2477 1.404 . S
C2476 C2479 1.539 . S
C2477 C2473 1.408 . S
C2477 C2476 1.404 . S
C2477 H2489 0.930 . S
C2478 C2474 1.524 . S
C2478 H2490 0.956 . S
C2478 H2491 0.961 . S
C2478 H2492 0.961 . S
C2479 C2476 1.539 . S
C2479 H2493 0.958 . S
C2479 H2494 0.961 . S
C2479 H2495 0.960 . S
H2480 C2464 0.931 . S
H2481 C2469 0.929 . S
H2482 C2470 0.960 . S
H2483 C2470 0.962 . S
H2484 C2470 0.960 . S
H2485 C2471 0.961 . S
H2486 C2471 0.961 . S
H2487 C2471 0.961 . S
H2488 C2472 0.931 . S
H2489 C2477 0.930 . S
H2490 C2478 0.956 . S
H2491 C2478 0.961 . S
H2492 C2478 0.961 . S
H2493 C2479 0.958 . S
H2494 C2479 0.961 . S
H2495 C2479 0.960 . S
C2496 C2497 1.391 . S
C2496 C2498 1.394 . S
C2496 H2512 0.931 . S
C2497 C2496 1.391 . S
C2497 C2501 1.376 . S
C2498 C2496 1.394 . S
C2498 C2499 1.369 . S
C2498 C2502 1.531 . S
C2499 C2498 1.369 . S
C2499 C2500 1.410 . S
C2499 C2507 1.503 . S
C2500 C2499 1.410 . S
C2500 C2501 1.392 . S
C2500 C2503 1.511 . S
C2501 C2497 1.376 . S
C2501 C2500 1.392 . S
C2501 H2513 0.929 . S
C2502 C2498 1.531 . S
C2502 H2514 0.960 . S
C2502 H2515 0.962 . S
C2502 H2516 0.960 . S
C2503 C2500 1.511 . S
C2503 H2517 0.961 . S
C2503 H2518 0.961 . S
C2503 H2519 0.961 . S
C2504 C2505 1.370 . S
C2504 C2506 1.363 . S
C2504 H2520 0.931 . S
C2505 C2504 1.370 . S
C2505 C2509 1.408 . S
C2506 C2504 1.363 . S
C2506 C2507 1.370 . S
C2506 C2510 1.524 . S
C2507 C2499 1.503 . S
C2507 C2506 1.370 . S
C2507 C2508 1.403 . S
C2508 C2507 1.403 . S
C2508 C2509 1.404 . S
C2508 C2511 1.539 . S
C2509 C2505 1.408 . S
C2509 C2508 1.404 . S
C2509 H2521 0.930 . S
C2510 C2506 1.524 . S
C2510 H2522 0.956 . S
C2510 H2523 0.961 . S
C2510 H2524 0.961 . S
C2511 C2508 1.539 . S
C2511 H2525 0.958 . S
C2511 H2526 0.961 . S
C2511 H2527 0.960 . S
H2512 C2496 0.931 . S
H2513 C2501 0.929 . S
H2514 C2502 0.960 . S
H2515 C2502 0.962 . S
H2516 C2502 0.960 . S
H2517 C2503 0.961 . S
H2518 C2503 0.961 . S
H2519 C2503 0.961 . S
H2520 C2504 0.931 . S
H2521 C2509 0.930 . S
H2522 C2510 0.956 . S
H2523 C2510 0.961 . S
H2524 C2510 0.961 . S
H2525 C2511 0.958 . S
H2526 C2511 0.961 . S
H2527 C2511 0.960 . S
C2528 C2529 1.391 . S
C2528 C2530 1.394 . S
C2528 H2544 0.931 . S
C2529 C2528 1.391 . S
C2529 C2533 1.376 . S
C2530 C2528 1.394 . S
C2530 C2531 1.369 . S
C2530 C2534 1.531 . S
C2531 C2530 1.369 . S
C2531 C2532 1.410 . S
C2531 C2539 1.503 . S
C2532 C2531 1.410 . S
C2532 C2533 1.392 . S
C2532 C2535 1.511 . S
C2533 C2529 1.376 . S
C2533 C2532 1.392 . S
C2533 H2545 0.929 . S
C2534 C2530 1.531 . S
C2534 H2546 0.960 . S
C2534 H2547 0.962 . S
C2534 H2548 0.960 . S
C2535 C2532 1.511 . S
C2535 H2549 0.961 . S
C2535 H2550 0.961 . S
C2535 H2551 0.961 . S
C2536 C2537 1.370 . S
C2536 C2538 1.363 . S
C2536 H2552 0.931 . S
C2537 C2536 1.370 . S
C2537 C2541 1.408 . S
C2538 C2536 1.363 . S
C2538 C2539 1.370 . S
C2538 C2542 1.524 . S
C2539 C2531 1.503 . S
C2539 C2538 1.370 . S
C2539 C2540 1.403 . S
C2540 C2539 1.403 . S
C2540 C2541 1.404 . S
C2540 C2543 1.539 . S
C2541 C2537 1.408 . S
C2541 C2540 1.404 . S
C2541 H2553 0.930 . S
C2542 C2538 1.524 . S
C2542 H2554 0.956 . S
C2542 H2555 0.961 . S
C2542 H2556 0.961 . S
C2543 C2540 1.539 . S
C2543 H2557 0.958 . S
C2543 H2558 0.961 . S
C2543 H2559 0.960 . S
H2544 C2528 0.931 . S
H2545 C2533 0.929 . S
H2546 C2534 0.960 . S
H2547 C2534 0.962 . S
H2548 C2534 0.960 . S
H2549 C2535 0.961 . S
H2550 C2535 0.961 . S
H2551 C2535 0.961 . S
H2552 C2536 0.931 . S
H2553 C2541 0.930 . S
H2554 C2542 0.956 . S
H2555 C2542 0.961 . S
H2556 C2542 0.961 . S
H2557 C2543 0.958 . S
H2558 C2543 0.961 . S
H2559 C2543 0.960 . S
C2560 C2561 1.391 . S
C2560 C2562 1.394 . S
C2560 H2576 0.931 . S
C2561 C2560 1.391 . S
C2561 C2565 1.376 . S
C2562 C2560 1.394 . S
C2562 C2563 1.369 . S
C2562 C2566 1.531 . S
C2563 C2562 1.369 . S
C2563 C2564 1.410 . S
C2563 C2571 1.503 . S
C2564 C2563 1.410 . S
C2564 C2565 1.392 . S
C2564 C2567 1.511 . S
C2565 C2561 1.376 . S
C2565 C2564 1.392 . S
C2565 H2577 0.929 . S
C2566 C2562 1.531 . S
C2566 H2578 0.960 . S
C2566 H2579 0.962 . S
C2566 H2580 0.960 . S
C2567 C2564 1.511 . S
C2567 H2581 0.961 . S
C2567 H2582 0.961 . S
C2567 H2583 0.961 . S
C2568 C2569 1.370 . S
C2568 C2570 1.363 . S
C2568 H2584 0.931 . S
C2569 C2568 1.370 . S
C2569 C2573 1.408 . S
C2570 C2568 1.363 . S
C2570 C2571 1.370 . S
C2570 C2574 1.524 . S
C2571 C2563 1.503 . S
C2571 C2570 1.370 . S
C2571 C2572 1.403 . S
C2572 C2571 1.403 . S
C2572 C2573 1.404 . S
C2572 C2575 1.539 . S
C2573 C2569 1.408 . S
C2573 C2572 1.404 . S
C2573 H2585 0.930 . S
C2574 C2570 1.524 . S
C2574 H2586 0.956 . S
C2574 H2587 0.961 . S
C2574 H2588 0.961 . S
C2575 C2572 1.539 . S
C2575 H2589 0.958 . S
C2575 H2590 0.961 . S
C2575 H2591 0.960 . S
H2576 C2560 0.931 . S
H2577 C2565 0.929 . S
H2578 C2566 0.960 . S
H2579 C2566 0.962 . S
H2580 C2566 0.960 . S
H2581 C2567 0.961 . S
H2582 C2567 0.961 . S
H2583 C2567 0.961 . S
H2584 C2568 0.931 . S
H2585 C2573 0.930 . S
H2586 C2574 0.956 . S
H2587 C2574 0.961 . S
H2588 C2574 0.961 . S
H2589 C2575 0.958 . S
H2590 C2575 0.961 . S
H2591 C2575 0.960 . S
C2592 C2593 1.391 . S
C2592 C2594 1.394 . S
C2592 H2608 0.931 . S
C2593 C2592 1.391 . S
C2593 C2597 1.376 . S
C2594 C2592 1.394 . S
C2594 C2595 1.369 . S
C2594 C2598 1.531 . S
C2595 C2594 1.369 . S
C2595 C2596 1.410 . S
C2595 C2603 1.503 . S
C2596 C2595 1.410 . S
C2596 C2597 1.392 . S
C2596 C2599 1.511 . S
C2597 C2593 1.376 . S
C2597 C2596 1.392 . S
C2597 H2609 0.929 . S
C2598 C2594 1.531 . S
C2598 H2610 0.960 . S
C2598 H2611 0.962 . S
C2598 H2612 0.960 . S
C2599 C2596 1.511 . S
C2599 H2613 0.961 . S
C2599 H2614 0.961 . S
C2599 H2615 0.961 . S
C2600 C2601 1.370 . S
C2600 C2602 1.363 . S
C2600 H2616 0.931 . S
C2601 C2600 1.370 . S
C2601 C2605 1.408 . S
C2602 C2600 1.363 . S
C2602 C2603 1.370 . S
C2602 C2606 1.524 . S
C2603 C2595 1.503 . S
C2603 C2602 1.370 . S
C2603 C2604 1.403 . S
C2604 C2603 1.403 . S
C2604 C2605 1.404 . S
C2604 C2607 1.539 . S
C2605 C2601 1.408 . S
C2605 C2604 1.404 . S
C2605 H2617 0.930 . S
C2606 C2602 1.524 . S
C2606 H2618 0.956 . S
C2606 H2619 0.961 . S
C2606 H2620 0.961 . S
C2607 C2604 1.539 . S
C2607 H2621 0.958 . S
C2607 H2622 0.961 . S
C2607 H2623 0.960 . S
H2608 C2592 0.931 . S
H2609 C2597 0.929 . S
H2610 C2598 0.960 . S
H2611 C2598 0.962 . S
H2612 C2598 0.960 . S
H2613 C2599 0.961 . S
H2614 C2599 0.961 . S
H2615 C2599 0.961 . S
H2616 C2600 0.931 . S
H2617 C2605 0.930 . S
H2618 C2606 0.956 . S
H2619 C2606 0.961 . S
H2620 C2606 0.961 . S
H2621 C2607 0.958 . S
H2622 C2607 0.961 . S
H2623 C2607 0.960 . S
C2624 C2625 1.391 . S
C2624 C2626 1.394 . S
C2624 H2640 0.931 . S
C2625 C2624 1.391 . S
C2625 C2629 1.376 . S
C2626 C2624 1.394 . S
C2626 C2627 1.369 . S
C2626 C2630 1.531 . S
C2627 C2626 1.369 . S
C2627 C2628 1.410 . S
C2627 C2635 1.503 . S
C2628 C2627 1.410 . S
C2628 C2629 1.392 . S
C2628 C2631 1.511 . S
C2629 C2625 1.376 . S
C2629 C2628 1.392 . S
C2629 H2641 0.929 . S
C2630 C2626 1.531 . S
C2630 H2642 0.960 . S
C2630 H2643 0.962 . S
C2630 H2644 0.960 . S
C2631 C2628 1.511 . S
C2631 H2645 0.961 . S
C2631 H2646 0.961 . S
C2631 H2647 0.961 . S
C2632 C2633 1.370 . S
C2632 C2634 1.363 . S
C2632 H2648 0.931 . S
C2633 C2632 1.370 . S
C2633 C2637 1.408 . S
C2634 C2632 1.363 . S
C2634 C2635 1.370 . S
C2634 C2638 1.524 . S
C2635 C2627 1.503 . S
C2635 C2634 1.370 . S
C2635 C2636 1.403 . S
C2636 C2635 1.403 . S
C2636 C2637 1.404 . S
C2636 C2639 1.539 . S
C2637 C2633 1.408 . S
C2637 C2636 1.404 . S
C2637 H2649 0.930 . S
C2638 C2634 1.524 . S
C2638 H2650 0.956 . S
C2638 H2651 0.961 . S
C2638 H2652 0.961 . S
C2639 C2636 1.539 . S
C2639 H2653 0.958 . S
C2639 H2654 0.961 . S
C2639 H2655 0.960 . S
H2640 C2624 0.931 . S
H2641 C2629 0.929 . S
H2642 C2630 0.960 . S
H2643 C2630 0.962 . S
H2644 C2630 0.960 . S
H2645 C2631 0.961 . S
H2646 C2631 0.961 . S
H2647 C2631 0.961 . S
H2648 C2632 0.931 . S
H2649 C2637 0.930 . S
H2650 C2638 0.956 . S
H2651 C2638 0.961 . S
H2652 C2638 0.961 . S
H2653 C2639 0.958 . S
H2654 C2639 0.961 . S
H2655 C2639 0.960 . S
C2656 C2657 1.391 . S
C2656 C2658 1.394 . S
C2656 H2672 0.931 . S
C2657 C2656 1.391 . S
C2657 C2661 1.376 . S
C2658 C2656 1.394 . S
C2658 C2659 1.369 . S
C2658 C2662 1.531 . S
C2659 C2658 1.369 . S
C2659 C2660 1.410 . S
C2659 C2667 1.503 . S
C2660 C2659 1.410 . S
C2660 C2661 1.392 . S
C2660 C2663 1.511 . S
C2661 C2657 1.376 . S
C2661 C2660 1.392 . S
C2661 H2673 0.929 . S
C2662 C2658 1.531 . S
C2662 H2674 0.960 . S
C2662 H2675 0.962 . S
C2662 H2676 0.960 . S
C2663 C2660 1.511 . S
C2663 H2677 0.961 . S
C2663 H2678 0.961 . S
C2663 H2679 0.961 . S
C2664 C2665 1.370 . S
C2664 C2666 1.363 . S
C2664 H2680 0.931 . S
C2665 C2664 1.370 . S
C2665 C2669 1.408 . S
C2666 C2664 1.363 . S
C2666 C2667 1.370 . S
C2666 C2670 1.524 . S
C2667 C2659 1.503 . S
C2667 C2666 1.370 . S
C2667 C2668 1.403 . S
C2668 C2667 1.403 . S
C2668 C2669 1.404 . S
C2668 C2671 1.539 . S
C2669 C2665 1.408 . S
C2669 C2668 1.404 . S
C2669 H2681 0.930 . S
C2670 C2666 1.524 . S
C2670 H2682 0.956 . S
C2670 H2683 0.961 . S
C2670 H2684 0.961 . S
C2671 C2668 1.539 . S
C2671 H2685 0.958 . S
C2671 H2686 0.961 . S
C2671 H2687 0.960 . S
H2672 C2656 0.931 . S
H2673 C2661 0.929 . S
H2674 C2662 0.960 . S
H2675 C2662 0.962 . S
H2676 C2662 0.960 . S
H2677 C2663 0.961 . S
H2678 C2663 0.961 . S
H2679 C2663 0.961 . S
H2680 C2664 0.931 . S
H2681 C2669 0.930 . S
H2682 C2670 0.956 . S
H2683 C2670 0.961 . S
H2684 C2670 0.961 . S
H2685 C2671 0.958 . S
H2686 C2671 0.961 . S
H2687 C2671 0.960 . S
C2688 C2689 1.391 . S
C2688 C2690 1.394 . S
C2688 H2704 0.931 . S
C2689 C2688 1.391 . S
C2689 C2693 1.376 . S
C2690 C2688 1.394 . S
C2690 C2691 1.369 . S
C2690 C2694 1.531 . S
C2691 C2690 1.369 . S
C2691 C2692 1.410 . S
C2691 C2699 1.503 . S
C2692 C2691 1.410 . S
C2692 C2693 1.392 . S
C2692 C2695 1.511 . S
C2693 C2689 1.376 . S
C2693 C2692 1.392 . S
C2693 H2705 0.929 . S
C2694 C2690 1.531 . S
C2694 H2706 0.960 . S
C2694 H2707 0.962 . S
C2694 H2708 0.960 . S
C2695 C2692 1.511 . S
C2695 H2709 0.961 . S
C2695 H2710 0.961 . S
C2695 H2711 0.961 . S
C2696 C2697 1.370 . S
C2696 C2698 1.363 . S
C2696 H2712 0.931 . S
C2697 C2696 1.370 . S
C2697 C2701 1.408 . S
C2698 C2696 1.363 . S
C2698 C2699 1.370 . S
C2698 C2702 1.524 . S
C2699 C2691 1.503 . S
C2699 C2698 1.370 . S
C2699 C2700 1.403 . S
C2700 C2699 1.403 . S
C2700 C2701 1.404 . S
C2700 C2703 1.539 . S
C2701 C2697 1.408 . S
C2701 C2700 1.404 . S
C2701 H2713 0.930 . S
C2702 C2698 1.524 . S
C2702 H2714 0.956 . S
C2702 H2715 0.961 . S
C2702 H2716 0.961 . S
C2703 C2700 1.539 . S
C2703 H2717 0.958 . S
C2703 H2718 0.961 . S
C2703 H2719 0.960 . S
H2704 C2688 0.931 . S
H2705 C2693 0.929 . S
H2706 C2694 0.960 . S
H2707 C2694 0.962 . S
H2708 C2694 0.960 . S
H2709 C2695 0.961 . S
H2710 C2695 0.961 . S
H2711 C2695 0.961 . S
H2712 C2696 0.931 . S
H2713 C2701 0.930 . S
H2714 C2702 0.956 . S
H2715 C2702 0.961 . S
H2716 C2702 0.961 . S
H2717 C2703 0.958 . S
H2718 C2703 0.961 . S
H2719 C2703 0.960 . S
C2720 C2721 1.391 . S
C2720 C2722 1.394 . S
C2720 H2736 0.931 . S
C2721 C2720 1.391 . S
C2721 C2725 1.376 . S
C2722 C2720 1.394 . S
C2722 C2723 1.369 . S
C2722 C2726 1.531 . S
C2723 C2722 1.369 . S
C2723 C2724 1.410 . S
C2723 C2731 1.503 . S
C2724 C2723 1.410 . S
C2724 C2725 1.392 . S
C2724 C2727 1.511 . S
C2725 C2721 1.376 . S
C2725 C2724 1.392 . S
C2725 H2737 0.929 . S
C2726 C2722 1.531 . S
C2726 H2738 0.960 . S
C2726 H2739 0.962 . S
C2726 H2740 0.960 . S
C2727 C2724 1.511 . S
C2727 H2741 0.961 . S
C2727 H2742 0.961 . S
C2727 H2743 0.961 . S
C2728 C2729 1.370 . S
C2728 C2730 1.363 . S
C2728 H2744 0.931 . S
C2729 C2728 1.370 . S
C2729 C2733 1.408 . S
C2730 C2728 1.363 . S
C2730 C2731 1.370 . S
C2730 C2734 1.524 . S
C2731 C2723 1.503 . S
C2731 C2730 1.370 . S
C2731 C2732 1.403 . S
C2732 C2731 1.403 . S
C2732 C2733 1.404 . S
C2732 C2735 1.539 . S
C2733 C2729 1.408 . S
C2733 C2732 1.404 . S
C2733 H2745 0.930 . S
C2734 C2730 1.524 . S
C2734 H2746 0.956 . S
C2734 H2747 0.961 . S
C2734 H2748 0.961 . S
C2735 C2732 1.539 . S
C2735 H2749 0.958 . S
C2735 H2750 0.961 . S
C2735 H2751 0.960 . S
H2736 C2720 0.931 . S
H2737 C2725 0.929 . S
H2738 C2726 0.960 . S
H2739 C2726 0.962 . S
H2740 C2726 0.960 . S
H2741 C2727 0.961 . S
H2742 C2727 0.961 . S
H2743 C2727 0.961 . S
H2744 C2728 0.931 . S
H2745 C2733 0.930 . S
H2746 C2734 0.956 . S
H2747 C2734 0.961 . S
H2748 C2734 0.961 . S
H2749 C2735 0.958 . S
H2750 C2735 0.961 . S
H2751 C2735 0.960 . S
C2752 C2753 1.391 . S
C2752 C2754 1.394 . S
C2752 H2768 0.931 . S
C2753 C2752 1.391 . S
C2753 C2757 1.376 . S
C2754 C2752 1.394 . S
C2754 C2755 1.369 . S
C2754 C2758 1.531 . S
C2755 C2754 1.369 . S
C2755 C2756 1.410 . S
C2755 C2763 1.503 . S
C2756 C2755 1.410 . S
C2756 C2757 1.392 . S
C2756 C2759 1.511 . S
C2757 C2753 1.376 . S
C2757 C2756 1.392 . S
C2757 H2769 0.929 . S
C2758 C2754 1.531 . S
C2758 H2770 0.960 . S
C2758 H2771 0.962 . S
C2758 H2772 0.960 . S
C2759 C2756 1.511 . S
C2759 H2773 0.961 . S
C2759 H2774 0.961 . S
C2759 H2775 0.961 . S
C2760 C2761 1.370 . S
C2760 C2762 1.363 . S
C2760 H2776 0.931 . S
C2761 C2760 1.370 . S
C2761 C2765 1.408 . S
C2762 C2760 1.363 . S
C2762 C2763 1.370 . S
C2762 C2766 1.524 . S
C2763 C2755 1.503 . S
C2763 C2762 1.370 . S
C2763 C2764 1.403 . S
C2764 C2763 1.403 . S
C2764 C2765 1.404 . S
C2764 C2767 1.539 . S
C2765 C2761 1.408 . S
C2765 C2764 1.404 . S
C2765 H2777 0.930 . S
C2766 C2762 1.524 . S
C2766 H2778 0.956 . S
C2766 H2779 0.961 . S
C2766 H2780 0.961 . S
C2767 C2764 1.539 . S
C2767 H2781 0.958 . S
C2767 H2782 0.961 . S
C2767 H2783 0.960 . S
H2768 C2752 0.931 . S
H2769 C2757 0.929 . S
H2770 C2758 0.960 . S
H2771 C2758 0.962 . S
H2772 C2758 0.960 . S
H2773 C2759 0.961 . S
H2774 C2759 0.961 . S
H2775 C2759 0.961 . S
H2776 C2760 0.931 . S
H2777 C2765 0.930 . S
H2778 C2766 0.956 . S
H2779 C2766 0.961 . S
H2780 C2766 0.961 . S
H2781 C2767 0.958 . S
H2782 C2767 0.961 . S
H2783 C2767 0.960 . S
C2784 C2785 1.391 . S
C2784 C2786 1.394 . S
C2784 H2800 0.931 . S
C2785 C2784 1.391 . S
C2785 C2789 1.376 . S
C2786 C2784 1.394 . S
C2786 C2787 1.369 . S
C2786 C2790 1.531 . S
C2787 C2786 1.369 . S
C2787 C2788 1.410 . S
C2787 C2795 1.503 . S
C2788 C2787 1.410 . S
C2788 C2789 1.392 . S
C2788 C2791 1.511 . S
C2789 C2785 1.376 . S
C2789 C2788 1.392 . S
C2789 H2801 0.929 . S
C2790 C2786 1.531 . S
C2790 H2802 0.960 . S
C2790 H2803 0.962 . S
C2790 H2804 0.960 . S
C2791 C2788 1.511 . S
C2791 H2805 0.961 . S
C2791 H2806 0.961 . S
C2791 H2807 0.961 . S
C2792 C2793 1.370 . S
C2792 C2794 1.363 . S
C2792 H2808 0.931 . S
C2793 C2792 1.370 . S
C2793 C2797 1.408 . S
C2794 C2792 1.363 . S
C2794 C2795 1.370 . S
C2794 C2798 1.524 . S
C2795 C2787 1.503 . S
C2795 C2794 1.370 . S
C2795 C2796 1.403 . S
C2796 C2795 1.403 . S
C2796 C2797 1.404 . S
C2796 C2799 1.539 . S
C2797 C2793 1.408 . S
C2797 C2796 1.404 . S
C2797 H2809 0.930 . S
C2798 C2794 1.524 . S
C2798 H2810 0.956 . S
C2798 H2811 0.961 . S
C2798 H2812 0.961 . S
C2799 C2796 1.539 . S
C2799 H2813 0.958 . S
C2799 H2814 0.961 . S
C2799 H2815 0.960 . S
H2800 C2784 0.931 . S
H2801 C2789 0.929 . S
H2802 C2790 0.960 . S
H2803 C2790 0.962 . S
H2804 C2790 0.960 . S
H2805 C2791 0.961 . S
H2806 C2791 0.961 . S
H2807 C2791 0.961 . S
H2808 C2792 0.931 . S
H2809 C2797 0.930 . S
H2810 C2798 0.956 . S
H2811 C2798 0.961 . S
H2812 C2798 0.961 . S
H2813 C2799 0.958 . S
H2814 C2799 0.961 . S
H2815 C2799 0.960 . S
C2816 C2817 1.391 . S
C2816 C2818 1.394 . S
C2816 H2832 0.931 . S
C2817 C2816 1.391 . S
C2817 C2821 1.376 . S
C2818 C2816 1.394 . S
C2818 C2819 1.369 . S
C2818 C2822 1.531 . S
C2819 C2818 1.369 . S
C2819 C2820 1.410 . S
C2819 C2827 1.503 . S
C2820 C2819 1.410 . S
C2820 C2821 1.392 . S
C2820 C2823 1.511 . S
C2821 C2817 1.376 . S
C2821 C2820 1.392 . S
C2821 H2833 0.929 . S
C2822 C2818 1.531 . S
C2822 H2834 0.960 . S
C2822 H2835 0.962 . S
C2822 H2836 0.960 . S
C2823 C2820 1.511 . S
C2823 H2837 0.961 . S
C2823 H2838 0.961 . S
C2823 H2839 0.961 . S
C2824 C2825 1.370 . S
C2824 C2826 1.363 . S
C2824 H2840 0.931 . S
C2825 C2824 1.370 . S
C2825 C2829 1.408 . S
C2826 C2824 1.363 . S
C2826 C2827 1.370 . S
C2826 C2830 1.524 . S
C2827 C2819 1.503 . S
C2827 C2826 1.370 . S
C2827 C2828 1.403 . S
C2828 C2827 1.403 . S
C2828 C2829 1.404 . S
C2828 C2831 1.539 . S
C2829 C2825 1.408 . S
C2829 C2828 1.404 . S
C2829 H2841 0.930 . S
C2830 C2826 1.524 . S
C2830 H2842 0.956 . S
C2830 H2843 0.961 . S
C2830 H2844 0.961 . S
C2831 C2828 1.539 . S
C2831 H2845 0.958 . S
C2831 H2846 0.961 . S
C2831 H2847 0.960 . S
H2832 C2816 0.931 . S
H2833 C2821 0.929 . S
H2834 C2822 0.960 . S
H2835 C2822 0.962 . S
H2836 C2822 0.960 . S
H2837 C2823 0.961 . S
H2838 C2823 0.961 . S
H2839 C2823 0.961 . S
H2840 C2824 0.931 . S
H2841 C2829 0.930 . S
H2842 C2830 0.956 . S
H2843 C2830 0.961 . S
H2844 C2830 0.961 . S
H2845 C2831 0.958 . S
H2846 C2831 0.961 . S
H2847 C2831 0.960 . S
C2848 C2849 1.391 . S
C2848 C2850 1.394 . S
C2848 H2864 0.931 . S
C2849 C2848 1.391 . S
C2849 C2853 1.376 . S
C2850 C2848 1.394 . S
C2850 C2851 1.369 . S
C2850 C2854 1.531 . S
C2851 C2850 1.369 . S
C2851 C2852 1.410 . S
C2851 C2859 1.503 . S
C2852 C2851 1.410 . S
C2852 C2853 1.392 . S
C2852 C2855 1.511 . S
C2853 C2849 1.376 . S
C2853 C2852 1.392 . S
C2853 H2865 0.929 . S
C2854 C2850 1.531 . S
C2854 H2866 0.960 . S
C2854 H2867 0.962 . S
C2854 H2868 0.960 . S
C2855 C2852 1.511 . S
C2855 H2869 0.961 . S
C2855 H2870 0.961 . S
C2855 H2871 0.961 . S
C2856 C2857 1.370 . S
C2856 C2858 1.363 . S
C2856 H2872 0.931 . S
C2857 C2856 1.370 . S
C2857 C2861 1.408 . S
C2858 C2856 1.363 . S
C2858 C2859 1.370 . S
C2858 C2862 1.524 . S
C2859 C2851 1.503 . S
C2859 C2858 1.370 . S
C2859 C2860 1.403 . S
C2860 C2859 1.403 . S
C2860 C2861 1.404 . S
C2860 C2863 1.539 . S
C2861 C2857 1.408 . S
C2861 C2860 1.404 . S
C2861 H2873 0.930 . S
C2862 C2858 1.524 . S
C2862 H2874 0.956 . S
C2862 H2875 0.961 . S
C2862 H2876 0.961 . S
C2863 C2860 1.539 . S
C2863 H2877 0.958 . S
C2863 H2878 0.961 . S
C2863 H2879 0.960 . S
H2864 C2848 0.931 . S
H2865 C2853 0.929 . S
H2866 C2854 0.960 . S
H2867 C2854 0.962 . S
H2868 C2854 0.960 . S
H2869 C2855 0.961 . S
H2870 C2855 0.961 . S
H2871 C2855 0.961 . S
H2872 C2856 0.931 . S
H2873 C2861 0.930 . S
H2874 C2862 0.956 . S
H2875 C2862 0.961 . S
H2876 C2862 0.961 . S
H2877 C2863 0.958 . S
H2878 C2863 0.961 . S
H2879 C2863 0.960 . S
C2880 C2881 1.391 . S
C2880 C2882 1.394 . S
C2880 H2896 0.931 . S
C2881 C2880 1.391 . S
C2881 C2885 1.376 . S
C2882 C2880 1.394 . S
C2882 C2883 1.369 . S
C2882 C2886 1.531 . S
C2883 C2882 1.369 . S
C2883 C2884 1.410 . S
C2883 C2891 1.503 . S
C2884 C2883 1.410 . S
C2884 C2885 1.392 . S
C2884 C2887 1.511 . S
C2885 C2881 1.376 . S
C2885 C2884 1.392 . S
C2885 H2897 0.929 . S
C2886 C2882 1.531 . S
C2886 H2898 0.960 . S
C2886 H2899 0.962 . S
C2886 H2900 0.960 . S
C2887 C2884 1.511 . S
C2887 H2901 0.961 . S
C2887 H2902 0.961 . S
C2887 H2903 0.961 . S
C2888 C2889 1.370 . S
C2888 C2890 1.363 . S
C2888 H2904 0.931 . S
C2889 C2888 1.370 . S
C2889 C2893 1.408 . S
C2890 C2888 1.363 . S
C2890 C2891 1.370 . S
C2890 C2894 1.524 . S
C2891 C2883 1.503 . S
C2891 C2890 1.370 . S
C2891 C2892 1.403 . S
C2892 C2891 1.403 . S
C2892 C2893 1.404 . S
C2892 C2895 1.539 . S
C2893 C2889 1.408 . S
C2893 C2892 1.404 . S
C2893 H2905 0.930 . S
C2894 C2890 1.524 . S
C2894 H2906 0.956 . S
C2894 H2907 0.961 . S
C2894 H2908 0.961 . S
C2895 C2892 1.539 . S
C2895 H2909 0.958 . S
C2895 H2910 0.961 . S
C2895 H2911 0.960 . S
H2896 C2880 0.931 . S
H2897 C2885 0.929 . S
H2898 C2886 0.960 . S
H2899 C2886 0.962 . S
H2900 C2886 0.960 . S
H2901 C2887 0.961 . S
H2902 C2887 0.961 . S
H2903 C2887 0.961 . S
H2904 C2888 0.931 . S
H2905 C2893 0.930 . S
H2906 C2894 0.956 . S
H2907 C2894 0.961 . S
H2908 C2894 0.961 . S
H2909 C2895 0.958 . S
H2910 C2895 0.961 . S
H2911 C2895 0.960 . S
C2912 C2913 1.391 . S
C2912 C2914 1.394 . S
C2912 H2928 0.931 . S
C2913 C2912 1.391 . S
C2913 C2917 1.376 . S
C2914 C2912 1.394 . S
C2914 C2915 1.369 . S
C2914 C2918 1.531 . S
C2915 C2914 1.369 . S
C2915 C2916 1.410 . S
C2915 C2923 1.503 . S
C2916 C2915 1.410 . S
C2916 C2917 1.392 . S
C2916 C2919 1.511 . S
C2917 C2913 1.376 . S
C2917 C2916 1.392 . S
C2917 H2929 0.929 . S
C2918 C2914 1.531 . S
C2918 H2930 0.960 . S
C2918 H2931 0.962 . S
C2918 H2932 0.960 . S
C2919 C2916 1.511 . S
C2919 H2933 0.961 . S
C2919 H2934 0.961 . S
C2919 H2935 0.961 . S
C2920 C2921 1.370 . S
C2920 C2922 1.363 . S
C2920 H2936 0.931 . S
C2921 C2920 1.370 . S
C2921 C2925 1.408 . S
C2922 C2920 1.363 . S
C2922 C2923 1.370 . S
C2922 C2926 1.524 . S
C2923 C2915 1.503 . S
C2923 C2922 1.370 . S
C2923 C2924 1.403 . S
C2924 C2923 1.403 . S
C2924 C2925 1.404 . S
C2924 C2927 1.539 . S
C2925 C2921 1.408 . S
C2925 C2924 1.404 . S
C2925 H2937 0.930 . S
C2926 C2922 1.524 . S
C2926 H2938 0.956 . S
C2926 H2939 0.961 . S
C2926 H2940 0.961 . S
C2927 C2924 1.539 . S
C2927 H2941 0.958 . S
C2927 H2942 0.961 . S
C2927 H2943 0.960 . S
H2928 C2912 0.931 . S
H2929 C2917 0.929 . S
H2930 C2918 0.960 . S
H2931 C2918 0.962 . S
H2932 C2918 0.960 . S
H2933 C2919 0.961 . S
H2934 C2919 0.961 . S
H2935 C2919 0.961 . S
H2936 C2920 0.931 . S
H2937 C2925 0.930 . S
H2938 C2926 0.956 . S
H2939 C2926 0.961 . S
H2940 C2926 0.961 . S
H2941 C2927 0.958 . S
H2942 C2927 0.961 . S
H2943 C2927 0.960 . S
C2944 C2945 1.391 . S
C2944 C2946 1.394 . S
C2944 H2960 0.931 . S
C2945 C2944 1.391 . S
C2945 C2949 1.376 . S
C2946 C2944 1.394 . S
C2946 C2947 1.369 . S
C2946 C2950 1.531 . S
C2947 C2946 1.369 . S
C2947 C2948 1.410 . S
C2947 C2955 1.503 . S
C2948 C2947 1.410 . S
C2948 C2949 1.392 . S
C2948 C2951 1.511 . S
C2949 C2945 1.376 . S
C2949 C2948 1.392 . S
C2949 H2961 0.929 . S
C2950 C2946 1.531 . S
C2950 H2962 0.960 . S
C2950 H2963 0.962 . S
C2950 H2964 0.960 . S
C2951 C2948 1.511 . S
C2951 H2965 0.961 . S
C2951 H2966 0.961 . S
C2951 H2967 0.961 . S
C2952 C2953 1.370 . S
C2952 C2954 1.363 . S
C2952 H2968 0.931 . S
C2953 C2952 1.370 . S
C2953 C2957 1.408 . S
C2954 C2952 1.363 . S
C2954 C2955 1.370 . S
C2954 C2958 1.524 . S
C2955 C2947 1.503 . S
C2955 C2954 1.370 . S
C2955 C2956 1.403 . S
C2956 C2955 1.403 . S
C2956 C2957 1.404 . S
C2956 C2959 1.539 . S
C2957 C2953 1.408 . S
C2957 C2956 1.404 . S
C2957 H2969 0.930 . S
C2958 C2954 1.524 . S
C2958 H2970 0.956 . S
C2958 H2971 0.961 . S
C2958 H2972 0.961 . S
C2959 C2956 1.539 . S
C2959 H2973 0.958 . S
C2959 H2974 0.961 . S
C2959 H2975 0.960 . S
H2960 C2944 0.931 . S
H2961 C2949 0.929 . S
H2962 C2950 0.960 . S
H2963 C2950 0.962 . S
H2964 C2950 0.960 . S
H2965 C2951 0.961 . S
H2966 C2951 0.961 . S
H2967 C2951 0.961 . S
H2968 C2952 0.931 . S
H2969 C2957 0.930 . S
H2970 C2958 0.956 . S
H2971 C2958 0.961 . S
H2972 C2958 0.961 . S
H2973 C2959 0.958 . S
H2974 C2959 0.961 . S
H2975 C2959 0.960 . S
C2976 C2977 1.391 . S
C2976 C2978 1.394 . S
C2976 H2992 0.931 . S
C2977 C2976 1.391 . S
C2977 C2981 1.376 . S
C2978 C2976 1.394 . S
C2978 C2979 1.369 . S
C2978 C2982 1.531 . S
C2979 C2978 1.369 . S
C2979 C2980 1.410 . S
C2979 C2987 1.503 . S
C2980 C2979 1.410 . S
C2980 C2981 1.392 . S
C2980 C2983 1.511 . S
C2981 C2977 1.376 . S
C2981 C2980 1.392 . S
C2981 H2993 0.929 . S
C2982 C2978 1.531 . S
C2982 H2994 0.960 . S
C2982 H2995 0.962 . S
C2982 H2996 0.960 . S
C2983 C2980 1.511 . S
C2983 H2997 0.961 . S
C2983 H2998 0.961 . S
C2983 H2999 0.961 . S
C2984 C2985 1.370 . S
C2984 C2986 1.363 . S
C2984 H3000 0.931 . S
C2985 C2984 1.370 . S
C2985 C2989 1.408 . S
C2986 C2984 1.363 . S
C2986 C2987 1.370 . S
C2986 C2990 1.524 . S
C2987 C2979 1.503 . S
C2987 C2986 1.370 . S
C2987 C2988 1.403 . S
C2988 C2987 1.403 . S
C2988 C2989 1.404 . S
C2988 C2991 1.539 . S
C2989 C2985 1.408 . S
C2989 C2988 1.404 . S
C2989 H3001 0.930 . S
C2990 C2986 1.524 . S
C2990 H3002 0.956 . S
C2990 H3003 0.961 . S
C2990 H3004 0.961 . S
C2991 C2988 1.539 . S
C2991 H3005 0.958 . S
C2991 H3006 0.961 . S
C2991 H3007 0.960 . S
H2992 C2976 0.931 . S
H2993 C2981 0.929 . S
H2994 C2982 0.960 . S
H2995 C2982 0.962 . S
H2996 C2982 0.960 . S
H2997 C2983 0.961 . S
H2998 C2983 0.961 . S
H2999 C2983 0.961 . S
H3000 C2984 0.931 . S
H3001 C2989 0.930 . S
H3002 C2990 0.956 . S
H3003 C2990 0.961 . S
H3004 C2990 0.961 . S
H3005 C2991 0.958 . S
H3006 C2991 0.961 . S
H3007 C2991 0.960 . S
C3008 C3009 1.391 . S
C3008 C3010 1.394 . S
C3008 H3024 0.931 . S
C3009 C3008 1.391 . S
C3009 C3013 1.376 . S
C3010 C3008 1.394 . S
C3010 C3011 1.369 . S
C3010 C3014 1.531 . S
C3011 C3010 1.369 . S
C3011 C3012 1.410 . S
C3011 C3019 1.503 . S
C3012 C3011 1.410 . S
C3012 C3013 1.392 . S
C3012 C3015 1.511 . S
C3013 C3009 1.376 . S
C3013 C3012 1.392 . S
C3013 H3025 0.929 . S
C3014 C3010 1.531 . S
C3014 H3026 0.960 . S
C3014 H3027 0.962 . S
C3014 H3028 0.960 . S
C3015 C3012 1.511 . S
C3015 H3029 0.961 . S
C3015 H3030 0.961 . S
C3015 H3031 0.961 . S
C3016 C3017 1.370 . S
C3016 C3018 1.363 . S
C3016 H3032 0.931 . S
C3017 C3016 1.370 . S
C3017 C3021 1.408 . S
C3018 C3016 1.363 . S
C3018 C3019 1.370 . S
C3018 C3022 1.524 . S
C3019 C3011 1.503 . S
C3019 C3018 1.370 . S
C3019 C3020 1.403 . S
C3020 C3019 1.403 . S
C3020 C3021 1.404 . S
C3020 C3023 1.539 . S
C3021 C3017 1.408 . S
C3021 C3020 1.404 . S
C3021 H3033 0.930 . S
C3022 C3018 1.524 . S
C3022 H3034 0.956 . S
C3022 H3035 0.961 . S
C3022 H3036 0.961 . S
C3023 C3020 1.539 . S
C3023 H3037 0.958 . S
C3023 H3038 0.961 . S
C3023 H3039 0.960 . S
H3024 C3008 0.931 . S
H3025 C3013 0.929 . S
H3026 C3014 0.960 . S
H3027 C3014 0.962 . S
H3028 C3014 0.960 . S
H3029 C3015 0.961 . S
H3030 C3015 0.961 . S
H3031 C3015 0.961 . S
H3032 C3016 0.931 . S
H3033 C3021 0.930 . S
H3034 C3022 0.956 . S
H3035 C3022 0.961 . S
H3036 C3022 0.961 . S
H3037 C3023 0.958 . S
H3038 C3023 0.961 . S
H3039 C3023 0.960 . S
C3040 C3041 1.391 . S
C3040 C3042 1.394 . S
C3040 H3056 0.931 . S
C3041 C3040 1.391 . S
C3041 C3045 1.376 . S
C3042 C3040 1.394 . S
C3042 C3043 1.369 . S
C3042 C3046 1.531 . S
C3043 C3042 1.369 . S
C3043 C3044 1.410 . S
C3043 C3051 1.503 . S
C3044 C3043 1.410 . S
C3044 C3045 1.392 . S
C3044 C3047 1.511 . S
C3045 C3041 1.376 . S
C3045 C3044 1.392 . S
C3045 H3057 0.929 . S
C3046 C3042 1.531 . S
C3046 H3058 0.960 . S
C3046 H3059 0.962 . S
C3046 H3060 0.960 . S
C3047 C3044 1.511 . S
C3047 H3061 0.961 . S
C3047 H3062 0.961 . S
C3047 H3063 0.961 . S
C3048 C3049 1.370 . S
C3048 C3050 1.363 . S
C3048 H3064 0.931 . S
C3049 C3048 1.370 . S
C3049 C3053 1.408 . S
C3050 C3048 1.363 . S
C3050 C3051 1.370 . S
C3050 C3054 1.524 . S
C3051 C3043 1.503 . S
C3051 C3050 1.370 . S
C3051 C3052 1.403 . S
C3052 C3051 1.403 . S
C3052 C3053 1.404 . S
C3052 C3055 1.539 . S
C3053 C3049 1.408 . S
C3053 C3052 1.404 . S
C3053 H3065 0.930 . S
C3054 C3050 1.524 . S
C3054 H3066 0.956 . S
C3054 H3067 0.961 . S
C3054 H3068 0.961 . S
C3055 C3052 1.539 . S
C3055 H3069 0.958 . S
C3055 H3070 0.961 . S
C3055 H3071 0.960 . S
H3056 C3040 0.931 . S
H3057 C3045 0.929 . S
H3058 C3046 0.960 . S
H3059 C3046 0.962 . S
H3060 C3046 0.960 . S
H3061 C3047 0.961 . S
H3062 C3047 0.961 . S
H3063 C3047 0.961 . S
H3064 C3048 0.931 . S
H3065 C3053 0.930 . S
H3066 C3054 0.956 . S
H3067 C3054 0.961 . S
H3068 C3054 0.961 . S
H3069 C3055 0.958 . S
H3070 C3055 0.961 . S
H3071 C3055 0.960 . S
C3072 C3073 1.391 . S
C3072 C3074 1.394 . S
C3072 H3088 0.931 . S
C3073 C3072 1.391 . S
C3073 C3077 1.376 . S
C3074 C3072 1.394 . S
C3074 C3075 1.369 . S
C3074 C3078 1.531 . S
C3075 C3074 1.369 . S
C3075 C3076 1.410 . S
C3075 C3083 1.503 . S
C3076 C3075 1.410 . S
C3076 C3077 1.392 . S
C3076 C3079 1.511 . S
C3077 C3073 1.376 . S
C3077 C3076 1.392 . S
C3077 H3089 0.929 . S
C3078 C3074 1.531 . S
C3078 H3090 0.960 . S
C3078 H3091 0.962 . S
C3078 H3092 0.960 . S
C3079 C3076 1.511 . S
C3079 H3093 0.961 . S
C3079 H3094 0.961 . S
C3079 H3095 0.961 . S
C3080 C3081 1.370 . S
C3080 C3082 1.363 . S
C3080 H3096 0.931 . S
C3081 C3080 1.370 . S
C3081 C3085 1.408 . S
C3082 C3080 1.363 . S
C3082 C3083 1.370 . S
C3082 C3086 1.524 . S
C3083 C3075 1.503 . S
C3083 C3082 1.370 . S
C3083 C3084 1.403 . S
C3084 C3083 1.403 . S
C3084 C3085 1.404 . S
C3084 C3087 1.539 . S
C3085 C3081 1.408 . S
C3085 C3084 1.404 . S
C3085 H3097 0.930 . S
C3086 C3082 1.524 . S
C3086 H3098 0.956 . S
C3086 H3099 0.961 . S
C3086 H3100 0.961 . S
C3087 C3084 1.539 . S
C3087 H3101 0.958 . S
C3087 H3102 0.961 . S
C3087 H3103 0.960 . S
H3088 C3072 0.931 . S
H3089 C3077 0.929 . S
H3090 C3078 0.960 . S
H3091 C3078 0.962 . S
H3092 C3078 0.960 . S
H3093 C3079 0.961 . S
H3094 C3079 0.961 . S
H3095 C3079 0.961 . S
H3096 C3080 0.931 . S
H3097 C3085 0.930 . S
H3098 C3086 0.956 . S
H3099 C3086 0.961 . S
H3100 C3086 0.961 . S
H3101 C3087 0.958 . S
H3102 C3087 0.961 . S
H3103 C3087 0.960 . S
C3104 C3105 1.391 . S
C3104 C3106 1.394 . S
C3104 H3120 0.931 . S
C3105 C3104 1.391 . S
C3105 C3109 1.376 . S
C3106 C3104 1.394 . S
C3106 C3107 1.369 . S
C3106 C3110 1.531 . S
C3107 C3106 1.369 . S
C3107 C3108 1.410 . S
C3107 C3115 1.503 . S
C3108 C3107 1.410 . S
C3108 C3109 1.392 . S
C3108 C3111 1.511 . S
C3109 C3105 1.376 . S
C3109 C3108 1.392 . S
C3109 H3121 0.929 . S
C3110 C3106 1.531 . S
C3110 H3122 0.960 . S
C3110 H3123 0.962 . S
C3110 H3124 0.960 . S
C3111 C3108 1.511 . S
C3111 H3125 0.961 . S
C3111 H3126 0.961 . S
C3111 H3127 0.961 . S
C3112 C3113 1.370 . S
C3112 C3114 1.363 . S
C3112 H3128 0.931 . S
C3113 C3112 1.370 . S
C3113 C3117 1.408 . S
C3114 C3112 1.363 . S
C3114 C3115 1.370 . S
C3114 C3118 1.524 . S
C3115 C3107 1.503 . S
C3115 C3114 1.370 . S
C3115 C3116 1.403 . S
C3116 C3115 1.403 . S
C3116 C3117 1.404 . S
C3116 C3119 1.539 . S
C3117 C3113 1.408 . S
C3117 C3116 1.404 . S
C3117 H3129 0.930 . S
C3118 C3114 1.524 . S
C3118 H3130 0.956 . S
C3118 H3131 0.961 . S
C3118 H3132 0.961 . S
C3119 C3116 1.539 . S
C3119 H3133 0.958 . S
C3119 H3134 0.961 . S
C3119 H3135 0.960 . S
H3120 C3104 0.931 . S
H3121 C3109 0.929 . S
H3122 C3110 0.960 . S
H3123 C3110 0.962 . S
H3124 C3110 0.960 . S
H3125 C3111 0.961 . S
H3126 C3111 0.961 . S
H3127 C3111 0.961 . S
H3128 C3112 0.931 . S
H3129 C3117 0.930 . S
H3130 C3118 0.956 . S
H3131 C3118 0.961 . S
H3132 C3118 0.961 . S
H3133 C3119 0.958 . S
H3134 C3119 0.961 . S
H3135 C3119 0.960 . S
C3136 C3137 1.391 . S
C3136 C3138 1.394 . S
C3136 H3152 0.931 . S
C3137 C3136 1.391 . S
C3137 C3141 1.376 . S
C3138 C3136 1.394 . S
C3138 C3139 1.369 . S
C3138 C3142 1.531 . S
C3139 C3138 1.369 . S
C3139 C3140 1.410 . S
C3139 C3147 1.503 . S
C3140 C3139 1.410 . S
C3140 C3141 1.392 . S
C3140 C3143 1.511 . S
C3141 C3137 1.376 . S
C3141 C3140 1.392 . S
C3141 H3153 0.929 . S
C3142 C3138 1.531 . S
C3142 H3154 0.960 . S
C3142 H3155 0.962 . S
C3142 H3156 0.960 . S
C3143 C3140 1.511 . S
C3143 H3157 0.961 . S
C3143 H3158 0.961 . S
C3143 H3159 0.961 . S
C3144 C3145 1.370 . S
C3144 C3146 1.363 . S
C3144 H3160 0.931 . S
C3145 C3144 1.370 . S
C3145 C3149 1.408 . S
C3146 C3144 1.363 . S
C3146 C3147 1.370 . S
C3146 C3150 1.524 . S
C3147 C3139 1.503 . S
C3147 C3146 1.370 . S
C3147 C3148 1.403 . S
C3148 C3147 1.403 . S
C3148 C3149 1.404 . S
C3148 C3151 1.539 . S
C3149 C3145 1.408 . S
C3149 C3148 1.404 . S
C3149 H3161 0.930 . S
C3150 C3146 1.524 . S
C3150 H3162 0.956 . S
C3150 H3163 0.961 . S
C3150 H3164 0.961 . S
C3151 C3148 1.539 . S
C3151 H3165 0.958 . S
C3151 H3166 0.961 . S
C3151 H3167 0.960 . S
H3152 C3136 0.931 . S
H3153 C3141 0.929 . S
H3154 C3142 0.960 . S
H3155 C3142 0.962 . S
H3156 C3142 0.960 . S
H3157 C3143 0.961 . S
H3158 C3143 0.961 . S
H3159 C3143 0.961 . S
H3160 C3144 0.931 . S
H3161 C3149 0.930 . S
H3162 C3150 0.956 . S
H3163 C3150 0.961 . S
H3164 C3150 0.961 . S
H3165 C3151 0.958 . S
H3166 C3151 0.961 . S
H3167 C3151 0.960 . S
C3168 C3169 1.391 . S
C3168 C3170 1.394 . S
C3168 H3184 0.931 . S
C3169 C3168 1.391 . S
C3169 C3173 1.376 . S
C3170 C3168 1.394 . S
C3170 C3171 1.369 . S
C3170 C3174 1.531 . S
C3171 C3170 1.369 . S
C3171 C3172 1.410 . S
C3171 C3179 1.503 . S
C3172 C3171 1.410 . S
C3172 C3173 1.392 . S
C3172 C3175 1.511 . S
C3173 C3169 1.376 . S
C3173 C3172 1.392 . S
C3173 H3185 0.929 . S
C3174 C3170 1.531 . S
C3174 H3186 0.960 . S
C3174 H3187 0.962 . S
C3174 H3188 0.960 . S
C3175 C3172 1.511 . S
C3175 H3189 0.961 . S
C3175 H3190 0.961 . S
C3175 H3191 0.961 . S
C3176 C3177 1.370 . S
C3176 C3178 1.363 . S
C3176 H3192 0.931 . S
C3177 C3176 1.370 . S
C3177 C3181 1.408 . S
C3178 C3176 1.363 . S
C3178 C3179 1.370 . S
C3178 C3182 1.524 . S
C3179 C3171 1.503 . S
C3179 C3178 1.370 . S
C3179 C3180 1.403 . S
C3180 C3179 1.403 . S
C3180 C3181 1.404 . S
C3180 C3183 1.539 . S
C3181 C3177 1.408 . S
C3181 C3180 1.404 . S
C3181 H3193 0.930 . S
C3182 C3178 1.524 . S
C3182 H3194 0.956 . S
C3182 H3195 0.961 . S
C3182 H3196 0.961 . S
C3183 C3180 1.539 . S
C3183 H3197 0.958 . S
C3183 H3198 0.961 . S
C3183 H3199 0.960 . S
H3184 C3168 0.931 . S
H3185 C3173 0.929 . S
H3186 C3174 0.960 . S
H3187 C3174 0.962 . S
H3188 C3174 0.960 . S
H3189 C3175 0.961 . S
H3190 C3175 0.961 . S
H3191 C3175 0.961 . S
H3192 C3176 0.931 . S
H3193 C3181 0.930 . S
H3194 C3182 0.956 . S
H3195 C3182 0.961 . S
H3196 C3182 0.961 . S
H3197 C3183 0.958 . S
H3198 C3183 0.961 . S
H3199 C3183 0.960 . S
C3200 C3201 1.391 . S
C3200 C3202 1.394 . S
C3200 H3216 0.931 . S
C3201 C3200 1.391 . S
C3201 C3205 1.376 . S
C3202 C3200 1.394 . S
C3202 C3203 1.369 . S
C3202 C3206 1.531 . S
C3203 C3202 1.369 . S
C3203 C3204 1.410 . S
C3203 C3211 1.503 . S
C3204 C3203 1.410 . S
C3204 C3205 1.392 . S
C3204 C3207 1.511 . S
C3205 C3201 1.376 . S
C3205 C3204 1.392 . S
C3205 H3217 0.929 . S
C3206 C3202 1.531 . S
C3206 H3218 0.960 . S
C3206 H3219 0.962 . S
C3206 H3220 0.960 . S
C3207 C3204 1.511 . S
C3207 H3221 0.961 . S
C3207 H3222 0.961 . S
C3207 H3223 0.961 . S
C3208 C3209 1.370 . S
C3208 C3210 1.363 . S
C3208 H3224 0.931 . S
C3209 C3208 1.370 . S
C3209 C3213 1.408 . S
C3210 C3208 1.363 . S
C3210 C3211 1.370 . S
C3210 C3214 1.524 . S
C3211 C3203 1.503 . S
C3211 C3210 1.370 . S
C3211 C3212 1.403 . S
C3212 C3211 1.403 . S
C3212 C3213 1.404 . S
C3212 C3215 1.539 . S
C3213 C3209 1.408 . S
C3213 C3212 1.404 . S
C3213 H3225 0.930 . S
C3214 C3210 1.524 . S
C3214 H3226 0.956 . S
C3214 H3227 0.961 . S
C3214 H3228 0.961 . S
C3215 C3212 1.539 . S
C3215 H3229 0.958 . S
C3215 H3230 0.961 . S
C3215 H3231 0.960 . S
H3216 C3200 0.931 . S
H3217 C3205 0.929 . S
H3218 C3206 0.960 . S
H3219 C3206 0.962 . S
H3220 C3206 0.960 . S
H3221 C3207 0.961 . S
H3222 C3207 0.961 . S
H3223 C3207 0.961 . S
H3224 C3208 0.931 . S
H3225 C3213 0.930 . S
H3226 C3214 0.956 . S
H3227 C3214 0.961 . S
H3228 C3214 0.961 . S
H3229 C3215 0.958 . S
H3230 C3215 0.961 . S
H3231 C3215 0.960 . S
C3232 C3233 1.391 . S
C3232 C3234 1.394 . S
C3232 H3248 0.931 . S
C3233 C3232 1.391 . S
C3233 C3237 1.376 . S
C3234 C3232 1.394 . S
C3234 C3235 1.369 . S
C3234 C3238 1.531 . S
C3235 C3234 1.369 . S
C3235 C3236 1.410 . S
C3235 C3243 1.503 . S
C3236 C3235 1.410 . S
C3236 C3237 1.392 . S
C3236 C3239 1.511 . S
C3237 C3233 1.376 . S
C3237 C3236 1.392 . S
C3237 H3249 0.929 . S
C3238 C3234 1.531 . S
C3238 H3250 0.960 . S
C3238 H3251 0.962 . S
C3238 H3252 0.960 . S
C3239 C3236 1.511 . S
C3239 H3253 0.961 . S
C3239 H3254 0.961 . S
C3239 H3255 0.961 . S
C3240 C3241 1.370 . S
C3240 C3242 1.363 . S
C3240 H3256 0.931 . S
C3241 C3240 1.370 . S
C3241 C3245 1.408 . S
C3242 C3240 1.363 . S
C3242 C3243 1.370 . S
C3242 C3246 1.524 . S
C3243 C3235 1.503 . S
C3243 C3242 1.370 . S
C3243 C3244 1.403 . S
C3244 C3243 1.403 . S
C3244 C3245 1.404 . S
C3244 C3247 1.539 . S
C3245 C3241 1.408 . S
C3245 C3244 1.404 . S
C3245 H3257 0.930 . S
C3246 C3242 1.524 . S
C3246 H3258 0.956 . S
C3246 H3259 0.961 . S
C3246 H3260 0.961 . S
C3247 C3244 1.539 . S
C3247 H3261 0.958 . S
C3247 H3262 0.961 . S
C3247 H3263 0.960 . S
H3248 C3232 0.931 . S
H3249 C3237 0.929 . S
H3250 C3238 0.960 . S
H3251 C3238 0.962 . S
H3252 C3238 0.960 . S
H3253 C3239 0.961 . S
H3254 C3239 0.961 . S
H3255 C3239 0.961 . S
H3256 C3240 0.931 . S
H3257 C3245 0.930 . S
H3258 C3246 0.956 . S
H3259 C3246 0.961 . S
H3260 C3246 0.961 . S
H3261 C3247 0.958 . S
H3262 C3247 0.961 . S
H3263 C3247 0.960 . S
C3264 C3265 1.391 . S
C3264 C3266 1.394 . S
C3264 H3280 0.931 . S
C3265 C3264 1.391 . S
C3265 C3269 1.376 . S
C3266 C3264 1.394 . S
C3266 C3267 1.369 . S
C3266 C3270 1.531 . S
C3267 C3266 1.369 . S
C3267 C3268 1.410 . S
C3267 C3275 1.503 . S
C3268 C3267 1.410 . S
C3268 C3269 1.392 . S
C3268 C3271 1.511 . S
C3269 C3265 1.376 . S
C3269 C3268 1.392 . S
C3269 H3281 0.929 . S
C3270 C3266 1.531 . S
C3270 H3282 0.960 . S
C3270 H3283 0.962 . S
C3270 H3284 0.960 . S
C3271 C3268 1.511 . S
C3271 H3285 0.961 . S
C3271 H3286 0.961 . S
C3271 H3287 0.961 . S
C3272 C3273 1.370 . S
C3272 C3274 1.363 . S
C3272 H3288 0.931 . S
C3273 C3272 1.370 . S
C3273 C3277 1.408 . S
C3274 C3272 1.363 . S
C3274 C3275 1.370 . S
C3274 C3278 1.524 . S
C3275 C3267 1.503 . S
C3275 C3274 1.370 . S
C3275 C3276 1.403 . S
C3276 C3275 1.403 . S
C3276 C3277 1.404 . S
C3276 C3279 1.539 . S
C3277 C3273 1.408 . S
C3277 C3276 1.404 . S
C3277 H3289 0.930 . S
C3278 C3274 1.524 . S
C3278 H3290 0.956 . S
C3278 H3291 0.961 . S
C3278 H3292 0.961 . S
C3279 C3276 1.539 . S
C3279 H3293 0.958 . S
C3279 H3294 0.961 . S
C3279 H3295 0.960 . S
H3280 C3264 0.931 . S
H3281 C3269 0.929 . S
H3282 C3270 0.960 . S
H3283 C3270 0.962 . S
H3284 C3270 0.960 . S
H3285 C3271 0.961 . S
H3286 C3271 0.961 . S
H3287 C3271 0.961 . S
H3288 C3272 0.931 . S
H3289 C3277 0.930 . S
H3290 C3278 0.956 . S
H3291 C3278 0.961 . S
H3292 C3278 0.961 . S
H3293 C3279 0.958 . S
H3294 C3279 0.961 . S
H3295 C3279 0.960 . S
C3296 C3297 1.391 . S
C3296 C3298 1.394 . S
C3296 H3312 0.931 . S
C3297 C3296 1.391 . S
C3297 C3301 1.376 . S
C3298 C3296 1.394 . S
C3298 C3299 1.369 . S
C3298 C3302 1.531 . S
C3299 C3298 1.369 . S
C3299 C3300 1.410 . S
C3299 C3307 1.503 . S
C3300 C3299 1.410 . S
C3300 C3301 1.392 . S
C3300 C3303 1.511 . S
C3301 C3297 1.376 . S
C3301 C3300 1.392 . S
C3301 H3313 0.929 . S
C3302 C3298 1.531 . S
C3302 H3314 0.960 . S
C3302 H3315 0.962 . S
C3302 H3316 0.960 . S
C3303 C3300 1.511 . S
C3303 H3317 0.961 . S
C3303 H3318 0.961 . S
C3303 H3319 0.961 . S
C3304 C3305 1.370 . S
C3304 C3306 1.363 . S
C3304 H3320 0.931 . S
C3305 C3304 1.370 . S
C3305 C3309 1.408 . S
C3306 C3304 1.363 . S
C3306 C3307 1.370 . S
C3306 C3310 1.524 . S
C3307 C3299 1.503 . S
C3307 C3306 1.370 . S
C3307 C3308 1.403 . S
C3308 C3307 1.403 . S
C3308 C3309 1.404 . S
C3308 C3311 1.539 . S
C3309 C3305 1.408 . S
C3309 C3308 1.404 . S
C3309 H3321 0.930 . S
C3310 C3306 1.524 . S
C3310 H3322 0.956 . S
C3310 H3323 0.961 . S
C3310 H3324 0.961 . S
C3311 C3308 1.539 . S
C3311 H3325 0.958 . S
C3311 H3326 0.961 . S
C3311 H3327 0.960 . S
H3312 C3296 0.931 . S
H3313 C3301 0.929 . S
H3314 C3302 0.960 . S
H3315 C3302 0.962 . S
H3316 C3302 0.960 . S
H3317 C3303 0.961 . S
H3318 C3303 0.961 . S
H3319 C3303 0.961 . S
H3320 C3304 0.931 . S
H3321 C3309 0.930 . S
H3322 C3310 0.956 . S
H3323 C3310 0.961 . S
H3324 C3310 0.961 . S
H3325 C3311 0.958 . S
H3326 C3311 0.961 . S
H3327 C3311 0.960 . S
C3328 C3329 1.391 . S
C3328 C3330 1.394 . S
C3328 H3344 0.931 . S
C3329 C3328 1.391 . S
C3329 C3333 1.376 . S
C3330 C3328 1.394 . S
C3330 C3331 1.369 . S
C3330 C3334 1.531 . S
C3331 C3330 1.369 . S
C3331 C3332 1.410 . S
C3331 C3339 1.503 . S
C3332 C3331 1.410 . S
C3332 C3333 1.392 . S
C3332 C3335 1.511 . S
C3333 C3329 1.376 . S
C3333 C3332 1.392 . S
C3333 H3345 0.929 . S
C3334 C3330 1.531 . S
C3334 H3346 0.960 . S
C3334 H3347 0.962 . S
C3334 H3348 0.960 . S
C3335 C3332 1.511 . S
C3335 H3349 0.961 . S
C3335 H3350 0.961 . S
C3335 H3351 0.961 . S
C3336 C3337 1.370 . S
C3336 C3338 1.363 . S
C3336 H3352 0.931 . S
C3337 C3336 1.370 . S
C3337 C3341 1.408 . S
C3338 C3336 1.363 . S
C3338 C3339 1.370 . S
C3338 C3342 1.524 . S
C3339 C3331 1.503 . S
C3339 C3338 1.370 . S
C3339 C3340 1.403 . S
C3340 C3339 1.403 . S
C3340 C3341 1.404 . S
C3340 C3343 1.539 . S
C3341 C3337 1.408 . S
C3341 C3340 1.404 . S
C3341 H3353 0.930 . S
C3342 C3338 1.524 . S
C3342 H3354 0.956 . S
C3342 H3355 0.961 . S
C3342 H3356 0.961 . S
C3343 C3340 1.539 . S
C3343 H3357 0.958 . S
C3343 H3358 0.961 . S
C3343 H3359 0.960 . S
H3344 C3328 0.931 . S
H3345 C3333 0.929 . S
H3346 C3334 0.960 . S
H3347 C3334 0.962 . S
H3348 C3334 0.960 . S
H3349 C3335 0.961 . S
H3350 C3335 0.961 . S
H3351 C3335 0.961 . S
H3352 C3336 0.931 . S
H3353 C3341 0.930 . S
H3354 C3342 0.956 . S
H3355 C3342 0.961 . S
H3356 C3342 0.961 . S
H3357 C3343 0.958 . S
H3358 C3343 0.961 . S
H3359 C3343 0.960 . S
C3360 C3361 1.391 . S
C3360 C3362 1.394 . S
C3360 H3376 0.931 . S
C3361 C3360 1.391 . S
C3361 C3365 1.376 . S
C3362 C3360 1.394 . S
C3362 C3363 1.369 . S
C3362 C3366 1.531 . S
C3363 C3362 1.369 . S
C3363 C3364 1.410 . S
C3363 C3371 1.503 . S
C3364 C3363 1.410 . S
C3364 C3365 1.392 . S
C3364 C3367 1.511 . S
C3365 C3361 1.376 . S
C3365 C3364 1.392 . S
C3365 H3377 0.929 . S
C3366 C3362 1.531 . S
C3366 H3378 0.960 . S
C3366 H3379 0.962 . S
C3366 H3380 0.960 . S
C3367 C3364 1.511 . S
C3367 H3381 0.961 . S
C3367 H3382 0.961 . S
C3367 H3383 0.961 . S
C3368 C3369 1.370 . S
C3368 C3370 1.363 . S
C3368 H3384 0.931 . S
C3369 C3368 1.370 . S
C3369 C3373 1.408 . S
C3370 C3368 1.363 . S
C3370 C3371 1.370 . S
C3370 C3374 1.524 . S
C3371 C3363 1.503 . S
C3371 C3370 1.370 . S
C3371 C3372 1.403 . S
C3372 C3371 1.403 . S
C3372 C3373 1.404 . S
C3372 C3375 1.539 . S
C3373 C3369 1.408 . S
C3373 C3372 1.404 . S
C3373 H3385 0.930 . S
C3374 C3370 1.524 . S
C3374 H3386 0.956 . S
C3374 H3387 0.961 . S
C3374 H3388 0.961 . S
C3375 C3372 1.539 . S
C3375 H3389 0.958 . S
C3375 H3390 0.961 . S
C3375 H3391 0.960 . S
H3376 C3360 0.931 . S
H3377 C3365 0.929 . S
H3378 C3366 0.960 . S
H3379 C3366 0.962 . S
H3380 C3366 0.960 . S
H3381 C3367 0.961 . S
H3382 C3367 0.961 . S
H3383 C3367 0.961 . S
H3384 C3368 0.931 . S
H3385 C3373 0.930 . S
H3386 C3374 0.956 . S
H3387 C3374 0.961 . S
H3388 C3374 0.961 . S
H3389 C3375 0.958 . S
H3390 C3375 0.961 . S
H3391 C3375 0.960 . S
C3392 C3393 1.391 . S
C3392 C3394 1.394 . S
C3392 H3408 0.931 . S
C3393 C3392 1.391 . S
C3393 C3397 1.376 . S
C3394 C3392 1.394 . S
C3394 C3395 1.369 . S
C3394 C3398 1.531 . S
C3395 C3394 1.369 . S
C3395 C3396 1.410 . S
C3395 C3403 1.503 . S
C3396 C3395 1.410 . S
C3396 C3397 1.392 . S
C3396 C3399 1.511 . S
C3397 C3393 1.376 . S
C3397 C3396 1.392 . S
C3397 H3409 0.929 . S
C3398 C3394 1.531 . S
C3398 H3410 0.960 . S
C3398 H3411 0.962 . S
C3398 H3412 0.960 . S
C3399 C3396 1.511 . S
C3399 H3413 0.961 . S
C3399 H3414 0.961 . S
C3399 H3415 0.961 . S
C3400 C3401 1.370 . S
C3400 C3402 1.363 . S
C3400 H3416 0.931 . S
C3401 C3400 1.370 . S
C3401 C3405 1.408 . S
C3402 C3400 1.363 . S
C3402 C3403 1.370 . S
C3402 C3406 1.524 . S
C3403 C3395 1.503 . S
C3403 C3402 1.370 . S
C3403 C3404 1.403 . S
C3404 C3403 1.403 . S
C3404 C3405 1.404 . S
C3404 C3407 1.539 . S
C3405 C3401 1.408 . S
C3405 C3404 1.404 . S
C3405 H3417 0.930 . S
C3406 C3402 1.524 . S
C3406 H3418 0.956 . S
C3406 H3419 0.961 . S
C3406 H3420 0.961 . S
C3407 C3404 1.539 . S
C3407 H3421 0.958 . S
C3407 H3422 0.961 . S
C3407 H3423 0.960 . S
H3408 C3392 0.931 . S
H3409 C3397 0.929 . S
H3410 C3398 0.960 . S
H3411 C3398 0.962 . S
H3412 C3398 0.960 . S
H3413 C3399 0.961 . S
H3414 C3399 0.961 . S
H3415 C3399 0.961 . S
H3416 C3400 0.931 . S
H3417 C3405 0.930 . S
H3418 C3406 0.956 . S
H3419 C3406 0.961 . S
H3420 C3406 0.961 . S
H3421 C3407 0.958 . S
H3422 C3407 0.961 . S
H3423 C3407 0.960 . S
C3424 C3425 1.391 . S
C3424 C3426 1.394 . S
C3424 H3440 0.931 . S
C3425 C3424 1.391 . S
C3425 C3429 1.376 . S
C3426 C3424 1.394 . S
C3426 C3427 1.369 . S
C3426 C3430 1.531 . S
C3427 C3426 1.369 . S
C3427 C3428 1.410 . S
C3427 C3435 1.503 . S
C3428 C3427 1.410 . S
C3428 C3429 1.392 . S
C3428 C3431 1.511 . S
C3429 C3425 1.376 . S
C3429 C3428 1.392 . S
C3429 H3441 0.929 . S
C3430 C3426 1.531 . S
C3430 H3442 0.960 . S
C3430 H3443 0.962 . S
C3430 H3444 0.960 . S
C3431 C3428 1.511 . S
C3431 H3445 0.961 . S
C3431 H3446 0.961 . S
C3431 H3447 0.961 . S
C3432 C3433 1.370 . S
C3432 C3434 1.363 . S
C3432 H3448 0.931 . S
C3433 C3432 1.370 . S
C3433 C3437 1.408 . S
C3434 C3432 1.363 . S
C3434 C3435 1.370 . S
C3434 C3438 1.524 . S
C3435 C3427 1.503 . S
C3435 C3434 1.370 . S
C3435 C3436 1.403 . S
C3436 C3435 1.403 . S
C3436 C3437 1.404 . S
C3436 C3439 1.539 . S
C3437 C3433 1.408 . S
C3437 C3436 1.404 . S
C3437 H3449 0.930 . S
C3438 C3434 1.524 . S
C3438 H3450 0.956 . S
C3438 H3451 0.961 . S
C3438 H3452 0.961 . S
C3439 C3436 1.539 . S
C3439 H3453 0.958 . S
C3439 H3454 0.961 . S
C3439 H3455 0.960 . S
H3440 C3424 0.931 . S
H3441 C3429 0.929 . S
H3442 C3430 0.960 . S
H3443 C3430 0.962 . S
H3444 C3430 0.960 . S
H3445 C3431 0.961 . S
H3446 C3431 0.961 . S
H3447 C3431 0.961 . S
H3448 C3432 0.931 . S
H3449 C3437 0.930 . S
H3450 C3438 0.956 . S
H3451 C3438 0.961 . S
H3452 C3438 0.961 . S
H3453 C3439 0.958 . S
H3454 C3439 0.961 . S
H3455 C3439 0.960 . S
C3456 C3457 1.391 . S
C3456 C3458 1.394 . S
C3456 H3472 0.931 . S
C3457 C3456 1.391 . S
C3457 C3461 1.376 . S
C3458 C3456 1.394 . S
C3458 C3459 1.369 . S
C3458 C3462 1.531 . S
C3459 C3458 1.369 . S
C3459 C3460 1.410 . S
C3459 C3467 1.503 . S
C3460 C3459 1.410 . S
C3460 C3461 1.392 . S
C3460 C3463 1.511 . S
C3461 C3457 1.376 . S
C3461 C3460 1.392 . S
C3461 H3473 0.929 . S
C3462 C3458 1.531 . S
C3462 H3474 0.960 . S
C3462 H3475 0.962 . S
C3462 H3476 0.960 . S
C3463 C3460 1.511 . S
C3463 H3477 0.961 . S
C3463 H3478 0.961 . S
C3463 H3479 0.961 . S
C3464 C3465 1.370 . S
C3464 C3466 1.363 . S
C3464 H3480 0.931 . S
C3465 C3464 1.370 . S
C3465 C3469 1.408 . S
C3466 C3464 1.363 . S
C3466 C3467 1.370 . S
C3466 C3470 1.524 . S
C3467 C3459 1.503 . S
C3467 C3466 1.370 . S
C3467 C3468 1.403 . S
C3468 C3467 1.403 . S
C3468 C3469 1.404 . S
C3468 C3471 1.539 . S
C3469 C3465 1.408 . S
C3469 C3468 1.404 . S
C3469 H3481 0.930 . S
C3470 C3466 1.524 . S
C3470 H3482 0.956 . S
C3470 H3483 0.961 . S
C3470 H3484 0.961 . S
C3471 C3468 1.539 . S
C3471 H3485 0.958 . S
C3471 H3486 0.961 . S
C3471 H3487 0.960 . S
H3472 C3456 0.931 . S
H3473 C3461 0.929 . S
H3474 C3462 0.960 . S
H3475 C3462 0.962 . S
H3476 C3462 0.960 . S
H3477 C3463 0.961 . S
H3478 C3463 0.961 . S
H3479 C3463 0.961 . S
H3480 C3464 0.931 . S
H3481 C3469 0.930 . S
H3482 C3470 0.956 . S
H3483 C3470 0.961 . S
H3484 C3470 0.961 . S
H3485 C3471 0.958 . S
H3486 C3471 0.961 . S
H3487 C3471 0.960 . S
C3488 C3489 1.391 . S
C3488 C3490 1.394 . S
C3488 H3504 0.931 . S
C3489 C3488 1.391 . S
C3489 C3493 1.376 . S
C3490 C3488 1.394 . S
C3490 C3491 1.369 . S
C3490 C3494 1.531 . S
C3491 C3490 1.369 . S
C3491 C3492 1.410 . S
C3491 C3499 1.503 . S
C3492 C3491 1.410 . S
C3492 C3493 1.392 . S
C3492 C3495 1.511 . S
C3493 C3489 1.376 . S
C3493 C3492 1.392 . S
C3493 H3505 0.929 . S
C3494 C3490 1.531 . S
C3494 H3506 0.960 . S
C3494 H3507 0.962 . S
C3494 H3508 0.960 . S
C3495 C3492 1.511 . S
C3495 H3509 0.961 . S
C3495 H3510 0.961 . S
C3495 H3511 0.961 . S
C3496 C3497 1.370 . S
C3496 C3498 1.363 . S
C3496 H3512 0.931 . S
C3497 C3496 1.370 . S
C3497 C3501 1.408 . S
C3498 C3496 1.363 . S
C3498 C3499 1.370 . S
C3498 C3502 1.524 . S
C3499 C3491 1.503 . S
C3499 C3498 1.370 . S
C3499 C3500 1.403 . S
C3500 C3499 1.403 . S
C3500 C3501 1.404 . S
C3500 C3503 1.539 . S
C3501 C3497 1.408 . S
C3501 C3500 1.404 . S
C3501 H3513 0.930 . S
C3502 C3498 1.524 . S
C3502 H3514 0.956 . S
C3502 H3515 0.961 . S
C3502 H3516 0.961 . S
C3503 C3500 1.539 . S
C3503 H3517 0.958 . S
C3503 H3518 0.961 . S
C3503 H3519 0.960 . S
H3504 C3488 0.931 . S
H3505 C3493 0.929 . S
H3506 C3494 0.960 . S
H3507 C3494 0.962 . S
H3508 C3494 0.960 . S
H3509 C3495 0.961 . S
H3510 C3495 0.961 . S
H3511 C3495 0.961 . S
H3512 C3496 0.931 . S
H3513 C3501 0.930 . S
H3514 C3502 0.956 . S
H3515 C3502 0.961 . S
H3516 C3502 0.961 . S
H3517 C3503 0.958 . S
H3518 C3503 0.961 . S
H3519 C3503 0.960 . S
C3520 C3521 1.391 . S
C3520 C3522 1.394 . S
C3520 H3536 0.931 . S
C3521 C3520 1.391 . S
C3521 C3525 1.376 . S
C3522 C3520 1.394 . S
C3522 C3523 1.369 . S
C3522 C3526 1.531 . S
C3523 C3522 1.369 . S
C3523 C3524 1.410 . S
C3523 C3531 1.503 . S
C3524 C3523 1.410 . S
C3524 C3525 1.392 . S
C3524 C3527 1.511 . S
C3525 C3521 1.376 . S
C3525 C3524 1.392 . S
C3525 H3537 0.929 . S
C3526 C3522 1.531 . S
C3526 H3538 0.960 . S
C3526 H3539 0.962 . S
C3526 H3540 0.960 . S
C3527 C3524 1.511 . S
C3527 H3541 0.961 . S
C3527 H3542 0.961 . S
C3527 H3543 0.961 . S
C3528 C3529 1.370 . S
C3528 C3530 1.363 . S
C3528 H3544 0.931 . S
C3529 C3528 1.370 . S
C3529 C3533 1.408 . S
C3530 C3528 1.363 . S
C3530 C3531 1.370 . S
C3530 C3534 1.524 . S
C3531 C3523 1.503 . S
C3531 C3530 1.370 . S
C3531 C3532 1.403 . S
C3532 C3531 1.403 . S
C3532 C3533 1.404 . S
C3532 C3535 1.539 . S
C3533 C3529 1.408 . S
C3533 C3532 1.404 . S
C3533 H3545 0.930 . S
C3534 C3530 1.524 . S
C3534 H3546 0.956 . S
C3534 H3547 0.961 . S
C3534 H3548 0.961 . S
C3535 C3532 1.539 . S
C3535 H3549 0.958 . S
C3535 H3550 0.961 . S
C3535 H3551 0.960 . S
H3536 C3520 0.931 . S
H3537 C3525 0.929 . S
H3538 C3526 0.960 . S
H3539 C3526 0.962 . S
H3540 C3526 0.960 . S
H3541 C3527 0.961 . S
H3542 C3527 0.961 . S
H3543 C3527 0.961 . S
H3544 C3528 0.931 . S
H3545 C3533 0.930 . S
H3546 C3534 0.956 . S
H3547 C3534 0.961 . S
H3548 C3534 0.961 . S
H3549 C3535 0.958 . S
H3550 C3535 0.961 . S
H3551 C3535 0.960 . S
C3552 C3553 1.391 . S
C3552 C3554 1.394 . S
C3552 H3568 0.931 . S
C3553 C3552 1.391 . S
C3553 C3557 1.376 . S
C3554 C3552 1.394 . S
C3554 C3555 1.369 . S
C3554 C3558 1.531 . S
C3555 C3554 1.369 . S
C3555 C3556 1.410 . S
C3555 C3563 1.503 . S
C3556 C3555 1.410 . S
C3556 C3557 1.392 . S
C3556 C3559 1.511 . S
C3557 C3553 1.376 . S
C3557 C3556 1.392 . S
C3557 H3569 0.929 . S
C3558 C3554 1.531 . S
C3558 H3570 0.960 . S
C3558 H3571 0.962 . S
C3558 H3572 0.960 . S
C3559 C3556 1.511 . S
C3559 H3573 0.961 . S
C3559 H3574 0.961 . S
C3559 H3575 0.961 . S
C3560 C3561 1.370 . S
C3560 C3562 1.363 . S
C3560 H3576 0.931 . S
C3561 C3560 1.370 . S
C3561 C3565 1.408 . S
C3562 C3560 1.363 . S
C3562 C3563 1.370 . S
C3562 C3566 1.524 . S
C3563 C3555 1.503 . S
C3563 C3562 1.370 . S
C3563 C3564 1.403 . S
C3564 C3563 1.403 . S
C3564 C3565 1.404 . S
C3564 C3567 1.539 . S
C3565 C3561 1.408 . S
C3565 C3564 1.404 . S
C3565 H3577 0.930 . S
C3566 C3562 1.524 . S
C3566 H3578 0.956 . S
C3566 H3579 0.961 . S
C3566 H3580 0.961 . S
C3567 C3564 1.539 . S
C3567 H3581 0.958 . S
C3567 H3582 0.961 . S
C3567 H3583 0.960 . S
H3568 C3552 0.931 . S
H3569 C3557 0.929 . S
H3570 C3558 0.960 . S
H3571 C3558 0.962 . S
H3572 C3558 0.960 . S
H3573 C3559 0.961 . S
H3574 C3559 0.961 . S
H3575 C3559 0.961 . S
H3576 C3560 0.931 . S
H3577 C3565 0.930 . S
H3578 C3566 0.956 . S
H3579 C3566 0.961 . S
H3580 C3566 0.961 . S
H3581 C3567 0.958 . S
H3582 C3567 0.961 . S
H3583 C3567 0.960 . S
C3584 C3585 1.391 . S
C3584 C3586 1.394 . S
C3584 H3600 0.931 . S
C3585 C3584 1.391 . S
C3585 C3589 1.376 . S
C3586 C3584 1.394 . S
C3586 C3587 1.369 . S
C3586 C3590 1.531 . S
C3587 C3586 1.369 . S
C3587 C3588 1.410 . S
C3587 C3595 1.503 . S
C3588 C3587 1.410 . S
C3588 C3589 1.392 . S
C3588 C3591 1.511 . S
C3589 C3585 1.376 . S
C3589 C3588 1.392 . S
C3589 H3601 0.929 . S
C3590 C3586 1.531 . S
C3590 H3602 0.960 . S
C3590 H3603 0.962 . S
C3590 H3604 0.960 . S
C3591 C3588 1.511 . S
C3591 H3605 0.961 . S
C3591 H3606 0.961 . S
C3591 H3607 0.961 . S
C3592 C3593 1.370 . S
C3592 C3594 1.363 . S
C3592 H3608 0.931 . S
C3593 C3592 1.370 . S
C3593 C3597 1.408 . S
C3594 C3592 1.363 . S
C3594 C3595 1.370 . S
C3594 C3598 1.524 . S
C3595 C3587 1.503 . S
C3595 C3594 1.370 . S
C3595 C3596 1.403 . S
C3596 C3595 1.403 . S
C3596 C3597 1.404 . S
C3596 C3599 1.539 . S
C3597 C3593 1.408 . S
C3597 C3596 1.404 . S
C3597 H3609 0.930 . S
C3598 C3594 1.524 . S
C3598 H3610 0.956 . S
C3598 H3611 0.961 . S
C3598 H3612 0.961 . S
C3599 C3596 1.539 . S
C3599 H3613 0.958 . S
C3599 H3614 0.961 . S
C3599 H3615 0.960 . S
H3600 C3584 0.931 . S
H3601 C3589 0.929 . S
H3602 C3590 0.960 . S
H3603 C3590 0.962 . S
H3604 C3590 0.960 . S
H3605 C3591 0.961 . S
H3606 C3591 0.961 . S
H3607 C3591 0.961 . S
H3608 C3592 0.931 . S
H3609 C3597 0.930 . S
H3610 C3598 0.956 . S
H3611 C3598 0.961 . S
H3612 C3598 0.961 . S
H3613 C3599 0.958 . S
H3614 C3599 0.961 . S
H3615 C3599 0.960 . S
C3616 C3617 1.391 . S
C3616 C3618 1.394 . S
C3616 H3632 0.931 . S
C3617 C3616 1.391 . S
C3617 C3621 1.376 . S
C3618 C3616 1.394 . S
C3618 C3619 1.369 . S
C3618 C3622 1.531 . S
C3619 C3618 1.369 . S
C3619 C3620 1.410 . S
C3619 C3627 1.503 . S
C3620 C3619 1.410 . S
C3620 C3621 1.392 . S
C3620 C3623 1.511 . S
C3621 C3617 1.376 . S
C3621 C3620 1.392 . S
C3621 H3633 0.929 . S
C3622 C3618 1.531 . S
C3622 H3634 0.960 . S
C3622 H3635 0.962 . S
C3622 H3636 0.960 . S
C3623 C3620 1.511 . S
C3623 H3637 0.961 . S
C3623 H3638 0.961 . S
C3623 H3639 0.961 . S
C3624 C3625 1.370 . S
C3624 C3626 1.363 . S
C3624 H3640 0.931 . S
C3625 C3624 1.370 . S
C3625 C3629 1.408 . S
C3626 C3624 1.363 . S
C3626 C3627 1.370 . S
C3626 C3630 1.524 . S
C3627 C3619 1.503 . S
C3627 C3626 1.370 . S
C3627 C3628 1.403 . S
C3628 C3627 1.403 . S
C3628 C3629 1.404 . S
C3628 C3631 1.539 . S
C3629 C3625 1.408 . S
C3629 C3628 1.404 . S
C3629 H3641 0.930 . S
C3630 C3626 1.524 . S
C3630 H3642 0.956 . S
C3630 H3643 0.961 . S
C3630 H3644 0.961 . S
C3631 C3628 1.539 . S
C3631 H3645 0.958 . S
C3631 H3646 0.961 . S
C3631 H3647 0.960 . S
H3632 C3616 0.931 . S
H3633 C3621 0.929 . S
H3634 C3622 0.960 . S
H3635 C3622 0.962 . S
H3636 C3622 0.960 . S
H3637 C3623 0.961 . S
H3638 C3623 0.961 . S
H3639 C3623 0.961 . S
H3640 C3624 0.931 . S
H3641 C3629 0.930 . S
H3642 C3630 0.956 . S
H3643 C3630 0.961 . S
H3644 C3630 0.961 . S
H3645 C3631 0.958 . S
H3646 C3631 0.961 . S
H3647 C3631 0.960 . S
C3648 C3649 1.391 . S
C3648 C3650 1.394 . S
C3648 H3664 0.931 . S
C3649 C3648 1.391 . S
C3649 C3653 1.376 . S
C3650 C3648 1.394 . S
C3650 C3651 1.369 . S
C3650 C3654 1.531 . S
C3651 C3650 1.369 . S
C3651 C3652 1.410 . S
C3651 C3659 1.503 . S
C3652 C3651 1.410 . S
C3652 C3653 1.392 . S
C3652 C3655 1.511 . S
C3653 C3649 1.376 . S
C3653 C3652 1.392 . S
C3653 H3665 0.929 . S
C3654 C3650 1.531 . S
C3654 H3666 0.960 . S
C3654 H3667 0.962 . S
C3654 H3668 0.960 . S
C3655 C3652 1.511 . S
C3655 H3669 0.961 . S
C3655 H3670 0.961 . S
C3655 H3671 0.961 . S
C3656 C3657 1.370 . S
C3656 C3658 1.363 . S
C3656 H3672 0.931 . S
C3657 C3656 1.370 . S
C3657 C3661 1.408 . S
C3658 C3656 1.363 . S
C3658 C3659 1.370 . S
C3658 C3662 1.524 . S
C3659 C3651 1.503 . S
C3659 C3658 1.370 . S
C3659 C3660 1.403 . S
C3660 C3659 1.403 . S
C3660 C3661 1.404 . S
C3660 C3663 1.539 . S
C3661 C3657 1.408 . S
C3661 C3660 1.404 . S
C3661 H3673 0.930 1_455 S
C3662 C3658 1.524 . S
C3662 H3674 0.956 . S
C3662 H3675 0.961 . S
C3662 H3676 0.961 . S
C3663 C3660 1.539 . S
C3663 H3677 0.958 . S
C3663 H3678 0.961 1_455 S
C3663 H3679 0.960 . S
H3664 C3648 0.931 . S
H3665 C3653 0.929 . S
H3666 C3654 0.960 . S
H3667 C3654 0.962 . S
H3668 C3654 0.960 . S
H3669 C3655 0.961 . S
H3670 C3655 0.961 . S
H3671 C3655 0.961 . S
H3672 C3656 0.931 . S
H3673 C3661 0.930 1_655 S
H3674 C3662 0.956 . S
H3675 C3662 0.961 . S
H3676 C3662 0.961 . S
H3677 C3663 0.958 . S
H3678 C3663 0.961 1_655 S
H3679 C3663 0.960 . S
C3680 C3681 1.391 . S
C3680 C3682 1.394 . S
C3680 H3696 0.931 . S
C3681 C3680 1.391 . S
C3681 C3685 1.376 . S
C3682 C3680 1.394 . S
C3682 C3683 1.369 . S
C3682 C3686 1.531 . S
C3683 C3682 1.369 . S
C3683 C3684 1.410 . S
C3683 C3691 1.503 . S
C3684 C3683 1.410 . S
C3684 C3685 1.392 . S
C3684 C3687 1.511 . S
C3685 C3681 1.376 . S
C3685 C3684 1.392 . S
C3685 H3697 0.929 . S
C3686 C3682 1.531 . S
C3686 H3698 0.960 . S
C3686 H3699 0.962 . S
C3686 H3700 0.960 . S
C3687 C3684 1.511 . S
C3687 H3701 0.961 . S
C3687 H3702 0.961 . S
C3687 H3703 0.961 . S
C3688 C3689 1.370 . S
C3688 C3690 1.363 . S
C3688 H3704 0.931 . S
C3689 C3688 1.370 . S
C3689 C3693 1.408 . S
C3690 C3688 1.363 . S
C3690 C3691 1.370 . S
C3690 C3694 1.524 . S
C3691 C3683 1.503 . S
C3691 C3690 1.370 . S
C3691 C3692 1.403 . S
C3692 C3691 1.403 . S
C3692 C3693 1.404 . S
C3692 C3695 1.539 . S
C3693 C3689 1.408 . S
C3693 C3692 1.404 . S
C3693 H3705 0.930 . S
C3694 C3690 1.524 . S
C3694 H3706 0.956 . S
C3694 H3707 0.961 . S
C3694 H3708 0.961 . S
C3695 C3692 1.539 . S
C3695 H3709 0.958 . S
C3695 H3710 0.961 . S
C3695 H3711 0.960 . S
H3696 C3680 0.931 . S
H3697 C3685 0.929 . S
H3698 C3686 0.960 . S
H3699 C3686 0.962 . S
H3700 C3686 0.960 . S
H3701 C3687 0.961 . S
H3702 C3687 0.961 . S
H3703 C3687 0.961 . S
H3704 C3688 0.931 . S
H3705 C3693 0.930 . S
H3706 C3694 0.956 . S
H3707 C3694 0.961 . S
H3708 C3694 0.961 . S
H3709 C3695 0.958 . S
H3710 C3695 0.961 . S
H3711 C3695 0.960 . S
C3712 C3713 1.391 . S
C3712 C3714 1.394 . S
C3712 H3728 0.931 . S
C3713 C3712 1.391 . S
C3713 C3717 1.376 . S
C3714 C3712 1.394 . S
C3714 C3715 1.369 . S
C3714 C3718 1.531 . S
C3715 C3714 1.369 . S
C3715 C3716 1.410 . S
C3715 C3723 1.503 . S
C3716 C3715 1.410 . S
C3716 C3717 1.392 . S
C3716 C3719 1.511 . S
C3717 C3713 1.376 . S
C3717 C3716 1.392 . S
C3717 H3729 0.929 . S
C3718 C3714 1.531 . S
C3718 H3730 0.960 . S
C3718 H3731 0.962 . S
C3718 H3732 0.960 . S
C3719 C3716 1.511 . S
C3719 H3733 0.961 . S
C3719 H3734 0.961 . S
C3719 H3735 0.961 . S
C3720 C3721 1.370 . S
C3720 C3722 1.363 . S
C3720 H3736 0.931 . S
C3721 C3720 1.370 . S
C3721 C3725 1.408 . S
C3722 C3720 1.363 . S
C3722 C3723 1.370 . S
C3722 C3726 1.524 . S
C3723 C3715 1.503 . S
C3723 C3722 1.370 . S
C3723 C3724 1.403 . S
C3724 C3723 1.403 . S
C3724 C3725 1.404 . S
C3724 C3727 1.539 . S
C3725 C3721 1.408 . S
C3725 C3724 1.404 . S
C3725 H3737 0.930 . S
C3726 C3722 1.524 . S
C3726 H3738 0.956 . S
C3726 H3739 0.961 . S
C3726 H3740 0.961 . S
C3727 C3724 1.539 . S
C3727 H3741 0.958 . S
C3727 H3742 0.961 . S
C3727 H3743 0.960 . S
H3728 C3712 0.931 . S
H3729 C3717 0.929 . S
H3730 C3718 0.960 . S
H3731 C3718 0.962 . S
H3732 C3718 0.960 . S
H3733 C3719 0.961 . S
H3734 C3719 0.961 . S
H3735 C3719 0.961 . S
H3736 C3720 0.931 . S
H3737 C3725 0.930 . S
H3738 C3726 0.956 . S
H3739 C3726 0.961 . S
H3740 C3726 0.961 . S
H3741 C3727 0.958 . S
H3742 C3727 0.961 . S
H3743 C3727 0.960 . S
C3744 C3745 1.391 . S
C3744 C3746 1.394 . S
C3744 H3760 0.931 . S
C3745 C3744 1.391 . S
C3745 C3749 1.376 . S
C3746 C3744 1.394 . S
C3746 C3747 1.369 . S
C3746 C3750 1.531 . S
C3747 C3746 1.369 . S
C3747 C3748 1.410 . S
C3747 C3755 1.503 . S
C3748 C3747 1.410 . S
C3748 C3749 1.392 . S
C3748 C3751 1.511 . S
C3749 C3745 1.376 . S
C3749 C3748 1.392 . S
C3749 H3761 0.929 . S
C3750 C3746 1.531 . S
C3750 H3762 0.960 . S
C3750 H3763 0.962 . S
C3750 H3764 0.960 . S
C3751 C3748 1.511 . S
C3751 H3765 0.961 . S
C3751 H3766 0.961 . S
C3751 H3767 0.961 . S
C3752 C3753 1.370 . S
C3752 C3754 1.363 . S
C3752 H3768 0.931 . S
C3753 C3752 1.370 . S
C3753 C3757 1.408 . S
C3754 C3752 1.363 . S
C3754 C3755 1.370 . S
C3754 C3758 1.524 . S
C3755 C3747 1.503 . S
C3755 C3754 1.370 . S
C3755 C3756 1.403 . S
C3756 C3755 1.403 . S
C3756 C3757 1.404 . S
C3756 C3759 1.539 . S
C3757 C3753 1.408 . S
C3757 C3756 1.404 . S
C3757 H3769 0.930 . S
C3758 C3754 1.524 . S
C3758 H3770 0.956 . S
C3758 H3771 0.961 . S
C3758 H3772 0.961 . S
C3759 C3756 1.539 . S
C3759 H3773 0.958 . S
C3759 H3774 0.961 . S
C3759 H3775 0.960 . S
H3760 C3744 0.931 . S
H3761 C3749 0.929 . S
H3762 C3750 0.960 . S
H3763 C3750 0.962 . S
H3764 C3750 0.960 . S
H3765 C3751 0.961 . S
H3766 C3751 0.961 . S
H3767 C3751 0.961 . S
H3768 C3752 0.931 . S
H3769 C3757 0.930 . S
H3770 C3758 0.956 . S
H3771 C3758 0.961 . S
H3772 C3758 0.961 . S
H3773 C3759 0.958 . S
H3774 C3759 0.961 . S
H3775 C3759 0.960 . S
C3776 C3777 1.391 . S
C3776 C3778 1.394 . S
C3776 H3792 0.931 . S
C3777 C3776 1.391 . S
C3777 C3781 1.376 . S
C3778 C3776 1.394 . S
C3778 C3779 1.369 . S
C3778 C3782 1.531 . S
C3779 C3778 1.369 . S
C3779 C3780 1.410 . S
C3779 C3787 1.503 . S
C3780 C3779 1.410 . S
C3780 C3781 1.392 . S
C3780 C3783 1.511 . S
C3781 C3777 1.376 . S
C3781 C3780 1.392 . S
C3781 H3793 0.929 . S
C3782 C3778 1.531 . S
C3782 H3794 0.960 . S
C3782 H3795 0.962 . S
C3782 H3796 0.960 . S
C3783 C3780 1.511 . S
C3783 H3797 0.961 . S
C3783 H3798 0.961 . S
C3783 H3799 0.961 . S
C3784 C3785 1.370 . S
C3784 C3786 1.363 . S
C3784 H3800 0.931 . S
C3785 C3784 1.370 . S
C3785 C3789 1.408 . S
C3786 C3784 1.363 . S
C3786 C3787 1.370 . S
C3786 C3790 1.524 . S
C3787 C3779 1.503 . S
C3787 C3786 1.370 . S
C3787 C3788 1.403 . S
C3788 C3787 1.403 . S
C3788 C3789 1.404 . S
C3788 C3791 1.539 . S
C3789 C3785 1.408 . S
C3789 C3788 1.404 . S
C3789 H3801 0.930 . S
C3790 C3786 1.524 . S
C3790 H3802 0.956 . S
C3790 H3803 0.961 . S
C3790 H3804 0.961 . S
C3791 C3788 1.539 . S
C3791 H3805 0.958 . S
C3791 H3806 0.961 . S
C3791 H3807 0.960 . S
H3792 C3776 0.931 . S
H3793 C3781 0.929 . S
H3794 C3782 0.960 . S
H3795 C3782 0.962 . S
H3796 C3782 0.960 . S
H3797 C3783 0.961 . S
H3798 C3783 0.961 . S
H3799 C3783 0.961 . S
H3800 C3784 0.931 . S
H3801 C3789 0.930 . S
H3802 C3790 0.956 . S
H3803 C3790 0.961 . S
H3804 C3790 0.961 . S
H3805 C3791 0.958 . S
H3806 C3791 0.961 . S
H3807 C3791 0.960 . S
C3808 C3809 1.391 . S
C3808 C3810 1.394 . S
C3808 H3824 0.931 . S
C3809 C3808 1.391 . S
C3809 C3813 1.376 . S
C3810 C3808 1.394 . S
C3810 C3811 1.369 . S
C3810 C3814 1.531 . S
C3811 C3810 1.369 . S
C3811 C3812 1.410 . S
C3811 C3819 1.503 . S
C3812 C3811 1.410 . S
C3812 C3813 1.392 . S
C3812 C3815 1.511 . S
C3813 C3809 1.376 . S
C3813 C3812 1.392 . S
C3813 H3825 0.929 . S
C3814 C3810 1.531 . S
C3814 H3826 0.960 . S
C3814 H3827 0.962 . S
C3814 H3828 0.960 . S
C3815 C3812 1.511 . S
C3815 H3829 0.961 . S
C3815 H3830 0.961 . S
C3815 H3831 0.961 . S
C3816 C3817 1.370 . S
C3816 C3818 1.363 . S
C3816 H3832 0.931 . S
C3817 C3816 1.370 . S
C3817 C3821 1.408 . S
C3818 C3816 1.363 . S
C3818 C3819 1.370 . S
C3818 C3822 1.524 . S
C3819 C3811 1.503 . S
C3819 C3818 1.370 . S
C3819 C3820 1.403 . S
C3820 C3819 1.403 . S
C3820 C3821 1.404 . S
C3820 C3823 1.539 . S
C3821 C3817 1.408 . S
C3821 C3820 1.404 . S
C3821 H3833 0.930 . S
C3822 C3818 1.524 . S
C3822 H3834 0.956 . S
C3822 H3835 0.961 . S
C3822 H3836 0.961 . S
C3823 C3820 1.539 . S
C3823 H3837 0.958 . S
C3823 H3838 0.961 . S
C3823 H3839 0.960 . S
H3824 C3808 0.931 . S
H3825 C3813 0.929 . S
H3826 C3814 0.960 . S
H3827 C3814 0.962 . S
H3828 C3814 0.960 . S
H3829 C3815 0.961 . S
H3830 C3815 0.961 . S
H3831 C3815 0.961 . S
H3832 C3816 0.931 . S
H3833 C3821 0.930 . S
H3834 C3822 0.956 . S
H3835 C3822 0.961 . S
H3836 C3822 0.961 . S
H3837 C3823 0.958 . S
H3838 C3823 0.961 . S
H3839 C3823 0.960 . S
C3840 C3841 1.391 . S
C3840 C3842 1.394 . S
C3840 H3856 0.931 . S
C3841 C3840 1.391 . S
C3841 C3845 1.376 . S
C3842 C3840 1.394 . S
C3842 C3843 1.369 . S
C3842 C3846 1.531 . S
C3843 C3842 1.369 . S
C3843 C3844 1.410 . S
C3843 C3851 1.503 . S
C3844 C3843 1.410 . S
C3844 C3845 1.392 . S
C3844 C3847 1.511 . S
C3845 C3841 1.376 . S
C3845 C3844 1.392 . S
C3845 H3857 0.929 . S
C3846 C3842 1.531 . S
C3846 H3858 0.960 . S
C3846 H3859 0.962 . S
C3846 H3860 0.960 . S
C3847 C3844 1.511 . S
C3847 H3861 0.961 . S
C3847 H3862 0.961 . S
C3847 H3863 0.961 . S
C3848 C3849 1.370 . S
C3848 C3850 1.363 . S
C3848 H3864 0.931 . S
C3849 C3848 1.370 . S
C3849 C3853 1.408 . S
C3850 C3848 1.363 . S
C3850 C3851 1.370 . S
C3850 C3854 1.524 . S
C3851 C3843 1.503 . S
C3851 C3850 1.370 . S
C3851 C3852 1.403 . S
C3852 C3851 1.403 . S
C3852 C3853 1.404 . S
C3852 C3855 1.539 . S
C3853 C3849 1.408 . S
C3853 C3852 1.404 . S
C3853 H3865 0.930 . S
C3854 C3850 1.524 . S
C3854 H3866 0.956 . S
C3854 H3867 0.961 . S
C3854 H3868 0.961 . S
C3855 C3852 1.539 . S
C3855 H3869 0.958 . S
C3855 H3870 0.961 . S
C3855 H3871 0.960 . S
H3856 C3840 0.931 . S
H3857 C3845 0.929 . S
H3858 C3846 0.960 . S
H3859 C3846 0.962 . S
H3860 C3846 0.960 . S
H3861 C3847 0.961 . S
H3862 C3847 0.961 . S
H3863 C3847 0.961 . S
H3864 C3848 0.931 . S
H3865 C3853 0.930 . S
H3866 C3854 0.956 . S
H3867 C3854 0.961 . S
H3868 C3854 0.961 . S
H3869 C3855 0.958 . S
H3870 C3855 0.961 . S
H3871 C3855 0.960 . S
C3872 C3873 1.391 . S
C3872 C3874 1.394 . S
C3872 H3888 0.931 . S
C3873 C3872 1.391 . S
C3873 C3877 1.376 . S
C3874 C3872 1.394 . S
C3874 C3875 1.369 . S
C3874 C3878 1.531 . S
C3875 C3874 1.369 . S
C3875 C3876 1.410 . S
C3875 C3883 1.503 . S
C3876 C3875 1.410 . S
C3876 C3877 1.392 . S
C3876 C3879 1.511 . S
C3877 C3873 1.376 . S
C3877 C3876 1.392 . S
C3877 H3889 0.929 . S
C3878 C3874 1.531 . S
C3878 H3890 0.960 . S
C3878 H3891 0.962 . S
C3878 H3892 0.960 . S
C3879 C3876 1.511 . S
C3879 H3893 0.961 . S
C3879 H3894 0.961 . S
C3879 H3895 0.961 . S
C3880 C3881 1.370 . S
C3880 C3882 1.363 . S
C3880 H3896 0.931 . S
C3881 C3880 1.370 . S
C3881 C3885 1.408 . S
C3882 C3880 1.363 . S
C3882 C3883 1.370 . S
C3882 C3886 1.524 . S
C3883 C3875 1.503 . S
C3883 C3882 1.370 . S
C3883 C3884 1.403 . S
C3884 C3883 1.403 . S
C3884 C3885 1.404 . S
C3884 C3887 1.539 . S
C3885 C3881 1.408 . S
C3885 C3884 1.404 . S
C3885 H3897 0.930 . S
C3886 C3882 1.524 . S
C3886 H3898 0.956 . S
C3886 H3899 0.961 . S
C3886 H3900 0.961 . S
C3887 C3884 1.539 . S
C3887 H3901 0.958 . S
C3887 H3902 0.961 . S
C3887 H3903 0.960 . S
H3888 C3872 0.931 . S
H3889 C3877 0.929 . S
H3890 C3878 0.960 . S
H3891 C3878 0.962 . S
H3892 C3878 0.960 . S
H3893 C3879 0.961 . S
H3894 C3879 0.961 . S
H3895 C3879 0.961 . S
H3896 C3880 0.931 . S
H3897 C3885 0.930 . S
H3898 C3886 0.956 . S
H3899 C3886 0.961 . S
H3900 C3886 0.961 . S
H3901 C3887 0.958 . S
H3902 C3887 0.961 . S
H3903 C3887 0.960 . S
C3904 C3905 1.391 . S
C3904 C3906 1.394 . S
C3904 H3920 0.931 . S
C3905 C3904 1.391 . S
C3905 C3909 1.376 . S
C3906 C3904 1.394 . S
C3906 C3907 1.369 . S
C3906 C3910 1.531 . S
C3907 C3906 1.369 . S
C3907 C3908 1.410 . S
C3907 C3915 1.503 . S
C3908 C3907 1.410 . S
C3908 C3909 1.392 . S
C3908 C3911 1.511 . S
C3909 C3905 1.376 . S
C3909 C3908 1.392 . S
C3909 H3921 0.929 . S
C3910 C3906 1.531 . S
C3910 H3922 0.960 . S
C3910 H3923 0.962 . S
C3910 H3924 0.960 . S
C3911 C3908 1.511 . S
C3911 H3925 0.961 . S
C3911 H3926 0.961 . S
C3911 H3927 0.961 . S
C3912 C3913 1.370 . S
C3912 C3914 1.363 . S
C3912 H3928 0.931 . S
C3913 C3912 1.370 . S
C3913 C3917 1.408 . S
C3914 C3912 1.363 . S
C3914 C3915 1.370 . S
C3914 C3918 1.524 . S
C3915 C3907 1.503 . S
C3915 C3914 1.370 . S
C3915 C3916 1.403 . S
C3916 C3915 1.403 . S
C3916 C3917 1.404 . S
C3916 C3919 1.539 . S
C3917 C3913 1.408 . S
C3917 C3916 1.404 . S
C3917 H3929 0.930 . S
C3918 C3914 1.524 . S
C3918 H3930 0.956 . S
C3918 H3931 0.961 . S
C3918 H3932 0.961 . S
C3919 C3916 1.539 . S
C3919 H3933 0.958 . S
C3919 H3934 0.961 . S
C3919 H3935 0.960 . S
H3920 C3904 0.931 . S
H3921 C3909 0.929 . S
H3922 C3910 0.960 . S
H3923 C3910 0.962 . S
H3924 C3910 0.960 . S
H3925 C3911 0.961 . S
H3926 C3911 0.961 . S
H3927 C3911 0.961 . S
H3928 C3912 0.931 . S
H3929 C3917 0.930 . S
H3930 C3918 0.956 . S
H3931 C3918 0.961 . S
H3932 C3918 0.961 . S
H3933 C3919 0.958 . S
H3934 C3919 0.961 . S
H3935 C3919 0.960 . S
C3936 C3937 1.391 . S
C3936 C3938 1.394 . S
C3936 H3952 0.931 . S
C3937 C3936 1.391 . S
C3937 C3941 1.376 . S
C3938 C3936 1.394 . S
C3938 C3939 1.369 . S
C3938 C3942 1.531 . S
C3939 C3938 1.369 . S
C3939 C3940 1.410 . S
C3939 C3947 1.503 . S
C3940 C3939 1.410 . S
C3940 C3941 1.392 . S
C3940 C3943 1.511 . S
C3941 C3937 1.376 . S
C3941 C3940 1.392 . S
C3941 H3953 0.929 . S
C3942 C3938 1.531 . S
C3942 H3954 0.960 . S
C3942 H3955 0.962 . S
C3942 H3956 0.960 . S
C3943 C3940 1.511 . S
C3943 H3957 0.961 . S
C3943 H3958 0.961 . S
C3943 H3959 0.961 . S
C3944 C3945 1.370 . S
C3944 C3946 1.363 . S
C3944 H3960 0.931 . S
C3945 C3944 1.370 . S
C3945 C3949 1.408 . S
C3946 C3944 1.363 . S
C3946 C3947 1.370 . S
C3946 C3950 1.524 . S
C3947 C3939 1.503 . S
C3947 C3946 1.370 . S
C3947 C3948 1.403 . S
C3948 C3947 1.403 . S
C3948 C3949 1.404 . S
C3948 C3951 1.539 . S
C3949 C3945 1.408 . S
C3949 C3948 1.404 . S
C3949 H3961 0.930 . S
C3950 C3946 1.524 . S
C3950 H3962 0.956 . S
C3950 H3963 0.961 . S
C3950 H3964 0.961 . S
C3951 C3948 1.539 . S
C3951 H3965 0.958 . S
C3951 H3966 0.961 . S
C3951 H3967 0.960 . S
H3952 C3936 0.931 . S
H3953 C3941 0.929 . S
H3954 C3942 0.960 . S
H3955 C3942 0.962 . S
H3956 C3942 0.960 . S
H3957 C3943 0.961 . S
H3958 C3943 0.961 . S
H3959 C3943 0.961 . S
H3960 C3944 0.931 . S
H3961 C3949 0.930 . S
H3962 C3950 0.956 . S
H3963 C3950 0.961 . S
H3964 C3950 0.961 . S
H3965 C3951 0.958 . S
H3966 C3951 0.961 . S
H3967 C3951 0.960 . S
C3968 C3969 1.391 . S
C3968 C3970 1.394 . S
C3968 H3984 0.931 . S
C3969 C3968 1.391 . S
C3969 C3973 1.376 . S
C3970 C3968 1.394 . S
C3970 C3971 1.369 . S
C3970 C3974 1.531 . S
C3971 C3970 1.369 . S
C3971 C3972 1.410 . S
C3971 C3979 1.503 . S
C3972 C3971 1.410 . S
C3972 C3973 1.392 . S
C3972 C3975 1.511 . S
C3973 C3969 1.376 . S
C3973 C3972 1.392 . S
C3973 H3985 0.929 . S
C3974 C3970 1.531 . S
C3974 H3986 0.960 . S
C3974 H3987 0.962 . S
C3974 H3988 0.960 . S
C3975 C3972 1.511 . S
C3975 H3989 0.961 . S
C3975 H3990 0.961 . S
C3975 H3991 0.961 . S
C3976 C3977 1.370 . S
C3976 C3978 1.363 . S
C3976 H3992 0.931 . S
C3977 C3976 1.370 . S
C3977 C3981 1.408 . S
C3978 C3976 1.363 . S
C3978 C3979 1.370 . S
C3978 C3982 1.524 . S
C3979 C3971 1.503 . S
C3979 C3978 1.370 . S
C3979 C3980 1.403 . S
C3980 C3979 1.403 . S
C3980 C3981 1.404 . S
C3980 C3983 1.539 . S
C3981 C3977 1.408 . S
C3981 C3980 1.404 . S
C3981 H3993 0.930 . S
C3982 C3978 1.524 . S
C3982 H3994 0.956 . S
C3982 H3995 0.961 . S
C3982 H3996 0.961 . S
C3983 C3980 1.539 . S
C3983 H3997 0.958 . S
C3983 H3998 0.961 . S
C3983 H3999 0.960 . S
H3984 C3968 0.931 . S
H3985 C3973 0.929 . S
H3986 C3974 0.960 . S
H3987 C3974 0.962 . S
H3988 C3974 0.960 . S
H3989 C3975 0.961 . S
H3990 C3975 0.961 . S
H3991 C3975 0.961 . S
H3992 C3976 0.931 . S
H3993 C3981 0.930 . S
H3994 C3982 0.956 . S
H3995 C3982 0.961 . S
H3996 C3982 0.961 . S
H3997 C3983 0.958 . S
H3998 C3983 0.961 . S
H3999 C3983 0.960 . S
C4000 C4001 1.391 . S
C4000 C4002 1.394 . S
C4000 H4016 0.931 . S
C4001 C4000 1.391 . S
C4001 C4005 1.376 . S
C4002 C4000 1.394 . S
C4002 C4003 1.369 . S
C4002 C4006 1.531 . S
C4003 C4002 1.369 . S
C4003 C4004 1.410 . S
C4003 C4011 1.503 . S
C4004 C4003 1.410 . S
C4004 C4005 1.392 . S
C4004 C4007 1.511 . S
C4005 C4001 1.376 . S
C4005 C4004 1.392 . S
C4005 H4017 0.929 . S
C4006 C4002 1.531 . S
C4006 H4018 0.960 . S
C4006 H4019 0.962 . S
C4006 H4020 0.960 . S
C4007 C4004 1.511 . S
C4007 H4021 0.961 . S
C4007 H4022 0.961 . S
C4007 H4023 0.961 . S
C4008 C4009 1.370 . S
C4008 C4010 1.363 . S
C4008 H4024 0.931 . S
C4009 C4008 1.370 . S
C4009 C4013 1.408 . S
C4010 C4008 1.363 . S
C4010 C4011 1.370 . S
C4010 C4014 1.524 . S
C4011 C4003 1.503 . S
C4011 C4010 1.370 . S
C4011 C4012 1.403 . S
C4012 C4011 1.403 . S
C4012 C4013 1.404 . S
C4012 C4015 1.539 . S
C4013 C4009 1.408 . S
C4013 C4012 1.404 . S
C4013 H4025 0.930 . S
C4014 C4010 1.524 . S
C4014 H4026 0.956 . S
C4014 H4027 0.961 . S
C4014 H4028 0.961 . S
C4015 C4012 1.539 . S
C4015 H4029 0.958 . S
C4015 H4030 0.961 . S
C4015 H4031 0.960 . S
H4016 C4000 0.931 . S
H4017 C4005 0.929 . S
H4018 C4006 0.960 . S
H4019 C4006 0.962 . S
H4020 C4006 0.960 . S
H4021 C4007 0.961 . S
H4022 C4007 0.961 . S
H4023 C4007 0.961 . S
H4024 C4008 0.931 . S
H4025 C4013 0.930 . S
H4026 C4014 0.956 . S
H4027 C4014 0.961 . S
H4028 C4014 0.961 . S
H4029 C4015 0.958 . S
H4030 C4015 0.961 . S
H4031 C4015 0.960 . S
C4032 C4033 1.391 . S
C4032 C4034 1.394 . S
C4032 H4048 0.931 . S
C4033 C4032 1.391 . S
C4033 C4037 1.376 . S
C4034 C4032 1.394 . S
C4034 C4035 1.369 . S
C4034 C4038 1.531 . S
C4035 C4034 1.369 . S
C4035 C4036 1.410 . S
C4035 C4043 1.503 . S
C4036 C4035 1.410 . S
C4036 C4037 1.392 . S
C4036 C4039 1.511 . S
C4037 C4033 1.376 . S
C4037 C4036 1.392 . S
C4037 H4049 0.929 . S
C4038 C4034 1.531 . S
C4038 H4050 0.960 . S
C4038 H4051 0.962 . S
C4038 H4052 0.960 . S
C4039 C4036 1.511 . S
C4039 H4053 0.961 . S
C4039 H4054 0.961 . S
C4039 H4055 0.961 . S
C4040 C4041 1.370 . S
C4040 C4042 1.363 . S
C4040 H4056 0.931 . S
C4041 C4040 1.370 . S
C4041 C4045 1.408 . S
C4042 C4040 1.363 . S
C4042 C4043 1.370 . S
C4042 C4046 1.524 . S
C4043 C4035 1.503 . S
C4043 C4042 1.370 . S
C4043 C4044 1.403 . S
C4044 C4043 1.403 . S
C4044 C4045 1.404 . S
C4044 C4047 1.539 . S
C4045 C4041 1.408 . S
C4045 C4044 1.404 . S
C4045 H4057 0.930 . S
C4046 C4042 1.524 . S
C4046 H4058 0.956 . S
C4046 H4059 0.961 . S
C4046 H4060 0.961 . S
C4047 C4044 1.539 . S
C4047 H4061 0.958 . S
C4047 H4062 0.961 . S
C4047 H4063 0.960 . S
H4048 C4032 0.931 . S
H4049 C4037 0.929 . S
H4050 C4038 0.960 . S
H4051 C4038 0.962 . S
H4052 C4038 0.960 . S
H4053 C4039 0.961 . S
H4054 C4039 0.961 . S
H4055 C4039 0.961 . S
H4056 C4040 0.931 . S
H4057 C4045 0.930 . S
H4058 C4046 0.956 . S
H4059 C4046 0.961 . S
H4060 C4046 0.961 . S
H4061 C4047 0.958 . S
H4062 C4047 0.961 . S
H4063 C4047 0.960 . S
C4064 C4065 1.391 . S
C4064 C4066 1.394 . S
C4064 H4080 0.933 . S
C4065 C4064 1.391 . S
C4065 C4069 1.376 . S
C4066 C4064 1.394 . S
C4066 C4067 1.369 . S
C4066 C4070 1.531 . S
C4067 C4066 1.369 . S
C4067 C4068 1.410 . S
C4067 C4075 1.503 . S
C4068 C4067 1.410 . S
C4068 C4069 1.392 . S
C4068 C4071 1.511 . S
C4069 C4065 1.376 . S
C4069 C4068 1.392 . S
C4069 H4081 0.929 . S
C4070 C4066 1.531 . S
C4070 H4082 0.960 . S
C4070 H4083 0.962 . S
C4070 H4084 0.960 . S
C4071 C4068 1.511 . S
C4071 H4085 0.961 . S
C4071 H4086 0.961 . S
C4071 H4087 0.961 . S
C4072 C4073 1.370 . S
C4072 C4074 1.363 . S
C4072 H4088 0.931 . S
C4073 C4072 1.370 . S
C4073 C4077 1.408 . S
C4074 C4072 1.363 . S
C4074 C4075 1.370 . S
C4074 C4078 1.524 . S
C4075 C4067 1.503 . S
C4075 C4074 1.370 . S
C4075 C4076 1.403 . S
C4076 C4075 1.403 . S
C4076 C4077 1.404 . S
C4076 C4079 1.539 . S
C4077 C4073 1.408 . S
C4077 C4076 1.404 . S
C4077 H4089 0.930 . S
C4078 C4074 1.524 . S
C4078 H4090 0.956 . S
C4078 H4091 0.961 . S
C4078 H4092 0.961 . S
C4079 C4076 1.539 . S
C4079 H4093 0.958 . S
C4079 H4094 0.961 . S
C4079 H4095 0.960 . S
H4080 C4064 0.933 . S
H4081 C4069 0.929 . S
H4082 C4070 0.960 . S
H4083 C4070 0.962 . S
H4084 C4070 0.960 . S
H4085 C4071 0.961 . S
H4086 C4071 0.961 . S
H4087 C4071 0.961 . S
H4088 C4072 0.931 . S
H4089 C4077 0.930 . S
H4090 C4078 0.956 . S
H4091 C4078 0.961 . S
H4092 C4078 0.961 . S
H4093 C4079 0.958 . S
H4094 C4079 0.961 . S
H4095 C4079 0.960 . S
C4096 C4097 1.391 . S
C4096 C4098 1.394 . S
C4096 H4112 0.931 . S
C4097 C4096 1.391 . S
C4097 C4101 1.376 . S
C4098 C4096 1.394 . S
C4098 C4099 1.369 . S
C4098 C4102 1.531 . S
C4099 C4098 1.369 . S
C4099 C4100 1.410 . S
C4099 C4107 1.503 . S
C4100 C4099 1.410 . S
C4100 C4101 1.392 . S
C4100 C4103 1.511 . S
C4101 C4097 1.376 . S
C4101 C4100 1.392 . S
C4101 H4113 0.929 . S
C4102 C4098 1.531 . S
C4102 H4114 0.960 . S
C4102 H4115 0.962 . S
C4102 H4116 0.960 . S
C4103 C4100 1.511 . S
C4103 H4117 0.961 . S
C4103 H4118 0.961 . S
C4103 H4119 0.961 . S
C4104 C4105 1.370 . S
C4104 C4106 1.363 . S
C4104 H4120 0.931 . S
C4105 C4104 1.370 . S
C4105 C4109 1.408 . S
C4106 C4104 1.363 . S
C4106 C4107 1.370 . S
C4106 C4110 1.524 . S
C4107 C4099 1.503 . S
C4107 C4106 1.370 . S
C4107 C4108 1.403 . S
C4108 C4107 1.403 . S
C4108 C4109 1.404 . S
C4108 C4111 1.539 . S
C4109 C4105 1.408 . S
C4109 C4108 1.404 . S
C4109 H4121 0.930 . S
C4110 C4106 1.524 . S
C4110 H4122 0.956 . S
C4110 H4123 0.961 . S
C4110 H4124 0.961 . S
C4111 C4108 1.539 . S
C4111 H4125 0.958 . S
C4111 H4126 0.961 . S
C4111 H4127 0.960 . S
H4112 C4096 0.931 . S
H4113 C4101 0.929 . S
H4114 C4102 0.960 . S
H4115 C4102 0.962 . S
H4116 C4102 0.960 . S
H4117 C4103 0.961 . S
H4118 C4103 0.961 . S
H4119 C4103 0.961 . S
H4120 C4104 0.931 . S
H4121 C4109 0.930 . S
H4122 C4110 0.956 . S
H4123 C4110 0.961 . S
H4124 C4110 0.961 . S
H4125 C4111 0.958 . S
H4126 C4111 0.961 . S
H4127 C4111 0.960 . S
C4128 C4129 1.391 . S
C4128 C4130 1.394 . S
C4128 H4144 0.931 . S
C4129 C4128 1.391 . S
C4129 C4133 1.376 . S
C4130 C4128 1.394 . S
C4130 C4131 1.369 . S
C4130 C4134 1.531 . S
C4131 C4130 1.369 . S
C4131 C4132 1.410 . S
C4131 C4139 1.503 . S
C4132 C4131 1.410 . S
C4132 C4133 1.392 . S
C4132 C4135 1.511 . S
C4133 C4129 1.376 . S
C4133 C4132 1.392 . S
C4133 H4145 0.929 . S
C4134 C4130 1.531 . S
C4134 H4146 0.960 . S
C4134 H4147 0.962 . S
C4134 H4148 0.960 . S
C4135 C4132 1.511 . S
C4135 H4149 0.961 . S
C4135 H4150 0.961 . S
C4135 H4151 0.961 . S
C4136 C4137 1.370 . S
C4136 C4138 1.363 . S
C4136 H4152 0.931 . S
C4137 C4136 1.370 . S
C4137 C4141 1.408 . S
C4138 C4136 1.363 . S
C4138 C4139 1.370 . S
C4138 C4142 1.524 . S
C4139 C4131 1.503 . S
C4139 C4138 1.370 . S
C4139 C4140 1.403 . S
C4140 C4139 1.403 . S
C4140 C4141 1.404 . S
C4140 C4143 1.539 . S
C4141 C4137 1.408 . S
C4141 C4140 1.404 . S
C4141 H4153 0.930 . S
C4142 C4138 1.524 . S
C4142 H4154 0.956 . S
C4142 H4155 0.961 . S
C4142 H4156 0.961 . S
C4143 C4140 1.539 . S
C4143 H4157 0.958 . S
C4143 H4158 0.961 . S
C4143 H4159 0.960 . S
H4144 C4128 0.931 . S
H4145 C4133 0.929 . S
H4146 C4134 0.960 . S
H4147 C4134 0.962 . S
H4148 C4134 0.960 . S
H4149 C4135 0.961 . S
H4150 C4135 0.961 . S
H4151 C4135 0.961 . S
H4152 C4136 0.931 . S
H4153 C4141 0.930 . S
H4154 C4142 0.956 . S
H4155 C4142 0.961 . S
H4156 C4142 0.961 . S
H4157 C4143 0.958 . S
H4158 C4143 0.961 . S
H4159 C4143 0.960 . S
C4160 C4161 1.391 . S
C4160 C4162 1.394 . S
C4160 H4176 0.931 . S
C4161 C4160 1.391 . S
C4161 C4165 1.376 . S
C4162 C4160 1.394 . S
C4162 C4163 1.369 . S
C4162 C4166 1.531 . S
C4163 C4162 1.369 . S
C4163 C4164 1.410 . S
C4163 C4171 1.503 . S
C4164 C4163 1.410 . S
C4164 C4165 1.392 . S
C4164 C4167 1.511 . S
C4165 C4161 1.376 . S
C4165 C4164 1.392 . S
C4165 H4177 0.929 . S
C4166 C4162 1.531 . S
C4166 H4178 0.960 . S
C4166 H4179 0.962 . S
C4166 H4180 0.960 . S
C4167 C4164 1.511 . S
C4167 H4181 0.961 . S
C4167 H4182 0.961 . S
C4167 H4183 0.961 . S
C4168 C4169 1.370 . S
C4168 C4170 1.363 . S
C4168 H4184 0.931 . S
C4169 C4168 1.370 . S
C4169 C4173 1.408 . S
C4170 C4168 1.363 . S
C4170 C4171 1.370 . S
C4170 C4174 1.524 . S
C4171 C4163 1.503 . S
C4171 C4170 1.370 . S
C4171 C4172 1.403 . S
C4172 C4171 1.403 . S
C4172 C4173 1.404 . S
C4172 C4175 1.539 . S
C4173 C4169 1.408 . S
C4173 C4172 1.404 . S
C4173 H4185 0.930 . S
C4174 C4170 1.524 . S
C4174 H4186 0.956 . S
C4174 H4187 0.961 . S
C4174 H4188 0.961 . S
C4175 C4172 1.539 . S
C4175 H4189 0.958 . S
C4175 H4190 0.961 . S
C4175 H4191 0.960 . S
H4176 C4160 0.931 . S
H4177 C4165 0.929 . S
H4178 C4166 0.960 . S
H4179 C4166 0.962 . S
H4180 C4166 0.960 . S
H4181 C4167 0.961 . S
H4182 C4167 0.961 . S
H4183 C4167 0.961 . S
H4184 C4168 0.931 . S
H4185 C4173 0.930 . S
H4186 C4174 0.956 . S
H4187 C4174 0.961 . S
H4188 C4174 0.961 . S
H4189 C4175 0.958 . S
H4190 C4175 0.961 . S
H4191 C4175 0.960 . S
C4192 C4193 1.391 . S
C4192 C4194 1.394 . S
C4192 H4208 0.931 . S
C4193 C4192 1.391 . S
C4193 C4197 1.376 . S
C4194 C4192 1.394 . S
C4194 C4195 1.369 . S
C4194 C4198 1.531 . S
C4195 C4194 1.369 . S
C4195 C4196 1.410 . S
C4195 C4203 1.503 . S
C4196 C4195 1.410 . S
C4196 C4197 1.392 . S
C4196 C4199 1.511 . S
C4197 C4193 1.376 . S
C4197 C4196 1.392 . S
C4197 H4209 0.929 1_554 S
C4198 C4194 1.531 . S
C4198 H4210 0.960 . S
C4198 H4211 0.962 . S
C4198 H4212 0.960 . S
C4199 C4196 1.511 . S
C4199 H4213 0.961 1_554 S
C4199 H4214 0.961 . S
C4199 H4215 0.961 . S
C4200 C4201 1.370 . S
C4200 C4202 1.363 . S
C4200 H4216 0.931 . S
C4201 C4200 1.370 . S
C4201 C4205 1.408 . S
C4202 C4200 1.363 . S
C4202 C4203 1.370 . S
C4202 C4206 1.524 . S
C4203 C4195 1.503 . S
C4203 C4202 1.370 . S
C4203 C4204 1.403 . S
C4204 C4203 1.403 . S
C4204 C4205 1.404 . S
C4204 C4207 1.539 . S
C4205 C4201 1.408 . S
C4205 C4204 1.404 . S
C4205 H4217 0.930 . S
C4206 C4202 1.524 . S
C4206 H4218 0.956 . S
C4206 H4219 0.961 . S
C4206 H4220 0.961 . S
C4207 C4204 1.539 . S
C4207 H4221 0.958 . S
C4207 H4222 0.961 . S
C4207 H4223 0.960 . S
H4208 C4192 0.931 . S
H4209 C4197 0.929 1_556 S
H4210 C4198 0.960 . S
H4211 C4198 0.962 . S
H4212 C4198 0.960 . S
H4213 C4199 0.961 1_556 S
H4214 C4199 0.961 . S
H4215 C4199 0.961 . S
H4216 C4200 0.931 . S
H4217 C4205 0.930 . S
H4218 C4206 0.956 . S
H4219 C4206 0.961 . S
H4220 C4206 0.961 . S
H4221 C4207 0.958 . S
H4222 C4207 0.961 . S
H4223 C4207 0.960 . S
C4224 C4225 1.391 . S
C4224 C4226 1.394 . S
C4224 H4240 0.931 . S
C4225 C4224 1.391 . S
C4225 C4229 1.376 . S
C4226 C4224 1.394 . S
C4226 C4227 1.369 . S
C4226 C4230 1.531 . S
C4227 C4226 1.369 . S
C4227 C4228 1.410 . S
C4227 C4235 1.503 . S
C4228 C4227 1.410 . S
C4228 C4229 1.392 . S
C4228 C4231 1.511 . S
C4229 C4225 1.376 . S
C4229 C4228 1.392 . S
C4229 H4241 0.929 . S
C4230 C4226 1.531 . S
C4230 H4242 0.960 . S
C4230 H4243 0.962 . S
C4230 H4244 0.960 . S
C4231 C4228 1.511 . S
C4231 H4245 0.961 . S
C4231 H4246 0.961 . S
C4231 H4247 0.961 . S
C4232 C4233 1.370 . S
C4232 C4234 1.363 . S
C4232 H4248 0.931 . S
C4233 C4232 1.370 . S
C4233 C4237 1.408 . S
C4234 C4232 1.363 . S
C4234 C4235 1.370 . S
C4234 C4238 1.524 . S
C4235 C4227 1.503 . S
C4235 C4234 1.370 . S
C4235 C4236 1.403 . S
C4236 C4235 1.403 . S
C4236 C4237 1.404 . S
C4236 C4239 1.539 . S
C4237 C4233 1.408 . S
C4237 C4236 1.404 . S
C4237 H4249 0.930 . S
C4238 C4234 1.524 . S
C4238 H4250 0.956 . S
C4238 H4251 0.961 . S
C4238 H4252 0.961 . S
C4239 C4236 1.539 . S
C4239 H4253 0.958 . S
C4239 H4254 0.961 . S
C4239 H4255 0.960 . S
H4240 C4224 0.931 . S
H4241 C4229 0.929 . S
H4242 C4230 0.960 . S
H4243 C4230 0.962 . S
H4244 C4230 0.960 . S
H4245 C4231 0.961 . S
H4246 C4231 0.961 . S
H4247 C4231 0.961 . S
H4248 C4232 0.931 . S
H4249 C4237 0.930 . S
H4250 C4238 0.956 . S
H4251 C4238 0.961 . S
H4252 C4238 0.961 . S
H4253 C4239 0.958 . S
H4254 C4239 0.961 . S
H4255 C4239 0.960 . S
C4256 C4257 1.391 . S
C4256 C4258 1.394 . S
C4256 H4272 0.931 . S
C4257 C4256 1.391 . S
C4257 C4261 1.376 . S
C4258 C4256 1.394 . S
C4258 C4259 1.369 . S
C4258 C4262 1.531 . S
C4259 C4258 1.369 . S
C4259 C4260 1.410 . S
C4259 C4267 1.503 . S
C4260 C4259 1.410 . S
C4260 C4261 1.392 . S
C4260 C4263 1.511 . S
C4261 C4257 1.376 . S
C4261 C4260 1.392 . S
C4261 H4273 0.929 . S
C4262 C4258 1.531 . S
C4262 H4274 0.960 . S
C4262 H4275 0.962 . S
C4262 H4276 0.960 . S
C4263 C4260 1.511 . S
C4263 H4277 0.961 . S
C4263 H4278 0.961 . S
C4263 H4279 0.961 . S
C4264 C4265 1.370 . S
C4264 C4266 1.363 . S
C4264 H4280 0.931 . S
C4265 C4264 1.370 . S
C4265 C4269 1.408 . S
C4266 C4264 1.363 . S
C4266 C4267 1.370 . S
C4266 C4270 1.524 . S
C4267 C4259 1.503 . S
C4267 C4266 1.370 . S
C4267 C4268 1.403 . S
C4268 C4267 1.403 . S
C4268 C4269 1.404 . S
C4268 C4271 1.539 . S
C4269 C4265 1.408 . S
C4269 C4268 1.404 . S
C4269 H4281 0.930 . S
C4270 C4266 1.524 . S
C4270 H4282 0.956 . S
C4270 H4283 0.961 . S
C4270 H4284 0.961 . S
C4271 C4268 1.539 . S
C4271 H4285 0.958 . S
C4271 H4286 0.961 . S
C4271 H4287 0.960 . S
H4272 C4256 0.931 . S
H4273 C4261 0.929 . S
H4274 C4262 0.960 . S
H4275 C4262 0.962 . S
H4276 C4262 0.960 . S
H4277 C4263 0.961 . S
H4278 C4263 0.961 . S
H4279 C4263 0.961 . S
H4280 C4264 0.931 . S
H4281 C4269 0.930 . S
H4282 C4270 0.956 . S
H4283 C4270 0.961 . S
H4284 C4270 0.961 . S
H4285 C4271 0.958 . S
H4286 C4271 0.961 . S
H4287 C4271 0.960 . S
C4288 C4289 1.391 . S
C4288 C4290 1.394 . S
C4288 H4304 0.931 . S
C4289 C4288 1.391 . S
C4289 C4293 1.376 . S
C4290 C4288 1.394 . S
C4290 C4291 1.369 . S
C4290 C4294 1.531 . S
C4291 C4290 1.369 . S
C4291 C4292 1.410 . S
C4291 C4299 1.503 . S
C4292 C4291 1.410 . S
C4292 C4293 1.392 . S
C4292 C4295 1.511 . S
C4293 C4289 1.376 . S
C4293 C4292 1.392 . S
C4293 H4305 0.929 . S
C4294 C4290 1.531 . S
C4294 H4306 0.960 . S
C4294 H4307 0.962 . S
C4294 H4308 0.960 . S
C4295 C4292 1.511 . S
C4295 H4309 0.961 . S
C4295 H4310 0.961 . S
C4295 H4311 0.961 . S
C4296 C4297 1.370 . S
C4296 C4298 1.363 . S
C4296 H4312 0.931 . S
C4297 C4296 1.370 . S
C4297 C4301 1.408 . S
C4298 C4296 1.363 . S
C4298 C4299 1.370 . S
C4298 C4302 1.524 . S
C4299 C4291 1.503 . S
C4299 C4298 1.370 . S
C4299 C4300 1.403 . S
C4300 C4299 1.403 . S
C4300 C4301 1.404 . S
C4300 C4303 1.539 . S
C4301 C4297 1.408 . S
C4301 C4300 1.404 . S
C4301 H4313 0.930 . S
C4302 C4298 1.524 . S
C4302 H4314 0.956 . S
C4302 H4315 0.961 . S
C4302 H4316 0.961 . S
C4303 C4300 1.539 . S
C4303 H4317 0.958 . S
C4303 H4318 0.961 . S
C4303 H4319 0.960 . S
H4304 C4288 0.931 . S
H4305 C4293 0.929 . S
H4306 C4294 0.960 . S
H4307 C4294 0.962 . S
H4308 C4294 0.960 . S
H4309 C4295 0.961 . S
H4310 C4295 0.961 . S
H4311 C4295 0.961 . S
H4312 C4296 0.931 . S
H4313 C4301 0.930 . S
H4314 C4302 0.956 . S
H4315 C4302 0.961 . S
H4316 C4302 0.961 . S
H4317 C4303 0.958 . S
H4318 C4303 0.961 . S
H4319 C4303 0.960 . S
C2017 C75 2.334 . S
C2025 C1568 2.386 . S
C2049 C1652 2.396 . S
C2057 C159 2.355 . S
C2081 C243 2.352 . S
C2089 C1400 2.377 . S
C2113 C327 2.366 . S
C2121 C1484 2.389 . S
C2145 C1904 2.382 . S
C2153 C411 2.352 . S
C2177 C495 2.377 . S
C2185 C1820 2.382 . S
C2209 C1988 2.372 . S
C2217 C579 2.369 . S
C2241 C663 2.365 . S
C2249 C1736 2.390 . S
C2273 C747 2.342 . S
C2281 C1148 2.391 . S
C2305 C831 2.361 . S
C2313 C1316 2.376 . S
C2337 C1232 2.393 . S
C2345 C915 2.364 . S
C2369 C999 2.375 . S
C2377 C1064 2.379 . S
C2401 C1074 2.353 . S
C2409 C571 2.391 . S
C2433 C1158 2.358 . S
C2441 C655 2.390 . S
C2465 C1242 2.375 . S
C2473 C403 2.382 . S
C2497 C487 2.394 . S
C2505 C1326 2.352 . S
C2529 C1410 2.362 . S
C2537 C907 2.389 . S
C2561 C823 2.390 . S
C2569 C1494 2.363 . S
C2593 C991 2.371 . S
C2601 C1578 2.356 . S
C2625 C739 2.377 . S
C2633 C1662 2.368 . S
C2657 C151 2.397 . S
C2665 C1746 2.355 . S
C2689 C319 2.389 . S
C2697 C1830 2.352 . S
C2721 C235 2.381 . S
C2729 C1914 2.353 . S
C2753 C1998 2.347 . S
C2761 C67 2.392 . S
C2785 C392 1.509 . S
C2793 C63 1.266 . S
C2817 C476 1.452 . S
C2825 C147 1.232 . S
C2849 C560 1.516 . S
C2857 C231 1.219 . S
C2881 C644 1.527 . S
C2889 C315 1.234 . S
C2913 C399 1.290 . S
C2921 C728 1.502 . S
C2945 C483 1.168 . S
C2953 C980 1.494 . S
C2977 C567 1.176 . S
C2985 C812 1.486 . S
C3009 C651 1.174 . S
C3017 C896 1.487 . S
C3041 C735 1.235 . S
C3049 C56 1.475 . S
C3073 C819 1.186 . S
C3081 C224 1.504 . S
C3105 C903 1.183 . S
C3113 C308 1.483 . S
C3137 C140 1.454 . S
C3145 C987 1.259 . S
C3169 C1411 1.518 . S
C3177 C1080 1.251 . S
C3201 C1495 1.451 . S
C3209 C1164 1.242 . S
C3233 C1248 1.204 . S
C3241 C1579 1.482 . S
C3265 C1332 1.308 . S
C3273 C1663 1.488 . S
C3297 C1747 1.484 . S
C3305 C1416 1.270 . S
C3329 C1500 1.189 . S
C3337 C1999 1.507 . S
C3361 C1831 1.500 . S
C3369 C1584 1.264 . S
C3393 C1668 1.300 . S
C3401 C1915 1.479 . S
C3425 C1075 1.528 . S
C3433 C1752 1.232 . S
C3457 C1836 1.308 . S
C3465 C1243 1.484 . S
C3489 C1920 1.186 . S
C3497 C1327 1.507 . S
C3521 C1159 1.480 . S
C3529 C2004 1.218 . S
C3553 C66 1.373 . S
C3561 C828 1.421 . S
C3585 C912 1.395 . S
C3593 C150 1.402 . S
C3617 C744 1.459 . S
C3625 C234 1.425 . S
C3649 C996 1.387 . S
C3657 C318 1.398 . S
C3681 C402 1.453 . S
C3689 C324 1.447 . S
C3713 C240 1.427 . S
C3721 C486 1.409 . S
C3745 C570 1.416 . S
C3753 C156 1.438 . S
C3777 C72 1.467 . S
C3785 C654 1.429 . S
C3809 C738 1.442 . S
C3817 C492 1.448 . S
C3841 C822 1.388 . S
C3849 C660 1.421 . S
C3873 C906 1.373 . S
C3881 C576 1.416 . S
C3905 C990 1.443 . S
C3913 C408 1.448 . S
C3937 C1083 1.457 . S
C3945 C1827 1.445 . S
C3969 C1167 1.409 . S
C3977 C1911 1.442 . S
C4001 C1743 1.404 . S
C4009 C1251 1.396 . S
C4033 C1995 1.432 . S
C4041 C1335 1.405 . S
C4065 C1419 1.415 . S
C4073 C1323 1.444 . S
C4097 C1503 1.454 . S
C4105 C1239 1.443 . S
C4129 C1155 1.403 . S
C4137 C1587 1.413 . S
C4161 C1671 1.455 . S
C4169 C1071 1.444 . S
C4193 C1755 1.437 . S
C4201 C1491 1.433 . S
C4225 C1659 1.471 . S
C4233 C1839 1.434 . S
C4257 C1923 1.449 . S
C4265 C1575 1.440 . S
C4289 C2007 1.399 . S
C4297 C1407 1.438 . S
