# Generated by pormake.
# Topology upa, (4)-cn, num edge types: 1
# Building blocks:
#     Node 0, Type 0, BuildingBlock: QUQFOY_clean_sbu_3, # of connection points: 4
#     Node 1, Type 0, BuildingBlock: QUQFOY_clean_sbu_3, # of connection points: 4
#     Node 2, Type 0, BuildingBlock: QUQFOY_clean_sbu_3, # of connection points: 4
#     Node 3, Type 0, BuildingBlock: QUQFOY_clean_sbu_3, # of connection points: 4
#     Node 4, Type 0, BuildingBlock: QUQFOY_clean_sbu_3, # of connection points: 4
#     Node 5, Type 0, BuildingBlock: QUQFOY_clean_sbu_3, # of connection points: 4
#     Node 6, Type 0, BuildingBlock: QUQFOY_clean_sbu_3, # of connection points: 4
#     Node 7, Type 0, BuildingBlock: QUQFOY_clean_sbu_3, # of connection points: 4
#     Edge 8, Type (0, 0), BuildingBlock: ZUJKAS_clean_linker_0, # of connection points: 2
#     Edge 9, Type (0, 0), BuildingBlock: ZUJKAS_clean_linker_0, # of connection points: 2
#     Edge 10, Type (0, 0), BuildingBlock: ZUJKAS_clean_linker_0, # of connection points: 2
#     Edge 11, Type (0, 0), BuildingBlock: ZUJKAS_clean_linker_0, # of connection points: 2
#     Edge 12, Type (0, 0), BuildingBlock: ZUJKAS_clean_linker_0, # of connection points: 2
#     Edge 13, Type (0, 0), BuildingBlock: ZUJKAS_clean_linker_0, # of connection points: 2
#     Edge 14, Type (0, 0), BuildingBlock: ZUJKAS_clean_linker_0, # of connection points: 2
#     Edge 15, Type (0, 0), BuildingBlock: ZUJKAS_clean_linker_0, # of connection points: 2
#     Edge 16, Type (0, 0), BuildingBlock: ZUJKAS_clean_linker_0, # of connection points: 2
#     Edge 17, Type (0, 0), BuildingBlock: ZUJKAS_clean_linker_0, # of connection points: 2
#     Edge 18, Type (0, 0), BuildingBlock: ZUJKAS_clean_linker_0, # of connection points: 2
#     Edge 19, Type (0, 0), BuildingBlock: ZUJKAS_clean_linker_0, # of connection points: 2
#     Edge 20, Type (0, 0), BuildingBlock: ZUJKAS_clean_linker_0, # of connection points: 2
#     Edge 21, Type (0, 0), BuildingBlock: ZUJKAS_clean_linker_0, # of connection points: 2
#     Edge 22, Type (0, 0), BuildingBlock: ZUJKAS_clean_linker_0, # of connection points: 2
#     Edge 23, Type (0, 0), BuildingBlock: ZUJKAS_clean_linker_0, # of connection points: 2
# Relax obj value: 0.209
# Max RMSD: 0.130
# Mean RMSD: 0.130
data_MOF--net-upa--node1-QUQFOY_clean_sbu_3--edge1-ZUJKAS_clean_linker_0
_symmetry_space_group_name_H-M    P1
_symmetry_Int_Tables_number       1
_symmetry_cell_setting            triclinic
loop_
_symmetry_equiv_pos_as_xyz
'x, y, z'
_cell_length_a     34.248582
_cell_length_b     34.245767
_cell_length_c     58.104429
_cell_angle_alpha  90.009176
_cell_angle_beta   90.00213
_cell_angle_gamma 90.01033
loop_
_atom_site_label
_atom_site_type_symbol
_atom_site_fract_x
_atom_site_fract_y
_atom_site_fract_z
_atom_type_partial_charge
C0 C 0.08946 0.27231 0.32568 0.0
O1 O 0.08579 0.2784 0.34714 0.0
Cd2 Cd 0.12833 0.25685 0.37712 0.0
O3 O 0.11975 0.25513 0.31778 0.0
Cd4 Cd 0.18068 0.22584 0.33466 0.0
C5 C 0.12148 0.16052 0.36181 0.0
O6 O 0.19339 0.27174 0.36599 0.0
O7 O 0.22366 0.21688 0.36782 0.0
O8 O 0.22296 0.2481 0.30304 0.0
C9 C 0.21813 0.2505 0.37629 0.0
O10 O 0.1149 0.18676 0.37687 0.0
C11 C 0.23866 0.21484 0.29994 0.0
O12 O 0.14255 0.16779 0.34425 0.0
O13 O 0.22583 0.18681 0.31207 0.0
C14 C 0.22197 0.59589 0.82458 0.0
O15 O 0.21403 0.59171 0.8458 0.0
Cd16 Cd 0.23775 0.63171 0.87649 0.0
O17 O 0.24116 0.62561 0.8176 0.0
Cd18 Cd 0.27035 0.68583 0.83524 0.0
C19 C 0.33444 0.62431 0.86123 0.0
O20 O 0.22471 0.69787 0.86678 0.0
O21 O 0.27991 0.72746 0.86904 0.0
O22 O 0.24744 0.72934 0.80441 0.0
C23 C 0.2463 0.72181 0.8775 0.0
O24 O 0.3076 0.61669 0.87575 0.0
C25 C 0.28064 0.74502 0.8011 0.0
O26 O 0.32805 0.64705 0.84429 0.0
O27 O 0.30901 0.73169 0.81277 0.0
C28 C 0.89656 0.7038 0.32302 0.0
O29 O 0.89942 0.69374 0.34399 0.0
Cd30 Cd 0.86238 0.72281 0.37449 0.0
O31 O 0.86918 0.72656 0.31656 0.0
Cd32 Cd 0.81171 0.76024 0.3341 0.0
C33 C 0.88019 0.81807 0.35818 0.0
O34 O 0.79399 0.71949 0.36721 0.0
O35 O 0.7775 0.78022 0.36861 0.0
O36 O 0.76337 0.73727 0.30617 0.0
C37 C 0.77607 0.74662 0.37772 0.0
O38 O 0.88512 0.79061 0.37271 0.0
C39 C 0.75173 0.77117 0.30048 0.0
O40 O 0.85641 0.8142 0.34145 0.0
O41 O 0.76931 0.79993 0.30964 0.0
C42 C 0.79325 0.39917 0.82079 0.0
O43 O 0.80275 0.40193 0.84185 0.0
Cd44 Cd 0.77279 0.36517 0.87215 0.0
O45 O 0.77017 0.37217 0.81414 0.0
Cd46 Cd 0.73513 0.31561 0.83186 0.0
C47 C 0.67791 0.38443 0.85601 0.0
O48 O 0.77572 0.29669 0.86487 0.0
O49 O 0.71453 0.28205 0.86646 0.0
O50 O 0.7567 0.26653 0.80397 0.0
C51 C 0.74822 0.27927 0.87533 0.0
O52 O 0.70526 0.38878 0.87068 0.0
C53 C 0.72247 0.25545 0.79857 0.0
O54 O 0.68175 0.36097 0.83912 0.0
O55 O 0.69425 0.27377 0.80777 0.0
C56 C 0.59012 0.20894 0.16598 0.0
O57 O 0.58717 0.20223 0.14456 0.0
Cd58 Cd 0.62787 0.22983 0.11538 0.0
O59 O 0.61889 0.22858 0.17381 0.0
Cd60 Cd 0.67803 0.26141 0.15737 0.0
C61 C 0.61392 0.32439 0.13345 0.0
O62 O 0.69521 0.22037 0.12424 0.0
O63 O 0.71481 0.28012 0.12343 0.0
O64 O 0.72294 0.23702 0.18702 0.0
C65 C 0.71534 0.24653 0.11431 0.0
O66 O 0.60898 0.29867 0.11786 0.0
C67 C 0.73748 0.27034 0.19148 0.0
O68 O 0.63595 0.31767 0.15068 0.0
O69 O 0.72292 0.2994 0.18097 0.0
C70 C 0.282 0.09394 0.66542 0.0
O71 O 0.2857 0.08977 0.6438 0.0
Cd72 Cd 0.26052 0.13179 0.61435 0.0
O73 O 0.26548 0.12428 0.67371 0.0
Cd74 Cd 0.23367 0.18453 0.65804 0.0
C75 C 0.16578 0.12522 0.63304 0.0
O76 O 0.27505 0.19742 0.62457 0.0
O77 O 0.22028 0.22824 0.6259 0.0
O78 O 0.26078 0.22892 0.68709 0.0
C79 C 0.25242 0.22252 0.61565 0.0
O80 O 0.19073 0.11833 0.61728 0.0
C81 C 0.22781 0.24234 0.69333 0.0
O82 O 0.17452 0.14654 0.65027 0.0
O83 O 0.1978 0.22725 0.68405 0.0
C84 C 0.39869 0.78409 0.17025 0.0
O85 O 0.4026 0.79133 0.14893 0.0
Cd86 Cd 0.36367 0.76469 0.11844 0.0
O87 O 0.36975 0.764 0.17749 0.0
Cd88 Cd 0.31091 0.73133 0.16055 0.0
C89 C 0.37495 0.66891 0.135 0.0
O90 O 0.2968 0.77384 0.12773 0.0
O91 O 0.26925 0.71728 0.12764 0.0
O92 O 0.26466 0.75498 0.18956 0.0
C93 C 0.27357 0.75016 0.118 0.0
O94 O 0.38151 0.69566 0.12024 0.0
C95 C 0.25246 0.72117 0.1951 0.0
O96 O 0.35195 0.6748 0.1519 0.0
O97 O 0.26906 0.69228 0.18549 0.0
C98 C 0.70579 0.89912 0.67291 0.0
O99 O 0.69638 0.90212 0.65185 0.0
Cd100 Cd 0.72728 0.86627 0.62157 0.0
O101 O 0.72903 0.87219 0.67947 0.0
Cd102 Cd 0.76448 0.81595 0.66159 0.0
C103 C 0.82173 0.88583 0.63861 0.0
O104 O 0.72406 0.79768 0.62843 0.0
O105 O 0.78522 0.78306 0.62667 0.0
O106 O 0.74261 0.76657 0.68923 0.0
C107 C 0.75149 0.78041 0.61783 0.0
O108 O 0.79458 0.89054 0.62386 0.0
C109 C 0.77678 0.75531 0.69464 0.0
O110 O 0.81782 0.86164 0.65512 0.0
O111 O 0.8051 0.7736 0.68551 0.0
H112 H 0.12125 0.10054 0.33062 0.0
H113 H 0.08139 0.04135 0.33171 0.0
H114 H 0.03653 0.07463 0.39821 0.0
H115 H 0.07578 0.13418 0.39721 0.0
H116 H 0.07669 0.97921 0.36294 0.0
H117 H 0.93786 0.06273 0.35869 0.0
H118 H 0.98475 0.08472 0.35295 0.0
H119 H 0.96932 0.07631 0.38209 0.0
C120 C 0.10322 0.09514 0.34561 0.0
C121 C 0.10137 0.12237 0.36371 0.0
C122 C 0.08046 0.0613 0.34617 0.0
C123 C 0.05545 0.05411 0.36481 0.0
C124 C 0.05501 0.08014 0.38344 0.0
H125 H 0.93196 0.8372 0.39224 0.0
H126 H 0.97427 0.89451 0.39422 0.0
C127 C 0.07766 0.11405 0.38287 0.0
C128 C 0.02895 0.01999 0.3644 0.0
H129 H 0.9326 0.99441 0.36418 0.0
C130 C 0.04519 0.98245 0.36323 0.0
C131 C 0.98787 0.02447 0.36439 0.0
C132 C 0.9688 0.06421 0.36438 0.0
C133 C 0.02139 0.94912 0.36234 0.0
C134 C 0.98032 0.95357 0.36301 0.0
C135 C 0.9641 0.99114 0.36391 0.0
C136 C 0.95364 0.91961 0.36229 0.0
C137 C 0.04038 0.90953 0.36018 0.0
C138 C 0.927 0.91549 0.3441 0.0
C139 C 0.90248 0.88294 0.343 0.0
C140 C 0.90411 0.85395 0.36012 0.0
C141 C 0.93012 0.85879 0.37866 0.0
C142 C 0.95454 0.8914 0.37976 0.0
H143 H 0.07102 0.91179 0.35405 0.0
H144 H 0.04074 0.89517 0.3773 0.0
H145 H 0.02383 0.89055 0.34814 0.0
H146 H 0.9257 0.93715 0.33053 0.0
H147 H 0.88277 0.88018 0.32851 0.0
H148 H 0.39539 0.62598 0.83075 0.0
H149 H 0.45459 0.58617 0.83164 0.0
H150 H 0.41895 0.5367 0.89657 0.0
H151 H 0.35935 0.57587 0.89571 0.0
H152 H 0.51543 0.57991 0.8633 0.0
H153 H 0.43335 0.44067 0.8554 0.0
H154 H 0.41104 0.48766 0.85046 0.0
H155 H 0.41883 0.47049 0.87934 0.0
C156 C 0.40025 0.60691 0.84534 0.0
C157 C 0.37238 0.6038 0.86304 0.0
C158 C 0.4341 0.58417 0.8458 0.0
C159 C 0.44069 0.55794 0.86393 0.0
C160 C 0.41392 0.55613 0.88216 0.0
H161 H 0.65828 0.43481 0.8907 0.0
H162 H 0.60072 0.47673 0.89309 0.0
C163 C 0.37999 0.57873 0.88169 0.0
C164 C 0.47504 0.53175 0.8634 0.0
H165 H 0.50152 0.4357 0.86158 0.0
C166 C 0.51247 0.54838 0.86294 0.0
C167 C 0.47094 0.49066 0.86256 0.0
C168 C 0.4314 0.47122 0.86174 0.0
C169 C 0.54603 0.52494 0.8619 0.0
C170 C 0.54195 0.48382 0.86171 0.0
C171 C 0.50451 0.46723 0.86195 0.0
C172 C 0.57616 0.45748 0.86071 0.0
C173 C 0.58549 0.54442 0.86047 0.0
C174 C 0.58069 0.43174 0.84211 0.0
C175 C 0.61336 0.40743 0.84077 0.0
C176 C 0.64208 0.40837 0.85807 0.0
C177 C 0.6369 0.43354 0.87698 0.0
C178 C 0.60415 0.45773 0.87832 0.0
H179 H 0.58308 0.57535 0.85486 0.0
H180 H 0.59937 0.54405 0.87772 0.0
H181 H 0.60496 0.5287 0.84832 0.0
H182 H 0.55923 0.43095 0.82841 0.0
H183 H 0.61638 0.38839 0.826 0.0
H184 H 0.61176 0.38348 0.16522 0.0
H185 H 0.57043 0.44169 0.16461 0.0
H186 H 0.52454 0.40753 0.0985 0.0
H187 H 0.56528 0.34901 0.09902 0.0
H188 H 0.56585 0.50309 0.13306 0.0
H189 H 0.42621 0.42113 0.13809 0.0
H190 H 0.47291 0.39878 0.14391 0.0
H191 H 0.45734 0.40663 0.11473 0.0
C192 C 0.59305 0.3884 0.15048 0.0
C193 C 0.59161 0.36137 0.13226 0.0
C194 C 0.56944 0.42167 0.15018 0.0
C195 C 0.54392 0.42844 0.13173 0.0
C196 C 0.54341 0.40233 0.11314 0.0
H197 H 0.4247 0.64565 0.10081 0.0
H198 H 0.46485 0.58676 0.09973 0.0
C199 C 0.56693 0.36903 0.11342 0.0
C200 C 0.51768 0.46275 0.13199 0.0
H201 H 0.42161 0.48938 0.13148 0.0
C202 C 0.53432 0.50015 0.13274 0.0
C203 C 0.47656 0.4587 0.13192 0.0
C204 C 0.45709 0.41917 0.13233 0.0
C205 C 0.51089 0.53374 0.13306 0.0
C206 C 0.4698 0.52972 0.13222 0.0
C207 C 0.45314 0.49231 0.13185 0.0
C208 C 0.44362 0.56407 0.13214 0.0
C209 C 0.53032 0.57321 0.1347 0.0
C210 C 0.41721 0.56996 0.15027 0.0
C211 C 0.39393 0.60346 0.15087 0.0
C212 C 0.39663 0.6316 0.13331 0.0
C213 C 0.4221 0.62477 0.11473 0.0
C214 C 0.44527 0.59125 0.11413 0.0
H215 H 0.56085 0.57087 0.14102 0.0
H216 H 0.53107 0.58681 0.11738 0.0
H217 H 0.51384 0.59289 0.14638 0.0
H218 H 0.41534 0.54911 0.16425 0.0
H219 H 0.37458 0.60772 0.1654 0.0
H220 H 0.1083 0.12498 0.66588 0.0
H221 H 0.04856 0.08577 0.6661 0.0
H222 H 0.07645 0.04151 0.59861 0.0
H223 H 0.13639 0.0801 0.59827 0.0
H224 H 0.98405 0.08231 0.63593 0.0
H225 H 0.06603 0.94248 0.63821 0.0
H226 H 0.08884 0.98904 0.6438 0.0
H227 H 0.07899 0.974 0.61473 0.0
C228 C 0.10157 0.10721 0.65097 0.0
C229 C 0.12739 0.10535 0.63216 0.0
C230 C 0.06744 0.08482 0.65115 0.0
C231 C 0.05859 0.06018 0.63258 0.0
C232 C 0.08325 0.0597 0.61333 0.0
H233 H 0.84043 0.93961 0.60555 0.0
H234 H 0.89771 0.98206 0.6042 0.0
C235 C 0.1174 0.08197 0.61314 0.0
C236 C 0.02419 0.03411 0.63361 0.0
H237 H 0.99746 0.93808 0.63323 0.0
C238 C 0.9869 0.05078 0.63537 0.0
C239 C 0.02816 0.99299 0.63325 0.0
C240 C 0.06766 0.97346 0.63261 0.0
C241 C 0.95331 0.02734 0.63637 0.0
C242 C 0.95723 0.98625 0.63523 0.0
C243 C 0.99457 0.96961 0.63386 0.0
C244 C 0.92297 0.95992 0.63574 0.0
C245 C 0.91401 0.04673 0.63903 0.0
C246 C 0.91889 0.93249 0.6535 0.0
C247 C 0.88636 0.90791 0.65425 0.0
C248 C 0.85735 0.91023 0.63715 0.0
C249 C 0.86205 0.93718 0.61908 0.0
C250 C 0.89463 0.96169 0.61835 0.0
H251 H 0.91679 0.0771 0.64556 0.0
H252 H 0.89934 0.04793 0.62202 0.0
H253 H 0.89504 0.02996 0.65097 0.0
H254 H 0.94064 0.93051 0.667 0.0
H255 H 0.88372 0.88748 0.66839 0.0
H256 H 0.26918 0.20895 0.40272 0.0
H257 H 0.28312 0.21825 0.44362 0.0
H258 H 0.21206 0.32213 0.44405 0.0
H259 H 0.19768 0.31297 0.4031 0.0
H260 H 0.31268 0.28458 0.47167 0.0
H261 H 0.15821 0.24249 0.48879 0.0
H262 H 0.1814 0.23396 0.46137 0.0
H263 H 0.16602 0.28229 0.46914 0.0
C264 C 0.25706 0.23417 0.4114 0.0
C265 C 0.23184 0.25989 0.39978 0.0
C266 C 0.2652 0.23952 0.43473 0.0
C267 C 0.24821 0.27056 0.44684 0.0
C268 C 0.22513 0.29778 0.43499 0.0
H269 H 0.21425 0.2826 0.59485 0.0
H270 H 0.21784 0.30186 0.55442 0.0
C271 C 0.21701 0.29252 0.41161 0.0
C272 C 0.25117 0.2717 0.47221 0.0
H273 H 0.1982 0.25377 0.52073 0.0
C274 C 0.28765 0.27827 0.48249 0.0
C275 C 0.21842 0.26333 0.48616 0.0
C276 C 0.17879 0.25482 0.47592 0.0
C277 C 0.29229 0.27645 0.50651 0.0
C278 C 0.25973 0.26691 0.52042 0.0
C279 C 0.22311 0.26127 0.51007 0.0
C280 C 0.26288 0.26015 0.54556 0.0
C281 C 0.33191 0.28483 0.5167 0.0
C282 C 0.28767 0.23092 0.55418 0.0
C283 C 0.28593 0.22012 0.57737 0.0
C284 C 0.25883 0.23788 0.59221 0.0
C285 C 0.23525 0.26826 0.58378 0.0
C286 C 0.23732 0.27932 0.56069 0.0
H287 H 0.34942 0.30403 0.50525 0.0
H288 H 0.32939 0.29893 0.53384 0.0
H289 H 0.34808 0.25697 0.51875 0.0
H290 H 0.30693 0.215 0.54275 0.0
H291 H 0.3043 0.19645 0.58334 0.0
H292 H 0.18694 0.69659 0.90528 0.0
H293 H 0.17868 0.71019 0.94639 0.0
H294 H 0.27699 0.78883 0.94435 0.0
H295 H 0.28548 0.77539 0.90335 0.0
H296 H 0.2422 0.69279 0.97699 0.0
H297 H 0.19482 0.84731 0.98447 0.0
H298 H 0.1877 0.81877 0.95862 0.0
H299 H 0.2349 0.8388 0.96512 0.0
C300 C 0.2062 0.71753 0.91346 0.0
C301 C 0.23708 0.73472 0.90115 0.0
C302 C 0.20142 0.72527 0.93691 0.0
C303 C 0.22702 0.75076 0.94831 0.0
C304 C 0.25651 0.76958 0.93578 0.0
H305 H 0.30129 0.80171 0.08598 0.0
H306 H 0.28466 0.80379 0.04499 0.0
C307 C 0.26151 0.76165 0.91239 0.0
C308 C 0.22665 0.75338 0.97371 0.0
H309 H 0.21876 0.81704 0.01869 0.0
C310 C 0.23648 0.71978 0.98618 0.0
C311 C 0.21975 0.7888 0.98549 0.0
C312 C 0.20839 0.82548 0.9728 0.0
C313 C 0.241 0.72085 0.01013 0.0
C314 C 0.23424 0.75633 0.02203 0.0
C315 C 0.2237 0.78986 0.00956 0.0
C316 C 0.23995 0.75927 0.04726 0.0
C317 C 0.2548 0.68438 0.02228 0.0
C318 C 0.21915 0.73481 0.06226 0.0
C319 C 0.22901 0.73312 0.08555 0.0
C320 C 0.25924 0.75652 0.09433 0.0
C321 C 0.27792 0.78326 0.07966 0.0
C322 C 0.26844 0.7845 0.05626 0.0
H323 H 0.26833 0.66325 0.01015 0.0
H324 H 0.27642 0.69149 0.03589 0.0
H325 H 0.22947 0.66974 0.03049 0.0
H326 H 0.19632 0.71588 0.05578 0.0
H327 H 0.21376 0.71264 0.09655 0.0
H328 H 0.80778 0.77214 0.58535 0.0
H329 H 0.79957 0.7546 0.5451 0.0
H330 H 0.67635 0.73608 0.55639 0.0
H331 H 0.68415 0.75619 0.59669 0.0
H332 H 0.77789 0.69304 0.523 0.0
H333 H 0.67032 0.81053 0.50445 0.0
H334 H 0.69535 0.80721 0.53163 0.0
H335 H 0.65467 0.77557 0.52549 0.0
C336 C 0.7789 0.76423 0.57932 0.0
C337 C 0.74649 0.76596 0.59408 0.0
C338 C 0.77424 0.75407 0.55627 0.0
C339 C 0.7372 0.74471 0.54749 0.0
C340 C 0.70502 0.74437 0.56252 0.0
H341 H 0.75634 0.67898 0.40019 0.0
H342 H 0.73836 0.67196 0.4409 0.0
C343 C 0.70952 0.75554 0.58557 0.0
C344 C 0.73296 0.73697 0.52243 0.0
H345 H 0.69094 0.77236 0.47341 0.0
C346 C 0.75866 0.71017 0.51214 0.0
C347 C 0.70776 0.75929 0.50826 0.0
C348 C 0.68069 0.78999 0.51793 0.0
C349 C 0.76202 0.70712 0.48813 0.0
C350 C 0.7375 0.73016 0.47395 0.0
C351 C 0.70975 0.75477 0.48428 0.0
C352 C 0.74379 0.7336 0.44871 0.0
C353 C 0.79377 0.68139 0.47836 0.0
C354 C 0.75058 0.77069 0.43922 0.0
C355 C 0.75951 0.77483 0.41597 0.0
C356 C 0.76257 0.74189 0.40169 0.0
C357 C 0.75462 0.7048 0.41091 0.0
C358 C 0.74468 0.70075 0.43419 0.0
H359 H 0.81551 0.67286 0.49164 0.0
H360 H 0.78053 0.65424 0.47146 0.0
H361 H 0.80945 0.69635 0.46416 0.0
H362 H 0.7501 0.79654 0.44998 0.0
H363 H 0.7655 0.80383 0.4094 0.0
H364 H 0.69166 0.27111 0.9076 0.0
H365 H 0.69929 0.25305 0.94777 0.0
H366 H 0.82251 0.23378 0.93687 0.0
H367 H 0.81529 0.25449 0.89662 0.0
H368 H 0.72011 0.19101 0.96952 0.0
H369 H 0.82865 0.30714 0.98931 0.0
H370 H 0.80404 0.30453 0.96198 0.0
H371 H 0.84409 0.27217 0.96822 0.0
C372 C 0.72042 0.26293 0.91369 0.0
C373 C 0.75299 0.26461 0.89905 0.0
C374 C 0.72475 0.25247 0.9367 0.0
C375 C 0.76162 0.2427 0.94557 0.0
C376 C 0.79398 0.24236 0.93067 0.0
H377 H 0.7352 0.17823 0.09261 0.0
H378 H 0.75554 0.17027 0.05236 0.0
C379 C 0.7898 0.25387 0.90765 0.0
C380 C 0.7654 0.23455 0.97061 0.0
H381 H 0.80618 0.26952 0.0201 0.0
C382 C 0.73916 0.20795 0.9806 0.0
C383 C 0.79043 0.25654 0.98505 0.0
C384 C 0.81818 0.28692 0.97569 0.0
C385 C 0.73488 0.20504 0.00456 0.0
C386 C 0.75908 0.22793 0.01902 0.0
C387 C 0.78757 0.2521 0.00901 0.0
C388 C 0.75164 0.23188 0.04413 0.0
C389 C 0.70243 0.17974 0.01393 0.0
C390 C 0.745 0.26923 0.0533 0.0
C391 C 0.73478 0.27388 0.07633 0.0
C392 C 0.73021 0.24121 0.09068 0.0
C393 C 0.73805 0.20385 0.08181 0.0
C394 C 0.74934 0.19927 0.05878 0.0
H395 H 0.6812 0.17126 0.00036 0.0
H396 H 0.71507 0.15254 0.02114 0.0
H397 H 0.68627 0.19504 0.02782 0.0
H398 H 0.74653 0.2949 0.04243 0.0
H399 H 0.72891 0.30307 0.08264 0.0
H400 H 0.51802 0.18318 0.15303 0.0
H401 H 0.45943 0.17952 0.17654 0.0
H402 H 0.52694 0.208 0.23694 0.0
H403 H 0.5858 0.21364 0.2132 0.0
H404 H 0.43389 0.13891 0.2112 0.0
H405 H 0.44759 0.29318 0.23902 0.0
H406 H 0.47892 0.27209 0.21744 0.0
H407 H 0.4884 0.26377 0.24754 0.0
C408 C 0.52069 0.18824 0.17136 0.0
C409 C 0.55663 0.19928 0.18116 0.0
C410 C 0.487 0.18615 0.18482 0.0
C411 C 0.48844 0.19462 0.20842 0.0
C412 C 0.52481 0.20269 0.21861 0.0
H413 H 0.28995 0.15414 0.29943 0.0
H414 H 0.34982 0.14821 0.27701 0.0
C415 C 0.55854 0.20546 0.20507 0.0
C416 C 0.45153 0.19649 0.22189 0.0
H417 H 0.39641 0.25656 0.25576 0.0
C418 C 0.42569 0.16466 0.22094 0.0
C419 C 0.44032 0.23045 0.23417 0.0
C420 C 0.46504 0.26696 0.23444 0.0
C421 C 0.38913 0.16575 0.23189 0.0
C422 C 0.37865 0.19908 0.24495 0.0
C423 C 0.40447 0.23091 0.24589 0.0
C424 C 0.34117 0.20174 0.25783 0.0
C425 C 0.36175 0.13165 0.22867 0.0
C426 C 0.31662 0.23431 0.25504 0.0
C427 C 0.28272 0.23826 0.2683 0.0
C428 C 0.27252 0.20948 0.28444 0.0
C429 C 0.29668 0.17654 0.28688 0.0
C430 C 0.33088 0.17298 0.27395 0.0
H431 H 0.36821 0.11555 0.21251 0.0
H432 H 0.36549 0.11092 0.24318 0.0
H433 H 0.33081 0.14127 0.22821 0.0
H434 H 0.32395 0.25699 0.24278 0.0
H435 H 0.26476 0.26402 0.26609 0.0
H436 H 0.34304 0.79433 0.79894 0.0
H437 H 0.34842 0.85515 0.77724 0.0
H438 H 0.23557 0.83388 0.7467 0.0
H439 H 0.22928 0.77373 0.76916 0.0
H440 H 0.35047 0.87331 0.73355 0.0
H441 H 0.21899 0.94121 0.77169 0.0
H442 H 0.23924 0.89619 0.78245 0.0
H443 H 0.2077 0.89602 0.75762 0.0
C444 C 0.31941 0.80248 0.78752 0.0
C445 C 0.28555 0.7794 0.78592 0.0
C446 C 0.32252 0.83733 0.77513 0.0
C447 C 0.29198 0.8497 0.76077 0.0
C448 C 0.25896 0.82567 0.75825 0.0
H449 H 0.30321 0.02028 0.65263 0.0
H450 H 0.3097 0.96306 0.67702 0.0
C451 C 0.25556 0.79108 0.77092 0.0
C452 C 0.29475 0.88775 0.74853 0.0
H453 H 0.24588 0.97303 0.73876 0.0
C454 C 0.32772 0.89524 0.73484 0.0
C455 C 0.26564 0.91691 0.75065 0.0
C456 C 0.23114 0.9124 0.7666 0.0
C457 C 0.33178 0.93045 0.72266 0.0
C458 C 0.3014 0.95848 0.72357 0.0
C459 C 0.26904 0.95149 0.73783 0.0
C460 C 0.30144 0.99427 0.70906 0.0
C461 C 0.36884 0.93732 0.70922 0.0
C462 C 0.29411 0.03114 0.71881 0.0
C463 C 0.28955 0.06408 0.70477 0.0
C464 C 0.29238 0.06079 0.6807 0.0
C465 C 0.30122 0.0241 0.6711 0.0
C466 C 0.30523 0.99121 0.68508 0.0
H467 H 0.39378 0.92116 0.71689 0.0
H468 H 0.3649 0.92641 0.69138 0.0
H469 H 0.37645 0.96881 0.70849 0.0
H470 H 0.29091 0.03425 0.73727 0.0
H471 H 0.28268 0.09184 0.71274 0.0
H472 H 0.70773 0.7151 0.27926 0.0
H473 H 0.64783 0.72436 0.25701 0.0
H474 H 0.6578 0.84909 0.26531 0.0
H475 H 0.71761 0.84011 0.28779 0.0
H476 H 0.58323 0.81975 0.27579 0.0
H477 H 0.6352 0.7657 0.19117 0.0
H478 H 0.64383 0.73237 0.21448 0.0
H479 H 0.66817 0.77889 0.21415 0.0
C480 C 0.69748 0.74454 0.27611 0.0
C481 C 0.71753 0.77688 0.28523 0.0
C482 C 0.66328 0.74979 0.26334 0.0
C483 C 0.64857 0.78743 0.25933 0.0
C484 C 0.66873 0.8198 0.26816 0.0
H485 H 0.46179 0.83061 0.16134 0.0
H486 H 0.52115 0.83683 0.18429 0.0
C487 C 0.70299 0.8146 0.28092 0.0
C488 C 0.61135 0.79284 0.24667 0.0
H489 H 0.56655 0.77388 0.19542 0.0
C490 C 0.57961 0.81003 0.25815 0.0
C491 C 0.60685 0.78055 0.22359 0.0
C492 C 0.6404 0.76368 0.21001 0.0
C493 C 0.54311 0.81422 0.24736 0.0
C494 C 0.5382 0.80044 0.2246 0.0
C495 C 0.57027 0.78424 0.21293 0.0
C496 C 0.49999 0.8016 0.21255 0.0
C497 C 0.51025 0.83353 0.26035 0.0
C498 C 0.46787 0.78061 0.2211 0.0
C499 C 0.43368 0.77714 0.20805 0.0
C500 C 0.43118 0.79423 0.18608 0.0
C501 C 0.46269 0.81694 0.17814 0.0
C502 C 0.49674 0.82047 0.19121 0.0
H503 H 0.52138 0.85209 0.2746 0.0
H504 H 0.49212 0.85181 0.24874 0.0
H505 H 0.49125 0.81068 0.26797 0.0
H506 H 0.46992 0.76525 0.23734 0.0
H507 H 0.41013 0.75924 0.21464 0.0
H508 H 0.77716 0.21067 0.77668 0.0
H509 H 0.76642 0.15001 0.75536 0.0
H510 H 0.6423 0.16071 0.76602 0.0
H511 H 0.65274 0.22135 0.7875 0.0
H512 H 0.67319 0.08619 0.77729 0.0
H513 H 0.72002 0.13499 0.69051 0.0
H514 H 0.75472 0.14516 0.7129 0.0
H515 H 0.70787 0.16882 0.71325 0.0
C516 C 0.74752 0.20043 0.77423 0.0
C517 C 0.7158 0.22092 0.78372 0.0
C518 C 0.74144 0.16579 0.762 0.0
C519 C 0.70354 0.15105 0.75896 0.0
C520 C 0.67176 0.17167 0.76813 0.0
H521 H 0.65525 0.95949 0.66504 0.0
H522 H 0.6488 0.01932 0.68755 0.0
C523 C 0.6778 0.2064 0.7803 0.0
C524 C 0.69732 0.1133 0.74701 0.0
H525 H 0.71239 0.06654 0.69594 0.0
C526 C 0.68143 0.08191 0.75944 0.0
C527 C 0.70769 0.10796 0.72368 0.0
C528 C 0.72319 0.14108 0.7092 0.0
C529 C 0.67677 0.04491 0.74932 0.0
C530 C 0.68864 0.03919 0.72626 0.0
C531 C 0.70345 0.07091 0.71366 0.0
C532 C 0.68725 0.00041 0.71488 0.0
C533 C 0.6591 0.01235 0.76335 0.0
C534 C 0.71003 0.96934 0.72316 0.0
C535 C 0.71369 0.93491 0.71036 0.0
C536 C 0.69494 0.93112 0.68892 0.0
C537 C 0.67023 0.9614 0.68142 0.0
C538 C 0.66656 0.99573 0.69423 0.0
H539 H 0.64174 0.02382 0.77802 0.0
H540 H 0.64002 0.99356 0.75257 0.0
H541 H 0.68286 0.99391 0.77045 0.0
H542 H 0.72674 0.97252 0.73887 0.0
H543 H 0.73312 0.91232 0.7166 0.0
H544 H 0.0158 0.29287 0.33862 0.0
H545 H 0.95779 0.29664 0.31469 0.0
H546 H 0.02774 0.27582 0.25417 0.0
H547 H 0.08618 0.27003 0.27832 0.0
H548 H 0.93289 0.34064 0.28155 0.0
H549 H 0.94971 0.19016 0.24765 0.0
H550 H 0.98022 0.20916 0.2703 0.0
H551 H 0.99012 0.22132 0.24071 0.0
C552 C 0.01912 0.28939 0.32019 0.0
C553 C 0.05571 0.28066 0.31043 0.0
C554 C 0.98575 0.29157 0.3065 0.0
C555 C 0.98809 0.28552 0.28266 0.0
C556 C 0.02494 0.2793 0.27261 0.0
H557 H 0.7876 0.33198 0.19357 0.0
H558 H 0.84817 0.3368 0.21548 0.0
C559 C 0.05841 0.27642 0.2864 0.0
C560 C 0.9516 0.28464 0.26876 0.0
H561 H 0.8978 0.22755 0.23244 0.0
C562 C 0.92523 0.31589 0.2708 0.0
C563 C 0.94115 0.252 0.2551 0.0
C564 C 0.96657 0.21609 0.25345 0.0
C565 C 0.88876 0.31535 0.25975 0.0
C566 C 0.8789 0.28333 0.24545 0.0
C567 C 0.90536 0.2522 0.24329 0.0
C568 C 0.84125 0.28115 0.23272 0.0
C569 C 0.86073 0.34851 0.26425 0.0
C570 C 0.81747 0.24782 0.23456 0.0
C571 C 0.78322 0.24457 0.22157 0.0
C572 C 0.77184 0.27481 0.20668 0.0
C573 C 0.79525 0.30844 0.20517 0.0
C574 C 0.82985 0.31134 0.21781 0.0
H575 H 0.86707 0.36313 0.28091 0.0
H576 H 0.86384 0.37069 0.25046 0.0
H577 H 0.83 0.33819 0.26451 0.0
H578 H 0.82564 0.22406 0.24589 0.0
H579 H 0.76584 0.21825 0.22303 0.0
H580 H 0.28691 0.28342 0.71384 0.0
H581 H 0.28134 0.34364 0.7363 0.0
H582 H 0.15593 0.33868 0.73043 0.0
H583 H 0.1612 0.27868 0.7078 0.0
H584 H 0.18765 0.41161 0.71878 0.0
H585 H 0.24411 0.35919 0.80282 0.0
H586 H 0.27566 0.34915 0.77884 0.0
H587 H 0.22847 0.32631 0.78034 0.0
C588 C 0.25811 0.2948 0.71762 0.0
C589 C 0.2245 0.27618 0.70909 0.0
C590 C 0.25498 0.32919 0.73049 0.0
C591 C 0.2182 0.34546 0.73517 0.0
C592 C 0.18458 0.32656 0.72704 0.0
H593 H 0.17644 0.53195 0.83288 0.0
H594 H 0.1718 0.47266 0.80977 0.0
C595 C 0.18766 0.29218 0.7142 0.0
C596 C 0.21485 0.38308 0.74766 0.0
H597 H 0.23608 0.42773 0.79865 0.0
C598 C 0.19805 0.41515 0.73629 0.0
C599 C 0.22809 0.38748 0.77056 0.0
C600 C 0.24478 0.35365 0.78398 0.0
C601 C 0.19479 0.45173 0.74708 0.0
C602 C 0.20912 0.45641 0.76973 0.0
C603 C 0.2253 0.42415 0.78122 0.0
C604 C 0.20778 0.49439 0.782 0.0
C605 C 0.17566 0.48491 0.73427 0.0
C606 C 0.22875 0.52676 0.77377 0.0
C607 C 0.23134 0.56094 0.78692 0.0
C608 C 0.21332 0.56315 0.80865 0.0
C609 C 0.19081 0.53128 0.81628 0.0
C610 C 0.18818 0.49726 0.80312 0.0
H611 H 0.1574 0.4742 0.71978 0.0
H612 H 0.15711 0.50262 0.74596 0.0
H613 H 0.1986 0.50423 0.72705 0.0
H614 H 0.2446 0.52499 0.75768 0.0
H615 H 0.24913 0.58479 0.7806 0.0
H616 H 0.21885 0.6524 0.20849 0.0
H617 H 0.15812 0.64367 0.23006 0.0
H618 H 0.14713 0.76852 0.23714 0.0
H619 H 0.20808 0.77756 0.2158 0.0
H620 H 0.13055 0.72757 0.27757 0.0
H621 H 0.04954 0.66623 0.20304 0.0
H622 H 0.09406 0.64116 0.21003 0.0
H623 H 0.09592 0.69075 0.19999 0.0
C624 C 0.20373 0.67802 0.21482 0.0
C625 C 0.2182 0.71571 0.21032 0.0
C626 C 0.16886 0.67296 0.22698 0.0
C627 C 0.1477 0.70546 0.23476 0.0
C628 C 0.16286 0.74305 0.23111 0.0
H629 H 0.90896 0.73217 0.27948 0.0
H630 H 0.96959 0.72856 0.25734 0.0
C631 C 0.19774 0.74815 0.21896 0.0
C632 C 0.1096 0.70045 0.24654 0.0
H633 H 0.01642 0.66704 0.23883 0.0
C634 C 0.10563 0.71423 0.26915 0.0
C635 C 0.07699 0.6835 0.23536 0.0
C636 C 0.07905 0.66985 0.2107 0.0
C637 C 0.06998 0.71136 0.28095 0.0
C638 C 0.0376 0.69365 0.26996 0.0
C639 C 0.04145 0.68011 0.24729 0.0
C640 C -0.00089 0.69069 0.28152 0.0
C641 C 0.06701 0.72824 0.30489 0.0
C642 C 0.99496 0.66898 0.30184 0.0
C643 C 0.96036 0.67093 0.31454 0.0
C644 C 0.92917 0.69456 0.3071 0.0
C645 C 0.93236 0.71378 0.28577 0.0
C646 C 0.96706 0.71185 0.2731 0.0
H647 H 0.09157 0.74841 0.30877 0.0
H648 H 0.03911 0.74431 0.30714 0.0
H649 H 0.06777 0.70415 0.31765 0.0
H650 H 0.01909 0.65179 0.30836 0.0
H651 H 0.95885 0.65544 0.33076 0.0
H652 H 0.7663 0.41222 0.77701 0.0
H653 H 0.7725 0.47243 0.75475 0.0
H654 H 0.8492 0.52003 0.80648 0.0
H655 H 0.84291 0.46018 0.82898 0.0
H656 H 0.78567 0.5669 0.79756 0.0
H657 H 0.85788 0.52387 0.71602 0.0
H658 H 0.81673 0.49385 0.72337 0.0
H659 H 0.85923 0.49378 0.74154 0.0
C660 C 0.7854 0.43501 0.78336 0.0
C661 C 0.80387 0.4314 0.80489 0.0
C662 C 0.78897 0.46945 0.77056 0.0
C663 C 0.81138 0.50072 0.77893 0.0
C664 C 0.83174 0.49628 0.79971 0.0
H665 H 0.84638 0.72118 0.70593 0.0
H666 H 0.8566 0.66066 0.72754 0.0
C667 C 0.82816 0.46194 0.81253 0.0
C668 C 0.81001 0.53941 0.76745 0.0
H669 H 0.82612 0.58608 0.71639 0.0
C670 C 0.79488 0.57117 0.77988 0.0
C671 C 0.82224 0.54501 0.74444 0.0
C672 C 0.84029 0.51242 0.7306 0.0
C673 C 0.79067 0.60812 0.76974 0.0
C674 C 0.8014 0.61334 0.74646 0.0
C675 C 0.8176 0.5819 0.7342 0.0
C676 C 0.79528 0.65098 0.73437 0.0
C677 C 0.77485 0.6413 0.78406 0.0
C678 C 0.75741 0.66567 0.73116 0.0
C679 C 0.75145 0.70025 0.71885 0.0
C680 C 0.78328 0.72073 0.70947 0.0
C681 C 0.82125 0.70623 0.71304 0.0
C682 C 0.82715 0.67157 0.72529 0.0
H683 H 0.7778 0.63538 0.80278 0.0
H684 H 0.79011 0.66907 0.78 0.0
H685 H 0.74336 0.6452 0.7802 0.0
H686 H 0.73236 0.64991 0.73772 0.0
H687 H 0.72185 0.71047 0.71629 0.0
loop_
_geom_bond_atom_site_label_1
_geom_bond_atom_site_label_2
_geom_bond_distance
_geom_bond_site_symmetry_2
_ccdc_geom_bond_type
C0 O1 1.306 . S
C0 O3 1.160 . S
O1 C0 1.306 . S
O1 Cd2 2.228 . S
Cd2 O1 2.228 . S
Cd2 O6 2.273 . S
Cd2 O10 2.277 . S
O3 C0 1.160 . S
O3 Cd4 2.203 . S
Cd4 O3 2.203 . S
Cd4 O6 2.411 . S
Cd4 O7 2.333 . S
Cd4 O8 2.352 . S
Cd4 O12 2.277 . S
Cd4 O13 2.356 . S
C5 O10 1.209 . S
C5 O12 1.226 . S
O6 Cd2 2.273 . S
O6 Cd4 2.411 . S
O6 C9 1.320 . S
O7 Cd4 2.333 . S
O7 C9 1.214 . S
O8 Cd4 2.352 . S
O8 C11 1.258 . S
C9 O6 1.320 . S
C9 O7 1.214 . S
O10 Cd2 2.277 . S
O10 C5 1.209 . S
C11 O8 1.258 . S
C11 O13 1.282 . S
O12 Cd4 2.277 . S
O12 C5 1.226 . S
O13 Cd4 2.356 . S
O13 C11 1.282 . S
C14 O15 1.306 . S
C14 O17 1.160 . S
O15 C14 1.306 . S
O15 Cd16 2.228 . S
Cd16 O15 2.228 . S
Cd16 O20 2.273 . S
Cd16 O24 2.277 . S
O17 C14 1.160 . S
O17 Cd18 2.203 . S
Cd18 O17 2.203 . S
Cd18 O20 2.411 . S
Cd18 O21 2.333 . S
Cd18 O22 2.352 . S
Cd18 O26 2.277 . S
Cd18 O27 2.356 . S
C19 O24 1.209 . S
C19 O26 1.226 . S
O20 Cd16 2.273 . S
O20 Cd18 2.411 . S
O20 C23 1.320 . S
O21 Cd18 2.333 . S
O21 C23 1.214 . S
O22 Cd18 2.352 . S
O22 C25 1.258 . S
C23 O20 1.320 . S
C23 O21 1.214 . S
O24 Cd16 2.277 . S
O24 C19 1.209 . S
C25 O22 1.258 . S
C25 O27 1.282 . S
O26 Cd18 2.277 . S
O26 C19 1.226 . S
O27 Cd18 2.356 . S
O27 C25 1.282 . S
C28 O29 1.306 . S
C28 O31 1.160 . S
O29 C28 1.306 . S
O29 Cd30 2.228 . S
Cd30 O29 2.228 . S
Cd30 O34 2.273 . S
Cd30 O38 2.277 . S
O31 C28 1.160 . S
O31 Cd32 2.203 . S
Cd32 O31 2.203 . S
Cd32 O34 2.411 . S
Cd32 O35 2.333 . S
Cd32 O36 2.352 . S
Cd32 O40 2.277 . S
Cd32 O41 2.356 . S
C33 O38 1.209 . S
C33 O40 1.226 . S
O34 Cd30 2.273 . S
O34 Cd32 2.411 . S
O34 C37 1.320 . S
O35 Cd32 2.333 . S
O35 C37 1.214 . S
O36 Cd32 2.352 . S
O36 C39 1.258 . S
C37 O34 1.320 . S
C37 O35 1.214 . S
O38 Cd30 2.277 . S
O38 C33 1.209 . S
C39 O36 1.258 . S
C39 O41 1.282 . S
O40 Cd32 2.277 . S
O40 C33 1.226 . S
O41 Cd32 2.356 . S
O41 C39 1.282 . S
C42 O43 1.306 . S
C42 O45 1.160 . S
O43 C42 1.306 . S
O43 Cd44 2.228 . S
Cd44 O43 2.228 . S
Cd44 O48 2.273 . S
Cd44 O52 2.277 . S
O45 C42 1.160 . S
O45 Cd46 2.203 . S
Cd46 O45 2.203 . S
Cd46 O48 2.411 . S
Cd46 O49 2.333 . S
Cd46 O50 2.352 . S
Cd46 O54 2.277 . S
Cd46 O55 2.356 . S
C47 O52 1.209 . S
C47 O54 1.226 . S
O48 Cd44 2.273 . S
O48 Cd46 2.411 . S
O48 C51 1.320 . S
O49 Cd46 2.333 . S
O49 C51 1.214 . S
O50 Cd46 2.352 . S
O50 C53 1.258 . S
C51 O48 1.320 . S
C51 O49 1.214 . S
O52 Cd44 2.277 . S
O52 C47 1.209 . S
C53 O50 1.258 . S
C53 O55 1.282 . S
O54 Cd46 2.277 . S
O54 C47 1.226 . S
O55 Cd46 2.356 . S
O55 C53 1.282 . S
C56 O57 1.306 . S
C56 O59 1.160 . S
O57 C56 1.306 . S
O57 Cd58 2.228 . S
Cd58 O57 2.228 . S
Cd58 O62 2.273 . S
Cd58 O66 2.277 . S
O59 C56 1.160 . S
O59 Cd60 2.203 . S
Cd60 O59 2.203 . S
Cd60 O62 2.411 . S
Cd60 O63 2.333 . S
Cd60 O64 2.352 . S
Cd60 O68 2.277 . S
Cd60 O69 2.356 . S
C61 O66 1.209 . S
C61 O68 1.226 . S
O62 Cd58 2.273 . S
O62 Cd60 2.411 . S
O62 C65 1.320 . S
O63 Cd60 2.333 . S
O63 C65 1.214 . S
O64 Cd60 2.352 . S
O64 C67 1.258 . S
C65 O62 1.320 . S
C65 O63 1.214 . S
O66 Cd58 2.277 . S
O66 C61 1.209 . S
C67 O64 1.258 . S
C67 O69 1.282 . S
O68 Cd60 2.277 . S
O68 C61 1.226 . S
O69 Cd60 2.356 . S
O69 C67 1.282 . S
C70 O71 1.306 . S
C70 O73 1.160 . S
O71 C70 1.306 . S
O71 Cd72 2.228 . S
Cd72 O71 2.228 . S
Cd72 O76 2.273 . S
Cd72 O80 2.277 . S
O73 C70 1.160 . S
O73 Cd74 2.203 . S
Cd74 O73 2.203 . S
Cd74 O76 2.411 . S
Cd74 O77 2.333 . S
Cd74 O78 2.352 . S
Cd74 O82 2.277 . S
Cd74 O83 2.356 . S
C75 O80 1.209 . S
C75 O82 1.226 . S
O76 Cd72 2.273 . S
O76 Cd74 2.411 . S
O76 C79 1.320 . S
O77 Cd74 2.333 . S
O77 C79 1.214 . S
O78 Cd74 2.352 . S
O78 C81 1.258 . S
C79 O76 1.320 . S
C79 O77 1.214 . S
O80 Cd72 2.277 . S
O80 C75 1.209 . S
C81 O78 1.258 . S
C81 O83 1.282 . S
O82 Cd74 2.277 . S
O82 C75 1.226 . S
O83 Cd74 2.356 . S
O83 C81 1.282 . S
C84 O85 1.306 . S
C84 O87 1.160 . S
O85 C84 1.306 . S
O85 Cd86 2.228 . S
Cd86 O85 2.228 . S
Cd86 O90 2.273 . S
Cd86 O94 2.277 . S
O87 C84 1.160 . S
O87 Cd88 2.203 . S
Cd88 O87 2.203 . S
Cd88 O90 2.411 . S
Cd88 O91 2.333 . S
Cd88 O92 2.352 . S
Cd88 O96 2.277 . S
Cd88 O97 2.356 . S
C89 O94 1.209 . S
C89 O96 1.226 . S
O90 Cd86 2.273 . S
O90 Cd88 2.411 . S
O90 C93 1.320 . S
O91 Cd88 2.333 . S
O91 C93 1.214 . S
O92 Cd88 2.352 . S
O92 C95 1.258 . S
C93 O90 1.320 . S
C93 O91 1.214 . S
O94 Cd86 2.277 . S
O94 C89 1.209 . S
C95 O92 1.258 . S
C95 O97 1.282 . S
O96 Cd88 2.277 . S
O96 C89 1.226 . S
O97 Cd88 2.356 . S
O97 C95 1.282 . S
C98 O99 1.306 . S
C98 O101 1.160 . S
O99 C98 1.306 . S
O99 Cd100 2.228 . S
Cd100 O99 2.228 . S
Cd100 O104 2.273 . S
Cd100 O108 2.277 . S
O101 C98 1.160 . S
O101 Cd102 2.203 . S
Cd102 O101 2.203 . S
Cd102 O104 2.411 . S
Cd102 O105 2.333 . S
Cd102 O106 2.352 . S
Cd102 O110 2.277 . S
Cd102 O111 2.356 . S
C103 O108 1.209 . S
C103 O110 1.226 . S
O104 Cd100 2.273 . S
O104 Cd102 2.411 . S
O104 C107 1.320 . S
O105 Cd102 2.333 . S
O105 C107 1.214 . S
O106 Cd102 2.352 . S
O106 C109 1.258 . S
C107 O104 1.320 . S
C107 O105 1.214 . S
O108 Cd100 2.277 . S
O108 C103 1.209 . S
C109 O106 1.258 . S
C109 O111 1.282 . S
O110 Cd102 2.277 . S
O110 C103 1.226 . S
O111 Cd102 2.356 . S
O111 C109 1.282 . S
H112 C120 0.929 . S
H113 C122 0.930 . S
H114 C124 0.930 . S
H115 C127 0.929 . S
H116 C130 0.930 . S
H117 C132 0.960 . S
H118 C132 0.960 . S
H119 C132 0.960 . S
C120 H112 0.929 . S
C120 C121 1.377 . S
C120 C122 1.384 . S
C121 C120 1.377 . S
C121 C127 1.390 . S
C122 H113 0.930 . S
C122 C120 1.384 . S
C122 C123 1.372 . S
C123 C122 1.372 . S
C123 C124 1.400 . S
C123 C128 1.490 . S
C124 H114 0.930 . S
C124 C123 1.400 . S
C124 C127 1.386 . S
H125 C141 0.930 . S
H126 C142 0.931 . S
C127 H115 0.929 . S
C127 C121 1.390 . S
C127 C124 1.386 . S
C128 C123 1.490 . S
C128 C130 1.395 1_545 S
C128 C131 1.403 1_455 S
H129 C135 0.930 . S
C130 H116 0.930 . S
C130 C128 1.395 1_565 S
C130 C133 1.403 . S
C131 C128 1.403 1_655 S
C131 C132 1.524 . S
C131 C135 1.400 1_545 S
C132 H117 0.960 . S
C132 H118 0.960 . S
C132 H119 0.960 . S
C132 C131 1.524 . S
C133 C130 1.403 . S
C133 C134 1.392 1_455 S
C133 C137 1.495 . S
C134 C133 1.392 1_655 S
C134 C135 1.385 . S
C134 C136 1.478 . S
C135 H129 0.930 . S
C135 C131 1.400 1_565 S
C135 C134 1.385 . S
C136 C134 1.478 . S
C136 C138 1.381 . S
C136 C142 1.383 . S
C137 C133 1.495 . S
C137 H143 0.959 . S
C137 H144 0.961 . S
C137 H145 0.960 . S
C138 C136 1.381 . S
C138 C139 1.394 . S
C138 H146 0.930 . S
C139 C138 1.394 . S
C139 C140 1.383 . S
C139 H147 0.929 . S
C140 C139 1.383 . S
C140 C141 1.377 . S
C141 H125 0.930 . S
C141 C140 1.377 . S
C141 C142 1.379 . S
C142 H126 0.931 . S
C142 C136 1.383 . S
C142 C141 1.379 . S
H143 C137 0.959 . S
H144 C137 0.961 . S
H145 C137 0.960 . S
H146 C138 0.930 . S
H147 C139 0.929 . S
H148 C156 0.929 . S
H149 C158 0.930 . S
H150 C160 0.930 . S
H151 C163 0.929 . S
H152 C166 0.930 . S
H153 C168 0.960 . S
H154 C168 0.960 . S
H155 C168 0.960 . S
C156 H148 0.929 . S
C156 C157 1.377 . S
C156 C158 1.384 . S
C157 C156 1.377 . S
C157 C163 1.390 . S
C158 H149 0.930 . S
C158 C156 1.384 . S
C158 C159 1.372 . S
C159 C158 1.372 . S
C159 C160 1.400 . S
C159 C164 1.490 . S
C160 H150 0.930 . S
C160 C159 1.400 . S
C160 C163 1.386 . S
H161 C177 0.930 . S
H162 C178 0.931 . S
C163 H151 0.929 . S
C163 C157 1.390 . S
C163 C160 1.386 . S
C164 C159 1.490 . S
C164 C166 1.395 . S
C164 C167 1.403 . S
H165 C171 0.930 . S
C166 H152 0.930 . S
C166 C164 1.395 . S
C166 C169 1.403 . S
C167 C164 1.403 . S
C167 C168 1.524 . S
C167 C171 1.400 . S
C168 H153 0.960 . S
C168 H154 0.960 . S
C168 H155 0.960 . S
C168 C167 1.524 . S
C169 C166 1.403 . S
C169 C170 1.392 . S
C169 C173 1.495 . S
C170 C169 1.392 . S
C170 C171 1.385 . S
C170 C172 1.478 . S
C171 H165 0.930 . S
C171 C167 1.400 . S
C171 C170 1.385 . S
C172 C170 1.478 . S
C172 C174 1.381 . S
C172 C178 1.383 . S
C173 C169 1.495 . S
C173 H179 0.959 . S
C173 H180 0.961 . S
C173 H181 0.960 . S
C174 C172 1.381 . S
C174 C175 1.394 . S
C174 H182 0.930 . S
C175 C174 1.394 . S
C175 C176 1.383 . S
C175 H183 0.929 . S
C176 C175 1.383 . S
C176 C177 1.377 . S
C177 H161 0.930 . S
C177 C176 1.377 . S
C177 C178 1.379 . S
C178 H162 0.931 . S
C178 C172 1.383 . S
C178 C177 1.379 . S
H179 C173 0.959 . S
H180 C173 0.961 . S
H181 C173 0.960 . S
H182 C174 0.930 . S
H183 C175 0.929 . S
H184 C192 0.929 . S
H185 C194 0.930 . S
H186 C196 0.930 . S
H187 C199 0.929 . S
H188 C202 0.930 . S
H189 C204 0.960 . S
H190 C204 0.960 . S
H191 C204 0.960 . S
C192 H184 0.929 . S
C192 C193 1.377 . S
C192 C194 1.384 . S
C193 C192 1.377 . S
C193 C199 1.390 . S
C194 H185 0.930 . S
C194 C192 1.384 . S
C194 C195 1.372 . S
C195 C194 1.372 . S
C195 C196 1.400 . S
C195 C200 1.490 . S
C196 H186 0.930 . S
C196 C195 1.400 . S
C196 C199 1.386 . S
H197 C213 0.930 . S
H198 C214 0.931 . S
C199 H187 0.929 . S
C199 C193 1.390 . S
C199 C196 1.386 . S
C200 C195 1.490 . S
C200 C202 1.395 . S
C200 C203 1.403 . S
H201 C207 0.930 . S
C202 H188 0.930 . S
C202 C200 1.395 . S
C202 C205 1.403 . S
C203 C200 1.403 . S
C203 C204 1.524 . S
C203 C207 1.400 . S
C204 H189 0.960 . S
C204 H190 0.960 . S
C204 H191 0.960 . S
C204 C203 1.524 . S
C205 C202 1.403 . S
C205 C206 1.392 . S
C205 C209 1.495 . S
C206 C205 1.392 . S
C206 C207 1.385 . S
C206 C208 1.478 . S
C207 H201 0.930 . S
C207 C203 1.400 . S
C207 C206 1.385 . S
C208 C206 1.478 . S
C208 C210 1.381 . S
C208 C214 1.383 . S
C209 C205 1.495 . S
C209 H215 0.959 . S
C209 H216 0.961 . S
C209 H217 0.960 . S
C210 C208 1.381 . S
C210 C211 1.394 . S
C210 H218 0.930 . S
C211 C210 1.394 . S
C211 C212 1.383 . S
C211 H219 0.929 . S
C212 C211 1.383 . S
C212 C213 1.377 . S
C213 H197 0.930 . S
C213 C212 1.377 . S
C213 C214 1.379 . S
C214 H198 0.931 . S
C214 C208 1.383 . S
C214 C213 1.379 . S
H215 C209 0.959 . S
H216 C209 0.961 . S
H217 C209 0.960 . S
H218 C210 0.930 . S
H219 C211 0.929 . S
H220 C228 0.929 . S
H221 C230 0.930 . S
H222 C232 0.930 . S
H223 C235 0.929 . S
H224 C238 0.930 . S
H225 C240 0.960 . S
H226 C240 0.960 . S
H227 C240 0.960 . S
C228 H220 0.929 . S
C228 C229 1.377 . S
C228 C230 1.384 . S
C229 C228 1.377 . S
C229 C235 1.390 . S
C230 H221 0.930 . S
C230 C228 1.384 . S
C230 C231 1.372 . S
C231 C230 1.372 . S
C231 C232 1.400 . S
C231 C236 1.490 . S
C232 H222 0.930 . S
C232 C231 1.400 . S
C232 C235 1.386 . S
H233 C249 0.930 . S
H234 C250 0.931 . S
C235 H223 0.929 . S
C235 C229 1.390 . S
C235 C232 1.386 . S
C236 C231 1.490 . S
C236 C238 1.395 1_455 S
C236 C239 1.403 1_545 S
H237 C243 0.930 . S
C238 H224 0.930 . S
C238 C236 1.395 1_655 S
C238 C241 1.403 . S
C239 C236 1.403 1_565 S
C239 C240 1.524 . S
C239 C243 1.400 1_455 S
C240 H225 0.960 . S
C240 H226 0.960 . S
C240 H227 0.960 . S
C240 C239 1.524 . S
C241 C238 1.403 . S
C241 C242 1.392 1_545 S
C241 C245 1.495 . S
C242 C241 1.392 1_565 S
C242 C243 1.385 . S
C242 C244 1.478 . S
C243 H237 0.930 . S
C243 C239 1.400 1_655 S
C243 C242 1.385 . S
C244 C242 1.478 . S
C244 C246 1.381 . S
C244 C250 1.383 . S
C245 C241 1.495 . S
C245 H251 0.959 . S
C245 H252 0.961 . S
C245 H253 0.960 . S
C246 C244 1.381 . S
C246 C247 1.394 . S
C246 H254 0.930 . S
C247 C246 1.394 . S
C247 C248 1.383 . S
C247 H255 0.929 . S
C248 C247 1.383 . S
C248 C249 1.377 . S
C249 H233 0.930 . S
C249 C248 1.377 . S
C249 C250 1.379 . S
C250 H234 0.931 . S
C250 C244 1.383 . S
C250 C249 1.379 . S
H251 C245 0.959 . S
H252 C245 0.961 . S
H253 C245 0.960 . S
H254 C246 0.930 . S
H255 C247 0.929 . S
H256 C264 0.929 . S
H257 C266 0.930 . S
H258 C268 0.930 . S
H259 C271 0.929 . S
H260 C274 0.930 . S
H261 C276 0.960 . S
H262 C276 0.960 . S
H263 C276 0.960 . S
C264 H256 0.929 . S
C264 C265 1.377 . S
C264 C266 1.384 . S
C265 C264 1.377 . S
C265 C271 1.390 . S
C266 H257 0.930 . S
C266 C264 1.384 . S
C266 C267 1.372 . S
C267 C266 1.372 . S
C267 C268 1.400 . S
C267 C272 1.490 . S
C268 H258 0.930 . S
C268 C267 1.400 . S
C268 C271 1.386 . S
H269 C285 0.930 . S
H270 C286 0.931 . S
C271 H259 0.929 . S
C271 C265 1.390 . S
C271 C268 1.386 . S
C272 C267 1.490 . S
C272 C274 1.395 . S
C272 C275 1.403 . S
H273 C279 0.930 . S
C274 H260 0.930 . S
C274 C272 1.395 . S
C274 C277 1.403 . S
C275 C272 1.403 . S
C275 C276 1.524 . S
C275 C279 1.400 . S
C276 H261 0.960 . S
C276 H262 0.960 . S
C276 H263 0.960 . S
C276 C275 1.524 . S
C277 C274 1.403 . S
C277 C278 1.392 . S
C277 C281 1.495 . S
C278 C277 1.392 . S
C278 C279 1.385 . S
C278 C280 1.478 . S
C279 H273 0.930 . S
C279 C275 1.400 . S
C279 C278 1.385 . S
C280 C278 1.478 . S
C280 C282 1.381 . S
C280 C286 1.383 . S
C281 C277 1.495 . S
C281 H287 0.959 . S
C281 H288 0.961 . S
C281 H289 0.960 . S
C282 C280 1.381 . S
C282 C283 1.394 . S
C282 H290 0.930 . S
C283 C282 1.394 . S
C283 C284 1.383 . S
C283 H291 0.929 . S
C284 C283 1.383 . S
C284 C285 1.377 . S
C285 H269 0.930 . S
C285 C284 1.377 . S
C285 C286 1.379 . S
C286 H270 0.931 . S
C286 C280 1.383 . S
C286 C285 1.379 . S
H287 C281 0.959 . S
H288 C281 0.961 . S
H289 C281 0.960 . S
H290 C282 0.930 . S
H291 C283 0.929 . S
H292 C300 0.929 . S
H293 C302 0.930 . S
H294 C304 0.930 . S
H295 C307 0.929 . S
H296 C310 0.930 . S
H297 C312 0.960 . S
H298 C312 0.960 . S
H299 C312 0.960 . S
C300 H292 0.929 . S
C300 C301 1.377 . S
C300 C302 1.384 . S
C301 C300 1.377 . S
C301 C307 1.390 . S
C302 H293 0.930 . S
C302 C300 1.384 . S
C302 C303 1.372 . S
C303 C302 1.372 . S
C303 C304 1.400 . S
C303 C308 1.490 . S
C304 H294 0.930 . S
C304 C303 1.400 . S
C304 C307 1.386 . S
H305 C321 0.930 . S
H306 C322 0.931 . S
C307 H295 0.929 . S
C307 C301 1.390 . S
C307 C304 1.386 . S
C308 C303 1.490 . S
C308 C310 1.395 . S
C308 C311 1.403 . S
H309 C315 0.930 . S
C310 H296 0.930 . S
C310 C308 1.395 . S
C310 C313 1.403 1_556 S
C311 C308 1.403 . S
C311 C312 1.524 . S
C311 C315 1.400 1_556 S
C312 H297 0.960 . S
C312 H298 0.960 . S
C312 H299 0.960 . S
C312 C311 1.524 . S
C313 C310 1.403 1_554 S
C313 C314 1.392 . S
C313 C317 1.495 . S
C314 C313 1.392 . S
C314 C315 1.385 . S
C314 C316 1.478 . S
C315 H309 0.930 . S
C315 C311 1.400 1_554 S
C315 C314 1.385 . S
C316 C314 1.478 . S
C316 C318 1.381 . S
C316 C322 1.383 . S
C317 C313 1.495 . S
C317 H323 0.959 . S
C317 H324 0.961 . S
C317 H325 0.960 . S
C318 C316 1.381 . S
C318 C319 1.394 . S
C318 H326 0.930 . S
C319 C318 1.394 . S
C319 C320 1.383 . S
C319 H327 0.929 . S
C320 C319 1.383 . S
C320 C321 1.377 . S
C321 H305 0.930 . S
C321 C320 1.377 . S
C321 C322 1.379 . S
C322 H306 0.931 . S
C322 C316 1.383 . S
C322 C321 1.379 . S
H323 C317 0.959 . S
H324 C317 0.961 . S
H325 C317 0.960 . S
H326 C318 0.930 . S
H327 C319 0.929 . S
H328 C336 0.929 . S
H329 C338 0.930 . S
H330 C340 0.930 . S
H331 C343 0.929 . S
H332 C346 0.930 . S
H333 C348 0.960 . S
H334 C348 0.960 . S
H335 C348 0.960 . S
C336 H328 0.929 . S
C336 C337 1.377 . S
C336 C338 1.384 . S
C337 C336 1.377 . S
C337 C343 1.390 . S
C338 H329 0.930 . S
C338 C336 1.384 . S
C338 C339 1.372 . S
C339 C338 1.372 . S
C339 C340 1.400 . S
C339 C344 1.490 . S
C340 H330 0.930 . S
C340 C339 1.400 . S
C340 C343 1.386 . S
H341 C357 0.930 . S
H342 C358 0.931 . S
C343 H331 0.929 . S
C343 C337 1.390 . S
C343 C340 1.386 . S
C344 C339 1.490 . S
C344 C346 1.395 . S
C344 C347 1.403 . S
H345 C351 0.930 . S
C346 H332 0.930 . S
C346 C344 1.395 . S
C346 C349 1.403 . S
C347 C344 1.403 . S
C347 C348 1.524 . S
C347 C351 1.400 . S
C348 H333 0.960 . S
C348 H334 0.960 . S
C348 H335 0.960 . S
C348 C347 1.524 . S
C349 C346 1.403 . S
C349 C350 1.392 . S
C349 C353 1.495 . S
C350 C349 1.392 . S
C350 C351 1.385 . S
C350 C352 1.478 . S
C351 H345 0.930 . S
C351 C347 1.400 . S
C351 C350 1.385 . S
C352 C350 1.478 . S
C352 C354 1.381 . S
C352 C358 1.383 . S
C353 C349 1.495 . S
C353 H359 0.959 . S
C353 H360 0.961 . S
C353 H361 0.960 . S
C354 C352 1.381 . S
C354 C355 1.394 . S
C354 H362 0.930 . S
C355 C354 1.394 . S
C355 C356 1.383 . S
C355 H363 0.929 . S
C356 C355 1.383 . S
C356 C357 1.377 . S
C357 H341 0.930 . S
C357 C356 1.377 . S
C357 C358 1.379 . S
C358 H342 0.931 . S
C358 C352 1.383 . S
C358 C357 1.379 . S
H359 C353 0.959 . S
H360 C353 0.961 . S
H361 C353 0.960 . S
H362 C354 0.930 . S
H363 C355 0.929 . S
H364 C372 0.929 . S
H365 C374 0.930 . S
H366 C376 0.930 . S
H367 C379 0.929 . S
H368 C382 0.930 . S
H369 C384 0.960 1_554 S
H370 C384 0.960 . S
H371 C384 0.960 . S
C372 H364 0.929 . S
C372 C373 1.377 . S
C372 C374 1.384 . S
C373 C372 1.377 . S
C373 C379 1.390 . S
C374 H365 0.930 . S
C374 C372 1.384 . S
C374 C375 1.372 . S
C375 C374 1.372 . S
C375 C376 1.400 . S
C375 C380 1.490 . S
C376 H366 0.930 . S
C376 C375 1.400 . S
C376 C379 1.386 . S
H377 C393 0.930 . S
H378 C394 0.931 . S
C379 H367 0.929 . S
C379 C373 1.390 . S
C379 C376 1.386 . S
C380 C375 1.490 . S
C380 C382 1.395 . S
C380 C383 1.403 . S
H381 C387 0.930 . S
C382 H368 0.930 . S
C382 C380 1.395 . S
C382 C385 1.403 1_556 S
C383 C380 1.403 . S
C383 C384 1.524 . S
C383 C387 1.400 1_556 S
C384 H369 0.960 1_556 S
C384 H370 0.960 . S
C384 H371 0.960 . S
C384 C383 1.524 . S
C385 C382 1.403 1_554 S
C385 C386 1.392 . S
C385 C389 1.495 . S
C386 C385 1.392 . S
C386 C387 1.385 . S
C386 C388 1.478 . S
C387 H381 0.930 . S
C387 C383 1.400 1_554 S
C387 C386 1.385 . S
C388 C386 1.478 . S
C388 C390 1.381 . S
C388 C394 1.383 . S
C389 C385 1.495 . S
C389 H395 0.959 1_554 S
C389 H396 0.961 . S
C389 H397 0.960 . S
C390 C388 1.381 . S
C390 C391 1.394 . S
C390 H398 0.930 . S
C391 C390 1.394 . S
C391 C392 1.383 . S
C391 H399 0.929 . S
C392 C391 1.383 . S
C392 C393 1.377 . S
C393 H377 0.930 . S
C393 C392 1.377 . S
C393 C394 1.379 . S
C394 H378 0.931 . S
C394 C388 1.383 . S
C394 C393 1.379 . S
H395 C389 0.959 1_556 S
H396 C389 0.961 . S
H397 C389 0.960 . S
H398 C390 0.930 . S
H399 C391 0.929 . S
H400 C408 0.929 . S
H401 C410 0.930 . S
H402 C412 0.930 . S
H403 C415 0.929 . S
H404 C418 0.930 . S
H405 C420 0.960 . S
H406 C420 0.960 . S
H407 C420 0.960 . S
C408 H400 0.929 . S
C408 C409 1.377 . S
C408 C410 1.384 . S
C409 C408 1.377 . S
C409 C415 1.390 . S
C410 H401 0.930 . S
C410 C408 1.384 . S
C410 C411 1.372 . S
C411 C410 1.372 . S
C411 C412 1.400 . S
C411 C416 1.490 . S
C412 H402 0.930 . S
C412 C411 1.400 . S
C412 C415 1.386 . S
H413 C429 0.930 . S
H414 C430 0.931 . S
C415 H403 0.929 . S
C415 C409 1.390 . S
C415 C412 1.386 . S
C416 C411 1.490 . S
C416 C418 1.395 . S
C416 C419 1.403 . S
H417 C423 0.930 . S
C418 H404 0.930 . S
C418 C416 1.395 . S
C418 C421 1.403 . S
C419 C416 1.403 . S
C419 C420 1.524 . S
C419 C423 1.400 . S
C420 H405 0.960 . S
C420 H406 0.960 . S
C420 H407 0.960 . S
C420 C419 1.524 . S
C421 C418 1.403 . S
C421 C422 1.392 . S
C421 C425 1.495 . S
C422 C421 1.392 . S
C422 C423 1.385 . S
C422 C424 1.478 . S
C423 H417 0.930 . S
C423 C419 1.400 . S
C423 C422 1.385 . S
C424 C422 1.478 . S
C424 C426 1.381 . S
C424 C430 1.383 . S
C425 C421 1.495 . S
C425 H431 0.959 . S
C425 H432 0.961 . S
C425 H433 0.960 . S
C426 C424 1.381 . S
C426 C427 1.394 . S
C426 H434 0.930 . S
C427 C426 1.394 . S
C427 C428 1.383 . S
C427 H435 0.929 . S
C428 C427 1.383 . S
C428 C429 1.377 . S
C429 H413 0.930 . S
C429 C428 1.377 . S
C429 C430 1.379 . S
C430 H414 0.931 . S
C430 C424 1.383 . S
C430 C429 1.379 . S
H431 C425 0.959 . S
H432 C425 0.961 . S
H433 C425 0.960 . S
H434 C426 0.930 . S
H435 C427 0.929 . S
H436 C444 0.929 . S
H437 C446 0.930 . S
H438 C448 0.930 . S
H439 C451 0.929 . S
H440 C454 0.930 . S
H441 C456 0.960 . S
H442 C456 0.960 . S
H443 C456 0.960 . S
C444 H436 0.929 . S
C444 C445 1.377 . S
C444 C446 1.384 . S
C445 C444 1.377 . S
C445 C451 1.390 . S
C446 H437 0.930 . S
C446 C444 1.384 . S
C446 C447 1.372 . S
C447 C446 1.372 . S
C447 C448 1.400 . S
C447 C452 1.490 . S
C448 H438 0.930 . S
C448 C447 1.400 . S
C448 C451 1.386 . S
H449 C465 0.930 . S
H450 C466 0.931 . S
C451 H439 0.929 . S
C451 C445 1.390 . S
C451 C448 1.386 . S
C452 C447 1.490 . S
C452 C454 1.395 . S
C452 C455 1.403 . S
H453 C459 0.930 . S
C454 H440 0.930 . S
C454 C452 1.395 . S
C454 C457 1.403 . S
C455 C452 1.403 . S
C455 C456 1.524 . S
C455 C459 1.400 . S
C456 H441 0.960 . S
C456 H442 0.960 . S
C456 H443 0.960 . S
C456 C455 1.524 . S
C457 C454 1.403 . S
C457 C458 1.392 . S
C457 C461 1.495 . S
C458 C457 1.392 . S
C458 C459 1.385 . S
C458 C460 1.478 . S
C459 H453 0.930 . S
C459 C455 1.400 . S
C459 C458 1.385 . S
C460 C458 1.478 . S
C460 C462 1.381 . S
C460 C466 1.383 . S
C461 C457 1.495 . S
C461 H467 0.959 . S
C461 H468 0.961 . S
C461 H469 0.960 . S
C462 C460 1.381 . S
C462 C463 1.394 1_565 S
C462 H470 0.930 . S
C463 C462 1.394 1_545 S
C463 C464 1.383 . S
C463 H471 0.929 . S
C464 C463 1.383 . S
C464 C465 1.384 . S
C465 H449 0.930 . S
C465 C464 1.384 . S
C465 C466 1.371 1_545 S
C466 H450 0.931 . S
C466 C460 1.383 . S
C466 C465 1.371 1_565 S
H467 C461 0.959 . S
H468 C461 0.961 . S
H469 C461 0.960 . S
H470 C462 0.930 . S
H471 C463 0.929 . S
H472 C480 0.929 . S
H473 C482 0.930 . S
H474 C484 0.930 . S
H475 C487 0.929 . S
H476 C490 0.930 . S
H477 C492 0.960 . S
H478 C492 0.960 . S
H479 C492 0.960 . S
C480 H472 0.929 . S
C480 C481 1.377 . S
C480 C482 1.384 . S
C481 C480 1.377 . S
C481 C487 1.390 . S
C482 H473 0.930 . S
C482 C480 1.384 . S
C482 C483 1.372 . S
C483 C482 1.372 . S
C483 C484 1.400 . S
C483 C488 1.490 . S
C484 H474 0.930 . S
C484 C483 1.400 . S
C484 C487 1.386 . S
H485 C501 0.930 . S
H486 C502 0.931 . S
C487 H475 0.929 . S
C487 C481 1.390 . S
C487 C484 1.386 . S
C488 C483 1.490 . S
C488 C490 1.395 . S
C488 C491 1.403 . S
H489 C495 0.930 . S
C490 H476 0.930 . S
C490 C488 1.395 . S
C490 C493 1.403 . S
C491 C488 1.403 . S
C491 C492 1.524 . S
C491 C495 1.400 . S
C492 H477 0.960 . S
C492 H478 0.960 . S
C492 H479 0.960 . S
C492 C491 1.524 . S
C493 C490 1.403 . S
C493 C494 1.392 . S
C493 C497 1.495 . S
C494 C493 1.392 . S
C494 C495 1.385 . S
C494 C496 1.478 . S
C495 H489 0.930 . S
C495 C491 1.400 . S
C495 C494 1.385 . S
C496 C494 1.478 . S
C496 C498 1.381 . S
C496 C502 1.383 . S
C497 C493 1.495 . S
C497 H503 0.959 . S
C497 H504 0.961 . S
C497 H505 0.960 . S
C498 C496 1.381 . S
C498 C499 1.394 . S
C498 H506 0.930 . S
C499 C498 1.394 . S
C499 C500 1.383 . S
C499 H507 0.929 . S
C500 C499 1.383 . S
C500 C501 1.377 . S
C501 H485 0.930 . S
C501 C500 1.377 . S
C501 C502 1.379 . S
C502 H486 0.931 . S
C502 C496 1.383 . S
C502 C501 1.379 . S
H503 C497 0.959 . S
H504 C497 0.961 . S
H505 C497 0.960 . S
H506 C498 0.930 . S
H507 C499 0.929 . S
H508 C516 0.929 . S
H509 C518 0.930 . S
H510 C520 0.930 . S
H511 C523 0.929 . S
H512 C526 0.930 . S
H513 C528 0.960 . S
H514 C528 0.960 . S
H515 C528 0.960 . S
C516 H508 0.929 . S
C516 C517 1.377 . S
C516 C518 1.384 . S
C517 C516 1.377 . S
C517 C523 1.390 . S
C518 H509 0.930 . S
C518 C516 1.384 . S
C518 C519 1.372 . S
C519 C518 1.372 . S
C519 C520 1.400 . S
C519 C524 1.490 . S
C520 H510 0.930 . S
C520 C519 1.400 . S
C520 C523 1.386 . S
H521 C537 0.930 . S
H522 C538 0.931 . S
C523 H511 0.929 . S
C523 C517 1.390 . S
C523 C520 1.386 . S
C524 C519 1.490 . S
C524 C526 1.395 . S
C524 C527 1.403 . S
H525 C531 0.930 . S
C526 H512 0.930 . S
C526 C524 1.395 . S
C526 C529 1.403 . S
C527 C524 1.403 . S
C527 C528 1.524 . S
C527 C531 1.400 . S
C528 H513 0.960 . S
C528 H514 0.960 . S
C528 H515 0.960 . S
C528 C527 1.524 . S
C529 C526 1.403 . S
C529 C530 1.392 . S
C529 C533 1.495 . S
C530 C529 1.392 . S
C530 C531 1.385 . S
C530 C532 1.478 . S
C531 H525 0.930 . S
C531 C527 1.400 . S
C531 C530 1.385 . S
C532 C530 1.478 . S
C532 C534 1.363 1_545 S
C532 C538 1.383 . S
C533 C529 1.495 . S
C533 H539 0.959 . S
C533 H540 0.961 . S
C533 H541 0.960 . S
C534 C532 1.363 1_565 S
C534 C535 1.412 . S
C534 H542 0.931 . S
C535 C534 1.412 . S
C535 C536 1.383 . S
C535 H543 0.929 . S
C536 C535 1.383 . S
C536 C537 1.377 1_565 S
C537 H521 0.930 . S
C537 C536 1.377 1_545 S
C537 C538 1.379 . S
C538 H522 0.931 . S
C538 C532 1.383 . S
C538 C537 1.379 . S
H539 C533 0.959 . S
H540 C533 0.961 . S
H541 C533 0.960 . S
H542 C534 0.931 . S
H543 C535 0.929 . S
H544 C552 0.929 . S
H545 C554 0.930 . S
H546 C556 0.930 . S
H547 C559 0.929 . S
H548 C562 0.930 . S
H549 C564 0.960 . S
H550 C564 0.960 . S
H551 C564 0.960 . S
C552 H544 0.929 . S
C552 C553 1.377 . S
C552 C554 1.384 1_455 S
C553 C552 1.377 . S
C553 C559 1.390 . S
C554 H545 0.930 . S
C554 C552 1.384 1_655 S
C554 C555 1.372 . S
C555 C554 1.372 . S
C555 C556 1.400 . S
C555 C560 1.490 . S
C556 H546 0.930 . S
C556 C555 1.400 . S
C556 C559 1.386 1_655 S
H557 C573 0.930 . S
H558 C574 0.931 . S
C559 H547 0.929 . S
C559 C553 1.390 . S
C559 C556 1.386 1_455 S
C560 C555 1.490 . S
C560 C562 1.395 . S
C560 C563 1.403 . S
H561 C567 0.930 . S
C562 H548 0.930 . S
C562 C560 1.395 . S
C562 C565 1.403 . S
C563 C560 1.403 . S
C563 C564 1.524 . S
C563 C567 1.400 . S
C564 H549 0.960 . S
C564 H550 0.960 . S
C564 H551 0.960 . S
C564 C563 1.524 . S
C565 C562 1.403 . S
C565 C566 1.392 . S
C565 C569 1.495 . S
C566 C565 1.392 . S
C566 C567 1.385 . S
C566 C568 1.478 . S
C567 H561 0.930 . S
C567 C563 1.400 . S
C567 C566 1.385 . S
C568 C566 1.478 . S
C568 C570 1.381 . S
C568 C574 1.383 . S
C569 C565 1.495 . S
C569 H575 0.959 . S
C569 H576 0.961 . S
C569 H577 0.960 . S
C570 C568 1.381 . S
C570 C571 1.394 . S
C570 H578 0.930 . S
C571 C570 1.394 . S
C571 C572 1.383 . S
C571 H579 0.929 . S
C572 C571 1.383 . S
C572 C573 1.377 . S
C573 H557 0.930 . S
C573 C572 1.377 . S
C573 C574 1.379 . S
C574 H558 0.931 . S
C574 C568 1.383 . S
C574 C573 1.379 . S
H575 C569 0.959 . S
H576 C569 0.961 . S
H577 C569 0.960 . S
H578 C570 0.930 . S
H579 C571 0.929 . S
H580 C588 0.929 . S
H581 C590 0.930 . S
H582 C592 0.930 . S
H583 C595 0.929 . S
H584 C598 0.930 . S
H585 C600 0.960 . S
H586 C600 0.960 . S
H587 C600 0.960 . S
C588 H580 0.929 . S
C588 C589 1.377 . S
C588 C590 1.384 . S
C589 C588 1.377 . S
C589 C595 1.390 . S
C590 H581 0.930 . S
C590 C588 1.384 . S
C590 C591 1.372 . S
C591 C590 1.372 . S
C591 C592 1.400 . S
C591 C596 1.490 . S
C592 H582 0.930 . S
C592 C591 1.400 . S
C592 C595 1.386 . S
H593 C609 0.930 . S
H594 C610 0.931 . S
C595 H583 0.929 . S
C595 C589 1.390 . S
C595 C592 1.386 . S
C596 C591 1.490 . S
C596 C598 1.395 . S
C596 C599 1.403 . S
H597 C603 0.930 . S
C598 H584 0.930 . S
C598 C596 1.395 . S
C598 C601 1.403 . S
C599 C596 1.403 . S
C599 C600 1.524 . S
C599 C603 1.400 . S
C600 H585 0.960 . S
C600 H586 0.960 . S
C600 H587 0.960 . S
C600 C599 1.524 . S
C601 C598 1.403 . S
C601 C602 1.392 . S
C601 C605 1.495 . S
C602 C601 1.392 . S
C602 C603 1.385 . S
C602 C604 1.478 . S
C603 H597 0.930 . S
C603 C599 1.400 . S
C603 C602 1.385 . S
C604 C602 1.478 . S
C604 C606 1.381 . S
C604 C610 1.383 . S
C605 C601 1.495 . S
C605 H611 0.959 . S
C605 H612 0.961 . S
C605 H613 0.960 . S
C606 C604 1.381 . S
C606 C607 1.394 . S
C606 H614 0.930 . S
C607 C606 1.394 . S
C607 C608 1.383 . S
C607 H615 0.929 . S
C608 C607 1.383 . S
C608 C609 1.377 . S
C609 H593 0.930 . S
C609 C608 1.377 . S
C609 C610 1.379 . S
C610 H594 0.931 . S
C610 C604 1.383 . S
C610 C609 1.379 . S
H611 C605 0.959 . S
H612 C605 0.961 . S
H613 C605 0.960 . S
H614 C606 0.930 . S
H615 C607 0.929 . S
H616 C624 0.929 . S
H617 C626 0.930 . S
H618 C628 0.930 . S
H619 C631 0.929 . S
H620 C634 0.930 . S
H621 C636 0.960 . S
H622 C636 0.960 . S
H623 C636 0.960 . S
C624 H616 0.929 . S
C624 C625 1.377 . S
C624 C626 1.384 . S
C625 C624 1.377 . S
C625 C631 1.390 . S
C626 H617 0.930 . S
C626 C624 1.384 . S
C626 C627 1.372 . S
C627 C626 1.372 . S
C627 C628 1.400 . S
C627 C632 1.490 . S
C628 H618 0.930 . S
C628 C627 1.400 . S
C628 C631 1.386 . S
H629 C645 0.930 . S
H630 C646 0.931 . S
C631 H619 0.929 . S
C631 C625 1.390 . S
C631 C628 1.386 . S
C632 C627 1.490 . S
C632 C634 1.395 . S
C632 C635 1.403 . S
H633 C639 0.930 . S
C634 H620 0.930 . S
C634 C632 1.395 . S
C634 C637 1.403 . S
C635 C632 1.403 . S
C635 C636 1.524 . S
C635 C639 1.400 . S
C636 H621 0.960 . S
C636 H622 0.960 . S
C636 H623 0.960 . S
C636 C635 1.524 . S
C637 C634 1.403 . S
C637 C638 1.392 . S
C637 C641 1.495 . S
C638 C637 1.392 . S
C638 C639 1.385 . S
C638 C640 1.478 . S
C639 H633 0.930 . S
C639 C635 1.400 . S
C639 C638 1.385 . S
C640 C638 1.478 . S
C640 C642 1.381 . S
C640 C646 1.383 . S
C641 C637 1.495 . S
C641 H647 0.959 . S
C641 H648 0.961 . S
C641 H649 0.960 . S
C642 C640 1.381 . S
C642 C643 1.394 1_455 S
C642 H650 0.930 . S
C643 C642 1.394 1_655 S
C643 C644 1.383 . S
C643 H651 0.929 . S
C644 C643 1.383 . S
C644 C645 1.377 . S
C645 H629 0.930 . S
C645 C644 1.377 . S
C645 C646 1.379 1_655 S
C646 H630 0.931 . S
C646 C640 1.383 . S
C646 C645 1.379 1_455 S
H647 C641 0.959 . S
H648 C641 0.961 . S
H649 C641 0.960 . S
H650 C642 0.930 . S
H651 C643 0.929 . S
H652 C660 0.929 . S
H653 C662 0.930 . S
H654 C664 0.930 . S
H655 C667 0.929 . S
H656 C670 0.930 . S
H657 C672 0.960 . S
H658 C672 0.960 . S
H659 C672 0.960 . S
C660 H652 0.929 . S
C660 C661 1.377 . S
C660 C662 1.384 . S
C661 C660 1.377 . S
C661 C667 1.390 . S
C662 H653 0.930 . S
C662 C660 1.384 . S
C662 C663 1.372 . S
C663 C662 1.372 . S
C663 C664 1.400 . S
C663 C668 1.490 . S
C664 H654 0.930 . S
C664 C663 1.400 . S
C664 C667 1.386 . S
H665 C681 0.930 . S
H666 C682 0.931 . S
C667 H655 0.929 . S
C667 C661 1.390 . S
C667 C664 1.386 . S
C668 C663 1.490 . S
C668 C670 1.395 . S
C668 C671 1.403 . S
H669 C675 0.930 . S
C670 H656 0.930 . S
C670 C668 1.395 . S
C670 C673 1.403 . S
C671 C668 1.403 . S
C671 C672 1.524 . S
C671 C675 1.400 . S
C672 H657 0.960 . S
C672 H658 0.960 . S
C672 H659 0.960 . S
C672 C671 1.524 . S
C673 C670 1.403 . S
C673 C674 1.392 . S
C673 C677 1.495 . S
C674 C673 1.392 . S
C674 C675 1.385 . S
C674 C676 1.478 . S
C675 H669 0.930 . S
C675 C671 1.400 . S
C675 C674 1.385 . S
C676 C674 1.478 . S
C676 C678 1.381 . S
C676 C682 1.383 . S
C677 C673 1.495 . S
C677 H683 0.959 . S
C677 H684 0.961 . S
C677 H685 0.960 . S
C678 C676 1.381 . S
C678 C679 1.394 . S
C678 H686 0.930 . S
C679 C678 1.394 . S
C679 C680 1.383 . S
C679 H687 0.929 . S
C680 C679 1.383 . S
C680 C681 1.377 . S
C681 H665 0.930 . S
C681 C680 1.377 . S
C681 C682 1.379 . S
C682 H666 0.931 . S
C682 C676 1.383 . S
C682 C681 1.379 . S
H683 C677 0.959 . S
H684 C677 0.961 . S
H685 C677 0.960 . S
H686 C678 0.930 . S
H687 C679 0.929 . S
C121 C5 0.200 . S
C140 C33 0.157 . S
C157 C19 0.207 . S
C176 C47 0.171 . S
C193 C61 0.199 . S
C212 C89 0.157 . S
C229 C75 0.199 . S
C248 C103 0.157 . S
C265 C9 1.316 . S
C284 C79 1.335 . S
C301 C23 1.321 . S
C320 C93 1.296 . S
C337 C107 1.320 . S
C356 C37 1.325 . S
C373 C51 1.320 . S
C392 C65 1.326 . S
C409 C56 1.688 . S
C428 C11 1.719 . S
C445 C25 1.739 . S
C464 C70 1.708 . S
C481 C39 1.741 . S
C500 C84 1.694 . S
C517 C53 1.742 . S
C536 C98 1.715 . S
C553 C0 1.690 . S
C572 C67 1.731 . S
C589 C81 1.742 . S
C608 C14 1.706 . S
C625 C95 1.735 . S
C644 C28 1.672 . S
C661 C42 1.694 . S
C680 C109 1.747 . S
