# Generated by pormake.
# Topology upa, (4)-cn, num edge types: 1
# Building blocks:
#     Node 0, Type 0, BuildingBlock: NAHDIM_clean_sbu_0, # of connection points: 4
#     Node 1, Type 0, BuildingBlock: NAHDIM_clean_sbu_0, # of connection points: 4
#     Node 2, Type 0, BuildingBlock: NAHDIM_clean_sbu_0, # of connection points: 4
#     Node 3, Type 0, BuildingBlock: NAHDIM_clean_sbu_0, # of connection points: 4
#     Node 4, Type 0, BuildingBlock: NAHDIM_clean_sbu_0, # of connection points: 4
#     Node 5, Type 0, BuildingBlock: NAHDIM_clean_sbu_0, # of connection points: 4
#     Node 6, Type 0, BuildingBlock: NAHDIM_clean_sbu_0, # of connection points: 4
#     Node 7, Type 0, BuildingBlock: NAHDIM_clean_sbu_0, # of connection points: 4
#     Edge 8, Type (0, 0), BuildingBlock: ZUJKAS_clean_linker_0, # of connection points: 2
#     Edge 9, Type (0, 0), BuildingBlock: ZUJKAS_clean_linker_0, # of connection points: 2
#     Edge 10, Type (0, 0), BuildingBlock: ZUJKAS_clean_linker_0, # of connection points: 2
#     Edge 11, Type (0, 0), BuildingBlock: ZUJKAS_clean_linker_0, # of connection points: 2
#     Edge 12, Type (0, 0), BuildingBlock: ZUJKAS_clean_linker_0, # of connection points: 2
#     Edge 13, Type (0, 0), BuildingBlock: ZUJKAS_clean_linker_0, # of connection points: 2
#     Edge 14, Type (0, 0), BuildingBlock: ZUJKAS_clean_linker_0, # of connection points: 2
#     Edge 15, Type (0, 0), BuildingBlock: ZUJKAS_clean_linker_0, # of connection points: 2
#     Edge 16, Type (0, 0), BuildingBlock: ZUJKAS_clean_linker_0, # of connection points: 2
#     Edge 17, Type (0, 0), BuildingBlock: ZUJKAS_clean_linker_0, # of connection points: 2
#     Edge 18, Type (0, 0), BuildingBlock: ZUJKAS_clean_linker_0, # of connection points: 2
#     Edge 19, Type (0, 0), BuildingBlock: ZUJKAS_clean_linker_0, # of connection points: 2
#     Edge 20, Type (0, 0), BuildingBlock: ZUJKAS_clean_linker_0, # of connection points: 2
#     Edge 21, Type (0, 0), BuildingBlock: ZUJKAS_clean_linker_0, # of connection points: 2
#     Edge 22, Type (0, 0), BuildingBlock: ZUJKAS_clean_linker_0, # of connection points: 2
#     Edge 23, Type (0, 0), BuildingBlock: ZUJKAS_clean_linker_0, # of connection points: 2
# Relax obj value: 0.271
# Max RMSD: 0.206
# Mean RMSD: 0.206
data_MOF--net-upa--node1-NAHDIM_clean_sbu_0--edge1-ZUJKAS_clean_linker_0
_symmetry_space_group_name_H-M    P1
_symmetry_Int_Tables_number       1
_symmetry_cell_setting            triclinic
loop_
_symmetry_equiv_pos_as_xyz
'x, y, z'
_cell_length_a     34.448221
_cell_length_b     34.404634
_cell_length_c     54.170633
_cell_angle_alpha  90.016471
_cell_angle_beta   90.020686
_cell_angle_gamma 90.01434
loop_
_atom_site_label
_atom_site_type_symbol
_atom_site_fract_x
_atom_site_fract_y
_atom_site_fract_z
_atom_type_partial_charge
C0 C 0.2667 0.16424 0.27982 0.0
O1 O 0.24256 0.13934 0.26971 0.0
O2 O 0.16597 0.22331 0.29791 0.0
Zn3 Zn 0.20145 0.18247 0.3123 0.0
O4 O 0.2051 0.18778 0.34928 0.0
C5 C 0.15499 0.12761 0.28561 0.0
O6 O 0.15461 0.15603 0.26941 0.0
O7 O 0.25517 0.18533 0.29765 0.0
C8 C 0.17688 0.1762 0.36249 0.0
O9 O 0.14586 0.16204 0.3516 0.0
C10 C 0.14605 0.24734 0.31044 0.0
O11 O 0.15192 0.25003 0.33433 0.0
O12 O 0.17543 0.13121 0.30503 0.0
C13 C 0.29697 0.7746 0.80111 0.0
O14 O 0.28025 0.77163 0.82282 0.0
O15 O 0.27556 0.65501 0.79394 0.0
Zn16 Zn 0.31277 0.69327 0.80938 0.0
O17 O 0.30221 0.7005 0.84567 0.0
C18 C 0.37427 0.65228 0.78578 0.0
O19 O 0.3503 0.65507 0.76699 0.0
O20 O 0.31237 0.74464 0.79149 0.0
C21 C 0.31063 0.67319 0.86052 0.0
O22 O 0.32481 0.64059 0.85167 0.0
C23 C 0.24895 0.63661 0.80523 0.0
O24 O 0.24123 0.64535 0.82832 0.0
O25 O 0.36528 0.66848 0.80607 0.0
C26 C 0.72281 0.80869 0.3091 0.0
O27 O 0.72518 0.82504 0.33097 0.0
O28 O 0.83906 0.75081 0.30661 0.0
Zn29 Zn 0.80289 0.79249 0.31896 0.0
O30 O 0.79277 0.78716 0.35562 0.0
C31 C 0.84997 0.84518 0.29191 0.0
O32 O 0.84588 0.8178 0.2752 0.0
O33 O 0.7527 0.79242 0.30002 0.0
C34 C 0.81154 0.80803 0.3709 0.0
O35 O 0.83776 0.83246 0.3626 0.0
C36 C 0.87103 0.747 0.31808 0.0
O37 O 0.87551 0.76508 0.33924 0.0
O38 O 0.83176 0.84215 0.31223 0.0
C39 C 0.69518 0.24357 0.78264 0.0
O40 O 0.67892 0.27247 0.77066 0.0
O41 O 0.76105 0.33502 0.80474 0.0
Zn42 Zn 0.71672 0.3033 0.81848 0.0
O43 O 0.72141 0.29641 0.85538 0.0
C44 C 0.66853 0.35806 0.79288 0.0
O45 O 0.69803 0.3577 0.77753 0.0
O46 O 0.71307 0.25035 0.80272 0.0
C47 C 0.70673 0.32133 0.86998 0.0
O48 O 0.68936 0.35206 0.86073 0.0
C49 C 0.77805 0.36057 0.81781 0.0
O50 O 0.77271 0.36039 0.8418 0.0
O51 O 0.66873 0.33515 0.81132 0.0
C52 C 0.77287 0.28092 0.20305 0.0
O53 O 0.76103 0.24789 0.19345 0.0
O54 O 0.66468 0.26797 0.19944 0.0
Zn55 Zn 0.70026 0.30704 0.18347 0.0
O56 O 0.70888 0.29555 0.14745 0.0
C57 C 0.65773 0.36779 0.20672 0.0
O58 O 0.66528 0.34653 0.22629 0.0
O59 O 0.75127 0.31069 0.20126 0.0
C60 C 0.68107 0.30135 0.13248 0.0
O61 O 0.64748 0.31324 0.14115 0.0
C62 C 0.64817 0.23966 0.1886 0.0
O63 O 0.65757 0.23144 0.16569 0.0
O64 O 0.67174 0.35768 0.186 0.0
C65 C 0.18677 0.25195 0.71472 0.0
O66 O 0.19724 0.22263 0.72874 0.0
O67 O 0.21689 0.15717 0.69364 0.0
Zn68 Zn 0.17697 0.19191 0.67759 0.0
O69 O 0.18551 0.19577 0.64089 0.0
C70 C 0.11956 0.14794 0.70348 0.0
O71 O 0.14589 0.14999 0.72098 0.0
O72 O 0.17701 0.24555 0.69246 0.0
C73 C 0.17599 0.16729 0.62722 0.0
O74 O 0.16186 0.13572 0.6375 0.0
C75 C 0.24272 0.13768 0.68236 0.0
O76 O 0.24748 0.14274 0.65852 0.0
O77 O 0.12549 0.16568 0.68325 0.0
C78 C 0.2261 0.72153 0.18451 0.0
O79 O 0.23022 0.74355 0.16487 0.0
O80 O 0.3405 0.74673 0.18961 0.0
Zn81 Zn 0.30662 0.70465 0.17511 0.0
O82 O 0.2993 0.71088 0.13824 0.0
C83 C 0.35192 0.64943 0.20212 0.0
O84 O 0.34631 0.67466 0.21998 0.0
O85 O 0.25507 0.70237 0.19242 0.0
C86 C 0.3232 0.69458 0.12364 0.0
O87 O 0.35246 0.67493 0.13292 0.0
C88 C 0.36877 0.76073 0.17744 0.0
O89 O 0.37233 0.75175 0.154 0.0
O90 O 0.33578 0.65509 0.18134 0.0
C91 C 0.78806 0.74399 0.72012 0.0
O92 O 0.80213 0.77312 0.73298 0.0
O93 O 0.72733 0.8369 0.69932 0.0
Zn94 Zn 0.76944 0.80395 0.68401 0.0
O95 O 0.76215 0.79799 0.6473 0.0
C96 C 0.82213 0.85667 0.70791 0.0
O97 O 0.79367 0.85821 0.72401 0.0
O98 O 0.77243 0.75064 0.69928 0.0
C99 C 0.77234 0.82537 0.63294 0.0
O100 O 0.78608 0.8577 0.64248 0.0
C101 C 0.70487 0.85907 0.68713 0.0
O102 O 0.7035 0.85578 0.663 0.0
O103 O 0.81936 0.83366 0.6896 0.0
H104 H 0.10484 0.11342 0.24758 0.0
H105 H 0.05412 0.06381 0.24575 0.0
H106 H 0.092 0.01814 0.31584 0.0
H107 H 0.1431 0.06745 0.3178 0.0
H108 H 0.07305 0.96041 0.27966 0.0
H109 H 0.95736 0.07169 0.29088 0.0
H110 H 0.99037 0.08002 0.26575 0.0
H111 H 0.00788 0.08182 0.29697 0.0
C112 C 0.10275 0.09255 0.26248 0.0
C113 C 0.12779 0.09461 0.28295 0.0
C114 C 0.07361 0.06436 0.26144 0.0
C115 C 0.06894 0.03786 0.28087 0.0
C116 C 0.09506 0.03854 0.30073 0.0
H117 H 0.86895 0.90363 0.32395 0.0
H118 H 0.92215 0.95028 0.32007 0.0
C119 C 0.12423 0.06672 0.3018 0.0
C120 C 0.03579 0.01055 0.28107 0.0
H121 H 0.93689 0.00695 0.28436 0.0
C122 C 0.04326 0.97049 0.28061 0.0
C123 C 0.99705 0.02395 0.28265 0.0
C124 C 0.9875 0.06669 0.28431 0.0
C125 C 0.01287 0.94334 0.28155 0.0
C126 C 0.97408 0.95676 0.28268 0.0
C127 C 0.96666 0.99683 0.28326 0.0
C128 C 0.94081 0.92967 0.28425 0.0
C129 C 0.02256 0.90056 0.28187 0.0
C130 C 0.93311 0.90335 0.26509 0.0
C131 C 0.90273 0.87667 0.26723 0.0
C132 C 0.8794 0.87601 0.28853 0.0
C133 C 0.88637 0.90336 0.30731 0.0
C134 C 0.91678 0.93 0.30515 0.0
H135 H 0.05344 0.89532 0.28678 0.0
H136 H 0.00385 0.8847 0.29518 0.0
H137 H 0.0174 0.88821 0.26324 0.0
H138 H 0.95086 0.90319 0.24859 0.0
H139 H 0.89808 0.85606 0.2524 0.0
H140 H 0.39868 0.60935 0.74626 0.0
H141 H 0.45071 0.56102 0.74543 0.0
H142 H 0.47875 0.58757 0.82116 0.0
H143 H 0.42701 0.63622 0.82216 0.0
H144 H 0.54452 0.57821 0.78945 0.0
H145 H 0.4394 0.45606 0.78223 0.0
H146 H 0.43443 0.49321 0.75913 0.0
H147 H 0.42498 0.50462 0.79092 0.0
C148 C 0.41616 0.60525 0.76267 0.0
C149 C 0.40848 0.62639 0.78435 0.0
C150 C 0.44574 0.57749 0.76218 0.0
C151 C 0.46803 0.57032 0.78337 0.0
C152 C 0.46166 0.59258 0.80467 0.0
H153 H 0.6042 0.36845 0.82178 0.0
H154 H 0.55601 0.42048 0.81876 0.0
C155 C 0.43208 0.62035 0.80519 0.0
C156 C 0.497 0.53862 0.78367 0.0
H157 H 0.506 0.43997 0.78006 0.0
C158 C 0.53621 0.54797 0.78734 0.0
C159 C 0.48583 0.49923 0.78126 0.0
C160 C 0.44386 0.48746 0.77837 0.0
C161 C 0.56473 0.51889 0.78848 0.0
C162 C 0.55363 0.47954 0.78558 0.0
C163 C 0.51438 0.47021 0.78208 0.0
C164 C 0.5822 0.4475 0.78677 0.0
C165 C 0.60632 0.53043 0.79332 0.0
C166 C 0.61233 0.44504 0.76945 0.0
C167 C 0.63986 0.41537 0.7711 0.0
C168 C 0.6376 0.3875 0.79004 0.0
C169 C 0.60675 0.38945 0.80698 0.0
C170 C 0.57923 0.41916 0.8053 0.0
H171 H 0.60848 0.56027 0.80105 0.0
H172 H 0.62044 0.50987 0.80632 0.0
H173 H 0.62273 0.5298 0.7757 0.0
H174 H 0.61468 0.46621 0.75472 0.0
H175 H 0.66324 0.41471 0.75774 0.0
H176 H 0.6239 0.39837 0.24808 0.0
H177 H 0.57174 0.44673 0.24988 0.0
H178 H 0.57427 0.45726 0.17062 0.0
H179 H 0.62652 0.40924 0.16854 0.0
H180 H 0.57129 0.5301 0.22278 0.0
H181 H 0.45855 0.42154 0.19649 0.0
H182 H 0.50316 0.40778 0.21174 0.0
H183 H 0.50379 0.42131 0.17979 0.0
C184 C 0.6137 0.4113 0.23104 0.0
C185 C 0.62926 0.39986 0.20815 0.0
C186 C 0.58394 0.43887 0.23214 0.0
C187 C 0.56916 0.45513 0.21037 0.0
C188 C 0.58534 0.44476 0.18758 0.0
H189 H 0.37813 0.59918 0.16681 0.0
H190 H 0.43037 0.55163 0.17064 0.0
C191 C 0.61524 0.41743 0.18646 0.0
C192 C 0.53583 0.48196 0.21127 0.0
H193 H 0.43866 0.48695 0.19963 0.0
C194 C 0.54218 0.52079 0.21792 0.0
C195 C 0.49815 0.46943 0.20481 0.0
C196 C 0.49014 0.42771 0.19789 0.0
C197 C 0.51175 0.54792 0.2176 0.0
C198 C 0.47393 0.53546 0.21102 0.0
C199 C 0.46762 0.49638 0.20473 0.0
C200 C 0.44088 0.56286 0.20939 0.0
C201 C 0.52067 0.58991 0.22341 0.0
C202 C 0.42874 0.58416 0.23008 0.0
C203 C 0.39897 0.61155 0.22793 0.0
C204 C 0.38056 0.61776 0.2051 0.0
C205 C 0.39171 0.59515 0.18466 0.0
C206 C 0.4216 0.56798 0.18681 0.0
H207 H 0.55222 0.59623 0.22202 0.0
H208 H 0.50482 0.6097 0.21074 0.0
H209 H 0.51134 0.59643 0.24257 0.0
H210 H 0.4426 0.57993 0.24783 0.0
H211 H 0.39087 0.6283 0.24406 0.0
H212 H 0.06231 0.13289 0.66973 0.0
H213 H 0.0108 0.08421 0.67277 0.0
H214 H 0.04951 0.05404 0.746 0.0
H215 H 0.10131 0.10238 0.7431 0.0
H216 H 0.04046 0.99005 0.71432 0.0
H217 H 0.91012 0.08495 0.71365 0.0
H218 H 0.94365 0.09396 0.68891 0.0
H219 H 0.9582 0.10317 0.72023 0.0
C220 C 0.05954 0.11631 0.68663 0.0
C221 C 0.08592 0.12153 0.70618 0.0
C222 C 0.03 0.08859 0.68836 0.0
C223 C 0.02619 0.06579 0.70969 0.0
C224 C 0.05195 0.07146 0.72941 0.0
H225 H 0.83418 0.91153 0.74348 0.0
H226 H 0.88518 0.96082 0.74487 0.0
C227 C 0.08146 0.09918 0.72773 0.0
C228 C 0.99677 0.0345 0.71088 0.0
H229 H 0.89931 0.01715 0.70856 0.0
C230 C 0.00957 0.99593 0.71319 0.0
C231 C 0.95655 0.04237 0.70962 0.0
C232 C 0.94117 0.08337 0.70819 0.0
C233 C 0.98317 0.96488 0.71381 0.0
C234 C 0.94302 0.97267 0.71177 0.0
C235 C 0.93018 0.01129 0.70993 0.0
C236 C 0.91372 0.94121 0.71156 0.0
C237 C -0.00158 0.92406 0.71691 0.0
C238 C 0.91304 0.91373 0.69241 0.0
C239 C 0.88394 0.88542 0.69157 0.0
C240 C 0.85492 0.88427 0.70981 0.0
C241 C 0.85613 0.9115 0.72917 0.0
C242 C 0.88518 0.93977 0.72998 0.0
H243 H 0.02849 0.92387 0.72434 0.0
H244 H 0.97952 0.90695 0.72946 0.0
H245 H -0.00123 0.90937 0.69867 0.0
H246 H 0.93445 0.91477 0.67779 0.0
H247 H 0.88369 0.86504 0.67632 0.0
H248 H 0.23782 0.20062 0.3911 0.0
H249 H 0.24125 0.20223 0.43625 0.0
H250 H 0.12435 0.15796 0.4406 0.0
H251 H 0.12048 0.15645 0.39557 0.0
H252 H 0.14028 0.22263 0.47219 0.0
H253 H 0.24976 0.10455 0.48095 0.0
H254 H 0.26239 0.14393 0.46065 0.0
H255 H 0.22245 0.11265 0.45296 0.0
C256 C 0.21282 0.19126 0.40166 0.0
C257 C 0.17894 0.17821 0.38974 0.0
C258 C 0.21492 0.19205 0.42743 0.0
C259 C 0.18323 0.17976 0.44169 0.0
C260 C 0.14916 0.16742 0.42988 0.0
H261 H 0.16066 0.11072 0.59322 0.0
H262 H 0.16444 0.11573 0.54828 0.0
C263 C 0.14705 0.16652 0.40414 0.0
C264 C 0.18535 0.17962 0.46896 0.0
H265 H 0.22967 0.13524 0.51778 0.0
C266 C 0.15994 0.20371 0.4822 0.0
C267 C 0.21082 0.1546 0.48186 0.0
C268 C 0.23775 0.12719 0.46847 0.0
C269 C 0.15918 0.20332 0.5081 0.0
C270 C 0.18478 0.17844 0.521 0.0
C271 C 0.21031 0.15447 0.50777 0.0
C272 C 0.18407 0.17545 0.54824 0.0
C273 C 0.13024 0.22866 0.52145 0.0
C274 C 0.19447 0.20723 0.56305 0.0
C275 C 0.19237 0.20449 0.58877 0.0
C276 C 0.17986 0.16986 0.60007 0.0
C277 C 0.17025 0.13785 0.58512 0.0
C278 C 0.17246 0.14061 0.55944 0.0
H279 H 0.10757 0.24016 0.50881 0.0
H280 H 0.11585 0.21222 0.53653 0.0
H281 H 0.14563 0.25373 0.52985 0.0
H282 H 0.20406 0.23419 0.55472 0.0
H283 H 0.20016 0.22961 0.59976 0.0
H284 H 0.28766 0.73875 0.88525 0.0
H285 H 0.28339 0.74794 0.93002 0.0
H286 H 0.3187 0.62906 0.94137 0.0
H287 H 0.32289 0.61946 0.89675 0.0
H288 H 0.25372 0.65519 0.97122 0.0
H289 H 0.38174 0.75395 0.97496 0.0
H290 H 0.34389 0.76651 0.95351 0.0
H291 H 0.37185 0.72317 0.94869 0.0
C292 C 0.29432 0.71449 0.89727 0.0
C293 C 0.3059 0.67843 0.88745 0.0
C294 C 0.29197 0.71986 0.92281 0.0
C295 C 0.30114 0.68929 0.93891 0.0
C296 C 0.3116 0.65301 0.92919 0.0
H297 H 0.37306 0.669 0.08818 0.0
H298 H 0.36447 0.67125 0.04349 0.0
C299 C 0.31407 0.64763 0.90369 0.0
C300 C 0.30107 0.69514 0.96595 0.0
H301 H 0.351 0.73934 0.01261 0.0
C302 C 0.27466 0.67389 0.98032 0.0
C303 C 0.3287 0.71935 0.97764 0.0
C304 C 0.35841 0.74193 0.96302 0.0
C305 C 0.2756 0.6757 0.0062 0.0
C306 C 0.30354 0.69954 0.01787 0.0
C307 C 0.32946 0.72134 0.0035 0.0
C308 C 0.30851 0.69964 0.04497 0.0
C309 C 0.24779 0.65099 0.02091 0.0
C310 C 0.28002 0.71533 0.06055 0.0
C311 C 0.28487 0.7142 0.0862 0.0
C312 C 0.31826 0.69724 0.09658 0.0
C313 C 0.34693 0.6821 0.08081 0.0
C314 C 0.34214 0.68342 0.05526 0.0
H315 H 0.23188 0.62989 0.00912 0.0
H316 H 0.26359 0.63474 0.0355 0.0
H317 H 0.22622 0.67003 0.03014 0.0
H318 H 0.25405 0.72834 0.05288 0.0
H319 H 0.26231 0.7262 0.09786 0.0
H320 H 0.75382 0.75955 0.60701 0.0
H321 H 0.75436 0.75091 0.56211 0.0
H322 H 0.78655 0.87111 0.55281 0.0
H323 H 0.78613 0.88012 0.59757 0.0
H324 H 0.72396 0.84082 0.5202 0.0
H325 H 0.85909 0.75179 0.52153 0.0
H326 H 0.82037 0.73756 0.54193 0.0
H327 H 0.84528 0.78264 0.54703 0.0
C328 C 0.76076 0.78423 0.59541 0.0
C329 C 0.77021 0.82047 0.60586 0.0
C330 C 0.76113 0.77918 0.5698 0.0
C331 C 0.77081 0.8103 0.55428 0.0
C332 C 0.77907 0.84676 0.56457 0.0
H333 H 0.85326 0.84112 0.4081 0.0
H334 H 0.84042 0.83802 0.45238 0.0
C335 C 0.77892 0.8518 0.59014 0.0
C336 C 0.7738 0.80481 0.5273 0.0
H337 H 0.83173 0.7655 0.48271 0.0
C338 C 0.74719 0.82399 0.51194 0.0
C339 C 0.80437 0.78305 0.51673 0.0
C340 C 0.83416 0.76269 0.53254 0.0
C341 C 0.75079 0.82249 0.48615 0.0
C342 C 0.78174 0.80126 0.47561 0.0
C343 C 0.80791 0.78151 0.49096 0.0
C344 C 0.78933 0.80194 0.44879 0.0
C345 C 0.72246 0.84474 0.4703 0.0
C346 C 0.76497 0.78227 0.43222 0.0
C347 C 0.77232 0.78381 0.40683 0.0
C348 C 0.80404 0.80521 0.39771 0.0
C349 C 0.8285 0.82453 0.41449 0.0
C350 C 0.82129 0.82274 0.4398 0.0
H351 H 0.70271 0.86327 0.48144 0.0
H352 H 0.73833 0.86343 0.45698 0.0
H353 H 0.7046 0.82396 0.45949 0.0
H354 H 0.74032 0.76583 0.43893 0.0
H355 H 0.75296 0.76861 0.39437 0.0
H356 H 0.68328 0.37184 0.90583 0.0
H357 H 0.68547 0.36244 0.95048 0.0
H358 H 0.73726 0.24952 0.94018 0.0
H359 H 0.73509 0.25854 0.89533 0.0
H360 H 0.67285 0.25106 0.97324 0.0
H361 H 0.78201 0.3641 0.9959 0.0
H362 H 0.74301 0.38127 0.97677 0.0
H363 H 0.77576 0.34499 0.96508 0.0
C364 C 0.69536 0.34506 0.91301 0.0
C365 C 0.70908 0.31596 0.89702 0.0
C366 C 0.69678 0.33986 0.93854 0.0
C367 C 0.712 0.30553 0.94858 0.0
C368 C 0.72565 0.27633 0.93274 0.0
H369 H 0.74833 0.28352 0.108 0.0
H370 H 0.75804 0.27938 0.06329 0.0
C371 C 0.72441 0.28157 0.90715 0.0
C372 C 0.71205 0.29969 0.97563 0.0
H373 H 0.74425 0.33967 0.02951 0.0
C374 C 0.68881 0.27009 0.98558 0.0
C375 C 0.73332 0.32424 0.9916 0.0
C376 C 0.76024 0.35522 0.98184 0.0
C377 C 0.68488 0.26555 0.0112 0.0
C378 C 0.7044 0.29156 0.02716 0.0
C379 C 0.72905 0.31999 0.0172 0.0
C380 C 0.69806 0.29121 0.05417 0.0
C381 C 0.65962 0.2332 0.02097 0.0
C382 C 0.66113 0.29928 0.06379 0.0
C383 C 0.65549 0.30178 0.08926 0.0
C384 C 0.68675 0.2964 0.1056 0.0
C385 C 0.72364 0.28774 0.09591 0.0
C386 C 0.72927 0.28538 0.0704 0.0
H387 H 0.65599 0.20961 0.00714 0.0
H388 H 0.67199 0.22063 0.03813 0.0
H389 H 0.63042 0.24497 0.02531 0.0
H390 H 0.63683 0.30463 0.05156 0.0
H391 H 0.62674 0.30858 0.09609 0.0
H392 H 0.59728 0.18771 0.1679 0.0
H393 H 0.5339 0.16823 0.18428 0.0
H394 H 0.55688 0.23197 0.25122 0.0
H395 H 0.62006 0.25173 0.23511 0.0
H396 H 0.50899 0.13128 0.23196 0.0
H397 H 0.45852 0.28333 0.21846 0.0
H398 H 0.50152 0.26436 0.2037 0.0
H399 H 0.50278 0.27791 0.2357 0.0
C400 C 0.58922 0.19694 0.18631 0.0
C401 C 0.61351 0.22172 0.20006 0.0
C402 C 0.553 0.18578 0.19561 0.0
C403 C 0.54061 0.19927 0.21873 0.0
C404 C 0.56583 0.22175 0.23318 0.0
H405 H 0.32528 0.20841 0.29905 0.0
H406 H 0.3919 0.21404 0.2841 0.0
C407 C 0.60196 0.2329 0.22394 0.0
C408 C 0.50025 0.19269 0.22698 0.0
H409 H 0.41557 0.24054 0.23886 0.0
C410 C 0.48842 0.15503 0.2334 0.0
C411 C 0.47361 0.22382 0.22869 0.0
C412 C 0.48448 0.26462 0.2211 0.0
C413 C 0.45074 0.14787 0.24227 0.0
C414 C 0.42421 0.17914 0.24423 0.0
C415 C 0.43602 0.21667 0.23744 0.0
C416 C 0.38418 0.17399 0.25368 0.0
C417 C 0.44003 0.10718 0.2501 0.0
C418 C 0.35763 0.1498 0.24142 0.0
C419 C 0.31947 0.14641 0.24997 0.0
C420 C 0.30712 0.16749 0.27079 0.0
C421 C 0.3338 0.1918 0.28295 0.0
C422 C 0.37192 0.19503 0.27446 0.0
H423 H 0.46615 0.08895 0.25339 0.0
H424 H 0.42222 0.10758 0.26718 0.0
H425 H 0.42268 0.09325 0.23528 0.0
H426 H 0.36622 0.13402 0.22501 0.0
H427 H 0.29959 0.1276 0.24011 0.0
H428 H 0.2669 0.84385 0.8167 0.0
H429 H 0.26834 0.90627 0.7952 0.0
H430 H 0.3319 0.85403 0.73521 0.0
H431 H 0.33025 0.79124 0.75642 0.0
H432 H 0.33325 0.95057 0.7786 0.0
H433 H 0.23727 0.9042 0.70133 0.0
H434 H 0.24157 0.8767 0.72957 0.0
H435 H 0.27925 0.87438 0.70671 0.0
C436 C 0.28115 0.84555 0.79891 0.0
C437 C 0.2982 0.81248 0.78819 0.0
C438 C 0.28206 0.88129 0.78671 0.0
C439 C 0.29987 0.88463 0.76353 0.0
C440 C 0.31749 0.85189 0.75292 0.0
H441 H 0.29064 0.08239 0.66247 0.0
H442 H 0.31247 0.02218 0.68211 0.0
C443 C 0.31659 0.81608 0.76511 0.0
C444 C 0.29931 0.92236 0.75041 0.0
H445 H 0.26105 0.9682 0.70016 0.0
C446 C 0.3177 0.95445 0.76136 0.0
C447 C 0.27915 0.92719 0.72788 0.0
C448 C 0.2579 0.89394 0.71569 0.0
C449 C 0.31599 0.99147 0.75051 0.0
C450 C 0.29479 0.99654 0.72839 0.0
C451 C 0.27743 0.96419 0.71707 0.0
C452 C 0.28724 0.03544 0.71769 0.0
C453 C 0.33677 0.0248 0.76287 0.0
C454 C 0.2665 0.06318 0.73134 0.0
C455 C 0.25403 0.09758 0.72021 0.0
C456 C 0.26177 0.10476 0.69513 0.0
C457 C 0.2842 0.07779 0.68182 0.0
C458 C 0.29665 0.04332 0.69299 0.0
H459 H 0.36124 0.01434 0.77447 0.0
H460 H 0.34818 0.04577 0.74908 0.0
H461 H 0.31613 0.04038 0.7751 0.0
H462 H 0.25821 0.05739 0.75027 0.0
H463 H 0.23676 0.11767 0.731 0.0
H464 H 0.65133 0.8311 0.32578 0.0
H465 H 0.58971 0.82931 0.30331 0.0
H466 H 0.64898 0.78641 0.2387 0.0
H467 H 0.71049 0.78714 0.26117 0.0
H468 H 0.56543 0.86576 0.26091 0.0
H469 H 0.56481 0.70572 0.24833 0.0
H470 H 0.59797 0.72989 0.26905 0.0
H471 H 0.60774 0.7285 0.23643 0.0
C472 C 0.65125 0.82123 0.30679 0.0
C473 C 0.68573 0.80885 0.29533 0.0
C474 C 0.61603 0.82032 0.29398 0.0
C475 C 0.61467 0.80708 0.26949 0.0
C476 C 0.64923 0.79582 0.25778 0.0
H477 H 0.43793 0.78478 0.15807 0.0
H478 H 0.49667 0.80199 0.18093 0.0
C479 C 0.68438 0.79641 0.27062 0.0
C480 C 0.57709 0.80464 0.25627 0.0
H481 H 0.51732 0.74142 0.22597 0.0
C482 C 0.5548 0.83856 0.25337 0.0
C483 C 0.56312 0.76901 0.24665 0.0
C484 C 0.58444 0.73114 0.25046 0.0
C485 C 0.5193 0.83786 0.2406 0.0
C486 C 0.50605 0.80248 0.23052 0.0
C487 C 0.52799 0.76856 0.23361 0.0
C488 C 0.46923 0.79956 0.21676 0.0
C489 C 0.49619 0.87475 0.23764 0.0
C490 C 0.43429 0.79358 0.22943 0.0
C491 C 0.40064 0.78355 0.21647 0.0
C492 C 0.40159 0.77919 0.19064 0.0
C493 C 0.43618 0.78777 0.17794 0.0
C494 C 0.46979 0.79763 0.19094 0.0
H495 H 0.51125 0.90033 0.24572 0.0
H496 H 0.49068 0.88029 0.21775 0.0
H497 H 0.46755 0.87135 0.2468 0.0
H498 H 0.43354 0.79474 0.24941 0.0
H499 H 0.3745 0.7772 0.22682 0.0
H500 H 0.71848 0.17676 0.80549 0.0
H501 H 0.71262 0.11023 0.79029 0.0
H502 H 0.65883 0.15226 0.72354 0.0
H503 H 0.66383 0.21908 0.73884 0.0
H504 H 0.62137 0.0876 0.74318 0.0
H505 H 0.78013 0.06267 0.7367 0.0
H506 H 0.76475 0.07817 0.76678 0.0
H507 H 0.75953 0.11043 0.74085 0.0
C508 C 0.7055 0.17195 0.78754 0.0
C509 C 0.6919 0.20328 0.77328 0.0
C510 C 0.70229 0.13388 0.77885 0.0
C511 C 0.68589 0.12638 0.75562 0.0
C512 C 0.67173 0.15748 0.74148 0.0
H513 H 0.66605 0.91975 0.66564 0.0
H514 H 0.65517 0.98402 0.68358 0.0
C515 C 0.67473 0.19562 0.75022 0.0
C516 C 0.68374 0.08607 0.7461 0.0
H517 H 0.73967 0.00736 0.7319 0.0
C518 C 0.64721 0.07006 0.7406 0.0
C519 C 0.71753 0.06336 0.74263 0.0
C520 C 0.75772 0.0796 0.7468 0.0
C521 C 0.64357 0.03154 0.73224 0.0
C522 C 0.67732 0.00874 0.72924 0.0
C523 C 0.71379 0.02486 0.73455 0.0
C524 C 0.67612 0.96836 0.71989 0.0
C525 C 0.60375 0.01526 0.72707 0.0
C526 C 0.69045 0.93803 0.73457 0.0
C527 C 0.69671 0.90127 0.7244 0.0
C528 C 0.68921 0.89435 0.69924 0.0
C529 C 0.67218 0.92407 0.68505 0.0
C530 C 0.66582 0.96084 0.69529 0.0
H531 H 0.58046 0.0335 0.73526 0.0
H532 H 0.5991 0.01404 0.70681 0.0
H533 H 0.60113 0.98522 0.73439 0.0
H534 H 0.69862 0.94333 0.75359 0.0
H535 H 0.70968 0.87904 0.7359 0.0
H536 H 0.12344 0.2444 0.26211 0.0
H537 H 0.06039 0.2626 0.24527 0.0
H538 H 0.0264 0.30859 0.3161 0.0
H539 H 0.08941 0.29005 0.33327 0.0
H540 H 0.97582 0.25363 0.29815 0.0
H541 H 0.00622 0.36354 0.22608 0.0
H542 H 0.03624 0.32114 0.22324 0.0
H543 H 0.04065 0.35164 0.25009 0.0
C544 C 0.10299 0.25928 0.27399 0.0
C545 C 0.11138 0.26549 0.29911 0.0
C546 C 0.06698 0.26989 0.26427 0.0
C547 C 0.03879 0.28718 0.27938 0.0
C548 C 0.04784 0.2954 0.3041 0.0
H549 H 0.80748 0.34557 0.22271 0.0
H550 H 0.87102 0.34978 0.24281 0.0
C551 C 0.08391 0.28484 0.31386 0.0
C552 C -0.00144 0.29192 0.2702 0.0
H553 H 0.94502 0.33004 0.22301 0.0
C554 C 0.96897 0.27083 0.28194 0.0
C555 C 0.98962 0.31455 0.24916 0.0
C556 C 0.0198 0.33932 0.23655 0.0
C557 C 0.93103 0.2704 0.27259 0.0
C558 C 0.92262 0.29118 0.25073 0.0
C559 C 0.95172 0.31373 0.23961 0.0
C560 C 0.88414 0.28866 0.23869 0.0
C561 C 0.90033 0.24738 0.28605 0.0
C562 C 0.87074 0.25296 0.2295 0.0
C563 C 0.83454 0.25041 0.21801 0.0
C564 C 0.8111 0.2836 0.21541 0.0
C565 C 0.82475 0.31942 0.2245 0.0
C566 C 0.86105 0.32194 0.23594 0.0
H567 H 0.9085 0.24215 0.30561 0.0
H568 H 0.87191 0.26257 0.28557 0.0
H569 H 0.8968 0.2187 0.27693 0.0
H570 H 0.88846 0.22707 0.23107 0.0
H571 H 0.825 0.22244 0.21111 0.0
H572 H 0.16407 0.31852 0.69116 0.0
H573 H 0.16844 0.38528 0.70648 0.0
H574 H 0.21516 0.34343 0.77535 0.0
H575 H 0.2111 0.27652 0.76022 0.0
H576 H 0.13587 0.42051 0.75097 0.0
H577 H 0.29727 0.42168 0.74816 0.0
H578 H 0.26863 0.38573 0.73208 0.0
H579 H 0.27574 0.38199 0.76483 0.0
C580 C 0.17516 0.32344 0.70961 0.0
C581 C 0.18757 0.29219 0.7244 0.0
C582 C 0.17748 0.3616 0.71834 0.0
C583 C 0.19247 0.3692 0.74191 0.0
C584 C 0.20393 0.3381 0.75698 0.0
H585 H 0.19989 0.5834 0.82632 0.0
H586 H 0.1819 0.51969 0.80982 0.0
C587 C 0.20151 0.2999 0.74831 0.0
C588 C 0.19744 0.40979 0.75037 0.0
H589 H 0.26657 0.47676 0.76533 0.0
C590 C 0.16439 0.43292 0.75412 0.0
C591 C 0.23473 0.42588 0.75413 0.0
C592 C 0.27121 0.40275 0.74943 0.0
C593 C 0.16771 0.47175 0.76191 0.0
C594 C 0.20501 0.48756 0.76615 0.0
C595 C 0.238 0.46449 0.76212 0.0
C596 C 0.21092 0.52797 0.77479 0.0
C597 C 0.13143 0.49571 0.76522 0.0
C598 C 0.23276 0.5539 0.76045 0.0
C599 C 0.24321 0.59022 0.76983 0.0
C600 C 0.23224 0.60121 0.79385 0.0
C601 C 0.20873 0.57591 0.80773 0.0
C602 C 0.19828 0.53951 0.7983 0.0
H603 H 0.1061 0.48245 0.75571 0.0
H604 H 0.12456 0.49781 0.78519 0.0
H605 H 0.13571 0.52565 0.75806 0.0
H606 H 0.24283 0.54549 0.74227 0.0
H607 H 0.26126 0.60899 0.7586 0.0
H608 H 0.20765 0.67795 0.2251 0.0
H609 H 0.14544 0.67518 0.24674 0.0
H610 H 0.0967 0.75646 0.19468 0.0
H611 H 0.1589 0.75975 0.17302 0.0
H612 H 0.08361 0.77604 0.24393 0.0
H613 H 0.04349 0.62239 0.2256 0.0
H614 H 0.09123 0.62892 0.2383 0.0
H615 H 0.08032 0.64768 0.20814 0.0
C616 C 0.18365 0.69507 0.21814 0.0
C617 C 0.18823 0.71909 0.19732 0.0
C618 C 0.14804 0.69321 0.23043 0.0
C619 C 0.11634 0.71515 0.22207 0.0
C620 C 0.12078 0.73909 0.2013 0.0
H621 H 0.87625 0.7214 0.27023 0.0
H622 H 0.936 0.70947 0.24694 0.0
C623 C 0.15635 0.74095 0.18897 0.0
C624 C 0.07922 0.71493 0.23582 0.0
H625 H 0.00513 0.65633 0.2552 0.0
C626 C 0.06638 0.74991 0.24631 0.0
C627 C 0.0567 0.68082 0.23871 0.0
C628 C 0.06836 0.64286 0.22692 0.0
C629 C 0.03193 0.7516 0.26001 0.0
C630 C 0.01004 0.71728 0.26353 0.0
C631 C 0.02236 0.68241 0.25266 0.0
C632 C 0.974 0.71768 0.27829 0.0
C633 C 0.01898 0.79016 0.27048 0.0
C634 C 0.97572 0.72444 0.30377 0.0
C635 C 0.94175 0.73114 0.31714 0.0
C636 C 0.90548 0.73127 0.3052 0.0
C637 C 0.9037 0.72158 0.27998 0.0
C638 C 0.93778 0.71482 0.26662 0.0
H639 H 0.03509 0.81489 0.26218 0.0
H640 H 0.98742 0.79462 0.26735 0.0
H641 H 0.02418 0.79046 0.2907 0.0
H642 H 0.0035 0.7263 0.31309 0.0
H643 H 0.94415 0.73823 0.33657 0.0
H644 H 0.80936 0.42479 0.83996 0.0
H645 H 0.81893 0.48863 0.82109 0.0
H646 H 0.7901 0.44111 0.74978 0.0
H647 H 0.78048 0.37711 0.76836 0.0
H648 H 0.86458 0.51764 0.77757 0.0
H649 H 0.70384 0.52432 0.76726 0.0
H650 H 0.72748 0.49003 0.7875 0.0
H651 H 0.72741 0.48203 0.75477 0.0
C652 C 0.80603 0.4276 0.82016 0.0
C653 C 0.79347 0.39597 0.80575 0.0
C654 C 0.81148 0.46414 0.80943 0.0
C655 C 0.80443 0.46957 0.78419 0.0
C656 C 0.79514 0.43746 0.76939 0.0
H657 H 0.76687 0.677 0.69653 0.0
H658 H 0.7732 0.61035 0.71155 0.0
C659 C 0.78983 0.40088 0.78005 0.0
C660 C 0.80296 0.5093 0.77389 0.0
H661 H 0.73971 0.57763 0.75232 0.0
C662 C 0.83737 0.53084 0.77197 0.0
C663 C 0.76729 0.52628 0.76676 0.0
C664 C 0.72928 0.50472 0.76928 0.0
C665 C 0.83714 0.56897 0.7627 0.0
C666 C 0.80141 0.58611 0.75575 0.0
C667 C 0.76704 0.5644 0.75763 0.0
C668 C 0.7988 0.62659 0.74655 0.0
C669 C 0.8752 0.59028 0.76004 0.0
C670 C 0.81065 0.65788 0.76138 0.0
C671 C 0.80716 0.69606 0.75282 0.0
C672 C 0.79138 0.70364 0.72937 0.0
C673 C 0.77915 0.67221 0.71468 0.0
C674 C 0.78279 0.63408 0.72322 0.0
H675 H 0.9002 0.5699 0.75958 0.0
H676 H 0.87561 0.60815 0.74297 0.0
H677 H 0.87918 0.60995 0.77608 0.0
H678 H 0.82219 0.65282 0.7797 0.0
H679 H 0.81665 0.71961 0.76465 0.0
loop_
_geom_bond_atom_site_label_1
_geom_bond_atom_site_label_2
_geom_bond_distance
_geom_bond_site_symmetry_2
_ccdc_geom_bond_type
C0 O1 1.160 . S
C0 O7 1.185 . S
O1 C0 1.160 . S
O2 Zn3 1.899 . S
O2 C10 1.284 . S
Zn3 O2 1.899 . S
Zn3 O4 2.032 . S
Zn3 O7 2.086 . S
Zn3 O12 1.977 . S
O4 Zn3 2.032 . S
O4 C8 1.278 . S
C5 O6 1.203 . S
C5 O12 1.267 . S
O6 C5 1.203 . S
O7 C0 1.185 . S
O7 Zn3 2.086 . S
C8 O4 1.278 . S
C8 O9 1.211 . S
O9 C8 1.211 . S
C10 O2 1.284 . S
C10 O11 1.273 . S
O11 C10 1.273 . S
O12 Zn3 1.977 . S
O12 C5 1.267 . S
C13 O14 1.160 . S
C13 O20 1.185 . S
O14 C13 1.160 . S
O15 Zn16 1.899 . S
O15 C23 1.284 . S
Zn16 O15 1.899 . S
Zn16 O17 2.032 . S
Zn16 O20 2.086 . S
Zn16 O25 1.977 . S
O17 Zn16 2.032 . S
O17 C21 1.278 . S
C18 O19 1.203 . S
C18 O25 1.267 . S
O19 C18 1.203 . S
O20 C13 1.185 . S
O20 Zn16 2.086 . S
C21 O17 1.278 . S
C21 O22 1.211 . S
O22 C21 1.211 . S
C23 O15 1.284 . S
C23 O24 1.273 . S
O24 C23 1.273 . S
O25 Zn16 1.977 . S
O25 C18 1.267 . S
C26 O27 1.160 . S
C26 O33 1.185 . S
O27 C26 1.160 . S
O28 Zn29 1.899 . S
O28 C36 1.284 . S
Zn29 O28 1.899 . S
Zn29 O30 2.032 . S
Zn29 O33 2.086 . S
Zn29 O38 1.977 . S
O30 Zn29 2.032 . S
O30 C34 1.278 . S
C31 O32 1.203 . S
C31 O38 1.267 . S
O32 C31 1.203 . S
O33 C26 1.185 . S
O33 Zn29 2.086 . S
C34 O30 1.278 . S
C34 O35 1.211 . S
O35 C34 1.211 . S
C36 O28 1.284 . S
C36 O37 1.273 . S
O37 C36 1.273 . S
O38 Zn29 1.977 . S
O38 C31 1.267 . S
C39 O40 1.160 . S
C39 O46 1.185 . S
O40 C39 1.160 . S
O41 Zn42 1.899 . S
O41 C49 1.284 . S
Zn42 O41 1.899 . S
Zn42 O43 2.032 . S
Zn42 O46 2.086 . S
Zn42 O51 1.977 . S
O43 Zn42 2.032 . S
O43 C47 1.278 . S
C44 O45 1.203 . S
C44 O51 1.267 . S
O45 C44 1.203 . S
O46 C39 1.185 . S
O46 Zn42 2.086 . S
C47 O43 1.278 . S
C47 O48 1.211 . S
O48 C47 1.211 . S
C49 O41 1.284 . S
C49 O50 1.273 . S
O50 C49 1.273 . S
O51 Zn42 1.977 . S
O51 C44 1.267 . S
C52 O53 1.160 . S
C52 O59 1.185 . S
O53 C52 1.160 . S
O54 Zn55 1.899 . S
O54 C62 1.284 . S
Zn55 O54 1.899 . S
Zn55 O56 2.032 . S
Zn55 O59 2.086 . S
Zn55 O64 1.977 . S
O56 Zn55 2.032 . S
O56 C60 1.278 . S
C57 O58 1.203 . S
C57 O64 1.267 . S
O58 C57 1.203 . S
O59 C52 1.185 . S
O59 Zn55 2.086 . S
C60 O56 1.278 . S
C60 O61 1.211 . S
O61 C60 1.211 . S
C62 O54 1.284 . S
C62 O63 1.273 . S
O63 C62 1.273 . S
O64 Zn55 1.977 . S
O64 C57 1.267 . S
C65 O66 1.160 . S
C65 O72 1.185 . S
O66 C65 1.160 . S
O67 Zn68 1.899 . S
O67 C75 1.284 . S
Zn68 O67 1.899 . S
Zn68 O69 2.032 . S
Zn68 O72 2.086 . S
Zn68 O77 1.977 . S
O69 Zn68 2.032 . S
O69 C73 1.278 . S
C70 O71 1.203 . S
C70 O77 1.267 . S
O71 C70 1.203 . S
O72 C65 1.185 . S
O72 Zn68 2.086 . S
C73 O69 1.278 . S
C73 O74 1.211 . S
O74 C73 1.211 . S
C75 O67 1.284 . S
C75 O76 1.273 . S
O76 C75 1.273 . S
O77 Zn68 1.977 . S
O77 C70 1.267 . S
C78 O79 1.160 . S
C78 O85 1.185 . S
O79 C78 1.160 . S
O80 Zn81 1.899 . S
O80 C88 1.284 . S
Zn81 O80 1.899 . S
Zn81 O82 2.032 . S
Zn81 O85 2.086 . S
Zn81 O90 1.977 . S
O82 Zn81 2.032 . S
O82 C86 1.278 . S
C83 O84 1.203 . S
C83 O90 1.267 . S
O84 C83 1.203 . S
O85 C78 1.185 . S
O85 Zn81 2.086 . S
C86 O82 1.278 . S
C86 O87 1.211 . S
O87 C86 1.211 . S
C88 O80 1.284 . S
C88 O89 1.273 . S
O89 C88 1.273 . S
O90 Zn81 1.977 . S
O90 C83 1.267 . S
C91 O92 1.160 . S
C91 O98 1.185 . S
O92 C91 1.160 . S
O93 Zn94 1.899 . S
O93 C101 1.284 . S
Zn94 O93 1.899 . S
Zn94 O95 2.032 . S
Zn94 O98 2.086 . S
Zn94 O103 1.977 . S
O95 Zn94 2.032 . S
O95 C99 1.278 . S
C96 O97 1.203 . S
C96 O103 1.267 . S
O97 C96 1.203 . S
O98 C91 1.185 . S
O98 Zn94 2.086 . S
C99 O95 1.278 . S
C99 O100 1.211 . S
O100 C99 1.211 . S
C101 O93 1.284 . S
C101 O102 1.273 . S
O102 C101 1.273 . S
O103 Zn94 1.977 . S
O103 C96 1.267 . S
H104 C112 0.929 . S
H105 C114 0.930 . S
H106 C116 0.930 . S
H107 C119 0.929 . S
H108 C122 0.930 . S
H109 C124 0.960 . S
H110 C124 0.960 . S
H111 C124 0.960 . S
C112 H104 0.929 . S
C112 C113 1.377 . S
C112 C114 1.384 . S
C113 C112 1.377 . S
C113 C119 1.390 . S
C114 H105 0.930 . S
C114 C112 1.384 . S
C114 C115 1.372 . S
C115 C114 1.372 . S
C115 C116 1.400 . S
C115 C120 1.490 . S
C116 H106 0.930 . S
C116 C115 1.400 . S
C116 C119 1.386 . S
H117 C133 0.930 . S
H118 C134 0.931 . S
C119 H107 0.929 . S
C119 C113 1.390 . S
C119 C116 1.386 . S
C120 C115 1.490 . S
C120 C122 1.395 1_545 S
C120 C123 1.403 1_455 S
H121 C127 0.930 . S
C122 H108 0.930 . S
C122 C120 1.395 1_565 S
C122 C125 1.403 . S
C123 C120 1.403 1_655 S
C123 C124 1.524 . S
C123 C127 1.400 . S
C124 H109 0.960 . S
C124 H110 0.960 . S
C124 H111 0.960 . S
C124 C123 1.524 . S
C125 C122 1.403 . S
C125 C126 1.392 1_455 S
C125 C129 1.495 . S
C126 C125 1.392 1_655 S
C126 C127 1.385 1_565 S
C126 C128 1.478 . S
C127 H121 0.930 . S
C127 C123 1.400 . S
C127 C126 1.385 1_545 S
C128 C126 1.478 . S
C128 C130 1.381 . S
C128 C134 1.383 . S
C129 C125 1.495 . S
C129 H135 0.959 . S
C129 H136 0.961 . S
C129 H137 0.960 . S
C130 C128 1.381 . S
C130 C131 1.394 . S
C130 H138 0.930 . S
C131 C130 1.394 . S
C131 C132 1.383 . S
C131 H139 0.929 . S
C132 C131 1.383 . S
C132 C133 1.377 . S
C133 H117 0.930 . S
C133 C132 1.377 . S
C133 C134 1.379 . S
C134 H118 0.931 . S
C134 C128 1.383 . S
C134 C133 1.379 . S
H135 C129 0.959 . S
H136 C129 0.961 . S
H137 C129 0.960 . S
H138 C130 0.930 . S
H139 C131 0.929 . S
H140 C148 0.929 . S
H141 C150 0.930 . S
H142 C152 0.930 . S
H143 C155 0.929 . S
H144 C158 0.930 . S
H145 C160 0.960 . S
H146 C160 0.960 . S
H147 C160 0.960 . S
C148 H140 0.929 . S
C148 C149 1.377 . S
C148 C150 1.384 . S
C149 C148 1.377 . S
C149 C155 1.390 . S
C150 H141 0.930 . S
C150 C148 1.384 . S
C150 C151 1.372 . S
C151 C150 1.372 . S
C151 C152 1.400 . S
C151 C156 1.490 . S
C152 H142 0.930 . S
C152 C151 1.400 . S
C152 C155 1.386 . S
H153 C169 0.930 . S
H154 C170 0.931 . S
C155 H143 0.929 . S
C155 C149 1.390 . S
C155 C152 1.386 . S
C156 C151 1.490 . S
C156 C158 1.395 . S
C156 C159 1.403 . S
H157 C163 0.930 . S
C158 H144 0.930 . S
C158 C156 1.395 . S
C158 C161 1.403 . S
C159 C156 1.403 . S
C159 C160 1.524 . S
C159 C163 1.400 . S
C160 H145 0.960 . S
C160 H146 0.960 . S
C160 H147 0.960 . S
C160 C159 1.524 . S
C161 C158 1.403 . S
C161 C162 1.392 . S
C161 C165 1.495 . S
C162 C161 1.392 . S
C162 C163 1.385 . S
C162 C164 1.478 . S
C163 H157 0.930 . S
C163 C159 1.400 . S
C163 C162 1.385 . S
C164 C162 1.478 . S
C164 C166 1.381 . S
C164 C170 1.383 . S
C165 C161 1.495 . S
C165 H171 0.959 . S
C165 H172 0.961 . S
C165 H173 0.960 . S
C166 C164 1.381 . S
C166 C167 1.394 . S
C166 H174 0.930 . S
C167 C166 1.394 . S
C167 C168 1.383 . S
C167 H175 0.929 . S
C168 C167 1.383 . S
C168 C169 1.377 . S
C169 H153 0.930 . S
C169 C168 1.377 . S
C169 C170 1.379 . S
C170 H154 0.931 . S
C170 C164 1.383 . S
C170 C169 1.379 . S
H171 C165 0.959 . S
H172 C165 0.961 . S
H173 C165 0.960 . S
H174 C166 0.930 . S
H175 C167 0.929 . S
H176 C184 0.929 . S
H177 C186 0.930 . S
H178 C188 0.930 . S
H179 C191 0.929 . S
H180 C194 0.930 . S
H181 C196 0.960 . S
H182 C196 0.960 . S
H183 C196 0.960 . S
C184 H176 0.929 . S
C184 C185 1.377 . S
C184 C186 1.384 . S
C185 C184 1.377 . S
C185 C191 1.390 . S
C186 H177 0.930 . S
C186 C184 1.384 . S
C186 C187 1.372 . S
C187 C186 1.372 . S
C187 C188 1.400 . S
C187 C192 1.490 . S
C188 H178 0.930 . S
C188 C187 1.400 . S
C188 C191 1.386 . S
H189 C205 0.930 . S
H190 C206 0.931 . S
C191 H179 0.929 . S
C191 C185 1.390 . S
C191 C188 1.386 . S
C192 C187 1.490 . S
C192 C194 1.395 . S
C192 C195 1.403 . S
H193 C199 0.930 . S
C194 H180 0.930 . S
C194 C192 1.395 . S
C194 C197 1.403 . S
C195 C192 1.403 . S
C195 C196 1.524 . S
C195 C199 1.400 . S
C196 H181 0.960 . S
C196 H182 0.960 . S
C196 H183 0.960 . S
C196 C195 1.524 . S
C197 C194 1.403 . S
C197 C198 1.392 . S
C197 C201 1.495 . S
C198 C197 1.392 . S
C198 C199 1.385 . S
C198 C200 1.478 . S
C199 H193 0.930 . S
C199 C195 1.400 . S
C199 C198 1.385 . S
C200 C198 1.478 . S
C200 C202 1.381 . S
C200 C206 1.383 . S
C201 C197 1.495 . S
C201 H207 0.959 . S
C201 H208 0.961 . S
C201 H209 0.960 . S
C202 C200 1.381 . S
C202 C203 1.394 . S
C202 H210 0.930 . S
C203 C202 1.394 . S
C203 C204 1.383 . S
C203 H211 0.929 . S
C204 C203 1.383 . S
C204 C205 1.377 . S
C205 H189 0.930 . S
C205 C204 1.377 . S
C205 C206 1.379 . S
C206 H190 0.931 . S
C206 C200 1.383 . S
C206 C205 1.379 . S
H207 C201 0.959 . S
H208 C201 0.961 . S
H209 C201 0.960 . S
H210 C202 0.930 . S
H211 C203 0.929 . S
H212 C220 0.929 . S
H213 C222 0.930 . S
H214 C224 0.930 . S
H215 C227 0.929 . S
H216 C230 0.930 . S
H217 C232 0.960 . S
H218 C232 0.960 . S
H219 C232 0.960 . S
C220 H212 0.929 . S
C220 C221 1.377 . S
C220 C222 1.384 . S
C221 C220 1.377 . S
C221 C227 1.390 . S
C222 H213 0.930 . S
C222 C220 1.384 . S
C222 C223 1.372 . S
C223 C222 1.372 . S
C223 C224 1.400 . S
C223 C228 1.490 . S
C224 H214 0.930 . S
C224 C223 1.400 . S
C224 C227 1.386 . S
H225 C241 0.930 . S
H226 C242 0.931 . S
C227 H215 0.929 . S
C227 C221 1.390 . S
C227 C224 1.386 . S
C228 C223 1.490 . S
C228 C230 1.395 1_545 S
C228 C231 1.403 1_455 S
H229 C235 0.930 . S
C230 H216 0.930 . S
C230 C228 1.395 1_565 S
C230 C233 1.403 . S
C231 C228 1.403 1_655 S
C231 C232 1.524 . S
C231 C235 1.400 . S
C232 H217 0.960 . S
C232 H218 0.960 . S
C232 H219 0.960 . S
C232 C231 1.524 . S
C233 C230 1.403 . S
C233 C234 1.392 1_455 S
C233 C237 1.495 . S
C234 C233 1.392 1_655 S
C234 C235 1.385 1_565 S
C234 C236 1.478 . S
C235 H229 0.930 . S
C235 C231 1.400 . S
C235 C234 1.385 1_545 S
C236 C234 1.478 . S
C236 C238 1.381 . S
C236 C242 1.383 . S
C237 C233 1.495 . S
C237 H243 0.959 . S
C237 H244 0.961 . S
C237 H245 0.960 . S
C238 C236 1.381 . S
C238 C239 1.394 . S
C238 H246 0.930 . S
C239 C238 1.394 . S
C239 C240 1.383 . S
C239 H247 0.929 . S
C240 C239 1.383 . S
C240 C241 1.377 . S
C241 H225 0.930 . S
C241 C240 1.377 . S
C241 C242 1.379 . S
C242 H226 0.931 . S
C242 C236 1.383 . S
C242 C241 1.379 . S
H243 C237 0.959 . S
H244 C237 0.961 . S
H245 C237 0.960 . S
H246 C238 0.930 . S
H247 C239 0.929 . S
H248 C256 0.929 . S
H249 C258 0.930 . S
H250 C260 0.930 . S
H251 C263 0.929 . S
H252 C266 0.930 . S
H253 C268 0.960 . S
H254 C268 0.960 . S
H255 C268 0.960 . S
C256 H248 0.929 . S
C256 C257 1.377 . S
C256 C258 1.384 . S
C257 C256 1.377 . S
C257 C263 1.390 . S
C258 H249 0.930 . S
C258 C256 1.384 . S
C258 C259 1.372 . S
C259 C258 1.372 . S
C259 C260 1.400 . S
C259 C264 1.490 . S
C260 H250 0.930 . S
C260 C259 1.400 . S
C260 C263 1.386 . S
H261 C277 0.930 . S
H262 C278 0.931 . S
C263 H251 0.929 . S
C263 C257 1.390 . S
C263 C260 1.386 . S
C264 C259 1.490 . S
C264 C266 1.395 . S
C264 C267 1.403 . S
H265 C271 0.930 . S
C266 H252 0.930 . S
C266 C264 1.395 . S
C266 C269 1.403 . S
C267 C264 1.403 . S
C267 C268 1.524 . S
C267 C271 1.400 . S
C268 H253 0.960 . S
C268 H254 0.960 . S
C268 H255 0.960 . S
C268 C267 1.524 . S
C269 C266 1.403 . S
C269 C270 1.392 . S
C269 C273 1.495 . S
C270 C269 1.392 . S
C270 C271 1.385 . S
C270 C272 1.478 . S
C271 H265 0.930 . S
C271 C267 1.400 . S
C271 C270 1.385 . S
C272 C270 1.478 . S
C272 C274 1.381 . S
C272 C278 1.383 . S
C273 C269 1.495 . S
C273 H279 0.959 . S
C273 H280 0.961 . S
C273 H281 0.960 . S
C274 C272 1.381 . S
C274 C275 1.394 . S
C274 H282 0.930 . S
C275 C274 1.394 . S
C275 C276 1.383 . S
C275 H283 0.929 . S
C276 C275 1.383 . S
C276 C277 1.377 . S
C277 H261 0.930 . S
C277 C276 1.377 . S
C277 C278 1.379 . S
C278 H262 0.931 . S
C278 C272 1.383 . S
C278 C277 1.379 . S
H279 C273 0.959 . S
H280 C273 0.961 . S
H281 C273 0.960 . S
H282 C274 0.930 . S
H283 C275 0.929 . S
H284 C292 0.929 . S
H285 C294 0.930 . S
H286 C296 0.930 . S
H287 C299 0.929 . S
H288 C302 0.930 . S
H289 C304 0.960 . S
H290 C304 0.960 . S
H291 C304 0.960 . S
C292 H284 0.929 . S
C292 C293 1.377 . S
C292 C294 1.384 . S
C293 C292 1.377 . S
C293 C299 1.390 . S
C294 H285 0.930 . S
C294 C292 1.384 . S
C294 C295 1.372 . S
C295 C294 1.372 . S
C295 C296 1.400 . S
C295 C300 1.490 . S
C296 H286 0.930 . S
C296 C295 1.400 . S
C296 C299 1.386 . S
H297 C313 0.930 . S
H298 C314 0.931 . S
C299 H287 0.929 . S
C299 C293 1.390 . S
C299 C296 1.386 . S
C300 C295 1.490 . S
C300 C302 1.395 . S
C300 C303 1.403 . S
H301 C307 0.930 . S
C302 H288 0.930 . S
C302 C300 1.395 . S
C302 C305 1.403 1_556 S
C303 C300 1.403 . S
C303 C304 1.524 . S
C303 C307 1.400 1_556 S
C304 H289 0.960 . S
C304 H290 0.960 . S
C304 H291 0.960 . S
C304 C303 1.524 . S
C305 C302 1.403 1_554 S
C305 C306 1.392 . S
C305 C309 1.495 . S
C306 C305 1.392 . S
C306 C307 1.385 . S
C306 C308 1.478 . S
C307 H301 0.930 . S
C307 C303 1.400 1_554 S
C307 C306 1.385 . S
C308 C306 1.478 . S
C308 C310 1.381 . S
C308 C314 1.383 . S
C309 C305 1.495 . S
C309 H315 0.959 . S
C309 H316 0.961 . S
C309 H317 0.960 . S
C310 C308 1.381 . S
C310 C311 1.394 . S
C310 H318 0.930 . S
C311 C310 1.394 . S
C311 C312 1.383 . S
C311 H319 0.929 . S
C312 C311 1.383 . S
C312 C313 1.377 . S
C313 H297 0.930 . S
C313 C312 1.377 . S
C313 C314 1.379 . S
C314 H298 0.931 . S
C314 C308 1.383 . S
C314 C313 1.379 . S
H315 C309 0.959 . S
H316 C309 0.961 . S
H317 C309 0.960 . S
H318 C310 0.930 . S
H319 C311 0.929 . S
H320 C328 0.929 . S
H321 C330 0.930 . S
H322 C332 0.930 . S
H323 C335 0.929 . S
H324 C338 0.930 . S
H325 C340 0.960 . S
H326 C340 0.960 . S
H327 C340 0.960 . S
C328 H320 0.929 . S
C328 C329 1.377 . S
C328 C330 1.384 . S
C329 C328 1.377 . S
C329 C335 1.390 . S
C330 H321 0.930 . S
C330 C328 1.384 . S
C330 C331 1.372 . S
C331 C330 1.372 . S
C331 C332 1.400 . S
C331 C336 1.490 . S
C332 H322 0.930 . S
C332 C331 1.400 . S
C332 C335 1.386 . S
H333 C349 0.930 . S
H334 C350 0.931 . S
C335 H323 0.929 . S
C335 C329 1.390 . S
C335 C332 1.386 . S
C336 C331 1.490 . S
C336 C338 1.395 . S
C336 C339 1.403 . S
H337 C343 0.930 . S
C338 H324 0.930 . S
C338 C336 1.395 . S
C338 C341 1.403 . S
C339 C336 1.403 . S
C339 C340 1.524 . S
C339 C343 1.400 . S
C340 H325 0.960 . S
C340 H326 0.960 . S
C340 H327 0.960 . S
C340 C339 1.524 . S
C341 C338 1.403 . S
C341 C342 1.392 . S
C341 C345 1.495 . S
C342 C341 1.392 . S
C342 C343 1.385 . S
C342 C344 1.478 . S
C343 H337 0.930 . S
C343 C339 1.400 . S
C343 C342 1.385 . S
C344 C342 1.478 . S
C344 C346 1.381 . S
C344 C350 1.383 . S
C345 C341 1.495 . S
C345 H351 0.959 . S
C345 H352 0.961 . S
C345 H353 0.960 . S
C346 C344 1.381 . S
C346 C347 1.394 . S
C346 H354 0.930 . S
C347 C346 1.394 . S
C347 C348 1.383 . S
C347 H355 0.929 . S
C348 C347 1.383 . S
C348 C349 1.377 . S
C349 H333 0.930 . S
C349 C348 1.377 . S
C349 C350 1.379 . S
C350 H334 0.931 . S
C350 C344 1.383 . S
C350 C349 1.379 . S
H351 C345 0.959 . S
H352 C345 0.961 . S
H353 C345 0.960 . S
H354 C346 0.930 . S
H355 C347 0.929 . S
H356 C364 0.929 . S
H357 C366 0.930 . S
H358 C368 0.930 . S
H359 C371 0.929 . S
H360 C374 0.930 . S
H361 C376 0.960 1_554 S
H362 C376 0.960 . S
H363 C376 0.960 . S
C364 H356 0.929 . S
C364 C365 1.377 . S
C364 C366 1.384 . S
C365 C364 1.377 . S
C365 C371 1.390 . S
C366 H357 0.930 . S
C366 C364 1.384 . S
C366 C367 1.372 . S
C367 C366 1.372 . S
C367 C368 1.400 . S
C367 C372 1.490 . S
C368 H358 0.930 . S
C368 C367 1.400 . S
C368 C371 1.386 . S
H369 C385 0.930 . S
H370 C386 0.931 . S
C371 H359 0.929 . S
C371 C365 1.390 . S
C371 C368 1.386 . S
C372 C367 1.490 . S
C372 C374 1.395 . S
C372 C375 1.403 . S
H373 C379 0.930 . S
C374 H360 0.930 . S
C374 C372 1.395 . S
C374 C377 1.403 1_556 S
C375 C372 1.403 . S
C375 C376 1.524 . S
C375 C379 1.400 1_556 S
C376 H361 0.960 1_556 S
C376 H362 0.960 . S
C376 H363 0.960 . S
C376 C375 1.524 . S
C377 C374 1.403 1_554 S
C377 C378 1.392 . S
C377 C381 1.495 . S
C378 C377 1.392 . S
C378 C379 1.385 . S
C378 C380 1.478 . S
C379 H373 0.930 . S
C379 C375 1.400 1_554 S
C379 C378 1.385 . S
C380 C378 1.478 . S
C380 C382 1.381 . S
C380 C386 1.383 . S
C381 C377 1.495 . S
C381 H387 0.959 1_554 S
C381 H388 0.961 . S
C381 H389 0.960 . S
C382 C380 1.381 . S
C382 C383 1.394 . S
C382 H390 0.930 . S
C383 C382 1.394 . S
C383 C384 1.383 . S
C383 H391 0.929 . S
C384 C383 1.383 . S
C384 C385 1.377 . S
C385 H369 0.930 . S
C385 C384 1.377 . S
C385 C386 1.379 . S
C386 H370 0.931 . S
C386 C380 1.383 . S
C386 C385 1.379 . S
H387 C381 0.959 1_556 S
H388 C381 0.961 . S
H389 C381 0.960 . S
H390 C382 0.930 . S
H391 C383 0.929 . S
H392 C400 0.929 . S
H393 C402 0.930 . S
H394 C404 0.930 . S
H395 C407 0.929 . S
H396 C410 0.930 . S
H397 C412 0.960 . S
H398 C412 0.960 . S
H399 C412 0.960 . S
C400 H392 0.929 . S
C400 C401 1.377 . S
C400 C402 1.384 . S
C401 C400 1.377 . S
C401 C407 1.390 . S
C402 H393 0.930 . S
C402 C400 1.384 . S
C402 C403 1.372 . S
C403 C402 1.372 . S
C403 C404 1.400 . S
C403 C408 1.490 . S
C404 H394 0.930 . S
C404 C403 1.400 . S
C404 C407 1.386 . S
H405 C421 0.930 . S
H406 C422 0.931 . S
C407 H395 0.929 . S
C407 C401 1.390 . S
C407 C404 1.386 . S
C408 C403 1.490 . S
C408 C410 1.395 . S
C408 C411 1.403 . S
H409 C415 0.930 . S
C410 H396 0.930 . S
C410 C408 1.395 . S
C410 C413 1.403 . S
C411 C408 1.403 . S
C411 C412 1.524 . S
C411 C415 1.400 . S
C412 H397 0.960 . S
C412 H398 0.960 . S
C412 H399 0.960 . S
C412 C411 1.524 . S
C413 C410 1.403 . S
C413 C414 1.392 . S
C413 C417 1.495 . S
C414 C413 1.392 . S
C414 C415 1.385 . S
C414 C416 1.478 . S
C415 H409 0.930 . S
C415 C411 1.400 . S
C415 C414 1.385 . S
C416 C414 1.478 . S
C416 C418 1.381 . S
C416 C422 1.383 . S
C417 C413 1.495 . S
C417 H423 0.959 . S
C417 H424 0.961 . S
C417 H425 0.960 . S
C418 C416 1.381 . S
C418 C419 1.394 . S
C418 H426 0.930 . S
C419 C418 1.394 . S
C419 C420 1.383 . S
C419 H427 0.929 . S
C420 C419 1.383 . S
C420 C421 1.377 . S
C421 H405 0.930 . S
C421 C420 1.377 . S
C421 C422 1.379 . S
C422 H406 0.931 . S
C422 C416 1.383 . S
C422 C421 1.379 . S
H423 C417 0.959 . S
H424 C417 0.961 . S
H425 C417 0.960 . S
H426 C418 0.930 . S
H427 C419 0.929 . S
H428 C436 0.929 . S
H429 C438 0.930 . S
H430 C440 0.930 . S
H431 C443 0.929 . S
H432 C446 0.930 . S
H433 C448 0.960 . S
H434 C448 0.960 . S
H435 C448 0.960 . S
C436 H428 0.929 . S
C436 C437 1.377 . S
C436 C438 1.384 . S
C437 C436 1.377 . S
C437 C443 1.390 . S
C438 H429 0.930 . S
C438 C436 1.384 . S
C438 C439 1.372 . S
C439 C438 1.372 . S
C439 C440 1.400 . S
C439 C444 1.490 . S
C440 H430 0.930 . S
C440 C439 1.400 . S
C440 C443 1.386 . S
H441 C457 0.930 . S
H442 C458 0.931 . S
C443 H431 0.929 . S
C443 C437 1.390 . S
C443 C440 1.386 . S
C444 C439 1.490 . S
C444 C446 1.395 . S
C444 C447 1.403 . S
H445 C451 0.930 . S
C446 H432 0.930 . S
C446 C444 1.395 . S
C446 C449 1.403 . S
C447 C444 1.403 . S
C447 C448 1.524 . S
C447 C451 1.400 . S
C448 H433 0.960 . S
C448 H434 0.960 . S
C448 H435 0.960 . S
C448 C447 1.524 . S
C449 C446 1.403 . S
C449 C450 1.392 . S
C449 C453 1.495 . S
C450 C449 1.392 . S
C450 C451 1.385 . S
C450 C452 1.478 . S
C451 H445 0.930 . S
C451 C447 1.400 . S
C451 C450 1.385 . S
C452 C450 1.478 . S
C452 C454 1.381 . S
C452 C458 1.383 . S
C453 C449 1.495 . S
C453 H459 0.959 . S
C453 H460 0.961 . S
C453 H461 0.960 . S
C454 C452 1.381 . S
C454 C455 1.394 1_565 S
C454 H462 0.930 . S
C455 C454 1.394 1_545 S
C455 C456 1.383 . S
C455 H463 0.929 . S
C456 C455 1.383 . S
C456 C457 1.377 . S
C457 H441 0.930 . S
C457 C456 1.377 . S
C457 C458 1.379 1_545 S
C458 H442 0.931 . S
C458 C452 1.383 . S
C458 C457 1.379 1_565 S
H459 C453 0.959 . S
H460 C453 0.961 . S
H461 C453 0.960 . S
H462 C454 0.930 . S
H463 C455 0.929 . S
H464 C472 0.929 . S
H465 C474 0.930 . S
H466 C476 0.930 . S
H467 C479 0.929 . S
H468 C482 0.930 . S
H469 C484 0.960 . S
H470 C484 0.960 . S
H471 C484 0.960 . S
C472 H464 0.929 . S
C472 C473 1.377 . S
C472 C474 1.384 . S
C473 C472 1.377 . S
C473 C479 1.390 . S
C474 H465 0.930 . S
C474 C472 1.384 . S
C474 C475 1.372 . S
C475 C474 1.372 . S
C475 C476 1.400 . S
C475 C480 1.490 . S
C476 H466 0.930 . S
C476 C475 1.400 . S
C476 C479 1.386 . S
H477 C493 0.930 . S
H478 C494 0.931 . S
C479 H467 0.929 . S
C479 C473 1.390 . S
C479 C476 1.386 . S
C480 C475 1.490 . S
C480 C482 1.395 . S
C480 C483 1.403 . S
H481 C487 0.930 . S
C482 H468 0.930 . S
C482 C480 1.395 . S
C482 C485 1.403 . S
C483 C480 1.403 . S
C483 C484 1.524 . S
C483 C487 1.400 . S
C484 H469 0.960 . S
C484 H470 0.960 . S
C484 H471 0.960 . S
C484 C483 1.524 . S
C485 C482 1.403 . S
C485 C486 1.392 . S
C485 C489 1.495 . S
C486 C485 1.392 . S
C486 C487 1.385 . S
C486 C488 1.478 . S
C487 H481 0.930 . S
C487 C483 1.400 . S
C487 C486 1.385 . S
C488 C486 1.478 . S
C488 C490 1.381 . S
C488 C494 1.383 . S
C489 C485 1.495 . S
C489 H495 0.959 . S
C489 H496 0.961 . S
C489 H497 0.960 . S
C490 C488 1.381 . S
C490 C491 1.394 . S
C490 H498 0.930 . S
C491 C490 1.394 . S
C491 C492 1.383 . S
C491 H499 0.929 . S
C492 C491 1.383 . S
C492 C493 1.377 . S
C493 H477 0.930 . S
C493 C492 1.377 . S
C493 C494 1.379 . S
C494 H478 0.931 . S
C494 C488 1.383 . S
C494 C493 1.379 . S
H495 C489 0.959 . S
H496 C489 0.961 . S
H497 C489 0.960 . S
H498 C490 0.930 . S
H499 C491 0.929 . S
H500 C508 0.929 . S
H501 C510 0.930 . S
H502 C512 0.930 . S
H503 C515 0.929 . S
H504 C518 0.930 . S
H505 C520 0.960 . S
H506 C520 0.960 . S
H507 C520 0.960 . S
C508 H500 0.929 . S
C508 C509 1.377 . S
C508 C510 1.384 . S
C509 C508 1.377 . S
C509 C515 1.390 . S
C510 H501 0.930 . S
C510 C508 1.384 . S
C510 C511 1.372 . S
C511 C510 1.372 . S
C511 C512 1.400 . S
C511 C516 1.490 . S
C512 H502 0.930 . S
C512 C511 1.400 . S
C512 C515 1.386 . S
H513 C529 0.930 . S
H514 C530 0.931 . S
C515 H503 0.929 . S
C515 C509 1.390 . S
C515 C512 1.386 . S
C516 C511 1.490 . S
C516 C518 1.395 . S
C516 C519 1.403 . S
H517 C523 0.930 . S
C518 H504 0.930 . S
C518 C516 1.395 . S
C518 C521 1.403 . S
C519 C516 1.403 . S
C519 C520 1.524 . S
C519 C523 1.400 . S
C520 H505 0.960 . S
C520 H506 0.960 . S
C520 H507 0.960 . S
C520 C519 1.524 . S
C521 C518 1.403 . S
C521 C522 1.392 . S
C521 C525 1.495 . S
C522 C521 1.392 . S
C522 C523 1.385 . S
C522 C524 1.478 . S
C523 H517 0.930 . S
C523 C519 1.400 . S
C523 C522 1.385 . S
C524 C522 1.478 . S
C524 C526 1.381 . S
C524 C530 1.383 . S
C525 C521 1.495 . S
C525 H531 0.959 . S
C525 H532 0.961 . S
C525 H533 0.960 . S
C526 C524 1.381 . S
C526 C527 1.394 1_545 S
C526 H534 0.930 . S
C527 C526 1.394 1_565 S
C527 C528 1.383 . S
C527 H535 0.929 . S
C528 C527 1.383 . S
C528 C529 1.377 . S
C529 H513 0.930 . S
C529 C528 1.377 . S
C529 C530 1.379 1_565 S
C530 H514 0.931 . S
C530 C524 1.383 . S
C530 C529 1.379 1_545 S
H531 C525 0.959 . S
H532 C525 0.961 . S
H533 C525 0.960 . S
H534 C526 0.930 . S
H535 C527 0.929 . S
H536 C544 0.929 . S
H537 C546 0.930 . S
H538 C548 0.930 . S
H539 C551 0.929 . S
H540 C554 0.930 . S
H541 C556 0.960 . S
H542 C556 0.960 . S
H543 C556 0.960 . S
C544 H536 0.929 . S
C544 C545 1.377 . S
C544 C546 1.384 1_455 S
C545 C544 1.377 . S
C545 C551 1.390 . S
C546 H537 0.930 . S
C546 C544 1.384 1_655 S
C546 C547 1.372 . S
C547 C546 1.372 . S
C547 C548 1.400 . S
C547 C552 1.490 . S
C548 H538 0.930 . S
C548 C547 1.400 . S
C548 C551 1.386 1_655 S
H549 C565 0.930 . S
H550 C566 0.931 . S
C551 H539 0.929 . S
C551 C545 1.390 . S
C551 C548 1.386 1_455 S
C552 C547 1.490 . S
C552 C554 1.395 . S
C552 C555 1.403 . S
H553 C559 0.930 . S
C554 H540 0.930 . S
C554 C552 1.395 . S
C554 C557 1.403 . S
C555 C552 1.403 . S
C555 C556 1.524 . S
C555 C559 1.400 . S
C556 H541 0.960 . S
C556 H542 0.960 . S
C556 H543 0.960 . S
C556 C555 1.524 . S
C557 C554 1.403 . S
C557 C558 1.392 . S
C557 C561 1.495 . S
C558 C557 1.392 . S
C558 C559 1.385 . S
C558 C560 1.478 . S
C559 H553 0.930 . S
C559 C555 1.400 . S
C559 C558 1.385 . S
C560 C558 1.478 . S
C560 C562 1.381 . S
C560 C566 1.383 . S
C561 C557 1.495 . S
C561 H567 0.959 . S
C561 H568 0.961 . S
C561 H569 0.960 . S
C562 C560 1.381 . S
C562 C563 1.394 . S
C562 H570 0.930 . S
C563 C562 1.394 . S
C563 C564 1.383 . S
C563 H571 0.929 . S
C564 C563 1.383 . S
C564 C565 1.377 . S
C565 H549 0.930 . S
C565 C564 1.377 . S
C565 C566 1.379 . S
C566 H550 0.931 . S
C566 C560 1.383 . S
C566 C565 1.379 . S
H567 C561 0.959 . S
H568 C561 0.961 . S
H569 C561 0.960 . S
H570 C562 0.930 . S
H571 C563 0.929 . S
H572 C580 0.929 . S
H573 C582 0.930 . S
H574 C584 0.930 . S
H575 C587 0.929 . S
H576 C590 0.930 . S
H577 C592 0.960 . S
H578 C592 0.960 . S
H579 C592 0.960 . S
C580 H572 0.929 . S
C580 C581 1.377 . S
C580 C582 1.384 . S
C581 C580 1.377 . S
C581 C587 1.390 . S
C582 H573 0.930 . S
C582 C580 1.384 . S
C582 C583 1.372 . S
C583 C582 1.372 . S
C583 C584 1.400 . S
C583 C588 1.490 . S
C584 H574 0.930 . S
C584 C583 1.400 . S
C584 C587 1.386 . S
H585 C601 0.930 . S
H586 C602 0.931 . S
C587 H575 0.929 . S
C587 C581 1.390 . S
C587 C584 1.386 . S
C588 C583 1.490 . S
C588 C590 1.395 . S
C588 C591 1.403 . S
H589 C595 0.930 . S
C590 H576 0.930 . S
C590 C588 1.395 . S
C590 C593 1.403 . S
C591 C588 1.403 . S
C591 C592 1.524 . S
C591 C595 1.400 . S
C592 H577 0.960 . S
C592 H578 0.960 . S
C592 H579 0.960 . S
C592 C591 1.524 . S
C593 C590 1.403 . S
C593 C594 1.392 . S
C593 C597 1.495 . S
C594 C593 1.392 . S
C594 C595 1.385 . S
C594 C596 1.478 . S
C595 H589 0.930 . S
C595 C591 1.400 . S
C595 C594 1.385 . S
C596 C594 1.478 . S
C596 C598 1.381 . S
C596 C602 1.383 . S
C597 C593 1.495 . S
C597 H603 0.959 . S
C597 H604 0.961 . S
C597 H605 0.960 . S
C598 C596 1.381 . S
C598 C599 1.394 . S
C598 H606 0.930 . S
C599 C598 1.394 . S
C599 C600 1.383 . S
C599 H607 0.929 . S
C600 C599 1.383 . S
C600 C601 1.377 . S
C601 H585 0.930 . S
C601 C600 1.377 . S
C601 C602 1.379 . S
C602 H586 0.931 . S
C602 C596 1.383 . S
C602 C601 1.379 . S
H603 C597 0.959 . S
H604 C597 0.961 . S
H605 C597 0.960 . S
H606 C598 0.930 . S
H607 C599 0.929 . S
H608 C616 0.929 . S
H609 C618 0.930 . S
H610 C620 0.930 . S
H611 C623 0.929 . S
H612 C626 0.930 . S
H613 C628 0.960 . S
H614 C628 0.960 . S
H615 C628 0.960 . S
C616 H608 0.929 . S
C616 C617 1.377 . S
C616 C618 1.384 . S
C617 C616 1.377 . S
C617 C623 1.390 . S
C618 H609 0.930 . S
C618 C616 1.384 . S
C618 C619 1.372 . S
C619 C618 1.372 . S
C619 C620 1.400 . S
C619 C624 1.490 . S
C620 H610 0.930 . S
C620 C619 1.400 . S
C620 C623 1.386 . S
H621 C637 0.930 . S
H622 C638 0.931 . S
C623 H611 0.929 . S
C623 C617 1.390 . S
C623 C620 1.386 . S
C624 C619 1.490 . S
C624 C626 1.395 . S
C624 C627 1.403 . S
H625 C631 0.930 . S
C626 H612 0.930 . S
C626 C624 1.395 . S
C626 C629 1.403 . S
C627 C624 1.403 . S
C627 C628 1.524 . S
C627 C631 1.400 . S
C628 H613 0.960 . S
C628 H614 0.960 . S
C628 H615 0.960 . S
C628 C627 1.524 . S
C629 C626 1.403 . S
C629 C630 1.392 . S
C629 C633 1.495 . S
C630 C629 1.392 . S
C630 C631 1.385 . S
C630 C632 1.478 . S
C631 H625 0.930 . S
C631 C627 1.400 . S
C631 C630 1.385 . S
C632 C630 1.478 . S
C632 C634 1.381 . S
C632 C638 1.383 . S
C633 C629 1.495 . S
C633 H639 0.959 . S
C633 H640 0.961 . S
C633 H641 0.960 . S
C634 C632 1.381 . S
C634 C635 1.394 1_455 S
C634 H642 0.930 . S
C635 C634 1.394 1_655 S
C635 C636 1.383 . S
C635 H643 0.929 . S
C636 C635 1.383 . S
C636 C637 1.377 . S
C637 H621 0.930 . S
C637 C636 1.377 . S
C637 C638 1.379 1_655 S
C638 H622 0.931 . S
C638 C632 1.383 . S
C638 C637 1.379 1_455 S
H639 C633 0.959 . S
H640 C633 0.961 . S
H641 C633 0.960 . S
H642 C634 0.930 . S
H643 C635 0.929 . S
H644 C652 0.929 . S
H645 C654 0.930 . S
H646 C656 0.930 . S
H647 C659 0.929 . S
H648 C662 0.930 . S
H649 C664 0.960 . S
H650 C664 0.960 . S
H651 C664 0.960 . S
C652 H644 0.929 . S
C652 C653 1.377 . S
C652 C654 1.384 . S
C653 C652 1.377 . S
C653 C659 1.390 . S
C654 H645 0.930 . S
C654 C652 1.384 . S
C654 C655 1.372 . S
C655 C654 1.372 . S
C655 C656 1.400 . S
C655 C660 1.490 . S
C656 H646 0.930 . S
C656 C655 1.400 . S
C656 C659 1.386 . S
H657 C673 0.930 . S
H658 C674 0.931 . S
C659 H647 0.929 . S
C659 C653 1.390 . S
C659 C656 1.386 . S
C660 C655 1.490 . S
C660 C662 1.395 . S
C660 C663 1.403 . S
H661 C667 0.930 . S
C662 H648 0.930 . S
C662 C660 1.395 . S
C662 C665 1.403 . S
C663 C660 1.403 . S
C663 C664 1.524 . S
C663 C667 1.400 . S
C664 H649 0.960 . S
C664 H650 0.960 . S
C664 H651 0.960 . S
C664 C663 1.524 . S
C665 C662 1.403 . S
C665 C666 1.392 . S
C665 C669 1.495 . S
C666 C665 1.392 . S
C666 C667 1.385 . S
C666 C668 1.478 . S
C667 H661 0.930 . S
C667 C663 1.400 . S
C667 C666 1.385 . S
C668 C666 1.478 . S
C668 C670 1.381 . S
C668 C674 1.383 . S
C669 C665 1.495 . S
C669 H675 0.959 . S
C669 H676 0.961 . S
C669 H677 0.960 . S
C670 C668 1.381 . S
C670 C671 1.394 . S
C670 H678 0.930 . S
C671 C670 1.394 . S
C671 C672 1.383 . S
C671 H679 0.929 . S
C672 C671 1.383 . S
C672 C673 1.377 . S
C673 H657 0.930 . S
C673 C672 1.377 . S
C673 C674 1.379 . S
C674 H658 0.931 . S
C674 C668 1.383 . S
C674 C673 1.379 . S
H675 C669 0.959 . S
H676 C669 0.961 . S
H677 C669 0.960 . S
H678 C670 0.930 . S
H679 C671 0.929 . S
C113 C5 0.600 . S
C132 C31 0.525 . S
C149 C18 0.595 . S
C168 C44 0.530 . S
C185 C57 0.600 . S
C204 C83 0.525 . S
C221 C70 0.604 . S
C240 C96 0.693 . S
C257 C8 1.317 . S
C276 C73 1.310 . S
C293 C21 1.323 . S
C312 C86 1.281 . S
C329 C99 1.323 . S
C348 C34 1.283 . S
C365 C47 1.309 . S
C384 C60 1.353 . S
C401 C62 1.439 . S
C420 C0 1.469 . S
C437 C13 1.469 . S
C456 C75 1.442 . S
C473 C26 1.470 . S
C492 C88 1.455 . S
C509 C39 1.474 . S
C528 C101 1.457 . S
C545 C10 1.446 . S
C564 C52 1.458 . S
C581 C65 1.474 . S
C600 C23 1.460 . S
C617 C78 1.472 . S
C636 C36 1.419 . S
C653 C49 1.439 . S
C672 C91 1.461 . S
