# Generated by pormake.
# Topology snz, (6)-cn, num edge types: 1
# Building blocks:
#     Node 0, Type 0, BuildingBlock: KUMJIN_clean_sbu_1, # of connection points: 6
#     Node 1, Type 0, BuildingBlock: KUMJIN_clean_sbu_1, # of connection points: 6
#     Node 2, Type 0, BuildingBlock: KUMJIN_clean_sbu_1, # of connection points: 6
#     Node 3, Type 0, BuildingBlock: KUMJIN_clean_sbu_1, # of connection points: 6
#     Node 4, Type 0, BuildingBlock: KUMJIN_clean_sbu_1, # of connection points: 6
#     Node 5, Type 0, BuildingBlock: KUMJIN_clean_sbu_1, # of connection points: 6
#     Node 6, Type 0, BuildingBlock: KUMJIN_clean_sbu_1, # of connection points: 6
#     Node 7, Type 0, BuildingBlock: KUMJIN_clean_sbu_1, # of connection points: 6
#     Node 8, Type 0, BuildingBlock: KUMJIN_clean_sbu_1, # of connection points: 6
#     Edge 9, Type (0, 0), BuildingBlock: TEMPAE_clean_linker_10, # of connection points: 2
#     Edge 10, Type (0, 0), BuildingBlock: TEMPAE_clean_linker_10, # of connection points: 2
#     Edge 11, Type (0, 0), BuildingBlock: TEMPAE_clean_linker_10, # of connection points: 2
#     Edge 12, Type (0, 0), BuildingBlock: TEMPAE_clean_linker_10, # of connection points: 2
#     Edge 13, Type (0, 0), BuildingBlock: TEMPAE_clean_linker_10, # of connection points: 2
#     Edge 14, Type (0, 0), BuildingBlock: TEMPAE_clean_linker_10, # of connection points: 2
#     Edge 15, Type (0, 0), BuildingBlock: TEMPAE_clean_linker_10, # of connection points: 2
#     Edge 16, Type (0, 0), BuildingBlock: TEMPAE_clean_linker_10, # of connection points: 2
#     Edge 17, Type (0, 0), BuildingBlock: TEMPAE_clean_linker_10, # of connection points: 2
#     Edge 18, Type (0, 0), BuildingBlock: TEMPAE_clean_linker_10, # of connection points: 2
#     Edge 19, Type (0, 0), BuildingBlock: TEMPAE_clean_linker_10, # of connection points: 2
#     Edge 20, Type (0, 0), BuildingBlock: TEMPAE_clean_linker_10, # of connection points: 2
#     Edge 21, Type (0, 0), BuildingBlock: TEMPAE_clean_linker_10, # of connection points: 2
#     Edge 22, Type (0, 0), BuildingBlock: TEMPAE_clean_linker_10, # of connection points: 2
#     Edge 23, Type (0, 0), BuildingBlock: TEMPAE_clean_linker_10, # of connection points: 2
#     Edge 24, Type (0, 0), BuildingBlock: TEMPAE_clean_linker_10, # of connection points: 2
#     Edge 25, Type (0, 0), BuildingBlock: TEMPAE_clean_linker_10, # of connection points: 2
#     Edge 26, Type (0, 0), BuildingBlock: TEMPAE_clean_linker_10, # of connection points: 2
#     Edge 27, Type (0, 0), BuildingBlock: TEMPAE_clean_linker_10, # of connection points: 2
#     Edge 28, Type (0, 0), BuildingBlock: TEMPAE_clean_linker_10, # of connection points: 2
#     Edge 29, Type (0, 0), BuildingBlock: TEMPAE_clean_linker_10, # of connection points: 2
#     Edge 30, Type (0, 0), BuildingBlock: TEMPAE_clean_linker_10, # of connection points: 2
#     Edge 31, Type (0, 0), BuildingBlock: TEMPAE_clean_linker_10, # of connection points: 2
#     Edge 32, Type (0, 0), BuildingBlock: TEMPAE_clean_linker_10, # of connection points: 2
#     Edge 33, Type (0, 0), BuildingBlock: TEMPAE_clean_linker_10, # of connection points: 2
#     Edge 34, Type (0, 0), BuildingBlock: TEMPAE_clean_linker_10, # of connection points: 2
#     Edge 35, Type (0, 0), BuildingBlock: TEMPAE_clean_linker_10, # of connection points: 2
# Relax obj value: 0.241
# Max RMSD: 0.166
# Mean RMSD: 0.113
data_MOF--net-snz--node1-KUMJIN_clean_sbu_1--edge1-TEMPAE_clean_linker_10
_symmetry_space_group_name_H-M    P1
_symmetry_Int_Tables_number       1
_symmetry_cell_setting            triclinic
loop_
_symmetry_equiv_pos_as_xyz
'x, y, z'
_cell_length_a     67.112921
_cell_length_b     54.117094
_cell_length_c     17.030944
_cell_angle_alpha  96.405665
_cell_angle_beta   95.667813
_cell_angle_gamma 120.93821
loop_
_atom_site_label
_atom_site_type_symbol
_atom_site_fract_x
_atom_site_fract_y
_atom_site_fract_z
_atom_type_partial_charge
Eu0 Eu 0.03133 0.50304 0.15616 0.0
C1 C 0.13592 0.53357 0.12584 0.0
N2 N 0.1153 0.50765 0.09632 0.0
C3 C 0.13082 0.49995 0.98145 0.0
C4 C 0.15472 0.54407 0.08277 0.0
C5 C 0.11274 0.49036 1.02641 0.0
C6 C 0.15181 0.52707 1.00929 0.0
C7 C 0.16023 0.57536 0.23474 0.0
C8 C 0.13866 0.54896 0.20113 0.0
C9 C 0.17865 0.58645 0.19069 0.0
C10 C 0.17592 0.57082 0.11498 0.0
Eu11 Eu 0.08486 0.4948 0.17211 0.0
N12 N 0.1205 0.53773 0.2424 0.0
C13 C 0.1628 0.58963 0.31223 0.0
C14 C 0.12342 0.55081 0.31971 0.0
C15 C 0.14443 0.57709 0.35521 0.0
H16 H 0.0966 0.46919 1.00519 0.0
H17 H 0.14637 0.58776 0.41558 0.0
H18 H 0.01873 0.52693 0.32438 0.0
H19 H 0.96985 0.41563 0.90093 0.0
H20 H 0.10934 0.54182 0.35348 0.0
H21 H 0.17904 0.61003 0.33992 0.0
H22 H 0.00735 0.46003 0.96955 0.0
H23 H 0.12859 0.48639 0.92548 0.0
H24 H 0.19525 0.60682 0.21531 0.0
H25 H 0.19046 0.57936 0.08243 0.0
H26 H 0.98609 0.50853 0.40135 0.0
H27 H 0.16584 0.5344 0.97445 0.0
H28 H 0.93666 0.39188 0.97375 0.0
N29 N 1.00065 0.4891 0.23117 0.0
C30 C 0.98001 0.46347 0.19872 0.0
C31 C 0.98423 0.49555 0.3448 0.0
C32 C 0.96081 0.45243 0.23994 0.0
C33 C 1.00268 0.50581 0.30141 0.0
C34 C 0.96333 0.46853 0.31456 0.0
N35 N 0.99588 0.4613 0.08137 0.0
C36 C 0.99306 0.45015 1.0022 0.0
C37 C 0.95564 0.42392 0.0841 0.0
C38 C 0.97745 0.44939 0.12141 0.0
C39 C 0.9531 0.41149 1.00434 0.0
C40 C 0.97178 0.42488 0.96295 0.0
H41 H 0.949 0.46074 0.34807 0.0
H42 H 0.92466 0.41728 0.23557 0.0
H43 H 0.92017 0.3923 0.09933 0.0
O44 O 0.04096 0.54333 0.10987 0.0
O45 O 0.02383 0.45625 0.14641 0.0
O46 O 0.05263 0.45764 0.08378 0.0
O47 O 0.00599 0.51664 0.13548 0.0
O48 O 0.04455 0.5046 1.02882 0.0
O49 O 0.07195 0.4908 1.03221 0.0
O50 O 0.10789 0.47721 0.18616 0.0
O51 O 0.0922 0.54169 0.17672 0.0
O52 O 0.06388 0.54028 0.24221 0.0
O53 O 0.07485 0.45649 0.2285 0.0
O54 O 0.07326 0.49633 0.30148 0.0
O55 O 0.04199 0.50338 0.29483 0.0
C56 C 0.0312 0.4429 0.09934 0.0
C57 C 0.02079 0.56709 0.14868 0.0
C58 C 0.00629 0.60039 0.1416 0.0
C59 C 0.01952 0.6156 0.21915 0.0
C60 C 0.03338 0.58232 0.22624 0.0
C61 C 0.03294 0.60661 0.26086 0.0
C62 C 0.00718 0.57608 0.1066 0.0
C63 C 0.05842 0.49824 0.99004 0.0
C64 C 0.02062 0.54079 0.11311 0.0
C65 C 0.9395 0.42627 0.20439 0.0
C66 C 0.93692 0.41206 0.12671 0.0
C67 C 0.08449 0.55546 0.22094 0.0
C68 C 0.10619 0.45385 0.298 0.0
C69 C 0.12287 0.42925 0.3689 0.0
C70 C 0.12657 0.44756 0.44117 0.0
C71 C 0.11066 0.47206 0.37129 0.0
C72 C 0.11267 0.43256 0.29674 0.0
C73 C 0.12068 0.46885 0.44217 0.0
C74 C 0.05759 0.49942 0.33862 0.0
C75 C 0.09439 0.45692 0.22407 0.0
H76 H 0.01908 0.63407 0.24858 0.0
H77 H 0.0432 0.57507 0.26029 0.0
H78 H 0.04274 0.61826 0.32086 0.0
H79 H 0.99732 0.56412 1.04678 0.0
H80 H 0.13432 0.44557 0.49718 0.0
H81 H 0.10627 0.48873 0.37381 0.0
H82 H 0.10946 0.41844 0.24053 0.0
H83 H 0.12384 0.48292 0.49836 0.0
Eu84 Eu 0.54095 0.51494 1.01149 0.0
C85 C 0.61144 0.47315 0.11887 0.0
N86 N 0.61541 0.50067 0.13268 0.0
C87 C 0.63982 0.51179 0.26014 0.0
C88 C 0.62106 0.46358 0.17681 0.0
C89 C 0.63007 0.52035 0.20068 0.0
C90 C 0.63505 0.48316 0.24864 0.0
C91 C 0.59606 0.42726 1.02616 0.0
C92 C 0.59914 0.45523 1.04429 0.0
C93 C 0.60454 0.41707 0.08521 0.0
C94 C 0.61704 0.4352 0.1603 0.0
Eu95 Eu 0.59618 0.51198 1.03206 0.0
N96 N 0.59143 0.46583 0.98792 0.0
C97 C 0.5852 0.41073 0.94839 0.0
C98 C 0.58234 0.45066 0.91049 0.0
C99 C 0.57866 0.42269 0.89002 0.0
H100 H 0.63365 0.54245 0.20995 0.0
H101 H 0.57073 0.41034 0.82927 0.0
H102 H 0.50801 0.47853 0.82797 0.0
H103 H 0.5417 0.60305 0.20416 0.0
H104 H 0.57704 0.45955 0.865 0.0
H105 H 0.58241 0.3891 0.93223 0.0
H106 H 0.54671 0.56096 0.17274 0.0
H107 H 0.65098 0.52725 0.3148 0.0
H108 H 0.60212 0.39553 0.07261 0.0
H109 H 0.62408 0.42736 0.2044 0.0
H110 H 0.48722 0.48638 0.71465 0.0
H111 H 0.64274 0.47663 0.29464 0.0
H112 H 0.5266 0.61898 0.09472 0.0
N113 N 0.51844 0.51887 0.90305 0.0
C114 C 0.51693 0.54304 0.91241 0.0
C115 C 0.49556 0.50254 0.76986 0.0
C116 C 0.50501 0.54827 0.84983 0.0
C117 C 0.50726 0.4981 0.83418 0.0
C118 C 0.49468 0.52792 0.77731 0.0
N119 N 0.53553 0.55423 1.04708 0.0
C120 C 0.54017 0.5679 0.1248 0.0
C121 C 0.52236 0.58494 1.00193 0.0
C122 C 0.52567 0.56126 0.98708 0.0
C123 C 0.52888 0.60065 0.0807 0.0
C124 C 0.53733 0.59167 0.14268 0.0
H125 H 0.48543 0.53118 0.72766 0.0
H126 H 0.49416 0.57755 0.81508 0.0
H127 H 0.50922 0.60958 0.94861 0.0
O128 O 0.52229 0.47796 0.07234 0.0
O129 O 0.57346 0.56127 1.0543 0.0
O130 O 0.60454 0.55621 0.09977 0.0
O131 O 0.50432 0.49826 1.02315 0.0
O132 O 0.55448 0.5186 0.15091 0.0
O133 O 0.58853 0.51742 0.16538 0.0
O134 O 0.62038 0.54761 0.97496 0.0
O135 O 0.56059 0.46809 1.01749 0.0
O136 O 0.53718 0.47549 0.93187 0.0
O137 O 0.63092 0.51946 1.02039 0.0
O138 O 0.58276 0.50837 0.8925 0.0
O139 O 0.55414 0.51992 0.88481 0.0
C140 C 0.59539 0.57245 0.09049 0.0
C141 C 0.48054 0.4486 1.03511 0.0
C142 C 0.44442 0.40898 0.06875 0.0
C143 C 0.43825 0.39383 0.98886 0.0
C144 C 0.47374 0.4334 0.95574 0.0
C145 C 0.45275 0.40605 0.93295 0.0
C146 C 0.46585 0.43649 0.09125 0.0
C147 C 0.57147 0.51815 0.19882 0.0
C148 C 0.50253 0.47751 0.06006 0.0
C149 C 0.50305 0.57298 0.86266 0.0
C150 C 0.51166 0.59125 0.93867 0.0
C151 C 0.54187 0.45728 0.96092 0.0
C152 C 0.66149 0.56795 1.02026 0.0
C153 C 0.70334 0.59864 1.00887 0.0
C154 C 0.70773 0.6143 0.08705 0.0
C155 C 0.66651 0.58428 0.09723 0.0
C156 C 0.67989 0.57526 0.97598 0.0
C157 C 0.68947 0.60732 0.13019 0.0
C158 C 0.56887 0.5148 0.84824 0.0
C159 C 0.63737 0.54246 0.98761 0.0
H160 H 0.42224 0.3724 0.96936 0.0
H161 H 0.48457 0.44279 0.91152 0.0
H162 H 0.44764 0.3943 0.8716 0.0
H163 H 0.47093 0.44894 0.15186 0.0
H164 H 0.72542 0.63175 0.11599 0.0
H165 H 0.65269 0.57911 0.13205 0.0
H166 H 0.67583 0.56276 0.91613 0.0
H167 H 0.6932 0.61967 0.18998 0.0
Eu168 Eu 0.59377 0.11222 0.94722 0.0
C169 C 0.51451 0.97596 0.78126 0.0
N170 N 0.51401 1.0008 0.78557 0.0
C171 C 0.48837 0.98187 0.65701 0.0
C172 C 0.5022 0.95312 0.71343 0.0
C173 C 0.50069 1.00378 0.72591 0.0
C174 C 0.48933 0.95654 0.65033 0.0
C175 C 0.52551 0.94626 0.84764 0.0
C176 C 0.52607 0.97265 0.84723 0.0
C177 C 0.51424 0.92394 0.77882 0.0
C178 C 0.5026 0.92736 0.71182 0.0
Eu179 Eu 0.53733 0.03816 0.89952 0.0
N180 N 0.53643 0.99445 0.91308 0.0
C181 C 0.53554 0.94269 0.9182 0.0
C182 C 0.54459 0.99016 0.98381 0.0
C183 C 0.54474 0.96454 0.98701 0.0
H184 H 0.50001 0.02341 0.73091 0.0
H185 H 0.55198 0.96169 1.04252 0.0
H186 H 0.62711 0.12986 0.12784 0.0
H187 H 0.57826 0.18265 0.776 0.0
H188 H 0.55172 0.00686 1.03738 0.0
H189 H 0.53557 0.9228 0.92094 0.0
H190 H 0.57806 0.13821 0.79558 0.0
H191 H 0.47817 0.98454 0.60915 0.0
H192 H 0.51383 0.90362 0.77768 0.0
H193 H 0.49344 0.90966 0.65997 0.0
H194 H 0.64739 0.17116 0.24417 0.0
H195 H 0.47966 0.93952 0.59711 0.0
H196 H 0.59525 0.22486 0.88873 0.0
N197 N 0.61517 0.15147 0.05791 0.0
C198 C 0.61519 0.17629 1.05252 0.0
C199 C 0.63837 0.17288 0.19072 0.0
C200 C 0.62661 0.20044 0.11716 0.0
C201 C 0.62693 0.1496 0.12488 0.0
C202 C 0.63806 0.19835 0.18712 0.0
N203 N 0.59457 0.15467 0.91893 0.0
C204 C 0.58579 0.15647 0.84527 0.0
C205 C 0.60515 0.20392 0.9721 0.0
C206 C 0.60463 0.17798 0.98088 0.0
C207 C 0.59526 0.20536 0.89779 0.0
C208 C 0.58573 0.18162 0.83395 0.0
H209 H 0.647 0.2164 0.23812 0.0
H210 H 0.63512 0.2447 0.15862 0.0
H211 H 0.61631 0.24774 1.03161 0.0
O212 O 0.6141 0.09907 0.87929 0.0
O213 O 0.55968 0.11387 0.93413 0.0
O214 O 0.53368 0.07208 0.84323 0.0
O215 O 0.63182 0.14246 0.95238 0.0
O216 O 0.58208 0.09665 0.80362 0.0
O217 O 0.54639 0.0523 0.7728 0.0
O218 O 0.51934 0.05135 0.97848 0.0
O219 O 0.57155 0.03813 0.90888 0.0
O220 O 0.59518 0.0778 1.00747 0.0
O221 O 0.50086 0.00684 0.90842 0.0
O222 O 0.55047 0.05181 1.04324 0.0
O223 O 0.58179 0.09996 0.07342 0.0
C224 C 0.53985 0.09817 0.88069 0.0
C225 C 0.65462 0.12039 0.93861 0.0
C226 C 0.69248 0.12359 0.92844 0.0
C227 C 0.69088 0.11193 0.99906 0.0
C228 C 0.65418 0.10934 1.00943 0.0
C229 C 0.67203 0.10502 1.03902 0.0
C230 C 0.67412 0.12796 0.8984 0.0
C231 C 0.56451 0.07437 0.7476 0.0
C232 C 0.63449 0.12347 0.9077 0.0
C233 C 0.62658 0.22599 0.10945 0.0
C234 C 0.61587 0.22772 1.03711 0.0
C235 C 0.58906 0.05177 0.9704 0.0
C236 C 0.47754 0.02572 0.9458 0.0
C237 C 0.44162 0.01746 0.99272 0.0
C238 C 0.43558 0.02563 0.92273 0.0
C239 C 0.47087 0.03303 0.87593 0.0
C240 C 0.46286 0.01773 1.00358 0.0
C241 C 0.45002 0.03308 0.86466 0.0
C242 C 0.56556 0.07606 0.09907 0.0
C243 C 0.4995 0.02571 0.95906 0.0
H244 H 0.70454 0.10853 1.02448 0.0
H245 H 0.63997 0.10402 1.04226 0.0
H246 H 0.67129 0.09632 0.09365 0.0
H247 H 0.6748 0.13668 0.84382 0.0
H248 H 0.41972 0.02635 0.91266 0.0
H249 H 0.4817 0.03848 0.83011 0.0
H250 H 0.46784 0.01112 0.05607 0.0
H251 H 0.44498 0.03881 0.81054 0.0
Eu252 Eu 0.68934 0.85587 0.28123 0.0
C253 C 0.79691 0.90769 0.36045 0.0
N254 N 0.7804 0.89282 0.29214 0.0
C255 C 0.80614 0.92779 0.2179 0.0
C256 C 0.81825 0.93419 0.3608 0.0
C257 C 0.78517 0.90174 0.22054 0.0
C258 C 0.82256 0.94438 0.28858 0.0
C259 C 0.81098 0.90882 0.49835 0.0
C260 C 0.79331 0.89514 0.42849 0.0
C261 C 0.83134 0.93639 0.50096 0.0
C262 C 0.83498 0.94904 0.43224 0.0
Eu263 Eu 0.74475 0.85014 0.30485 0.0
N264 N 0.77368 0.8682 0.42363 0.0
C265 C 0.80828 0.89366 0.56188 0.0
C266 C 0.77214 0.85222 0.4822 0.0
C267 C 0.78909 0.86492 0.55284 0.0
H268 H 0.77265 0.88923 0.16549 0.0
H269 H 0.78733 0.85255 0.60023 0.0
H270 H 0.68465 0.89117 0.44578 0.0
H271 H 0.6164 0.76077 0.06868 0.0
H272 H 0.7574 0.82984 0.47508 0.0
H273 H 0.82146 0.9034 0.61649 0.0
H274 H 0.65517 0.80742 0.11038 0.0
H275 H 0.80958 0.93513 0.1614 0.0
H276 H 0.84488 0.94749 0.55465 0.0
H277 H 0.85123 0.96975 0.43407 0.0
H278 H 0.65803 0.88016 0.54547 0.0
H279 H 0.83876 0.96459 0.28635 0.0
H280 H 0.59017 0.74118 0.16763 0.0
N281 N 0.66348 0.84856 0.37324 0.0
C282 C 0.6428 0.82228 0.35883 0.0
C283 C 0.6536 0.86362 0.49347 0.0
C284 C 0.62698 0.81508 0.41322 0.0
C285 C 0.66853 0.86983 0.43703 0.0
C286 C 0.63293 0.8359 0.4823 0.0
N287 N 0.65138 0.81302 0.23242 0.0
C288 C 0.64383 0.79889 0.15395 0.0
C289 C 0.61412 0.77764 0.26463 0.0
C290 C 0.63652 0.80384 0.28581 0.0
C291 C 0.60721 0.76148 0.18629 0.0
C292 C 0.62192 0.77253 0.13018 0.0
H293 H 0.62129 0.83121 0.52574 0.0
H294 H 0.59308 0.78183 0.43656 0.0
H295 H 0.58178 0.749 0.30614 0.0
O296 O 0.70135 0.89579 0.23137 0.0
O297 O 0.68717 0.81381 0.22446 0.0
O298 O 0.71011 0.81192 0.32555 0.0
O299 O 0.66528 0.87091 0.24887 0.0
O300 O 0.7004 0.85369 0.1525 0.0
O301 O 0.73307 0.84921 0.16541 0.0
O302 O 0.76993 0.83568 0.3108 0.0
O303 O 0.74797 0.89375 0.29376 0.0
O304 O 0.72191 0.89191 0.36981 0.0
O305 O 0.73845 0.81236 0.21993 0.0
O306 O 0.73236 0.84974 0.43271 0.0
O307 O 0.69905 0.85275 0.41904 0.0
C308 C 0.69185 0.79796 0.26673 0.0
C309 C 0.68211 0.92214 0.25109 0.0
C310 C 0.67119 0.95784 0.22326 0.0
C311 C 0.68688 0.97694 0.29381 0.0
C312 C 0.69733 0.94163 0.32167 0.0
C313 C 0.69966 0.96879 0.34272 0.0
C314 C 0.66874 0.93018 0.20232 0.0
C315 C 0.71679 0.85138 0.11853 0.0
C316 C 0.68119 0.8943 0.22606 0.0
C317 C 0.60535 0.78798 0.39507 0.0
C318 C 0.59892 0.76927 0.32082 0.0
C319 C 0.74267 0.90692 0.34984 0.0
C320 C 0.75266 0.78407 0.27338 0.0
C321 C 0.76612 0.75575 0.3396 0.0
C322 C 0.74411 0.7301 0.30775 0.0
C323 C 0.7311 0.75776 0.24045 0.0
C324 C 0.7704 0.78281 0.32195 0.0
C325 C 0.72688 0.73113 0.25813 0.0
C326 C 0.71548 0.85098 0.46634 0.0
C327 C 0.75663 0.81242 0.25535 0.0
H328 H 0.68913 0.99823 0.31138 0.0
H329 H 0.7077 0.93601 0.35997 0.0
H330 H 0.71161 0.98376 0.39699 0.0
H331 H 0.65699 0.91536 0.14749 0.0
H332 H 0.74042 0.70903 0.31978 0.0
H333 H 0.7174 0.75765 0.20084 0.0
H334 H 0.78735 0.80273 0.34644 0.0
H335 H 0.7102 0.71113 0.23297 0.0
Eu336 Eu 0.1831 0.841 0.43794 0.0
C337 C 0.25606 0.79958 0.53408 0.0
N338 N 0.25863 0.82621 0.5531 0.0
C339 C 0.28322 0.83629 0.67915 0.0
C340 C 0.2668 0.79002 0.58795 0.0
C341 C 0.27233 0.84487 0.62361 0.0
C342 C 0.28029 0.80864 0.66156 0.0
C343 C 0.24155 0.75528 0.43566 0.0
C344 C 0.24355 0.78242 0.45894 0.0
C345 C 0.2515 0.74518 0.49019 0.0
C346 C 0.26411 0.76251 0.56613 0.0
Eu347 Eu 0.23742 0.83742 0.46025 0.0
N348 N 0.23415 0.7928 0.40747 0.0
C349 C 0.23005 0.7394 0.35765 0.0
C350 C 0.22417 0.77825 0.32982 0.0
C351 C 0.22162 0.75114 0.30419 0.0
H352 H 0.27451 0.86623 0.63723 0.0
H353 H 0.21303 0.73924 0.24338 0.0
H354 H 0.14589 0.81392 0.25974 0.0
H355 H 0.21087 0.94119 0.65264 0.0
H356 H 0.21728 0.78687 0.28827 0.0
H357 H 0.22803 0.71838 0.33763 0.0
H358 H 0.20344 0.89173 0.6103 0.0
H359 H 0.29382 0.85097 0.73548 0.0
H360 H 0.24996 0.72426 0.47363 0.0
H361 H 0.27207 0.75468 0.60696 0.0
H362 H 0.12969 0.83177 0.15935 0.0
H363 H 0.2888 0.80208 0.70462 0.0
H364 H 0.19997 0.9647 0.55486 0.0
N365 N 0.16476 0.85479 0.34154 0.0
C366 C 0.16934 0.88253 0.35934 0.0
C367 C 0.14091 0.84631 0.21514 0.0
C368 C 0.16033 0.89355 0.3041 0.0
C369 C 0.15009 0.83628 0.27198 0.0
C370 C 0.1463 0.87518 0.2308 0.0
N371 N 0.18902 0.88738 0.48875 0.0
C372 C 0.19837 0.90152 0.56703 0.0
C373 C 0.18555 0.92749 0.45714 0.0
C374 C 0.18175 0.89926 0.43516 0.0
C375 C 0.19663 0.94291 0.5358 0.0
C376 C 0.20273 0.92967 0.59126 0.0
H377 H 0.13906 0.88285 0.1868 0.0
H378 H 0.15844 0.93108 0.28259 0.0
H379 H 0.1806 0.96083 0.41644 0.0
O380 O 0.1584 0.80471 0.49198 0.0
O381 O 0.21893 0.88492 0.45229 0.0
O382 O 0.24272 0.878 0.53819 0.0
O383 O 0.1478 0.83246 0.44441 0.0
O384 O 0.19513 0.84204 0.57717 0.0
O385 O 0.22854 0.8395 0.59236 0.0
O386 O 0.2573 0.87177 0.39328 0.0
O387 O 0.20288 0.79313 0.44679 0.0
O388 O 0.17721 0.7987 0.36513 0.0
O389 O 0.27435 0.85272 0.45647 0.0
O390 O 0.22524 0.83678 0.32166 0.0
O391 O 0.19011 0.83517 0.3044 0.0
C392 C 0.23804 0.89598 0.50765 0.0
C393 C 0.11763 0.78339 0.43925 0.0
C394 C 0.07519 0.75194 0.44083 0.0
C395 C 0.07244 0.73647 0.36412 0.0
C396 C 0.11426 0.76744 0.36339 0.0
C397 C 0.09183 0.74403 0.32634 0.0
C398 C 0.09815 0.7755 0.47812 0.0
C399 C 0.21144 0.84033 0.62515 0.0
C400 C 0.14117 0.80921 0.47605 0.0
C401 C 0.16501 0.92214 0.32458 0.0
C402 C 0.17762 0.93908 0.40084 0.0
C403 C 0.1833 0.7815 0.39402 0.0
C404 C 0.2987 0.90142 0.43622 0.0
C405 C 0.33364 0.94119 0.39828 0.0
C406 C 0.33982 0.95761 0.47628 0.0
C407 C 0.30537 0.91784 0.51413 0.0
C408 C 0.31293 0.91304 0.37867 0.0
C409 C 0.32581 0.94589 0.53386 0.0
C410 C 0.20795 0.8362 0.27247 0.0
C411 C 0.27689 0.87229 0.41319 0.0
H412 H 0.05521 0.71883 0.33202 0.0
H413 H 0.12893 0.77343 0.33237 0.0
H414 H 0.08937 0.73197 0.26738 0.0
H415 H 0.10098 0.78779 0.53717 0.0
H416 H 0.35575 0.97924 0.49311 0.0
H417 H 0.29481 0.90893 0.55944 0.0
H418 H 0.30779 0.90027 0.31841 0.0
H419 H 0.33088 0.95851 0.59409 0.0
Eu420 Eu 0.24174 0.31558 0.57671 0.0
C421 C 0.16134 0.17978 0.42159 0.0
N422 N 0.16185 0.20498 0.41737 0.0
C423 C 0.13884 0.18454 0.28412 0.0
C424 C 0.14986 0.15599 0.35595 0.0
C425 C 0.15031 0.20745 0.35091 0.0
C426 C 0.1388 0.15879 0.28632 0.0
C427 C 0.17004 0.15082 0.50095 0.0
C428 C 0.17128 0.17725 0.49324 0.0
C429 C 0.1594 0.12745 0.43478 0.0
C430 C 0.14932 0.13002 0.36248 0.0
Eu431 Eu 0.18348 0.24351 0.52978 0.0
N432 N 0.18125 0.20013 0.55641 0.0
C433 C 0.17903 0.14842 0.57547 0.0
C434 C 0.18893 0.19732 0.63037 0.0
C435 C 0.18828 0.17165 0.64064 0.0
H436 H 0.15042 0.22741 0.34897 0.0
H437 H 0.19495 0.16984 0.69882 0.0
H438 H 0.27914 0.32709 0.74105 0.0
H439 H 0.23215 0.39676 0.44055 0.0
H440 H 0.19637 0.21519 0.68106 0.0
H441 H 0.17848 0.12853 0.58373 0.0
H442 H 0.22912 0.3495 0.44297 0.0
H443 H 0.13007 0.18678 0.23101 0.0
H444 H 0.15845 0.10708 0.43942 0.0
H445 H 0.14075 0.11159 0.31249 0.0
H446 H 0.3032 0.36534 0.86275 0.0
H447 H 0.12982 0.14103 0.23459 0.0
H448 H 0.25119 0.43575 0.5625 0.0
N449 N 0.26704 0.35215 0.69002 0.0
C450 C 0.26828 0.37811 0.69615 0.0
C451 C 0.29341 0.36919 0.81646 0.0
C452 C 0.28192 0.40066 0.76388 0.0
C453 C 0.27982 0.34763 0.74766 0.0
C454 C 0.29427 0.39574 0.82505 0.0
N455 N 0.24539 0.36102 0.56605 0.0
C456 C 0.23746 0.36627 0.49662 0.0
C457 C 0.2595 0.41023 0.63312 0.0
C458 C 0.25714 0.38274 0.63194 0.0
C459 C 0.24984 0.41498 0.564 0.0
C460 C 0.23916 0.39308 0.49496 0.0
H461 H 0.30493 0.41249 0.87814 0.0
H462 H 0.29354 0.44511 0.81909 0.0
H463 H 0.27394 0.45353 0.70434 0.0
O464 O 0.25759 0.29951 0.49556 0.0
O465 O 0.20887 0.3185 0.57064 0.0
O466 O 0.1832 0.27938 0.47269 0.0
O467 O 0.27828 0.34448 0.56342 0.0
O468 O 0.22779 0.30288 0.43363 0.0
O469 O 0.19549 0.25541 0.40347 0.0
O470 O 0.16307 0.25686 0.59672 0.0
O471 O 0.21639 0.23924 0.54375 0.0
O472 O 0.24378 0.28073 0.63338 0.0
O473 O 0.14549 0.21329 0.52519 0.0
O474 O 0.19555 0.25923 0.67327 0.0
O475 O 0.2324 0.302 0.70381 0.0
C476 C 0.19083 0.30589 0.51088 0.0
C477 C 0.29941 0.32301 0.52022 0.0
C478 C 0.33432 0.33037 0.46777 0.0
C479 C 0.33988 0.31956 0.53232 0.0
C480 C 0.30573 0.31336 0.58564 0.0
C481 C 0.32574 0.31134 0.59115 0.0
C482 C 0.31386 0.33178 0.46188 0.0
C483 C 0.21208 0.27898 0.37778 0.0
C484 C 0.27805 0.32448 0.51188 0.0
C485 C 0.28332 0.42759 0.76726 0.0
C486 C 0.27214 0.43237 0.70195 0.0
C487 C 0.23628 0.25401 0.59713 0.0
C488 C 0.12246 0.23495 0.53752 0.0
C489 C 0.08309 0.22798 0.54118 0.0
C490 C 0.08481 0.23991 0.47099 0.0
C491 C 0.12301 0.2461 0.46688 0.0
C492 C 0.10237 0.22599 0.57532 0.0
C493 C 0.10454 0.24888 0.43454 0.0
C494 C 0.2137 0.2808 0.72919 0.0
C495 C 0.14274 0.23231 0.56918 0.0
H496 H 0.35552 0.31825 0.53848 0.0
H497 H 0.29528 0.3077 0.63242 0.0
H498 H 0.33046 0.30369 0.64156 0.0
H499 H 0.30915 0.33966 0.41179 0.0
H500 H 0.07075 0.24233 0.44398 0.0
H501 H 0.13777 0.25253 0.43624 0.0
H502 H 0.10152 0.21696 0.62943 0.0
H503 H 0.10542 0.25782 0.3803 0.0
Eu504 Eu 0.38241 0.17408 0.83842 0.0
C505 C 0.41445 0.15402 0.50375 0.0
N506 N 0.42347 0.17853 0.56061 0.0
C507 C 0.46266 0.1942 0.53925 0.0
C508 C 0.42936 0.14819 0.46335 0.0
C509 C 0.44711 0.19894 0.57777 0.0
C510 C 0.45377 0.16855 0.48236 0.0
C511 C 0.38005 0.11 0.42342 0.0
C512 C 0.39016 0.13545 0.48337 0.0
C513 C 0.39482 0.10343 0.38508 0.0
C514 C 0.41942 0.12258 0.4046 0.0
Eu515 Eu 0.39659 0.18296 0.63052 0.0
N516 N 0.37643 0.14303 0.51964 0.0
C517 C 0.35541 0.09219 0.4031 0.0
C518 C 0.35243 0.12712 0.49492 0.0
C519 C 0.34158 0.10073 0.43949 0.0
H520 H 0.45394 0.21859 0.6225 0.0
H521 H 0.32256 0.08663 0.42634 0.0
H522 H 0.37235 0.10686 0.84838 0.0
H523 H 0.33899 0.22592 0.9714 0.0
H524 H 0.3416 0.13351 0.523 0.0
H525 H 0.34691 0.07202 0.35898 0.0
H526 H 0.37194 0.2246 0.92109 0.0
H527 H 0.48147 0.2102 0.55383 0.0
H528 H 0.38738 0.08402 0.33881 0.0
H529 H 0.43057 0.11759 0.37317 0.0
H530 H 0.33936 0.0588 0.86585 0.0
H531 H 0.46584 0.1649 0.45269 0.0
H532 H 0.30243 0.17953 0.97862 0.0
N533 N 0.35384 0.12855 0.8675 0.0
C534 C 0.3345 0.12694 0.89047 0.0
C535 C 0.33772 0.07777 0.87245 0.0
C536 C 0.31521 0.10008 0.90037 0.0
C537 C 0.35637 0.10496 0.86295 0.0
C538 C 0.3168 0.07514 0.88917 0.0
N539 N 0.35399 0.1781 0.90046 0.0
C540 C 0.35609 0.20434 0.92511 0.0
C541 C 0.31528 0.15214 0.93476 0.0
C542 C 0.33454 0.15255 0.90717 0.0
C543 C 0.31684 0.17888 0.95705 0.0
C544 C 0.33748 0.20513 0.95325 0.0
H545 H 0.30228 0.05399 0.89554 0.0
H546 H 0.28006 0.07864 0.92935 0.0
H547 H 0.28025 0.12434 0.96062 0.0
O548 O 0.41744 0.18741 0.90253 0.0
O549 O 0.36909 0.19942 0.77567 0.0
O550 O 0.35999 0.17502 0.64688 0.0
O551 O 0.3908 0.18485 0.96903 0.0
O552 O 0.40243 0.22142 0.81733 0.0
O553 O 0.42557 0.2171 0.73547 0.0
O554 O 0.4051 0.20652 0.53079 0.0
O555 O 0.42514 0.18297 0.71558 0.0
O556 O 0.4008 0.15089 0.78822 0.0
O557 O 0.39444 0.22199 0.63142 0.0
O558 O 0.37392 0.13417 0.64168 0.0
O559 O 0.35419 0.13397 0.74446 0.0
C560 C 0.35556 0.18921 0.70409 0.0
C561 C 0.41206 0.1636 1.01369 0.0
C562 C 0.39369 0.12366 0.08778 0.0
C563 C 0.41416 0.12248 0.09635 0.0
C564 C 0.43233 0.16189 1.02105 0.0
C565 C 0.43321 0.14115 0.06143 0.0
C566 C 0.39267 0.1437 1.04492 0.0
C567 C 0.42228 0.23357 0.78906 0.0
C568 C 0.41043 0.18513 0.97144 0.0
C569 C 0.29527 0.09917 0.92273 0.0
C570 C 0.29539 0.1252 0.94061 0.0
C571 C 0.42062 0.16263 0.759 0.0
C572 C 0.38413 0.22979 0.50471 0.0
C573 C 0.35106 0.21004 0.39333 0.0
C574 C 0.35597 0.23853 0.39201 0.0
C575 C 0.3887 0.25809 0.50366 0.0
C576 C 0.36475 0.20587 0.45199 0.0
C577 C 0.37444 0.26235 0.44814 0.0
C578 C 0.35628 0.12019 0.68014 0.0
C579 C 0.39964 0.22518 0.56009 0.0
H580 H 0.41568 0.10799 0.13213 0.0
H581 H 0.44742 0.17657 0.99596 0.0
H582 H 0.449 0.1402 0.0678 0.0
H583 H 0.37699 0.14492 1.04063 0.0
H584 H 0.34598 0.24237 0.34638 0.0
H585 H 0.40338 0.27684 0.54509 0.0
H586 H 0.36124 0.1841 0.4539 0.0
H587 H 0.37818 0.28428 0.44705 0.0
Eu588 Eu 0.88354 0.18916 0.62282 0.0
C589 C 0.92904 0.15701 0.92149 0.0
N590 N 0.91325 0.14178 0.8521 0.0
C591 C 0.92864 0.11063 0.83315 0.0
C592 C 0.94597 0.15031 0.94816 0.0
C593 C 0.91206 0.11797 0.80971 0.0
C594 C 0.94602 0.12731 0.90169 0.0
C595 C 0.94126 0.19172 1.04578 0.0
C596 C 0.92676 0.17743 0.96942 0.0
C597 C 0.95902 0.18633 0.07096 0.0
C598 C 0.96141 0.1657 1.02213 0.0
Eu599 Eu 0.88721 0.15712 0.8128 0.0
N600 N 0.90889 0.18126 0.94441 0.0
C601 C 0.93668 0.20983 0.09599 0.0
C602 C 0.90336 0.19736 0.99496 0.0
C603 C 0.91742 0.21231 0.07089 0.0
H604 H 0.89864 0.10508 0.75666 0.0
H605 H 0.91336 0.22565 0.11006 0.0
H606 H 0.93541 0.25235 0.63898 0.0
H607 H 0.79666 0.15942 0.47058 0.0
H608 H 0.88844 0.19924 0.97541 0.0
H609 H 0.94737 0.22115 0.15519 0.0
H610 H 0.82726 0.15053 0.52744 0.0
H611 H 0.92802 0.09218 0.79834 0.0
H612 H 0.97042 0.19719 0.12927 0.0
H613 H 0.97461 0.16097 1.04353 0.0
H614 H 0.95028 0.30389 0.62725 0.0
H615 H 0.95877 0.1215 0.91998 0.0
H616 H 0.80687 0.21022 0.46759 0.0
N617 N 0.89929 0.23831 0.60558 0.0
C618 C 0.8837 0.24567 0.57901 0.0
C619 C 0.93148 0.28775 0.61363 0.0
C620 C 0.8913 0.27472 0.57097 0.0
C621 C 0.92303 0.25856 0.61992 0.0
C622 C 0.91552 0.29598 0.59012 0.0
N623 N 0.85411 0.19579 0.55912 0.0
C624 C 0.83181 0.17276 0.52684 0.0
C625 C 0.84354 0.22981 0.52227 0.0
C626 C 0.86026 0.22362 0.55505 0.0
C627 C 0.82028 0.20643 0.49311 0.0
C628 C 0.81447 0.17772 0.49448 0.0
H629 H 0.92209 0.31857 0.58504 0.0
H630 H 0.88003 0.30359 0.53598 0.0
H631 H 0.83812 0.26419 0.49328 0.0
O632 O 0.89389 0.16126 0.56049 0.0
O633 O 0.85024 0.16883 0.67835 0.0
O634 O 0.86688 0.18052 0.81077 0.0
O635 O 0.88688 0.18925 0.49658 0.0
O636 O 0.85458 0.1417 0.62279 0.0
O637 O 0.87753 0.12847 0.6889 0.0
O638 O 0.87191 0.13047 0.9018 0.0
O639 O 0.91289 0.16052 0.72987 0.0
O640 O 0.92031 0.20219 0.6857 0.0
O641 O 0.8496 0.12158 0.78882 0.0
O642 O 0.90872 0.20757 0.84377 0.0
O643 O 0.90292 0.22633 0.73337 0.0
C644 C 0.84886 0.17336 0.75463 0.0
C645 C 0.91493 0.1785 0.457 0.0
C646 C 0.93282 0.16248 0.36303 0.0
C647 C 0.95276 0.19106 0.37735 0.0
C648 C 0.93513 0.20693 0.47271 0.0
C649 C 0.95406 0.21309 0.43329 0.0
C650 C 0.9141 0.15631 0.4036 0.0
C651 C 0.85886 0.1212 0.6358 0.0
C652 C 0.89426 0.17112 0.49417 0.0
C653 C 0.8746 0.28136 0.54188 0.0
C654 C 0.85074 0.25892 0.51756 0.0
C655 C 0.9272 0.18434 0.70336 0.0
C656 C 0.84404 0.08052 0.84487 0.0
C657 C 0.85005 0.04331 0.89133 0.0
C658 C 0.82729 0.02132 0.85087 0.0
C659 C 0.82147 0.05831 0.80307 0.0
C660 C 0.85856 0.07253 0.88466 0.0
C661 C 0.81334 0.0288 0.80502 0.0
C662 C 0.91208 0.22981 0.80917 0.0
C663 C 0.85188 0.11193 0.85366 0.0
H664 H 0.96703 0.19637 0.3444 0.0
H665 H 0.93613 0.22431 0.51434 0.0
H666 H 0.9695 0.23512 0.44458 0.0
H667 H 0.8983 0.13444 0.39034 0.0
H668 H 0.82009 0.9987 0.85699 0.0
H669 H 0.80994 0.06379 0.77099 0.0
H670 H 0.876 0.0894 0.91687 0.0
H671 H 0.79571 0.0118 0.7744 0.0
Eu672 Eu 0.90786 0.71719 0.79646 0.0
C673 C 0.84145 0.5859 0.75259 0.0
N674 N 0.86323 0.59967 0.73252 0.0
C675 C 0.87361 0.57132 0.80625 0.0
C676 C 0.83536 0.56538 0.80411 0.0
C677 C 0.87847 0.59079 0.75305 0.0
C678 C 0.85216 0.5591 0.83355 0.0
C679 C 0.8008 0.57311 0.72516 0.0
C680 C 0.82441 0.58978 0.71413 0.0
C681 C 0.79499 0.55408 0.78039 0.0
C682 C 0.8123 0.55042 0.82036 0.0
Eu683 Eu 0.8708 0.63531 0.65009 0.0
N684 N 0.83049 0.60792 0.66025 0.0
C685 C 0.78358 0.57502 0.67744 0.0
C686 C 0.81367 0.60888 0.61097 0.0
C687 C 0.79002 0.59277 0.61956 0.0
H688 H 0.89467 0.59909 0.72948 0.0
H689 H 0.77677 0.59399 0.58146 0.0
H690 H 0.93113 0.76408 0.67248 0.0
H691 H 0.95472 0.71483 0.07423 0.0
H692 H 0.8187 0.62269 0.56641 0.0
H693 H 0.76518 0.56205 0.68258 0.0
H694 H 0.92076 0.70903 0.98373 0.0
H695 H 0.88624 0.56541 0.82509 0.0
H696 H 0.777 0.54118 0.79018 0.0
H697 H 0.80737 0.53482 0.86044 0.0
H698 H 0.97009 0.79617 0.63539 0.0
H699 H 0.84821 0.54356 0.8735 0.0
H700 H 0.99394 0.73704 1.03397 0.0
N701 N 0.94479 0.74926 0.76106 0.0
C702 C 0.96431 0.75237 0.80372 0.0
C703 C 0.96868 0.78373 0.68233 0.0
C704 C 0.98684 0.77027 0.78495 0.0
C705 C 0.94674 0.76568 0.7035 0.0
C706 C 0.98879 0.78577 0.72264 0.0
N707 N 0.94025 0.72582 0.89132 0.0
C708 C 0.93777 0.71836 0.96532 0.0
C709 C 0.98189 0.74424 0.92101 0.0
C710 C 0.96189 0.73981 0.87082 0.0
C711 C 0.97904 0.73413 0.9937 0.0
C712 C 0.95697 0.72175 1.01682 0.0
H713 H 0.00582 0.80033 0.70758 0.0
H714 H 0.02414 0.78647 0.81735 0.0
H715 H 0.01975 0.7633 0.93626 0.0
O716 O 0.89535 0.74677 0.78548 0.0
O717 O 0.91624 0.70729 0.67421 0.0
O718 O 0.91079 0.66173 0.65982 0.0
O719 O 0.91496 0.75106 0.89858 0.0
O720 O 0.89946 0.67615 0.8476 0.0
O721 O 0.90253 0.64844 0.74393 0.0
O722 O 0.87671 0.63184 0.52713 0.0
O723 O 0.85283 0.65685 0.70644 0.0
O724 O 0.87408 0.68167 0.83244 0.0
O725 O 0.8554 0.59236 0.57199 0.0
O726 O 0.86464 0.66855 0.59589 0.0
O727 O 0.88495 0.71385 0.68443 0.0
C728 C 0.9238 0.68971 0.6567 0.0
C729 C 0.88407 0.7608 0.89795 0.0
C730 C 0.85476 0.74131 0.98473 0.0
C731 C 0.84311 0.75362 0.94786 0.0
C732 C 0.87242 0.7733 0.86274 0.0
C733 C 0.8522 0.76999 0.88835 0.0
C734 C 0.87581 0.7461 0.96111 0.0
C735 C 0.90663 0.65883 0.82093 0.0
C736 C 0.90238 0.75944 0.86034 0.0
C737 C 0.00669 0.77318 0.8314 0.0
C738 C 0.0042 0.75999 0.89914 0.0
C739 C 0.85371 0.66369 0.78338 0.0
C740 C 0.84357 0.59271 0.43791 0.0
C741 C 0.82115 0.60362 0.3417 0.0
C742 C 0.81195 0.5758 0.29372 0.0
C743 C 0.83441 0.56516 0.38969 0.0
C744 C 0.83574 0.61086 0.41598 0.0
C745 C 0.81822 0.55652 0.31859 0.0
C746 C 0.87081 0.69633 0.61693 0.0
C747 C 0.86215 0.6035 0.50894 0.0
H748 H 0.82663 0.74997 0.96293 0.0
H749 H 0.87847 0.78467 0.81344 0.0
H750 H 0.84304 0.7792 0.85986 0.0
H751 H 0.88543 0.73746 0.98967 0.0
H752 H 0.80084 0.56942 0.23547 0.0
H753 H 0.84002 0.55063 0.40632 0.0
H754 H 0.84225 0.63159 0.45518 0.0
H755 H 0.8113 0.53533 0.28092 0.0
C756 C 0.06443 0.48158 0.84286 0.0
C757 C 0.05815 0.49827 0.89426 0.0
C758 C 0.06391 0.48095 0.75619 0.0
C759 C 0.05806 0.49863 0.7127 0.0
C760 C 0.05224 0.51612 0.76519 0.0
C761 C 0.0518 0.51515 0.85092 0.0
C762 C 0.06948 0.46021 0.71184 0.0
C763 C 0.04666 0.53702 0.73242 0.0
C764 C 0.07826 0.50772 0.49229 0.0
C765 C 0.05785 0.49927 0.43433 0.0
C766 C 0.07874 0.5083 0.57894 0.0
C767 C 0.058 0.49883 0.61587 0.0
C768 C 0.03717 0.48955 0.55678 0.0
C769 C 0.03753 0.49058 0.4711 0.0
C770 C 0.10243 0.51993 0.63047 0.0
C771 C 0.01352 0.47761 0.58214 0.0
H772 H 0.06941 0.46794 0.87024 0.0
H773 H 0.04689 0.5287 0.88497 0.0
H774 H 0.06283 0.45487 0.64617 0.0
H775 H 0.08891 0.47029 0.72269 0.0
H776 H 0.0617 0.43943 0.73524 0.0
H777 H 0.05441 0.55764 0.77731 0.0
H778 H 0.05333 0.54268 0.67592 0.0
H779 H 0.02723 0.52693 0.72103 0.0
H780 H 0.09462 0.51489 0.47032 0.0
H781 H 0.02111 0.48355 0.4318 0.0
H782 H 0.10664 0.50256 0.62518 0.0
H783 H 0.10299 0.52708 0.69469 0.0
H784 H 0.11652 0.53881 0.60876 0.0
H785 H 0.99943 0.45884 0.53582 0.0
H786 H 0.00921 0.49489 0.58698 0.0
H787 H 0.01309 0.4702 0.64043 0.0
C788 C 0.56109 0.53025 0.70793 0.0
C789 C 0.56919 0.51526 0.75283 0.0
C790 C 0.56188 0.53161 0.62253 0.0
C791 C 0.56999 0.51644 0.57189 0.0
C792 C 0.57759 0.50055 0.61688 0.0
C793 C 0.57762 0.50079 0.70326 0.0
C794 C 0.55408 0.55036 0.58808 0.0
C795 C 0.5856 0.48219 0.5744 0.0
C796 C 0.55032 0.50699 0.32883 0.0
C797 C 0.57126 0.51831 0.29449 0.0
C798 C 0.54957 0.50558 0.41422 0.0
C799 C 0.57044 0.51711 0.47542 0.0
C800 C 0.59175 0.52923 0.44091 0.0
C801 C 0.59177 0.52895 0.35453 0.0
C802 C 0.52547 0.49067 0.43699 0.0
C803 C 0.61549 0.54341 0.49483 0.0
H804 H 0.55439 0.54196 0.74045 0.0
H805 H 0.584 0.48862 0.73186 0.0
H806 H 0.56077 0.5568 0.53211 0.0
H807 H 0.53448 0.53806 0.57526 0.0
H808 H 0.56018 0.5706 0.63258 0.0
H809 H 0.57923 0.46155 0.59794 0.0
H810 H 0.57932 0.47646 0.50845 0.0
H811 H 0.6052 0.49444 0.58688 0.0
H812 H 0.53378 0.49808 0.28778 0.0
H813 H 0.60855 0.53802 0.33432 0.0
H814 H 0.51926 0.50613 0.4409 0.0
H815 H 0.52541 0.48326 0.49517 0.0
H816 H 0.51254 0.47134 0.38979 0.0
H817 H 0.62876 0.56324 0.47407 0.0
H818 H 0.62162 0.52786 0.49112 0.0
H819 H 0.61503 0.54985 0.55846 0.0
C820 C 0.58558 0.09004 0.61923 0.0
C821 C 0.56464 0.07472 0.65239 0.0
C822 C 0.58607 0.08983 0.53324 0.0
C823 C 0.56498 0.07512 0.47155 0.0
C824 C 0.5437 0.06017 0.50534 0.0
C825 C 0.54386 0.0596 0.59132 0.0
C826 C 0.61007 0.10552 0.50994 0.0
C827 C 0.51984 0.04454 0.45135 0.0
C828 C 0.57457 0.1015 0.25456 0.0
C829 C 0.56553 0.07581 0.19434 0.0
C830 C 0.574 0.10157 0.34047 0.0
C831 C 0.56519 0.07536 0.37514 0.0
C832 C 0.55664 0.0494 0.31437 0.0
C833 C 0.5564 0.0499 0.22833 0.0
C834 C 0.58282 0.13071 0.39336 0.0
C835 C 0.54778 0.0201 0.33877 0.0
H836 H 0.60225 0.10201 0.6611 0.0
H837 H 0.52708 0.04745 0.61088 0.0
H838 H 0.60961 0.09809 0.44603 0.0
H839 H 0.61719 0.12943 0.52086 0.0
H840 H 0.62257 0.10216 0.54809 0.0
H841 H 0.50719 0.04774 0.48158 0.0
H842 H 0.52051 0.05212 0.39324 0.0
H843 H 0.51276 0.02063 0.43945 0.0
H844 H 0.58183 0.12225 0.2343 0.0
H845 H 0.54931 0.02931 0.18715 0.0
H846 H 0.60243 0.14336 0.40614 0.0
H847 H 0.57627 0.12842 0.45104 0.0
H848 H 0.57737 0.14377 0.3618 0.0
H849 H 0.55422 0.02216 0.40313 0.0
H850 H 0.55334 0.00721 0.30195 0.0
H851 H 0.52818 0.00742 0.32695 0.0
C852 C 0.73635 0.86351 0.62148 0.0
C853 C 0.71543 0.85099 0.56195 0.0
C854 C 0.73688 0.86426 0.70811 0.0
C855 C 0.71582 0.85098 0.7437 0.0
C856 C 0.69453 0.83787 0.68319 0.0
C857 C 0.69467 0.83868 0.59725 0.0
C858 C 0.76093 0.88034 0.76105 0.0
C859 C 0.67067 0.82199 0.70735 0.0
C860 C 0.7259 0.83767 0.97361 0.0
C861 C 0.71668 0.85119 1.02268 0.0
C862 C 0.72521 0.83675 0.88672 0.0
C863 C 0.71609 0.851 0.84069 0.0
C864 C 0.70733 0.86538 0.89089 0.0
C865 C 0.70718 0.86462 0.97677 0.0
C866 C 0.73425 0.8195 0.84489 0.0
C867 C 0.69813 0.88266 0.85537 0.0
H868 H 0.75302 0.87395 0.60064 0.0
H869 H 0.67788 0.82863 0.55673 0.0
H870 H 0.76048 0.88692 0.82459 0.0
H871 H 0.76822 0.866 0.75819 0.0
H872 H 0.77328 0.90034 0.73874 0.0
H873 H 0.65811 0.80198 0.66159 0.0
H874 H 0.67136 0.81548 0.76656 0.0
H875 H 0.66347 0.83643 0.70971 0.0
H876 H 0.73339 0.82675 1.00298 0.0
H877 H 0.69989 0.87562 1.00892 0.0
H878 H 0.75385 0.83298 0.85612 0.0
H879 H 0.7276 0.81298 0.77911 0.0
H880 H 0.72908 0.79937 0.86998 0.0
H881 H 0.70349 0.90281 0.89904 0.0
H882 H 0.67854 0.86921 0.84281 0.0
H883 H 0.70451 0.88918 0.79901 0.0
C884 C 0.22032 0.82646 0.76631 0.0
C885 C 0.21098 0.83999 0.72032 0.0
C886 C 0.21939 0.82494 0.85146 0.0
C887 C 0.20996 0.83864 0.90072 0.0
C888 C 0.2011 0.85312 0.85465 0.0
C889 C 0.20114 0.85288 0.76835 0.0
C890 C 0.22849 0.80758 0.88707 0.0
C891 C 0.1916 0.86993 0.8958 0.0
C892 C 0.18782 0.82439 0.11656 0.0
C893 C 0.20841 0.83636 0.17725 0.0
C894 C 0.18796 0.82424 1.03038 0.0
C895 C 0.20941 0.83788 0.99691 0.0
C896 C 0.23033 0.85075 0.05878 0.0
C897 C 0.22952 0.84918 0.144 0.0
C898 C 0.16423 0.8085 0.97557 0.0
C899 C 0.25448 0.86729 1.03697 0.0
H900 H 0.22806 0.81593 0.73474 0.0
H901 H 0.19374 0.86384 0.73869 0.0
H902 H 0.24809 0.8211 0.90068 0.0
H903 H 0.22182 0.80071 0.94277 0.0
H904 H 0.22338 0.78764 0.84296 0.0
H905 H 0.17201 0.85641 0.88228 0.0
H906 H 0.19763 0.87589 0.9619 0.0
H907 H 0.19708 0.89037 0.87201 0.0
H908 H 0.17092 0.81414 0.13613 0.0
H909 H 0.24609 0.85913 0.18572 0.0
H910 H 0.16516 0.80241 0.91226 0.0
H911 H 0.15694 0.82284 0.97831 0.0
H912 H 0.15161 0.78823 0.99623 0.0
H913 H 0.26187 0.85306 1.03422 0.0
H914 H 0.26668 0.887 0.08414 0.0
H915 H 0.25418 0.87442 0.97851 0.0
C916 C 0.23425 0.29442 0.8853 0.0
C917 C 0.21348 0.28049 0.82443 0.0
C918 C 0.2343 0.29378 0.97125 0.0
C919 C 0.21296 0.28001 1.00525 0.0
C920 C 0.1919 0.26652 0.94375 0.0
C921 C 0.19245 0.26631 0.85778 0.0
C922 C 0.25808 0.308 1.02493 0.0
C923 C 0.16791 0.2522 0.96726 0.0
C924 C 0.20211 0.25345 0.22174 0.0
C925 C 0.21212 0.27924 0.28246 0.0
C926 C 0.20273 0.25337 0.13582 0.0
C927 C 0.21265 0.27974 0.10165 0.0
C928 C 0.22221 0.30584 0.16294 0.0
C929 C 0.22234 0.30529 0.24894 0.0
C930 C 0.19272 0.22398 0.08237 0.0
C931 C 0.23235 0.33541 0.13918 0.0
H932 H 0.2511 0.30564 0.86561 0.0
H933 H 0.17578 0.25527 0.81608 0.0
H934 H 0.26616 0.33213 1.03725 0.0
H935 H 0.25698 0.30023 0.08284 0.0
H936 H 0.27013 0.30366 0.99425 0.0
H937 H 0.15605 0.25667 0.92962 0.0
H938 H 0.15981 0.22807 0.95581 0.0
H939 H 0.16867 0.25979 1.03135 0.0
H940 H 0.19401 0.2326 0.24159 0.0
H941 H 0.23025 0.32598 0.29049 0.0
H942 H 0.19919 0.22583 1.02455 0.0
H943 H 0.17316 0.21249 0.0699 0.0
H944 H 0.19728 0.21004 0.11333 0.0
H945 H 0.25191 0.3469 0.15074 0.0
H946 H 0.22767 0.34919 0.17657 0.0
H947 H 0.22609 0.33384 0.075 0.0
C948 C 0.32172 0.15709 0.3381 0.0
C949 C 0.33622 0.18567 0.3244 0.0
C950 C 0.31917 0.13312 0.28651 0.0
C951 C 0.33222 0.13857 0.2237 0.0
C952 C 0.34116 0.16581 0.19825 0.0
C953 C 0.34311 0.18936 0.24948 0.0
C954 C 0.30375 0.10252 0.30138 0.0
C955 C 0.35301 0.17173 0.126 0.0
C956 C 0.38318 0.12832 0.21738 0.0
C957 C 0.37614 0.11147 0.14037 0.0
C958 C 0.36804 0.13539 0.24987 0.0
C959 C 0.34458 0.12273 0.20776 0.0
C960 C 0.33592 0.10003 0.14009 0.0
C961 C 0.35202 0.09494 0.10575 0.0
C962 C 0.37848 0.15994 0.32194 0.0
C963 C 0.31035 0.08348 0.10009 0.0
H964 H 0.3149 0.15394 0.39368 0.0
H965 H 0.35351 0.21128 0.23679 0.0
H966 H 0.28693 0.09138 0.25737 0.0
H967 H 0.31197 0.08941 0.29167 0.0
H968 H 0.29934 0.10259 0.36253 0.0
H969 H 0.35284 0.18978 0.10141 0.0
H970 H 0.37174 0.17851 0.14392 0.0
H971 H 0.34422 0.15171 0.07845 0.0
H972 H 0.40178 0.14066 0.24469 0.0
H973 H 0.34643 0.08109 1.04702 0.0
H974 H 0.36597 0.15434 0.36404 0.0
H975 H 0.38174 0.18042 0.30276 0.0
H976 H 0.39565 0.16457 0.35359 0.0
H977 H 0.30657 0.06744 1.0455 0.0
H978 H 0.30516 0.09899 0.08449 0.0
H979 H 0.29918 0.07127 0.14264 0.0
C980 C 0.9202 0.14183 0.21919 0.0
C981 C 0.92881 0.14027 0.29506 0.0
C982 C 0.90942 0.11751 0.15663 0.0
C983 C 0.90828 0.09131 0.16919 0.0
C984 C 0.91894 0.09059 0.24429 0.0
C985 C 0.92859 0.11497 0.30735 0.0
C986 C 0.89778 0.11939 0.07898 0.0
C987 C 0.91913 0.06388 0.26044 0.0
C988 C 0.85391 0.03406 1.02798 0.0
C989 C 0.86306 0.03849 0.95687 0.0
C990 C 0.86913 0.04733 0.10281 0.0
C991 C 0.89381 0.0646 0.10515 0.0
C992 C 0.90286 0.06272 1.03473 0.0
C993 C 0.88731 0.05002 0.96039 0.0
C994 C 0.8587 0.04726 0.17736 0.0
C995 C 0.92911 0.07816 1.03701 0.0
H996 H 0.92015 0.16139 0.21076 0.0
H997 H 0.93512 0.11383 0.36685 0.0
H998 H 0.90637 0.11651 1.02953 0.0
H999 H 0.87882 0.1017 0.06471 0.0
H1000 H 0.89893 0.14067 0.08131 0.0
H1001 H 0.90502 0.0516 0.29484 0.0
H1002 H 0.91629 0.04898 0.20442 0.0
H1003 H 0.93621 0.07058 0.2982 0.0
H1004 H 0.8351 0.02461 1.02532 0.0
H1005 H 0.89439 0.05284 0.90527 0.0
H1006 H 0.86027 0.06868 0.1946 0.0
H1007 H 0.86846 0.04433 0.22818 0.0
H1008 H 0.83973 0.02957 0.16775 0.0
H1009 H 0.93693 0.10222 1.04746 0.0
H1010 H 0.93329 0.07141 0.98002 0.0
H1011 H 0.93752 0.07344 0.0878 0.0
C1012 C 0.79893 0.61982 0.25506 0.0
C1013 C 0.81896 0.62678 0.30973 0.0
C1014 C 0.79936 0.6405 0.21105 0.0
C1015 C 0.82028 0.66866 0.22293 0.0
C1016 C 0.83878 0.67716 0.28747 0.0
C1017 C 0.83826 0.65598 0.32823 0.0
C1018 C 0.77774 0.63139 0.15023 0.0
C1019 C 0.86069 0.70764 0.30744 0.0
C1020 C 0.84812 0.69867 1.04738 0.0
C1021 C 0.84449 0.72189 1.04368 0.0
C1022 C 0.84003 0.68111 0.10485 0.0
C1023 C 0.82629 0.68523 0.15658 0.0
C1024 C 0.82111 0.70723 0.15003 0.0
C1025 C 0.83087 0.72593 0.09527 0.0
C1026 C 0.84757 0.65935 0.11279 0.0
C1027 C 0.80566 0.7113 0.20161 0.0
H1028 H 0.78335 0.59785 0.24359 0.0
H1029 H 0.85398 0.66223 0.3704 0.0
H1030 H 0.76415 0.63131 0.18261 0.0
H1031 H 0.78128 0.64629 0.10678 0.0
H1032 H 0.77004 0.60868 0.11678 0.0
H1033 H 0.85773 0.724 0.28388 0.0
H1034 H 0.86679 0.7147 0.37359 0.0
H1035 H 0.87511 0.70745 0.28122 0.0
H1036 H 0.85759 0.6942 1.00589 0.0
H1037 H 0.82784 0.74368 0.09329 0.0
H1038 H 0.86299 0.66914 0.1624 0.0
H1039 H 0.85307 0.65388 0.0574 0.0
H1040 H 0.83335 0.63875 0.12732 0.0
H1041 H 0.81243 0.71357 0.26546 0.0
H1042 H 0.78748 0.69162 0.18638 0.0
H1043 H 0.80479 0.73085 0.19376 0.0
C1044 C 0.16432 0.3126 0.4101 0.0
C1045 C 0.17966 0.32234 0.48451 0.0
C1046 C 0.15396 0.32813 0.38452 0.0
C1047 C 0.15943 0.35465 0.43326 0.0
C1048 C 0.17519 0.36481 0.50787 0.0
C1049 C 0.18479 0.34845 0.53285 0.0
C1050 C 0.13706 0.31606 0.30522 0.0
C1051 C 0.18205 0.39315 0.56152 0.0
C1052 C 0.15015 0.41115 0.34425 0.0
C1053 C 0.12987 0.40707 0.37224 0.0
C1054 C 0.1596 0.39381 0.36163 0.0
C1055 C 0.14842 0.37154 0.4075 0.0
C1056 C 0.12732 0.36654 0.43265 0.0
C1057 C 0.11853 0.38451 0.41566 0.0
C1058 C 0.18222 0.40029 0.33418 0.0
C1059 C 0.11446 0.34288 0.48034 0.0
H1060 H 0.16047 0.29283 0.37125 0.0
H1061 H 0.19663 0.3564 0.59029 0.0
H1062 H 0.11966 0.31224 0.31491 0.0
H1063 H 0.14377 0.33223 0.2649 0.0
H1064 H 0.13442 0.2951 0.27451 0.0
H1065 H 0.18963 0.41144 0.52794 0.0
H1066 H 0.16614 0.39153 0.58054 0.0
H1067 H 0.19519 0.3987 0.61605 0.0
H1068 H 0.1593 0.4289 0.31218 0.0
H1069 H 0.10304 0.38148 0.43844 0.0
H1070 H 0.18001 0.37994 0.30103 0.0
H1071 H 0.19647 0.40856 0.3873 0.0
H1072 H 0.18797 0.4169 0.29487 0.0
H1073 H 0.11126 0.32164 0.44955 0.0
H1074 H 0.09725 0.33995 0.48923 0.0
H1075 H 0.12554 0.34858 0.54018 0.0
C1076 C 0.60224 0.62038 0.1655 0.0
C1077 C 0.61065 0.60525 0.12136 0.0
C1078 C 0.61568 0.65135 0.18986 0.0
C1079 C 0.63851 0.66831 0.17046 0.0
C1080 C 0.64722 0.65304 0.12627 0.0
C1081 C 0.63334 0.62199 0.10307 0.0
C1082 C 0.60516 0.66601 0.23546 0.0
C1083 C 0.67113 0.66887 0.10217 0.0
C1084 C 0.6637 0.75041 0.16646 0.0
C1085 C 0.67837 0.7648 0.24235 0.0
C1086 C 0.65085 0.71942 0.14265 0.0
C1087 C 0.65272 0.70173 0.195 0.0
C1088 C 0.6679 0.71615 0.27112 0.0
C1089 C 0.68028 0.74721 0.29395 0.0
C1090 C 0.63531 0.70556 0.06066 0.0
C1091 C 0.67107 0.69872 0.32886 0.0
H1092 H 0.58519 0.60796 0.18225 0.0
H1093 H 0.64006 0.61089 0.06798 0.0
H1094 H 0.61677 0.67873 0.29447 0.0
H1095 H 0.60399 0.68174 0.20162 0.0
H1096 H 0.58724 0.64998 0.24582 0.0
H1097 H 0.68323 0.66471 0.13947 0.0
H1098 H 0.6698 0.6599 1.03862 0.0
H1099 H 0.67908 0.69289 0.10904 0.0
H1100 H 0.66244 0.76342 0.12468 0.0
H1101 H 0.69161 0.75774 0.35247 0.0
H1102 H 0.61691 0.68946 0.06656 0.0
H1103 H 0.6416 0.69339 1.02472 0.0
H1104 H 0.6352 0.72202 1.02739 0.0
H1105 H 0.68587 0.71301 0.38011 0.0
H1106 H 0.67449 0.68254 0.29741 0.0
H1107 H 0.6546 0.68626 0.35294 0.0
C1108 C 0.43482 0.0145 0.1355 0.0
C1109 C 0.42558 0.00798 1.05299 0.0
C1110 C 0.41992 1.00448 0.19222 0.0
C1111 C 0.39509 0.98798 0.16633 0.0
C1112 C 0.3856 0.98202 0.08362 0.0
C1113 C 0.4009 0.99179 1.02802 0.0
C1114 C 0.43076 0.01114 0.27979 0.0
C1115 C 0.35923 0.96499 1.05367 0.0
C1116 C 0.35636 0.93632 0.296 0.0
C1117 C 0.34903 0.95312 0.33804 0.0
C1118 C 0.37145 0.9475 0.24047 0.0
C1119 C 0.37904 0.97597 0.22529 0.0
C1120 C 0.37132 0.99284 0.26658 0.0
C1121 C 0.35668 0.98136 0.32331 0.0
C1122 C 0.3795 0.92895 0.19873 0.0
C1123 C 0.37858 0.02305 0.2513 0.0
H1124 H 0.45378 0.02749 0.15606 0.0
H1125 H 0.39342 0.98615 0.96461 0.0
H1126 H 0.42482 0.02364 0.31601 0.0
H1127 H 0.42472 0.99036 0.30219 0.0
H1128 H 0.45038 0.02403 0.29018 0.0
H1129 H 0.35467 0.9637 0.98823 0.0
H1130 H 0.35122 0.94235 0.06557 0.0
H1131 H 0.35111 0.97538 0.08649 0.0
H1132 H 0.35065 0.9146 0.30792 0.0
H1133 H 0.35093 0.99433 0.35548 0.0
H1134 H 0.39909 0.94077 0.21157 0.0
H1135 H 0.37395 0.92496 0.1327 0.0
H1136 H 0.37224 0.90742 0.21794 0.0
H1137 H 0.3975 0.03871 0.27796 0.0
H1138 H 0.36804 0.03111 0.27796 0.0
H1139 H 0.37652 0.02306 0.18585 0.0
C1140 C 0.52548 0.13323 0.9136 0.0
C1141 C 0.52356 0.10943 0.86268 0.0
C1142 C 0.50923 0.14243 0.89909 0.0
C1143 C 0.49035 0.12776 0.83162 0.0
C1144 C 0.48862 0.10406 0.77945 0.0
C1145 C 0.50512 0.09544 0.79513 0.0
C1146 C 0.5121 0.16775 0.95687 0.0
C1147 C 0.4692 0.08763 0.70646 0.0
C1148 C 0.43453 0.13285 0.827 0.0
C1149 C 0.43848 0.1538 0.77836 0.0
C1150 C 0.45121 0.12464 0.84582 0.0
C1151 C 0.47262 0.13725 0.81488 0.0
C1152 C 0.4767 0.15846 0.7659 0.0
C1153 C 0.45985 0.16648 0.74883 0.0
C1154 C 0.44559 0.10189 0.89775 0.0
C1155 C 0.49896 0.17272 0.73091 0.0
H1156 H 0.53953 0.14447 0.96585 0.0
H1157 H 0.50343 0.07738 0.75409 0.0
H1158 H 0.51413 0.18532 0.92424 0.0
H1159 H 0.49601 0.16036 0.98382 0.0
H1160 H 0.52765 0.17716 1.00598 0.0
H1161 H 0.46929 0.06869 0.67417 0.0
H1162 H 0.45172 0.07945 0.72427 0.0
H1163 H 0.47123 0.10267 0.66436 0.0
H1164 H 0.41829 0.12273 0.85072 0.0
H1165 H 0.46351 0.18284 0.71193 0.0
H1166 H 0.46085 0.10938 0.94643 0.0
H1167 H 0.44205 0.08145 0.86051 0.0
H1168 H 0.42983 0.09668 0.92504 0.0
H1169 H 0.51467 0.18402 0.77988 0.0
H1170 H 0.49975 0.18891 0.69452 0.0
H1171 H 0.50008 0.15572 0.69222 0.0
C1172 C 0.9291 0.2848 0.82993 0.0
C1173 C 0.92872 0.26076 0.85577 0.0
C1174 C 0.94563 0.31408 0.86996 0.0
C1175 C 0.96256 0.32 0.93801 0.0
C1176 C 0.96211 0.2958 0.9649 0.0
C1177 C 0.9453 0.26672 0.92394 0.0
C1178 C 0.94495 0.33878 0.83917 0.0
C1179 C 0.97971 0.30062 1.03643 0.0
C1180 C 0.01915 0.39753 0.99579 0.0
C1181 C 0.01432 0.411 0.06031 0.0
C1182 C 1.00273 0.36808 0.95634 0.0
C1183 C 0.98062 0.35135 0.98094 0.0
C1184 C 0.97578 0.36479 1.04654 0.0
C1185 C 0.99265 0.39404 0.08565 0.0
C1186 C 0.00899 0.35492 0.88755 0.0
C1187 C 0.9525 0.34843 0.07477 0.0
H1188 H 0.91636 0.28075 0.77809 0.0
H1189 H 0.94558 0.24864 0.94442 0.0
H1190 H 0.94181 0.35138 0.88698 0.0
H1191 H 0.96224 0.3542 0.82343 0.0
H1192 H 0.93093 0.33074 0.78537 0.0
H1193 H 0.97689 0.27965 1.05095 0.0
H1194 H 0.99792 0.31391 1.02432 0.0
H1195 H 0.97849 0.31314 0.08993 0.0
H1196 H 0.03572 0.41013 0.9752 0.0
H1197 H 0.98864 0.4038 0.13585 0.0
H1198 H 0.9961 0.34863 0.83174 0.0
H1199 H 0.00793 0.33462 0.90008 0.0
H1200 H 0.02702 0.37031 0.87672 0.0
H1201 H 0.93779 0.34207 1.02503 0.0
H1202 H 0.95141 0.36174 0.12682 0.0
H1203 H 0.94983 0.32792 0.09211 0.0
C1204 C 0.82625 0.63957 0.87833 0.0
C1205 C 0.83097 0.65342 0.81193 0.0
C1206 C 0.8039 0.62745 0.90116 0.0
C1207 C 0.78603 0.6301 0.85838 0.0
C1208 C 0.7905 0.64306 0.78918 0.0
C1209 C 0.81285 0.65454 0.76692 0.0
C1210 C 0.79951 0.61197 0.97156 0.0
C1211 C 0.77152 0.64426 0.73761 0.0
C1212 C 0.72439 0.58526 0.91241 0.0
C1213 C 0.72343 0.60666 0.96391 0.0
C1214 C 0.74409 0.59258 0.87503 0.0
C1215 C 0.76373 0.62193 0.89063 0.0
C1216 C 0.76243 0.64373 0.94013 0.0
C1217 C 0.74232 0.63597 0.97484 0.0
C1218 C 0.74349 0.56883 0.81761 0.0
C1219 C 0.78242 0.67542 0.95759 0.0
H1220 H 0.83985 0.63749 0.91098 0.0
H1221 H 0.81618 0.66439 0.71385 0.0
H1222 H 0.79901 0.62597 1.02275 0.0
H1223 H 0.7822 0.59094 0.95794 0.0
H1224 H 0.81342 0.60731 0.98958 0.0
H1225 H 0.77693 0.6521 0.68124 0.0
H1226 H 0.75511 0.62215 0.72187 0.0
H1227 H 0.76727 0.65916 0.77137 0.0
H1228 H 0.70997 0.56257 0.90238 0.0
H1229 H 0.7416 0.65309 1.01148 0.0
H1230 H 0.76085 0.57085 0.82514 0.0
H1231 H 0.73927 0.57115 0.75526 0.0
H1232 H 0.72986 0.54654 0.82533 0.0
H1233 H 0.78101 0.68832 1.00982 0.0
H1234 H 0.78229 0.68553 0.90458 0.0
H1235 H 0.79958 0.67702 0.96956 0.0
C1236 C 0.93809 0.64757 0.84391 0.0
C1237 C 0.92155 0.65247 0.875 0.0
C1238 C 0.95187 0.64009 0.89058 0.0
C1239 C 0.94889 0.63682 0.97062 0.0
C1240 C 0.93225 0.64181 1.00284 0.0
C1241 C 0.91871 0.64952 0.95452 0.0
C1242 C 0.96942 0.63524 0.85347 0.0
C1243 C 0.92855 0.63862 0.08792 0.0
C1244 C 0.96871 0.58879 1.05442 0.0
C1245 C 0.99136 0.6097 0.09868 0.0
C1246 C 0.95443 0.59731 1.01471 0.0
C1247 C 0.9629 0.62752 1.01904 0.0
C1248 C 0.9856 0.64875 0.06436 0.0
C1249 C 0.99952 0.63962 0.10338 0.0
C1250 C 0.93038 0.57394 0.96685 0.0
C1251 C 0.99541 0.68116 0.07016 0.0
H1252 H 0.94014 0.64929 0.78214 0.0
H1253 H 0.90568 0.65277 0.97845 0.0
H1254 H 0.98731 0.64949 0.89093 0.0
H1255 H 0.96446 0.61216 0.85113 0.0
H1256 H 0.97033 0.63992 0.79159 0.0
H1257 H 0.91549 0.64407 0.10482 0.0
H1258 H 0.92228 0.61576 0.09509 0.0
H1259 H 0.94554 0.65318 0.1304 0.0
H1260 H 0.962 0.56566 1.05139 0.0
H1261 H 0.01705 0.65604 0.13652 0.0
H1262 H 0.92997 0.5753 0.90224 0.0
H1263 H 0.91662 0.57756 0.98625 0.0
H1264 H 0.92573 0.55148 0.97336 0.0
H1265 H 0.99741 0.68688 1.00966 0.0
H1266 H 0.01286 0.69492 0.11087 0.0
H1267 H 0.98295 0.68675 0.09235 0.0
C1268 C 0.50717 0.41232 0.8655 0.0
C1269 C 0.52515 0.42432 0.93394 0.0
C1270 C 0.49081 0.3816 0.84164 0.0
C1271 C 0.49236 0.3617 0.88604 0.0
C1272 C 0.51084 0.37367 0.95412 0.0
C1273 C 0.52682 0.4045 0.97707 0.0
C1274 C 0.47174 0.37042 0.76856 0.0
C1275 C 0.51354 0.35384 1.00384 0.0
C1276 C 0.43665 0.28426 0.86948 0.0
C1277 C 0.44047 0.26624 0.81484 0.0
C1278 C 0.45327 0.3149 0.89338 0.0
C1279 C 0.47455 0.3286 0.86206 0.0
C1280 C 0.47859 0.31049 0.80722 0.0
C1281 C 0.46167 0.27985 0.78443 0.0
C1282 C 0.44755 0.33273 0.95058 0.0
C1283 C 0.50085 0.32354 0.77208 0.0
H1284 H 0.50577 0.42703 0.83035 0.0
H1285 H 0.54057 0.41312 1.02972 0.0
H1286 H 0.47405 0.35658 0.72174 0.0
H1287 H 0.45411 0.3564 0.78422 0.0
H1288 H 0.47198 0.38852 0.74281 0.0
H1289 H 0.52926 0.36619 1.05293 0.0
H1290 H 0.49754 0.34175 1.03069 0.0
H1291 H 0.51515 0.33729 0.9651 0.0
H1292 H 0.42045 0.27444 0.89351 0.0
H1293 H 0.46507 0.26653 0.74226 0.0
H1294 H 0.44228 0.34531 0.9162 0.0
H1295 H 0.46322 0.34871 0.99724 0.0
H1296 H 0.4328 0.31871 0.98068 0.0
H1297 H 0.50176 0.34013 0.73726 0.0
H1298 H 0.50181 0.30669 0.73192 0.0
H1299 H 0.51658 0.33503 0.82101 0.0
C1300 C 0.82367 0.17319 0.85726 0.0
C1301 C 0.82591 0.16804 0.77676 0.0
C1302 C 0.80188 0.16714 0.87819 0.0
C1303 C 0.78151 0.15547 0.81753 0.0
C1304 C 0.78377 0.15059 0.73617 0.0
C1305 C 0.80574 0.15685 0.71699 0.0
C1306 C 0.80056 0.1728 0.96572 0.0
C1307 C 0.76278 0.13805 0.66904 0.0
C1308 C 0.72101 0.1108 0.8796 0.0
C1309 C 0.71361 0.13087 0.88921 0.0
C1310 C 0.74261 0.11831 0.85497 0.0
C1311 C 0.75767 0.14682 0.83942 0.0
C1312 C 0.74997 0.16692 0.84625 0.0
C1313 C 0.72809 0.15871 0.87065 0.0
C1314 C 0.74959 0.09583 0.84767 0.0
C1315 C 0.76524 0.1975 0.83036 0.0
H1316 H 0.83895 0.18175 0.90433 0.0
H1317 H 0.80691 0.15239 0.65466 0.0
H1318 H 0.79344 0.18718 0.97538 0.0
H1319 H 0.78826 0.1518 0.98378 0.0
H1320 H 0.81808 0.18328 1.00551 0.0
H1321 H 0.76767 0.13735 0.60873 0.0
H1322 H 0.74925 0.11542 0.67446 0.0
H1323 H 0.75451 0.15126 0.67348 0.0
H1324 H 0.70999 0.08916 0.89314 0.0
H1325 H 0.72281 0.17455 0.87859 0.0
H1326 H 0.76597 0.10382 0.89157 0.0
H1327 H 0.75346 0.0926 0.78684 0.0
H1328 H 0.7356 0.07428 0.85863 0.0
H1329 H 0.78201 0.20955 0.87477 0.0
H1330 H 0.7564 0.2101 0.83417 0.0
H1331 H 0.76991 0.19655 0.76987 0.0
C1332 C 0.60051 0.01391 0.95272 0.0
C1333 C 0.60091 0.03684 1.00201 0.0
C1334 C 0.61132 0.99945 0.98268 0.0
C1335 C 0.62258 0.00768 0.06445 0.0
C1336 C 0.6228 0.03066 0.11454 0.0
C1337 C 0.61217 0.045 0.08274 0.0
C1338 C 0.61091 0.97552 0.92646 0.0
C1339 C 0.63419 0.04005 0.20221 0.0
C1340 C 0.63358 0.95494 0.1675 0.0
C1341 C 0.65804 0.96776 0.17279 0.0
C1342 C 0.62173 0.96728 0.1311 0.0
C1343 C 0.6345 0.99279 0.09764 0.0
C1344 C 0.65904 1.00498 0.09986 0.0
C1345 C 0.6705 0.99263 0.13828 0.0
C1346 C 0.5957 0.95374 0.13158 0.0
C1347 C 0.67345 0.03177 0.0641 0.0
H1348 H 0.59183 0.00735 0.89035 0.0
H1349 H 0.61237 0.06242 0.12174 0.0
H1350 H 0.62926 0.98136 0.92402 0.0
H1351 H 0.60201 0.95468 0.9492 0.0
H1352 H 0.60162 0.97177 0.86455 0.0
H1353 H 0.63185 0.05718 0.23416 0.0
H1354 H 0.62653 0.02086 0.2325 0.0
H1355 H 0.65338 0.04881 0.20798 0.0
H1356 H 0.62392 0.93604 0.19518 0.0
H1357 H 0.68944 1.00281 0.14276 0.0
H1358 H 0.58586 0.9481 0.0695 0.0
H1359 H 0.59284 0.96984 0.16669 0.0
H1360 H 0.58813 0.93361 0.15805 0.0
H1361 H 0.66429 0.02933 1.00319 0.0
H1362 H 0.69131 0.03595 0.05992 0.0
H1363 H 0.67558 0.0513 0.10209 0.0
C1364 C 0.14906 0.73432 0.3028 0.0
C1365 C 0.16847 0.74834 0.36691 0.0
C1366 C 0.1353 0.70325 0.27827 0.0
C1367 C 0.14111 0.68525 0.31734 0.0
C1368 C 0.16089 0.69935 0.38127 0.0
C1369 C 0.17403 0.73031 0.40537 0.0
C1370 C 0.11447 0.68965 0.21013 0.0
C1371 C 0.16823 0.68167 0.42484 0.0
C1372 C 0.09393 0.60329 0.30642 0.0
C1373 C 0.0993 0.58864 0.24658 0.0
C1374 C 0.10702 0.63434 0.32891 0.0
C1375 C 0.12654 0.65183 0.29223 0.0
C1376 C 0.13242 0.63714 0.23309 0.0
C1377 C 0.11883 0.60603 0.21105 0.0
C1378 C 0.09989 0.64847 0.39239 0.0
C1379 C 0.15312 0.65435 0.19258 0.0
H1380 H 0.14465 0.74762 0.27108 0.0
H1381 H 0.18889 0.74044 0.45484 0.0
H1382 H 0.11688 0.6768 0.16068 0.0
H1383 H 0.09808 0.67417 0.23088 0.0
H1384 H 0.11203 0.70635 0.18602 0.0
H1385 H 0.18446 0.69579 0.47122 0.0
H1386 H 0.15375 0.66668 0.45432 0.0
H1387 H 0.17148 0.66784 0.38146 0.0
H1388 H 0.0795 0.59041 0.3366 0.0
H1389 H 0.12347 0.59532 0.16527 0.0
H1390 H 0.09554 0.66355 0.36739 0.0
H1391 H 0.11485 0.66181 0.44359 0.0
H1392 H 0.08436 0.63206 0.41536 0.0
H1393 H 0.15025 0.66923 0.16002 0.0
H1394 H 0.15586 0.63989 0.14932 0.0
H1395 H 0.16951 0.66829 0.23825 0.0
C1396 C 0.40364 0.38039 0.10224 0.0
C1397 C 0.42831 0.39643 0.12754 0.0
C1398 C 0.38823 0.3686 0.15654 0.0
C1399 C 0.39757 0.37341 0.23886 0.0
C1400 C 0.42239 0.38959 0.26509 0.0
C1401 C 0.43742 0.40064 0.20914 0.0
C1402 C 0.36188 0.35122 0.12585 0.0
C1403 C 0.43309 0.39551 0.3525 0.0
C1404 C 0.35776 0.36864 0.38865 0.0
C1405 C 0.35024 0.34104 0.40826 0.0
C1406 C 0.37335 0.37953 0.33439 0.0
C1407 C 0.38134 0.36222 0.29773 0.0
C1408 C 0.37359 0.33417 0.31669 0.0
C1409 C 0.3583 0.32403 0.37229 0.0
C1410 C 0.38141 0.4097 0.31677 0.0
C1411 C 0.38138 0.31482 0.27806 0.0
H1412 H 0.39626 0.37739 1.03993 0.0
H1413 H 0.45637 0.41249 0.22952 0.0
H1414 H 0.3537 0.32932 0.14301 0.0
H1415 H 0.3538 0.36261 0.15382 0.0
H1416 H 0.35744 0.34813 0.05948 0.0
H1417 H 0.45271 0.40872 0.36341 0.0
H1418 H 0.42686 0.40742 0.38976 0.0
H1419 H 0.42723 0.37449 0.37322 0.0
H1420 H 0.35179 0.382 0.4171 0.0
H1421 H 0.35236 0.30259 0.38687 0.0
H1422 H 0.3761 0.40814 0.25176 0.0
H1423 H 0.40098 0.42378 0.33155 0.0
H1424 H 0.37392 0.4206 0.35138 0.0
H1425 H 0.37748 0.31183 0.21164 0.0
H1426 H 0.37255 0.29287 0.29512 0.0
H1427 H 0.40076 0.32547 0.29624 0.0
C1428 C 0.83736 0.68865 0.51402 0.0
C1429 C 0.85812 0.70763 0.57053 0.0
C1430 C 0.82363 0.69874 0.47878 0.0
C1431 C 0.83054 0.72853 0.50157 0.0
C1432 C 0.85148 0.74778 0.55866 0.0
C1433 C 0.8652 0.7373 0.5907 0.0
C1434 C 0.8015 0.67723 0.41801 0.0
C1435 C 0.85947 0.77942 0.58791 0.0
C1436 C 0.80625 0.76245 0.36578 0.0
C1437 C 0.7844 0.7533 0.38886 0.0
C1438 C 0.82194 0.75554 0.40357 0.0
C1439 C 0.81563 0.73925 0.46647 0.0
C1440 C 0.7947 0.73282 0.49541 0.0
C1441 C 0.77905 0.73917 0.4549 0.0
C1442 C 0.84524 0.76621 0.37593 0.0
C1443 C 0.78905 0.71984 0.57028 0.0
H1444 H 0.83139 0.66568 0.49885 0.0
H1445 H 0.88122 0.75243 0.63402 0.0
H1446 H 0.80214 0.6856 0.36142 0.0
H1447 H 0.79907 0.6552 0.40482 0.0
H1448 H 0.78568 0.67462 0.44 0.0
H1449 H 0.86964 0.78748 0.65038 0.0
H1450 H 0.87135 0.79317 0.54911 0.0
H1451 H 0.84442 0.78269 0.58628 0.0
H1452 H 0.81067 0.7739 0.31578 0.0
H1453 H 0.76247 0.73288 0.47451 0.0
H1454 H 0.85276 0.75273 0.38851 0.0
H1455 H 0.85803 0.78909 0.40785 0.0
H1456 H 0.84347 0.76666 0.31065 0.0
H1457 H 0.78391 0.69659 0.55834 0.0
H1458 H 0.77437 0.7208 0.59225 0.0
H1459 H 0.80489 0.73181 0.61887 0.0
C1460 C 0.31673 0.07347 0.67889 0.0
C1461 C 0.33845 0.08749 0.65189 0.0
C1462 C 0.30023 0.04276 0.6559 0.0
C1463 C 0.30502 0.025 0.60295 0.0
C1464 C 0.32671 0.03916 0.57397 0.0
C1465 C 0.34308 0.06985 0.59917 0.0
C1466 C 0.27767 0.02928 0.68931 0.0
C1467 C 0.33308 0.0218 0.51781 0.0
C1468 C 0.2728 0.94141 0.60175 0.0
C1469 C 0.25484 0.92903 0.53311 0.0
C1470 C 0.28907 0.97219 0.62475 0.0
C1471 C 0.28758 0.99179 0.57891 0.0
C1472 C 0.26923 0.97945 0.51025 0.0
C1473 C 0.25323 0.94857 0.48849 0.0
C1474 C 0.30794 0.9838 0.6987 0.0
C1475 C 0.26661 0.99896 0.45899 0.0
H1476 H 0.31256 0.08655 0.7187 0.0
H1477 H 0.35974 0.07999 0.57797 0.0
H1478 H 0.26216 0.01695 0.63961 0.0
H1479 H 0.27709 0.01338 0.72631 0.0
H1480 H 0.27599 0.04598 0.72717 0.0
H1481 H 0.34814 0.03619 0.48933 0.0
H1482 H 0.33814 0.00907 0.55239 0.0
H1483 H 0.31776 0.00595 0.46982 0.0
H1484 H 0.2742 0.92694 0.63795 0.0
H1485 H 0.23951 0.93968 0.43563 0.0
H1486 H 0.3056 0.99807 0.74396 0.0
H1487 H 0.32566 0.9975 0.68327 0.0
H1488 H 0.30753 0.96592 0.7263 0.0
H1489 H 0.26409 0.015 0.49612 0.0
H1490 H 0.25144 0.9863 0.40807 0.0
H1491 H 0.28301 0.0117 0.43461 0.0
C1492 C 0.95816 0.17066 0.70039 0.0
C1493 C 0.95093 0.19037 0.68809 0.0
C1494 C 0.98008 0.17566 0.68402 0.0
C1495 C 0.99534 0.20088 0.65322 0.0
C1496 C 0.98826 0.22104 0.64148 0.0
C1497 C 0.96641 0.21569 0.65951 0.0
C1498 C 0.98667 0.15353 0.69831 0.0
C1499 C 0.00361 0.24808 0.60811 0.0
C1500 C 0.06107 0.2279 0.65495 0.0
C1501 C 0.06072 0.21765 0.57499 0.0
C1502 C 0.03997 0.22199 0.68205 0.0
C1503 C 0.01786 0.20531 0.62827 0.0
C1504 C 0.01741 0.19385 0.54861 0.0
C1505 C 0.03865 0.20011 0.52323 0.0
C1506 C 0.04146 0.23453 0.76758 0.0
C1507 C 0.99448 0.17567 0.48903 0.0
H1508 H 0.94655 0.15097 0.72194 0.0
H1509 H 0.96134 0.23132 0.65008 0.0
H1510 H 0.98677 0.14227 0.63994 0.0
H1511 H 0.00474 0.16471 0.73444 0.0
H1512 H 0.97416 0.13671 0.72987 0.0
H1513 H 0.0062 0.2416 0.54763 0.0
H1514 H 0.99583 0.26179 0.60307 0.0
H1515 H 0.02131 0.26158 0.64715 0.0
H1516 H 0.07794 0.24165 0.69536 0.0
H1517 H 0.03806 0.19184 0.46152 0.0
H1518 H 0.02866 0.21706 0.79672 0.0
H1519 H 0.03663 0.25131 0.76802 0.0
H1520 H 0.05945 0.24487 0.80384 0.0
H1521 H 0.9824 0.15535 0.51045 0.0
H1522 H 0.99709 0.16946 0.42825 0.0
H1523 H 0.98559 0.18806 0.48425 0.0
C1524 C 0.31822 0.18747 0.73176 0.0
C1525 C 0.33633 0.19583 0.68638 0.0
C1526 C 0.30052 0.19436 0.71753 0.0
C1527 C 0.30104 0.21106 0.65776 0.0
C1528 C 0.3194 0.21953 0.61177 0.0
C1529 C 0.33635 0.21149 0.62589 0.0
C1530 C 0.28133 0.1837 0.76739 0.0
C1531 C 0.32176 0.23738 0.54731 0.0
C1532 C 0.24753 0.21549 0.56828 0.0
C1533 C 0.25138 0.24113 0.61581 0.0
C1534 C 0.26293 0.20502 0.58263 0.0
C1535 C 0.28316 0.22055 0.64542 0.0
C1536 C 0.28679 0.24608 0.69438 0.0
C1537 C 0.27075 0.25548 0.68031 0.0
C1538 C 0.25779 0.1775 0.52933 0.0
C1539 C 0.30807 0.26413 0.76093 0.0
H1540 H 0.31761 0.17501 0.77789 0.0
H1541 H 0.3502 0.21847 0.59098 0.0
H1542 H 0.28598 0.20161 0.81799 0.0
H1543 H 0.26409 0.17718 0.73129 0.0
H1544 H 0.27929 0.16473 0.79326 0.0
H1545 H 0.31649 0.22306 0.48759 0.0
H1546 H 0.31083 0.24726 0.549 0.0
H1547 H 0.34049 0.25531 0.55288 0.0
H1548 H 0.23264 0.20377 0.51878 0.0
H1549 H 0.27386 0.27483 0.71929 0.0
H1550 H 0.25854 0.16228 0.56645 0.0
H1551 H 0.2715 0.1832 0.49129 0.0
H1552 H 0.24018 0.16598 0.48954 0.0
H1553 H 0.30575 0.2522 0.81145 0.0
H1554 H 0.3107 0.28583 0.78413 0.0
H1555 H 0.32431 0.26775 0.73967 0.0
C1556 C 0.77923 0.95752 0.35791 0.0
C1557 C 0.75976 0.93846 0.39087 0.0
C1558 C 0.7956 0.98696 0.39708 0.0
C1559 C 0.79243 0.9982 0.47113 0.0
C1560 C 0.77252 0.97918 0.50391 0.0
C1561 C 0.75657 0.94979 0.46375 0.0
C1562 C 0.81647 0.00596 0.35931 0.0
C1563 C 0.7679 0.98995 0.58144 0.0
C1564 C 0.84532 0.06711 0.611 0.0
C1565 C 0.84197 0.0897 0.59366 0.0
C1566 C 0.82952 0.03751 0.57188 0.0
C1567 C 0.80962 0.02984 0.5135 0.0
C1568 C 0.80608 0.05252 0.49615 0.0
C1569 C 0.82216 0.08192 0.53605 0.0
C1570 C 0.83411 0.01434 0.59331 0.0
C1571 C 0.7852 0.04573 0.43506 0.0
H1572 H 0.78156 0.94952 0.30068 0.0
H1573 H 0.74156 0.93556 0.48996 0.0
H1574 H 0.81814 0.02731 0.35634 0.0
H1575 H 0.83292 0.01065 0.39703 0.0
H1576 H 0.81509 0.99529 0.29771 0.0
H1577 H 0.75297 0.97201 0.60305 0.0
H1578 H 0.78392 1.00039 0.62876 0.0
H1579 H 0.76373 0.00692 0.57256 0.0
H1580 H 0.86033 0.07251 0.65558 0.0
H1581 H 0.81916 0.09889 0.52185 0.0
H1582 H 0.83593 1.00293 0.53877 0.0
H1583 H 0.81888 0.99758 0.61659 0.0
H1584 H 0.85033 0.02367 0.6394 0.0
H1585 H 0.78585 0.0357 0.37564 0.0
H1586 H 0.78471 0.06561 0.4285 0.0
H1587 H 0.76851 0.02952 0.45277 0.0
C1588 C 0.9649 0.69999 0.67508 0.0
C1589 C 0.9468 0.70104 0.63022 0.0
C1590 C 0.98675 0.7101 0.65014 0.0
C1591 C 0.99033 0.72063 0.57698 0.0
C1592 C 0.97208 0.72206 0.53205 0.0
C1593 C 0.95068 0.71267 0.55994 0.0
C1594 C 0.00593 0.70931 0.70194 0.0
C1595 C 0.97487 0.73261 0.45316 0.0
C1596 C 0.05231 0.76534 0.52771 0.0
C1597 C 0.054 0.74383 0.47977 0.0
C1598 C 0.03203 0.75807 0.56122 0.0
C1599 C 0.01257 0.72866 0.54527 0.0
C1600 C 0.01419 0.7068 0.49757 0.0
C1601 C 0.0349 0.71453 0.46663 0.0
C1602 C 0.03139 0.78195 0.61338 0.0
C1603 C 0.99384 0.67521 0.47801 0.0
H1604 H 0.96211 0.69179 0.73066 0.0
H1605 H 0.93667 0.71359 0.52554 0.0
H1606 H 0.00978 0.69379 0.66926 0.0
H1607 H 0.02247 0.7313 0.71524 0.0
H1608 H 1.00094 0.70247 0.75969 0.0
H1609 H 0.95922 0.73282 0.42612 0.0
H1610 H 0.9907 0.75508 0.46182 0.0
H1611 H 0.9776 0.71814 0.41002 0.0
H1612 H 0.06663 0.78809 0.53785 0.0
H1613 H 0.03601 0.69743 0.43171 0.0
H1614 H 0.02776 0.77599 0.67281 0.0
H1615 H 0.01687 0.78417 0.58559 0.0
H1616 H 0.04824 0.80354 0.62268 0.0
H1617 H 0.98977 0.66653 0.53417 0.0
H1618 H 0.99763 0.66094 0.43847 0.0
H1619 H 0.97776 0.67378 0.44763 0.0
loop_
_geom_bond_atom_site_label_1
_geom_bond_atom_site_label_2
_geom_bond_distance
_geom_bond_site_symmetry_2
_ccdc_geom_bond_type
Eu0 N29 2.600 . S
Eu0 N35 2.562 . S
Eu0 O44 2.462 . S
Eu0 O45 2.373 . S
Eu0 O47 2.432 . S
Eu0 O48 2.291 1_655 S
Eu0 O52 2.335 1_655 S
Eu0 O55 2.372 1_655 S
Eu0 C64 2.787 . S
C1 N2 1.365 . S
C1 C4 1.405 . S
C1 C8 1.448 . S
N2 C1 1.365 . S
N2 C5 1.319 . S
N2 Eu11 2.600 . S
C3 C5 1.397 . S
C3 C6 1.367 . S
C3 H23 0.931 1_554 S
C4 C1 1.405 . S
C4 C6 1.403 . S
C4 C10 1.439 . S
C5 N2 1.319 . S
C5 C3 1.397 . S
C5 H16 0.930 . S
C6 C3 1.367 . S
C6 C4 1.403 . S
C6 H27 0.929 . S
C7 C8 1.430 . S
C7 C9 1.387 . S
C7 C13 1.404 . S
C8 C1 1.448 . S
C8 C7 1.430 . S
C8 N12 1.351 . S
C9 C7 1.387 . S
C9 C10 1.374 . S
C9 H24 0.931 . S
C10 C4 1.439 . S
C10 C9 1.374 . S
C10 H25 0.931 . S
Eu11 N2 2.600 . S
Eu11 N12 2.562 . S
Eu11 O46 2.335 . S
Eu11 O49 2.372 . S
Eu11 O50 2.462 . S
Eu11 O51 2.373 . S
Eu11 O53 2.432 . S
Eu11 O54 2.291 . S
Eu11 C75 2.787 . S
N12 C8 1.351 . S
N12 Eu11 2.562 . S
N12 C14 1.325 . S
C13 C7 1.404 . S
C13 C15 1.366 . S
C13 H21 0.930 . S
C14 N12 1.325 . S
C14 C15 1.416 . S
C14 H20 0.929 . S
C15 C13 1.366 . S
C15 C14 1.416 . S
C15 H17 0.930 . S
H16 C5 0.930 . S
H17 C15 0.930 . S
H18 C33 0.930 . S
H19 C40 0.930 . S
H20 C14 0.929 . S
H21 C13 0.930 . S
H22 C36 0.929 . S
H23 C3 0.931 1_556 S
H24 C9 0.931 . S
H25 C10 0.931 . S
H26 C31 0.931 . S
H27 C6 0.929 . S
H28 C39 0.930 . S
N29 Eu0 2.600 . S
N29 C30 1.365 . S
N29 C33 1.319 . S
C30 N29 1.365 . S
C30 C32 1.405 . S
C30 C38 1.448 . S
C31 H26 0.931 . S
C31 C33 1.397 . S
C31 C34 1.367 . S
C32 C30 1.405 . S
C32 C34 1.403 . S
C32 C65 1.439 . S
C33 H18 0.930 . S
C33 N29 1.319 . S
C33 C31 1.397 . S
C34 C31 1.367 . S
C34 C32 1.403 . S
C34 H41 0.929 . S
N35 Eu0 2.562 . S
N35 C36 1.325 1_554 S
N35 C38 1.351 . S
C36 H22 0.929 . S
C36 N35 1.325 1_556 S
C36 C40 1.416 . S
C37 C38 1.430 . S
C37 C39 1.404 1_554 S
C37 C66 1.387 . S
C38 C30 1.448 . S
C38 N35 1.351 . S
C38 C37 1.430 . S
C39 H28 0.930 . S
C39 C37 1.404 1_556 S
C39 C40 1.366 . S
C40 H19 0.930 . S
C40 C36 1.416 . S
C40 C39 1.366 . S
H41 C34 0.929 . S
H42 C65 0.931 . S
H43 C66 0.931 1_556 S
O44 Eu0 2.462 . S
O44 C64 1.252 . S
O45 Eu0 2.373 . S
O45 C56 1.249 . S
O46 Eu11 2.335 . S
O46 C56 1.264 1_455 S
O47 Eu0 2.432 . S
O47 C64 1.268 . S
O48 Eu0 2.291 1_455 S
O48 C63 1.255 . S
O49 Eu11 2.372 . S
O49 C63 1.257 . S
O50 Eu11 2.462 . S
O50 C75 1.252 . S
O51 Eu11 2.373 . S
O51 C67 1.249 . S
O52 Eu0 2.335 1_455 S
O52 C67 1.264 . S
O53 Eu11 2.432 . S
O53 C75 1.268 . S
O54 Eu11 2.291 . S
O54 C74 1.255 . S
O55 Eu0 2.372 1_455 S
O55 C74 1.257 . S
C56 O45 1.249 . S
C56 O46 1.264 1_655 S
C57 C60 1.382 . S
C57 C62 1.390 . S
C57 C64 1.506 . S
C58 C59 1.398 . S
C58 C62 1.392 . S
C59 C58 1.398 . S
C59 C61 1.372 . S
C59 H76 0.931 . S
C60 C57 1.382 . S
C60 C61 1.390 . S
C60 H77 0.931 . S
C61 C59 1.372 . S
C61 C60 1.390 . S
C61 H78 0.929 . S
C62 C57 1.390 . S
C62 C58 1.392 . S
C62 H79 0.930 1_554 S
C63 O48 1.255 . S
C63 O49 1.257 . S
C64 Eu0 2.787 . S
C64 O44 1.252 . S
C64 O47 1.268 . S
C64 C57 1.506 . S
C65 C32 1.439 . S
C65 H42 0.931 . S
C65 C66 1.374 . S
C66 C37 1.387 . S
C66 H43 0.931 1_554 S
C66 C65 1.374 . S
C67 O51 1.249 . S
C67 O52 1.264 . S
C68 C71 1.382 . S
C68 C72 1.390 . S
C68 C75 1.506 . S
C69 C70 1.398 . S
C69 C72 1.392 . S
C70 C69 1.398 . S
C70 C73 1.372 . S
C70 H80 0.931 . S
C71 C68 1.382 . S
C71 C73 1.390 . S
C71 H81 0.931 . S
C72 C68 1.390 . S
C72 C69 1.392 . S
C72 H82 0.930 . S
C73 C70 1.372 . S
C73 C71 1.390 . S
C73 H83 0.929 . S
C74 O54 1.255 . S
C74 O55 1.257 . S
C75 Eu11 2.787 . S
C75 O50 1.252 . S
C75 O53 1.268 . S
C75 C68 1.506 . S
H76 C59 0.931 . S
H77 C60 0.931 . S
H78 C61 0.929 . S
H79 C62 0.930 1_556 S
H80 C70 0.931 . S
H81 C71 0.931 . S
H82 C72 0.930 . S
H83 C73 0.929 . S
Eu84 N113 2.600 1_554 S
Eu84 N119 2.562 . S
Eu84 O128 2.462 . S
Eu84 O129 2.373 . S
Eu84 O131 2.432 . S
Eu84 O132 2.291 . S
Eu84 O136 2.335 . S
Eu84 O139 2.372 1_554 S
Eu84 C148 2.787 . S
C85 N86 1.365 . S
C85 C88 1.405 . S
C85 C92 1.448 . S
N86 C85 1.365 . S
N86 C89 1.319 . S
N86 Eu95 2.600 . S
C87 C89 1.397 . S
C87 C90 1.367 . S
C87 H107 0.931 . S
C88 C85 1.405 . S
C88 C90 1.403 . S
C88 C94 1.439 . S
C89 N86 1.319 . S
C89 C87 1.397 . S
C89 H100 0.930 . S
C90 C87 1.367 . S
C90 C88 1.403 . S
C90 H111 0.929 . S
C91 C92 1.430 1_556 S
C91 C93 1.387 1_556 S
C91 C97 1.404 . S
C92 C85 1.448 . S
C92 C91 1.430 1_554 S
C92 N96 1.351 1_554 S
C93 C91 1.387 1_554 S
C93 C94 1.374 . S
C93 H108 0.931 1_554 S
C94 C88 1.439 . S
C94 C93 1.374 . S
C94 H109 0.931 . S
Eu95 N86 2.600 . S
Eu95 N96 2.562 1_554 S
Eu95 O130 2.335 . S
Eu95 O133 2.372 . S
Eu95 O134 2.462 . S
Eu95 O135 2.373 . S
Eu95 O137 2.432 . S
Eu95 O138 2.291 1_554 S
Eu95 C159 2.787 . S
N96 C92 1.351 1_556 S
N96 Eu95 2.562 1_556 S
N96 C98 1.325 . S
C97 C91 1.404 . S
C97 C99 1.366 . S
C97 H105 0.930 . S
C98 N96 1.325 . S
C98 C99 1.416 . S
C98 H104 0.929 . S
C99 C97 1.366 . S
C99 C98 1.416 . S
C99 H101 0.930 . S
H100 C89 0.930 . S
H101 C99 0.930 . S
H102 C117 0.930 . S
H103 C124 0.930 . S
H104 C98 0.929 . S
H105 C97 0.930 . S
H106 C120 0.929 . S
H107 C87 0.931 . S
H108 C93 0.931 1_556 S
H109 C94 0.931 . S
H110 C115 0.931 . S
H111 C90 0.929 . S
H112 C123 0.930 . S
N113 Eu84 2.600 1_556 S
N113 C114 1.365 1_556 S
N113 C117 1.319 . S
C114 N113 1.365 1_554 S
C114 C116 1.405 . S
C114 C122 1.448 . S
C115 H110 0.931 . S
C115 C117 1.397 . S
C115 C118 1.367 . S
C116 C114 1.405 . S
C116 C118 1.403 1_554 S
C116 C149 1.439 . S
C117 H102 0.930 . S
C117 N113 1.319 . S
C117 C115 1.397 . S
C118 C115 1.367 . S
C118 C116 1.403 1_556 S
C118 H125 0.929 . S
N119 Eu84 2.562 . S
N119 C120 1.325 . S
N119 C122 1.351 . S
C120 H106 0.929 . S
C120 N119 1.325 . S
C120 C124 1.416 . S
C121 C122 1.430 . S
C121 C123 1.404 . S
C121 C150 1.387 . S
C122 C114 1.448 . S
C122 N119 1.351 . S
C122 C121 1.430 . S
C123 H112 0.930 . S
C123 C121 1.404 . S
C123 C124 1.366 . S
C124 H103 0.930 . S
C124 C120 1.416 . S
C124 C123 1.366 . S
H125 C118 0.929 . S
H126 C149 0.931 . S
H127 C150 0.931 . S
O128 Eu84 2.462 . S
O128 C148 1.252 . S
O129 Eu84 2.373 . S
O129 C140 1.249 . S
O130 Eu95 2.335 . S
O130 C140 1.264 . S
O131 Eu84 2.432 . S
O131 C148 1.268 . S
O132 Eu84 2.291 . S
O132 C147 1.255 . S
O133 Eu95 2.372 . S
O133 C147 1.257 . S
O134 Eu95 2.462 . S
O134 C159 1.252 . S
O135 Eu95 2.373 . S
O135 C151 1.249 . S
O136 Eu84 2.335 . S
O136 C151 1.264 . S
O137 Eu95 2.432 . S
O137 C159 1.268 . S
O138 Eu95 2.291 1_556 S
O138 C158 1.255 . S
O139 Eu84 2.372 1_556 S
O139 C158 1.257 . S
C140 O129 1.249 . S
C140 O130 1.264 . S
C141 C144 1.382 . S
C141 C146 1.390 . S
C141 C148 1.506 . S
C142 C143 1.398 . S
C142 C146 1.392 . S
C143 C142 1.398 . S
C143 C145 1.372 . S
C143 H160 0.931 . S
C144 C141 1.382 . S
C144 C145 1.390 . S
C144 H161 0.931 1_554 S
C145 C143 1.372 . S
C145 C144 1.390 . S
C145 H162 0.929 1_554 S
C146 C141 1.390 . S
C146 C142 1.392 . S
C146 H163 0.930 . S
C147 O132 1.255 . S
C147 O133 1.257 . S
C148 Eu84 2.787 . S
C148 O128 1.252 . S
C148 O131 1.268 . S
C148 C141 1.506 . S
C149 C116 1.439 . S
C149 H126 0.931 . S
C149 C150 1.374 . S
C150 C121 1.387 . S
C150 H127 0.931 . S
C150 C149 1.374 . S
C151 O135 1.249 . S
C151 O136 1.264 . S
C152 C155 1.382 . S
C152 C156 1.390 1_554 S
C152 C159 1.506 . S
C153 C154 1.398 1_556 S
C153 C156 1.392 . S
C154 C153 1.398 1_554 S
C154 C157 1.372 . S
C154 H164 0.931 . S
C155 C152 1.382 . S
C155 C157 1.390 . S
C155 H165 0.931 . S
C156 C152 1.390 1_556 S
C156 C153 1.392 . S
C156 H166 0.930 . S
C157 C154 1.372 . S
C157 C155 1.390 . S
C157 H167 0.929 . S
C158 O138 1.255 . S
C158 O139 1.257 . S
C159 Eu95 2.787 . S
C159 O134 1.252 . S
C159 O137 1.268 . S
C159 C152 1.506 . S
H160 C143 0.931 . S
H161 C144 0.931 1_556 S
H162 C145 0.929 1_556 S
H163 C146 0.930 . S
H164 C154 0.931 . S
H165 C155 0.931 . S
H166 C156 0.930 . S
H167 C157 0.929 . S
Eu168 N197 2.600 . S
Eu168 N203 2.562 1_554 S
Eu168 O212 2.462 1_554 S
Eu168 O213 2.373 . S
Eu168 O215 2.432 . S
Eu168 O216 2.291 1_554 S
Eu168 O220 2.335 . S
Eu168 O223 2.372 . S
Eu168 C232 2.787 . S
C169 N170 1.365 . S
C169 C172 1.405 . S
C169 C176 1.448 1_556 S
N170 C169 1.365 . S
N170 C173 1.319 . S
N170 Eu179 2.600 1_565 S
C171 C173 1.397 . S
C171 C174 1.367 . S
C171 H191 0.931 . S
C172 C169 1.405 . S
C172 C174 1.403 . S
C172 C178 1.439 . S
C173 N170 1.319 . S
C173 C171 1.397 . S
C173 H184 0.930 . S
C174 C171 1.367 . S
C174 C172 1.403 . S
C174 H195 0.929 . S
C175 C176 1.430 . S
C175 C177 1.387 1_554 S
C175 C181 1.404 . S
C176 C169 1.448 1_554 S
C176 C175 1.430 . S
C176 N180 1.351 . S
C177 C175 1.387 1_556 S
C177 C178 1.374 . S
C177 H192 0.931 1_556 S
C178 C172 1.439 . S
C178 C177 1.374 . S
C178 H193 0.931 . S
Eu179 N170 2.600 1_545 S
Eu179 N180 2.562 1_546 S
Eu179 O214 2.335 . S
Eu179 O217 2.372 . S
Eu179 O218 2.462 1_556 S
Eu179 O219 2.373 . S
Eu179 O221 2.432 . S
Eu179 O222 2.291 1_556 S
Eu179 C243 2.787 . S
N180 C176 1.351 . S
N180 Eu179 2.562 1_564 S
N180 C182 1.325 . S
C181 C175 1.404 . S
C181 C183 1.366 . S
C181 H189 0.930 . S
C182 N180 1.325 . S
C182 C183 1.416 . S
C182 H188 0.929 1_565 S
C183 C181 1.366 . S
C183 C182 1.416 . S
C183 H185 0.930 . S
H184 C173 0.930 . S
H185 C183 0.930 . S
H186 C201 0.930 . S
H187 C208 0.930 . S
H188 C182 0.929 1_545 S
H189 C181 0.930 . S
H190 C204 0.929 . S
H191 C171 0.931 . S
H192 C177 0.931 1_554 S
H193 C178 0.931 . S
H194 C199 0.931 . S
H195 C174 0.929 . S
H196 C207 0.930 . S
N197 Eu168 2.600 . S
N197 C198 1.365 . S
N197 C201 1.319 . S
C198 N197 1.365 . S
C198 C200 1.405 . S
C198 C206 1.448 . S
C199 H194 0.931 . S
C199 C201 1.397 . S
C199 C202 1.367 . S
C200 C198 1.405 . S
C200 C202 1.403 . S
C200 C233 1.439 . S
C201 H186 0.930 . S
C201 N197 1.319 . S
C201 C199 1.397 . S
C202 C199 1.367 . S
C202 C200 1.403 . S
C202 H209 0.929 . S
N203 Eu168 2.562 1_556 S
N203 C204 1.325 . S
N203 C206 1.351 1_556 S
C204 H190 0.929 . S
C204 N203 1.325 . S
C204 C208 1.416 . S
C205 C206 1.430 1_556 S
C205 C207 1.404 . S
C205 C234 1.387 1_556 S
C206 C198 1.448 . S
C206 N203 1.351 1_554 S
C206 C205 1.430 1_554 S
C207 H196 0.930 . S
C207 C205 1.404 . S
C207 C208 1.366 . S
C208 H187 0.930 . S
C208 C204 1.416 . S
C208 C207 1.366 . S
H209 C202 0.929 . S
H210 C233 0.931 . S
H211 C234 0.931 . S
O212 Eu168 2.462 1_556 S
O212 C232 1.252 1_556 S
O213 Eu168 2.373 . S
O213 C224 1.249 . S
O214 Eu179 2.335 . S
O214 C224 1.264 1_556 S
O215 Eu168 2.432 . S
O215 C232 1.268 . S
O216 Eu168 2.291 1_556 S
O216 C231 1.255 . S
O217 Eu179 2.372 . S
O217 C231 1.257 . S
O218 Eu179 2.462 1_554 S
O218 C243 1.252 1_554 S
O219 Eu179 2.373 . S
O219 C235 1.249 1_556 S
O220 Eu168 2.335 . S
O220 C235 1.264 . S
O221 Eu179 2.432 . S
O221 C243 1.268 . S
O222 Eu179 2.291 1_554 S
O222 C242 1.255 . S
O223 Eu168 2.372 . S
O223 C242 1.257 . S
C224 O213 1.249 . S
C224 O214 1.264 1_554 S
C225 C228 1.382 . S
C225 C230 1.390 1_554 S
C225 C232 1.506 . S
C226 C227 1.398 1_556 S
C226 C230 1.392 . S
C227 C226 1.398 1_554 S
C227 C229 1.372 . S
C227 H244 0.931 . S
C228 C225 1.382 . S
C228 C229 1.390 . S
C228 H245 0.931 . S
C229 C227 1.372 . S
C229 C228 1.390 . S
C229 H246 0.929 . S
C230 C225 1.390 1_556 S
C230 C226 1.392 . S
C230 H247 0.930 . S
C231 O216 1.255 . S
C231 O217 1.257 . S
C232 Eu168 2.787 . S
C232 O212 1.252 1_554 S
C232 O215 1.268 . S
C232 C225 1.506 . S
C233 C200 1.439 . S
C233 H210 0.931 . S
C233 C234 1.374 . S
C234 C205 1.387 1_554 S
C234 H211 0.931 . S
C234 C233 1.374 . S
C235 O219 1.249 1_554 S
C235 O220 1.264 . S
C236 C239 1.382 1_545 S
C236 C240 1.390 1_556 S
C236 C243 1.506 . S
C237 C238 1.398 . S
C237 C240 1.392 1_565 S
C238 C237 1.398 . S
C238 C241 1.372 1_554 S
C238 H248 0.931 . S
C239 C236 1.382 1_565 S
C239 C241 1.390 . S
C239 H249 0.931 . S
C240 C236 1.390 1_554 S
C240 C237 1.392 1_545 S
C240 H250 0.930 . S
C241 C238 1.372 1_556 S
C241 C239 1.390 . S
C241 H251 0.929 . S
C242 O222 1.255 . S
C242 O223 1.257 . S
C243 Eu179 2.787 . S
C243 O218 1.252 1_556 S
C243 O221 1.268 . S
C243 C236 1.506 . S
H244 C227 0.931 . S
H245 C228 0.931 . S
H246 C229 0.929 . S
H247 C230 0.930 . S
H248 C238 0.931 . S
H249 C239 0.931 . S
H250 C240 0.930 . S
H251 C241 0.929 . S
Eu252 N281 2.600 . S
Eu252 N287 2.562 . S
Eu252 O296 2.462 . S
Eu252 O297 2.373 . S
Eu252 O299 2.432 . S
Eu252 O300 2.291 . S
Eu252 O304 2.335 . S
Eu252 O307 2.372 . S
Eu252 C316 2.787 . S
C253 N254 1.365 . S
C253 C256 1.405 . S
C253 C260 1.448 . S
N254 C253 1.365 . S
N254 C257 1.319 . S
N254 Eu263 2.600 . S
C255 C257 1.397 . S
C255 C258 1.367 . S
C255 H275 0.931 . S
C256 C253 1.405 . S
C256 C258 1.403 . S
C256 C262 1.439 . S
C257 N254 1.319 . S
C257 C255 1.397 . S
C257 H268 0.930 . S
C258 C255 1.367 . S
C258 C256 1.403 . S
C258 H279 0.929 . S
C259 C260 1.430 . S
C259 C261 1.387 . S
C259 C265 1.404 . S
C260 C253 1.448 . S
C260 C259 1.430 . S
C260 N264 1.351 . S
C261 C259 1.387 . S
C261 C262 1.374 . S
C261 H276 0.931 . S
C262 C256 1.439 . S
C262 C261 1.374 . S
C262 H277 0.931 . S
Eu263 N254 2.600 . S
Eu263 N264 2.562 . S
Eu263 O298 2.335 . S
Eu263 O301 2.372 . S
Eu263 O302 2.462 . S
Eu263 O303 2.373 . S
Eu263 O305 2.432 . S
Eu263 O306 2.291 . S
Eu263 C327 2.787 . S
N264 C260 1.351 . S
N264 Eu263 2.562 . S
N264 C266 1.325 . S
C265 C259 1.404 . S
C265 C267 1.366 . S
C265 H273 0.930 . S
C266 N264 1.325 . S
C266 C267 1.416 . S
C266 H272 0.929 . S
C267 C265 1.366 . S
C267 C266 1.416 . S
C267 H269 0.930 . S
H268 C257 0.930 . S
H269 C267 0.930 . S
H270 C285 0.930 . S
H271 C292 0.930 . S
H272 C266 0.929 . S
H273 C265 0.930 . S
H274 C288 0.929 . S
H275 C255 0.931 . S
H276 C261 0.931 . S
H277 C262 0.931 . S
H278 C283 0.931 . S
H279 C258 0.929 . S
H280 C291 0.930 1_556 S
N281 Eu252 2.600 . S
N281 C282 1.365 . S
N281 C285 1.319 . S
C282 N281 1.365 . S
C282 C284 1.405 . S
C282 C290 1.448 . S
C283 H278 0.931 . S
C283 C285 1.397 . S
C283 C286 1.367 . S
C284 C282 1.405 . S
C284 C286 1.403 . S
C284 C317 1.439 . S
C285 H270 0.930 . S
C285 N281 1.319 . S
C285 C283 1.397 . S
C286 C283 1.367 . S
C286 C284 1.403 . S
C286 H293 0.929 . S
N287 Eu252 2.562 . S
N287 C288 1.325 . S
N287 C290 1.351 . S
C288 H274 0.929 . S
C288 N287 1.325 . S
C288 C292 1.416 1_554 S
C289 C290 1.430 . S
C289 C291 1.404 . S
C289 C318 1.387 . S
C290 C282 1.448 . S
C290 N287 1.351 . S
C290 C289 1.430 . S
C291 H280 0.930 1_554 S
C291 C289 1.404 . S
C291 C292 1.366 1_554 S
C292 H271 0.930 . S
C292 C288 1.416 1_556 S
C292 C291 1.366 1_556 S
H293 C286 0.929 . S
H294 C317 0.931 . S
H295 C318 0.931 . S
O296 Eu252 2.462 . S
O296 C316 1.252 . S
O297 Eu252 2.373 . S
O297 C308 1.249 . S
O298 Eu263 2.335 . S
O298 C308 1.264 . S
O299 Eu252 2.432 . S
O299 C316 1.268 . S
O300 Eu252 2.291 . S
O300 C315 1.255 . S
O301 Eu263 2.372 . S
O301 C315 1.257 . S
O302 Eu263 2.462 . S
O302 C327 1.252 . S
O303 Eu263 2.373 . S
O303 C319 1.249 . S
O304 Eu252 2.335 . S
O304 C319 1.264 . S
O305 Eu263 2.432 . S
O305 C327 1.268 . S
O306 Eu263 2.291 . S
O306 C326 1.255 . S
O307 Eu252 2.372 . S
O307 C326 1.257 . S
C308 O297 1.249 . S
C308 O298 1.264 . S
C309 C312 1.382 . S
C309 C314 1.390 . S
C309 C316 1.506 . S
C310 C311 1.398 . S
C310 C314 1.392 . S
C311 C310 1.398 . S
C311 C313 1.372 . S
C311 H328 0.931 . S
C312 C309 1.382 . S
C312 C313 1.390 . S
C312 H329 0.931 . S
C313 C311 1.372 . S
C313 C312 1.390 . S
C313 H330 0.929 . S
C314 C309 1.390 . S
C314 C310 1.392 . S
C314 H331 0.930 . S
C315 O300 1.255 . S
C315 O301 1.257 . S
C316 Eu252 2.787 . S
C316 O296 1.252 . S
C316 O299 1.268 . S
C316 C309 1.506 . S
C317 C284 1.439 . S
C317 H294 0.931 . S
C317 C318 1.374 . S
C318 C289 1.387 . S
C318 H295 0.931 . S
C318 C317 1.374 . S
C319 O303 1.249 . S
C319 O304 1.264 . S
C320 C323 1.382 . S
C320 C324 1.390 . S
C320 C327 1.506 . S
C321 C322 1.398 . S
C321 C324 1.392 . S
C322 C321 1.398 . S
C322 C325 1.372 . S
C322 H332 0.931 . S
C323 C320 1.382 . S
C323 C325 1.390 . S
C323 H333 0.931 . S
C324 C320 1.390 . S
C324 C321 1.392 . S
C324 H334 0.930 . S
C325 C322 1.372 . S
C325 C323 1.390 . S
C325 H335 0.929 . S
C326 O306 1.255 . S
C326 O307 1.257 . S
C327 Eu263 2.787 . S
C327 O302 1.252 . S
C327 O305 1.268 . S
C327 C320 1.506 . S
H328 C311 0.931 . S
H329 C312 0.931 . S
H330 C313 0.929 . S
H331 C314 0.930 . S
H332 C322 0.931 . S
H333 C323 0.931 . S
H334 C324 0.930 . S
H335 C325 0.929 . S
Eu336 N365 2.600 . S
Eu336 N371 2.562 . S
Eu336 O380 2.462 . S
Eu336 O381 2.373 . S
Eu336 O383 2.432 . S
Eu336 O384 2.291 . S
Eu336 O388 2.335 . S
Eu336 O391 2.372 . S
Eu336 C400 2.787 . S
C337 N338 1.365 . S
C337 C340 1.405 . S
C337 C344 1.448 . S
N338 C337 1.365 . S
N338 C341 1.319 . S
N338 Eu347 2.600 . S
C339 C341 1.397 . S
C339 C342 1.367 . S
C339 H359 0.931 . S
C340 C337 1.405 . S
C340 C342 1.403 . S
C340 C346 1.439 . S
C341 N338 1.319 . S
C341 C339 1.397 . S
C341 H352 0.930 . S
C342 C339 1.367 . S
C342 C340 1.403 . S
C342 H363 0.929 . S
C343 C344 1.430 . S
C343 C345 1.387 . S
C343 C349 1.404 . S
C344 C337 1.448 . S
C344 C343 1.430 . S
C344 N348 1.351 . S
C345 C343 1.387 . S
C345 C346 1.374 . S
C345 H360 0.931 . S
C346 C340 1.439 . S
C346 C345 1.374 . S
C346 H361 0.931 . S
Eu347 N338 2.600 . S
Eu347 N348 2.562 . S
Eu347 O382 2.335 . S
Eu347 O385 2.372 . S
Eu347 O386 2.462 . S
Eu347 O387 2.373 . S
Eu347 O389 2.432 . S
Eu347 O390 2.291 . S
Eu347 C411 2.787 . S
N348 C344 1.351 . S
N348 Eu347 2.562 . S
N348 C350 1.325 . S
C349 C343 1.404 . S
C349 C351 1.366 . S
C349 H357 0.930 . S
C350 N348 1.325 . S
C350 C351 1.416 . S
C350 H356 0.929 . S
C351 C349 1.366 . S
C351 C350 1.416 . S
C351 H353 0.930 . S
H352 C341 0.930 . S
H353 C351 0.930 . S
H354 C369 0.930 . S
H355 C376 0.930 . S
H356 C350 0.929 . S
H357 C349 0.930 . S
H358 C372 0.929 . S
H359 C339 0.931 . S
H360 C345 0.931 . S
H361 C346 0.931 . S
H362 C367 0.931 . S
H363 C342 0.929 . S
H364 C375 0.930 . S
N365 Eu336 2.600 . S
N365 C366 1.365 . S
N365 C369 1.319 . S
C366 N365 1.365 . S
C366 C368 1.405 . S
C366 C374 1.448 . S
C367 H362 0.931 . S
C367 C369 1.397 . S
C367 C370 1.367 . S
C368 C366 1.405 . S
C368 C370 1.403 . S
C368 C401 1.439 . S
C369 H354 0.930 . S
C369 N365 1.319 . S
C369 C367 1.397 . S
C370 C367 1.367 . S
C370 C368 1.403 . S
C370 H377 0.929 . S
N371 Eu336 2.562 . S
N371 C372 1.325 . S
N371 C374 1.351 . S
C372 H358 0.929 . S
C372 N371 1.325 . S
C372 C376 1.416 . S
C373 C374 1.430 . S
C373 C375 1.404 . S
C373 C402 1.387 . S
C374 C366 1.448 . S
C374 N371 1.351 . S
C374 C373 1.430 . S
C375 H364 0.930 . S
C375 C373 1.404 . S
C375 C376 1.366 . S
C376 H355 0.930 . S
C376 C372 1.416 . S
C376 C375 1.366 . S
H377 C370 0.929 . S
H378 C401 0.931 . S
H379 C402 0.931 . S
O380 Eu336 2.462 . S
O380 C400 1.252 . S
O381 Eu336 2.373 . S
O381 C392 1.249 . S
O382 Eu347 2.335 . S
O382 C392 1.264 . S
O383 Eu336 2.432 . S
O383 C400 1.268 . S
O384 Eu336 2.291 . S
O384 C399 1.255 . S
O385 Eu347 2.372 . S
O385 C399 1.257 . S
O386 Eu347 2.462 . S
O386 C411 1.252 . S
O387 Eu347 2.373 . S
O387 C403 1.249 . S
O388 Eu336 2.335 . S
O388 C403 1.264 . S
O389 Eu347 2.432 . S
O389 C411 1.268 . S
O390 Eu347 2.291 . S
O390 C410 1.255 . S
O391 Eu336 2.372 . S
O391 C410 1.257 . S
C392 O381 1.249 . S
C392 O382 1.264 . S
C393 C396 1.382 . S
C393 C398 1.390 . S
C393 C400 1.506 . S
C394 C395 1.398 . S
C394 C398 1.392 . S
C395 C394 1.398 . S
C395 C397 1.372 . S
C395 H412 0.931 . S
C396 C393 1.382 . S
C396 C397 1.390 . S
C396 H413 0.931 . S
C397 C395 1.372 . S
C397 C396 1.390 . S
C397 H414 0.929 . S
C398 C393 1.390 . S
C398 C394 1.392 . S
C398 H415 0.930 . S
C399 O384 1.255 . S
C399 O385 1.257 . S
C400 Eu336 2.787 . S
C400 O380 1.252 . S
C400 O383 1.268 . S
C400 C393 1.506 . S
C401 C368 1.439 . S
C401 H378 0.931 . S
C401 C402 1.374 . S
C402 C373 1.387 . S
C402 H379 0.931 . S
C402 C401 1.374 . S
C403 O387 1.249 . S
C403 O388 1.264 . S
C404 C407 1.382 . S
C404 C408 1.390 . S
C404 C411 1.506 . S
C405 C406 1.398 . S
C405 C408 1.392 . S
C406 C405 1.398 . S
C406 C409 1.372 . S
C406 H416 0.931 . S
C407 C404 1.382 . S
C407 C409 1.390 . S
C407 H417 0.931 . S
C408 C404 1.390 . S
C408 C405 1.392 . S
C408 H418 0.930 . S
C409 C406 1.372 . S
C409 C407 1.390 . S
C409 H419 0.929 . S
C410 O390 1.255 . S
C410 O391 1.257 . S
C411 Eu347 2.787 . S
C411 O386 1.252 . S
C411 O389 1.268 . S
C411 C404 1.506 . S
H412 C395 0.931 . S
H413 C396 0.931 . S
H414 C397 0.929 . S
H415 C398 0.930 . S
H416 C406 0.931 . S
H417 C407 0.931 . S
H418 C408 0.930 . S
H419 C409 0.929 . S
Eu420 N449 2.600 . S
Eu420 N455 2.562 . S
Eu420 O464 2.462 . S
Eu420 O465 2.373 . S
Eu420 O467 2.432 . S
Eu420 O468 2.291 . S
Eu420 O472 2.335 . S
Eu420 O475 2.372 . S
Eu420 C484 2.787 . S
C421 N422 1.365 . S
C421 C424 1.405 . S
C421 C428 1.448 . S
N422 C421 1.365 . S
N422 C425 1.319 . S
N422 Eu431 2.600 . S
C423 C425 1.397 . S
C423 C426 1.367 . S
C423 H443 0.931 . S
C424 C421 1.405 . S
C424 C426 1.403 . S
C424 C430 1.439 . S
C425 N422 1.319 . S
C425 C423 1.397 . S
C425 H436 0.930 . S
C426 C423 1.367 . S
C426 C424 1.403 . S
C426 H447 0.929 . S
C427 C428 1.430 . S
C427 C429 1.387 . S
C427 C433 1.404 . S
C428 C421 1.448 . S
C428 C427 1.430 . S
C428 N432 1.351 . S
C429 C427 1.387 . S
C429 C430 1.374 . S
C429 H444 0.931 . S
C430 C424 1.439 . S
C430 C429 1.374 . S
C430 H445 0.931 . S
Eu431 N422 2.600 . S
Eu431 N432 2.562 . S
Eu431 O466 2.335 . S
Eu431 O469 2.372 . S
Eu431 O470 2.462 . S
Eu431 O471 2.373 . S
Eu431 O473 2.432 . S
Eu431 O474 2.291 . S
Eu431 C495 2.787 . S
N432 C428 1.351 . S
N432 Eu431 2.562 . S
N432 C434 1.325 . S
C433 C427 1.404 . S
C433 C435 1.366 . S
C433 H441 0.930 . S
C434 N432 1.325 . S
C434 C435 1.416 . S
C434 H440 0.929 . S
C435 C433 1.366 . S
C435 C434 1.416 . S
C435 H437 0.930 . S
H436 C425 0.930 . S
H437 C435 0.930 . S
H438 C453 0.930 . S
H439 C460 0.930 . S
H440 C434 0.929 . S
H441 C433 0.930 . S
H442 C456 0.929 . S
H443 C423 0.931 . S
H444 C429 0.931 . S
H445 C430 0.931 . S
H446 C451 0.931 . S
H447 C426 0.929 . S
H448 C459 0.930 . S
N449 Eu420 2.600 . S
N449 C450 1.365 . S
N449 C453 1.319 . S
C450 N449 1.365 . S
C450 C452 1.405 . S
C450 C458 1.448 . S
C451 H446 0.931 . S
C451 C453 1.397 . S
C451 C454 1.367 . S
C452 C450 1.405 . S
C452 C454 1.403 . S
C452 C485 1.439 . S
C453 H438 0.930 . S
C453 N449 1.319 . S
C453 C451 1.397 . S
C454 C451 1.367 . S
C454 C452 1.403 . S
C454 H461 0.929 . S
N455 Eu420 2.562 . S
N455 C456 1.325 . S
N455 C458 1.351 . S
C456 H442 0.929 . S
C456 N455 1.325 . S
C456 C460 1.416 . S
C457 C458 1.430 . S
C457 C459 1.404 . S
C457 C486 1.387 . S
C458 C450 1.448 . S
C458 N455 1.351 . S
C458 C457 1.430 . S
C459 H448 0.930 . S
C459 C457 1.404 . S
C459 C460 1.366 . S
C460 H439 0.930 . S
C460 C456 1.416 . S
C460 C459 1.366 . S
H461 C454 0.929 . S
H462 C485 0.931 . S
H463 C486 0.931 . S
O464 Eu420 2.462 . S
O464 C484 1.252 . S
O465 Eu420 2.373 . S
O465 C476 1.249 . S
O466 Eu431 2.335 . S
O466 C476 1.264 . S
O467 Eu420 2.432 . S
O467 C484 1.268 . S
O468 Eu420 2.291 . S
O468 C483 1.255 . S
O469 Eu431 2.372 . S
O469 C483 1.257 . S
O470 Eu431 2.462 . S
O470 C495 1.252 . S
O471 Eu431 2.373 . S
O471 C487 1.249 . S
O472 Eu420 2.335 . S
O472 C487 1.264 . S
O473 Eu431 2.432 . S
O473 C495 1.268 . S
O474 Eu431 2.291 . S
O474 C494 1.255 . S
O475 Eu420 2.372 . S
O475 C494 1.257 . S
C476 O465 1.249 . S
C476 O466 1.264 . S
C477 C480 1.382 . S
C477 C482 1.390 . S
C477 C484 1.506 . S
C478 C479 1.398 . S
C478 C482 1.392 . S
C479 C478 1.398 . S
C479 C481 1.372 . S
C479 H496 0.931 . S
C480 C477 1.382 . S
C480 C481 1.390 . S
C480 H497 0.931 . S
C481 C479 1.372 . S
C481 C480 1.390 . S
C481 H498 0.929 . S
C482 C477 1.390 . S
C482 C478 1.392 . S
C482 H499 0.930 . S
C483 O468 1.255 . S
C483 O469 1.257 . S
C484 Eu420 2.787 . S
C484 O464 1.252 . S
C484 O467 1.268 . S
C484 C477 1.506 . S
C485 C452 1.439 . S
C485 H462 0.931 . S
C485 C486 1.374 . S
C486 C457 1.387 . S
C486 H463 0.931 . S
C486 C485 1.374 . S
C487 O471 1.249 . S
C487 O472 1.264 . S
C488 C491 1.382 . S
C488 C492 1.390 . S
C488 C495 1.506 . S
C489 C490 1.398 . S
C489 C492 1.392 . S
C490 C489 1.398 . S
C490 C493 1.372 . S
C490 H500 0.931 . S
C491 C488 1.382 . S
C491 C493 1.390 . S
C491 H501 0.931 . S
C492 C488 1.390 . S
C492 C489 1.392 . S
C492 H502 0.930 . S
C493 C490 1.372 . S
C493 C491 1.390 . S
C493 H503 0.929 . S
C494 O474 1.255 . S
C494 O475 1.257 . S
C495 Eu431 2.787 . S
C495 O470 1.252 . S
C495 O473 1.268 . S
C495 C488 1.506 . S
H496 C479 0.931 . S
H497 C480 0.931 . S
H498 C481 0.929 . S
H499 C482 0.930 . S
H500 C490 0.931 . S
H501 C491 0.931 . S
H502 C492 0.930 . S
H503 C493 0.929 . S
Eu504 N533 2.600 . S
Eu504 N539 2.562 . S
Eu504 O548 2.462 . S
Eu504 O549 2.373 . S
Eu504 O551 2.432 . S
Eu504 O552 2.291 . S
Eu504 O556 2.335 . S
Eu504 O559 2.372 . S
Eu504 C568 2.787 . S
C505 N506 1.365 . S
C505 C508 1.405 . S
C505 C512 1.448 . S
N506 C505 1.365 . S
N506 C509 1.319 . S
N506 Eu515 2.600 . S
C507 C509 1.397 . S
C507 C510 1.367 . S
C507 H527 0.931 . S
C508 C505 1.405 . S
C508 C510 1.403 . S
C508 C514 1.439 . S
C509 N506 1.319 . S
C509 C507 1.397 . S
C509 H520 0.930 . S
C510 C507 1.367 . S
C510 C508 1.403 . S
C510 H531 0.929 . S
C511 C512 1.430 . S
C511 C513 1.387 . S
C511 C517 1.404 . S
C512 C505 1.448 . S
C512 C511 1.430 . S
C512 N516 1.351 . S
C513 C511 1.387 . S
C513 C514 1.374 . S
C513 H528 0.931 . S
C514 C508 1.439 . S
C514 C513 1.374 . S
C514 H529 0.931 . S
Eu515 N506 2.600 . S
Eu515 N516 2.562 . S
Eu515 O550 2.335 . S
Eu515 O553 2.372 . S
Eu515 O554 2.462 . S
Eu515 O555 2.373 . S
Eu515 O557 2.432 . S
Eu515 O558 2.291 . S
Eu515 C579 2.787 . S
N516 C512 1.351 . S
N516 Eu515 2.562 . S
N516 C518 1.325 . S
C517 C511 1.404 . S
C517 C519 1.366 . S
C517 H525 0.930 . S
C518 N516 1.325 . S
C518 C519 1.416 . S
C518 H524 0.929 . S
C519 C517 1.366 . S
C519 C518 1.416 . S
C519 H521 0.930 . S
H520 C509 0.930 . S
H521 C519 0.930 . S
H522 C537 0.930 . S
H523 C544 0.930 . S
H524 C518 0.929 . S
H525 C517 0.930 . S
H526 C540 0.929 . S
H527 C507 0.931 . S
H528 C513 0.931 . S
H529 C514 0.931 . S
H530 C535 0.931 . S
H531 C510 0.929 . S
H532 C543 0.930 . S
N533 Eu504 2.600 . S
N533 C534 1.365 . S
N533 C537 1.319 . S
C534 N533 1.365 . S
C534 C536 1.405 . S
C534 C542 1.448 . S
C535 H530 0.931 . S
C535 C537 1.397 . S
C535 C538 1.367 . S
C536 C534 1.405 . S
C536 C538 1.403 . S
C536 C569 1.439 . S
C537 H522 0.930 . S
C537 N533 1.319 . S
C537 C535 1.397 . S
C538 C535 1.367 . S
C538 C536 1.403 . S
C538 H545 0.929 . S
N539 Eu504 2.562 . S
N539 C540 1.325 . S
N539 C542 1.351 . S
C540 H526 0.929 . S
C540 N539 1.325 . S
C540 C544 1.416 . S
C541 C542 1.430 . S
C541 C543 1.404 . S
C541 C570 1.387 . S
C542 C534 1.448 . S
C542 N539 1.351 . S
C542 C541 1.430 . S
C543 H532 0.930 . S
C543 C541 1.404 . S
C543 C544 1.366 . S
C544 H523 0.930 . S
C544 C540 1.416 . S
C544 C543 1.366 . S
H545 C538 0.929 . S
H546 C569 0.931 . S
H547 C570 0.931 . S
O548 Eu504 2.462 . S
O548 C568 1.252 . S
O549 Eu504 2.373 . S
O549 C560 1.249 . S
O550 Eu515 2.335 . S
O550 C560 1.264 . S
O551 Eu504 2.432 . S
O551 C568 1.268 . S
O552 Eu504 2.291 . S
O552 C567 1.255 . S
O553 Eu515 2.372 . S
O553 C567 1.257 . S
O554 Eu515 2.462 . S
O554 C579 1.252 . S
O555 Eu515 2.373 . S
O555 C571 1.249 . S
O556 Eu504 2.335 . S
O556 C571 1.264 . S
O557 Eu515 2.432 . S
O557 C579 1.268 . S
O558 Eu515 2.291 . S
O558 C578 1.255 . S
O559 Eu504 2.372 . S
O559 C578 1.257 . S
C560 O549 1.249 . S
C560 O550 1.264 . S
C561 C564 1.382 1_556 S
C561 C566 1.390 1_556 S
C561 C568 1.506 . S
C562 C563 1.398 . S
C562 C566 1.392 . S
C563 C562 1.398 . S
C563 C565 1.372 . S
C563 H580 0.931 . S
C564 C561 1.382 1_554 S
C564 C565 1.390 . S
C564 H581 0.931 1_554 S
C565 C563 1.372 . S
C565 C564 1.390 . S
C565 H582 0.929 . S
C566 C561 1.390 1_554 S
C566 C562 1.392 . S
C566 H583 0.930 . S
C567 O552 1.255 . S
C567 O553 1.257 . S
C568 Eu504 2.787 . S
C568 O548 1.252 . S
C568 O551 1.268 . S
C568 C561 1.506 . S
C569 C536 1.439 . S
C569 H546 0.931 . S
C569 C570 1.374 . S
C570 C541 1.387 . S
C570 H547 0.931 . S
C570 C569 1.374 . S
C571 O555 1.249 . S
C571 O556 1.264 . S
C572 C575 1.382 . S
C572 C576 1.390 . S
C572 C579 1.506 . S
C573 C574 1.398 . S
C573 C576 1.392 . S
C574 C573 1.398 . S
C574 C577 1.372 . S
C574 H584 0.931 . S
C575 C572 1.382 . S
C575 C577 1.390 . S
C575 H585 0.931 . S
C576 C572 1.390 . S
C576 C573 1.392 . S
C576 H586 0.930 . S
C577 C574 1.372 . S
C577 C575 1.390 . S
C577 H587 0.929 . S
C578 O558 1.255 . S
C578 O559 1.257 . S
C579 Eu515 2.787 . S
C579 O554 1.252 . S
C579 O557 1.268 . S
C579 C572 1.506 . S
H580 C563 0.931 . S
H581 C564 0.931 1_556 S
H582 C565 0.929 . S
H583 C566 0.930 . S
H584 C574 0.931 . S
H585 C575 0.931 . S
H586 C576 0.930 . S
H587 C577 0.929 . S
Eu588 N617 2.600 . S
Eu588 N623 2.562 . S
Eu588 O632 2.462 . S
Eu588 O633 2.373 . S
Eu588 O635 2.432 . S
Eu588 O636 2.291 . S
Eu588 O640 2.335 . S
Eu588 O643 2.372 . S
Eu588 C652 2.787 . S
C589 N590 1.365 . S
C589 C592 1.405 . S
C589 C596 1.448 . S
N590 C589 1.365 . S
N590 C593 1.319 . S
N590 Eu599 2.600 . S
C591 C593 1.397 . S
C591 C594 1.367 . S
C591 H611 0.931 . S
C592 C589 1.405 . S
C592 C594 1.403 . S
C592 C598 1.439 . S
C593 N590 1.319 . S
C593 C591 1.397 . S
C593 H604 0.930 . S
C594 C591 1.367 . S
C594 C592 1.403 . S
C594 H615 0.929 . S
C595 C596 1.430 . S
C595 C597 1.387 . S
C595 C601 1.404 . S
C596 C589 1.448 . S
C596 C595 1.430 . S
C596 N600 1.351 . S
C597 C595 1.387 . S
C597 C598 1.374 . S
C597 H612 0.931 . S
C598 C592 1.439 . S
C598 C597 1.374 . S
C598 H613 0.931 . S
Eu599 N590 2.600 . S
Eu599 N600 2.562 . S
Eu599 O634 2.335 . S
Eu599 O637 2.372 . S
Eu599 O638 2.462 . S
Eu599 O639 2.373 . S
Eu599 O641 2.432 . S
Eu599 O642 2.291 . S
Eu599 C663 2.787 . S
N600 C596 1.351 . S
N600 Eu599 2.562 . S
N600 C602 1.325 . S
C601 C595 1.404 . S
C601 C603 1.366 . S
C601 H609 0.968 . S
C602 N600 1.325 . S
C602 C603 1.416 . S
C602 H608 0.929 . S
C603 C601 1.366 . S
C603 C602 1.416 . S
C603 H605 0.930 . S
H604 C593 0.930 . S
H605 C603 0.930 . S
H606 C621 0.930 . S
H607 C628 0.930 . S
H608 C602 0.929 . S
H609 C601 0.968 . S
H610 C624 0.929 . S
H611 C591 0.931 . S
H612 C597 0.931 . S
H613 C598 0.931 . S
H614 C619 0.931 . S
H615 C594 0.929 . S
H616 C627 0.930 . S
N617 Eu588 2.600 . S
N617 C618 1.365 . S
N617 C621 1.319 . S
C618 N617 1.365 . S
C618 C620 1.405 . S
C618 C626 1.448 . S
C619 H614 0.931 . S
C619 C621 1.397 . S
C619 C622 1.367 . S
C620 C618 1.405 . S
C620 C622 1.403 . S
C620 C653 1.439 . S
C621 H606 0.930 . S
C621 N617 1.319 . S
C621 C619 1.397 . S
C622 C619 1.367 . S
C622 C620 1.403 . S
C622 H629 0.929 . S
N623 Eu588 2.562 . S
N623 C624 1.325 . S
N623 C626 1.351 . S
C624 H610 0.929 . S
C624 N623 1.325 . S
C624 C628 1.416 . S
C625 C626 1.430 . S
C625 C627 1.404 . S
C625 C654 1.387 . S
C626 C618 1.448 . S
C626 N623 1.351 . S
C626 C625 1.430 . S
C627 H616 0.930 . S
C627 C625 1.404 . S
C627 C628 1.366 . S
C628 H607 0.930 . S
C628 C624 1.416 . S
C628 C627 1.366 . S
H629 C622 0.929 . S
H630 C653 0.931 . S
H631 C654 0.931 . S
O632 Eu588 2.462 . S
O632 C652 1.252 . S
O633 Eu588 2.373 . S
O633 C644 1.249 . S
O634 Eu599 2.335 . S
O634 C644 1.264 . S
O635 Eu588 2.432 . S
O635 C652 1.268 . S
O636 Eu588 2.291 . S
O636 C651 1.255 . S
O637 Eu599 2.372 . S
O637 C651 1.257 . S
O638 Eu599 2.462 . S
O638 C663 1.252 . S
O639 Eu599 2.373 . S
O639 C655 1.249 . S
O640 Eu588 2.335 . S
O640 C655 1.264 . S
O641 Eu599 2.432 . S
O641 C663 1.268 . S
O642 Eu599 2.291 . S
O642 C662 1.255 . S
O643 Eu588 2.372 . S
O643 C662 1.257 . S
C644 O633 1.249 . S
C644 O634 1.264 . S
C645 C648 1.382 . S
C645 C650 1.390 . S
C645 C652 1.506 . S
C646 C647 1.398 . S
C646 C650 1.392 . S
C647 C646 1.398 . S
C647 C649 1.372 . S
C647 H664 0.931 . S
C648 C645 1.382 . S
C648 C649 1.390 . S
C648 H665 0.931 . S
C649 C647 1.372 . S
C649 C648 1.390 . S
C649 H666 0.929 . S
C650 C645 1.390 . S
C650 C646 1.392 . S
C650 H667 0.930 . S
C651 O636 1.255 . S
C651 O637 1.257 . S
C652 Eu588 2.787 . S
C652 O632 1.252 . S
C652 O635 1.268 . S
C652 C645 1.506 . S
C653 C620 1.439 . S
C653 H630 0.931 . S
C653 C654 1.374 . S
C654 C625 1.387 . S
C654 H631 0.931 . S
C654 C653 1.374 . S
C655 O639 1.249 . S
C655 O640 1.264 . S
C656 C659 1.382 . S
C656 C660 1.390 1_556 S
C656 C663 1.506 . S
C657 C658 1.398 . S
C657 C660 1.392 . S
C658 C657 1.398 . S
C658 C661 1.372 . S
C658 H668 0.931 . S
C659 C656 1.382 . S
C659 C661 1.390 1_556 S
C659 H669 0.931 . S
C660 C656 1.390 1_554 S
C660 C657 1.392 . S
C660 H670 0.930 . S
C661 C658 1.372 . S
C661 C659 1.390 1_554 S
C661 H671 0.929 . S
C662 O642 1.255 . S
C662 O643 1.257 . S
C663 Eu599 2.787 . S
C663 O638 1.252 . S
C663 O641 1.268 . S
C663 C656 1.506 . S
H664 C647 0.931 . S
H665 C648 0.931 . S
H666 C649 0.929 . S
H667 C650 0.930 . S
H668 C658 0.931 . S
H669 C659 0.931 . S
H670 C660 0.930 . S
H671 C661 0.929 . S
Eu672 N701 2.600 . S
Eu672 N707 2.562 . S
Eu672 O716 2.462 . S
Eu672 O717 2.373 . S
Eu672 O719 2.432 . S
Eu672 O720 2.291 . S
Eu672 O724 2.335 . S
Eu672 O727 2.372 . S
Eu672 C736 2.787 . S
C673 N674 1.365 . S
C673 C676 1.405 . S
C673 C680 1.448 . S
N674 C673 1.365 . S
N674 C677 1.319 . S
N674 Eu683 2.600 . S
C675 C677 1.397 . S
C675 C678 1.367 . S
C675 H695 0.931 . S
C676 C673 1.405 . S
C676 C678 1.403 . S
C676 C682 1.439 . S
C677 N674 1.319 . S
C677 C675 1.397 . S
C677 H688 0.930 . S
C678 C675 1.367 . S
C678 C676 1.403 . S
C678 H699 0.929 . S
C679 C680 1.430 . S
C679 C681 1.387 . S
C679 C685 1.404 . S
C680 C673 1.448 . S
C680 C679 1.430 . S
C680 N684 1.351 . S
C681 C679 1.387 . S
C681 C682 1.374 . S
C681 H696 0.931 . S
C682 C676 1.439 . S
C682 C681 1.374 . S
C682 H697 0.931 . S
Eu683 N674 2.600 . S
Eu683 N684 2.562 . S
Eu683 O718 2.335 . S
Eu683 O721 2.372 . S
Eu683 O722 2.462 . S
Eu683 O723 2.373 . S
Eu683 O725 2.432 . S
Eu683 O726 2.291 . S
Eu683 C747 2.787 . S
N684 C680 1.351 . S
N684 Eu683 2.562 . S
N684 C686 1.325 . S
C685 C679 1.404 . S
C685 C687 1.366 . S
C685 H693 0.930 . S
C686 N684 1.325 . S
C686 C687 1.416 . S
C686 H692 0.929 . S
C687 C685 1.366 . S
C687 C686 1.416 . S
C687 H689 0.930 . S
H688 C677 0.930 . S
H689 C687 0.930 . S
H690 C705 0.930 . S
H691 C712 0.930 . S
H692 C686 0.929 . S
H693 C685 0.930 . S
H694 C708 0.929 . S
H695 C675 0.931 . S
H696 C681 0.931 . S
H697 C682 0.931 . S
H698 C703 0.931 . S
H699 C678 0.929 . S
H700 C711 0.930 1_455 S
N701 Eu672 2.600 . S
N701 C702 1.365 . S
N701 C705 1.319 . S
C702 N701 1.365 . S
C702 C704 1.405 . S
C702 C710 1.448 . S
C703 H698 0.931 . S
C703 C705 1.397 . S
C703 C706 1.367 . S
C704 C702 1.405 . S
C704 C706 1.403 . S
C704 C737 1.439 . S
C705 H690 0.930 . S
C705 N701 1.319 . S
C705 C703 1.397 . S
C706 C703 1.367 . S
C706 C704 1.403 . S
C706 H713 0.929 . S
N707 Eu672 2.562 . S
N707 C708 1.325 . S
N707 C710 1.351 . S
C708 H694 0.929 . S
C708 N707 1.325 . S
C708 C712 1.416 . S
C709 C710 1.430 . S
C709 C711 1.404 . S
C709 C738 1.387 . S
C710 C702 1.448 . S
C710 N707 1.351 . S
C710 C709 1.430 . S
C711 H700 0.930 1_655 S
C711 C709 1.404 . S
C711 C712 1.366 . S
C712 H691 0.930 . S
C712 C708 1.416 . S
C712 C711 1.366 . S
H713 C706 0.929 . S
H714 C737 0.931 . S
H715 C738 0.931 1_455 S
O716 Eu672 2.462 . S
O716 C736 1.252 . S
O717 Eu672 2.373 . S
O717 C728 1.249 . S
O718 Eu683 2.335 . S
O718 C728 1.264 . S
O719 Eu672 2.432 . S
O719 C736 1.268 . S
O720 Eu672 2.291 . S
O720 C735 1.255 . S
O721 Eu683 2.372 . S
O721 C735 1.257 . S
O722 Eu683 2.462 . S
O722 C747 1.252 . S
O723 Eu683 2.373 . S
O723 C739 1.249 . S
O724 Eu672 2.335 . S
O724 C739 1.264 . S
O725 Eu683 2.432 . S
O725 C747 1.268 . S
O726 Eu683 2.291 . S
O726 C746 1.255 . S
O727 Eu672 2.372 . S
O727 C746 1.257 . S
C728 O717 1.249 . S
C728 O718 1.264 . S
C729 C732 1.382 1_556 S
C729 C734 1.390 1_556 S
C729 C736 1.506 . S
C730 C731 1.398 . S
C730 C734 1.392 . S
C731 C730 1.398 . S
C731 C733 1.372 . S
C731 H748 0.931 . S
C732 C729 1.382 1_554 S
C732 C733 1.390 . S
C732 H749 0.931 1_554 S
C733 C731 1.372 . S
C733 C732 1.390 . S
C733 H750 0.929 . S
C734 C729 1.390 1_554 S
C734 C730 1.392 . S
C734 H751 0.930 . S
C735 O720 1.255 . S
C735 O721 1.257 . S
C736 Eu672 2.787 . S
C736 O716 1.252 . S
C736 O719 1.268 . S
C736 C729 1.506 . S
C737 C704 1.439 . S
C737 H714 0.931 . S
C737 C738 1.374 . S
C738 C709 1.387 . S
C738 H715 0.931 1_655 S
C738 C737 1.374 . S
C739 O723 1.249 . S
C739 O724 1.264 . S
C740 C743 1.382 . S
C740 C744 1.390 . S
C740 C747 1.506 . S
C741 C742 1.398 . S
C741 C744 1.392 . S
C742 C741 1.398 . S
C742 C745 1.372 . S
C742 H752 0.931 . S
C743 C740 1.382 . S
C743 C745 1.390 . S
C743 H753 0.931 . S
C744 C740 1.390 . S
C744 C741 1.392 . S
C744 H754 0.930 . S
C745 C742 1.372 . S
C745 C743 1.390 . S
C745 H755 0.929 . S
C746 O726 1.255 . S
C746 O727 1.257 . S
C747 Eu683 2.787 . S
C747 O722 1.252 . S
C747 O725 1.268 . S
C747 C740 1.506 . S
H748 C731 0.931 . S
H749 C732 0.931 1_556 S
H750 C733 0.929 . S
H751 C734 0.930 . S
H752 C742 0.931 . S
H753 C743 0.931 . S
H754 C744 0.930 . S
H755 C745 0.929 . S
C756 C757 1.391 . S
C756 C758 1.394 . S
C756 H772 0.931 . S
C757 C756 1.391 . S
C757 C761 1.376 . S
C758 C756 1.394 . S
C758 C759 1.369 . S
C758 C762 1.531 . S
C759 C758 1.369 . S
C759 C760 1.410 . S
C759 C767 1.503 . S
C760 C759 1.410 . S
C760 C761 1.392 . S
C760 C763 1.511 1_455 S
C761 C757 1.376 . S
C761 C760 1.392 . S
C761 H773 0.955 . S
C762 C758 1.531 . S
C762 H774 0.960 . S
C762 H775 0.962 . S
C762 H776 0.960 . S
C763 C760 1.511 1_655 S
C763 H777 0.961 . S
C763 H778 0.961 . S
C763 H779 0.961 . S
C764 C765 1.370 . S
C764 C766 1.363 . S
C764 H780 0.931 . S
C765 C764 1.370 . S
C765 C769 1.422 . S
C766 C764 1.363 . S
C766 C767 1.370 . S
C766 C770 1.524 . S
C767 C759 1.503 . S
C767 C766 1.370 . S
C767 C768 1.403 1_455 S
C768 C767 1.403 1_655 S
C768 C769 1.399 1_655 S
C768 C771 1.539 . S
C769 C765 1.422 . S
C769 C768 1.399 1_455 S
C769 H781 0.922 1_455 S
C770 C766 1.524 . S
C770 H782 0.956 . S
C770 H783 0.961 . S
C770 H784 0.961 . S
C771 C768 1.539 . S
C771 H785 0.958 . S
C771 H786 0.961 . S
C771 H787 0.960 . S
H772 C756 0.931 . S
H773 C761 0.955 . S
H774 C762 0.960 . S
H775 C762 0.962 . S
H776 C762 0.960 . S
H777 C763 0.961 . S
H778 C763 0.961 . S
H779 C763 0.961 . S
H780 C764 0.931 . S
H781 C769 0.922 1_655 S
H782 C770 0.956 . S
H783 C770 0.961 . S
H784 C770 0.961 . S
H785 C771 0.958 . S
H786 C771 0.961 . S
H787 C771 0.960 . S
C788 C789 1.391 . S
C788 C790 1.394 . S
C788 H804 0.931 . S
C789 C788 1.391 . S
C789 C793 1.376 . S
C790 C788 1.394 . S
C790 C791 1.369 . S
C790 C794 1.531 . S
C791 C790 1.369 . S
C791 C792 1.410 . S
C791 C799 1.503 . S
C792 C791 1.410 . S
C792 C793 1.392 . S
C792 C795 1.511 . S
C793 C789 1.376 . S
C793 C792 1.392 . S
C793 H805 0.929 . S
C794 C790 1.531 . S
C794 H806 0.960 . S
C794 H807 0.962 . S
C794 H808 0.960 . S
C795 C792 1.511 . S
C795 H809 0.961 . S
C795 H810 0.961 . S
C795 H811 0.961 . S
C796 C797 1.370 . S
C796 C798 1.363 . S
C796 H812 0.931 . S
C797 C796 1.370 . S
C797 C801 1.408 . S
C798 C796 1.363 . S
C798 C799 1.370 . S
C798 C802 1.524 . S
C799 C791 1.503 . S
C799 C798 1.370 . S
C799 C800 1.403 . S
C800 C799 1.403 . S
C800 C801 1.404 . S
C800 C803 1.539 . S
C801 C797 1.408 . S
C801 C800 1.404 . S
C801 H813 0.930 . S
C802 C798 1.524 . S
C802 H814 0.956 . S
C802 H815 0.961 . S
C802 H816 0.961 . S
C803 C800 1.539 . S
C803 H817 0.958 . S
C803 H818 0.961 . S
C803 H819 0.960 . S
H804 C788 0.931 . S
H805 C793 0.929 . S
H806 C794 0.960 . S
H807 C794 0.962 . S
H808 C794 0.960 . S
H809 C795 0.961 . S
H810 C795 0.961 . S
H811 C795 0.961 . S
H812 C796 0.931 . S
H813 C801 0.930 . S
H814 C802 0.956 . S
H815 C802 0.961 . S
H816 C802 0.961 . S
H817 C803 0.958 . S
H818 C803 0.961 . S
H819 C803 0.960 . S
C820 C821 1.391 . S
C820 C822 1.394 . S
C820 H836 0.931 . S
C821 C820 1.391 . S
C821 C825 1.376 . S
C822 C820 1.394 . S
C822 C823 1.369 . S
C822 C826 1.531 . S
C823 C822 1.369 . S
C823 C824 1.410 . S
C823 C831 1.503 . S
C824 C823 1.410 . S
C824 C825 1.392 . S
C824 C827 1.511 . S
C825 C821 1.376 . S
C825 C824 1.392 . S
C825 H837 0.929 . S
C826 C822 1.531 . S
C826 H838 0.960 . S
C826 H839 0.962 . S
C826 H840 0.960 . S
C827 C824 1.511 . S
C827 H841 0.961 . S
C827 H842 0.961 . S
C827 H843 0.961 . S
C828 C829 1.370 . S
C828 C830 1.363 . S
C828 H844 0.931 . S
C829 C828 1.370 . S
C829 C833 1.408 . S
C830 C828 1.363 . S
C830 C831 1.370 . S
C830 C834 1.524 . S
C831 C823 1.503 . S
C831 C830 1.370 . S
C831 C832 1.403 . S
C832 C831 1.403 . S
C832 C833 1.404 . S
C832 C835 1.539 . S
C833 C829 1.408 . S
C833 C832 1.404 . S
C833 H845 0.930 . S
C834 C830 1.524 . S
C834 H846 0.956 . S
C834 H847 0.961 . S
C834 H848 0.961 . S
C835 C832 1.539 . S
C835 H849 0.958 . S
C835 H850 0.961 . S
C835 H851 0.960 . S
H836 C820 0.931 . S
H837 C825 0.929 . S
H838 C826 0.960 . S
H839 C826 0.962 . S
H840 C826 0.960 . S
H841 C827 0.961 . S
H842 C827 0.961 . S
H843 C827 0.961 . S
H844 C828 0.931 . S
H845 C833 0.930 . S
H846 C834 0.956 . S
H847 C834 0.961 . S
H848 C834 0.961 . S
H849 C835 0.958 . S
H850 C835 0.961 . S
H851 C835 0.960 . S
C852 C853 1.391 . S
C852 C854 1.394 . S
C852 H868 0.931 . S
C853 C852 1.391 . S
C853 C857 1.376 . S
C854 C852 1.394 . S
C854 C855 1.369 . S
C854 C858 1.531 . S
C855 C854 1.369 . S
C855 C856 1.410 . S
C855 C863 1.503 . S
C856 C855 1.410 . S
C856 C857 1.392 . S
C856 C859 1.511 . S
C857 C853 1.376 . S
C857 C856 1.392 . S
C857 H869 0.929 . S
C858 C854 1.531 . S
C858 H870 0.960 . S
C858 H871 0.962 . S
C858 H872 0.960 . S
C859 C856 1.511 . S
C859 H873 0.961 . S
C859 H874 0.961 . S
C859 H875 0.961 . S
C860 C861 1.370 . S
C860 C862 1.363 . S
C860 H876 0.931 . S
C861 C860 1.370 . S
C861 C865 1.408 . S
C862 C860 1.363 . S
C862 C863 1.370 . S
C862 C866 1.524 . S
C863 C855 1.503 . S
C863 C862 1.370 . S
C863 C864 1.403 . S
C864 C863 1.403 . S
C864 C865 1.404 . S
C864 C867 1.539 . S
C865 C861 1.408 . S
C865 C864 1.404 . S
C865 H877 0.930 . S
C866 C862 1.524 . S
C866 H878 0.956 . S
C866 H879 0.961 . S
C866 H880 0.961 . S
C867 C864 1.539 . S
C867 H881 0.958 . S
C867 H882 0.961 . S
C867 H883 0.960 . S
H868 C852 0.931 . S
H869 C857 0.929 . S
H870 C858 0.960 . S
H871 C858 0.962 . S
H872 C858 0.960 . S
H873 C859 0.961 . S
H874 C859 0.961 . S
H875 C859 0.961 . S
H876 C860 0.931 . S
H877 C865 0.930 . S
H878 C866 0.956 . S
H879 C866 0.961 . S
H880 C866 0.961 . S
H881 C867 0.958 . S
H882 C867 0.961 . S
H883 C867 0.960 . S
C884 C885 1.391 . S
C884 C886 1.394 . S
C884 H900 0.931 . S
C885 C884 1.391 . S
C885 C889 1.376 . S
C886 C884 1.394 . S
C886 C887 1.369 . S
C886 C890 1.531 . S
C887 C886 1.369 . S
C887 C888 1.410 . S
C887 C895 1.503 . S
C888 C887 1.410 . S
C888 C889 1.392 . S
C888 C891 1.511 . S
C889 C885 1.376 . S
C889 C888 1.392 . S
C889 H901 0.929 . S
C890 C886 1.531 . S
C890 H902 0.960 . S
C890 H903 0.962 . S
C890 H904 0.960 . S
C891 C888 1.511 . S
C891 H905 0.961 . S
C891 H906 0.961 . S
C891 H907 0.961 . S
C892 C893 1.370 . S
C892 C894 1.363 . S
C892 H908 0.931 . S
C893 C892 1.370 . S
C893 C897 1.408 . S
C894 C892 1.363 . S
C894 C895 1.370 . S
C894 C898 1.524 . S
C895 C887 1.503 . S
C895 C894 1.370 . S
C895 C896 1.403 . S
C896 C895 1.403 . S
C896 C897 1.404 . S
C896 C899 1.539 . S
C897 C893 1.408 . S
C897 C896 1.404 . S
C897 H909 0.930 . S
C898 C894 1.524 . S
C898 H910 0.956 . S
C898 H911 0.961 . S
C898 H912 0.961 . S
C899 C896 1.539 . S
C899 H913 0.958 . S
C899 H914 0.961 . S
C899 H915 0.960 . S
H900 C884 0.931 . S
H901 C889 0.929 . S
H902 C890 0.960 . S
H903 C890 0.962 . S
H904 C890 0.960 . S
H905 C891 0.961 . S
H906 C891 0.961 . S
H907 C891 0.961 . S
H908 C892 0.931 . S
H909 C897 0.930 . S
H910 C898 0.956 . S
H911 C898 0.961 . S
H912 C898 0.961 . S
H913 C899 0.958 . S
H914 C899 0.961 . S
H915 C899 0.960 . S
C916 C917 1.391 . S
C916 C918 1.394 . S
C916 H932 0.931 . S
C917 C916 1.391 . S
C917 C921 1.376 . S
C918 C916 1.394 . S
C918 C919 1.369 . S
C918 C922 1.531 . S
C919 C918 1.369 . S
C919 C920 1.410 . S
C919 C927 1.503 . S
C920 C919 1.410 . S
C920 C921 1.392 . S
C920 C923 1.511 . S
C921 C917 1.376 . S
C921 C920 1.392 . S
C921 H933 0.929 . S
C922 C918 1.531 . S
C922 H934 0.960 . S
C922 H935 0.962 . S
C922 H936 0.960 . S
C923 C920 1.511 . S
C923 H937 0.961 . S
C923 H938 0.961 . S
C923 H939 0.961 . S
C924 C925 1.370 1_556 S
C924 C926 1.363 . S
C924 H940 0.931 . S
C925 C924 1.370 1_554 S
C925 C929 1.408 . S
C926 C924 1.363 . S
C926 C927 1.370 . S
C926 C930 1.524 . S
C927 C919 1.503 . S
C927 C926 1.370 . S
C927 C928 1.403 . S
C928 C927 1.403 . S
C928 C929 1.404 1_556 S
C928 C931 1.539 . S
C929 C925 1.408 . S
C929 C928 1.404 1_554 S
C929 H941 0.930 . S
C930 C926 1.524 . S
C930 H942 0.956 . S
C930 H943 0.961 . S
C930 H944 0.961 . S
C931 C928 1.539 . S
C931 H945 0.958 . S
C931 H946 0.961 . S
C931 H947 0.960 . S
H932 C916 0.931 . S
H933 C921 0.929 . S
H934 C922 0.960 . S
H935 C922 0.962 . S
H936 C922 0.960 . S
H937 C923 0.961 . S
H938 C923 0.961 . S
H939 C923 0.961 . S
H940 C924 0.931 . S
H941 C929 0.930 . S
H942 C930 0.956 . S
H943 C930 0.961 . S
H944 C930 0.961 . S
H945 C931 0.958 . S
H946 C931 0.961 . S
H947 C931 0.960 . S
C948 C949 1.391 . S
C948 C950 1.394 . S
C948 H964 0.931 . S
C949 C948 1.391 . S
C949 C953 1.376 . S
C950 C948 1.394 . S
C950 C951 1.369 . S
C950 C954 1.531 . S
C951 C950 1.369 . S
C951 C952 1.410 . S
C951 C959 1.503 . S
C952 C951 1.410 . S
C952 C953 1.392 . S
C952 C955 1.511 . S
C953 C949 1.376 . S
C953 C952 1.392 . S
C953 H965 0.929 . S
C954 C950 1.531 . S
C954 H966 0.960 . S
C954 H967 0.962 . S
C954 H968 0.960 . S
C955 C952 1.511 . S
C955 H969 0.961 . S
C955 H970 0.961 . S
C955 H971 0.961 . S
C956 C957 1.370 . S
C956 C958 1.363 . S
C956 H972 0.931 . S
C957 C956 1.370 . S
C957 C961 1.408 . S
C958 C956 1.363 . S
C958 C959 1.370 . S
C958 C962 1.524 . S
C959 C951 1.503 . S
C959 C958 1.370 . S
C959 C960 1.403 . S
C960 C959 1.403 . S
C960 C961 1.404 . S
C960 C963 1.539 . S
C961 C957 1.408 . S
C961 C960 1.404 . S
C961 H973 0.930 1_554 S
C962 C958 1.524 . S
C962 H974 0.956 . S
C962 H975 0.961 . S
C962 H976 0.961 . S
C963 C960 1.539 . S
C963 H977 0.958 . S
C963 H978 0.961 1_554 S
C963 H979 0.960 . S
H964 C948 0.931 . S
H965 C953 0.929 . S
H966 C954 0.960 . S
H967 C954 0.962 . S
H968 C954 0.960 . S
H969 C955 0.961 . S
H970 C955 0.961 . S
H971 C955 0.961 . S
H972 C956 0.931 . S
H973 C961 0.930 1_556 S
H974 C962 0.956 . S
H975 C962 0.961 . S
H976 C962 0.961 . S
H977 C963 0.958 . S
H978 C963 0.961 1_556 S
H979 C963 0.960 . S
C980 C981 1.391 . S
C980 C982 1.394 . S
C980 H996 0.931 . S
C981 C980 1.391 . S
C981 C985 1.376 . S
C982 C980 1.394 . S
C982 C983 1.369 . S
C982 C986 1.531 . S
C983 C982 1.369 . S
C983 C984 1.410 . S
C983 C991 1.503 . S
C984 C983 1.410 . S
C984 C985 1.392 . S
C984 C987 1.511 . S
C985 C981 1.376 . S
C985 C984 1.392 . S
C985 H997 0.929 . S
C986 C982 1.531 . S
C986 H998 0.960 . S
C986 H999 0.962 . S
C986 H1000 0.960 . S
C987 C984 1.511 . S
C987 H1001 0.961 . S
C987 H1002 0.961 . S
C987 H1003 0.961 . S
C988 C989 1.370 . S
C988 C990 1.363 . S
C988 H1004 0.931 1_554 S
C989 C988 1.370 . S
C989 C993 1.408 . S
C990 C988 1.363 . S
C990 C991 1.370 . S
C990 C994 1.524 . S
C991 C983 1.503 . S
C991 C990 1.370 . S
C991 C992 1.403 . S
C992 C991 1.403 . S
C992 C993 1.404 . S
C992 C995 1.539 . S
C993 C989 1.408 . S
C993 C992 1.404 . S
C993 H1005 0.930 . S
C994 C990 1.524 . S
C994 H1006 0.956 . S
C994 H1007 0.961 . S
C994 H1008 0.961 . S
C995 C992 1.539 . S
C995 H1009 0.958 . S
C995 H1010 0.961 . S
C995 H1011 0.960 . S
H996 C980 0.931 . S
H997 C985 0.929 . S
H998 C986 0.960 . S
H999 C986 0.962 . S
H1000 C986 0.960 . S
H1001 C987 0.961 . S
H1002 C987 0.961 . S
H1003 C987 0.961 . S
H1004 C988 0.931 1_556 S
H1005 C993 0.930 . S
H1006 C994 0.956 . S
H1007 C994 0.961 . S
H1008 C994 0.961 . S
H1009 C995 0.958 . S
H1010 C995 0.961 . S
H1011 C995 0.960 . S
C1012 C1013 1.391 . S
C1012 C1014 1.394 . S
C1012 H1028 0.931 . S
C1013 C1012 1.391 . S
C1013 C1017 1.376 . S
C1014 C1012 1.394 . S
C1014 C1015 1.369 . S
C1014 C1018 1.531 . S
C1015 C1014 1.369 . S
C1015 C1016 1.410 . S
C1015 C1023 1.503 . S
C1016 C1015 1.410 . S
C1016 C1017 1.392 . S
C1016 C1019 1.511 . S
C1017 C1013 1.376 . S
C1017 C1016 1.392 . S
C1017 H1029 0.929 . S
C1018 C1014 1.531 . S
C1018 H1030 0.960 . S
C1018 H1031 0.962 . S
C1018 H1032 0.960 . S
C1019 C1016 1.511 . S
C1019 H1033 0.961 . S
C1019 H1034 0.961 . S
C1019 H1035 0.961 . S
C1020 C1021 1.370 . S
C1020 C1022 1.363 . S
C1020 H1036 0.931 . S
C1021 C1020 1.370 . S
C1021 C1025 1.408 . S
C1022 C1020 1.363 . S
C1022 C1023 1.370 . S
C1022 C1026 1.524 . S
C1023 C1015 1.503 . S
C1023 C1022 1.370 . S
C1023 C1024 1.403 . S
C1024 C1023 1.403 . S
C1024 C1025 1.404 . S
C1024 C1027 1.539 . S
C1025 C1021 1.408 . S
C1025 C1024 1.404 . S
C1025 H1037 0.930 . S
C1026 C1022 1.524 . S
C1026 H1038 0.956 . S
C1026 H1039 0.961 . S
C1026 H1040 0.961 . S
C1027 C1024 1.539 . S
C1027 H1041 0.958 . S
C1027 H1042 0.961 . S
C1027 H1043 0.960 . S
H1028 C1012 0.931 . S
H1029 C1017 0.929 . S
H1030 C1018 0.960 . S
H1031 C1018 0.962 . S
H1032 C1018 0.960 . S
H1033 C1019 0.961 . S
H1034 C1019 0.961 . S
H1035 C1019 0.961 . S
H1036 C1020 0.931 . S
H1037 C1025 0.930 . S
H1038 C1026 0.956 . S
H1039 C1026 0.961 . S
H1040 C1026 0.961 . S
H1041 C1027 0.958 . S
H1042 C1027 0.961 . S
H1043 C1027 0.960 . S
C1044 C1045 1.391 . S
C1044 C1046 1.394 . S
C1044 H1060 0.931 . S
C1045 C1044 1.391 . S
C1045 C1049 1.376 . S
C1046 C1044 1.394 . S
C1046 C1047 1.369 . S
C1046 C1050 1.531 . S
C1047 C1046 1.369 . S
C1047 C1048 1.410 . S
C1047 C1055 1.503 . S
C1048 C1047 1.410 . S
C1048 C1049 1.392 . S
C1048 C1051 1.511 . S
C1049 C1045 1.376 . S
C1049 C1048 1.392 . S
C1049 H1061 0.929 . S
C1050 C1046 1.531 . S
C1050 H1062 0.960 . S
C1050 H1063 0.962 . S
C1050 H1064 0.960 . S
C1051 C1048 1.511 . S
C1051 H1065 0.961 . S
C1051 H1066 0.961 . S
C1051 H1067 0.961 . S
C1052 C1053 1.370 . S
C1052 C1054 1.363 . S
C1052 H1068 0.931 . S
C1053 C1052 1.370 . S
C1053 C1057 1.408 . S
C1054 C1052 1.363 . S
C1054 C1055 1.370 . S
C1054 C1058 1.524 . S
C1055 C1047 1.503 . S
C1055 C1054 1.370 . S
C1055 C1056 1.403 . S
C1056 C1055 1.403 . S
C1056 C1057 1.404 . S
C1056 C1059 1.539 . S
C1057 C1053 1.408 . S
C1057 C1056 1.404 . S
C1057 H1069 0.930 . S
C1058 C1054 1.524 . S
C1058 H1070 0.956 . S
C1058 H1071 0.961 . S
C1058 H1072 0.961 . S
C1059 C1056 1.539 . S
C1059 H1073 0.958 . S
C1059 H1074 0.961 . S
C1059 H1075 0.960 . S
H1060 C1044 0.931 . S
H1061 C1049 0.929 . S
H1062 C1050 0.960 . S
H1063 C1050 0.962 . S
H1064 C1050 0.960 . S
H1065 C1051 0.961 . S
H1066 C1051 0.961 . S
H1067 C1051 0.961 . S
H1068 C1052 0.931 . S
H1069 C1057 0.930 . S
H1070 C1058 0.956 . S
H1071 C1058 0.961 . S
H1072 C1058 0.961 . S
H1073 C1059 0.958 . S
H1074 C1059 0.961 . S
H1075 C1059 0.960 . S
C1076 C1077 1.391 . S
C1076 C1078 1.394 . S
C1076 H1092 0.931 . S
C1077 C1076 1.391 . S
C1077 C1081 1.376 . S
C1078 C1076 1.394 . S
C1078 C1079 1.369 . S
C1078 C1082 1.531 . S
C1079 C1078 1.369 . S
C1079 C1080 1.410 . S
C1079 C1087 1.503 . S
C1080 C1079 1.410 . S
C1080 C1081 1.392 . S
C1080 C1083 1.511 1_554 S
C1081 C1077 1.376 . S
C1081 C1080 1.392 . S
C1081 H1093 0.929 . S
C1082 C1078 1.531 . S
C1082 H1094 0.960 . S
C1082 H1095 0.962 . S
C1082 H1096 0.960 . S
C1083 C1080 1.511 1_556 S
C1083 H1097 0.961 . S
C1083 H1098 0.961 1_556 S
C1083 H1099 0.961 . S
C1084 C1085 1.370 . S
C1084 C1086 1.363 . S
C1084 H1100 0.931 . S
C1085 C1084 1.370 . S
C1085 C1089 1.408 . S
C1086 C1084 1.363 . S
C1086 C1087 1.370 . S
C1086 C1090 1.524 . S
C1087 C1079 1.503 . S
C1087 C1086 1.370 . S
C1087 C1088 1.403 . S
C1088 C1087 1.403 . S
C1088 C1089 1.404 . S
C1088 C1091 1.539 . S
C1089 C1085 1.408 . S
C1089 C1088 1.404 . S
C1089 H1101 0.930 . S
C1090 C1086 1.524 . S
C1090 H1102 0.956 . S
C1090 H1103 0.961 . S
C1090 H1104 0.961 . S
C1091 C1088 1.539 . S
C1091 H1105 0.958 . S
C1091 H1106 0.961 . S
C1091 H1107 0.960 . S
H1092 C1076 0.931 . S
H1093 C1081 0.929 . S
H1094 C1082 0.960 . S
H1095 C1082 0.962 . S
H1096 C1082 0.960 . S
H1097 C1083 0.961 . S
H1098 C1083 0.961 1_554 S
H1099 C1083 0.961 . S
H1100 C1084 0.931 . S
H1101 C1089 0.930 . S
H1102 C1090 0.956 . S
H1103 C1090 0.961 . S
H1104 C1090 0.961 . S
H1105 C1091 0.958 . S
H1106 C1091 0.961 . S
H1107 C1091 0.960 . S
C1108 C1109 1.383 1_545 S
C1108 C1110 1.395 1_545 S
C1108 H1124 0.940 . S
C1109 C1108 1.383 1_565 S
C1109 C1113 1.376 . S
C1110 C1108 1.395 1_565 S
C1110 C1111 1.369 . S
C1110 C1114 1.531 . S
C1111 C1110 1.369 . S
C1111 C1112 1.410 . S
C1111 C1119 1.503 . S
C1112 C1111 1.410 . S
C1112 C1113 1.392 . S
C1112 C1115 1.511 1_554 S
C1113 C1109 1.376 . S
C1113 C1112 1.392 . S
C1113 H1125 0.929 . S
C1114 C1110 1.531 . S
C1114 H1126 0.960 . S
C1114 H1127 0.962 . S
C1114 H1128 0.960 1_565 S
C1115 C1112 1.511 1_556 S
C1115 H1129 0.961 . S
C1115 H1130 0.961 1_556 S
C1115 H1131 0.961 . S
C1116 C1117 1.370 . S
C1116 C1118 1.363 . S
C1116 H1132 0.931 . S
C1117 C1116 1.370 . S
C1117 C1121 1.408 . S
C1118 C1116 1.363 . S
C1118 C1119 1.370 . S
C1118 C1122 1.524 . S
C1119 C1111 1.503 . S
C1119 C1118 1.370 . S
C1119 C1120 1.403 . S
C1120 C1119 1.403 . S
C1120 C1121 1.404 . S
C1120 C1123 1.539 . S
C1121 C1117 1.408 . S
C1121 C1120 1.404 . S
C1121 H1133 0.930 . S
C1122 C1118 1.524 . S
C1122 H1134 0.956 . S
C1122 H1135 0.961 . S
C1122 H1136 0.961 . S
C1123 C1120 1.539 . S
C1123 H1137 0.958 1_565 S
C1123 H1138 0.961 . S
C1123 H1139 0.960 . S
H1124 C1108 0.940 . S
H1125 C1113 0.929 . S
H1126 C1114 0.960 . S
H1127 C1114 0.962 . S
H1128 C1114 0.960 1_545 S
H1129 C1115 0.961 . S
H1130 C1115 0.961 1_554 S
H1131 C1115 0.961 . S
H1132 C1116 0.931 . S
H1133 C1121 0.930 . S
H1134 C1122 0.956 . S
H1135 C1122 0.961 . S
H1136 C1122 0.961 . S
H1137 C1123 0.958 1_545 S
H1138 C1123 0.961 . S
H1139 C1123 0.960 . S
C1140 C1141 1.391 . S
C1140 C1142 1.394 . S
C1140 H1156 0.931 1_556 S
C1141 C1140 1.391 . S
C1141 C1145 1.376 . S
C1142 C1140 1.394 . S
C1142 C1143 1.369 . S
C1142 C1146 1.531 1_556 S
C1143 C1142 1.369 . S
C1143 C1144 1.410 . S
C1143 C1151 1.503 . S
C1144 C1143 1.410 . S
C1144 C1145 1.392 . S
C1144 C1147 1.511 . S
C1145 C1141 1.376 . S
C1145 C1144 1.392 . S
C1145 H1157 0.929 . S
C1146 C1142 1.531 1_554 S
C1146 H1158 0.960 1_554 S
C1146 H1159 0.962 . S
C1146 H1160 0.960 . S
C1147 C1144 1.511 . S
C1147 H1161 0.961 . S
C1147 H1162 0.961 . S
C1147 H1163 0.961 . S
C1148 C1149 1.370 . S
C1148 C1150 1.363 . S
C1148 H1164 0.931 . S
C1149 C1148 1.370 . S
C1149 C1153 1.408 . S
C1150 C1148 1.363 . S
C1150 C1151 1.370 . S
C1150 C1154 1.524 . S
C1151 C1143 1.503 . S
C1151 C1150 1.370 . S
C1151 C1152 1.403 . S
C1152 C1151 1.403 . S
C1152 C1153 1.404 . S
C1152 C1155 1.539 . S
C1153 C1149 1.408 . S
C1153 C1152 1.404 . S
C1153 H1165 0.930 . S
C1154 C1150 1.524 . S
C1154 H1166 0.956 . S
C1154 H1167 0.961 . S
C1154 H1168 0.961 . S
C1155 C1152 1.539 . S
C1155 H1169 0.958 . S
C1155 H1170 0.961 . S
C1155 H1171 0.960 . S
H1156 C1140 0.931 1_554 S
H1157 C1145 0.929 . S
H1158 C1146 0.960 1_556 S
H1159 C1146 0.962 . S
H1160 C1146 0.960 . S
H1161 C1147 0.961 . S
H1162 C1147 0.961 . S
H1163 C1147 0.961 . S
H1164 C1148 0.931 . S
H1165 C1153 0.930 . S
H1166 C1154 0.956 . S
H1167 C1154 0.961 . S
H1168 C1154 0.961 . S
H1169 C1155 0.958 . S
H1170 C1155 0.961 . S
H1171 C1155 0.960 . S
C1172 C1173 1.391 . S
C1172 C1174 1.394 . S
C1172 H1188 0.931 . S
C1173 C1172 1.391 . S
C1173 C1177 1.376 . S
C1174 C1172 1.394 . S
C1174 C1175 1.369 . S
C1174 C1178 1.531 . S
C1175 C1174 1.369 . S
C1175 C1176 1.410 . S
C1175 C1183 1.503 . S
C1176 C1175 1.410 . S
C1176 C1177 1.392 . S
C1176 C1179 1.511 . S
C1177 C1173 1.376 . S
C1177 C1176 1.392 . S
C1177 H1189 0.929 . S
C1178 C1174 1.531 . S
C1178 H1190 0.960 1_556 S
C1178 H1191 0.962 . S
C1178 H1192 0.960 . S
C1179 C1176 1.511 . S
C1179 H1193 0.961 . S
C1179 H1194 0.961 . S
C1179 H1195 0.961 . S
C1180 C1181 1.370 1_556 S
C1180 C1182 1.363 . S
C1180 H1196 0.931 . S
C1181 C1180 1.370 1_554 S
C1181 C1185 1.408 . S
C1182 C1180 1.363 . S
C1182 C1183 1.370 . S
C1182 C1186 1.524 . S
C1183 C1175 1.503 . S
C1183 C1182 1.370 . S
C1183 C1184 1.403 1_556 S
C1184 C1183 1.403 1_554 S
C1184 C1185 1.404 . S
C1184 C1187 1.539 . S
C1185 C1181 1.408 . S
C1185 C1184 1.404 . S
C1185 H1197 0.930 . S
C1186 C1182 1.524 . S
C1186 H1198 0.956 . S
C1186 H1199 0.961 . S
C1186 H1200 0.961 . S
C1187 C1184 1.539 . S
C1187 H1201 0.958 . S
C1187 H1202 0.961 . S
C1187 H1203 0.960 . S
H1188 C1172 0.931 . S
H1189 C1177 0.929 . S
H1190 C1178 0.960 1_554 S
H1191 C1178 0.962 . S
H1192 C1178 0.960 . S
H1193 C1179 0.961 . S
H1194 C1179 0.961 . S
H1195 C1179 0.961 . S
H1196 C1180 0.931 . S
H1197 C1185 0.930 . S
H1198 C1186 0.956 . S
H1199 C1186 0.961 . S
H1200 C1186 0.961 . S
H1201 C1187 0.958 . S
H1202 C1187 0.961 . S
H1203 C1187 0.960 . S
C1204 C1205 1.391 . S
C1204 C1206 1.394 . S
C1204 H1220 0.931 . S
C1205 C1204 1.391 . S
C1205 C1209 1.376 . S
C1206 C1204 1.394 . S
C1206 C1207 1.369 . S
C1206 C1210 1.531 . S
C1207 C1206 1.369 . S
C1207 C1208 1.410 . S
C1207 C1215 1.503 . S
C1208 C1207 1.410 . S
C1208 C1209 1.392 . S
C1208 C1211 1.511 . S
C1209 C1205 1.376 . S
C1209 C1208 1.392 . S
C1209 H1221 0.929 . S
C1210 C1206 1.531 . S
C1210 H1222 0.960 . S
C1210 H1223 0.962 . S
C1210 H1224 0.960 . S
C1211 C1208 1.511 . S
C1211 H1225 0.961 . S
C1211 H1226 0.961 . S
C1211 H1227 0.961 . S
C1212 C1213 1.370 . S
C1212 C1214 1.363 . S
C1212 H1228 0.931 . S
C1213 C1212 1.370 . S
C1213 C1217 1.408 . S
C1214 C1212 1.363 . S
C1214 C1215 1.370 . S
C1214 C1218 1.524 . S
C1215 C1207 1.503 . S
C1215 C1214 1.370 . S
C1215 C1216 1.403 . S
C1216 C1215 1.403 . S
C1216 C1217 1.404 . S
C1216 C1219 1.539 . S
C1217 C1213 1.408 . S
C1217 C1216 1.404 . S
C1217 H1229 0.930 1_556 S
C1218 C1214 1.524 . S
C1218 H1230 0.956 . S
C1218 H1231 0.961 . S
C1218 H1232 0.961 . S
C1219 C1216 1.539 . S
C1219 H1233 0.958 1_556 S
C1219 H1234 0.961 1_556 S
C1219 H1235 0.960 . S
H1220 C1204 0.931 . S
H1221 C1209 0.929 . S
H1222 C1210 0.960 . S
H1223 C1210 0.962 . S
H1224 C1210 0.960 . S
H1225 C1211 0.961 . S
H1226 C1211 0.961 . S
H1227 C1211 0.961 . S
H1228 C1212 0.931 . S
H1229 C1217 0.930 1_554 S
H1230 C1218 0.956 . S
H1231 C1218 0.961 . S
H1232 C1218 0.961 . S
H1233 C1219 0.958 1_554 S
H1234 C1219 0.961 1_554 S
H1235 C1219 0.960 . S
C1236 C1237 1.391 . S
C1236 C1238 1.394 . S
C1236 H1252 0.931 . S
C1237 C1236 1.391 . S
C1237 C1241 1.376 . S
C1238 C1236 1.394 . S
C1238 C1239 1.369 . S
C1238 C1242 1.531 . S
C1239 C1238 1.369 . S
C1239 C1240 1.410 . S
C1239 C1247 1.503 . S
C1240 C1239 1.410 . S
C1240 C1241 1.392 . S
C1240 C1243 1.511 . S
C1241 C1237 1.376 . S
C1241 C1240 1.392 . S
C1241 H1253 0.929 . S
C1242 C1238 1.531 . S
C1242 H1254 0.960 . S
C1242 H1255 0.962 . S
C1242 H1256 0.960 . S
C1243 C1240 1.511 . S
C1243 H1257 0.961 . S
C1243 H1258 0.961 . S
C1243 H1259 0.961 . S
C1244 C1245 1.370 . S
C1244 C1246 1.363 . S
C1244 H1260 0.931 . S
C1245 C1244 1.370 . S
C1245 C1249 1.408 1_556 S
C1246 C1244 1.363 . S
C1246 C1247 1.370 . S
C1246 C1250 1.524 . S
C1247 C1239 1.503 . S
C1247 C1246 1.370 . S
C1247 C1248 1.403 . S
C1248 C1247 1.403 . S
C1248 C1249 1.404 1_556 S
C1248 C1251 1.539 1_556 S
C1249 C1245 1.408 1_554 S
C1249 C1248 1.404 1_554 S
C1249 H1261 0.930 . S
C1250 C1246 1.524 . S
C1250 H1262 0.956 . S
C1250 H1263 0.961 . S
C1250 H1264 0.961 . S
C1251 C1248 1.539 1_554 S
C1251 H1265 0.958 . S
C1251 H1266 0.961 . S
C1251 H1267 0.960 1_554 S
H1252 C1236 0.931 . S
H1253 C1241 0.929 . S
H1254 C1242 0.960 . S
H1255 C1242 0.962 . S
H1256 C1242 0.960 . S
H1257 C1243 0.961 . S
H1258 C1243 0.961 . S
H1259 C1243 0.961 . S
H1260 C1244 0.931 . S
H1261 C1249 0.930 . S
H1262 C1250 0.956 . S
H1263 C1250 0.961 . S
H1264 C1250 0.961 . S
H1265 C1251 0.958 . S
H1266 C1251 0.961 . S
H1267 C1251 0.960 1_556 S
C1268 C1269 1.391 . S
C1268 C1270 1.394 . S
C1268 H1284 0.931 . S
C1269 C1268 1.391 . S
C1269 C1273 1.376 . S
C1270 C1268 1.394 . S
C1270 C1271 1.369 . S
C1270 C1274 1.531 . S
C1271 C1270 1.369 . S
C1271 C1272 1.410 . S
C1271 C1279 1.503 . S
C1272 C1271 1.410 . S
C1272 C1273 1.393 . S
C1272 C1275 1.511 . S
C1273 C1269 1.376 . S
C1273 C1272 1.393 . S
C1273 H1285 0.928 1_556 S
C1274 C1270 1.531 . S
C1274 H1286 0.960 . S
C1274 H1287 0.962 . S
C1274 H1288 0.960 . S
C1275 C1272 1.511 . S
C1275 H1289 0.961 1_556 S
C1275 H1290 0.961 . S
C1275 H1291 0.961 . S
C1276 C1277 1.370 . S
C1276 C1278 1.363 . S
C1276 H1292 0.931 . S
C1277 C1276 1.370 . S
C1277 C1281 1.408 . S
C1278 C1276 1.363 . S
C1278 C1279 1.370 . S
C1278 C1282 1.524 . S
C1279 C1271 1.503 . S
C1279 C1278 1.370 . S
C1279 C1280 1.403 . S
C1280 C1279 1.403 . S
C1280 C1281 1.404 . S
C1280 C1283 1.539 . S
C1281 C1277 1.408 . S
C1281 C1280 1.404 . S
C1281 H1293 0.930 . S
C1282 C1278 1.524 . S
C1282 H1294 0.956 . S
C1282 H1295 0.961 1_556 S
C1282 H1296 0.961 . S
C1283 C1280 1.539 . S
C1283 H1297 0.958 . S
C1283 H1298 0.961 . S
C1283 H1299 0.960 . S
H1284 C1268 0.931 . S
H1285 C1273 0.928 1_554 S
H1286 C1274 0.960 . S
H1287 C1274 0.962 . S
H1288 C1274 0.960 . S
H1289 C1275 0.961 1_554 S
H1290 C1275 0.961 . S
H1291 C1275 0.961 . S
H1292 C1276 0.931 . S
H1293 C1281 0.930 . S
H1294 C1282 0.956 . S
H1295 C1282 0.961 1_554 S
H1296 C1282 0.961 . S
H1297 C1283 0.958 . S
H1298 C1283 0.961 . S
H1299 C1283 0.960 . S
C1300 C1301 1.391 . S
C1300 C1302 1.394 . S
C1300 H1316 0.931 . S
C1301 C1300 1.391 . S
C1301 C1305 1.376 . S
C1302 C1300 1.394 . S
C1302 C1303 1.369 . S
C1302 C1306 1.531 . S
C1303 C1302 1.369 . S
C1303 C1304 1.410 . S
C1303 C1311 1.503 . S
C1304 C1303 1.410 . S
C1304 C1305 1.392 . S
C1304 C1307 1.511 . S
C1305 C1301 1.376 . S
C1305 C1304 1.392 . S
C1305 H1317 0.929 . S
C1306 C1302 1.531 . S
C1306 H1318 0.960 . S
C1306 H1319 0.962 . S
C1306 H1320 0.960 . S
C1307 C1304 1.511 . S
C1307 H1321 0.961 . S
C1307 H1322 0.961 . S
C1307 H1323 0.961 . S
C1308 C1309 1.370 . S
C1308 C1310 1.363 . S
C1308 H1324 0.931 . S
C1309 C1308 1.370 . S
C1309 C1313 1.408 . S
C1310 C1308 1.363 . S
C1310 C1311 1.370 . S
C1310 C1314 1.524 . S
C1311 C1303 1.503 . S
C1311 C1310 1.370 . S
C1311 C1312 1.403 . S
C1312 C1311 1.403 . S
C1312 C1313 1.404 . S
C1312 C1315 1.539 . S
C1313 C1309 1.408 . S
C1313 C1312 1.404 . S
C1313 H1325 0.930 . S
C1314 C1310 1.524 . S
C1314 H1326 0.956 . S
C1314 H1327 0.961 . S
C1314 H1328 0.961 . S
C1315 C1312 1.539 . S
C1315 H1329 0.958 . S
C1315 H1330 0.961 . S
C1315 H1331 0.960 . S
H1316 C1300 0.931 . S
H1317 C1305 0.929 . S
H1318 C1306 0.960 . S
H1319 C1306 0.962 . S
H1320 C1306 0.960 . S
H1321 C1307 0.961 . S
H1322 C1307 0.961 . S
H1323 C1307 0.961 . S
H1324 C1308 0.931 . S
H1325 C1313 0.930 . S
H1326 C1314 0.956 . S
H1327 C1314 0.961 . S
H1328 C1314 0.961 . S
H1329 C1315 0.958 . S
H1330 C1315 0.961 . S
H1331 C1315 0.960 . S
C1332 C1333 1.391 1_556 S
C1332 C1334 1.394 1_545 S
C1332 H1348 0.931 . S
C1333 C1332 1.391 1_554 S
C1333 C1337 1.376 . S
C1334 C1332 1.394 1_565 S
C1334 C1335 1.369 1_566 S
C1334 C1338 1.531 . S
C1335 C1334 1.369 1_544 S
C1335 C1336 1.410 . S
C1335 C1343 1.503 1_545 S
C1336 C1335 1.410 . S
C1336 C1337 1.392 . S
C1336 C1339 1.511 . S
C1337 C1333 1.376 . S
C1337 C1336 1.392 . S
C1337 H1349 0.929 . S
C1338 C1334 1.531 . S
C1338 H1350 0.960 . S
C1338 H1351 0.962 . S
C1338 H1352 0.960 . S
C1339 C1336 1.511 . S
C1339 H1353 0.961 . S
C1339 H1354 0.961 . S
C1339 H1355 0.961 . S
C1340 C1341 1.370 . S
C1340 C1342 1.363 . S
C1340 H1356 0.931 . S
C1341 C1340 1.370 . S
C1341 C1345 1.408 . S
C1342 C1340 1.363 . S
C1342 C1343 1.370 . S
C1342 C1346 1.524 . S
C1343 C1335 1.503 1_565 S
C1343 C1342 1.370 . S
C1343 C1344 1.403 . S
C1344 C1343 1.403 . S
C1344 C1345 1.404 . S
C1344 C1347 1.539 1_564 S
C1345 C1341 1.408 . S
C1345 C1344 1.404 . S
C1345 H1357 0.930 1_554 S
C1346 C1342 1.524 . S
C1346 H1358 0.956 . S
C1346 H1359 0.961 . S
C1346 H1360 0.961 . S
C1347 C1344 1.539 1_546 S
C1347 H1361 0.958 . S
C1347 H1362 0.961 . S
C1347 H1363 0.960 . S
H1348 C1332 0.931 . S
H1349 C1337 0.929 . S
H1350 C1338 0.960 . S
H1351 C1338 0.962 . S
H1352 C1338 0.960 . S
H1353 C1339 0.961 . S
H1354 C1339 0.961 . S
H1355 C1339 0.961 . S
H1356 C1340 0.931 . S
H1357 C1345 0.930 1_556 S
H1358 C1346 0.956 . S
H1359 C1346 0.961 . S
H1360 C1346 0.961 . S
H1361 C1347 0.958 . S
H1362 C1347 0.961 . S
H1363 C1347 0.960 . S
C1364 C1365 1.391 . S
C1364 C1366 1.394 . S
C1364 H1380 0.931 . S
C1365 C1364 1.391 . S
C1365 C1369 1.376 . S
C1366 C1364 1.394 . S
C1366 C1367 1.369 . S
C1366 C1370 1.531 . S
C1367 C1366 1.369 . S
C1367 C1368 1.410 . S
C1367 C1375 1.503 . S
C1368 C1367 1.410 . S
C1368 C1369 1.392 . S
C1368 C1371 1.511 . S
C1369 C1365 1.376 . S
C1369 C1368 1.392 . S
C1369 H1381 0.929 . S
C1370 C1366 1.531 . S
C1370 H1382 0.960 . S
C1370 H1383 0.962 . S
C1370 H1384 0.960 . S
C1371 C1368 1.511 . S
C1371 H1385 0.961 . S
C1371 H1386 0.961 . S
C1371 H1387 0.961 . S
C1372 C1373 1.370 . S
C1372 C1374 1.363 . S
C1372 H1388 0.931 . S
C1373 C1372 1.370 . S
C1373 C1377 1.408 . S
C1374 C1372 1.363 . S
C1374 C1375 1.370 . S
C1374 C1378 1.524 . S
C1375 C1367 1.503 . S
C1375 C1374 1.370 . S
C1375 C1376 1.403 . S
C1376 C1375 1.403 . S
C1376 C1377 1.404 . S
C1376 C1379 1.539 . S
C1377 C1373 1.408 . S
C1377 C1376 1.404 . S
C1377 H1389 0.930 . S
C1378 C1374 1.524 . S
C1378 H1390 0.956 . S
C1378 H1391 0.961 . S
C1378 H1392 0.961 . S
C1379 C1376 1.539 . S
C1379 H1393 0.958 . S
C1379 H1394 0.961 . S
C1379 H1395 0.960 . S
H1380 C1364 0.931 . S
H1381 C1369 0.929 . S
H1382 C1370 0.960 . S
H1383 C1370 0.962 . S
H1384 C1370 0.960 . S
H1385 C1371 0.961 . S
H1386 C1371 0.961 . S
H1387 C1371 0.961 . S
H1388 C1372 0.931 . S
H1389 C1377 0.930 . S
H1390 C1378 0.956 . S
H1391 C1378 0.961 . S
H1392 C1378 0.961 . S
H1393 C1379 0.958 . S
H1394 C1379 0.961 . S
H1395 C1379 0.960 . S
C1396 C1397 1.391 . S
C1396 C1398 1.394 . S
C1396 H1412 0.931 . S
C1397 C1396 1.391 . S
C1397 C1401 1.376 . S
C1398 C1396 1.394 . S
C1398 C1399 1.369 . S
C1398 C1402 1.531 . S
C1399 C1398 1.369 . S
C1399 C1400 1.410 . S
C1399 C1407 1.503 . S
C1400 C1399 1.410 . S
C1400 C1401 1.392 . S
C1400 C1403 1.511 . S
C1401 C1397 1.376 . S
C1401 C1400 1.392 . S
C1401 H1413 0.929 . S
C1402 C1398 1.531 . S
C1402 H1414 0.960 . S
C1402 H1415 0.962 . S
C1402 H1416 0.960 . S
C1403 C1400 1.511 . S
C1403 H1417 0.961 . S
C1403 H1418 0.961 . S
C1403 H1419 0.961 . S
C1404 C1405 1.370 . S
C1404 C1406 1.363 . S
C1404 H1420 0.931 . S
C1405 C1404 1.370 . S
C1405 C1409 1.408 . S
C1406 C1404 1.363 . S
C1406 C1407 1.370 . S
C1406 C1410 1.524 . S
C1407 C1399 1.503 . S
C1407 C1406 1.370 . S
C1407 C1408 1.403 . S
C1408 C1407 1.403 . S
C1408 C1409 1.404 . S
C1408 C1411 1.539 . S
C1409 C1405 1.408 . S
C1409 C1408 1.404 . S
C1409 H1421 0.930 . S
C1410 C1406 1.524 . S
C1410 H1422 0.956 . S
C1410 H1423 0.961 . S
C1410 H1424 0.961 . S
C1411 C1408 1.539 . S
C1411 H1425 0.958 . S
C1411 H1426 0.961 . S
C1411 H1427 0.960 . S
H1412 C1396 0.931 . S
H1413 C1401 0.929 . S
H1414 C1402 0.960 . S
H1415 C1402 0.962 . S
H1416 C1402 0.960 . S
H1417 C1403 0.961 . S
H1418 C1403 0.961 . S
H1419 C1403 0.961 . S
H1420 C1404 0.931 . S
H1421 C1409 0.930 . S
H1422 C1410 0.956 . S
H1423 C1410 0.961 . S
H1424 C1410 0.961 . S
H1425 C1411 0.958 . S
H1426 C1411 0.961 . S
H1427 C1411 0.960 . S
C1428 C1429 1.391 . S
C1428 C1430 1.394 . S
C1428 H1444 0.931 . S
C1429 C1428 1.391 . S
C1429 C1433 1.376 . S
C1430 C1428 1.394 . S
C1430 C1431 1.369 . S
C1430 C1434 1.531 . S
C1431 C1430 1.369 . S
C1431 C1432 1.410 . S
C1431 C1439 1.503 . S
C1432 C1431 1.410 . S
C1432 C1433 1.392 . S
C1432 C1435 1.511 . S
C1433 C1429 1.376 . S
C1433 C1432 1.392 . S
C1433 H1445 0.929 . S
C1434 C1430 1.531 . S
C1434 H1446 0.960 . S
C1434 H1447 0.962 . S
C1434 H1448 0.960 . S
C1435 C1432 1.511 . S
C1435 H1449 0.961 . S
C1435 H1450 0.961 . S
C1435 H1451 0.961 . S
C1436 C1437 1.370 . S
C1436 C1438 1.363 . S
C1436 H1452 0.931 . S
C1437 C1436 1.370 . S
C1437 C1441 1.408 . S
C1438 C1436 1.363 . S
C1438 C1439 1.370 . S
C1438 C1442 1.524 . S
C1439 C1431 1.503 . S
C1439 C1438 1.370 . S
C1439 C1440 1.403 . S
C1440 C1439 1.403 . S
C1440 C1441 1.404 . S
C1440 C1443 1.539 . S
C1441 C1437 1.408 . S
C1441 C1440 1.404 . S
C1441 H1453 0.930 . S
C1442 C1438 1.524 . S
C1442 H1454 0.956 . S
C1442 H1455 0.961 . S
C1442 H1456 0.961 . S
C1443 C1440 1.539 . S
C1443 H1457 0.958 . S
C1443 H1458 0.961 . S
C1443 H1459 0.960 . S
H1444 C1428 0.931 . S
H1445 C1433 0.929 . S
H1446 C1434 0.960 . S
H1447 C1434 0.962 . S
H1448 C1434 0.960 . S
H1449 C1435 0.961 . S
H1450 C1435 0.961 . S
H1451 C1435 0.961 . S
H1452 C1436 0.931 . S
H1453 C1441 0.930 . S
H1454 C1442 0.956 . S
H1455 C1442 0.961 . S
H1456 C1442 0.961 . S
H1457 C1443 0.958 . S
H1458 C1443 0.961 . S
H1459 C1443 0.960 . S
C1460 C1461 1.391 . S
C1460 C1462 1.394 . S
C1460 H1476 0.931 . S
C1461 C1460 1.391 . S
C1461 C1465 1.376 . S
C1462 C1460 1.394 . S
C1462 C1463 1.369 . S
C1462 C1466 1.531 . S
C1463 C1462 1.369 . S
C1463 C1464 1.410 . S
C1463 C1471 1.503 1_545 S
C1464 C1463 1.410 . S
C1464 C1465 1.392 . S
C1464 C1467 1.511 1_545 S
C1465 C1461 1.376 . S
C1465 C1464 1.392 . S
C1465 H1477 0.929 . S
C1466 C1462 1.531 . S
C1466 H1478 0.960 . S
C1466 H1479 0.962 . S
C1466 H1480 0.960 . S
C1467 C1464 1.511 1_565 S
C1467 H1481 0.959 . S
C1467 H1482 0.961 . S
C1467 H1483 0.961 . S
C1468 C1469 1.370 . S
C1468 C1470 1.363 . S
C1468 H1484 0.931 . S
C1469 C1468 1.370 . S
C1469 C1473 1.408 . S
C1470 C1468 1.363 . S
C1470 C1471 1.370 . S
C1470 C1474 1.524 . S
C1471 C1463 1.503 1_565 S
C1471 C1470 1.370 . S
C1471 C1472 1.403 . S
C1472 C1471 1.403 . S
C1472 C1473 1.404 . S
C1472 C1475 1.539 . S
C1473 C1469 1.408 . S
C1473 C1472 1.404 . S
C1473 H1485 0.930 . S
C1474 C1470 1.524 . S
C1474 H1486 0.956 1_565 S
C1474 H1487 0.958 . S
C1474 H1488 0.961 . S
C1475 C1472 1.539 . S
C1475 H1489 0.958 1_565 S
C1475 H1490 0.961 . S
C1475 H1491 0.960 1_565 S
H1476 C1460 0.931 . S
H1477 C1465 0.929 . S
H1478 C1466 0.960 . S
H1479 C1466 0.962 . S
H1480 C1466 0.960 . S
H1481 C1467 0.959 . S
H1482 C1467 0.961 . S
H1483 C1467 0.961 . S
H1484 C1468 0.931 . S
H1485 C1473 0.930 . S
H1486 C1474 0.956 1_545 S
H1487 C1474 0.958 . S
H1488 C1474 0.961 . S
H1489 C1475 0.958 1_545 S
H1490 C1475 0.961 . S
H1491 C1475 0.960 1_545 S
C1492 C1493 1.391 . S
C1492 C1494 1.394 . S
C1492 H1508 0.931 . S
C1493 C1492 1.391 . S
C1493 C1497 1.376 . S
C1494 C1492 1.394 . S
C1494 C1495 1.369 . S
C1494 C1498 1.531 1_655 S
C1495 C1494 1.369 . S
C1495 C1496 1.410 . S
C1495 C1503 1.532 . S
C1496 C1495 1.410 . S
C1496 C1497 1.392 . S
C1496 C1499 1.511 . S
C1497 C1493 1.376 . S
C1497 C1496 1.392 . S
C1497 H1509 0.929 . S
C1498 C1494 1.531 1_455 S
C1498 H1510 0.960 . S
C1498 H1511 0.962 . S
C1498 H1512 0.960 1_455 S
C1499 C1496 1.511 . S
C1499 H1513 0.961 . S
C1499 H1514 0.961 . S
C1499 H1515 0.961 . S
C1500 C1501 1.370 . S
C1500 C1502 1.363 . S
C1500 H1516 0.931 . S
C1501 C1500 1.370 . S
C1501 C1505 1.408 . S
C1502 C1500 1.363 . S
C1502 C1503 1.359 1_455 S
C1502 C1506 1.524 . S
C1503 C1495 1.532 . S
C1503 C1502 1.359 1_655 S
C1503 C1504 1.413 . S
C1504 C1503 1.413 . S
C1504 C1505 1.357 1_655 S
C1504 C1507 1.559 . S
C1505 C1501 1.408 . S
C1505 C1504 1.357 1_455 S
C1505 H1517 0.930 . S
C1506 C1502 1.524 . S
C1506 H1518 0.956 . S
C1506 H1519 0.961 . S
C1506 H1520 0.961 . S
C1507 C1504 1.559 . S
C1507 H1521 0.958 . S
C1507 H1522 0.961 . S
C1507 H1523 0.960 . S
H1508 C1492 0.931 . S
H1509 C1497 0.929 . S
H1510 C1498 0.960 . S
H1511 C1498 0.962 . S
H1512 C1498 0.960 1_655 S
H1513 C1499 0.961 . S
H1514 C1499 0.961 . S
H1515 C1499 0.961 . S
H1516 C1500 0.931 . S
H1517 C1505 0.930 . S
H1518 C1506 0.956 . S
H1519 C1506 0.961 . S
H1520 C1506 0.961 . S
H1521 C1507 0.958 . S
H1522 C1507 0.961 . S
H1523 C1507 0.960 . S
C1524 C1525 1.391 . S
C1524 C1526 1.394 . S
C1524 H1540 0.931 . S
C1525 C1524 1.391 . S
C1525 C1529 1.376 . S
C1526 C1524 1.394 . S
C1526 C1527 1.369 . S
C1526 C1530 1.531 . S
C1527 C1526 1.369 . S
C1527 C1528 1.410 . S
C1527 C1535 1.503 . S
C1528 C1527 1.410 . S
C1528 C1529 1.392 . S
C1528 C1531 1.511 . S
C1529 C1525 1.376 . S
C1529 C1528 1.392 . S
C1529 H1541 0.929 . S
C1530 C1526 1.531 . S
C1530 H1542 0.960 . S
C1530 H1543 0.962 . S
C1530 H1544 0.960 . S
C1531 C1528 1.511 . S
C1531 H1545 0.961 . S
C1531 H1546 0.961 . S
C1531 H1547 0.961 . S
C1532 C1533 1.370 . S
C1532 C1534 1.363 . S
C1532 H1548 0.931 . S
C1533 C1532 1.370 . S
C1533 C1537 1.408 . S
C1534 C1532 1.363 . S
C1534 C1535 1.370 . S
C1534 C1538 1.524 . S
C1535 C1527 1.503 . S
C1535 C1534 1.370 . S
C1535 C1536 1.403 . S
C1536 C1535 1.403 . S
C1536 C1537 1.404 . S
C1536 C1539 1.539 . S
C1537 C1533 1.408 . S
C1537 C1536 1.404 . S
C1537 H1549 0.930 . S
C1538 C1534 1.524 . S
C1538 H1550 0.956 . S
C1538 H1551 0.961 . S
C1538 H1552 0.961 . S
C1539 C1536 1.539 . S
C1539 H1553 0.958 . S
C1539 H1554 0.961 . S
C1539 H1555 0.960 . S
H1540 C1524 0.931 . S
H1541 C1529 0.929 . S
H1542 C1530 0.960 . S
H1543 C1530 0.962 . S
H1544 C1530 0.960 . S
H1545 C1531 0.961 . S
H1546 C1531 0.961 . S
H1547 C1531 0.961 . S
H1548 C1532 0.931 . S
H1549 C1537 0.930 . S
H1550 C1538 0.956 . S
H1551 C1538 0.961 . S
H1552 C1538 0.961 . S
H1553 C1539 0.958 . S
H1554 C1539 0.961 . S
H1555 C1539 0.960 . S
C1556 C1557 1.391 . S
C1556 C1558 1.394 . S
C1556 H1572 0.931 . S
C1557 C1556 1.391 . S
C1557 C1561 1.376 . S
C1558 C1556 1.394 . S
C1558 C1559 1.369 1_565 S
C1558 C1562 1.531 1_565 S
C1559 C1558 1.369 1_545 S
C1559 C1560 1.410 1_545 S
C1559 C1567 1.503 . S
C1560 C1559 1.410 1_565 S
C1560 C1561 1.392 . S
C1560 C1563 1.511 . S
C1561 C1557 1.376 . S
C1561 C1560 1.392 . S
C1561 H1573 0.929 . S
C1562 C1558 1.531 1_545 S
C1562 H1574 0.960 . S
C1562 H1575 0.962 . S
C1562 H1576 0.960 . S
C1563 C1560 1.511 . S
C1563 H1577 0.961 . S
C1563 H1578 0.961 1_565 S
C1563 H1579 0.934 1_565 S
C1564 C1565 1.370 . S
C1564 C1566 1.363 . S
C1564 H1580 0.931 . S
C1565 C1564 1.370 . S
C1565 C1569 1.408 . S
C1566 C1564 1.363 . S
C1566 C1567 1.370 . S
C1566 C1570 1.524 . S
C1567 C1559 1.503 . S
C1567 C1566 1.370 . S
C1567 C1568 1.403 . S
C1568 C1567 1.403 . S
C1568 C1569 1.404 . S
C1568 C1571 1.539 . S
C1569 C1565 1.408 . S
C1569 C1568 1.404 . S
C1569 H1581 0.930 . S
C1570 C1566 1.524 . S
C1570 H1582 0.977 . S
C1570 H1583 0.961 1_545 S
C1570 H1584 0.961 . S
C1571 C1568 1.539 . S
C1571 H1585 0.958 . S
C1571 H1586 0.961 . S
C1571 H1587 0.960 . S
H1572 C1556 0.931 . S
H1573 C1561 0.929 . S
H1574 C1562 0.960 . S
H1575 C1562 0.962 . S
H1576 C1562 0.960 . S
H1577 C1563 0.961 . S
H1578 C1563 0.961 1_545 S
H1579 C1563 0.934 1_545 S
H1580 C1564 0.931 . S
H1581 C1569 0.930 . S
H1582 C1570 0.977 . S
H1583 C1570 0.961 1_565 S
H1584 C1570 0.961 . S
H1585 C1571 0.958 . S
H1586 C1571 0.961 . S
H1587 C1571 0.960 . S
C1588 C1589 1.391 . S
C1588 C1590 1.394 . S
C1588 H1604 0.931 . S
C1589 C1588 1.391 . S
C1589 C1593 1.376 . S
C1590 C1588 1.394 . S
C1590 C1591 1.369 . S
C1590 C1594 1.531 . S
C1591 C1590 1.369 . S
C1591 C1592 1.410 . S
C1591 C1599 1.503 . S
C1592 C1591 1.410 . S
C1592 C1593 1.392 . S
C1592 C1595 1.511 . S
C1593 C1589 1.376 . S
C1593 C1592 1.392 . S
C1593 H1605 0.929 . S
C1594 C1590 1.531 . S
C1594 H1606 0.960 . S
C1594 H1607 0.962 1_655 S
C1594 H1608 0.960 . S
C1595 C1592 1.511 . S
C1595 H1609 0.961 . S
C1595 H1610 0.961 . S
C1595 H1611 0.961 . S
C1596 C1597 1.370 . S
C1596 C1598 1.363 . S
C1596 H1612 0.931 . S
C1597 C1596 1.370 . S
C1597 C1601 1.408 . S
C1598 C1596 1.363 . S
C1598 C1599 1.370 1_455 S
C1598 C1602 1.524 . S
C1599 C1591 1.503 . S
C1599 C1598 1.370 1_655 S
C1599 C1600 1.403 . S
C1600 C1599 1.403 . S
C1600 C1601 1.404 1_655 S
C1600 C1603 1.539 . S
C1601 C1597 1.408 . S
C1601 C1600 1.404 1_455 S
C1601 H1613 0.930 . S
C1602 C1598 1.524 . S
C1602 H1614 0.956 . S
C1602 H1615 0.961 . S
C1602 H1616 0.961 . S
C1603 C1600 1.539 . S
C1603 H1617 0.958 . S
C1603 H1618 0.961 . S
C1603 H1619 0.960 . S
H1604 C1588 0.931 . S
H1605 C1593 0.929 . S
H1606 C1594 0.960 . S
H1607 C1594 0.962 1_455 S
H1608 C1594 0.960 . S
H1609 C1595 0.961 . S
H1610 C1595 0.961 . S
H1611 C1595 0.961 . S
H1612 C1596 0.931 . S
H1613 C1601 0.930 . S
H1614 C1602 0.956 . S
H1615 C1602 0.961 . S
H1616 C1602 0.961 . S
H1617 C1603 0.958 . S
H1618 C1603 0.961 . S
H1619 C1603 0.960 . S
C757 C63 3.453 1_556 S
C765 C74 3.466 . S
C789 C158 3.484 . S
C797 C147 3.478 . S
C821 C231 3.507 . S
C829 C242 3.500 . S
C853 C326 3.448 . S
C861 C315 3.469 1_556 S
C885 C399 3.467 . S
C893 C410 3.484 1_556 S
C917 C494 3.508 . S
C925 C483 3.499 . S
C949 C573 2.174 . S
C957 C562 2.118 . S
C981 C646 2.236 . S
C989 C657 2.275 . S
C1013 C741 1.559 . S
C1021 C730 1.599 . S
C1045 C476 1.627 . S
C1053 C69 1.400 . S
C1077 C140 2.117 . S
C1085 C308 2.115 . S
C1109 C237 1.047 . S
C1117 C405 1.064 . S
C1141 C224 2.316 1_556 S
C1149 C571 2.304 . S
C1173 C662 1.537 . S
C1181 C56 1.539 . S
C1205 C739 1.255 . S
C1213 C153 1.232 . S
C1237 C735 0.986 . S
C1245 C58 0.942 1_556 S
C1269 C151 1.898 1_556 S
C1277 C567 1.881 . S
C1301 C644 1.774 . S
C1309 C226 1.734 . S
C1333 C235 1.632 . S
C1341 C310 1.394 . S
C1365 C403 2.118 . S
C1373 C67 2.111 . S
C1397 C142 1.010 . S
C1405 C478 1.067 . S
C1429 C746 0.970 . S
C1437 C321 0.967 . S
C1461 C578 1.896 . S
C1469 C392 1.893 . S
C1493 C655 1.772 . S
C1501 C489 1.727 . S
C1525 C560 2.316 . S
C1533 C487 2.304 . S
C1557 C319 1.542 . S
C1565 C651 1.533 . S
C1589 C728 1.253 . S
C1597 C394 1.226 . S
