# Generated by pormake.
# Topology uoq, (4)-cn, num edge types: 1
# Building blocks:
#     Node 0, Type 0, BuildingBlock: CEKHIL_clean_sbu_0, # of connection points: 4
#     Node 1, Type 0, BuildingBlock: CEKHIL_clean_sbu_0, # of connection points: 4
#     Node 2, Type 0, BuildingBlock: CEKHIL_clean_sbu_0, # of connection points: 4
#     Node 3, Type 0, BuildingBlock: CEKHIL_clean_sbu_0, # of connection points: 4
#     Node 4, Type 0, BuildingBlock: CEKHIL_clean_sbu_0, # of connection points: 4
#     Node 5, Type 0, BuildingBlock: CEKHIL_clean_sbu_0, # of connection points: 4
#     Node 6, Type 0, BuildingBlock: CEKHIL_clean_sbu_0, # of connection points: 4
#     Node 7, Type 0, BuildingBlock: CEKHIL_clean_sbu_0, # of connection points: 4
#     Node 8, Type 0, BuildingBlock: CEKHIL_clean_sbu_0, # of connection points: 4
#     Node 9, Type 0, BuildingBlock: CEKHIL_clean_sbu_0, # of connection points: 4
#     Node 10, Type 0, BuildingBlock: CEKHIL_clean_sbu_0, # of connection points: 4
#     Node 11, Type 0, BuildingBlock: CEKHIL_clean_sbu_0, # of connection points: 4
#     Edge 12, Type (0, 0), BuildingBlock: ZUJKAS_clean_linker_0, # of connection points: 2
#     Edge 13, Type (0, 0), BuildingBlock: ZUJKAS_clean_linker_0, # of connection points: 2
#     Edge 14, Type (0, 0), BuildingBlock: ZUJKAS_clean_linker_0, # of connection points: 2
#     Edge 15, Type (0, 0), BuildingBlock: ZUJKAS_clean_linker_0, # of connection points: 2
#     Edge 16, Type (0, 0), BuildingBlock: ZUJKAS_clean_linker_0, # of connection points: 2
#     Edge 17, Type (0, 0), BuildingBlock: ZUJKAS_clean_linker_0, # of connection points: 2
#     Edge 18, Type (0, 0), BuildingBlock: ZUJKAS_clean_linker_0, # of connection points: 2
#     Edge 19, Type (0, 0), BuildingBlock: ZUJKAS_clean_linker_0, # of connection points: 2
#     Edge 20, Type (0, 0), BuildingBlock: ZUJKAS_clean_linker_0, # of connection points: 2
#     Edge 21, Type (0, 0), BuildingBlock: ZUJKAS_clean_linker_0, # of connection points: 2
#     Edge 22, Type (0, 0), BuildingBlock: ZUJKAS_clean_linker_0, # of connection points: 2
#     Edge 23, Type (0, 0), BuildingBlock: ZUJKAS_clean_linker_0, # of connection points: 2
#     Edge 24, Type (0, 0), BuildingBlock: ZUJKAS_clean_linker_0, # of connection points: 2
#     Edge 25, Type (0, 0), BuildingBlock: ZUJKAS_clean_linker_0, # of connection points: 2
#     Edge 26, Type (0, 0), BuildingBlock: ZUJKAS_clean_linker_0, # of connection points: 2
#     Edge 27, Type (0, 0), BuildingBlock: ZUJKAS_clean_linker_0, # of connection points: 2
#     Edge 28, Type (0, 0), BuildingBlock: ZUJKAS_clean_linker_0, # of connection points: 2
#     Edge 29, Type (0, 0), BuildingBlock: ZUJKAS_clean_linker_0, # of connection points: 2
#     Edge 30, Type (0, 0), BuildingBlock: ZUJKAS_clean_linker_0, # of connection points: 2
#     Edge 31, Type (0, 0), BuildingBlock: ZUJKAS_clean_linker_0, # of connection points: 2
#     Edge 32, Type (0, 0), BuildingBlock: ZUJKAS_clean_linker_0, # of connection points: 2
#     Edge 33, Type (0, 0), BuildingBlock: ZUJKAS_clean_linker_0, # of connection points: 2
#     Edge 34, Type (0, 0), BuildingBlock: ZUJKAS_clean_linker_0, # of connection points: 2
#     Edge 35, Type (0, 0), BuildingBlock: ZUJKAS_clean_linker_0, # of connection points: 2
# Relax obj value: 0.174
# Max RMSD: 0.159
# Mean RMSD: 0.159
data_MOF--net-uoq--node1-CEKHIL_clean_sbu_0--edge1-ZUJKAS_clean_linker_0
_symmetry_space_group_name_H-M    P1
_symmetry_Int_Tables_number       1
_symmetry_cell_setting            triclinic
loop_
_symmetry_equiv_pos_as_xyz
'x, y, z'
_cell_length_a     76.265957
_cell_length_b     76.277954
_cell_length_c     28.636997
_cell_angle_alpha  90.031344
_cell_angle_beta   89.980939
_cell_angle_gamma 120.05956
loop_
_atom_site_label
_atom_site_type_symbol
_atom_site_fract_x
_atom_site_fract_y
_atom_site_fract_z
_atom_type_partial_charge
Co0 Co 0.31101 0.44621 0.24594 0.0
O1 O 0.28682 0.42953 0.2095 0.0
O2 O 0.30868 0.46172 0.19511 0.0
C3 C 0.32194 0.42359 0.25279 0.0
O4 O 0.33775 0.46813 0.27369 0.0
Co5 Co 0.31671 0.43367 0.34635 0.0
O6 O 0.34454 0.45726 0.34064 0.0
C7 C 0.2878 0.44788 0.32966 0.0
C8 C 0.29189 0.44543 0.18392 0.0
C9 C 0.3495 0.47043 0.30837 0.0
O10 O 0.2952 0.45442 0.28872 0.0
O11 O 0.29267 0.43722 0.35516 0.0
O12 O 0.32572 0.43425 0.21474 0.0
O13 O 0.31024 0.42552 0.28202 0.0
Co14 Co 0.86538 0.3089 0.58511 0.0
O15 O 0.85727 0.28375 0.55184 0.0
O16 O 0.84748 0.30567 0.5337 0.0
C17 C 0.89887 0.31924 0.59174 0.0
O18 O 0.87065 0.3365 0.60836 0.0
Co19 Co 0.88507 0.31868 0.6844 0.0
O20 O 0.89192 0.34676 0.6696 0.0
C21 C 0.84069 0.2918 0.67374 0.0
C22 C 0.84666 0.28857 0.52472 0.0
C23 C 0.88217 0.35011 0.63812 0.0
O24 O 0.8415 0.29439 0.62912 0.0
O25 O 0.85621 0.2993 0.70046 0.0
O26 O 0.89188 0.32234 0.55301 0.0
O27 O 0.88539 0.30879 0.62258 0.0
Co28 Co 0.56031 0.86781 0.91204 0.0
O29 O 0.57688 0.86067 0.87419 0.0
O30 O 0.54416 0.84879 0.86343 0.0
C31 C 0.58198 0.90172 0.9153 0.0
O32 O 0.53833 0.87197 0.94171 0.0
Co33 Co 0.57455 0.88793 0.01028 0.0
O34 O 0.54987 0.89044 0.00751 0.0
C35 C 0.56156 0.84485 0.99674 0.0
C36 C 0.56058 0.84891 0.8506 0.0
C37 C 0.53619 0.88144 0.97657 0.0
O38 O 0.55396 0.8447 0.95645 0.0
O39 O 0.57235 0.86098 0.02045 0.0
O40 O 0.57044 0.89383 0.87883 0.0
O41 O 0.58141 0.88889 0.94517 0.0
Co42 Co 0.69651 0.55942 0.24681 0.0
O43 O 0.72081 0.57624 0.21086 0.0
O44 O 0.69881 0.5442 0.19521 0.0
C45 C 0.68562 0.58204 0.25477 0.0
O46 O 0.66971 0.53737 0.27409 0.0
Co47 Co 0.69072 0.57143 0.34778 0.0
O48 O 0.66292 0.54785 0.34166 0.0
C49 C 0.71982 0.55754 0.32983 0.0
C50 C 0.71571 0.56049 0.18464 0.0
C51 C 0.65796 0.53486 0.30893 0.0
O52 O 0.71227 0.55095 0.28903 0.0
O53 O 0.71494 0.56812 0.35562 0.0
O54 O 0.68189 0.57162 0.21632 0.0
O55 O 0.69728 0.57992 0.28371 0.0
Co56 Co 0.1412 0.69467 0.58139 0.0
O57 O 0.14826 0.71866 0.54462 0.0
O58 O 0.15891 0.69708 0.53015 0.0
C59 C 0.10756 0.68338 0.58911 0.0
O60 O 0.13683 0.66813 0.60937 0.0
Co61 Co 0.12328 0.68898 0.68223 0.0
O62 O 0.11939 0.66132 0.67671 0.0
C63 C 0.16622 0.71847 0.66434 0.0
C64 C 0.15915 0.71371 0.51885 0.0
C65 C 0.12759 0.65642 0.64427 0.0
O66 O 0.16539 0.71098 0.62353 0.0
O67 O 0.15072 0.71334 0.6902 0.0
O68 O 0.11434 0.67957 0.55093 0.0
O69 O 0.12129 0.69526 0.61795 0.0
Co70 Co 0.44459 0.13609 0.90983 0.0
O71 O 0.42811 0.14293 0.87085 0.0
O72 O 0.46128 0.15658 0.86439 0.0
C73 C 0.42425 0.10199 0.90821 0.0
O74 O 0.4667 0.1327 0.94125 0.0
Co75 Co 0.42894 0.11316 1.00459 0.0
O76 O 0.45404 0.11136 1.00221 0.0
C77 C 0.44024 0.15612 0.99674 0.0
C78 C 0.44475 0.15579 0.84978 0.0
C79 C 0.46847 0.12216 0.97415 0.0
O80 O 0.44855 0.1577 0.95659 0.0
O81 O 0.42983 0.1393 0.01828 0.0
O82 O 0.43666 0.11114 0.87374 0.0
O83 O 0.42333 0.11369 0.93915 0.0
Co84 Co 0.56096 0.69674 0.42865 0.0
O85 O 0.57734 0.72053 0.46657 0.0
O86 O 0.54478 0.69906 0.47797 0.0
C87 C 0.58318 0.68523 0.42394 0.0
O88 O 0.53919 0.67042 0.39897 0.0
Co89 Co 0.57494 0.69148 0.3295 0.0
O90 O 0.55099 0.6638 0.33323 0.0
C91 C 0.56139 0.721 0.34488 0.0
C92 C 0.56105 0.71558 0.49062 0.0
C93 C 0.53729 0.65882 0.36425 0.0
O94 O 0.554 0.71329 0.38513 0.0
O95 O 0.57223 0.716 0.32039 0.0
O96 O 0.57188 0.68134 0.46095 0.0
O97 O 0.58205 0.69733 0.39452 0.0
Co98 Co 0.86785 0.56143 0.76174 0.0
O99 O 0.86036 0.57791 0.79889 0.0
O100 O 0.84945 0.54548 0.81144 0.0
C101 C 0.90161 0.58368 0.75701 0.0
O102 O 0.87237 0.53958 0.73257 0.0
Co103 Co 0.88727 0.57512 0.66258 0.0
O104 O 0.89154 0.55155 0.66786 0.0
C105 C 0.84399 0.56116 0.67736 0.0
C106 C 0.84911 0.56176 0.82343 0.0
C107 C 0.88246 0.53779 0.69856 0.0
O108 O 0.84434 0.55418 0.71808 0.0
O109 O 0.85983 0.57187 0.6527 0.0
O110 O 0.89418 0.57252 0.79418 0.0
O111 O 0.88838 0.58243 0.72737 0.0
Co112 Co 0.31104 0.86849 0.09944 0.0
O113 O 0.28748 0.86139 0.13792 0.0
O114 O 0.30785 0.84885 0.14656 0.0
C115 C 0.32402 0.90252 0.09818 0.0
O116 O 0.33694 0.87242 0.0689 0.0
Co117 Co 0.3175 0.88982 1.00265 0.0
O118 O 0.3449 0.89283 0.00631 0.0
C119 C 0.28681 0.84669 0.01351 0.0
C120 C 0.29176 0.84918 0.16028 0.0
C121 C 0.34907 0.88285 0.03559 0.0
O122 O 0.29385 0.846 0.05397 0.0
O123 O 0.29269 0.86309 0.99053 0.0
O124 O 0.32744 0.8941 0.13394 0.0
O125 O 0.31152 0.89011 0.06796 0.0
Co126 Co 0.44624 0.30861 0.42794 0.0
O127 O 0.42964 0.28489 0.4658 0.0
O128 O 0.46209 0.30647 0.47825 0.0
C129 C 0.42402 0.32004 0.42154 0.0
O130 O 0.46817 0.33488 0.39842 0.0
Co131 Co 0.43289 0.3135 0.32776 0.0
O132 O 0.45675 0.34123 0.33177 0.0
C133 C 0.44662 0.28427 0.34512 0.0
C134 C 0.44577 0.28993 0.49055 0.0
C135 C 0.47025 0.34634 0.36332 0.0
O136 O 0.45358 0.29201 0.38558 0.0
O137 O 0.436 0.28917 0.31956 0.0
O138 O 0.43505 0.32402 0.45904 0.0
O139 O 0.42536 0.30788 0.39263 0.0
Co140 Co 0.13932 0.44318 0.75996 0.0
O141 O 0.1469 0.42678 0.79716 0.0
O142 O 0.1577 0.4592 0.8096 0.0
C143 C 0.1056 0.4207 0.75492 0.0
O144 O 0.13459 0.46495 0.73123 0.0
Co145 Co 0.12006 0.42967 0.66069 0.0
O146 O 0.11618 0.45349 0.66539 0.0
C147 C 0.16333 0.44374 0.6755 0.0
C148 C 0.1581 0.44297 0.82168 0.0
C149 C 0.12489 0.46701 0.69678 0.0
O150 O 0.16293 0.45069 0.71626 0.0
O151 O 0.14749 0.43291 0.65096 0.0
O152 O 0.1129 0.43182 0.79223 0.0
O153 O 0.11893 0.42217 0.72533 0.0
Co154 Co 0.69385 0.13536 0.10335 0.0
O155 O 0.7172 0.14164 0.14191 0.0
O156 O 0.69916 0.1569 0.14713 0.0
C157 C 0.67844 0.10117 0.10817 0.0
O158 O 0.66855 0.13283 0.07239 0.0
Co159 Co 0.68486 0.11095 0.01032 0.0
O160 O 0.65958 0.11236 0.00962 0.0
C161 C 0.71804 0.15336 0.01459 0.0
C162 C 0.71441 0.15533 0.16207 0.0
C163 C 0.65647 0.12331 0.03827 0.0
O164 O 0.71193 0.15582 0.05481 0.0
O165 O 0.71065 0.13616 0.99425 0.0
O166 O 0.67621 0.11142 0.14169 0.0
O167 O 0.69102 0.1118 0.07594 0.0
H168 H 0.31525 0.40108 0.33073 0.0
H169 H 0.33378 0.38506 0.35907 0.0
H170 H 0.37122 0.40456 0.23562 0.0
H171 H 0.35292 0.42147 0.20738 0.0
H172 H 0.3372 0.35494 0.32378 0.0
H173 H 0.41363 0.42312 0.33806 0.0
H174 H 0.39108 0.4247 0.32841 0.0
H175 H 0.40264 0.41884 0.28078 0.0
C176 C 0.32747 0.4021 0.30943 0.0
C177 C 0.33268 0.4127 0.26681 0.0
C178 C 0.33806 0.39286 0.32579 0.0
C179 C 0.35414 0.39383 0.29999 0.0
C180 C 0.35918 0.40399 0.25674 0.0
H181 H 0.40046 0.31278 0.34516 0.0
H182 H 0.38421 0.33125 0.31766 0.0
C183 C 0.34857 0.41345 0.24034 0.0
C184 C 0.36494 0.38356 0.31852 0.0
H185 H 0.41121 0.39138 0.35364 0.0
C186 C 0.35339 0.36296 0.33029 0.0
C187 C 0.38601 0.39407 0.32796 0.0
C188 C 0.39908 0.41645 0.31861 0.0
C189 C 0.36225 0.35255 0.35076 0.0
C190 C 0.38341 0.36283 0.35863 0.0
C191 C 0.395 0.3835 0.34745 0.0
C192 C 0.39379 0.352 0.37608 0.0
C193 C 0.34873 0.33066 0.36444 0.0
C194 C 0.40509 0.35778 0.41777 0.0
C195 C 0.41467 0.34724 0.43365 0.0
C196 C 0.41318 0.33086 0.40783 0.0
C197 C 0.40189 0.32524 0.36614 0.0
C198 C 0.39246 0.33575 0.35035 0.0
H199 H 0.33284 0.32704 0.36991 0.0
H200 H 0.34871 0.32077 0.33599 0.0
H201 H 0.35417 0.32696 0.39689 0.0
H202 H 0.4064 0.37037 0.43807 0.0
H203 H 0.4234 0.35203 0.46564 0.0
H204 H 0.93203 0.34862 0.54305 0.0
H205 H 0.96764 0.36644 0.56921 0.0
H206 H 0.94995 0.33169 0.69664 0.0
H207 H 0.91497 0.3137 0.67066 0.0
H208 H 0.98527 0.3901 0.64994 0.0
H209 H 0.99513 0.32298 0.64972 0.0
H210 H 0.97413 0.32307 0.621 0.0
H211 H 0.9735 0.31894 0.68302 0.0
C212 C 0.93584 0.34465 0.57631 0.0
C213 C 0.92066 0.32964 0.60455 0.0
C214 C 0.95614 0.35491 0.59137 0.0
C215 C 0.96151 0.35019 0.63466 0.0
C216 C 0.94631 0.33532 0.66275 0.0
H217 H 0.07328 0.42105 0.79825 0.0
H218 H 0.03796 0.40443 0.77047 0.0
C219 C 0.92622 0.32509 0.64779 0.0
C220 C 0.98286 0.36075 0.65142 0.0
H221 H 0.01982 0.35184 0.69177 0.0
C222 C 0.99292 0.38179 0.65872 0.0
C223 C 0.99289 0.34993 0.66269 0.0
C224 C 0.98344 0.32752 0.65328 0.0
C225 C 0.01261 0.39221 0.67774 0.0
C226 C 0.0223 0.38123 0.69065 0.0
C227 C 0.0123 0.36025 0.68264 0.0
C228 C 0.04342 0.39124 0.70903 0.0
C229 C 0.02298 0.41492 0.68293 0.0
C230 C 0.05803 0.38881 0.68485 0.0
C231 C 0.07793 0.39793 0.70095 0.0
C232 C 0.08386 0.40983 0.74173 0.0
C233 C 0.06918 0.41198 0.76676 0.0
C234 C 0.04907 0.40269 0.75057 0.0
H235 H 0.01559 0.42151 0.66139 0.0
H236 H 0.02225 0.41874 0.72 0.0
H237 H 0.03918 0.42214 0.67274 0.0
H238 H 0.05409 0.37999 0.65294 0.0
H239 H 0.08877 0.39584 0.68083 0.0
H240 H 0.57344 0.93105 0.88529 0.0
H241 H 0.58805 0.96581 0.91619 0.0
H242 H 0.62766 0.95569 1.00533 0.0
H243 H 0.61319 0.92128 0.9752 0.0
H244 H 0.58962 0.97516 0.02167 0.0
H245 H 0.66463 0.01089 0.93382 0.0
H246 H 0.64266 0.98868 0.91077 0.0
H247 H 0.65624 0.98642 0.9594 0.0
C248 C 0.58554 0.93644 0.91075 0.0
C249 C 0.59226 0.92351 0.92762 0.0
C250 C 0.59375 0.95619 0.92864 0.0
C251 C 0.60898 0.96332 0.96295 0.0
C252 C 0.61605 0.95058 0.97866 0.0
H253 H 0.68814 0.07175 0.11557 0.0
H254 H 0.66908 0.03738 0.08371 0.0
C255 C 0.60776 0.93091 0.96132 0.0
C256 C 0.6172 0.98371 0.98425 0.0
H257 H 0.66097 0.02892 0.99674 0.0
C258 C 0.60514 0.98707 0.01591 0.0
C259 C 0.6375 0.99905 0.9771 0.0
C260 C 0.65104 0.99624 0.94319 0.0
C261 C 0.61309 0.00514 0.04201 0.0
C262 C 0.63355 0.02049 0.03524 0.0
C263 C 0.64537 0.0172 1.00246 0.0
C264 C 0.6433 0.04001 0.06171 0.0
C265 C 0.59971 0.00713 0.07792 0.0
C266 C 0.63493 0.0528 0.06185 0.0
C267 C 0.64556 0.07218 0.08176 0.0
C268 C 0.66492 0.0793 0.10081 0.0
C269 C 0.67302 0.06639 0.10205 0.0
C270 C 0.66222 0.04685 0.08327 0.0
H271 H 0.58724 0.99207 0.08922 0.0
H272 H 0.60849 0.01553 0.10921 0.0
H273 H 0.59272 0.01548 0.06235 0.0
H274 H 0.62072 0.04828 0.04437 0.0
H275 H 0.63925 0.0821 0.07928 0.0
H276 H 0.69192 0.60369 0.33408 0.0
H277 H 0.67327 0.61941 0.36352 0.0
H278 H 0.63649 0.60135 0.23903 0.0
H279 H 0.65486 0.58467 0.2097 0.0
H280 H 0.67029 0.64991 0.33069 0.0
H281 H 0.59345 0.58211 0.33971 0.0
H282 H 0.61591 0.58038 0.32987 0.0
H283 H 0.60473 0.58695 0.28269 0.0
C284 C 0.67981 0.6029 0.31279 0.0
C285 C 0.67481 0.59277 0.26955 0.0
C286 C 0.66915 0.61198 0.3298 0.0
C287 C 0.65322 0.61134 0.30401 0.0
C288 C 0.6484 0.60164 0.26016 0.0
H289 H 0.60783 0.69289 0.34956 0.0
H290 H 0.62413 0.67432 0.32305 0.0
C291 C 0.65905 0.59233 0.24314 0.0
C292 C 0.64242 0.62153 0.3231 0.0
H293 H 0.59598 0.61387 0.35626 0.0
C294 C 0.65403 0.64197 0.33631 0.0
C295 C 0.62126 0.61112 0.33142 0.0
C296 C 0.60809 0.58888 0.32064 0.0
C297 C 0.64514 0.65232 0.35698 0.0
C298 C 0.6239 0.64218 0.36353 0.0
C299 C 0.61225 0.62166 0.35106 0.0
C300 C 0.61353 0.6531 0.38054 0.0
C301 C 0.6587 0.674 0.37217 0.0
C302 C 0.60167 0.6471 0.4214 0.0
C303 C 0.59206 0.65772 0.43672 0.0
C304 C 0.59409 0.67437 0.41114 0.0
C305 C 0.60597 0.68021 0.37033 0.0
C306 C 0.61543 0.66964 0.35511 0.0
H307 H 0.67443 0.6773 0.37868 0.0
H308 H 0.6593 0.68429 0.34406 0.0
H309 H 0.65291 0.67745 0.40441 0.0
H310 H 0.59991 0.63428 0.44145 0.0
H311 H 0.58286 0.65275 0.46802 0.0
H312 H 0.93356 0.58296 0.80101 0.0
H313 H 0.96903 0.59945 0.77414 0.0
H314 H 0.95364 0.62399 0.65572 0.0
H315 H 0.9188 0.60822 0.68253 0.0
H316 H 0.98505 0.59495 0.68887 0.0
H317 H 1.0017 0.67393 0.71075 0.0
H318 H 0.97981 0.65269 0.73671 0.0
H319 H 0.97943 0.65901 0.6763 0.0
C320 C 0.93787 0.59212 0.76966 0.0
C321 C 0.92338 0.59439 0.74414 0.0
C322 C 0.95807 0.60141 0.75415 0.0
C323 C 0.96405 0.61318 0.71318 0.0
C324 C 0.94954 0.61534 0.68785 0.0
H325 H 0.07407 0.65287 0.54347 0.0
H326 H 0.03886 0.63487 0.57208 0.0
C327 C 0.92953 0.6062 0.70325 0.0
C328 C 0.98531 0.62318 0.69599 0.0
H329 H 0.02466 0.66919 0.66322 0.0
C330 C 0.99382 0.61121 0.68362 0.0
C331 C 0.99679 0.6444 0.68936 0.0
C332 C 0.98906 0.65828 0.70441 0.0
C333 C 0.01338 0.61987 0.66411 0.0
C334 C 0.02453 0.64102 0.65584 0.0
C335 C 0.01605 0.65295 0.66883 0.0
C336 C 0.04562 0.65149 0.63724 0.0
C337 C 0.02206 0.60637 0.65346 0.0
C338 C 0.06099 0.6672 0.66342 0.0
C339 C 0.08081 0.67765 0.64683 0.0
C340 C 0.08596 0.67264 0.60363 0.0
C341 C 0.07059 0.65705 0.5769 0.0
C342 C 0.05053 0.64662 0.5935 0.0
H343 H 0.01383 0.59169 0.67228 0.0
H344 H 0.02072 0.6031 0.61545 0.0
H345 H 0.03834 0.61387 0.66306 0.0
H346 H 0.05766 0.67135 0.69709 0.0
H347 H 0.09217 0.68962 0.66838 0.0
H348 H 0.31451 0.92279 0.03551 0.0
H349 H 0.33615 0.95668 1.00455 0.0
H350 H 0.38357 0.96553 0.10015 0.0
H351 H 0.36169 0.93119 0.13181 0.0
H352 H 0.37781 0.99967 0.09092 0.0
H353 H 0.38477 0.97142 0.91808 0.0
H354 H 0.35886 0.96041 0.93636 0.0
H355 H 0.37602 0.95548 0.9693 0.0
C356 C 0.32948 0.93196 0.0504 0.0
C357 C 0.33644 0.92426 0.08596 0.0
C358 C 0.3419 0.9513 0.03232 0.0
C359 C 0.36168 0.96342 0.04904 0.0
C360 C 0.36843 0.95628 0.0863 0.0
H361 H 0.43975 0.07674 0.89235 0.0
H362 H 0.42719 0.04291 0.92693 0.0
C363 C 0.35589 0.93676 0.1046 0.0
C364 C 0.3749 0.98352 0.02713 0.0
H365 H 0.3917 0.00595 0.92051 0.0
C366 C 0.38117 1.00107 0.05385 0.0
C367 C 0.3797 0.9854 0.97891 0.0
C368 C 0.37468 0.96717 0.94908 0.0
C369 C 0.39085 0.02035 0.03301 0.0
C370 C 0.39394 0.02208 0.98398 0.0
C371 C 0.38899 0.00464 0.95787 0.0
C372 C 0.40087 0.04162 0.95913 0.0
C373 C 0.39735 0.03868 0.06371 0.0
C374 C 0.38973 0.0516 0.96364 0.0
C375 C 0.39683 0.07073 0.9441 0.0
C376 C 0.41502 0.08017 0.91866 0.0
C377 C 0.42553 0.06966 0.91122 0.0
C378 C 0.41848 0.05046 0.93137 0.0
H379 H 0.40031 0.03571 0.10003 0.0
H380 H 0.41123 0.05205 0.05 0.0
H381 H 0.38503 0.04239 0.06508 0.0
H382 H 0.37577 0.04484 0.98353 0.0
H383 H 0.38843 0.07851 0.95033 0.0
H384 H 0.18752 0.47568 0.86944 0.0
H385 H 0.21043 0.47595 0.92971 0.0
H386 H 0.18116 0.41082 0.92231 0.0
H387 H 0.15868 0.41052 0.86102 0.0
H388 H 0.20434 0.46025 0.01519 0.0
H389 H 0.23898 0.42506 0.90819 0.0
H390 H 0.22298 0.43376 0.88322 0.0
H391 H 0.21197 0.40953 0.91197 0.0
C392 C 0.18597 0.4614 0.88059 0.0
C393 C 0.17133 0.44309 0.86008 0.0
C394 C 0.19911 0.46157 0.91512 0.0
C395 C 0.19792 0.44345 0.93005 0.0
C396 C 0.18289 0.42509 0.91055 0.0
H397 H 0.258 0.41277 0.14771 0.0
H398 H 0.23554 0.41259 0.08625 0.0
C399 C 0.16988 0.42492 0.87571 0.0
C400 C 0.21218 0.44377 0.96643 0.0
H401 H 0.24638 0.42825 0.98961 0.0
C402 C 0.21361 0.45336 0.00937 0.0
C403 C 0.22441 0.43484 0.95908 0.0
C404 C 0.2247 0.4254 0.91296 0.0
C405 C 0.22655 0.45393 0.04519 0.0
C406 C 0.23851 0.44477 0.038 0.0
C407 C 0.23714 0.4352 0.99518 0.0
C408 C 0.2525 0.44494 0.0746 0.0
C409 C 0.22706 0.46401 0.09091 0.0
C410 C 0.26974 0.46314 0.08802 0.0
C411 C 0.28272 0.46327 0.1229 0.0
C412 C 0.2787 0.4452 0.14528 0.0
C413 C 0.26155 0.42696 0.13132 0.0
C414 C 0.24868 0.42683 0.09616 0.0
H415 H 0.2142 0.46687 0.09428 0.0
H416 H 0.22668 0.45454 0.12078 0.0
H417 H 0.24138 0.47876 0.0932 0.0
H418 H 0.27315 0.47727 0.07149 0.0
H419 H 0.29577 0.47758 0.13273 0.0
H420 H 0.84423 0.25342 0.4931 0.0
H421 H 0.82283 0.23114 0.43026 0.0
H422 H 0.79807 0.27035 0.40772 0.0
H423 H 0.81979 0.29292 0.46945 0.0
H424 H 0.78255 0.20939 0.4214 0.0
H425 H 0.81255 0.26467 0.27636 0.0
H426 H 0.82495 0.26967 0.33239 0.0
H427 H 0.80362 0.27338 0.32396 0.0
C428 C 0.83435 0.25739 0.47449 0.0
C429 C 0.83387 0.27507 0.48617 0.0
C430 C 0.82207 0.2446 0.43855 0.0
C431 C 0.80903 0.24917 0.41338 0.0
C432 C 0.80837 0.2667 0.42547 0.0
H433 H 0.71468 0.18782 0.20393 0.0
H434 H 0.73766 0.21006 0.26486 0.0
C435 C 0.82073 0.27956 0.46113 0.0
C436 C 0.79564 0.23529 0.37571 0.0
H437 H 0.78168 0.23388 0.26147 0.0
C438 C 0.78251 0.21475 0.38635 0.0
C439 C 0.79552 0.24215 0.32973 0.0
C440 C 0.81006 0.26362 0.31473 0.0
C441 C 0.76901 0.20111 0.35291 0.0
C442 C 0.76864 0.20808 0.30732 0.0
C443 C 0.78184 0.22855 0.29649 0.0
C444 C 0.75463 0.19439 0.27043 0.0
C445 C 0.75488 0.17941 0.36689 0.0
C446 C 0.75659 0.17826 0.25284 0.0
C447 C 0.74353 0.16556 0.21781 0.0
C448 C 0.72816 0.16869 0.19961 0.0
C449 C 0.72626 0.18489 0.21724 0.0
C450 C 0.73943 0.19766 0.25204 0.0
H451 H 0.754 0.17744 0.40542 0.0
H452 H 0.7394 0.17403 0.3531 0.0
H453 H 0.76046 0.16968 0.35188 0.0
H454 H 0.76838 0.17559 0.26592 0.0
H455 H 0.7455 0.1533 0.20496 0.0
H456 H 0.52803 0.81923 0.80275 0.0
H457 H 0.52809 0.79632 0.7428 0.0
H458 H 0.59323 0.82599 0.75102 0.0
H459 H 0.59322 0.84852 0.81181 0.0
H460 H 0.54446 0.80269 0.65709 0.0
H461 H 0.5789 0.76804 0.76651 0.0
H462 H 0.56987 0.78391 0.79073 0.0
H463 H 0.59434 0.79507 0.76306 0.0
C464 C 0.54238 0.82087 0.79183 0.0
C465 C 0.56061 0.83564 0.81241 0.0
C466 C 0.54239 0.80774 0.7575 0.0
C467 C 0.56063 0.80905 0.74291 0.0
C468 C 0.57889 0.8242 0.7625 0.0
H469 H 0.59338 0.74903 0.52929 0.0
H470 H 0.59291 0.77134 0.59032 0.0
C471 C 0.57888 0.83722 0.79706 0.0
C472 C 0.56054 0.7948 0.70683 0.0
H473 H 0.57629 0.76067 0.68513 0.0
C474 C 0.5513 0.79341 0.66343 0.0
C475 C 0.56942 0.78258 0.71487 0.0
C476 C 0.57851 0.78228 0.76146 0.0
C477 C 0.55108 0.78056 0.62778 0.0
C478 C 0.56019 0.76859 0.63568 0.0
C479 C 0.56938 0.7699 0.679 0.0
C480 C 0.56038 0.75468 0.5993 0.0
C481 C 0.54146 0.78018 0.5815 0.0
C482 C 0.54229 0.73765 0.58453 0.0
C483 C 0.54253 0.72475 0.54988 0.0
C484 C 0.56087 0.72865 0.52909 0.0
C485 C 0.57899 0.74558 0.54443 0.0
C486 C 0.57875 0.75837 0.57935 0.0
H487 H 0.53883 0.79318 0.57762 0.0
H488 H 0.55111 0.78044 0.55215 0.0
H489 H 0.52662 0.76599 0.57877 0.0
H490 H 0.52796 0.73432 0.59985 0.0
H491 H 0.5283 0.71187 0.53896 0.0
H492 H 0.70786 0.53077 0.12024 0.0
H493 H 0.7305 0.53091 0.05917 0.0
H494 H 0.77635 0.5909 0.10098 0.0
H495 H 0.75383 0.59094 0.16194 0.0
H496 H 0.75021 0.55993 0.98306 0.0
H497 H 0.80507 0.55638 0.10487 0.0
H498 H 0.77972 0.5497 0.12238 0.0
H499 H 0.79894 0.57584 0.1168 0.0
C500 C 0.72273 0.54403 0.11636 0.0
C501 C 0.72902 0.56083 0.14614 0.0
C502 C 0.73566 0.54408 0.08141 0.0
C503 C 0.75524 0.56081 0.07582 0.0
C504 C 0.76144 0.57771 0.10501 0.0
H505 H 0.84132 0.59197 0.84722 0.0
H506 H 0.81845 0.59144 0.90803 0.0
C507 C 0.74848 0.57774 0.13972 0.0
C508 C 0.76916 0.5606 0.03949 0.0
H509 H 0.81394 0.56109 0.0247 0.0
C510 C 0.76413 0.56016 0.99216 0.0
C511 C 0.78725 0.56072 0.05134 0.0
C512 C 0.79309 0.56053 0.10157 0.0
C513 C 0.77687 0.56023 0.95645 0.0
C514 C 0.79515 0.56075 0.96831 0.0
C515 C 0.8 0.56082 0.01563 0.0
C516 C 0.80936 0.56118 0.93195 0.0
C517 C 0.77064 0.55954 0.90621 0.0
C518 C 0.81216 0.54448 0.92563 0.0
C519 C 0.82517 0.54469 0.89068 0.0
C520 C 0.83588 0.56173 0.86173 0.0
C521 C 0.83334 0.5786 0.86884 0.0
C522 C 0.82019 0.5783 0.90348 0.0
H523 H 0.7545 0.55541 0.90296 0.0
H524 H 0.78015 0.57467 0.89014 0.0
H525 H 0.77305 0.54846 0.88612 0.0
H526 H 0.80402 0.53114 0.94731 0.0
H527 H 0.82677 0.53146 0.88624 0.0
H528 H 0.16025 0.74759 0.48325 0.0
H529 H 0.18213 0.76995 0.42127 0.0
H530 H 0.20959 0.73272 0.40601 0.0
H531 H 0.18735 0.71 0.46699 0.0
H532 H 0.22235 0.79295 0.41719 0.0
H533 H 0.19751 0.7376 0.27209 0.0
H534 H 0.18387 0.7321 0.32655 0.0
H535 H 0.20612 0.72971 0.32179 0.0
C536 C 0.17079 0.74402 0.46634 0.0
C537 C 0.17191 0.72688 0.47993 0.0
C538 C 0.18335 0.75688 0.43092 0.0
C539 C 0.19736 0.75294 0.40817 0.0
C540 C 0.19858 0.73587 0.42191 0.0
H541 H 0.29406 0.81864 0.20517 0.0
H542 H 0.2714 0.79575 0.26568 0.0
C543 C 0.1859 0.72292 0.45709 0.0
C544 C 0.21119 0.7671 0.3715 0.0
H545 H 0.22743 0.76938 0.25897 0.0
C546 C 0.22332 0.78777 0.38252 0.0
C547 C 0.21256 0.76047 0.32606 0.0
C548 C 0.19918 0.7388 0.31069 0.0
C549 C 0.23694 0.80181 0.3499 0.0
C550 C 0.23846 0.79511 0.30478 0.0
C551 C 0.22636 0.7745 0.29365 0.0
C552 C 0.2524 0.80931 0.26855 0.0
C553 C 0.2499 0.82368 0.3642 0.0
C554 C 0.24923 0.8245 0.24974 0.0
C555 C 0.2621 0.83755 0.21496 0.0
C556 C 0.27849 0.83574 0.19829 0.0
C557 C 0.28168 0.82055 0.21734 0.0
C558 C 0.26869 0.8074 0.25186 0.0
H559 H 0.25011 0.82562 0.40269 0.0
H560 H 0.26571 0.82987 0.35173 0.0
H561 H 0.24378 0.83274 0.34812 0.0
H562 H 0.23662 0.82611 0.26156 0.0
H563 H 0.25913 0.849 0.20097 0.0
H564 H 0.47761 0.18718 0.80672 0.0
H565 H 0.47774 0.21031 0.7472 0.0
H566 H 0.41242 0.1779 0.74715 0.0
H567 H 0.4122 0.1551 0.80747 0.0
H568 H 0.46324 0.20415 0.65949 0.0
H569 H 0.42373 0.23489 0.76446 0.0
H570 H 0.43326 0.21965 0.7898 0.0
H571 H 0.40944 0.20784 0.75916 0.0
C572 C 0.46326 0.18499 0.7941 0.0
C573 C 0.44489 0.16935 0.81217 0.0
C574 C 0.46336 0.19825 0.76002 0.0
C575 C 0.4451 0.1962 0.7432 0.0
C576 C 0.42673 0.18024 0.76038 0.0
H577 H 0.41336 0.25592 0.52707 0.0
H578 H 0.41357 0.23357 0.58828 0.0
C579 C 0.42663 0.16708 0.79468 0.0
C580 C 0.44529 0.2105 0.70718 0.0
H581 H 0.42802 0.24325 0.68357 0.0
C582 C 0.45564 0.21278 0.66496 0.0
C583 C 0.43541 0.22187 0.71411 0.0
C584 C 0.42501 0.22113 0.7595 0.0
C585 C 0.45604 0.22572 0.62936 0.0
C586 C 0.44599 0.23688 0.63614 0.0
C587 C 0.43567 0.23465 0.6783 0.0
C588 C 0.44593 0.25085 0.59976 0.0
C589 C 0.46686 0.22701 0.58426 0.0
C590 C 0.464 0.26824 0.58637 0.0
C591 C 0.46391 0.28114 0.55155 0.0
C592 C 0.44575 0.2769 0.5293 0.0
C593 C 0.42763 0.25964 0.54336 0.0
C594 C 0.42772 0.24683 0.57838 0.0
H595 H 0.46996 0.21431 0.5805 0.0
H596 H 0.45781 0.22692 0.55379 0.0
H597 H 0.48156 0.24142 0.58354 0.0
H598 H 0.4782 0.27185 0.60284 0.0
H599 H 0.47813 0.29429 0.54168 0.0
H600 H 0.19616 0.48182 0.66868 0.0
H601 H 0.22311 0.4929 0.60947 0.0
H602 H 0.20026 0.43072 0.5691 0.0
H603 H 0.17334 0.41968 0.62727 0.0
H604 H 0.25177 0.47069 0.57961 0.0
H605 H 0.19469 0.47082 0.45878 0.0
H606 H 0.1958 0.47704 0.52005 0.0
H607 H 0.18562 0.45117 0.50237 0.0
C608 C 0.19748 0.47053 0.64845 0.0
C609 C 0.18277 0.44992 0.65232 0.0
C610 C 0.21273 0.47687 0.61452 0.0
C611 C 0.21342 0.46259 0.58486 0.0
C612 C 0.19986 0.44191 0.59172 0.0
H613 H 0.25115 0.42344 0.36749 0.0
H614 H 0.23406 0.43331 0.4252 0.0
C615 C 0.18458 0.43563 0.62502 0.0
C616 C 0.22632 0.4688 0.54285 0.0
H617 H 0.22176 0.46832 0.42423 0.0
C618 C 0.24562 0.47096 0.54565 0.0
C619 C 0.21807 0.46899 0.49877 0.0
C620 C 0.19744 0.46701 0.49446 0.0
C621 C 0.25631 0.47179 0.50499 0.0
C622 C 0.2473 0.47031 0.46088 0.0
C623 C 0.22863 0.4696 0.45815 0.0
C624 C 0.25516 0.46543 0.41877 0.0
C625 C 0.27639 0.47255 0.50924 0.0
C626 C 0.27202 0.48038 0.39448 0.0
C627 C 0.28158 0.47475 0.36068 0.0
C628 C 0.27444 0.45416 0.35162 0.0
C629 C 0.25672 0.4394 0.37359 0.0
C630 C 0.24705 0.44502 0.40664 0.0
H631 H 0.28171 0.47447 0.54599 0.0
H632 H 0.275 0.45833 0.49523 0.0
H633 H 0.28801 0.48528 0.48814 0.0
H634 H 0.27847 0.4962 0.40366 0.0
H635 H 0.29548 0.48632 0.34476 0.0
H636 H 0.81522 0.25135 0.66364 0.0
H637 H 0.79061 0.22938 0.72272 0.0
H638 H 0.79915 0.28205 0.79799 0.0
H639 H 0.82391 0.30396 0.73958 0.0
H640 H 0.81095 0.24288 0.82711 0.0
H641 H 0.73392 0.23236 0.79906 0.0
H642 H 0.74987 0.23436 0.75023 0.0
H643 H 0.75625 0.25621 0.78525 0.0
C644 C 0.811 0.25815 0.69148 0.0
C645 C 0.8212 0.27924 0.69709 0.0
C646 C 0.7971 0.24564 0.72531 0.0
C647 C 0.79312 0.25418 0.76449 0.0
C648 C 0.80189 0.27524 0.7677 0.0
H649 H 0.72558 0.19256 0.01851 0.0
H650 H 0.74566 0.21975 0.96234 0.0
C651 C 0.81593 0.2877 0.73429 0.0
C652 C 0.78325 0.2416 0.80597 0.0
H653 H 0.73852 0.2165 0.86504 0.0
C654 C 0.79512 0.23711 0.83554 0.0
C655 C 0.76281 0.23464 0.81719 0.0
C656 C 0.74981 0.23954 0.78646 0.0
C657 C 0.78689 0.22532 0.87572 0.0
C658 C 0.76615 0.21748 0.88595 0.0
C659 C 0.75443 0.22256 0.85714 0.0
C660 C 0.75591 0.20226 0.92327 0.0
C661 C 0.8005 0.22133 0.90677 0.0
C662 C 0.75538 0.18368 0.92032 0.0
C663 C 0.7441 0.1683 0.95216 0.0
C664 C 0.73296 0.1711 0.98755 0.0
C665 C 0.73419 0.19005 0.9919 0.0
C666 C 0.74548 0.2055 0.95965 0.0
H667 H 0.81659 0.23348 0.90339 0.0
H668 H 0.79595 0.22013 0.94399 0.0
H669 H 0.79948 0.20685 0.89622 0.0
H670 H 0.76304 0.18073 0.89213 0.0
H671 H 0.74347 0.15388 0.94787 0.0
H672 H 0.58733 0.83511 0.03751 0.0
H673 H 0.57871 0.80974 0.09857 0.0
H674 H 0.51515 0.78754 0.07508 0.0
H675 H 0.5238 0.81283 0.01287 0.0
H676 H 0.55465 0.81286 0.17643 0.0
H677 H 0.521 0.73552 0.09903 0.0
H678 H 0.53871 0.75766 0.0664 0.0
H679 H 0.51365 0.75312 0.0774 0.0
C680 C 0.57152 0.82422 0.04395 0.0
C681 C 0.55621 0.82577 0.02052 0.0
C682 C 0.56661 0.80985 0.07899 0.0
C683 C 0.54632 0.79692 0.09147 0.0
C684 C 0.53088 0.79729 0.06559 0.0
H685 H 0.52383 0.71641 0.33285 0.0
H686 H 0.5151 0.73545 0.27708 0.0
C687 C 0.53582 0.81161 0.02992 0.0
C688 C 0.54196 0.78545 0.13561 0.0
H689 H 0.52832 0.73881 0.17953 0.0
C690 C 0.54849 0.79659 0.17731 0.0
C691 C 0.53363 0.76425 0.13662 0.0
C692 C 0.52632 0.75178 0.09261 0.0
C693 C 0.54829 0.78726 0.21956 0.0
C694 C 0.54155 0.76633 0.21995 0.0
C695 C 0.53347 0.75489 0.17902 0.0
C696 C 0.54624 0.75694 0.2595 0.0
C697 C 0.55627 0.80005 0.26301 0.0
C698 C 0.56658 0.76309 0.26872 0.0
C699 C 0.57151 0.75225 0.29992 0.0
C700 C 0.55621 0.73518 0.32284 0.0
C701 C 0.53586 0.72978 0.31616 0.0
C702 C 0.53088 0.74049 0.28412 0.0
H703 H 0.55473 0.81376 0.26084 0.0
H704 H 0.54822 0.79129 0.29464 0.0
H705 H 0.57261 0.80513 0.26692 0.0
H706 H 0.57863 0.77555 0.24955 0.0
H707 H 0.58728 0.75651 0.30417 0.0
H708 H 0.75726 0.58235 0.36298 0.0
H709 H 0.77415 0.57368 0.42363 0.0
H710 H 0.72853 0.51065 0.41112 0.0
H711 H 0.71169 0.51932 0.34944 0.0
H712 H 0.74424 0.55019 0.50577 0.0
H713 H 0.78854 0.51646 0.43289 0.0
H714 H 0.78617 0.53539 0.40005 0.0
H715 H 0.76446 0.51076 0.40807 0.0
C716 C 0.75145 0.56655 0.3715 0.0
C717 C 0.73336 0.55146 0.35149 0.0
C718 C 0.76099 0.56162 0.40631 0.0
C719 C 0.75247 0.54157 0.42187 0.0
C720 C 0.73537 0.52618 0.39916 0.0
H721 H 0.81125 0.5233 0.66744 0.0
H722 H 0.78337 0.51348 0.61131 0.0
C723 C 0.72589 0.53111 0.36377 0.0
C724 C 0.7596 0.53777 0.46655 0.0
H725 H 0.79363 0.52602 0.5125 0.0
C726 C 0.75467 0.54445 0.50754 0.0
C727 C 0.77296 0.53008 0.46857 0.0
C728 C 0.77844 0.52268 0.4252 0.0
C729 C 0.76394 0.54499 0.55013 0.0
C730 C 0.77858 0.53885 0.5515 0.0
C731 C 0.78232 0.53066 0.51127 0.0
C732 C 0.7927 0.54427 0.59125 0.0
C733 C 0.75884 0.55315 0.59282 0.0
C734 C 0.80671 0.56478 0.59916 0.0
C735 C 0.82258 0.57033 0.63053 0.0
C736 C 0.82455 0.55548 0.65494 0.0
C737 C 0.80975 0.535 0.64956 0.0
C738 C 0.79399 0.52938 0.61734 0.0
H739 H 0.7435 0.55136 0.59002 0.0
H740 H 0.75958 0.5454 0.62496 0.0
H741 H 0.76997 0.56956 0.59627 0.0
H742 H 0.80613 0.57646 0.57887 0.0
H743 H 0.83398 0.5862 0.6338 0.0
H744 H 0.19544 0.71029 0.69156 0.0
H745 H 0.22013 0.72846 0.75407 0.0
H746 H 0.20415 0.77525 0.75121 0.0
H747 H 0.17938 0.75704 0.68963 0.0
H748 H 0.25373 0.77528 0.77211 0.0
H749 H 0.18388 0.74057 0.88046 0.0
H750 H 0.18521 0.73055 0.82421 0.0
H751 H 0.18265 0.75266 0.82766 0.0
C752 C 0.19804 0.72499 0.70267 0.0
C753 C 0.18576 0.73246 0.68577 0.0
C754 C 0.21196 0.73522 0.73857 0.0
C755 C 0.21368 0.75299 0.75742 0.0
C756 C 0.20294 0.76151 0.73706 0.0
H757 H 0.25501 0.84031 0.96009 0.0
H758 H 0.23694 0.81295 0.90397 0.0
C759 C 0.18895 0.75122 0.70169 0.0
C760 C 0.22396 0.76108 0.8025 0.0
H761 H 0.21352 0.7678 0.91479 0.0
C762 C 0.24509 0.7733 0.80371 0.0
C763 C 0.21253 0.75825 0.84356 0.0
C764 C 0.18981 0.74466 0.84427 0.0
C765 C 0.25497 0.784 0.84441 0.0
C766 C 0.24334 0.78223 0.88453 0.0
C767 C 0.22236 0.769 0.88402 0.0
C768 C 0.25211 0.79655 0.92391 0.0
C769 C 0.27757 0.79822 0.84342 0.0
C770 C 0.2659 0.7958 0.95517 0.0
C771 C 0.27607 0.81135 0.98793 0.0
C772 C 0.27267 0.82783 0.98912 0.0
C773 C 0.25788 0.82775 0.95981 0.0
C774 C 0.24761 0.81219 0.9277 0.0
H775 H 0.28425 0.79861 0.80868 0.0
H776 H 0.28109 0.81379 0.85265 0.0
H777 H 0.28493 0.79337 0.86982 0.0
H778 H 0.2694 0.78371 0.95286 0.0
H779 H 0.28757 0.81121 0.00987 0.0
H780 H 0.41419 0.16065 0.05234 0.0
H781 H 0.42302 0.18636 0.11259 0.0
H782 H 0.48484 0.21783 0.06383 0.0
H783 H 0.47594 0.1921 1.00256 0.0
H784 H 0.45377 0.19151 0.17991 0.0
H785 H 0.47055 0.26342 0.09149 0.0
H786 H 0.45461 0.23901 0.06471 0.0
H787 H 0.48142 0.24902 0.06827 0.0
C788 C 0.42951 0.17342 0.05344 0.0
C789 C 0.44441 0.17442 0.02298 0.0
C790 C 0.43456 0.18801 0.08799 0.0
C791 C 0.45459 0.20383 0.09285 0.0
C792 C 0.46926 0.20577 0.06036 0.0
H793 H 0.48414 0.2919 0.32031 0.0
H794 H 0.49143 0.27221 0.26333 0.0
C795 C 0.46414 0.19117 0.02528 0.0
C796 C 0.46013 0.21669 0.13503 0.0
H797 H 0.47033 0.26315 0.17357 0.0
C798 C 0.45776 0.2073 0.17858 0.0
C799 C 0.46557 0.23729 0.13304 0.0
C800 C 0.46816 0.2479 0.087 0.0
C801 C 0.45944 0.21763 0.22028 0.0
C802 C 0.46347 0.23779 0.21824 0.0
C803 C 0.46729 0.24767 0.17488 0.0
C804 C 0.46039 0.24768 0.25928 0.0
C805 C 0.45603 0.20666 0.26611 0.0
C806 C 0.44069 0.24006 0.27665 0.0
C807 C 0.43653 0.25128 0.30859 0.0
C808 C 0.45206 0.27013 0.32416 0.0
C809 C 0.47205 0.27713 0.30951 0.0
C810 C 0.47618 0.26602 0.27678 0.0
H811 H 0.45917 0.19396 0.26315 0.0
H812 H 0.46575 0.21715 0.29402 0.0
H813 H 0.43997 0.20024 0.2767 0.0
H814 H 0.42825 0.22611 0.26296 0.0
H815 H 0.42096 0.24586 0.3188 0.0
H816 H 0.36622 0.5027 0.24772 0.0
H817 H 0.39853 0.53435 0.25568 0.0
H818 H 0.40976 0.51326 0.38577 0.0
H819 H 0.37778 0.48154 0.37792 0.0
H820 H 0.41102 0.56299 0.32604 0.0
H821 H 0.46223 0.53118 0.3145 0.0
H822 H 0.43585 0.51693 0.29807 0.0
H823 H 0.44306 0.51939 0.35857 0.0
C824 C 0.37562 0.50469 0.27786 0.0
C825 C 0.36937 0.48946 0.31204 0.0
C826 C 0.39408 0.52283 0.28238 0.0
C827 C 0.40669 0.52605 0.32098 0.0
C828 C 0.40049 0.51094 0.35519 0.0
H829 H 0.50416 0.64194 0.42247 0.0
H830 H 0.47248 0.60988 0.41213 0.0
C831 C 0.3821 0.49281 0.35069 0.0
C832 C 0.42605 0.54546 0.32633 0.0
H833 H 0.47707 0.56546 0.33955 0.0
C834 C 0.42548 0.56356 0.32878 0.0
C835 C 0.44493 0.5462 0.32941 0.0
C836 C 0.44665 0.52742 0.32456 0.0
C837 C 0.44325 0.58234 0.33502 0.0
C838 C 0.46204 0.58298 0.33976 0.0
C839 C 0.46263 0.56492 0.33649 0.0
C840 C 0.48135 0.6023 0.34677 0.0
C841 C 0.44176 0.60133 0.33566 0.0
C842 C 0.4971 0.6084 0.31424 0.0
C843 C 0.51528 0.62661 0.32022 0.0
C844 C 0.51817 0.63914 0.35902 0.0
C845 C 0.50246 0.63279 0.39203 0.0
C846 C 0.48426 0.61451 0.38602 0.0
H847 H 0.42742 0.59882 0.3196 0.0
H848 H 0.44212 0.60616 0.37237 0.0
H849 H 0.45469 0.61385 0.3168 0.0
H850 H 0.49522 0.59917 0.28382 0.0
H851 H 0.52701 0.63092 0.29409 0.0
H852 H 0.90831 0.53097 0.64561 0.0
H853 H 0.90777 0.49901 0.63381 0.0
H854 H 0.85639 0.46898 0.72619 0.0
H855 H 0.85723 0.50108 0.73938 0.0
H856 H 0.88286 0.45705 0.74337 0.0
H857 H 0.86941 0.45269 0.55279 0.0
H858 H 0.89186 0.47565 0.56917 0.0
H859 H 0.8675 0.47091 0.58943 0.0
C860 C 0.89688 0.51758 0.66347 0.0
C861 C 0.88273 0.51858 0.69324 0.0
C862 C 0.89649 0.49925 0.65635 0.0
C863 C 0.8817 0.48144 0.6781 0.0
C864 C 0.86784 0.48248 0.70868 0.0
H865 H 0.855 0.35967 0.60016 0.0
H866 H 0.85449 0.39133 0.6095 0.0
C867 C 0.86837 0.50086 0.71628 0.0
C868 C 0.88101 0.46185 0.66987 0.0
H869 H 0.87922 0.42981 0.58408 0.0
C870 C 0.88193 0.45104 0.70854 0.0
C871 C 0.8794 0.45376 0.62448 0.0
C872 C 0.87676 0.46374 0.58166 0.0
C873 C 0.88178 0.43268 0.70308 0.0
C874 C 0.88136 0.42519 0.65755 0.0
C875 C 0.8799 0.43571 0.61892 0.0
C876 C 0.88231 0.40643 0.64943 0.0
C877 C 0.88169 0.42131 0.74631 0.0
C878 C 0.89845 0.40461 0.66734 0.0
C879 C 0.89867 0.3865 0.66249 0.0
C880 C 0.88294 0.36992 0.63877 0.0
C881 C 0.86734 0.37214 0.61863 0.0
C882 C 0.86701 0.39021 0.62404 0.0
H883 H 0.87568 0.42554 0.77703 0.0
H884 H 0.87243 0.40468 0.74113 0.0
H885 H 0.89744 0.42518 0.75456 0.0
H886 H 0.91078 0.41713 0.68569 0.0
H887 H 0.91107 0.38541 0.67783 0.0
H888 H 0.52274 0.89273 0.05315 0.0
H889 H 0.49072 0.89225 0.06268 0.0
H890 H 0.47396 0.87049 0.92153 0.0
H891 H 0.5058 0.87039 0.91201 0.0
H892 H 0.47591 0.91274 0.01709 0.0
H893 H 0.42417 0.83027 0.99247 0.0
H894 H 0.4511 0.84111 1.00069 0.0
H895 H 0.44117 0.84214 0.94441 0.0
C896 C 0.51226 0.88779 0.02407 0.0
C897 C 0.51685 0.8815 0.98184 0.0
C898 C 0.49393 0.88752 0.02963 0.0
C899 C 0.47976 0.88102 0.99313 0.0
C900 C 0.48441 0.87506 0.95063 0.0
H901 H 0.37973 0.90468 0.97337 0.0
H902 H 0.41132 0.90427 0.96357 0.0
C903 C 0.50269 0.87514 0.94514 0.0
C904 C 0.46042 0.88103 0.99946 0.0
H905 H 0.40891 0.85084 0.99588 0.0
C906 C 0.46127 0.89919 0.01253 0.0
C907 C 0.44129 0.86327 0.99413 0.0
C908 C 0.4393 0.84305 0.98261 0.0
C909 C 0.44357 0.90015 0.0199 0.0
C910 C 0.42447 0.88257 0.01315 0.0
C911 C 0.42358 0.86434 1.00064 0.0
C912 C 0.40525 0.88277 0.01916 0.0
C913 C 0.44546 0.9199 0.03574 0.0
C914 C 0.39114 0.87052 0.05311 0.0
C915 C 0.37298 0.87065 0.05878 0.0
C916 C 0.36849 0.88293 0.03029 0.0
C917 C 0.38266 0.89508 0.99607 0.0
C918 C 0.40081 0.89496 0.99053 0.0
H919 H 0.46064 0.93026 0.05082 0.0
H920 H 0.44326 0.92761 1.00533 0.0
H921 H 0.43375 0.91727 0.06223 0.0
H922 H 0.39424 0.86093 0.07544 0.0
H923 H 0.36243 0.86103 0.08533 0.0
H924 H 0.64137 0.50273 0.2478 0.0
H925 H 0.6091 0.471 0.25541 0.0
H926 H 0.59767 0.49177 0.3858 0.0
H927 H 0.6296 0.52355 0.37832 0.0
H928 H 0.59657 0.44222 0.32584 0.0
H929 H 0.5453 0.47395 0.31396 0.0
H930 H 0.57168 0.48821 0.29762 0.0
H931 H 0.56444 0.48575 0.35809 0.0
C932 C 0.63193 0.50065 0.27792 0.0
C933 C 0.63811 0.51581 0.31231 0.0
C934 C 0.6135 0.48247 0.28225 0.0
C935 C 0.60084 0.47914 0.32084 0.0
C936 C 0.60698 0.49418 0.35523 0.0
H937 H 0.50324 0.3633 0.42195 0.0
H938 H 0.53495 0.39535 0.41175 0.0
C939 C 0.62534 0.51234 0.35094 0.0
C940 C 0.5815 0.45971 0.32597 0.0
H941 H 0.53046 0.43966 0.33889 0.0
C942 C 0.58209 0.44163 0.32847 0.0
C943 C 0.56261 0.45895 0.32893 0.0
C944 C 0.56087 0.47772 0.32407 0.0
C945 C 0.56434 0.42284 0.33466 0.0
C946 C 0.54553 0.42217 0.33926 0.0
C947 C 0.54491 0.44022 0.33593 0.0
C948 C 0.52622 0.40285 0.34615 0.0
C949 C 0.56584 0.40386 0.33541 0.0
C950 C 0.51055 0.39671 0.31342 0.0
C951 C 0.49235 0.37851 0.3193 0.0
C952 C 0.48938 0.36603 0.35822 0.0
C953 C 0.50501 0.37242 0.39143 0.0
C954 C 0.52323 0.39069 0.38551 0.0
H955 H 0.58023 0.40638 0.31958 0.0
H956 H 0.56538 0.39901 0.37213 0.0
H957 H 0.55296 0.39134 0.31639 0.0
H958 H 0.51249 0.40592 0.28292 0.0
H959 H 0.48069 0.37417 0.29302 0.0
H960 H 0.11258 0.62926 0.71637 0.0
H961 H 0.11239 0.59736 0.72416 0.0
H962 H 0.1404 0.60637 0.58879 0.0
H963 H 0.14105 0.63865 0.58093 0.0
H964 H 0.09404 0.56324 0.67087 0.0
H965 H 0.17738 0.5952 0.67038 0.0
H966 H 0.1659 0.61078 0.67716 0.0
H967 H 0.16789 0.60195 0.62026 0.0
C968 C 0.11875 0.62455 0.68814 0.0
C969 C 0.12694 0.63667 0.64807 0.0
C970 C 0.11861 0.60625 0.69271 0.0
C971 C 0.12666 0.59961 0.65743 0.0
C972 C 0.13452 0.61142 0.61696 0.0
H973 H 0.10575 0.47703 0.62979 0.0
H974 H 0.10601 0.50896 0.62068 0.0
C975 C 0.13476 0.62982 0.6124 0.0
C976 C 0.12648 0.58015 0.66303 0.0
H977 H 0.15706 0.55938 0.66856 0.0
C978 C 0.10782 0.56239 0.67037 0.0
C979 C 0.1445 0.57911 0.66306 0.0
C980 C 0.16508 0.59779 0.65774 0.0
C981 C 0.10666 0.54361 0.6773 0.0
C982 C 0.12462 0.54249 0.67604 0.0
C983 C 0.1433 0.56026 0.66917 0.0
C984 C 0.12433 0.52302 0.68195 0.0
C985 C 0.08626 0.52522 0.68684 0.0
C986 C 0.13486 0.52041 0.71899 0.0
C987 C 0.13484 0.50215 0.72427 0.0
C988 C 0.12439 0.48618 0.69236 0.0
C989 C 0.11389 0.48891 0.65522 0.0
C990 C 0.11393 0.50715 0.65002 0.0
H991 H 0.07504 0.52947 0.69883 0.0
H992 H 0.08041 0.51628 0.65422 0.0
H993 H 0.08746 0.51537 0.71369 0.0
H994 H 0.14307 0.5325 0.74393 0.0
H995 H 0.14316 0.50066 0.75316 0.0
H996 H 0.63438 0.11658 0.95857 0.0
H997 H 0.6036 0.11843 0.94791 0.0
H998 H 0.6055 0.13475 0.09283 0.0
H999 H 0.63679 0.13365 0.10334 0.0
H1000 H 0.56776 0.09624 0.98708 0.0
H1001 H 0.59607 0.17672 0.03243 0.0
H1002 H 0.61286 0.16681 0.02283 0.0
H1003 H 0.60007 0.16295 0.07792 0.0
C1004 C 0.62835 0.12071 0.98814 0.0
C1005 C 0.63807 0.125 0.03181 0.0
C1006 C 0.61073 0.12178 0.98197 0.0
C1007 C 0.60232 0.127 0.01935 0.0
C1008 C 0.61196 0.13124 0.0631 0.0
H1009 H 0.47754 0.10007 0.0349 0.0
H1010 H 0.51005 0.10158 0.0456 0.0
C1011 C 0.62979 0.13047 0.06915 0.0
C1012 C 0.58293 0.12693 0.01279 0.0
H1013 H 0.56031 0.15572 0.02414 0.0
C1014 C 0.56619 0.1093 0.99507 0.0
C1015 C 0.58088 0.14402 0.02273 0.0
C1016 C 0.59848 0.16376 0.03959 0.0
C1017 C 0.54748 0.10819 0.98751 0.0
C1018 C 0.54529 0.12503 0.99878 0.0
C1019 C 0.56202 0.14277 0.01594 0.0
C1020 C 0.5257 0.12446 0.99276 0.0
C1021 C 0.53027 0.08913 0.96678 0.0
C1022 C 0.52381 0.13707 0.95997 0.0
C1023 C 0.50522 0.13626 0.95364 0.0
C1024 C 0.48818 0.12292 0.98036 0.0
C1025 C 0.49026 0.11047 0.01357 0.0
C1026 C 0.50883 0.11126 0.0197 0.0
H1027 H 0.53564 0.07942 0.95061 0.0
H1028 H 0.5193 0.08027 0.99472 0.0
H1029 H 0.52215 0.09285 0.9399 0.0
H1030 H 0.53669 0.14741 0.93892 0.0
H1031 H 0.50424 0.14613 0.92791 0.0
loop_
_geom_bond_atom_site_label_1
_geom_bond_atom_site_label_2
_geom_bond_distance
_geom_bond_site_symmetry_2
_ccdc_geom_bond_type
Co0 O1 2.216 . S
Co0 O2 2.091 . S
Co0 O4 2.004 . S
Co0 O10 2.021 . S
Co0 O12 2.137 . S
Co0 O13 2.244 . S
O1 Co0 2.216 . S
O1 C8 1.247 . S
O2 Co0 2.091 . S
O2 C8 1.261 . S
C3 O12 1.247 . S
C3 O13 1.272 . S
O4 Co0 2.004 . S
O4 C9 1.259 . S
Co5 O6 2.061 . S
Co5 O11 2.052 . S
Co5 O13 2.135 . S
O6 Co5 2.061 . S
O6 C9 1.235 . S
C7 O10 1.238 . S
C7 O11 1.241 . S
C8 O1 1.247 . S
C8 O2 1.261 . S
C9 O4 1.259 . S
C9 O6 1.235 . S
O10 Co0 2.021 . S
O10 C7 1.238 . S
O11 Co5 2.052 . S
O11 C7 1.241 . S
O12 Co0 2.137 . S
O12 C3 1.247 . S
O13 Co0 2.244 . S
O13 C3 1.272 . S
O13 Co5 2.135 . S
Co14 O15 2.216 . S
Co14 O16 2.091 . S
Co14 O18 2.004 . S
Co14 O24 2.021 . S
Co14 O26 2.137 . S
Co14 O27 2.244 . S
O15 Co14 2.216 . S
O15 C22 1.247 . S
O16 Co14 2.091 . S
O16 C22 1.261 . S
C17 O26 1.247 . S
C17 O27 1.272 . S
O18 Co14 2.004 . S
O18 C23 1.259 . S
Co19 O20 2.061 . S
Co19 O25 2.052 . S
Co19 O27 2.135 . S
O20 Co19 2.061 . S
O20 C23 1.235 . S
C21 O24 1.238 . S
C21 O25 1.241 . S
C22 O15 1.247 . S
C22 O16 1.261 . S
C23 O18 1.259 . S
C23 O20 1.235 . S
O24 Co14 2.021 . S
O24 C21 1.238 . S
O25 Co19 2.052 . S
O25 C21 1.241 . S
O26 Co14 2.137 . S
O26 C17 1.247 . S
O27 Co14 2.244 . S
O27 C17 1.272 . S
O27 Co19 2.135 . S
Co28 O29 2.216 . S
Co28 O30 2.091 . S
Co28 O32 2.004 . S
Co28 O38 2.021 . S
Co28 O40 2.137 . S
Co28 O41 2.244 . S
O29 Co28 2.216 . S
O29 C36 1.247 . S
O30 Co28 2.091 . S
O30 C36 1.261 . S
C31 O40 1.247 . S
C31 O41 1.272 . S
O32 Co28 2.004 . S
O32 C37 1.259 . S
Co33 O34 2.061 . S
Co33 O39 2.052 . S
Co33 O41 2.135 1_554 S
O34 Co33 2.061 . S
O34 C37 1.235 1_554 S
C35 O38 1.238 1_554 S
C35 O39 1.241 . S
C36 O29 1.247 . S
C36 O30 1.261 . S
C37 O32 1.259 . S
C37 O34 1.235 1_556 S
O38 Co28 2.021 . S
O38 C35 1.238 1_556 S
O39 Co33 2.052 . S
O39 C35 1.241 . S
O40 Co28 2.137 . S
O40 C31 1.247 . S
O41 Co28 2.244 . S
O41 C31 1.272 . S
O41 Co33 2.135 1_556 S
Co42 O43 2.216 . S
Co42 O44 2.091 . S
Co42 O46 2.004 . S
Co42 O52 2.021 . S
Co42 O54 2.137 . S
Co42 O55 2.244 . S
O43 Co42 2.216 . S
O43 C50 1.247 . S
O44 Co42 2.091 . S
O44 C50 1.261 . S
C45 O54 1.247 . S
C45 O55 1.272 . S
O46 Co42 2.004 . S
O46 C51 1.259 . S
Co47 O48 2.061 . S
Co47 O53 2.052 . S
Co47 O55 2.135 . S
O48 Co47 2.061 . S
O48 C51 1.235 . S
C49 O52 1.238 . S
C49 O53 1.241 . S
C50 O43 1.247 . S
C50 O44 1.261 . S
C51 O46 1.259 . S
C51 O48 1.235 . S
O52 Co42 2.021 . S
O52 C49 1.238 . S
O53 Co47 2.052 . S
O53 C49 1.241 . S
O54 Co42 2.137 . S
O54 C45 1.247 . S
O55 Co42 2.244 . S
O55 C45 1.272 . S
O55 Co47 2.135 . S
Co56 O57 2.216 . S
Co56 O58 2.091 . S
Co56 O60 2.004 . S
Co56 O66 2.021 . S
Co56 O68 2.137 . S
Co56 O69 2.244 . S
O57 Co56 2.216 . S
O57 C64 1.247 . S
O58 Co56 2.091 . S
O58 C64 1.261 . S
C59 O68 1.247 . S
C59 O69 1.272 . S
O60 Co56 2.004 . S
O60 C65 1.259 . S
Co61 O62 2.061 . S
Co61 O67 2.052 . S
Co61 O69 2.135 . S
O62 Co61 2.061 . S
O62 C65 1.235 . S
C63 O66 1.238 . S
C63 O67 1.241 . S
C64 O57 1.247 . S
C64 O58 1.261 . S
C65 O60 1.259 . S
C65 O62 1.235 . S
O66 Co56 2.021 . S
O66 C63 1.238 . S
O67 Co61 2.052 . S
O67 C63 1.241 . S
O68 Co56 2.137 . S
O68 C59 1.247 . S
O69 Co56 2.244 . S
O69 C59 1.272 . S
O69 Co61 2.135 . S
Co70 O71 2.216 . S
Co70 O72 2.091 . S
Co70 O74 2.004 . S
Co70 O80 2.021 . S
Co70 O82 2.137 . S
Co70 O83 2.244 . S
O71 Co70 2.216 . S
O71 C78 1.247 . S
O72 Co70 2.091 . S
O72 C78 1.261 . S
C73 O82 1.247 . S
C73 O83 1.272 . S
O74 Co70 2.004 . S
O74 C79 1.259 . S
Co75 O76 2.061 . S
Co75 O81 2.052 . S
Co75 O83 2.135 1_554 S
O76 Co75 2.061 . S
O76 C79 1.235 1_554 S
C77 O80 1.238 1_554 S
C77 O81 1.241 . S
C78 O71 1.247 . S
C78 O72 1.261 . S
C79 O74 1.259 . S
C79 O76 1.235 1_556 S
O80 Co70 2.021 . S
O80 C77 1.238 1_556 S
O81 Co75 2.052 . S
O81 C77 1.241 . S
O82 Co70 2.137 . S
O82 C73 1.247 . S
O83 Co70 2.244 . S
O83 C73 1.272 . S
O83 Co75 2.135 1_556 S
Co84 O85 2.216 . S
Co84 O86 2.091 . S
Co84 O88 2.004 . S
Co84 O94 2.021 . S
Co84 O96 2.137 . S
Co84 O97 2.244 . S
O85 Co84 2.216 . S
O85 C92 1.247 . S
O86 Co84 2.091 . S
O86 C92 1.261 . S
C87 O96 1.247 . S
C87 O97 1.272 . S
O88 Co84 2.004 . S
O88 C93 1.259 . S
Co89 O90 2.061 . S
Co89 O95 2.052 . S
Co89 O97 2.135 . S
O90 Co89 2.061 . S
O90 C93 1.235 . S
C91 O94 1.238 . S
C91 O95 1.241 . S
C92 O85 1.247 . S
C92 O86 1.261 . S
C93 O88 1.259 . S
C93 O90 1.235 . S
O94 Co84 2.021 . S
O94 C91 1.238 . S
O95 Co89 2.052 . S
O95 C91 1.241 . S
O96 Co84 2.137 . S
O96 C87 1.247 . S
O97 Co84 2.244 . S
O97 C87 1.272 . S
O97 Co89 2.135 . S
Co98 O99 2.216 . S
Co98 O100 2.091 . S
Co98 O102 2.004 . S
Co98 O108 2.021 . S
Co98 O110 2.137 . S
Co98 O111 2.244 . S
O99 Co98 2.216 . S
O99 C106 1.247 . S
O100 Co98 2.091 . S
O100 C106 1.261 . S
C101 O110 1.247 . S
C101 O111 1.272 . S
O102 Co98 2.004 . S
O102 C107 1.259 . S
Co103 O104 2.061 . S
Co103 O109 2.052 . S
Co103 O111 2.135 . S
O104 Co103 2.061 . S
O104 C107 1.235 . S
C105 O108 1.238 . S
C105 O109 1.241 . S
C106 O99 1.247 . S
C106 O100 1.261 . S
C107 O102 1.259 . S
C107 O104 1.235 . S
O108 Co98 2.021 . S
O108 C105 1.238 . S
O109 Co103 2.052 . S
O109 C105 1.241 . S
O110 Co98 2.137 . S
O110 C101 1.247 . S
O111 Co98 2.244 . S
O111 C101 1.272 . S
O111 Co103 2.135 . S
Co112 O113 2.216 . S
Co112 O114 2.091 . S
Co112 O116 2.004 . S
Co112 O122 2.021 . S
Co112 O124 2.137 . S
Co112 O125 2.244 . S
O113 Co112 2.216 . S
O113 C120 1.247 . S
O114 Co112 2.091 . S
O114 C120 1.261 . S
C115 O124 1.247 . S
C115 O125 1.272 . S
O116 Co112 2.004 . S
O116 C121 1.259 . S
Co117 O118 2.061 . S
Co117 O123 2.052 . S
Co117 O125 2.135 1_556 S
O118 Co117 2.061 . S
O118 C121 1.235 1_556 S
C119 O122 1.238 1_556 S
C119 O123 1.241 . S
C120 O113 1.247 . S
C120 O114 1.261 . S
C121 O116 1.259 . S
C121 O118 1.235 1_554 S
O122 Co112 2.021 . S
O122 C119 1.238 1_554 S
O123 Co117 2.052 . S
O123 C119 1.241 . S
O124 Co112 2.137 . S
O124 C115 1.247 . S
O125 Co112 2.244 . S
O125 C115 1.272 . S
O125 Co117 2.135 1_554 S
Co126 O127 2.216 . S
Co126 O128 2.091 . S
Co126 O130 2.004 . S
Co126 O136 2.021 . S
Co126 O138 2.137 . S
Co126 O139 2.244 . S
O127 Co126 2.216 . S
O127 C134 1.247 . S
O128 Co126 2.091 . S
O128 C134 1.261 . S
C129 O138 1.247 . S
C129 O139 1.272 . S
O130 Co126 2.004 . S
O130 C135 1.259 . S
Co131 O132 2.061 . S
Co131 O137 2.052 . S
Co131 O139 2.135 . S
O132 Co131 2.061 . S
O132 C135 1.235 . S
C133 O136 1.238 . S
C133 O137 1.241 . S
C134 O127 1.247 . S
C134 O128 1.261 . S
C135 O130 1.259 . S
C135 O132 1.235 . S
O136 Co126 2.021 . S
O136 C133 1.238 . S
O137 Co131 2.052 . S
O137 C133 1.241 . S
O138 Co126 2.137 . S
O138 C129 1.247 . S
O139 Co126 2.244 . S
O139 C129 1.272 . S
O139 Co131 2.135 . S
Co140 O141 2.216 . S
Co140 O142 2.091 . S
Co140 O144 2.004 . S
Co140 O150 2.021 . S
Co140 O152 2.137 . S
Co140 O153 2.244 . S
O141 Co140 2.216 . S
O141 C148 1.247 . S
O142 Co140 2.091 . S
O142 C148 1.261 . S
C143 O152 1.247 . S
C143 O153 1.272 . S
O144 Co140 2.004 . S
O144 C149 1.259 . S
Co145 O146 2.061 . S
Co145 O151 2.052 . S
Co145 O153 2.135 . S
O146 Co145 2.061 . S
O146 C149 1.235 . S
C147 O150 1.238 . S
C147 O151 1.241 . S
C148 O141 1.247 . S
C148 O142 1.261 . S
C149 O144 1.259 . S
C149 O146 1.235 . S
O150 Co140 2.021 . S
O150 C147 1.238 . S
O151 Co145 2.052 . S
O151 C147 1.241 . S
O152 Co140 2.137 . S
O152 C143 1.247 . S
O153 Co140 2.244 . S
O153 C143 1.272 . S
O153 Co145 2.135 . S
Co154 O155 2.216 . S
Co154 O156 2.091 . S
Co154 O158 2.004 . S
Co154 O164 2.021 . S
Co154 O166 2.137 . S
Co154 O167 2.244 . S
O155 Co154 2.216 . S
O155 C162 1.247 . S
O156 Co154 2.091 . S
O156 C162 1.261 . S
C157 O166 1.247 . S
C157 O167 1.272 . S
O158 Co154 2.004 . S
O158 C163 1.259 . S
Co159 O160 2.061 . S
Co159 O165 2.052 . S
Co159 O167 2.135 1_556 S
O160 Co159 2.061 . S
O160 C163 1.235 1_556 S
C161 O164 1.238 1_556 S
C161 O165 1.241 . S
C162 O155 1.247 . S
C162 O156 1.261 . S
C163 O158 1.259 . S
C163 O160 1.235 1_554 S
O164 Co154 2.021 . S
O164 C161 1.238 1_554 S
O165 Co159 2.052 . S
O165 C161 1.241 . S
O166 Co154 2.137 . S
O166 C157 1.247 . S
O167 Co154 2.244 . S
O167 C157 1.272 . S
O167 Co159 2.135 1_554 S
H168 C176 0.929 . S
H169 C178 0.930 . S
H170 C180 0.930 . S
H171 C183 0.929 . S
H172 C186 0.930 . S
H173 C188 0.960 . S
H174 C188 0.960 . S
H175 C188 0.960 . S
C176 H168 0.929 . S
C176 C177 1.377 . S
C176 C178 1.384 . S
C177 C176 1.377 . S
C177 C183 1.390 . S
C178 H169 0.930 . S
C178 C176 1.384 . S
C178 C179 1.372 . S
C179 C178 1.372 . S
C179 C180 1.400 . S
C179 C184 1.490 . S
C180 H170 0.930 . S
C180 C179 1.400 . S
C180 C183 1.386 . S
H181 C197 0.930 . S
H182 C198 0.931 . S
C183 H171 0.929 . S
C183 C177 1.390 . S
C183 C180 1.386 . S
C184 C179 1.490 . S
C184 C186 1.395 . S
C184 C187 1.403 . S
H185 C191 0.930 . S
C186 H172 0.930 . S
C186 C184 1.395 . S
C186 C189 1.403 . S
C187 C184 1.403 . S
C187 C188 1.524 . S
C187 C191 1.400 . S
C188 H173 0.960 . S
C188 H174 0.960 . S
C188 H175 0.960 . S
C188 C187 1.524 . S
C189 C186 1.403 . S
C189 C190 1.392 . S
C189 C193 1.495 . S
C190 C189 1.392 . S
C190 C191 1.385 . S
C190 C192 1.478 . S
C191 H185 0.930 . S
C191 C187 1.400 . S
C191 C190 1.385 . S
C192 C190 1.478 . S
C192 C194 1.381 . S
C192 C198 1.383 . S
C193 C189 1.495 . S
C193 H199 0.959 . S
C193 H200 0.961 . S
C193 H201 0.960 . S
C194 C192 1.381 . S
C194 C195 1.394 . S
C194 H202 0.930 . S
C195 C194 1.394 . S
C195 C196 1.383 . S
C195 H203 0.929 . S
C196 C195 1.383 . S
C196 C197 1.377 . S
C197 H181 0.930 . S
C197 C196 1.377 . S
C197 C198 1.379 . S
C198 H182 0.931 . S
C198 C192 1.383 . S
C198 C197 1.379 . S
H199 C193 0.959 . S
H200 C193 0.961 . S
H201 C193 0.960 . S
H202 C194 0.930 . S
H203 C195 0.929 . S
H204 C212 0.929 . S
H205 C214 0.930 . S
H206 C216 0.930 . S
H207 C219 0.929 . S
H208 C222 0.930 . S
H209 C224 0.960 . S
H210 C224 0.960 . S
H211 C224 0.960 . S
C212 H204 0.929 . S
C212 C213 1.377 . S
C212 C214 1.384 . S
C213 C212 1.377 . S
C213 C219 1.390 . S
C214 H205 0.930 . S
C214 C212 1.384 . S
C214 C215 1.372 . S
C215 C214 1.372 . S
C215 C216 1.400 . S
C215 C220 1.490 . S
C216 H206 0.930 . S
C216 C215 1.400 . S
C216 C219 1.386 . S
H217 C233 0.930 . S
H218 C234 0.931 . S
C219 H207 0.929 . S
C219 C213 1.390 . S
C219 C216 1.386 . S
C220 C215 1.490 . S
C220 C222 1.395 . S
C220 C223 1.403 . S
H221 C227 0.930 . S
C222 H208 0.930 . S
C222 C220 1.395 . S
C222 C225 1.403 1_655 S
C223 C220 1.403 . S
C223 C224 1.524 . S
C223 C227 1.400 1_655 S
C224 H209 0.960 . S
C224 H210 0.960 . S
C224 H211 0.960 . S
C224 C223 1.524 . S
C225 C222 1.403 1_455 S
C225 C226 1.392 . S
C225 C229 1.495 . S
C226 C225 1.392 . S
C226 C227 1.385 . S
C226 C228 1.478 . S
C227 H221 0.930 . S
C227 C223 1.400 1_455 S
C227 C226 1.385 . S
C228 C226 1.478 . S
C228 C230 1.381 . S
C228 C234 1.383 . S
C229 C225 1.495 . S
C229 H235 0.959 . S
C229 H236 0.961 . S
C229 H237 0.960 . S
C230 C228 1.381 . S
C230 C231 1.394 . S
C230 H238 0.930 . S
C231 C230 1.394 . S
C231 C232 1.383 . S
C231 H239 0.929 . S
C232 C231 1.383 . S
C232 C233 1.377 . S
C233 H217 0.930 . S
C233 C232 1.377 . S
C233 C234 1.379 . S
C234 H218 0.931 . S
C234 C228 1.383 . S
C234 C233 1.379 . S
H235 C229 0.959 . S
H236 C229 0.961 . S
H237 C229 0.960 . S
H238 C230 0.930 . S
H239 C231 0.929 . S
H240 C248 0.929 . S
H241 C250 0.930 . S
H242 C252 0.929 1_554 S
H243 C255 0.929 1_554 S
H244 C258 0.930 . S
H245 C260 0.958 1_554 S
H246 C260 0.960 . S
H247 C260 0.960 1_554 S
C248 H240 0.929 . S
C248 C249 1.377 . S
C248 C250 1.384 . S
C249 C248 1.377 . S
C249 C255 1.390 . S
C250 H241 0.930 . S
C250 C248 1.384 . S
C250 C251 1.372 . S
C251 C250 1.372 . S
C251 C252 1.400 . S
C251 C256 1.490 . S
C252 H242 0.929 1_556 S
C252 C251 1.400 . S
C252 C255 1.386 . S
H253 C269 0.930 . S
H254 C270 0.931 . S
C255 H243 0.929 1_556 S
C255 C249 1.390 . S
C255 C252 1.386 . S
C256 C251 1.490 . S
C256 C258 1.395 . S
C256 C259 1.403 . S
H257 C263 0.930 . S
C258 H244 0.930 . S
C258 C256 1.395 . S
C258 C261 1.407 1_565 S
C259 C256 1.403 . S
C259 C260 1.524 . S
C259 C263 1.400 1_566 S
C260 H245 0.958 1_556 S
C260 H246 0.960 . S
C260 H247 0.960 1_556 S
C260 C259 1.524 . S
C261 C258 1.407 1_545 S
C261 C262 1.389 1_556 S
C261 C265 1.495 1_556 S
C262 C261 1.389 1_554 S
C262 C263 1.385 . S
C262 C264 1.478 . S
C263 H257 0.930 . S
C263 C259 1.400 1_544 S
C263 C262 1.385 . S
C264 C262 1.478 . S
C264 C266 1.381 1_554 S
C264 C270 1.383 . S
C265 C261 1.495 1_554 S
C265 H271 0.959 1_554 S
C265 H272 0.961 . S
C265 H273 0.960 1_554 S
C266 C264 1.381 1_556 S
C266 C267 1.394 1_556 S
C266 H274 0.930 . S
C267 C266 1.394 1_554 S
C267 C268 1.383 . S
C267 H275 0.929 1_554 S
C268 C267 1.383 . S
C268 C269 1.377 . S
C269 H253 0.930 . S
C269 C268 1.377 . S
C269 C270 1.379 . S
C270 H254 0.931 . S
C270 C264 1.383 . S
C270 C269 1.379 . S
H271 C265 0.959 1_556 S
H272 C265 0.961 . S
H273 C265 0.960 1_556 S
H274 C266 0.930 . S
H275 C267 0.929 1_556 S
H276 C284 0.929 . S
H277 C286 0.930 . S
H278 C288 0.930 . S
H279 C291 0.929 . S
H280 C294 0.930 . S
H281 C296 0.960 . S
H282 C296 0.960 . S
H283 C296 0.960 . S
C284 H276 0.929 . S
C284 C285 1.377 . S
C284 C286 1.384 . S
C285 C284 1.377 . S
C285 C291 1.390 . S
C286 H277 0.930 . S
C286 C284 1.384 . S
C286 C287 1.372 . S
C287 C286 1.372 . S
C287 C288 1.400 . S
C287 C292 1.490 . S
C288 H278 0.930 . S
C288 C287 1.400 . S
C288 C291 1.386 . S
H289 C305 0.930 . S
H290 C306 0.931 . S
C291 H279 0.929 . S
C291 C285 1.390 . S
C291 C288 1.386 . S
C292 C287 1.490 . S
C292 C294 1.395 . S
C292 C295 1.403 . S
H293 C299 0.930 . S
C294 H280 0.930 . S
C294 C292 1.395 . S
C294 C297 1.403 . S
C295 C292 1.403 . S
C295 C296 1.524 . S
C295 C299 1.400 . S
C296 H281 0.960 . S
C296 H282 0.960 . S
C296 H283 0.960 . S
C296 C295 1.524 . S
C297 C294 1.403 . S
C297 C298 1.392 . S
C297 C301 1.495 . S
C298 C297 1.392 . S
C298 C299 1.385 . S
C298 C300 1.478 . S
C299 H293 0.930 . S
C299 C295 1.400 . S
C299 C298 1.385 . S
C300 C298 1.478 . S
C300 C302 1.381 . S
C300 C306 1.383 . S
C301 C297 1.495 . S
C301 H307 0.959 . S
C301 H308 0.961 . S
C301 H309 0.960 . S
C302 C300 1.381 . S
C302 C303 1.394 . S
C302 H310 0.930 . S
C303 C302 1.394 . S
C303 C304 1.383 . S
C303 H311 0.929 . S
C304 C303 1.383 . S
C304 C305 1.377 . S
C305 H289 0.930 . S
C305 C304 1.377 . S
C305 C306 1.379 . S
C306 H290 0.931 . S
C306 C300 1.383 . S
C306 C305 1.379 . S
H307 C301 0.959 . S
H308 C301 0.961 . S
H309 C301 0.960 . S
H310 C302 0.930 . S
H311 C303 0.929 . S
H312 C320 0.929 . S
H313 C322 0.930 . S
H314 C324 0.930 . S
H315 C327 0.929 . S
H316 C330 0.930 . S
H317 C332 0.960 . S
H318 C332 0.960 . S
H319 C332 0.960 . S
C320 H312 0.929 . S
C320 C321 1.377 . S
C320 C322 1.384 . S
C321 C320 1.377 . S
C321 C327 1.390 . S
C322 H313 0.930 . S
C322 C320 1.384 . S
C322 C323 1.372 . S
C323 C322 1.372 . S
C323 C324 1.400 . S
C323 C328 1.490 . S
C324 H314 0.930 . S
C324 C323 1.400 . S
C324 C327 1.386 . S
H325 C341 0.930 . S
H326 C342 0.931 . S
C327 H315 0.929 . S
C327 C321 1.390 . S
C327 C324 1.386 . S
C328 C323 1.490 . S
C328 C330 1.395 . S
C328 C331 1.403 . S
H329 C335 0.930 . S
C330 H316 0.930 . S
C330 C328 1.395 . S
C330 C333 1.403 1_655 S
C331 C328 1.403 . S
C331 C332 1.524 . S
C331 C335 1.400 1_655 S
C332 H317 0.960 . S
C332 H318 0.960 . S
C332 H319 0.960 . S
C332 C331 1.524 . S
C333 C330 1.403 1_455 S
C333 C334 1.392 . S
C333 C337 1.495 . S
C334 C333 1.392 . S
C334 C335 1.385 . S
C334 C336 1.478 . S
C335 H329 0.930 . S
C335 C331 1.400 1_455 S
C335 C334 1.385 . S
C336 C334 1.478 . S
C336 C338 1.381 . S
C336 C342 1.383 . S
C337 C333 1.495 . S
C337 H343 0.959 . S
C337 H344 0.961 . S
C337 H345 0.960 . S
C338 C336 1.381 . S
C338 C339 1.394 . S
C338 H346 0.930 . S
C339 C338 1.394 . S
C339 C340 1.383 . S
C339 H347 0.929 . S
C340 C339 1.383 . S
C340 C341 1.377 . S
C341 H325 0.930 . S
C341 C340 1.377 . S
C341 C342 1.379 . S
C342 H326 0.931 . S
C342 C336 1.383 . S
C342 C341 1.379 . S
H343 C337 0.959 . S
H344 C337 0.961 . S
H345 C337 0.960 . S
H346 C338 0.930 . S
H347 C339 0.929 . S
H348 C356 0.929 . S
H349 C358 0.930 1_556 S
H350 C360 0.930 . S
H351 C363 0.929 . S
H352 C366 0.930 . S
H353 C368 0.960 . S
H354 C368 0.960 . S
H355 C368 0.960 . S
C356 H348 0.929 . S
C356 C357 1.377 . S
C356 C358 1.384 . S
C357 C356 1.377 . S
C357 C363 1.390 . S
C358 H349 0.930 1_554 S
C358 C356 1.384 . S
C358 C359 1.372 . S
C359 C358 1.372 . S
C359 C360 1.400 . S
C359 C364 1.490 . S
C360 H350 0.930 . S
C360 C359 1.400 . S
C360 C363 1.386 . S
H361 C377 0.930 . S
H362 C378 0.931 1_554 S
C363 H351 0.929 . S
C363 C357 1.390 . S
C363 C360 1.386 . S
C364 C359 1.490 . S
C364 C366 1.395 . S
C364 C367 1.403 1_554 S
H365 C371 0.930 . S
C366 H352 0.930 . S
C366 C364 1.395 . S
C366 C369 1.403 1_565 S
C367 C364 1.403 1_556 S
C367 C368 1.524 . S
C367 C371 1.400 1_565 S
C368 H353 0.960 . S
C368 H354 0.960 . S
C368 H355 0.960 . S
C368 C367 1.524 . S
C369 C366 1.403 1_545 S
C369 C370 1.392 1_554 S
C369 C373 1.495 . S
C370 C369 1.392 1_556 S
C370 C371 1.385 . S
C370 C372 1.478 . S
C371 H365 0.930 . S
C371 C367 1.400 1_545 S
C371 C370 1.385 . S
C372 C370 1.478 . S
C372 C374 1.381 . S
C372 C378 1.383 . S
C373 C369 1.495 . S
C373 H379 0.959 . S
C373 H380 0.961 . S
C373 H381 0.960 . S
C374 C372 1.381 . S
C374 C375 1.394 . S
C374 H382 0.930 . S
C375 C374 1.394 . S
C375 C376 1.383 . S
C375 H383 0.929 . S
C376 C375 1.383 . S
C376 C377 1.377 . S
C377 H361 0.930 . S
C377 C376 1.377 . S
C377 C378 1.379 . S
C378 H362 0.931 1_556 S
C378 C372 1.383 . S
C378 C377 1.379 . S
H379 C373 0.959 . S
H380 C373 0.961 . S
H381 C373 0.960 . S
H382 C374 0.930 . S
H383 C375 0.929 . S
H384 C392 0.929 . S
H385 C394 0.930 . S
H386 C396 0.930 . S
H387 C399 0.929 . S
H388 C402 0.930 . S
H389 C404 0.960 . S
H390 C404 0.960 . S
H391 C404 0.960 . S
C392 H384 0.929 . S
C392 C393 1.377 . S
C392 C394 1.384 . S
C393 C392 1.377 . S
C393 C399 1.390 . S
C394 H385 0.930 . S
C394 C392 1.384 . S
C394 C395 1.372 . S
C395 C394 1.372 . S
C395 C396 1.400 . S
C395 C400 1.490 . S
C396 H386 0.930 . S
C396 C395 1.400 . S
C396 C399 1.386 . S
H397 C413 0.930 . S
H398 C414 0.931 . S
C399 H387 0.929 . S
C399 C393 1.390 . S
C399 C396 1.386 . S
C400 C395 1.490 . S
C400 C402 1.395 . S
C400 C403 1.403 . S
H401 C407 0.930 . S
C402 H388 0.930 . S
C402 C400 1.395 . S
C402 C405 1.403 1_556 S
C403 C400 1.403 . S
C403 C404 1.524 . S
C403 C407 1.400 1_556 S
C404 H389 0.960 . S
C404 H390 0.960 . S
C404 H391 0.960 . S
C404 C403 1.524 . S
C405 C402 1.403 1_554 S
C405 C406 1.392 . S
C405 C409 1.495 . S
C406 C405 1.392 . S
C406 C407 1.385 . S
C406 C408 1.478 . S
C407 H401 0.930 . S
C407 C403 1.400 1_554 S
C407 C406 1.385 . S
C408 C406 1.478 . S
C408 C410 1.381 . S
C408 C414 1.383 . S
C409 C405 1.495 . S
C409 H415 0.959 . S
C409 H416 0.961 . S
C409 H417 0.960 . S
C410 C408 1.381 . S
C410 C411 1.394 . S
C410 H418 0.930 . S
C411 C410 1.394 . S
C411 C412 1.383 . S
C411 H419 0.929 . S
C412 C411 1.383 . S
C412 C413 1.377 . S
C413 H397 0.930 . S
C413 C412 1.377 . S
C413 C414 1.379 . S
C414 H398 0.931 . S
C414 C408 1.383 . S
C414 C413 1.379 . S
H415 C409 0.959 . S
H416 C409 0.961 . S
H417 C409 0.960 . S
H418 C410 0.930 . S
H419 C411 0.929 . S
H420 C428 0.929 . S
H421 C430 0.930 . S
H422 C432 0.930 . S
H423 C435 0.929 . S
H424 C438 0.930 . S
H425 C440 0.960 . S
H426 C440 0.960 . S
H427 C440 0.960 . S
C428 H420 0.929 . S
C428 C429 1.377 . S
C428 C430 1.384 . S
C429 C428 1.377 . S
C429 C435 1.390 . S
C430 H421 0.930 . S
C430 C428 1.384 . S
C430 C431 1.372 . S
C431 C430 1.372 . S
C431 C432 1.400 . S
C431 C436 1.490 . S
C432 H422 0.930 . S
C432 C431 1.400 . S
C432 C435 1.386 . S
H433 C449 0.930 . S
H434 C450 0.931 . S
C435 H423 0.929 . S
C435 C429 1.390 . S
C435 C432 1.386 . S
C436 C431 1.490 . S
C436 C438 1.395 . S
C436 C439 1.403 . S
H437 C443 0.930 . S
C438 H424 0.930 . S
C438 C436 1.395 . S
C438 C441 1.403 . S
C439 C436 1.403 . S
C439 C440 1.524 . S
C439 C443 1.400 . S
C440 H425 0.960 . S
C440 H426 0.960 . S
C440 H427 0.960 . S
C440 C439 1.524 . S
C441 C438 1.403 . S
C441 C442 1.392 . S
C441 C445 1.495 . S
C442 C441 1.392 . S
C442 C443 1.385 . S
C442 C444 1.478 . S
C443 H437 0.930 . S
C443 C439 1.400 . S
C443 C442 1.385 . S
C444 C442 1.478 . S
C444 C446 1.381 . S
C444 C450 1.383 . S
C445 C441 1.495 . S
C445 H451 0.959 . S
C445 H452 0.961 . S
C445 H453 0.960 . S
C446 C444 1.381 . S
C446 C447 1.394 . S
C446 H454 0.930 . S
C447 C446 1.394 . S
C447 C448 1.383 . S
C447 H455 0.929 . S
C448 C447 1.383 . S
C448 C449 1.377 . S
C449 H433 0.930 . S
C449 C448 1.377 . S
C449 C450 1.379 . S
C450 H434 0.931 . S
C450 C444 1.383 . S
C450 C449 1.379 . S
H451 C445 0.959 . S
H452 C445 0.961 . S
H453 C445 0.960 . S
H454 C446 0.930 . S
H455 C447 0.929 . S
H456 C464 0.929 . S
H457 C466 0.930 . S
H458 C468 0.930 . S
H459 C471 0.929 . S
H460 C474 0.930 . S
H461 C476 0.960 . S
H462 C476 0.960 . S
H463 C476 0.960 . S
C464 H456 0.929 . S
C464 C465 1.377 . S
C464 C466 1.384 . S
C465 C464 1.377 . S
C465 C471 1.390 . S
C466 H457 0.930 . S
C466 C464 1.384 . S
C466 C467 1.372 . S
C467 C466 1.372 . S
C467 C468 1.400 . S
C467 C472 1.490 . S
C468 H458 0.930 . S
C468 C467 1.400 . S
C468 C471 1.386 . S
H469 C485 0.930 . S
H470 C486 0.931 . S
C471 H459 0.929 . S
C471 C465 1.390 . S
C471 C468 1.386 . S
C472 C467 1.490 . S
C472 C474 1.395 . S
C472 C475 1.403 . S
H473 C479 0.930 . S
C474 H460 0.930 . S
C474 C472 1.395 . S
C474 C477 1.403 . S
C475 C472 1.403 . S
C475 C476 1.524 . S
C475 C479 1.400 . S
C476 H461 0.960 . S
C476 H462 0.960 . S
C476 H463 0.960 . S
C476 C475 1.524 . S
C477 C474 1.403 . S
C477 C478 1.392 . S
C477 C481 1.495 . S
C478 C477 1.392 . S
C478 C479 1.385 . S
C478 C480 1.478 . S
C479 H473 0.930 . S
C479 C475 1.400 . S
C479 C478 1.385 . S
C480 C478 1.478 . S
C480 C482 1.381 . S
C480 C486 1.383 . S
C481 C477 1.495 . S
C481 H487 0.959 . S
C481 H488 0.961 . S
C481 H489 0.960 . S
C482 C480 1.381 . S
C482 C483 1.394 . S
C482 H490 0.930 . S
C483 C482 1.394 . S
C483 C484 1.383 . S
C483 H491 0.929 . S
C484 C483 1.383 . S
C484 C485 1.377 . S
C485 H469 0.930 . S
C485 C484 1.377 . S
C485 C486 1.379 . S
C486 H470 0.931 . S
C486 C480 1.383 . S
C486 C485 1.379 . S
H487 C481 0.959 . S
H488 C481 0.961 . S
H489 C481 0.960 . S
H490 C482 0.930 . S
H491 C483 0.929 . S
H492 C500 0.929 . S
H493 C502 0.930 . S
H494 C504 0.930 . S
H495 C507 0.929 . S
H496 C510 0.930 . S
H497 C512 0.960 . S
H498 C512 0.960 . S
H499 C512 0.960 . S
C500 H492 0.929 . S
C500 C501 1.377 . S
C500 C502 1.384 . S
C501 C500 1.377 . S
C501 C507 1.390 . S
C502 H493 0.930 . S
C502 C500 1.384 . S
C502 C503 1.372 . S
C503 C502 1.372 . S
C503 C504 1.400 . S
C503 C508 1.490 . S
C504 H494 0.930 . S
C504 C503 1.400 . S
C504 C507 1.386 . S
H505 C521 0.930 . S
H506 C522 0.931 . S
C507 H495 0.929 . S
C507 C501 1.390 . S
C507 C504 1.386 . S
C508 C503 1.490 . S
C508 C510 1.395 1_554 S
C508 C511 1.403 . S
H509 C515 0.930 1_554 S
C510 H496 0.930 . S
C510 C508 1.395 1_556 S
C510 C513 1.403 . S
C511 C508 1.403 . S
C511 C512 1.524 . S
C511 C515 1.399 1_554 S
C512 H497 0.960 . S
C512 H498 0.960 . S
C512 H499 0.960 . S
C512 C511 1.524 . S
C513 C510 1.403 . S
C513 C514 1.392 . S
C513 C517 1.495 . S
C514 C513 1.392 . S
C514 C515 1.386 . S
C514 C516 1.478 . S
C515 H509 0.930 1_556 S
C515 C511 1.399 1_556 S
C515 C514 1.386 . S
C516 C514 1.478 . S
C516 C518 1.381 . S
C516 C522 1.383 . S
C517 C513 1.495 . S
C517 H523 0.959 . S
C517 H524 0.961 . S
C517 H525 0.960 . S
C518 C516 1.381 . S
C518 C519 1.394 . S
C518 H526 0.930 . S
C519 C518 1.394 . S
C519 C520 1.383 . S
C519 H527 0.929 . S
C520 C519 1.383 . S
C520 C521 1.377 . S
C521 H505 0.930 . S
C521 C520 1.377 . S
C521 C522 1.379 . S
C522 H506 0.931 . S
C522 C516 1.383 . S
C522 C521 1.379 . S
H523 C517 0.959 . S
H524 C517 0.961 . S
H525 C517 0.960 . S
H526 C518 0.930 . S
H527 C519 0.929 . S
H528 C536 0.929 . S
H529 C538 0.930 . S
H530 C540 0.930 . S
H531 C543 0.929 . S
H532 C546 0.930 . S
H533 C548 0.960 . S
H534 C548 0.960 . S
H535 C548 0.960 . S
C536 H528 0.929 . S
C536 C537 1.377 . S
C536 C538 1.384 . S
C537 C536 1.377 . S
C537 C543 1.390 . S
C538 H529 0.930 . S
C538 C536 1.384 . S
C538 C539 1.372 . S
C539 C538 1.372 . S
C539 C540 1.400 . S
C539 C544 1.490 . S
C540 H530 0.930 . S
C540 C539 1.400 . S
C540 C543 1.386 . S
H541 C557 0.930 . S
H542 C558 0.931 . S
C543 H531 0.929 . S
C543 C537 1.390 . S
C543 C540 1.386 . S
C544 C539 1.490 . S
C544 C546 1.395 . S
C544 C547 1.403 . S
H545 C551 0.930 . S
C546 H532 0.930 . S
C546 C544 1.395 . S
C546 C549 1.403 . S
C547 C544 1.403 . S
C547 C548 1.524 . S
C547 C551 1.400 . S
C548 H533 0.960 . S
C548 H534 0.960 . S
C548 H535 0.960 . S
C548 C547 1.524 . S
C549 C546 1.403 . S
C549 C550 1.392 . S
C549 C553 1.495 . S
C550 C549 1.392 . S
C550 C551 1.385 . S
C550 C552 1.478 . S
C551 H545 0.930 . S
C551 C547 1.400 . S
C551 C550 1.385 . S
C552 C550 1.478 . S
C552 C554 1.381 . S
C552 C558 1.383 . S
C553 C549 1.495 . S
C553 H559 0.959 . S
C553 H560 0.961 . S
C553 H561 0.960 . S
C554 C552 1.381 . S
C554 C555 1.394 . S
C554 H562 0.930 . S
C555 C554 1.394 . S
C555 C556 1.383 . S
C555 H563 0.929 . S
C556 C555 1.383 . S
C556 C557 1.377 . S
C557 H541 0.930 . S
C557 C556 1.377 . S
C557 C558 1.379 . S
C558 H542 0.931 . S
C558 C552 1.383 . S
C558 C557 1.379 . S
H559 C553 0.959 . S
H560 C553 0.961 . S
H561 C553 0.960 . S
H562 C554 0.930 . S
H563 C555 0.929 . S
H564 C572 0.929 . S
H565 C574 0.930 . S
H566 C576 0.930 . S
H567 C579 0.929 . S
H568 C582 0.930 . S
H569 C584 0.960 . S
H570 C584 0.960 . S
H571 C584 0.960 . S
C572 H564 0.929 . S
C572 C573 1.377 . S
C572 C574 1.384 . S
C573 C572 1.377 . S
C573 C579 1.390 . S
C574 H565 0.930 . S
C574 C572 1.384 . S
C574 C575 1.372 . S
C575 C574 1.372 . S
C575 C576 1.400 . S
C575 C580 1.490 . S
C576 H566 0.930 . S
C576 C575 1.400 . S
C576 C579 1.386 . S
H577 C593 0.930 . S
H578 C594 0.931 . S
C579 H567 0.929 . S
C579 C573 1.390 . S
C579 C576 1.386 . S
C580 C575 1.490 . S
C580 C582 1.395 . S
C580 C583 1.403 . S
H581 C587 0.930 . S
C582 H568 0.930 . S
C582 C580 1.395 . S
C582 C585 1.403 . S
C583 C580 1.403 . S
C583 C584 1.524 . S
C583 C587 1.400 . S
C584 H569 0.960 . S
C584 H570 0.960 . S
C584 H571 0.960 . S
C584 C583 1.524 . S
C585 C582 1.403 . S
C585 C586 1.392 . S
C585 C589 1.495 . S
C586 C585 1.392 . S
C586 C587 1.385 . S
C586 C588 1.478 . S
C587 H581 0.930 . S
C587 C583 1.400 . S
C587 C586 1.385 . S
C588 C586 1.478 . S
C588 C590 1.381 . S
C588 C594 1.383 . S
C589 C585 1.495 . S
C589 H595 0.959 . S
C589 H596 0.961 . S
C589 H597 0.960 . S
C590 C588 1.381 . S
C590 C591 1.394 . S
C590 H598 0.930 . S
C591 C590 1.394 . S
C591 C592 1.383 . S
C591 H599 0.929 . S
C592 C591 1.383 . S
C592 C593 1.377 . S
C593 H577 0.930 . S
C593 C592 1.377 . S
C593 C594 1.379 . S
C594 H578 0.931 . S
C594 C588 1.383 . S
C594 C593 1.379 . S
H595 C589 0.959 . S
H596 C589 0.961 . S
H597 C589 0.960 . S
H598 C590 0.930 . S
H599 C591 0.929 . S
H600 C608 0.929 . S
H601 C610 0.930 . S
H602 C612 0.930 . S
H603 C615 0.929 . S
H604 C618 0.930 . S
H605 C620 0.960 . S
H606 C620 0.960 . S
H607 C620 0.960 . S
C608 H600 0.929 . S
C608 C609 1.377 . S
C608 C610 1.384 . S
C609 C608 1.377 . S
C609 C615 1.390 . S
C610 H601 0.930 . S
C610 C608 1.384 . S
C610 C611 1.372 . S
C611 C610 1.372 . S
C611 C612 1.400 . S
C611 C616 1.490 . S
C612 H602 0.930 . S
C612 C611 1.400 . S
C612 C615 1.386 . S
H613 C629 0.930 . S
H614 C630 0.931 . S
C615 H603 0.929 . S
C615 C609 1.390 . S
C615 C612 1.386 . S
C616 C611 1.490 . S
C616 C618 1.395 . S
C616 C619 1.403 . S
H617 C623 0.930 . S
C618 H604 0.930 . S
C618 C616 1.395 . S
C618 C621 1.403 . S
C619 C616 1.403 . S
C619 C620 1.524 . S
C619 C623 1.400 . S
C620 H605 0.960 . S
C620 H606 0.960 . S
C620 H607 0.960 . S
C620 C619 1.524 . S
C621 C618 1.403 . S
C621 C622 1.392 . S
C621 C625 1.495 . S
C622 C621 1.392 . S
C622 C623 1.385 . S
C622 C624 1.478 . S
C623 H617 0.930 . S
C623 C619 1.400 . S
C623 C622 1.385 . S
C624 C622 1.478 . S
C624 C626 1.381 . S
C624 C630 1.383 . S
C625 C621 1.495 . S
C625 H631 0.959 . S
C625 H632 0.961 . S
C625 H633 0.960 . S
C626 C624 1.381 . S
C626 C627 1.394 . S
C626 H634 0.930 . S
C627 C626 1.394 . S
C627 C628 1.383 . S
C627 H635 0.929 . S
C628 C627 1.383 . S
C628 C629 1.377 . S
C629 H613 0.930 . S
C629 C628 1.377 . S
C629 C630 1.379 . S
C630 H614 0.931 . S
C630 C624 1.383 . S
C630 C629 1.379 . S
H631 C625 0.959 . S
H632 C625 0.961 . S
H633 C625 0.960 . S
H634 C626 0.930 . S
H635 C627 0.929 . S
H636 C644 0.929 . S
H637 C646 0.930 . S
H638 C648 0.930 . S
H639 C651 0.929 . S
H640 C654 0.930 . S
H641 C656 0.960 . S
H642 C656 0.960 . S
H643 C656 0.960 . S
C644 H636 0.929 . S
C644 C645 1.377 . S
C644 C646 1.384 . S
C645 C644 1.377 . S
C645 C651 1.390 . S
C646 H637 0.930 . S
C646 C644 1.384 . S
C646 C647 1.372 . S
C647 C646 1.372 . S
C647 C648 1.400 . S
C647 C652 1.490 . S
C648 H638 0.930 . S
C648 C647 1.400 . S
C648 C651 1.386 . S
H649 C665 0.930 1_554 S
H650 C666 0.931 . S
C651 H639 0.929 . S
C651 C645 1.390 . S
C651 C648 1.386 . S
C652 C647 1.490 . S
C652 C654 1.395 . S
C652 C655 1.403 . S
H653 C659 0.930 . S
C654 H640 0.930 . S
C654 C652 1.395 . S
C654 C657 1.403 . S
C655 C652 1.403 . S
C655 C656 1.524 . S
C655 C659 1.400 . S
C656 H641 0.960 . S
C656 H642 0.960 . S
C656 H643 0.960 . S
C656 C655 1.524 . S
C657 C654 1.403 . S
C657 C658 1.392 . S
C657 C661 1.495 . S
C658 C657 1.392 . S
C658 C659 1.385 . S
C658 C660 1.478 . S
C659 H653 0.930 . S
C659 C655 1.400 . S
C659 C658 1.385 . S
C660 C658 1.478 . S
C660 C662 1.381 . S
C660 C666 1.383 . S
C661 C657 1.495 . S
C661 H667 0.959 . S
C661 H668 0.961 . S
C661 H669 0.960 . S
C662 C660 1.381 . S
C662 C663 1.394 . S
C662 H670 0.930 . S
C663 C662 1.394 . S
C663 C664 1.383 . S
C663 H671 0.929 . S
C664 C663 1.383 . S
C664 C665 1.377 . S
C665 H649 0.930 1_556 S
C665 C664 1.377 . S
C665 C666 1.379 . S
C666 H650 0.931 . S
C666 C660 1.383 . S
C666 C665 1.379 . S
H667 C661 0.959 . S
H668 C661 0.961 . S
H669 C661 0.960 . S
H670 C662 0.930 . S
H671 C663 0.929 . S
H672 C680 0.929 1_556 S
H673 C682 0.930 . S
H674 C684 0.930 . S
H675 C687 0.929 . S
H676 C690 0.930 . S
H677 C692 0.960 . S
H678 C692 0.960 . S
H679 C692 0.960 . S
C680 H672 0.929 1_554 S
C680 C681 1.377 . S
C680 C682 1.384 . S
C681 C680 1.377 . S
C681 C687 1.390 . S
C682 H673 0.930 . S
C682 C680 1.384 . S
C682 C683 1.372 . S
C683 C682 1.372 . S
C683 C684 1.400 . S
C683 C688 1.490 . S
C684 H674 0.930 . S
C684 C683 1.400 . S
C684 C687 1.386 . S
H685 C701 0.930 . S
H686 C702 0.931 . S
C687 H675 0.929 . S
C687 C681 1.390 . S
C687 C684 1.386 . S
C688 C683 1.490 . S
C688 C690 1.395 . S
C688 C691 1.403 . S
H689 C695 0.930 . S
C690 H676 0.930 . S
C690 C688 1.395 . S
C690 C693 1.403 . S
C691 C688 1.403 . S
C691 C692 1.524 . S
C691 C695 1.400 . S
C692 H677 0.960 . S
C692 H678 0.960 . S
C692 H679 0.960 . S
C692 C691 1.524 . S
C693 C690 1.403 . S
C693 C694 1.392 . S
C693 C697 1.495 . S
C694 C693 1.392 . S
C694 C695 1.385 . S
C694 C696 1.478 . S
C695 H689 0.930 . S
C695 C691 1.400 . S
C695 C694 1.385 . S
C696 C694 1.478 . S
C696 C698 1.381 . S
C696 C702 1.383 . S
C697 C693 1.495 . S
C697 H703 0.959 . S
C697 H704 0.961 . S
C697 H705 0.960 . S
C698 C696 1.381 . S
C698 C699 1.394 . S
C698 H706 0.930 . S
C699 C698 1.394 . S
C699 C700 1.383 . S
C699 H707 0.929 . S
C700 C699 1.383 . S
C700 C701 1.377 . S
C701 H685 0.930 . S
C701 C700 1.377 . S
C701 C702 1.379 . S
C702 H686 0.931 . S
C702 C696 1.383 . S
C702 C701 1.379 . S
H703 C697 0.959 . S
H704 C697 0.961 . S
H705 C697 0.960 . S
H706 C698 0.930 . S
H707 C699 0.929 . S
H708 C716 0.929 . S
H709 C718 0.930 . S
H710 C720 0.930 . S
H711 C723 0.929 . S
H712 C726 0.930 . S
H713 C728 0.960 . S
H714 C728 0.960 . S
H715 C728 0.960 . S
C716 H708 0.929 . S
C716 C717 1.377 . S
C716 C718 1.384 . S
C717 C716 1.377 . S
C717 C723 1.390 . S
C718 H709 0.930 . S
C718 C716 1.384 . S
C718 C719 1.372 . S
C719 C718 1.372 . S
C719 C720 1.400 . S
C719 C724 1.490 . S
C720 H710 0.930 . S
C720 C719 1.400 . S
C720 C723 1.386 . S
H721 C737 0.930 . S
H722 C738 0.931 . S
C723 H711 0.929 . S
C723 C717 1.390 . S
C723 C720 1.386 . S
C724 C719 1.490 . S
C724 C726 1.395 . S
C724 C727 1.403 . S
H725 C731 0.930 . S
C726 H712 0.930 . S
C726 C724 1.395 . S
C726 C729 1.403 . S
C727 C724 1.403 . S
C727 C728 1.524 . S
C727 C731 1.400 . S
C728 H713 0.960 . S
C728 H714 0.960 . S
C728 H715 0.960 . S
C728 C727 1.524 . S
C729 C726 1.403 . S
C729 C730 1.392 . S
C729 C733 1.495 . S
C730 C729 1.392 . S
C730 C731 1.385 . S
C730 C732 1.478 . S
C731 H725 0.930 . S
C731 C727 1.400 . S
C731 C730 1.385 . S
C732 C730 1.478 . S
C732 C734 1.381 . S
C732 C738 1.383 . S
C733 C729 1.495 . S
C733 H739 0.959 . S
C733 H740 0.961 . S
C733 H741 0.960 . S
C734 C732 1.381 . S
C734 C735 1.394 . S
C734 H742 0.930 . S
C735 C734 1.394 . S
C735 C736 1.383 . S
C735 H743 0.929 . S
C736 C735 1.383 . S
C736 C737 1.377 . S
C737 H721 0.930 . S
C737 C736 1.377 . S
C737 C738 1.379 . S
C738 H722 0.931 . S
C738 C732 1.383 . S
C738 C737 1.379 . S
H739 C733 0.959 . S
H740 C733 0.961 . S
H741 C733 0.960 . S
H742 C734 0.930 . S
H743 C735 0.929 . S
H744 C752 0.929 . S
H745 C754 0.930 . S
H746 C756 0.930 . S
H747 C759 0.929 . S
H748 C762 0.930 . S
H749 C764 0.960 . S
H750 C764 0.960 . S
H751 C764 0.960 . S
C752 H744 0.929 . S
C752 C753 1.377 . S
C752 C754 1.384 . S
C753 C752 1.377 . S
C753 C759 1.390 . S
C754 H745 0.930 . S
C754 C752 1.384 . S
C754 C755 1.372 . S
C755 C754 1.372 . S
C755 C756 1.400 . S
C755 C760 1.490 . S
C756 H746 0.930 . S
C756 C755 1.400 . S
C756 C759 1.386 . S
H757 C773 0.930 . S
H758 C774 0.931 . S
C759 H747 0.929 . S
C759 C753 1.390 . S
C759 C756 1.386 . S
C760 C755 1.490 . S
C760 C762 1.395 . S
C760 C763 1.403 . S
H761 C767 0.930 . S
C762 H748 0.930 . S
C762 C760 1.395 . S
C762 C765 1.403 . S
C763 C760 1.403 . S
C763 C764 1.524 . S
C763 C767 1.400 . S
C764 H749 0.960 . S
C764 H750 0.960 . S
C764 H751 0.960 . S
C764 C763 1.524 . S
C765 C762 1.403 . S
C765 C766 1.392 . S
C765 C769 1.495 . S
C766 C765 1.392 . S
C766 C767 1.385 . S
C766 C768 1.478 . S
C767 H761 0.930 . S
C767 C763 1.400 . S
C767 C766 1.385 . S
C768 C766 1.478 . S
C768 C770 1.381 . S
C768 C774 1.383 . S
C769 C765 1.495 . S
C769 H775 0.959 . S
C769 H776 0.961 . S
C769 H777 0.960 . S
C770 C768 1.381 . S
C770 C771 1.394 . S
C770 H778 0.930 . S
C771 C770 1.394 . S
C771 C772 1.383 . S
C771 H779 0.929 1_556 S
C772 C771 1.383 . S
C772 C773 1.377 . S
C773 H757 0.930 . S
C773 C772 1.377 . S
C773 C774 1.379 . S
C774 H758 0.931 . S
C774 C768 1.383 . S
C774 C773 1.379 . S
H775 C769 0.959 . S
H776 C769 0.961 . S
H777 C769 0.960 . S
H778 C770 0.930 . S
H779 C771 0.929 1_554 S
H780 C788 0.929 . S
H781 C790 0.930 . S
H782 C792 0.930 . S
H783 C795 0.929 1_556 S
H784 C798 0.930 . S
H785 C800 0.960 . S
H786 C800 0.960 . S
H787 C800 0.960 . S
C788 H780 0.929 . S
C788 C789 1.377 . S
C788 C790 1.384 . S
C789 C788 1.377 . S
C789 C795 1.390 . S
C790 H781 0.930 . S
C790 C788 1.384 . S
C790 C791 1.372 . S
C791 C790 1.372 . S
C791 C792 1.400 . S
C791 C796 1.490 . S
C792 H782 0.930 . S
C792 C791 1.400 . S
C792 C795 1.386 . S
H793 C809 0.930 . S
H794 C810 0.931 . S
C795 H783 0.929 1_554 S
C795 C789 1.390 . S
C795 C792 1.386 . S
C796 C791 1.490 . S
C796 C798 1.395 . S
C796 C799 1.403 . S
H797 C803 0.930 . S
C798 H784 0.930 . S
C798 C796 1.395 . S
C798 C801 1.403 . S
C799 C796 1.403 . S
C799 C800 1.524 . S
C799 C803 1.400 . S
C800 H785 0.960 . S
C800 H786 0.960 . S
C800 H787 0.960 . S
C800 C799 1.524 . S
C801 C798 1.403 . S
C801 C802 1.392 . S
C801 C805 1.495 . S
C802 C801 1.392 . S
C802 C803 1.385 . S
C802 C804 1.478 . S
C803 H797 0.930 . S
C803 C799 1.400 . S
C803 C802 1.385 . S
C804 C802 1.478 . S
C804 C806 1.381 . S
C804 C810 1.383 . S
C805 C801 1.495 . S
C805 H811 0.959 . S
C805 H812 0.961 . S
C805 H813 0.960 . S
C806 C804 1.381 . S
C806 C807 1.394 . S
C806 H814 0.930 . S
C807 C806 1.394 . S
C807 C808 1.383 . S
C807 H815 0.929 . S
C808 C807 1.383 . S
C808 C809 1.377 . S
C809 H793 0.930 . S
C809 C808 1.377 . S
C809 C810 1.379 . S
C810 H794 0.931 . S
C810 C804 1.383 . S
C810 C809 1.379 . S
H811 C805 0.959 . S
H812 C805 0.961 . S
H813 C805 0.960 . S
H814 C806 0.930 . S
H815 C807 0.929 . S
H816 C824 0.929 . S
H817 C826 0.930 . S
H818 C828 0.930 . S
H819 C831 0.929 . S
H820 C834 0.930 . S
H821 C836 0.960 . S
H822 C836 0.960 . S
H823 C836 0.960 . S
C824 H816 0.929 . S
C824 C825 1.377 . S
C824 C826 1.384 . S
C825 C824 1.377 . S
C825 C831 1.390 . S
C826 H817 0.930 . S
C826 C824 1.384 . S
C826 C827 1.372 . S
C827 C826 1.372 . S
C827 C828 1.400 . S
C827 C832 1.490 . S
C828 H818 0.930 . S
C828 C827 1.400 . S
C828 C831 1.386 . S
H829 C845 0.930 . S
H830 C846 0.931 . S
C831 H819 0.929 . S
C831 C825 1.390 . S
C831 C828 1.386 . S
C832 C827 1.490 . S
C832 C834 1.395 . S
C832 C835 1.403 . S
H833 C839 0.930 . S
C834 H820 0.930 . S
C834 C832 1.395 . S
C834 C837 1.403 . S
C835 C832 1.403 . S
C835 C836 1.524 . S
C835 C839 1.400 . S
C836 H821 0.960 . S
C836 H822 0.960 . S
C836 H823 0.960 . S
C836 C835 1.524 . S
C837 C834 1.403 . S
C837 C838 1.392 . S
C837 C841 1.495 . S
C838 C837 1.392 . S
C838 C839 1.385 . S
C838 C840 1.478 . S
C839 H833 0.930 . S
C839 C835 1.400 . S
C839 C838 1.385 . S
C840 C838 1.478 . S
C840 C842 1.381 . S
C840 C846 1.383 . S
C841 C837 1.495 . S
C841 H847 0.959 . S
C841 H848 0.961 . S
C841 H849 0.960 . S
C842 C840 1.381 . S
C842 C843 1.394 . S
C842 H850 0.930 . S
C843 C842 1.394 . S
C843 C844 1.383 . S
C843 H851 0.929 . S
C844 C843 1.383 . S
C844 C845 1.377 . S
C845 H829 0.930 . S
C845 C844 1.377 . S
C845 C846 1.379 . S
C846 H830 0.931 . S
C846 C840 1.383 . S
C846 C845 1.379 . S
H847 C841 0.959 . S
H848 C841 0.961 . S
H849 C841 0.960 . S
H850 C842 0.930 . S
H851 C843 0.929 . S
H852 C860 0.929 . S
H853 C862 0.930 . S
H854 C864 0.930 . S
H855 C867 0.929 . S
H856 C870 0.930 . S
H857 C872 0.960 . S
H858 C872 0.960 . S
H859 C872 0.960 . S
C860 H852 0.929 . S
C860 C861 1.377 . S
C860 C862 1.384 . S
C861 C860 1.377 . S
C861 C867 1.390 . S
C862 H853 0.930 . S
C862 C860 1.384 . S
C862 C863 1.372 . S
C863 C862 1.372 . S
C863 C864 1.400 . S
C863 C868 1.490 . S
C864 H854 0.930 . S
C864 C863 1.400 . S
C864 C867 1.386 . S
H865 C881 0.930 . S
H866 C882 0.931 . S
C867 H855 0.929 . S
C867 C861 1.390 . S
C867 C864 1.386 . S
C868 C863 1.490 . S
C868 C870 1.395 . S
C868 C871 1.403 . S
H869 C875 0.930 . S
C870 H856 0.930 . S
C870 C868 1.395 . S
C870 C873 1.403 . S
C871 C868 1.403 . S
C871 C872 1.524 . S
C871 C875 1.400 . S
C872 H857 0.960 . S
C872 H858 0.960 . S
C872 H859 0.960 . S
C872 C871 1.524 . S
C873 C870 1.403 . S
C873 C874 1.392 . S
C873 C877 1.495 . S
C874 C873 1.392 . S
C874 C875 1.385 . S
C874 C876 1.478 . S
C875 H869 0.930 . S
C875 C871 1.400 . S
C875 C874 1.385 . S
C876 C874 1.478 . S
C876 C878 1.381 . S
C876 C882 1.383 . S
C877 C873 1.495 . S
C877 H883 0.959 . S
C877 H884 0.961 . S
C877 H885 0.960 . S
C878 C876 1.381 . S
C878 C879 1.394 . S
C878 H886 0.930 . S
C879 C878 1.394 . S
C879 C880 1.383 . S
C879 H887 0.929 . S
C880 C879 1.383 . S
C880 C881 1.377 . S
C881 H865 0.930 . S
C881 C880 1.377 . S
C881 C882 1.379 . S
C882 H866 0.931 . S
C882 C876 1.383 . S
C882 C881 1.379 . S
H883 C877 0.959 . S
H884 C877 0.961 . S
H885 C877 0.960 . S
H886 C878 0.930 . S
H887 C879 0.929 . S
H888 C896 0.929 . S
H889 C898 0.930 . S
H890 C900 0.930 . S
H891 C903 0.929 . S
H892 C906 0.930 . S
H893 C908 0.960 . S
H894 C908 0.960 . S
H895 C908 0.960 . S
C896 H888 0.929 . S
C896 C897 1.377 1_554 S
C896 C898 1.384 . S
C897 C896 1.377 1_556 S
C897 C903 1.390 . S
C898 H889 0.930 . S
C898 C896 1.384 . S
C898 C899 1.372 1_554 S
C899 C898 1.372 1_556 S
C899 C900 1.400 . S
C899 C904 1.490 . S
C900 H890 0.930 . S
C900 C899 1.400 . S
C900 C903 1.386 . S
H901 C917 0.930 . S
H902 C918 0.931 . S
C903 H891 0.929 . S
C903 C897 1.390 . S
C903 C900 1.386 . S
C904 C899 1.490 . S
C904 C906 1.395 1_556 S
C904 C907 1.403 . S
H905 C911 0.930 . S
C906 H892 0.930 . S
C906 C904 1.395 1_554 S
C906 C909 1.403 . S
C907 C904 1.403 . S
C907 C908 1.524 . S
C907 C911 1.400 . S
C908 H893 0.960 . S
C908 H894 0.960 . S
C908 H895 0.960 . S
C908 C907 1.524 . S
C909 C906 1.403 . S
C909 C910 1.392 . S
C909 C913 1.495 . S
C910 C909 1.392 . S
C910 C911 1.385 1_554 S
C910 C912 1.478 . S
C911 H905 0.930 . S
C911 C907 1.400 . S
C911 C910 1.385 1_556 S
C912 C910 1.478 . S
C912 C914 1.381 . S
C912 C918 1.383 1_554 S
C913 C909 1.495 . S
C913 H919 0.959 . S
C913 H920 0.961 . S
C913 H921 0.960 . S
C914 C912 1.381 . S
C914 C915 1.394 . S
C914 H922 0.930 . S
C915 C914 1.394 . S
C915 C916 1.383 . S
C915 H923 0.929 . S
C916 C915 1.383 . S
C916 C917 1.377 1_554 S
C917 H901 0.930 . S
C917 C916 1.377 1_556 S
C917 C918 1.379 . S
C918 H902 0.931 . S
C918 C912 1.383 1_556 S
C918 C917 1.379 . S
H919 C913 0.959 . S
H920 C913 0.961 . S
H921 C913 0.960 . S
H922 C914 0.930 . S
H923 C915 0.929 . S
H924 C932 0.929 . S
H925 C934 0.930 . S
H926 C936 0.930 . S
H927 C939 0.929 . S
H928 C942 0.930 . S
H929 C944 0.960 . S
H930 C944 0.960 . S
H931 C944 0.960 . S
C932 H924 0.929 . S
C932 C933 1.377 . S
C932 C934 1.384 . S
C933 C932 1.377 . S
C933 C939 1.390 . S
C934 H925 0.930 . S
C934 C932 1.384 . S
C934 C935 1.372 . S
C935 C934 1.372 . S
C935 C936 1.400 . S
C935 C940 1.490 . S
C936 H926 0.930 . S
C936 C935 1.400 . S
C936 C939 1.386 . S
H937 C953 0.930 . S
H938 C954 0.931 . S
C939 H927 0.929 . S
C939 C933 1.390 . S
C939 C936 1.386 . S
C940 C935 1.490 . S
C940 C942 1.395 . S
C940 C943 1.403 . S
H941 C947 0.930 . S
C942 H928 0.930 . S
C942 C940 1.395 . S
C942 C945 1.403 . S
C943 C940 1.403 . S
C943 C944 1.524 . S
C943 C947 1.400 . S
C944 H929 0.960 . S
C944 H930 0.960 . S
C944 H931 0.960 . S
C944 C943 1.524 . S
C945 C942 1.403 . S
C945 C946 1.392 . S
C945 C949 1.495 . S
C946 C945 1.392 . S
C946 C947 1.385 . S
C946 C948 1.478 . S
C947 H941 0.930 . S
C947 C943 1.400 . S
C947 C946 1.385 . S
C948 C946 1.478 . S
C948 C950 1.381 . S
C948 C954 1.383 . S
C949 C945 1.495 . S
C949 H955 0.959 . S
C949 H956 0.961 . S
C949 H957 0.960 . S
C950 C948 1.381 . S
C950 C951 1.394 . S
C950 H958 0.930 . S
C951 C950 1.394 . S
C951 C952 1.383 . S
C951 H959 0.929 . S
C952 C951 1.383 . S
C952 C953 1.377 . S
C953 H937 0.930 . S
C953 C952 1.377 . S
C953 C954 1.379 . S
C954 H938 0.931 . S
C954 C948 1.383 . S
C954 C953 1.379 . S
H955 C949 0.959 . S
H956 C949 0.961 . S
H957 C949 0.960 . S
H958 C950 0.930 . S
H959 C951 0.929 . S
H960 C968 0.929 . S
H961 C970 0.930 . S
H962 C972 0.930 . S
H963 C975 0.929 . S
H964 C978 0.930 . S
H965 C980 0.960 . S
H966 C980 0.960 . S
H967 C980 0.960 . S
C968 H960 0.929 . S
C968 C969 1.377 . S
C968 C970 1.384 . S
C969 C968 1.377 . S
C969 C975 1.390 . S
C970 H961 0.930 . S
C970 C968 1.384 . S
C970 C971 1.372 . S
C971 C970 1.372 . S
C971 C972 1.400 . S
C971 C976 1.490 . S
C972 H962 0.930 . S
C972 C971 1.400 . S
C972 C975 1.386 . S
H973 C989 0.930 . S
H974 C990 0.931 . S
C975 H963 0.929 . S
C975 C969 1.390 . S
C975 C972 1.386 . S
C976 C971 1.490 . S
C976 C978 1.395 . S
C976 C979 1.403 . S
H977 C983 0.930 . S
C978 H964 0.930 . S
C978 C976 1.395 . S
C978 C981 1.403 . S
C979 C976 1.403 . S
C979 C980 1.524 . S
C979 C983 1.400 . S
C980 H965 0.960 . S
C980 H966 0.960 . S
C980 H967 0.960 . S
C980 C979 1.524 . S
C981 C978 1.403 . S
C981 C982 1.392 . S
C981 C985 1.495 . S
C982 C981 1.392 . S
C982 C983 1.385 . S
C982 C984 1.478 . S
C983 H977 0.930 . S
C983 C979 1.400 . S
C983 C982 1.385 . S
C984 C982 1.478 . S
C984 C986 1.381 . S
C984 C990 1.383 . S
C985 C981 1.495 . S
C985 H991 0.959 . S
C985 H992 0.961 . S
C985 H993 0.960 . S
C986 C984 1.381 . S
C986 C987 1.394 . S
C986 H994 0.930 . S
C987 C986 1.394 . S
C987 C988 1.383 . S
C987 H995 0.929 . S
C988 C987 1.383 . S
C988 C989 1.377 . S
C989 H973 0.930 . S
C989 C988 1.377 . S
C989 C990 1.379 . S
C990 H974 0.931 . S
C990 C984 1.383 . S
C990 C989 1.379 . S
H991 C985 0.959 . S
H992 C985 0.961 . S
H993 C985 0.960 . S
H994 C986 0.930 . S
H995 C987 0.929 . S
H996 C1004 0.929 . S
H997 C1006 0.930 . S
H998 C1008 0.930 . S
H999 C1011 0.929 . S
H1000 C1014 0.930 . S
H1001 C1016 0.960 . S
H1002 C1016 0.960 . S
H1003 C1016 0.960 . S
C1004 H996 0.929 . S
C1004 C1005 1.377 1_556 S
C1004 C1006 1.384 . S
C1005 C1004 1.377 1_554 S
C1005 C1011 1.390 . S
C1006 H997 0.930 . S
C1006 C1004 1.384 . S
C1006 C1007 1.372 1_556 S
C1007 C1006 1.372 1_554 S
C1007 C1008 1.400 . S
C1007 C1012 1.490 . S
C1008 H998 0.930 . S
C1008 C1007 1.400 . S
C1008 C1011 1.386 . S
H1009 C1025 0.930 1_554 S
H1010 C1026 0.931 1_554 S
C1011 H999 0.929 . S
C1011 C1005 1.390 . S
C1011 C1008 1.386 . S
C1012 C1007 1.490 . S
C1012 C1014 1.395 1_554 S
C1012 C1015 1.403 . S
H1013 C1019 0.930 . S
C1014 H1000 0.930 . S
C1014 C1012 1.395 1_556 S
C1014 C1017 1.403 . S
C1015 C1012 1.403 . S
C1015 C1016 1.524 . S
C1015 C1019 1.400 . S
C1016 H1001 0.960 . S
C1016 H1002 0.960 . S
C1016 H1003 0.960 . S
C1016 C1015 1.524 . S
C1017 C1014 1.403 . S
C1017 C1018 1.392 . S
C1017 C1021 1.495 . S
C1018 C1017 1.392 . S
C1018 C1019 1.385 1_556 S
C1018 C1020 1.478 . S
C1019 H1013 0.930 . S
C1019 C1015 1.400 . S
C1019 C1018 1.385 1_554 S
C1020 C1018 1.478 . S
C1020 C1022 1.381 . S
C1020 C1026 1.383 . S
C1021 C1017 1.495 . S
C1021 H1027 0.959 . S
C1021 H1028 0.961 . S
C1021 H1029 0.960 . S
C1022 C1020 1.381 . S
C1022 C1023 1.394 . S
C1022 H1030 0.930 . S
C1023 C1022 1.394 . S
C1023 C1024 1.383 . S
C1023 H1031 0.929 . S
C1024 C1023 1.383 . S
C1024 C1025 1.377 . S
C1025 H1009 0.930 1_556 S
C1025 C1024 1.377 . S
C1025 C1026 1.379 . S
C1026 H1010 0.931 1_556 S
C1026 C1020 1.383 . S
C1026 C1025 1.379 . S
H1027 C1021 0.959 . S
H1028 C1021 0.961 . S
H1029 C1021 0.960 . S
H1030 C1022 0.930 . S
H1031 C1023 0.929 . S
C177 C3 1.283 . S
C196 C129 1.299 . S
C213 C17 1.288 . S
C232 C143 1.266 . S
C249 C31 1.289 . S
C268 C157 1.273 . S
C285 C45 1.282 . S
C304 C87 1.297 . S
C321 C101 1.289 . S
C340 C59 1.278 . S
C357 C115 1.283 . S
C376 C73 1.284 . S
C393 C148 1.857 . S
C412 C8 1.842 . S
C429 C22 1.858 . S
C448 C162 1.860 . S
C465 C36 1.857 . S
C484 C92 1.842 . S
C501 C50 1.854 . S
C520 C106 1.854 . S
C537 C64 1.859 . S
C556 C120 1.859 . S
C573 C78 1.855 . S
C592 C134 1.846 . S
C609 C147 0.746 . S
C628 C7 0.704 . S
C645 C21 0.757 . S
C664 C161 0.743 . S
C681 C35 0.759 . S
C700 C91 0.762 . S
C717 C49 0.758 . S
C736 C105 0.786 . S
C753 C63 0.740 . S
C772 C119 0.732 . S
C789 C77 0.751 . S
C808 C133 0.792 . S
C825 C9 1.684 . S
C844 C93 1.687 . S
C861 C107 1.683 . S
C880 C23 1.675 . S
C897 C37 1.686 . S
C916 C121 1.681 . S
C933 C51 1.684 . S
C952 C135 1.687 . S
C969 C65 1.685 . S
C988 C149 1.676 . S
C1005 C163 1.686 . S
C1024 C79 1.683 . S
