# Generated by pormake.
# Topology wjk, (5)-cn, num edge types: 1
# Building blocks:
#     Node 0, Type 0, BuildingBlock: XOMCOT_clean_sbu_1, # of connection points: 5
#     Node 1, Type 0, BuildingBlock: XOMCOT_clean_sbu_1, # of connection points: 5
#     Node 2, Type 0, BuildingBlock: XOMCOT_clean_sbu_1, # of connection points: 5
#     Node 3, Type 0, BuildingBlock: XOMCOT_clean_sbu_1, # of connection points: 5
#     Node 4, Type 0, BuildingBlock: XOMCOT_clean_sbu_1, # of connection points: 5
#     Node 5, Type 0, BuildingBlock: XOMCOT_clean_sbu_1, # of connection points: 5
#     Node 6, Type 0, BuildingBlock: XOMCOT_clean_sbu_1, # of connection points: 5
#     Node 7, Type 0, BuildingBlock: XOMCOT_clean_sbu_1, # of connection points: 5
#     Node 8, Type 0, BuildingBlock: XOMCOT_clean_sbu_1, # of connection points: 5
#     Node 9, Type 0, BuildingBlock: XOMCOT_clean_sbu_1, # of connection points: 5
#     Node 10, Type 0, BuildingBlock: XOMCOT_clean_sbu_1, # of connection points: 5
#     Node 11, Type 0, BuildingBlock: XOMCOT_clean_sbu_1, # of connection points: 5
#     Edge 12, Type (0, 0), BuildingBlock: XIVTED_clean_linker_0, # of connection points: 2
#     Edge 13, Type (0, 0), BuildingBlock: XIVTED_clean_linker_0, # of connection points: 2
#     Edge 14, Type (0, 0), BuildingBlock: XIVTED_clean_linker_0, # of connection points: 2
#     Edge 15, Type (0, 0), BuildingBlock: XIVTED_clean_linker_0, # of connection points: 2
#     Edge 16, Type (0, 0), BuildingBlock: XIVTED_clean_linker_0, # of connection points: 2
#     Edge 17, Type (0, 0), BuildingBlock: XIVTED_clean_linker_0, # of connection points: 2
#     Edge 18, Type (0, 0), BuildingBlock: XIVTED_clean_linker_0, # of connection points: 2
#     Edge 19, Type (0, 0), BuildingBlock: XIVTED_clean_linker_0, # of connection points: 2
#     Edge 20, Type (0, 0), BuildingBlock: XIVTED_clean_linker_0, # of connection points: 2
#     Edge 21, Type (0, 0), BuildingBlock: XIVTED_clean_linker_0, # of connection points: 2
#     Edge 22, Type (0, 0), BuildingBlock: XIVTED_clean_linker_0, # of connection points: 2
#     Edge 23, Type (0, 0), BuildingBlock: XIVTED_clean_linker_0, # of connection points: 2
#     Edge 24, Type (0, 0), BuildingBlock: XIVTED_clean_linker_0, # of connection points: 2
#     Edge 25, Type (0, 0), BuildingBlock: XIVTED_clean_linker_0, # of connection points: 2
#     Edge 26, Type (0, 0), BuildingBlock: XIVTED_clean_linker_0, # of connection points: 2
#     Edge 27, Type (0, 0), BuildingBlock: XIVTED_clean_linker_0, # of connection points: 2
#     Edge 28, Type (0, 0), BuildingBlock: XIVTED_clean_linker_0, # of connection points: 2
#     Edge 29, Type (0, 0), BuildingBlock: XIVTED_clean_linker_0, # of connection points: 2
#     Edge 30, Type (0, 0), BuildingBlock: XIVTED_clean_linker_0, # of connection points: 2
#     Edge 31, Type (0, 0), BuildingBlock: XIVTED_clean_linker_0, # of connection points: 2
#     Edge 32, Type (0, 0), BuildingBlock: XIVTED_clean_linker_0, # of connection points: 2
#     Edge 33, Type (0, 0), BuildingBlock: XIVTED_clean_linker_0, # of connection points: 2
#     Edge 34, Type (0, 0), BuildingBlock: XIVTED_clean_linker_0, # of connection points: 2
#     Edge 35, Type (0, 0), BuildingBlock: XIVTED_clean_linker_0, # of connection points: 2
#     Edge 36, Type (0, 0), BuildingBlock: XIVTED_clean_linker_0, # of connection points: 2
#     Edge 37, Type (0, 0), BuildingBlock: XIVTED_clean_linker_0, # of connection points: 2
#     Edge 38, Type (0, 0), BuildingBlock: XIVTED_clean_linker_0, # of connection points: 2
#     Edge 39, Type (0, 0), BuildingBlock: XIVTED_clean_linker_0, # of connection points: 2
#     Edge 40, Type (0, 0), BuildingBlock: XIVTED_clean_linker_0, # of connection points: 2
#     Edge 41, Type (0, 0), BuildingBlock: XIVTED_clean_linker_0, # of connection points: 2
# Relax obj value: 0.521
# Max RMSD: 0.263
# Mean RMSD: 0.263
data_MOF--net-wjk--node1-XOMCOT_clean_sbu_1--edge1-XIVTED_clean_linker_0
_symmetry_space_group_name_H-M    P1
_symmetry_Int_Tables_number       1
_symmetry_cell_setting            triclinic
loop_
_symmetry_equiv_pos_as_xyz
'x, y, z'
_cell_length_a     33.435429
_cell_length_b     33.488905
_cell_length_c     72.667374
_cell_angle_alpha  90.0092268
_cell_angle_beta   90.127836
_cell_angle_gamma 119.82872
loop_
_atom_site_label
_atom_site_type_symbol
_atom_site_fract_x
_atom_site_fract_y
_atom_site_fract_z
_atom_type_partial_charge
C0 C 0.12397 0.20711 0.24197 0.0
C1 C 0.08298 0.1663 0.24089 0.0
N2 N 0.09249 0.13169 0.23998 0.0
N3 N 0.15911 0.19822 0.24171 0.0
C4 C 0.13889 0.152 0.24061 0.0
H5 H 0.12805 0.24121 0.24263 0.0
Co6 Co 0.22135 0.24204 0.24223 0.0
C7 C 0.25935 0.20244 0.21444 0.0
O8 O 0.2834 0.24272 0.20663 0.0
N9 N 0.28474 0.28769 0.24318 0.0
C10 C 0.35418 0.34698 0.23674 0.0
C11 C 0.31171 0.31662 0.22976 0.0
C12 C 0.31177 0.30302 0.25842 0.0
N13 N 0.35411 0.3382 0.25472 0.0
O14 O 0.22711 0.2185 0.26561 0.0
H15 H 0.30079 0.31823 0.21592 0.0
H16 H 0.30034 0.29076 0.27221 0.0
O17 O 0.23514 0.19836 0.22872 0.0
C18 C 0.20988 0.23194 0.27821 0.0
O19 O 0.19088 0.2566 0.27341 0.0
N20 N 0.2127 0.26699 0.2206 0.0
C21 C 0.17771 0.30191 0.19433 0.0
C22 C 0.17625 0.25975 0.19144 0.0
C23 C 0.19313 0.2424 0.20494 0.0
C24 C 0.21624 0.30896 0.22324 0.0
C25 C 0.19951 0.32739 0.21015 0.0
H26 H 0.18645 0.20753 0.20351 0.0
H27 H 0.22951 0.32687 0.23616 0.0
H28 H 0.15781 0.13357 0.24038 0.0
H29 H 0.04892 0.16255 0.24037 0.0
H30 H 0.38176 0.37582 0.22953 0.0
H31 H 0.15807 0.23816 0.17975 0.0
H32 H 0.20065 0.3597 0.213 0.0
C33 C 0.87681 0.0945 0.5872 0.0
C34 C 0.886 0.05901 0.58559 0.0
N35 N 0.93161 0.07703 0.58276 0.0
N36 N 0.9163 0.13483 0.58528 0.0
C37 C 0.94927 0.12321 0.5828 0.0
H38 H 0.84339 0.09127 0.58955 0.0
Co39 Co 0.91902 0.19167 0.5863 0.0
C40 C 0.98196 0.24149 0.55503 0.0
O41 O 0.95247 0.25417 0.54949 0.0
N42 N 0.92038 0.24832 0.58862 0.0
C43 C 0.89867 0.29777 0.59833 0.0
C44 C 0.88822 0.25261 0.59825 0.0
C45 C 0.95186 0.29217 0.58419 0.0
N46 N 0.93858 0.32259 0.58926 0.0
O47 O 0.95631 0.20716 0.60787 0.0
H48 H 0.85911 0.22461 0.60509 0.0
H49 H 0.98483 0.30235 0.57797 0.0
O50 O 0.97419 0.2184 0.57 0.0
C51 C 0.93105 0.18931 0.62198 0.0
O52 O 0.88651 0.16219 0.61952 0.0
N53 N 0.87892 0.1742 0.5657 0.0
C54 C 0.81567 0.14036 0.5368 0.0
C55 C 0.85803 0.14169 0.53544 0.0
C56 C 0.88842 0.15729 0.55021 0.0
C57 C 0.83705 0.17173 0.56744 0.0
C58 C 0.80487 0.15505 0.55309 0.0
H59 H 0.91914 0.15443 0.54933 0.0
H60 H 0.82704 0.18014 0.58026 0.0
H61 H 0.98533 0.14807 0.58085 0.0
H62 H 0.86101 0.02274 0.58669 0.0
H63 H 0.87808 0.31109 0.60436 0.0
H64 H 0.86641 0.12798 0.52347 0.0
H65 H 0.77137 0.15213 0.55493 0.0
C66 C 0.72482 0.84827 0.92069 0.0
C67 C 0.76831 0.85545 0.92442 0.0
N68 N 0.79891 0.90025 0.92148 0.0
N69 N 0.72806 0.88828 0.91533 0.0
C70 C 0.7735 0.91938 0.91613 0.0
H71 H 0.69293 0.81576 0.92134 0.0
Co72 Co 0.67955 0.89543 0.90691 0.0
C73 C 0.72522 0.99068 0.89266 0.0
O74 O 0.696 -0.00085 0.9015 0.0
N75 N 0.63046 0.90208 0.89823 0.0
C76 C 0.58346 0.91147 0.87931 0.0
C77 C 0.62139 0.90602 0.88039 0.0
C78 C 0.5977 0.90564 0.90774 0.0
N79 N 0.56875 0.91143 0.89652 0.0
O80 O 0.68441 0.9298 0.92849 0.0
H81 H 0.64192 0.90642 0.86885 0.0
H82 H 0.59557 0.90506 0.92259 0.0
O83 O 0.72231 0.95141 0.8941 0.0
C84 C 0.66691 0.90591 0.94292 0.0
O85 O 0.64557 0.8608 0.94162 0.0
N86 N 0.67419 0.85969 0.88648 0.0
C87 C 0.66053 0.80392 0.85627 0.0
C88 C 0.70069 0.84679 0.85786 0.0
C89 C 0.7073 0.8739 0.87324 0.0
C90 C 0.63539 0.81747 0.88546 0.0
C91 C 0.62789 0.78863 0.87038 0.0
H92 H 0.7393 0.906 0.87448 0.0
H93 H 0.61017 0.80638 0.89638 0.0
H94 H 0.78793 0.95503 0.91217 0.0
H95 H 0.77672 0.82959 0.92878 0.0
H96 H 0.56933 0.91758 0.8669 0.0
H97 H 0.72746 0.85862 0.8475 0.0
H98 H 0.59721 0.75501 0.86973 0.0
C99 C 0.83377 0.72253 0.22196 0.0
C100 C 0.87536 0.76297 0.22231 0.0
N101 N 0.86697 0.79806 0.22472 0.0
N102 N 0.79942 0.73224 0.22397 0.0
C103 C 0.82067 0.77838 0.22566 0.0
H104 H 0.82885 0.68819 0.22067 0.0
Co105 Co 0.73661 0.6908 0.22584 0.0
C106 C 0.69967 0.73409 0.19941 0.0
O107 O 0.67548 0.69508 0.19063 0.0
N108 N 0.67281 0.64822 0.22832 0.0
C109 C 0.59961 0.59374 0.22392 0.0
C110 C 0.64121 0.62127 0.21557 0.0
C111 C 0.64948 0.63458 0.24443 0.0
N112 N 0.60507 0.60242 0.24203 0.0
O113 O 0.73651 0.71642 0.24931 0.0
H114 H 0.64819 0.61873 0.20126 0.0
H115 H 0.66472 0.64604 0.25787 0.0
O116 O 0.72383 0.73602 0.21344 0.0
C117 C 0.75516 0.70364 0.26158 0.0
O118 O 0.77275 0.67788 0.25657 0.0
N119 N 0.73949 0.66365 0.20381 0.0
C120 C 0.77368 0.62709 0.17804 0.0
C121 C 0.77657 0.66985 0.17498 0.0
C122 C 0.75996 0.68797 0.18823 0.0
C123 C 0.73271 0.62032 0.20618 0.0
C124 C 0.74905 0.60107 0.19332 0.0
H125 H 0.76862 0.7235 0.18695 0.0
H126 H 0.71852 0.60237 0.21898 0.0
H127 H 0.80237 0.79705 0.22776 0.0
H128 H 0.90909 0.76607 0.22145 0.0
H129 H 0.56876 0.5668 0.21742 0.0
H130 H 0.79656 0.6917 0.16367 0.0
H131 H 0.74651 0.56816 0.19623 0.0
C132 C 0.13454 0.86218 0.58117 0.0
C133 C 0.12674 0.89802 0.58491 0.0
N134 N 0.09007 0.89198 0.57494 0.0
N135 N 0.1031 0.83373 0.56886 0.0
C136 C 0.07644 0.85269 0.56533 0.0
H137 H 0.16113 0.85682 0.58717 0.0
Co138 Co 0.0997 0.78 0.56014 0.0
C139 C 0.03699 0.75211 0.52761 0.0
O140 O 0.06335 0.73947 0.51896 0.0
N141 N 0.09661 0.72471 0.55165 0.0
C142 C 0.11322 0.67285 0.54023 0.0
C143 C 0.12662 0.71878 0.54111 0.0
C144 C 0.0647 0.68136 0.55656 0.0
N145 N 0.07451 0.64936 0.55016 0.0
O146 O 0.05885 0.74814 0.5799 0.0
H147 H 0.1571 0.7457 0.53462 0.0
H148 H 0.03515 0.67328 0.56506 0.0
O149 O 0.04773 0.76866 0.54392 0.0
C150 C 0.0795 0.73999 0.59289 0.0
O151 O 0.1215 0.7475 0.59011 0.0
N152 N 0.14434 0.81509 0.54291 0.0
C153 C 0.22368 0.88807 0.52824 0.0
C154 C 0.18019 0.87587 0.52088 0.0
C155 C 0.14063 0.83973 0.52872 0.0
C156 C 0.18651 0.82542 0.54965 0.0
C157 C 0.22671 0.86145 0.54238 0.0
H158 H 0.10758 0.83489 0.5245 0.0
H159 H 0.18861 0.80731 0.56161 0.0
H160 H 0.04771 0.83815 0.55584 0.0
H161 H 0.14595 0.92571 0.59457 0.0
H162 H 0.13193 0.65826 0.53354 0.0
H163 H 0.17651 0.8969 0.51043 0.0
H164 H 0.2596 0.87042 0.54861 0.0
C165 C 0.214 0.10283 0.93337 0.0
C166 C 0.16896 0.09162 0.93597 0.0
N167 N 0.14197 0.05475 0.92541 0.0
N168 N 0.2156 0.0734 0.92117 0.0
C169 C 0.17115 0.04425 0.9166 0.0
H170 H 0.24385 0.13068 0.94 0.0
Co171 Co 0.27039 0.07706 0.91391 0.0
C172 C 0.25087 0.02683 0.8783 0.0
O173 O 0.29133 0.05898 0.87239 0.0
N174 N 0.32684 0.08123 0.90728 0.0
C175 C 0.40134 0.10546 0.90294 0.0
C176 C 0.36866 0.11869 0.9043 0.0
C177 C 0.33522 0.04565 0.90743 0.0
N178 N 0.38021 0.05957 0.90501 0.0
O179 O 0.26084 0.03138 0.93179 0.0
H180 H 0.37619 0.15388 0.90382 0.0
H181 H 0.30917 0.0104 0.91024 0.0
O182 O 0.23788 0.02971 0.8946 0.0
C183 C 0.28243 0.05308 0.94626 0.0
O184 O 0.30703 0.09821 0.9455 0.0
N185 N 0.28066 0.12588 0.89854 0.0
C186 C 0.28794 0.20724 0.88532 0.0
C187 C 0.26069 0.16542 0.87605 0.0
C188 C 0.25658 0.12474 0.88316 0.0
C189 C 0.30737 0.16639 0.90755 0.0
C190 C 0.3122 0.20754 0.90103 0.0
H191 H 0.23131 0.09256 0.87712 0.0
H192 H 0.32318 0.16631 0.92054 0.0
H193 H 0.16038 0.01623 0.90689 0.0
H194 H 0.15702 0.10884 0.94519 0.0
H195 H 0.43801 0.12797 0.90103 0.0
H196 H 0.23979 0.1636 0.86432 0.0
H197 H 0.33276 0.23892 0.90878 0.0
C198 C 0.80379 0.84574 0.3933 0.0
C199 C 0.84868 0.87613 0.38855 0.0
N200 N 0.87575 0.88107 0.40312 0.0
N201 N 0.80274 0.83173 0.41077 0.0
C202 C 0.84702 0.85393 0.41642 0.0
H203 H 0.77374 0.83495 0.38467 0.0
Co204 Co 0.75021 0.792 0.42353 0.0
C205 C 0.78178 0.76079 0.4568 0.0
O206 O 0.74393 0.75077 0.46581 0.0
N207 N 0.69569 0.75149 0.43611 0.0
C208 C 0.63068 0.72197 0.45226 0.0
C209 C 0.6674 0.76173 0.44581 0.0
C210 C 0.67476 0.70504 0.43668 0.0
N211 N 0.63537 0.68646 0.44645 0.0
O212 O 0.74227 0.74443 0.40706 0.0
H213 H 0.67222 0.79569 0.44801 0.0
H214 H 0.68818 0.6851 0.43017 0.0
O215 O 0.78771 0.7772 0.44046 0.0
C216 C 0.71215 0.73878 0.39499 0.0
O217 O 0.68701 0.7584 0.39778 0.0
N218 N 0.75667 0.84117 0.43752 0.0
C219 C 0.74605 0.90983 0.45413 0.0
C220 C 0.76821 0.88952 0.46349 0.0
C221 C 0.77385 0.85545 0.4548 0.0
C222 C 0.73786 0.8627 0.42786 0.0
C223 C 0.73212 0.89716 0.43591 0.0
H224 H 0.7911 0.84052 0.46216 0.0
H225 H 0.72505 0.8512 0.41407 0.0
H226 H 0.85787 0.85151 0.43021 0.0
H227 H 0.86042 0.89331 0.37543 0.0
H228 H 0.6019 0.71925 0.46008 0.0
H229 H 0.78081 0.89974 0.47742 0.0
H230 H 0.71526 0.91235 0.42821 0.0
C231 C 0.00285 0.83655 0.72202 0.0
C232 C 0.01929 0.8827 0.7191 0.0
N233 N 0.03179 0.90434 0.7355 0.0
N234 N 0.00512 0.82934 0.74014 0.0
C235 C 0.02291 0.87122 0.748 0.0
H236 H 0.9882 0.80968 0.71172 0.0
Co237 Co 0.98097 0.7727 0.75138 0.0
C238 C 0.03558 0.78948 0.78695 0.0
O239 O 0.00798 0.74772 0.79305 0.0
N240 N 0.95468 0.71369 0.76231 0.0
C241 C 0.90252 0.64524 0.7732 0.0
C242 C 0.91094 0.68823 0.76851 0.0
C243 C 0.97179 0.6846 0.76317 0.0
N244 N 0.94062 0.64267 0.76964 0.0
O245 O 0.02112 0.76048 0.73669 0.0
H246 H 0.88541 0.6989 0.769 0.0
H247 H 0.0059 0.69351 0.75847 0.0
O248 O 0.02812 0.8016 0.77115 0.0
C249 C -0.00107 0.73183 0.72386 0.0
O250 O 0.95367 0.71093 0.72389 0.0
N251 N 0.93898 0.7842 0.76362 0.0
C252 C 0.85756 0.77433 0.77756 0.0
C253 C 0.89493 0.78494 0.7893 0.0
C254 C 0.9358 0.79016 0.78202 0.0
C255 C 0.90454 0.77811 0.75187 0.0
C256 C 0.86336 0.77315 0.75856 0.0
H257 H 0.963 0.79573 0.79137 0.0
H258 H 0.90768 0.77324 0.73734 0.0
H259 H 0.02632 0.87685 0.76273 0.0
H260 H 0.0205 0.89881 0.70605 0.0
H261 H 0.87029 0.61776 0.77846 0.0
H262 H 0.89188 0.78727 0.80405 0.0
H263 H 0.83532 0.76526 0.74908 0.0
C264 C 0.10212 0.85232 0.0837 0.0
C265 C 0.06721 0.86235 0.08158 0.0
N266 N 0.07783 0.90035 0.0915 0.0
N267 N 0.13457 0.88359 0.09501 0.0
C268 C 0.11903 0.91275 0.09944 0.0
H269 H 0.1035 0.82358 0.0776 0.0
Co270 Co 0.18608 0.88022 0.10264 0.0
C271 C 0.21784 0.9352 0.13708 0.0
O272 O 0.22548 0.90377 0.14444 0.0
N273 N 0.23874 0.87642 0.11 0.0
C274 C 0.28672 0.85317 0.12021 0.0
C275 C 0.24139 0.84125 0.11794 0.0
C276 C 0.28341 0.90947 0.10776 0.0
N277 N 0.31327 0.89607 0.11372 0.0
O278 O 0.22133 0.92368 0.08409 0.0
H279 H 0.21274 0.80877 0.12215 0.0
H280 H 0.29388 0.94262 0.1016 0.0
O281 O 0.20191 0.92977 0.12067 0.0
C282 C 0.21994 0.90147 0.06962 0.0
O283 O 0.19987 0.85638 0.07062 0.0
N284 N 0.14793 0.83358 0.11879 0.0
C285 C 0.07337 0.75476 0.1331 0.0
C286 C 0.0885 0.79778 0.14142 0.0
C287 C 0.12526 0.83714 0.13375 0.0
C288 C 0.13384 0.79185 0.11075 0.0
C289 C 0.09701 0.7519 0.1178 0.0
H290 H 0.13253 0.87022 0.13895 0.0
H291 H 0.15013 0.79001 0.09819 0.0
H292 H 0.13682 0.94176 0.10867 0.0
H293 H 0.03648 0.84329 0.07328 0.0
H294 H 0.29904 0.83188 0.12639 0.0
H295 H 0.06965 0.80147 0.15279 0.0
H296 H 0.08567 0.71944 0.11079 0.0
C297 C 0.26978 0.15367 0.44044 0.0
C298 C 0.23665 0.11135 0.43387 0.0
N299 N 0.19877 0.11403 0.42975 0.0
N300 N 0.25227 0.1823 0.44073 0.0
C301 C 0.20918 0.15727 0.43403 0.0
H302 H 0.30431 0.16292 0.44473 0.0
Co303 Co 0.28045 0.24336 0.44793 0.0
C304 C 0.19826 0.25088 0.457 0.0
O305 O 0.20835 0.28038 0.44347 0.0
N306 N 0.30891 0.30432 0.45532 0.0
C307 C 0.33315 0.36594 0.4731 0.0
C308 C 0.2996 0.32105 0.47063 0.0
C309 C 0.34858 0.33946 0.44884 0.0
N310 N 0.36428 0.37735 0.45952 0.0
O311 O 0.26332 0.25773 0.42477 0.0
H312 H 0.272 0.30122 0.48018 0.0
H313 H 0.36727 0.33616 0.43735 0.0
O314 O 0.2233 0.2325 0.45971 0.0
C315 C 0.29043 0.25896 0.41218 0.0
O316 O 0.3269 0.2563 0.41711 0.0
N317 N 0.30061 0.22902 0.46937 0.0
C318 C 0.33565 0.19069 0.49384 0.0
C319 C 0.28981 0.18099 0.49532 0.0
C320 C 0.27265 0.20014 0.48273 0.0
C321 C 0.34632 0.24244 0.46891 0.0
C322 C 0.36467 0.22351 0.48104 0.0
H323 H 0.23619 0.1882 0.4827 0.0
H324 H 0.36762 0.26456 0.45794 0.0
H325 H 0.18564 0.17045 0.43249 0.0
H326 H 0.24025 0.0812 0.43207 0.0
H327 H 0.33532 0.38783 0.48446 0.0
H328 H 0.26609 0.15498 0.50477 0.0
H329 H 0.40006 0.23143 0.47941 0.0
C330 C 0.11055 0.27956 0.78589 0.0
C331 C 0.12279 0.24765 0.78062 0.0
N332 N 0.08409 0.20865 0.77597 0.0
N333 N 0.06431 0.26035 0.78481 0.0
C334 C 0.04919 0.21725 0.77862 0.0
H335 H 0.13399 0.31473 0.78994 0.0
Co336 Co 0.02965 0.2884 0.78944 0.0
C337 C 0.9382 0.20945 0.7973 0.0
O338 O 0.92086 0.22292 0.78404 0.0
N339 N -0.00406 0.31714 0.7941 0.0
C340 C 0.95317 0.34238 0.80751 0.0
C341 C 0.96872 0.31149 0.80871 0.0
C342 C -0.00256 0.35219 0.78449 0.0
N343 N 0.97151 0.368 0.79232 0.0
O344 O 0.0018 0.26918 0.76575 0.0
H345 H 0.96189 0.28757 0.81986 0.0
H346 H 0.01794 0.36646 0.77221 0.0
O347 O 0.98145 0.23191 0.80055 0.0
C348 C 0.02691 0.2916 0.75215 0.0
O349 O 0.06783 0.32728 0.75541 0.0
N350 N 0.05962 0.30957 0.81182 0.0
C351 C 0.12712 0.34332 0.83882 0.0
C352 C 0.08892 0.2988 0.84024 0.0
C353 C 0.05563 0.28223 0.82641 0.0
C354 C 0.09341 0.35458 0.81136 0.0
C355 C 0.12798 0.37221 0.82472 0.0
H356 H 0.02939 0.24638 0.82671 0.0
H357 H 0.09609 0.37545 0.79956 0.0
H358 H 0.01325 0.19275 0.77601 0.0
H359 H 0.15748 0.25309 0.77977 0.0
H360 H 0.93183 0.34711 0.81746 0.0
H361 H 0.08742 0.27518 0.85077 0.0
H362 H 0.15707 0.40664 0.82316 0.0
C363 C 0.86226 0.09958 0.07931 0.0
C364 C 0.89705 0.0893 0.0774 0.0
N365 N 0.88841 0.05416 0.08877 0.0
N366 N 0.83184 0.07126 0.09189 0.0
C367 C 0.84853 0.0437 0.09736 0.0
H368 H 0.85965 0.12661 0.07224 0.0
Co369 Co 0.78181 0.07669 0.09975 0.0
C370 C 0.74511 0.01635 0.13276 0.0
O371 O 0.73673 0.04633 0.14102 0.0
N372 N 0.73097 0.08281 0.10725 0.0
C373 C 0.68504 0.10958 0.1162 0.0
C374 C 0.72995 0.12028 0.11356 0.0
C375 C 0.68599 0.04986 0.10618 0.0
N376 N 0.65729 0.06524 0.11149 0.0
O377 O 0.74519 0.03504 0.08093 0.0
H378 H 0.75949 0.15372 0.11601 0.0
H379 H 0.67451 0.01537 0.10122 0.0
O380 O 0.76339 0.02511 0.11675 0.0
C381 C 0.74391 0.0562 0.06659 0.0
O382 O 0.7641 0.10135 0.06713 0.0
N383 N 0.82091 0.12094 0.11664 0.0
C384 C 0.89469 0.19564 0.13372 0.0
C385 C 0.87529 0.15152 0.14144 0.0
C386 C 0.83911 0.11426 0.1324 0.0
C387 C 0.8394 0.16373 0.10906 0.0
C388 C 0.87614 0.20169 0.11743 0.0
H389 H 0.82857 0.08026 0.13746 0.0
H390 H 0.82653 0.16795 0.09595 0.0
H391 H 0.83268 0.01745 0.10783 0.0
H392 H 0.92637 0.10629 0.06828 0.0
H393 H 0.67385 0.13282 0.12125 0.0
H394 H 0.89028 0.14534 0.15358 0.0
H395 H 0.89103 0.23509 0.11086 0.0
H396 H 0.52158 0.59214 0.24837 0.0
H397 H 0.43635 0.34655 0.26223 0.0
H398 H 0.61586 0.54762 0.26614 0.0
H399 H 0.34884 0.40313 0.27433 0.0
H400 H 0.50342 0.41891 0.27176 0.0
H401 H 0.45951 0.52794 0.26507 0.0
C402 C 0.52925 0.5695 0.2564 0.0
C403 C 0.57314 0.57427 0.25583 0.0
C404 C 0.46945 0.41508 0.2732 0.0
C405 C 0.50266 0.49995 0.27422 0.0
C406 C 0.43128 0.37365 0.26785 0.0
C407 C 0.38766 0.36963 0.26738 0.0
C408 C 0.46368 0.45297 0.27725 0.0
C409 C 0.38234 0.40551 0.2745 0.0
C410 C 0.49405 0.53295 0.26597 0.0
C411 C 0.58202 0.54444 0.26629 0.0
N412 N 0.42019 0.44649 0.27855 0.0
N413 N 0.54663 0.50745 0.27462 0.0
H414 H 0.07427 0.57992 0.5308 0.0
H415 H 0.93329 0.39039 0.6077 0.0
H416 H 0.02525 0.6091 0.58112 0.0
H417 H 0.99228 0.36436 0.55957 0.0
H418 H 0.96511 0.47028 0.59788 0.0
H419 H 0.0422 0.50008 0.54064 0.0
C420 C 0.0567 0.56956 0.54389 0.0
C421 C 0.05253 0.60139 0.55512 0.0
C422 C 0.97126 0.44713 0.58951 0.0
C423 C 0.01558 0.50992 0.5665 0.0
C424 C 0.95301 0.40148 0.5951 0.0
C425 C 0.96011 0.37059 0.58445 0.0
C426 C -0.00341 0.46198 0.57309 0.0
C427 C 0.98643 0.38705 0.56834 0.0
C428 C 0.03833 0.52394 0.5495 0.0
C429 C 0.02879 0.58578 0.57186 0.0
N430 N 0.00351 0.43154 0.56311 0.0
N431 N 0.01136 0.54122 0.57705 0.0
H432 H 0.34788 0.97312 0.89207 0.0
H433 H 0.57179 0.96446 0.92516 0.0
H434 H 0.46174 0.08332 0.92118 0.0
H435 H 0.48839 0.88629 0.87899 0.0
H436 H 0.51956 0.99497 0.93017 0.0
H437 H 0.38813 0.92848 0.89312 0.0
C438 C 0.38113 0.98759 0.89881 0.0
C439 C 0.402 0.03204 0.9063 0.0
C440 C 0.51235 0.9706 0.91911 0.0
C441 C 0.44759 0.98146 0.9078 0.0
C442 C 0.54185 0.95292 0.91637 0.0
C443 C 0.53445 0.92325 0.90154 0.0
C444 C 0.47508 0.95807 0.90705 0.0
C445 C 0.49544 0.90964 0.89041 0.0
C446 C 0.40403 0.96231 0.89939 0.0
C447 C 0.44504 0.0495 0.91493 0.0
N448 N 0.46728 0.92741 0.8933 0.0
N449 N 0.46649 0.02418 0.91543 0.0
H450 H 0.61157 0.61738 0.42189 0.0
H451 H 0.41383 0.43454 0.48739 0.0
H452 H 0.58456 0.64719 0.47669 0.0
H453 H 0.41487 0.41545 0.42866 0.0
H454 H 0.4854 0.50725 0.48478 0.0
H455 H 0.54887 0.53759 0.42542 0.0
C456 C 0.59289 0.60681 0.43476 0.0
C457 C 0.6027 0.63867 0.44899 0.0
C458 C 0.47004 0.48715 0.47245 0.0
C459 C 0.53142 0.54832 0.45307 0.0
C460 C 0.42892 0.44575 0.4739 0.0
C461 C 0.40777 0.41928 0.45814 0.0
C462 C 0.49039 0.50234 0.45514 0.0
C463 C 0.42995 0.43487 0.44113 0.0
C464 C 0.55703 0.56155 0.43671 0.0
C465 C 0.57744 0.62366 0.46533 0.0
N466 N 0.47001 0.47567 0.44004 0.0
N467 N 0.54281 0.57956 0.46691 0.0
H468 H 0.87163 0.5536 0.76986 0.0
H469 H 0.03768 0.44737 0.77718 0.0
H470 H 0.0199 0.63874 0.77235 0.0
H471 H 0.89599 0.37683 0.79495 0.0
H472 H 0.03077 0.5152 0.76974 0.0
H473 H 0.87936 0.48581 0.77364 0.0
C474 C 0.90588 0.55826 0.77134 0.0
C475 C 0.94518 0.60226 0.77111 0.0
C476 C 0.00121 0.48475 0.77519 0.0
C477 C 0.95414 0.52421 0.77501 0.0
C478 C 0.00501 0.44607 0.77928 0.0
C479 C 0.96731 0.40676 0.78672 0.0
C480 C 0.95925 0.48357 0.77833 0.0
C481 C 0.92588 0.40677 0.78942 0.0
C482 C 0.91021 0.51935 0.77336 0.0
C483 C 0.98867 0.60561 0.77242 0.0
N484 N 0.92291 0.44462 0.7852 0.0
N485 N 0.99202 0.56701 0.77438 0.0
H486 H 0.36957 0.98912 0.11251 0.0
H487 H 0.60059 0.97249 0.11363 0.0
H488 H 0.37115 0.86102 0.11312 0.0
H489 H 0.59968 0.10063 0.10948 0.0
H490 H 0.51643 0.93114 0.11369 0.0
H491 H 0.45383 0.0308 0.11157 0.0
C492 C 0.3875 0.9697 0.11235 0.0
C493 C 0.36301 0.92139 0.11298 0.0
C494 C 0.53466 0.96833 0.11277 0.0
C495 C 0.45965 0.96896 0.11208 0.0
C496 C 0.58281 0.99199 0.11264 0.0
C497 C 0.6075 0.04023 0.11157 0.0
C498 C 0.51085 0.993 0.11183 0.0
C499 C 0.58233 0.06356 0.1106 0.0
C500 C 0.43568 0.99355 0.11191 0.0
C501 C 0.38836 0.89819 0.11297 0.0
N502 N 0.53548 0.03975 0.11075 0.0
N503 N 0.43516 0.92215 0.11255 0.0
H504 H 0.34048 0.25687 0.38303 0.0
H505 H 0.16006 0.2371 0.3066 0.0
H506 H 0.21213 0.25169 0.3962 0.0
H507 H 0.27549 0.21731 0.29499 0.0
H508 H 0.17806 0.24208 0.33935 0.0
H509 H 0.31802 0.2444 0.35073 0.0
C510 C 0.30762 0.25344 0.37914 0.0
C511 C 0.2782 0.25552 0.39241 0.0
C512 C 0.19922 0.23617 0.3297 0.0
C513 C 0.2521 0.24078 0.35525 0.0
C514 C 0.18892 0.23319 0.31098 0.0
C515 C 0.21648 0.22698 0.29803 0.0
C516 C 0.23779 0.23349 0.33558 0.0
C517 C 0.25327 0.22196 0.3045 0.0
C518 C 0.29472 0.24598 0.36065 0.0
C519 C 0.23604 0.25064 0.38646 0.0
N520 N 0.2632 0.22588 0.32283 0.0
N521 N 0.22428 0.24355 0.3683 0.0
H522 H 0.01584 0.25921 0.6334 0.0
H523 H 0.94761 0.21565 0.74029 0.0
H524 H 0.8871 0.14838 0.65377 0.0
H525 H 0.07408 0.33085 0.72046 0.0
H526 H 0.92658 0.18864 0.7086 0.0
H527 H 0.04044 0.28349 0.66526 0.0
C528 C 0.99302 0.23969 0.64456 0.0
C529 C 0.94928 0.20189 0.64093 0.0
C530 C 0.95893 0.21987 0.71117 0.0
C531 C 0.97686 0.22961 0.6773 0.0
C532 C 0.97085 0.23539 0.72927 0.0
C533 C 0.01256 0.27568 0.73303 0.0
C534 C 0.98893 0.24478 0.69671 0.0
C535 C 0.04149 0.29968 0.7182 0.0
C536 C 0.00692 0.25369 0.66273 0.0
C537 C 0.92099 0.17795 0.6559 0.0
N538 N 0.02914 0.28388 0.7007 0.0
N539 N 0.93517 0.19231 0.67338 0.0
H540 H 0.70314 0.96342 0.05945 0.0
H541 H 0.70364 -0.00226 0.95063 0.0
H542 H 0.74179 0.0937 0.03358 0.0
H543 H 0.6431 0.86429 0.97656 0.0
H544 H 0.71661 0.03338 0.98105 0.0
H545 H 0.67905 0.92583 0.02935 0.0
C546 C 0.70615 0.98403 0.04749 0.0
C547 C 0.72481 0.0318 0.04901 0.0
C548 C 0.70019 -0.00374 0.98008 0.0
C549 C 0.69779 0.98922 0.01457 0.0
C550 C 0.69286 0.97593 0.96271 0.0
C551 C 0.6725 0.92802 0.96106 0.0
C552 C 0.68743 0.9685 0.99591 0.0
C553 C 0.65903 0.9014 0.97718 0.0
C554 C 0.69245 0.9626 0.03031 0.0
C555 C 0.72786 0.05682 0.03306 0.0
N556 N 0.66706 0.92202 0.99394 0.0
N557 N 0.71488 0.03531 0.01651 0.0
H558 H 0.64931 0.71823 0.36765 0.0
H559 H 0.80414 0.69497 0.28969 0.0
H560 H 0.77889 0.72442 0.37943 0.0
H561 H 0.69603 0.72652 0.27853 0.0
H562 H 0.79116 0.69716 0.32265 0.0
H563 H 0.65987 0.70913 0.33506 0.0
C564 C 0.67965 0.71684 0.36342 0.0
C565 C 0.71349 0.72249 0.37626 0.0
C566 C 0.77045 0.70383 0.313 0.0
C567 C 0.72606 0.71278 0.3389 0.0
C568 C 0.7779 0.70275 0.29419 0.0
C569 C 0.75111 0.71063 0.28137 0.0
C570 C 0.73557 0.71229 0.31904 0.0
C571 C 0.71765 0.72056 0.28795 0.0
C572 C 0.68581 0.71207 0.34478 0.0
C573 C 0.75192 0.72012 0.37 0.0
N574 N 0.71059 0.72078 0.30636 0.0
N575 N 0.75739 0.71585 0.35169 0.0
H576 H 0.04525 0.78673 0.61138 0.0
H577 H 0.98235 0.65596 0.7044 0.0
H578 H 0.07798 0.67812 0.6175 0.0
H579 H 0.06294 0.80411 0.70396 0.0
H580 H 0.00238 0.65484 0.67192 0.0
H581 H 0.03229 0.78453 0.64477 0.0
C582 C 0.04832 0.76154 0.61971 0.0
C583 C 0.06203 0.73211 0.61181 0.0
C584 C 0.01636 0.68743 0.67911 0.0
C585 C 0.0479 0.72982 0.64965 0.0
C586 C 0.00539 0.68811 0.69758 0.0
C587 C 0.02151 0.73017 0.70681 0.0
C588 C 0.04194 0.72916 0.66974 0.0
C589 C 0.05038 0.771 0.69735 0.0
C590 C 0.04177 0.76087 0.63869 0.0
C591 C 0.06696 0.70096 0.62318 0.0
N592 N 0.05879 0.76958 0.67913 0.0
N593 N 0.05948 0.70028 0.6416 0.0
H594 H 0.32027 0.0937 0.97901 0.0
H595 H 0.21088 0.86011 0.03638 0.0
H596 H 0.23458 0.96019 0.95432 0.0
H597 H 0.26284 0.99394 0.0614 0.0
H598 H 0.22944 0.89616 0.00613 0.0
H599 H 0.30944 0.05728 0.00892 0.0
C600 C 0.29932 0.05659 0.97982 0.0
C601 C 0.27802 0.02993 0.96408 0.0
C602 C 0.23697 0.91766 0.01823 0.0
C603 C 0.26559 0.98803 0.9985 0.0
C604 C 0.22659 0.8972 0.03556 0.0
C605 C 0.23513 0.92408 0.0515 0.0
C606 C 0.25642 0.96546 0.01676 0.0
C607 C 0.25555 0.97191 0.0495 0.0
C608 C 0.29309 0.03589 0.99698 0.0
C609 C 0.25147 0.98204 0.96608 0.0
N610 N 0.26544 0.99109 0.03242 0.0
N611 N 0.24592 0.96257 0.98302 0.0
H612 H 0.00377 0.08643 0.25157 0.0
H613 H 0.95486 0.84328 0.21184 0.0
H614 H 0.10672 0.06639 0.22405 0.0
H615 H 0.85559 0.86315 0.24246 0.0
H616 H 0.01089 0.92495 0.21577 0.0
H617 H 0.94855 0.00473 0.24772 0.0
C618 C 0.01473 0.06488 0.24466 0.0
C619 C 0.05994 0.08332 0.23812 0.0
C620 C 0.9768 0.91137 0.22161 0.0
C621 C -0.00304 0.98955 0.23377 0.0
C622 C 0.94485 0.86469 0.21944 0.0
C623 C 0.90032 0.8462 0.22678 0.0
C624 C 0.96416 0.93981 0.2312 0.0
C625 C 0.88915 0.87584 0.2363 0.0
C626 C 0.98324 0.01815 0.24255 0.0
C627 C 0.07241 0.05357 0.22951 0.0
N628 N 0.92083 0.9211 0.23822 0.0
N629 N 0.04104 0.00816 0.22754 0.0
H630 H 0.89647 0.99029 0.56942 0.0
H631 H 0.12981 0.98257 0.58436 0.0
H632 H 0.02186 0.10555 0.59016 0.0
H633 H 0.00163 0.86697 0.56582 0.0
H634 H 0.09245 0.02938 0.58539 0.0
H635 H 0.93604 0.94614 0.56668 0.0
C636 C 0.93232 0.00633 0.57349 0.0
C637 C 0.95566 0.05164 0.58024 0.0
C638 C 0.07258 0.9938 0.58104 0.0
C639 C 0.00158 0.00114 0.57694 0.0
C640 C 0.09383 0.96691 0.58055 0.0
C641 C 0.0689 0.92053 0.57505 0.0
C642 C 0.02598 0.97427 0.57603 0.0
C643 C 0.02251 0.90254 0.56995 0.0
C644 C 0.95502 0.98111 0.57181 0.0
C645 C 0.00251 0.07086 0.58483 0.0
N646 N 0.00261 0.92936 0.57063 0.0
N647 N 0.02387 0.04542 0.58319 0.0
H648 H 0.08332 0.9649 0.91687 0.0
H649 H 0.85879 0.99066 0.92796 0.0
H650 H 0.08713 0.09192 0.93094 0.0
H651 H 0.85264 0.86104 0.9171 0.0
H652 H 0.94273 0.02845 0.92833 0.0
H653 H -0.001 0.92636 0.91582 0.0
C654 C 0.06649 0.98475 0.91962 0.0
C655 C 0.09239 0.03169 0.9241 0.0
C656 C 0.92307 0.99171 0.9259 0.0
C657 C -0.00404 0.98778 0.92308 0.0
C658 C 0.87506 0.97013 0.92561 0.0
C659 C 0.84851 0.92257 0.92246 0.0
C660 C 0.9449 0.96566 0.92297 0.0
C661 C 0.87162 0.89764 0.91978 0.0
C662 C 0.01835 0.96268 0.91914 0.0
C663 C 0.06865 0.05557 0.92773 0.0
N664 N 0.91848 0.9195 0.92004 0.0
N665 N 0.02189 0.03339 0.92714 0.0
H666 H 0.93553 0.869 0.42441 0.0
H667 H 0.14076 0.12353 0.40662 0.0
H668 H 0.92759 0.9621 0.3855 0.0
H669 H 0.15768 0.02301 0.43753 0.0
H670 H 0.06333 0.06371 0.39779 0.0
H671 H 0.0176 0.92366 0.4287 0.0
C672 C 0.95112 0.90091 0.41674 0.0
C673 C 0.92467 0.91127 0.40471 0.0
C674 C 0.08406 0.05454 0.40636 0.0
C675 C 0.01842 0.97381 0.40947 0.0
C676 C 0.12811 0.08872 0.41147 0.0
C677 C 0.15527 0.07815 0.42297 0.0
C678 C 0.06682 0.00956 0.41299 0.0
C679 C 0.13775 0.03242 0.42861 0.0
C680 C -0.002 0.93193 0.41908 0.0
C681 C 0.94673 0.95267 0.39484 0.0
N682 N 0.09431 -0.00017 0.42375 0.0
N683 N 0.99224 0.98265 0.39758 0.0
H684 H 0.00546 0.95778 0.71707 0.0
H685 H 0.13761 0.17209 0.78515 0.0
H686 H 0.08752 0.95779 0.76296 0.0
H687 H 0.02312 0.15055 0.75086 0.0
H688 H 0.12978 0.09967 0.77368 0.0
H689 H 0.02249 0.03522 0.72566 0.0
C690 C 0.02764 0.97438 0.72879 0.0
C691 C 0.04497 0.95136 0.73939 0.0
C692 C 0.10648 0.11091 0.76866 0.0
C693 C 0.06419 0.0396 0.74938 0.0
C694 C 0.11107 0.15222 0.77512 0.0
C695 C 0.08071 0.16695 0.76903 0.0
C696 C 0.07168 0.08462 0.75585 0.0
C697 C 0.04669 0.13992 0.75611 0.0
C698 C 0.037 0.01837 0.73378 0.0
C699 C 0.07305 0.97423 0.75459 0.0
N700 N 0.0431 0.10003 0.74992 0.0
N701 N 0.08175 0.01714 0.75917 0.0
H702 H 0.98141 0.09515 0.08604 0.0
H703 H 0.98463 0.85911 0.0911 0.0
H704 H 0.85977 0.96485 0.09708 0.0
H705 H 0.10786 0.99157 0.09584 0.0
H706 H 0.93821 0.89696 0.09218 0.0
H707 H 0.02829 0.05793 0.08848 0.0
C708 C 0.96457 0.05866 0.08897 0.0
C709 C 0.91654 0.03298 0.09122 0.0
C710 C 0.97538 0.91778 0.0931 0.0
C711 C 0.97004 0.99007 0.09403 0.0
C712 C 0.00192 0.89621 0.09237 0.0
C713 C 0.05022 0.92227 0.09324 0.0
C714 C -0.00276 0.96592 0.09447 0.0
C715 C 0.07075 0.97019 0.09519 0.0
C716 C 0.99139 0.0375 0.09048 0.0
C717 C 0.89666 0.98595 0.09531 0.0
N718 N 0.04418 0.99053 0.09555 0.0
N719 N 0.92342 0.96591 0.0964 0.0
H720 H 0.91359 0.22682 0.16913 0.0
H721 H 0.16871 0.29969 0.15673 0.0
H722 H 0.97478 0.24829 0.11528 0.0
H723 H 0.11732 0.32809 0.20655 0.0
H724 H 0.10278 0.29447 0.13998 0.0
H725 H 0.9901 0.27618 0.18229 0.0
C726 C 0.94316 0.24292 0.16007 0.0
C727 C 0.93824 0.23318 0.1412 0.0
C728 C 0.10668 0.30332 0.15446 0.0
C729 C 0.02572 0.28857 0.15607 0.0
C730 C 0.14429 0.30623 0.164 0.0
C731 C 0.14789 0.31336 0.18308 0.0
C732 C 0.07209 0.30645 0.16422 0.0
C733 C 0.11571 0.3222 0.19185 0.0
C734 C 0.98678 0.27121 0.16752 0.0
C735 C 0.97735 0.25496 0.12994 0.0
N736 N 0.07843 0.31724 0.18244 0.0
N737 N 0.01972 0.28077 0.13761 0.0
H738 H 0.73147 0.06456 0.54109 0.0
H739 H 0.76254 0.99327 0.44111 0.0
H740 H 0.82245 0.15838 0.50002 0.0
H741 H 0.70837 0.90294 0.48797 0.0
H742 H 0.75599 0.05267 0.45833 0.0
H743 H 0.69244 0.0065 0.51716 0.0
C744 C 0.7417 0.07367 0.52688 0.0
C745 C 0.78086 0.11559 0.52246 0.0
C746 C 0.7446 0.01947 0.46467 0.0
C747 C 0.73767 0.04939 0.49532 0.0
C748 C 0.74851 0.98573 0.45491 0.0
C749 C 0.73725 0.94385 0.46341 0.0
C750 C 0.72925 0.01103 0.48297 0.0
C751 C 0.71878 0.93545 0.48119 0.0
C752 C 0.71979 0.04039 0.51327 0.0
C753 C 0.79288 0.12588 0.50391 0.0
N754 N 0.71595 0.96903 0.4905 0.0
N755 N 0.77216 0.09243 0.49101 0.0
H756 H 0.81248 0.71394 0.80524 0.0
H757 H 0.65386 0.81917 0.82002 0.0
H758 H 0.79833 0.80408 0.76671 0.0
H759 H 0.66288 0.72428 0.85744 0.0
H760 H 0.68444 0.79234 0.79549 0.0
H761 H 0.74044 0.6983 0.81979 0.0
C762 C 0.79399 0.73032 0.79984 0.0
C763 C 0.81195 0.76155 0.78521 0.0
C764 C 0.67825 0.77608 0.80886 0.0
C765 C 0.7295 0.74372 0.80165 0.0
C766 C 0.66031 0.79107 0.82278 0.0
C767 C 0.65698 0.77444 0.84071 0.0
C768 C 0.694 0.74536 0.81321 0.0
C769 C 0.66561 0.73818 0.84375 0.0
C770 C 0.75259 0.72095 0.80798 0.0
C771 C 0.78596 0.78049 0.77822 0.0
N772 N 0.68522 0.72577 0.83024 0.0
N773 N 0.74645 0.77203 0.78677 0.0
H774 H 0.04433 0.71994 0.1676 0.0
H775 H 0.7929 0.63256 0.14107 0.0
H776 H 0.00111 0.70032 0.11078 0.0
H777 H 0.83098 0.6007 0.19352 0.0
H778 H 0.86521 0.64377 0.12816 0.0
H779 H 0.96527 0.66484 0.17661 0.0
C780 C 0.01828 0.70316 0.15703 0.0
C781 C 0.02887 0.71494 0.1385 0.0
C782 C 0.85702 0.63274 0.14234 0.0
C783 C 0.93848 0.65281 0.1486 0.0
C784 C 0.8157 0.62628 0.14967 0.0
C785 C 0.80646 0.61674 0.16846 0.0
C786 C 0.88949 0.63066 0.15403 0.0
C787 C 0.83686 0.60845 0.17899 0.0
C788 C 0.97325 0.67155 0.16212 0.0
C789 C 0.99416 0.69213 0.12525 0.0
N790 N 0.87771 0.61697 0.17177 0.0
N791 N 0.95018 0.66294 0.13059 0.0
H792 H 0.25699 0.92489 0.49429 0.0
H793 H 0.32614 0.16191 0.52967 0.0
H794 H 0.27968 0.95455 0.55235 0.0
H795 H 0.37164 0.14428 0.47634 0.0
H796 H 0.32129 0.08996 0.5397 0.0
H797 H 0.3097 0.00627 0.48775 0.0
C798 C 0.27416 0.9484 0.50561 0.0
C799 C 0.26368 0.93334 0.52384 0.0
C800 C 0.334 0.10267 0.52602 0.0
C801 C 0.32282 0.0262 0.5166 0.0
C802 C 0.33678 0.14373 0.52033 0.0
C803 C 0.34854 0.15846 0.50211 0.0
C804 C 0.34163 0.07578 0.51317 0.0
C805 C 0.36215 0.13388 0.4905 0.0
C806 C 0.30436 0.99475 0.50192 0.0
C807 C 0.28685 0.96493 0.53808 0.0
N808 N 0.3569 0.09287 0.49604 0.0
N809 N 0.3144 0.01021 0.53418 0.0
H810 H 0.272 0.26185 0.90839 0.0
H811 H 0.21182 0.37262 0.82426 0.0
H812 H 0.29569 0.24544 0.85125 0.0
H813 H 0.13828 0.33491 0.87577 0.0
H814 H 0.27122 0.3598 0.83792 0.0
H815 H 0.25159 0.31991 0.8996 0.0
C816 C 0.27429 0.27151 0.89404 0.0
C817 C 0.28487 0.24843 0.88044 0.0
C818 C 0.24296 0.35602 0.84642 0.0
C819 C 0.26157 0.31456 0.87041 0.0
C820 C 0.20927 0.36379 0.83872 0.0
C821 C 0.16969 0.35386 0.84885 0.0
C822 C 0.2369 0.33842 0.86433 0.0
C823 C 0.16796 0.34212 0.86746 0.0
C824 C 0.26254 0.30453 0.88907 0.0
C825 C 0.28693 0.26195 0.86207 0.0
N826 N 0.20065 0.3337 0.87452 0.0
N827 N 0.27474 0.29379 0.85755 0.0
H828 H 0.21877 0.1115 0.22587 0.0
H829 H 0.22506 0.01662 0.12574 0.0
H830 H 0.28609 0.19978 0.17935 0.0
H831 H 0.22192 0.94216 0.17468 0.0
H832 H 0.23444 0.08062 0.14516 0.0
H833 H 0.2075 0.04504 0.20726 0.0
C834 C 0.23134 0.11699 0.21185 0.0
C835 C 0.25368 0.16142 0.20425 0.0
C836 C 0.2317 0.05023 0.15162 0.0
C837 C 0.23999 0.08578 0.18288 0.0
C838 C 0.22625 0.01369 0.14055 0.0
C839 C 0.22312 0.97416 0.14858 0.0
C840 C 0.23313 0.04692 0.17088 0.0
C841 C 0.22471 0.97221 0.1679 0.0
C842 C 0.2249 0.07914 0.20126 0.0
C843 C 0.26899 0.16639 0.18593 0.0
N844 N 0.22936 0.00796 0.1784 0.0
N845 N 0.26155 0.12914 0.17589 0.0
H846 H 0.01316 0.29706 0.52496 0.0
H847 H 0.17037 0.19583 0.48785 0.0
H848 H 0.03303 0.19718 0.55506 0.0
H849 H 0.14878 0.2959 0.45875 0.0
H850 H 0.12061 0.19532 0.51257 0.0
H851 H 0.06476 0.29822 0.50112 0.0
C852 C 0.02876 0.27565 0.52667 0.0
C853 C 0.01855 0.24686 0.54207 0.0
C854 C 0.12669 0.2173 0.50075 0.0
C855 C 0.07758 0.24759 0.51451 0.0
C856 C 0.15505 0.21753 0.48657 0.0
C857 C 0.16415 0.24616 0.47116 0.0
C858 C 0.10718 0.24591 0.49957 0.0
C859 C 0.14291 0.27326 0.47031 0.0
C860 C 0.05815 0.27619 0.51297 0.0
C861 C 0.04001 0.22003 0.54349 0.0
N862 N 0.11566 0.27258 0.48431 0.0
N863 N 0.06827 0.2208 0.52982 0.0
H864 H 0.95875 0.16018 0.82198 0.0
H865 H 0.72161 0.06231 0.87622 0.0
H866 H 0.84694 0.17946 0.80325 0.0
H867 H 0.80349 -0.00451 0.87862 0.0
H868 H 0.77348 0.1143 0.85258 0.0
H869 H 0.90768 0.10692 0.84563 0.0
C870 C 0.92342 0.15299 0.82276 0.0
C871 C 0.90703 0.17418 0.81059 0.0
C872 C 0.7801 0.0883 0.85833 0.0
C873 C 0.84896 0.11425 0.83778 0.0
C874 C 0.75075 0.05887 0.87191 0.0
C875 C 0.75821 0.02449 0.87939 0.0
C876 C 0.81766 0.08388 0.85238 0.0
C877 C 0.79636 0.0214 0.87317 0.0
C878 C 0.89437 0.12265 0.83624 0.0
C879 C 0.86096 0.16367 0.81224 0.0
N880 N 0.82481 0.05085 0.86008 0.0
N881 N 0.83371 0.13484 0.8257 0.0
H882 H 0.73778 0.82171 0.21416 0.0
H883 H 0.73879 0.93791 0.11844 0.0
H884 H 0.6746 0.74365 0.16477 0.0
H885 H 0.73614 0.00067 0.16996 0.0
H886 H 0.72752 0.86981 0.13531 0.0
H887 H 0.74886 0.89154 0.1983 0.0
C888 C 0.72608 0.81917 0.20007 0.0
C889 C 0.70504 0.77668 0.19083 0.0
C890 C 0.72932 0.89849 0.14291 0.0
C891 C 0.71846 0.85617 0.1726 0.0
C892 C 0.73586 0.93737 0.1333 0.0
C893 C 0.73805 0.97486 0.14279 0.0
C894 C 0.72584 0.89736 0.16219 0.0
C895 C 0.73418 0.97232 0.16208 0.0
C896 C 0.73237 0.85893 0.19106 0.0
C897 C 0.69072 0.77546 0.17253 0.0
N898 N 0.72855 0.93432 0.17118 0.0
N899 N 0.69805 0.81457 0.16401 0.0
H900 H 0.86288 0.77063 0.44281 0.0
H901 H 0.96784 0.76541 0.54137 0.0
H902 H 0.78744 0.74679 0.49355 0.0
H903 H 0.01864 0.7403 0.49065 0.0
H904 H 0.90584 0.76737 0.524 0.0
H905 H 0.92497 0.7682 0.46003 0.0
C906 C 0.85927 0.76479 0.45753 0.0
C907 C 0.81967 0.75865 0.46669 0.0
C908 C 0.93052 0.76129 0.5167 0.0
C909 C 0.89084 0.75648 0.48651 0.0
C910 C 0.96595 0.76023 0.52661 0.0
C911 C -0.00157 0.75244 0.5175 0.0
C912 C 0.92788 0.75523 0.49749 0.0
C913 C 0.99426 0.7461 0.4983 0.0
C914 C 0.89469 0.76336 0.46734 0.0
C915 C 0.8171 0.75142 0.48583 0.0
N916 N 0.95987 0.74788 0.48895 0.0
N917 N 0.85218 0.75079 0.49508 0.0
H918 H 0.16958 0.94671 0.8856 0.0
H919 H 0.10366 0.87871 0.77971 0.0
H920 H 0.25925 0.02491 0.84092 0.0
H921 H 0.04458 0.78042 0.82395 0.0
H922 H 0.15624 0.9362 0.80197 0.0
H923 H 0.11804 0.88863 0.86325 0.0
C924 C 0.17847 0.95169 0.87113 0.0
C925 C 0.21899 0.99072 0.86519 0.0
C926 C 0.13187 0.90193 0.80675 0.0
C927 C 0.15988 0.92469 0.83951 0.0
C928 C 0.10186 0.86909 0.79404 0.0
C929 C 0.0697 0.82446 0.79988 0.0
C930 C 0.12926 0.8904 0.82551 0.0
C931 C 0.06889 0.81419 0.81872 0.0
C932 C 0.1491 0.91849 0.85838 0.0
C933 C 0.22861 -0.00469 0.84621 0.0
N934 N 0.09789 0.84689 0.83082 0.0
N935 N 0.19924 0.96295 0.83408 0.0
loop_
_geom_bond_atom_site_label_1
_geom_bond_atom_site_label_2
_geom_bond_distance
_geom_bond_site_symmetry_2
_ccdc_geom_bond_type
C0 C1 1.351 . S
C0 N3 1.368 . S
C0 H5 0.931 . S
C1 C0 1.351 . S
C1 N2 1.373 . S
C1 H29 0.930 . S
N2 C1 1.373 . S
N2 C4 1.340 . S
N3 C0 1.368 . S
N3 C4 1.321 . S
N3 Co6 2.135 . S
C4 N2 1.340 . S
C4 N3 1.321 . S
C4 H28 0.930 . S
H5 C0 0.931 . S
Co6 N3 2.135 . S
Co6 N9 2.121 . S
Co6 O14 2.055 . S
Co6 O17 2.039 . S
Co6 N20 2.140 . S
C7 O8 1.227 . S
C7 O17 1.265 . S
O8 C7 1.227 . S
N9 Co6 2.121 . S
N9 C11 1.375 . S
N9 C12 1.313 . S
C10 C11 1.338 . S
C10 N13 1.377 . S
C10 H30 0.930 . S
C11 N9 1.375 . S
C11 C10 1.338 . S
C11 H15 0.931 . S
C12 N9 1.313 . S
C12 N13 1.344 . S
C12 H16 0.930 . S
N13 C10 1.377 . S
N13 C12 1.344 . S
O14 Co6 2.055 . S
O14 C18 1.253 . S
H15 C11 0.931 . S
H16 C12 0.930 . S
O17 Co6 2.039 . S
O17 C7 1.265 . S
C18 O14 1.253 . S
C18 O19 1.227 . S
O19 C18 1.227 . S
N20 Co6 2.140 . S
N20 C23 1.346 . S
N20 C24 1.345 . S
C21 C22 1.387 . S
C21 C25 1.391 . S
C22 C21 1.387 . S
C22 C23 1.369 . S
C22 H31 0.929 . S
C23 N20 1.346 . S
C23 C22 1.369 . S
C23 H26 0.928 . S
C24 N20 1.345 . S
C24 C25 1.371 . S
C24 H27 0.931 . S
C25 C21 1.391 . S
C25 C24 1.371 . S
C25 H32 0.930 . S
H26 C23 0.928 . S
H27 C24 0.931 . S
H28 C4 0.930 . S
H29 C1 0.930 . S
H30 C10 0.930 . S
H31 C22 0.929 . S
H32 C25 0.930 . S
C33 C34 1.351 . S
C33 N36 1.368 . S
C33 H38 0.931 . S
C34 C33 1.351 . S
C34 N35 1.373 . S
C34 H62 0.930 . S
N35 C34 1.373 . S
N35 C37 1.340 . S
N36 C33 1.368 . S
N36 C37 1.321 . S
N36 Co39 2.135 . S
C37 N35 1.340 . S
C37 N36 1.321 . S
C37 H61 0.930 . S
H38 C33 0.931 . S
Co39 N36 2.135 . S
Co39 N42 2.121 . S
Co39 O47 2.055 . S
Co39 O50 2.039 1_655 S
Co39 N53 2.140 . S
C40 O41 1.227 1_455 S
C40 O50 1.265 . S
O41 C40 1.227 1_655 S
N42 Co39 2.121 . S
N42 C44 1.375 . S
N42 C45 1.313 . S
C43 C44 1.338 . S
C43 N46 1.377 . S
C43 H63 0.930 . S
C44 N42 1.375 . S
C44 C43 1.338 . S
C44 H48 0.931 . S
C45 N42 1.313 . S
C45 N46 1.344 . S
C45 H49 0.930 . S
N46 C43 1.377 . S
N46 C45 1.344 . S
O47 Co39 2.055 . S
O47 C51 1.253 . S
H48 C44 0.931 . S
H49 C45 0.930 . S
O50 Co39 2.039 1_455 S
O50 C40 1.265 . S
C51 O47 1.253 . S
C51 O52 1.227 . S
O52 C51 1.227 . S
N53 Co39 2.140 . S
N53 C56 1.346 . S
N53 C57 1.345 . S
C54 C55 1.387 . S
C54 C58 1.391 . S
C55 C54 1.387 . S
C55 C56 1.369 . S
C55 H64 0.929 . S
C56 N53 1.346 . S
C56 C55 1.369 . S
C56 H59 0.928 . S
C57 N53 1.345 . S
C57 C58 1.371 . S
C57 H60 0.931 . S
C58 C54 1.391 . S
C58 C57 1.371 . S
C58 H65 0.930 . S
H59 C56 0.928 . S
H60 C57 0.931 . S
H61 C37 0.930 . S
H62 C34 0.930 . S
H63 C43 0.930 . S
H64 C55 0.929 . S
H65 C58 0.930 . S
C66 C67 1.351 . S
C66 N69 1.368 . S
C66 H71 0.931 . S
C67 C66 1.351 . S
C67 N68 1.373 . S
C67 H95 0.930 . S
N68 C67 1.373 . S
N68 C70 1.340 . S
N69 C66 1.368 . S
N69 C70 1.321 . S
N69 Co72 2.135 . S
C70 N68 1.340 . S
C70 N69 1.321 . S
C70 H94 0.930 . S
H71 C66 0.931 . S
Co72 N69 2.135 . S
Co72 N75 2.121 . S
Co72 O80 2.055 . S
Co72 O83 2.039 1_565 S
Co72 N86 2.140 . S
C73 O74 1.227 1_545 S
C73 O83 1.265 . S
O74 C73 1.227 1_565 S
N75 Co72 2.121 . S
N75 C77 1.375 . S
N75 C78 1.313 . S
C76 C77 1.338 . S
C76 N79 1.377 . S
C76 H96 0.930 . S
C77 N75 1.375 . S
C77 C76 1.338 . S
C77 H81 0.931 . S
C78 N75 1.313 . S
C78 N79 1.344 . S
C78 H82 0.930 . S
N79 C76 1.377 . S
N79 C78 1.344 . S
O80 Co72 2.055 . S
O80 C84 1.253 . S
H81 C77 0.931 . S
H82 C78 0.930 . S
O83 Co72 2.039 1_545 S
O83 C73 1.265 . S
C84 O80 1.253 . S
C84 O85 1.227 . S
O85 C84 1.227 . S
N86 Co72 2.140 . S
N86 C89 1.346 . S
N86 C90 1.345 . S
C87 C88 1.387 . S
C87 C91 1.391 . S
C88 C87 1.387 . S
C88 C89 1.369 . S
C88 H97 0.929 . S
C89 N86 1.346 . S
C89 C88 1.369 . S
C89 H92 0.928 . S
C90 N86 1.345 . S
C90 C91 1.371 . S
C90 H93 0.931 . S
C91 C87 1.391 . S
C91 C90 1.371 . S
C91 H98 0.930 . S
H92 C89 0.928 . S
H93 C90 0.931 . S
H94 C70 0.930 . S
H95 C67 0.930 . S
H96 C76 0.930 . S
H97 C88 0.929 . S
H98 C91 0.930 . S
C99 C100 1.351 . S
C99 N102 1.368 . S
C99 H104 0.931 . S
C100 C99 1.351 . S
C100 N101 1.373 . S
C100 H128 0.930 . S
N101 C100 1.373 . S
N101 C103 1.340 . S
N102 C99 1.368 . S
N102 C103 1.321 . S
N102 Co105 2.135 . S
C103 N101 1.340 . S
C103 N102 1.321 . S
C103 H127 0.930 . S
H104 C99 0.931 . S
Co105 N102 2.135 . S
Co105 N108 2.121 . S
Co105 O113 2.055 . S
Co105 O116 2.039 . S
Co105 N119 2.140 . S
C106 O107 1.227 . S
C106 O116 1.265 . S
O107 C106 1.227 . S
N108 Co105 2.121 . S
N108 C110 1.375 . S
N108 C111 1.313 . S
C109 C110 1.338 . S
C109 N112 1.377 . S
C109 H129 0.930 . S
C110 N108 1.375 . S
C110 C109 1.338 . S
C110 H114 0.931 . S
C111 N108 1.313 . S
C111 N112 1.344 . S
C111 H115 0.930 . S
N112 C109 1.377 . S
N112 C111 1.344 . S
O113 Co105 2.055 . S
O113 C117 1.253 . S
H114 C110 0.931 . S
H115 C111 0.930 . S
O116 Co105 2.039 . S
O116 C106 1.265 . S
C117 O113 1.253 . S
C117 O118 1.227 . S
O118 C117 1.227 . S
N119 Co105 2.140 . S
N119 C122 1.346 . S
N119 C123 1.345 . S
C120 C121 1.387 . S
C120 C124 1.391 . S
C121 C120 1.387 . S
C121 C122 1.369 . S
C121 H130 0.929 . S
C122 N119 1.346 . S
C122 C121 1.369 . S
C122 H125 0.928 . S
C123 N119 1.345 . S
C123 C124 1.371 . S
C123 H126 0.931 . S
C124 C120 1.391 . S
C124 C123 1.371 . S
C124 H131 0.930 . S
H125 C122 0.928 . S
H126 C123 0.931 . S
H127 C103 0.930 . S
H128 C100 0.930 . S
H129 C109 0.930 . S
H130 C121 0.929 . S
H131 C124 0.930 . S
C132 C133 1.351 . S
C132 N135 1.368 . S
C132 H137 0.931 . S
C133 C132 1.351 . S
C133 N134 1.373 . S
C133 H161 0.930 . S
N134 C133 1.373 . S
N134 C136 1.340 . S
N135 C132 1.368 . S
N135 C136 1.321 . S
N135 Co138 2.135 . S
C136 N134 1.340 . S
C136 N135 1.321 . S
C136 H160 0.930 . S
H137 C132 0.931 . S
Co138 N135 2.135 . S
Co138 N141 2.121 . S
Co138 O146 2.055 . S
Co138 O149 2.039 1_455 S
Co138 N152 2.140 . S
C139 O140 1.227 1_655 S
C139 O149 1.265 . S
O140 C139 1.227 1_455 S
N141 Co138 2.121 . S
N141 C143 1.375 . S
N141 C144 1.313 . S
C142 C143 1.338 . S
C142 N145 1.377 . S
C142 H162 0.930 . S
C143 N141 1.375 . S
C143 C142 1.338 . S
C143 H147 0.931 . S
C144 N141 1.313 . S
C144 N145 1.344 . S
C144 H148 0.930 . S
N145 C142 1.377 . S
N145 C144 1.344 . S
O146 Co138 2.055 . S
O146 C150 1.253 . S
H147 C143 0.931 . S
H148 C144 0.930 . S
O149 Co138 2.039 1_655 S
O149 C139 1.265 . S
C150 O146 1.253 . S
C150 O151 1.227 . S
O151 C150 1.227 . S
N152 Co138 2.140 . S
N152 C155 1.346 . S
N152 C156 1.345 . S
C153 C154 1.387 . S
C153 C157 1.391 . S
C154 C153 1.387 . S
C154 C155 1.369 . S
C154 H163 0.929 . S
C155 N152 1.346 . S
C155 C154 1.369 . S
C155 H158 0.928 . S
C156 N152 1.345 . S
C156 C157 1.371 . S
C156 H159 0.931 . S
C157 C153 1.391 . S
C157 C156 1.371 . S
C157 H164 0.930 . S
H158 C155 0.928 . S
H159 C156 0.931 . S
H160 C136 0.930 . S
H161 C133 0.930 . S
H162 C142 0.930 . S
H163 C154 0.929 . S
H164 C157 0.930 . S
C165 C166 1.351 . S
C165 N168 1.368 . S
C165 H170 0.931 . S
C166 C165 1.351 . S
C166 N167 1.373 . S
C166 H194 0.930 . S
N167 C166 1.373 . S
N167 C169 1.340 . S
N168 C165 1.368 . S
N168 C169 1.321 . S
N168 Co171 2.135 . S
C169 N167 1.340 . S
C169 N168 1.321 . S
C169 H193 0.930 . S
H170 C165 0.931 . S
Co171 N168 2.135 . S
Co171 N174 2.121 . S
Co171 O179 2.055 . S
Co171 O182 2.039 1_545 S
Co171 N185 2.140 . S
C172 O173 1.227 1_565 S
C172 O182 1.265 . S
O173 C172 1.227 1_545 S
N174 Co171 2.121 . S
N174 C176 1.375 . S
N174 C177 1.313 . S
C175 C176 1.338 . S
C175 N178 1.377 . S
C175 H195 0.930 . S
C176 N174 1.375 . S
C176 C175 1.338 . S
C176 H180 0.931 . S
C177 N174 1.313 . S
C177 N178 1.344 . S
C177 H181 0.930 . S
N178 C175 1.377 . S
N178 C177 1.344 . S
O179 Co171 2.055 . S
O179 C183 1.253 . S
H180 C176 0.931 . S
H181 C177 0.930 . S
O182 Co171 2.039 1_565 S
O182 C172 1.265 . S
C183 O179 1.253 . S
C183 O184 1.227 . S
O184 C183 1.227 . S
N185 Co171 2.140 . S
N185 C188 1.346 . S
N185 C189 1.345 . S
C186 C187 1.387 . S
C186 C190 1.391 . S
C187 C186 1.387 . S
C187 C188 1.369 . S
C187 H196 0.929 . S
C188 N185 1.346 . S
C188 C187 1.369 . S
C188 H191 0.928 . S
C189 N185 1.345 . S
C189 C190 1.371 . S
C189 H192 0.931 . S
C190 C186 1.391 . S
C190 C189 1.371 . S
C190 H197 0.930 . S
H191 C188 0.928 . S
H192 C189 0.931 . S
H193 C169 0.930 . S
H194 C166 0.930 . S
H195 C175 0.930 . S
H196 C187 0.929 . S
H197 C190 0.930 . S
C198 C199 1.351 . S
C198 N201 1.368 . S
C198 H203 0.931 . S
C199 C198 1.351 . S
C199 N200 1.373 . S
C199 H227 0.930 . S
N200 C199 1.373 . S
N200 C202 1.340 . S
N201 C198 1.368 . S
N201 C202 1.321 . S
N201 Co204 2.135 . S
C202 N200 1.340 . S
C202 N201 1.321 . S
C202 H226 0.930 . S
H203 C198 0.931 . S
Co204 N201 2.135 . S
Co204 N207 2.121 . S
Co204 O212 2.055 . S
Co204 O215 2.039 . S
Co204 N218 2.140 . S
C205 O206 1.227 . S
C205 O215 1.265 . S
O206 C205 1.227 . S
N207 Co204 2.121 . S
N207 C209 1.375 . S
N207 C210 1.313 . S
C208 C209 1.338 . S
C208 N211 1.377 . S
C208 H228 0.930 . S
C209 N207 1.375 . S
C209 C208 1.338 . S
C209 H213 0.931 . S
C210 N207 1.313 . S
C210 N211 1.344 . S
C210 H214 0.930 . S
N211 C208 1.377 . S
N211 C210 1.344 . S
O212 Co204 2.055 . S
O212 C216 1.253 . S
H213 C209 0.931 . S
H214 C210 0.930 . S
O215 Co204 2.039 . S
O215 C205 1.265 . S
C216 O212 1.253 . S
C216 O217 1.227 . S
O217 C216 1.227 . S
N218 Co204 2.140 . S
N218 C221 1.346 . S
N218 C222 1.345 . S
C219 C220 1.387 . S
C219 C223 1.391 . S
C220 C219 1.387 . S
C220 C221 1.369 . S
C220 H229 0.929 . S
C221 N218 1.346 . S
C221 C220 1.369 . S
C221 H224 0.928 . S
C222 N218 1.345 . S
C222 C223 1.371 . S
C222 H225 0.931 . S
C223 C219 1.391 . S
C223 C222 1.371 . S
C223 H230 0.930 . S
H224 C221 0.928 . S
H225 C222 0.931 . S
H226 C202 0.930 . S
H227 C199 0.930 . S
H228 C208 0.930 . S
H229 C220 0.929 . S
H230 C223 0.930 . S
C231 C232 1.351 . S
C231 N234 1.368 . S
C231 H236 0.931 . S
C232 C231 1.351 . S
C232 N233 1.373 . S
C232 H260 0.930 . S
N233 C232 1.373 . S
N233 C235 1.340 . S
N234 C231 1.368 . S
N234 C235 1.321 . S
N234 Co237 2.135 . S
C235 N233 1.340 . S
C235 N234 1.321 . S
C235 H259 0.930 . S
H236 C231 0.931 . S
Co237 N234 2.135 . S
Co237 N240 2.121 . S
Co237 O245 2.055 . S
Co237 O248 2.039 1_655 S
Co237 N251 2.140 . S
C238 O239 1.227 1_455 S
C238 O248 1.265 . S
O239 C238 1.227 1_655 S
N240 Co237 2.121 . S
N240 C242 1.375 . S
N240 C243 1.313 . S
C241 C242 1.338 . S
C241 N244 1.377 . S
C241 H261 0.930 . S
C242 N240 1.375 . S
C242 C241 1.338 . S
C242 H246 0.931 . S
C243 N240 1.313 . S
C243 N244 1.344 . S
C243 H247 0.930 . S
N244 C241 1.377 . S
N244 C243 1.344 . S
O245 Co237 2.055 . S
O245 C249 1.253 . S
H246 C242 0.931 . S
H247 C243 0.930 . S
O248 Co237 2.039 1_455 S
O248 C238 1.265 . S
C249 O245 1.253 . S
C249 O250 1.227 . S
O250 C249 1.227 . S
N251 Co237 2.140 . S
N251 C254 1.346 . S
N251 C255 1.345 . S
C252 C253 1.387 . S
C252 C256 1.391 . S
C253 C252 1.387 . S
C253 C254 1.369 . S
C253 H262 0.929 . S
C254 N251 1.346 . S
C254 C253 1.369 . S
C254 H257 0.928 . S
C255 N251 1.345 . S
C255 C256 1.371 . S
C255 H258 0.931 . S
C256 C252 1.391 . S
C256 C255 1.371 . S
C256 H263 0.930 . S
H257 C254 0.928 . S
H258 C255 0.931 . S
H259 C235 0.930 . S
H260 C232 0.930 . S
H261 C241 0.930 . S
H262 C253 0.929 . S
H263 C256 0.930 . S
C264 C265 1.351 . S
C264 N267 1.368 . S
C264 H269 0.931 . S
C265 C264 1.351 . S
C265 N266 1.373 . S
C265 H293 0.930 . S
N266 C265 1.373 . S
N266 C268 1.340 . S
N267 C264 1.368 . S
N267 C268 1.321 . S
N267 Co270 2.135 . S
C268 N266 1.340 . S
C268 N267 1.321 . S
C268 H292 0.930 . S
H269 C264 0.931 . S
Co270 N267 2.135 . S
Co270 N273 2.121 . S
Co270 O278 2.055 . S
Co270 O281 2.039 1_565 S
Co270 N284 2.140 . S
C271 O272 1.227 1_545 S
C271 O281 1.265 . S
O272 C271 1.227 1_565 S
N273 Co270 2.121 . S
N273 C275 1.375 . S
N273 C276 1.313 . S
C274 C275 1.338 . S
C274 N277 1.377 . S
C274 H294 0.930 . S
C275 N273 1.375 . S
C275 C274 1.338 . S
C275 H279 0.931 . S
C276 N273 1.313 . S
C276 N277 1.344 . S
C276 H280 0.930 . S
N277 C274 1.377 . S
N277 C276 1.344 . S
O278 Co270 2.055 . S
O278 C282 1.253 . S
H279 C275 0.931 . S
H280 C276 0.930 . S
O281 Co270 2.039 1_545 S
O281 C271 1.265 . S
C282 O278 1.253 . S
C282 O283 1.227 . S
O283 C282 1.227 . S
N284 Co270 2.140 . S
N284 C287 1.346 . S
N284 C288 1.345 . S
C285 C286 1.387 . S
C285 C289 1.391 . S
C286 C285 1.387 . S
C286 C287 1.369 . S
C286 H295 0.929 . S
C287 N284 1.346 . S
C287 C286 1.369 . S
C287 H290 0.928 . S
C288 N284 1.345 . S
C288 C289 1.371 . S
C288 H291 0.931 . S
C289 C285 1.391 . S
C289 C288 1.371 . S
C289 H296 0.930 . S
H290 C287 0.928 . S
H291 C288 0.931 . S
H292 C268 0.930 . S
H293 C265 0.930 . S
H294 C274 0.930 . S
H295 C286 0.929 . S
H296 C289 0.930 . S
C297 C298 1.351 . S
C297 N300 1.368 . S
C297 H302 0.931 . S
C298 C297 1.351 . S
C298 N299 1.373 . S
C298 H326 0.930 . S
N299 C298 1.373 . S
N299 C301 1.340 . S
N300 C297 1.368 . S
N300 C301 1.321 . S
N300 Co303 2.135 . S
C301 N299 1.340 . S
C301 N300 1.321 . S
C301 H325 0.930 . S
H302 C297 0.931 . S
Co303 N300 2.135 . S
Co303 N306 2.121 . S
Co303 O311 2.055 . S
Co303 O314 2.039 . S
Co303 N317 2.140 . S
C304 O305 1.227 . S
C304 O314 1.265 . S
O305 C304 1.227 . S
N306 Co303 2.121 . S
N306 C308 1.375 . S
N306 C309 1.313 . S
C307 C308 1.338 . S
C307 N310 1.377 . S
C307 H327 0.930 . S
C308 N306 1.375 . S
C308 C307 1.338 . S
C308 H312 0.931 . S
C309 N306 1.313 . S
C309 N310 1.344 . S
C309 H313 0.930 . S
N310 C307 1.377 . S
N310 C309 1.344 . S
O311 Co303 2.055 . S
O311 C315 1.253 . S
H312 C308 0.931 . S
H313 C309 0.930 . S
O314 Co303 2.039 . S
O314 C304 1.265 . S
C315 O311 1.253 . S
C315 O316 1.227 . S
O316 C315 1.227 . S
N317 Co303 2.140 . S
N317 C320 1.346 . S
N317 C321 1.345 . S
C318 C319 1.387 . S
C318 C322 1.391 . S
C319 C318 1.387 . S
C319 C320 1.369 . S
C319 H328 0.929 . S
C320 N317 1.346 . S
C320 C319 1.369 . S
C320 H323 0.928 . S
C321 N317 1.345 . S
C321 C322 1.371 . S
C321 H324 0.931 . S
C322 C318 1.391 . S
C322 C321 1.371 . S
C322 H329 0.930 . S
H323 C320 0.928 . S
H324 C321 0.931 . S
H325 C301 0.930 . S
H326 C298 0.930 . S
H327 C307 0.930 . S
H328 C319 0.929 . S
H329 C322 0.930 . S
C330 C331 1.351 . S
C330 N333 1.368 . S
C330 H335 0.931 . S
C331 C330 1.351 . S
C331 N332 1.373 . S
C331 H359 0.930 . S
N332 C331 1.373 . S
N332 C334 1.340 . S
N333 C330 1.368 . S
N333 C334 1.321 . S
N333 Co336 2.135 . S
C334 N332 1.340 . S
C334 N333 1.321 . S
C334 H358 0.930 . S
H335 C330 0.931 . S
Co336 N333 2.135 . S
Co336 N339 2.121 . S
Co336 O344 2.055 . S
Co336 O347 2.039 1_455 S
Co336 N350 2.140 . S
C337 O338 1.227 1_655 S
C337 O347 1.265 . S
O338 C337 1.227 1_455 S
N339 Co336 2.121 . S
N339 C341 1.375 . S
N339 C342 1.313 . S
C340 C341 1.338 . S
C340 N343 1.377 . S
C340 H360 0.930 . S
C341 N339 1.375 . S
C341 C340 1.338 . S
C341 H345 0.931 . S
C342 N339 1.313 . S
C342 N343 1.344 . S
C342 H346 0.930 . S
N343 C340 1.377 . S
N343 C342 1.344 . S
O344 Co336 2.055 . S
O344 C348 1.253 . S
H345 C341 0.931 . S
H346 C342 0.930 . S
O347 Co336 2.039 1_655 S
O347 C337 1.265 . S
C348 O344 1.253 . S
C348 O349 1.227 . S
O349 C348 1.227 . S
N350 Co336 2.140 . S
N350 C353 1.346 . S
N350 C354 1.345 . S
C351 C352 1.387 . S
C351 C355 1.391 . S
C352 C351 1.387 . S
C352 C353 1.369 . S
C352 H361 0.929 . S
C353 N350 1.346 . S
C353 C352 1.369 . S
C353 H356 0.928 . S
C354 N350 1.345 . S
C354 C355 1.371 . S
C354 H357 0.931 . S
C355 C351 1.391 . S
C355 C354 1.371 . S
C355 H362 0.930 . S
H356 C353 0.928 . S
H357 C354 0.931 . S
H358 C334 0.930 . S
H359 C331 0.930 . S
H360 C340 0.930 . S
H361 C352 0.929 . S
H362 C355 0.930 . S
C363 C364 1.351 . S
C363 N366 1.368 . S
C363 H368 0.931 . S
C364 C363 1.351 . S
C364 N365 1.373 . S
C364 H392 0.930 . S
N365 C364 1.373 . S
N365 C367 1.340 . S
N366 C363 1.368 . S
N366 C367 1.321 . S
N366 Co369 2.135 . S
C367 N365 1.340 . S
C367 N366 1.321 . S
C367 H391 0.930 . S
H368 C363 0.931 . S
Co369 N366 2.135 . S
Co369 N372 2.121 . S
Co369 O377 2.055 . S
Co369 O380 2.039 1_545 S
Co369 N383 2.140 . S
C370 O371 1.227 1_565 S
C370 O380 1.265 . S
O371 C370 1.227 1_545 S
N372 Co369 2.121 . S
N372 C374 1.375 . S
N372 C375 1.313 . S
C373 C374 1.338 . S
C373 N376 1.377 . S
C373 H393 0.930 . S
C374 N372 1.375 . S
C374 C373 1.338 . S
C374 H378 0.931 . S
C375 N372 1.313 . S
C375 N376 1.344 . S
C375 H379 0.930 . S
N376 C373 1.377 . S
N376 C375 1.344 . S
O377 Co369 2.055 . S
O377 C381 1.253 . S
H378 C374 0.931 . S
H379 C375 0.930 . S
O380 Co369 2.039 1_565 S
O380 C370 1.265 . S
C381 O377 1.253 . S
C381 O382 1.227 . S
O382 C381 1.227 . S
N383 Co369 2.140 . S
N383 C386 1.346 . S
N383 C387 1.345 . S
C384 C385 1.387 . S
C384 C388 1.391 . S
C385 C384 1.387 . S
C385 C386 1.369 . S
C385 H394 0.929 . S
C386 N383 1.346 . S
C386 C385 1.369 . S
C386 H389 0.928 . S
C387 N383 1.345 . S
C387 C388 1.371 . S
C387 H390 0.931 . S
C388 C384 1.391 . S
C388 C387 1.371 . S
C388 H395 0.930 . S
H389 C386 0.928 . S
H390 C387 0.931 . S
H391 C367 0.930 . S
H392 C364 0.930 . S
H393 C373 0.930 . S
H394 C385 0.929 . S
H395 C388 0.930 . S
H396 C402 0.930 . S
H397 C406 0.930 . S
H398 C411 0.929 . S
H399 C409 0.929 . S
H400 C404 0.929 . S
H401 C410 0.929 . S
C402 H396 0.930 . S
C402 C403 1.367 . S
C402 C410 1.378 . S
C403 C402 1.367 . S
C403 C411 1.433 . S
C404 H400 0.929 . S
C404 C406 1.378 . S
C404 C408 1.350 . S
C405 C408 1.463 . S
C405 C410 1.350 . S
C405 N413 1.427 . S
C406 H397 0.930 . S
C406 C404 1.378 . S
C406 C407 1.367 . S
C407 C406 1.367 . S
C407 C409 1.433 . S
C408 C404 1.350 . S
C408 C405 1.463 . S
C408 N412 1.427 . S
C409 H399 0.929 . S
C409 C407 1.433 . S
C409 N412 1.384 . S
C410 H401 0.929 . S
C410 C402 1.378 . S
C410 C405 1.350 . S
C411 H398 0.929 . S
C411 C403 1.433 . S
C411 N413 1.384 . S
N412 C408 1.427 . S
N412 C409 1.384 . S
N413 C405 1.427 . S
N413 C411 1.384 . S
H414 C420 0.930 . S
H415 C424 0.930 . S
H416 C429 0.929 . S
H417 C427 0.929 . S
H418 C422 0.929 . S
H419 C428 0.929 . S
C420 H414 0.930 . S
C420 C421 1.367 . S
C420 C428 1.378 . S
C421 C420 1.367 . S
C421 C429 1.433 . S
C422 H418 0.929 . S
C422 C424 1.378 . S
C422 C426 1.350 . S
C423 C426 1.463 1_455 S
C423 C428 1.350 . S
C423 N431 1.427 . S
C424 H415 0.930 . S
C424 C422 1.378 . S
C424 C425 1.367 . S
C425 C424 1.367 . S
C425 C427 1.433 . S
C426 C422 1.350 . S
C426 C423 1.463 1_655 S
C426 N430 1.427 . S
C427 H417 0.929 . S
C427 C425 1.433 . S
C427 N430 1.384 . S
C428 H419 0.929 . S
C428 C420 1.378 . S
C428 C423 1.350 . S
C429 H416 0.929 . S
C429 C421 1.433 . S
C429 N431 1.384 . S
N430 C426 1.427 . S
N430 C427 1.384 . S
N431 C423 1.427 . S
N431 C429 1.384 . S
H432 C438 0.930 1_565 S
H433 C442 0.930 1_545 S
H434 C447 0.929 . S
H435 C445 0.929 . S
H436 C440 0.929 . S
H437 C446 0.929 . S
C438 H432 0.930 1_545 S
C438 C439 1.367 . S
C438 C446 1.378 1_545 S
C439 C438 1.367 . S
C439 C447 1.433 . S
C440 H436 0.929 . S
C440 C442 1.378 1_545 S
C440 C444 1.350 1_545 S
C441 C444 1.463 1_545 S
C441 C446 1.350 1_545 S
C441 N449 1.427 . S
C442 H433 0.930 1_565 S
C442 C440 1.378 1_565 S
C442 C443 1.367 . S
C443 C442 1.367 . S
C443 C445 1.433 . S
C444 C440 1.350 1_565 S
C444 C441 1.463 1_565 S
C444 N448 1.427 . S
C445 H435 0.929 . S
C445 C443 1.433 . S
C445 N448 1.384 . S
C446 H437 0.929 . S
C446 C438 1.378 1_565 S
C446 C441 1.350 1_565 S
C447 H434 0.929 . S
C447 C439 1.433 . S
C447 N449 1.384 . S
N448 C444 1.427 . S
N448 C445 1.384 . S
N449 C441 1.427 . S
N449 C447 1.384 . S
H450 C456 0.930 . S
H451 C460 0.930 . S
H452 C465 0.929 . S
H453 C463 0.929 . S
H454 C458 0.929 . S
H455 C464 0.929 . S
C456 H450 0.930 . S
C456 C457 1.367 . S
C456 C464 1.378 . S
C457 C456 1.367 . S
C457 C465 1.433 . S
C458 H454 0.929 . S
C458 C460 1.378 . S
C458 C462 1.350 . S
C459 C462 1.463 . S
C459 C464 1.350 . S
C459 N467 1.427 . S
C460 H451 0.930 . S
C460 C458 1.378 . S
C460 C461 1.367 . S
C461 C460 1.367 . S
C461 C463 1.433 . S
C462 C458 1.350 . S
C462 C459 1.463 . S
C462 N466 1.427 . S
C463 H453 0.929 . S
C463 C461 1.433 . S
C463 N466 1.384 . S
C464 H455 0.929 . S
C464 C456 1.378 . S
C464 C459 1.350 . S
C465 H452 0.929 . S
C465 C457 1.433 . S
C465 N467 1.384 . S
N466 C462 1.427 . S
N466 C463 1.384 . S
N467 C459 1.427 . S
N467 C465 1.384 . S
H468 C474 0.930 . S
H469 C478 0.930 . S
H470 C483 0.929 . S
H471 C481 0.929 . S
H472 C476 0.929 . S
H473 C482 0.929 . S
C474 H468 0.930 . S
C474 C475 1.367 . S
C474 C482 1.378 . S
C475 C474 1.367 . S
C475 C483 1.433 . S
C476 H472 0.929 . S
C476 C478 1.378 . S
C476 C480 1.350 . S
C477 C480 1.463 1_655 S
C477 C482 1.350 . S
C477 N485 1.427 . S
C478 H469 0.930 . S
C478 C476 1.378 . S
C478 C479 1.367 . S
C479 C478 1.367 . S
C479 C481 1.433 . S
C480 C476 1.350 . S
C480 C477 1.463 1_455 S
C480 N484 1.427 . S
C481 H471 0.929 . S
C481 C479 1.433 . S
C481 N484 1.384 . S
C482 H473 0.929 . S
C482 C474 1.378 . S
C482 C477 1.350 . S
C483 H470 0.929 . S
C483 C475 1.433 . S
C483 N485 1.384 . S
N484 C480 1.427 . S
N484 C481 1.384 . S
N485 C477 1.427 . S
N485 C483 1.384 . S
H486 C492 0.930 . S
H487 C496 0.930 . S
H488 C501 0.929 . S
H489 C499 0.929 . S
H490 C494 0.930 . S
H491 C500 0.930 . S
C492 H486 0.930 . S
C492 C493 1.367 . S
C492 C500 1.378 . S
C493 C492 1.367 . S
C493 C501 1.433 . S
C494 H490 0.930 . S
C494 C496 1.378 . S
C494 C498 1.350 . S
C495 C498 1.463 1_565 S
C495 C500 1.350 . S
C495 N503 1.427 . S
C496 H487 0.930 . S
C496 C494 1.378 . S
C496 C497 1.367 . S
C497 C496 1.367 . S
C497 C499 1.433 . S
C498 C494 1.350 . S
C498 C495 1.463 1_545 S
C498 N502 1.427 . S
C499 H489 0.929 . S
C499 C497 1.433 . S
C499 N502 1.384 . S
C500 H491 0.930 . S
C500 C492 1.378 . S
C500 C495 1.350 . S
C501 H488 0.929 . S
C501 C493 1.433 . S
C501 N503 1.384 . S
N502 C498 1.427 . S
N502 C499 1.384 . S
N503 C495 1.427 . S
N503 C501 1.384 . S
H504 C510 0.930 . S
H505 C514 0.930 . S
H506 C519 0.929 . S
H507 C517 0.929 . S
H508 C512 0.929 . S
H509 C518 0.929 . S
C510 H504 0.930 . S
C510 C511 1.367 . S
C510 C518 1.378 . S
C511 C510 1.367 . S
C511 C519 1.433 . S
C512 H508 0.929 . S
C512 C514 1.378 . S
C512 C516 1.350 . S
C513 C516 1.463 . S
C513 C518 1.350 . S
C513 N521 1.427 . S
C514 H505 0.930 . S
C514 C512 1.378 . S
C514 C515 1.367 . S
C515 C514 1.367 . S
C515 C517 1.433 . S
C516 C512 1.350 . S
C516 C513 1.463 . S
C516 N520 1.427 . S
C517 H507 0.929 . S
C517 C515 1.433 . S
C517 N520 1.384 . S
C518 H509 0.929 . S
C518 C510 1.378 . S
C518 C513 1.350 . S
C519 H506 0.929 . S
C519 C511 1.433 . S
C519 N521 1.384 . S
N520 C516 1.427 . S
N520 C517 1.384 . S
N521 C513 1.427 . S
N521 C519 1.384 . S
H522 C528 0.930 . S
H523 C532 0.930 . S
H524 C537 0.929 . S
H525 C535 0.929 . S
H526 C530 0.929 . S
H527 C536 0.929 . S
C528 H522 0.930 . S
C528 C529 1.367 . S
C528 C536 1.378 1_655 S
C529 C528 1.367 . S
C529 C537 1.433 . S
C530 H526 0.929 . S
C530 C532 1.378 1_655 S
C530 C534 1.350 1_655 S
C531 C534 1.463 1_655 S
C531 C536 1.350 1_655 S
C531 N539 1.427 . S
C532 H523 0.930 . S
C532 C530 1.378 1_455 S
C532 C533 1.367 . S
C533 C532 1.367 . S
C533 C535 1.433 . S
C534 C530 1.350 1_455 S
C534 C531 1.463 1_455 S
C534 N538 1.427 . S
C535 H525 0.929 . S
C535 C533 1.433 . S
C535 N538 1.384 . S
C536 H527 0.929 . S
C536 C528 1.378 1_455 S
C536 C531 1.350 1_455 S
C537 H524 0.929 . S
C537 C529 1.433 . S
C537 N539 1.384 . S
N538 C534 1.427 . S
N538 C535 1.384 . S
N539 C531 1.427 . S
N539 C537 1.384 . S
H540 C546 0.930 1_565 S
H541 C550 0.930 1_545 S
H542 C555 0.929 . S
H543 C553 0.929 . S
H544 C548 0.929 . S
H545 C554 0.929 . S
C546 H540 0.930 1_545 S
C546 C547 1.367 . S
C546 C554 1.378 1_545 S
C547 C546 1.367 . S
C547 C555 1.433 . S
C548 H544 0.929 . S
C548 C550 1.378 1_545 S
C548 C552 1.350 1_545 S
C549 C552 1.463 1_544 S
C549 C554 1.350 1_545 S
C549 N557 1.427 . S
C550 H541 0.930 1_565 S
C550 C548 1.378 1_565 S
C550 C551 1.367 . S
C551 C550 1.367 . S
C551 C553 1.433 . S
C552 C548 1.350 1_565 S
C552 C549 1.463 1_566 S
C552 N556 1.427 . S
C553 H543 0.929 . S
C553 C551 1.433 . S
C553 N556 1.384 . S
C554 H545 0.929 . S
C554 C546 1.378 1_565 S
C554 C549 1.350 1_565 S
C555 H542 0.929 . S
C555 C547 1.433 . S
C555 N557 1.384 . S
N556 C552 1.427 . S
N556 C553 1.384 . S
N557 C549 1.427 . S
N557 C555 1.384 . S
H558 C564 0.930 . S
H559 C568 0.930 . S
H560 C573 0.929 . S
H561 C571 0.929 . S
H562 C566 0.929 . S
H563 C572 0.929 . S
C564 H558 0.930 . S
C564 C565 1.367 . S
C564 C572 1.378 . S
C565 C564 1.367 . S
C565 C573 1.433 . S
C566 H562 0.929 . S
C566 C568 1.378 . S
C566 C570 1.350 . S
C567 C570 1.463 . S
C567 C572 1.350 . S
C567 N575 1.427 . S
C568 H559 0.930 . S
C568 C566 1.378 . S
C568 C569 1.367 . S
C569 C568 1.367 . S
C569 C571 1.433 . S
C570 C566 1.350 . S
C570 C567 1.463 . S
C570 N574 1.427 . S
C571 H561 0.929 . S
C571 C569 1.433 . S
C571 N574 1.384 . S
C572 H563 0.929 . S
C572 C564 1.378 . S
C572 C567 1.350 . S
C573 H560 0.929 . S
C573 C565 1.433 . S
C573 N575 1.384 . S
N574 C570 1.427 . S
N574 C571 1.384 . S
N575 C567 1.427 . S
N575 C573 1.384 . S
H576 C582 0.930 . S
H577 C586 0.930 . S
H578 C591 0.929 . S
H579 C589 0.929 . S
H580 C584 0.929 . S
H581 C590 0.929 . S
C582 H576 0.930 . S
C582 C583 1.367 . S
C582 C590 1.378 . S
C583 C582 1.367 . S
C583 C591 1.433 . S
C584 H580 0.929 . S
C584 C586 1.378 . S
C584 C588 1.350 . S
C585 C588 1.463 1_455 S
C585 C590 1.350 . S
C585 N593 1.427 . S
C586 H577 0.930 . S
C586 C584 1.378 . S
C586 C587 1.367 . S
C587 C586 1.367 . S
C587 C589 1.433 . S
C588 C584 1.350 . S
C588 C585 1.463 1_655 S
C588 N592 1.427 . S
C589 H579 0.929 . S
C589 C587 1.433 . S
C589 N592 1.384 . S
C590 H581 0.929 . S
C590 C582 1.378 . S
C590 C585 1.350 . S
C591 H578 0.929 . S
C591 C583 1.433 . S
C591 N593 1.384 . S
N592 C588 1.427 . S
N592 C589 1.384 . S
N593 C585 1.427 . S
N593 C591 1.384 . S
H594 C600 0.930 . S
H595 C604 0.930 . S
H596 C609 0.929 1_565 S
H597 C607 0.929 1_545 S
H598 C602 0.929 . S
H599 C608 0.929 . S
C600 H594 0.930 . S
C600 C601 1.367 . S
C600 C608 1.378 . S
C601 C600 1.367 . S
C601 C609 1.433 . S
C602 H598 0.929 . S
C602 C604 1.378 . S
C602 C606 1.350 . S
C603 C606 1.463 1_546 S
C603 C608 1.350 . S
C603 N611 1.427 1_545 S
C604 H595 0.930 . S
C604 C602 1.378 . S
C604 C605 1.367 . S
C605 C604 1.367 . S
C605 C607 1.433 . S
C606 C602 1.350 . S
C606 C603 1.463 1_564 S
C606 N610 1.427 1_565 S
C607 H597 0.929 1_565 S
C607 C605 1.433 . S
C607 N610 1.384 1_565 S
C608 H599 0.929 . S
C608 C600 1.378 . S
C608 C603 1.350 . S
C609 H596 0.929 1_545 S
C609 C601 1.433 . S
C609 N611 1.384 1_545 S
N610 C606 1.427 1_545 S
N610 C607 1.384 1_545 S
N611 C603 1.427 1_565 S
N611 C609 1.384 1_565 S
H612 C618 0.930 . S
H613 C622 0.930 . S
H614 C627 0.929 . S
H615 C625 0.929 . S
H616 C620 0.940 . S
H617 C626 0.940 . S
C618 H612 0.930 . S
C618 C619 1.367 . S
C618 C626 1.378 . S
C619 C618 1.367 . S
C619 C627 1.433 . S
C620 H616 0.940 . S
C620 C622 1.378 . S
C620 C624 1.350 . S
C621 C624 1.463 1_445 S
C621 C626 1.350 . S
C621 N629 1.427 . S
C622 H613 0.930 . S
C622 C620 1.378 . S
C622 C623 1.367 . S
C623 C622 1.367 . S
C623 C625 1.433 . S
C624 C620 1.350 . S
C624 C621 1.463 1_665 S
C624 N628 1.427 . S
C625 H615 0.929 . S
C625 C623 1.433 . S
C625 N628 1.384 . S
C626 H617 0.940 . S
C626 C618 1.378 . S
C626 C621 1.350 . S
C627 H614 0.929 . S
C627 C619 1.433 . S
C627 N629 1.384 . S
N628 C624 1.427 . S
N628 C625 1.384 . S
N629 C621 1.427 . S
N629 C627 1.384 . S
H630 C636 0.930 . S
H631 C640 0.930 . S
H632 C645 0.929 . S
H633 C643 0.929 . S
H634 C638 0.929 1_545 S
H635 C644 0.929 1_565 S
C636 H630 0.930 . S
C636 C637 1.367 . S
C636 C644 1.378 . S
C637 C636 1.367 . S
C637 C645 1.433 1_655 S
C638 H634 0.929 1_565 S
C638 C640 1.378 . S
C638 C642 1.350 . S
C639 C642 1.463 1_645 S
C639 C644 1.350 . S
C639 N647 1.427 1_655 S
C640 H631 0.930 . S
C640 C638 1.378 . S
C640 C641 1.367 . S
C641 C640 1.367 . S
C641 C643 1.433 1_455 S
C642 C638 1.350 . S
C642 C639 1.463 1_465 S
C642 N646 1.427 1_455 S
C643 H633 0.929 . S
C643 C641 1.433 1_655 S
C643 N646 1.384 . S
C644 H635 0.929 1_545 S
C644 C636 1.378 . S
C644 C639 1.350 . S
C645 H632 0.929 . S
C645 C637 1.433 1_455 S
C645 N647 1.384 . S
N646 C642 1.427 1_655 S
N646 C643 1.384 . S
N647 C639 1.427 1_455 S
N647 C645 1.384 . S
H648 C654 0.930 1_565 S
H649 C658 0.930 1_545 S
H650 C663 0.929 . S
H651 C661 0.929 . S
H652 C656 0.929 . S
H653 C662 0.929 . S
C654 H648 0.930 1_545 S
C654 C655 1.367 . S
C654 C662 1.378 1_545 S
C655 C654 1.367 . S
C655 C663 1.433 . S
C656 H652 0.929 . S
C656 C658 1.378 1_545 S
C656 C660 1.350 1_545 S
C657 C660 1.463 1_445 S
C657 C662 1.350 1_545 S
C657 N665 1.427 . S
C658 H649 0.930 1_565 S
C658 C656 1.378 1_565 S
C658 C659 1.367 . S
C659 C658 1.367 . S
C659 C661 1.433 . S
C660 C656 1.350 1_565 S
C660 C657 1.463 1_665 S
C660 N664 1.427 . S
C661 H651 0.929 . S
C661 C659 1.433 . S
C661 N664 1.384 . S
C662 H653 0.929 . S
C662 C654 1.378 1_565 S
C662 C657 1.350 1_565 S
C663 H650 0.929 . S
C663 C655 1.433 . S
C663 N665 1.384 . S
N664 C660 1.427 . S
N664 C661 1.384 . S
N665 C657 1.427 . S
N665 C663 1.384 . S
H666 C672 0.930 . S
H667 C676 0.930 . S
H668 C681 0.929 . S
H669 C679 0.929 . S
H670 C674 0.929 . S
H671 C680 0.929 . S
C672 H666 0.930 . S
C672 C673 1.367 . S
C672 C680 1.378 . S
C673 C672 1.367 . S
C673 C681 1.433 . S
C674 H670 0.929 . S
C674 C676 1.378 . S
C674 C678 1.350 . S
C675 C678 1.463 1_665 S
C675 C680 1.350 . S
C675 N683 1.427 . S
C676 H667 0.930 . S
C676 C674 1.378 . S
C676 C677 1.367 . S
C677 C676 1.367 . S
C677 C679 1.433 . S
C678 C674 1.350 . S
C678 C675 1.463 1_445 S
C678 N682 1.427 . S
C679 H669 0.929 . S
C679 C677 1.433 . S
C679 N682 1.384 . S
C680 H671 0.929 . S
C680 C672 1.378 . S
C680 C675 1.350 . S
C681 H668 0.929 . S
C681 C673 1.433 . S
C681 N683 1.384 . S
N682 C678 1.427 . S
N682 C679 1.384 . S
N683 C675 1.427 . S
N683 C681 1.384 . S
H684 C690 0.930 . S
H685 C694 0.930 . S
H686 C699 0.929 . S
H687 C697 0.929 . S
H688 C692 0.929 . S
H689 C698 0.929 . S
C690 H684 0.930 . S
C690 C691 1.367 . S
C690 C698 1.378 . S
C691 C690 1.367 . S
C691 C699 1.433 1_655 S
C692 H688 0.929 . S
C692 C694 1.378 . S
C692 C696 1.350 . S
C693 C696 1.463 1_665 S
C693 C698 1.350 . S
C693 N701 1.427 1_655 S
C694 H685 0.930 . S
C694 C692 1.378 . S
C694 C695 1.367 . S
C695 C694 1.367 . S
C695 C697 1.433 1_455 S
C696 C692 1.350 . S
C696 C693 1.463 1_445 S
C696 N700 1.427 1_455 S
C697 H687 0.929 . S
C697 C695 1.433 1_655 S
C697 N700 1.384 . S
C698 H689 0.929 . S
C698 C690 1.378 . S
C698 C693 1.350 . S
C699 H686 0.929 . S
C699 C691 1.433 1_455 S
C699 N701 1.384 . S
N700 C696 1.427 1_655 S
N700 C697 1.384 . S
N701 C693 1.427 1_455 S
N701 C699 1.384 . S
H702 C708 0.930 . S
H703 C712 0.930 . S
H704 C717 0.929 . S
H705 C715 0.929 . S
H706 C710 0.929 1_655 S
H707 C716 0.929 1_455 S
C708 H702 0.930 . S
C708 C709 1.367 . S
C708 C716 1.378 . S
C709 C708 1.367 . S
C709 C717 1.433 1_545 S
C710 H706 0.929 1_455 S
C710 C712 1.378 . S
C710 C714 1.350 . S
C711 C714 1.463 1_645 S
C711 C716 1.350 . S
C711 N719 1.427 1_545 S
C712 H703 0.930 . S
C712 C710 1.378 . S
C712 C713 1.367 . S
C713 C712 1.367 . S
C713 C715 1.433 1_565 S
C714 C710 1.350 . S
C714 C711 1.463 1_465 S
C714 N718 1.427 1_565 S
C715 H705 0.929 . S
C715 C713 1.433 1_545 S
C715 N718 1.384 . S
C716 H707 0.929 1_655 S
C716 C708 1.378 . S
C716 C711 1.350 . S
C717 H704 0.929 . S
C717 C709 1.433 1_565 S
C717 N719 1.384 . S
N718 C714 1.427 1_545 S
N718 C715 1.384 . S
N719 C711 1.427 1_565 S
N719 C717 1.384 . S
H720 C726 0.930 . S
H721 C730 0.930 . S
H722 C735 0.929 . S
H723 C733 0.929 . S
H724 C728 0.929 . S
H725 C734 0.929 . S
C726 H720 0.930 . S
C726 C727 1.367 . S
C726 C734 1.378 . S
C727 C726 1.367 . S
C727 C735 1.433 . S
C728 H724 0.929 . S
C728 C730 1.378 . S
C728 C732 1.350 . S
C729 C732 1.463 1_655 S
C729 C734 1.350 . S
C729 N737 1.427 . S
C730 H721 0.930 . S
C730 C728 1.378 . S
C730 C731 1.367 . S
C731 C730 1.367 . S
C731 C733 1.433 . S
C732 C728 1.350 . S
C732 C729 1.463 1_455 S
C732 N736 1.427 . S
C733 H723 0.929 . S
C733 C731 1.433 . S
C733 N736 1.384 . S
C734 H725 0.929 . S
C734 C726 1.378 . S
C734 C729 1.350 . S
C735 H722 0.929 . S
C735 C727 1.433 . S
C735 N737 1.384 . S
N736 C732 1.427 . S
N736 C733 1.384 . S
N737 C729 1.427 . S
N737 C735 1.384 . S
H738 C744 0.930 . S
H739 C748 0.930 . S
H740 C753 0.929 . S
H741 C751 0.929 . S
H742 C746 0.929 1_545 S
H743 C752 0.929 1_565 S
C744 H738 0.930 . S
C744 C745 1.367 . S
C744 C752 1.378 . S
C745 C744 1.367 . S
C745 C753 1.433 . S
C746 H742 0.929 1_565 S
C746 C748 1.378 . S
C746 C750 1.350 . S
C747 C750 1.463 1_545 S
C747 C752 1.350 . S
C747 N755 1.427 . S
C748 H739 0.930 . S
C748 C746 1.378 . S
C748 C749 1.367 . S
C749 C748 1.367 . S
C749 C751 1.433 . S
C750 C746 1.350 . S
C750 C747 1.463 1_565 S
C750 N754 1.427 . S
C751 H741 0.929 . S
C751 C749 1.433 . S
C751 N754 1.384 . S
C752 H743 0.929 1_545 S
C752 C744 1.378 . S
C752 C747 1.350 . S
C753 H740 0.929 . S
C753 C745 1.433 . S
C753 N755 1.384 . S
N754 C750 1.427 . S
N754 C751 1.384 . S
N755 C747 1.427 . S
N755 C753 1.384 . S
H756 C762 0.930 . S
H757 C766 0.930 . S
H758 C771 0.929 . S
H759 C769 0.929 . S
H760 C764 0.929 . S
H761 C770 0.929 . S
C762 H756 0.930 . S
C762 C763 1.367 . S
C762 C770 1.378 . S
C763 C762 1.367 . S
C763 C771 1.433 . S
C764 H760 0.929 . S
C764 C766 1.378 . S
C764 C768 1.350 . S
C765 C768 1.463 . S
C765 C770 1.350 . S
C765 N773 1.427 . S
C766 H757 0.930 . S
C766 C764 1.378 . S
C766 C767 1.367 . S
C767 C766 1.367 . S
C767 C769 1.433 . S
C768 C764 1.350 . S
C768 C765 1.463 . S
C768 N772 1.427 . S
C769 H759 0.929 . S
C769 C767 1.433 . S
C769 N772 1.384 . S
C770 H761 0.929 . S
C770 C762 1.378 . S
C770 C765 1.350 . S
C771 H758 0.929 . S
C771 C763 1.433 . S
C771 N773 1.384 . S
N772 C768 1.427 . S
N772 C769 1.384 . S
N773 C765 1.427 . S
N773 C771 1.384 . S
H774 C780 0.930 . S
H775 C784 0.930 . S
H776 C789 0.929 . S
H777 C787 0.929 . S
H778 C782 0.929 . S
H779 C788 0.929 . S
C780 H774 0.930 . S
C780 C781 1.367 . S
C780 C788 1.378 . S
C781 C780 1.367 . S
C781 C789 1.433 . S
C782 H778 0.929 . S
C782 C784 1.378 . S
C782 C786 1.350 . S
C783 C786 1.463 1_455 S
C783 C788 1.350 . S
C783 N791 1.427 . S
C784 H775 0.930 . S
C784 C782 1.378 . S
C784 C785 1.367 . S
C785 C784 1.367 . S
C785 C787 1.433 . S
C786 C782 1.350 . S
C786 C783 1.463 1_655 S
C786 N790 1.427 . S
C787 H777 0.929 . S
C787 C785 1.433 . S
C787 N790 1.384 . S
C788 H779 0.929 . S
C788 C780 1.378 . S
C788 C783 1.350 . S
C789 H776 0.929 . S
C789 C781 1.433 . S
C789 N791 1.384 . S
N790 C786 1.427 . S
N790 C787 1.384 . S
N791 C783 1.427 . S
N791 C789 1.384 . S
H792 C798 0.930 . S
H793 C802 0.930 . S
H794 C807 0.929 . S
H795 C805 0.929 . S
H796 C800 0.929 . S
H797 C806 0.929 . S
C798 H792 0.930 . S
C798 C799 1.367 . S
C798 C806 1.378 . S
C799 C798 1.367 . S
C799 C807 1.433 . S
C800 H796 0.929 . S
C800 C802 1.378 . S
C800 C804 1.350 . S
C801 C804 1.463 1_565 S
C801 C806 1.350 . S
C801 N809 1.427 . S
C802 H793 0.930 . S
C802 C800 1.378 . S
C802 C803 1.367 . S
C803 C802 1.367 . S
C803 C805 1.433 . S
C804 C800 1.350 . S
C804 C801 1.463 1_545 S
C804 N808 1.427 . S
C805 H795 0.929 . S
C805 C803 1.433 . S
C805 N808 1.384 . S
C806 H797 0.929 . S
C806 C798 1.378 . S
C806 C801 1.350 . S
C807 H794 0.929 . S
C807 C799 1.433 . S
C807 N809 1.384 . S
N808 C804 1.427 . S
N808 C805 1.384 . S
N809 C801 1.427 . S
N809 C807 1.384 . S
H810 C816 0.930 . S
H811 C820 0.930 . S
H812 C825 0.929 . S
H813 C823 0.929 . S
H814 C818 0.929 . S
H815 C824 0.929 . S
C816 H810 0.930 . S
C816 C817 1.367 . S
C816 C824 1.378 . S
C817 C816 1.367 . S
C817 C825 1.433 . S
C818 H814 0.929 . S
C818 C820 1.378 . S
C818 C822 1.350 . S
C819 C822 1.463 . S
C819 C824 1.350 . S
C819 N827 1.427 . S
C820 H811 0.930 . S
C820 C818 1.378 . S
C820 C821 1.367 . S
C821 C820 1.367 . S
C821 C823 1.433 . S
C822 C818 1.350 . S
C822 C819 1.463 . S
C822 N826 1.427 . S
C823 H813 0.929 . S
C823 C821 1.433 . S
C823 N826 1.384 . S
C824 H815 0.929 . S
C824 C816 1.378 . S
C824 C819 1.350 . S
C825 H812 0.929 . S
C825 C817 1.433 . S
C825 N827 1.384 . S
N826 C822 1.427 . S
N826 C823 1.384 . S
N827 C819 1.427 . S
N827 C825 1.384 . S
H828 C834 0.930 . S
H829 C838 0.930 . S
H830 C843 0.929 . S
H831 C841 0.929 . S
H832 C836 0.929 . S
H833 C842 0.929 . S
C834 H828 0.930 . S
C834 C835 1.367 . S
C834 C842 1.378 . S
C835 C834 1.367 . S
C835 C843 1.433 . S
C836 H832 0.929 . S
C836 C838 1.378 . S
C836 C840 1.350 . S
C837 C840 1.463 . S
C837 C842 1.350 . S
C837 N845 1.427 . S
C838 H829 0.930 . S
C838 C836 1.378 . S
C838 C839 1.367 . S
C839 C838 1.367 . S
C839 C841 1.433 . S
C840 C836 1.350 . S
C840 C837 1.463 . S
C840 N844 1.427 . S
C841 H831 0.929 . S
C841 C839 1.433 . S
C841 N844 1.384 . S
C842 H833 0.929 . S
C842 C834 1.378 . S
C842 C837 1.350 . S
C843 H830 0.929 . S
C843 C835 1.433 . S
C843 N845 1.384 . S
N844 C840 1.427 . S
N844 C841 1.384 . S
N845 C837 1.427 . S
N845 C843 1.384 . S
H846 C852 0.930 . S
H847 C856 0.930 . S
H848 C861 0.929 1_655 S
H849 C859 0.929 . S
H850 C854 0.929 . S
H851 C860 0.929 . S
C852 H846 0.930 . S
C852 C853 1.367 . S
C852 C860 1.378 . S
C853 C852 1.367 . S
C853 C861 1.433 . S
C854 H850 0.929 . S
C854 C856 1.378 . S
C854 C858 1.350 . S
C855 C858 1.463 . S
C855 C860 1.350 . S
C855 N863 1.427 . S
C856 H847 0.930 . S
C856 C854 1.378 . S
C856 C857 1.367 . S
C857 C856 1.367 . S
C857 C859 1.433 . S
C858 C854 1.350 . S
C858 C855 1.463 . S
C858 N862 1.427 . S
C859 H849 0.929 . S
C859 C857 1.433 . S
C859 N862 1.384 . S
C860 H851 0.929 . S
C860 C852 1.378 . S
C860 C855 1.350 . S
C861 H848 0.929 1_455 S
C861 C853 1.433 . S
C861 N863 1.384 . S
N862 C858 1.427 . S
N862 C859 1.384 . S
N863 C855 1.427 . S
N863 C861 1.384 . S
H864 C870 0.930 . S
H865 C874 0.930 . S
H866 C879 0.929 . S
H867 C877 0.929 . S
H868 C872 0.929 . S
H869 C878 0.929 . S
C870 H864 0.930 . S
C870 C871 1.367 . S
C870 C878 1.378 . S
C871 C870 1.367 . S
C871 C879 1.433 . S
C872 H868 0.929 . S
C872 C874 1.378 . S
C872 C876 1.350 . S
C873 C876 1.463 . S
C873 C878 1.350 . S
C873 N881 1.427 . S
C874 H865 0.930 . S
C874 C872 1.378 . S
C874 C875 1.367 . S
C875 C874 1.367 . S
C875 C877 1.433 . S
C876 C872 1.350 . S
C876 C873 1.463 . S
C876 N880 1.427 . S
C877 H867 0.929 . S
C877 C875 1.433 . S
C877 N880 1.384 . S
C878 H869 0.929 . S
C878 C870 1.378 . S
C878 C873 1.350 . S
C879 H866 0.929 . S
C879 C871 1.433 . S
C879 N881 1.384 . S
N880 C876 1.427 . S
N880 C877 1.384 . S
N881 C873 1.427 . S
N881 C879 1.384 . S
H882 C888 0.930 . S
H883 C892 0.930 . S
H884 C897 0.929 . S
H885 C895 0.929 1_545 S
H886 C890 0.929 . S
H887 C896 0.929 . S
C888 H882 0.930 . S
C888 C889 1.367 . S
C888 C896 1.378 . S
C889 C888 1.367 . S
C889 C897 1.433 . S
C890 H886 0.929 . S
C890 C892 1.378 . S
C890 C894 1.350 . S
C891 C894 1.463 . S
C891 C896 1.350 . S
C891 N899 1.427 . S
C892 H883 0.930 . S
C892 C890 1.378 . S
C892 C893 1.367 . S
C893 C892 1.367 . S
C893 C895 1.433 . S
C894 C890 1.350 . S
C894 C891 1.463 . S
C894 N898 1.427 . S
C895 H885 0.929 1_565 S
C895 C893 1.433 . S
C895 N898 1.384 . S
C896 H887 0.929 . S
C896 C888 1.378 . S
C896 C891 1.350 . S
C897 H884 0.929 . S
C897 C889 1.433 . S
C897 N899 1.384 . S
N898 C894 1.427 . S
N898 C895 1.384 . S
N899 C891 1.427 . S
N899 C897 1.384 . S
H900 C906 0.930 . S
H901 C910 0.930 . S
H902 C915 0.929 . S
H903 C913 0.929 . S
H904 C908 0.929 . S
H905 C914 0.929 . S
C906 H900 0.930 . S
C906 C907 1.367 . S
C906 C914 1.378 . S
C907 C906 1.367 . S
C907 C915 1.433 . S
C908 H904 0.929 . S
C908 C910 1.378 . S
C908 C912 1.350 . S
C909 C912 1.463 . S
C909 C914 1.350 . S
C909 N917 1.427 . S
C910 H901 0.930 . S
C910 C908 1.378 . S
C910 C911 1.367 . S
C911 C910 1.367 . S
C911 C913 1.433 . S
C912 C908 1.350 . S
C912 C909 1.463 . S
C912 N916 1.427 . S
C913 H903 0.929 . S
C913 C911 1.433 . S
C913 N916 1.384 . S
C914 H905 0.929 . S
C914 C906 1.378 . S
C914 C909 1.350 . S
C915 H902 0.929 . S
C915 C907 1.433 . S
C915 N917 1.384 . S
N916 C912 1.427 . S
N916 C913 1.384 . S
N917 C909 1.427 . S
N917 C915 1.384 . S
H918 C924 0.930 . S
H919 C928 0.930 . S
H920 C933 0.914 1_545 S
H921 C931 0.929 . S
H922 C926 0.929 . S
H923 C932 0.929 . S
C924 H918 0.930 . S
C924 C925 1.367 . S
C924 C932 1.378 . S
C925 C924 1.367 . S
C925 C933 1.433 . S
C926 H922 0.929 . S
C926 C928 1.378 . S
C926 C930 1.350 . S
C927 C930 1.463 . S
C927 C932 1.350 . S
C927 N935 1.427 . S
C928 H919 0.930 . S
C928 C926 1.378 . S
C928 C929 1.367 . S
C929 C928 1.367 . S
C929 C931 1.433 . S
C930 C926 1.350 . S
C930 C927 1.463 . S
C930 N934 1.427 . S
C931 H921 0.929 . S
C931 C929 1.433 . S
C931 N934 1.384 . S
C932 H923 0.929 . S
C932 C924 1.378 . S
C932 C927 1.350 . S
C933 H920 0.914 1_565 S
C933 C925 1.433 . S
C933 N935 1.384 . S
N934 C930 1.427 . S
N934 C931 1.384 . S
N935 C927 1.427 . S
N935 C933 1.384 . S
C403 N112 1.446 . S
C407 N13 1.437 . S
C421 N145 1.446 . S
C425 N46 1.454 . S
C439 N178 1.437 . S
C443 N79 1.435 . S
C457 N211 1.455 . S
C461 N310 1.448 . S
C475 N244 1.442 . S
C479 N343 1.451 . S
C493 N277 1.447 . S
C497 N376 1.438 . S
C511 C315 1.846 . S
C515 C18 1.850 . S
C529 C51 1.842 . S
C533 C348 1.846 . S
C547 C381 1.844 . S
C551 C84 1.842 . S
C565 C216 1.850 . S
C569 C117 1.847 . S
C583 C150 1.844 . S
C587 C249 1.849 . S
C601 C183 1.848 . S
C605 C282 1.850 . S
C619 N2 0.510 . S
C623 N101 0.535 . S
C637 N35 0.520 . S
C641 N134 0.529 . S
C655 N167 0.529 . S
C659 N68 0.508 . S
C673 N200 0.513 . S
C677 N299 0.523 . S
C691 N233 0.518 . S
C695 N332 0.531 . S
C709 N365 0.530 . S
C713 N266 0.519 . S
C727 C384 0.896 . S
C731 C21 0.871 . S
C745 C54 0.890 . S
C749 C219 0.876 . S
C763 C252 0.884 . S
C767 C87 0.883 . S
C781 C285 0.899 . S
C785 C120 0.867 . S
C799 C153 0.871 . S
C803 C318 0.895 . S
C817 C186 0.896 . S
C821 C351 0.870 . S
C835 C7 0.959 . S
C839 C271 0.944 . S
C853 C40 0.960 . S
C857 C304 0.942 . S
C871 C337 0.941 . S
C875 C73 0.962 . S
C889 C106 0.947 . S
C893 C370 0.955 . S
C907 C205 0.953 . S
C911 C139 0.949 . S
C925 C172 0.953 . S
C929 C238 0.949 . S
