# Generated by pormake.
# Topology sml, (6)-cn, num edge types: 1
# Building blocks:
#     Node 0, Type 0, BuildingBlock: BETDIP_clean_sbu_0, # of connection points: 6
#     Node 1, Type 0, BuildingBlock: BETDIP_clean_sbu_0, # of connection points: 6
#     Node 2, Type 0, BuildingBlock: BETDIP_clean_sbu_0, # of connection points: 6
#     Node 3, Type 0, BuildingBlock: BETDIP_clean_sbu_0, # of connection points: 6
#     Node 4, Type 0, BuildingBlock: BETDIP_clean_sbu_0, # of connection points: 6
#     Node 5, Type 0, BuildingBlock: BETDIP_clean_sbu_0, # of connection points: 6
#     Edge 6, Type (0, 0), BuildingBlock: AJUNOK_clean_linker_0, # of connection points: 2
#     Edge 7, Type (0, 0), BuildingBlock: AJUNOK_clean_linker_0, # of connection points: 2
#     Edge 8, Type (0, 0), BuildingBlock: AJUNOK_clean_linker_0, # of connection points: 2
#     Edge 9, Type (0, 0), BuildingBlock: AJUNOK_clean_linker_0, # of connection points: 2
#     Edge 10, Type (0, 0), BuildingBlock: AJUNOK_clean_linker_0, # of connection points: 2
#     Edge 11, Type (0, 0), BuildingBlock: AJUNOK_clean_linker_0, # of connection points: 2
#     Edge 12, Type (0, 0), BuildingBlock: AJUNOK_clean_linker_0, # of connection points: 2
#     Edge 13, Type (0, 0), BuildingBlock: AJUNOK_clean_linker_0, # of connection points: 2
#     Edge 14, Type (0, 0), BuildingBlock: AJUNOK_clean_linker_0, # of connection points: 2
#     Edge 15, Type (0, 0), BuildingBlock: AJUNOK_clean_linker_0, # of connection points: 2
#     Edge 16, Type (0, 0), BuildingBlock: AJUNOK_clean_linker_0, # of connection points: 2
#     Edge 17, Type (0, 0), BuildingBlock: AJUNOK_clean_linker_0, # of connection points: 2
#     Edge 18, Type (0, 0), BuildingBlock: AJUNOK_clean_linker_0, # of connection points: 2
#     Edge 19, Type (0, 0), BuildingBlock: AJUNOK_clean_linker_0, # of connection points: 2
#     Edge 20, Type (0, 0), BuildingBlock: AJUNOK_clean_linker_0, # of connection points: 2
#     Edge 21, Type (0, 0), BuildingBlock: AJUNOK_clean_linker_0, # of connection points: 2
#     Edge 22, Type (0, 0), BuildingBlock: AJUNOK_clean_linker_0, # of connection points: 2
#     Edge 23, Type (0, 0), BuildingBlock: AJUNOK_clean_linker_0, # of connection points: 2
# Relax obj value: 0.319
# Max RMSD: 0.297
# Mean RMSD: 0.297
data_MOF--net-sml--node1-BETDIP_clean_sbu_0--edge1-AJUNOK_clean_linker_0
_symmetry_space_group_name_H-M    P1
_symmetry_Int_Tables_number       1
_symmetry_cell_setting            triclinic
loop_
_symmetry_equiv_pos_as_xyz
'x, y, z'
_cell_length_a     22.128068
_cell_length_b     21.961225
_cell_length_c     20.079155
_cell_angle_alpha  89.822564
_cell_angle_beta   89.946859
_cell_angle_gamma 119.73792
loop_
_atom_site_label
_atom_site_type_symbol
_atom_site_fract_x
_atom_site_fract_y
_atom_site_fract_z
_atom_type_partial_charge
Tb0 Tb 0.16993 0.43977 1.00959 0.0
Tb1 Tb 0.24144 0.39949 0.11278 0.0
C2 C 0.14273 0.47547 0.89966 0.0
C3 C 0.15925 0.4682 0.82969 0.0
C4 C 0.22782 0.48956 0.80947 0.0
C5 C 0.24223 0.48033 0.74365 0.0
C6 C 0.18834 0.44921 0.69672 0.0
C7 C 0.11972 0.42731 0.717 0.0
C8 C 0.10539 0.43702 0.78282 0.0
C9 C 0.08336 0.35474 0.10004 0.0
C10 C 0.21123 0.32078 0.9805 0.0
C11 C 0.28439 0.37548 0.22038 0.0
C12 C 0.26985 0.38287 0.29069 0.0
C13 C 0.20989 0.38587 0.30825 0.0
C14 C 0.19716 0.39507 0.37457 0.0
C15 C 0.24506 0.40322 0.42419 0.0
C16 C 0.30567 0.40148 0.40678 0.0
C17 C 0.31776 0.39088 0.34041 0.0
C18 C 0.32184 0.48536 1.01834 0.0
C19 C 0.19319 0.51182 0.14574 0.0
O20 O 0.1949 0.51804 0.93752 0.0
O21 O 0.10012 0.4169 0.93033 0.0
O22 O 0.13544 0.35143 0.07751 0.0
O23 O 0.0765 0.40207 0.06762 0.0
O24 O 0.19775 0.36946 0.95794 0.0
O25 O 0.22333 0.31627 0.0442 0.0
O26 O 0.23256 0.32718 0.18611 0.0
O27 O 0.318 0.43429 0.18714 0.0
O28 O 0.27207 0.48637 0.04731 0.0
O29 O 0.33124 0.43695 0.04487 0.0
O30 O 0.20833 0.46408 0.16732 0.0
O31 O 0.18234 0.5183 0.08205 0.0
H32 H 0.2703 0.51289 0.84454 0.0
H33 H 0.29543 0.4965 0.7297 0.0
H34 H 0.07722 0.40305 0.68182 0.0
H35 H 0.05206 0.41964 0.79727 0.0
H36 H 0.17299 0.3816 0.27075 0.0
H37 H 0.15055 0.39713 0.38699 0.0
H38 H 0.34351 0.40838 0.44449 0.0
H39 H 0.36485 0.38983 0.32779 0.0
Tb40 Tb 0.70552 0.16813 0.329 0.0
Tb41 Tb 0.82361 0.22152 0.43191 0.0
C42 C 0.64428 0.1567 0.22046 0.0
C43 C 0.66854 0.16831 0.14981 0.0
C44 C 0.69683 0.23497 0.11974 0.0
C45 C 0.72274 0.24612 0.05436 0.0
C46 C 0.72061 0.1908 1.01729 0.0
C47 C 0.69142 0.12404 0.04696 0.0
C48 C 0.6654 0.11284 0.11214 0.0
C49 C 0.70228 0.07116 0.40744 0.0
C50 C 0.86208 0.20435 0.28924 0.0
C51 C 0.88989 0.23899 0.5385 0.0
C52 C 0.87197 0.23514 0.61052 0.0
C53 C 0.84831 0.17239 0.6468 0.0
C54 C 0.82841 0.16811 0.71373 0.0
C55 C 0.83105 0.22625 0.74588 0.0
C56 C 0.85755 0.28976 0.71046 0.0
C57 C 0.87781 0.29419 0.64373 0.0
C58 C 0.81848 0.31612 0.35441 0.0
C59 C 0.66925 0.18928 0.47357 0.0
O60 O 0.66776 0.21217 0.25865 0.0
O61 O 0.64371 0.10377 0.25137 0.0
O62 O 0.75681 0.12387 0.38505 0.0
O63 O 0.64821 0.06802 0.37883 0.0
O64 O 0.80052 0.19601 0.27241 0.0
O65 O 0.88045 0.20581 0.35215 0.0
O66 O 0.86085 0.17991 0.50518 0.0
O67 O 0.89088 0.29034 0.5042 0.0
O68 O 0.76843 0.26276 0.37998 0.0
O69 O 0.87627 0.32054 0.3746 0.0
O70 O 0.73091 0.19795 0.49044 0.0
O71 O 0.64948 0.18456 0.41035 0.0
H72 H 0.69972 0.27882 0.14695 0.0
H73 H 0.74553 0.29837 1.03322 0.0
H74 H 0.68842 0.08022 1.01954 0.0
H75 H 0.64342 0.06065 0.13323 0.0
H76 H 0.84389 0.12608 0.62316 0.0
H77 H 0.80834 0.11841 0.73958 0.0
H78 H 0.86233 0.33614 0.73426 0.0
H79 H 0.89723 0.34385 0.61795 0.0
Tb80 Tb 0.56739 0.72624 0.6701 0.0
Tb81 Tb 0.59282 0.83684 0.77608 0.0
C82 C 0.54578 0.66056 0.56277 0.0
C83 C 0.5545 0.68361 0.49267 0.0
C84 C 0.61094 0.74866 0.47342 0.0
C85 C 0.61824 0.77138 0.40751 0.0
C86 C 0.56957 0.7294 0.3593 0.0
C87 C 0.51277 0.66451 0.3785 0.0
C88 C 0.50548 0.64167 0.44474 0.0
C89 C 0.65948 0.74477 0.76071 0.0
C90 C 0.65498 0.89245 0.63648 0.0
C91 C 0.62783 0.903 0.88401 0.0
C92 C 0.61715 0.88123 0.95445 0.0
C93 C 0.55793 0.81884 0.97439 0.0
C94 C 0.55032 0.79551 0.04018 0.0
C95 C 0.60172 0.83443 0.08754 0.0
C96 C 0.65996 0.89826 0.06803 0.0
C97 C 0.66778 0.92123 1.00185 0.0
C98 C 0.498 0.81731 0.68779 0.0
C99 C 0.48766 0.67249 0.80469 0.0
O100 O 0.49668 0.66403 0.59615 0.0
O101 O 0.60333 0.68402 0.59716 0.0
O102 O 0.65059 0.79231 0.73521 0.0
O103 O 0.61986 0.68546 0.73193 0.0
O104 O 0.61767 0.8268 0.61571 0.0
O105 O 0.6598 0.90965 0.70006 0.0
O106 O 0.66845 0.88668 0.85019 0.0
O107 O 0.5719 0.89025 0.85071 0.0
O108 O 0.50995 0.77084 0.71077 0.0
O109 O 0.53325 0.87491 0.72128 0.0
O110 O 0.52654 0.7372 0.8272 0.0
O111 O 0.49003 0.65527 0.74186 0.0
H112 H 0.6496 0.78223 0.50921 0.0
H113 H 0.66169 0.82223 0.39436 0.0
H114 H 0.4745 0.63124 0.34217 0.0
H115 H 0.46166 0.59134 0.45855 0.0
H116 H 0.51785 0.78768 0.93898 0.0
H117 H 0.50488 0.74622 0.05366 0.0
H118 H 0.69955 0.93029 0.10386 0.0
H119 H 0.71364 0.96982 0.98754 0.0
Tb120 Tb 0.82275 0.55571 1.00525 0.0
Tb121 Tb 0.74607 0.59533 0.10766 0.0
C122 C 0.84869 0.51853 0.8959 0.0
C123 C 0.83008 0.5237 0.82583 0.0
C124 C 0.7615 0.48213 0.80246 0.0
C125 C 0.74421 0.48913 0.73692 0.0
C126 C 0.7949 0.53826 0.6936 0.0
C127 C 0.86341 0.57945 0.71659 0.0
C128 C 0.88094 0.57189 0.78187 0.0
C129 C 0.90206 0.63919 0.09912 0.0
C130 C 0.77899 0.67358 0.9742 0.0
C131 C 0.71314 0.6294 0.21546 0.0
C132 C 0.71818 0.61573 0.2872 0.0
C133 C 0.77457 0.66494 0.3251 0.0
C134 C 0.78252 0.65087 0.39146 0.0
C135 C 0.73379 0.58756 0.42215 0.0
C136 C 0.67515 0.5401 0.38532 0.0
C137 C 0.66763 0.55381 0.31853 0.0
C138 C 0.66992 0.5103 1.01247 0.0
C139 C 0.78741 0.47593 0.13965 0.0
O140 O 0.79767 0.47607 0.93541 0.0
O141 O 0.89175 0.57782 0.92513 0.0
O142 O 0.85073 0.64051 0.073 0.0
O143 O 0.91588 0.59657 0.06654 0.0
O144 O 0.79572 0.62684 0.95243 0.0
O145 O 0.76427 0.677 1.03727 0.0
O146 O 0.77224 0.66856 0.18428 0.0
O147 O 0.66924 0.57625 0.17915 0.0
O148 O 0.71986 0.51036 0.04222 0.0
O149 O 0.65652 0.55595 0.03964 0.0
O150 O 0.76411 0.51808 0.15944 0.0
O151 O 0.80974 0.47699 0.0783 0.0
H152 H 0.72083 0.44473 0.83491 0.0
H153 H 0.69088 0.45719 0.72049 0.0
H154 H 0.90342 0.6176 0.68398 0.0
H155 H 0.93418 0.60446 0.79824 0.0
H156 H 0.81391 0.71368 0.30293 0.0
H157 H 0.8284 0.68881 0.41795 0.0
H158 H 0.63488 0.49227 0.40797 0.0
H159 H 0.6225 0.5155 0.29137 0.0
Tb160 Tb 0.26383 0.81779 0.33764 0.0
Tb161 Tb 0.15031 0.75644 0.44408 0.0
C162 C 0.3271 0.83907 0.22881 0.0
C163 C 0.3029 0.82692 0.1589 0.0
C164 C 0.24806 0.76161 0.1383 0.0
C165 C 0.2223 0.75255 0.07334 0.0
C166 C 0.25023 0.8088 1.0279 0.0
C167 C 0.30557 0.87388 0.04825 0.0
C168 C 0.3317 0.88278 0.11311 0.0
C169 C 0.26636 0.91003 0.42135 0.0
C170 C 0.1046 0.77499 0.30499 0.0
C171 C 0.08189 0.73067 0.55061 0.0
C172 C 0.09959 0.74463 0.62209 0.0
C173 C 0.14438 0.81279 0.64545 0.0
C174 C 0.16389 0.82419 0.71248 0.0
C175 C 0.13976 0.76767 0.75755 0.0
C176 C 0.09337 0.69977 0.7344 0.0
C177 C 0.0733 0.68846 0.66748 0.0
C178 C 0.15641 0.6668 0.36045 0.0
C179 C 0.30707 0.79736 0.47934 0.0
O180 O 0.30937 0.78348 0.26609 0.0
O181 O 0.3198 0.88729 0.26004 0.0
O182 O 0.21192 0.8573 0.39939 0.0
O183 O 0.32058 0.91525 0.39117 0.0
O184 O 0.16618 0.7867 0.28357 0.0
O185 O 0.08942 0.77133 0.36894 0.0
O186 O 0.09701 0.7849 0.51232 0.0
O187 O 0.09734 0.68638 0.52244 0.0
O188 O 0.20621 0.71998 0.38592 0.0
O189 O 0.09867 0.65928 0.38454 0.0
O190 O 0.24629 0.78864 0.49947 0.0
O191 O 0.32344 0.80096 0.41519 0.0
H192 H 0.22422 0.71783 0.17263 0.0
H193 H 0.17945 0.70192 0.05905 0.0
H194 H 0.32867 0.91787 1.01395 0.0
H195 H 0.37372 0.93371 0.1279 0.0
H196 H 0.16583 0.85722 0.61176 0.0
H197 H 0.20028 0.87706 0.72825 0.0
H198 H 0.07308 0.6552 0.76797 0.0
H199 H 0.03824 0.63549 0.65084 0.0
Tb200 Tb 0.41975 0.26018 0.67614 0.0
Tb201 Tb 0.38957 0.14611 0.78097 0.0
C202 C 0.44523 0.32622 0.5679 0.0
C203 C 0.43709 0.30456 0.4969 0.0
C204 C 0.49107 0.30142 0.46297 0.0
C205 C 0.48074 0.27391 0.39862 0.0
C206 C 0.41731 0.25157 0.36564 0.0
C207 C 0.36464 0.25835 0.39791 0.0
C208 C 0.37421 0.28411 0.46302 0.0
C209 C 0.33236 0.24723 0.76987 0.0
C210 C 0.32088 0.09533 0.64389 0.0
C211 C 0.35568 0.07878 0.88891 0.0
C212 C 0.36149 0.09748 0.96061 0.0
C213 C 0.31011 0.10717 0.99218 0.0
C214 C 0.31746 0.12813 0.05879 0.0
C215 C 0.37597 0.13919 0.09581 0.0
C216 C 0.42628 0.12742 0.06482 0.0
C217 C 0.41892 0.10643 0.99819 0.0
C218 C 0.4799 0.16134 0.68823 0.0
C219 C 0.49843 0.30853 0.81115 0.0
O220 O 0.49262 0.32059 0.60242 0.0
O221 O 0.38752 0.30493 0.60186 0.0
O222 O 0.33668 0.19748 0.7435 0.0
O223 O 0.37234 0.30544 0.73889 0.0
O224 O 0.36176 0.1604 0.62259 0.0
O225 O 0.31649 0.07729 0.70724 0.0
O226 O 0.31283 0.09033 0.85298 0.0
O227 O 0.41399 0.0965 0.85724 0.0
O228 O 0.47231 0.20926 0.71405 0.0
O229 O 0.44232 0.10316 0.72064 0.0
O230 O 0.45519 0.24443 0.83336 0.0
O231 O 0.49906 0.32681 0.74795 0.0
H232 H 0.54075 0.31841 0.48681 0.0
H233 H 0.52222 0.26961 0.37469 0.0
H234 H 0.31534 0.24197 0.37343 0.0
H235 H 0.33184 0.28687 0.48715 0.0
H236 H 0.26451 0.09952 0.9652 0.0
H237 H 0.27731 0.13588 0.08135 0.0
H238 H 0.4726 0.13655 0.09136 0.0
H239 H 0.45913 0.0987 0.97573 0.0
C240 C 0.30585 0.24165 0.89083 0.0
C241 C 0.28597 0.24216 0.82448 0.0
C242 C 0.27586 0.26008 0.94314 0.0
C243 C 0.22578 0.28042 0.93024 0.0
H244 H 0.34863 0.23265 0.90194 0.0
H245 H 0.29654 0.2644 0.99286 0.0
S246 S 0.14847 0.2783 0.76565 0.0
N247 N 0.20801 0.25594 0.74933 0.0
N248 N 0.15053 0.28943 0.84705 0.0
C249 C 0.20106 0.27442 0.8646 0.0
C250 C 0.23174 0.25592 0.81174 0.0
C251 C 0.95938 0.29547 0.13282 0.0
C252 C 0.02537 0.30198 0.14164 0.0
C253 C 0.90542 0.2584 0.17806 0.0
C254 C 0.91542 0.22785 0.2357 0.0
H255 H 0.94975 0.32172 0.09182 0.0
H256 H 0.85696 0.25822 0.16965 0.0
S257 S 0.07264 0.21511 0.27395 0.0
N258 N 0.09296 0.26236 0.20481 0.0
N259 N -0.00729 0.19654 0.29344 0.0
C260 C 0.97908 0.22865 0.24243 0.0
C261 C 0.03371 0.2647 0.19449 0.0
C262 C 0.74587 0.0139 0.48925 0.0
C263 C 0.69595 0.03249 0.46998 0.0
C264 C 0.73466 0.97071 0.54553 0.0
C265 C 0.67487 0.94787 0.58549 0.0
H266 H 0.79192 0.02991 0.459 0.0
H267 H 0.77182 0.95365 0.55679 0.0
S268 S 0.53081 0.98553 0.55847 0.0
N269 N 0.58458 0.02422 0.4957 0.0
N270 N 0.56811 0.9508 0.60385 0.0
C271 C 0.62703 0.96952 0.56842 0.0
C272 C 0.63638 0.00991 0.51002 0.0
C273 C 0.67963 0.74592 0.88232 0.0
C274 C 0.70466 0.7516 0.81699 0.0
C275 C 0.709 0.72758 0.93516 0.0
C276 C 0.76357 0.71326 0.92386 0.0
H277 H 0.63364 0.74993 0.89198 0.0
H278 H 0.68466 0.71853 0.98376 0.0
S279 S 0.85576 0.73455 0.76386 0.0
N280 N 0.79274 0.75135 0.74528 0.0
N281 N 0.84845 0.7172 0.84446 0.0
C282 C 0.79314 0.72548 0.85983 0.0
C283 C 0.76332 0.74431 0.80629 0.0
C284 C 0.06171 0.7745 0.18937 0.0
C285 C 0.04741 0.75109 0.25592 0.0
C286 C 0.0117 0.74148 0.13918 0.0
C287 C 0.94591 0.6839 0.15381 0.0
H288 H 0.11301 0.81635 0.17545 0.0
H289 H 0.02599 0.75855 0.08804 0.0
S290 S 0.88547 0.59746 0.31829 0.0
N291 N 0.96342 0.66476 0.3328 0.0
N292 N 0.87079 0.60283 0.2386 0.0
C293 C 0.93051 0.6611 0.22017 0.0
C294 C 0.98088 0.6949 0.27134 0.0
C295 C 0.34917 0.02373 0.57101 0.0
C296 C 0.29899 0.04009 0.59348 0.0
C297 C 0.33669 0.98041 0.5162 0.0
C298 C 0.27292 0.95051 0.48211 0.0
H299 H 0.39956 0.04626 0.59473 0.0
H300 H 0.378 0.97082 0.50016 0.0
S301 S 0.12303 0.97495 0.52302 0.0
N302 N 0.18247 0.0225 0.57911 0.0
N303 N 0.15788 0.93871 0.47588 0.0
C304 C 0.221 0.96433 0.50536 0.0
C305 C 0.23433 0.00979 0.56117 0.0
C306 C 0.16631 0.37187 0.5974 0.0
C307 C 0.20355 0.43851 0.627 0.0
C308 C 0.18048 0.36053 0.53184 0.0
C309 C 0.23227 0.41546 0.49379 0.0
H310 H 0.12629 0.32808 0.62526 0.0
H311 H 0.15085 0.30855 0.51073 0.0
S312 S 0.33866 0.60074 0.54487 0.0
N313 N 0.29088 0.56101 0.6112 0.0
N314 N 0.31727 0.53931 0.48799 0.0
C315 C 0.26885 0.48238 0.52209 0.0
C316 C 0.25457 0.49402 0.58874 0.0
C317 C 0.79507 0.17758 0.93014 0.0
C318 C 0.7495 0.20228 0.9482 0.0
C319 C 0.82174 0.18614 0.86509 0.0
C320 C 0.80394 0.21974 0.81529 0.0
H321 H 0.81057 0.15167 0.96677 0.0
H322 H 0.85688 0.16655 0.85379 0.0
S323 S 0.68203 0.28871 0.83519 0.0
N324 N 0.68526 0.25879 0.90987 0.0
N325 N 0.7348 0.27454 0.78788 0.0
C326 C 0.75802 0.24423 0.83256 0.0
C327 C 0.73101 0.23562 0.89883 0.0
C328 C 0.52281 0.75555 0.25621 0.0
C329 C 0.57807 0.75415 0.28934 0.0
C330 C 0.53096 0.7819 0.19111 0.0
C331 C 0.5946 0.80759 0.15676 0.0
H332 H 0.47337 0.73745 0.28126 0.0
H333 H 0.48737 0.78302 0.16782 0.0
S334 S 0.75324 0.80971 0.21966 0.0
N335 N 0.69717 0.77697 0.28193 0.0
N336 N 0.71232 0.82583 0.15942 0.0
C337 C 0.64973 0.80505 0.18894 0.0
C338 C 0.64149 0.77844 0.25521 0.0
C339 C 0.78802 0.61443 0.60458 0.0
C340 C 0.77619 0.54818 0.62502 0.0
C341 C 0.77225 0.6259 0.5398 0.0
C342 C 0.74521 0.57187 0.4921 0.0
H343 H 0.80941 0.65781 0.63904 0.0
H344 H 0.78158 0.67783 0.52705 0.0
S345 S 0.7075 0.38882 0.52056 0.0
N346 N 0.73606 0.42761 0.59319 0.0
N347 N 0.70917 0.44936 0.47035 0.0
C348 C 0.7331 0.50503 0.51216 0.0
C349 C 0.74804 0.49319 0.57874 0.0
C350 C 0.18761 0.73349 0.85512 0.0
C351 C 0.16611 0.77867 0.82736 0.0
C352 C 0.21444 0.74344 0.91994 0.0
C353 C 0.22148 0.79935 0.95943 0.0
H354 H 0.18479 0.69063 0.82614 0.0
H355 H 0.23082 0.70769 0.93893 0.0
S356 S 0.16834 0.92954 0.91272 0.0
N357 N 0.15016 0.8792 0.84637 0.0
N358 N 0.20188 0.89857 0.96764 0.0
C359 C 0.19968 0.84457 0.93276 0.0
C360 C 0.17177 0.83411 0.86693 0.0
C361 C 0.38275 0.24792 0.24618 0.0
C362 C 0.40618 0.22128 0.29764 0.0
C363 C 0.37296 0.2209 0.18139 0.0
C364 C 0.38561 0.1657 0.16555 0.0
H365 H 0.37304 0.29084 0.25581 0.0
H366 H 0.35636 0.24428 0.14313 0.0
S367 S 0.44173 0.07346 0.2843 0.0
N368 N 0.43846 0.13441 0.32958 0.0
N369 N 0.41882 0.08261 0.20827 0.0
C370 C 0.40777 0.13767 0.21706 0.0
C371 C 0.41828 0.16564 0.28292 0.0
C372 C 0.23217 0.58221 0.24963 0.0
C373 C 0.18467 0.55547 0.19656 0.0
C374 C 0.22256 0.6185 0.30213 0.0
C375 C 0.1638 0.62715 0.30473 0.0
H376 H 0.27718 0.57498 0.25058 0.0
H377 H 0.26089 0.63895 0.34161 0.0
S378 S 0.02406 0.56689 0.17829 0.0
N379 N 0.07756 0.5412 0.14903 0.0
N380 N 0.05762 0.60641 0.24965 0.0
C381 C 0.11557 0.60015 0.25235 0.0
C382 C 0.12657 0.56517 0.19765 0.0
C383 C 0.56623 0.19613 0.51789 0.0
C384 C 0.62145 0.18291 0.5288 0.0
C385 C 0.52142 0.19086 0.57014 0.0
C386 C 0.52939 0.17074 0.6346 0.0
H387 H 0.55776 0.21083 0.46877 0.0
H388 H 0.47892 0.20025 0.55948 0.0
S389 S 0.65944 0.12207 0.68843 0.0
N390 N 0.67871 0.14509 0.60957 0.0
N391 N 0.59221 0.13237 0.70575 0.0
C392 C 0.58258 0.15523 0.64585 0.0
C393 C 0.62938 0.16232 0.59356 0.0
C394 C 0.36863 0.59691 0.95426 0.0
C395 C 0.36011 0.52945 0.96047 0.0
C396 C 0.40762 0.64137 0.90185 0.0
C397 C 0.43899 0.61992 0.85316 0.0
H398 H 0.34644 0.61618 0.99109 0.0
H399 H 0.41359 0.69333 0.89971 0.0
S400 S 0.42238 0.44395 0.84136 0.0
N401 N 0.37973 0.44026 0.91017 0.0
N402 N 0.45245 0.52382 0.81075 0.0
C403 C 0.42729 0.55101 0.85653 0.0
C404 C 0.3883 0.50591 0.91066 0.0
C405 C 0.85853 0.38258 0.24644 0.0
C406 C 0.81087 0.35695 0.29974 0.0
C407 C 0.8485 0.41738 0.19222 0.0
C408 C 0.79196 0.42986 0.19097 0.0
H409 H 0.90328 0.37498 0.24625 0.0
H410 H 0.88632 0.43649 0.15217 0.0
S411 S 0.6527 0.37278 0.31832 0.0
N412 N 0.70459 0.34496 0.34719 0.0
N413 N 0.68715 0.41235 0.24704 0.0
C414 C 0.74412 0.40425 0.24404 0.0
C415 C 0.75341 0.36759 0.29813 0.0
C416 C 0.40616 0.78196 0.52059 0.0
C417 C 0.35703 0.80376 0.53188 0.0
C418 C 0.45022 0.78371 0.572 0.0
C419 C 0.44684 0.80775 0.63601 0.0
H420 H 0.41009 0.76267 0.47211 0.0
H421 H 0.48881 0.76883 0.56068 0.0
S422 S 0.33495 0.87989 0.68901 0.0
N423 N 0.31211 0.85554 0.61116 0.0
N424 N 0.39582 0.85981 0.70621 0.0
C425 C 0.40003 0.83203 0.64714 0.0
C426 C 0.35478 0.82963 0.59554 0.0
C427 C 0.61167 0.48169 0.90085 0.0
C428 C 0.62813 0.4596 0.96054 0.0
C429 C 0.57249 0.43302 0.85099 0.0
C430 C 0.54609 0.36055 0.86059 0.0
H431 H 0.62992 0.53688 0.89233 0.0
H432 H 0.56119 0.45212 0.80557 0.0
S433 S 0.57677 0.27762 1.00901 0.0
N434 N 0.6184 0.3622 1.02572 0.0
N435 N 0.54178 0.27021 0.93478 0.0
C436 C 0.56317 0.33848 0.92034 0.0
C437 C 0.60486 0.38816 0.96965 0.0
loop_
_geom_bond_atom_site_label_1
_geom_bond_atom_site_label_2
_geom_bond_distance
_geom_bond_site_symmetry_2
_ccdc_geom_bond_type
Tb0 C2 2.809 . S
Tb0 O20 2.484 . S
Tb0 O21 2.440 . S
Tb0 O22 2.658 1_556 S
Tb0 O23 2.409 1_556 S
Tb0 O24 2.378 . S
Tb0 O28 2.325 . S
Tb0 O31 2.341 1_556 S
Tb1 C11 2.809 . S
Tb1 O22 2.325 . S
Tb1 O25 2.341 1_554 S
Tb1 O26 2.484 . S
Tb1 O27 2.440 . S
Tb1 O28 2.658 1_554 S
Tb1 O29 2.409 . S
Tb1 O30 2.378 . S
C2 Tb0 2.809 . S
C2 C3 1.514 . S
C2 O20 1.248 . S
C2 O21 1.266 . S
C3 C2 1.514 . S
C3 C4 1.359 . S
C3 C8 1.348 . S
C4 C3 1.359 . S
C4 C5 1.380 . S
C4 H32 0.929 . S
C5 C4 1.380 . S
C5 C6 1.347 . S
C5 H33 0.931 . S
C6 C5 1.347 . S
C6 C7 1.369 . S
C7 C6 1.369 . S
C7 C8 1.408 . S
C7 H34 0.930 1_455 S
C8 C3 1.348 . S
C8 C7 1.408 . S
C8 H35 0.920 1_455 S
C9 O22 1.281 . S
C9 O23 1.254 . S
C10 O24 1.236 . S
C10 O25 1.266 . S
C11 Tb1 2.809 . S
C11 C12 1.514 . S
C11 O26 1.248 . S
C11 O27 1.266 . S
C12 C11 1.514 . S
C12 C13 1.359 . S
C12 C17 1.348 . S
C13 C12 1.359 . S
C13 C14 1.380 . S
C13 H36 0.929 . S
C14 C13 1.380 . S
C14 C15 1.347 . S
C14 H37 0.931 . S
C15 C14 1.347 . S
C15 C16 1.369 . S
C16 C15 1.369 . S
C16 C17 1.408 . S
C16 H38 0.930 . S
C17 C12 1.348 . S
C17 C16 1.408 . S
C17 H39 0.930 . S
C18 O28 1.281 . S
C18 O29 1.254 1_556 S
C19 O30 1.236 . S
C19 O31 1.266 . S
O20 Tb0 2.484 . S
O20 C2 1.248 . S
O21 Tb0 2.440 . S
O21 C2 1.266 . S
O22 Tb0 2.658 1_554 S
O22 Tb1 2.325 . S
O22 C9 1.281 . S
O23 Tb0 2.409 1_554 S
O23 C9 1.254 . S
O24 Tb0 2.378 . S
O24 C10 1.236 . S
O25 Tb1 2.341 1_556 S
O25 C10 1.266 . S
O26 Tb1 2.484 . S
O26 C11 1.248 . S
O27 Tb1 2.440 . S
O27 C11 1.266 . S
O28 Tb0 2.325 . S
O28 Tb1 2.658 1_556 S
O28 C18 1.281 . S
O29 Tb1 2.409 . S
O29 C18 1.254 1_554 S
O30 Tb1 2.378 . S
O30 C19 1.236 . S
O31 Tb0 2.341 1_554 S
O31 C19 1.266 . S
H32 C4 0.929 . S
H33 C5 0.931 . S
H34 C7 0.930 1_655 S
H35 C8 0.920 1_655 S
H36 C13 0.929 . S
H37 C14 0.931 . S
H38 C16 0.930 . S
H39 C17 0.930 . S
Tb40 C42 2.809 . S
Tb40 O60 2.484 . S
Tb40 O61 2.440 . S
Tb40 O62 2.658 . S
Tb40 O63 2.409 . S
Tb40 O64 2.378 . S
Tb40 O68 2.325 . S
Tb40 O71 2.341 . S
Tb41 C51 2.809 . S
Tb41 O62 2.325 . S
Tb41 O65 2.341 . S
Tb41 O66 2.484 . S
Tb41 O67 2.440 . S
Tb41 O68 2.658 . S
Tb41 O69 2.409 . S
Tb41 O70 2.378 . S
C42 Tb40 2.809 . S
C42 C43 1.514 . S
C42 O60 1.248 . S
C42 O61 1.266 . S
C43 C42 1.514 . S
C43 C44 1.359 . S
C43 C48 1.348 . S
C44 C43 1.359 . S
C44 C45 1.380 1_554 S
C44 H72 0.929 . S
C45 C44 1.380 1_556 S
C45 C46 1.347 . S
C45 H73 0.931 . S
C46 C45 1.347 . S
C46 C47 1.369 1_556 S
C47 C46 1.369 1_554 S
C47 C48 1.408 . S
C47 H74 0.930 1_544 S
C48 C43 1.348 . S
C48 C47 1.408 . S
C48 H75 0.919 1_545 S
C49 O62 1.281 . S
C49 O63 1.254 . S
C50 O64 1.236 . S
C50 O65 1.266 . S
C51 Tb41 2.809 . S
C51 C52 1.514 . S
C51 O66 1.248 . S
C51 O67 1.266 . S
C52 C51 1.514 . S
C52 C53 1.359 . S
C52 C57 1.348 . S
C53 C52 1.359 . S
C53 C54 1.380 . S
C53 H76 0.929 . S
C54 C53 1.380 . S
C54 C55 1.347 . S
C54 H77 0.931 . S
C55 C54 1.347 . S
C55 C56 1.369 . S
C56 C55 1.369 . S
C56 C57 1.408 . S
C56 H78 0.930 . S
C57 C52 1.348 . S
C57 C56 1.408 . S
C57 H79 0.930 . S
C58 O68 1.281 . S
C58 O69 1.254 . S
C59 O70 1.236 . S
C59 O71 1.266 . S
O60 Tb40 2.484 . S
O60 C42 1.248 . S
O61 Tb40 2.440 . S
O61 C42 1.266 . S
O62 Tb40 2.658 . S
O62 Tb41 2.325 . S
O62 C49 1.281 . S
O63 Tb40 2.409 . S
O63 C49 1.254 . S
O64 Tb40 2.378 . S
O64 C50 1.236 . S
O65 Tb41 2.341 . S
O65 C50 1.266 . S
O66 Tb41 2.484 . S
O66 C51 1.248 . S
O67 Tb41 2.440 . S
O67 C51 1.266 . S
O68 Tb40 2.325 . S
O68 Tb41 2.658 . S
O68 C58 1.281 . S
O69 Tb41 2.409 . S
O69 C58 1.254 . S
O70 Tb41 2.378 . S
O70 C59 1.236 . S
O71 Tb40 2.341 . S
O71 C59 1.266 . S
H72 C44 0.929 . S
H73 C45 0.931 . S
H74 C47 0.930 1_566 S
H75 C48 0.919 1_565 S
H76 C53 0.929 . S
H77 C54 0.931 . S
H78 C56 0.930 . S
H79 C57 0.930 . S
Tb80 C82 2.809 . S
Tb80 O100 2.484 . S
Tb80 O101 2.440 . S
Tb80 O102 2.658 . S
Tb80 O103 2.409 . S
Tb80 O104 2.378 . S
Tb80 O108 2.325 . S
Tb80 O111 2.341 . S
Tb81 C91 2.809 . S
Tb81 O102 2.325 . S
Tb81 O105 2.341 . S
Tb81 O106 2.484 . S
Tb81 O107 2.440 . S
Tb81 O108 2.658 . S
Tb81 O109 2.409 . S
Tb81 O110 2.378 . S
C82 Tb80 2.809 . S
C82 C83 1.514 . S
C82 O100 1.248 . S
C82 O101 1.266 . S
C83 C82 1.514 . S
C83 C84 1.359 . S
C83 C88 1.348 . S
C84 C83 1.359 . S
C84 C85 1.380 . S
C84 H112 0.929 . S
C85 C84 1.380 . S
C85 C86 1.347 . S
C85 H113 0.931 . S
C86 C85 1.347 . S
C86 C87 1.369 . S
C87 C86 1.369 . S
C87 C88 1.408 . S
C87 H114 0.930 . S
C88 C83 1.348 . S
C88 C87 1.408 . S
C88 H115 0.930 . S
C89 O102 1.281 . S
C89 O103 1.254 . S
C90 O104 1.236 . S
C90 O105 1.266 . S
C91 Tb81 2.809 . S
C91 C92 1.514 . S
C91 O106 1.248 . S
C91 O107 1.266 . S
C92 C91 1.514 . S
C92 C93 1.359 . S
C92 C97 1.348 . S
C93 C92 1.359 . S
C93 C94 1.380 1_556 S
C93 H116 0.929 . S
C94 C93 1.380 1_554 S
C94 C95 1.347 . S
C94 H117 0.931 . S
C95 C94 1.347 . S
C95 C96 1.369 . S
C96 C95 1.369 . S
C96 C97 1.408 1_554 S
C96 H118 0.930 . S
C97 C92 1.348 . S
C97 C96 1.408 1_556 S
C97 H119 0.930 . S
C98 O108 1.281 . S
C98 O109 1.254 . S
C99 O110 1.236 . S
C99 O111 1.266 . S
O100 Tb80 2.484 . S
O100 C82 1.248 . S
O101 Tb80 2.440 . S
O101 C82 1.266 . S
O102 Tb80 2.658 . S
O102 Tb81 2.325 . S
O102 C89 1.281 . S
O103 Tb80 2.409 . S
O103 C89 1.254 . S
O104 Tb80 2.378 . S
O104 C90 1.236 . S
O105 Tb81 2.341 . S
O105 C90 1.266 . S
O106 Tb81 2.484 . S
O106 C91 1.248 . S
O107 Tb81 2.440 . S
O107 C91 1.266 . S
O108 Tb80 2.325 . S
O108 Tb81 2.658 . S
O108 C98 1.281 . S
O109 Tb81 2.409 . S
O109 C98 1.254 . S
O110 Tb81 2.378 . S
O110 C99 1.236 . S
O111 Tb80 2.341 . S
O111 C99 1.266 . S
H112 C84 0.929 . S
H113 C85 0.931 . S
H114 C87 0.930 . S
H115 C88 0.930 . S
H116 C93 0.929 . S
H117 C94 0.931 . S
H118 C96 0.930 . S
H119 C97 0.930 . S
Tb120 C122 2.809 . S
Tb120 O140 2.484 . S
Tb120 O141 2.440 . S
Tb120 O142 2.658 1_556 S
Tb120 O143 2.409 1_556 S
Tb120 O144 2.378 . S
Tb120 O148 2.325 . S
Tb120 O151 2.341 1_556 S
Tb121 C131 2.809 . S
Tb121 O142 2.325 . S
Tb121 O145 2.341 1_554 S
Tb121 O146 2.484 . S
Tb121 O147 2.440 . S
Tb121 O148 2.658 1_554 S
Tb121 O149 2.409 . S
Tb121 O150 2.378 . S
C122 Tb120 2.809 . S
C122 C123 1.514 . S
C122 O140 1.248 . S
C122 O141 1.266 . S
C123 C122 1.514 . S
C123 C124 1.359 . S
C123 C128 1.348 . S
C124 C123 1.359 . S
C124 C125 1.380 . S
C124 H152 0.929 . S
C125 C124 1.380 . S
C125 C126 1.347 . S
C125 H153 0.931 . S
C126 C125 1.347 . S
C126 C127 1.369 . S
C127 C126 1.369 . S
C127 C128 1.408 . S
C127 H154 0.930 1_655 S
C128 C123 1.348 . S
C128 C127 1.408 . S
C128 H155 0.920 1_655 S
C129 O142 1.281 . S
C129 O143 1.254 . S
C130 O144 1.236 . S
C130 O145 1.266 . S
C131 Tb121 2.809 . S
C131 C132 1.514 . S
C131 O146 1.248 . S
C131 O147 1.266 . S
C132 C131 1.514 . S
C132 C133 1.359 . S
C132 C137 1.348 . S
C133 C132 1.359 . S
C133 C134 1.380 . S
C133 H156 0.929 . S
C134 C133 1.380 . S
C134 C135 1.347 . S
C134 H157 0.931 . S
C135 C134 1.347 . S
C135 C136 1.369 . S
C136 C135 1.369 . S
C136 C137 1.408 . S
C136 H158 0.930 . S
C137 C132 1.348 . S
C137 C136 1.408 . S
C137 H159 0.930 . S
C138 O148 1.281 . S
C138 O149 1.254 1_556 S
C139 O150 1.236 . S
C139 O151 1.266 . S
O140 Tb120 2.484 . S
O140 C122 1.248 . S
O141 Tb120 2.440 . S
O141 C122 1.266 . S
O142 Tb120 2.658 1_554 S
O142 Tb121 2.325 . S
O142 C129 1.281 . S
O143 Tb120 2.409 1_554 S
O143 C129 1.254 . S
O144 Tb120 2.378 . S
O144 C130 1.236 . S
O145 Tb121 2.341 1_556 S
O145 C130 1.266 . S
O146 Tb121 2.484 . S
O146 C131 1.248 . S
O147 Tb121 2.440 . S
O147 C131 1.266 . S
O148 Tb120 2.325 . S
O148 Tb121 2.658 1_556 S
O148 C138 1.281 . S
O149 Tb121 2.409 . S
O149 C138 1.254 1_554 S
O150 Tb121 2.378 . S
O150 C139 1.236 . S
O151 Tb120 2.341 1_554 S
O151 C139 1.266 . S
H152 C124 0.929 . S
H153 C125 0.931 . S
H154 C127 0.930 1_455 S
H155 C128 0.920 1_455 S
H156 C133 0.929 . S
H157 C134 0.931 . S
H158 C136 0.930 . S
H159 C137 0.930 . S
Tb160 C162 2.809 . S
Tb160 O180 2.484 . S
Tb160 O181 2.440 . S
Tb160 O182 2.658 . S
Tb160 O183 2.409 . S
Tb160 O184 2.378 . S
Tb160 O188 2.325 . S
Tb160 O191 2.341 . S
Tb161 C171 2.809 . S
Tb161 O182 2.325 . S
Tb161 O185 2.341 . S
Tb161 O186 2.484 . S
Tb161 O187 2.440 . S
Tb161 O188 2.658 . S
Tb161 O189 2.409 . S
Tb161 O190 2.378 . S
C162 Tb160 2.809 . S
C162 C163 1.514 . S
C162 O180 1.248 . S
C162 O181 1.266 . S
C163 C162 1.514 . S
C163 C164 1.359 . S
C163 C168 1.348 . S
C164 C163 1.359 . S
C164 C165 1.380 1_554 S
C164 H192 0.929 . S
C165 C164 1.380 1_556 S
C165 C166 1.347 . S
C165 H193 0.931 . S
C166 C165 1.347 . S
C166 C167 1.369 1_556 S
C167 C166 1.369 1_554 S
C167 C168 1.408 . S
C167 H194 0.930 1_564 S
C168 C163 1.348 . S
C168 C167 1.408 . S
C168 H195 0.919 1_565 S
C169 O182 1.281 . S
C169 O183 1.254 . S
C170 O184 1.236 . S
C170 O185 1.266 . S
C171 Tb161 2.809 . S
C171 C172 1.514 . S
C171 O186 1.248 . S
C171 O187 1.266 . S
C172 C171 1.514 . S
C172 C173 1.359 . S
C172 C177 1.348 . S
C173 C172 1.359 . S
C173 C174 1.380 . S
C173 H196 0.929 . S
C174 C173 1.380 . S
C174 C175 1.347 . S
C174 H197 0.931 . S
C175 C174 1.347 . S
C175 C176 1.369 . S
C176 C175 1.369 . S
C176 C177 1.408 . S
C176 H198 0.930 . S
C177 C172 1.348 . S
C177 C176 1.408 . S
C177 H199 0.930 . S
C178 O188 1.281 . S
C178 O189 1.254 . S
C179 O190 1.236 . S
C179 O191 1.266 . S
O180 Tb160 2.484 . S
O180 C162 1.248 . S
O181 Tb160 2.440 . S
O181 C162 1.266 . S
O182 Tb160 2.658 . S
O182 Tb161 2.325 . S
O182 C169 1.281 . S
O183 Tb160 2.409 . S
O183 C169 1.254 . S
O184 Tb160 2.378 . S
O184 C170 1.236 . S
O185 Tb161 2.341 . S
O185 C170 1.266 . S
O186 Tb161 2.484 . S
O186 C171 1.248 . S
O187 Tb161 2.440 . S
O187 C171 1.266 . S
O188 Tb160 2.325 . S
O188 Tb161 2.658 . S
O188 C178 1.281 . S
O189 Tb161 2.409 . S
O189 C178 1.254 . S
O190 Tb161 2.378 . S
O190 C179 1.236 . S
O191 Tb160 2.341 . S
O191 C179 1.266 . S
H192 C164 0.929 . S
H193 C165 0.931 . S
H194 C167 0.930 1_546 S
H195 C168 0.919 1_545 S
H196 C173 0.929 . S
H197 C174 0.931 . S
H198 C176 0.930 . S
H199 C177 0.930 . S
Tb200 C202 2.809 . S
Tb200 O220 2.484 . S
Tb200 O221 2.440 . S
Tb200 O222 2.658 . S
Tb200 O223 2.409 . S
Tb200 O224 2.378 . S
Tb200 O228 2.325 . S
Tb200 O231 2.341 . S
Tb201 C211 2.809 . S
Tb201 O222 2.325 . S
Tb201 O225 2.341 . S
Tb201 O226 2.484 . S
Tb201 O227 2.440 . S
Tb201 O228 2.658 . S
Tb201 O229 2.409 . S
Tb201 O230 2.378 . S
C202 Tb200 2.809 . S
C202 C203 1.514 . S
C202 O220 1.248 . S
C202 O221 1.266 . S
C203 C202 1.514 . S
C203 C204 1.359 . S
C203 C208 1.348 . S
C204 C203 1.359 . S
C204 C205 1.380 . S
C204 H232 0.929 . S
C205 C204 1.380 . S
C205 C206 1.347 . S
C205 H233 0.931 . S
C206 C205 1.347 . S
C206 C207 1.369 . S
C207 C206 1.369 . S
C207 C208 1.408 . S
C207 H234 0.930 . S
C208 C203 1.348 . S
C208 C207 1.408 . S
C208 H235 0.930 . S
C209 O222 1.281 . S
C209 O223 1.254 . S
C210 O224 1.236 . S
C210 O225 1.266 . S
C211 Tb201 2.809 . S
C211 C212 1.514 . S
C211 O226 1.248 . S
C211 O227 1.266 . S
C212 C211 1.514 . S
C212 C213 1.359 . S
C212 C217 1.348 . S
C213 C212 1.359 . S
C213 C214 1.380 1_556 S
C213 H236 0.929 . S
C214 C213 1.380 1_554 S
C214 C215 1.347 . S
C214 H237 0.931 . S
C215 C214 1.347 . S
C215 C216 1.369 . S
C216 C215 1.369 . S
C216 C217 1.408 1_554 S
C216 H238 0.930 . S
C217 C212 1.348 . S
C217 C216 1.408 1_556 S
C217 H239 0.930 . S
C218 O228 1.281 . S
C218 O229 1.254 . S
C219 O230 1.236 . S
C219 O231 1.266 . S
O220 Tb200 2.484 . S
O220 C202 1.248 . S
O221 Tb200 2.440 . S
O221 C202 1.266 . S
O222 Tb200 2.658 . S
O222 Tb201 2.325 . S
O222 C209 1.281 . S
O223 Tb200 2.409 . S
O223 C209 1.254 . S
O224 Tb200 2.378 . S
O224 C210 1.236 . S
O225 Tb201 2.341 . S
O225 C210 1.266 . S
O226 Tb201 2.484 . S
O226 C211 1.248 . S
O227 Tb201 2.440 . S
O227 C211 1.266 . S
O228 Tb200 2.325 . S
O228 Tb201 2.658 . S
O228 C218 1.281 . S
O229 Tb201 2.409 . S
O229 C218 1.254 . S
O230 Tb201 2.378 . S
O230 C219 1.236 . S
O231 Tb200 2.341 . S
O231 C219 1.266 . S
H232 C204 0.929 . S
H233 C205 0.931 . S
H234 C207 0.930 . S
H235 C208 0.930 . S
H236 C213 0.929 . S
H237 C214 0.931 . S
H238 C216 0.930 . S
H239 C217 0.930 . S
C240 C241 1.369 . S
C240 C242 1.419 . S
C240 H244 0.930 . S
C241 C240 1.369 . S
C241 C250 1.429 . S
C242 C240 1.419 . S
C242 C243 1.363 . S
C242 H245 0.929 . S
C243 C242 1.363 . S
C243 C249 1.428 . S
H244 C240 0.930 . S
H245 C242 0.929 . S
S246 N247 1.613 . S
S246 N248 1.610 . S
N247 S246 1.613 . S
N247 C250 1.350 . S
N248 S246 1.610 . S
N248 C249 1.351 . S
C249 C243 1.428 . S
C249 N248 1.351 . S
C249 C250 1.434 . S
C250 C241 1.429 . S
C250 N247 1.350 . S
C250 C249 1.434 . S
C251 C252 1.369 1_655 S
C251 C253 1.419 . S
C251 H255 0.930 . S
C252 C251 1.369 1_455 S
C252 C261 1.429 . S
C253 C251 1.419 . S
C253 C254 1.363 . S
C253 H256 0.929 . S
C254 C253 1.363 . S
C254 C260 1.424 1_655 S
H255 C251 0.930 . S
H256 C253 0.929 . S
S257 N258 1.613 . S
S257 N259 1.610 . S
N258 S257 1.613 . S
N258 C261 1.350 . S
N259 S257 1.610 . S
N259 C260 1.354 . S
C260 C254 1.424 1_455 S
C260 N259 1.354 . S
C260 C261 1.436 . S
C261 C252 1.429 . S
C261 N258 1.350 . S
C261 C260 1.436 . S
C262 C263 1.369 1_565 S
C262 C264 1.419 . S
C262 H266 0.930 . S
C263 C262 1.369 1_545 S
C263 C272 1.429 . S
C264 C262 1.419 . S
C264 C265 1.363 . S
C264 H267 0.929 . S
C265 C264 1.363 . S
C265 C271 1.427 . S
H266 C262 0.930 . S
H267 C264 0.929 . S
S268 N269 1.613 . S
S268 N270 1.610 . S
N269 S268 1.613 . S
N269 C272 1.350 . S
N270 S268 1.610 . S
N270 C271 1.352 1_545 S
C271 C265 1.427 . S
C271 N270 1.352 1_565 S
C271 C272 1.435 1_565 S
C272 C263 1.429 . S
C272 N269 1.350 . S
C272 C271 1.435 1_545 S
C273 C274 1.369 . S
C273 C275 1.419 . S
C273 H277 0.930 . S
C274 C273 1.369 . S
C274 C283 1.429 . S
C275 C273 1.419 . S
C275 C276 1.363 . S
C275 H278 0.929 . S
C276 C275 1.363 . S
C276 C282 1.428 . S
H277 C273 0.930 . S
H278 C275 0.929 . S
S279 N280 1.613 . S
S279 N281 1.610 . S
N280 S279 1.613 . S
N280 C283 1.350 . S
N281 S279 1.610 . S
N281 C282 1.351 . S
C282 C276 1.428 . S
C282 N281 1.351 . S
C282 C283 1.434 . S
C283 C274 1.429 . S
C283 N280 1.350 . S
C283 C282 1.434 . S
C284 C285 1.369 . S
C284 C286 1.419 1_455 S
C284 H288 0.930 . S
C285 C284 1.369 . S
C285 C294 1.429 . S
C286 C284 1.419 1_655 S
C286 C287 1.363 . S
C286 H289 0.929 . S
C287 C286 1.363 . S
C287 C293 1.428 . S
H288 C284 0.930 . S
H289 C286 0.929 . S
S290 N291 1.613 1_655 S
S290 N292 1.610 . S
N291 S290 1.613 1_455 S
N291 C294 1.350 . S
N292 S290 1.610 . S
N292 C293 1.351 . S
C293 C287 1.428 . S
C293 N292 1.351 . S
C293 C294 1.434 1_655 S
C294 C285 1.429 . S
C294 N291 1.350 . S
C294 C293 1.434 1_455 S
C295 C296 1.369 . S
C295 C297 1.419 1_545 S
C295 H299 0.930 . S
C296 C295 1.369 . S
C296 C305 1.429 . S
C297 C295 1.419 1_565 S
C297 C298 1.363 . S
C297 H300 0.929 . S
C298 C297 1.363 . S
C298 C304 1.428 . S
H299 C295 0.930 . S
H300 C297 0.929 . S
S301 N302 1.613 1_565 S
S301 N303 1.610 . S
N302 S301 1.613 1_545 S
N302 C305 1.350 . S
N303 S301 1.610 . S
N303 C304 1.351 . S
C304 C298 1.428 . S
C304 N303 1.351 . S
C304 C305 1.434 1_565 S
C305 C296 1.429 . S
C305 N302 1.350 . S
C305 C304 1.434 1_545 S
C306 C307 1.369 . S
C306 C308 1.419 . S
C306 H310 0.930 . S
C307 C306 1.369 . S
C307 C316 1.429 . S
C308 C306 1.419 . S
C308 C309 1.363 . S
C308 H311 0.929 . S
C309 C308 1.363 . S
C309 C315 1.428 . S
H310 C306 0.930 . S
H311 C308 0.929 . S
S312 N313 1.613 . S
S312 N314 1.610 . S
N313 S312 1.613 . S
N313 C316 1.350 . S
N314 S312 1.610 . S
N314 C315 1.351 . S
C315 C309 1.428 . S
C315 N314 1.351 . S
C315 C316 1.434 . S
C316 C307 1.429 . S
C316 N313 1.350 . S
C316 C315 1.434 . S
C317 C318 1.369 . S
C317 C319 1.419 . S
C317 H321 0.930 . S
C318 C317 1.369 . S
C318 C327 1.429 . S
C319 C317 1.419 . S
C319 C320 1.363 . S
C319 H322 0.929 . S
C320 C319 1.363 . S
C320 C326 1.428 . S
H321 C317 0.930 . S
H322 C319 0.929 . S
S323 N324 1.613 . S
S323 N325 1.610 . S
N324 S323 1.613 . S
N324 C327 1.350 . S
N325 S323 1.610 . S
N325 C326 1.351 . S
C326 C320 1.428 . S
C326 N325 1.351 . S
C326 C327 1.434 . S
C327 C318 1.429 . S
C327 N324 1.350 . S
C327 C326 1.434 . S
C328 C329 1.369 . S
C328 C330 1.419 . S
C328 H332 0.930 . S
C329 C328 1.369 . S
C329 C338 1.429 . S
C330 C328 1.419 . S
C330 C331 1.363 . S
C330 H333 0.929 . S
C331 C330 1.363 . S
C331 C337 1.428 . S
H332 C328 0.930 . S
H333 C330 0.929 . S
S334 N335 1.613 . S
S334 N336 1.610 . S
N335 S334 1.613 . S
N335 C338 1.350 . S
N336 S334 1.610 . S
N336 C337 1.351 . S
C337 C331 1.428 . S
C337 N336 1.351 . S
C337 C338 1.434 . S
C338 C329 1.429 . S
C338 N335 1.350 . S
C338 C337 1.434 . S
C339 C340 1.369 . S
C339 C341 1.419 . S
C339 H343 0.930 . S
C340 C339 1.369 . S
C340 C349 1.429 . S
C341 C339 1.419 . S
C341 C342 1.363 . S
C341 H344 0.929 . S
C342 C341 1.363 . S
C342 C348 1.428 . S
H343 C339 0.930 . S
H344 C341 0.929 . S
S345 N346 1.613 . S
S345 N347 1.610 . S
N346 S345 1.613 . S
N346 C349 1.350 . S
N347 S345 1.610 . S
N347 C348 1.351 . S
C348 C342 1.428 . S
C348 N347 1.351 . S
C348 C349 1.434 . S
C349 C340 1.429 . S
C349 N346 1.350 . S
C349 C348 1.434 . S
C350 C351 1.369 . S
C350 C352 1.419 . S
C350 H354 0.930 . S
C351 C350 1.369 . S
C351 C360 1.429 . S
C352 C350 1.419 . S
C352 C353 1.363 . S
C352 H355 0.929 . S
C353 C352 1.363 . S
C353 C359 1.428 . S
H354 C350 0.930 . S
H355 C352 0.929 . S
S356 N357 1.613 . S
S356 N358 1.610 . S
N357 S356 1.613 . S
N357 C360 1.350 . S
N358 S356 1.610 . S
N358 C359 1.351 . S
C359 C353 1.428 . S
C359 N358 1.351 . S
C359 C360 1.434 . S
C360 C351 1.429 . S
C360 N357 1.350 . S
C360 C359 1.434 . S
C361 C362 1.369 . S
C361 C363 1.419 . S
C361 H365 0.930 . S
C362 C361 1.369 . S
C362 C371 1.429 . S
C363 C361 1.419 . S
C363 C364 1.363 . S
C363 H366 0.929 . S
C364 C363 1.363 . S
C364 C370 1.428 . S
H365 C361 0.930 . S
H366 C363 0.929 . S
S367 N368 1.613 . S
S367 N369 1.610 . S
N368 S367 1.613 . S
N368 C371 1.350 . S
N369 S367 1.610 . S
N369 C370 1.351 . S
C370 C364 1.428 . S
C370 N369 1.351 . S
C370 C371 1.434 . S
C371 C362 1.429 . S
C371 N368 1.350 . S
C371 C370 1.434 . S
C372 C373 1.369 . S
C372 C374 1.419 . S
C372 H376 0.930 . S
C373 C372 1.369 . S
C373 C382 1.429 . S
C374 C372 1.419 . S
C374 C375 1.363 . S
C374 H377 0.929 . S
C375 C374 1.363 . S
C375 C381 1.428 . S
H376 C372 0.930 . S
H377 C374 0.929 . S
S378 N379 1.613 . S
S378 N380 1.610 . S
N379 S378 1.613 . S
N379 C382 1.350 . S
N380 S378 1.610 . S
N380 C381 1.351 . S
C381 C375 1.428 . S
C381 N380 1.351 . S
C381 C382 1.434 . S
C382 C373 1.429 . S
C382 N379 1.350 . S
C382 C381 1.434 . S
C383 C384 1.369 . S
C383 C385 1.419 . S
C383 H387 0.930 . S
C384 C383 1.369 . S
C384 C393 1.429 . S
C385 C383 1.419 . S
C385 C386 1.363 . S
C385 H388 0.929 . S
C386 C385 1.363 . S
C386 C392 1.428 . S
H387 C383 0.930 . S
H388 C385 0.929 . S
S389 N390 1.613 . S
S389 N391 1.610 . S
N390 S389 1.613 . S
N390 C393 1.350 . S
N391 S389 1.610 . S
N391 C392 1.351 . S
C392 C386 1.428 . S
C392 N391 1.351 . S
C392 C393 1.434 . S
C393 C384 1.429 . S
C393 N390 1.350 . S
C393 C392 1.434 . S
C394 C395 1.369 . S
C394 C396 1.419 . S
C394 H398 0.930 . S
C395 C394 1.369 . S
C395 C404 1.429 . S
C396 C394 1.419 . S
C396 C397 1.363 . S
C396 H399 0.929 . S
C397 C396 1.363 . S
C397 C403 1.428 . S
H398 C394 0.930 . S
H399 C396 0.929 . S
S400 N401 1.613 . S
S400 N402 1.610 . S
N401 S400 1.613 . S
N401 C404 1.350 . S
N402 S400 1.610 . S
N402 C403 1.351 . S
C403 C397 1.428 . S
C403 N402 1.351 . S
C403 C404 1.434 . S
C404 C395 1.429 . S
C404 N401 1.350 . S
C404 C403 1.434 . S
C405 C406 1.369 . S
C405 C407 1.419 . S
C405 H409 0.930 . S
C406 C405 1.369 . S
C406 C415 1.429 . S
C407 C405 1.419 . S
C407 C408 1.363 . S
C407 H410 0.929 . S
C408 C407 1.363 . S
C408 C414 1.428 . S
H409 C405 0.930 . S
H410 C407 0.929 . S
S411 N412 1.613 . S
S411 N413 1.610 . S
N412 S411 1.613 . S
N412 C415 1.350 . S
N413 S411 1.610 . S
N413 C414 1.351 . S
C414 C408 1.428 . S
C414 N413 1.351 . S
C414 C415 1.434 . S
C415 C406 1.429 . S
C415 N412 1.350 . S
C415 C414 1.434 . S
C416 C417 1.369 . S
C416 C418 1.419 . S
C416 H420 0.930 . S
C417 C416 1.369 . S
C417 C426 1.429 . S
C418 C416 1.419 . S
C418 C419 1.363 . S
C418 H421 0.929 . S
C419 C418 1.363 . S
C419 C425 1.428 . S
H420 C416 0.930 . S
H421 C418 0.929 . S
S422 N423 1.613 . S
S422 N424 1.610 . S
N423 S422 1.613 . S
N423 C426 1.350 . S
N424 S422 1.610 . S
N424 C425 1.351 . S
C425 C419 1.428 . S
C425 N424 1.351 . S
C425 C426 1.434 . S
C426 C417 1.429 . S
C426 N423 1.350 . S
C426 C425 1.434 . S
C427 C428 1.369 . S
C427 C429 1.419 . S
C427 H431 0.930 . S
C428 C427 1.369 . S
C428 C437 1.429 . S
C429 C427 1.419 . S
C429 C430 1.363 . S
C429 H432 0.929 . S
C430 C429 1.363 . S
C430 C436 1.428 . S
H431 C427 0.930 . S
H432 C429 0.929 . S
S433 N434 1.613 . S
S433 N435 1.610 . S
N434 S433 1.613 . S
N434 C437 1.350 . S
N435 S433 1.610 . S
N435 C436 1.351 . S
C436 C430 1.428 . S
C436 N435 1.351 . S
C436 C437 1.434 . S
C437 C428 1.429 . S
C437 N434 1.350 . S
C437 C436 1.434 . S
C241 C209 1.499 . S
C243 C10 1.563 . S
C252 C9 1.504 . S
C254 C50 1.566 . S
C263 C49 1.495 . S
C265 C90 1.566 . S
C274 C89 1.498 . S
C276 C130 1.563 . S
C285 C170 1.563 . S
C287 C129 1.495 . S
C296 C210 1.567 . S
C298 C169 1.503 . S
C307 C6 2.064 . S
C309 C15 2.070 . S
C318 C46 2.062 . S
C320 C55 2.071 . S
C329 C86 2.065 . S
C331 C95 2.068 . S
C340 C126 2.063 . S
C342 C135 2.071 . S
C351 C175 2.061 . S
C353 C166 2.071 . S
C362 C206 2.061 . S
C364 C215 2.071 . S
C373 C19 1.814 . S
C375 C178 1.807 . S
C384 C59 1.813 . S
C386 C218 1.807 . S
C395 C18 1.804 . S
C397 C99 1.815 . S
C406 C58 1.808 . S
C408 C139 1.813 . S
C417 C179 1.814 . S
C419 C98 1.807 . S
C428 C138 1.808 . S
C430 C219 1.812 . S
