# Generated by pormake.
# Topology lcy, (6)-cn, num edge types: 1
# Building blocks:
#     Node 0, Type 0, BuildingBlock: OJICUG_clean_sbu_0, # of connection points: 6
#     Node 1, Type 0, BuildingBlock: OJICUG_clean_sbu_0, # of connection points: 6
#     Node 2, Type 0, BuildingBlock: OJICUG_clean_sbu_0, # of connection points: 6
#     Node 3, Type 0, BuildingBlock: OJICUG_clean_sbu_0, # of connection points: 6
#     Edge 4, Type (0, 0), BuildingBlock: FUNLAD_clean_linker_1, # of connection points: 2
#     Edge 5, Type (0, 0), BuildingBlock: FUNLAD_clean_linker_1, # of connection points: 2
#     Edge 6, Type (0, 0), BuildingBlock: FUNLAD_clean_linker_1, # of connection points: 2
#     Edge 7, Type (0, 0), BuildingBlock: FUNLAD_clean_linker_1, # of connection points: 2
#     Edge 8, Type (0, 0), BuildingBlock: FUNLAD_clean_linker_1, # of connection points: 2
#     Edge 9, Type (0, 0), BuildingBlock: FUNLAD_clean_linker_1, # of connection points: 2
#     Edge 10, Type (0, 0), BuildingBlock: FUNLAD_clean_linker_1, # of connection points: 2
#     Edge 11, Type (0, 0), BuildingBlock: FUNLAD_clean_linker_1, # of connection points: 2
#     Edge 12, Type (0, 0), BuildingBlock: FUNLAD_clean_linker_1, # of connection points: 2
#     Edge 13, Type (0, 0), BuildingBlock: FUNLAD_clean_linker_1, # of connection points: 2
#     Edge 14, Type (0, 0), BuildingBlock: FUNLAD_clean_linker_1, # of connection points: 2
#     Edge 15, Type (0, 0), BuildingBlock: FUNLAD_clean_linker_1, # of connection points: 2
# Relax obj value: 0.357
# Max RMSD: 0.279
# Mean RMSD: 0.279
data_MOF--net-lcy--node1-OJICUG_clean_sbu_0--edge1-FUNLAD_clean_linker_1
_symmetry_space_group_name_H-M    P1
_symmetry_Int_Tables_number       1
_symmetry_cell_setting            triclinic
loop_
_symmetry_equiv_pos_as_xyz
'x, y, z'
_cell_length_a     26.889714
_cell_length_b     26.921874
_cell_length_c     27.049997
_cell_angle_alpha  90.583743
_cell_angle_beta   89.749278
_cell_angle_gamma 89.365295
loop_
_atom_site_label
_atom_site_type_symbol
_atom_site_fract_x
_atom_site_fract_y
_atom_site_fract_z
_atom_type_partial_charge
Sc0 Sc 0.30326 0.40326 0.359 0.0
Sc1 Sc 0.37615 0.32333 0.42974 0.0
Sc2 Sc 0.4272 0.38496 0.32996 0.0
O3 O 0.3686 0.36995 0.37298 0.0
C4 C 0.33706 0.38813 0.25261 0.0
C5 C 0.27022 0.29494 0.39392 0.0
C6 C 0.44054 0.27171 0.34164 0.0
C7 C 0.30459 0.40955 0.47406 0.0
C8 C 0.38225 0.48903 0.34105 0.0
C9 C 0.47888 0.37305 0.43518 0.0
O10 O 0.30467 0.37672 0.28453 0.0
O11 O 0.31333 0.28066 0.40706 0.0
O12 O 0.43662 0.30787 0.31177 0.0
O13 O 0.29786 0.43111 0.43298 0.0
O14 O 0.41981 0.46157 0.34931 0.0
O15 O 0.43916 0.36228 0.45795 0.0
O16 O 0.3384 0.47211 0.33624 0.0
O17 O 0.32861 0.36865 0.47814 0.0
O18 O 0.48097 0.37677 0.38848 0.0
O19 O 0.26066 0.33883 0.37945 0.0
O20 O 0.38203 0.39703 0.26416 0.0
O21 O 0.42473 0.27375 0.38629 0.0
Sc22 Sc 0.9206 0.12421 0.67495 0.0
Sc23 Sc 0.80868 0.07903 0.62901 0.0
Sc24 Sc 0.87758 0.16425 0.5603 0.0
O25 O 0.86896 0.12215 0.62121 0.0
C26 C 0.91573 0.23563 0.64736 0.0
C27 C 0.82093 0.11399 0.73866 0.0
C28 C 0.76353 0.17901 0.58317 0.0
C29 C 0.89736 0.01091 0.67133 0.0
C30 C 0.98697 0.13045 0.57614 0.0
C31 C 0.82942 0.06505 0.51537 0.0
O32 O 0.91346 0.20298 0.68067 0.0
O33 O 0.79299 0.10634 0.70181 0.0
O34 O 0.80495 0.19682 0.56956 0.0
O35 O 0.92933 0.04533 0.6734 0.0
O36 O 0.95054 0.13484 0.54674 0.0
O37 O 0.81744 0.04711 0.55688 0.0
O38 O 0.98185 0.13049 0.62293 0.0
O39 O 0.85232 0.01791 0.65842 0.0
O40 O 0.84836 0.10787 0.51072 0.0
O41 O 0.86777 0.11789 0.73483 0.0
O42 O 0.9091 0.22623 0.6016 0.0
O43 O 0.75904 0.13599 0.60162 0.0
Sc44 Sc 0.18306 0.59138 0.841 0.0
Sc45 Sc 0.12178 0.65683 0.93479 0.0
Sc46 Sc 0.05537 0.60296 0.83886 0.0
O47 O 0.12018 0.61681 0.87237 0.0
C48 C 0.1293 0.61484 0.74715 0.0
C49 C 0.21793 0.69591 0.88385 0.0
C50 C 0.045 0.71502 0.86412 0.0
C51 C 0.20083 0.56748 0.95204 0.0
C52 C 0.10482 0.5032 0.82254 0.0
C53 C 0.02138 0.6072 0.95266 0.0
O54 O 0.16457 0.62935 0.77435 0.0
O55 O 0.17782 0.70486 0.90698 0.0
O56 O 0.04237 0.68045 0.83176 0.0
O57 O 0.20313 0.55393 0.90696 0.0
O58 O 0.06896 0.52498 0.84522 0.0
O59 O 0.06504 0.61329 0.96865 0.0
O60 O 0.14626 0.5244 0.81435 0.0
O61 O 0.17667 0.60603 0.96732 0.0
O62 O 0.01166 0.6062 0.90665 0.0
O63 O 0.22774 0.65437 0.86308 0.0
O64 O 0.08906 0.59843 0.76547 0.0
O65 O 0.06772 0.71032 0.90536 0.0
Sc66 Sc 0.60508 0.81739 0.05541 0.0
Sc67 Sc 0.67874 0.89625 0.12702 0.0
Sc68 Sc 0.55778 0.87102 0.16251 0.0
O69 O 0.61446 0.86103 0.11497 0.0
C70 C 0.49915 0.86043 0.06083 0.0
C71 C 0.66685 0.90825 0.01229 0.0
C72 C 0.59411 0.9781 0.15294 0.0
C73 C 0.71472 0.7895 0.08447 0.0
C74 C 0.55224 0.75865 0.14459 0.0
C75 C 0.65188 0.87666 0.23482 0.0
O76 O 0.53832 0.85556 0.03509 0.0
O77 O 0.67879 0.92595 0.05422 0.0
O78 O 0.55805 0.9485 0.14765 0.0
O79 O 0.672 0.7767 0.06965 0.0
O80 O 0.55674 0.79352 0.17635 0.0
O81 O 0.68355 0.86922 0.20066 0.0
O82 O 0.56382 0.76326 0.09894 0.0
O83 O 0.72381 0.83241 0.10272 0.0
O84 O 0.60581 0.88302 0.22608 0.0
O85 O 0.64393 0.86746 0.00672 0.0
O86 O 0.49994 0.86021 0.10775 0.0
O87 O 0.6397 0.96382 0.15316 0.0
H88 H 0.25066 0.50568 0.97128 0.0
C89 C 0.22896 0.53646 0.98685 0.0
H90 H 0.20947 0.57524 0.05254 0.0
H91 H 0.29978 0.35203 0.11815 0.0
H92 H 0.22753 0.31758 0.07696 0.0
H93 H 0.16794 0.3722 0.03381 0.0
H94 H 0.18112 0.46104 0.03009 0.0
C95 C 0.22928 0.54387 0.03588 0.0
C96 C 0.26092 0.51166 0.06759 0.0
C97 C 0.25064 0.4603 0.07207 0.0
C98 C 0.28286 0.42933 0.09996 0.0
C99 C 0.27451 0.3775 0.10005 0.0
C100 C 0.23355 0.35725 0.07617 0.0
C101 C 0.20016 0.38797 0.05167 0.0
C102 C 0.20838 0.43891 0.04954 0.0
H103 H 0.27799 0.40211 0.19935 0.0
C104 C 0.3182 0.40194 0.20359 0.0
H105 H 0.38659 0.42299 0.17284 0.0
H106 H 0.29433 0.60702 0.06142 0.0
H107 H 0.36939 0.63975 0.0981 0.0
H108 H 0.42445 0.58631 0.14729 0.0
H109 H 0.40345 0.50093 0.16359 0.0
C110 C 0.34659 0.42195 0.16805 0.0
C111 C 0.32266 0.45037 0.12706 0.0
C112 C 0.33505 0.50096 0.11965 0.0
C113 C 0.30385 0.53165 0.09013 0.0
C114 C 0.31675 0.58204 0.08337 0.0
C115 C 0.35972 0.60136 0.10418 0.0
C116 C 0.39052 0.57132 0.13233 0.0
C117 C 0.37806 0.52206 0.14102 0.0
H118 H 0.64266 0.89277 0.31461 0.0
C119 C 0.66992 0.88717 0.28521 0.0
H120 H 0.74545 0.89412 0.26421 0.0
H121 H 0.7259 0.06216 0.4428 0.0
H122 H 0.67043 0.10545 0.38733 0.0
H123 H 0.64444 0.06689 0.30889 0.0
H124 H 0.67372 0.98465 0.28527 0.0
C125 C 0.71772 0.89898 0.29326 0.0
C126 C 0.73416 0.9231 0.33995 0.0
C127 C 0.71826 0.9723 0.3519 0.0
C128 C 0.73524 -0.00434 0.39597 0.0
C129 C 0.71628 0.04349 0.40866 0.0
C130 C 0.68389 0.06865 0.3774 0.0
C131 C 0.66922 0.04688 0.33321 0.0
C132 C 0.68609 -0.00063 0.32036 0.0
H133 H 0.82751 0.0519 0.43458 0.0
C134 C 0.81711 0.03669 0.4702 0.0
H135 H 0.77883 0.97952 0.50716 0.0
H136 H 0.77189 0.829 0.32754 0.0
H137 H 0.83119 0.78735 0.38087 0.0
H138 H 0.8635 0.82931 0.45542 0.0
H139 H 0.83662 0.91308 0.47721 0.0
C140 C 0.78915 -0.00444 0.47192 0.0
C141 C 0.77034 0.97094 0.4264 0.0
C142 C 0.78651 0.92204 0.41421 0.0
C143 C 0.76833 0.89807 0.37096 0.0
C144 C 0.78491 0.84911 0.35972 0.0
C145 C 0.81886 0.82475 0.39006 0.0
C146 C 0.83701 0.84835 0.43206 0.0
C147 C 0.82119 0.89642 0.44418 0.0
H148 H 0.16782 0.62461 0.67601 0.0
C149 C 0.14278 0.6007 0.69628 0.0
H150 H 0.11405 0.5283 0.70287 0.0
H151 H 0.16341 0.44787 0.48901 0.0
H152 H 0.07329 0.44515 0.48937 0.0
H153 H 0.02476 0.4829 0.55786 0.0
H154 H 0.0661 0.52294 0.62692 0.0
C155 C 0.13715 0.55323 0.68153 0.0
C156 C 0.16659 0.53115 0.63997 0.0
C157 C 0.14177 0.50905 0.59941 0.0
C158 C 0.16974 0.48834 0.55938 0.0
C159 C 0.14403 0.4651 0.51996 0.0
C160 C 0.09228 0.4631 0.51977 0.0
C161 C 0.06496 0.48425 0.55841 0.0
C162 C 0.08918 0.50708 0.59782 0.0
H163 H 0.28651 0.41317 0.55391 0.0
C164 C 0.28101 0.43145 0.51866 0.0
H165 H 0.24334 0.4888 0.48067 0.0
H166 H 0.22659 0.55665 0.71837 0.0
H167 H 0.31641 0.56024 0.71781 0.0
H168 H 0.36448 0.5352 0.64359 0.0
H169 H 0.32285 0.50474 0.57028 0.0
C170 C 0.25091 0.47161 0.51607 0.0
C171 C 0.22243 0.49071 0.55956 0.0
C172 C 0.24734 0.51188 0.60061 0.0
C173 C 0.21945 0.53005 0.64185 0.0
C174 C 0.2455 0.54596 0.68453 0.0
C175 C 0.29724 0.54757 0.68499 0.0
C176 C 0.32429 0.53321 0.64334 0.0
C177 C 0.29987 0.51549 0.60156 0.0
H178 H 0.66546 0.92407 0.9324 0.0
C179 C 0.68 0.93636 0.96786 0.0
H180 H 0.72407 0.98907 0.00551 0.0
H181 H 0.78902 0.00496 0.76707 0.0
H182 H 0.81566 0.919 0.77278 0.0
H183 H 0.80271 0.87205 0.84951 0.0
H184 H 0.76259 0.91066 0.92062 0.0
C185 C 0.70993 0.97598 0.97018 0.0
C186 C 0.7223 0.00507 0.9256 0.0
C187 C 0.7483 0.9824 0.88539 0.0
C188 C 0.75759 0.01002 0.84199 0.0
C189 C 0.78169 0.98604 0.80138 0.0
C190 C 0.7971 0.9366 0.80407 0.0
C191 C 0.78967 0.91014 0.84719 0.0
C192 C 0.7661 0.9327 0.88764 0.0
H193 H 0.82493 0.11087 0.81983 0.0
C194 C 0.79977 0.10853 0.78853 0.0
H195 H 0.72948 0.0842 0.7638 0.0
H196 H 0.67235 0.06003 -0.00352 0.0
H197 H 0.64871 0.14701 0.99146 0.0
H198 H 0.66837 0.19568 0.91721 0.0
H199 H 0.71166 0.15735 0.84728 0.0
C200 C 0.75439 0.08922 0.79493 0.0
C201 C 0.74326 0.06083 0.84003 0.0
C202 C 0.71874 0.0839 0.88059 0.0
C203 C 0.70796 0.05591 0.92348 0.0
C204 C 0.68222 0.07959 0.96318 0.0
C205 C 0.66827 0.12952 0.96074 0.0
C206 C 0.67931 0.15691 0.91892 0.0
C207 C 0.70418 0.13453 0.87912 0.0
H208 H 0.0688 0.13141 0.58151 0.0
C209 C 0.0378 0.13292 0.55586 0.0
H210 H 0.01566 0.14799 0.48244 0.0
H211 H 0.21204 0.28935 0.49896 0.0
H212 H 0.16248 0.33785 0.55726 0.0
H213 H 0.08065 0.30838 0.58526 0.0
H214 H 0.04825 0.23016 0.5556 0.0
C215 C 0.04603 0.14594 0.50873 0.0
C216 C 0.09526 0.16379 0.49211 0.0
C217 C 0.11259 0.21072 0.50872 0.0
C218 C 0.15862 0.22882 0.4909 0.0
C219 C 0.17637 0.27466 0.50976 0.0
C220 C 0.14846 0.30279 0.54355 0.0
C221 C 0.10247 0.28613 0.5594 0.0
C222 C 0.08449 0.2408 0.54226 0.0
H223 H 0.19118 0.27496 0.39093 0.0
C224 C 0.22774 0.26212 0.40262 0.0
H225 H 0.26706 0.20965 0.44592 0.0
H226 H 0.07314 0.07214 0.45422 0.0
H227 H 0.12213 0.02467 0.39418 0.0
H228 H 0.20077 0.05756 0.36124 0.0
H229 H 0.23103 0.13813 0.38823 0.0
C230 C 0.23124 0.22274 0.43259 0.0
C231 C 0.18579 0.20126 0.4546 0.0
C232 C 0.16893 0.15419 0.43866 0.0
C233 C 0.1235 0.13539 0.45744 0.0
C234 C 0.10727 0.08828 0.44083 0.0
C235 C 0.13506 0.06065 0.40648 0.0
C236 C 0.17936 0.07916 0.38794 0.0
C237 C 0.19628 0.12541 0.40368 0.0
H238 H 0.03791 0.79684 0.8694 0.0
C239 C 0.02355 0.76374 0.85136 0.0
H240 H 0.97604 0.7344 0.79679 0.0
H241 H 0.91762 0.97683 0.80439 0.0
H242 H 0.89106 0.96431 0.88917 0.0
H243 H 0.90147 0.88272 0.92858 0.0
H244 H 0.94047 0.81362 0.8841 0.0
C245 C 0.99028 0.76769 0.8146 0.0
C246 C 0.97945 0.81575 0.79044 0.0
C247 C 0.95512 0.85501 0.81653 0.0
C248 C 0.94712 0.90134 0.79308 0.0
C249 C 0.92428 0.94066 0.82033 0.0
C250 C 0.90882 0.93399 0.869 0.0
C251 C 0.91481 0.88805 0.89125 0.0
C252 C 0.93752 0.84883 0.86545 0.0
H253 H 0.88713 0.93039 0.68196 0.0
C254 C 0.91176 0.9614 0.68908 0.0
H255 H 0.97468 0.98644 0.7286 0.0
H256 H 0.02784 0.74809 0.72973 0.0
H257 H 0.05176 0.76019 0.64438 0.0
H258 H 0.03457 0.8397 0.60291 0.0
H259 H 0.99353 0.90771 0.64688 0.0
C260 C 0.95144 0.95522 0.71843 0.0
C261 C 0.96117 0.90731 0.74296 0.0
C262 C 0.98449 0.86785 0.71651 0.0
C263 C 0.99397 0.82202 0.74036 0.0
C264 C 0.01876 0.78354 0.71342 0.0
C265 C 0.03296 0.79002 0.66434 0.0
C266 C 0.02331 0.83478 0.64101 0.0
C267 C -0.00045 0.87344 0.66664 0.0
H268 H 0.2465 0.77192 0.87757 0.0
C269 C 0.25637 0.73387 0.88679 0.0
H270 H 0.30776 0.68624 0.92137 0.0
H271 H 0.50025 0.81042 0.92128 0.0
H272 H 0.52162 0.74611 0.86192 0.0
H273 H 0.45767 0.68998 0.82894 0.0
H274 H 0.37186 0.69758 0.85606 0.0
C275 C 0.29881 0.72414 0.91069 0.0
C276 C 0.3345 0.7637 0.9245 0.0
C277 C 0.38406 0.76024 0.90679 0.0
C278 C 0.42058 0.79356 0.92483 0.0
C279 C 0.47044 0.78715 0.90842 0.0
C280 C 0.48341 0.75016 0.87421 0.0
C281 C 0.44744 0.71852 0.8557 0.0
C282 C 0.39834 0.72324 0.87171 0.0
H283 H 0.42102 0.83872 0.0574 0.0
C284 C 0.45109 0.85446 0.03585 0.0
H285 H 0.4769 0.87455 0.96548 0.0
H286 H 0.24354 0.77932 0.97039 0.0
H287 H 0.22023 0.84919 0.0226 0.0
H288 H 0.281 0.91402 0.04354 0.0
H289 H 0.36629 0.90783 0.01363 0.0
C290 C 0.4467 0.85853 0.98652 0.0
C291 C 0.40695 0.83123 0.95967 0.0
C292 C 0.35635 0.83785 0.97332 0.0
C293 C 0.32047 0.80266 0.95783 0.0
C294 C 0.27167 0.8067 0.97766 0.0
C295 C 0.25784 0.84647 0.00829 0.0
C296 C 0.2921 0.88281 0.02031 0.0
C297 C 0.34089 0.87866 0.00323 0.0
H298 H 0.47657 0.19866 0.35292 0.0
C299 C 0.46776 0.22649 0.32536 0.0
H300 H 0.47597 0.24815 0.25108 0.0
H301 H 0.66295 0.12559 0.18695 0.0
H302 H 0.6921 0.21044 0.1806 0.0
H303 H 0.64152 0.28055 0.21317 0.0
H304 H 0.56139 0.26652 0.25169 0.0
C305 C 0.48347 0.21977 0.27844 0.0
C306 C 0.51552 0.17673 0.26304 0.0
C307 C 0.56296 0.18563 0.24166 0.0
C308 C 0.59267 0.14522 0.22364 0.0
C309 C 0.63916 0.15509 0.20133 0.0
C310 C 0.65634 0.20353 0.19758 0.0
C311 C 0.62784 0.243 0.21589 0.0
C312 C 0.58174 0.23441 0.23774 0.0
H313 H 0.54474 0.04315 0.15227 0.0
C314 C 0.5804 0.02955 0.16575 0.0
H315 H 0.63698 0.04061 0.21865 0.0
H316 H 0.42437 0.14535 0.29699 0.0
H317 H 0.40019 0.06041 0.31123 0.0
H318 H 0.45728 0.99072 0.2909 0.0
H319 H 0.53823 0.00584 0.25443 0.0
C320 C 0.60245 0.05425 0.20283 0.0
C321 C 0.57538 0.09609 0.22783 0.0
C322 C 0.53006 0.08687 0.25305 0.0
C323 C 0.49892 0.12716 0.26847 0.0
C324 C 0.45122 0.11652 0.28791 0.0
C325 C 0.43653 0.06776 0.29575 0.0
C326 C 0.46853 0.02853 0.28404 0.0
C327 C 0.5147 0.03772 0.26277 0.0
H328 H 0.68304 0.1936 0.58978 0.0
C329 C 0.71777 0.20832 0.57567 0.0
H330 H 0.75133 0.26586 0.53505 0.0
H331 H 0.5124 0.2651 0.46782 0.0
H332 H 0.52945 0.18279 0.43461 0.0
H333 H 0.61142 0.14281 0.44597 0.0
H334 H 0.6768 0.18484 0.49052 0.0
C335 C 0.71703 0.2501 0.54896 0.0
C336 C 0.66942 0.2759 0.5376 0.0
C337 C 0.6325 0.25139 0.5093 0.0
C338 C 0.58594 0.27514 0.50115 0.0
C339 C 0.54891 0.24926 0.47435 0.0
C340 C 0.55813 0.20192 0.45505 0.0
C341 C 0.60427 0.1794 0.46149 0.0
C342 C 0.64127 0.20377 0.48786 0.0
H343 H 0.56 0.37903 0.44089 0.0
C344 C 0.52635 0.37169 0.46196 0.0
H345 H 0.49717 0.33916 0.52649 0.0
H346 H 0.73281 0.33384 0.59172 0.0
H347 H 0.71689 0.41811 0.62095 0.0
H348 H 0.63707 0.46041 0.60356 0.0
H349 H 0.57243 0.41843 0.55699 0.0
C350 C 0.53025 0.3497 0.50608 0.0
C351 C 0.57749 0.32429 0.51882 0.0
C352 C 0.61476 0.34939 0.5456 0.0
C353 C 0.66083 0.32507 0.55525 0.0
C354 C 0.69727 0.35068 0.5829 0.0
C355 C 0.68858 0.39904 0.59997 0.0
C356 C 0.64362 0.42287 0.59018 0.0
C357 C 0.60693 0.39846 0.56338 0.0
H358 H 0.12511 0.44091 0.77269 0.0
C359 C 0.09481 0.45733 0.79428 0.0
H360 H 0.01728 0.46025 0.80569 0.0
H361 H 0.94109 0.39006 0.60264 0.0
H362 H 0.92011 0.47827 0.60118 0.0
H363 H 0.95337 0.53565 0.66431 0.0
H364 H 0.00699 0.50533 0.72962 0.0
C365 C 0.04816 0.4418 0.78672 0.0
C366 C 0.03563 0.40845 0.7446 0.0
C367 C 0.00553 0.4273 0.70586 0.0
C368 C 0.98704 0.39461 0.66894 0.0
C369 C 0.95583 0.4137 0.63156 0.0
C370 C 0.94373 0.46412 0.63024 0.0
C371 C 0.96244 0.49642 0.66581 0.0
C372 C 0.993 0.47847 0.70325 0.0
H373 H 0.9209 0.29727 0.70014 0.0
C374 C 0.93229 0.28479 0.66336 0.0
H375 H 0.98582 0.29286 0.60652 0.0
H376 H 0.09497 0.36016 0.81173 0.0
H377 H 0.12181 0.27396 0.80757 0.0
H378 H 0.09453 0.21909 0.73949 0.0
H379 H 0.0394 0.25016 0.67554 0.0
C380 C 0.97047 0.30726 0.64109 0.0
C381 C -0.00053 0.34361 0.67033 0.0
C382 C 0.03404 0.32583 0.70554 0.0
C383 C 0.05121 0.35796 0.74364 0.0
C384 C 0.08227 0.33804 0.78081 0.0
C385 C 0.09771 0.28845 0.77906 0.0
C386 C 0.08225 0.25751 0.74081 0.0
C387 C 0.05054 0.27571 0.70451 0.0
H388 H 0.98964 0.61197 0.02789 0.0
C389 C 0.98052 0.61398 0.98883 0.0
H390 H 0.92982 0.64188 0.93654 0.0
H391 H 0.78154 0.67212 0.12859 0.0
H392 H 0.77433 0.58215 0.12868 0.0
H393 H 0.82774 0.52973 0.07455 0.0
H394 H 0.88925 0.56691 0.02055 0.0
C395 C 0.93749 0.63572 0.97544 0.0
C396 C 0.90778 0.66589 0.0115 0.0
C397 C 0.87175 0.64365 0.04212 0.0
C398 C 0.83984 0.67402 0.07207 0.0
C399 C 0.80527 0.65081 0.10367 0.0
C400 C 0.8011 0.59927 0.10437 0.0
C401 C 0.83126 0.56974 0.07398 0.0
C402 C 0.86633 0.59148 0.04315 0.0
H403 H 0.74724 0.72293 0.04953 0.0
C404 C 0.75555 0.75378 0.07435 0.0
H405 H 0.81138 0.78992 0.11501 0.0
H406 H 0.97886 0.71955 0.96352 0.0
H407 H 0.98937 0.80877 0.96719 0.0
H408 H 0.93249 0.8617 0.01703 0.0
H409 H 0.86517 0.82579 0.06374 0.0
C410 C 0.80226 0.75895 0.09079 0.0
C411 C 0.84291 0.72663 0.06987 0.0
C412 C 0.88201 0.74853 0.04263 0.0
C413 C 0.91445 0.71808 0.01341 0.0
C414 C 0.95296 0.74088 0.98614 0.0
C415 C 0.95946 0.79209 0.98792 0.0
C416 C 0.92745 0.82187 0.01599 0.0
C417 C 0.88888 0.80065 0.04273 0.0
H418 H 0.5242 0.68229 0.13389 0.0
C419 C 0.52764 0.71277 0.16029 0.0
H420 H 0.50629 0.74149 0.23038 0.0
H421 H 0.31435 0.61997 0.26364 0.0
H422 H 0.27888 0.70037 0.2423 0.0
H423 H 0.3319 0.76667 0.20934 0.0
H424 H 0.42063 0.75317 0.19773 0.0
C425 C 0.50548 0.7101 0.20482 0.0
C426 C 0.47322 0.66817 0.21856 0.0
C427 C 0.42139 0.67675 0.22478 0.0
C428 C 0.39071 0.63854 0.2433 0.0
C429 C 0.3392 0.64796 0.24968 0.0
C430 C 0.31841 0.69382 0.23748 0.0
C431 C 0.34827 0.73116 0.21895 0.0
C432 C 0.39918 0.72298 0.21265 0.0
H433 H 0.42176 0.5594 0.34591 0.0
C434 C 0.39306 0.53962 0.32574 0.0
H435 H 0.35569 0.53259 0.25741 0.0
H436 H 0.57123 0.63906 0.21025 0.0
H437 H 0.60433 0.55601 0.22235 0.0
H438 H 0.54929 0.48758 0.24655 0.0
H439 H 0.46114 0.50227 0.26006 0.0
C440 C 0.3816 0.5538 0.27977 0.0
C441 C 0.41196 0.59199 0.25514 0.0
C442 C 0.4629 0.58196 0.24457 0.0
C443 C 0.49398 0.6206 0.22775 0.0
C444 C 0.54543 0.61061 0.22107 0.0
C445 C 0.56501 0.5631 0.2281 0.0
C446 C 0.53409 0.52463 0.24193 0.0
C447 C 0.48362 0.53371 0.25009 0.0
loop_
_geom_bond_atom_site_label_1
_geom_bond_atom_site_label_2
_geom_bond_distance
_geom_bond_site_symmetry_2
_ccdc_geom_bond_type
Sc0 O3 2.025 . S
Sc0 O10 2.105 . S
Sc0 O13 2.105 . S
Sc0 O16 2.105 . S
Sc0 O19 2.105 . S
Sc1 O3 2.025 . S
Sc1 O11 2.105 . S
Sc1 O15 2.105 . S
Sc1 O17 2.105 . S
Sc1 O21 2.105 . S
Sc2 O3 2.025 . S
Sc2 O12 2.105 . S
Sc2 O14 2.105 . S
Sc2 O18 2.105 . S
Sc2 O20 2.105 . S
O3 Sc0 2.025 . S
O3 Sc1 2.025 . S
O3 Sc2 2.025 . S
C4 O10 1.268 . S
C4 O20 1.268 . S
C5 O11 1.268 . S
C5 O19 1.268 . S
C6 O12 1.268 . S
C6 O21 1.268 . S
C7 O13 1.268 . S
C7 O17 1.268 . S
C8 O14 1.268 . S
C8 O16 1.268 . S
C9 O15 1.268 . S
C9 O18 1.268 . S
O10 Sc0 2.105 . S
O10 C4 1.268 . S
O11 Sc1 2.105 . S
O11 C5 1.268 . S
O12 Sc2 2.105 . S
O12 C6 1.268 . S
O13 Sc0 2.105 . S
O13 C7 1.268 . S
O14 Sc2 2.105 . S
O14 C8 1.268 . S
O15 Sc1 2.105 . S
O15 C9 1.268 . S
O16 Sc0 2.105 . S
O16 C8 1.268 . S
O17 Sc1 2.105 . S
O17 C7 1.268 . S
O18 Sc2 2.105 . S
O18 C9 1.268 . S
O19 Sc0 2.105 . S
O19 C5 1.268 . S
O20 Sc2 2.105 . S
O20 C4 1.268 . S
O21 Sc1 2.105 . S
O21 C6 1.268 . S
Sc22 O25 2.025 . S
Sc22 O32 2.105 . S
Sc22 O35 2.105 . S
Sc22 O38 2.105 . S
Sc22 O41 2.105 . S
Sc23 O25 2.025 . S
Sc23 O33 2.105 . S
Sc23 O37 2.105 . S
Sc23 O39 2.105 . S
Sc23 O43 2.105 . S
Sc24 O25 2.025 . S
Sc24 O34 2.105 . S
Sc24 O36 2.105 . S
Sc24 O40 2.105 . S
Sc24 O42 2.105 . S
O25 Sc22 2.025 . S
O25 Sc23 2.025 . S
O25 Sc24 2.025 . S
C26 O32 1.268 . S
C26 O42 1.268 . S
C27 O33 1.268 . S
C27 O41 1.268 . S
C28 O34 1.268 . S
C28 O43 1.268 . S
C29 O35 1.268 . S
C29 O39 1.268 . S
C30 O36 1.268 . S
C30 O38 1.268 . S
C31 O37 1.268 . S
C31 O40 1.268 . S
O32 Sc22 2.105 . S
O32 C26 1.268 . S
O33 Sc23 2.105 . S
O33 C27 1.268 . S
O34 Sc24 2.105 . S
O34 C28 1.268 . S
O35 Sc22 2.105 . S
O35 C29 1.268 . S
O36 Sc24 2.105 . S
O36 C30 1.268 . S
O37 Sc23 2.105 . S
O37 C31 1.268 . S
O38 Sc22 2.105 . S
O38 C30 1.268 . S
O39 Sc23 2.105 . S
O39 C29 1.268 . S
O40 Sc24 2.105 . S
O40 C31 1.268 . S
O41 Sc22 2.105 . S
O41 C27 1.268 . S
O42 Sc24 2.105 . S
O42 C26 1.268 . S
O43 Sc23 2.105 . S
O43 C28 1.268 . S
Sc44 O47 2.025 . S
Sc44 O54 2.105 . S
Sc44 O57 2.105 . S
Sc44 O60 2.105 . S
Sc44 O63 2.105 . S
Sc45 O47 2.025 . S
Sc45 O55 2.105 . S
Sc45 O59 2.105 . S
Sc45 O61 2.105 . S
Sc45 O65 2.105 . S
Sc46 O47 2.025 . S
Sc46 O56 2.105 . S
Sc46 O58 2.105 . S
Sc46 O62 2.105 . S
Sc46 O64 2.105 . S
O47 Sc44 2.025 . S
O47 Sc45 2.025 . S
O47 Sc46 2.025 . S
C48 O54 1.268 . S
C48 O64 1.268 . S
C49 O55 1.268 . S
C49 O63 1.268 . S
C50 O56 1.268 . S
C50 O65 1.268 . S
C51 O57 1.268 . S
C51 O61 1.268 . S
C52 O58 1.268 . S
C52 O60 1.268 . S
C53 O59 1.268 . S
C53 O62 1.268 . S
O54 Sc44 2.105 . S
O54 C48 1.268 . S
O55 Sc45 2.105 . S
O55 C49 1.268 . S
O56 Sc46 2.105 . S
O56 C50 1.268 . S
O57 Sc44 2.105 . S
O57 C51 1.268 . S
O58 Sc46 2.105 . S
O58 C52 1.268 . S
O59 Sc45 2.105 . S
O59 C53 1.268 . S
O60 Sc44 2.105 . S
O60 C52 1.268 . S
O61 Sc45 2.105 . S
O61 C51 1.268 . S
O62 Sc46 2.105 . S
O62 C53 1.268 . S
O63 Sc44 2.105 . S
O63 C49 1.268 . S
O64 Sc46 2.105 . S
O64 C48 1.268 . S
O65 Sc45 2.105 . S
O65 C50 1.268 . S
Sc66 O69 2.025 . S
Sc66 O76 2.105 . S
Sc66 O79 2.105 . S
Sc66 O82 2.105 . S
Sc66 O85 2.105 . S
Sc67 O69 2.025 . S
Sc67 O77 2.105 . S
Sc67 O81 2.105 . S
Sc67 O83 2.105 . S
Sc67 O87 2.105 . S
Sc68 O69 2.025 . S
Sc68 O78 2.105 . S
Sc68 O80 2.105 . S
Sc68 O84 2.105 . S
Sc68 O86 2.105 . S
O69 Sc66 2.025 . S
O69 Sc67 2.025 . S
O69 Sc68 2.025 . S
C70 O76 1.268 . S
C70 O86 1.268 . S
C71 O77 1.268 . S
C71 O85 1.268 . S
C72 O78 1.268 . S
C72 O87 1.268 . S
C73 O79 1.268 . S
C73 O83 1.268 . S
C74 O80 1.268 . S
C74 O82 1.268 . S
C75 O81 1.268 . S
C75 O84 1.268 . S
O76 Sc66 2.105 . S
O76 C70 1.268 . S
O77 Sc67 2.105 . S
O77 C71 1.268 . S
O78 Sc68 2.105 . S
O78 C72 1.268 . S
O79 Sc66 2.105 . S
O79 C73 1.268 . S
O80 Sc68 2.105 . S
O80 C74 1.268 . S
O81 Sc67 2.105 . S
O81 C75 1.268 . S
O82 Sc66 2.105 . S
O82 C74 1.268 . S
O83 Sc67 2.105 . S
O83 C73 1.268 . S
O84 Sc68 2.105 . S
O84 C75 1.268 . S
O85 Sc66 2.105 . S
O85 C71 1.268 . S
O86 Sc68 2.105 . S
O86 C70 1.268 . S
O87 Sc67 2.105 . S
O87 C72 1.268 . S
H88 C89 0.951 . S
C89 H88 0.951 . S
C89 C95 1.265 . S
H90 C95 0.950 . S
H91 C99 0.949 . S
H92 C100 0.950 . S
H93 C101 0.951 . S
H94 C102 0.951 . S
C95 C89 1.265 . S
C95 H90 0.950 . S
C95 C96 1.478 . S
C96 C95 1.478 . S
C96 C97 1.397 . S
C96 C113 1.394 . S
C97 C96 1.397 . S
C97 C98 1.438 . S
C97 C102 1.429 . S
C98 C97 1.438 . S
C98 C99 1.428 . S
C98 C111 1.394 . S
C99 H91 0.949 . S
C99 C98 1.428 . S
C99 C100 1.345 . S
C100 H92 0.950 . S
C100 C99 1.345 . S
C100 C101 1.424 . S
C101 H93 0.951 . S
C101 C100 1.424 . S
C101 C102 1.347 . S
C102 H94 0.951 . S
C102 C97 1.429 . S
C102 C101 1.347 . S
H103 C104 0.951 . S
C104 H103 0.951 . S
C104 C110 1.265 . S
H105 C110 0.950 . S
H106 C114 0.949 . S
H107 C115 0.950 . S
H108 C116 0.951 . S
H109 C117 0.951 . S
C110 C104 1.265 . S
C110 H105 0.950 . S
C110 C111 1.478 . S
C111 C98 1.394 . S
C111 C110 1.478 . S
C111 C112 1.397 . S
C112 C111 1.397 . S
C112 C113 1.438 . S
C112 C117 1.429 . S
C113 C96 1.394 . S
C113 C112 1.438 . S
C113 C114 1.428 . S
C114 H106 0.949 . S
C114 C113 1.428 . S
C114 C115 1.345 . S
C115 H107 0.950 . S
C115 C114 1.345 . S
C115 C116 1.424 . S
C116 H108 0.951 . S
C116 C115 1.424 . S
C116 C117 1.347 . S
C117 H109 0.951 . S
C117 C112 1.429 . S
C117 C116 1.347 . S
H118 C119 0.951 . S
C119 H118 0.951 . S
C119 C125 1.265 . S
H120 C125 0.950 . S
H121 C129 0.949 . S
H122 C130 0.950 . S
H123 C131 0.951 . S
H124 C132 0.951 . S
C125 C119 1.265 . S
C125 H120 0.950 . S
C125 C126 1.478 . S
C126 C125 1.478 . S
C126 C127 1.397 1_565 S
C126 C143 1.394 . S
C127 C126 1.397 1_545 S
C127 C128 1.438 . S
C127 C132 1.429 . S
C128 C127 1.438 . S
C128 C129 1.428 . S
C128 C141 1.394 . S
C129 H121 0.949 . S
C129 C128 1.428 . S
C129 C130 1.345 . S
C130 H122 0.950 . S
C130 C129 1.345 . S
C130 C131 1.424 . S
C131 H123 0.951 . S
C131 C130 1.424 . S
C131 C132 1.347 . S
C132 H124 0.951 . S
C132 C127 1.429 . S
C132 C131 1.347 . S
H133 C134 0.951 . S
C134 H133 0.951 . S
C134 C140 1.265 . S
H135 C140 0.950 . S
H136 C144 0.949 . S
H137 C145 0.950 . S
H138 C146 0.951 . S
H139 C147 0.951 . S
C140 C134 1.265 . S
C140 H135 0.950 . S
C140 C141 1.478 . S
C141 C128 1.394 . S
C141 C140 1.478 . S
C141 C142 1.397 1_545 S
C142 C141 1.397 1_565 S
C142 C143 1.438 . S
C142 C147 1.429 . S
C143 C126 1.394 . S
C143 C142 1.438 . S
C143 C144 1.428 . S
C144 H136 0.949 . S
C144 C143 1.428 . S
C144 C145 1.345 . S
C145 H137 0.950 . S
C145 C144 1.345 . S
C145 C146 1.424 . S
C146 H138 0.951 . S
C146 C145 1.424 . S
C146 C147 1.347 . S
C147 H139 0.951 . S
C147 C142 1.429 . S
C147 C146 1.347 . S
H148 C149 0.951 . S
C149 H148 0.951 . S
C149 C155 1.265 . S
H150 C155 0.950 . S
H151 C159 0.949 . S
H152 C160 0.950 . S
H153 C161 0.951 . S
H154 C162 0.951 . S
C155 C149 1.265 . S
C155 H150 0.950 . S
C155 C156 1.478 . S
C156 C155 1.478 . S
C156 C157 1.397 . S
C156 C173 1.394 . S
C157 C156 1.397 . S
C157 C158 1.438 . S
C157 C162 1.429 . S
C158 C157 1.438 . S
C158 C159 1.428 . S
C158 C171 1.394 . S
C159 H151 0.949 . S
C159 C158 1.428 . S
C159 C160 1.345 . S
C160 H152 0.950 . S
C160 C159 1.345 . S
C160 C161 1.424 . S
C161 H153 0.951 . S
C161 C160 1.424 . S
C161 C162 1.347 . S
C162 H154 0.951 . S
C162 C157 1.429 . S
C162 C161 1.347 . S
H163 C164 0.951 . S
C164 H163 0.951 . S
C164 C170 1.265 . S
H165 C170 0.950 . S
H166 C174 0.949 . S
H167 C175 0.950 . S
H168 C176 0.951 . S
H169 C177 0.951 . S
C170 C164 1.265 . S
C170 H165 0.950 . S
C170 C171 1.478 . S
C171 C158 1.394 . S
C171 C170 1.478 . S
C171 C172 1.397 . S
C172 C171 1.397 . S
C172 C173 1.438 . S
C172 C177 1.429 . S
C173 C156 1.394 . S
C173 C172 1.438 . S
C173 C174 1.428 . S
C174 H166 0.949 . S
C174 C173 1.428 . S
C174 C175 1.345 . S
C175 H167 0.950 . S
C175 C174 1.345 . S
C175 C176 1.424 . S
C176 H168 0.951 . S
C176 C175 1.424 . S
C176 C177 1.347 . S
C177 H169 0.951 . S
C177 C172 1.429 . S
C177 C176 1.347 . S
H178 C179 0.951 . S
C179 H178 0.951 . S
C179 C185 1.265 . S
H180 C185 0.950 . S
H181 C189 0.949 . S
H182 C190 0.950 . S
H183 C191 0.951 . S
H184 C192 0.951 . S
C185 C179 1.265 . S
C185 H180 0.950 . S
C185 C186 1.478 . S
C186 C185 1.478 . S
C186 C187 1.396 1_565 S
C186 C203 1.394 1_565 S
C187 C186 1.396 1_545 S
C187 C188 1.447 . S
C187 C192 1.422 1_545 S
C188 C187 1.447 . S
C188 C189 1.428 . S
C188 C201 1.394 . S
C189 H181 0.949 . S
C189 C188 1.428 . S
C189 C190 1.345 . S
C190 H182 0.950 . S
C190 C189 1.345 . S
C190 C191 1.424 1_545 S
C191 H183 0.951 . S
C191 C190 1.424 1_565 S
C191 C192 1.347 . S
C192 H184 0.951 . S
C192 C187 1.422 1_565 S
C192 C191 1.347 . S
H193 C194 0.951 . S
C194 H193 0.951 . S
C194 C200 1.265 . S
H195 C200 0.950 . S
H196 C204 0.956 . S
H197 C205 0.950 . S
H198 C206 0.951 . S
H199 C207 0.951 . S
C200 C194 1.265 . S
C200 H195 0.950 . S
C200 C201 1.478 . S
C201 C188 1.394 . S
C201 C200 1.478 . S
C201 C202 1.397 . S
C202 C201 1.397 . S
C202 C203 1.438 . S
C202 C207 1.429 . S
C203 C186 1.394 1_545 S
C203 C202 1.438 . S
C203 C204 1.428 . S
C204 H196 0.956 . S
C204 C203 1.428 . S
C204 C205 1.345 . S
C205 H197 0.950 . S
C205 C204 1.345 . S
C205 C206 1.424 . S
C206 H198 0.951 . S
C206 C205 1.424 . S
C206 C207 1.347 . S
C207 H199 0.951 . S
C207 C202 1.429 . S
C207 C206 1.347 . S
H208 C209 0.951 . S
C209 H208 0.951 . S
C209 C215 1.265 . S
H210 C215 0.950 . S
H211 C219 0.949 . S
H212 C220 0.950 . S
H213 C221 0.951 . S
H214 C222 0.951 . S
C215 C209 1.265 . S
C215 H210 0.950 . S
C215 C216 1.478 . S
C216 C215 1.478 . S
C216 C217 1.397 . S
C216 C233 1.394 . S
C217 C216 1.397 . S
C217 C218 1.438 . S
C217 C222 1.429 . S
C218 C217 1.438 . S
C218 C219 1.428 . S
C218 C231 1.394 . S
C219 H211 0.949 . S
C219 C218 1.428 . S
C219 C220 1.345 . S
C220 H212 0.950 . S
C220 C219 1.345 . S
C220 C221 1.424 . S
C221 H213 0.951 . S
C221 C220 1.424 . S
C221 C222 1.347 . S
C222 H214 0.951 . S
C222 C217 1.429 . S
C222 C221 1.347 . S
H223 C224 0.951 . S
C224 H223 0.951 . S
C224 C230 1.265 . S
H225 C230 0.950 . S
H226 C234 0.949 . S
H227 C235 0.950 . S
H228 C236 0.951 . S
H229 C237 0.951 . S
C230 C224 1.265 . S
C230 H225 0.950 . S
C230 C231 1.478 . S
C231 C218 1.394 . S
C231 C230 1.478 . S
C231 C232 1.397 . S
C232 C231 1.397 . S
C232 C233 1.438 . S
C232 C237 1.429 . S
C233 C216 1.394 . S
C233 C232 1.438 . S
C233 C234 1.428 . S
C234 H226 0.949 . S
C234 C233 1.428 . S
C234 C235 1.345 . S
C235 H227 0.950 . S
C235 C234 1.345 . S
C235 C236 1.424 . S
C236 H228 0.951 . S
C236 C235 1.424 . S
C236 C237 1.347 . S
C237 H229 0.951 . S
C237 C232 1.429 . S
C237 C236 1.347 . S
H238 C239 0.951 . S
C239 H238 0.951 . S
C239 C245 1.265 . S
H240 C245 0.950 . S
H241 C249 0.949 . S
H242 C250 0.950 . S
H243 C251 0.951 . S
H244 C252 0.951 . S
C245 C239 1.265 . S
C245 H240 0.950 . S
C245 C246 1.478 . S
C246 C245 1.478 . S
C246 C247 1.397 . S
C246 C263 1.394 . S
C247 C246 1.397 . S
C247 C248 1.438 1_455 S
C247 C252 1.429 . S
C248 C247 1.438 1_655 S
C248 C249 1.428 . S
C248 C261 1.393 1_655 S
C249 H241 0.949 . S
C249 C248 1.428 . S
C249 C250 1.345 . S
C250 H242 0.950 . S
C250 C249 1.345 . S
C250 C251 1.424 . S
C251 H243 0.951 . S
C251 C250 1.424 . S
C251 C252 1.347 1_655 S
C252 H244 0.951 . S
C252 C247 1.429 . S
C252 C251 1.347 1_455 S
H253 C254 0.951 . S
C254 H253 0.951 . S
C254 C260 1.265 . S
H255 C260 0.950 1_455 S
H256 C264 0.949 . S
H257 C265 0.950 . S
H258 C266 0.951 . S
H259 C267 0.951 . S
C260 C254 1.265 . S
C260 H255 0.950 1_655 S
C260 C261 1.476 1_655 S
C261 C248 1.393 1_455 S
C261 C260 1.476 1_455 S
C261 C262 1.400 . S
C262 C261 1.400 . S
C262 C263 1.438 . S
C262 C267 1.429 . S
C263 C246 1.394 . S
C263 C262 1.438 . S
C263 C264 1.428 . S
C264 H256 0.949 . S
C264 C263 1.428 . S
C264 C265 1.345 . S
C265 H257 0.950 . S
C265 C264 1.345 . S
C265 C266 1.424 . S
C266 H258 0.951 . S
C266 C265 1.424 . S
C266 C267 1.347 . S
C267 H259 0.951 . S
C267 C262 1.429 . S
C267 C266 1.347 . S
H268 C269 0.951 . S
C269 H268 0.951 . S
C269 C275 1.265 . S
H270 C275 0.950 . S
H271 C279 0.949 . S
H272 C280 0.950 . S
H273 C281 0.951 . S
H274 C282 0.951 . S
C275 C269 1.265 . S
C275 H270 0.950 . S
C275 C276 1.478 . S
C276 C275 1.478 . S
C276 C277 1.397 . S
C276 C293 1.394 . S
C277 C276 1.397 . S
C277 C278 1.438 . S
C277 C282 1.429 . S
C278 C277 1.438 . S
C278 C279 1.428 . S
C278 C291 1.394 1_556 S
C279 H271 0.949 . S
C279 C278 1.428 . S
C279 C280 1.345 . S
C280 H272 0.950 . S
C280 C279 1.345 . S
C280 C281 1.424 . S
C281 H273 0.951 . S
C281 C280 1.424 . S
C281 C282 1.347 . S
C282 H274 0.951 . S
C282 C277 1.429 . S
C282 C281 1.347 . S
H283 C284 0.951 . S
C284 H283 0.951 . S
C284 C290 1.265 . S
H285 C290 0.950 . S
H286 C294 0.949 . S
H287 C295 0.950 . S
H288 C296 0.951 . S
H289 C297 0.951 . S
C290 C284 1.265 . S
C290 H285 0.950 . S
C290 C291 1.478 . S
C291 C278 1.394 1_554 S
C291 C290 1.478 . S
C291 C292 1.397 . S
C292 C291 1.397 . S
C292 C293 1.438 1_554 S
C292 C297 1.429 . S
C293 C276 1.394 . S
C293 C292 1.438 1_556 S
C293 C294 1.428 . S
C294 H286 0.949 . S
C294 C293 1.428 . S
C294 C295 1.345 1_556 S
C295 H287 0.950 . S
C295 C294 1.345 1_554 S
C295 C296 1.424 . S
C296 H288 0.951 . S
C296 C295 1.424 . S
C296 C297 1.347 . S
C297 H289 0.951 . S
C297 C292 1.429 . S
C297 C296 1.347 . S
H298 C299 0.951 . S
C299 H298 0.951 . S
C299 C305 1.265 . S
H300 C305 0.950 . S
H301 C309 0.949 . S
H302 C310 0.950 . S
H303 C311 0.951 . S
H304 C312 0.951 . S
C305 C299 1.265 . S
C305 H300 0.950 . S
C305 C306 1.478 . S
C306 C305 1.478 . S
C306 C307 1.397 . S
C306 C323 1.394 . S
C307 C306 1.397 . S
C307 C308 1.438 . S
C307 C312 1.429 . S
C308 C307 1.438 . S
C308 C309 1.428 . S
C308 C321 1.394 . S
C309 H301 0.949 . S
C309 C308 1.428 . S
C309 C310 1.345 . S
C310 H302 0.950 . S
C310 C309 1.345 . S
C310 C311 1.424 . S
C311 H303 0.951 . S
C311 C310 1.424 . S
C311 C312 1.347 . S
C312 H304 0.951 . S
C312 C307 1.429 . S
C312 C311 1.347 . S
H313 C314 0.951 . S
C314 H313 0.951 . S
C314 C320 1.265 . S
H315 C320 0.950 . S
H316 C324 0.949 . S
H317 C325 0.950 . S
H318 C326 0.951 . S
H319 C327 0.951 . S
C320 C314 1.265 . S
C320 H315 0.950 . S
C320 C321 1.478 . S
C321 C308 1.394 . S
C321 C320 1.478 . S
C321 C322 1.397 . S
C322 C321 1.397 . S
C322 C323 1.438 . S
C322 C327 1.429 . S
C323 C306 1.394 . S
C323 C322 1.438 . S
C323 C324 1.428 . S
C324 H316 0.949 . S
C324 C323 1.428 . S
C324 C325 1.345 . S
C325 H317 0.950 . S
C325 C324 1.345 . S
C325 C326 1.424 . S
C326 H318 0.951 . S
C326 C325 1.424 . S
C326 C327 1.347 . S
C327 H319 0.951 . S
C327 C322 1.429 . S
C327 C326 1.347 . S
H328 C329 0.951 . S
C329 H328 0.951 . S
C329 C335 1.265 . S
H330 C335 0.950 . S
H331 C339 0.949 . S
H332 C340 0.950 . S
H333 C341 0.951 . S
H334 C342 0.951 . S
C335 C329 1.265 . S
C335 H330 0.950 . S
C335 C336 1.478 . S
C336 C335 1.478 . S
C336 C337 1.397 . S
C336 C353 1.394 . S
C337 C336 1.397 . S
C337 C338 1.438 . S
C337 C342 1.429 . S
C338 C337 1.438 . S
C338 C339 1.428 . S
C338 C351 1.394 . S
C339 H331 0.949 . S
C339 C338 1.428 . S
C339 C340 1.345 . S
C340 H332 0.950 . S
C340 C339 1.345 . S
C340 C341 1.424 . S
C341 H333 0.951 . S
C341 C340 1.424 . S
C341 C342 1.347 . S
C342 H334 0.951 . S
C342 C337 1.429 . S
C342 C341 1.347 . S
H343 C344 0.951 . S
C344 H343 0.951 . S
C344 C350 1.265 . S
H345 C350 0.950 . S
H346 C354 0.949 . S
H347 C355 0.950 . S
H348 C356 0.951 . S
H349 C357 0.951 . S
C350 C344 1.265 . S
C350 H345 0.950 . S
C350 C351 1.478 . S
C351 C338 1.394 . S
C351 C350 1.478 . S
C351 C352 1.397 . S
C352 C351 1.397 . S
C352 C353 1.438 . S
C352 C357 1.429 . S
C353 C336 1.394 . S
C353 C352 1.438 . S
C353 C354 1.428 . S
C354 H346 0.949 . S
C354 C353 1.428 . S
C354 C355 1.345 . S
C355 H347 0.950 . S
C355 C354 1.345 . S
C355 C356 1.424 . S
C356 H348 0.951 . S
C356 C355 1.424 . S
C356 C357 1.347 . S
C357 H349 0.951 . S
C357 C352 1.429 . S
C357 C356 1.347 . S
H358 C359 0.951 . S
C359 H358 0.951 . S
C359 C365 1.265 . S
H360 C365 0.950 1_655 S
H361 C369 0.949 . S
H362 C370 0.950 . S
H363 C371 0.951 . S
H364 C372 0.951 . S
C365 C359 1.265 . S
C365 H360 0.950 1_455 S
C365 C366 1.482 . S
C366 C365 1.482 . S
C366 C367 1.387 1_455 S
C366 C383 1.400 . S
C367 C366 1.387 1_655 S
C367 C368 1.438 . S
C367 C372 1.429 . S
C368 C367 1.438 . S
C368 C369 1.428 . S
C368 C381 1.394 . S
C369 H361 0.949 . S
C369 C368 1.428 . S
C369 C370 1.345 . S
C370 H362 0.950 . S
C370 C369 1.345 . S
C370 C371 1.424 . S
C371 H363 0.951 . S
C371 C370 1.424 . S
C371 C372 1.347 . S
C372 H364 0.951 . S
C372 C367 1.429 . S
C372 C371 1.347 . S
H373 C374 0.951 . S
C374 H373 0.951 . S
C374 C380 1.265 . S
H375 C380 0.950 . S
H376 C384 0.949 . S
H377 C385 0.950 . S
H378 C386 0.951 . S
H379 C387 0.951 . S
C380 C374 1.265 . S
C380 H375 0.950 . S
C380 C381 1.478 . S
C381 C368 1.394 . S
C381 C380 1.478 . S
C381 C382 1.397 1_655 S
C382 C381 1.397 1_455 S
C382 C383 1.438 . S
C382 C387 1.429 . S
C383 C366 1.400 . S
C383 C382 1.438 . S
C383 C384 1.428 . S
C384 H376 0.949 . S
C384 C383 1.428 . S
C384 C385 1.345 . S
C385 H377 0.950 . S
C385 C384 1.345 . S
C385 C386 1.424 . S
C386 H378 0.951 . S
C386 C385 1.424 . S
C386 C387 1.347 . S
C387 H379 0.951 . S
C387 C382 1.429 . S
C387 C386 1.347 . S
H388 C389 0.951 . S
C389 H388 0.951 . S
C389 C395 1.265 . S
H390 C395 0.950 . S
H391 C399 0.949 . S
H392 C400 0.950 . S
H393 C401 0.951 . S
H394 C402 0.951 . S
C395 C389 1.265 . S
C395 H390 0.950 . S
C395 C396 1.478 . S
C396 C395 1.478 . S
C396 C397 1.397 1_556 S
C396 C413 1.394 . S
C397 C396 1.397 1_554 S
C397 C398 1.438 . S
C397 C402 1.429 . S
C398 C397 1.438 . S
C398 C399 1.428 . S
C398 C411 1.394 . S
C399 H391 0.949 . S
C399 C398 1.428 . S
C399 C400 1.345 . S
C400 H392 0.950 . S
C400 C399 1.345 . S
C400 C401 1.424 . S
C401 H393 0.951 . S
C401 C400 1.424 . S
C401 C402 1.347 . S
C402 H394 0.951 . S
C402 C397 1.429 . S
C402 C401 1.347 . S
H403 C404 0.951 . S
C404 H403 0.951 . S
C404 C410 1.265 . S
H405 C410 0.950 . S
H406 C414 0.949 . S
H407 C415 0.950 . S
H408 C416 0.951 . S
H409 C417 0.951 . S
C410 C404 1.265 . S
C410 H405 0.950 . S
C410 C411 1.478 . S
C411 C398 1.394 . S
C411 C410 1.478 . S
C411 C412 1.397 . S
C412 C411 1.397 . S
C412 C413 1.438 1_554 S
C412 C417 1.429 . S
C413 C396 1.394 . S
C413 C412 1.438 1_556 S
C413 C414 1.428 . S
C414 H406 0.949 . S
C414 C413 1.428 . S
C414 C415 1.345 . S
C415 H407 0.950 . S
C415 C414 1.345 . S
C415 C416 1.424 . S
C416 H408 0.951 . S
C416 C415 1.424 . S
C416 C417 1.347 1_556 S
C417 H409 0.951 . S
C417 C412 1.429 . S
C417 C416 1.347 1_554 S
H418 C419 0.951 . S
C419 H418 0.951 . S
C419 C425 1.265 . S
H420 C425 0.950 . S
H421 C429 0.949 . S
H422 C430 0.950 . S
H423 C431 0.951 . S
H424 C432 0.951 . S
C425 C419 1.265 . S
C425 H420 0.950 . S
C425 C426 1.478 . S
C426 C425 1.478 . S
C426 C427 1.397 . S
C426 C443 1.394 . S
C427 C426 1.397 . S
C427 C428 1.438 . S
C427 C432 1.429 . S
C428 C427 1.438 . S
C428 C429 1.428 . S
C428 C441 1.394 . S
C429 H421 0.949 . S
C429 C428 1.428 . S
C429 C430 1.345 . S
C430 H422 0.950 . S
C430 C429 1.345 . S
C430 C431 1.424 . S
C431 H423 0.951 . S
C431 C430 1.424 . S
C431 C432 1.347 . S
C432 H424 0.951 . S
C432 C427 1.429 . S
C432 C431 1.347 . S
H433 C434 0.951 . S
C434 H433 0.951 . S
C434 C440 1.265 . S
H435 C440 0.950 . S
H436 C444 0.949 . S
H437 C445 0.950 . S
H438 C446 0.951 . S
H439 C447 0.951 . S
C440 C434 1.265 . S
C440 H435 0.950 . S
C440 C441 1.478 . S
C441 C428 1.394 . S
C441 C440 1.478 . S
C441 C442 1.397 . S
C442 C441 1.397 . S
C442 C443 1.438 . S
C442 C447 1.429 . S
C443 C426 1.394 . S
C443 C442 1.438 . S
C443 C444 1.428 . S
C444 H436 0.949 . S
C444 C443 1.428 . S
C444 C445 1.345 . S
C445 H437 0.950 . S
C445 C444 1.345 . S
C445 C446 1.424 . S
C446 H438 0.951 . S
C446 C445 1.424 . S
C446 C447 1.347 . S
C447 H439 0.951 . S
C447 C442 1.429 . S
C447 C446 1.347 . S
C89 C51 1.220 1_554 S
C104 C4 1.277 . S
C119 C75 1.301 . S
C134 C31 1.351 . S
C149 C48 1.330 . S
C164 C7 1.235 . S
C179 C71 1.317 1_556 S
C194 C27 1.345 . S
C209 C30 1.342 1_455 S
C224 C5 1.323 . S
C239 C50 1.350 . S
C254 C29 1.269 1_565 S
C269 C49 1.324 . S
C284 C70 1.231 . S
C299 C6 1.220 . S
C314 C72 1.295 1_545 S
C329 C28 1.347 . S
C344 C9 1.259 . S
C359 C52 1.242 . S
C374 C26 1.337 . S
C389 C53 1.247 1_655 S
C404 C73 1.234 . S
C419 C74 1.227 . S
C434 C8 1.319 . S
