# Generated by pormake.
# Topology vba, (4)-cn, num edge types: 1
# Building blocks:
#     Node 0, Type 0, BuildingBlock: GALJAG_clean_sbu_0, # of connection points: 4
#     Node 1, Type 0, BuildingBlock: GALJAG_clean_sbu_0, # of connection points: 4
#     Node 2, Type 0, BuildingBlock: GALJAG_clean_sbu_0, # of connection points: 4
#     Node 3, Type 0, BuildingBlock: GALJAG_clean_sbu_0, # of connection points: 4
#     Node 4, Type 0, BuildingBlock: GALJAG_clean_sbu_0, # of connection points: 4
#     Node 5, Type 0, BuildingBlock: GALJAG_clean_sbu_0, # of connection points: 4
#     Node 6, Type 0, BuildingBlock: GALJAG_clean_sbu_0, # of connection points: 4
#     Node 7, Type 0, BuildingBlock: GALJAG_clean_sbu_0, # of connection points: 4
#     Node 8, Type 0, BuildingBlock: GALJAG_clean_sbu_0, # of connection points: 4
#     Node 9, Type 0, BuildingBlock: GALJAG_clean_sbu_0, # of connection points: 4
#     Node 10, Type 0, BuildingBlock: GALJAG_clean_sbu_0, # of connection points: 4
#     Node 11, Type 0, BuildingBlock: GALJAG_clean_sbu_0, # of connection points: 4
#     Node 12, Type 0, BuildingBlock: GALJAG_clean_sbu_0, # of connection points: 4
#     Node 13, Type 0, BuildingBlock: GALJAG_clean_sbu_0, # of connection points: 4
#     Node 14, Type 0, BuildingBlock: GALJAG_clean_sbu_0, # of connection points: 4
#     Node 15, Type 0, BuildingBlock: GALJAG_clean_sbu_0, # of connection points: 4
#     Node 16, Type 0, BuildingBlock: GALJAG_clean_sbu_0, # of connection points: 4
#     Node 17, Type 0, BuildingBlock: GALJAG_clean_sbu_0, # of connection points: 4
#     Node 18, Type 0, BuildingBlock: GALJAG_clean_sbu_0, # of connection points: 4
#     Node 19, Type 0, BuildingBlock: GALJAG_clean_sbu_0, # of connection points: 4
#     Node 20, Type 0, BuildingBlock: GALJAG_clean_sbu_0, # of connection points: 4
#     Node 21, Type 0, BuildingBlock: GALJAG_clean_sbu_0, # of connection points: 4
#     Node 22, Type 0, BuildingBlock: GALJAG_clean_sbu_0, # of connection points: 4
#     Node 23, Type 0, BuildingBlock: GALJAG_clean_sbu_0, # of connection points: 4
#     Node 24, Type 0, BuildingBlock: GALJAG_clean_sbu_0, # of connection points: 4
#     Node 25, Type 0, BuildingBlock: GALJAG_clean_sbu_0, # of connection points: 4
#     Node 26, Type 0, BuildingBlock: GALJAG_clean_sbu_0, # of connection points: 4
#     Node 27, Type 0, BuildingBlock: GALJAG_clean_sbu_0, # of connection points: 4
#     Node 28, Type 0, BuildingBlock: GALJAG_clean_sbu_0, # of connection points: 4
#     Node 29, Type 0, BuildingBlock: GALJAG_clean_sbu_0, # of connection points: 4
#     Node 30, Type 0, BuildingBlock: GALJAG_clean_sbu_0, # of connection points: 4
#     Node 31, Type 0, BuildingBlock: GALJAG_clean_sbu_0, # of connection points: 4
#     Edge 32, Type (0, 0), BuildingBlock: UVAHIK_clean_linker_0, # of connection points: 2
#     Edge 33, Type (0, 0), BuildingBlock: UVAHIK_clean_linker_0, # of connection points: 2
#     Edge 34, Type (0, 0), BuildingBlock: UVAHIK_clean_linker_0, # of connection points: 2
#     Edge 35, Type (0, 0), BuildingBlock: UVAHIK_clean_linker_0, # of connection points: 2
#     Edge 36, Type (0, 0), BuildingBlock: UVAHIK_clean_linker_0, # of connection points: 2
#     Edge 37, Type (0, 0), BuildingBlock: UVAHIK_clean_linker_0, # of connection points: 2
#     Edge 38, Type (0, 0), BuildingBlock: UVAHIK_clean_linker_0, # of connection points: 2
#     Edge 39, Type (0, 0), BuildingBlock: UVAHIK_clean_linker_0, # of connection points: 2
#     Edge 40, Type (0, 0), BuildingBlock: UVAHIK_clean_linker_0, # of connection points: 2
#     Edge 41, Type (0, 0), BuildingBlock: UVAHIK_clean_linker_0, # of connection points: 2
#     Edge 42, Type (0, 0), BuildingBlock: UVAHIK_clean_linker_0, # of connection points: 2
#     Edge 43, Type (0, 0), BuildingBlock: UVAHIK_clean_linker_0, # of connection points: 2
#     Edge 44, Type (0, 0), BuildingBlock: UVAHIK_clean_linker_0, # of connection points: 2
#     Edge 45, Type (0, 0), BuildingBlock: UVAHIK_clean_linker_0, # of connection points: 2
#     Edge 46, Type (0, 0), BuildingBlock: UVAHIK_clean_linker_0, # of connection points: 2
#     Edge 47, Type (0, 0), BuildingBlock: UVAHIK_clean_linker_0, # of connection points: 2
#     Edge 48, Type (0, 0), BuildingBlock: UVAHIK_clean_linker_0, # of connection points: 2
#     Edge 49, Type (0, 0), BuildingBlock: UVAHIK_clean_linker_0, # of connection points: 2
#     Edge 50, Type (0, 0), BuildingBlock: UVAHIK_clean_linker_0, # of connection points: 2
#     Edge 51, Type (0, 0), BuildingBlock: UVAHIK_clean_linker_0, # of connection points: 2
#     Edge 52, Type (0, 0), BuildingBlock: UVAHIK_clean_linker_0, # of connection points: 2
#     Edge 53, Type (0, 0), BuildingBlock: UVAHIK_clean_linker_0, # of connection points: 2
#     Edge 54, Type (0, 0), BuildingBlock: UVAHIK_clean_linker_0, # of connection points: 2
#     Edge 55, Type (0, 0), BuildingBlock: UVAHIK_clean_linker_0, # of connection points: 2
#     Edge 56, Type (0, 0), BuildingBlock: UVAHIK_clean_linker_0, # of connection points: 2
#     Edge 57, Type (0, 0), BuildingBlock: UVAHIK_clean_linker_0, # of connection points: 2
#     Edge 58, Type (0, 0), BuildingBlock: UVAHIK_clean_linker_0, # of connection points: 2
#     Edge 59, Type (0, 0), BuildingBlock: UVAHIK_clean_linker_0, # of connection points: 2
#     Edge 60, Type (0, 0), BuildingBlock: UVAHIK_clean_linker_0, # of connection points: 2
#     Edge 61, Type (0, 0), BuildingBlock: UVAHIK_clean_linker_0, # of connection points: 2
#     Edge 62, Type (0, 0), BuildingBlock: UVAHIK_clean_linker_0, # of connection points: 2
#     Edge 63, Type (0, 0), BuildingBlock: UVAHIK_clean_linker_0, # of connection points: 2
#     Edge 64, Type (0, 0), BuildingBlock: UVAHIK_clean_linker_0, # of connection points: 2
#     Edge 65, Type (0, 0), BuildingBlock: UVAHIK_clean_linker_0, # of connection points: 2
#     Edge 66, Type (0, 0), BuildingBlock: UVAHIK_clean_linker_0, # of connection points: 2
#     Edge 67, Type (0, 0), BuildingBlock: UVAHIK_clean_linker_0, # of connection points: 2
#     Edge 68, Type (0, 0), BuildingBlock: UVAHIK_clean_linker_0, # of connection points: 2
#     Edge 69, Type (0, 0), BuildingBlock: UVAHIK_clean_linker_0, # of connection points: 2
#     Edge 70, Type (0, 0), BuildingBlock: UVAHIK_clean_linker_0, # of connection points: 2
#     Edge 71, Type (0, 0), BuildingBlock: UVAHIK_clean_linker_0, # of connection points: 2
#     Edge 72, Type (0, 0), BuildingBlock: UVAHIK_clean_linker_0, # of connection points: 2
#     Edge 73, Type (0, 0), BuildingBlock: UVAHIK_clean_linker_0, # of connection points: 2
#     Edge 74, Type (0, 0), BuildingBlock: UVAHIK_clean_linker_0, # of connection points: 2
#     Edge 75, Type (0, 0), BuildingBlock: UVAHIK_clean_linker_0, # of connection points: 2
#     Edge 76, Type (0, 0), BuildingBlock: UVAHIK_clean_linker_0, # of connection points: 2
#     Edge 77, Type (0, 0), BuildingBlock: UVAHIK_clean_linker_0, # of connection points: 2
#     Edge 78, Type (0, 0), BuildingBlock: UVAHIK_clean_linker_0, # of connection points: 2
#     Edge 79, Type (0, 0), BuildingBlock: UVAHIK_clean_linker_0, # of connection points: 2
#     Edge 80, Type (0, 0), BuildingBlock: UVAHIK_clean_linker_0, # of connection points: 2
#     Edge 81, Type (0, 0), BuildingBlock: UVAHIK_clean_linker_0, # of connection points: 2
#     Edge 82, Type (0, 0), BuildingBlock: UVAHIK_clean_linker_0, # of connection points: 2
#     Edge 83, Type (0, 0), BuildingBlock: UVAHIK_clean_linker_0, # of connection points: 2
#     Edge 84, Type (0, 0), BuildingBlock: UVAHIK_clean_linker_0, # of connection points: 2
#     Edge 85, Type (0, 0), BuildingBlock: UVAHIK_clean_linker_0, # of connection points: 2
#     Edge 86, Type (0, 0), BuildingBlock: UVAHIK_clean_linker_0, # of connection points: 2
#     Edge 87, Type (0, 0), BuildingBlock: UVAHIK_clean_linker_0, # of connection points: 2
#     Edge 88, Type (0, 0), BuildingBlock: UVAHIK_clean_linker_0, # of connection points: 2
#     Edge 89, Type (0, 0), BuildingBlock: UVAHIK_clean_linker_0, # of connection points: 2
#     Edge 90, Type (0, 0), BuildingBlock: UVAHIK_clean_linker_0, # of connection points: 2
#     Edge 91, Type (0, 0), BuildingBlock: UVAHIK_clean_linker_0, # of connection points: 2
#     Edge 92, Type (0, 0), BuildingBlock: UVAHIK_clean_linker_0, # of connection points: 2
#     Edge 93, Type (0, 0), BuildingBlock: UVAHIK_clean_linker_0, # of connection points: 2
#     Edge 94, Type (0, 0), BuildingBlock: UVAHIK_clean_linker_0, # of connection points: 2
#     Edge 95, Type (0, 0), BuildingBlock: UVAHIK_clean_linker_0, # of connection points: 2
# Relax obj value: 0.078
# Max RMSD: 0.280
# Mean RMSD: 0.276
data_MOF--net-vba--node1-GALJAG_clean_sbu_0--edge1-UVAHIK_clean_linker_0
_symmetry_space_group_name_H-M    P1
_symmetry_Int_Tables_number       1
_symmetry_cell_setting            triclinic
loop_
_symmetry_equiv_pos_as_xyz
'x, y, z'
_cell_length_a     27.651997
_cell_length_b     122.36532
_cell_length_c     69.067322
_cell_angle_alpha  89.979824
_cell_angle_beta   90.003786
_cell_angle_gamma 89.834219
loop_
_atom_site_label
_atom_site_type_symbol
_atom_site_fract_x
_atom_site_fract_y
_atom_site_fract_z
_atom_type_partial_charge
In0 In 0.27558 0.04715 0.00386 0.0
O1 O 0.32557 0.05627 0.98331 0.0
O2 O 0.35603 0.0432 0.99946 0.0
C3 C 0.27552 0.04331 0.04231 0.0
C4 C 0.25248 0.02829 0.98541 0.0
C5 C 0.21764 0.06505 0.00203 0.0
O6 O 0.23964 0.04153 0.0315 0.0
O7 O 0.31199 0.04727 0.03379 0.0
O8 O 0.25917 0.06505 0.00955 0.0
O9 O 0.20479 0.05592 0.99518 0.0
C10 C 0.36232 0.05047 0.98674 0.0
O11 O 0.2555 0.02916 0.00352 0.0
O12 O 0.25826 0.03716 0.97638 0.0
In13 In 0.94582 0.18933 0.9877 0.0
O14 O 0.98551 0.19552 0.96082 0.0
O15 O 0.92988 0.1835 0.95766 0.0
C16 C 0.9809 0.19795 0.02029 0.0
C17 C 0.86923 0.20277 0.98609 0.0
C18 C 0.97344 0.16857 0.99409 0.0
O19 O 0.00297 0.19895 0.00426 0.0
O20 O 0.94209 0.19252 0.01966 0.0
O21 O 0.92899 0.1712 0.9932 0.0
O22 O 0.00277 0.17639 0.9919 0.0
C23 C 0.9605 0.18962 0.94952 0.0
O24 O 0.86459 0.19294 0.99181 0.0
O25 O 0.91157 0.20547 0.98128 0.0
In26 In 0.22285 0.20108 0.23675 0.0
O27 O 0.30598 0.2002 0.23746 0.0
O28 O 0.27121 0.21527 0.23058 0.0
C29 C 0.2019 0.17996 0.23064 0.0
C30 C 0.21226 0.20573 0.27475 0.0
C31 C 0.17563 0.20908 0.20599 0.0
O32 O 0.24455 0.1836 0.22906 0.0
O33 O 0.17037 0.18697 0.2353 0.0
O34 O 0.2184 0.2055 0.20532 0.0
O35 O 0.15546 0.20858 0.22245 0.0
C36 C 0.31037 0.21023 0.23331 0.0
O37 O 0.20396 0.21275 0.26178 0.0
O38 O 0.22231 0.19635 0.26847 0.0
In39 In 0.05184 0.04689 0.25343 0.0
O40 O 0.97553 0.04346 0.2423 0.0
O41 O 0.01284 0.03092 0.25788 0.0
C42 C 0.0726 0.06715 0.24124 0.0
C43 C 0.04259 0.0504 0.29172 0.0
C44 C 0.11477 0.03701 0.22953 0.0
O45 O 0.0307 0.06313 0.23916 0.0
O46 O 0.10302 0.06095 0.24936 0.0
O47 O 0.12645 0.03945 0.24675 0.0
O48 O 0.07167 0.03922 0.22495 0.0
C49 C 0.97484 0.03383 0.24909 0.0
O50 O 0.0702 0.04295 0.28528 0.0
O51 O 0.02139 0.05597 0.27892 0.0
In52 In 0.61311 0.94033 0.97297 0.0
O53 O 0.53423 0.94305 0.98075 0.0
O54 O 0.54895 0.93782 0.95209 0.0
C55 C 0.67166 0.92272 0.96768 0.0
C56 C 0.60999 0.94426 0.01135 0.0
C57 C 0.64907 0.95576 0.94904 0.0
O58 O 0.62615 0.9218 0.96831 0.0
O59 O 0.6867 0.93235 0.96947 0.0
O60 O 0.61328 0.94988 0.94487 0.0
O61 O 0.66635 0.95415 0.96575 0.0
C62 C 0.51762 0.94097 0.9642 0.0
O63 O 0.61321 0.9519 0.99906 0.0
O64 O 0.61006 0.93475 0.00424 0.0
In65 In 0.08353 0.81789 0.97033 0.0
O66 O 0.07595 0.80573 0.99548 0.0
O67 O 0.1016 0.82178 0.00146 0.0
C68 C 0.04643 0.80824 0.93889 0.0
C69 C 0.17687 0.81397 0.96193 0.0
C70 C 0.02241 0.8351 0.97019 0.0
O71 O 0.03398 0.80536 0.95581 0.0
O72 O 0.07652 0.81598 0.93808 0.0
O73 O 0.06655 0.83611 0.96552 0.0
O74 O 0.01015 0.82556 0.97512 0.0
C75 C 0.09196 0.81239 0.00792 0.0
O76 O 0.16228 0.82361 0.96549 0.0
O77 O 0.14464 0.80671 0.96254 0.0
In78 In 0.75921 0.80141 0.73261 0.0
O79 O 0.7929 0.79516 0.70439 0.0
O80 O 0.73992 0.80783 0.70286 0.0
C81 C 0.80926 0.79253 0.76199 0.0
C82 C 0.67997 0.78869 0.73519 0.0
C83 C 0.78477 0.82215 0.74104 0.0
O84 O 0.82578 0.79268 0.74487 0.0
O85 O 0.76754 0.79659 0.76396 0.0
O86 O 0.74079 0.8192 0.74121 0.0
O87 O 0.81442 0.81475 0.7364 0.0
C88 C 0.7682 0.80152 0.69381 0.0
O89 O 0.67903 0.79864 0.74036 0.0
O90 O 0.72013 0.78543 0.72867 0.0
In91 In 0.00562 0.95137 0.76552 0.0
O92 O 0.99346 0.95725 0.73433 0.0
O93 O 0.04412 0.94436 0.7398 0.0
C94 C 0.94556 0.96069 0.79103 0.0
C95 C 0.08291 0.96381 0.77351 0.0
C96 C 0.97091 0.93094 0.76906 0.0
O97 O 0.93787 0.96127 0.77293 0.0
O98 O 0.98309 0.95543 0.79591 0.0
O99 O 0.01297 0.93343 0.775 0.0
O100 O 0.94709 0.93875 0.76173 0.0
C101 C 0.02434 0.95058 0.72753 0.0
O102 O 0.08158 0.9538 0.77844 0.0
O103 O 0.04554 0.96729 0.76495 0.0
In104 In 0.19901 0.55224 0.49147 0.0
O105 O 0.19457 0.54534 0.46062 0.0
O106 O 0.23781 0.55948 0.46594 0.0
C107 C 0.13935 0.54263 0.51657 0.0
C108 C 0.27746 0.5407 0.50128 0.0
C109 C 0.15955 0.57203 0.4967 0.0
O110 O 0.12922 0.54288 0.49863 0.0
O111 O 0.17876 0.54705 0.52137 0.0
O112 O 0.20115 0.5697 0.50336 0.0
O113 O 0.13953 0.56452 0.48704 0.0
C114 C 0.22394 0.55235 0.45396 0.0
O115 O 0.27498 0.55091 0.50463 0.0
O116 O 0.24056 0.53659 0.49334 0.0
In117 In 0.84095 0.68911 0.54024 0.0
O118 O 0.83393 0.70453 0.52142 0.0
O119 O 0.86619 0.69048 0.509 0.0
C120 C 0.87858 0.69753 0.57289 0.0
C121 C 0.74328 0.68965 0.54195 0.0
C122 C 0.88779 0.66969 0.53914 0.0
O123 O 0.89172 0.70071 0.55628 0.0
O124 O 0.84644 0.69022 0.57292 0.0
O125 O 0.84213 0.6703 0.53926 0.0
O126 O 0.90911 0.67876 0.53987 0.0
C127 C 0.85157 0.70013 0.50651 0.0
O128 O 0.7701 0.69454 0.55386 0.0
O129 O 0.76574 0.68383 0.5298 0.0
In130 In 0.22728 0.69496 0.76737 0.0
O131 O 0.19355 0.69965 0.79663 0.0
O132 O 0.25463 0.68903 0.79635 0.0
C133 C 0.16589 0.70312 0.74082 0.0
C134 C 0.30091 0.7092 0.76269 0.0
C135 C 0.21441 0.67358 0.759 0.0
O136 O 0.15439 0.70228 0.75851 0.0
O137 O 0.20829 0.70002 0.73677 0.0
O138 O 0.25603 0.67788 0.75882 0.0
O139 O 0.18045 0.68004 0.76325 0.0
C140 C 0.22353 0.69406 0.80633 0.0
O141 O 0.30356 0.69942 0.75673 0.0
O142 O 0.26169 0.71163 0.771 0.0
In143 In 0.98288 0.54615 0.74757 0.0
O144 O 0.98765 0.54626 0.77971 0.0
O145 O 0.92234 0.55265 0.76666 0.0
C146 C 0.98653 0.54281 0.70965 0.0
C147 C 0.95895 0.52553 0.75409 0.0
C148 C 0.03465 0.56449 0.74686 0.0
O149 O 0.02007 0.53993 0.72115 0.0
O150 O 0.95036 0.54761 0.71738 0.0
O151 O 0.98993 0.56413 0.74273 0.0
O152 O 0.05401 0.55537 0.75142 0.0
C153 C 0.94553 0.55023 0.78207 0.0
O154 O 0.92862 0.53278 0.74886 0.0
O155 O 0.00288 0.52863 0.75546 0.0
In156 In 0.7668 0.45675 0.49636 0.0
O157 O 0.68495 0.45948 0.49571 0.0
O158 O 0.73147 0.47293 0.50232 0.0
C159 C 0.79013 0.43573 0.49095 0.0
C160 C 0.78595 0.45692 0.53431 0.0
C161 C 0.79682 0.46404 0.4618 0.0
O162 O 0.74636 0.43891 0.49133 0.0
O163 O 0.82132 0.44321 0.49282 0.0
O164 O 0.82355 0.46481 0.4767 0.0
O165 O 0.75596 0.45973 0.46462 0.0
C166 C 0.68872 0.46953 0.50011 0.0
O167 O 0.80623 0.46371 0.52303 0.0
O168 O 0.7578 0.4502 0.52633 0.0
In169 In 0.9468 0.30361 0.53639 0.0
O170 O 0.9047 0.29754 0.56293 0.0
O171 O 0.95461 0.31068 0.56631 0.0
C172 C 0.91382 0.29396 0.50412 0.0
C173 C 0.02657 0.2913 0.54043 0.0
C174 C 0.92769 0.32431 0.52577 0.0
O175 O 0.88696 0.29508 0.51888 0.0
O176 O 0.95616 0.29761 0.50594 0.0
O177 O 0.97069 0.32081 0.52756 0.0
O178 O 0.89517 0.31739 0.52947 0.0
C179 C 0.92511 0.30424 0.57429 0.0
O180 O 0.02882 0.30111 0.53454 0.0
O181 O 0.98458 0.28796 0.54444 0.0
In182 In 0.75093 0.3017 0.27216 0.0
O183 O 0.77657 0.29498 0.24296 0.0
O184 O 0.72103 0.30738 0.24405 0.0
C185 C 0.78127 0.29609 0.3072 0.0
C186 C 0.67918 0.28753 0.27378 0.0
C187 C 0.78671 0.32177 0.27371 0.0
O188 O 0.80524 0.29338 0.29215 0.0
O189 O 0.74338 0.30172 0.30423 0.0
O190 O 0.74213 0.31988 0.27686 0.0
O191 O 0.81275 0.31346 0.27001 0.0
C192 C 0.74663 0.30103 0.23383 0.0
O193 O 0.67125 0.29775 0.2755 0.0
O194 O 0.72294 0.28469 0.27155 0.0
In195 In 0.97654 0.45154 0.23188 0.0
O196 O 0.05864 0.45387 0.23252 0.0
O197 O 0.01343 0.46733 0.22453 0.0
C198 C 0.95548 0.43094 0.24179 0.0
C199 C 0.95369 0.45077 0.19405 0.0
C200 C 0.94545 0.46045 0.26522 0.0
O201 O -0.00114 0.43411 0.23983 0.0
O202 O 0.92359 0.43813 0.23858 0.0
O203 O 0.9195 0.46064 0.25005 0.0
O204 O 0.98633 0.45598 0.26322 0.0
C205 C 0.0558 0.4638 0.22736 0.0
O206 O 0.93365 0.45757 0.20538 0.0
O207 O 0.98351 0.44435 0.202 0.0
In208 In 0.75683 0.05316 0.50799 0.0
O209 O 0.76373 0.05277 0.47579 0.0
O210 O 0.82399 0.05902 0.49221 0.0
C211 C 0.74552 0.05109 0.546 0.0
C212 C 0.78236 0.03233 0.50456 0.0
C213 C 0.7033 0.07119 0.50426 0.0
O214 O 0.71355 0.0482 0.53385 0.0
O215 O 0.78354 0.05536 0.53887 0.0
O216 O 0.74728 0.0713 0.50952 0.0
O217 O 0.68555 0.06177 0.50088 0.0
C218 C 0.8066 0.05649 0.47571 0.0
O219 O 0.80995 0.03969 0.51125 0.0
O220 O 0.7397 0.03544 0.49997 0.0
In221 In 0.47417 0.20028 0.49305 0.0
O222 O 0.48163 0.20754 0.46249 0.0
O223 O 0.42739 0.19554 0.46785 0.0
C224 C 0.54428 0.20778 0.5162 0.0
C225 C 0.40456 0.21362 0.50624 0.0
C226 C 0.49803 0.17897 0.4953 0.0
O227 O 0.55009 0.20733 0.498 0.0
O228 O 0.50389 0.20447 0.52233 0.0
O229 O 0.45885 0.18258 0.50244 0.0
O230 O 0.52408 0.18608 0.48716 0.0
C231 C 0.44643 0.20205 0.45592 0.0
O232 O 0.40403 0.20345 0.50992 0.0
O233 O 0.43981 0.21682 0.4961 0.0
In234 In 0.8938 0.18579 0.70747 0.0
O235 O 0.97519 0.18221 0.70309 0.0
O236 O 0.94995 0.19867 0.70255 0.0
C237 C 0.84453 0.16687 0.70737 0.0
C238 C 0.89165 0.18998 0.74564 0.0
C239 C 0.84998 0.19474 0.67667 0.0
O240 O 0.88929 0.1672 0.70335 0.0
O241 O 0.82533 0.17602 0.71098 0.0
O242 O 0.84025 0.19766 0.69383 0.0
O243 O 0.8817 0.18732 0.67517 0.0
C244 C 0.98555 0.19225 0.70154 0.0
O245 O 0.87558 0.19681 0.73345 0.0
O246 O 0.90791 0.18124 0.73852 0.0
In247 In 0.57464 0.04791 0.7731 0.0
O248 O 0.4926 0.04563 0.77009 0.0
O249 O 0.53619 0.03211 0.77927 0.0
C250 C 0.6045 0.06778 0.76194 0.0
C251 C 0.58766 0.04967 0.81144 0.0
C252 C 0.61473 0.0386 0.74192 0.0
O253 O 0.55987 0.06531 0.76182 0.0
O254 O 0.63243 0.06039 0.76816 0.0
O255 O 0.6366 0.03877 0.75808 0.0
O256 O 0.57265 0.04264 0.742 0.0
C257 C 0.49436 0.03568 0.77537 0.0
O258 O 0.61014 0.04253 0.80158 0.0
O259 O 0.56006 0.05588 0.80181 0.0
In260 In 0.18055 0.93324 0.49595 0.0
O261 O 0.09798 0.9338 0.49077 0.0
O262 O 0.13766 0.94868 0.49276 0.0
C263 C 0.21173 0.9124 0.49571 0.0
C264 C 0.18663 0.93762 0.53396 0.0
C265 C 0.22636 0.94007 0.46389 0.0
O266 O 0.16824 0.91484 0.4917 0.0
O267 O 0.23862 0.92044 0.49957 0.0
O268 O 0.24231 0.9422 0.48067 0.0
O269 O 0.18838 0.93436 0.46351 0.0
C270 C 0.09718 0.94417 0.49037 0.0
O271 O 0.20927 0.94325 0.52155 0.0
O272 O 0.16238 0.9298 0.52717 0.0
In273 In 0.5219 0.79337 0.48082 0.0
O274 O 0.48956 0.77655 0.47477 0.0
O275 O 0.49491 0.78155 0.50407 0.0
C276 C 0.46031 0.80997 0.48861 0.0
C277 C 0.60147 0.79587 0.50344 0.0
C278 C 0.5412 0.79393 0.44224 0.0
O279 O 0.50529 0.8112 0.48653 0.0
O280 O 0.44576 0.80022 0.4869 0.0
O281 O 0.50461 0.79832 0.44976 0.0
O282 O 0.56931 0.78941 0.45419 0.0
C283 C 0.48429 0.77403 0.49234 0.0
O284 O 0.59131 0.78696 0.49526 0.0
O285 O 0.57302 0.80359 0.49942 0.0
In286 In 0.30355 0.79589 0.23612 0.0
O287 O 0.31532 0.79024 0.20459 0.0
O288 O 0.27109 0.80417 0.21002 0.0
C289 C 0.37173 0.78664 0.25865 0.0
C290 C 0.22573 0.78354 0.24376 0.0
C291 C 0.32473 0.81655 0.24622 0.0
O292 O 0.3802 0.7891 0.24116 0.0
O293 O 0.32903 0.78847 0.26421 0.0
O294 O 0.28436 0.81226 0.25037 0.0
O295 O 0.35346 0.81044 0.237 0.0
C296 C 0.28838 0.79767 0.19768 0.0
O297 O 0.22855 0.79338 0.24932 0.0
O298 O 0.2622 0.78002 0.23465 0.0
In299 In 0.4836 0.9498 0.24913 0.0
O300 O 0.4505 0.95633 0.22074 0.0
O301 O 0.49827 0.9426 0.2199 0.0
C302 C 0.44002 0.95801 0.28063 0.0
C303 C 0.56323 0.96221 0.24851 0.0
C304 C 0.46237 0.92891 0.25706 0.0
O305 O 0.41843 0.9576 0.26443 0.0
O306 O 0.48318 0.95462 0.28052 0.0
O307 O 0.50571 0.9323 0.25695 0.0
O308 O 0.43069 0.93605 0.25325 0.0
C309 C 0.4727 0.94931 0.21052 0.0
O310 O 0.56473 0.95229 0.25384 0.0
O311 O 0.52183 0.96571 0.24381 0.0
In312 In 0.85935 0.57719 0.01195 0.0
O313 O 0.93037 0.57611 0.99478 0.0
O314 O 0.93297 0.57244 0.02465 0.0
C315 C 0.82493 0.59789 0.01484 0.0
C316 C 0.8269 0.56838 0.97853 0.0
C317 C 0.82867 0.56724 0.04452 0.0
O318 O 0.86899 0.59597 0.01125 0.0
O319 O 0.79962 0.58947 0.01737 0.0
O320 O 0.81045 0.56514 0.02813 0.0
O321 O 0.86158 0.57436 0.04434 0.0
C322 C 0.95537 0.57269 0.00879 0.0
O323 O 0.84294 0.56259 0.99226 0.0
O324 O 0.82516 0.57848 0.98209 0.0
In325 In 0.48133 0.71327 0.01278 0.0
O326 O 0.45503 0.7071 0.98392 0.0
O327 O 0.40264 0.70841 0.00649 0.0
C328 C 0.49045 0.7158 0.05119 0.0
C329 C 0.47689 0.73446 0.0024 0.0
C330 C 0.54561 0.69679 0.0099 0.0
O331 O 0.52115 0.71921 0.03908 0.0
O332 O 0.45426 0.71096 0.04392 0.0
O333 O 0.50395 0.69575 0.01717 0.0
O334 O 0.55548 0.70632 0.00387 0.0
C335 C 0.41158 0.70593 0.98905 0.0
O336 O 0.44734 0.72993 0.01372 0.0
O337 O 0.50989 0.72824 0.99593 0.0
In338 In 0.72049 0.70496 0.27095 0.0
O339 O 0.69538 0.71192 0.30023 0.0
O340 O 0.74729 0.69904 0.29987 0.0
C341 C 0.66412 0.71403 0.2436 0.0
C342 C 0.80146 0.71667 0.26583 0.0
C343 C 0.70001 0.68395 0.26287 0.0
O344 O 0.64786 0.71202 0.26036 0.0
O345 O 0.70808 0.71169 0.24108 0.0
O346 O 0.74195 0.68784 0.26045 0.0
O347 O 0.66931 0.6906 0.26953 0.0
C348 C 0.7233 0.70576 0.30986 0.0
O349 O 0.79912 0.70667 0.2611 0.0
O350 O 0.76304 0.72063 0.27285 0.0
In351 In 0.52936 0.55105 0.2452 0.0
O352 O 0.54232 0.54372 0.27547 0.0
O353 O 0.49433 0.55733 0.27232 0.0
C354 C 0.59113 0.54389 0.21817 0.0
C355 C 0.45493 0.53809 0.23629 0.0
C356 C 0.55488 0.57204 0.24162 0.0
O357 O 0.6023 0.54371 0.23601 0.0
O358 O 0.54922 0.54744 0.21441 0.0
O359 O 0.513 0.56877 0.23683 0.0
O360 O 0.58291 0.56473 0.24814 0.0
C361 C 0.51313 0.55034 0.28347 0.0
O362 O 0.45388 0.54826 0.23254 0.0
O363 O 0.49326 0.53469 0.24425 0.0
In364 In 0.20868 0.45437 0.98487 0.0
O365 O 0.17094 0.4566 0.01335 0.0
O366 O 0.1285 0.45031 0.98986 0.0
C367 C 0.2382 0.45226 0.9481 0.0
C368 C 0.21186 0.47624 0.98597 0.0
C369 C 0.25463 0.4363 0.99729 0.0
O370 O 0.26568 0.45494 0.96193 0.0
O371 O 0.19431 0.45059 0.95274 0.0
O372 O 0.21286 0.43625 0.98988 0.0
O373 O 0.27365 0.44568 0.99905 0.0
C374 C 0.13031 0.45329 0.00747 0.0
O375 O 0.18678 0.47094 0.97391 0.0
O376 O 0.23685 0.47047 0.99758 0.0
In377 In 0.46321 0.30602 0.01819 0.0
O378 O 0.53266 0.30015 0.00322 0.0
O379 O 0.48844 0.28862 0.01838 0.0
C380 C 0.44419 0.32741 0.01408 0.0
C381 C 0.49031 0.30591 0.05539 0.0
C382 C 0.39372 0.29944 0.99399 0.0
O383 O 0.48284 0.32322 0.00739 0.0
O384 O 0.41644 0.32082 0.02274 0.0
O385 O 0.38629 0.29988 0.01213 0.0
O386 O 0.43545 0.30227 0.9885 0.0
C387 C 0.52619 0.2903 0.0085 0.0
O388 O 0.45352 0.30059 0.04975 0.0
O389 O 0.51145 0.31141 0.04246 0.0
In390 In 0.21845 0.29161 0.77396 0.0
O391 O 0.15104 0.2852 0.75863 0.0
O392 O 0.159 0.30234 0.76023 0.0
C393 C 0.19749 0.29401 0.81221 0.0
C394 C 0.25357 0.27188 0.76308 0.0
C395 C 0.29148 0.30541 0.76518 0.0
O396 O 0.21724 0.30139 0.80231 0.0
O397 O 0.18678 0.28558 0.80271 0.0
O398 O 0.25123 0.30555 0.75655 0.0
O399 O 0.29564 0.29804 0.77791 0.0
C400 C 0.13426 0.29442 0.75416 0.0
O401 O 0.24054 0.274 0.78016 0.0
O402 O 0.25165 0.27992 0.75166 0.0
In403 In 0.5867 0.42563 0.75538 0.0
O404 O 0.57719 0.43706 0.72917 0.0
O405 O 0.6253 0.42352 0.72679 0.0
C406 C 0.51654 0.43203 0.77995 0.0
C407 C 0.66552 0.43547 0.77015 0.0
C408 C 0.56057 0.40443 0.75343 0.0
O409 O 0.51202 0.43313 0.7618 0.0
O410 O 0.55589 0.42777 0.78539 0.0
O411 O 0.59532 0.40758 0.76397 0.0
O412 O 0.54019 0.41191 0.74381 0.0
C413 C 0.60783 0.43196 0.71895 0.0
O414 O 0.66588 0.4254 0.76586 0.0
O415 O 0.62552 0.44022 0.76761 0.0
C416 C 0.23578 0.03461 0.0707 0.0
C417 C 0.27449 0.04068 0.0632 0.0
C418 C 0.23353 0.03214 0.09038 0.0
C419 C 0.27019 0.04227 0.13755 0.0
H420 H 0.21831 0.01446 0.1546 0.0
C421 C 0.19781 0.03678 0.21507 0.0
C422 C 0.14948 0.03328 0.21473 0.0
C423 C 0.22706 0.03552 0.19863 0.0
C424 C 0.23325 0.02223 0.15012 0.0
H425 H 0.3416 0.04884 0.07038 0.0
H426 H 0.3372 0.04464 0.10512 0.0
H427 H 0.24388 0.01671 0.12102 0.0
H428 H 0.09496 0.02497 0.19777 0.0
H429 H 0.14578 0.0226 0.1694 0.0
H430 H 0.25705 0.04797 0.16638 0.0
C431 C 0.30877 0.04177 0.09563 0.0
C432 C 0.24778 0.02353 0.13089 0.0
C433 C 0.3113 0.04415 0.07579 0.0
C434 C 0.13214 0.02773 0.19839 0.0
C435 C 0.16141 0.02633 0.18216 0.0
C436 C 0.25558 0.04097 0.15681 0.0
C437 C 0.26978 0.03573 0.10311 0.0
C438 C 0.26443 0.0337 0.1242 0.0
C439 C 0.20857 0.03058 0.18178 0.0
C440 C 0.235 0.03108 0.16307 0.0
H441 H 0.20689 0.03179 0.06137 0.0
H442 H 0.20254 0.02765 0.09571 0.0
H443 H 0.28272 0.05021 0.13281 0.0
H444 H 0.21187 0.04116 0.22746 0.0
H445 H 0.26336 0.03882 0.19879 0.0
C446 C 0.10174 0.21126 0.18542 0.0
C447 C 0.15136 0.21294 0.18831 0.0
C448 C 0.08144 0.21291 0.16706 0.0
C449 C 0.12137 0.21196 0.11638 0.0
H450 H 0.98855 0.21999 0.10532 0.0
C451 C 0.0435 0.20801 0.03953 0.0
C452 C -0.00114 0.2026 0.03863 0.0
C453 C 0.06107 0.21184 0.05726 0.0
C454 C 0.02577 0.21774 0.10821 0.0
H455 H 0.21774 0.21866 0.17516 0.0
H456 H 0.18215 0.22196 0.14347 0.0
H457 H 0.02064 0.22251 0.13801 0.0
H458 H 0.93678 0.19732 0.05538 0.0
H459 H 0.96764 0.20383 0.08621 0.0
H460 H 0.12628 0.20689 0.08688 0.0
C461 C 0.15913 0.21898 0.155 0.0
C462 C 0.04409 0.21917 0.12692 0.0
C463 C 0.17946 0.21716 0.17316 0.0
C464 C 0.97144 0.20142 0.05562 0.0
C465 C 0.9889 0.20525 0.07329 0.0
C466 C 0.10315 0.21057 0.09774 0.0
C467 C 0.11045 0.2164 0.15147 0.0
C468 C 0.09189 0.21611 0.13129 0.0
C469 C 0.03423 0.21036 0.07437 0.0
C470 C 0.05489 0.21323 0.09352 0.0
H471 H 0.07944 0.20798 0.19692 0.0
H472 H 0.04385 0.2108 0.16484 0.0
H473 H 0.15804 0.20929 0.11928 0.0
H474 H 0.06522 0.2091 0.02663 0.0
H475 H 0.09596 0.21584 0.05763 0.0
C476 C 0.92742 0.96584 0.82513 0.0
C477 C 0.91248 0.96529 0.80572 0.0
C478 C 0.89517 0.96904 0.83958 0.0
C479 C 0.76703 0.96777 0.85026 0.0
H480 H 0.80455 0.98343 0.89669 0.0
C481 C 0.64769 0.96535 0.91725 0.0
C482 C 0.67279 0.96259 0.93424 0.0
C483 C 0.67236 0.96957 0.90129 0.0
C484 C 0.79346 0.97905 0.88383 0.0
H485 H 0.85277 0.96818 0.78604 0.0
H486 H 0.79584 0.97369 0.81147 0.0
H487 H 0.85729 0.98371 0.8683 0.0
H488 H 0.74256 0.96284 0.94846 0.0
H489 H 0.78606 0.96989 0.92047 0.0
H490 H 0.70482 0.96255 0.86592 0.0
C491 C 0.83263 0.97161 0.81545 0.0
C492 C 0.82359 0.97924 0.86756 0.0
C493 C 0.86518 0.96849 0.8009 0.0
C494 C 0.72232 0.96493 0.93555 0.0
C495 C 0.74719 0.96901 0.91947 0.0
C496 C 0.73708 0.96753 0.86652 0.0
C497 C 0.84707 0.9717 0.83499 0.0
C498 C 0.81139 0.97331 0.85081 0.0
C499 C 0.72282 0.97094 0.90187 0.0
C500 C 0.75059 0.97289 0.88372 0.0
H501 H 0.96377 0.96348 0.82927 0.0
H502 H 0.90732 0.96888 0.85449 0.0
H503 H 0.75685 0.96301 0.8377 0.0
H504 H 0.60932 0.96374 0.91595 0.0
H505 H 0.65222 0.97124 0.88816 0.0
C506 C 0.88884 0.78867 0.77785 0.0
C507 C 0.83819 0.78918 0.77894 0.0
C508 C 0.91643 0.78765 0.79474 0.0
C509 C 0.91232 0.78154 0.84728 0.0
H510 H 0.00308 0.80551 0.85113 0.0
C511 C 0.98209 0.79817 0.92064 0.0
C512 C 0.02785 0.80307 0.92113 0.0
C513 C 0.96318 0.79432 0.90311 0.0
C514 C 0.97887 0.79859 0.8503 0.0
H515 H 0.77651 0.78809 0.79822 0.0
H516 H 0.82459 0.7862 0.82762 0.0
H517 H 0.96393 0.80179 0.82048 0.0
H518 H 0.09128 0.8071 0.90419 0.0
H519 H 0.05961 0.79996 0.87395 0.0
H520 H 0.92699 0.7784 0.87723 0.0
C521 C 0.84306 0.78663 0.81381 0.0
C522 C 0.95634 0.79648 0.83264 0.0
C523 C 0.81555 0.78778 0.79698 0.0
C524 C 0.05548 0.80352 0.90412 0.0
C525 C 0.03713 0.79948 0.88675 0.0
C526 C 0.93541 0.78357 0.86496 0.0
C527 C 0.89376 0.78698 0.81293 0.0
C528 C 0.92221 0.78807 0.83102 0.0
C529 C 0.99015 0.79514 0.88585 0.0
C530 C 0.9684 0.79225 0.86678 0.0
H531 H 0.90721 0.78973 0.76413 0.0
H532 H 0.9555 0.78785 0.79367 0.0
H533 H 0.88622 0.77498 0.84639 0.0
H534 H 0.96012 0.79774 0.93361 0.0
H535 H 0.92671 0.79113 0.903 0.0
C536 C 0.063 0.54336 0.53557 0.0
C537 C 0.10735 0.53824 0.53158 0.0
C538 C 0.04063 0.54184 0.5536 0.0
C539 C 0.08162 0.53638 0.60294 0.0
H540 H 0.94575 0.53643 0.6168 0.0
C541 C 0.02624 0.53343 0.68197 0.0
C542 C 0.99063 0.5407 0.68864 0.0
C543 C 0.03374 0.53192 0.66221 0.0
C544 C 0.9838 0.53648 0.61309 0.0
H545 H 0.16102 0.52683 0.54215 0.0
H546 H 0.12102 0.52371 0.57309 0.0
H547 H 0.96948 0.53518 0.58257 0.0
H548 H 0.93336 0.55176 0.67986 0.0
H549 H 0.9473 0.54932 0.645 0.0
H550 H 0.09641 0.53792 0.63309 0.0
C551 C 0.10402 0.52914 0.56272 0.0
C552 C 0.99735 0.53574 0.59354 0.0
C553 C 0.12663 0.5308 0.54494 0.0
C554 C 0.96119 0.54613 0.67509 0.0
C555 C 0.96902 0.54468 0.65517 0.0
C556 C 0.06819 0.53713 0.6223 0.0
C557 C 0.06239 0.53514 0.56772 0.0
C558 C 0.04653 0.53557 0.58829 0.0
C559 C 0.00624 0.53776 0.64855 0.0
C560 C 0.01922 0.5371 0.62769 0.0
H561 H 0.04808 0.54929 0.52555 0.0
H562 H 0.00866 0.54659 0.55701 0.0
H563 H 0.11977 0.53667 0.59943 0.0
H564 H 0.049 0.52898 0.69204 0.0
H565 H 0.06189 0.52632 0.65762 0.0
C566 C 0.8777 0.69973 0.60878 0.0
C567 C 0.90082 0.7015 0.59097 0.0
C568 C 0.90055 0.70249 0.62612 0.0
C569 C 0.00778 0.71704 0.6468 0.0
H570 H 0.9931 0.69558 0.68769 0.0
C571 C 0.14819 0.7088 0.70686 0.0
C572 C 0.13141 0.70648 0.72561 0.0
C573 C 0.11559 0.71057 0.69174 0.0
C574 C 0.99695 0.70176 0.67657 0.0
H575 H 0.96521 0.70788 0.57722 0.0
H576 H 0.00614 0.7123 0.60747 0.0
H577 H 0.9444 0.69409 0.6586 0.0
H578 H 0.06749 0.70469 0.74348 0.0
H579 H 0.01031 0.70762 0.71688 0.0
H580 H 0.06261 0.72429 0.66459 0.0
C581 C 0.96981 0.70905 0.60814 0.0
C582 C 0.9689 0.70094 0.65984 0.0
C583 C 0.94652 0.70645 0.59077 0.0
C584 C 0.0814 0.70646 0.72916 0.0
C585 C 0.04874 0.70809 0.71395 0.0
C586 C 0.03634 0.71777 0.66348 0.0
C587 C 0.94751 0.7069 0.62608 0.0
C588 C 0.97438 0.70847 0.64459 0.0
C589 C 0.06556 0.70992 0.69502 0.0
C590 C 0.03164 0.71004 0.6784 0.0
H591 H 0.84215 0.69604 0.60933 0.0
H592 H 0.88166 0.70097 0.63958 0.0
H593 H 0.01241 0.72311 0.63555 0.0
H594 H 0.18658 0.7089 0.70373 0.0
H595 H 0.12961 0.71188 0.67728 0.0
C596 C 0.9621 0.46489 0.2998 0.0
C597 C 0.92899 0.46439 0.28438 0.0
C598 C 0.94653 0.46734 0.31853 0.0
C599 C 0.83905 0.4649 0.34898 0.0
H600 H 0.91479 0.48152 0.38591 0.0
C601 C 0.77671 0.46875 0.4277 0.0
C602 C 0.81199 0.46731 0.44211 0.0
C603 C 0.79001 0.47046 0.40846 0.0
C604 C 0.8934 0.4768 0.37581 0.0
H605 H 0.85385 0.46653 0.27634 0.0
H606 H 0.82641 0.47083 0.30921 0.0
H607 H 0.93899 0.48106 0.35187 0.0
H608 H 0.88894 0.46699 0.44786 0.0
H609 H 0.91252 0.46971 0.41401 0.0
H610 H 0.79439 0.46033 0.37282 0.0
C611 C 0.86447 0.46924 0.30677 0.0
C612 C 0.90716 0.47656 0.35629 0.0
C613 C 0.88016 0.46684 0.28794 0.0
C614 C 0.86101 0.46811 0.43704 0.0
C615 C 0.87443 0.4697 0.41765 0.0
C616 C 0.82543 0.4651 0.36844 0.0
C617 C 0.89739 0.4693 0.32235 0.0
C618 C 0.8804 0.47051 0.34269 0.0
C619 C 0.83899 0.47061 0.40305 0.0
C620 C 0.8526 0.47097 0.38217 0.0
H621 H 4e-05 0.46307 0.29753 0.0
H622 H 0.97278 0.4672 0.33017 0.0
H623 H 0.81818 0.45999 0.33899 0.0
H624 H 0.73858 0.46832 0.43122 0.0
H625 H 0.76173 0.47143 0.39774 0.0
C626 C 0.84009 0.28795 0.331 0.0
C627 C 0.79521 0.29286 0.32705 0.0
C628 C 0.85298 0.28535 0.35008 0.0
C629 C 0.8025 0.2814 0.39944 0.0
H630 H 0.92783 0.29168 0.41649 0.0
C631 C 0.84889 0.29071 0.47948 0.0
C632 C 0.8972 0.2896 0.48538 0.0
C633 C 0.83592 0.28856 0.46024 0.0
C634 C 0.89307 0.28852 0.41198 0.0
H635 H 0.72806 0.29858 0.33986 0.0
H636 H 0.75053 0.29411 0.3729 0.0
H637 H 0.90717 0.29248 0.38235 0.0
H638 H 0.96889 0.28446 0.47651 0.0
H639 H 0.94608 0.28031 0.44331 0.0
H640 H 0.78804 0.27766 0.42919 0.0
C641 C 0.7757 0.29219 0.36137 0.0
C642 C 0.88125 0.289 0.39235 0.0
C643 C 0.76305 0.29485 0.34242 0.0
C644 C 0.93146 0.28551 0.47223 0.0
C645 C 0.91845 0.28322 0.45317 0.0
C646 C 0.81441 0.28087 0.4191 0.0
C647 C 0.82097 0.28752 0.36548 0.0
C648 C 0.83551 0.28566 0.38591 0.0
C649 C 0.87101 0.28514 0.4467 0.0
C650 C 0.85956 0.28461 0.42566 0.0
H651 H 0.86549 0.28628 0.31942 0.0
H652 H 0.88805 0.2817 0.35282 0.0
H653 H 0.76713 0.27864 0.39485 0.0
H654 H 0.82188 0.2939 0.48934 0.0
H655 H 0.79908 0.29018 0.45575 0.0
C656 C 0.77708 0.05068 0.58015 0.0
C657 C 0.73924 0.04896 0.56693 0.0
C658 C 0.77131 0.04794 0.59972 0.0
C659 C 0.69491 0.03093 0.63208 0.0
H660 H 0.73732 0.05076 0.67236 0.0
C661 C 0.60919 0.03309 0.70739 0.0
C662 C 0.63812 0.03554 0.72351 0.0
C663 C 0.62937 0.03255 0.68892 0.0
C664 C 0.72617 0.04501 0.66131 0.0
H665 H 0.66537 0.04328 0.5639 0.0
H666 H 0.65505 0.03874 0.59786 0.0
H667 H 0.7572 0.05466 0.63863 0.0
H668 H 0.71123 0.03875 0.73318 0.0
H669 H 0.74674 0.03787 0.70066 0.0
H670 H 0.6622 0.02153 0.65469 0.0
C671 C 0.68959 0.04194 0.59316 0.0
C672 C 0.73747 0.04727 0.64197 0.0
C673 C 0.69537 0.04465 0.57369 0.0
C674 C 0.68821 0.03677 0.72099 0.0
C675 C 0.7084 0.03637 0.70239 0.0
C676 C 0.68347 0.02871 0.65137 0.0
C677 C 0.72761 0.04343 0.60639 0.0
C678 C 0.72081 0.04041 0.62708 0.0
C679 C 0.67888 0.03456 0.68612 0.0
C680 C 0.69791 0.03588 0.66615 0.0
H681 H 0.81137 0.05396 0.57533 0.0
H682 H 0.80135 0.04916 0.60954 0.0
H683 H 0.68254 0.02533 0.62101 0.0
H684 H 0.57044 0.03213 0.70894 0.0
H685 H 0.60556 0.03123 0.67669 0.0
C686 C 0.56858 0.21628 0.54722 0.0
C687 C 0.58214 0.21116 0.52989 0.0
C688 C 0.60195 0.21759 0.56215 0.0
C689 C 0.7318 0.21402 0.57608 0.0
H690 H 0.67454 0.2062 0.62543 0.0
C691 C 0.83854 0.19611 0.64084 0.0
C692 C 0.82496 0.19934 0.6596 0.0
C693 C 0.8127 0.19981 0.62473 0.0
C694 C 0.69108 0.2086 0.61186 0.0
H695 H 0.64156 0.20397 0.51395 0.0
H696 H 0.69987 0.20582 0.54039 0.0
H697 H 0.623 0.20886 0.59748 0.0
H698 H 0.77502 0.20932 0.67617 0.0
H699 H 0.72966 0.21574 0.648 0.0
H700 H 0.80035 0.2132 0.5906 0.0
C701 C 0.66379 0.20909 0.54235 0.0
C702 C 0.66147 0.21016 0.59577 0.0
C703 C 0.63046 0.208 0.52719 0.0
C704 C 0.78613 0.20664 0.6619 0.0
C705 C 0.76011 0.21029 0.64578 0.0
C706 C 0.76158 0.21235 0.59223 0.0
C707 C 0.64934 0.21352 0.5603 0.0
C708 C 0.68136 0.21281 0.5776 0.0
C709 C 0.77259 0.20676 0.62706 0.0
C710 C 0.74148 0.20952 0.61024 0.0
H711 H 0.53155 0.2189 0.54951 0.0
H712 H 0.58992 0.22136 0.57549 0.0
H713 H 0.74834 0.21616 0.56239 0.0
H714 H 0.86847 0.19052 0.63862 0.0
H715 H 0.8229 0.19686 0.61051 0.0
C716 C 0.2941 0.94941 0.44624 0.0
C717 C 0.24898 0.94417 0.44593 0.0
C718 C 0.31495 0.9532 0.42902 0.0
C719 C 0.28568 0.96083 0.37851 0.0
H720 H 0.41828 0.95251 0.3678 0.0
C721 C 0.36588 0.95927 0.30129 0.0
C722 C 0.41581 0.96081 0.29901 0.0
C723 C 0.34506 0.95961 0.31977 0.0
C724 C 0.38154 0.95515 0.37064 0.0
H725 H 0.18998 0.93894 0.42745 0.0
H726 H 0.22618 0.94554 0.39755 0.0
H727 H 0.38359 0.94859 0.39937 0.0
H728 H 0.48242 0.96487 0.31384 0.0
H729 H 0.44597 0.96592 0.34587 0.0
H730 H 0.28338 0.96727 0.3497 0.0
C731 C 0.24539 0.94679 0.41104 0.0
C732 C 0.36165 0.95285 0.38877 0.0
C733 C 0.22486 0.94292 0.42816 0.0
C734 C 0.44385 0.96354 0.31524 0.0
C735 C 0.42301 0.96404 0.33362 0.0
C736 C 0.30569 0.96321 0.3604 0.0
C737 C 0.29072 0.95193 0.41124 0.0
C738 C 0.31324 0.95546 0.39277 0.0
C739 C 0.37376 0.96163 0.33624 0.0
C740 C 0.35364 0.96021 0.3561 0.0
H741 H 0.31344 0.95051 0.45974 0.0
H742 H 0.34988 0.95716 0.4296 0.0
H743 H 0.24839 0.96307 0.3813 0.0
H744 H 0.34352 0.95707 0.28902 0.0
H745 H 0.30708 0.95764 0.3212 0.0
C746 C 0.57495 0.78484 0.41261 0.0
C747 C 0.54729 0.79324 0.42103 0.0
C748 C 0.57392 0.78318 0.39253 0.0
C749 C 0.53787 0.79582 0.34585 0.0
H750 H 0.49456 0.76676 0.33191 0.0
C751 C 0.39625 0.77805 0.28972 0.0
C752 C 0.40954 0.78349 0.27266 0.0
C753 C 0.42848 0.77727 0.3052 0.0
C754 C 0.50738 0.77487 0.33549 0.0
H755 H 0.49949 0.80689 0.41508 0.0
H756 H 0.49837 0.80414 0.38017 0.0
H757 H 0.52462 0.77022 0.3646 0.0
H758 H 0.46788 0.79179 0.25785 0.0
H759 H 0.52434 0.7906 0.28518 0.0
H760 H 0.51791 0.80063 0.31715 0.0
C761 C 0.52071 0.79881 0.38896 0.0
C762 C 0.52489 0.77684 0.35417 0.0
C763 C 0.52109 0.80035 0.40898 0.0
C764 C 0.45689 0.78748 0.27081 0.0
C765 C 0.48901 0.78687 0.28648 0.0
C766 C 0.5208 0.79383 0.32714 0.0
C767 C 0.54598 0.79002 0.38056 0.0
C768 C 0.53836 0.78744 0.35977 0.0
C769 C 0.47449 0.78208 0.30406 0.0
C770 C 0.50345 0.78344 0.32202 0.0
H771 H 0.59532 0.77922 0.4216 0.0
H772 H 0.59383 0.77637 0.38643 0.0
H773 H 0.54843 0.80406 0.34974 0.0
H774 H 0.35992 0.77491 0.29151 0.0
H775 H 0.41596 0.77362 0.31858 0.0
C776 C 0.84022 0.56318 0.07962 0.0
C777 C 0.81279 0.56194 0.06265 0.0
C778 C 0.82447 0.55868 0.09709 0.0
C779 C 0.73516 0.53933 0.11858 0.0
H780 H 0.74816 0.55814 0.16344 0.0
C781 C 0.60716 0.53896 0.18389 0.0
C782 C 0.62531 0.54138 0.20239 0.0
C783 C 0.63778 0.53877 0.16786 0.0
C784 C 0.74515 0.55266 0.15119 0.0
H785 H 0.74796 0.55479 0.05051 0.0
H786 H 0.71943 0.54722 0.08115 0.0
H787 H 0.78612 0.56332 0.13312 0.0
H788 H 0.69009 0.5448 0.21889 0.0
H789 H 0.74398 0.54459 0.19067 0.0
H790 H 0.69189 0.52897 0.13661 0.0
C791 C 0.75374 0.55146 0.08093 0.0
C792 C 0.7669 0.55564 0.13373 0.0
C793 C 0.76984 0.55587 0.06338 0.0
C794 C 0.67525 0.54288 0.20479 0.0
C795 C 0.70594 0.54284 0.18864 0.0
C796 C 0.71306 0.53639 0.13604 0.0
C797 C 0.78055 0.55294 0.09808 0.0
C798 C 0.76138 0.54913 0.11708 0.0
C799 C 0.68718 0.54113 0.16993 0.0
C800 C 0.71699 0.54315 0.15242 0.0
H801 H 0.87384 0.56771 0.07945 0.0
H802 H 0.8466 0.5598 0.10987 0.0
H803 H 0.73096 0.53401 0.10617 0.0
H804 H 0.56876 0.53774 0.18166 0.0
H805 H 0.62209 0.53751 0.15366 0.0
C806 C 0.65575 0.72365 0.21231 0.0
C807 C 0.63406 0.71766 0.22724 0.0
C808 C 0.63234 0.72495 0.19461 0.0
C809 C 0.51867 0.72099 0.16703 0.0
H810 H 0.60947 0.71482 0.1256 0.0
C811 C 0.46799 0.71209 0.08591 0.0
C812 C 0.49798 0.71721 0.07221 0.0
C813 C 0.47858 0.71285 0.10573 0.0
C814 C 0.58368 0.71665 0.13697 0.0
H815 H 0.56962 0.70896 0.23604 0.0
H816 H 0.52871 0.71101 0.20469 0.0
H817 H 0.63792 0.71544 0.15875 0.0
H818 H 0.56072 0.72761 0.06852 0.0
H819 H 0.57884 0.72895 0.10281 0.0
H820 H 0.46427 0.72203 0.14482 0.0
C821 C 0.56357 0.71484 0.20679 0.0
C822 C 0.60001 0.71706 0.15599 0.0
C823 C 0.58687 0.71368 0.22472 0.0
C824 C 0.53729 0.72345 0.07868 0.0
C825 C 0.54776 0.7242 0.09834 0.0
C826 C 0.50217 0.72055 0.14782 0.0
C827 C 0.58714 0.72007 0.1913 0.0
C828 C 0.56802 0.71944 0.17123 0.0
C829 C 0.51933 0.7187 0.11205 0.0
C830 C 0.53483 0.71857 0.1326 0.0
H831 H 0.69197 0.72688 0.21399 0.0
H832 H 0.65084 0.72931 0.18315 0.0
H833 H 0.49314 0.72277 0.17849 0.0
H834 H 0.43732 0.70726 0.0813 0.0
H835 H 0.45612 0.70852 0.11602 0.0
C836 C 0.49351 0.43767 0.81327 0.0
C837 C 0.47957 0.43557 0.79409 0.0
C838 C 0.45935 0.44078 0.82706 0.0
C839 C 0.33676 0.43762 0.84218 0.0
H840 H 0.36291 0.46314 0.8737 0.0
C841 C 0.22789 0.44823 0.91243 0.0
C842 C 0.25728 0.45127 0.92813 0.0
C843 C 0.2476 0.44734 0.89373 0.0
C844 C 0.35503 0.45598 0.86507 0.0
H845 H 0.41887 0.43497 0.77427 0.0
H846 H 0.35827 0.44012 0.79884 0.0
H847 H 0.41155 0.45965 0.84493 0.0
H848 H 0.3303 0.45569 0.93655 0.0
H849 H 0.36429 0.45402 0.90446 0.0
H850 H 0.28215 0.43357 0.86305 0.0
C851 C 0.39598 0.43949 0.80296 0.0
C852 C 0.38271 0.45403 0.84854 0.0
C853 C 0.43055 0.4366 0.78896 0.0
C854 C 0.30646 0.45339 0.92479 0.0
C855 C 0.32597 0.45253 0.90628 0.0
C856 C 0.30926 0.4395 0.85893 0.0
C857 C 0.41028 0.44166 0.8221 0.0
C858 C 0.37488 0.44467 0.83729 0.0
C859 C 0.29691 0.44956 0.89046 0.0
C860 C 0.31935 0.4485 0.87094 0.0
H861 H 0.53102 0.43696 0.81764 0.0
H862 H 0.47122 0.44231 0.84176 0.0
H863 H 0.33023 0.43031 0.83374 0.0
H864 H 0.18986 0.44653 0.91458 0.0
H865 H 0.22426 0.44503 0.88184 0.0
C866 C 0.17678 0.28552 0.84412 0.0
C867 C 0.1934 0.29457 0.83354 0.0
C868 C 0.18091 0.28529 0.8643 0.0
C869 C 0.21169 0.30209 0.90771 0.0
H870 H 0.27761 0.27573 0.92449 0.0
C871 C 0.37187 0.29138 0.9623 0.0
C872 C 0.35682 0.2962 0.97972 0.0
C873 C 0.33903 0.28961 0.94735 0.0
C874 C 0.25858 0.28308 0.92013 0.0
H875 H 0.22412 0.31079 0.83585 0.0
H876 H 0.23178 0.31037 0.87096 0.0
H877 H 0.24086 0.27638 0.89249 0.0
H878 H 0.29546 0.30267 0.99551 0.0
H879 H 0.23757 0.29982 0.96889 0.0
H880 H 0.23233 0.30898 0.93502 0.0
C881 C 0.21519 0.30347 0.86378 0.0
C882 C 0.23718 0.28344 0.90183 0.0
C883 C 0.21109 0.30369 0.84361 0.0
C884 C 0.30777 0.29886 0.98223 0.0
C885 C 0.27485 0.29729 0.96702 0.0
C886 C 0.23294 0.3017 0.9261 0.0
C887 C 0.2017 0.29412 0.87431 0.0
C888 C 0.21514 0.2931 0.89509 0.0
C889 C 0.29045 0.2928 0.94933 0.0
C890 C 0.2583 0.29234 0.93215 0.0
H891 H 0.16267 0.27839 0.83676 0.0
H892 H 0.16955 0.27803 0.87201 0.0
H893 H 0.19442 0.3096 0.90303 0.0
H894 H 0.40951 0.28925 0.96002 0.0
H895 H 0.35231 0.28626 0.93383 0.0
C896 C 0.26363 0.01635 0.9562 0.0
C897 C 0.25163 0.01747 0.97586 0.0
C898 C 0.27445 0.00604 0.94848 0.0
C899 C 0.27831 0.97605 0.96054 0.0
H900 H 0.40177 0.97733 0.93412 0.0
C901 C 0.43397 0.94639 0.97334 0.0
C902 C 0.46837 0.94453 0.95876 0.0
C903 C 0.39321 0.95283 0.96969 0.0
C904 C 0.36669 0.97673 0.94101 0.0
H905 H 0.23712 0.00859 0.00239 0.0
H906 H 0.25647 0.99077 0.98918 0.0
H907 H 0.35443 0.99387 0.93803 0.0
H908 H 0.48492 0.94705 0.92843 0.0
H909 H 0.4136 0.95839 0.92202 0.0
H910 H 0.29275 0.95898 0.96474 0.0
C911 C 0.25731 0.99773 0.97953 0.0
C912 C 0.33935 0.98627 0.94326 0.0
C913 C 0.24647 0.00801 0.98719 0.0
C914 C 0.45888 0.94832 0.93993 0.0
C915 C 0.41828 0.95489 0.93631 0.0
C916 C 0.30587 0.96651 0.95841 0.0
C917 C 0.27349 0.99665 0.9603 0.0
C918 C 0.29584 0.98615 0.95382 0.0
C919 C 0.38627 0.95764 0.9514 0.0
C920 C 0.35136 0.96685 0.94934 0.0
H921 H 0.26773 0.0235 0.94709 0.0
H922 H 0.28589 0.00549 0.93352 0.0
H923 H 0.24442 0.9756 0.96836 0.0
H924 H 0.44041 0.94356 0.98799 0.0
H925 H 0.36954 0.95481 0.98168 0.0
C926 C 0.60287 0.28303 0.9936 0.0
C927 C 0.55985 0.28125 0.00391 0.0
C928 C 0.63476 0.27434 0.98998 0.0
C929 C 0.64199 0.24395 0.9891 0.0
H930 H 0.77909 0.24893 0.99642 0.0
C931 C 0.7849 0.20898 0.99471 0.0
C932 C 0.82958 0.2109 0.98568 0.0
C933 C 0.74995 0.21731 0.99564 0.0
C934 C 0.74096 0.24742 0.99409 0.0
H935 H 0.51625 0.26896 0.0183 0.0
H936 H 0.57179 0.25395 0.01224 0.0
H937 H 0.72265 0.26409 0.99988 0.0
H938 H 0.87173 0.22283 0.96971 0.0
H939 H 0.81105 0.23716 0.97112 0.0
H940 H 0.6605 0.22721 0.98355 0.0
C941 C 0.58079 0.26197 0.00668 0.0
C942 C 0.7086 0.25613 0.99602 0.0
C943 C 0.54909 0.27061 0.01028 0.0
C944 C 0.83788 0.22112 0.97699 0.0
C945 C 0.80318 0.22937 0.97788 0.0
C946 C 0.67441 0.23522 0.9872 0.0
C947 C 0.62416 0.26371 0.99658 0.0
C948 C 0.6587 0.25451 0.99361 0.0
C949 C 0.75922 0.22767 0.98755 0.0
C950 C 0.72429 0.23685 0.98966 0.0
H951 H 0.61204 0.29112 0.98846 0.0
H952 H 0.66767 0.27594 0.98198 0.0
H953 H 0.60381 0.24245 0.98692 0.0
H954 H 0.77758 0.20119 0.00155 0.0
H955 H 0.71642 0.21576 0.00325 0.0
C956 C 0.39587 0.21231 0.24471 0.0
C957 C 0.35642 0.2162 0.23387 0.0
C958 C 0.43477 0.21925 0.2488 0.0
C959 C 0.45365 0.24799 0.25724 0.0
H960 H 0.59087 0.24263 0.25099 0.0
C961 C 0.59435 0.28215 0.26614 0.0
C962 C 0.64046 0.27935 0.27296 0.0
C963 C 0.56017 0.274 0.26261 0.0
C964 C 0.5527 0.24418 0.25319 0.0
H965 H 0.32854 0.22988 0.21725 0.0
H966 H 0.39619 0.24189 0.22435 0.0
H967 H 0.53294 0.22863 0.24116 0.0
H968 H 0.68641 0.26603 0.28258 0.0
H969 H 0.62616 0.25188 0.27734 0.0
H970 H 0.4727 0.26337 0.26959 0.0
C971 C 0.39677 0.23362 0.22997 0.0
C972 C 0.51968 0.23618 0.24744 0.0
C973 C 0.35824 0.22673 0.22586 0.0
C974 C 0.6511 0.26838 0.27716 0.0
C975 C 0.61675 0.26026 0.27397 0.0
C976 C 0.48652 0.2559 0.26323 0.0
C977 C 0.4343 0.2301 0.24211 0.0
C978 C 0.46992 0.23813 0.24911 0.0
C979 C 0.5713 0.26293 0.26617 0.0
C980 C 0.53645 0.25418 0.261 0.0
H981 H 0.39519 0.20422 0.25107 0.0
H982 H 0.46356 0.21638 0.25816 0.0
H983 H 0.41532 0.24957 0.25897 0.0
H984 H 0.58554 0.29055 0.2626 0.0
H985 H 0.52577 0.27635 0.25637 0.0
C986 C 0.65182 0.96559 0.25368 0.0
C987 C 0.60622 0.96933 0.24764 0.0
C988 C 0.69202 0.9725 0.25286 0.0
C989 C 0.7245 0.00181 0.25059 0.0
H990 H 0.84973 0.99078 0.23447 0.0
C991 C 0.88914 0.03014 0.23915 0.0
C992 C 0.9329 0.02646 0.24719 0.0
C993 C 0.84924 0.02315 0.23808 0.0
C994 C 0.81503 0.99396 0.23911 0.0
H995 H 0.56703 0.98318 0.23574 0.0
H996 H 0.63692 0.99513 0.23408 0.0
H997 H 0.78032 0.97851 0.2351 0.0
H998 H 0.9695 0.01255 0.26012 0.0
H999 H 0.90009 0.00041 0.25828 0.0
H1000 H 0.75923 0.01725 0.25463 0.0
C1001 C 0.64169 0.98695 0.23978 0.0
C1002 C 0.77531 0.98692 0.23953 0.0
C1003 C 0.60164 0.98007 0.24063 0.0
C1004 C 0.93625 0.01563 0.25384 0.0
C1005 C 0.89657 0.00865 0.25267 0.0
C1006 C 0.76416 0.00884 0.25012 0.0
C1007 C 0.68733 0.98329 0.24597 0.0
C1008 C 0.72961 0.99075 0.24536 0.0
C1009 C 0.85252 0.01234 0.2449 0.0
C1010 C 0.80993 0.00498 0.24448 0.0
H1011 H 0.65639 0.95735 0.25916 0.0
H1012 H 0.72659 0.96946 0.25794 0.0
H1013 H 0.68998 0.00499 0.25543 0.0
H1014 H 0.88556 0.03844 0.23388 0.0
H1015 H 0.81587 0.0262 0.23185 0.0
C1016 C 0.43975 0.75267 0.00794 0.0
C1017 C 0.47096 0.74607 0.99695 0.0
C1018 C 0.42832 0.76323 0.00197 0.0
C1019 C 0.41468 0.78648 0.98979 0.0
H1020 H 0.37207 0.78736 0.9364 0.0
C1021 C 0.26592 0.81644 0.96777 0.0
C1022 C 0.22784 0.81086 0.95873 0.0
C1023 C 0.31227 0.81173 0.96848 0.0
C1024 C 0.38411 0.78732 0.95132 0.0
H1025 H 0.51686 0.74556 0.97156 0.0
H1026 H 0.49661 0.76419 0.96091 0.0
H1027 H 0.42464 0.7726 0.94719 0.0
H1028 H 0.20902 0.79663 0.9417 0.0
H1029 H 0.28855 0.78845 0.94297 0.0
H1030 H 0.37025 0.80053 0.99445 0.0
C1031 C 0.48084 0.76111 0.97418 0.0
C1032 C 0.41482 0.7789 0.95747 0.0
C1033 C 0.4926 0.75047 0.98029 0.0
C1034 C 0.23772 0.80107 0.9489 0.0
C1035 C 0.2837 0.79643 0.94949 0.0
C1036 C 0.38348 0.79481 0.98371 0.0
C1037 C 0.44769 0.76752 0.98476 0.0
C1038 C 0.42806 0.77802 0.97706 0.0
C1039 C 0.32114 0.80142 0.96002 0.0
C1040 C 0.36544 0.79494 0.96468 0.0
H1041 H 0.42268 0.74954 0.02092 0.0
H1042 H 0.40201 0.76778 0.01035 0.0
H1043 H 0.42538 0.78622 0.00487 0.0
H1044 H 0.25917 0.824 0.97547 0.0
H1045 H 0.34043 0.81587 0.97649 0.0
C1046 C 0.59557 0.78426 0.74654 0.0
C1047 C 0.63853 0.78111 0.73719 0.0
C1048 C 0.55806 0.7767 0.74923 0.0
C1049 C 0.53623 0.74679 0.75108 0.0
H1050 H 0.40161 0.75485 0.74446 0.0
C1051 C 0.38297 0.71462 0.75031 0.0
C1052 C 0.33987 0.71735 0.75994 0.0
C1053 C 0.41911 0.72248 0.74757 0.0
C1054 C 0.43901 0.75249 0.74657 0.0
H1055 H 0.67526 0.76767 0.72286 0.0
H1056 H 0.61009 0.75465 0.72727 0.0
H1057 H 0.46445 0.76857 0.73974 0.0
H1058 H 0.30098 0.73046 0.77433 0.0
H1059 H 0.36396 0.74408 0.76974 0.0
H1060 H 0.51093 0.73073 0.75789 0.0
C1061 C 0.60549 0.76284 0.7329 0.0
C1062 C 0.47504 0.76037 0.74387 0.0
C1063 C 0.64278 0.77036 0.73025 0.0
C1064 C 0.33374 0.72809 0.7668 0.0
C1065 C 0.36973 0.73593 0.76405 0.0
C1066 C 0.50026 0.73892 0.75376 0.0
C1067 C 0.56286 0.76585 0.74263 0.0
C1068 C 0.52415 0.7576 0.746 0.0
C1069 C 0.41287 0.73325 0.75437 0.0
C1070 C 0.45118 0.74165 0.75148 0.0
H1071 H 0.59129 0.79248 0.75209 0.0
H1072 H 0.52581 0.77928 0.75688 0.0
H1073 H 0.5736 0.74441 0.7532 0.0
H1074 H 0.38869 0.70644 0.7448 0.0
H1075 H 0.45166 0.72016 0.73986 0.0
C1076 C 0.12137 0.98218 0.77186 0.0
C1077 C 0.125 0.97105 0.77672 0.0
C1078 C 0.16114 0.98909 0.77365 0.0
C1079 C 0.29402 0.98877 0.77465 0.0
H1080 H 0.27832 0.01878 0.79169 0.0
C1081 C 0.4567 0.01772 0.78332 0.0
C1082 C 0.45132 0.02854 0.77683 0.0
C1083 C 0.41689 0.01076 0.7845 0.0
C1084 C 0.28322 0.01046 0.78671 0.0
H1085 H 0.17308 0.95847 0.78765 0.0
H1086 H 0.24304 0.97062 0.79088 0.0
H1087 H 0.20939 0.00639 0.79253 0.0
H1088 H 0.39973 0.0406 0.76668 0.0
H1089 H 0.32987 0.02838 0.76854 0.0
H1090 H 0.36767 0.99286 0.76863 0.0
C1091 C 0.20928 0.97396 0.78551 0.0
C1092 C 0.24374 0.00334 0.78724 0.0
C1093 C 0.16921 0.96701 0.78378 0.0
C1094 C 0.405 0.03231 0.77173 0.0
C1095 C 0.36499 0.02532 0.77291 0.0
C1096 C 0.33348 0.99589 0.77412 0.0
C1097 C 0.20574 0.98507 0.78032 0.0
C1098 C 0.24855 0.99243 0.78106 0.0
C1099 C 0.37056 0.01443 0.7792 0.0
C1100 C 0.32853 0.00684 0.78003 0.0
H1101 H 0.08784 0.98556 0.76636 0.0
H1102 H 0.1572 0.99754 0.76925 0.0
H1103 H 0.29884 0.98048 0.76948 0.0
H1104 H 0.49185 0.01457 0.78748 0.0
H1105 H 0.42243 0.0025 0.78971 0.0
C1106 C 0.65438 0.48789 0.50768 0.0
C1107 C 0.6468 0.4769 0.50261 0.0
C1108 C 0.61539 0.49503 0.50996 0.0
C1109 C 0.48374 0.49585 0.51847 0.0
H1110 H 0.49261 0.52473 0.49556 0.0
C1111 C 0.3173 0.52251 0.50324 0.0
C1112 C 0.32034 0.53389 0.50553 0.0
C1113 C 0.35798 0.51591 0.50563 0.0
C1114 C 0.48986 0.51678 0.50236 0.0
H1115 H 0.59239 0.46474 0.49615 0.0
H1116 H 0.5239 0.47727 0.49997 0.0
H1117 H 0.5617 0.51235 0.49388 0.0
H1118 H 0.36814 0.54729 0.51267 0.0
H1119 H 0.4399 0.53569 0.51693 0.0
H1120 H 0.41162 0.50022 0.52668 0.0
C1121 C 0.56014 0.48032 0.50236 0.0
C1122 C 0.5294 0.50967 0.50134 0.0
C1123 C 0.5993 0.47316 0.50005 0.0
C1124 C 0.3648 0.53854 0.51081 0.0
C1125 C 0.40582 0.53191 0.51313 0.0
C1126 C 0.44424 0.50297 0.51952 0.0
C1127 C 0.56782 0.49135 0.50725 0.0
C1128 C 0.52654 0.49907 0.50915 0.0
C1129 C 0.40288 0.52053 0.51035 0.0
C1130 C 0.44657 0.51345 0.51119 0.0
H1131 H 0.69059 0.49102 0.50987 0.0
H1132 H 0.6225 0.50342 0.51399 0.0
H1133 H 0.48073 0.48782 0.52495 0.0
H1134 H 0.28352 0.51866 0.4992 0.0
H1135 H 0.35452 0.50722 0.50309 0.0
C1136 C 0.47023 0.7543 0.48483 0.0
C1137 C 0.47703 0.76259 0.49863 0.0
C1138 C 0.47654 0.74333 0.48993 0.0
C1139 C 0.50398 0.72451 0.53151 0.0
H1140 H 0.59502 0.71209 0.49492 0.0
C1141 C 0.66998 0.69969 0.55323 0.0
C1142 C 0.69155 0.69251 0.53989 0.0
C1143 C 0.6265 0.70495 0.54878 0.0
C1144 C 0.56869 0.71519 0.50515 0.0
H1145 H 0.49078 0.76585 0.52897 0.0
H1146 H 0.50274 0.74682 0.53779 0.0
H1147 H 0.54746 0.72784 0.48568 0.0
H1148 H 0.68179 0.68424 0.51243 0.0
H1149 H 0.60537 0.69332 0.50474 0.0
H1150 H 0.52786 0.71216 0.55139 0.0
C1151 C 0.49211 0.74869 0.52307 0.0
C1152 C 0.54122 0.72429 0.49982 0.0
C1153 C 0.48545 0.75965 0.51799 0.0
C1154 C 0.66621 0.6898 0.52294 0.0
C1155 C 0.62261 0.69506 0.51847 0.0
C1156 C 0.53159 0.71538 0.53686 0.0
C1157 C 0.49017 0.74044 0.50889 0.0
C1158 C 0.51001 0.72936 0.51319 0.0
C1159 C 0.6036 0.70313 0.53088 0.0
C1160 C 0.56578 0.71091 0.524 0.0
H1161 H 0.46322 0.75632 0.46982 0.0
H1162 H 0.47362 0.73716 0.47875 0.0
H1163 H 0.47959 0.72808 0.54204 0.0
H1164 H 0.68851 0.7019 0.56648 0.0
H1165 H 0.61319 0.71112 0.55867 0.0
C1166 C 0.89432 0.51305 0.7654 0.0
C1167 C 0.94247 0.51446 0.75948 0.0
C1168 C 0.87728 0.50276 0.77058 0.0
C1169 C 0.88695 0.4744 0.76018 0.0
H1170 H 0.81159 0.47122 0.8072 0.0
C1171 C 0.75562 0.43817 0.77052 0.0
C1172 C 0.709 0.44172 0.77568 0.0
C1173 C 0.79532 0.44521 0.77248 0.0
C1174 C 0.83269 0.47192 0.79405 0.0
H1175 H 0.0107 0.50622 0.75431 0.0
H1176 H 0.97991 0.48792 0.76274 0.0
H1177 H 0.86151 0.48742 0.80259 0.0
H1178 H 0.66775 0.45507 0.7881 0.0
H1179 H 0.73617 0.46723 0.79157 0.0
H1180 H 0.85523 0.45933 0.75092 0.0
C1181 C 0.9559 0.49491 0.76364 0.0
C1182 C 0.86143 0.48117 0.79148 0.0
C1183 C 0.97343 0.50533 0.75885 0.0
C1184 C 0.70326 0.4521 0.78398 0.0
C1185 C 0.7427 0.45906 0.78609 0.0
C1186 C 0.85771 0.46517 0.76265 0.0
C1187 C 0.90769 0.49358 0.76966 0.0
C1188 C 0.88727 0.4827 0.7742 0.0
C1189 C 0.78903 0.45585 0.77987 0.0
C1190 C 0.82857 0.46408 0.77926 0.0
H1191 H 0.86969 0.51994 0.76616 0.0
H1192 H 0.83982 0.50194 0.77494 0.0
H1193 H 0.90637 0.47544 0.74668 0.0
H1194 H 0.76098 0.43021 0.76398 0.0
H1195 H 0.83059 0.44246 0.76768 0.0
C1196 C 0.11356 0.28692 0.53338 0.0
C1197 C 0.06877 0.28388 0.54126 0.0
C1198 C 0.15157 0.27935 0.53242 0.0
C1199 C 0.17203 0.24961 0.53077 0.0
H1200 H 0.30637 0.25738 0.53861 0.0
C1201 C 0.32666 0.21786 0.52352 0.0
C1202 C 0.36721 0.22139 0.51303 0.0
C1203 C 0.29112 0.22537 0.52929 0.0
C1204 C 0.26901 0.2551 0.53628 0.0
H1205 H 0.02933 0.27074 0.55518 0.0
H1206 H 0.09561 0.25765 0.55374 0.0
H1207 H 0.24319 0.27096 0.54451 0.0
H1208 H 0.4027 0.23556 0.50059 0.0
H1209 H 0.34086 0.24853 0.51041 0.0
H1210 H 0.19776 0.23383 0.52219 0.0
C1211 C 0.10121 0.26577 0.54794 0.0
C1212 C 0.23286 0.26288 0.53964 0.0
C1213 C 0.06333 0.2733 0.54886 0.0
C1214 C 0.37188 0.23256 0.50868 0.0
C1215 C 0.33659 0.24003 0.51445 0.0
C1216 C 0.20815 0.24183 0.52739 0.0
C1217 C 0.14544 0.26862 0.53934 0.0
C1218 C 0.18397 0.26025 0.53675 0.0
C1219 C 0.29563 0.23654 0.52473 0.0
C1220 C 0.25711 0.24452 0.52988 0.0
H1221 H 0.11873 0.29501 0.52738 0.0
H1222 H 0.18511 0.28179 0.52558 0.0
H1223 H 0.13477 0.24736 0.52811 0.0
H1224 H 0.3222 0.20931 0.52712 0.0
H1225 H 0.26015 0.22244 0.53734 0.0
C1226 C 0.09173 0.48179 0.21872 0.0
C1227 C 0.09818 0.47103 0.22536 0.0
C1228 C 0.13072 0.48896 0.21776 0.0
C1229 C 0.264 0.49032 0.21706 0.0
H1230 H 0.24257 0.51969 0.23646 0.0
C1231 C 0.41963 0.51941 0.23637 0.0
C1232 C 0.41446 0.53059 0.23221 0.0
C1233 C 0.38128 0.51223 0.23351 0.0
C1234 C 0.24898 0.51159 0.23069 0.0
H1235 H 0.15071 0.45924 0.23576 0.0
H1236 H 0.21918 0.47185 0.23426 0.0
H1237 H 0.17567 0.50681 0.23551 0.0
H1238 H 0.36538 0.54301 0.22141 0.0
H1239 H 0.29798 0.53039 0.21627 0.0
H1240 H 0.33754 0.49508 0.21249 0.0
C1241 C 0.18389 0.4747 0.22963 0.0
C1242 C 0.21067 0.50419 0.23018 0.0
C1243 C 0.14473 0.46749 0.23058 0.0
C1244 C 0.37032 0.53443 0.22478 0.0
C1245 C 0.33174 0.52722 0.22194 0.0
C1246 C 0.30236 0.49773 0.21756 0.0
C1247 C 0.17712 0.48556 0.22345 0.0
C1248 C 0.2178 0.49345 0.22348 0.0
C1249 C 0.33676 0.51604 0.22642 0.0
C1250 C 0.29536 0.50842 0.22455 0.0
H1251 H 0.05634 0.48474 0.21444 0.0
H1252 H 0.12445 0.49721 0.2126 0.0
H1253 H 0.27047 0.48216 0.21156 0.0
H1254 H 0.4532 0.51619 0.24214 0.0
H1255 H 0.38616 0.50371 0.23739 0.0
C1256 C 0.00641 0.94654 0.49012 0.0
C1257 C 0.05307 0.95083 0.48753 0.0
C1258 C 0.96568 0.9534 0.48877 0.0
C1259 C 0.92726 0.98055 0.47013 0.0
H1260 H 0.84026 0.98158 0.51415 0.0
C1261 C 0.85158 0.01948 0.50194 0.0
C1262 C 0.80132 0.02118 0.50111 0.0
C1263 C 0.87138 0.00929 0.49786 0.0
C1264 C 0.86343 0.9812 0.50151 0.0
H1265 H 0.0936 0.96553 0.48093 0.0
H1266 H 0.02349 0.97732 0.47852 0.0
H1267 H 0.89663 0.96617 0.5106 0.0
H1268 H 0.73225 0.01342 0.49575 0.0
H1269 H 0.76753 0.99523 0.48902 0.0
H1270 H 0.89692 0.996 0.46194 0.0
C1271 C 0.01784 0.96872 0.48147 0.0
C1272 C 0.89566 0.9724 0.49947 0.0
C1273 C 0.05817 0.96196 0.48302 0.0
C1274 C 0.77109 0.01233 0.49647 0.0
C1275 C 0.79112 0.00197 0.49267 0.0
C1276 C 0.89541 0.98933 0.47225 0.0
C1277 C 0.97112 0.96458 0.48447 0.0
C1278 C 0.92939 0.97226 0.48421 0.0
C1279 C 0.8415 0.00047 0.4931 0.0
C1280 C 0.86457 0.98992 0.48832 0.0
H1281 H 0.00152 0.938 0.49369 0.0
H1282 H 0.93008 0.95 0.49118 0.0
H1283 H 0.95225 0.98058 0.45805 0.0
H1284 H 0.876 0.02611 0.50539 0.0
H1285 H 0.91032 0.00828 0.49836 0.0
C1286 C 0.042 0.20738 0.69435 0.0
C1287 C 0.03527 0.19659 0.70059 0.0
C1288 C 0.08613 0.2126 0.69703 0.0
C1289 C 0.18366 0.22257 0.70131 0.0
H1290 H 0.23047 0.21889 0.75374 0.0
C1291 C 0.27687 0.25842 0.73736 0.0
C1292 C 0.2598 0.26054 0.75612 0.0
C1293 C 0.27127 0.24805 0.7291 0.0
C1294 C 0.21784 0.22008 0.73905 0.0
H1295 H 0.07046 0.18247 0.71327 0.0
H1296 H 0.14859 0.1916 0.71788 0.0
H1297 H 0.17668 0.20533 0.73993 0.0
H1298 H 0.22754 0.25324 0.7816 0.0
H1299 H 0.21526 0.23552 0.76711 0.0
H1300 H 0.21985 0.23787 0.70101 0.0
C1301 C 0.11931 0.19607 0.71109 0.0
C1302 C 0.18756 0.21215 0.73097 0.0
C1303 C 0.07478 0.1908 0.7083 0.0
C1304 C 0.241 0.25187 0.76707 0.0
C1305 C 0.23426 0.24161 0.75869 0.0
C1306 C 0.21288 0.23062 0.70952 0.0
C1307 C 0.12497 0.20716 0.70606 0.0
C1308 C 0.16782 0.21363 0.71238 0.0
C1309 C 0.24712 0.23968 0.73923 0.0
C1310 C 0.22817 0.22981 0.72892 0.0
H1311 H 0.01221 0.21203 0.68829 0.0
H1312 H 0.08842 0.22116 0.69322 0.0
H1313 H 0.17052 0.2238 0.68669 0.0
H1314 H 0.29216 0.26493 0.72868 0.0
H1315 H 0.28341 0.24683 0.71436 0.0
C1316 C 0.18298 0.76567 0.24103 0.0
C1317 C 0.18284 0.77662 0.24716 0.0
C1318 C 0.14219 0.75913 0.24356 0.0
C1319 C 0.01041 0.76076 0.25017 0.0
H1320 H 0.02356 0.73057 0.26656 0.0
C1321 C 0.84551 0.7343 0.26958 0.0
C1322 C 0.84555 0.72334 0.26351 0.0
C1323 C 0.88688 0.74071 0.26764 0.0
C1324 C 0.01932 0.73894 0.26174 0.0
H1325 H 0.14008 0.78928 0.26094 0.0
H1326 H 0.06863 0.77781 0.26546 0.0
H1327 H 0.09537 0.74199 0.26368 0.0
H1328 H 0.88894 0.71049 0.25063 0.0
H1329 H 0.96138 0.72175 0.24702 0.0
H1330 H 0.93446 0.75771 0.24812 0.0
C1331 C 0.10023 0.77433 0.25853 0.0
C1332 C 0.06045 0.7455 0.26014 0.0
C1333 C 0.14119 0.78087 0.25605 0.0
C1334 C 0.88789 0.71891 0.25545 0.0
C1335 C 0.92941 0.72534 0.25349 0.0
C1336 C 0.96931 0.7542 0.25174 0.0
C1337 C 0.10024 0.76339 0.25224 0.0
C1338 C 0.05645 0.75648 0.25434 0.0
C1339 C 0.92934 0.73632 0.25956 0.0
C1340 C 0.97325 0.74322 0.25757 0.0
H1341 H 0.2145 0.76215 0.23409 0.0
H1342 H 0.14319 0.75078 0.23834 0.0
H1343 H 0.00618 0.76913 0.24535 0.0
H1344 H 0.8135 0.73795 0.27594 0.0
H1345 H 0.88577 0.74907 0.27275 0.0
C1346 C 0.19621 0.49424 0.97051 0.0
C1347 C 0.2077 0.48825 0.98721 0.0
C1348 C 0.183 0.50523 0.97182 0.0
C1349 C 0.17126 0.52906 0.00571 0.0
H1350 H 0.06167 0.5357 0.97269 0.0
C1351 C 0.02481 0.56179 0.02181 0.0
C1352 C 0.00226 0.56702 0.00607 0.0
C1353 C 0.06147 0.55407 0.01872 0.0
C1354 C 0.09286 0.53412 0.98176 0.0
H1355 H 0.2168 0.48912 0.01829 0.0
H1356 H 0.19183 0.50826 0.02079 0.0
H1357 H 0.10391 0.51852 0.96882 0.0
H1358 H 0.00363 0.56904 0.97489 0.0
H1359 H 0.06788 0.55567 0.96951 0.0
H1360 H 0.1579 0.54457 0.01929 0.0
C1361 C 0.19417 0.50459 0.00656 0.0
C1362 C 0.11732 0.52421 0.97953 0.0
C1363 C 0.20844 0.4936 0.00517 0.0
C1364 C 0.02011 0.56512 0.98732 0.0
C1365 C 0.05666 0.55739 0.98422 0.0
C1366 C 0.14636 0.53897 0.00806 0.0
C1367 C 0.17964 0.51044 0.98994 0.0
C1368 C 0.15661 0.52146 0.99156 0.0
C1369 C 0.07621 0.55142 0.99981 0.0
C1370 C 0.10656 0.54156 0.99621 0.0
H1371 H 0.19583 0.49032 0.95645 0.0
H1372 H 0.17365 0.50953 0.95863 0.0
H1373 H 0.20165 0.5273 0.01511 0.0
H1374 H 0.01189 0.56308 0.03644 0.0
H1375 H 0.07564 0.54962 0.03103 0.0
C1376 C 0.41296 0.06011 0.96227 0.0
C1377 C 0.40668 0.05124 0.9749 0.0
C1378 C 0.45022 0.06005 0.94864 0.0
C1379 C 0.51718 0.04055 0.91946 0.0
H1380 H 0.58132 0.06663 0.90073 0.0
C1381 C 0.60566 0.04141 0.84398 0.0
C1382 C 0.58935 0.05028 0.83279 0.0
C1383 C 0.59932 0.04144 0.86413 0.0
C1384 C 0.5639 0.05925 0.90583 0.0
H1385 H 0.4361 0.03561 0.98392 0.0
H1386 H 0.50123 0.03546 0.9599 0.0
H1387 H 0.54036 0.06695 0.93205 0.0
H1388 H 0.55682 0.0664 0.83394 0.0
H1389 H 0.54572 0.06646 0.86876 0.0
H1390 H 0.53815 0.03302 0.89279 0.0
C1391 C 0.47719 0.04245 0.96056 0.0
C1392 C 0.54049 0.05944 0.92376 0.0
C1393 C 0.44011 0.04257 0.97437 0.0
C1394 C 0.56957 0.05943 0.84217 0.0
C1395 C 0.56358 0.0595 0.86221 0.0
C1396 C 0.54044 0.04037 0.90148 0.0
C1397 C 0.48182 0.05106 0.9472 0.0
C1398 C 0.51527 0.05022 0.93042 0.0
C1399 C 0.57703 0.05038 0.8734 0.0
C1400 C 0.56236 0.04985 0.89411 0.0
H1401 H 0.38778 0.06691 0.96236 0.0
H1402 H 0.4524 0.06676 0.93845 0.0
H1403 H 0.49777 0.03333 0.92409 0.0
H1404 H 0.62105 0.03425 0.8371 0.0
H1405 H 0.61044 0.03434 0.87237 0.0
C1406 C 0.94356 0.18198 0.91702 0.0
C1407 C 0.96217 0.19053 0.92827 0.0
C1408 C 0.93656 0.18335 0.89721 0.0
C1409 C 0.96515 0.20049 0.8547 0.0
H1410 H 0.84639 0.18752 0.83565 0.0
C1411 C 0.89765 0.2025 0.7743 0.0
C1412 C 0.8928 0.19193 0.76665 0.0
C1413 C 0.90376 0.20399 0.79428 0.0
C1414 C 0.87944 0.19126 0.84081 0.0
H1415 H 0.99036 0.20702 0.92761 0.0
H1416 H 0.97737 0.20951 0.89275 0.0
H1417 H 0.86472 0.18685 0.8701 0.0
H1418 H 0.88879 0.17469 0.77369 0.0
H1419 H 0.89767 0.17731 0.80847 0.0
H1420 H 0.97953 0.20481 0.82509 0.0
C1421 C 0.96862 0.20171 0.89927 0.0
C1422 C 0.89026 0.19079 0.86049 0.0
C1423 C 0.97619 0.20029 0.91918 0.0
C1424 C 0.89246 0.18293 0.77924 0.0
C1425 C 0.89742 0.18443 0.79911 0.0
C1426 C 0.95398 0.20106 0.83493 0.0
C1427 C 0.94725 0.19336 0.88821 0.0
C1428 C 0.934 0.19505 0.86758 0.0
C1429 C 0.90375 0.19493 0.80679 0.0
C1430 C 0.91171 0.19615 0.82781 0.0
H1431 H 0.93294 0.17433 0.92365 0.0
H1432 H 0.92156 0.17662 0.88902 0.0
H1433 H -0.00093 0.20387 0.85971 0.0
H1434 H 0.89841 0.20955 0.76481 0.0
H1435 H 0.90857 0.21217 0.79996 0.0
C1436 C 0.39049 0.19629 0.42972 0.0
C1437 C 0.42506 0.20373 0.43654 0.0
C1438 C 0.36469 0.19842 0.41281 0.0
C1439 C 0.36259 0.21473 0.36797 0.0
H1440 H 0.22709 0.20655 0.36878 0.0
C1441 C 0.24057 0.21863 0.3003 0.0
C1442 C 0.22015 0.20852 0.29525 0.0
C1443 C 0.26024 0.22019 0.31878 0.0
C1444 C 0.26477 0.20893 0.36838 0.0
H1445 H 0.46109 0.21908 0.43061 0.0
H1446 H 0.41556 0.22286 0.40083 0.0
H1447 H 0.27524 0.20499 0.39822 0.0
H1448 H 0.20109 0.19244 0.30577 0.0
H1449 H 0.23369 0.19527 0.33817 0.0
H1450 H 0.35197 0.21849 0.33793 0.0
C1451 C 0.40864 0.21534 0.40862 0.0
C1452 C 0.29249 0.20797 0.38518 0.0
C1453 C 0.43478 0.21317 0.42562 0.0
C1454 C 0.21631 0.20033 0.30937 0.0
C1455 C 0.23502 0.20196 0.3279 0.0
C1456 C 0.33467 0.21576 0.35114 0.0
C1457 C 0.37245 0.20809 0.40231 0.0
C1458 C 0.34211 0.21051 0.38502 0.0
C1459 C 0.25878 0.21175 0.33257 0.0
C1460 C 0.28584 0.21256 0.35106 0.0
H1461 H 0.38247 0.1889 0.43772 0.0
H1462 H 0.33817 0.1925 0.40806 0.0
H1463 H 0.40068 0.21673 0.36735 0.0
H1464 H 0.24459 0.22502 0.28957 0.0
H1465 H 0.27814 0.22783 0.32206 0.0
C1466 C 0.8836 0.06032 0.45754 0.0
C1467 C 0.83507 0.05694 0.45759 0.0
C1468 C 0.91074 0.06001 0.4404 0.0
C1469 C 0.89593 0.05936 0.38726 0.0
H1470 H 0.02802 0.0486 0.38663 0.0
C1471 C 0.04 0.04385 0.32626 0.0
C1472 C 0.03161 0.05207 0.31245 0.0
C1473 C 0.02163 0.04493 0.34511 0.0
C1474 C 0.99113 0.05159 0.38661 0.0
H1475 H 0.77704 0.05054 0.43976 0.0
H1476 H 0.82414 0.04996 0.41013 0.0
H1477 H 0.98358 0.0495 0.41732 0.0
H1478 H 0.0009 0.0682 0.30787 0.0
H1479 H 0.96994 0.07016 0.34059 0.0
H1480 H 0.90263 0.06123 0.35666 0.0
C1481 C 0.84121 0.053 0.42317 0.0
C1482 C 0.96586 0.05221 0.40418 0.0
C1483 C 0.81422 0.05331 0.4402 0.0
C1484 C 0.00742 0.06165 0.31812 0.0
C1485 C 0.9894 0.06275 0.33686 0.0
C1486 C 0.92108 0.05877 0.36981 0.0
C1487 C 0.88978 0.05634 0.42302 0.0
C1488 C 0.91783 0.05605 0.40466 0.0
C1489 C 0.99476 0.05426 0.35038 0.0
C1490 C 0.96897 0.0549 0.36923 0.0
H1491 H 0.90069 0.0631 0.47074 0.0
H1492 H 0.94797 0.06274 0.44071 0.0
H1493 H 0.8592 0.06246 0.38712 0.0
H1494 H 0.05846 0.03637 0.32224 0.0
H1495 H 0.02631 0.03824 0.35521 0.0
C1496 C 0.6013 0.93734 0.0451 0.0
C1497 C 0.60089 0.94618 0.03216 0.0
C1498 C 0.58755 0.93878 0.06437 0.0
C1499 C 0.51336 0.95622 0.09579 0.0
H1500 H 0.58249 0.94102 0.13658 0.0
C1501 C 0.46861 0.9592 0.17867 0.0
C1502 C 0.47424 0.94944 0.18917 0.0
C1503 C 0.48097 0.95958 0.15896 0.0
C1504 C 0.56246 0.94524 0.12534 0.0
H1505 H 0.58661 0.96354 0.02929 0.0
H1506 H 0.56255 0.96608 0.06317 0.0
H1507 H 0.61386 0.94062 0.10371 0.0
H1508 H 0.49293 0.93227 0.1871 0.0
H1509 H 0.51303 0.93285 0.15287 0.0
H1510 H 0.4616 0.96073 0.1176 0.0
C1511 C 0.57334 0.95802 0.05831 0.0
C1512 C 0.58056 0.94503 0.10651 0.0
C1513 C 0.58753 0.95658 0.03899 0.0
C1514 C 0.48877 0.93993 0.1794 0.0
C1515 C 0.50071 0.94029 0.15982 0.0
C1516 C 0.49513 0.95642 0.11474 0.0
C1517 C 0.57281 0.9491 0.07115 0.0
C1518 C 0.55579 0.95033 0.09144 0.0
C1519 C 0.49892 0.9502 0.14956 0.0
C1520 C 0.51899 0.95072 0.12962 0.0
H1521 H 0.6112 0.92922 0.04025 0.0
H1522 H 0.58701 0.93172 0.07381 0.0
H1523 H 0.49331 0.96034 0.08445 0.0
H1524 H 0.45773 0.96665 0.18592 0.0
H1525 H 0.47906 0.96733 0.15141 0.0
C1526 C 0.10962 0.81757 0.04203 0.0
C1527 C 0.1033 0.80934 0.02811 0.0
C1528 C 0.1262 0.815 0.06056 0.0
C1529 C 0.20145 0.7955 0.08643 0.0
H1530 H 0.14517 0.809 0.13195 0.0
C1531 C 0.27596 0.78917 0.16491 0.0
C1532 C 0.27383 0.79833 0.17713 0.0
C1533 C 0.25491 0.78955 0.14642 0.0
C1534 C 0.16171 0.80525 0.11938 0.0
H1535 H 0.10858 0.79194 0.0227 0.0
H1536 H 0.13846 0.78743 0.05525 0.0
H1537 H 0.10567 0.81114 0.10069 0.0
H1538 H 0.25094 0.81525 0.17923 0.0
H1539 H 0.21602 0.81604 0.14702 0.0
H1540 H 0.25846 0.78991 0.10506 0.0
C1541 C 0.13021 0.79587 0.05175 0.0
C1542 C 0.13883 0.80643 0.1015 0.0
C1543 C 0.11275 0.79843 0.03323 0.0
C1544 C 0.25269 0.80801 0.17021 0.0
C1545 C 0.23219 0.80843 0.15179 0.0
C1546 C 0.22468 0.79439 0.10437 0.0
C1547 C 0.13754 0.80416 0.06552 0.0
C1548 C 0.15889 0.80175 0.08477 0.0
C1549 C 0.23167 0.79912 0.13986 0.0
C1550 C 0.20561 0.79947 0.12099 0.0
H1551 H 0.10276 0.82606 0.03846 0.0
H1552 H 0.13188 0.82158 0.0708 0.0
H1553 H 0.21789 0.79187 0.07373 0.0
H1554 H 0.29182 0.78158 0.16995 0.0
H1555 H 0.25517 0.78223 0.13762 0.0
C1556 C 0.78879 0.7922 0.6625 0.0
C1557 C 0.76955 0.80124 0.67242 0.0
C1558 C 0.78483 0.79148 0.64231 0.0
C1559 C 0.75959 0.8076 0.59801 0.0
H1560 H 0.69839 0.78115 0.57941 0.0
C1561 C 0.64329 0.80654 0.52927 0.0
C1562 C 0.63871 0.79679 0.51874 0.0
C1563 C 0.67187 0.80693 0.54593 0.0
C1564 C 0.71657 0.7885 0.58415 0.0
H1565 H 0.7333 0.81685 0.66899 0.0
H1566 H 0.72695 0.81567 0.63387 0.0
H1567 H 0.72648 0.78211 0.61275 0.0
H1568 H 0.66317 0.77999 0.51661 0.0
H1569 H 0.7141 0.78072 0.54548 0.0
H1570 H 0.74884 0.81409 0.56956 0.0
C1571 C 0.74501 0.80913 0.6416 0.0
C1572 C 0.73258 0.78905 0.60333 0.0
C1573 C 0.74835 0.80977 0.66174 0.0
C1574 C 0.66581 0.78761 0.52449 0.0
C1575 C 0.69466 0.78801 0.54114 0.0
C1576 C 0.74399 0.80702 0.57877 0.0
C1577 C 0.76228 0.79988 0.63169 0.0
C1578 C 0.7529 0.79871 0.61062 0.0
C1579 C 0.69684 0.79758 0.55242 0.0
C1580 C 0.72084 0.79759 0.57176 0.0
H1581 H 0.80526 0.7855 0.67038 0.0
H1582 H 0.79864 0.78428 0.63503 0.0
H1583 H 0.77577 0.8151 0.60317 0.0
H1584 H 0.6228 0.81375 0.52523 0.0
H1585 H 0.67208 0.81441 0.55429 0.0
C1586 C 0.17594 0.93209 0.56826 0.0
C1587 C 0.18441 0.94039 0.55467 0.0
C1588 C 0.16624 0.93467 0.58753 0.0
C1589 C 0.10579 0.95478 0.61611 0.0
H1590 H 0.16582 0.94013 0.65972 0.0
C1591 C 0.0365 0.95969 0.69534 0.0
C1592 C 0.03948 0.95035 0.70708 0.0
C1593 C 0.05737 0.9597 0.67683 0.0
C1594 C 0.14824 0.94421 0.6477 0.0
H1595 H 0.19069 0.95787 0.55052 0.0
H1596 H 0.17204 0.96245 0.58439 0.0
H1597 H 0.20036 0.93804 0.62747 0.0
H1598 H 0.06394 0.93353 0.70842 0.0
H1599 H 0.098 0.93333 0.67606 0.0
H1600 H 0.05196 0.96043 0.63604 0.0
C1601 C 0.17376 0.95394 0.58007 0.0
C1602 C 0.16843 0.94309 0.62929 0.0
C1603 C 0.18471 0.95133 0.56081 0.0
C1604 C 0.06156 0.94089 0.69973 0.0
C1605 C 0.08165 0.94083 0.68124 0.0
C1606 C 0.08505 0.95576 0.63451 0.0
C1607 C 0.16373 0.94562 0.59349 0.0
C1608 C 0.14685 0.94819 0.61328 0.0
C1609 C 0.08104 0.9503 0.66971 0.0
C1610 C 0.10536 0.95025 0.65046 0.0
H1611 H 0.17543 0.92359 0.56384 0.0
H1612 H 0.1583 0.92811 0.59758 0.0
H1613 H 0.08826 0.9587 0.6039 0.0
H1614 H 0.01998 0.96712 0.70076 0.0
H1615 H 0.0563 0.96715 0.6684 0.0
C1616 C 0.26962 0.56071 0.42677 0.0
C1617 C 0.2469 0.55151 0.43471 0.0
C1618 C 0.29991 0.5597 0.41072 0.0
C1619 C 0.33904 0.54104 0.37114 0.0
H1620 H 0.45337 0.55933 0.37271 0.0
C1621 C 0.48906 0.53921 0.3123 0.0
C1622 C 0.49681 0.54946 0.30372 0.0
C1623 C 0.4633 0.53842 0.32975 0.0
C1624 C 0.42172 0.55415 0.37212 0.0
H1625 H 0.23632 0.53407 0.43162 0.0
H1626 H 0.29006 0.53221 0.40365 0.0
H1627 H 0.39566 0.56 0.3993 0.0
H1628 H 0.48655 0.56691 0.30699 0.0
H1629 H 0.44341 0.56559 0.33767 0.0
H1630 H 0.36571 0.5352 0.34384 0.0
C1631 C 0.28396 0.54026 0.40966 0.0
C1632 C 0.38831 0.55459 0.38725 0.0
C1633 C 0.25301 0.54132 0.42565 0.0
C1634 C 0.48127 0.55892 0.3134 0.0
C1635 C 0.45657 0.55815 0.33095 0.0
C1636 C 0.37285 0.54051 0.35605 0.0
C1637 C 0.30897 0.5494 0.40238 0.0
C1638 C 0.34588 0.54826 0.38675 0.0
C1639 C 0.44601 0.5479 0.33901 0.0
C1640 C 0.41396 0.54724 0.35621 0.0
H1641 H 0.26533 0.56868 0.4334 0.0
H1642 H 0.3172 0.56698 0.40514 0.0
H1643 H 0.30678 0.53607 0.37021 0.0
H1644 H 0.50012 0.53179 0.30495 0.0
H1645 H 0.4558 0.53042 0.33573 0.0
C1646 C 0.71001 0.71533 0.34171 0.0
C1647 C 0.73217 0.70698 0.33085 0.0
C1648 C 0.72345 0.71709 0.36105 0.0
C1649 C 0.82612 0.71255 0.39392 0.0
H1650 H 0.73297 0.71398 0.43577 0.0
C1651 C 0.87118 0.6999 0.47135 0.0
C1652 C 0.84791 0.70499 0.487 0.0
C1653 C 0.86043 0.70297 0.45239 0.0
C1654 C 0.75949 0.71386 0.42423 0.0
H1655 H 0.7844 0.69372 0.33192 0.0
H1656 H 0.80754 0.69678 0.36537 0.0
H1657 H 0.70469 0.7137 0.40222 0.0
H1658 H 0.79725 0.71773 0.49518 0.0
H1659 H 0.77848 0.72315 0.46187 0.0
H1660 H 0.88089 0.71239 0.41578 0.0
C1661 C 0.78038 0.70206 0.35896 0.0
C1662 C 0.74322 0.71366 0.40504 0.0
C1663 C 0.76676 0.70025 0.33983 0.0
C1664 C 0.81586 0.71369 0.48337 0.0
C1665 C 0.80478 0.71672 0.46432 0.0
C1666 C 0.84236 0.71279 0.41303 0.0
C1667 C 0.75961 0.71061 0.36968 0.0
C1668 C 0.77637 0.71261 0.38975 0.0
C1669 C 0.82596 0.71117 0.44862 0.0
C1670 C 0.80921 0.71306 0.42844 0.0
H1671 H 0.68333 0.72066 0.33514 0.0
H1672 H 0.70673 0.7237 0.36905 0.0
H1673 H 0.85251 0.71196 0.38236 0.0
H1674 H 0.89599 0.69316 0.47372 0.0
H1675 H 0.87707 0.69844 0.44066 0.0
C1676 C 0.38791 0.69546 0.95986 0.0
C1677 C 0.37448 0.70237 0.97514 0.0
C1678 C 0.35536 0.69311 0.94505 0.0
C1679 C 0.26181 0.70587 0.91758 0.0
H1680 H 0.25041 0.67721 0.89412 0.0
C1681 C 0.19393 0.70046 0.83887 0.0
C1682 C 0.22408 0.69367 0.82771 0.0
C1683 C 0.19793 0.70056 0.85911 0.0
C1684 C 0.25307 0.68527 0.9005 0.0
H1685 H 0.31628 0.71204 0.98734 0.0
H1686 H 0.25932 0.70821 0.9608 0.0
H1687 H 0.28389 0.67894 0.92667 0.0
H1688 H 0.28068 0.68138 0.82899 0.0
H1689 H 0.2881 0.68165 0.86392 0.0
H1690 H 0.23451 0.71231 0.8909 0.0
C1691 C 0.29486 0.70447 0.96059 0.0
C1692 C 0.27193 0.68624 0.91916 0.0
C1693 C 0.32725 0.70662 0.97574 0.0
C1694 C 0.25695 0.68672 0.83716 0.0
C1695 C 0.26085 0.68679 0.85727 0.0
C1696 C 0.24337 0.70492 0.89878 0.0
C1697 C 0.30898 0.69781 0.94499 0.0
C1698 C 0.27828 0.69658 0.92756 0.0
C1699 C 0.23193 0.69381 0.86852 0.0
C1700 C 0.24082 0.69464 0.88972 0.0
H1701 H 0.42414 0.69209 0.95909 0.0
H1702 H 0.36741 0.68806 0.93309 0.0
H1703 H 0.26665 0.71395 0.92369 0.0
H1704 H 0.16816 0.70588 0.83195 0.0
H1705 H 0.17493 0.70601 0.86736 0.0
C1706 C 0.94234 0.54436 0.81641 0.0
C1707 C 0.92435 0.55109 0.80161 0.0
C1708 C 0.92357 0.545 0.83508 0.0
C1709 C 0.82183 0.55628 0.86455 0.0
H1710 H 0.91536 0.55269 0.90593 0.0
C1711 C 0.8006 0.57093 0.94422 0.0
C1712 C 0.81957 0.5641 0.95876 0.0
C1713 C 0.80394 0.56793 0.92474 0.0
C1714 C 0.88861 0.55354 0.89456 0.0
H1715 H 0.87191 0.56364 0.79456 0.0
H1716 H 0.84041 0.56521 0.82763 0.0
H1717 H 0.94134 0.55088 0.8726 0.0
H1718 H 0.85326 0.54841 0.96445 0.0
H1719 H 0.85953 0.54323 0.93038 0.0
H1720 H 0.76976 0.55956 0.88694 0.0
C1721 C 0.86827 0.55921 0.82467 0.0
C1722 C 0.90344 0.55248 0.87538 0.0
C1723 C 0.88651 0.55839 0.80577 0.0
C1724 C 0.8384 0.55385 0.95358 0.0
C1725 C 0.84224 0.5509 0.93408 0.0
C1726 C 0.80712 0.55753 0.88385 0.0
C1727 C 0.88703 0.55259 0.83963 0.0
C1728 C 0.87032 0.55378 0.86006 0.0
C1729 C 0.82677 0.55811 0.91947 0.0
C1730 C 0.84043 0.55612 0.89902 0.0
H1731 H 0.9708 0.53848 0.81353 0.0
H1732 H 0.93794 0.53951 0.84596 0.0
H1733 H 0.79517 0.55723 0.85319 0.0
H1734 H 0.78573 0.57887 0.94781 0.0
H1735 H 0.79184 0.57365 0.91376 0.0
C1736 C 0.77706 0.46669 0.56577 0.0
C1737 C 0.78956 0.45719 0.55553 0.0
C1738 C 0.76556 0.46607 0.58552 0.0
C1739 C 0.7707 0.44821 0.62883 0.0
H1740 H 0.63998 0.45835 0.63873 0.0
C1741 C 0.65669 0.42931 0.68903 0.0
C1742 C 0.62639 0.43603 0.70021 0.0
C1743 C 0.6796 0.43338 0.67256 0.0
C1744 C 0.67683 0.45564 0.6364 0.0
H1745 H 0.80312 0.43982 0.55782 0.0
H1746 H 0.78516 0.43879 0.59231 0.0
H1747 H 0.68066 0.46353 0.60872 0.0
H1748 H 0.59536 0.45225 0.70264 0.0
H1749 H 0.63578 0.45945 0.67378 0.0
H1750 H 0.76681 0.44015 0.65624 0.0
C1751 C 0.78385 0.4467 0.58526 0.0
C1752 C 0.7002 0.45864 0.61921 0.0
C1753 C 0.79425 0.44728 0.56553 0.0
C1754 C 0.61825 0.44685 0.69421 0.0
C1755 C 0.6415 0.45098 0.67771 0.0
C1756 C 0.74755 0.44528 0.64604 0.0
C1757 C 0.7674 0.45598 0.59529 0.0
C1758 C 0.74681 0.45467 0.615 0.0
C1759 C 0.6732 0.44433 0.6669 0.0
C1760 C 0.69971 0.44865 0.64975 0.0
H1761 H 0.77227 0.47438 0.55821 0.0
H1762 H 0.75311 0.47335 0.59293 0.0
H1763 H 0.80681 0.44513 0.62606 0.0
H1764 H 0.66348 0.42091 0.6932 0.0
H1765 H 0.70258 0.42793 0.6643 0.0
C1766 C 0.90594 0.29415 0.60493 0.0
C1767 C 0.92065 0.30378 0.59558 0.0
C1768 C 0.91202 0.293 0.62497 0.0
C1769 C 0.94337 0.308 0.67029 0.0
H1770 H 0.01749 0.28191 0.68205 0.0
C1771 C 0.08284 0.3058 0.73209 0.0
C1772 C 0.09269 0.29568 0.74087 0.0
C1773 C 0.04884 0.30656 0.71715 0.0
C1774 C 0.99588 0.28914 0.67928 0.0
H1775 H 0.94929 0.32006 0.59995 0.0
H1776 H 0.95953 0.31811 0.63473 0.0
H1777 H 0.97826 0.28364 0.65077 0.0
H1778 H 0.0722 0.27861 0.74192 0.0
H1779 H 0.01206 0.27998 0.71622 0.0
H1780 H 0.96246 0.31365 0.69862 0.0
C1781 C 0.94342 0.31143 0.62675 0.0
C1782 C 0.9733 0.29012 0.66127 0.0
C1783 C 0.93782 0.31253 0.60677 0.0
C1784 C 0.06568 0.2865 0.73529 0.0
C1785 C 0.03143 0.28728 0.72047 0.0
C1786 C 0.9658 0.307 0.68837 0.0
C1787 C 0.93235 0.30151 0.63599 0.0
C1788 C 0.94801 0.2997 0.65634 0.0
C1789 C 0.02372 0.29724 0.71076 0.0
C1790 C 0.99357 0.29769 0.69288 0.0
H1791 H 0.89266 0.28727 0.59664 0.0
H1792 H 0.90269 0.2853 0.63173 0.0
H1793 H 0.92362 0.31543 0.667 0.0
H1794 H 0.10318 0.31301 0.73606 0.0
H1795 H 0.0443 0.31435 0.70991 0.0
C1796 C 0.54033 0.3136 0.08191 0.0
C1797 C 0.51062 0.30516 0.07509 0.0
C1798 C 0.56532 0.31249 0.09933 0.0
C1799 C 0.62089 0.29231 0.13074 0.0
H1800 H 0.62241 0.31592 0.16811 0.0
C1801 C 0.72005 0.29021 0.20528 0.0
C1802 C 0.73664 0.30011 0.21302 0.0
C1803 C 0.69543 0.29009 0.18753 0.0
C1804 C 0.62322 0.30931 0.15769 0.0
H1805 H 0.48318 0.28895 0.08119 0.0
H1806 H 0.52786 0.28691 0.1118 0.0
H1807 H 0.56963 0.31712 0.14007 0.0
H1808 H 0.74431 0.31745 0.2079 0.0
H1809 H 0.70455 0.31719 0.17644 0.0
H1810 H 0.67554 0.28462 0.14813 0.0
C1811 C 0.53133 0.29442 0.10361 0.0
C1812 C 0.59249 0.30997 0.14172 0.0
C1813 C 0.50546 0.29563 0.08627 0.0
C1814 C 0.73204 0.30971 0.2021 0.0
C1815 C 0.70845 0.30957 0.18426 0.0
C1816 C 0.65219 0.29169 0.14669 0.0
C1817 C 0.56184 0.30282 0.11019 0.0
C1818 C 0.59134 0.30154 0.12798 0.0
C1819 C 0.68752 0.29988 0.17722 0.0
C1820 C 0.65423 0.30028 0.16023 0.0
H1821 H 0.5451 0.32101 0.07354 0.0
H1822 H 0.58879 0.31906 0.10398 0.0
H1823 H 0.62096 0.28573 0.12024 0.0
H1824 H 0.7223 0.28276 0.21371 0.0
H1825 H 0.67978 0.28248 0.18261 0.0
C1826 C 0.93412 0.46047 0.16298 0.0
C1827 C 0.94763 0.45088 0.17278 0.0
C1828 C 0.93782 0.46106 0.14276 0.0
C1829 C 0.95522 0.44466 0.09793 0.0
H1830 H 0.03549 0.4689 0.08174 0.0
C1831 C 0.07564 0.44319 0.0297 0.0
C1832 C 0.08886 0.45301 0.02074 0.0
C1833 C 0.04534 0.4433 0.04596 0.0
C1834 C 0.01201 0.4622 0.08572 0.0
H1835 H 0.97213 0.43416 0.16911 0.0
H1836 H 0.97777 0.43514 0.13397 0.0
H1837 H 0.00374 0.46847 0.11445 0.0
H1838 H 0.07949 0.47055 0.02084 0.0
H1839 H 0.02447 0.47077 0.04849 0.0
H1840 H 0.96421 0.43828 0.06928 0.0
C1841 C 0.96455 0.44222 0.14178 0.0
C1842 C 0.99384 0.46196 0.1046 0.0
C1843 C 0.96157 0.44168 0.16194 0.0
C1844 C 0.06917 0.46287 0.02745 0.0
C1845 C 0.03827 0.46298 0.04347 0.0
C1846 C 0.97296 0.44495 0.07894 0.0
C1847 C 0.95431 0.45202 0.132 0.0
C1848 C 0.96632 0.45306 0.11108 0.0
C1849 C 0.02756 0.45325 0.05348 0.0
C1850 C 0.00272 0.45359 0.07271 0.0
H1851 H 0.92346 0.4677 0.17099 0.0
H1852 H 0.92937 0.46871 0.13559 0.0
H1853 H 0.93372 0.43774 0.10248 0.0
H1854 H 0.0914 0.43553 0.02497 0.0
H1855 H 0.03859 0.43565 0.05332 0.0
C1856 C 0.96099 0.14816 0.99384 0.0
C1857 C 0.99098 0.15725 0.99704 0.0
C1858 C 0.97963 0.13751 0.99546 0.0
C1859 C 0.07948 0.12179 0.01755 0.0
H1860 H 0.06273 0.10142 0.9751 0.0
C1861 C 0.20569 0.08496 0.00832 0.0
C1862 C 0.18692 0.07499 0.00163 0.0
C1863 C 0.17721 0.09439 0.00846 0.0
C1864 C 0.06713 0.10692 0.98724 0.0
H1865 H 0.0635 0.16229 0.00489 0.0
H1866 H 0.0955 0.14384 0.00801 0.0
H1867 H 0.01968 0.11893 0.97472 0.0
H1868 H 0.12345 0.06713 0.98971 0.0
H1869 H 0.07314 0.08366 0.99018 0.0
H1870 H 0.1269 0.10993 0.0301 0.0
C1871 C 0.05775 0.14489 0.00421 0.0
C1872 C 0.04245 0.11695 0.98701 0.0
C1873 C 0.03943 0.15547 0.00232 0.0
C1874 C 0.13894 0.0747 0.99492 0.0
C1875 C 0.11021 0.08418 0.99513 0.0
C1876 C 0.10377 0.11177 0.01786 0.0
C1877 C 0.02827 0.13578 0.00066 0.0
C1878 C 0.04931 0.1246 0.00194 0.0
C1879 C 0.12894 0.09414 0.00203 0.0
C1880 C 0.09897 0.10431 0.00248 0.0
H1881 H 0.92355 0.14929 0.98966 0.0
H1882 H 0.95604 0.13063 0.99269 0.0
H1883 H 0.08485 0.12744 0.02943 0.0
H1884 H 0.24262 0.08549 0.01346 0.0
H1885 H 0.19335 0.10194 0.01344 0.0
C1886 C 0.14101 0.16501 0.22813 0.0
C1887 C 0.18961 0.16833 0.2279 0.0
C1888 C 0.1291 0.15396 0.22662 0.0
C1889 C 0.17873 0.12694 0.23693 0.0
H1890 H 0.07111 0.11643 0.20617 0.0
C1891 C 0.13437 0.08134 0.23431 0.0
C1892 C 0.08545 0.07838 0.23554 0.0
C1893 C 0.14749 0.09214 0.23078 0.0
C1894 C 0.10098 0.11925 0.21496 0.0
H1895 H 0.26382 0.16276 0.2254 0.0
H1896 H 0.24298 0.14339 0.22289 0.0
H1897 H 0.09377 0.13571 0.20466 0.0
H1898 H 0.01177 0.08431 0.23338 0.0
H1899 H 0.03464 0.10335 0.22772 0.0
H1900 H 0.18529 0.11067 0.24774 0.0
C1901 C 0.21415 0.14935 0.22432 0.0
C1902 C 0.11403 0.13028 0.21405 0.0
C1903 C 0.22606 0.16042 0.22568 0.0
C1904 C 0.04977 0.08638 0.23246 0.0
C1905 C 0.06293 0.09726 0.22915 0.0
C1906 C 0.16552 0.11597 0.23796 0.0
C1907 C 0.16556 0.146 0.22499 0.0
C1908 C 0.15297 0.13423 0.22507 0.0
C1909 C 0.11202 0.1003 0.22867 0.0
C1910 C 0.12645 0.11197 0.22702 0.0
H1911 H 0.11211 0.17093 0.22977 0.0
H1912 H 0.09139 0.15162 0.22736 0.0
H1913 H 0.2083 0.12979 0.24588 0.0
H1914 H 0.16268 0.07531 0.23636 0.0
H1915 H 0.18559 0.09412 0.22999 0.0
C1916 C 0.00077 0.8549 0.965 0.0
C1917 C 0.98681 0.84418 0.96953 0.0
C1918 C 0.96628 0.86332 0.96419 0.0
C1919 C 0.84103 0.87029 0.98008 0.0
H1920 H 0.85078 0.8928 0.9408 0.0
C1921 C 0.68977 0.90253 0.96777 0.0
C1922 C 0.70557 0.91337 0.96583 0.0
C1923 C 0.72314 0.89387 0.96733 0.0
C1924 C 0.84769 0.8866 0.95193 0.0
H1925 H 0.92563 0.83386 0.97662 0.0
H1926 H 0.86577 0.84839 0.97486 0.0
H1927 H 0.91154 0.87833 0.9422 0.0
H1928 H 0.76851 0.92362 0.96142 0.0
H1929 H 0.82629 0.9086 0.96056 0.0
H1930 H 0.77701 0.87856 0.98972 0.0
C1931 C 0.90333 0.85042 0.97231 0.0
C1932 C 0.88268 0.87833 0.95279 0.0
C1933 C 0.93772 0.84205 0.97321 0.0
C1934 C 0.75512 0.91536 0.96296 0.0
C1935 C 0.78829 0.90673 0.96236 0.0
C1936 C 0.80591 0.87853 0.97914 0.0
C1937 C 0.91703 0.86118 0.96783 0.0
C1938 C 0.87993 0.87007 0.96692 0.0
C1939 C 0.77285 0.89589 0.96474 0.0
C1940 C 0.80891 0.88682 0.96511 0.0
H1941 H 0.03834 0.8568 0.96212 0.0
H1942 H 0.97832 0.87153 0.96093 0.0
H1943 H 0.83806 0.86419 0.99138 0.0
H1944 H 0.65183 0.90075 0.97002 0.0
H1945 H 0.71005 0.88559 0.96903 0.0
C1946 C 0.85103 0.83509 0.74937 0.0
C1947 C 0.80156 0.8333 0.74601 0.0
C1948 C 0.86833 0.84554 0.75352 0.0
C1949 C 0.83024 0.87349 0.76876 0.0
H1950 H 0.95492 0.88139 0.74724 0.0
C1951 C 0.90192 0.91793 0.76553 0.0
C1952 C 0.95114 0.91969 0.76959 0.0
C1953 C 0.8833 0.90734 0.76445 0.0
C1954 C 0.92036 0.87927 0.75358 0.0
H1955 H 0.73122 0.84108 0.74464 0.0
H1956 H 0.76157 0.85949 0.75138 0.0
H1957 H 0.92227 0.86327 0.74126 0.0
H1958 H 0.01919 0.91171 0.77615 0.0
H1959 H 0.98669 0.89312 0.77409 0.0
H1960 H 0.82806 0.8897 0.78059 0.0
C1961 C 0.78698 0.85274 0.75115 0.0
C1962 C 0.90153 0.86885 0.75017 0.0
C1963 C 0.76953 0.84221 0.74718 0.0
C1964 C 0.98114 0.91061 0.77301 0.0
C1965 C 0.96258 0.89998 0.77171 0.0
C1966 C 0.84893 0.88397 0.77201 0.0
C1967 C 0.83677 0.85456 0.7542 0.0
C1968 C 0.85626 0.86578 0.75776 0.0
C1969 C 0.91352 0.89823 0.76721 0.0
C1970 C 0.89426 0.88697 0.76448 0.0
H1971 H 0.87666 0.82839 0.74883 0.0
H1972 H 0.90662 0.8465 0.75628 0.0
H1973 H 0.79565 0.8714 0.77509 0.0
H1974 H 0.8778 0.92476 0.76285 0.0
H1975 H 0.8455 0.90629 0.7608 0.0
C1976 C 0.8916 0.64974 0.53094 0.0
C1977 C 0.91483 0.65932 0.53709 0.0
C1978 C 0.91845 0.64024 0.52727 0.0
C1979 C 0.03417 0.62642 0.53747 0.0
H1980 H 0.01192 0.61196 0.48836 0.0
C1981 C 0.15708 0.59108 0.51042 0.0
C1982 C 0.13411 0.58243 0.50075 0.0
C1983 C 0.13146 0.60066 0.51486 0.0
C1984 C 0.01825 0.61579 0.50226 0.0
H1985 H 0.98399 0.66637 0.54491 0.0
H1986 H 0.03061 0.64977 0.53881 0.0
H1987 H 0.96326 0.62781 0.49717 0.0
H1988 H 0.06631 0.57702 0.48825 0.0
H1989 H 0.02164 0.59346 0.49636 0.0
H1990 H 0.08853 0.61429 0.54278 0.0
C1991 C 0.99178 0.6496 0.53674 0.0
C1992 C 0.99031 0.62488 0.50729 0.0
C1993 C 0.96508 0.65911 0.54016 0.0
C1994 C 0.08525 0.58357 0.49555 0.0
C1995 C 0.05962 0.59306 0.50012 0.0
C1996 C 0.06181 0.61723 0.53255 0.0
C1997 C 0.96889 0.64012 0.52995 0.0
C1998 C 0.9979 0.63029 0.52494 0.0
C1999 C 0.08226 0.60175 0.50984 0.0
C2000 C 0.05413 0.61177 0.51489 0.0
H2001 H 0.85293 0.64967 0.52842 0.0
H2002 H 0.89982 0.63301 0.52221 0.0
H2003 H 0.04064 0.6304 0.55123 0.0
H2004 H 0.19473 0.59043 0.51461 0.0
H2005 H 0.15029 0.60723 0.52212 0.0
C2006 C 0.15772 0.65853 0.75062 0.0
C2007 C 0.20505 0.66189 0.75493 0.0
C2008 C 0.14719 0.64752 0.74767 0.0
C2009 C 0.18508 0.61997 0.76061 0.0
H2010 H 0.09889 0.61173 0.71884 0.0
C2011 C 0.11081 0.57561 0.75105 0.0
C2012 C 0.06139 0.57498 0.74638 0.0
C2013 C 0.13493 0.5857 0.75061 0.0
C2014 C 0.12278 0.61388 0.73066 0.0
H2015 H 0.27862 0.65632 0.75947 0.0
H2016 H 0.25987 0.63686 0.75462 0.0
H2017 H 0.12948 0.63035 0.72055 0.0
H2018 H -0.00141 0.58447 0.73772 0.0
H2019 H 0.04 0.60188 0.73721 0.0
H2020 H 0.17675 0.60359 0.77116 0.0
C2021 C 0.23111 0.64285 0.75342 0.0
C2022 C 0.14045 0.62455 0.73158 0.0
C2023 C 0.24186 0.65396 0.75608 0.0
C2024 C 0.03674 0.58462 0.74129 0.0
C2025 C 0.06066 0.59463 0.74084 0.0
C2026 C 0.16706 0.60927 0.75978 0.0
C2027 C 0.18358 0.63953 0.74917 0.0
C2028 C 0.17078 0.6278 0.74683 0.0
C2029 C 0.1101 0.59533 0.74541 0.0
C2030 C 0.13456 0.60619 0.74508 0.0
H2031 H 0.12854 0.66443 0.74963 0.0
H2032 H 0.11013 0.64522 0.74466 0.0
H2033 H 0.20823 0.62226 0.77259 0.0
H2034 H 0.13079 0.56832 0.75504 0.0
H2035 H 0.17306 0.58594 0.75414 0.0
C2036 C 0.85364 0.42123 0.48933 0.0
C2037 C 0.80443 0.42409 0.49018 0.0
C2038 C 0.86813 0.41033 0.49076 0.0
C2039 C 0.82475 0.38174 0.48798 0.0
H2040 H 0.93296 0.37605 0.52232 0.0
C2041 C 0.86698 0.33882 0.51811 0.0
C2042 C 0.91567 0.33562 0.51988 0.0
C2043 C 0.85493 0.34949 0.51281 0.0
C2044 C 0.90319 0.37749 0.51245 0.0
H2045 H 0.73166 0.41771 0.49252 0.0
H2046 H 0.75692 0.3986 0.4952 0.0
H2047 H 0.90864 0.39482 0.5157 0.0
H2048 H 0.98995 0.34105 0.51727 0.0
H2049 H 0.96873 0.35976 0.50787 0.0
H2050 H 0.81898 0.36437 0.48496 0.0
C2051 C 0.78434 0.40481 0.49324 0.0
C2052 C 0.88918 0.38826 0.50865 0.0
C2053 C 0.76981 0.41576 0.49176 0.0
C2054 C 0.95203 0.3433 0.51608 0.0
C2055 C 0.93995 0.35402 0.51078 0.0
C2056 C 0.83878 0.37096 0.49179 0.0
C2057 C 0.83374 0.402 0.49315 0.0
C2058 C 0.8496 0.39052 0.49647 0.0
C2059 C 0.89117 0.35724 0.50914 0.0
C2060 C 0.87792 0.3687 0.5042 0.0
H2061 H 0.88122 0.42747 0.48798 0.0
H2062 H 0.90637 0.40843 0.49026 0.0
H2063 H 0.79455 0.3832 0.47833 0.0
H2064 H 0.83813 0.3331 0.52096 0.0
H2065 H 0.81701 0.35173 0.51198 0.0
C2066 C 0.77667 0.3421 0.27514 0.0
C2067 C 0.80697 0.33292 0.27351 0.0
C2068 C 0.7958 0.35264 0.27375 0.0
C2069 C 0.90124 0.36742 0.25408 0.0
H2070 H 0.85092 0.39137 0.28488 0.0
C2071 C 0.97735 0.4114 0.24885 0.0
C2072 C 0.94226 0.41968 0.24737 0.0
C2073 C 0.96385 0.40072 0.25369 0.0
C2074 C 0.8652 0.38476 0.27613 0.0
H2075 H 0.88121 0.32756 0.26975 0.0
H2076 H 0.91464 0.34592 0.26765 0.0
H2077 H 0.82151 0.37286 0.29054 0.0
H2078 H 0.86573 0.42333 0.25008 0.0
H2079 H 0.8423 0.40478 0.25845 0.0
H2080 H 0.94461 0.37935 0.23957 0.0
C2081 C 0.87602 0.345 0.26962 0.0
C2082 C 0.84828 0.37417 0.27933 0.0
C2083 C 0.85687 0.33448 0.27094 0.0
C2084 C 0.89363 0.41713 0.25109 0.0
C2085 C 0.88023 0.40651 0.25603 0.0
C2086 C 0.91829 0.37801 0.25093 0.0
C2087 C 0.84565 0.35421 0.27077 0.0
C2088 C 0.86563 0.36539 0.26818 0.0
C2089 C 0.91508 0.39817 0.2573 0.0
C2090 C 0.89997 0.38682 0.26173 0.0
H2091 H 0.73804 0.34115 0.27707 0.0
H2092 H 0.77127 0.35955 0.27445 0.0
H2093 H 0.9149 0.36087 0.24504 0.0
H2094 H 0.01513 0.41315 0.2461 0.0
H2095 H 0.99154 0.39447 0.25469 0.0
C2096 C 0.70084 0.09142 0.50039 0.0
C2097 C 0.67568 0.0815 0.50203 0.0
C2098 C 0.67592 0.10129 0.49853 0.0
C2099 C 0.56473 0.11542 0.51047 0.0
H2100 H 0.60455 0.1355 0.47011 0.0
C2101 C 0.48098 0.15904 0.50164 0.0
C2102 C 0.51318 0.16735 0.49617 0.0
C2103 C 0.49596 0.14806 0.50162 0.0
C2104 C 0.59326 0.13006 0.48162 0.0
H2105 H 0.60453 0.07416 0.5032 0.0
H2106 H 0.56057 0.09163 0.50043 0.0
H2107 H 0.63934 0.11722 0.47135 0.0
H2108 H 0.58665 0.17072 0.48702 0.0
H2109 H 0.61302 0.15183 0.48756 0.0
H2110 H 0.5202 0.12843 0.52129 0.0
C2111 C 0.59973 0.09165 0.50039 0.0
C2112 C 0.613 0.11956 0.48221 0.0
C2113 C 0.62482 0.08168 0.50188 0.0
C2114 C 0.56073 0.1645 0.49108 0.0
C2115 C 0.57577 0.15362 0.49124 0.0
C2116 C 0.54533 0.12603 0.51004 0.0
C2117 C 0.62517 0.10154 0.49858 0.0
C2118 C 0.59967 0.11219 0.49684 0.0
C2119 C 0.54353 0.1452 0.49624 0.0
C2120 C 0.5602 0.13357 0.49584 0.0
H2121 H 0.74001 0.09156 0.50043 0.0
H2122 H 0.69645 0.10879 0.49735 0.0
H2123 H 0.55403 0.10991 0.52196 0.0
H2124 H 0.44407 0.16099 0.5056 0.0
H2125 H 0.47003 0.14181 0.50546 0.0
C2126 C 0.594 0.0871 0.74981 0.0
C2127 C 0.6241 0.07823 0.75457 0.0
C2128 C 0.61399 0.09685 0.74269 0.0
C2129 C 0.72316 0.10763 0.71854 0.0
H2130 H 0.68787 0.13534 0.74177 0.0
C2131 C 0.84006 0.14641 0.70967 0.0
C2132 C 0.81669 0.1566 0.70907 0.0
C2133 C 0.81361 0.13687 0.7132 0.0
C2134 C 0.69762 0.12771 0.73484 0.0
H2135 H 0.69858 0.07258 0.75546 0.0
H2136 H 0.73297 0.08941 0.74304 0.0
H2137 H 0.6455 0.11876 0.75144 0.0
H2138 H 0.74709 0.16475 0.71086 0.0
H2139 H 0.70095 0.14815 0.71648 0.0
H2140 H 0.77535 0.1165 0.70199 0.0
C2141 C 0.69408 0.08889 0.74469 0.0
C2142 C 0.67329 0.11821 0.74043 0.0
C2143 C 0.67431 0.07926 0.75197 0.0
C2144 C 0.76622 0.15702 0.71138 0.0
C2145 C 0.73977 0.1475 0.71476 0.0
C2146 C 0.74725 0.11713 0.71285 0.0
C2147 C 0.66428 0.09779 0.73995 0.0
C2148 C 0.6864 0.10804 0.7326 0.0
C2149 C 0.76317 0.13731 0.71607 0.0
C2150 C 0.73536 0.12728 0.72115 0.0
H2151 H 0.55519 0.08653 0.75164 0.0
H2152 H 0.59014 0.10359 0.73911 0.0
H2153 H 0.7336 0.09992 0.71205 0.0
H2154 H 0.87895 0.14584 0.70804 0.0
H2155 H 0.83301 0.1292 0.71433 0.0
C2156 C 0.27877 0.89914 0.50157 0.0
C2157 C 0.23042 0.90104 0.49629 0.0
C2158 C 0.29719 0.88853 0.50248 0.0
C2159 C 0.27887 0.86059 0.48434 0.0
H2160 H 0.37023 0.85348 0.5251 0.0
C2161 C 0.37746 0.81851 0.48968 0.0
C2162 C 0.42776 0.81937 0.49216 0.0
C2163 C 0.34766 0.82773 0.49187 0.0
C2164 C 0.34479 0.85534 0.51363 0.0
H2165 H 0.16339 0.89328 0.48775 0.0
H2166 H 0.19575 0.87461 0.48934 0.0
H2167 H 0.32807 0.87099 0.52567 0.0
H2168 H 0.48613 0.83044 0.49935 0.0
H2169 H 0.43445 0.84639 0.50335 0.0
H2170 H 0.29649 0.84494 0.47216 0.0
C2171 C 0.2194 0.88139 0.4927 0.0
C2172 C 0.3207 0.86538 0.51391 0.0
C2173 C 0.20083 0.89207 0.49184 0.0
C2174 C 0.44751 0.82951 0.49733 0.0
C2175 C 0.41783 0.83865 0.49975 0.0
C2176 C 0.30293 0.85049 0.48409 0.0
C2177 C 0.26779 0.87951 0.49814 0.0
C2178 C 0.28848 0.86826 0.499 0.0
C2179 C 0.36764 0.8379 0.49688 0.0
C2180 C 0.33713 0.84789 0.49846 0.0
H2181 H 0.30264 0.90587 0.50502 0.0
H2182 H 0.33486 0.88742 0.50632 0.0
H2183 H 0.25446 0.86257 0.47258 0.0
H2184 H 0.36128 0.81079 0.48563 0.0
H2185 H 0.30908 0.8269 0.48966 0.0
C2186 C 0.48359 0.90899 0.25925 0.0
C2187 C 0.44902 0.91738 0.26044 0.0
C2188 C 0.46944 0.89804 0.26067 0.0
C2189 C 0.3609 0.88067 0.2544 0.0
H2190 H 0.44249 0.85828 0.27712 0.0
C2191 C 0.30278 0.83533 0.258 0.0
C2192 C 0.33773 0.8279 0.25129 0.0
C2193 C 0.3153 0.84623 0.26163 0.0
C2194 C 0.41937 0.86445 0.27071 0.0
H2195 H 0.37305 0.92097 0.26506 0.0
H2196 H 0.34864 0.90197 0.26811 0.0
H2197 H 0.46678 0.87742 0.27911 0.0
H2198 H 0.41339 0.82591 0.24372 0.0
H2199 H 0.43514 0.84483 0.25013 0.0
H2200 H 0.31364 0.8677 0.24594 0.0
C2201 C 0.38642 0.90375 0.26548 0.0
C2202 C 0.43336 0.87541 0.27177 0.0
C2203 C 0.40046 0.91466 0.26386 0.0
C2204 C 0.3856 0.83146 0.24882 0.0
C2205 C 0.39817 0.84229 0.25263 0.0
C2206 C 0.34676 0.86974 0.25348 0.0
C2207 C 0.4205 0.89528 0.26348 0.0
C2208 C 0.40458 0.88366 0.26342 0.0
C2209 C 0.36309 0.84982 0.25885 0.0
C2210 C 0.37613 0.8615 0.26139 0.0
H2211 H 0.52126 0.91086 0.25656 0.0
H2212 H 0.49664 0.89174 0.25886 0.0
H2213 H 0.3382 0.88675 0.24748 0.0
H2214 H 0.26563 0.8328 0.26005 0.0
H2215 H 0.28757 0.85185 0.26654 0.0
C2216 C 0.56314 0.67695 0.01393 0.0
C2217 C 0.57939 0.6874 0.00866 0.0
C2218 C 0.59402 0.66794 0.01299 0.0
C2219 C 0.72133 0.65955 0.01358 0.0
H2220 H 0.66833 0.63239 0.99405 0.0
C2221 C 0.82904 0.61822 0.00889 0.0
C2222 C 0.80291 0.60894 0.01473 0.0
C2223 C 0.80582 0.6284 0.00716 0.0
C2224 C 0.68365 0.63989 0.99965 0.0
H2225 H 0.64109 0.69662 0.99841 0.0
H2226 H 0.69563 0.68074 0.99684 0.0
H2227 H 0.6205 0.64907 0.99216 0.0
H2228 H 0.73259 0.60316 0.0241 0.0
H2229 H 0.69264 0.62077 0.02129 0.0
H2230 H 0.78432 0.65021 0.02139 0.0
C2231 C 0.65876 0.67959 0.0017 0.0
C2232 C 0.65624 0.64946 0.99854 0.0
C2233 C 0.62754 0.68865 0.00251 0.0
C2234 C 0.75373 0.61011 0.0194 0.0
C2235 C 0.73068 0.62021 0.01765 0.0
C2236 C 0.74892 0.64992 0.01471 0.0
C2237 C 0.64213 0.66912 0.00681 0.0
C2238 C 0.67417 0.65934 0.00594 0.0
C2239 C 0.75609 0.62943 0.01115 0.0
C2240 C 0.72977 0.63993 0.00822 0.0
H2241 H 0.52634 0.67568 0.0188 0.0
H2242 H 0.58026 0.66003 0.01735 0.0
H2243 H 0.73608 0.66704 0.01945 0.0
H2244 H 0.86698 0.61755 0.00517 0.0
H2245 H 0.82636 0.63536 0.00212 0.0
C2246 C 0.72291 0.66468 0.2543 0.0
C2247 C 0.68711 0.67253 0.25827 0.0
C2248 C 0.71007 0.65382 0.25053 0.0
C2249 C 0.60883 0.63644 0.23475 0.0
H2250 H 0.67449 0.61364 0.2636 0.0
C2251 C 0.53649 0.59209 0.2389 0.0
C2252 C 0.57036 0.58356 0.24037 0.0
C2253 C 0.55173 0.60299 0.23935 0.0
C2254 C 0.65628 0.61985 0.25512 0.0
H2255 H 0.60984 0.67525 0.26095 0.0
H2256 H 0.58754 0.65637 0.2542 0.0
H2257 H 0.70037 0.63252 0.2671 0.0
H2258 H 0.64675 0.57971 0.24244 0.0
H2259 H 0.67341 0.59861 0.24251 0.0
H2260 H 0.56491 0.62379 0.22264 0.0
C2261 C 0.62544 0.65858 0.254 0.0
C2262 C 0.67112 0.63069 0.25719 0.0
C2263 C 0.63828 0.66937 0.258 0.0
C2264 C 0.61974 0.58612 0.24154 0.0
C2265 C 0.635 0.59697 0.24171 0.0
C2266 C 0.59428 0.62557 0.2325 0.0
C2267 C 0.66118 0.65067 0.25039 0.0
C2268 C 0.64728 0.63911 0.24718 0.0
C2269 C 0.6012 0.60558 0.24103 0.0
C2270 C 0.61756 0.61713 0.24278 0.0
H2271 H 0.76082 0.66688 0.25438 0.0
H2272 H 0.73834 0.64789 0.24767 0.0
H2273 H 0.59009 0.64276 0.22671 0.0
H2274 H 0.49817 0.59034 0.23805 0.0
H2275 H 0.52457 0.60938 0.23899 0.0
C2276 C 0.33045 0.42515 0.002 0.0
C2277 C 0.27973 0.42593 0.00191 0.0
C2278 C 0.35319 0.41489 0.00338 0.0
C2279 C 0.32572 0.38561 0.99447 0.0
H2280 H 0.44361 0.37979 0.02312 0.0
C2281 C 0.38307 0.34236 0.01562 0.0
C2282 C 0.43088 0.33908 0.01184 0.0
C2283 C 0.36919 0.35326 0.0136 0.0
C2284 C 0.41101 0.38136 0.01487 0.0
H2285 H 0.21319 0.41674 0.00452 0.0
H2286 H 0.25239 0.39906 0.00764 0.0
H2287 H 0.41042 0.39841 0.02219 0.0
H2288 H 0.50193 0.34471 0.00323 0.0
H2289 H 0.47757 0.364 1.00001 0.0
H2290 H 0.32536 0.36856 0.98765 0.0
C2291 C 0.27489 0.40622 0.0059 0.0
C2292 C 0.39197 0.392 0.01433 0.0
C2293 C 0.25234 0.41638 0.00431 0.0
C2294 C 0.46479 0.347 0.00617 0.0
C2295 C 0.45097 0.35802 0.00443 0.0
C2296 C 0.3444 0.37502 0.99517 0.0
C2297 C 0.32552 0.40527 0.00482 0.0
C2298 C 0.34844 0.39421 0.00446 0.0
C2299 C 0.40285 0.36121 0.00796 0.0
C2300 C 0.38668 0.37273 0.00566 0.0
H2301 H 0.35243 0.43238 1.00007 0.0
H2302 H 0.39224 0.41447 0.0025 0.0
H2303 H 0.29303 0.38703 0.98619 0.0
H2304 H 0.35603 0.33647 0.02001 0.0
H2305 H 0.332 0.35549 0.01661 0.0
C2306 C 0.50528 0.39014 0.7403 0.0
C2307 C 0.54302 0.39301 0.75292 0.0
C2308 C 0.48598 0.37961 0.74052 0.0
C2309 C 0.4707 0.3558 0.77237 0.0
H2310 H 0.4272 0.34187 0.72507 0.0
C2311 C 0.37062 0.31431 0.7733 0.0
C2312 C 0.32887 0.31383 0.76174 0.0
C2313 C 0.40334 0.32295 0.77128 0.0
C2314 C 0.43896 0.34566 0.73842 0.0
H2315 H 0.59088 0.387 0.7754 0.0
H2316 H 0.55716 0.3685 0.77575 0.0
H2317 H 0.47299 0.35884 0.72331 0.0
H2318 H 0.28949 0.32184 0.73856 0.0
H2319 H 0.34617 0.33689 0.73509 0.0
H2320 H 0.43567 0.34276 0.7875 0.0
C2321 C 0.54228 0.37446 0.76578 0.0
C2322 C 0.46522 0.35539 0.73742 0.0
C2323 C 0.56178 0.38503 0.76551 0.0
C2324 C 0.32137 0.32196 0.74767 0.0
C2325 C 0.35406 0.33056 0.74561 0.0
C2326 C 0.44441 0.34606 0.77338 0.0
C2327 C 0.50383 0.37166 0.75339 0.0
C2328 C 0.48058 0.3607 0.75439 0.0
C2329 C 0.39508 0.33128 0.75759 0.0
C2330 C 0.42738 0.34098 0.75643 0.0
H2331 H 0.48993 0.3961 0.73045 0.0
H2332 H 0.45595 0.3778 0.73098 0.0
H2333 H 0.48147 0.35972 0.78574 0.0
H2334 H 0.37741 0.30816 0.78427 0.0
H2335 H 0.43486 0.32318 0.78058 0.0
loop_
_geom_bond_atom_site_label_1
_geom_bond_atom_site_label_2
_geom_bond_distance
_geom_bond_site_symmetry_2
_ccdc_geom_bond_type
In0 O1 2.296 1_554 S
In0 O2 2.329 1_554 S
In0 O6 2.265 . S
In0 O7 2.323 . S
In0 O8 2.265 . S
In0 O9 2.326 1_554 S
In0 O11 2.293 . S
In0 O12 2.326 1_554 S
O1 In0 2.296 1_556 S
O1 C10 1.240 . S
O2 In0 2.329 1_556 S
O2 C10 1.252 . S
C3 O6 1.252 . S
C3 O7 1.260 . S
C4 O11 1.240 . S
C4 O12 1.246 1_554 S
C5 O8 1.252 . S
C5 O9 1.260 1_554 S
O6 In0 2.265 . S
O6 C3 1.252 . S
O7 In0 2.323 . S
O7 C3 1.260 . S
O8 In0 2.265 . S
O8 C5 1.252 . S
O9 In0 2.326 1_556 S
O9 C5 1.260 1_556 S
C10 O1 1.240 . S
C10 O2 1.252 . S
O11 In0 2.293 . S
O11 C4 1.240 . S
O12 In0 2.326 1_556 S
O12 C4 1.246 1_556 S
In13 O14 2.296 1_654 S
In13 O15 2.329 1_554 S
In13 O19 2.265 1_655 S
In13 O20 2.323 1_655 S
In13 O21 2.265 . S
In13 O22 2.326 1_654 S
In13 O24 2.293 . S
In13 O25 2.326 1_554 S
O14 In13 2.296 1_456 S
O14 C23 1.240 1_455 S
O15 In13 2.329 1_556 S
O15 C23 1.252 . S
C16 O19 1.252 . S
C16 O20 1.260 . S
C17 O24 1.240 . S
C17 O25 1.246 1_554 S
C18 O21 1.252 1_455 S
C18 O22 1.260 1_554 S
O19 In13 2.265 1_455 S
O19 C16 1.252 . S
O20 In13 2.323 1_455 S
O20 C16 1.260 . S
O21 In13 2.265 . S
O21 C18 1.252 1_655 S
O22 In13 2.326 1_456 S
O22 C18 1.260 1_556 S
C23 O14 1.240 1_655 S
C23 O15 1.252 . S
O24 In13 2.293 . S
O24 C17 1.240 . S
O25 In13 2.326 1_556 S
O25 C17 1.246 1_556 S
In26 O27 2.294 . S
In26 O28 2.326 . S
In26 O32 2.266 . S
In26 O33 2.326 . S
In26 O34 2.266 . S
In26 O35 2.326 . S
In26 O37 2.294 . S
In26 O38 2.326 . S
O27 In26 2.294 . S
O27 C36 1.240 . S
O28 In26 2.326 . S
O28 C36 1.252 . S
C29 O32 1.252 . S
C29 O33 1.260 . S
C30 O37 1.240 . S
C30 O38 1.252 . S
C31 O34 1.252 . S
C31 O35 1.260 . S
O32 In26 2.266 . S
O32 C29 1.252 . S
O33 In26 2.326 . S
O33 C29 1.260 . S
O34 In26 2.266 . S
O34 C31 1.252 . S
O35 In26 2.326 . S
O35 C31 1.260 . S
C36 O27 1.240 . S
C36 O28 1.252 . S
O37 In26 2.294 . S
O37 C30 1.240 . S
O38 In26 2.326 . S
O38 C30 1.252 . S
In39 O40 2.301 . S
In39 O41 2.329 . S
In39 O45 2.268 . S
In39 O46 2.321 1_655 S
In39 O47 2.260 1_655 S
In39 O48 2.324 1_655 S
In39 O50 2.292 1_655 S
In39 O51 2.329 . S
O40 In39 2.301 . S
O40 C49 1.240 . S
O41 In39 2.329 . S
O41 C49 1.252 . S
C42 O45 1.252 1_455 S
C42 O46 1.260 . S
C43 O50 1.240 1_655 S
C43 O51 1.252 . S
C44 O47 1.252 . S
C44 O48 1.260 . S
O45 In39 2.268 . S
O45 C42 1.252 1_655 S
O46 In39 2.321 1_455 S
O46 C42 1.260 . S
O47 In39 2.260 1_455 S
O47 C44 1.252 . S
O48 In39 2.324 1_455 S
O48 C44 1.260 . S
C49 O40 1.240 . S
C49 O41 1.252 . S
O50 In39 2.292 1_455 S
O50 C43 1.240 1_455 S
O51 In39 2.329 . S
O51 C43 1.252 . S
In52 O53 2.293 . S
In52 O54 2.326 1_556 S
In52 O58 2.265 . S
In52 O59 2.326 1_556 S
In52 O60 2.265 . S
In52 O61 2.323 . S
In52 O63 2.296 1_556 S
In52 O64 2.329 1_556 S
O53 In52 2.293 . S
O53 C62 1.240 . S
O54 In52 2.326 1_554 S
O54 C62 1.246 1_554 S
C55 O58 1.252 . S
C55 O59 1.260 1_556 S
C56 O63 1.240 . S
C56 O64 1.252 . S
C57 O60 1.252 . S
C57 O61 1.260 . S
O58 In52 2.265 . S
O58 C55 1.252 . S
O59 In52 2.326 1_554 S
O59 C55 1.260 1_554 S
O60 In52 2.265 . S
O60 C57 1.252 . S
O61 In52 2.323 . S
O61 C57 1.260 . S
C62 O53 1.240 . S
C62 O54 1.246 1_556 S
O63 In52 2.296 1_554 S
O63 C56 1.240 . S
O64 In52 2.329 1_554 S
O64 C56 1.252 . S
In65 O66 2.296 1_456 S
In65 O67 2.329 1_556 S
In65 O71 2.265 1_455 S
In65 O72 2.323 1_455 S
In65 O73 2.265 . S
In65 O74 2.326 1_456 S
In65 O76 2.293 . S
In65 O77 2.326 1_556 S
O66 In65 2.296 1_654 S
O66 C75 1.240 1_655 S
O67 In65 2.329 1_554 S
O67 C75 1.252 . S
C68 O71 1.252 . S
C68 O72 1.260 . S
C69 O76 1.240 . S
C69 O77 1.246 1_556 S
C70 O73 1.252 1_655 S
C70 O74 1.260 1_556 S
O71 In65 2.265 1_655 S
O71 C68 1.252 . S
O72 In65 2.323 1_655 S
O72 C68 1.260 . S
O73 In65 2.265 . S
O73 C70 1.252 1_455 S
O74 In65 2.326 1_654 S
O74 C70 1.260 1_554 S
C75 O66 1.240 1_455 S
C75 O67 1.252 . S
O76 In65 2.293 . S
O76 C69 1.240 . S
O77 In65 2.326 1_554 S
O77 C69 1.246 1_554 S
In78 O79 2.294 . S
In78 O80 2.326 . S
In78 O84 2.266 . S
In78 O85 2.326 . S
In78 O86 2.266 . S
In78 O87 2.326 . S
In78 O89 2.294 . S
In78 O90 2.326 . S
O79 In78 2.294 . S
O79 C88 1.240 . S
O80 In78 2.326 . S
O80 C88 1.252 . S
C81 O84 1.252 . S
C81 O85 1.260 . S
C82 O89 1.240 . S
C82 O90 1.252 . S
C83 O86 1.252 . S
C83 O87 1.260 . S
O84 In78 2.266 . S
O84 C81 1.252 . S
O85 In78 2.326 . S
O85 C81 1.260 . S
O86 In78 2.266 . S
O86 C83 1.252 . S
O87 In78 2.326 . S
O87 C83 1.260 . S
C88 O79 1.240 . S
C88 O80 1.252 . S
O89 In78 2.294 . S
O89 C82 1.240 . S
O90 In78 2.326 . S
O90 C82 1.252 . S
In91 O92 2.292 1_455 S
In91 O93 2.329 . S
In91 O97 2.260 1_455 S
In91 O98 2.324 1_455 S
In91 O99 2.268 . S
In91 O100 2.321 1_455 S
In91 O102 2.301 . S
In91 O103 2.329 . S
O92 In91 2.292 1_655 S
O92 C101 1.240 1_655 S
O93 In91 2.329 . S
O93 C101 1.252 . S
C94 O97 1.252 . S
C94 O98 1.260 . S
C95 O102 1.240 . S
C95 O103 1.252 . S
C96 O99 1.252 1_655 S
C96 O100 1.260 . S
O97 In91 2.260 1_655 S
O97 C94 1.252 . S
O98 In91 2.324 1_655 S
O98 C94 1.260 . S
O99 In91 2.268 . S
O99 C96 1.252 1_455 S
O100 In91 2.321 1_655 S
O100 C96 1.260 . S
C101 O92 1.240 1_455 S
C101 O93 1.252 . S
O102 In91 2.301 . S
O102 C95 1.240 . S
O103 In91 2.329 . S
O103 C95 1.252 . S
In104 O105 2.294 . S
In104 O106 2.326 . S
In104 O110 2.266 . S
In104 O111 2.326 . S
In104 O112 2.266 . S
In104 O113 2.326 . S
In104 O115 2.294 . S
In104 O116 2.326 . S
O105 In104 2.294 . S
O105 C114 1.240 . S
O106 In104 2.326 . S
O106 C114 1.252 . S
C107 O110 1.252 . S
C107 O111 1.260 . S
C108 O115 1.240 . S
C108 O116 1.252 . S
C109 O112 1.252 . S
C109 O113 1.260 . S
O110 In104 2.266 . S
O110 C107 1.252 . S
O111 In104 2.326 . S
O111 C107 1.260 . S
O112 In104 2.266 . S
O112 C109 1.252 . S
O113 In104 2.326 . S
O113 C109 1.260 . S
C114 O105 1.240 . S
C114 O106 1.252 . S
O115 In104 2.294 . S
O115 C108 1.240 . S
O116 In104 2.326 . S
O116 C108 1.252 . S
In117 O118 2.294 1_655 S
In117 O119 2.326 . S
In117 O123 2.266 1_655 S
In117 O124 2.326 1_655 S
In117 O125 2.266 . S
In117 O126 2.326 1_655 S
In117 O128 2.294 . S
In117 O129 2.326 . S
O118 In117 2.294 1_455 S
O118 C127 1.240 1_455 S
O119 In117 2.326 . S
O119 C127 1.252 . S
C120 O123 1.252 . S
C120 O124 1.260 . S
C121 O128 1.240 . S
C121 O129 1.252 . S
C122 O125 1.252 1_455 S
C122 O126 1.260 . S
O123 In117 2.266 1_455 S
O123 C120 1.252 . S
O124 In117 2.326 1_455 S
O124 C120 1.260 . S
O125 In117 2.266 . S
O125 C122 1.252 1_655 S
O126 In117 2.326 1_455 S
O126 C122 1.260 . S
C127 O118 1.240 1_655 S
C127 O119 1.252 . S
O128 In117 2.294 . S
O128 C121 1.240 . S
O129 In117 2.326 . S
O129 C121 1.252 . S
In130 O131 2.294 . S
In130 O132 2.326 . S
In130 O136 2.266 . S
In130 O137 2.326 . S
In130 O138 2.266 . S
In130 O139 2.326 . S
In130 O141 2.294 . S
In130 O142 2.326 . S
O131 In130 2.294 . S
O131 C140 1.240 . S
O132 In130 2.326 . S
O132 C140 1.252 . S
C133 O136 1.252 . S
C133 O137 1.260 . S
C134 O141 1.240 . S
C134 O142 1.252 . S
C135 O138 1.252 . S
C135 O139 1.260 . S
O136 In130 2.266 . S
O136 C133 1.252 . S
O137 In130 2.326 . S
O137 C133 1.260 . S
O138 In130 2.266 . S
O138 C135 1.252 . S
O139 In130 2.326 . S
O139 C135 1.260 . S
C140 O131 1.240 . S
C140 O132 1.252 . S
O141 In130 2.294 . S
O141 C134 1.240 . S
O142 In130 2.326 . S
O142 C134 1.252 . S
In143 O144 2.294 1_655 S
In143 O145 2.326 . S
In143 O149 2.266 1_655 S
In143 O150 2.326 1_655 S
In143 O151 2.266 . S
In143 O152 2.326 1_655 S
In143 O154 2.294 . S
In143 O155 2.326 . S
O144 In143 2.294 1_455 S
O144 C153 1.240 1_455 S
O145 In143 2.326 . S
O145 C153 1.252 . S
C146 O149 1.252 . S
C146 O150 1.260 . S
C147 O154 1.240 . S
C147 O155 1.252 . S
C148 O151 1.252 1_455 S
C148 O152 1.260 . S
O149 In143 2.266 1_455 S
O149 C146 1.252 . S
O150 In143 2.326 1_455 S
O150 C146 1.260 . S
O151 In143 2.266 . S
O151 C148 1.252 1_655 S
O152 In143 2.326 1_455 S
O152 C148 1.260 . S
C153 O144 1.240 1_655 S
C153 O145 1.252 . S
O154 In143 2.294 . S
O154 C147 1.240 . S
O155 In143 2.326 . S
O155 C147 1.252 . S
In156 O157 2.294 . S
In156 O158 2.326 . S
In156 O162 2.266 . S
In156 O163 2.326 . S
In156 O164 2.266 . S
In156 O165 2.326 . S
In156 O167 2.294 . S
In156 O168 2.326 . S
O157 In156 2.294 . S
O157 C166 1.240 . S
O158 In156 2.326 . S
O158 C166 1.252 . S
C159 O162 1.252 . S
C159 O163 1.260 . S
C160 O167 1.240 . S
C160 O168 1.252 . S
C161 O164 1.252 . S
C161 O165 1.260 . S
O162 In156 2.266 . S
O162 C159 1.252 . S
O163 In156 2.326 . S
O163 C159 1.260 . S
O164 In156 2.266 . S
O164 C161 1.252 . S
O165 In156 2.326 . S
O165 C161 1.260 . S
C166 O157 1.240 . S
C166 O158 1.252 . S
O167 In156 2.294 . S
O167 C160 1.240 . S
O168 In156 2.326 . S
O168 C160 1.252 . S
In169 O170 2.294 1_455 S
In169 O171 2.326 . S
In169 O175 2.266 1_455 S
In169 O176 2.326 1_455 S
In169 O177 2.266 . S
In169 O178 2.326 1_455 S
In169 O180 2.294 . S
In169 O181 2.326 . S
O170 In169 2.294 1_655 S
O170 C179 1.240 1_655 S
O171 In169 2.326 . S
O171 C179 1.252 . S
C172 O175 1.252 . S
C172 O176 1.260 . S
C173 O180 1.240 . S
C173 O181 1.252 . S
C174 O177 1.252 1_655 S
C174 O178 1.260 . S
O175 In169 2.266 1_655 S
O175 C172 1.252 . S
O176 In169 2.326 1_655 S
O176 C172 1.260 . S
O177 In169 2.266 . S
O177 C174 1.252 1_455 S
O178 In169 2.326 1_655 S
O178 C174 1.260 . S
C179 O170 1.240 1_455 S
C179 O171 1.252 . S
O180 In169 2.294 . S
O180 C173 1.240 . S
O181 In169 2.326 . S
O181 C173 1.252 . S
In182 O183 2.294 . S
In182 O184 2.326 . S
In182 O188 2.266 . S
In182 O189 2.326 . S
In182 O190 2.266 . S
In182 O191 2.326 . S
In182 O193 2.294 . S
In182 O194 2.326 . S
O183 In182 2.294 . S
O183 C192 1.240 . S
O184 In182 2.326 . S
O184 C192 1.252 . S
C185 O188 1.252 . S
C185 O189 1.260 . S
C186 O193 1.240 . S
C186 O194 1.252 . S
C187 O190 1.252 . S
C187 O191 1.260 . S
O188 In182 2.266 . S
O188 C185 1.252 . S
O189 In182 2.326 . S
O189 C185 1.260 . S
O190 In182 2.266 . S
O190 C187 1.252 . S
O191 In182 2.326 . S
O191 C187 1.260 . S
C192 O183 1.240 . S
C192 O184 1.252 . S
O193 In182 2.294 . S
O193 C186 1.240 . S
O194 In182 2.326 . S
O194 C186 1.252 . S
In195 O196 2.294 . S
In195 O197 2.326 . S
In195 O201 2.266 . S
In195 O202 2.326 1_455 S
In195 O203 2.266 1_455 S
In195 O204 2.326 1_455 S
In195 O206 2.294 1_455 S
In195 O207 2.326 . S
O196 In195 2.294 . S
O196 C205 1.240 . S
O197 In195 2.326 . S
O197 C205 1.252 . S
C198 O201 1.252 1_655 S
C198 O202 1.260 . S
C199 O206 1.240 1_455 S
C199 O207 1.252 . S
C200 O203 1.252 . S
C200 O204 1.260 . S
O201 In195 2.266 . S
O201 C198 1.252 1_455 S
O202 In195 2.326 1_655 S
O202 C198 1.260 . S
O203 In195 2.266 1_655 S
O203 C200 1.252 . S
O204 In195 2.326 1_655 S
O204 C200 1.260 . S
C205 O196 1.240 . S
C205 O197 1.252 . S
O206 In195 2.294 1_655 S
O206 C199 1.240 1_655 S
O207 In195 2.326 . S
O207 C199 1.252 . S
In208 O209 2.294 . S
In208 O210 2.326 . S
In208 O214 2.266 . S
In208 O215 2.326 . S
In208 O216 2.266 . S
In208 O217 2.326 . S
In208 O219 2.294 . S
In208 O220 2.326 . S
O209 In208 2.294 . S
O209 C218 1.240 . S
O210 In208 2.326 . S
O210 C218 1.252 . S
C211 O214 1.252 . S
C211 O215 1.260 . S
C212 O219 1.240 . S
C212 O220 1.252 . S
C213 O216 1.252 . S
C213 O217 1.260 . S
O214 In208 2.266 . S
O214 C211 1.252 . S
O215 In208 2.326 . S
O215 C211 1.260 . S
O216 In208 2.266 . S
O216 C213 1.252 . S
O217 In208 2.326 . S
O217 C213 1.260 . S
C218 O209 1.240 . S
C218 O210 1.252 . S
O219 In208 2.294 . S
O219 C212 1.240 . S
O220 In208 2.326 . S
O220 C212 1.252 . S
In221 O222 2.294 . S
In221 O223 2.326 . S
In221 O227 2.266 . S
In221 O228 2.326 . S
In221 O229 2.266 . S
In221 O230 2.326 . S
In221 O232 2.294 . S
In221 O233 2.326 . S
O222 In221 2.294 . S
O222 C231 1.240 . S
O223 In221 2.326 . S
O223 C231 1.252 . S
C224 O227 1.252 . S
C224 O228 1.260 . S
C225 O232 1.240 . S
C225 O233 1.252 . S
C226 O229 1.252 . S
C226 O230 1.260 . S
O227 In221 2.266 . S
O227 C224 1.252 . S
O228 In221 2.326 . S
O228 C224 1.260 . S
O229 In221 2.266 . S
O229 C226 1.252 . S
O230 In221 2.326 . S
O230 C226 1.260 . S
C231 O222 1.240 . S
C231 O223 1.252 . S
O232 In221 2.294 . S
O232 C225 1.240 . S
O233 In221 2.326 . S
O233 C225 1.252 . S
In234 O235 2.294 . S
In234 O236 2.326 . S
In234 O240 2.266 . S
In234 O241 2.326 . S
In234 O242 2.266 . S
In234 O243 2.326 . S
In234 O245 2.294 . S
In234 O246 2.326 . S
O235 In234 2.294 . S
O235 C244 1.240 . S
O236 In234 2.326 . S
O236 C244 1.252 . S
C237 O240 1.252 . S
C237 O241 1.260 . S
C238 O245 1.240 . S
C238 O246 1.252 . S
C239 O242 1.252 . S
C239 O243 1.260 . S
O240 In234 2.266 . S
O240 C237 1.252 . S
O241 In234 2.326 . S
O241 C237 1.260 . S
O242 In234 2.266 . S
O242 C239 1.252 . S
O243 In234 2.326 . S
O243 C239 1.260 . S
C244 O235 1.240 . S
C244 O236 1.252 . S
O245 In234 2.294 . S
O245 C238 1.240 . S
O246 In234 2.326 . S
O246 C238 1.252 . S
In247 O248 2.294 . S
In247 O249 2.326 . S
In247 O253 2.266 . S
In247 O254 2.326 . S
In247 O255 2.266 . S
In247 O256 2.326 . S
In247 O258 2.294 . S
In247 O259 2.326 . S
O248 In247 2.294 . S
O248 C257 1.240 . S
O249 In247 2.326 . S
O249 C257 1.252 . S
C250 O253 1.252 . S
C250 O254 1.260 . S
C251 O258 1.240 . S
C251 O259 1.252 . S
C252 O255 1.252 . S
C252 O256 1.260 . S
O253 In247 2.266 . S
O253 C250 1.252 . S
O254 In247 2.326 . S
O254 C250 1.260 . S
O255 In247 2.266 . S
O255 C252 1.252 . S
O256 In247 2.326 . S
O256 C252 1.260 . S
C257 O248 1.240 . S
C257 O249 1.252 . S
O258 In247 2.294 . S
O258 C251 1.240 . S
O259 In247 2.326 . S
O259 C251 1.252 . S
In260 O261 2.294 . S
In260 O262 2.326 . S
In260 O266 2.266 . S
In260 O267 2.326 . S
In260 O268 2.266 . S
In260 O269 2.326 . S
In260 O271 2.294 . S
In260 O272 2.326 . S
O261 In260 2.294 . S
O261 C270 1.240 . S
O262 In260 2.326 . S
O262 C270 1.252 . S
C263 O266 1.252 . S
C263 O267 1.260 . S
C264 O271 1.240 . S
C264 O272 1.252 . S
C265 O268 1.252 . S
C265 O269 1.260 . S
O266 In260 2.266 . S
O266 C263 1.252 . S
O267 In260 2.326 . S
O267 C263 1.260 . S
O268 In260 2.266 . S
O268 C265 1.252 . S
O269 In260 2.326 . S
O269 C265 1.260 . S
C270 O261 1.240 . S
C270 O262 1.252 . S
O271 In260 2.294 . S
O271 C264 1.240 . S
O272 In260 2.326 . S
O272 C264 1.252 . S
In273 O274 2.294 . S
In273 O275 2.326 . S
In273 O279 2.266 . S
In273 O280 2.326 . S
In273 O281 2.266 . S
In273 O282 2.326 . S
In273 O284 2.294 . S
In273 O285 2.326 . S
O274 In273 2.294 . S
O274 C283 1.240 . S
O275 In273 2.326 . S
O275 C283 1.252 . S
C276 O279 1.252 . S
C276 O280 1.260 . S
C277 O284 1.240 . S
C277 O285 1.252 . S
C278 O281 1.252 . S
C278 O282 1.260 . S
O279 In273 2.266 . S
O279 C276 1.252 . S
O280 In273 2.326 . S
O280 C276 1.260 . S
O281 In273 2.266 . S
O281 C278 1.252 . S
O282 In273 2.326 . S
O282 C278 1.260 . S
C283 O274 1.240 . S
C283 O275 1.252 . S
O284 In273 2.294 . S
O284 C277 1.240 . S
O285 In273 2.326 . S
O285 C277 1.252 . S
In286 O287 2.294 . S
In286 O288 2.326 . S
In286 O292 2.266 . S
In286 O293 2.326 . S
In286 O294 2.266 . S
In286 O295 2.326 . S
In286 O297 2.294 . S
In286 O298 2.326 . S
O287 In286 2.294 . S
O287 C296 1.240 . S
O288 In286 2.326 . S
O288 C296 1.252 . S
C289 O292 1.252 . S
C289 O293 1.260 . S
C290 O297 1.240 . S
C290 O298 1.252 . S
C291 O294 1.252 . S
C291 O295 1.260 . S
O292 In286 2.266 . S
O292 C289 1.252 . S
O293 In286 2.326 . S
O293 C289 1.260 . S
O294 In286 2.266 . S
O294 C291 1.252 . S
O295 In286 2.326 . S
O295 C291 1.260 . S
C296 O287 1.240 . S
C296 O288 1.252 . S
O297 In286 2.294 . S
O297 C290 1.240 . S
O298 In286 2.326 . S
O298 C290 1.252 . S
In299 O300 2.294 . S
In299 O301 2.326 . S
In299 O305 2.266 . S
In299 O306 2.326 . S
In299 O307 2.266 . S
In299 O308 2.326 . S
In299 O310 2.294 . S
In299 O311 2.326 . S
O300 In299 2.294 . S
O300 C309 1.240 . S
O301 In299 2.326 . S
O301 C309 1.252 . S
C302 O305 1.252 . S
C302 O306 1.260 . S
C303 O310 1.240 . S
C303 O311 1.252 . S
C304 O307 1.252 . S
C304 O308 1.260 . S
O305 In299 2.266 . S
O305 C302 1.252 . S
O306 In299 2.326 . S
O306 C302 1.260 . S
O307 In299 2.266 . S
O307 C304 1.252 . S
O308 In299 2.326 . S
O308 C304 1.260 . S
C309 O300 1.240 . S
C309 O301 1.252 . S
O310 In299 2.294 . S
O310 C303 1.240 . S
O311 In299 2.326 . S
O311 C303 1.252 . S
In312 O313 2.293 . S
In312 O314 2.326 1_554 S
In312 O318 2.265 . S
In312 O319 2.326 1_554 S
In312 O320 2.265 . S
In312 O321 2.323 . S
In312 O323 2.296 1_554 S
In312 O324 2.329 1_554 S
O313 In312 2.293 . S
O313 C322 1.240 . S
O314 In312 2.326 1_556 S
O314 C322 1.246 1_556 S
C315 O318 1.252 . S
C315 O319 1.260 1_554 S
C316 O323 1.240 . S
C316 O324 1.252 . S
C317 O320 1.252 . S
C317 O321 1.260 . S
O318 In312 2.265 . S
O318 C315 1.252 . S
O319 In312 2.326 1_556 S
O319 C315 1.260 1_556 S
O320 In312 2.265 . S
O320 C317 1.252 . S
O321 In312 2.323 . S
O321 C317 1.260 . S
C322 O313 1.240 . S
C322 O314 1.246 1_554 S
O323 In312 2.296 1_556 S
O323 C316 1.240 . S
O324 In312 2.329 1_556 S
O324 C316 1.252 . S
In325 O326 2.296 1_554 S
In325 O327 2.329 1_554 S
In325 O331 2.265 . S
In325 O332 2.323 . S
In325 O333 2.265 . S
In325 O334 2.326 1_554 S
In325 O336 2.293 . S
In325 O337 2.326 1_554 S
O326 In325 2.296 1_556 S
O326 C335 1.240 . S
O327 In325 2.329 1_556 S
O327 C335 1.252 . S
C328 O331 1.252 . S
C328 O332 1.260 . S
C329 O336 1.240 . S
C329 O337 1.246 1_554 S
C330 O333 1.252 . S
C330 O334 1.260 1_554 S
O331 In325 2.265 . S
O331 C328 1.252 . S
O332 In325 2.323 . S
O332 C328 1.260 . S
O333 In325 2.265 . S
O333 C330 1.252 . S
O334 In325 2.326 1_556 S
O334 C330 1.260 1_556 S
C335 O326 1.240 . S
C335 O327 1.252 . S
O336 In325 2.293 . S
O336 C329 1.240 . S
O337 In325 2.326 1_556 S
O337 C329 1.246 1_556 S
In338 O339 2.294 . S
In338 O340 2.326 . S
In338 O344 2.266 . S
In338 O345 2.326 . S
In338 O346 2.266 . S
In338 O347 2.326 . S
In338 O349 2.294 . S
In338 O350 2.326 . S
O339 In338 2.294 . S
O339 C348 1.240 . S
O340 In338 2.326 . S
O340 C348 1.252 . S
C341 O344 1.252 . S
C341 O345 1.260 . S
C342 O349 1.240 . S
C342 O350 1.252 . S
C343 O346 1.252 . S
C343 O347 1.260 . S
O344 In338 2.266 . S
O344 C341 1.252 . S
O345 In338 2.326 . S
O345 C341 1.260 . S
O346 In338 2.266 . S
O346 C343 1.252 . S
O347 In338 2.326 . S
O347 C343 1.260 . S
C348 O339 1.240 . S
C348 O340 1.252 . S
O349 In338 2.294 . S
O349 C342 1.240 . S
O350 In338 2.326 . S
O350 C342 1.252 . S
In351 O352 2.294 . S
In351 O353 2.326 . S
In351 O357 2.266 . S
In351 O358 2.326 . S
In351 O359 2.266 . S
In351 O360 2.326 . S
In351 O362 2.294 . S
In351 O363 2.326 . S
O352 In351 2.294 . S
O352 C361 1.240 . S
O353 In351 2.326 . S
O353 C361 1.252 . S
C354 O357 1.252 . S
C354 O358 1.260 . S
C355 O362 1.240 . S
C355 O363 1.252 . S
C356 O359 1.252 . S
C356 O360 1.260 . S
O357 In351 2.266 . S
O357 C354 1.252 . S
O358 In351 2.326 . S
O358 C354 1.260 . S
O359 In351 2.266 . S
O359 C356 1.252 . S
O360 In351 2.326 . S
O360 C356 1.260 . S
C361 O352 1.240 . S
C361 O353 1.252 . S
O362 In351 2.294 . S
O362 C355 1.240 . S
O363 In351 2.326 . S
O363 C355 1.252 . S
In364 O365 2.296 1_556 S
In364 O366 2.329 1_556 S
In364 O370 2.265 . S
In364 O371 2.323 . S
In364 O372 2.265 . S
In364 O373 2.326 1_556 S
In364 O375 2.293 . S
In364 O376 2.326 1_556 S
O365 In364 2.296 1_554 S
O365 C374 1.240 . S
O366 In364 2.329 1_554 S
O366 C374 1.252 . S
C367 O370 1.252 . S
C367 O371 1.260 . S
C368 O375 1.240 . S
C368 O376 1.246 1_556 S
C369 O372 1.252 . S
C369 O373 1.260 1_556 S
O370 In364 2.265 . S
O370 C367 1.252 . S
O371 In364 2.323 . S
O371 C367 1.260 . S
O372 In364 2.265 . S
O372 C369 1.252 . S
O373 In364 2.326 1_554 S
O373 C369 1.260 1_554 S
C374 O365 1.240 . S
C374 O366 1.252 . S
O375 In364 2.293 . S
O375 C368 1.240 . S
O376 In364 2.326 1_554 S
O376 C368 1.246 1_554 S
In377 O378 2.293 . S
In377 O379 2.326 1_556 S
In377 O383 2.265 . S
In377 O384 2.326 1_556 S
In377 O385 2.265 . S
In377 O386 2.323 . S
In377 O388 2.296 1_556 S
In377 O389 2.329 1_556 S
O378 In377 2.293 . S
O378 C387 1.240 . S
O379 In377 2.326 1_554 S
O379 C387 1.246 1_554 S
C380 O383 1.252 . S
C380 O384 1.260 1_556 S
C381 O388 1.240 . S
C381 O389 1.252 . S
C382 O385 1.252 . S
C382 O386 1.260 . S
O383 In377 2.265 . S
O383 C380 1.252 . S
O384 In377 2.326 1_554 S
O384 C380 1.260 1_554 S
O385 In377 2.265 . S
O385 C382 1.252 . S
O386 In377 2.323 . S
O386 C382 1.260 . S
C387 O378 1.240 . S
C387 O379 1.246 1_556 S
O388 In377 2.296 1_554 S
O388 C381 1.240 . S
O389 In377 2.329 1_554 S
O389 C381 1.252 . S
In390 O391 2.294 . S
In390 O392 2.326 . S
In390 O396 2.266 . S
In390 O397 2.326 . S
In390 O398 2.266 . S
In390 O399 2.326 . S
In390 O401 2.294 . S
In390 O402 2.326 . S
O391 In390 2.294 . S
O391 C400 1.240 . S
O392 In390 2.326 . S
O392 C400 1.252 . S
C393 O396 1.252 . S
C393 O397 1.260 . S
C394 O401 1.240 . S
C394 O402 1.252 . S
C395 O398 1.252 . S
C395 O399 1.260 . S
O396 In390 2.266 . S
O396 C393 1.252 . S
O397 In390 2.326 . S
O397 C393 1.260 . S
O398 In390 2.266 . S
O398 C395 1.252 . S
O399 In390 2.326 . S
O399 C395 1.260 . S
C400 O391 1.240 . S
C400 O392 1.252 . S
O401 In390 2.294 . S
O401 C394 1.240 . S
O402 In390 2.326 . S
O402 C394 1.252 . S
In403 O404 2.294 . S
In403 O405 2.326 . S
In403 O409 2.266 . S
In403 O410 2.326 . S
In403 O411 2.266 . S
In403 O412 2.326 . S
In403 O414 2.294 . S
In403 O415 2.326 . S
O404 In403 2.294 . S
O404 C413 1.240 . S
O405 In403 2.326 . S
O405 C413 1.252 . S
C406 O409 1.252 . S
C406 O410 1.260 . S
C407 O414 1.240 . S
C407 O415 1.252 . S
C408 O411 1.252 . S
C408 O412 1.260 . S
O409 In403 2.266 . S
O409 C406 1.252 . S
O410 In403 2.326 . S
O410 C406 1.260 . S
O411 In403 2.266 . S
O411 C408 1.252 . S
O412 In403 2.326 . S
O412 C408 1.260 . S
C413 O404 1.240 . S
C413 O405 1.252 . S
O414 In403 2.294 . S
O414 C407 1.240 . S
O415 In403 2.326 . S
O415 C407 1.252 . S
C416 C417 1.349 . S
C416 C418 1.327 . S
C416 H441 0.950 . S
C417 C416 1.349 . S
C417 C433 1.349 . S
C418 C416 1.327 . S
C418 C437 1.429 . S
C418 H442 0.950 . S
C419 C436 1.574 . S
C419 C438 1.368 . S
C419 H443 0.949 . S
H420 C424 0.949 . S
C421 C422 1.349 . S
C421 C423 1.327 . S
C421 H444 0.950 . S
C422 C421 1.349 . S
C422 C434 1.349 . S
C423 C421 1.327 . S
C423 C439 1.429 . S
C423 H445 0.950 . S
C424 H420 0.949 . S
C424 C432 1.574 . S
C424 C440 1.368 . S
H425 C433 0.950 . S
H426 C431 0.950 . S
H427 C432 0.949 . S
H428 C434 0.950 . S
H429 C435 0.950 . S
H430 C436 0.949 . S
C431 H426 0.950 . S
C431 C433 1.327 . S
C431 C437 1.429 . S
C432 C424 1.574 . S
C432 H427 0.949 . S
C432 C438 1.368 . S
C433 C417 1.349 . S
C433 H425 0.950 . S
C433 C431 1.327 . S
C434 C422 1.349 . S
C434 H428 0.950 . S
C434 C435 1.327 . S
C435 H429 0.950 . S
C435 C434 1.327 . S
C435 C439 1.429 . S
C436 C419 1.574 . S
C436 H430 0.949 . S
C436 C440 1.368 . S
C437 C418 1.429 . S
C437 C431 1.429 . S
C437 C438 1.523 . S
C438 C419 1.368 . S
C438 C432 1.368 . S
C438 C437 1.523 . S
C439 C423 1.429 . S
C439 C435 1.429 . S
C439 C440 1.523 . S
C440 C424 1.368 . S
C440 C436 1.368 . S
C440 C439 1.523 . S
H441 C416 0.950 . S
H442 C418 0.950 . S
H443 C419 0.949 . S
H444 C421 0.950 . S
H445 C423 0.950 . S
C446 C447 1.349 . S
C446 C448 1.327 . S
C446 H471 0.950 . S
C447 C446 1.349 . S
C447 C463 1.349 . S
C448 C446 1.327 . S
C448 C467 1.429 . S
C448 H472 0.950 . S
C449 C466 1.574 . S
C449 C468 1.368 . S
C449 H473 0.949 . S
H450 C454 0.949 . S
C451 C452 1.349 . S
C451 C453 1.327 . S
C451 H474 0.950 . S
C452 C451 1.349 . S
C452 C464 1.349 . S
C453 C451 1.327 . S
C453 C469 1.429 . S
C453 H475 0.950 . S
C454 H450 0.949 . S
C454 C462 1.574 . S
C454 C470 1.368 . S
H455 C463 0.950 . S
H456 C461 0.950 . S
H457 C462 0.949 . S
H458 C464 0.950 . S
H459 C465 0.950 . S
H460 C466 0.949 . S
C461 H456 0.950 . S
C461 C463 1.327 . S
C461 C467 1.429 . S
C462 C454 1.574 . S
C462 H457 0.949 . S
C462 C468 1.368 . S
C463 C447 1.349 . S
C463 H455 0.950 . S
C463 C461 1.327 . S
C464 C452 1.349 . S
C464 H458 0.950 . S
C464 C465 1.327 . S
C465 H459 0.950 . S
C465 C464 1.327 . S
C465 C469 1.429 . S
C466 C449 1.574 . S
C466 H460 0.949 . S
C466 C470 1.368 . S
C467 C448 1.429 . S
C467 C461 1.429 . S
C467 C468 1.523 . S
C468 C449 1.368 . S
C468 C462 1.368 . S
C468 C467 1.523 . S
C469 C453 1.429 . S
C469 C465 1.429 . S
C469 C470 1.523 . S
C470 C454 1.368 . S
C470 C466 1.368 . S
C470 C469 1.523 . S
H471 C446 0.950 . S
H472 C448 0.950 . S
H473 C449 0.949 . S
H474 C451 0.950 . S
H475 C453 0.950 . S
C476 C477 1.349 . S
C476 C478 1.327 . S
C476 H501 0.950 . S
C477 C476 1.349 . S
C477 C493 1.349 . S
C478 C476 1.327 . S
C478 C497 1.429 . S
C478 H502 0.950 . S
C479 C496 1.574 . S
C479 C498 1.368 . S
C479 H503 0.949 . S
H480 C484 0.949 . S
C481 C482 1.349 . S
C481 C483 1.327 . S
C481 H504 0.950 . S
C482 C481 1.349 . S
C482 C494 1.349 . S
C483 C481 1.327 . S
C483 C499 1.429 . S
C483 H505 0.950 . S
C484 H480 0.949 . S
C484 C492 1.574 . S
C484 C500 1.368 . S
H485 C493 0.950 . S
H486 C491 0.950 . S
H487 C492 0.949 . S
H488 C494 0.950 . S
H489 C495 0.950 . S
H490 C496 0.949 . S
C491 H486 0.950 . S
C491 C493 1.327 . S
C491 C497 1.429 . S
C492 C484 1.574 . S
C492 H487 0.949 . S
C492 C498 1.368 . S
C493 C477 1.349 . S
C493 H485 0.950 . S
C493 C491 1.327 . S
C494 C482 1.349 . S
C494 H488 0.950 . S
C494 C495 1.327 . S
C495 H489 0.950 . S
C495 C494 1.327 . S
C495 C499 1.429 . S
C496 C479 1.574 . S
C496 H490 0.949 . S
C496 C500 1.368 . S
C497 C478 1.429 . S
C497 C491 1.429 . S
C497 C498 1.523 . S
C498 C479 1.368 . S
C498 C492 1.368 . S
C498 C497 1.523 . S
C499 C483 1.429 . S
C499 C495 1.429 . S
C499 C500 1.523 . S
C500 C484 1.368 . S
C500 C496 1.368 . S
C500 C499 1.523 . S
H501 C476 0.950 . S
H502 C478 0.950 . S
H503 C479 0.949 . S
H504 C481 0.950 . S
H505 C483 0.950 . S
C506 C507 1.349 . S
C506 C508 1.327 . S
C506 H531 0.950 . S
C507 C506 1.349 . S
C507 C523 1.349 . S
C508 C506 1.327 . S
C508 C527 1.429 . S
C508 H532 0.950 . S
C509 C526 1.574 . S
C509 C528 1.368 . S
C509 H533 0.949 . S
H510 C514 0.949 . S
C511 C512 1.349 . S
C511 C513 1.327 . S
C511 H534 0.950 . S
C512 C511 1.349 . S
C512 C524 1.349 . S
C513 C511 1.327 . S
C513 C529 1.429 . S
C513 H535 0.950 . S
C514 H510 0.949 . S
C514 C522 1.574 . S
C514 C530 1.368 . S
H515 C523 0.950 . S
H516 C521 0.950 . S
H517 C522 0.949 . S
H518 C524 0.950 . S
H519 C525 0.950 . S
H520 C526 0.949 . S
C521 H516 0.950 . S
C521 C523 1.327 . S
C521 C527 1.429 . S
C522 C514 1.574 . S
C522 H517 0.949 . S
C522 C528 1.368 . S
C523 C507 1.349 . S
C523 H515 0.950 . S
C523 C521 1.327 . S
C524 C512 1.349 . S
C524 H518 0.950 . S
C524 C525 1.327 . S
C525 H519 0.950 . S
C525 C524 1.327 . S
C525 C529 1.429 . S
C526 C509 1.574 . S
C526 H520 0.949 . S
C526 C530 1.368 . S
C527 C508 1.429 . S
C527 C521 1.429 . S
C527 C528 1.523 . S
C528 C509 1.368 . S
C528 C522 1.368 . S
C528 C527 1.523 . S
C529 C513 1.429 . S
C529 C525 1.429 . S
C529 C530 1.523 . S
C530 C514 1.368 . S
C530 C526 1.368 . S
C530 C529 1.523 . S
H531 C506 0.950 . S
H532 C508 0.950 . S
H533 C509 0.949 . S
H534 C511 0.950 . S
H535 C513 0.950 . S
C536 C537 1.349 . S
C536 C538 1.327 . S
C536 H561 0.950 . S
C537 C536 1.349 . S
C537 C553 1.349 . S
C538 C536 1.327 . S
C538 C557 1.429 . S
C538 H562 0.950 . S
C539 C556 1.574 . S
C539 C558 1.368 . S
C539 H563 0.949 . S
H540 C544 0.949 . S
C541 C542 1.349 . S
C541 C543 1.327 . S
C541 H564 0.950 . S
C542 C541 1.349 . S
C542 C554 1.349 . S
C543 C541 1.327 . S
C543 C559 1.429 . S
C543 H565 0.950 . S
C544 H540 0.949 . S
C544 C552 1.574 . S
C544 C560 1.368 . S
H545 C553 0.950 . S
H546 C551 0.950 . S
H547 C552 0.949 . S
H548 C554 0.950 . S
H549 C555 0.950 . S
H550 C556 0.949 . S
C551 H546 0.950 . S
C551 C553 1.327 . S
C551 C557 1.429 . S
C552 C544 1.574 . S
C552 H547 0.949 . S
C552 C558 1.368 . S
C553 C537 1.349 . S
C553 H545 0.950 . S
C553 C551 1.327 . S
C554 C542 1.349 . S
C554 H548 0.950 . S
C554 C555 1.327 . S
C555 H549 0.950 . S
C555 C554 1.327 . S
C555 C559 1.429 . S
C556 C539 1.574 . S
C556 H550 0.949 . S
C556 C560 1.368 . S
C557 C538 1.429 . S
C557 C551 1.429 . S
C557 C558 1.523 . S
C558 C539 1.368 . S
C558 C552 1.368 . S
C558 C557 1.523 . S
C559 C543 1.429 . S
C559 C555 1.429 . S
C559 C560 1.523 . S
C560 C544 1.368 . S
C560 C556 1.368 . S
C560 C559 1.523 . S
H561 C536 0.950 . S
H562 C538 0.950 . S
H563 C539 0.949 . S
H564 C541 0.950 . S
H565 C543 0.950 . S
C566 C567 1.349 . S
C566 C568 1.327 . S
C566 H591 0.950 . S
C567 C566 1.349 . S
C567 C583 1.349 . S
C568 C566 1.327 . S
C568 C587 1.429 . S
C568 H592 0.950 . S
C569 C586 1.574 . S
C569 C588 1.368 . S
C569 H593 0.949 . S
H570 C574 0.949 . S
C571 C572 1.349 . S
C571 C573 1.327 . S
C571 H594 0.950 . S
C572 C571 1.349 . S
C572 C584 1.349 . S
C573 C571 1.327 . S
C573 C589 1.429 . S
C573 H595 0.950 . S
C574 H570 0.949 . S
C574 C582 1.574 . S
C574 C590 1.368 . S
H575 C583 0.950 . S
H576 C581 0.950 . S
H577 C582 0.949 . S
H578 C584 0.950 . S
H579 C585 0.950 . S
H580 C586 0.949 . S
C581 H576 0.950 . S
C581 C583 1.327 . S
C581 C587 1.429 . S
C582 C574 1.574 . S
C582 H577 0.949 . S
C582 C588 1.368 . S
C583 C567 1.349 . S
C583 H575 0.950 . S
C583 C581 1.327 . S
C584 C572 1.349 . S
C584 H578 0.950 . S
C584 C585 1.327 . S
C585 H579 0.950 . S
C585 C584 1.327 . S
C585 C589 1.429 . S
C586 C569 1.574 . S
C586 H580 0.949 . S
C586 C590 1.368 . S
C587 C568 1.429 . S
C587 C581 1.429 . S
C587 C588 1.523 . S
C588 C569 1.368 . S
C588 C582 1.368 . S
C588 C587 1.523 . S
C589 C573 1.429 . S
C589 C585 1.429 . S
C589 C590 1.523 . S
C590 C574 1.368 . S
C590 C586 1.368 . S
C590 C589 1.523 . S
H591 C566 0.950 . S
H592 C568 0.950 . S
H593 C569 0.949 . S
H594 C571 0.950 . S
H595 C573 0.950 . S
C596 C597 1.349 . S
C596 C598 1.327 . S
C596 H621 0.950 . S
C597 C596 1.349 . S
C597 C613 1.349 . S
C598 C596 1.327 . S
C598 C617 1.429 . S
C598 H622 0.950 . S
C599 C616 1.574 . S
C599 C618 1.368 . S
C599 H623 0.949 . S
H600 C604 0.949 . S
C601 C602 1.349 . S
C601 C603 1.327 . S
C601 H624 0.950 . S
C602 C601 1.349 . S
C602 C614 1.349 . S
C603 C601 1.327 . S
C603 C619 1.429 . S
C603 H625 0.950 . S
C604 H600 0.949 . S
C604 C612 1.574 . S
C604 C620 1.368 . S
H605 C613 0.950 . S
H606 C611 0.950 . S
H607 C612 0.949 . S
H608 C614 0.950 . S
H609 C615 0.950 . S
H610 C616 0.949 . S
C611 H606 0.950 . S
C611 C613 1.327 . S
C611 C617 1.429 . S
C612 C604 1.574 . S
C612 H607 0.949 . S
C612 C618 1.368 . S
C613 C597 1.349 . S
C613 H605 0.950 . S
C613 C611 1.327 . S
C614 C602 1.349 . S
C614 H608 0.950 . S
C614 C615 1.327 . S
C615 H609 0.950 . S
C615 C614 1.327 . S
C615 C619 1.429 . S
C616 C599 1.574 . S
C616 H610 0.949 . S
C616 C620 1.368 . S
C617 C598 1.429 . S
C617 C611 1.429 . S
C617 C618 1.523 . S
C618 C599 1.368 . S
C618 C612 1.368 . S
C618 C617 1.523 . S
C619 C603 1.429 . S
C619 C615 1.429 . S
C619 C620 1.523 . S
C620 C604 1.368 . S
C620 C616 1.368 . S
C620 C619 1.523 . S
H621 C596 0.950 . S
H622 C598 0.950 . S
H623 C599 0.949 . S
H624 C601 0.950 . S
H625 C603 0.950 . S
C626 C627 1.349 . S
C626 C628 1.327 . S
C626 H651 0.950 . S
C627 C626 1.349 . S
C627 C643 1.349 . S
C628 C626 1.327 . S
C628 C647 1.429 . S
C628 H652 0.950 . S
C629 C646 1.574 . S
C629 C648 1.368 . S
C629 H653 0.949 . S
H630 C634 0.949 . S
C631 C632 1.349 . S
C631 C633 1.327 . S
C631 H654 0.950 . S
C632 C631 1.349 . S
C632 C644 1.349 . S
C633 C631 1.327 . S
C633 C649 1.429 . S
C633 H655 0.950 . S
C634 H630 0.949 . S
C634 C642 1.574 . S
C634 C650 1.368 . S
H635 C643 0.950 . S
H636 C641 0.950 . S
H637 C642 0.949 . S
H638 C644 0.950 . S
H639 C645 0.950 . S
H640 C646 0.949 . S
C641 H636 0.950 . S
C641 C643 1.327 . S
C641 C647 1.429 . S
C642 C634 1.574 . S
C642 H637 0.949 . S
C642 C648 1.368 . S
C643 C627 1.349 . S
C643 H635 0.950 . S
C643 C641 1.327 . S
C644 C632 1.349 . S
C644 H638 0.950 . S
C644 C645 1.327 . S
C645 H639 0.950 . S
C645 C644 1.327 . S
C645 C649 1.429 . S
C646 C629 1.574 . S
C646 H640 0.949 . S
C646 C650 1.368 . S
C647 C628 1.429 . S
C647 C641 1.429 . S
C647 C648 1.523 . S
C648 C629 1.368 . S
C648 C642 1.368 . S
C648 C647 1.523 . S
C649 C633 1.429 . S
C649 C645 1.429 . S
C649 C650 1.523 . S
C650 C634 1.368 . S
C650 C646 1.368 . S
C650 C649 1.523 . S
H651 C626 0.950 . S
H652 C628 0.950 . S
H653 C629 0.949 . S
H654 C631 0.950 . S
H655 C633 0.950 . S
C656 C657 1.349 . S
C656 C658 1.327 . S
C656 H681 0.950 . S
C657 C656 1.349 . S
C657 C673 1.349 . S
C658 C656 1.327 . S
C658 C677 1.429 . S
C658 H682 0.950 . S
C659 C676 1.574 . S
C659 C678 1.368 . S
C659 H683 0.949 . S
H660 C664 0.949 . S
C661 C662 1.349 . S
C661 C663 1.327 . S
C661 H684 0.950 . S
C662 C661 1.349 . S
C662 C674 1.349 . S
C663 C661 1.327 . S
C663 C679 1.429 . S
C663 H685 0.950 . S
C664 H660 0.949 . S
C664 C672 1.574 . S
C664 C680 1.368 . S
H665 C673 0.950 . S
H666 C671 0.950 . S
H667 C672 0.949 . S
H668 C674 0.950 . S
H669 C675 0.950 . S
H670 C676 0.949 . S
C671 H666 0.950 . S
C671 C673 1.327 . S
C671 C677 1.429 . S
C672 C664 1.574 . S
C672 H667 0.949 . S
C672 C678 1.368 . S
C673 C657 1.349 . S
C673 H665 0.950 . S
C673 C671 1.327 . S
C674 C662 1.349 . S
C674 H668 0.950 . S
C674 C675 1.327 . S
C675 H669 0.950 . S
C675 C674 1.327 . S
C675 C679 1.429 . S
C676 C659 1.574 . S
C676 H670 0.949 . S
C676 C680 1.368 . S
C677 C658 1.429 . S
C677 C671 1.429 . S
C677 C678 1.523 . S
C678 C659 1.368 . S
C678 C672 1.368 . S
C678 C677 1.523 . S
C679 C663 1.429 . S
C679 C675 1.429 . S
C679 C680 1.523 . S
C680 C664 1.368 . S
C680 C676 1.368 . S
C680 C679 1.523 . S
H681 C656 0.950 . S
H682 C658 0.950 . S
H683 C659 0.949 . S
H684 C661 0.950 . S
H685 C663 0.950 . S
C686 C687 1.349 . S
C686 C688 1.327 . S
C686 H711 0.950 . S
C687 C686 1.349 . S
C687 C703 1.349 . S
C688 C686 1.327 . S
C688 C707 1.429 . S
C688 H712 0.950 . S
C689 C706 1.574 . S
C689 C708 1.368 . S
C689 H713 0.949 . S
H690 C694 0.949 . S
C691 C692 1.349 . S
C691 C693 1.327 . S
C691 H714 0.950 . S
C692 C691 1.349 . S
C692 C704 1.349 . S
C693 C691 1.327 . S
C693 C709 1.429 . S
C693 H715 0.950 . S
C694 H690 0.949 . S
C694 C702 1.574 . S
C694 C710 1.368 . S
H695 C703 0.950 . S
H696 C701 0.950 . S
H697 C702 0.949 . S
H698 C704 0.950 . S
H699 C705 0.950 . S
H700 C706 0.949 . S
C701 H696 0.950 . S
C701 C703 1.327 . S
C701 C707 1.429 . S
C702 C694 1.574 . S
C702 H697 0.949 . S
C702 C708 1.368 . S
C703 C687 1.349 . S
C703 H695 0.950 . S
C703 C701 1.327 . S
C704 C692 1.349 . S
C704 H698 0.950 . S
C704 C705 1.327 . S
C705 H699 0.950 . S
C705 C704 1.327 . S
C705 C709 1.429 . S
C706 C689 1.574 . S
C706 H700 0.949 . S
C706 C710 1.368 . S
C707 C688 1.429 . S
C707 C701 1.429 . S
C707 C708 1.523 . S
C708 C689 1.368 . S
C708 C702 1.368 . S
C708 C707 1.523 . S
C709 C693 1.429 . S
C709 C705 1.429 . S
C709 C710 1.523 . S
C710 C694 1.368 . S
C710 C706 1.368 . S
C710 C709 1.523 . S
H711 C686 0.950 . S
H712 C688 0.950 . S
H713 C689 0.949 . S
H714 C691 0.950 . S
H715 C693 0.950 . S
C716 C717 1.349 . S
C716 C718 1.327 . S
C716 H741 0.950 . S
C717 C716 1.349 . S
C717 C733 1.349 . S
C718 C716 1.327 . S
C718 C737 1.429 . S
C718 H742 0.950 . S
C719 C736 1.574 . S
C719 C738 1.368 . S
C719 H743 0.949 . S
H720 C724 0.949 . S
C721 C722 1.349 . S
C721 C723 1.327 . S
C721 H744 0.950 . S
C722 C721 1.349 . S
C722 C734 1.349 . S
C723 C721 1.327 . S
C723 C739 1.429 . S
C723 H745 0.950 . S
C724 H720 0.949 . S
C724 C732 1.574 . S
C724 C740 1.368 . S
H725 C733 0.950 . S
H726 C731 0.950 . S
H727 C732 0.949 . S
H728 C734 0.950 . S
H729 C735 0.950 . S
H730 C736 0.949 . S
C731 H726 0.950 . S
C731 C733 1.327 . S
C731 C737 1.429 . S
C732 C724 1.574 . S
C732 H727 0.949 . S
C732 C738 1.368 . S
C733 C717 1.349 . S
C733 H725 0.950 . S
C733 C731 1.327 . S
C734 C722 1.349 . S
C734 H728 0.950 . S
C734 C735 1.327 . S
C735 H729 0.950 . S
C735 C734 1.327 . S
C735 C739 1.429 . S
C736 C719 1.574 . S
C736 H730 0.949 . S
C736 C740 1.368 . S
C737 C718 1.429 . S
C737 C731 1.429 . S
C737 C738 1.523 . S
C738 C719 1.368 . S
C738 C732 1.368 . S
C738 C737 1.523 . S
C739 C723 1.429 . S
C739 C735 1.429 . S
C739 C740 1.523 . S
C740 C724 1.368 . S
C740 C736 1.368 . S
C740 C739 1.523 . S
H741 C716 0.950 . S
H742 C718 0.950 . S
H743 C719 0.949 . S
H744 C721 0.950 . S
H745 C723 0.950 . S
C746 C747 1.349 . S
C746 C748 1.327 . S
C746 H771 0.950 . S
C747 C746 1.349 . S
C747 C763 1.349 . S
C748 C746 1.327 . S
C748 C767 1.429 . S
C748 H772 0.950 . S
C749 C766 1.574 . S
C749 C768 1.368 . S
C749 H773 0.949 . S
H750 C754 0.949 . S
C751 C752 1.349 . S
C751 C753 1.327 . S
C751 H774 0.950 . S
C752 C751 1.349 . S
C752 C764 1.349 . S
C753 C751 1.327 . S
C753 C769 1.429 . S
C753 H775 0.950 . S
C754 H750 0.949 . S
C754 C762 1.574 . S
C754 C770 1.368 . S
H755 C763 0.950 . S
H756 C761 0.950 . S
H757 C762 0.949 . S
H758 C764 0.950 . S
H759 C765 0.950 . S
H760 C766 0.949 . S
C761 H756 0.950 . S
C761 C763 1.327 . S
C761 C767 1.429 . S
C762 C754 1.574 . S
C762 H757 0.949 . S
C762 C768 1.368 . S
C763 C747 1.349 . S
C763 H755 0.950 . S
C763 C761 1.327 . S
C764 C752 1.349 . S
C764 H758 0.950 . S
C764 C765 1.327 . S
C765 H759 0.950 . S
C765 C764 1.327 . S
C765 C769 1.429 . S
C766 C749 1.574 . S
C766 H760 0.949 . S
C766 C770 1.368 . S
C767 C748 1.429 . S
C767 C761 1.429 . S
C767 C768 1.523 . S
C768 C749 1.368 . S
C768 C762 1.368 . S
C768 C767 1.523 . S
C769 C753 1.429 . S
C769 C765 1.429 . S
C769 C770 1.523 . S
C770 C754 1.368 . S
C770 C766 1.368 . S
C770 C769 1.523 . S
H771 C746 0.950 . S
H772 C748 0.950 . S
H773 C749 0.949 . S
H774 C751 0.950 . S
H775 C753 0.950 . S
C776 C777 1.349 . S
C776 C778 1.327 . S
C776 H801 0.950 . S
C777 C776 1.349 . S
C777 C793 1.349 . S
C778 C776 1.327 . S
C778 C797 1.429 . S
C778 H802 0.950 . S
C779 C796 1.574 . S
C779 C798 1.368 . S
C779 H803 0.949 . S
H780 C784 0.949 . S
C781 C782 1.349 . S
C781 C783 1.327 . S
C781 H804 0.950 . S
C782 C781 1.349 . S
C782 C794 1.349 . S
C783 C781 1.327 . S
C783 C799 1.429 . S
C783 H805 0.950 . S
C784 H780 0.949 . S
C784 C792 1.574 . S
C784 C800 1.368 . S
H785 C793 0.950 . S
H786 C791 0.950 . S
H787 C792 0.949 . S
H788 C794 0.950 . S
H789 C795 0.950 . S
H790 C796 0.949 . S
C791 H786 0.950 . S
C791 C793 1.327 . S
C791 C797 1.429 . S
C792 C784 1.574 . S
C792 H787 0.949 . S
C792 C798 1.368 . S
C793 C777 1.349 . S
C793 H785 0.950 . S
C793 C791 1.327 . S
C794 C782 1.349 . S
C794 H788 0.950 . S
C794 C795 1.327 . S
C795 H789 0.950 . S
C795 C794 1.327 . S
C795 C799 1.429 . S
C796 C779 1.574 . S
C796 H790 0.949 . S
C796 C800 1.368 . S
C797 C778 1.429 . S
C797 C791 1.429 . S
C797 C798 1.523 . S
C798 C779 1.368 . S
C798 C792 1.368 . S
C798 C797 1.523 . S
C799 C783 1.429 . S
C799 C795 1.429 . S
C799 C800 1.523 . S
C800 C784 1.368 . S
C800 C796 1.368 . S
C800 C799 1.523 . S
H801 C776 0.950 . S
H802 C778 0.950 . S
H803 C779 0.949 . S
H804 C781 0.950 . S
H805 C783 0.950 . S
C806 C807 1.349 . S
C806 C808 1.327 . S
C806 H831 0.950 . S
C807 C806 1.349 . S
C807 C823 1.349 . S
C808 C806 1.327 . S
C808 C827 1.429 . S
C808 H832 0.950 . S
C809 C826 1.574 . S
C809 C828 1.368 . S
C809 H833 0.949 . S
H810 C814 0.949 . S
C811 C812 1.349 . S
C811 C813 1.327 . S
C811 H834 0.950 . S
C812 C811 1.349 . S
C812 C824 1.349 . S
C813 C811 1.327 . S
C813 C829 1.429 . S
C813 H835 0.950 . S
C814 H810 0.949 . S
C814 C822 1.574 . S
C814 C830 1.368 . S
H815 C823 0.950 . S
H816 C821 0.950 . S
H817 C822 0.949 . S
H818 C824 0.950 . S
H819 C825 0.950 . S
H820 C826 0.949 . S
C821 H816 0.950 . S
C821 C823 1.327 . S
C821 C827 1.429 . S
C822 C814 1.574 . S
C822 H817 0.949 . S
C822 C828 1.368 . S
C823 C807 1.349 . S
C823 H815 0.950 . S
C823 C821 1.327 . S
C824 C812 1.349 . S
C824 H818 0.950 . S
C824 C825 1.327 . S
C825 H819 0.950 . S
C825 C824 1.327 . S
C825 C829 1.429 . S
C826 C809 1.574 . S
C826 H820 0.949 . S
C826 C830 1.368 . S
C827 C808 1.429 . S
C827 C821 1.429 . S
C827 C828 1.523 . S
C828 C809 1.368 . S
C828 C822 1.368 . S
C828 C827 1.523 . S
C829 C813 1.429 . S
C829 C825 1.429 . S
C829 C830 1.523 . S
C830 C814 1.368 . S
C830 C826 1.368 . S
C830 C829 1.523 . S
H831 C806 0.950 . S
H832 C808 0.950 . S
H833 C809 0.949 . S
H834 C811 0.950 . S
H835 C813 0.950 . S
C836 C837 1.349 . S
C836 C838 1.327 . S
C836 H861 0.950 . S
C837 C836 1.349 . S
C837 C853 1.349 . S
C838 C836 1.327 . S
C838 C857 1.429 . S
C838 H862 0.950 . S
C839 C856 1.574 . S
C839 C858 1.368 . S
C839 H863 0.949 . S
H840 C844 0.949 . S
C841 C842 1.349 . S
C841 C843 1.327 . S
C841 H864 0.950 . S
C842 C841 1.349 . S
C842 C854 1.349 . S
C843 C841 1.327 . S
C843 C859 1.429 . S
C843 H865 0.950 . S
C844 H840 0.949 . S
C844 C852 1.574 . S
C844 C860 1.368 . S
H845 C853 0.950 . S
H846 C851 0.950 . S
H847 C852 0.949 . S
H848 C854 0.950 . S
H849 C855 0.950 . S
H850 C856 0.949 . S
C851 H846 0.950 . S
C851 C853 1.327 . S
C851 C857 1.429 . S
C852 C844 1.574 . S
C852 H847 0.949 . S
C852 C858 1.368 . S
C853 C837 1.349 . S
C853 H845 0.950 . S
C853 C851 1.327 . S
C854 C842 1.349 . S
C854 H848 0.950 . S
C854 C855 1.327 . S
C855 H849 0.950 . S
C855 C854 1.327 . S
C855 C859 1.429 . S
C856 C839 1.574 . S
C856 H850 0.949 . S
C856 C860 1.368 . S
C857 C838 1.429 . S
C857 C851 1.429 . S
C857 C858 1.523 . S
C858 C839 1.368 . S
C858 C852 1.368 . S
C858 C857 1.523 . S
C859 C843 1.429 . S
C859 C855 1.429 . S
C859 C860 1.523 . S
C860 C844 1.368 . S
C860 C856 1.368 . S
C860 C859 1.523 . S
H861 C836 0.950 . S
H862 C838 0.950 . S
H863 C839 0.949 . S
H864 C841 0.950 . S
H865 C843 0.950 . S
C866 C867 1.349 . S
C866 C868 1.327 . S
C866 H891 0.950 . S
C867 C866 1.349 . S
C867 C883 1.349 . S
C868 C866 1.327 . S
C868 C887 1.429 . S
C868 H892 0.950 . S
C869 C886 1.574 . S
C869 C888 1.368 . S
C869 H893 0.949 . S
H870 C874 0.949 . S
C871 C872 1.349 . S
C871 C873 1.327 . S
C871 H894 0.950 . S
C872 C871 1.349 . S
C872 C884 1.349 . S
C873 C871 1.327 . S
C873 C889 1.429 . S
C873 H895 0.950 . S
C874 H870 0.949 . S
C874 C882 1.574 . S
C874 C890 1.368 . S
H875 C883 0.950 . S
H876 C881 0.950 . S
H877 C882 0.949 . S
H878 C884 0.950 . S
H879 C885 0.950 . S
H880 C886 0.949 . S
C881 H876 0.950 . S
C881 C883 1.327 . S
C881 C887 1.429 . S
C882 C874 1.574 . S
C882 H877 0.949 . S
C882 C888 1.368 . S
C883 C867 1.349 . S
C883 H875 0.950 . S
C883 C881 1.327 . S
C884 C872 1.349 . S
C884 H878 0.950 . S
C884 C885 1.327 . S
C885 H879 0.950 . S
C885 C884 1.327 . S
C885 C889 1.429 . S
C886 C869 1.574 . S
C886 H880 0.949 . S
C886 C890 1.368 . S
C887 C868 1.429 . S
C887 C881 1.429 . S
C887 C888 1.523 . S
C888 C869 1.368 . S
C888 C882 1.368 . S
C888 C887 1.523 . S
C889 C873 1.429 . S
C889 C885 1.429 . S
C889 C890 1.523 . S
C890 C874 1.368 . S
C890 C886 1.368 . S
C890 C889 1.523 . S
H891 C866 0.950 . S
H892 C868 0.950 . S
H893 C869 0.949 . S
H894 C871 0.950 . S
H895 C873 0.950 . S
C896 C897 1.349 1_556 S
C896 C898 1.327 . S
C896 H921 0.950 . S
C897 C896 1.349 1_554 S
C897 C913 1.349 . S
C898 C896 1.327 . S
C898 C917 1.429 1_556 S
C898 H922 0.950 . S
C899 C916 1.553 1_545 S
C899 C918 1.388 . S
C899 H923 0.948 . S
H900 C904 0.948 . S
C901 C902 1.349 1_554 S
C901 C903 1.327 . S
C901 H924 0.950 . S
C902 C901 1.349 1_556 S
C902 C914 1.349 . S
C903 C901 1.327 . S
C903 C919 1.429 1_554 S
C903 H925 0.950 . S
C904 H900 0.948 . S
C904 C912 1.553 1_565 S
C904 C920 1.388 . S
H905 C913 0.950 . S
H906 C911 0.950 . S
H907 C912 0.949 . S
H908 C914 0.950 . S
H909 C915 0.950 . S
H910 C916 0.949 . S
C911 H906 0.950 . S
C911 C913 1.327 . S
C911 C917 1.429 . S
C912 C904 1.553 1_545 S
C912 H907 0.949 . S
C912 C918 1.368 1_556 S
C913 C897 1.349 . S
C913 H905 0.950 . S
C913 C911 1.327 . S
C914 C902 1.349 . S
C914 H908 0.950 . S
C914 C915 1.327 . S
C915 H909 0.950 . S
C915 C914 1.327 . S
C915 C919 1.429 . S
C916 C899 1.553 1_565 S
C916 H910 0.949 . S
C916 C920 1.368 1_554 S
C917 C898 1.429 1_554 S
C917 C911 1.429 . S
C917 C918 1.523 . S
C918 C899 1.388 . S
C918 C912 1.368 1_554 S
C918 C917 1.523 . S
C919 C903 1.429 1_556 S
C919 C915 1.429 . S
C919 C920 1.523 . S
C920 C904 1.388 . S
C920 C916 1.368 1_556 S
C920 C919 1.523 . S
H921 C896 0.950 . S
H922 C898 0.950 . S
H923 C899 0.948 . S
H924 C901 0.950 . S
H925 C903 0.950 . S
C926 C927 1.349 . S
C926 C928 1.327 . S
C926 H951 0.950 . S
C927 C926 1.349 . S
C927 C943 1.349 1_556 S
C928 C926 1.327 . S
C928 C947 1.429 . S
C928 H952 0.950 . S
C929 C946 1.574 . S
C929 C948 1.368 1_554 S
C929 H953 0.949 . S
H930 C934 0.949 . S
C931 C932 1.349 . S
C931 C933 1.327 . S
C931 H954 0.950 . S
C932 C931 1.349 . S
C932 C944 1.349 1_554 S
C933 C931 1.327 . S
C933 C949 1.429 . S
C933 H955 0.950 . S
C934 H930 0.949 . S
C934 C942 1.574 . S
C934 C950 1.368 1_556 S
H935 C943 0.950 . S
H936 C941 0.950 . S
H937 C942 0.949 . S
H938 C944 0.950 . S
H939 C945 0.950 . S
H940 C946 0.949 . S
C941 H936 0.950 . S
C941 C943 1.327 . S
C941 C947 1.429 1_554 S
C942 C934 1.574 . S
C942 H937 0.949 . S
C942 C948 1.368 . S
C943 C927 1.349 1_554 S
C943 H935 0.950 . S
C943 C941 1.327 . S
C944 C932 1.349 1_556 S
C944 H938 0.950 . S
C944 C945 1.327 . S
C945 H939 0.950 . S
C945 C944 1.327 . S
C945 C949 1.429 1_556 S
C946 C929 1.574 . S
C946 H940 0.949 . S
C946 C950 1.368 . S
C947 C928 1.429 . S
C947 C941 1.429 1_556 S
C947 C948 1.523 . S
C948 C929 1.368 1_556 S
C948 C942 1.368 . S
C948 C947 1.523 . S
C949 C933 1.429 . S
C949 C945 1.429 1_554 S
C949 C950 1.523 . S
C950 C934 1.368 1_554 S
C950 C946 1.368 . S
C950 C949 1.523 . S
H951 C926 0.950 . S
H952 C928 0.950 . S
H953 C929 0.949 . S
H954 C931 0.950 . S
H955 C933 0.950 . S
C956 C957 1.349 . S
C956 C958 1.327 . S
C956 H981 0.950 . S
C957 C956 1.349 . S
C957 C973 1.349 . S
C958 C956 1.327 . S
C958 C977 1.429 . S
C958 H982 0.950 . S
C959 C976 1.574 . S
C959 C978 1.368 . S
C959 H983 0.949 . S
H960 C964 0.949 . S
C961 C962 1.349 . S
C961 C963 1.327 . S
C961 H984 0.950 . S
C962 C961 1.349 . S
C962 C974 1.349 . S
C963 C961 1.327 . S
C963 C979 1.429 . S
C963 H985 0.950 . S
C964 H960 0.949 . S
C964 C972 1.574 . S
C964 C980 1.368 . S
H965 C973 0.950 . S
H966 C971 0.950 . S
H967 C972 0.949 . S
H968 C974 0.950 . S
H969 C975 0.950 . S
H970 C976 0.949 . S
C971 H966 0.950 . S
C971 C973 1.327 . S
C971 C977 1.429 . S
C972 C964 1.574 . S
C972 H967 0.949 . S
C972 C978 1.368 . S
C973 C957 1.349 . S
C973 H965 0.950 . S
C973 C971 1.327 . S
C974 C962 1.349 . S
C974 H968 0.950 . S
C974 C975 1.327 . S
C975 H969 0.950 . S
C975 C974 1.327 . S
C975 C979 1.429 . S
C976 C959 1.574 . S
C976 H970 0.949 . S
C976 C980 1.368 . S
C977 C958 1.429 . S
C977 C971 1.429 . S
C977 C978 1.523 . S
C978 C959 1.368 . S
C978 C972 1.368 . S
C978 C977 1.523 . S
C979 C963 1.429 . S
C979 C975 1.429 . S
C979 C980 1.523 . S
C980 C964 1.368 . S
C980 C976 1.368 . S
C980 C979 1.523 . S
H981 C956 0.950 . S
H982 C958 0.950 . S
H983 C959 0.949 . S
H984 C961 0.950 . S
H985 C963 0.950 . S
C986 C987 1.349 . S
C986 C988 1.327 . S
C986 H1011 0.950 . S
C987 C986 1.349 . S
C987 C1003 1.349 . S
C988 C986 1.327 . S
C988 C1007 1.429 . S
C988 H1012 0.950 . S
C989 C1006 1.574 1_565 S
C989 C1008 1.368 . S
C989 H1013 0.949 . S
H990 C994 0.958 . S
C991 C992 1.349 . S
C991 C993 1.327 . S
C991 H1014 0.950 . S
C992 C991 1.349 . S
C992 C1004 1.349 . S
C993 C991 1.327 . S
C993 C1009 1.429 . S
C993 H1015 0.950 . S
C994 H990 0.958 . S
C994 C1002 1.523 1_545 S
C994 C1010 1.413 . S
H995 C1003 0.950 . S
H996 C1001 0.950 . S
H997 C1002 0.949 . S
H998 C1004 0.950 . S
H999 C1005 0.950 . S
H1000 C1006 0.949 . S
C1001 H996 0.950 . S
C1001 C1003 1.327 . S
C1001 C1007 1.429 . S
C1002 C994 1.523 1_565 S
C1002 H997 0.949 . S
C1002 C1008 1.368 . S
C1003 C987 1.349 . S
C1003 H995 0.950 . S
C1003 C1001 1.327 . S
C1004 C992 1.349 . S
C1004 H998 0.950 . S
C1004 C1005 1.327 . S
C1005 H999 0.950 . S
C1005 C1004 1.327 . S
C1005 C1009 1.429 . S
C1006 C989 1.574 1_545 S
C1006 H1000 0.949 . S
C1006 C1010 1.368 . S
C1007 C988 1.429 . S
C1007 C1001 1.429 . S
C1007 C1008 1.523 . S
C1008 C989 1.368 . S
C1008 C1002 1.368 . S
C1008 C1007 1.523 . S
C1009 C993 1.429 . S
C1009 C1005 1.429 . S
C1009 C1010 1.523 . S
C1010 C994 1.413 . S
C1010 C1006 1.368 . S
C1010 C1009 1.523 . S
H1011 C986 0.950 . S
H1012 C988 0.950 . S
H1013 C989 0.949 . S
H1014 C991 0.950 . S
H1015 C993 0.950 . S
C1016 C1017 1.349 1_556 S
C1016 C1018 1.327 . S
C1016 H1041 0.950 . S
C1017 C1016 1.349 1_554 S
C1017 C1033 1.349 . S
C1018 C1016 1.327 . S
C1018 C1037 1.429 1_556 S
C1018 H1042 0.950 . S
C1019 C1036 1.574 . S
C1019 C1038 1.368 . S
C1019 H1043 0.949 . S
H1020 C1024 0.949 . S
C1021 C1022 1.349 1_554 S
C1021 C1023 1.327 . S
C1021 H1044 0.950 . S
C1022 C1021 1.349 1_556 S
C1022 C1034 1.349 . S
C1023 C1021 1.327 . S
C1023 C1039 1.429 1_554 S
C1023 H1045 0.950 . S
C1024 H1020 0.949 . S
C1024 C1032 1.574 . S
C1024 C1040 1.368 . S
H1025 C1033 0.950 . S
H1026 C1031 0.950 . S
H1027 C1032 0.949 . S
H1028 C1034 0.950 . S
H1029 C1035 0.950 . S
H1030 C1036 0.949 . S
C1031 H1026 0.950 . S
C1031 C1033 1.327 . S
C1031 C1037 1.429 . S
C1032 C1024 1.574 . S
C1032 H1027 0.949 . S
C1032 C1038 1.368 1_556 S
C1033 C1017 1.349 . S
C1033 H1025 0.950 . S
C1033 C1031 1.327 . S
C1034 C1022 1.349 . S
C1034 H1028 0.950 . S
C1034 C1035 1.327 . S
C1035 H1029 0.950 . S
C1035 C1034 1.327 . S
C1035 C1039 1.429 . S
C1036 C1019 1.574 . S
C1036 H1030 0.949 . S
C1036 C1040 1.368 1_554 S
C1037 C1018 1.429 1_554 S
C1037 C1031 1.429 . S
C1037 C1038 1.523 . S
C1038 C1019 1.368 . S
C1038 C1032 1.368 1_554 S
C1038 C1037 1.523 . S
C1039 C1023 1.429 1_556 S
C1039 C1035 1.429 . S
C1039 C1040 1.523 . S
C1040 C1024 1.368 . S
C1040 C1036 1.368 1_556 S
C1040 C1039 1.523 . S
H1041 C1016 0.950 . S
H1042 C1018 0.950 . S
H1043 C1019 0.949 . S
H1044 C1021 0.950 . S
H1045 C1023 0.950 . S
C1046 C1047 1.349 . S
C1046 C1048 1.327 . S
C1046 H1071 0.950 . S
C1047 C1046 1.349 . S
C1047 C1063 1.349 . S
C1048 C1046 1.327 . S
C1048 C1067 1.429 . S
C1048 H1072 0.950 . S
C1049 C1066 1.574 . S
C1049 C1068 1.368 . S
C1049 H1073 0.949 . S
H1050 C1054 0.949 . S
C1051 C1052 1.349 . S
C1051 C1053 1.327 . S
C1051 H1074 0.950 . S
C1052 C1051 1.349 . S
C1052 C1064 1.349 . S
C1053 C1051 1.327 . S
C1053 C1069 1.429 . S
C1053 H1075 0.950 . S
C1054 H1050 0.949 . S
C1054 C1062 1.574 . S
C1054 C1070 1.368 . S
H1055 C1063 0.950 . S
H1056 C1061 0.950 . S
H1057 C1062 0.949 . S
H1058 C1064 0.950 . S
H1059 C1065 0.950 . S
H1060 C1066 0.949 . S
C1061 H1056 0.950 . S
C1061 C1063 1.327 . S
C1061 C1067 1.429 . S
C1062 C1054 1.574 . S
C1062 H1057 0.949 . S
C1062 C1068 1.368 . S
C1063 C1047 1.349 . S
C1063 H1055 0.950 . S
C1063 C1061 1.327 . S
C1064 C1052 1.349 . S
C1064 H1058 0.950 . S
C1064 C1065 1.327 . S
C1065 H1059 0.950 . S
C1065 C1064 1.327 . S
C1065 C1069 1.429 . S
C1066 C1049 1.574 . S
C1066 H1060 0.949 . S
C1066 C1070 1.368 . S
C1067 C1048 1.429 . S
C1067 C1061 1.429 . S
C1067 C1068 1.523 . S
C1068 C1049 1.368 . S
C1068 C1062 1.368 . S
C1068 C1067 1.523 . S
C1069 C1053 1.429 . S
C1069 C1065 1.429 . S
C1069 C1070 1.523 . S
C1070 C1054 1.368 . S
C1070 C1066 1.368 . S
C1070 C1069 1.523 . S
H1071 C1046 0.950 . S
H1072 C1048 0.950 . S
H1073 C1049 0.949 . S
H1074 C1051 0.950 . S
H1075 C1053 0.950 . S
C1076 C1077 1.349 . S
C1076 C1078 1.327 . S
C1076 H1101 0.950 . S
C1077 C1076 1.349 . S
C1077 C1093 1.349 . S
C1078 C1076 1.327 . S
C1078 C1097 1.429 . S
C1078 H1102 0.950 . S
C1079 C1096 1.574 1_565 S
C1079 C1098 1.368 . S
C1079 H1103 0.949 . S
H1080 C1084 0.949 . S
C1081 C1082 1.349 . S
C1081 C1083 1.327 . S
C1081 H1104 0.950 . S
C1082 C1081 1.349 . S
C1082 C1094 1.349 . S
C1083 C1081 1.327 . S
C1083 C1099 1.429 . S
C1083 H1105 0.950 . S
C1084 H1080 0.949 . S
C1084 C1092 1.574 1_545 S
C1084 C1100 1.368 . S
H1085 C1093 0.950 . S
H1086 C1091 0.950 . S
H1087 C1092 0.949 . S
H1088 C1094 0.950 . S
H1089 C1095 0.950 . S
H1090 C1096 0.949 . S
C1091 H1086 0.950 . S
C1091 C1093 1.327 . S
C1091 C1097 1.429 . S
C1092 C1084 1.574 1_565 S
C1092 H1087 0.949 . S
C1092 C1098 1.368 . S
C1093 C1077 1.349 . S
C1093 H1085 0.950 . S
C1093 C1091 1.327 . S
C1094 C1082 1.349 . S
C1094 H1088 0.950 . S
C1094 C1095 1.327 . S
C1095 H1089 0.950 . S
C1095 C1094 1.327 . S
C1095 C1099 1.429 . S
C1096 C1079 1.574 1_545 S
C1096 H1090 0.949 . S
C1096 C1100 1.368 . S
C1097 C1078 1.429 . S
C1097 C1091 1.429 . S
C1097 C1098 1.523 . S
C1098 C1079 1.368 . S
C1098 C1092 1.368 . S
C1098 C1097 1.523 . S
C1099 C1083 1.429 . S
C1099 C1095 1.429 . S
C1099 C1100 1.523 . S
C1100 C1084 1.368 . S
C1100 C1096 1.368 . S
C1100 C1099 1.523 . S
H1101 C1076 0.950 . S
H1102 C1078 0.950 . S
H1103 C1079 0.949 . S
H1104 C1081 0.950 . S
H1105 C1083 0.950 . S
C1106 C1107 1.349 . S
C1106 C1108 1.327 . S
C1106 H1131 0.950 . S
C1107 C1106 1.349 . S
C1107 C1123 1.349 . S
C1108 C1106 1.327 . S
C1108 C1127 1.429 . S
C1108 H1132 0.950 . S
C1109 C1126 1.574 . S
C1109 C1128 1.368 . S
C1109 H1133 0.949 . S
H1110 C1114 0.949 . S
C1111 C1112 1.349 . S
C1111 C1113 1.327 . S
C1111 H1134 0.950 . S
C1112 C1111 1.349 . S
C1112 C1124 1.349 . S
C1113 C1111 1.327 . S
C1113 C1129 1.429 . S
C1113 H1135 0.950 . S
C1114 H1110 0.949 . S
C1114 C1122 1.574 . S
C1114 C1130 1.368 . S
H1115 C1123 0.950 . S
H1116 C1121 0.950 . S
H1117 C1122 0.949 . S
H1118 C1124 0.950 . S
H1119 C1125 0.950 . S
H1120 C1126 0.949 . S
C1121 H1116 0.950 . S
C1121 C1123 1.327 . S
C1121 C1127 1.429 . S
C1122 C1114 1.574 . S
C1122 H1117 0.949 . S
C1122 C1128 1.368 . S
C1123 C1107 1.349 . S
C1123 H1115 0.950 . S
C1123 C1121 1.327 . S
C1124 C1112 1.349 . S
C1124 H1118 0.950 . S
C1124 C1125 1.327 . S
C1125 H1119 0.950 . S
C1125 C1124 1.327 . S
C1125 C1129 1.429 . S
C1126 C1109 1.574 . S
C1126 H1120 0.949 . S
C1126 C1130 1.368 . S
C1127 C1108 1.429 . S
C1127 C1121 1.429 . S
C1127 C1128 1.523 . S
C1128 C1109 1.368 . S
C1128 C1122 1.368 . S
C1128 C1127 1.523 . S
C1129 C1113 1.429 . S
C1129 C1125 1.429 . S
C1129 C1130 1.523 . S
C1130 C1114 1.368 . S
C1130 C1126 1.368 . S
C1130 C1129 1.523 . S
H1131 C1106 0.950 . S
H1132 C1108 0.950 . S
H1133 C1109 0.949 . S
H1134 C1111 0.950 . S
H1135 C1113 0.950 . S
C1136 C1137 1.349 . S
C1136 C1138 1.327 . S
C1136 H1161 0.950 . S
C1137 C1136 1.349 . S
C1137 C1153 1.349 . S
C1138 C1136 1.327 . S
C1138 C1157 1.429 . S
C1138 H1162 0.950 . S
C1139 C1156 1.574 . S
C1139 C1158 1.368 . S
C1139 H1163 0.949 . S
H1140 C1144 0.949 . S
C1141 C1142 1.349 . S
C1141 C1143 1.327 . S
C1141 H1164 0.950 . S
C1142 C1141 1.349 . S
C1142 C1154 1.349 . S
C1143 C1141 1.327 . S
C1143 C1159 1.429 . S
C1143 H1165 0.950 . S
C1144 H1140 0.949 . S
C1144 C1152 1.574 . S
C1144 C1160 1.368 . S
H1145 C1153 0.950 . S
H1146 C1151 0.950 . S
H1147 C1152 0.949 . S
H1148 C1154 0.950 . S
H1149 C1155 0.950 . S
H1150 C1156 0.949 . S
C1151 H1146 0.950 . S
C1151 C1153 1.327 . S
C1151 C1157 1.429 . S
C1152 C1144 1.574 . S
C1152 H1147 0.949 . S
C1152 C1158 1.368 . S
C1153 C1137 1.349 . S
C1153 H1145 0.950 . S
C1153 C1151 1.327 . S
C1154 C1142 1.349 . S
C1154 H1148 0.950 . S
C1154 C1155 1.327 . S
C1155 H1149 0.950 . S
C1155 C1154 1.327 . S
C1155 C1159 1.429 . S
C1156 C1139 1.574 . S
C1156 H1150 0.949 . S
C1156 C1160 1.368 . S
C1157 C1138 1.429 . S
C1157 C1151 1.429 . S
C1157 C1158 1.523 . S
C1158 C1139 1.368 . S
C1158 C1152 1.368 . S
C1158 C1157 1.523 . S
C1159 C1143 1.429 . S
C1159 C1155 1.429 . S
C1159 C1160 1.523 . S
C1160 C1144 1.368 . S
C1160 C1156 1.368 . S
C1160 C1159 1.523 . S
H1161 C1136 0.950 . S
H1162 C1138 0.950 . S
H1163 C1139 0.949 . S
H1164 C1141 0.950 . S
H1165 C1143 0.950 . S
C1166 C1167 1.349 . S
C1166 C1168 1.327 . S
C1166 H1191 0.950 . S
C1167 C1166 1.349 . S
C1167 C1183 1.349 . S
C1168 C1166 1.327 . S
C1168 C1187 1.429 . S
C1168 H1192 0.950 . S
C1169 C1186 1.574 . S
C1169 C1188 1.368 . S
C1169 H1193 0.949 . S
H1170 C1174 0.949 . S
C1171 C1172 1.349 . S
C1171 C1173 1.327 . S
C1171 H1194 0.950 . S
C1172 C1171 1.349 . S
C1172 C1184 1.349 . S
C1173 C1171 1.327 . S
C1173 C1189 1.429 . S
C1173 H1195 0.950 . S
C1174 H1170 0.949 . S
C1174 C1182 1.574 . S
C1174 C1190 1.368 . S
H1175 C1183 0.950 . S
H1176 C1181 0.950 . S
H1177 C1182 0.949 . S
H1178 C1184 0.950 . S
H1179 C1185 0.950 . S
H1180 C1186 0.949 . S
C1181 H1176 0.950 . S
C1181 C1183 1.327 . S
C1181 C1187 1.429 . S
C1182 C1174 1.574 . S
C1182 H1177 0.949 . S
C1182 C1188 1.368 . S
C1183 C1167 1.349 . S
C1183 H1175 0.950 . S
C1183 C1181 1.327 . S
C1184 C1172 1.349 . S
C1184 H1178 0.950 . S
C1184 C1185 1.327 . S
C1185 H1179 0.950 . S
C1185 C1184 1.327 . S
C1185 C1189 1.429 . S
C1186 C1169 1.574 . S
C1186 H1180 0.949 . S
C1186 C1190 1.368 . S
C1187 C1168 1.429 . S
C1187 C1181 1.429 . S
C1187 C1188 1.523 . S
C1188 C1169 1.368 . S
C1188 C1182 1.368 . S
C1188 C1187 1.523 . S
C1189 C1173 1.429 . S
C1189 C1185 1.429 . S
C1189 C1190 1.523 . S
C1190 C1174 1.368 . S
C1190 C1186 1.368 . S
C1190 C1189 1.523 . S
H1191 C1166 0.950 . S
H1192 C1168 0.950 . S
H1193 C1169 0.949 . S
H1194 C1171 0.950 . S
H1195 C1173 0.950 . S
C1196 C1197 1.349 . S
C1196 C1198 1.327 . S
C1196 H1221 0.950 . S
C1197 C1196 1.349 . S
C1197 C1213 1.349 . S
C1198 C1196 1.327 . S
C1198 C1217 1.429 . S
C1198 H1222 0.950 . S
C1199 C1216 1.574 . S
C1199 C1218 1.368 . S
C1199 H1223 0.949 . S
H1200 C1204 0.949 . S
C1201 C1202 1.349 . S
C1201 C1203 1.327 . S
C1201 H1224 0.950 . S
C1202 C1201 1.349 . S
C1202 C1214 1.349 . S
C1203 C1201 1.327 . S
C1203 C1219 1.429 . S
C1203 H1225 0.950 . S
C1204 H1200 0.949 . S
C1204 C1212 1.574 . S
C1204 C1220 1.368 . S
H1205 C1213 0.950 . S
H1206 C1211 0.950 . S
H1207 C1212 0.949 . S
H1208 C1214 0.950 . S
H1209 C1215 0.950 . S
H1210 C1216 0.949 . S
C1211 H1206 0.950 . S
C1211 C1213 1.327 . S
C1211 C1217 1.429 . S
C1212 C1204 1.574 . S
C1212 H1207 0.949 . S
C1212 C1218 1.368 . S
C1213 C1197 1.349 . S
C1213 H1205 0.950 . S
C1213 C1211 1.327 . S
C1214 C1202 1.349 . S
C1214 H1208 0.950 . S
C1214 C1215 1.327 . S
C1215 H1209 0.950 . S
C1215 C1214 1.327 . S
C1215 C1219 1.429 . S
C1216 C1199 1.574 . S
C1216 H1210 0.949 . S
C1216 C1220 1.368 . S
C1217 C1198 1.429 . S
C1217 C1211 1.429 . S
C1217 C1218 1.523 . S
C1218 C1199 1.368 . S
C1218 C1212 1.368 . S
C1218 C1217 1.523 . S
C1219 C1203 1.429 . S
C1219 C1215 1.429 . S
C1219 C1220 1.523 . S
C1220 C1204 1.368 . S
C1220 C1216 1.368 . S
C1220 C1219 1.523 . S
H1221 C1196 0.950 . S
H1222 C1198 0.950 . S
H1223 C1199 0.949 . S
H1224 C1201 0.950 . S
H1225 C1203 0.950 . S
C1226 C1227 1.349 . S
C1226 C1228 1.327 . S
C1226 H1251 0.950 . S
C1227 C1226 1.349 . S
C1227 C1243 1.349 . S
C1228 C1226 1.327 . S
C1228 C1247 1.429 . S
C1228 H1252 0.950 . S
C1229 C1246 1.574 . S
C1229 C1248 1.368 . S
C1229 H1253 0.949 . S
H1230 C1234 0.949 . S
C1231 C1232 1.349 . S
C1231 C1233 1.327 . S
C1231 H1254 0.950 . S
C1232 C1231 1.349 . S
C1232 C1244 1.349 . S
C1233 C1231 1.327 . S
C1233 C1249 1.429 . S
C1233 H1255 0.950 . S
C1234 H1230 0.949 . S
C1234 C1242 1.574 . S
C1234 C1250 1.368 . S
H1235 C1243 0.950 . S
H1236 C1241 0.950 . S
H1237 C1242 0.949 . S
H1238 C1244 0.950 . S
H1239 C1245 0.950 . S
H1240 C1246 0.949 . S
C1241 H1236 0.950 . S
C1241 C1243 1.327 . S
C1241 C1247 1.429 . S
C1242 C1234 1.574 . S
C1242 H1237 0.949 . S
C1242 C1248 1.368 . S
C1243 C1227 1.349 . S
C1243 H1235 0.950 . S
C1243 C1241 1.327 . S
C1244 C1232 1.349 . S
C1244 H1238 0.950 . S
C1244 C1245 1.327 . S
C1245 H1239 0.950 . S
C1245 C1244 1.327 . S
C1245 C1249 1.429 . S
C1246 C1229 1.574 . S
C1246 H1240 0.949 . S
C1246 C1250 1.368 . S
C1247 C1228 1.429 . S
C1247 C1241 1.429 . S
C1247 C1248 1.523 . S
C1248 C1229 1.368 . S
C1248 C1242 1.368 . S
C1248 C1247 1.523 . S
C1249 C1233 1.429 . S
C1249 C1245 1.429 . S
C1249 C1250 1.523 . S
C1250 C1234 1.368 . S
C1250 C1246 1.368 . S
C1250 C1249 1.523 . S
H1251 C1226 0.950 . S
H1252 C1228 0.950 . S
H1253 C1229 0.949 . S
H1254 C1231 0.950 . S
H1255 C1233 0.950 . S
C1256 C1257 1.349 . S
C1256 C1258 1.327 . S
C1256 H1281 0.950 . S
C1257 C1256 1.349 . S
C1257 C1273 1.349 . S
C1258 C1256 1.327 . S
C1258 C1277 1.429 . S
C1258 H1282 0.950 . S
C1259 C1276 1.495 1_565 S
C1259 C1278 1.438 . S
C1259 H1283 0.966 . S
H1260 C1264 0.966 . S
C1261 C1262 1.349 . S
C1261 C1263 1.327 . S
C1261 H1284 0.950 . S
C1262 C1261 1.349 . S
C1262 C1274 1.349 . S
C1263 C1261 1.327 . S
C1263 C1279 1.429 . S
C1263 H1285 0.950 . S
C1264 H1260 0.966 . S
C1264 C1272 1.495 1_545 S
C1264 C1280 1.438 . S
H1265 C1273 0.950 . S
H1266 C1271 0.950 . S
H1267 C1272 0.949 . S
H1268 C1274 0.950 . S
H1269 C1275 0.950 . S
H1270 C1276 0.949 . S
C1271 H1266 0.950 . S
C1271 C1273 1.327 . S
C1271 C1277 1.429 . S
C1272 C1264 1.495 1_565 S
C1272 H1267 0.949 . S
C1272 C1278 1.368 1_655 S
C1273 C1257 1.349 . S
C1273 H1265 0.950 . S
C1273 C1271 1.327 . S
C1274 C1262 1.349 . S
C1274 H1268 0.950 . S
C1274 C1275 1.327 . S
C1275 H1269 0.950 . S
C1275 C1274 1.327 . S
C1275 C1279 1.429 . S
C1276 C1259 1.495 1_545 S
C1276 H1270 0.949 . S
C1276 C1280 1.368 1_455 S
C1277 C1258 1.429 . S
C1277 C1271 1.429 . S
C1277 C1278 1.523 . S
C1278 C1259 1.438 . S
C1278 C1272 1.368 1_455 S
C1278 C1277 1.523 . S
C1279 C1263 1.429 . S
C1279 C1275 1.429 . S
C1279 C1280 1.523 . S
C1280 C1264 1.438 . S
C1280 C1276 1.368 1_655 S
C1280 C1279 1.523 . S
H1281 C1256 0.950 . S
H1282 C1258 0.950 . S
H1283 C1259 0.966 . S
H1284 C1261 0.950 . S
H1285 C1263 0.950 . S
C1286 C1287 1.349 . S
C1286 C1288 1.327 . S
C1286 H1311 0.950 . S
C1287 C1286 1.349 . S
C1287 C1303 1.349 . S
C1288 C1286 1.327 . S
C1288 C1307 1.429 . S
C1288 H1312 0.950 . S
C1289 C1306 1.574 . S
C1289 C1308 1.368 1_455 S
C1289 H1313 0.949 . S
H1290 C1294 0.949 . S
C1291 C1292 1.349 . S
C1291 C1293 1.327 . S
C1291 H1314 0.950 . S
C1292 C1291 1.349 . S
C1292 C1304 1.349 . S
C1293 C1291 1.327 . S
C1293 C1309 1.429 . S
C1293 H1315 0.950 . S
C1294 H1290 0.949 . S
C1294 C1302 1.574 . S
C1294 C1310 1.368 1_655 S
H1295 C1303 0.950 . S
H1296 C1301 0.950 . S
H1297 C1302 0.949 . S
H1298 C1304 0.950 . S
H1299 C1305 0.950 . S
H1300 C1306 0.949 . S
C1301 H1296 0.950 . S
C1301 C1303 1.327 . S
C1301 C1307 1.429 . S
C1302 C1294 1.574 . S
C1302 H1297 0.949 . S
C1302 C1308 1.368 . S
C1303 C1287 1.349 . S
C1303 H1295 0.950 . S
C1303 C1301 1.327 . S
C1304 C1292 1.349 . S
C1304 H1298 0.950 . S
C1304 C1305 1.327 . S
C1305 H1299 0.950 . S
C1305 C1304 1.327 . S
C1305 C1309 1.429 . S
C1306 C1289 1.574 . S
C1306 H1300 0.949 . S
C1306 C1310 1.368 . S
C1307 C1288 1.429 . S
C1307 C1301 1.429 . S
C1307 C1308 1.523 . S
C1308 C1289 1.368 1_655 S
C1308 C1302 1.368 . S
C1308 C1307 1.523 . S
C1309 C1293 1.429 . S
C1309 C1305 1.429 . S
C1309 C1310 1.523 . S
C1310 C1294 1.368 1_455 S
C1310 C1306 1.368 . S
C1310 C1309 1.523 . S
H1311 C1286 0.950 . S
H1312 C1288 0.950 . S
H1313 C1289 0.949 . S
H1314 C1291 0.950 . S
H1315 C1293 0.950 . S
C1316 C1317 1.349 . S
C1316 C1318 1.327 . S
C1316 H1341 0.950 . S
C1317 C1316 1.349 . S
C1317 C1333 1.349 . S
C1318 C1316 1.327 . S
C1318 C1337 1.429 . S
C1318 H1342 0.950 . S
C1319 C1336 1.574 . S
C1319 C1338 1.368 1_655 S
C1319 H1343 0.949 . S
H1320 C1324 0.949 . S
C1321 C1322 1.349 . S
C1321 C1323 1.327 . S
C1321 H1344 0.950 . S
C1322 C1321 1.349 . S
C1322 C1334 1.349 . S
C1323 C1321 1.327 . S
C1323 C1339 1.429 . S
C1323 H1345 0.950 . S
C1324 H1320 0.949 . S
C1324 C1332 1.574 . S
C1324 C1340 1.368 1_455 S
H1325 C1333 0.950 . S
H1326 C1331 0.950 . S
H1327 C1332 0.949 . S
H1328 C1334 0.950 . S
H1329 C1335 0.950 . S
H1330 C1336 0.949 . S
C1331 H1326 0.950 . S
C1331 C1333 1.327 . S
C1331 C1337 1.429 . S
C1332 C1324 1.574 . S
C1332 H1327 0.949 . S
C1332 C1338 1.368 . S
C1333 C1317 1.349 . S
C1333 H1325 0.950 . S
C1333 C1331 1.327 . S
C1334 C1322 1.349 . S
C1334 H1328 0.950 . S
C1334 C1335 1.327 . S
C1335 H1329 0.950 . S
C1335 C1334 1.327 . S
C1335 C1339 1.429 . S
C1336 C1319 1.574 . S
C1336 H1330 0.949 . S
C1336 C1340 1.368 . S
C1337 C1318 1.429 . S
C1337 C1331 1.429 . S
C1337 C1338 1.523 . S
C1338 C1319 1.368 1_455 S
C1338 C1332 1.368 . S
C1338 C1337 1.523 . S
C1339 C1323 1.429 . S
C1339 C1335 1.429 . S
C1339 C1340 1.523 . S
C1340 C1324 1.368 1_655 S
C1340 C1336 1.368 . S
C1340 C1339 1.523 . S
H1341 C1316 0.950 . S
H1342 C1318 0.950 . S
H1343 C1319 0.949 . S
H1344 C1321 0.950 . S
H1345 C1323 0.950 . S
C1346 C1347 1.349 . S
C1346 C1348 1.327 . S
C1346 H1371 0.950 . S
C1347 C1346 1.349 . S
C1347 C1363 1.349 1_556 S
C1348 C1346 1.327 . S
C1348 C1367 1.429 . S
C1348 H1372 0.950 . S
C1349 C1366 1.574 1_455 S
C1349 C1368 1.368 1_554 S
C1349 H1373 0.949 . S
H1350 C1354 0.949 . S
C1351 C1352 1.349 . S
C1351 C1353 1.327 . S
C1351 H1374 0.950 . S
C1352 C1351 1.349 . S
C1352 C1364 1.349 1_554 S
C1353 C1351 1.327 . S
C1353 C1369 1.429 . S
C1353 H1375 0.950 . S
C1354 H1350 0.949 . S
C1354 C1362 1.574 1_655 S
C1354 C1370 1.368 1_556 S
H1355 C1363 0.950 . S
H1356 C1361 0.950 . S
H1357 C1362 0.949 . S
H1358 C1364 0.950 . S
H1359 C1365 0.950 . S
H1360 C1366 0.949 . S
C1361 H1356 0.950 . S
C1361 C1363 1.327 . S
C1361 C1367 1.429 1_554 S
C1362 C1354 1.574 1_455 S
C1362 H1357 0.949 . S
C1362 C1368 1.368 . S
C1363 C1347 1.349 1_554 S
C1363 H1355 0.950 . S
C1363 C1361 1.327 . S
C1364 C1352 1.349 1_556 S
C1364 H1358 0.950 . S
C1364 C1365 1.327 . S
C1365 H1359 0.950 . S
C1365 C1364 1.327 . S
C1365 C1369 1.429 1_556 S
C1366 C1349 1.574 1_655 S
C1366 H1360 0.949 . S
C1366 C1370 1.368 . S
C1367 C1348 1.429 . S
C1367 C1361 1.429 1_556 S
C1367 C1368 1.523 . S
C1368 C1349 1.368 1_556 S
C1368 C1362 1.368 . S
C1368 C1367 1.523 . S
C1369 C1353 1.429 . S
C1369 C1365 1.429 1_554 S
C1369 C1370 1.523 . S
C1370 C1354 1.368 1_554 S
C1370 C1366 1.368 . S
C1370 C1369 1.523 . S
H1371 C1346 0.950 . S
H1372 C1348 0.950 . S
H1373 C1349 0.949 . S
H1374 C1351 0.950 . S
H1375 C1353 0.950 . S
C1376 C1377 1.349 . S
C1376 C1378 1.327 . S
C1376 H1401 0.950 . S
C1377 C1376 1.349 . S
C1377 C1393 1.349 . S
C1378 C1376 1.327 . S
C1378 C1397 1.429 . S
C1378 H1402 0.950 . S
C1379 C1396 1.574 . S
C1379 C1398 1.368 . S
C1379 H1403 0.949 . S
H1380 C1384 0.949 . S
C1381 C1382 1.349 . S
C1381 C1383 1.327 . S
C1381 H1404 0.950 . S
C1382 C1381 1.349 . S
C1382 C1394 1.349 . S
C1383 C1381 1.327 . S
C1383 C1399 1.429 . S
C1383 H1405 0.950 . S
C1384 H1380 0.949 . S
C1384 C1392 1.574 . S
C1384 C1400 1.368 . S
H1385 C1393 0.950 . S
H1386 C1391 0.950 . S
H1387 C1392 0.949 . S
H1388 C1394 0.950 . S
H1389 C1395 0.950 . S
H1390 C1396 0.949 . S
C1391 H1386 0.950 . S
C1391 C1393 1.327 . S
C1391 C1397 1.429 . S
C1392 C1384 1.574 . S
C1392 H1387 0.949 . S
C1392 C1398 1.368 . S
C1393 C1377 1.349 . S
C1393 H1385 0.950 . S
C1393 C1391 1.327 . S
C1394 C1382 1.349 . S
C1394 H1388 0.950 . S
C1394 C1395 1.327 . S
C1395 H1389 0.950 . S
C1395 C1394 1.327 . S
C1395 C1399 1.429 . S
C1396 C1379 1.574 . S
C1396 H1390 0.949 . S
C1396 C1400 1.368 . S
C1397 C1378 1.429 . S
C1397 C1391 1.429 . S
C1397 C1398 1.523 . S
C1398 C1379 1.368 . S
C1398 C1392 1.368 . S
C1398 C1397 1.523 . S
C1399 C1383 1.429 . S
C1399 C1395 1.429 . S
C1399 C1400 1.523 . S
C1400 C1384 1.368 . S
C1400 C1396 1.368 . S
C1400 C1399 1.523 . S
H1401 C1376 0.950 . S
H1402 C1378 0.950 . S
H1403 C1379 0.949 . S
H1404 C1381 0.950 . S
H1405 C1383 0.950 . S
C1406 C1407 1.349 . S
C1406 C1408 1.327 . S
C1406 H1431 0.950 . S
C1407 C1406 1.349 . S
C1407 C1423 1.349 . S
C1408 C1406 1.327 . S
C1408 C1427 1.429 . S
C1408 H1432 0.950 . S
C1409 C1426 1.574 . S
C1409 C1428 1.368 . S
C1409 H1433 0.949 . S
H1410 C1414 0.949 . S
C1411 C1412 1.349 . S
C1411 C1413 1.327 . S
C1411 H1434 0.950 . S
C1412 C1411 1.349 . S
C1412 C1424 1.349 . S
C1413 C1411 1.327 . S
C1413 C1429 1.429 . S
C1413 H1435 0.950 . S
C1414 H1410 0.949 . S
C1414 C1422 1.574 . S
C1414 C1430 1.368 . S
H1415 C1423 0.950 1_455 S
H1416 C1421 0.950 . S
H1417 C1422 0.949 . S
H1418 C1424 0.950 . S
H1419 C1425 0.950 . S
H1420 C1426 0.949 . S
C1421 H1416 0.950 . S
C1421 C1423 1.327 . S
C1421 C1427 1.429 . S
C1422 C1414 1.574 . S
C1422 H1417 0.949 . S
C1422 C1428 1.368 . S
C1423 C1407 1.349 . S
C1423 H1415 0.950 1_655 S
C1423 C1421 1.327 . S
C1424 C1412 1.349 . S
C1424 H1418 0.950 . S
C1424 C1425 1.327 . S
C1425 H1419 0.950 . S
C1425 C1424 1.327 . S
C1425 C1429 1.429 . S
C1426 C1409 1.574 . S
C1426 H1420 0.949 . S
C1426 C1430 1.368 . S
C1427 C1408 1.429 . S
C1427 C1421 1.429 . S
C1427 C1428 1.523 . S
C1428 C1409 1.368 . S
C1428 C1422 1.368 . S
C1428 C1427 1.523 . S
C1429 C1413 1.429 . S
C1429 C1425 1.429 . S
C1429 C1430 1.523 . S
C1430 C1414 1.368 . S
C1430 C1426 1.368 . S
C1430 C1429 1.523 . S
H1431 C1406 0.950 . S
H1432 C1408 0.950 . S
H1433 C1409 0.949 . S
H1434 C1411 0.950 . S
H1435 C1413 0.950 . S
C1436 C1437 1.349 . S
C1436 C1438 1.327 . S
C1436 H1461 0.950 . S
C1437 C1436 1.349 . S
C1437 C1453 1.349 . S
C1438 C1436 1.327 . S
C1438 C1457 1.429 . S
C1438 H1462 0.950 . S
C1439 C1456 1.574 . S
C1439 C1458 1.368 . S
C1439 H1463 0.949 . S
H1440 C1444 0.949 . S
C1441 C1442 1.349 . S
C1441 C1443 1.327 . S
C1441 H1464 0.950 . S
C1442 C1441 1.349 . S
C1442 C1454 1.349 . S
C1443 C1441 1.327 . S
C1443 C1459 1.429 . S
C1443 H1465 0.950 . S
C1444 H1440 0.949 . S
C1444 C1452 1.574 . S
C1444 C1460 1.368 . S
H1445 C1453 0.950 . S
H1446 C1451 0.950 . S
H1447 C1452 0.949 . S
H1448 C1454 0.950 . S
H1449 C1455 0.950 . S
H1450 C1456 0.949 . S
C1451 H1446 0.950 . S
C1451 C1453 1.327 . S
C1451 C1457 1.429 . S
C1452 C1444 1.574 . S
C1452 H1447 0.949 . S
C1452 C1458 1.368 . S
C1453 C1437 1.349 . S
C1453 H1445 0.950 . S
C1453 C1451 1.327 . S
C1454 C1442 1.349 . S
C1454 H1448 0.950 . S
C1454 C1455 1.327 . S
C1455 H1449 0.950 . S
C1455 C1454 1.327 . S
C1455 C1459 1.429 . S
C1456 C1439 1.574 . S
C1456 H1450 0.949 . S
C1456 C1460 1.368 . S
C1457 C1438 1.429 . S
C1457 C1451 1.429 . S
C1457 C1458 1.523 . S
C1458 C1439 1.368 . S
C1458 C1452 1.368 . S
C1458 C1457 1.523 . S
C1459 C1443 1.429 . S
C1459 C1455 1.429 . S
C1459 C1460 1.523 . S
C1460 C1444 1.368 . S
C1460 C1456 1.368 . S
C1460 C1459 1.523 . S
H1461 C1436 0.950 . S
H1462 C1438 0.950 . S
H1463 C1439 0.949 . S
H1464 C1441 0.950 . S
H1465 C1443 0.950 . S
C1466 C1467 1.349 . S
C1466 C1468 1.327 . S
C1466 H1491 0.950 . S
C1467 C1466 1.349 . S
C1467 C1483 1.349 . S
C1468 C1466 1.327 . S
C1468 C1487 1.429 . S
C1468 H1492 0.950 . S
C1469 C1486 1.574 . S
C1469 C1488 1.368 . S
C1469 H1493 0.949 . S
H1470 C1474 0.949 . S
C1471 C1472 1.349 . S
C1471 C1473 1.327 . S
C1471 H1494 0.950 . S
C1472 C1471 1.349 . S
C1472 C1484 1.349 . S
C1473 C1471 1.327 . S
C1473 C1489 1.429 . S
C1473 H1495 0.950 . S
C1474 H1470 0.949 . S
C1474 C1482 1.574 . S
C1474 C1490 1.368 . S
H1475 C1483 0.950 . S
H1476 C1481 0.950 . S
H1477 C1482 0.949 . S
H1478 C1484 0.950 1_455 S
H1479 C1485 0.950 . S
H1480 C1486 0.949 . S
C1481 H1476 0.950 . S
C1481 C1483 1.327 . S
C1481 C1487 1.429 . S
C1482 C1474 1.574 . S
C1482 H1477 0.949 . S
C1482 C1488 1.368 . S
C1483 C1467 1.349 . S
C1483 H1475 0.950 . S
C1483 C1481 1.327 . S
C1484 C1472 1.349 . S
C1484 H1478 0.950 1_655 S
C1484 C1485 1.327 . S
C1485 H1479 0.950 . S
C1485 C1484 1.327 . S
C1485 C1489 1.429 . S
C1486 C1469 1.574 . S
C1486 H1480 0.949 . S
C1486 C1490 1.368 . S
C1487 C1468 1.429 . S
C1487 C1481 1.429 . S
C1487 C1488 1.523 . S
C1488 C1469 1.368 . S
C1488 C1482 1.368 . S
C1488 C1487 1.523 . S
C1489 C1473 1.429 . S
C1489 C1485 1.429 . S
C1489 C1490 1.523 . S
C1490 C1474 1.368 . S
C1490 C1486 1.368 . S
C1490 C1489 1.523 . S
H1491 C1466 0.950 . S
H1492 C1468 0.950 . S
H1493 C1469 0.949 . S
H1494 C1471 0.950 . S
H1495 C1473 0.950 . S
C1496 C1497 1.349 . S
C1496 C1498 1.327 . S
C1496 H1521 0.950 . S
C1497 C1496 1.349 . S
C1497 C1513 1.349 . S
C1498 C1496 1.327 . S
C1498 C1517 1.429 . S
C1498 H1522 0.950 . S
C1499 C1516 1.574 . S
C1499 C1518 1.368 . S
C1499 H1523 0.949 . S
H1500 C1504 0.949 . S
C1501 C1502 1.349 . S
C1501 C1503 1.327 . S
C1501 H1524 0.950 . S
C1502 C1501 1.349 . S
C1502 C1514 1.349 . S
C1503 C1501 1.327 . S
C1503 C1519 1.429 . S
C1503 H1525 0.950 . S
C1504 H1500 0.949 . S
C1504 C1512 1.574 . S
C1504 C1520 1.368 . S
H1505 C1513 0.950 . S
H1506 C1511 0.950 . S
H1507 C1512 0.949 . S
H1508 C1514 0.950 . S
H1509 C1515 0.950 . S
H1510 C1516 0.949 . S
C1511 H1506 0.950 . S
C1511 C1513 1.327 . S
C1511 C1517 1.429 . S
C1512 C1504 1.574 . S
C1512 H1507 0.949 . S
C1512 C1518 1.368 . S
C1513 C1497 1.349 . S
C1513 H1505 0.950 . S
C1513 C1511 1.327 . S
C1514 C1502 1.349 . S
C1514 H1508 0.950 . S
C1514 C1515 1.327 . S
C1515 H1509 0.950 . S
C1515 C1514 1.327 . S
C1515 C1519 1.429 . S
C1516 C1499 1.574 . S
C1516 H1510 0.949 . S
C1516 C1520 1.368 . S
C1517 C1498 1.429 . S
C1517 C1511 1.429 . S
C1517 C1518 1.523 . S
C1518 C1499 1.368 . S
C1518 C1512 1.368 . S
C1518 C1517 1.523 . S
C1519 C1503 1.429 . S
C1519 C1515 1.429 . S
C1519 C1520 1.523 . S
C1520 C1504 1.368 . S
C1520 C1516 1.368 . S
C1520 C1519 1.523 . S
H1521 C1496 0.950 . S
H1522 C1498 0.950 . S
H1523 C1499 0.949 . S
H1524 C1501 0.950 . S
H1525 C1503 0.950 . S
C1526 C1527 1.349 . S
C1526 C1528 1.327 . S
C1526 H1551 0.950 1_455 S
C1527 C1526 1.349 . S
C1527 C1543 1.349 . S
C1528 C1526 1.327 . S
C1528 C1547 1.429 . S
C1528 H1552 0.950 . S
C1529 C1546 1.574 . S
C1529 C1548 1.368 . S
C1529 H1553 0.949 . S
H1530 C1534 0.949 . S
C1531 C1532 1.349 . S
C1531 C1533 1.327 . S
C1531 H1554 0.950 . S
C1532 C1531 1.349 . S
C1532 C1544 1.349 . S
C1533 C1531 1.327 . S
C1533 C1549 1.429 . S
C1533 H1555 0.950 . S
C1534 H1530 0.949 . S
C1534 C1542 1.574 . S
C1534 C1550 1.368 . S
H1535 C1543 0.950 . S
H1536 C1541 0.950 . S
H1537 C1542 0.949 . S
H1538 C1544 0.950 . S
H1539 C1545 0.950 . S
H1540 C1546 0.949 . S
C1541 H1536 0.950 . S
C1541 C1543 1.327 . S
C1541 C1547 1.429 . S
C1542 C1534 1.574 . S
C1542 H1537 0.949 . S
C1542 C1548 1.368 . S
C1543 C1527 1.349 . S
C1543 H1535 0.950 . S
C1543 C1541 1.327 . S
C1544 C1532 1.349 . S
C1544 H1538 0.950 . S
C1544 C1545 1.327 . S
C1545 H1539 0.950 . S
C1545 C1544 1.327 . S
C1545 C1549 1.429 . S
C1546 C1529 1.574 . S
C1546 H1540 0.949 . S
C1546 C1550 1.368 . S
C1547 C1528 1.429 . S
C1547 C1541 1.429 . S
C1547 C1548 1.523 . S
C1548 C1529 1.368 . S
C1548 C1542 1.368 . S
C1548 C1547 1.523 . S
C1549 C1533 1.429 . S
C1549 C1545 1.429 . S
C1549 C1550 1.523 . S
C1550 C1534 1.368 . S
C1550 C1546 1.368 . S
C1550 C1549 1.523 . S
H1551 C1526 0.950 1_655 S
H1552 C1528 0.950 . S
H1553 C1529 0.949 . S
H1554 C1531 0.950 . S
H1555 C1533 0.950 . S
C1556 C1557 1.349 . S
C1556 C1558 1.327 . S
C1556 H1581 0.950 . S
C1557 C1556 1.349 . S
C1557 C1573 1.349 . S
C1558 C1556 1.327 . S
C1558 C1577 1.429 . S
C1558 H1582 0.950 . S
C1559 C1576 1.574 . S
C1559 C1578 1.368 . S
C1559 H1583 0.949 . S
H1560 C1564 0.949 . S
C1561 C1562 1.349 . S
C1561 C1563 1.327 . S
C1561 H1584 0.950 . S
C1562 C1561 1.349 . S
C1562 C1574 1.349 . S
C1563 C1561 1.327 . S
C1563 C1579 1.429 . S
C1563 H1585 0.950 . S
C1564 H1560 0.949 . S
C1564 C1572 1.574 . S
C1564 C1580 1.368 . S
H1565 C1573 0.950 . S
H1566 C1571 0.950 . S
H1567 C1572 0.949 . S
H1568 C1574 0.950 . S
H1569 C1575 0.950 . S
H1570 C1576 0.949 . S
C1571 H1566 0.950 . S
C1571 C1573 1.327 . S
C1571 C1577 1.429 . S
C1572 C1564 1.574 . S
C1572 H1567 0.949 . S
C1572 C1578 1.368 . S
C1573 C1557 1.349 . S
C1573 H1565 0.950 . S
C1573 C1571 1.327 . S
C1574 C1562 1.349 . S
C1574 H1568 0.950 . S
C1574 C1575 1.327 . S
C1575 H1569 0.950 . S
C1575 C1574 1.327 . S
C1575 C1579 1.429 . S
C1576 C1559 1.574 . S
C1576 H1570 0.949 . S
C1576 C1580 1.368 . S
C1577 C1558 1.429 . S
C1577 C1571 1.429 . S
C1577 C1578 1.523 . S
C1578 C1559 1.368 . S
C1578 C1572 1.368 . S
C1578 C1577 1.523 . S
C1579 C1563 1.429 . S
C1579 C1575 1.429 . S
C1579 C1580 1.523 . S
C1580 C1564 1.368 . S
C1580 C1576 1.368 . S
C1580 C1579 1.523 . S
H1581 C1556 0.950 . S
H1582 C1558 0.950 . S
H1583 C1559 0.949 . S
H1584 C1561 0.950 . S
H1585 C1563 0.950 . S
C1586 C1587 1.349 . S
C1586 C1588 1.327 . S
C1586 H1611 0.950 . S
C1587 C1586 1.349 . S
C1587 C1603 1.349 . S
C1588 C1586 1.327 . S
C1588 C1607 1.429 . S
C1588 H1612 0.950 . S
C1589 C1606 1.574 . S
C1589 C1608 1.368 . S
C1589 H1613 0.949 . S
H1590 C1594 0.949 . S
C1591 C1592 1.349 . S
C1591 C1593 1.327 . S
C1591 H1614 0.950 1_455 S
C1592 C1591 1.349 . S
C1592 C1604 1.349 . S
C1593 C1591 1.327 . S
C1593 C1609 1.429 . S
C1593 H1615 0.950 . S
C1594 H1590 0.949 . S
C1594 C1602 1.574 . S
C1594 C1610 1.368 . S
H1595 C1603 0.950 . S
H1596 C1601 0.950 . S
H1597 C1602 0.949 . S
H1598 C1604 0.950 . S
H1599 C1605 0.950 . S
H1600 C1606 0.949 . S
C1601 H1596 0.950 . S
C1601 C1603 1.327 . S
C1601 C1607 1.429 . S
C1602 C1594 1.574 . S
C1602 H1597 0.949 . S
C1602 C1608 1.368 . S
C1603 C1587 1.349 . S
C1603 H1595 0.950 . S
C1603 C1601 1.327 . S
C1604 C1592 1.349 . S
C1604 H1598 0.950 . S
C1604 C1605 1.327 . S
C1605 H1599 0.950 . S
C1605 C1604 1.327 . S
C1605 C1609 1.429 . S
C1606 C1589 1.574 . S
C1606 H1600 0.949 . S
C1606 C1610 1.368 . S
C1607 C1588 1.429 . S
C1607 C1601 1.429 . S
C1607 C1608 1.523 . S
C1608 C1589 1.368 . S
C1608 C1602 1.368 . S
C1608 C1607 1.523 . S
C1609 C1593 1.429 . S
C1609 C1605 1.429 . S
C1609 C1610 1.523 . S
C1610 C1594 1.368 . S
C1610 C1606 1.368 . S
C1610 C1609 1.523 . S
H1611 C1586 0.950 . S
H1612 C1588 0.950 . S
H1613 C1589 0.949 . S
H1614 C1591 0.950 1_655 S
H1615 C1593 0.950 . S
C1616 C1617 1.349 . S
C1616 C1618 1.327 . S
C1616 H1641 0.950 . S
C1617 C1616 1.349 . S
C1617 C1633 1.349 . S
C1618 C1616 1.327 . S
C1618 C1637 1.429 . S
C1618 H1642 0.950 . S
C1619 C1636 1.574 . S
C1619 C1638 1.368 . S
C1619 H1643 0.949 . S
H1620 C1624 0.949 . S
C1621 C1622 1.349 . S
C1621 C1623 1.327 . S
C1621 H1644 0.950 . S
C1622 C1621 1.349 . S
C1622 C1634 1.349 . S
C1623 C1621 1.327 . S
C1623 C1639 1.429 . S
C1623 H1645 0.950 . S
C1624 H1620 0.949 . S
C1624 C1632 1.574 . S
C1624 C1640 1.368 . S
H1625 C1633 0.950 . S
H1626 C1631 0.950 . S
H1627 C1632 0.949 . S
H1628 C1634 0.950 . S
H1629 C1635 0.950 . S
H1630 C1636 0.949 . S
C1631 H1626 0.950 . S
C1631 C1633 1.327 . S
C1631 C1637 1.429 . S
C1632 C1624 1.574 . S
C1632 H1627 0.949 . S
C1632 C1638 1.368 . S
C1633 C1617 1.349 . S
C1633 H1625 0.950 . S
C1633 C1631 1.327 . S
C1634 C1622 1.349 . S
C1634 H1628 0.950 . S
C1634 C1635 1.327 . S
C1635 H1629 0.950 . S
C1635 C1634 1.327 . S
C1635 C1639 1.429 . S
C1636 C1619 1.574 . S
C1636 H1630 0.949 . S
C1636 C1640 1.368 . S
C1637 C1618 1.429 . S
C1637 C1631 1.429 . S
C1637 C1638 1.523 . S
C1638 C1619 1.368 . S
C1638 C1632 1.368 . S
C1638 C1637 1.523 . S
C1639 C1623 1.429 . S
C1639 C1635 1.429 . S
C1639 C1640 1.523 . S
C1640 C1624 1.368 . S
C1640 C1636 1.368 . S
C1640 C1639 1.523 . S
H1641 C1616 0.950 . S
H1642 C1618 0.950 . S
H1643 C1619 0.949 . S
H1644 C1621 0.950 . S
H1645 C1623 0.950 . S
C1646 C1647 1.349 . S
C1646 C1648 1.327 . S
C1646 H1671 0.950 . S
C1647 C1646 1.349 . S
C1647 C1663 1.349 . S
C1648 C1646 1.327 . S
C1648 C1667 1.429 . S
C1648 H1672 0.950 . S
C1649 C1666 1.574 . S
C1649 C1668 1.368 . S
C1649 H1673 0.949 . S
H1650 C1654 0.949 . S
C1651 C1652 1.349 . S
C1651 C1653 1.327 . S
C1651 H1674 0.950 1_655 S
C1652 C1651 1.349 . S
C1652 C1664 1.349 . S
C1653 C1651 1.327 . S
C1653 C1669 1.429 . S
C1653 H1675 0.950 . S
C1654 H1650 0.949 . S
C1654 C1662 1.574 . S
C1654 C1670 1.368 . S
H1655 C1663 0.950 . S
H1656 C1661 0.950 . S
H1657 C1662 0.949 . S
H1658 C1664 0.950 . S
H1659 C1665 0.950 . S
H1660 C1666 0.949 . S
C1661 H1656 0.950 . S
C1661 C1663 1.327 . S
C1661 C1667 1.429 . S
C1662 C1654 1.574 . S
C1662 H1657 0.949 . S
C1662 C1668 1.368 . S
C1663 C1647 1.349 . S
C1663 H1655 0.950 . S
C1663 C1661 1.327 . S
C1664 C1652 1.349 . S
C1664 H1658 0.950 . S
C1664 C1665 1.327 . S
C1665 H1659 0.950 . S
C1665 C1664 1.327 . S
C1665 C1669 1.429 . S
C1666 C1649 1.574 . S
C1666 H1660 0.949 . S
C1666 C1670 1.368 . S
C1667 C1648 1.429 . S
C1667 C1661 1.429 . S
C1667 C1668 1.523 . S
C1668 C1649 1.368 . S
C1668 C1662 1.368 . S
C1668 C1667 1.523 . S
C1669 C1653 1.429 . S
C1669 C1665 1.429 . S
C1669 C1670 1.523 . S
C1670 C1654 1.368 . S
C1670 C1666 1.368 . S
C1670 C1669 1.523 . S
H1671 C1646 0.950 . S
H1672 C1648 0.950 . S
H1673 C1649 0.949 . S
H1674 C1651 0.950 1_455 S
H1675 C1653 0.950 . S
C1676 C1677 1.349 . S
C1676 C1678 1.327 . S
C1676 H1701 0.950 . S
C1677 C1676 1.349 . S
C1677 C1693 1.349 . S
C1678 C1676 1.327 . S
C1678 C1697 1.429 . S
C1678 H1702 0.950 . S
C1679 C1696 1.574 . S
C1679 C1698 1.368 . S
C1679 H1703 0.949 . S
H1680 C1684 0.949 . S
C1681 C1682 1.349 . S
C1681 C1683 1.327 . S
C1681 H1704 0.950 . S
C1682 C1681 1.349 . S
C1682 C1694 1.349 . S
C1683 C1681 1.327 . S
C1683 C1699 1.429 . S
C1683 H1705 0.950 . S
C1684 H1680 0.949 . S
C1684 C1692 1.574 . S
C1684 C1700 1.368 . S
H1685 C1693 0.950 . S
H1686 C1691 0.950 . S
H1687 C1692 0.949 . S
H1688 C1694 0.950 . S
H1689 C1695 0.950 . S
H1690 C1696 0.949 . S
C1691 H1686 0.950 . S
C1691 C1693 1.327 . S
C1691 C1697 1.429 . S
C1692 C1684 1.574 . S
C1692 H1687 0.949 . S
C1692 C1698 1.368 . S
C1693 C1677 1.349 . S
C1693 H1685 0.950 . S
C1693 C1691 1.327 . S
C1694 C1682 1.349 . S
C1694 H1688 0.950 . S
C1694 C1695 1.327 . S
C1695 H1689 0.950 . S
C1695 C1694 1.327 . S
C1695 C1699 1.429 . S
C1696 C1679 1.574 . S
C1696 H1690 0.949 . S
C1696 C1700 1.368 . S
C1697 C1678 1.429 . S
C1697 C1691 1.429 . S
C1697 C1698 1.523 . S
C1698 C1679 1.368 . S
C1698 C1692 1.368 . S
C1698 C1697 1.523 . S
C1699 C1683 1.429 . S
C1699 C1695 1.429 . S
C1699 C1700 1.523 . S
C1700 C1684 1.368 . S
C1700 C1696 1.368 . S
C1700 C1699 1.523 . S
H1701 C1676 0.950 . S
H1702 C1678 0.950 . S
H1703 C1679 0.949 . S
H1704 C1681 0.950 . S
H1705 C1683 0.950 . S
C1706 C1707 1.349 . S
C1706 C1708 1.327 . S
C1706 H1731 0.950 1_655 S
C1707 C1706 1.349 . S
C1707 C1723 1.349 . S
C1708 C1706 1.327 . S
C1708 C1727 1.429 . S
C1708 H1732 0.950 . S
C1709 C1726 1.574 . S
C1709 C1728 1.368 . S
C1709 H1733 0.949 . S
H1710 C1714 0.949 . S
C1711 C1712 1.349 . S
C1711 C1713 1.327 . S
C1711 H1734 0.950 . S
C1712 C1711 1.349 . S
C1712 C1724 1.349 . S
C1713 C1711 1.327 . S
C1713 C1729 1.429 . S
C1713 H1735 0.950 . S
C1714 H1710 0.949 . S
C1714 C1722 1.574 . S
C1714 C1730 1.368 . S
H1715 C1723 0.950 . S
H1716 C1721 0.950 . S
H1717 C1722 0.949 . S
H1718 C1724 0.950 . S
H1719 C1725 0.950 . S
H1720 C1726 0.949 . S
C1721 H1716 0.950 . S
C1721 C1723 1.327 . S
C1721 C1727 1.429 . S
C1722 C1714 1.574 . S
C1722 H1717 0.949 . S
C1722 C1728 1.368 . S
C1723 C1707 1.349 . S
C1723 H1715 0.950 . S
C1723 C1721 1.327 . S
C1724 C1712 1.349 . S
C1724 H1718 0.950 . S
C1724 C1725 1.327 . S
C1725 H1719 0.950 . S
C1725 C1724 1.327 . S
C1725 C1729 1.429 . S
C1726 C1709 1.574 . S
C1726 H1720 0.949 . S
C1726 C1730 1.368 . S
C1727 C1708 1.429 . S
C1727 C1721 1.429 . S
C1727 C1728 1.523 . S
C1728 C1709 1.368 . S
C1728 C1722 1.368 . S
C1728 C1727 1.523 . S
C1729 C1713 1.429 . S
C1729 C1725 1.429 . S
C1729 C1730 1.523 . S
C1730 C1714 1.368 . S
C1730 C1726 1.368 . S
C1730 C1729 1.523 . S
H1731 C1706 0.950 1_455 S
H1732 C1708 0.950 . S
H1733 C1709 0.949 . S
H1734 C1711 0.950 . S
H1735 C1713 0.950 . S
C1736 C1737 1.349 . S
C1736 C1738 1.327 . S
C1736 H1761 0.950 . S
C1737 C1736 1.349 . S
C1737 C1753 1.349 . S
C1738 C1736 1.327 . S
C1738 C1757 1.429 . S
C1738 H1762 0.950 . S
C1739 C1756 1.574 . S
C1739 C1758 1.368 . S
C1739 H1763 0.949 . S
H1740 C1744 0.949 . S
C1741 C1742 1.349 . S
C1741 C1743 1.327 . S
C1741 H1764 0.950 . S
C1742 C1741 1.349 . S
C1742 C1754 1.349 . S
C1743 C1741 1.327 . S
C1743 C1759 1.429 . S
C1743 H1765 0.950 . S
C1744 H1740 0.949 . S
C1744 C1752 1.574 . S
C1744 C1760 1.368 . S
H1745 C1753 0.950 . S
H1746 C1751 0.950 . S
H1747 C1752 0.949 . S
H1748 C1754 0.950 . S
H1749 C1755 0.950 . S
H1750 C1756 0.949 . S
C1751 H1746 0.950 . S
C1751 C1753 1.327 . S
C1751 C1757 1.429 . S
C1752 C1744 1.574 . S
C1752 H1747 0.949 . S
C1752 C1758 1.368 . S
C1753 C1737 1.349 . S
C1753 H1745 0.950 . S
C1753 C1751 1.327 . S
C1754 C1742 1.349 . S
C1754 H1748 0.950 . S
C1754 C1755 1.327 . S
C1755 H1749 0.950 . S
C1755 C1754 1.327 . S
C1755 C1759 1.429 . S
C1756 C1739 1.574 . S
C1756 H1750 0.949 . S
C1756 C1760 1.368 . S
C1757 C1738 1.429 . S
C1757 C1751 1.429 . S
C1757 C1758 1.523 . S
C1758 C1739 1.368 . S
C1758 C1752 1.368 . S
C1758 C1757 1.523 . S
C1759 C1743 1.429 . S
C1759 C1755 1.429 . S
C1759 C1760 1.523 . S
C1760 C1744 1.368 . S
C1760 C1756 1.368 . S
C1760 C1759 1.523 . S
H1761 C1736 0.950 . S
H1762 C1738 0.950 . S
H1763 C1739 0.949 . S
H1764 C1741 0.950 . S
H1765 C1743 0.950 . S
C1766 C1767 1.349 . S
C1766 C1768 1.327 . S
C1766 H1791 0.950 . S
C1767 C1766 1.349 . S
C1767 C1783 1.349 . S
C1768 C1766 1.327 . S
C1768 C1787 1.429 . S
C1768 H1792 0.950 . S
C1769 C1786 1.574 . S
C1769 C1788 1.368 . S
C1769 H1793 0.949 . S
H1770 C1774 0.949 . S
C1771 C1772 1.349 . S
C1771 C1773 1.327 . S
C1771 H1794 0.950 . S
C1772 C1771 1.349 . S
C1772 C1784 1.349 . S
C1773 C1771 1.327 . S
C1773 C1789 1.429 . S
C1773 H1795 0.950 . S
C1774 H1770 0.949 . S
C1774 C1782 1.574 . S
C1774 C1790 1.368 . S
H1775 C1783 0.950 1_655 S
H1776 C1781 0.950 . S
H1777 C1782 0.949 . S
H1778 C1784 0.950 . S
H1779 C1785 0.950 . S
H1780 C1786 0.949 . S
C1781 H1776 0.950 . S
C1781 C1783 1.327 . S
C1781 C1787 1.429 . S
C1782 C1774 1.574 . S
C1782 H1777 0.949 . S
C1782 C1788 1.368 . S
C1783 C1767 1.349 . S
C1783 H1775 0.950 1_455 S
C1783 C1781 1.327 . S
C1784 C1772 1.349 . S
C1784 H1778 0.950 . S
C1784 C1785 1.327 . S
C1785 H1779 0.950 . S
C1785 C1784 1.327 . S
C1785 C1789 1.429 . S
C1786 C1769 1.574 . S
C1786 H1780 0.949 . S
C1786 C1790 1.368 . S
C1787 C1768 1.429 . S
C1787 C1781 1.429 . S
C1787 C1788 1.523 . S
C1788 C1769 1.368 . S
C1788 C1782 1.368 . S
C1788 C1787 1.523 . S
C1789 C1773 1.429 . S
C1789 C1785 1.429 . S
C1789 C1790 1.523 . S
C1790 C1774 1.368 . S
C1790 C1786 1.368 . S
C1790 C1789 1.523 . S
H1791 C1766 0.950 . S
H1792 C1768 0.950 . S
H1793 C1769 0.949 . S
H1794 C1771 0.950 . S
H1795 C1773 0.950 . S
C1796 C1797 1.349 . S
C1796 C1798 1.327 . S
C1796 H1821 0.950 . S
C1797 C1796 1.349 . S
C1797 C1813 1.349 . S
C1798 C1796 1.327 . S
C1798 C1817 1.429 . S
C1798 H1822 0.950 . S
C1799 C1816 1.574 . S
C1799 C1818 1.368 . S
C1799 H1823 0.949 . S
H1800 C1804 0.949 . S
C1801 C1802 1.349 . S
C1801 C1803 1.327 . S
C1801 H1824 0.950 . S
C1802 C1801 1.349 . S
C1802 C1814 1.349 . S
C1803 C1801 1.327 . S
C1803 C1819 1.429 . S
C1803 H1825 0.950 . S
C1804 H1800 0.949 . S
C1804 C1812 1.574 . S
C1804 C1820 1.368 . S
H1805 C1813 0.950 . S
H1806 C1811 0.950 . S
H1807 C1812 0.949 . S
H1808 C1814 0.950 . S
H1809 C1815 0.950 . S
H1810 C1816 0.949 . S
C1811 H1806 0.950 . S
C1811 C1813 1.327 . S
C1811 C1817 1.429 . S
C1812 C1804 1.574 . S
C1812 H1807 0.949 . S
C1812 C1818 1.368 . S
C1813 C1797 1.349 . S
C1813 H1805 0.950 . S
C1813 C1811 1.327 . S
C1814 C1802 1.349 . S
C1814 H1808 0.950 . S
C1814 C1815 1.327 . S
C1815 H1809 0.950 . S
C1815 C1814 1.327 . S
C1815 C1819 1.429 . S
C1816 C1799 1.574 . S
C1816 H1810 0.949 . S
C1816 C1820 1.368 . S
C1817 C1798 1.429 . S
C1817 C1811 1.429 . S
C1817 C1818 1.523 . S
C1818 C1799 1.368 . S
C1818 C1812 1.368 . S
C1818 C1817 1.523 . S
C1819 C1803 1.429 . S
C1819 C1815 1.429 . S
C1819 C1820 1.523 . S
C1820 C1804 1.368 . S
C1820 C1816 1.368 . S
C1820 C1819 1.523 . S
H1821 C1796 0.950 . S
H1822 C1798 0.950 . S
H1823 C1799 0.949 . S
H1824 C1801 0.950 . S
H1825 C1803 0.950 . S
C1826 C1827 1.349 . S
C1826 C1828 1.327 . S
C1826 H1851 0.950 . S
C1827 C1826 1.349 . S
C1827 C1843 1.349 . S
C1828 C1826 1.327 . S
C1828 C1847 1.429 . S
C1828 H1852 0.950 . S
C1829 C1846 1.574 . S
C1829 C1848 1.368 . S
C1829 H1853 0.949 . S
H1830 C1834 0.949 . S
C1831 C1832 1.349 . S
C1831 C1833 1.327 . S
C1831 H1854 0.950 . S
C1832 C1831 1.349 . S
C1832 C1844 1.349 . S
C1833 C1831 1.327 . S
C1833 C1849 1.429 . S
C1833 H1855 0.950 . S
C1834 H1830 0.949 . S
C1834 C1842 1.574 . S
C1834 C1850 1.368 . S
H1835 C1843 0.950 1_655 S
H1836 C1841 0.950 . S
H1837 C1842 0.949 . S
H1838 C1844 0.950 . S
H1839 C1845 0.950 . S
H1840 C1846 0.949 . S
C1841 H1836 0.950 . S
C1841 C1843 1.327 . S
C1841 C1847 1.429 . S
C1842 C1834 1.574 . S
C1842 H1837 0.949 . S
C1842 C1848 1.368 . S
C1843 C1827 1.349 . S
C1843 H1835 0.950 1_455 S
C1843 C1841 1.327 . S
C1844 C1832 1.349 . S
C1844 H1838 0.950 . S
C1844 C1845 1.327 . S
C1845 H1839 0.950 . S
C1845 C1844 1.327 . S
C1845 C1849 1.429 . S
C1846 C1829 1.574 . S
C1846 H1840 0.949 . S
C1846 C1850 1.368 . S
C1847 C1828 1.429 . S
C1847 C1841 1.429 . S
C1847 C1848 1.523 . S
C1848 C1829 1.368 . S
C1848 C1842 1.368 . S
C1848 C1847 1.523 . S
C1849 C1833 1.429 . S
C1849 C1845 1.429 . S
C1849 C1850 1.523 . S
C1850 C1834 1.368 . S
C1850 C1846 1.368 . S
C1850 C1849 1.523 . S
H1851 C1826 0.950 . S
H1852 C1828 0.950 . S
H1853 C1829 0.949 . S
H1854 C1831 0.950 . S
H1855 C1833 0.950 . S
C1856 C1857 1.349 . S
C1856 C1858 1.327 . S
C1856 H1881 0.950 1_455 S
C1857 C1856 1.349 . S
C1857 C1873 1.349 1_554 S
C1858 C1856 1.327 . S
C1858 C1877 1.429 . S
C1858 H1882 0.950 . S
C1859 C1876 1.574 . S
C1859 C1878 1.368 1_556 S
C1859 H1883 0.949 . S
H1860 C1864 0.949 . S
C1861 C1862 1.349 1_556 S
C1861 C1863 1.327 . S
C1861 H1884 0.950 . S
C1862 C1861 1.349 1_554 S
C1862 C1874 1.349 . S
C1863 C1861 1.327 . S
C1863 C1879 1.429 1_556 S
C1863 H1885 0.950 . S
C1864 H1860 0.949 . S
C1864 C1872 1.574 . S
C1864 C1880 1.368 . S
H1865 C1873 0.950 . S
H1866 C1871 0.950 . S
H1867 C1872 0.949 . S
H1868 C1874 0.950 . S
H1869 C1875 0.950 . S
H1870 C1876 0.949 . S
C1871 H1866 0.950 . S
C1871 C1873 1.327 . S
C1871 C1877 1.429 1_556 S
C1872 C1864 1.574 . S
C1872 H1867 0.949 . S
C1872 C1878 1.368 . S
C1873 C1857 1.349 1_556 S
C1873 H1865 0.950 . S
C1873 C1871 1.327 . S
C1874 C1862 1.349 . S
C1874 H1868 0.950 . S
C1874 C1875 1.327 . S
C1875 H1869 0.950 . S
C1875 C1874 1.327 . S
C1875 C1879 1.429 . S
C1876 C1859 1.574 . S
C1876 H1870 0.949 . S
C1876 C1880 1.368 1_556 S
C1877 C1858 1.429 . S
C1877 C1871 1.429 1_554 S
C1877 C1878 1.523 . S
C1878 C1859 1.368 1_554 S
C1878 C1872 1.368 . S
C1878 C1877 1.523 . S
C1879 C1863 1.429 1_554 S
C1879 C1875 1.429 . S
C1879 C1880 1.523 . S
C1880 C1864 1.368 . S
C1880 C1876 1.368 1_554 S
C1880 C1879 1.523 . S
H1881 C1856 0.950 1_655 S
H1882 C1858 0.950 . S
H1883 C1859 0.949 . S
H1884 C1861 0.950 . S
H1885 C1863 0.950 . S
C1886 C1887 1.349 . S
C1886 C1888 1.327 . S
C1886 H1911 0.950 . S
C1887 C1886 1.349 . S
C1887 C1903 1.349 . S
C1888 C1886 1.327 . S
C1888 C1907 1.429 . S
C1888 H1912 0.950 . S
C1889 C1906 1.574 . S
C1889 C1908 1.368 . S
C1889 H1913 0.949 . S
H1890 C1894 0.949 . S
C1891 C1892 1.349 . S
C1891 C1893 1.327 . S
C1891 H1914 0.950 . S
C1892 C1891 1.349 . S
C1892 C1904 1.349 . S
C1893 C1891 1.327 . S
C1893 C1909 1.429 . S
C1893 H1915 0.950 . S
C1894 H1890 0.949 . S
C1894 C1902 1.574 . S
C1894 C1910 1.368 . S
H1895 C1903 0.950 . S
H1896 C1901 0.950 . S
H1897 C1902 0.949 . S
H1898 C1904 0.950 . S
H1899 C1905 0.950 . S
H1900 C1906 0.949 . S
C1901 H1896 0.950 . S
C1901 C1903 1.327 . S
C1901 C1907 1.429 . S
C1902 C1894 1.574 . S
C1902 H1897 0.949 . S
C1902 C1908 1.368 . S
C1903 C1887 1.349 . S
C1903 H1895 0.950 . S
C1903 C1901 1.327 . S
C1904 C1892 1.349 . S
C1904 H1898 0.950 . S
C1904 C1905 1.327 . S
C1905 H1899 0.950 . S
C1905 C1904 1.327 . S
C1905 C1909 1.429 . S
C1906 C1889 1.574 . S
C1906 H1900 0.949 . S
C1906 C1910 1.368 . S
C1907 C1888 1.429 . S
C1907 C1901 1.429 . S
C1907 C1908 1.523 . S
C1908 C1889 1.368 . S
C1908 C1902 1.368 . S
C1908 C1907 1.523 . S
C1909 C1893 1.429 . S
C1909 C1905 1.429 . S
C1909 C1910 1.523 . S
C1910 C1894 1.368 . S
C1910 C1906 1.368 . S
C1910 C1909 1.523 . S
H1911 C1886 0.950 . S
H1912 C1888 0.950 . S
H1913 C1889 0.949 . S
H1914 C1891 0.950 . S
H1915 C1893 0.950 . S
C1916 C1917 1.349 1_554 S
C1916 C1918 1.327 . S
C1916 H1941 0.950 1_655 S
C1917 C1916 1.349 1_556 S
C1917 C1933 1.349 . S
C1918 C1916 1.327 . S
C1918 C1937 1.429 1_554 S
C1918 H1942 0.950 . S
C1919 C1936 1.574 . S
C1919 C1938 1.368 . S
C1919 H1943 0.949 . S
H1920 C1924 0.949 . S
C1921 C1922 1.349 . S
C1921 C1923 1.327 . S
C1921 H1944 0.950 . S
C1922 C1921 1.349 . S
C1922 C1934 1.349 1_556 S
C1923 C1921 1.327 . S
C1923 C1939 1.429 . S
C1923 H1945 0.950 . S
C1924 H1920 0.949 . S
C1924 C1932 1.574 . S
C1924 C1940 1.368 1_554 S
H1925 C1933 0.950 . S
H1926 C1931 0.950 . S
H1927 C1932 0.949 . S
H1928 C1934 0.950 . S
H1929 C1935 0.950 . S
H1930 C1936 0.949 . S
C1931 H1926 0.950 . S
C1931 C1933 1.327 . S
C1931 C1937 1.429 . S
C1932 C1924 1.574 . S
C1932 H1927 0.949 . S
C1932 C1938 1.368 1_554 S
C1933 C1917 1.349 . S
C1933 H1925 0.950 . S
C1933 C1931 1.327 . S
C1934 C1922 1.349 1_554 S
C1934 H1928 0.950 . S
C1934 C1935 1.327 . S
C1935 H1929 0.950 . S
C1935 C1934 1.327 . S
C1935 C1939 1.429 1_554 S
C1936 C1919 1.574 . S
C1936 H1930 0.949 . S
C1936 C1940 1.368 . S
C1937 C1918 1.429 1_556 S
C1937 C1931 1.429 . S
C1937 C1938 1.523 . S
C1938 C1919 1.368 . S
C1938 C1932 1.368 1_556 S
C1938 C1937 1.523 . S
C1939 C1923 1.429 . S
C1939 C1935 1.429 1_556 S
C1939 C1940 1.523 . S
C1940 C1924 1.368 1_556 S
C1940 C1936 1.368 . S
C1940 C1939 1.523 . S
H1941 C1916 0.950 1_455 S
H1942 C1918 0.950 . S
H1943 C1919 0.949 . S
H1944 C1921 0.950 . S
H1945 C1923 0.950 . S
C1946 C1947 1.349 . S
C1946 C1948 1.327 . S
C1946 H1971 0.950 . S
C1947 C1946 1.349 . S
C1947 C1963 1.349 . S
C1948 C1946 1.327 . S
C1948 C1967 1.429 . S
C1948 H1972 0.950 . S
C1949 C1966 1.574 . S
C1949 C1968 1.368 . S
C1949 H1973 0.949 . S
H1950 C1954 0.949 . S
C1951 C1952 1.349 . S
C1951 C1953 1.327 . S
C1951 H1974 0.950 . S
C1952 C1951 1.349 . S
C1952 C1964 1.349 . S
C1953 C1951 1.327 . S
C1953 C1969 1.429 . S
C1953 H1975 0.950 . S
C1954 H1950 0.949 . S
C1954 C1962 1.574 . S
C1954 C1970 1.368 . S
H1955 C1963 0.950 . S
H1956 C1961 0.950 . S
H1957 C1962 0.949 . S
H1958 C1964 0.950 . S
H1959 C1965 0.950 . S
H1960 C1966 0.949 . S
C1961 H1956 0.950 . S
C1961 C1963 1.327 . S
C1961 C1967 1.429 . S
C1962 C1954 1.574 . S
C1962 H1957 0.949 . S
C1962 C1968 1.368 . S
C1963 C1947 1.349 . S
C1963 H1955 0.950 . S
C1963 C1961 1.327 . S
C1964 C1952 1.349 . S
C1964 H1958 0.950 . S
C1964 C1965 1.327 . S
C1965 H1959 0.950 . S
C1965 C1964 1.327 . S
C1965 C1969 1.429 . S
C1966 C1949 1.574 . S
C1966 H1960 0.949 . S
C1966 C1970 1.368 . S
C1967 C1948 1.429 . S
C1967 C1961 1.429 . S
C1967 C1968 1.523 . S
C1968 C1949 1.368 . S
C1968 C1962 1.368 . S
C1968 C1967 1.523 . S
C1969 C1953 1.429 . S
C1969 C1965 1.429 . S
C1969 C1970 1.523 . S
C1970 C1954 1.368 . S
C1970 C1966 1.368 . S
C1970 C1969 1.523 . S
H1971 C1946 0.950 . S
H1972 C1948 0.950 . S
H1973 C1949 0.949 . S
H1974 C1951 0.950 . S
H1975 C1953 0.950 . S
C1976 C1977 1.349 . S
C1976 C1978 1.327 . S
C1976 H2001 0.950 . S
C1977 C1976 1.349 . S
C1977 C1993 1.349 . S
C1978 C1976 1.327 . S
C1978 C1997 1.429 . S
C1978 H2002 0.950 . S
C1979 C1996 1.574 . S
C1979 C1998 1.368 . S
C1979 H2003 0.949 . S
H1980 C1984 0.949 . S
C1981 C1982 1.349 . S
C1981 C1983 1.327 . S
C1981 H2004 0.950 . S
C1982 C1981 1.349 . S
C1982 C1994 1.349 . S
C1983 C1981 1.327 . S
C1983 C1999 1.429 . S
C1983 H2005 0.950 . S
C1984 H1980 0.949 . S
C1984 C1992 1.574 . S
C1984 C2000 1.368 . S
H1985 C1993 0.950 . S
H1986 C1991 0.950 . S
H1987 C1992 0.949 . S
H1988 C1994 0.950 . S
H1989 C1995 0.950 . S
H1990 C1996 0.949 . S
C1991 H1986 0.950 . S
C1991 C1993 1.327 . S
C1991 C1997 1.429 . S
C1992 C1984 1.574 . S
C1992 H1987 0.949 . S
C1992 C1998 1.368 . S
C1993 C1977 1.349 . S
C1993 H1985 0.950 . S
C1993 C1991 1.327 . S
C1994 C1982 1.349 . S
C1994 H1988 0.950 . S
C1994 C1995 1.327 . S
C1995 H1989 0.950 . S
C1995 C1994 1.327 . S
C1995 C1999 1.429 . S
C1996 C1979 1.574 . S
C1996 H1990 0.949 . S
C1996 C2000 1.368 . S
C1997 C1978 1.429 . S
C1997 C1991 1.429 . S
C1997 C1998 1.523 . S
C1998 C1979 1.368 . S
C1998 C1992 1.368 . S
C1998 C1997 1.523 . S
C1999 C1983 1.429 . S
C1999 C1995 1.429 . S
C1999 C2000 1.523 . S
C2000 C1984 1.368 . S
C2000 C1996 1.368 . S
C2000 C1999 1.523 . S
H2001 C1976 0.950 . S
H2002 C1978 0.950 . S
H2003 C1979 0.949 . S
H2004 C1981 0.950 . S
H2005 C1983 0.950 . S
C2006 C2007 1.349 . S
C2006 C2008 1.327 . S
C2006 H2031 0.950 . S
C2007 C2006 1.349 . S
C2007 C2023 1.349 . S
C2008 C2006 1.327 . S
C2008 C2027 1.429 . S
C2008 H2032 0.950 . S
C2009 C2026 1.574 . S
C2009 C2028 1.368 . S
C2009 H2033 0.949 . S
H2010 C2014 0.949 . S
C2011 C2012 1.349 . S
C2011 C2013 1.327 . S
C2011 H2034 0.950 . S
C2012 C2011 1.349 . S
C2012 C2024 1.349 . S
C2013 C2011 1.327 . S
C2013 C2029 1.429 . S
C2013 H2035 0.950 . S
C2014 H2010 0.949 . S
C2014 C2022 1.574 . S
C2014 C2030 1.368 . S
H2015 C2023 0.950 . S
H2016 C2021 0.950 . S
H2017 C2022 0.949 . S
H2018 C2024 0.963 . S
H2019 C2025 0.950 . S
H2020 C2026 0.949 . S
C2021 H2016 0.950 . S
C2021 C2023 1.327 . S
C2021 C2027 1.429 . S
C2022 C2014 1.574 . S
C2022 H2017 0.949 . S
C2022 C2028 1.368 . S
C2023 C2007 1.349 . S
C2023 H2015 0.950 . S
C2023 C2021 1.327 . S
C2024 C2012 1.349 . S
C2024 H2018 0.963 . S
C2024 C2025 1.327 . S
C2025 H2019 0.950 . S
C2025 C2024 1.327 . S
C2025 C2029 1.429 . S
C2026 C2009 1.574 . S
C2026 H2020 0.949 . S
C2026 C2030 1.368 . S
C2027 C2008 1.429 . S
C2027 C2021 1.429 . S
C2027 C2028 1.523 . S
C2028 C2009 1.368 . S
C2028 C2022 1.368 . S
C2028 C2027 1.523 . S
C2029 C2013 1.429 . S
C2029 C2025 1.429 . S
C2029 C2030 1.523 . S
C2030 C2014 1.368 . S
C2030 C2026 1.368 . S
C2030 C2029 1.523 . S
H2031 C2006 0.950 . S
H2032 C2008 0.950 . S
H2033 C2009 0.949 . S
H2034 C2011 0.950 . S
H2035 C2013 0.950 . S
C2036 C2037 1.349 . S
C2036 C2038 1.327 . S
C2036 H2061 0.950 . S
C2037 C2036 1.349 . S
C2037 C2053 1.349 . S
C2038 C2036 1.327 . S
C2038 C2057 1.429 . S
C2038 H2062 0.950 . S
C2039 C2056 1.574 . S
C2039 C2058 1.368 . S
C2039 H2063 0.949 . S
H2040 C2044 0.949 . S
C2041 C2042 1.349 . S
C2041 C2043 1.327 . S
C2041 H2064 0.950 . S
C2042 C2041 1.349 . S
C2042 C2054 1.349 . S
C2043 C2041 1.327 . S
C2043 C2059 1.429 . S
C2043 H2065 0.950 . S
C2044 H2040 0.949 . S
C2044 C2052 1.574 . S
C2044 C2060 1.368 . S
H2045 C2053 0.950 . S
H2046 C2051 0.950 . S
H2047 C2052 0.949 . S
H2048 C2054 0.950 . S
H2049 C2055 0.950 . S
H2050 C2056 0.949 . S
C2051 H2046 0.950 . S
C2051 C2053 1.327 . S
C2051 C2057 1.429 . S
C2052 C2044 1.574 . S
C2052 H2047 0.949 . S
C2052 C2058 1.368 . S
C2053 C2037 1.349 . S
C2053 H2045 0.950 . S
C2053 C2051 1.327 . S
C2054 C2042 1.349 . S
C2054 H2048 0.950 . S
C2054 C2055 1.327 . S
C2055 H2049 0.950 . S
C2055 C2054 1.327 . S
C2055 C2059 1.429 . S
C2056 C2039 1.574 . S
C2056 H2050 0.949 . S
C2056 C2060 1.368 . S
C2057 C2038 1.429 . S
C2057 C2051 1.429 . S
C2057 C2058 1.523 . S
C2058 C2039 1.368 . S
C2058 C2052 1.368 . S
C2058 C2057 1.523 . S
C2059 C2043 1.429 . S
C2059 C2055 1.429 . S
C2059 C2060 1.523 . S
C2060 C2044 1.368 . S
C2060 C2056 1.368 . S
C2060 C2059 1.523 . S
H2061 C2036 0.950 . S
H2062 C2038 0.950 . S
H2063 C2039 0.949 . S
H2064 C2041 0.950 . S
H2065 C2043 0.950 . S
C2066 C2067 1.349 . S
C2066 C2068 1.327 . S
C2066 H2091 0.950 . S
C2067 C2066 1.349 . S
C2067 C2083 1.349 . S
C2068 C2066 1.327 . S
C2068 C2087 1.429 . S
C2068 H2092 0.950 . S
C2069 C2086 1.574 . S
C2069 C2088 1.368 . S
C2069 H2093 0.949 . S
H2070 C2074 0.949 . S
C2071 C2072 1.349 . S
C2071 C2073 1.327 . S
C2071 H2094 0.963 . S
C2072 C2071 1.349 . S
C2072 C2084 1.349 . S
C2073 C2071 1.327 . S
C2073 C2089 1.429 . S
C2073 H2095 0.950 . S
C2074 H2070 0.949 . S
C2074 C2082 1.574 . S
C2074 C2090 1.368 . S
H2075 C2083 0.950 . S
H2076 C2081 0.950 . S
H2077 C2082 0.949 . S
H2078 C2084 0.950 . S
H2079 C2085 0.950 . S
H2080 C2086 0.949 . S
C2081 H2076 0.950 . S
C2081 C2083 1.327 . S
C2081 C2087 1.429 . S
C2082 C2074 1.574 . S
C2082 H2077 0.949 . S
C2082 C2088 1.368 . S
C2083 C2067 1.349 . S
C2083 H2075 0.950 . S
C2083 C2081 1.327 . S
C2084 C2072 1.349 . S
C2084 H2078 0.950 . S
C2084 C2085 1.327 . S
C2085 H2079 0.950 . S
C2085 C2084 1.327 . S
C2085 C2089 1.429 . S
C2086 C2069 1.574 . S
C2086 H2080 0.949 . S
C2086 C2090 1.368 . S
C2087 C2068 1.429 . S
C2087 C2081 1.429 . S
C2087 C2088 1.523 . S
C2088 C2069 1.368 . S
C2088 C2082 1.368 . S
C2088 C2087 1.523 . S
C2089 C2073 1.429 . S
C2089 C2085 1.429 . S
C2089 C2090 1.523 . S
C2090 C2074 1.368 . S
C2090 C2086 1.368 . S
C2090 C2089 1.523 . S
H2091 C2066 0.950 . S
H2092 C2068 0.950 . S
H2093 C2069 0.949 . S
H2094 C2071 0.963 . S
H2095 C2073 0.950 . S
C2096 C2097 1.349 . S
C2096 C2098 1.327 . S
C2096 H2121 0.950 . S
C2097 C2096 1.349 . S
C2097 C2113 1.349 . S
C2098 C2096 1.327 . S
C2098 C2117 1.429 . S
C2098 H2122 0.950 . S
C2099 C2116 1.574 . S
C2099 C2118 1.368 . S
C2099 H2123 0.949 . S
H2100 C2104 0.949 . S
C2101 C2102 1.349 . S
C2101 C2103 1.327 . S
C2101 H2124 0.950 . S
C2102 C2101 1.349 . S
C2102 C2114 1.349 . S
C2103 C2101 1.327 . S
C2103 C2119 1.429 . S
C2103 H2125 0.950 . S
C2104 H2100 0.949 . S
C2104 C2112 1.574 . S
C2104 C2120 1.368 . S
H2105 C2113 0.950 . S
H2106 C2111 0.950 . S
H2107 C2112 0.949 . S
H2108 C2114 0.950 . S
H2109 C2115 0.950 . S
H2110 C2116 0.949 . S
C2111 H2106 0.950 . S
C2111 C2113 1.327 . S
C2111 C2117 1.429 . S
C2112 C2104 1.574 . S
C2112 H2107 0.949 . S
C2112 C2118 1.368 . S
C2113 C2097 1.349 . S
C2113 H2105 0.950 . S
C2113 C2111 1.327 . S
C2114 C2102 1.349 . S
C2114 H2108 0.950 . S
C2114 C2115 1.327 . S
C2115 H2109 0.950 . S
C2115 C2114 1.327 . S
C2115 C2119 1.429 . S
C2116 C2099 1.574 . S
C2116 H2110 0.949 . S
C2116 C2120 1.368 . S
C2117 C2098 1.429 . S
C2117 C2111 1.429 . S
C2117 C2118 1.523 . S
C2118 C2099 1.368 . S
C2118 C2112 1.368 . S
C2118 C2117 1.523 . S
C2119 C2103 1.429 . S
C2119 C2115 1.429 . S
C2119 C2120 1.523 . S
C2120 C2104 1.368 . S
C2120 C2116 1.368 . S
C2120 C2119 1.523 . S
H2121 C2096 0.950 . S
H2122 C2098 0.950 . S
H2123 C2099 0.949 . S
H2124 C2101 0.950 . S
H2125 C2103 0.950 . S
C2126 C2127 1.349 . S
C2126 C2128 1.327 . S
C2126 H2151 0.950 . S
C2127 C2126 1.349 . S
C2127 C2143 1.349 . S
C2128 C2126 1.327 . S
C2128 C2147 1.429 . S
C2128 H2152 0.950 . S
C2129 C2146 1.574 . S
C2129 C2148 1.368 . S
C2129 H2153 0.949 . S
H2130 C2134 0.949 . S
C2131 C2132 1.349 . S
C2131 C2133 1.327 . S
C2131 H2154 0.950 . S
C2132 C2131 1.349 . S
C2132 C2144 1.349 . S
C2133 C2131 1.327 . S
C2133 C2149 1.429 . S
C2133 H2155 0.950 . S
C2134 H2130 0.949 . S
C2134 C2142 1.574 . S
C2134 C2150 1.368 . S
H2135 C2143 0.950 . S
H2136 C2141 0.950 . S
H2137 C2142 0.949 . S
H2138 C2144 0.950 . S
H2139 C2145 0.950 . S
H2140 C2146 0.949 . S
C2141 H2136 0.950 . S
C2141 C2143 1.327 . S
C2141 C2147 1.429 . S
C2142 C2134 1.574 . S
C2142 H2137 0.949 . S
C2142 C2148 1.368 . S
C2143 C2127 1.349 . S
C2143 H2135 0.950 . S
C2143 C2141 1.327 . S
C2144 C2132 1.349 . S
C2144 H2138 0.950 . S
C2144 C2145 1.327 . S
C2145 H2139 0.950 . S
C2145 C2144 1.327 . S
C2145 C2149 1.429 . S
C2146 C2129 1.574 . S
C2146 H2140 0.949 . S
C2146 C2150 1.368 . S
C2147 C2128 1.429 . S
C2147 C2141 1.429 . S
C2147 C2148 1.523 . S
C2148 C2129 1.368 . S
C2148 C2142 1.368 . S
C2148 C2147 1.523 . S
C2149 C2133 1.429 . S
C2149 C2145 1.429 . S
C2149 C2150 1.523 . S
C2150 C2134 1.368 . S
C2150 C2146 1.368 . S
C2150 C2149 1.523 . S
H2151 C2126 0.950 . S
H2152 C2128 0.950 . S
H2153 C2129 0.949 . S
H2154 C2131 0.950 . S
H2155 C2133 0.950 . S
C2156 C2157 1.349 . S
C2156 C2158 1.327 . S
C2156 H2181 0.950 . S
C2157 C2156 1.349 . S
C2157 C2173 1.349 . S
C2158 C2156 1.327 . S
C2158 C2177 1.429 . S
C2158 H2182 0.950 . S
C2159 C2176 1.574 . S
C2159 C2178 1.368 . S
C2159 H2183 0.949 . S
H2160 C2164 0.949 . S
C2161 C2162 1.349 . S
C2161 C2163 1.327 . S
C2161 H2184 0.950 . S
C2162 C2161 1.349 . S
C2162 C2174 1.349 . S
C2163 C2161 1.327 . S
C2163 C2179 1.429 . S
C2163 H2185 0.950 . S
C2164 H2160 0.949 . S
C2164 C2172 1.574 . S
C2164 C2180 1.368 . S
H2165 C2173 0.950 . S
H2166 C2171 0.950 . S
H2167 C2172 0.949 . S
H2168 C2174 0.950 . S
H2169 C2175 0.950 . S
H2170 C2176 0.949 . S
C2171 H2166 0.950 . S
C2171 C2173 1.327 . S
C2171 C2177 1.429 . S
C2172 C2164 1.574 . S
C2172 H2167 0.949 . S
C2172 C2178 1.368 . S
C2173 C2157 1.349 . S
C2173 H2165 0.950 . S
C2173 C2171 1.327 . S
C2174 C2162 1.349 . S
C2174 H2168 0.950 . S
C2174 C2175 1.327 . S
C2175 H2169 0.950 . S
C2175 C2174 1.327 . S
C2175 C2179 1.429 . S
C2176 C2159 1.574 . S
C2176 H2170 0.949 . S
C2176 C2180 1.368 . S
C2177 C2158 1.429 . S
C2177 C2171 1.429 . S
C2177 C2178 1.523 . S
C2178 C2159 1.368 . S
C2178 C2172 1.368 . S
C2178 C2177 1.523 . S
C2179 C2163 1.429 . S
C2179 C2175 1.429 . S
C2179 C2180 1.523 . S
C2180 C2164 1.368 . S
C2180 C2176 1.368 . S
C2180 C2179 1.523 . S
H2181 C2156 0.950 . S
H2182 C2158 0.950 . S
H2183 C2159 0.949 . S
H2184 C2161 0.950 . S
H2185 C2163 0.950 . S
C2186 C2187 1.349 . S
C2186 C2188 1.327 . S
C2186 H2211 0.950 . S
C2187 C2186 1.349 . S
C2187 C2203 1.349 . S
C2188 C2186 1.327 . S
C2188 C2207 1.429 . S
C2188 H2212 0.950 . S
C2189 C2206 1.574 . S
C2189 C2208 1.368 . S
C2189 H2213 0.949 . S
H2190 C2194 0.949 . S
C2191 C2192 1.349 . S
C2191 C2193 1.327 . S
C2191 H2214 0.950 . S
C2192 C2191 1.349 . S
C2192 C2204 1.349 . S
C2193 C2191 1.327 . S
C2193 C2209 1.429 . S
C2193 H2215 0.950 . S
C2194 H2190 0.949 . S
C2194 C2202 1.574 . S
C2194 C2210 1.368 . S
H2195 C2203 0.950 . S
H2196 C2201 0.950 . S
H2197 C2202 0.949 . S
H2198 C2204 0.950 . S
H2199 C2205 0.950 . S
H2200 C2206 0.949 . S
C2201 H2196 0.950 . S
C2201 C2203 1.327 . S
C2201 C2207 1.429 . S
C2202 C2194 1.574 . S
C2202 H2197 0.949 . S
C2202 C2208 1.368 . S
C2203 C2187 1.349 . S
C2203 H2195 0.950 . S
C2203 C2201 1.327 . S
C2204 C2192 1.349 . S
C2204 H2198 0.950 . S
C2204 C2205 1.327 . S
C2205 H2199 0.950 . S
C2205 C2204 1.327 . S
C2205 C2209 1.429 . S
C2206 C2189 1.574 . S
C2206 H2200 0.949 . S
C2206 C2210 1.368 . S
C2207 C2188 1.429 . S
C2207 C2201 1.429 . S
C2207 C2208 1.523 . S
C2208 C2189 1.368 . S
C2208 C2202 1.368 . S
C2208 C2207 1.523 . S
C2209 C2193 1.429 . S
C2209 C2205 1.429 . S
C2209 C2210 1.523 . S
C2210 C2194 1.368 . S
C2210 C2206 1.368 . S
C2210 C2209 1.523 . S
H2211 C2186 0.950 . S
H2212 C2188 0.950 . S
H2213 C2189 0.949 . S
H2214 C2191 0.950 . S
H2215 C2193 0.950 . S
C2216 C2217 1.349 . S
C2216 C2218 1.327 . S
C2216 H2241 0.950 . S
C2217 C2216 1.349 . S
C2217 C2233 1.349 1_554 S
C2218 C2216 1.327 . S
C2218 C2237 1.429 . S
C2218 H2242 0.950 . S
C2219 C2236 1.574 . S
C2219 C2238 1.368 1_556 S
C2219 H2243 0.949 . S
H2220 C2224 0.949 . S
C2221 C2222 1.349 1_556 S
C2221 C2223 1.327 . S
C2221 H2244 0.950 . S
C2222 C2221 1.349 1_554 S
C2222 C2234 1.349 . S
C2223 C2221 1.327 . S
C2223 C2239 1.429 1_556 S
C2223 H2245 0.950 . S
C2224 H2220 0.949 . S
C2224 C2232 1.574 . S
C2224 C2240 1.368 . S
H2225 C2233 0.950 . S
H2226 C2231 0.950 . S
H2227 C2232 0.949 . S
H2228 C2234 0.950 . S
H2229 C2235 0.950 . S
H2230 C2236 0.949 . S
C2231 H2226 0.950 . S
C2231 C2233 1.327 . S
C2231 C2237 1.429 1_556 S
C2232 C2224 1.574 . S
C2232 H2227 0.949 . S
C2232 C2238 1.368 . S
C2233 C2217 1.349 1_556 S
C2233 H2225 0.950 . S
C2233 C2231 1.327 . S
C2234 C2222 1.349 . S
C2234 H2228 0.950 . S
C2234 C2235 1.327 . S
C2235 H2229 0.950 . S
C2235 C2234 1.327 . S
C2235 C2239 1.429 . S
C2236 C2219 1.574 . S
C2236 H2230 0.949 . S
C2236 C2240 1.368 1_556 S
C2237 C2218 1.429 . S
C2237 C2231 1.429 1_554 S
C2237 C2238 1.523 . S
C2238 C2219 1.368 1_554 S
C2238 C2232 1.368 . S
C2238 C2237 1.523 . S
C2239 C2223 1.429 1_554 S
C2239 C2235 1.429 . S
C2239 C2240 1.523 . S
C2240 C2224 1.368 . S
C2240 C2236 1.368 1_554 S
C2240 C2239 1.523 . S
H2241 C2216 0.950 . S
H2242 C2218 0.950 . S
H2243 C2219 0.949 . S
H2244 C2221 0.950 . S
H2245 C2223 0.950 . S
C2246 C2247 1.349 . S
C2246 C2248 1.327 . S
C2246 H2271 0.950 . S
C2247 C2246 1.349 . S
C2247 C2263 1.349 . S
C2248 C2246 1.327 . S
C2248 C2267 1.429 . S
C2248 H2272 0.950 . S
C2249 C2266 1.574 . S
C2249 C2268 1.368 . S
C2249 H2273 0.949 . S
H2250 C2254 0.949 . S
C2251 C2252 1.349 . S
C2251 C2253 1.327 . S
C2251 H2274 0.950 . S
C2252 C2251 1.349 . S
C2252 C2264 1.349 . S
C2253 C2251 1.327 . S
C2253 C2269 1.429 . S
C2253 H2275 0.950 . S
C2254 H2250 0.949 . S
C2254 C2262 1.574 . S
C2254 C2270 1.368 . S
H2255 C2263 0.950 . S
H2256 C2261 0.950 . S
H2257 C2262 0.949 . S
H2258 C2264 0.950 . S
H2259 C2265 0.950 . S
H2260 C2266 0.949 . S
C2261 H2256 0.950 . S
C2261 C2263 1.327 . S
C2261 C2267 1.429 . S
C2262 C2254 1.574 . S
C2262 H2257 0.949 . S
C2262 C2268 1.368 . S
C2263 C2247 1.349 . S
C2263 H2255 0.950 . S
C2263 C2261 1.327 . S
C2264 C2252 1.349 . S
C2264 H2258 0.950 . S
C2264 C2265 1.327 . S
C2265 H2259 0.950 . S
C2265 C2264 1.327 . S
C2265 C2269 1.429 . S
C2266 C2249 1.574 . S
C2266 H2260 0.949 . S
C2266 C2270 1.368 . S
C2267 C2248 1.429 . S
C2267 C2261 1.429 . S
C2267 C2268 1.523 . S
C2268 C2249 1.368 . S
C2268 C2262 1.368 . S
C2268 C2267 1.523 . S
C2269 C2253 1.429 . S
C2269 C2265 1.429 . S
C2269 C2270 1.523 . S
C2270 C2254 1.368 . S
C2270 C2266 1.368 . S
C2270 C2269 1.523 . S
H2271 C2246 0.950 . S
H2272 C2248 0.950 . S
H2273 C2249 0.949 . S
H2274 C2251 0.950 . S
H2275 C2253 0.950 . S
C2276 C2277 1.349 . S
C2276 C2278 1.327 . S
C2276 H2301 0.950 . S
C2277 C2276 1.349 . S
C2277 C2293 1.349 1_556 S
C2278 C2276 1.327 . S
C2278 C2297 1.429 . S
C2278 H2302 0.950 . S
C2279 C2296 1.574 . S
C2279 C2298 1.368 1_554 S
C2279 H2303 0.949 . S
H2280 C2284 0.949 . S
C2281 C2282 1.349 1_554 S
C2281 C2283 1.327 . S
C2281 H2304 0.950 . S
C2282 C2281 1.349 1_556 S
C2282 C2294 1.349 . S
C2283 C2281 1.327 . S
C2283 C2299 1.429 1_554 S
C2283 H2305 0.950 . S
C2284 H2280 0.949 . S
C2284 C2292 1.574 . S
C2284 C2300 1.368 . S
H2285 C2293 0.950 . S
H2286 C2291 0.950 . S
H2287 C2292 0.949 . S
H2288 C2294 0.950 . S
H2289 C2295 0.950 . S
H2290 C2296 0.949 . S
C2291 H2286 0.950 . S
C2291 C2293 1.327 . S
C2291 C2297 1.429 1_554 S
C2292 C2284 1.574 . S
C2292 H2287 0.949 . S
C2292 C2298 1.368 . S
C2293 C2277 1.349 1_554 S
C2293 H2285 0.950 . S
C2293 C2291 1.327 . S
C2294 C2282 1.349 . S
C2294 H2288 0.950 . S
C2294 C2295 1.327 . S
C2295 H2289 0.950 . S
C2295 C2294 1.327 . S
C2295 C2299 1.429 . S
C2296 C2279 1.574 . S
C2296 H2290 0.949 . S
C2296 C2300 1.368 1_554 S
C2297 C2278 1.429 . S
C2297 C2291 1.429 1_556 S
C2297 C2298 1.523 . S
C2298 C2279 1.368 1_556 S
C2298 C2292 1.368 . S
C2298 C2297 1.523 . S
C2299 C2283 1.429 1_556 S
C2299 C2295 1.429 . S
C2299 C2300 1.523 . S
C2300 C2284 1.368 . S
C2300 C2296 1.368 1_556 S
C2300 C2299 1.523 . S
H2301 C2276 0.950 . S
H2302 C2278 0.950 . S
H2303 C2279 0.949 . S
H2304 C2281 0.950 . S
H2305 C2283 0.950 . S
C2306 C2307 1.349 . S
C2306 C2308 1.327 . S
C2306 H2331 0.950 . S
C2307 C2306 1.349 . S
C2307 C2323 1.349 . S
C2308 C2306 1.327 . S
C2308 C2327 1.429 . S
C2308 H2332 0.950 . S
C2309 C2326 1.574 . S
C2309 C2328 1.368 . S
C2309 H2333 0.949 . S
H2310 C2314 0.949 . S
C2311 C2312 1.349 . S
C2311 C2313 1.327 . S
C2311 H2334 0.950 . S
C2312 C2311 1.349 . S
C2312 C2324 1.349 . S
C2313 C2311 1.327 . S
C2313 C2329 1.429 . S
C2313 H2335 0.950 . S
C2314 H2310 0.949 . S
C2314 C2322 1.574 . S
C2314 C2330 1.368 . S
H2315 C2323 0.950 . S
H2316 C2321 0.950 . S
H2317 C2322 0.949 . S
H2318 C2324 0.950 . S
H2319 C2325 0.950 . S
H2320 C2326 0.949 . S
C2321 H2316 0.950 . S
C2321 C2323 1.327 . S
C2321 C2327 1.429 . S
C2322 C2314 1.574 . S
C2322 H2317 0.949 . S
C2322 C2328 1.368 . S
C2323 C2307 1.349 . S
C2323 H2315 0.950 . S
C2323 C2321 1.327 . S
C2324 C2312 1.349 . S
C2324 H2318 0.950 . S
C2324 C2325 1.327 . S
C2325 H2319 0.950 . S
C2325 C2324 1.327 . S
C2325 C2329 1.429 . S
C2326 C2309 1.574 . S
C2326 H2320 0.949 . S
C2326 C2330 1.368 . S
C2327 C2308 1.429 . S
C2327 C2321 1.429 . S
C2327 C2328 1.523 . S
C2328 C2309 1.368 . S
C2328 C2322 1.368 . S
C2328 C2327 1.523 . S
C2329 C2313 1.429 . S
C2329 C2325 1.429 . S
C2329 C2330 1.523 . S
C2330 C2314 1.368 . S
C2330 C2326 1.368 . S
C2330 C2329 1.523 . S
H2331 C2306 0.950 . S
H2332 C2308 0.950 . S
H2333 C2309 0.949 . S
H2334 C2311 0.950 . S
H2335 C2313 0.950 . S
C417 C3 1.418 . S
C422 C44 1.410 . S
C447 C31 1.416 . S
C452 C16 1.412 . S
C477 C94 1.416 . S
C482 C57 1.412 . S
C507 C81 1.416 . S
C512 C68 1.412 . S
C537 C107 1.448 . S
C542 C146 1.448 . S
C567 C120 1.448 . S
C572 C133 1.449 . S
C597 C200 1.448 . S
C602 C161 1.448 . S
C627 C185 1.449 . S
C632 C172 1.448 . S
C657 C211 1.448 . S
C662 C252 1.448 . S
C687 C224 1.448 . S
C692 C239 1.448 . S
C717 C265 1.448 . S
C722 C302 1.448 . S
C747 C278 1.448 . S
C752 C289 1.448 . S
C777 C317 1.418 . S
C782 C354 1.410 . S
C807 C341 1.416 . S
C812 C328 1.412 . S
C837 C406 1.416 . S
C842 C367 1.412 . S
C867 C393 1.416 . S
C872 C382 1.412 . S
C897 C4 1.124 . S
C902 C62 1.122 . S
C927 C387 1.124 . S
C932 C17 1.122 . S
C957 C36 1.158 . S
C962 C186 1.158 . S
C987 C303 1.158 . S
C992 C49 1.159 . S
C1017 C329 1.124 . S
C1022 C69 1.122 . S
C1047 C82 1.158 . S
C1052 C134 1.158 . S
C1077 C95 1.159 . S
C1082 C257 1.158 . S
C1107 C166 1.144 . S
C1112 C108 1.144 . S
C1137 C283 1.145 . S
C1142 C121 1.145 . S
C1167 C147 1.159 . S
C1172 C407 1.159 . S
C1197 C173 1.145 . S
C1202 C225 1.145 . S
C1227 C205 1.159 . S
C1232 C355 1.159 . S
C1257 C270 1.145 . S
C1262 C212 1.145 . S
C1287 C244 1.159 . S
C1292 C394 1.159 . S
C1317 C290 1.159 . S
C1322 C342 1.159 . S
C1347 C368 1.123 . S
C1352 C322 1.122 . S
C1377 C10 1.212 . S
C1382 C251 1.219 . S
C1407 C23 1.212 . S
C1412 C238 1.218 . S
C1437 C231 1.191 . S
C1442 C30 1.191 . S
C1467 C218 1.191 . S
C1472 C43 1.191 . S
C1497 C56 1.212 . S
C1502 C309 1.219 . S
C1527 C75 1.212 . S
C1532 C296 1.218 . S
C1557 C88 1.191 . S
C1562 C277 1.191 . S
C1587 C264 1.191 . S
C1592 C101 1.191 . S
C1617 C114 1.191 . S
C1622 C361 1.191 . S
C1647 C348 1.191 . S
C1652 C127 1.191 . S
C1677 C335 1.212 . S
C1682 C140 1.219 . S
C1707 C153 1.212 . S
C1712 C316 1.218 . S
C1737 C160 1.191 . S
C1742 C413 1.191 . S
C1767 C179 1.191 . S
C1772 C400 1.191 . S
C1797 C381 1.212 . S
C1802 C192 1.219 . S
C1827 C199 1.212 . S
C1832 C374 1.218 . S
C1857 C18 1.332 . S
C1862 C5 1.332 . S
C1887 C29 1.339 . S
C1892 C42 1.339 . S
C1917 C70 1.332 . S
C1922 C55 1.332 . S
C1947 C83 1.339 . S
C1952 C96 1.339 . S
C1977 C122 1.336 . S
C1982 C109 1.336 . S
C2007 C135 1.332 . S
C2012 C148 1.332 . S
C2037 C159 1.336 . S
C2042 C174 1.336 . S
C2067 C187 1.332 . S
C2072 C198 1.332 . S
C2097 C213 1.336 . S
C2102 C226 1.336 . S
C2127 C250 1.331 . S
C2132 C237 1.331 . S
C2157 C263 1.336 . S
C2162 C276 1.336 . S
C2187 C304 1.331 . S
C2192 C291 1.331 . S
C2217 C330 1.331 . S
C2222 C315 1.331 . S
C2247 C343 1.340 . S
C2252 C356 1.340 . S
C2277 C369 1.332 . S
C2282 C380 1.332 . S
C2307 C408 1.340 . S
C2312 C395 1.340 . S
