# Generated by pormake.
# Topology qtz, (4)-cn, num edge types: 1
# Building blocks:
#     Node 0, Type 0, BuildingBlock: QUQFOY_clean_sbu_3, # of connection points: 4
#     Node 1, Type 0, BuildingBlock: QUQFOY_clean_sbu_3, # of connection points: 4
#     Node 2, Type 0, BuildingBlock: QUQFOY_clean_sbu_3, # of connection points: 4
#     Edge 3, Type (0, 0), BuildingBlock: MIFKUJ_clean_linker_0, # of connection points: 2
#     Edge 4, Type (0, 0), BuildingBlock: MIFKUJ_clean_linker_0, # of connection points: 2
#     Edge 5, Type (0, 0), BuildingBlock: MIFKUJ_clean_linker_0, # of connection points: 2
#     Edge 6, Type (0, 0), BuildingBlock: MIFKUJ_clean_linker_0, # of connection points: 2
#     Edge 7, Type (0, 0), BuildingBlock: MIFKUJ_clean_linker_0, # of connection points: 2
#     Edge 8, Type (0, 0), BuildingBlock: MIFKUJ_clean_linker_0, # of connection points: 2
# Relax obj value: 0.008
# Max RMSD: 0.054
# Mean RMSD: 0.048
data_MOF--net-qtz--node1-QUQFOY_clean_sbu_3--edge1-MIFKUJ_clean_linker_0
_symmetry_space_group_name_H-M    P1
_symmetry_Int_Tables_number       1
_symmetry_cell_setting            triclinic
loop_
_symmetry_equiv_pos_as_xyz
'x, y, z'
_cell_length_a     30.897886
_cell_length_b     30.520048
_cell_length_c     38.447421
_cell_angle_alpha  90.152804
_cell_angle_beta   91.120928
_cell_angle_gamma 121.51713
loop_
_atom_site_label
_atom_site_type_symbol
_atom_site_fract_x
_atom_site_fract_y
_atom_site_fract_z
_atom_type_partial_charge
C0 C 0.94395 0.52533 0.12768 0.0
O1 O 0.95779 0.55545 0.15396 0.0
Cd2 Cd 0.01899 0.56676 0.19786 0.0
O3 O 0.96334 0.49795 0.12221 0.0
Cd4 Cd 0.02754 0.48158 0.14859 0.0
C5 C 0.96118 0.44014 0.22331 0.0
O6 O 0.0851 0.5694 0.16597 0.0
O7 O 0.107 0.51676 0.18344 0.0
O8 O 0.05399 0.4782 0.09027 0.0
C9 C 0.11667 0.56253 0.18267 0.0
O10 O 0.97527 0.48678 0.2298 0.0
C11 C 0.05295 0.43635 0.09406 0.0
O12 O 0.97282 0.42729 0.19501 0.0
O13 O 0.03809 0.41415 0.1231 0.0
C14 C 0.4488 0.08565 0.51539 0.0
O15 O 0.42526 0.07721 0.48635 0.0
Cd16 Cd 0.42796 0.02317 0.44181 0.0
O17 O 0.47302 0.06345 0.52267 0.0
Cd18 Cd 0.4921 0.00057 0.49911 0.0
C19 C 0.55779 0.08086 0.43404 0.0
O20 O 0.41184 0.94549 0.46834 0.0
O21 O 0.47162 0.93052 0.45868 0.0
O22 O 0.47204 0.95874 0.5548 0.0
C23 C 0.42614 0.91856 0.45294 0.0
O24 O 0.51489 0.07052 0.42156 0.0
C25 C 0.5147 0.96287 0.56006 0.0
O26 O 0.56113 0.06248 0.463 0.0
O27 O 0.54785 0.98556 0.53693 0.0
C28 C 0.62458 0.55159 0.86379 0.0
O29 O 0.6482 0.58098 0.8387 0.0
Cd30 Cd 0.60941 0.60094 0.7918 0.0
O31 O 0.5765 0.52987 0.86556 0.0
Cd32 Cd 0.50535 0.52583 0.83173 0.0
C33 C 0.52934 0.48048 0.75796 0.0
O34 O 0.55027 0.61722 0.81935 0.0
O35 O 0.4751 0.57183 0.79644 0.0
O36 O 0.46271 0.51803 0.88606 0.0
C37 C 0.51488 0.61567 0.8012 0.0
O38 O 0.56872 0.5248 0.75411 0.0
C39 C 0.42155 0.47714 0.87712 0.0
O40 O 0.50165 0.47067 0.78436 0.0
O41 O 0.4197 0.4585 0.84719 0.0
H42 H 0.41261 0.51379 0.93954 0.0
H43 H 0.33713 0.47978 0.97457 0.0
H44 H 0.25436 0.35356 0.90152 0.0
H45 H 0.32977 0.38829 0.86572 0.0
H46 H 0.19996 0.39296 0.91573 0.0
H47 H 0.28493 0.33238 0.98428 0.0
H48 H 0.35612 0.33429 0.01586 0.0
H49 H 0.36784 0.4501 0.08583 0.0
H50 H 0.29723 0.44949 0.05438 0.0
H51 H 0.06192 0.35166 0.09625 0.0
H52 H 0.1079 0.32939 0.05571 0.0
H53 H 0.1376 0.45793 0.99187 0.0
H54 H 0.09085 0.47937 0.03149 0.0
H55 H 0.20357 0.38411 0.04447 0.0
H56 H 0.15776 0.44446 0.91041 0.0
H57 H 0.08294 0.4343 0.87859 0.0
H58 H 0.98492 0.30167 0.93885 0.0
H59 H 0.05915 0.31049 0.97069 0.0
C60 C 0.37858 0.47845 0.93111 0.0
C61 C 0.37711 0.4538 0.89983 0.0
C62 C 0.33547 0.45879 0.95131 0.0
C63 C 0.29019 0.41368 0.94095 0.0
C64 C 0.28892 0.38831 0.91008 0.0
C65 C 0.33204 0.40817 0.8897 0.0
C66 C 0.24353 0.3959 0.96109 0.0
C67 C 0.20042 0.39035 0.94385 0.0
C68 C 0.24334 0.39047 -0.00237 0.0
C69 C 0.28579 0.39096 0.01685 0.0
C70 C 0.30287 0.35848 0.00628 0.0
C71 C 0.34311 0.35931 0.02418 0.0
C72 C 0.36651 0.39232 0.05282 0.0
C73 C 0.34965 0.42452 0.06366 0.0
C74 C 0.30943 0.42387 0.04584 0.0
C75 C 0.07716 0.37432 0.07308 0.0
C76 C 0.07307 0.41748 0.06717 0.0
C77 C 0.10351 0.36162 0.04999 0.0
C78 C 0.126 0.39175 0.02061 0.0
C79 C 0.11975 0.43335 0.0139 0.0
C80 C 0.09328 0.44586 0.03679 0.0
C81 C 0.16132 0.38442 -0.00072 0.0
C82 C 0.20238 0.38525 0.01629 0.0
C83 C 0.159 0.38415 0.96247 0.0
C84 C 0.11415 0.37828 0.94306 0.0
C85 C 0.1203 0.41287 0.91672 0.0
C86 C 0.07796 0.40741 0.89872 0.0
C87 C 0.02921 0.36741 0.90673 0.0
C88 C 0.0227 0.33272 0.93272 0.0
C89 C 0.0649 0.33798 0.9508 0.0
H90 H -0.00352 0.36328 0.89277 0.0
H91 H 0.39767 0.39292 0.06664 0.0
H92 H 0.93177 0.33826 0.22334 0.0
H93 H 0.8723 0.27183 0.26259 0.0
H94 H 0.85636 0.38541 0.31826 0.0
H95 H 0.91671 0.45194 0.28016 0.0
H96 H 0.85545 0.32078 0.36251 0.0
H97 H 0.77134 0.30782 0.252 0.0
H98 H 0.75925 0.29677 0.18826 0.0
H99 H 0.74517 0.14942 0.1949 0.0
H100 H 0.75778 0.15993 0.25868 0.0
H101 H 0.56581 0.13747 0.3772 0.0
H102 H 0.64135 0.19309 0.34429 0.0
H103 H 0.72987 0.15541 0.41208 0.0
H104 H 0.65427 0.10033 0.44593 0.0
H105 H 0.70003 0.17496 0.30711 0.0
H106 H 0.85195 0.26052 0.41752 0.0
H107 H 0.85884 0.2792 0.48058 0.0
H108 H 0.72785 0.29343 0.47325 0.0
H109 H 0.72061 0.27547 0.41012 0.0
C110 C 0.916 0.34912 0.2442 0.0
C111 C 0.92853 0.40028 0.24836 0.0
C112 C 0.88199 0.31112 0.26657 0.0
C113 C 0.85929 0.32352 0.29304 0.0
C114 C 0.87342 0.37491 0.29808 0.0
C115 C 0.90779 0.41291 0.27608 0.0
C116 C 0.81816 0.28303 0.31403 0.0
C117 C 0.82168 0.28856 0.35043 0.0
C118 C 0.77381 0.24135 0.29828 0.0
C119 C 0.7661 0.23493 0.26 0.0
C120 C 0.76601 0.27324 0.23982 0.0
C121 C 0.75902 0.26705 0.2037 0.0
C122 C 0.75162 0.2225 0.18753 0.0
C123 C 0.75103 0.18396 0.20745 0.0
C124 C 0.75808 0.19 0.24358 0.0
C125 C 0.60128 0.14094 0.38523 0.0
C126 C 0.60403 0.11457 0.41429 0.0
C127 C 0.64444 0.17262 0.36624 0.0
C128 C 0.69129 0.17854 0.37575 0.0
C129 C 0.69421 0.15187 0.40453 0.0
C130 C 0.65098 0.12039 0.42381 0.0
C131 C 0.7368 0.21338 0.35554 0.0
C132 C 0.73421 0.20656 0.31928 0.0
C133 C 0.78124 0.25483 0.37135 0.0
C134 C 0.78538 0.26596 0.40923 0.0
C135 C 0.82469 0.2677 0.42939 0.0
C136 C 0.82866 0.27818 0.46513 0.0
C137 C 0.79368 0.28728 0.48093 0.0
C138 C 0.75478 0.28614 0.46101 0.0
C139 C 0.75069 0.27575 0.42526 0.0
H140 H 0.79679 0.29535 0.5086 0.0
H141 H 0.7462 0.21777 0.15956 0.0
H142 H 0.44574 0.90029 0.60717 0.0
H143 H 0.45842 0.85598 0.65503 0.0
H144 H 0.61732 0.92954 0.63132 0.0
H145 H 0.60433 0.97284 0.58223 0.0
H146 H 0.58069 0.83286 0.63978 0.0
H147 H 0.57598 0.95992 0.70715 0.0
H148 H 0.54533 0.01562 0.72704 0.0
H149 H 0.40519 0.883 0.7578 0.0
H150 H 0.43465 0.82639 0.73763 0.0
H151 H 0.60384 0.70514 0.78894 0.0
H152 H 0.61521 0.77797 0.75472 0.0
H153 H 0.45294 0.70246 0.73934 0.0
H154 H 0.44125 0.62913 0.77292 0.0
H155 H 0.50732 0.8134 0.75649 0.0
H156 H 0.51118 0.68872 0.67851 0.0
H157 H 0.54498 0.63528 0.6596 0.0
H158 H 0.69352 0.77029 0.65115 0.0
H159 H 0.66067 0.82446 0.67054 0.0
C160 C 0.48357 0.90761 0.61234 0.0
C161 C 0.52404 0.93997 0.59089 0.0
C162 C 0.49088 0.88252 0.63996 0.0
C163 C 0.53904 0.89004 0.64722 0.0
C164 C 0.57987 0.92332 0.62631 0.0
C165 C 0.57243 0.94805 0.59831 0.0
C166 C 0.5452 0.85957 0.67472 0.0
C167 C 0.56582 0.82974 0.66559 0.0
C168 C 0.52545 0.855 0.70837 0.0
C169 C 0.50748 0.88886 0.72068 0.0
C170 C 0.53849 0.94258 0.71794 0.0
C171 C 0.52134 0.97433 0.7293 0.0
C172 C 0.47332 0.95286 0.74363 0.0
C173 C 0.44238 0.89958 0.7467 0.0
C174 C 0.45933 0.86764 0.73536 0.0
C175 C 0.57058 0.70438 0.77861 0.0
C176 C 0.52165 0.66143 0.78335 0.0
C177 C 0.57717 0.74592 0.75912 0.0
C178 C 0.53489 0.74533 0.74458 0.0
C179 C 0.48594 0.70352 0.75053 0.0
C180 C 0.47936 0.66164 0.7695 0.0
C181 C 0.54149 0.78632 0.72099 0.0
C182 C 0.52322 0.81782 0.73091 0.0
C183 C 0.56404 0.79304 0.68828 0.0
C184 C 0.58364 0.76052 0.6764 0.0
C185 C 0.55114 0.70694 0.67294 0.0
C186 C 0.5701 0.67654 0.66207 0.0
C187 C 0.62141 0.69936 0.65429 0.0
C188 C 0.65382 0.75266 0.65726 0.0
C189 C 0.63505 0.78322 0.66818 0.0
H190 H 0.63601 0.67576 0.64587 0.0
H191 H 0.46011 0.97751 0.75241 0.0
H192 H 0.5881 0.49648 0.92351 0.0
H193 H 0.63702 0.48778 0.97086 0.0
H194 H 0.77476 0.57925 0.9143 0.0
H195 H 0.7265 0.58882 0.86716 0.0
H196 H 0.697 0.44795 0.97516 0.0
H197 H 0.86965 0.65716 0.97053 0.0
H198 H 0.88776 0.74349 0.95508 0.0
H199 H 0.73418 0.69802 0.9771 0.0
H200 H 0.71536 0.6117 0.99314 0.0
H201 H 0.91276 0.47448 0.06482 0.0
H202 H 0.85215 0.47406 0.02284 0.0
H203 H 0.82702 0.56929 0.09248 0.0
H204 H 0.88826 0.57083 0.13426 0.0
H205 H 0.84142 0.60589 0.02966 0.0
H206 H 0.73726 0.44136 0.0799 0.0
H207 H 0.71414 0.35508 0.09954 0.0
H208 H 0.72098 0.31089 -0.00537 0.0
H209 H 0.74487 0.39719 0.97441 0.0
C210 C 0.62879 0.5146 0.92107 0.0
C211 C 0.65345 0.54375 0.89167 0.0
C212 C 0.65662 0.50943 0.94811 0.0
C213 C 0.70953 0.53343 0.94626 0.0
C214 C 0.73402 0.56114 0.91649 0.0
C215 C 0.70632 0.56645 0.88952 0.0
C216 C 0.73953 0.53075 0.97577 0.0
C217 C 0.72856 0.48241 0.98715 0.0
C218 C 0.77988 0.57577 0.99191 0.0
C219 C 0.79101 0.62782 0.98271 0.0
C220 C 0.83981 0.66566 0.97221 0.0
C221 C 0.85019 0.71458 0.96333 0.0
C222 C 0.8121 0.72618 0.965 0.0
C223 C 0.7636 0.68894 0.97568 0.0
C224 C 0.75304 0.63999 0.98463 0.0
C225 C 0.89411 0.49507 0.07132 0.0
C226 C 0.9055 0.52284 0.10285 0.0
C227 C 0.85927 0.49457 0.04736 0.0
C228 C 0.83476 0.5213 0.05467 0.0
C229 C 0.84556 0.54846 0.0863 0.0
C230 C 0.88056 0.54924 0.11017 0.0
C231 C 0.79971 0.52305 0.02864 0.0
C232 C 0.80978 0.57132 0.01783 0.0
C233 C 0.75785 0.47795 0.01366 0.0
C234 C 0.74329 0.42591 0.02569 0.0
C235 C 0.73422 0.41338 0.06105 0.0
C236 C 0.7209 0.36445 0.07228 0.0
C237 C 0.7162 0.32757 0.04836 0.0
C238 C 0.72468 0.33951 0.01313 0.0
C239 C 0.73806 0.38842 0.00176 0.0
H240 H 0.70589 0.2897 0.05711 0.0
H241 H 0.8202 0.76406 0.95809 0.0
H242 H 0.44116 0.84661 0.42325 0.0
H243 H 0.39063 0.78551 0.37655 0.0
H244 H 0.28921 0.84297 0.37486 0.0
H245 H 0.33865 0.90297 0.42241 0.0
H246 H 0.23672 0.74332 0.36831 0.0
H247 H 0.3836 0.87933 0.31397 0.0
H248 H 0.47503 0.93931 0.30518 0.0
H249 H 0.49475 0.81214 0.28628 0.0
H250 H 0.4035 0.75134 0.29544 0.0
H251 H 0.12577 0.65314 0.20131 0.0
H252 H 0.18245 0.71416 0.2462 0.0
H253 H 0.25139 0.62394 0.26236 0.0
H254 H 0.19413 0.56198 0.21772 0.0
H255 H 0.32084 0.73833 0.26092 0.0
H256 H 0.17015 0.60303 0.31535 0.0
H257 H 0.07748 0.54666 0.32096 0.0
H258 H 0.06453 0.67865 0.33674 0.0
H259 H 0.15709 0.73588 0.33058 0.0
C260 C 0.40789 0.84596 0.41305 0.0
C261 C 0.39392 0.87965 0.42629 0.0
C262 C 0.37924 0.81126 0.38624 0.0
C263 C 0.33675 0.8104 0.37175 0.0
C264 C 0.32197 0.84311 0.38559 0.0
C265 C 0.35023 0.87736 0.41272 0.0
C266 C 0.30785 0.77566 0.342 0.0
C267 C 0.25514 0.74272 0.34473 0.0
C268 C 0.33194 0.77431 0.31136 0.0
C269 C 0.38681 0.81077 0.30575 0.0
C270 C 0.4075 0.86414 0.30821 0.0
C271 C 0.45928 0.89829 0.30311 0.0
C272 C 0.49071 0.87954 0.29527 0.0
C273 C 0.47038 0.8266 0.29241 0.0
C274 C 0.41862 0.79228 0.29753 0.0
C275 C 0.15348 0.64663 0.21401 0.0
C276 C 0.1553 0.6026 0.20628 0.0
C277 C 0.18572 0.68147 0.23964 0.0
C278 C 0.22058 0.67309 0.25762 0.0
C279 C 0.22456 0.6308 0.24866 0.0
C280 C 0.1918 0.59549 0.22331 0.0
C281 C 0.25018 0.70655 0.28744 0.0
C282 C 0.30279 0.73908 0.28466 0.0
C283 C 0.226 0.70813 0.31782 0.0
C284 C 0.17047 0.67374 0.32216 0.0
C285 C 0.14749 0.62005 0.31973 0.0
C286 C 0.09499 0.58794 0.32305 0.0
C287 C 0.06512 0.60906 0.32912 0.0
C288 C 0.08771 0.66235 0.33199 0.0
C289 C 0.14019 0.69463 0.32861 0.0
H290 H 0.02447 0.58414 0.33166 0.0
H291 H 0.53079 0.90604 0.29133 0.0
H292 H 0.43838 0.39041 0.74802 0.0
H293 H 0.41753 0.32211 0.70545 0.0
H294 H 0.56995 0.40921 0.66701 0.0
H295 H 0.5904 0.47837 0.70854 0.0
H296 H 0.50719 0.3675 0.61485 0.0
H297 H 0.53046 0.30715 0.7251 0.0
H298 H 0.51449 0.28447 0.78701 0.0
H299 H 0.35847 0.1723 0.76184 0.0
H300 H 0.3734 0.1948 0.69982 0.0
H301 H 0.49753 0.11396 0.57879 0.0
H302 H 0.50412 0.17902 0.61904 0.0
H303 H 0.40865 0.20611 0.55036 0.0
H304 H 0.40255 0.14147 0.50939 0.0
H305 H 0.43833 0.18928 0.65542 0.0
H306 H 0.45122 0.33479 0.55396 0.0
H307 H 0.47825 0.35983 0.49356 0.0
H308 H 0.58099 0.30548 0.5038 0.0
H309 H 0.55506 0.28078 0.56436 0.0
C310 C 0.46738 0.39504 0.73041 0.0
C311 C 0.51613 0.43962 0.73176 0.0
C312 C 0.45545 0.35592 0.70616 0.0
C313 C 0.4924 0.36017 0.68338 0.0
C314 C 0.54079 0.40509 0.68429 0.0
C315 C 0.55249 0.44453 0.70813 0.0
C316 C 0.48131 0.31753 0.65907 0.0
C317 C 0.49186 0.32849 0.62372 0.0
C318 C 0.46193 0.2667 0.67066 0.0
C319 C 0.45292 0.25304 0.7079 0.0
C320 C 0.49267 0.27791 0.73282 0.0
C321 C 0.48382 0.26505 0.76791 0.0
C322 C 0.43546 0.22708 0.77836 0.0
C323 C 0.39588 0.20178 0.75372 0.0
C324 C 0.40452 0.21454 0.71859 0.0
C325 C 0.47767 0.1335 0.57221 0.0
C326 C 0.44981 0.12277 0.5407 0.0
C327 C 0.48133 0.17056 0.59538 0.0
C328 C 0.45729 0.19771 0.58755 0.0
C329 C 0.42808 0.18605 0.55665 0.0
C330 C 0.42453 0.14901 0.53334 0.0
C331 C 0.4645 0.23939 0.61133 0.0
C332 C 0.45305 0.22819 0.64653 0.0
C333 C 0.48454 0.2903 0.59982 0.0
C334 C 0.50069 0.30537 0.56352 0.0
C335 C 0.47964 0.3283 0.54332 0.0
C336 C 0.49478 0.34243 0.50907 0.0
C337 C 0.53116 0.33406 0.49481 0.0
C338 C 0.55265 0.31174 0.51482 0.0
C339 C 0.53769 0.29761 0.54909 0.0
H340 H 0.5428 0.345 0.46828 0.0
H341 H 0.42868 0.21717 0.80555 0.0
loop_
_geom_bond_atom_site_label_1
_geom_bond_atom_site_label_2
_geom_bond_distance
_geom_bond_site_symmetry_2
_ccdc_geom_bond_type
C0 O1 1.306 . S
C0 O3 1.160 . S
O1 C0 1.306 . S
O1 Cd2 2.228 . S
Cd2 O1 2.228 . S
Cd2 O6 2.273 1_655 S
Cd2 O10 2.277 . S
O3 C0 1.160 . S
O3 Cd4 2.203 1_655 S
Cd4 O3 2.203 1_455 S
Cd4 O6 2.411 . S
Cd4 O7 2.333 . S
Cd4 O8 2.352 . S
Cd4 O12 2.277 1_455 S
Cd4 O13 2.356 . S
C5 O10 1.209 . S
C5 O12 1.226 . S
O6 Cd2 2.273 1_455 S
O6 Cd4 2.411 . S
O6 C9 1.320 . S
O7 Cd4 2.333 . S
O7 C9 1.214 . S
O8 Cd4 2.352 . S
O8 C11 1.258 . S
C9 O6 1.320 . S
C9 O7 1.214 . S
O10 Cd2 2.277 . S
O10 C5 1.209 . S
C11 O8 1.258 . S
C11 O13 1.282 . S
O12 Cd4 2.277 1_655 S
O12 C5 1.226 . S
O13 Cd4 2.356 . S
O13 C11 1.282 . S
C14 O15 1.306 . S
C14 O17 1.160 . S
O15 C14 1.306 . S
O15 Cd16 2.228 . S
Cd16 O15 2.228 . S
Cd16 O20 2.273 1_545 S
Cd16 O24 2.277 . S
O17 C14 1.160 . S
O17 Cd18 2.203 . S
Cd18 O17 2.203 . S
Cd18 O20 2.411 1_545 S
Cd18 O21 2.333 1_545 S
Cd18 O22 2.352 1_545 S
Cd18 O26 2.277 . S
Cd18 O27 2.356 1_545 S
C19 O24 1.209 . S
C19 O26 1.226 . S
O20 Cd16 2.273 1_565 S
O20 Cd18 2.411 1_565 S
O20 C23 1.320 . S
O21 Cd18 2.333 1_565 S
O21 C23 1.214 . S
O22 Cd18 2.352 1_565 S
O22 C25 1.258 . S
C23 O20 1.320 . S
C23 O21 1.214 . S
O24 Cd16 2.277 . S
O24 C19 1.209 . S
C25 O22 1.258 . S
C25 O27 1.282 . S
O26 Cd18 2.277 . S
O26 C19 1.226 . S
O27 Cd18 2.356 1_565 S
O27 C25 1.282 . S
C28 O29 1.306 . S
C28 O31 1.160 . S
O29 C28 1.306 . S
O29 Cd30 2.228 . S
Cd30 O29 2.228 . S
Cd30 O34 2.273 . S
Cd30 O38 2.277 . S
O31 C28 1.160 . S
O31 Cd32 2.203 . S
Cd32 O31 2.203 . S
Cd32 O34 2.411 . S
Cd32 O35 2.333 . S
Cd32 O36 2.352 . S
Cd32 O40 2.277 . S
Cd32 O41 2.356 . S
C33 O38 1.209 . S
C33 O40 1.226 . S
O34 Cd30 2.273 . S
O34 Cd32 2.411 . S
O34 C37 1.320 . S
O35 Cd32 2.333 . S
O35 C37 1.214 . S
O36 Cd32 2.352 . S
O36 C39 1.258 . S
C37 O34 1.320 . S
C37 O35 1.214 . S
O38 Cd30 2.277 . S
O38 C33 1.209 . S
C39 O36 1.258 . S
C39 O41 1.282 . S
O40 Cd32 2.277 . S
O40 C33 1.226 . S
O41 Cd32 2.356 . S
O41 C39 1.282 . S
H42 C60 0.951 . S
H43 C62 0.951 . S
H44 C64 0.950 . S
H45 C65 0.950 . S
H46 C67 0.950 . S
H47 C70 0.950 . S
H48 C71 0.950 . S
H49 C73 0.950 . S
H50 C74 0.950 . S
H51 C75 0.951 . S
H52 C77 0.951 . S
H53 C79 0.950 . S
H54 C80 0.950 . S
H55 C82 0.950 . S
H56 C85 0.950 . S
H57 C86 0.950 . S
H58 C88 0.950 . S
H59 C89 0.950 . S
C60 H42 0.951 . S
C60 C61 1.366 . S
C60 C62 1.388 . S
C61 C60 1.366 . S
C61 C65 1.385 . S
C62 H43 0.951 . S
C62 C60 1.388 . S
C62 C63 1.366 . S
C63 C62 1.366 . S
C63 C64 1.414 . S
C63 C66 1.499 . S
C64 H44 0.950 . S
C64 C63 1.414 . S
C64 C65 1.374 . S
C65 H45 0.950 . S
C65 C61 1.385 . S
C65 C64 1.374 . S
C66 C63 1.499 . S
C66 C67 1.373 . S
C66 C68 1.389 1_556 S
C67 H46 0.950 . S
C67 C66 1.373 . S
C67 C83 1.377 . S
C68 C66 1.389 1_554 S
C68 C69 1.524 . S
C68 C82 1.377 . S
C69 C68 1.524 . S
C69 C70 1.397 . S
C69 C74 1.363 . S
C70 H47 0.950 . S
C70 C69 1.397 . S
C70 C71 1.334 . S
C71 H48 0.950 . S
C71 C70 1.334 . S
C71 C72 1.287 . S
C72 C71 1.287 . S
C72 C73 1.524 . S
C72 H91 0.913 . S
C73 H49 0.950 . S
C73 C72 1.524 . S
C73 C74 1.415 . S
C74 H50 0.950 . S
C74 C69 1.363 . S
C74 C73 1.415 . S
C75 H51 0.951 . S
C75 C76 1.366 . S
C75 C77 1.388 . S
C76 C75 1.366 . S
C76 C80 1.385 . S
C77 H52 0.951 . S
C77 C75 1.388 . S
C77 C78 1.366 . S
C78 C77 1.366 . S
C78 C79 1.414 . S
C78 C81 1.499 . S
C79 H53 0.950 . S
C79 C78 1.414 . S
C79 C80 1.374 . S
C80 H54 0.950 . S
C80 C76 1.385 . S
C80 C79 1.374 . S
C81 C78 1.499 . S
C81 C82 1.373 . S
C81 C83 1.389 1_554 S
C82 H55 0.950 . S
C82 C68 1.377 . S
C82 C81 1.373 . S
C83 C67 1.377 . S
C83 C81 1.389 1_556 S
C83 C84 1.524 . S
C84 C83 1.524 . S
C84 C85 1.397 . S
C84 C89 1.363 . S
C85 H56 0.950 . S
C85 C84 1.397 . S
C85 C86 1.334 . S
C86 H57 0.950 . S
C86 C85 1.334 . S
C86 C87 1.287 . S
C87 C86 1.287 . S
C87 C88 1.524 . S
C87 H90 0.999 . S
C88 H58 0.950 . S
C88 C87 1.524 . S
C88 C89 1.415 . S
C89 H59 0.950 . S
C89 C84 1.363 . S
C89 C88 1.415 . S
H90 C87 0.999 . S
H91 C72 0.913 . S
H92 C110 0.951 . S
H93 C112 0.951 . S
H94 C114 0.950 . S
H95 C115 0.950 . S
H96 C117 0.950 . S
H97 C120 0.950 . S
H98 C121 0.950 . S
H99 C123 0.950 . S
H100 C124 0.950 . S
H101 C125 0.951 . S
H102 C127 0.951 . S
H103 C129 0.950 . S
H104 C130 0.950 . S
H105 C132 0.950 . S
H106 C135 0.950 . S
H107 C136 0.950 . S
H108 C138 0.950 . S
H109 C139 0.950 . S
C110 H92 0.951 . S
C110 C111 1.366 . S
C110 C112 1.388 . S
C111 C110 1.366 . S
C111 C115 1.385 . S
C112 H93 0.951 . S
C112 C110 1.388 . S
C112 C113 1.366 . S
C113 C112 1.366 . S
C113 C114 1.414 . S
C113 C116 1.499 . S
C114 H94 0.950 . S
C114 C113 1.414 . S
C114 C115 1.374 . S
C115 H95 0.950 . S
C115 C111 1.385 . S
C115 C114 1.374 . S
C116 C113 1.499 . S
C116 C117 1.373 . S
C116 C118 1.389 . S
C117 H96 0.950 . S
C117 C116 1.373 . S
C117 C133 1.377 . S
C118 C116 1.389 . S
C118 C119 1.524 . S
C118 C132 1.377 . S
C119 C118 1.524 . S
C119 C120 1.397 . S
C119 C124 1.363 . S
C120 H97 0.950 . S
C120 C119 1.397 . S
C120 C121 1.334 . S
C121 H98 0.950 . S
C121 C120 1.334 . S
C121 C122 1.287 . S
C122 C121 1.287 . S
C122 C123 1.524 . S
C122 H141 0.913 . S
C123 H99 0.950 . S
C123 C122 1.524 . S
C123 C124 1.415 . S
C124 H100 0.950 . S
C124 C119 1.363 . S
C124 C123 1.415 . S
C125 H101 0.951 . S
C125 C126 1.366 . S
C125 C127 1.388 . S
C126 C125 1.366 . S
C126 C130 1.385 . S
C127 H102 0.951 . S
C127 C125 1.388 . S
C127 C128 1.366 . S
C128 C127 1.366 . S
C128 C129 1.414 . S
C128 C131 1.499 . S
C129 H103 0.950 . S
C129 C128 1.414 . S
C129 C130 1.374 . S
C130 H104 0.950 . S
C130 C126 1.385 . S
C130 C129 1.374 . S
C131 C128 1.499 . S
C131 C132 1.373 . S
C131 C133 1.389 . S
C132 H105 0.950 . S
C132 C118 1.377 . S
C132 C131 1.373 . S
C133 C117 1.377 . S
C133 C131 1.389 . S
C133 C134 1.524 . S
C134 C133 1.524 . S
C134 C135 1.397 . S
C134 C139 1.363 . S
C135 H106 0.950 . S
C135 C134 1.397 . S
C135 C136 1.334 . S
C136 H107 0.950 . S
C136 C135 1.334 . S
C136 C137 1.287 . S
C137 C136 1.287 . S
C137 C138 1.524 . S
C137 H140 0.999 . S
C138 H108 0.950 . S
C138 C137 1.524 . S
C138 C139 1.415 . S
C139 H109 0.950 . S
C139 C134 1.363 . S
C139 C138 1.415 . S
H140 C137 0.999 . S
H141 C122 0.913 . S
H142 C160 0.951 . S
H143 C162 0.951 . S
H144 C164 0.950 . S
H145 C165 0.950 . S
H146 C167 0.950 . S
H147 C170 0.950 . S
H148 C171 0.950 . S
H149 C173 0.950 . S
H150 C174 0.950 . S
H151 C175 0.951 . S
H152 C177 0.951 . S
H153 C179 0.950 . S
H154 C180 0.950 . S
H155 C182 0.950 . S
H156 C185 0.950 . S
H157 C186 0.950 . S
H158 C188 0.950 . S
H159 C189 0.950 . S
C160 H142 0.951 . S
C160 C161 1.366 . S
C160 C162 1.388 . S
C161 C160 1.366 . S
C161 C165 1.385 . S
C162 H143 0.951 . S
C162 C160 1.388 . S
C162 C163 1.366 . S
C163 C162 1.366 . S
C163 C164 1.414 . S
C163 C166 1.499 . S
C164 H144 0.950 . S
C164 C163 1.414 . S
C164 C165 1.374 . S
C165 H145 0.950 . S
C165 C161 1.385 . S
C165 C164 1.374 . S
C166 C163 1.499 . S
C166 C167 1.373 . S
C166 C168 1.389 . S
C167 H146 0.950 . S
C167 C166 1.373 . S
C167 C183 1.377 . S
C168 C166 1.389 . S
C168 C169 1.524 . S
C168 C182 1.377 . S
C169 C168 1.524 . S
C169 C170 1.397 . S
C169 C174 1.363 . S
C170 H147 0.950 . S
C170 C169 1.397 . S
C170 C171 1.334 . S
C171 H148 0.950 . S
C171 C170 1.334 . S
C171 C172 1.287 . S
C172 C171 1.287 . S
C172 C173 1.524 . S
C172 H191 0.913 . S
C173 H149 0.950 . S
C173 C172 1.524 . S
C173 C174 1.415 . S
C174 H150 0.950 . S
C174 C169 1.363 . S
C174 C173 1.415 . S
C175 H151 0.951 . S
C175 C176 1.366 . S
C175 C177 1.388 . S
C176 C175 1.366 . S
C176 C180 1.385 . S
C177 H152 0.951 . S
C177 C175 1.388 . S
C177 C178 1.366 . S
C178 C177 1.366 . S
C178 C179 1.414 . S
C178 C181 1.499 . S
C179 H153 0.950 . S
C179 C178 1.414 . S
C179 C180 1.374 . S
C180 H154 0.950 . S
C180 C176 1.385 . S
C180 C179 1.374 . S
C181 C178 1.499 . S
C181 C182 1.373 . S
C181 C183 1.389 . S
C182 H155 0.950 . S
C182 C168 1.377 . S
C182 C181 1.373 . S
C183 C167 1.377 . S
C183 C181 1.389 . S
C183 C184 1.524 . S
C184 C183 1.524 . S
C184 C185 1.397 . S
C184 C189 1.363 . S
C185 H156 0.950 . S
C185 C184 1.397 . S
C185 C186 1.334 . S
C186 H157 0.950 . S
C186 C185 1.334 . S
C186 C187 1.287 . S
C187 C186 1.287 . S
C187 C188 1.524 . S
C187 H190 0.999 . S
C188 H158 0.950 . S
C188 C187 1.524 . S
C188 C189 1.415 . S
C189 H159 0.950 . S
C189 C184 1.363 . S
C189 C188 1.415 . S
H190 C187 0.999 . S
H191 C172 0.913 . S
H192 C210 0.951 . S
H193 C212 0.951 . S
H194 C214 0.950 . S
H195 C215 0.950 . S
H196 C217 0.950 . S
H197 C220 0.950 . S
H198 C221 0.950 . S
H199 C223 0.950 1_554 S
H200 C224 0.950 . S
H201 C225 0.951 . S
H202 C227 0.951 . S
H203 C229 0.950 . S
H204 C230 0.950 . S
H205 C232 0.950 . S
H206 C235 0.950 . S
H207 C236 0.950 . S
H208 C238 0.950 1_556 S
H209 C239 0.950 . S
C210 H192 0.951 . S
C210 C211 1.366 . S
C210 C212 1.388 . S
C211 C210 1.366 . S
C211 C215 1.385 . S
C212 H193 0.951 . S
C212 C210 1.388 . S
C212 C213 1.366 . S
C213 C212 1.366 . S
C213 C214 1.414 . S
C213 C216 1.499 . S
C214 H194 0.950 . S
C214 C213 1.414 . S
C214 C215 1.374 . S
C215 H195 0.950 . S
C215 C211 1.385 . S
C215 C214 1.374 . S
C216 C213 1.499 . S
C216 C217 1.373 . S
C216 C218 1.389 . S
C217 H196 0.950 . S
C217 C216 1.373 . S
C217 C233 1.377 1_556 S
C218 C216 1.389 . S
C218 C219 1.524 . S
C218 C232 1.377 1_556 S
C219 C218 1.524 . S
C219 C220 1.397 . S
C219 C224 1.363 1_556 S
C220 H197 0.950 . S
C220 C219 1.397 . S
C220 C221 1.334 . S
C221 H198 0.950 . S
C221 C220 1.334 . S
C221 C222 1.287 . S
C222 C221 1.287 . S
C222 C223 1.524 . S
C222 H241 0.913 . S
C223 H199 0.950 1_556 S
C223 C222 1.524 . S
C223 C224 1.415 1_556 S
C224 H200 0.950 . S
C224 C219 1.363 1_554 S
C224 C223 1.415 1_554 S
C225 H201 0.951 . S
C225 C226 1.366 . S
C225 C227 1.388 . S
C226 C225 1.366 . S
C226 C230 1.385 . S
C227 H202 0.951 . S
C227 C225 1.388 . S
C227 C228 1.366 . S
C228 C227 1.366 . S
C228 C229 1.414 . S
C228 C231 1.499 . S
C229 H203 0.950 . S
C229 C228 1.414 . S
C229 C230 1.374 . S
C230 H204 0.950 . S
C230 C226 1.385 . S
C230 C229 1.374 . S
C231 C228 1.499 . S
C231 C232 1.373 . S
C231 C233 1.389 . S
C232 H205 0.950 . S
C232 C218 1.377 1_554 S
C232 C231 1.373 . S
C233 C217 1.377 1_554 S
C233 C231 1.389 . S
C233 C234 1.524 . S
C234 C233 1.524 . S
C234 C235 1.397 . S
C234 C239 1.363 1_554 S
C235 H206 0.950 . S
C235 C234 1.397 . S
C235 C236 1.334 . S
C236 H207 0.950 . S
C236 C235 1.334 . S
C236 C237 1.287 . S
C237 C236 1.287 . S
C237 C238 1.524 . S
C237 H240 0.999 . S
C238 H208 0.950 1_554 S
C238 C237 1.524 . S
C238 C239 1.415 1_554 S
C239 H209 0.950 . S
C239 C234 1.363 1_556 S
C239 C238 1.415 1_556 S
H240 C237 0.999 . S
H241 C222 0.913 . S
H242 C260 0.951 . S
H243 C262 0.951 . S
H244 C264 0.950 . S
H245 C265 0.950 . S
H246 C267 0.950 . S
H247 C270 0.950 . S
H248 C271 0.950 . S
H249 C273 0.950 . S
H250 C274 0.950 . S
H251 C275 0.951 . S
H252 C277 0.951 . S
H253 C279 0.950 . S
H254 C280 0.950 . S
H255 C282 0.950 . S
H256 C285 0.950 . S
H257 C286 0.950 . S
H258 C288 0.950 . S
H259 C289 0.950 . S
C260 H242 0.951 . S
C260 C261 1.366 . S
C260 C262 1.388 . S
C261 C260 1.366 . S
C261 C265 1.385 . S
C262 H243 0.951 . S
C262 C260 1.388 . S
C262 C263 1.366 . S
C263 C262 1.366 . S
C263 C264 1.414 . S
C263 C266 1.499 . S
C264 H244 0.950 . S
C264 C263 1.414 . S
C264 C265 1.374 . S
C265 H245 0.950 . S
C265 C261 1.385 . S
C265 C264 1.374 . S
C266 C263 1.499 . S
C266 C267 1.373 . S
C266 C268 1.389 . S
C267 H246 0.950 . S
C267 C266 1.373 . S
C267 C283 1.377 . S
C268 C266 1.389 . S
C268 C269 1.524 . S
C268 C282 1.377 . S
C269 C268 1.524 . S
C269 C270 1.397 . S
C269 C274 1.363 . S
C270 H247 0.950 . S
C270 C269 1.397 . S
C270 C271 1.334 . S
C271 H248 0.950 . S
C271 C270 1.334 . S
C271 C272 1.287 . S
C272 C271 1.287 . S
C272 C273 1.524 . S
C272 H291 0.913 . S
C273 H249 0.950 . S
C273 C272 1.524 . S
C273 C274 1.415 . S
C274 H250 0.950 . S
C274 C269 1.363 . S
C274 C273 1.415 . S
C275 H251 0.951 . S
C275 C276 1.366 . S
C275 C277 1.388 . S
C276 C275 1.366 . S
C276 C280 1.385 . S
C277 H252 0.951 . S
C277 C275 1.388 . S
C277 C278 1.366 . S
C278 C277 1.366 . S
C278 C279 1.414 . S
C278 C281 1.499 . S
C279 H253 0.950 . S
C279 C278 1.414 . S
C279 C280 1.374 . S
C280 H254 0.950 . S
C280 C276 1.385 . S
C280 C279 1.374 . S
C281 C278 1.499 . S
C281 C282 1.373 . S
C281 C283 1.389 . S
C282 H255 0.950 . S
C282 C268 1.377 . S
C282 C281 1.373 . S
C283 C267 1.377 . S
C283 C281 1.389 . S
C283 C284 1.524 . S
C284 C283 1.524 . S
C284 C285 1.397 . S
C284 C289 1.363 . S
C285 H256 0.950 . S
C285 C284 1.397 . S
C285 C286 1.334 . S
C286 H257 0.950 . S
C286 C285 1.334 . S
C286 C287 1.287 . S
C287 C286 1.287 . S
C287 C288 1.524 . S
C287 H290 0.999 . S
C288 H258 0.950 . S
C288 C287 1.524 . S
C288 C289 1.415 . S
C289 H259 0.950 . S
C289 C284 1.363 . S
C289 C288 1.415 . S
H290 C287 0.999 . S
H291 C272 0.913 . S
H292 C310 0.951 . S
H293 C312 0.951 . S
H294 C314 0.950 . S
H295 C315 0.950 . S
H296 C317 0.950 . S
H297 C320 0.950 . S
H298 C321 0.950 . S
H299 C323 0.950 . S
H300 C324 0.950 . S
H301 C325 0.951 . S
H302 C327 0.951 . S
H303 C329 0.950 . S
H304 C330 0.950 . S
H305 C332 0.950 . S
H306 C335 0.950 . S
H307 C336 0.950 . S
H308 C338 0.950 . S
H309 C339 0.950 . S
C310 H292 0.951 . S
C310 C311 1.366 . S
C310 C312 1.388 . S
C311 C310 1.366 . S
C311 C315 1.385 . S
C312 H293 0.951 . S
C312 C310 1.388 . S
C312 C313 1.366 . S
C313 C312 1.366 . S
C313 C314 1.414 . S
C313 C316 1.499 . S
C314 H294 0.950 . S
C314 C313 1.414 . S
C314 C315 1.374 . S
C315 H295 0.950 . S
C315 C311 1.385 . S
C315 C314 1.374 . S
C316 C313 1.499 . S
C316 C317 1.373 . S
C316 C318 1.389 . S
C317 H296 0.950 . S
C317 C316 1.373 . S
C317 C333 1.377 . S
C318 C316 1.389 . S
C318 C319 1.524 . S
C318 C332 1.377 . S
C319 C318 1.524 . S
C319 C320 1.397 . S
C319 C324 1.363 . S
C320 H297 0.950 . S
C320 C319 1.397 . S
C320 C321 1.334 . S
C321 H298 0.950 . S
C321 C320 1.334 . S
C321 C322 1.287 . S
C322 C321 1.287 . S
C322 C323 1.524 . S
C322 H341 0.913 . S
C323 H299 0.950 . S
C323 C322 1.524 . S
C323 C324 1.415 . S
C324 H300 0.950 . S
C324 C319 1.363 . S
C324 C323 1.415 . S
C325 H301 0.951 . S
C325 C326 1.366 . S
C325 C327 1.388 . S
C326 C325 1.366 . S
C326 C330 1.385 . S
C327 H302 0.951 . S
C327 C325 1.388 . S
C327 C328 1.366 . S
C328 C327 1.366 . S
C328 C329 1.414 . S
C328 C331 1.499 . S
C329 H303 0.950 . S
C329 C328 1.414 . S
C329 C330 1.374 . S
C330 H304 0.950 . S
C330 C326 1.385 . S
C330 C329 1.374 . S
C331 C328 1.499 . S
C331 C332 1.373 . S
C331 C333 1.389 . S
C332 H305 0.950 . S
C332 C318 1.377 . S
C332 C331 1.373 . S
C333 C317 1.377 . S
C333 C331 1.389 . S
C333 C334 1.524 . S
C334 C333 1.524 . S
C334 C335 1.397 . S
C334 C339 1.363 . S
C335 H306 0.950 . S
C335 C334 1.397 . S
C335 C336 1.334 . S
C336 H307 0.950 . S
C336 C335 1.334 . S
C336 C337 1.287 . S
C337 C336 1.287 . S
C337 C338 1.524 . S
C337 H340 0.999 . S
C338 H308 0.950 . S
C338 C337 1.524 . S
C338 C339 1.415 . S
C339 H309 0.950 . S
C339 C334 1.363 . S
C339 C338 1.415 . S
H340 C337 0.999 . S
H341 C322 0.913 . S
C61 C39 1.400 . S
C76 C11 1.400 . S
C111 C5 1.519 . S
C126 C19 1.519 . S
C161 C25 1.403 . S
C176 C37 1.396 . S
C211 C28 1.410 . S
C226 C0 1.410 . S
C261 C23 1.402 . S
C276 C9 1.400 . S
C311 C33 1.466 . S
C326 C14 1.465 . S
