# Generated by pormake.
# Topology wjh, (4)-cn, num edge types: 1
# Building blocks:
#     Node 0, Type 0, BuildingBlock: ESEHIV_clean_sbu_0, # of connection points: 4
#     Node 1, Type 0, BuildingBlock: ESEHIV_clean_sbu_0, # of connection points: 4
#     Node 2, Type 0, BuildingBlock: ESEHIV_clean_sbu_0, # of connection points: 4
#     Node 3, Type 0, BuildingBlock: ESEHIV_clean_sbu_0, # of connection points: 4
#     Node 4, Type 0, BuildingBlock: ESEHIV_clean_sbu_0, # of connection points: 4
#     Node 5, Type 0, BuildingBlock: ESEHIV_clean_sbu_0, # of connection points: 4
#     Node 6, Type 0, BuildingBlock: ESEHIV_clean_sbu_0, # of connection points: 4
#     Node 7, Type 0, BuildingBlock: ESEHIV_clean_sbu_0, # of connection points: 4
#     Node 8, Type 0, BuildingBlock: ESEHIV_clean_sbu_0, # of connection points: 4
#     Node 9, Type 0, BuildingBlock: ESEHIV_clean_sbu_0, # of connection points: 4
#     Node 10, Type 0, BuildingBlock: ESEHIV_clean_sbu_0, # of connection points: 4
#     Node 11, Type 0, BuildingBlock: ESEHIV_clean_sbu_0, # of connection points: 4
#     Edge 12, Type (0, 0), BuildingBlock: OJICUG_clean_linker_0, # of connection points: 2
#     Edge 13, Type (0, 0), BuildingBlock: OJICUG_clean_linker_0, # of connection points: 2
#     Edge 14, Type (0, 0), BuildingBlock: OJICUG_clean_linker_0, # of connection points: 2
#     Edge 15, Type (0, 0), BuildingBlock: OJICUG_clean_linker_0, # of connection points: 2
#     Edge 16, Type (0, 0), BuildingBlock: OJICUG_clean_linker_0, # of connection points: 2
#     Edge 17, Type (0, 0), BuildingBlock: OJICUG_clean_linker_0, # of connection points: 2
#     Edge 18, Type (0, 0), BuildingBlock: OJICUG_clean_linker_0, # of connection points: 2
#     Edge 19, Type (0, 0), BuildingBlock: OJICUG_clean_linker_0, # of connection points: 2
#     Edge 20, Type (0, 0), BuildingBlock: OJICUG_clean_linker_0, # of connection points: 2
#     Edge 21, Type (0, 0), BuildingBlock: OJICUG_clean_linker_0, # of connection points: 2
#     Edge 22, Type (0, 0), BuildingBlock: OJICUG_clean_linker_0, # of connection points: 2
#     Edge 23, Type (0, 0), BuildingBlock: OJICUG_clean_linker_0, # of connection points: 2
#     Edge 24, Type (0, 0), BuildingBlock: OJICUG_clean_linker_0, # of connection points: 2
#     Edge 25, Type (0, 0), BuildingBlock: OJICUG_clean_linker_0, # of connection points: 2
#     Edge 26, Type (0, 0), BuildingBlock: OJICUG_clean_linker_0, # of connection points: 2
#     Edge 27, Type (0, 0), BuildingBlock: OJICUG_clean_linker_0, # of connection points: 2
#     Edge 28, Type (0, 0), BuildingBlock: OJICUG_clean_linker_0, # of connection points: 2
#     Edge 29, Type (0, 0), BuildingBlock: OJICUG_clean_linker_0, # of connection points: 2
#     Edge 30, Type (0, 0), BuildingBlock: OJICUG_clean_linker_0, # of connection points: 2
#     Edge 31, Type (0, 0), BuildingBlock: OJICUG_clean_linker_0, # of connection points: 2
#     Edge 32, Type (0, 0), BuildingBlock: OJICUG_clean_linker_0, # of connection points: 2
#     Edge 33, Type (0, 0), BuildingBlock: OJICUG_clean_linker_0, # of connection points: 2
#     Edge 34, Type (0, 0), BuildingBlock: OJICUG_clean_linker_0, # of connection points: 2
#     Edge 35, Type (0, 0), BuildingBlock: OJICUG_clean_linker_0, # of connection points: 2
# Relax obj value: 0.035
# Max RMSD: 0.094
# Mean RMSD: 0.094
data_MOF--net-wjh--node1-ESEHIV_clean_sbu_0--edge1-OJICUG_clean_linker_0
_symmetry_space_group_name_H-M    P1
_symmetry_Int_Tables_number       1
_symmetry_cell_setting            triclinic
loop_
_symmetry_equiv_pos_as_xyz
'x, y, z'
_cell_length_a     50.479066
_cell_length_b     51.090087
_cell_length_c     20.547383
_cell_angle_alpha  89.630679
_cell_angle_beta   90.199915
_cell_angle_gamma 120.6599
loop_
_atom_site_label
_atom_site_type_symbol
_atom_site_fract_x
_atom_site_fract_y
_atom_site_fract_z
_atom_type_partial_charge
Cu0 Cu 0.54849 0.15998 0.09407 0.0
N1 N 0.55905 0.12981 0.08926 0.0
N2 N 0.54933 0.08184 0.09001 0.0
C3 C 0.53733 0.10014 0.09166 0.0
C4 C 0.58015 0.10099 0.08656 0.0
C5 C 0.58609 0.13065 0.08596 0.0
O6 O 0.52781 0.1581 1.0128 0.0
C7 C 0.541 0.15165 0.22209 0.0
O8 O 0.56839 0.15548 0.21128 0.0
H9 H 0.51307 0.09229 0.09654 0.0
H10 H 0.60843 0.15124 0.08409 0.0
N11 N 0.58034 0.20032 0.10452 0.0
N12 N 0.59804 0.24905 0.12975 0.0
C13 C 0.57445 0.22016 0.13421 0.0
C14 C 0.60904 0.21722 0.0803 0.0
C15 C 0.61999 0.24748 0.09553 0.0
C16 C 0.54566 0.16389 0.96435 0.0
O17 O 0.57385 0.16978 0.9745 0.0
H18 H 0.55226 0.21361 0.1552 0.0
H19 H 0.62064 0.2085 0.05125 0.0
O20 O 0.52508 0.15185 0.17403 0.0
H21 H 0.59719 0.09416 0.08455 0.0
H22 H 0.64193 0.26678 0.08115 0.0
Cu23 Cu 0.45029 0.58746 0.28114 0.0
N24 N 0.45844 0.55626 0.29797 0.0
N25 N 0.47484 0.5231 0.29287 0.0
C26 C 0.47135 0.54426 0.26023 0.0
C27 C 0.46343 0.52166 0.35294 0.0
C28 C 0.45334 0.54205 0.35582 0.0
O29 O 0.46522 0.60706 0.19734 0.0
C30 C 0.49464 0.62536 0.37379 0.0
O31 O 0.51161 0.61567 0.34678 0.0
H32 H 0.47872 0.55141 0.21061 0.0
H33 H 0.44336 0.54662 0.39758 0.0
N34 N 0.40754 0.57078 0.27848 0.0
N35 N 0.35875 0.55728 0.3004 0.0
C36 C 0.38762 0.56902 0.32455 0.0
C37 C 0.39066 0.5596 0.22407 0.0
C38 C 0.36069 0.55133 0.23729 0.0
C39 C 0.49074 0.61644 0.16822 0.0
O40 O 0.51249 0.61325 0.19554 0.0
H41 H 0.39429 0.57701 0.37392 0.0
H42 H 0.39975 0.55811 0.17753 0.0
O43 O 0.46798 0.61676 0.35079 0.0
H44 H 0.46236 0.50687 0.39208 0.0
H45 H 0.34175 0.54167 0.20303 0.0
Cu46 Cu 0.86303 0.39404 0.44494 0.0
N47 N 0.90205 0.40511 0.47878 0.0
N48 N 0.95293 0.42428 0.48943 0.0
C49 C 0.92976 0.41969 0.44882 0.0
C50 C 0.93919 0.41184 0.54678 0.0
C51 C 0.90791 0.39982 0.53987 0.0
O52 O 0.86438 0.39754 0.34872 0.0
C53 C 0.84493 0.42971 0.53408 0.0
O54 O 0.83023 0.44477 0.53473 0.0
H55 H 0.93296 0.42697 0.39847 0.0
H56 H 0.89056 0.38809 0.57693 0.0
N57 N 0.83434 0.35319 0.46557 0.0
N58 N 0.79031 0.3103 0.49152 0.0
C59 C 0.80537 0.34114 0.4889 0.0
C60 C 0.83772 0.32922 0.4534 0.0
C61 C 0.81075 0.30285 0.4693 0.0
C62 C 0.88022 0.42237 0.31692 0.0
O63 O 0.89751 0.44762 0.34924 0.0
H64 H 0.79526 0.35467 0.50175 0.0
H65 H 0.85826 0.33084 0.43311 0.0
O66 O 0.84774 0.41956 0.47928 0.0
H67 H 0.95086 0.41096 0.59031 0.0
H68 H 0.80659 0.27995 0.465 0.0
Cu69 Cu 0.48765 0.85285 0.60932 0.0
N70 N 0.48126 0.88576 0.60154 0.0
N71 N 0.49472 0.93484 0.59647 0.0
C72 C 0.50461 0.91485 0.60174 0.0
C73 C 0.46369 0.91745 0.59283 0.0
C74 C 0.45544 0.88713 0.59574 0.0
O75 O 0.50787 0.85375 0.52798 0.0
C76 C 0.49847 0.86445 0.73812 0.0
O77 O 0.47456 0.86762 0.72806 0.0
H78 H 0.52845 0.9211 0.60711 0.0
H79 H 0.43236 0.86758 0.59416 0.0
N80 N 0.45204 0.81471 0.62056 0.0
N81 N 0.42628 0.76578 0.652 0.0
C82 C 0.45229 0.79311 0.65789 0.0
C83 C 0.42471 0.80072 0.58967 0.0
C84 C 0.40874 0.77042 0.60896 0.0
C85 C 0.49988 0.83045 0.49275 0.0
O86 O 0.48269 0.80323 0.51824 0.0
H87 H 0.47235 0.79697 0.68508 0.0
H88 H 0.41763 0.81129 0.55321 0.0
O89 O 0.51044 0.85856 0.68999 0.0
H90 H 0.44804 0.92594 0.58787 0.0
H91 H 0.3865 0.75304 0.59091 0.0
Cu92 Cu 0.63587 0.4862 0.73065 0.0
N93 N 0.61939 0.50855 0.76604 0.0
N94 N 0.58763 0.52615 0.78645 0.0
C95 C 0.59208 0.50615 0.7521 0.0
C96 C 0.61334 0.5417 0.82302 0.0
C97 C 0.6328 0.53087 0.81026 0.0
O98 O 0.63379 0.48802 0.63525 0.0
C99 C 0.60851 0.43059 0.81415 0.0
O100 O 0.594 0.40073 0.81542 0.0
H101 H 0.5758 0.48992 0.71772 0.0
H102 H 0.65523 0.53876 0.83157 0.0
N103 N 0.67716 0.50274 0.75472 0.0
N104 N 0.72094 0.5068 0.79112 0.0
C105 C 0.68999 0.48889 0.78705 0.0
C106 C 0.70076 0.53031 0.73785 0.0
C107 C 0.72779 0.5329 0.76018 0.0
C108 C 0.63913 0.47125 0.59831 0.0
O109 O 0.64615 0.45214 0.6251 0.0
H110 H 0.67706 0.46576 0.80512 0.0
H111 H 0.69847 0.54713 0.71014 0.0
O112 O 0.61273 0.44377 0.75885 0.0
H113 H 0.61819 0.56013 0.85573 0.0
H114 H 0.75069 0.55245 0.75412 0.0
Cu115 Cu 0.18076 0.63719 0.93732 0.0
N116 N 0.14518 0.63953 0.92578 0.0
N117 N 0.09495 0.62403 0.91715 0.0
C118 C 0.11612 0.61556 0.92626 0.0
C119 C 0.11164 0.65467 0.9107 0.0
C120 C 0.14248 0.66412 0.91624 0.0
O121 O 0.18243 0.61388 0.86327 0.0
C122 C 0.19271 0.61119 0.05361 0.0
O123 O 0.21887 0.61708 1.02723 0.0
H124 H 0.11079 0.59242 0.93407 0.0
H125 H 0.16153 0.68729 0.91356 0.0
N126 N 0.2165 0.67639 0.93832 0.0
N127 N 0.26287 0.71649 0.9642 0.0
C128 C 0.24055 0.68774 0.98016 0.0
C129 C 0.22386 0.69883 0.89469 0.0
C130 C 0.25218 0.72342 0.91042 0.0
C131 C 0.17911 0.62179 0.80605 0.0
O132 O 0.17528 0.64524 0.79964 0.0
H133 H 0.24179 0.67503 1.02103 0.0
H134 H 0.20962 0.69754 0.85404 0.0
O135 O 0.17462 0.61708 1.02194 0.0
H136 H 0.10244 0.6694 0.90191 0.0
H137 H 0.26371 0.74487 0.88439 0.0
Cu138 Cu 0.88089 0.46949 0.92061 0.0
N139 N 0.9152 0.50832 0.90575 0.0
N140 N 0.9634 0.54821 0.90221 0.0
C141 C 0.94518 0.51849 0.91842 0.0
C142 C 0.94408 0.55692 0.87852 0.0
C143 C 0.91449 0.53234 0.88068 0.0
O144 O 0.88812 0.45401 1.00327 0.0
C145 C 0.89103 0.45121 0.79417 0.0
O146 O 0.91977 0.47295 0.80236 0.0
H147 H 0.95336 0.50447 0.93972 0.0
H148 H 0.89384 0.532 0.86504 0.0
N149 N 0.84681 0.47428 0.9334 0.0
N150 N 0.80693 0.48099 0.91454 0.0
C151 C 0.83021 0.47881 0.88784 0.0
C152 C 0.83375 0.47383 0.9907 0.0
C153 C 0.8091 0.4778 0.97923 0.0
C154 C 0.86764 0.43145 1.03618 0.0
O155 O 0.84036 0.41399 1.01016 0.0
H156 H 0.83498 0.48027 0.8362 0.0
H157 H 0.84171 0.47102 1.03769 0.0
O158 O 0.87202 0.44454 0.8412 0.0
H159 H 0.95087 0.57936 0.86002 0.0
H160 H 0.79433 0.47891 1.01581 0.0
Cu161 Cu 0.46431 0.86669 0.12123 0.0
N162 N 0.46361 0.90284 0.12605 0.0
N163 N 0.47843 0.95219 0.11914 0.0
C164 C 0.48735 0.93137 0.11579 0.0
C165 C 0.44796 0.93604 0.13232 0.0
C166 C 0.43893 0.90567 0.13657 0.0
O167 O 0.48644 0.86499 0.1975 0.0
C168 C 0.48625 0.84817 1.00974 0.0
O169 O 0.47358 0.82078 1.03541 0.0
H170 H 0.51046 0.93661 0.10422 0.0
H171 H 0.41588 0.8869 0.14575 0.0
N172 N 0.42358 0.83361 0.12423 0.0
N173 N 0.37564 0.79618 0.09963 0.0
C174 C 0.40353 0.81775 0.076 0.0
C175 C 0.40787 0.82185 0.1798 0.0
C176 C 0.37854 0.79892 0.165 0.0
C177 C 0.48439 0.84048 0.21825 0.0
O178 O 0.46905 0.81558 0.18368 0.0
H179 H 0.4093 0.82205 1.02488 0.0
H180 H 0.41705 0.82985 0.22796 0.0
O181 O 0.48478 0.86908 0.0398 0.0
H182 H 0.43321 0.94547 0.13856 0.0
H183 H 0.36051 0.78593 0.20005 0.0
Cu184 Cu 0.59549 0.4326 0.20145 0.0
N185 N 0.56129 0.43761 0.19333 0.0
N186 N 0.52866 0.45482 0.20339 0.0
C187 C 0.55334 0.45467 0.22878 0.0
C188 C 0.52052 0.43678 0.15057 0.0
C189 C 0.54056 0.42614 0.1447 0.0
O190 O 0.61585 0.44668 0.28647 0.0
C191 C 0.61745 0.4654 0.08108 0.0
O192 O 0.60349 0.47985 0.09978 0.0
H193 H 0.56582 0.46744 0.27113 0.0
H194 H 0.54066 0.41174 0.10645 0.0
N195 N 0.58075 0.3909 0.20242 0.0
N196 N 0.5786 0.3462 0.19514 0.0
C197 C 0.59542 0.37642 0.18289 0.0
C198 C 0.55378 0.3692 0.22746 0.0
C199 C 0.55235 0.34163 0.22299 0.0
C200 C 0.62379 0.4713 0.3169 0.0
O201 O 0.62268 0.49353 0.28705 0.0
H202 H 0.61827 0.38795 0.16184 0.0
H203 H 0.53657 0.37326 0.24832 0.0
O204 O 0.62026 0.44791 0.12165 0.0
H205 H 0.50158 0.43179 0.11817 0.0
H206 H 0.53335 0.31988 0.23882 0.0
Cu207 Cu 0.1721 0.54221 0.43852 0.0
N208 N 0.13274 0.50732 0.43217 0.0
N209 N 0.08147 0.47634 0.43496 0.0
C210 C 0.10585 0.50251 0.45708 0.0
C211 C 0.09358 0.46423 0.39515 0.0
C212 C 0.1251 0.48331 0.39362 0.0
O213 O 0.17469 0.56564 0.51607 0.0
C214 C 0.16075 0.56432 0.31831 0.0
O215 O 0.1316 0.54885 0.3353 0.0
H216 H 0.10407 0.51855 0.48825 0.0
H217 H 0.14129 0.48046 0.36464 0.0
N218 N 0.20254 0.53153 0.44353 0.0
N219 N 0.24662 0.5325 0.42308 0.0
C220 C 0.22904 0.5448 0.40932 0.0
C221 C 0.20324 0.5099 0.47996 0.0
C222 C 0.23048 0.51055 0.46771 0.0
C223 C 0.17147 0.5541 0.57291 0.0
O224 O 0.1656 0.52602 0.57846 0.0
H225 H 0.23534 0.56326 0.37512 0.0
H226 H 0.18509 0.49445 0.51248 0.0
O227 O 0.18106 0.56572 0.35751 0.0
H228 H 0.08055 0.4432 0.36846 0.0
H229 H 0.23745 0.4955 0.48866 0.0
Cu230 Cu 0.58362 0.14951 0.59856 0.0
N231 N 0.58648 0.11452 0.60211 0.0
N232 N 0.57121 0.06494 0.60182 0.0
C233 C 0.56235 0.08582 0.5991 0.0
C234 C 0.60226 0.08134 0.60677 0.0
C235 C 0.61159 0.1119 0.60698 0.0
O236 O 0.55781 0.14609 0.67179 0.0
C237 C 0.55613 0.16529 0.49154 0.0
O238 O 0.56256 0.19032 0.52223 0.0
H239 H 0.53878 0.08051 0.5939 0.0
H240 H 0.63498 0.13084 0.61036 0.0
N241 N 0.62275 0.18496 0.60753 0.0
N242 N 0.67016 0.22533 0.59114 0.0
C243 C 0.64572 0.20057 0.56396 0.0
C244 C 0.63331 0.20016 0.66381 0.0
C245 C 0.66224 0.22495 0.65392 0.0
C246 C 0.55401 0.16725 0.69326 0.0
O247 O 0.56641 0.19332 0.66179 0.0
H248 H 0.64445 0.19408 0.5135 0.0
H249 H 0.62083 0.19351 0.70935 0.0
O250 O 0.56385 0.14727 0.51625 0.0
H251 H 0.61722 0.07202 0.61072 0.0
H252 H 0.67665 0.24108 0.69067 0.0
Cu253 Cu 0.48227 0.62818 0.76667 0.0
N254 N 0.47579 0.58873 0.76385 0.0
N255 N 0.49276 0.55583 0.76613 0.0
C256 C 0.49718 0.58277 0.78696 0.0
C257 C 0.46724 0.54415 0.72859 0.0
C258 C 0.4568 0.56451 0.72726 0.0
O259 O 0.50097 0.64371 0.85143 0.0
C260 C 0.49076 0.64017 0.63841 0.0
O261 O 0.46149 0.61935 0.64275 0.0
H262 H 0.51731 0.5993 0.81359 0.0
H263 H 0.43817 0.56276 0.69782 0.0
N264 N 0.44742 0.63245 0.75963 0.0
N265 N 0.42347 0.65834 0.73891 0.0
C266 C 0.45013 0.66001 0.75573 0.0
C267 C 0.41771 0.61235 0.74564 0.0
C268 C 0.4029 0.62835 0.73228 0.0
C269 C 0.48137 0.63406 0.89757 0.0
O270 O 0.45202 0.61679 0.88346 0.0
H271 H 0.47195 0.68108 0.76042 0.0
H272 H 0.40801 0.58805 0.74139 0.0
O273 O 0.50709 0.64869 0.68998 0.0
H274 H 0.45769 0.52317 0.70144 0.0
H275 H 0.37925 0.61879 0.71668 0.0
C276 C 0.53843 0.17842 0.31934 0.0
C277 C 0.53217 0.1511 0.29002 0.0
H278 H 0.55098 0.20454 0.40724 0.0
C279 C 0.52845 0.12694 0.3292 0.0
H280 H 0.54223 0.19763 0.28959 0.0
C281 C 0.53378 0.13089 0.39601 0.0
C282 C 0.54333 0.15928 0.42473 0.0
H283 H 0.5243 0.10592 0.3073 0.0
H284 H 0.53263 0.11236 0.42426 0.0
C285 C 0.54387 0.18248 0.38649 0.0
C286 C 0.48659 0.65308 0.4635 0.0
C287 C 0.50289 0.6399 0.43847 0.0
H288 H 0.47129 0.66499 0.54915 0.0
C289 C 0.52281 0.63585 0.47995 0.0
H290 H 0.47144 0.65692 0.43259 0.0
C291 C 0.52288 0.64075 0.54701 0.0
C292 C 0.50324 0.64995 0.57271 0.0
H293 H 0.53581 0.62587 0.46192 0.0
H294 H 0.53531 0.63382 0.57911 0.0
C295 C 0.4868 0.65809 0.53014 0.0
C296 C 0.8484 0.41942 0.71438 0.0
C297 C 0.87992 0.43907 0.72713 0.0
H298 H 0.81273 0.40017 0.64206 0.0
C299 C 0.90032 0.4503 0.67364 0.0
H300 H 0.83195 0.41035 0.75395 0.0
C301 C 0.88921 0.4443 0.60938 0.0
C302 C 0.85752 0.4264 0.59691 0.0
H303 H 0.92476 0.46551 0.68121 0.0
H304 H 0.90518 0.45565 0.56966 0.0
C305 C 0.83738 0.41332 0.65011 0.0
C306 C 0.49844 0.83457 0.83392 0.0
C307 C 0.50664 0.86288 0.80608 0.0
H308 H 0.4854 0.80747 0.92112 0.0
C309 C 0.51322 0.88734 0.84685 0.0
H310 H 0.49255 0.8152 0.80318 0.0
C311 C 0.50915 0.88304 0.914 0.0
C312 C 0.49774 0.85396 0.94166 0.0
H313 H 0.51906 0.90923 0.82626 0.0
H314 H 0.51272 0.90207 0.94351 0.0
C315 C 0.49397 0.8301 0.90138 0.0
C316 C 0.60909 0.47353 0.96354 0.0
C317 C 0.62221 0.46308 1.01015 0.0
H318 H 0.59359 0.47057 0.86513 0.0
C319 C 0.63548 0.44629 0.98833 0.0
H320 H 0.59828 0.48619 0.9784 0.0
C321 C 0.63354 0.43822 0.92264 0.0
C322 C 0.61848 0.44684 0.87709 0.0
H323 H 0.64572 0.4378 1.02259 0.0
H324 H 0.6422 0.42361 0.90811 0.0
C325 C 0.60689 0.46513 0.89796 0.0
C326 C 0.19915 0.58761 0.22666 0.0
C327 C 0.1695 0.5775 0.25156 0.0
H328 H 0.22964 0.60574 0.14472 0.0
C329 C 0.14766 0.57857 0.21068 0.0
H330 H 0.2165 0.58691 0.25657 0.0
C331 C 0.15522 0.58942 0.14666 0.0
C332 C 0.18473 0.59921 0.12143 0.0
H333 H 0.12459 0.57092 0.22805 0.0
H334 H 0.13776 0.58992 0.11676 0.0
C335 C 0.20663 0.5982 0.1623 0.0
C336 C 0.60575 0.32627 0.12957 0.0
C337 C 0.58664 0.32333 0.18228 0.0
H338 H 0.62447 0.30473 0.07126 0.0
C339 C 0.57433 0.29693 0.22101 0.0
H340 H 0.61557 0.34631 0.09875 0.0
C341 C 0.57953 0.27338 0.20552 0.0
C342 C 0.59713 0.27547 0.15078 0.0
H343 H 0.56024 0.29424 0.26297 0.0
H344 H 0.56912 0.2531 0.23566 0.0
C345 C 0.61095 0.30253 0.11393 0.0
C346 C 0.30934 0.55636 0.29879 0.0
C347 C 0.33141 0.5527 0.33311 0.0
H348 H 0.26528 0.5529 0.30036 0.0
C349 C 0.3256 0.54327 0.39852 0.0
H350 H 0.31328 0.5639 0.24855 0.0
C351 C 0.29786 0.53673 0.42825 0.0
C352 C 0.27563 0.54004 0.39349 0.0
H353 H 0.34211 0.54013 0.42603 0.0
H354 H 0.2938 0.52914 0.47844 0.0
C355 C 0.28193 0.55031 0.32867 0.0
C356 C 0.71589 0.27741 0.58507 0.0
C357 C 0.69931 0.24732 0.56182 0.0
H358 H 0.75755 0.32091 0.58109 0.0
C359 C 0.71261 0.23884 0.51245 0.0
H360 H 0.70622 0.28486 0.62251 0.0
C361 C 0.7422 0.25958 0.48879 0.0
C362 C 0.7591 0.28945 0.5133 0.0
H363 H 0.70058 0.21588 0.49363 0.0
H364 H 0.7519 0.25213 0.45141 0.0
C365 C 0.74528 0.29821 0.56095 0.0
C366 C 0.40314 0.70957 0.64672 0.0
C367 C 0.42136 0.7374 0.67909 0.0
H368 H 0.38945 0.66231 0.64065 0.0
C369 C 0.43714 0.73755 0.73583 0.0
H370 H 0.39077 0.70856 0.60282 0.0
C371 C 0.4366 0.71125 0.75692 0.0
C372 C 0.41994 0.68391 0.72248 0.0
H373 H 0.45071 0.7583 0.76309 0.0
H374 H 0.44991 0.71243 0.79941 0.0
C375 C 0.40237 0.68304 0.66836 0.0
C376 C 0.77222 0.51144 0.79583 0.0
C377 C 0.74232 0.49948 0.82102 0.0
H378 H 0.81612 0.51466 0.80547 0.0
C379 C 0.7338 0.48061 0.87637 0.0
H380 H 0.77936 0.52578 0.75285 0.0
C381 C 0.75491 0.4744 0.90668 0.0
C382 C 0.78488 0.48652 0.88176 0.0
H383 H 0.71101 0.47119 0.8971 0.0
H384 H 0.74774 0.46 0.94958 0.0
C385 C 0.79317 0.50483 0.82555 0.0
C386 C 0.3161 0.76166 0.96612 0.0
C387 C 0.29187 0.73592 0.99738 0.0
H388 H 0.36135 0.8009 0.97353 0.0
C389 C 0.29646 0.72987 0.06201 0.0
H390 H 0.31391 0.76699 0.91611 0.0
C391 C 0.32403 0.74917 0.09466 0.0
C392 C 0.34794 0.77533 0.06402 0.0
H393 H 0.27858 0.71049 0.08817 0.0
H394 H 0.32645 0.74347 0.14423 0.0
C395 C 0.34368 0.78107 0.99894 0.0
C396 C 0.54894 0.19108 0.79505 0.0
C397 C 0.54235 0.16476 0.76047 0.0
H398 H 0.55438 0.21116 0.88917 0.0
C399 C 0.52916 0.13679 0.79406 0.0
H400 H 0.55905 0.21297 0.77073 0.0
C401 C 0.52602 0.13579 0.86175 0.0
C402 C 0.53584 0.16266 0.89674 0.0
H403 H 0.5236 0.11605 0.7688 0.0
H404 H 0.51882 0.11455 0.88718 0.0
C405 C 0.54598 0.19006 0.86284 0.0
C406 C 0.51354 0.63329 0.99011 0.0
C407 C 0.49018 0.63814 0.96677 0.0
H408 H 0.53216 0.62242 0.07336 0.0
C409 C 0.47057 0.64054 1.01131 0.0
H410 H 0.52869 0.63097 0.95646 0.0
C411 C 0.47242 0.63563 0.07742 0.0
C412 C 0.4938 0.62791 0.10062 0.0
H413 H 0.45243 0.64436 0.99447 0.0
H414 H 0.45585 0.63619 0.10988 0.0
C415 C 0.51534 0.62818 0.05686 0.0
C416 C 0.89734 0.45132 0.14128 0.0
C417 C 0.87274 0.42766 0.1067 0.0
H418 H 0.91884 0.46831 0.23395 0.0
C419 C 0.85155 0.40141 0.14163 0.0
H420 H 0.91405 0.47195 0.1164 0.0
C421 C 0.85446 0.39918 0.2093 0.0
C422 C 0.87838 0.42336 0.2442 0.0
H423 H 0.83228 0.38271 0.11686 0.0
H424 H 0.83738 0.37887 0.23454 0.0
C425 C 0.89999 0.44928 0.209 0.0
C426 C 0.51282 0.8626 0.3916 0.0
C427 C 0.50254 0.834 0.42077 0.0
H428 H 0.5153 0.88716 0.30475 0.0
C429 C 0.49041 0.80822 0.3806 0.0
H430 H 0.52239 0.88299 0.42088 0.0
C431 C 0.48637 0.81063 0.31383 0.0
C432 C 0.49425 0.83887 0.28569 0.0
H433 H 0.48243 0.78585 0.40124 0.0
H434 H 0.47548 0.79006 0.28506 0.0
C435 C 0.50864 0.86499 0.32488 0.0
C436 C 0.63292 0.49503 0.49523 0.0
C437 C 0.63678 0.47249 0.52596 0.0
H438 H 0.62635 0.51272 0.40544 0.0
C439 C 0.63803 0.45065 0.48672 0.0
H440 H 0.63198 0.51229 0.52375 0.0
C441 C 0.63466 0.4508 0.41898 0.0
C442 C 0.63029 0.473 0.38824 0.0
H443 H 0.64104 0.43295 0.50842 0.0
H444 H 0.63508 0.43318 0.39074 0.0
C445 C 0.62988 0.49538 0.42723 0.0
C446 C 0.17664 0.60035 0.62819 0.0
C447 C 0.17428 0.5718 0.63256 0.0
H448 H 0.18002 0.63832 0.67908 0.0
C449 C 0.17441 0.56009 0.69485 0.0
H450 H 0.17665 0.6101 0.58122 0.0
C451 C 0.17658 0.57642 0.7513 0.0
C452 C 0.17841 0.60474 0.74686 0.0
H453 H 0.17276 0.53821 0.70016 0.0
H454 H 0.17635 0.56663 0.79836 0.0
C455 C 0.17855 0.61652 0.68454 0.0
C456 C 0.50093 0.03246 0.07614 0.0
C457 C 0.53225 0.04891 0.09374 0.0
H458 H 0.45954 0.98912 0.06984 0.0
C459 C 0.54598 0.03264 0.11711 0.0
H460 H 0.48965 0.04393 0.05628 0.0
C461 C 0.52855 1.00086 0.12441 0.0
C462 C 0.49699 0.98469 0.10882 0.0
H463 H 0.56995 0.04447 0.1315 0.0
H464 H 0.53956 0.98907 0.14401 0.0
C465 C 0.48356 1.00089 0.08384 0.0
C466 C 0.50049 0.48199 0.18193 0.0
C467 C 0.515 0.47201 0.22585 0.0
H468 H 0.47639 0.50613 0.16876 0.0
C469 C 0.51628 0.47941 0.29194 0.0
H470 H 0.49944 0.47703 0.13056 0.0
C471 C 0.5032 0.49617 0.31371 0.0
C472 C 0.48865 0.50613 0.26989 0.0
H473 H 0.5271 0.47194 0.32708 0.0
H474 H 0.50479 0.5016 0.36491 0.0
C475 C 0.48758 0.49897 0.20366 0.0
C476 C 0.03922 0.46793 0.5094 0.0
C477 C 0.04913 0.46434 0.44804 0.0
H478 H 1.00079 0.45782 0.57078 0.0
C479 C 0.02684 0.44821 0.39986 0.0
H480 H 0.0558 0.48013 0.54752 0.0
C481 C 0.9954 0.43573 0.41289 0.0
C482 C 0.98542 0.43859 0.47478 0.0
H483 H 0.03373 0.44534 0.35187 0.0
H484 H 0.97884 0.42314 0.37501 0.0
C485 C 1.00773 0.45496 0.52281 0.0
C486 C 0.50172 0.98593 0.61634 0.0
C487 C 0.51364 0.96772 0.59616 0.0
H488 H 0.51063 0.03089 0.63513 0.0
C489 C 0.54472 0.9822 0.57687 0.0
H490 H 0.47805 0.97564 0.63224 0.0
C491 C 0.56345 1.01391 0.57856 0.0
C492 C 0.55167 0.03214 0.59946 0.0
H493 H 0.55462 0.96907 0.55977 0.0
H494 H 0.58711 0.02412 0.5627 0.0
C495 C 0.52048 0.01771 0.61801 0.0
C496 C 0.55615 0.5458 0.8345 0.0
C497 C 0.56177 0.53104 0.78338 0.0
H498 H 0.52958 0.56471 0.86948 0.0
C499 C 0.54235 0.5223 0.72845 0.0
H500 H 0.56996 0.55223 0.8783 0.0
C501 C 0.51884 0.52925 0.72378 0.0
C502 C 0.51426 0.54523 0.77377 0.0
H503 H 0.54595 0.51107 0.68791 0.0
H504 H 0.50516 0.52328 0.6798 0.0
C505 C 0.53284 0.55286 0.82965 0.0
C506 C 0.04762 0.57293 0.90594 0.0
C507 C 0.06167 0.60462 0.91491 0.0
H508 H 1.00548 0.53022 0.89481 0.0
C509 C 0.04249 0.61702 0.92132 0.0
H510 H 0.06134 0.56237 0.90004 0.0
C511 C 1.01044 0.59851 0.91772 0.0
C512 C 0.99649 0.56698 0.90815 0.0
H513 H 0.05208 0.64107 0.92957 0.0
H514 H 0.99652 0.60892 0.92307 0.0
C515 C 1.01546 0.55436 0.90291 0.0
loop_
_geom_bond_atom_site_label_1
_geom_bond_atom_site_label_2
_geom_bond_distance
_geom_bond_site_symmetry_2
_ccdc_geom_bond_type
Cu0 N1 1.999 . S
Cu0 O6 1.974 1_554 S
Cu0 N11 1.985 . S
Cu0 O20 1.959 . S
N1 Cu0 1.999 . S
N1 C3 1.263 . S
N1 C5 1.389 . S
N2 C3 1.358 . S
N2 C4 1.400 . S
C3 N1 1.263 . S
C3 N2 1.358 . S
C3 H9 0.930 . S
C4 N2 1.400 . S
C4 C5 1.351 . S
C4 H21 0.930 . S
C5 N1 1.389 . S
C5 C4 1.351 . S
C5 H10 0.930 . S
O6 Cu0 1.974 1_556 S
O6 C16 1.282 . S
C7 O8 1.261 . S
C7 O20 1.251 . S
O8 C7 1.261 . S
H9 C3 0.930 . S
H10 C5 0.930 . S
N11 Cu0 1.985 . S
N11 C13 1.335 . S
N11 C14 1.390 . S
N12 C13 1.345 . S
N12 C15 1.336 . S
C13 N11 1.335 . S
C13 N12 1.345 . S
C13 H18 0.930 . S
C14 N11 1.390 . S
C14 C15 1.346 . S
C14 H19 0.930 1_554 S
C15 N12 1.336 . S
C15 C14 1.346 . S
C15 H22 0.929 . S
C16 O6 1.282 . S
C16 O17 1.216 . S
O17 C16 1.216 . S
H18 C13 0.930 . S
H19 C14 0.930 1_556 S
O20 Cu0 1.959 . S
O20 C7 1.251 . S
H21 C4 0.930 . S
H22 C15 0.929 . S
Cu23 N24 1.999 . S
Cu23 O29 1.974 . S
Cu23 N34 1.985 . S
Cu23 O43 1.959 . S
N24 Cu23 1.999 . S
N24 C26 1.263 . S
N24 C28 1.389 . S
N25 C26 1.358 . S
N25 C27 1.400 . S
C26 N24 1.263 . S
C26 N25 1.358 . S
C26 H32 0.930 . S
C27 N25 1.400 . S
C27 C28 1.351 . S
C27 H44 0.930 . S
C28 N24 1.389 . S
C28 C27 1.351 . S
C28 H33 0.930 . S
O29 Cu23 1.974 . S
O29 C39 1.282 . S
C30 O31 1.261 . S
C30 O43 1.251 . S
O31 C30 1.261 . S
H32 C26 0.930 . S
H33 C28 0.930 . S
N34 Cu23 1.985 . S
N34 C36 1.335 . S
N34 C37 1.390 . S
N35 C36 1.345 . S
N35 C38 1.336 . S
C36 N34 1.335 . S
C36 N35 1.345 . S
C36 H41 0.930 . S
C37 N34 1.390 . S
C37 C38 1.346 . S
C37 H42 0.930 . S
C38 N35 1.336 . S
C38 C37 1.346 . S
C38 H45 0.929 . S
C39 O29 1.282 . S
C39 O40 1.216 . S
O40 C39 1.216 . S
H41 C36 0.930 . S
H42 C37 0.930 . S
O43 Cu23 1.959 . S
O43 C30 1.251 . S
H44 C27 0.930 . S
H45 C38 0.929 . S
Cu46 N47 1.999 . S
Cu46 O52 1.974 . S
Cu46 N57 1.985 . S
Cu46 O66 1.959 . S
N47 Cu46 1.999 . S
N47 C49 1.263 . S
N47 C51 1.389 . S
N48 C49 1.358 . S
N48 C50 1.400 . S
C49 N47 1.263 . S
C49 N48 1.358 . S
C49 H55 0.930 . S
C50 N48 1.400 . S
C50 C51 1.351 . S
C50 H67 0.930 . S
C51 N47 1.389 . S
C51 C50 1.351 . S
C51 H56 0.930 . S
O52 Cu46 1.974 . S
O52 C62 1.282 . S
C53 O54 1.261 . S
C53 O66 1.251 . S
O54 C53 1.261 . S
H55 C49 0.930 . S
H56 C51 0.930 . S
N57 Cu46 1.985 . S
N57 C59 1.335 . S
N57 C60 1.390 . S
N58 C59 1.345 . S
N58 C61 1.336 . S
C59 N57 1.335 . S
C59 N58 1.345 . S
C59 H64 0.930 . S
C60 N57 1.390 . S
C60 C61 1.346 . S
C60 H65 0.930 . S
C61 N58 1.336 . S
C61 C60 1.346 . S
C61 H68 0.929 . S
C62 O52 1.282 . S
C62 O63 1.216 . S
O63 C62 1.216 . S
H64 C59 0.930 . S
H65 C60 0.930 . S
O66 Cu46 1.959 . S
O66 C53 1.251 . S
H67 C50 0.930 . S
H68 C61 0.929 . S
Cu69 N70 1.999 . S
Cu69 O75 1.974 . S
Cu69 N80 1.985 . S
Cu69 O89 1.959 . S
N70 Cu69 1.999 . S
N70 C72 1.263 . S
N70 C74 1.389 . S
N71 C72 1.358 . S
N71 C73 1.400 . S
C72 N70 1.263 . S
C72 N71 1.358 . S
C72 H78 0.930 . S
C73 N71 1.400 . S
C73 C74 1.351 . S
C73 H90 0.930 . S
C74 N70 1.389 . S
C74 C73 1.351 . S
C74 H79 0.930 . S
O75 Cu69 1.974 . S
O75 C85 1.282 . S
C76 O77 1.261 . S
C76 O89 1.251 . S
O77 C76 1.261 . S
H78 C72 0.930 . S
H79 C74 0.930 . S
N80 Cu69 1.985 . S
N80 C82 1.335 . S
N80 C83 1.390 . S
N81 C82 1.345 . S
N81 C84 1.336 . S
C82 N80 1.335 . S
C82 N81 1.345 . S
C82 H87 0.930 . S
C83 N80 1.390 . S
C83 C84 1.346 . S
C83 H88 0.930 . S
C84 N81 1.336 . S
C84 C83 1.346 . S
C84 H91 0.929 . S
C85 O75 1.282 . S
C85 O86 1.216 . S
O86 C85 1.216 . S
H87 C82 0.930 . S
H88 C83 0.930 . S
O89 Cu69 1.959 . S
O89 C76 1.251 . S
H90 C73 0.930 . S
H91 C84 0.929 . S
Cu92 N93 1.999 . S
Cu92 O98 1.974 . S
Cu92 N103 1.985 . S
Cu92 O112 1.959 . S
N93 Cu92 1.999 . S
N93 C95 1.263 . S
N93 C97 1.389 . S
N94 C95 1.358 . S
N94 C96 1.400 . S
C95 N93 1.263 . S
C95 N94 1.358 . S
C95 H101 0.930 . S
C96 N94 1.400 . S
C96 C97 1.351 . S
C96 H113 0.930 . S
C97 N93 1.389 . S
C97 C96 1.351 . S
C97 H102 0.930 . S
O98 Cu92 1.974 . S
O98 C108 1.282 . S
C99 O100 1.261 . S
C99 O112 1.251 . S
O100 C99 1.261 . S
H101 C95 0.930 . S
H102 C97 0.930 . S
N103 Cu92 1.985 . S
N103 C105 1.335 . S
N103 C106 1.390 . S
N104 C105 1.345 . S
N104 C107 1.336 . S
C105 N103 1.335 . S
C105 N104 1.345 . S
C105 H110 0.930 . S
C106 N103 1.390 . S
C106 C107 1.346 . S
C106 H111 0.930 . S
C107 N104 1.336 . S
C107 C106 1.346 . S
C107 H114 0.929 . S
C108 O98 1.282 . S
C108 O109 1.216 . S
O109 C108 1.216 . S
H110 C105 0.930 . S
H111 C106 0.930 . S
O112 Cu92 1.959 . S
O112 C99 1.251 . S
H113 C96 0.930 . S
H114 C107 0.929 . S
Cu115 N116 1.999 . S
Cu115 O121 1.974 . S
Cu115 N126 1.985 . S
Cu115 O135 1.959 . S
N116 Cu115 1.999 . S
N116 C118 1.263 . S
N116 C120 1.389 . S
N117 C118 1.358 . S
N117 C119 1.400 . S
C118 N116 1.263 . S
C118 N117 1.358 . S
C118 H124 0.930 . S
C119 N117 1.400 . S
C119 C120 1.351 . S
C119 H136 0.930 . S
C120 N116 1.389 . S
C120 C119 1.351 . S
C120 H125 0.930 . S
O121 Cu115 1.974 . S
O121 C131 1.282 . S
C122 O123 1.261 1_554 S
C122 O135 1.251 1_554 S
O123 C122 1.261 1_556 S
H124 C118 0.930 . S
H125 C120 0.930 . S
N126 Cu115 1.985 . S
N126 C128 1.335 . S
N126 C129 1.390 . S
N127 C128 1.345 . S
N127 C130 1.336 . S
C128 N126 1.335 . S
C128 N127 1.345 . S
C128 H133 0.930 . S
C129 N126 1.390 . S
C129 C130 1.346 . S
C129 H134 0.930 . S
C130 N127 1.336 . S
C130 C129 1.346 . S
C130 H137 0.929 . S
C131 O121 1.282 . S
C131 O132 1.216 . S
O132 C131 1.216 . S
H133 C128 0.930 . S
H134 C129 0.930 . S
O135 Cu115 1.959 . S
O135 C122 1.251 1_556 S
H136 C119 0.930 . S
H137 C130 0.929 . S
Cu138 N139 1.999 . S
Cu138 O144 1.974 . S
Cu138 N149 1.985 . S
Cu138 O158 1.959 . S
N139 Cu138 1.999 . S
N139 C141 1.263 . S
N139 C143 1.389 . S
N140 C141 1.358 . S
N140 C142 1.400 . S
C141 N139 1.263 . S
C141 N140 1.358 . S
C141 H147 0.930 . S
C142 N140 1.400 . S
C142 C143 1.351 . S
C142 H159 0.930 . S
C143 N139 1.389 . S
C143 C142 1.351 . S
C143 H148 0.930 . S
O144 Cu138 1.974 . S
O144 C154 1.282 . S
C145 O146 1.261 . S
C145 O158 1.251 . S
O146 C145 1.261 . S
H147 C141 0.930 . S
H148 C143 0.930 . S
N149 Cu138 1.985 . S
N149 C151 1.335 . S
N149 C152 1.390 . S
N150 C151 1.345 . S
N150 C153 1.336 . S
C151 N149 1.335 . S
C151 N150 1.345 . S
C151 H156 0.930 . S
C152 N149 1.390 . S
C152 C153 1.346 . S
C152 H157 0.930 . S
C153 N150 1.336 . S
C153 C152 1.346 . S
C153 H160 0.929 . S
C154 O144 1.282 . S
C154 O155 1.216 . S
O155 C154 1.216 . S
H156 C151 0.930 . S
H157 C152 0.930 . S
O158 Cu138 1.959 . S
O158 C145 1.251 . S
H159 C142 0.930 . S
H160 C153 0.929 . S
Cu161 N162 1.999 . S
Cu161 O167 1.974 . S
Cu161 N172 1.985 . S
Cu161 O181 1.959 1_554 S
N162 Cu161 1.999 . S
N162 C164 1.263 . S
N162 C166 1.386 1_554 S
N163 C164 1.358 . S
N163 C165 1.400 . S
C164 N162 1.263 . S
C164 N163 1.358 . S
C164 H170 0.930 . S
C165 N163 1.400 . S
C165 C166 1.350 1_554 S
C165 H182 0.930 1_554 S
C166 N162 1.386 1_556 S
C166 C165 1.350 1_556 S
C166 H171 0.933 . S
O167 Cu161 1.974 . S
O167 C177 1.282 . S
C168 O169 1.261 . S
C168 O181 1.251 . S
O169 C168 1.261 . S
H170 C164 0.930 . S
H171 C166 0.933 . S
N172 Cu161 1.985 . S
N172 C174 1.335 . S
N172 C175 1.390 . S
N173 C174 1.345 . S
N173 C176 1.336 . S
C174 N172 1.335 . S
C174 N173 1.345 . S
C174 H179 0.930 1_554 S
C175 N172 1.390 . S
C175 C176 1.346 . S
C175 H180 0.930 . S
C176 N173 1.336 . S
C176 C175 1.346 . S
C176 H183 0.929 . S
C177 O167 1.282 . S
C177 O178 1.216 . S
O178 C177 1.216 . S
H179 C174 0.930 1_556 S
H180 C175 0.930 . S
O181 Cu161 1.959 1_556 S
O181 C168 1.251 . S
H182 C165 0.930 1_556 S
H183 C176 0.929 . S
Cu184 N185 1.999 . S
Cu184 O190 1.974 . S
Cu184 N195 1.985 . S
Cu184 O204 1.959 . S
N185 Cu184 1.999 . S
N185 C187 1.263 . S
N185 C189 1.389 . S
N186 C187 1.358 . S
N186 C188 1.400 . S
C187 N185 1.263 . S
C187 N186 1.358 . S
C187 H193 0.930 . S
C188 N186 1.400 . S
C188 C189 1.351 . S
C188 H205 0.930 . S
C189 N185 1.389 . S
C189 C188 1.351 . S
C189 H194 0.930 . S
O190 Cu184 1.974 . S
O190 C200 1.282 . S
C191 O192 1.261 . S
C191 O204 1.251 . S
O192 C191 1.261 . S
H193 C187 0.930 . S
H194 C189 0.930 . S
N195 Cu184 1.985 . S
N195 C197 1.335 . S
N195 C198 1.390 . S
N196 C197 1.345 . S
N196 C199 1.336 . S
C197 N195 1.335 . S
C197 N196 1.345 . S
C197 H202 0.930 . S
C198 N195 1.390 . S
C198 C199 1.346 . S
C198 H203 0.930 . S
C199 N196 1.336 . S
C199 C198 1.346 . S
C199 H206 0.929 . S
C200 O190 1.282 . S
C200 O201 1.216 . S
O201 C200 1.216 . S
H202 C197 0.930 . S
H203 C198 0.930 . S
O204 Cu184 1.959 . S
O204 C191 1.251 . S
H205 C188 0.930 . S
H206 C199 0.929 . S
Cu207 N208 1.999 . S
Cu207 O213 1.974 . S
Cu207 N218 1.985 . S
Cu207 O227 1.959 . S
N208 Cu207 1.999 . S
N208 C210 1.263 . S
N208 C212 1.389 . S
N209 C210 1.358 . S
N209 C211 1.400 . S
C210 N208 1.263 . S
C210 N209 1.358 . S
C210 H216 0.930 . S
C211 N209 1.400 . S
C211 C212 1.351 . S
C211 H228 0.930 . S
C212 N208 1.389 . S
C212 C211 1.351 . S
C212 H217 0.930 . S
O213 Cu207 1.974 . S
O213 C223 1.282 . S
C214 O215 1.261 . S
C214 O227 1.251 . S
O215 C214 1.261 . S
H216 C210 0.930 . S
H217 C212 0.930 . S
N218 Cu207 1.985 . S
N218 C220 1.335 . S
N218 C221 1.390 . S
N219 C220 1.345 . S
N219 C222 1.336 . S
C220 N218 1.335 . S
C220 N219 1.345 . S
C220 H225 0.930 . S
C221 N218 1.390 . S
C221 C222 1.346 . S
C221 H226 0.930 . S
C222 N219 1.336 . S
C222 C221 1.346 . S
C222 H229 0.929 . S
C223 O213 1.282 . S
C223 O224 1.216 . S
O224 C223 1.216 . S
H225 C220 0.930 . S
H226 C221 0.930 . S
O227 Cu207 1.959 . S
O227 C214 1.251 . S
H228 C211 0.930 . S
H229 C222 0.929 . S
Cu230 N231 1.999 . S
Cu230 O236 1.974 . S
Cu230 N241 1.985 . S
Cu230 O250 1.959 . S
N231 Cu230 1.999 . S
N231 C233 1.263 . S
N231 C235 1.389 . S
N232 C233 1.358 . S
N232 C234 1.400 . S
C233 N231 1.263 . S
C233 N232 1.358 . S
C233 H239 0.930 . S
C234 N232 1.400 . S
C234 C235 1.351 . S
C234 H251 0.930 . S
C235 N231 1.389 . S
C235 C234 1.351 . S
C235 H240 0.930 . S
O236 Cu230 1.974 . S
O236 C246 1.282 . S
C237 O238 1.261 . S
C237 O250 1.251 . S
O238 C237 1.261 . S
H239 C233 0.930 . S
H240 C235 0.930 . S
N241 Cu230 1.985 . S
N241 C243 1.335 . S
N241 C244 1.390 . S
N242 C243 1.345 . S
N242 C245 1.336 . S
C243 N241 1.335 . S
C243 N242 1.345 . S
C243 H248 0.930 . S
C244 N241 1.390 . S
C244 C245 1.346 . S
C244 H249 0.930 . S
C245 N242 1.336 . S
C245 C244 1.346 . S
C245 H252 0.929 . S
C246 O236 1.282 . S
C246 O247 1.216 . S
O247 C246 1.216 . S
H248 C243 0.930 . S
H249 C244 0.930 . S
O250 Cu230 1.959 . S
O250 C237 1.251 . S
H251 C234 0.930 . S
H252 C245 0.929 . S
Cu253 N254 1.999 . S
Cu253 O259 1.974 . S
Cu253 N264 1.985 . S
Cu253 O273 1.959 . S
N254 Cu253 1.999 . S
N254 C256 1.263 . S
N254 C258 1.389 . S
N255 C256 1.358 . S
N255 C257 1.400 . S
C256 N254 1.263 . S
C256 N255 1.358 . S
C256 H262 0.930 . S
C257 N255 1.400 . S
C257 C258 1.351 . S
C257 H274 0.930 . S
C258 N254 1.389 . S
C258 C257 1.351 . S
C258 H263 0.930 . S
O259 Cu253 1.974 . S
O259 C269 1.282 . S
C260 O261 1.261 . S
C260 O273 1.251 . S
O261 C260 1.261 . S
H262 C256 0.930 . S
H263 C258 0.930 . S
N264 Cu253 1.985 . S
N264 C266 1.335 . S
N264 C267 1.390 . S
N265 C266 1.345 . S
N265 C268 1.336 . S
C266 N264 1.335 . S
C266 N265 1.345 . S
C266 H271 0.930 . S
C267 N264 1.390 . S
C267 C268 1.346 . S
C267 H272 0.930 . S
C268 N265 1.336 . S
C268 C267 1.346 . S
C268 H275 0.929 . S
C269 O259 1.282 . S
C269 O270 1.216 . S
O270 C269 1.216 . S
H271 C266 0.930 . S
H272 C267 0.930 . S
O273 Cu253 1.959 . S
O273 C260 1.251 . S
H274 C257 0.930 . S
H275 C268 0.929 . S
C276 C277 1.387 . S
C276 H280 0.950 . S
C276 C285 1.390 . S
C277 C276 1.387 . S
C277 C279 1.387 . S
H278 C285 0.950 . S
C279 C277 1.387 . S
C279 C281 1.390 . S
C279 H283 0.950 . S
H280 C276 0.950 . S
C281 C279 1.390 . S
C281 C282 1.387 . S
C281 H284 0.950 . S
C282 C281 1.387 . S
C282 C285 1.387 . S
H283 C279 0.950 . S
H284 C281 0.950 . S
C285 C276 1.390 . S
C285 H278 0.950 . S
C285 C282 1.387 . S
C286 C287 1.387 . S
C286 H290 0.950 . S
C286 C295 1.390 . S
C287 C286 1.387 . S
C287 C289 1.387 . S
H288 C295 0.950 . S
C289 C287 1.387 . S
C289 C291 1.390 . S
C289 H293 0.950 . S
H290 C286 0.950 . S
C291 C289 1.390 . S
C291 C292 1.387 . S
C291 H294 0.950 . S
C292 C291 1.387 . S
C292 C295 1.387 . S
H293 C289 0.950 . S
H294 C291 0.950 . S
C295 C286 1.390 . S
C295 H288 0.950 . S
C295 C292 1.387 . S
C296 C297 1.387 . S
C296 H300 0.950 . S
C296 C305 1.390 . S
C297 C296 1.387 . S
C297 C299 1.387 . S
H298 C305 0.950 . S
C299 C297 1.387 . S
C299 C301 1.390 . S
C299 H303 0.950 . S
H300 C296 0.950 . S
C301 C299 1.390 . S
C301 C302 1.387 . S
C301 H304 0.950 . S
C302 C301 1.387 . S
C302 C305 1.387 . S
H303 C299 0.950 . S
H304 C301 0.950 . S
C305 C296 1.390 . S
C305 H298 0.950 . S
C305 C302 1.387 . S
C306 C307 1.387 . S
C306 H310 0.950 . S
C306 C315 1.390 . S
C307 C306 1.387 . S
C307 C309 1.387 . S
H308 C315 0.950 . S
C309 C307 1.387 . S
C309 C311 1.390 . S
C309 H313 0.950 . S
H310 C306 0.950 . S
C311 C309 1.390 . S
C311 C312 1.387 . S
C311 H314 0.950 . S
C312 C311 1.387 . S
C312 C315 1.387 . S
H313 C309 0.950 . S
H314 C311 0.950 . S
C315 C306 1.390 . S
C315 H308 0.950 . S
C315 C312 1.387 . S
C316 C317 1.387 1_556 S
C316 H320 0.950 1_556 S
C316 C325 1.390 . S
C317 C316 1.387 1_554 S
C317 C319 1.387 . S
H318 C325 0.950 . S
C319 C317 1.387 . S
C319 C321 1.390 1_554 S
C319 H323 0.950 . S
H320 C316 0.950 1_554 S
C321 C319 1.390 1_556 S
C321 C322 1.387 . S
C321 H324 0.950 . S
C322 C321 1.387 . S
C322 C325 1.387 . S
H323 C319 0.950 . S
H324 C321 0.950 . S
C325 C316 1.390 . S
C325 H318 0.950 . S
C325 C322 1.387 . S
C326 C327 1.387 . S
C326 H330 0.950 . S
C326 C335 1.390 . S
C327 C326 1.387 . S
C327 C329 1.387 . S
H328 C335 0.950 . S
C329 C327 1.387 . S
C329 C331 1.390 . S
C329 H333 0.950 . S
H330 C326 0.950 . S
C331 C329 1.390 . S
C331 C332 1.387 . S
C331 H334 0.950 . S
C332 C331 1.387 . S
C332 C335 1.387 . S
H333 C329 0.950 . S
H334 C331 0.950 . S
C335 C326 1.390 . S
C335 H328 0.950 . S
C335 C332 1.387 . S
C336 C337 1.387 . S
C336 H340 0.950 . S
C336 C345 1.390 . S
C337 C336 1.387 . S
C337 C339 1.387 . S
H338 C345 0.950 . S
C339 C337 1.387 . S
C339 C341 1.390 . S
C339 H343 0.950 . S
H340 C336 0.950 . S
C341 C339 1.390 . S
C341 C342 1.387 . S
C341 H344 0.950 . S
C342 C341 1.387 . S
C342 C345 1.387 . S
H343 C339 0.950 . S
H344 C341 0.950 . S
C345 C336 1.390 . S
C345 H338 0.950 . S
C345 C342 1.387 . S
C346 C347 1.387 . S
C346 H350 0.950 . S
C346 C355 1.390 . S
C347 C346 1.387 . S
C347 C349 1.387 . S
H348 C355 0.950 . S
C349 C347 1.387 . S
C349 C351 1.390 . S
C349 H353 0.950 . S
H350 C346 0.950 . S
C351 C349 1.390 . S
C351 C352 1.387 . S
C351 H354 0.950 . S
C352 C351 1.387 . S
C352 C355 1.387 . S
H353 C349 0.950 . S
H354 C351 0.950 . S
C355 C346 1.390 . S
C355 H348 0.950 . S
C355 C352 1.387 . S
C356 C357 1.387 . S
C356 H360 0.950 . S
C356 C365 1.390 . S
C357 C356 1.387 . S
C357 C359 1.387 . S
H358 C365 0.950 . S
C359 C357 1.387 . S
C359 C361 1.390 . S
C359 H363 0.950 . S
H360 C356 0.950 . S
C361 C359 1.390 . S
C361 C362 1.387 . S
C361 H364 0.950 . S
C362 C361 1.387 . S
C362 C365 1.387 . S
H363 C359 0.950 . S
H364 C361 0.950 . S
C365 C356 1.390 . S
C365 H358 0.950 . S
C365 C362 1.387 . S
C366 C367 1.387 . S
C366 H370 0.950 . S
C366 C375 1.390 . S
C367 C366 1.387 . S
C367 C369 1.387 . S
H368 C375 0.950 . S
C369 C367 1.387 . S
C369 C371 1.390 . S
C369 H373 0.950 . S
H370 C366 0.950 . S
C371 C369 1.390 . S
C371 C372 1.387 . S
C371 H374 0.950 . S
C372 C371 1.387 . S
C372 C375 1.387 . S
H373 C369 0.950 . S
H374 C371 0.950 . S
C375 C366 1.390 . S
C375 H368 0.950 . S
C375 C372 1.387 . S
C376 C377 1.387 . S
C376 H380 0.950 . S
C376 C385 1.390 . S
C377 C376 1.387 . S
C377 C379 1.387 . S
H378 C385 0.950 . S
C379 C377 1.387 . S
C379 C381 1.390 . S
C379 H383 0.950 . S
H380 C376 0.950 . S
C381 C379 1.390 . S
C381 C382 1.387 . S
C381 H384 0.950 . S
C382 C381 1.387 . S
C382 C385 1.387 . S
H383 C379 0.950 . S
H384 C381 0.950 . S
C385 C376 1.390 . S
C385 H378 0.950 . S
C385 C382 1.387 . S
C386 C387 1.387 . S
C386 H390 0.950 . S
C386 C395 1.390 . S
C387 C386 1.387 . S
C387 C389 1.387 1_556 S
H388 C395 0.950 . S
C389 C387 1.387 1_554 S
C389 C391 1.390 . S
C389 H393 0.950 . S
H390 C386 0.950 . S
C391 C389 1.390 . S
C391 C392 1.387 1_554 S
C391 H394 0.950 . S
C392 C391 1.387 1_556 S
C392 C395 1.387 . S
H393 C389 0.950 . S
H394 C391 0.950 . S
C395 C386 1.390 . S
C395 H388 0.950 . S
C395 C392 1.387 . S
C396 C397 1.387 . S
C396 H400 0.950 . S
C396 C405 1.390 . S
C397 C396 1.387 . S
C397 C399 1.387 . S
H398 C405 0.950 . S
C399 C397 1.387 . S
C399 C401 1.390 . S
C399 H403 0.950 . S
H400 C396 0.950 . S
C401 C399 1.390 . S
C401 C402 1.387 . S
C401 H404 0.950 . S
C402 C401 1.387 . S
C402 C405 1.387 . S
H403 C399 0.950 . S
H404 C401 0.950 . S
C405 C396 1.390 . S
C405 H398 0.950 . S
C405 C402 1.387 . S
C406 C407 1.387 . S
C406 H410 0.950 . S
C406 C415 1.390 1_556 S
C407 C406 1.387 . S
C407 C409 1.387 . S
H408 C415 0.950 . S
C409 C407 1.387 . S
C409 C411 1.390 1_556 S
C409 H413 0.950 . S
H410 C406 0.950 . S
C411 C409 1.390 1_554 S
C411 C412 1.387 . S
C411 H414 0.950 . S
C412 C411 1.387 . S
C412 C415 1.387 . S
H413 C409 0.950 . S
H414 C411 0.950 . S
C415 C406 1.390 1_554 S
C415 H408 0.950 . S
C415 C412 1.387 . S
C416 C417 1.387 . S
C416 H420 0.950 . S
C416 C425 1.390 . S
C417 C416 1.387 . S
C417 C419 1.387 . S
H418 C425 0.950 . S
C419 C417 1.387 . S
C419 C421 1.390 . S
C419 H423 0.950 . S
H420 C416 0.950 . S
C421 C419 1.390 . S
C421 C422 1.387 . S
C421 H424 0.950 . S
C422 C421 1.387 . S
C422 C425 1.387 . S
H423 C419 0.950 . S
H424 C421 0.950 . S
C425 C416 1.390 . S
C425 H418 0.950 . S
C425 C422 1.387 . S
C426 C427 1.387 . S
C426 H430 0.950 . S
C426 C435 1.390 . S
C427 C426 1.387 . S
C427 C429 1.387 . S
H428 C435 0.950 . S
C429 C427 1.387 . S
C429 C431 1.390 . S
C429 H433 0.950 . S
H430 C426 0.950 . S
C431 C429 1.390 . S
C431 C432 1.387 . S
C431 H434 0.950 . S
C432 C431 1.387 . S
C432 C435 1.387 . S
H433 C429 0.950 . S
H434 C431 0.950 . S
C435 C426 1.390 . S
C435 H428 0.950 . S
C435 C432 1.387 . S
C436 C437 1.387 . S
C436 H440 0.950 . S
C436 C445 1.390 . S
C437 C436 1.387 . S
C437 C439 1.387 . S
H438 C445 0.950 . S
C439 C437 1.387 . S
C439 C441 1.390 . S
C439 H443 0.950 . S
H440 C436 0.950 . S
C441 C439 1.390 . S
C441 C442 1.387 . S
C441 H444 0.950 . S
C442 C441 1.387 . S
C442 C445 1.387 . S
H443 C439 0.950 . S
H444 C441 0.950 . S
C445 C436 1.390 . S
C445 H438 0.950 . S
C445 C442 1.387 . S
C446 C447 1.387 . S
C446 H450 0.950 . S
C446 C455 1.390 . S
C447 C446 1.387 . S
C447 C449 1.387 . S
H448 C455 0.950 . S
C449 C447 1.387 . S
C449 C451 1.390 . S
C449 H453 0.950 . S
H450 C446 0.950 . S
C451 C449 1.390 . S
C451 C452 1.387 . S
C451 H454 0.950 . S
C452 C451 1.387 . S
C452 C455 1.387 . S
H453 C449 0.950 . S
H454 C451 0.950 . S
C455 C446 1.390 . S
C455 H448 0.950 . S
C455 C452 1.387 . S
C456 C457 1.387 . S
C456 H460 0.950 . S
C456 C465 1.390 1_545 S
C457 C456 1.387 . S
C457 C459 1.387 . S
H458 C465 0.950 . S
C459 C457 1.387 . S
C459 C461 1.390 1_545 S
C459 H463 0.950 . S
H460 C456 0.950 . S
C461 C459 1.390 1_565 S
C461 C462 1.387 . S
C461 H464 0.950 . S
C462 C461 1.387 . S
C462 C465 1.387 . S
H463 C459 0.950 . S
H464 C461 0.950 . S
C465 C456 1.390 1_565 S
C465 H458 0.950 . S
C465 C462 1.387 . S
C466 C467 1.387 . S
C466 H470 0.950 . S
C466 C475 1.390 . S
C467 C466 1.387 . S
C467 C469 1.387 . S
H468 C475 0.950 . S
C469 C467 1.387 . S
C469 C471 1.390 . S
C469 H473 0.950 . S
H470 C466 0.950 . S
C471 C469 1.390 . S
C471 C472 1.387 . S
C471 H474 0.950 . S
C472 C471 1.387 . S
C472 C475 1.387 . S
H473 C469 0.950 . S
H474 C471 0.950 . S
C475 C466 1.390 . S
C475 H468 0.950 . S
C475 C472 1.387 . S
C476 C477 1.387 . S
C476 H480 0.950 . S
C476 C485 1.390 1_455 S
C477 C476 1.387 . S
C477 C479 1.387 . S
H478 C485 0.950 . S
C479 C477 1.387 . S
C479 C481 1.390 1_455 S
C479 H483 0.950 . S
H480 C476 0.950 . S
C481 C479 1.390 1_655 S
C481 C482 1.387 . S
C481 H484 0.950 . S
C482 C481 1.387 . S
C482 C485 1.387 . S
H483 C479 0.950 . S
H484 C481 0.950 . S
C485 C476 1.390 1_655 S
C485 H478 0.950 . S
C485 C482 1.387 . S
C486 C487 1.387 . S
C486 H490 0.950 . S
C486 C495 1.390 1_565 S
C487 C486 1.387 . S
C487 C489 1.387 . S
H488 C495 0.950 . S
C489 C487 1.387 . S
C489 C491 1.390 1_565 S
C489 H493 0.950 . S
H490 C486 0.950 . S
C491 C489 1.390 1_545 S
C491 C492 1.387 . S
C491 H494 0.950 . S
C492 C491 1.387 . S
C492 C495 1.387 . S
H493 C489 0.950 . S
H494 C491 0.950 . S
C495 C486 1.390 1_545 S
C495 H488 0.950 . S
C495 C492 1.387 . S
C496 C497 1.387 . S
C496 H500 0.950 . S
C496 C505 1.390 . S
C497 C496 1.387 . S
C497 C499 1.387 . S
H498 C505 0.950 . S
C499 C497 1.387 . S
C499 C501 1.390 . S
C499 H503 0.950 . S
H500 C496 0.950 . S
C501 C499 1.390 . S
C501 C502 1.387 . S
C501 H504 0.950 . S
C502 C501 1.387 . S
C502 C505 1.387 . S
H503 C499 0.950 . S
H504 C501 0.950 . S
C505 C496 1.390 . S
C505 H498 0.950 . S
C505 C502 1.387 . S
C506 C507 1.387 . S
C506 H510 0.950 . S
C506 C515 1.390 1_455 S
C507 C506 1.387 . S
C507 C509 1.387 . S
H508 C515 0.950 . S
C509 C507 1.387 . S
C509 C511 1.390 1_455 S
C509 H513 0.950 . S
H510 C506 0.950 . S
C511 C509 1.390 1_655 S
C511 C512 1.387 . S
C511 H514 0.950 . S
C512 C511 1.387 . S
C512 C515 1.387 . S
H513 C509 0.950 . S
H514 C511 0.950 . S
C515 C506 1.390 1_655 S
C515 H508 0.950 . S
C515 C512 1.387 . S
C277 C7 1.260 . S
C282 C237 1.261 . S
C287 C30 1.261 . S
C292 C260 1.260 . S
C297 C145 1.261 . S
C302 C53 1.260 . S
C307 C76 1.261 . S
C312 C168 1.261 . S
C317 C191 1.260 . S
C322 C99 1.261 . S
C327 C214 1.261 . S
C332 C122 1.260 . S
C337 N196 1.689 . S
C342 N12 1.689 . S
C347 N35 1.688 . S
C352 N219 1.688 . S
C357 N242 1.690 . S
C362 N58 1.690 . S
C367 N81 1.690 . S
C372 N265 1.689 . S
C377 N104 1.690 . S
C382 N150 1.690 . S
C387 N127 1.689 . S
C392 N173 1.689 1_556 S
C397 C246 1.828 . S
C402 C16 1.828 . S
C407 C269 1.828 . S
C412 C39 1.828 . S
C417 C154 1.829 1_554 S
C422 C62 1.828 . S
C427 C85 1.828 . S
C432 C177 1.828 . S
C437 C108 1.828 . S
C442 C200 1.828 . S
C447 C223 1.829 . S
C452 C131 1.828 . S
C457 N2 1.660 . S
C462 N163 1.660 . S
C467 N186 1.662 . S
C472 N25 1.659 . S
C477 N209 1.660 . S
C482 N48 1.663 . S
C487 N71 1.663 . S
C492 N232 1.663 . S
C497 N94 1.661 . S
C502 N255 1.660 . S
C507 N117 1.661 . S
C512 N140 1.664 . S
