# Generated by pormake.
# Topology sod, (4)-cn, num edge types: 1
# Building blocks:
#     Node 0, Type 0, BuildingBlock: AZAVOO_clean_sbu_0, # of connection points: 4
#     Node 1, Type 0, BuildingBlock: AZAVOO_clean_sbu_0, # of connection points: 4
#     Node 2, Type 0, BuildingBlock: AZAVOO_clean_sbu_0, # of connection points: 4
#     Node 3, Type 0, BuildingBlock: AZAVOO_clean_sbu_0, # of connection points: 4
#     Node 4, Type 0, BuildingBlock: AZAVOO_clean_sbu_0, # of connection points: 4
#     Node 5, Type 0, BuildingBlock: AZAVOO_clean_sbu_0, # of connection points: 4
#     Node 6, Type 0, BuildingBlock: AZAVOO_clean_sbu_0, # of connection points: 4
#     Node 7, Type 0, BuildingBlock: AZAVOO_clean_sbu_0, # of connection points: 4
#     Node 8, Type 0, BuildingBlock: AZAVOO_clean_sbu_0, # of connection points: 4
#     Node 9, Type 0, BuildingBlock: AZAVOO_clean_sbu_0, # of connection points: 4
#     Node 10, Type 0, BuildingBlock: AZAVOO_clean_sbu_0, # of connection points: 4
#     Node 11, Type 0, BuildingBlock: AZAVOO_clean_sbu_0, # of connection points: 4
#     Edge 12, Type (0, 0), BuildingBlock: UVAHIK_clean_linker_0, # of connection points: 2
#     Edge 13, Type (0, 0), BuildingBlock: UVAHIK_clean_linker_0, # of connection points: 2
#     Edge 14, Type (0, 0), BuildingBlock: UVAHIK_clean_linker_0, # of connection points: 2
#     Edge 15, Type (0, 0), BuildingBlock: UVAHIK_clean_linker_0, # of connection points: 2
#     Edge 16, Type (0, 0), BuildingBlock: UVAHIK_clean_linker_0, # of connection points: 2
#     Edge 17, Type (0, 0), BuildingBlock: UVAHIK_clean_linker_0, # of connection points: 2
#     Edge 18, Type (0, 0), BuildingBlock: UVAHIK_clean_linker_0, # of connection points: 2
#     Edge 19, Type (0, 0), BuildingBlock: UVAHIK_clean_linker_0, # of connection points: 2
#     Edge 20, Type (0, 0), BuildingBlock: UVAHIK_clean_linker_0, # of connection points: 2
#     Edge 21, Type (0, 0), BuildingBlock: UVAHIK_clean_linker_0, # of connection points: 2
#     Edge 22, Type (0, 0), BuildingBlock: UVAHIK_clean_linker_0, # of connection points: 2
#     Edge 23, Type (0, 0), BuildingBlock: UVAHIK_clean_linker_0, # of connection points: 2
#     Edge 24, Type (0, 0), BuildingBlock: UVAHIK_clean_linker_0, # of connection points: 2
#     Edge 25, Type (0, 0), BuildingBlock: UVAHIK_clean_linker_0, # of connection points: 2
#     Edge 26, Type (0, 0), BuildingBlock: UVAHIK_clean_linker_0, # of connection points: 2
#     Edge 27, Type (0, 0), BuildingBlock: UVAHIK_clean_linker_0, # of connection points: 2
#     Edge 28, Type (0, 0), BuildingBlock: UVAHIK_clean_linker_0, # of connection points: 2
#     Edge 29, Type (0, 0), BuildingBlock: UVAHIK_clean_linker_0, # of connection points: 2
#     Edge 30, Type (0, 0), BuildingBlock: UVAHIK_clean_linker_0, # of connection points: 2
#     Edge 31, Type (0, 0), BuildingBlock: UVAHIK_clean_linker_0, # of connection points: 2
#     Edge 32, Type (0, 0), BuildingBlock: UVAHIK_clean_linker_0, # of connection points: 2
#     Edge 33, Type (0, 0), BuildingBlock: UVAHIK_clean_linker_0, # of connection points: 2
#     Edge 34, Type (0, 0), BuildingBlock: UVAHIK_clean_linker_0, # of connection points: 2
#     Edge 35, Type (0, 0), BuildingBlock: UVAHIK_clean_linker_0, # of connection points: 2
# Relax obj value: 0.127
# Max RMSD: 0.162
# Mean RMSD: 0.156
data_MOF--net-sod--node1-AZAVOO_clean_sbu_0--edge1-UVAHIK_clean_linker_0
_symmetry_space_group_name_H-M    P1
_symmetry_Int_Tables_number       1
_symmetry_cell_setting            triclinic
loop_
_symmetry_equiv_pos_as_xyz
'x, y, z'
_cell_length_a     53.364993
_cell_length_b     54.248107
_cell_length_c     54.87129
_cell_angle_alpha  89.919908
_cell_angle_beta   92.993022
_cell_angle_gamma 95.608017
loop_
_atom_site_label
_atom_site_type_symbol
_atom_site_fract_x
_atom_site_fract_y
_atom_site_fract_z
_atom_type_partial_charge
Mg0 Mg 0.03494 0.24502 0.52582 0.0
O1 O 0.99734 0.22092 0.51701 0.0
O2 O 0.96753 0.2473 0.51596 0.0
Mg3 Mg 0.98448 0.28654 0.52465 0.0
C4 C 0.9743 0.2255 0.51385 0.0
C5 C 0.05816 0.19471 0.52946 0.0
O6 O 0.0409 0.1911 0.54565 0.0
O7 O 0.03408 0.25991 0.48663 0.0
O8 O 0.00427 0.28599 0.48882 0.0
O9 O 0.03084 0.2412 0.5664 0.0
O10 O 0.01565 0.2702 0.54331 0.0
C11 C 0.02075 0.2761 0.47703 0.0
C12 C 0.01774 0.25999 0.56432 0.0
O13 O 0.0589 0.21425 0.5166 0.0
Mg14 Mg 0.73024 0.99475 0.47636 0.0
O15 O 0.75823 0.02886 0.4721 0.0
O16 O 0.73735 0.0623 0.46707 0.0
Mg17 Mg 0.69526 0.04913 0.46718 0.0
C18 C 0.75794 0.05212 0.46908 0.0
C19 C 0.78152 0.97339 0.4759 0.0
O20 O 0.78093 0.98584 0.45535 0.0
O21 O 0.7232 0.00713 0.5148 0.0
O22 O 0.70012 0.03895 0.50785 0.0
O23 O 0.72673 0.98826 0.43624 0.0
O24 O 0.7026 0.01151 0.45593 0.0
C25 C 0.71057 0.02414 0.52243 0.0
C26 C 0.70876 0.00268 0.43554 0.0
O27 O 0.76293 0.97321 0.48952 0.0
Mg28 Mg 0.02131 0.78303 0.52359 0.0
O29 O 0.05896 0.80792 0.52293 0.0
O30 O 0.08947 0.78238 0.52461 0.0
Mg31 Mg 0.07245 0.74243 0.5268 0.0
C32 C 0.08226 0.80412 0.52327 0.0
C33 C 0.9797 0.8161 0.52667 0.0
O34 O 0.97635 0.79955 0.544 0.0
O35 O 0.02452 0.77159 0.48372 0.0
O36 O 0.05535 0.7464 0.48805 0.0
O37 O 0.02318 0.78297 0.56462 0.0
O38 O 0.03896 0.75551 0.54181 0.0
C39 C 0.03917 0.75702 0.47488 0.0
C40 C 0.03526 0.76351 0.56322 0.0
O41 O -0.00164 0.81515 0.51332 0.0
Mg42 Mg 0.32263 0.04274 0.54325 0.0
O43 O 0.29472 0.00872 0.53457 0.0
O44 O 0.31577 0.97848 0.52081 0.0
Mg45 Mg 0.35738 0.99318 0.52079 0.0
C46 C 0.29526 0.98675 0.5265 0.0
C47 C 0.28979 0.08268 0.55492 0.0
O48 O 0.30772 0.09368 0.54207 0.0
O49 O 0.33693 0.02464 0.57822 0.0
O50 O 0.35894 -0.00412 0.56264 0.0
O51 O 0.31813 0.05547 0.50492 0.0
O52 O 0.34711 0.03143 0.51795 0.0
C53 C 0.35117 0.00708 0.58086 0.0
C54 C 0.33633 0.04246 0.50007 0.0
O55 O 0.29132 0.06031 0.56124 0.0
Mg56 Mg 0.46419 0.01136 0.22139 0.0
O57 O 0.50251 0.00779 0.2414 0.0
O58 O 0.5305 0.00191 0.21352 0.0
Mg59 Mg 0.5098 0.00086 0.17602 0.0
C60 C 0.52487 0.00464 0.23562 0.0
C61 C 0.42721 0.01623 0.26073 0.0
O62 O 0.41516 -1e-05 0.24546 0.0
O63 O 0.47838 0.05012 0.2096 0.0
O64 O 0.50523 0.04228 0.18132 0.0
O65 O 0.45466 0.9708 0.22374 0.0
O66 O 0.4741 0.98946 0.19313 0.0
C67 C 0.49409 0.05745 0.19374 0.0
C68 C 0.4659 0.96913 0.20356 0.0
O69 O 0.44906 0.02575 0.25582 0.0
Mg70 Mg 0.07641 0.5134 0.304 0.0
O71 O 0.03832 0.50549 0.28234 0.0
O72 O 0.00888 0.49466 0.30897 0.0
Mg73 Mg 0.02793 0.49557 0.34718 0.0
C74 C 0.01544 0.49893 0.28719 0.0
C75 C 0.11654 0.52422 0.2676 0.0
O76 O 0.12683 0.51038 0.28426 0.0
O77 O 0.06409 0.55015 0.31636 0.0
O78 O 0.03547 0.538 0.34335 0.0
O79 O 0.0841 0.47413 0.30102 0.0
O80 O 0.06351 0.48885 0.33088 0.0
C81 C 0.0482 0.55504 0.33183 0.0
C82 C 0.07146 0.47004 0.32034 0.0
O83 O 0.0946 0.53055 0.27065 0.0
Mg84 Mg 0.58162 0.00875 0.80564 0.0
O85 O 0.54368 -0.00035 0.78405 0.0
O86 O 0.51336 0.99261 0.81055 0.0
Mg87 Mg 0.53158 -0.00267 0.84899 0.0
C88 C 0.52056 0.99427 0.78874 0.0
C89 C 0.6023 0.00399 0.75544 0.0
O90 O 0.59273 0.98149 0.76059 0.0
O91 O 0.57037 0.04732 0.8137 0.0
O92 O 0.54083 0.03875 0.84077 0.0
O93 O 0.58808 0.96876 0.80807 0.0
O94 O 0.56723 0.98799 0.83479 0.0
C95 C 0.5543 0.05419 0.8281 0.0
C96 C 0.57455 0.96764 0.82694 0.0
O97 O 0.60027 0.02138 0.77052 0.0
Mg98 Mg 0.96689 0.50819 0.71751 0.0
O99 O 0.004 0.50064 0.73807 0.0
O100 O 0.03247 0.49261 0.71144 0.0
Mg101 Mg 0.01374 0.49654 0.67359 0.0
C102 C 0.02595 0.49516 0.73327 0.0
C103 C 0.95369 0.5075 0.77102 0.0
O104 O 0.96426 0.48679 0.76881 0.0
O105 O 0.98443 0.54666 0.70838 0.0
O106 O 0.0134 0.53808 0.68236 0.0
O107 O 0.9544 0.46818 0.7174 0.0
O108 O 0.97636 0.48705 0.68842 0.0
C109 C 0.00243 0.55343 0.69471 0.0
C110 C 0.96653 0.46671 0.69772 0.0
O111 O 0.952 0.52162 0.75263 0.0
Mg112 Mg 0.22171 0.48382 0.98297 0.0
O113 O 0.24867 0.51805 0.97573 0.0
O114 O 0.22617 0.54991 0.96747 0.0
Mg115 Mg 0.18441 0.53557 0.96788 0.0
C116 C 0.2473 0.54085 0.97068 0.0
C117 C 0.25932 0.44486 0.98679 0.0
O118 O 0.24264 0.43587 0.96983 0.0
O119 O 0.21443 0.49992 0.02021 0.0
O120 O 0.18978 0.52951 0.00913 0.0
O121 O 0.21847 0.47352 0.94343 0.0
O122 O 0.19345 0.49766 0.96068 0.0
C123 C 0.20083 0.5171 0.02555 0.0
C124 C 0.20004 0.4873 0.94124 0.0
O125 O 0.25551 0.46469 -0.00228 0.0
Mg126 Mg 0.51414 0.28253 0.0162 0.0
O127 O 0.55243 0.3066 0.01964 0.0
O128 O 0.58146 0.28031 0.02819 0.0
Mg129 Mg 0.56294 0.24099 0.03085 0.0
C130 C 0.57535 0.30214 0.02397 0.0
C131 C 0.49193 0.33319 0.01253 0.0
O132 O 0.50489 0.33579 0.03355 0.0
O133 O 0.5238 0.26842 0.97885 0.0
O134 O 0.55285 0.24277 0.98981 0.0
O135 O 0.50852 0.2857 0.05616 0.0
O136 O 0.52804 0.2564 0.03958 0.0
C137 C 0.53934 0.25299 0.97358 0.0
C138 C 0.52071 0.26633 0.05894 0.0
O139 O 0.49373 0.31401 -0.0003 0.0
Mg140 Mg 0.81745 0.53841 0.03815 0.0
O141 O 0.79144 0.50293 0.0304 0.0
O142 O 0.81354 0.47208 0.0202 0.0
Mg143 Mg 0.85487 0.48809 0.02188 0.0
C144 C 0.79261 0.4805 0.02409 0.0
C145 C 0.76464 0.55446 0.03746 0.0
O146 O 0.76575 0.54266 0.01671 0.0
O147 O 0.82994 0.52311 0.07532 0.0
O148 O 0.85335 0.49377 0.06316 0.0
O149 O 0.81592 0.54857 -0.00122 0.0
O150 O 0.84422 0.52596 0.01586 0.0
C151 C 0.84429 0.50595 0.08 0.0
C152 C 0.8349 0.5358 -0.00351 0.0
O153 O 0.78386 0.55612 0.05234 0.0
Mg154 Mg 0.52038 0.74037 0.03024 0.0
O155 O 0.48284 0.71583 0.02187 0.0
O156 O 0.45324 0.74241 0.01906 0.0
Mg157 Mg 0.47002 0.78198 0.02579 0.0
C158 C 0.45986 0.72044 0.01815 0.0
C159 C 0.56426 0.71208 0.03837 0.0
O160 O 0.56695 0.73156 0.05283 0.0
O161 O 0.52065 0.75332 0.99039 0.0
O162 O 0.49058 0.77933 0.99062 0.0
O163 O 0.51558 0.7387 0.07075 0.0
O164 O 0.50088 0.76665 0.04606 0.0
C165 C 0.50734 0.76892 0.97974 0.0
C166 C 0.50285 0.75764 0.06764 0.0
O167 O 0.54477 0.70908 0.02392 0.0
C168 C 0.00722 0.29895 0.4401 0.0
C169 C 0.02526 0.28542 0.45214 0.0
C170 C 0.01279 0.312 0.4189 0.0
C171 C 0.06783 0.34321 0.39084 0.0
H172 H 0.01589 0.36309 0.34489 0.0
C173 C 0.08276 0.42668 0.32503 0.0
C174 C 0.0662 0.4446 0.32952 0.0
C175 C 0.07866 0.40283 0.33463 0.0
C176 C 0.03064 0.35751 0.35743 0.0
H177 H 0.06256 0.27315 0.45018 0.0
H178 H 0.07227 0.29579 0.41264 0.0
H179 H 0.0073 0.32623 0.36984 0.0
H180 H 0.0318 0.45129 0.34662 0.0
H181 H 0.02433 0.40948 0.36295 0.0
H182 H 0.09098 0.37484 0.37852 0.0
C183 C 0.05394 0.29668 0.42 0.0
C184 C 0.02574 0.3365 0.37179 0.0
C185 C 0.04833 0.28356 0.44138 0.0
C186 C 0.04502 0.43801 0.34309 0.0
C187 C 0.04061 0.41403 0.35221 0.0
C188 C 0.07287 0.36397 0.37613 0.0
C189 C 0.03654 0.31179 0.40902 0.0
C190 C 0.04384 0.32981 0.38955 0.0
C191 C 0.05756 0.39636 0.34833 0.0
C192 C 0.05394 0.37186 0.3601 0.0
H193 H 0.98911 0.30053 0.44772 0.0
H194 H -0.00105 0.32356 0.41127 0.0
H195 H 0.08218 0.33882 0.40441 0.0
H196 H 0.09928 0.43129 0.31464 0.0
H197 H 0.09199 0.38949 0.33148 0.0
C198 C 0.69434 0.99061 0.39286 0.0
C199 C 0.69449 0.00724 0.41245 0.0
C200 C 0.67798 0.99256 0.37238 0.0
C201 C 0.64721 0.00414 0.32673 0.0
H202 H 0.58145 0.02434 0.33949 0.0
C203 C 0.57041 0.0113 0.24955 0.0
C204 C 0.54515 0.00517 0.25507 0.0
C205 C 0.58952 0.01292 0.26804 0.0
C206 C 0.59959 0.01835 0.3356 0.0
H207 H 0.67895 0.04004 0.4252 0.0
H208 H 0.65138 0.04426 0.38908 0.0
H209 H 0.61359 0.02496 0.37235 0.0
H210 H 0.52015 0.9953 0.28417 0.0
H211 H 0.55351 -0.00302 0.31627 0.0
H212 H 0.63263 -0.00397 0.29032 0.0
C213 C 0.66306 0.02901 0.38987 0.0
C214 C 0.61829 0.01919 0.35441 0.0
C215 C 0.67907 0.02675 0.41055 0.0
C216 C 0.53943 0.00026 0.27939 0.0
C217 C 0.55858 0.00145 0.29782 0.0
C218 C 0.62835 0.00291 0.30799 0.0
C219 C 0.6617 0.01149 0.37083 0.0
C220 C 0.64234 0.01198 0.3503 0.0
C221 C 0.58388 0.00803 0.29244 0.0
C222 C 0.60422 0.00985 0.31221 0.0
H223 H 0.70591 0.97527 0.39386 0.0
H224 H 0.67734 0.97851 0.35831 0.0
H225 H 0.66558 -0.00122 0.32271 0.0
H226 H 0.57539 0.01544 0.231 0.0
H227 H 0.60865 0.01847 0.26318 0.0
C228 C 0.06272 0.60045 0.33055 0.0
C229 C 0.04478 0.58122 0.33721 0.0
C230 C 0.06057 0.62488 0.33763 0.0
C231 C 0.01728 0.66722 0.36164 0.0
H232 H 0.0768 0.69569 0.39876 0.0
C233 C 0.05689 0.75079 0.43479 0.0
C234 C 0.03588 0.74935 0.44918 0.0
C235 C 0.05644 0.73659 0.41353 0.0
C236 C 0.06014 0.68863 0.3879 0.0
H237 H 0.00972 0.57283 0.35524 0.0
H238 H 0.00599 0.61542 0.36747 0.0
H239 H 0.07883 0.65842 0.37515 0.0
H240 H 0.9974 0.73351 0.45213 0.0
H241 H 0.9968 0.7078 0.41576 0.0
H242 H -0.00159 0.69724 0.37477 0.0
C243 C 0.0217 0.6116 0.3568 0.0
C244 C 0.06133 0.66705 0.37441 0.0
C245 C 0.024 0.58715 0.35 0.0
C246 C 0.01369 0.73515 0.44104 0.0
C247 C 0.01343 0.72039 0.42012 0.0
C248 C 0.01615 0.68909 0.37488 0.0
C249 C 0.04026 0.63062 0.35118 0.0
C250 C 0.03975 0.65568 0.36178 0.0
C251 C 0.03529 0.71993 0.40682 0.0
C252 C 0.03736 0.69965 0.38888 0.0
H253 H 0.0789 0.59654 0.32062 0.0
H254 H 0.07508 0.63923 0.33297 0.0
H255 H 0.00041 0.65895 0.35181 0.0
H256 H 0.07422 0.76164 0.44084 0.0
H257 H 0.07333 0.73744 0.40333 0.0
C258 C 0.36434 0.0263 0.46996 0.0
C259 C 0.34417 0.04003 0.47485 0.0
C260 C 0.37245 0.02485 0.44629 0.0
C261 C 0.39589 0.0375 0.39842 0.0
H262 H 0.34793 0.03036 0.34272 0.0
C263 C 0.42861 0.03973 0.3001 0.0
C264 C 0.41625 0.02185 0.284 0.0
C265 C 0.41897 0.04382 0.32277 0.0
C266 C 0.36156 0.03224 0.3581 0.0
H267 H 0.31662 0.06295 0.45874 0.0
H268 H 0.33108 0.06075 0.41746 0.0
H269 H 0.33269 0.03255 0.38369 0.0
H270 H 0.38379 0.99464 0.27878 0.0
H271 H 0.3673 0.00143 0.31844 0.0
H272 H 0.42471 0.03627 0.37299 0.0
C273 C 0.34035 0.05077 0.43185 0.0
C274 C 0.35283 0.03377 0.38155 0.0
C275 C 0.33215 0.05212 0.45553 0.0
C276 C 0.39375 0.00859 0.29076 0.0
C277 C 0.3842 0.01259 0.31345 0.0
C278 C 0.4046 0.03587 0.375 0.0
C279 C 0.36071 0.03725 0.427 0.0
C280 C 0.3699 0.03623 0.40199 0.0
C281 C 0.39685 0.03005 0.32984 0.0
C282 C 0.38754 0.03306 0.35458 0.0
H283 H 0.3741 0.01687 0.48442 0.0
H284 H 0.38792 0.01393 0.44311 0.0
H285 H 0.40956 0.03978 0.41374 0.0
H286 H 0.4459 0.05036 0.29534 0.0
H287 H 0.42894 0.0577 0.33482 0.0
C288 C 0.03648 0.5881 0.69359 0.0
C289 C 0.01071 0.57994 0.69253 0.0
C290 C 0.04454 0.61287 0.68906 0.0
C291 C 0.05752 0.6582 0.65932 0.0
H292 H 0.01214 0.70972 0.65953 0.0
C293 C 0.05255 0.7267 0.58226 0.0
C294 C 0.04252 0.74942 0.58512 0.0
C295 C 0.05509 0.71084 0.60199 0.0
C296 C 0.02548 0.6959 0.65978 0.0
H297 H 0.97304 0.59104 0.68689 0.0
H298 H 0.98684 0.63373 0.67704 0.0
H299 H 0.00389 0.6732 0.68446 0.0
H300 H 0.02915 0.77426 0.61137 0.0
H301 H 0.0342 0.74668 0.64622 0.0
H302 H 0.07952 0.68123 0.63527 0.0
C303 C 0.00108 0.62163 0.68244 0.0
C304 C 0.02043 0.67459 0.67375 0.0
C305 C 0.99304 0.59703 0.68783 0.0
C306 C 0.0368 0.75677 0.60858 0.0
C307 C 0.03953 0.74088 0.6285 0.0
C308 C 0.06293 0.67976 0.64595 0.0
C309 C 0.02701 0.62981 0.68237 0.0
C310 C 0.03554 0.65478 0.67257 0.0
C311 C 0.04789 0.71732 0.62525 0.0
C312 C 0.04614 0.69819 0.64475 0.0
H313 H 0.05041 0.57521 0.69762 0.0
H314 H 0.0646 0.61845 0.69009 0.0
H315 H 0.06981 0.64363 0.65776 0.0
H316 H 0.05704 0.72034 0.56447 0.0
H317 H 0.06115 0.69277 0.59847 0.0
C318 C 0.4758 0.98426 0.77283 0.0
C319 C 0.50124 0.99111 0.76828 0.0
C320 C 0.45729 0.98286 0.75377 0.0
C321 C 0.44838 0.97884 0.68643 0.0
H322 H 0.3854 0.00635 0.69702 0.0
C323 C 0.36339 0.01856 0.62443 0.0
C324 C 0.36139 0.00098 0.60547 0.0
C325 C 0.37742 0.01452 0.64608 0.0
C326 C 0.40289 -0.00136 0.69376 0.0
H327 H 0.52717 0.0014 0.73997 0.0
H328 H 0.49489 -0.00073 0.70685 0.0
H329 H 0.41697 0.00507 0.73067 0.0
H330 H 0.37056 0.96444 0.5952 0.0
H331 H 0.39432 0.95712 0.63313 0.0
H332 H 0.43492 0.97341 0.64934 0.0
C333 C 0.48927 0.99465 0.72511 0.0
C334 C 0.42089 -0.00235 0.71312 0.0
C335 C 0.50779 -0.00401 0.74415 0.0
C336 C 0.37208 0.97852 0.60932 0.0
C337 C 0.38585 0.97439 0.63101 0.0
C338 C 0.43046 0.97989 0.66711 0.0
C339 C 0.46376 0.9883 0.72973 0.0
C340 C 0.44398 0.988 0.70959 0.0
C341 C 0.38952 0.99272 0.64926 0.0
C342 C 0.40758 0.99001 0.67045 0.0
H343 H 0.47006 0.98023 0.79117 0.0
H344 H 0.43789 0.97752 0.7579 0.0
H345 H 0.46581 0.971 0.68316 0.0
H346 H 0.35543 0.03607 0.62199 0.0
H347 H 0.37994 0.0291 0.6597 0.0
C348 C 0.0212 0.27753 0.60626 0.0
C349 C 0.0063 0.27053 0.58515 0.0
C350 C 0.01297 0.29429 0.62271 0.0
C351 C 0.97409 0.34587 0.61836 0.0
H352 H 0.99176 0.35399 0.6875 0.0
C353 C 0.9622 0.42042 0.69939 0.0
C354 C 0.97009 0.44238 0.68714 0.0
C355 C 0.96499 0.39736 0.68912 0.0
C356 C 0.9865 0.35183 0.66823 0.0
H357 H 0.97005 0.27253 0.56608 0.0
H358 H 0.95523 0.30108 0.59514 0.0
H359 H 0.9971 0.31471 0.66734 0.0
H360 H 0.98729 0.45743 0.65468 0.0
H361 H 0.99231 0.41724 0.63684 0.0
H362 H 0.9637 0.38288 0.61906 0.0
C363 C 0.97362 0.29453 0.59863 0.0
C364 C 0.98968 0.32944 0.65669 0.0
C365 C 0.98201 0.27814 0.58206 0.0
C366 C 0.98106 0.44086 0.66457 0.0
C367 C 0.98376 0.41784 0.65428 0.0
C368 C 0.97099 0.36815 0.62983 0.0
C369 C 0.98963 0.30397 0.61829 0.0
C370 C 0.98375 0.32634 0.63155 0.0
C371 C 0.97556 0.39586 0.66634 0.0
C372 C 0.97755 0.37154 0.65477 0.0
H373 H 0.04009 0.27192 0.60886 0.0
H374 H 0.02577 0.30121 0.63767 0.0
H375 H 0.96976 0.34434 0.59888 0.0
H376 H 0.95372 0.421 0.71686 0.0
H377 H 0.95837 0.38073 0.69873 0.0
C378 C 0.62039 0.03204 0.72284 0.0
C379 C 0.61614 0.0083 0.73296 0.0
C380 C 0.63284 0.03538 0.70103 0.0
C381 C 0.64947 -0.00074 0.64761 0.0
H382 H 0.6943 0.05793 0.63468 0.0
C383 C 0.70939 0.00502 0.56397 0.0
C384 C 0.70576 0.02535 0.54872 0.0
C385 C 0.70121 0.00454 0.58775 0.0
C386 C 0.6818 0.04148 0.63812 0.0
H387 H 0.62258 0.96969 0.7289 0.0
H388 H 0.64495 0.97558 0.69175 0.0
H389 H 0.67411 0.05395 0.67376 0.0
H390 H 0.69237 0.06187 0.54709 0.0
H391 H 0.67842 0.06107 0.58882 0.0
H392 H 0.65749 0.98663 0.61222 0.0
C393 C 0.63791 0.99154 0.69989 0.0
C394 C 0.67011 0.03924 0.6604 0.0
C395 C 0.62518 0.98816 0.72133 0.0
C396 C 0.69527 0.04585 0.55831 0.0
C397 C 0.68739 0.04548 0.58222 0.0
C398 C 0.66142 0.00134 0.62562 0.0
C399 C 0.64155 0.01508 0.68916 0.0
C400 C 0.65385 0.01802 0.66544 0.0
C401 C 0.68958 0.0245 0.59687 0.0
C402 C 0.67773 0.02241 0.62067 0.0
H403 H 0.61361 0.04789 0.73145 0.0
H404 H 0.63511 0.05375 0.69321 0.0
H405 H 0.63654 0.98298 0.65046 0.0
H406 H 0.71745 0.98895 0.55721 0.0
H407 H 0.70333 0.98824 0.59881 0.0
C408 C 0.45419 0.34336 0.98682 0.0
C409 C 0.47163 0.34931 0.00652 0.0
C410 C 0.4324 0.3556 0.9838 0.0
C411 C 0.40141 0.41019 0.0019 0.0
H412 H 0.34034 0.36546 0.99289 0.0
C413 C 0.30198 0.44344 0.0082 0.0
C414 C 0.28332 0.43354 0.99092 0.0
C415 C 0.32533 0.4337 0.01058 0.0
C416 C 0.35718 0.37828 -0.0049 0.0
H417 H 0.48078 0.3741 0.0374 0.0
H418 H 0.44277 0.39556 0.03199 0.0
H419 H 0.38115 0.34899 -0.00588 0.0
H420 H 0.27449 0.40547 0.96281 0.0
H421 H 0.31508 0.38887 0.96666 0.0
H422 H 0.37738 0.43955 0.00264 0.0
C423 C 0.44592 0.38132 0.01899 0.0
C424 C 0.38059 0.36882 -0.00422 0.0
C425 C 0.46767 0.36897 0.0221 0.0
C426 C 0.28835 0.41347 0.97641 0.0
C427 C 0.31166 0.40384 0.9787 0.0
C428 C 0.37793 0.41972 0.00103 0.0
C429 C 0.42767 0.37418 0.0003 0.0
C430 C 0.40296 0.38465 -0.00092 0.0
C431 C 0.33052 0.4139 -0.0043 0.0
C432 C 0.35552 0.40387 -0.00248 0.0
H433 H 0.45672 0.32844 0.97436 0.0
H434 H 0.41887 0.35003 0.96895 0.0
H435 H 0.41837 0.42282 0.0044 0.0
H436 H 0.29868 0.45891 0.01967 0.0
H437 H 0.33929 0.44166 0.02411 0.0
C438 C 0.29448 0.54861 0.97571 0.0
C439 C 0.27089 0.55775 0.97099 0.0
C440 C 0.31636 0.56489 0.97925 0.0
C441 C 0.33524 0.62803 0.00058 0.0
H442 H 0.39986 0.61985 0.97396 0.0
C443 C 0.41511 0.70576 0.00641 0.0
C444 C 0.43985 0.70006 0.0123 0.0
C445 C 0.39582 0.68709 0.00115 0.0
C446 C 0.38201 0.62215 0.98179 0.0
H447 H 0.25216 0.59116 0.96489 0.0
H448 H 0.29029 0.61941 0.97097 0.0
H449 H 0.36352 0.58971 0.96376 0.0
H450 H 0.46371 0.67004 0.01685 0.0
H451 H 0.4296 0.63712 0.00783 0.0
H452 H 0.35344 0.66021 0.01871 0.0
C453 C 0.29175 0.59967 0.9723 0.0
C454 C 0.36123 0.60498 0.97588 0.0
C455 C 0.26992 0.58344 0.96867 0.0
C456 C 0.44486 0.67507 0.01245 0.0
C457 C 0.42538 0.65624 0.00718 0.0
C458 C 0.35592 0.64502 0.00655 0.0
C459 C 0.31508 0.5906 0.97825 0.0
C460 C 0.33753 0.60805 0.98489 0.0
C461 C 0.4006 0.66211 0.00174 0.0
C462 C 0.37943 0.64259 -0.00312 0.0
H463 H 0.29596 0.52891 0.97753 0.0
H464 H 0.33408 0.55738 0.98383 0.0
H465 H 0.31739 0.63051 0.00833 0.0
H466 H 0.41047 0.72476 0.0058 0.0
H467 H 0.37709 0.6923 -0.00352 0.0
C468 C 0.62109 0.31684 0.02289 0.0
C469 C 0.59593 0.32251 0.02307 0.0
C470 C 0.64073 0.33555 0.02122 0.0
C471 C 0.65934 0.40083 0.03343 0.0
H472 H 0.71163 0.39134 0.98878 0.0
C473 C 0.74542 0.47308 0.02357 0.0
C474 C 0.76894 0.46374 0.0217 0.0
C475 C 0.72312 0.45722 0.02196 0.0
C476 C 0.69733 0.39419 0.00151 0.0
H477 H 0.57178 0.35247 0.02199 0.0
H478 H 0.60647 0.38542 0.0194 0.0
H479 H 0.67456 0.36138 0.98945 0.0
H480 H 0.78737 0.43034 0.01663 0.0
H481 H 0.74861 0.40267 0.01432 0.0
H482 H 0.68245 0.43322 0.04607 0.0
C483 C 0.61075 0.36633 0.02045 0.0
C484 C 0.67605 0.37708 0.0018 0.0
C485 C 0.59094 0.34748 0.02186 0.0
C486 C 0.76961 0.4382 0.01801 0.0
C487 C 0.74732 0.42233 0.01654 0.0
C488 C 0.68075 0.4179 0.03328 0.0
C489 C 0.63581 0.36046 0.01987 0.0
C490 C 0.65705 0.38 0.01804 0.0
C491 C 0.7238 0.43163 0.01855 0.0
C492 C 0.7002 0.41454 0.01758 0.0
H493 H 0.62572 0.29785 0.02377 0.0
H494 H 0.65988 0.33051 0.0212 0.0
H495 H 0.64505 0.4034 0.04626 0.0
H496 H 0.74416 0.49268 0.02632 0.0
H497 H 0.70533 0.46505 0.02326 0.0
C498 C 0.72033 0.5627 0.02643 0.0
C499 C 0.74211 0.56729 0.04192 0.0
C500 C 0.69989 0.57659 0.02853 0.0
C501 C 0.68591 0.6377 0.0487 0.0
H502 H 0.61619 0.6102 0.0393 0.0
C503 C 0.604 0.69784 0.05682 0.0
C504 C 0.58355 0.69424 0.03956 0.0
C505 C 0.62249 0.68138 0.05829 0.0
C506 C 0.63558 0.61816 0.0417 0.0
H507 H 0.75908 0.58927 0.07253 0.0
H508 H 0.7232 0.6136 0.07627 0.0
H509 H 0.64975 0.58256 0.04133 0.0
H510 H 0.5664 0.67037 0.01038 0.0
H511 H 0.59909 0.64163 0.01272 0.0
H512 H 0.67192 0.67327 0.04867 0.0
C513 C 0.72213 0.59939 0.0623 0.0
C514 C 0.65478 0.60234 0.04297 0.0
C515 C 0.74259 0.58536 0.06029 0.0
C516 C 0.58193 0.67363 0.02387 0.0
C517 C 0.60056 0.65711 0.02532 0.0
C518 C 0.66676 0.65349 0.04738 0.0
C519 C 0.70077 0.59546 0.04612 0.0
C520 C 0.68017 0.61196 0.0464 0.0
C521 C 0.62112 0.66092 0.04248 0.0
C522 C 0.64137 0.64393 0.04382 0.0
H523 H 0.71929 0.54878 0.01218 0.0
H524 H 0.68382 0.57322 0.01566 0.0
H525 H 0.7053 0.64573 0.05084 0.0
H526 H 0.60577 0.71341 0.06934 0.0
H527 H 0.63781 0.68463 0.072 0.0
C528 C 0.49368 0.78765 0.94064 0.0
C529 C 0.51289 0.77793 0.95504 0.0
C530 C 0.49958 0.80316 0.9211 0.0
C531 C 0.5223 0.8537 0.90644 0.0
H532 H 0.56541 0.85062 0.85208 0.0
C533 C 0.54232 0.93881 0.84647 0.0
C534 C 0.56659 0.94359 0.83796 0.0
C535 C 0.53491 0.91607 0.85713 0.0
C536 C 0.55356 0.85186 0.86737 0.0
H537 H 0.553 0.77434 0.9586 0.0
H538 H 0.56338 0.80171 0.92417 0.0
H539 H 0.55441 0.81321 0.87594 0.0
H540 H 0.60206 0.92839 0.83326 0.0
H541 H 0.58974 0.8891 0.85315 0.0
H542 H 0.52234 0.89223 0.89927 0.0
C543 C 0.54378 0.79726 0.92812 0.0
C544 C 0.54717 0.8304 0.88085 0.0
C545 C 0.53784 0.7816 0.94778 0.0
C546 C 0.58322 0.9251 0.83982 0.0
C547 C 0.57605 0.90251 0.85102 0.0
C548 C 0.529 0.87511 0.89337 0.0
C549 C 0.5248 0.80924 0.9156 0.0
C550 C 0.53132 0.83118 0.90038 0.0
C551 C 0.55186 0.8978 0.86007 0.0
C552 C 0.5446 0.87454 0.87355 0.0
H553 H 0.47423 0.78483 0.94564 0.0
H554 H 0.4846 0.81192 0.91145 0.0
H555 H 0.51053 0.8549 0.92182 0.0
H556 H 0.52886 0.95243 0.84453 0.0
H557 H 0.51585 0.91289 0.86309 0.0
C558 C 0.18497 0.47116 0.89994 0.0
C559 C 0.18619 0.49003 0.91756 0.0
C560 C 0.16918 0.47206 0.87887 0.0
C561 C 0.14107 0.48202 0.83095 0.0
H562 H 0.07763 0.50956 0.8389 0.0
C563 C 0.07067 0.4955 0.74951 0.0
C564 C 0.04478 0.49274 0.75363 0.0
C565 C 0.08855 0.49479 0.76895 0.0
C566 C 0.09508 0.50147 0.83638 0.0
H567 H 0.1733 0.52551 0.9261 0.0
H568 H 0.14672 0.5277 0.88907 0.0
H569 H 0.10796 0.50924 0.87325 0.0
H570 H 0.01731 0.48614 0.78124 0.0
H571 H 0.04838 0.48388 0.81501 0.0
H572 H 0.12753 0.4731 0.79436 0.0
C573 C 0.15702 0.51161 0.89189 0.0
C574 C 0.11278 0.50174 0.85602 0.0
C575 C 0.17243 0.51046 0.91312 0.0
C576 C 0.03712 0.48857 0.77751 0.0
C577 C 0.05499 0.48747 0.7969 0.0
C578 C 0.12319 0.48144 0.81135 0.0
C579 C 0.1546 0.49209 0.87481 0.0
C580 C 0.13606 0.49211 0.85358 0.0
C581 C 0.08095 0.49094 0.79294 0.0
C582 C 0.09996 0.49119 0.81381 0.0
H583 H 0.1953 0.4551 0.90296 0.0
H584 H 0.16768 0.45656 0.86631 0.0
H585 H 0.15887 0.47466 0.82827 0.0
H586 H 0.07718 0.49893 0.73133 0.0
H587 H 0.10832 0.49792 0.7652 0.0
C588 C 0.57248 0.09862 0.82773 0.0
C589 C 0.55206 0.0809 0.83161 0.0
C590 C 0.57161 0.12329 0.83479 0.0
C591 C 0.5301 0.16956 0.85439 0.0
H592 H 0.58441 0.1882 0.9024 0.0
C593 C 0.51902 0.23342 0.93566 0.0
C594 C 0.54064 0.24469 0.94825 0.0
C595 C 0.52123 0.21941 0.91463 0.0
C596 C 0.5694 0.18396 0.88858 0.0
H597 H 0.51398 0.0755 0.844 0.0
H598 H 0.51239 0.11853 0.85599 0.0
H599 H 0.58665 0.15248 0.87662 0.0
H600 H 0.58112 0.25253 0.94776 0.0
H601 H 0.58494 0.22973 0.91011 0.0
H602 H 0.5126 0.20085 0.86659 0.0
C603 C 0.5291 0.11337 0.84766 0.0
C604 C 0.57071 0.16327 0.87381 0.0
C605 C 0.53011 0.08868 0.841 0.0
C606 C 0.5642 0.24382 0.93832 0.0
C607 C 0.56636 0.23046 0.91693 0.0
C608 C 0.52896 0.1906 0.8689 0.0
C609 C 0.55013 0.13074 0.84539 0.0
C610 C 0.55071 0.15537 0.85717 0.0
C611 C 0.5451 0.21685 0.90558 0.0
C612 C 0.5482 0.19757 0.88684 0.0
H613 H 0.58964 0.09318 0.82051 0.0
H614 H 0.58806 0.13636 0.83279 0.0
H615 H 0.51451 0.16393 0.84152 0.0
H616 H 0.50068 0.23366 0.94321 0.0
H617 H 0.50438 0.20914 0.90666 0.0
C618 C 0.94861 0.50015 0.81542 0.0
C619 C 0.94273 0.51336 0.79419 0.0
C620 C 0.93725 0.50455 0.8371 0.0
C621 C 0.88038 0.52572 0.86022 0.0
H622 H 0.91958 0.53155 0.92181 0.0
C623 C 0.83651 0.54494 0.95183 0.0
C624 C 0.8457 0.53276 0.97256 0.0
C625 C 0.84803 0.54355 0.92964 0.0
C626 C 0.90831 0.52964 0.90481 0.0
H627 H 0.92065 0.54179 0.77905 0.0
H628 H 0.90054 0.54929 0.81707 0.0
H629 H 0.94092 0.52814 0.88396 0.0
H630 H 0.87389 0.50918 0.98611 0.0
H631 H 0.89329 0.50601 0.94739 0.0
H632 H 0.84768 0.52655 0.88106 0.0
C633 C 0.91395 0.53554 0.81682 0.0
C634 C 0.92057 0.52783 0.88315 0.0
C635 C 0.92556 0.53135 0.79515 0.0
C636 C 0.86624 0.51871 0.97052 0.0
C637 C 0.8776 0.51715 0.94834 0.0
C638 C 0.86806 0.52732 0.88193 0.0
C639 C 0.91961 0.52207 0.83794 0.0
C640 C 0.90671 0.52562 0.86069 0.0
C641 C 0.86889 0.52985 0.92772 0.0
C642 C 0.88188 0.52904 0.9045 0.0
H643 H 0.96182 0.48622 0.81525 0.0
H644 H 0.94179 0.49375 0.85307 0.0
H645 H 0.86925 0.52377 0.84313 0.0
H646 H 0.82078 0.55603 0.95285 0.0
H647 H 0.84098 0.55374 0.91417 0.0
C648 C 0.48478 0.10164 0.19894 0.0
C649 C 0.49973 0.08432 0.18948 0.0
C650 C 0.48949 0.12685 0.19361 0.0
C651 C 0.53717 0.17338 0.16864 0.0
H652 H 0.47917 0.20258 0.13987 0.0
C653 C 0.54121 0.2367 0.08649 0.0
C654 C 0.52417 0.25468 0.08307 0.0
C655 C 0.54111 0.22218 0.10745 0.0
C656 C 0.49553 0.19512 0.14844 0.0
H657 H 0.53204 0.08009 0.16793 0.0
H658 H 0.54005 0.12377 0.15855 0.0
H659 H 0.47301 0.16408 0.16252 0.0
H660 H 0.49496 0.2729 0.0998 0.0
H661 H 0.49456 0.24719 0.13648 0.0
H662 H 0.55976 0.20369 0.15326 0.0
C663 C 0.52482 0.11799 0.17023 0.0
C664 C 0.49199 0.17298 0.16141 0.0
C665 C 0.52002 0.09287 0.17537 0.0
C666 C 0.50828 0.25911 0.10189 0.0
C667 C 0.50796 0.24435 0.12283 0.0
C668 C 0.54072 0.1955 0.15568 0.0
C669 C 0.50941 0.13523 0.17896 0.0
C670 C 0.51284 0.1613 0.17061 0.0
C671 C 0.5238 0.22517 0.1254 0.0
C672 C 0.51999 0.20595 0.14446 0.0
H673 H 0.46906 0.09568 0.20996 0.0
H674 H 0.47735 0.13975 0.20063 0.0
H675 H 0.55357 0.16504 0.176 0.0
H676 H 0.55386 0.23297 0.07251 0.0
H677 H 0.5534 0.20743 0.10872 0.0
C678 C 0.0018 0.50216 0.24289 0.0
C679 C 0.99562 0.49712 0.26711 0.0
C680 C 0.98295 0.50136 0.22417 0.0
C681 C 0.91471 0.5053 0.21265 0.0
H682 H 0.92673 0.47677 0.15012 0.0
C683 C 0.86319 0.47905 0.11135 0.0
C684 C 0.85347 0.50157 0.10538 0.0
C685 C 0.87699 0.47646 0.13332 0.0
C686 C 0.92287 0.48451 0.16756 0.0
H687 H 0.96466 0.48704 0.29052 0.0
H688 H 0.9319 0.48546 0.2578 0.0
H689 H 0.95841 0.47603 0.18351 0.0
H690 H 0.84892 0.53842 0.11858 0.0
H691 H 0.87341 0.53403 0.15696 0.0
H692 H 0.87905 0.51371 0.19657 0.0
C693 C 0.95131 0.49032 0.25337 0.0
C694 C 0.94122 0.48439 0.1866 0.0
C695 C 0.97015 0.49107 0.2721 0.0
C696 C 0.85614 0.52082 0.1227 0.0
C697 C 0.87019 0.51829 0.1447 0.0
C698 C 0.89631 0.50546 0.19353 0.0
C699 C 0.95748 0.49553 0.22922 0.0
C700 C 0.93747 0.49496 0.2093 0.0
C701 C 0.88162 0.49641 0.14976 0.0
C702 C 0.90024 0.49515 0.17072 0.0
H703 H 0.02118 0.50698 0.23838 0.0
H704 H 0.9883 0.50575 0.20578 0.0
H705 H 0.91134 0.51376 0.22989 0.0
H706 H 0.86112 0.46374 0.0985 0.0
H707 H 0.88495 0.45912 0.13698 0.0
C708 C 0.46977 0.78064 0.08465 0.0
C709 C 0.49263 0.77011 0.0881 0.0
C710 C 0.46318 0.79804 0.10122 0.0
C711 C 0.48188 0.8305 0.16022 0.0
H712 H 0.46116 0.8871 0.12385 0.0
C713 C 0.46102 0.92282 0.20516 0.0
C714 C 0.46945 0.94473 0.1931 0.0
C715 C 0.46288 0.89973 0.19451 0.0
C716 C 0.46708 0.87152 0.13428 0.0
H717 H 0.52551 0.76755 0.11243 0.0
H718 H 0.51444 0.79857 0.14116 0.0
H719 H 0.4641 0.8484 0.10273 0.0
H720 H 0.48704 0.95959 0.16075 0.0
H721 H 0.4907 0.9194 0.14242 0.0
H722 H 0.48581 0.8543 0.19165 0.0
C723 C 0.50134 0.7932 0.12593 0.0
C724 C 0.46834 0.84914 0.12225 0.0
C725 C 0.50772 0.77543 0.10949 0.0
C726 C 0.48037 0.94309 0.17052 0.0
C727 C 0.48226 0.92005 0.15991 0.0
C728 C 0.48063 0.85302 0.17231 0.0
C729 C 0.47962 0.80558 0.12126 0.0
C730 C 0.47596 0.82841 0.13499 0.0
C731 C 0.47316 0.89813 0.17159 0.0
C732 C 0.47358 0.87385 0.15934 0.0
H733 H 0.45756 0.77633 0.06853 0.0
H734 H 0.4459 0.80665 0.09754 0.0
H735 H 0.48774 0.81484 0.17055 0.0
H736 H 0.45252 0.92348 0.22261 0.0
H737 H 0.45558 0.88318 0.20388 0.0
C738 C 0.18054 0.54039 0.05721 0.0
C739 C 0.19654 0.52232 0.05145 0.0
C740 C 0.17455 0.54411 0.08127 0.0
C741 C 0.19339 0.53364 0.14555 0.0
H742 H 0.1219 0.53381 0.15507 0.0
C743 C 0.15071 0.5181 0.23941 0.0
C744 C 0.12902 0.52954 0.24447 0.0
C745 C 0.16097 0.52065 0.21655 0.0
C746 C 0.14198 0.53434 0.1528 0.0
H747 H 0.21965 0.49477 0.06675 0.0
H748 H 0.2091 0.50137 0.10896 0.0
H749 H 0.13647 0.53171 0.11399 0.0
H750 H 0.10196 0.55383 0.23 0.0
H751 H 0.12029 0.55886 0.19028 0.0
H752 H 0.1989 0.53625 0.18442 0.0
C753 C 0.20127 0.51261 0.0947 0.0
C754 C 0.15031 0.53301 0.12921 0.0
C755 C 0.2072 0.50876 0.07052 0.0
C756 C 0.11854 0.54459 0.22658 0.0
C757 C 0.12896 0.54733 0.20376 0.0
C758 C 0.18507 0.53519 0.16921 0.0
C759 C 0.18447 0.52997 0.10021 0.0
C760 C 0.17606 0.53242 0.12534 0.0
C761 C 0.14994 0.53488 0.19826 0.0
C762 C 0.15921 0.53529 0.17314 0.0
H763 H 0.17212 0.55137 0.04308 0.0
H764 H 0.16184 0.55788 0.08502 0.0
H765 H 0.21337 0.53348 0.14305 0.0
H766 H 0.15925 0.50635 0.25278 0.0
H767 H 0.17692 0.51055 0.21295 0.0
C768 C 0.82364 0.95972 0.46731 0.0
C769 C 0.80321 0.95924 0.48253 0.0
C770 C 0.84373 0.94566 0.47293 0.0
C771 C 0.85916 0.89045 0.50736 0.0
H772 H 0.92845 0.91583 0.49778 0.0
C773 C 0.94174 0.83577 0.53847 0.0
C774 C 0.96131 0.83458 0.52247 0.0
C775 C 0.92343 0.85213 0.53415 0.0
C776 C 0.90917 0.90841 0.50031 0.0
H777 H 0.78814 0.94406 0.51594 0.0
H778 H 0.82332 0.91963 0.52585 0.0
H779 H 0.89461 0.94247 0.48966 0.0
H780 H 0.97733 0.8501 0.48963 0.0
H781 H 0.94504 0.87863 0.4819 0.0
H782 H 0.87357 0.85638 0.51782 0.0
C783 C 0.82362 0.93064 0.50937 0.0
C784 C 0.8898 0.92367 0.49569 0.0
C785 C 0.80353 0.94474 0.50376 0.0
C786 C 0.96249 0.85058 0.5023 0.0
C787 C 0.94406 0.86698 0.49794 0.0
C788 C 0.87848 0.87523 0.51195 0.0
C789 C 0.84384 0.93077 0.4939 0.0
C790 C 0.86458 0.91485 0.4992 0.0
C791 C 0.92414 0.86769 0.51367 0.0
C792 C 0.90372 0.88403 0.50855 0.0
H793 H 0.82402 0.97072 0.45082 0.0
H794 H 0.85888 0.94598 0.46051 0.0
H795 H 0.83989 0.88292 0.50977 0.0
H796 H 0.94038 0.82388 0.55432 0.0
H797 H 0.90864 0.85255 0.5469 0.0
C798 C 0.92994 0.21101 0.50027 0.0
C799 C 0.95453 0.20527 0.50684 0.0
C800 C 0.91109 0.19243 0.49329 0.0
C801 C 0.89161 0.12656 0.49985 0.0
H802 H 0.84426 0.13895 0.44618 0.0
C803 C 0.80524 0.0573 0.47295 0.0
C804 C 0.78228 0.06784 0.46915 0.0
C805 C 0.82811 0.07228 0.47472 0.0
C806 C 0.85727 0.13525 0.46126 0.0
H807 H 0.97848 0.1753 0.51131 0.0
H808 H 0.94515 0.14259 0.4992 0.0
H809 H 0.88137 0.16817 0.45464 0.0
H810 H 0.76552 0.10243 0.4636 0.0
H811 H 0.80531 0.12849 0.46685 0.0
H812 H 0.8671 0.09398 0.50689 0.0
C813 C 0.94069 0.16164 0.49949 0.0
C814 C 0.87853 0.15195 0.46608 0.0
C815 C 0.95975 0.18035 0.50635 0.0
C816 C 0.7828 0.09365 0.46651 0.0
C817 C 0.80566 0.10861 0.46823 0.0
C818 C 0.87028 0.10983 0.49504 0.0
C819 C 0.9162 0.16757 0.49276 0.0
C820 C 0.89559 0.14811 0.48579 0.0
C821 C 0.82855 0.09813 0.47262 0.0
C822 C 0.85257 0.11432 0.47605 0.0
H823 H 0.92514 0.22995 0.50041 0.0
H824 H 0.89231 0.19756 0.48867 0.0
H825 H 0.90433 0.12323 0.51527 0.0
H826 H 0.80559 0.03746 0.47499 0.0
H827 H 0.84545 0.06364 0.47784 0.0
C828 C 0.0962 0.84987 0.52495 0.0
C829 C 0.10181 0.82533 0.5216 0.0
C830 C 0.11511 0.86959 0.52361 0.0
C831 C 0.17745 0.88608 0.4989 0.0
H832 H 0.18766 0.93454 0.55123 0.0
C833 C 0.27161 0.94552 0.51637 0.0
C834 C 0.27142 0.97024 0.52392 0.0
C835 C 0.24928 0.92978 0.51437 0.0
C836 C 0.18483 0.92143 0.53624 0.0
H837 H 0.13162 0.80238 0.51387 0.0
H838 H 0.16427 0.83657 0.51148 0.0
H839 H 0.15098 0.90378 0.5505 0.0
H840 H 0.2474 -0.00214 0.535 0.0
H841 H 0.20838 0.97039 0.53122 0.0
H842 H 0.21133 0.9034 0.48473 0.0
C843 C 0.14531 0.84063 0.51504 0.0
C844 C 0.16382 0.90382 0.53585 0.0
C845 C 0.12659 0.821 0.51662 0.0
C846 C 0.24828 0.9789 0.52921 0.0
C847 C 0.2259 0.96313 0.52716 0.0
C848 C 0.19834 0.90371 0.49922 0.0
C849 C 0.13984 0.86511 0.51855 0.0
C850 C 0.16027 0.88562 0.51747 0.0
C851 C 0.22616 0.93836 0.51976 0.0
C852 C 0.20261 0.92123 0.5182 0.0
H853 H 0.07731 0.85382 0.52883 0.0
H854 H 0.11038 0.88832 0.52633 0.0
H855 H 0.17493 0.87252 0.48427 0.0
H856 H 0.28906 0.93816 0.51224 0.0
H857 H 0.25024 0.9107 0.50903 0.0
C858 C 0.07966 0.1582 0.54492 0.0
C859 C 0.07956 0.17924 0.52991 0.0
C860 C 0.10153 0.14609 0.54854 0.0
C861 C 0.16958 0.16012 0.55 0.0
H862 H 0.17317 0.08922 0.54608 0.0
C863 C 0.26389 0.1181 0.54767 0.0
C864 C 0.26632 0.0946 0.55778 0.0
C865 C 0.24076 0.12809 0.54692 0.0
C866 C 0.17242 0.10902 0.54774 0.0
H867 H 0.10194 0.20314 0.50579 0.0
H868 H 0.14002 0.18212 0.5123 0.0
H869 H 0.13274 0.10615 0.53798 0.0
H870 H 0.24662 0.06368 0.57623 0.0
H871 H 0.20626 0.08148 0.57555 0.0
H872 H 0.20895 0.1632 0.56009 0.0
C873 C 0.12324 0.17516 0.52141 0.0
C874 C 0.14929 0.11868 0.54292 0.0
C875 C 0.10135 0.18707 0.51756 0.0
C876 C 0.24535 0.08182 0.56825 0.0
C877 C 0.22216 0.09191 0.56763 0.0
C878 C 0.19257 0.15049 0.55511 0.0
C879 C 0.12374 0.15499 0.53742 0.0
C880 C 0.1478 0.14436 0.54354 0.0
C881 C 0.21946 0.11495 0.55648 0.0
C882 C 0.19443 0.12486 0.55357 0.0
H883 H 0.06315 0.15165 0.55463 0.0
H884 H 0.10143 0.13053 0.56095 0.0
H885 H 0.16882 0.17996 0.55113 0.0
H886 H 0.27962 0.12845 0.53939 0.0
H887 H 0.2394 0.1457 0.53788 0.0
loop_
_geom_bond_atom_site_label_1
_geom_bond_atom_site_label_2
_geom_bond_distance
_geom_bond_site_symmetry_2
_ccdc_geom_bond_type
Mg0 O1 2.028 . S
Mg0 O7 1.986 . S
Mg0 O9 2.114 . S
Mg0 O10 2.251 . S
Mg0 O13 2.010 . S
O1 Mg0 2.028 . S
O1 C4 1.250 1_455 S
O2 Mg3 2.028 . S
O2 C4 1.248 . S
Mg3 O2 2.028 . S
Mg3 O8 2.032 . S
Mg3 O10 2.079 1_655 S
C4 O1 1.250 1_655 S
C4 O2 1.248 . S
C5 O6 1.264 . S
C5 O13 1.249 . S
O6 C5 1.264 . S
O7 Mg0 1.986 . S
O7 C11 1.246 . S
O8 Mg3 2.032 . S
O8 C11 1.259 1_655 S
O9 Mg0 2.114 . S
O9 C12 1.252 . S
O10 Mg0 2.251 . S
O10 Mg3 2.079 1_455 S
O10 C12 1.273 . S
C11 O7 1.246 . S
C11 O8 1.259 1_455 S
C12 O9 1.252 . S
C12 O10 1.273 . S
O13 Mg0 2.010 . S
O13 C5 1.249 . S
Mg14 O15 2.028 . S
Mg14 O21 1.986 . S
Mg14 O23 2.114 . S
Mg14 O24 2.251 . S
Mg14 O27 2.010 1_545 S
O15 Mg14 2.028 . S
O15 C18 1.250 . S
O16 Mg17 2.028 . S
O16 C18 1.248 . S
Mg17 O16 2.028 . S
Mg17 O22 2.032 . S
Mg17 O24 2.079 . S
C18 O15 1.250 . S
C18 O16 1.248 . S
C19 O20 1.264 . S
C19 O27 1.249 . S
O20 C19 1.264 . S
O21 Mg14 1.986 . S
O21 C25 1.246 . S
O22 Mg17 2.032 . S
O22 C25 1.259 . S
O23 Mg14 2.114 . S
O23 C26 1.252 . S
O24 Mg14 2.251 . S
O24 Mg17 2.079 . S
O24 C26 1.273 . S
C25 O21 1.246 . S
C25 O22 1.259 . S
C26 O23 1.252 . S
C26 O24 1.273 . S
O27 Mg14 2.010 1_565 S
O27 C19 1.249 . S
Mg28 O29 2.028 . S
Mg28 O35 1.986 . S
Mg28 O37 2.114 . S
Mg28 O38 2.251 . S
Mg28 O41 2.010 1_455 S
O29 Mg28 2.028 . S
O29 C32 1.250 . S
O30 Mg31 2.028 . S
O30 C32 1.248 . S
Mg31 O30 2.028 . S
Mg31 O36 2.032 . S
Mg31 O38 2.079 . S
C32 O29 1.250 . S
C32 O30 1.248 . S
C33 O34 1.264 . S
C33 O41 1.249 . S
O34 C33 1.264 . S
O35 Mg28 1.986 . S
O35 C39 1.246 . S
O36 Mg31 2.032 . S
O36 C39 1.259 . S
O37 Mg28 2.114 . S
O37 C40 1.252 . S
O38 Mg28 2.251 . S
O38 Mg31 2.079 . S
O38 C40 1.273 . S
C39 O35 1.246 . S
C39 O36 1.259 . S
C40 O37 1.252 . S
C40 O38 1.273 . S
O41 Mg28 2.010 1_655 S
O41 C33 1.249 . S
Mg42 O43 2.028 1_545 S
Mg42 O49 1.986 . S
Mg42 O51 2.114 . S
Mg42 O52 2.251 . S
Mg42 O55 2.010 . S
O43 Mg42 2.028 1_565 S
O43 C46 1.250 . S
O44 Mg45 2.028 . S
O44 C46 1.248 . S
Mg45 O44 2.028 . S
Mg45 O50 2.032 . S
Mg45 O52 2.079 1_565 S
C46 O43 1.250 . S
C46 O44 1.248 . S
C47 O48 1.264 . S
C47 O55 1.249 . S
O48 C47 1.264 . S
O49 Mg42 1.986 . S
O49 C53 1.246 . S
O50 Mg45 2.032 . S
O50 C53 1.259 1_565 S
O51 Mg42 2.114 . S
O51 C54 1.252 . S
O52 Mg42 2.251 . S
O52 Mg45 2.079 1_545 S
O52 C54 1.273 . S
C53 O49 1.246 . S
C53 O50 1.259 1_545 S
C54 O51 1.252 . S
C54 O52 1.273 . S
O55 Mg42 2.010 . S
O55 C47 1.249 . S
Mg56 O57 2.028 . S
Mg56 O63 1.986 . S
Mg56 O65 2.114 1_545 S
Mg56 O66 2.251 1_545 S
Mg56 O69 2.010 . S
O57 Mg56 2.028 . S
O57 C60 1.250 . S
O58 Mg59 2.028 . S
O58 C60 1.248 . S
Mg59 O58 2.028 . S
Mg59 O64 2.032 . S
Mg59 O66 2.079 1_545 S
C60 O57 1.250 . S
C60 O58 1.248 . S
C61 O62 1.264 . S
C61 O69 1.249 . S
O62 C61 1.264 . S
O63 Mg56 1.986 . S
O63 C67 1.246 . S
O64 Mg59 2.032 . S
O64 C67 1.259 . S
O65 Mg56 2.114 1_565 S
O65 C68 1.252 . S
O66 Mg56 2.251 1_565 S
O66 Mg59 2.079 1_565 S
O66 C68 1.273 . S
C67 O63 1.246 . S
C67 O64 1.259 . S
C68 O65 1.252 . S
C68 O66 1.273 . S
O69 Mg56 2.010 . S
O69 C61 1.249 . S
Mg70 O71 2.028 . S
Mg70 O77 1.986 . S
Mg70 O79 2.114 . S
Mg70 O80 2.251 . S
Mg70 O83 2.010 . S
O71 Mg70 2.028 . S
O71 C74 1.250 1_455 S
O72 Mg73 2.028 . S
O72 C74 1.248 . S
Mg73 O72 2.028 . S
Mg73 O78 2.032 1_655 S
Mg73 O80 2.079 1_655 S
C74 O71 1.250 1_655 S
C74 O72 1.248 . S
C75 O76 1.264 . S
C75 O83 1.249 . S
O76 C75 1.264 . S
O77 Mg70 1.986 . S
O77 C81 1.246 . S
O78 Mg73 2.032 1_455 S
O78 C81 1.259 . S
O79 Mg70 2.114 . S
O79 C82 1.252 . S
O80 Mg70 2.251 . S
O80 Mg73 2.079 1_455 S
O80 C82 1.273 . S
C81 O77 1.246 . S
C81 O78 1.259 . S
C82 O79 1.252 . S
C82 O80 1.273 . S
O83 Mg70 2.010 . S
O83 C75 1.249 . S
Mg84 O85 2.028 . S
Mg84 O91 1.986 . S
Mg84 O93 2.114 1_545 S
Mg84 O94 2.251 1_545 S
Mg84 O97 2.010 . S
O85 Mg84 2.028 . S
O85 C88 1.250 . S
O86 Mg87 2.028 . S
O86 C88 1.248 . S
Mg87 O86 2.028 . S
Mg87 O92 2.032 . S
Mg87 O94 2.079 1_545 S
C88 O85 1.250 . S
C88 O86 1.248 . S
C89 O90 1.264 . S
C89 O97 1.249 . S
O90 C89 1.264 . S
O91 Mg84 1.986 . S
O91 C95 1.246 . S
O92 Mg87 2.032 . S
O92 C95 1.259 . S
O93 Mg84 2.114 1_565 S
O93 C96 1.252 . S
O94 Mg84 2.251 1_565 S
O94 Mg87 2.079 1_565 S
O94 C96 1.273 . S
C95 O91 1.246 . S
C95 O92 1.259 . S
C96 O93 1.252 . S
C96 O94 1.273 . S
O97 Mg84 2.010 . S
O97 C89 1.249 . S
Mg98 O99 2.040 . S
Mg98 O105 1.987 . S
Mg98 O107 2.115 1_455 S
Mg98 O108 2.263 . S
Mg98 O111 1.996 1_455 S
O99 Mg98 2.040 . S
O99 C102 1.250 . S
O100 Mg101 2.028 . S
O100 C102 1.248 . S
Mg101 O100 2.028 . S
Mg101 O106 2.032 . S
Mg101 O108 2.079 . S
C102 O99 1.250 . S
C102 O100 1.248 . S
C103 O104 1.264 . S
C103 O111 1.249 . S
O104 C103 1.264 . S
O105 Mg98 1.987 . S
O105 C109 1.246 . S
O106 Mg101 2.032 . S
O106 C109 1.259 . S
O107 Mg98 2.115 1_655 S
O107 C110 1.252 1_655 S
O108 Mg98 2.263 . S
O108 Mg101 2.079 . S
O108 C110 1.273 . S
C109 O105 1.246 . S
C109 O106 1.259 . S
C110 O107 1.252 1_455 S
C110 O108 1.273 . S
O111 Mg98 1.996 1_655 S
O111 C103 1.249 . S
Mg112 O113 2.028 . S
Mg112 O119 1.986 . S
Mg112 O121 2.114 1_554 S
Mg112 O122 2.251 1_554 S
Mg112 O125 2.010 . S
O113 Mg112 2.028 . S
O113 C116 1.250 . S
O114 Mg115 2.028 . S
O114 C116 1.248 . S
Mg115 O114 2.028 . S
Mg115 O120 2.032 . S
Mg115 O122 2.079 1_554 S
C116 O113 1.250 . S
C116 O114 1.248 . S
C117 O118 1.264 . S
C117 O125 1.249 . S
O118 C117 1.264 . S
O119 Mg112 1.986 . S
O119 C123 1.246 . S
O120 Mg115 2.032 . S
O120 C123 1.259 . S
O121 Mg112 2.114 1_556 S
O121 C124 1.252 . S
O122 Mg112 2.251 1_556 S
O122 Mg115 2.079 1_556 S
O122 C124 1.273 . S
C123 O119 1.246 . S
C123 O120 1.259 . S
C124 O121 1.252 . S
C124 O122 1.273 . S
O125 Mg112 2.010 . S
O125 C117 1.249 . S
Mg126 O127 2.028 . S
Mg126 O133 1.986 1_554 S
Mg126 O135 2.114 . S
Mg126 O136 2.251 . S
Mg126 O139 2.010 . S
O127 Mg126 2.028 . S
O127 C130 1.250 . S
O128 Mg129 2.028 . S
O128 C130 1.248 . S
Mg129 O128 2.028 . S
Mg129 O134 2.032 1_554 S
Mg129 O136 2.079 . S
C130 O127 1.250 . S
C130 O128 1.248 . S
C131 O132 1.264 . S
C131 O139 1.249 . S
O132 C131 1.264 . S
O133 Mg126 1.986 1_556 S
O133 C137 1.246 . S
O134 Mg129 2.032 1_556 S
O134 C137 1.259 . S
O135 Mg126 2.114 . S
O135 C138 1.252 . S
O136 Mg126 2.251 . S
O136 Mg129 2.079 . S
O136 C138 1.273 . S
C137 O133 1.246 . S
C137 O134 1.259 . S
C138 O135 1.252 . S
C138 O136 1.273 . S
O139 Mg126 2.010 . S
O139 C131 1.249 . S
Mg140 O141 2.028 . S
Mg140 O147 1.986 . S
Mg140 O149 2.114 1_554 S
Mg140 O150 2.251 . S
Mg140 O153 2.010 . S
O141 Mg140 2.028 . S
O141 C144 1.250 . S
O142 Mg143 2.028 . S
O142 C144 1.248 . S
Mg143 O142 2.028 . S
Mg143 O148 2.032 . S
Mg143 O150 2.079 . S
C144 O141 1.250 . S
C144 O142 1.248 . S
C145 O146 1.264 . S
C145 O153 1.249 . S
O146 C145 1.264 . S
O147 Mg140 1.986 . S
O147 C151 1.246 . S
O148 Mg143 2.032 . S
O148 C151 1.259 . S
O149 Mg140 2.114 1_556 S
O149 C152 1.252 . S
O150 Mg140 2.251 . S
O150 Mg143 2.079 . S
O150 C152 1.273 1_554 S
C151 O147 1.246 . S
C151 O148 1.259 . S
C152 O149 1.252 . S
C152 O150 1.273 1_556 S
O153 Mg140 2.010 . S
O153 C145 1.249 . S
Mg154 O155 2.028 . S
Mg154 O161 1.986 1_554 S
Mg154 O163 2.114 . S
Mg154 O164 2.251 . S
Mg154 O167 2.010 . S
O155 Mg154 2.028 . S
O155 C158 1.250 . S
O156 Mg157 2.028 . S
O156 C158 1.248 . S
Mg157 O156 2.028 . S
Mg157 O162 2.032 1_554 S
Mg157 O164 2.079 . S
C158 O155 1.250 . S
C158 O156 1.248 . S
C159 O160 1.264 . S
C159 O167 1.249 . S
O160 C159 1.264 . S
O161 Mg154 1.986 1_556 S
O161 C165 1.246 . S
O162 Mg157 2.032 1_556 S
O162 C165 1.259 . S
O163 Mg154 2.114 . S
O163 C166 1.252 . S
O164 Mg154 2.251 . S
O164 Mg157 2.079 . S
O164 C166 1.273 . S
C165 O161 1.246 . S
C165 O162 1.259 . S
C166 O163 1.252 . S
C166 O164 1.273 . S
O167 Mg154 2.010 . S
O167 C159 1.249 . S
C168 C169 1.349 . S
C168 C170 1.327 . S
C168 H193 0.950 1_455 S
C169 C168 1.349 . S
C169 C185 1.349 . S
C170 C168 1.327 . S
C170 C189 1.429 . S
C170 H194 0.950 1_455 S
C171 C188 1.574 . S
C171 C190 1.368 . S
C171 H195 0.949 . S
H172 C176 0.949 1_655 S
C173 C174 1.349 . S
C173 C175 1.327 . S
C173 H196 0.950 . S
C174 C173 1.349 . S
C174 C186 1.349 . S
C175 C173 1.327 . S
C175 C191 1.429 . S
C175 H197 0.950 . S
C176 H172 0.949 1_455 S
C176 C184 1.574 . S
C176 C192 1.368 . S
H177 C185 0.950 . S
H178 C183 0.950 . S
H179 C184 0.949 1_655 S
H180 C186 0.950 1_655 S
H181 C187 0.950 1_655 S
H182 C188 0.949 . S
C183 H178 0.950 . S
C183 C185 1.327 . S
C183 C189 1.429 . S
C184 C176 1.574 . S
C184 H179 0.949 1_455 S
C184 C190 1.368 . S
C185 C169 1.349 . S
C185 H177 0.950 . S
C185 C183 1.327 . S
C186 C174 1.349 . S
C186 H180 0.950 1_455 S
C186 C187 1.327 . S
C187 H181 0.950 1_455 S
C187 C186 1.327 . S
C187 C191 1.429 . S
C188 C171 1.574 . S
C188 H182 0.949 . S
C188 C192 1.368 . S
C189 C170 1.429 . S
C189 C183 1.429 . S
C189 C190 1.523 . S
C190 C171 1.368 . S
C190 C184 1.368 . S
C190 C189 1.523 . S
C191 C175 1.429 . S
C191 C187 1.429 . S
C191 C192 1.523 . S
C192 C176 1.368 . S
C192 C188 1.368 . S
C192 C191 1.523 . S
H193 C168 0.950 1_655 S
H194 C170 0.950 1_655 S
H195 C171 0.949 . S
H196 C173 0.950 . S
H197 C175 0.950 . S
C198 C199 1.349 . S
C198 C200 1.327 . S
C198 H223 0.950 1_545 S
C199 C198 1.349 . S
C199 C215 1.349 . S
C200 C198 1.327 . S
C200 C219 1.429 . S
C200 H224 0.950 1_545 S
C201 C218 1.574 . S
C201 C220 1.368 . S
C201 H225 0.949 . S
H202 C206 0.949 . S
C203 C204 1.349 . S
C203 C205 1.327 . S
C203 H226 0.950 . S
C204 C203 1.349 . S
C204 C216 1.342 1_545 S
C205 C203 1.327 . S
C205 C221 1.429 . S
C205 H227 0.950 . S
C206 H202 0.949 . S
C206 C214 1.575 1_565 S
C206 C222 1.368 1_565 S
H207 C215 0.950 . S
H208 C213 0.950 . S
H209 C214 0.935 1_565 S
H210 C216 0.956 . S
H211 C217 0.955 . S
H212 C218 0.949 . S
C213 H208 0.950 . S
C213 C215 1.327 . S
C213 C219 1.429 . S
C214 C206 1.575 1_545 S
C214 H209 0.935 1_545 S
C214 C220 1.383 . S
C215 C199 1.349 . S
C215 H207 0.950 . S
C215 C213 1.327 . S
C216 C204 1.342 1_565 S
C216 H210 0.956 . S
C216 C217 1.327 . S
C217 H211 0.955 . S
C217 C216 1.327 . S
C217 C221 1.424 1_565 S
C218 C201 1.574 . S
C218 H212 0.949 . S
C218 C222 1.368 . S
C219 C200 1.429 . S
C219 C213 1.429 . S
C219 C220 1.523 . S
C220 C201 1.368 . S
C220 C214 1.383 . S
C220 C219 1.523 . S
C221 C205 1.429 . S
C221 C217 1.424 1_545 S
C221 C222 1.523 . S
C222 C206 1.368 1_545 S
C222 C218 1.368 . S
C222 C221 1.523 . S
H223 C198 0.950 1_565 S
H224 C200 0.950 1_565 S
H225 C201 0.949 . S
H226 C203 0.950 . S
H227 C205 0.950 . S
C228 C229 1.349 . S
C228 C230 1.327 . S
C228 H253 0.950 . S
C229 C228 1.349 . S
C229 C245 1.349 . S
C230 C228 1.327 . S
C230 C249 1.429 . S
C230 H254 0.950 . S
C231 C248 1.574 . S
C231 C250 1.368 . S
C231 H255 0.949 . S
H232 C236 0.949 . S
C233 C234 1.349 . S
C233 C235 1.327 . S
C233 H256 0.950 . S
C234 C233 1.349 . S
C234 C246 1.349 . S
C235 C233 1.327 . S
C235 C251 1.429 . S
C235 H257 0.950 . S
C236 H232 0.949 . S
C236 C244 1.574 . S
C236 C252 1.368 . S
H237 C245 0.950 . S
H238 C243 0.950 . S
H239 C244 0.949 . S
H240 C246 0.950 . S
H241 C247 0.950 . S
H242 C248 0.949 . S
C243 H238 0.950 . S
C243 C245 1.327 . S
C243 C249 1.429 . S
C244 C236 1.574 . S
C244 H239 0.949 . S
C244 C250 1.368 . S
C245 C229 1.349 . S
C245 H237 0.950 . S
C245 C243 1.327 . S
C246 C234 1.349 . S
C246 H240 0.950 . S
C246 C247 1.327 . S
C247 H241 0.950 . S
C247 C246 1.327 . S
C247 C251 1.429 . S
C248 C231 1.574 . S
C248 H242 0.949 . S
C248 C252 1.368 . S
C249 C230 1.429 . S
C249 C243 1.429 . S
C249 C250 1.523 . S
C250 C231 1.368 . S
C250 C244 1.368 . S
C250 C249 1.523 . S
C251 C235 1.429 . S
C251 C247 1.429 . S
C251 C252 1.523 . S
C252 C236 1.368 . S
C252 C248 1.368 . S
C252 C251 1.523 . S
H253 C228 0.950 . S
H254 C230 0.950 . S
H255 C231 0.949 . S
H256 C233 0.950 . S
H257 C235 0.950 . S
C258 C259 1.349 1_565 S
C258 C260 1.327 . S
C258 H283 0.950 . S
C259 C258 1.349 1_545 S
C259 C275 1.349 . S
C260 C258 1.327 . S
C260 C279 1.429 1_565 S
C260 H284 0.950 . S
C261 C278 1.574 . S
C261 C280 1.368 . S
C261 H285 0.949 . S
H262 C266 0.949 . S
C263 C264 1.349 . S
C263 C265 1.327 . S
C263 H286 0.950 . S
C264 C263 1.349 . S
C264 C276 1.349 1_545 S
C265 C263 1.327 . S
C265 C281 1.429 . S
C265 H287 0.950 . S
C266 H262 0.949 . S
C266 C274 1.574 . S
C266 C282 1.368 1_565 S
H267 C275 0.950 . S
H268 C273 0.950 . S
H269 C274 0.949 . S
H270 C276 0.950 . S
H271 C277 0.950 . S
H272 C278 0.949 . S
C273 H268 0.950 . S
C273 C275 1.327 . S
C273 C279 1.429 . S
C274 C266 1.574 . S
C274 H269 0.949 . S
C274 C280 1.368 1_565 S
C275 C259 1.349 . S
C275 H267 0.950 . S
C275 C273 1.327 . S
C276 C264 1.349 1_565 S
C276 H270 0.950 . S
C276 C277 1.327 . S
C277 H271 0.950 . S
C277 C276 1.327 . S
C277 C281 1.429 1_565 S
C278 C261 1.574 . S
C278 H272 0.949 . S
C278 C282 1.368 . S
C279 C260 1.429 1_545 S
C279 C273 1.429 . S
C279 C280 1.523 . S
C280 C261 1.368 . S
C280 C274 1.368 1_545 S
C280 C279 1.523 . S
C281 C265 1.429 . S
C281 C277 1.429 1_545 S
C281 C282 1.523 . S
C282 C266 1.368 1_545 S
C282 C278 1.368 . S
C282 C281 1.523 . S
H283 C258 0.950 . S
H284 C260 0.950 . S
H285 C261 0.949 . S
H286 C263 0.950 . S
H287 C265 0.950 . S
C288 C289 1.349 . S
C288 C290 1.327 . S
C288 H313 0.950 . S
C289 C288 1.349 . S
C289 C305 1.349 . S
C290 C288 1.327 . S
C290 C309 1.429 . S
C290 H314 0.950 . S
C291 C308 1.574 . S
C291 C310 1.368 . S
C291 H315 0.949 . S
H292 C296 0.949 . S
C293 C294 1.349 . S
C293 C295 1.327 . S
C293 H316 0.950 . S
C294 C293 1.349 . S
C294 C306 1.349 . S
C295 C293 1.327 . S
C295 C311 1.429 . S
C295 H317 0.950 . S
C296 H292 0.949 . S
C296 C304 1.574 . S
C296 C312 1.368 . S
H297 C305 0.950 . S
H298 C303 0.950 . S
H299 C304 0.949 . S
H300 C306 0.950 . S
H301 C307 0.950 . S
H302 C308 0.949 . S
C303 H298 0.950 . S
C303 C305 1.327 . S
C303 C309 1.429 . S
C304 C296 1.574 . S
C304 H299 0.949 . S
C304 C310 1.368 . S
C305 C289 1.349 . S
C305 H297 0.950 . S
C305 C303 1.327 . S
C306 C294 1.349 . S
C306 H300 0.950 . S
C306 C307 1.327 . S
C307 H301 0.950 . S
C307 C306 1.327 . S
C307 C311 1.429 . S
C308 C291 1.574 . S
C308 H302 0.949 . S
C308 C312 1.368 . S
C309 C290 1.429 . S
C309 C303 1.429 . S
C309 C310 1.523 . S
C310 C291 1.368 . S
C310 C304 1.368 . S
C310 C309 1.523 . S
C311 C295 1.429 . S
C311 C307 1.429 . S
C311 C312 1.523 . S
C312 C296 1.368 . S
C312 C308 1.368 . S
C312 C311 1.523 . S
H313 C288 0.950 . S
H314 C290 0.950 . S
H315 C291 0.949 . S
H316 C293 0.950 . S
H317 C295 0.950 . S
C318 C319 1.349 1_565 S
C318 C320 1.327 . S
C318 H343 0.950 . S
C319 C318 1.349 1_545 S
C319 C335 1.349 . S
C320 C318 1.327 . S
C320 C339 1.429 1_565 S
C320 H344 0.950 . S
C321 C338 1.574 . S
C321 C340 1.368 . S
C321 H345 0.949 . S
H322 C326 0.949 . S
C323 C324 1.349 . S
C323 C325 1.327 . S
C323 H346 0.950 . S
C324 C323 1.349 . S
C324 C336 1.349 1_545 S
C325 C323 1.327 . S
C325 C341 1.429 . S
C325 H347 0.950 . S
C326 H322 0.949 . S
C326 C334 1.574 . S
C326 C342 1.368 1_565 S
H327 C335 0.950 . S
H328 C333 0.950 . S
H329 C334 0.949 . S
H330 C336 0.950 . S
H331 C337 0.950 . S
H332 C338 0.949 . S
C333 H328 0.950 . S
C333 C335 1.327 . S
C333 C339 1.429 . S
C334 C326 1.574 . S
C334 H329 0.949 . S
C334 C340 1.368 1_565 S
C335 C319 1.349 . S
C335 H327 0.950 . S
C335 C333 1.327 . S
C336 C324 1.349 1_565 S
C336 H330 0.950 . S
C336 C337 1.327 . S
C337 H331 0.950 . S
C337 C336 1.327 . S
C337 C341 1.429 1_565 S
C338 C321 1.574 . S
C338 H332 0.949 . S
C338 C342 1.368 . S
C339 C320 1.429 1_545 S
C339 C333 1.429 . S
C339 C340 1.523 . S
C340 C321 1.368 . S
C340 C334 1.368 1_545 S
C340 C339 1.523 . S
C341 C325 1.429 . S
C341 C337 1.429 1_545 S
C341 C342 1.523 . S
C342 C326 1.368 1_545 S
C342 C338 1.368 . S
C342 C341 1.523 . S
H343 C318 0.950 . S
H344 C320 0.950 . S
H345 C321 0.949 . S
H346 C323 0.950 . S
H347 C325 0.950 . S
C348 C349 1.349 . S
C348 C350 1.327 . S
C348 H373 0.950 . S
C349 C348 1.349 . S
C349 C365 1.349 . S
C350 C348 1.327 . S
C350 C369 1.429 . S
C350 H374 0.950 . S
C351 C368 1.576 . S
C351 C370 1.358 1_655 S
C351 H375 0.957 . S
H352 C356 0.949 . S
C353 C354 1.349 1_655 S
C353 C355 1.327 . S
C353 H376 0.950 . S
C354 C353 1.349 1_455 S
C354 C366 1.349 . S
C355 C353 1.327 . S
C355 C371 1.429 1_655 S
C355 H377 0.950 . S
C356 H352 0.949 . S
C356 C364 1.574 . S
C356 C372 1.368 . S
H357 C365 0.950 1_655 S
H358 C363 0.950 1_655 S
H359 C364 0.949 . S
H360 C366 0.950 . S
H361 C367 0.950 . S
H362 C368 0.949 . S
C363 H358 0.950 1_455 S
C363 C365 1.327 . S
C363 C369 1.429 . S
C364 C356 1.574 . S
C364 H359 0.949 . S
C364 C370 1.368 . S
C365 C349 1.349 . S
C365 H357 0.950 1_455 S
C365 C363 1.327 . S
C366 C354 1.349 . S
C366 H360 0.950 . S
C366 C367 1.327 . S
C367 H361 0.950 . S
C367 C366 1.327 . S
C367 C371 1.429 . S
C368 C351 1.576 . S
C368 H362 0.949 . S
C368 C372 1.368 1_655 S
C369 C350 1.429 . S
C369 C363 1.429 . S
C369 C370 1.523 . S
C370 C351 1.358 1_455 S
C370 C364 1.368 . S
C370 C369 1.523 . S
C371 C355 1.429 1_455 S
C371 C367 1.429 . S
C371 C372 1.523 . S
C372 C356 1.368 . S
C372 C368 1.368 1_455 S
C372 C371 1.523 . S
H373 C348 0.950 . S
H374 C350 0.950 . S
H375 C351 0.957 . S
H376 C353 0.950 . S
H377 C355 0.950 . S
C378 C379 1.349 . S
C378 C380 1.327 . S
C378 H403 0.950 . S
C379 C378 1.349 . S
C379 C395 1.349 . S
C380 C378 1.327 . S
C380 C399 1.429 . S
C380 H404 0.950 . S
C381 C398 1.574 . S
C381 C400 1.397 . S
C381 H405 0.926 1_545 S
H382 C386 0.949 . S
C383 C384 1.349 . S
C383 C385 1.327 . S
C383 H406 0.950 1_545 S
C384 C383 1.349 . S
C384 C396 1.349 . S
C385 C383 1.327 . S
C385 C401 1.429 . S
C385 H407 0.950 1_545 S
C386 H382 0.949 . S
C386 C394 1.574 . S
C386 C402 1.368 . S
H387 C395 0.950 1_565 S
H388 C393 0.950 1_565 S
H389 C394 0.949 . S
H390 C396 0.950 . S
H391 C397 0.950 . S
H392 C398 0.924 1_565 S
C393 H388 0.950 1_545 S
C393 C395 1.327 . S
C393 C399 1.429 . S
C394 C386 1.574 . S
C394 H389 0.949 . S
C394 C400 1.368 . S
C395 C379 1.349 . S
C395 H387 0.950 1_545 S
C395 C393 1.327 . S
C396 C384 1.349 . S
C396 H390 0.950 . S
C396 C397 1.327 . S
C397 H391 0.950 . S
C397 C396 1.327 . S
C397 C401 1.429 . S
C398 C381 1.574 . S
C398 H392 0.924 1_545 S
C398 C402 1.394 . S
C399 C380 1.429 . S
C399 C393 1.429 . S
C399 C400 1.523 . S
C400 C381 1.397 . S
C400 C394 1.368 . S
C400 C399 1.523 . S
C401 C385 1.429 . S
C401 C397 1.429 . S
C401 C402 1.523 . S
C402 C386 1.368 . S
C402 C398 1.394 . S
C402 C401 1.523 . S
H403 C378 0.950 . S
H404 C380 0.950 . S
H405 C381 0.926 1_565 S
H406 C383 0.950 1_565 S
H407 C385 0.950 1_565 S
C408 C409 1.349 1_556 S
C408 C410 1.327 . S
C408 H433 0.950 . S
C409 C408 1.349 1_554 S
C409 C425 1.349 . S
C410 C408 1.327 . S
C410 C429 1.429 1_556 S
C410 H434 0.950 . S
C411 C428 1.574 . S
C411 C430 1.368 . S
C411 H435 0.949 . S
H412 C416 0.949 . S
C413 C414 1.349 . S
C413 C415 1.327 . S
C413 H436 0.950 . S
C414 C413 1.349 . S
C414 C426 1.349 1_554 S
C415 C413 1.327 . S
C415 C431 1.429 . S
C415 H437 0.950 . S
C416 H412 0.949 . S
C416 C424 1.574 . S
C416 C432 1.368 1_556 S
H417 C425 0.950 . S
H418 C423 0.950 . S
H419 C424 0.949 . S
H420 C426 0.950 . S
H421 C427 0.950 . S
H422 C428 0.949 . S
C423 H418 0.950 . S
C423 C425 1.327 . S
C423 C429 1.429 . S
C424 C416 1.574 . S
C424 H419 0.949 . S
C424 C430 1.368 1_556 S
C425 C409 1.349 . S
C425 H417 0.950 . S
C425 C423 1.327 . S
C426 C414 1.349 1_556 S
C426 H420 0.950 . S
C426 C427 1.327 . S
C427 H421 0.950 . S
C427 C426 1.327 . S
C427 C431 1.429 1_556 S
C428 C411 1.574 . S
C428 H422 0.949 . S
C428 C432 1.368 . S
C429 C410 1.429 1_554 S
C429 C423 1.429 . S
C429 C430 1.523 . S
C430 C411 1.368 . S
C430 C424 1.368 1_554 S
C430 C429 1.523 . S
C431 C415 1.429 . S
C431 C427 1.429 1_554 S
C431 C432 1.523 . S
C432 C416 1.368 1_554 S
C432 C428 1.368 . S
C432 C431 1.523 . S
H433 C408 0.950 . S
H434 C410 0.950 . S
H435 C411 0.949 . S
H436 C413 0.950 . S
H437 C415 0.950 . S
C438 C439 1.349 . S
C438 C440 1.327 . S
C438 H463 0.950 . S
C439 C438 1.349 . S
C439 C455 1.349 1_554 S
C440 C438 1.327 . S
C440 C459 1.429 . S
C440 H464 0.950 . S
C441 C458 1.574 . S
C441 C460 1.368 1_556 S
C441 H465 0.949 . S
H442 C446 0.949 . S
C443 C444 1.349 1_556 S
C443 C445 1.327 . S
C443 H466 0.950 . S
C444 C443 1.349 1_554 S
C444 C456 1.349 . S
C445 C443 1.327 . S
C445 C461 1.429 1_556 S
C445 H467 0.950 . S
C446 H442 0.949 . S
C446 C454 1.574 . S
C446 C462 1.368 . S
H447 C455 0.950 . S
H448 C453 0.950 . S
H449 C454 0.949 . S
H450 C456 0.950 . S
H451 C457 0.950 . S
H452 C458 0.949 . S
C453 H448 0.950 . S
C453 C455 1.327 . S
C453 C459 1.429 1_556 S
C454 C446 1.574 . S
C454 H449 0.949 . S
C454 C460 1.368 . S
C455 C439 1.349 1_556 S
C455 H447 0.950 . S
C455 C453 1.327 . S
C456 C444 1.349 . S
C456 H450 0.950 . S
C456 C457 1.327 . S
C457 H451 0.950 . S
C457 C456 1.327 . S
C457 C461 1.429 . S
C458 C441 1.574 . S
C458 H452 0.949 . S
C458 C462 1.368 1_556 S
C459 C440 1.429 . S
C459 C453 1.429 1_554 S
C459 C460 1.523 . S
C460 C441 1.368 1_554 S
C460 C454 1.368 . S
C460 C459 1.523 . S
C461 C445 1.429 1_554 S
C461 C457 1.429 . S
C461 C462 1.523 . S
C462 C446 1.368 . S
C462 C458 1.368 1_554 S
C462 C461 1.523 . S
H463 C438 0.950 . S
H464 C440 0.950 . S
H465 C441 0.949 . S
H466 C443 0.950 . S
H467 C445 0.950 . S
C468 C469 1.349 . S
C468 C470 1.327 . S
C468 H493 0.950 . S
C469 C468 1.349 . S
C469 C485 1.349 . S
C470 C468 1.327 . S
C470 C489 1.429 . S
C470 H494 0.950 . S
C471 C488 1.574 . S
C471 C490 1.368 . S
C471 H495 0.949 1_554 S
H472 C476 0.949 . S
C473 C474 1.349 . S
C473 C475 1.327 . S
C473 H496 0.950 . S
C474 C473 1.349 . S
C474 C486 1.349 . S
C475 C473 1.327 . S
C475 C491 1.429 . S
C475 H497 0.952 . S
C476 H472 0.949 . S
C476 C484 1.574 . S
C476 C492 1.368 . S
H477 C485 0.950 1_556 S
H478 C483 0.950 1_556 S
H479 C484 0.949 . S
H480 C486 0.950 . S
H481 C487 0.950 . S
H482 C488 0.949 1_556 S
C483 H478 0.950 1_554 S
C483 C485 1.327 . S
C483 C489 1.429 . S
C484 C476 1.574 . S
C484 H479 0.949 . S
C484 C490 1.368 . S
C485 C469 1.349 . S
C485 H477 0.950 1_554 S
C485 C483 1.327 . S
C486 C474 1.349 . S
C486 H480 0.950 . S
C486 C487 1.327 . S
C487 H481 0.950 . S
C487 C486 1.327 . S
C487 C491 1.429 . S
C488 C471 1.574 . S
C488 H482 0.949 1_554 S
C488 C492 1.368 . S
C489 C470 1.429 . S
C489 C483 1.429 . S
C489 C490 1.523 . S
C490 C471 1.368 . S
C490 C484 1.368 . S
C490 C489 1.523 . S
C491 C475 1.429 . S
C491 C487 1.429 . S
C491 C492 1.523 . S
C492 C476 1.368 . S
C492 C488 1.368 . S
C492 C491 1.523 . S
H493 C468 0.950 . S
H494 C470 0.950 . S
H495 C471 0.949 1_556 S
H496 C473 0.950 . S
H497 C475 0.952 . S
C498 C499 1.349 . S
C498 C500 1.327 . S
C498 H523 0.950 . S
C499 C498 1.349 . S
C499 C515 1.349 . S
C500 C498 1.327 . S
C500 C519 1.429 . S
C500 H524 0.983 . S
C501 C518 1.574 . S
C501 C520 1.368 . S
C501 H525 0.949 . S
H502 C506 0.949 1_556 S
C503 C504 1.349 . S
C503 C505 1.327 . S
C503 H526 0.950 . S
C504 C503 1.349 . S
C504 C516 1.349 . S
C505 C503 1.327 . S
C505 C521 1.429 . S
C505 H527 0.950 . S
C506 H502 0.949 1_554 S
C506 C514 1.574 . S
C506 C522 1.368 . S
H507 C515 0.950 . S
H508 C513 0.950 . S
H509 C514 0.931 1_556 S
H510 C516 0.950 1_556 S
H511 C517 0.950 1_556 S
H512 C518 0.949 . S
C513 H508 0.950 . S
C513 C515 1.327 . S
C513 C519 1.429 . S
C514 C506 1.574 . S
C514 H509 0.931 1_554 S
C514 C520 1.368 . S
C515 C499 1.349 . S
C515 H507 0.950 . S
C515 C513 1.327 . S
C516 C504 1.349 . S
C516 H510 0.950 1_554 S
C516 C517 1.327 . S
C517 H511 0.950 1_554 S
C517 C516 1.327 . S
C517 C521 1.429 . S
C518 C501 1.574 . S
C518 H512 0.949 . S
C518 C522 1.368 . S
C519 C500 1.429 . S
C519 C513 1.429 . S
C519 C520 1.523 . S
C520 C501 1.368 . S
C520 C514 1.368 . S
C520 C519 1.523 . S
C521 C505 1.429 . S
C521 C517 1.429 . S
C521 C522 1.523 . S
C522 C506 1.368 . S
C522 C518 1.368 . S
C522 C521 1.523 . S
H523 C498 0.950 . S
H524 C500 0.983 . S
H525 C501 0.949 . S
H526 C503 0.950 . S
H527 C505 0.950 . S
C528 C529 1.349 . S
C528 C530 1.327 . S
C528 H553 0.950 . S
C529 C528 1.349 . S
C529 C545 1.349 . S
C530 C528 1.327 . S
C530 C549 1.429 . S
C530 H554 0.950 . S
C531 C548 1.574 . S
C531 C550 1.368 . S
C531 H555 0.949 . S
H532 C536 0.949 . S
C533 C534 1.349 . S
C533 C535 1.327 . S
C533 H556 0.950 . S
C534 C533 1.349 . S
C534 C546 1.349 . S
C535 C533 1.327 . S
C535 C551 1.429 . S
C535 H557 0.950 . S
C536 H532 0.949 . S
C536 C544 1.574 . S
C536 C552 1.368 . S
H537 C545 0.950 . S
H538 C543 0.950 . S
H539 C544 0.949 . S
H540 C546 0.950 . S
H541 C547 0.950 . S
H542 C548 0.949 . S
C543 H538 0.950 . S
C543 C545 1.327 . S
C543 C549 1.429 . S
C544 C536 1.574 . S
C544 H539 0.949 . S
C544 C550 1.368 . S
C545 C529 1.349 . S
C545 H537 0.950 . S
C545 C543 1.327 . S
C546 C534 1.349 . S
C546 H540 0.950 . S
C546 C547 1.327 . S
C547 H541 0.950 . S
C547 C546 1.327 . S
C547 C551 1.429 . S
C548 C531 1.574 . S
C548 H542 0.949 . S
C548 C552 1.368 . S
C549 C530 1.429 . S
C549 C543 1.429 . S
C549 C550 1.523 . S
C550 C531 1.368 . S
C550 C544 1.368 . S
C550 C549 1.523 . S
C551 C535 1.429 . S
C551 C547 1.429 . S
C551 C552 1.523 . S
C552 C536 1.368 . S
C552 C548 1.368 . S
C552 C551 1.523 . S
H553 C528 0.950 . S
H554 C530 0.950 . S
H555 C531 0.949 . S
H556 C533 0.950 . S
H557 C535 0.950 . S
C558 C559 1.349 . S
C558 C560 1.327 . S
C558 H583 0.950 . S
C559 C558 1.349 . S
C559 C575 1.349 . S
C560 C558 1.327 . S
C560 C579 1.429 . S
C560 H584 0.950 . S
C561 C578 1.574 . S
C561 C580 1.368 . S
C561 H585 0.949 . S
H562 C566 0.949 . S
C563 C564 1.349 . S
C563 C565 1.327 . S
C563 H586 0.950 . S
C564 C563 1.349 . S
C564 C576 1.349 . S
C565 C563 1.327 . S
C565 C581 1.429 . S
C565 H587 0.950 . S
C566 H562 0.949 . S
C566 C574 1.574 . S
C566 C582 1.368 . S
H567 C575 0.950 . S
H568 C573 0.950 . S
H569 C574 0.949 . S
H570 C576 0.950 . S
H571 C577 0.950 . S
H572 C578 0.949 . S
C573 H568 0.950 . S
C573 C575 1.327 . S
C573 C579 1.429 . S
C574 C566 1.574 . S
C574 H569 0.949 . S
C574 C580 1.368 . S
C575 C559 1.349 . S
C575 H567 0.950 . S
C575 C573 1.327 . S
C576 C564 1.349 . S
C576 H570 0.950 . S
C576 C577 1.327 . S
C577 H571 0.950 . S
C577 C576 1.327 . S
C577 C581 1.429 . S
C578 C561 1.574 . S
C578 H572 0.949 . S
C578 C582 1.368 . S
C579 C560 1.429 . S
C579 C573 1.429 . S
C579 C580 1.523 . S
C580 C561 1.368 . S
C580 C574 1.368 . S
C580 C579 1.523 . S
C581 C565 1.429 . S
C581 C577 1.429 . S
C581 C582 1.523 . S
C582 C566 1.368 . S
C582 C578 1.368 . S
C582 C581 1.523 . S
H583 C558 0.950 . S
H584 C560 0.950 . S
H585 C561 0.949 . S
H586 C563 0.950 . S
H587 C565 0.950 . S
C588 C589 1.349 . S
C588 C590 1.327 . S
C588 H613 0.950 . S
C589 C588 1.349 . S
C589 C605 1.349 . S
C590 C588 1.327 . S
C590 C609 1.429 . S
C590 H614 0.950 . S
C591 C608 1.574 . S
C591 C610 1.368 . S
C591 H615 0.949 . S
H592 C596 0.949 . S
C593 C594 1.349 . S
C593 C595 1.327 . S
C593 H616 0.950 . S
C594 C593 1.349 . S
C594 C606 1.349 . S
C595 C593 1.327 . S
C595 C611 1.429 . S
C595 H617 0.950 . S
C596 H592 0.949 . S
C596 C604 1.574 . S
C596 C612 1.368 . S
H597 C605 0.950 . S
H598 C603 0.950 . S
H599 C604 0.949 . S
H600 C606 0.950 . S
H601 C607 0.950 . S
H602 C608 0.949 . S
C603 H598 0.950 . S
C603 C605 1.327 . S
C603 C609 1.429 . S
C604 C596 1.574 . S
C604 H599 0.949 . S
C604 C610 1.368 . S
C605 C589 1.349 . S
C605 H597 0.950 . S
C605 C603 1.327 . S
C606 C594 1.349 . S
C606 H600 0.950 . S
C606 C607 1.327 . S
C607 H601 0.950 . S
C607 C606 1.327 . S
C607 C611 1.429 . S
C608 C591 1.574 . S
C608 H602 0.949 . S
C608 C612 1.368 . S
C609 C590 1.429 . S
C609 C603 1.429 . S
C609 C610 1.523 . S
C610 C591 1.368 . S
C610 C604 1.368 . S
C610 C609 1.523 . S
C611 C595 1.429 . S
C611 C607 1.429 . S
C611 C612 1.523 . S
C612 C596 1.368 . S
C612 C608 1.368 . S
C612 C611 1.523 . S
H613 C588 0.950 . S
H614 C590 0.950 . S
H615 C591 0.949 . S
H616 C593 0.950 . S
H617 C595 0.950 . S
C618 C619 1.349 . S
C618 C620 1.327 . S
C618 H643 0.950 . S
C619 C618 1.349 . S
C619 C635 1.349 . S
C620 C618 1.327 . S
C620 C639 1.429 . S
C620 H644 0.950 . S
C621 C638 1.574 . S
C621 C640 1.368 . S
C621 H645 0.949 . S
H622 C626 0.949 . S
C623 C624 1.349 . S
C623 C625 1.327 . S
C623 H646 0.950 . S
C624 C623 1.349 . S
C624 C636 1.349 . S
C625 C623 1.327 . S
C625 C641 1.429 . S
C625 H647 0.950 . S
C626 H622 0.949 . S
C626 C634 1.574 . S
C626 C642 1.368 . S
H627 C635 0.950 . S
H628 C633 0.950 . S
H629 C634 0.949 . S
H630 C636 0.950 . S
H631 C637 0.950 . S
H632 C638 0.949 . S
C633 H628 0.950 . S
C633 C635 1.327 . S
C633 C639 1.429 . S
C634 C626 1.574 . S
C634 H629 0.949 . S
C634 C640 1.368 . S
C635 C619 1.349 . S
C635 H627 0.950 . S
C635 C633 1.327 . S
C636 C624 1.349 . S
C636 H630 0.950 . S
C636 C637 1.327 . S
C637 H631 0.950 . S
C637 C636 1.327 . S
C637 C641 1.429 . S
C638 C621 1.574 . S
C638 H632 0.949 . S
C638 C642 1.368 . S
C639 C620 1.429 . S
C639 C633 1.429 . S
C639 C640 1.523 . S
C640 C621 1.368 . S
C640 C634 1.368 . S
C640 C639 1.523 . S
C641 C625 1.429 . S
C641 C637 1.429 . S
C641 C642 1.523 . S
C642 C626 1.368 . S
C642 C638 1.368 . S
C642 C641 1.523 . S
H643 C618 0.950 . S
H644 C620 0.950 . S
H645 C621 0.949 . S
H646 C623 0.950 . S
H647 C625 0.950 . S
C648 C649 1.349 . S
C648 C650 1.327 . S
C648 H673 0.950 . S
C649 C648 1.349 . S
C649 C665 1.349 . S
C650 C648 1.327 . S
C650 C669 1.429 . S
C650 H674 0.950 . S
C651 C668 1.574 . S
C651 C670 1.368 . S
C651 H675 0.949 . S
H652 C656 0.949 . S
C653 C654 1.349 . S
C653 C655 1.327 . S
C653 H676 0.950 . S
C654 C653 1.349 . S
C654 C666 1.349 . S
C655 C653 1.327 . S
C655 C671 1.429 . S
C655 H677 0.950 . S
C656 H652 0.949 . S
C656 C664 1.574 . S
C656 C672 1.368 . S
H657 C665 0.950 . S
H658 C663 0.950 . S
H659 C664 0.949 . S
H660 C666 0.950 . S
H661 C667 0.950 . S
H662 C668 0.949 . S
C663 H658 0.950 . S
C663 C665 1.327 . S
C663 C669 1.429 . S
C664 C656 1.574 . S
C664 H659 0.949 . S
C664 C670 1.368 . S
C665 C649 1.349 . S
C665 H657 0.950 . S
C665 C663 1.327 . S
C666 C654 1.349 . S
C666 H660 0.950 . S
C666 C667 1.327 . S
C667 H661 0.950 . S
C667 C666 1.327 . S
C667 C671 1.429 . S
C668 C651 1.574 . S
C668 H662 0.949 . S
C668 C672 1.368 . S
C669 C650 1.429 . S
C669 C663 1.429 . S
C669 C670 1.523 . S
C670 C651 1.368 . S
C670 C664 1.368 . S
C670 C669 1.523 . S
C671 C655 1.429 . S
C671 C667 1.429 . S
C671 C672 1.523 . S
C672 C656 1.368 . S
C672 C668 1.368 . S
C672 C671 1.523 . S
H673 C648 0.950 . S
H674 C650 0.950 . S
H675 C651 0.949 . S
H676 C653 0.950 . S
H677 C655 0.950 . S
C678 C679 1.349 . S
C678 C680 1.327 . S
C678 H703 0.950 . S
C679 C678 1.349 . S
C679 C695 1.349 . S
C680 C678 1.327 . S
C680 C699 1.429 . S
C680 H704 0.950 . S
C681 C698 1.574 . S
C681 C700 1.368 . S
C681 H705 0.949 . S
H682 C686 0.949 . S
C683 C684 1.349 . S
C683 C685 1.327 . S
C683 H706 0.950 . S
C684 C683 1.349 . S
C684 C696 1.349 . S
C685 C683 1.327 . S
C685 C701 1.429 . S
C685 H707 0.950 . S
C686 H682 0.949 . S
C686 C694 1.574 . S
C686 C702 1.368 . S
H687 C695 0.950 . S
H688 C693 0.950 . S
H689 C694 0.949 . S
H690 C696 0.950 . S
H691 C697 0.950 . S
H692 C698 0.949 . S
C693 H688 0.950 . S
C693 C695 1.327 . S
C693 C699 1.429 . S
C694 C686 1.574 . S
C694 H689 0.949 . S
C694 C700 1.368 . S
C695 C679 1.349 . S
C695 H687 0.950 . S
C695 C693 1.327 . S
C696 C684 1.349 . S
C696 H690 0.950 . S
C696 C697 1.327 . S
C697 H691 0.950 . S
C697 C696 1.327 . S
C697 C701 1.429 . S
C698 C681 1.574 . S
C698 H692 0.949 . S
C698 C702 1.368 . S
C699 C680 1.429 . S
C699 C693 1.429 . S
C699 C700 1.523 . S
C700 C681 1.368 . S
C700 C694 1.368 . S
C700 C699 1.523 . S
C701 C685 1.429 . S
C701 C697 1.429 . S
C701 C702 1.523 . S
C702 C686 1.368 . S
C702 C698 1.368 . S
C702 C701 1.523 . S
H703 C678 0.950 . S
H704 C680 0.950 . S
H705 C681 0.949 . S
H706 C683 0.950 . S
H707 C685 0.950 . S
C708 C709 1.349 . S
C708 C710 1.327 . S
C708 H733 0.950 . S
C709 C708 1.349 . S
C709 C725 1.349 . S
C710 C708 1.327 . S
C710 C729 1.429 . S
C710 H734 0.950 . S
C711 C728 1.574 . S
C711 C730 1.368 . S
C711 H735 0.949 . S
H712 C716 0.949 . S
C713 C714 1.349 . S
C713 C715 1.327 . S
C713 H736 0.950 . S
C714 C713 1.349 . S
C714 C726 1.349 . S
C715 C713 1.327 . S
C715 C731 1.429 . S
C715 H737 0.950 . S
C716 H712 0.949 . S
C716 C724 1.574 . S
C716 C732 1.368 . S
H717 C725 0.950 . S
H718 C723 0.950 . S
H719 C724 0.949 . S
H720 C726 0.950 . S
H721 C727 0.950 . S
H722 C728 0.949 . S
C723 H718 0.950 . S
C723 C725 1.327 . S
C723 C729 1.429 . S
C724 C716 1.574 . S
C724 H719 0.949 . S
C724 C730 1.368 . S
C725 C709 1.349 . S
C725 H717 0.950 . S
C725 C723 1.327 . S
C726 C714 1.349 . S
C726 H720 0.950 . S
C726 C727 1.327 . S
C727 H721 0.950 . S
C727 C726 1.327 . S
C727 C731 1.429 . S
C728 C711 1.574 . S
C728 H722 0.949 . S
C728 C732 1.368 . S
C729 C710 1.429 . S
C729 C723 1.429 . S
C729 C730 1.523 . S
C730 C711 1.368 . S
C730 C724 1.368 . S
C730 C729 1.523 . S
C731 C715 1.429 . S
C731 C727 1.429 . S
C731 C732 1.523 . S
C732 C716 1.368 . S
C732 C728 1.368 . S
C732 C731 1.523 . S
H733 C708 0.950 . S
H734 C710 0.950 . S
H735 C711 0.949 . S
H736 C713 0.950 . S
H737 C715 0.950 . S
C738 C739 1.349 . S
C738 C740 1.327 . S
C738 H763 0.950 . S
C739 C738 1.349 . S
C739 C755 1.349 . S
C740 C738 1.327 . S
C740 C759 1.429 . S
C740 H764 0.950 . S
C741 C758 1.574 . S
C741 C760 1.368 . S
C741 H765 0.949 . S
H742 C746 0.949 . S
C743 C744 1.349 . S
C743 C745 1.327 . S
C743 H766 0.950 . S
C744 C743 1.349 . S
C744 C756 1.349 . S
C745 C743 1.327 . S
C745 C761 1.429 . S
C745 H767 0.950 . S
C746 H742 0.949 . S
C746 C754 1.574 . S
C746 C762 1.368 . S
H747 C755 0.950 . S
H748 C753 0.950 . S
H749 C754 0.949 . S
H750 C756 0.950 . S
H751 C757 0.950 . S
H752 C758 0.949 . S
C753 H748 0.950 . S
C753 C755 1.327 . S
C753 C759 1.429 . S
C754 C746 1.574 . S
C754 H749 0.949 . S
C754 C760 1.368 . S
C755 C739 1.349 . S
C755 H747 0.950 . S
C755 C753 1.327 . S
C756 C744 1.349 . S
C756 H750 0.950 . S
C756 C757 1.327 . S
C757 H751 0.950 . S
C757 C756 1.327 . S
C757 C761 1.429 . S
C758 C741 1.574 . S
C758 H752 0.949 . S
C758 C762 1.368 . S
C759 C740 1.429 . S
C759 C753 1.429 . S
C759 C760 1.523 . S
C760 C741 1.368 . S
C760 C754 1.368 . S
C760 C759 1.523 . S
C761 C745 1.429 . S
C761 C757 1.429 . S
C761 C762 1.523 . S
C762 C746 1.368 . S
C762 C758 1.368 . S
C762 C761 1.523 . S
H763 C738 0.950 . S
H764 C740 0.950 . S
H765 C741 0.949 . S
H766 C743 0.950 . S
H767 C745 0.950 . S
C768 C769 1.349 . S
C768 C770 1.327 . S
C768 H793 0.950 . S
C769 C768 1.349 . S
C769 C785 1.349 . S
C770 C768 1.327 . S
C770 C789 1.429 . S
C770 H794 0.950 . S
C771 C788 1.574 . S
C771 C790 1.368 . S
C771 H795 0.949 . S
H772 C776 0.949 . S
C773 C774 1.349 . S
C773 C775 1.327 . S
C773 H796 0.950 . S
C774 C773 1.349 . S
C774 C786 1.349 . S
C775 C773 1.327 . S
C775 C791 1.429 . S
C775 H797 0.950 . S
C776 H772 0.949 . S
C776 C784 1.574 . S
C776 C792 1.368 . S
H777 C785 0.950 . S
H778 C783 0.950 . S
H779 C784 0.949 . S
H780 C786 0.950 . S
H781 C787 0.950 . S
H782 C788 0.949 . S
C783 H778 0.950 . S
C783 C785 1.327 . S
C783 C789 1.429 . S
C784 C776 1.574 . S
C784 H779 0.949 . S
C784 C790 1.368 . S
C785 C769 1.349 . S
C785 H777 0.950 . S
C785 C783 1.327 . S
C786 C774 1.349 . S
C786 H780 0.950 . S
C786 C787 1.327 . S
C787 H781 0.950 . S
C787 C786 1.327 . S
C787 C791 1.429 . S
C788 C771 1.574 . S
C788 H782 0.949 . S
C788 C792 1.368 . S
C789 C770 1.429 . S
C789 C783 1.429 . S
C789 C790 1.523 . S
C790 C771 1.368 . S
C790 C784 1.368 . S
C790 C789 1.523 . S
C791 C775 1.429 . S
C791 C787 1.429 . S
C791 C792 1.523 . S
C792 C776 1.368 . S
C792 C788 1.368 . S
C792 C791 1.523 . S
H793 C768 0.950 . S
H794 C770 0.950 . S
H795 C771 0.949 . S
H796 C773 0.950 . S
H797 C775 0.950 . S
C798 C799 1.349 . S
C798 C800 1.327 . S
C798 H823 0.950 . S
C799 C798 1.349 . S
C799 C815 1.349 . S
C800 C798 1.327 . S
C800 C819 1.429 . S
C800 H824 0.950 . S
C801 C818 1.574 . S
C801 C820 1.368 . S
C801 H825 0.949 . S
H802 C806 0.949 . S
C803 C804 1.349 . S
C803 C805 1.327 . S
C803 H826 0.950 . S
C804 C803 1.349 . S
C804 C816 1.349 . S
C805 C803 1.327 . S
C805 C821 1.429 . S
C805 H827 0.950 . S
C806 H802 0.949 . S
C806 C814 1.574 . S
C806 C822 1.368 . S
H807 C815 0.950 . S
H808 C813 0.950 . S
H809 C814 0.949 . S
H810 C816 0.950 . S
H811 C817 0.950 . S
H812 C818 0.949 . S
C813 H808 0.950 . S
C813 C815 1.327 . S
C813 C819 1.429 . S
C814 C806 1.574 . S
C814 H809 0.949 . S
C814 C820 1.368 . S
C815 C799 1.349 . S
C815 H807 0.950 . S
C815 C813 1.327 . S
C816 C804 1.349 . S
C816 H810 0.950 . S
C816 C817 1.327 . S
C817 H811 0.950 . S
C817 C816 1.327 . S
C817 C821 1.429 . S
C818 C801 1.574 . S
C818 H812 0.949 . S
C818 C822 1.368 . S
C819 C800 1.429 . S
C819 C813 1.429 . S
C819 C820 1.523 . S
C820 C801 1.368 . S
C820 C814 1.368 . S
C820 C819 1.523 . S
C821 C805 1.429 . S
C821 C817 1.429 . S
C821 C822 1.523 . S
C822 C806 1.368 . S
C822 C818 1.368 . S
C822 C821 1.523 . S
H823 C798 0.950 . S
H824 C800 0.950 . S
H825 C801 0.949 . S
H826 C803 0.950 . S
H827 C805 0.950 . S
C828 C829 1.349 . S
C828 C830 1.327 . S
C828 H853 0.950 . S
C829 C828 1.349 . S
C829 C845 1.349 . S
C830 C828 1.327 . S
C830 C849 1.429 . S
C830 H854 0.950 . S
C831 C848 1.574 . S
C831 C850 1.368 . S
C831 H855 0.949 . S
H832 C836 0.949 . S
C833 C834 1.349 . S
C833 C835 1.327 . S
C833 H856 0.950 . S
C834 C833 1.349 . S
C834 C846 1.349 . S
C835 C833 1.327 . S
C835 C851 1.429 . S
C835 H857 0.950 . S
C836 H832 0.949 . S
C836 C844 1.574 . S
C836 C852 1.368 . S
H837 C845 0.950 . S
H838 C843 0.950 . S
H839 C844 0.949 . S
H840 C846 0.950 . S
H841 C847 0.950 . S
H842 C848 0.949 . S
C843 H838 0.950 . S
C843 C845 1.327 . S
C843 C849 1.429 . S
C844 C836 1.574 . S
C844 H839 0.949 . S
C844 C850 1.368 . S
C845 C829 1.349 . S
C845 H837 0.950 . S
C845 C843 1.327 . S
C846 C834 1.349 . S
C846 H840 0.950 . S
C846 C847 1.327 . S
C847 H841 0.950 . S
C847 C846 1.327 . S
C847 C851 1.429 . S
C848 C831 1.574 . S
C848 H842 0.949 . S
C848 C852 1.368 . S
C849 C830 1.429 . S
C849 C843 1.429 . S
C849 C850 1.523 . S
C850 C831 1.368 . S
C850 C844 1.368 . S
C850 C849 1.523 . S
C851 C835 1.429 . S
C851 C847 1.429 . S
C851 C852 1.523 . S
C852 C836 1.368 . S
C852 C848 1.368 . S
C852 C851 1.523 . S
H853 C828 0.950 . S
H854 C830 0.950 . S
H855 C831 0.949 . S
H856 C833 0.950 . S
H857 C835 0.950 . S
C858 C859 1.349 . S
C858 C860 1.327 . S
C858 H883 0.950 . S
C859 C858 1.349 . S
C859 C875 1.349 . S
C860 C858 1.327 . S
C860 C879 1.429 . S
C860 H884 0.950 . S
C861 C878 1.574 . S
C861 C880 1.368 . S
C861 H885 0.949 . S
H862 C866 0.949 . S
C863 C864 1.349 . S
C863 C865 1.327 . S
C863 H886 0.950 . S
C864 C863 1.349 . S
C864 C876 1.349 . S
C865 C863 1.327 . S
C865 C881 1.429 . S
C865 H887 0.950 . S
C866 H862 0.949 . S
C866 C874 1.574 . S
C866 C882 1.368 . S
H867 C875 0.950 . S
H868 C873 0.950 . S
H869 C874 0.949 . S
H870 C876 0.950 . S
H871 C877 0.950 . S
H872 C878 0.949 . S
C873 H868 0.950 . S
C873 C875 1.327 . S
C873 C879 1.429 . S
C874 C866 1.574 . S
C874 H869 0.949 . S
C874 C880 1.368 . S
C875 C859 1.349 . S
C875 H867 0.950 . S
C875 C873 1.327 . S
C876 C864 1.349 . S
C876 H870 0.950 . S
C876 C877 1.327 . S
C877 H871 0.950 . S
C877 C876 1.327 . S
C877 C881 1.429 . S
C878 C861 1.574 . S
C878 H872 0.949 . S
C878 C882 1.368 . S
C879 C860 1.429 . S
C879 C873 1.429 . S
C879 C880 1.523 . S
C880 C861 1.368 . S
C880 C874 1.368 . S
C880 C879 1.523 . S
C881 C865 1.429 . S
C881 C877 1.429 . S
C881 C882 1.523 . S
C882 C866 1.368 . S
C882 C878 1.368 . S
C882 C881 1.523 . S
H883 C858 0.950 . S
H884 C860 0.950 . S
H885 C861 0.949 . S
H886 C863 0.950 . S
H887 C865 0.950 . S
C169 C11 1.221 . S
C174 C82 1.244 . S
C199 C26 1.241 . S
C204 C60 1.233 . S
C229 C81 1.127 . S
C234 C39 1.130 . S
C259 C54 1.353 . S
C264 C61 1.195 . S
C289 C109 1.260 . S
C294 C40 1.286 . S
C319 C88 1.133 . S
C324 C53 1.119 . S
C349 C12 1.326 . S
C354 C110 1.326 . S
C379 C89 1.100 . S
C384 C25 1.218 . S
C409 C131 1.147 . S
C414 C117 1.151 . S
C439 C116 1.130 . S
C444 C158 1.130 . S
C469 C130 1.086 . S
C474 C144 1.086 . S
C499 C145 1.185 . S
C504 C159 1.187 . S
C529 C165 1.220 . S
C534 C96 1.244 . S
C559 C124 1.241 . S
C564 C102 1.233 . S
C589 C95 1.127 . S
C594 C137 1.130 . S
C619 C103 1.195 . S
C624 C152 1.353 . S
C649 C67 1.260 . S
C654 C138 1.286 . S
C679 C74 1.133 . S
C684 C151 1.119 . S
C709 C166 1.326 . S
C714 C68 1.326 . S
C739 C123 1.218 . S
C744 C75 1.100 . S
C769 C19 1.151 . S
C774 C33 1.147 . S
C799 C4 1.130 . S
C804 C18 1.130 . S
C829 C32 1.085 . S
C834 C46 1.086 . S
C859 C5 1.187 . S
C864 C47 1.185 . S
