# Generated by pormake.
# Topology svb, (7)-cn, num edge types: 1
# Building blocks:
#     Node 0, Type 0, BuildingBlock: NUHQUE_clean_sbu_2, # of connection points: 7
#     Node 1, Type 0, BuildingBlock: NUHQUE_clean_sbu_2, # of connection points: 7
#     Node 2, Type 0, BuildingBlock: NUHQUE_clean_sbu_2, # of connection points: 7
#     Node 3, Type 0, BuildingBlock: NUHQUE_clean_sbu_2, # of connection points: 7
#     Node 4, Type 0, BuildingBlock: NUHQUE_clean_sbu_2, # of connection points: 7
#     Node 5, Type 0, BuildingBlock: NUHQUE_clean_sbu_2, # of connection points: 7
#     Node 6, Type 0, BuildingBlock: NUHQUE_clean_sbu_2, # of connection points: 7
#     Node 7, Type 0, BuildingBlock: NUHQUE_clean_sbu_2, # of connection points: 7
#     Node 8, Type 0, BuildingBlock: NUHQUE_clean_sbu_2, # of connection points: 7
#     Node 9, Type 0, BuildingBlock: NUHQUE_clean_sbu_2, # of connection points: 7
#     Node 10, Type 0, BuildingBlock: NUHQUE_clean_sbu_2, # of connection points: 7
#     Node 11, Type 0, BuildingBlock: NUHQUE_clean_sbu_2, # of connection points: 7
#     Node 12, Type 0, BuildingBlock: NUHQUE_clean_sbu_2, # of connection points: 7
#     Node 13, Type 0, BuildingBlock: NUHQUE_clean_sbu_2, # of connection points: 7
#     Node 14, Type 0, BuildingBlock: NUHQUE_clean_sbu_2, # of connection points: 7
#     Node 15, Type 0, BuildingBlock: NUHQUE_clean_sbu_2, # of connection points: 7
#     Edge 16, Type (0, 0), None
#     Edge 17, Type (0, 0), None
#     Edge 18, Type (0, 0), None
#     Edge 19, Type (0, 0), None
#     Edge 20, Type (0, 0), None
#     Edge 21, Type (0, 0), None
#     Edge 22, Type (0, 0), None
#     Edge 23, Type (0, 0), None
#     Edge 24, Type (0, 0), None
#     Edge 25, Type (0, 0), None
#     Edge 26, Type (0, 0), None
#     Edge 27, Type (0, 0), None
#     Edge 28, Type (0, 0), None
#     Edge 29, Type (0, 0), None
#     Edge 30, Type (0, 0), None
#     Edge 31, Type (0, 0), None
#     Edge 32, Type (0, 0), None
#     Edge 33, Type (0, 0), None
#     Edge 34, Type (0, 0), None
#     Edge 35, Type (0, 0), None
#     Edge 36, Type (0, 0), None
#     Edge 37, Type (0, 0), None
#     Edge 38, Type (0, 0), None
#     Edge 39, Type (0, 0), None
#     Edge 40, Type (0, 0), None
#     Edge 41, Type (0, 0), None
#     Edge 42, Type (0, 0), None
#     Edge 43, Type (0, 0), None
#     Edge 44, Type (0, 0), None
#     Edge 45, Type (0, 0), None
#     Edge 46, Type (0, 0), None
#     Edge 47, Type (0, 0), None
#     Edge 48, Type (0, 0), None
#     Edge 49, Type (0, 0), None
#     Edge 50, Type (0, 0), None
#     Edge 51, Type (0, 0), None
#     Edge 52, Type (0, 0), None
#     Edge 53, Type (0, 0), None
#     Edge 54, Type (0, 0), None
#     Edge 55, Type (0, 0), None
#     Edge 56, Type (0, 0), None
#     Edge 57, Type (0, 0), None
#     Edge 58, Type (0, 0), None
#     Edge 59, Type (0, 0), None
#     Edge 60, Type (0, 0), None
#     Edge 61, Type (0, 0), None
#     Edge 62, Type (0, 0), None
#     Edge 63, Type (0, 0), None
#     Edge 64, Type (0, 0), None
#     Edge 65, Type (0, 0), None
#     Edge 66, Type (0, 0), None
#     Edge 67, Type (0, 0), None
#     Edge 68, Type (0, 0), None
#     Edge 69, Type (0, 0), None
#     Edge 70, Type (0, 0), None
#     Edge 71, Type (0, 0), None
# Relax obj value: 0.451
# Max RMSD: 0.323
# Mean RMSD: 0.308
data_MOF--net-svb--node1-NUHQUE_clean_sbu_2--edge1-none
_symmetry_space_group_name_H-M    P1
_symmetry_Int_Tables_number       1
_symmetry_cell_setting            triclinic
loop_
_symmetry_equiv_pos_as_xyz
'x, y, z'
_cell_length_a     33.77245
_cell_length_b     33.225118
_cell_length_c     12.429699
_cell_angle_alpha  96.217109
_cell_angle_beta   93.599898
_cell_angle_gamma 89.415431
loop_
_atom_site_label
_atom_site_type_symbol
_atom_site_fract_x
_atom_site_fract_y
_atom_site_fract_z
_atom_type_partial_charge
O0 O 1.00701 0.38406 0.33071 0.0
Tb1 Tb 0.05538 0.36653 0.22876 0.0
Eu2 Eu 0.13814 0.36111 0.06975 0.0
C3 C 1.01375 0.3862 0.43581 0.0
O4 O 0.05029 0.38199 0.47594 0.0
C5 C 0.13178 0.32661 0.29593 0.0
O6 O 0.15017 0.31902 0.91813 0.0
C7 C 0.18722 0.42049 0.11858 0.0
C8 C 0.13142 0.28411 0.9086 0.0
O9 O 0.11009 0.27617 0.98805 0.0
C10 C 0.04717 0.3914 0.99429 0.0
C11 C 0.21636 0.45409 0.14343 0.0
C12 C 0.21247 0.48469 0.23067 0.0
C13 C 0.24093 0.51585 0.25308 0.0
C14 C 0.27351 0.51586 0.18712 0.0
C15 C 0.27793 0.48519 0.10116 0.0
C16 C 0.24922 0.45484 0.07971 0.0
O17 O 0.11156 0.36017 0.32149 0.0
O18 O 0.13997 0.31696 0.19465 0.0
O19 O 0.02842 0.3088 0.24432 0.0
O20 O 0.05903 0.31656 0.10431 0.0
C21 C 0.03956 0.29134 0.15277 0.0
O22 O 0.0817 0.37452 0.97271 0.0
O23 O 0.03653 0.40133 0.0944 0.0
O24 O 0.19604 0.38717 1.05687 0.0
O25 O 0.151 0.4219 0.15317 0.0
H26 H 0.18819 0.48352 0.28323 0.0
H27 H 0.2957 0.53945 0.20359 0.0
H28 H 0.25225 0.43206 1.01129 0.0
O29 O 0.9253 0.76873 0.634 0.0
Tb30 Tb 0.95096 0.81476 0.54931 0.0
Eu31 Eu 0.97121 0.895 0.41226 0.0
C32 C 0.92024 0.77619 0.73757 0.0
O33 O 0.92715 0.81284 0.78569 0.0
C34 C 0.99807 0.88633 0.65691 0.0
O35 O 1.01388 0.90838 0.2819 0.0
C36 C 0.90696 0.93698 0.44387 0.0
C37 C 0.03928 0.87981 0.24587 0.0
O38 O 0.03815 0.84431 0.28262 0.0
C39 C 0.93147 0.80958 0.30573 0.0
C40 C 0.87019 0.96244 0.44748 0.0
C41 C 0.84032 0.95987 0.52211 0.0
C42 C 0.80678 0.9863 0.52222 0.0
C43 C 0.80384 1.01511 0.44609 0.0
C44 C 0.83362 1.01747 0.37231 0.0
C45 C 0.86556 0.99057 0.37259 0.0
O46 O 0.96252 0.87003 0.65565 0.0
O47 O 1.01156 0.8947 0.56492 0.0
O48 O 1.00048 0.77465 0.57703 0.0
O49 O 1.00286 0.81491 0.45647 0.0
C50 C 1.02138 0.78667 0.50267 0.0
O51 O 0.95686 0.83889 0.30074 0.0
O52 O 0.91557 0.8034 0.3967 0.0
O53 O 0.93884 0.95074 0.40335 0.0
O54 O 0.90963 0.8993 0.46736 0.0
H55 H 0.84337 0.93796 0.58059 0.0
H56 H 0.77871 0.03565 0.44464 0.0
H57 H 0.88742 0.99167 0.31258 0.0
O58 O 0.42173 0.78042 0.46869 0.0
Tb59 Tb 0.4447 0.73272 0.56023 0.0
Eu60 Eu 0.45986 0.65959 0.74006 0.0
C61 C 0.40963 0.77616 0.36599 0.0
O62 O 0.40796 0.74 0.31169 0.0
C63 C 0.49212 0.65973 0.50676 0.0
O64 O 0.49831 0.64766 0.88939 0.0
C65 C 0.4039 0.60906 0.677 0.0
C66 C 0.52789 0.67324 0.90861 0.0
O67 O 0.53033 0.70147 0.84334 0.0
C68 C 0.414 0.74561 0.78816 0.0
C69 C 0.36651 0.58991 0.69464 0.0
C70 C 0.33683 0.58716 0.61105 0.0
C71 C 0.30378 0.56265 0.61584 0.0
C72 C 0.2999 0.54087 0.70445 0.0
C73 C 0.3297 0.54367 0.78794 0.0
C74 C 0.36236 0.56902 0.78454 0.0
O75 O 0.45672 0.67378 0.47933 0.0
O76 O 0.50298 0.65887 0.6099 0.0
O77 O 0.49929 0.76582 0.54908 0.0
O78 O 0.48998 0.73804 0.69059 0.0
C79 C 0.51425 0.75935 0.64449 0.0
O80 O 0.43825 0.71813 0.82455 0.0
O81 O 0.4031 0.74592 0.68469 0.0
O82 O 0.4359 0.59947 0.73521 0.0
O83 O 0.40274 0.64678 0.65357 0.0
H84 H 0.33966 0.60362 0.54114 0.0
H85 H 0.27465 0.52112 0.70672 0.0
H86 H 0.38593 0.56988 0.84824 0.0
O87 O 0.52425 0.1657 0.74629 0.0
Tb88 Tb 0.56988 0.19009 0.86324 0.0
Eu89 Eu 0.64598 0.20385 1.05614 0.0
C90 C 0.52895 0.16028 0.64212 0.0
O91 O 0.56441 0.16375 0.6066 0.0
C92 C 0.63933 0.24139 0.83183 0.0
O93 O 0.65815 0.2456 0.2157 0.0
C94 C 0.68924 0.14128 0.99689 0.0
C95 C 0.63339 0.27673 0.23054 0.0
O96 O 0.60565 0.28083 0.15405 0.0
C97 C 0.56186 0.162 0.08458 0.0
C98 C 0.71591 0.10551 0.97256 0.0
C99 C 0.71305 0.07793 0.87567 0.0
C100 C 0.74093 0.04543 0.85974 0.0
C101 C 0.77104 0.04142 0.94144 0.0
C102 C 0.77315 0.06811 1.03694 0.0
C103 C 0.74577 0.09934 1.05201 0.0
O104 O 0.6233 0.20651 0.79171 0.0
O105 O 0.64498 0.25018 0.93712 0.0
O106 O 0.52915 0.24063 0.85431 0.0
O107 O 0.56881 0.23867 0.9927 0.0
C108 C 0.54137 0.25932 0.94724 0.0
O109 O 0.59025 0.18639 0.12853 0.0
O110 O 0.56039 0.14845 0.98099 0.0
O111 O 0.7015 0.17171 0.06837 0.0
O112 O 0.6525 0.14465 0.95638 0.0
H113 H 0.68999 0.08199 0.81318 0.0
H114 H 0.79302 1.01753 0.93063 0.0
H115 H 0.7485 0.1196 0.1267 0.0
O116 O 0.02854 0.66452 0.24674 0.0
Tb117 Tb 0.07422 0.68885 0.36286 0.0
Eu118 Eu 0.14783 0.70164 0.55808 0.0
C119 C 0.03367 0.65656 0.14333 0.0
O120 O 0.06949 0.65761 0.10842 0.0
C121 C 0.1443 0.73871 0.33561 0.0
O122 O 0.16087 0.74212 0.71848 0.0
C123 C 0.18981 0.63915 0.49459 0.0
C124 C 0.13497 0.77196 0.73609 0.0
O125 O 0.1058 0.77464 0.6628 0.0
C126 C 0.06391 0.65902 0.58183 0.0
C127 C 0.2156 0.60318 0.47001 0.0
C128 C 0.21308 0.57682 0.37144 0.0
C129 C 0.24065 0.54426 0.35494 0.0
C130 C 0.27001 0.53884 0.43718 0.0
C131 C 0.2714 0.56437 0.53412 0.0
C132 C 0.2444 0.5957 0.55044 0.0
O133 O 0.12903 0.70345 0.29604 0.0
O134 O 0.14799 0.74821 0.44084 0.0
O135 O 0.03721 0.74214 0.34852 0.0
O136 O 0.07145 0.73623 0.49458 0.0
C137 C 0.04718 0.75916 0.4452 0.0
O138 O 0.09207 0.68326 0.62779 0.0
O139 O 0.06227 0.64673 0.4775 0.0
O140 O 0.2027 0.66887 0.56751 0.0
O141 O 0.15307 0.64309 0.45495 0.0
H142 H 0.19076 0.58201 0.30797 0.0
H143 H 0.29201 0.515 0.42548 0.0
H144 H 0.24682 0.61519 0.62656 0.0
O145 O 0.51394 0.88376 0.88754 0.0
Tb146 Tb 0.56118 0.86163 0.78701 0.0
Eu147 Eu 0.64321 0.85046 0.63138 0.0
C148 C 0.52084 0.89178 0.99219 0.0
O149 O 0.55737 0.88957 1.0342 0.0
C150 C 0.63481 0.81686 0.86509 0.0
O151 O 0.65326 0.80467 0.48398 0.0
C152 C 0.69092 0.91283 0.6548 0.0
C153 C 0.62598 0.77698 0.44986 0.0
O154 O 0.59273 0.77696 0.49806 0.0
C155 C 0.55394 0.88544 0.55332 0.0
C156 C 0.71884 0.94862 0.66685 0.0
C157 C 0.71491 0.98114 0.74956 0.0
C158 C 0.74042 1.01512 0.75995 0.0
C159 C 0.77019 1.01633 0.68497 0.0
C160 C 0.77501 0.98438 0.6017 0.0
C161 C 0.7492 0.95079 0.59386 0.0
O162 O 0.61537 0.85136 0.88523 0.0
O163 O 0.64612 0.80734 0.76554 0.0
O164 O 0.52674 0.80777 0.79612 0.0
O165 O 0.56387 0.81052 0.6659 0.0
C166 C 0.53902 0.78854 0.70805 0.0
O167 O 0.5864 0.8641 0.53292 0.0
O168 O 0.54508 0.89794 0.65354 0.0
O169 O 0.69956 0.87798 0.59976 0.0
O170 O 0.6567 0.91318 0.70079 0.0
H171 H 0.69277 0.97946 0.80831 0.0
H172 H 0.7905 0.0417 0.69353 0.0
H173 H 0.75246 0.92651 0.5294 0.0
O174 O 0.42033 0.27201 0.14326 0.0
Tb175 Tb 0.44687 0.31709 1.05489 0.0
Eu176 Eu 0.47272 0.39635 0.90736 0.0
C177 C 0.41521 0.27862 0.2474 0.0
O178 O 0.42208 0.31489 0.29807 0.0
C179 C 0.49682 0.38847 0.15503 0.0
O180 O 0.51605 0.41276 0.78052 0.0
C181 C 0.40869 0.43802 0.94273 0.0
C182 C 0.5381 0.38419 0.72892 0.0
O183 O 0.53307 0.34644 0.74682 0.0
C184 C 0.43008 0.31155 0.80957 0.0
C185 C 0.3715 0.46236 0.94507 0.0
C186 C 0.34338 0.46114 1.02478 0.0
C187 C 0.30962 0.48704 1.02457 0.0
C188 C 0.30424 0.51356 0.94469 0.0
C189 C 0.33202 0.51435 0.8667 0.0
C190 C 0.3647 0.48842 0.86572 0.0
O191 O 0.46098 0.37293 0.15645 0.0
O192 O 0.51107 0.39561 1.06269 0.0
O193 O 0.49369 0.27334 0.07693 0.0
O194 O 0.50001 0.31699 0.96688 0.0
C195 C 0.51629 0.28646 1.00794 0.0
O196 O 0.4575 0.33883 0.80317 0.0
O197 O 0.41252 0.3078 0.89997 0.0
O198 O 0.43974 0.45174 0.89847 0.0
O199 O 0.4118 0.40041 0.96602 0.0
H200 H 0.34773 0.44054 0.08634 0.0
H201 H 0.27868 0.53361 0.94352 0.0
H202 H 0.38555 0.48931 0.80299 0.0
O203 O 0.9228 0.27662 0.92405 0.0
Tb204 Tb 0.94761 0.22939 1.01475 0.0
Eu205 Eu 0.96878 0.15751 0.19904 0.0
C206 C 0.90816 0.27193 0.82347 0.0
O207 O 0.90523 0.23559 0.77049 0.0
C208 C 0.99592 0.15819 0.95464 0.0
O209 O 1.01115 0.15058 0.34761 0.0
C210 C 0.91107 0.10556 0.16154 0.0
C211 C 0.04135 0.17571 0.37316 0.0
O212 O 0.04637 0.20512 0.31297 0.0
C213 C 0.91675 0.24013 0.24054 0.0
C214 C 0.87243 0.08887 0.18695 0.0
C215 C 0.84086 0.08797 0.10801 0.0
C216 C 0.80605 0.06662 0.11909 0.0
C217 C 0.80188 0.04644 0.21097 0.0
C218 C 0.83307 0.04688 0.29092 0.0
C219 C 0.86807 0.06872 0.27917 0.0
O220 O 0.95937 0.17053 0.93586 0.0
O221 O 1.00891 0.15548 1.05636 0.0
O222 O 0.9995 0.26557 0.99945 0.0
O223 O 0.99452 0.23682 0.14201 0.0
C224 C 1.01627 0.26002 0.09335 0.0
O225 O 0.94501 0.21664 0.27816 0.0
O226 O 0.90519 0.23799 0.13727 0.0
O227 O 0.94359 0.09877 0.22128 0.0
O228 O 0.91091 0.1406 0.12133 0.0
H229 H 0.84366 0.10315 1.03586 0.0
H230 H 0.77532 0.029 0.21753 0.0
H231 H 0.89281 0.06774 0.33876 0.0
O232 O 0.03352 0.66906 0.74772 0.0
Tb233 Tb 0.98704 0.69329 0.84766 0.0
Eu234 Eu 0.91629 0.71027 1.03443 0.0
C235 C 0.02885 0.65671 0.64414 0.0
O236 O 0.99317 0.65511 0.59555 0.0
C237 C 0.9159 0.74284 0.80372 0.0
O238 O 0.90423 0.75084 0.18716 0.0
C239 C 0.8711 0.64906 0.9907 0.0
C240 C 0.93177 0.77828 0.21331 0.0
O241 O 0.96196 0.77811 0.15206 0.0
C242 C 0.99923 0.66356 0.07138 0.0
C243 C 0.84452 0.61446 0.97317 0.0
C244 C 0.84351 0.58839 0.87706 0.0
C245 C 0.8164 0.55635 0.86153 0.0
C246 C 0.79091 0.54989 0.94219 0.0
C247 C 0.79274 0.57561 1.03869 0.0
C248 C 0.81975 0.60745 1.05448 0.0
O249 O 0.93041 0.70699 0.77027 0.0
O250 O 0.91313 0.75347 0.90779 0.0
O251 O 1.02199 0.74736 0.84043 0.0
O252 O 0.99107 0.74079 0.97997 0.0
C253 C 1.01388 0.76412 0.93571 0.0
O254 O 0.97363 0.69028 0.11176 0.0
O255 O 0.9992 0.6513 0.9671 0.0
O256 O 0.86089 0.68172 1.05292 0.0
O257 O 0.90567 0.65 0.94748 0.0
H258 H 0.86357 0.5929 0.81465 0.0
H259 H 0.76926 0.52567 0.92898 0.0
H260 H 0.81981 0.62814 0.12838 0.0
O261 O 0.13083 0.29867 0.46984 0.0
Tb262 Tb 0.11077 0.25043 0.56031 0.0
Eu263 Eu 0.09209 0.16352 0.71644 0.0
C264 C 0.1308 0.29268 0.36356 0.0
O265 O 0.12528 0.25579 0.31545 0.0
C266 C 0.06849 0.17294 0.47099 0.0
O267 O 0.05073 0.14327 0.83722 0.0
C268 C 0.15098 0.11359 0.693 0.0
C269 C 1.02499 0.16937 0.87927 0.0
O270 O 1.02425 0.20615 0.84991 0.0
C271 C 0.12877 0.25529 0.80962 0.0
C272 C 0.18911 0.09399 0.72106 0.0
C273 C 0.21943 0.09646 0.65107 0.0
C274 C 0.25394 0.07348 0.66123 0.0
C275 C 0.25892 0.04753 0.74282 0.0
C276 C 0.22873 0.0445 0.8142 0.0
C277 C 0.1939 0.06812 0.80334 0.0
O278 O 0.1041 0.18972 0.47682 0.0
O279 O 0.05385 0.16311 0.56025 0.0
O280 O 0.05641 0.27385 0.49356 0.0
O281 O 0.05889 0.25681 0.65555 0.0
C282 C 0.03713 0.27087 0.57876 0.0
O283 O 0.10712 0.22282 0.81762 0.0
O284 O 0.1422 0.26492 0.71797 0.0
O285 O 0.11889 0.10502 0.74054 0.0
O286 O 0.15096 0.14999 0.66017 0.0
H287 H 0.21557 0.11521 0.58483 0.0
H288 H 0.28538 0.0289 0.74815 0.0
H289 H 0.17004 0.06513 0.85627 0.0
O290 O 0.6324 0.26853 0.66031 0.0
Tb291 Tb 0.61109 0.31617 0.56559 0.0
Eu292 Eu 0.59916 0.39944 0.41449 0.0
C293 C 0.63733 0.27537 0.76583 0.0
O294 O 0.63321 0.3124 0.81289 0.0
C295 C 0.56978 0.39259 0.65462 0.0
O296 O 0.5543 0.41031 0.27588 0.0
C297 C 0.65967 0.4479 0.4243 0.0
C298 C 0.52498 0.38448 0.24827 0.0
O299 O 0.52265 0.35218 0.29902 0.0
C300 C 0.63328 0.30753 0.32725 0.0
C301 C 0.69411 0.47629 0.42789 0.0
C302 C 0.7277 0.47225 0.49964 0.0
C303 C 0.76111 0.49737 0.49976 0.0
C304 C 0.7606 0.52706 0.42632 0.0
C305 C 0.72718 0.532 0.35407 0.0
C306 C 0.69425 0.50642 0.35579 0.0
O307 O 0.60399 0.37334 0.66509 0.0
O308 O 0.55901 0.40397 0.55843 0.0
O309 O 0.55742 0.28313 0.58361 0.0
O310 O 0.56026 0.3186 0.45278 0.0
C311 C 0.53829 0.29476 0.49863 0.0
O312 O 0.61163 0.34013 0.31229 0.0
O313 O 0.64605 0.29913 0.42501 0.0
O314 O 0.62464 0.45647 0.37954 0.0
O315 O 0.66135 0.4135 0.46859 0.0
H316 H 0.72756 0.45011 0.55753 0.0
H317 H 0.78606 0.54668 0.42632 0.0
H318 H 0.66927 0.50903 0.2978 0.0
O319 O 0.41361 0.77688 0.96666 0.0
Tb320 Tb 0.43852 0.82301 0.08629 0.0
Eu321 Eu 0.45275 0.89871 0.29509 0.0
C322 C 0.40822 0.78165 0.86374 0.0
O323 O 0.41236 0.81772 0.83199 0.0
C324 C 0.48777 0.89474 1.06335 0.0
O325 O 0.493 0.91019 0.45242 0.0
C326 C 0.39006 0.94134 0.25494 0.0
C327 C 0.5244 0.88601 0.45864 0.0
O328 O 0.52955 0.85899 0.3756 0.0
C329 C 0.41154 0.81241 0.30959 0.0
C330 C 0.35431 0.96731 0.23959 0.0
C331 C 0.32661 0.96231 0.14793 0.0
C332 C 0.29249 0.98774 0.14242 0.0
C333 C 0.28667 1.01765 0.22893 0.0
C334 C 0.31397 1.02223 0.31873 0.0
C335 C 0.34725 0.99739 0.32357 0.0
O336 O 0.4532 0.87912 1.02621 0.0
O337 O 0.49705 0.89954 0.16809 0.0
O338 O 0.48932 0.78356 1.05931 0.0
O339 O 0.48634 0.82051 0.2086 0.0
C340 C 0.50735 0.79429 0.1531 0.0
O341 O 0.43605 0.84055 0.35573 0.0
O342 O 0.3982 0.81175 0.20774 0.0
O343 O 0.41998 0.9545 0.32304 0.0
O344 O 0.3942 0.90434 0.20693 0.0
H345 H 0.33148 0.9391 0.08191 0.0
H346 H 0.26102 0.03753 0.22617 0.0
H347 H 0.36765 1.00151 0.39491 0.0
O348 O 0.90317 0.27223 0.41317 0.0
Tb349 Tb 0.92897 0.31602 0.53805 0.0
Eu350 Eu 0.94601 0.39468 0.73755 0.0
C351 C 0.90683 0.27636 0.31087 0.0
O352 O 0.91708 0.31171 0.28363 0.0
C353 C 0.98106 0.38662 0.50788 0.0
O354 O 0.98509 0.41098 0.8929 0.0
C355 C 0.88699 0.44081 0.68737 0.0
C356 C 1.01783 0.38908 0.89968 0.0
O357 O 1.02418 0.36158 0.81831 0.0
C358 C 0.90721 0.30802 0.76549 0.0
C359 C 0.85228 0.46866 0.68093 0.0
C360 C 0.82421 0.46796 0.59017 0.0
C361 C 0.79304 0.49723 0.58898 0.0
C362 C 0.79062 0.52651 0.67854 0.0
C363 C 0.81827 0.52674 0.767 0.0
C364 C 0.84843 0.49815 0.76824 0.0
O365 O 0.94642 0.37069 0.4717 0.0
O366 O 0.99072 0.39176 0.61212 0.0
O367 O 0.97263 0.27046 0.49695 0.0
O368 O 0.98244 0.31047 0.64209 0.0
C369 C 0.99623 0.28009 0.58127 0.0
O370 O 0.93155 0.33721 0.80583 0.0
O371 O 0.89138 0.30641 0.66604 0.0
O372 O 0.91803 0.45283 0.75248 0.0
O373 O 0.8868 0.40197 0.65183 0.0
H374 H 0.82668 0.44525 0.52154 0.0
H375 H 0.76697 0.54887 0.68003 0.0
H376 H 0.86914 0.49913 0.83893 0.0
O377 O 0.53055 0.17465 0.24971 0.0
Tb378 Tb 0.4832 0.19792 0.34877 0.0
Eu379 Eu 0.40793 0.21105 0.54429 0.0
C380 C 0.52642 0.16113 0.14666 0.0
O381 O 0.49091 0.15836 0.09719 0.0
C382 C 0.40938 0.24438 0.3108 0.0
O383 O 0.39962 0.25341 0.69623 0.0
C384 C 0.36022 0.15098 0.52184 0.0
C385 C 0.42825 0.27984 0.71822 0.0
O386 O 0.45755 0.2781 0.65377 0.0
C387 C 0.49378 0.16643 0.57148 0.0
C388 C 0.33293 0.11657 0.50883 0.0
C389 C 0.33405 0.08775 0.41829 0.0
C390 C 0.30938 0.05381 0.4084 0.0
C391 C 0.28434 0.04786 0.49063 0.0
C392 C 0.28354 0.07644 0.58184 0.0
C393 C 0.30731 0.11099 0.59009 0.0
O394 O 0.4249 0.209 0.2777 0.0
O395 O 0.40373 0.25375 0.41436 0.0
O396 O 0.51507 0.25383 0.33913 0.0
O397 O 0.48917 0.24397 0.4844 0.0
C398 C 0.50953 0.26889 0.43778 0.0
O399 O 0.46719 0.19169 0.61397 0.0
O400 O 0.49411 0.15511 0.4667 0.0
O401 O 0.35221 0.18501 0.58137 0.0
O402 O 0.39332 0.1503 0.4709 0.0
H403 H 0.35444 0.09131 0.35594 0.0
H404 H 0.26557 1.02128 0.4836 0.0
H405 H 0.30598 0.13329 0.66029 0.0
O406 O 0.51616 0.67079 0.33461 0.0
Tb407 Tb 0.56115 0.69653 0.24591 0.0
Eu408 Eu 0.63897 0.71832 0.10864 0.0
C409 C 0.52426 0.66378 0.43509 0.0
O410 O 0.56074 0.66876 0.47713 0.0
C411 C 0.62966 0.7477 0.35349 0.0
O412 O 0.65557 0.76277 0.98521 0.0
C413 C 0.67919 0.65447 0.15338 0.0
C414 C 0.62724 0.78339 0.93402 0.0
O415 O 0.59006 0.77585 0.9491 0.0
C416 C 0.55737 0.67439 1.00101 0.0
C417 C 0.70396 0.61776 0.1703 0.0
C418 C 0.70098 0.59258 0.2556 0.0
C419 C 0.72866 0.56017 0.26778 0.0
C420 C 0.7585 0.55361 0.19402 0.0
C421 C 0.76001 0.57759 0.10907 0.0
C422 C 0.73279 0.60857 0.09673 0.0
O423 O 0.61351 0.71159 0.35305 0.0
O424 O 0.63629 0.76136 0.26105 0.0
O425 O 0.52006 0.74593 0.27661 0.0
O426 O 0.56176 0.74867 0.1562 0.0
C427 C 0.53299 0.76711 0.20454 0.0
O428 O 0.5865 0.69982 0.99552 0.0
O429 O 0.55028 0.65932 0.09176 0.0
O430 O 0.69352 0.68392 0.10352 0.0
O431 O 0.64195 0.65918 0.17752 0.0
H432 H 0.67824 0.59859 0.31292 0.0
H433 H 0.78051 0.52997 0.20256 0.0
H434 H 0.73533 0.62683 1.03008 0.0
O435 O 0.13614 0.76502 0.16361 0.0
Tb436 Tb 0.11379 0.81232 0.06963 0.0
Eu437 Eu 0.09769 0.89124 0.92673 0.0
C438 C 0.14169 0.77231 0.2688 0.0
O439 O 0.13715 0.80938 0.31509 0.0
C440 C 0.06888 0.88526 0.16413 0.0
O441 O 0.05489 0.90613 0.78586 0.0
C442 C 0.15905 0.93794 0.9793 0.0
C443 C 0.02692 0.87966 0.74785 0.0
O444 O 1.02567 0.84493 0.78842 0.0
C445 C 0.13517 0.80297 0.83171 0.0
C446 C 0.19694 0.95978 0.96895 0.0
C447 C 0.22887 0.95879 1.04819 0.0
C448 C 0.26228 0.98423 1.04845 0.0
C449 C 0.26284 1.01175 0.96971 0.0
C450 C 0.23092 1.01343 0.89154 0.0
C451 C 0.19891 0.98673 0.8903 0.0
O452 O 0.10383 0.86745 0.17559 0.0
O453 O 0.05619 0.89288 0.06591 0.0
O454 O 0.06128 0.77696 0.08271 0.0
O455 O 0.06277 0.81546 0.95764 0.0
C456 C 0.04176 0.78979 0.99984 0.0
O457 O 0.11231 0.83468 0.81741 0.0
O458 O 0.14879 0.79533 0.92931 0.0
O459 O 0.12616 0.94951 0.92799 0.0
O460 O 0.15884 0.89974 0.99891 0.0
H461 H 0.22686 0.93969 0.11295 0.0
H462 H 0.28705 0.03312 0.97265 0.0
H463 H 0.17449 0.98824 0.8299 0.0
loop_
_geom_bond_atom_site_label_1
_geom_bond_atom_site_label_2
_geom_bond_distance
_geom_bond_site_symmetry_2
_ccdc_geom_bond_type
O0 Tb1 2.292 . S
O0 C3 1.254 . S
Tb1 O0 2.292 . S
Tb1 O17 2.326 . S
Tb1 O19 2.500 1_455 S
Tb1 O20 2.473 1_455 S
Tb1 O23 2.324 1_554 S
Eu2 O6 2.292 1_554 S
Eu2 C7 2.852 . S
Eu2 O18 2.324 . S
Eu2 O22 2.326 1_554 S
Eu2 O24 2.500 1_554 S
Eu2 O25 2.473 . S
C3 O0 1.254 . S
C3 O4 1.247 . S
O4 C3 1.247 . S
C5 O17 1.242 . S
C5 O18 1.258 . S
O6 Eu2 2.292 1_556 S
O6 C8 1.255 . S
C7 Eu2 2.852 . S
C7 C11 1.503 . S
C7 O24 1.273 1_554 S
C7 O25 1.257 . S
C8 O6 1.255 . S
C8 O9 1.247 . S
O9 C8 1.247 . S
C10 O22 1.242 . S
C10 O23 1.258 . S
C11 C7 1.503 . S
C11 C12 1.379 . S
C11 C16 1.392 1_554 S
C12 C11 1.379 . S
C12 C13 1.404 . S
C12 H26 0.929 . S
C13 C12 1.404 . S
C13 C14 1.389 . S
C14 C13 1.389 . S
C14 C15 1.399 . S
C14 H27 0.931 . S
C15 C14 1.399 . S
C15 C16 1.390 1_554 S
C16 C11 1.392 1_556 S
C16 C15 1.390 1_556 S
C16 H28 0.929 . S
O17 Tb1 2.326 . S
O17 C5 1.242 . S
O18 Eu2 2.324 . S
O18 C5 1.258 . S
O19 Tb1 2.500 1_655 S
O19 C21 1.273 . S
O20 Tb1 2.473 1_655 S
O20 C21 1.257 . S
C21 O19 1.273 . S
C21 O20 1.257 . S
O22 Eu2 2.326 1_556 S
O22 C10 1.242 . S
O23 Tb1 2.324 1_556 S
O23 C10 1.258 . S
O24 Eu2 2.500 1_556 S
O24 C7 1.273 1_556 S
O25 Eu2 2.473 . S
O25 C7 1.257 . S
H26 C12 0.929 . S
H27 C14 0.931 . S
H28 C16 0.929 . S
O29 Tb30 2.292 . S
O29 C32 1.255 . S
Tb30 O29 2.292 . S
Tb30 O46 2.326 . S
Tb30 O48 2.500 . S
Tb30 O49 2.473 . S
Tb30 O52 2.324 . S
Eu31 O35 2.292 . S
Eu31 C36 2.852 . S
Eu31 O47 2.324 . S
Eu31 O51 2.326 . S
Eu31 O53 2.500 . S
Eu31 O54 2.473 . S
C32 O29 1.255 . S
C32 O33 1.247 . S
O33 C32 1.247 . S
C34 O46 1.242 . S
C34 O47 1.258 . S
O35 Eu31 2.292 . S
O35 C37 1.255 1_655 S
C36 Eu31 2.852 . S
C36 C40 1.503 . S
C36 O53 1.273 . S
C36 O54 1.257 . S
C37 O35 1.255 1_455 S
C37 O38 1.247 . S
O38 C37 1.247 . S
C39 O51 1.242 . S
C39 O52 1.258 . S
C40 C36 1.503 . S
C40 C41 1.379 . S
C40 C45 1.392 . S
C41 C40 1.379 . S
C41 C42 1.404 . S
C41 H55 0.929 . S
C42 C41 1.404 . S
C42 C43 1.389 . S
C43 C42 1.389 . S
C43 C44 1.399 . S
C43 H56 0.931 . S
C44 C43 1.399 . S
C44 C45 1.390 . S
C45 C40 1.392 . S
C45 C44 1.390 . S
C45 H57 0.929 . S
O46 Tb30 2.326 . S
O46 C34 1.242 . S
O47 Eu31 2.324 . S
O47 C34 1.258 . S
O48 Tb30 2.500 . S
O48 C50 1.273 . S
O49 Tb30 2.473 . S
O49 C50 1.257 . S
C50 O48 1.273 . S
C50 O49 1.257 . S
O51 Eu31 2.326 . S
O51 C39 1.242 . S
O52 Tb30 2.324 . S
O52 C39 1.258 . S
O53 Eu31 2.500 . S
O53 C36 1.273 . S
O54 Eu31 2.473 . S
O54 C36 1.257 . S
H55 C41 0.929 . S
H56 C43 0.931 . S
H57 C45 0.929 . S
O58 Tb59 2.292 . S
O58 C61 1.255 . S
Tb59 O58 2.292 . S
Tb59 O75 2.326 . S
Tb59 O77 2.500 . S
Tb59 O78 2.473 . S
Tb59 O81 2.324 . S
Eu60 O64 2.292 . S
Eu60 C65 2.852 . S
Eu60 O76 2.324 . S
Eu60 O80 2.326 . S
Eu60 O82 2.500 . S
Eu60 O83 2.473 . S
C61 O58 1.255 . S
C61 O62 1.247 . S
O62 C61 1.247 . S
C63 O75 1.242 . S
C63 O76 1.258 . S
O64 Eu60 2.292 . S
O64 C66 1.255 . S
C65 Eu60 2.852 . S
C65 C69 1.503 . S
C65 O82 1.273 . S
C65 O83 1.257 . S
C66 O64 1.255 . S
C66 O67 1.247 . S
O67 C66 1.247 . S
C68 O80 1.242 . S
C68 O81 1.258 . S
C69 C65 1.503 . S
C69 C70 1.379 . S
C69 C74 1.392 . S
C70 C69 1.379 . S
C70 C71 1.404 . S
C70 H84 0.929 . S
C71 C70 1.404 . S
C71 C72 1.389 . S
C72 C71 1.389 . S
C72 C73 1.399 . S
C72 H85 0.931 . S
C73 C72 1.399 . S
C73 C74 1.390 . S
C74 C69 1.392 . S
C74 C73 1.390 . S
C74 H86 0.929 . S
O75 Tb59 2.326 . S
O75 C63 1.242 . S
O76 Eu60 2.324 . S
O76 C63 1.258 . S
O77 Tb59 2.500 . S
O77 C79 1.273 . S
O78 Tb59 2.473 . S
O78 C79 1.257 . S
C79 O77 1.273 . S
C79 O78 1.257 . S
O80 Eu60 2.326 . S
O80 C68 1.242 . S
O81 Tb59 2.324 . S
O81 C68 1.258 . S
O82 Eu60 2.500 . S
O82 C65 1.273 . S
O83 Eu60 2.473 . S
O83 C65 1.257 . S
H84 C70 0.929 . S
H85 C72 0.931 . S
H86 C74 0.929 . S
O87 Tb88 2.292 . S
O87 C90 1.255 . S
Tb88 O87 2.292 . S
Tb88 O104 2.326 . S
Tb88 O106 2.500 . S
Tb88 O107 2.473 . S
Tb88 O110 2.329 . S
Eu89 O93 2.292 1_556 S
Eu89 C94 2.852 . S
Eu89 O105 2.324 . S
Eu89 O109 2.326 1_556 S
Eu89 O111 2.500 1_556 S
Eu89 O112 2.473 . S
C90 O87 1.255 . S
C90 O91 1.247 . S
O91 C90 1.247 . S
C92 O104 1.242 . S
C92 O105 1.258 . S
O93 Eu89 2.292 1_554 S
O93 C95 1.255 . S
C94 Eu89 2.852 . S
C94 C98 1.503 . S
C94 O111 1.273 1_556 S
C94 O112 1.257 . S
C95 O93 1.255 . S
C95 O96 1.247 . S
O96 C95 1.247 . S
C97 O109 1.242 . S
C97 O110 1.256 1_554 S
C98 C94 1.503 . S
C98 C99 1.379 . S
C98 C103 1.392 1_556 S
C99 C98 1.379 . S
C99 C100 1.404 . S
C99 H113 0.929 . S
C100 C99 1.404 . S
C100 C101 1.389 . S
C101 C100 1.389 . S
C101 C102 1.399 1_556 S
C101 H114 0.931 . S
C102 C101 1.399 1_554 S
C102 C103 1.390 . S
C103 C98 1.392 1_554 S
C103 C102 1.390 . S
C103 H115 0.929 . S
O104 Tb88 2.326 . S
O104 C92 1.242 . S
O105 Eu89 2.324 . S
O105 C92 1.258 . S
O106 Tb88 2.500 . S
O106 C108 1.273 . S
O107 Tb88 2.473 . S
O107 C108 1.257 . S
C108 O106 1.273 . S
C108 O107 1.257 . S
O109 Eu89 2.326 1_554 S
O109 C97 1.242 . S
O110 Tb88 2.329 . S
O110 C97 1.256 1_556 S
O111 Eu89 2.500 1_554 S
O111 C94 1.273 1_554 S
O112 Eu89 2.473 . S
O112 C94 1.257 . S
H113 C99 0.929 . S
H114 C101 0.931 . S
H115 C103 0.929 . S
O116 Tb117 2.292 1_655 S
O116 C119 1.255 1_655 S
Tb117 O116 2.292 1_455 S
Tb117 O133 2.326 . S
Tb117 O135 2.500 1_455 S
Tb117 O136 2.473 1_455 S
Tb117 O139 2.324 . S
Eu118 O122 2.292 . S
Eu118 C123 2.852 . S
Eu118 O134 2.324 . S
Eu118 O138 2.326 . S
Eu118 O140 2.500 . S
Eu118 O141 2.473 . S
C119 O116 1.255 1_455 S
C119 O120 1.247 . S
O120 C119 1.247 . S
C121 O133 1.242 . S
C121 O134 1.258 . S
O122 Eu118 2.292 . S
O122 C124 1.255 . S
C123 Eu118 2.852 . S
C123 C127 1.503 . S
C123 O140 1.273 . S
C123 O141 1.257 . S
C124 O122 1.255 . S
C124 O125 1.247 . S
O125 C124 1.247 . S
C126 O138 1.242 . S
C126 O139 1.258 . S
C127 C123 1.503 . S
C127 C128 1.379 . S
C127 C132 1.392 . S
C128 C127 1.379 . S
C128 C129 1.404 . S
C128 H142 0.929 . S
C129 C128 1.404 . S
C129 C130 1.389 . S
C130 C129 1.389 . S
C130 C131 1.399 . S
C130 H143 0.931 . S
C131 C130 1.399 . S
C131 C132 1.390 . S
C132 C127 1.392 . S
C132 C131 1.390 . S
C132 H144 0.929 . S
O133 Tb117 2.326 . S
O133 C121 1.242 . S
O134 Eu118 2.324 . S
O134 C121 1.258 . S
O135 Tb117 2.500 1_655 S
O135 C137 1.273 . S
O136 Tb117 2.473 1_655 S
O136 C137 1.257 . S
C137 O135 1.273 . S
C137 O136 1.257 . S
O138 Eu118 2.326 . S
O138 C126 1.242 . S
O139 Tb117 2.324 . S
O139 C126 1.258 . S
O140 Eu118 2.500 . S
O140 C123 1.273 . S
O141 Eu118 2.473 . S
O141 C123 1.257 . S
H142 C128 0.929 . S
H143 C130 0.931 . S
H144 C132 0.929 . S
O145 Tb146 2.292 . S
O145 C148 1.255 . S
Tb146 O145 2.292 . S
Tb146 O162 2.326 . S
Tb146 O164 2.500 . S
Tb146 O165 2.473 . S
Tb146 O168 2.324 . S
Eu147 O151 2.292 . S
Eu147 C152 2.852 . S
Eu147 O163 2.324 . S
Eu147 O167 2.326 . S
Eu147 O169 2.500 . S
Eu147 O170 2.473 . S
C148 O145 1.255 . S
C148 O149 1.247 . S
O149 C148 1.247 . S
C150 O162 1.242 . S
C150 O163 1.258 . S
O151 Eu147 2.292 . S
O151 C153 1.255 . S
C152 Eu147 2.852 . S
C152 C156 1.503 . S
C152 O169 1.273 . S
C152 O170 1.257 . S
C153 O151 1.255 . S
C153 O154 1.247 . S
O154 C153 1.247 . S
C155 O167 1.242 . S
C155 O168 1.258 . S
C156 C152 1.503 . S
C156 C157 1.379 . S
C156 C161 1.392 . S
C157 C156 1.379 . S
C157 C158 1.404 . S
C157 H171 0.929 . S
C158 C157 1.404 . S
C158 C159 1.389 . S
C159 C158 1.389 . S
C159 C160 1.399 . S
C159 H172 0.931 1_565 S
C160 C159 1.399 . S
C160 C161 1.390 . S
C161 C156 1.392 . S
C161 C160 1.390 . S
C161 H173 0.929 . S
O162 Tb146 2.326 . S
O162 C150 1.242 . S
O163 Eu147 2.324 . S
O163 C150 1.258 . S
O164 Tb146 2.500 . S
O164 C166 1.273 . S
O165 Tb146 2.473 . S
O165 C166 1.257 . S
C166 O164 1.273 . S
C166 O165 1.257 . S
O167 Eu147 2.326 . S
O167 C155 1.242 . S
O168 Tb146 2.324 . S
O168 C155 1.258 . S
O169 Eu147 2.500 . S
O169 C152 1.273 . S
O170 Eu147 2.473 . S
O170 C152 1.257 . S
H171 C157 0.929 . S
H172 C159 0.931 1_545 S
H173 C161 0.929 . S
O174 Tb175 2.292 1_554 S
O174 C177 1.255 . S
Tb175 O174 2.292 1_556 S
Tb175 O191 2.326 1_556 S
Tb175 O193 2.500 1_556 S
Tb175 O194 2.473 . S
Tb175 O197 2.324 . S
Eu176 O180 2.292 . S
Eu176 C181 2.852 . S
Eu176 O192 2.324 1_556 S
Eu176 O196 2.326 . S
Eu176 O198 2.500 . S
Eu176 O199 2.473 . S
C177 O174 1.255 . S
C177 O178 1.247 . S
O178 C177 1.247 . S
C179 O191 1.242 . S
C179 O192 1.258 . S
O180 Eu176 2.292 . S
O180 C182 1.255 . S
C181 Eu176 2.852 . S
C181 C185 1.503 . S
C181 O198 1.273 . S
C181 O199 1.257 . S
C182 O180 1.255 . S
C182 O183 1.247 . S
O183 C182 1.247 . S
C184 O196 1.242 . S
C184 O197 1.258 . S
C185 C181 1.503 . S
C185 C186 1.379 . S
C185 C190 1.392 . S
C186 C185 1.379 . S
C186 C187 1.404 . S
C186 H200 0.929 . S
C187 C186 1.404 . S
C187 C188 1.389 . S
C188 C187 1.389 . S
C188 C189 1.399 . S
C188 H201 0.931 . S
C189 C188 1.399 . S
C189 C190 1.390 . S
C190 C185 1.392 . S
C190 C189 1.390 . S
C190 H202 0.929 . S
O191 Tb175 2.326 1_554 S
O191 C179 1.242 . S
O192 Eu176 2.324 1_554 S
O192 C179 1.258 . S
O193 Tb175 2.500 1_554 S
O193 C195 1.273 1_554 S
O194 Tb175 2.473 . S
O194 C195 1.257 . S
C195 O193 1.273 1_556 S
C195 O194 1.257 . S
O196 Eu176 2.326 . S
O196 C184 1.242 . S
O197 Tb175 2.324 . S
O197 C184 1.258 . S
O198 Eu176 2.500 . S
O198 C181 1.273 . S
O199 Eu176 2.473 . S
O199 C181 1.257 . S
H200 C186 0.929 . S
H201 C188 0.931 . S
H202 C190 0.929 . S
O203 Tb204 2.292 1_556 S
O203 C206 1.255 . S
Tb204 O203 2.292 1_554 S
Tb204 O220 2.326 1_554 S
Tb204 O222 2.500 1_554 S
Tb204 O223 2.473 . S
Tb204 O226 2.324 . S
Eu205 O209 2.292 . S
Eu205 C210 2.852 . S
Eu205 O221 2.324 1_554 S
Eu205 O225 2.326 . S
Eu205 O227 2.500 . S
Eu205 O228 2.473 . S
C206 O203 1.255 . S
C206 O207 1.247 . S
O207 C206 1.247 . S
C208 O220 1.242 . S
C208 O221 1.258 . S
O209 Eu205 2.292 . S
O209 C211 1.255 1_655 S
C210 Eu205 2.852 . S
C210 C214 1.503 . S
C210 O227 1.273 . S
C210 O228 1.257 . S
C211 O209 1.255 1_455 S
C211 O212 1.247 . S
O212 C211 1.247 . S
C213 O225 1.242 . S
C213 O226 1.258 . S
C214 C210 1.503 . S
C214 C215 1.379 . S
C214 C219 1.392 . S
C215 C214 1.379 . S
C215 C216 1.404 . S
C215 H229 0.929 1_554 S
C216 C215 1.404 . S
C216 C217 1.389 . S
C217 C216 1.389 . S
C217 C218 1.399 . S
C217 H230 0.931 . S
C218 C217 1.399 . S
C218 C219 1.390 . S
C219 C214 1.392 . S
C219 C218 1.390 . S
C219 H231 0.929 . S
O220 Tb204 2.326 1_556 S
O220 C208 1.242 . S
O221 Eu205 2.324 1_556 S
O221 C208 1.258 . S
O222 Tb204 2.500 1_556 S
O222 C224 1.273 1_556 S
O223 Tb204 2.473 . S
O223 C224 1.257 . S
C224 O222 1.273 1_554 S
C224 O223 1.257 . S
O225 Eu205 2.326 . S
O225 C213 1.242 . S
O226 Tb204 2.324 . S
O226 C213 1.258 . S
O227 Eu205 2.500 . S
O227 C210 1.273 . S
O228 Eu205 2.473 . S
O228 C210 1.257 . S
H229 C215 0.929 1_556 S
H230 C217 0.931 . S
H231 C219 0.929 . S
O232 Tb233 2.292 . S
O232 C235 1.255 1_455 S
Tb233 O232 2.292 . S
Tb233 O249 2.326 1_455 S
Tb233 O251 2.500 . S
Tb233 O252 2.473 . S
Tb233 O255 2.324 1_456 S
Eu234 O238 2.292 1_556 S
Eu234 C239 2.852 . S
Eu234 O250 2.324 . S
Eu234 O254 2.326 1_556 S
Eu234 O256 2.500 . S
Eu234 O257 2.473 . S
C235 O232 1.255 1_655 S
C235 O236 1.247 . S
O236 C235 1.247 . S
C237 O249 1.242 . S
C237 O250 1.258 . S
O238 Eu234 2.292 1_554 S
O238 C240 1.255 . S
C239 Eu234 2.852 . S
C239 C243 1.503 . S
C239 O256 1.273 . S
C239 O257 1.257 . S
C240 O238 1.255 . S
C240 O241 1.247 . S
O241 C240 1.247 . S
C242 O254 1.243 . S
C242 O255 1.258 . S
C243 C239 1.503 . S
C243 C244 1.379 . S
C243 C248 1.392 . S
C244 C243 1.379 . S
C244 C245 1.404 . S
C244 H258 0.929 . S
C245 C244 1.404 . S
C245 C246 1.389 . S
C246 C245 1.389 . S
C246 C247 1.399 . S
C246 H259 0.931 . S
C247 C246 1.399 . S
C247 C248 1.390 . S
C248 C243 1.392 . S
C248 C247 1.390 . S
C248 H260 0.929 1_556 S
O249 Tb233 2.326 1_655 S
O249 C237 1.242 . S
O250 Eu234 2.324 . S
O250 C237 1.258 . S
O251 Tb233 2.500 . S
O251 C253 1.273 . S
O252 Tb233 2.473 . S
O252 C253 1.257 . S
C253 O251 1.273 . S
C253 O252 1.257 . S
O254 Eu234 2.326 1_554 S
O254 C242 1.243 . S
O255 Tb233 2.324 1_654 S
O255 C242 1.258 . S
O256 Eu234 2.500 . S
O256 C239 1.273 . S
O257 Eu234 2.473 . S
O257 C239 1.257 . S
H258 C244 0.929 . S
H259 C246 0.931 . S
H260 C248 0.929 1_554 S
O261 Tb262 2.292 . S
O261 C264 1.255 . S
Tb262 O261 2.292 . S
Tb262 O278 2.326 . S
Tb262 O280 2.500 . S
Tb262 O281 2.473 . S
Tb262 O284 2.324 . S
Eu263 O267 2.292 . S
Eu263 C268 2.852 . S
Eu263 O279 2.324 . S
Eu263 O283 2.326 . S
Eu263 O285 2.500 . S
Eu263 O286 2.473 . S
C264 O261 1.255 . S
C264 O265 1.247 . S
O265 C264 1.247 . S
C266 O278 1.242 . S
C266 O279 1.258 . S
O267 Eu263 2.292 . S
O267 C269 1.255 1_455 S
C268 Eu263 2.852 . S
C268 C272 1.503 . S
C268 O285 1.273 . S
C268 O286 1.257 . S
C269 O267 1.255 1_655 S
C269 O270 1.247 . S
O270 C269 1.247 . S
C271 O283 1.242 . S
C271 O284 1.258 . S
C272 C268 1.503 . S
C272 C273 1.379 . S
C272 C277 1.392 . S
C273 C272 1.379 . S
C273 C274 1.404 . S
C273 H287 0.929 . S
C274 C273 1.404 . S
C274 C275 1.389 . S
C275 C274 1.389 . S
C275 C276 1.399 . S
C275 H288 0.931 . S
C276 C275 1.399 . S
C276 C277 1.390 . S
C277 C272 1.392 . S
C277 C276 1.390 . S
C277 H289 0.929 . S
O278 Tb262 2.326 . S
O278 C266 1.242 . S
O279 Eu263 2.324 . S
O279 C266 1.258 . S
O280 Tb262 2.500 . S
O280 C282 1.273 . S
O281 Tb262 2.473 . S
O281 C282 1.257 . S
C282 O280 1.273 . S
C282 O281 1.257 . S
O283 Eu263 2.326 . S
O283 C271 1.242 . S
O284 Tb262 2.324 . S
O284 C271 1.258 . S
O285 Eu263 2.500 . S
O285 C268 1.273 . S
O286 Eu263 2.473 . S
O286 C268 1.257 . S
H287 C273 0.929 . S
H288 C275 0.931 . S
H289 C277 0.929 . S
O290 Tb291 2.292 . S
O290 C293 1.255 . S
Tb291 O290 2.292 . S
Tb291 O307 2.326 . S
Tb291 O309 2.500 . S
Tb291 O310 2.473 . S
Tb291 O313 2.324 . S
Eu292 O296 2.292 . S
Eu292 C297 2.852 . S
Eu292 O308 2.324 . S
Eu292 O312 2.326 . S
Eu292 O314 2.500 . S
Eu292 O315 2.473 . S
C293 O290 1.255 . S
C293 O294 1.247 . S
O294 C293 1.247 . S
C295 O307 1.242 . S
C295 O308 1.258 . S
O296 Eu292 2.292 . S
O296 C298 1.255 . S
C297 Eu292 2.852 . S
C297 C301 1.503 . S
C297 O314 1.273 . S
C297 O315 1.257 . S
C298 O296 1.255 . S
C298 O299 1.247 . S
O299 C298 1.247 . S
C300 O312 1.242 . S
C300 O313 1.258 . S
C301 C297 1.503 . S
C301 C302 1.379 . S
C301 C306 1.392 . S
C302 C301 1.379 . S
C302 C303 1.404 . S
C302 H316 0.929 . S
C303 C302 1.404 . S
C303 C304 1.389 . S
C304 C303 1.389 . S
C304 C305 1.399 . S
C304 H317 0.931 . S
C305 C304 1.399 . S
C305 C306 1.390 . S
C306 C301 1.392 . S
C306 C305 1.390 . S
C306 H318 0.929 . S
O307 Tb291 2.326 . S
O307 C295 1.242 . S
O308 Eu292 2.324 . S
O308 C295 1.258 . S
O309 Tb291 2.500 . S
O309 C311 1.273 . S
O310 Tb291 2.473 . S
O310 C311 1.257 . S
C311 O309 1.273 . S
C311 O310 1.257 . S
O312 Eu292 2.326 . S
O312 C300 1.242 . S
O313 Tb291 2.324 . S
O313 C300 1.258 . S
O314 Eu292 2.500 . S
O314 C297 1.273 . S
O315 Eu292 2.473 . S
O315 C297 1.257 . S
H316 C302 0.929 . S
H317 C304 0.931 . S
H318 C306 0.929 . S
O319 Tb320 2.292 1_556 S
O319 C322 1.255 . S
Tb320 O319 2.292 1_554 S
Tb320 O336 2.326 . S
Tb320 O338 2.500 1_554 S
Tb320 O339 2.473 . S
Tb320 O342 2.324 . S
Eu321 O325 2.292 . S
Eu321 C326 2.852 . S
Eu321 O337 2.324 . S
Eu321 O341 2.326 . S
Eu321 O343 2.500 . S
Eu321 O344 2.473 . S
C322 O319 1.255 . S
C322 O323 1.247 . S
O323 C322 1.247 . S
C324 O336 1.242 1_556 S
C324 O337 1.258 1_556 S
O325 Eu321 2.292 . S
O325 C327 1.255 . S
C326 Eu321 2.852 . S
C326 C330 1.503 . S
C326 O343 1.273 . S
C326 O344 1.257 . S
C327 O325 1.255 . S
C327 O328 1.247 . S
O328 C327 1.247 . S
C329 O341 1.242 . S
C329 O342 1.258 . S
C330 C326 1.503 . S
C330 C331 1.379 . S
C330 C335 1.392 . S
C331 C330 1.379 . S
C331 C332 1.404 . S
C331 H345 0.929 . S
C332 C331 1.404 . S
C332 C333 1.389 . S
C333 C332 1.389 . S
C333 C334 1.399 . S
C333 H346 0.931 . S
C334 C333 1.399 . S
C334 C335 1.390 . S
C335 C330 1.392 . S
C335 C334 1.390 . S
C335 H347 0.929 . S
O336 Tb320 2.326 . S
O336 C324 1.242 1_554 S
O337 Eu321 2.324 . S
O337 C324 1.258 1_554 S
O338 Tb320 2.500 1_556 S
O338 C340 1.273 1_556 S
O339 Tb320 2.473 . S
O339 C340 1.257 . S
C340 O338 1.273 1_554 S
C340 O339 1.257 . S
O341 Eu321 2.326 . S
O341 C329 1.242 . S
O342 Tb320 2.324 . S
O342 C329 1.258 . S
O343 Eu321 2.500 . S
O343 C326 1.273 . S
O344 Eu321 2.473 . S
O344 C326 1.257 . S
H345 C331 0.929 . S
H346 C333 0.931 . S
H347 C335 0.929 . S
O348 Tb349 2.292 . S
O348 C351 1.255 . S
Tb349 O348 2.292 . S
Tb349 O365 2.326 . S
Tb349 O367 2.500 . S
Tb349 O368 2.473 . S
Tb349 O371 2.324 . S
Eu350 O354 2.292 . S
Eu350 C355 2.852 . S
Eu350 O366 2.324 . S
Eu350 O370 2.326 . S
Eu350 O372 2.500 . S
Eu350 O373 2.473 . S
C351 O348 1.255 . S
C351 O352 1.247 . S
O352 C351 1.247 . S
C353 O365 1.242 . S
C353 O366 1.258 . S
O354 Eu350 2.292 . S
O354 C356 1.255 1_655 S
C355 Eu350 2.852 . S
C355 C359 1.503 . S
C355 O372 1.273 . S
C355 O373 1.257 . S
C356 O354 1.255 1_455 S
C356 O357 1.247 . S
O357 C356 1.247 . S
C358 O370 1.242 . S
C358 O371 1.258 . S
C359 C355 1.503 . S
C359 C360 1.379 . S
C359 C364 1.392 . S
C360 C359 1.379 . S
C360 C361 1.404 . S
C360 H374 0.929 . S
C361 C360 1.404 . S
C361 C362 1.389 . S
C362 C361 1.389 . S
C362 C363 1.399 . S
C362 H375 0.931 . S
C363 C362 1.399 . S
C363 C364 1.390 . S
C364 C359 1.392 . S
C364 C363 1.390 . S
C364 H376 0.929 . S
O365 Tb349 2.326 . S
O365 C353 1.242 . S
O366 Eu350 2.324 . S
O366 C353 1.258 . S
O367 Tb349 2.500 . S
O367 C369 1.273 . S
O368 Tb349 2.473 . S
O368 C369 1.257 . S
C369 O367 1.273 . S
C369 O368 1.257 . S
O370 Eu350 2.326 . S
O370 C358 1.242 . S
O371 Tb349 2.324 . S
O371 C358 1.258 . S
O372 Eu350 2.500 . S
O372 C355 1.273 . S
O373 Eu350 2.473 . S
O373 C355 1.257 . S
H374 C360 0.929 . S
H375 C362 0.931 . S
H376 C364 0.929 . S
O377 Tb378 2.292 . S
O377 C380 1.255 . S
Tb378 O377 2.292 . S
Tb378 O394 2.326 . S
Tb378 O396 2.500 . S
Tb378 O397 2.473 . S
Tb378 O400 2.324 . S
Eu379 O383 2.292 . S
Eu379 C384 2.852 . S
Eu379 O395 2.324 . S
Eu379 O399 2.326 . S
Eu379 O401 2.500 . S
Eu379 O402 2.473 . S
C380 O377 1.255 . S
C380 O381 1.247 . S
O381 C380 1.247 . S
C382 O394 1.242 . S
C382 O395 1.258 . S
O383 Eu379 2.292 . S
O383 C385 1.255 . S
C384 Eu379 2.852 . S
C384 C388 1.503 . S
C384 O401 1.273 . S
C384 O402 1.257 . S
C385 O383 1.255 . S
C385 O386 1.247 . S
O386 C385 1.247 . S
C387 O399 1.242 . S
C387 O400 1.258 . S
C388 C384 1.503 . S
C388 C389 1.379 . S
C388 C393 1.392 . S
C389 C388 1.379 . S
C389 C390 1.404 . S
C389 H403 0.929 . S
C390 C389 1.404 . S
C390 C391 1.389 . S
C391 C390 1.389 . S
C391 C392 1.399 . S
C391 H404 0.931 . S
C392 C391 1.399 . S
C392 C393 1.390 . S
C393 C388 1.392 . S
C393 C392 1.390 . S
C393 H405 0.929 . S
O394 Tb378 2.326 . S
O394 C382 1.242 . S
O395 Eu379 2.324 . S
O395 C382 1.258 . S
O396 Tb378 2.500 . S
O396 C398 1.273 . S
O397 Tb378 2.473 . S
O397 C398 1.257 . S
C398 O396 1.273 . S
C398 O397 1.257 . S
O399 Eu379 2.326 . S
O399 C387 1.242 . S
O400 Tb378 2.324 . S
O400 C387 1.258 . S
O401 Eu379 2.500 . S
O401 C384 1.273 . S
O402 Eu379 2.473 . S
O402 C384 1.257 . S
H403 C389 0.929 . S
H404 C391 0.931 . S
H405 C393 0.929 . S
O406 Tb407 2.292 . S
O406 C409 1.255 . S
Tb407 O406 2.292 . S
Tb407 O423 2.326 . S
Tb407 O425 2.500 . S
Tb407 O426 2.473 . S
Tb407 O429 2.324 1_554 S
Eu408 O412 2.292 1_554 S
Eu408 C413 2.852 . S
Eu408 O424 2.324 . S
Eu408 O428 2.326 1_554 S
Eu408 O430 2.500 1_554 S
Eu408 O431 2.473 . S
C409 O406 1.255 . S
C409 O410 1.247 . S
O410 C409 1.247 . S
C411 O423 1.242 . S
C411 O424 1.258 . S
O412 Eu408 2.292 1_556 S
O412 C414 1.255 . S
C413 Eu408 2.852 . S
C413 C417 1.503 . S
C413 O430 1.273 1_554 S
C413 O431 1.257 . S
C414 O412 1.255 . S
C414 O415 1.247 . S
O415 C414 1.247 . S
C416 O428 1.242 . S
C416 O429 1.258 . S
C417 C413 1.503 . S
C417 C418 1.379 . S
C417 C422 1.392 1_554 S
C418 C417 1.379 . S
C418 C419 1.404 . S
C418 H432 0.929 . S
C419 C418 1.404 . S
C419 C420 1.389 . S
C420 C419 1.389 . S
C420 C421 1.399 1_554 S
C420 H433 0.931 . S
C421 C420 1.399 1_556 S
C421 C422 1.390 . S
C422 C417 1.392 1_556 S
C422 C421 1.390 . S
C422 H434 0.929 . S
O423 Tb407 2.326 . S
O423 C411 1.242 . S
O424 Eu408 2.324 . S
O424 C411 1.258 . S
O425 Tb407 2.500 . S
O425 C427 1.273 . S
O426 Tb407 2.473 . S
O426 C427 1.257 . S
C427 O425 1.273 . S
C427 O426 1.257 . S
O428 Eu408 2.326 1_556 S
O428 C416 1.242 . S
O429 Tb407 2.324 1_556 S
O429 C416 1.258 . S
O430 Eu408 2.500 1_556 S
O430 C413 1.273 1_556 S
O431 Eu408 2.473 . S
O431 C413 1.257 . S
H432 C418 0.929 . S
H433 C420 0.931 . S
H434 C422 0.929 . S
O435 Tb436 2.292 1_554 S
O435 C438 1.255 . S
Tb436 O435 2.292 1_556 S
Tb436 O452 2.326 1_556 S
Tb436 O454 2.500 1_556 S
Tb436 O455 2.473 . S
Tb436 O458 2.324 . S
Eu437 O441 2.292 . S
Eu437 C442 2.852 . S
Eu437 O453 2.324 1_556 S
Eu437 O457 2.326 . S
Eu437 O459 2.500 . S
Eu437 O460 2.473 . S
C438 O435 1.255 . S
C438 O439 1.247 . S
O439 C438 1.247 . S
C440 O452 1.242 . S
C440 O453 1.258 . S
O441 Eu437 2.292 . S
O441 C443 1.255 . S
C442 Eu437 2.852 . S
C442 C446 1.503 . S
C442 O459 1.273 . S
C442 O460 1.257 . S
C443 O441 1.255 . S
C443 O444 1.247 1_455 S
O444 C443 1.247 1_655 S
C445 O457 1.242 . S
C445 O458 1.258 . S
C446 C442 1.503 . S
C446 C447 1.379 . S
C446 C451 1.392 . S
C447 C446 1.379 . S
C447 C448 1.404 . S
C447 H461 0.929 1_556 S
C448 C447 1.404 . S
C448 C449 1.389 . S
C449 C448 1.389 . S
C449 C450 1.399 . S
C449 H462 0.931 . S
C450 C449 1.399 . S
C450 C451 1.390 . S
C451 C446 1.392 . S
C451 C450 1.390 . S
C451 H463 0.929 . S
O452 Tb436 2.326 1_554 S
O452 C440 1.242 . S
O453 Eu437 2.324 1_554 S
O453 C440 1.258 . S
O454 Tb436 2.500 1_554 S
O454 C456 1.273 1_554 S
O455 Tb436 2.473 . S
O455 C456 1.257 . S
C456 O454 1.273 1_556 S
C456 O455 1.257 . S
O457 Eu437 2.326 . S
O457 C445 1.242 . S
O458 Tb436 2.324 . S
O458 C445 1.258 . S
O459 Eu437 2.500 . S
O459 C442 1.273 . S
O460 Eu437 2.473 . S
O460 C442 1.257 . S
H461 C447 0.929 1_554 S
H462 C449 0.931 . S
H463 C451 0.929 . S
C224 C21 1.547 . S
C137 C50 1.615 . S
C166 C79 1.511 . S
C195 C108 1.690 . S
C253 C456 1.696 . S
C282 C369 1.926 1_455 S
C398 C311 1.347 . S
C427 C340 1.630 . S
C187 C15 3.356 1_556 S
C44 C218 3.878 1_565 S
C131 C71 3.199 . S
C158 C100 3.330 1_565 S
C247 C421 3.575 . S
C450 C276 3.893 1_565 S
C303 C361 3.149 . S
C334 C390 3.180 1_565 S
C42 C160 3.838 . S
C189 C73 3.485 . S
C102 C216 3.031 . S
C129 C13 3.682 . S
C392 C274 3.412 . S
C305 C419 4.177 . S
C448 C332 3.176 1_556 S
C245 C363 3.151 . S
C271 C8 2.021 . S
C440 C37 1.797 . S
C61 C329 2.965 . S
C387 C90 2.329 . S
C445 C124 2.044 . S
C324 C148 2.621 . S
C177 C382 2.577 . S
C211 C266 1.159 . S
C39 C240 1.796 . S
C269 C208 2.112 . S
C92 C293 2.967 . S
C327 C155 1.899 . S
C213 C351 2.151 . S
C97 C380 2.851 . S
C414 C150 2.165 . S
C34 C443 1.618 1_655 S
C411 C153 1.677 . S
C295 C182 1.859 . S
C206 C358 3.151 . S
C119 C242 2.401 1_455 S
C300 C95 1.931 . S
C353 C3 2.383 1_655 S
C237 C32 2.580 . S
C416 C66 1.635 . S
C184 C385 1.587 . S
C63 C409 2.233 . S
C121 C438 2.776 . S
C10 C356 2.210 . S
C68 C322 2.404 . S
C235 C126 2.626 1_655 S
C5 C264 2.371 . S
C179 C298 1.421 . S
